# Generated by pormake.
# Topology wkj, (6)-cn, num edge types: 1
# Building blocks:
#     Node 0, Type 0, BuildingBlock: CIFDUS_clean_sbu_1, # of connection points: 6
#     Node 1, Type 0, BuildingBlock: CIFDUS_clean_sbu_1, # of connection points: 6
#     Node 2, Type 0, BuildingBlock: CIFDUS_clean_sbu_1, # of connection points: 6
#     Node 3, Type 0, BuildingBlock: CIFDUS_clean_sbu_1, # of connection points: 6
#     Node 4, Type 0, BuildingBlock: CIFDUS_clean_sbu_1, # of connection points: 6
#     Node 5, Type 0, BuildingBlock: CIFDUS_clean_sbu_1, # of connection points: 6
#     Node 6, Type 0, BuildingBlock: CIFDUS_clean_sbu_1, # of connection points: 6
#     Node 7, Type 0, BuildingBlock: CIFDUS_clean_sbu_1, # of connection points: 6
#     Node 8, Type 0, BuildingBlock: CIFDUS_clean_sbu_1, # of connection points: 6
#     Node 9, Type 0, BuildingBlock: CIFDUS_clean_sbu_1, # of connection points: 6
#     Node 10, Type 0, BuildingBlock: CIFDUS_clean_sbu_1, # of connection points: 6
#     Node 11, Type 0, BuildingBlock: CIFDUS_clean_sbu_1, # of connection points: 6
#     Edge 12, Type (0, 0), BuildingBlock: EYOCIG_clean_linker_4, # of connection points: 2
#     Edge 13, Type (0, 0), BuildingBlock: EYOCIG_clean_linker_4, # of connection points: 2
#     Edge 14, Type (0, 0), BuildingBlock: EYOCIG_clean_linker_4, # of connection points: 2
#     Edge 15, Type (0, 0), BuildingBlock: EYOCIG_clean_linker_4, # of connection points: 2
#     Edge 16, Type (0, 0), BuildingBlock: EYOCIG_clean_linker_4, # of connection points: 2
#     Edge 17, Type (0, 0), BuildingBlock: EYOCIG_clean_linker_4, # of connection points: 2
#     Edge 18, Type (0, 0), BuildingBlock: EYOCIG_clean_linker_4, # of connection points: 2
#     Edge 19, Type (0, 0), BuildingBlock: EYOCIG_clean_linker_4, # of connection points: 2
#     Edge 20, Type (0, 0), BuildingBlock: EYOCIG_clean_linker_4, # of connection points: 2
#     Edge 21, Type (0, 0), BuildingBlock: EYOCIG_clean_linker_4, # of connection points: 2
#     Edge 22, Type (0, 0), BuildingBlock: EYOCIG_clean_linker_4, # of connection points: 2
#     Edge 23, Type (0, 0), BuildingBlock: EYOCIG_clean_linker_4, # of connection points: 2
#     Edge 24, Type (0, 0), BuildingBlock: EYOCIG_clean_linker_4, # of connection points: 2
#     Edge 25, Type (0, 0), BuildingBlock: EYOCIG_clean_linker_4, # of connection points: 2
#     Edge 26, Type (0, 0), BuildingBlock: EYOCIG_clean_linker_4, # of connection points: 2
#     Edge 27, Type (0, 0), BuildingBlock: EYOCIG_clean_linker_4, # of connection points: 2
#     Edge 28, Type (0, 0), BuildingBlock: EYOCIG_clean_linker_4, # of connection points: 2
#     Edge 29, Type (0, 0), BuildingBlock: EYOCIG_clean_linker_4, # of connection points: 2
#     Edge 30, Type (0, 0), BuildingBlock: EYOCIG_clean_linker_4, # of connection points: 2
#     Edge 31, Type (0, 0), BuildingBlock: EYOCIG_clean_linker_4, # of connection points: 2
#     Edge 32, Type (0, 0), BuildingBlock: EYOCIG_clean_linker_4, # of connection points: 2
#     Edge 33, Type (0, 0), BuildingBlock: EYOCIG_clean_linker_4, # of connection points: 2
#     Edge 34, Type (0, 0), BuildingBlock: EYOCIG_clean_linker_4, # of connection points: 2
#     Edge 35, Type (0, 0), BuildingBlock: EYOCIG_clean_linker_4, # of connection points: 2
#     Edge 36, Type (0, 0), BuildingBlock: EYOCIG_clean_linker_4, # of connection points: 2
#     Edge 37, Type (0, 0), BuildingBlock: EYOCIG_clean_linker_4, # of connection points: 2
#     Edge 38, Type (0, 0), BuildingBlock: EYOCIG_clean_linker_4, # of connection points: 2
#     Edge 39, Type (0, 0), BuildingBlock: EYOCIG_clean_linker_4, # of connection points: 2
#     Edge 40, Type (0, 0), BuildingBlock: EYOCIG_clean_linker_4, # of connection points: 2
#     Edge 41, Type (0, 0), BuildingBlock: EYOCIG_clean_linker_4, # of connection points: 2
#     Edge 42, Type (0, 0), BuildingBlock: EYOCIG_clean_linker_4, # of connection points: 2
#     Edge 43, Type (0, 0), BuildingBlock: EYOCIG_clean_linker_4, # of connection points: 2
#     Edge 44, Type (0, 0), BuildingBlock: EYOCIG_clean_linker_4, # of connection points: 2
#     Edge 45, Type (0, 0), BuildingBlock: EYOCIG_clean_linker_4, # of connection points: 2
#     Edge 46, Type (0, 0), BuildingBlock: EYOCIG_clean_linker_4, # of connection points: 2
#     Edge 47, Type (0, 0), BuildingBlock: EYOCIG_clean_linker_4, # of connection points: 2
# Relax obj value: 0.526
# Max RMSD: 0.243
# Mean RMSD: 0.243
data_MOF--net-wkj--node1-CIFDUS_clean_sbu_1--edge1-EYOCIG_clean_linker_4
_symmetry_space_group_name_H-M    P1
_symmetry_Int_Tables_number       1
_symmetry_cell_setting            triclinic
loop_
_symmetry_equiv_pos_as_xyz
'x, y, z'
_cell_length_a     42.399196
_cell_length_b     42.391904
_cell_length_c     18.547376
_cell_angle_alpha  89.995611
_cell_angle_beta   89.9754
_cell_angle_gamma 118.90628
loop_
_atom_site_label
_atom_site_type_symbol
_atom_site_fract_x
_atom_site_fract_y
_atom_site_fract_z
_atom_type_partial_charge
O0 O 0.47572 0.10185 0.37088 0.0
Mn1 Mn 0.4372 0.07545 0.29227 0.0
O2 O 0.45135 0.12305 0.45277 0.0
Mn3 Mn 0.40727 0.10654 0.40639 0.0
O4 O 0.39805 0.04671 0.21198 0.0
O5 O 0.45874 0.0443 0.2787 0.0
Mn6 Mn 0.46504 0.03439 0.19089 0.0
O7 O 0.47315 0.11149 0.21316 0.0
O8 O 0.41862 0.01314 0.1537 0.0
O9 O 0.40365 0.03782 0.36963 0.0
O10 O 0.37344 0.06038 0.43014 0.0
O11 O 0.47974 0.00912 0.25317 0.0
O12 O 0.49617 0.07968 0.15576 0.0
C13 C 0.40629 0.13315 0.31182 0.0
C14 C 0.47702 0.11823 0.42971 0.0
C15 C 0.39457 0.02245 0.16544 0.0
C16 C 0.4698 0.02346 0.30344 0.0
C17 C 0.49495 0.10873 0.1675 0.0
C18 C 0.37978 0.03481 0.41575 0.0
O19 O 0.41634 0.10872 0.31271 0.0
O20 O 0.39419 0.13868 0.37191 0.0
O21 O 0.35509 0.46608 0.70281 0.0
Mn22 Mn 0.33107 0.42526 0.626 0.0
O23 O 0.31227 0.46198 0.77909 0.0
Mn24 Mn 0.27691 0.42005 0.73834 0.0
O25 O 0.30979 0.38384 0.54674 0.0
O26 O 0.37847 0.42845 0.6144 0.0
Mn27 Mn 0.39365 0.42972 0.52699 0.0
O28 O 0.34357 0.46507 0.54558 0.0
O29 O 0.35886 0.38563 0.49286 0.0
O30 O 0.32151 0.38626 0.70439 0.0
O31 O 0.27496 0.3786 0.77289 0.0
O32 O 0.43079 0.436 0.59007 0.0
O33 O 0.39264 0.46948 0.48742 0.0
C34 C 0.25017 0.42036 0.64564 0.0
C35 C 0.34472 0.4769 0.7578 0.0
C36 C 0.3249 0.3713 0.50281 0.0
C37 C 0.40867 0.43426 0.63973 0.0
C38 C 0.36924 0.4797 0.49859 0.0
C39 C 0.2987 0.37022 0.75488 0.0
O40 O 0.28175 0.42209 0.64273 0.0
O41 O 0.23586 0.41825 0.70842 0.0
O42 O 0.83325 0.35619 1.03636 0.0
Mn43 Mn 0.86035 0.34374 0.95809 0.0
O44 O 0.81031 0.31046 0.11605 0.0
Mn45 Mn 0.8284 0.28358 0.07056 0.0
O46 O 0.8897 0.33318 0.87783 0.0
O47 O 0.89195 0.39592 0.94658 0.0
Mn48 Mn 0.90088 0.41182 0.85852 0.0
O49 O 0.82454 0.34477 0.87858 0.0
O50 O 0.9225 0.38651 0.82 0.0
O51 O 0.8975 0.34653 1.03586 0.0
O52 O 0.87431 0.29508 0.09816 0.0
O53 O 0.9267 0.45115 0.91957 0.0
O54 O 0.85569 0.39908 0.82316 0.0
C55 C 0.8034 0.25577 0.97634 0.0
C56 C 0.8158 0.34113 0.09393 0.0
C57 C 0.91371 0.35354 0.83123 0.0
C58 C 0.91425 0.42717 0.96992 0.0
C59 C 0.82698 0.36934 0.83365 0.0
C60 C 0.90005 0.32597 0.08342 0.0
O61 O 0.8268 0.29 0.97614 0.0
O62 O 0.79769 0.23896 1.0373 0.0
O63 O 0.45213 0.84218 0.37138 0.0
Mn64 Mn 0.4906 0.86867 0.29257 0.0
O65 O 0.47671 0.82105 0.45291 0.0
Mn66 Mn 0.52073 0.83759 0.40625 0.0
O67 O 0.52971 0.89751 0.21211 0.0
O68 O 0.46902 0.8998 0.27931 0.0
Mn69 Mn 0.46262 0.90971 0.19159 0.0
O70 O 0.45467 0.83267 0.21349 0.0
O71 O 0.509 0.93102 0.15407 0.0
O72 O 0.52417 0.90624 0.3699 0.0
O73 O 0.55455 0.88376 0.42993 0.0
O74 O 0.44796 0.93495 0.25403 0.0
O75 O 0.4315 0.86445 0.15652 0.0
C76 C 0.52151 0.81093 0.31163 0.0
C77 C 0.45098 0.82582 0.43017 0.0
C78 C 0.5331 0.92176 0.1656 0.0
C79 C 0.45798 0.92063 0.30418 0.0
C80 C 0.43281 0.83543 0.16802 0.0
C81 C 0.5481 0.90928 0.41581 0.0
O82 O 0.51151 0.83539 0.31268 0.0
O83 O 0.53374 0.80543 0.37157 0.0
O84 O 0.57416 0.47879 0.70415 0.0
Mn85 Mn 0.5976 0.51921 0.62649 0.0
O86 O 0.61745 0.4851 0.78164 0.0
Mn87 Mn 0.65283 0.52625 0.7382 0.0
O88 O 0.61862 0.56036 0.54658 0.0
O89 O 0.55009 0.51579 0.61519 0.0
Mn90 Mn 0.53483 0.51435 0.52779 0.0
O91 O 0.58504 0.47915 0.54668 0.0
O92 O 0.5694 0.55849 0.49333 0.0
O93 O 0.60718 0.55848 0.70435 0.0
O94 O 0.65539 0.56843 0.76955 0.0
O95 O 0.49762 0.50784 0.59094 0.0
O96 O 0.53602 0.47467 0.48831 0.0
C97 C 0.6782 0.52365 0.645 0.0
C98 C 0.58497 0.46922 0.7603 0.0
C99 C 0.6034 0.57283 0.50281 0.0
C100 C 0.51979 0.50971 0.64055 0.0
C101 C 0.55942 0.46447 0.49969 0.0
C102 C 0.63077 0.57575 0.75286 0.0
O103 O 0.64681 0.5223 0.643 0.0
O104 O 0.69339 0.52713 0.70726 0.0
O105 O 0.095 0.589 1.03665 0.0
Mn106 Mn 0.06793 0.60097 0.95799 0.0
O107 O 0.11663 0.63445 0.11702 0.0
Mn108 Mn 0.09907 0.66155 0.07011 0.0
O109 O 0.0385 0.61124 0.87745 0.0
O110 O 0.03717 0.54885 0.94617 0.0
Mn111 Mn 0.02719 0.53263 0.85863 0.0
O112 O 0.10377 0.59987 0.87886 0.0
O113 O 0.00538 0.55775 0.8205 0.0
O114 O 0.0305 0.59809 1.03566 0.0
O115 O 0.05293 0.65014 0.09577 0.0
O116 O 0.00253 0.49349 0.92086 0.0
O117 O 0.07244 0.54555 0.82325 0.0
C118 C 0.12472 0.68867 0.97529 0.0
C119 C 0.11182 0.60402 0.09471 0.0
C120 C 0.01436 0.59078 0.83121 0.0
C121 C 0.01707 0.5174 0.97093 0.0
C122 C 0.10123 0.57523 0.834 0.0
C123 C 0.02752 0.61892 0.08203 0.0
O124 O 0.10108 0.65459 0.97611 0.0
O125 O 0.13015 0.70594 1.03558 0.0
O126 O 0.83364 0.45998 0.38092 0.0
Mn127 Mn 0.86034 0.49832 0.45961 0.0
O128 O 0.81233 0.48453 0.29973 0.0
Mn129 Mn 0.82931 0.52862 0.34636 0.0
O130 O 0.88932 0.53724 0.54006 0.0
O131 O 0.89135 0.4765 0.47236 0.0
Mn132 Mn 0.90117 0.46986 0.56 0.0
O133 O 0.82434 0.4624 0.53869 0.0
O134 O 0.92251 0.51614 0.598 0.0
O135 O 0.89793 0.53187 0.38228 0.0
O136 O 0.87548 0.56225 0.32214 0.0
O137 O 0.92657 0.45548 0.49742 0.0
O138 O 0.85585 0.43872 0.59491 0.0
C139 C 0.80304 0.5299 0.4411 0.0
C140 C 0.81706 0.45875 0.32245 0.0
C141 C 0.91344 0.54038 0.58661 0.0
C142 C 0.91232 0.46564 0.44739 0.0
C143 C 0.82695 0.44031 0.5838 0.0
C144 C 0.90098 0.55579 0.33631 0.0
O145 O 0.82722 0.5195 0.44004 0.0
O146 O 0.79758 0.54212 0.38112 0.0
O147 O 0.34787 0.84194 0.71665 0.0
Mn148 Mn 0.33489 0.8685 0.79509 0.0
O149 O 0.30248 0.81937 0.63621 0.0
Mn150 Mn 0.27493 0.8366 0.68212 0.0
O151 O 0.3238 0.89751 0.87537 0.0
O152 O 0.38682 0.9001 0.80745 0.0
Mn153 Mn 0.40267 0.90963 0.89539 0.0
O154 O 0.33619 0.83277 0.87446 0.0
O155 O 0.37695 0.93078 0.93344 0.0
O156 O 0.33751 0.90573 0.71732 0.0
O157 O 0.28587 0.88252 0.65572 0.0
O158 O 0.44189 0.93526 0.83391 0.0
O159 O 0.39029 0.86442 0.93044 0.0
C160 C 0.24738 0.81078 0.77622 0.0
C161 C 0.33311 0.82488 0.65858 0.0
C162 C 0.34393 0.92163 0.922 0.0
C163 C 0.41821 0.92123 0.78336 0.0
C164 C 0.3608 0.83548 0.91954 0.0
C165 C 0.31677 0.90829 0.67015 0.0
O166 O 0.28141 0.83466 0.77632 0.0
O167 O 0.23048 0.80516 0.71543 0.0
O168 O 0.45792 0.362 0.04889 0.0
Mn169 Mn 0.4175 0.3386 0.1265 0.0
O170 O 0.45106 0.31873 0.9707 0.0
Mn171 Mn 0.41003 0.28327 1.01442 0.0
O172 O 0.37628 0.31747 0.20624 0.0
O173 O 0.42105 0.38616 0.1381 0.0
Mn174 Mn 0.42229 0.40122 0.22562 0.0
O175 O 0.45747 0.35096 0.20643 0.0
O176 O 0.37809 0.36662 0.25974 0.0
O177 O 0.37835 0.32928 0.04863 0.0
O178 O 0.36776 0.28077 0.98382 0.0
O179 O 0.42888 0.43857 0.16283 0.0
O180 O 0.46186 0.39989 0.26517 0.0
C181 C 0.41293 0.25799 0.10754 0.0
C182 C 0.46719 0.35117 0.99233 0.0
C183 C 0.36374 0.33264 0.25005 0.0
C184 C 0.42709 0.41651 0.11302 0.0
C185 C 0.47207 0.3765 0.25366 0.0
C186 C 0.3608 0.30565 1.00039 0.0
O187 O 0.41429 0.28938 0.10957 0.0
O188 O 0.40923 0.24272 0.04529 0.0
O189 O 0.09451 0.4851 0.38177 0.0
Mn190 Mn 0.06792 0.44631 0.46013 0.0
O191 O 0.11708 0.46176 0.30085 0.0
Mn192 Mn 0.09939 0.4173 0.34595 0.0
O193 O 0.03898 0.40717 0.54041 0.0
O194 O 0.03684 0.46799 0.47342 0.0
Mn195 Mn 0.02696 0.47444 0.56114 0.0
O196 O 0.10388 0.48208 0.53933 0.0
O197 O 0.00568 0.42808 0.59873 0.0
O198 O 0.03028 0.41292 0.38285 0.0
O199 O 0.05344 0.38413 0.3195 0.0
O200 O 0.00163 0.48899 0.49873 0.0
O201 O 0.07228 0.50555 0.59604 0.0
C202 C 0.12479 0.41387 0.43971 0.0
C203 C 0.1117 0.48706 0.32374 0.0
C204 C 0.01482 0.40389 0.58708 0.0
C205 C 0.01597 0.47899 0.44857 0.0
C206 C 0.10122 0.50406 0.58466 0.0
C207 C 0.02761 0.38981 0.33526 0.0
O208 O 0.10121 0.42515 0.44028 0.0
O209 O 0.13045 0.40267 0.37862 0.0
O210 O 0.5803 0.10263 0.7163 0.0
Mn211 Mn 0.5932 0.07601 0.79475 0.0
O212 O 0.6257 0.12542 0.63592 0.0
Mn213 Mn 0.65297 0.10782 0.68161 0.0
O214 O 0.60409 0.0469 0.87512 0.0
O215 O 0.54122 0.04457 0.80709 0.0
Mn216 Mn 0.52531 0.03503 0.89502 0.0
O217 O 0.59197 0.11181 0.87407 0.0
O218 O 0.55084 0.01368 0.93302 0.0
O219 O 0.59044 0.03867 0.71711 0.0
O220 O 0.64182 0.06193 0.65455 0.0
O221 O 0.48608 0.00961 0.83357 0.0
O222 O 0.53783 0.08024 0.93013 0.0
C223 C 0.68101 0.13329 0.77528 0.0
C224 C 0.59504 0.11981 0.65831 0.0
C225 C 0.58385 0.02276 0.92169 0.0
C226 C 0.5098 0.02359 0.78302 0.0
C227 C 0.56736 0.10915 0.91919 0.0
C228 C 0.61101 0.03612 0.66949 0.0
O229 O 0.64683 0.10975 0.77606 0.0
O230 O 0.69761 0.13889 0.7141 0.0
O231 O 0.47137 0.58317 0.04711 0.0
Mn232 Mn 0.51152 0.60621 0.12522 0.0
O233 O 0.47894 0.62684 0.96918 0.0
Mn234 Mn 0.51963 0.66217 1.01406 0.0
O235 O 0.55255 0.62707 0.20532 0.0
O236 O 0.50795 0.55857 0.13622 0.0
Mn237 Mn 0.50664 0.54335 0.22366 0.0
O238 O 0.47134 0.59351 0.20498 0.0
O239 O 0.55079 0.5778 0.25805 0.0
O240 O 0.55087 0.61583 0.04744 0.0
O241 O 0.56215 0.665 0.98428 0.0
O242 O 0.50007 0.50609 0.16077 0.0
O243 O 0.46704 0.54455 0.26344 0.0
C244 C 0.51594 0.68681 0.10746 0.0
C245 C 0.46256 0.59431 0.99035 0.0
C246 C 0.56506 0.6118 0.24888 0.0
C247 C 0.50184 0.5282 0.11107 0.0
C248 C 0.45676 0.56789 0.25209 0.0
C249 C 0.56879 0.63982 0.99999 0.0
O250 O 0.5147 0.65546 0.109 0.0
O251 O 0.52006 0.70246 0.04551 0.0
C252 C 0.41886 0.18565 0.22645 0.0
C253 C 0.41531 0.15913 0.25644 0.0
C254 C 0.41961 0.21699 0.20042 0.0
C255 C 0.41741 0.24033 0.1683 0.0
C256 C 0.20673 0.42266 0.55262 0.0
C257 C 0.23092 0.42208 0.58475 0.0
C258 C 0.17546 0.42204 0.52641 0.0
C259 C 0.14976 0.42028 0.496 0.0
C260 C 0.75351 0.21406 0.88855 0.0
C261 C 0.77882 0.23767 0.91931 0.0
C262 C 0.7229 0.18343 0.8625 0.0
C263 C 0.69927 0.15803 0.83199 0.0
C264 C 0.50812 0.72704 0.20047 0.0
C265 C 0.51076 0.70395 0.1683 0.0
C266 C 0.50868 0.7583 0.22648 0.0
C267 C 0.5123 0.78487 0.25637 0.0
C268 C 0.71938 0.51725 0.55219 0.0
C269 C 0.69595 0.51938 0.58416 0.0
C270 C 0.7507 0.51785 0.52646 0.0
C271 C 0.77715 0.52112 0.49659 0.0
C272 C 0.20642 0.7599 0.86293 0.0
C273 C 0.22975 0.78567 0.83272 0.0
C274 C 0.1757 0.72922 0.88843 0.0
C275 C 0.14991 0.70599 0.91875 0.0
C276 C 0.56214 0.15104 1.01366 0.0
C277 C 0.57197 0.13856 0.96521 0.0
C278 C 0.54112 0.15091 0.0738 0.0
C279 C 0.51909 0.13828 0.12201 0.0
C280 C 0.40544 0.55241 0.34594 0.0
C281 C 0.42787 0.56453 0.29844 0.0
C282 C 0.38442 0.5311 0.4049 0.0
C283 C 0.37254 0.50856 0.45223 0.0
C284 C 0.78492 0.37392 0.73872 0.0
C285 C 0.79757 0.3644 0.78733 0.0
C286 C 0.78488 0.39463 0.67823 0.0
C287 C 0.79748 0.41649 0.62975 0.0
C288 C 0.36595 0.79347 1.01389 0.0
C289 C 0.35622 0.80606 0.96552 0.0
C290 C 0.38683 0.79341 0.07407 0.0
C291 C 0.40878 0.80594 0.12237 0.0
C292 C 0.52331 0.39173 0.34738 0.0
C293 C 0.50089 0.37972 0.29991 0.0
C294 C 0.54433 0.41301 0.40632 0.0
C295 C 0.55618 0.43557 0.45355 0.0
C296 C 0.14331 0.57053 0.73927 0.0
C297 C 0.13065 0.58008 0.78782 0.0
C298 C 0.14333 0.54979 0.67884 0.0
C299 C 0.13071 0.52792 0.63043 0.0
C300 C 0.33072 0.95972 1.01513 0.0
C301 C 0.32994 0.93959 0.96782 0.0
C302 C 0.34345 -0.0154 0.0736 0.0
C303 C 0.36296 0.00457 0.12023 0.0
C304 C 0.31341 0.30937 0.3458 0.0
C305 C 0.33347 0.31195 0.29684 0.0
C306 C 0.30166 0.32099 0.40719 0.0
C307 C 0.30417 0.341 0.45617 0.0
C308 C -0.02312 0.35304 0.67943 0.0
C309 C -0.00314 0.37237 0.63257 0.0
C310 C 0.95203 0.34054 0.73801 0.0
C311 C 0.93189 0.33981 0.78527 0.0
C312 C 0.58413 0.95968 0.07344 0.0
C313 C 0.56466 0.93969 0.12017 0.0
C314 C 0.59686 -0.01544 1.01493 0.0
C315 C 0.59772 0.00472 0.96759 0.0
C316 C 0.62656 0.62305 0.40677 0.0
C317 C 0.62401 0.60304 0.45582 0.0
C318 C 0.61501 0.63478 0.34529 0.0
C319 C 0.59514 0.63236 0.29612 0.0
C320 C -0.02383 0.60369 0.73764 0.0
C321 C -0.00373 0.60447 0.78498 0.0
C322 C 0.95137 0.59115 0.67906 0.0
C323 C 0.93141 0.57183 0.63221 0.0
C324 C 0.4649 -0.01088 0.41832 0.0
C325 C 0.46564 0.01109 0.37645 0.0
C326 C 0.46316 0.95523 0.41867 0.0
C327 C 0.46231 0.93309 0.37713 0.0
C328 C 0.44542 0.46039 0.75331 0.0
C329 C 0.42072 0.4457 0.71193 0.0
C330 C 0.48286 0.48308 0.75367 0.0
C331 C 0.5077 0.49804 0.71267 0.0
C332 C 0.95066 0.45621 0.08325 0.0
C333 C 0.92924 0.4353 1.0411 0.0
C334 C -0.01648 0.48828 0.08524 0.0
C335 C 0.00538 0.50937 0.04414 0.0
C336 C -0.0185 0.47373 0.33372 0.0
C337 C 0.00354 0.47466 0.3756 0.0
C338 C 0.94745 0.47162 0.33322 0.0
C339 C 0.92508 0.4704 0.37459 0.0
C340 C 0.44795 0.95587 0.66966 0.0
C341 C 0.42663 0.93389 0.71055 0.0
C342 C 0.47992 -0.01095 0.66947 0.0
C343 C 0.50133 0.01102 0.71019 0.0
C344 C 0.47534 0.49092 0.9985 0.0
C345 C 0.49019 0.51598 1.03903 0.0
C346 C 0.45301 0.45341 0.99939 0.0
C347 C 0.43848 0.42867 1.04081 0.0
C348 C 0.34132 0.95952 0.57215 0.0
C349 C 0.33185 0.93712 0.61897 0.0
C350 C 0.35329 -0.01687 0.51263 0.0
C351 C 0.36629 0.00559 0.46607 0.0
C352 C 0.32162 0.31753 0.90633 0.0
C353 C 0.33963 0.31285 0.95038 0.0
C354 C 0.30951 0.33025 0.84875 0.0
C355 C 0.30547 0.34858 0.80444 0.0
C356 C 0.95156 0.35087 0.18066 0.0
C357 C 0.92899 0.34119 0.13421 0.0
C358 C -0.02457 0.36305 0.23966 0.0
C359 C -0.00193 0.37614 0.2858 0.0
C360 C 0.58639 -0.01535 0.57206 0.0
C361 C 0.59586 0.00713 0.6187 0.0
C362 C 0.57446 0.96095 0.51272 0.0
C363 C 0.56154 0.93844 0.46624 0.0
C364 C 0.60773 0.62808 0.90501 0.0
C365 C 0.58982 0.6327 0.94942 0.0
C366 C 0.61977 0.61546 0.8471 0.0
C367 C 0.62391 0.59721 0.80276 0.0
C368 C -0.02369 0.59423 0.18005 0.0
C369 C -0.00125 0.60379 0.13331 0.0
C370 C 0.95266 0.58223 0.23947 0.0
C371 C 0.93017 0.56926 0.28597 0.0
C372 C 0.53094 0.13403 0.5184 0.0
C373 C 0.50648 0.12667 0.4773 0.0
C374 C 0.55563 0.13446 0.56938 0.0
C375 C 0.57351 0.1277 0.61025 0.0
C376 C 0.39126 0.52571 0.84611 0.0
C377 C 0.37122 0.50365 0.80375 0.0
C378 C 0.41434 0.54878 0.89978 0.0
C379 C 0.43609 0.56847 0.94301 0.0
C380 C 0.80045 0.38014 0.18259 0.0
C381 C 0.80749 0.36235 0.142 0.0
C382 C 0.8008 0.40481 0.23353 0.0
C383 C 0.80837 0.42928 0.27474 0.0
C384 C 0.39711 0.81024 0.519 0.0
C385 C 0.42166 0.81741 0.47819 0.0
C386 C 0.37243 0.80999 0.56983 0.0
C387 C 0.35454 0.81683 0.61053 0.0
C388 C 0.53899 0.42042 0.84949 0.0
C389 C 0.55886 0.44245 0.80686 0.0
C390 C 0.51584 0.39718 0.90294 0.0
C391 C 0.49389 0.37727 0.94565 0.0
C392 C 0.12737 0.54141 0.23615 0.0
C393 C 0.12015 0.51664 0.27641 0.0
C394 C 0.12758 0.56594 0.18499 0.0
C395 C 0.12018 0.58288 0.1429 0.0
loop_
_geom_bond_atom_site_label_1
_geom_bond_atom_site_label_2
_geom_bond_distance
_geom_bond_site_symmetry_2
_ccdc_geom_bond_type
O0 Mn1 2.163 . S
O0 C14 1.244 . S
Mn1 O0 2.163 . S
Mn1 O4 2.160 . S
Mn1 O5 2.221 . S
Mn1 O7 2.163 . S
Mn1 O9 2.160 . S
Mn1 O19 2.221 . S
O2 Mn3 2.087 . S
O2 C14 1.256 . S
Mn3 O2 2.087 . S
Mn3 O10 2.089 . S
Mn3 O19 2.290 . S
Mn3 O20 2.251 . S
O4 Mn1 2.160 . S
O4 C15 1.239 . S
O5 Mn1 2.221 . S
O5 Mn6 2.290 . S
O5 C16 1.278 . S
Mn6 O5 2.290 . S
Mn6 O8 2.089 . S
Mn6 O11 2.251 . S
Mn6 O12 2.087 . S
O7 Mn1 2.163 . S
O7 C17 1.244 . S
O8 Mn6 2.089 . S
O8 C15 1.256 . S
O9 Mn1 2.160 . S
O9 C18 1.239 . S
O10 Mn3 2.089 . S
O10 C18 1.256 . S
O11 Mn6 2.251 . S
O11 C16 1.241 . S
O12 Mn6 2.087 . S
O12 C17 1.256 . S
C13 O19 1.278 . S
C13 O20 1.241 . S
C14 O0 1.244 . S
C14 O2 1.256 . S
C15 O4 1.239 . S
C15 O8 1.256 . S
C16 O5 1.278 . S
C16 O11 1.241 . S
C17 O7 1.244 . S
C17 O12 1.256 . S
C18 O9 1.239 . S
C18 O10 1.256 . S
O19 Mn1 2.221 . S
O19 Mn3 2.290 . S
O19 C13 1.278 . S
O20 Mn3 2.251 . S
O20 C13 1.241 . S
O21 Mn22 2.163 . S
O21 C35 1.244 . S
Mn22 O21 2.163 . S
Mn22 O25 2.160 . S
Mn22 O26 2.221 . S
Mn22 O28 2.163 . S
Mn22 O30 2.160 . S
Mn22 O40 2.221 . S
O23 Mn24 2.087 . S
O23 C35 1.256 . S
Mn24 O23 2.087 . S
Mn24 O31 2.089 . S
Mn24 O40 2.290 . S
Mn24 O41 2.251 . S
O25 Mn22 2.160 . S
O25 C36 1.239 . S
O26 Mn22 2.221 . S
O26 Mn27 2.290 . S
O26 C37 1.278 . S
Mn27 O26 2.290 . S
Mn27 O29 2.089 . S
Mn27 O32 2.251 . S
Mn27 O33 2.087 . S
O28 Mn22 2.163 . S
O28 C38 1.244 . S
O29 Mn27 2.089 . S
O29 C36 1.256 . S
O30 Mn22 2.160 . S
O30 C39 1.239 . S
O31 Mn24 2.089 . S
O31 C39 1.256 . S
O32 Mn27 2.251 . S
O32 C37 1.241 . S
O33 Mn27 2.087 . S
O33 C38 1.256 . S
C34 O40 1.278 . S
C34 O41 1.241 . S
C35 O21 1.244 . S
C35 O23 1.256 . S
C36 O25 1.239 . S
C36 O29 1.256 . S
C37 O26 1.278 . S
C37 O32 1.241 . S
C38 O28 1.244 . S
C38 O33 1.256 . S
C39 O30 1.239 . S
C39 O31 1.256 . S
O40 Mn22 2.221 . S
O40 Mn24 2.290 . S
O40 C34 1.278 . S
O41 Mn24 2.251 . S
O41 C34 1.241 . S
O42 Mn43 2.163 . S
O42 C56 1.244 1_556 S
Mn43 O42 2.163 . S
Mn43 O46 2.160 . S
Mn43 O47 2.221 . S
Mn43 O49 2.163 . S
Mn43 O51 2.160 . S
Mn43 O61 2.221 . S
O44 Mn45 2.087 . S
O44 C56 1.256 . S
Mn45 O44 2.087 . S
Mn45 O52 2.089 . S
Mn45 O61 2.290 1_554 S
Mn45 O62 2.251 1_554 S
O46 Mn43 2.160 . S
O46 C57 1.239 . S
O47 Mn43 2.221 . S
O47 Mn48 2.290 . S
O47 C58 1.278 . S
Mn48 O47 2.290 . S
Mn48 O50 2.089 . S
Mn48 O53 2.251 . S
Mn48 O54 2.087 . S
O49 Mn43 2.163 . S
O49 C59 1.244 . S
O50 Mn48 2.089 . S
O50 C57 1.256 . S
O51 Mn43 2.160 . S
O51 C60 1.239 1_556 S
O52 Mn45 2.089 . S
O52 C60 1.256 . S
O53 Mn48 2.251 . S
O53 C58 1.241 . S
O54 Mn48 2.087 . S
O54 C59 1.256 . S
C55 O61 1.278 . S
C55 O62 1.241 . S
C56 O42 1.244 1_554 S
C56 O44 1.256 . S
C57 O46 1.239 . S
C57 O50 1.256 . S
C58 O47 1.278 . S
C58 O53 1.241 . S
C59 O49 1.244 . S
C59 O54 1.256 . S
C60 O51 1.239 1_554 S
C60 O52 1.256 . S
O61 Mn43 2.221 . S
O61 Mn45 2.290 1_556 S
O61 C55 1.278 . S
O62 Mn45 2.251 1_556 S
O62 C55 1.241 . S
O63 Mn64 2.163 . S
O63 C77 1.244 . S
Mn64 O63 2.163 . S
Mn64 O67 2.160 . S
Mn64 O68 2.221 . S
Mn64 O70 2.163 . S
Mn64 O72 2.160 . S
Mn64 O82 2.221 . S
O65 Mn66 2.087 . S
O65 C77 1.256 . S
Mn66 O65 2.087 . S
Mn66 O73 2.089 . S
Mn66 O82 2.290 . S
Mn66 O83 2.251 . S
O67 Mn64 2.160 . S
O67 C78 1.239 . S
O68 Mn64 2.221 . S
O68 Mn69 2.290 . S
O68 C79 1.278 . S
Mn69 O68 2.290 . S
Mn69 O71 2.089 . S
Mn69 O74 2.251 . S
Mn69 O75 2.087 . S
O70 Mn64 2.163 . S
O70 C80 1.244 . S
O71 Mn69 2.089 . S
O71 C78 1.256 . S
O72 Mn64 2.160 . S
O72 C81 1.239 . S
O73 Mn66 2.089 . S
O73 C81 1.256 . S
O74 Mn69 2.251 . S
O74 C79 1.241 . S
O75 Mn69 2.087 . S
O75 C80 1.256 . S
C76 O82 1.278 . S
C76 O83 1.241 . S
C77 O63 1.244 . S
C77 O65 1.256 . S
C78 O67 1.239 . S
C78 O71 1.256 . S
C79 O68 1.278 . S
C79 O74 1.241 . S
C80 O70 1.244 . S
C80 O75 1.256 . S
C81 O72 1.239 . S
C81 O73 1.256 . S
O82 Mn64 2.221 . S
O82 Mn66 2.290 . S
O82 C76 1.278 . S
O83 Mn66 2.251 . S
O83 C76 1.241 . S
O84 Mn85 2.163 . S
O84 C98 1.244 . S
Mn85 O84 2.163 . S
Mn85 O88 2.160 . S
Mn85 O89 2.221 . S
Mn85 O91 2.163 . S
Mn85 O93 2.160 . S
Mn85 O103 2.221 . S
O86 Mn87 2.087 . S
O86 C98 1.256 . S
Mn87 O86 2.087 . S
Mn87 O94 2.089 . S
Mn87 O103 2.290 . S
Mn87 O104 2.251 . S
O88 Mn85 2.160 . S
O88 C99 1.239 . S
O89 Mn85 2.221 . S
O89 Mn90 2.290 . S
O89 C100 1.278 . S
Mn90 O89 2.290 . S
Mn90 O92 2.089 . S
Mn90 O95 2.251 . S
Mn90 O96 2.087 . S
O91 Mn85 2.163 . S
O91 C101 1.244 . S
O92 Mn90 2.089 . S
O92 C99 1.256 . S
O93 Mn85 2.160 . S
O93 C102 1.239 . S
O94 Mn87 2.089 . S
O94 C102 1.256 . S
O95 Mn90 2.251 . S
O95 C100 1.241 . S
O96 Mn90 2.087 . S
O96 C101 1.256 . S
C97 O103 1.278 . S
C97 O104 1.241 . S
C98 O84 1.244 . S
C98 O86 1.256 . S
C99 O88 1.239 . S
C99 O92 1.256 . S
C100 O89 1.278 . S
C100 O95 1.241 . S
C101 O91 1.244 . S
C101 O96 1.256 . S
C102 O93 1.239 . S
C102 O94 1.256 . S
O103 Mn85 2.221 . S
O103 Mn87 2.290 . S
O103 C97 1.278 . S
O104 Mn87 2.251 . S
O104 C97 1.241 . S
O105 Mn106 2.163 . S
O105 C119 1.244 1_556 S
Mn106 O105 2.163 . S
Mn106 O109 2.160 . S
Mn106 O110 2.221 . S
Mn106 O112 2.163 . S
Mn106 O114 2.160 . S
Mn106 O124 2.221 . S
O107 Mn108 2.087 . S
O107 C119 1.256 . S
Mn108 O107 2.087 . S
Mn108 O115 2.089 . S
Mn108 O124 2.290 1_554 S
Mn108 O125 2.251 1_554 S
O109 Mn106 2.160 . S
O109 C120 1.239 . S
O110 Mn106 2.221 . S
O110 Mn111 2.290 . S
O110 C121 1.278 . S
Mn111 O110 2.290 . S
Mn111 O113 2.089 . S
Mn111 O116 2.251 . S
Mn111 O117 2.087 . S
O112 Mn106 2.163 . S
O112 C122 1.244 . S
O113 Mn111 2.089 . S
O113 C120 1.256 . S
O114 Mn106 2.160 . S
O114 C123 1.239 1_556 S
O115 Mn108 2.089 . S
O115 C123 1.256 . S
O116 Mn111 2.251 . S
O116 C121 1.241 . S
O117 Mn111 2.087 . S
O117 C122 1.256 . S
C118 O124 1.278 . S
C118 O125 1.241 . S
C119 O105 1.244 1_554 S
C119 O107 1.256 . S
C120 O109 1.239 . S
C120 O113 1.256 . S
C121 O110 1.278 . S
C121 O116 1.241 . S
C122 O112 1.244 . S
C122 O117 1.256 . S
C123 O114 1.239 1_554 S
C123 O115 1.256 . S
O124 Mn106 2.221 . S
O124 Mn108 2.290 1_556 S
O124 C118 1.278 . S
O125 Mn108 2.251 1_556 S
O125 C118 1.241 . S
O126 Mn127 2.163 . S
O126 C140 1.244 . S
Mn127 O126 2.163 . S
Mn127 O130 2.160 . S
Mn127 O131 2.221 . S
Mn127 O133 2.163 . S
Mn127 O135 2.160 . S
Mn127 O145 2.221 . S
O128 Mn129 2.087 . S
O128 C140 1.256 . S
Mn129 O128 2.087 . S
Mn129 O136 2.089 . S
Mn129 O145 2.290 . S
Mn129 O146 2.251 . S
O130 Mn127 2.160 . S
O130 C141 1.239 . S
O131 Mn127 2.221 . S
O131 Mn132 2.290 . S
O131 C142 1.278 . S
Mn132 O131 2.290 . S
Mn132 O134 2.089 . S
Mn132 O137 2.251 . S
Mn132 O138 2.087 . S
O133 Mn127 2.163 . S
O133 C143 1.244 . S
O134 Mn132 2.089 . S
O134 C141 1.256 . S
O135 Mn127 2.160 . S
O135 C144 1.239 . S
O136 Mn129 2.089 . S
O136 C144 1.256 . S
O137 Mn132 2.251 . S
O137 C142 1.241 . S
O138 Mn132 2.087 . S
O138 C143 1.256 . S
C139 O145 1.278 . S
C139 O146 1.241 . S
C140 O126 1.244 . S
C140 O128 1.256 . S
C141 O130 1.239 . S
C141 O134 1.256 . S
C142 O131 1.278 . S
C142 O137 1.241 . S
C143 O133 1.244 . S
C143 O138 1.256 . S
C144 O135 1.239 . S
C144 O136 1.256 . S
O145 Mn127 2.221 . S
O145 Mn129 2.290 . S
O145 C139 1.278 . S
O146 Mn129 2.251 . S
O146 C139 1.241 . S
O147 Mn148 2.163 . S
O147 C161 1.244 . S
Mn148 O147 2.163 . S
Mn148 O151 2.160 . S
Mn148 O152 2.221 . S
Mn148 O154 2.163 . S
Mn148 O156 2.160 . S
Mn148 O166 2.221 . S
O149 Mn150 2.087 . S
O149 C161 1.256 . S
Mn150 O149 2.087 . S
Mn150 O157 2.089 . S
Mn150 O166 2.290 . S
Mn150 O167 2.251 . S
O151 Mn148 2.160 . S
O151 C162 1.239 . S
O152 Mn148 2.221 . S
O152 Mn153 2.290 . S
O152 C163 1.278 . S
Mn153 O152 2.290 . S
Mn153 O155 2.089 . S
Mn153 O158 2.251 . S
Mn153 O159 2.087 . S
O154 Mn148 2.163 . S
O154 C164 1.244 . S
O155 Mn153 2.089 . S
O155 C162 1.256 . S
O156 Mn148 2.160 . S
O156 C165 1.239 . S
O157 Mn150 2.089 . S
O157 C165 1.256 . S
O158 Mn153 2.251 . S
O158 C163 1.241 . S
O159 Mn153 2.087 . S
O159 C164 1.256 . S
C160 O166 1.278 . S
C160 O167 1.241 . S
C161 O147 1.244 . S
C161 O149 1.256 . S
C162 O151 1.239 . S
C162 O155 1.256 . S
C163 O152 1.278 . S
C163 O158 1.241 . S
C164 O154 1.244 . S
C164 O159 1.256 . S
C165 O156 1.239 . S
C165 O157 1.256 . S
O166 Mn148 2.221 . S
O166 Mn150 2.290 . S
O166 C160 1.278 . S
O167 Mn150 2.251 . S
O167 C160 1.241 . S
O168 Mn169 2.163 . S
O168 C182 1.244 1_554 S
Mn169 O168 2.163 . S
Mn169 O172 2.160 . S
Mn169 O173 2.221 . S
Mn169 O175 2.163 . S
Mn169 O177 2.160 . S
Mn169 O187 2.221 . S
O170 Mn171 2.087 . S
O170 C182 1.256 . S
Mn171 O170 2.087 . S
Mn171 O178 2.089 . S
Mn171 O187 2.290 1_556 S
Mn171 O188 2.251 1_556 S
O172 Mn169 2.160 . S
O172 C183 1.239 . S
O173 Mn169 2.221 . S
O173 Mn174 2.290 . S
O173 C184 1.278 . S
Mn174 O173 2.290 . S
Mn174 O176 2.089 . S
Mn174 O179 2.251 . S
Mn174 O180 2.087 . S
O175 Mn169 2.163 . S
O175 C185 1.244 . S
O176 Mn174 2.089 . S
O176 C183 1.256 . S
O177 Mn169 2.160 . S
O177 C186 1.239 1_554 S
O178 Mn171 2.089 . S
O178 C186 1.256 . S
O179 Mn174 2.251 . S
O179 C184 1.241 . S
O180 Mn174 2.087 . S
O180 C185 1.256 . S
C181 O187 1.278 . S
C181 O188 1.241 . S
C182 O168 1.244 1_556 S
C182 O170 1.256 . S
C183 O172 1.239 . S
C183 O176 1.256 . S
C184 O173 1.278 . S
C184 O179 1.241 . S
C185 O175 1.244 . S
C185 O180 1.256 . S
C186 O177 1.239 1_556 S
C186 O178 1.256 . S
O187 Mn169 2.221 . S
O187 Mn171 2.290 1_554 S
O187 C181 1.278 . S
O188 Mn171 2.251 1_554 S
O188 C181 1.241 . S
O189 Mn190 2.163 . S
O189 C203 1.244 . S
Mn190 O189 2.163 . S
Mn190 O193 2.160 . S
Mn190 O194 2.221 . S
Mn190 O196 2.163 . S
Mn190 O198 2.160 . S
Mn190 O208 2.221 . S
O191 Mn192 2.087 . S
O191 C203 1.256 . S
Mn192 O191 2.087 . S
Mn192 O199 2.089 . S
Mn192 O208 2.290 . S
Mn192 O209 2.251 . S
O193 Mn190 2.160 . S
O193 C204 1.239 . S
O194 Mn190 2.221 . S
O194 Mn195 2.290 . S
O194 C205 1.278 . S
Mn195 O194 2.290 . S
Mn195 O197 2.089 . S
Mn195 O200 2.251 . S
Mn195 O201 2.087 . S
O196 Mn190 2.163 . S
O196 C206 1.244 . S
O197 Mn195 2.089 . S
O197 C204 1.256 . S
O198 Mn190 2.160 . S
O198 C207 1.239 . S
O199 Mn192 2.089 . S
O199 C207 1.256 . S
O200 Mn195 2.251 . S
O200 C205 1.241 . S
O201 Mn195 2.087 . S
O201 C206 1.256 . S
C202 O208 1.278 . S
C202 O209 1.241 . S
C203 O189 1.244 . S
C203 O191 1.256 . S
C204 O193 1.239 . S
C204 O197 1.256 . S
C205 O194 1.278 . S
C205 O200 1.241 . S
C206 O196 1.244 . S
C206 O201 1.256 . S
C207 O198 1.239 . S
C207 O199 1.256 . S
O208 Mn190 2.221 . S
O208 Mn192 2.290 . S
O208 C202 1.278 . S
O209 Mn192 2.251 . S
O209 C202 1.241 . S
O210 Mn211 2.163 . S
O210 C224 1.244 . S
Mn211 O210 2.163 . S
Mn211 O214 2.160 . S
Mn211 O215 2.221 . S
Mn211 O217 2.163 . S
Mn211 O219 2.160 . S
Mn211 O229 2.221 . S
O212 Mn213 2.087 . S
O212 C224 1.256 . S
Mn213 O212 2.087 . S
Mn213 O220 2.089 . S
Mn213 O229 2.290 . S
Mn213 O230 2.251 . S
O214 Mn211 2.160 . S
O214 C225 1.239 . S
O215 Mn211 2.221 . S
O215 Mn216 2.290 . S
O215 C226 1.278 . S
Mn216 O215 2.290 . S
Mn216 O218 2.089 . S
Mn216 O221 2.251 . S
Mn216 O222 2.087 . S
O217 Mn211 2.163 . S
O217 C227 1.244 . S
O218 Mn216 2.089 . S
O218 C225 1.256 . S
O219 Mn211 2.160 . S
O219 C228 1.239 . S
O220 Mn213 2.089 . S
O220 C228 1.256 . S
O221 Mn216 2.251 . S
O221 C226 1.241 . S
O222 Mn216 2.087 . S
O222 C227 1.256 . S
C223 O229 1.278 . S
C223 O230 1.241 . S
C224 O210 1.244 . S
C224 O212 1.256 . S
C225 O214 1.239 . S
C225 O218 1.256 . S
C226 O215 1.278 . S
C226 O221 1.241 . S
C227 O217 1.244 . S
C227 O222 1.256 . S
C228 O219 1.239 . S
C228 O220 1.256 . S
O229 Mn211 2.221 . S
O229 Mn213 2.290 . S
O229 C223 1.278 . S
O230 Mn213 2.251 . S
O230 C223 1.241 . S
O231 Mn232 2.163 . S
O231 C245 1.244 1_554 S
Mn232 O231 2.163 . S
Mn232 O235 2.160 . S
Mn232 O236 2.221 . S
Mn232 O238 2.163 . S
Mn232 O240 2.160 . S
Mn232 O250 2.221 . S
O233 Mn234 2.087 . S
O233 C245 1.256 . S
Mn234 O233 2.087 . S
Mn234 O241 2.089 . S
Mn234 O250 2.290 1_556 S
Mn234 O251 2.251 1_556 S
O235 Mn232 2.160 . S
O235 C246 1.239 . S
O236 Mn232 2.221 . S
O236 Mn237 2.290 . S
O236 C247 1.278 . S
Mn237 O236 2.290 . S
Mn237 O239 2.089 . S
Mn237 O242 2.251 . S
Mn237 O243 2.087 . S
O238 Mn232 2.163 . S
O238 C248 1.244 . S
O239 Mn237 2.089 . S
O239 C246 1.256 . S
O240 Mn232 2.160 . S
O240 C249 1.239 1_554 S
O241 Mn234 2.089 . S
O241 C249 1.256 . S
O242 Mn237 2.251 . S
O242 C247 1.241 . S
O243 Mn237 2.087 . S
O243 C248 1.256 . S
C244 O250 1.278 . S
C244 O251 1.241 . S
C245 O231 1.244 1_556 S
C245 O233 1.256 . S
C246 O235 1.239 . S
C246 O239 1.256 . S
C247 O236 1.278 . S
C247 O242 1.241 . S
C248 O238 1.244 . S
C248 O243 1.256 . S
C249 O240 1.239 1_556 S
C249 O241 1.256 . S
O250 Mn232 2.221 . S
O250 Mn234 2.290 1_554 S
O250 C244 1.278 . S
O251 Mn234 2.251 1_554 S
O251 C244 1.241 . S
C252 C253 1.170 . S
C252 C254 1.380 . S
C253 C252 1.170 . S
C254 C252 1.380 . S
C254 C255 1.170 . S
C255 C254 1.170 . S
C256 C257 1.170 . S
C256 C258 1.380 . S
C257 C256 1.170 . S
C258 C256 1.380 . S
C258 C259 1.170 . S
C259 C258 1.170 . S
C260 C261 1.170 . S
C260 C262 1.380 . S
C261 C260 1.170 . S
C262 C260 1.380 . S
C262 C263 1.170 . S
C263 C262 1.170 . S
C264 C265 1.170 . S
C264 C266 1.380 . S
C265 C264 1.170 . S
C266 C264 1.380 . S
C266 C267 1.170 . S
C267 C266 1.170 . S
C268 C269 1.170 . S
C268 C270 1.380 . S
C269 C268 1.170 . S
C270 C268 1.380 . S
C270 C271 1.170 . S
C271 C270 1.170 . S
C272 C273 1.170 . S
C272 C274 1.380 . S
C273 C272 1.170 . S
C274 C272 1.380 . S
C274 C275 1.170 . S
C275 C274 1.170 . S
C276 C277 1.170 . S
C276 C278 1.380 1_556 S
C277 C276 1.170 . S
C278 C276 1.380 1_554 S
C278 C279 1.170 . S
C279 C278 1.170 . S
C280 C281 1.170 . S
C280 C282 1.380 . S
C281 C280 1.170 . S
C282 C280 1.380 . S
C282 C283 1.170 . S
C283 C282 1.170 . S
C284 C285 1.170 . S
C284 C286 1.380 . S
C285 C284 1.170 . S
C286 C284 1.380 . S
C286 C287 1.170 . S
C287 C286 1.170 . S
C288 C289 1.170 . S
C288 C290 1.380 1_556 S
C289 C288 1.170 . S
C290 C288 1.380 1_554 S
C290 C291 1.170 . S
C291 C290 1.170 . S
C292 C293 1.170 . S
C292 C294 1.380 . S
C293 C292 1.170 . S
C294 C292 1.380 . S
C294 C295 1.170 . S
C295 C294 1.170 . S
C296 C297 1.170 . S
C296 C298 1.380 . S
C297 C296 1.170 . S
C298 C296 1.380 . S
C298 C299 1.170 . S
C299 C298 1.170 . S
C300 C301 1.170 . S
C300 C302 1.380 1_566 S
C301 C300 1.170 . S
C302 C300 1.380 1_544 S
C302 C303 1.170 . S
C303 C302 1.170 . S
C304 C305 1.170 . S
C304 C306 1.380 . S
C305 C304 1.170 . S
C306 C304 1.380 . S
C306 C307 1.170 . S
C307 C306 1.170 . S
C308 C309 1.170 . S
C308 C310 1.380 1_455 S
C309 C308 1.170 . S
C310 C308 1.380 1_655 S
C310 C311 1.170 . S
C311 C310 1.170 . S
C312 C313 1.170 . S
C312 C314 1.380 1_564 S
C313 C312 1.170 . S
C314 C312 1.380 1_546 S
C314 C315 1.170 . S
C315 C314 1.170 . S
C316 C317 1.170 . S
C316 C318 1.380 . S
C317 C316 1.170 . S
C318 C316 1.380 . S
C318 C319 1.170 . S
C319 C318 1.170 . S
C320 C321 1.170 . S
C320 C322 1.380 1_455 S
C321 C320 1.170 . S
C322 C320 1.380 1_655 S
C322 C323 1.170 . S
C323 C322 1.170 . S
C324 C325 1.170 . S
C324 C326 1.380 1_545 S
C325 C324 1.170 . S
C326 C324 1.380 1_565 S
C326 C327 1.170 . S
C327 C326 1.170 . S
C328 C329 1.170 . S
C328 C330 1.380 . S
C329 C328 1.170 . S
C330 C328 1.380 . S
C330 C331 1.170 . S
C331 C330 1.170 . S
C332 C333 1.170 . S
C332 C334 1.380 1_655 S
C333 C332 1.170 . S
C334 C332 1.380 1_455 S
C334 C335 1.170 . S
C335 C334 1.170 . S
C336 C337 1.170 . S
C336 C338 1.380 1_455 S
C337 C336 1.170 . S
C338 C336 1.380 1_655 S
C338 C339 1.170 . S
C339 C338 1.170 . S
C340 C341 1.170 . S
C340 C342 1.380 1_565 S
C341 C340 1.170 . S
C342 C340 1.380 1_545 S
C342 C343 1.170 . S
C343 C342 1.170 . S
C344 C345 1.170 . S
C344 C346 1.380 . S
C345 C344 1.170 . S
C346 C344 1.380 . S
C346 C347 1.170 . S
C347 C346 1.170 . S
C348 C349 1.170 . S
C348 C350 1.380 1_565 S
C349 C348 1.170 . S
C350 C348 1.380 1_545 S
C350 C351 1.170 . S
C351 C350 1.170 . S
C352 C353 1.170 . S
C352 C354 1.380 . S
C353 C352 1.170 . S
C354 C352 1.380 . S
C354 C355 1.170 . S
C355 C354 1.170 . S
C356 C357 1.170 . S
C356 C358 1.380 1_655 S
C357 C356 1.170 . S
C358 C356 1.380 1_455 S
C358 C359 1.170 . S
C359 C358 1.170 . S
C360 C361 1.170 . S
C360 C362 1.380 1_545 S
C361 C360 1.170 . S
C362 C360 1.380 1_565 S
C362 C363 1.170 . S
C363 C362 1.170 . S
C364 C365 1.170 . S
C364 C366 1.380 . S
C365 C364 1.170 . S
C366 C364 1.380 . S
C366 C367 1.170 . S
C367 C366 1.170 . S
C368 C369 1.170 . S
C368 C370 1.380 1_455 S
C369 C368 1.170 . S
C370 C368 1.380 1_655 S
C370 C371 1.170 . S
C371 C370 1.170 . S
C372 C373 1.170 . S
C372 C374 1.380 . S
C373 C372 1.170 . S
C374 C372 1.380 . S
C374 C375 1.170 . S
C375 C374 1.170 . S
C376 C377 1.170 . S
C376 C378 1.380 . S
C377 C376 1.170 . S
C378 C376 1.380 . S
C378 C379 1.170 . S
C379 C378 1.170 . S
C380 C381 1.170 . S
C380 C382 1.380 . S
C381 C380 1.170 . S
C382 C380 1.380 . S
C382 C383 1.170 . S
C383 C382 1.170 . S
C384 C385 1.170 . S
C384 C386 1.380 . S
C385 C384 1.170 . S
C386 C384 1.380 . S
C386 C387 1.170 . S
C387 C386 1.170 . S
C388 C389 1.170 . S
C388 C390 1.380 . S
C389 C388 1.170 . S
C390 C388 1.380 . S
C390 C391 1.170 . S
C391 C390 1.170 . S
C392 C393 1.170 . S
C392 C394 1.380 . S
C393 C392 1.170 . S
C394 C392 1.380 . S
C394 C395 1.170 . S
C395 C394 1.170 . S
C253 C13 1.084 . S
C255 C181 1.076 . S
C257 C34 1.083 . S
C259 C202 1.049 . S
C261 C55 1.094 . S
C263 C223 1.041 . S
C265 C244 1.103 . S
C267 C76 1.052 . S
C269 C97 1.080 . S
C271 C139 1.081 . S
C273 C160 1.096 . S
C275 C118 1.062 . S
C277 C227 1.546 . S
C279 C17 1.580 . S
C281 C248 1.548 . S
C283 C38 1.582 . S
C285 C59 1.537 . S
C287 C143 1.561 . S
C289 C164 1.546 . S
C291 C80 1.580 . S
C293 C185 1.548 . S
C295 C101 1.582 . S
C297 C122 1.584 . S
C299 C206 1.550 . S
C301 C162 1.412 . S
C303 C15 1.416 . S
C305 C183 1.420 . S
C307 C36 1.420 . S
C309 C204 1.381 . S
C311 C57 1.374 . S
C313 C78 1.351 . S
C315 C225 1.351 . S
C317 C99 1.408 . S
C319 C246 1.412 . S
C321 C120 1.354 . S
C323 C141 1.358 . S
C325 C16 0.720 . S
C327 C79 0.722 . S
C329 C37 0.802 . S
C331 C100 0.833 . S
C333 C58 0.851 . S
C335 C121 0.836 . S
C337 C205 0.852 . S
C339 C142 0.841 . S
C341 C163 0.718 . S
C343 C226 0.729 . S
C345 C247 0.745 . S
C347 C184 0.780 . S
C349 C165 1.392 . S
C351 C18 1.407 . S
C353 C186 1.407 . S
C355 C39 1.391 . S
C357 C60 1.395 . S
C359 C207 1.410 . S
C361 C228 1.414 . S
C363 C81 1.417 . S
C365 C249 1.413 . S
C367 C102 1.399 . S
C369 C123 1.384 . S
C371 C144 1.389 . S
C373 C14 1.534 . S
C375 C224 1.520 . S
C377 C35 1.536 . S
C379 C245 1.520 . S
C381 C56 1.523 . S
C383 C140 1.530 . S
C385 C77 1.525 . S
C387 C161 1.527 . S
C389 C98 1.519 . S
C391 C182 1.536 . S
C393 C203 1.523 . S
C395 C119 1.529 . S
