# Generated by pormake.
# Topology wjh, (4)-cn, num edge types: 1
# Building blocks:
#     Node 0, Type 0, BuildingBlock: KUFVIS_clean_sbu_0, # of connection points: 4
#     Node 1, Type 0, BuildingBlock: KUFVIS_clean_sbu_0, # of connection points: 4
#     Node 2, Type 0, BuildingBlock: KUFVIS_clean_sbu_0, # of connection points: 4
#     Node 3, Type 0, BuildingBlock: KUFVIS_clean_sbu_0, # of connection points: 4
#     Node 4, Type 0, BuildingBlock: KUFVIS_clean_sbu_0, # of connection points: 4
#     Node 5, Type 0, BuildingBlock: KUFVIS_clean_sbu_0, # of connection points: 4
#     Node 6, Type 0, BuildingBlock: KUFVIS_clean_sbu_0, # of connection points: 4
#     Node 7, Type 0, BuildingBlock: KUFVIS_clean_sbu_0, # of connection points: 4
#     Node 8, Type 0, BuildingBlock: KUFVIS_clean_sbu_0, # of connection points: 4
#     Node 9, Type 0, BuildingBlock: KUFVIS_clean_sbu_0, # of connection points: 4
#     Node 10, Type 0, BuildingBlock: KUFVIS_clean_sbu_0, # of connection points: 4
#     Node 11, Type 0, BuildingBlock: KUFVIS_clean_sbu_0, # of connection points: 4
#     Edge 12, Type (0, 0), BuildingBlock: ZUJKAS_clean_linker_0, # of connection points: 2
#     Edge 13, Type (0, 0), BuildingBlock: ZUJKAS_clean_linker_0, # of connection points: 2
#     Edge 14, Type (0, 0), BuildingBlock: ZUJKAS_clean_linker_0, # of connection points: 2
#     Edge 15, Type (0, 0), BuildingBlock: ZUJKAS_clean_linker_0, # of connection points: 2
#     Edge 16, Type (0, 0), BuildingBlock: ZUJKAS_clean_linker_0, # of connection points: 2
#     Edge 17, Type (0, 0), BuildingBlock: ZUJKAS_clean_linker_0, # of connection points: 2
#     Edge 18, Type (0, 0), BuildingBlock: ZUJKAS_clean_linker_0, # of connection points: 2
#     Edge 19, Type (0, 0), BuildingBlock: ZUJKAS_clean_linker_0, # of connection points: 2
#     Edge 20, Type (0, 0), BuildingBlock: ZUJKAS_clean_linker_0, # of connection points: 2
#     Edge 21, Type (0, 0), BuildingBlock: ZUJKAS_clean_linker_0, # of connection points: 2
#     Edge 22, Type (0, 0), BuildingBlock: ZUJKAS_clean_linker_0, # of connection points: 2
#     Edge 23, Type (0, 0), BuildingBlock: ZUJKAS_clean_linker_0, # of connection points: 2
#     Edge 24, Type (0, 0), BuildingBlock: ZUJKAS_clean_linker_0, # of connection points: 2
#     Edge 25, Type (0, 0), BuildingBlock: ZUJKAS_clean_linker_0, # of connection points: 2
#     Edge 26, Type (0, 0), BuildingBlock: ZUJKAS_clean_linker_0, # of connection points: 2
#     Edge 27, Type (0, 0), BuildingBlock: ZUJKAS_clean_linker_0, # of connection points: 2
#     Edge 28, Type (0, 0), BuildingBlock: ZUJKAS_clean_linker_0, # of connection points: 2
#     Edge 29, Type (0, 0), BuildingBlock: ZUJKAS_clean_linker_0, # of connection points: 2
#     Edge 30, Type (0, 0), BuildingBlock: ZUJKAS_clean_linker_0, # of connection points: 2
#     Edge 31, Type (0, 0), BuildingBlock: ZUJKAS_clean_linker_0, # of connection points: 2
#     Edge 32, Type (0, 0), BuildingBlock: ZUJKAS_clean_linker_0, # of connection points: 2
#     Edge 33, Type (0, 0), BuildingBlock: ZUJKAS_clean_linker_0, # of connection points: 2
#     Edge 34, Type (0, 0), BuildingBlock: ZUJKAS_clean_linker_0, # of connection points: 2
#     Edge 35, Type (0, 0), BuildingBlock: ZUJKAS_clean_linker_0, # of connection points: 2
# Relax obj value: 0.091
# Max RMSD: 0.110
# Mean RMSD: 0.110
data_MOF--net-wjh--node1-KUFVIS_clean_sbu_0--edge1-ZUJKAS_clean_linker_0
_symmetry_space_group_name_H-M    P1
_symmetry_Int_Tables_number       1
_symmetry_cell_setting            triclinic
loop_
_symmetry_equiv_pos_as_xyz
'x, y, z'
_cell_length_a     80.158765
_cell_length_b     80.141822
_cell_length_c     33.391844
_cell_angle_alpha  89.99964
_cell_angle_beta   89.983231
_cell_angle_gamma 119.99152
loop_
_atom_site_label
_atom_site_type_symbol
_atom_site_fract_x
_atom_site_fract_y
_atom_site_fract_z
_atom_type_partial_charge
Mn0 Mn 0.51306 0.14195 0.05057 0.0
Mn1 Mn 0.53739 0.11753 0.04964 0.0
C2 C 0.522 0.13383 0.11008 0.0
C3 C 0.51277 0.17099 0.05207 0.0
C4 C 0.49441 0.09858 0.03477 0.0
O5 O 0.52321 0.14597 0.99294 0.0
O6 O 0.53972 0.13006 -0.00253 0.0
C7 C 0.57701 0.15066 0.04209 0.0
N8 N 0.56394 0.13448 0.0618 0.0
C9 C 0.588 0.13701 0.10835 0.0
C10 C 0.60176 0.15367 0.08846 0.0
C11 C 0.59622 0.16055 0.05527 0.0
C12 C 0.56909 0.12778 0.09386 0.0
H13 H 0.57281 0.15596 0.01651 0.0
C14 C 0.5341 0.14012 0.97807 0.0
O15 O 0.49785 0.15511 0.04007 0.0
O16 O 0.52806 0.17014 0.06091 0.0
N17 N 0.53658 0.1047 0.09849 0.0
C18 C 0.52134 0.0891 0.11565 0.0
C19 C 0.5244 0.08044 0.14925 0.0
C20 C 0.54309 0.08784 0.16465 0.0
C21 C 0.5585 0.10406 0.14685 0.0
C22 C 0.55462 0.11188 0.11306 0.0
H23 H 0.50699 0.0832 0.10355 0.0
O24 O 0.50792 0.1374 0.10924 0.0
O25 O 0.53045 0.13505 0.0761 0.0
O26 O 0.49285 0.11358 0.03908 0.0
O27 O 0.51037 0.09876 0.03751 0.0
C28 C 0.57752 0.11286 0.16148 0.0
C29 C 0.59224 0.12939 0.14237 0.0
H30 H 0.61658 0.16136 0.09858 0.0
H31 H 0.60673 0.17343 0.03985 0.0
H32 H 0.51242 0.06801 0.16306 0.0
H33 H 0.54543 0.08103 0.19038 0.0
H34 H 0.58092 0.10718 0.18772 0.0
H35 H 0.60675 0.1362 0.15425 0.0
Mn36 Mn 0.37126 0.51143 0.21849 0.0
Mn37 Mn 0.41947 0.53549 0.20545 0.0
C38 C 0.39146 0.52248 0.27361 0.0
C39 C 0.34225 0.51152 0.22429 0.0
C40 C 0.39415 0.49228 0.19414 0.0
O41 O 0.37472 0.51939 0.15929 0.0
O42 O 0.40707 0.5392 0.15782 0.0
C43 C 0.42808 0.57598 0.20422 0.0
N44 N 0.43093 0.56199 0.22031 0.0
C45 C 0.45497 0.58461 0.26557 0.0
C46 C 0.45233 0.59927 0.24942 0.0
C47 C 0.43879 0.59492 0.21869 0.0
C48 C 0.44392 0.56601 0.24989 0.0
H49 H 0.41771 0.57268 0.18058 0.0
C50 C 0.3903 0.53185 0.14211 0.0
O51 O 0.34262 0.49611 0.21371 0.0
O52 O 0.35875 0.52702 0.2297 0.0
N53 N 0.43304 0.53311 0.25021 0.0
C54 C 0.4329 0.51709 0.26435 0.0
C55 C 0.44542 0.51888 0.29555 0.0
C56 C 0.45797 0.5371 0.31179 0.0
C57 C 0.45765 0.55334 0.2972 0.0
C58 C 0.44505 0.55071 0.26568 0.0
H59 H 0.42345 0.50307 0.25175 0.0
O60 O 0.37376 0.5087 0.2775 0.0
O61 O 0.39671 0.52935 0.23773 0.0
O62 O 0.37851 0.4907 0.20732 0.0
O63 O 0.40964 0.50839 0.18971 0.0
C64 C 0.46921 0.57201 0.31291 0.0
C65 C 0.46782 0.58762 0.29721 0.0
H66 H 0.46048 0.61388 0.26062 0.0
H67 H 0.43661 0.60615 0.20618 0.0
H68 H 0.44548 0.50626 0.30687 0.0
H69 H 0.4677 0.53842 0.33566 0.0
H70 H 0.47902 0.57447 0.33744 0.0
H71 H 0.47655 0.60184 0.30997 0.0
Mn72 Mn 0.85928 0.37042 0.3836 0.0
Mn73 Mn 0.88526 0.419 0.39047 0.0
C74 C 0.86671 0.38531 0.4455 0.0
C75 C 0.82972 0.34174 0.38104 0.0
C76 C 0.90276 0.39415 0.37036 0.0
O77 O 0.85695 0.37917 0.32706 0.0
O78 O 0.87305 0.41134 0.3372 0.0
C79 C 0.85356 0.4278 0.38685 0.0
N80 N 0.86911 0.42909 0.40618 0.0
C81 C 0.86665 0.44832 0.45868 0.0
C82 C 0.85065 0.44728 0.43925 0.0
C83 C 0.84405 0.43694 0.40324 0.0
C84 C 0.87556 0.43896 0.44089 0.0
H85 H 0.84845 0.41987 0.35916 0.0
C86 C 0.86319 0.3965 0.31516 0.0
O87 O 0.84549 0.34252 0.36885 0.0
O88 O 0.83097 0.35785 0.39189 0.0
N89 N 0.89775 0.42831 0.44101 0.0
C90 C 0.91263 0.42693 0.45716 0.0
C91 C 0.92067 0.43613 0.49368 0.0
C92 C 0.91344 0.44676 0.51304 0.0
C93 C 0.89812 0.44797 0.49586 0.0
C94 C 0.89081 0.43865 0.45923 0.0
H95 H 0.91832 0.41887 0.4423 0.0
O96 O 0.86245 0.3675 0.44218 0.0
O97 O 0.8666 0.39388 0.41264 0.0
O98 O 0.88747 0.37778 0.37357 0.0
O99 O 0.90331 0.4102 0.37499 0.0
C100 C 0.88964 0.45782 0.51391 0.0
C101 C 0.87388 0.45795 0.49539 0.0
H102 H 0.84323 0.45423 0.45186 0.0
H103 H 0.83166 0.436 0.38815 0.0
H104 H 0.93245 0.43508 0.50683 0.0
H105 H 0.91971 0.45386 0.54116 0.0
H106 H 0.89493 0.4651 0.54234 0.0
H107 H 0.86728 0.46531 0.50988 0.0
Mn108 Mn 0.48886 0.85856 0.5515 0.0
Mn109 Mn 0.46223 0.87966 0.53208 0.0
C110 C 0.47752 0.86924 0.60349 0.0
C111 C 0.49103 0.83094 0.56362 0.0
C112 C 0.50576 0.9007 0.52541 0.0
O113 O 0.48095 0.85108 0.49308 0.0
O114 O 0.46288 0.86517 0.4848 0.0
C115 C 0.42437 0.84404 0.52424 0.0
N116 N 0.43572 0.86148 0.54182 0.0
C117 C 0.40904 0.85878 0.57998 0.0
C118 C 0.39703 0.84083 0.56216 0.0
C119 C 0.40476 0.83338 0.53435 0.0
C120 C 0.42853 0.86861 0.56919 0.0
H121 H 0.43022 0.83834 0.50259 0.0
C122 C 0.4701 0.8551 0.47218 0.0
O123 O 0.50576 0.84678 0.55091 0.0
O124 O 0.47497 0.83098 0.56779 0.0
N125 N 0.45994 0.89418 0.575 0.0
C126 C 0.47353 0.91156 0.5899 0.0
C127 C 0.4682 0.9209 0.61844 0.0
C128 C 0.44888 0.91252 0.63058 0.0
C129 C 0.43509 0.89478 0.61432 0.0
C130 C 0.4413 0.88604 0.5864 0.0
H131 H 0.48833 0.91825 0.58006 0.0
O132 O 0.49191 0.86636 0.60887 0.0
O133 O 0.4697 0.86522 0.56811 0.0
O134 O 0.5081 0.88664 0.53577 0.0
O135 O 0.48928 0.89943 0.5223 0.0
C136 C 0.41539 0.88549 0.6245 0.0
C137 C 0.40243 0.86738 0.60779 0.0
H138 H 0.38186 0.83265 0.56963 0.0
H139 H 0.3956 0.81952 0.52052 0.0
H140 H 0.47891 0.93462 0.63072 0.0
H141 H 0.44479 0.91986 0.65233 0.0
H142 H 0.41006 0.89207 0.64539 0.0
H143 H 0.38739 0.86025 0.61638 0.0
Mn144 Mn 0.63402 0.4908 0.71945 0.0
Mn145 Mn 0.58558 0.46356 0.71434 0.0
C146 C 0.61579 0.48096 0.77746 0.0
C147 C 0.66409 0.49276 0.72282 0.0
C148 C 0.60761 0.50666 0.69782 0.0
O149 O 0.62928 0.48089 0.66162 0.0
O150 O 0.59717 0.46024 0.66472 0.0
C151 C 0.58135 0.42467 0.7152 0.0
N152 N 0.57725 0.4378 0.73141 0.0
C153 C 0.55656 0.41501 0.78091 0.0
C154 C 0.56046 0.40121 0.76459 0.0
C155 C 0.57299 0.4061 0.7317 0.0
C156 C 0.56541 0.43333 0.76335 0.0
H157 H 0.59093 0.42837 0.6899 0.0
C158 C 0.61343 0.46774 0.6467 0.0
O159 O 0.66243 0.50727 0.7107 0.0
O160 O 0.64828 0.477 0.73117 0.0
N161 N 0.57258 0.46526 0.76095 0.0
C162 C 0.571 0.48048 0.77432 0.0
C163 C 0.55941 0.47814 0.80778 0.0
C164 C 0.54936 0.46013 0.82679 0.0
C165 C 0.55102 0.44463 0.81219 0.0
C166 C 0.56284 0.44783 0.77884 0.0
H167 H 0.57853 0.49432 0.75966 0.0
O168 O 0.6332 0.49551 0.77816 0.0
O169 O 0.60975 0.47248 0.74315 0.0
O170 O 0.62438 0.50963 0.70667 0.0
O171 O 0.59261 0.48991 0.69743 0.0
C172 C 0.54148 0.42614 0.82953 0.0
C173 C 0.54434 0.41137 0.81409 0.0
H174 H 0.55402 0.38685 0.77719 0.0
H175 H 0.57615 0.39555 0.71904 0.0
H176 H 0.55818 0.49018 0.81882 0.0
H177 H 0.54046 0.45839 0.85263 0.0
H178 H 0.53214 0.4232 0.8552 0.0
H179 H 0.53721 0.39732 0.82819 0.0
Mn180 Mn 0.14648 0.63417 0.89106 0.0
Mn181 Mn 0.12355 0.58581 0.90164 0.0
C182 C 0.13955 0.62049 0.95422 0.0
C183 C 0.17529 0.66355 0.88636 0.0
C184 C 0.10345 0.60782 0.87654 0.0
O185 O 0.14963 0.62488 0.8358 0.0
O186 O 0.13689 0.59322 0.84934 0.0
C187 C 0.15715 0.57989 0.90491 0.0
N188 N 0.14065 0.57764 0.92163 0.0
C189 C 0.14333 0.56002 0.97725 0.0
C190 C 0.16026 0.562 0.96044 0.0
C191 C 0.16723 0.57204 0.92419 0.0
C192 C 0.13388 0.56812 0.95662 0.0
H193 H 0.16258 0.58765 0.87713 0.0
C194 C 0.14578 0.60784 0.82624 0.0
O195 O 0.15914 0.66178 0.87379 0.0
O196 O 0.17479 0.64809 0.89942 0.0
N197 N 0.11025 0.57678 0.95154 0.0
C198 C 0.09449 0.57732 0.96511 0.0
C199 C 0.08604 0.56842 0.00164 0.0
C200 C 0.09378 0.55896 0.02367 0.0
C201 C 0.11001 0.55861 0.00914 0.0
C202 C 0.11772 0.56759 0.97238 0.0
H203 H 0.08838 0.58445 0.9482 0.0
O204 O 0.14285 0.63792 0.94909 0.0
O205 O 0.14046 0.61169 0.92243 0.0
O206 O 0.11788 0.62482 0.88009 0.0
O207 O 0.10449 0.59259 0.88194 0.0
C208 C 0.119 0.54994 0.02994 0.0
C209 C 0.13569 0.55071 0.01408 0.0
H210 H 0.16813 0.55604 0.97531 0.0
H211 H 0.18036 0.57374 0.91117 0.0
H212 H 0.07355 0.56881 0.01273 0.0
H213 H 0.08718 0.55209 0.05179 0.0
H214 H 0.1134 0.54293 0.05849 0.0
H215 H 0.14268 0.5443 0.03071 0.0
Mn216 Mn 0.86321 0.49325 0.86514 0.0
Mn217 Mn 0.88562 0.46738 0.87679 0.0
C218 C 0.87211 0.48227 0.80944 0.0
C219 C 0.83477 0.49446 0.85885 0.0
C220 C 0.90525 0.51071 0.88949 0.0
O221 O 0.85789 0.48457 0.92381 0.0
O222 O 0.86971 0.46416 0.92466 0.0
C223 C 0.85236 0.42761 0.87708 0.0
N224 N 0.86954 0.44109 0.86132 0.0
C225 C 0.86966 0.41804 0.81529 0.0
C226 C 0.85199 0.40388 0.83114 0.0
C227 C 0.84328 0.40871 0.86209 0.0
C228 C 0.87803 0.43662 0.83148 0.0
H229 H 0.84563 0.43127 0.90084 0.0
C230 C 0.86053 0.47172 0.94061 0.0
O231 O 0.85073 0.5094 0.87041 0.0
O232 O 0.83519 0.4787 0.85279 0.0
N233 N 0.90129 0.46915 0.83192 0.0
C234 C 0.91768 0.48476 0.81819 0.0
C235 C 0.92808 0.48245 0.78698 0.0
C236 C 0.92156 0.46415 0.77028 0.0
C237 C 0.90448 0.44835 0.78441 0.0
C238 C 0.89489 0.45147 0.81601 0.0
H239 H 0.92291 0.49884 0.83115 0.0
O240 O 0.86898 0.49662 0.80636 0.0
O241 O 0.86989 0.47481 0.84489 0.0
O242 O 0.8914 0.51302 0.87774 0.0
O243 O 0.90389 0.4942 0.89274 0.0
C244 C 0.89653 0.42968 0.76818 0.0
C245 C 0.87909 0.41455 0.7835 0.0
H246 H 0.8449 0.38931 0.81954 0.0
H247 H 0.8296 0.39789 0.87435 0.0
H248 H 0.94117 0.49473 0.776 0.0
H249 H 0.92973 0.46242 0.74643 0.0
H250 H 0.90358 0.42686 0.74355 0.0
H251 H 0.87296 0.40033 0.77035 0.0
Mn252 Mn 0.37495 0.86008 0.03441 0.0
Mn253 Mn 0.42287 0.88221 0.05188 0.0
C254 C 0.39652 0.8708 0.98164 0.0
C255 C 0.34527 0.83226 0.023 0.0
C256 C 0.3999 0.90269 0.05832 0.0
O257 O 0.37597 0.85275 0.09262 0.0
O258 O 0.40822 0.86865 0.10043 0.0
C259 C 0.42539 0.84687 0.06295 0.0
N260 N 0.43124 0.86393 0.04385 0.0
C261 C 0.45487 0.86052 0.00593 0.0
C262 C 0.44917 0.84295 0.0253 0.0
C263 C 0.43428 0.83604 0.05377 0.0
C264 C 0.44527 0.87051 0.01585 0.0
H265 H 0.41407 0.84157 0.0851 0.0
C266 C 0.39111 0.85799 0.11355 0.0
O267 O 0.34629 0.84802 0.03599 0.0
O268 O 0.36143 0.83248 0.01824 0.0
N269 N 0.4393 0.89592 0.00786 0.0
C270 C 0.44297 0.91304 0.99166 0.0
C271 C 0.45741 0.92187 0.96246 0.0
C272 C 0.46825 0.91328 0.95102 0.0
C273 C 0.46443 0.89583 0.96862 0.0
C274 C 0.44971 0.88759 0.99717 0.0
H275 H 0.43494 0.9199 0.00096 0.0
O276 O 0.37917 0.86778 0.97697 0.0
O277 O 0.40073 0.86702 0.01686 0.0
O278 O 0.38346 0.88809 0.0503 0.0
O279 O 0.41546 0.90199 0.05974 0.0
C280 C 0.47475 0.88635 0.9592 0.0
C281 C 0.4698 0.86859 0.9774 0.0
H282 H 0.45611 0.83465 0.01856 0.0
H283 H 0.42976 0.82248 0.06881 0.0
H284 H 0.46032 0.93537 0.94913 0.0
H285 H 0.4795 0.92024 0.92878 0.0
H286 H 0.48646 0.89254 0.93776 0.0
H287 H 0.47765 0.86131 0.96942 0.0
Mn288 Mn 0.51373 0.36923 0.20181 0.0
Mn289 Mn 0.53893 0.41775 0.21108 0.0
C290 C 0.52459 0.38857 0.14563 0.0
C291 C 0.51277 0.33965 0.19693 0.0
C292 C 0.49557 0.39413 0.22022 0.0
O293 O 0.52201 0.37302 0.26065 0.0
O294 O 0.5396 0.40554 0.26204 0.0
C295 C 0.57786 0.4227 0.22064 0.0
N296 N 0.56555 0.42683 0.20073 0.0
C297 C 0.59074 0.44859 0.1564 0.0
C298 C 0.60374 0.44465 0.17656 0.0
C299 C 0.59724 0.43158 0.20872 0.0
C300 C 0.57159 0.43921 0.16949 0.0
H301 H 0.57293 0.41271 0.24544 0.0
C302 C 0.53278 0.38899 0.2785 0.0
O303 O 0.49772 0.34062 0.20784 0.0
O304 O 0.52851 0.35585 0.19092 0.0
N305 N 0.5396 0.43158 0.16383 0.0
C306 C 0.5251 0.43332 0.14676 0.0
C307 C 0.52911 0.44555 0.11364 0.0
C308 C 0.54802 0.4561 0.09886 0.0
C309 C 0.56275 0.45432 0.11737 0.0
C310 C 0.55788 0.44186 0.15017 0.0
H311 H 0.51058 0.42539 0.15823 0.0
O312 O 0.51046 0.37098 0.14297 0.0
O313 O 0.53214 0.39426 0.1809 0.0
O314 O 0.49372 0.37765 0.2128 0.0
O315 O 0.51176 0.40976 0.22126 0.0
C316 C 0.58207 0.46438 0.10449 0.0
C317 C 0.59602 0.46138 0.12373 0.0
H318 H 0.6187 0.4515 0.16751 0.0
H319 H 0.60716 0.42842 0.22434 0.0
H320 H 0.51767 0.44689 0.09961 0.0
H321 H 0.55105 0.46549 0.07325 0.0
H322 H 0.58631 0.47431 0.07952 0.0
H323 H 0.61076 0.46895 0.11309 0.0
Mn324 Mn 0.14429 0.51263 0.37163 0.0
Mn325 Mn 0.12037 0.53691 0.38622 0.0
C326 C 0.13539 0.52439 0.31731 0.0
C327 C 0.17316 0.51233 0.36502 0.0
C328 C 0.10186 0.4935 0.39425 0.0
O329 O 0.14892 0.52003 0.43103 0.0
O330 O 0.13546 0.53898 0.4346 0.0
C331 C 0.15296 0.57691 0.39189 0.0
N332 N 0.13618 0.56367 0.3743 0.0
C333 C 0.13614 0.58777 0.33137 0.0
C334 C 0.15341 0.60169 0.3491 0.0
C335 C 0.16188 0.59621 0.37941 0.0
C336 C 0.12792 0.56877 0.34507 0.0
H337 H 0.15949 0.57274 0.41522 0.0
C338 C 0.14507 0.53168 0.44953 0.0
O339 O 0.15728 0.49695 0.37524 0.0
O340 O 0.17241 0.52801 0.36045 0.0
N341 N 0.10526 0.53611 0.34117 0.0
C342 C 0.08924 0.52074 0.32554 0.0
C343 C 0.07909 0.52369 0.29475 0.0
C344 C 0.08546 0.5424 0.28045 0.0
C345 C 0.10215 0.55796 0.29655 0.0
C346 C 0.11149 0.55417 0.32765 0.0
H347 H 0.08412 0.50635 0.33672 0.0
O348 O 0.13906 0.51047 0.31272 0.0
O349 O 0.13708 0.53102 0.35346 0.0
O350 O 0.11617 0.49199 0.38242 0.0
O351 O 0.10247 0.5096 0.39872 0.0
C352 C 0.10994 0.57705 0.28281 0.0
C353 C 0.12698 0.59193 0.30009 0.0
H354 H 0.16037 0.61658 0.33945 0.0
H355 H 0.17524 0.60686 0.39312 0.0
H356 H 0.06629 0.5116 0.28229 0.0
H357 H 0.07747 0.54463 0.25695 0.0
H358 H 0.10309 0.5804 0.25862 0.0
H359 H 0.133 0.6065 0.28884 0.0
Mn360 Mn 0.63414 0.14408 0.53406 0.0
Mn361 Mn 0.58543 0.11864 0.53517 0.0
C362 C 0.61689 0.13609 0.47494 0.0
C363 C 0.66301 0.17352 0.53248 0.0
C364 C 0.61038 0.1007 0.5496 0.0
O365 O 0.62775 0.14741 0.592 0.0
O366 O 0.59527 0.13127 0.58744 0.0
C367 C 0.57759 0.15091 0.54237 0.0
N368 N 0.57528 0.13508 0.52239 0.0
C369 C 0.55464 0.13774 0.4736 0.0
C370 C 0.55672 0.15403 0.49376 0.0
C371 C 0.56829 0.16066 0.52823 0.0
C372 C 0.56422 0.12859 0.48915 0.0
H373 H 0.58648 0.15606 0.56886 0.0
C374 C 0.61096 0.14138 0.60685 0.0
O375 O 0.66255 0.15781 0.54402 0.0
O376 O 0.64661 0.17229 0.52453 0.0
N377 N 0.57407 0.1058 0.48588 0.0
C378 C 0.57441 0.09054 0.46876 0.0
C379 C 0.56386 0.08237 0.43357 0.0
C380 C 0.55299 0.08989 0.41651 0.0
C381 C 0.55284 0.10559 0.43469 0.0
C382 C 0.56349 0.11301 0.46994 0.0
H383 H 0.58266 0.08463 0.48184 0.0
O384 O 0.63469 0.14009 0.47502 0.0
O385 O 0.60972 0.13676 0.5093 0.0
O386 O 0.62672 0.11584 0.54439 0.0
O387 O 0.59433 0.10039 0.54778 0.0
C388 C 0.54276 0.11433 0.41893 0.0
C389 C 0.54371 0.13043 0.4383 0.0
H390 H 0.54964 0.16164 0.48286 0.0
H391 H 0.57003 0.17327 0.54385 0.0
H392 H 0.56409 0.07029 0.41966 0.0
H393 H 0.54487 0.08353 0.38939 0.0
H394 H 0.53447 0.10895 0.39162 0.0
H395 H 0.53614 0.1372 0.42557 0.0
Mn396 Mn 0.492 0.63301 0.69834 0.0
Mn397 Mn 0.46628 0.58464 0.68846 0.0
C398 C 0.48486 0.61913 0.63537 0.0
C399 C 0.49261 0.66244 0.70274 0.0
C400 C 0.50849 0.60652 0.71284 0.0
O401 O 0.47989 0.6239 0.75397 0.0
O402 O 0.46049 0.59227 0.74063 0.0
C403 C 0.42689 0.57905 0.68506 0.0
N404 N 0.44101 0.57654 0.66855 0.0
C405 C 0.42056 0.5587 0.61331 0.0
C406 C 0.40571 0.56089 0.62999 0.0
C407 C 0.40893 0.57119 0.66592 0.0
C408 C 0.43814 0.56681 0.6338 0.0
H409 H 0.42935 0.58706 0.71252 0.0
C410 C 0.46653 0.60695 0.76365 0.0
O411 O 0.50708 0.66073 0.71503 0.0
O412 O 0.47758 0.6469 0.69027 0.0
N413 N 0.47042 0.57541 0.63868 0.0
C414 C 0.48667 0.57587 0.62504 0.0
C415 C 0.48612 0.56681 0.58867 0.0
C416 C 0.46886 0.55727 0.56686 0.0
C417 C 0.45232 0.55701 0.58146 0.0
C418 C 0.4537 0.56615 0.61804 0.0
H419 H 0.49995 0.58305 0.64178 0.0
O420 O 0.49903 0.63656 0.64009 0.0
O421 O 0.47534 0.61047 0.66741 0.0
O422 O 0.51123 0.62356 0.7088 0.0
O423 O 0.49211 0.59134 0.70808 0.0
C424 C 0.43461 0.54828 0.56086 0.0
C425 C 0.41876 0.54918 0.5767 0.0
H426 H 0.39187 0.55494 0.61521 0.0
H427 H 0.39759 0.57309 0.67878 0.0
H428 H 0.49895 0.56714 0.57752 0.0
H429 H 0.4685 0.55029 0.53885 0.0
H430 H 0.43312 0.54112 0.53247 0.0
H431 H 0.40534 0.54276 0.56019 0.0
H432 H 0.55972 0.15333 0.12855 0.0
H433 H 0.57491 0.15256 0.19099 0.0
H434 H 0.51873 0.11761 0.24431 0.0
H435 H 0.50369 0.11619 0.17944 0.0
H436 H 0.57654 0.16554 0.25733 0.0
H437 H 0.54034 0.08663 0.28066 0.0
H438 H 0.53491 0.09666 0.23792 0.0
H439 H 0.52365 0.09522 0.2853 0.0
C440 C 0.55071 0.14469 0.15308 0.0
C441 C 0.53072 0.13362 0.14855 0.0
C442 C 0.55934 0.14463 0.18916 0.0
C443 C 0.54805 0.13443 0.22235 0.0
C444 C 0.52785 0.12473 0.21876 0.0
H445 H 0.60168 0.15846 0.45755 0.0
H446 H 0.58509 0.15847 0.39625 0.0
C447 C 0.51925 0.12408 0.1819 0.0
C448 C 0.55773 0.13472 0.26054 0.0
H449 H 0.56026 0.10636 0.33379 0.0
C450 C 0.57301 0.1525 0.27373 0.0
C451 C 0.55314 0.11779 0.2825 0.0
C452 C 0.53723 0.09802 0.27061 0.0
C453 C 0.58413 0.15379 0.30715 0.0
C454 C 0.57933 0.13694 0.32923 0.0
C455 C 0.5639 0.11924 0.31672 0.0
C456 C 0.58988 0.13734 0.36584 0.0
C457 C 0.60126 0.17313 0.31756 0.0
C458 C 0.59773 0.12517 0.36945 0.0
C459 C 0.60678 0.12481 0.40494 0.0
C460 C 0.60771 0.13635 0.43731 0.0
C461 C 0.60054 0.14902 0.43318 0.0
C462 C 0.59138 0.14927 0.39798 0.0
H463 H 0.60666 0.18271 0.29094 0.0
H464 H 0.59688 0.18032 0.34024 0.0
H465 H 0.61326 0.17159 0.33003 0.0
H466 H 0.59675 0.11587 0.34492 0.0
H467 H 0.61262 0.11523 0.40747 0.0
H468 H 0.40929 0.56076 0.28559 0.0
H469 H 0.42814 0.57885 0.34334 0.0
H470 H 0.41311 0.52542 0.40361 0.0
H471 H 0.39628 0.50749 0.34316 0.0
H472 H 0.41971 0.58235 0.41096 0.0
H473 H 0.46755 0.55175 0.42948 0.0
H474 H 0.45113 0.54518 0.38808 0.0
H475 H 0.44292 0.53329 0.43573 0.0
C476 C 0.41083 0.55298 0.3105 0.0
C477 C 0.40254 0.53293 0.3091 0.0
C478 C 0.42125 0.56328 0.34393 0.0
C479 C 0.42269 0.55363 0.3777 0.0
C480 C 0.41315 0.53335 0.37735 0.0
H481 H 0.44857 0.60628 0.61063 0.0
H482 H 0.43456 0.59212 0.54602 0.0
C483 C 0.40333 0.52308 0.34307 0.0
C484 C 0.43331 0.56494 0.41362 0.0
H485 H 0.46611 0.57007 0.48465 0.0
C486 C 0.43004 0.57975 0.42665 0.0
C487 C 0.44702 0.56187 0.43419 0.0
C488 C 0.4525 0.54728 0.42086 0.0
C489 C 0.43988 0.59139 0.4595 0.0
C490 C 0.45261 0.58746 0.48149 0.0
C491 C 0.45618 0.57295 0.46816 0.0
C492 C 0.46149 0.59737 0.51964 0.0
C493 C 0.43677 0.60801 0.46948 0.0
C494 C 0.48124 0.60468 0.5269 0.0
C495 C 0.48908 0.6121 0.56454 0.0
C496 C 0.4772 0.61206 0.59533 0.0
C497 C 0.45779 0.60579 0.58749 0.0
C498 C 0.44989 0.59811 0.55028 0.0
H499 H 0.43347 0.6137 0.44208 0.0
H500 H 0.4242 0.60291 0.48984 0.0
H501 H 0.44958 0.62 0.48417 0.0
H502 H 0.4905 0.60431 0.5037 0.0
H503 H 0.50423 0.61732 0.56994 0.0
H504 H 0.85057 0.44425 0.79499 0.0
H505 H 0.85082 0.42665 0.73582 0.0
H506 H 0.89119 0.48042 0.67917 0.0
H507 H 0.89265 0.49773 0.74089 0.0
H508 H 0.83946 0.42508 0.66757 0.0
H509 H 0.91752 0.45234 0.65171 0.0
H510 H 0.90786 0.4589 0.69349 0.0
H511 H 0.91247 0.47164 0.64672 0.0
C512 C 0.86017 0.45216 0.77056 0.0
C513 C 0.87255 0.47209 0.77328 0.0
C514 C 0.86002 0.44217 0.73634 0.0
C515 C 0.87149 0.45206 0.70315 0.0
C516 C 0.88293 0.47227 0.70491 0.0
H517 H 0.84531 0.40107 0.46727 0.0
H518 H 0.84581 0.41605 0.53114 0.0
C519 C 0.88362 0.4822 0.73993 0.0
C520 C 0.87055 0.44112 0.66641 0.0
H521 H 0.89783 0.43507 0.59579 0.0
C522 C 0.8523 0.42718 0.65223 0.0
C523 C 0.88721 0.44361 0.64623 0.0
C524 C 0.90735 0.45731 0.66059 0.0
C525 C 0.85023 0.41575 0.61879 0.0
C526 C 0.86685 0.41898 0.59753 0.0
C527 C 0.88508 0.43273 0.61179 0.0
C528 C 0.86573 0.40889 0.55959 0.0
C529 C 0.83024 0.40004 0.60742 0.0
C530 C 0.8771 0.40024 0.55381 0.0
C531 C 0.87733 0.39229 0.5167 0.0
C532 C 0.86641 0.39316 0.48489 0.0
C533 C 0.85434 0.40089 0.49119 0.0
C534 C 0.85431 0.40906 0.52794 0.0
H535 H 0.82067 0.3947 0.63407 0.0
H536 H 0.82385 0.40594 0.58618 0.0
H537 H 0.83044 0.38764 0.59312 0.0
H538 H 0.88599 0.39988 0.57784 0.0
H539 H 0.88639 0.38595 0.51251 0.0
H540 H 0.44062 0.84865 0.62934 0.0
H541 H 0.42785 0.85219 0.69339 0.0
H542 H 0.48277 0.90228 0.72039 0.0
H543 H 0.49574 0.89809 0.6571 0.0
H544 H 0.47151 0.87848 0.78012 0.0
H545 H 0.4092 0.88645 0.7359 0.0
H546 H 0.40997 0.86704 0.71081 0.0
H547 H 0.42895 0.89151 0.7029 0.0
C548 C 0.44972 0.86071 0.64857 0.0
C549 C 0.46897 0.87339 0.6382 0.0
C550 C 0.44241 0.8628 0.68506 0.0
C551 C 0.45421 0.87775 0.7115 0.0
C552 C 0.47335 0.89071 0.70045 0.0
H553 H 0.40631 0.89893 0.92647 0.0
H554 H 0.42295 0.90255 0.86272 0.0
C555 C 0.48074 0.88838 0.66435 0.0
C556 C 0.44734 0.87865 0.75233 0.0
H557 H 0.41067 0.87891 0.80369 0.0
C558 C 0.45828 0.87875 0.78524 0.0
C559 C 0.43027 0.87931 0.75918 0.0
C560 C 0.41894 0.88123 0.72537 0.0
C561 C 0.45253 0.87929 0.82464 0.0
C562 C 0.43491 0.87888 0.83153 0.0
C563 C 0.42408 0.879 0.79859 0.0
C564 C 0.42727 0.87824 0.87242 0.0
C565 C 0.46582 0.88117 0.85833 0.0
C566 C 0.42444 0.8636 0.89948 0.0
C567 C 0.4154 0.86188 0.93627 0.0
C568 C 0.4088 0.87458 0.94631 0.0
C569 C 0.41162 0.88921 0.91947 0.0
C570 C 0.42104 0.89121 0.88309 0.0
H571 H 0.48081 0.88662 0.84773 0.0
H572 H 0.46595 0.89123 0.88116 0.0
H573 H 0.46077 0.8669 0.87243 0.0
H574 H 0.42841 0.85296 0.89149 0.0
H575 H 0.41275 0.85009 0.95606 0.0
H576 H 0.5081 0.39717 0.08403 0.0
H577 H 0.52371 0.4139 0.02162 0.0
H578 H 0.57725 0.41895 0.06179 0.0
H579 H 0.5618 0.40294 0.12466 0.0
H580 H 0.58379 0.45124 0.02837 0.0
H581 H 0.53639 0.39076 0.92872 0.0
H582 H 0.52308 0.39858 0.95886 0.0
H583 H 0.53604 0.38826 0.98243 0.0
C584 C 0.52322 0.40202 0.07939 0.0
C585 C 0.53395 0.39928 0.10911 0.0
C586 C 0.53208 0.41139 0.04374 0.0
C587 C 0.55157 0.41738 0.03675 0.0
C588 C 0.56221 0.41446 0.06652 0.0
H589 H 0.6048 0.44494 0.80208 0.0
H590 H 0.58996 0.43 0.86602 0.0
C591 C 0.55344 0.4054 0.10238 0.0
C592 C 0.56093 0.42668 -0.00154 0.0
H593 H 0.5575 0.42045 0.89738 0.0
C594 C 0.57791 0.44464 -0.00031 0.0
C595 C 0.55368 0.41767 0.96106 0.0
C596 C 0.53643 0.39767 0.95761 0.0
C597 C 0.58761 0.45412 0.96458 0.0
C598 C 0.57981 0.44557 0.92705 0.0
C599 C 0.56312 0.42734 0.92593 0.0
C600 C 0.58901 0.45488 0.88857 0.0
C601 C 0.60645 0.47282 0.96834 0.0
C602 C 0.59333 0.47379 0.87977 0.0
C603 C 0.6022 0.48245 0.84357 0.0
C604 C 0.606 0.47198 0.81502 0.0
C605 C 0.60157 0.45308 0.82354 0.0
C606 C 0.59314 0.44459 0.86001 0.0
H607 H 0.61332 0.47401 -0.00209 0.0
H608 H 0.61675 0.47424 0.94452 0.0
H609 H 0.60372 0.48505 0.96577 0.0
H610 H 0.58977 0.48183 0.90075 0.0
H611 H 0.6057 0.49712 0.83748 0.0
H612 H 0.15565 0.56279 0.30616 0.0
H613 H 0.15494 0.58108 0.24862 0.0
H614 H 0.11685 0.52783 0.18752 0.0
H615 H 0.11569 0.50971 0.24766 0.0
H616 H 0.16713 0.58471 0.18096 0.0
H617 H 0.08883 0.55426 0.16153 0.0
H618 H 0.09851 0.5475 0.20295 0.0
H619 H 0.09486 0.53571 0.15521 0.0
C620 C 0.14638 0.5551 0.28114 0.0
C621 C 0.1347 0.53503 0.28218 0.0
C622 C 0.1463 0.56551 0.24784 0.0
C623 C 0.13533 0.55595 0.21387 0.0
C624 C 0.12465 0.53568 0.21392 0.0
H625 H 0.16271 0.60746 0.98005 0.0
H626 H 0.16235 0.59365 0.04525 0.0
C627 C 0.12415 0.5253 0.24804 0.0
C628 C 0.13613 0.56732 0.17793 0.0
H629 H 0.10871 0.57223 0.10596 0.0
C630 C 0.15426 0.58208 0.16499 0.0
C631 C 0.11944 0.56421 0.15699 0.0
C632 C 0.09932 0.54968 0.1702 0.0
C633 C 0.15618 0.59356 0.13174 0.0
C634 C 0.13961 0.58955 0.10936 0.0
C635 C 0.12146 0.57515 0.12272 0.0
C636 C 0.14075 0.59925 0.07082 0.0
C637 C 0.17595 0.61007 0.12166 0.0
C638 C 0.12843 0.60663 0.06293 0.0
C639 C 0.12813 0.61387 0.02499 0.0
C640 C 0.13997 0.61354 0.99451 0.0
C641 C 0.15299 0.60718 0.00294 0.0
C642 C 0.15309 0.5997 0.04048 0.0
H643 H 0.18489 0.61588 0.14907 0.0
H644 H 0.18341 0.60481 0.10167 0.0
H645 H 0.17521 0.62201 0.10649 0.0
H646 H 0.1188 0.60648 0.08588 0.0
H647 H 0.11831 0.61917 0.01913 0.0
H648 H 0.48057 0.30393 0.19033 0.0
H649 H 0.47894 0.27417 0.16657 0.0
H650 H 0.54085 0.30378 0.15725 0.0
H651 H 0.54262 0.33349 0.18081 0.0
H652 H 0.49443 0.27044 0.09001 0.0
H653 H 0.52663 0.2535 0.21986 0.0
H654 H 0.51658 0.2692 0.2237 0.0
H655 H 0.54009 0.27795 0.20238 0.0
C656 C 0.49385 0.30401 0.1839 0.0
C657 C 0.51173 0.32107 0.18758 0.0
C658 C 0.49288 0.28703 0.17012 0.0
C659 C 0.50978 0.28674 0.16038 0.0
C660 C 0.52765 0.30361 0.16508 0.0
H661 H 0.54267 0.20682 0.06897 0.0
H662 H 0.54094 0.2348 0.09233 0.0
C663 C 0.52863 0.3206 0.1785 0.0
C664 C 0.50883 0.26918 0.14333 0.0
H665 H 0.52319 0.23622 0.15982 0.0
C666 C 0.50054 0.26281 0.10535 0.0
C667 C 0.5169 0.25935 0.16336 0.0
C668 C 0.52542 0.2652 0.20474 0.0
C669 C 0.50069 0.24723 0.08625 0.0
C670 C 0.50899 0.23752 0.1061 0.0
C671 C 0.51693 0.24371 0.14445 0.0
C672 C 0.50992 0.22108 0.0877 0.0
C673 C 0.4926 0.2418 0.04445 0.0
C674 C 0.49309 0.20412 0.07647 0.0
C675 C 0.49406 0.18812 0.06258 0.0
C676 C 0.51186 0.1887 0.06025 0.0
C677 C 0.52872 0.20589 0.07037 0.0
C678 C 0.52776 0.22189 0.0839 0.0
H679 H 0.49178 0.25375 0.02947 0.0
H680 H 0.50147 0.23776 0.02569 0.0
H681 H 0.47779 0.22923 0.04605 0.0
H682 H 0.47912 0.20297 0.07988 0.0
H683 H 0.48079 0.17502 0.05548 0.0
H684 H 0.30602 0.48007 0.2295 0.0
H685 H 0.27655 0.47934 0.25215 0.0
H686 H 0.3078 0.54119 0.26377 0.0
H687 H 0.33727 0.54207 0.24129 0.0
H688 H 0.2728 0.4947 0.32892 0.0
H689 H 0.25854 0.52896 0.1988 0.0
H690 H 0.27358 0.51814 0.19534 0.0
H691 H 0.2828 0.54152 0.21759 0.0
C692 C 0.30655 0.49354 0.23625 0.0
C693 C 0.32398 0.51114 0.2335 0.0
C694 C 0.28972 0.49309 0.24935 0.0
C695 C 0.28998 0.51022 0.25938 0.0
C696 C 0.30723 0.52783 0.25569 0.0
H697 H 0.20886 0.54266 0.3483 0.0
H698 H 0.23719 0.5415 0.32516 0.0
C699 C 0.32407 0.52829 0.24291 0.0
C700 C 0.2725 0.50969 0.2757 0.0
H701 H 0.24019 0.52472 0.25748 0.0
C702 C 0.26554 0.50112 0.31324 0.0
C703 C 0.26319 0.5182 0.25525 0.0
C704 C 0.26976 0.52711 0.21435 0.0
C705 C 0.24979 0.50128 0.3314 0.0
C706 C 0.24048 0.50984 0.311 0.0
C707 C 0.24736 0.51822 0.27321 0.0
C708 C 0.22366 0.51043 0.32819 0.0
C709 C 0.2437 0.49282 0.37279 0.0
C710 C 0.20664 0.49337 0.33807 0.0
C711 C 0.19045 0.49402 0.35176 0.0
C712 C 0.19089 0.51172 0.35527 0.0
C713 C 0.20805 0.52879 0.34602 0.0
C714 C 0.22425 0.52815 0.33264 0.0
H715 H 0.25545 0.49198 0.38862 0.0
H716 H 0.23925 0.50146 0.39126 0.0
H717 H 0.23126 0.47797 0.3703 0.0
H718 H 0.20566 0.47951 0.33406 0.0
H719 H 0.1774 0.4806 0.35821 0.0
H720 H 0.66813 0.20915 0.51652 0.0
H721 H 0.69697 0.23705 0.4898 0.0
H722 H 0.72788 0.20596 0.49788 0.0
H723 H 0.69914 0.17808 0.52565 0.0
H724 H 0.75032 0.24375 0.51938 0.0
H725 H 0.7141 0.23901 0.37511 0.0
H726 H 0.70158 0.24148 0.41718 0.0
H727 H 0.70373 0.22025 0.41243 0.0
C728 C 0.68115 0.20833 0.5132 0.0
C729 C 0.68131 0.19134 0.52294 0.0
C730 C 0.69758 0.22424 0.49751 0.0
C731 C 0.71442 0.2234 0.49062 0.0
C732 C 0.71498 0.20686 0.50248 0.0
H733 H 0.82501 0.30544 0.38023 0.0
H734 H 0.79699 0.27569 0.4043 0.0
C735 C 0.69857 0.19096 0.51854 0.0
C736 C 0.73124 0.2396 0.47027 0.0
H737 H 0.7445 0.2674 0.38566 0.0
C738 C 0.74909 0.2488 0.49 0.0
C739 C 0.72968 0.24611 0.4317 0.0
C740 C 0.7113 0.23608 0.40767 0.0
C741 C 0.76522 0.26473 0.47286 0.0
C742 C 0.76347 0.27153 0.43488 0.0
C743 C 0.74575 0.26217 0.41482 0.0
C744 C 0.7797 0.28892 0.41642 0.0
C745 C 0.78389 0.27455 0.49593 0.0
C746 C 0.77894 0.30599 0.41378 0.0
C747 C 0.79488 0.32298 0.40007 0.0
C748 C 0.81183 0.32316 0.38836 0.0
C749 C 0.81215 0.30577 0.38888 0.0
C750 C 0.79623 0.2888 0.40294 0.0
H751 H 0.78206 0.26941 0.52739 0.0
H752 H 0.79455 0.27161 0.48115 0.0
H753 H 0.7899 0.2904 0.49605 0.0
H754 H 0.76626 0.30634 0.42382 0.0
H755 H 0.79415 0.33612 0.40004 0.0
H756 H 0.52376 0.82838 0.57136 0.0
H757 H 0.5262 0.80084 0.59629 0.0
H758 H 0.46444 0.76787 0.60877 0.0
H759 H 0.46187 0.79521 0.58407 0.0
H760 H 0.51148 0.78117 0.67371 0.0
H761 H 0.47906 0.73279 0.54283 0.0
H762 H 0.48886 0.75853 0.53986 0.0
H763 H 0.46547 0.74345 0.5614 0.0
C764 C 0.51069 0.81519 0.57898 0.0
C765 C 0.49261 0.81396 0.57557 0.0
C766 C 0.51212 0.79952 0.5934 0.0
C767 C 0.49549 0.78229 0.60411 0.0
C768 C 0.47744 0.78096 0.60024 0.0
H769 H 0.46301 0.66923 0.69019 0.0
H770 H 0.46504 0.69943 0.6698 0.0
C771 C 0.47601 0.79662 0.58615 0.0
C772 C 0.49686 0.76576 0.62031 0.0
H773 H 0.48282 0.71866 0.60206 0.0
C774 C 0.50539 0.76753 0.65797 0.0
C775 C 0.48889 0.74802 0.5997 0.0
C776 C 0.48019 0.74553 0.55854 0.0
C777 C 0.50549 0.75174 0.67627 0.0
C778 C 0.49715 0.73385 0.65595 0.0
C779 C 0.48908 0.73231 0.61782 0.0
C780 C 0.49612 0.71632 0.67369 0.0
C781 C 0.51386 0.75417 0.71774 0.0
C782 C 0.51288 0.7158 0.68382 0.0
C783 C 0.51172 0.6985 0.69605 0.0
C784 C 0.49381 0.68138 0.69774 0.0
C785 C 0.47703 0.68215 0.68918 0.0
C786 C 0.47818 0.69941 0.67735 0.0
H787 H 0.51503 0.76701 0.73313 0.0
H788 H 0.50495 0.74125 0.73644 0.0
H789 H 0.52854 0.75612 0.71549 0.0
H790 H 0.52692 0.72854 0.68055 0.0
H791 H 0.52492 0.69833 0.70198 0.0
H792 H 0.69957 0.52553 0.72619 0.0
H793 H 0.73014 0.52805 0.74705 0.0
H794 H 0.70183 0.46628 0.75891 0.0
H795 H 0.67136 0.46363 0.73833 0.0
H796 H 0.73575 0.51334 0.82333 0.0
H797 H 0.75103 0.48095 0.69143 0.0
H798 H 0.73498 0.49066 0.68921 0.0
H799 H 0.72691 0.46729 0.71066 0.0
C800 C 0.69995 0.51247 0.73257 0.0
C801 C 0.68305 0.49437 0.7305 0.0
C802 C 0.71739 0.51395 0.74467 0.0
C803 C 0.71827 0.49734 0.75425 0.0
C804 C 0.70153 0.47925 0.75116 0.0
H805 H 0.7989 0.46482 0.8411 0.0
H806 H 0.77108 0.46684 0.81776 0.0
C807 C 0.68411 0.47778 0.73946 0.0
C808 C 0.73632 0.49879 0.76963 0.0
H809 H 0.76919 0.4846 0.75033 0.0
C810 C 0.74324 0.50727 0.80725 0.0
C811 C 0.74594 0.49077 0.74864 0.0
C812 C 0.73948 0.48203 0.70758 0.0
C813 C 0.75913 0.50728 0.82515 0.0
C814 C 0.76859 0.49895 0.80442 0.0
C815 C 0.76189 0.49089 0.76634 0.0
C816 C 0.78514 0.49791 0.82186 0.0
C817 C 0.76514 0.51551 0.86672 0.0
C818 C 0.80227 0.51469 0.83252 0.0
C819 C 0.81818 0.51356 0.84634 0.0
C820 C 0.81733 0.49563 0.84921 0.0
C821 C 0.80004 0.47885 0.83929 0.0
C822 C 0.78413 0.47999 0.82579 0.0
H823 H 0.75347 0.51656 0.88244 0.0
H824 H 0.76926 0.50659 0.88509 0.0
H825 H 0.7778 0.53025 0.86458 0.0
H826 H 0.80357 0.52872 0.82899 0.0
H827 H 0.83136 0.52676 0.85334 0.0
H828 H 0.17884 0.6994 0.88497 0.0
H829 H 0.20737 0.73006 0.90352 0.0
H830 H 0.24006 0.70105 0.9175 0.0
H831 H 0.21173 0.67047 0.89932 0.0
H832 H 0.22721 0.73545 0.98038 0.0
H833 H 0.27553 0.75001 0.84995 0.0
H834 H 0.24973 0.73436 0.84704 0.0
H835 H 0.26453 0.72585 0.86916 0.0
C836 C 0.19224 0.69965 0.89107 0.0
C837 C 0.19305 0.68252 0.89062 0.0
C838 C 0.20848 0.71715 0.90188 0.0
C839 C 0.22585 0.71783 0.91167 0.0
C840 C 0.22688 0.70089 0.90959 0.0
H841 H 0.33873 0.79653 0.00245 0.0
H842 H 0.30897 0.7694 0.97676 0.0
C843 C 0.21065 0.68342 0.89924 0.0
C844 C 0.24252 0.7358 0.92715 0.0
H845 H 0.2899 0.76803 0.90915 0.0
C846 C 0.24088 0.74277 0.96466 0.0
C847 C 0.26032 0.74518 0.90667 0.0
C848 C 0.26269 0.73861 0.8658 0.0
C849 C 0.25681 0.75843 0.983 0.0
C850 C 0.27475 0.76765 0.96278 0.0
C851 C 0.2762 0.76093 0.92477 0.0
C852 C 0.29237 0.7839 0.98083 0.0
C853 C 0.25445 0.76438 0.02453 0.0
C854 C 0.29296 0.80108 0.99208 0.0
C855 C 0.30995 0.81658 0.00729 0.0
C856 C 0.32674 0.81529 0.01096 0.0
C857 C 0.32604 0.798 9e-05 0.0
C858 C 0.30905 0.78249 0.98523 0.0
H859 H 0.24156 0.75278 0.03991 0.0
H860 H 0.26732 0.76825 0.04326 0.0
H861 H 0.25261 0.77718 0.02239 0.0
H862 H 0.28045 0.80271 0.98817 0.0
H863 H 0.31007 0.82977 0.01497 0.0
H864 H 0.58198 0.11978 0.65775 0.0
H865 H 0.57396 0.1299 0.71998 0.0
H866 H 0.62607 0.18504 0.71177 0.0
H867 H 0.6343 0.17489 0.64846 0.0
H868 H 0.61565 0.16577 0.7921 0.0
H869 H 0.5561 0.17103 0.72132 0.0
H870 H 0.55586 0.14919 0.7082 0.0
H871 H 0.5758 0.17203 0.69295 0.0
C872 C 0.5919 0.13401 0.6693 0.0
C873 C 0.60868 0.14663 0.64806 0.0
C874 C 0.58722 0.13981 0.70472 0.0
C875 C 0.59912 0.15839 0.71972 0.0
C876 C 0.61656 0.17072 0.70018 0.0
H877 H 0.54253 0.173 0.9355 0.0
H878 H 0.56081 0.18364 0.87212 0.0
C879 C 0.62133 0.16486 0.66437 0.0
C880 C 0.59278 0.16436 0.75588 0.0
H881 H 0.55262 0.16355 0.79255 0.0
C882 C 0.60223 0.16599 0.79217 0.0
C883 C 0.57541 0.16494 0.75585 0.0
C884 C 0.5653 0.16441 0.71739 0.0
C885 C 0.59364 0.16606 0.82876 0.0
C886 C 0.57513 0.16422 0.8288 0.0
C887 C 0.5667 0.16474 0.79245 0.0
C888 C 0.56302 0.15796 0.86524 0.0
C889 C 0.60381 0.16672 0.86722 0.0
C890 C 0.55745 0.13971 0.88087 0.0
C891 C 0.547 0.13361 0.91629 0.0
C892 C 0.54178 0.14559 0.93697 0.0
C893 C 0.54631 0.16346 0.92009 0.0
C894 C 0.55688 0.16961 0.88423 0.0
H895 H 0.61967 0.17416 0.86291 0.0
H896 H 0.60043 0.17417 0.89123 0.0
H897 H 0.59897 0.15179 0.87729 0.0
H898 H 0.5616 0.1303 0.86604 0.0
H899 H 0.54352 0.11965 0.9282 0.0
H900 H 0.48047 0.62781 0.83359 0.0
H901 H 0.46524 0.61897 0.9002 0.0
H902 H 0.41602 0.56945 0.84903 0.0
H903 H 0.4309 0.57797 0.78329 0.0
H904 H 0.4072 0.59078 0.90836 0.0
H905 H 0.46086 0.57007 0.95754 0.0
H906 H 0.46987 0.59402 0.93811 0.0
H907 H 0.45751 0.57366 0.90545 0.0
C908 C 0.46629 0.61523 0.83657 0.0
C909 C 0.45702 0.60347 0.80325 0.0
C910 C 0.45765 0.61017 0.87454 0.0
C911 C 0.43958 0.59347 0.87943 0.0
C912 C 0.42995 0.58238 0.84588 0.0
H913 H 0.38679 0.51357 0.07177 0.0
H914 H 0.39667 0.52927 0.00601 0.0
C915 C 0.43858 0.58725 0.8083 0.0
C916 C 0.43112 0.58628 0.91947 0.0
H917 H 0.43511 0.5628 0.00091 0.0
C918 C 0.4134 0.5849 0.92897 0.0
C919 C 0.43912 0.57833 0.94578 0.0
C920 C 0.45783 0.57892 0.93637 0.0
C921 C 0.40332 0.57551 0.96396 0.0
C922 C 0.4112 0.56729 0.98984 0.0
C923 C 0.42908 0.569 0.98072 0.0
C924 C 0.4013 0.55686 0.02681 0.0
C925 C 0.38408 0.57386 0.97246 0.0
C926 C 0.39998 0.56699 0.05973 0.0
C927 C 0.39427 0.55801 0.09706 0.0
C928 C 0.3897 0.53878 0.10185 0.0
C929 C 0.38975 0.52825 0.0684 0.0
C930 C 0.39558 0.53727 0.03106 0.0
H931 H 0.37844 0.57798 0.94614 0.0
H932 H 0.37338 0.55891 0.98144 0.0
H933 H 0.38563 0.58353 -0.00228 0.0
H934 H 0.40463 0.58218 0.05722 0.0
H935 H 0.39473 0.56648 0.12278 0.0
H936 H 0.8296 0.43714 0.95718 0.0
H937 H 0.82166 0.42078 0.02219 0.0
H938 H 0.8664 0.47252 0.07763 0.0
H939 H 0.87417 0.4889 0.01256 0.0
H940 H 0.84774 0.41471 0.06116 0.0
H941 H 0.82407 0.45385 0.16118 0.0
H942 H 0.82429 0.45604 0.1073 0.0
H943 H 0.84606 0.46992 0.13572 0.0
C944 C 0.83718 0.44519 0.98362 0.0
C945 C 0.85228 0.4643 0.98026 0.0
C946 C 0.83272 0.43583 0.02064 0.0
C947 C 0.84333 0.44544 0.05487 0.0
C948 C 0.8577 0.46494 0.05186 0.0
H949 H 0.88235 0.43004 0.27404 0.0
H950 H 0.87383 0.43843 0.21048 0.0
C951 C 0.86213 0.47433 0.01477 0.0
C952 C 0.84137 0.43448 0.09209 0.0
H953 H 0.8373 0.43599 0.19353 0.0
C954 C 0.845 0.41905 0.09006 0.0
C955 C 0.83771 0.44009 0.1297 0.0
C956 C 0.83262 0.45576 0.13361 0.0
C957 C 0.84643 0.41001 0.12488 0.0
C958 C 0.84398 0.41647 0.16259 0.0
C959 C 0.83922 0.43111 0.1645 0.0
C960 C 0.84901 0.4103 0.20032 0.0
C961 C 0.85179 0.3945 0.12132 0.0
C962 C 0.83805 0.39147 0.21541 0.0
C963 C 0.84295 0.38649 0.25215 0.0
C964 C 0.85878 0.40037 0.27424 0.0
C965 C 0.86993 0.419 0.25817 0.0
C966 C 0.86508 0.42389 0.22178 0.0
H967 H 0.85503 0.39246 0.08995 0.0
H968 H 0.86456 0.39812 0.14021 0.0
H969 H 0.83969 0.38064 0.1323 0.0
H970 H 0.82551 0.38079 0.19928 0.0
H971 H 0.83403 0.37207 0.26384 0.0
H972 H 0.44139 0.81942 0.4534 0.0
H973 H 0.42344 0.81044 0.39004 0.0
H974 H 0.46581 0.86457 0.33838 0.0
H975 H 0.48351 0.87362 0.4018 0.0
H976 H 0.40946 0.83532 0.36282 0.0
H977 H 0.45256 0.82491 0.24588 0.0
H978 H 0.45541 0.82206 0.29873 0.0
H979 H 0.46623 0.84571 0.27696 0.0
C980 C 0.44734 0.8289 0.42778 0.0
C981 C 0.46402 0.847 0.43193 0.0
C982 C 0.437 0.82386 0.39181 0.0
C983 C 0.44336 0.83678 0.35945 0.0
C984 C 0.46084 0.85423 0.36268 0.0
H985 H 0.40155 0.8785 0.1821 0.0
H986 H 0.40954 0.86861 0.24524 0.0
C987 C 0.47103 0.85936 0.39879 0.0
C988 C 0.43044 0.83372 0.32509 0.0
H989 H 0.42901 0.83295 0.22297 0.0
C990 C 0.41348 0.83434 0.33226 0.0
C991 C 0.43568 0.83241 0.28532 0.0
C992 C 0.45338 0.83106 0.27613 0.0
C993 C 0.40231 0.83494 0.30052 0.0
C994 C 0.40824 0.83489 0.26073 0.0
C995 C 0.42449 0.833 0.25357 0.0
C996 C 0.39937 0.83924 0.22636 0.0
C997 C 0.38464 0.83637 0.30968 0.0
C998 C 0.3904 0.82582 0.19537 0.0
C999 C 0.38542 0.83138 0.15959 0.0
C1000 C 0.38969 0.85049 0.15424 0.0
C1001 C 0.39768 0.86357 0.18605 0.0
C1002 C 0.40233 0.85795 0.22197 0.0
H1003 H 0.37923 0.83127 0.34047 0.0
H1004 H 0.38832 0.85164 0.30731 0.0
H1005 H 0.37295 0.82784 0.28791 0.0
H1006 H 0.38821 0.81139 0.19808 0.0
H1007 H 0.37981 0.82124 0.13496 0.0
H1008 H 0.61041 0.43337 0.63068 0.0
H1009 H 0.60028 0.41589 0.56706 0.0
H1010 H 0.60404 0.46604 0.51043 0.0
H1011 H 0.61419 0.48353 0.57427 0.0
H1012 H 0.56604 0.40933 0.53253 0.0
H1013 H 0.62635 0.44569 0.42473 0.0
H1014 H 0.6298 0.44834 0.47834 0.0
H1015 H 0.62112 0.46196 0.45161 0.0
C1016 C 0.60975 0.44084 0.60424 0.0
C1017 C 0.61326 0.4598 0.607 0.0
C1018 C 0.60391 0.43085 0.568 0.0
C1019 C 0.6015 0.43968 0.53395 0.0
C1020 C 0.60618 0.45907 0.53611 0.0
H1021 H 0.52421 0.40436 0.34128 0.0
H1022 H 0.54043 0.41279 0.40633 0.0
C1023 C 0.61202 0.46908 0.57247 0.0
C1024 C 0.59147 0.42791 0.49824 0.0
H1025 H 0.59486 0.42564 0.3967 0.0
C1026 C 0.57247 0.41268 0.50292 0.0
C1027 C 0.59989 0.43219 0.45971 0.0
C1028 C 0.62048 0.44782 0.45321 0.0
C1029 C 0.56135 0.40229 0.46981 0.0
C1030 C 0.56941 0.40731 0.43107 0.0
C1031 C 0.58871 0.42184 0.42652 0.0
C1032 C 0.55747 0.39922 0.39469 0.0
C1033 C 0.54088 0.38638 0.47634 0.0
C1034 C 0.56134 0.38838 0.36703 0.0
C1035 C 0.55175 0.38322 0.33008 0.0
C1036 C 0.53847 0.38914 0.32032 0.0
C1037 C 0.53408 0.39929 0.34867 0.0
C1038 C 0.5434 0.40417 0.38567 0.0
H1039 H 0.53848 0.38096 0.50765 0.0
H1040 H 0.53096 0.39198 0.4703 0.0
H1041 H 0.53712 0.37416 0.45561 0.0
H1042 H 0.57229 0.3846 0.37337 0.0
H1043 H 0.55571 0.37585 0.30814 0.0
H1044 H 0.12572 0.51642 0.51825 0.0
H1045 H 0.13251 0.53323 0.58275 0.0
H1046 H 0.18592 0.57915 0.53559 0.0
H1047 H 0.17918 0.56221 0.47109 0.0
H1048 H 0.18638 0.56882 0.6212 0.0
H1049 H 0.12755 0.58312 0.58058 0.0
H1050 H 0.12088 0.55813 0.57841 0.0
H1051 H 0.13883 0.57505 0.54461 0.0
C1052 C 0.13932 0.52964 0.52239 0.0
C1053 C 0.15215 0.5379 0.49029 0.0
C1054 C 0.14307 0.53934 0.55893 0.0
C1055 C 0.15956 0.55754 0.56358 0.0
C1056 C 0.17313 0.56511 0.53251 0.0
H1057 H 0.15618 0.63033 0.75794 0.0
H1058 H 0.16376 0.62214 0.69188 0.0
C1059 C 0.16938 0.55537 0.49592 0.0
C1060 C 0.16146 0.5694 0.5991 0.0
H1061 H 0.13872 0.58982 0.64802 0.0
C1062 C 0.17612 0.57362 0.62694 0.0
C1063 C 0.14841 0.57616 0.60584 0.0
C1064 C 0.13313 0.57308 0.57563 0.0
C1065 C 0.17727 0.58334 0.66277 0.0
C1066 C 0.16326 0.58872 0.67096 0.0
C1067 C 0.14939 0.58561 0.64184 0.0
C1068 C 0.16106 0.59512 0.71127 0.0
C1069 C 0.19324 0.58741 0.69191 0.0
C1070 C 0.15699 0.58265 0.74379 0.0
C1071 C 0.15253 0.58715 0.78106 0.0
C1072 C 0.15195 0.60426 0.78684 0.0
C1073 C 0.15654 0.61707 0.75449 0.0
C1074 C 0.16089 0.61243 0.71683 0.0
H1075 H 0.20609 0.5888 0.67619 0.0
H1076 H 0.19755 0.60081 0.70917 0.0
H1077 H 0.18819 0.57524 0.71331 0.0
H1078 H 0.15656 0.56901 0.74004 0.0
H1079 H 0.14918 0.57694 0.80523 0.0
H1080 H 0.49196 0.06773 0.99604 0.0
H1081 H 0.46569 0.03456 -0.00132 0.0
H1082 H 0.43123 0.05244 0.06545 0.0
H1083 H 0.45781 0.08601 0.06306 0.0
H1084 H 0.43454 0.02378 0.10307 0.0
H1085 H 0.41363 0.0027 0.946 0.0
H1086 H 0.43931 0.01467 0.95104 0.0
H1087 H 0.42678 0.02761 0.96163 0.0
C1088 C 0.47862 0.06472 0.01038 0.0
C1089 C 0.47697 0.07948 0.02938 0.0
C1090 C 0.46351 0.04573 0.01161 0.0
C1091 C 0.44636 0.04099 0.03182 0.0
C1092 C 0.44427 0.0558 0.04932 0.0
H1093 H 0.37463 0.91444 0.03362 0.0
H1094 H 0.38052 0.94759 0.03179 0.0
C1095 C 0.45941 0.07497 0.04777 0.0
C1096 C 0.43208 0.02036 0.03893 0.0
H1097 H 0.41029 0.977 0.99083 0.0
C1098 C 0.42874 0.01356 0.07854 0.0
C1099 C 0.42418 0.00699 0.0071 0.0
C1100 C 0.42599 0.01342 0.9641 0.0
C1101 C 0.41936 0.99374 0.08693 0.0
C1102 C 0.41345 0.98043 0.05489 0.0
C1103 C 0.41509 0.98718 0.01546 0.0
C1104 C 0.40826 0.96004 0.06112 0.0
C1105 C 0.41661 0.98729 0.13004 0.0
C1106 C 0.42177 0.95599 0.07858 0.0
C1107 C 0.4185 0.93719 0.07957 0.0
C1108 C 0.40164 0.92192 0.06295 0.0
C1109 C 0.38769 0.92583 0.04698 0.0
C1110 C 0.39106 0.94477 0.04577 0.0
H1111 H 0.415 0.99761 0.14963 0.0
H1112 H 0.40378 0.97275 0.13378 0.0
H1113 H 0.42952 0.98678 0.14031 0.0
H1114 H 0.43535 0.96754 0.08976 0.0
H1115 H 0.42956 0.93475 0.09208 0.0
H1116 H 0.46288 0.37663 0.17482 0.0
H1117 H 0.43898 0.38713 0.1682 0.0
H1118 H 0.46567 0.42677 0.26625 0.0
H1119 H 0.48989 0.41687 0.27195 0.0
H1120 H 0.41219 0.39197 0.21664 0.0
H1121 H 0.47448 0.46158 0.16932 0.0
H1122 H 0.47603 0.44003 0.17516 0.0
H1123 H 0.4776 0.45427 0.21821 0.0
C1124 C 0.46322 0.38712 0.19576 0.0
C1125 C 0.47829 0.39609 0.22366 0.0
C1126 C 0.44961 0.39315 0.19187 0.0
C1127 C 0.45086 0.40806 0.21611 0.0
C1128 C 0.46471 0.41554 0.24669 0.0
H1129 H 0.38173 0.46174 0.24461 0.0
H1130 H 0.39253 0.43809 0.24502 0.0
C1131 C 0.47846 0.4098 0.25008 0.0
C1132 C 0.43954 0.41758 0.20648 0.0
H1133 H 0.44532 0.46145 0.18214 0.0
C1134 C 0.41935 0.40712 0.20875 0.0
C1135 C 0.44888 0.4372 0.19505 0.0
C1136 C 0.47042 0.44889 0.18884 0.0
C1137 C 0.4083 0.41604 0.20145 0.0
C1138 C 0.41778 0.436 0.19254 0.0
C1139 C 0.43795 0.44618 0.18906 0.0
C1140 C 0.40755 0.44713 0.18823 0.0
C1141 C 0.38665 0.40393 0.203 0.0
C1142 C 0.41206 0.45996 0.15595 0.0
C1143 C 0.40638 0.47384 0.15635 0.0
C1144 C 0.39564 0.47484 0.1885 0.0
C1145 C 0.38968 0.46099 0.21908 0.0
C1146 C 0.39581 0.4474 0.21924 0.0
H1147 H 0.38174 0.38865 0.19553 0.0
H1148 H 0.38167 0.40427 0.23384 0.0
H1149 H 0.37971 0.40938 0.18204 0.0
H1150 H 0.42105 0.46006 0.13162 0.0
H1151 H 0.41123 0.48444 0.13255 0.0
H1152 H 0.08634 0.46113 0.34768 0.0
H1153 H 0.05192 0.43729 0.34179 0.0
H1154 H 0.03975 0.46301 0.44282 0.0
H1155 H 0.07391 0.48712 0.44807 0.0
H1156 H 0.0202 0.41008 0.39193 0.0
H1157 H 0.01396 0.47324 0.34619 0.0
H1158 H 0.03686 0.47425 0.35075 0.0
H1159 H 0.02477 0.476 0.39459 0.0
C1160 C 0.07639 0.46125 0.36948 0.0
C1161 C 0.08272 0.47606 0.39808 0.0
C1162 C 0.05674 0.44767 0.366 0.0
C1163 C 0.04328 0.44869 0.39132 0.0
C1164 C 0.04988 0.46221 0.42253 0.0
H1165 H 0.92039 0.38141 0.42096 0.0
H1166 H 0.95475 0.39167 0.42127 0.0
C1167 C 0.06939 0.47592 0.42562 0.0
C1168 C 0.02241 0.43765 0.38202 0.0
H1169 H 0.98475 0.44422 0.35828 0.0
C1170 C 0.0124 0.41745 0.38424 0.0
C1171 C 0.01238 0.44729 0.37091 0.0
C1172 C 0.02255 0.46887 0.36503 0.0
C1173 C 0.99241 0.40668 0.37716 0.0
C1174 C 0.9822 0.41646 0.36843 0.0
C1175 C 0.99244 0.43663 0.36503 0.0
C1176 C 0.96085 0.40652 0.36425 0.0
C1177 C 0.98253 0.385 0.37874 0.0
C1178 C 0.95264 0.41114 0.33192 0.0
C1179 C 0.93316 0.40573 0.33235 0.0
C1180 C 0.9214 0.39513 0.36454 0.0
C1181 C 0.92914 0.38916 0.39534 0.0
C1182 C 0.94879 0.395 0.39543 0.0
H1183 H 0.9927 0.37983 0.37134 0.0
H1184 H 0.97714 0.3801 0.40958 0.0
H1185 H 0.97015 0.37824 0.35776 0.0
H1186 H 0.9616 0.42003 0.30753 0.0
H1187 H 0.9275 0.4107 0.30861 0.0
H1188 H 0.53996 0.91604 0.56602 0.0
H1189 H 0.56412 0.95039 0.57149 0.0
H1190 H 0.53395 0.9637 0.48153 0.0
H1191 H 0.50957 0.92962 0.47678 0.0
H1192 H 0.5891 0.98161 0.52028 0.0
H1193 H 0.52997 0.99057 0.58252 0.0
H1194 H 0.52765 0.96723 0.57485 0.0
H1195 H 0.52464 0.97993 0.53357 0.0
C1196 C 0.53882 0.92624 0.54658 0.0
C1197 C 0.52277 0.9202 0.52131 0.0
C1198 C 0.55259 0.94586 0.54983 0.0
C1199 C 0.55055 0.95962 0.52762 0.0
C1200 C 0.53556 0.95336 0.4996 0.0
H1201 H 0.62009 0.08213 0.49479 0.0
H1202 H 0.60863 0.04751 0.49362 0.0
C1203 C 0.52168 0.93387 0.49677 0.0
C1204 C 0.56258 0.98048 0.53666 0.0
H1205 H 0.55888 0.01923 0.56608 0.0
C1206 C 0.58259 0.98987 0.53062 0.0
C1207 C 0.55413 0.99114 0.55121 0.0
C1208 C 0.53296 0.98168 0.56135 0.0
C1209 C 0.59425 0.00984 0.53723 0.0
C1210 C 0.58558 0.02069 0.5494 0.0
C1211 C 0.56564 0.01106 0.55664 0.0
C1212 C 0.59637 0.04209 0.55331 0.0
C1213 C 0.61572 0.019 0.53145 0.0
C1214 C 0.59366 0.05078 0.58739 0.0
C1215 C 0.59978 0.07045 0.58759 0.0
C1216 C 0.6092 0.0819 0.55416 0.0
C1217 C 0.61333 0.07363 0.52134 0.0
C1218 C 0.60678 0.05382 0.52073 0.0
H1219 H 0.62062 0.00843 0.53656 0.0
H1220 H 0.6194 0.0242 0.50013 0.0
H1221 H 0.62375 0.03142 0.55194 0.0
H1222 H 0.58566 0.0421 0.6129 0.0
H1223 H 0.59617 0.0765 0.61291 0.0
H1224 H 0.57733 0.50683 0.6611 0.0
H1225 H 0.56916 0.53229 0.66253 0.0
H1226 H 0.62234 0.56963 0.724 0.0
H1227 H 0.63065 0.54402 0.72289 0.0
H1228 H 0.58998 0.56573 0.76317 0.0
H1229 H 0.58808 0.58329 0.60389 0.0
H1230 H 0.57492 0.55778 0.61246 0.0
H1231 H 0.60053 0.57104 0.62105 0.0
C1232 C 0.58755 0.52059 0.6741 0.0
C1233 C 0.60465 0.52335 0.69191 0.0
C1234 C 0.5829 0.53521 0.67467 0.0
C1235 C 0.59522 0.55296 0.693 0.0
C1236 C 0.61269 0.5561 0.70941 0.0
H1237 H 0.54616 0.63001 0.69027 0.0
H1238 H 0.57176 0.62161 0.6896 0.0
C1239 C 0.61746 0.54148 0.70855 0.0
C1240 C 0.58858 0.56709 0.69889 0.0
H1241 H 0.56786 0.58927 0.64892 0.0
C1242 C 0.58557 0.57129 0.73817 0.0
C1243 C 0.58307 0.57459 0.66637 0.0
C1244 C 0.58701 0.57161 0.62357 0.0
C1245 C 0.57582 0.58145 0.74573 0.0
C1246 C 0.56873 0.58738 0.71319 0.0
C1247 C 0.57312 0.58456 0.67393 0.0
C1248 C 0.55465 0.59409 0.71896 0.0
C1249 C 0.57259 0.58513 0.78854 0.0
C1250 C 0.53669 0.58157 0.73623 0.0
C1251 C 0.52211 0.58626 0.73648 0.0
C1252 C 0.52514 0.60361 0.71948 0.0
C1253 C 0.54346 0.61664 0.70402 0.0
C1254 C 0.55805 0.61181 0.7034 0.0
H1255 H 0.58402 0.58585 0.80852 0.0
H1256 H 0.57223 0.59876 0.79134 0.0
H1257 H 0.55858 0.5731 0.79907 0.0
H1258 H 0.53358 0.56766 0.74771 0.0
H1259 H 0.50816 0.57589 0.74853 0.0
H1260 H 0.07258 0.57655 0.84396 0.0
H1261 H 0.03921 0.56918 0.84354 0.0
H1262 H 0.05632 0.62495 0.8942 0.0
H1263 H 0.09004 0.63248 0.89487 0.0
H1264 H 0.02724 0.59451 0.93725 0.0
H1265 H 0.00815 0.58666 0.77685 0.0
H1266 H 0.0201 0.57352 0.78963 0.0
H1267 H 0.03282 0.59939 0.79407 0.0
C1268 C 0.06936 0.58747 0.85417 0.0
C1269 C 0.08399 0.60512 0.86946 0.0
C1270 C 0.05024 0.58327 0.85366 0.0
C1271 C 0.04525 0.59658 0.86841 0.0
C1272 C 0.05988 0.61454 0.88234 0.0
H1273 H 0.91949 0.54715 0.85872 0.0
H1274 H 0.95334 0.57288 0.85713 0.0
C1275 C 0.07914 0.61886 0.8825 0.0
C1276 C 0.02458 0.59058 0.87326 0.0
H1277 H 0.9818 0.56804 0.82302 0.0
C1278 C 0.01733 0.58917 0.91216 0.0
C1279 C 0.01163 0.58388 0.84057 0.0
C1280 C 0.01861 0.58613 0.7979 0.0
C1281 C 0.99741 0.57979 0.91949 0.0
C1282 C 0.98443 0.57139 0.88715 0.0
C1283 C 0.99171 0.57426 0.84794 0.0
C1284 C 0.96362 0.55754 0.89351 0.0
C1285 C 0.99045 0.57837 0.96199 0.0
C1286 C 0.9581 0.54054 0.9151 0.0
C1287 C 0.93887 0.52586 0.916 0.0
C1288 C 0.92467 0.52779 0.89521 0.0
C1289 C 0.93002 0.54526 0.87537 0.0
C1290 C 0.94938 0.55994 0.87425 0.0
H1291 H 1.00101 0.59079 0.98019 0.0
H1292 H 0.97632 0.57779 0.96312 0.0
H1293 H 0.98881 0.56505 0.97591 0.0
H1294 H 0.96883 0.53813 0.92948 0.0
H1295 H 0.93528 0.51261 0.93151 0.0
loop_
_geom_bond_atom_site_label_1
_geom_bond_atom_site_label_2
_geom_bond_distance
_geom_bond_site_symmetry_2
_ccdc_geom_bond_type
Mn0 O5 2.089 1_554 S
Mn0 O15 2.162 . S
Mn0 O16 2.297 . S
Mn0 O24 2.385 . S
Mn0 O25 2.209 . S
Mn0 O26 2.094 . S
Mn1 O6 2.138 . S
Mn1 N8 2.257 . S
Mn1 N17 2.282 . S
Mn1 O25 2.215 . S
Mn1 O27 2.117 . S
C2 O24 1.234 . S
C2 O25 1.283 . S
C3 O15 1.281 . S
C3 O16 1.236 . S
C4 O26 1.240 . S
C4 O27 1.264 . S
O5 Mn0 2.089 1_556 S
O5 C14 1.252 . S
O6 Mn1 2.138 . S
O6 C14 1.250 1_554 S
C7 N8 1.326 . S
C7 C11 1.460 . S
C7 H13 0.929 . S
N8 Mn1 2.257 . S
N8 C7 1.326 . S
N8 C12 1.362 . S
C9 C10 1.258 . S
C9 C12 1.431 . S
C9 C29 1.449 . S
C10 C9 1.258 . S
C10 C11 1.477 . S
C10 H30 0.931 . S
C11 C7 1.460 . S
C11 C10 1.477 . S
C11 H31 0.930 . S
C12 N8 1.362 . S
C12 C9 1.431 . S
C12 C22 1.476 . S
H13 C7 0.929 . S
C14 O5 1.252 . S
C14 O6 1.250 1_556 S
O15 Mn0 2.162 . S
O15 C3 1.281 . S
O16 Mn0 2.297 . S
O16 C3 1.236 . S
N17 Mn1 2.282 . S
N17 C18 1.328 . S
N17 C22 1.318 . S
C18 N17 1.328 . S
C18 C19 1.457 . S
C18 H23 0.929 . S
C19 C18 1.457 . S
C19 C20 1.291 . S
C19 H32 0.931 . S
C20 C19 1.291 . S
C20 C21 1.373 . S
C20 H33 0.929 . S
C21 C20 1.373 . S
C21 C22 1.396 . S
C21 C28 1.403 . S
C22 C12 1.476 . S
C22 N17 1.318 . S
C22 C21 1.396 . S
H23 C18 0.929 . S
O24 Mn0 2.385 . S
O24 C2 1.234 . S
O25 Mn0 2.209 . S
O25 Mn1 2.215 . S
O25 C2 1.283 . S
O26 Mn0 2.094 . S
O26 C4 1.240 . S
O27 Mn1 2.117 . S
O27 C4 1.264 . S
C28 C21 1.403 . S
C28 C29 1.399 . S
C28 H34 0.929 . S
C29 C9 1.449 . S
C29 C28 1.399 . S
C29 H35 0.930 . S
H30 C10 0.931 . S
H31 C11 0.930 . S
H32 C19 0.931 . S
H33 C20 0.929 . S
H34 C28 0.929 . S
H35 C29 0.930 . S
Mn36 O41 2.095 . S
Mn36 O51 2.162 . S
Mn36 O52 2.297 . S
Mn36 O60 2.385 . S
Mn36 O61 2.209 . S
Mn36 O62 2.094 . S
Mn37 O42 2.121 . S
Mn37 N44 2.257 . S
Mn37 N53 2.282 . S
Mn37 O61 2.215 . S
Mn37 O63 2.117 . S
C38 O60 1.234 . S
C38 O61 1.283 . S
C39 O51 1.281 . S
C39 O52 1.236 . S
C40 O62 1.240 . S
C40 O63 1.264 . S
O41 Mn36 2.095 . S
O41 C50 1.250 . S
O42 Mn37 2.121 . S
O42 C50 1.258 . S
C43 N44 1.326 . S
C43 C47 1.460 . S
C43 H49 0.929 . S
N44 Mn37 2.257 . S
N44 C43 1.326 . S
N44 C48 1.362 . S
C45 C46 1.258 . S
C45 C48 1.431 . S
C45 C65 1.449 . S
C46 C45 1.258 . S
C46 C47 1.477 . S
C46 H66 0.931 . S
C47 C43 1.460 . S
C47 C46 1.477 . S
C47 H67 0.930 . S
C48 N44 1.362 . S
C48 C45 1.431 . S
C48 C58 1.476 . S
H49 C43 0.929 . S
C50 O41 1.250 . S
C50 O42 1.258 . S
O51 Mn36 2.162 . S
O51 C39 1.281 . S
O52 Mn36 2.297 . S
O52 C39 1.236 . S
N53 Mn37 2.282 . S
N53 C54 1.328 . S
N53 C58 1.318 . S
C54 N53 1.328 . S
C54 C55 1.457 . S
C54 H59 0.929 . S
C55 C54 1.457 . S
C55 C56 1.291 . S
C55 H68 0.931 . S
C56 C55 1.291 . S
C56 C57 1.373 . S
C56 H69 0.929 . S
C57 C56 1.373 . S
C57 C58 1.396 . S
C57 C64 1.403 . S
C58 C48 1.476 . S
C58 N53 1.318 . S
C58 C57 1.396 . S
H59 C54 0.929 . S
O60 Mn36 2.385 . S
O60 C38 1.234 . S
O61 Mn36 2.209 . S
O61 Mn37 2.215 . S
O61 C38 1.283 . S
O62 Mn36 2.094 . S
O62 C40 1.240 . S
O63 Mn37 2.117 . S
O63 C40 1.264 . S
C64 C57 1.403 . S
C64 C65 1.399 . S
C64 H70 0.929 . S
C65 C45 1.449 . S
C65 C64 1.399 . S
C65 H71 0.930 . S
H66 C46 0.931 . S
H67 C47 0.930 . S
H68 C55 0.931 . S
H69 C56 0.929 . S
H70 C64 0.929 . S
H71 C65 0.930 . S
Mn72 O77 2.095 . S
Mn72 O87 2.162 . S
Mn72 O88 2.297 . S
Mn72 O96 2.385 . S
Mn72 O97 2.209 . S
Mn72 O98 2.094 . S
Mn73 O78 2.121 . S
Mn73 N80 2.257 . S
Mn73 N89 2.282 . S
Mn73 O97 2.215 . S
Mn73 O99 2.117 . S
C74 O96 1.234 . S
C74 O97 1.283 . S
C75 O87 1.281 . S
C75 O88 1.236 . S
C76 O98 1.240 . S
C76 O99 1.264 . S
O77 Mn72 2.095 . S
O77 C86 1.250 . S
O78 Mn73 2.121 . S
O78 C86 1.258 . S
C79 N80 1.326 . S
C79 C83 1.460 . S
C79 H85 0.929 . S
N80 Mn73 2.257 . S
N80 C79 1.326 . S
N80 C84 1.362 . S
C81 C82 1.258 . S
C81 C84 1.431 . S
C81 C101 1.449 . S
C82 C81 1.258 . S
C82 C83 1.477 . S
C82 H102 0.931 . S
C83 C79 1.460 . S
C83 C82 1.477 . S
C83 H103 0.930 . S
C84 N80 1.362 . S
C84 C81 1.431 . S
C84 C94 1.476 . S
H85 C79 0.929 . S
C86 O77 1.250 . S
C86 O78 1.258 . S
O87 Mn72 2.162 . S
O87 C75 1.281 . S
O88 Mn72 2.297 . S
O88 C75 1.236 . S
N89 Mn73 2.282 . S
N89 C90 1.328 . S
N89 C94 1.318 . S
C90 N89 1.328 . S
C90 C91 1.457 . S
C90 H95 0.929 . S
C91 C90 1.457 . S
C91 C92 1.291 . S
C91 H104 0.931 . S
C92 C91 1.291 . S
C92 C93 1.373 . S
C92 H105 0.929 . S
C93 C92 1.373 . S
C93 C94 1.396 . S
C93 C100 1.403 . S
C94 C84 1.476 . S
C94 N89 1.318 . S
C94 C93 1.396 . S
H95 C90 0.929 . S
O96 Mn72 2.385 . S
O96 C74 1.234 . S
O97 Mn72 2.209 . S
O97 Mn73 2.215 . S
O97 C74 1.283 . S
O98 Mn72 2.094 . S
O98 C76 1.240 . S
O99 Mn73 2.117 . S
O99 C76 1.264 . S
C100 C93 1.403 . S
C100 C101 1.399 . S
C100 H106 0.929 . S
C101 C81 1.449 . S
C101 C100 1.399 . S
C101 H107 0.930 . S
H102 C82 0.931 . S
H103 C83 0.930 . S
H104 C91 0.931 . S
H105 C92 0.929 . S
H106 C100 0.929 . S
H107 C101 0.930 . S
Mn108 O113 2.095 . S
Mn108 O123 2.162 . S
Mn108 O124 2.297 . S
Mn108 O132 2.385 . S
Mn108 O133 2.209 . S
Mn108 O134 2.094 . S
Mn109 O114 2.121 . S
Mn109 N116 2.257 . S
Mn109 N125 2.282 . S
Mn109 O133 2.215 . S
Mn109 O135 2.117 . S
C110 O132 1.234 . S
C110 O133 1.283 . S
C111 O123 1.281 . S
C111 O124 1.236 . S
C112 O134 1.240 . S
C112 O135 1.264 . S
O113 Mn108 2.095 . S
O113 C122 1.250 . S
O114 Mn109 2.121 . S
O114 C122 1.258 . S
C115 N116 1.326 . S
C115 C119 1.460 . S
C115 H121 0.929 . S
N116 Mn109 2.257 . S
N116 C115 1.326 . S
N116 C120 1.362 . S
C117 C118 1.258 . S
C117 C120 1.431 . S
C117 C137 1.449 . S
C118 C117 1.258 . S
C118 C119 1.477 . S
C118 H138 0.931 . S
C119 C115 1.460 . S
C119 C118 1.477 . S
C119 H139 0.930 . S
C120 N116 1.362 . S
C120 C117 1.431 . S
C120 C130 1.476 . S
H121 C115 0.929 . S
C122 O113 1.250 . S
C122 O114 1.258 . S
O123 Mn108 2.162 . S
O123 C111 1.281 . S
O124 Mn108 2.297 . S
O124 C111 1.236 . S
N125 Mn109 2.282 . S
N125 C126 1.328 . S
N125 C130 1.318 . S
C126 N125 1.328 . S
C126 C127 1.457 . S
C126 H131 0.929 . S
C127 C126 1.457 . S
C127 C128 1.291 . S
C127 H140 0.931 . S
C128 C127 1.291 . S
C128 C129 1.373 . S
C128 H141 0.929 . S
C129 C128 1.373 . S
C129 C130 1.396 . S
C129 C136 1.403 . S
C130 C120 1.476 . S
C130 N125 1.318 . S
C130 C129 1.396 . S
H131 C126 0.929 . S
O132 Mn108 2.385 . S
O132 C110 1.234 . S
O133 Mn108 2.209 . S
O133 Mn109 2.215 . S
O133 C110 1.283 . S
O134 Mn108 2.094 . S
O134 C112 1.240 . S
O135 Mn109 2.117 . S
O135 C112 1.264 . S
C136 C129 1.403 . S
C136 C137 1.399 . S
C136 H142 0.929 . S
C137 C117 1.449 . S
C137 C136 1.399 . S
C137 H143 0.930 . S
H138 C118 0.931 . S
H139 C119 0.930 . S
H140 C127 0.931 . S
H141 C128 0.929 . S
H142 C136 0.929 . S
H143 C137 0.930 . S
Mn144 O149 2.095 . S
Mn144 O159 2.162 . S
Mn144 O160 2.297 . S
Mn144 O168 2.385 . S
Mn144 O169 2.209 . S
Mn144 O170 2.094 . S
Mn145 O150 2.121 . S
Mn145 N152 2.257 . S
Mn145 N161 2.282 . S
Mn145 O169 2.215 . S
Mn145 O171 2.117 . S
C146 O168 1.234 . S
C146 O169 1.283 . S
C147 O159 1.281 . S
C147 O160 1.236 . S
C148 O170 1.240 . S
C148 O171 1.264 . S
O149 Mn144 2.095 . S
O149 C158 1.250 . S
O150 Mn145 2.121 . S
O150 C158 1.258 . S
C151 N152 1.326 . S
C151 C155 1.460 . S
C151 H157 0.929 . S
N152 Mn145 2.257 . S
N152 C151 1.326 . S
N152 C156 1.362 . S
C153 C154 1.258 . S
C153 C156 1.431 . S
C153 C173 1.449 . S
C154 C153 1.258 . S
C154 C155 1.477 . S
C154 H174 0.931 . S
C155 C151 1.460 . S
C155 C154 1.477 . S
C155 H175 0.930 . S
C156 N152 1.362 . S
C156 C153 1.431 . S
C156 C166 1.476 . S
H157 C151 0.929 . S
C158 O149 1.250 . S
C158 O150 1.258 . S
O159 Mn144 2.162 . S
O159 C147 1.281 . S
O160 Mn144 2.297 . S
O160 C147 1.236 . S
N161 Mn145 2.282 . S
N161 C162 1.328 . S
N161 C166 1.318 . S
C162 N161 1.328 . S
C162 C163 1.457 . S
C162 H167 0.929 . S
C163 C162 1.457 . S
C163 C164 1.291 . S
C163 H176 0.931 . S
C164 C163 1.291 . S
C164 C165 1.373 . S
C164 H177 0.929 . S
C165 C164 1.373 . S
C165 C166 1.396 . S
C165 C172 1.403 . S
C166 C156 1.476 . S
C166 N161 1.318 . S
C166 C165 1.396 . S
H167 C162 0.929 . S
O168 Mn144 2.385 . S
O168 C146 1.234 . S
O169 Mn144 2.209 . S
O169 Mn145 2.215 . S
O169 C146 1.283 . S
O170 Mn144 2.094 . S
O170 C148 1.240 . S
O171 Mn145 2.117 . S
O171 C148 1.264 . S
C172 C165 1.403 . S
C172 C173 1.399 . S
C172 H178 0.929 . S
C173 C153 1.449 . S
C173 C172 1.399 . S
C173 H179 0.930 . S
H174 C154 0.931 . S
H175 C155 0.930 . S
H176 C163 0.931 . S
H177 C164 0.929 . S
H178 C172 0.929 . S
H179 C173 0.930 . S
Mn180 O185 2.095 . S
Mn180 O195 2.162 . S
Mn180 O196 2.297 . S
Mn180 O204 2.385 . S
Mn180 O205 2.209 . S
Mn180 O206 2.094 . S
Mn181 O186 2.121 . S
Mn181 N188 2.257 . S
Mn181 N197 2.282 . S
Mn181 O205 2.215 . S
Mn181 O207 2.117 . S
C182 O204 1.234 . S
C182 O205 1.283 . S
C183 O195 1.281 . S
C183 O196 1.236 . S
C184 O206 1.240 . S
C184 O207 1.264 . S
O185 Mn180 2.095 . S
O185 C194 1.250 . S
O186 Mn181 2.121 . S
O186 C194 1.258 . S
C187 N188 1.326 . S
C187 C191 1.460 . S
C187 H193 0.929 . S
N188 Mn181 2.257 . S
N188 C187 1.326 . S
N188 C192 1.362 . S
C189 C190 1.258 . S
C189 C192 1.431 . S
C189 C209 1.449 . S
C190 C189 1.258 . S
C190 C191 1.477 . S
C190 H210 0.931 . S
C191 C187 1.460 . S
C191 C190 1.477 . S
C191 H211 0.930 . S
C192 N188 1.362 . S
C192 C189 1.431 . S
C192 C202 1.476 . S
H193 C187 0.929 . S
C194 O185 1.250 . S
C194 O186 1.258 . S
O195 Mn180 2.162 . S
O195 C183 1.281 . S
O196 Mn180 2.297 . S
O196 C183 1.236 . S
N197 Mn181 2.282 . S
N197 C198 1.328 . S
N197 C202 1.318 . S
C198 N197 1.328 . S
C198 C199 1.457 1_556 S
C198 H203 0.929 . S
C199 C198 1.457 1_554 S
C199 C200 1.291 . S
C199 H212 0.931 . S
C200 C199 1.291 . S
C200 C201 1.373 1_554 S
C200 H213 0.929 . S
C201 C200 1.373 1_556 S
C201 C202 1.396 . S
C201 C208 1.403 1_556 S
C202 C192 1.476 . S
C202 N197 1.318 . S
C202 C201 1.396 . S
H203 C198 0.929 . S
O204 Mn180 2.385 . S
O204 C182 1.234 . S
O205 Mn180 2.209 . S
O205 Mn181 2.215 . S
O205 C182 1.283 . S
O206 Mn180 2.094 . S
O206 C184 1.240 . S
O207 Mn181 2.117 . S
O207 C184 1.264 . S
C208 C201 1.403 1_554 S
C208 C209 1.399 1_554 S
C208 H214 0.929 . S
C209 C189 1.449 . S
C209 C208 1.399 1_556 S
C209 H215 0.930 . S
H210 C190 0.931 . S
H211 C191 0.930 . S
H212 C199 0.931 . S
H213 C200 0.929 . S
H214 C208 0.929 . S
H215 C209 0.930 . S
Mn216 O221 2.095 . S
Mn216 O231 2.162 . S
Mn216 O232 2.297 . S
Mn216 O240 2.385 . S
Mn216 O241 2.209 . S
Mn216 O242 2.094 . S
Mn217 O222 2.121 . S
Mn217 N224 2.257 . S
Mn217 N233 2.282 . S
Mn217 O241 2.215 . S
Mn217 O243 2.117 . S
C218 O240 1.234 . S
C218 O241 1.283 . S
C219 O231 1.281 . S
C219 O232 1.236 . S
C220 O242 1.240 . S
C220 O243 1.264 . S
O221 Mn216 2.095 . S
O221 C230 1.250 . S
O222 Mn217 2.121 . S
O222 C230 1.258 . S
C223 N224 1.326 . S
C223 C227 1.460 . S
C223 H229 0.929 . S
N224 Mn217 2.257 . S
N224 C223 1.326 . S
N224 C228 1.362 . S
C225 C226 1.258 . S
C225 C228 1.431 . S
C225 C245 1.449 . S
C226 C225 1.258 . S
C226 C227 1.477 . S
C226 H246 0.931 . S
C227 C223 1.460 . S
C227 C226 1.477 . S
C227 H247 0.930 . S
C228 N224 1.362 . S
C228 C225 1.431 . S
C228 C238 1.476 . S
H229 C223 0.929 . S
C230 O221 1.250 . S
C230 O222 1.258 . S
O231 Mn216 2.162 . S
O231 C219 1.281 . S
O232 Mn216 2.297 . S
O232 C219 1.236 . S
N233 Mn217 2.282 . S
N233 C234 1.328 . S
N233 C238 1.318 . S
C234 N233 1.328 . S
C234 C235 1.457 . S
C234 H239 0.929 . S
C235 C234 1.457 . S
C235 C236 1.291 . S
C235 H248 0.931 . S
C236 C235 1.291 . S
C236 C237 1.373 . S
C236 H249 0.929 . S
C237 C236 1.373 . S
C237 C238 1.396 . S
C237 C244 1.403 . S
C238 C228 1.476 . S
C238 N233 1.318 . S
C238 C237 1.396 . S
H239 C234 0.929 . S
O240 Mn216 2.385 . S
O240 C218 1.234 . S
O241 Mn216 2.209 . S
O241 Mn217 2.215 . S
O241 C218 1.283 . S
O242 Mn216 2.094 . S
O242 C220 1.240 . S
O243 Mn217 2.117 . S
O243 C220 1.264 . S
C244 C237 1.403 . S
C244 C245 1.399 . S
C244 H250 0.929 . S
C245 C225 1.449 . S
C245 C244 1.399 . S
C245 H251 0.930 . S
H246 C226 0.931 . S
H247 C227 0.930 . S
H248 C235 0.931 . S
H249 C236 0.929 . S
H250 C244 0.929 . S
H251 C245 0.930 . S
Mn252 O257 2.095 . S
Mn252 O267 2.162 . S
Mn252 O268 2.297 . S
Mn252 O276 2.385 1_554 S
Mn252 O277 2.209 . S
Mn252 O278 2.094 . S
Mn253 O258 2.121 . S
Mn253 N260 2.257 . S
Mn253 N269 2.282 1_554 S
Mn253 O277 2.215 . S
Mn253 O279 2.117 . S
C254 O276 1.234 . S
C254 O277 1.283 1_556 S
C255 O267 1.281 . S
C255 O268 1.236 . S
C256 O278 1.240 . S
C256 O279 1.264 . S
O257 Mn252 2.095 . S
O257 C266 1.250 . S
O258 Mn253 2.121 . S
O258 C266 1.258 . S
C259 N260 1.326 . S
C259 C263 1.460 . S
C259 H265 0.929 . S
N260 Mn253 2.257 . S
N260 C259 1.326 . S
N260 C264 1.362 1_554 S
C261 C262 1.258 1_556 S
C261 C264 1.431 . S
C261 C281 1.449 . S
C262 C261 1.258 1_554 S
C262 C263 1.477 . S
C262 H282 0.931 1_554 S
C263 C259 1.460 . S
C263 C262 1.477 . S
C263 H283 0.930 . S
C264 N260 1.362 1_556 S
C264 C261 1.431 . S
C264 C274 1.476 . S
H265 C259 0.929 . S
C266 O257 1.250 . S
C266 O258 1.258 . S
O267 Mn252 2.162 . S
O267 C255 1.281 . S
O268 Mn252 2.297 . S
O268 C255 1.236 . S
N269 Mn253 2.282 1_556 S
N269 C270 1.328 . S
N269 C274 1.318 . S
C270 N269 1.328 . S
C270 C271 1.457 . S
C270 H275 0.929 . S
C271 C270 1.457 . S
C271 C272 1.291 . S
C271 H284 0.931 . S
C272 C271 1.291 . S
C272 C273 1.373 . S
C272 H285 0.929 . S
C273 C272 1.373 . S
C273 C274 1.396 . S
C273 C280 1.403 . S
C274 C264 1.476 . S
C274 N269 1.318 . S
C274 C273 1.396 . S
H275 C270 0.929 . S
O276 Mn252 2.385 1_556 S
O276 C254 1.234 . S
O277 Mn252 2.209 . S
O277 Mn253 2.215 . S
O277 C254 1.283 1_554 S
O278 Mn252 2.094 . S
O278 C256 1.240 . S
O279 Mn253 2.117 . S
O279 C256 1.264 . S
C280 C273 1.403 . S
C280 C281 1.399 . S
C280 H286 0.929 . S
C281 C261 1.449 . S
C281 C280 1.399 . S
C281 H287 0.930 . S
H282 C262 0.931 1_556 S
H283 C263 0.930 . S
H284 C271 0.931 . S
H285 C272 0.929 . S
H286 C280 0.929 . S
H287 C281 0.930 . S
Mn288 O293 2.095 . S
Mn288 O303 2.162 . S
Mn288 O304 2.297 . S
Mn288 O312 2.385 . S
Mn288 O313 2.209 . S
Mn288 O314 2.094 . S
Mn289 O294 2.121 . S
Mn289 N296 2.257 . S
Mn289 N305 2.282 . S
Mn289 O313 2.215 . S
Mn289 O315 2.117 . S
C290 O312 1.234 . S
C290 O313 1.283 . S
C291 O303 1.281 . S
C291 O304 1.236 . S
C292 O314 1.240 . S
C292 O315 1.264 . S
O293 Mn288 2.095 . S
O293 C302 1.250 . S
O294 Mn289 2.121 . S
O294 C302 1.258 . S
C295 N296 1.326 . S
C295 C299 1.460 . S
C295 H301 0.929 . S
N296 Mn289 2.257 . S
N296 C295 1.326 . S
N296 C300 1.362 . S
C297 C298 1.258 . S
C297 C300 1.431 . S
C297 C317 1.449 . S
C298 C297 1.258 . S
C298 C299 1.477 . S
C298 H318 0.931 . S
C299 C295 1.460 . S
C299 C298 1.477 . S
C299 H319 0.930 . S
C300 N296 1.362 . S
C300 C297 1.431 . S
C300 C310 1.476 . S
H301 C295 0.929 . S
C302 O293 1.250 . S
C302 O294 1.258 . S
O303 Mn288 2.162 . S
O303 C291 1.281 . S
O304 Mn288 2.297 . S
O304 C291 1.236 . S
N305 Mn289 2.282 . S
N305 C306 1.328 . S
N305 C310 1.318 . S
C306 N305 1.328 . S
C306 C307 1.457 . S
C306 H311 0.929 . S
C307 C306 1.457 . S
C307 C308 1.291 . S
C307 H320 0.931 . S
C308 C307 1.291 . S
C308 C309 1.373 . S
C308 H321 0.929 . S
C309 C308 1.373 . S
C309 C310 1.396 . S
C309 C316 1.403 . S
C310 C300 1.476 . S
C310 N305 1.318 . S
C310 C309 1.396 . S
H311 C306 0.929 . S
O312 Mn288 2.385 . S
O312 C290 1.234 . S
O313 Mn288 2.209 . S
O313 Mn289 2.215 . S
O313 C290 1.283 . S
O314 Mn288 2.094 . S
O314 C292 1.240 . S
O315 Mn289 2.117 . S
O315 C292 1.264 . S
C316 C309 1.403 . S
C316 C317 1.399 . S
C316 H322 0.929 . S
C317 C297 1.449 . S
C317 C316 1.399 . S
C317 H323 0.930 . S
H318 C298 0.931 . S
H319 C299 0.930 . S
H320 C307 0.931 . S
H321 C308 0.929 . S
H322 C316 0.929 . S
H323 C317 0.930 . S
Mn324 O329 2.095 . S
Mn324 O339 2.162 . S
Mn324 O340 2.297 . S
Mn324 O348 2.385 . S
Mn324 O349 2.209 . S
Mn324 O350 2.094 . S
Mn325 O330 2.121 . S
Mn325 N332 2.257 . S
Mn325 N341 2.282 . S
Mn325 O349 2.215 . S
Mn325 O351 2.117 . S
C326 O348 1.234 . S
C326 O349 1.283 . S
C327 O339 1.281 . S
C327 O340 1.236 . S
C328 O350 1.240 . S
C328 O351 1.264 . S
O329 Mn324 2.095 . S
O329 C338 1.250 . S
O330 Mn325 2.121 . S
O330 C338 1.258 . S
C331 N332 1.326 . S
C331 C335 1.460 . S
C331 H337 0.929 . S
N332 Mn325 2.257 . S
N332 C331 1.326 . S
N332 C336 1.362 . S
C333 C334 1.258 . S
C333 C336 1.431 . S
C333 C353 1.449 . S
C334 C333 1.258 . S
C334 C335 1.477 . S
C334 H354 0.931 . S
C335 C331 1.460 . S
C335 C334 1.477 . S
C335 H355 0.930 . S
C336 N332 1.362 . S
C336 C333 1.431 . S
C336 C346 1.476 . S
H337 C331 0.929 . S
C338 O329 1.250 . S
C338 O330 1.258 . S
O339 Mn324 2.162 . S
O339 C327 1.281 . S
O340 Mn324 2.297 . S
O340 C327 1.236 . S
N341 Mn325 2.282 . S
N341 C342 1.328 . S
N341 C346 1.318 . S
C342 N341 1.328 . S
C342 C343 1.457 . S
C342 H347 0.929 . S
C343 C342 1.457 . S
C343 C344 1.291 . S
C343 H356 0.931 . S
C344 C343 1.291 . S
C344 C345 1.373 . S
C344 H357 0.929 . S
C345 C344 1.373 . S
C345 C346 1.396 . S
C345 C352 1.403 . S
C346 C336 1.476 . S
C346 N341 1.318 . S
C346 C345 1.396 . S
H347 C342 0.929 . S
O348 Mn324 2.385 . S
O348 C326 1.234 . S
O349 Mn324 2.209 . S
O349 Mn325 2.215 . S
O349 C326 1.283 . S
O350 Mn324 2.094 . S
O350 C328 1.240 . S
O351 Mn325 2.117 . S
O351 C328 1.264 . S
C352 C345 1.403 . S
C352 C353 1.399 . S
C352 H358 0.929 . S
C353 C333 1.449 . S
C353 C352 1.399 . S
C353 H359 0.930 . S
H354 C334 0.931 . S
H355 C335 0.930 . S
H356 C343 0.931 . S
H357 C344 0.929 . S
H358 C352 0.929 . S
H359 C353 0.930 . S
Mn360 O365 2.095 . S
Mn360 O375 2.162 . S
Mn360 O376 2.297 . S
Mn360 O384 2.385 . S
Mn360 O385 2.209 . S
Mn360 O386 2.094 . S
Mn361 O366 2.121 . S
Mn361 N368 2.257 . S
Mn361 N377 2.282 . S
Mn361 O385 2.215 . S
Mn361 O387 2.117 . S
C362 O384 1.234 . S
C362 O385 1.283 . S
C363 O375 1.281 . S
C363 O376 1.236 . S
C364 O386 1.240 . S
C364 O387 1.264 . S
O365 Mn360 2.095 . S
O365 C374 1.250 . S
O366 Mn361 2.121 . S
O366 C374 1.258 . S
C367 N368 1.326 . S
C367 C371 1.460 . S
C367 H373 0.929 . S
N368 Mn361 2.257 . S
N368 C367 1.326 . S
N368 C372 1.362 . S
C369 C370 1.258 . S
C369 C372 1.431 . S
C369 C389 1.449 . S
C370 C369 1.258 . S
C370 C371 1.477 . S
C370 H390 0.931 . S
C371 C367 1.460 . S
C371 C370 1.477 . S
C371 H391 0.930 . S
C372 N368 1.362 . S
C372 C369 1.431 . S
C372 C382 1.476 . S
H373 C367 0.929 . S
C374 O365 1.250 . S
C374 O366 1.258 . S
O375 Mn360 2.162 . S
O375 C363 1.281 . S
O376 Mn360 2.297 . S
O376 C363 1.236 . S
N377 Mn361 2.282 . S
N377 C378 1.328 . S
N377 C382 1.318 . S
C378 N377 1.328 . S
C378 C379 1.457 . S
C378 H383 0.929 . S
C379 C378 1.457 . S
C379 C380 1.291 . S
C379 H392 0.931 . S
C380 C379 1.291 . S
C380 C381 1.373 . S
C380 H393 0.929 . S
C381 C380 1.373 . S
C381 C382 1.396 . S
C381 C388 1.403 . S
C382 C372 1.476 . S
C382 N377 1.318 . S
C382 C381 1.396 . S
H383 C378 0.929 . S
O384 Mn360 2.385 . S
O384 C362 1.234 . S
O385 Mn360 2.209 . S
O385 Mn361 2.215 . S
O385 C362 1.283 . S
O386 Mn360 2.094 . S
O386 C364 1.240 . S
O387 Mn361 2.117 . S
O387 C364 1.264 . S
C388 C381 1.403 . S
C388 C389 1.399 . S
C388 H394 0.929 . S
C389 C369 1.449 . S
C389 C388 1.399 . S
C389 H395 0.930 . S
H390 C370 0.931 . S
H391 C371 0.930 . S
H392 C379 0.931 . S
H393 C380 0.929 . S
H394 C388 0.929 . S
H395 C389 0.930 . S
Mn396 O401 2.095 . S
Mn396 O411 2.162 . S
Mn396 O412 2.297 . S
Mn396 O420 2.385 . S
Mn396 O421 2.209 . S
Mn396 O422 2.094 . S
Mn397 O402 2.121 . S
Mn397 N404 2.257 . S
Mn397 N413 2.282 . S
Mn397 O421 2.215 . S
Mn397 O423 2.117 . S
C398 O420 1.234 . S
C398 O421 1.283 . S
C399 O411 1.281 . S
C399 O412 1.236 . S
C400 O422 1.240 . S
C400 O423 1.264 . S
O401 Mn396 2.095 . S
O401 C410 1.250 . S
O402 Mn397 2.121 . S
O402 C410 1.258 . S
C403 N404 1.326 . S
C403 C407 1.460 . S
C403 H409 0.929 . S
N404 Mn397 2.257 . S
N404 C403 1.326 . S
N404 C408 1.362 . S
C405 C406 1.258 . S
C405 C408 1.431 . S
C405 C425 1.449 . S
C406 C405 1.258 . S
C406 C407 1.477 . S
C406 H426 0.931 . S
C407 C403 1.460 . S
C407 C406 1.477 . S
C407 H427 0.930 . S
C408 N404 1.362 . S
C408 C405 1.431 . S
C408 C418 1.476 . S
H409 C403 0.929 . S
C410 O401 1.250 . S
C410 O402 1.258 . S
O411 Mn396 2.162 . S
O411 C399 1.281 . S
O412 Mn396 2.297 . S
O412 C399 1.236 . S
N413 Mn397 2.282 . S
N413 C414 1.328 . S
N413 C418 1.318 . S
C414 N413 1.328 . S
C414 C415 1.457 . S
C414 H419 0.929 . S
C415 C414 1.457 . S
C415 C416 1.291 . S
C415 H428 0.931 . S
C416 C415 1.291 . S
C416 C417 1.373 . S
C416 H429 0.929 . S
C417 C416 1.373 . S
C417 C418 1.396 . S
C417 C424 1.403 . S
C418 C408 1.476 . S
C418 N413 1.318 . S
C418 C417 1.396 . S
H419 C414 0.929 . S
O420 Mn396 2.385 . S
O420 C398 1.234 . S
O421 Mn396 2.209 . S
O421 Mn397 2.215 . S
O421 C398 1.283 . S
O422 Mn396 2.094 . S
O422 C400 1.240 . S
O423 Mn397 2.117 . S
O423 C400 1.264 . S
C424 C417 1.403 . S
C424 C425 1.399 . S
C424 H430 0.929 . S
C425 C405 1.449 . S
C425 C424 1.399 . S
C425 H431 0.930 . S
H426 C406 0.931 . S
H427 C407 0.930 . S
H428 C415 0.931 . S
H429 C416 0.929 . S
H430 C424 0.929 . S
H431 C425 0.930 . S
H432 C440 0.929 . S
H433 C442 0.930 . S
H434 C444 0.930 . S
H435 C447 0.929 . S
H436 C450 0.930 . S
H437 C452 0.960 . S
H438 C452 0.960 . S
H439 C452 0.960 . S
C440 H432 0.929 . S
C440 C441 1.377 . S
C440 C442 1.384 . S
C441 C440 1.377 . S
C441 C447 1.390 . S
C442 H433 0.930 . S
C442 C440 1.384 . S
C442 C443 1.372 . S
C443 C442 1.372 . S
C443 C444 1.400 . S
C443 C448 1.490 . S
C444 H434 0.930 . S
C444 C443 1.400 . S
C444 C447 1.386 . S
H445 C461 0.930 . S
H446 C462 0.931 . S
C447 H435 0.929 . S
C447 C441 1.390 . S
C447 C444 1.386 . S
C448 C443 1.490 . S
C448 C450 1.395 . S
C448 C451 1.403 . S
H449 C455 0.930 . S
C450 H436 0.930 . S
C450 C448 1.395 . S
C450 C453 1.403 . S
C451 C448 1.403 . S
C451 C452 1.524 . S
C451 C455 1.400 . S
C452 H437 0.960 . S
C452 H438 0.960 . S
C452 H439 0.960 . S
C452 C451 1.524 . S
C453 C450 1.403 . S
C453 C454 1.392 . S
C453 C457 1.495 . S
C454 C453 1.392 . S
C454 C455 1.385 . S
C454 C456 1.478 . S
C455 H449 0.930 . S
C455 C451 1.400 . S
C455 C454 1.385 . S
C456 C454 1.478 . S
C456 C458 1.381 . S
C456 C462 1.383 . S
C457 C453 1.495 . S
C457 H463 0.959 . S
C457 H464 0.961 . S
C457 H465 0.960 . S
C458 C456 1.381 . S
C458 C459 1.394 . S
C458 H466 0.930 . S
C459 C458 1.394 . S
C459 C460 1.383 . S
C459 H467 0.929 . S
C460 C459 1.383 . S
C460 C461 1.377 . S
C461 H445 0.930 . S
C461 C460 1.377 . S
C461 C462 1.379 . S
C462 H446 0.931 . S
C462 C456 1.383 . S
C462 C461 1.379 . S
H463 C457 0.959 . S
H464 C457 0.961 . S
H465 C457 0.960 . S
H466 C458 0.930 . S
H467 C459 0.929 . S
H468 C476 0.929 . S
H469 C478 0.930 . S
H470 C480 0.930 . S
H471 C483 0.929 . S
H472 C486 0.930 . S
H473 C488 0.960 . S
H474 C488 0.960 . S
H475 C488 0.960 . S
C476 H468 0.929 . S
C476 C477 1.377 . S
C476 C478 1.384 . S
C477 C476 1.377 . S
C477 C483 1.390 . S
C478 H469 0.930 . S
C478 C476 1.384 . S
C478 C479 1.372 . S
C479 C478 1.372 . S
C479 C480 1.400 . S
C479 C484 1.490 . S
C480 H470 0.930 . S
C480 C479 1.400 . S
C480 C483 1.386 . S
H481 C497 0.930 . S
H482 C498 0.931 . S
C483 H471 0.929 . S
C483 C477 1.390 . S
C483 C480 1.386 . S
C484 C479 1.490 . S
C484 C486 1.395 . S
C484 C487 1.403 . S
H485 C491 0.930 . S
C486 H472 0.930 . S
C486 C484 1.395 . S
C486 C489 1.403 . S
C487 C484 1.403 . S
C487 C488 1.524 . S
C487 C491 1.400 . S
C488 H473 0.960 . S
C488 H474 0.960 . S
C488 H475 0.960 . S
C488 C487 1.524 . S
C489 C486 1.403 . S
C489 C490 1.392 . S
C489 C493 1.495 . S
C490 C489 1.392 . S
C490 C491 1.385 . S
C490 C492 1.478 . S
C491 H485 0.930 . S
C491 C487 1.400 . S
C491 C490 1.385 . S
C492 C490 1.478 . S
C492 C494 1.381 . S
C492 C498 1.383 . S
C493 C489 1.495 . S
C493 H499 0.959 . S
C493 H500 0.961 . S
C493 H501 0.960 . S
C494 C492 1.381 . S
C494 C495 1.394 . S
C494 H502 0.930 . S
C495 C494 1.394 . S
C495 C496 1.383 . S
C495 H503 0.929 . S
C496 C495 1.383 . S
C496 C497 1.377 . S
C497 H481 0.930 . S
C497 C496 1.377 . S
C497 C498 1.379 . S
C498 H482 0.931 . S
C498 C492 1.383 . S
C498 C497 1.379 . S
H499 C493 0.959 . S
H500 C493 0.961 . S
H501 C493 0.960 . S
H502 C494 0.930 . S
H503 C495 0.929 . S
H504 C512 0.929 . S
H505 C514 0.930 . S
H506 C516 0.930 . S
H507 C519 0.929 . S
H508 C522 0.930 . S
H509 C524 0.960 . S
H510 C524 0.960 . S
H511 C524 0.960 . S
C512 H504 0.929 . S
C512 C513 1.377 . S
C512 C514 1.384 . S
C513 C512 1.377 . S
C513 C519 1.390 . S
C514 H505 0.930 . S
C514 C512 1.384 . S
C514 C515 1.372 . S
C515 C514 1.372 . S
C515 C516 1.400 . S
C515 C520 1.490 . S
C516 H506 0.930 . S
C516 C515 1.400 . S
C516 C519 1.386 . S
H517 C533 0.930 . S
H518 C534 0.931 . S
C519 H507 0.929 . S
C519 C513 1.390 . S
C519 C516 1.386 . S
C520 C515 1.490 . S
C520 C522 1.395 . S
C520 C523 1.403 . S
H521 C527 0.930 . S
C522 H508 0.930 . S
C522 C520 1.395 . S
C522 C525 1.403 . S
C523 C520 1.403 . S
C523 C524 1.524 . S
C523 C527 1.400 . S
C524 H509 0.960 . S
C524 H510 0.960 . S
C524 H511 0.960 . S
C524 C523 1.524 . S
C525 C522 1.403 . S
C525 C526 1.392 . S
C525 C529 1.495 . S
C526 C525 1.392 . S
C526 C527 1.385 . S
C526 C528 1.478 . S
C527 H521 0.930 . S
C527 C523 1.400 . S
C527 C526 1.385 . S
C528 C526 1.478 . S
C528 C530 1.381 . S
C528 C534 1.383 . S
C529 C525 1.495 . S
C529 H535 0.959 . S
C529 H536 0.961 . S
C529 H537 0.960 . S
C530 C528 1.381 . S
C530 C531 1.394 . S
C530 H538 0.930 . S
C531 C530 1.394 . S
C531 C532 1.383 . S
C531 H539 0.929 . S
C532 C531 1.383 . S
C532 C533 1.377 . S
C533 H517 0.930 . S
C533 C532 1.377 . S
C533 C534 1.379 . S
C534 H518 0.931 . S
C534 C528 1.383 . S
C534 C533 1.379 . S
H535 C529 0.959 . S
H536 C529 0.961 . S
H537 C529 0.960 . S
H538 C530 0.930 . S
H539 C531 0.929 . S
H540 C548 0.929 . S
H541 C550 0.930 . S
H542 C552 0.930 . S
H543 C555 0.929 . S
H544 C558 0.930 . S
H545 C560 0.960 . S
H546 C560 0.960 . S
H547 C560 0.960 . S
C548 H540 0.929 . S
C548 C549 1.377 . S
C548 C550 1.384 . S
C549 C548 1.377 . S
C549 C555 1.390 . S
C550 H541 0.930 . S
C550 C548 1.384 . S
C550 C551 1.372 . S
C551 C550 1.372 . S
C551 C552 1.400 . S
C551 C556 1.490 . S
C552 H542 0.930 . S
C552 C551 1.400 . S
C552 C555 1.386 . S
H553 C569 0.930 . S
H554 C570 0.931 . S
C555 H543 0.929 . S
C555 C549 1.390 . S
C555 C552 1.386 . S
C556 C551 1.490 . S
C556 C558 1.395 . S
C556 C559 1.403 . S
H557 C563 0.930 . S
C558 H544 0.930 . S
C558 C556 1.395 . S
C558 C561 1.403 . S
C559 C556 1.403 . S
C559 C560 1.524 . S
C559 C563 1.400 . S
C560 H545 0.960 . S
C560 H546 0.960 . S
C560 H547 0.960 . S
C560 C559 1.524 . S
C561 C558 1.403 . S
C561 C562 1.392 . S
C561 C565 1.495 . S
C562 C561 1.392 . S
C562 C563 1.385 . S
C562 C564 1.478 . S
C563 H557 0.930 . S
C563 C559 1.400 . S
C563 C562 1.385 . S
C564 C562 1.478 . S
C564 C566 1.381 . S
C564 C570 1.383 . S
C565 C561 1.495 . S
C565 H571 0.959 . S
C565 H572 0.961 . S
C565 H573 0.960 . S
C566 C564 1.381 . S
C566 C567 1.394 . S
C566 H574 0.930 . S
C567 C566 1.394 . S
C567 C568 1.383 . S
C567 H575 0.929 . S
C568 C567 1.383 . S
C568 C569 1.377 . S
C569 H553 0.930 . S
C569 C568 1.377 . S
C569 C570 1.379 . S
C570 H554 0.931 . S
C570 C564 1.383 . S
C570 C569 1.379 . S
H571 C565 0.959 . S
H572 C565 0.961 . S
H573 C565 0.960 . S
H574 C566 0.930 . S
H575 C567 0.929 . S
H576 C584 0.929 . S
H577 C586 0.930 . S
H578 C588 0.930 . S
H579 C591 0.929 . S
H580 C594 0.930 1_554 S
H581 C596 0.960 . S
H582 C596 0.960 . S
H583 C596 0.960 . S
C584 H576 0.929 . S
C584 C585 1.377 . S
C584 C586 1.384 . S
C585 C584 1.377 . S
C585 C591 1.390 . S
C586 H577 0.930 . S
C586 C584 1.384 . S
C586 C587 1.372 . S
C587 C586 1.372 . S
C587 C588 1.400 . S
C587 C592 1.490 1_554 S
C588 H578 0.930 . S
C588 C587 1.400 . S
C588 C591 1.386 . S
H589 C605 0.930 . S
H590 C606 0.931 . S
C591 H579 0.929 . S
C591 C585 1.390 . S
C591 C588 1.386 . S
C592 C587 1.490 1_556 S
C592 C594 1.395 . S
C592 C595 1.403 . S
H593 C599 0.930 . S
C594 H580 0.930 1_556 S
C594 C592 1.395 . S
C594 C597 1.403 . S
C595 C592 1.403 . S
C595 C596 1.524 . S
C595 C599 1.400 . S
C596 H581 0.960 . S
C596 H582 0.960 . S
C596 H583 0.960 . S
C596 C595 1.524 . S
C597 C594 1.403 . S
C597 C598 1.392 . S
C597 C601 1.495 . S
C598 C597 1.392 . S
C598 C599 1.385 . S
C598 C600 1.478 . S
C599 H593 0.930 . S
C599 C595 1.400 . S
C599 C598 1.385 . S
C600 C598 1.478 . S
C600 C602 1.381 . S
C600 C606 1.383 . S
C601 C597 1.495 . S
C601 H607 0.959 . S
C601 H608 0.961 . S
C601 H609 0.960 . S
C602 C600 1.381 . S
C602 C603 1.394 . S
C602 H610 0.930 . S
C603 C602 1.394 . S
C603 C604 1.383 . S
C603 H611 0.929 . S
C604 C603 1.383 . S
C604 C605 1.377 . S
C605 H589 0.930 . S
C605 C604 1.377 . S
C605 C606 1.379 . S
C606 H590 0.931 . S
C606 C600 1.383 . S
C606 C605 1.379 . S
H607 C601 0.959 . S
H608 C601 0.961 . S
H609 C601 0.960 . S
H610 C602 0.930 . S
H611 C603 0.929 . S
H612 C620 0.929 . S
H613 C622 0.930 . S
H614 C624 0.930 . S
H615 C627 0.929 . S
H616 C630 0.930 . S
H617 C632 0.960 . S
H618 C632 0.960 . S
H619 C632 0.960 . S
C620 H612 0.929 . S
C620 C621 1.377 . S
C620 C622 1.384 . S
C621 C620 1.377 . S
C621 C627 1.390 . S
C622 H613 0.930 . S
C622 C620 1.384 . S
C622 C623 1.372 . S
C623 C622 1.372 . S
C623 C624 1.400 . S
C623 C628 1.490 . S
C624 H614 0.930 . S
C624 C623 1.400 . S
C624 C627 1.386 . S
H625 C641 0.930 . S
H626 C642 0.931 . S
C627 H615 0.929 . S
C627 C621 1.390 . S
C627 C624 1.386 . S
C628 C623 1.490 . S
C628 C630 1.395 . S
C628 C631 1.403 . S
H629 C635 0.930 . S
C630 H616 0.930 . S
C630 C628 1.395 . S
C630 C633 1.403 . S
C631 C628 1.403 . S
C631 C632 1.524 . S
C631 C635 1.400 . S
C632 H617 0.960 . S
C632 H618 0.960 . S
C632 H619 0.960 . S
C632 C631 1.524 . S
C633 C630 1.403 . S
C633 C634 1.392 . S
C633 C637 1.495 . S
C634 C633 1.392 . S
C634 C635 1.385 . S
C634 C636 1.478 . S
C635 H629 0.930 . S
C635 C631 1.400 . S
C635 C634 1.385 . S
C636 C634 1.478 . S
C636 C638 1.381 . S
C636 C642 1.383 . S
C637 C633 1.495 . S
C637 H643 0.959 . S
C637 H644 0.961 . S
C637 H645 0.960 . S
C638 C636 1.381 . S
C638 C639 1.394 . S
C638 H646 0.930 . S
C639 C638 1.394 . S
C639 C640 1.383 1_554 S
C639 H647 0.929 . S
C640 C639 1.383 1_556 S
C640 C641 1.377 . S
C641 H625 0.930 . S
C641 C640 1.377 . S
C641 C642 1.379 1_556 S
C642 H626 0.931 . S
C642 C636 1.383 . S
C642 C641 1.379 1_554 S
H643 C637 0.959 . S
H644 C637 0.961 . S
H645 C637 0.960 . S
H646 C638 0.930 . S
H647 C639 0.929 . S
H648 C656 0.929 . S
H649 C658 0.930 . S
H650 C660 0.930 . S
H651 C663 0.929 . S
H652 C666 0.930 . S
H653 C668 0.960 . S
H654 C668 0.960 . S
H655 C668 0.960 . S
C656 H648 0.929 . S
C656 C657 1.377 . S
C656 C658 1.384 . S
C657 C656 1.377 . S
C657 C663 1.390 . S
C658 H649 0.930 . S
C658 C656 1.384 . S
C658 C659 1.372 . S
C659 C658 1.372 . S
C659 C660 1.400 . S
C659 C664 1.490 . S
C660 H650 0.930 . S
C660 C659 1.400 . S
C660 C663 1.386 . S
H661 C677 0.930 . S
H662 C678 0.931 . S
C663 H651 0.929 . S
C663 C657 1.390 . S
C663 C660 1.386 . S
C664 C659 1.490 . S
C664 C666 1.395 . S
C664 C667 1.403 . S
H665 C671 0.930 . S
C666 H652 0.930 . S
C666 C664 1.395 . S
C666 C669 1.403 . S
C667 C664 1.403 . S
C667 C668 1.524 . S
C667 C671 1.400 . S
C668 H653 0.960 . S
C668 H654 0.960 . S
C668 H655 0.960 . S
C668 C667 1.524 . S
C669 C666 1.403 . S
C669 C670 1.392 . S
C669 C673 1.495 . S
C670 C669 1.392 . S
C670 C671 1.385 . S
C670 C672 1.478 . S
C671 H665 0.930 . S
C671 C667 1.400 . S
C671 C670 1.385 . S
C672 C670 1.478 . S
C672 C674 1.381 . S
C672 C678 1.383 . S
C673 C669 1.495 . S
C673 H679 0.959 . S
C673 H680 0.961 . S
C673 H681 0.960 . S
C674 C672 1.381 . S
C674 C675 1.394 . S
C674 H682 0.930 . S
C675 C674 1.394 . S
C675 C676 1.383 . S
C675 H683 0.929 . S
C676 C675 1.383 . S
C676 C677 1.377 . S
C677 H661 0.930 . S
C677 C676 1.377 . S
C677 C678 1.379 . S
C678 H662 0.931 . S
C678 C672 1.383 . S
C678 C677 1.379 . S
H679 C673 0.959 . S
H680 C673 0.961 . S
H681 C673 0.960 . S
H682 C674 0.930 . S
H683 C675 0.929 . S
H684 C692 0.929 . S
H685 C694 0.930 . S
H686 C696 0.930 . S
H687 C699 0.929 . S
H688 C702 0.930 . S
H689 C704 0.960 . S
H690 C704 0.960 . S
H691 C704 0.960 . S
C692 H684 0.929 . S
C692 C693 1.377 . S
C692 C694 1.384 . S
C693 C692 1.377 . S
C693 C699 1.390 . S
C694 H685 0.930 . S
C694 C692 1.384 . S
C694 C695 1.372 . S
C695 C694 1.372 . S
C695 C696 1.400 . S
C695 C700 1.490 . S
C696 H686 0.930 . S
C696 C695 1.400 . S
C696 C699 1.386 . S
H697 C713 0.930 . S
H698 C714 0.931 . S
C699 H687 0.929 . S
C699 C693 1.390 . S
C699 C696 1.386 . S
C700 C695 1.490 . S
C700 C702 1.395 . S
C700 C703 1.403 . S
H701 C707 0.930 . S
C702 H688 0.930 . S
C702 C700 1.395 . S
C702 C705 1.403 . S
C703 C700 1.403 . S
C703 C704 1.524 . S
C703 C707 1.400 . S
C704 H689 0.960 . S
C704 H690 0.960 . S
C704 H691 0.960 . S
C704 C703 1.524 . S
C705 C702 1.403 . S
C705 C706 1.392 . S
C705 C709 1.495 . S
C706 C705 1.392 . S
C706 C707 1.385 . S
C706 C708 1.478 . S
C707 H701 0.930 . S
C707 C703 1.400 . S
C707 C706 1.385 . S
C708 C706 1.478 . S
C708 C710 1.381 . S
C708 C714 1.383 . S
C709 C705 1.495 . S
C709 H715 0.959 . S
C709 H716 0.961 . S
C709 H717 0.960 . S
C710 C708 1.381 . S
C710 C711 1.394 . S
C710 H718 0.930 . S
C711 C710 1.394 . S
C711 C712 1.383 . S
C711 H719 0.929 . S
C712 C711 1.383 . S
C712 C713 1.377 . S
C713 H697 0.930 . S
C713 C712 1.377 . S
C713 C714 1.379 . S
C714 H698 0.931 . S
C714 C708 1.383 . S
C714 C713 1.379 . S
H715 C709 0.959 . S
H716 C709 0.961 . S
H717 C709 0.960 . S
H718 C710 0.930 . S
H719 C711 0.929 . S
H720 C728 0.929 . S
H721 C730 0.930 . S
H722 C732 0.930 . S
H723 C735 0.929 . S
H724 C738 0.930 . S
H725 C740 0.960 . S
H726 C740 0.960 . S
H727 C740 0.960 . S
C728 H720 0.929 . S
C728 C729 1.377 . S
C728 C730 1.384 . S
C729 C728 1.377 . S
C729 C735 1.390 . S
C730 H721 0.930 . S
C730 C728 1.384 . S
C730 C731 1.372 . S
C731 C730 1.372 . S
C731 C732 1.400 . S
C731 C736 1.490 . S
C732 H722 0.930 . S
C732 C731 1.400 . S
C732 C735 1.386 . S
H733 C749 0.930 . S
H734 C750 0.931 . S
C735 H723 0.929 . S
C735 C729 1.390 . S
C735 C732 1.386 . S
C736 C731 1.490 . S
C736 C738 1.395 . S
C736 C739 1.403 . S
H737 C743 0.930 . S
C738 H724 0.930 . S
C738 C736 1.395 . S
C738 C741 1.403 . S
C739 C736 1.403 . S
C739 C740 1.524 . S
C739 C743 1.400 . S
C740 H725 0.960 . S
C740 H726 0.960 . S
C740 H727 0.960 . S
C740 C739 1.524 . S
C741 C738 1.403 . S
C741 C742 1.392 . S
C741 C745 1.495 . S
C742 C741 1.392 . S
C742 C743 1.385 . S
C742 C744 1.478 . S
C743 H737 0.930 . S
C743 C739 1.400 . S
C743 C742 1.385 . S
C744 C742 1.478 . S
C744 C746 1.381 . S
C744 C750 1.383 . S
C745 C741 1.495 . S
C745 H751 0.959 . S
C745 H752 0.961 . S
C745 H753 0.960 . S
C746 C744 1.381 . S
C746 C747 1.394 . S
C746 H754 0.930 . S
C747 C746 1.394 . S
C747 C748 1.383 . S
C747 H755 0.929 . S
C748 C747 1.383 . S
C748 C749 1.377 . S
C749 H733 0.930 . S
C749 C748 1.377 . S
C749 C750 1.379 . S
C750 H734 0.931 . S
C750 C744 1.383 . S
C750 C749 1.379 . S
H751 C745 0.959 . S
H752 C745 0.961 . S
H753 C745 0.960 . S
H754 C746 0.930 . S
H755 C747 0.929 . S
H756 C764 0.929 . S
H757 C766 0.930 . S
H758 C768 0.930 . S
H759 C771 0.929 . S
H760 C774 0.930 . S
H761 C776 0.960 . S
H762 C776 0.960 . S
H763 C776 0.960 . S
C764 H756 0.929 . S
C764 C765 1.377 . S
C764 C766 1.384 . S
C765 C764 1.377 . S
C765 C771 1.390 . S
C766 H757 0.930 . S
C766 C764 1.384 . S
C766 C767 1.372 . S
C767 C766 1.372 . S
C767 C768 1.400 . S
C767 C772 1.490 . S
C768 H758 0.930 . S
C768 C767 1.400 . S
C768 C771 1.386 . S
H769 C785 0.930 . S
H770 C786 0.931 . S
C771 H759 0.929 . S
C771 C765 1.390 . S
C771 C768 1.386 . S
C772 C767 1.490 . S
C772 C774 1.395 . S
C772 C775 1.403 . S
H773 C779 0.930 . S
C774 H760 0.930 . S
C774 C772 1.395 . S
C774 C777 1.403 . S
C775 C772 1.403 . S
C775 C776 1.524 . S
C775 C779 1.400 . S
C776 H761 0.960 . S
C776 H762 0.960 . S
C776 H763 0.960 . S
C776 C775 1.524 . S
C777 C774 1.403 . S
C777 C778 1.392 . S
C777 C781 1.495 . S
C778 C777 1.392 . S
C778 C779 1.385 . S
C778 C780 1.478 . S
C779 H773 0.930 . S
C779 C775 1.400 . S
C779 C778 1.385 . S
C780 C778 1.478 . S
C780 C782 1.381 . S
C780 C786 1.383 . S
C781 C777 1.495 . S
C781 H787 0.959 . S
C781 H788 0.961 . S
C781 H789 0.960 . S
C782 C780 1.381 . S
C782 C783 1.394 . S
C782 H790 0.930 . S
C783 C782 1.394 . S
C783 C784 1.383 . S
C783 H791 0.929 . S
C784 C783 1.383 . S
C784 C785 1.377 . S
C785 H769 0.930 . S
C785 C784 1.377 . S
C785 C786 1.379 . S
C786 H770 0.931 . S
C786 C780 1.383 . S
C786 C785 1.379 . S
H787 C781 0.959 . S
H788 C781 0.961 . S
H789 C781 0.960 . S
H790 C782 0.930 . S
H791 C783 0.929 . S
H792 C800 0.929 . S
H793 C802 0.930 . S
H794 C804 0.930 . S
H795 C807 0.929 . S
H796 C810 0.930 . S
H797 C812 0.960 . S
H798 C812 0.960 . S
H799 C812 0.960 . S
C800 H792 0.929 . S
C800 C801 1.377 . S
C800 C802 1.384 . S
C801 C800 1.377 . S
C801 C807 1.390 . S
C802 H793 0.930 . S
C802 C800 1.384 . S
C802 C803 1.372 . S
C803 C802 1.372 . S
C803 C804 1.400 . S
C803 C808 1.490 . S
C804 H794 0.930 . S
C804 C803 1.400 . S
C804 C807 1.386 . S
H805 C821 0.930 . S
H806 C822 0.931 . S
C807 H795 0.929 . S
C807 C801 1.390 . S
C807 C804 1.386 . S
C808 C803 1.490 . S
C808 C810 1.395 . S
C808 C811 1.403 . S
H809 C815 0.930 . S
C810 H796 0.930 . S
C810 C808 1.395 . S
C810 C813 1.403 . S
C811 C808 1.403 . S
C811 C812 1.524 . S
C811 C815 1.400 . S
C812 H797 0.960 . S
C812 H798 0.960 . S
C812 H799 0.960 . S
C812 C811 1.524 . S
C813 C810 1.403 . S
C813 C814 1.392 . S
C813 C817 1.495 . S
C814 C813 1.392 . S
C814 C815 1.385 . S
C814 C816 1.478 . S
C815 H809 0.930 . S
C815 C811 1.400 . S
C815 C814 1.385 . S
C816 C814 1.478 . S
C816 C818 1.381 . S
C816 C822 1.383 . S
C817 C813 1.495 . S
C817 H823 0.959 . S
C817 H824 0.961 . S
C817 H825 0.960 . S
C818 C816 1.381 . S
C818 C819 1.394 . S
C818 H826 0.930 . S
C819 C818 1.394 . S
C819 C820 1.383 . S
C819 H827 0.929 . S
C820 C819 1.383 . S
C820 C821 1.377 . S
C821 H805 0.930 . S
C821 C820 1.377 . S
C821 C822 1.379 . S
C822 H806 0.931 . S
C822 C816 1.383 . S
C822 C821 1.379 . S
H823 C817 0.959 . S
H824 C817 0.961 . S
H825 C817 0.960 . S
H826 C818 0.930 . S
H827 C819 0.929 . S
H828 C836 0.929 . S
H829 C838 0.930 . S
H830 C840 0.930 . S
H831 C843 0.929 . S
H832 C846 0.930 . S
H833 C848 0.960 . S
H834 C848 0.960 . S
H835 C848 0.960 . S
C836 H828 0.929 . S
C836 C837 1.377 . S
C836 C838 1.384 . S
C837 C836 1.377 . S
C837 C843 1.390 . S
C838 H829 0.930 . S
C838 C836 1.384 . S
C838 C839 1.372 . S
C839 C838 1.372 . S
C839 C840 1.400 . S
C839 C844 1.490 . S
C840 H830 0.930 . S
C840 C839 1.400 . S
C840 C843 1.386 . S
H841 C857 0.930 . S
H842 C858 0.931 . S
C843 H831 0.929 . S
C843 C837 1.390 . S
C843 C840 1.386 . S
C844 C839 1.490 . S
C844 C846 1.395 . S
C844 C847 1.403 . S
H845 C851 0.930 . S
C846 H832 0.930 . S
C846 C844 1.395 . S
C846 C849 1.403 . S
C847 C844 1.403 . S
C847 C848 1.524 . S
C847 C851 1.400 . S
C848 H833 0.960 . S
C848 H834 0.960 . S
C848 H835 0.960 . S
C848 C847 1.524 . S
C849 C846 1.403 . S
C849 C850 1.392 . S
C849 C853 1.495 1_556 S
C850 C849 1.392 . S
C850 C851 1.385 . S
C850 C852 1.478 . S
C851 H845 0.930 . S
C851 C847 1.400 . S
C851 C850 1.385 . S
C852 C850 1.478 . S
C852 C854 1.381 . S
C852 C858 1.383 1_556 S
C853 C849 1.495 1_554 S
C853 H859 0.959 . S
C853 H860 0.961 . S
C853 H861 0.960 . S
C854 C852 1.381 . S
C854 C855 1.394 1_556 S
C854 H862 0.930 . S
C855 C854 1.394 1_554 S
C855 C856 1.383 . S
C855 H863 0.929 1_554 S
C856 C855 1.383 . S
C856 C857 1.377 . S
C857 H841 0.930 . S
C857 C856 1.377 . S
C857 C858 1.379 . S
C858 H842 0.931 . S
C858 C852 1.383 1_554 S
C858 C857 1.379 . S
H859 C853 0.959 . S
H860 C853 0.961 . S
H861 C853 0.960 . S
H862 C854 0.930 . S
H863 C855 0.929 1_556 S
H864 C872 0.929 . S
H865 C874 0.930 . S
H866 C876 0.930 . S
H867 C879 0.929 . S
H868 C882 0.930 . S
H869 C884 0.960 . S
H870 C884 0.960 . S
H871 C884 0.960 . S
C872 H864 0.929 . S
C872 C873 1.377 . S
C872 C874 1.384 . S
C873 C872 1.377 . S
C873 C879 1.390 . S
C874 H865 0.930 . S
C874 C872 1.384 . S
C874 C875 1.372 . S
C875 C874 1.372 . S
C875 C876 1.400 . S
C875 C880 1.490 . S
C876 H866 0.930 . S
C876 C875 1.400 . S
C876 C879 1.386 . S
H877 C893 0.930 . S
H878 C894 0.931 . S
C879 H867 0.929 . S
C879 C873 1.390 . S
C879 C876 1.386 . S
C880 C875 1.490 . S
C880 C882 1.395 . S
C880 C883 1.403 . S
H881 C887 0.930 . S
C882 H868 0.930 . S
C882 C880 1.395 . S
C882 C885 1.403 . S
C883 C880 1.403 . S
C883 C884 1.524 . S
C883 C887 1.400 . S
C884 H869 0.960 . S
C884 H870 0.960 . S
C884 H871 0.960 . S
C884 C883 1.524 . S
C885 C882 1.403 . S
C885 C886 1.392 . S
C885 C889 1.495 . S
C886 C885 1.392 . S
C886 C887 1.385 . S
C886 C888 1.478 . S
C887 H881 0.930 . S
C887 C883 1.400 . S
C887 C886 1.385 . S
C888 C886 1.478 . S
C888 C890 1.381 . S
C888 C894 1.383 . S
C889 C885 1.495 . S
C889 H895 0.959 . S
C889 H896 0.961 . S
C889 H897 0.960 . S
C890 C888 1.381 . S
C890 C891 1.394 . S
C890 H898 0.930 . S
C891 C890 1.394 . S
C891 C892 1.383 . S
C891 H899 0.929 . S
C892 C891 1.383 . S
C892 C893 1.377 . S
C893 H877 0.930 . S
C893 C892 1.377 . S
C893 C894 1.379 . S
C894 H878 0.931 . S
C894 C888 1.383 . S
C894 C893 1.379 . S
H895 C889 0.959 . S
H896 C889 0.961 . S
H897 C889 0.960 . S
H898 C890 0.930 . S
H899 C891 0.929 . S
H900 C908 0.929 . S
H901 C910 0.930 . S
H902 C912 0.930 . S
H903 C915 0.929 . S
H904 C918 0.930 . S
H905 C920 0.960 . S
H906 C920 0.960 . S
H907 C920 0.960 . S
C908 H900 0.929 . S
C908 C909 1.377 . S
C908 C910 1.384 . S
C909 C908 1.377 . S
C909 C915 1.390 . S
C910 H901 0.930 . S
C910 C908 1.384 . S
C910 C911 1.372 . S
C911 C910 1.372 . S
C911 C912 1.400 . S
C911 C916 1.490 . S
C912 H902 0.930 . S
C912 C911 1.400 . S
C912 C915 1.386 . S
H913 C929 0.930 . S
H914 C930 0.931 . S
C915 H903 0.929 . S
C915 C909 1.390 . S
C915 C912 1.386 . S
C916 C911 1.490 . S
C916 C918 1.395 . S
C916 C919 1.403 . S
H917 C923 0.930 . S
C918 H904 0.930 . S
C918 C916 1.395 . S
C918 C921 1.403 . S
C919 C916 1.403 . S
C919 C920 1.524 . S
C919 C923 1.400 . S
C920 H905 0.960 . S
C920 H906 0.960 . S
C920 H907 0.960 . S
C920 C919 1.524 . S
C921 C918 1.403 . S
C921 C922 1.381 1_556 S
C921 C925 1.495 1_556 S
C922 C921 1.381 1_554 S
C922 C923 1.372 1_554 S
C922 C924 1.503 . S
C923 H917 0.930 . S
C923 C919 1.400 . S
C923 C922 1.372 1_556 S
C924 C922 1.503 . S
C924 C926 1.381 . S
C924 C930 1.383 . S
C925 C921 1.495 1_554 S
C925 H931 0.959 1_554 S
C925 H932 0.961 . S
C925 H933 0.960 . S
C926 C924 1.381 . S
C926 C927 1.394 . S
C926 H934 0.930 . S
C927 C926 1.394 . S
C927 C928 1.383 . S
C927 H935 0.929 . S
C928 C927 1.383 . S
C928 C929 1.377 . S
C929 H913 0.930 . S
C929 C928 1.377 . S
C929 C930 1.379 . S
C930 H914 0.931 . S
C930 C924 1.383 . S
C930 C929 1.379 . S
H931 C925 0.959 1_556 S
H932 C925 0.961 . S
H933 C925 0.960 . S
H934 C926 0.930 . S
H935 C927 0.929 . S
H936 C944 0.929 . S
H937 C946 0.930 . S
H938 C948 0.930 . S
H939 C951 0.929 . S
H940 C954 0.930 . S
H941 C956 0.960 . S
H942 C956 0.960 . S
H943 C956 0.960 . S
C944 H936 0.929 . S
C944 C945 1.377 . S
C944 C946 1.384 1_556 S
C945 C944 1.377 . S
C945 C951 1.390 1_556 S
C946 H937 0.930 . S
C946 C944 1.384 1_554 S
C946 C947 1.372 . S
C947 C946 1.372 . S
C947 C948 1.400 . S
C947 C952 1.490 . S
C948 H938 0.930 . S
C948 C947 1.400 . S
C948 C951 1.386 . S
H949 C965 0.930 . S
H950 C966 0.931 . S
C951 H939 0.929 . S
C951 C945 1.390 1_554 S
C951 C948 1.386 . S
C952 C947 1.490 . S
C952 C954 1.395 . S
C952 C955 1.403 . S
H953 C959 0.930 . S
C954 H940 0.930 . S
C954 C952 1.395 . S
C954 C957 1.403 . S
C955 C952 1.403 . S
C955 C956 1.524 . S
C955 C959 1.400 . S
C956 H941 0.960 . S
C956 H942 0.960 . S
C956 H943 0.960 . S
C956 C955 1.524 . S
C957 C954 1.403 . S
C957 C958 1.392 . S
C957 C961 1.495 . S
C958 C957 1.392 . S
C958 C959 1.385 . S
C958 C960 1.478 . S
C959 H953 0.930 . S
C959 C955 1.400 . S
C959 C958 1.385 . S
C960 C958 1.478 . S
C960 C962 1.381 . S
C960 C966 1.383 . S
C961 C957 1.495 . S
C961 H967 0.959 . S
C961 H968 0.961 . S
C961 H969 0.960 . S
C962 C960 1.381 . S
C962 C963 1.394 . S
C962 H970 0.930 . S
C963 C962 1.394 . S
C963 C964 1.383 . S
C963 H971 0.929 . S
C964 C963 1.383 . S
C964 C965 1.377 . S
C965 H949 0.930 . S
C965 C964 1.377 . S
C965 C966 1.379 . S
C966 H950 0.931 . S
C966 C960 1.383 . S
C966 C965 1.379 . S
H967 C961 0.959 . S
H968 C961 0.961 . S
H969 C961 0.960 . S
H970 C962 0.930 . S
H971 C963 0.929 . S
H972 C980 0.929 . S
H973 C982 0.930 . S
H974 C984 0.930 . S
H975 C987 0.929 . S
H976 C990 0.930 . S
H977 C992 0.960 . S
H978 C992 0.960 . S
H979 C992 0.960 . S
C980 H972 0.929 . S
C980 C981 1.377 . S
C980 C982 1.384 . S
C981 C980 1.377 . S
C981 C987 1.390 . S
C982 H973 0.930 . S
C982 C980 1.384 . S
C982 C983 1.372 . S
C983 C982 1.372 . S
C983 C984 1.400 . S
C983 C988 1.490 . S
C984 H974 0.930 . S
C984 C983 1.400 . S
C984 C987 1.386 . S
H985 C1001 0.930 . S
H986 C1002 0.931 . S
C987 H975 0.929 . S
C987 C981 1.390 . S
C987 C984 1.386 . S
C988 C983 1.490 . S
C988 C990 1.395 . S
C988 C991 1.403 . S
H989 C995 0.930 . S
C990 H976 0.930 . S
C990 C988 1.395 . S
C990 C993 1.403 . S
C991 C988 1.403 . S
C991 C992 1.524 . S
C991 C995 1.400 . S
C992 H977 0.960 . S
C992 H978 0.960 . S
C992 H979 0.960 . S
C992 C991 1.524 . S
C993 C990 1.403 . S
C993 C994 1.392 . S
C993 C997 1.495 . S
C994 C993 1.392 . S
C994 C995 1.385 . S
C994 C996 1.478 . S
C995 H989 0.930 . S
C995 C991 1.400 . S
C995 C994 1.385 . S
C996 C994 1.478 . S
C996 C998 1.381 . S
C996 C1002 1.383 . S
C997 C993 1.495 . S
C997 H1003 0.959 . S
C997 H1004 0.961 . S
C997 H1005 0.960 . S
C998 C996 1.381 . S
C998 C999 1.394 . S
C998 H1006 0.930 . S
C999 C998 1.394 . S
C999 C1000 1.383 . S
C999 H1007 0.929 . S
C1000 C999 1.383 . S
C1000 C1001 1.377 . S
C1001 H985 0.930 . S
C1001 C1000 1.377 . S
C1001 C1002 1.379 . S
C1002 H986 0.931 . S
C1002 C996 1.383 . S
C1002 C1001 1.379 . S
H1003 C997 0.959 . S
H1004 C997 0.961 . S
H1005 C997 0.960 . S
H1006 C998 0.930 . S
H1007 C999 0.929 . S
H1008 C1016 0.929 . S
H1009 C1018 0.930 . S
H1010 C1020 0.930 . S
H1011 C1023 0.929 . S
H1012 C1026 0.930 . S
H1013 C1028 0.960 . S
H1014 C1028 0.960 . S
H1015 C1028 0.960 . S
C1016 H1008 0.929 . S
C1016 C1017 1.377 . S
C1016 C1018 1.384 . S
C1017 C1016 1.377 . S
C1017 C1023 1.390 . S
C1018 H1009 0.930 . S
C1018 C1016 1.384 . S
C1018 C1019 1.372 . S
C1019 C1018 1.372 . S
C1019 C1020 1.400 . S
C1019 C1024 1.490 . S
C1020 H1010 0.930 . S
C1020 C1019 1.400 . S
C1020 C1023 1.386 . S
H1021 C1037 0.930 . S
H1022 C1038 0.931 . S
C1023 H1011 0.929 . S
C1023 C1017 1.390 . S
C1023 C1020 1.386 . S
C1024 C1019 1.490 . S
C1024 C1026 1.395 . S
C1024 C1027 1.403 . S
H1025 C1031 0.930 . S
C1026 H1012 0.930 . S
C1026 C1024 1.395 . S
C1026 C1029 1.403 . S
C1027 C1024 1.403 . S
C1027 C1028 1.524 . S
C1027 C1031 1.400 . S
C1028 H1013 0.960 . S
C1028 H1014 0.960 . S
C1028 H1015 0.960 . S
C1028 C1027 1.524 . S
C1029 C1026 1.403 . S
C1029 C1030 1.392 . S
C1029 C1033 1.495 . S
C1030 C1029 1.392 . S
C1030 C1031 1.385 . S
C1030 C1032 1.478 . S
C1031 H1025 0.930 . S
C1031 C1027 1.400 . S
C1031 C1030 1.385 . S
C1032 C1030 1.478 . S
C1032 C1034 1.381 . S
C1032 C1038 1.383 . S
C1033 C1029 1.495 . S
C1033 H1039 0.959 . S
C1033 H1040 0.961 . S
C1033 H1041 0.960 . S
C1034 C1032 1.381 . S
C1034 C1035 1.394 . S
C1034 H1042 0.930 . S
C1035 C1034 1.394 . S
C1035 C1036 1.383 . S
C1035 H1043 0.929 . S
C1036 C1035 1.383 . S
C1036 C1037 1.377 . S
C1037 H1021 0.930 . S
C1037 C1036 1.377 . S
C1037 C1038 1.379 . S
C1038 H1022 0.931 . S
C1038 C1032 1.383 . S
C1038 C1037 1.379 . S
H1039 C1033 0.959 . S
H1040 C1033 0.961 . S
H1041 C1033 0.960 . S
H1042 C1034 0.930 . S
H1043 C1035 0.929 . S
H1044 C1052 0.929 . S
H1045 C1054 0.930 . S
H1046 C1056 0.930 . S
H1047 C1059 0.929 . S
H1048 C1062 0.930 . S
H1049 C1064 0.960 . S
H1050 C1064 0.960 . S
H1051 C1064 0.960 . S
C1052 H1044 0.929 . S
C1052 C1053 1.377 . S
C1052 C1054 1.384 . S
C1053 C1052 1.377 . S
C1053 C1059 1.390 . S
C1054 H1045 0.930 . S
C1054 C1052 1.384 . S
C1054 C1055 1.372 . S
C1055 C1054 1.372 . S
C1055 C1056 1.400 . S
C1055 C1060 1.490 . S
C1056 H1046 0.930 . S
C1056 C1055 1.400 . S
C1056 C1059 1.386 . S
H1057 C1073 0.930 . S
H1058 C1074 0.931 . S
C1059 H1047 0.929 . S
C1059 C1053 1.390 . S
C1059 C1056 1.386 . S
C1060 C1055 1.490 . S
C1060 C1062 1.395 . S
C1060 C1063 1.403 . S
H1061 C1067 0.930 . S
C1062 H1048 0.930 . S
C1062 C1060 1.395 . S
C1062 C1065 1.403 . S
C1063 C1060 1.403 . S
C1063 C1064 1.524 . S
C1063 C1067 1.400 . S
C1064 H1049 0.960 . S
C1064 H1050 0.960 . S
C1064 H1051 0.960 . S
C1064 C1063 1.524 . S
C1065 C1062 1.403 . S
C1065 C1066 1.392 . S
C1065 C1069 1.495 . S
C1066 C1065 1.392 . S
C1066 C1067 1.385 . S
C1066 C1068 1.478 . S
C1067 H1061 0.930 . S
C1067 C1063 1.400 . S
C1067 C1066 1.385 . S
C1068 C1066 1.478 . S
C1068 C1070 1.381 . S
C1068 C1074 1.383 . S
C1069 C1065 1.495 . S
C1069 H1075 0.959 . S
C1069 H1076 0.961 . S
C1069 H1077 0.960 . S
C1070 C1068 1.381 . S
C1070 C1071 1.394 . S
C1070 H1078 0.930 . S
C1071 C1070 1.394 . S
C1071 C1072 1.383 . S
C1071 H1079 0.929 . S
C1072 C1071 1.383 . S
C1072 C1073 1.377 . S
C1073 H1057 0.930 . S
C1073 C1072 1.377 . S
C1073 C1074 1.379 . S
C1074 H1058 0.931 . S
C1074 C1068 1.383 . S
C1074 C1073 1.379 . S
H1075 C1069 0.959 . S
H1076 C1069 0.961 . S
H1077 C1069 0.960 . S
H1078 C1070 0.930 . S
H1079 C1071 0.929 . S
H1080 C1088 0.929 . S
H1081 C1090 0.930 . S
H1082 C1092 0.930 . S
H1083 C1095 0.929 . S
H1084 C1098 0.930 . S
H1085 C1100 0.960 . S
H1086 C1100 0.960 . S
H1087 C1100 0.960 1_554 S
C1088 H1080 0.929 . S
C1088 C1089 1.377 . S
C1088 C1090 1.384 . S
C1089 C1088 1.377 . S
C1089 C1095 1.390 . S
C1090 H1081 0.930 . S
C1090 C1088 1.384 . S
C1090 C1091 1.372 . S
C1091 C1090 1.372 . S
C1091 C1092 1.400 . S
C1091 C1096 1.490 . S
C1092 H1082 0.930 . S
C1092 C1091 1.400 . S
C1092 C1095 1.386 . S
H1093 C1109 0.930 . S
H1094 C1110 0.931 . S
C1095 H1083 0.929 . S
C1095 C1089 1.390 . S
C1095 C1092 1.386 . S
C1096 C1091 1.490 . S
C1096 C1098 1.395 . S
C1096 C1099 1.403 . S
H1097 C1103 0.930 . S
C1098 H1084 0.930 . S
C1098 C1096 1.395 . S
C1098 C1101 1.403 1_545 S
C1099 C1096 1.403 . S
C1099 C1100 1.524 1_554 S
C1099 C1103 1.400 1_545 S
C1100 H1085 0.960 . S
C1100 H1086 0.960 . S
C1100 H1087 0.960 1_556 S
C1100 C1099 1.524 1_556 S
C1101 C1098 1.403 1_565 S
C1101 C1102 1.392 . S
C1101 C1105 1.495 . S
C1102 C1101 1.392 . S
C1102 C1103 1.385 . S
C1102 C1104 1.478 . S
C1103 H1097 0.930 . S
C1103 C1099 1.400 1_565 S
C1103 C1102 1.385 . S
C1104 C1102 1.478 . S
C1104 C1106 1.381 . S
C1104 C1110 1.383 . S
C1105 C1101 1.495 . S
C1105 H1111 0.959 . S
C1105 H1112 0.961 . S
C1105 H1113 0.960 . S
C1106 C1104 1.381 . S
C1106 C1107 1.394 . S
C1106 H1114 0.930 . S
C1107 C1106 1.394 . S
C1107 C1108 1.383 . S
C1107 H1115 0.929 . S
C1108 C1107 1.383 . S
C1108 C1109 1.377 . S
C1109 H1093 0.930 . S
C1109 C1108 1.377 . S
C1109 C1110 1.379 . S
C1110 H1094 0.931 . S
C1110 C1104 1.383 . S
C1110 C1109 1.379 . S
H1111 C1105 0.959 . S
H1112 C1105 0.961 . S
H1113 C1105 0.960 . S
H1114 C1106 0.930 . S
H1115 C1107 0.929 . S
H1116 C1124 0.929 . S
H1117 C1126 0.930 . S
H1118 C1128 0.930 . S
H1119 C1131 0.929 . S
H1120 C1134 0.930 . S
H1121 C1136 0.960 . S
H1122 C1136 0.960 . S
H1123 C1136 0.960 . S
C1124 H1116 0.929 . S
C1124 C1125 1.377 . S
C1124 C1126 1.384 . S
C1125 C1124 1.377 . S
C1125 C1131 1.390 . S
C1126 H1117 0.930 . S
C1126 C1124 1.384 . S
C1126 C1127 1.372 . S
C1127 C1126 1.372 . S
C1127 C1128 1.400 . S
C1127 C1132 1.490 . S
C1128 H1118 0.930 . S
C1128 C1127 1.400 . S
C1128 C1131 1.386 . S
H1129 C1145 0.930 . S
H1130 C1146 0.931 . S
C1131 H1119 0.929 . S
C1131 C1125 1.390 . S
C1131 C1128 1.386 . S
C1132 C1127 1.490 . S
C1132 C1134 1.395 . S
C1132 C1135 1.403 . S
H1133 C1139 0.930 . S
C1134 H1120 0.930 . S
C1134 C1132 1.395 . S
C1134 C1137 1.403 . S
C1135 C1132 1.403 . S
C1135 C1136 1.524 . S
C1135 C1139 1.400 . S
C1136 H1121 0.960 . S
C1136 H1122 0.960 . S
C1136 H1123 0.960 . S
C1136 C1135 1.524 . S
C1137 C1134 1.403 . S
C1137 C1138 1.392 . S
C1137 C1141 1.495 . S
C1138 C1137 1.392 . S
C1138 C1139 1.385 . S
C1138 C1140 1.478 . S
C1139 H1133 0.930 . S
C1139 C1135 1.400 . S
C1139 C1138 1.385 . S
C1140 C1138 1.478 . S
C1140 C1142 1.381 . S
C1140 C1146 1.383 . S
C1141 C1137 1.495 . S
C1141 H1147 0.959 . S
C1141 H1148 0.961 . S
C1141 H1149 0.960 . S
C1142 C1140 1.381 . S
C1142 C1143 1.394 . S
C1142 H1150 0.930 . S
C1143 C1142 1.394 . S
C1143 C1144 1.383 . S
C1143 H1151 0.929 . S
C1144 C1143 1.383 . S
C1144 C1145 1.377 . S
C1145 H1129 0.930 . S
C1145 C1144 1.377 . S
C1145 C1146 1.379 . S
C1146 H1130 0.931 . S
C1146 C1140 1.383 . S
C1146 C1145 1.379 . S
H1147 C1141 0.959 . S
H1148 C1141 0.961 . S
H1149 C1141 0.960 . S
H1150 C1142 0.930 . S
H1151 C1143 0.929 . S
H1152 C1160 0.929 . S
H1153 C1162 0.930 . S
H1154 C1164 0.930 . S
H1155 C1167 0.929 . S
H1156 C1170 0.930 . S
H1157 C1172 0.960 . S
H1158 C1172 0.960 . S
H1159 C1172 0.960 . S
C1160 H1152 0.929 . S
C1160 C1161 1.377 . S
C1160 C1162 1.384 . S
C1161 C1160 1.377 . S
C1161 C1167 1.390 . S
C1162 H1153 0.930 . S
C1162 C1160 1.384 . S
C1162 C1163 1.372 . S
C1163 C1162 1.372 . S
C1163 C1164 1.400 . S
C1163 C1168 1.490 . S
C1164 H1154 0.930 . S
C1164 C1163 1.400 . S
C1164 C1167 1.386 . S
H1165 C1181 0.930 . S
H1166 C1182 0.931 . S
C1167 H1155 0.929 . S
C1167 C1161 1.390 . S
C1167 C1164 1.386 . S
C1168 C1163 1.490 . S
C1168 C1170 1.395 . S
C1168 C1171 1.403 . S
H1169 C1175 0.930 . S
C1170 H1156 0.930 . S
C1170 C1168 1.395 . S
C1170 C1173 1.403 1_455 S
C1171 C1168 1.403 . S
C1171 C1172 1.524 . S
C1171 C1175 1.400 1_455 S
C1172 H1157 0.960 . S
C1172 H1158 0.960 . S
C1172 H1159 0.960 . S
C1172 C1171 1.524 . S
C1173 C1170 1.403 1_655 S
C1173 C1174 1.392 . S
C1173 C1177 1.495 . S
C1174 C1173 1.392 . S
C1174 C1175 1.385 . S
C1174 C1176 1.478 . S
C1175 H1169 0.930 . S
C1175 C1171 1.400 1_655 S
C1175 C1174 1.385 . S
C1176 C1174 1.478 . S
C1176 C1178 1.381 . S
C1176 C1182 1.383 . S
C1177 C1173 1.495 . S
C1177 H1183 0.959 . S
C1177 H1184 0.961 . S
C1177 H1185 0.960 . S
C1178 C1176 1.381 . S
C1178 C1179 1.394 . S
C1178 H1186 0.930 . S
C1179 C1178 1.394 . S
C1179 C1180 1.383 . S
C1179 H1187 0.929 . S
C1180 C1179 1.383 . S
C1180 C1181 1.377 . S
C1181 H1165 0.930 . S
C1181 C1180 1.377 . S
C1181 C1182 1.379 . S
C1182 H1166 0.931 . S
C1182 C1176 1.383 . S
C1182 C1181 1.379 . S
H1183 C1177 0.959 . S
H1184 C1177 0.961 . S
H1185 C1177 0.960 . S
H1186 C1178 0.930 . S
H1187 C1179 0.929 . S
H1188 C1196 0.929 . S
H1189 C1198 0.930 . S
H1190 C1200 0.930 . S
H1191 C1203 0.929 . S
H1192 C1206 0.930 . S
H1193 C1208 0.960 . S
H1194 C1208 0.960 . S
H1195 C1208 0.960 . S
C1196 H1188 0.929 . S
C1196 C1197 1.377 . S
C1196 C1198 1.384 . S
C1197 C1196 1.377 . S
C1197 C1203 1.390 . S
C1198 H1189 0.930 . S
C1198 C1196 1.384 . S
C1198 C1199 1.372 . S
C1199 C1198 1.372 . S
C1199 C1200 1.400 . S
C1199 C1204 1.490 . S
C1200 H1190 0.930 . S
C1200 C1199 1.400 . S
C1200 C1203 1.386 . S
H1201 C1217 0.930 . S
H1202 C1218 0.931 . S
C1203 H1191 0.929 . S
C1203 C1197 1.390 . S
C1203 C1200 1.386 . S
C1204 C1199 1.490 . S
C1204 C1206 1.395 . S
C1204 C1207 1.403 . S
H1205 C1211 0.930 . S
C1206 H1192 0.930 . S
C1206 C1204 1.395 . S
C1206 C1209 1.403 1_565 S
C1207 C1204 1.403 . S
C1207 C1208 1.524 . S
C1207 C1211 1.400 1_565 S
C1208 H1193 0.960 . S
C1208 H1194 0.960 . S
C1208 H1195 0.960 . S
C1208 C1207 1.524 . S
C1209 C1206 1.403 1_545 S
C1209 C1210 1.392 . S
C1209 C1213 1.495 . S
C1210 C1209 1.392 . S
C1210 C1211 1.385 . S
C1210 C1212 1.478 . S
C1211 H1205 0.930 . S
C1211 C1207 1.400 1_545 S
C1211 C1210 1.385 . S
C1212 C1210 1.478 . S
C1212 C1214 1.381 . S
C1212 C1218 1.383 . S
C1213 C1209 1.495 . S
C1213 H1219 0.959 . S
C1213 H1220 0.961 . S
C1213 H1221 0.960 . S
C1214 C1212 1.381 . S
C1214 C1215 1.394 . S
C1214 H1222 0.930 . S
C1215 C1214 1.394 . S
C1215 C1216 1.383 . S
C1215 H1223 0.929 . S
C1216 C1215 1.383 . S
C1216 C1217 1.377 . S
C1217 H1201 0.930 . S
C1217 C1216 1.377 . S
C1217 C1218 1.379 . S
C1218 H1202 0.931 . S
C1218 C1212 1.383 . S
C1218 C1217 1.379 . S
H1219 C1213 0.959 . S
H1220 C1213 0.961 . S
H1221 C1213 0.960 . S
H1222 C1214 0.930 . S
H1223 C1215 0.929 . S
H1224 C1232 0.929 . S
H1225 C1234 0.930 . S
H1226 C1236 0.930 . S
H1227 C1239 0.929 . S
H1228 C1242 0.930 . S
H1229 C1244 0.960 . S
H1230 C1244 0.960 . S
H1231 C1244 0.960 . S
C1232 H1224 0.929 . S
C1232 C1233 1.377 . S
C1232 C1234 1.384 . S
C1233 C1232 1.377 . S
C1233 C1239 1.390 . S
C1234 H1225 0.930 . S
C1234 C1232 1.384 . S
C1234 C1235 1.372 . S
C1235 C1234 1.372 . S
C1235 C1236 1.400 . S
C1235 C1240 1.490 . S
C1236 H1226 0.930 . S
C1236 C1235 1.400 . S
C1236 C1239 1.386 . S
H1237 C1253 0.930 . S
H1238 C1254 0.931 . S
C1239 H1227 0.929 . S
C1239 C1233 1.390 . S
C1239 C1236 1.386 . S
C1240 C1235 1.490 . S
C1240 C1242 1.395 . S
C1240 C1243 1.403 . S
H1241 C1247 0.930 . S
C1242 H1228 0.930 . S
C1242 C1240 1.395 . S
C1242 C1245 1.403 . S
C1243 C1240 1.403 . S
C1243 C1244 1.524 . S
C1243 C1247 1.400 . S
C1244 H1229 0.960 . S
C1244 H1230 0.960 . S
C1244 H1231 0.960 . S
C1244 C1243 1.524 . S
C1245 C1242 1.403 . S
C1245 C1246 1.392 . S
C1245 C1249 1.495 . S
C1246 C1245 1.392 . S
C1246 C1247 1.385 . S
C1246 C1248 1.478 . S
C1247 H1241 0.930 . S
C1247 C1243 1.400 . S
C1247 C1246 1.385 . S
C1248 C1246 1.478 . S
C1248 C1250 1.381 . S
C1248 C1254 1.383 . S
C1249 C1245 1.495 . S
C1249 H1255 0.959 . S
C1249 H1256 0.961 . S
C1249 H1257 0.960 . S
C1250 C1248 1.381 . S
C1250 C1251 1.394 . S
C1250 H1258 0.930 . S
C1251 C1250 1.394 . S
C1251 C1252 1.383 . S
C1251 H1259 0.929 . S
C1252 C1251 1.383 . S
C1252 C1253 1.377 . S
C1253 H1237 0.930 . S
C1253 C1252 1.377 . S
C1253 C1254 1.379 . S
C1254 H1238 0.931 . S
C1254 C1248 1.383 . S
C1254 C1253 1.379 . S
H1255 C1249 0.959 . S
H1256 C1249 0.961 . S
H1257 C1249 0.960 . S
H1258 C1250 0.930 . S
H1259 C1251 0.929 . S
H1260 C1268 0.929 . S
H1261 C1270 0.930 . S
H1262 C1272 0.930 . S
H1263 C1275 0.929 . S
H1264 C1278 0.930 . S
H1265 C1280 0.960 . S
H1266 C1280 0.960 . S
H1267 C1280 0.960 . S
C1268 H1260 0.929 . S
C1268 C1269 1.377 . S
C1268 C1270 1.384 . S
C1269 C1268 1.377 . S
C1269 C1275 1.390 . S
C1270 H1261 0.930 . S
C1270 C1268 1.384 . S
C1270 C1271 1.372 . S
C1271 C1270 1.372 . S
C1271 C1272 1.400 . S
C1271 C1276 1.490 . S
C1272 H1262 0.930 . S
C1272 C1271 1.400 . S
C1272 C1275 1.386 . S
H1273 C1289 0.930 . S
H1274 C1290 0.931 . S
C1275 H1263 0.929 . S
C1275 C1269 1.390 . S
C1275 C1272 1.386 . S
C1276 C1271 1.490 . S
C1276 C1278 1.395 . S
C1276 C1279 1.403 . S
H1277 C1283 0.930 . S
C1278 H1264 0.930 . S
C1278 C1276 1.395 . S
C1278 C1281 1.403 1_455 S
C1279 C1276 1.403 . S
C1279 C1280 1.524 . S
C1279 C1283 1.400 1_455 S
C1280 H1265 0.960 . S
C1280 H1266 0.960 . S
C1280 H1267 0.960 . S
C1280 C1279 1.524 . S
C1281 C1278 1.403 1_655 S
C1281 C1282 1.392 . S
C1281 C1285 1.495 . S
C1282 C1281 1.392 . S
C1282 C1283 1.385 . S
C1282 C1284 1.478 . S
C1283 H1277 0.930 . S
C1283 C1279 1.400 1_655 S
C1283 C1282 1.385 . S
C1284 C1282 1.478 . S
C1284 C1286 1.381 . S
C1284 C1290 1.383 . S
C1285 C1281 1.495 . S
C1285 H1291 0.959 . S
C1285 H1292 0.961 . S
C1285 H1293 0.960 . S
C1286 C1284 1.381 . S
C1286 C1287 1.394 . S
C1286 H1294 0.930 . S
C1287 C1286 1.394 . S
C1287 C1288 1.383 . S
C1287 H1295 0.929 . S
C1288 C1287 1.383 . S
C1288 C1289 1.377 . S
C1289 H1273 0.930 . S
C1289 C1288 1.377 . S
C1289 C1290 1.379 . S
C1290 H1274 0.931 . S
C1290 C1284 1.383 . S
C1290 C1289 1.379 . S
H1291 C1285 0.959 . S
H1292 C1285 0.961 . S
H1293 C1285 0.960 . S
H1294 C1286 0.930 . S
H1295 C1287 0.929 . S
C441 C2 1.108 . S
C460 C362 1.098 . S
C477 C38 1.108 . S
C496 C398 1.096 . S
C513 C218 1.110 . S
C532 C74 1.106 . S
C549 C110 1.113 . S
C568 C254 1.125 . S
C585 C290 1.106 . S
C604 C146 1.091 . S
C621 C326 1.111 . S
C640 C182 1.114 . S
C657 C291 1.206 . S
C676 C3 1.211 . S
C693 C39 1.205 . S
C712 C327 1.212 . S
C729 C363 1.203 . S
C748 C75 1.198 . S
C765 C111 1.206 . S
C784 C399 1.211 . S
C801 C147 1.204 . S
C820 C219 1.206 . S
C837 C183 1.206 . S
C856 C255 1.213 . S
C873 C374 1.490 . S
C892 C14 1.487 . S
C909 C410 1.495 . S
C928 C50 1.517 . S
C945 C230 1.500 . S
C964 C86 1.487 . S
C981 C122 1.501 . S
C1000 C266 1.496 . S
C1017 C158 1.502 . S
C1036 C302 1.502 . S
C1053 C338 1.492 . S
C1072 C194 1.502 . S
C1089 C4 1.242 . S
C1108 C256 1.226 . S
C1125 C292 1.240 . S
C1144 C40 1.263 . S
C1161 C328 1.239 . S
C1180 C76 1.264 . S
C1197 C112 1.241 . S
C1216 C364 1.262 . S
C1233 C148 1.238 . S
C1252 C400 1.247 . S
C1269 C184 1.239 . S
C1288 C220 1.242 . S
