# Generated by pormake.
# Topology uol, (4)-cn, num edge types: 1
# Building blocks:
#     Node 0, Type 0, BuildingBlock: ICAMEG_clean_sbu_1, # of connection points: 4
#     Node 1, Type 0, BuildingBlock: ICAMEG_clean_sbu_1, # of connection points: 4
#     Node 2, Type 0, BuildingBlock: ICAMEG_clean_sbu_1, # of connection points: 4
#     Node 3, Type 0, BuildingBlock: ICAMEG_clean_sbu_1, # of connection points: 4
#     Node 4, Type 0, BuildingBlock: ICAMEG_clean_sbu_1, # of connection points: 4
#     Node 5, Type 0, BuildingBlock: ICAMEG_clean_sbu_1, # of connection points: 4
#     Node 6, Type 0, BuildingBlock: ICAMEG_clean_sbu_1, # of connection points: 4
#     Node 7, Type 0, BuildingBlock: ICAMEG_clean_sbu_1, # of connection points: 4
#     Node 8, Type 0, BuildingBlock: ICAMEG_clean_sbu_1, # of connection points: 4
#     Node 9, Type 0, BuildingBlock: ICAMEG_clean_sbu_1, # of connection points: 4
#     Node 10, Type 0, BuildingBlock: ICAMEG_clean_sbu_1, # of connection points: 4
#     Node 11, Type 0, BuildingBlock: ICAMEG_clean_sbu_1, # of connection points: 4
#     Edge 12, Type (0, 0), BuildingBlock: MIFKUJ_clean_linker_0, # of connection points: 2
#     Edge 13, Type (0, 0), BuildingBlock: MIFKUJ_clean_linker_0, # of connection points: 2
#     Edge 14, Type (0, 0), BuildingBlock: MIFKUJ_clean_linker_0, # of connection points: 2
#     Edge 15, Type (0, 0), BuildingBlock: MIFKUJ_clean_linker_0, # of connection points: 2
#     Edge 16, Type (0, 0), BuildingBlock: MIFKUJ_clean_linker_0, # of connection points: 2
#     Edge 17, Type (0, 0), BuildingBlock: MIFKUJ_clean_linker_0, # of connection points: 2
#     Edge 18, Type (0, 0), BuildingBlock: MIFKUJ_clean_linker_0, # of connection points: 2
#     Edge 19, Type (0, 0), BuildingBlock: MIFKUJ_clean_linker_0, # of connection points: 2
#     Edge 20, Type (0, 0), BuildingBlock: MIFKUJ_clean_linker_0, # of connection points: 2
#     Edge 21, Type (0, 0), BuildingBlock: MIFKUJ_clean_linker_0, # of connection points: 2
#     Edge 22, Type (0, 0), BuildingBlock: MIFKUJ_clean_linker_0, # of connection points: 2
#     Edge 23, Type (0, 0), BuildingBlock: MIFKUJ_clean_linker_0, # of connection points: 2
#     Edge 24, Type (0, 0), BuildingBlock: MIFKUJ_clean_linker_0, # of connection points: 2
#     Edge 25, Type (0, 0), BuildingBlock: MIFKUJ_clean_linker_0, # of connection points: 2
#     Edge 26, Type (0, 0), BuildingBlock: MIFKUJ_clean_linker_0, # of connection points: 2
#     Edge 27, Type (0, 0), BuildingBlock: MIFKUJ_clean_linker_0, # of connection points: 2
#     Edge 28, Type (0, 0), BuildingBlock: MIFKUJ_clean_linker_0, # of connection points: 2
#     Edge 29, Type (0, 0), BuildingBlock: MIFKUJ_clean_linker_0, # of connection points: 2
#     Edge 30, Type (0, 0), BuildingBlock: MIFKUJ_clean_linker_0, # of connection points: 2
#     Edge 31, Type (0, 0), BuildingBlock: MIFKUJ_clean_linker_0, # of connection points: 2
#     Edge 32, Type (0, 0), BuildingBlock: MIFKUJ_clean_linker_0, # of connection points: 2
#     Edge 33, Type (0, 0), BuildingBlock: MIFKUJ_clean_linker_0, # of connection points: 2
#     Edge 34, Type (0, 0), BuildingBlock: MIFKUJ_clean_linker_0, # of connection points: 2
#     Edge 35, Type (0, 0), BuildingBlock: MIFKUJ_clean_linker_0, # of connection points: 2
# Relax obj value: 0.052
# Max RMSD: 0.107
# Mean RMSD: 0.107
data_MOF--net-uol--node1-ICAMEG_clean_sbu_1--edge1-MIFKUJ_clean_linker_0
_symmetry_space_group_name_H-M    P1
_symmetry_Int_Tables_number       1
_symmetry_cell_setting            triclinic
loop_
_symmetry_equiv_pos_as_xyz
'x, y, z'
_cell_length_a     44.893871
_cell_length_b     44.900628
_cell_length_c     91.439277
_cell_angle_alpha  90.002244
_cell_angle_beta   89.992106
_cell_angle_gamma 120.00698
loop_
_atom_site_label
_atom_site_type_symbol
_atom_site_fract_x
_atom_site_fract_y
_atom_site_fract_z
_atom_type_partial_charge
Co0 Co 0.07425 0.297 0.11628 0.0
Co1 Co 0.14718 0.37465 0.12425 0.0
O2 O 0.09735 0.34471 0.12291 0.0
C3 C 0.04837 0.29405 0.14615 0.0
O4 O 0.08008 0.31674 0.14973 0.0
C5 C 0.12423 0.41089 0.10435 0.0
O6 O 0.10591 0.38144 0.09756 0.0
O7 O 0.15431 0.36048 0.10449 0.0
O8 O 0.10705 0.30963 0.09959 0.0
H9 H 0.27074 0.40452 0.1203 0.0
H10 H 0.03388 0.33172 0.12163 0.0
O11 O 0.04107 0.28326 0.13302 0.0
H12 H 0.01498 0.29783 0.06967 0.0
H13 H 0.97108 0.18108 0.10578 0.0
H14 H 0.09776 0.25015 0.1052 0.0
H15 H 0.05114 0.28368 0.08519 0.0
H16 H 0.00082 0.24178 0.11366 0.0
O17 O 0.14275 0.41294 0.11528 0.0
H18 H 0.20786 0.36644 0.11883 0.0
H19 H 0.19246 0.4482 0.13243 0.0
H20 H 0.0691 0.18956 0.09731 0.0
H21 H 0.99727 0.34615 0.10656 0.0
H22 H 0.00531 0.15463 0.09747 0.0
H23 H 0.98774 0.32928 0.08036 0.0
O24 O 0.10457 0.2866 0.12851 0.0
H25 H 0.09109 0.41402 0.16108 0.0
H26 H 0.17909 0.38043 0.15348 0.0
H27 H 0.16983 0.39616 0.17823 0.0
H28 H 0.12557 0.41312 0.18214 0.0
H29 H 0.101 0.39784 0.13654 0.0
H30 H 0.25519 0.48726 0.13393 0.0
H31 H 0.29479 0.46541 0.12789 0.0
O32 O 0.15242 0.33697 0.13315 0.0
C33 C 0.13693 0.33431 0.09634 0.0
C34 C 0.25376 0.41432 0.123 0.0
C35 C 0.24503 0.46077 0.13063 0.0
N36 N 0.19652 0.40504 0.12562 0.0
C37 C 0.21813 0.39286 0.12222 0.0
C38 C 0.20953 0.43856 0.12972 0.0
C39 C 0.26723 0.44849 0.12724 0.0
C40 C 0.02959 0.32403 0.11028 0.0
N41 N 0.04455 0.30681 0.1043 0.0
C42 C 0.00895 0.33238 0.10178 0.0
C43 C 0.00365 0.32295 0.08708 0.0
C44 C 0.01894 0.30533 0.08107 0.0
C45 C 0.03947 0.29747 0.0899 0.0
C46 C 0.99889 0.19608 0.10558 0.0
C47 C 0.06998 0.23517 0.10525 0.0
C48 C 0.01586 0.23043 0.11005 0.0
N49 N 0.05096 0.24955 0.10976 0.0
C50 C 0.0539 0.20086 0.10077 0.0
C51 C 0.01811 0.18126 0.10092 0.0
C52 C 0.13448 0.30429 0.13408 0.0
C53 C 0.11053 0.40679 0.15951 0.0
C54 C 0.15976 0.38775 0.1551 0.0
C55 C 0.15467 0.39669 0.16913 0.0
C56 C 0.12985 0.40622 0.17132 0.0
N57 N 0.14072 0.38839 0.14357 0.0
C58 C 0.11637 0.39775 0.14562 0.0
Co59 Co 0.78138 0.07177 0.28159 0.0
Co60 Co 0.77405 0.14254 0.29099 0.0
O61 O 0.75534 0.09311 0.28855 0.0
C62 C 0.75637 0.04234 0.31075 0.0
O63 O 0.76387 0.07334 0.31481 0.0
C64 C 0.71628 0.12183 0.27042 0.0
O65 O 0.72965 0.10708 0.26248 0.0
O66 O 0.79647 0.15243 0.27137 0.0
O67 O 0.80213 0.10669 0.26567 0.0
H68 H 0.86558 0.26729 0.28956 0.0
H69 H 0.70601 0.02956 0.28585 0.0
O70 O 0.76146 0.03658 0.29761 0.0
H71 H 0.72551 0.01732 0.23366 0.0
H72 H 0.79774 0.97168 0.26907 0.0
H73 H 0.85275 0.09806 0.27117 0.0
H74 H 0.77436 0.05243 0.25006 0.0
H75 H 0.76508 0.99926 0.27748 0.0
O76 O 0.73108 0.13773 0.28212 0.0
H77 H 0.84235 0.2049 0.28672 0.0
H78 H 0.74362 0.18528 0.30023 0.0
H79 H 0.88635 0.07157 0.26276 0.0
H80 H 0.6564 0.99395 0.26988 0.0
H81 H 0.85881 0.00795 0.26158 0.0
H82 H 0.66601 0.98775 0.24357 0.0
O83 O 0.82091 0.10118 0.29456 0.0
H84 H 0.67715 0.08052 0.32678 0.0
H85 H 0.79834 0.17123 0.32084 0.0
H86 H 0.77221 0.15852 0.34542 0.0
H87 H 0.71118 0.11286 0.3485 0.0
H88 H 0.70438 0.09381 0.30243 0.0
H89 H 0.76572 0.2475 0.3031 0.0
H90 H 0.82715 0.28897 0.2978 0.0
O91 O 0.81705 0.14798 0.29989 0.0
C92 C 0.80664 0.13657 0.26298 0.0
C93 C 0.83879 0.24948 0.29194 0.0
C94 C 0.78273 0.23837 0.29952 0.0
N95 N 0.79172 0.19147 0.29339 0.0
C96 C 0.8255 0.21411 0.29039 0.0
C97 C 0.77034 0.20318 0.29784 0.0
C98 C 0.8172 0.26162 0.29655 0.0
C99 C 0.71039 0.02675 0.27444 0.0
N100 N 0.74302 0.04296 0.26889 0.0
C101 C 0.68221 0.00665 0.26544 0.0
C102 C 0.68762 0.00322 0.25067 0.0
C103 C 0.72099 0.01982 0.24511 0.0
C104 C 0.74854 0.03975 0.25443 0.0
C105 C 0.80999 0.99943 0.26947 0.0
C106 C 0.84052 0.07035 0.27063 0.0
C107 C 0.79164 0.01518 0.27424 0.0
N108 N 0.80691 0.05022 0.27469 0.0
C109 C 0.8597 0.0555 0.26587 0.0
C110 C 0.84425 0.0198 0.26526 0.0
C111 C 0.83227 0.13048 0.3006 0.0
C112 C 0.70373 0.10054 0.32557 0.0
C113 C 0.77178 0.1513 0.32209 0.0
C114 C 0.75711 0.14426 0.33603 0.0
C115 C 0.72286 0.11866 0.33776 0.0
N116 N 0.75286 0.13339 0.31019 0.0
C117 C 0.71924 0.10831 0.31179 0.0
Co118 Co 0.70748 0.77717 0.4498 0.0
Co119 Co 0.62942 0.77288 0.45632 0.0
O120 O 0.65903 0.75251 0.45551 0.0
C121 C 0.70698 0.75175 0.47956 0.0
O122 O 0.68419 0.76083 0.48286 0.0
C123 C 0.59469 0.71387 0.43616 0.0
O124 O 0.62498 0.723 0.43057 0.0
O125 O 0.64577 0.79499 0.43688 0.0
O126 O 0.69719 0.79913 0.43303 0.0
H127 H 0.60178 0.86798 0.4517 0.0
H128 H 0.67196 0.70168 0.45413 0.0
O129 O 0.71897 0.75602 0.46661 0.0
H130 H 0.7107 0.72051 0.40277 0.0
H131 H 0.82374 0.78901 0.44134 0.0
H132 H 0.75622 0.84818 0.43997 0.0
H133 H 0.72352 0.76967 0.41882 0.0
H134 H 0.76224 0.75817 0.44802 0.0
O135 O 0.5917 0.73119 0.44651 0.0
H136 H 0.63922 0.84237 0.45094 0.0
H137 H 0.55524 0.74523 0.46318 0.0
H138 H 0.81759 0.87994 0.43314 0.0
H139 H 0.65881 0.65178 0.4385 0.0
H140 H 0.85178 0.85031 0.4338 0.0
H141 H 0.67813 0.66105 0.41261 0.0
O142 O 0.71695 0.8169 0.4625 0.0
H143 H 0.58411 0.6748 0.49206 0.0
H144 H 0.62095 0.79748 0.48549 0.0
H145 H 0.6018 0.77084 0.5098 0.0
H146 H 0.58316 0.70906 0.5132 0.0
H147 H 0.6038 0.70255 0.46797 0.0
H148 H 0.51682 0.76972 0.46396 0.0
H149 H 0.5401 0.83155 0.45825 0.0
O150 O 0.66646 0.81496 0.46603 0.0
C151 C 0.67287 0.80446 0.42928 0.0
C152 C 0.59136 0.84103 0.45426 0.0
C153 C 0.54367 0.78587 0.46112 0.0
N154 N 0.59949 0.79243 0.45713 0.0
C155 C 0.61246 0.82642 0.45389 0.0
C156 C 0.56553 0.77214 0.46063 0.0
C157 C 0.55675 0.82057 0.45792 0.0
C158 C 0.68075 0.70592 0.44291 0.0
N159 N 0.69858 0.73854 0.4374 0.0
C160 C 0.67311 0.67757 0.4341 0.0
C161 C 0.6839 0.68279 0.41957 0.0
C162 C 0.70215 0.71614 0.41404 0.0
C163 C 0.70926 0.74387 0.42316 0.0
C164 C 0.8091 0.80217 0.44098 0.0
C165 C 0.77088 0.83505 0.44018 0.0
C166 C 0.77429 0.78486 0.44476 0.0
N167 N 0.75561 0.80129 0.44425 0.0
C168 C 0.80564 0.85319 0.43635 0.0
C169 C 0.82481 0.83656 0.43674 0.0
C170 C 0.69892 0.82906 0.46776 0.0
C171 C 0.59208 0.70172 0.49071 0.0
C172 C 0.61297 0.77061 0.48689 0.0
C173 C 0.60208 0.75564 0.50067 0.0
C174 C 0.5916 0.72097 0.50257 0.0
N175 N 0.61332 0.75154 0.4753 0.0
C176 C 0.6031 0.71754 0.47708 0.0
Co177 Co 0.923 0.69909 0.61546 0.0
Co178 Co 0.85 0.62398 0.6258 0.0
O179 O 0.89952 0.65229 0.62303 0.0
C180 C 0.95241 0.7053 0.64478 0.0
O181 O 0.92058 0.68649 0.64935 0.0
C182 C 0.86695 0.58431 0.60517 0.0
O183 O 0.88266 0.61243 0.59728 0.0
O184 O 0.84031 0.63676 0.60619 0.0
O185 O 0.88788 0.686 0.5997 0.0
H186 H 0.72738 0.59809 0.62546 0.0
H187 H 0.96122 0.66187 0.62015 0.0
O188 O 0.9585 0.71295 0.63127 0.0
H189 H 0.97327 0.69003 0.56758 0.0
H190 H 0.02744 0.81127 0.60157 0.0
H191 H 0.90076 0.747 0.60442 0.0
H192 H 0.94147 0.70832 0.58381 0.0
H193 H 0.9967 0.75159 0.61076 0.0
O194 O 0.85186 0.58404 0.61702 0.0
H195 H 0.79003 0.63416 0.62199 0.0
H196 H 0.80434 0.55167 0.63553 0.0
H197 H 0.93044 0.80662 0.59524 0.0
H198 H 0.99338 0.64321 0.60434 0.0
H199 H 0.99422 0.83911 0.59368 0.0
H200 H 0.99948 0.65721 0.57784 0.0
O201 O 0.89553 0.71251 0.62821 0.0
H202 H 0.90996 0.58638 0.66143 0.0
H203 H 0.82316 0.62224 0.6558 0.0
H204 H 0.83586 0.60881 0.68038 0.0
H205 H 0.87955 0.59073 0.68331 0.0
H206 H 0.89665 0.60028 0.63707 0.0
H207 H 0.74175 0.51457 0.63904 0.0
H208 H 0.70284 0.5378 0.63404 0.0
O209 O 0.84772 0.66345 0.63448 0.0
C210 C 0.85707 0.6619 0.59744 0.0
C211 C 0.74407 0.58768 0.6277 0.0
C212 C 0.75214 0.5408 0.6353 0.0
N213 N 0.80082 0.59508 0.62862 0.0
C214 C 0.77958 0.60801 0.62579 0.0
C215 C 0.78753 0.56189 0.63326 0.0
C216 C 0.73032 0.55385 0.63251 0.0
C217 C 0.96402 0.6683 0.60865 0.0
N218 N 0.94958 0.68624 0.60291 0.0
C219 C 0.98216 0.65757 0.59974 0.0
C220 C 0.98552 0.66539 0.58487 0.0
C221 C 0.9708 0.68379 0.57911 0.0
C222 C 0.95277 0.69401 0.58834 0.0
C223 C 0.99963 0.79733 0.60214 0.0
C224 C 0.92852 0.76092 0.60373 0.0
C225 C 0.9821 0.76356 0.60735 0.0
N226 N 0.94698 0.74576 0.60801 0.0
C227 C 0.94518 0.79469 0.59853 0.0
C228 C 0.98098 0.81293 0.5977 0.0
C229 C 0.86638 0.69614 0.63459 0.0
C230 C 0.8908 0.59412 0.66029 0.0
C231 C 0.8422 0.61439 0.65698 0.0
C232 C 0.84925 0.60677 0.67093 0.0
C233 C 0.87376 0.59662 0.67256 0.0
N234 N 0.859 0.61185 0.645 0.0
C235 C 0.88304 0.60188 0.64652 0.0
Co236 Co 0.2161 0.93134 0.77888 0.0
Co237 Co 0.227 0.86255 0.7877 0.0
O238 O 0.24382 0.91167 0.78559 0.0
C239 C 0.24132 0.96174 0.80786 0.0
O240 O 0.23345 0.93075 0.8121 0.0
C241 C 0.28621 0.88516 0.76762 0.0
O242 O 0.27197 0.8978 0.75894 0.0
O243 O 0.2062 0.85301 0.76775 0.0
O244 O 0.19508 0.89577 0.76325 0.0
H245 H 0.14008 0.73652 0.78441 0.0
H246 H 0.2915 0.97615 0.78222 0.0
O247 O 0.23632 0.96713 0.79464 0.0
H248 H 0.26763 0.98412 0.73016 0.0
H249 H 0.19571 0.02891 0.76647 0.0
H250 H 0.14377 0.9029 0.7693 0.0
H251 H 0.22039 0.94849 0.74718 0.0
H252 H 0.23011 0.00301 0.7746 0.0
O253 O 0.27142 0.8699 0.77943 0.0
H254 H 0.16071 0.79862 0.78225 0.0
H255 H 0.25971 0.82204 0.79716 0.0
H256 H 0.10851 0.92769 0.76099 0.0
H257 H 0.33951 0.01231 0.7656 0.0
H258 H 0.13448 0.99114 0.75954 0.0
H259 H 0.32769 0.01639 0.73936 0.0
O260 O 0.17781 0.90145 0.79227 0.0
H261 H 0.3203 0.92613 0.82483 0.0
H262 H 0.2016 0.83141 0.81713 0.0
H263 H 0.22592 0.84374 0.84203 0.0
H264 H 0.28571 0.8914 0.846 0.0
H265 H 0.29483 0.91318 0.80013 0.0
H266 H 0.24027 0.76022 0.79932 0.0
H267 H 0.18 0.71698 0.79298 0.0
O268 O 0.1825 0.85453 0.79616 0.0
C269 C 0.19342 0.86738 0.7599 0.0
C270 C 0.16636 0.75511 0.78725 0.0
C271 C 0.2226 0.76841 0.79561 0.0
N272 N 0.21127 0.81391 0.78969 0.0
C273 C 0.17815 0.7903 0.7861 0.0
C274 C 0.23348 0.80338 0.79433 0.0
C275 C 0.18878 0.74417 0.79205 0.0
C276 C 0.28615 0.97806 0.77084 0.0
N277 N 0.2532 0.96044 0.76569 0.0
C278 C 0.31344 0.99846 0.76147 0.0
C279 C 0.30679 0.0007 0.74674 0.0
C280 C 0.2731 0.98259 0.74157 0.0
C281 C 0.24647 0.96242 0.75126 0.0
C282 C 0.18412 0.00123 0.76702 0.0
C283 C 0.15532 0.93053 0.76859 0.0
C284 C 0.20346 0.98642 0.77164 0.0
N285 N 0.18903 0.95149 0.77229 0.0
C286 C 0.13519 0.94442 0.76393 0.0
C287 C 0.14977 0.98002 0.76313 0.0
C288 C 0.16685 0.87151 0.79761 0.0
C289 C 0.29425 0.90524 0.82323 0.0
C290 C 0.22758 0.85226 0.81877 0.0
C291 C 0.24125 0.85906 0.83289 0.0
C292 C 0.27481 0.88578 0.83511 0.0
N293 N 0.24679 0.8715 0.80718 0.0
C294 C 0.27975 0.89768 0.80926 0.0
Co295 Co 0.28685 0.22338 0.94696 0.0
Co296 Co 0.36394 0.22597 0.9541 0.0
O297 O 0.33475 0.24684 0.95351 0.0
C298 C 0.2846 0.24443 0.97732 0.0
O299 O 0.30729 0.23515 0.98052 0.0
C300 C 0.40095 0.28731 0.93522 0.0
O301 O 0.37114 0.27988 0.92959 0.0
O302 O 0.34887 0.20593 0.93422 0.0
O303 O 0.2987 0.20403 0.92971 0.0
H304 H 0.39035 0.13028 0.94824 0.0
H305 H 0.32221 0.29799 0.9535 0.0
O306 O 0.27376 0.24189 0.96424 0.0
H307 H 0.28878 0.28784 0.90158 0.0
H308 H 0.17201 0.21412 0.9376 0.0
H309 H 0.23885 0.15436 0.93487 0.0
H310 H 0.27413 0.23609 0.91618 0.0
H311 H 0.23266 0.24318 0.94551 0.0
O312 O 0.40279 0.26838 0.94514 0.0
H313 H 0.35361 0.15668 0.94767 0.0
H314 H 0.43747 0.25204 0.96174 0.0
H315 H 0.17836 0.12443 0.92673 0.0
H316 H 0.33714 0.35041 0.93935 0.0
H317 H 0.14451 0.15435 0.92807 0.0
H318 H 0.3205 0.34552 0.91318 0.0
O319 O 0.27578 0.18148 0.95852 0.0
H320 H 0.40695 0.32013 0.99168 0.0
H321 H 0.36995 0.19812 0.98287 0.0
H322 H 0.3871 0.222 0.00773 0.0
H323 H 0.40581 0.28345 0.01225 0.0
H324 H 0.38923 0.29509 0.96703 0.0
H325 H 0.4752 0.22676 0.96235 0.0
H326 H 0.45163 0.16541 0.95562 0.0
O327 O 0.32588 0.18323 0.96293 0.0
C328 C 0.32287 0.19832 0.92614 0.0
C329 C 0.40089 0.15701 0.95124 0.0
C330 C 0.44853 0.21117 0.95914 0.0
N331 N 0.39332 0.20578 0.95476 0.0
C332 C 0.38019 0.17207 0.95098 0.0
C333 C 0.42706 0.22537 0.95874 0.0
C334 C 0.43528 0.17674 0.95537 0.0
C335 C 0.31459 0.29564 0.94216 0.0
N336 N 0.29723 0.26403 0.93568 0.0
C337 C 0.32323 0.32542 0.93419 0.0
C338 C 0.31394 0.32266 0.9195 0.0
C339 C 0.29617 0.29031 0.91298 0.0
C340 C 0.28802 0.2611 0.92128 0.0
C341 C 0.1865 0.20083 0.93693 0.0
C342 C 0.22435 0.16762 0.93539 0.0
C343 C 0.22083 0.21714 0.94142 0.0
N344 N 0.23933 0.20057 0.94053 0.0
C345 C 0.19008 0.15051 0.93081 0.0
C346 C 0.1711 0.1673 0.93158 0.0
C347 C 0.29322 0.16876 0.96389 0.0
C348 C 0.39895 0.29335 0.98984 0.0
C349 C 0.37798 0.22485 0.98476 0.0
C350 C 0.38773 0.23825 0.99885 0.0
C351 C 0.39825 0.27274 0.00138 0.0
N352 N 0.37875 0.24524 0.9735 0.0
C353 C 0.38904 0.27907 0.97589 0.0
Co354 Co 0.70269 0.92047 0.71628 0.0
Co355 Co 0.62461 0.84759 0.70927 0.0
O356 O 0.65431 0.89744 0.71065 0.0
C357 C 0.70204 0.94975 0.68758 0.0
O358 O 0.67925 0.91842 0.68357 0.0
C359 C 0.58815 0.86903 0.72978 0.0
O360 O 0.61677 0.88469 0.73738 0.0
O361 O 0.63927 0.84071 0.72895 0.0
O362 O 0.69256 0.88578 0.73197 0.0
H363 H 0.59496 0.7242 0.71356 0.0
H364 H 0.66653 0.96029 0.71423 0.0
O365 O 0.71414 0.95562 0.70053 0.0
H366 H 0.70582 0.97268 0.76539 0.0
H367 H 0.81901 0.02347 0.72636 0.0
H368 H 0.75154 0.89684 0.72415 0.0
H369 H 0.719 0.93932 0.74773 0.0
H370 H 0.75742 0.99383 0.71985 0.0
O371 O 0.5865 0.85217 0.71831 0.0
H372 H 0.63292 0.78711 0.71494 0.0
H373 H 0.55106 0.80214 0.70113 0.0
H374 H 0.813 0.92538 0.73074 0.0
H375 H 0.65291 0.99402 0.73151 0.0
H376 H 0.84716 0.98917 0.7319 0.0
H377 H 0.67255 0.00031 0.7573 0.0
O378 O 0.71201 0.8923 0.7023 0.0
H379 H 0.58346 0.90274 0.67275 0.0
H380 H 0.61866 0.81585 0.67997 0.0
H381 H 0.60221 0.82482 0.65533 0.0
H382 H 0.58442 0.86851 0.6516 0.0
H383 H 0.60048 0.89323 0.69717 0.0
H384 H 0.51212 0.73937 0.6997 0.0
H385 H 0.53408 0.69995 0.70589 0.0
O386 O 0.66223 0.84234 0.70013 0.0
C387 C 0.66746 0.85689 0.73603 0.0
C388 C 0.58512 0.74111 0.71078 0.0
C389 C 0.53862 0.74962 0.70302 0.0
N390 N 0.5943 0.79825 0.70798 0.0
C391 C 0.60652 0.77675 0.7115 0.0
C392 C 0.56076 0.78513 0.70387 0.0
C393 C 0.55096 0.72752 0.70649 0.0
C394 C 0.67543 0.96319 0.72541 0.0
N395 N 0.6937 0.94804 0.72995 0.0
C396 C 0.66753 0.9822 0.73515 0.0
C397 C 0.67851 0.98568 0.74963 0.0
C398 C 0.69717 0.97016 0.75417 0.0
C399 C 0.70451 0.95127 0.74413 0.0
C400 C 0.80437 0.99567 0.72594 0.0
C401 C 0.76618 0.9246 0.72472 0.0
C402 C 0.76951 0.97876 0.72225 0.0
N403 N 0.75086 0.94365 0.72176 0.0
C404 C 0.80099 0.94061 0.72842 0.0
C405 C 0.82015 0.9764 0.72905 0.0
C406 C 0.69431 0.86157 0.69759 0.0
C407 C 0.59106 0.88355 0.67424 0.0
C408 C 0.61105 0.83498 0.67843 0.0
C409 C 0.60168 0.83988 0.66446 0.0
C410 C 0.59167 0.86438 0.66238 0.0
N411 N 0.61042 0.85391 0.69001 0.0
C412 C 0.60056 0.87792 0.68806 0.0
Co413 Co 0.78091 0.70449 0.88347 0.0
Co414 Co 0.77842 0.62707 0.87781 0.0
O415 O 0.75755 0.65621 0.87765 0.0
C416 C 0.75768 0.70453 0.85329 0.0
O417 O 0.76942 0.68382 0.84997 0.0
C418 C 0.71696 0.59133 0.89649 0.0
O419 O 0.7263 0.62137 0.9024 0.0
O420 O 0.79724 0.64261 0.8978 0.0
O421 O 0.80235 0.69475 0.90064 0.0
H422 H 0.873 0.5999 0.88598 0.0
H423 H 0.70565 0.66732 0.8783 0.0
O424 O 0.76003 0.71533 0.86635 0.0
H425 H 0.72043 0.70593 0.92962 0.0
H426 H 0.78916 0.8193 0.89152 0.0
H427 H 0.85084 0.75431 0.89414 0.0
H428 H 0.7709 0.7201 0.9142 0.0
H429 H 0.76014 0.75799 0.88462 0.0
O430 O 0.73516 0.58864 0.88645 0.0
H431 H 0.84696 0.63697 0.88557 0.0
H432 H 0.7525 0.55343 0.87054 0.0
H433 H 0.88076 0.81551 0.90126 0.0
H434 H 0.65446 0.65282 0.89329 0.0
H435 H 0.84987 0.84841 0.89997 0.0
H436 H 0.66169 0.67205 0.91917 0.0
O437 O 0.82178 0.71481 0.87128 0.0
H438 H 0.68701 0.58365 0.83898 0.0
H439 H 0.80833 0.62073 0.84966 0.0
H440 H 0.78628 0.60336 0.82456 0.0
H441 H 0.72519 0.58461 0.8191 0.0
H442 H 0.71023 0.60159 0.86389 0.0
H443 H 0.77741 0.51535 0.8709 0.0
H444 H 0.83812 0.5386 0.87861 0.0
O445 O 0.82203 0.66495 0.86936 0.0
C446 C 0.8067 0.6702 0.90504 0.0
C447 C 0.84656 0.5895 0.88255 0.0
C448 C 0.79289 0.54203 0.8741 0.0
N449 N 0.79837 0.59746 0.87792 0.0
C450 C 0.83172 0.61039 0.88225 0.0
C451 C 0.77891 0.5637 0.87395 0.0
C452 C 0.82696 0.5551 0.87843 0.0
C453 C 0.709 0.67608 0.88951 0.0
N454 N 0.74122 0.6946 0.89536 0.0
C455 C 0.67992 0.66767 0.89796 0.0
C456 C 0.684 0.67842 0.91249 0.0
C457 C 0.71695 0.6974 0.91836 0.0
C458 C 0.74543 0.70526 0.90959 0.0
C459 C 0.80287 0.80522 0.89216 0.0
C460 C 0.83717 0.76841 0.89364 0.0
C461 C 0.7866 0.77052 0.88824 0.0
N462 N 0.80371 0.75255 0.88909 0.0
C463 C 0.85427 0.80308 0.89764 0.0
C464 C 0.83693 0.82153 0.8969 0.0
C465 C 0.8355 0.69723 0.86717 0.0
C466 C 0.71365 0.59167 0.84123 0.0
C467 C 0.78174 0.61267 0.84736 0.0
C468 C 0.76938 0.60279 0.83314 0.0
C469 C 0.7351 0.59226 0.83008 0.0
N470 N 0.76053 0.61199 0.85824 0.0
C471 C 0.72689 0.60169 0.85533 0.0
Co472 Co 0.07527 0.78398 0.05216 0.0
Co473 Co 0.14883 0.78154 0.04297 0.0
O474 O 0.09894 0.76064 0.04467 0.0
C475 C 0.04712 0.76098 0.02258 0.0
O476 O 0.07865 0.77083 0.01837 0.0
C477 C 0.1279 0.72108 0.06184 0.0
O478 O 0.11039 0.73181 0.06952 0.0
O479 O 0.1561 0.80069 0.06315 0.0
O480 O 0.10913 0.80444 0.06847 0.0
H481 H 0.27184 0.8762 0.04745 0.0
H482 H 0.03672 0.70893 0.04657 0.0
O483 O 0.04085 0.76412 0.0359 0.0
H484 H 0.0205 0.72178 0.09906 0.0
H485 H 0.97101 0.79293 0.06511 0.0
H486 H 0.0978 0.85357 0.06391 0.0
H487 H 0.05401 0.77283 0.08352 0.0
H488 H 0.00152 0.76372 0.05598 0.0
O489 O 0.14535 0.73826 0.0508 0.0
H490 H 0.20887 0.85018 0.0494 0.0
H491 H 0.19486 0.75547 0.03305 0.0
H492 H 0.06835 0.8837 0.07315 0.0
H493 H 0.00285 0.65715 0.06167 0.0
H494 H 0.0045 0.85332 0.07384 0.0
H495 H 0.99468 0.66342 0.08813 0.0
O496 O 0.10389 0.82521 0.03982 0.0
H497 H 0.09344 0.68974 0.00456 0.0
H498 H 0.17957 0.81115 0.01392 0.0
H499 H 0.17008 0.78885 0.98869 0.0
H500 H 0.12677 0.72772 0.98388 0.0
H501 H 0.10349 0.71318 0.02961 0.0
H502 H 0.25769 0.78038 0.03102 0.0
H503 H 0.29663 0.84121 0.0382 0.0
O504 O 0.15299 0.82498 0.03519 0.0
C505 C 0.13893 0.80923 0.07157 0.0
C506 C 0.25514 0.8497 0.04424 0.0
C507 C 0.2472 0.79591 0.03504 0.0
N508 N 0.19823 0.80145 0.04124 0.0
C509 C 0.21947 0.83486 0.04528 0.0
C510 C 0.21165 0.78193 0.03624 0.0
C511 C 0.26903 0.83004 0.03907 0.0
C512 C 0.03301 0.71186 0.05805 0.0
N513 N 0.04729 0.74386 0.06416 0.0
C514 C 0.01391 0.68245 0.06655 0.0
C515 C 0.00938 0.68598 0.0814 0.0
C516 C 0.02389 0.71872 0.08754 0.0
C517 C 0.04291 0.74754 0.07871 0.0
C518 C 0.99884 0.80641 0.06491 0.0
C519 C 0.07 0.84011 0.06425 0.0
C520 C 0.01625 0.79003 0.05973 0.0
N521 N 0.05139 0.80684 0.05953 0.0
C522 C 0.05348 0.85733 0.06947 0.0
C523 C 0.01765 0.84029 0.06982 0.0
C524 C 0.13406 0.83866 0.03437 0.0
C525 C 0.11246 0.71639 0.00652 0.0
C526 C 0.16063 0.78454 0.01192 0.0
C527 C 0.15542 0.77204 0.99761 0.0
C528 C 0.13113 0.73773 0.99492 0.0
N529 N 0.14221 0.76344 0.02324 0.0
C530 C 0.11839 0.72976 0.02069 0.0
Co531 Co 0.29511 0.07746 0.21823 0.0
Co532 Co 0.37273 0.14927 0.20956 0.0
O533 O 0.34267 0.09968 0.21148 0.0
C534 C 0.29151 0.04742 0.18929 0.0
O535 O 0.31338 0.07878 0.18495 0.0
C536 C 0.41093 0.12856 0.22938 0.0
O537 O 0.38322 0.11387 0.23758 0.0
O538 O 0.36057 0.15743 0.22954 0.0
O539 O 0.30759 0.11284 0.23383 0.0
H540 H 0.40442 0.27334 0.21331 0.0
H541 H 0.32999 0.03659 0.21494 0.0
O542 O 0.28141 0.04175 0.20254 0.0
H543 H 0.29851 0.02753 0.26708 0.0
H544 H 0.18019 0.97533 0.23095 0.0
H545 H 0.24775 0.10184 0.22768 0.0
H546 H 0.28318 0.06022 0.24998 0.0
H547 H 0.24063 0.00444 0.22272 0.0
O548 O 0.41147 0.14447 0.21777 0.0
H549 H 0.36605 0.21063 0.21547 0.0
H550 H 0.44541 0.19351 0.19994 0.0
H551 H 0.18749 0.07383 0.23607 0.0
H552 H 0.34569 0.00348 0.23165 0.0
H553 H 0.15329 0.01012 0.23775 0.0
H554 H 0.33002 0.9989 0.25794 0.0
O555 O 0.28438 0.10561 0.20477 0.0
H556 H 0.40795 0.09094 0.17205 0.0
H557 H 0.37586 0.17984 0.18025 0.0
H558 H 0.38906 0.16927 0.15525 0.0
H559 H 0.40526 0.12455 0.15103 0.0
H560 H 0.39423 0.10211 0.19685 0.0
H561 H 0.48475 0.25607 0.19771 0.0
H562 H 0.46425 0.29643 0.20437 0.0
O563 O 0.33449 0.15466 0.20133 0.0
C564 C 0.33333 0.14189 0.23728 0.0
C565 C 0.41362 0.25601 0.21033 0.0
C566 C 0.45872 0.24632 0.20159 0.0
N567 N 0.40339 0.19845 0.2077 0.0
C568 C 0.39198 0.22048 0.21149 0.0
C569 C 0.43635 0.21093 0.20289 0.0
C570 C 0.44719 0.26895 0.20532 0.0
C571 C 0.32277 0.03439 0.22633 0.0
N572 N 0.30551 0.05012 0.23146 0.0
C573 C 0.33185 0.01574 0.23576 0.0
C574 C 0.32309 0.01322 0.25051 0.0
C575 C 0.30543 0.02929 0.25565 0.0
C576 C 0.29685 0.04779 0.24591 0.0
C577 C 0.19485 0.00311 0.2303 0.0
C578 C 0.23309 0.07412 0.22848 0.0
C579 C 0.22905 0.01972 0.22563 0.0
N580 N 0.24776 0.0548 0.22486 0.0
C581 C 0.19896 0.0584 0.23319 0.0
C582 C 0.17978 0.02265 0.23412 0.0
C583 C 0.302 0.13604 0.19969 0.0
C584 C 0.40103 0.11057 0.17376 0.0
C585 C 0.38282 0.16029 0.1785 0.0
C586 C 0.39034 0.15447 0.16433 0.0
C587 C 0.39946 0.1294 0.16197 0.0
N588 N 0.38442 0.14172 0.19001 0.0
C589 C 0.3934 0.11713 0.18779 0.0
Co590 Co 0.22018 0.29211 0.38431 0.0
Co591 Co 0.22295 0.36954 0.37871 0.0
O592 O 0.24393 0.34053 0.37874 0.0
C593 C 0.2444 0.29214 0.35441 0.0
O594 O 0.23054 0.3108 0.35074 0.0
C595 C 0.28386 0.40538 0.39764 0.0
O596 O 0.2745 0.37539 0.40361 0.0
O597 O 0.20395 0.35398 0.39869 0.0
O598 O 0.19698 0.30102 0.40102 0.0
H599 H 0.12781 0.39605 0.38644 0.0
H600 H 0.2959 0.32909 0.38039 0.0
O601 O 0.24287 0.28229 0.3676 0.0
H602 H 0.27618 0.28972 0.43166 0.0
H603 H 0.21173 0.17726 0.39252 0.0
H604 H 0.14919 0.24153 0.39358 0.0
H605 H 0.22724 0.27612 0.41535 0.0
H606 H 0.24121 0.23888 0.38608 0.0
O607 O 0.2659 0.40798 0.38747 0.0
H608 H 0.15416 0.35924 0.3862 0.0
H609 H 0.24871 0.44317 0.37145 0.0
H610 H 0.11876 0.18002 0.40017 0.0
H611 H 0.34558 0.34299 0.39628 0.0
H612 H 0.15009 0.14747 0.39968 0.0
H613 H 0.33586 0.32337 0.42213 0.0
O614 O 0.18041 0.2821 0.37154 0.0
H615 H 0.31523 0.41293 0.34026 0.0
H616 H 0.1938 0.37637 0.35042 0.0
H617 H 0.21652 0.39402 0.32542 0.0
H618 H 0.27766 0.41249 0.32022 0.0
H619 H 0.29137 0.39481 0.36507 0.0
H620 H 0.22348 0.48098 0.37164 0.0
H621 H 0.16257 0.4574 0.37912 0.0
O622 O 0.17962 0.33168 0.37003 0.0
C623 C 0.19332 0.32583 0.40564 0.0
C624 C 0.15434 0.40659 0.38311 0.0
C625 C 0.20805 0.45428 0.37482 0.0
N626 N 0.20282 0.39898 0.37869 0.0
C627 C 0.16936 0.38585 0.38291 0.0
C628 C 0.22221 0.43277 0.37476 0.0
C629 C 0.17387 0.44102 0.37902 0.0
C630 C 0.29146 0.32012 0.39158 0.0
N631 N 0.25872 0.30168 0.39691 0.0
C632 C 0.31969 0.32821 0.40054 0.0
C633 C 0.31422 0.31724 0.41506 0.0
C634 C 0.28074 0.29839 0.42041 0.0
C635 C 0.25313 0.29083 0.41113 0.0
C636 C 0.19783 0.19119 0.39282 0.0
C637 C 0.16306 0.22759 0.39344 0.0
C638 C 0.21438 0.22606 0.38917 0.0
N639 N 0.19702 0.24384 0.38961 0.0
C640 C 0.14566 0.19275 0.39714 0.0
C641 C 0.16325 0.1745 0.39684 0.0
C642 C 0.1666 0.2996 0.36747 0.0
C643 C 0.28857 0.40503 0.3424 0.0
C644 C 0.22041 0.38433 0.34824 0.0
C645 C 0.23315 0.39435 0.33407 0.0
C646 C 0.26746 0.40473 0.33115 0.0
N647 N 0.24129 0.38474 0.35921 0.0
C648 C 0.27495 0.39488 0.35644 0.0
Co649 Co 0.92724 0.21545 0.55363 0.0
Co650 Co 0.85687 0.22228 0.54328 0.0
O651 O 0.9061 0.24079 0.54578 0.0
C652 C 0.95578 0.23523 0.52405 0.0
O653 O 0.92391 0.22338 0.51978 0.0
C654 C 0.8777 0.2817 0.56284 0.0
O655 O 0.89228 0.26881 0.57117 0.0
O656 O 0.84702 0.20203 0.5633 0.0
O657 O 0.89223 0.19599 0.56959 0.0
H658 H 0.73174 0.13203 0.5458 0.0
H659 H 0.96977 0.2904 0.54814 0.0
O660 O 0.96239 0.23438 0.53755 0.0
H661 H 0.98112 0.27577 0.60092 0.0
H662 H 0.02786 0.20118 0.56754 0.0
H663 H 0.90137 0.14534 0.56559 0.0
H664 H 0.94602 0.22546 0.58523 0.0
H665 H 0.99985 0.23248 0.55796 0.0
O666 O 0.86214 0.26628 0.55117 0.0
H667 H 0.79409 0.15488 0.54865 0.0
H668 H 0.81467 0.25229 0.5328 0.0
H669 H 0.92829 0.11319 0.57535 0.0
H670 H 0.00539 0.34141 0.5634 0.0
H671 H 0.99199 0.14114 0.57637 0.0
H672 H 0.01115 0.33426 0.59 0.0
O673 O 0.89762 0.17447 0.54133 0.0
H674 H 0.92018 0.31466 0.50576 0.0
H675 H 0.82766 0.19504 0.51378 0.0
H676 H 0.84072 0.21835 0.4887 0.0
H677 H 0.88731 0.27857 0.48457 0.0
H678 H 0.90639 0.29027 0.53065 0.0
H679 H 0.75251 0.23059 0.52992 0.0
H680 H 0.71059 0.17001 0.53639 0.0
O681 O 0.85094 0.17818 0.53546 0.0
C682 C 0.86249 0.19212 0.57206 0.0
C683 C 0.74976 0.15844 0.5429 0.0
C684 C 0.76141 0.21377 0.534 0.0
N685 N 0.80799 0.20479 0.54079 0.0
C686 C 0.7851 0.17149 0.54444 0.0
C687 C 0.79657 0.22593 0.53568 0.0
C688 C 0.7379 0.17977 0.53763 0.0
C689 C 0.9724 0.28707 0.55969 0.0
N690 N 0.95597 0.25499 0.56578 0.0
C691 C 0.9925 0.31605 0.56828 0.0
C692 C 0.99568 0.31202 0.58321 0.0
C693 C 0.97883 0.27921 0.58935 0.0
C694 C 0.95892 0.25083 0.58042 0.0
C695 C 9e-05 0.18875 0.56718 0.0
C696 C 0.9291 0.15774 0.56609 0.0
C697 C 0.98409 0.20631 0.56174 0.0
N698 N 0.94903 0.19082 0.56133 0.0
C699 C 0.9442 0.13938 0.57158 0.0
C700 C 0.97994 0.15506 0.57213 0.0
C701 C 0.86814 0.16258 0.53534 0.0
C702 C 0.89975 0.28843 0.50743 0.0
C703 C 0.84794 0.22128 0.51207 0.0
C704 C 0.85519 0.23435 0.49785 0.0
C705 C 0.88133 0.26814 0.49554 0.0
N706 N 0.86612 0.24134 0.52367 0.0
C707 C 0.89172 0.27452 0.5215 0.0
H708 H 0.15561 0.68831 0.04669 0.0
H709 H 0.15316 0.63425 0.05289 0.0
H710 H 0.09628 0.62668 0.0921 0.0
H711 H 0.09783 0.68034 0.08578 0.0
H712 H 0.17794 0.61617 0.07483 0.0
H713 H 0.04126 0.54286 0.1001 0.0
H714 H 0.98558 0.54092 0.09769 0.0
H715 H 0.01015 0.5768 0.0534 0.0
H716 H 0.06571 0.57843 0.05546 0.0
H717 H 0.15834 0.47533 0.1162 0.0
H718 H 0.15734 0.52653 0.10804 0.0
H719 H 0.08738 0.46813 0.07328 0.0
H720 H 0.08776 0.41644 0.08152 0.0
H721 H 0.0682 0.50974 0.08614 0.0
H722 H 0.17158 0.52126 0.06595 0.0
H723 H 0.227 0.52229 0.0663 0.0
H724 H 0.26814 0.60756 0.09613 0.0
H725 H 0.21277 0.60672 0.09612 0.0
C726 C 0.14252 0.67514 0.05663 0.0
C727 C 0.12685 0.6886 0.06574 0.0
C728 C 0.14121 0.64426 0.06017 0.0
C729 C 0.12425 0.62621 0.07288 0.0
C730 C 0.10898 0.63983 0.0821 0.0
C731 C 0.11005 0.67061 0.07851 0.0
C732 C 0.12293 0.59336 0.07654 0.0
C733 C 0.15393 0.59292 0.07729 0.0
C734 C 0.09154 0.56279 0.07948 0.0
C735 C 0.05779 0.56107 0.07799 0.0
C736 C 0.03469 0.55014 0.08982 0.0
C737 C 0.00317 0.54913 0.08852 0.0
C738 C 0.99438 0.55884 0.07542 0.0
C739 C 0.01703 0.5694 0.06356 0.0
C740 C 0.04855 0.57039 0.06479 0.0
C741 C 0.14271 0.47329 0.10681 0.0
C742 C 0.12333 0.44183 0.09943 0.0
C743 C 0.14224 0.50264 0.10215 0.0
C744 C 0.12264 0.50126 0.08994 0.0
C745 C 0.10275 0.46977 0.08271 0.0
C746 C 0.10313 0.44031 0.08739 0.0
C747 C 0.12327 0.53282 0.08469 0.0
C748 C 0.09217 0.53301 0.08365 0.0
C749 C 0.15449 0.56298 0.08116 0.0
C750 C 0.18792 0.56374 0.08112 0.0
C751 C 0.19236 0.54008 0.07266 0.0
C752 C 0.22378 0.54065 0.07279 0.0
C753 C 0.25105 0.56492 0.08126 0.0
C754 C 0.24698 0.58874 0.08959 0.0
C755 C 0.2156 0.58826 0.08951 0.0
H756 H 0.27536 0.56532 0.08135 0.0
H757 H 0.97 0.55812 0.07445 0.0
H758 H 0.68757 0.10896 0.24313 0.0
H759 H 0.63436 0.10768 0.23577 0.0
H760 H 0.61791 0.12773 0.28028 0.0
H761 H 0.67137 0.1299 0.28768 0.0
H762 H 0.55752 0.07119 0.26414 0.0
H763 H 0.64732 0.19132 0.26076 0.0
H764 H 0.70318 0.23833 0.25207 0.0
H765 H 0.67015 0.21155 0.20754 0.0
H766 H 0.61425 0.164 0.21599 0.0
H767 H 0.42841 0.11619 0.25637 0.0
H768 H 0.47957 0.11313 0.26296 0.0
H769 H 0.5125 0.13051 0.21786 0.0
H770 H 0.46236 0.13543 0.21139 0.0
H771 H 0.56485 0.16597 0.23359 0.0
H772 H 0.47533 0.04879 0.23541 0.0
H773 H 0.41934 0.99965 0.24268 0.0
H774 H 0.45061 0.01606 0.28771 0.0
H775 H 0.5066 0.06569 0.28075 0.0
C776 C 0.67253 0.11297 0.25135 0.0
C777 C 0.68369 0.11975 0.26596 0.0
C778 C 0.64222 0.11222 0.24713 0.0
C779 C 0.62237 0.11762 0.2575 0.0
C780 C 0.63293 0.12344 0.27215 0.0
C781 C 0.66354 0.12487 0.27632 0.0
C782 C 0.59121 0.11852 0.253 0.0
C783 C 0.55896 0.09199 0.25757 0.0
C784 C 0.5933 0.14515 0.24407 0.0
C785 C 0.62678 0.17387 0.239 0.0
C786 C 0.65209 0.19525 0.24912 0.0
C787 C 0.68373 0.22203 0.24424 0.0
C788 C 0.69025 0.22786 0.22926 0.0
C789 C 0.66509 0.20697 0.21914 0.0
C790 C 0.63343 0.18012 0.22397 0.0
C791 C 0.44658 0.11931 0.24788 0.0
C792 C 0.44143 0.12603 0.23338 0.0
C793 C 0.47572 0.11733 0.25163 0.0
C794 C 0.4997 0.12095 0.24087 0.0
C795 C 0.49446 0.12763 0.22637 0.0
C796 C 0.46575 0.13038 0.22268 0.0
C797 C 0.53063 0.11858 0.24475 0.0
C798 C 0.56303 0.14489 0.24008 0.0
C799 C 0.52855 0.0913 0.25334 0.0
C800 C 0.49507 0.06117 0.25756 0.0
C801 C 0.4702 0.04206 0.24688 0.0
C802 C 0.43846 0.01411 0.25094 0.0
C803 C 0.4314 0.00479 0.26565 0.0
C804 C 0.45611 0.02334 0.27632 0.0
C805 C 0.48786 0.05137 0.27232 0.0
H806 H 0.4068 0.98315 0.26877 0.0
H807 H 0.71476 0.24861 0.2255 0.0
H808 H 0.52879 0.70082 0.43595 0.0
H809 H 0.4772 0.64741 0.42909 0.0
H810 H 0.5394 0.60145 0.41911 0.0
H811 H 0.59139 0.65579 0.42514 0.0
H812 H 0.49125 0.57962 0.40037 0.0
H813 H 0.49246 0.58593 0.45218 0.0
H814 H 0.49687 0.6121 0.47637 0.0
H815 H 0.40601 0.61788 0.46742 0.0
H816 H 0.40136 0.59227 0.44306 0.0
H817 H 0.34046 0.4079 0.40996 0.0
H818 H 0.3948 0.45953 0.41659 0.0
H819 H 0.35353 0.52346 0.40281 0.0
H820 H 0.29961 0.47218 0.39572 0.0
H821 H 0.39196 0.53212 0.4345 0.0
H822 H 0.39818 0.52923 0.38054 0.0
H823 H 0.3951 0.49856 0.3577 0.0
H824 H 0.4746 0.48012 0.3734 0.0
H825 H 0.47767 0.51018 0.39646 0.0
C826 C 0.53143 0.67938 0.43218 0.0
C827 C 0.56396 0.68227 0.43115 0.0
C828 C 0.50193 0.64876 0.42836 0.0
C829 C 0.50422 0.61997 0.42398 0.0
C830 C 0.53689 0.62318 0.42254 0.0
C831 C 0.56656 0.65419 0.42599 0.0
C832 C 0.47248 0.58656 0.4211 0.0
C833 C 0.4698 0.56916 0.40795 0.0
C834 C 0.44436 0.57248 0.431 0.0
C835 C 0.44672 0.58741 0.44574 0.0
C836 C 0.47352 0.59295 0.45534 0.0
C837 C 0.47606 0.60768 0.46908 0.0
C838 C 0.45177 0.6167 0.47342 0.0
C839 C 0.42482 0.6109 0.46404 0.0
C840 C 0.4222 0.59625 0.45026 0.0
C841 C 0.34296 0.43297 0.40842 0.0
C842 C 0.31592 0.43612 0.40231 0.0
C843 C 0.37393 0.46232 0.41217 0.0
C844 C 0.37796 0.49508 0.41014 0.0
C845 C 0.35074 0.49828 0.40442 0.0
C846 C 0.32009 0.46904 0.40035 0.0
C847 C 0.41082 0.5262 0.41373 0.0
C848 C 0.41365 0.54283 0.42703 0.0
C849 C 0.43932 0.53906 0.4042 0.0
C850 C 0.43784 0.52154 0.39027 0.0
C851 C 0.41473 0.51831 0.37918 0.0
C852 C 0.41305 0.50112 0.36618 0.0
C853 C 0.43456 0.4873 0.36412 0.0
C854 C 0.4579 0.49077 0.37503 0.0
C855 C 0.45963 0.50789 0.38805 0.0
H856 H 0.43322 0.47399 0.35406 0.0
H857 H 0.4538 0.62812 0.48406 0.0
H858 H 0.85645 0.52992 0.62214 0.0
H859 H 0.85942 0.4791 0.61461 0.0
H860 H 0.88145 0.51721 0.57036 0.0
H861 H 0.87937 0.56858 0.57785 0.0
H862 H 0.82625 0.44302 0.57514 0.0
H863 H 0.9445 0.52704 0.58655 0.0
H864 H 0.98998 0.56981 0.60255 0.0
H865 H 0.96523 0.4923 0.6353 0.0
H866 H 0.91912 0.44919 0.61958 0.0
H867 H 0.87068 0.32642 0.54505 0.0
H868 H 0.87058 0.37883 0.55206 0.0
H869 H 0.88529 0.36127 0.59724 0.0
H870 H 0.88722 0.30972 0.59013 0.0
H871 H 0.92154 0.42579 0.59219 0.0
H872 H 0.80439 0.34185 0.58247 0.0
H873 H 0.75581 0.29749 0.5682 0.0
H874 H 0.77377 0.37151 0.53463 0.0
H875 H 0.82281 0.41622 0.5486 0.0
C876 C 0.86181 0.52743 0.6108 0.0
C877 C 0.8677 0.55319 0.60057 0.0
C878 C 0.86356 0.49847 0.60654 0.0
C879 C 0.87068 0.49458 0.59196 0.0
C880 C 0.87589 0.51987 0.58166 0.0
C881 C 0.87481 0.54918 0.58596 0.0
C882 C 0.87319 0.46428 0.58752 0.0
C883 C 0.84727 0.43934 0.57867 0.0
C884 C 0.90005 0.45921 0.59259 0.0
C885 C 0.92812 0.48498 0.60195 0.0
C886 C 0.94854 0.51918 0.59721 0.0
C887 C 0.97448 0.54348 0.60622 0.0
C888 C 0.98044 0.5338 0.61995 0.0
C889 C 0.96055 0.49977 0.62467 0.0
C890 C 0.93452 0.4754 0.61571 0.0
C891 C 0.874 0.33382 0.55647 0.0
C892 C 0.87867 0.31388 0.56707 0.0
C893 C 0.87375 0.36369 0.56049 0.0
C894 C 0.87707 0.37363 0.57524 0.0
C895 C 0.88253 0.35411 0.5858 0.0
C896 C 0.88355 0.32461 0.58174 0.0
C897 C 0.87455 0.40417 0.57966 0.0
C898 C 0.90044 0.42924 0.58858 0.0
C899 C 0.84721 0.40903 0.57488 0.0
C900 C 0.81748 0.3823 0.56652 0.0
C901 C 0.79811 0.34862 0.572 0.0
C902 C 0.77049 0.32342 0.56397 0.0
C903 C 0.76176 0.33166 0.5505 0.0
C904 C 0.78058 0.36516 0.54506 0.0
C905 C 0.80828 0.39045 0.55303 0.0
H906 H 0.74038 0.31211 0.5443 0.0
H907 H 0.00053 0.55264 0.62691 0.0
H908 H 0.53294 0.85639 0.71295 0.0
H909 H 0.48359 0.86241 0.71986 0.0
H910 H 0.52549 0.89401 0.7632 0.0
H911 H 0.57548 0.8887 0.75631 0.0
H912 H 0.45195 0.83988 0.76102 0.0
H913 H 0.53334 0.95329 0.74318 0.0
H914 H 0.5739 0.99397 0.72504 0.0
H915 H 0.49253 0.95927 0.69342 0.0
H916 H 0.45157 0.91793 0.71132 0.0
H917 H 0.33444 0.88759 0.78625 0.0
H918 H 0.38792 0.88884 0.78007 0.0
H919 H 0.36559 0.88847 0.73412 0.0
H920 H 0.31286 0.88925 0.74032 0.0
H921 H 0.43064 0.92746 0.73782 0.0
H922 H 0.34962 0.81363 0.7537 0.0
H923 H 0.30719 0.7697 0.77036 0.0
H924 H 0.3846 0.79996 0.8036 0.0
H925 H 0.42738 0.84445 0.7872 0.0
C926 C 0.53167 0.86456 0.72397 0.0
C927 C 0.55807 0.87205 0.73411 0.0
C928 C 0.50352 0.86808 0.72787 0.0
C929 C 0.50107 0.87875 0.742 0.0
C930 C 0.52705 0.88576 0.75223 0.0
C931 C 0.55556 0.88281 0.74827 0.0
C932 C 0.47121 0.88247 0.74604 0.0
C933 C 0.44746 0.85933 0.75615 0.0
C934 C 0.46497 0.90711 0.73926 0.0
C935 C 0.48946 0.93229 0.72855 0.0
C936 C 0.52415 0.95413 0.73232 0.0
C937 C 0.5472 0.97734 0.72209 0.0
C938 C 0.53582 0.97915 0.70807 0.0
C939 C 0.50132 0.95781 0.70428 0.0
C940 C 0.47817 0.93451 0.71447 0.0
C941 C 0.34108 0.88802 0.77483 0.0
C942 C 0.31939 0.88795 0.76374 0.0
C943 C 0.37157 0.88854 0.7713 0.0
C944 C 0.38039 0.88775 0.75662 0.0
C945 C 0.35928 0.88887 0.74553 0.0
C946 C 0.32914 0.88924 0.74906 0.0
C947 C 0.41109 0.88485 0.7529 0.0
C948 C 0.43501 0.90804 0.74279 0.0
C949 C 0.41715 0.85973 0.75946 0.0
C950 C 0.39163 0.83258 0.76926 0.0
C951 C 0.35755 0.81103 0.76459 0.0
C952 C 0.33344 0.78604 0.77398 0.0
C953 C 0.34318 0.7821 0.78804 0.0
C954 C 0.37709 0.80307 0.79271 0.0
C955 C 0.40129 0.82817 0.78337 0.0
H956 H 0.32446 0.76276 0.79531 0.0
H957 H 0.55371 0.99713 0.70016 0.0
H958 H 0.46543 0.29651 0.93383 0.0
H959 H 0.51838 0.34863 0.92696 0.0
H960 H 0.4611 0.40125 0.92017 0.0
H961 H 0.40766 0.3482 0.92607 0.0
H962 H 0.50658 0.42197 0.9007 0.0
H963 H 0.51184 0.41125 0.95225 0.0
H964 H 0.50926 0.38272 0.97564 0.0
H965 H 0.59488 0.37143 0.96243 0.0
H966 H 0.59765 0.39944 0.93886 0.0
H967 H 0.66055 0.58931 0.90875 0.0
H968 H 0.606 0.53805 0.91541 0.0
H969 H 0.64623 0.47324 0.90159 0.0
H970 H 0.70044 0.52422 0.89449 0.0
H971 H 0.6096 0.46184 0.93225 0.0
H972 H 0.5994 0.47267 0.87942 0.0
H973 H 0.6013 0.50579 0.85757 0.0
H974 H 0.52316 0.52291 0.87603 0.0
H975 H 0.52126 0.49037 0.89811 0.0
C976 C 0.46418 0.31919 0.93078 0.0
C977 C 0.43259 0.31849 0.93054 0.0
C978 C 0.4945 0.34909 0.92697 0.0
C979 C 0.49405 0.37934 0.92344 0.0
C980 C 0.46227 0.37839 0.92291 0.0
C981 C 0.43175 0.34811 0.9263 0.0
C982 C 0.52672 0.41185 0.92035 0.0
C983 C 0.52886 0.43078 0.90775 0.0
C984 C 0.55606 0.4237 0.92949 0.0
C985 C 0.55476 0.4072 0.94373 0.0
C986 C 0.53 0.40251 0.9543 0.0
C987 C 0.52851 0.38644 0.96759 0.0
C988 C 0.55185 0.37521 0.97051 0.0
C989 C 0.5768 0.38012 0.96015 0.0
C990 C 0.57836 0.39612 0.94683 0.0
C991 C 0.6578 0.56413 0.9072 0.0
C992 C 0.68466 0.56068 0.90109 0.0
C993 C 0.62668 0.53497 0.91097 0.0
C994 C 0.62228 0.50204 0.90897 0.0
C995 C 0.6493 0.49853 0.90321 0.0
C996 C 0.68012 0.52761 0.89912 0.0
C997 C 0.58919 0.47112 0.91261 0.0
C998 C 0.58708 0.45277 0.92532 0.0
C999 C 0.55969 0.46036 0.90383 0.0
C1000 C 0.56048 0.47945 0.89047 0.0
C1001 C 0.58288 0.48378 0.87888 0.0
C1002 C 0.5839 0.50239 0.86644 0.0
C1003 C 0.56243 0.51653 0.86543 0.0
C1004 C 0.53981 0.51199 0.87684 0.0
C1005 C 0.53874 0.49346 0.88931 0.0
H1006 H 0.56327 0.53093 0.8558 0.0
H1007 H 0.55064 0.36275 0.9808 0.0
H1008 H 0.32844 0.20235 0.19023 0.0
H1009 H 0.29745 0.22834 0.17917 0.0
H1010 H 0.20325 0.13063 0.18058 0.0
H1011 H 0.23396 0.10419 0.19176 0.0
H1012 H 0.21394 0.16711 0.1539 0.0
H1013 H 0.21437 0.18571 0.20563 0.0
H1014 H 0.24123 0.20425 0.22992 0.0
H1015 H 0.30309 0.30761 0.21416 0.0
H1016 H 0.27699 0.28956 0.18968 0.0
H1017 H 0.10426 0.2352 0.13976 0.0
H1018 H 0.13054 0.20477 0.15118 0.0
H1019 H 0.22545 0.30076 0.15663 0.0
H1020 H 0.19927 0.33155 0.14556 0.0
H1021 H 0.21179 0.26249 0.18041 0.0
H1022 H 0.21434 0.24462 0.12869 0.0
H1023 H 0.18982 0.22691 0.10397 0.0
H1024 H 0.12455 0.1236 0.11917 0.0
H1025 H 0.14841 0.14081 0.14404 0.0
C1026 C 0.30118 0.18621 0.18812 0.0
C1027 C 0.28367 0.15117 0.19199 0.0
C1028 C 0.28351 0.20118 0.18183 0.0
C1029 C 0.24804 0.18145 0.17922 0.0
C1030 C 0.23064 0.14626 0.18256 0.0
C1031 C 0.24824 0.13125 0.18897 0.0
C1032 C 0.22907 0.19798 0.17344 0.0
C1033 C 0.21296 0.18761 0.15977 0.0
C1034 C 0.22852 0.22517 0.18101 0.0
C1035 C 0.24393 0.23621 0.19578 0.0
C1036 C 0.23389 0.21234 0.2073 0.0
C1037 C 0.24895 0.22277 0.22111 0.0
C1038 C 0.27391 0.25707 0.22357 0.0
C1039 C 0.28378 0.28104 0.21223 0.0
C1040 C 0.26884 0.27073 0.19839 0.0
C1041 C 0.13068 0.24992 0.14346 0.0
C1042 C 0.14968 0.28586 0.14166 0.0
C1043 C 0.1457 0.23243 0.14992 0.0
C1044 C 0.18012 0.25043 0.15455 0.0
C1045 C 0.19887 0.28634 0.15311 0.0
C1046 C 0.18384 0.30389 0.14673 0.0
C1047 C 0.19683 0.2319 0.16075 0.0
C1048 C 0.21254 0.24188 0.17454 0.0
C1049 C 0.19722 0.20451 0.15322 0.0
C1050 C 0.18291 0.19409 0.13826 0.0
C1051 C 0.19457 0.21819 0.12679 0.0
C1052 C 0.18082 0.20823 0.11274 0.0
C1053 C 0.15557 0.17416 0.11001 0.0
C1054 C 0.14407 0.14998 0.12131 0.0
C1055 C 0.15772 0.15982 0.13538 0.0
H1056 H 0.14499 0.16646 0.09912 0.0
H1057 H 0.28554 0.2651 0.23427 0.0
H1058 H 0.86967 0.19544 0.31187 0.0
H1059 H 0.92667 0.22188 0.32295 0.0
H1060 H 0.92784 0.12695 0.31811 0.0
H1061 H 0.87072 0.1001 0.3069 0.0
H1062 H 0.95255 0.15962 0.34556 0.0
H1063 H 0.97031 0.18593 0.29444 0.0
H1064 H 0.96044 0.20652 0.27094 0.0
H1065 H 0.99735 0.30695 0.28934 0.0
H1066 H 0.00691 0.2868 0.31304 0.0
H1067 H 0.13094 0.23207 0.35889 0.0
H1068 H 0.07487 0.202 0.34692 0.0
H1069 H 0.07048 0.2958 0.34638 0.0
H1070 H 0.12682 0.32633 0.35809 0.0
H1071 H 0.04762 0.2614 0.32095 0.0
H1072 H 0.02783 0.23456 0.37228 0.0
H1073 H 0.03704 0.21388 0.3959 0.0
H1074 H 0.00343 0.11433 0.37719 0.0
H1075 H 0.99453 0.13459 0.35338 0.0
C1076 C 0.88182 0.17999 0.31323 0.0
C1077 C 0.86565 0.14566 0.30838 0.0
C1078 C 0.91446 0.19522 0.31955 0.0
C1079 C 0.93152 0.17644 0.32119 0.0
C1080 C 0.91504 0.14184 0.31689 0.0
C1081 C 0.88246 0.12661 0.31045 0.0
C1082 C 0.96706 0.19343 0.32695 0.0
C1083 C 0.97348 0.18156 0.34009 0.0
C1084 C 0.99412 0.22234 0.31989 0.0
C1085 C 0.98905 0.23477 0.30556 0.0
C1086 C 0.97611 0.21235 0.29351 0.0
C1087 C 0.97059 0.22394 0.28015 0.0
C1088 C 0.97819 0.258 0.27866 0.0
C1089 C 0.99144 0.28056 0.29052 0.0
C1090 C 0.99695 0.26908 0.30392 0.0
C1091 C 0.11821 0.24643 0.35616 0.0
C1092 C 0.13337 0.28162 0.35956 0.0
C1093 C 0.08607 0.22913 0.34935 0.0
C1094 C 0.06829 0.24655 0.34595 0.0
C1095 C 0.08374 0.28185 0.34894 0.0
C1096 C 0.11594 0.29922 0.35568 0.0
C1097 C 0.03315 0.22783 0.33967 0.0
C1098 C 0.02677 0.23937 0.32641 0.0
C1099 C 0.00612 0.19861 0.34664 0.0
C1100 C 0.01084 0.18619 0.36101 0.0
C1101 C 0.02261 0.20832 0.37318 0.0
C1102 C 0.02776 0.19667 0.3866 0.0
C1103 C 0.02092 0.16284 0.38803 0.0
C1104 C 0.00877 0.14055 0.37606 0.0
C1105 C 0.00365 0.15209 0.3626 0.0
H1106 H 0.02496 0.15388 0.39843 0.0
H1107 H 0.97387 0.26692 0.26831 0.0
H1108 H 0.80298 0.12468 0.52436 0.0
H1109 H 0.77627 0.06726 0.51371 0.0
H1110 H 0.87075 0.06549 0.51924 0.0
H1111 H 0.89789 0.12308 0.53003 0.0
H1112 H 0.83941 0.04156 0.49168 0.0
H1113 H 0.80949 0.02263 0.54253 0.0
H1114 H 0.78694 0.03119 0.56578 0.0
H1115 H 0.68791 0.99477 0.54601 0.0
H1116 H 0.71002 0.9865 0.52256 0.0
H1117 H 0.76627 0.86412 0.47658 0.0
H1118 H 0.79621 0.91953 0.48907 0.0
H1119 H 0.70244 0.92402 0.48986 0.0
H1120 H 0.67202 0.86822 0.47772 0.0
H1121 H 0.73571 0.94621 0.51507 0.0
H1122 H 0.76534 0.96799 0.46413 0.0
H1123 H 0.78693 0.95969 0.44057 0.0
H1124 H 0.88542 0.9915 0.46002 0.0
H1125 H 0.86424 0.99951 0.48377 0.0
C1126 C 0.81825 0.11227 0.52328 0.0
C1127 C 0.85259 0.12851 0.52813 0.0
C1128 C 0.80285 0.07936 0.51723 0.0
C1129 C 0.82145 0.06206 0.51585 0.0
C1130 C 0.85598 0.07845 0.52027 0.0
C1131 C 0.87138 0.11132 0.52645 0.0
C1132 C 0.80455 0.02665 0.50993 0.0
C1133 C 0.81707 0.02055 0.4969 0.0
C1134 C 0.77498 0.99954 0.51662 0.0
C1135 C 0.76151 0.00423 0.53074 0.0
C1136 C 0.78298 0.0167 0.5431 0.0
C1137 C 0.77027 0.02146 0.55632 0.0
C1138 C 0.73604 0.01359 0.55737 0.0
C1139 C 0.71443 0.00088 0.54519 0.0
C1140 C 0.72703 0.99612 0.53193 0.0
C1141 C 0.75191 0.87675 0.47947 0.0
C1142 C 0.71676 0.86178 0.47603 0.0
C1143 C 0.76912 0.90851 0.48658 0.0
C1144 C 0.7517 0.92619 0.49018 0.0
C1145 C 0.71642 0.91087 0.48715 0.0
C1146 C 0.69909 0.87898 0.48016 0.0
C1147 C 0.77038 0.96107 0.49672 0.0
C1148 C 0.75818 0.96713 0.50988 0.0
C1149 C 0.80011 0.98822 0.49009 0.0
C1150 C 0.8131 0.98402 0.47576 0.0
C1151 C 0.79154 0.97302 0.4634 0.0
C1152 C 0.80371 0.96838 0.45002 0.0
C1153 C 0.8375 0.97496 0.44881 0.0
C1154 C 0.85924 0.98635 0.46098 0.0
C1155 C 0.84717 0.99097 0.4744 0.0
H1156 H 0.84686 0.97131 0.43844 0.0
H1157 H 0.72624 0.01728 0.56762 0.0
H1158 H 0.80544 0.67084 0.64929 0.0
H1159 H 0.77968 0.70298 0.65926 0.0
H1160 H 0.86917 0.79833 0.64668 0.0
H1161 H 0.89549 0.76637 0.63659 0.0
H1162 H 0.84262 0.79981 0.67489 0.0
H1163 H 0.80349 0.76966 0.62543 0.0
H1164 H 0.77927 0.72957 0.60463 0.0
H1165 H 0.68564 0.66877 0.62859 0.0
H1166 H 0.70953 0.70821 0.64963 0.0
H1167 H 0.75901 0.89603 0.68582 0.0
H1168 H 0.79027 0.87142 0.67375 0.0
H1169 H 0.70237 0.76971 0.67881 0.0
H1170 H 0.6705 0.79414 0.69046 0.0
H1171 H 0.73148 0.77549 0.65296 0.0
H1172 H 0.77128 0.80278 0.70283 0.0
H1173 H 0.79523 0.84158 0.72406 0.0
H1174 H 0.88728 0.9065 0.69982 0.0
H1175 H 0.86362 0.86837 0.67835 0.0
C1176 C 0.81995 0.69866 0.64873 0.0
C1177 C 0.85249 0.71598 0.642 0.0
C1178 C 0.80509 0.71697 0.65443 0.0
C1179 C 0.82234 0.75294 0.65352 0.0
C1180 C 0.85545 0.77052 0.64744 0.0
C1181 C 0.87038 0.75219 0.64166 0.0
C1182 C 0.80483 0.77179 0.65828 0.0
C1183 C 0.81863 0.79499 0.66996 0.0
C1184 C 0.77327 0.76498 0.65195 0.0
C1185 C 0.7584 0.74178 0.63915 0.0
C1186 C 0.77779 0.74765 0.62629 0.0
C1187 C 0.76413 0.72504 0.61446 0.0
C1188 C 0.73096 0.6966 0.6153 0.0
C1189 C 0.71134 0.69081 0.62796 0.0
C1190 C 0.72491 0.71331 0.63983 0.0
C1191 C 0.74619 0.86844 0.68426 0.0
C1192 C 0.71235 0.84702 0.68926 0.0
C1193 C 0.76416 0.85441 0.6774 0.0
C1194 C 0.74891 0.81867 0.67565 0.0
C1195 C 0.7147 0.79736 0.6801 0.0
C1196 C 0.69654 0.81139 0.6868 0.0
C1197 C 0.76897 0.80326 0.66975 0.0
C1198 C 0.75564 0.78063 0.65783 0.0
C1199 C 0.80089 0.81051 0.67591 0.0
C1200 C 0.81555 0.8329 0.68895 0.0
C1201 C 0.79657 0.82542 0.70201 0.0
C1202 C 0.81008 0.84729 0.71408 0.0
C1203 C 0.84272 0.87653 0.71327 0.0
C1204 C 0.86198 0.88386 0.70042 0.0
C1205 C 0.84854 0.86213 0.6883 0.0
H1206 H 0.85311 0.89347 0.72262 0.0
H1207 H 0.72045 0.67909 0.60614 0.0
H1208 H 0.86486 0.75918 0.85291 0.0
H1209 H 0.92149 0.78923 0.84112 0.0
H1210 H 0.93952 0.7068 0.85327 0.0
H1211 H 0.88283 0.67623 0.86476 0.0
H1212 H 0.995 0.7745 0.85989 0.0
H1213 H 0.92026 0.70912 0.82096 0.0
H1214 H 0.87167 0.68783 0.80375 0.0
H1215 H 0.91132 0.78984 0.78664 0.0
H1216 H 0.95925 0.81204 0.80421 0.0
H1217 H 0.13842 0.81242 0.81396 0.0
H1218 H 0.08285 0.78466 0.82642 0.0
H1219 H 0.06436 0.8653 0.8118 0.0
H1220 H 0.12 0.8935 0.79936 0.0
H1221 H 0.00941 0.79913 0.80666 0.0
H1222 H 0.08364 0.86449 0.84618 0.0
H1223 H 0.13392 0.88464 0.86243 0.0
H1224 H 0.09682 0.78126 0.87731 0.0
H1225 H 0.04653 0.76039 0.86098 0.0
C1226 C 0.88084 0.74741 0.85303 0.0
C1227 C 0.86932 0.71529 0.85976 0.0
C1228 C 0.91312 0.76457 0.84629 0.0
C1229 C 0.93459 0.75018 0.84636 0.0
C1230 C 0.9233 0.71831 0.85314 0.0
C1231 C 0.89082 0.70083 0.85963 0.0
C1232 C 0.96892 0.76839 0.83938 0.0
C1233 C 0.99817 0.77963 0.84823 0.0
C1234 C 0.97293 0.77548 0.82421 0.0
C1235 C 0.94309 0.76238 0.81411 0.0
C1236 C 0.91821 0.72719 0.81378 0.0
C1237 C 0.89077 0.71491 0.80392 0.0
C1238 C 0.88822 0.73748 0.79417 0.0
C1239 C 0.91307 0.7724 0.79429 0.0
C1240 C 0.9403 0.78487 0.80424 0.0
C1241 C 0.12273 0.82447 0.81346 0.0
C1242 C 0.13379 0.85528 0.80567 0.0
C1243 C 0.09099 0.80857 0.82063 0.0
C1244 C 0.06964 0.82306 0.82008 0.0
C1245 C 0.08055 0.85378 0.81236 0.0
C1246 C 0.11241 0.86989 0.8053 0.0
C1247 C 0.03541 0.80551 0.82717 0.0
C1248 C 0.00619 0.79426 0.81834 0.0
C1249 C 0.03142 0.79833 0.84232 0.0
C1250 C 0.06148 0.81083 0.85225 0.0
C1251 C 0.08634 0.846 0.85283 0.0
C1252 C 0.11481 0.85756 0.86207 0.0
C1253 C 0.11861 0.83423 0.87086 0.0
C1254 C 0.09386 0.7993 0.87047 0.0
C1255 C 0.06535 0.78759 0.86124 0.0
H1256 H 0.14068 0.84323 0.87801 0.0
H1257 H 0.86711 0.72788 0.78647 0.0
H1258 H 0.09914 0.87004 0.02412 0.0
H1259 H 0.12339 0.92623 0.01211 0.0
H1260 H 0.22512 0.93964 0.01589 0.0
H1261 H 0.20127 0.88352 0.02765 0.0
H1262 H 0.22013 0.99699 0.02537 0.0
H1263 H 0.19057 0.9209 0.98423 0.0
H1264 H 0.15319 0.87213 0.96823 0.0
H1265 H 0.08699 0.91438 0.96162 0.0
H1266 H 0.12379 0.96325 0.97776 0.0
H1267 H 0.32081 0.1338 0.9775 0.0
H1268 H 0.29039 0.07831 0.98979 0.0
H1269 H 0.19331 0.07186 0.9801 0.0
H1270 H 0.22351 0.12743 0.96759 0.0
H1271 H 0.19193 0.0116 0.97436 0.0
H1272 H 0.22504 0.09071 0.01419 0.0
H1273 H 0.26497 0.14064 0.0291 0.0
H1274 H 0.32552 0.09301 0.03798 0.0
H1275 H 0.28624 0.043 0.02293 0.0
C1276 C 0.12667 0.88491 0.02236 0.0
C1277 C 0.14826 0.87227 0.02686 0.0
C1278 C 0.14043 0.91694 0.01547 0.0
C1279 C 0.17601 0.93699 0.01313 0.0
C1280 C 0.1976 0.92454 0.01764 0.0
C1281 C 0.18386 0.89237 0.02431 0.0
C1282 C 0.19098 0.97122 0.00612 0.0
C1283 C 0.21419 0.00022 0.01418 0.0
C1284 C 0.18248 0.97537 0.99167 0.0
C1285 C 0.15972 0.94552 0.98233 0.0
C1286 C 0.16781 0.91958 0.97952 0.0
C1287 C 0.14681 0.892 0.97037 0.0
C1288 C 0.11779 0.89021 0.96389 0.0
C1289 C 0.10954 0.91586 0.96663 0.0
C1290 C 0.13045 0.9435 0.97577 0.0
C1291 C 0.29299 0.12077 0.978 0.0
C1292 C 0.27466 0.13528 0.9716 0.0
C1293 C 0.27564 0.08903 0.98509 0.0
C1294 C 0.23961 0.07116 0.98601 0.0
C1295 C 0.22114 0.08532 0.97954 0.0
C1296 C 0.23849 0.11715 0.97245 0.0
C1297 C 0.2214 0.03743 0.99355 0.0
C1298 C 0.19756 0.0085 0.98561 0.0
C1299 C 0.22933 0.03333 0.00813 0.0
C1300 C 0.25282 0.06321 0.01733 0.0
C1301 C 0.247 0.09098 0.01924 0.0
C1302 C 0.2695 0.11929 0.02772 0.0
C1303 C 0.2978 0.12003 0.03446 0.0
C1304 C 0.3036 0.09241 0.03275 0.0
C1305 C 0.2812 0.06405 0.02425 0.0
H1306 H 0.3152 0.14198 0.04102 0.0
H1307 H 0.10173 0.86897 0.95672 0.0
H1308 H 0.10472 0.2986 0.07161 0.0
H1309 H 0.13097 0.28769 0.05043 0.0
H1310 H 0.2315 0.35001 0.06957 0.0
H1311 H 0.20546 0.36243 0.09044 0.0
H1312 H 0.23687 0.35913 0.04167 0.0
H1313 H 0.18403 0.26039 0.07254 0.0
H1314 H 0.13708 0.21392 0.0867 0.0
H1315 H 0.07925 0.17149 0.04727 0.0
H1316 H 0.12532 0.21841 0.0329 0.0
H1317 H 0.31389 0.27244 0.00366 0.0
H1318 H 0.28978 0.29165 0.02316 0.0
H1319 H 0.1994 0.26226 0.99698 0.0
H1320 H 0.22362 0.24386 0.97729 0.0
H1321 H 0.19025 0.23656 0.02836 0.0
H1322 H 0.24609 0.339 0.9981 0.0
H1323 H 0.29578 0.38514 0.985 0.0
H1324 H 0.35238 0.41833 0.02526 0.0
H1325 H 0.30317 0.372 0.03856 0.0
C1326 C 0.13245 0.31037 0.07121 0.0
C1327 C 0.15299 0.33109 0.08277 0.0
C1328 C 0.14743 0.30396 0.05913 0.0
C1329 C 0.18316 0.31721 0.05858 0.0
C1330 C 0.20387 0.3393 0.06977 0.0
C1331 C 0.18894 0.34636 0.08172 0.0
C1332 C 0.19869 0.30673 0.04672 0.0
C1333 C 0.22683 0.33229 0.0389 0.0
C1334 C 0.18566 0.27166 0.04303 0.0
C1335 C 0.15805 0.24315 0.05164 0.0
C1336 C 0.1612 0.24132 0.06689 0.0
C1337 C 0.13474 0.21488 0.07495 0.0
C1338 C 0.10526 0.1897 0.06788 0.0
C1339 C 0.10211 0.19101 0.05273 0.0
C1340 C 0.12835 0.21757 0.04462 0.0
C1341 C 0.28895 0.27022 0.00205 0.0
C1342 C 0.27062 0.2567 0.98897 0.0
C1343 C 0.27529 0.28124 0.01316 0.0
C1344 C 0.24289 0.27833 0.01144 0.0
C1345 C 0.22446 0.26468 0.99845 0.0
C1346 C 0.23839 0.25434 0.98722 0.0
C1347 C 0.22787 0.28894 0.02333 0.0
C1348 C 0.20004 0.26334 0.03119 0.0
C1349 C 0.24162 0.3238 0.02726 0.0
C1350 C 0.2711 0.35179 0.01929 0.0
C1351 C 0.26925 0.35592 0.00414 0.0
C1352 C 0.2973 0.38215 0.99668 0.0
C1353 C 0.32726 0.40459 0.00429 0.0
C1354 C 0.32918 0.40089 0.01937 0.0
C1355 C 0.30121 0.37467 0.02688 0.0
H1356 H 0.34895 0.42489 0.99849 0.0
H1357 H 0.08488 0.16915 0.07413 0.0
H1358 H 0.81261 0.10755 0.23775 0.0
H1359 H 0.85086 0.13651 0.21718 0.0
H1360 H 0.88568 0.23468 0.23807 0.0
H1361 H 0.84613 0.20585 0.2584 0.0
H1362 H 0.88325 0.24245 0.2101 0.0
H1363 H 0.93165 0.19121 0.24025 0.0
H1364 H 0.93376 0.14527 0.25416 0.0
H1365 H 0.91798 0.08768 0.21461 0.0
H1366 H 0.91512 0.13299 0.20048 0.0
H1367 H 0.04812 0.32288 0.17241 0.0
H1368 H 0.00409 0.29813 0.1916 0.0
H1369 H 0.94441 0.20835 0.16491 0.0
H1370 H 0.98778 0.23319 0.14553 0.0
H1371 H 0.96128 0.19873 0.19612 0.0
H1372 H 0.91369 0.2549 0.16655 0.0
H1373 H 0.91669 0.30503 0.15409 0.0
H1374 H 0.93837 0.35891 0.195 0.0
H1375 H 0.93602 0.30925 0.20767 0.0
C1376 C 0.82806 0.13533 0.23788 0.0
C1377 C 0.82659 0.15438 0.24977 0.0
C1378 C 0.85009 0.15187 0.22615 0.0
C1379 C 0.8719 0.18772 0.22625 0.0
C1380 C 0.86927 0.20698 0.23777 0.0
C1381 C 0.84666 0.19046 0.2494 0.0
C1382 C 0.89841 0.20477 0.21468 0.0
C1383 C 0.90052 0.23306 0.20717 0.0
C1384 C 0.92113 0.1927 0.21084 0.0
C1385 C 0.92289 0.16538 0.21931 0.0
C1386 C 0.92836 0.16863 0.23453 0.0
C1387 C 0.92972 0.14271 0.24245 0.0
C1388 C 0.926 0.11358 0.23527 0.0
C1389 C 0.92085 0.11027 0.22015 0.0
C1390 C 0.91936 0.13606 0.21218 0.0
C1391 C 0.0255 0.29796 0.17061 0.0
C1392 C 0.02135 0.27991 0.1575 0.0
C1393 C 0.0004 0.28396 0.18154 0.0
C1394 C 0.97112 0.2515 0.17961 0.0
C1395 C 0.96687 0.23347 0.16654 0.0
C1396 C 0.99158 0.24773 0.15549 0.0
C1397 C 0.94548 0.23573 0.19146 0.0
C1398 C 0.94384 0.20789 0.19908 0.0
C1399 C 0.92391 0.24879 0.19563 0.0
C1400 C 0.92505 0.27851 0.18803 0.0
C1401 C 0.91943 0.27756 0.17287 0.0
C1402 C 0.92094 0.30586 0.16577 0.0
C1403 C 0.92782 0.33518 0.17374 0.0
C1404 C 0.93309 0.3362 0.18883 0.0
C1405 C 0.93165 0.30798 0.19598 0.0
H1406 H 0.92898 0.35706 0.16822 0.0
H1407 H 0.92723 0.0936 0.2414 0.0
H1408 H 0.71373 0.03239 0.3336 0.0
H1409 H 0.69458 0.988 0.35247 0.0
H1410 H 0.75319 0.94706 0.33193 0.0
H1411 H 0.77009 0.98987 0.31242 0.0
H1412 H 0.69945 0.8968 0.3417 0.0
H1413 H 0.78161 0.00375 0.36352 0.0
H1414 H 0.80679 0.06477 0.37042 0.0
H1415 H 0.71643 0.04062 0.39538 0.0
H1416 H 0.69052 0.97951 0.38848 0.0
H1417 H 0.71965 0.81941 0.40721 0.0
H1418 H 0.72949 0.85617 0.38591 0.0
H1419 H 0.64682 0.87243 0.39961 0.0
H1420 H 0.63634 0.83535 0.42081 0.0
H1421 H 0.71148 0.93382 0.39352 0.0
H1422 H 0.63257 0.82382 0.37177 0.0
H1423 H 0.61277 0.76344 0.3653 0.0
H1424 H 0.70545 0.79501 0.3408 0.0
H1425 H 0.72603 0.85557 0.34731 0.0
C1426 C 0.72221 0.01366 0.33308 0.0
C1427 C 0.74353 0.01458 0.32167 0.0
C1428 C 0.71152 0.98847 0.34393 0.0
C1429 C 0.72325 0.96469 0.34393 0.0
C1430 C 0.74385 0.96511 0.33225 0.0
C1431 C 0.75359 0.98961 0.32113 0.0
C1432 C 0.7147 0.93994 0.35622 0.0
C1433 C 0.70252 0.90509 0.35301 0.0
C1434 C 0.71833 0.95044 0.37106 0.0
C1435 C 0.734 0.98712 0.37537 0.0
C1436 C 0.76704 0.01149 0.37042 0.0
C1437 C 0.78144 0.04609 0.37433 0.0
C1438 C 0.76318 0.05658 0.3833 0.0
C1439 C 0.73053 0.03247 0.38842 0.0
C1440 C 0.71598 0.99784 0.38452 0.0
C1441 C 0.70326 0.83043 0.40562 0.0
C1442 C 0.67718 0.82438 0.41574 0.0
C1443 C 0.7089 0.85139 0.39343 0.0
C1444 C 0.68883 0.8669 0.39122 0.0
C1445 C 0.66253 0.86061 0.40115 0.0
C1446 C 0.65653 0.83929 0.41323 0.0
C1447 C 0.69633 0.89106 0.37892 0.0
C1448 C 0.70841 0.92574 0.38217 0.0
C1449 C 0.6935 0.88057 0.36417 0.0
C1450 C 0.68097 0.8442 0.36014 0.0
C1451 C 0.64885 0.81786 0.3651 0.0
C1452 C 0.63746 0.78361 0.36141 0.0
C1453 C 0.65788 0.77538 0.35267 0.0
C1454 C 0.68968 0.80142 0.34758 0.0
C1455 C 0.7012 0.83571 0.35125 0.0
H1456 H 0.64902 0.74885 0.34983 0.0
H1457 H 0.77437 0.08337 0.38631 0.0
H1458 H 0.88616 0.69258 0.5715 0.0
H1459 H 0.85811 0.70265 0.55078 0.0
H1460 H 0.76051 0.6489 0.57316 0.0
H1461 H 0.78827 0.63733 0.59366 0.0
H1462 H 0.75029 0.63542 0.54535 0.0
H1463 H 0.81093 0.73816 0.57339 0.0
H1464 H 0.86052 0.78529 0.58613 0.0
H1465 H 0.91567 0.81838 0.54553 0.0
H1466 H 0.86665 0.77104 0.53258 0.0
H1467 H 0.67703 0.72339 0.50578 0.0
H1468 H 0.70024 0.70312 0.52522 0.0
H1469 H 0.78983 0.72991 0.49886 0.0
H1470 H 0.7666 0.74957 0.47929 0.0
H1471 H 0.80206 0.75668 0.52895 0.0
H1472 H 0.73735 0.65113 0.50144 0.0
H1473 H 0.68486 0.60508 0.48985 0.0
H1474 H 0.63332 0.57953 0.53139 0.0
H1475 H 0.68539 0.62581 0.54319 0.0
C1476 C 0.85866 0.68252 0.57193 0.0
C1477 C 0.83947 0.66444 0.58426 0.0
C1478 C 0.84266 0.68844 0.56011 0.0
C1479 C 0.80734 0.67736 0.56056 0.0
C1480 C 0.78782 0.65787 0.57258 0.0
C1481 C 0.80372 0.65129 0.5843 0.0
C1482 C 0.79126 0.6875 0.54883 0.0
C1483 C 0.76142 0.662 0.5419 0.0
C1484 C 0.80574 0.7222 0.54427 0.0
C1485 C 0.83521 0.75086 0.55203 0.0
C1486 C 0.83372 0.75533 0.56719 0.0
C1487 C 0.86173 0.7821 0.57445 0.0
C1488 C 0.89123 0.8048 0.56664 0.0
C1489 C 0.8928 0.80077 0.55156 0.0
C1490 C 0.86491 0.77398 0.54425 0.0
C1491 C 0.70157 0.72475 0.5041 0.0
C1492 C 0.72004 0.7381 0.49104 0.0
C1493 C 0.7147 0.71309 0.51518 0.0
C1494 C 0.74667 0.71504 0.51342 0.0
C1495 C 0.76508 0.7282 0.50038 0.0
C1496 C 0.75172 0.73929 0.48921 0.0
C1497 C 0.76162 0.70458 0.5254 0.0
C1498 C 0.79109 0.73013 0.53243 0.0
C1499 C 0.74636 0.67014 0.53024 0.0
C1500 C 0.71515 0.64217 0.52317 0.0
C1501 C 0.71473 0.63591 0.50808 0.0
C1502 C 0.68507 0.60972 0.50148 0.0
C1503 C 0.65574 0.58945 0.50987 0.0
C1504 C 0.65604 0.59528 0.52489 0.0
C1505 C 0.68563 0.62146 0.53155 0.0
H1506 H 0.6328 0.56919 0.50474 0.0
H1507 H 0.91284 0.82559 0.57226 0.0
H1508 H 0.18854 0.81003 0.74669 0.0
H1509 H 0.15504 0.78026 0.72492 0.0
H1510 H 0.12079 0.85425 0.72132 0.0
H1511 H 0.15488 0.88467 0.74255 0.0
H1512 H 0.08965 0.74793 0.7199 0.0
H1513 H 0.1056 0.86711 0.68737 0.0
H1514 H 0.15043 0.92738 0.68308 0.0
H1515 H 0.22888 0.90242 0.69301 0.0
H1516 H 0.18459 0.84189 0.69714 0.0
H1517 H 0.9482 0.7042 0.67455 0.0
H1518 H 0.99536 0.72857 0.69209 0.0
H1519 H 0.06866 0.75992 0.65672 0.0
H1520 H 0.02143 0.73663 0.63903 0.0
H1521 H 0.08953 0.80963 0.6749 0.0
H1522 H 0.05251 0.6915 0.68004 0.0
H1523 H 0.01141 0.62962 0.68315 0.0
H1524 H 0.9832 0.64908 0.72546 0.0
H1525 H 0.02374 0.71116 0.72251 0.0
C1526 C 0.1742 0.82019 0.74114 0.0
C1527 C 0.17459 0.84987 0.74636 0.0
C1528 C 0.15498 0.80307 0.72872 0.0
C1529 C 0.13576 0.81526 0.72133 0.0
C1530 C 0.13608 0.84479 0.72657 0.0
C1531 C 0.15551 0.86209 0.73883 0.0
C1532 C 0.11396 0.79648 0.70854 0.0
C1533 C 0.08983 0.76135 0.71001 0.0
C1534 C 0.11483 0.81367 0.69542 0.0
C1535 C 0.1417 0.84995 0.69265 0.0
C1536 C 0.13242 0.8744 0.68854 0.0
C1537 C 0.15774 0.90864 0.68616 0.0
C1538 C 0.19247 0.91874 0.6878 0.0
C1539 C 0.20197 0.89459 0.69178 0.0
C1540 C 0.17675 0.86031 0.69415 0.0
C1541 C 0.97433 0.71607 0.67049 0.0
C1542 C 0.98107 0.71852 0.6554 0.0
C1543 C 0.00133 0.72981 0.68055 0.0
C1544 C 0.03565 0.74564 0.67577 0.0
C1545 C 0.04243 0.74779 0.66069 0.0
C1546 C 0.01541 0.73442 0.65059 0.0
C1547 C 0.06428 0.76144 0.68653 0.0
C1548 C 0.08971 0.79603 0.68468 0.0
C1549 C 0.06526 0.74346 0.69909 0.0
C1550 C 0.04108 0.70606 0.70101 0.0
C1551 C 0.03741 0.68262 0.68998 0.0
C1552 C 0.01421 0.6475 0.69171 0.0
C1553 C 0.99467 0.63543 0.70449 0.0
C1554 C 0.99835 0.65846 0.71557 0.0
C1555 C 0.02149 0.69363 0.71388 0.0
H1556 H 0.9767 0.60823 0.7058 0.0
H1557 H 0.21203 0.94526 0.68597 0.0
H1558 H 0.35663 0.16442 0.91799 0.0
H1559 H 0.34636 0.12887 0.89638 0.0
H1560 H 0.2715 0.15518 0.88103 0.0
H1561 H 0.28056 0.18965 0.90299 0.0
H1562 H 0.24602 0.09042 0.87831 0.0
H1563 H 0.35366 0.18665 0.8647 0.0
H1564 H 0.41446 0.23157 0.8675 0.0
H1565 H 0.44332 0.15408 0.87159 0.0
H1566 H 0.38261 0.10864 0.86902 0.0
H1567 H 0.23673 0.02002 0.80673 0.0
H1568 H 0.2546 0.06462 0.82557 0.0
H1569 H 0.29393 0.01223 0.85187 0.0
H1570 H 0.27522 0.96695 0.83329 0.0
H1571 H 0.338 0.09235 0.8475 0.0
H1572 H 0.22725 0.99689 0.86321 0.0
H1573 H 0.16632 0.95372 0.85904 0.0
H1574 H 0.14403 0.0341 0.84926 0.0
H1575 H 0.20502 0.07774 0.85314 0.0
C1576 C 0.3383 0.16306 0.90994 0.0
C1577 C 0.31942 0.17993 0.91224 0.0
C1578 C 0.33256 0.14279 0.89751 0.0
C1579 C 0.30843 0.1396 0.88693 0.0
C1580 C 0.29022 0.15718 0.88902 0.0
C1581 C 0.29553 0.177 0.90157 0.0
C1582 C 0.30069 0.11627 0.87418 0.0
C1583 C 0.26622 0.09137 0.87146 0.0
C1584 C 0.32692 0.11698 0.86529 0.0
C1585 C 0.36351 0.14423 0.86679 0.0
C1586 C 0.37293 0.17917 0.8663 0.0
C1587 C 0.40739 0.20473 0.86783 0.0
C1588 C 0.43273 0.19568 0.86975 0.0
C1589 C 0.42366 0.16105 0.87011 0.0
C1590 C 0.38923 0.13538 0.8686 0.0
C1591 C 0.24948 0.01819 0.81646 0.0
C1592 C 0.25445 0.98998 0.81861 0.0
C1593 C 0.25964 0.04363 0.82718 0.0
C1594 C 0.27554 0.04158 0.84004 0.0
C1595 C 0.28177 0.01419 0.84196 0.0
C1596 C 0.27092 0.98833 0.8314 0.0
C1597 C 0.2837 0.06686 0.85188 0.0
C1598 C 0.31807 0.0919 0.85437 0.0
C1599 C 0.25745 0.06668 0.86044 0.0
C1600 C 0.22074 0.04052 0.85828 0.0
C1601 C 0.20942 0.00533 0.86002 0.0
C1602 C 0.17487 0.98078 0.85775 0.0
C1603 C 0.15134 0.99115 0.85384 0.0
C1604 C 0.1623 0.0261 0.85226 0.0
C1605 C 0.19685 0.05075 0.8545 0.0
H1606 H 0.12459 0.97211 0.85209 0.0
H1607 H 0.45939 0.21551 0.87093 0.0
H1608 H 0.62323 0.79328 0.74773 0.0
H1609 H 0.63394 0.76551 0.7685 0.0
H1610 H 0.73291 0.85619 0.7752 0.0
H1611 H 0.72276 0.88398 0.75449 0.0
H1612 H 0.73855 0.80012 0.77464 0.0
H1613 H 0.66668 0.83616 0.79842 0.0
H1614 H 0.61459 0.84063 0.8019 0.0
H1615 H 0.55354 0.73087 0.80614 0.0
H1616 H 0.60523 0.7257 0.80247 0.0
H1617 H 0.73774 0.75273 0.85576 0.0
H1618 H 0.71751 0.77562 0.83636 0.0
H1619 H 0.72332 0.70612 0.80544 0.0
H1620 H 0.74427 0.68353 0.82474 0.0
H1621 H 0.66377 0.75067 0.81821 0.0
H1622 H 0.75129 0.74709 0.77284 0.0
H1623 H 0.80686 0.74891 0.77008 0.0
H1624 H 0.84186 0.80357 0.8107 0.0
H1625 H 0.78669 0.80251 0.81361 0.0
C1626 C 0.64712 0.80748 0.75372 0.0
C1627 C 0.67216 0.84087 0.74937 0.0
C1628 C 0.65315 0.79157 0.76561 0.0
C1629 C 0.68422 0.8088 0.7734 0.0
C1630 C 0.70882 0.84237 0.7693 0.0
C1631 C 0.70287 0.85826 0.75746 0.0
C1632 C 0.69214 0.79145 0.78534 0.0
C1633 C 0.72209 0.78918 0.78413 0.0
C1634 C 0.67086 0.77748 0.79779 0.0
C1635 C 0.63976 0.78052 0.80001 0.0
C1636 C 0.6421 0.81295 0.79996 0.0
C1637 C 0.61266 0.81561 0.802 0.0
C1638 C 0.58076 0.78604 0.8042 0.0
C1639 C 0.57826 0.75375 0.80441 0.0
C1640 C 0.60762 0.75094 0.80236 0.0
C1641 C 0.73453 0.74213 0.84486 0.0
C1642 C 0.74304 0.71659 0.84176 0.0
C1643 C 0.72278 0.75515 0.83379 0.0
C1644 C 0.71927 0.7429 0.81941 0.0
C1645 C 0.72635 0.71636 0.81641 0.0
C1646 C 0.73831 0.70346 0.82746 0.0
C1647 C 0.71016 0.7593 0.80746 0.0
C1648 C 0.68 0.76132 0.80864 0.0
C1649 C 0.73158 0.77371 0.79508 0.0
C1650 C 0.76476 0.77438 0.7935 0.0
C1651 C 0.77087 0.75953 0.78117 0.0
C1652 C 0.80227 0.76044 0.77958 0.0
C1653 C 0.82778 0.77629 0.79022 0.0
C1654 C 0.82199 0.79123 0.8025 0.0
C1655 C 0.79066 0.79045 0.80413 0.0
H1656 H 0.85209 0.77716 0.78892 0.0
H1657 H 0.55799 0.78816 0.80577 0.0
H1658 H 0.84134 0.63762 0.91366 0.0
H1659 H 0.87797 0.64995 0.93502 0.0
H1660 H 0.85116 0.72513 0.94944 0.0
H1661 H 0.81601 0.7143 0.92755 0.0
H1662 H 0.91493 0.75141 0.95252 0.0
H1663 H 0.82137 0.64308 0.96674 0.0
H1664 H 0.77736 0.58181 0.96447 0.0
H1665 H 0.85645 0.5552 0.96013 0.0
H1666 H 0.90097 0.61639 0.96217 0.0
H1667 H 0.98731 0.76256 0.02402 0.0
H1668 H 0.94226 0.74336 0.00533 0.0
H1669 H 0.99781 0.70886 0.97831 0.0
H1670 H 0.04361 0.72904 0.99674 0.0
H1671 H 0.91726 0.66157 0.98331 0.0
H1672 H 0.01009 0.77458 0.96823 0.0
H1673 H 0.0508 0.83562 0.97328 0.0
H1674 H 0.96669 0.85309 0.98171 0.0
H1675 H 0.92539 0.79167 0.97726 0.0
C1676 C 0.84289 0.65651 0.92144 0.0
C1677 C 0.8257 0.67497 0.91888 0.0
C1678 C 0.86374 0.66341 0.93375 0.0
C1679 C 0.86705 0.68815 0.94404 0.0
C1680 C 0.84913 0.70596 0.94169 0.0
C1681 C 0.82888 0.69963 0.92919 0.0
C1682 C 0.89078 0.69686 0.95673 0.0
C1683 C 0.91489 0.73164 0.95936 0.0
C1684 C 0.8912 0.67125 0.96568 0.0
C1685 C 0.86452 0.63438 0.96448 0.0
C1686 C 0.82939 0.6242 0.96519 0.0
C1687 C 0.80434 0.58947 0.96396 0.0
C1688 C 0.8141 0.56464 0.96212 0.0
C1689 C 0.84893 0.57447 0.96154 0.0
C1690 C 0.87409 0.60917 0.96275 0.0
C1691 C 0.98979 0.75064 0.01415 0.0
C1692 C 0.019 0.74744 0.01176 0.0
C1693 C 0.96407 0.73969 0.00352 0.0
C1694 C 0.96684 0.72472 0.99052 0.0
C1695 C 0.9953 0.72028 0.98834 0.0
C1696 C 0.02145 0.73199 0.9988 0.0
C1697 C 0.94109 0.71568 0.9788 0.0
C1698 C 0.91679 0.68102 0.97643 0.0
C1699 C 0.9399 0.74135 0.97031 0.0
C1700 C 0.96467 0.77842 0.97262 0.0
C1701 C 0.00026 0.79132 0.97133 0.0
C1702 C 0.02346 0.82603 0.97405 0.0
C1703 C 0.01139 0.84829 0.97779 0.0
C1704 C 0.97603 0.83583 0.97883 0.0
C1705 C 0.95271 0.80104 0.97624 0.0
H1706 H 0.02942 0.87518 0.97988 0.0
H1707 H 0.79467 0.53777 0.96117 0.0
H1708 H 0.1067 0.81253 0.09632 0.0
H1709 H 0.13309 0.84774 0.11796 0.0
H1710 H 0.23378 0.88378 0.09936 0.0
H1711 H 0.20752 0.8472 0.07797 0.0
H1712 H 0.23741 0.87765 0.12742 0.0
H1713 H 0.19012 0.92981 0.09668 0.0
H1714 H 0.14531 0.93302 0.08232 0.0
H1715 H 0.08501 0.91522 0.12119 0.0
H1716 H 0.12916 0.91123 0.13575 0.0
H1717 H 0.31978 0.04394 0.16341 0.0
H1718 H 0.29419 0.99811 0.14501 0.0
H1719 H 0.20482 0.94186 0.17234 0.0
H1720 H 0.23058 0.98705 0.19098 0.0
H1721 H 0.19546 0.95752 0.1407 0.0
H1722 H 0.24719 0.9078 0.17122 0.0
H1723 H 0.29528 0.90853 0.18454 0.0
H1724 H 0.35166 0.92765 0.1444 0.0
H1725 H 0.30408 0.92759 0.13087 0.0
C1726 C 0.13447 0.82757 0.09691 0.0
C1727 C 0.155 0.82739 0.08535 0.0
C1728 C 0.14954 0.84785 0.10927 0.0
C1729 C 0.1854 0.86918 0.11012 0.0
C1730 C 0.20605 0.86771 0.09892 0.0
C1731 C 0.19099 0.84683 0.08668 0.0
C1732 C 0.20116 0.89433 0.12226 0.0
C1733 C 0.22838 0.89528 0.13022 0.0
C1734 C 0.18933 0.91731 0.12601 0.0
C1735 C 0.16281 0.9199 0.11729 0.0
C1736 C 0.16719 0.92633 0.10215 0.0
C1737 C 0.14191 0.9283 0.09398 0.0
C1738 C 0.11232 0.9243 0.10084 0.0
C1739 C 0.10793 0.91829 0.11589 0.0
C1740 C 0.13307 0.91616 0.12411 0.0
C1741 C 0.29482 0.02164 0.16554 0.0
C1742 C 0.27712 0.01903 0.17859 0.0
C1743 C 0.28034 0.99552 0.15507 0.0
C1744 C 0.24772 0.96674 0.15739 0.0
C1745 C 0.23008 0.96391 0.17043 0.0
C1746 C 0.24486 0.98965 0.18105 0.0
C1747 C 0.2313 0.94049 0.14583 0.0
C1748 C 0.20416 0.93961 0.13792 0.0
C1749 C 0.24366 0.91816 0.14196 0.0
C1750 C 0.27223 0.91808 0.15006 0.0
C1751 C 0.26999 0.91253 0.16526 0.0
C1752 C 0.29712 0.91273 0.17284 0.0
C1753 C 0.32656 0.91823 0.16533 0.0
C1754 C 0.32887 0.92344 0.15021 0.0
C1755 C 0.30181 0.9233 0.14258 0.0
H1756 H 0.34753 0.91837 0.17122 0.0
H1757 H 0.09284 0.92596 0.09452 0.0
H1758 H 0.38263 0.20244 0.2497 0.0
H1759 H 0.37646 0.23135 0.27121 0.0
H1760 H 0.27141 0.14959 0.27628 0.0
H1761 H 0.27754 0.12014 0.25521 0.0
H1762 H 0.33709 0.25766 0.27614 0.0
H1763 H 0.24706 0.13659 0.31098 0.0
H1764 H 0.23879 0.07889 0.31579 0.0
H1765 H 0.34386 0.11434 0.30398 0.0
H1766 H 0.35292 0.17238 0.29932 0.0
H1767 H 0.23695 0.29223 0.3248 0.0
H1768 H 0.26062 0.27074 0.30629 0.0
H1769 H 0.31304 0.24706 0.33995 0.0
H1770 H 0.2881 0.26713 0.35858 0.0
H1771 H 0.28551 0.19646 0.32262 0.0
H1772 H 0.35627 0.31645 0.31515 0.0
H1773 H 0.37021 0.3764 0.31128 0.0
H1774 H 0.31565 0.34804 0.27046 0.0
H1775 H 0.30091 0.2878 0.27418 0.0
C1776 C 0.35834 0.1904 0.2555 0.0
C1777 C 0.33065 0.15884 0.25073 0.0
C1778 C 0.35483 0.20705 0.26776 0.0
C1779 C 0.32362 0.19246 0.27548 0.0
C1780 C 0.296 0.16101 0.27072 0.0
C1781 C 0.29954 0.14425 0.25858 0.0
C1782 C 0.31915 0.21049 0.28818 0.0
C1783 C 0.32606 0.24441 0.28635 0.0
C1784 C 0.30566 0.19355 0.30165 0.0
C1785 C 0.30058 0.15881 0.3047 0.0
C1786 C 0.26846 0.13215 0.3095 0.0
C1787 C 0.26363 0.09936 0.31218 0.0
C1788 C 0.29076 0.09293 0.31016 0.0
C1789 C 0.32283 0.11932 0.3055 0.0
C1790 C 0.32782 0.15216 0.30282 0.0
C1791 C 0.25374 0.2827 0.32825 0.0
C1792 C 0.26061 0.2813 0.34314 0.0
C1793 C 0.26748 0.27061 0.31764 0.0
C1794 C 0.28909 0.2577 0.32167 0.0
C1795 C 0.29645 0.25686 0.33655 0.0
C1796 C 0.28222 0.26839 0.34719 0.0
C1797 C 0.30235 0.24331 0.31043 0.0
C1798 C 0.29703 0.21 0.31251 0.0
C1799 C 0.31826 0.26123 0.29737 0.0
C1800 C 0.3273 0.29752 0.295 0.0
C1801 C 0.34706 0.32294 0.30539 0.0
C1802 C 0.35512 0.35699 0.30322 0.0
C1803 C 0.34377 0.36601 0.29065 0.0
C1804 C 0.32441 0.34101 0.2802 0.0
C1805 C 0.31623 0.30691 0.28233 0.0
H1806 H 0.35002 0.39239 0.28899 0.0
H1807 H 0.28694 0.06752 0.31222 0.0
H1808 H 0.18828 0.37456 0.42183 0.0
H1809 H 0.15462 0.36565 0.44408 0.0
H1810 H 0.12057 0.25719 0.44264 0.0
H1811 H 0.15503 0.26603 0.42082 0.0
H1812 H 0.08952 0.33183 0.4486 0.0
H1813 H 0.10295 0.22147 0.47561 0.0
H1814 H 0.14663 0.20377 0.47796 0.0
H1815 H 0.22698 0.30811 0.47123 0.0
H1816 H 0.18384 0.32654 0.46906 0.0
H1817 H 0.94955 0.2322 0.49436 0.0
H1818 H 0.99541 0.25363 0.47622 0.0
H1819 H 0.0713 0.29154 0.51066 0.0
H1820 H 0.02531 0.26907 0.52897 0.0
H1821 H 0.08904 0.262 0.49076 0.0
H1822 H 0.05529 0.34657 0.48992 0.0
H1823 H 0.01492 0.36868 0.48884 0.0
H1824 H 0.98318 0.3262 0.44581 0.0
H1825 H 0.02296 0.30334 0.44671 0.0
C1826 C 0.17395 0.34887 0.42635 0.0
C1827 C 0.17448 0.32104 0.41954 0.0
C1828 C 0.15464 0.34381 0.43906 0.0
C1829 C 0.13534 0.31082 0.44517 0.0
C1830 C 0.13587 0.28304 0.43838 0.0
C1831 C 0.1555 0.28813 0.42581 0.0
C1832 C 0.11328 0.30499 0.4582 0.0
C1833 C 0.08962 0.31678 0.45786 0.0
C1834 C 0.1139 0.28609 0.47049 0.0
C1835 C 0.1401 0.27533 0.47207 0.0
C1836 C 0.12994 0.24068 0.47473 0.0
C1837 C 0.15461 0.23051 0.47601 0.0
C1838 C 0.18955 0.25478 0.47471 0.0
C1839 C 0.19991 0.28931 0.47219 0.0
C1840 C 0.17535 0.29963 0.47092 0.0
C1841 C 0.97598 0.24517 0.49811 0.0
C1842 C 0.98379 0.249 0.51311 0.0
C1843 C 0.00222 0.2576 0.4877 0.0
C1844 C 0.03686 0.27473 0.49206 0.0
C1845 C 0.04477 0.2785 0.50704 0.0
C1846 C 0.01847 0.26572 0.51749 0.0
C1847 C 0.06461 0.28788 0.48089 0.0
C1848 C 0.0893 0.27746 0.48159 0.0
C1849 C 0.06558 0.30887 0.46913 0.0
C1850 C 0.04199 0.32306 0.46842 0.0
C1851 C 0.03957 0.34178 0.48025 0.0
C1852 C 0.01679 0.35445 0.47967 0.0
C1853 C 0.99646 0.3488 0.46727 0.0
C1854 C 0.99894 0.33055 0.45541 0.0
C1855 C 0.02164 0.31777 0.45594 0.0
H1856 H 0.97881 0.3586 0.46685 0.0
H1857 H 0.2086 0.24685 0.47568 0.0
H1858 H 0.66813 0.95657 0.66427 0.0
H1859 H 0.69126 0.00201 0.64575 0.0
H1860 H 0.78977 0.05023 0.6676 0.0
H1861 H 0.76595 0.00619 0.68663 0.0
H1862 H 0.78091 0.09763 0.65819 0.0
H1863 H 0.76758 0.99477 0.63581 0.0
H1864 H 0.73675 0.93418 0.62783 0.0
H1865 H 0.66954 0.95381 0.60128 0.0
H1866 H 0.69966 0.01442 0.60927 0.0
H1867 H 0.88977 0.17931 0.5964 0.0
H1868 H 0.85856 0.14256 0.61715 0.0
H1869 H 0.76258 0.12409 0.59851 0.0
H1870 H 0.79353 0.16126 0.5778 0.0
H1871 H 0.76638 0.06366 0.60591 0.0
H1872 H 0.78757 0.17041 0.62734 0.0
H1873 H 0.82387 0.23101 0.6347 0.0
H1874 H 0.88335 0.20331 0.66245 0.0
H1875 H 0.84772 0.14259 0.65508 0.0
C1876 C 0.69463 0.97709 0.66514 0.0
C1877 C 0.71536 0.97785 0.67679 0.0
C1878 C 0.70793 0.00293 0.65451 0.0
C1879 C 0.74259 0.0292 0.65502 0.0
C1880 C 0.763 0.03031 0.6669 0.0
C1881 C 0.74941 0.00508 0.67776 0.0
C1882 C 0.75799 0.05505 0.64307 0.0
C1883 C 0.77791 0.09005 0.64678 0.0
C1884 C 0.75375 0.04547 0.6281 0.0
C1885 C 0.7356 0.00902 0.62329 0.0
C1886 C 0.74605 0.98609 0.62836 0.0
C1887 C 0.72873 0.95176 0.62383 0.0
C1888 C 0.70113 0.94012 0.6141 0.0
C1889 C 0.69086 0.96283 0.60885 0.0
C1890 C 0.70805 0.99718 0.61338 0.0
C1891 C 0.86208 0.16791 0.5968 0.0
C1892 C 0.84416 0.1732 0.58541 0.0
C1893 C 0.84431 0.14698 0.60869 0.0
C1894 C 0.80833 0.13072 0.60933 0.0
C1895 C 0.79039 0.13652 0.59819 0.0
C1896 C 0.80816 0.15788 0.5864 0.0
C1897 C 0.78941 0.10578 0.62113 0.0
C1898 C 0.76895 0.07105 0.61735 0.0
C1899 C 0.79388 0.1155 0.63601 0.0
C1900 C 0.81512 0.15197 0.64056 0.0
C1901 C 0.80855 0.17727 0.63492 0.0
C1902 C 0.82898 0.21164 0.63912 0.0
C1903 C 0.85594 0.22102 0.64902 0.0
C1904 C 0.86247 0.19602 0.65478 0.0
C1905 C 0.84213 0.16161 0.65061 0.0
H1906 H 0.87173 0.24765 0.65225 0.0
H1907 H 0.68775 0.91354 0.61059 0.0
loop_
_geom_bond_atom_site_label_1
_geom_bond_atom_site_label_2
_geom_bond_distance
_geom_bond_site_symmetry_2
_ccdc_geom_bond_type
Co0 O2 2.143 . S
Co0 O8 2.074 . S
Co0 O11 2.093 . S
Co0 O24 2.097 . S
Co0 N41 2.151 . S
Co0 N49 2.214 . S
Co1 O2 2.160 . S
Co1 O7 2.058 . S
Co1 O17 2.057 . S
Co1 O32 2.037 . S
Co1 N36 2.145 . S
Co1 N57 2.257 . S
O2 Co0 2.143 . S
O2 Co1 2.160 . S
C3 O4 1.278 . S
C3 O11 1.224 . S
O4 C3 1.278 . S
C5 O6 1.245 . S
C5 O17 1.232 . S
O6 C5 1.245 . S
O7 Co1 2.058 . S
O7 C33 1.269 . S
O8 Co0 2.074 . S
O8 C33 1.257 . S
H9 C34 0.930 . S
H10 C40 0.930 . S
O11 Co0 2.093 . S
O11 C3 1.224 . S
H12 C44 0.929 . S
H13 C46 0.930 . S
H14 C47 0.930 . S
H15 C45 0.929 . S
H16 C48 0.928 . S
O17 Co1 2.057 . S
O17 C5 1.232 . S
H18 C37 0.929 . S
H19 C38 0.929 . S
H20 C50 0.931 . S
H21 C42 0.929 1_655 S
H22 C51 0.930 . S
H23 C43 0.931 1_655 S
O24 Co0 2.097 . S
O24 C52 1.214 . S
H25 C53 0.929 . S
H26 C54 0.929 . S
H27 C55 0.930 . S
H28 C56 0.929 . S
H29 C58 0.930 . S
H30 C35 0.930 . S
H31 C39 0.930 . S
O32 Co1 2.037 . S
O32 C52 1.234 . S
C33 O7 1.269 . S
C33 O8 1.257 . S
C34 H9 0.930 . S
C34 C37 1.388 . S
C34 C39 1.418 . S
C35 H30 0.930 . S
C35 C38 1.404 . S
C35 C39 1.353 . S
N36 Co1 2.145 . S
N36 C37 1.397 . S
N36 C38 1.334 . S
C37 H18 0.929 . S
C37 C34 1.388 . S
C37 N36 1.397 . S
C38 H19 0.929 . S
C38 C35 1.404 . S
C38 N36 1.334 . S
C39 H31 0.930 . S
C39 C34 1.418 . S
C39 C35 1.353 . S
C40 H10 0.930 . S
C40 N41 1.330 . S
C40 C42 1.446 . S
N41 Co0 2.151 . S
N41 C40 1.330 . S
N41 C45 1.418 . S
C42 H21 0.929 1_455 S
C42 C40 1.446 . S
C42 C43 1.332 . S
C43 H23 0.931 1_455 S
C43 C42 1.332 . S
C43 C44 1.267 . S
C44 H12 0.929 . S
C44 C43 1.267 . S
C44 C45 1.251 . S
C45 H15 0.929 . S
C45 N41 1.418 . S
C45 C44 1.251 . S
C46 H13 0.930 . S
C46 C48 1.406 . S
C46 C51 1.261 . S
C47 H14 0.930 . S
C47 N49 1.325 . S
C47 C50 1.357 . S
C48 H16 0.928 . S
C48 C46 1.406 . S
C48 N49 1.261 . S
N49 Co0 2.214 . S
N49 C47 1.325 . S
N49 C48 1.261 . S
C50 H20 0.931 . S
C50 C47 1.357 . S
C50 C51 1.312 . S
C51 H22 0.930 . S
C51 C46 1.261 . S
C51 C50 1.312 . S
C52 O24 1.214 . S
C52 O32 1.234 . S
C53 H25 0.929 . S
C53 C56 1.391 . S
C53 C58 1.391 . S
C54 H26 0.929 . S
C54 C55 1.390 . S
C54 N57 1.391 . S
C55 H27 0.930 . S
C55 C54 1.390 . S
C55 C56 1.392 . S
C56 H28 0.929 . S
C56 C53 1.391 . S
C56 C55 1.392 . S
N57 Co1 2.257 . S
N57 C54 1.391 . S
N57 C58 1.388 . S
C58 H29 0.930 . S
C58 C53 1.391 . S
C58 N57 1.388 . S
Co59 O61 2.143 . S
Co59 O67 2.074 . S
Co59 O70 2.093 . S
Co59 O83 2.097 . S
Co59 N100 2.151 . S
Co59 N108 2.214 . S
Co60 O61 2.160 . S
Co60 O66 2.058 . S
Co60 O76 2.057 . S
Co60 O91 2.037 . S
Co60 N95 2.145 . S
Co60 N116 2.257 . S
O61 Co59 2.143 . S
O61 Co60 2.160 . S
C62 O63 1.278 . S
C62 O70 1.224 . S
O63 C62 1.278 . S
C64 O65 1.245 . S
C64 O76 1.232 . S
O65 C64 1.245 . S
O66 Co60 2.058 . S
O66 C92 1.269 . S
O67 Co59 2.074 . S
O67 C92 1.257 . S
H68 C93 0.930 . S
H69 C99 0.930 . S
O70 Co59 2.093 . S
O70 C62 1.224 . S
H71 C103 0.929 . S
H72 C105 0.930 . S
H73 C106 0.930 . S
H74 C104 0.929 . S
H75 C107 0.928 . S
O76 Co60 2.057 . S
O76 C64 1.232 . S
H77 C96 0.929 . S
H78 C97 0.929 . S
H79 C109 0.931 . S
H80 C101 0.929 1_565 S
H81 C110 0.930 . S
H82 C102 0.931 1_565 S
O83 Co59 2.097 . S
O83 C111 1.214 . S
H84 C112 0.929 . S
H85 C113 0.929 . S
H86 C114 0.930 . S
H87 C115 0.929 . S
H88 C117 0.930 . S
H89 C94 0.930 . S
H90 C98 0.930 . S
O91 Co60 2.037 . S
O91 C111 1.234 . S
C92 O66 1.269 . S
C92 O67 1.257 . S
C93 H68 0.930 . S
C93 C96 1.388 . S
C93 C98 1.418 . S
C94 H89 0.930 . S
C94 C97 1.404 . S
C94 C98 1.353 . S
N95 Co60 2.145 . S
N95 C96 1.397 . S
N95 C97 1.334 . S
C96 H77 0.929 . S
C96 C93 1.388 . S
C96 N95 1.397 . S
C97 H78 0.929 . S
C97 C94 1.404 . S
C97 N95 1.334 . S
C98 H90 0.930 . S
C98 C93 1.418 . S
C98 C94 1.353 . S
C99 H69 0.930 . S
C99 N100 1.330 . S
C99 C101 1.446 . S
N100 Co59 2.151 . S
N100 C99 1.330 . S
N100 C104 1.418 . S
C101 H80 0.929 1_545 S
C101 C99 1.446 . S
C101 C102 1.332 . S
C102 H82 0.931 1_545 S
C102 C101 1.332 . S
C102 C103 1.267 . S
C103 H71 0.929 . S
C103 C102 1.267 . S
C103 C104 1.251 . S
C104 H74 0.929 . S
C104 N100 1.418 . S
C104 C103 1.251 . S
C105 H72 0.930 . S
C105 C107 1.406 . S
C105 C110 1.261 . S
C106 H73 0.930 . S
C106 N108 1.325 . S
C106 C109 1.357 . S
C107 H75 0.928 . S
C107 C105 1.406 . S
C107 N108 1.261 . S
N108 Co59 2.214 . S
N108 C106 1.325 . S
N108 C107 1.261 . S
C109 H79 0.931 . S
C109 C106 1.357 . S
C109 C110 1.312 . S
C110 H81 0.930 . S
C110 C105 1.261 . S
C110 C109 1.312 . S
C111 O83 1.214 . S
C111 O91 1.234 . S
C112 H84 0.929 . S
C112 C115 1.391 . S
C112 C117 1.391 . S
C113 H85 0.929 . S
C113 C114 1.390 . S
C113 N116 1.391 . S
C114 H86 0.930 . S
C114 C113 1.390 . S
C114 C115 1.392 . S
C115 H87 0.929 . S
C115 C112 1.391 . S
C115 C114 1.392 . S
N116 Co60 2.257 . S
N116 C113 1.391 . S
N116 C117 1.388 . S
C117 H88 0.930 . S
C117 C112 1.391 . S
C117 N116 1.388 . S
Co118 O120 2.143 . S
Co118 O126 2.074 . S
Co118 O129 2.093 . S
Co118 O142 2.097 . S
Co118 N159 2.151 . S
Co118 N167 2.214 . S
Co119 O120 2.160 . S
Co119 O125 2.058 . S
Co119 O135 2.057 . S
Co119 O150 2.037 . S
Co119 N154 2.145 . S
Co119 N175 2.257 . S
O120 Co118 2.143 . S
O120 Co119 2.160 . S
C121 O122 1.278 . S
C121 O129 1.224 . S
O122 C121 1.278 . S
C123 O124 1.245 . S
C123 O135 1.232 . S
O124 C123 1.245 . S
O125 Co119 2.058 . S
O125 C151 1.269 . S
O126 Co118 2.074 . S
O126 C151 1.257 . S
H127 C152 0.930 . S
H128 C158 0.930 . S
O129 Co118 2.093 . S
O129 C121 1.224 . S
H130 C162 0.929 . S
H131 C164 0.930 . S
H132 C165 0.930 . S
H133 C163 0.929 . S
H134 C166 0.928 . S
O135 Co119 2.057 . S
O135 C123 1.232 . S
H136 C155 0.929 . S
H137 C156 0.929 . S
H138 C168 0.931 . S
H139 C160 0.929 . S
H140 C169 0.930 . S
H141 C161 0.931 . S
O142 Co118 2.097 . S
O142 C170 1.214 . S
H143 C171 0.929 . S
H144 C172 0.929 . S
H145 C173 0.930 . S
H146 C174 0.929 . S
H147 C176 0.930 . S
H148 C153 0.930 . S
H149 C157 0.930 . S
O150 Co119 2.037 . S
O150 C170 1.234 . S
C151 O125 1.269 . S
C151 O126 1.257 . S
C152 H127 0.930 . S
C152 C155 1.388 . S
C152 C157 1.418 . S
C153 H148 0.930 . S
C153 C156 1.404 . S
C153 C157 1.353 . S
N154 Co119 2.145 . S
N154 C155 1.397 . S
N154 C156 1.334 . S
C155 H136 0.929 . S
C155 C152 1.388 . S
C155 N154 1.397 . S
C156 H137 0.929 . S
C156 C153 1.404 . S
C156 N154 1.334 . S
C157 H149 0.930 . S
C157 C152 1.418 . S
C157 C153 1.353 . S
C158 H128 0.930 . S
C158 N159 1.330 . S
C158 C160 1.446 . S
N159 Co118 2.151 . S
N159 C158 1.330 . S
N159 C163 1.418 . S
C160 H139 0.929 . S
C160 C158 1.446 . S
C160 C161 1.332 . S
C161 H141 0.931 . S
C161 C160 1.332 . S
C161 C162 1.267 . S
C162 H130 0.929 . S
C162 C161 1.267 . S
C162 C163 1.251 . S
C163 H133 0.929 . S
C163 N159 1.418 . S
C163 C162 1.251 . S
C164 H131 0.930 . S
C164 C166 1.406 . S
C164 C169 1.261 . S
C165 H132 0.930 . S
C165 N167 1.325 . S
C165 C168 1.357 . S
C166 H134 0.928 . S
C166 C164 1.406 . S
C166 N167 1.261 . S
N167 Co118 2.214 . S
N167 C165 1.325 . S
N167 C166 1.261 . S
C168 H138 0.931 . S
C168 C165 1.357 . S
C168 C169 1.312 . S
C169 H140 0.930 . S
C169 C164 1.261 . S
C169 C168 1.312 . S
C170 O142 1.214 . S
C170 O150 1.234 . S
C171 H143 0.929 . S
C171 C174 1.391 . S
C171 C176 1.391 . S
C172 H144 0.929 . S
C172 C173 1.390 . S
C172 N175 1.391 . S
C173 H145 0.930 . S
C173 C172 1.390 . S
C173 C174 1.392 . S
C174 H146 0.929 . S
C174 C171 1.391 . S
C174 C173 1.392 . S
N175 Co119 2.257 . S
N175 C172 1.391 . S
N175 C176 1.388 . S
C176 H147 0.930 . S
C176 C171 1.391 . S
C176 N175 1.388 . S
Co177 O179 2.143 . S
Co177 O185 2.074 . S
Co177 O188 2.093 . S
Co177 O201 2.097 . S
Co177 N218 2.151 . S
Co177 N226 2.214 . S
Co178 O179 2.160 . S
Co178 O184 2.058 . S
Co178 O194 2.057 . S
Co178 O209 2.037 . S
Co178 N213 2.145 . S
Co178 N234 2.257 . S
O179 Co177 2.143 . S
O179 Co178 2.160 . S
C180 O181 1.278 . S
C180 O188 1.224 . S
O181 C180 1.278 . S
C182 O183 1.245 . S
C182 O194 1.232 . S
O183 C182 1.245 . S
O184 Co178 2.058 . S
O184 C210 1.269 . S
O185 Co177 2.074 . S
O185 C210 1.257 . S
H186 C211 0.930 . S
H187 C217 0.930 . S
O188 Co177 2.093 . S
O188 C180 1.224 . S
H189 C221 0.929 . S
H190 C223 0.930 . S
H191 C224 0.930 . S
H192 C222 0.929 . S
H193 C225 0.928 . S
O194 Co178 2.057 . S
O194 C182 1.232 . S
H195 C214 0.929 . S
H196 C215 0.929 . S
H197 C227 0.931 . S
H198 C219 0.929 1_455 S
H199 C228 0.930 . S
H200 C220 0.931 1_455 S
O201 Co177 2.097 . S
O201 C229 1.214 . S
H202 C230 0.929 . S
H203 C231 0.929 . S
H204 C232 0.930 . S
H205 C233 0.929 . S
H206 C235 0.930 . S
H207 C212 0.930 . S
H208 C216 0.930 . S
O209 Co178 2.037 . S
O209 C229 1.234 . S
C210 O184 1.269 . S
C210 O185 1.257 . S
C211 H186 0.930 . S
C211 C214 1.388 . S
C211 C216 1.418 . S
C212 H207 0.930 . S
C212 C215 1.404 . S
C212 C216 1.353 . S
N213 Co178 2.145 . S
N213 C214 1.397 . S
N213 C215 1.334 . S
C214 H195 0.929 . S
C214 C211 1.388 . S
C214 N213 1.397 . S
C215 H196 0.929 . S
C215 C212 1.404 . S
C215 N213 1.334 . S
C216 H208 0.930 . S
C216 C211 1.418 . S
C216 C212 1.353 . S
C217 H187 0.930 . S
C217 N218 1.330 . S
C217 C219 1.446 . S
N218 Co177 2.151 . S
N218 C217 1.330 . S
N218 C222 1.418 . S
C219 H198 0.929 1_655 S
C219 C217 1.446 . S
C219 C220 1.332 . S
C220 H200 0.931 1_655 S
C220 C219 1.332 . S
C220 C221 1.267 . S
C221 H189 0.929 . S
C221 C220 1.267 . S
C221 C222 1.251 . S
C222 H192 0.929 . S
C222 N218 1.418 . S
C222 C221 1.251 . S
C223 H190 0.930 . S
C223 C225 1.406 . S
C223 C228 1.261 . S
C224 H191 0.930 . S
C224 N226 1.325 . S
C224 C227 1.357 . S
C225 H193 0.928 . S
C225 C223 1.406 . S
C225 N226 1.261 . S
N226 Co177 2.214 . S
N226 C224 1.325 . S
N226 C225 1.261 . S
C227 H197 0.931 . S
C227 C224 1.357 . S
C227 C228 1.312 . S
C228 H199 0.930 . S
C228 C223 1.261 . S
C228 C227 1.312 . S
C229 O201 1.214 . S
C229 O209 1.234 . S
C230 H202 0.929 . S
C230 C233 1.391 . S
C230 C235 1.391 . S
C231 H203 0.929 . S
C231 C232 1.390 . S
C231 N234 1.391 . S
C232 H204 0.930 . S
C232 C231 1.390 . S
C232 C233 1.392 . S
C233 H205 0.929 . S
C233 C230 1.391 . S
C233 C232 1.392 . S
N234 Co178 2.257 . S
N234 C231 1.391 . S
N234 C235 1.388 . S
C235 H206 0.930 . S
C235 C230 1.391 . S
C235 N234 1.388 . S
Co236 O238 2.143 . S
Co236 O244 2.074 . S
Co236 O247 2.093 . S
Co236 O260 2.097 . S
Co236 N277 2.151 . S
Co236 N285 2.214 . S
Co237 O238 2.160 . S
Co237 O243 2.058 . S
Co237 O253 2.057 . S
Co237 O268 2.037 . S
Co237 N272 2.145 . S
Co237 N293 2.257 . S
O238 Co236 2.143 . S
O238 Co237 2.160 . S
C239 O240 1.278 . S
C239 O247 1.224 . S
O240 C239 1.278 . S
C241 O242 1.245 . S
C241 O253 1.232 . S
O242 C241 1.245 . S
O243 Co237 2.058 . S
O243 C269 1.269 . S
O244 Co236 2.074 . S
O244 C269 1.257 . S
H245 C270 0.930 . S
H246 C276 0.930 . S
O247 Co236 2.093 . S
O247 C239 1.224 . S
H248 C280 0.929 . S
H249 C282 0.930 . S
H250 C283 0.930 . S
H251 C281 0.929 . S
H252 C284 0.928 . S
O253 Co237 2.057 . S
O253 C241 1.232 . S
H254 C273 0.929 . S
H255 C274 0.929 . S
H256 C286 0.931 . S
H257 C278 0.929 1_545 S
H258 C287 0.930 . S
H259 C279 0.931 1_545 S
O260 Co236 2.097 . S
O260 C288 1.214 . S
H261 C289 0.929 . S
H262 C290 0.929 . S
H263 C291 0.930 . S
H264 C292 0.929 . S
H265 C294 0.930 . S
H266 C271 0.930 . S
H267 C275 0.930 . S
O268 Co237 2.037 . S
O268 C288 1.234 . S
C269 O243 1.269 . S
C269 O244 1.257 . S
C270 H245 0.930 . S
C270 C273 1.388 . S
C270 C275 1.418 . S
C271 H266 0.930 . S
C271 C274 1.404 . S
C271 C275 1.353 . S
N272 Co237 2.145 . S
N272 C273 1.397 . S
N272 C274 1.334 . S
C273 H254 0.929 . S
C273 C270 1.388 . S
C273 N272 1.397 . S
C274 H255 0.929 . S
C274 C271 1.404 . S
C274 N272 1.334 . S
C275 H267 0.930 . S
C275 C270 1.418 . S
C275 C271 1.353 . S
C276 H246 0.930 . S
C276 N277 1.330 . S
C276 C278 1.446 . S
N277 Co236 2.151 . S
N277 C276 1.330 . S
N277 C281 1.418 . S
C278 H257 0.929 1_565 S
C278 C276 1.446 . S
C278 C279 1.332 . S
C279 H259 0.931 1_565 S
C279 C278 1.332 . S
C279 C280 1.267 . S
C280 H248 0.929 . S
C280 C279 1.267 . S
C280 C281 1.251 . S
C281 H251 0.929 . S
C281 N277 1.418 . S
C281 C280 1.251 . S
C282 H249 0.930 . S
C282 C284 1.406 . S
C282 C287 1.261 . S
C283 H250 0.930 . S
C283 N285 1.325 . S
C283 C286 1.357 . S
C284 H252 0.928 . S
C284 C282 1.406 . S
C284 N285 1.261 . S
N285 Co236 2.214 . S
N285 C283 1.325 . S
N285 C284 1.261 . S
C286 H256 0.931 . S
C286 C283 1.357 . S
C286 C287 1.312 . S
C287 H258 0.930 . S
C287 C282 1.261 . S
C287 C286 1.312 . S
C288 O260 1.214 . S
C288 O268 1.234 . S
C289 H261 0.929 . S
C289 C292 1.391 . S
C289 C294 1.391 . S
C290 H262 0.929 . S
C290 C291 1.390 . S
C290 N293 1.391 . S
C291 H263 0.930 . S
C291 C290 1.390 . S
C291 C292 1.392 . S
C292 H264 0.929 . S
C292 C289 1.391 . S
C292 C291 1.392 . S
N293 Co237 2.257 . S
N293 C290 1.391 . S
N293 C294 1.388 . S
C294 H265 0.930 . S
C294 C289 1.391 . S
C294 N293 1.388 . S
Co295 O297 2.143 . S
Co295 O303 2.074 . S
Co295 O306 2.093 . S
Co295 O319 2.097 . S
Co295 N336 2.151 . S
Co295 N344 2.214 . S
Co296 O297 2.160 . S
Co296 O302 2.058 . S
Co296 O312 2.057 . S
Co296 O327 2.037 . S
Co296 N331 2.145 . S
Co296 N352 2.257 . S
O297 Co295 2.143 . S
O297 Co296 2.160 . S
C298 O299 1.278 . S
C298 O306 1.224 . S
O299 C298 1.278 . S
C300 O301 1.245 . S
C300 O312 1.232 . S
O301 C300 1.245 . S
O302 Co296 2.058 . S
O302 C328 1.269 . S
O303 Co295 2.074 . S
O303 C328 1.257 . S
H304 C329 0.930 . S
H305 C335 0.930 . S
O306 Co295 2.093 . S
O306 C298 1.224 . S
H307 C339 0.929 . S
H308 C341 0.930 . S
H309 C342 0.930 . S
H310 C340 0.929 . S
H311 C343 0.928 . S
O312 Co296 2.057 . S
O312 C300 1.232 . S
H313 C332 0.929 . S
H314 C333 0.929 . S
H315 C345 0.931 . S
H316 C337 0.929 . S
H317 C346 0.930 . S
H318 C338 0.931 . S
O319 Co295 2.097 . S
O319 C347 1.214 . S
H320 C348 0.929 . S
H321 C349 0.929 . S
H322 C350 0.930 1_554 S
H323 C351 0.929 . S
H324 C353 0.930 . S
H325 C330 0.930 . S
H326 C334 0.930 . S
O327 Co296 2.037 . S
O327 C347 1.234 . S
C328 O302 1.269 . S
C328 O303 1.257 . S
C329 H304 0.930 . S
C329 C332 1.388 . S
C329 C334 1.418 . S
C330 H325 0.930 . S
C330 C333 1.404 . S
C330 C334 1.353 . S
N331 Co296 2.145 . S
N331 C332 1.397 . S
N331 C333 1.334 . S
C332 H313 0.929 . S
C332 C329 1.388 . S
C332 N331 1.397 . S
C333 H314 0.929 . S
C333 C330 1.404 . S
C333 N331 1.334 . S
C334 H326 0.930 . S
C334 C329 1.418 . S
C334 C330 1.353 . S
C335 H305 0.930 . S
C335 N336 1.330 . S
C335 C337 1.446 . S
N336 Co295 2.151 . S
N336 C335 1.330 . S
N336 C340 1.418 . S
C337 H316 0.929 . S
C337 C335 1.446 . S
C337 C338 1.332 . S
C338 H318 0.931 . S
C338 C337 1.332 . S
C338 C339 1.267 . S
C339 H307 0.929 . S
C339 C338 1.267 . S
C339 C340 1.251 . S
C340 H310 0.929 . S
C340 N336 1.418 . S
C340 C339 1.251 . S
C341 H308 0.930 . S
C341 C343 1.406 . S
C341 C346 1.261 . S
C342 H309 0.930 . S
C342 N344 1.325 . S
C342 C345 1.357 . S
C343 H311 0.928 . S
C343 C341 1.406 . S
C343 N344 1.261 . S
N344 Co295 2.214 . S
N344 C342 1.325 . S
N344 C343 1.261 . S
C345 H315 0.931 . S
C345 C342 1.357 . S
C345 C346 1.312 . S
C346 H317 0.930 . S
C346 C341 1.261 . S
C346 C345 1.312 . S
C347 O319 1.214 . S
C347 O327 1.234 . S
C348 H320 0.929 . S
C348 C351 1.391 1_556 S
C348 C353 1.391 . S
C349 H321 0.929 . S
C349 C350 1.390 . S
C349 N352 1.391 . S
C350 H322 0.930 1_556 S
C350 C349 1.390 . S
C350 C351 1.392 1_556 S
C351 H323 0.929 . S
C351 C348 1.391 1_554 S
C351 C350 1.392 1_554 S
N352 Co296 2.257 . S
N352 C349 1.391 . S
N352 C353 1.388 . S
C353 H324 0.930 . S
C353 C348 1.391 . S
C353 N352 1.388 . S
Co354 O356 2.143 . S
Co354 O362 2.074 . S
Co354 O365 2.093 . S
Co354 O378 2.097 . S
Co354 N395 2.151 . S
Co354 N403 2.214 . S
Co355 O356 2.160 . S
Co355 O361 2.058 . S
Co355 O371 2.057 . S
Co355 O386 2.037 . S
Co355 N390 2.145 . S
Co355 N411 2.257 . S
O356 Co354 2.143 . S
O356 Co355 2.160 . S
C357 O358 1.278 . S
C357 O365 1.224 . S
O358 C357 1.278 . S
C359 O360 1.245 . S
C359 O371 1.232 . S
O360 C359 1.245 . S
O361 Co355 2.058 . S
O361 C387 1.269 . S
O362 Co354 2.074 . S
O362 C387 1.257 . S
H363 C388 0.930 . S
H364 C394 0.930 . S
O365 Co354 2.093 . S
O365 C357 1.224 . S
H366 C398 0.929 . S
H367 C400 0.930 . S
H368 C401 0.930 . S
H369 C399 0.929 . S
H370 C402 0.928 . S
O371 Co355 2.057 . S
O371 C359 1.232 . S
H372 C391 0.929 . S
H373 C392 0.929 . S
H374 C404 0.931 . S
H375 C396 0.929 1_545 S
H376 C405 0.930 . S
H377 C397 0.931 1_545 S
O378 Co354 2.097 . S
O378 C406 1.214 . S
H379 C407 0.929 . S
H380 C408 0.929 . S
H381 C409 0.930 . S
H382 C410 0.929 . S
H383 C412 0.930 . S
H384 C389 0.930 . S
H385 C393 0.930 . S
O386 Co355 2.037 . S
O386 C406 1.234 . S
C387 O361 1.269 . S
C387 O362 1.257 . S
C388 H363 0.930 . S
C388 C391 1.388 . S
C388 C393 1.418 . S
C389 H384 0.930 . S
C389 C392 1.404 . S
C389 C393 1.353 . S
N390 Co355 2.145 . S
N390 C391 1.397 . S
N390 C392 1.334 . S
C391 H372 0.929 . S
C391 C388 1.388 . S
C391 N390 1.397 . S
C392 H373 0.929 . S
C392 C389 1.404 . S
C392 N390 1.334 . S
C393 H385 0.930 . S
C393 C388 1.418 . S
C393 C389 1.353 . S
C394 H364 0.930 . S
C394 N395 1.330 . S
C394 C396 1.446 . S
N395 Co354 2.151 . S
N395 C394 1.330 . S
N395 C399 1.418 . S
C396 H375 0.929 1_565 S
C396 C394 1.446 . S
C396 C397 1.332 . S
C397 H377 0.931 1_565 S
C397 C396 1.332 . S
C397 C398 1.267 . S
C398 H366 0.929 . S
C398 C397 1.267 . S
C398 C399 1.251 . S
C399 H369 0.929 . S
C399 N395 1.418 . S
C399 C398 1.251 . S
C400 H367 0.930 . S
C400 C402 1.406 . S
C400 C405 1.261 . S
C401 H368 0.930 . S
C401 N403 1.325 . S
C401 C404 1.357 . S
C402 H370 0.928 . S
C402 C400 1.406 . S
C402 N403 1.261 . S
N403 Co354 2.214 . S
N403 C401 1.325 . S
N403 C402 1.261 . S
C404 H374 0.931 . S
C404 C401 1.357 . S
C404 C405 1.312 . S
C405 H376 0.930 . S
C405 C400 1.261 . S
C405 C404 1.312 . S
C406 O378 1.214 . S
C406 O386 1.234 . S
C407 H379 0.929 . S
C407 C410 1.391 . S
C407 C412 1.391 . S
C408 H380 0.929 . S
C408 C409 1.390 . S
C408 N411 1.391 . S
C409 H381 0.930 . S
C409 C408 1.390 . S
C409 C410 1.392 . S
C410 H382 0.929 . S
C410 C407 1.391 . S
C410 C409 1.392 . S
N411 Co355 2.257 . S
N411 C408 1.391 . S
N411 C412 1.388 . S
C412 H383 0.930 . S
C412 C407 1.391 . S
C412 N411 1.388 . S
Co413 O415 2.143 . S
Co413 O421 2.074 . S
Co413 O424 2.093 . S
Co413 O437 2.097 . S
Co413 N454 2.151 . S
Co413 N462 2.214 . S
Co414 O415 2.160 . S
Co414 O420 2.058 . S
Co414 O430 2.057 . S
Co414 O445 2.037 . S
Co414 N449 2.145 . S
Co414 N470 2.257 . S
O415 Co413 2.143 . S
O415 Co414 2.160 . S
C416 O417 1.278 . S
C416 O424 1.224 . S
O417 C416 1.278 . S
C418 O419 1.245 . S
C418 O430 1.232 . S
O419 C418 1.245 . S
O420 Co414 2.058 . S
O420 C446 1.269 . S
O421 Co413 2.074 . S
O421 C446 1.257 . S
H422 C447 0.930 . S
H423 C453 0.930 . S
O424 Co413 2.093 . S
O424 C416 1.224 . S
H425 C457 0.929 . S
H426 C459 0.930 . S
H427 C460 0.930 . S
H428 C458 0.929 . S
H429 C461 0.928 . S
O430 Co414 2.057 . S
O430 C418 1.232 . S
H431 C450 0.929 . S
H432 C451 0.929 . S
H433 C463 0.931 . S
H434 C455 0.929 . S
H435 C464 0.930 . S
H436 C456 0.931 . S
O437 Co413 2.097 . S
O437 C465 1.214 . S
H438 C466 0.929 . S
H439 C467 0.929 . S
H440 C468 0.930 . S
H441 C469 0.929 . S
H442 C471 0.930 . S
H443 C448 0.930 . S
H444 C452 0.930 . S
O445 Co414 2.037 . S
O445 C465 1.234 . S
C446 O420 1.269 . S
C446 O421 1.257 . S
C447 H422 0.930 . S
C447 C450 1.388 . S
C447 C452 1.418 . S
C448 H443 0.930 . S
C448 C451 1.404 . S
C448 C452 1.353 . S
N449 Co414 2.145 . S
N449 C450 1.397 . S
N449 C451 1.334 . S
C450 H431 0.929 . S
C450 C447 1.388 . S
C450 N449 1.397 . S
C451 H432 0.929 . S
C451 C448 1.404 . S
C451 N449 1.334 . S
C452 H444 0.930 . S
C452 C447 1.418 . S
C452 C448 1.353 . S
C453 H423 0.930 . S
C453 N454 1.330 . S
C453 C455 1.446 . S
N454 Co413 2.151 . S
N454 C453 1.330 . S
N454 C458 1.418 . S
C455 H434 0.929 . S
C455 C453 1.446 . S
C455 C456 1.332 . S
C456 H436 0.931 . S
C456 C455 1.332 . S
C456 C457 1.267 . S
C457 H425 0.929 . S
C457 C456 1.267 . S
C457 C458 1.251 . S
C458 H428 0.929 . S
C458 N454 1.418 . S
C458 C457 1.251 . S
C459 H426 0.930 . S
C459 C461 1.406 . S
C459 C464 1.261 . S
C460 H427 0.930 . S
C460 N462 1.325 . S
C460 C463 1.357 . S
C461 H429 0.928 . S
C461 C459 1.406 . S
C461 N462 1.261 . S
N462 Co413 2.214 . S
N462 C460 1.325 . S
N462 C461 1.261 . S
C463 H433 0.931 . S
C463 C460 1.357 . S
C463 C464 1.312 . S
C464 H435 0.930 . S
C464 C459 1.261 . S
C464 C463 1.312 . S
C465 O437 1.214 . S
C465 O445 1.234 . S
C466 H438 0.929 . S
C466 C469 1.391 . S
C466 C471 1.391 . S
C467 H439 0.929 . S
C467 C468 1.390 . S
C467 N470 1.391 . S
C468 H440 0.930 . S
C468 C467 1.390 . S
C468 C469 1.392 . S
C469 H441 0.929 . S
C469 C466 1.391 . S
C469 C468 1.392 . S
N470 Co414 2.257 . S
N470 C467 1.391 . S
N470 C471 1.388 . S
C471 H442 0.930 . S
C471 C466 1.391 . S
C471 N470 1.388 . S
Co472 O474 2.143 . S
Co472 O480 2.074 . S
Co472 O483 2.093 . S
Co472 O496 2.097 . S
Co472 N513 2.151 . S
Co472 N521 2.214 . S
Co473 O474 2.160 . S
Co473 O479 2.058 . S
Co473 O489 2.057 . S
Co473 O504 2.037 . S
Co473 N508 2.145 . S
Co473 N529 2.257 . S
O474 Co472 2.143 . S
O474 Co473 2.160 . S
C475 O476 1.278 . S
C475 O483 1.224 . S
O476 C475 1.278 . S
C477 O478 1.245 . S
C477 O489 1.232 . S
O478 C477 1.245 . S
O479 Co473 2.058 . S
O479 C505 1.269 . S
O480 Co472 2.074 . S
O480 C505 1.257 . S
H481 C506 0.930 . S
H482 C512 0.930 . S
O483 Co472 2.093 . S
O483 C475 1.224 . S
H484 C516 0.929 . S
H485 C518 0.930 . S
H486 C519 0.930 . S
H487 C517 0.929 . S
H488 C520 0.928 . S
O489 Co473 2.057 . S
O489 C477 1.232 . S
H490 C509 0.929 . S
H491 C510 0.929 . S
H492 C522 0.931 . S
H493 C514 0.929 1_655 S
H494 C523 0.930 . S
H495 C515 0.931 1_655 S
O496 Co472 2.097 . S
O496 C524 1.214 . S
H497 C525 0.929 . S
H498 C526 0.929 . S
H499 C527 0.930 1_556 S
H500 C528 0.929 . S
H501 C530 0.930 . S
H502 C507 0.930 . S
H503 C511 0.930 . S
O504 Co473 2.037 . S
O504 C524 1.234 . S
C505 O479 1.269 . S
C505 O480 1.257 . S
C506 H481 0.930 . S
C506 C509 1.388 . S
C506 C511 1.418 . S
C507 H502 0.930 . S
C507 C510 1.404 . S
C507 C511 1.353 . S
N508 Co473 2.145 . S
N508 C509 1.397 . S
N508 C510 1.334 . S
C509 H490 0.929 . S
C509 C506 1.388 . S
C509 N508 1.397 . S
C510 H491 0.929 . S
C510 C507 1.404 . S
C510 N508 1.334 . S
C511 H503 0.930 . S
C511 C506 1.418 . S
C511 C507 1.353 . S
C512 H482 0.930 . S
C512 N513 1.330 . S
C512 C514 1.446 . S
N513 Co472 2.151 . S
N513 C512 1.330 . S
N513 C517 1.418 . S
C514 H493 0.929 1_455 S
C514 C512 1.446 . S
C514 C515 1.332 . S
C515 H495 0.931 1_455 S
C515 C514 1.332 . S
C515 C516 1.267 . S
C516 H484 0.929 . S
C516 C515 1.267 . S
C516 C517 1.251 . S
C517 H487 0.929 . S
C517 N513 1.418 . S
C517 C516 1.251 . S
C518 H485 0.930 . S
C518 C520 1.406 . S
C518 C523 1.261 . S
C519 H486 0.930 . S
C519 N521 1.325 . S
C519 C522 1.357 . S
C520 H488 0.928 . S
C520 C518 1.406 . S
C520 N521 1.261 . S
N521 Co472 2.214 . S
N521 C519 1.325 . S
N521 C520 1.261 . S
C522 H492 0.931 . S
C522 C519 1.357 . S
C522 C523 1.312 . S
C523 H494 0.930 . S
C523 C518 1.261 . S
C523 C522 1.312 . S
C524 O496 1.214 . S
C524 O504 1.234 . S
C525 H497 0.929 . S
C525 C528 1.391 1_554 S
C525 C530 1.391 . S
C526 H498 0.929 . S
C526 C527 1.390 . S
C526 N529 1.391 . S
C527 H499 0.930 1_554 S
C527 C526 1.390 . S
C527 C528 1.392 1_554 S
C528 H500 0.929 . S
C528 C525 1.391 1_556 S
C528 C527 1.392 1_556 S
N529 Co473 2.257 . S
N529 C526 1.391 . S
N529 C530 1.388 . S
C530 H501 0.930 . S
C530 C525 1.391 . S
C530 N529 1.388 . S
Co531 O533 2.143 . S
Co531 O539 2.074 . S
Co531 O542 2.093 . S
Co531 O555 2.097 . S
Co531 N572 2.151 . S
Co531 N580 2.214 . S
Co532 O533 2.160 . S
Co532 O538 2.058 . S
Co532 O548 2.057 . S
Co532 O563 2.037 . S
Co532 N567 2.145 . S
Co532 N588 2.257 . S
O533 Co531 2.143 . S
O533 Co532 2.160 . S
C534 O535 1.278 . S
C534 O542 1.224 . S
O535 C534 1.278 . S
C536 O537 1.245 . S
C536 O548 1.232 . S
O537 C536 1.245 . S
O538 Co532 2.058 . S
O538 C564 1.269 . S
O539 Co531 2.074 . S
O539 C564 1.257 . S
H540 C565 0.930 . S
H541 C571 0.930 . S
O542 Co531 2.093 . S
O542 C534 1.224 . S
H543 C575 0.929 . S
H544 C577 0.930 . S
H545 C578 0.930 . S
H546 C576 0.929 . S
H547 C579 0.928 . S
O548 Co532 2.057 . S
O548 C536 1.232 . S
H549 C568 0.929 . S
H550 C569 0.929 . S
H551 C581 0.931 . S
H552 C573 0.929 1_565 S
H553 C582 0.930 . S
H554 C574 0.931 1_565 S
O555 Co531 2.097 . S
O555 C583 1.214 . S
H556 C584 0.929 . S
H557 C585 0.929 . S
H558 C586 0.930 . S
H559 C587 0.929 . S
H560 C589 0.930 . S
H561 C566 0.930 . S
H562 C570 0.930 . S
O563 Co532 2.037 . S
O563 C583 1.234 . S
C564 O538 1.269 . S
C564 O539 1.257 . S
C565 H540 0.930 . S
C565 C568 1.388 . S
C565 C570 1.418 . S
C566 H561 0.930 . S
C566 C569 1.404 . S
C566 C570 1.353 . S
N567 Co532 2.145 . S
N567 C568 1.397 . S
N567 C569 1.334 . S
C568 H549 0.929 . S
C568 C565 1.388 . S
C568 N567 1.397 . S
C569 H550 0.929 . S
C569 C566 1.404 . S
C569 N567 1.334 . S
C570 H562 0.930 . S
C570 C565 1.418 . S
C570 C566 1.353 . S
C571 H541 0.930 . S
C571 N572 1.330 . S
C571 C573 1.446 . S
N572 Co531 2.151 . S
N572 C571 1.330 . S
N572 C576 1.418 . S
C573 H552 0.929 1_545 S
C573 C571 1.446 . S
C573 C574 1.332 . S
C574 H554 0.931 1_545 S
C574 C573 1.332 . S
C574 C575 1.267 . S
C575 H543 0.929 . S
C575 C574 1.267 . S
C575 C576 1.251 . S
C576 H546 0.929 . S
C576 N572 1.418 . S
C576 C575 1.251 . S
C577 H544 0.930 . S
C577 C579 1.406 . S
C577 C582 1.261 . S
C578 H545 0.930 . S
C578 N580 1.325 . S
C578 C581 1.357 . S
C579 H547 0.928 . S
C579 C577 1.406 . S
C579 N580 1.261 . S
N580 Co531 2.214 . S
N580 C578 1.325 . S
N580 C579 1.261 . S
C581 H551 0.931 . S
C581 C578 1.357 . S
C581 C582 1.312 . S
C582 H553 0.930 . S
C582 C577 1.261 . S
C582 C581 1.312 . S
C583 O555 1.214 . S
C583 O563 1.234 . S
C584 H556 0.929 . S
C584 C587 1.391 . S
C584 C589 1.391 . S
C585 H557 0.929 . S
C585 C586 1.390 . S
C585 N588 1.391 . S
C586 H558 0.930 . S
C586 C585 1.390 . S
C586 C587 1.392 . S
C587 H559 0.929 . S
C587 C584 1.391 . S
C587 C586 1.392 . S
N588 Co532 2.257 . S
N588 C585 1.391 . S
N588 C589 1.388 . S
C589 H560 0.930 . S
C589 C584 1.391 . S
C589 N588 1.388 . S
Co590 O592 2.143 . S
Co590 O598 2.074 . S
Co590 O601 2.093 . S
Co590 O614 2.097 . S
Co590 N631 2.151 . S
Co590 N639 2.214 . S
Co591 O592 2.160 . S
Co591 O597 2.058 . S
Co591 O607 2.057 . S
Co591 O622 2.037 . S
Co591 N626 2.145 . S
Co591 N647 2.257 . S
O592 Co590 2.143 . S
O592 Co591 2.160 . S
C593 O594 1.278 . S
C593 O601 1.224 . S
O594 C593 1.278 . S
C595 O596 1.245 . S
C595 O607 1.232 . S
O596 C595 1.245 . S
O597 Co591 2.058 . S
O597 C623 1.269 . S
O598 Co590 2.074 . S
O598 C623 1.257 . S
H599 C624 0.930 . S
H600 C630 0.930 . S
O601 Co590 2.093 . S
O601 C593 1.224 . S
H602 C634 0.929 . S
H603 C636 0.930 . S
H604 C637 0.930 . S
H605 C635 0.929 . S
H606 C638 0.928 . S
O607 Co591 2.057 . S
O607 C595 1.232 . S
H608 C627 0.929 . S
H609 C628 0.929 . S
H610 C640 0.931 . S
H611 C632 0.929 . S
H612 C641 0.930 . S
H613 C633 0.931 . S
O614 Co590 2.097 . S
O614 C642 1.214 . S
H615 C643 0.929 . S
H616 C644 0.929 . S
H617 C645 0.930 . S
H618 C646 0.929 . S
H619 C648 0.930 . S
H620 C625 0.930 . S
H621 C629 0.930 . S
O622 Co591 2.037 . S
O622 C642 1.234 . S
C623 O597 1.269 . S
C623 O598 1.257 . S
C624 H599 0.930 . S
C624 C627 1.388 . S
C624 C629 1.418 . S
C625 H620 0.930 . S
C625 C628 1.404 . S
C625 C629 1.353 . S
N626 Co591 2.145 . S
N626 C627 1.397 . S
N626 C628 1.334 . S
C627 H608 0.929 . S
C627 C624 1.388 . S
C627 N626 1.397 . S
C628 H609 0.929 . S
C628 C625 1.404 . S
C628 N626 1.334 . S
C629 H621 0.930 . S
C629 C624 1.418 . S
C629 C625 1.353 . S
C630 H600 0.930 . S
C630 N631 1.330 . S
C630 C632 1.446 . S
N631 Co590 2.151 . S
N631 C630 1.330 . S
N631 C635 1.418 . S
C632 H611 0.929 . S
C632 C630 1.446 . S
C632 C633 1.332 . S
C633 H613 0.931 . S
C633 C632 1.332 . S
C633 C634 1.267 . S
C634 H602 0.929 . S
C634 C633 1.267 . S
C634 C635 1.251 . S
C635 H605 0.929 . S
C635 N631 1.418 . S
C635 C634 1.251 . S
C636 H603 0.930 . S
C636 C638 1.406 . S
C636 C641 1.261 . S
C637 H604 0.930 . S
C637 N639 1.325 . S
C637 C640 1.357 . S
C638 H606 0.928 . S
C638 C636 1.406 . S
C638 N639 1.261 . S
N639 Co590 2.214 . S
N639 C637 1.325 . S
N639 C638 1.261 . S
C640 H610 0.931 . S
C640 C637 1.357 . S
C640 C641 1.312 . S
C641 H612 0.930 . S
C641 C636 1.261 . S
C641 C640 1.312 . S
C642 O614 1.214 . S
C642 O622 1.234 . S
C643 H615 0.929 . S
C643 C646 1.391 . S
C643 C648 1.391 . S
C644 H616 0.929 . S
C644 C645 1.390 . S
C644 N647 1.391 . S
C645 H617 0.930 . S
C645 C644 1.390 . S
C645 C646 1.392 . S
C646 H618 0.929 . S
C646 C643 1.391 . S
C646 C645 1.392 . S
N647 Co591 2.257 . S
N647 C644 1.391 . S
N647 C648 1.388 . S
C648 H619 0.930 . S
C648 C643 1.391 . S
C648 N647 1.388 . S
Co649 O651 2.143 . S
Co649 O657 2.074 . S
Co649 O660 2.093 . S
Co649 O673 2.097 . S
Co649 N690 2.151 . S
Co649 N698 2.214 . S
Co650 O651 2.160 . S
Co650 O656 2.058 . S
Co650 O666 2.057 . S
Co650 O681 2.037 . S
Co650 N685 2.145 . S
Co650 N706 2.257 . S
O651 Co649 2.143 . S
O651 Co650 2.160 . S
C652 O653 1.278 . S
C652 O660 1.224 . S
O653 C652 1.278 . S
C654 O655 1.245 . S
C654 O666 1.232 . S
O655 C654 1.245 . S
O656 Co650 2.058 . S
O656 C682 1.269 . S
O657 Co649 2.074 . S
O657 C682 1.257 . S
H658 C683 0.930 . S
H659 C689 0.930 . S
O660 Co649 2.093 . S
O660 C652 1.224 . S
H661 C693 0.929 . S
H662 C695 0.930 . S
H663 C696 0.930 . S
H664 C694 0.929 . S
H665 C697 0.928 . S
O666 Co650 2.057 . S
O666 C654 1.232 . S
H667 C686 0.929 . S
H668 C687 0.929 . S
H669 C699 0.931 . S
H670 C691 0.929 1_455 S
H671 C700 0.930 . S
H672 C692 0.931 1_455 S
O673 Co649 2.097 . S
O673 C701 1.214 . S
H674 C702 0.929 . S
H675 C703 0.929 . S
H676 C704 0.930 . S
H677 C705 0.929 . S
H678 C707 0.930 . S
H679 C684 0.930 . S
H680 C688 0.930 . S
O681 Co650 2.037 . S
O681 C701 1.234 . S
C682 O656 1.269 . S
C682 O657 1.257 . S
C683 H658 0.930 . S
C683 C686 1.388 . S
C683 C688 1.418 . S
C684 H679 0.930 . S
C684 C687 1.404 . S
C684 C688 1.353 . S
N685 Co650 2.145 . S
N685 C686 1.397 . S
N685 C687 1.334 . S
C686 H667 0.929 . S
C686 C683 1.388 . S
C686 N685 1.397 . S
C687 H668 0.929 . S
C687 C684 1.404 . S
C687 N685 1.334 . S
C688 H680 0.930 . S
C688 C683 1.418 . S
C688 C684 1.353 . S
C689 H659 0.930 . S
C689 N690 1.330 . S
C689 C691 1.446 . S
N690 Co649 2.151 . S
N690 C689 1.330 . S
N690 C694 1.418 . S
C691 H670 0.929 1_655 S
C691 C689 1.446 . S
C691 C692 1.332 . S
C692 H672 0.931 1_655 S
C692 C691 1.332 . S
C692 C693 1.267 . S
C693 H661 0.929 . S
C693 C692 1.267 . S
C693 C694 1.251 . S
C694 H664 0.929 . S
C694 N690 1.418 . S
C694 C693 1.251 . S
C695 H662 0.930 . S
C695 C697 1.406 . S
C695 C700 1.261 . S
C696 H663 0.930 . S
C696 N698 1.325 . S
C696 C699 1.357 . S
C697 H665 0.928 . S
C697 C695 1.406 . S
C697 N698 1.261 . S
N698 Co649 2.214 . S
N698 C696 1.325 . S
N698 C697 1.261 . S
C699 H669 0.931 . S
C699 C696 1.357 . S
C699 C700 1.312 . S
C700 H671 0.930 . S
C700 C695 1.261 . S
C700 C699 1.312 . S
C701 O673 1.214 . S
C701 O681 1.234 . S
C702 H674 0.929 . S
C702 C705 1.391 . S
C702 C707 1.391 . S
C703 H675 0.929 . S
C703 C704 1.390 . S
C703 N706 1.391 . S
C704 H676 0.930 . S
C704 C703 1.390 . S
C704 C705 1.392 . S
C705 H677 0.929 . S
C705 C702 1.391 . S
C705 C704 1.392 . S
N706 Co650 2.257 . S
N706 C703 1.391 . S
N706 C707 1.388 . S
C707 H678 0.930 . S
C707 C702 1.391 . S
C707 N706 1.388 . S
H708 C726 0.951 . S
H709 C728 0.951 . S
H710 C730 0.950 . S
H711 C731 0.950 . S
H712 C733 0.950 . S
H713 C736 0.950 . S
H714 C737 0.950 . S
H715 C739 0.950 1_655 S
H716 C740 0.950 . S
H717 C741 0.951 . S
H718 C743 0.951 . S
H719 C745 0.950 . S
H720 C746 0.950 . S
H721 C748 0.950 . S
H722 C751 0.950 . S
H723 C752 0.950 . S
H724 C754 0.950 . S
H725 C755 0.950 . S
C726 H708 0.951 . S
C726 C727 1.366 . S
C726 C728 1.388 . S
C727 C726 1.366 . S
C727 C731 1.385 . S
C728 H709 0.951 . S
C728 C726 1.388 . S
C728 C729 1.366 . S
C729 C728 1.366 . S
C729 C730 1.414 . S
C729 C732 1.499 . S
C730 H710 0.950 . S
C730 C729 1.414 . S
C730 C731 1.374 . S
C731 H711 0.950 . S
C731 C727 1.385 . S
C731 C730 1.374 . S
C732 C729 1.499 . S
C732 C733 1.373 . S
C732 C734 1.389 . S
C733 H712 0.950 . S
C733 C732 1.373 . S
C733 C749 1.377 . S
C734 C732 1.389 . S
C734 C735 1.524 . S
C734 C748 1.377 . S
C735 C734 1.524 . S
C735 C736 1.397 . S
C735 C740 1.363 . S
C736 H713 0.950 . S
C736 C735 1.397 . S
C736 C737 1.334 . S
C737 H714 0.950 . S
C737 C736 1.334 . S
C737 C738 1.287 . S
C738 C737 1.287 . S
C738 C739 1.524 . S
C738 H757 0.913 1_455 S
C739 H715 0.950 1_455 S
C739 C738 1.524 . S
C739 C740 1.415 . S
C740 H716 0.950 . S
C740 C735 1.363 . S
C740 C739 1.415 . S
C741 H717 0.951 . S
C741 C742 1.366 . S
C741 C743 1.388 . S
C742 C741 1.366 . S
C742 C746 1.385 . S
C743 H718 0.951 . S
C743 C741 1.388 . S
C743 C744 1.366 . S
C744 C743 1.366 . S
C744 C745 1.414 . S
C744 C747 1.499 . S
C745 H719 0.950 . S
C745 C744 1.414 . S
C745 C746 1.374 . S
C746 H720 0.950 . S
C746 C742 1.385 . S
C746 C745 1.374 . S
C747 C744 1.499 . S
C747 C748 1.373 . S
C747 C749 1.389 . S
C748 H721 0.950 . S
C748 C734 1.377 . S
C748 C747 1.373 . S
C749 C733 1.377 . S
C749 C747 1.389 . S
C749 C750 1.524 . S
C750 C749 1.524 . S
C750 C751 1.397 . S
C750 C755 1.363 . S
C751 H722 0.950 . S
C751 C750 1.397 . S
C751 C752 1.334 . S
C752 H723 0.950 . S
C752 C751 1.334 . S
C752 C753 1.287 . S
C753 C752 1.287 . S
C753 C754 1.524 . S
C753 H756 0.999 . S
C754 H724 0.950 . S
C754 C753 1.524 . S
C754 C755 1.415 . S
C755 H725 0.950 . S
C755 C750 1.363 . S
C755 C754 1.415 . S
H756 C753 0.999 . S
H757 C738 0.913 1_655 S
H758 C776 0.951 . S
H759 C778 0.951 . S
H760 C780 0.950 . S
H761 C781 0.950 . S
H762 C783 0.950 . S
H763 C786 0.950 . S
H764 C787 0.950 . S
H765 C789 0.950 . S
H766 C790 0.950 . S
H767 C791 0.951 . S
H768 C793 0.951 . S
H769 C795 0.950 . S
H770 C796 0.950 . S
H771 C798 0.950 . S
H772 C801 0.950 . S
H773 C802 0.950 . S
H774 C804 0.950 . S
H775 C805 0.950 . S
C776 H758 0.951 . S
C776 C777 1.366 . S
C776 C778 1.388 . S
C777 C776 1.366 . S
C777 C781 1.385 . S
C778 H759 0.951 . S
C778 C776 1.388 . S
C778 C779 1.366 . S
C779 C778 1.366 . S
C779 C780 1.414 . S
C779 C782 1.499 . S
C780 H760 0.950 . S
C780 C779 1.414 . S
C780 C781 1.374 . S
C781 H761 0.950 . S
C781 C777 1.385 . S
C781 C780 1.374 . S
C782 C779 1.499 . S
C782 C783 1.373 . S
C782 C784 1.389 . S
C783 H762 0.950 . S
C783 C782 1.373 . S
C783 C799 1.377 . S
C784 C782 1.389 . S
C784 C785 1.524 . S
C784 C798 1.377 . S
C785 C784 1.524 . S
C785 C786 1.397 . S
C785 C790 1.363 . S
C786 H763 0.950 . S
C786 C785 1.397 . S
C786 C787 1.334 . S
C787 H764 0.950 . S
C787 C786 1.334 . S
C787 C788 1.287 . S
C788 C787 1.287 . S
C788 C789 1.524 . S
C788 H807 0.913 . S
C789 H765 0.950 . S
C789 C788 1.524 . S
C789 C790 1.415 . S
C790 H766 0.950 . S
C790 C785 1.363 . S
C790 C789 1.415 . S
C791 H767 0.951 . S
C791 C792 1.366 . S
C791 C793 1.388 . S
C792 C791 1.366 . S
C792 C796 1.385 . S
C793 H768 0.951 . S
C793 C791 1.388 . S
C793 C794 1.366 . S
C794 C793 1.366 . S
C794 C795 1.414 . S
C794 C797 1.499 . S
C795 H769 0.950 . S
C795 C794 1.414 . S
C795 C796 1.374 . S
C796 H770 0.950 . S
C796 C792 1.385 . S
C796 C795 1.374 . S
C797 C794 1.499 . S
C797 C798 1.373 . S
C797 C799 1.389 . S
C798 H771 0.950 . S
C798 C784 1.377 . S
C798 C797 1.373 . S
C799 C783 1.377 . S
C799 C797 1.389 . S
C799 C800 1.524 . S
C800 C799 1.524 . S
C800 C801 1.397 . S
C800 C805 1.363 . S
C801 H772 0.950 . S
C801 C800 1.397 . S
C801 C802 1.334 . S
C802 H773 0.950 . S
C802 C801 1.334 . S
C802 C803 1.287 . S
C803 C802 1.287 . S
C803 C804 1.524 . S
C803 H806 0.999 . S
C804 H774 0.950 . S
C804 C803 1.524 . S
C804 C805 1.415 . S
C805 H775 0.950 . S
C805 C800 1.363 . S
C805 C804 1.415 . S
H806 C803 0.999 . S
H807 C788 0.913 . S
H808 C826 0.951 . S
H809 C828 0.951 . S
H810 C830 0.950 . S
H811 C831 0.950 . S
H812 C833 0.950 . S
H813 C836 0.950 . S
H814 C837 0.950 . S
H815 C839 0.950 . S
H816 C840 0.950 . S
H817 C841 0.951 . S
H818 C843 0.951 . S
H819 C845 0.950 . S
H820 C846 0.950 . S
H821 C848 0.950 . S
H822 C851 0.950 . S
H823 C852 0.950 . S
H824 C854 0.950 . S
H825 C855 0.950 . S
C826 H808 0.951 . S
C826 C827 1.366 . S
C826 C828 1.388 . S
C827 C826 1.366 . S
C827 C831 1.385 . S
C828 H809 0.951 . S
C828 C826 1.388 . S
C828 C829 1.366 . S
C829 C828 1.366 . S
C829 C830 1.414 . S
C829 C832 1.499 . S
C830 H810 0.950 . S
C830 C829 1.414 . S
C830 C831 1.374 . S
C831 H811 0.950 . S
C831 C827 1.385 . S
C831 C830 1.374 . S
C832 C829 1.499 . S
C832 C833 1.373 . S
C832 C834 1.389 . S
C833 H812 0.950 . S
C833 C832 1.373 . S
C833 C849 1.377 . S
C834 C832 1.389 . S
C834 C835 1.524 . S
C834 C848 1.377 . S
C835 C834 1.524 . S
C835 C836 1.397 . S
C835 C840 1.363 . S
C836 H813 0.950 . S
C836 C835 1.397 . S
C836 C837 1.334 . S
C837 H814 0.950 . S
C837 C836 1.334 . S
C837 C838 1.287 . S
C838 C837 1.287 . S
C838 C839 1.524 . S
C838 H857 0.913 . S
C839 H815 0.950 . S
C839 C838 1.524 . S
C839 C840 1.415 . S
C840 H816 0.950 . S
C840 C835 1.363 . S
C840 C839 1.415 . S
C841 H817 0.951 . S
C841 C842 1.366 . S
C841 C843 1.388 . S
C842 C841 1.366 . S
C842 C846 1.385 . S
C843 H818 0.951 . S
C843 C841 1.388 . S
C843 C844 1.366 . S
C844 C843 1.366 . S
C844 C845 1.414 . S
C844 C847 1.499 . S
C845 H819 0.950 . S
C845 C844 1.414 . S
C845 C846 1.374 . S
C846 H820 0.950 . S
C846 C842 1.385 . S
C846 C845 1.374 . S
C847 C844 1.499 . S
C847 C848 1.373 . S
C847 C849 1.389 . S
C848 H821 0.950 . S
C848 C834 1.377 . S
C848 C847 1.373 . S
C849 C833 1.377 . S
C849 C847 1.389 . S
C849 C850 1.524 . S
C850 C849 1.524 . S
C850 C851 1.397 . S
C850 C855 1.363 . S
C851 H822 0.950 . S
C851 C850 1.397 . S
C851 C852 1.334 . S
C852 H823 0.950 . S
C852 C851 1.334 . S
C852 C853 1.287 . S
C853 C852 1.287 . S
C853 C854 1.524 . S
C853 H856 0.999 . S
C854 H824 0.950 . S
C854 C853 1.524 . S
C854 C855 1.415 . S
C855 H825 0.950 . S
C855 C850 1.363 . S
C855 C854 1.415 . S
H856 C853 0.999 . S
H857 C838 0.913 . S
H858 C876 0.951 . S
H859 C878 0.951 . S
H860 C880 0.950 . S
H861 C881 0.950 . S
H862 C883 0.950 . S
H863 C886 0.950 . S
H864 C887 0.950 . S
H865 C889 0.950 . S
H866 C890 0.950 . S
H867 C891 0.951 . S
H868 C893 0.951 . S
H869 C895 0.950 . S
H870 C896 0.950 . S
H871 C898 0.950 . S
H872 C901 0.950 . S
H873 C902 0.950 . S
H874 C904 0.950 . S
H875 C905 0.950 . S
C876 H858 0.951 . S
C876 C877 1.366 . S
C876 C878 1.388 . S
C877 C876 1.366 . S
C877 C881 1.385 . S
C878 H859 0.951 . S
C878 C876 1.388 . S
C878 C879 1.366 . S
C879 C878 1.366 . S
C879 C880 1.414 . S
C879 C882 1.499 . S
C880 H860 0.950 . S
C880 C879 1.414 . S
C880 C881 1.374 . S
C881 H861 0.950 . S
C881 C877 1.385 . S
C881 C880 1.374 . S
C882 C879 1.499 . S
C882 C883 1.373 . S
C882 C884 1.389 . S
C883 H862 0.950 . S
C883 C882 1.373 . S
C883 C899 1.377 . S
C884 C882 1.389 . S
C884 C885 1.524 . S
C884 C898 1.377 . S
C885 C884 1.524 . S
C885 C886 1.397 . S
C885 C890 1.363 . S
C886 H863 0.950 . S
C886 C885 1.397 . S
C886 C887 1.334 . S
C887 H864 0.950 . S
C887 C886 1.334 . S
C887 C888 1.287 . S
C888 C887 1.287 . S
C888 C889 1.524 . S
C888 H907 0.913 . S
C889 H865 0.950 . S
C889 C888 1.524 . S
C889 C890 1.415 . S
C890 H866 0.950 . S
C890 C885 1.363 . S
C890 C889 1.415 . S
C891 H867 0.951 . S
C891 C892 1.366 . S
C891 C893 1.388 . S
C892 C891 1.366 . S
C892 C896 1.385 . S
C893 H868 0.951 . S
C893 C891 1.388 . S
C893 C894 1.366 . S
C894 C893 1.366 . S
C894 C895 1.414 . S
C894 C897 1.499 . S
C895 H869 0.950 . S
C895 C894 1.414 . S
C895 C896 1.374 . S
C896 H870 0.950 . S
C896 C892 1.385 . S
C896 C895 1.374 . S
C897 C894 1.499 . S
C897 C898 1.373 . S
C897 C899 1.389 . S
C898 H871 0.950 . S
C898 C884 1.377 . S
C898 C897 1.373 . S
C899 C883 1.377 . S
C899 C897 1.389 . S
C899 C900 1.524 . S
C900 C899 1.524 . S
C900 C901 1.397 . S
C900 C905 1.363 . S
C901 H872 0.950 . S
C901 C900 1.397 . S
C901 C902 1.334 . S
C902 H873 0.950 . S
C902 C901 1.334 . S
C902 C903 1.287 . S
C903 C902 1.287 . S
C903 C904 1.524 . S
C903 H906 0.999 . S
C904 H874 0.950 . S
C904 C903 1.524 . S
C904 C905 1.415 . S
C905 H875 0.950 . S
C905 C900 1.363 . S
C905 C904 1.415 . S
H906 C903 0.999 . S
H907 C888 0.913 . S
H908 C926 0.951 . S
H909 C928 0.951 . S
H910 C930 0.950 . S
H911 C931 0.950 . S
H912 C933 0.950 . S
H913 C936 0.950 . S
H914 C937 0.950 . S
H915 C939 0.950 . S
H916 C940 0.950 . S
H917 C941 0.951 . S
H918 C943 0.951 . S
H919 C945 0.950 . S
H920 C946 0.950 . S
H921 C948 0.950 . S
H922 C951 0.950 . S
H923 C952 0.950 . S
H924 C954 0.950 . S
H925 C955 0.950 . S
C926 H908 0.951 . S
C926 C927 1.366 . S
C926 C928 1.388 . S
C927 C926 1.366 . S
C927 C931 1.385 . S
C928 H909 0.951 . S
C928 C926 1.388 . S
C928 C929 1.366 . S
C929 C928 1.366 . S
C929 C930 1.414 . S
C929 C932 1.499 . S
C930 H910 0.950 . S
C930 C929 1.414 . S
C930 C931 1.374 . S
C931 H911 0.950 . S
C931 C927 1.385 . S
C931 C930 1.374 . S
C932 C929 1.499 . S
C932 C933 1.373 . S
C932 C934 1.389 . S
C933 H912 0.950 . S
C933 C932 1.373 . S
C933 C949 1.377 . S
C934 C932 1.389 . S
C934 C935 1.524 . S
C934 C948 1.377 . S
C935 C934 1.524 . S
C935 C936 1.397 . S
C935 C940 1.363 . S
C936 H913 0.950 . S
C936 C935 1.397 . S
C936 C937 1.334 . S
C937 H914 0.950 . S
C937 C936 1.334 . S
C937 C938 1.287 . S
C938 C937 1.287 . S
C938 C939 1.524 . S
C938 H957 0.913 . S
C939 H915 0.950 . S
C939 C938 1.524 . S
C939 C940 1.415 . S
C940 H916 0.950 . S
C940 C935 1.363 . S
C940 C939 1.415 . S
C941 H917 0.951 . S
C941 C942 1.366 . S
C941 C943 1.388 . S
C942 C941 1.366 . S
C942 C946 1.385 . S
C943 H918 0.951 . S
C943 C941 1.388 . S
C943 C944 1.366 . S
C944 C943 1.366 . S
C944 C945 1.414 . S
C944 C947 1.499 . S
C945 H919 0.950 . S
C945 C944 1.414 . S
C945 C946 1.374 . S
C946 H920 0.950 . S
C946 C942 1.385 . S
C946 C945 1.374 . S
C947 C944 1.499 . S
C947 C948 1.373 . S
C947 C949 1.389 . S
C948 H921 0.950 . S
C948 C934 1.377 . S
C948 C947 1.373 . S
C949 C933 1.377 . S
C949 C947 1.389 . S
C949 C950 1.524 . S
C950 C949 1.524 . S
C950 C951 1.397 . S
C950 C955 1.363 . S
C951 H922 0.950 . S
C951 C950 1.397 . S
C951 C952 1.334 . S
C952 H923 0.950 . S
C952 C951 1.334 . S
C952 C953 1.287 . S
C953 C952 1.287 . S
C953 C954 1.524 . S
C953 H956 0.999 . S
C954 H924 0.950 . S
C954 C953 1.524 . S
C954 C955 1.415 . S
C955 H925 0.950 . S
C955 C950 1.363 . S
C955 C954 1.415 . S
H956 C953 0.999 . S
H957 C938 0.913 . S
H958 C976 0.951 . S
H959 C978 0.951 . S
H960 C980 0.950 . S
H961 C981 0.950 . S
H962 C983 0.950 . S
H963 C986 0.950 . S
H964 C987 0.950 . S
H965 C989 0.950 . S
H966 C990 0.950 . S
H967 C991 0.951 . S
H968 C993 0.951 . S
H969 C995 0.950 . S
H970 C996 0.950 . S
H971 C998 0.950 . S
H972 C1001 0.950 . S
H973 C1002 0.950 . S
H974 C1004 0.950 . S
H975 C1005 0.950 . S
C976 H958 0.951 . S
C976 C977 1.366 . S
C976 C978 1.388 . S
C977 C976 1.366 . S
C977 C981 1.385 . S
C978 H959 0.951 . S
C978 C976 1.388 . S
C978 C979 1.366 . S
C979 C978 1.366 . S
C979 C980 1.414 . S
C979 C982 1.499 . S
C980 H960 0.950 . S
C980 C979 1.414 . S
C980 C981 1.374 . S
C981 H961 0.950 . S
C981 C977 1.385 . S
C981 C980 1.374 . S
C982 C979 1.499 . S
C982 C983 1.373 . S
C982 C984 1.389 . S
C983 H962 0.950 . S
C983 C982 1.373 . S
C983 C999 1.377 . S
C984 C982 1.389 . S
C984 C985 1.524 . S
C984 C998 1.377 . S
C985 C984 1.524 . S
C985 C986 1.397 . S
C985 C990 1.363 . S
C986 H963 0.950 . S
C986 C985 1.397 . S
C986 C987 1.334 . S
C987 H964 0.950 . S
C987 C986 1.334 . S
C987 C988 1.287 . S
C988 C987 1.287 . S
C988 C989 1.524 . S
C988 H1007 0.913 . S
C989 H965 0.950 . S
C989 C988 1.524 . S
C989 C990 1.415 . S
C990 H966 0.950 . S
C990 C985 1.363 . S
C990 C989 1.415 . S
C991 H967 0.951 . S
C991 C992 1.366 . S
C991 C993 1.388 . S
C992 C991 1.366 . S
C992 C996 1.385 . S
C993 H968 0.951 . S
C993 C991 1.388 . S
C993 C994 1.366 . S
C994 C993 1.366 . S
C994 C995 1.414 . S
C994 C997 1.499 . S
C995 H969 0.950 . S
C995 C994 1.414 . S
C995 C996 1.374 . S
C996 H970 0.950 . S
C996 C992 1.385 . S
C996 C995 1.374 . S
C997 C994 1.499 . S
C997 C998 1.373 . S
C997 C999 1.389 . S
C998 H971 0.950 . S
C998 C984 1.377 . S
C998 C997 1.373 . S
C999 C983 1.377 . S
C999 C997 1.389 . S
C999 C1000 1.524 . S
C1000 C999 1.524 . S
C1000 C1001 1.397 . S
C1000 C1005 1.363 . S
C1001 H972 0.950 . S
C1001 C1000 1.397 . S
C1001 C1002 1.334 . S
C1002 H973 0.950 . S
C1002 C1001 1.334 . S
C1002 C1003 1.287 . S
C1003 C1002 1.287 . S
C1003 C1004 1.524 . S
C1003 H1006 0.999 . S
C1004 H974 0.950 . S
C1004 C1003 1.524 . S
C1004 C1005 1.415 . S
C1005 H975 0.950 . S
C1005 C1000 1.363 . S
C1005 C1004 1.415 . S
H1006 C1003 0.999 . S
H1007 C988 0.913 . S
H1008 C1026 0.951 . S
H1009 C1028 0.951 . S
H1010 C1030 0.950 . S
H1011 C1031 0.950 . S
H1012 C1033 0.950 . S
H1013 C1036 0.950 . S
H1014 C1037 0.950 . S
H1015 C1039 0.950 . S
H1016 C1040 0.950 . S
H1017 C1041 0.951 . S
H1018 C1043 0.951 . S
H1019 C1045 0.950 . S
H1020 C1046 0.950 . S
H1021 C1048 0.950 . S
H1022 C1051 0.950 . S
H1023 C1052 0.950 . S
H1024 C1054 0.950 . S
H1025 C1055 0.950 . S
C1026 H1008 0.951 . S
C1026 C1027 1.366 . S
C1026 C1028 1.388 . S
C1027 C1026 1.366 . S
C1027 C1031 1.385 . S
C1028 H1009 0.951 . S
C1028 C1026 1.388 . S
C1028 C1029 1.366 . S
C1029 C1028 1.366 . S
C1029 C1030 1.414 . S
C1029 C1032 1.499 . S
C1030 H1010 0.950 . S
C1030 C1029 1.414 . S
C1030 C1031 1.374 . S
C1031 H1011 0.950 . S
C1031 C1027 1.385 . S
C1031 C1030 1.374 . S
C1032 C1029 1.499 . S
C1032 C1033 1.373 . S
C1032 C1034 1.389 . S
C1033 H1012 0.950 . S
C1033 C1032 1.373 . S
C1033 C1049 1.377 . S
C1034 C1032 1.389 . S
C1034 C1035 1.524 . S
C1034 C1048 1.377 . S
C1035 C1034 1.524 . S
C1035 C1036 1.397 . S
C1035 C1040 1.363 . S
C1036 H1013 0.950 . S
C1036 C1035 1.397 . S
C1036 C1037 1.334 . S
C1037 H1014 0.950 . S
C1037 C1036 1.334 . S
C1037 C1038 1.287 . S
C1038 C1037 1.287 . S
C1038 C1039 1.524 . S
C1038 H1057 0.913 . S
C1039 H1015 0.950 . S
C1039 C1038 1.524 . S
C1039 C1040 1.415 . S
C1040 H1016 0.950 . S
C1040 C1035 1.363 . S
C1040 C1039 1.415 . S
C1041 H1017 0.951 . S
C1041 C1042 1.366 . S
C1041 C1043 1.388 . S
C1042 C1041 1.366 . S
C1042 C1046 1.385 . S
C1043 H1018 0.951 . S
C1043 C1041 1.388 . S
C1043 C1044 1.366 . S
C1044 C1043 1.366 . S
C1044 C1045 1.414 . S
C1044 C1047 1.499 . S
C1045 H1019 0.950 . S
C1045 C1044 1.414 . S
C1045 C1046 1.374 . S
C1046 H1020 0.950 . S
C1046 C1042 1.385 . S
C1046 C1045 1.374 . S
C1047 C1044 1.499 . S
C1047 C1048 1.373 . S
C1047 C1049 1.389 . S
C1048 H1021 0.950 . S
C1048 C1034 1.377 . S
C1048 C1047 1.373 . S
C1049 C1033 1.377 . S
C1049 C1047 1.389 . S
C1049 C1050 1.524 . S
C1050 C1049 1.524 . S
C1050 C1051 1.397 . S
C1050 C1055 1.363 . S
C1051 H1022 0.950 . S
C1051 C1050 1.397 . S
C1051 C1052 1.334 . S
C1052 H1023 0.950 . S
C1052 C1051 1.334 . S
C1052 C1053 1.287 . S
C1053 C1052 1.287 . S
C1053 C1054 1.524 . S
C1053 H1056 0.999 . S
C1054 H1024 0.950 . S
C1054 C1053 1.524 . S
C1054 C1055 1.415 . S
C1055 H1025 0.950 . S
C1055 C1050 1.363 . S
C1055 C1054 1.415 . S
H1056 C1053 0.999 . S
H1057 C1038 0.913 . S
H1058 C1076 0.951 . S
H1059 C1078 0.951 . S
H1060 C1080 0.950 . S
H1061 C1081 0.950 . S
H1062 C1083 0.950 . S
H1063 C1086 0.950 . S
H1064 C1087 0.950 . S
H1065 C1089 0.955 1_455 S
H1066 C1090 0.952 . S
H1067 C1091 0.951 . S
H1068 C1093 0.951 . S
H1069 C1095 0.950 . S
H1070 C1096 0.950 . S
H1071 C1098 0.950 . S
H1072 C1101 0.950 . S
H1073 C1102 0.950 . S
H1074 C1104 0.955 1_655 S
H1075 C1105 0.952 . S
C1076 H1058 0.951 . S
C1076 C1077 1.366 . S
C1076 C1078 1.388 . S
C1077 C1076 1.366 . S
C1077 C1081 1.385 . S
C1078 H1059 0.951 . S
C1078 C1076 1.388 . S
C1078 C1079 1.366 . S
C1079 C1078 1.366 . S
C1079 C1080 1.414 . S
C1079 C1082 1.499 . S
C1080 H1060 0.950 . S
C1080 C1079 1.414 . S
C1080 C1081 1.374 . S
C1081 H1061 0.950 . S
C1081 C1077 1.385 . S
C1081 C1080 1.374 . S
C1082 C1079 1.499 . S
C1082 C1083 1.373 . S
C1082 C1084 1.389 . S
C1083 H1062 0.950 . S
C1083 C1082 1.373 . S
C1083 C1099 1.377 1_655 S
C1084 C1082 1.389 . S
C1084 C1085 1.524 . S
C1084 C1098 1.377 1_655 S
C1085 C1084 1.524 . S
C1085 C1086 1.397 . S
C1085 C1090 1.368 1_655 S
C1086 H1063 0.950 . S
C1086 C1085 1.397 . S
C1086 C1087 1.334 . S
C1087 H1064 0.950 . S
C1087 C1086 1.334 . S
C1087 C1088 1.287 . S
C1088 C1087 1.287 . S
C1088 C1089 1.523 . S
C1088 H1107 0.913 . S
C1089 H1065 0.955 1_655 S
C1089 C1088 1.523 . S
C1089 C1090 1.404 1_655 S
C1090 H1066 0.952 . S
C1090 C1085 1.368 1_455 S
C1090 C1089 1.404 1_455 S
C1091 H1067 0.951 . S
C1091 C1092 1.366 . S
C1091 C1093 1.388 . S
C1092 C1091 1.366 . S
C1092 C1096 1.385 . S
C1093 H1068 0.951 . S
C1093 C1091 1.388 . S
C1093 C1094 1.366 . S
C1094 C1093 1.366 . S
C1094 C1095 1.414 . S
C1094 C1097 1.499 . S
C1095 H1069 0.950 . S
C1095 C1094 1.414 . S
C1095 C1096 1.374 . S
C1096 H1070 0.950 . S
C1096 C1092 1.385 . S
C1096 C1095 1.374 . S
C1097 C1094 1.499 . S
C1097 C1098 1.373 . S
C1097 C1099 1.389 . S
C1098 H1071 0.950 . S
C1098 C1084 1.377 1_455 S
C1098 C1097 1.373 . S
C1099 C1083 1.377 1_455 S
C1099 C1097 1.389 . S
C1099 C1100 1.524 . S
C1100 C1099 1.524 . S
C1100 C1101 1.397 . S
C1100 C1105 1.369 1_455 S
C1101 H1072 0.950 . S
C1101 C1100 1.397 . S
C1101 C1102 1.334 . S
C1102 H1073 0.950 . S
C1102 C1101 1.334 . S
C1102 C1103 1.287 . S
C1103 C1102 1.287 . S
C1103 C1104 1.523 . S
C1103 H1106 0.999 . S
C1104 H1074 0.955 1_455 S
C1104 C1103 1.523 . S
C1104 C1105 1.404 1_455 S
C1105 H1075 0.952 . S
C1105 C1100 1.369 1_655 S
C1105 C1104 1.404 1_655 S
H1106 C1103 0.999 . S
H1107 C1088 0.913 . S
H1108 C1126 0.951 . S
H1109 C1128 0.951 . S
H1110 C1130 0.950 . S
H1111 C1131 0.950 . S
H1112 C1133 0.950 . S
H1113 C1136 0.950 . S
H1114 C1137 0.950 . S
H1115 C1139 0.941 . S
H1116 C1140 0.950 . S
H1117 C1141 0.951 . S
H1118 C1143 0.951 . S
H1119 C1145 0.950 . S
H1120 C1146 0.950 . S
H1121 C1148 0.950 . S
H1122 C1151 0.950 . S
H1123 C1152 0.950 . S
H1124 C1154 0.941 . S
H1125 C1155 0.950 . S
C1126 H1108 0.951 . S
C1126 C1127 1.366 . S
C1126 C1128 1.388 . S
C1127 C1126 1.366 . S
C1127 C1131 1.385 . S
C1128 H1109 0.951 . S
C1128 C1126 1.388 . S
C1128 C1129 1.366 . S
C1129 C1128 1.366 . S
C1129 C1130 1.414 . S
C1129 C1132 1.499 . S
C1130 H1110 0.950 . S
C1130 C1129 1.414 . S
C1130 C1131 1.374 . S
C1131 H1111 0.950 . S
C1131 C1127 1.385 . S
C1131 C1130 1.374 . S
C1132 C1129 1.499 . S
C1132 C1133 1.373 . S
C1132 C1134 1.389 . S
C1133 H1112 0.950 . S
C1133 C1132 1.373 . S
C1133 C1149 1.377 1_545 S
C1134 C1132 1.389 . S
C1134 C1135 1.524 . S
C1134 C1148 1.377 1_545 S
C1135 C1134 1.524 . S
C1135 C1136 1.397 . S
C1135 C1140 1.363 1_545 S
C1136 H1113 0.950 . S
C1136 C1135 1.397 . S
C1136 C1137 1.334 . S
C1137 H1114 0.950 . S
C1137 C1136 1.334 . S
C1137 C1138 1.287 . S
C1138 C1137 1.287 . S
C1138 C1139 1.526 1_545 S
C1138 H1157 0.913 . S
C1139 H1115 0.941 . S
C1139 C1138 1.526 1_565 S
C1139 C1140 1.424 . S
C1140 H1116 0.950 . S
C1140 C1135 1.363 1_565 S
C1140 C1139 1.424 . S
C1141 H1117 0.951 . S
C1141 C1142 1.366 . S
C1141 C1143 1.388 . S
C1142 C1141 1.366 . S
C1142 C1146 1.385 . S
C1143 H1118 0.951 . S
C1143 C1141 1.388 . S
C1143 C1144 1.366 . S
C1144 C1143 1.366 . S
C1144 C1145 1.414 . S
C1144 C1147 1.499 . S
C1145 H1119 0.950 . S
C1145 C1144 1.414 . S
C1145 C1146 1.374 . S
C1146 H1120 0.950 . S
C1146 C1142 1.385 . S
C1146 C1145 1.374 . S
C1147 C1144 1.499 . S
C1147 C1148 1.373 . S
C1147 C1149 1.389 . S
C1148 H1121 0.950 . S
C1148 C1134 1.377 1_565 S
C1148 C1147 1.373 . S
C1149 C1133 1.377 1_565 S
C1149 C1147 1.389 . S
C1149 C1150 1.524 . S
C1150 C1149 1.524 . S
C1150 C1151 1.397 . S
C1150 C1155 1.363 1_565 S
C1151 H1122 0.950 . S
C1151 C1150 1.397 . S
C1151 C1152 1.334 . S
C1152 H1123 0.950 . S
C1152 C1151 1.334 . S
C1152 C1153 1.287 . S
C1153 C1152 1.287 . S
C1153 C1154 1.526 1_565 S
C1153 H1156 0.999 . S
C1154 H1124 0.941 . S
C1154 C1153 1.526 1_545 S
C1154 C1155 1.424 . S
C1155 H1125 0.950 . S
C1155 C1150 1.363 1_545 S
C1155 C1154 1.424 . S
H1156 C1153 0.999 . S
H1157 C1138 0.913 . S
H1158 C1176 0.951 . S
H1159 C1178 0.951 . S
H1160 C1180 0.950 . S
H1161 C1181 0.950 . S
H1162 C1183 0.950 . S
H1163 C1186 0.950 . S
H1164 C1187 0.950 . S
H1165 C1189 0.950 . S
H1166 C1190 0.950 . S
H1167 C1191 0.951 . S
H1168 C1193 0.951 . S
H1169 C1195 0.950 . S
H1170 C1196 0.950 . S
H1171 C1198 0.950 . S
H1172 C1201 0.950 . S
H1173 C1202 0.950 . S
H1174 C1204 0.950 . S
H1175 C1205 0.950 . S
C1176 H1158 0.951 . S
C1176 C1177 1.366 . S
C1176 C1178 1.388 . S
C1177 C1176 1.366 . S
C1177 C1181 1.385 . S
C1178 H1159 0.951 . S
C1178 C1176 1.388 . S
C1178 C1179 1.366 . S
C1179 C1178 1.366 . S
C1179 C1180 1.414 . S
C1179 C1182 1.499 . S
C1180 H1160 0.950 . S
C1180 C1179 1.414 . S
C1180 C1181 1.374 . S
C1181 H1161 0.950 . S
C1181 C1177 1.385 . S
C1181 C1180 1.374 . S
C1182 C1179 1.499 . S
C1182 C1183 1.373 . S
C1182 C1184 1.389 . S
C1183 H1162 0.950 . S
C1183 C1182 1.373 . S
C1183 C1199 1.377 . S
C1184 C1182 1.389 . S
C1184 C1185 1.524 . S
C1184 C1198 1.377 . S
C1185 C1184 1.524 . S
C1185 C1186 1.397 . S
C1185 C1190 1.363 . S
C1186 H1163 0.950 . S
C1186 C1185 1.397 . S
C1186 C1187 1.334 . S
C1187 H1164 0.950 . S
C1187 C1186 1.334 . S
C1187 C1188 1.287 . S
C1188 C1187 1.287 . S
C1188 C1189 1.524 . S
C1188 H1207 0.913 . S
C1189 H1165 0.950 . S
C1189 C1188 1.524 . S
C1189 C1190 1.415 . S
C1190 H1166 0.950 . S
C1190 C1185 1.363 . S
C1190 C1189 1.415 . S
C1191 H1167 0.951 . S
C1191 C1192 1.366 . S
C1191 C1193 1.388 . S
C1192 C1191 1.366 . S
C1192 C1196 1.385 . S
C1193 H1168 0.951 . S
C1193 C1191 1.388 . S
C1193 C1194 1.366 . S
C1194 C1193 1.366 . S
C1194 C1195 1.414 . S
C1194 C1197 1.499 . S
C1195 H1169 0.950 . S
C1195 C1194 1.414 . S
C1195 C1196 1.374 . S
C1196 H1170 0.950 . S
C1196 C1192 1.385 . S
C1196 C1195 1.374 . S
C1197 C1194 1.499 . S
C1197 C1198 1.373 . S
C1197 C1199 1.389 . S
C1198 H1171 0.950 . S
C1198 C1184 1.377 . S
C1198 C1197 1.373 . S
C1199 C1183 1.377 . S
C1199 C1197 1.389 . S
C1199 C1200 1.524 . S
C1200 C1199 1.524 . S
C1200 C1201 1.397 . S
C1200 C1205 1.363 . S
C1201 H1172 0.950 . S
C1201 C1200 1.397 . S
C1201 C1202 1.334 . S
C1202 H1173 0.950 . S
C1202 C1201 1.334 . S
C1202 C1203 1.287 . S
C1203 C1202 1.287 . S
C1203 C1204 1.524 . S
C1203 H1206 0.999 . S
C1204 H1174 0.950 . S
C1204 C1203 1.524 . S
C1204 C1205 1.415 . S
C1205 H1175 0.950 . S
C1205 C1200 1.363 . S
C1205 C1204 1.415 . S
H1206 C1203 0.999 . S
H1207 C1188 0.913 . S
H1208 C1226 0.951 . S
H1209 C1228 0.951 . S
H1210 C1230 0.950 . S
H1211 C1231 0.950 . S
H1212 C1233 0.950 . S
H1213 C1236 0.950 . S
H1214 C1237 0.950 . S
H1215 C1239 0.950 . S
H1216 C1240 0.950 . S
H1217 C1241 0.951 . S
H1218 C1243 0.951 . S
H1219 C1245 0.950 . S
H1220 C1246 0.950 . S
H1221 C1248 0.950 . S
H1222 C1251 0.950 . S
H1223 C1252 0.950 . S
H1224 C1254 0.950 . S
H1225 C1255 0.950 . S
C1226 H1208 0.951 . S
C1226 C1227 1.366 . S
C1226 C1228 1.388 . S
C1227 C1226 1.366 . S
C1227 C1231 1.385 . S
C1228 H1209 0.951 . S
C1228 C1226 1.388 . S
C1228 C1229 1.366 . S
C1229 C1228 1.366 . S
C1229 C1230 1.414 . S
C1229 C1232 1.499 . S
C1230 H1210 0.950 . S
C1230 C1229 1.414 . S
C1230 C1231 1.374 . S
C1231 H1211 0.950 . S
C1231 C1227 1.385 . S
C1231 C1230 1.374 . S
C1232 C1229 1.499 . S
C1232 C1233 1.373 . S
C1232 C1234 1.389 . S
C1233 H1212 0.950 . S
C1233 C1232 1.373 . S
C1233 C1249 1.377 1_655 S
C1234 C1232 1.389 . S
C1234 C1235 1.524 . S
C1234 C1248 1.377 1_655 S
C1235 C1234 1.524 . S
C1235 C1236 1.397 . S
C1235 C1240 1.363 . S
C1236 H1213 0.950 . S
C1236 C1235 1.397 . S
C1236 C1237 1.334 . S
C1237 H1214 0.950 . S
C1237 C1236 1.334 . S
C1237 C1238 1.287 . S
C1238 C1237 1.287 . S
C1238 C1239 1.524 . S
C1238 H1257 0.913 . S
C1239 H1215 0.950 . S
C1239 C1238 1.524 . S
C1239 C1240 1.415 . S
C1240 H1216 0.950 . S
C1240 C1235 1.363 . S
C1240 C1239 1.415 . S
C1241 H1217 0.951 . S
C1241 C1242 1.366 . S
C1241 C1243 1.388 . S
C1242 C1241 1.366 . S
C1242 C1246 1.385 . S
C1243 H1218 0.951 . S
C1243 C1241 1.388 . S
C1243 C1244 1.366 . S
C1244 C1243 1.366 . S
C1244 C1245 1.414 . S
C1244 C1247 1.499 . S
C1245 H1219 0.950 . S
C1245 C1244 1.414 . S
C1245 C1246 1.374 . S
C1246 H1220 0.950 . S
C1246 C1242 1.385 . S
C1246 C1245 1.374 . S
C1247 C1244 1.499 . S
C1247 C1248 1.373 . S
C1247 C1249 1.389 . S
C1248 H1221 0.950 . S
C1248 C1234 1.377 1_455 S
C1248 C1247 1.373 . S
C1249 C1233 1.377 1_455 S
C1249 C1247 1.389 . S
C1249 C1250 1.524 . S
C1250 C1249 1.524 . S
C1250 C1251 1.397 . S
C1250 C1255 1.363 . S
C1251 H1222 0.950 . S
C1251 C1250 1.397 . S
C1251 C1252 1.334 . S
C1252 H1223 0.950 . S
C1252 C1251 1.334 . S
C1252 C1253 1.287 . S
C1253 C1252 1.287 . S
C1253 C1254 1.524 . S
C1253 H1256 0.999 . S
C1254 H1224 0.950 . S
C1254 C1253 1.524 . S
C1254 C1255 1.415 . S
C1255 H1225 0.950 . S
C1255 C1250 1.363 . S
C1255 C1254 1.415 . S
H1256 C1253 0.999 . S
H1257 C1238 0.913 . S
H1258 C1276 0.951 . S
H1259 C1278 0.951 1_556 S
H1260 C1280 0.950 . S
H1261 C1281 0.950 . S
H1262 C1283 0.950 . S
H1263 C1286 0.950 . S
H1264 C1287 0.950 . S
H1265 C1289 0.950 . S
H1266 C1290 0.950 . S
H1267 C1291 0.951 . S
H1268 C1293 0.951 1_554 S
H1269 C1295 0.950 . S
H1270 C1296 0.950 . S
H1271 C1298 0.950 . S
H1272 C1301 0.950 . S
H1273 C1302 0.950 . S
H1274 C1304 0.950 . S
H1275 C1305 0.950 . S
C1276 H1258 0.951 . S
C1276 C1277 1.366 . S
C1276 C1278 1.388 . S
C1277 C1276 1.366 . S
C1277 C1281 1.385 . S
C1278 H1259 0.951 1_554 S
C1278 C1276 1.388 . S
C1278 C1279 1.366 . S
C1279 C1278 1.366 . S
C1279 C1280 1.414 . S
C1279 C1282 1.499 . S
C1280 H1260 0.950 . S
C1280 C1279 1.414 . S
C1280 C1281 1.374 . S
C1281 H1261 0.950 . S
C1281 C1277 1.385 . S
C1281 C1280 1.374 . S
C1282 C1279 1.499 . S
C1282 C1283 1.373 . S
C1282 C1284 1.389 1_554 S
C1283 H1262 0.950 . S
C1283 C1282 1.373 . S
C1283 C1299 1.377 1_565 S
C1284 C1282 1.389 1_556 S
C1284 C1285 1.524 . S
C1284 C1298 1.377 1_565 S
C1285 C1284 1.524 . S
C1285 C1286 1.397 . S
C1285 C1290 1.363 . S
C1286 H1263 0.950 . S
C1286 C1285 1.397 . S
C1286 C1287 1.334 . S
C1287 H1264 0.950 . S
C1287 C1286 1.334 . S
C1287 C1288 1.287 . S
C1288 C1287 1.287 . S
C1288 C1289 1.524 . S
C1288 H1307 0.913 . S
C1289 H1265 0.950 . S
C1289 C1288 1.524 . S
C1289 C1290 1.415 . S
C1290 H1266 0.950 . S
C1290 C1285 1.363 . S
C1290 C1289 1.415 . S
C1291 H1267 0.951 . S
C1291 C1292 1.366 . S
C1291 C1293 1.388 . S
C1292 C1291 1.366 . S
C1292 C1296 1.385 . S
C1293 H1268 0.951 1_556 S
C1293 C1291 1.388 . S
C1293 C1294 1.366 . S
C1294 C1293 1.366 . S
C1294 C1295 1.414 . S
C1294 C1297 1.499 . S
C1295 H1269 0.950 . S
C1295 C1294 1.414 . S
C1295 C1296 1.374 . S
C1296 H1270 0.950 . S
C1296 C1292 1.385 . S
C1296 C1295 1.374 . S
C1297 C1294 1.499 . S
C1297 C1298 1.373 . S
C1297 C1299 1.389 1_556 S
C1298 H1271 0.950 . S
C1298 C1284 1.377 1_545 S
C1298 C1297 1.373 . S
C1299 C1283 1.377 1_545 S
C1299 C1297 1.389 1_554 S
C1299 C1300 1.524 . S
C1300 C1299 1.524 . S
C1300 C1301 1.397 . S
C1300 C1305 1.363 . S
C1301 H1272 0.950 . S
C1301 C1300 1.397 . S
C1301 C1302 1.334 . S
C1302 H1273 0.950 . S
C1302 C1301 1.334 . S
C1302 C1303 1.287 . S
C1303 C1302 1.287 . S
C1303 C1304 1.524 . S
C1303 H1306 0.999 . S
C1304 H1274 0.950 . S
C1304 C1303 1.524 . S
C1304 C1305 1.415 . S
C1305 H1275 0.950 . S
C1305 C1300 1.363 . S
C1305 C1304 1.415 . S
H1306 C1303 0.999 . S
H1307 C1288 0.913 . S
H1308 C1326 0.951 . S
H1309 C1328 0.951 . S
H1310 C1330 0.950 . S
H1311 C1331 0.950 . S
H1312 C1333 0.950 . S
H1313 C1336 0.950 . S
H1314 C1337 0.950 . S
H1315 C1339 0.950 . S
H1316 C1340 0.950 . S
H1317 C1341 0.956 . S
H1318 C1343 0.951 . S
H1319 C1345 0.950 . S
H1320 C1346 0.950 . S
H1321 C1348 0.950 . S
H1322 C1351 0.937 1_556 S
H1323 C1352 0.950 . S
H1324 C1354 0.950 . S
H1325 C1355 0.950 . S
C1326 H1308 0.951 . S
C1326 C1327 1.366 . S
C1326 C1328 1.388 . S
C1327 C1326 1.366 . S
C1327 C1331 1.385 . S
C1328 H1309 0.951 . S
C1328 C1326 1.388 . S
C1328 C1329 1.366 . S
C1329 C1328 1.366 . S
C1329 C1330 1.414 . S
C1329 C1332 1.499 . S
C1330 H1310 0.950 . S
C1330 C1329 1.414 . S
C1330 C1331 1.374 . S
C1331 H1311 0.950 . S
C1331 C1327 1.385 . S
C1331 C1330 1.374 . S
C1332 C1329 1.499 . S
C1332 C1333 1.373 . S
C1332 C1334 1.389 . S
C1333 H1312 0.950 . S
C1333 C1332 1.373 . S
C1333 C1349 1.377 . S
C1334 C1332 1.389 . S
C1334 C1335 1.524 . S
C1334 C1348 1.377 . S
C1335 C1334 1.524 . S
C1335 C1336 1.397 . S
C1335 C1340 1.363 . S
C1336 H1313 0.950 . S
C1336 C1335 1.397 . S
C1336 C1337 1.334 . S
C1337 H1314 0.950 . S
C1337 C1336 1.334 . S
C1337 C1338 1.287 . S
C1338 C1337 1.287 . S
C1338 C1339 1.524 . S
C1338 H1357 0.913 . S
C1339 H1315 0.950 . S
C1339 C1338 1.524 . S
C1339 C1340 1.415 . S
C1340 H1316 0.950 . S
C1340 C1335 1.363 . S
C1340 C1339 1.415 . S
C1341 H1317 0.956 . S
C1341 C1342 1.389 . S
C1341 C1343 1.361 1_556 S
C1342 C1341 1.389 . S
C1342 C1346 1.385 . S
C1343 H1318 0.951 . S
C1343 C1341 1.361 1_554 S
C1343 C1344 1.366 . S
C1344 C1343 1.366 . S
C1344 C1345 1.414 . S
C1344 C1347 1.499 . S
C1345 H1319 0.950 . S
C1345 C1344 1.414 . S
C1345 C1346 1.374 1_554 S
C1346 H1320 0.950 . S
C1346 C1342 1.385 . S
C1346 C1345 1.374 1_556 S
C1347 C1344 1.499 . S
C1347 C1348 1.373 . S
C1347 C1349 1.389 . S
C1348 H1321 0.950 . S
C1348 C1334 1.377 . S
C1348 C1347 1.373 . S
C1349 C1333 1.377 . S
C1349 C1347 1.389 . S
C1349 C1350 1.524 . S
C1350 C1349 1.524 . S
C1350 C1351 1.397 . S
C1350 C1355 1.363 . S
C1351 H1322 0.937 1_554 S
C1351 C1350 1.397 . S
C1351 C1352 1.334 1_554 S
C1352 H1323 0.950 . S
C1352 C1351 1.334 1_556 S
C1352 C1353 1.287 . S
C1353 C1352 1.287 . S
C1353 C1354 1.524 1_556 S
C1353 H1356 0.999 . S
C1354 H1324 0.950 . S
C1354 C1353 1.524 1_554 S
C1354 C1355 1.415 . S
C1355 H1325 0.950 . S
C1355 C1350 1.363 . S
C1355 C1354 1.415 . S
H1356 C1353 0.999 . S
H1357 C1338 0.913 . S
H1358 C1376 0.951 . S
H1359 C1378 0.951 . S
H1360 C1380 0.950 . S
H1361 C1381 0.950 . S
H1362 C1383 0.950 . S
H1363 C1386 0.950 . S
H1364 C1387 0.950 . S
H1365 C1389 0.950 . S
H1366 C1390 0.950 . S
H1367 C1391 0.951 . S
H1368 C1393 0.951 . S
H1369 C1395 0.950 . S
H1370 C1396 0.950 . S
H1371 C1398 0.950 . S
H1372 C1401 0.950 . S
H1373 C1402 0.950 . S
H1374 C1404 0.950 . S
H1375 C1405 0.950 . S
C1376 H1358 0.951 . S
C1376 C1377 1.366 . S
C1376 C1378 1.388 . S
C1377 C1376 1.366 . S
C1377 C1381 1.385 . S
C1378 H1359 0.951 . S
C1378 C1376 1.388 . S
C1378 C1379 1.366 . S
C1379 C1378 1.366 . S
C1379 C1380 1.414 . S
C1379 C1382 1.499 . S
C1380 H1360 0.950 . S
C1380 C1379 1.414 . S
C1380 C1381 1.374 . S
C1381 H1361 0.950 . S
C1381 C1377 1.385 . S
C1381 C1380 1.374 . S
C1382 C1379 1.499 . S
C1382 C1383 1.373 . S
C1382 C1384 1.389 . S
C1383 H1362 0.950 . S
C1383 C1382 1.373 . S
C1383 C1399 1.377 . S
C1384 C1382 1.389 . S
C1384 C1385 1.524 . S
C1384 C1398 1.377 . S
C1385 C1384 1.524 . S
C1385 C1386 1.397 . S
C1385 C1390 1.363 . S
C1386 H1363 0.950 . S
C1386 C1385 1.397 . S
C1386 C1387 1.334 . S
C1387 H1364 0.950 . S
C1387 C1386 1.334 . S
C1387 C1388 1.287 . S
C1388 C1387 1.287 . S
C1388 C1389 1.524 . S
C1388 H1407 0.913 . S
C1389 H1365 0.950 . S
C1389 C1388 1.524 . S
C1389 C1390 1.415 . S
C1390 H1366 0.950 . S
C1390 C1385 1.363 . S
C1390 C1389 1.415 . S
C1391 H1367 0.951 . S
C1391 C1392 1.366 . S
C1391 C1393 1.388 . S
C1392 C1391 1.366 . S
C1392 C1396 1.385 . S
C1393 H1368 0.951 . S
C1393 C1391 1.388 . S
C1393 C1394 1.366 1_455 S
C1394 C1393 1.366 1_655 S
C1394 C1395 1.414 . S
C1394 C1397 1.499 . S
C1395 H1369 0.950 . S
C1395 C1394 1.414 . S
C1395 C1396 1.374 1_655 S
C1396 H1370 0.950 . S
C1396 C1392 1.385 . S
C1396 C1395 1.374 1_455 S
C1397 C1394 1.499 . S
C1397 C1398 1.373 . S
C1397 C1399 1.389 . S
C1398 H1371 0.950 . S
C1398 C1384 1.377 . S
C1398 C1397 1.373 . S
C1399 C1383 1.377 . S
C1399 C1397 1.389 . S
C1399 C1400 1.524 . S
C1400 C1399 1.524 . S
C1400 C1401 1.397 . S
C1400 C1405 1.363 . S
C1401 H1372 0.950 . S
C1401 C1400 1.397 . S
C1401 C1402 1.334 . S
C1402 H1373 0.950 . S
C1402 C1401 1.334 . S
C1402 C1403 1.287 . S
C1403 C1402 1.287 . S
C1403 C1404 1.524 . S
C1403 H1406 0.999 . S
C1404 H1374 0.950 . S
C1404 C1403 1.524 . S
C1404 C1405 1.415 . S
C1405 H1375 0.950 . S
C1405 C1400 1.363 . S
C1405 C1404 1.415 . S
H1406 C1403 0.999 . S
H1407 C1388 0.913 . S
H1408 C1426 0.951 . S
H1409 C1428 0.951 . S
H1410 C1430 0.950 . S
H1411 C1431 0.950 . S
H1412 C1433 0.950 . S
H1413 C1436 0.950 . S
H1414 C1437 0.950 . S
H1415 C1439 0.950 . S
H1416 C1440 0.950 . S
H1417 C1441 0.951 . S
H1418 C1443 0.951 . S
H1419 C1445 0.950 . S
H1420 C1446 0.950 . S
H1421 C1448 0.950 . S
H1422 C1451 0.950 . S
H1423 C1452 0.950 . S
H1424 C1454 0.950 . S
H1425 C1455 0.950 . S
C1426 H1408 0.951 . S
C1426 C1427 1.366 . S
C1426 C1428 1.388 1_545 S
C1427 C1426 1.366 . S
C1427 C1431 1.385 . S
C1428 H1409 0.951 . S
C1428 C1426 1.388 1_565 S
C1428 C1429 1.366 . S
C1429 C1428 1.366 . S
C1429 C1430 1.414 1_565 S
C1429 C1432 1.499 . S
C1430 H1410 0.950 . S
C1430 C1429 1.414 1_545 S
C1430 C1431 1.374 . S
C1431 H1411 0.950 . S
C1431 C1427 1.385 . S
C1431 C1430 1.374 . S
C1432 C1429 1.499 . S
C1432 C1433 1.373 . S
C1432 C1434 1.389 . S
C1433 H1412 0.950 . S
C1433 C1432 1.373 . S
C1433 C1449 1.377 . S
C1434 C1432 1.389 . S
C1434 C1435 1.524 . S
C1434 C1448 1.377 . S
C1435 C1434 1.524 . S
C1435 C1436 1.397 1_565 S
C1435 C1440 1.363 . S
C1436 H1413 0.950 . S
C1436 C1435 1.397 1_545 S
C1436 C1437 1.334 . S
C1437 H1414 0.950 . S
C1437 C1436 1.334 . S
C1437 C1438 1.287 1_545 S
C1438 C1437 1.287 1_565 S
C1438 C1439 1.524 . S
C1438 H1457 0.913 1_565 S
C1439 H1415 0.950 . S
C1439 C1438 1.524 . S
C1439 C1440 1.415 . S
C1440 H1416 0.950 . S
C1440 C1435 1.363 . S
C1440 C1439 1.415 . S
C1441 H1417 0.951 . S
C1441 C1442 1.366 . S
C1441 C1443 1.388 . S
C1442 C1441 1.366 . S
C1442 C1446 1.385 . S
C1443 H1418 0.951 . S
C1443 C1441 1.388 . S
C1443 C1444 1.366 . S
C1444 C1443 1.366 . S
C1444 C1445 1.414 . S
C1444 C1447 1.499 . S
C1445 H1419 0.950 . S
C1445 C1444 1.414 . S
C1445 C1446 1.374 . S
C1446 H1420 0.950 . S
C1446 C1442 1.385 . S
C1446 C1445 1.374 . S
C1447 C1444 1.499 . S
C1447 C1448 1.373 . S
C1447 C1449 1.389 . S
C1448 H1421 0.950 . S
C1448 C1434 1.377 . S
C1448 C1447 1.373 . S
C1449 C1433 1.377 . S
C1449 C1447 1.389 . S
C1449 C1450 1.524 . S
C1450 C1449 1.524 . S
C1450 C1451 1.397 . S
C1450 C1455 1.363 . S
C1451 H1422 0.950 . S
C1451 C1450 1.397 . S
C1451 C1452 1.334 . S
C1452 H1423 0.950 . S
C1452 C1451 1.334 . S
C1452 C1453 1.287 . S
C1453 C1452 1.287 . S
C1453 C1454 1.524 . S
C1453 H1456 0.999 . S
C1454 H1424 0.950 . S
C1454 C1453 1.524 . S
C1454 C1455 1.415 . S
C1455 H1425 0.950 . S
C1455 C1450 1.363 . S
C1455 C1454 1.415 . S
H1456 C1453 0.999 . S
H1457 C1438 0.913 1_545 S
H1458 C1476 0.951 . S
H1459 C1478 0.951 . S
H1460 C1480 0.950 . S
H1461 C1481 0.950 . S
H1462 C1483 0.950 . S
H1463 C1486 0.950 . S
H1464 C1487 0.950 . S
H1465 C1489 0.950 . S
H1466 C1490 0.950 . S
H1467 C1491 0.951 . S
H1468 C1493 0.951 . S
H1469 C1495 0.950 . S
H1470 C1496 0.950 . S
H1471 C1498 0.950 . S
H1472 C1501 0.950 . S
H1473 C1502 0.950 . S
H1474 C1504 0.950 . S
H1475 C1505 0.950 . S
C1476 H1458 0.951 . S
C1476 C1477 1.366 . S
C1476 C1478 1.388 . S
C1477 C1476 1.366 . S
C1477 C1481 1.385 . S
C1478 H1459 0.951 . S
C1478 C1476 1.388 . S
C1478 C1479 1.366 . S
C1479 C1478 1.366 . S
C1479 C1480 1.414 . S
C1479 C1482 1.499 . S
C1480 H1460 0.950 . S
C1480 C1479 1.414 . S
C1480 C1481 1.374 . S
C1481 H1461 0.950 . S
C1481 C1477 1.385 . S
C1481 C1480 1.374 . S
C1482 C1479 1.499 . S
C1482 C1483 1.373 . S
C1482 C1484 1.389 . S
C1483 H1462 0.950 . S
C1483 C1482 1.373 . S
C1483 C1499 1.377 . S
C1484 C1482 1.389 . S
C1484 C1485 1.524 . S
C1484 C1498 1.377 . S
C1485 C1484 1.524 . S
C1485 C1486 1.397 . S
C1485 C1490 1.363 . S
C1486 H1463 0.950 . S
C1486 C1485 1.397 . S
C1486 C1487 1.334 . S
C1487 H1464 0.950 . S
C1487 C1486 1.334 . S
C1487 C1488 1.287 . S
C1488 C1487 1.287 . S
C1488 C1489 1.524 . S
C1488 H1507 0.913 . S
C1489 H1465 0.950 . S
C1489 C1488 1.524 . S
C1489 C1490 1.415 . S
C1490 H1466 0.950 . S
C1490 C1485 1.363 . S
C1490 C1489 1.415 . S
C1491 H1467 0.951 . S
C1491 C1492 1.366 . S
C1491 C1493 1.388 . S
C1492 C1491 1.366 . S
C1492 C1496 1.385 . S
C1493 H1468 0.951 . S
C1493 C1491 1.388 . S
C1493 C1494 1.366 . S
C1494 C1493 1.366 . S
C1494 C1495 1.414 . S
C1494 C1497 1.499 . S
C1495 H1469 0.950 . S
C1495 C1494 1.414 . S
C1495 C1496 1.374 . S
C1496 H1470 0.950 . S
C1496 C1492 1.385 . S
C1496 C1495 1.374 . S
C1497 C1494 1.499 . S
C1497 C1498 1.373 . S
C1497 C1499 1.389 . S
C1498 H1471 0.950 . S
C1498 C1484 1.377 . S
C1498 C1497 1.373 . S
C1499 C1483 1.377 . S
C1499 C1497 1.389 . S
C1499 C1500 1.524 . S
C1500 C1499 1.524 . S
C1500 C1501 1.397 . S
C1500 C1505 1.363 . S
C1501 H1472 0.950 . S
C1501 C1500 1.397 . S
C1501 C1502 1.334 . S
C1502 H1473 0.950 . S
C1502 C1501 1.334 . S
C1502 C1503 1.287 . S
C1503 C1502 1.287 . S
C1503 C1504 1.524 . S
C1503 H1506 0.999 . S
C1504 H1474 0.950 . S
C1504 C1503 1.524 . S
C1504 C1505 1.415 . S
C1505 H1475 0.950 . S
C1505 C1500 1.363 . S
C1505 C1504 1.415 . S
H1506 C1503 0.999 . S
H1507 C1488 0.913 . S
H1508 C1526 0.951 . S
H1509 C1528 0.951 . S
H1510 C1530 0.950 . S
H1511 C1531 0.950 . S
H1512 C1533 0.950 . S
H1513 C1536 0.950 . S
H1514 C1537 0.950 . S
H1515 C1539 0.950 . S
H1516 C1540 0.950 . S
H1517 C1541 0.951 . S
H1518 C1543 0.951 . S
H1519 C1545 0.950 . S
H1520 C1546 0.950 1_455 S
H1521 C1548 0.950 . S
H1522 C1551 0.950 . S
H1523 C1552 0.950 . S
H1524 C1554 0.950 . S
H1525 C1555 0.950 . S
C1526 H1508 0.951 . S
C1526 C1527 1.366 . S
C1526 C1528 1.388 . S
C1527 C1526 1.366 . S
C1527 C1531 1.385 . S
C1528 H1509 0.951 . S
C1528 C1526 1.388 . S
C1528 C1529 1.366 . S
C1529 C1528 1.366 . S
C1529 C1530 1.414 . S
C1529 C1532 1.499 . S
C1530 H1510 0.950 . S
C1530 C1529 1.414 . S
C1530 C1531 1.374 . S
C1531 H1511 0.950 . S
C1531 C1527 1.385 . S
C1531 C1530 1.374 . S
C1532 C1529 1.499 . S
C1532 C1533 1.373 . S
C1532 C1534 1.389 . S
C1533 H1512 0.950 . S
C1533 C1532 1.373 . S
C1533 C1549 1.377 . S
C1534 C1532 1.389 . S
C1534 C1535 1.524 . S
C1534 C1548 1.377 . S
C1535 C1534 1.524 . S
C1535 C1536 1.397 . S
C1535 C1540 1.363 . S
C1536 H1513 0.950 . S
C1536 C1535 1.397 . S
C1536 C1537 1.334 . S
C1537 H1514 0.950 . S
C1537 C1536 1.334 . S
C1537 C1538 1.287 . S
C1538 C1537 1.287 . S
C1538 C1539 1.524 . S
C1538 H1557 0.913 . S
C1539 H1515 0.950 . S
C1539 C1538 1.524 . S
C1539 C1540 1.415 . S
C1540 H1516 0.950 . S
C1540 C1535 1.363 . S
C1540 C1539 1.415 . S
C1541 H1517 0.951 . S
C1541 C1542 1.366 . S
C1541 C1543 1.388 . S
C1542 C1541 1.366 . S
C1542 C1546 1.385 . S
C1543 H1518 0.951 . S
C1543 C1541 1.388 . S
C1543 C1544 1.366 1_655 S
C1544 C1543 1.366 1_455 S
C1544 C1545 1.414 . S
C1544 C1547 1.499 . S
C1545 H1519 0.950 . S
C1545 C1544 1.414 . S
C1545 C1546 1.374 1_455 S
C1546 H1520 0.950 1_655 S
C1546 C1542 1.385 . S
C1546 C1545 1.374 1_655 S
C1547 C1544 1.499 . S
C1547 C1548 1.373 . S
C1547 C1549 1.389 . S
C1548 H1521 0.950 . S
C1548 C1534 1.377 . S
C1548 C1547 1.373 . S
C1549 C1533 1.377 . S
C1549 C1547 1.389 . S
C1549 C1550 1.524 . S
C1550 C1549 1.524 . S
C1550 C1551 1.397 . S
C1550 C1555 1.363 1_455 S
C1551 H1522 0.950 . S
C1551 C1550 1.397 . S
C1551 C1552 1.334 1_455 S
C1552 H1523 0.950 . S
C1552 C1551 1.334 1_655 S
C1552 C1553 1.287 . S
C1553 C1552 1.287 . S
C1553 C1554 1.524 . S
C1553 H1556 0.999 . S
C1554 H1524 0.950 . S
C1554 C1553 1.524 . S
C1554 C1555 1.415 . S
C1555 H1525 0.950 . S
C1555 C1550 1.363 1_655 S
C1555 C1554 1.415 . S
H1556 C1553 0.999 . S
H1557 C1538 0.913 . S
H1558 C1576 0.951 . S
H1559 C1578 0.951 . S
H1560 C1580 0.950 . S
H1561 C1581 0.950 . S
H1562 C1583 0.950 . S
H1563 C1586 0.950 . S
H1564 C1587 0.950 . S
H1565 C1589 0.950 . S
H1566 C1590 0.950 . S
H1567 C1591 0.951 . S
H1568 C1593 0.951 . S
H1569 C1595 0.950 . S
H1570 C1596 0.950 . S
H1571 C1598 0.950 . S
H1572 C1601 0.950 . S
H1573 C1602 0.950 . S
H1574 C1604 0.950 . S
H1575 C1605 0.950 . S
C1576 H1558 0.951 . S
C1576 C1577 1.366 . S
C1576 C1578 1.388 . S
C1577 C1576 1.366 . S
C1577 C1581 1.385 . S
C1578 H1559 0.951 . S
C1578 C1576 1.388 . S
C1578 C1579 1.366 . S
C1579 C1578 1.366 . S
C1579 C1580 1.414 . S
C1579 C1582 1.499 . S
C1580 H1560 0.950 . S
C1580 C1579 1.414 . S
C1580 C1581 1.374 . S
C1581 H1561 0.950 . S
C1581 C1577 1.385 . S
C1581 C1580 1.374 . S
C1582 C1579 1.499 . S
C1582 C1583 1.373 . S
C1582 C1584 1.389 . S
C1583 H1562 0.950 . S
C1583 C1582 1.373 . S
C1583 C1599 1.377 . S
C1584 C1582 1.389 . S
C1584 C1585 1.524 . S
C1584 C1598 1.377 . S
C1585 C1584 1.524 . S
C1585 C1586 1.397 . S
C1585 C1590 1.363 . S
C1586 H1563 0.950 . S
C1586 C1585 1.397 . S
C1586 C1587 1.334 . S
C1587 H1564 0.950 . S
C1587 C1586 1.334 . S
C1587 C1588 1.287 . S
C1588 C1587 1.287 . S
C1588 C1589 1.524 . S
C1588 H1607 0.913 . S
C1589 H1565 0.950 . S
C1589 C1588 1.524 . S
C1589 C1590 1.415 . S
C1590 H1566 0.950 . S
C1590 C1585 1.363 . S
C1590 C1589 1.415 . S
C1591 H1567 0.951 . S
C1591 C1592 1.366 . S
C1591 C1593 1.388 1_565 S
C1592 C1591 1.366 . S
C1592 C1596 1.385 . S
C1593 H1568 0.951 . S
C1593 C1591 1.388 1_545 S
C1593 C1594 1.366 . S
C1594 C1593 1.366 . S
C1594 C1595 1.414 1_545 S
C1594 C1597 1.499 . S
C1595 H1569 0.950 . S
C1595 C1594 1.414 1_565 S
C1595 C1596 1.374 . S
C1596 H1570 0.950 . S
C1596 C1592 1.385 . S
C1596 C1595 1.374 . S
C1597 C1594 1.499 . S
C1597 C1598 1.373 . S
C1597 C1599 1.389 . S
C1598 H1571 0.950 . S
C1598 C1584 1.377 . S
C1598 C1597 1.373 . S
C1599 C1583 1.377 . S
C1599 C1597 1.389 . S
C1599 C1600 1.524 . S
C1600 C1599 1.524 . S
C1600 C1601 1.397 1_545 S
C1600 C1605 1.363 . S
C1601 H1572 0.950 . S
C1601 C1600 1.397 1_565 S
C1601 C1602 1.334 . S
C1602 H1573 0.950 . S
C1602 C1601 1.334 . S
C1602 C1603 1.287 . S
C1603 C1602 1.287 . S
C1603 C1604 1.524 . S
C1603 H1606 0.999 . S
C1604 H1574 0.950 . S
C1604 C1603 1.524 . S
C1604 C1605 1.415 1_565 S
C1605 H1575 0.950 . S
C1605 C1600 1.363 . S
C1605 C1604 1.415 1_545 S
H1606 C1603 0.999 . S
H1607 C1588 0.913 . S
H1608 C1626 0.951 . S
H1609 C1628 0.951 . S
H1610 C1630 0.950 . S
H1611 C1631 0.950 . S
H1612 C1633 0.950 . S
H1613 C1636 0.950 . S
H1614 C1637 0.950 . S
H1615 C1639 0.950 . S
H1616 C1640 0.950 . S
H1617 C1641 0.951 . S
H1618 C1643 0.951 . S
H1619 C1645 0.950 . S
H1620 C1646 0.950 . S
H1621 C1648 0.950 . S
H1622 C1651 0.950 . S
H1623 C1652 0.950 . S
H1624 C1654 0.950 . S
H1625 C1655 0.950 . S
C1626 H1608 0.951 . S
C1626 C1627 1.366 . S
C1626 C1628 1.388 . S
C1627 C1626 1.366 . S
C1627 C1631 1.385 . S
C1628 H1609 0.951 . S
C1628 C1626 1.388 . S
C1628 C1629 1.366 . S
C1629 C1628 1.366 . S
C1629 C1630 1.414 . S
C1629 C1632 1.499 . S
C1630 H1610 0.950 . S
C1630 C1629 1.414 . S
C1630 C1631 1.374 . S
C1631 H1611 0.950 . S
C1631 C1627 1.385 . S
C1631 C1630 1.374 . S
C1632 C1629 1.499 . S
C1632 C1633 1.373 . S
C1632 C1634 1.389 . S
C1633 H1612 0.950 . S
C1633 C1632 1.373 . S
C1633 C1649 1.377 . S
C1634 C1632 1.389 . S
C1634 C1635 1.524 . S
C1634 C1648 1.377 . S
C1635 C1634 1.524 . S
C1635 C1636 1.397 . S
C1635 C1640 1.363 . S
C1636 H1613 0.950 . S
C1636 C1635 1.397 . S
C1636 C1637 1.334 . S
C1637 H1614 0.950 . S
C1637 C1636 1.334 . S
C1637 C1638 1.287 . S
C1638 C1637 1.287 . S
C1638 C1639 1.524 . S
C1638 H1657 0.913 . S
C1639 H1615 0.950 . S
C1639 C1638 1.524 . S
C1639 C1640 1.415 . S
C1640 H1616 0.950 . S
C1640 C1635 1.363 . S
C1640 C1639 1.415 . S
C1641 H1617 0.951 . S
C1641 C1642 1.366 . S
C1641 C1643 1.388 . S
C1642 C1641 1.366 . S
C1642 C1646 1.385 . S
C1643 H1618 0.951 . S
C1643 C1641 1.388 . S
C1643 C1644 1.366 . S
C1644 C1643 1.366 . S
C1644 C1645 1.414 . S
C1644 C1647 1.499 . S
C1645 H1619 0.950 . S
C1645 C1644 1.414 . S
C1645 C1646 1.374 . S
C1646 H1620 0.950 . S
C1646 C1642 1.385 . S
C1646 C1645 1.374 . S
C1647 C1644 1.499 . S
C1647 C1648 1.373 . S
C1647 C1649 1.389 . S
C1648 H1621 0.950 . S
C1648 C1634 1.377 . S
C1648 C1647 1.373 . S
C1649 C1633 1.377 . S
C1649 C1647 1.389 . S
C1649 C1650 1.524 . S
C1650 C1649 1.524 . S
C1650 C1651 1.397 . S
C1650 C1655 1.363 . S
C1651 H1622 0.950 . S
C1651 C1650 1.397 . S
C1651 C1652 1.334 . S
C1652 H1623 0.950 . S
C1652 C1651 1.334 . S
C1652 C1653 1.287 . S
C1653 C1652 1.287 . S
C1653 C1654 1.524 . S
C1653 H1656 0.999 . S
C1654 H1624 0.950 . S
C1654 C1653 1.524 . S
C1654 C1655 1.415 . S
C1655 H1625 0.950 . S
C1655 C1650 1.363 . S
C1655 C1654 1.415 . S
H1656 C1653 0.999 . S
H1657 C1638 0.913 . S
H1658 C1676 0.951 . S
H1659 C1678 0.951 . S
H1660 C1680 0.950 . S
H1661 C1681 0.950 . S
H1662 C1683 0.950 . S
H1663 C1686 0.950 . S
H1664 C1687 0.950 . S
H1665 C1689 0.950 . S
H1666 C1690 0.950 . S
H1667 C1691 0.951 . S
H1668 C1693 0.951 . S
H1669 C1695 0.950 . S
H1670 C1696 0.947 1_554 S
H1671 C1698 0.950 . S
H1672 C1701 0.950 . S
H1673 C1702 0.950 . S
H1674 C1704 0.950 . S
H1675 C1705 0.950 . S
C1676 H1658 0.951 . S
C1676 C1677 1.366 . S
C1676 C1678 1.388 . S
C1677 C1676 1.366 . S
C1677 C1681 1.385 . S
C1678 H1659 0.951 . S
C1678 C1676 1.388 . S
C1678 C1679 1.366 . S
C1679 C1678 1.366 . S
C1679 C1680 1.414 . S
C1679 C1682 1.499 . S
C1680 H1660 0.950 . S
C1680 C1679 1.414 . S
C1680 C1681 1.374 . S
C1681 H1661 0.950 . S
C1681 C1677 1.385 . S
C1681 C1680 1.374 . S
C1682 C1679 1.499 . S
C1682 C1683 1.373 . S
C1682 C1684 1.389 . S
C1683 H1662 0.950 . S
C1683 C1682 1.373 . S
C1683 C1699 1.377 . S
C1684 C1682 1.389 . S
C1684 C1685 1.524 . S
C1684 C1698 1.377 . S
C1685 C1684 1.524 . S
C1685 C1686 1.397 . S
C1685 C1690 1.363 . S
C1686 H1663 0.950 . S
C1686 C1685 1.397 . S
C1686 C1687 1.334 . S
C1687 H1664 0.950 . S
C1687 C1686 1.334 . S
C1687 C1688 1.287 . S
C1688 C1687 1.287 . S
C1688 C1689 1.524 . S
C1688 H1707 0.913 . S
C1689 H1665 0.950 . S
C1689 C1688 1.524 . S
C1689 C1690 1.415 . S
C1690 H1666 0.950 . S
C1690 C1685 1.363 . S
C1690 C1689 1.415 . S
C1691 H1667 0.951 . S
C1691 C1692 1.366 . S
C1691 C1693 1.388 1_454 S
C1692 C1691 1.366 . S
C1692 C1696 1.363 1_554 S
C1693 H1668 0.951 . S
C1693 C1691 1.388 1_656 S
C1693 C1694 1.366 . S
C1694 C1693 1.366 . S
C1694 C1695 1.414 1_655 S
C1694 C1697 1.499 . S
C1695 H1669 0.950 . S
C1695 C1694 1.414 1_455 S
C1695 C1696 1.399 . S
C1696 H1670 0.947 1_556 S
C1696 C1692 1.363 1_556 S
C1696 C1695 1.399 . S
C1697 C1694 1.499 . S
C1697 C1698 1.373 . S
C1697 C1699 1.389 . S
C1698 H1671 0.950 . S
C1698 C1684 1.377 . S
C1698 C1697 1.373 . S
C1699 C1683 1.377 . S
C1699 C1697 1.389 . S
C1699 C1700 1.524 . S
C1700 C1699 1.524 . S
C1700 C1701 1.397 1_655 S
C1700 C1705 1.363 . S
C1701 H1672 0.950 . S
C1701 C1700 1.397 1_455 S
C1701 C1702 1.334 . S
C1702 H1673 0.950 . S
C1702 C1701 1.334 . S
C1702 C1703 1.287 . S
C1703 C1702 1.287 . S
C1703 C1704 1.524 . S
C1703 H1706 0.999 . S
C1704 H1674 0.950 . S
C1704 C1703 1.524 . S
C1704 C1705 1.415 1_455 S
C1705 H1675 0.950 . S
C1705 C1700 1.363 . S
C1705 C1704 1.415 1_655 S
H1706 C1703 0.999 . S
H1707 C1688 0.913 . S
H1708 C1726 0.951 . S
H1709 C1728 0.951 . S
H1710 C1730 0.950 . S
H1711 C1731 0.950 . S
H1712 C1733 0.950 . S
H1713 C1736 0.950 . S
H1714 C1737 0.950 . S
H1715 C1739 0.950 . S
H1716 C1740 0.950 . S
H1717 C1741 0.951 . S
H1718 C1743 0.951 . S
H1719 C1745 0.950 . S
H1720 C1746 0.950 . S
H1721 C1748 0.950 . S
H1722 C1751 0.950 . S
H1723 C1752 0.950 . S
H1724 C1754 0.950 . S
H1725 C1755 0.950 . S
C1726 H1708 0.951 . S
C1726 C1727 1.366 . S
C1726 C1728 1.388 . S
C1727 C1726 1.366 . S
C1727 C1731 1.385 . S
C1728 H1709 0.951 . S
C1728 C1726 1.388 . S
C1728 C1729 1.366 . S
C1729 C1728 1.366 . S
C1729 C1730 1.414 . S
C1729 C1732 1.499 . S
C1730 H1710 0.950 . S
C1730 C1729 1.414 . S
C1730 C1731 1.374 . S
C1731 H1711 0.950 . S
C1731 C1727 1.385 . S
C1731 C1730 1.374 . S
C1732 C1729 1.499 . S
C1732 C1733 1.373 . S
C1732 C1734 1.389 . S
C1733 H1712 0.950 . S
C1733 C1732 1.373 . S
C1733 C1749 1.377 . S
C1734 C1732 1.389 . S
C1734 C1735 1.524 . S
C1734 C1748 1.377 . S
C1735 C1734 1.524 . S
C1735 C1736 1.397 . S
C1735 C1740 1.363 . S
C1736 H1713 0.950 . S
C1736 C1735 1.397 . S
C1736 C1737 1.334 . S
C1737 H1714 0.950 . S
C1737 C1736 1.334 . S
C1737 C1738 1.287 . S
C1738 C1737 1.287 . S
C1738 C1739 1.524 . S
C1738 H1757 0.913 . S
C1739 H1715 0.950 . S
C1739 C1738 1.524 . S
C1739 C1740 1.415 . S
C1740 H1716 0.950 . S
C1740 C1735 1.363 . S
C1740 C1739 1.415 . S
C1741 H1717 0.951 . S
C1741 C1742 1.366 . S
C1741 C1743 1.388 . S
C1742 C1741 1.366 . S
C1742 C1746 1.385 . S
C1743 H1718 0.951 . S
C1743 C1741 1.388 . S
C1743 C1744 1.366 1_545 S
C1744 C1743 1.366 1_565 S
C1744 C1745 1.414 . S
C1744 C1747 1.499 . S
C1745 H1719 0.950 . S
C1745 C1744 1.414 . S
C1745 C1746 1.374 1_565 S
C1746 H1720 0.950 . S
C1746 C1742 1.385 . S
C1746 C1745 1.374 1_545 S
C1747 C1744 1.499 . S
C1747 C1748 1.373 . S
C1747 C1749 1.389 . S
C1748 H1721 0.950 . S
C1748 C1734 1.377 . S
C1748 C1747 1.373 . S
C1749 C1733 1.377 . S
C1749 C1747 1.389 . S
C1749 C1750 1.524 . S
C1750 C1749 1.524 . S
C1750 C1751 1.397 . S
C1750 C1755 1.363 . S
C1751 H1722 0.950 . S
C1751 C1750 1.397 . S
C1751 C1752 1.334 . S
C1752 H1723 0.950 . S
C1752 C1751 1.334 . S
C1752 C1753 1.287 . S
C1753 C1752 1.287 . S
C1753 C1754 1.524 . S
C1753 H1756 0.999 . S
C1754 H1724 0.950 . S
C1754 C1753 1.524 . S
C1754 C1755 1.415 . S
C1755 H1725 0.950 . S
C1755 C1750 1.363 . S
C1755 C1754 1.415 . S
H1756 C1753 0.999 . S
H1757 C1738 0.913 . S
H1758 C1776 0.951 . S
H1759 C1778 0.951 . S
H1760 C1780 0.950 . S
H1761 C1781 0.950 . S
H1762 C1783 0.950 . S
H1763 C1786 0.950 . S
H1764 C1787 0.950 . S
H1765 C1789 0.950 . S
H1766 C1790 0.950 . S
H1767 C1791 0.951 . S
H1768 C1793 0.951 . S
H1769 C1795 0.950 . S
H1770 C1796 0.950 . S
H1771 C1798 0.950 . S
H1772 C1801 0.950 . S
H1773 C1802 0.950 . S
H1774 C1804 0.950 . S
H1775 C1805 0.950 . S
C1776 H1758 0.951 . S
C1776 C1777 1.366 . S
C1776 C1778 1.388 . S
C1777 C1776 1.366 . S
C1777 C1781 1.385 . S
C1778 H1759 0.951 . S
C1778 C1776 1.388 . S
C1778 C1779 1.366 . S
C1779 C1778 1.366 . S
C1779 C1780 1.414 . S
C1779 C1782 1.499 . S
C1780 H1760 0.950 . S
C1780 C1779 1.414 . S
C1780 C1781 1.374 . S
C1781 H1761 0.950 . S
C1781 C1777 1.385 . S
C1781 C1780 1.374 . S
C1782 C1779 1.499 . S
C1782 C1783 1.373 . S
C1782 C1784 1.389 . S
C1783 H1762 0.950 . S
C1783 C1782 1.373 . S
C1783 C1799 1.377 . S
C1784 C1782 1.389 . S
C1784 C1785 1.524 . S
C1784 C1798 1.377 . S
C1785 C1784 1.524 . S
C1785 C1786 1.397 . S
C1785 C1790 1.363 . S
C1786 H1763 0.950 . S
C1786 C1785 1.397 . S
C1786 C1787 1.334 . S
C1787 H1764 0.950 . S
C1787 C1786 1.334 . S
C1787 C1788 1.287 . S
C1788 C1787 1.287 . S
C1788 C1789 1.524 . S
C1788 H1807 0.913 . S
C1789 H1765 0.950 . S
C1789 C1788 1.524 . S
C1789 C1790 1.415 . S
C1790 H1766 0.950 . S
C1790 C1785 1.363 . S
C1790 C1789 1.415 . S
C1791 H1767 0.951 . S
C1791 C1792 1.366 . S
C1791 C1793 1.388 . S
C1792 C1791 1.366 . S
C1792 C1796 1.385 . S
C1793 H1768 0.951 . S
C1793 C1791 1.388 . S
C1793 C1794 1.366 . S
C1794 C1793 1.366 . S
C1794 C1795 1.414 . S
C1794 C1797 1.499 . S
C1795 H1769 0.950 . S
C1795 C1794 1.414 . S
C1795 C1796 1.374 . S
C1796 H1770 0.950 . S
C1796 C1792 1.385 . S
C1796 C1795 1.374 . S
C1797 C1794 1.499 . S
C1797 C1798 1.373 . S
C1797 C1799 1.389 . S
C1798 H1771 0.950 . S
C1798 C1784 1.377 . S
C1798 C1797 1.373 . S
C1799 C1783 1.377 . S
C1799 C1797 1.389 . S
C1799 C1800 1.524 . S
C1800 C1799 1.524 . S
C1800 C1801 1.397 . S
C1800 C1805 1.363 . S
C1801 H1772 0.950 . S
C1801 C1800 1.397 . S
C1801 C1802 1.334 . S
C1802 H1773 0.950 . S
C1802 C1801 1.334 . S
C1802 C1803 1.287 . S
C1803 C1802 1.287 . S
C1803 C1804 1.524 . S
C1803 H1806 0.999 . S
C1804 H1774 0.950 . S
C1804 C1803 1.524 . S
C1804 C1805 1.415 . S
C1805 H1775 0.950 . S
C1805 C1800 1.363 . S
C1805 C1804 1.415 . S
H1806 C1803 0.999 . S
H1807 C1788 0.913 . S
H1808 C1826 0.951 . S
H1809 C1828 0.951 . S
H1810 C1830 0.950 . S
H1811 C1831 0.950 . S
H1812 C1833 0.950 . S
H1813 C1836 0.950 . S
H1814 C1837 0.950 . S
H1815 C1839 0.950 . S
H1816 C1840 0.950 . S
H1817 C1841 0.951 . S
H1818 C1843 0.951 . S
H1819 C1845 0.950 . S
H1820 C1846 0.950 1_455 S
H1821 C1848 0.950 . S
H1822 C1851 0.950 . S
H1823 C1852 0.950 . S
H1824 C1854 0.950 . S
H1825 C1855 0.950 . S
C1826 H1808 0.951 . S
C1826 C1827 1.366 . S
C1826 C1828 1.388 . S
C1827 C1826 1.366 . S
C1827 C1831 1.385 . S
C1828 H1809 0.951 . S
C1828 C1826 1.388 . S
C1828 C1829 1.366 . S
C1829 C1828 1.366 . S
C1829 C1830 1.414 . S
C1829 C1832 1.499 . S
C1830 H1810 0.950 . S
C1830 C1829 1.414 . S
C1830 C1831 1.374 . S
C1831 H1811 0.950 . S
C1831 C1827 1.385 . S
C1831 C1830 1.374 . S
C1832 C1829 1.499 . S
C1832 C1833 1.373 . S
C1832 C1834 1.389 . S
C1833 H1812 0.950 . S
C1833 C1832 1.373 . S
C1833 C1849 1.377 . S
C1834 C1832 1.389 . S
C1834 C1835 1.524 . S
C1834 C1848 1.377 . S
C1835 C1834 1.524 . S
C1835 C1836 1.397 . S
C1835 C1840 1.363 . S
C1836 H1813 0.950 . S
C1836 C1835 1.397 . S
C1836 C1837 1.334 . S
C1837 H1814 0.950 . S
C1837 C1836 1.334 . S
C1837 C1838 1.287 . S
C1838 C1837 1.287 . S
C1838 C1839 1.524 . S
C1838 H1857 0.913 . S
C1839 H1815 0.950 . S
C1839 C1838 1.524 . S
C1839 C1840 1.415 . S
C1840 H1816 0.950 . S
C1840 C1835 1.363 . S
C1840 C1839 1.415 . S
C1841 H1817 0.951 . S
C1841 C1842 1.366 . S
C1841 C1843 1.388 . S
C1842 C1841 1.366 . S
C1842 C1846 1.385 . S
C1843 H1818 0.951 . S
C1843 C1841 1.388 . S
C1843 C1844 1.366 1_655 S
C1844 C1843 1.366 1_455 S
C1844 C1845 1.414 . S
C1844 C1847 1.499 . S
C1845 H1819 0.950 . S
C1845 C1844 1.414 . S
C1845 C1846 1.374 1_455 S
C1846 H1820 0.950 1_655 S
C1846 C1842 1.385 . S
C1846 C1845 1.374 1_655 S
C1847 C1844 1.499 . S
C1847 C1848 1.373 . S
C1847 C1849 1.389 . S
C1848 H1821 0.950 . S
C1848 C1834 1.377 . S
C1848 C1847 1.373 . S
C1849 C1833 1.377 . S
C1849 C1847 1.389 . S
C1849 C1850 1.524 . S
C1850 C1849 1.524 . S
C1850 C1851 1.397 . S
C1850 C1855 1.363 . S
C1851 H1822 0.950 . S
C1851 C1850 1.397 . S
C1851 C1852 1.334 . S
C1852 H1823 0.950 . S
C1852 C1851 1.334 . S
C1852 C1853 1.286 . S
C1853 C1852 1.286 . S
C1853 C1854 1.524 1_455 S
C1853 H1856 1.000 1_455 S
C1854 H1824 0.950 . S
C1854 C1853 1.524 1_655 S
C1854 C1855 1.415 1_655 S
C1855 H1825 0.950 . S
C1855 C1850 1.363 . S
C1855 C1854 1.415 1_455 S
H1856 C1853 1.000 1_655 S
H1857 C1838 0.913 . S
H1858 C1876 0.951 . S
H1859 C1878 0.951 . S
H1860 C1880 0.950 . S
H1861 C1881 0.950 . S
H1862 C1883 0.950 . S
H1863 C1886 0.950 . S
H1864 C1887 0.950 . S
H1865 C1889 0.950 . S
H1866 C1890 0.950 . S
H1867 C1891 0.951 . S
H1868 C1893 0.951 . S
H1869 C1895 0.950 . S
H1870 C1896 0.950 . S
H1871 C1898 0.950 . S
H1872 C1901 0.950 . S
H1873 C1902 0.950 . S
H1874 C1904 0.950 . S
H1875 C1905 0.950 . S
C1876 H1858 0.951 . S
C1876 C1877 1.366 . S
C1876 C1878 1.388 1_565 S
C1877 C1876 1.366 . S
C1877 C1881 1.385 . S
C1878 H1859 0.951 . S
C1878 C1876 1.388 1_545 S
C1878 C1879 1.366 . S
C1879 C1878 1.366 . S
C1879 C1880 1.414 1_545 S
C1879 C1882 1.499 . S
C1880 H1860 0.950 . S
C1880 C1879 1.414 1_565 S
C1880 C1881 1.374 . S
C1881 H1861 0.950 . S
C1881 C1877 1.385 . S
C1881 C1880 1.374 . S
C1882 C1879 1.499 . S
C1882 C1883 1.373 . S
C1882 C1884 1.389 . S
C1883 H1862 0.950 . S
C1883 C1882 1.373 . S
C1883 C1899 1.377 . S
C1884 C1882 1.389 . S
C1884 C1885 1.524 . S
C1884 C1898 1.377 . S
C1885 C1884 1.524 . S
C1885 C1886 1.397 1_545 S
C1885 C1890 1.363 . S
C1886 H1863 0.950 . S
C1886 C1885 1.397 1_565 S
C1886 C1887 1.334 . S
C1887 H1864 0.950 . S
C1887 C1886 1.334 . S
C1887 C1888 1.287 . S
C1888 C1887 1.287 . S
C1888 C1889 1.524 1_565 S
C1888 H1907 0.913 . S
C1889 H1865 0.950 . S
C1889 C1888 1.524 1_545 S
C1889 C1890 1.415 . S
C1890 H1866 0.950 . S
C1890 C1885 1.363 . S
C1890 C1889 1.415 . S
C1891 H1867 0.951 . S
C1891 C1892 1.366 . S
C1891 C1893 1.388 . S
C1892 C1891 1.366 . S
C1892 C1896 1.385 . S
C1893 H1868 0.951 . S
C1893 C1891 1.388 . S
C1893 C1894 1.366 . S
C1894 C1893 1.366 . S
C1894 C1895 1.414 . S
C1894 C1897 1.499 . S
C1895 H1869 0.950 . S
C1895 C1894 1.414 . S
C1895 C1896 1.374 . S
C1896 H1870 0.950 . S
C1896 C1892 1.385 . S
C1896 C1895 1.374 . S
C1897 C1894 1.499 . S
C1897 C1898 1.373 . S
C1897 C1899 1.389 . S
C1898 H1871 0.950 . S
C1898 C1884 1.377 . S
C1898 C1897 1.373 . S
C1899 C1883 1.377 . S
C1899 C1897 1.389 . S
C1899 C1900 1.524 . S
C1900 C1899 1.524 . S
C1900 C1901 1.397 . S
C1900 C1905 1.363 . S
C1901 H1872 0.950 . S
C1901 C1900 1.397 . S
C1901 C1902 1.334 . S
C1902 H1873 0.950 . S
C1902 C1901 1.334 . S
C1902 C1903 1.287 . S
C1903 C1902 1.287 . S
C1903 C1904 1.524 . S
C1903 H1906 0.999 . S
C1904 H1874 0.950 . S
C1904 C1903 1.524 . S
C1904 C1905 1.415 . S
C1905 H1875 0.950 . S
C1905 C1900 1.363 . S
C1905 C1904 1.415 . S
H1906 C1903 0.999 . S
H1907 C1888 0.913 . S
C727 C477 1.271 . S
C742 C5 1.271 . S
C777 C64 1.271 . S
C792 C536 1.271 . S
C827 C123 1.271 . S
C842 C595 1.271 . S
C877 C182 1.271 . S
C892 C654 1.271 . S
C927 C359 1.271 . S
C942 C241 1.271 . S
C977 C300 1.271 . S
C992 C418 1.271 . S
C1027 C583 0.906 . S
C1042 C52 0.906 . S
C1077 C111 0.905 . S
C1092 C642 0.906 . S
C1127 C701 0.905 . S
C1142 C170 0.905 . S
C1177 C229 0.905 . S
C1192 C406 0.906 . S
C1227 C465 0.905 . S
C1242 C288 0.906 . S
C1277 C524 0.905 . S
C1292 C347 0.906 . S
C1327 C33 1.536 . S
C1342 C298 1.508 . S
C1377 C92 1.536 . S
C1392 C3 1.508 . S
C1427 C62 1.509 . S
C1442 C151 1.535 . S
C1477 C210 1.536 . S
C1492 C121 1.508 . S
C1527 C269 1.535 . S
C1542 C180 1.508 . S
C1577 C328 1.536 . S
C1592 C239 1.509 . S
C1627 C387 1.536 . S
C1642 C416 1.509 . S
C1677 C446 1.536 . S
C1692 C475 1.509 . S
C1727 C505 1.536 . S
C1742 C534 1.508 . S
C1777 C564 1.535 . S
C1792 C593 1.509 . S
C1827 C623 1.535 . S
C1842 C652 1.508 . S
C1877 C357 1.509 . S
C1892 C682 1.535 . S
