# Generated by pormake.
# Topology wkf, (6)-cn, num edge types: 1
# Building blocks:
#     Node 0, Type 0, BuildingBlock: CUKXOW_clean_sbu_0, # of connection points: 6
#     Node 1, Type 0, BuildingBlock: CUKXOW_clean_sbu_0, # of connection points: 6
#     Node 2, Type 0, BuildingBlock: CUKXOW_clean_sbu_0, # of connection points: 6
#     Node 3, Type 0, BuildingBlock: CUKXOW_clean_sbu_0, # of connection points: 6
#     Node 4, Type 0, BuildingBlock: CUKXOW_clean_sbu_0, # of connection points: 6
#     Node 5, Type 0, BuildingBlock: CUKXOW_clean_sbu_0, # of connection points: 6
#     Node 6, Type 0, BuildingBlock: CUKXOW_clean_sbu_0, # of connection points: 6
#     Node 7, Type 0, BuildingBlock: CUKXOW_clean_sbu_0, # of connection points: 6
#     Node 8, Type 0, BuildingBlock: CUKXOW_clean_sbu_0, # of connection points: 6
#     Node 9, Type 0, BuildingBlock: CUKXOW_clean_sbu_0, # of connection points: 6
#     Node 10, Type 0, BuildingBlock: CUKXOW_clean_sbu_0, # of connection points: 6
#     Node 11, Type 0, BuildingBlock: CUKXOW_clean_sbu_0, # of connection points: 6
#     Edge 12, Type (0, 0), None
#     Edge 13, Type (0, 0), None
#     Edge 14, Type (0, 0), None
#     Edge 15, Type (0, 0), None
#     Edge 16, Type (0, 0), None
#     Edge 17, Type (0, 0), None
#     Edge 18, Type (0, 0), None
#     Edge 19, Type (0, 0), None
#     Edge 20, Type (0, 0), None
#     Edge 21, Type (0, 0), None
#     Edge 22, Type (0, 0), None
#     Edge 23, Type (0, 0), None
#     Edge 24, Type (0, 0), None
#     Edge 25, Type (0, 0), None
#     Edge 26, Type (0, 0), None
#     Edge 27, Type (0, 0), None
#     Edge 28, Type (0, 0), None
#     Edge 29, Type (0, 0), None
#     Edge 30, Type (0, 0), None
#     Edge 31, Type (0, 0), None
#     Edge 32, Type (0, 0), None
#     Edge 33, Type (0, 0), None
#     Edge 34, Type (0, 0), None
#     Edge 35, Type (0, 0), None
#     Edge 36, Type (0, 0), None
#     Edge 37, Type (0, 0), None
#     Edge 38, Type (0, 0), None
#     Edge 39, Type (0, 0), None
#     Edge 40, Type (0, 0), None
#     Edge 41, Type (0, 0), None
#     Edge 42, Type (0, 0), None
#     Edge 43, Type (0, 0), None
#     Edge 44, Type (0, 0), None
#     Edge 45, Type (0, 0), None
#     Edge 46, Type (0, 0), None
#     Edge 47, Type (0, 0), None
# Relax obj value: 0.118
# Max RMSD: 0.283
# Mean RMSD: 0.283
data_MOF--net-wkf--node1-CUKXOW_clean_sbu_0--edge1-none
_symmetry_space_group_name_H-M    P1
_symmetry_Int_Tables_number       1
_symmetry_cell_setting            triclinic
loop_
_symmetry_equiv_pos_as_xyz
'x, y, z'
_cell_length_a     11.883402
_cell_length_b     11.883498
_cell_length_c     37.401351
_cell_angle_alpha  90.000042
_cell_angle_beta   89.999973
_cell_angle_gamma 120.00075
loop_
_atom_site_label
_atom_site_type_symbol
_atom_site_fract_x
_atom_site_fract_y
_atom_site_fract_z
_atom_type_partial_charge
Tb0 Tb 0.33539 0.19848 0.42396 0.0
C1 C 0.31779 0.92454 0.42597 0.0
Tb2 Tb 0.51625 0.16335 0.37978 0.0
O3 O 0.20471 0.15873 0.37574 0.0
O4 O 0.31818 0.07547 0.38194 0.0
O5 O 0.32269 1.01858 0.44605 0.0
C6 C 0.65286 0.08841 0.34303 0.0
O7 O 0.37751 0.9599 0.39483 0.0
C8 C 0.65209 0.33825 0.42888 0.0
C9 C 0.45725 0.39172 0.36306 0.0
O10 O 0.63213 0.07231 0.37691 0.0
O11 O 0.60029 0.15214 0.32919 0.0
O12 O 0.65849 0.23505 0.42252 0.0
O13 O 0.54753 0.32041 0.4146 0.0
O14 O 0.49827 0.31333 0.34988 0.0
O15 O 0.40748 0.37862 0.39553 0.0
C16 C 0.24329 0.21379 0.48912 0.0
O17 O 0.17454 0.17843 0.4597 0.0
O18 O 0.36236 0.2487 0.48072 0.0
C19 C 0.24803 0.08955 0.35997 0.0
Tb20 Tb 0.18412 0.31176 0.59063 0.0
C21 C 0.44042 0.29412 0.59262 0.0
Tb22 Tb 0.40013 0.49266 0.54645 0.0
O23 O 0.09317 0.18105 0.54241 0.0
O24 O 0.28991 0.2946 0.5486 0.0
O25 O 0.3513 0.29902 0.6127 0.0
C26 C 0.61169 0.62927 0.5097 0.0
O27 O 0.4648 0.35387 0.56149 0.0
C28 C 0.36105 0.62845 0.59555 0.0
C29 C 0.11276 0.43367 0.52973 0.0
O30 O 0.60705 0.60853 0.54358 0.0
O31 O 0.49539 0.57672 0.49586 0.0
O32 O 0.47066 0.63486 0.58919 0.0
O33 O 0.27434 0.5239 0.58127 0.0
O34 O 0.23217 0.47472 0.51655 0.0
O35 O 0.07607 0.38387 0.56219 0.0
C36 C 0.07672 0.21966 0.65579 0.0
O37 O 1.04331 0.15092 0.62636 0.0
O38 O 0.1609 0.33873 0.64739 0.0
C39 C 0.20566 0.2245 0.52662 0.0
Tb40 Tb 0.91959 0.16051 0.7573 0.0
C41 C 0.19354 0.41681 0.75929 0.0
Tb42 Tb 0.9547 0.37651 0.71312 0.0
O43 O 0.95934 0.06955 0.70908 0.0
O44 O 1.04254 0.2663 0.71526 0.0
O45 O 0.09951 0.32768 0.77937 0.0
C46 C 1.02965 0.58808 0.67637 0.0
O47 O 0.15816 0.44118 0.72815 0.0
C48 C 0.77982 0.33743 0.76222 0.0
C49 C 0.72631 0.08915 0.6964 0.0
O50 O 1.04577 0.58344 0.71025 0.0
O51 O 0.96588 0.47178 0.66253 0.0
O52 O 0.88303 0.44704 0.75586 0.0
O53 O 0.79766 0.25072 0.74794 0.0
O54 O 0.80468 0.20857 0.68322 0.0
O55 O 0.73943 0.05247 0.72886 0.0
C56 C 0.90428 0.0531 0.82246 0.0
O57 O 0.93961 1.01969 0.79303 0.0
O58 O 0.8694 0.13728 0.81406 0.0
C59 C 1.02838 0.18205 0.69329 0.0
Tb60 Tb 0.80631 0.89597 0.92396 0.0
C61 C 0.82395 0.16991 0.92595 0.0
Tb62 Tb 0.6254 0.93107 0.87978 0.0
O63 O 0.93702 0.93573 0.87575 0.0
O64 O 0.82347 1.01892 0.88193 0.0
O65 O 0.81905 0.07589 0.94604 0.0
C66 C 0.48879 1.00603 0.84304 0.0
O67 O 0.7642 0.13454 0.89482 0.0
C68 C 0.48962 0.7562 0.92889 0.0
C69 C 0.68439 0.70269 0.86307 0.0
O70 O 0.50955 1.02214 0.87692 0.0
O71 O 0.54132 0.94226 0.8292 0.0
O72 O 0.48321 0.85941 0.92253 0.0
O73 O 0.59417 0.77405 0.9146 0.0
O74 O 0.64334 0.78106 0.84989 0.0
O75 O 0.73419 0.71582 0.89553 0.0
C76 C 0.89841 0.88066 0.98913 0.0
O77 O 0.96715 0.916 0.9597 0.0
O78 O 0.77934 0.84577 0.98073 0.0
C79 C 0.89356 1.00476 0.85996 0.0
Tb80 Tb 0.95757 0.78268 0.09063 0.0
C81 C 0.70126 0.80032 0.09262 0.0
Tb82 Tb 0.74156 0.60178 0.04645 0.0
O83 O 1.04852 0.9134 0.04242 0.0
O84 O 0.85178 0.79984 0.0486 0.0
O85 O 0.79038 0.79542 0.1127 0.0
C86 C 0.52999 0.46516 1.00971 0.0
O87 O 0.67689 0.74057 0.06149 0.0
C88 C 0.78065 0.46599 0.09556 0.0
C89 C 1.02893 0.66077 0.02973 0.0
O90 O 0.53463 0.48592 0.04358 0.0
O91 O 0.64629 0.5177 0.99586 0.0
O92 O 0.67103 0.45958 0.08919 0.0
O93 O 0.86735 0.57054 0.08127 0.0
O94 O 0.90951 0.61972 0.01655 0.0
O95 O 1.06561 0.71057 0.0622 0.0
C96 C 1.06497 0.87478 0.15579 0.0
O97 O 0.09838 0.94352 0.12637 0.0
O98 O 0.98079 0.75572 0.14739 0.0
C99 C 0.93603 0.86994 0.02663 0.0
Tb100 Tb 0.22212 0.93395 0.2573 0.0
C101 C 0.94819 0.67765 0.2593 0.0
Tb102 Tb 0.18699 0.71793 0.21312 0.0
O103 O 0.18236 1.0249 0.20908 0.0
O104 O 0.09915 0.82815 0.21527 0.0
O105 O 1.04223 0.76676 0.27938 0.0
C106 C 0.11203 0.50637 0.17637 0.0
O107 O 0.98354 0.65328 0.22816 0.0
C108 C 0.36188 0.75702 0.26222 0.0
C109 C 0.41537 1.0053 0.19639 0.0
O110 O 0.09592 0.51101 0.21025 0.0
O111 O 0.17579 0.62266 0.16253 0.0
O112 O 0.25867 0.64741 0.25586 0.0
O113 O 0.34404 0.84373 0.24793 0.0
O114 O 0.337 0.88588 0.18322 0.0
O115 O 0.40225 1.04201 0.22885 0.0
C116 C 0.23756 1.04144 0.32245 0.0
O117 O 0.20198 0.07467 0.29304 0.0
O118 O 0.27253 0.95733 0.31404 0.0
C119 C 0.11331 0.9124 0.19329 0.0
Tb120 Tb 0.91957 0.78265 0.42894 0.0
C121 C 0.19332 0.80002 0.4269 0.0
Tb122 Tb 0.95463 0.60184 0.47315 0.0
O123 O 0.95945 0.91344 0.47714 0.0
O124 O 1.04261 0.79989 0.47095 0.0
O125 O 0.09935 0.7952 0.40682 0.0
C126 C 1.02995 0.46567 0.50992 0.0
O127 O 0.15809 0.74046 0.45806 0.0
C128 C 0.77976 0.46584 0.42416 0.0
C129 C 0.72645 0.6611 0.48988 0.0
O130 O 1.04587 0.48615 0.47603 0.0
O131 O 0.966 0.518 0.52376 0.0
O132 O 0.8829 0.4593 0.43049 0.0
O133 O 0.79749 0.57052 0.43833 0.0
O134 O 0.80474 0.61996 0.50306 0.0
O135 O 0.73951 0.71077 0.4574 0.0
C136 C 0.90428 0.87475 0.36377 0.0
O137 O 0.93975 0.94352 0.39319 0.0
O138 O 0.86924 0.75566 0.37218 0.0
C139 C 1.02861 0.8701 0.49292 0.0
Tb140 Tb 0.18413 0.89593 0.5956 0.0
C141 C 0.4405 0.16967 0.59355 0.0
Tb142 Tb 0.40002 0.93102 0.63982 0.0
O143 O 0.09322 0.93581 0.64381 0.0
O144 O 0.28993 1.01899 0.63762 0.0
O145 O 0.35135 0.07568 0.57347 0.0
C146 C 0.6115 1.00635 0.67659 0.0
O147 O 0.46484 0.13446 0.62471 0.0
C148 C 0.36113 0.75613 0.59083 0.0
C149 C 0.11256 0.70284 0.65655 0.0
O150 O 0.60694 1.02226 0.6427 0.0
O151 O 0.49522 0.94241 0.69043 0.0
O152 O 0.47081 0.85927 0.59716 0.0
O153 O 0.27418 0.77386 0.60501 0.0
O154 O 0.23201 0.78113 0.66973 0.0
O155 O 0.07593 0.7159 0.62408 0.0
C156 C 0.07666 0.88051 0.53044 0.0
O157 O 1.04352 0.91622 0.55985 0.0
O158 O 0.16064 0.84538 0.53887 0.0
C159 C 0.20572 1.00499 0.65958 0.0
Tb160 Tb 0.33542 0.16051 0.76227 0.0
C161 C 0.31807 0.41689 0.76022 0.0
Tb162 Tb 0.51623 0.3764 0.80649 0.0
O163 O 0.20463 0.0696 0.81048 0.0
O164 O 0.31817 0.26631 0.80428 0.0
O165 O 0.32291 0.32774 0.74014 0.0
C166 C 0.65238 0.58788 0.84325 0.0
O167 O 0.37761 0.44122 0.79138 0.0
C168 C 0.65224 0.33752 0.7575 0.0
C169 C 0.45695 0.08894 0.82322 0.0
O170 O 0.63191 0.58332 0.80936 0.0
O171 O 0.60004 0.47161 0.8571 0.0
O172 O 0.65878 0.44719 0.76383 0.0
O173 O 0.54755 0.25057 0.77168 0.0
O174 O 0.4981 0.20839 0.83639 0.0
O175 O 0.40725 0.05231 0.79074 0.0
C176 C 0.24337 0.05304 0.69711 0.0
O177 O 0.17452 1.0199 0.72651 0.0
O178 O 0.36248 0.13702 0.70553 0.0
C179 C 0.24796 0.1821 0.82625 0.0
Tb180 Tb 0.22214 0.3118 0.92894 0.0
C181 C 0.9484 0.29444 0.92689 0.0
Tb182 Tb 0.18705 0.4926 0.97315 0.0
O183 O 0.18226 0.18101 0.97714 0.0
O184 O 0.09908 0.29455 0.97095 0.0
O185 O 1.0424 0.29929 0.90681 0.0
C186 C 0.11173 0.62876 0.00992 0.0
O187 O 0.98362 0.35399 0.95805 0.0
C188 C 0.36194 0.62861 0.92417 0.0
C189 C 0.41523 0.43333 0.98988 0.0
O190 O 0.09582 0.60829 0.97603 0.0
O191 O 0.17567 0.57642 0.02377 0.0
O192 O 0.2588 0.63515 0.9305 0.0
O193 O 0.34421 0.52393 0.93834 0.0
O194 O 0.33695 0.47448 1.00306 0.0
O195 O 0.40217 0.38364 0.95741 0.0
C196 C 0.23756 0.21975 0.86377 0.0
O197 O 0.20184 0.1509 0.89318 0.0
O198 O 0.27268 0.33886 0.8722 0.0
C199 C 0.11308 0.22433 0.99291 0.0
Tb200 Tb 0.95756 0.19851 0.0956 0.0
C201 C 0.70119 0.92477 0.09355 0.0
Tb202 Tb 0.74167 0.16342 0.13981 0.0
O203 O 1.04847 0.15864 0.14381 0.0
O204 O 0.85176 0.07545 0.13761 0.0
O205 O 0.79033 1.01876 0.07347 0.0
C206 C 0.53018 0.0881 0.17658 0.0
O207 O 0.67685 0.95999 0.12471 0.0
C208 C 0.78056 0.33832 0.09083 0.0
C209 C 1.02912 0.3916 0.15655 0.0
O210 O 0.53474 0.07218 0.14269 0.0
O211 O 0.64646 0.15205 0.19043 0.0
O212 O 0.67088 0.23517 0.09716 0.0
O213 O 0.86751 0.32059 0.105 0.0
O214 O 0.90968 0.31331 0.16972 0.0
O215 O 1.06576 0.37855 0.12407 0.0
C216 C 1.06503 0.21393 0.03044 0.0
O217 O 0.09818 0.17823 0.05985 0.0
O218 O 0.98105 0.24905 0.03886 0.0
C219 C 0.93597 0.08946 0.15958 0.0
Tb220 Tb 0.80628 0.93395 0.26227 0.0
C221 C 0.82367 0.6776 0.26023 0.0
Tb222 Tb 0.62543 0.71803 0.30648 0.0
O223 O 0.9371 1.02487 0.31047 0.0
O224 O 0.82347 0.82814 0.30429 0.0
O225 O 0.81883 0.76673 0.24015 0.0
C226 C 0.48926 0.50653 0.34324 0.0
O227 O 0.7641 0.65326 0.29139 0.0
C228 C 0.48947 0.75693 0.25749 0.0
C229 C 0.68469 1.00548 0.32321 0.0
O230 O 0.50977 0.5111 0.30936 0.0
O231 O 0.54157 0.6228 0.35709 0.0
O232 O 0.48292 0.64725 0.26382 0.0
O233 O 0.59414 0.84387 0.27167 0.0
O234 O 0.64351 0.88603 0.33639 0.0
O235 O 0.73442 1.04213 0.29074 0.0
C236 C 0.89832 1.0414 0.1971 0.0
O237 O 0.96717 0.07457 0.22651 0.0
O238 O 0.77922 0.9574 0.20553 0.0
C239 C 0.89364 0.91238 0.32626 0.0
loop_
_geom_bond_atom_site_label_1
_geom_bond_atom_site_label_2
_geom_bond_distance
_geom_bond_site_symmetry_2
_ccdc_geom_bond_type
Tb0 O3 2.453 . S
Tb0 O4 2.596 . S
Tb0 O5 2.374 1_545 S
Tb0 O13 2.343 . S
Tb0 O15 2.353 . S
Tb0 O17 2.427 . S
Tb0 O18 2.513 . S
C1 O5 1.251 . S
C1 O7 1.263 . S
Tb2 O4 2.343 . S
Tb2 O7 2.353 1_545 S
Tb2 O10 2.427 1_545 S
Tb2 O11 2.513 . S
Tb2 O12 2.453 . S
Tb2 O13 2.596 . S
Tb2 O14 2.374 . S
O3 Tb0 2.453 . S
O3 C19 1.245 1_545 S
O4 Tb0 2.596 . S
O4 Tb2 2.343 . S
O4 C19 1.259 1_545 S
O5 Tb0 2.374 1_565 S
O5 C1 1.251 . S
C6 O10 1.275 . S
C6 O11 1.246 1_565 S
O7 C1 1.263 . S
O7 Tb2 2.353 1_565 S
C8 O12 1.245 . S
C8 O13 1.259 . S
C9 O14 1.250 . S
C9 O15 1.263 . S
O10 Tb2 2.427 1_565 S
O10 C6 1.275 . S
O11 Tb2 2.513 . S
O11 C6 1.246 1_545 S
O12 Tb2 2.453 . S
O12 C8 1.245 . S
O13 Tb0 2.343 . S
O13 Tb2 2.596 . S
O13 C8 1.259 . S
O14 Tb2 2.374 . S
O14 C9 1.250 . S
O15 Tb0 2.353 . S
O15 C9 1.263 . S
C16 O17 1.275 . S
C16 O18 1.246 . S
O17 Tb0 2.427 . S
O17 C16 1.275 . S
O18 Tb0 2.513 . S
O18 C16 1.246 . S
C19 O3 1.245 1_565 S
C19 O4 1.259 1_565 S
Tb20 O23 2.453 . S
Tb20 O24 2.596 . S
Tb20 O25 2.374 . S
Tb20 O33 2.343 . S
Tb20 O35 2.353 . S
Tb20 O37 2.427 . S
Tb20 O38 2.513 . S
C21 O25 1.251 . S
C21 O27 1.263 . S
Tb22 O24 2.343 . S
Tb22 O27 2.353 . S
Tb22 O30 2.427 . S
Tb22 O31 2.513 . S
Tb22 O32 2.453 . S
Tb22 O33 2.596 . S
Tb22 O34 2.374 . S
O23 Tb20 2.453 . S
O23 C39 1.245 . S
O24 Tb20 2.596 . S
O24 Tb22 2.343 . S
O24 C39 1.259 . S
O25 Tb20 2.374 . S
O25 C21 1.251 . S
C26 O30 1.275 . S
C26 O31 1.246 . S
O27 C21 1.263 . S
O27 Tb22 2.353 . S
C28 O32 1.245 . S
C28 O33 1.259 . S
C29 O34 1.250 . S
C29 O35 1.263 . S
O30 Tb22 2.427 . S
O30 C26 1.275 . S
O31 Tb22 2.513 . S
O31 C26 1.246 . S
O32 Tb22 2.453 . S
O32 C28 1.245 . S
O33 Tb20 2.343 . S
O33 Tb22 2.596 . S
O33 C28 1.259 . S
O34 Tb22 2.374 . S
O34 C29 1.250 . S
O35 Tb20 2.353 . S
O35 C29 1.263 . S
C36 O37 1.275 . S
C36 O38 1.246 . S
O37 Tb20 2.427 . S
O37 C36 1.275 . S
O38 Tb20 2.513 . S
O38 C36 1.246 . S
C39 O23 1.245 . S
C39 O24 1.259 . S
Tb40 O43 2.453 . S
Tb40 O44 2.596 . S
Tb40 O45 2.374 1_655 S
Tb40 O53 2.343 . S
Tb40 O55 2.353 . S
Tb40 O57 2.427 . S
Tb40 O58 2.513 . S
C41 O45 1.251 . S
C41 O47 1.263 . S
Tb42 O44 2.343 . S
Tb42 O47 2.353 1_655 S
Tb42 O50 2.427 1_655 S
Tb42 O51 2.513 . S
Tb42 O52 2.453 . S
Tb42 O53 2.596 . S
Tb42 O54 2.374 . S
O43 Tb40 2.453 . S
O43 C59 1.245 1_655 S
O44 Tb40 2.596 . S
O44 Tb42 2.343 . S
O44 C59 1.259 1_655 S
O45 Tb40 2.374 1_455 S
O45 C41 1.251 . S
C46 O50 1.275 . S
C46 O51 1.246 1_455 S
O47 C41 1.263 . S
O47 Tb42 2.353 1_455 S
C48 O52 1.245 . S
C48 O53 1.259 . S
C49 O54 1.250 . S
C49 O55 1.263 . S
O50 Tb42 2.427 1_455 S
O50 C46 1.275 . S
O51 Tb42 2.513 . S
O51 C46 1.246 1_655 S
O52 Tb42 2.453 . S
O52 C48 1.245 . S
O53 Tb40 2.343 . S
O53 Tb42 2.596 . S
O53 C48 1.259 . S
O54 Tb42 2.374 . S
O54 C49 1.250 . S
O55 Tb40 2.353 . S
O55 C49 1.263 . S
C56 O57 1.275 . S
C56 O58 1.246 . S
O57 Tb40 2.427 . S
O57 C56 1.275 . S
O58 Tb40 2.513 . S
O58 C56 1.246 . S
C59 O43 1.245 1_455 S
C59 O44 1.259 1_455 S
Tb60 O63 2.453 . S
Tb60 O64 2.596 . S
Tb60 O65 2.374 1_565 S
Tb60 O73 2.343 . S
Tb60 O75 2.353 . S
Tb60 O77 2.427 . S
Tb60 O78 2.513 . S
C61 O65 1.251 . S
C61 O67 1.263 . S
Tb62 O64 2.343 . S
Tb62 O67 2.353 1_565 S
Tb62 O70 2.427 1_565 S
Tb62 O71 2.513 . S
Tb62 O72 2.453 . S
Tb62 O73 2.596 . S
Tb62 O74 2.374 . S
O63 Tb60 2.453 . S
O63 C79 1.245 1_565 S
O64 Tb60 2.596 . S
O64 Tb62 2.343 . S
O64 C79 1.259 1_565 S
O65 Tb60 2.374 1_545 S
O65 C61 1.251 . S
C66 O70 1.275 . S
C66 O71 1.246 1_545 S
O67 C61 1.263 . S
O67 Tb62 2.353 1_545 S
C68 O72 1.245 . S
C68 O73 1.259 . S
C69 O74 1.250 . S
C69 O75 1.263 . S
O70 Tb62 2.427 1_545 S
O70 C66 1.275 . S
O71 Tb62 2.513 . S
O71 C66 1.246 1_565 S
O72 Tb62 2.453 . S
O72 C68 1.245 . S
O73 Tb60 2.343 . S
O73 Tb62 2.596 . S
O73 C68 1.259 . S
O74 Tb62 2.374 . S
O74 C69 1.250 . S
O75 Tb60 2.353 . S
O75 C69 1.263 . S
C76 O77 1.275 . S
C76 O78 1.246 . S
O77 Tb60 2.427 . S
O77 C76 1.275 . S
O78 Tb60 2.513 . S
O78 C76 1.246 . S
C79 O63 1.245 1_545 S
C79 O64 1.259 1_545 S
Tb80 O83 2.453 . S
Tb80 O84 2.596 . S
Tb80 O85 2.374 . S
Tb80 O93 2.343 . S
Tb80 O95 2.353 . S
Tb80 O97 2.427 . S
Tb80 O98 2.513 . S
C81 O85 1.251 . S
C81 O87 1.263 . S
Tb82 O84 2.343 . S
Tb82 O87 2.353 . S
Tb82 O90 2.427 . S
Tb82 O91 2.513 1_554 S
Tb82 O92 2.453 . S
Tb82 O93 2.596 . S
Tb82 O94 2.374 . S
O83 Tb80 2.453 . S
O83 C99 1.245 . S
O84 Tb80 2.596 . S
O84 Tb82 2.343 . S
O84 C99 1.259 . S
O85 Tb80 2.374 . S
O85 C81 1.251 . S
C86 O90 1.275 1_556 S
C86 O91 1.246 . S
O87 C81 1.263 . S
O87 Tb82 2.353 . S
C88 O92 1.245 . S
C88 O93 1.259 . S
C89 O94 1.250 . S
C89 O95 1.263 . S
O90 Tb82 2.427 . S
O90 C86 1.275 1_554 S
O91 Tb82 2.513 1_556 S
O91 C86 1.246 . S
O92 Tb82 2.453 . S
O92 C88 1.245 . S
O93 Tb80 2.343 . S
O93 Tb82 2.596 . S
O93 C88 1.259 . S
O94 Tb82 2.374 . S
O94 C89 1.250 . S
O95 Tb80 2.353 . S
O95 C89 1.263 . S
C96 O97 1.275 . S
C96 O98 1.246 . S
O97 Tb80 2.427 . S
O97 C96 1.275 . S
O98 Tb80 2.513 . S
O98 C96 1.246 . S
C99 O83 1.245 . S
C99 O84 1.259 . S
Tb100 O103 2.453 . S
Tb100 O104 2.596 . S
Tb100 O105 2.374 1_455 S
Tb100 O113 2.343 . S
Tb100 O115 2.353 . S
Tb100 O117 2.427 . S
Tb100 O118 2.513 . S
C101 O105 1.251 . S
C101 O107 1.263 . S
Tb102 O104 2.343 . S
Tb102 O107 2.353 1_455 S
Tb102 O110 2.427 1_455 S
Tb102 O111 2.513 . S
Tb102 O112 2.453 . S
Tb102 O113 2.596 . S
Tb102 O114 2.374 . S
O103 Tb100 2.453 . S
O103 C119 1.245 1_455 S
O104 Tb100 2.596 . S
O104 Tb102 2.343 . S
O104 C119 1.259 1_455 S
O105 Tb100 2.374 1_655 S
O105 C101 1.251 . S
C106 O110 1.275 . S
C106 O111 1.246 1_655 S
O107 C101 1.263 . S
O107 Tb102 2.353 1_655 S
C108 O112 1.245 . S
C108 O113 1.259 . S
C109 O114 1.250 . S
C109 O115 1.263 . S
O110 Tb102 2.427 1_655 S
O110 C106 1.275 . S
O111 Tb102 2.513 . S
O111 C106 1.246 1_455 S
O112 Tb102 2.453 . S
O112 C108 1.245 . S
O113 Tb100 2.343 . S
O113 Tb102 2.596 . S
O113 C108 1.259 . S
O114 Tb102 2.374 . S
O114 C109 1.250 . S
O115 Tb100 2.353 . S
O115 C109 1.263 . S
C116 O117 1.275 . S
C116 O118 1.246 . S
O117 Tb100 2.427 . S
O117 C116 1.275 . S
O118 Tb100 2.513 . S
O118 C116 1.246 . S
C119 O103 1.245 1_655 S
C119 O104 1.259 1_655 S
Tb120 O123 2.453 . S
Tb120 O124 2.596 . S
Tb120 O125 2.374 1_655 S
Tb120 O133 2.343 . S
Tb120 O135 2.353 . S
Tb120 O137 2.427 . S
Tb120 O138 2.513 . S
C121 O125 1.251 . S
C121 O127 1.263 . S
Tb122 O124 2.343 . S
Tb122 O127 2.353 1_655 S
Tb122 O130 2.427 1_655 S
Tb122 O131 2.513 . S
Tb122 O132 2.453 . S
Tb122 O133 2.596 . S
Tb122 O134 2.374 . S
O123 Tb120 2.453 . S
O123 C139 1.245 1_655 S
O124 Tb120 2.596 . S
O124 Tb122 2.343 . S
O124 C139 1.259 1_655 S
O125 Tb120 2.374 1_455 S
O125 C121 1.251 . S
C126 O130 1.275 . S
C126 O131 1.246 1_455 S
O127 C121 1.263 . S
O127 Tb122 2.353 1_455 S
C128 O132 1.245 . S
C128 O133 1.259 . S
C129 O134 1.250 . S
C129 O135 1.263 . S
O130 Tb122 2.427 1_455 S
O130 C126 1.275 . S
O131 Tb122 2.513 . S
O131 C126 1.246 1_655 S
O132 Tb122 2.453 . S
O132 C128 1.245 . S
O133 Tb120 2.343 . S
O133 Tb122 2.596 . S
O133 C128 1.259 . S
O134 Tb122 2.374 . S
O134 C129 1.250 . S
O135 Tb120 2.353 . S
O135 C129 1.263 . S
C136 O137 1.275 . S
C136 O138 1.246 . S
O137 Tb120 2.427 . S
O137 C136 1.275 . S
O138 Tb120 2.513 . S
O138 C136 1.246 . S
C139 O123 1.245 1_455 S
C139 O124 1.259 1_455 S
Tb140 O143 2.453 . S
Tb140 O144 2.596 . S
Tb140 O145 2.374 1_565 S
Tb140 O153 2.343 . S
Tb140 O155 2.353 . S
Tb140 O157 2.427 . S
Tb140 O158 2.513 . S
C141 O145 1.251 . S
C141 O147 1.263 . S
Tb142 O144 2.343 . S
Tb142 O147 2.353 1_565 S
Tb142 O150 2.427 1_565 S
Tb142 O151 2.513 . S
Tb142 O152 2.453 . S
Tb142 O153 2.596 . S
Tb142 O154 2.374 . S
O143 Tb140 2.453 . S
O143 C159 1.245 1_565 S
O144 Tb140 2.596 . S
O144 Tb142 2.343 . S
O144 C159 1.259 1_565 S
O145 Tb140 2.374 1_545 S
O145 C141 1.251 . S
C146 O150 1.275 . S
C146 O151 1.246 1_545 S
O147 C141 1.263 . S
O147 Tb142 2.353 1_545 S
C148 O152 1.245 . S
C148 O153 1.259 . S
C149 O154 1.250 . S
C149 O155 1.263 . S
O150 Tb142 2.427 1_545 S
O150 C146 1.275 . S
O151 Tb142 2.513 . S
O151 C146 1.246 1_565 S
O152 Tb142 2.453 . S
O152 C148 1.245 . S
O153 Tb140 2.343 . S
O153 Tb142 2.596 . S
O153 C148 1.259 . S
O154 Tb142 2.374 . S
O154 C149 1.250 . S
O155 Tb140 2.353 . S
O155 C149 1.263 . S
C156 O157 1.275 . S
C156 O158 1.246 . S
O157 Tb140 2.427 . S
O157 C156 1.275 . S
O158 Tb140 2.513 . S
O158 C156 1.246 . S
C159 O143 1.245 1_545 S
C159 O144 1.259 1_545 S
Tb160 O163 2.453 . S
Tb160 O164 2.596 . S
Tb160 O165 2.374 . S
Tb160 O173 2.343 . S
Tb160 O175 2.353 . S
Tb160 O177 2.427 . S
Tb160 O178 2.513 . S
C161 O165 1.251 . S
C161 O167 1.263 . S
Tb162 O164 2.343 . S
Tb162 O167 2.353 . S
Tb162 O170 2.427 . S
Tb162 O171 2.513 . S
Tb162 O172 2.453 . S
Tb162 O173 2.596 . S
Tb162 O174 2.374 . S
O163 Tb160 2.453 . S
O163 C179 1.245 . S
O164 Tb160 2.596 . S
O164 Tb162 2.343 . S
O164 C179 1.259 . S
O165 Tb160 2.374 . S
O165 C161 1.251 . S
C166 O170 1.275 . S
C166 O171 1.246 . S
O167 C161 1.263 . S
O167 Tb162 2.353 . S
C168 O172 1.245 . S
C168 O173 1.259 . S
C169 O174 1.250 . S
C169 O175 1.263 . S
O170 Tb162 2.427 . S
O170 C166 1.275 . S
O171 Tb162 2.513 . S
O171 C166 1.246 . S
O172 Tb162 2.453 . S
O172 C168 1.245 . S
O173 Tb160 2.343 . S
O173 Tb162 2.596 . S
O173 C168 1.259 . S
O174 Tb162 2.374 . S
O174 C169 1.250 . S
O175 Tb160 2.353 . S
O175 C169 1.263 . S
C176 O177 1.275 . S
C176 O178 1.246 . S
O177 Tb160 2.427 . S
O177 C176 1.275 . S
O178 Tb160 2.513 . S
O178 C176 1.246 . S
C179 O163 1.245 . S
C179 O164 1.259 . S
Tb180 O183 2.453 . S
Tb180 O184 2.596 . S
Tb180 O185 2.374 1_455 S
Tb180 O193 2.343 . S
Tb180 O195 2.353 . S
Tb180 O197 2.427 . S
Tb180 O198 2.513 . S
C181 O185 1.251 . S
C181 O187 1.263 . S
Tb182 O184 2.343 . S
Tb182 O187 2.353 1_455 S
Tb182 O190 2.427 1_455 S
Tb182 O191 2.513 1_556 S
Tb182 O192 2.453 . S
Tb182 O193 2.596 . S
Tb182 O194 2.374 . S
O183 Tb180 2.453 . S
O183 C199 1.245 1_455 S
O184 Tb180 2.596 . S
O184 Tb182 2.343 . S
O184 C199 1.259 1_455 S
O185 Tb180 2.374 1_655 S
O185 C181 1.251 . S
C186 O190 1.275 1_554 S
C186 O191 1.246 1_655 S
O187 C181 1.263 . S
O187 Tb182 2.353 1_655 S
C188 O192 1.245 . S
C188 O193 1.259 . S
C189 O194 1.250 . S
C189 O195 1.263 . S
O190 Tb182 2.427 1_655 S
O190 C186 1.275 1_556 S
O191 Tb182 2.513 1_554 S
O191 C186 1.246 1_455 S
O192 Tb182 2.453 . S
O192 C188 1.245 . S
O193 Tb180 2.343 . S
O193 Tb182 2.596 . S
O193 C188 1.259 . S
O194 Tb182 2.374 . S
O194 C189 1.250 . S
O195 Tb180 2.353 . S
O195 C189 1.263 . S
C196 O197 1.275 . S
C196 O198 1.246 . S
O197 Tb180 2.427 . S
O197 C196 1.275 . S
O198 Tb180 2.513 . S
O198 C196 1.246 . S
C199 O183 1.245 1_655 S
C199 O184 1.259 1_655 S
Tb200 O203 2.453 . S
Tb200 O204 2.596 . S
Tb200 O205 2.374 1_545 S
Tb200 O213 2.343 . S
Tb200 O215 2.353 . S
Tb200 O217 2.427 . S
Tb200 O218 2.513 . S
C201 O205 1.251 . S
C201 O207 1.263 . S
Tb202 O204 2.343 . S
Tb202 O207 2.353 1_545 S
Tb202 O210 2.427 1_545 S
Tb202 O211 2.513 . S
Tb202 O212 2.453 . S
Tb202 O213 2.596 . S
Tb202 O214 2.374 . S
O203 Tb200 2.453 . S
O203 C219 1.245 1_545 S
O204 Tb200 2.596 . S
O204 Tb202 2.343 . S
O204 C219 1.259 1_545 S
O205 Tb200 2.374 1_565 S
O205 C201 1.251 . S
C206 O210 1.275 . S
C206 O211 1.246 1_565 S
O207 C201 1.263 . S
O207 Tb202 2.353 1_565 S
C208 O212 1.245 . S
C208 O213 1.259 . S
C209 O214 1.250 . S
C209 O215 1.263 . S
O210 Tb202 2.427 1_565 S
O210 C206 1.275 . S
O211 Tb202 2.513 . S
O211 C206 1.246 1_545 S
O212 Tb202 2.453 . S
O212 C208 1.245 . S
O213 Tb200 2.343 . S
O213 Tb202 2.596 . S
O213 C208 1.259 . S
O214 Tb202 2.374 . S
O214 C209 1.250 . S
O215 Tb200 2.353 . S
O215 C209 1.263 . S
C216 O217 1.275 . S
C216 O218 1.246 . S
O217 Tb200 2.427 . S
O217 C216 1.275 . S
O218 Tb200 2.513 . S
O218 C216 1.246 . S
C219 O203 1.245 1_565 S
C219 O204 1.259 1_565 S
Tb220 O223 2.453 . S
Tb220 O224 2.596 . S
Tb220 O225 2.374 . S
Tb220 O233 2.343 . S
Tb220 O235 2.353 . S
Tb220 O237 2.427 . S
Tb220 O238 2.513 . S
C221 O225 1.251 . S
C221 O227 1.263 . S
Tb222 O224 2.343 . S
Tb222 O227 2.353 . S
Tb222 O230 2.427 . S
Tb222 O231 2.513 . S
Tb222 O232 2.453 . S
Tb222 O233 2.596 . S
Tb222 O234 2.374 . S
O223 Tb220 2.453 . S
O223 C239 1.245 . S
O224 Tb220 2.596 . S
O224 Tb222 2.343 . S
O224 C239 1.259 . S
O225 Tb220 2.374 . S
O225 C221 1.251 . S
C226 O230 1.275 . S
C226 O231 1.246 . S
O227 C221 1.263 . S
O227 Tb222 2.353 . S
C228 O232 1.245 . S
C228 O233 1.259 . S
C229 O234 1.250 . S
C229 O235 1.263 . S
O230 Tb222 2.427 . S
O230 C226 1.275 . S
O231 Tb222 2.513 . S
O231 C226 1.246 . S
O232 Tb222 2.453 . S
O232 C228 1.245 . S
O233 Tb220 2.343 . S
O233 Tb222 2.596 . S
O233 C228 1.259 . S
O234 Tb222 2.374 . S
O234 C229 1.250 . S
O235 Tb220 2.353 . S
O235 C229 1.263 . S
C236 O237 1.275 . S
C236 O238 1.246 . S
O237 Tb220 2.427 . S
O237 C236 1.275 . S
O238 Tb220 2.513 . S
O238 C236 1.246 . S
C239 O223 1.245 . S
C239 O224 1.259 . S
C116 C19 2.167 . S
C39 C16 2.167 . S
C59 C36 2.167 . S
C56 C79 2.167 . S
C76 C99 2.167 1_556 S
C119 C96 2.167 . S
C156 C139 2.167 . S
C159 C176 2.167 . S
C196 C179 2.167 . S
C216 C199 2.167 1_554 S
C236 C219 2.167 . S
C136 C239 2.167 . S
C229 C6 1.626 . S
C26 C129 1.626 . S
C149 C46 1.625 . S
C169 C66 1.626 . S
C189 C86 1.626 . S
C106 C209 1.626 . S
C126 C29 1.626 . S
C146 C49 1.626 . S
C69 C166 1.626 . S
C89 C186 1.626 . S
C206 C109 1.626 . S
C226 C9 1.626 . S
C121 C1 2.694 . S
C21 C141 2.694 . S
C161 C41 2.694 . S
C61 C181 2.694 . S
C201 C81 2.694 . S
C221 C101 2.694 . S
C128 C8 2.691 . S
C148 C28 2.691 . S
C168 C48 2.691 . S
C68 C188 2.691 . S
C208 C88 2.691 . S
C228 C108 2.691 . S
