# Generated by pormake.
# Topology rob, (6)-cn, num edge types: 1
# Building blocks:
#     Node 0, Type 0, BuildingBlock: PAMTUU_clean_sbu_0, # of connection points: 6
#     Node 1, Type 0, BuildingBlock: PAMTUU_clean_sbu_0, # of connection points: 6
#     Node 2, Type 0, BuildingBlock: PAMTUU_clean_sbu_0, # of connection points: 6
#     Node 3, Type 0, BuildingBlock: PAMTUU_clean_sbu_0, # of connection points: 6
#     Edge 4, Type (0, 0), BuildingBlock: XIVTED_clean_linker_0, # of connection points: 2
#     Edge 5, Type (0, 0), BuildingBlock: XIVTED_clean_linker_0, # of connection points: 2
#     Edge 6, Type (0, 0), BuildingBlock: XIVTED_clean_linker_0, # of connection points: 2
#     Edge 7, Type (0, 0), BuildingBlock: XIVTED_clean_linker_0, # of connection points: 2
#     Edge 8, Type (0, 0), BuildingBlock: XIVTED_clean_linker_0, # of connection points: 2
#     Edge 9, Type (0, 0), BuildingBlock: XIVTED_clean_linker_0, # of connection points: 2
#     Edge 10, Type (0, 0), BuildingBlock: XIVTED_clean_linker_0, # of connection points: 2
#     Edge 11, Type (0, 0), BuildingBlock: XIVTED_clean_linker_0, # of connection points: 2
#     Edge 12, Type (0, 0), BuildingBlock: XIVTED_clean_linker_0, # of connection points: 2
#     Edge 13, Type (0, 0), BuildingBlock: XIVTED_clean_linker_0, # of connection points: 2
#     Edge 14, Type (0, 0), BuildingBlock: XIVTED_clean_linker_0, # of connection points: 2
#     Edge 15, Type (0, 0), BuildingBlock: XIVTED_clean_linker_0, # of connection points: 2
# Relax obj value: 0.149
# Max RMSD: 0.213
# Mean RMSD: 0.213
data_MOF--net-rob--node1-PAMTUU_clean_sbu_0--edge1-XIVTED_clean_linker_0
_symmetry_space_group_name_H-M    P1
_symmetry_Int_Tables_number       1
_symmetry_cell_setting            triclinic
loop_
_symmetry_equiv_pos_as_xyz
'x, y, z'
_cell_length_a     18.259942
_cell_length_b     24.366732
_cell_length_c     36.343905
_cell_angle_alpha  89.677375
_cell_angle_beta   55.842166
_cell_angle_gamma 90.081976
loop_
_atom_site_label
_atom_site_type_symbol
_atom_site_fract_x
_atom_site_fract_y
_atom_site_fract_z
_atom_type_partial_charge
Tb0 Tb 0.18546 0.29085 0.9946 0.0
Tb1 Tb 0.32119 0.21196 0.00557 0.0
C2 C 0.34473 0.33818 0.99232 0.0
C3 C 0.07041 0.34379 0.94539 0.0
C4 C 0.04399 0.33726 0.87597 0.0
C5 C 0.03637 0.38775 0.89648 0.0
C6 C 0.04927 0.39092 0.93095 0.0
C7 C 0.07815 0.29332 0.925 0.0
C8 C 0.06453 0.29004 0.89084 0.0
C9 C 0.08922 0.34789 0.97983 0.0
O10 O 0.29976 0.27255 0.92841 0.0
O11 O 0.35457 0.19349 0.93963 0.0
O12 O 0.20489 0.16332 0.02441 0.0
O13 O 0.16207 0.20768 0.98367 0.0
O14 O 0.44611 0.19792 0.99414 0.0
O15 O 0.3384 0.14129 0.03327 0.0
O16 O 0.24258 0.25834 0.06624 0.0
O17 O 0.11927 0.27382 0.06539 0.0
O18 O 0.25979 0.34381 0.01019 0.0
O19 O 0.38424 0.29083 0.9771 0.0
C20 C 0.34679 0.22733 0.91373 0.0
O21 O 0.05925 0.30788 0.00892 0.0
O22 O 0.17058 0.36084 0.96528 0.0
C23 C 0.16165 0.16442 0.00528 0.0
C24 C 0.43571 0.15409 0.05535 0.0
C25 C 0.45904 0.14852 0.12586 0.0
C26 C 0.47002 0.1016 0.10089 0.0
C27 C 0.45863 0.10443 0.06594 0.0
C28 C 0.42489 0.20118 0.08004 0.0
C29 C 0.43704 0.19849 0.11481 0.0
C30 C 0.41829 0.15512 0.02035 0.0
C31 C 0.1582 0.26971 0.08669 0.0
H32 H 0.02002 0.42478 0.886 0.0
H33 H 0.04367 0.43029 0.94601 0.0
H34 H 0.09585 0.25652 0.93509 0.0
H35 H 0.07217 0.25071 0.87534 0.0
H36 H 0.48781 0.06266 0.10826 0.0
H37 H 0.46671 0.06759 0.04746 0.0
H38 H 0.40593 0.2398 0.07284 0.0
H39 H 0.42715 0.2352 0.13371 0.0
Tb40 Tb 0.70258 0.77874 0.9942 0.0
Tb41 Tb 0.83422 0.6989 0.00728 0.0
C42 C 0.85379 0.82809 -8e-05 0.0
C43 C 0.59149 0.83049 0.94251 0.0
C44 C 0.57305 0.82584 0.87043 0.0
C45 C 0.56484 0.87602 0.89141 0.0
C46 C 0.57378 0.87825 0.92719 0.0
C47 C 0.60004 0.78033 0.92157 0.0
C48 C 0.59033 0.77798 0.88608 0.0
C49 C 0.60616 0.83378 0.97841 0.0
O50 O 0.82471 0.76743 0.92969 0.0
O51 O 0.87257 0.68493 0.93968 0.0
O52 O 0.71693 0.65235 0.02433 0.0
O53 O 0.68939 0.69605 0.97762 0.0
O54 O 0.95994 0.67451 0.99052 0.0
O55 O 0.8416 0.63274 0.04222 0.0
O56 O 0.75609 0.74582 0.06745 0.0
O57 O 0.6345 0.7619 0.06526 0.0
O58 O 0.77229 0.83378 0.01097 0.0
O59 O 0.89415 0.78035 0.98945 0.0
C60 C 0.87013 0.72192 0.91393 0.0
O61 O 0.57739 0.79236 0.00618 0.0
O62 O 0.6855 0.84891 0.96592 0.0
C63 C 0.68248 0.65301 0.00096 0.0
C64 C 0.95582 0.6413 0.05309 0.0
C65 C 0.99564 0.64368 0.11786 0.0
C66 C 0.9952 0.59381 0.09856 0.0
C67 C 0.97558 0.59272 0.0665 0.0
C68 C 0.95737 0.69134 0.07159 0.0
C69 C 0.97755 0.69255 0.1035 0.0
C70 C 0.9266 0.63843 0.02276 0.0
C71 C 0.67245 0.75848 0.08708 0.0
H72 H 0.55091 0.91351 0.88032 0.0
H73 H 0.56775 0.9174 0.94264 0.0
H74 H 0.61525 0.74303 0.9323 0.0
H75 H 0.59823 0.73886 0.87026 0.0
H76 H 1.0072 0.55525 0.10919 0.0
H77 H 0.97357 0.55364 0.05299 0.0
H78 H 0.94149 0.72931 0.06194 0.0
H79 H 0.97844 0.7318 0.11707 0.0
Tb80 Tb 0.33404 0.76026 0.50683 0.0
Tb81 Tb 0.2005 0.68051 0.49511 0.0
C82 C 0.18262 0.80635 0.50035 0.0
C83 C 0.45713 0.81646 0.55192 0.0
C84 C 0.49629 0.81262 0.61691 0.0
C85 C 0.50133 0.86244 0.59572 0.0
C86 C 0.48197 0.86426 0.56356 0.0
C87 C 0.45349 0.76642 0.57221 0.0
C88 C 0.4733 0.76446 0.60424 0.0
C89 C 0.42781 0.82026 0.52165 0.0
O90 O 0.25607 0.71271 0.56731 0.0
O91 O 0.13347 0.69727 0.5659 0.0
O92 O 0.27065 0.62527 0.51163 0.0
O93 O 0.39328 0.67905 0.48905 0.0
O94 O 0.07462 0.6669 0.5078 0.0
O95 O 0.18158 0.61047 0.46781 0.0
O96 O 0.3219 0.69247 0.43016 0.0
O97 O 0.37203 0.77464 0.43919 0.0
O98 O 0.21758 0.80705 0.52349 0.0
O99 O 0.18829 0.76325 0.47772 0.0
C100 C 0.17205 0.70034 0.58741 0.0
O101 O 0.46035 0.78461 0.48956 0.0
O102 O 0.34286 0.82596 0.54121 0.0
C103 C 0.35258 0.63115 0.49999 0.0
C104 C 0.08708 0.62931 0.44479 0.0
C105 C 0.06703 0.63476 0.37325 0.0
C106 C 0.05178 0.58522 0.3967 0.0
C107 C 0.06155 0.5826 0.43224 0.0
C108 C 0.10264 0.67878 0.42139 0.0
C109 C 0.0922 0.68156 0.38614 0.0
C110 C 0.10228 0.62557 0.48049 0.0
C111 C 0.36832 0.73794 0.41391 0.0
H112 H 0.5173 0.9005 0.60501 0.0
H113 H 0.48405 0.90336 0.54864 0.0
H114 H 0.43369 0.72907 0.5639 0.0
H115 H 0.46993 0.72524 0.61928 0.0
H116 H 0.03171 0.54858 0.38776 0.0
H117 H 0.04997 0.54396 0.44965 0.0
H118 H 0.12388 0.71517 0.43002 0.0
H119 H 0.10567 0.72009 0.36836 0.0
Tb120 Tb 0.822 0.24852 0.50536 0.0
Tb121 Tb 0.6853 0.16932 0.49527 0.0
C122 C 0.6634 0.29585 0.50405 0.0
C123 C 0.94056 0.30566 0.55314 0.0
C124 C 0.96864 0.30883 0.62219 0.0
C125 C 0.97716 0.35667 0.59809 0.0
C126 C 0.96341 0.35501 0.56393 0.0
C127 C 0.93237 0.25765 0.57673 0.0
C128 C 0.94674 0.25915 0.61076 0.0
C129 C 0.91941 0.306 0.51951 0.0
O130 O 0.74291 0.20191 0.5665 0.0
O131 O 0.61938 0.18652 0.56582 0.0
O132 O 0.75808 0.11615 0.51182 0.0
O133 O 0.88353 0.16918 0.4793 0.0
O134 O 0.55861 0.15186 0.51021 0.0
O135 O 0.66947 0.0997 0.46636 0.0
O136 O 0.80054 0.18725 0.42899 0.0
O137 O 0.85529 0.2669 0.43924 0.0
O138 O 0.70705 0.29729 0.52295 0.0
O139 O 0.66287 0.25238 0.48321 0.0
C140 C 0.65834 0.19057 0.58709 0.0
O141 O 0.94817 0.26512 0.49185 0.0
O142 O 0.83777 0.31767 0.53454 0.0
C143 C 0.84284 0.12181 0.49471 0.0
C144 C 0.56856 0.1171 0.44698 0.0
C145 C 0.54126 0.12511 0.37774 0.0
C146 C 0.53531 0.07403 0.3977 0.0
C147 C 0.54876 0.07014 0.43199 0.0
C148 C 0.57433 0.16814 0.42734 0.0
C149 C 0.56029 0.17216 0.39335 0.0
C150 C 0.58804 0.11237 0.48117 0.0
C151 C 0.84763 0.23273 0.41372 0.0
H152 H 0.99218 0.39588 0.60632 0.0
H153 H 0.96884 0.39264 0.5465 0.0
H154 H 0.91385 0.21915 0.56923 0.0
H155 H 0.94066 0.22133 0.62806 0.0
H156 H 0.52225 0.03675 0.38621 0.0
H157 H 0.54508 0.03028 0.44632 0.0
H158 H 0.59038 0.20496 0.43805 0.0
H159 H 0.5641 0.21231 0.37945 0.0
H160 H 0.57483 0.58244 0.06926 0.0
H161 H 0.51571 0.36534 0.92858 0.0
H162 H 0.68466 0.61419 0.93062 0.0
H163 H 0.29007 0.41524 0.05636 0.0
H164 H 0.60137 0.44189 0.93052 0.0
H165 H 0.49128 0.50443 0.06722 0.0
C166 C 0.5819 0.57254 0.0384 0.0
C167 C 0.63598 0.60448 9e-05 0.0
C168 C 0.53306 0.43586 0.95799 0.0
C169 C 0.54314 0.51584 -0.0026 0.0
C170 C 0.48446 0.39247 0.95695 0.0
C171 C 0.39589 0.38468 0.99218 0.0
C172 C 0.49333 0.47018 -0.00483 0.0
C173 C 0.35803 0.42059 0.02834 0.0
C174 C 0.53412 0.52855 0.03734 0.0
C175 C 0.64292 0.59052 0.96088 0.0
N176 N 0.40741 0.46164 0.02919 0.0
N177 N 0.59749 0.54676 0.96038 0.0
H178 H 0.50235 0.62792 0.50014 0.0
H179 H 0.53835 0.30201 0.48534 0.0
H180 H 0.30887 0.52347 0.50208 0.0
H181 H 0.67871 0.40124 0.52497 0.0
H182 H 0.4622 0.38387 0.48491 0.0
H183 H 0.57719 0.54613 0.50255 0.0
C184 C 0.47583 0.58782 0.50088 0.0
C185 C 0.39941 0.58243 0.50079 0.0
C186 C 0.50939 0.38769 0.49388 0.0
C187 C 0.48455 0.48904 0.50354 0.0
C188 C 0.55311 0.34103 0.49401 0.0
C189 C 0.61501 0.34487 0.5052 0.0
C190 C 0.52845 0.4387 0.50447 0.0
C191 C 0.63121 0.39644 0.51631 0.0
C192 C 0.51826 0.54125 0.50253 0.0
C193 C 0.36749 0.52953 0.50219 0.0
N194 N 0.58852 0.44151 0.5154 0.0
N195 N 0.41048 0.48486 0.50329 0.0
H196 H 0.03701 0.15788 0.98643 0.0
H197 H 1.00215 0.83169 0.00136 0.0
H198 H 0.17627 0.05904 0.02714 0.0
H199 H 0.81048 0.93551 0.00147 0.0
H200 H 0.07591 0.91373 0.00453 0.0
H201 H 0.96152 0.07569 0.98586 0.0
C202 C 0.0516 0.11886 -0.00466 0.0
C203 C 0.11307 0.11522 0.00681 0.0
C204 C 0.0176 0.9184 0.00395 0.0
C205 C 0.02729 0.02098 0.00591 0.0
C206 C 0.97583 0.8717 0.00185 0.0
C207 C 0.90024 0.87686 0.00102 0.0
C208 C 0.98404 0.97046 0.00467 0.0
C209 C 0.86848 0.92962 0.00214 0.0
C210 C 1.00827 0.072 -0.00488 0.0
C211 C 0.12907 0.06365 0.01825 0.0
N212 N 0.9108 0.9744 0.0037 0.0
N213 N 0.08679 0.01835 0.01723 0.0
H214 H 0.78401 0.04296 0.55874 0.0
H215 H 0.18862 0.84636 0.42899 0.0
H216 H 0.01457 0.0954 0.43264 0.0
H217 H 0.07287 0.87557 0.5682 0.0
H218 H 0.10718 0.92531 0.42724 0.0
H219 H 0.87058 0.96729 0.56082 0.0
C220 C 0.85257 0.03813 0.53136 0.0
C221 C 0.89258 0.07502 0.49538 0.0
C222 C 0.10014 0.9144 0.45803 0.0
C223 C 0.9904 -0.01092 0.49738 0.0
C224 C 0.14604 0.86954 0.45912 0.0
C225 C 0.13717 0.85494 0.4988 0.0
C226 C 0.04304 0.94345 0.49721 0.0
C227 C 0.08159 0.88606 0.53697 0.0
C228 C 0.90177 -0.00451 0.53279 0.0
C229 C 0.98173 0.06766 0.46093 0.0
N230 N 0.03528 0.92861 0.53545 0.0
N231 N 0.02765 0.02495 0.46247 0.0
H232 H 0.62857 0.19281 0.304 0.0
H233 H 0.39539 0.0691 0.19072 0.0
H234 H 0.42651 0.06687 0.36577 0.0
H235 H 0.54621 0.21994 0.1471 0.0
H236 H 0.41471 0.06335 0.25203 0.0
H237 H 0.60687 0.19958 0.24373 0.0
C238 C 0.57907 0.16683 0.30523 0.0
C239 C 0.52905 0.12932 0.34044 0.0
C240 C 0.44345 0.09777 0.22911 0.0
C241 C 0.5053 0.13623 0.27058 0.0
C242 C 0.43291 0.10091 0.19393 0.0
C243 C 0.46943 0.14502 0.16362 0.0
C244 C 0.49166 0.13874 0.2339 0.0
C245 C 0.51634 0.18545 0.16985 0.0
C246 C 0.56715 0.17056 0.27054 0.0
C247 C 0.46756 0.09588 0.33924 0.0
N248 N 0.52649 0.18119 0.2041 0.0
N249 N 0.4576 0.10006 0.30492 0.0
H250 H 0.49368 0.74643 0.14721 0.0
H251 H 0.51108 0.80465 0.35867 0.0
H252 H 0.7339 0.79102 0.13651 0.0
H253 H 0.31854 0.6984 0.36146 0.0
H254 H 0.5797 0.82042 0.27879 0.0
H255 H 0.41346 0.75049 0.22844 0.0
C256 C 0.52911 0.75792 0.16194 0.0
C257 C 0.62052 0.76765 0.13534 0.0
C258 C 0.52215 0.79389 0.29714 0.0
C259 C 0.52982 0.77254 0.22755 0.0
C260 C 0.48322 0.78489 0.34251 0.0
C261 C 0.41032 0.74941 0.36631 0.0
C262 C 0.48651 0.76806 0.27601 0.0
C263 C 0.37596 0.72515 0.34406 0.0
C264 C 0.48357 0.75996 0.20815 0.0
C265 C 0.66353 0.78238 0.15598 0.0
N266 N 0.4144 0.73491 0.30013 0.0
N267 N 0.61785 0.78414 0.20095 0.0
H268 H 0.6449 0.89563 0.79863 0.0
H269 H 0.40929 0.75084 0.6939 0.0
H270 H 0.48184 0.75047 0.85491 0.0
H271 H 0.61686 0.87224 0.62352 0.0
H272 H 0.4307 0.75231 0.75439 0.0
H273 H 0.62945 0.89099 0.73602 0.0
C274 C 0.6055 0.86292 0.79791 0.0
C275 C 0.56443 0.82344 0.83213 0.0
C276 C 0.47183 0.77845 0.72561 0.0
C277 C 0.54669 0.81774 0.76045 0.0
C278 C 0.46011 0.77738 0.6908 0.0
C279 C 0.51131 0.81148 0.65328 0.0
C280 C 0.53475 0.81418 0.72328 0.0
C281 C 0.57475 0.84585 0.65194 0.0
C282 C 0.59721 0.86007 0.76201 0.0
C283 C 0.51522 0.7815 0.82911 0.0
N284 N 0.58436 0.84647 0.68645 0.0
N285 N 0.50736 0.77992 0.79406 0.0
H286 H 0.47944 0.20187 0.64617 0.0
H287 H 0.49168 0.16238 0.86123 0.0
H288 H 0.71882 0.1655 0.6387 0.0
H289 H 0.29746 0.2608 0.85924 0.0
H290 H 0.56274 0.14341 0.78187 0.0
H291 H 0.39792 0.20255 0.72746 0.0
C292 C 0.5145 0.1932 0.66164 0.0
C293 C 0.60604 0.18428 0.6358 0.0
C294 C 0.50431 0.16893 0.79903 0.0
C295 C 0.51364 0.18489 0.72824 0.0
C296 C 0.46386 0.17971 0.84415 0.0
C297 C 0.38959 0.21385 0.8665 0.0
C298 C 0.46902 0.19165 0.77659 0.0
C299 C 0.35569 0.23507 0.843 0.0
C300 C 0.46815 0.1939 0.7079 0.0
C301 C 0.64838 0.17331 0.65747 0.0
N302 N 0.39569 0.22361 0.79928 0.0
N303 N 0.60186 0.17413 0.70251 0.0
H304 H 0.11035 0.57988 0.12605 0.0
H305 H 0.98676 0.71464 0.35448 0.0
H306 H 0.917 0.70848 0.19241 0.0
H307 H 0.12642 0.56148 0.30519 0.0
H308 H 0.97296 0.71876 0.2913 0.0
H309 H 0.12889 0.57807 0.18758 0.0
C310 C 0.07155 0.60768 0.15352 0.0
C311 C 1.01159 0.64422 0.15391 0.0
C312 C 1.00656 0.68422 0.29432 0.0
C313 C 0.03375 0.64284 0.22435 0.0
C314 C 0.01484 0.68198 0.33025 0.0
C315 C 0.05764 0.63757 0.33519 0.0
C316 C 0.0421 0.64203 0.26275 0.0
C317 C 0.092 0.59614 0.30299 0.0
C318 C 0.08252 0.60673 0.1886 0.0
C319 C 0.96484 0.68007 0.19014 0.0
N320 N 0.08375 0.59946 0.26809 0.0
N321 N 0.97686 0.67842 0.22383 0.0
H322 H 0.9926 0.29847 0.36038 0.0
H323 H 0.97925 0.25768 0.14604 0.0
H324 H 0.798 0.1984 0.35972 0.0
H325 H 0.21914 0.29534 0.13788 0.0
H326 H 0.89799 0.25684 0.22734 0.0
H327 H 0.06343 0.31745 0.28082 0.0
C328 C 0.96466 0.28077 0.34354 0.0
C329 C 0.89036 0.24616 0.36633 0.0
C330 C 0.96827 0.26582 0.20762 0.0
C331 C 0.96951 0.26838 0.27619 0.0
C332 C 0.01447 0.26661 0.16135 0.0
C333 C 0.10607 0.27594 0.13532 0.0
C334 C 0.01398 0.27518 0.22777 0.0
C335 C 0.14864 0.28723 0.15679 0.0
C336 C 1.00498 0.29156 0.2983 0.0
C337 C 0.85628 0.22448 0.34314 0.0
N338 N 0.10226 0.28633 0.20184 0.0
N339 N 0.89614 0.23596 0.2993 0.0
H340 H 0.87786 0.25151 0.7016 0.0
H341 H 0.10916 0.40701 0.80449 0.0
H342 H 0.08614 0.37195 0.62882 0.0
H343 H 0.95261 0.2597 0.86224 0.0
H344 H 0.09142 0.39978 0.74274 0.0
H345 H 0.89636 0.25775 0.76298 0.0
C346 C 0.92807 0.27892 0.6982 0.0
C347 C 0.9805 0.31122 0.65965 0.0
C348 C 0.061 0.369 0.7689 0.0
C349 C 1.00056 0.3194 0.73064 0.0
C350 C 0.07056 0.37334 0.80434 0.0
C351 C 0.03231 0.3339 0.83864 0.0
C352 C 1.01205 0.32521 0.76786 0.0
C353 C 0.98395 0.29073 0.83633 0.0
C354 C 0.93812 0.28271 0.73351 0.0
C355 C 0.04305 0.34685 0.65797 0.0
N356 N 0.97494 0.28765 0.80168 0.0
N357 N 0.05107 0.35009 0.69292 0.0
H358 H 0.99369 0.71265 0.64771 0.0
H359 H 1.01158 0.65515 0.85949 0.0
H360 H 0.23373 0.6682 0.63701 0.0
H361 H 0.82144 0.76192 0.86096 0.0
H362 H 0.07971 0.63934 0.77982 0.0
H363 H 0.91416 0.70914 0.72895 0.0
C364 C 0.02921 0.70129 0.66245 0.0
C365 C 0.1204 0.69143 0.63581 0.0
C366 C 0.02282 0.66601 0.79784 0.0
C367 C 0.03047 0.68719 0.72806 0.0
C368 C 0.98418 0.67504 0.84308 0.0
C369 C 0.91207 0.71064 0.86644 0.0
C370 C 0.98764 0.69191 0.77641 0.0
C371 C 0.87827 0.73507 0.84389 0.0
C372 C 0.98407 0.69958 0.70867 0.0
C373 C 0.16353 0.67691 0.65649 0.0
N374 N 0.91635 0.72524 0.80011 0.0
N375 N 0.11822 0.67546 0.70147 0.0
loop_
_geom_bond_atom_site_label_1
_geom_bond_atom_site_label_2
_geom_bond_distance
_geom_bond_site_symmetry_2
_ccdc_geom_bond_type
Tb0 C9 2.764 1_554 S
Tb0 O10 2.325 1_554 S
Tb0 O13 2.303 . S
Tb0 O17 2.322 . S
Tb0 O18 2.349 1_554 S
Tb0 O21 2.415 1_554 S
Tb0 O22 2.399 1_554 S
Tb1 O11 2.322 1_554 S
Tb1 O12 2.349 . S
Tb1 O14 2.415 . S
Tb1 O15 2.399 . S
Tb1 O16 2.325 . S
Tb1 O19 2.303 . S
Tb1 C30 2.764 . S
C2 O18 1.253 1_554 S
C2 O19 1.258 . S
C3 C6 1.358 . S
C3 C7 1.332 . S
C3 C9 1.504 . S
C4 C5 1.373 . S
C4 C8 1.308 . S
C5 C4 1.373 . S
C5 C6 1.429 . S
C5 H32 0.932 . S
C6 C3 1.358 . S
C6 C5 1.429 . S
C6 H33 0.930 . S
C7 C3 1.332 . S
C7 C8 1.394 . S
C7 H34 0.932 . S
C8 C4 1.308 . S
C8 C7 1.394 . S
C8 H35 0.929 . S
C9 Tb0 2.764 1_556 S
C9 C3 1.504 . S
C9 O21 1.239 . S
C9 O22 1.263 . S
O10 Tb0 2.325 1_556 S
O10 C20 1.236 . S
O11 Tb1 2.322 1_556 S
O11 C20 1.257 . S
O12 Tb1 2.349 . S
O12 C23 1.261 . S
O13 Tb0 2.303 . S
O13 C23 1.257 . S
O14 Tb1 2.415 . S
O14 C30 1.239 . S
O15 Tb1 2.399 . S
O15 C30 1.263 . S
O16 Tb1 2.325 . S
O16 C31 1.236 . S
O17 Tb0 2.322 . S
O17 C31 1.257 . S
O18 Tb0 2.349 1_556 S
O18 C2 1.253 1_556 S
O19 Tb1 2.303 . S
O19 C2 1.258 . S
C20 O10 1.236 . S
C20 O11 1.257 . S
O21 Tb0 2.415 1_556 S
O21 C9 1.239 . S
O22 Tb0 2.399 1_556 S
O22 C9 1.263 . S
C23 O12 1.261 . S
C23 O13 1.257 . S
C24 C27 1.358 . S
C24 C28 1.332 . S
C24 C30 1.504 . S
C25 C26 1.373 . S
C25 C29 1.308 . S
C26 C25 1.373 . S
C26 C27 1.429 . S
C26 H36 0.932 . S
C27 C24 1.358 . S
C27 C26 1.429 . S
C27 H37 0.930 . S
C28 C24 1.332 . S
C28 C29 1.394 . S
C28 H38 0.932 . S
C29 C25 1.308 . S
C29 C28 1.394 . S
C29 H39 0.929 . S
C30 Tb1 2.764 . S
C30 O14 1.239 . S
C30 O15 1.263 . S
C30 C24 1.504 . S
C31 O16 1.236 . S
C31 O17 1.257 . S
H32 C5 0.932 . S
H33 C6 0.930 . S
H34 C7 0.932 . S
H35 C8 0.929 . S
H36 C26 0.932 . S
H37 C27 0.930 . S
H38 C28 0.932 . S
H39 C29 0.929 . S
Tb40 C49 2.764 1_554 S
Tb40 O50 2.325 1_554 S
Tb40 O53 2.303 . S
Tb40 O57 2.322 . S
Tb40 O58 2.349 1_554 S
Tb40 O61 2.415 1_554 S
Tb40 O62 2.399 1_554 S
Tb41 O51 2.322 1_554 S
Tb41 O52 2.349 . S
Tb41 O54 2.415 . S
Tb41 O55 2.399 . S
Tb41 O56 2.325 . S
Tb41 O59 2.303 . S
Tb41 C70 2.764 . S
C42 O58 1.253 1_554 S
C42 O59 1.258 . S
C43 C46 1.358 . S
C43 C47 1.332 . S
C43 C49 1.504 . S
C44 C45 1.373 . S
C44 C48 1.308 . S
C45 C44 1.373 . S
C45 C46 1.429 . S
C45 H72 0.932 . S
C46 C43 1.358 . S
C46 C45 1.429 . S
C46 H73 0.930 . S
C47 C43 1.332 . S
C47 C48 1.394 . S
C47 H74 0.932 . S
C48 C44 1.308 . S
C48 C47 1.394 . S
C48 H75 0.929 . S
C49 Tb40 2.764 1_556 S
C49 C43 1.504 . S
C49 O61 1.239 . S
C49 O62 1.263 . S
O50 Tb40 2.325 1_556 S
O50 C60 1.236 . S
O51 Tb41 2.322 1_556 S
O51 C60 1.257 . S
O52 Tb41 2.349 . S
O52 C63 1.261 . S
O53 Tb40 2.303 . S
O53 C63 1.257 . S
O54 Tb41 2.415 . S
O54 C70 1.239 . S
O55 Tb41 2.399 . S
O55 C70 1.263 . S
O56 Tb41 2.325 . S
O56 C71 1.236 . S
O57 Tb40 2.322 . S
O57 C71 1.257 . S
O58 Tb40 2.349 1_556 S
O58 C42 1.253 1_556 S
O59 Tb41 2.303 . S
O59 C42 1.258 . S
C60 O50 1.236 . S
C60 O51 1.257 . S
O61 Tb40 2.415 1_556 S
O61 C49 1.239 . S
O62 Tb40 2.399 1_556 S
O62 C49 1.263 . S
C63 O52 1.261 . S
C63 O53 1.257 . S
C64 C67 1.358 . S
C64 C68 1.332 . S
C64 C70 1.504 . S
C65 C66 1.373 . S
C65 C69 1.308 . S
C66 C65 1.373 . S
C66 C67 1.429 . S
C66 H76 0.932 . S
C67 C64 1.358 . S
C67 C66 1.429 . S
C67 H77 0.930 . S
C68 C64 1.332 . S
C68 C69 1.394 . S
C68 H78 0.932 . S
C69 C65 1.308 . S
C69 C68 1.394 . S
C69 H79 0.929 . S
C70 Tb41 2.764 . S
C70 O54 1.239 . S
C70 O55 1.263 . S
C70 C64 1.504 . S
C71 O56 1.236 . S
C71 O57 1.257 . S
H72 C45 0.932 . S
H73 C46 0.930 . S
H74 C47 0.932 . S
H75 C48 0.929 . S
H76 C66 0.932 . S
H77 C67 0.930 . S
H78 C68 0.932 . S
H79 C69 0.929 . S
Tb80 C89 2.764 . S
Tb80 O90 2.325 . S
Tb80 O93 2.303 . S
Tb80 O97 2.322 . S
Tb80 O98 2.349 . S
Tb80 O101 2.415 . S
Tb80 O102 2.399 . S
Tb81 O91 2.322 . S
Tb81 O92 2.349 . S
Tb81 O94 2.415 . S
Tb81 O95 2.399 . S
Tb81 O96 2.325 . S
Tb81 O99 2.303 . S
Tb81 C110 2.764 . S
C82 O98 1.261 . S
C82 O99 1.257 . S
C83 C86 1.358 . S
C83 C87 1.332 . S
C83 C89 1.504 . S
C84 C85 1.373 . S
C84 C88 1.308 . S
C85 C84 1.373 . S
C85 C86 1.429 . S
C85 H112 0.932 . S
C86 C83 1.358 . S
C86 C85 1.429 . S
C86 H113 0.930 . S
C87 C83 1.332 . S
C87 C88 1.394 . S
C87 H114 0.932 . S
C88 C84 1.308 . S
C88 C87 1.394 . S
C88 H115 0.929 . S
C89 Tb80 2.764 . S
C89 C83 1.504 . S
C89 O101 1.239 . S
C89 O102 1.263 . S
O90 Tb80 2.325 . S
O90 C100 1.236 . S
O91 Tb81 2.322 . S
O91 C100 1.257 . S
O92 Tb81 2.349 . S
O92 C103 1.261 . S
O93 Tb80 2.303 . S
O93 C103 1.257 . S
O94 Tb81 2.415 . S
O94 C110 1.239 . S
O95 Tb81 2.399 . S
O95 C110 1.263 . S
O96 Tb81 2.325 . S
O96 C111 1.236 . S
O97 Tb80 2.322 . S
O97 C111 1.257 . S
O98 Tb80 2.349 . S
O98 C82 1.261 . S
O99 Tb81 2.303 . S
O99 C82 1.257 . S
C100 O90 1.236 . S
C100 O91 1.257 . S
O101 Tb80 2.415 . S
O101 C89 1.239 . S
O102 Tb80 2.399 . S
O102 C89 1.263 . S
C103 O92 1.261 . S
C103 O93 1.257 . S
C104 C107 1.358 . S
C104 C108 1.332 . S
C104 C110 1.504 . S
C105 C106 1.373 . S
C105 C109 1.308 . S
C106 C105 1.373 . S
C106 C107 1.429 . S
C106 H116 0.932 . S
C107 C104 1.358 . S
C107 C106 1.429 . S
C107 H117 0.930 . S
C108 C104 1.332 . S
C108 C109 1.394 . S
C108 H118 0.932 . S
C109 C105 1.308 . S
C109 C108 1.394 . S
C109 H119 0.929 . S
C110 Tb81 2.764 . S
C110 O94 1.239 . S
C110 O95 1.263 . S
C110 C104 1.504 . S
C111 O96 1.236 . S
C111 O97 1.257 . S
H112 C85 0.932 . S
H113 C86 0.930 . S
H114 C87 0.932 . S
H115 C88 0.929 . S
H116 C106 0.932 . S
H117 C107 0.930 . S
H118 C108 0.932 . S
H119 C109 0.929 . S
Tb120 C129 2.764 . S
Tb120 O130 2.325 . S
Tb120 O133 2.303 . S
Tb120 O137 2.322 . S
Tb120 O138 2.349 . S
Tb120 O141 2.415 . S
Tb120 O142 2.399 . S
Tb121 O131 2.322 . S
Tb121 O132 2.349 . S
Tb121 O134 2.415 . S
Tb121 O135 2.399 . S
Tb121 O136 2.325 . S
Tb121 O139 2.303 . S
Tb121 C150 2.764 . S
C122 O138 1.261 . S
C122 O139 1.257 . S
C123 C126 1.358 . S
C123 C127 1.332 . S
C123 C129 1.504 . S
C124 C125 1.373 . S
C124 C128 1.308 . S
C125 C124 1.373 . S
C125 C126 1.429 . S
C125 H152 0.932 . S
C126 C123 1.358 . S
C126 C125 1.429 . S
C126 H153 0.930 . S
C127 C123 1.332 . S
C127 C128 1.394 . S
C127 H154 0.932 . S
C128 C124 1.308 . S
C128 C127 1.394 . S
C128 H155 0.929 . S
C129 Tb120 2.764 . S
C129 C123 1.504 . S
C129 O141 1.239 . S
C129 O142 1.263 . S
O130 Tb120 2.325 . S
O130 C140 1.236 . S
O131 Tb121 2.322 . S
O131 C140 1.257 . S
O132 Tb121 2.349 . S
O132 C143 1.261 . S
O133 Tb120 2.303 . S
O133 C143 1.257 . S
O134 Tb121 2.415 . S
O134 C150 1.239 . S
O135 Tb121 2.399 . S
O135 C150 1.263 . S
O136 Tb121 2.325 . S
O136 C151 1.236 . S
O137 Tb120 2.322 . S
O137 C151 1.257 . S
O138 Tb120 2.349 . S
O138 C122 1.261 . S
O139 Tb121 2.303 . S
O139 C122 1.257 . S
C140 O130 1.236 . S
C140 O131 1.257 . S
O141 Tb120 2.415 . S
O141 C129 1.239 . S
O142 Tb120 2.399 . S
O142 C129 1.263 . S
C143 O132 1.261 . S
C143 O133 1.257 . S
C144 C147 1.358 . S
C144 C148 1.332 . S
C144 C150 1.504 . S
C145 C146 1.373 . S
C145 C149 1.308 . S
C146 C145 1.373 . S
C146 C147 1.429 . S
C146 H156 0.932 . S
C147 C144 1.358 . S
C147 C146 1.429 . S
C147 H157 0.930 . S
C148 C144 1.332 . S
C148 C149 1.394 . S
C148 H158 0.932 . S
C149 C145 1.308 . S
C149 C148 1.394 . S
C149 H159 0.929 . S
C150 Tb121 2.764 . S
C150 O134 1.239 . S
C150 O135 1.263 . S
C150 C144 1.504 . S
C151 O136 1.236 . S
C151 O137 1.257 . S
H152 C125 0.932 . S
H153 C126 0.930 . S
H154 C127 0.932 . S
H155 C128 0.929 . S
H156 C146 0.932 . S
H157 C147 0.930 . S
H158 C148 0.932 . S
H159 C149 0.929 . S
H160 C166 0.930 . S
H161 C170 0.930 . S
H162 C175 0.929 . S
H163 C173 0.929 . S
H164 C168 0.929 . S
H165 C174 0.929 . S
C166 H160 0.930 . S
C166 C167 1.367 . S
C166 C174 1.378 . S
C167 C166 1.367 . S
C167 C175 1.433 1_554 S
C168 H164 0.929 . S
C168 C170 1.378 . S
C168 C172 1.350 1_556 S
C169 C172 1.463 . S
C169 C174 1.350 . S
C169 N177 1.427 1_554 S
C170 H161 0.930 . S
C170 C168 1.378 . S
C170 C171 1.367 1_556 S
C171 C170 1.367 1_554 S
C171 C173 1.433 . S
C172 C168 1.350 1_554 S
C172 C169 1.463 . S
C172 N176 1.427 . S
C173 H163 0.929 . S
C173 C171 1.433 . S
C173 N176 1.384 . S
C174 H165 0.929 . S
C174 C166 1.378 . S
C174 C169 1.350 . S
C175 H162 0.929 . S
C175 C167 1.433 1_556 S
C175 N177 1.384 . S
N176 C172 1.427 . S
N176 C173 1.384 . S
N177 C169 1.427 1_556 S
N177 C175 1.384 . S
H178 C184 0.930 . S
H179 C188 0.930 . S
H180 C193 0.929 . S
H181 C191 0.929 . S
H182 C186 0.929 . S
H183 C192 0.929 . S
C184 H178 0.930 . S
C184 C185 1.367 . S
C184 C192 1.378 . S
C185 C184 1.367 . S
C185 C193 1.433 . S
C186 H182 0.929 . S
C186 C188 1.378 . S
C186 C190 1.350 . S
C187 C190 1.463 . S
C187 C192 1.350 . S
C187 N195 1.427 . S
C188 H179 0.930 . S
C188 C186 1.378 . S
C188 C189 1.367 . S
C189 C188 1.367 . S
C189 C191 1.433 . S
C190 C186 1.350 . S
C190 C187 1.463 . S
C190 N194 1.427 . S
C191 H181 0.929 . S
C191 C189 1.433 . S
C191 N194 1.384 . S
C192 H183 0.929 . S
C192 C184 1.378 . S
C192 C187 1.350 . S
C193 H180 0.929 . S
C193 C185 1.433 . S
C193 N195 1.384 . S
N194 C190 1.427 . S
N194 C191 1.384 . S
N195 C187 1.427 . S
N195 C193 1.384 . S
H196 C202 0.930 . S
H197 C206 0.930 . S
H198 C211 0.929 . S
H199 C209 0.929 . S
H200 C204 0.929 . S
H201 C210 0.929 . S
C202 H196 0.930 . S
C202 C203 1.367 1_556 S
C202 C210 1.378 . S
C203 C202 1.367 1_554 S
C203 C211 1.433 . S
C204 H200 0.929 . S
C204 C206 1.378 . S
C204 C208 1.350 . S
C205 C208 1.463 1_445 S
C205 C210 1.350 1_554 S
C205 N213 1.427 . S
C206 H197 0.930 . S
C206 C204 1.378 . S
C206 C207 1.367 . S
C207 C206 1.367 . S
C207 C209 1.433 1_554 S
C208 C204 1.350 . S
C208 C205 1.463 1_665 S
C208 N212 1.427 1_554 S
C209 H199 0.929 . S
C209 C207 1.433 1_556 S
C209 N212 1.384 . S
C210 H201 0.929 . S
C210 C202 1.378 . S
C210 C205 1.350 1_556 S
C211 H198 0.929 . S
C211 C203 1.433 . S
C211 N213 1.384 . S
N212 C208 1.427 1_556 S
N212 C209 1.384 . S
N213 C205 1.427 . S
N213 C211 1.384 . S
H214 C220 0.930 . S
H215 C224 0.930 . S
H216 C229 0.929 . S
H217 C227 0.929 . S
H218 C222 0.929 . S
H219 C228 0.929 . S
C220 H214 0.930 . S
C220 C221 1.367 . S
C220 C228 1.378 . S
C221 C220 1.367 . S
C221 C229 1.433 . S
C222 H218 0.929 . S
C222 C224 1.378 . S
C222 C226 1.350 . S
C223 C226 1.463 1_645 S
C223 C228 1.350 . S
C223 N231 1.427 . S
C224 H215 0.930 . S
C224 C222 1.378 . S
C224 C225 1.367 . S
C225 C224 1.367 . S
C225 C227 1.433 . S
C226 C222 1.350 . S
C226 C223 1.463 1_465 S
C226 N230 1.427 . S
C227 H217 0.929 . S
C227 C225 1.433 . S
C227 N230 1.384 . S
C228 H219 0.929 . S
C228 C220 1.378 . S
C228 C223 1.350 . S
C229 H216 0.929 . S
C229 C221 1.433 . S
C229 N231 1.384 . S
N230 C226 1.427 . S
N230 C227 1.384 . S
N231 C223 1.427 . S
N231 C229 1.384 . S
H232 C238 0.930 . S
H233 C242 0.930 . S
H234 C247 0.929 . S
H235 C245 0.929 . S
H236 C240 0.929 . S
H237 C246 0.929 . S
C238 H232 0.930 . S
C238 C239 1.367 . S
C238 C246 1.378 . S
C239 C238 1.367 . S
C239 C247 1.433 . S
C240 H236 0.929 . S
C240 C242 1.378 . S
C240 C244 1.350 . S
C241 C244 1.463 . S
C241 C246 1.350 . S
C241 N249 1.427 . S
C242 H233 0.930 . S
C242 C240 1.378 . S
C242 C243 1.367 . S
C243 C242 1.367 . S
C243 C245 1.433 . S
C244 C240 1.350 . S
C244 C241 1.463 . S
C244 N248 1.427 . S
C245 H235 0.929 . S
C245 C243 1.433 . S
C245 N248 1.384 . S
C246 H237 0.929 . S
C246 C238 1.378 . S
C246 C241 1.350 . S
C247 H234 0.929 . S
C247 C239 1.433 . S
C247 N249 1.384 . S
N248 C244 1.427 . S
N248 C245 1.384 . S
N249 C241 1.427 . S
N249 C247 1.384 . S
H250 C256 0.930 . S
H251 C260 0.930 . S
H252 C265 0.929 . S
H253 C263 0.929 . S
H254 C258 0.929 . S
H255 C264 0.929 . S
C256 H250 0.930 . S
C256 C257 1.367 . S
C256 C264 1.378 . S
C257 C256 1.367 . S
C257 C265 1.433 . S
C258 H254 0.929 . S
C258 C260 1.378 . S
C258 C262 1.350 . S
C259 C262 1.463 . S
C259 C264 1.350 . S
C259 N267 1.427 . S
C260 H251 0.930 . S
C260 C258 1.378 . S
C260 C261 1.367 . S
C261 C260 1.367 . S
C261 C263 1.433 . S
C262 C258 1.350 . S
C262 C259 1.463 . S
C262 N266 1.427 . S
C263 H253 0.929 . S
C263 C261 1.433 . S
C263 N266 1.384 . S
C264 H255 0.929 . S
C264 C256 1.378 . S
C264 C259 1.350 . S
C265 H252 0.929 . S
C265 C257 1.433 . S
C265 N267 1.384 . S
N266 C262 1.427 . S
N266 C263 1.384 . S
N267 C259 1.427 . S
N267 C265 1.384 . S
H268 C274 0.930 . S
H269 C278 0.930 . S
H270 C283 0.929 . S
H271 C281 0.929 . S
H272 C276 0.929 . S
H273 C282 0.929 . S
C274 H268 0.930 . S
C274 C275 1.367 . S
C274 C282 1.378 . S
C275 C274 1.367 . S
C275 C283 1.433 . S
C276 H272 0.929 . S
C276 C278 1.378 . S
C276 C280 1.350 . S
C277 C280 1.463 . S
C277 C282 1.350 . S
C277 N285 1.427 . S
C278 H269 0.930 . S
C278 C276 1.378 . S
C278 C279 1.367 . S
C279 C278 1.367 . S
C279 C281 1.433 . S
C280 C276 1.350 . S
C280 C277 1.463 . S
C280 N284 1.427 . S
C281 H271 0.929 . S
C281 C279 1.433 . S
C281 N284 1.384 . S
C282 H273 0.929 . S
C282 C274 1.378 . S
C282 C277 1.350 . S
C283 H270 0.929 . S
C283 C275 1.433 . S
C283 N285 1.384 . S
N284 C280 1.427 . S
N284 C281 1.384 . S
N285 C277 1.427 . S
N285 C283 1.384 . S
H286 C292 0.930 . S
H287 C296 0.930 . S
H288 C301 0.929 . S
H289 C299 0.929 . S
H290 C294 0.929 . S
H291 C300 0.929 . S
C292 H286 0.930 . S
C292 C293 1.367 . S
C292 C300 1.378 . S
C293 C292 1.367 . S
C293 C301 1.433 . S
C294 H290 0.929 . S
C294 C296 1.378 . S
C294 C298 1.350 . S
C295 C298 1.463 . S
C295 C300 1.350 . S
C295 N303 1.427 . S
C296 H287 0.930 . S
C296 C294 1.378 . S
C296 C297 1.367 . S
C297 C296 1.367 . S
C297 C299 1.433 . S
C298 C294 1.350 . S
C298 C295 1.463 . S
C298 N302 1.427 . S
C299 H289 0.929 . S
C299 C297 1.433 . S
C299 N302 1.384 . S
C300 H291 0.929 . S
C300 C292 1.378 . S
C300 C295 1.350 . S
C301 H288 0.929 . S
C301 C293 1.433 . S
C301 N303 1.384 . S
N302 C298 1.427 . S
N302 C299 1.384 . S
N303 C295 1.427 . S
N303 C301 1.384 . S
H304 C310 0.930 . S
H305 C314 0.930 . S
H306 C319 0.929 . S
H307 C317 0.929 . S
H308 C312 0.929 . S
H309 C318 0.929 . S
C310 H304 0.930 . S
C310 C311 1.367 1_455 S
C310 C318 1.378 . S
C311 C310 1.367 1_655 S
C311 C319 1.433 . S
C312 H308 0.929 . S
C312 C314 1.378 . S
C312 C316 1.350 1_655 S
C313 C316 1.463 1_655 S
C313 C318 1.350 1_655 S
C313 N321 1.427 . S
C314 H305 0.930 . S
C314 C312 1.378 . S
C314 C315 1.367 1_655 S
C315 C314 1.367 1_455 S
C315 C317 1.433 . S
C316 C312 1.350 1_455 S
C316 C313 1.463 1_455 S
C316 N320 1.427 . S
C317 H307 0.929 . S
C317 C315 1.433 . S
C317 N320 1.384 . S
C318 H309 0.929 . S
C318 C310 1.378 . S
C318 C313 1.350 1_455 S
C319 H306 0.929 . S
C319 C311 1.433 . S
C319 N321 1.384 . S
N320 C316 1.427 . S
N320 C317 1.384 . S
N321 C313 1.427 . S
N321 C319 1.384 . S
H322 C328 0.930 . S
H323 C332 0.930 . S
H324 C337 0.929 . S
H325 C335 0.929 . S
H326 C330 0.929 . S
H327 C336 0.929 . S
C328 H322 0.930 . S
C328 C329 1.367 . S
C328 C336 1.378 1_655 S
C329 C328 1.367 . S
C329 C337 1.433 . S
C330 H326 0.929 . S
C330 C332 1.378 1_655 S
C330 C334 1.350 1_655 S
C331 C334 1.463 1_655 S
C331 C336 1.350 1_655 S
C331 N339 1.427 . S
C332 H323 0.930 . S
C332 C330 1.378 1_455 S
C332 C333 1.367 . S
C333 C332 1.367 . S
C333 C335 1.433 . S
C334 C330 1.350 1_455 S
C334 C331 1.463 1_455 S
C334 N338 1.427 . S
C335 H325 0.929 . S
C335 C333 1.433 . S
C335 N338 1.384 . S
C336 H327 0.929 . S
C336 C328 1.378 1_455 S
C336 C331 1.350 1_455 S
C337 H324 0.929 . S
C337 C329 1.433 . S
C337 N339 1.384 . S
N338 C334 1.427 . S
N338 C335 1.384 . S
N339 C331 1.427 . S
N339 C337 1.384 . S
H340 C346 0.930 . S
H341 C350 0.930 . S
H342 C355 0.929 . S
H343 C353 0.929 . S
H344 C348 0.929 . S
H345 C354 0.929 . S
C346 H340 0.930 . S
C346 C347 1.367 . S
C346 C354 1.378 . S
C347 C346 1.367 . S
C347 C355 1.433 1_655 S
C348 H344 0.929 . S
C348 C350 1.378 . S
C348 C352 1.350 . S
C349 C352 1.463 1_655 S
C349 C354 1.350 . S
C349 N357 1.427 1_655 S
C350 H341 0.930 . S
C350 C348 1.378 . S
C350 C351 1.367 . S
C351 C350 1.367 . S
C351 C353 1.433 1_455 S
C352 C348 1.350 . S
C352 C349 1.463 1_455 S
C352 N356 1.427 1_455 S
C353 H343 0.929 . S
C353 C351 1.433 1_655 S
C353 N356 1.384 . S
C354 H345 0.929 . S
C354 C346 1.378 . S
C354 C349 1.350 . S
C355 H342 0.929 . S
C355 C347 1.433 1_455 S
C355 N357 1.384 . S
N356 C352 1.427 1_655 S
N356 C353 1.384 . S
N357 C349 1.427 1_455 S
N357 C355 1.384 . S
H358 C364 0.930 . S
H359 C368 0.930 . S
H360 C373 0.929 . S
H361 C371 0.929 . S
H362 C366 0.929 . S
H363 C372 0.929 . S
C364 H358 0.930 . S
C364 C365 1.367 . S
C364 C372 1.378 1_455 S
C365 C364 1.367 . S
C365 C373 1.433 . S
C366 H362 0.929 . S
C366 C368 1.378 1_455 S
C366 C370 1.350 1_455 S
C367 C370 1.463 1_455 S
C367 C372 1.350 1_455 S
C367 N375 1.427 . S
C368 H359 0.930 . S
C368 C366 1.378 1_655 S
C368 C369 1.367 . S
C369 C368 1.367 . S
C369 C371 1.433 . S
C370 C366 1.350 1_655 S
C370 C367 1.463 1_655 S
C370 N374 1.427 . S
C371 H361 0.929 . S
C371 C369 1.433 . S
C371 N374 1.384 . S
C372 H363 0.929 . S
C372 C364 1.378 1_655 S
C372 C367 1.350 1_655 S
C373 H360 0.929 . S
C373 C365 1.433 . S
C373 N375 1.384 . S
N374 C370 1.427 . S
N374 C371 1.384 . S
N375 C367 1.427 . S
N375 C373 1.384 . S
C167 C63 1.594 . S
C171 C2 1.600 . S
C185 C103 1.595 . S
C189 C122 1.595 . S
C203 C23 1.597 . S
C207 C42 1.603 . S
C221 C143 1.596 . S
C225 C82 1.596 . S
C239 C145 1.102 . S
C243 C25 1.112 . S
C257 C71 1.474 . S
C261 C111 1.481 . S
C275 C44 1.107 . S
C279 C84 1.102 . S
C293 C140 1.476 . S
C297 C20 1.481 . S
C311 C65 1.118 . S
C315 C105 1.109 . S
C329 C151 1.481 . S
C333 C31 1.476 . S
C347 C124 1.103 . S
C351 C4 1.113 . S
C365 C100 1.476 . S
C369 C60 1.481 . S
