# Generated by pormake.
# Topology ske, (6)-cn, num edge types: 1
# Building blocks:
#     Node 0, Type 0, BuildingBlock: BETFEN_clean_sbu_0, # of connection points: 6
#     Node 1, Type 0, BuildingBlock: BETFEN_clean_sbu_0, # of connection points: 6
#     Node 2, Type 0, BuildingBlock: BETFEN_clean_sbu_0, # of connection points: 6
#     Node 3, Type 0, BuildingBlock: BETFEN_clean_sbu_0, # of connection points: 6
#     Node 4, Type 0, BuildingBlock: BETFEN_clean_sbu_0, # of connection points: 6
#     Node 5, Type 0, BuildingBlock: BETFEN_clean_sbu_0, # of connection points: 6
#     Node 6, Type 0, BuildingBlock: BETFEN_clean_sbu_0, # of connection points: 6
#     Node 7, Type 0, BuildingBlock: BETFEN_clean_sbu_0, # of connection points: 6
#     Edge 8, Type (0, 0), BuildingBlock: ZUJKAS_clean_linker_0, # of connection points: 2
#     Edge 9, Type (0, 0), BuildingBlock: ZUJKAS_clean_linker_0, # of connection points: 2
#     Edge 10, Type (0, 0), BuildingBlock: ZUJKAS_clean_linker_0, # of connection points: 2
#     Edge 11, Type (0, 0), BuildingBlock: ZUJKAS_clean_linker_0, # of connection points: 2
#     Edge 12, Type (0, 0), BuildingBlock: ZUJKAS_clean_linker_0, # of connection points: 2
#     Edge 13, Type (0, 0), BuildingBlock: ZUJKAS_clean_linker_0, # of connection points: 2
#     Edge 14, Type (0, 0), BuildingBlock: ZUJKAS_clean_linker_0, # of connection points: 2
#     Edge 15, Type (0, 0), BuildingBlock: ZUJKAS_clean_linker_0, # of connection points: 2
#     Edge 16, Type (0, 0), BuildingBlock: ZUJKAS_clean_linker_0, # of connection points: 2
#     Edge 17, Type (0, 0), BuildingBlock: ZUJKAS_clean_linker_0, # of connection points: 2
#     Edge 18, Type (0, 0), BuildingBlock: ZUJKAS_clean_linker_0, # of connection points: 2
#     Edge 19, Type (0, 0), BuildingBlock: ZUJKAS_clean_linker_0, # of connection points: 2
#     Edge 20, Type (0, 0), BuildingBlock: ZUJKAS_clean_linker_0, # of connection points: 2
#     Edge 21, Type (0, 0), BuildingBlock: ZUJKAS_clean_linker_0, # of connection points: 2
#     Edge 22, Type (0, 0), BuildingBlock: ZUJKAS_clean_linker_0, # of connection points: 2
#     Edge 23, Type (0, 0), BuildingBlock: ZUJKAS_clean_linker_0, # of connection points: 2
#     Edge 24, Type (0, 0), BuildingBlock: ZUJKAS_clean_linker_0, # of connection points: 2
#     Edge 25, Type (0, 0), BuildingBlock: ZUJKAS_clean_linker_0, # of connection points: 2
#     Edge 26, Type (0, 0), BuildingBlock: ZUJKAS_clean_linker_0, # of connection points: 2
#     Edge 27, Type (0, 0), BuildingBlock: ZUJKAS_clean_linker_0, # of connection points: 2
#     Edge 28, Type (0, 0), BuildingBlock: ZUJKAS_clean_linker_0, # of connection points: 2
#     Edge 29, Type (0, 0), BuildingBlock: ZUJKAS_clean_linker_0, # of connection points: 2
#     Edge 30, Type (0, 0), BuildingBlock: ZUJKAS_clean_linker_0, # of connection points: 2
#     Edge 31, Type (0, 0), BuildingBlock: ZUJKAS_clean_linker_0, # of connection points: 2
# Relax obj value: 0.202
# Max RMSD: 0.202
# Mean RMSD: 0.195
data_MOF--net-ske--node1-BETFEN_clean_sbu_0--edge1-ZUJKAS_clean_linker_0
_symmetry_space_group_name_H-M    P1
_symmetry_Int_Tables_number       1
_symmetry_cell_setting            triclinic
loop_
_symmetry_equiv_pos_as_xyz
'x, y, z'
_cell_length_a     121.28344
_cell_length_b     38.358987
_cell_length_c     20.234452
_cell_angle_alpha  89.967882
_cell_angle_beta   89.9645
_cell_angle_gamma 84.61619
loop_
_atom_site_label
_atom_site_type_symbol
_atom_site_fract_x
_atom_site_fract_y
_atom_site_fract_z
_atom_type_partial_charge
Pr0 Pr 0.15279 0.25691 0.53314 0.0
Pr1 Pr 0.12654 0.24842 0.53745 0.0
C2 C 0.17354 0.27674 0.54261 0.0
C3 C 0.18422 0.27207 0.57852 0.0
C4 C 0.18957 0.23872 0.59195 0.0
C5 C 0.20018 0.23523 0.62029 0.0
C6 C 0.20565 0.26499 0.63589 0.0
C7 C 0.20011 0.2983 0.62382 0.0
C8 C 0.18954 0.30175 0.59542 0.0
C9 C 0.14687 0.18832 0.5203 0.0
C10 C 0.14039 0.25052 0.68023 0.0
C11 C 0.10666 0.22222 0.53975 0.0
C12 C 0.09482 0.22738 0.5212 0.0
C13 C 0.08885 0.26059 0.52268 0.0
C14 C 0.07734 0.26405 0.51293 0.0
C15 C 0.07157 0.23436 0.50185 0.0
C16 C 0.07769 0.20135 0.49808 0.0
C17 C 0.08917 0.19795 0.50767 0.0
C18 C 0.13008 0.31993 0.52314 0.0
C19 C 0.13916 0.25747 0.3938 0.0
O20 O 0.16503 0.29333 0.57252 0.0
O21 O 0.17089 0.25108 0.50496 0.0
O22 O 0.14227 0.21121 0.55894 0.0
O23 O 0.15525 0.19999 0.49024 0.0
O24 O 0.13106 0.24483 0.64997 0.0
O25 O 0.1495 0.25636 0.64761 0.0
O26 O 0.11403 0.21426 0.49336 0.0
O27 O 0.11008 0.24266 0.5858 0.0
O28 O 0.1372 0.29406 0.52733 0.0
O29 O 0.12028 0.30897 0.5267 0.0
O30 O 0.14705 0.27207 0.42583 0.0
O31 O 0.13149 0.2415 0.42541 0.0
H32 H 0.18566 0.21534 0.57957 0.0
H33 H 0.2041 0.20917 0.62974 0.0
H34 H 0.20409 0.3218 0.63431 0.0
H35 H 0.18563 0.32774 0.58507 0.0
H36 H 0.09302 0.28372 0.53325 0.0
H37 H 0.07291 0.28983 0.51658 0.0
H38 H 0.07358 0.178 0.4885 0.0
H39 H 0.0936 0.17208 0.50638 0.0
Pr40 Pr 0.87156 0.25271 0.53813 0.0
Pr41 Pr 0.89599 0.25991 0.54444 0.0
C42 C 0.85056 0.23474 0.54824 0.0
C43 C 0.83997 0.23909 0.58539 0.0
C44 C 0.83391 0.27197 0.59266 0.0
C45 C 0.82335 0.27475 0.6216 0.0
C46 C 0.81859 0.24473 0.64376 0.0
C47 C 0.82483 0.21202 0.63805 0.0
C48 C 0.83536 0.20926 0.60912 0.0
C49 C 0.87665 0.32258 0.52968 0.0
C50 C 0.88311 0.26093 0.68488 0.0
C51 C 0.917 0.27812 0.5394 0.0
C52 C 0.92862 0.27189 0.51683 0.0
C53 C 0.93414 0.23806 0.51355 0.0
C54 C 0.94558 0.23339 0.50167 0.0
C55 C 0.95176 0.26245 0.49316 0.0
C56 C 0.94607 0.29619 0.49415 0.0
C57 C 0.93465 0.30079 0.50579 0.0
C58 C 0.89088 0.18971 0.54746 0.0
C59 C 0.88423 0.25373 0.39729 0.0
O60 O 0.85905 0.21662 0.5755 0.0
O61 O 0.85335 0.26103 0.51277 0.0
O62 O 0.88121 0.30003 0.56912 0.0
O63 O 0.86896 0.30968 0.49554 0.0
O64 O 0.89116 0.27453 0.65311 0.0
O65 O 0.87529 0.24668 0.65203 0.0
O66 O 0.90932 0.29048 0.49796 0.0
O67 O 0.9135 0.25658 0.58299 0.0
O68 O 0.88631 0.21334 0.51064 0.0
O69 O 0.89876 0.20155 0.58157 0.0
O70 O 0.87615 0.23986 0.42843 0.0
O71 O 0.89214 0.26741 0.4307 0.0
H72 H 0.8372 0.29548 0.57458 0.0
H73 H 0.81878 0.30033 0.62457 0.0
H74 H 0.82154 0.18839 0.65553 0.0
H75 H 0.83983 0.18359 0.6039 0.0
H76 H 0.92967 0.2153 0.52201 0.0
H77 H 0.94962 0.207 0.50016 0.0
H78 H 0.9505 0.31925 0.4888 0.0
H79 H 0.93059 0.32715 0.50884 0.0
Pr80 Pr 0.12685 0.74875 0.48931 0.0
Pr81 Pr 0.15297 0.75743 0.49337 0.0
C82 C 0.10623 0.72774 0.49336 0.0
C83 C 0.09462 0.73446 0.51525 0.0
C84 C 0.08928 0.76851 0.51884 0.0
C85 C 0.07787 0.77372 0.53121 0.0
C86 C 0.07157 0.74498 0.54002 0.0
C87 C 0.07708 0.71101 0.53859 0.0
C88 C 0.08846 0.70586 0.52638 0.0
C89 C 0.13255 0.81798 0.48308 0.0
C90 C 0.13946 0.75256 0.63639 0.0
C91 C 0.17282 0.78372 0.48923 0.0
C92 C 0.18399 0.77844 0.45867 0.0
C93 C 0.19158 0.74991 0.47605 0.0
C94 C 0.20234 0.74676 0.45 0.0
C95 C 0.20579 0.77206 0.40602 0.0
C96 C 0.19811 0.80027 0.388 0.0
C97 C 0.18738 0.80347 0.41418 0.0
C98 C 0.14955 0.68582 0.47891 0.0
C99 C 0.14046 0.74876 0.3509 0.0
O100 O 0.11384 0.71765 0.53702 0.0
O101 O 0.10967 0.74814 0.44738 0.0
O102 O 0.13726 0.79399 0.51876 0.0
O103 O 0.12412 0.80705 0.45238 0.0
O104 O 0.14884 0.75817 0.60647 0.0
O105 O 0.13022 0.74797 0.60392 0.0
O106 O 0.1645 0.79499 0.45102 0.0
O107 O 0.17019 0.7611 0.53383 0.0
O108 O 0.14239 0.7116 0.48257 0.0
O109 O 0.15933 0.69702 0.48134 0.0
O110 O 0.13304 0.73227 0.38321 0.0
O111 O 0.14771 0.76629 0.38244 0.0
H112 H 0.09387 0.791 0.51039 0.0
H113 H 0.07395 0.80026 0.53299 0.0
H114 H 0.07253 0.68821 0.54418 0.0
H115 H 0.0924 0.67936 0.52322 0.0
H116 H 0.18929 0.73025 0.5106 0.0
H117 H 0.20804 0.72492 0.46573 0.0
H118 H 0.20039 0.81999 0.35354 0.0
H119 H 0.18174 0.82584 0.40015 0.0
Pr120 Pr 0.89747 0.76252 0.49441 0.0
Pr121 Pr 0.87012 0.75067 0.49373 0.0
C122 C 0.91692 0.79125 0.49346 0.0
C123 C 0.92885 0.78548 0.50843 0.0
C124 C 0.93449 0.75181 0.50914 0.0
C125 C 0.94601 0.74749 0.51825 0.0
C126 C 0.95207 0.77679 0.5265 0.0
C127 C 0.94628 0.81035 0.52744 0.0
C128 C 0.9348 0.8146 0.51851 0.0
C129 C 0.89365 0.691 0.50257 0.0
C130 C 0.88384 0.75556 0.63671 0.0
C131 C 0.85049 0.72325 0.48863 0.0
C132 C 0.83928 0.72898 0.45886 0.0
C133 C 0.8322 0.75941 0.47165 0.0
C134 C 0.82146 0.76332 0.44549 0.0
C135 C 0.81753 0.73693 0.4059 0.0
C136 C 0.82471 0.70676 0.39252 0.0
C137 C 0.83543 0.70282 0.41883 0.0
C138 C 0.87409 0.82222 0.48778 0.0
C139 C 0.88349 0.75909 0.35115 0.0
O140 O 0.90998 0.79472 0.54328 0.0
O141 O 0.91327 0.77392 0.44341 0.0
O142 O 0.88667 0.71733 0.4992 0.0
O143 O 0.90354 0.70166 0.50153 0.0
O144 O 0.87543 0.74325 0.60505 0.0
O145 O 0.89229 0.76812 0.60585 0.0
O146 O 0.85875 0.71345 0.44886 0.0
O147 O 0.85309 0.74482 0.53523 0.0
O148 O 0.88098 0.79569 0.48992 0.0
O149 O 0.86418 0.81176 0.48725 0.0
O150 O 0.89209 0.76996 0.38309 0.0
O151 O 0.87488 0.74745 0.38166 0.0
H152 H 0.93004 0.72896 0.50132 0.0
H153 H 0.9502 0.72131 0.51684 0.0
H154 H 0.95063 0.83343 0.53481 0.0
H155 H 0.93059 0.8408 0.51825 0.0
H156 H 0.8349 0.78005 0.50247 0.0
H157 H 0.81615 0.78673 0.45755 0.0
H158 H 0.82207 0.68613 0.36142 0.0
H159 H 0.8407 0.67909 0.40824 0.0
Pr160 Pr 0.6535 0.75695 0.04875 0.0
Pr161 Pr 0.62736 0.74907 0.04987 0.0
C162 C 0.67343 0.78246 0.05613 0.0
C163 C 0.68442 0.77664 0.0887 0.0
C164 C 0.69158 0.74623 0.0771 0.0
C165 C 0.70219 0.74238 0.10517 0.0
C166 C 0.70591 0.76881 0.14549 0.0
C167 C 0.69864 0.79893 0.15782 0.0
C168 C 0.68806 0.80281 0.12962 0.0
C169 C 0.64987 0.68507 0.05799 0.0
C170 C 0.64067 0.74726 0.19079 0.0
C171 C 0.60666 0.72875 0.04046 0.0
C172 C 0.59478 0.73859 0.02829 0.0
C173 C 0.58938 0.77027 0.05133 0.0
C174 C 0.57786 0.77706 0.04483 0.0
C175 C 0.57153 0.75231 1.01523 0.0
C176 C 0.57707 0.72105 0.99084 0.0
C177 C 0.58855 0.71433 0.9973 0.0
C178 C 0.63307 0.81862 0.05601 0.0
C179 C 0.6407 0.75085 0.90496 0.0
O180 O 0.66497 0.7941 0.09299 0.0
O181 O 0.67093 0.75993 1.01106 0.0
O182 O 0.64275 0.71105 0.05559 0.0
O183 O 0.65966 0.69619 0.05662 0.0
O184 O 0.63283 0.73317 0.15757 0.0
O185 O 0.64841 0.76324 0.16025 0.0
O186 O 0.6135 0.728 0.99037 0.0
O187 O 0.61092 0.73933 0.09544 0.0
O188 O 0.63796 0.79415 0.02228 0.0
O189 O 0.62428 0.80806 0.08338 0.0
O190 O 0.64946 0.76121 0.93573 0.0
O191 O 0.6319 0.74187 0.93733 0.0
H192 H 0.68906 0.72559 0.04557 0.0
H193 H 0.70757 0.71901 0.09385 0.0
H194 H 0.70112 0.81959 0.18939 0.0
H195 H 0.68274 0.82656 0.13927 0.0
H196 H 0.59403 0.78943 0.07542 0.0
H197 H 0.57391 0.80161 0.06338 0.0
H198 H 0.5725 0.70112 0.96871 0.0
H199 H 0.59253 0.68959 0.97971 0.0
Pr200 Pr 0.37053 0.75224 0.03861 0.0
Pr201 Pr 0.39515 0.75429 0.04299 0.0
C202 C 0.34916 0.7382 0.05065 0.0
C203 C 0.3388 0.744 0.09012 0.0
C204 C 0.33069 0.77127 0.07372 0.0
C205 C 0.32039 0.77441 0.10557 0.0
C206 C 0.31789 0.75021 0.15436 0.0
C207 C 0.32609 0.72337 0.17176 0.0
C208 C 0.3364 0.72026 0.13995 0.0
C209 C 0.37696 0.81994 0.02484 0.0
C210 C 0.38302 0.7565 0.18605 0.0
C211 C 0.4169 0.76204 0.03093 0.0
C212 C 0.42892 0.76535 0.02362 0.0
C213 C 0.436 0.73707 0.99952 0.0
C214 C 0.44742 0.73924 0.99547 0.0
C215 C 0.4521 0.76974 1.01549 0.0
C216 C 0.44499 0.7982 0.03899 0.0
C217 C 0.43353 0.79604 0.04292 0.0
C218 C 0.38813 0.68695 0.05397 0.0
C219 C 0.38283 0.75224 0.89806 0.0
O220 O 0.35748 0.7181 0.07514 0.0
O221 O 0.35228 0.76435 1.01603 0.0
O222 O 0.38117 0.79758 0.06578 0.0
O223 O 0.36895 0.80808 0.99181 0.0
O224 O 0.39214 0.76326 0.15516 0.0
O225 O 0.37414 0.74898 0.15317 0.0
O226 O 0.40979 0.78755 0.05133 0.0
O227 O 0.41259 0.73312 1.01588 0.0
O228 O 0.38445 0.70992 1.01302 0.0
O229 O 0.39555 0.69864 0.09215 0.0
O230 O 0.37487 0.7379 0.9294 0.0
O231 O 0.39064 0.76629 0.9315 0.0
H232 H 0.33217 0.78969 0.03484 0.0
H233 H 0.31424 0.79511 0.09015 0.0
H234 H 0.32451 0.70451 0.20964 0.0
H235 H 0.3424 0.69871 0.15339 0.0
H236 H 0.43273 0.71297 0.98454 0.0
H237 H 0.45263 0.71662 0.97804 0.0
H238 H 0.44829 0.82222 0.05415 0.0
H239 H 0.4283 0.81827 0.06175 0.0
Pr240 Pr 0.62624 0.24759 0.98356 0.0
Pr241 Pr 0.65364 0.25784 0.98323 0.0
C242 C 0.60649 0.2205 0.98114 0.0
C243 C 0.59452 0.22674 0.99528 0.0
C244 C 0.58895 0.26053 0.99468 0.0
C245 C 0.57741 0.26524 1.00313 0.0
C246 C 0.57123 0.23625 1.01228 0.0
C247 C 0.57694 0.20256 1.01397 0.0
C248 C 0.58843 0.19791 1.00563 0.0
C249 C 0.63043 0.31888 0.99358 0.0
C250 C 0.63985 0.25283 0.12598 0.0
C251 C 0.67336 0.28492 0.97904 0.0
C252 C 0.68455 0.27991 0.94925 0.0
C253 C 0.69037 0.24662 0.94326 0.0
C254 C 0.70116 0.24299 0.91744 0.0
C255 C 0.70636 0.27257 0.89704 0.0
C256 C 0.70038 0.30575 0.90213 0.0
C257 C 0.68962 0.30933 0.92798 0.0
C258 C 0.64943 0.18644 0.97782 0.0
C259 C 0.64035 0.25022 0.84036 0.0
O260 O 0.61334 0.21628 0.03127 0.0
O261 O 0.61036 0.23779 0.93167 0.0
O262 O 0.63729 0.29224 0.98909 0.0
O263 O 0.62049 0.30865 0.99252 0.0
O264 O 0.64833 0.26498 0.0946 0.0
O265 O 0.63136 0.24082 0.09483 0.0
O266 O 0.66511 0.29532 0.93973 0.0
O267 O 0.6708 0.26232 0.02396 0.0
O268 O 0.64255 0.21313 0.97942 0.0
O269 O 0.65937 0.19671 0.97717 0.0
O270 O 0.63161 0.24019 0.87216 0.0
O271 O 0.64906 0.26104 0.871 0.0
H272 H 0.59349 0.28318 0.98679 0.0
H273 H 0.57335 0.2916 1.00242 0.0
H274 H 0.57249 0.17955 0.01982 0.0
H275 H 0.59256 0.1716 1.00575 0.0
H276 H 0.68664 0.22345 0.95918 0.0
H277 H 0.70552 0.21707 0.91485 0.0
H278 H 0.70399 0.32906 0.88586 0.0
H279 H 0.68528 0.33526 0.93185 0.0
Pr280 Pr 0.39567 0.25857 0.97307 0.0
Pr281 Pr 0.37124 0.24813 0.9808 0.0
C282 C 0.41642 0.27896 0.97664 0.0
C283 C 0.42814 0.27374 0.9976 0.0
C284 C 0.43414 0.24056 0.99668 0.0
C285 C 0.44565 0.23723 1.00659 0.0
C286 C 0.45138 0.26704 0.01705 0.0
C287 C 0.44524 0.29999 0.02058 0.0
C288 C 0.43377 0.30326 1.011 0.0
C289 C 0.39124 0.18787 0.97079 0.0
C290 C 0.38412 0.25048 0.12083 0.0
C291 C 0.35049 0.22808 0.97149 0.0
C292 C 0.33989 0.23278 0.93465 0.0
C293 C 0.33468 0.26619 0.92005 0.0
C294 C 0.32413 0.26985 0.89109 0.0
C295 C 0.31857 0.24021 0.87598 0.0
C296 C 0.32397 0.20683 0.88907 0.0
C297 C 0.33449 0.2032 0.91814 0.0
C298 C 0.37565 0.31815 0.99112 0.0
C299 C 0.38254 0.25865 0.83352 0.0
O300 O 0.40877 0.29019 0.01922 0.0
O301 O 0.41301 0.25749 0.93267 0.0
O302 O 0.38656 0.21118 1.00756 0.0
O303 O 0.39887 0.20031 0.93542 0.0
O304 O 0.37624 0.23541 0.08998 0.0
O305 O 0.39179 0.26531 0.08714 0.0
O306 O 0.35904 0.21115 0.94262 0.0
O307 O 0.35311 0.25402 1.00838 0.0
O308 O 0.38031 0.29654 0.95044 0.0
O309 O 0.36808 0.30439 0.02495 0.0
O310 O 0.39042 0.27318 0.86505 0.0
O311 O 0.37496 0.24324 0.86653 0.0
H312 H 0.43001 0.21736 0.98604 0.0
H313 H 0.45011 0.21148 1.00321 0.0
H314 H 0.44935 0.32342 0.02962 0.0
H315 H 0.42933 0.32913 1.01162 0.0
H316 H 0.33866 0.2895 0.93207 0.0
H317 H 0.3203 0.29594 0.88085 0.0
H318 H 0.31992 0.18342 0.87893 0.0
H319 H 0.3383 0.17718 0.92936 0.0
H320 H 0.21455 0.30434 0.73228 0.0
H321 H 0.23374 0.30048 0.77115 0.0
H322 H 0.24208 0.21333 0.64032 0.0
H323 H 0.22302 0.21767 0.59965 0.0
H324 H 0.24653 0.24551 0.83183 0.0
H325 H 0.26532 0.27965 0.59308 0.0
H326 H 0.25061 0.28635 0.60835 0.0
H327 H 0.25699 0.24344 0.58832 0.0
C328 C 0.22048 0.28453 0.71128 0.0
C329 C 0.21721 0.26148 0.66241 0.0
C330 C 0.23144 0.28223 0.73388 0.0
C331 C 0.23942 0.25702 0.70788 0.0
C332 C 0.23614 0.23347 0.66022 0.0
H333 H 0.30963 0.20073 0.7799 0.0
H334 H 0.29047 0.20497 0.7405 0.0
C335 C 0.22518 0.23571 0.63762 0.0
C336 C 0.25112 0.25517 0.73118 0.0
H337 H 0.27775 0.26045 0.67904 0.0
C338 C 0.25335 0.24894 0.79848 0.0
C339 C 0.26004 0.25963 0.68767 0.0
C340 C 0.25815 0.26796 0.61544 0.0
C341 C 0.26424 0.24637 0.82319 0.0
C342 C 0.27316 0.25078 0.77967 0.0
C343 C 0.27093 0.25703 0.71238 0.0
C344 C 0.28486 0.24883 0.80299 0.0
C345 C 0.26613 0.23812 0.89545 0.0
C346 C 0.28817 0.27249 0.85034 0.0
C347 C 0.29911 0.27006 0.8732 0.0
C348 C 0.30704 0.24396 0.84902 0.0
C349 C 0.30374 0.2208 0.80042 0.0
C350 C 0.29279 0.22331 0.77752 0.0
H351 H 0.25893 0.22665 0.91799 0.0
H352 H 0.27363 0.21958 0.90253 0.0
H353 H 0.26736 0.26263 0.92239 0.0
H354 H 0.28226 0.29283 0.86985 0.0
H355 H 0.3013 0.28818 0.91095 0.0
H356 H 0.7164 0.22157 0.81553 0.0
H357 H 0.73551 0.21603 0.77472 0.0
H358 H 0.74166 0.31066 0.87752 0.0
H359 H 0.72276 0.31574 0.92041 0.0
H360 H 0.74626 0.26172 0.69677 0.0
H361 H 0.76746 0.24309 0.93866 0.0
H362 H 0.75283 0.23937 0.92865 0.0
H363 H 0.75794 0.28179 0.93464 0.0
C364 C 0.72186 0.24096 0.83028 0.0
C365 C 0.718 0.26905 0.87157 0.0
C366 C 0.73277 0.23788 0.80649 0.0
C367 C 0.7401 0.26263 0.8238 0.0
C368 C 0.73625 0.29084 0.86446 0.0
H369 H 0.80839 0.29519 0.72578 0.0
H370 H 0.78933 0.29969 0.76732 0.0
C371 C 0.72536 0.29394 0.88828 0.0
C372 C 0.75168 0.25947 0.79808 0.0
H373 H 0.77883 0.25302 0.8461 0.0
C374 C 0.75339 0.25959 0.72942 0.0
C375 C 0.76099 0.2568 0.84064 0.0
C376 C 0.75975 0.25491 0.91473 0.0
C377 C 0.76411 0.25785 0.70223 0.0
C378 C 0.77342 0.25529 0.7448 0.0
C379 C 0.77171 0.25509 0.81345 0.0
C380 C 0.78499 0.25254 0.71911 0.0
C381 C 0.76536 0.25964 0.62813 0.0
C382 C 0.78897 0.22433 0.67883 0.0
C383 C 0.79984 0.22178 0.65469 0.0
C384 C 0.80704 0.24728 0.67063 0.0
C385 C 0.80306 0.27532 0.7117 0.0
C386 C 0.79218 0.27782 0.73587 0.0
H387 H 0.75761 0.27097 0.60398 0.0
H388 H 0.77219 0.27556 0.61421 0.0
H389 H 0.76734 0.23278 0.60847 0.0
H390 H 0.78367 0.20413 0.66616 0.0
H391 H 0.80254 0.20002 0.6227 0.0
H392 H 0.30466 0.80876 0.19317 0.0
H393 H 0.28585 0.81177 0.23817 0.0
H394 H 0.28668 0.69929 0.22857 0.0
H395 H 0.30544 0.69603 0.18333 0.0
H396 H 0.26708 0.7894 0.1808 0.0
H397 H 0.27617 0.71911 0.41704 0.0
H398 H 0.28687 0.7353 0.36664 0.0
H399 H 0.28121 0.69511 0.34532 0.0
C400 C 0.30085 0.78463 0.20065 0.0
C401 C 0.30662 0.75213 0.18482 0.0
C402 C 0.29011 0.7864 0.22663 0.0
C403 C 0.28489 0.75574 0.23772 0.0
C404 C 0.29061 0.72327 0.22204 0.0
H405 H 0.21891 0.71305 0.3677 0.0
H406 H 0.23798 0.70923 0.32658 0.0
C407 C 0.30136 0.72146 0.19615 0.0
C408 C 0.27331 0.75786 0.26307 0.0
H409 H 0.25718 0.7309 0.38839 0.0
C410 C 0.26493 0.77678 0.2264 0.0
C411 C 0.27049 0.74125 0.32244 0.0
C412 C 0.27916 0.72181 0.36554 0.0
C413 C 0.2538 0.77911 0.24686 0.0
C414 C 0.25098 0.76253 0.30621 0.0
C415 C 0.25935 0.74353 0.34284 0.0
C416 C 0.2394 0.76495 0.33147 0.0
C417 C 0.24512 0.7987 0.20401 0.0
C418 C 0.2339 0.79748 0.3488 0.0
C419 C 0.22302 0.79976 0.37275 0.0
C420 C 0.21739 0.76951 0.38016 0.0
C421 C 0.22299 0.73688 0.3633 0.0
C422 C 0.23389 0.73463 0.33946 0.0
H423 H 0.24815 0.80205 0.15277 0.0
H424 H 0.23748 0.78488 0.20205 0.0
H425 H 0.24293 0.82511 0.2252 0.0
H426 H 0.23806 0.82115 0.34448 0.0
H427 H 0.2191 0.82524 0.38653 0.0
H428 H 0.72017 0.81993 0.15905 0.0
H429 H 0.73897 0.81417 0.20376 0.0
H430 H 0.73659 0.70433 0.23926 0.0
H431 H 0.71771 0.70988 0.19544 0.0
H432 H 0.74656 0.79185 0.32929 0.0
H433 H 0.76537 0.70455 0.13269 0.0
H434 H 0.75193 0.72863 0.12384 0.0
H435 H 0.75347 0.68905 0.17191 0.0
C436 C 0.72358 0.79456 0.17689 0.0
C437 C 0.71737 0.76534 0.17337 0.0
C438 C 0.73437 0.7913 0.20212 0.0
C439 C 0.73927 0.75872 0.22396 0.0
C440 C 0.73309 0.72958 0.22134 0.0
H441 H 0.80315 0.68601 0.39421 0.0
H442 H 0.78427 0.69189 0.35076 0.0
C443 C 0.72228 0.73281 0.19619 0.0
C444 C 0.75078 0.75544 0.25034 0.0
H445 H 0.77668 0.71419 0.22522 0.0
C446 C 0.75315 0.77499 0.30638 0.0
C447 C 0.75939 0.73341 0.22047 0.0
C448 C 0.75748 0.71292 0.15856 0.0
C449 C 0.76384 0.77264 0.33403 0.0
C450 C 0.77245 0.7506 0.30417 0.0
C451 C 0.77008 0.73105 0.24813 0.0
C452 C 0.78397 0.74733 0.33043 0.0
C453 C 0.76576 0.79315 0.3959 0.0
C454 C 0.79017 0.77644 0.3327 0.0
C455 C 0.80103 0.77313 0.3571 0.0
C456 C 0.80596 0.74056 0.37952 0.0
C457 C 0.79972 0.71141 0.37662 0.0
C458 C 0.78888 0.71474 0.35212 0.0
H459 H 0.75788 0.80156 0.42177 0.0
H460 H 0.77131 0.77744 0.43062 0.0
H461 H 0.76978 0.81699 0.38248 0.0
H462 H 0.78665 0.8017 0.3149 0.0
H463 H 0.80562 0.79603 0.3574 0.0
H464 H 0.12386 0.87145 0.40486 0.0
H465 H 0.12639 0.93379 0.41371 0.0
H466 H 0.1478 0.9123 0.58191 0.0
H467 H 0.14561 0.84962 0.57147 0.0
H468 H 0.12096 0.9797 0.50684 0.0
H469 H 0.16651 0.97182 0.47672 0.0
H470 H 0.1587 0.9349 0.46155 0.0
H471 H 0.16236 0.94603 0.54466 0.0
C472 C 0.12921 0.87996 0.44329 0.0
C473 C 0.13458 0.85555 0.48722 0.0
C474 C 0.13062 0.9157 0.4485 0.0
C475 C 0.13741 0.92804 0.49797 0.0
C476 C 0.14275 0.90361 0.54219 0.0
H477 H 0.1339 0.15266 0.60368 0.0
H478 H 0.13133 0.08989 0.60153 0.0
C479 C 0.14145 0.86772 0.53644 0.0
C480 C 0.13861 0.96646 0.50381 0.0
H481 H 0.15763 0.02687 0.50932 0.0
C482 C 0.12899 0.98998 0.50722 0.0
C483 C 0.14906 0.98019 0.50361 0.0
C484 C 0.15974 0.95697 0.49576 0.0
C485 C 0.12952 0.02651 0.5102 0.0
C486 C 0.13998 0.04016 0.51183 0.0
C487 C 0.14959 0.01663 0.50867 0.0
C488 C 0.14122 0.07868 0.51347 0.0
C489 C 0.11883 0.05005 0.50925 0.0
C490 C 0.1478 0.09351 0.4658 0.0
C491 C 0.14943 0.12913 0.4678 0.0
C492 C 0.14448 0.15105 0.51729 0.0
C493 C 0.13775 0.13651 0.56459 0.0
C494 C 0.13623 0.10061 0.5631 0.0
H495 H 0.1119 0.03644 0.48866 0.0
H496 H 0.11658 0.05805 0.56057 0.0
H497 H 0.11966 0.07402 0.47958 0.0
H498 H 0.15175 0.07742 0.42691 0.0
H499 H 0.15465 0.13951 0.43055 0.0
H500 H 0.89024 0.35791 0.60971 0.0
H501 H 0.89276 0.42081 0.60774 0.0
H502 H 0.86965 0.43546 0.4461 0.0
H503 H 0.86714 0.37296 0.44767 0.0
H504 H 0.88895 0.46814 0.4254 0.0
H505 H 0.87083 0.50269 0.67152 0.0
H506 H 0.88166 0.46733 0.67163 0.0
H507 H 0.86882 0.46201 0.63034 0.0
C508 C 0.88568 0.3746 0.57393 0.0
C509 C 0.87844 0.36044 0.52909 0.0
C510 C 0.88707 0.4106 0.57308 0.0
C511 C 0.88127 0.43311 0.52735 0.0
C512 C 0.87417 0.4188 0.48208 0.0
H513 H 0.87354 0.66356 0.51592 0.0
H514 H 0.8702 0.60123 0.52173 0.0
C515 C 0.87274 0.38299 0.4831 0.0
C516 C 0.88274 0.47137 0.52508 0.0
H517 H 0.87922 0.54742 0.61447 0.0
C518 C 0.88682 0.48543 0.46678 0.0
C519 C 0.87981 0.49417 0.57864 0.0
C520 C 0.87494 0.48098 0.64146 0.0
C521 C 0.88822 0.52133 0.46102 0.0
C522 C 0.88557 0.54398 0.51516 0.0
C523 C 0.8813 0.5301 0.57307 0.0
C524 C 0.88749 0.58187 0.51288 0.0
C525 C 0.89244 0.53485 0.39663 0.0
C526 C 0.89829 0.59181 0.50685 0.0
C527 C 0.90019 0.62721 0.50368 0.0
C528 C 0.89134 0.65364 0.50639 0.0
C529 C 0.88051 0.64381 0.51316 0.0
C530 C 0.87861 0.60822 0.51673 0.0
H531 H 0.89148 0.51633 0.35528 0.0
H532 H 0.88801 0.56062 0.38377 0.0
H533 H 0.90138 0.53837 0.40166 0.0
H534 H 0.90529 0.5721 0.50479 0.0
H535 H 0.90864 0.63387 0.49886 0.0
H536 H 0.89378 0.8494 0.51597 0.0
H537 H 0.89698 0.91153 0.52679 0.0
H538 H 0.86305 0.94111 0.4715 0.0
H539 H 0.85976 0.87943 0.46332 0.0
H540 H 0.8959 0.9661 0.44446 0.0
H541 H 0.86427 0.99541 0.63854 0.0
H542 H 0.86857 0.95127 0.61256 0.0
H543 H 0.8584 0.97817 0.56565 0.0
C544 C 0.88703 0.86923 0.50618 0.0
C545 C 0.87649 0.85951 0.48952 0.0
C546 C 0.88885 0.90477 0.51238 0.0
C547 C 0.88018 0.93128 0.50181 0.0
C548 C 0.86979 0.92141 0.48232 0.0
H549 H 0.87461 0.15964 0.48005 0.0
H550 H 0.87226 0.09694 0.46879 0.0
C551 C 0.86794 0.88603 0.47702 0.0
C552 C 0.88193 0.96917 0.51067 0.0
H553 H 0.87131 0.04479 0.58688 0.0
C554 C 0.89057 0.98316 0.47605 0.0
C555 C 0.87504 0.99172 0.55223 0.0
C556 C 0.86614 0.9783 0.59488 0.0
C557 C 0.89229 0.01894 0.48053 0.0
C558 C 0.88521 0.04148 0.52052 0.0
C559 C 0.87666 0.02757 0.55562 0.0
C560 C 0.88665 0.07951 0.52728 0.0
C561 C 0.90157 0.0327 0.44165 0.0
C562 C 0.89543 0.09059 0.56461 0.0
C563 C 0.89672 0.12636 0.57171 0.0
C564 C 0.8893 0.15184 0.54115 0.0
C565 C 0.88048 0.14069 0.50398 0.0
C566 C 0.87913 0.10488 0.49751 0.0
H567 H 0.90541 0.01303 0.40622 0.0
H568 H 0.89847 0.05664 0.41398 0.0
H569 H 0.90807 0.04 0.47624 0.0
H570 H 0.90127 0.07153 0.58854 0.0
H571 H 0.90359 0.13405 0.60074 0.0
H572 H 0.12951 0.65778 0.4818 0.0
H573 H 0.12629 0.59547 0.48731 0.0
H574 H 0.16151 0.56706 0.47981 0.0
H575 H 0.16476 0.62901 0.47512 0.0
H576 H 0.13232 0.53966 0.40062 0.0
H577 H 0.15244 0.51537 0.64448 0.0
H578 H 0.1487 0.55892 0.61309 0.0
H579 H 0.16107 0.534 0.58442 0.0
C580 C 0.13655 0.6382 0.48122 0.0
C581 C 0.14739 0.64831 0.47846 0.0
C582 C 0.13471 0.6026 0.48437 0.0
C583 C 0.14367 0.57647 0.4853 0.0
C584 C 0.15447 0.58662 0.48076 0.0
H585 H 0.15017 0.34734 0.51391 0.0
H586 H 0.15353 0.40929 0.50232 0.0
C587 C 0.15631 0.6221 0.47761 0.0
C588 C 0.14176 0.53862 0.49068 0.0
H589 H 0.14762 0.46542 0.5859 0.0
C590 C 0.13561 0.52348 0.44132 0.0
C591 C 0.1461 0.51734 0.54363 0.0
C592 C 0.15236 0.53223 0.59978 0.0
C593 C 0.13386 0.48768 0.4428 0.0
C594 C 0.13818 0.46641 0.49581 0.0
C595 C 0.14434 0.48156 0.54511 0.0
C596 C 0.13618 0.42867 0.50193 0.0
C597 C 0.1276 0.47279 0.38666 0.0
C598 C 0.12534 0.41881 0.5065 0.0
C599 C 0.12342 0.38352 0.51315 0.0
C600 C 0.1323 0.3572 0.51589 0.0
C601 C 0.14317 0.367 0.5119 0.0
C602 C 0.14508 0.40241 0.50528 0.0
H603 H 0.12768 0.48938 0.34166 0.0
H604 H 0.13114 0.44588 0.37403 0.0
H605 H 0.11884 0.47161 0.40163 0.0
H606 H 0.11833 0.43849 0.50567 0.0
H607 H 0.11495 0.37687 0.51648 0.0
H608 H 0.62986 0.65676 0.04886 0.0
H609 H 0.62673 0.59443 0.04062 0.0
H610 H 0.66194 0.56632 0.0516 0.0
H611 H 0.66507 0.62818 0.06062 0.0
H612 H 0.63409 0.54581 0.94552 0.0
H613 H 0.65072 0.5017 0.18961 0.0
H614 H 0.64753 0.54738 0.16949 0.0
H615 H 0.66028 0.52423 0.1416 0.0
C616 C 0.63691 0.63722 0.05022 0.0
C617 C 0.64771 0.64745 0.05581 0.0
C618 C 0.63512 0.60157 0.04533 0.0
C619 C 0.64408 0.57538 0.04654 0.0
C620 C 0.65486 0.58572 0.05212 0.0
H621 H 0.65073 0.34564 1.00498 0.0
H622 H 0.65427 0.40759 1.0159 0.0
C623 C 0.65664 0.62123 0.05689 0.0
C624 C 0.64225 0.53742 0.03933 0.0
H625 H 0.6472 0.45699 0.11308 0.0
C626 C 0.63689 0.52648 0.98243 0.0
C627 C 0.64597 0.51189 0.08709 0.0
C628 C 0.65135 0.52186 0.15068 0.0
C629 C 0.63533 0.49096 0.97152 0.0
C630 C 0.63902 0.46545 0.01935 0.0
C631 C 0.64441 0.47634 0.07616 0.0
C632 C 0.63699 0.42765 1.01239 0.0
C633 C 0.62993 0.481 0.90798 0.0
C634 C 0.62612 0.41802 1.00775 0.0
C635 C 0.62411 0.38279 1.00145 0.0
C636 C 0.6329 0.35609 0.99994 0.0
C637 C 0.64379 0.36556 1.00538 0.0
C638 C 0.64581 0.40098 1.01184 0.0
H639 H 0.63058 0.50112 0.86899 0.0
H640 H 0.63372 0.45544 0.88922 0.0
H641 H 0.621 0.47871 0.91711 0.0
H642 H 0.61914 0.43779 1.00961 0.0
H643 H 0.61561 0.37646 0.99793 0.0
H644 H 0.38953 0.85564 0.11007 0.0
H645 H 0.39228 0.91835 0.10696 0.0
H646 H 0.37289 0.92994 0.92832 0.0
H647 H 0.36986 0.86799 0.93238 0.0
H648 H 0.40165 0.95917 0.01843 0.0
H649 H 0.35724 0.00519 0.04118 0.0
H650 H 0.36242 0.96013 0.05473 0.0
H651 H 0.35978 0.97632 0.97209 0.0
C652 C 0.38585 0.87167 0.07028 0.0
C653 C 0.37935 0.85707 0.02199 0.0
C654 C 0.38743 0.90746 0.0685 0.0
C655 C 0.38254 0.92915 0.01833 0.0
C656 C 0.37643 0.91412 0.96872 0.0
H657 H 0.40036 0.13378 0.89477 0.0
H658 H 0.39847 0.07118 0.90882 0.0
C659 C 0.37477 0.87859 0.97085 0.0
C660 C 0.38385 0.9674 0.01707 0.0
H661 H 0.36917 0.04766 1.00499 0.0
C662 C 0.39455 0.97855 1.01606 0.0
C663 C 0.37459 0.99285 1.01533 0.0
C664 C 0.36287 0.98305 0.02163 0.0
C665 C 0.39625 0.01426 1.01117 0.0
C666 C 0.38699 0.03952 1.00525 0.0
C667 C 0.37629 0.0284 1.00841 0.0
C668 C 0.38815 0.07761 0.99621 0.0
C669 C 0.40795 0.02451 1.0135 0.0
C670 C 0.38263 0.10236 0.03886 0.0
C671 C 0.38351 0.13819 0.03002 0.0
C672 C 0.38999 0.15004 0.9785 0.0
C673 C 0.3954 0.12538 0.9353 0.0
C674 C 0.39441 0.08954 0.94371 0.0
H675 H 0.41359 0.0043 0.03902 0.0
H676 H 0.41106 0.02705 0.9623 0.0
H677 H 0.40836 0.04991 0.03922 0.0
H678 H 0.37768 0.09395 0.07942 0.0
H679 H 0.37922 0.15658 0.06404 0.0
H680 H 0.3881 0.35619 0.90922 0.0
H681 H 0.39045 0.41901 0.9165 0.0
H682 H 0.37007 0.42686 0.09167 0.0
H683 H 0.36743 0.36474 0.08338 0.0
H684 H 0.36404 0.47881 1.00884 0.0
H685 H 0.40967 0.46924 0.03974 0.0
H686 H 0.40525 0.44856 0.96606 0.0
H687 H 0.40185 0.43161 0.04566 0.0
C688 C 0.38417 0.37139 0.94935 0.0
C689 C 0.37756 0.35562 0.99565 0.0
C690 C 0.38558 0.40722 0.95377 0.0
C691 C 0.38055 0.4277 1.00519 0.0
C692 C 0.37403 0.41173 0.05156 0.0
H693 H 0.39576 0.6335 0.13594 0.0
H694 H 0.39359 0.57098 0.12321 0.0
C695 C 0.37254 0.37616 0.0468 0.0
C696 C 0.38171 0.46595 1.0102 0.0
H697 H 0.40057 0.52628 0.02615 0.0
C698 C 0.37204 0.48916 1.01264 0.0
C699 C 0.39213 0.47951 1.01601 0.0
C700 C 0.40282 0.45595 0.01739 0.0
C701 C 0.37247 0.52538 0.02089 0.0
C702 C 0.3829 0.53905 0.02502 0.0
C703 C 0.39258 0.51587 0.02253 0.0
C704 C 0.38394 0.5772 0.03326 0.0
C705 C 0.36173 0.54845 0.0271 0.0
C706 C 0.37925 0.60161 0.98702 0.0
C707 C 0.38037 0.63738 0.9947 0.0
C708 C 0.38636 0.64941 0.04819 0.0
C709 C 0.39107 0.62501 0.09433 0.0
C710 C 0.38987 0.58926 0.08694 0.0
H711 H 0.3548 0.53322 0.04232 0.0
H712 H 0.36246 0.56971 0.0636 0.0
H713 H 0.35957 0.56056 0.97844 0.0
H714 H 0.37487 0.59297 0.94435 0.0
H715 H 0.37673 0.65553 0.95799 0.0
H716 H 0.62981 0.15894 1.00893 0.0
H717 H 0.62684 0.09673 0.02298 0.0
H718 H 0.66069 0.06753 0.9655 0.0
H719 H 0.66376 0.12921 0.95397 0.0
H720 H 0.62794 0.04079 0.94342 0.0
H721 H 0.66014 0.01512 0.13515 0.0
H722 H 0.65559 0.0588 0.1075 0.0
H723 H 0.66574 0.03169 0.06076 0.0
C724 C 0.63659 0.13918 0.99924 0.0
C725 C 0.64705 0.14905 0.98099 0.0
C726 C 0.6349 0.10357 1.00735 0.0
C727 C 0.64363 0.07713 0.99722 0.0
C728 C 0.65391 0.08715 0.97607 0.0
H729 H 0.65041 0.84744 0.99544 0.0
H730 H 0.65288 0.90998 0.98105 0.0
C731 C 0.65563 0.12256 0.96882 0.0
C732 C 0.64205 0.03917 1.00821 0.0
H733 H 0.65316 0.96479 0.08695 0.0
C734 C 0.63341 0.02433 0.97525 0.0
C735 C 0.64914 0.01733 0.04996 0.0
C736 C 0.65809 0.03163 0.09088 0.0
C737 C 0.63186 0.98846 0.98156 0.0
C738 C 0.6391 0.96661 0.02204 0.0
C739 C 0.64768 0.98138 0.05533 0.0
C740 C 0.63773 0.92857 0.03161 0.0
C741 C 0.62259 0.97394 0.94391 0.0
C742 C 0.62853 0.91807 0.06594 0.0
C743 C 0.62718 0.88245 0.0748 0.0
C744 C 0.63495 0.85635 0.04919 0.0
C745 C 0.64426 0.86684 1.01559 0.0
C746 C 0.64566 0.90259 1.0073 0.0
H747 H 0.6191 0.99233 0.90518 0.0
H748 H 0.62553 0.94863 0.92028 0.0
H749 H 0.61584 0.96902 0.97877 0.0
H750 H 0.62238 0.93752 0.08602 0.0
H751 H 0.61993 0.87536 0.10111 0.0
H752 H 0.15477 0.28089 0.31086 0.0
H753 H 0.15493 0.28029 0.18995 0.0
H754 H 0.12378 0.23468 0.18897 0.0
H755 H 0.12351 0.23517 0.30988 0.0
H756 H 0.1541 0.21992 0.10548 0.0
H757 H 0.11873 0.32034 0.06314 0.0
H758 H 0.12594 0.31571 0.1412 0.0
H759 H 0.11607 0.28565 0.11901 0.0
C760 C 0.1479 0.27093 0.28508 0.0
C761 C 0.1391 0.25818 0.32032 0.0
C762 C 0.14803 0.27054 0.21589 0.0
C763 C 0.13932 0.25778 0.18045 0.0
C764 C 0.13051 0.24513 0.21532 0.0
H765 H 0.12401 0.23401 0.76497 0.0
H766 H 0.12416 0.23491 0.88563 0.0
C767 C 0.1304 0.2453 0.28452 0.0
C768 C 0.1396 0.25682 0.10703 0.0
H769 H 0.12607 0.28959 0.96918 0.0
C770 C 0.14801 0.23525 0.07557 0.0
C771 C 0.13162 0.27674 0.06821 0.0
C772 C 0.12261 0.30117 0.09936 0.0
C773 C 0.14852 0.23252 1.0063 0.0
C774 C 0.14056 0.25256 0.96734 0.0
C775 C 0.13217 0.27422 0.99895 0.0
C776 C 0.1407 0.25128 0.89377 0.0
C777 C 0.15741 0.20744 0.97564 0.0
C778 C 0.14992 0.26039 0.85788 0.0
C779 C 0.1499 0.25971 0.78865 0.0
C780 C 0.14059 0.25028 0.75376 0.0
C781 C 0.13134 0.24136 0.78996 0.0
C782 C 0.1314 0.24191 0.8591 0.0
H783 H 0.16077 0.18725 1.01155 0.0
H784 H 0.15419 0.19406 0.93203 0.0
H785 H 0.16435 0.22221 0.95912 0.0
H786 H 0.1571 0.26852 0.88337 0.0
H787 H 0.15714 0.26704 0.76256 0.0
H788 H 0.8693 0.22817 0.31299 0.0
H789 H 0.86936 0.2294 0.19226 0.0
H790 H 0.89939 0.28129 0.19427 0.0
H791 H 0.89949 0.27987 0.3152 0.0
H792 H 0.86861 0.28788 0.10919 0.0
H793 H 0.90688 0.19939 0.06693 0.0
H794 H 0.89985 0.20245 0.14569 0.0
H795 H 0.90859 0.23553 0.12119 0.0
C796 C 0.87597 0.23966 0.2879 0.0
C797 C 0.88442 0.25379 0.32394 0.0
C798 C 0.87597 0.24038 0.21881 0.0
C799 C 0.88444 0.25503 0.18421 0.0
C800 C 0.89288 0.26925 0.21991 0.0
H801 H 0.89803 0.28728 0.76829 0.0
H802 H 0.89801 0.28677 0.88909 0.0
C803 C 0.89289 0.26856 0.2891 0.0
C804 C 0.88425 0.25627 0.11084 0.0
H805 H 0.8988 0.22859 0.97298 0.0
C806 C 0.87519 0.27481 0.07935 0.0
C807 C 0.89284 0.23924 0.07204 0.0
C808 C 0.90255 0.21775 0.103 0.0
C809 C 0.87458 0.27725 1.01013 0.0
C810 C 0.88317 0.26019 0.97133 0.0
C811 C 0.89223 0.24169 1.00281 0.0
C812 C 0.88293 0.2612 0.89795 0.0
C813 C 0.86486 0.2987 0.97917 0.0
C814 C 0.87448 0.2468 0.86271 0.0
C815 C 0.87444 0.24708 0.79352 0.0
C816 C 0.88291 0.2616 0.75821 0.0
C817 C 0.89136 0.27598 0.79377 0.0
C818 C 0.89139 0.27567 0.86289 0.0
H819 H 0.86057 0.31719 1.01516 0.0
H820 H 0.86754 0.31386 0.93624 0.0
H821 H 0.8588 0.28091 0.96135 0.0
H822 H 0.86798 0.23489 0.88871 0.0
H823 H 0.86784 0.23559 0.7678 0.0
H824 H 0.14577 0.8008 0.26858 0.0
H825 H 0.14487 0.80219 0.14791 0.0
H826 H 0.13492 0.69702 0.14735 0.0
H827 H 0.13504 0.6967 0.26832 0.0
H828 H 0.15535 0.76989 0.05729 0.0
H829 H 0.11214 0.73867 0.02689 0.0
H830 H 0.11781 0.74759 0.10668 0.0
H831 H 0.12003 0.70439 0.07099 0.0
C832 C 0.14332 0.77807 0.24259 0.0
C833 C 0.14038 0.74876 0.27776 0.0
C834 C 0.14281 0.77884 0.17351 0.0
C835 C 0.13956 0.75002 0.13786 0.0
C836 C 0.13701 0.72019 0.17319 0.0
H837 H 0.15583 0.72543 0.71846 0.0
H838 H 0.15572 0.72399 0.83918 0.0
C839 C 0.1372 0.71984 0.24243 0.0
C840 C 0.13921 0.75098 0.06397 0.0
H841 H 0.12346 0.73362 0.92998 0.0
C842 C 0.14831 0.76227 0.02964 0.0
C843 C 0.12996 0.74178 0.02719 0.0
C844 C 0.11939 0.73284 0.05993 0.0
C845 C 0.14848 0.76431 0.96028 0.0
C846 C 0.13956 0.75283 0.92339 0.0
C847 C 0.1304 0.74193 0.9577 0.0
C848 C 0.13948 0.75231 0.84947 0.0
C849 C 0.1581 0.77994 0.92789 0.0
C850 C 0.13014 0.76674 0.81416 0.0
C851 C 0.13002 0.76621 0.74491 0.0
C852 C 0.13933 0.75193 0.7095 0.0
C853 C 0.14861 0.73719 0.74457 0.0
C854 C 0.14859 0.7367 0.81372 0.0
H855 H 0.16184 0.79841 0.96166 0.0
H856 H 0.16464 0.75872 0.91574 0.0
H857 H 0.15555 0.79422 0.88184 0.0
H858 H 0.12295 0.77878 0.84015 0.0
H859 H 0.12275 0.77775 0.71905 0.0
H860 H 0.90005 0.77438 0.72052 0.0
H861 H 0.89996 0.77433 0.84126 0.0
H862 H 0.86748 0.73733 0.84102 0.0
H863 H 0.86755 0.73669 0.72023 0.0
H864 H 0.88568 0.81104 0.92736 0.0
H865 H 0.8843 0.66829 0.96537 0.0
H866 H 0.8875 0.68673 0.88633 0.0
H867 H 0.87337 0.68787 0.91393 0.0
C868 C 0.89289 0.76603 0.74595 0.0
C869 C 0.88382 0.75535 0.7103 0.0
C870 C 0.89286 0.76607 0.81514 0.0
C871 C 0.8838 0.75531 0.85037 0.0
C872 C 0.87469 0.74496 0.81504 0.0
H873 H 0.86716 0.74156 0.26692 0.0
H874 H 0.8673 0.74182 0.14619 0.0
C875 C 0.87472 0.74481 0.74581 0.0
C876 C 0.88378 0.75584 0.92397 0.0
H877 H 0.88174 0.70432 0.06056 0.0
C878 C 0.88488 0.78767 0.9565 0.0
C879 C 0.88271 0.72535 0.96204 0.0
C880 C 0.88201 0.69005 0.93026 0.0
C881 C 0.88473 0.79 0.02587 0.0
C882 C 0.88365 0.75953 0.06392 0.0
C883 C 0.88256 0.72769 0.03141 0.0
C884 C 0.88358 0.76008 0.1375 0.0
C885 C 0.88548 0.82526 0.05772 0.0
C886 C 0.89273 0.76998 0.17303 0.0
C887 C 0.89268 0.76998 0.24227 0.0
C888 C 0.8835 0.75978 0.27756 0.0
C889 C 0.87438 0.74965 0.24167 0.0
C890 C 0.87444 0.74973 0.17249 0.0
H891 H 0.8833 0.84706 0.02253 0.0
H892 H 0.87992 0.8287 0.10133 0.0
H893 H 0.8941 0.8272 0.07464 0.0
H894 H 0.89999 0.77734 0.14721 0.0
H895 H 0.89989 0.77768 0.26803 0.0
H896 H 0.65647 0.76765 0.27546 0.0
H897 H 0.65634 0.76654 0.3962 0.0
H898 H 0.62472 0.72369 0.39384 0.0
H899 H 0.62488 0.72399 0.27297 0.0
H900 H 0.64173 0.80058 0.48155 0.0
H901 H 0.64205 0.65726 0.51925 0.0
H902 H 0.64495 0.67615 0.44013 0.0
H903 H 0.63088 0.67553 0.46812 0.0
C904 C 0.64951 0.75772 0.30048 0.0
C905 C 0.64071 0.74574 0.26426 0.0
C906 C 0.64945 0.75715 0.36965 0.0
C907 C 0.64061 0.74455 0.40431 0.0
C908 C 0.63177 0.73274 0.36836 0.0
H909 H 0.62435 0.73132 0.82283 0.0
H910 H 0.62426 0.73051 0.70194 0.0
C911 C 0.63185 0.73312 0.2991 0.0
C912 C 0.64048 0.74499 0.47795 0.0
H913 H 0.63904 0.69304 0.61453 0.0
C914 C 0.6412 0.77702 0.51058 0.0
C915 C 0.63975 0.71427 0.51599 0.0
C916 C 0.63947 0.67879 0.4842 0.0
C917 C 0.64105 0.77928 0.57994 0.0
C918 C 0.64034 0.74858 0.61791 0.0
C919 C 0.63957 0.71657 0.58538 0.0
C920 C 0.64046 0.74909 0.69144 0.0
C921 C 0.64145 0.81466 0.61196 0.0
C922 C 0.64967 0.75937 0.72589 0.0
C923 C 0.64976 0.75988 0.79507 0.0
C924 C 0.64066 0.74994 0.83143 0.0
C925 C 0.6315 0.73925 0.79667 0.0
C926 C 0.63143 0.73872 0.72745 0.0
H927 H 0.63908 0.83635 0.57683 0.0
H928 H 0.63586 0.81751 0.65548 0.0
H929 H 0.65001 0.81739 0.62909 0.0
H930 H 0.65683 0.76681 0.69922 0.0
H931 H 0.65698 0.76808 0.81996 0.0
H932 H 0.36735 0.72977 0.81372 0.0
H933 H 0.36752 0.7308 0.69286 0.0
H934 H 0.39857 0.77701 0.69542 0.0
H935 H 0.39853 0.776 0.81637 0.0
H936 H 0.36851 0.79072 0.60835 0.0
H937 H 0.40428 0.69098 0.57167 0.0
H938 H 0.39683 0.6959 0.64891 0.0
H939 H 0.40666 0.72615 0.62696 0.0
C940 C 0.37425 0.74004 0.78869 0.0
C941 C 0.38296 0.75268 0.8248 0.0
C942 C 0.37431 0.74065 0.7196 0.0
C943 C 0.38312 0.75359 0.68526 0.0
C944 C 0.39179 0.7664 0.72102 0.0
H945 H 0.39914 0.77508 0.2702 0.0
H946 H 0.39884 0.77544 0.39092 0.0
C947 C 0.39172 0.76594 0.79016 0.0
C948 C 0.38311 0.75426 0.612 0.0
H949 H 0.39709 0.72072 0.47632 0.0
C950 C 0.37473 0.77535 0.57936 0.0
C951 C 0.39125 0.73425 0.57449 0.0
C952 C 0.40023 0.71029 0.60706 0.0
C953 C 0.37438 0.77744 0.51006 0.0
C954 C 0.38249 0.75726 0.47244 0.0
C955 C 0.39088 0.73617 0.5052 0.0
C956 C 0.38248 0.75767 0.39904 0.0
C957 C 0.36548 0.80188 0.47788 0.0
C958 C 0.37342 0.74728 0.36337 0.0
C959 C 0.37353 0.7472 0.29422 0.0
C960 C 0.38278 0.75716 0.25936 0.0
C961 C 0.39188 0.76729 0.29533 0.0
C962 C 0.39173 0.76749 0.36442 0.0
H963 H 0.36193 0.82226 0.51285 0.0
H964 H 0.36876 0.81501 0.43411 0.0
H965 H 0.35867 0.78662 0.46122 0.0
H966 H 0.36629 0.73882 0.38902 0.0
H967 H 0.36642 0.73898 0.26819 0.0
H968 H 0.65621 0.27069 0.20989 0.0
H969 H 0.65627 0.26921 0.33073 0.0
H970 H 0.62358 0.23373 0.33 0.0
H971 H 0.6235 0.23451 0.20935 0.0
H972 H 0.64221 0.30501 0.41974 0.0
H973 H 0.64034 0.16191 0.44924 0.0
H974 H 0.64351 0.18155 0.37125 0.0
H975 H 0.6294 0.18271 0.39929 0.0
C976 C 0.64904 0.26245 0.23528 0.0
C977 C 0.63988 0.25251 0.19955 0.0
C978 C 0.64909 0.26163 0.30449 0.0
C979 C 0.64002 0.25076 0.33955 0.0
C980 C 0.63079 0.24138 0.30413 0.0
H981 H 0.62387 0.23262 0.75692 0.0
H982 H 0.62382 0.23337 0.636 0.0
C983 C 0.63074 0.24207 0.23496 0.0
C984 C 0.64011 0.25002 0.41312 0.0
H985 H 0.63799 0.19635 0.54662 0.0
C986 C 0.64135 0.28121 0.44748 0.0
C987 C 0.63895 0.21898 0.44938 0.0
C988 C 0.63808 0.1843 0.41551 0.0
C989 C 0.64127 0.28236 0.51695 0.0
C990 C 0.64011 0.25132 0.55319 0.0
C991 C 0.63886 0.22014 0.51885 0.0
C992 C 0.64023 0.25063 0.62674 0.0
C993 C 0.64218 0.31699 0.55087 0.0
C994 C 0.64954 0.25951 0.66188 0.0
C995 C 0.6496 0.25917 0.73105 0.0
C996 C 0.64037 0.24968 0.76677 0.0
C997 C 0.63112 0.24015 0.7313 0.0
C998 C 0.63108 0.24055 0.66206 0.0
H999 H 0.64002 0.33943 0.51707 0.0
H1000 H 0.63669 0.31986 0.59487 0.0
H1001 H 0.65084 0.31836 0.56757 0.0
H1002 H 0.6568 0.2666 0.63577 0.0
H1003 H 0.65691 0.26642 0.75643 0.0
H1004 H 0.39905 0.27832 0.20279 0.0
H1005 H 0.39887 0.28005 0.32375 0.0
H1006 H 0.36945 0.22515 0.32608 0.0
H1007 H 0.36948 0.22353 0.20539 0.0
H1008 H 0.36811 0.28419 0.40844 0.0
H1009 H 0.40698 0.19883 0.45233 0.0
H1010 H 0.40838 0.23498 0.39744 0.0
H1011 H 0.39997 0.20094 0.37353 0.0
C1012 C 0.39258 0.2664 0.22898 0.0
C1013 C 0.38431 0.25066 0.19423 0.0
C1014 C 0.39252 0.26728 0.29819 0.0
C1015 C 0.38422 0.25234 0.334 0.0
C1016 C 0.37595 0.23671 0.29947 0.0
H1017 H 0.3675 0.23212 0.75054 0.0
H1018 H 0.36769 0.23139 0.62958 0.0
C1019 C 0.37601 0.23576 0.23038 0.0
C1020 C 0.38396 0.25379 0.40738 0.0
H1021 H 0.39855 0.22741 0.54585 0.0
C1022 C 0.37474 0.27168 0.43853 0.0
C1023 C 0.39263 0.23748 0.44654 0.0
C1024 C 0.40251 0.21669 0.41596 0.0
C1025 C 0.37404 0.27417 0.50775 0.0
C1026 C 0.3827 0.25781 0.54691 0.0
C1027 C 0.39193 0.23997 0.51575 0.0
C1028 C 0.38239 0.25894 0.62032 0.0
C1029 C 0.36415 0.29494 0.53831 0.0
C1030 C 0.39068 0.27418 0.65541 0.0
C1031 C 0.39062 0.27454 0.72453 0.0
C1032 C 0.3823 0.25942 0.76013 0.0
C1033 C 0.37399 0.24418 0.7248 0.0
C1034 C 0.37406 0.24388 0.65558 0.0
H1035 H 0.35975 0.31302 0.50206 0.0
H1036 H 0.35824 0.27665 0.55622 0.0
H1037 H 0.36667 0.31046 0.58113 0.0
H1038 H 0.39722 0.28582 0.62923 0.0
H1039 H 0.39718 0.2864 0.74999 0.0
H1040 H 0.05782 0.28445 0.4371 0.0
H1041 H 0.0375 0.28969 0.43253 0.0
H1042 H 0.03707 0.19632 0.55068 0.0
H1043 H 0.05728 0.19126 0.55665 0.0
H1044 H 0.02302 0.23949 0.38459 0.0
H1045 H 0.0162 0.26984 0.65052 0.0
H1046 H 0.0293 0.27364 0.60995 0.0
H1047 H 0.02544 0.2314 0.63435 0.0
C1048 C 0.0534 0.26517 0.4625 0.0
C1049 C 0.05922 0.23744 0.49728 0.0
C1050 C 0.04179 0.26809 0.45952 0.0
C1051 C 0.03575 0.24363 0.4919 0.0
C1052 C 0.04153 0.21577 0.52604 0.0
H1053 H 0.96645 0.21505 0.55725 0.0
H1054 H 0.98666 0.20988 0.55222 0.0
C1055 C 0.05311 0.21272 0.52879 0.0
C1056 C 0.02342 0.24696 0.4899 0.0
H1057 H 1.00044 0.25795 0.58825 0.0
C1058 C 0.01806 0.24374 0.429 0.0
C1059 C 0.01697 0.2524 0.5479 0.0
C1060 C 0.02223 0.25734 0.61438 0.0
C1061 C 1.00644 0.24489 0.4248 0.0
C1062 C 0.99998 0.2502 0.48293 0.0
C1063 C 1.00536 0.25373 0.5437 0.0
C1064 C 0.98763 0.25213 0.4822 0.0
C1065 C 1.00124 0.23933 0.35839 0.0
C1066 C 0.98136 0.27753 0.44435 0.0
C1067 C 0.96976 0.28026 0.4464 0.0
C1068 C 0.96412 0.25791 0.48699 0.0
C1069 C 0.97044 0.23233 0.52448 0.0
C1070 C 0.98203 0.22954 0.52216 0.0
H1071 H 1.00726 0.22572 0.3234 0.0
H1072 H 0.994 0.22379 0.36314 0.0
H1073 H 0.99835 0.26514 0.33665 0.0
H1074 H 0.98544 0.29578 0.41414 0.0
H1075 H 0.96522 0.3001 0.41641 0.0
H1076 H 0.96691 0.81659 0.46787 0.0
H1077 H 0.98708 0.81035 0.4769 0.0
H1078 H 0.9854 0.72177 0.6066 0.0
H1079 H 0.96516 0.72779 0.59762 0.0
H1080 H 1.00034 0.81412 0.58556 0.0
H1081 H 1.00769 0.68285 0.46954 0.0
H1082 H 0.99449 0.70868 0.46526 0.0
H1083 H 0.99845 0.68453 0.53903 0.0
C1084 C 0.97081 0.79586 0.49865 0.0
C1085 C 0.96439 0.77268 0.53204 0.0
C1086 C 0.98236 0.79225 0.50353 0.0
C1087 C 0.98779 0.76532 0.5417 0.0
C1088 C 0.98143 0.74227 0.57561 0.0
H1089 H 0.05814 0.70854 0.61893 0.0
H1090 H 0.03789 0.71405 0.62323 0.0
C1091 C 0.96985 0.74577 0.57052 0.0
C1092 C 1.0001 0.76196 0.5466 0.0
H1093 H 0.0233 0.70675 0.5151 0.0
C1094 C 1.00536 0.79064 0.5701 0.0
C1095 C 1.00666 0.7313 0.52653 0.0
C1096 C 1.00157 0.70018 0.4981 0.0
C1097 C 0.01696 0.78947 0.57426 0.0
C1098 C 0.02351 0.75895 0.55364 0.0
C1099 C 0.01827 0.73009 0.53103 0.0
C1100 C 0.03581 0.75678 0.55325 0.0
C1101 C 0.02211 0.82078 0.60135 0.0
C1102 C 0.04139 0.77894 0.51239 0.0
C1103 C 0.05298 0.77569 0.50936 0.0
C1104 C 0.05925 0.7501 0.54703 0.0
C1105 C 0.05361 0.72825 0.58862 0.0
C1106 C 0.04202 0.73145 0.5914 0.0
H1107 H 0.01608 0.83811 0.6305 0.0
H1108 H 0.02934 0.81246 0.63317 0.0
H1109 H 0.02505 0.83629 0.55966 0.0
H1110 H 0.03678 0.79821 0.48149 0.0
H1111 H 0.05699 0.79251 0.47579 0.0
H1112 H 0.5572 0.78173 0.10937 0.0
H1113 H 0.53693 0.78739 0.10702 0.0
H1114 H 0.53758 0.7412 0.91279 0.0
H1115 H 0.55782 0.73593 0.9141 0.0
H1116 H 0.5216 0.82204 1.01488 0.0
H1117 H 0.51857 0.67851 0.02295 0.0
H1118 H 0.53117 0.69785 0.04281 0.0
H1119 H 0.52719 0.69292 0.95805 0.0
C1120 C 0.55305 0.77325 0.06566 0.0
C1121 C 0.55919 0.75812 1.0121 0.0
C1122 C 0.54145 0.77632 0.06461 0.0
C1123 C 0.53574 0.76415 1.01025 0.0
C1124 C 0.54181 0.75007 0.95588 0.0
H1125 H 0.4666 0.74485 0.91862 0.0
H1126 H 0.48676 0.74509 0.91717 0.0
C1127 C 0.5534 0.74705 0.95678 0.0
C1128 C 0.52344 0.76574 1.01071 0.0
H1129 H 0.50187 0.71453 1.00654 0.0
C1130 C 0.51727 0.79856 1.01329 0.0
C1131 C 0.51781 0.73507 1.00864 0.0
C1132 C 0.524 0.69904 1.00853 0.0
C1133 C 0.50561 0.80156 1.01247 0.0
C1134 C 0.49998 0.77086 1.01035 0.0
C1135 C 0.50618 0.73806 1.00797 0.0
C1136 C 0.48768 0.77205 1.0106 0.0
C1137 C 0.49945 0.83759 1.01225 0.0
C1138 C 0.48146 0.78697 0.06378 0.0
C1139 C 0.46991 0.78679 0.06486 0.0
C1140 C 0.46434 0.7714 1.01302 0.0
C1141 C 0.47061 0.75658 0.95973 0.0
C1142 C 0.48214 0.75683 0.95866 0.0
H1143 H 0.50482 0.85789 0.99597 0.0
H1144 H 0.4921 0.83855 0.97933 0.0
H1145 H 0.49653 0.84426 0.06309 0.0
H1146 H 0.48555 0.79812 0.1052 0.0
H1147 H 0.46539 0.79786 0.10723 0.0
H1148 H 0.4653 0.21782 0.08276 0.0
H1149 H 0.48559 0.21335 0.08726 0.0
H1150 H 0.4857 0.30451 0.96259 0.0
H1151 H 0.4655 0.30932 0.95844 0.0
H1152 H 0.50087 0.20354 0.98971 0.0
H1153 H 0.50543 0.33083 0.1107 0.0
H1154 H 0.49232 0.31226 0.10622 0.0
H1155 H 0.49733 0.33537 0.03654 0.0
C1156 C 0.46965 0.23695 0.05644 0.0
C1157 C 0.46374 0.26418 0.02089 0.0
C1158 C 0.48126 0.23443 0.05918 0.0
C1159 C 0.48721 0.25904 0.02647 0.0
C1160 C 0.48133 0.28585 0.99003 0.0
H1161 H 0.55649 0.28244 0.9453 0.0
H1162 H 0.53624 0.28775 0.95119 0.0
C1163 C 0.46975 0.28852 0.98761 0.0
C1164 C 0.49957 0.25605 0.02838 0.0
H1165 H 0.52181 0.30152 0.06361 0.0
C1166 C 0.50544 0.22486 1.00646 0.0
C1167 C 0.50558 0.28386 0.05018 0.0
C1168 C 0.49985 0.31732 0.07786 0.0
C1169 C 0.51709 0.22107 1.00416 0.0
C1170 C 0.52307 0.24906 0.025 0.0
C1171 C 0.51722 0.28014 0.04737 0.0
C1172 C 0.53539 0.2466 0.02358 0.0
C1173 C 0.52291 0.18744 0.97782 0.0
C1174 C 0.54168 0.22225 0.06344 0.0
C1175 C 0.55327 0.21936 0.06071 0.0
C1176 C 0.55887 0.24079 0.01803 0.0
C1177 C 0.55252 0.26575 0.97929 0.0
C1178 C 0.54092 0.26869 0.98225 0.0
H1179 H 0.51718 0.17176 0.9503 0.0
H1180 H 0.52984 0.19287 0.94461 0.0
H1181 H 0.52642 0.17138 0.01975 0.0
H1182 H 0.5376 0.20543 0.09675 0.0
H1183 H 0.55784 0.20034 0.09231 0.0
loop_
_geom_bond_atom_site_label_1
_geom_bond_atom_site_label_2
_geom_bond_distance
_geom_bond_site_symmetry_2
_ccdc_geom_bond_type
Pr0 C2 2.880 . S
Pr0 O20 2.562 . S
Pr0 O21 2.490 . S
Pr0 O22 2.695 . S
Pr0 O23 2.512 . S
Pr0 O25 2.437 . S
Pr0 O28 2.436 . S
Pr0 O30 2.438 . S
Pr1 C11 2.880 . S
Pr1 O22 2.436 . S
Pr1 O24 2.438 . S
Pr1 O26 2.562 . S
Pr1 O27 2.490 . S
Pr1 O28 2.695 . S
Pr1 O29 2.512 . S
Pr1 O31 2.437 . S
C2 Pr0 2.880 . S
C2 C3 1.491 . S
C2 O20 1.254 . S
C2 O21 1.225 . S
C3 C2 1.491 . S
C3 C4 1.392 . S
C3 C8 1.356 . S
C4 C3 1.392 . S
C4 C5 1.368 . S
C4 H32 0.929 . S
C5 C4 1.368 . S
C5 C6 1.386 . S
C5 H33 0.929 . S
C6 C5 1.386 . S
C6 C7 1.373 . S
C7 C6 1.373 . S
C7 C8 1.409 . S
C7 H34 0.931 . S
C8 C3 1.356 . S
C8 C7 1.409 . S
C8 H35 0.930 . S
C9 O22 1.270 . S
C9 O23 1.248 . S
C10 O24 1.267 . S
C10 O25 1.278 . S
C11 Pr1 2.880 . S
C11 C12 1.491 . S
C11 O26 1.254 . S
C11 O27 1.225 . S
C12 C11 1.491 . S
C12 C13 1.392 . S
C12 C17 1.356 . S
C13 C12 1.392 . S
C13 C14 1.368 . S
C13 H36 0.929 . S
C14 C13 1.368 . S
C14 C15 1.386 . S
C14 H37 0.929 . S
C15 C14 1.386 . S
C15 C16 1.373 . S
C16 C15 1.373 . S
C16 C17 1.409 . S
C16 H38 0.931 . S
C17 C12 1.356 . S
C17 C16 1.409 . S
C17 H39 0.930 . S
C18 O28 1.270 . S
C18 O29 1.248 . S
C19 O30 1.267 . S
C19 O31 1.278 . S
O20 Pr0 2.562 . S
O20 C2 1.254 . S
O21 Pr0 2.490 . S
O21 C2 1.225 . S
O22 Pr0 2.695 . S
O22 Pr1 2.436 . S
O22 C9 1.270 . S
O23 Pr0 2.512 . S
O23 C9 1.248 . S
O24 Pr1 2.438 . S
O24 C10 1.267 . S
O25 Pr0 2.437 . S
O25 C10 1.278 . S
O26 Pr1 2.562 . S
O26 C11 1.254 . S
O27 Pr1 2.490 . S
O27 C11 1.225 . S
O28 Pr0 2.436 . S
O28 Pr1 2.695 . S
O28 C18 1.270 . S
O29 Pr1 2.512 . S
O29 C18 1.248 . S
O30 Pr0 2.438 . S
O30 C19 1.267 . S
O31 Pr1 2.437 . S
O31 C19 1.278 . S
H32 C4 0.929 . S
H33 C5 0.929 . S
H34 C7 0.931 . S
H35 C8 0.930 . S
H36 C13 0.929 . S
H37 C14 0.929 . S
H38 C16 0.931 . S
H39 C17 0.930 . S
Pr40 C42 2.880 . S
Pr40 O60 2.562 . S
Pr40 O61 2.490 . S
Pr40 O62 2.695 . S
Pr40 O63 2.512 . S
Pr40 O65 2.437 . S
Pr40 O68 2.436 . S
Pr40 O70 2.438 . S
Pr41 C51 2.880 . S
Pr41 O62 2.436 . S
Pr41 O64 2.438 . S
Pr41 O66 2.562 . S
Pr41 O67 2.490 . S
Pr41 O68 2.695 . S
Pr41 O69 2.512 . S
Pr41 O71 2.437 . S
C42 Pr40 2.880 . S
C42 C43 1.491 . S
C42 O60 1.254 . S
C42 O61 1.225 . S
C43 C42 1.491 . S
C43 C44 1.392 . S
C43 C48 1.356 . S
C44 C43 1.392 . S
C44 C45 1.368 . S
C44 H72 0.929 . S
C45 C44 1.368 . S
C45 C46 1.386 . S
C45 H73 0.929 . S
C46 C45 1.386 . S
C46 C47 1.373 . S
C47 C46 1.373 . S
C47 C48 1.409 . S
C47 H74 0.931 . S
C48 C43 1.356 . S
C48 C47 1.409 . S
C48 H75 0.930 . S
C49 O62 1.270 . S
C49 O63 1.248 . S
C50 O64 1.267 . S
C50 O65 1.278 . S
C51 Pr41 2.880 . S
C51 C52 1.491 . S
C51 O66 1.254 . S
C51 O67 1.225 . S
C52 C51 1.491 . S
C52 C53 1.392 . S
C52 C57 1.356 . S
C53 C52 1.392 . S
C53 C54 1.368 . S
C53 H76 0.929 . S
C54 C53 1.368 . S
C54 C55 1.386 . S
C54 H77 0.929 . S
C55 C54 1.386 . S
C55 C56 1.373 . S
C56 C55 1.373 . S
C56 C57 1.409 . S
C56 H78 0.931 . S
C57 C52 1.356 . S
C57 C56 1.409 . S
C57 H79 0.930 . S
C58 O68 1.270 . S
C58 O69 1.248 . S
C59 O70 1.267 . S
C59 O71 1.278 . S
O60 Pr40 2.562 . S
O60 C42 1.254 . S
O61 Pr40 2.490 . S
O61 C42 1.225 . S
O62 Pr40 2.695 . S
O62 Pr41 2.436 . S
O62 C49 1.270 . S
O63 Pr40 2.512 . S
O63 C49 1.248 . S
O64 Pr41 2.438 . S
O64 C50 1.267 . S
O65 Pr40 2.437 . S
O65 C50 1.278 . S
O66 Pr41 2.562 . S
O66 C51 1.254 . S
O67 Pr41 2.490 . S
O67 C51 1.225 . S
O68 Pr40 2.436 . S
O68 Pr41 2.695 . S
O68 C58 1.270 . S
O69 Pr41 2.512 . S
O69 C58 1.248 . S
O70 Pr40 2.438 . S
O70 C59 1.267 . S
O71 Pr41 2.437 . S
O71 C59 1.278 . S
H72 C44 0.929 . S
H73 C45 0.929 . S
H74 C47 0.931 . S
H75 C48 0.930 . S
H76 C53 0.929 . S
H77 C54 0.929 . S
H78 C56 0.931 . S
H79 C57 0.930 . S
Pr80 C82 2.880 . S
Pr80 O100 2.562 . S
Pr80 O101 2.490 . S
Pr80 O102 2.695 . S
Pr80 O103 2.512 . S
Pr80 O105 2.437 . S
Pr80 O108 2.436 . S
Pr80 O110 2.438 . S
Pr81 C91 2.880 . S
Pr81 O102 2.436 . S
Pr81 O104 2.438 . S
Pr81 O106 2.562 . S
Pr81 O107 2.490 . S
Pr81 O108 2.695 . S
Pr81 O109 2.512 . S
Pr81 O111 2.437 . S
C82 Pr80 2.880 . S
C82 C83 1.491 . S
C82 O100 1.254 . S
C82 O101 1.225 . S
C83 C82 1.491 . S
C83 C84 1.392 . S
C83 C88 1.356 . S
C84 C83 1.392 . S
C84 C85 1.368 . S
C84 H112 0.929 . S
C85 C84 1.368 . S
C85 C86 1.386 . S
C85 H113 0.929 . S
C86 C85 1.386 . S
C86 C87 1.373 . S
C87 C86 1.373 . S
C87 C88 1.409 . S
C87 H114 0.931 . S
C88 C83 1.356 . S
C88 C87 1.409 . S
C88 H115 0.930 . S
C89 O102 1.270 . S
C89 O103 1.248 . S
C90 O104 1.267 . S
C90 O105 1.278 . S
C91 Pr81 2.880 . S
C91 C92 1.491 . S
C91 O106 1.254 . S
C91 O107 1.225 . S
C92 C91 1.491 . S
C92 C93 1.392 . S
C92 C97 1.356 . S
C93 C92 1.392 . S
C93 C94 1.368 . S
C93 H116 0.929 . S
C94 C93 1.368 . S
C94 C95 1.386 . S
C94 H117 0.929 . S
C95 C94 1.386 . S
C95 C96 1.373 . S
C96 C95 1.373 . S
C96 C97 1.409 . S
C96 H118 0.931 . S
C97 C92 1.356 . S
C97 C96 1.409 . S
C97 H119 0.930 . S
C98 O108 1.270 . S
C98 O109 1.248 . S
C99 O110 1.267 . S
C99 O111 1.278 . S
O100 Pr80 2.562 . S
O100 C82 1.254 . S
O101 Pr80 2.490 . S
O101 C82 1.225 . S
O102 Pr80 2.695 . S
O102 Pr81 2.436 . S
O102 C89 1.270 . S
O103 Pr80 2.512 . S
O103 C89 1.248 . S
O104 Pr81 2.438 . S
O104 C90 1.267 . S
O105 Pr80 2.437 . S
O105 C90 1.278 . S
O106 Pr81 2.562 . S
O106 C91 1.254 . S
O107 Pr81 2.490 . S
O107 C91 1.225 . S
O108 Pr80 2.436 . S
O108 Pr81 2.695 . S
O108 C98 1.270 . S
O109 Pr81 2.512 . S
O109 C98 1.248 . S
O110 Pr80 2.438 . S
O110 C99 1.267 . S
O111 Pr81 2.437 . S
O111 C99 1.278 . S
H112 C84 0.929 . S
H113 C85 0.929 . S
H114 C87 0.931 . S
H115 C88 0.930 . S
H116 C93 0.929 . S
H117 C94 0.929 . S
H118 C96 0.931 . S
H119 C97 0.930 . S
Pr120 C122 2.880 . S
Pr120 O140 2.562 . S
Pr120 O141 2.490 . S
Pr120 O142 2.695 . S
Pr120 O143 2.512 . S
Pr120 O145 2.437 . S
Pr120 O148 2.436 . S
Pr120 O150 2.438 . S
Pr121 C131 2.880 . S
Pr121 O142 2.436 . S
Pr121 O144 2.438 . S
Pr121 O146 2.562 . S
Pr121 O147 2.490 . S
Pr121 O148 2.695 . S
Pr121 O149 2.512 . S
Pr121 O151 2.437 . S
C122 Pr120 2.880 . S
C122 C123 1.491 . S
C122 O140 1.254 . S
C122 O141 1.225 . S
C123 C122 1.491 . S
C123 C124 1.392 . S
C123 C128 1.356 . S
C124 C123 1.392 . S
C124 C125 1.368 . S
C124 H152 0.929 . S
C125 C124 1.368 . S
C125 C126 1.386 . S
C125 H153 0.929 . S
C126 C125 1.386 . S
C126 C127 1.373 . S
C127 C126 1.373 . S
C127 C128 1.409 . S
C127 H154 0.931 . S
C128 C123 1.356 . S
C128 C127 1.409 . S
C128 H155 0.930 . S
C129 O142 1.270 . S
C129 O143 1.248 . S
C130 O144 1.267 . S
C130 O145 1.278 . S
C131 Pr121 2.880 . S
C131 C132 1.491 . S
C131 O146 1.254 . S
C131 O147 1.225 . S
C132 C131 1.491 . S
C132 C133 1.392 . S
C132 C137 1.356 . S
C133 C132 1.392 . S
C133 C134 1.368 . S
C133 H156 0.929 . S
C134 C133 1.368 . S
C134 C135 1.386 . S
C134 H157 0.929 . S
C135 C134 1.386 . S
C135 C136 1.373 . S
C136 C135 1.373 . S
C136 C137 1.409 . S
C136 H158 0.931 . S
C137 C132 1.356 . S
C137 C136 1.409 . S
C137 H159 0.930 . S
C138 O148 1.270 . S
C138 O149 1.248 . S
C139 O150 1.267 . S
C139 O151 1.278 . S
O140 Pr120 2.562 . S
O140 C122 1.254 . S
O141 Pr120 2.490 . S
O141 C122 1.225 . S
O142 Pr120 2.695 . S
O142 Pr121 2.436 . S
O142 C129 1.270 . S
O143 Pr120 2.512 . S
O143 C129 1.248 . S
O144 Pr121 2.438 . S
O144 C130 1.267 . S
O145 Pr120 2.437 . S
O145 C130 1.278 . S
O146 Pr121 2.562 . S
O146 C131 1.254 . S
O147 Pr121 2.490 . S
O147 C131 1.225 . S
O148 Pr120 2.436 . S
O148 Pr121 2.695 . S
O148 C138 1.270 . S
O149 Pr121 2.512 . S
O149 C138 1.248 . S
O150 Pr120 2.438 . S
O150 C139 1.267 . S
O151 Pr121 2.437 . S
O151 C139 1.278 . S
H152 C124 0.929 . S
H153 C125 0.929 . S
H154 C127 0.931 . S
H155 C128 0.930 . S
H156 C133 0.929 . S
H157 C134 0.929 . S
H158 C136 0.931 . S
H159 C137 0.930 . S
Pr160 C162 2.880 1_556 S
Pr160 O180 2.562 1_556 S
Pr160 O181 2.490 1_556 S
Pr160 O182 2.695 . S
Pr160 O183 2.512 . S
Pr160 O185 2.437 1_556 S
Pr160 O188 2.436 1_556 S
Pr160 O190 2.438 . S
Pr161 C171 2.880 1_554 S
Pr161 O182 2.436 1_554 S
Pr161 O184 2.438 . S
Pr161 O186 2.562 1_554 S
Pr161 O187 2.490 1_554 S
Pr161 O188 2.695 . S
Pr161 O189 2.512 . S
Pr161 O191 2.437 1_554 S
C162 Pr160 2.880 1_554 S
C162 C163 1.491 . S
C162 O180 1.254 . S
C162 O181 1.225 . S
C163 C162 1.491 . S
C163 C164 1.392 . S
C163 C168 1.356 . S
C164 C163 1.392 . S
C164 C165 1.368 . S
C164 H192 0.929 . S
C165 C164 1.368 . S
C165 C166 1.386 . S
C165 H193 0.929 . S
C166 C165 1.386 . S
C166 C167 1.373 . S
C167 C166 1.373 . S
C167 C168 1.409 . S
C167 H194 0.931 . S
C168 C163 1.356 . S
C168 C167 1.409 . S
C168 H195 0.930 . S
C169 O182 1.270 . S
C169 O183 1.248 . S
C170 O184 1.267 . S
C170 O185 1.278 . S
C171 Pr161 2.880 1_556 S
C171 C172 1.491 . S
C171 O186 1.254 . S
C171 O187 1.225 . S
C172 C171 1.491 . S
C172 C173 1.392 . S
C172 C177 1.356 . S
C173 C172 1.392 . S
C173 C174 1.368 . S
C173 H196 0.929 . S
C174 C173 1.368 . S
C174 C175 1.386 . S
C174 H197 0.929 . S
C175 C174 1.386 . S
C175 C176 1.373 . S
C176 C175 1.373 . S
C176 C177 1.409 . S
C176 H198 0.931 . S
C177 C172 1.356 . S
C177 C176 1.409 . S
C177 H199 0.930 . S
C178 O188 1.270 . S
C178 O189 1.248 . S
C179 O190 1.267 . S
C179 O191 1.278 . S
O180 Pr160 2.562 1_554 S
O180 C162 1.254 . S
O181 Pr160 2.490 1_554 S
O181 C162 1.225 . S
O182 Pr160 2.695 . S
O182 Pr161 2.436 1_556 S
O182 C169 1.270 . S
O183 Pr160 2.512 . S
O183 C169 1.248 . S
O184 Pr161 2.438 . S
O184 C170 1.267 . S
O185 Pr160 2.437 1_554 S
O185 C170 1.278 . S
O186 Pr161 2.562 1_556 S
O186 C171 1.254 . S
O187 Pr161 2.490 1_556 S
O187 C171 1.225 . S
O188 Pr160 2.436 1_554 S
O188 Pr161 2.695 . S
O188 C178 1.270 . S
O189 Pr161 2.512 . S
O189 C178 1.248 . S
O190 Pr160 2.438 . S
O190 C179 1.267 . S
O191 Pr161 2.437 1_556 S
O191 C179 1.278 . S
H192 C164 0.929 . S
H193 C165 0.929 . S
H194 C167 0.931 . S
H195 C168 0.930 . S
H196 C173 0.929 . S
H197 C174 0.929 . S
H198 C176 0.931 . S
H199 C177 0.930 . S
Pr200 C202 2.880 1_556 S
Pr200 O220 2.562 1_556 S
Pr200 O221 2.490 1_556 S
Pr200 O222 2.695 . S
Pr200 O223 2.512 . S
Pr200 O225 2.437 1_556 S
Pr200 O228 2.436 1_556 S
Pr200 O230 2.438 . S
Pr201 C211 2.880 1_554 S
Pr201 O222 2.436 1_554 S
Pr201 O224 2.438 . S
Pr201 O226 2.562 1_554 S
Pr201 O227 2.490 1_554 S
Pr201 O228 2.695 . S
Pr201 O229 2.512 . S
Pr201 O231 2.437 1_554 S
C202 Pr200 2.880 1_554 S
C202 C203 1.491 . S
C202 O220 1.254 . S
C202 O221 1.225 . S
C203 C202 1.491 . S
C203 C204 1.392 . S
C203 C208 1.356 . S
C204 C203 1.392 . S
C204 C205 1.368 . S
C204 H232 0.929 . S
C205 C204 1.368 . S
C205 C206 1.386 . S
C205 H233 0.929 . S
C206 C205 1.386 . S
C206 C207 1.373 . S
C207 C206 1.373 . S
C207 C208 1.409 . S
C207 H234 0.931 . S
C208 C203 1.356 . S
C208 C207 1.409 . S
C208 H235 0.930 . S
C209 O222 1.270 . S
C209 O223 1.248 . S
C210 O224 1.267 . S
C210 O225 1.278 . S
C211 Pr201 2.880 1_556 S
C211 C212 1.491 . S
C211 O226 1.254 . S
C211 O227 1.225 . S
C212 C211 1.491 . S
C212 C213 1.392 . S
C212 C217 1.356 . S
C213 C212 1.392 . S
C213 C214 1.368 . S
C213 H236 0.929 . S
C214 C213 1.368 . S
C214 C215 1.386 . S
C214 H237 0.929 . S
C215 C214 1.386 . S
C215 C216 1.373 . S
C216 C215 1.373 . S
C216 C217 1.409 . S
C216 H238 0.931 . S
C217 C212 1.356 . S
C217 C216 1.409 . S
C217 H239 0.930 . S
C218 O228 1.270 . S
C218 O229 1.248 . S
C219 O230 1.267 . S
C219 O231 1.278 . S
O220 Pr200 2.562 1_554 S
O220 C202 1.254 . S
O221 Pr200 2.490 1_554 S
O221 C202 1.225 . S
O222 Pr200 2.695 . S
O222 Pr201 2.436 1_556 S
O222 C209 1.270 . S
O223 Pr200 2.512 . S
O223 C209 1.248 . S
O224 Pr201 2.438 . S
O224 C210 1.267 . S
O225 Pr200 2.437 1_554 S
O225 C210 1.278 . S
O226 Pr201 2.562 1_556 S
O226 C211 1.254 . S
O227 Pr201 2.490 1_556 S
O227 C211 1.225 . S
O228 Pr200 2.436 1_554 S
O228 Pr201 2.695 . S
O228 C218 1.270 . S
O229 Pr201 2.512 . S
O229 C218 1.248 . S
O230 Pr200 2.438 . S
O230 C219 1.267 . S
O231 Pr201 2.437 1_556 S
O231 C219 1.278 . S
H232 C204 0.929 . S
H233 C205 0.929 . S
H234 C207 0.931 . S
H235 C208 0.930 . S
H236 C213 0.929 . S
H237 C214 0.929 . S
H238 C216 0.931 . S
H239 C217 0.930 . S
Pr240 C242 2.880 1_556 S
Pr240 O260 2.562 1_556 S
Pr240 O261 2.490 1_556 S
Pr240 O262 2.695 . S
Pr240 O263 2.512 . S
Pr240 O265 2.437 1_556 S
Pr240 O268 2.436 1_556 S
Pr240 O270 2.438 . S
Pr241 C251 2.880 1_554 S
Pr241 O262 2.436 1_554 S
Pr241 O264 2.438 . S
Pr241 O266 2.562 1_554 S
Pr241 O267 2.490 1_554 S
Pr241 O268 2.695 . S
Pr241 O269 2.512 . S
Pr241 O271 2.437 1_554 S
C242 Pr240 2.880 1_554 S
C242 C243 1.491 . S
C242 O260 1.254 . S
C242 O261 1.225 . S
C243 C242 1.491 . S
C243 C244 1.392 . S
C243 C248 1.356 . S
C244 C243 1.392 . S
C244 C245 1.368 . S
C244 H272 0.929 . S
C245 C244 1.368 . S
C245 C246 1.386 . S
C245 H273 0.929 . S
C246 C245 1.386 . S
C246 C247 1.373 . S
C247 C246 1.373 . S
C247 C248 1.409 . S
C247 H274 0.931 . S
C248 C243 1.356 . S
C248 C247 1.409 . S
C248 H275 0.930 . S
C249 O262 1.270 . S
C249 O263 1.248 . S
C250 O264 1.267 . S
C250 O265 1.278 . S
C251 Pr241 2.880 1_556 S
C251 C252 1.491 . S
C251 O266 1.254 . S
C251 O267 1.225 . S
C252 C251 1.491 . S
C252 C253 1.392 . S
C252 C257 1.356 . S
C253 C252 1.392 . S
C253 C254 1.368 . S
C253 H276 0.929 . S
C254 C253 1.368 . S
C254 C255 1.386 . S
C254 H277 0.929 . S
C255 C254 1.386 . S
C255 C256 1.373 . S
C256 C255 1.373 . S
C256 C257 1.409 . S
C256 H278 0.931 . S
C257 C252 1.356 . S
C257 C256 1.409 . S
C257 H279 0.930 . S
C258 O268 1.270 . S
C258 O269 1.248 . S
C259 O270 1.267 . S
C259 O271 1.278 . S
O260 Pr240 2.562 1_554 S
O260 C242 1.254 . S
O261 Pr240 2.490 1_554 S
O261 C242 1.225 . S
O262 Pr240 2.695 . S
O262 Pr241 2.436 1_556 S
O262 C249 1.270 . S
O263 Pr240 2.512 . S
O263 C249 1.248 . S
O264 Pr241 2.438 . S
O264 C250 1.267 . S
O265 Pr240 2.437 1_554 S
O265 C250 1.278 . S
O266 Pr241 2.562 1_556 S
O266 C251 1.254 . S
O267 Pr241 2.490 1_556 S
O267 C251 1.225 . S
O268 Pr240 2.436 1_554 S
O268 Pr241 2.695 . S
O268 C258 1.270 . S
O269 Pr241 2.512 . S
O269 C258 1.248 . S
O270 Pr240 2.438 . S
O270 C259 1.267 . S
O271 Pr241 2.437 1_556 S
O271 C259 1.278 . S
H272 C244 0.929 . S
H273 C245 0.929 . S
H274 C247 0.931 . S
H275 C248 0.930 . S
H276 C253 0.929 . S
H277 C254 0.929 . S
H278 C256 0.931 . S
H279 C257 0.930 . S
Pr280 C282 2.880 1_556 S
Pr280 O300 2.562 1_556 S
Pr280 O301 2.490 1_556 S
Pr280 O302 2.695 . S
Pr280 O303 2.512 . S
Pr280 O305 2.437 1_556 S
Pr280 O308 2.436 1_556 S
Pr280 O310 2.438 . S
Pr281 C291 2.880 1_554 S
Pr281 O302 2.436 1_554 S
Pr281 O304 2.438 . S
Pr281 O306 2.562 1_554 S
Pr281 O307 2.490 1_554 S
Pr281 O308 2.695 . S
Pr281 O309 2.512 . S
Pr281 O311 2.437 1_554 S
C282 Pr280 2.880 1_554 S
C282 C283 1.491 . S
C282 O300 1.254 . S
C282 O301 1.225 . S
C283 C282 1.491 . S
C283 C284 1.392 . S
C283 C288 1.356 . S
C284 C283 1.392 . S
C284 C285 1.368 . S
C284 H312 0.929 . S
C285 C284 1.368 . S
C285 C286 1.386 . S
C285 H313 0.929 . S
C286 C285 1.386 . S
C286 C287 1.373 . S
C287 C286 1.373 . S
C287 C288 1.409 . S
C287 H314 0.931 . S
C288 C283 1.356 . S
C288 C287 1.409 . S
C288 H315 0.930 . S
C289 O302 1.270 . S
C289 O303 1.248 . S
C290 O304 1.267 . S
C290 O305 1.278 . S
C291 Pr281 2.880 1_556 S
C291 C292 1.491 . S
C291 O306 1.254 . S
C291 O307 1.225 . S
C292 C291 1.491 . S
C292 C293 1.392 . S
C292 C297 1.356 . S
C293 C292 1.392 . S
C293 C294 1.368 . S
C293 H316 0.929 . S
C294 C293 1.368 . S
C294 C295 1.386 . S
C294 H317 0.929 . S
C295 C294 1.386 . S
C295 C296 1.373 . S
C296 C295 1.373 . S
C296 C297 1.409 . S
C296 H318 0.931 . S
C297 C292 1.356 . S
C297 C296 1.409 . S
C297 H319 0.930 . S
C298 O308 1.270 . S
C298 O309 1.248 . S
C299 O310 1.267 . S
C299 O311 1.278 . S
O300 Pr280 2.562 1_554 S
O300 C282 1.254 . S
O301 Pr280 2.490 1_554 S
O301 C282 1.225 . S
O302 Pr280 2.695 . S
O302 Pr281 2.436 1_556 S
O302 C289 1.270 . S
O303 Pr280 2.512 . S
O303 C289 1.248 . S
O304 Pr281 2.438 . S
O304 C290 1.267 . S
O305 Pr280 2.437 1_554 S
O305 C290 1.278 . S
O306 Pr281 2.562 1_556 S
O306 C291 1.254 . S
O307 Pr281 2.490 1_556 S
O307 C291 1.225 . S
O308 Pr280 2.436 1_554 S
O308 Pr281 2.695 . S
O308 C298 1.270 . S
O309 Pr281 2.512 . S
O309 C298 1.248 . S
O310 Pr280 2.438 . S
O310 C299 1.267 . S
O311 Pr281 2.437 1_556 S
O311 C299 1.278 . S
H312 C284 0.929 . S
H313 C285 0.929 . S
H314 C287 0.931 . S
H315 C288 0.930 . S
H316 C293 0.929 . S
H317 C294 0.929 . S
H318 C296 0.931 . S
H319 C297 0.930 . S
H320 C328 0.929 . S
H321 C330 0.930 . S
H322 C332 0.930 . S
H323 C335 0.929 . S
H324 C338 0.930 . S
H325 C340 0.960 . S
H326 C340 0.960 . S
H327 C340 0.960 . S
C328 H320 0.929 . S
C328 C329 1.377 . S
C328 C330 1.384 . S
C329 C328 1.377 . S
C329 C335 1.390 . S
C330 H321 0.930 . S
C330 C328 1.384 . S
C330 C331 1.372 . S
C331 C330 1.372 . S
C331 C332 1.400 . S
C331 C336 1.490 . S
C332 H322 0.930 . S
C332 C331 1.400 . S
C332 C335 1.386 . S
H333 C349 0.930 . S
H334 C350 0.931 . S
C335 H323 0.929 . S
C335 C329 1.390 . S
C335 C332 1.386 . S
C336 C331 1.490 . S
C336 C338 1.395 . S
C336 C339 1.403 . S
H337 C343 0.930 . S
C338 H324 0.930 . S
C338 C336 1.395 . S
C338 C341 1.403 . S
C339 C336 1.403 . S
C339 C340 1.524 . S
C339 C343 1.400 . S
C340 H325 0.960 . S
C340 H326 0.960 . S
C340 H327 0.960 . S
C340 C339 1.524 . S
C341 C338 1.403 . S
C341 C342 1.392 . S
C341 C345 1.495 . S
C342 C341 1.392 . S
C342 C343 1.385 . S
C342 C344 1.478 . S
C343 H337 0.930 . S
C343 C339 1.400 . S
C343 C342 1.385 . S
C344 C342 1.478 . S
C344 C346 1.381 . S
C344 C350 1.383 . S
C345 C341 1.495 . S
C345 H351 0.959 . S
C345 H352 0.961 . S
C345 H353 0.960 . S
C346 C344 1.381 . S
C346 C347 1.394 . S
C346 H354 0.930 . S
C347 C346 1.394 . S
C347 C348 1.383 . S
C347 H355 0.929 . S
C348 C347 1.383 . S
C348 C349 1.377 . S
C349 H333 0.930 . S
C349 C348 1.377 . S
C349 C350 1.379 . S
C350 H334 0.931 . S
C350 C344 1.383 . S
C350 C349 1.379 . S
H351 C345 0.959 . S
H352 C345 0.961 . S
H353 C345 0.960 . S
H354 C346 0.930 . S
H355 C347 0.929 . S
H356 C364 0.929 . S
H357 C366 0.930 . S
H358 C368 0.930 . S
H359 C371 0.929 . S
H360 C374 0.930 . S
H361 C376 0.960 . S
H362 C376 0.960 . S
H363 C376 0.960 . S
C364 H356 0.929 . S
C364 C365 1.377 . S
C364 C366 1.384 . S
C365 C364 1.377 . S
C365 C371 1.390 . S
C366 H357 0.930 . S
C366 C364 1.384 . S
C366 C367 1.372 . S
C367 C366 1.372 . S
C367 C368 1.400 . S
C367 C372 1.490 . S
C368 H358 0.930 . S
C368 C367 1.400 . S
C368 C371 1.386 . S
H369 C385 0.930 . S
H370 C386 0.931 . S
C371 H359 0.929 . S
C371 C365 1.390 . S
C371 C368 1.386 . S
C372 C367 1.490 . S
C372 C374 1.395 . S
C372 C375 1.403 . S
H373 C379 0.930 . S
C374 H360 0.930 . S
C374 C372 1.395 . S
C374 C377 1.403 . S
C375 C372 1.403 . S
C375 C376 1.524 . S
C375 C379 1.400 . S
C376 H361 0.960 . S
C376 H362 0.960 . S
C376 H363 0.960 . S
C376 C375 1.524 . S
C377 C374 1.403 . S
C377 C378 1.392 . S
C377 C381 1.495 . S
C378 C377 1.392 . S
C378 C379 1.385 . S
C378 C380 1.478 . S
C379 H373 0.930 . S
C379 C375 1.400 . S
C379 C378 1.385 . S
C380 C378 1.478 . S
C380 C382 1.381 . S
C380 C386 1.383 . S
C381 C377 1.495 . S
C381 H387 0.959 . S
C381 H388 0.961 . S
C381 H389 0.960 . S
C382 C380 1.381 . S
C382 C383 1.394 . S
C382 H390 0.930 . S
C383 C382 1.394 . S
C383 C384 1.383 . S
C383 H391 0.929 . S
C384 C383 1.383 . S
C384 C385 1.377 . S
C385 H369 0.930 . S
C385 C384 1.377 . S
C385 C386 1.379 . S
C386 H370 0.931 . S
C386 C380 1.383 . S
C386 C385 1.379 . S
H387 C381 0.959 . S
H388 C381 0.961 . S
H389 C381 0.960 . S
H390 C382 0.930 . S
H391 C383 0.929 . S
H392 C400 0.929 . S
H393 C402 0.930 . S
H394 C404 0.930 . S
H395 C407 0.929 . S
H396 C410 0.930 . S
H397 C412 0.960 . S
H398 C412 0.960 . S
H399 C412 0.960 . S
C400 H392 0.929 . S
C400 C401 1.377 . S
C400 C402 1.384 . S
C401 C400 1.377 . S
C401 C407 1.390 . S
C402 H393 0.930 . S
C402 C400 1.384 . S
C402 C403 1.372 . S
C403 C402 1.372 . S
C403 C404 1.400 . S
C403 C408 1.490 . S
C404 H394 0.930 . S
C404 C403 1.400 . S
C404 C407 1.386 . S
H405 C421 0.930 . S
H406 C422 0.931 . S
C407 H395 0.929 . S
C407 C401 1.390 . S
C407 C404 1.386 . S
C408 C403 1.490 . S
C408 C410 1.395 . S
C408 C411 1.403 . S
H409 C415 0.930 . S
C410 H396 0.930 . S
C410 C408 1.395 . S
C410 C413 1.403 . S
C411 C408 1.403 . S
C411 C412 1.524 . S
C411 C415 1.400 . S
C412 H397 0.960 . S
C412 H398 0.960 . S
C412 H399 0.960 . S
C412 C411 1.524 . S
C413 C410 1.403 . S
C413 C414 1.392 . S
C413 C417 1.495 . S
C414 C413 1.392 . S
C414 C415 1.385 . S
C414 C416 1.478 . S
C415 H409 0.930 . S
C415 C411 1.400 . S
C415 C414 1.385 . S
C416 C414 1.478 . S
C416 C418 1.381 . S
C416 C422 1.383 . S
C417 C413 1.495 . S
C417 H423 0.959 . S
C417 H424 0.961 . S
C417 H425 0.960 . S
C418 C416 1.381 . S
C418 C419 1.394 . S
C418 H426 0.930 . S
C419 C418 1.394 . S
C419 C420 1.383 . S
C419 H427 0.929 . S
C420 C419 1.383 . S
C420 C421 1.377 . S
C421 H405 0.930 . S
C421 C420 1.377 . S
C421 C422 1.379 . S
C422 H406 0.931 . S
C422 C416 1.383 . S
C422 C421 1.379 . S
H423 C417 0.959 . S
H424 C417 0.961 . S
H425 C417 0.960 . S
H426 C418 0.930 . S
H427 C419 0.929 . S
H428 C436 0.929 . S
H429 C438 0.930 . S
H430 C440 0.930 . S
H431 C443 0.929 . S
H432 C446 0.930 . S
H433 C448 0.960 . S
H434 C448 0.960 . S
H435 C448 0.960 . S
C436 H428 0.929 . S
C436 C437 1.377 . S
C436 C438 1.384 . S
C437 C436 1.377 . S
C437 C443 1.390 . S
C438 H429 0.930 . S
C438 C436 1.384 . S
C438 C439 1.372 . S
C439 C438 1.372 . S
C439 C440 1.400 . S
C439 C444 1.490 . S
C440 H430 0.930 . S
C440 C439 1.400 . S
C440 C443 1.386 . S
H441 C457 0.930 . S
H442 C458 0.931 . S
C443 H431 0.929 . S
C443 C437 1.390 . S
C443 C440 1.386 . S
C444 C439 1.490 . S
C444 C446 1.395 . S
C444 C447 1.403 . S
H445 C451 0.930 . S
C446 H432 0.930 . S
C446 C444 1.395 . S
C446 C449 1.403 . S
C447 C444 1.403 . S
C447 C448 1.524 . S
C447 C451 1.400 . S
C448 H433 0.960 . S
C448 H434 0.960 . S
C448 H435 0.960 . S
C448 C447 1.524 . S
C449 C446 1.403 . S
C449 C450 1.392 . S
C449 C453 1.495 . S
C450 C449 1.392 . S
C450 C451 1.385 . S
C450 C452 1.478 . S
C451 H445 0.930 . S
C451 C447 1.400 . S
C451 C450 1.385 . S
C452 C450 1.478 . S
C452 C454 1.381 . S
C452 C458 1.383 . S
C453 C449 1.495 . S
C453 H459 0.959 . S
C453 H460 0.961 . S
C453 H461 0.960 . S
C454 C452 1.381 . S
C454 C455 1.394 . S
C454 H462 0.930 . S
C455 C454 1.394 . S
C455 C456 1.383 . S
C455 H463 0.929 . S
C456 C455 1.383 . S
C456 C457 1.377 . S
C457 H441 0.930 . S
C457 C456 1.377 . S
C457 C458 1.379 . S
C458 H442 0.931 . S
C458 C452 1.383 . S
C458 C457 1.379 . S
H459 C453 0.959 . S
H460 C453 0.961 . S
H461 C453 0.960 . S
H462 C454 0.930 . S
H463 C455 0.929 . S
H464 C472 0.929 . S
H465 C474 0.930 . S
H466 C476 0.930 . S
H467 C479 0.929 . S
H468 C482 0.930 . S
H469 C484 0.960 . S
H470 C484 0.960 . S
H471 C484 0.960 . S
C472 H464 0.929 . S
C472 C473 1.377 . S
C472 C474 1.384 . S
C473 C472 1.377 . S
C473 C479 1.390 . S
C474 H465 0.930 . S
C474 C472 1.384 . S
C474 C475 1.372 . S
C475 C474 1.372 . S
C475 C476 1.400 . S
C475 C480 1.490 . S
C476 H466 0.930 . S
C476 C475 1.400 . S
C476 C479 1.386 . S
H477 C493 0.930 . S
H478 C494 0.931 . S
C479 H467 0.929 . S
C479 C473 1.390 . S
C479 C476 1.386 . S
C480 C475 1.490 . S
C480 C482 1.395 . S
C480 C483 1.403 . S
H481 C487 0.930 . S
C482 H468 0.930 . S
C482 C480 1.395 . S
C482 C485 1.403 1_565 S
C483 C480 1.403 . S
C483 C484 1.524 . S
C483 C487 1.400 1_565 S
C484 H469 0.960 . S
C484 H470 0.960 . S
C484 H471 0.960 . S
C484 C483 1.524 . S
C485 C482 1.403 1_545 S
C485 C486 1.392 . S
C485 C489 1.495 . S
C486 C485 1.392 . S
C486 C487 1.385 . S
C486 C488 1.478 . S
C487 H481 0.930 . S
C487 C483 1.400 1_545 S
C487 C486 1.385 . S
C488 C486 1.478 . S
C488 C490 1.381 . S
C488 C494 1.383 . S
C489 C485 1.495 . S
C489 H495 0.959 . S
C489 H496 0.961 . S
C489 H497 0.960 . S
C490 C488 1.381 . S
C490 C491 1.394 . S
C490 H498 0.930 . S
C491 C490 1.394 . S
C491 C492 1.383 . S
C491 H499 0.929 . S
C492 C491 1.383 . S
C492 C493 1.377 . S
C493 H477 0.930 . S
C493 C492 1.377 . S
C493 C494 1.379 . S
C494 H478 0.931 . S
C494 C488 1.383 . S
C494 C493 1.379 . S
H495 C489 0.959 . S
H496 C489 0.961 . S
H497 C489 0.960 . S
H498 C490 0.930 . S
H499 C491 0.929 . S
H500 C508 0.929 . S
H501 C510 0.930 . S
H502 C512 0.930 . S
H503 C515 0.929 . S
H504 C518 0.930 . S
H505 C520 0.960 . S
H506 C520 0.960 . S
H507 C520 0.960 . S
C508 H500 0.929 . S
C508 C509 1.377 . S
C508 C510 1.384 . S
C509 C508 1.377 . S
C509 C515 1.390 . S
C510 H501 0.930 . S
C510 C508 1.384 . S
C510 C511 1.372 . S
C511 C510 1.372 . S
C511 C512 1.400 . S
C511 C516 1.490 . S
C512 H502 0.930 . S
C512 C511 1.400 . S
C512 C515 1.386 . S
H513 C529 0.930 . S
H514 C530 0.931 . S
C515 H503 0.929 . S
C515 C509 1.390 . S
C515 C512 1.386 . S
C516 C511 1.490 . S
C516 C518 1.395 . S
C516 C519 1.403 . S
H517 C523 0.930 . S
C518 H504 0.930 . S
C518 C516 1.395 . S
C518 C521 1.403 . S
C519 C516 1.403 . S
C519 C520 1.524 . S
C519 C523 1.400 . S
C520 H505 0.960 . S
C520 H506 0.960 . S
C520 H507 0.960 . S
C520 C519 1.524 . S
C521 C518 1.403 . S
C521 C522 1.392 . S
C521 C525 1.495 . S
C522 C521 1.392 . S
C522 C523 1.385 . S
C522 C524 1.478 . S
C523 H517 0.930 . S
C523 C519 1.400 . S
C523 C522 1.385 . S
C524 C522 1.478 . S
C524 C526 1.381 . S
C524 C530 1.383 . S
C525 C521 1.495 . S
C525 H531 0.959 . S
C525 H532 0.961 . S
C525 H533 0.960 . S
C526 C524 1.381 . S
C526 C527 1.394 . S
C526 H534 0.930 . S
C527 C526 1.394 . S
C527 C528 1.383 . S
C527 H535 0.929 . S
C528 C527 1.383 . S
C528 C529 1.377 . S
C529 H513 0.930 . S
C529 C528 1.377 . S
C529 C530 1.379 . S
C530 H514 0.931 . S
C530 C524 1.383 . S
C530 C529 1.379 . S
H531 C525 0.959 . S
H532 C525 0.961 . S
H533 C525 0.960 . S
H534 C526 0.930 . S
H535 C527 0.929 . S
H536 C544 0.929 . S
H537 C546 0.930 . S
H538 C548 0.930 . S
H539 C551 0.929 . S
H540 C554 0.930 . S
H541 C556 0.960 . S
H542 C556 0.960 . S
H543 C556 0.960 . S
C544 H536 0.929 . S
C544 C545 1.377 . S
C544 C546 1.384 . S
C545 C544 1.377 . S
C545 C551 1.390 . S
C546 H537 0.930 . S
C546 C544 1.384 . S
C546 C547 1.372 . S
C547 C546 1.372 . S
C547 C548 1.400 . S
C547 C552 1.490 . S
C548 H538 0.930 . S
C548 C547 1.400 . S
C548 C551 1.386 . S
H549 C565 0.930 . S
H550 C566 0.931 . S
C551 H539 0.929 . S
C551 C545 1.390 . S
C551 C548 1.386 . S
C552 C547 1.490 . S
C552 C554 1.395 . S
C552 C555 1.403 . S
H553 C559 0.930 . S
C554 H540 0.930 . S
C554 C552 1.395 . S
C554 C557 1.403 1_565 S
C555 C552 1.403 . S
C555 C556 1.524 . S
C555 C559 1.400 1_565 S
C556 H541 0.960 . S
C556 H542 0.960 . S
C556 H543 0.960 . S
C556 C555 1.524 . S
C557 C554 1.403 1_545 S
C557 C558 1.392 . S
C557 C561 1.495 . S
C558 C557 1.392 . S
C558 C559 1.385 . S
C558 C560 1.478 . S
C559 H553 0.930 . S
C559 C555 1.400 1_545 S
C559 C558 1.385 . S
C560 C558 1.478 . S
C560 C562 1.381 . S
C560 C566 1.383 . S
C561 C557 1.495 . S
C561 H567 0.959 . S
C561 H568 0.961 . S
C561 H569 0.960 . S
C562 C560 1.381 . S
C562 C563 1.394 . S
C562 H570 0.930 . S
C563 C562 1.394 . S
C563 C564 1.383 . S
C563 H571 0.929 . S
C564 C563 1.383 . S
C564 C565 1.377 . S
C565 H549 0.930 . S
C565 C564 1.377 . S
C565 C566 1.379 . S
C566 H550 0.931 . S
C566 C560 1.383 . S
C566 C565 1.379 . S
H567 C561 0.959 . S
H568 C561 0.961 . S
H569 C561 0.960 . S
H570 C562 0.930 . S
H571 C563 0.929 . S
H572 C580 0.929 . S
H573 C582 0.930 . S
H574 C584 0.930 . S
H575 C587 0.929 . S
H576 C590 0.930 . S
H577 C592 0.960 . S
H578 C592 0.960 . S
H579 C592 0.960 . S
C580 H572 0.929 . S
C580 C581 1.377 . S
C580 C582 1.384 . S
C581 C580 1.377 . S
C581 C587 1.390 . S
C582 H573 0.930 . S
C582 C580 1.384 . S
C582 C583 1.372 . S
C583 C582 1.372 . S
C583 C584 1.400 . S
C583 C588 1.490 . S
C584 H574 0.930 . S
C584 C583 1.400 . S
C584 C587 1.386 . S
H585 C601 0.930 . S
H586 C602 0.931 . S
C587 H575 0.929 . S
C587 C581 1.390 . S
C587 C584 1.386 . S
C588 C583 1.490 . S
C588 C590 1.395 . S
C588 C591 1.403 . S
H589 C595 0.930 . S
C590 H576 0.930 . S
C590 C588 1.395 . S
C590 C593 1.403 . S
C591 C588 1.403 . S
C591 C592 1.524 . S
C591 C595 1.400 . S
C592 H577 0.960 . S
C592 H578 0.960 . S
C592 H579 0.960 . S
C592 C591 1.524 . S
C593 C590 1.403 . S
C593 C594 1.392 . S
C593 C597 1.495 . S
C594 C593 1.392 . S
C594 C595 1.385 . S
C594 C596 1.478 . S
C595 H589 0.930 . S
C595 C591 1.400 . S
C595 C594 1.385 . S
C596 C594 1.478 . S
C596 C598 1.381 . S
C596 C602 1.383 . S
C597 C593 1.495 . S
C597 H603 0.959 . S
C597 H604 0.961 . S
C597 H605 0.960 . S
C598 C596 1.381 . S
C598 C599 1.394 . S
C598 H606 0.930 . S
C599 C598 1.394 . S
C599 C600 1.383 . S
C599 H607 0.929 . S
C600 C599 1.383 . S
C600 C601 1.377 . S
C601 H585 0.930 . S
C601 C600 1.377 . S
C601 C602 1.379 . S
C602 H586 0.931 . S
C602 C596 1.383 . S
C602 C601 1.379 . S
H603 C597 0.959 . S
H604 C597 0.961 . S
H605 C597 0.960 . S
H606 C598 0.930 . S
H607 C599 0.929 . S
H608 C616 0.929 1_554 S
H609 C618 0.930 . S
H610 C620 0.930 . S
H611 C623 0.929 . S
H612 C626 0.930 . S
H613 C628 0.960 . S
H614 C628 0.960 . S
H615 C628 0.960 . S
C616 H608 0.929 1_556 S
C616 C617 1.378 . S
C616 C618 1.384 . S
C617 C616 1.378 . S
C617 C623 1.390 . S
C618 H609 0.930 . S
C618 C616 1.384 . S
C618 C619 1.372 . S
C619 C618 1.372 . S
C619 C620 1.400 . S
C619 C624 1.490 . S
C620 H610 0.930 . S
C620 C619 1.400 . S
C620 C623 1.386 . S
H621 C637 0.930 . S
H622 C638 0.931 . S
C623 H611 0.929 . S
C623 C617 1.390 . S
C623 C620 1.386 . S
C624 C619 1.490 . S
C624 C626 1.395 . S
C624 C627 1.403 1_556 S
H625 C631 0.930 . S
C626 H612 0.930 . S
C626 C624 1.395 . S
C626 C629 1.403 . S
C627 C624 1.403 1_554 S
C627 C628 1.524 . S
C627 C631 1.400 . S
C628 H613 0.960 . S
C628 H614 0.960 . S
C628 H615 0.960 . S
C628 C627 1.524 . S
C629 C626 1.403 . S
C629 C630 1.392 . S
C629 C633 1.495 . S
C630 C629 1.392 . S
C630 C631 1.385 1_556 S
C630 C632 1.478 . S
C631 H625 0.930 . S
C631 C627 1.400 . S
C631 C630 1.385 1_554 S
C632 C630 1.478 . S
C632 C634 1.381 . S
C632 C638 1.383 . S
C633 C629 1.495 . S
C633 H639 0.959 . S
C633 H640 0.961 . S
C633 H641 0.960 . S
C634 C632 1.381 . S
C634 C635 1.394 . S
C634 H642 0.930 . S
C635 C634 1.394 . S
C635 C636 1.383 . S
C635 H643 0.929 1_556 S
C636 C635 1.383 . S
C636 C637 1.377 . S
C637 H621 0.930 . S
C637 C636 1.377 . S
C637 C638 1.379 . S
C638 H622 0.931 . S
C638 C632 1.383 . S
C638 C637 1.379 . S
H639 C633 0.959 . S
H640 C633 0.961 . S
H641 C633 0.960 . S
H642 C634 0.930 . S
H643 C635 0.929 1_554 S
H644 C652 0.929 . S
H645 C654 0.930 . S
H646 C656 0.930 . S
H647 C659 0.929 . S
H648 C662 0.930 . S
H649 C664 0.960 . S
H650 C664 0.960 . S
H651 C664 0.960 . S
C652 H644 0.929 . S
C652 C653 1.377 1_554 S
C652 C654 1.384 . S
C653 C652 1.377 1_556 S
C653 C659 1.390 . S
C654 H645 0.930 . S
C654 C652 1.384 . S
C654 C655 1.377 . S
C655 C654 1.377 . S
C655 C656 1.394 1_554 S
C655 C660 1.490 . S
C656 H646 0.930 . S
C656 C655 1.394 1_556 S
C656 C659 1.386 . S
H657 C673 0.930 . S
H658 C674 0.931 . S
C659 H647 0.929 . S
C659 C653 1.390 . S
C659 C656 1.386 . S
C660 C655 1.490 . S
C660 C662 1.395 . S
C660 C663 1.403 1_554 S
H661 C667 0.930 . S
C662 H648 0.930 . S
C662 C660 1.395 . S
C662 C665 1.403 1_565 S
C663 C660 1.403 1_556 S
C663 C664 1.524 . S
C663 C667 1.400 1_565 S
C664 H649 0.960 . S
C664 H650 0.960 . S
C664 H651 0.960 . S
C664 C663 1.524 . S
C665 C662 1.403 1_545 S
C665 C666 1.392 . S
C665 C669 1.495 . S
C666 C665 1.392 . S
C666 C667 1.385 1_554 S
C666 C668 1.478 . S
C667 H661 0.930 . S
C667 C663 1.400 1_545 S
C667 C666 1.385 1_556 S
C668 C666 1.478 . S
C668 C670 1.381 . S
C668 C674 1.383 1_554 S
C669 C665 1.495 . S
C669 H675 0.959 . S
C669 H676 0.961 . S
C669 H677 0.960 . S
C670 C668 1.381 . S
C670 C671 1.394 . S
C670 H678 0.930 . S
C671 C670 1.394 . S
C671 C672 1.375 1_554 S
C671 H679 0.929 . S
C672 C671 1.375 1_556 S
C672 C673 1.384 . S
C673 H657 0.930 . S
C673 C672 1.384 . S
C673 C674 1.379 . S
C674 H658 0.931 . S
C674 C668 1.383 1_556 S
C674 C673 1.379 . S
H675 C669 0.959 . S
H676 C669 0.961 . S
H677 C669 0.960 . S
H678 C670 0.930 . S
H679 C671 0.929 . S
H680 C688 0.929 . S
H681 C690 0.930 . S
H682 C692 0.930 . S
H683 C695 0.929 . S
H684 C698 0.930 . S
H685 C700 0.960 . S
H686 C700 0.960 . S
H687 C700 0.960 . S
C688 H680 0.929 . S
C688 C689 1.377 1_556 S
C688 C690 1.384 . S
C689 C688 1.377 1_554 S
C689 C695 1.390 . S
C690 H681 0.930 . S
C690 C688 1.384 . S
C690 C691 1.368 1_556 S
C691 C690 1.368 1_554 S
C691 C692 1.403 . S
C691 C696 1.490 1_554 S
C692 H682 0.930 . S
C692 C691 1.403 . S
C692 C695 1.386 . S
H693 C709 0.930 . S
H694 C710 0.931 . S
C695 H683 0.929 . S
C695 C689 1.390 . S
C695 C692 1.386 . S
C696 C691 1.490 1_556 S
C696 C698 1.395 . S
C696 C699 1.403 1_556 S
H697 C703 0.930 . S
C698 H684 0.930 . S
C698 C696 1.395 . S
C698 C701 1.403 . S
C699 C696 1.403 1_554 S
C699 C700 1.524 . S
C699 C703 1.400 . S
C700 H685 0.960 . S
C700 H686 0.960 . S
C700 H687 0.960 . S
C700 C699 1.524 . S
C701 C698 1.403 . S
C701 C702 1.392 . S
C701 C705 1.495 . S
C702 C701 1.392 . S
C702 C703 1.385 1_556 S
C702 C704 1.478 . S
C703 H697 0.930 . S
C703 C699 1.400 . S
C703 C702 1.385 1_554 S
C704 C702 1.478 . S
C704 C706 1.381 . S
C704 C710 1.383 1_556 S
C705 C701 1.495 . S
C705 H711 0.959 . S
C705 H712 0.961 . S
C705 H713 0.960 . S
C706 C704 1.381 . S
C706 C707 1.394 . S
C706 H714 0.930 . S
C707 C706 1.394 . S
C707 C708 1.396 . S
C707 H715 0.929 . S
C708 C707 1.396 . S
C708 C709 1.365 1_556 S
C709 H693 0.930 . S
C709 C708 1.365 1_554 S
C709 C710 1.379 . S
C710 H694 0.931 . S
C710 C704 1.383 1_554 S
C710 C709 1.379 . S
H711 C705 0.959 . S
H712 C705 0.961 . S
H713 C705 0.960 . S
H714 C706 0.930 . S
H715 C707 0.929 . S
H716 C724 0.929 . S
H717 C726 0.930 . S
H718 C728 0.930 . S
H719 C731 0.929 . S
H720 C734 0.930 . S
H721 C736 0.960 . S
H722 C736 0.960 . S
H723 C736 0.960 . S
C724 H716 0.929 . S
C724 C725 1.377 . S
C724 C726 1.384 . S
C725 C724 1.377 . S
C725 C731 1.390 1_554 S
C726 H717 0.930 . S
C726 C724 1.384 . S
C726 C727 1.372 . S
C727 C726 1.372 . S
C727 C728 1.400 1_554 S
C727 C732 1.490 . S
C728 H718 0.930 . S
C728 C727 1.400 1_556 S
C728 C731 1.386 . S
H729 C745 0.930 . S
H730 C746 0.931 . S
C731 H719 0.929 . S
C731 C725 1.390 1_556 S
C731 C728 1.386 . S
C732 C727 1.490 . S
C732 C734 1.395 1_554 S
C732 C735 1.403 . S
H733 C739 0.930 . S
C734 H720 0.930 . S
C734 C732 1.395 1_556 S
C734 C737 1.403 1_545 S
C735 C732 1.403 . S
C735 C736 1.524 . S
C735 C739 1.400 1_545 S
C736 H721 0.960 . S
C736 H722 0.960 . S
C736 H723 0.960 . S
C736 C735 1.524 . S
C737 C734 1.403 1_565 S
C737 C738 1.392 . S
C737 C741 1.495 . S
C738 C737 1.392 . S
C738 C739 1.385 1_556 S
C738 C740 1.478 . S
C739 H733 0.930 . S
C739 C735 1.400 1_565 S
C739 C738 1.385 1_554 S
C740 C738 1.478 . S
C740 C742 1.381 1_556 S
C740 C746 1.383 . S
C741 C737 1.495 . S
C741 H747 0.959 . S
C741 H748 0.961 . S
C741 H749 0.960 . S
C742 C740 1.381 1_554 S
C742 C743 1.394 . S
C742 H750 0.930 . S
C743 C742 1.394 . S
C743 C744 1.387 . S
C743 H751 0.929 . S
C744 C743 1.387 . S
C744 C745 1.373 1_554 S
C745 H729 0.930 . S
C745 C744 1.373 1_556 S
C745 C746 1.379 . S
C746 H730 0.931 . S
C746 C740 1.383 . S
C746 C745 1.379 . S
H747 C741 0.959 . S
H748 C741 0.961 . S
H749 C741 0.960 . S
H750 C742 0.930 . S
H751 C743 0.929 . S
H752 C760 0.929 . S
H753 C762 0.930 . S
H754 C764 0.930 . S
H755 C767 0.929 . S
H756 C770 0.930 1_554 S
H757 C772 0.960 . S
H758 C772 0.960 1_554 S
H759 C772 0.960 1_554 S
C760 H752 0.929 . S
C760 C761 1.377 . S
C760 C762 1.384 . S
C761 C760 1.377 . S
C761 C767 1.390 . S
C762 H753 0.930 . S
C762 C760 1.384 . S
C762 C763 1.372 . S
C763 C762 1.372 . S
C763 C764 1.400 . S
C763 C768 1.490 . S
C764 H754 0.930 . S
C764 C763 1.400 . S
C764 C767 1.386 . S
H765 C781 0.930 . S
H766 C782 0.931 . S
C767 H755 0.929 . S
C767 C761 1.390 . S
C767 C764 1.386 . S
C768 C763 1.490 . S
C768 C770 1.395 1_554 S
C768 C771 1.403 1_554 S
H769 C775 0.930 . S
C770 H756 0.930 1_556 S
C770 C768 1.395 1_556 S
C770 C773 1.403 . S
C771 C768 1.403 1_556 S
C771 C772 1.524 . S
C771 C775 1.400 . S
C772 H757 0.960 . S
C772 H758 0.960 1_556 S
C772 H759 0.960 1_556 S
C772 C771 1.524 . S
C773 C770 1.403 . S
C773 C774 1.392 . S
C773 C777 1.495 . S
C774 C773 1.392 . S
C774 C775 1.385 . S
C774 C776 1.478 . S
C775 H769 0.930 . S
C775 C771 1.400 . S
C775 C774 1.385 . S
C776 C774 1.478 . S
C776 C778 1.381 . S
C776 C782 1.383 . S
C777 C773 1.495 . S
C777 H783 0.959 . S
C777 H784 0.961 . S
C777 H785 0.960 . S
C778 C776 1.381 . S
C778 C779 1.394 . S
C778 H786 0.930 . S
C779 C778 1.394 . S
C779 C780 1.383 . S
C779 H787 0.929 . S
C780 C779 1.383 . S
C780 C781 1.377 . S
C781 H765 0.930 . S
C781 C780 1.377 . S
C781 C782 1.379 . S
C782 H766 0.931 . S
C782 C776 1.383 . S
C782 C781 1.379 . S
H783 C777 0.959 . S
H784 C777 0.961 . S
H785 C777 0.960 . S
H786 C778 0.930 . S
H787 C779 0.929 . S
H788 C796 0.929 . S
H789 C798 0.930 . S
H790 C800 0.930 . S
H791 C803 0.929 . S
H792 C806 0.930 1_554 S
H793 C808 0.960 . S
H794 C808 0.960 1_554 S
H795 C808 0.960 1_554 S
C796 H788 0.929 . S
C796 C797 1.377 . S
C796 C798 1.384 . S
C797 C796 1.377 . S
C797 C803 1.390 . S
C798 H789 0.930 . S
C798 C796 1.384 . S
C798 C799 1.372 . S
C799 C798 1.372 . S
C799 C800 1.400 . S
C799 C804 1.490 . S
C800 H790 0.930 . S
C800 C799 1.400 . S
C800 C803 1.386 . S
H801 C817 0.930 . S
H802 C818 0.931 . S
C803 H791 0.929 . S
C803 C797 1.390 . S
C803 C800 1.386 . S
C804 C799 1.490 . S
C804 C806 1.395 1_554 S
C804 C807 1.403 1_554 S
H805 C811 0.930 . S
C806 H792 0.930 1_556 S
C806 C804 1.395 1_556 S
C806 C809 1.403 . S
C807 C804 1.403 1_556 S
C807 C808 1.524 . S
C807 C811 1.400 . S
C808 H793 0.960 . S
C808 H794 0.960 1_556 S
C808 H795 0.960 1_556 S
C808 C807 1.524 . S
C809 C806 1.403 . S
C809 C810 1.392 . S
C809 C813 1.495 . S
C810 C809 1.392 . S
C810 C811 1.385 . S
C810 C812 1.478 . S
C811 H805 0.930 . S
C811 C807 1.400 . S
C811 C810 1.385 . S
C812 C810 1.478 . S
C812 C814 1.381 . S
C812 C818 1.383 . S
C813 C809 1.495 . S
C813 H819 0.959 . S
C813 H820 0.961 . S
C813 H821 0.960 . S
C814 C812 1.381 . S
C814 C815 1.394 . S
C814 H822 0.930 . S
C815 C814 1.394 . S
C815 C816 1.383 . S
C815 H823 0.929 . S
C816 C815 1.383 . S
C816 C817 1.377 . S
C817 H801 0.930 . S
C817 C816 1.377 . S
C817 C818 1.379 . S
C818 H802 0.931 . S
C818 C812 1.383 . S
C818 C817 1.379 . S
H819 C813 0.959 . S
H820 C813 0.961 . S
H821 C813 0.960 . S
H822 C814 0.930 . S
H823 C815 0.929 . S
H824 C832 0.929 . S
H825 C834 0.930 . S
H826 C836 0.930 . S
H827 C839 0.929 . S
H828 C842 0.930 . S
H829 C844 0.960 . S
H830 C844 0.960 . S
H831 C844 0.960 . S
C832 H824 0.929 . S
C832 C833 1.377 . S
C832 C834 1.384 . S
C833 C832 1.377 . S
C833 C839 1.390 . S
C834 H825 0.930 . S
C834 C832 1.384 . S
C834 C835 1.372 . S
C835 C834 1.372 . S
C835 C836 1.400 . S
C835 C840 1.490 . S
C836 H826 0.930 . S
C836 C835 1.400 . S
C836 C839 1.386 . S
H837 C853 0.930 . S
H838 C854 0.931 . S
C839 H827 0.929 . S
C839 C833 1.390 . S
C839 C836 1.386 . S
C840 C835 1.490 . S
C840 C842 1.395 . S
C840 C843 1.403 . S
H841 C847 0.936 . S
C842 H828 0.930 . S
C842 C840 1.395 . S
C842 C845 1.403 . S
C843 C840 1.403 . S
C843 C844 1.524 . S
C843 C847 1.400 . S
C844 H829 0.960 . S
C844 H830 0.960 . S
C844 H831 0.960 . S
C844 C843 1.524 . S
C845 C842 1.403 . S
C845 C846 1.392 1_554 S
C845 C849 1.495 1_554 S
C846 C845 1.392 1_556 S
C846 C847 1.385 1_556 S
C846 C848 1.478 . S
C847 H841 0.936 . S
C847 C843 1.400 . S
C847 C846 1.385 1_554 S
C848 C846 1.478 . S
C848 C850 1.381 . S
C848 C854 1.383 . S
C849 C845 1.495 1_556 S
C849 H855 0.959 1_556 S
C849 H856 0.961 . S
C849 H857 0.960 . S
C850 C848 1.381 . S
C850 C851 1.394 . S
C850 H858 0.930 . S
C851 C850 1.394 . S
C851 C852 1.383 . S
C851 H859 0.929 . S
C852 C851 1.383 . S
C852 C853 1.377 . S
C853 H837 0.930 . S
C853 C852 1.377 . S
C853 C854 1.379 . S
C854 H838 0.931 . S
C854 C848 1.383 . S
C854 C853 1.379 . S
H855 C849 0.959 1_554 S
H856 C849 0.961 . S
H857 C849 0.960 . S
H858 C850 0.930 . S
H859 C851 0.929 . S
H860 C868 0.929 . S
H861 C870 0.930 . S
H862 C872 0.930 . S
H863 C875 0.929 . S
H864 C878 0.930 . S
H865 C880 0.960 1_554 S
H866 C880 0.960 . S
H867 C880 0.960 . S
C868 H860 0.929 . S
C868 C869 1.377 . S
C868 C870 1.384 . S
C869 C868 1.377 . S
C869 C875 1.390 . S
C870 H861 0.930 . S
C870 C868 1.384 . S
C870 C871 1.372 . S
C871 C870 1.372 . S
C871 C872 1.400 . S
C871 C876 1.490 . S
C872 H862 0.930 . S
C872 C871 1.400 . S
C872 C875 1.386 . S
H873 C889 0.930 . S
H874 C890 0.931 . S
C875 H863 0.929 . S
C875 C869 1.390 . S
C875 C872 1.386 . S
C876 C871 1.490 . S
C876 C878 1.395 1_556 S
C876 C879 1.403 1_556 S
H877 C883 0.930 . S
C878 H864 0.930 . S
C878 C876 1.395 1_554 S
C878 C881 1.403 . S
C879 C876 1.403 1_554 S
C879 C880 1.524 1_554 S
C879 C883 1.400 . S
C880 H865 0.960 1_556 S
C880 H866 0.960 . S
C880 H867 0.960 . S
C880 C879 1.524 1_556 S
C881 C878 1.403 . S
C881 C882 1.392 . S
C881 C885 1.495 . S
C882 C881 1.392 . S
C882 C883 1.385 . S
C882 C884 1.478 . S
C883 H877 0.930 . S
C883 C879 1.400 . S
C883 C882 1.385 . S
C884 C882 1.478 . S
C884 C886 1.381 . S
C884 C890 1.383 . S
C885 C881 1.495 . S
C885 H891 0.959 . S
C885 H892 0.961 . S
C885 H893 0.960 . S
C886 C884 1.381 . S
C886 C887 1.394 . S
C886 H894 0.930 . S
C887 C886 1.394 . S
C887 C888 1.383 . S
C887 H895 0.929 . S
C888 C887 1.383 . S
C888 C889 1.377 . S
C889 H873 0.930 . S
C889 C888 1.377 . S
C889 C890 1.379 . S
C890 H874 0.931 . S
C890 C884 1.383 . S
C890 C889 1.379 . S
H891 C885 0.959 . S
H892 C885 0.961 . S
H893 C885 0.960 . S
H894 C886 0.930 . S
H895 C887 0.929 . S
H896 C904 0.929 . S
H897 C906 0.930 . S
H898 C908 0.930 . S
H899 C911 0.929 . S
H900 C914 0.930 . S
H901 C916 0.960 . S
H902 C916 0.960 . S
H903 C916 0.960 . S
C904 H896 0.929 . S
C904 C905 1.377 . S
C904 C906 1.384 . S
C905 C904 1.377 . S
C905 C911 1.390 . S
C906 H897 0.930 . S
C906 C904 1.384 . S
C906 C907 1.372 . S
C907 C906 1.372 . S
C907 C908 1.400 . S
C907 C912 1.490 . S
C908 H898 0.930 . S
C908 C907 1.400 . S
C908 C911 1.386 . S
H909 C925 0.930 . S
H910 C926 0.931 . S
C911 H899 0.929 . S
C911 C905 1.390 . S
C911 C908 1.386 . S
C912 C907 1.490 . S
C912 C914 1.395 . S
C912 C915 1.403 . S
H913 C919 0.930 . S
C914 H900 0.930 . S
C914 C912 1.395 . S
C914 C917 1.403 . S
C915 C912 1.403 . S
C915 C916 1.524 . S
C915 C919 1.400 . S
C916 H901 0.960 . S
C916 H902 0.960 . S
C916 H903 0.960 . S
C916 C915 1.524 . S
C917 C914 1.403 . S
C917 C918 1.392 . S
C917 C921 1.495 . S
C918 C917 1.392 . S
C918 C919 1.385 . S
C918 C920 1.478 . S
C919 H913 0.930 . S
C919 C915 1.400 . S
C919 C918 1.385 . S
C920 C918 1.478 . S
C920 C922 1.381 . S
C920 C926 1.383 . S
C921 C917 1.495 . S
C921 H927 0.959 . S
C921 H928 0.961 . S
C921 H929 0.960 . S
C922 C920 1.381 . S
C922 C923 1.394 . S
C922 H930 0.930 . S
C923 C922 1.394 . S
C923 C924 1.383 . S
C923 H931 0.929 . S
C924 C923 1.383 . S
C924 C925 1.377 . S
C925 H909 0.930 . S
C925 C924 1.377 . S
C925 C926 1.379 . S
C926 H910 0.931 . S
C926 C920 1.383 . S
C926 C925 1.379 . S
H927 C921 0.959 . S
H928 C921 0.961 . S
H929 C921 0.960 . S
H930 C922 0.930 . S
H931 C923 0.929 . S
H932 C940 0.929 . S
H933 C942 0.930 . S
H934 C944 0.930 . S
H935 C947 0.929 . S
H936 C950 0.930 . S
H937 C952 0.960 . S
H938 C952 0.960 . S
H939 C952 0.960 . S
C940 H932 0.929 . S
C940 C941 1.377 . S
C940 C942 1.384 . S
C941 C940 1.377 . S
C941 C947 1.390 . S
C942 H933 0.930 . S
C942 C940 1.384 . S
C942 C943 1.372 . S
C943 C942 1.372 . S
C943 C944 1.400 . S
C943 C948 1.490 . S
C944 H934 0.930 . S
C944 C943 1.400 . S
C944 C947 1.386 . S
H945 C961 0.930 . S
H946 C962 0.931 . S
C947 H935 0.929 . S
C947 C941 1.390 . S
C947 C944 1.386 . S
C948 C943 1.490 . S
C948 C950 1.395 . S
C948 C951 1.403 . S
H949 C955 0.930 . S
C950 H936 0.930 . S
C950 C948 1.395 . S
C950 C953 1.403 . S
C951 C948 1.403 . S
C951 C952 1.524 . S
C951 C955 1.400 . S
C952 H937 0.960 . S
C952 H938 0.960 . S
C952 H939 0.960 . S
C952 C951 1.524 . S
C953 C950 1.403 . S
C953 C954 1.392 . S
C953 C957 1.495 . S
C954 C953 1.392 . S
C954 C955 1.385 . S
C954 C956 1.478 . S
C955 H949 0.930 . S
C955 C951 1.400 . S
C955 C954 1.385 . S
C956 C954 1.478 . S
C956 C958 1.381 . S
C956 C962 1.383 . S
C957 C953 1.495 . S
C957 H963 0.959 . S
C957 H964 0.961 . S
C957 H965 0.960 . S
C958 C956 1.381 . S
C958 C959 1.394 . S
C958 H966 0.930 . S
C959 C958 1.394 . S
C959 C960 1.383 . S
C959 H967 0.929 . S
C960 C959 1.383 . S
C960 C961 1.377 . S
C961 H945 0.930 . S
C961 C960 1.377 . S
C961 C962 1.379 . S
C962 H946 0.931 . S
C962 C956 1.383 . S
C962 C961 1.379 . S
H963 C957 0.959 . S
H964 C957 0.961 . S
H965 C957 0.960 . S
H966 C958 0.930 . S
H967 C959 0.929 . S
H968 C976 0.929 . S
H969 C978 0.930 . S
H970 C980 0.930 . S
H971 C983 0.929 . S
H972 C986 0.930 . S
H973 C988 0.960 . S
H974 C988 0.960 . S
H975 C988 0.960 . S
C976 H968 0.929 . S
C976 C977 1.377 . S
C976 C978 1.384 . S
C977 C976 1.377 . S
C977 C983 1.390 . S
C978 H969 0.930 . S
C978 C976 1.384 . S
C978 C979 1.372 . S
C979 C978 1.372 . S
C979 C980 1.400 . S
C979 C984 1.490 . S
C980 H970 0.930 . S
C980 C979 1.400 . S
C980 C983 1.386 . S
H981 C997 0.930 . S
H982 C998 0.931 . S
C983 H971 0.929 . S
C983 C977 1.390 . S
C983 C980 1.386 . S
C984 C979 1.490 . S
C984 C986 1.395 . S
C984 C987 1.403 . S
H985 C991 0.930 . S
C986 H972 0.930 . S
C986 C984 1.395 . S
C986 C989 1.403 . S
C987 C984 1.403 . S
C987 C988 1.524 . S
C987 C991 1.400 . S
C988 H973 0.960 . S
C988 H974 0.960 . S
C988 H975 0.960 . S
C988 C987 1.524 . S
C989 C986 1.403 . S
C989 C990 1.392 . S
C989 C993 1.495 . S
C990 C989 1.392 . S
C990 C991 1.385 . S
C990 C992 1.478 . S
C991 H985 0.930 . S
C991 C987 1.400 . S
C991 C990 1.385 . S
C992 C990 1.478 . S
C992 C994 1.381 . S
C992 C998 1.383 . S
C993 C989 1.495 . S
C993 H999 0.959 . S
C993 H1000 0.961 . S
C993 H1001 0.960 . S
C994 C992 1.381 . S
C994 C995 1.394 . S
C994 H1002 0.930 . S
C995 C994 1.394 . S
C995 C996 1.383 . S
C995 H1003 0.929 . S
C996 C995 1.383 . S
C996 C997 1.377 . S
C997 H981 0.930 . S
C997 C996 1.377 . S
C997 C998 1.379 . S
C998 H982 0.931 . S
C998 C992 1.383 . S
C998 C997 1.379 . S
H999 C993 0.959 . S
H1000 C993 0.961 . S
H1001 C993 0.960 . S
H1002 C994 0.930 . S
H1003 C995 0.929 . S
H1004 C1012 0.929 . S
H1005 C1014 0.930 . S
H1006 C1016 0.930 . S
H1007 C1019 0.929 . S
H1008 C1022 0.930 . S
H1009 C1024 0.960 . S
H1010 C1024 0.960 . S
H1011 C1024 0.960 . S
C1012 H1004 0.929 . S
C1012 C1013 1.377 . S
C1012 C1014 1.384 . S
C1013 C1012 1.377 . S
C1013 C1019 1.390 . S
C1014 H1005 0.930 . S
C1014 C1012 1.384 . S
C1014 C1015 1.372 . S
C1015 C1014 1.372 . S
C1015 C1016 1.400 . S
C1015 C1020 1.490 . S
C1016 H1006 0.930 . S
C1016 C1015 1.400 . S
C1016 C1019 1.386 . S
H1017 C1033 0.930 . S
H1018 C1034 0.931 . S
C1019 H1007 0.929 . S
C1019 C1013 1.390 . S
C1019 C1016 1.386 . S
C1020 C1015 1.490 . S
C1020 C1022 1.395 . S
C1020 C1023 1.403 . S
H1021 C1027 0.930 . S
C1022 H1008 0.930 . S
C1022 C1020 1.395 . S
C1022 C1025 1.403 . S
C1023 C1020 1.403 . S
C1023 C1024 1.524 . S
C1023 C1027 1.400 . S
C1024 H1009 0.960 . S
C1024 H1010 0.960 . S
C1024 H1011 0.960 . S
C1024 C1023 1.524 . S
C1025 C1022 1.403 . S
C1025 C1026 1.392 . S
C1025 C1029 1.495 . S
C1026 C1025 1.392 . S
C1026 C1027 1.385 . S
C1026 C1028 1.478 . S
C1027 H1021 0.930 . S
C1027 C1023 1.400 . S
C1027 C1026 1.385 . S
C1028 C1026 1.478 . S
C1028 C1030 1.381 . S
C1028 C1034 1.383 . S
C1029 C1025 1.495 . S
C1029 H1035 0.959 . S
C1029 H1036 0.961 . S
C1029 H1037 0.960 . S
C1030 C1028 1.381 . S
C1030 C1031 1.394 . S
C1030 H1038 0.930 . S
C1031 C1030 1.394 . S
C1031 C1032 1.383 . S
C1031 H1039 0.929 . S
C1032 C1031 1.383 . S
C1032 C1033 1.377 . S
C1033 H1017 0.930 . S
C1033 C1032 1.377 . S
C1033 C1034 1.379 . S
C1034 H1018 0.931 . S
C1034 C1028 1.383 . S
C1034 C1033 1.379 . S
H1035 C1029 0.959 . S
H1036 C1029 0.961 . S
H1037 C1029 0.960 . S
H1038 C1030 0.930 . S
H1039 C1031 0.929 . S
H1040 C1048 0.929 . S
H1041 C1050 0.930 . S
H1042 C1052 0.930 . S
H1043 C1055 0.929 . S
H1044 C1058 0.930 . S
H1045 C1060 0.960 . S
H1046 C1060 0.960 . S
H1047 C1060 0.960 . S
C1048 H1040 0.929 . S
C1048 C1049 1.377 . S
C1048 C1050 1.384 . S
C1049 C1048 1.377 . S
C1049 C1055 1.390 . S
C1050 H1041 0.930 . S
C1050 C1048 1.384 . S
C1050 C1051 1.372 . S
C1051 C1050 1.372 . S
C1051 C1052 1.400 . S
C1051 C1056 1.490 . S
C1052 H1042 0.930 . S
C1052 C1051 1.400 . S
C1052 C1055 1.386 . S
H1053 C1069 0.930 . S
H1054 C1070 0.931 . S
C1055 H1043 0.929 . S
C1055 C1049 1.390 . S
C1055 C1052 1.386 . S
C1056 C1051 1.490 . S
C1056 C1058 1.395 . S
C1056 C1059 1.403 . S
H1057 C1063 0.930 . S
C1058 H1044 0.930 . S
C1058 C1056 1.395 . S
C1058 C1061 1.403 1_455 S
C1059 C1056 1.403 . S
C1059 C1060 1.524 . S
C1059 C1063 1.400 1_455 S
C1060 H1045 0.960 . S
C1060 H1046 0.960 . S
C1060 H1047 0.960 . S
C1060 C1059 1.524 . S
C1061 C1058 1.403 1_655 S
C1061 C1062 1.392 . S
C1061 C1065 1.495 . S
C1062 C1061 1.392 . S
C1062 C1063 1.385 . S
C1062 C1064 1.478 . S
C1063 H1057 0.930 . S
C1063 C1059 1.400 1_655 S
C1063 C1062 1.385 . S
C1064 C1062 1.478 . S
C1064 C1066 1.381 . S
C1064 C1070 1.383 . S
C1065 C1061 1.495 . S
C1065 H1071 0.959 . S
C1065 H1072 0.961 . S
C1065 H1073 0.960 . S
C1066 C1064 1.381 . S
C1066 C1067 1.394 . S
C1066 H1074 0.930 . S
C1067 C1066 1.394 . S
C1067 C1068 1.383 . S
C1067 H1075 0.929 . S
C1068 C1067 1.383 . S
C1068 C1069 1.377 . S
C1069 H1053 0.930 . S
C1069 C1068 1.377 . S
C1069 C1070 1.379 . S
C1070 H1054 0.931 . S
C1070 C1064 1.383 . S
C1070 C1069 1.379 . S
H1071 C1065 0.959 . S
H1072 C1065 0.961 . S
H1073 C1065 0.960 . S
H1074 C1066 0.930 . S
H1075 C1067 0.929 . S
H1076 C1084 0.929 . S
H1077 C1086 0.930 . S
H1078 C1088 0.930 . S
H1079 C1091 0.929 . S
H1080 C1094 0.930 . S
H1081 C1096 0.960 . S
H1082 C1096 0.960 . S
H1083 C1096 0.960 . S
C1084 H1076 0.929 . S
C1084 C1085 1.377 . S
C1084 C1086 1.384 . S
C1085 C1084 1.377 . S
C1085 C1091 1.390 . S
C1086 H1077 0.930 . S
C1086 C1084 1.384 . S
C1086 C1087 1.372 . S
C1087 C1086 1.372 . S
C1087 C1088 1.400 . S
C1087 C1092 1.490 . S
C1088 H1078 0.930 . S
C1088 C1087 1.400 . S
C1088 C1091 1.386 . S
H1089 C1105 0.930 . S
H1090 C1106 0.931 . S
C1091 H1079 0.929 . S
C1091 C1085 1.390 . S
C1091 C1088 1.386 . S
C1092 C1087 1.490 . S
C1092 C1094 1.395 . S
C1092 C1095 1.403 . S
H1093 C1099 0.930 . S
C1094 H1080 0.930 . S
C1094 C1092 1.395 . S
C1094 C1097 1.403 1_655 S
C1095 C1092 1.403 . S
C1095 C1096 1.524 . S
C1095 C1099 1.400 1_655 S
C1096 H1081 0.960 . S
C1096 H1082 0.960 . S
C1096 H1083 0.960 . S
C1096 C1095 1.524 . S
C1097 C1094 1.403 1_455 S
C1097 C1098 1.392 . S
C1097 C1101 1.495 . S
C1098 C1097 1.392 . S
C1098 C1099 1.385 . S
C1098 C1100 1.478 . S
C1099 H1093 0.930 . S
C1099 C1095 1.400 1_455 S
C1099 C1098 1.385 . S
C1100 C1098 1.478 . S
C1100 C1102 1.381 . S
C1100 C1106 1.383 . S
C1101 C1097 1.495 . S
C1101 H1107 0.959 . S
C1101 H1108 0.961 . S
C1101 H1109 0.960 . S
C1102 C1100 1.381 . S
C1102 C1103 1.394 . S
C1102 H1110 0.930 . S
C1103 C1102 1.394 . S
C1103 C1104 1.383 . S
C1103 H1111 0.929 . S
C1104 C1103 1.383 . S
C1104 C1105 1.377 . S
C1105 H1089 0.930 . S
C1105 C1104 1.377 . S
C1105 C1106 1.379 . S
C1106 H1090 0.931 . S
C1106 C1100 1.383 . S
C1106 C1105 1.379 . S
H1107 C1101 0.959 . S
H1108 C1101 0.961 . S
H1109 C1101 0.960 . S
H1110 C1102 0.930 . S
H1111 C1103 0.929 . S
H1112 C1120 0.929 . S
H1113 C1122 0.930 . S
H1114 C1124 0.930 . S
H1115 C1127 0.929 . S
H1116 C1130 0.930 . S
H1117 C1132 0.960 . S
H1118 C1132 0.960 . S
H1119 C1132 0.960 . S
C1120 H1112 0.929 . S
C1120 C1121 1.377 . S
C1120 C1122 1.384 . S
C1121 C1120 1.377 . S
C1121 C1127 1.390 . S
C1122 H1113 0.930 . S
C1122 C1120 1.384 . S
C1122 C1123 1.372 . S
C1123 C1122 1.372 . S
C1123 C1124 1.400 . S
C1123 C1128 1.490 . S
C1124 H1114 0.930 . S
C1124 C1123 1.400 . S
C1124 C1127 1.386 . S
H1125 C1141 0.930 . S
H1126 C1142 0.931 . S
C1127 H1115 0.929 . S
C1127 C1121 1.390 . S
C1127 C1124 1.386 . S
C1128 C1123 1.490 . S
C1128 C1130 1.395 . S
C1128 C1131 1.403 . S
H1129 C1135 0.930 . S
C1130 H1116 0.930 . S
C1130 C1128 1.395 . S
C1130 C1133 1.403 . S
C1131 C1128 1.403 . S
C1131 C1132 1.524 . S
C1131 C1135 1.400 . S
C1132 H1117 0.960 . S
C1132 H1118 0.960 . S
C1132 H1119 0.960 . S
C1132 C1131 1.524 . S
C1133 C1130 1.403 . S
C1133 C1134 1.392 . S
C1133 C1137 1.495 . S
C1134 C1133 1.392 . S
C1134 C1135 1.385 . S
C1134 C1136 1.478 . S
C1135 H1129 0.930 . S
C1135 C1131 1.400 . S
C1135 C1134 1.385 . S
C1136 C1134 1.478 . S
C1136 C1138 1.381 . S
C1136 C1142 1.383 . S
C1137 C1133 1.495 . S
C1137 H1143 0.959 . S
C1137 H1144 0.961 . S
C1137 H1145 0.960 . S
C1138 C1136 1.381 . S
C1138 C1139 1.394 . S
C1138 H1146 0.930 . S
C1139 C1138 1.394 . S
C1139 C1140 1.383 . S
C1139 H1147 0.929 . S
C1140 C1139 1.383 . S
C1140 C1141 1.377 . S
C1141 H1125 0.930 . S
C1141 C1140 1.377 . S
C1141 C1142 1.379 . S
C1142 H1126 0.931 . S
C1142 C1136 1.383 . S
C1142 C1141 1.379 . S
H1143 C1137 0.959 . S
H1144 C1137 0.961 . S
H1145 C1137 0.960 . S
H1146 C1138 0.930 . S
H1147 C1139 0.929 . S
H1148 C1156 0.929 . S
H1149 C1158 0.930 . S
H1150 C1160 0.930 . S
H1151 C1163 0.929 . S
H1152 C1166 0.930 . S
H1153 C1168 0.960 . S
H1154 C1168 0.960 . S
H1155 C1168 0.960 . S
C1156 H1148 0.929 . S
C1156 C1157 1.377 . S
C1156 C1158 1.384 . S
C1157 C1156 1.377 . S
C1157 C1163 1.390 . S
C1158 H1149 0.930 . S
C1158 C1156 1.384 . S
C1158 C1159 1.372 . S
C1159 C1158 1.372 . S
C1159 C1160 1.400 . S
C1159 C1164 1.490 . S
C1160 H1150 0.930 . S
C1160 C1159 1.400 . S
C1160 C1163 1.386 . S
H1161 C1177 0.930 . S
H1162 C1178 0.931 . S
C1163 H1151 0.929 . S
C1163 C1157 1.390 . S
C1163 C1160 1.386 . S
C1164 C1159 1.490 . S
C1164 C1166 1.395 . S
C1164 C1167 1.403 . S
H1165 C1171 0.930 . S
C1166 H1152 0.930 . S
C1166 C1164 1.395 . S
C1166 C1169 1.403 . S
C1167 C1164 1.403 . S
C1167 C1168 1.524 . S
C1167 C1171 1.400 . S
C1168 H1153 0.960 . S
C1168 H1154 0.960 . S
C1168 H1155 0.960 . S
C1168 C1167 1.524 . S
C1169 C1166 1.403 . S
C1169 C1170 1.392 . S
C1169 C1173 1.495 . S
C1170 C1169 1.392 . S
C1170 C1171 1.385 . S
C1170 C1172 1.478 . S
C1171 H1165 0.930 . S
C1171 C1167 1.400 . S
C1171 C1170 1.385 . S
C1172 C1170 1.478 . S
C1172 C1174 1.381 . S
C1172 C1178 1.383 . S
C1173 C1169 1.495 . S
C1173 H1179 0.959 . S
C1173 H1180 0.961 . S
C1173 H1181 0.960 . S
C1174 C1172 1.381 . S
C1174 C1175 1.394 . S
C1174 H1182 0.930 . S
C1175 C1174 1.394 . S
C1175 C1176 1.383 . S
C1175 H1183 0.929 . S
C1176 C1175 1.383 . S
C1176 C1177 1.377 . S
C1177 H1161 0.930 . S
C1177 C1176 1.377 . S
C1177 C1178 1.379 . S
C1178 H1162 0.931 . S
C1178 C1172 1.383 . S
C1178 C1177 1.379 . S
H1179 C1173 0.959 . S
H1180 C1173 0.961 . S
H1181 C1173 0.960 . S
H1182 C1174 0.930 . S
H1183 C1175 0.929 . S
C329 C6 1.704 . S
C348 C295 1.694 . S
C365 C255 1.703 . S
C384 C46 1.693 . S
C401 C206 1.705 . S
C420 C95 1.705 . S
C437 C166 1.703 . S
C456 C135 1.694 . S
C473 C89 1.532 . S
C492 C9 1.560 . S
C509 C49 1.546 . S
C528 C129 1.517 . S
C545 C138 1.538 . S
C564 C58 1.499 . S
C581 C98 1.543 . S
C600 C18 1.518 . S
C617 C169 1.445 . S
C636 C249 1.424 . S
C653 C209 1.437 . S
C672 C289 1.420 . S
C689 C298 1.447 . S
C708 C218 1.455 1_556 S
C725 C258 1.441 . S
C744 C178 1.421 . S
C761 C19 2.065 . S
C780 C10 2.068 . S
C797 C59 2.068 . S
C816 C50 2.080 . S
C833 C99 2.065 . S
C852 C90 2.046 . S
C869 C130 2.066 . S
C888 C139 2.046 . S
C905 C170 2.069 . S
C924 C179 2.056 . S
C941 C219 2.069 . S
C960 C210 2.080 . S
C977 C250 2.070 . S
C996 C259 2.080 . S
C1013 C290 2.071 . S
C1032 C299 2.074 . S
C1049 C15 2.374 . S
C1068 C55 2.382 . S
C1085 C126 2.372 . S
C1104 C86 2.373 . S
C1121 C175 2.373 . S
C1140 C215 2.373 . S
C1157 C286 2.379 . S
C1176 C246 2.371 . S
