# Generated by pormake.
# Topology wib, (6)-cn, num edge types: 1
# Building blocks:
#     Node 0, Type 0, BuildingBlock: IZENUY_clean_sbu_0, # of connection points: 6
#     Node 1, Type 0, BuildingBlock: IZENUY_clean_sbu_0, # of connection points: 6
#     Node 2, Type 0, BuildingBlock: IZENUY_clean_sbu_0, # of connection points: 6
#     Node 3, Type 0, BuildingBlock: IZENUY_clean_sbu_0, # of connection points: 6
#     Node 4, Type 0, BuildingBlock: IZENUY_clean_sbu_0, # of connection points: 6
#     Node 5, Type 0, BuildingBlock: IZENUY_clean_sbu_0, # of connection points: 6
#     Node 6, Type 0, BuildingBlock: IZENUY_clean_sbu_0, # of connection points: 6
#     Node 7, Type 0, BuildingBlock: IZENUY_clean_sbu_0, # of connection points: 6
#     Node 8, Type 0, BuildingBlock: IZENUY_clean_sbu_0, # of connection points: 6
#     Node 9, Type 0, BuildingBlock: IZENUY_clean_sbu_0, # of connection points: 6
#     Node 10, Type 0, BuildingBlock: IZENUY_clean_sbu_0, # of connection points: 6
#     Node 11, Type 0, BuildingBlock: IZENUY_clean_sbu_0, # of connection points: 6
#     Node 12, Type 0, BuildingBlock: IZENUY_clean_sbu_0, # of connection points: 6
#     Node 13, Type 0, BuildingBlock: IZENUY_clean_sbu_0, # of connection points: 6
#     Node 14, Type 0, BuildingBlock: IZENUY_clean_sbu_0, # of connection points: 6
#     Node 15, Type 0, BuildingBlock: IZENUY_clean_sbu_0, # of connection points: 6
#     Edge 16, Type (0, 0), BuildingBlock: AJUNOK_clean_linker_0, # of connection points: 2
#     Edge 17, Type (0, 0), BuildingBlock: AJUNOK_clean_linker_0, # of connection points: 2
#     Edge 18, Type (0, 0), BuildingBlock: AJUNOK_clean_linker_0, # of connection points: 2
#     Edge 19, Type (0, 0), BuildingBlock: AJUNOK_clean_linker_0, # of connection points: 2
#     Edge 20, Type (0, 0), BuildingBlock: AJUNOK_clean_linker_0, # of connection points: 2
#     Edge 21, Type (0, 0), BuildingBlock: AJUNOK_clean_linker_0, # of connection points: 2
#     Edge 22, Type (0, 0), BuildingBlock: AJUNOK_clean_linker_0, # of connection points: 2
#     Edge 23, Type (0, 0), BuildingBlock: AJUNOK_clean_linker_0, # of connection points: 2
#     Edge 24, Type (0, 0), BuildingBlock: AJUNOK_clean_linker_0, # of connection points: 2
#     Edge 25, Type (0, 0), BuildingBlock: AJUNOK_clean_linker_0, # of connection points: 2
#     Edge 26, Type (0, 0), BuildingBlock: AJUNOK_clean_linker_0, # of connection points: 2
#     Edge 27, Type (0, 0), BuildingBlock: AJUNOK_clean_linker_0, # of connection points: 2
#     Edge 28, Type (0, 0), BuildingBlock: AJUNOK_clean_linker_0, # of connection points: 2
#     Edge 29, Type (0, 0), BuildingBlock: AJUNOK_clean_linker_0, # of connection points: 2
#     Edge 30, Type (0, 0), BuildingBlock: AJUNOK_clean_linker_0, # of connection points: 2
#     Edge 31, Type (0, 0), BuildingBlock: AJUNOK_clean_linker_0, # of connection points: 2
#     Edge 32, Type (0, 0), BuildingBlock: AJUNOK_clean_linker_0, # of connection points: 2
#     Edge 33, Type (0, 0), BuildingBlock: AJUNOK_clean_linker_0, # of connection points: 2
#     Edge 34, Type (0, 0), BuildingBlock: AJUNOK_clean_linker_0, # of connection points: 2
#     Edge 35, Type (0, 0), BuildingBlock: AJUNOK_clean_linker_0, # of connection points: 2
#     Edge 36, Type (0, 0), BuildingBlock: AJUNOK_clean_linker_0, # of connection points: 2
#     Edge 37, Type (0, 0), BuildingBlock: AJUNOK_clean_linker_0, # of connection points: 2
#     Edge 38, Type (0, 0), BuildingBlock: AJUNOK_clean_linker_0, # of connection points: 2
#     Edge 39, Type (0, 0), BuildingBlock: AJUNOK_clean_linker_0, # of connection points: 2
#     Edge 40, Type (0, 0), BuildingBlock: AJUNOK_clean_linker_0, # of connection points: 2
#     Edge 41, Type (0, 0), BuildingBlock: AJUNOK_clean_linker_0, # of connection points: 2
#     Edge 42, Type (0, 0), BuildingBlock: AJUNOK_clean_linker_0, # of connection points: 2
#     Edge 43, Type (0, 0), BuildingBlock: AJUNOK_clean_linker_0, # of connection points: 2
#     Edge 44, Type (0, 0), BuildingBlock: AJUNOK_clean_linker_0, # of connection points: 2
#     Edge 45, Type (0, 0), BuildingBlock: AJUNOK_clean_linker_0, # of connection points: 2
#     Edge 46, Type (0, 0), BuildingBlock: AJUNOK_clean_linker_0, # of connection points: 2
#     Edge 47, Type (0, 0), BuildingBlock: AJUNOK_clean_linker_0, # of connection points: 2
#     Edge 48, Type (0, 0), BuildingBlock: AJUNOK_clean_linker_0, # of connection points: 2
#     Edge 49, Type (0, 0), BuildingBlock: AJUNOK_clean_linker_0, # of connection points: 2
#     Edge 50, Type (0, 0), BuildingBlock: AJUNOK_clean_linker_0, # of connection points: 2
#     Edge 51, Type (0, 0), BuildingBlock: AJUNOK_clean_linker_0, # of connection points: 2
#     Edge 52, Type (0, 0), BuildingBlock: AJUNOK_clean_linker_0, # of connection points: 2
#     Edge 53, Type (0, 0), BuildingBlock: AJUNOK_clean_linker_0, # of connection points: 2
#     Edge 54, Type (0, 0), BuildingBlock: AJUNOK_clean_linker_0, # of connection points: 2
#     Edge 55, Type (0, 0), BuildingBlock: AJUNOK_clean_linker_0, # of connection points: 2
#     Edge 56, Type (0, 0), BuildingBlock: AJUNOK_clean_linker_0, # of connection points: 2
#     Edge 57, Type (0, 0), BuildingBlock: AJUNOK_clean_linker_0, # of connection points: 2
#     Edge 58, Type (0, 0), BuildingBlock: AJUNOK_clean_linker_0, # of connection points: 2
#     Edge 59, Type (0, 0), BuildingBlock: AJUNOK_clean_linker_0, # of connection points: 2
#     Edge 60, Type (0, 0), BuildingBlock: AJUNOK_clean_linker_0, # of connection points: 2
#     Edge 61, Type (0, 0), BuildingBlock: AJUNOK_clean_linker_0, # of connection points: 2
#     Edge 62, Type (0, 0), BuildingBlock: AJUNOK_clean_linker_0, # of connection points: 2
#     Edge 63, Type (0, 0), BuildingBlock: AJUNOK_clean_linker_0, # of connection points: 2
# Relax obj value: 0.443
# Max RMSD: 0.268
# Mean RMSD: 0.268
data_MOF--net-wib--node1-IZENUY_clean_sbu_0--edge1-AJUNOK_clean_linker_0
_symmetry_space_group_name_H-M    P1
_symmetry_Int_Tables_number       1
_symmetry_cell_setting            triclinic
loop_
_symmetry_equiv_pos_as_xyz
'x, y, z'
_cell_length_a     22.279085
_cell_length_b     22.216265
_cell_length_c     40.506409
_cell_angle_alpha  90.235163
_cell_angle_beta   90.220159
_cell_angle_gamma 89.870952
loop_
_atom_site_label
_atom_site_type_symbol
_atom_site_fract_x
_atom_site_fract_y
_atom_site_fract_z
_atom_type_partial_charge
Fe0 Fe 0.06586 0.62151 0.31132 0.0
Fe1 Fe 0.12105 0.49517 0.3181 0.0
O2 O 0.11462 0.57073 0.33222 0.0
Fe3 Fe 0.15871 0.59845 0.36562 0.0
O4 O 0.16545 0.6738 0.3493 0.0
O5 O 0.12974 0.66698 0.29875 0.0
O6 O 0.06776 0.58509 0.27087 0.0
C7 C 0.11103 0.55696 0.25852 0.0
C8 C 0.05494 0.6586 0.3778 0.0
O9 O 0.1399 0.52042 0.27629 0.0
C10 C 0.13709 0.47752 0.38513 0.0
O11 O 1.00132 0.57838 0.32311 0.0
O12 O 0.03828 0.48919 0.30904 0.0
O13 O 0.09223 0.62081 0.38923 0.0
O14 O 0.05218 0.66843 0.34722 0.0
C15 C 0.24247 0.52967 0.33154 0.0
O16 O 0.10743 0.46291 0.3594 0.0
O17 O 0.16164 0.52818 0.38781 0.0
C18 C 0.99379 0.52336 0.3166 0.0
O19 O 0.20319 0.49019 0.32454 0.0
O20 O 0.22818 0.57954 0.34457 0.0
C21 C 0.16467 0.69048 0.31973 0.0
Fe22 Fe 0.29 0.38294 0.56531 0.0
Fe23 Fe 0.20685 0.43138 0.61949 0.0
O24 O 0.21936 0.38434 0.58479 0.0
Fe25 Fe 0.16018 0.33909 0.57041 0.0
O26 O 0.16019 0.37371 0.53083 0.0
O27 O 0.25775 0.37204 0.52249 0.0
O28 O 0.2856 0.46325 0.55697 0.0
C29 C 0.27978 0.50328 0.57888 0.0
C30 C 0.26068 0.26266 0.56281 0.0
O31 O 0.2624 0.48906 0.60756 0.0
C32 C 0.13396 0.32899 0.63386 0.0
O33 O 0.3323 0.39599 0.60529 0.0
O34 O 0.26097 0.38998 0.64291 0.0
O35 O 0.20746 0.27771 0.55602 0.0
O36 O 0.29893 0.30149 0.57191 0.0
C37 C 0.10794 0.45094 0.58327 0.0
O38 O 0.14678 0.3842 0.63789 0.0
O39 O 0.15664 0.30158 0.60981 0.0
C40 C 0.31574 0.39055 0.63547 0.0
O41 O 0.15305 0.47438 0.59675 0.0
O42 O 0.10257 0.39438 0.5811 0.0
C43 C 0.20388 0.37867 0.51166 0.0
Fe44 Fe 0.40827 0.53889 0.81848 0.0
Fe45 Fe 0.37162 0.45123 0.87257 0.0
O46 O 0.4133 0.4668 0.83676 0.0
Fe47 Fe 0.46107 0.41038 0.82132 0.0
O48 O 0.42463 0.41072 0.78236 0.0
O49 O 0.41624 0.50862 0.77492 0.0
O50 O 0.3266 0.53083 0.81223 0.0
C51 C 0.28966 0.52091 0.83525 0.0
C52 C 0.53133 0.51542 0.81325 0.0
O53 O 0.30976 0.50453 0.86314 0.0
C54 C 0.4772 0.38254 0.88461 0.0
O55 O 0.39617 0.57918 0.85984 0.0
O56 O 0.41588 0.5057 0.89364 0.0
O57 O 0.51936 0.46114 0.80683 0.0
O58 O 0.49041 0.55171 0.82275 0.0
C59 C 0.35216 0.35283 0.8362 0.0
O60 O 0.42199 0.39243 0.88923 0.0
O61 O 0.50159 0.40643 0.86012 0.0
C62 C 0.40511 0.56036 0.88954 0.0
O63 O 0.32845 0.39634 0.85118 0.0
O64 O 0.40856 0.3497 0.83187 0.0
C65 C 0.41247 0.45432 0.76401 0.0
Fe66 Fe 0.23446 0.6624 0.06724 0.0
Fe67 Fe 0.32677 0.62021 0.11813 0.0
O68 O 0.30826 0.66501 0.08358 0.0
Fe69 Fe 0.36389 0.71205 0.06658 0.0
O70 O 0.35739 0.67781 1.027 0.0
O71 O 0.25877 0.6725 1.02321 0.0
O72 O 0.24091 0.58119 1.05914 0.0
C73 C 0.25307 0.54243 0.08093 0.0
C74 C 0.2594 0.7847 0.06392 0.0
O75 O 0.27213 0.55994 0.10886 0.0
C76 C 0.40035 0.72339 0.12892 0.0
O77 O 0.19866 0.64875 0.10892 0.0
O78 O 0.27455 0.66216 0.14276 0.0
O79 O 0.31241 0.7724 1.05526 0.0
O80 O 0.22364 0.74398 0.0736 0.0
C81 C 0.42139 0.60092 0.07845 0.0
O82 O 0.38758 0.66878 0.13383 0.0
O83 O 0.37492 0.75037 0.1056 0.0
C84 C 0.21919 0.65435 0.13847 0.0
O85 O 0.37884 0.5778 0.09419 0.0
O86 O 0.4246 0.65739 0.07401 0.0
C87 C 0.31091 0.66907 1.0102 0.0
Fe88 Fe 0.8696 0.4558 0.74895 0.0
Fe89 Fe 0.95528 0.41013 0.80203 0.0
O90 O 0.91085 0.46871 0.78563 0.0
Fe91 Fe 0.90856 0.54028 0.80485 0.0
O92 O 0.82697 0.53425 0.81099 0.0
O93 O 0.80786 0.50862 0.75971 0.0
O94 O 0.82585 0.39942 0.76829 0.0
C95 C 0.84833 0.35241 0.78 0.0
C96 C 0.90545 0.56673 0.73503 0.0
O97 O 0.90294 0.35004 0.78908 0.0
C98 C 0.02979 0.51216 0.81088 0.0
O99 O 0.92143 0.39785 0.73195 0.0
O100 O 0.99855 0.4059 0.76453 0.0
O101 O 0.89664 0.58256 0.76503 0.0
O102 O 0.91197 0.51211 0.72789 0.0
C103 C 0.91105 0.45637 0.85893 0.0
O104 O 1.01416 0.45931 0.81842 0.0
O105 O 0.99106 0.54988 0.80029 0.0
C106 C 0.9756 0.38491 0.7387 0.0
O107 O 0.91567 0.41124 0.84036 0.0
O108 O 0.91722 0.5097 0.84766 0.0
C109 C 0.78925 0.52541 0.78795 0.0
Fe110 Fe 0.86706 0.71248 0.55057 0.0
Fe111 Fe 0.73975 0.66023 0.55525 0.0
O112 O 0.80981 0.66558 0.53519 0.0
Fe113 Fe 0.82298 0.62465 0.49845 0.0
O114 O 0.88015 0.58224 0.51805 0.0
O115 O 0.92765 0.66148 0.53737 0.0
O116 O 0.8702 0.67311 0.58845 0.0
C117 C 0.8282 0.66176 0.60785 0.0
C118 C 0.88951 0.73238 0.48741 0.0
O119 O 0.77331 0.66781 0.5983 0.0
C120 C 0.71136 0.65617 0.48436 0.0
O121 O 0.81732 0.7695 0.56789 0.0
O122 O 0.72684 0.74266 0.5515 0.0
O123 O 0.87905 0.6774 0.48121 0.0
O124 O 0.86658 0.75514 0.51274 0.0
C125 C 0.75859 0.54149 0.53779 0.0
O126 O 0.69649 0.64803 0.51481 0.0
O127 O 0.76528 0.66649 0.47772 0.0
C128 C 0.76347 0.78277 0.56162 0.0
O129 O 0.74862 0.57843 0.561 0.0
O130 O 0.77251 0.56172 0.50964 0.0
C131 C 0.92418 0.60513 0.53267 0.0
Fe132 Fe 0.61754 0.49407 0.30371 0.0
Fe133 Fe 0.66377 0.57937 0.25032 0.0
O134 O 0.61707 0.56556 0.28485 0.0
Fe135 Fe 0.57041 0.62408 0.29956 0.0
O136 O 0.60371 0.62327 0.34015 0.0
O137 O 0.60586 0.52458 0.34645 0.0
O138 O 0.69817 0.5001 0.31244 0.0
C139 C 0.73812 0.50775 0.2908 0.0
C140 C 0.49654 0.52155 0.30674 0.0
O141 O 0.72335 0.52549 0.26227 0.0
C142 C 0.56009 0.64952 0.23527 0.0
O143 O 0.63237 0.45272 0.26362 0.0
O144 O 0.62406 0.52413 0.22646 0.0
O145 O 0.51034 0.57541 0.31283 0.0
O146 O 0.53586 0.48371 0.29723 0.0
C147 C 0.68058 0.6785 0.28745 0.0
O148 O 0.61542 0.63805 0.23186 0.0
O149 O 0.53312 0.62855 0.25982 0.0
C150 C 0.62911 0.46921 0.23331 0.0
O151 O 0.70472 0.63426 0.27334 0.0
O152 O 0.62418 0.68317 0.28964 0.0
C153 C 0.60936 0.57795 0.35841 0.0
Fe154 Fe 0.66256 0.32897 1.05203 0.0
Fe155 Fe 0.79232 0.37599 1.0543 0.0
O156 O 0.72025 0.37422 1.03592 0.0
Fe157 Fe 0.70576 0.41734 1.0002 0.0
O158 O 0.65194 0.46123 1.0218 0.0
O159 O 0.60288 0.38351 1.04167 0.0
O160 O 0.66534 0.36554 0.09136 0.0
C161 C 0.71076 0.37067 0.10951 0.0
C162 C 0.63384 0.31331 0.98851 0.0
O163 O 0.76372 0.36637 0.09754 0.0
C164 C 0.81506 0.38037 0.98387 0.0
O165 O 0.7123 0.26855 0.066 0.0
O166 O 0.80228 0.29418 1.04846 0.0
O167 O 0.64599 0.36807 0.98327 0.0
O168 O 0.65602 0.28837 1.01342 0.0
C169 C 0.77776 0.49562 1.0388 0.0
O170 O 0.83213 0.38813 1.01385 0.0
O171 O 0.76013 0.37434 0.97752 0.0
C172 C 0.7653 0.25449 1.05799 0.0
O173 O 0.78656 0.45763 0.06155 0.0
O174 O 0.75993 0.4774 1.01074 0.0
C175 C 0.60686 0.43952 1.03577 0.0
Fe176 Fe 0.6318 0.98206 0.81606 0.0
Fe177 Fe 0.67172 0.09067 0.8588 0.0
O178 O 0.62555 0.05887 0.8277 0.0
Fe179 Fe 0.57482 0.10693 0.80613 0.0
O180 O 0.57328 0.06444 0.76743 0.0
O181 O 0.64825 1.00361 0.7732 0.0
O182 O 0.71463 0.97741 0.82157 0.0
C183 C 0.75399 1.01768 0.82703 0.0
C184 C 0.5044 1.00988 0.81646 0.0
O185 O 0.73951 0.06918 0.83751 0.0
C186 C 0.56989 0.15318 0.87116 0.0
O187 O 0.6205 0.95458 0.85871 0.0
O188 O 0.67563 0.02371 0.88371 0.0
O189 O 0.51211 0.06534 0.8217 0.0
O190 O 0.54848 0.97539 0.80848 0.0
C191 C 0.67775 0.17141 0.80785 0.0
O192 O 0.60719 0.11594 0.88284 0.0
O193 O 0.56464 0.15941 0.84033 0.0
C194 C 0.65134 0.97263 0.88343 0.0
O195 O 0.67717 0.16259 0.83849 0.0
O196 O 0.6372 0.14975 0.78957 0.0
C197 C 0.61761 0.0381 0.755 0.0
Fe198 Fe 0.66773 0.82688 0.06821 0.0
Fe199 Fe 0.79631 0.87615 0.06514 0.0
O200 O 0.72486 0.87391 0.08377 0.0
Fe201 Fe 0.70985 0.91883 0.11899 0.0
O202 O 0.65494 0.96061 0.0965 0.0
O203 O 0.60742 0.88026 0.07834 0.0
O204 O 0.66845 0.86208 1.02866 0.0
C205 C 0.71309 0.86873 1.01031 0.0
C206 C 0.6399 0.81404 0.13147 0.0
O207 O 0.76649 0.86517 1.02205 0.0
C208 C 0.82012 0.88238 0.13553 0.0
O209 O 0.71778 0.76699 1.05435 0.0
O210 O 0.80794 0.79442 0.07104 0.0
O211 O 0.65109 0.86926 0.13627 0.0
O212 O 0.66372 0.78827 0.10726 0.0
C213 C 0.7796 0.99614 0.07985 0.0
O214 O 0.83679 0.88975 0.10553 0.0
O215 O 0.76523 0.87848 0.14246 0.0
C216 C 0.77116 0.75386 0.06199 0.0
O217 O 0.78908 0.95728 1.05755 0.0
O218 O 0.76309 0.979 0.10819 0.0
C219 C 0.61064 0.93677 0.08238 0.0
Fe220 Fe 0.90632 0.04016 0.31744 0.0
Fe221 Fe 0.85846 0.96021 0.37303 0.0
O222 O 0.90447 0.97018 0.33792 0.0
Fe223 Fe 0.94812 0.90933 0.32399 0.0
O224 O 0.91196 0.90895 0.28457 0.0
O225 O 0.91639 1.00625 0.27502 0.0
O226 O 0.82583 0.03617 0.30924 0.0
C227 C 0.78574 0.03023 0.33094 0.0
C228 C 0.02587 1.00825 0.31474 0.0
O229 O 0.80055 1.01564 0.36013 0.0
C230 C 0.96034 0.88624 0.38802 0.0
O231 O 0.89409 0.08462 0.35673 0.0
O232 O 0.9008 1.0152 0.39539 0.0
O233 O 1.00949 0.95502 0.3087 0.0
O234 O 0.98811 0.04792 0.32371 0.0
C235 C 0.83677 0.85879 0.33917 0.0
O236 O 0.90569 0.90056 0.39224 0.0
O237 O 0.98703 0.90639 0.36319 0.0
C238 C 0.90013 0.06964 0.38714 0.0
O239 O 0.8147 0.90551 0.35166 0.0
O240 O 0.89286 0.85256 0.33568 0.0
C241 C 0.90811 0.95217 0.26482 0.0
Fe242 Fe 0.74855 0.16101 0.56814 0.0
Fe243 Fe 0.82928 0.12477 0.62592 0.0
O244 O 0.81889 0.16363 0.58865 0.0
Fe245 Fe 0.8772 0.20824 0.57359 0.0
O246 O 0.87924 0.16614 0.53616 0.0
O247 O 0.7825 0.17025 0.52558 0.0
O248 O 0.75615 0.07995 0.56159 0.0
C249 C 0.76383 0.04229 0.5846 0.0
C250 C 0.77517 0.28187 0.56301 0.0
O251 O 0.77907 0.06092 0.6133 0.0
C252 C 0.8976 0.23222 0.63695 0.0
O253 O 0.70364 0.14692 0.60739 0.0
O254 O 0.77095 0.17018 0.64369 0.0
O255 O 0.82803 0.26578 0.55565 0.0
O256 O 0.73757 0.24326 0.57334 0.0
C257 C 0.93524 0.10253 0.59812 0.0
O258 O 0.88491 0.17815 0.64411 0.0
O259 O 0.87734 0.25349 0.61063 0.0
C260 C 0.71816 0.15495 0.63778 0.0
O261 O 0.88808 0.0801 0.60936 0.0
O262 O 0.93711 0.15688 0.58832 0.0
C263 C 0.83674 0.16105 0.51598 0.0
Fe264 Fe 0.36446 0.93572 0.25596 0.0
Fe265 Fe 0.46004 0.91471 0.30902 0.0
O266 O 0.40979 0.96458 0.28852 0.0
Fe267 Fe 0.40306 0.04037 0.30223 0.0
O268 O 0.32051 0.0443 0.29668 0.0
O269 O 0.29597 0.95404 0.27784 0.0
O270 O 0.35936 0.86064 0.27288 0.0
C271 C 0.36131 0.845 0.30261 0.0
C272 C 0.38379 0.05656 0.23542 0.0
O273 O 0.39744 0.86881 0.32276 0.0
C274 C 0.53068 1.01366 0.3028 0.0
O275 O 0.42979 0.91393 0.23148 0.0
O276 O 0.47269 0.86751 0.27305 0.0
O277 O 0.41485 0.07182 0.26054 0.0
O278 O 0.35976 1.00551 0.23348 0.0
C279 C 0.41533 0.97901 0.36182 0.0
O280 O 0.52363 0.95853 0.29635 0.0
O281 O 0.48599 0.04739 0.31052 0.0
C282 C 0.46776 0.8765 0.24244 0.0
O283 O 0.45881 0.9515 0.34928 0.0
O284 O 0.38623 1.0159 0.34437 0.0
C285 C 0.28153 1.00392 0.29072 0.0
Fe286 Fe 0.36951 0.2067 1.05291 0.0
Fe287 Fe 0.23908 0.16219 1.05552 0.0
O288 O 0.31086 0.16165 1.03719 0.0
Fe289 Fe 0.32467 0.11548 1.00233 0.0
O290 O 0.37747 0.0722 1.02518 0.0
O291 O 0.42789 0.15066 1.04334 0.0
O292 O 0.36661 0.17197 0.09256 0.0
C293 C 0.32143 0.16636 0.11062 0.0
C294 C 0.3985 0.21761 0.98938 0.0
O295 O 0.2685 0.17302 0.09867 0.0
C296 C 0.21622 0.1549 0.98517 0.0
O297 O 0.32109 0.26878 0.06621 0.0
O298 O 0.23043 0.24394 1.04897 0.0
O299 O 0.38528 0.16271 0.98496 0.0
O300 O 0.37651 0.24476 1.01374 0.0
C301 C 0.25148 0.04164 1.04172 0.0
O302 O 0.19866 0.14889 1.01508 0.0
O303 O 0.27127 0.15734 0.97857 0.0
C304 C 0.26811 0.28342 1.05827 0.0
O305 O 0.24351 0.08132 0.06371 0.0
O306 O 0.26907 0.05727 1.01329 0.0
C307 C 0.4218 0.09416 1.04004 0.0
Fe308 Fe 0.12988 0.99252 0.80411 0.0
Fe309 Fe 0.17357 0.07343 0.74808 0.0
O310 O 0.12947 0.0627 0.78375 0.0
Fe311 Fe 0.08397 0.12204 0.7974 0.0
O312 O 0.11933 0.12376 0.83653 0.0
O313 O 0.11973 0.02672 0.8468 0.0
O314 O 0.20996 0.99878 0.812 0.0
C315 C 0.24922 1.00457 0.7899 0.0
C316 C 1.00949 0.02033 0.80706 0.0
O317 O 0.23345 0.01928 0.76081 0.0
C318 C 0.07088 0.1464 0.7341 0.0
O319 O 0.14398 0.94839 0.76445 0.0
O320 O 0.12919 1.01785 0.72725 0.0
O321 O 0.02368 0.07448 0.81251 0.0
O322 O 0.04854 0.98206 0.79808 0.0
C323 C 0.19563 0.17337 0.78305 0.0
O324 O 0.1255 0.13301 0.72933 0.0
O325 O 0.0452 0.12322 0.75829 0.0
C326 C 0.13869 0.96361 0.73393 0.0
O327 O 0.21752 0.12851 0.76859 0.0
O328 O 0.13922 0.17988 0.78605 0.0
C329 C 0.12677 0.08153 0.85642 0.0
Fe330 Fe 0.17506 0.82462 0.56424 0.0
Fe331 Fe 0.29753 0.88406 0.5529 0.0
O332 O 0.22033 0.87714 0.54251 0.0
Fe333 Fe 0.18547 0.92377 0.5128 0.0
O334 O 0.11626 0.92917 0.53572 0.0
O335 O 0.13362 0.88627 0.58349 0.0
O336 O 0.22145 0.82025 0.6012 0.0
C337 C 0.24663 0.8642 0.61461 0.0
C338 C 0.12151 0.82241 0.50122 0.0
O339 O 0.2782 0.89798 0.59666 0.0
C340 C 0.30172 0.9052 0.48522 0.0
O341 O 0.21608 0.76329 0.54579 0.0
O342 O 0.30573 0.80062 0.55844 0.0
O343 O 0.15771 0.85964 0.48892 0.0
O344 O 0.11875 0.81618 0.53203 0.0
C345 C 0.26019 1.00604 0.54434 0.0
O346 O 0.32301 0.8756 0.50957 0.0
O347 O 0.24954 0.92705 0.48604 0.0
C348 C 0.27196 0.75632 0.54999 0.0
O349 O 0.3007 0.96682 0.54909 0.0
O350 O 0.20896 0.99191 0.53357 0.0
C351 C 0.11093 0.92845 0.56667 0.0
C352 C 0.32973 0.49046 0.29761 0.0
C353 C 0.30744 0.51588 0.32714 0.0
C354 C 0.39224 0.48582 0.2918 0.0
C355 C 0.43413 0.50493 0.31575 0.0
H356 H 0.29885 0.47784 0.27807 0.0
H357 H 0.40762 0.47136 0.2677 0.0
S358 S 0.39866 0.56609 0.39887 0.0
N359 N 0.33244 0.55504 0.3815 0.0
N360 N 0.4485 0.54372 0.37136 0.0
C361 C 0.4119 0.52547 0.34631 0.0
C362 C 0.34901 0.53175 0.3518 0.0
C363 C 0.27928 0.64987 0.53085 0.0
C364 C 0.29145 0.6934 0.55526 0.0
C365 C 0.27982 0.5881 0.53823 0.0
C366 C 0.29049 0.56761 0.57062 0.0
H367 H 0.26599 0.66386 0.50628 0.0
H368 H 0.26774 0.5565 0.51888 0.0
S369 S 0.32766 0.66356 0.64308 0.0
N370 N 0.31809 0.71177 0.61257 0.0
N371 N 0.31718 0.59608 0.62682 0.0
C372 C 0.30534 0.61067 0.59491 0.0
C373 C 0.30632 0.67344 0.58713 0.0
C374 C 0.19776 0.54258 0.7989 0.0
C375 C 0.22254 0.52822 0.83016 0.0
C376 C 0.1348 0.54271 0.79312 0.0
C377 C 0.0938 0.52856 0.81836 0.0
H378 H 0.22724 0.5515 0.7783 0.0
H379 H 0.1184 0.55051 0.7683 0.0
S380 S 0.13342 0.49156 0.90502 0.0
N381 N 0.19883 0.50292 0.88712 0.0
N382 N 0.08239 0.50248 0.87601 0.0
C383 C 0.11774 0.51654 0.84987 0.0
C384 C 0.18134 0.51664 0.85584 0.0
C385 C 0.25796 0.37262 0.09535 0.0
C386 C 0.25075 0.34752 0.06367 0.0
C387 C 0.25536 0.43513 0.10071 0.0
C388 C 0.24637 0.47598 0.07453 0.0
H389 H 0.26812 0.34366 0.11611 0.0
H390 H 0.26287 0.45155 0.1256 0.0
S391 S 0.22465 0.4329 0.98648 0.0
N392 N 0.23326 0.36789 1.00565 0.0
N393 N 0.22856 0.48547 1.0154 0.0
C394 C 0.23706 0.45119 1.04271 0.0
C395 C 0.23933 0.3871 1.03736 0.0
C396 C 0.63657 0.54188 0.83204 0.0
C397 C 0.59442 0.53468 0.80628 0.0
C398 C 0.69923 0.54195 0.82587 0.0
C399 C 0.72262 0.53416 0.79367 0.0
H400 H 0.62123 0.54371 0.85737 0.0
H401 H 0.72954 0.54512 0.84677 0.0
S402 S 0.6303 0.51728 0.71741 0.0
N403 N 0.58042 0.52239 0.74733 0.0
N404 N 0.69658 0.52307 0.73549 0.0
C405 C 0.68038 0.52976 0.76762 0.0
C406 C 0.61697 0.52973 0.77399 0.0
C407 C 0.73664 0.38605 0.57898 0.0
C408 C 0.75807 0.34544 0.55487 0.0
C409 C 0.73473 0.44905 0.57309 0.0
C410 C 0.75407 0.47408 0.54284 0.0
H411 H 0.72449 0.36949 0.60315 0.0
H412 H 0.71994 0.47844 0.59285 0.0
S413 S 0.81305 0.38571 0.4716 0.0
N414 N 0.79698 0.33442 0.49946 0.0
N415 N 0.79455 0.4508 0.48849 0.0
C416 C 0.77346 0.43303 0.5183 0.0
C417 C 0.77519 0.36949 0.5243 0.0
C418 C 0.82548 0.52102 0.32939 0.0
C419 C 0.80315 0.49984 0.29899 0.0
C420 C 0.88749 0.52343 0.33593 0.0
C421 C 0.93013 0.5041 0.3125 0.0
H422 H 0.79505 0.54009 0.34732 0.0
H423 H 0.90236 0.54381 0.3589 0.0
S424 S 0.89537 0.44255 0.22941 0.0
N425 N 0.82887 0.45712 0.24553 0.0
N426 N 0.94525 0.46136 0.25792 0.0
C427 C 0.90845 0.48019 0.28256 0.0
C428 C 0.84513 0.4784 0.27573 0.0
C429 C 0.79469 0.58626 0.07641 0.0
C430 C 0.78789 0.562 1.04428 0.0
C431 C 0.79525 0.64921 0.0821 0.0
C432 C 0.78976 0.69037 1.05589 0.0
H433 H 0.79637 0.55653 0.09752 0.0
H434 H 0.79613 0.66563 0.10732 0.0
S435 S 0.77595 0.65185 0.96711 0.0
N436 N 0.77985 0.58605 0.98575 0.0
N437 N 0.78056 0.7028 0.99675 0.0
C438 C 0.78611 0.66693 1.02372 0.0
C439 C 0.78539 0.60332 1.01784 0.0
C440 C 0.84504 0.97696 0.79665 0.0
C441 C 0.81937 1.00434 0.82474 0.0
C442 C 0.90798 0.97698 0.79182 0.0
C443 C 0.94684 1.00331 0.8153 0.0
H444 H 0.81631 0.95905 0.77741 0.0
H445 H 0.9258 0.96015 0.76871 0.0
S446 S 0.9026 0.06926 0.89595 0.0
N447 N 0.83847 0.05041 0.87825 0.0
N448 N 0.95542 0.04921 0.86961 0.0
C449 C 0.92169 0.02534 0.84476 0.0
C450 C 0.85834 0.02609 0.84941 0.0
C451 C 0.77916 0.10342 0.09999 0.0
C452 C 0.78677 0.0624 0.07361 0.0
C453 C 0.77702 0.16589 0.09486 0.0
C454 C 0.78335 0.19071 0.06321 0.0
H455 H 0.77217 0.08723 0.12486 0.0
H456 H 0.76765 0.19503 0.11575 0.0
S457 S 0.8062 0.10484 0.98559 0.0
N458 N 0.80254 0.05242 1.01435 0.0
N459 N 0.79892 0.17 1.00503 0.0
C460 C 0.79362 0.15096 1.03671 0.0
C461 C 0.79533 0.08691 1.04183 0.0
C462 C 0.61534 0.05045 0.33874 0.0
C463 C 0.59407 0.03337 0.30728 0.0
C464 C 0.67743 0.05174 0.34597 0.0
C465 C 0.72076 0.03701 0.32188 0.0
H466 H 0.58377 0.05871 0.35853 0.0
H467 H 0.6915 0.06238 0.37094 0.0
S468 S 0.68801 0.99186 0.23523 0.0
N469 N 0.62119 1.003 0.25172 0.0
N470 N 0.73708 1.00724 0.26472 0.0
C471 C 0.69986 0.02298 0.28986 0.0
C472 C 0.63685 0.02062 0.28275 0.0
C473 C 0.7547 0.87179 0.59934 0.0
C474 C 0.74639 0.84703 0.56754 0.0
C475 C 0.7575 0.93453 0.60474 0.0
C476 C 0.75321 0.97594 0.57848 0.0
H477 H 0.76227 0.84214 0.62012 0.0
H478 H 0.76562 0.95048 0.62967 0.0
S479 S 0.73176 0.93419 0.4901 0.0
N480 N 0.7336 0.86886 0.50941 0.0
N481 N 0.73891 0.98627 0.51907 0.0
C482 C 0.74298 0.95164 0.54656 0.0
C483 C 0.73968 0.88755 0.54122 0.0
C484 C 0.11328 0.99755 0.27762 0.0
C485 C 0.08939 0.02236 0.30682 0.0
C486 C 0.17523 0.99428 0.27229 0.0
C487 C 0.21646 1.01622 0.29573 0.0
H488 H 0.08372 0.97745 0.25936 0.0
H489 H 0.19103 0.97259 0.24992 0.0
S490 S 0.17776 0.0876 0.37585 0.0
N491 N 0.11194 0.07092 0.3592 0.0
N492 N 0.22904 0.06616 0.34881 0.0
C493 C 0.19344 0.0443 0.32429 0.0
C494 C 0.12977 0.04708 0.32991 0.0
C495 C 0.23899 0.93473 1.02221 0.0
C496 C 0.24125 0.97621 1.04866 0.0
C497 C 0.2389 0.87227 1.02762 0.0
C498 C 0.24029 0.84824 1.05967 0.0
H499 H 0.24 0.95047 0.99695 0.0
H500 H 0.2412 0.8424 1.00644 0.0
S501 S 0.24494 0.93602 0.13763 0.0
N502 N 0.24298 0.98779 0.10847 0.0
N503 N 0.2429 0.87039 0.11831 0.0
C504 C 0.23981 0.88876 0.0864 0.0
C505 C 0.24007 0.95264 0.08098 0.0
C506 C 0.41829 0.97718 0.78073 0.0
C507 C 0.44075 0.99138 0.81236 0.0
C508 C 0.35614 0.97938 0.77377 0.0
C509 C 0.31404 0.99504 0.79831 0.0
H510 H 0.44916 0.96875 0.76062 0.0
H511 H 0.34119 0.97075 0.74872 0.0
S512 S 0.35024 0.0348 0.88533 0.0
N513 N 0.41612 0.02061 0.86842 0.0
N514 N 0.30004 0.02311 0.85592 0.0
C515 C 0.33601 1.00627 0.83045 0.0
C516 C 0.39909 1.0049 0.8373 0.0
C517 C 0.25438 0.17257 0.52705 0.0
C518 C 0.27674 0.19901 0.55622 0.0
C519 C 0.25258 0.11011 0.52295 0.0
C520 C 0.27339 0.07115 0.54774 0.0
H521 H 0.23482 0.20048 0.50792 0.0
H522 H 0.23236 0.09207 0.50063 0.0
S523 S 0.33995 0.11716 0.62795 0.0
N524 N 0.3231 0.18152 0.60971 0.0
N525 N 0.32069 0.06327 0.60171 0.0
C526 C 0.29963 0.09671 0.57617 0.0
C527 C 0.3011 0.1609 0.58048 0.0
C528 C 0.26261 0.71203 0.29634 0.0
C529 C 0.20998 0.73381 0.31101 0.0
C530 C 0.31495 0.74628 0.29712 0.0
C531 C 0.31584 0.80282 0.31262 0.0
H532 H 0.26392 0.66737 0.28545 0.0
H533 H 0.35474 0.72925 0.28497 0.0
S534 S 0.18954 0.87922 0.3546 0.0
N535 N 0.16161 0.81422 0.34191 0.0
N536 N 0.26035 0.87954 0.34262 0.0
C537 C 0.26374 0.82477 0.32763 0.0
C538 C 0.2105 0.79003 0.32685 0.0
C539 C 0.07244 0.55043 0.56462 0.0
C540 C 0.06019 0.48958 0.57113 0.0
C541 C 0.02827 0.58784 0.55162 0.0
C542 C 0.9709 0.56523 0.54482 0.0
H543 H 0.11657 0.56918 0.56921 0.0
H544 H 0.03914 0.63452 0.54682 0.0
S545 S 0.91596 0.40956 0.55891 0.0
N546 N 0.98695 0.40844 0.57037 0.0
N547 N 0.90314 0.47911 0.54667 0.0
C548 C 0.958 0.5045 0.55148 0.0
C549 C 1.00297 0.46647 0.56448 0.0
C550 C 0.25278 0.31902 0.81737 0.0
C551 C 0.31335 0.30546 0.82384 0.0
C552 C 0.21481 0.27603 0.80381 0.0
C553 C 0.23651 0.21853 0.79611 0.0
H554 H 0.23462 0.36343 0.82237 0.0
H555 H 0.16837 0.28809 0.79922 0.0
S556 S 0.39115 0.1602 0.8099 0.0
N557 N 0.39314 0.23068 0.82274 0.0
N558 N 0.3217 0.14906 0.79704 0.0
C559 C 0.29699 0.20415 0.80279 0.0
C560 C 0.33554 0.24795 0.81671 0.0
C561 C 0.51731 0.4629 0.06905 0.0
C562 C 0.55812 0.48028 1.0447 0.0
C563 C 0.47377 0.50286 0.0802 0.0
C564 C 0.46964 0.56143 0.06729 0.0
H565 H 0.51975 0.41866 0.08015 0.0
H566 H 0.44337 0.48765 0.09922 0.0
S567 S 0.56337 0.62727 1.00127 0.0
N568 N 0.59024 0.55874 1.00665 0.0
N569 N 0.50787 0.63411 1.02787 0.0
C570 C 0.50959 0.57919 1.04256 0.0
C571 C 0.55391 0.53841 1.0311 0.0
C572 C 0.82121 0.25732 0.80667 0.0
C573 C 0.81057 0.29918 0.78169 0.0
C574 C 0.77889 0.21342 0.8134 0.0
C575 C 0.72497 0.21 0.79522 0.0
H576 H 0.86032 0.26089 0.82255 0.0
H577 H 0.78728 0.18382 0.83412 0.0
S578 S 0.68338 0.30022 0.72209 0.0
N579 N 0.7481 0.32839 0.73473 0.0
N580 N 0.66788 0.24488 0.74777 0.0
C581 C 0.71681 0.24724 0.76787 0.0
C582 C 0.7599 0.29239 0.76105 0.0
C583 C 0.81708 0.77132 0.30374 0.0
C584 C 0.79698 0.81121 0.32821 0.0
C585 C 0.77843 0.72914 0.29016 0.0
C586 C 0.71868 0.72556 0.30079 0.0
H587 H 0.8625 0.77358 0.29436 0.0
H588 H 0.79551 0.69943 0.27108 0.0
S589 S 0.64607 0.81649 0.36655 0.0
N590 N 0.71515 0.84272 0.36416 0.0
N591 N 0.64187 0.76255 0.33852 0.0
C592 C 0.69827 0.7643 0.32581 0.0
C593 C 0.73774 0.80735 0.33967 0.0
C594 C 0.5722 0.0371 0.06744 0.0
C595 C 0.56113 0.97547 0.07227 0.0
C596 C 0.52666 0.07551 1.05711 0.0
C597 C 0.4688 0.05335 1.0512 0.0
H598 H 0.61661 0.05581 0.0712 0.0
H599 H 0.53715 0.12258 1.05329 0.0
S600 S 0.41583 0.8962 0.06235 0.0
N601 N 0.488 0.8942 0.07156 0.0
N602 N 0.40151 0.96681 1.05255 0.0
C603 C 0.45675 0.99193 1.05645 0.0
C604 C 0.50327 0.95277 0.06684 0.0
C605 C 0.0739 0.03231 0.56466 0.0
C606 C 0.07546 0.97675 0.58131 0.0
C607 C 0.03132 0.0757 0.57238 0.0
C608 C 0.98864 0.06449 0.59673 0.0
H609 H 0.10341 0.04108 0.54406 0.0
H610 H 0.02904 0.11598 0.55743 0.0
S611 S 0.98407 0.93327 0.65329 0.0
N612 N 0.03904 0.91768 0.62735 0.0
N613 N 0.95771 0.99979 0.64218 0.0
C614 C 0.99417 1.01229 0.61628 0.0
C615 C 0.03817 0.96812 0.6085 0.0
C616 C 0.10938 0.42085 0.43598 0.0
C617 C 0.15214 0.43469 0.41201 0.0
C618 C 0.12698 0.39977 0.46728 0.0
C619 C 0.18832 0.39232 0.47629 0.0
H620 H 0.06239 0.43059 0.43146 0.0
H621 H 0.09172 0.39236 0.48513 0.0
S622 S 0.31729 0.41551 0.42034 0.0
N623 N 0.25805 0.43393 0.39786 0.0
N624 N 0.29105 0.39501 0.45668 0.0
C625 C 0.23117 0.40218 0.45162 0.0
C626 C 0.2131 0.4232 0.41961 0.0
C627 C 0.3973 0.47762 0.70255 0.0
C628 C 0.39403 0.4375 0.72935 0.0
C629 C 0.37873 0.45989 0.67041 0.0
C630 C 0.35646 0.40146 0.66392 0.0
H631 H 0.41299 0.52319 0.7065 0.0
H632 H 0.37816 0.49326 0.65101 0.0
S633 S 0.33833 0.27901 0.72463 0.0
N634 N 0.36638 0.3355 0.74619 0.0
N635 N 0.33292 0.30395 0.68647 0.0
C636 C 0.35496 0.36069 0.69007 0.0
C637 C 0.37317 0.37825 0.72252 0.0
C638 C 0.3488 0.64636 0.91893 0.0
C639 C 0.38132 0.59166 0.92 0.0
C640 C 0.32096 0.67049 0.94764 0.0
C641 C 0.32214 0.63923 0.97793 0.0
H642 H 0.34523 0.67085 0.89595 0.0
H643 H 0.29997 0.71443 0.94636 0.0
S644 S 0.39984 0.49497 0.99487 0.0
N645 N 0.41428 0.50905 0.95582 0.0
N646 N 0.35715 0.55125 1.00721 0.0
C647 C 0.3527 0.58417 0.97901 0.0
C648 C 0.38354 0.56136 0.95088 0.0
C649 C 0.22087 0.59261 0.18999 0.0
C650 C 0.18713 0.62724 0.16725 0.0
C651 C 0.19497 0.56712 0.21811 0.0
C652 C 0.13395 0.57541 0.22537 0.0
H653 H 0.26845 0.58515 0.18624 0.0
H654 H 0.2239 0.54281 0.23502 0.0
S655 S 0.02413 0.65837 0.17303 0.0
N656 N 0.08822 0.66493 0.15295 0.0
N657 N 0.03922 0.61838 0.20639 0.0
C658 C 0.09889 0.60826 0.20239 0.0
C659 C 0.12542 0.6336 0.17323 0.0
C660 C 0.80946 0.64404 0.66969 0.0
C661 C 0.84783 0.64309 0.64207 0.0
C662 C 0.83002 0.62552 0.70131 0.0
C663 C 0.88974 0.60577 0.70652 0.0
H664 H 0.76311 0.65787 0.66678 0.0
H665 H 0.79801 0.62318 0.72133 0.0
S666 S 1.00863 0.59389 0.64338 0.0
N667 N 0.94971 0.61975 0.62315 0.0
N668 N 0.98641 0.5868 0.6819 0.0
C669 C 0.9286 0.60628 0.67955 0.0
C670 C 0.9082 0.62429 0.64762 0.0
C671 C 0.60003 0.6364 0.41227 0.0
C672 C 0.62612 0.58889 0.39374 0.0
C673 C 0.62411 0.65516 0.44315 0.0
C674 C 0.6766 0.62862 0.45608 0.0
H675 H 0.5619 0.66065 0.40225 0.0
H676 H 0.60383 0.69306 0.45582 0.0
S677 S 0.7643 0.50582 0.41542 0.0
N678 N 0.70615 0.51583 0.39083 0.0
N679 N 0.75529 0.55441 0.44586 0.0
C680 C 0.70263 0.5811 0.4374 0.0
C681 C 0.67641 0.56033 0.40713 0.0
C682 C 0.7309 0.42902 0.16153 0.0
C683 C 0.69912 0.38345 0.1451 0.0
C684 C 0.70967 0.45328 0.19143 0.0
C685 C 0.65664 0.43213 0.2066 0.0
H686 H 0.76952 0.44952 0.14995 0.0
H687 H 0.73321 0.49162 0.20168 0.0
S688 S 0.56114 0.30811 0.17564 0.0
N689 N 0.6147 0.31407 0.14773 0.0
N690 N 0.57599 0.35942 0.20416 0.0
C691 C 0.62706 0.38355 0.19175 0.0
C692 C 0.64809 0.35927 0.16101 0.0
C693 C 0.85323 0.47784 0.91041 0.0
C694 C 0.89792 0.44463 0.89426 0.0
C695 C 0.8296 0.45812 0.94054 0.0
C696 C 0.8508 0.40548 0.95631 0.0
H697 H 0.83305 0.51655 0.8985 0.0
H698 H 0.79174 0.48249 0.95054 0.0
S699 S 0.97232 0.30629 0.92595 0.0
N700 N 0.96609 0.3589 0.89739 0.0
N701 N 0.9222 0.32318 0.95454 0.0
C702 C 0.89829 0.3742 0.94158 0.0
C703 C 0.92177 0.39356 0.91049 0.0
C704 C 0.7267 0.9394 0.92531 0.0
C705 C 0.66823 0.93344 0.91182 0.0
C706 C 0.7425 0.91483 0.95606 0.0
C707 C 0.70043 0.88324 0.97487 0.0
H708 H 0.76011 0.96596 0.91262 0.0
H709 H 0.78684 0.92387 0.96595 0.0
S710 S 0.54381 0.84719 0.94872 0.0
N711 N 0.57025 0.88821 0.91815 0.0
N712 N 0.59924 0.84096 0.9757 0.0
C713 C 0.64304 0.87288 0.96047 0.0
C714 C 0.62714 0.89805 0.92902 0.0
C715 C 0.86269 0.85681 0.19021 0.0
C716 C 0.85949 0.89768 0.16403 0.0
C717 C 0.88059 0.87506 0.22191 0.0
C718 C 0.89505 0.9357 0.22945 0.0
H719 H 0.84776 0.81082 0.18663 0.0
H720 H 0.88025 0.84114 0.24102 0.0
S721 S 0.89679 0.06036 0.16881 0.0
N722 N 0.87534 1.00116 0.14696 0.0
N723 N 0.90802 0.03596 0.20684 0.0
C724 C 0.8945 0.97676 0.20307 0.0
C725 C 0.87704 0.95767 0.1704 0.0
C726 C 0.81171 0.14542 0.45486 0.0
C727 C 0.85409 0.14738 0.48078 0.0
C728 C 0.82847 0.12768 0.42255 0.0
C729 C 0.88824 0.11165 0.41486 0.0
H730 H 0.76496 0.15518 0.45981 0.0
H731 H 0.79356 0.12203 0.40411 0.0
S732 S 0.01745 0.11141 0.47242 0.0
N733 N 0.96029 0.134 0.4951 0.0
N734 N 0.9897 0.10077 0.43508 0.0
C735 C 0.93127 0.11633 0.4399 0.0
C736 C 0.91478 0.13407 0.47259 0.0
C737 C 0.62795 0.12288 0.67244 0.0
C738 C 0.6894 0.11886 0.66488 0.0
C739 C 0.60411 0.09409 0.70069 0.0
C740 C 0.64039 0.05884 0.72206 0.0
H741 H 0.59873 0.15061 0.6574 0.0
H742 H 0.55715 0.10107 0.70639 0.0
S743 S 0.80343 0.02998 0.71193 0.0
N744 N 0.78551 0.07429 0.68091 0.0
N745 N 0.7403 0.0192 0.73209 0.0
C746 C 0.70106 0.05196 0.71363 0.0
C747 C 0.72557 0.0822 0.68566 0.0
C748 C 0.39311 0.15271 0.15844 0.0
C749 C 0.33341 0.15036 0.14599 0.0
C750 C 0.40919 0.1275 0.18912 0.0
C751 C 0.36617 0.09909 0.20872 0.0
H752 H 0.42874 0.17151 0.1436 0.0
H753 H 0.45605 0.12653 0.19634 0.0
S754 S 0.20274 0.08797 0.19052 0.0
N755 N 0.23055 0.1225 0.15798 0.0
N756 N 0.2602 0.07604 0.21553 0.0
C757 C 0.30569 0.10074 0.19791 0.0
C758 C 0.28939 0.12615 0.16668 0.0
C759 C 0.15738 0.08142 0.95046 0.0
C760 C 0.17725 0.14094 0.95638 0.0
C761 C 0.14011 0.06174 0.91844 0.0
C762 C 0.14256 0.10083 0.89115 0.0
H763 H 0.15896 0.04879 0.97024 0.0
H764 H 0.12645 1.01541 0.91493 0.0
S765 S 0.19207 0.26174 0.8945 0.0
N766 N 0.19754 0.23836 0.93294 0.0
N767 N 0.16669 0.20344 0.87342 0.0
C768 C 0.16102 0.1612 0.89746 0.0
C769 C 0.1778 0.18068 0.92981 0.0
C770 C 0.21586 0.96323 0.68931 0.0
C771 C 0.17247 0.93086 0.70749 0.0
C772 C 0.2428 0.93966 0.66083 0.0
C773 C 0.22747 0.88249 0.6487 0.0
H774 H 0.22765 1.00878 0.69638 0.0
H775 H 0.27355 0.968 0.64731 0.0
S776 S 0.1205 0.77653 0.6885 0.0
N777 N 0.1188 0.83679 0.71254 0.0
N778 N 0.16901 0.79155 0.65891 0.0
C779 C 0.18664 0.84793 0.66766 0.0
C780 C 0.1593 0.87224 0.69699 0.0
C781 C 0.34729 0.99572 0.40995 0.0
C782 C 0.39435 0.96281 0.39573 0.0
C783 C 0.3202 0.97715 0.43926 0.0
C784 C 0.33811 0.92419 0.45603 0.0
H785 H 0.32984 0.03559 0.39792 0.0
H786 H 0.28362 1.00461 0.44849 0.0
S787 S 0.46264 0.82359 0.43075 0.0
N788 N 0.46079 0.87596 0.4019 0.0
N789 N 0.40892 0.84117 0.45714 0.0
C790 C 0.38705 0.89212 0.4431 0.0
C791 C 0.41518 0.91126 0.41296 0.0
C792 C 0.06873 0.75883 0.40175 0.0
C793 C 0.03141 0.70825 0.39795 0.0
C794 C 0.04473 0.8173 0.40239 0.0
C795 C 0.98244 0.82722 0.40019 0.0
H796 H 0.11702 0.75371 0.40015 0.0
H797 H 0.07532 0.85512 0.40191 0.0
S798 S 0.86527 0.70852 0.39629 0.0
N799 N 0.92938 0.67106 0.39594 0.0
N800 N 0.88359 0.78033 0.39938 0.0
C801 C 0.94444 0.77647 0.40052 0.0
C802 C 0.96912 0.7171 0.39895 0.0
C803 C 0.06518 0.24347 0.6455 0.0
C804 C 0.075 0.306 0.6452 0.0
C805 C 1.00709 0.2196 0.64715 0.0
C806 C 0.95618 0.25729 0.64745 0.0
H807 H 0.10264 0.21264 0.64286 0.0
H808 H 1.00213 0.17121 0.6458 0.0
S809 S 0.95681 0.42401 0.65112 0.0
N810 N 0.02852 0.40525 0.64943 0.0
N811 N 0.91928 0.35998 0.65037 0.0
C812 C 0.96529 0.31977 0.64906 0.0
C813 C 0.02462 0.34422 0.64848 0.0
C814 C 0.46406 0.2733 0.89589 0.0
C815 C 0.50218 0.32392 0.89528 0.0
C816 C 0.4873 0.21482 0.89309 0.0
C817 C 0.54934 0.20489 0.89074 0.0
H818 H 0.41577 0.27885 0.89486 0.0
H819 H 0.45635 0.17778 0.88944 0.0
S820 S 0.66841 0.32085 0.89534 0.0
N821 N 0.60507 0.35955 0.89698 0.0
N822 N 0.64875 0.24927 0.89331 0.0
C823 C 0.58801 0.25438 0.89445 0.0
C824 C 0.56441 0.31406 0.89632 0.0
C825 C 0.53069 0.82974 0.14187 0.0
C826 C 0.58056 0.79055 0.14134 0.0
C827 C 0.47187 0.80753 0.14018 0.0
C828 C 0.46059 0.74534 0.13891 0.0
H829 H 0.53701 0.87803 0.14092 0.0
H830 H 0.43505 0.8393 0.13835 0.0
S831 S 0.57576 0.62388 0.14159 0.0
N832 N 0.61486 0.6869 0.14231 0.0
N833 N 0.50462 0.64471 0.14068 0.0
C834 C 0.51005 0.70565 0.14116 0.0
C835 C 0.56989 0.72837 0.14206 0.0
C836 C 0.98577 0.21729 0.72517 0.0
C837 C 0.0481 0.20677 0.72451 0.0
C838 C 0.96231 0.27587 0.72623 0.0
C839 C 1.00028 0.32643 0.72748 0.0
H840 H 0.95489 0.17978 0.72667 0.0
H841 H 0.91416 0.28123 0.72837 0.0
S842 S 0.16633 0.32463 0.72279 0.0
N843 N 0.1472 0.25286 0.72157 0.0
N844 N 0.10278 0.3627 0.72549 0.0
C845 C 0.06244 0.3169 0.72518 0.0
C846 C 0.08642 0.25724 0.72312 0.0
C847 C 0.99879 0.71831 0.47729 0.0
C848 C 0.94863 0.75714 0.47809 0.0
C849 C 0.05727 0.74075 0.48037 0.0
C850 C 0.06786 0.8028 0.48313 0.0
H851 H 0.99285 0.66994 0.47741 0.0
H852 H 0.09399 0.70913 0.48334 0.0
S853 S 0.95306 0.92381 0.48142 0.0
N854 N 0.91396 0.86086 0.4787 0.0
N855 N 0.0243 0.90312 0.48286 0.0
C856 C 0.01872 0.84234 0.48065 0.0
C857 C 0.95899 0.81949 0.47852 0.0
C858 C 0.57508 0.75748 0.2218 0.0
C859 C 0.53676 0.70707 0.22221 0.0
C860 C 0.55175 0.81611 0.22214 0.0
C861 C 0.48953 0.82632 0.22216 0.0
H862 H 0.62309 0.75194 0.22492 0.0
H863 H 0.58235 0.85328 0.2263 0.0
S864 S 0.37109 0.71007 0.21457 0.0
N865 N 0.43432 0.67129 0.21688 0.0
N866 N 0.39061 0.78176 0.21604 0.0
C867 C 0.45131 0.77658 0.21787 0.0
C868 C 0.47488 0.71682 0.21845 0.0
C869 C 0.46666 0.30338 0.97693 0.0
C870 C 0.45676 0.24082 0.97715 0.0
C871 C 0.52497 0.32706 0.97646 0.0
C872 C 0.57565 0.28901 0.97687 0.0
H873 H 0.42921 0.33423 0.97951 0.0
H874 H 0.53018 0.37537 0.97879 0.0
S875 S 0.57466 0.12247 0.97206 0.0
N876 N 0.50297 0.1415 0.9729 0.0
N877 N 0.61235 0.18635 0.97339 0.0
C878 C 0.56643 0.22671 0.97424 0.0
C879 C 0.50705 0.20251 0.97395 0.0
loop_
_geom_bond_atom_site_label_1
_geom_bond_atom_site_label_2
_geom_bond_distance
_geom_bond_site_symmetry_2
_ccdc_geom_bond_type
Fe0 O2 1.918 . S
Fe0 O5 1.997 . S
Fe0 O6 2.002 . S
Fe0 O11 1.976 . S
Fe0 O14 1.996 . S
Fe1 O2 1.918 . S
Fe1 O9 1.997 . S
Fe1 O12 1.996 . S
Fe1 O16 1.976 . S
Fe1 O19 2.002 . S
O2 Fe0 1.918 . S
O2 Fe1 1.918 . S
O2 Fe3 1.918 . S
Fe3 O2 1.918 . S
Fe3 O4 2.002 . S
Fe3 O13 1.976 . S
Fe3 O17 1.996 . S
Fe3 O20 1.997 . S
O4 Fe3 2.002 . S
O4 C21 1.295 . S
O5 Fe0 1.997 . S
O5 C21 1.235 . S
O6 Fe0 2.002 . S
O6 C7 1.295 . S
C7 O6 1.295 . S
C7 O9 1.235 . S
C8 O13 1.287 . S
C8 O14 1.255 . S
O9 Fe1 1.997 . S
O9 C7 1.235 . S
C10 O16 1.287 . S
C10 O17 1.255 . S
O11 Fe0 1.976 . S
O11 C18 1.287 . S
O12 Fe1 1.996 . S
O12 C18 1.255 . S
O13 Fe3 1.976 . S
O13 C8 1.287 . S
O14 Fe0 1.996 . S
O14 C8 1.255 . S
C15 O19 1.295 . S
C15 O20 1.235 . S
O16 Fe1 1.976 . S
O16 C10 1.287 . S
O17 Fe3 1.996 . S
O17 C10 1.255 . S
C18 O11 1.287 . S
C18 O12 1.255 . S
O19 Fe1 2.002 . S
O19 C15 1.295 . S
O20 Fe3 1.997 . S
O20 C15 1.235 . S
C21 O4 1.295 . S
C21 O5 1.235 . S
Fe22 O24 1.918 . S
Fe22 O27 1.997 . S
Fe22 O28 2.002 . S
Fe22 O33 1.976 . S
Fe22 O36 1.996 . S
Fe23 O24 1.918 . S
Fe23 O31 1.997 . S
Fe23 O34 1.996 . S
Fe23 O38 1.976 . S
Fe23 O41 2.002 . S
O24 Fe22 1.918 . S
O24 Fe23 1.918 . S
O24 Fe25 1.918 . S
Fe25 O24 1.918 . S
Fe25 O26 2.002 . S
Fe25 O35 1.976 . S
Fe25 O39 1.996 . S
Fe25 O42 1.997 . S
O26 Fe25 2.002 . S
O26 C43 1.295 . S
O27 Fe22 1.997 . S
O27 C43 1.235 . S
O28 Fe22 2.002 . S
O28 C29 1.295 . S
C29 O28 1.295 . S
C29 O31 1.235 . S
C30 O35 1.287 . S
C30 O36 1.255 . S
O31 Fe23 1.997 . S
O31 C29 1.235 . S
C32 O38 1.287 . S
C32 O39 1.255 . S
O33 Fe22 1.976 . S
O33 C40 1.287 . S
O34 Fe23 1.996 . S
O34 C40 1.255 . S
O35 Fe25 1.976 . S
O35 C30 1.287 . S
O36 Fe22 1.996 . S
O36 C30 1.255 . S
C37 O41 1.295 . S
C37 O42 1.235 . S
O38 Fe23 1.976 . S
O38 C32 1.287 . S
O39 Fe25 1.996 . S
O39 C32 1.255 . S
C40 O33 1.287 . S
C40 O34 1.255 . S
O41 Fe23 2.002 . S
O41 C37 1.295 . S
O42 Fe25 1.997 . S
O42 C37 1.235 . S
C43 O26 1.295 . S
C43 O27 1.235 . S
Fe44 O46 1.918 . S
Fe44 O49 1.997 . S
Fe44 O50 2.002 . S
Fe44 O55 1.976 . S
Fe44 O58 1.996 . S
Fe45 O46 1.918 . S
Fe45 O53 1.997 . S
Fe45 O56 1.996 . S
Fe45 O60 1.976 . S
Fe45 O63 2.002 . S
O46 Fe44 1.918 . S
O46 Fe45 1.918 . S
O46 Fe47 1.918 . S
Fe47 O46 1.918 . S
Fe47 O48 2.002 . S
Fe47 O57 1.976 . S
Fe47 O61 1.996 . S
Fe47 O64 1.997 . S
O48 Fe47 2.002 . S
O48 C65 1.295 . S
O49 Fe44 1.997 . S
O49 C65 1.235 . S
O50 Fe44 2.002 . S
O50 C51 1.295 . S
C51 O50 1.295 . S
C51 O53 1.235 . S
C52 O57 1.287 . S
C52 O58 1.255 . S
O53 Fe45 1.997 . S
O53 C51 1.235 . S
C54 O60 1.287 . S
C54 O61 1.255 . S
O55 Fe44 1.976 . S
O55 C62 1.287 . S
O56 Fe45 1.996 . S
O56 C62 1.255 . S
O57 Fe47 1.976 . S
O57 C52 1.287 . S
O58 Fe44 1.996 . S
O58 C52 1.255 . S
C59 O63 1.295 . S
C59 O64 1.235 . S
O60 Fe45 1.976 . S
O60 C54 1.287 . S
O61 Fe47 1.996 . S
O61 C54 1.255 . S
C62 O55 1.287 . S
C62 O56 1.255 . S
O63 Fe45 2.002 . S
O63 C59 1.295 . S
O64 Fe47 1.997 . S
O64 C59 1.235 . S
C65 O48 1.295 . S
C65 O49 1.235 . S
Fe66 O68 1.918 . S
Fe66 O71 1.997 1_554 S
Fe66 O72 2.002 . S
Fe66 O77 1.976 . S
Fe66 O80 1.997 . S
Fe67 O68 1.918 . S
Fe67 O75 1.997 . S
Fe67 O78 1.996 . S
Fe67 O82 1.976 . S
Fe67 O85 2.002 . S
O68 Fe66 1.918 . S
O68 Fe67 1.918 . S
O68 Fe69 1.918 1_554 S
Fe69 O68 1.918 1_556 S
Fe69 O70 2.002 . S
Fe69 O79 1.976 . S
Fe69 O83 1.996 1_556 S
Fe69 O86 1.997 . S
O70 Fe69 2.002 . S
O70 C87 1.295 . S
O71 Fe66 1.997 1_556 S
O71 C87 1.235 . S
O72 Fe66 2.002 . S
O72 C73 1.295 . S
C73 O72 1.295 . S
C73 O75 1.235 . S
C74 O79 1.287 . S
C74 O80 1.253 1_556 S
O75 Fe67 1.997 . S
O75 C73 1.235 . S
C76 O82 1.287 . S
C76 O83 1.255 . S
O77 Fe66 1.976 . S
O77 C84 1.287 . S
O78 Fe67 1.996 . S
O78 C84 1.255 . S
O79 Fe69 1.976 . S
O79 C74 1.287 . S
O80 Fe66 1.997 . S
O80 C74 1.253 1_554 S
C81 O85 1.295 1_556 S
C81 O86 1.235 . S
O82 Fe67 1.976 . S
O82 C76 1.287 . S
O83 Fe69 1.996 1_554 S
O83 C76 1.255 . S
C84 O77 1.287 . S
C84 O78 1.255 . S
O85 Fe67 2.002 . S
O85 C81 1.295 1_554 S
O86 Fe69 1.997 . S
O86 C81 1.235 . S
C87 O70 1.295 . S
C87 O71 1.235 . S
Fe88 O90 1.918 . S
Fe88 O93 1.997 . S
Fe88 O94 2.002 . S
Fe88 O99 1.976 . S
Fe88 O102 1.996 . S
Fe89 O90 1.918 . S
Fe89 O97 1.997 . S
Fe89 O100 1.996 . S
Fe89 O104 1.976 . S
Fe89 O107 2.002 . S
O90 Fe88 1.918 . S
O90 Fe89 1.918 . S
O90 Fe91 1.918 . S
Fe91 O90 1.918 . S
Fe91 O92 2.002 . S
Fe91 O101 1.976 . S
Fe91 O105 1.996 . S
Fe91 O108 1.997 . S
O92 Fe91 2.002 . S
O92 C109 1.295 . S
O93 Fe88 1.997 . S
O93 C109 1.235 . S
O94 Fe88 2.002 . S
O94 C95 1.295 . S
C95 O94 1.295 . S
C95 O97 1.235 . S
C96 O101 1.287 . S
C96 O102 1.255 . S
O97 Fe89 1.997 . S
O97 C95 1.235 . S
C98 O104 1.287 . S
C98 O105 1.255 . S
O99 Fe88 1.976 . S
O99 C106 1.287 . S
O100 Fe89 1.996 . S
O100 C106 1.255 . S
O101 Fe91 1.976 . S
O101 C96 1.287 . S
O102 Fe88 1.996 . S
O102 C96 1.255 . S
C103 O107 1.295 . S
C103 O108 1.235 . S
O104 Fe89 1.976 . S
O104 C98 1.287 . S
O105 Fe91 1.996 . S
O105 C98 1.255 . S
C106 O99 1.287 . S
C106 O100 1.255 . S
O107 Fe89 2.002 . S
O107 C103 1.295 . S
O108 Fe91 1.997 . S
O108 C103 1.235 . S
C109 O92 1.295 . S
C109 O93 1.235 . S
Fe110 O112 1.918 . S
Fe110 O115 1.997 . S
Fe110 O116 2.002 . S
Fe110 O121 1.976 . S
Fe110 O124 1.996 . S
Fe111 O112 1.918 . S
Fe111 O119 1.997 . S
Fe111 O122 1.996 . S
Fe111 O126 1.976 . S
Fe111 O129 2.002 . S
O112 Fe110 1.918 . S
O112 Fe111 1.918 . S
O112 Fe113 1.918 . S
Fe113 O112 1.918 . S
Fe113 O114 2.002 . S
Fe113 O123 1.976 . S
Fe113 O127 1.996 . S
Fe113 O130 1.997 . S
O114 Fe113 2.002 . S
O114 C131 1.295 . S
O115 Fe110 1.997 . S
O115 C131 1.235 . S
O116 Fe110 2.002 . S
O116 C117 1.295 . S
C117 O116 1.295 . S
C117 O119 1.235 . S
C118 O123 1.287 . S
C118 O124 1.255 . S
O119 Fe111 1.997 . S
O119 C117 1.235 . S
C120 O126 1.287 . S
C120 O127 1.255 . S
O121 Fe110 1.976 . S
O121 C128 1.287 . S
O122 Fe111 1.996 . S
O122 C128 1.255 . S
O123 Fe113 1.976 . S
O123 C118 1.287 . S
O124 Fe110 1.996 . S
O124 C118 1.255 . S
C125 O129 1.295 . S
C125 O130 1.235 . S
O126 Fe111 1.976 . S
O126 C120 1.287 . S
O127 Fe113 1.996 . S
O127 C120 1.255 . S
C128 O121 1.287 . S
C128 O122 1.255 . S
O129 Fe111 2.002 . S
O129 C125 1.295 . S
O130 Fe113 1.997 . S
O130 C125 1.235 . S
C131 O114 1.295 . S
C131 O115 1.235 . S
Fe132 O134 1.918 . S
Fe132 O137 1.997 . S
Fe132 O138 2.002 . S
Fe132 O143 1.976 . S
Fe132 O146 1.996 . S
Fe133 O134 1.918 . S
Fe133 O141 1.997 . S
Fe133 O144 1.996 . S
Fe133 O148 1.976 . S
Fe133 O151 2.002 . S
O134 Fe132 1.918 . S
O134 Fe133 1.918 . S
O134 Fe135 1.918 . S
Fe135 O134 1.918 . S
Fe135 O136 2.002 . S
Fe135 O145 1.976 . S
Fe135 O149 1.996 . S
Fe135 O152 1.997 . S
O136 Fe135 2.002 . S
O136 C153 1.295 . S
O137 Fe132 1.997 . S
O137 C153 1.235 . S
O138 Fe132 2.002 . S
O138 C139 1.295 . S
C139 O138 1.295 . S
C139 O141 1.235 . S
C140 O145 1.287 . S
C140 O146 1.255 . S
O141 Fe133 1.997 . S
O141 C139 1.235 . S
C142 O148 1.287 . S
C142 O149 1.255 . S
O143 Fe132 1.976 . S
O143 C150 1.287 . S
O144 Fe133 1.996 . S
O144 C150 1.255 . S
O145 Fe135 1.976 . S
O145 C140 1.287 . S
O146 Fe132 1.996 . S
O146 C140 1.255 . S
C147 O151 1.295 . S
C147 O152 1.235 . S
O148 Fe133 1.976 . S
O148 C142 1.287 . S
O149 Fe135 1.996 . S
O149 C142 1.255 . S
C150 O143 1.287 . S
C150 O144 1.255 . S
O151 Fe133 2.002 . S
O151 C147 1.295 . S
O152 Fe135 1.997 . S
O152 C147 1.235 . S
C153 O136 1.295 . S
C153 O137 1.235 . S
Fe154 O156 1.918 1_554 S
Fe154 O159 1.997 . S
Fe154 O160 2.002 . S
Fe154 O165 1.976 . S
Fe154 O168 1.996 1_554 S
Fe155 O156 1.918 . S
Fe155 O163 1.997 1_556 S
Fe155 O166 1.997 . S
Fe155 O170 1.976 . S
Fe155 O173 2.002 . S
O156 Fe154 1.918 1_556 S
O156 Fe155 1.918 . S
O156 Fe157 1.918 . S
Fe157 O156 1.918 . S
Fe157 O158 2.002 . S
Fe157 O167 1.976 . S
Fe157 O171 1.996 . S
Fe157 O174 1.997 . S
O158 Fe157 2.002 . S
O158 C175 1.295 1_556 S
O159 Fe154 1.997 . S
O159 C175 1.235 . S
O160 Fe154 2.002 . S
O160 C161 1.295 . S
C161 O160 1.295 . S
C161 O163 1.235 . S
C162 O167 1.287 . S
C162 O168 1.255 . S
O163 Fe155 1.997 1_554 S
O163 C161 1.235 . S
C164 O170 1.287 . S
C164 O171 1.255 . S
O165 Fe154 1.976 . S
O165 C172 1.287 . S
O166 Fe155 1.997 . S
O166 C172 1.253 1_556 S
O167 Fe157 1.976 . S
O167 C162 1.287 . S
O168 Fe154 1.996 1_556 S
O168 C162 1.255 . S
C169 O173 1.295 . S
C169 O174 1.235 . S
O170 Fe155 1.976 . S
O170 C164 1.287 . S
O171 Fe157 1.996 . S
O171 C164 1.255 . S
C172 O165 1.287 . S
C172 O166 1.253 1_554 S
O173 Fe155 2.002 . S
O173 C169 1.295 . S
O174 Fe157 1.997 . S
O174 C169 1.235 . S
C175 O158 1.295 1_554 S
C175 O159 1.235 . S
Fe176 O178 1.918 1_565 S
Fe176 O181 1.997 . S
Fe176 O182 2.002 . S
Fe176 O187 1.976 . S
Fe176 O190 1.996 . S
Fe177 O178 1.918 . S
Fe177 O185 1.997 . S
Fe177 O188 1.996 . S
Fe177 O192 1.976 . S
Fe177 O195 2.002 . S
O178 Fe176 1.918 1_545 S
O178 Fe177 1.918 . S
O178 Fe179 1.918 . S
Fe179 O178 1.918 . S
Fe179 O180 2.002 . S
Fe179 O189 1.976 . S
Fe179 O193 1.996 . S
Fe179 O196 1.997 . S
O180 Fe179 2.002 . S
O180 C197 1.295 . S
O181 Fe176 1.997 . S
O181 C197 1.235 1_565 S
O182 Fe176 2.002 . S
O182 C183 1.295 . S
C183 O182 1.295 . S
C183 O185 1.235 1_565 S
C184 O189 1.287 1_565 S
C184 O190 1.255 . S
O185 Fe177 1.997 . S
O185 C183 1.235 1_545 S
C186 O192 1.287 . S
C186 O193 1.255 . S
O187 Fe176 1.976 . S
O187 C194 1.287 . S
O188 Fe177 1.996 . S
O188 C194 1.255 1_545 S
O189 Fe179 1.976 . S
O189 C184 1.287 1_545 S
O190 Fe176 1.996 . S
O190 C184 1.255 . S
C191 O195 1.295 . S
C191 O196 1.235 . S
O192 Fe177 1.976 . S
O192 C186 1.287 . S
O193 Fe179 1.996 . S
O193 C186 1.255 . S
C194 O187 1.287 . S
C194 O188 1.255 1_565 S
O195 Fe177 2.002 . S
O195 C191 1.295 . S
O196 Fe179 1.997 . S
O196 C191 1.235 . S
C197 O180 1.295 . S
C197 O181 1.235 1_545 S
Fe198 O200 1.918 1_556 S
Fe198 O203 1.997 . S
Fe198 O204 2.002 . S
Fe198 O209 1.976 . S
Fe198 O212 1.996 1_556 S
Fe199 O200 1.918 . S
Fe199 O207 1.997 1_554 S
Fe199 O210 1.997 . S
Fe199 O214 1.976 . S
Fe199 O217 2.002 1_565 S
O200 Fe198 1.918 1_554 S
O200 Fe199 1.918 . S
O200 Fe201 1.918 . S
Fe201 O200 1.918 . S
Fe201 O202 2.002 . S
Fe201 O211 1.976 . S
Fe201 O215 1.996 . S
Fe201 O218 1.997 1_565 S
O202 Fe201 2.002 . S
O202 C219 1.295 1_554 S
O203 Fe198 1.997 . S
O203 C219 1.235 . S
O204 Fe198 2.002 . S
O204 C205 1.295 . S
C205 O204 1.295 . S
C205 O207 1.235 . S
C206 O211 1.287 . S
C206 O212 1.255 . S
O207 Fe199 1.997 1_556 S
O207 C205 1.235 . S
C208 O214 1.287 . S
C208 O215 1.255 . S
O209 Fe198 1.976 . S
O209 C216 1.287 . S
O210 Fe199 1.997 . S
O210 C216 1.253 1_554 S
O211 Fe201 1.976 . S
O211 C206 1.287 . S
O212 Fe198 1.996 1_554 S
O212 C206 1.255 . S
C213 O217 1.295 . S
C213 O218 1.235 . S
O214 Fe199 1.976 . S
O214 C208 1.287 . S
O215 Fe201 1.996 . S
O215 C208 1.255 . S
C216 O209 1.287 . S
C216 O210 1.253 1_556 S
O217 Fe199 2.002 1_545 S
O217 C213 1.295 . S
O218 Fe201 1.997 1_545 S
O218 C213 1.235 . S
C219 O202 1.295 1_556 S
C219 O203 1.235 . S
Fe220 O222 1.918 1_545 S
Fe220 O225 1.997 . S
Fe220 O226 2.002 . S
Fe220 O231 1.976 . S
Fe220 O234 1.996 . S
Fe221 O222 1.918 . S
Fe221 O229 1.997 . S
Fe221 O232 1.996 . S
Fe221 O236 1.976 . S
Fe221 O239 2.002 . S
O222 Fe220 1.918 1_565 S
O222 Fe221 1.918 . S
O222 Fe223 1.918 . S
Fe223 O222 1.918 . S
Fe223 O224 2.002 . S
Fe223 O233 1.976 . S
Fe223 O237 1.996 . S
Fe223 O240 1.997 . S
O224 Fe223 2.002 . S
O224 C241 1.295 . S
O225 Fe220 1.997 . S
O225 C241 1.235 1_545 S
O226 Fe220 2.002 . S
O226 C227 1.295 . S
C227 O226 1.295 . S
C227 O229 1.235 1_545 S
C228 O233 1.287 1_545 S
C228 O234 1.255 . S
O229 Fe221 1.997 . S
O229 C227 1.235 1_565 S
C230 O236 1.287 . S
C230 O237 1.255 . S
O231 Fe220 1.976 . S
O231 C238 1.287 . S
O232 Fe221 1.996 . S
O232 C238 1.255 1_565 S
O233 Fe223 1.976 . S
O233 C228 1.287 1_565 S
O234 Fe220 1.996 . S
O234 C228 1.255 . S
C235 O239 1.295 . S
C235 O240 1.235 . S
O236 Fe221 1.976 . S
O236 C230 1.287 . S
O237 Fe223 1.996 . S
O237 C230 1.255 . S
C238 O231 1.287 . S
C238 O232 1.255 1_545 S
O239 Fe221 2.002 . S
O239 C235 1.295 . S
O240 Fe223 1.997 . S
O240 C235 1.235 . S
C241 O224 1.295 . S
C241 O225 1.235 1_565 S
Fe242 O244 1.918 . S
Fe242 O247 1.997 . S
Fe242 O248 2.002 1_545 S
Fe242 O253 1.976 . S
Fe242 O256 1.996 . S
Fe243 O244 1.918 . S
Fe243 O251 1.997 1_545 S
Fe243 O254 1.996 . S
Fe243 O258 1.976 . S
Fe243 O261 2.002 . S
O244 Fe242 1.918 . S
O244 Fe243 1.918 . S
O244 Fe245 1.918 . S
Fe245 O244 1.918 . S
Fe245 O246 2.002 . S
Fe245 O255 1.976 . S
Fe245 O259 1.996 . S
Fe245 O262 1.997 . S
O246 Fe245 2.002 . S
O246 C263 1.295 . S
O247 Fe242 1.997 . S
O247 C263 1.235 . S
O248 Fe242 2.002 1_565 S
O248 C249 1.295 . S
C249 O248 1.295 . S
C249 O251 1.235 . S
C250 O255 1.287 . S
C250 O256 1.255 . S
O251 Fe243 1.997 1_565 S
O251 C249 1.235 . S
C252 O258 1.287 . S
C252 O259 1.255 . S
O253 Fe242 1.976 . S
O253 C260 1.287 . S
O254 Fe243 1.996 . S
O254 C260 1.255 . S
O255 Fe245 1.976 . S
O255 C250 1.287 . S
O256 Fe242 1.996 . S
O256 C250 1.255 . S
C257 O261 1.295 . S
C257 O262 1.235 . S
O258 Fe243 1.976 . S
O258 C252 1.287 . S
O259 Fe245 1.996 . S
O259 C252 1.255 . S
C260 O253 1.287 . S
C260 O254 1.255 . S
O261 Fe243 2.002 . S
O261 C257 1.295 . S
O262 Fe245 1.997 . S
O262 C257 1.235 . S
C263 O246 1.295 . S
C263 O247 1.235 . S
Fe264 O266 1.918 . S
Fe264 O269 1.997 . S
Fe264 O270 2.002 . S
Fe264 O275 1.976 . S
Fe264 O278 1.996 . S
Fe265 O266 1.918 . S
Fe265 O273 1.997 . S
Fe265 O276 1.996 . S
Fe265 O280 1.976 . S
Fe265 O283 2.002 . S
O266 Fe264 1.918 . S
O266 Fe265 1.918 . S
O266 Fe267 1.918 1_565 S
Fe267 O266 1.918 1_545 S
Fe267 O268 2.002 . S
Fe267 O277 1.976 . S
Fe267 O281 1.996 . S
Fe267 O284 1.997 . S
O268 Fe267 2.002 . S
O268 C285 1.295 . S
O269 Fe264 1.997 . S
O269 C285 1.235 1_565 S
O270 Fe264 2.002 . S
O270 C271 1.295 . S
C271 O270 1.295 . S
C271 O273 1.235 . S
C272 O277 1.287 . S
C272 O278 1.255 1_545 S
O273 Fe265 1.997 . S
O273 C271 1.235 . S
C274 O280 1.287 1_545 S
C274 O281 1.255 . S
O275 Fe264 1.976 . S
O275 C282 1.287 . S
O276 Fe265 1.996 . S
O276 C282 1.255 . S
O277 Fe267 1.976 . S
O277 C272 1.287 . S
O278 Fe264 1.996 . S
O278 C272 1.255 1_565 S
C279 O283 1.295 . S
C279 O284 1.235 1_565 S
O280 Fe265 1.976 . S
O280 C274 1.287 1_565 S
O281 Fe267 1.996 . S
O281 C274 1.255 . S
C282 O275 1.287 . S
C282 O276 1.255 . S
O283 Fe265 2.002 . S
O283 C279 1.295 . S
O284 Fe267 1.997 . S
O284 C279 1.235 1_545 S
C285 O268 1.295 . S
C285 O269 1.235 1_545 S
Fe286 O288 1.918 1_554 S
Fe286 O291 1.997 . S
Fe286 O292 2.002 . S
Fe286 O297 1.976 . S
Fe286 O300 1.996 1_554 S
Fe287 O288 1.918 . S
Fe287 O295 1.997 1_556 S
Fe287 O298 1.997 . S
Fe287 O302 1.976 . S
Fe287 O305 2.002 1_545 S
O288 Fe286 1.918 1_556 S
O288 Fe287 1.918 . S
O288 Fe289 1.918 . S
Fe289 O288 1.918 . S
Fe289 O290 2.002 . S
Fe289 O299 1.976 . S
Fe289 O303 1.996 . S
Fe289 O306 1.997 1_545 S
O290 Fe289 2.002 . S
O290 C307 1.295 1_556 S
O291 Fe286 1.997 . S
O291 C307 1.235 . S
O292 Fe286 2.002 . S
O292 C293 1.295 . S
C293 O292 1.295 . S
C293 O295 1.235 . S
C294 O299 1.287 . S
C294 O300 1.255 . S
O295 Fe287 1.997 1_554 S
O295 C293 1.235 . S
C296 O302 1.287 . S
C296 O303 1.255 . S
O297 Fe286 1.976 . S
O297 C304 1.287 . S
O298 Fe287 1.997 . S
O298 C304 1.253 1_556 S
O299 Fe289 1.976 . S
O299 C294 1.287 . S
O300 Fe286 1.996 1_556 S
O300 C294 1.255 . S
C301 O305 1.295 . S
C301 O306 1.235 . S
O302 Fe287 1.976 . S
O302 C296 1.287 . S
O303 Fe289 1.996 . S
O303 C296 1.255 . S
C304 O297 1.287 . S
C304 O298 1.253 1_554 S
O305 Fe287 2.002 1_565 S
O305 C301 1.295 . S
O306 Fe289 1.997 1_565 S
O306 C301 1.235 . S
C307 O290 1.295 1_554 S
C307 O291 1.235 . S
Fe308 O310 1.918 1_565 S
Fe308 O313 1.997 . S
Fe308 O314 2.002 . S
Fe308 O319 1.976 . S
Fe308 O322 1.996 . S
Fe309 O310 1.918 . S
Fe309 O317 1.997 . S
Fe309 O320 1.996 . S
Fe309 O324 1.976 . S
Fe309 O327 2.002 . S
O310 Fe308 1.918 1_545 S
O310 Fe309 1.918 . S
O310 Fe311 1.918 . S
Fe311 O310 1.918 . S
Fe311 O312 2.002 . S
Fe311 O321 1.976 . S
Fe311 O325 1.996 . S
Fe311 O328 1.997 . S
O312 Fe311 2.002 . S
O312 C329 1.295 . S
O313 Fe308 1.997 . S
O313 C329 1.235 1_565 S
O314 Fe308 2.002 . S
O314 C315 1.295 . S
C315 O314 1.295 . S
C315 O317 1.235 1_565 S
C316 O321 1.287 1_565 S
C316 O322 1.255 . S
O317 Fe309 1.997 . S
O317 C315 1.235 1_545 S
C318 O324 1.287 . S
C318 O325 1.255 . S
O319 Fe308 1.976 . S
O319 C326 1.287 . S
O320 Fe309 1.996 . S
O320 C326 1.255 1_545 S
O321 Fe311 1.976 . S
O321 C316 1.287 1_545 S
O322 Fe308 1.996 . S
O322 C316 1.255 . S
C323 O327 1.295 . S
C323 O328 1.235 . S
O324 Fe309 1.976 . S
O324 C318 1.287 . S
O325 Fe311 1.996 . S
O325 C318 1.255 . S
C326 O319 1.287 . S
C326 O320 1.255 1_565 S
O327 Fe309 2.002 . S
O327 C323 1.295 . S
O328 Fe311 1.997 . S
O328 C323 1.235 . S
C329 O312 1.295 . S
C329 O313 1.235 1_545 S
Fe330 O332 1.918 . S
Fe330 O335 1.997 . S
Fe330 O336 2.002 . S
Fe330 O341 1.976 . S
Fe330 O344 1.996 . S
Fe331 O332 1.918 . S
Fe331 O339 1.997 . S
Fe331 O342 1.996 . S
Fe331 O346 1.976 . S
Fe331 O349 2.002 1_565 S
O332 Fe330 1.918 . S
O332 Fe331 1.918 . S
O332 Fe333 1.918 . S
Fe333 O332 1.918 . S
Fe333 O334 2.002 . S
Fe333 O343 1.976 . S
Fe333 O347 1.996 . S
Fe333 O350 1.997 1_565 S
O334 Fe333 2.002 . S
O334 C351 1.295 . S
O335 Fe330 1.997 . S
O335 C351 1.235 . S
O336 Fe330 2.002 . S
O336 C337 1.295 . S
C337 O336 1.295 . S
C337 O339 1.235 . S
C338 O343 1.287 . S
C338 O344 1.255 . S
O339 Fe331 1.997 . S
O339 C337 1.235 . S
C340 O346 1.287 . S
C340 O347 1.255 . S
O341 Fe330 1.976 . S
O341 C348 1.287 . S
O342 Fe331 1.996 . S
O342 C348 1.255 . S
O343 Fe333 1.976 . S
O343 C338 1.287 . S
O344 Fe330 1.996 . S
O344 C338 1.255 . S
C345 O349 1.295 . S
C345 O350 1.235 . S
O346 Fe331 1.976 . S
O346 C340 1.287 . S
O347 Fe333 1.996 . S
O347 C340 1.255 . S
C348 O341 1.287 . S
C348 O342 1.255 . S
O349 Fe331 2.002 1_545 S
O349 C345 1.295 . S
O350 Fe333 1.997 1_545 S
O350 C345 1.235 . S
C351 O334 1.295 . S
C351 O335 1.235 . S
C352 C353 1.369 . S
C352 C354 1.419 . S
C352 H356 0.930 . S
C353 C352 1.369 . S
C353 C362 1.429 . S
C354 C352 1.419 . S
C354 C355 1.363 . S
C354 H357 0.929 . S
C355 C354 1.363 . S
C355 C361 1.428 . S
H356 C352 0.930 . S
H357 C354 0.929 . S
S358 N359 1.613 . S
S358 N360 1.610 . S
N359 S358 1.613 . S
N359 C362 1.350 . S
N360 S358 1.610 . S
N360 C361 1.351 . S
C361 C355 1.428 . S
C361 N360 1.351 . S
C361 C362 1.434 . S
C362 C353 1.429 . S
C362 N359 1.350 . S
C362 C361 1.434 . S
C363 C364 1.369 . S
C363 C365 1.419 . S
C363 H367 0.930 . S
C364 C363 1.369 . S
C364 C373 1.429 . S
C365 C363 1.419 . S
C365 C366 1.363 . S
C365 H368 0.929 . S
C366 C365 1.363 . S
C366 C372 1.428 . S
H367 C363 0.930 . S
H368 C365 0.929 . S
S369 N370 1.613 . S
S369 N371 1.610 . S
N370 S369 1.613 . S
N370 C373 1.350 . S
N371 S369 1.610 . S
N371 C372 1.351 . S
C372 C366 1.428 . S
C372 N371 1.351 . S
C372 C373 1.434 . S
C373 C364 1.429 . S
C373 N370 1.350 . S
C373 C372 1.434 . S
C374 C375 1.369 . S
C374 C376 1.419 . S
C374 H378 0.930 . S
C375 C374 1.369 . S
C375 C384 1.429 . S
C376 C374 1.419 . S
C376 C377 1.363 . S
C376 H379 0.929 . S
C377 C376 1.363 . S
C377 C383 1.428 . S
H378 C374 0.930 . S
H379 C376 0.929 . S
S380 N381 1.613 . S
S380 N382 1.610 . S
N381 S380 1.613 . S
N381 C384 1.350 . S
N382 S380 1.610 . S
N382 C383 1.351 . S
C383 C377 1.428 . S
C383 N382 1.351 . S
C383 C384 1.434 . S
C384 C375 1.429 . S
C384 N381 1.350 . S
C384 C383 1.434 . S
C385 C386 1.369 . S
C385 C387 1.419 . S
C385 H389 0.930 . S
C386 C385 1.369 . S
C386 C395 1.429 . S
C387 C385 1.419 . S
C387 C388 1.363 . S
C387 H390 0.929 . S
C388 C387 1.363 . S
C388 C394 1.428 . S
H389 C385 0.930 . S
H390 C387 0.929 . S
S391 N392 1.613 . S
S391 N393 1.610 . S
N392 S391 1.613 . S
N392 C395 1.350 . S
N393 S391 1.610 . S
N393 C394 1.351 . S
C394 C388 1.428 . S
C394 N393 1.351 . S
C394 C395 1.434 . S
C395 C386 1.429 . S
C395 N392 1.350 . S
C395 C394 1.434 . S
C396 C397 1.369 . S
C396 C398 1.419 . S
C396 H400 0.930 . S
C397 C396 1.369 . S
C397 C406 1.429 . S
C398 C396 1.419 . S
C398 C399 1.363 . S
C398 H401 0.929 . S
C399 C398 1.363 . S
C399 C405 1.428 . S
H400 C396 0.930 . S
H401 C398 0.929 . S
S402 N403 1.613 . S
S402 N404 1.610 . S
N403 S402 1.613 . S
N403 C406 1.350 . S
N404 S402 1.610 . S
N404 C405 1.351 . S
C405 C399 1.428 . S
C405 N404 1.351 . S
C405 C406 1.434 . S
C406 C397 1.429 . S
C406 N403 1.350 . S
C406 C405 1.434 . S
C407 C408 1.369 . S
C407 C409 1.419 . S
C407 H411 0.930 . S
C408 C407 1.369 . S
C408 C417 1.429 . S
C409 C407 1.419 . S
C409 C410 1.363 . S
C409 H412 0.929 . S
C410 C409 1.363 . S
C410 C416 1.428 . S
H411 C407 0.930 . S
H412 C409 0.929 . S
S413 N414 1.613 . S
S413 N415 1.610 . S
N414 S413 1.613 . S
N414 C417 1.350 . S
N415 S413 1.610 . S
N415 C416 1.351 . S
C416 C410 1.428 . S
C416 N415 1.351 . S
C416 C417 1.434 . S
C417 C408 1.429 . S
C417 N414 1.350 . S
C417 C416 1.434 . S
C418 C419 1.369 . S
C418 C420 1.419 . S
C418 H422 0.930 . S
C419 C418 1.369 . S
C419 C428 1.429 . S
C420 C418 1.419 . S
C420 C421 1.363 . S
C420 H423 0.929 . S
C421 C420 1.363 . S
C421 C427 1.428 . S
H422 C418 0.930 . S
H423 C420 0.929 . S
S424 N425 1.613 . S
S424 N426 1.610 . S
N425 S424 1.613 . S
N425 C428 1.350 . S
N426 S424 1.610 . S
N426 C427 1.351 . S
C427 C421 1.428 . S
C427 N426 1.351 . S
C427 C428 1.434 . S
C428 C419 1.429 . S
C428 N425 1.350 . S
C428 C427 1.434 . S
C429 C430 1.369 . S
C429 C431 1.419 1_556 S
C429 H433 0.931 1_556 S
C430 C429 1.369 . S
C430 C439 1.429 . S
C431 C429 1.419 1_554 S
C431 C432 1.363 1_554 S
C431 H434 0.929 . S
C432 C431 1.363 1_556 S
C432 C438 1.428 . S
H433 C429 0.931 1_554 S
H434 C431 0.929 . S
S435 N436 1.613 . S
S435 N437 1.610 . S
N436 S435 1.613 . S
N436 C439 1.350 . S
N437 S435 1.610 . S
N437 C438 1.351 . S
C438 C432 1.428 . S
C438 N437 1.351 . S
C438 C439 1.434 . S
C439 C430 1.429 . S
C439 N436 1.350 . S
C439 C438 1.434 . S
C440 C441 1.369 . S
C440 C442 1.419 . S
C440 H444 0.930 . S
C441 C440 1.369 . S
C441 C450 1.429 1_565 S
C442 C440 1.419 . S
C442 C443 1.363 . S
C442 H445 0.929 . S
C443 C442 1.363 . S
C443 C449 1.428 1_565 S
H444 C440 0.930 . S
H445 C442 0.929 . S
S446 N447 1.613 . S
S446 N448 1.610 . S
N447 S446 1.613 . S
N447 C450 1.350 . S
N448 S446 1.610 . S
N448 C449 1.351 . S
C449 C443 1.428 1_545 S
C449 N448 1.351 . S
C449 C450 1.434 . S
C450 C441 1.429 1_545 S
C450 N447 1.350 . S
C450 C449 1.434 . S
C451 C452 1.369 . S
C451 C453 1.419 . S
C451 H455 0.930 . S
C452 C451 1.369 . S
C452 C461 1.429 . S
C453 C451 1.419 . S
C453 C454 1.363 . S
C453 H456 0.929 . S
C454 C453 1.363 . S
C454 C460 1.428 . S
H455 C451 0.930 . S
H456 C453 0.929 . S
S457 N458 1.613 . S
S457 N459 1.610 . S
N458 S457 1.613 . S
N458 C461 1.350 1_556 S
N459 S457 1.610 . S
N459 C460 1.351 1_556 S
C460 C454 1.428 . S
C460 N459 1.351 1_554 S
C460 C461 1.434 . S
C461 C452 1.429 . S
C461 N458 1.350 1_554 S
C461 C460 1.434 . S
C462 C463 1.369 . S
C462 C464 1.419 . S
C462 H466 0.930 . S
C463 C462 1.369 . S
C463 C472 1.429 1_545 S
C464 C462 1.419 . S
C464 C465 1.363 . S
C464 H467 0.929 . S
C465 C464 1.363 . S
C465 C471 1.428 1_545 S
H466 C462 0.930 . S
H467 C464 0.929 . S
S468 N469 1.613 . S
S468 N470 1.610 . S
N469 S468 1.613 . S
N469 C472 1.350 . S
N470 S468 1.610 . S
N470 C471 1.351 . S
C471 C465 1.428 1_565 S
C471 N470 1.351 . S
C471 C472 1.434 . S
C472 C463 1.429 1_565 S
C472 N469 1.350 . S
C472 C471 1.434 . S
C473 C474 1.369 . S
C473 C475 1.419 . S
C473 H477 0.930 . S
C474 C473 1.369 . S
C474 C483 1.429 . S
C475 C473 1.419 . S
C475 C476 1.363 . S
C475 H478 0.929 . S
C476 C475 1.363 . S
C476 C482 1.428 . S
H477 C473 0.930 . S
H478 C475 0.929 . S
S479 N480 1.613 . S
S479 N481 1.610 . S
N480 S479 1.613 . S
N480 C483 1.350 . S
N481 S479 1.610 . S
N481 C482 1.351 . S
C482 C476 1.428 . S
C482 N481 1.351 . S
C482 C483 1.434 . S
C483 C474 1.429 . S
C483 N480 1.350 . S
C483 C482 1.434 . S
C484 C485 1.369 1_565 S
C484 C486 1.419 . S
C484 H488 0.930 . S
C485 C484 1.369 1_545 S
C485 C494 1.429 . S
C486 C484 1.419 . S
C486 C487 1.363 1_565 S
C486 H489 0.929 . S
C487 C486 1.363 1_545 S
C487 C493 1.428 . S
H488 C484 0.930 . S
H489 C486 0.929 . S
S490 N491 1.613 . S
S490 N492 1.610 . S
N491 S490 1.613 . S
N491 C494 1.350 . S
N492 S490 1.610 . S
N492 C493 1.351 . S
C493 C487 1.428 . S
C493 N492 1.351 . S
C493 C494 1.434 . S
C494 C485 1.429 . S
C494 N491 1.350 . S
C494 C493 1.434 . S
C495 C496 1.369 . S
C495 C497 1.419 . S
C495 H499 0.930 . S
C496 C495 1.369 . S
C496 C505 1.429 . S
C497 C495 1.419 . S
C497 C498 1.363 . S
C497 H500 0.929 . S
C498 C497 1.363 . S
C498 C504 1.428 . S
H499 C495 0.930 . S
H500 C497 0.929 . S
S501 N502 1.613 . S
S501 N503 1.610 . S
N502 S501 1.613 . S
N502 C505 1.350 . S
N503 S501 1.610 . S
N503 C504 1.351 . S
C504 C498 1.428 . S
C504 N503 1.351 . S
C504 C505 1.434 . S
C505 C496 1.429 . S
C505 N502 1.350 . S
C505 C504 1.434 . S
C506 C507 1.369 1_545 S
C506 C508 1.419 . S
C506 H510 0.930 . S
C507 C506 1.369 1_565 S
C507 C516 1.429 . S
C508 C506 1.419 . S
C508 C509 1.363 1_545 S
C508 H511 0.929 . S
C509 C508 1.363 1_565 S
C509 C515 1.428 . S
H510 C506 0.930 . S
H511 C508 0.929 . S
S512 N513 1.613 . S
S512 N514 1.610 . S
N513 S512 1.613 . S
N513 C516 1.350 . S
N514 S512 1.610 . S
N514 C515 1.351 . S
C515 C509 1.428 . S
C515 N514 1.351 . S
C515 C516 1.434 . S
C516 C507 1.429 . S
C516 N513 1.350 . S
C516 C515 1.434 . S
C517 C518 1.369 . S
C517 C519 1.419 . S
C517 H521 0.930 . S
C518 C517 1.369 . S
C518 C527 1.429 . S
C519 C517 1.419 . S
C519 C520 1.363 . S
C519 H522 0.929 . S
C520 C519 1.363 . S
C520 C526 1.428 . S
H521 C517 0.930 . S
H522 C519 0.929 . S
S523 N524 1.613 . S
S523 N525 1.610 . S
N524 S523 1.613 . S
N524 C527 1.350 . S
N525 S523 1.610 . S
N525 C526 1.351 . S
C526 C520 1.428 . S
C526 N525 1.351 . S
C526 C527 1.434 . S
C527 C518 1.429 . S
C527 N524 1.350 . S
C527 C526 1.434 . S
C528 C529 1.369 . S
C528 C530 1.419 . S
C528 H532 0.930 . S
C529 C528 1.369 . S
C529 C538 1.429 . S
C530 C528 1.419 . S
C530 C531 1.363 . S
C530 H533 0.929 . S
C531 C530 1.363 . S
C531 C537 1.428 . S
H532 C528 0.930 . S
H533 C530 0.929 . S
S534 N535 1.613 . S
S534 N536 1.610 . S
N535 S534 1.613 . S
N535 C538 1.350 . S
N536 S534 1.610 . S
N536 C537 1.351 . S
C537 C531 1.428 . S
C537 N536 1.351 . S
C537 C538 1.434 . S
C538 C529 1.429 . S
C538 N535 1.350 . S
C538 C537 1.434 . S
C539 C540 1.369 . S
C539 C541 1.419 1_455 S
C539 H543 0.930 . S
C540 C539 1.369 . S
C540 C549 1.429 . S
C541 C539 1.419 1_655 S
C541 C542 1.363 . S
C541 H544 0.929 . S
C542 C541 1.363 . S
C542 C548 1.428 . S
H543 C539 0.930 . S
H544 C541 0.929 . S
S545 N546 1.613 . S
S545 N547 1.610 1_455 S
N546 S545 1.613 . S
N546 C549 1.350 . S
N547 S545 1.610 1_655 S
N547 C548 1.351 . S
C548 C542 1.428 . S
C548 N547 1.351 . S
C548 C549 1.434 1_655 S
C549 C540 1.429 . S
C549 N546 1.350 . S
C549 C548 1.434 1_455 S
C550 C551 1.369 . S
C550 C552 1.419 . S
C550 H554 0.930 . S
C551 C550 1.369 . S
C551 C560 1.429 . S
C552 C550 1.419 . S
C552 C553 1.363 . S
C552 H555 0.929 . S
C553 C552 1.363 . S
C553 C559 1.428 . S
H554 C550 0.930 . S
H555 C552 0.929 . S
S556 N557 1.613 . S
S556 N558 1.610 . S
N557 S556 1.613 . S
N557 C560 1.350 . S
N558 S556 1.610 . S
N558 C559 1.351 . S
C559 C553 1.428 . S
C559 N558 1.351 . S
C559 C560 1.434 . S
C560 C551 1.429 . S
C560 N557 1.350 . S
C560 C559 1.434 . S
C561 C562 1.369 . S
C561 C563 1.419 . S
C561 H565 0.930 . S
C562 C561 1.369 . S
C562 C571 1.429 1_554 S
C563 C561 1.419 . S
C563 C564 1.363 1_554 S
C563 H566 0.929 . S
C564 C563 1.363 1_556 S
C564 C570 1.428 . S
H565 C561 0.930 . S
H566 C563 0.929 . S
S567 N568 1.613 . S
S567 N569 1.610 . S
N568 S567 1.613 . S
N568 C571 1.350 . S
N569 S567 1.610 . S
N569 C570 1.351 . S
C570 C564 1.428 . S
C570 N569 1.351 . S
C570 C571 1.434 . S
C571 C562 1.429 1_556 S
C571 N568 1.350 . S
C571 C570 1.434 . S
C572 C573 1.369 . S
C572 C574 1.419 . S
C572 H576 0.930 . S
C573 C572 1.369 . S
C573 C582 1.429 . S
C574 C572 1.419 . S
C574 C575 1.363 . S
C574 H577 0.929 . S
C575 C574 1.363 . S
C575 C581 1.428 . S
H576 C572 0.930 . S
H577 C574 0.929 . S
S578 N579 1.613 . S
S578 N580 1.610 . S
N579 S578 1.613 . S
N579 C582 1.350 . S
N580 S578 1.610 . S
N580 C581 1.351 . S
C581 C575 1.428 . S
C581 N580 1.351 . S
C581 C582 1.434 . S
C582 C573 1.429 . S
C582 N579 1.350 . S
C582 C581 1.434 . S
C583 C584 1.369 . S
C583 C585 1.419 . S
C583 H587 0.930 . S
C584 C583 1.369 . S
C584 C593 1.429 . S
C585 C583 1.419 . S
C585 C586 1.363 . S
C585 H588 0.929 . S
C586 C585 1.363 . S
C586 C592 1.428 . S
H587 C583 0.930 . S
H588 C585 0.929 . S
S589 N590 1.613 . S
S589 N591 1.610 . S
N590 S589 1.613 . S
N590 C593 1.350 . S
N591 S589 1.610 . S
N591 C592 1.351 . S
C592 C586 1.428 . S
C592 N591 1.351 . S
C592 C593 1.434 . S
C593 C584 1.429 . S
C593 N590 1.350 . S
C593 C592 1.434 . S
C594 C595 1.369 1_545 S
C594 C596 1.419 . S
C594 H598 0.930 . S
C595 C594 1.369 1_565 S
C595 C604 1.429 1_556 S
C596 C594 1.419 . S
C596 C597 1.363 1_556 S
C596 H599 0.929 . S
C597 C596 1.363 1_554 S
C597 C603 1.428 1_545 S
H598 C594 0.930 . S
H599 C596 0.929 . S
S600 N601 1.613 . S
S600 N602 1.610 . S
N601 S600 1.613 . S
N601 C604 1.350 . S
N602 S600 1.610 . S
N602 C603 1.351 . S
C603 C597 1.428 1_565 S
C603 N602 1.351 . S
C603 C604 1.434 . S
C604 C595 1.429 1_554 S
C604 N601 1.350 . S
C604 C603 1.434 . S
C605 C606 1.369 1_545 S
C605 C607 1.419 1_455 S
C605 H609 0.930 . S
C606 C605 1.369 1_565 S
C606 C615 1.429 . S
C607 C605 1.419 1_655 S
C607 C608 1.363 . S
C607 H610 0.929 . S
C608 C607 1.363 . S
C608 C614 1.428 1_545 S
H609 C605 0.930 . S
H610 C607 0.929 . S
S611 N612 1.613 1_655 S
S611 N613 1.610 . S
N612 S611 1.613 1_455 S
N612 C615 1.350 . S
N613 S611 1.610 . S
N613 C614 1.351 . S
C614 C608 1.428 1_565 S
C614 N613 1.351 . S
C614 C615 1.434 1_655 S
C615 C606 1.429 . S
C615 N612 1.350 . S
C615 C614 1.434 1_455 S
C616 C617 1.369 . S
C616 C618 1.419 . S
C616 H620 0.930 . S
C617 C616 1.369 . S
C617 C626 1.429 . S
C618 C616 1.419 . S
C618 C619 1.363 . S
C618 H621 0.929 . S
C619 C618 1.363 . S
C619 C625 1.428 . S
H620 C616 0.930 . S
H621 C618 0.929 . S
S622 N623 1.613 . S
S622 N624 1.610 . S
N623 S622 1.613 . S
N623 C626 1.350 . S
N624 S622 1.610 . S
N624 C625 1.351 . S
C625 C619 1.428 . S
C625 N624 1.351 . S
C625 C626 1.434 . S
C626 C617 1.429 . S
C626 N623 1.350 . S
C626 C625 1.434 . S
C627 C628 1.369 . S
C627 C629 1.419 . S
C627 H631 0.930 . S
C628 C627 1.369 . S
C628 C637 1.429 . S
C629 C627 1.419 . S
C629 C630 1.363 . S
C629 H632 0.929 . S
C630 C629 1.363 . S
C630 C636 1.428 . S
H631 C627 0.930 . S
H632 C629 0.929 . S
S633 N634 1.613 . S
S633 N635 1.610 . S
N634 S633 1.613 . S
N634 C637 1.350 . S
N635 S633 1.610 . S
N635 C636 1.351 . S
C636 C630 1.428 . S
C636 N635 1.351 . S
C636 C637 1.434 . S
C637 C628 1.429 . S
C637 N634 1.350 . S
C637 C636 1.434 . S
C638 C639 1.369 . S
C638 C640 1.419 . S
C638 H642 0.930 . S
C639 C638 1.369 . S
C639 C648 1.429 . S
C640 C638 1.419 . S
C640 C641 1.363 . S
C640 H643 0.929 . S
C641 C640 1.363 . S
C641 C647 1.428 . S
H642 C638 0.930 . S
H643 C640 0.929 . S
S644 N645 1.613 . S
S644 N646 1.610 . S
N645 S644 1.613 . S
N645 C648 1.350 . S
N646 S644 1.610 . S
N646 C647 1.351 . S
C647 C641 1.428 . S
C647 N646 1.351 . S
C647 C648 1.434 . S
C648 C639 1.429 . S
C648 N645 1.350 . S
C648 C647 1.434 . S
C649 C650 1.369 . S
C649 C651 1.419 . S
C649 H653 0.930 . S
C650 C649 1.369 . S
C650 C659 1.429 . S
C651 C649 1.419 . S
C651 C652 1.363 . S
C651 H654 0.929 . S
C652 C651 1.363 . S
C652 C658 1.428 . S
H653 C649 0.930 . S
H654 C651 0.929 . S
S655 N656 1.613 . S
S655 N657 1.610 . S
N656 S655 1.613 . S
N656 C659 1.350 . S
N657 S655 1.610 . S
N657 C658 1.351 . S
C658 C652 1.428 . S
C658 N657 1.351 . S
C658 C659 1.434 . S
C659 C650 1.429 . S
C659 N656 1.350 . S
C659 C658 1.434 . S
C660 C661 1.369 . S
C660 C662 1.419 . S
C660 H664 0.930 . S
C661 C660 1.369 . S
C661 C670 1.429 . S
C662 C660 1.419 . S
C662 C663 1.363 . S
C662 H665 0.929 . S
C663 C662 1.363 . S
C663 C669 1.428 . S
H664 C660 0.930 . S
H665 C662 0.929 . S
S666 N667 1.613 . S
S666 N668 1.610 . S
N667 S666 1.613 . S
N667 C670 1.350 . S
N668 S666 1.610 . S
N668 C669 1.351 . S
C669 C663 1.428 . S
C669 N668 1.351 . S
C669 C670 1.434 . S
C670 C661 1.429 . S
C670 N667 1.350 . S
C670 C669 1.434 . S
C671 C672 1.369 . S
C671 C673 1.419 . S
C671 H675 0.930 . S
C672 C671 1.369 . S
C672 C681 1.429 . S
C673 C671 1.419 . S
C673 C674 1.363 . S
C673 H676 0.929 . S
C674 C673 1.363 . S
C674 C680 1.428 . S
H675 C671 0.930 . S
H676 C673 0.929 . S
S677 N678 1.613 . S
S677 N679 1.610 . S
N678 S677 1.613 . S
N678 C681 1.350 . S
N679 S677 1.610 . S
N679 C680 1.351 . S
C680 C674 1.428 . S
C680 N679 1.351 . S
C680 C681 1.434 . S
C681 C672 1.429 . S
C681 N678 1.350 . S
C681 C680 1.434 . S
C682 C683 1.369 . S
C682 C684 1.419 . S
C682 H686 0.930 . S
C683 C682 1.369 . S
C683 C692 1.429 . S
C684 C682 1.419 . S
C684 C685 1.363 . S
C684 H687 0.929 . S
C685 C684 1.363 . S
C685 C691 1.428 . S
H686 C682 0.930 . S
H687 C684 0.929 . S
S688 N689 1.613 . S
S688 N690 1.610 . S
N689 S688 1.613 . S
N689 C692 1.350 . S
N690 S688 1.610 . S
N690 C691 1.351 . S
C691 C685 1.428 . S
C691 N690 1.351 . S
C691 C692 1.434 . S
C692 C683 1.429 . S
C692 N689 1.350 . S
C692 C691 1.434 . S
C693 C694 1.369 . S
C693 C695 1.419 . S
C693 H697 0.930 . S
C694 C693 1.369 . S
C694 C703 1.429 . S
C695 C693 1.419 . S
C695 C696 1.363 . S
C695 H698 0.929 . S
C696 C695 1.363 . S
C696 C702 1.428 . S
H697 C693 0.930 . S
H698 C695 0.929 . S
S699 N700 1.613 . S
S699 N701 1.610 . S
N700 S699 1.613 . S
N700 C703 1.350 . S
N701 S699 1.610 . S
N701 C702 1.351 . S
C702 C696 1.428 . S
C702 N701 1.351 . S
C702 C703 1.434 . S
C703 C694 1.429 . S
C703 N700 1.350 . S
C703 C702 1.434 . S
C704 C705 1.369 . S
C704 C706 1.419 . S
C704 H708 0.930 1_565 S
C705 C704 1.369 . S
C705 C714 1.429 . S
C706 C704 1.419 . S
C706 C707 1.363 . S
C706 H709 0.929 1_565 S
C707 C706 1.363 . S
C707 C713 1.428 . S
H708 C704 0.930 1_545 S
H709 C706 0.929 1_545 S
S710 N711 1.613 . S
S710 N712 1.610 . S
N711 S710 1.613 . S
N711 C714 1.350 . S
N712 S710 1.610 . S
N712 C713 1.351 . S
C713 C707 1.428 . S
C713 N712 1.351 . S
C713 C714 1.434 . S
C714 C705 1.429 . S
C714 N711 1.350 . S
C714 C713 1.434 . S
C715 C716 1.369 . S
C715 C717 1.419 . S
C715 H719 0.930 . S
C716 C715 1.369 . S
C716 C725 1.429 . S
C717 C715 1.419 . S
C717 C718 1.363 . S
C717 H720 0.929 . S
C718 C717 1.363 . S
C718 C724 1.428 . S
H719 C715 0.930 . S
H720 C717 0.929 . S
S721 N722 1.613 . S
S721 N723 1.610 . S
N722 S721 1.613 . S
N722 C725 1.350 . S
N723 S721 1.610 . S
N723 C724 1.351 . S
C724 C718 1.428 . S
C724 N723 1.351 . S
C724 C725 1.434 . S
C725 C716 1.429 . S
C725 N722 1.350 . S
C725 C724 1.434 . S
C726 C727 1.369 . S
C726 C728 1.419 . S
C726 H730 0.930 . S
C727 C726 1.369 . S
C727 C736 1.429 . S
C728 C726 1.419 . S
C728 C729 1.363 . S
C728 H731 0.929 . S
C729 C728 1.363 . S
C729 C735 1.428 . S
H730 C726 0.930 . S
H731 C728 0.929 . S
S732 N733 1.613 . S
S732 N734 1.610 . S
N733 S732 1.613 . S
N733 C736 1.350 1_565 S
N734 S732 1.610 . S
N734 C735 1.351 1_565 S
C735 C729 1.428 . S
C735 N734 1.351 1_545 S
C735 C736 1.434 . S
C736 C727 1.429 . S
C736 N733 1.350 1_545 S
C736 C735 1.434 . S
C737 C738 1.369 . S
C737 C739 1.419 . S
C737 H741 0.930 . S
C738 C737 1.369 . S
C738 C747 1.429 . S
C739 C737 1.419 . S
C739 C740 1.363 . S
C739 H742 0.929 . S
C740 C739 1.363 . S
C740 C746 1.428 1_545 S
H741 C737 0.930 . S
H742 C739 0.929 . S
S743 N744 1.613 . S
S743 N745 1.610 . S
N744 S743 1.613 . S
N744 C747 1.350 1_565 S
N745 S743 1.610 . S
N745 C746 1.351 . S
C746 C740 1.428 1_565 S
C746 N745 1.351 . S
C746 C747 1.434 1_565 S
C747 C738 1.429 . S
C747 N744 1.350 1_545 S
C747 C746 1.434 1_545 S
C748 C749 1.369 . S
C748 C750 1.419 . S
C748 H752 0.930 1_545 S
C749 C748 1.369 . S
C749 C758 1.429 . S
C750 C748 1.419 . S
C750 C751 1.363 . S
C750 H753 0.929 1_545 S
C751 C750 1.363 . S
C751 C757 1.428 . S
H752 C748 0.930 1_565 S
H753 C750 0.929 1_565 S
S754 N755 1.613 . S
S754 N756 1.610 . S
N755 S754 1.613 . S
N755 C758 1.350 . S
N756 S754 1.610 . S
N756 C757 1.351 . S
C757 C751 1.428 . S
C757 N756 1.351 . S
C757 C758 1.434 . S
C758 C749 1.429 . S
C758 N755 1.350 . S
C758 C757 1.434 . S
C759 C760 1.369 . S
C759 C761 1.419 . S
C759 H763 0.930 . S
C760 C759 1.369 . S
C760 C769 1.429 . S
C761 C759 1.419 . S
C761 C762 1.363 . S
C761 H764 0.929 1_545 S
C762 C761 1.363 . S
C762 C768 1.428 . S
H763 C759 0.930 . S
H764 C761 0.929 1_565 S
S765 N766 1.613 . S
S765 N767 1.610 . S
N766 S765 1.613 . S
N766 C769 1.350 . S
N767 S765 1.610 . S
N767 C768 1.351 . S
C768 C762 1.428 . S
C768 N767 1.351 . S
C768 C769 1.434 . S
C769 C760 1.429 . S
C769 N766 1.350 . S
C769 C768 1.434 . S
C770 C771 1.369 . S
C770 C772 1.419 . S
C770 H774 0.930 . S
C771 C770 1.369 . S
C771 C780 1.429 . S
C772 C770 1.419 . S
C772 C773 1.363 . S
C772 H775 0.929 . S
C773 C772 1.363 . S
C773 C779 1.428 . S
H774 C770 0.930 . S
H775 C772 0.929 . S
S776 N777 1.613 . S
S776 N778 1.610 . S
N777 S776 1.613 . S
N777 C780 1.350 . S
N778 S776 1.610 . S
N778 C779 1.351 . S
C779 C773 1.428 . S
C779 N778 1.351 . S
C779 C780 1.434 . S
C780 C771 1.429 . S
C780 N777 1.350 . S
C780 C779 1.434 . S
C781 C782 1.369 1_545 S
C781 C783 1.419 1_545 S
C781 H785 0.930 . S
C782 C781 1.369 1_565 S
C782 C791 1.429 . S
C783 C781 1.419 1_565 S
C783 C784 1.363 . S
C783 H786 0.933 . S
C784 C783 1.363 . S
C784 C790 1.428 . S
H785 C781 0.930 . S
H786 C783 0.933 . S
S787 N788 1.613 . S
S787 N789 1.610 . S
N788 S787 1.613 . S
N788 C791 1.350 . S
N789 S787 1.610 . S
N789 C790 1.351 . S
C790 C784 1.428 . S
C790 N789 1.351 . S
C790 C791 1.434 . S
C791 C782 1.429 . S
C791 N788 1.350 . S
C791 C790 1.434 . S
C792 C793 1.369 . S
C792 C794 1.419 . S
C792 H796 0.930 . S
C793 C792 1.369 . S
C793 C802 1.429 1_455 S
C794 C792 1.419 . S
C794 C795 1.363 1_455 S
C794 H797 0.929 . S
C795 C794 1.363 1_655 S
C795 C801 1.428 . S
H796 C792 0.930 . S
H797 C794 0.929 . S
S798 N799 1.613 . S
S798 N800 1.610 . S
N799 S798 1.613 . S
N799 C802 1.350 . S
N800 S798 1.610 . S
N800 C801 1.351 . S
C801 C795 1.428 . S
C801 N800 1.351 . S
C801 C802 1.434 . S
C802 C793 1.429 1_655 S
C802 N799 1.350 . S
C802 C801 1.434 . S
C803 C804 1.369 . S
C803 C805 1.419 1_455 S
C803 H807 0.930 . S
C804 C803 1.369 . S
C804 C813 1.429 . S
C805 C803 1.419 1_655 S
C805 C806 1.363 . S
C805 H808 0.929 . S
C806 C805 1.363 . S
C806 C812 1.428 . S
H807 C803 0.930 . S
H808 C805 0.929 . S
S809 N810 1.613 1_655 S
S809 N811 1.610 . S
N810 S809 1.613 1_455 S
N810 C813 1.350 . S
N811 S809 1.610 . S
N811 C812 1.351 . S
C812 C806 1.428 . S
C812 N811 1.351 . S
C812 C813 1.434 1_655 S
C813 C804 1.429 . S
C813 N810 1.350 . S
C813 C812 1.434 1_455 S
C814 C815 1.369 . S
C814 C816 1.419 . S
C814 H818 0.930 . S
C815 C814 1.369 . S
C815 C824 1.429 . S
C816 C814 1.419 . S
C816 C817 1.363 . S
C816 H819 0.929 . S
C817 C816 1.363 . S
C817 C823 1.428 . S
H818 C814 0.930 . S
H819 C816 0.929 . S
S820 N821 1.613 . S
S820 N822 1.610 . S
N821 S820 1.613 . S
N821 C824 1.350 . S
N822 S820 1.610 . S
N822 C823 1.351 . S
C823 C817 1.428 . S
C823 N822 1.351 . S
C823 C824 1.434 . S
C824 C815 1.429 . S
C824 N821 1.350 . S
C824 C823 1.434 . S
C825 C826 1.369 . S
C825 C827 1.419 . S
C825 H829 0.930 . S
C826 C825 1.369 . S
C826 C835 1.429 . S
C827 C825 1.419 . S
C827 C828 1.363 . S
C827 H830 0.929 . S
C828 C827 1.363 . S
C828 C834 1.428 . S
H829 C825 0.930 . S
H830 C827 0.929 . S
S831 N832 1.613 1_556 S
S831 N833 1.610 1_556 S
N832 S831 1.613 1_554 S
N832 C835 1.350 . S
N833 S831 1.610 1_554 S
N833 C834 1.351 . S
C834 C828 1.428 . S
C834 N833 1.351 . S
C834 C835 1.434 . S
C835 C826 1.429 . S
C835 N832 1.350 . S
C835 C834 1.434 . S
C836 C837 1.369 1_655 S
C836 C838 1.419 . S
C836 H840 0.930 . S
C837 C836 1.369 1_455 S
C837 C846 1.429 . S
C838 C836 1.419 . S
C838 C839 1.363 . S
C838 H841 0.929 . S
C839 C838 1.363 . S
C839 C845 1.428 1_655 S
H840 C836 0.930 . S
H841 C838 0.929 . S
S842 N843 1.613 . S
S842 N844 1.610 . S
N843 S842 1.613 . S
N843 C846 1.350 . S
N844 S842 1.610 . S
N844 C845 1.351 . S
C845 C839 1.428 1_455 S
C845 N844 1.351 . S
C845 C846 1.434 . S
C846 C837 1.429 . S
C846 N843 1.350 . S
C846 C845 1.434 . S
C847 C848 1.369 . S
C847 C849 1.419 1_655 S
C847 H851 0.930 . S
C848 C847 1.369 . S
C848 C857 1.429 . S
C849 C847 1.419 1_455 S
C849 C850 1.363 . S
C849 H852 0.929 . S
C850 C849 1.363 . S
C850 C856 1.428 . S
H851 C847 0.930 . S
H852 C849 0.929 . S
S853 N854 1.613 1_455 S
S853 N855 1.610 . S
N854 S853 1.613 1_655 S
N854 C857 1.350 . S
N855 S853 1.610 . S
N855 C856 1.351 . S
C856 C850 1.428 . S
C856 N855 1.351 . S
C856 C857 1.434 1_455 S
C857 C848 1.429 . S
C857 N854 1.350 . S
C857 C856 1.434 1_655 S
C858 C859 1.369 . S
C858 C860 1.419 . S
C858 H862 0.930 . S
C859 C858 1.369 . S
C859 C868 1.429 . S
C860 C858 1.419 . S
C860 C861 1.363 . S
C860 H863 0.929 . S
C861 C860 1.363 . S
C861 C867 1.428 . S
H862 C858 0.930 . S
H863 C860 0.929 . S
S864 N865 1.613 . S
S864 N866 1.610 . S
N865 S864 1.613 . S
N865 C868 1.350 . S
N866 S864 1.610 . S
N866 C867 1.351 . S
C867 C861 1.428 . S
C867 N866 1.351 . S
C867 C868 1.434 . S
C868 C859 1.429 . S
C868 N865 1.350 . S
C868 C867 1.434 . S
C869 C870 1.369 . S
C869 C871 1.419 . S
C869 H873 0.930 . S
C870 C869 1.369 . S
C870 C879 1.429 . S
C871 C869 1.419 . S
C871 C872 1.363 . S
C871 H874 0.929 . S
C872 C871 1.363 . S
C872 C878 1.428 . S
H873 C869 0.930 . S
H874 C871 0.929 . S
S875 N876 1.613 . S
S875 N877 1.610 . S
N876 S875 1.613 . S
N876 C879 1.350 . S
N877 S875 1.610 . S
N877 C878 1.351 . S
C878 C872 1.428 . S
C878 N877 1.351 . S
C878 C879 1.434 . S
C879 C870 1.429 . S
C879 N876 1.350 . S
C879 C878 1.434 . S
C353 C15 1.576 . S
C355 C140 1.511 . S
C364 C348 1.512 . S
C366 C29 1.576 . S
C375 C51 1.576 . S
C377 C98 1.512 1_455 S
C386 C304 1.519 . S
C388 C73 1.576 . S
C397 C52 1.518 . S
C399 C109 1.577 . S
C408 C250 1.516 . S
C410 C125 1.577 . S
C419 C139 1.577 . S
C421 C18 1.514 1_655 S
C430 C169 1.577 . S
C432 C216 1.514 . S
C441 C183 1.576 . S
C443 C316 1.512 1_655 S
C452 C213 1.575 . S
C454 C172 1.512 . S
C463 C274 1.511 . S
C465 C227 1.576 . S
C474 C128 1.518 . S
C476 C249 1.576 . S
C485 C228 1.519 1_455 S
C487 C285 1.576 . S
C496 C301 1.576 . S
C498 C74 1.518 . S
C507 C184 1.520 . S
C509 C315 1.577 . S
C518 C30 1.512 . S
C520 C345 1.575 . S
C529 C21 0.757 . S
C531 C271 0.738 . S
C540 C37 0.734 . S
C542 C131 0.755 . S
C551 C59 0.737 . S
C553 C323 0.753 . S
C562 C175 0.743 . S
C564 C81 0.749 . S
C573 C95 0.754 . S
C575 C191 0.740 . S
C584 C235 0.738 . S
C586 C147 0.752 . S
C595 C219 0.736 . S
C597 C307 0.754 . S
C606 C351 0.733 . S
C608 C257 0.755 . S
C617 C10 1.557 . S
C619 C43 1.570 . S
C628 C65 1.560 . S
C630 C40 1.565 . S
C639 C62 1.557 . S
C641 C87 1.568 . S
C650 C84 1.567 . S
C652 C7 1.562 . S
C661 C117 1.565 . S
C663 C96 1.562 . S
C672 C153 1.571 . S
C674 C120 1.557 . S
C683 C161 1.561 . S
C685 C150 1.565 . S
C694 C103 1.561 . S
C696 C164 1.566 . S
C705 C194 1.565 . S
C707 C205 1.564 . S
C716 C208 1.566 . S
C718 C241 1.564 . S
C727 C263 1.562 . S
C729 C238 1.564 . S
C738 C260 1.556 . S
C740 C197 1.570 . S
C749 C293 1.564 . S
C751 C272 1.563 . S
C760 C296 1.563 . S
C762 C329 1.564 . S
C771 C326 1.567 . S
C773 C337 1.562 . S
C782 C279 1.561 . S
C784 C340 1.565 . S
C793 C8 1.587 . S
C795 C230 1.587 . S
C804 C32 1.593 . S
C806 C252 1.592 . S
C815 C54 1.588 . S
C817 C186 1.587 . S
C826 C206 1.585 . S
C828 C76 1.586 . S
C837 C318 1.588 . S
C839 C106 1.590 . S
C848 C118 1.592 . S
C850 C338 1.592 . S
C859 C142 1.589 . S
C861 C282 1.588 . S
C870 C294 1.590 . S
C872 C162 1.591 . S
