# Generated by pormake.
# Topology pcu-g, (3)-cn, num edge types: 1
# Building blocks:
#     Node 0, Type 0, BuildingBlock: WUSLED_clean_sbu_0, # of connection points: 3
#     Node 1, Type 0, BuildingBlock: WUSLED_clean_sbu_0, # of connection points: 3
#     Node 2, Type 0, BuildingBlock: WUSLED_clean_sbu_0, # of connection points: 3
#     Node 3, Type 0, BuildingBlock: WUSLED_clean_sbu_0, # of connection points: 3
#     Node 4, Type 0, BuildingBlock: WUSLED_clean_sbu_0, # of connection points: 3
#     Node 5, Type 0, BuildingBlock: WUSLED_clean_sbu_0, # of connection points: 3
#     Node 6, Type 0, BuildingBlock: WUSLED_clean_sbu_0, # of connection points: 3
#     Node 7, Type 0, BuildingBlock: WUSLED_clean_sbu_0, # of connection points: 3
#     Node 8, Type 0, BuildingBlock: WUSLED_clean_sbu_0, # of connection points: 3
#     Node 9, Type 0, BuildingBlock: WUSLED_clean_sbu_0, # of connection points: 3
#     Node 10, Type 0, BuildingBlock: WUSLED_clean_sbu_0, # of connection points: 3
#     Node 11, Type 0, BuildingBlock: WUSLED_clean_sbu_0, # of connection points: 3
#     Node 12, Type 0, BuildingBlock: WUSLED_clean_sbu_0, # of connection points: 3
#     Node 13, Type 0, BuildingBlock: WUSLED_clean_sbu_0, # of connection points: 3
#     Node 14, Type 0, BuildingBlock: WUSLED_clean_sbu_0, # of connection points: 3
#     Node 15, Type 0, BuildingBlock: WUSLED_clean_sbu_0, # of connection points: 3
#     Node 16, Type 0, BuildingBlock: WUSLED_clean_sbu_0, # of connection points: 3
#     Node 17, Type 0, BuildingBlock: WUSLED_clean_sbu_0, # of connection points: 3
#     Node 18, Type 0, BuildingBlock: WUSLED_clean_sbu_0, # of connection points: 3
#     Node 19, Type 0, BuildingBlock: WUSLED_clean_sbu_0, # of connection points: 3
#     Node 20, Type 0, BuildingBlock: WUSLED_clean_sbu_0, # of connection points: 3
#     Node 21, Type 0, BuildingBlock: WUSLED_clean_sbu_0, # of connection points: 3
#     Node 22, Type 0, BuildingBlock: WUSLED_clean_sbu_0, # of connection points: 3
#     Node 23, Type 0, BuildingBlock: WUSLED_clean_sbu_0, # of connection points: 3
#     Node 24, Type 0, BuildingBlock: WUSLED_clean_sbu_0, # of connection points: 3
#     Node 25, Type 0, BuildingBlock: WUSLED_clean_sbu_0, # of connection points: 3
#     Node 26, Type 0, BuildingBlock: WUSLED_clean_sbu_0, # of connection points: 3
#     Node 27, Type 0, BuildingBlock: WUSLED_clean_sbu_0, # of connection points: 3
#     Node 28, Type 0, BuildingBlock: WUSLED_clean_sbu_0, # of connection points: 3
#     Node 29, Type 0, BuildingBlock: WUSLED_clean_sbu_0, # of connection points: 3
#     Node 30, Type 0, BuildingBlock: WUSLED_clean_sbu_0, # of connection points: 3
#     Node 31, Type 0, BuildingBlock: WUSLED_clean_sbu_0, # of connection points: 3
#     Node 32, Type 0, BuildingBlock: WUSLED_clean_sbu_0, # of connection points: 3
#     Node 33, Type 0, BuildingBlock: WUSLED_clean_sbu_0, # of connection points: 3
#     Node 34, Type 0, BuildingBlock: WUSLED_clean_sbu_0, # of connection points: 3
#     Node 35, Type 0, BuildingBlock: WUSLED_clean_sbu_0, # of connection points: 3
#     Node 36, Type 0, BuildingBlock: WUSLED_clean_sbu_0, # of connection points: 3
#     Node 37, Type 0, BuildingBlock: WUSLED_clean_sbu_0, # of connection points: 3
#     Node 38, Type 0, BuildingBlock: WUSLED_clean_sbu_0, # of connection points: 3
#     Node 39, Type 0, BuildingBlock: WUSLED_clean_sbu_0, # of connection points: 3
#     Node 40, Type 0, BuildingBlock: WUSLED_clean_sbu_0, # of connection points: 3
#     Node 41, Type 0, BuildingBlock: WUSLED_clean_sbu_0, # of connection points: 3
#     Node 42, Type 0, BuildingBlock: WUSLED_clean_sbu_0, # of connection points: 3
#     Node 43, Type 0, BuildingBlock: WUSLED_clean_sbu_0, # of connection points: 3
#     Node 44, Type 0, BuildingBlock: WUSLED_clean_sbu_0, # of connection points: 3
#     Node 45, Type 0, BuildingBlock: WUSLED_clean_sbu_0, # of connection points: 3
#     Node 46, Type 0, BuildingBlock: WUSLED_clean_sbu_0, # of connection points: 3
#     Node 47, Type 0, BuildingBlock: WUSLED_clean_sbu_0, # of connection points: 3
#     Edge 48, Type (0, 0), BuildingBlock: AJUNOK_clean_linker_0, # of connection points: 2
#     Edge 49, Type (0, 0), BuildingBlock: AJUNOK_clean_linker_0, # of connection points: 2
#     Edge 50, Type (0, 0), BuildingBlock: AJUNOK_clean_linker_0, # of connection points: 2
#     Edge 51, Type (0, 0), BuildingBlock: AJUNOK_clean_linker_0, # of connection points: 2
#     Edge 52, Type (0, 0), BuildingBlock: AJUNOK_clean_linker_0, # of connection points: 2
#     Edge 53, Type (0, 0), BuildingBlock: AJUNOK_clean_linker_0, # of connection points: 2
#     Edge 54, Type (0, 0), BuildingBlock: AJUNOK_clean_linker_0, # of connection points: 2
#     Edge 55, Type (0, 0), BuildingBlock: AJUNOK_clean_linker_0, # of connection points: 2
#     Edge 56, Type (0, 0), BuildingBlock: AJUNOK_clean_linker_0, # of connection points: 2
#     Edge 57, Type (0, 0), BuildingBlock: AJUNOK_clean_linker_0, # of connection points: 2
#     Edge 58, Type (0, 0), BuildingBlock: AJUNOK_clean_linker_0, # of connection points: 2
#     Edge 59, Type (0, 0), BuildingBlock: AJUNOK_clean_linker_0, # of connection points: 2
#     Edge 60, Type (0, 0), BuildingBlock: AJUNOK_clean_linker_0, # of connection points: 2
#     Edge 61, Type (0, 0), BuildingBlock: AJUNOK_clean_linker_0, # of connection points: 2
#     Edge 62, Type (0, 0), BuildingBlock: AJUNOK_clean_linker_0, # of connection points: 2
#     Edge 63, Type (0, 0), BuildingBlock: AJUNOK_clean_linker_0, # of connection points: 2
#     Edge 64, Type (0, 0), BuildingBlock: AJUNOK_clean_linker_0, # of connection points: 2
#     Edge 65, Type (0, 0), BuildingBlock: AJUNOK_clean_linker_0, # of connection points: 2
#     Edge 66, Type (0, 0), BuildingBlock: AJUNOK_clean_linker_0, # of connection points: 2
#     Edge 67, Type (0, 0), BuildingBlock: AJUNOK_clean_linker_0, # of connection points: 2
#     Edge 68, Type (0, 0), BuildingBlock: AJUNOK_clean_linker_0, # of connection points: 2
#     Edge 69, Type (0, 0), BuildingBlock: AJUNOK_clean_linker_0, # of connection points: 2
#     Edge 70, Type (0, 0), BuildingBlock: AJUNOK_clean_linker_0, # of connection points: 2
#     Edge 71, Type (0, 0), BuildingBlock: AJUNOK_clean_linker_0, # of connection points: 2
#     Edge 72, Type (0, 0), BuildingBlock: AJUNOK_clean_linker_0, # of connection points: 2
#     Edge 73, Type (0, 0), BuildingBlock: AJUNOK_clean_linker_0, # of connection points: 2
#     Edge 74, Type (0, 0), BuildingBlock: AJUNOK_clean_linker_0, # of connection points: 2
#     Edge 75, Type (0, 0), BuildingBlock: AJUNOK_clean_linker_0, # of connection points: 2
#     Edge 76, Type (0, 0), BuildingBlock: AJUNOK_clean_linker_0, # of connection points: 2
#     Edge 77, Type (0, 0), BuildingBlock: AJUNOK_clean_linker_0, # of connection points: 2
#     Edge 78, Type (0, 0), BuildingBlock: AJUNOK_clean_linker_0, # of connection points: 2
#     Edge 79, Type (0, 0), BuildingBlock: AJUNOK_clean_linker_0, # of connection points: 2
#     Edge 80, Type (0, 0), BuildingBlock: AJUNOK_clean_linker_0, # of connection points: 2
#     Edge 81, Type (0, 0), BuildingBlock: AJUNOK_clean_linker_0, # of connection points: 2
#     Edge 82, Type (0, 0), BuildingBlock: AJUNOK_clean_linker_0, # of connection points: 2
#     Edge 83, Type (0, 0), BuildingBlock: AJUNOK_clean_linker_0, # of connection points: 2
#     Edge 84, Type (0, 0), BuildingBlock: AJUNOK_clean_linker_0, # of connection points: 2
#     Edge 85, Type (0, 0), BuildingBlock: AJUNOK_clean_linker_0, # of connection points: 2
#     Edge 86, Type (0, 0), BuildingBlock: AJUNOK_clean_linker_0, # of connection points: 2
#     Edge 87, Type (0, 0), BuildingBlock: AJUNOK_clean_linker_0, # of connection points: 2
#     Edge 88, Type (0, 0), BuildingBlock: AJUNOK_clean_linker_0, # of connection points: 2
#     Edge 89, Type (0, 0), BuildingBlock: AJUNOK_clean_linker_0, # of connection points: 2
#     Edge 90, Type (0, 0), BuildingBlock: AJUNOK_clean_linker_0, # of connection points: 2
#     Edge 91, Type (0, 0), BuildingBlock: AJUNOK_clean_linker_0, # of connection points: 2
#     Edge 92, Type (0, 0), BuildingBlock: AJUNOK_clean_linker_0, # of connection points: 2
#     Edge 93, Type (0, 0), BuildingBlock: AJUNOK_clean_linker_0, # of connection points: 2
#     Edge 94, Type (0, 0), BuildingBlock: AJUNOK_clean_linker_0, # of connection points: 2
#     Edge 95, Type (0, 0), BuildingBlock: AJUNOK_clean_linker_0, # of connection points: 2
#     Edge 96, Type (0, 0), BuildingBlock: AJUNOK_clean_linker_0, # of connection points: 2
#     Edge 97, Type (0, 0), BuildingBlock: AJUNOK_clean_linker_0, # of connection points: 2
#     Edge 98, Type (0, 0), BuildingBlock: AJUNOK_clean_linker_0, # of connection points: 2
#     Edge 99, Type (0, 0), BuildingBlock: AJUNOK_clean_linker_0, # of connection points: 2
#     Edge 100, Type (0, 0), BuildingBlock: AJUNOK_clean_linker_0, # of connection points: 2
#     Edge 101, Type (0, 0), BuildingBlock: AJUNOK_clean_linker_0, # of connection points: 2
#     Edge 102, Type (0, 0), BuildingBlock: AJUNOK_clean_linker_0, # of connection points: 2
#     Edge 103, Type (0, 0), BuildingBlock: AJUNOK_clean_linker_0, # of connection points: 2
#     Edge 104, Type (0, 0), BuildingBlock: AJUNOK_clean_linker_0, # of connection points: 2
#     Edge 105, Type (0, 0), BuildingBlock: AJUNOK_clean_linker_0, # of connection points: 2
#     Edge 106, Type (0, 0), BuildingBlock: AJUNOK_clean_linker_0, # of connection points: 2
#     Edge 107, Type (0, 0), BuildingBlock: AJUNOK_clean_linker_0, # of connection points: 2
#     Edge 108, Type (0, 0), BuildingBlock: AJUNOK_clean_linker_0, # of connection points: 2
#     Edge 109, Type (0, 0), BuildingBlock: AJUNOK_clean_linker_0, # of connection points: 2
#     Edge 110, Type (0, 0), BuildingBlock: AJUNOK_clean_linker_0, # of connection points: 2
#     Edge 111, Type (0, 0), BuildingBlock: AJUNOK_clean_linker_0, # of connection points: 2
#     Edge 112, Type (0, 0), BuildingBlock: AJUNOK_clean_linker_0, # of connection points: 2
#     Edge 113, Type (0, 0), BuildingBlock: AJUNOK_clean_linker_0, # of connection points: 2
#     Edge 114, Type (0, 0), BuildingBlock: AJUNOK_clean_linker_0, # of connection points: 2
#     Edge 115, Type (0, 0), BuildingBlock: AJUNOK_clean_linker_0, # of connection points: 2
#     Edge 116, Type (0, 0), BuildingBlock: AJUNOK_clean_linker_0, # of connection points: 2
#     Edge 117, Type (0, 0), BuildingBlock: AJUNOK_clean_linker_0, # of connection points: 2
#     Edge 118, Type (0, 0), BuildingBlock: AJUNOK_clean_linker_0, # of connection points: 2
#     Edge 119, Type (0, 0), BuildingBlock: AJUNOK_clean_linker_0, # of connection points: 2
# Relax obj value: 0.001
# Max RMSD: 0.008
# Mean RMSD: 0.005
data_MOF--net-pcu-g--node1-WUSLED_clean_sbu_0--edge1-AJUNOK_clean_linker_0
_symmetry_space_group_name_H-M    P1
_symmetry_Int_Tables_number       1
_symmetry_cell_setting            triclinic
loop_
_symmetry_equiv_pos_as_xyz
'x, y, z'
_cell_length_a     102.47481
_cell_length_b     102.78378
_cell_length_c     103.29128
_cell_angle_alpha  89.910617
_cell_angle_beta   90.013653
_cell_angle_gamma 89.970051
loop_
_atom_site_label
_atom_site_type_symbol
_atom_site_fract_x
_atom_site_fract_y
_atom_site_fract_z
_atom_type_partial_charge
C0 C 0.01574 0.14362 0.39532 0.0
C1 C 0.01879 0.13069 0.3986 0.0
C2 C 0.99724 0.12294 0.38709 0.0
C3 C 1.00857 0.12044 0.39456 0.0
C4 C 0.99466 0.13591 0.38356 0.0
C5 C 1.00272 0.14603 0.38766 0.0
U6 U 0.04022 0.16874 0.41317 0.0
O7 O 0.04496 0.18798 0.40467 0.0
O8 O 0.03255 0.18666 0.42208 0.0
C9 C 0.03847 0.19425 0.41371 0.0
C10 C 0.02283 0.15514 0.40026 0.0
C11 C 0.03315 0.20742 0.41117 0.0
C12 C 0.01716 0.22288 0.40264 0.0
C13 C 0.02186 0.21 0.40383 0.0
C14 C 0.03492 0.23049 0.41606 0.0
C15 C 0.0237 0.2333 0.40874 0.0
C16 C 0.0396 0.2178 0.41714 0.0
C17 C 0.0696 0.15529 0.43566 0.0
C18 C 0.08548 0.1632 0.45143 0.0
C19 C 0.08296 0.14007 0.44798 0.0
C20 C 0.07345 0.14255 0.43862 0.0
C21 C 0.08911 0.15032 0.4546 0.0
C22 C 0.07578 0.16569 0.44203 0.0
C23 C 0.05845 0.15678 0.42663 0.0
O24 O 0.02135 0.15851 0.41243 0.0
O25 O 0.03408 0.15864 0.3952 0.0
O26 O 0.06033 0.16085 0.41469 0.0
O27 O 0.04693 0.15971 0.43135 0.0
H28 H 0.02722 0.12857 0.40458 0.0
H29 H 0.01285 0.11068 0.39778 0.0
H30 H 0.98627 0.13833 0.37765 0.0
H31 H 1.00016 0.15592 0.38502 0.0
H32 H 1.00646 0.2247 0.39695 0.0
H33 H 0.01665 0.20212 0.39917 0.0
H34 H 0.04 0.23811 0.42125 0.0
H35 H 0.04822 0.21604 0.42296 0.0
H36 H 0.09006 0.17133 0.4563 0.0
H37 H 0.08516 0.13004 0.45033 0.0
H38 H 0.06875 0.13438 0.43392 0.0
H39 H 0.07296 0.17563 0.43994 0.0
C40 C 0.95469 0.36202 0.44233 0.0
C41 C 0.95446 0.37506 0.44638 0.0
C42 C 0.93484 0.3708 0.45913 0.0
C43 C 0.94458 0.37941 0.45478 0.0
C44 C 0.935 0.35787 0.45481 0.0
C45 C 0.94485 0.35354 0.44652 0.0
U46 U 0.98581 0.35183 0.42007 0.0
O47 O 0.99649 0.33408 0.42606 0.0
O48 O 0.98449 0.33404 0.4081 0.0
C49 C 0.99199 0.32749 0.41612 0.0
C50 C 0.96537 0.35656 0.43448 0.0
C51 C 0.99553 0.31377 0.41383 0.0
C52 C 0.99404 0.29088 0.41976 0.0
C53 C 0.99024 0.30386 0.42155 0.0
C54 C 1.00806 0.29751 0.40211 0.0
C55 C 1.00323 0.2875 0.41018 0.0
C56 C 1.00434 0.31049 0.404 0.0
C57 C 1.00909 0.37962 0.40423 0.0
C58 C 0.03119 0.38326 0.39217 0.0
C59 C 0.01867 0.40162 0.39996 0.0
C60 C 1.00748 0.3931 0.40523 0.0
C61 C 0.02965 0.39686 0.39329 0.0
C62 C 0.022 0.37468 0.39763 0.0
C63 C 0.99938 0.37128 0.41075 0.0
O64 O 0.96453 0.35549 0.42183 0.0
O65 O 0.97724 0.35577 0.43921 0.0
O66 O 1.00214 0.36571 0.42188 0.0
O67 O 0.98982 0.36582 0.40423 0.0
H68 H 0.96199 0.38176 0.44327 0.0
H69 H 0.94461 0.38944 0.45798 0.0
H70 H 0.92769 0.35103 0.45814 0.0
H71 H 0.94493 0.34342 0.44359 0.0
H72 H 0.99004 0.28355 0.42616 0.0
H73 H 0.9833 0.3062 0.42911 0.0
H74 H 0.01666 0.29536 0.39422 0.0
H75 H 1.00841 0.31799 0.39782 0.0
H76 H 0.0395 0.37924 0.38708 0.0
H77 H 0.01731 0.41195 0.40146 0.0
H78 H 0.99919 0.3971 0.4104 0.0
H79 H 0.02343 0.36428 0.39678 0.0
C80 C 0.01538 0.87877 0.12883 0.0
C81 C 0.01894 0.89184 0.1269 0.0
C82 C 0.99676 0.89907 0.1376 0.0
C83 C 1.0087 0.90191 0.13131 0.0
C84 C 0.99343 0.88592 0.13943 0.0
C85 C 1.00169 0.87599 0.13526 0.0
U86 U 0.04039 0.85402 0.11109 0.0
O87 O 0.04518 0.83484 0.11967 0.0
O88 O 0.03297 0.83604 0.10213 0.0
C89 C 0.03887 0.8285 0.11057 0.0
C90 C 0.02282 0.86752 0.12381 0.0
C91 C 0.03338 0.81545 0.11324 0.0
C92 C 0.01734 0.8004 0.12224 0.0
C93 C 0.02233 0.81314 0.12099 0.0
C94 C 0.03451 0.79233 0.1083 0.0
C95 C 0.0234 0.78993 0.11581 0.0
C96 C 0.03942 0.80493 0.10704 0.0
C97 C 0.06975 0.86754 0.08869 0.0
C98 C 0.08593 0.85985 0.07309 0.0
C99 C 0.08276 0.88292 0.07634 0.0
C100 C 0.07324 0.88032 0.08561 0.0
C101 C 0.08886 0.87279 0.06948 0.0
C102 C 0.07639 0.85722 0.08262 0.0
C103 C 0.05859 0.86595 0.09766 0.0
O104 O 0.0214 0.86409 0.11165 0.0
O105 O 0.03409 0.86419 0.12894 0.0
O106 O 0.06046 0.86195 0.10962 0.0
O107 O 0.04709 0.86301 0.0929 0.0
H108 H 0.02791 0.89424 0.1219 0.0
H109 H 0.01365 0.9119 0.12974 0.0
H110 H 0.98418 0.88319 0.14366 0.0
H111 H 0.99869 0.86598 0.13672 0.0
H112 H 1.00666 0.79874 0.12799 0.0
H113 H 0.01747 0.82112 0.12583 0.0
H114 H 0.03923 0.78446 0.10313 0.0
H115 H 0.0479 0.80649 0.10096 0.0
H116 H 0.09058 0.85179 0.06818 0.0
H117 H 0.0852 0.89299 0.07445 0.0
H118 H 0.06838 0.88843 0.09027 0.0
H119 H 0.07394 0.84723 0.08494 0.0
C120 C 0.95508 0.66093 0.08191 0.0
C121 C 0.95449 0.64765 0.07885 0.0
C122 C 0.93552 0.65168 0.06499 0.0
C123 C 0.94467 0.64304 0.07055 0.0
C124 C 0.93601 0.66487 0.06849 0.0
C125 C 0.94566 0.6694 0.07687 0.0
U126 U 0.98602 0.67109 0.10422 0.0
O127 O 0.99721 0.6886 0.09852 0.0
O128 O 0.98454 0.68896 0.11602 0.0
C129 C 0.9927 0.69522 0.10843 0.0
C130 C 0.96564 0.66666 0.08967 0.0
C131 C 0.99563 0.70912 0.11027 0.0
C132 C 0.99045 0.73202 0.10738 0.0
C133 C 0.98727 0.71886 0.10569 0.0
C134 C 0.01265 0.7258 0.11773 0.0
C135 C 1.00248 0.73587 0.11302 0.0
C136 C 1.00715 0.71269 0.11654 0.0
C137 C 1.00918 0.64333 0.12017 0.0
C138 C 0.03167 0.63983 0.1316 0.0
C139 C 0.01853 0.62139 0.1251 0.0
C140 C 1.00731 0.62985 0.11978 0.0
C141 C 0.02983 0.62624 0.1311 0.0
C142 C 0.0224 0.64834 0.12616 0.0
C143 C 0.99941 0.65152 0.11357 0.0
O144 O 0.96479 0.66753 0.10233 0.0
O145 O 0.97753 0.66739 0.08498 0.0
O146 O 1.00223 0.65709 0.10246 0.0
O147 O 0.98987 0.65705 0.12005 0.0
H148 H 0.96165 0.64094 0.08273 0.0
H149 H 0.94433 0.63274 0.06841 0.0
H150 H 0.9292 0.6718 0.0644 0.0
H151 H 0.94598 0.67969 0.07914 0.0
H152 H 0.98312 0.73896 0.10453 0.0
H153 H 0.97818 0.71629 0.10099 0.0
H154 H 0.02202 0.72782 0.12206 0.0
H155 H 0.0157 0.70528 0.12025 0.0
H156 H 0.04026 0.64386 0.13619 0.0
H157 H 0.01693 0.61102 0.12421 0.0
H158 H 0.99877 0.62579 0.11508 0.0
H159 H 0.02405 0.65874 0.12651 0.0
C160 C 0.3965 0.01262 0.14413 0.0
C161 C 0.39842 0.01466 0.13084 0.0
C162 C 0.38782 0.99188 0.12609 0.0
C163 C 0.39406 1.00332 0.12186 0.0
C164 C 0.38536 0.99027 0.1394 0.0
C165 C 0.38975 0.99947 0.14834 0.0
U166 U 0.41365 0.03678 0.17029 0.0
O167 O 0.40348 0.03942 0.18899 0.0
O168 O 0.42122 0.02693 0.18779 0.0
C169 C 0.41195 0.03193 0.19502 0.0
C170 C 0.40261 0.02123 0.15368 0.0
C171 C 0.41065 0.02868 0.20882 0.0
C172 C 0.40314 0.01426 0.22592 0.0
C173 C 0.40357 0.01771 0.2128 0.0
C174 C 0.4166 0.03288 0.23122 0.0
C175 C 0.40968 0.02178 0.23526 0.0
C176 C 0.41711 0.03626 0.21809 0.0
C177 C 0.43626 0.06702 0.15804 0.0
C178 C 0.45237 0.08353 0.16344 0.0
C179 C 0.44686 0.07947 0.14101 0.0
C180 C 0.43795 0.06993 0.14489 0.0
C181 C 0.45429 0.08627 0.15022 0.0
C182 C 0.4434 0.07398 0.16733 0.0
C183 C 0.42788 0.056 0.16172 0.0
O184 O 0.41452 0.01927 0.15794 0.0
O185 O 0.39658 0.03152 0.15829 0.0
O186 O 0.41543 0.05745 0.16444 0.0
O187 O 0.43276 0.04441 0.164 0.0
H188 H 0.40366 0.02315 0.12745 0.0
H189 H 0.39601 1.00488 0.11168 0.0
H190 H 0.38021 0.98178 0.14293 0.0
H191 H 0.38816 0.99778 0.15858 0.0
H192 H 0.39773 1.00358 0.22879 0.0
H193 H 0.39858 1.00961 0.20576 0.0
H194 H 0.42186 0.03875 0.23818 0.0
H195 H 0.42272 0.0447 0.21515 0.0
H196 H 0.45789 0.08871 0.17074 0.0
H197 H 0.44821 0.08127 0.13076 0.0
H198 H 0.4326 0.06458 0.13758 0.0
H199 H 0.44224 0.07183 0.17753 0.0
C200 C 0.57967 0.45562 0.16019 0.0
C201 C 0.5756 0.45538 0.14721 0.0
C202 C 0.56298 0.43569 0.15142 0.0
C203 C 0.56726 0.44546 0.14286 0.0
C204 C 0.56732 0.43585 0.16429 0.0
C205 C 0.57556 0.44575 0.16863 0.0
U206 U 0.60175 0.48676 0.17072 0.0
O207 O 0.59561 0.49707 0.18848 0.0
O208 O 0.61375 0.48512 0.18844 0.0
C209 C 0.60564 0.49251 0.19499 0.0
C210 C 0.58751 0.46633 0.16556 0.0
C211 C 0.6079 0.49583 0.20864 0.0
C212 C 0.60305 0.49264 0.23147 0.0
C213 C 0.60152 0.48894 0.21851 0.0
C214 C 0.61771 0.50987 0.22482 0.0
C215 C 0.61094 0.50334 0.23477 0.0
C216 C 0.61613 0.50619 0.21188 0.0
C217 C 0.61729 0.5108 0.14351 0.0
C218 C 0.63089 0.52983 0.13967 0.0
C219 C 0.61957 0.51968 0.12185 0.0
C220 C 0.61464 0.51028 0.13028 0.0
C221 C 0.62807 0.52958 0.1262 0.0
C222 C 0.62537 0.5207 0.14824 0.0
C223 C 0.61096 0.50103 0.15185 0.0
O224 O 0.60028 0.46564 0.16658 0.0
O225 O 0.58255 0.47807 0.16663 0.0
O226 O 0.5996 0.50337 0.15727 0.0
O227 O 0.61768 0.49145 0.15705 0.0
H228 H 0.57866 0.46293 0.14055 0.0
H229 H 0.56402 0.44548 0.13287 0.0
H230 H 0.56405 0.4285 0.17108 0.0
H231 H 0.57851 0.44585 0.1787 0.0
H232 H 0.59771 0.48739 0.23886 0.0
H233 H 0.59516 0.48086 0.21617 0.0
H234 H 0.62419 0.51789 0.22702 0.0
H235 H 0.62122 0.51155 0.20437 0.0
H236 H 0.63742 0.53697 0.14375 0.0
H237 H 0.61597 0.51927 0.11207 0.0
H238 H 0.60825 0.5028 0.12646 0.0
H239 H 0.62749 0.52131 0.1585 0.0
C240 C 0.39593 0.01428 0.37773 0.0
C241 C 0.39741 1.00848 0.39078 0.0
C242 C 0.38764 0.03121 0.39763 0.0
C243 C 0.39316 0.01902 0.40071 0.0
C244 C 0.38596 0.0346 0.38462 0.0
C245 C 0.39 0.02621 0.37481 0.0
U246 U 0.41348 0.98648 0.35379 0.0
O247 O 0.40508 0.9817 0.33463 0.0
O248 O 0.42328 0.99308 0.33598 0.0
C249 C 0.41467 0.98748 0.3284 0.0
C250 C 0.40089 1.0046 0.3666 0.0
C251 C 0.4125 0.99296 0.31533 0.0
C252 C 0.4014 1.00646 0.2993 0.0
C253 C 0.40266 1.00194 0.31215 0.0
C254 C 0.41994 0.99338 0.29301 0.0
C255 C 0.41019 1.00237 0.2895 0.0
C256 C 0.42094 0.98867 0.30562 0.0
C257 C 0.43492 0.95696 0.36834 0.0
C258 C 0.45231 0.94208 0.36192 0.0
C259 C 0.44491 0.94253 0.38413 0.0
C260 C 0.43587 0.95215 0.38096 0.0
C261 C 0.45377 0.93774 0.37486 0.0
C262 C 0.44294 0.95161 0.35867 0.0
C263 C 0.42622 0.96827 0.36639 0.0
O264 O 0.41323 1.00562 0.36335 0.0
O265 O 0.39547 0.99346 0.3634 0.0
O266 O 0.41419 0.96665 0.36225 0.0
O267 O 0.43141 0.97951 0.36323 0.0
H268 H 0.40196 0.9993 0.39327 0.0
H269 H 0.39448 0.01621 0.41074 0.0
H270 H 0.38165 0.04387 0.38202 0.0
H271 H 0.38874 0.02922 0.36483 0.0
H272 H 0.39334 0.01501 0.29711 0.0
H273 H 0.39592 1.00531 0.31949 0.0
H274 H 0.42711 0.99005 0.28608 0.0
H275 H 0.42858 0.98171 0.30784 0.0
H276 H 0.45872 0.93853 0.35439 0.0
H277 H 0.44483 0.93888 0.39395 0.0
H278 H 0.42968 0.95602 0.38855 0.0
H279 H 0.44229 0.95511 0.3488 0.0
C280 C 0.57976 0.56737 0.36412 0.0
C281 C 0.57657 0.56827 0.37731 0.0
C282 C 0.56307 0.58731 0.37287 0.0
C283 C 0.56828 0.57824 0.38167 0.0
C284 C 0.56648 0.58649 0.35976 0.0
C285 C 0.57479 0.57663 0.35544 0.0
U286 U 0.60169 0.53615 0.35337 0.0
O287 O 0.59521 0.52604 0.33561 0.0
O288 O 0.61352 0.53771 0.33553 0.0
C289 C 0.60523 0.53049 0.32901 0.0
C290 C 0.58755 0.55657 0.35885 0.0
C291 C 0.6073 0.52722 0.31531 0.0
C292 C 0.60115 0.52986 0.29277 0.0
C293 C 0.59979 0.53333 0.30577 0.0
C294 C 0.61786 0.51427 0.29862 0.0
C295 C 0.61025 0.52032 0.28894 0.0
C296 C 0.61638 0.51768 0.31169 0.0
C297 C 0.61723 0.51197 0.38049 0.0
C298 C 0.63103 0.49309 0.38437 0.0
C299 C 0.61927 0.50293 0.40212 0.0
C300 C 0.6143 0.51232 0.39368 0.0
C301 C 0.62796 0.49321 0.39775 0.0
C302 C 0.62557 0.50226 0.3758 0.0
C303 C 0.61094 0.52171 0.37208 0.0
O304 O 0.6003 0.55723 0.3577 0.0
O305 O 0.58253 0.54488 0.35768 0.0
O306 O 0.59952 0.51948 0.36675 0.0
O307 O 0.61769 0.53125 0.36687 0.0
H308 H 0.58028 0.56117 0.38415 0.0
H309 H 0.5657 0.57872 0.39183 0.0
H310 H 0.56253 0.59336 0.35283 0.0
H311 H 0.5771 0.57604 0.34522 0.0
H312 H 0.59469 0.53439 0.28581 0.0
H313 H 0.59267 0.54065 0.30842 0.0
H314 H 0.62499 0.50692 0.2961 0.0
H315 H 0.62223 0.51279 0.31896 0.0
H316 H 0.63771 0.48599 0.38042 0.0
H317 H 0.61568 0.50315 0.41192 0.0
H318 H 0.60773 0.51966 0.39746 0.0
H319 H 0.6279 0.50179 0.36559 0.0
C320 C 0.15868 0.44061 0.06937 0.0
C321 C 0.14547 0.4442 0.06938 0.0
C322 C 0.14917 0.45769 0.0885 0.0
C323 C 0.14073 0.45268 0.07894 0.0
C324 C 0.16225 0.45371 0.08861 0.0
C325 C 0.16694 0.44526 0.07913 0.0
U326 U 0.16888 0.41829 0.03871 0.0
O327 O 0.18662 0.42381 0.02788 0.0
O328 O 0.18653 0.40597 0.04014 0.0
C329 C 0.19299 0.41357 0.03215 0.0
C330 C 0.16465 0.43284 0.05901 0.0
C331 C 0.20694 0.41171 0.02948 0.0
C332 C 0.22975 0.41641 0.03363 0.0
C333 C 0.21657 0.41781 0.03693 0.0
C334 C 0.22377 0.4027 0.01553 0.0
C335 C 0.23349 0.40917 0.02265 0.0
C336 C 0.21062 0.40397 0.01894 0.0
C337 C 0.14121 0.4027 0.01536 0.0
C338 C 0.138 0.39087 0.99331 0.0
C339 C 0.11926 0.39806 1.00567 0.0
C340 C 0.12765 0.40338 0.01682 0.0
C341 C 0.12432 0.39177 0.99471 0.0
C342 C 0.14639 0.39639 1.0026 0.0
C343 C 0.14923 0.40927 0.02524 0.0
O344 O 0.16527 0.42009 0.05977 0.0
O345 O 0.16546 0.43761 0.04723 0.0
O346 O 0.15497 0.42038 0.02254 0.0
O347 O 0.15462 0.40264 0.03473 0.0
H348 H 0.13894 0.4407 0.06191 0.0
H349 H 0.13056 0.45554 0.07873 0.0
H350 H 0.16898 0.45751 0.09576 0.0
H351 H 0.17719 0.44265 0.0792 0.0
H352 H 0.23701 0.42113 0.03962 0.0
H353 H 0.21391 0.42372 0.04519 0.0
H354 H 0.22623 0.39715 1.0051 0.0
H355 H 0.20327 0.39914 0.01314 0.0
H356 H 0.14219 0.38591 0.98506 0.0
H357 H 0.10882 0.39903 1.00699 0.0
H358 H 0.12343 0.40835 0.02507 0.0
H359 H 0.15685 0.39573 1.0013 0.0
C360 C 0.1584 0.58255 0.45489 0.0
C361 C 0.14516 0.57909 0.45464 0.0
C362 C 0.1491 0.56534 0.43573 0.0
C363 C 0.14052 0.57062 0.44504 0.0
C364 C 0.16223 0.56922 0.43585 0.0
C365 C 0.1668 0.57774 0.44533 0.0
U366 U 0.1686 0.60496 0.48555 0.0
O367 O 0.18637 0.5993 0.49626 0.0
O368 O 0.18632 0.61719 0.48406 0.0
C369 C 0.1928 0.60948 0.49194 0.0
C370 C 0.16419 0.59037 0.46531 0.0
C371 C 0.20674 0.61132 0.49475 0.0
C372 C 0.22951 0.60565 0.49156 0.0
C373 C 0.21638 0.6044 0.48803 0.0
C374 C 0.22352 0.62099 0.50833 0.0
C375 C 0.23319 0.61368 0.50199 0.0
C376 C 0.21041 0.61979 0.50473 0.0
C377 C 0.14101 0.62084 0.5089 0.0
C378 C 0.13777 0.63214 0.52938 0.0
C379 C 0.11911 0.62622 0.51626 0.0
C380 C 0.12745 0.62074 0.50708 0.0
C381 C 0.12416 0.63188 0.52753 0.0
C382 C 0.14619 0.62667 0.52007 0.0
C383 C 0.14905 0.6142 0.49906 0.0
O384 O 0.16493 0.60311 0.46449 0.0
O385 O 0.16498 0.58564 0.47711 0.0
O386 O 0.15476 0.60307 0.5018 0.0
O387 O 0.15442 0.62073 0.48949 0.0
H388 H 0.13852 0.58275 0.46194 0.0
H389 H 0.13028 0.56803 0.44502 0.0
H390 H 0.16908 0.56529 0.4289 0.0
H391 H 0.17706 0.58027 0.44543 0.0
H392 H 0.23679 0.60016 0.48628 0.0
H393 H 0.21373 0.5979 0.48021 0.0
H394 H 0.22605 0.62726 0.51636 0.0
H395 H 0.20306 0.62523 0.50998 0.0
H396 H 0.14185 0.63645 0.53804 0.0
H397 H 0.10866 0.62582 0.51469 0.0
H398 H 0.12326 0.61622 0.49856 0.0
H399 H 0.15663 0.62683 0.52168 0.0
C400 C 0.86203 0.93846 0.45751 0.0
C401 C 0.87496 0.94276 0.45868 0.0
C402 C 0.87285 0.95486 0.4383 0.0
C403 C 0.88029 0.951 0.4492 0.0
C404 C 0.86 0.95017 0.43721 0.0
C405 C 0.85467 0.94219 0.44674 0.0
U406 U 0.85107 0.91649 0.48796 0.0
O407 O 0.83337 0.92204 0.49879 0.0
O408 O 0.83342 0.90416 0.48663 0.0
C409 C 0.82696 0.91185 0.4945 0.0
C410 C 0.85521 0.93103 0.4676 0.0
C411 C 0.81304 0.90998 0.49733 0.0
C412 C 0.79019 0.91533 0.49401 0.0
C413 C 0.80332 0.91677 0.49052 0.0
C414 C 0.79637 0.9001 0.51086 0.0
C415 C 0.78666 0.9071 0.50429 0.0
C416 C 0.80948 0.90154 0.50738 0.0
C417 C 0.87878 0.90071 0.51099 0.0
C418 C 0.88183 0.88869 0.53104 0.0
C419 C 0.90061 0.89585 0.51871 0.0
C420 C 0.89233 0.90139 0.50954 0.0
C421 C 0.89552 0.88949 0.52963 0.0
C422 C 0.87349 0.89425 0.52175 0.0
C423 C 0.87084 0.90739 0.50117 0.0
O424 O 0.85446 0.91829 0.46689 0.0
O425 O 0.85451 0.93577 0.47938 0.0
O426 O 0.86512 0.91848 0.50399 0.0
O427 O 0.86532 0.90079 0.49175 0.0
H428 H 0.88074 0.94009 0.46705 0.0
H429 H 0.89003 0.95471 0.45074 0.0
H430 H 0.85396 0.95265 0.42897 0.0
H431 H 0.84462 0.93905 0.44575 0.0
H432 H 0.78279 0.92082 0.48886 0.0
H433 H 0.80591 0.92331 0.48269 0.0
H434 H 0.79383 0.89376 0.51887 0.0
H435 H 0.81688 0.89625 0.51273 0.0
H436 H 0.87756 0.88412 0.53949 0.0
H437 H 0.91105 0.89655 0.51723 0.0
H438 H 0.89657 0.90637 0.50129 0.0
H439 H 0.86302 0.8937 0.52306 0.0
C440 C 0.36115 0.58345 0.56546 0.0
C441 C 0.37458 0.58066 0.56474 0.0
C442 C 0.37304 0.56756 0.58452 0.0
C443 C 0.38048 0.57272 0.57423 0.0
C444 C 0.35975 0.57068 0.58528 0.0
C445 C 0.3539 0.57849 0.57585 0.0
U446 U 0.35199 0.60561 0.53479 0.0
O447 O 0.33514 0.60159 0.52215 0.0
O448 O 0.33517 0.61913 0.53447 0.0
C449 C 0.3291 0.61234 0.52554 0.0
C450 C 0.35382 0.59076 0.55547 0.0
C451 C 0.31475 0.61308 0.52437 0.0
C452 C 0.29259 0.60592 0.52899 0.0
C453 C 0.30608 0.60534 0.53155 0.0
C454 C 0.29641 0.62204 0.51232 0.0
C455 C 0.28765 0.61409 0.51912 0.0
C456 C 0.30976 0.62154 0.51494 0.0
C457 C 0.38078 0.62075 0.51316 0.0
C458 C 0.38404 0.63029 0.49178 0.0
C459 C 0.40217 0.62848 0.50664 0.0
C460 C 0.394 0.62275 0.51578 0.0
C461 C 0.39754 0.63184 0.49425 0.0
C462 C 0.37569 0.62483 0.50119 0.0
C463 C 0.37325 0.6137 0.52313 0.0
O464 O 0.35352 0.60353 0.55604 0.0
O465 O 0.35345 0.58613 0.54362 0.0
O466 O 0.36718 0.60291 0.51994 0.0
O467 O 0.36753 0.62032 0.53241 0.0
H468 H 0.38039 0.5844 0.55681 0.0
H469 H 0.39079 0.57052 0.5735 0.0
H470 H 0.35378 0.5668 0.59303 0.0
H471 H 0.34354 0.58046 0.57656 0.0
H472 H 0.28606 0.59989 0.53464 0.0
H473 H 0.30971 0.59877 0.53893 0.0
H474 H 0.29301 0.62837 0.50463 0.0
H475 H 0.3163 0.62757 0.50928 0.0
H476 H 0.37995 0.63286 0.48246 0.0
H477 H 0.41213 0.63036 0.50952 0.0
H478 H 0.39809 0.61982 0.52502 0.0
H479 H 0.36545 0.62347 0.49899 0.0
C480 C 0.95122 0.86138 0.58637 0.0
C481 C 0.94721 0.87439 0.5863 0.0
C482 C 0.93196 0.86984 0.56871 0.0
C483 C 0.93761 0.87858 0.57761 0.0
C484 C 0.93603 0.85674 0.56897 0.0
C485 C 0.94548 0.85255 0.5778 0.0
U486 U 0.98178 0.85058 0.60908 0.0
O487 O 0.97961 0.83191 0.61963 0.0
O488 O 0.99241 0.83327 0.60226 0.0
C489 C 0.98725 0.82592 0.61132 0.0
C490 C 0.9622 0.85721 0.59445 0.0
C491 C 0.99169 0.8125 0.61327 0.0
C492 C 0.98852 0.78945 0.60918 0.0
C493 C 0.98401 0.80227 0.60857 0.0
C494 C 1.00825 0.79691 0.61973 0.0
C495 C 1.0008 0.78662 0.61456 0.0
C496 C 1.00379 0.80977 0.61896 0.0
C497 C 1.00489 0.87837 0.62522 0.0
C498 C 0.02528 0.88433 0.63883 0.0
C499 C 0.01505 0.9005 0.62513 0.0
C500 C 1.00407 0.89122 0.62088 0.0
C501 C 0.02481 0.89729 0.63425 0.0
C502 C 0.0165 0.87495 0.63426 0.0
C503 C 0.99653 0.8684 0.61937 0.0
O504 O 0.97396 0.8555 0.58974 0.0
O505 O 0.96092 0.85552 0.60701 0.0
O506 O 0.98657 0.86333 0.62561 0.0
O507 O 0.99863 0.86391 0.60765 0.0
H508 H 0.95168 0.88136 0.5928 0.0
H509 H 0.9347 0.8887 0.5778 0.0
H510 H 0.9324 0.84978 0.56201 0.0
H511 H 0.94862 0.84248 0.57763 0.0
H512 H 0.98257 0.78179 0.60507 0.0
H513 H 0.97466 0.80425 0.60408 0.0
H514 H 0.01959 0.79505 0.62429 0.0
H515 H 1.00983 0.81758 0.62266 0.0
H516 H 0.03247 0.88135 0.64592 0.0
H517 H 0.0146 0.91 0.62067 0.0
H518 H 0.99682 0.89396 0.61374 0.0
H519 H 0.01734 0.865 0.63761 0.0
C520 C 1.00887 0.64304 0.62368 0.0
C521 C 0.01247 0.63042 0.61869 0.0
C522 C 0.99286 0.62255 0.63268 0.0
C523 C 1.00244 0.62022 0.62316 0.0
C524 C 0.99164 0.63507 0.63785 0.0
C525 C 0.99954 0.64518 0.63337 0.0
U526 U 0.03525 0.66757 0.60524 0.0
O527 O 0.02819 0.68593 0.59666 0.0
O528 O 0.04106 0.68638 0.61382 0.0
C529 C 0.03466 0.69307 0.60502 0.0
C530 C 0.01772 0.65463 0.61861 0.0
C531 C 0.02997 0.70632 0.60797 0.0
C532 C 0.01603 0.72232 0.61857 0.0
C533 C 0.01986 0.70926 0.61666 0.0
C534 C 0.03174 0.72922 0.60255 0.0
C535 C 0.02192 0.73262 0.61151 0.0
C536 C 0.03593 0.71642 0.60117 0.0
C537 C 0.06409 0.65349 0.58271 0.0
C538 C 0.08209 0.6612 0.56925 0.0
C539 C 0.07721 0.6382 0.57036 0.0
C540 C 0.06705 0.64077 0.57895 0.0
C541 C 0.08493 0.64831 0.56531 0.0
C542 C 0.07167 0.66379 0.57782 0.0
C543 C 0.05292 0.65507 0.59165 0.0
O544 O 0.02912 0.65793 0.62342 0.0
O545 O 0.01611 0.65789 0.60641 0.0
O546 O 0.0415 0.65844 0.58694 0.0
O547 O 0.05494 0.65892 0.60362 0.0
H548 H 0.01958 0.62855 0.61116 0.0
H549 H 1.00348 0.61061 0.61899 0.0
H550 H 0.98422 0.63716 0.64502 0.0
H551 H 0.99807 0.65487 0.63725 0.0
H552 H 1.00647 0.72422 0.62562 0.0
H553 H 0.01504 0.70156 0.62199 0.0
H554 H 0.03595 0.73617 0.59595 0.0
H555 H 0.04362 0.71434 0.59426 0.0
H556 H 0.08798 0.66926 0.56591 0.0
H557 H 0.07883 0.6282 0.56751 0.0
H558 H 0.06134 0.63268 0.5826 0.0
H559 H 0.06961 0.67372 0.58065 0.0
C560 C 0.95068 0.16242 0.93576 0.0
C561 C 0.94842 0.14901 0.93679 0.0
C562 C 0.93154 0.15301 0.95307 0.0
C563 C 0.93886 0.14435 0.94535 0.0
C564 C 0.93393 0.16643 0.95187 0.0
C565 C 0.94329 0.17105 0.94322 0.0
U566 U 0.98131 0.17269 0.91308 0.0
O567 O 0.98003 0.19116 0.90215 0.0
O568 O 0.99278 0.18966 0.91957 0.0
C569 C 0.98807 0.19695 0.91022 0.0
C570 C 0.96121 0.16794 0.92784 0.0
C571 C 0.99204 0.21055 0.90853 0.0
C572 C 0.98848 0.23358 0.91256 0.0
C573 C 0.98413 0.22067 0.91314 0.0
C574 C 1.00848 0.22634 0.90236 0.0
C575 C 1.00082 0.23653 0.90738 0.0
C576 C 1.00418 0.21346 0.90304 0.0
C577 C 1.00428 0.14474 0.89723 0.0
C578 C 0.02463 0.14001 0.88308 0.0
C579 C 0.01565 0.1231 0.89667 0.0
C580 C 1.00423 0.13176 0.90116 0.0
C581 C 0.02525 0.12697 0.88762 0.0
C582 C 0.01549 0.14888 0.8881 0.0
C583 C 0.99497 0.15356 0.90351 0.0
O584 O 0.97314 0.16866 0.9324 0.0
O585 O 0.96015 0.16896 0.9152 0.0
O586 O 0.98558 0.15928 0.89692 0.0
O587 O 0.99743 0.15856 0.91495 0.0
H588 H 0.95413 0.1422 0.93114 0.0
H589 H 0.93726 0.13395 0.94599 0.0
H590 H 0.92893 0.1734 0.95794 0.0
H591 H 0.94504 0.18144 0.94266 0.0
H592 H 0.98239 0.2412 0.91655 0.0
H593 H 0.97475 0.21856 0.9175 0.0
H594 H 0.01992 0.22832 0.89805 0.0
H595 H 0.0124 0.20574 0.89944 0.0
H596 H 0.0309 0.14356 0.87549 0.0
H597 H 0.01548 0.11348 0.90086 0.0
H598 H 0.99713 0.12838 0.90818 0.0
H599 H 0.01557 0.15889 0.88481 0.0
C600 C 1.00911 0.38048 0.89889 0.0
C601 C 0.01306 0.3934 0.90292 0.0
C602 C 0.99264 0.40037 0.88955 0.0
C603 C 1.00286 0.40335 0.89818 0.0
C604 C 0.99105 0.38752 0.88537 0.0
C605 C 0.99924 0.37772 0.88995 0.0
U606 U 0.03568 0.3558 0.91709 0.0
O607 O 0.02834 0.33741 0.92536 0.0
O608 O 0.04113 0.33705 0.90811 0.0
C609 C 0.03464 0.33033 0.91682 0.0
C610 C 0.01831 0.36922 0.90412 0.0
C611 C 0.03004 0.31706 0.91388 0.0
C612 C 0.01573 0.30099 0.90391 0.0
C613 C 0.0195 0.31407 0.90574 0.0
C614 C 0.03237 0.29416 0.91899 0.0
C615 C 0.02207 0.29063 0.91058 0.0
C616 C 0.03651 0.30698 0.9202 0.0
C617 C 0.06501 0.36953 0.93928 0.0
C618 C 0.08106 0.36211 0.95511 0.0
C619 C 0.07986 0.38492 0.94938 0.0
C620 C 0.06969 0.38223 0.94082 0.0
C621 C 0.08568 0.37494 0.95664 0.0
C622 C 0.07079 0.35939 0.94643 0.0
C623 C 0.05368 0.36787 0.93058 0.0
O624 O 0.02959 0.36581 0.89911 0.0
O625 O 0.01673 0.36589 0.91631 0.0
O626 O 0.04238 0.36438 0.93548 0.0
O627 O 0.05547 0.36426 0.91851 0.0
H628 H 0.02062 0.39572 0.90988 0.0
H629 H 1.00416 0.41323 0.90159 0.0
H630 H 0.98323 0.385 0.87877 0.0
H631 H 0.99757 0.36782 0.88675 0.0
H632 H 1.00586 0.29919 0.8972 0.0
H633 H 0.01428 0.32176 0.90077 0.0
H634 H 0.03706 0.28744 0.92545 0.0
H635 H 0.04454 0.3091 0.9267 0.0
H636 H 0.08538 0.35423 0.96062 0.0
H637 H 0.08301 0.39492 0.95051 0.0
H638 H 0.0653 0.39021 0.93551 0.0
H639 H 0.06729 0.3495 0.94542 0.0
C640 C 0.58533 0.95093 0.86191 0.0
C641 C 0.58385 0.94991 0.87538 0.0
C642 C 0.56805 0.93229 0.87241 0.0
C643 C 0.57531 0.94057 0.88059 0.0
C644 C 0.57 0.93313 0.85899 0.0
C645 C 0.57854 0.94234 0.85383 0.0
U646 U 0.60744 0.98184 0.85148 0.0
O647 O 0.61857 0.98105 0.83314 0.0
O648 O 0.60082 0.99347 0.8347 0.0
C649 C 0.61032 0.98901 0.82743 0.0
C650 C 0.59291 0.96131 0.8556 0.0
C651 C 0.61195 0.99306 0.81387 0.0
C652 C 0.608 0.98949 0.79094 0.0
C653 C 0.60726 0.98522 0.8038 0.0
C654 C 0.61805 1.00953 0.79811 0.0
C655 C 0.61337 1.00173 0.78789 0.0
C656 C 0.61741 1.00519 0.81095 0.0
C657 C 0.62339 1.0048 0.87916 0.0
C658 C 0.63405 0.02777 0.88267 0.0
C659 C 0.62733 0.01471 0.90102 0.0
C660 C 0.62263 1.0031 0.8926 0.0
C661 C 0.6329 0.02619 0.89619 0.0
C662 C 0.6293 0.01817 0.87417 0.0
C663 C 0.61694 0.99496 0.87102 0.0
O664 O 0.58817 0.97317 0.8552 0.0
O665 O 0.60569 0.96058 0.85468 0.0
O666 O 0.62368 0.98585 0.86508 0.0
O667 O 0.60549 0.99749 0.86587 0.0
H668 H 0.58904 0.95644 0.88178 0.0
H669 H 0.57423 0.93996 0.89101 0.0
H670 H 0.56456 0.92696 0.85243 0.0
H671 H 0.57953 0.94303 0.84341 0.0
H672 H 0.60435 0.98317 0.78338 0.0
H673 H 0.60289 0.97586 0.8059 0.0
H674 H 0.62182 0.0213 0.7963 0.0
H675 H 0.6209 0.01355 0.81864 0.0
H676 H 0.6385 0.03645 0.87869 0.0
H677 H 0.62625 0.01323 0.91136 0.0
H678 H 0.61803 0.99451 0.89662 0.0
H679 H 0.62999 0.01966 0.86381 0.0
C680 C 0.40252 0.50685 0.8764 0.0
C681 C 0.40403 0.51045 0.88942 0.0
C682 C 0.39235 0.4907 0.8963 0.0
C683 C 0.39883 0.5025 0.8993 0.0
C684 C 0.39152 0.48712 0.88317 0.0
C685 C 0.39616 0.49523 0.87344 0.0
U686 U 0.42025 0.53245 0.85267 0.0
O687 O 0.42884 0.52606 0.83417 0.0
O688 O 0.41121 0.53841 0.83415 0.0
C689 C 0.42014 0.5324 0.82726 0.0
C690 C 0.40748 0.51438 0.8653 0.0
C691 C 0.41703 0.52781 0.81406 0.0
C692 C 0.40671 0.51358 0.79816 0.0
C693 C 0.40877 0.51728 0.81117 0.0
C694 C 0.42142 0.53056 0.79112 0.0
C695 C 0.41297 0.52027 0.7879 0.0
C696 C 0.42319 0.53438 0.80392 0.0
C697 C 0.44238 0.56137 0.86692 0.0
C698 C 0.45668 0.57854 0.85889 0.0
C699 C 0.45433 0.57512 0.88196 0.0
C700 C 0.44559 0.56501 0.87958 0.0
C701 C 0.46014 0.58196 0.87169 0.0
C702 C 0.44789 0.56826 0.8565 0.0
C703 C 0.43362 0.55005 0.86548 0.0
O704 O 0.40231 0.52573 0.86246 0.0
O705 O 0.41973 0.51305 0.8618 0.0
O706 O 0.43861 0.5389 0.86173 0.0
O707 O 0.42146 0.55186 0.8618 0.0
H708 H 0.40905 0.51937 0.89193 0.0
H709 H 0.39981 0.50572 0.90922 0.0
H710 H 0.38771 0.47781 0.8802 0.0
H711 H 0.3951 0.49218 0.86345 0.0
H712 H 0.40019 0.50555 0.79615 0.0
H713 H 0.40397 0.51198 0.81888 0.0
H714 H 0.4271 0.53552 0.78381 0.0
H715 H 0.42974 0.54242 0.80593 0.0
H716 H 0.46071 0.58381 0.85074 0.0
H717 H 0.45678 0.57737 0.8919 0.0
H718 H 0.44145 0.55982 0.88775 0.0
H719 H 0.44549 0.56567 0.84663 0.0
C720 C 0.58514 0.07242 0.65968 0.0
C721 C 0.584 0.0738 0.64621 0.0
C722 C 0.5679 0.09122 0.64918 0.0
C723 C 0.57541 0.08313 0.64099 0.0
C724 C 0.56948 0.08992 0.66264 0.0
C725 C 0.57795 0.08063 0.66778 0.0
U726 U 0.60739 0.0417 0.67071 0.0
O727 O 0.61843 0.04269 0.68909 0.0
O728 O 0.60062 0.03037 0.68764 0.0
C729 C 0.61017 0.0348 0.69487 0.0
C730 C 0.59282 0.06206 0.66594 0.0
C731 C 0.61178 0.03085 0.70847 0.0
C732 C 0.6069 0.03402 0.73129 0.0
C733 C 0.60622 0.0383 0.71842 0.0
C734 C 0.61896 0.01496 0.72441 0.0
C735 C 0.61319 0.02228 0.73435 0.0
C736 C 0.61821 0.0192 0.71153 0.0
C737 C 0.62344 0.01849 0.6432 0.0
C738 C 0.6354 0.99629 0.63924 0.0
C739 C 0.62584 1.00818 0.62133 0.0
C740 C 0.62123 0.01969 0.6299 0.0
C741 C 0.63257 0.99718 0.6259 0.0
C742 C 0.6308 1.00583 0.64788 0.0
C743 C 0.61707 0.02807 0.65167 0.0
O744 O 0.5881 0.05021 0.66662 0.0
O745 O 0.60558 0.06287 0.66701 0.0
O746 O 0.62375 0.03736 0.65739 0.0
O747 O 0.60553 0.02569 0.65665 0.0
H748 H 0.58942 0.06748 0.63978 0.0
H749 H 0.57429 0.08362 0.63058 0.0
H750 H 0.56407 0.09604 0.66926 0.0
H751 H 0.57868 0.07968 0.67821 0.0
H752 H 0.60243 0.0398 0.73884 0.0
H753 H 0.60116 0.04729 0.71621 0.0
H754 H 0.62388 1.00377 0.7266 0.0
H755 H 0.62249 0.01331 0.70395 0.0
H756 H 0.64069 0.988 0.64303 0.0
H757 H 0.6239 1.00944 0.6111 0.0
H758 H 0.61567 0.02782 0.6261 0.0
H759 H 0.63264 1.00479 0.65815 0.0
C760 C 0.40223 0.51583 0.64502 0.0
C761 C 0.40826 0.5152 0.63283 0.0
C762 C 0.39309 0.5317 0.62427 0.0
C763 C 0.40384 0.52316 0.62261 0.0
C764 C 0.38697 0.53183 0.63649 0.0
C765 C 0.39157 0.52417 0.64667 0.0
U766 U 0.42015 0.4908 0.66904 0.0
O767 O 0.42885 0.49691 0.68759 0.0
O768 O 0.41139 0.48441 0.68754 0.0
C769 C 0.4203 0.49039 0.6945 0.0
C770 C 0.40705 0.509 0.6567 0.0
C771 C 0.41686 0.49522 0.70756 0.0
C772 C 0.40676 0.51029 0.72278 0.0
C773 C 0.40904 0.5062 0.70994 0.0
C774 C 0.42006 0.49257 0.73075 0.0
C775 C 0.4125 0.50367 0.73339 0.0
C776 C 0.42211 0.4884 0.71807 0.0
C777 C 0.442 0.46178 0.65449 0.0
C778 C 0.45743 0.44551 0.66243 0.0
C779 C 0.45299 0.44716 0.63947 0.0
C780 C 0.44424 0.4573 0.64187 0.0
C781 C 0.45977 0.44126 0.64968 0.0
C782 C 0.44856 0.45573 0.66486 0.0
C783 C 0.43331 0.47322 0.6559 0.0
O784 O 0.40192 0.49772 0.65987 0.0
O785 O 0.4194 0.5102 0.65993 0.0
O786 O 0.43838 0.48431 0.65974 0.0
O787 O 0.42115 0.47151 0.6596 0.0
H788 H 0.41662 0.50892 0.63135 0.0
H789 H 0.40927 0.52295 0.61365 0.0
H790 H 0.37853 0.53788 0.63832 0.0
H791 H 0.3868 0.52488 0.65601 0.0
H792 H 0.40045 0.51858 0.72432 0.0
H793 H 0.40476 0.51156 0.70197 0.0
H794 H 0.42477 0.48721 0.73848 0.0
H795 H 0.42813 0.47988 0.71646 0.0
H796 H 0.46259 0.44107 0.67045 0.0
H797 H 0.45468 0.44411 0.62958 0.0
H798 H 0.43935 0.46186 0.63373 0.0
H799 H 0.44701 0.45903 0.67469 0.0
C800 C 0.86145 0.58826 0.95241 0.0
C801 C 0.87491 0.58643 0.9506 0.0
C802 C 0.87051 0.57077 0.93336 0.0
C803 C 0.87941 0.57772 0.94111 0.0
C804 C 0.85707 0.57283 0.93522 0.0
C805 C 0.85262 0.58153 0.94457 0.0
U806 U 0.85024 0.61094 0.98272 0.0
O807 O 0.83149 0.62156 0.98113 0.0
O808 O 0.83315 0.60413 0.99384 0.0
C809 C 0.82572 0.61338 0.98909 0.0
C810 C 0.85612 0.59625 0.96297 0.0
C811 C 0.81206 0.61502 0.99322 0.0
C812 C 0.78897 0.61104 0.98959 0.0
C813 C 0.80194 0.61038 0.98538 0.0
C814 C 0.79608 0.62111 1.00954 0.0
C815 C 0.78585 0.61613 1.00188 0.0
C816 C 0.80906 0.62054 1.00525 0.0
C817 C 0.87808 0.62755 1.00536 0.0
C818 C 0.88349 0.6368 0.0282 0.0
C819 C 0.90064 0.632 0.01289 0.0
C820 C 0.89132 0.62742 1.00222 0.0
C821 C 0.89703 0.63622 0.02543 0.0
C822 C 0.87417 0.63259 0.01919 0.0
C823 C 0.86882 0.62132 0.99648 0.0
O824 O 0.85521 0.59165 0.9748 0.0
O825 O 0.85436 0.60886 0.96176 0.0
O826 O 0.8634 0.62757 0.98675 0.0
O827 O 0.86394 0.6098 0.9991 0.0
H828 H 0.88187 0.59153 0.95664 0.0
H829 H 0.88982 0.57637 0.93986 0.0
H830 H 0.84994 0.56743 0.92966 0.0
H831 H 0.8422 0.58272 0.94593 0.0
H832 H 0.78141 0.60761 0.98313 0.0
H833 H 0.80408 0.60612 0.97603 0.0
H834 H 0.79419 0.625 0.02098 0.0
H835 H 0.81683 0.62406 0.01339 0.0
H836 H 0.87992 0.63997 0.03752 0.0
H837 H 0.91049 0.6326 1.00749 0.0
H838 H 0.89453 0.62365 0.99296 0.0
H839 H 0.86391 0.63287 0.02172 0.0
C840 C 0.86198 0.43459 0.57051 0.0
C841 C 0.87543 0.43592 0.57264 0.0
C842 C 0.87127 0.45272 0.58889 0.0
C843 C 0.88005 0.44492 0.58179 0.0
C844 C 0.85781 0.45092 0.58696 0.0
C845 C 0.85324 0.44198 0.57787 0.0
U846 U 0.85065 0.41214 0.54005 0.0
O847 O 0.83185 0.40156 0.54182 0.0
O848 O 0.8334 0.41919 0.52944 0.0
C849 C 0.8259 0.4101 0.53437 0.0
C850 C 0.85671 0.42666 0.55988 0.0
C851 C 0.81266 0.40799 0.5293 0.0
C852 C 0.78928 0.41062 0.53213 0.0
C853 C 0.80201 0.41174 0.53684 0.0
C854 C 0.79772 0.40247 0.5119 0.0
C855 C 0.78667 0.40612 0.51941 0.0
C856 C 0.81045 0.40317 0.51687 0.0
C857 C 0.87824 0.39584 0.51682 0.0
C858 C 0.88328 0.38167 0.4987 0.0
C859 C 0.90003 0.39555 0.50767 0.0
C860 C 0.8912 0.40005 0.51693 0.0
C861 C 0.89624 0.38644 0.49816 0.0
C862 C 0.87432 0.38655 0.50774 0.0
C863 C 0.86886 0.40207 0.52559 0.0
O864 O 0.85557 0.43139 0.54813 0.0
O865 O 0.8552 0.414 0.56094 0.0
O866 O 0.86348 0.39561 0.53522 0.0
O867 O 0.86426 0.41381 0.5235 0.0
H868 H 0.88234 0.43034 0.56696 0.0
H869 H 0.89049 0.44615 0.58287 0.0
H870 H 0.85077 0.45659 0.59238 0.0
H871 H 0.84282 0.4411 0.57632 0.0
H872 H 0.78164 0.41324 0.53879 0.0
H873 H 0.80354 0.41559 0.54649 0.0
H874 H 0.79707 0.39963 0.50193 0.0
H875 H 0.81861 0.40037 0.51082 0.0
H876 H 0.87994 0.37406 0.49232 0.0
H877 H 0.90971 0.39972 0.50778 0.0
H878 H 0.8944 0.40722 0.52392 0.0
H879 H 0.86432 0.38311 0.50759 0.0
C880 C 0.1578 0.089 0.57134 0.0
C881 C 0.14438 0.08841 0.57405 0.0
C882 C 0.14836 0.07147 0.59019 0.0
C883 C 0.13969 0.07972 0.58351 0.0
C884 C 0.16176 0.07236 0.58763 0.0
C885 C 0.16642 0.08108 0.57835 0.0
U886 U 0.16839 0.11155 0.54065 0.0
O887 O 0.18681 0.12279 0.54178 0.0
O888 O 0.18566 0.10496 0.52965 0.0
C889 C 0.19275 0.11472 0.53385 0.0
C890 C 0.16329 0.09689 0.56074 0.0
C891 C 0.20671 0.11595 0.53061 0.0
C892 C 0.22931 0.10915 0.53314 0.0
C893 C 0.21623 0.10871 0.53715 0.0
C894 C 0.22357 0.12467 0.51647 0.0
C895 C 0.2333 0.11725 0.52276 0.0
C896 C 0.21047 0.1239 0.52026 0.0
C897 C 0.14115 0.12768 0.51699 0.0
C898 C 0.13852 0.13848 0.49614 0.0
C899 C 0.11944 0.13167 0.50818 0.0
C900 C 0.12752 0.12688 0.51801 0.0
C901 C 0.12484 0.1373 0.49703 0.0
C902 C 0.14665 0.13372 0.50607 0.0
C903 C 0.14898 0.12112 0.52708 0.0
O904 O 0.16422 0.0922 0.54897 0.0
O905 O 0.16445 0.1096 0.56166 0.0
O906 O 0.15474 0.12776 0.53634 0.0
O907 O 0.15431 0.10976 0.52463 0.0
H908 H 0.13756 0.0944 0.56868 0.0
H909 H 0.12929 0.0791 0.58529 0.0
H910 H 0.16861 0.06609 0.59264 0.0
H911 H 0.17681 0.08137 0.57637 0.0
H912 H 0.23604 0.10264 0.5379 0.0
H913 H 0.2135 0.10236 0.54507 0.0
H914 H 0.22599 0.13117 0.50859 0.0
H915 H 0.20322 0.1295 0.51501 0.0
H916 H 0.14291 0.14284 0.48764 0.0
H917 H 0.10897 0.13054 0.50907 0.0
H918 H 0.12308 0.12218 0.52631 0.0
H919 H 0.15714 0.13443 0.50508 0.0
C920 C 0.6571 0.43509 0.45162 0.0
C921 C 0.64356 0.4366 0.45009 0.0
C922 C 0.64724 0.45247 0.43284 0.0
C923 C 0.63866 0.44529 0.44073 0.0
C924 C 0.66071 0.45064 0.4342 0.0
C925 C 0.66558 0.44203 0.4435 0.0
U926 U 0.66756 0.41251 0.48225 0.0
O927 O 0.68603 0.40137 0.48096 0.0
O928 O 0.68476 0.41888 0.49354 0.0
C929 C 0.69199 0.40944 0.48887 0.0
C930 C 0.66298 0.42723 0.46205 0.0
C931 C 0.70577 0.40771 0.49261 0.0
C932 C 0.7289 0.41105 0.48838 0.0
C933 C 0.71585 0.41182 0.48436 0.0
C934 C 0.72194 0.40197 0.50889 0.0
C935 C 0.73207 0.4062 0.50072 0.0
C936 C 0.70891 0.40272 0.50486 0.0
C937 C 0.64012 0.39655 0.50578 0.0
C938 C 0.6375 0.3857 0.52661 0.0
C939 C 0.61842 0.39265 0.51463 0.0
C940 C 0.62649 0.39743 0.5048 0.0
C941 C 0.62382 0.38694 0.52574 0.0
C942 C 0.64562 0.39044 0.51667 0.0
C943 C 0.64796 0.40309 0.49566 0.0
O944 O 0.66369 0.43187 0.47386 0.0
O945 O 0.66388 0.4145 0.46119 0.0
O946 O 0.65379 0.39641 0.48647 0.0
O947 O 0.65333 0.41443 0.49813 0.0
H948 H 0.63685 0.43137 0.4563 0.0
H949 H 0.62822 0.44666 0.43987 0.0
H950 H 0.66749 0.45619 0.42833 0.0
H951 H 0.67605 0.44106 0.4446 0.0
H952 H 0.7365 0.4145 0.48195 0.0
H953 H 0.71361 0.41586 0.47492 0.0
H954 H 0.72413 0.39815 0.51843 0.0
H955 H 0.70125 0.39955 0.51137 0.0
H956 H 0.64188 0.38132 0.5351 0.0
H957 H 0.60794 0.39384 0.51377 0.0
H958 H 0.62205 0.40218 0.49652 0.0
H959 H 0.65611 0.38968 0.51764 0.0
C960 C 0.51469 0.6424 0.89412 0.0
C961 C 0.51879 0.62936 0.89512 0.0
C962 C 0.49821 0.62212 0.88544 0.0
C963 C 0.51059 0.61927 0.8907 0.0
C964 C 0.49439 0.63516 0.88425 0.0
C965 C 0.50257 0.64514 0.88846 0.0
U966 U 0.53928 0.66745 0.91208 0.0
O967 O 0.54388 0.68668 0.90347 0.0
O968 O 0.53122 0.68531 0.92076 0.0
C969 C 0.53717 0.69289 0.91239 0.0
C970 C 0.52207 0.65362 0.89926 0.0
C971 C 0.53216 0.7062 0.91003 0.0
C972 C 0.51567 0.72206 0.90351 0.0
C973 C 0.52016 0.70907 0.90411 0.0
C974 C 0.53566 0.72929 0.91351 0.0
C975 C 0.5232 0.73247 0.90858 0.0
C976 C 0.53982 0.71643 0.91459 0.0
C977 C 0.56869 0.65431 0.93476 0.0
C978 C 0.58576 0.66241 0.94915 0.0
C979 C 0.58123 0.63932 0.94819 0.0
C980 C 0.57161 0.64163 0.93888 0.0
C981 C 0.58828 0.64966 0.95355 0.0
C982 C 0.57596 0.66475 0.93982 0.0
C983 C 0.55756 0.65578 0.9257 0.0
O984 O 0.52046 0.65709 0.91139 0.0
O985 O 0.53334 0.65707 0.89422 0.0
O986 O 0.55946 0.65986 0.91377 0.0
O987 O 0.54598 0.65859 0.93036 0.0
H988 H 0.52811 0.62701 0.89947 0.0
H989 H 0.51372 0.60925 0.89174 0.0
H990 H 0.48496 0.63763 0.88018 0.0
H991 H 0.49923 0.65511 0.88756 0.0
H992 H 0.50611 0.72376 0.89942 0.0
H993 H 0.51411 0.70131 0.90035 0.0
H994 H 0.54261 0.73663 0.91632 0.0
H995 H 0.54923 0.71447 0.91898 0.0
H996 H 0.59111 0.67053 0.95318 0.0
H997 H 0.58301 0.62944 0.95139 0.0
H998 H 0.56618 0.63343 0.93509 0.0
H999 H 0.5739 0.67463 0.93678 0.0
C1000 C 0.45584 0.86093 0.94156 0.0
C1001 C 0.45547 0.87399 0.94548 0.0
C1002 C 0.4358 0.86967 0.95814 0.0
C1003 C 0.4455 0.87833 0.95376 0.0
C1004 C 0.43617 0.85668 0.95399 0.0
C1005 C 0.44609 0.85238 0.94579 0.0
U1006 U 0.48679 0.85062 0.91913 0.0
O1007 O 0.49744 0.83276 0.9248 0.0
O1008 O 0.48499 0.83289 0.90714 0.0
C1009 C 0.49268 0.82627 0.91491 0.0
C1010 C 0.46651 0.85557 0.93365 0.0
C1011 C 0.49606 0.81255 0.91249 0.0
C1012 C 0.49288 0.78951 0.91695 0.0
C1013 C 0.48916 0.80252 0.91869 0.0
C1014 C 0.5103 0.7964 0.90266 0.0
C1015 C 0.50354 0.78636 0.909 0.0
C1016 C 0.50654 0.80941 0.90435 0.0
C1017 C 0.51009 0.87833 0.90318 0.0
C1018 C 0.53132 0.88267 0.89358 0.0
C1019 C 0.51586 0.90021 0.89634 0.0
C1020 C 0.507 0.89152 0.90187 0.0
C1021 C 0.5284 0.8961 0.89248 0.0
C1022 C 0.52222 0.87387 0.89878 0.0
C1023 C 0.50049 0.86984 0.90962 0.0
O1024 O 0.46559 0.85451 0.92101 0.0
O1025 O 0.47839 0.85463 0.93835 0.0
O1026 O 0.50335 0.86419 0.92069 0.0
O1027 O 0.49067 0.86465 0.90327 0.0
H1028 H 0.46294 0.88074 0.94232 0.0
H1029 H 0.44541 0.8884 0.95682 0.0
H1030 H 0.42897 0.84975 0.95739 0.0
H1031 H 0.44629 0.84223 0.94294 0.0
H1032 H 0.4877 0.78193 0.92211 0.0
H1033 H 0.48107 0.80477 0.92505 0.0
H1034 H 0.5187 0.7942 0.89669 0.0
H1035 H 0.51201 0.81703 0.89955 0.0
H1036 H 0.54077 0.87894 0.89076 0.0
H1037 H 0.51259 0.91009 0.89492 0.0
H1038 H 0.4976 0.89513 0.90508 0.0
H1039 H 0.52477 0.86367 0.89964 0.0
C1040 C 0.51477 0.38054 0.62771 0.0
C1041 C 0.51761 0.39341 0.62409 0.0
C1042 C 0.49825 0.40123 0.63587 0.0
C1043 C 0.50937 0.40366 0.62807 0.0
C1044 C 0.49591 0.38831 0.63975 0.0
C1045 C 0.50397 0.37817 0.63566 0.0
U1046 U 0.53931 0.35564 0.60973 0.0
O1047 O 0.54438 0.33643 0.6181 0.0
O1048 O 0.53177 0.33768 0.60084 0.0
C1049 C 0.53782 0.33011 0.60915 0.0
C1050 C 0.52183 0.36898 0.62278 0.0
C1051 C 0.53232 0.31708 0.612 0.0
C1052 C 0.51512 0.30213 0.61886 0.0
C1053 C 0.52014 0.3149 0.61786 0.0
C1054 C 0.53476 0.29375 0.609 0.0
C1055 C 0.52232 0.29124 0.6143 0.0
C1056 C 0.53951 0.30639 0.60768 0.0
C1057 C 0.56853 0.36929 0.58722 0.0
C1058 C 0.58459 0.36134 0.57165 0.0
C1059 C 0.58169 0.38449 0.57467 0.0
C1060 C 0.5722 0.38203 0.58406 0.0
C1061 C 0.58805 0.37422 0.56826 0.0
C1062 C 0.57488 0.35888 0.58104 0.0
C1063 C 0.5574 0.36782 0.59628 0.0
O1064 O 0.52034 0.36567 0.6106 0.0
O1065 O 0.53314 0.36557 0.62777 0.0
O1066 O 0.55933 0.36372 0.6082 0.0
O1067 O 0.54588 0.36483 0.59157 0.0
H1068 H 0.52586 0.39547 0.61787 0.0
H1069 H 0.51145 0.41334 0.62452 0.0
H1070 H 0.48772 0.38592 0.64593 0.0
H1071 H 0.50158 0.36832 0.63856 0.0
H1072 H 0.50537 0.30106 0.62264 0.0
H1073 H 0.51434 0.32303 0.62122 0.0
H1074 H 0.54105 0.28596 0.60578 0.0
H1075 H 0.54893 0.30782 0.60313 0.0
H1076 H 0.58932 0.35319 0.56696 0.0
H1077 H 0.58366 0.39451 0.57213 0.0
H1078 H 0.56736 0.39022 0.5886 0.0
H1079 H 0.5722 0.34894 0.58328 0.0
C1080 C 0.45577 0.16238 0.58115 0.0
C1081 C 0.45566 0.14916 0.57775 0.0
C1082 C 0.43626 0.15275 0.56442 0.0
C1083 C 0.44592 0.14437 0.56943 0.0
C1084 C 0.43626 0.16585 0.56818 0.0
C1085 C 0.44594 0.17059 0.57643 0.0
U1086 U 0.48677 0.17269 0.60332 0.0
O1087 O 0.49778 0.19031 0.59769 0.0
O1088 O 0.48541 0.19045 0.61539 0.0
C1089 C 0.49335 0.19685 0.60769 0.0
C1090 C 0.46628 0.1684 0.58881 0.0
C1091 C 0.4965 0.21072 0.60968 0.0
C1092 C 0.49306 0.23371 0.60497 0.0
C1093 C 0.48948 0.22062 0.60336 0.0
C1094 C 0.51055 0.22715 0.61934 0.0
C1095 C 0.50369 0.23705 0.61289 0.0
C1096 C 0.50695 0.2141 0.61777 0.0
C1097 C 0.50989 0.14485 0.6192 0.0
C1098 C 0.53063 0.14144 0.63021 0.0
C1099 C 0.51719 0.12294 0.62453 0.0
C1100 C 0.50793 0.13134 0.61916 0.0
C1101 C 0.52869 0.12788 0.62996 0.0
C1102 C 0.52126 0.14991 0.62489 0.0
C1103 C 0.50007 0.15298 0.61257 0.0
O1104 O 0.4655 0.16924 0.60148 0.0
O1105 O 0.47816 0.16909 0.58411 0.0
O1106 O 0.50293 0.15864 0.60151 0.0
O1107 O 0.49055 0.15853 0.61907 0.0
H1108 H 0.46319 0.14265 0.58128 0.0
H1109 H 0.44608 0.1342 0.5667 0.0
H1110 H 0.42905 0.17254 0.56436 0.0
H1111 H 0.44593 0.18084 0.57887 0.0
H1112 H 0.4877 0.2412 0.59985 0.0
H1113 H 0.48138 0.21821 0.59706 0.0
H1114 H 0.51883 0.22951 0.62542 0.0
H1115 H 0.51248 0.2066 0.62271 0.0
H1116 H 0.53944 0.14545 0.63441 0.0
H1117 H 0.51552 0.11253 0.62415 0.0
H1118 H 0.49926 0.12724 0.61475 0.0
H1119 H 0.52296 0.16031 0.62501 0.0
C1120 C 0.89491 0.51045 0.64514 0.0
C1121 C 0.8964 0.51394 0.63204 0.0
C1122 C 0.88692 0.49312 0.62547 0.0
C1123 C 0.8923 0.50532 0.62222 0.0
C1124 C 0.88512 0.48999 0.63855 0.0
C1125 C 0.88902 0.49856 0.64823 0.0
U1126 U 0.91257 0.5357 0.66954 0.0
O1127 O 0.90402 0.54059 0.68862 0.0
O1128 O 0.92163 0.52821 0.6874 0.0
C1129 C 0.91321 0.53422 0.69487 0.0
C1130 C 0.89994 0.51811 0.65614 0.0
C1131 C 0.91099 0.52944 0.70819 0.0
C1132 C 0.90455 0.51324 0.72423 0.0
C1133 C 0.90519 0.51745 0.71123 0.0
C1134 C 0.91451 0.53337 0.7311 0.0
C1135 C 0.90949 0.52103 0.73445 0.0
C1136 C 0.91556 0.53729 0.71822 0.0
C1137 C 0.93482 0.56476 0.65485 0.0
C1138 C 0.94834 0.58337 0.66067 0.0
C1139 C 0.94849 0.5752 0.63874 0.0
C1140 C 0.9393 0.56584 0.64214 0.0
C1141 C 0.95308 0.58434 0.64781 0.0
C1142 C 0.93939 0.57356 0.66421 0.0
C1143 C 0.92599 0.55375 0.65757 0.0
O1144 O 0.91218 0.51676 0.65963 0.0
O1145 O 0.89464 0.52931 0.65936 0.0
O1146 O 0.91398 0.55568 0.66161 0.0
O1147 O 0.9309 0.54232 0.66053 0.0
H1148 H 0.90094 0.52309 0.62944 0.0
H1149 H 0.89375 0.50795 0.61217 0.0
H1150 H 0.88087 0.48074 0.64131 0.0
H1151 H 0.88776 0.49569 0.65826 0.0
H1152 H 0.9005 0.50371 0.72613 0.0
H1153 H 0.9015 0.51124 0.7036 0.0
H1154 H 0.91739 0.54035 0.73833 0.0
H1155 H 0.91992 0.54666 0.71611 0.0
H1156 H 0.95151 0.59016 0.66802 0.0
H1157 H 0.95234 0.57474 0.62902 0.0
H1158 H 0.93604 0.55903 0.63482 0.0
H1159 H 0.93611 0.57283 0.67415 0.0
C1160 C 0.08113 0.95492 0.65925 0.0
C1161 C 0.07741 0.95479 0.64616 0.0
C1162 C 0.06439 0.93525 0.64997 0.0
C1163 C 0.06904 0.945 0.64156 0.0
C1164 C 0.06843 0.93527 0.66293 0.0
C1165 C 0.07669 0.94503 0.66751 0.0
U1166 U 0.10303 0.98615 0.66958 0.0
O1167 O 0.09708 0.9969 0.68714 0.0
O1168 O 0.11515 0.98486 0.68728 0.0
C1169 C 0.10727 0.99266 0.69363 0.0
C1170 C 0.08879 0.96553 0.66507 0.0
C1171 C 0.10914 0.99563 0.70744 0.0
C1172 C 0.10479 0.99146 0.7302 0.0
C1173 C 0.10336 0.98803 0.71714 0.0
C1174 C 0.1177 1.01015 0.72395 0.0
C1175 C 0.11186 1.00266 0.73382 0.0
C1176 C 0.11645 1.00658 0.71094 0.0
C1177 C 0.11849 1.00994 0.64221 0.0
C1178 C 0.13082 0.03203 0.63899 0.0
C1179 C 0.12219 0.02044 0.62051 0.0
C1180 C 0.11705 1.0089 0.62878 0.0
C1181 C 0.12927 0.03107 0.62543 0.0
C1182 C 0.12542 0.02262 0.64734 0.0
C1183 C 0.11205 0.99994 0.65023 0.0
O1184 O 0.10157 0.96495 0.66589 0.0
O1185 O 0.08382 0.97728 0.6659 0.0
O1186 O 0.10078 1.0024 0.65577 0.0
O1187 O 0.11883 0.99053 0.65565 0.0
H1188 H 0.0807 0.96237 0.63964 0.0
H1189 H 0.06598 0.94516 0.63152 0.0
H1190 H 0.06482 0.92798 0.66961 0.0
H1191 H 0.07936 0.94505 0.67767 0.0
H1192 H 0.10027 0.98533 0.73746 0.0
H1193 H 0.09767 0.97953 0.71462 0.0
H1194 H 0.12284 0.02116 0.72616 0.0
H1195 H 0.1209 0.01471 0.70355 0.0
H1196 H 0.13623 0.04005 0.64316 0.0
H1197 H 0.12023 0.01953 0.61026 0.0
H1198 H 0.1116 1.00088 0.62464 0.0
H1199 H 0.1266 0.02362 0.65771 0.0
C1200 C 0.89592 0.51278 0.87743 0.0
C1201 C 0.89486 0.50938 0.89056 0.0
C1202 C 0.88683 0.53128 0.89566 0.0
C1203 C 0.89024 0.51854 0.89959 0.0
C1204 C 0.88814 0.53446 0.88245 0.0
C1205 C 0.89236 0.52528 0.87348 0.0
U1206 U 0.91298 0.48694 0.85282 0.0
O1207 O 0.90361 0.4829 0.83393 0.0
O1208 O 0.92171 0.49458 0.83485 0.0
C1209 C 0.91288 0.48898 0.82752 0.0
C1210 C 0.90165 0.50413 0.86761 0.0
C1211 C 0.9106 0.49387 0.81426 0.0
C1212 C 0.90165 0.50907 0.79844 0.0
C1213 C 0.90271 0.50468 0.81133 0.0
C1214 C 0.91616 0.49187 0.79144 0.0
C1215 C 0.90842 0.50269 0.78843 0.0
C1216 C 0.91721 0.48752 0.8042 0.0
C1217 C 0.93493 0.45719 0.86647 0.0
C1218 C 0.95102 0.44099 0.86009 0.0
C1219 C 0.94606 0.4443 0.88278 0.0
C1220 C 0.93699 0.45382 0.87944 0.0
C1221 C 0.95325 0.43782 0.87319 0.0
C1222 C 0.94188 0.45066 0.85673 0.0
C1223 C 0.92634 0.46838 0.86399 0.0
O1224 O 0.91369 0.50559 0.86348 0.0
O1225 O 0.89574 0.49341 0.86391 0.0
O1226 O 0.91413 0.46679 0.86042 0.0
O1227 O 0.93148 0.47964 0.86083 0.0
H1228 H 0.89772 0.49978 0.89383 0.0
H1229 H 0.88938 0.51562 0.90963 0.0
H1230 H 0.88648 0.54423 0.87895 0.0
H1231 H 0.89332 0.52813 0.86342 0.0
H1232 H 0.89575 0.51756 0.79631 0.0
H1233 H 0.89759 0.50978 0.81896 0.0
H1234 H 0.9216 0.48692 0.78391 0.0
H1235 H 0.92341 0.47922 0.80627 0.0
H1236 H 0.95639 0.43607 0.85251 0.0
H1237 H 0.9477 0.44225 0.89294 0.0
H1238 H 0.93182 0.45887 0.88709 0.0
H1239 H 0.94046 0.45319 0.84664 0.0
C1240 C 0.08089 0.06806 0.86282 0.0
C1241 C 0.07686 0.06835 0.87581 0.0
C1242 C 0.06424 0.08807 0.87158 0.0
C1243 C 0.06856 0.0783 0.88016 0.0
C1244 C 0.06849 0.08779 0.85867 0.0
C1245 C 0.07673 0.07788 0.85436 0.0
U1246 U 0.10309 0.03698 0.8524 0.0
O1247 O 0.09712 0.02657 0.83466 0.0
O1248 O 0.11522 0.03854 0.8347 0.0
C1249 C 0.10729 0.0309 0.82822 0.0
C1250 C 0.08874 0.05737 0.85743 0.0
C1251 C 0.10914 0.02801 0.81438 0.0
C1252 C 0.10317 0.03101 0.79179 0.0
C1253 C 0.10181 0.03445 0.80485 0.0
C1254 C 0.11948 0.01497 0.79761 0.0
C1255 C 0.11191 0.02116 0.78807 0.0
C1256 C 0.11807 0.01837 0.81067 0.0
C1257 C 0.11901 0.01316 0.87952 0.0
C1258 C 0.12951 0.99002 0.88265 0.0
C1259 C 0.12465 1.0036 0.90118 0.0
C1260 C 0.11935 0.01512 0.89295 0.0
C1261 C 0.12968 0.99196 0.89615 0.0
C1262 C 0.12424 0.99954 0.87436 0.0
C1263 C 0.11243 0.02314 0.87158 0.0
O1264 O 0.10149 0.05814 0.85632 0.0
O1265 O 0.08385 0.0456 0.85648 0.0
O1266 O 0.10123 0.02052 0.86597 0.0
O1267 O 0.11903 0.03273 0.86627 0.0
H1268 H 0.07996 0.06082 0.88248 0.0
H1269 H 0.06541 0.07833 0.89017 0.0
H1270 H 0.06516 0.09506 0.85182 0.0
H1271 H 0.07964 0.07774 0.84427 0.0
H1272 H 0.09726 0.03593 0.78458 0.0
H1273 H 0.09491 0.04197 0.80752 0.0
H1274 H 0.12621 1.00517 0.79498 0.0
H1275 H 0.12379 0.01329 0.81791 0.0
H1276 H 0.13341 0.98114 0.87856 0.0
H1277 H 0.12457 1.00529 0.91153 0.0
H1278 H 0.11528 0.0239 0.89712 0.0
H1279 H 0.12406 0.99784 0.86401 0.0
C1280 C 0.65752 0.94057 0.56762 0.0
C1281 C 0.64412 0.94259 0.56902 0.0
C1282 C 0.64798 0.95745 0.58743 0.0
C1283 C 0.6394 0.95061 0.57898 0.0
C1284 C 0.66149 0.95506 0.58572 0.0
C1285 C 0.66608 0.94661 0.5762 0.0
U1286 U 0.66767 0.91755 0.53736 0.0
O1287 O 0.68542 0.92293 0.52645 0.0
O1288 O 0.68546 0.90555 0.53938 0.0
C1289 C 0.69199 0.91316 0.53145 0.0
C1290 C 0.66317 0.93255 0.55726 0.0
C1291 C 0.70569 0.91069 0.52812 0.0
C1292 C 0.72874 0.91346 0.53268 0.0
C1293 C 0.71568 0.91517 0.5362 0.0
C1294 C 0.72192 0.90297 0.51284 0.0
C1295 C 0.73213 0.90749 0.52085 0.0
C1296 C 0.70886 0.90442 0.51654 0.0
C1297 C 0.64016 0.90134 0.51424 0.0
C1298 C 0.63693 0.88857 0.49465 0.0
C1299 C 0.61827 0.89711 0.50626 0.0
C1300 C 0.6266 0.90259 0.51542 0.0
C1301 C 0.62332 0.89012 0.49576 0.0
C1302 C 0.64535 0.89422 0.50383 0.0
C1303 C 0.64822 0.90811 0.52392 0.0
O1304 O 0.6638 0.91982 0.5583 0.0
O1305 O 0.66411 0.9371 0.54541 0.0
O1306 O 0.65386 0.91922 0.52104 0.0
O1307 O 0.65359 0.9017 0.53359 0.0
H1308 H 0.63731 0.93783 0.56256 0.0
H1309 H 0.62898 0.95084 0.5799 0.0
H1310 H 0.66887 0.95989 0.59135 0.0
H1311 H 0.67652 0.94512 0.57528 0.0
H1312 H 0.73618 0.9169 0.53929 0.0
H1313 H 0.71338 0.92009 0.54518 0.0
H1314 H 0.72386 0.89882 0.50343 0.0
H1315 H 0.70122 0.90099 0.51015 0.0
H1316 H 0.64101 0.88329 0.48653 0.0
H1317 H 0.60783 0.89847 0.50728 0.0
H1318 H 0.62242 0.90806 0.52337 0.0
H1319 H 0.65581 0.8932 0.50273 0.0
C1320 C 0.65631 0.08267 0.95366 0.0
C1321 C 0.64302 0.07973 0.95215 0.0
C1322 C 0.64814 0.06557 0.93391 0.0
C1323 C 0.63894 0.0713 0.94226 0.0
C1324 C 0.66138 0.06873 0.93535 0.0
C1325 C 0.66541 0.07727 0.94508 0.0
U1326 U 0.66731 0.10538 0.98414 0.0
O1327 O 0.68535 0.09939 0.99419 0.0
O1328 O 0.68533 0.11698 0.9816 0.0
C1329 C 0.69203 0.10895 0.98896 0.0
C1330 C 0.66102 0.09079 0.96442 0.0
C1331 C 0.70549 0.11175 0.99299 0.0
C1332 C 0.72871 0.1091 0.98926 0.0
C1333 C 0.71579 0.10715 0.98544 0.0
C1334 C 0.72118 0.11987 1.00864 0.0
C1335 C 0.73182 0.11523 1.00114 0.0
C1336 C 0.70824 0.11839 1.00446 0.0
C1337 C 0.64038 0.12172 1.00797 0.0
C1338 C 0.63664 0.13303 0.03019 0.0
C1339 C 0.61837 0.12652 0.01681 0.0
C1340 C 0.62691 0.12125 1.00589 0.0
C1341 C 0.62301 0.13244 0.02819 0.0
C1342 C 0.6453 0.12767 0.02108 0.0
C1343 C 0.64886 0.11528 0.99847 0.0
O1344 O 0.66248 0.10344 0.96332 0.0
O1345 O 0.66262 0.08602 0.97612 0.0
O1346 O 0.65429 0.10398 1.00106 0.0
O1347 O 0.65381 0.12159 0.98854 0.0
H1348 H 0.63586 0.08379 0.95872 0.0
H1349 H 0.62868 0.06894 0.94136 0.0
H1350 H 0.66863 0.06447 0.929 0.0
H1351 H 0.67571 0.07944 0.9461 0.0
H1352 H 0.73615 0.10574 0.98267 0.0
H1353 H 0.71383 0.10201 0.97648 0.0
H1354 H 0.72251 0.12395 0.02004 0.0
H1355 H 0.70035 0.12197 1.01047 0.0
H1356 H 0.64061 0.13721 0.03895 0.0
H1357 H 0.60801 0.126 0.0148 0.0
H1358 H 0.623 0.11657 0.99734 0.0
H1359 H 0.65571 0.12805 0.02286 0.0
C1360 C 0.3628 0.43968 0.95695 0.0
C1361 C 0.37629 0.44167 0.95581 0.0
C1362 C 0.3726 0.45585 0.93709 0.0
C1363 C 0.38117 0.44964 0.94586 0.0
C1364 C 0.35909 0.45397 0.93867 0.0
C1365 C 0.35431 0.4458 0.9483 0.0
U1366 U 0.35228 0.41714 0.9873 0.0
O1367 O 0.33459 0.42273 0.99811 0.0
O1368 O 0.33453 0.40497 0.98577 0.0
C1369 C 0.32813 0.41259 0.99377 0.0
C1370 C 0.35682 0.43191 0.96726 0.0
C1371 C 0.31416 0.4109 0.99646 0.0
C1372 C 0.2915 0.41696 0.99331 0.0
C1373 C 0.30466 0.41818 0.98989 0.0
C1374 C 0.2972 0.40098 1.00963 0.0
C1375 C 0.28768 0.40855 1.0034 0.0
C1376 C 0.31034 0.40217 1.00618 0.0
C1377 C 0.37993 0.40113 1.01026 0.0
C1378 C 0.38331 0.39036 0.03298 0.0
C1379 C 0.40187 0.39545 0.01934 0.0
C1380 C 0.39342 0.40088 1.00815 0.0
C1381 C 0.39689 0.39029 0.0309 0.0
C1382 C 0.37486 0.39568 0.02365 0.0
C1383 C 0.3719 0.40781 1.00053 0.0
O1384 O 0.35598 0.41919 0.96632 0.0
O1385 O 0.35594 0.43657 0.97905 0.0
O1386 O 0.36619 0.41888 1.00343 0.0
O1387 O 0.36645 0.40132 0.991 0.0
H1388 H 0.38298 0.43709 0.96254 0.0
H1389 H 0.39162 0.45087 0.94499 0.0
H1390 H 0.35207 0.45908 0.93273 0.0
H1391 H 0.34385 0.44452 0.94919 0.0
H1392 H 0.2843 0.42281 0.98828 0.0
H1393 H 0.30743 0.42492 0.98231 0.0
H1394 H 0.29458 0.39437 0.01943 0.0
H1395 H 0.31766 0.39638 0.0133 0.0
H1396 H 0.37928 0.38636 0.04182 0.0
H1397 H 0.41228 0.39565 0.01756 0.0
H1398 H 0.39754 0.40505 0.99941 0.0
H1399 H 0.36445 0.39583 0.02544 0.0
C1400 C 0.86013 0.08407 0.06596 0.0
C1401 C 0.87376 0.08358 0.067 0.0
C1402 C 0.8721 0.06814 0.08531 0.0
C1403 C 0.87967 0.07596 0.07676 0.0
C1404 C 0.85839 0.06888 0.08387 0.0
C1405 C 0.85261 0.07688 0.07462 0.0
U1406 U 0.85104 0.10664 0.03561 0.0
O1407 O 0.83413 0.10273 0.02299 0.0
O1408 O 0.83422 0.12015 0.03551 0.0
C1409 C 0.82811 0.11344 0.02654 0.0
C1410 C 0.85291 0.09161 0.05611 0.0
C1411 C 0.81378 0.11434 0.02522 0.0
C1412 C 0.7914 0.10814 0.0303 0.0
C1413 C 0.80488 0.10736 0.03292 0.0
C1414 C 0.79571 0.12293 0.01254 0.0
C1415 C 0.78678 0.11582 0.01996 0.0
C1416 C 0.80904 0.12222 0.01518 0.0
C1417 C 0.87956 0.12166 0.01376 0.0
C1418 C 0.88174 0.13237 0.99081 0.0
C1419 C 0.90083 0.12852 1.00408 0.0
C1420 C 0.89305 0.12271 0.01548 0.0
C1421 C 0.89542 0.13324 0.99249 0.0
C1422 C 0.87381 0.12673 1.00044 0.0
C1423 C 0.87232 0.1146 0.0239 0.0
O1424 O 0.85285 0.10438 0.0568 0.0
O1425 O 0.8523 0.08706 0.04425 0.0
O1426 O 0.86619 0.10383 0.02075 0.0
O1427 O 0.86663 0.12126 0.03317 0.0
H1428 H 0.8798 0.08921 0.06046 0.0
H1429 H 0.8901 0.07671 0.07755 0.0
H1430 H 0.85179 0.06304 0.08954 0.0
H1431 H 0.84204 0.07713 0.074 0.0
H1432 H 0.78462 0.10253 0.0361 0.0
H1433 H 0.80833 0.10119 0.04071 0.0
H1434 H 0.79231 0.12898 1.00254 0.0
H1435 H 0.81568 0.12778 1.00716 0.0
H1436 H 0.8772 0.13557 0.9819 0.0
H1437 H 0.91122 0.12917 1.00589 0.0
H1438 H 0.89763 0.11892 0.02417 0.0
H1439 H 0.86339 0.12594 0.99888 0.0
C1440 C 0.45171 0.36156 0.08773 0.0
C1441 C 0.44986 0.37503 0.08646 0.0
C1442 C 0.43306 0.3712 0.07011 0.0
C1443 C 0.44049 0.37983 0.07772 0.0
C1444 C 0.43465 0.35775 0.07192 0.0
C1445 C 0.44392 0.35301 0.08058 0.0
U1446 U 0.48248 0.35115 0.11009 0.0
O1447 O 0.48154 0.33269 0.12106 0.0
O1448 O 0.494 0.33424 0.10345 0.0
C1449 C 0.48965 0.32699 0.11299 0.0
C1450 C 0.4622 0.35579 0.09552 0.0
C1451 C 0.49345 0.3133 0.11447 0.0
C1452 C 0.49019 0.29041 0.1096 0.0
C1453 C 0.48592 0.30334 0.10896 0.0
C1454 C 0.50939 0.29725 0.12147 0.0
C1455 C 0.50199 0.2873 0.11577 0.0
C1456 C 0.50515 0.31018 0.12079 0.0
C1457 C 0.50535 0.37923 0.12582 0.0
C1458 C 0.52371 0.38399 0.13994 0.0
C1459 C 0.51457 0.40094 0.12644 0.0
C1460 C 0.50525 0.39223 0.12186 0.0
C1461 C 0.52413 0.39702 0.13545 0.0
C1462 C 0.51456 0.37511 0.13497 0.0
C1463 C 0.49603 0.37039 0.11956 0.0
O1464 O 0.4741 0.35514 0.09087 0.0
O1465 O 0.46126 0.35474 0.10817 0.0
O1466 O 0.48676 0.36457 0.12622 0.0
O1467 O 0.49845 0.36542 0.10811 0.0
H1468 H 0.45582 0.38176 0.09192 0.0
H1469 H 0.4394 0.39025 0.07657 0.0
H1470 H 0.42882 0.35086 0.06652 0.0
H1471 H 0.44521 0.34258 0.08148 0.0
H1472 H 0.48438 0.28284 0.10512 0.0
H1473 H 0.4769 0.3056 0.10396 0.0
H1474 H 0.51855 0.29503 0.12623 0.0
H1475 H 0.5111 0.31778 0.12501 0.0
H1476 H 0.53026 0.38056 0.1474 0.0
H1477 H 0.51443 0.41068 0.12247 0.0
H1478 H 0.49815 0.39559 0.11482 0.0
H1479 H 0.51469 0.36509 0.13824 0.0
C1480 C 0.50975 0.14408 0.12422 0.0
C1481 C 0.51171 0.13118 0.12008 0.0
C1482 C 0.49336 0.12401 0.13346 0.0
C1483 C 0.50357 0.12115 0.12478 0.0
C1484 C 0.49176 0.13683 0.13776 0.0
C1485 C 0.4999 0.1467 0.13324 0.0
U1486 U 0.53424 0.16887 0.10599 0.0
O1487 O 0.52699 0.18736 0.09788 0.0
O1488 O 0.54005 0.18755 0.11487 0.0
C1489 C 0.53353 0.1944 0.10628 0.0
C1490 C 0.51687 0.15545 0.11903 0.0
C1491 C 0.52859 0.20744 0.10976 0.0
C1492 C 0.51218 0.22266 0.11769 0.0
C1493 C 0.51651 0.20977 0.11577 0.0
C1494 C 0.53211 0.23076 0.10807 0.0
C1495 C 0.51991 0.23335 0.11373 0.0
C1496 C 0.53631 0.21803 0.10607 0.0
C1497 C 0.56358 0.15515 0.08383 0.0
C1498 C 0.57964 0.16243 0.06795 0.0
C1499 C 0.57841 0.13969 0.07391 0.0
C1500 C 0.56825 0.14247 0.08241 0.0
C1501 C 0.58416 0.14952 0.06636 0.0
C1502 C 0.56942 0.16525 0.07668 0.0
C1503 C 0.55222 0.15682 0.09247 0.0
O1504 O 0.52817 0.15885 0.12399 0.0
O1505 O 0.51525 0.15883 0.10686 0.0
O1506 O 0.54092 0.16034 0.08756 0.0
O1507 O 0.55398 0.1603 0.10459 0.0
H1508 H 0.51924 0.12894 0.11308 0.0
H1509 H 0.50492 0.11131 0.12129 0.0
H1510 H 0.48398 0.13927 0.14443 0.0
H1511 H 0.49821 0.15656 0.13654 0.0
H1512 H 0.50259 0.22417 0.12181 0.0
H1513 H 0.51034 0.20172 0.11864 0.0
H1514 H 0.53848 0.23861 0.10508 0.0
H1515 H 0.54565 0.21645 0.10141 0.0
H1516 H 0.58361 0.17026 0.06216 0.0
H1517 H 0.5817 0.1297 0.07323 0.0
H1518 H 0.56389 0.13454 0.08783 0.0
H1519 H 0.56592 0.17514 0.0776 0.0
C1520 C 0.45166 0.66126 0.4365 0.0
C1521 C 0.45033 0.64778 0.43807 0.0
C1522 C 0.433 0.65134 0.45398 0.0
C1523 C 0.44096 0.64285 0.4467 0.0
C1524 C 0.43414 0.66479 0.45195 0.0
C1525 C 0.44338 0.66966 0.4433 0.0
U1526 U 0.48249 0.67129 0.41414 0.0
O1527 O 0.4818 0.68969 0.40312 0.0
O1528 O 0.49444 0.68796 0.42059 0.0
C1529 C 0.49036 0.69515 0.41088 0.0
C1530 C 0.4621 0.66723 0.42878 0.0
C1531 C 0.49351 0.70904 0.40991 0.0
C1532 C 0.48865 0.73176 0.41381 0.0
C1533 C 0.48505 0.71863 0.41442 0.0
C1534 C 0.50938 0.72568 0.40456 0.0
C1535 C 0.50116 0.73574 0.40928 0.0
C1536 C 0.50553 0.71265 0.40476 0.0
C1537 C 0.50522 0.64326 0.39819 0.0
C1538 C 0.52517 0.63924 0.38607 0.0
C1539 C 0.51332 0.62123 0.39556 0.0
C1540 C 0.50396 0.62987 0.40022 0.0
C1541 C 0.5242 0.62575 0.3886 0.0
C1542 C 0.51581 0.64797 0.39096 0.0
C1543 C 0.49562 0.65173 0.40459 0.0
O1544 O 0.47405 0.66756 0.43337 0.0
O1545 O 0.46119 0.66818 0.41612 0.0
O1546 O 0.4864 0.65769 0.39799 0.0
O1547 O 0.49822 0.65678 0.41597 0.0
H1548 H 0.45664 0.64114 0.43288 0.0
H1549 H 0.4401 0.63241 0.44786 0.0
H1550 H 0.42821 0.67157 0.45741 0.0
H1551 H 0.44434 0.68011 0.44223 0.0
H1552 H 0.4811 0.73836 0.41665 0.0
H1553 H 0.47559 0.71599 0.4183 0.0
H1554 H 0.51904 0.72745 0.40089 0.0
H1555 H 0.51218 0.7053 0.40115 0.0
H1556 H 0.53313 0.64307 0.38034 0.0
H1557 H 0.5122 0.611 0.3978 0.0
H1558 H 0.49584 0.62606 0.40579 0.0
H1559 H 0.51691 0.6583 0.38923 0.0
C1560 C 0.50926 0.87833 0.39964 0.0
C1561 C 0.51192 0.89115 0.40353 0.0
C1562 C 0.49328 0.8991 0.39075 0.0
C1563 C 0.5041 0.90147 0.39896 0.0
C1564 C 0.49102 0.88623 0.38676 0.0
C1565 C 0.49894 0.87607 0.39107 0.0
U1566 U 0.53421 0.85406 0.41766 0.0
O1567 O 0.52778 0.83539 0.42597 0.0
O1568 O 0.54076 0.83554 0.40896 0.0
C1569 C 0.53454 0.8285 0.41762 0.0
C1570 C 0.51631 0.86674 0.40446 0.0
C1571 C 0.52962 0.81554 0.41394 0.0
C1572 C 0.51323 0.80068 0.40548 0.0
C1573 C 0.5177 0.81345 0.40753 0.0
C1574 C 0.53264 0.79213 0.41581 0.0
C1575 C 0.5206 0.78992 0.4098 0.0
C1576 C 0.53706 0.80479 0.41787 0.0
C1577 C 0.56277 0.86833 0.44019 0.0
C1578 C 0.58095 0.86073 0.45345 0.0
C1579 C 0.57563 0.88358 0.45271 0.0
C1580 C 0.56563 0.88099 0.44399 0.0
C1581 C 0.58376 0.87362 0.45769 0.0
C1582 C 0.57042 0.8581 0.44502 0.0
C1583 C 0.55158 0.8668 0.43132 0.0
O1584 O 0.52781 0.8638 0.39963 0.0
O1585 O 0.51477 0.86321 0.4166 0.0
O1586 O 0.54028 0.86309 0.43604 0.0
O1587 O 0.55362 0.86325 0.41927 0.0
H1588 H 0.51993 0.89315 0.41007 0.0
H1589 H 0.5066 0.91127 0.40186 0.0
H1590 H 0.48283 0.88385 0.38058 0.0
H1591 H 0.49673 0.86625 0.38793 0.0
H1592 H 0.50389 0.79919 0.40079 0.0
H1593 H 0.51179 0.82161 0.40442 0.0
H1594 H 0.53843 0.78405 0.41937 0.0
H1595 H 0.54624 0.80621 0.42291 0.0
H1596 H 0.58682 0.85249 0.45615 0.0
H1597 H 0.57644 0.89359 0.45564 0.0
H1598 H 0.55982 0.88906 0.44042 0.0
H1599 H 0.56841 0.84818 0.44213 0.0
C1600 C 0.08622 0.45202 0.36364 0.0
C1601 C 0.08606 0.44924 0.37695 0.0
C1602 C 0.06903 0.43301 0.3735 0.0
C1603 C 0.07755 0.4397 0.38185 0.0
C1604 C 0.06953 0.43562 0.36017 0.0
C1605 C 0.07807 0.445 0.35531 0.0
U1606 U 0.10846 0.48279 0.3523 0.0
O1607 O 0.11923 0.48121 0.33378 0.0
O1608 O 0.1015 0.49366 0.33522 0.0
C1609 C 0.11089 0.48898 0.32795 0.0
C1610 C 0.09398 0.46269 0.35806 0.0
C1611 C 0.11256 0.49311 0.31445 0.0
C1612 C 0.10866 0.48932 0.29159 0.0
C1613 C 0.10799 0.48514 0.30446 0.0
C1614 C 0.11855 0.50951 0.29858 0.0
C1615 C 0.11365 0.50171 0.28847 0.0
C1616 C 0.11799 0.50525 0.31145 0.0
C1617 C 0.12458 0.50614 0.37969 0.0
C1618 C 0.1355 0.52637 0.38501 0.0
C1619 C 0.12739 0.5125 0.40204 0.0
C1620 C 0.12283 0.50373 0.39281 0.0
C1621 C 0.13337 0.52447 0.3985 0.0
C1622 C 0.13124 0.51731 0.3758 0.0
C1623 C 0.11856 0.49729 0.37033 0.0
O1624 O 0.08916 0.47448 0.35699 0.0
O1625 O 0.10671 0.46179 0.35671 0.0
O1626 O 0.12501 0.48749 0.36521 0.0
O1627 O 0.10683 0.49943 0.36567 0.0
H1628 H 0.09226 0.45462 0.38354 0.0
H1629 H 0.07728 0.43786 0.39218 0.0
H1630 H 0.06312 0.43054 0.35354 0.0
H1631 H 0.07807 0.44701 0.345 0.0
H1632 H 0.10531 0.48276 0.28411 0.0
H1633 H 0.10379 0.47571 0.30662 0.0
H1634 H 0.12248 0.51909 0.2966 0.0
H1635 H 0.12156 0.51152 0.31909 0.0
H1636 H 0.14011 0.53493 0.38114 0.0
H1637 H 0.12617 0.50919 0.41178 0.0
H1638 H 0.11786 0.49498 0.39599 0.0
H1639 H 0.13279 0.51926 0.3656 0.0
C1640 C 0.901 1.0063 0.37802 0.0
C1641 C 0.90589 1.0082 0.39059 0.0
C1642 C 0.89181 0.99078 0.3986 0.0
C1643 C 0.90132 1.00041 0.40085 0.0
C1644 C 0.88683 0.98916 0.38609 0.0
C1645 C 0.89142 0.99682 0.37592 0.0
U1646 U 0.91913 0.03323 0.35404 0.0
O1647 O 0.92753 0.02656 0.33554 0.0
O1648 O 0.91033 0.03955 0.33553 0.0
C1649 C 0.91903 0.03319 0.32865 0.0
C1650 C 0.9059 0.01529 0.36648 0.0
C1651 C 0.91579 0.02889 0.3154 0.0
C1652 C 0.90873 0.01328 0.29906 0.0
C1653 C 0.91031 0.01681 0.31219 0.0
C1654 C 0.91676 0.03433 0.29258 0.0
C1655 C 0.9123 0.02187 0.2888 0.0
C1656 C 0.91889 0.03752 0.30549 0.0
C1657 C 0.94115 0.0623 0.36834 0.0
C1658 C 0.95667 0.07849 0.36047 0.0
C1659 C 0.95197 0.07702 0.38338 0.0
C1660 C 0.94325 0.06687 0.38096 0.0
C1661 C 0.95888 0.08284 0.37322 0.0
C1662 C 0.94781 0.06828 0.35801 0.0
C1663 C 0.93244 0.05088 0.3669 0.0
O1664 O 0.90089 0.02665 0.36338 0.0
O1665 O 0.91824 0.01394 0.3633 0.0
O1666 O 0.93747 0.03975 0.36313 0.0
O1667 O 0.92027 0.05262 0.36325 0.0
H1668 H 0.91331 0.01756 0.39241 0.0
H1669 H 0.90525 1.0018 0.41048 0.0
H1670 H 0.87959 0.98174 0.38411 0.0
H1671 H 0.88761 0.99515 0.36627 0.0
H1672 H 0.90505 1.00153 0.29721 0.0
H1673 H 0.90765 1.00789 0.31974 0.0
H1674 H 0.91829 0.0422 0.28594 0.0
H1675 H 0.92285 0.04704 0.30775 0.0
H1676 H 0.96191 0.08288 0.35247 0.0
H1677 H 0.95354 0.08015 0.39328 0.0
H1678 H 0.93826 0.06238 0.38907 0.0
H1679 H 0.94636 0.06493 0.34818 0.0
C1680 C 0.0865 0.57102 0.16033 0.0
C1681 C 0.08615 0.57384 0.14704 0.0
C1682 C 0.06912 0.59002 0.15078 0.0
C1683 C 0.07755 0.58337 0.14229 0.0
C1684 C 0.06988 0.58741 0.1641 0.0
C1685 C 0.07848 0.57801 0.16882 0.0
U1686 U 0.10871 0.54025 0.17173 0.0
O1687 O 0.1194 0.54195 0.19028 0.0
O1688 O 0.10156 0.52968 0.18892 0.0
C1689 C 0.11089 0.53445 0.19621 0.0
C1690 C 0.09429 0.56027 0.16564 0.0
C1691 C 0.11276 0.53005 0.20962 0.0
C1692 C 0.10798 0.53291 0.23247 0.0
C1693 C 0.10729 0.53737 0.2197 0.0
C1694 C 0.11991 0.51389 0.22527 0.0
C1695 C 0.11424 0.52112 0.23533 0.0
C1696 C 0.11914 0.51832 0.21245 0.0
C1697 C 0.12477 0.51687 0.1443 0.0
C1698 C 0.13754 0.49785 0.13852 0.0
C1699 C 0.12497 0.50909 0.12221 0.0
C1700 C 0.12103 0.5182 0.13142 0.0
C1701 C 0.13339 0.49859 0.12541 0.0
C1702 C 0.13307 0.50669 0.14784 0.0
C1703 C 0.11895 0.52533 0.15413 0.0
O1704 O 0.08943 0.54851 0.16684 0.0
O1705 O 0.10701 0.56119 0.16708 0.0
O1706 O 0.12533 0.53525 0.15907 0.0
O1707 O 0.10704 0.5235 0.15847 0.0
H1708 H 0.09225 0.56848 0.14035 0.0
H1709 H 0.07713 0.58522 0.13197 0.0
H1710 H 0.06363 0.59252 0.17087 0.0
H1711 H 0.07864 0.57595 0.17911 0.0
H1712 H 0.10345 0.53855 0.2401 0.0
H1713 H 0.10222 0.54639 0.21764 0.0
H1714 H 0.12468 0.5047 0.22732 0.0
H1715 H 0.12332 0.51251 0.20475 0.0
H1716 H 0.14423 0.4905 0.1419 0.0
H1717 H 0.12046 0.51028 0.11293 0.0
H1718 H 0.11445 0.52595 0.12857 0.0
H1719 H 0.13601 0.50548 0.15785 0.0
C1720 C 0.90127 0.01695 0.14664 0.0
C1721 C 0.90531 0.01431 0.13391 0.0
C1722 C 0.89222 0.03265 0.12592 0.0
C1723 C 0.90071 0.02205 0.12359 0.0
C1724 C 0.88816 0.03497 0.1387 0.0
C1725 C 0.89258 0.0272 0.14885 0.0
U1726 U 0.91921 0.98954 0.17029 0.0
O1727 O 0.92763 0.99543 0.18902 0.0
O1728 O 0.9104 0.98265 0.18859 0.0
C1729 C 0.9191 0.98868 0.19574 0.0
C1730 C 0.90602 1.00779 0.15818 0.0
C1731 C 0.91525 0.99349 0.20868 0.0
C1732 C 0.90671 1.00974 0.22361 0.0
C1733 C 0.90893 1.00544 0.21085 0.0
C1734 C 0.91666 0.99008 0.23197 0.0
C1735 C 0.91074 1.00214 0.23429 0.0
C1736 C 0.9189 0.98585 0.21933 0.0
C1737 C 0.94138 0.96091 0.1558 0.0
C1738 C 0.9572 0.94511 0.16385 0.0
C1739 C 0.9518 0.94568 0.14106 0.0
C1740 C 0.94316 0.95591 0.14334 0.0
C1741 C 0.9591 0.94016 0.1512 0.0
C1742 C 0.94835 0.95537 0.16615 0.0
C1743 C 0.93266 0.97232 0.15702 0.0
O1744 O 0.90104 0.99634 0.16096 0.0
O1745 O 0.91829 1.00913 0.16161 0.0
O1746 O 0.93762 0.98337 0.16111 0.0
O1747 O 0.92045 0.9705 0.16046 0.0
H1748 H 0.91199 1.00426 0.13197 0.0
H1749 H 0.90374 0.01968 0.11384 0.0
H1750 H 0.88177 0.04304 0.14097 0.0
H1751 H 0.88936 0.02941 0.1586 0.0
H1752 H 0.90212 0.02122 0.22516 0.0
H1753 H 0.90603 0.01363 0.20277 0.0
H1754 H 0.92005 0.98413 0.23997 0.0
H1755 H 0.92386 0.97665 0.21787 0.0
H1756 H 0.96284 0.94141 0.17191 0.0
H1757 H 0.95276 0.94211 0.13125 0.0
H1758 H 0.9379 0.96006 0.13521 0.0
H1759 H 0.9472 0.95914 0.17587 0.0
C1760 C 0.36304 0.08991 0.45269 0.0
C1761 C 0.37633 0.0869 0.45154 0.0
C1762 C 0.37149 0.07144 0.43423 0.0
C1763 C 0.38054 0.07778 0.44234 0.0
C1764 C 0.35827 0.07514 0.43498 0.0
C1765 C 0.35409 0.08418 0.44419 0.0
U1766 U 0.3514 0.11221 0.48317 0.0
O1767 O 0.33254 0.12263 0.48123 0.0
O1768 O 0.33402 0.10487 0.49341 0.0
C1769 C 0.32652 0.11397 0.48846 0.0
C1770 C 0.35812 0.0979 0.46342 0.0
C1771 C 0.3132 0.11606 0.49338 0.0
C1772 C 0.28998 0.11175 0.49109 0.0
C1773 C 0.30272 0.11099 0.48631 0.0
C1774 C 0.29795 0.12325 0.50993 0.0
C1775 C 0.28739 0.1177 0.50308 0.0
C1776 C 0.31077 0.12229 0.5052 0.0
C1777 C 0.37909 0.12842 0.50637 0.0
C1778 C 0.3853 0.14136 0.52504 0.0
C1779 C 0.40143 0.1283 0.51404 0.0
C1780 C 0.39201 0.12439 0.50507 0.0
C1781 C 0.39841 0.13697 0.52431 0.0
C1782 C 0.37578 0.13695 0.51636 0.0
C1783 C 0.36885 0.12278 0.49817 0.0
O1784 O 0.35693 0.09312 0.47515 0.0
O1785 O 0.35613 0.1105 0.46229 0.0
O1786 O 0.36395 0.129 0.48816 0.0
O1787 O 0.36464 0.11084 0.49996 0.0
H1788 H 0.38338 0.09127 0.45803 0.0
H1789 H 0.3908 0.0753 0.44197 0.0
H1790 H 0.35109 0.07095 0.42854 0.0
H1791 H 0.34379 0.08643 0.4449 0.0
H1792 H 0.28219 0.10733 0.48554 0.0
H1793 H 0.30443 0.10611 0.47717 0.0
H1794 H 0.29635 0.12835 0.51894 0.0
H1795 H 0.31874 0.12632 0.51078 0.0
H1796 H 0.38213 0.14823 0.53227 0.0
H1797 H 0.41074 0.12362 0.51305 0.0
H1798 H 0.3947 0.11763 0.49748 0.0
H1799 H 0.36576 0.1401 0.51756 0.0
C1800 C 0.36214 0.9335 0.07164 0.0
C1801 C 0.37558 0.9339 0.07433 0.0
C1802 C 0.37188 0.9513 0.09 0.0
C1803 C 0.38042 0.94272 0.08358 0.0
C1804 C 0.35847 0.95053 0.08748 0.0
C1805 C 0.35367 0.94169 0.07845 0.0
U1806 U 0.35153 0.91099 0.04111 0.0
O1807 O 0.33299 0.90001 0.04178 0.0
O1808 O 0.33456 0.91797 0.0298 0.0
C1809 C 0.32724 0.90838 0.03401 0.0
C1810 C 0.35644 0.92563 0.06118 0.0
C1811 C 0.3136 0.90676 0.02986 0.0
C1812 C 0.29092 0.9136 0.0308 0.0
C1813 C 0.30375 0.91433 0.03543 0.0
C1814 C 0.29755 0.89709 0.0155 0.0
C1815 C 0.28758 0.90511 0.02059 0.0
C1816 C 0.31044 0.8981 0.01992 0.0
C1817 C 0.37944 0.89507 0.01824 0.0
C1818 C 0.38378 0.88132 0.99777 0.0
C1819 C 0.40106 0.89429 1.00701 0.0
C1820 C 0.39255 0.89865 0.01841 0.0
C1821 C 0.39699 0.88555 0.99724 0.0
C1822 C 0.37501 0.88638 1.00695 0.0
C1823 C 0.37081 0.9014 0.02766 0.0
O1824 O 0.35568 0.9303 0.04937 0.0
O1825 O 0.35523 0.91293 0.06215 0.0
O1826 O 0.36494 0.8947 0.03683 0.0
O1827 O 0.36583 0.91294 0.02527 0.0
H1828 H 0.38229 0.92768 0.06911 0.0
H1829 H 0.39082 0.94315 0.08538 0.0
H1830 H 0.35169 0.95694 0.09239 0.0
H1831 H 0.34328 0.94152 0.0765 0.0
H1832 H 0.28374 0.92003 0.03505 0.0
H1833 H 0.30603 0.92107 0.04317 0.0
H1834 H 0.29545 0.88993 1.00631 0.0
H1835 H 0.31794 0.89209 0.01557 0.0
H1836 H 0.37997 0.87395 0.99144 0.0
H1837 H 0.41077 0.8983 1.00736 0.0
H1838 H 0.39612 0.90542 0.02562 0.0
H1839 H 0.36489 0.88335 1.0068 0.0
C1840 C 0.65733 0.58806 0.07255 0.0
C1841 C 0.64381 0.58631 0.07386 0.0
C1842 C 0.64749 0.57056 0.09123 0.0
C1843 C 0.63892 0.57756 0.08316 0.0
C1844 C 0.66095 0.57262 0.09009 0.0
C1845 C 0.66581 0.58127 0.08082 0.0
U1846 U 0.6678 0.61049 0.04182 0.0
O1847 O 0.68617 0.62176 0.04282 0.0
O1848 O 0.68501 0.60396 0.03064 0.0
C1849 C 0.69213 0.61365 0.03495 0.0
C1850 C 0.66324 0.59591 0.06213 0.0
C1851 C 0.70596 0.61523 0.03137 0.0
C1852 C 0.72897 0.61032 0.03472 0.0
C1853 C 0.71594 0.60963 0.03886 0.0
C1854 C 0.7222 0.6225 0.01578 0.0
C1855 C 0.73217 0.61669 0.0231 0.0
C1856 C 0.70919 0.62175 0.01988 0.0
C1857 C 0.64033 0.62597 0.01801 0.0
C1858 C 0.63712 0.63988 0.99709 0.0
C1859 C 0.61908 0.62731 1.00551 0.0
C1860 C 0.62714 0.62253 0.01737 0.0
C1861 C 0.62394 0.63585 0.99598 0.0
C1862 C 0.64528 0.63487 1.00691 0.0
C1863 C 0.64826 0.61965 0.02818 0.0
O1864 O 0.66401 0.59121 0.05034 0.0
O1865 O 0.66408 0.60865 0.06291 0.0
O1866 O 0.65408 0.62653 0.03724 0.0
O1867 O 0.65354 0.60822 0.026 0.0
H1868 H 0.6371 0.59139 0.06751 0.0
H1869 H 0.62849 0.57601 0.08385 0.0
H1870 H 0.66774 0.5672 0.09608 0.0
H1871 H 0.67628 0.5824 0.07987 0.0
H1872 H 0.73652 0.6057 0.04045 0.0
H1873 H 0.71363 0.60448 0.04773 0.0
H1874 H 0.72439 0.62747 1.00477 0.0
H1875 H 0.70161 0.62605 0.01395 0.0
H1876 H 0.64122 0.64696 0.9905 0.0
H1877 H 0.60915 0.62378 1.00516 0.0
H1878 H 0.62305 0.61583 0.0244 0.0
H1879 H 0.65541 0.63782 1.00732 0.0
C1880 C 0.15797 0.93421 0.95065 0.0
C1881 C 0.1445 0.93578 0.94874 0.0
C1882 C 0.1487 0.95202 0.93189 0.0
C1883 C 0.13989 0.9446 0.93936 0.0
C1884 C 0.16215 0.94985 0.9335 0.0
C1885 C 0.16671 0.94112 0.94283 0.0
U1886 U 0.16873 0.9116 0.98126 0.0
O1887 O 0.18723 0.90056 0.97976 0.0
O1888 O 0.18602 0.91814 0.99228 0.0
C1889 C 0.19322 0.90867 0.98761 0.0
C1890 C 0.16344 0.92626 0.96123 0.0
C1891 C 0.20697 0.90694 0.99135 0.0
C1892 C 0.23001 0.91111 0.98753 0.0
C1893 C 0.21698 0.91178 0.98345 0.0
C1894 C 0.22317 0.90036 1.00725 0.0
C1895 C 0.23332 0.90534 0.99949 0.0
C1896 C 0.21014 0.90123 1.00325 0.0
C1897 C 0.14149 0.89546 1.00492 0.0
C1898 C 0.13809 0.88547 0.02807 0.0
C1899 C 0.1196 0.89078 0.01451 0.0
C1900 C 0.12798 0.89563 1.00305 0.0
C1901 C 0.12439 0.88625 0.02651 0.0
C1902 C 0.1466 0.88995 0.01832 0.0
C1903 C 0.14964 0.90189 0.99504 0.0
O1904 O 0.16439 0.93093 0.97301 0.0
O1905 O 0.16467 0.91357 0.96026 0.0
O1906 O 0.15519 0.89532 0.98561 0.0
O1907 O 0.15489 0.91329 0.99747 0.0
H1908 H 0.1376 0.9305 0.95469 0.0
H1909 H 0.12947 0.94597 0.93829 0.0
H1910 H 0.16921 0.95502 0.92764 0.0
H1911 H 0.17714 0.93996 0.94411 0.0
H1912 H 0.23741 0.91549 0.98145 0.0
H1913 H 0.21469 0.91641 0.9743 0.0
H1914 H 0.22535 0.89566 0.01843 0.0
H1915 H 0.20251 0.89753 1.00952 0.0
H1916 H 0.14227 0.88189 0.03702 0.0
H1917 H 0.10923 0.89084 1.01036 0.0
H1918 H 0.12388 0.8996 0.9942 0.0
H1919 H 0.15704 0.88962 0.01991 0.0
C1920 C 0.10639 0.15047 0.48751 0.0
C1921 C 0.11621 0.14101 0.48601 0.0
C1922 C 0.09794 0.15371 0.47722 0.0
C1923 C 0.09879 0.14741 0.46512 0.0
H1924 H 0.10524 0.1554 0.4967 0.0
H1925 H 0.09045 0.16096 0.47887 0.0
S1926 S 0.12268 0.12162 0.45654 0.0
N1927 N 0.12618 0.12525 0.4717 0.0
N1928 N 0.11041 0.1312 0.45242 0.0
C1929 C 0.10858 0.13788 0.46361 0.0
C1930 C 0.11724 0.13472 0.47402 0.0
C1931 C 0.91941 0.38245 0.49046 0.0
C1932 C 0.90583 0.38221 0.48788 0.0
C1933 C 0.92867 0.37917 0.48101 0.0
C1934 C 0.92485 0.37501 0.46867 0.0
H1935 H 0.92308 0.38498 0.49994 0.0
H1936 H 0.93894 0.37954 0.48351 0.0
S1937 S 0.89104 0.37264 0.45633 0.0
N1938 N 0.88937 0.37801 0.47128 0.0
N1939 N 0.90686 0.3707 0.45413 0.0
C1940 C 0.91148 0.37445 0.46587 0.0
C1941 C 0.90198 0.37827 0.47531 0.0
C1942 C 0.11807 0.87257 0.04612 0.0
C1943 C 0.11516 0.88275 0.03736 0.0
C1944 C 0.10958 0.86928 0.05638 0.0
C1945 C 0.09772 0.87595 0.0583 0.0
H1946 H 0.12695 0.86697 0.04503 0.0
H1947 H 0.11242 0.86155 0.06294 0.0
S1948 S 0.08514 0.90316 0.03813 0.0
N1949 N 0.09951 0.89974 0.03183 0.0
N1950 N 0.08319 0.89272 0.05008 0.0
C1951 C 0.09456 0.88593 0.04948 0.0
C1952 C 0.10332 0.88952 0.0393 0.0
C1953 C 0.90383 0.64831 0.04585 0.0
C1954 C 0.90712 0.63985 0.03555 0.0
C1955 C 0.91288 0.65176 0.05546 0.0
C1956 C 0.92582 0.64725 0.05514 0.0
H1957 H 0.89425 0.65264 0.04653 0.0
H1958 H 0.9097 0.65816 0.06317 0.0
S1959 S 0.94011 0.62522 0.03058 0.0
N1960 N 0.92466 0.62658 0.02637 0.0
N1961 N 0.94179 0.63444 0.0435 0.0
C1962 C 0.92942 0.63901 0.04494 0.0
C1963 C 0.92011 0.63504 0.03539 0.0
C1964 C 0.48683 0.10387 0.14583 0.0
C1965 C 0.48358 0.11408 0.13734 0.0
C1966 C 0.47727 0.09502 0.15016 0.0
C1967 C 0.4642 0.09598 0.14598 0.0
H1968 H 0.49676 0.10286 0.14929 0.0
H1969 H 0.48015 0.08728 0.15669 0.0
S1970 S 0.45078 0.12118 0.12401 0.0
N1971 N 0.46643 0.12481 0.12518 0.0
N1972 N 0.44858 0.10812 0.13307 0.0
C1973 C 0.46091 0.10615 0.13749 0.0
C1974 C 0.47056 0.11521 0.13325 0.0
C1975 C 0.53144 0.42008 0.14016 0.0
C1976 C 0.53435 0.40661 0.13984 0.0
C1977 C 0.54084 0.42939 0.14352 0.0
C1978 C 0.55347 0.42568 0.14719 0.0
H1979 H 0.52174 0.4236 0.13799 0.0
H1980 H 0.5381 0.43957 0.14358 0.0
S1981 S 0.56667 0.39219 0.148 0.0
N1982 N 0.55148 0.39039 0.14301 0.0
N1983 N 0.56863 0.40793 0.15044 0.0
C1984 C 0.55659 0.41241 0.1472 0.0
C1985 C 0.54718 0.40289 0.14331 0.0
C1986 C 0.47824 0.90942 0.37416 0.0
C1987 C 0.48398 0.90965 0.3866 0.0
C1988 C 0.46866 0.91849 0.37041 0.0
C1989 C 0.46446 0.92844 0.37882 0.0
H1990 H 0.48108 0.90207 0.36721 0.0
H1991 H 0.46433 0.91747 0.3609 0.0
S1992 S 0.47713 0.93411 0.41213 0.0
N1993 N 0.48473 0.92085 0.40727 0.0
N1994 N 0.46791 0.93862 0.39985 0.0
C1995 C 0.47057 0.92913 0.39108 0.0
C1996 C 0.48002 0.91964 0.39503 0.0
C1997 C 0.54007 0.59449 0.37625 0.0
C1998 C 0.55346 0.59719 0.37708 0.0
C1999 C 0.53073 0.60383 0.37976 0.0
C2000 C 0.53441 0.61626 0.38429 0.0
H2001 H 0.5368 0.5851 0.37277 0.0
H2002 H 0.52053 0.60129 0.3788 0.0
S2003 S 0.56848 0.62784 0.38841 0.0
N2004 N 0.57008 0.61295 0.38263 0.0
N2005 N 0.55264 0.63045 0.38966 0.0
C2006 C 0.54787 0.61899 0.38517 0.0
C2007 C 0.55735 0.60947 0.38149 0.0
C2008 C 0.14679 0.46652 0.11105 0.0
C2009 C 0.14471 0.46786 0.09771 0.0
C2010 C 0.14299 0.47629 0.11976 0.0
C2011 C 0.13743 0.48826 0.11557 0.0
H2012 H 0.15116 0.45769 0.11483 0.0
H2013 H 0.14435 0.47404 0.12986 0.0
S2014 S 0.13135 0.49661 0.08078 0.0
N2015 N 0.13718 0.4817 0.08039 0.0
N2016 N 0.13123 0.50066 0.09619 0.0
C2017 C 0.1358 0.4897 0.10195 0.0
C2018 C 0.13916 0.47942 0.09321 0.0
C2019 C 0.14444 0.54604 0.4046 0.0
C2020 C 0.1372 0.53487 0.40845 0.0
C2021 C 0.14802 0.55588 0.41332 0.0
C2022 C 0.1447 0.55517 0.42645 0.0
H2023 H 0.14774 0.54748 0.39482 0.0
H2024 H 0.1535 0.56413 0.40971 0.0
S2025 S 0.12651 0.52871 0.44265 0.0
N2026 N 0.12687 0.5245 0.4273 0.0
N2027 N 0.13448 0.54256 0.44334 0.0
C2028 C 0.13772 0.5443 0.43069 0.0
C2029 C 0.13381 0.53431 0.42184 0.0
C2030 C 0.86965 0.97319 0.42229 0.0
C2031 C 0.87807 0.96407 0.42827 0.0
C2032 C 0.87416 0.98181 0.41275 0.0
C2033 C 0.88733 0.98198 0.40907 0.0
H2034 H 0.85949 0.97384 0.42505 0.0
H2035 H 0.86731 0.98851 0.40831 0.0
S2036 S 0.91322 0.95972 0.42059 0.0
N2037 N 0.90011 0.95522 0.42872 0.0
N2038 N 0.90861 0.97205 0.41142 0.0
C2039 C 0.89584 0.973 0.41481 0.0
C2040 C 0.89122 0.96394 0.42427 0.0
C2041 C 0.38275 0.55295 0.61703 0.0
C2042 C 0.38837 0.5408 0.61374 0.0
C2043 C 0.37789 0.56152 0.60758 0.0
C2044 C 0.37883 0.55862 0.59434 0.0
H2045 H 0.38218 0.55607 0.62701 0.0
H2046 H 0.3735 0.57059 0.61067 0.0
S2047 S 0.39179 0.52823 0.58015 0.0
N2048 N 0.39359 0.5262 0.5959 0.0
N2049 N 0.38532 0.54281 0.57827 0.0
C2050 C 0.38444 0.54671 0.59079 0.0
C2051 C 0.38902 0.53772 0.60042 0.0
C2052 C 0.92419 0.88681 0.55294 0.0
C2053 C 0.92238 0.87458 0.55884 0.0
C2054 C 0.91547 0.89153 0.54359 0.0
C2055 C 0.90459 0.88418 0.53961 0.0
H2056 H 0.93251 0.8928 0.55542 0.0
H2057 H 0.91723 0.90108 0.53952 0.0
S2058 S 0.89562 0.85135 0.5515 0.0
N2059 N 0.90871 0.85524 0.55995 0.0
N2060 N 0.89287 0.86379 0.54177 0.0
C2061 C 0.90277 0.87186 0.54521 0.0
C2062 C 0.91154 0.86712 0.55492 0.0
C2063 C 0.1031 0.63352 0.55773 0.0
C2064 C 0.09574 0.64504 0.556 0.0
C2065 C 0.11251 0.62952 0.54867 0.0
C2066 C 0.11505 0.6369 0.53753 0.0
H2067 H 0.10156 0.62743 0.56615 0.0
H2068 H 0.11766 0.62046 0.55028 0.0
S2069 S 0.09918 0.66791 0.52832 0.0
N2070 N 0.09207 0.66383 0.54208 0.0
N2071 N 0.10992 0.65633 0.52527 0.0
C2072 C 0.10809 0.64851 0.53572 0.0
C2073 C 0.09846 0.65261 0.54492 0.0
C2074 C 0.92508 0.13719 0.97047 0.0
C2075 C 0.92196 0.14807 0.96281 0.0
C2076 C 0.91643 0.13247 0.97988 0.0
C2077 C 0.90427 0.13849 0.9822 0.0
H2078 H 0.93438 0.13231 0.96931 0.0
H2079 H 0.91931 0.12391 0.9853 0.0
S2080 S 0.89151 0.16755 0.965 0.0
N2081 N 0.90571 0.16467 0.95806 0.0
N2082 N 0.88984 0.1563 0.97628 0.0
C2083 C 0.90109 0.14949 0.97471 0.0
C2084 C 0.90983 0.15418 0.96495 0.0
C2085 C 0.10422 0.37915 0.98836 0.0
C2086 C 0.11517 0.3866 0.9847 0.0
C2087 C 0.09499 0.37495 0.97919 0.0
C2088 C 0.09624 0.37822 0.96602 0.0
H2089 H 0.10272 0.37661 0.99844 0.0
H2090 H 0.0866 0.36945 0.98248 0.0
S2091 S 0.12309 0.3974 0.95136 0.0
N2092 N 0.12671 0.39693 0.96693 0.0
N2093 N 0.1094 0.38911 0.94975 0.0
C2094 C 0.1072 0.38552 0.96222 0.0
C2095 C 0.11665 0.38968 0.97152 0.0
C2096 C 0.5573 0.91025 0.87341 0.0
C2097 C 0.55798 0.92322 0.87767 0.0
C2098 C 0.5477 0.90169 0.87811 0.0
C2099 C 0.53838 0.90564 0.8874 0.0
H2100 H 0.56427 0.90665 0.8664 0.0
H2101 H 0.54756 0.89191 0.87424 0.0
S2102 S 0.53568 0.93911 0.90101 0.0
N2103 N 0.54805 0.93997 0.89085 0.0
N2104 N 0.5307 0.92387 0.90051 0.0
C2105 C 0.53899 0.91873 0.89162 0.0
C2106 C 0.54861 0.92748 0.8866 0.0
C2107 C 0.46749 0.60135 0.88472 0.0
C2108 C 0.46988 0.59243 0.87463 0.0
C2109 C 0.47672 0.61085 0.88814 0.0
C2110 C 0.48882 0.61171 0.88178 0.0
H2111 H 0.45835 0.60107 0.88998 0.0
H2112 H 0.4744 0.61754 0.89591 0.0
S2113 S 0.49994 0.59096 0.85469 0.0
N2114 N 0.48534 0.58523 0.8583 0.0
N2115 N 0.50261 0.60313 0.86477 0.0
C2116 C 0.49135 0.60295 0.87168 0.0
C2117 C 0.4819 0.59334 0.86809 0.0
C2118 C 0.54579 0.10197 0.65013 0.0
C2119 C 0.55804 0.10065 0.64399 0.0
C2120 C 0.53635 0.1108 0.6456 0.0
C2121 C 0.53883 0.11878 0.63483 0.0
H2122 H 0.54335 0.09599 0.65842 0.0
H2123 H 0.52706 0.11142 0.65056 0.0
S2124 S 0.56898 0.11922 0.61513 0.0
N2125 N 0.57194 0.10828 0.62647 0.0
N2126 N 0.55409 0.12468 0.61793 0.0
C2127 C 0.55091 0.11758 0.62856 0.0
C2128 C 0.56051 0.10856 0.63312 0.0
C2129 C 0.46589 0.41838 0.64373 0.0
C2130 C 0.4697 0.43112 0.64675 0.0
C2131 C 0.47515 0.4089 0.64023 0.0
C2132 C 0.48866 0.41173 0.63958 0.0
H2133 H 0.45566 0.41575 0.64396 0.0
H2134 H 0.47157 0.39931 0.63776 0.0
S2135 S 0.50338 0.44403 0.64646 0.0
N2136 N 0.48759 0.44634 0.64857 0.0
N2137 N 0.50511 0.42857 0.6425 0.0
C2138 C 0.49249 0.42456 0.64259 0.0
C2139 C 0.483 0.43421 0.64606 0.0
C2140 C 0.88779 0.54179 0.91784 0.0
C2141 C 0.88242 0.54137 0.90525 0.0
C2142 C 0.88414 0.55144 0.9268 0.0
C2143 C 0.87502 0.56114 0.92353 0.0
H2144 H 0.89503 0.53472 0.92081 0.0
H2145 H 0.88836 0.55119 0.93641 0.0
S2146 S 0.85804 0.56475 0.89205 0.0
N2147 N 0.86701 0.55154 0.89035 0.0
N2148 N 0.86105 0.57008 0.90679 0.0
C2149 C 0.86971 0.56099 0.91101 0.0
C2150 C 0.87317 0.55104 0.90199 0.0
C2151 C 0.86997 0.47553 0.59775 0.0
C2152 C 0.87592 0.46312 0.59789 0.0
C2153 C 0.87384 0.48539 0.60636 0.0
C2154 C 0.88374 0.4832 0.6155 0.0
H2155 H 0.86225 0.47765 0.59091 0.0
H2156 H 0.86885 0.49468 0.60607 0.0
S2157 S 0.90258 0.45274 0.61991 0.0
N2158 N 0.89236 0.44941 0.60801 0.0
N2159 N 0.8996 0.46795 0.62409 0.0
C2160 C 0.88987 0.47097 0.61567 0.0
C2161 C 0.886 0.46095 0.60688 0.0
C2162 C 0.13813 0.06436 0.61118 0.0
C2163 C 0.14349 0.0612 0.59908 0.0
C2164 C 0.13379 0.05459 0.61972 0.0
C2165 C 0.13457 0.04128 0.61645 0.0
H2166 H 0.13733 0.07446 0.61408 0.0
H2167 H 0.12953 0.05754 0.62885 0.0
S2168 S 0.14835 0.02811 0.58584 0.0
N2169 N 0.14961 0.04404 0.58424 0.0
N2170 N 0.14173 0.02565 0.6002 0.0
C2171 C 0.14011 0.03808 0.60434 0.0
C2172 C 0.14451 0.04803 0.59571 0.0
C2173 C 0.64125 0.46064 0.41069 0.0
C2174 C 0.64229 0.46276 0.42405 0.0
C2175 C 0.63666 0.47046 0.40234 0.0
C2176 C 0.63332 0.48301 0.40693 0.0
H2177 H 0.64378 0.45123 0.40669 0.0
H2178 H 0.63551 0.46797 0.39224 0.0
S2179 S 0.63618 0.4936 0.44136 0.0
N2180 N 0.64037 0.47811 0.44161 0.0
N2181 N 0.63295 0.497 0.42608 0.0
C2182 C 0.63498 0.48528 0.42037 0.0
C2183 C 0.63921 0.47509 0.42886 0.0
C2184 C 0.59301 0.64458 0.97678 0.0
C2185 C 0.59766 0.64702 0.96424 0.0
C2186 C 0.60156 0.64142 0.98696 0.0
C2187 C 0.61518 0.64016 0.985 0.0
H2188 H 0.58264 0.64516 0.97875 0.0
H2189 H 0.59735 0.64002 0.99646 0.0
S2190 S 0.63198 0.64476 0.95339 0.0
N2191 N 0.6165 0.64781 0.95017 0.0
N2192 N 0.63258 0.64111 0.96894 0.0
C2193 C 0.61985 0.64244 0.97231 0.0
C2194 C 0.61111 0.64597 0.96204 0.0
C2195 C 0.42024 0.8829 0.98873 0.0
C2196 C 0.4066 0.88123 0.98683 0.0
C2197 C 0.42945 0.87964 0.97926 0.0
C2198 C 0.4257 0.87391 0.96757 0.0
H2199 H 0.42421 0.88646 0.99771 0.0
H2200 H 0.4397 0.88118 0.98134 0.0
S2201 S 0.39194 0.86716 0.95683 0.0
N2202 N 0.39021 0.87383 0.97123 0.0
N2203 N 0.40779 0.86654 0.95424 0.0
C2204 C 0.41237 0.87186 0.96539 0.0
C2205 C 0.40281 0.87572 0.97479 0.0
C2206 C 0.5974 0.37022 0.54591 0.0
C2207 C 0.59777 0.37709 0.55774 0.0
C2208 C 0.60586 0.37336 0.5356 0.0
C2209 C 0.6152 0.38331 0.53679 0.0
H2210 H 0.59027 0.36258 0.54448 0.0
H2211 H 0.60508 0.36797 0.52663 0.0
S2212 S 0.62039 0.40427 0.56542 0.0
N2213 N 0.60853 0.39434 0.56984 0.0
N2214 N 0.62424 0.40014 0.55047 0.0
C2215 C 0.61576 0.39018 0.54848 0.0
C2216 C 0.60712 0.38711 0.55893 0.0
C2217 C 0.4044 0.14626 0.54652 0.0
C2218 C 0.40846 0.14101 0.53445 0.0
C2219 C 0.41335 0.15005 0.55612 0.0
C2220 C 0.4268 0.14823 0.55447 0.0
H2221 H 0.39422 0.14735 0.54894 0.0
H2222 H 0.40967 0.15421 0.56503 0.0
S2223 S 0.44337 0.13574 0.52525 0.0
N2224 N 0.42774 0.13546 0.52154 0.0
N2225 N 0.44404 0.14123 0.5402 0.0
C2226 C 0.43115 0.14296 0.54278 0.0
C2227 C 0.42216 0.13966 0.53268 0.0
C2228 C 0.98232 0.60777 0.6491 0.0
C2229 C 0.98317 0.61244 0.63633 0.0
C2230 C 0.97261 0.59877 0.65275 0.0
C2231 C 0.96307 0.5944 0.64388 0.0
H2232 H 0.9893 0.61099 0.65629 0.0
H2233 H 0.97278 0.59511 0.66258 0.0
S2234 S 0.96023 0.60548 0.60961 0.0
N2235 N 0.97346 0.61278 0.61502 0.0
N2236 N 0.95456 0.59695 0.62192 0.0
C2237 C 0.9636 0.59959 0.63117 0.0
C2238 C 0.97377 0.60833 0.62741 0.0
C2239 C 0.05723 0.91237 0.64527 0.0
C2240 C 0.05444 0.92574 0.64564 0.0
C2241 C 0.04767 0.9033 0.64157 0.0
C2242 C 0.03477 0.90717 0.63851 0.0
H2243 H 0.06693 0.90894 0.64766 0.0
H2244 H 0.05056 0.8932 0.64092 0.0
S2245 S 0.02242 0.94122 0.63977 0.0
N2246 N 0.03805 0.94249 0.64333 0.0
N2247 N 0.01973 0.92557 0.63752 0.0
C2248 C 0.03186 0.92059 0.63942 0.0
C2249 C 0.04175 0.92981 0.64272 0.0
C2250 C 0.97618 0.42898 0.87265 0.0
C2251 C 0.9632 0.42802 0.87707 0.0
C2252 C 0.98585 0.42023 0.87696 0.0
C2253 C 0.98278 0.41019 0.88569 0.0
H2254 H 0.97892 0.43666 0.866 0.0
H2255 H 0.99571 0.42122 0.87333 0.0
S2256 S 0.95031 0.40319 0.89977 0.0
N2257 N 0.94787 0.41604 0.89048 0.0
N2258 N 0.96595 0.3996 0.89837 0.0
C2259 C 0.96986 0.40905 0.89003 0.0
C2260 C 0.9601 0.41797 0.88578 0.0
C2261 C 0.04286 0.09448 0.88129 0.0
C2262 C 0.05479 0.09817 0.87584 0.0
C2263 C 0.03341 0.10375 0.88462 0.0
C2264 C 0.0356 0.11732 0.88325 0.0
H2265 H 0.0406 0.08426 0.88259 0.0
H2266 H 0.02421 0.09995 0.888 0.0
S2267 S 0.06624 0.1318 0.87004 0.0
N2268 N 0.06862 0.11597 0.86908 0.0
N2269 N 0.05165 0.13361 0.87652 0.0
C2270 C 0.04785 0.12105 0.87804 0.0
C2271 C 0.05723 0.11147 0.87411 0.0
C2272 C 0.65203 0.97147 0.60758 0.0
C2273 C 0.64335 0.9671 0.59773 0.0
C2274 C 0.64855 0.98105 0.61664 0.0
C2275 C 0.63606 0.98655 0.6167 0.0
H2276 H 0.66172 0.96754 0.60866 0.0
H2277 H 0.65578 0.98423 0.62359 0.0
S2278 S 0.60855 0.97782 0.59515 0.0
N2279 N 0.62092 0.96916 0.58975 0.0
N2280 N 0.61436 0.98603 0.60753 0.0
C2281 C 0.62697 0.9819 0.60767 0.0
C2282 C 0.63057 0.97247 0.59811 0.0
C2283 C 0.64873 0.04292 0.9251 0.0
C2284 C 0.64414 0.05578 0.92413 0.0
C2285 C 0.64514 0.03344 0.91599 0.0
C2286 C 0.63706 0.03654 0.90539 0.0
H2287 H 0.65503 0.04014 0.93306 0.0
H2288 H 0.64877 0.02361 0.91721 0.0
S2289 S 0.62253 0.06884 0.89848 0.0
N2290 N 0.63108 0.07112 0.91185 0.0
N2291 N 0.62449 0.05338 0.89458 0.0
C2292 C 0.6325 0.0494 0.90428 0.0
C2293 C 0.63599 0.05899 0.91369 0.0
C2294 C 0.39287 0.48125 0.91899 0.0
C2295 C 0.38688 0.48196 0.9067 0.0
C2296 C 0.38824 0.47285 0.9287 0.0
C2297 C 0.37761 0.46447 0.92651 0.0
H2298 H 0.40137 0.48709 0.92118 0.0
H2299 H 0.39304 0.47301 0.93804 0.0
S2300 S 0.35832 0.46218 0.89615 0.0
N2301 N 0.36895 0.47388 0.89337 0.0
N2302 N 0.36159 0.45693 0.91086 0.0
C2303 C 0.37165 0.46485 0.91423 0.0
C2304 C 0.37595 0.47383 0.90455 0.0
C2305 C 0.87004 0.0548 0.10606 0.0
C2306 C 0.87792 0.05921 0.09564 0.0
C2307 C 0.87459 0.04597 0.11536 0.0
C2308 C 0.88751 0.04142 0.1153 0.0
H2309 H 0.8602 0.05824 0.10746 0.0
H2310 H 0.86785 0.04279 0.1228 0.0
S2311 S 0.91307 0.05054 0.09162 0.0
N2312 N 0.89986 0.05805 0.0864 0.0
N2313 N 0.90859 0.04274 0.10483 0.0
C2314 C 0.89576 0.04601 0.10545 0.0
C2315 C 0.89099 0.05463 0.09553 0.0
C2316 C 0.40595 0.39031 0.05344 0.0
C2317 C 0.40597 0.38515 0.04084 0.0
C2318 C 0.41484 0.38592 0.06283 0.0
C2319 C 0.42394 0.37607 0.05999 0.0
H2320 H 0.39911 0.39793 0.056 0.0
H2321 H 0.41447 0.39012 0.07243 0.0
S2322 S 0.42804 0.35953 0.02832 0.0
N2323 N 0.4159 0.36983 0.02595 0.0
N2324 N 0.43257 0.36151 0.04353 0.0
C2325 C 0.42405 0.37087 0.04738 0.0
C2326 C 0.4151 0.37543 0.03783 0.0
C2327 C 0.59276 0.13417 0.0495 0.0
C2328 C 0.59427 0.14583 0.05651 0.0
C2329 C 0.60215 0.12994 0.04062 0.0
C2330 C 0.61346 0.13725 0.03805 0.0
H2331 H 0.58416 0.12818 0.0508 0.0
H2332 H 0.6005 0.12074 0.03579 0.0
S2333 S 0.62215 0.16867 0.05346 0.0
N2334 N 0.60818 0.16459 0.06032 0.0
N2335 N 0.62549 0.157 0.04301 0.0
C2336 C 0.61509 0.14902 0.04483 0.0
C2337 C 0.60556 0.15326 0.0541 0.0
C2338 C 0.40266 0.64611 0.47483 0.0
C2339 C 0.40678 0.63677 0.484 0.0
C2340 C 0.41111 0.65076 0.46513 0.0
C2341 C 0.42407 0.64632 0.4642 0.0
H2342 H 0.39286 0.65002 0.47518 0.0
H2343 H 0.40743 0.65784 0.45826 0.0
S2344 S 0.44025 0.62266 0.48598 0.0
N2345 N 0.42507 0.62333 0.49123 0.0
N2346 N 0.44096 0.63291 0.47372 0.0
C2347 C 0.42846 0.63732 0.47343 0.0
C2348 C 0.41985 0.63236 0.48313 0.0
C2349 C 0.59863 0.89034 0.46856 0.0
C2350 C 0.59474 0.87712 0.46713 0.0
C2351 C 0.60779 0.89434 0.47778 0.0
C2352 C 0.61425 0.88536 0.48564 0.0
H2353 H 0.59487 0.898 0.46249 0.0
H2354 H 0.60997 0.90462 0.47864 0.0
S2355 S 0.60962 0.84974 0.48591 0.0
N2356 N 0.59913 0.85502 0.47499 0.0
N2357 N 0.61716 0.86279 0.49136 0.0
C2358 C 0.61127 0.87218 0.48416 0.0
C2359 C 0.60145 0.86801 0.47512 0.0
C2360 C 0.06258 0.41236 0.38496 0.0
C2361 C 0.05899 0.42392 0.37861 0.0
C2362 C 0.05306 0.40357 0.38947 0.0
C2363 C 0.03961 0.40608 0.38792 0.0
H2364 H 0.0728 0.41006 0.38636 0.0
H2365 H 0.0563 0.39485 0.39442 0.0
S2366 S 0.02534 0.43509 0.37171 0.0
N2367 N 0.04124 0.43745 0.37089 0.0
N2368 N 0.02338 0.42103 0.3792 0.0
C2369 C 0.03599 0.41766 0.3815 0.0
C2370 C 0.04567 0.42652 0.37688 0.0
C2371 C 0.96487 0.10554 0.37997 0.0
C2372 C 0.96877 0.09302 0.37618 0.0
C2373 C 0.97411 0.11504 0.38345 0.0
C2374 C 0.98768 0.11243 0.38338 0.0
H2375 H 0.95459 0.10799 0.38033 0.0
H2376 H 0.9705 0.12446 0.38648 0.0
S2377 S 1.00267 0.08079 0.37439 0.0
N2378 N 0.98684 0.07827 0.37284 0.0
N2379 N 1.00429 0.09608 0.37901 0.0
C2380 C 0.9916 0.09983 0.37963 0.0
C2381 C 0.98215 0.09017 0.37611 0.0
C2382 C 0.05312 0.61874 0.13357 0.0
C2383 C 0.03978 0.61707 0.13646 0.0
C2384 C 0.06258 0.60989 0.13808 0.0
C2385 C 0.05907 0.59918 0.1458 0.0
H2386 H 0.05626 0.62682 0.12759 0.0
H2387 H 0.07273 0.61152 0.13562 0.0
S2388 S 0.02561 0.59042 0.15625 0.0
N2389 N 0.02366 0.60384 0.14767 0.0
N2390 N 0.0414 0.58731 0.15607 0.0
C2391 C 0.04582 0.59743 0.14881 0.0
C2392 C 0.03619 0.60633 0.14415 0.0
C2393 C 0.98538 0.92048 0.13354 0.0
C2394 C 0.98749 0.90965 0.14164 0.0
C2395 C 0.97637 0.93025 0.13679 0.0
C2396 C 0.96887 0.92965 0.14824 0.0
H2397 H 0.99061 0.92136 0.12447 0.0
H2398 H 0.97536 0.93841 0.13022 0.0
S2399 S 0.97046 0.90329 0.1728 0.0
N2400 N 0.98146 0.89913 0.1619 0.0
N2401 N 0.96397 0.917 0.16752 0.0
C2402 C 0.9708 0.91884 0.1564 0.0
C2403 C 0.98017 0.90898 0.1532 0.0
C2404 C 0.39128 0.0522 0.40936 0.0
C2405 C 0.38392 0.04077 0.40775 0.0
C2406 C 0.38733 0.06198 0.41804 0.0
C2407 C 0.37574 0.06079 0.42529 0.0
H2408 H 0.40008 0.05366 0.40374 0.0
H2409 H 0.39324 0.07067 0.4188 0.0
S2410 S 0.35321 0.03249 0.42467 0.0
N2411 N 0.36467 0.0287 0.41409 0.0
N2412 N 0.35728 0.04685 0.43054 0.0
C2413 C 0.36841 0.04926 0.42383 0.0
C2414 C 0.37249 0.03932 0.41503 0.0
C2415 C 0.37386 0.97467 0.09651 0.0
C2416 C 0.37674 0.9615 0.09895 0.0
C2417 C 0.37766 0.98448 0.10518 0.0
C2418 C 0.38428 0.98144 0.11674 0.0
H2419 H 0.36856 0.9774 0.08784 0.0
H2420 H 0.37513 0.99447 0.10296 0.0
S2421 S 0.39438 0.94847 0.12744 0.0
N2422 N 0.38678 0.94596 0.11356 0.0
N2423 N 0.39397 0.96433 0.12986 0.0
C2424 C 0.38735 0.96831 0.11917 0.0
C2425 C 0.38359 0.95836 0.11029 0.0
C2426 C 0.63767 0.55209 0.12171 0.0
C2427 C 0.63349 0.53982 0.11699 0.0
C2428 C 0.64234 0.56192 0.11343 0.0
C2429 C 0.64257 0.5602 0.09998 0.0
H2430 H 0.63713 0.55443 0.13188 0.0
H2431 H 0.64552 0.57107 0.11756 0.0
S2432 S 0.63428 0.53024 0.08209 0.0
N2433 N 0.63171 0.52649 0.0974 0.0
N2434 N 0.63906 0.54554 0.08211 0.0
C2435 C 0.63866 0.54819 0.09499 0.0
C2436 C 0.63445 0.53792 0.10338 0.0
C2437 C 0.13359 0.9598 0.91417 0.0
C2438 C 0.14398 0.96229 0.92276 0.0
C2439 C 0.12917 0.96935 0.90542 0.0
C2440 C 0.13483 0.98181 0.90507 0.0
H2441 H 0.12895 0.95033 0.91409 0.0
H2442 H 0.12114 0.96703 0.89901 0.0
S2443 S 0.16196 0.99351 0.9257 0.0
N2444 N 0.15957 0.97836 0.93045 0.0
N2445 N 0.1512 0.99621 0.9141 0.0
C2446 C 0.14509 0.98449 0.91367 0.0
C2447 C 0.14969 0.97476 0.92246 0.0
C2448 C 0.99931 0.26311 0.41068 0.0
C2449 C 1.00794 0.27368 0.40892 0.0
C2450 C 1.00367 0.2501 0.41019 0.0
C2451 C 0.01888 0.24707 0.40792 0.0
H2452 H 0.98905 0.26486 0.4125 0.0
H2453 H 0.9967 0.24239 0.41195 0.0
S2454 S 0.04545 0.27089 0.40206 0.0
N2455 N 0.03244 0.27996 0.40468 0.0
N2456 N 0.04039 0.2557 0.40312 0.0
C2457 C 0.02753 0.25749 0.40577 0.0
C2458 C 0.02314 0.2707 0.4064 0.0
C2459 C 0.02279 0.76687 0.12392 0.0
C2460 C 0.01772 0.77663 0.11587 0.0
C2461 C 0.0182 0.75398 0.1232 0.0
C2462 C 1.00667 0.75006 0.11399 0.0
H2463 H 0.03036 0.76922 0.13085 0.0
H2464 H 0.02222 0.74717 0.1301 0.0
S2465 S 0.99098 0.77255 0.09018 0.0
N2466 N 1.0008 0.78199 0.09861 0.0
N2467 N 0.99296 0.7578 0.09616 0.0
C2468 C 1.00175 0.75998 0.10573 0.0
C2469 C 1.00611 0.77318 0.1069 0.0
C2470 C 0.41354 1.00301 0.25252 0.0
C2471 C 0.4096 0.01773 0.24909 0.0
C2472 C 0.41339 0.99882 0.26545 0.0
C2473 C 0.40947 1.00711 0.27567 0.0
H2474 H 0.41677 0.99627 0.24512 0.0
H2475 H 0.41624 0.98886 0.26733 0.0
S2476 S 0.39779 0.04325 0.27146 0.0
N2477 N 0.40115 0.03838 0.25662 0.0
N2478 N 0.40139 0.03088 0.28102 0.0
C2479 C 0.40542 0.02192 0.27225 0.0
C2480 C 0.40545 0.0261 0.25899 0.0
C2481 C 0.61304 0.499 0.25873 0.0
C2482 C 0.61164 0.50794 0.24847 0.0
C2483 C 0.61292 0.50309 0.27171 0.0
C2484 C 0.61139 0.51632 0.27503 0.0
H2485 H 0.61413 0.48872 0.25671 0.0
H2486 H 0.61365 0.49575 0.27919 0.0
S2487 S 0.60815 0.54371 0.25174 0.0
N2488 N 0.6089 0.53065 0.24253 0.0
N2489 N 0.60944 0.53842 0.26677 0.0
C2490 C 0.61044 0.52538 0.26482 0.0
C2491 C 0.6104 0.52119 0.25162 0.0
C2492 C 0.2665 0.3971 1.00844 0.0
C2493 C 0.27397 0.40858 1.00804 0.0
C2494 C 0.25341 0.39721 0.01438 0.0
C2495 C 0.24738 0.40891 0.0183 0.0
H2496 H 0.27079 0.38794 1.0055 0.0
H2497 H 0.24799 0.38817 0.01453 0.0
S2498 S 0.26292 0.44149 0.019 0.0
N2499 N 0.2746 0.43165 0.01404 0.0
N2500 N 0.24996 0.43224 0.02112 0.0
C2501 C 0.25484 0.42038 0.0179 0.0
C2502 C 0.26814 0.42012 0.01388 0.0
C2503 C 0.25364 0.62556 0.5088 0.0
C2504 C 0.24694 0.6138 0.5067 0.0
C2505 C 0.26674 0.62562 0.51292 0.0
C2506 C 0.27356 0.61393 0.51533 0.0
H2507 H 0.2488 0.63477 0.50701 0.0
H2508 H 0.27155 0.6349 0.51428 0.0
S2509 S 0.26027 0.58061 0.51145 0.0
N2510 N 0.24797 0.59024 0.50765 0.0
N2511 N 0.27254 0.59033 0.51506 0.0
C2512 C 0.26688 0.60216 0.51336 0.0
C2513 C 0.25361 0.60211 0.50914 0.0
C2514 C 0.75489 0.91683 0.52019 0.0
C2515 C 0.74618 0.90674 0.51673 0.0
C2516 C 0.76799 0.91669 0.51633 0.0
C2517 C 0.77296 0.90658 0.50871 0.0
H2518 H 0.75154 0.92515 0.52566 0.0
H2519 H 0.77426 0.92469 0.51915 0.0
S2520 S 0.75496 0.87769 0.4971 0.0
N2521 N 0.74406 0.88596 0.50551 0.0
N2522 N 0.7686 0.88621 0.49784 0.0
C2523 C 0.76461 0.89641 0.5052 0.0
C2524 C 0.75126 0.89639 0.50925 0.0
C2525 C 0.99802 0.76244 0.61763 0.0
C2526 C 1.00599 0.77305 0.61426 0.0
C2527 C 1.00262 0.74957 0.61689 0.0
C2528 C 0.01752 0.74664 0.61296 0.0
H2529 H 0.98807 0.76407 0.62076 0.0
H2530 H 0.99576 0.7419 0.61912 0.0
S2531 S 0.04245 0.77141 0.60356 0.0
N2532 N 0.02919 0.77996 0.60652 0.0
N2533 N 0.03845 0.75618 0.6066 0.0
C2534 C 0.02571 0.75739 0.60999 0.0
C2535 C 0.02081 0.77043 0.6103 0.0
C2536 C 0.99837 0.26065 0.90369 0.0
C2537 C 1.00597 0.25008 0.90784 0.0
C2538 C 1.00301 0.2735 0.90448 0.0
C2539 C 0.01765 0.2765 0.90926 0.0
H2540 H 0.98866 0.25899 0.89989 0.0
H2541 H 0.99631 0.28106 0.90157 0.0
S2542 S 0.04152 0.25154 0.92105 0.0
N2543 N 0.02842 0.24311 0.91725 0.0
N2544 N 0.03793 0.26672 0.91739 0.0
C2545 C 0.02547 0.26568 0.91306 0.0
C2546 C 0.02047 0.25267 0.91267 0.0
C2547 C 0.60299 1.00404 0.76584 0.0
C2548 C 0.61366 1.00644 0.77415 0.0
C2549 C 0.60293 1.00845 0.75296 0.0
C2550 C 0.61351 0.01756 0.74789 0.0
H2551 H 0.59448 0.99888 0.76935 0.0
H2552 H 0.59452 1.00644 0.74694 0.0
S2553 S 0.64396 0.02616 0.76507 0.0
N2554 N 0.63532 0.01809 0.77593 0.0
N2555 N 0.63493 0.02661 0.75183 0.0
C2556 C 0.62423 0.01999 0.75593 0.0
C2557 C 0.62436 0.01547 0.76903 0.0
C2558 C 0.41046 0.50311 0.77048 0.0
C2559 C 0.41131 0.51633 0.77395 0.0
C2560 C 0.41029 0.49919 0.75743 0.0
C2561 C 0.41117 0.50826 0.74717 0.0
H2562 H 0.41034 0.49564 0.77787 0.0
H2563 H 0.40967 0.48888 0.75541 0.0
S2564 S 0.41234 0.54416 0.75091 0.0
N2565 N 0.41151 0.53859 0.76586 0.0
N2566 N 0.41245 0.53119 0.74155 0.0
C2567 C 0.41161 0.52152 0.7505 0.0
C2568 C 0.41142 0.52554 0.76378 0.0
C2569 C 0.75427 0.62694 0.02042 0.0
C2570 C 0.74577 0.61648 0.01818 0.0
C2571 C 0.7672 0.62672 0.0158 0.0
C2572 C 0.77204 0.61616 1.00676 0.0
H2573 H 0.7509 0.63534 0.02578 0.0
H2574 H 0.77332 0.6351 0.01763 0.0
S2575 S 0.75354 0.58607 0.99898 0.0
N2576 N 0.74294 0.59524 1.00681 0.0
N2577 N 0.76721 0.59454 0.99841 0.0
C2578 C 0.76354 0.60557 1.00465 0.0
C2579 C 0.75041 0.60587 1.00931 0.0
C2580 C 0.74951 0.41231 0.51659 0.0
C2581 C 0.74588 0.40587 0.50522 0.0
C2582 C 0.76253 0.41248 0.52082 0.0
C2583 C 0.77266 0.40571 0.51425 0.0
H2584 H 0.74227 0.41763 0.52209 0.0
H2585 H 0.76439 0.41837 0.52924 0.0
S2586 S 0.76737 0.3864 0.48402 0.0
N2587 N 0.7529 0.39253 0.48732 0.0
N2588 N 0.77705 0.39154 0.49567 0.0
C2589 C 0.76881 0.39887 0.50289 0.0
C2590 C 0.75557 0.39924 0.49834 0.0
C2591 C 0.25015 0.11993 0.5049 0.0
C2592 C 0.24731 0.11766 0.51812 0.0
C2593 C 0.26302 0.12015 0.50021 0.0
C2594 C 0.27377 0.11786 0.5084 0.0
H2595 H 0.24239 0.12132 0.49794 0.0
H2596 H 0.26453 0.12211 0.49001 0.0
S2597 S 0.27214 0.11116 0.54365 0.0
N2598 N 0.25683 0.11359 0.53938 0.0
N2599 N 0.28072 0.11267 0.53025 0.0
C2600 C 0.27116 0.11541 0.52154 0.0
C2601 C 0.25807 0.11559 0.52644 0.0
C2602 C 0.50863 0.75073 0.89984 0.0
C2603 C 0.5182 0.74642 0.9088 0.0
C2604 C 0.50383 0.7636 0.8999 0.0
C2605 C 0.50862 0.77284 0.90869 0.0
H2606 H 0.50485 0.74424 0.89253 0.0
H2607 H 0.49642 0.76637 0.89295 0.0
S2608 S 0.53298 0.76738 0.93447 0.0
N2609 N 0.53133 0.75305 0.9275 0.0
N2610 N 0.52317 0.77724 0.92648 0.0
C2611 C 0.51811 0.76893 0.91757 0.0
C2612 C 0.5227 0.75578 0.9179 0.0
C2613 C 0.52157 0.26837 0.60497 0.0
C2614 C 0.5171 0.27739 0.61438 0.0
C2615 C 0.51738 0.25538 0.60477 0.0
C2616 C 0.50819 0.25076 0.61367 0.0
H2617 H 0.5282 0.2713 0.59737 0.0
H2618 H 0.5212 0.24893 0.59739 0.0
S2619 S 0.49279 0.26956 0.64006 0.0
N2620 N 0.50279 0.28004 0.6331 0.0
N2621 N 0.49438 0.25584 0.63194 0.0
C2622 C 0.50337 0.25943 0.62296 0.0
C2623 C 0.50788 0.27266 0.62346 0.0
C2624 C 0.89946 0.50313 0.76575 0.0
C2625 C 0.90837 0.50778 0.77497 0.0
C2626 C 0.89983 0.50749 0.75282 0.0
C2627 C 0.90936 0.51644 0.74842 0.0
H2628 H 0.89211 0.49612 0.76859 0.0
H2629 H 0.8924 0.50388 0.74632 0.0
S2630 S 0.93573 0.53044 0.76912 0.0
N2631 N 0.92711 0.52135 0.77913 0.0
N2632 N 0.92872 0.52881 0.75484 0.0
C2633 C 0.91861 0.52077 0.75771 0.0
C2634 C 0.91791 0.51659 0.77092 0.0
C2635 C 0.10133 1.00918 0.76869 0.0
C2636 C 0.11242 0.01683 0.77438 0.0
C2637 C 0.10131 1.00529 0.75568 0.0
C2638 C 0.11242 1.00679 0.74775 0.0
H2639 H 0.09252 1.00788 0.77435 0.0
H2640 H 0.09236 1.00132 0.75176 0.0
S2641 S 0.14411 0.02294 0.75828 0.0
N2642 N 0.13483 0.02369 0.77133 0.0
N2643 N 0.13501 0.01626 0.7469 0.0
C2644 C 0.12366 0.01442 0.75343 0.0
C2645 C 0.12363 0.01836 0.76673 0.0
C2646 C 0.75542 0.10742 1.00046 0.0
C2647 C 0.74594 0.11602 1.00569 0.0
C2648 C 0.7685 0.10757 1.00444 0.0
C2649 C 0.77283 0.1158 0.01618 0.0
H2650 H 0.7529 0.1001 0.99342 0.0
H2651 H 0.77532 0.10089 0.99996 0.0
S2652 S 0.75323 0.14078 0.03298 0.0
N2653 N 0.7429 0.13394 0.02281 0.0
N2654 N 0.76723 0.13314 0.0309 0.0
C2655 C 0.76383 0.12446 0.02158 0.0
C2656 C 0.75052 0.12472 0.01724 0.0
C2657 C 0.51391 0.26907 0.10516 0.0
C2658 C 0.50678 0.27373 0.11576 0.0
C2659 C 0.51805 0.25607 0.10463 0.0
C2660 C 0.51528 0.24718 0.11473 0.0
H2661 H 0.51616 0.27549 0.09714 0.0
H2662 H 0.52324 0.25293 0.09606 0.0
S2663 S 0.49737 0.25513 0.14496 0.0
N2664 N 0.4973 0.26888 0.13666 0.0
N2665 N 0.50536 0.24449 0.13599 0.0
C2666 C 0.5083 0.25191 0.1255 0.0
C2667 C 0.50402 0.26517 0.12595 0.0
C2668 C 0.52234 0.76644 0.40327 0.0
C2669 C 0.51531 0.77647 0.40919 0.0
C2670 C 0.51761 0.75362 0.40313 0.0
C2671 C 0.50577 0.74994 0.40938 0.0
H2672 H 0.53153 0.76856 0.39853 0.0
H2673 H 0.52353 0.7468 0.39786 0.0
S2674 S 0.48459 0.77334 0.42759 0.0
N2675 N 0.49646 0.7824 0.42178 0.0
N2676 N 0.48787 0.75847 0.42269 0.0
C2677 C 0.49895 0.76019 0.41574 0.0
C2678 C 0.50363 0.77332 0.41538 0.0
C2679 C 0.12455 0.51841 0.25716 0.0
C2680 C 0.1141 0.51601 0.24872 0.0
C2681 C 0.12435 0.51375 0.26996 0.0
C2682 C 0.11367 0.50655 0.27479 0.0
H2683 H 0.13292 0.52391 0.25384 0.0
H2684 H 0.13273 0.51567 0.27605 0.0
S2685 S 0.08361 0.49838 0.25636 0.0
N2686 N 0.09276 0.50636 0.24588 0.0
N2687 N 0.09207 0.4979 0.26996 0.0
C2688 C 0.10309 0.50429 0.26634 0.0
C2689 C 0.10337 0.50897 0.25332 0.0
C2690 C 0.90457 1.00443 0.27071 0.0
C2691 C 0.91148 0.01788 0.27452 0.0
C2692 C 0.90418 1.00014 0.25777 0.0
C2693 C 0.91017 1.00723 0.24779 0.0
H2694 H 0.89928 0.99861 0.27763 0.0
H2695 H 0.89906 0.9912 0.25553 0.0
S2696 S 0.92976 0.03926 0.2513 0.0
N2697 N 0.92528 0.03556 0.26615 0.0
N2698 N 0.92318 0.02799 0.2421 0.0
C2699 C 0.9168 0.02071 0.25109 0.0
C2700 C 0.91777 0.02486 0.2643 0.0
C2701 C 0.26314 0.90725 0.02368 0.0
C2702 C 0.27381 0.90474 0.0154 0.0
C2703 C 0.25023 0.9074 0.01911 0.0
C2704 C 0.24719 0.9049 1.00411 0.0
H2705 H 0.26465 0.90905 0.03389 0.0
H2706 H 0.24252 0.90972 0.0259 0.0
S2707 S 0.27116 0.89718 0.97832 0.0
N2708 N 0.28017 0.89989 0.99126 0.0
N2709 N 0.25592 0.89898 0.98308 0.0
C2710 C 0.25764 0.90205 0.99576 0.0
C2711 C 0.27086 0.90226 1.00031 0.0
loop_
_geom_bond_atom_site_label_1
_geom_bond_atom_site_label_2
_geom_bond_distance
_geom_bond_site_symmetry_2
_ccdc_geom_bond_type
C0 C1 1.264 . S
C0 C5 1.479 1_455 S
C0 C10 1.465 . S
C1 C0 1.264 . S
C1 C3 1.339 . S
C1 H28 0.931 . S
C2 C3 1.395 1_655 S
C2 C4 1.320 . S
C3 C1 1.339 . S
C3 C2 1.395 1_455 S
C3 H29 0.929 . S
C4 C2 1.320 . S
C4 C5 1.405 . S
C4 H30 0.930 . S
C5 C0 1.479 1_655 S
C5 C4 1.405 . S
C5 H31 0.931 . S
U6 O7 2.454 . S
U6 O8 2.458 . S
U6 C9 2.984 . S
U6 C10 2.847 . S
U6 C23 2.882 . S
U6 O24 2.441 . S
U6 O25 2.420 . S
U6 O26 2.455 . S
U6 O27 2.449 . S
O7 U6 2.454 . S
O7 C9 1.353 . S
O8 U6 2.458 . S
O8 C9 1.286 . S
C9 U6 2.984 . S
C9 O7 1.353 . S
C9 O8 1.286 . S
C9 C11 1.363 . S
C10 C0 1.465 . S
C10 U6 2.847 . S
C10 O24 1.249 . S
C10 O25 1.202 . S
C11 C9 1.363 . S
C11 C13 1.408 . S
C11 C16 1.342 . S
C12 C13 1.310 . S
C12 C15 1.461 . S
C12 H32 0.907 1_455 S
C13 C11 1.408 . S
C13 C12 1.310 . S
C13 H33 0.930 . S
C14 C15 1.474 . S
C14 C16 1.285 . S
C14 H34 0.929 . S
C15 C12 1.461 . S
C15 C14 1.474 . S
C16 C11 1.342 . S
C16 C14 1.285 . S
C16 H35 0.930 . S
C17 C20 1.424 . S
C17 C22 1.245 . S
C17 C23 1.428 . S
C18 C21 1.260 . S
C18 C22 1.477 . S
C18 H36 0.932 . S
C19 C20 1.384 . S
C19 C21 1.479 . S
C19 H37 0.929 . S
C20 C17 1.424 . S
C20 C19 1.384 . S
C20 H38 0.928 . S
C21 C18 1.260 . S
C21 C19 1.479 . S
C22 C17 1.245 . S
C22 C18 1.477 . S
C22 H39 0.932 . S
C23 U6 2.882 . S
C23 C17 1.428 . S
C23 O26 1.301 . S
C23 O27 1.282 . S
O24 U6 2.441 . S
O24 C10 1.249 . S
O25 U6 2.420 . S
O25 C10 1.202 . S
O26 U6 2.455 . S
O26 C23 1.301 . S
O27 U6 2.449 . S
O27 C23 1.282 . S
H28 C1 0.931 . S
H29 C3 0.929 . S
H30 C4 0.930 . S
H31 C5 0.931 . S
H32 C12 0.907 1_655 S
H33 C13 0.930 . S
H34 C14 0.929 . S
H35 C16 0.930 . S
H36 C18 0.932 . S
H37 C19 0.929 . S
H38 C20 0.928 . S
H39 C22 0.932 . S
C40 C41 1.264 . S
C40 C45 1.479 . S
C40 C50 1.465 . S
C41 C40 1.264 . S
C41 C43 1.339 . S
C41 H68 0.931 . S
C42 C43 1.395 . S
C42 C44 1.320 . S
C43 C41 1.339 . S
C43 C42 1.395 . S
C43 H69 0.929 . S
C44 C42 1.320 . S
C44 C45 1.405 . S
C44 H70 0.930 . S
C45 C40 1.479 . S
C45 C44 1.405 . S
C45 H71 0.931 . S
U46 O47 2.454 . S
U46 O48 2.458 . S
U46 C49 2.984 . S
U46 C50 2.847 . S
U46 C63 2.882 . S
U46 O64 2.441 . S
U46 O65 2.420 . S
U46 O66 2.455 . S
U46 O67 2.449 . S
O47 U46 2.454 . S
O47 C49 1.353 . S
O48 U46 2.458 . S
O48 C49 1.286 . S
C49 U46 2.984 . S
C49 O47 1.353 . S
C49 O48 1.286 . S
C49 C51 1.363 . S
C50 C40 1.465 . S
C50 U46 2.847 . S
C50 O64 1.249 . S
C50 O65 1.202 . S
C51 C49 1.363 . S
C51 C53 1.408 . S
C51 C56 1.342 . S
C52 C53 1.310 . S
C52 C55 1.461 . S
C52 H72 0.932 . S
C53 C51 1.408 . S
C53 C52 1.310 . S
C53 H73 0.930 . S
C54 C55 1.474 . S
C54 C56 1.285 . S
C54 H74 0.929 1_655 S
C55 C52 1.461 . S
C55 C54 1.474 . S
C56 C51 1.342 . S
C56 C54 1.285 . S
C56 H75 0.930 . S
C57 C60 1.393 1_455 S
C57 C62 1.312 . S
C57 C63 1.383 1_455 S
C58 C61 1.260 . S
C58 C62 1.477 . S
C58 H76 0.932 . S
C59 C60 1.384 1_455 S
C59 C61 1.479 . S
C59 H77 0.936 . S
C60 C57 1.393 1_655 S
C60 C59 1.384 1_655 S
C60 H78 0.928 . S
C61 C58 1.260 . S
C61 C59 1.479 . S
C62 C57 1.312 . S
C62 C58 1.477 . S
C62 H79 0.932 . S
C63 U46 2.882 . S
C63 C57 1.383 1_655 S
C63 O66 1.301 . S
C63 O67 1.282 . S
O64 U46 2.441 . S
O64 C50 1.249 . S
O65 U46 2.420 . S
O65 C50 1.202 . S
O66 U46 2.455 . S
O66 C63 1.301 . S
O67 U46 2.449 . S
O67 C63 1.282 . S
H68 C41 0.931 . S
H69 C43 0.929 . S
H70 C44 0.930 . S
H71 C45 0.931 . S
H72 C52 0.932 . S
H73 C53 0.930 . S
H74 C54 0.929 1_455 S
H75 C56 0.930 . S
H76 C58 0.932 . S
H77 C59 0.936 . S
H78 C60 0.928 . S
H79 C62 0.932 . S
C80 C81 1.264 . S
C80 C85 1.479 1_455 S
C80 C90 1.465 . S
C81 C80 1.264 . S
C81 C83 1.339 . S
C81 H108 0.931 . S
C82 C83 1.395 1_655 S
C82 C84 1.320 . S
C83 C81 1.339 . S
C83 C82 1.395 1_455 S
C83 H109 0.929 . S
C84 C82 1.320 . S
C84 C85 1.405 . S
C84 H110 0.930 . S
C85 C80 1.479 1_655 S
C85 C84 1.405 . S
C85 H111 0.931 . S
U86 O87 2.454 . S
U86 O88 2.458 . S
U86 C89 2.984 . S
U86 C90 2.847 . S
U86 C103 2.882 . S
U86 O104 2.441 . S
U86 O105 2.420 . S
U86 O106 2.455 . S
U86 O107 2.449 . S
O87 U86 2.454 . S
O87 C89 1.353 . S
O88 U86 2.458 . S
O88 C89 1.286 . S
C89 U86 2.984 . S
C89 O87 1.353 . S
C89 O88 1.286 . S
C89 C91 1.363 . S
C90 C80 1.465 . S
C90 U86 2.847 . S
C90 O104 1.249 . S
C90 O105 1.202 . S
C91 C89 1.363 . S
C91 C93 1.408 . S
C91 C96 1.342 . S
C92 C93 1.310 . S
C92 C95 1.461 . S
C92 H112 0.907 1_455 S
C93 C91 1.408 . S
C93 C92 1.310 . S
C93 H113 0.930 . S
C94 C95 1.474 . S
C94 C96 1.285 . S
C94 H114 0.929 . S
C95 C92 1.461 . S
C95 C94 1.474 . S
C96 C91 1.342 . S
C96 C94 1.285 . S
C96 H115 0.930 . S
C97 C100 1.424 . S
C97 C102 1.245 . S
C97 C103 1.428 . S
C98 C101 1.260 . S
C98 C102 1.477 . S
C98 H116 0.932 . S
C99 C100 1.384 . S
C99 C101 1.479 . S
C99 H117 0.929 . S
C100 C97 1.424 . S
C100 C99 1.384 . S
C100 H118 0.928 . S
C101 C98 1.260 . S
C101 C99 1.479 . S
C102 C97 1.245 . S
C102 C98 1.477 . S
C102 H119 0.932 . S
C103 U86 2.882 . S
C103 C97 1.428 . S
C103 O106 1.301 . S
C103 O107 1.282 . S
O104 U86 2.441 . S
O104 C90 1.249 . S
O105 U86 2.420 . S
O105 C90 1.202 . S
O106 U86 2.455 . S
O106 C103 1.301 . S
O107 U86 2.449 . S
O107 C103 1.282 . S
H108 C81 0.931 . S
H109 C83 0.929 . S
H110 C84 0.930 . S
H111 C85 0.931 . S
H112 C92 0.907 1_655 S
H113 C93 0.930 . S
H114 C94 0.929 . S
H115 C96 0.930 . S
H116 C98 0.932 . S
H117 C99 0.929 . S
H118 C100 0.928 . S
H119 C102 0.932 . S
C120 C121 1.264 . S
C120 C125 1.479 . S
C120 C130 1.465 . S
C121 C120 1.264 . S
C121 C123 1.339 . S
C121 H148 0.931 . S
C122 C123 1.395 . S
C122 C124 1.320 . S
C123 C121 1.339 . S
C123 C122 1.395 . S
C123 H149 0.929 . S
C124 C122 1.320 . S
C124 C125 1.405 . S
C124 H150 0.930 . S
C125 C120 1.479 . S
C125 C124 1.405 . S
C125 H151 0.931 . S
U126 O127 2.454 . S
U126 O128 2.458 . S
U126 C129 2.984 . S
U126 C130 2.847 . S
U126 C143 2.882 . S
U126 O144 2.441 . S
U126 O145 2.420 . S
U126 O146 2.455 . S
U126 O147 2.449 . S
O127 U126 2.454 . S
O127 C129 1.353 . S
O128 U126 2.458 . S
O128 C129 1.286 . S
C129 U126 2.984 . S
C129 O127 1.353 . S
C129 O128 1.286 . S
C129 C131 1.363 . S
C130 C120 1.465 . S
C130 U126 2.847 . S
C130 O144 1.249 . S
C130 O145 1.202 . S
C131 C129 1.363 . S
C131 C133 1.408 . S
C131 C136 1.342 . S
C132 C133 1.310 . S
C132 C135 1.461 . S
C132 H152 0.932 . S
C133 C131 1.408 . S
C133 C132 1.310 . S
C133 H153 0.930 . S
C134 C135 1.474 . S
C134 C136 1.285 . S
C134 H154 0.929 1_655 S
C135 C132 1.461 . S
C135 C134 1.474 . S
C136 C131 1.342 . S
C136 C134 1.285 . S
C136 H155 0.930 . S
C137 C140 1.393 1_455 S
C137 C142 1.312 . S
C137 C143 1.383 1_455 S
C138 C141 1.260 . S
C138 C142 1.477 . S
C138 H156 0.932 . S
C139 C140 1.384 1_455 S
C139 C141 1.479 . S
C139 H157 0.936 . S
C140 C137 1.393 1_655 S
C140 C139 1.384 1_655 S
C140 H158 0.928 . S
C141 C138 1.260 . S
C141 C139 1.479 . S
C142 C137 1.312 . S
C142 C138 1.477 . S
C142 H159 0.932 . S
C143 U126 2.882 . S
C143 C137 1.383 1_655 S
C143 O146 1.301 . S
C143 O147 1.282 . S
O144 U126 2.441 . S
O144 C130 1.249 . S
O145 U126 2.420 . S
O145 C130 1.202 . S
O146 U126 2.455 . S
O146 C143 1.301 . S
O147 U126 2.449 . S
O147 C143 1.282 . S
H148 C121 0.931 . S
H149 C123 0.929 . S
H150 C124 0.930 . S
H151 C125 0.931 . S
H152 C132 0.932 . S
H153 C133 0.930 . S
H154 C134 0.929 1_455 S
H155 C136 0.930 . S
H156 C138 0.932 . S
H157 C139 0.936 . S
H158 C140 0.928 . S
H159 C142 0.932 . S
C160 C161 1.264 . S
C160 C165 1.479 1_545 S
C160 C170 1.465 . S
C161 C160 1.264 . S
C161 C163 1.339 1_545 S
C161 H188 0.931 . S
C162 C163 1.395 . S
C162 C164 1.320 . S
C163 C161 1.339 1_565 S
C163 C162 1.395 . S
C163 H189 0.932 . S
C164 C162 1.320 . S
C164 C165 1.405 . S
C164 H190 0.930 . S
C165 C160 1.479 1_565 S
C165 C164 1.405 . S
C165 H191 0.931 . S
U166 O167 2.454 . S
U166 O168 2.458 . S
U166 C169 2.984 . S
U166 C170 2.847 . S
U166 C183 2.882 . S
U166 O184 2.441 . S
U166 O185 2.420 . S
U166 O186 2.455 . S
U166 O187 2.449 . S
O167 U166 2.454 . S
O167 C169 1.353 . S
O168 U166 2.458 . S
O168 C169 1.286 . S
C169 U166 2.984 . S
C169 O167 1.353 . S
C169 O168 1.286 . S
C169 C171 1.363 . S
C170 C160 1.465 . S
C170 U166 2.847 . S
C170 O184 1.249 . S
C170 O185 1.202 . S
C171 C169 1.363 . S
C171 C173 1.408 . S
C171 C176 1.342 . S
C172 C173 1.310 . S
C172 C175 1.461 . S
C172 H192 0.932 1_545 S
C173 C171 1.408 . S
C173 C172 1.310 . S
C173 H193 0.930 . S
C174 C175 1.474 . S
C174 C176 1.285 . S
C174 H194 0.929 . S
C175 C172 1.461 . S
C175 C174 1.474 . S
C176 C171 1.342 . S
C176 C174 1.285 . S
C176 H195 0.930 . S
C177 C180 1.424 . S
C177 C182 1.245 . S
C177 C183 1.428 . S
C178 C181 1.260 . S
C178 C182 1.477 . S
C178 H196 0.932 . S
C179 C180 1.384 . S
C179 C181 1.479 . S
C179 H197 0.929 . S
C180 C177 1.424 . S
C180 C179 1.384 . S
C180 H198 0.928 . S
C181 C178 1.260 . S
C181 C179 1.479 . S
C182 C177 1.245 . S
C182 C178 1.477 . S
C182 H199 0.932 . S
C183 U166 2.882 . S
C183 C177 1.428 . S
C183 O186 1.301 . S
C183 O187 1.282 . S
O184 U166 2.441 . S
O184 C170 1.249 . S
O185 U166 2.420 . S
O185 C170 1.202 . S
O186 U166 2.455 . S
O186 C183 1.301 . S
O187 U166 2.449 . S
O187 C183 1.282 . S
H188 C161 0.931 . S
H189 C163 0.932 . S
H190 C164 0.930 . S
H191 C165 0.931 . S
H192 C172 0.932 1_565 S
H193 C173 0.930 . S
H194 C174 0.929 . S
H195 C176 0.930 . S
H196 C178 0.932 . S
H197 C179 0.929 . S
H198 C180 0.928 . S
H199 C182 0.932 . S
C200 C201 1.264 . S
C200 C205 1.479 . S
C200 C210 1.465 . S
C201 C200 1.264 . S
C201 C203 1.339 . S
C201 H228 0.931 . S
C202 C203 1.395 . S
C202 C204 1.320 . S
C203 C201 1.339 . S
C203 C202 1.395 . S
C203 H229 0.929 . S
C204 C202 1.320 . S
C204 C205 1.405 . S
C204 H230 0.930 . S
C205 C200 1.479 . S
C205 C204 1.405 . S
C205 H231 0.931 . S
U206 O207 2.454 . S
U206 O208 2.458 . S
U206 C209 2.984 . S
U206 C210 2.847 . S
U206 C223 2.882 . S
U206 O224 2.441 . S
U206 O225 2.420 . S
U206 O226 2.455 . S
U206 O227 2.449 . S
O207 U206 2.454 . S
O207 C209 1.353 . S
O208 U206 2.458 . S
O208 C209 1.286 . S
C209 U206 2.984 . S
C209 O207 1.353 . S
C209 O208 1.286 . S
C209 C211 1.363 . S
C210 C200 1.465 . S
C210 U206 2.847 . S
C210 O224 1.249 . S
C210 O225 1.202 . S
C211 C209 1.363 . S
C211 C213 1.408 . S
C211 C216 1.342 . S
C212 C213 1.310 . S
C212 C215 1.461 . S
C212 H232 0.932 . S
C213 C211 1.408 . S
C213 C212 1.310 . S
C213 H233 0.930 . S
C214 C215 1.474 . S
C214 C216 1.285 . S
C214 H234 0.929 . S
C215 C212 1.461 . S
C215 C214 1.474 . S
C216 C211 1.342 . S
C216 C214 1.285 . S
C216 H235 0.930 . S
C217 C220 1.424 . S
C217 C222 1.245 . S
C217 C223 1.428 . S
C218 C221 1.260 . S
C218 C222 1.477 . S
C218 H236 0.932 . S
C219 C220 1.384 . S
C219 C221 1.479 . S
C219 H237 0.929 . S
C220 C217 1.424 . S
C220 C219 1.384 . S
C220 H238 0.928 . S
C221 C218 1.260 . S
C221 C219 1.479 . S
C222 C217 1.245 . S
C222 C218 1.477 . S
C222 H239 0.932 . S
C223 U206 2.882 . S
C223 C217 1.428 . S
C223 O226 1.301 . S
C223 O227 1.282 . S
O224 U206 2.441 . S
O224 C210 1.249 . S
O225 U206 2.420 . S
O225 C210 1.202 . S
O226 U206 2.455 . S
O226 C223 1.301 . S
O227 U206 2.449 . S
O227 C223 1.282 . S
H228 C201 0.931 . S
H229 C203 0.929 . S
H230 C204 0.930 . S
H231 C205 0.931 . S
H232 C212 0.932 . S
H233 C213 0.930 . S
H234 C214 0.929 . S
H235 C216 0.930 . S
H236 C218 0.932 . S
H237 C219 0.929 . S
H238 C220 0.928 . S
H239 C222 0.932 . S
C240 C241 1.264 . S
C240 C245 1.479 1_565 S
C240 C250 1.465 . S
C241 C240 1.264 . S
C241 C243 1.339 1_565 S
C241 H268 0.931 . S
C242 C243 1.395 . S
C242 C244 1.320 . S
C243 C241 1.339 1_545 S
C243 C242 1.395 . S
C243 H269 0.932 . S
C244 C242 1.320 . S
C244 C245 1.405 . S
C244 H270 0.930 . S
C245 C240 1.479 1_545 S
C245 C244 1.405 . S
C245 H271 0.931 . S
U246 O247 2.454 . S
U246 O248 2.458 . S
U246 C249 2.984 . S
U246 C250 2.847 . S
U246 C263 2.882 . S
U246 O264 2.441 . S
U246 O265 2.420 . S
U246 O266 2.455 . S
U246 O267 2.449 . S
O247 U246 2.454 . S
O247 C249 1.353 . S
O248 U246 2.458 . S
O248 C249 1.286 . S
C249 U246 2.984 . S
C249 O247 1.353 . S
C249 O248 1.286 . S
C249 C251 1.363 . S
C250 C240 1.465 . S
C250 U246 2.847 . S
C250 O264 1.249 . S
C250 O265 1.202 . S
C251 C249 1.363 . S
C251 C253 1.408 . S
C251 C256 1.342 . S
C252 C253 1.310 . S
C252 C255 1.461 . S
C252 H272 0.932 1_565 S
C253 C251 1.408 . S
C253 C252 1.310 . S
C253 H273 0.930 . S
C254 C255 1.474 . S
C254 C256 1.285 . S
C254 H274 0.929 . S
C255 C252 1.461 . S
C255 C254 1.474 . S
C256 C251 1.342 . S
C256 C254 1.285 . S
C256 H275 0.930 . S
C257 C260 1.424 . S
C257 C262 1.245 . S
C257 C263 1.428 . S
C258 C261 1.260 . S
C258 C262 1.477 . S
C258 H276 0.932 . S
C259 C260 1.384 . S
C259 C261 1.479 . S
C259 H277 0.929 . S
C260 C257 1.424 . S
C260 C259 1.384 . S
C260 H278 0.928 . S
C261 C258 1.260 . S
C261 C259 1.479 . S
C262 C257 1.245 . S
C262 C258 1.477 . S
C262 H279 0.932 . S
C263 U246 2.882 . S
C263 C257 1.428 . S
C263 O266 1.301 . S
C263 O267 1.282 . S
O264 U246 2.441 . S
O264 C250 1.249 . S
O265 U246 2.420 . S
O265 C250 1.202 . S
O266 U246 2.455 . S
O266 C263 1.301 . S
O267 U246 2.449 . S
O267 C263 1.282 . S
H268 C241 0.931 . S
H269 C243 0.932 . S
H270 C244 0.930 . S
H271 C245 0.931 . S
H272 C252 0.932 1_545 S
H273 C253 0.930 . S
H274 C254 0.929 . S
H275 C256 0.930 . S
H276 C258 0.932 . S
H277 C259 0.929 . S
H278 C260 0.928 . S
H279 C262 0.932 . S
C280 C281 1.264 . S
C280 C285 1.479 . S
C280 C290 1.465 . S
C281 C280 1.264 . S
C281 C283 1.339 . S
C281 H308 0.931 . S
C282 C283 1.395 . S
C282 C284 1.320 . S
C283 C281 1.339 . S
C283 C282 1.395 . S
C283 H309 0.929 . S
C284 C282 1.320 . S
C284 C285 1.405 . S
C284 H310 0.930 . S
C285 C280 1.479 . S
C285 C284 1.405 . S
C285 H311 0.931 . S
U286 O287 2.454 . S
U286 O288 2.458 . S
U286 C289 2.984 . S
U286 C290 2.847 . S
U286 C303 2.882 . S
U286 O304 2.441 . S
U286 O305 2.420 . S
U286 O306 2.455 . S
U286 O307 2.449 . S
O287 U286 2.454 . S
O287 C289 1.353 . S
O288 U286 2.458 . S
O288 C289 1.286 . S
C289 U286 2.984 . S
C289 O287 1.353 . S
C289 O288 1.286 . S
C289 C291 1.363 . S
C290 C280 1.465 . S
C290 U286 2.847 . S
C290 O304 1.249 . S
C290 O305 1.202 . S
C291 C289 1.363 . S
C291 C293 1.408 . S
C291 C296 1.342 . S
C292 C293 1.310 . S
C292 C295 1.461 . S
C292 H312 0.932 . S
C293 C291 1.408 . S
C293 C292 1.310 . S
C293 H313 0.930 . S
C294 C295 1.474 . S
C294 C296 1.285 . S
C294 H314 0.929 . S
C295 C292 1.461 . S
C295 C294 1.474 . S
C296 C291 1.342 . S
C296 C294 1.285 . S
C296 H315 0.930 . S
C297 C300 1.424 . S
C297 C302 1.245 . S
C297 C303 1.428 . S
C298 C301 1.260 . S
C298 C302 1.477 . S
C298 H316 0.932 . S
C299 C300 1.384 . S
C299 C301 1.479 . S
C299 H317 0.929 . S
C300 C297 1.424 . S
C300 C299 1.384 . S
C300 H318 0.928 . S
C301 C298 1.260 . S
C301 C299 1.479 . S
C302 C297 1.245 . S
C302 C298 1.477 . S
C302 H319 0.932 . S
C303 U286 2.882 . S
C303 C297 1.428 . S
C303 O306 1.301 . S
C303 O307 1.282 . S
O304 U286 2.441 . S
O304 C290 1.249 . S
O305 U286 2.420 . S
O305 C290 1.202 . S
O306 U286 2.455 . S
O306 C303 1.301 . S
O307 U286 2.449 . S
O307 C303 1.282 . S
H308 C281 0.931 . S
H309 C283 0.929 . S
H310 C284 0.930 . S
H311 C285 0.931 . S
H312 C292 0.932 . S
H313 C293 0.930 . S
H314 C294 0.929 . S
H315 C296 0.930 . S
H316 C298 0.932 . S
H317 C299 0.929 . S
H318 C300 0.928 . S
H319 C302 0.932 . S
C320 C321 1.264 . S
C320 C325 1.479 . S
C320 C330 1.465 . S
C321 C320 1.264 . S
C321 C323 1.339 . S
C321 H348 0.931 . S
C322 C323 1.395 . S
C322 C324 1.320 . S
C323 C321 1.339 . S
C323 C322 1.395 . S
C323 H349 0.929 . S
C324 C322 1.320 . S
C324 C325 1.405 . S
C324 H350 0.930 . S
C325 C320 1.479 . S
C325 C324 1.405 . S
C325 H351 0.931 . S
U326 O327 2.454 . S
U326 O328 2.458 . S
U326 C329 2.984 . S
U326 C330 2.847 . S
U326 C343 2.882 . S
U326 O344 2.441 . S
U326 O345 2.420 . S
U326 O346 2.455 . S
U326 O347 2.449 . S
O327 U326 2.454 . S
O327 C329 1.353 . S
O328 U326 2.458 . S
O328 C329 1.286 . S
C329 U326 2.984 . S
C329 O327 1.353 . S
C329 O328 1.286 . S
C329 C331 1.363 . S
C330 C320 1.465 . S
C330 U326 2.847 . S
C330 O344 1.249 . S
C330 O345 1.202 . S
C331 C329 1.363 . S
C331 C333 1.408 . S
C331 C336 1.342 . S
C332 C333 1.310 . S
C332 C335 1.461 . S
C332 H352 0.932 . S
C333 C331 1.408 . S
C333 C332 1.310 . S
C333 H353 0.930 . S
C334 C335 1.474 . S
C334 C336 1.285 . S
C334 H354 0.957 . S
C335 C332 1.461 . S
C335 C334 1.474 . S
C336 C331 1.342 . S
C336 C334 1.285 . S
C336 H355 0.930 . S
C337 C340 1.434 . S
C337 C342 1.224 1_554 S
C337 C343 1.444 . S
C338 C341 1.260 . S
C338 C342 1.477 . S
C338 H356 0.932 . S
C339 C340 1.384 1_556 S
C339 C341 1.479 . S
C339 H357 0.919 1_556 S
C340 C337 1.434 . S
C340 C339 1.384 1_554 S
C340 H358 0.928 . S
C341 C338 1.260 . S
C341 C339 1.479 . S
C342 C337 1.224 1_556 S
C342 C338 1.477 . S
C342 H359 0.932 . S
C343 U326 2.882 . S
C343 C337 1.444 . S
C343 O346 1.301 . S
C343 O347 1.282 . S
O344 U326 2.441 . S
O344 C330 1.249 . S
O345 U326 2.420 . S
O345 C330 1.202 . S
O346 U326 2.455 . S
O346 C343 1.301 . S
O347 U326 2.449 . S
O347 C343 1.282 . S
H348 C321 0.931 . S
H349 C323 0.929 . S
H350 C324 0.930 . S
H351 C325 0.931 . S
H352 C332 0.932 . S
H353 C333 0.930 . S
H354 C334 0.957 . S
H355 C336 0.930 . S
H356 C338 0.932 . S
H357 C339 0.919 1_554 S
H358 C340 0.928 . S
H359 C342 0.932 . S
C360 C361 1.264 . S
C360 C365 1.479 . S
C360 C370 1.465 . S
C361 C360 1.264 . S
C361 C363 1.339 . S
C361 H388 0.931 . S
C362 C363 1.395 . S
C362 C364 1.320 . S
C363 C361 1.339 . S
C363 C362 1.395 . S
C363 H389 0.929 . S
C364 C362 1.320 . S
C364 C365 1.405 . S
C364 H390 0.930 . S
C365 C360 1.479 . S
C365 C364 1.405 . S
C365 H391 0.931 . S
U366 O367 2.454 . S
U366 O368 2.458 . S
U366 C369 2.984 . S
U366 C370 2.847 . S
U366 C383 2.882 . S
U366 O384 2.441 . S
U366 O385 2.420 . S
U366 O386 2.455 . S
U366 O387 2.449 . S
O367 U366 2.454 . S
O367 C369 1.353 . S
O368 U366 2.458 . S
O368 C369 1.286 . S
C369 U366 2.984 . S
C369 O367 1.353 . S
C369 O368 1.286 . S
C369 C371 1.363 . S
C370 C360 1.465 . S
C370 U366 2.847 . S
C370 O384 1.249 . S
C370 O385 1.202 . S
C371 C369 1.363 . S
C371 C373 1.408 . S
C371 C376 1.342 . S
C372 C373 1.310 . S
C372 C375 1.461 . S
C372 H392 0.932 . S
C373 C371 1.408 . S
C373 C372 1.310 . S
C373 H393 0.930 . S
C374 C375 1.474 . S
C374 C376 1.285 . S
C374 H394 0.929 . S
C375 C372 1.461 . S
C375 C374 1.474 . S
C376 C371 1.342 . S
C376 C374 1.285 . S
C376 H395 0.930 . S
C377 C380 1.424 . S
C377 C382 1.245 . S
C377 C383 1.428 . S
C378 C381 1.260 . S
C378 C382 1.477 . S
C378 H396 0.932 . S
C379 C380 1.384 . S
C379 C381 1.479 . S
C379 H397 0.929 . S
C380 C377 1.424 . S
C380 C379 1.384 . S
C380 H398 0.928 . S
C381 C378 1.260 . S
C381 C379 1.479 . S
C382 C377 1.245 . S
C382 C378 1.477 . S
C382 H399 0.932 . S
C383 U366 2.882 . S
C383 C377 1.428 . S
C383 O386 1.301 . S
C383 O387 1.282 . S
O384 U366 2.441 . S
O384 C370 1.249 . S
O385 U366 2.420 . S
O385 C370 1.202 . S
O386 U366 2.455 . S
O386 C383 1.301 . S
O387 U366 2.449 . S
O387 C383 1.282 . S
H388 C361 0.931 . S
H389 C363 0.929 . S
H390 C364 0.930 . S
H391 C365 0.931 . S
H392 C372 0.932 . S
H393 C373 0.930 . S
H394 C374 0.929 . S
H395 C376 0.930 . S
H396 C378 0.932 . S
H397 C379 0.929 . S
H398 C380 0.928 . S
H399 C382 0.932 . S
C400 C401 1.264 . S
C400 C405 1.479 . S
C400 C410 1.465 . S
C401 C400 1.264 . S
C401 C403 1.339 . S
C401 H428 0.931 . S
C402 C403 1.395 . S
C402 C404 1.320 . S
C403 C401 1.339 . S
C403 C402 1.395 . S
C403 H429 0.929 . S
C404 C402 1.320 . S
C404 C405 1.405 . S
C404 H430 0.930 . S
C405 C400 1.479 . S
C405 C404 1.405 . S
C405 H431 0.931 . S
U406 O407 2.454 . S
U406 O408 2.458 . S
U406 C409 2.984 . S
U406 C410 2.847 . S
U406 C423 2.882 . S
U406 O424 2.441 . S
U406 O425 2.420 . S
U406 O426 2.455 . S
U406 O427 2.449 . S
O407 U406 2.454 . S
O407 C409 1.353 . S
O408 U406 2.458 . S
O408 C409 1.286 . S
C409 U406 2.984 . S
C409 O407 1.353 . S
C409 O408 1.286 . S
C409 C411 1.363 . S
C410 C400 1.465 . S
C410 U406 2.847 . S
C410 O424 1.249 . S
C410 O425 1.202 . S
C411 C409 1.363 . S
C411 C413 1.408 . S
C411 C416 1.342 . S
C412 C413 1.310 . S
C412 C415 1.461 . S
C412 H432 0.932 . S
C413 C411 1.408 . S
C413 C412 1.310 . S
C413 H433 0.930 . S
C414 C415 1.474 . S
C414 C416 1.285 . S
C414 H434 0.929 . S
C415 C412 1.461 . S
C415 C414 1.474 . S
C416 C411 1.342 . S
C416 C414 1.285 . S
C416 H435 0.930 . S
C417 C420 1.424 . S
C417 C422 1.245 . S
C417 C423 1.428 . S
C418 C421 1.260 . S
C418 C422 1.477 . S
C418 H436 0.932 . S
C419 C420 1.384 . S
C419 C421 1.479 . S
C419 H437 0.929 . S
C420 C417 1.424 . S
C420 C419 1.384 . S
C420 H438 0.928 . S
C421 C418 1.260 . S
C421 C419 1.479 . S
C422 C417 1.245 . S
C422 C418 1.477 . S
C422 H439 0.932 . S
C423 U406 2.882 . S
C423 C417 1.428 . S
C423 O426 1.301 . S
C423 O427 1.282 . S
O424 U406 2.441 . S
O424 C410 1.249 . S
O425 U406 2.420 . S
O425 C410 1.202 . S
O426 U406 2.455 . S
O426 C423 1.301 . S
O427 U406 2.449 . S
O427 C423 1.282 . S
H428 C401 0.931 . S
H429 C403 0.929 . S
H430 C404 0.930 . S
H431 C405 0.931 . S
H432 C412 0.932 . S
H433 C413 0.930 . S
H434 C414 0.929 . S
H435 C416 0.930 . S
H436 C418 0.932 . S
H437 C419 0.929 . S
H438 C420 0.928 . S
H439 C422 0.932 . S
C440 C441 1.264 . S
C440 C445 1.479 . S
C440 C450 1.465 . S
C441 C440 1.264 . S
C441 C443 1.339 . S
C441 H468 0.931 . S
C442 C443 1.395 . S
C442 C444 1.320 . S
C443 C441 1.339 . S
C443 C442 1.395 . S
C443 H469 0.929 . S
C444 C442 1.320 . S
C444 C445 1.405 . S
C444 H470 0.930 . S
C445 C440 1.479 . S
C445 C444 1.405 . S
C445 H471 0.931 . S
U446 O447 2.454 . S
U446 O448 2.458 . S
U446 C449 2.984 . S
U446 C450 2.847 . S
U446 C463 2.882 . S
U446 O464 2.441 . S
U446 O465 2.420 . S
U446 O466 2.455 . S
U446 O467 2.449 . S
O447 U446 2.454 . S
O447 C449 1.353 . S
O448 U446 2.458 . S
O448 C449 1.286 . S
C449 U446 2.984 . S
C449 O447 1.353 . S
C449 O448 1.286 . S
C449 C451 1.363 . S
C450 C440 1.465 . S
C450 U446 2.847 . S
C450 O464 1.249 . S
C450 O465 1.202 . S
C451 C449 1.363 . S
C451 C453 1.408 . S
C451 C456 1.342 . S
C452 C453 1.310 . S
C452 C455 1.461 . S
C452 H472 0.932 . S
C453 C451 1.408 . S
C453 C452 1.310 . S
C453 H473 0.930 . S
C454 C455 1.474 . S
C454 C456 1.285 . S
C454 H474 0.929 . S
C455 C452 1.461 . S
C455 C454 1.474 . S
C456 C451 1.342 . S
C456 C454 1.285 . S
C456 H475 0.930 . S
C457 C460 1.424 . S
C457 C462 1.245 . S
C457 C463 1.428 . S
C458 C461 1.260 . S
C458 C462 1.477 . S
C458 H476 0.932 . S
C459 C460 1.384 . S
C459 C461 1.479 . S
C459 H477 0.929 . S
C460 C457 1.424 . S
C460 C459 1.384 . S
C460 H478 0.928 . S
C461 C458 1.260 . S
C461 C459 1.479 . S
C462 C457 1.245 . S
C462 C458 1.477 . S
C462 H479 0.932 . S
C463 U446 2.882 . S
C463 C457 1.428 . S
C463 O466 1.301 . S
C463 O467 1.282 . S
O464 U446 2.441 . S
O464 C450 1.249 . S
O465 U446 2.420 . S
O465 C450 1.202 . S
O466 U446 2.455 . S
O466 C463 1.301 . S
O467 U446 2.449 . S
O467 C463 1.282 . S
H468 C441 0.931 . S
H469 C443 0.929 . S
H470 C444 0.930 . S
H471 C445 0.931 . S
H472 C452 0.932 . S
H473 C453 0.930 . S
H474 C454 0.929 . S
H475 C456 0.930 . S
H476 C458 0.932 . S
H477 C459 0.929 . S
H478 C460 0.928 . S
H479 C462 0.932 . S
C480 C481 1.264 . S
C480 C485 1.479 . S
C480 C490 1.465 . S
C481 C480 1.264 . S
C481 C483 1.339 . S
C481 H508 0.931 . S
C482 C483 1.395 . S
C482 C484 1.320 . S
C483 C481 1.339 . S
C483 C482 1.395 . S
C483 H509 0.929 . S
C484 C482 1.320 . S
C484 C485 1.405 . S
C484 H510 0.930 . S
C485 C480 1.479 . S
C485 C484 1.405 . S
C485 H511 0.931 . S
U486 O487 2.454 . S
U486 O488 2.458 . S
U486 C489 2.984 . S
U486 C490 2.847 . S
U486 C503 2.882 . S
U486 O504 2.441 . S
U486 O505 2.420 . S
U486 O506 2.455 . S
U486 O507 2.449 . S
O487 U486 2.454 . S
O487 C489 1.353 . S
O488 U486 2.458 . S
O488 C489 1.286 . S
C489 U486 2.984 . S
C489 O487 1.353 . S
C489 O488 1.286 . S
C489 C491 1.363 . S
C490 C480 1.465 . S
C490 U486 2.847 . S
C490 O504 1.249 . S
C490 O505 1.202 . S
C491 C489 1.363 . S
C491 C493 1.408 . S
C491 C496 1.342 . S
C492 C493 1.310 . S
C492 C495 1.461 . S
C492 H512 0.932 . S
C493 C491 1.408 . S
C493 C492 1.310 . S
C493 H513 0.930 . S
C494 C495 1.474 . S
C494 C496 1.285 . S
C494 H514 0.929 1_655 S
C495 C492 1.461 . S
C495 C494 1.474 . S
C496 C491 1.342 . S
C496 C494 1.285 . S
C496 H515 0.930 . S
C497 C500 1.424 . S
C497 C502 1.245 1_655 S
C497 C503 1.428 . S
C498 C501 1.260 . S
C498 C502 1.477 . S
C498 H516 0.932 . S
C499 C500 1.384 . S
C499 C501 1.479 1_655 S
C499 H517 0.929 . S
C500 C497 1.424 . S
C500 C499 1.384 . S
C500 H518 0.928 . S
C501 C498 1.260 . S
C501 C499 1.479 1_455 S
C502 C497 1.245 1_455 S
C502 C498 1.477 . S
C502 H519 0.932 . S
C503 U486 2.882 . S
C503 C497 1.428 . S
C503 O506 1.301 . S
C503 O507 1.282 . S
O504 U486 2.441 . S
O504 C490 1.249 . S
O505 U486 2.420 . S
O505 C490 1.202 . S
O506 U486 2.455 . S
O506 C503 1.301 . S
O507 U486 2.449 . S
O507 C503 1.282 . S
H508 C481 0.931 . S
H509 C483 0.929 . S
H510 C484 0.930 . S
H511 C485 0.931 . S
H512 C492 0.932 . S
H513 C493 0.930 . S
H514 C494 0.929 1_455 S
H515 C496 0.930 . S
H516 C498 0.932 . S
H517 C499 0.929 . S
H518 C500 0.928 . S
H519 C502 0.932 . S
C520 C521 1.257 1_655 S
C520 C525 1.503 . S
C520 C530 1.451 1_655 S
C521 C520 1.257 1_455 S
C521 C523 1.339 1_455 S
C521 H548 0.931 . S
C522 C523 1.395 . S
C522 C524 1.320 . S
C523 C521 1.339 1_655 S
C523 C522 1.395 . S
C523 H549 0.929 . S
C524 C522 1.320 . S
C524 C525 1.405 . S
C524 H550 0.930 . S
C525 C520 1.503 . S
C525 C524 1.405 . S
C525 H551 0.931 . S
U526 O527 2.454 . S
U526 O528 2.458 . S
U526 C529 2.984 . S
U526 C530 2.847 . S
U526 C543 2.882 . S
U526 O544 2.441 . S
U526 O545 2.420 . S
U526 O546 2.455 . S
U526 O547 2.449 . S
O527 U526 2.454 . S
O527 C529 1.353 . S
O528 U526 2.458 . S
O528 C529 1.286 . S
C529 U526 2.984 . S
C529 O527 1.353 . S
C529 O528 1.286 . S
C529 C531 1.363 . S
C530 C520 1.451 1_455 S
C530 U526 2.847 . S
C530 O544 1.249 . S
C530 O545 1.202 . S
C531 C529 1.363 . S
C531 C533 1.408 . S
C531 C536 1.342 . S
C532 C533 1.310 . S
C532 C535 1.461 . S
C532 H552 0.932 1_455 S
C533 C531 1.408 . S
C533 C532 1.310 . S
C533 H553 0.930 . S
C534 C535 1.474 . S
C534 C536 1.285 . S
C534 H554 0.929 . S
C535 C532 1.461 . S
C535 C534 1.474 . S
C536 C531 1.342 . S
C536 C534 1.285 . S
C536 H555 0.930 . S
C537 C540 1.424 . S
C537 C542 1.245 . S
C537 C543 1.428 . S
C538 C541 1.260 . S
C538 C542 1.477 . S
C538 H556 0.932 . S
C539 C540 1.384 . S
C539 C541 1.479 . S
C539 H557 0.929 . S
C540 C537 1.424 . S
C540 C539 1.384 . S
C540 H558 0.928 . S
C541 C538 1.260 . S
C541 C539 1.479 . S
C542 C537 1.245 . S
C542 C538 1.477 . S
C542 H559 0.932 . S
C543 U526 2.882 . S
C543 C537 1.428 . S
C543 O546 1.301 . S
C543 O547 1.282 . S
O544 U526 2.441 . S
O544 C530 1.249 . S
O545 U526 2.420 . S
O545 C530 1.202 . S
O546 U526 2.455 . S
O546 C543 1.301 . S
O547 U526 2.449 . S
O547 C543 1.282 . S
H548 C521 0.931 . S
H549 C523 0.929 . S
H550 C524 0.930 . S
H551 C525 0.931 . S
H552 C532 0.932 1_655 S
H553 C533 0.930 . S
H554 C534 0.929 . S
H555 C536 0.930 . S
H556 C538 0.932 . S
H557 C539 0.929 . S
H558 C540 0.928 . S
H559 C542 0.932 . S
C560 C561 1.264 . S
C560 C565 1.479 . S
C560 C570 1.465 . S
C561 C560 1.264 . S
C561 C563 1.339 . S
C561 H588 0.931 . S
C562 C563 1.395 . S
C562 C564 1.320 . S
C563 C561 1.339 . S
C563 C562 1.395 . S
C563 H589 0.929 . S
C564 C562 1.320 . S
C564 C565 1.405 . S
C564 H590 0.930 . S
C565 C560 1.479 . S
C565 C564 1.405 . S
C565 H591 0.931 . S
U566 O567 2.454 . S
U566 O568 2.458 . S
U566 C569 2.984 . S
U566 C570 2.847 . S
U566 C583 2.882 . S
U566 O584 2.441 . S
U566 O585 2.420 . S
U566 O586 2.455 . S
U566 O587 2.449 . S
O567 U566 2.454 . S
O567 C569 1.353 . S
O568 U566 2.458 . S
O568 C569 1.286 . S
C569 U566 2.984 . S
C569 O567 1.353 . S
C569 O568 1.286 . S
C569 C571 1.363 . S
C570 C560 1.465 . S
C570 U566 2.847 . S
C570 O584 1.249 . S
C570 O585 1.202 . S
C571 C569 1.363 . S
C571 C573 1.408 . S
C571 C576 1.342 . S
C572 C573 1.310 . S
C572 C575 1.461 . S
C572 H592 0.932 . S
C573 C571 1.408 . S
C573 C572 1.310 . S
C573 H593 0.930 . S
C574 C575 1.474 . S
C574 C576 1.285 . S
C574 H594 0.929 1_655 S
C575 C572 1.461 . S
C575 C574 1.474 . S
C576 C571 1.342 . S
C576 C574 1.285 . S
C576 H595 0.930 . S
C577 C580 1.424 . S
C577 C582 1.245 1_655 S
C577 C583 1.428 . S
C578 C581 1.260 . S
C578 C582 1.477 . S
C578 H596 0.932 . S
C579 C580 1.384 . S
C579 C581 1.479 1_655 S
C579 H597 0.929 . S
C580 C577 1.424 . S
C580 C579 1.384 . S
C580 H598 0.928 . S
C581 C578 1.260 . S
C581 C579 1.479 1_455 S
C582 C577 1.245 1_455 S
C582 C578 1.477 . S
C582 H599 0.932 . S
C583 U566 2.882 . S
C583 C577 1.428 . S
C583 O586 1.301 . S
C583 O587 1.282 . S
O584 U566 2.441 . S
O584 C570 1.249 . S
O585 U566 2.420 . S
O585 C570 1.202 . S
O586 U566 2.455 . S
O586 C583 1.301 . S
O587 U566 2.449 . S
O587 C583 1.282 . S
H588 C561 0.931 . S
H589 C563 0.929 . S
H590 C564 0.930 . S
H591 C565 0.931 . S
H592 C572 0.932 . S
H593 C573 0.930 . S
H594 C574 0.929 1_455 S
H595 C576 0.930 . S
H596 C578 0.932 . S
H597 C579 0.929 . S
H598 C580 0.928 . S
H599 C582 0.932 . S
C600 C601 1.257 1_655 S
C600 C605 1.503 . S
C600 C610 1.451 1_655 S
C601 C600 1.257 1_455 S
C601 C603 1.339 1_455 S
C601 H628 0.931 . S
C602 C603 1.395 . S
C602 C604 1.320 . S
C603 C601 1.339 1_655 S
C603 C602 1.395 . S
C603 H629 0.929 . S
C604 C602 1.320 . S
C604 C605 1.405 . S
C604 H630 0.930 . S
C605 C600 1.503 . S
C605 C604 1.405 . S
C605 H631 0.931 . S
U606 O607 2.454 . S
U606 O608 2.458 . S
U606 C609 2.984 . S
U606 C610 2.847 . S
U606 C623 2.882 . S
U606 O624 2.441 . S
U606 O625 2.420 . S
U606 O626 2.455 . S
U606 O627 2.449 . S
O607 U606 2.454 . S
O607 C609 1.353 . S
O608 U606 2.458 . S
O608 C609 1.286 . S
C609 U606 2.984 . S
C609 O607 1.353 . S
C609 O608 1.286 . S
C609 C611 1.363 . S
C610 C600 1.451 1_455 S
C610 U606 2.847 . S
C610 O624 1.249 . S
C610 O625 1.202 . S
C611 C609 1.363 . S
C611 C613 1.408 . S
C611 C616 1.342 . S
C612 C613 1.310 . S
C612 C615 1.461 . S
C612 H632 0.932 1_455 S
C613 C611 1.408 . S
C613 C612 1.310 . S
C613 H633 0.930 . S
C614 C615 1.474 . S
C614 C616 1.285 . S
C614 H634 0.929 . S
C615 C612 1.461 . S
C615 C614 1.474 . S
C616 C611 1.342 . S
C616 C614 1.285 . S
C616 H635 0.930 . S
C617 C620 1.424 . S
C617 C622 1.245 . S
C617 C623 1.428 . S
C618 C621 1.260 . S
C618 C622 1.477 . S
C618 H636 0.932 . S
C619 C620 1.384 . S
C619 C621 1.479 . S
C619 H637 0.929 . S
C620 C617 1.424 . S
C620 C619 1.384 . S
C620 H638 0.928 . S
C621 C618 1.260 . S
C621 C619 1.479 . S
C622 C617 1.245 . S
C622 C618 1.477 . S
C622 H639 0.932 . S
C623 U606 2.882 . S
C623 C617 1.428 . S
C623 O626 1.301 . S
C623 O627 1.282 . S
O624 U606 2.441 . S
O624 C610 1.249 . S
O625 U606 2.420 . S
O625 C610 1.202 . S
O626 U606 2.455 . S
O626 C623 1.301 . S
O627 U606 2.449 . S
O627 C623 1.282 . S
H628 C601 0.931 . S
H629 C603 0.929 . S
H630 C604 0.930 . S
H631 C605 0.931 . S
H632 C612 0.932 1_655 S
H633 C613 0.930 . S
H634 C614 0.929 . S
H635 C616 0.930 . S
H636 C618 0.932 . S
H637 C619 0.929 . S
H638 C620 0.928 . S
H639 C622 0.932 . S
C640 C641 1.264 . S
C640 C645 1.479 . S
C640 C650 1.465 . S
C641 C640 1.264 . S
C641 C643 1.339 . S
C641 H668 0.931 . S
C642 C643 1.395 . S
C642 C644 1.320 . S
C643 C641 1.339 . S
C643 C642 1.395 . S
C643 H669 0.929 . S
C644 C642 1.320 . S
C644 C645 1.405 . S
C644 H670 0.930 . S
C645 C640 1.479 . S
C645 C644 1.405 . S
C645 H671 0.931 . S
U646 O647 2.454 . S
U646 O648 2.458 . S
U646 C649 2.984 . S
U646 C650 2.847 . S
U646 C663 2.882 . S
U646 O664 2.441 . S
U646 O665 2.420 . S
U646 O666 2.455 . S
U646 O667 2.449 . S
O647 U646 2.454 . S
O647 C649 1.353 . S
O648 U646 2.458 . S
O648 C649 1.286 . S
C649 U646 2.984 . S
C649 O647 1.353 . S
C649 O648 1.286 . S
C649 C651 1.363 . S
C650 C640 1.465 . S
C650 U646 2.847 . S
C650 O664 1.249 . S
C650 O665 1.202 . S
C651 C649 1.363 . S
C651 C653 1.408 . S
C651 C656 1.342 . S
C652 C653 1.310 . S
C652 C655 1.461 . S
C652 H672 0.932 . S
C653 C651 1.408 . S
C653 C652 1.310 . S
C653 H673 0.930 . S
C654 C655 1.474 . S
C654 C656 1.285 . S
C654 H674 0.929 1_565 S
C655 C652 1.461 . S
C655 C654 1.474 . S
C656 C651 1.342 . S
C656 C654 1.285 . S
C656 H675 0.930 . S
C657 C660 1.424 . S
C657 C662 1.245 1_565 S
C657 C663 1.428 . S
C658 C661 1.260 . S
C658 C662 1.477 . S
C658 H676 0.932 . S
C659 C660 1.384 . S
C659 C661 1.479 1_565 S
C659 H677 0.929 . S
C660 C657 1.424 . S
C660 C659 1.384 . S
C660 H678 0.928 . S
C661 C658 1.260 . S
C661 C659 1.479 1_545 S
C662 C657 1.245 1_545 S
C662 C658 1.477 . S
C662 H679 0.932 . S
C663 U646 2.882 . S
C663 C657 1.428 . S
C663 O666 1.301 . S
C663 O667 1.282 . S
O664 U646 2.441 . S
O664 C650 1.249 . S
O665 U646 2.420 . S
O665 C650 1.202 . S
O666 U646 2.455 . S
O666 C663 1.301 . S
O667 U646 2.449 . S
O667 C663 1.282 . S
H668 C641 0.931 . S
H669 C643 0.929 . S
H670 C644 0.930 . S
H671 C645 0.931 . S
H672 C652 0.932 . S
H673 C653 0.930 . S
H674 C654 0.929 1_545 S
H675 C656 0.930 . S
H676 C658 0.932 . S
H677 C659 0.929 . S
H678 C660 0.928 . S
H679 C662 0.932 . S
C680 C681 1.264 . S
C680 C685 1.479 . S
C680 C690 1.465 . S
C681 C680 1.264 . S
C681 C683 1.339 . S
C681 H708 0.931 . S
C682 C683 1.395 . S
C682 C684 1.320 . S
C683 C681 1.339 . S
C683 C682 1.395 . S
C683 H709 0.929 . S
C684 C682 1.320 . S
C684 C685 1.405 . S
C684 H710 0.930 . S
C685 C680 1.479 . S
C685 C684 1.405 . S
C685 H711 0.931 . S
U686 O687 2.454 . S
U686 O688 2.458 . S
U686 C689 2.984 . S
U686 C690 2.847 . S
U686 C703 2.882 . S
U686 O704 2.441 . S
U686 O705 2.420 . S
U686 O706 2.455 . S
U686 O707 2.449 . S
O687 U686 2.454 . S
O687 C689 1.353 . S
O688 U686 2.458 . S
O688 C689 1.286 . S
C689 U686 2.984 . S
C689 O687 1.353 . S
C689 O688 1.286 . S
C689 C691 1.363 . S
C690 C680 1.465 . S
C690 U686 2.847 . S
C690 O704 1.249 . S
C690 O705 1.202 . S
C691 C689 1.363 . S
C691 C693 1.408 . S
C691 C696 1.342 . S
C692 C693 1.310 . S
C692 C695 1.461 . S
C692 H712 0.932 . S
C693 C691 1.408 . S
C693 C692 1.310 . S
C693 H713 0.930 . S
C694 C695 1.474 . S
C694 C696 1.285 . S
C694 H714 0.929 . S
C695 C692 1.461 . S
C695 C694 1.474 . S
C696 C691 1.342 . S
C696 C694 1.285 . S
C696 H715 0.930 . S
C697 C700 1.424 . S
C697 C702 1.245 . S
C697 C703 1.428 . S
C698 C701 1.260 . S
C698 C702 1.477 . S
C698 H716 0.932 . S
C699 C700 1.384 . S
C699 C701 1.479 . S
C699 H717 0.929 . S
C700 C697 1.424 . S
C700 C699 1.384 . S
C700 H718 0.928 . S
C701 C698 1.260 . S
C701 C699 1.479 . S
C702 C697 1.245 . S
C702 C698 1.477 . S
C702 H719 0.932 . S
C703 U686 2.882 . S
C703 C697 1.428 . S
C703 O706 1.301 . S
C703 O707 1.282 . S
O704 U686 2.441 . S
O704 C690 1.249 . S
O705 U686 2.420 . S
O705 C690 1.202 . S
O706 U686 2.455 . S
O706 C703 1.301 . S
O707 U686 2.449 . S
O707 C703 1.282 . S
H708 C681 0.931 . S
H709 C683 0.929 . S
H710 C684 0.930 . S
H711 C685 0.931 . S
H712 C692 0.932 . S
H713 C693 0.930 . S
H714 C694 0.929 . S
H715 C696 0.930 . S
H716 C698 0.932 . S
H717 C699 0.929 . S
H718 C700 0.928 . S
H719 C702 0.932 . S
C720 C721 1.264 . S
C720 C725 1.479 . S
C720 C730 1.465 . S
C721 C720 1.264 . S
C721 C723 1.339 . S
C721 H748 0.931 . S
C722 C723 1.395 . S
C722 C724 1.320 . S
C723 C721 1.339 . S
C723 C722 1.395 . S
C723 H749 0.929 . S
C724 C722 1.320 . S
C724 C725 1.405 . S
C724 H750 0.930 . S
C725 C720 1.479 . S
C725 C724 1.405 . S
C725 H751 0.931 . S
U726 O727 2.454 . S
U726 O728 2.458 . S
U726 C729 2.984 . S
U726 C730 2.847 . S
U726 C743 2.882 . S
U726 O744 2.441 . S
U726 O745 2.420 . S
U726 O746 2.455 . S
U726 O747 2.449 . S
O727 U726 2.454 . S
O727 C729 1.353 . S
O728 U726 2.458 . S
O728 C729 1.286 . S
C729 U726 2.984 . S
C729 O727 1.353 . S
C729 O728 1.286 . S
C729 C731 1.363 . S
C730 C720 1.465 . S
C730 U726 2.847 . S
C730 O744 1.249 . S
C730 O745 1.202 . S
C731 C729 1.363 . S
C731 C733 1.408 . S
C731 C736 1.342 . S
C732 C733 1.310 . S
C732 C735 1.461 . S
C732 H752 0.932 . S
C733 C731 1.408 . S
C733 C732 1.310 . S
C733 H753 0.930 . S
C734 C735 1.474 . S
C734 C736 1.285 . S
C734 H754 0.929 1_545 S
C735 C732 1.461 . S
C735 C734 1.474 . S
C736 C731 1.342 . S
C736 C734 1.285 . S
C736 H755 0.930 . S
C737 C740 1.424 . S
C737 C742 1.245 1_545 S
C737 C743 1.428 . S
C738 C741 1.260 . S
C738 C742 1.477 . S
C738 H756 0.932 . S
C739 C740 1.384 . S
C739 C741 1.479 1_545 S
C739 H757 0.929 . S
C740 C737 1.424 . S
C740 C739 1.384 . S
C740 H758 0.928 . S
C741 C738 1.260 . S
C741 C739 1.479 1_565 S
C742 C737 1.245 1_565 S
C742 C738 1.477 . S
C742 H759 0.932 . S
C743 U726 2.882 . S
C743 C737 1.428 . S
C743 O746 1.301 . S
C743 O747 1.282 . S
O744 U726 2.441 . S
O744 C730 1.249 . S
O745 U726 2.420 . S
O745 C730 1.202 . S
O746 U726 2.455 . S
O746 C743 1.301 . S
O747 U726 2.449 . S
O747 C743 1.282 . S
H748 C721 0.931 . S
H749 C723 0.929 . S
H750 C724 0.930 . S
H751 C725 0.931 . S
H752 C732 0.932 . S
H753 C733 0.930 . S
H754 C734 0.929 1_565 S
H755 C736 0.930 . S
H756 C738 0.932 . S
H757 C739 0.929 . S
H758 C740 0.928 . S
H759 C742 0.932 . S
C760 C761 1.264 . S
C760 C765 1.479 . S
C760 C770 1.465 . S
C761 C760 1.264 . S
C761 C763 1.339 . S
C761 H788 0.931 . S
C762 C763 1.395 . S
C762 C764 1.320 . S
C763 C761 1.339 . S
C763 C762 1.395 . S
C763 H789 0.929 . S
C764 C762 1.320 . S
C764 C765 1.405 . S
C764 H790 0.930 . S
C765 C760 1.479 . S
C765 C764 1.405 . S
C765 H791 0.931 . S
U766 O767 2.454 . S
U766 O768 2.458 . S
U766 C769 2.984 . S
U766 C770 2.847 . S
U766 C783 2.882 . S
U766 O784 2.441 . S
U766 O785 2.420 . S
U766 O786 2.455 . S
U766 O787 2.449 . S
O767 U766 2.454 . S
O767 C769 1.353 . S
O768 U766 2.458 . S
O768 C769 1.286 . S
C769 U766 2.984 . S
C769 O767 1.353 . S
C769 O768 1.286 . S
C769 C771 1.363 . S
C770 C760 1.465 . S
C770 U766 2.847 . S
C770 O784 1.249 . S
C770 O785 1.202 . S
C771 C769 1.363 . S
C771 C773 1.408 . S
C771 C776 1.342 . S
C772 C773 1.310 . S
C772 C775 1.461 . S
C772 H792 0.932 . S
C773 C771 1.408 . S
C773 C772 1.310 . S
C773 H793 0.930 . S
C774 C775 1.474 . S
C774 C776 1.285 . S
C774 H794 0.929 . S
C775 C772 1.461 . S
C775 C774 1.474 . S
C776 C771 1.342 . S
C776 C774 1.285 . S
C776 H795 0.930 . S
C777 C780 1.424 . S
C777 C782 1.245 . S
C777 C783 1.428 . S
C778 C781 1.260 . S
C778 C782 1.477 . S
C778 H796 0.932 . S
C779 C780 1.384 . S
C779 C781 1.479 . S
C779 H797 0.929 . S
C780 C777 1.424 . S
C780 C779 1.384 . S
C780 H798 0.928 . S
C781 C778 1.260 . S
C781 C779 1.479 . S
C782 C777 1.245 . S
C782 C778 1.477 . S
C782 H799 0.932 . S
C783 U766 2.882 . S
C783 C777 1.428 . S
C783 O786 1.301 . S
C783 O787 1.282 . S
O784 U766 2.441 . S
O784 C770 1.249 . S
O785 U766 2.420 . S
O785 C770 1.202 . S
O786 U766 2.455 . S
O786 C783 1.301 . S
O787 U766 2.449 . S
O787 C783 1.282 . S
H788 C761 0.931 . S
H789 C763 0.929 . S
H790 C764 0.930 . S
H791 C765 0.931 . S
H792 C772 0.932 . S
H793 C773 0.930 . S
H794 C774 0.929 . S
H795 C776 0.930 . S
H796 C778 0.932 . S
H797 C779 0.929 . S
H798 C780 0.928 . S
H799 C782 0.932 . S
C800 C801 1.264 . S
C800 C805 1.479 . S
C800 C810 1.465 . S
C801 C800 1.264 . S
C801 C803 1.339 . S
C801 H828 0.931 . S
C802 C803 1.395 . S
C802 C804 1.320 . S
C803 C801 1.339 . S
C803 C802 1.395 . S
C803 H829 0.929 . S
C804 C802 1.320 . S
C804 C805 1.405 . S
C804 H830 0.930 . S
C805 C800 1.479 . S
C805 C804 1.405 . S
C805 H831 0.931 . S
U806 O807 2.454 . S
U806 O808 2.458 . S
U806 C809 2.984 . S
U806 C810 2.847 . S
U806 C823 2.882 . S
U806 O824 2.441 . S
U806 O825 2.420 . S
U806 O826 2.455 . S
U806 O827 2.449 . S
O807 U806 2.454 . S
O807 C809 1.353 . S
O808 U806 2.458 . S
O808 C809 1.286 . S
C809 U806 2.984 . S
C809 O807 1.353 . S
C809 O808 1.286 . S
C809 C811 1.363 . S
C810 C800 1.465 . S
C810 U806 2.847 . S
C810 O824 1.249 . S
C810 O825 1.202 . S
C811 C809 1.363 . S
C811 C813 1.408 . S
C811 C816 1.342 . S
C812 C813 1.310 . S
C812 C815 1.461 . S
C812 H832 0.932 . S
C813 C811 1.408 . S
C813 C812 1.310 . S
C813 H833 0.930 . S
C814 C815 1.474 . S
C814 C816 1.285 . S
C814 H834 0.929 1_556 S
C815 C812 1.461 . S
C815 C814 1.474 . S
C816 C811 1.342 . S
C816 C814 1.285 . S
C816 H835 0.930 . S
C817 C820 1.424 . S
C817 C822 1.245 1_556 S
C817 C823 1.428 . S
C818 C821 1.260 . S
C818 C822 1.477 . S
C818 H836 0.932 . S
C819 C820 1.384 . S
C819 C821 1.479 1_556 S
C819 H837 0.929 . S
C820 C817 1.424 . S
C820 C819 1.384 . S
C820 H838 0.928 . S
C821 C818 1.260 . S
C821 C819 1.479 1_554 S
C822 C817 1.245 1_554 S
C822 C818 1.477 . S
C822 H839 0.932 . S
C823 U806 2.882 . S
C823 C817 1.428 . S
C823 O826 1.301 . S
C823 O827 1.282 . S
O824 U806 2.441 . S
O824 C810 1.249 . S
O825 U806 2.420 . S
O825 C810 1.202 . S
O826 U806 2.455 . S
O826 C823 1.301 . S
O827 U806 2.449 . S
O827 C823 1.282 . S
H828 C801 0.931 . S
H829 C803 0.929 . S
H830 C804 0.930 . S
H831 C805 0.931 . S
H832 C812 0.932 . S
H833 C813 0.930 . S
H834 C814 0.929 1_554 S
H835 C816 0.930 . S
H836 C818 0.932 . S
H837 C819 0.929 . S
H838 C820 0.928 . S
H839 C822 0.932 . S
C840 C841 1.264 . S
C840 C845 1.479 . S
C840 C850 1.465 . S
C841 C840 1.264 . S
C841 C843 1.339 . S
C841 H868 0.931 . S
C842 C843 1.395 . S
C842 C844 1.320 . S
C843 C841 1.339 . S
C843 C842 1.395 . S
C843 H869 0.929 . S
C844 C842 1.320 . S
C844 C845 1.405 . S
C844 H870 0.930 . S
C845 C840 1.479 . S
C845 C844 1.405 . S
C845 H871 0.931 . S
U846 O847 2.454 . S
U846 O848 2.458 . S
U846 C849 2.984 . S
U846 C850 2.847 . S
U846 C863 2.882 . S
U846 O864 2.441 . S
U846 O865 2.420 . S
U846 O866 2.455 . S
U846 O867 2.449 . S
O847 U846 2.454 . S
O847 C849 1.353 . S
O848 U846 2.458 . S
O848 C849 1.286 . S
C849 U846 2.984 . S
C849 O847 1.353 . S
C849 O848 1.286 . S
C849 C851 1.363 . S
C850 C840 1.465 . S
C850 U846 2.847 . S
C850 O864 1.249 . S
C850 O865 1.202 . S
C851 C849 1.363 . S
C851 C853 1.408 . S
C851 C856 1.342 . S
C852 C853 1.310 . S
C852 C855 1.461 . S
C852 H872 0.932 . S
C853 C851 1.408 . S
C853 C852 1.310 . S
C853 H873 0.930 . S
C854 C855 1.474 . S
C854 C856 1.285 . S
C854 H874 0.929 . S
C855 C852 1.461 . S
C855 C854 1.474 . S
C856 C851 1.342 . S
C856 C854 1.285 . S
C856 H875 0.930 . S
C857 C860 1.424 . S
C857 C862 1.245 . S
C857 C863 1.428 . S
C858 C861 1.260 . S
C858 C862 1.477 . S
C858 H876 0.932 . S
C859 C860 1.384 . S
C859 C861 1.479 . S
C859 H877 0.929 . S
C860 C857 1.424 . S
C860 C859 1.384 . S
C860 H878 0.928 . S
C861 C858 1.260 . S
C861 C859 1.479 . S
C862 C857 1.245 . S
C862 C858 1.477 . S
C862 H879 0.932 . S
C863 U846 2.882 . S
C863 C857 1.428 . S
C863 O866 1.301 . S
C863 O867 1.282 . S
O864 U846 2.441 . S
O864 C850 1.249 . S
O865 U846 2.420 . S
O865 C850 1.202 . S
O866 U846 2.455 . S
O866 C863 1.301 . S
O867 U846 2.449 . S
O867 C863 1.282 . S
H868 C841 0.931 . S
H869 C843 0.929 . S
H870 C844 0.930 . S
H871 C845 0.931 . S
H872 C852 0.932 . S
H873 C853 0.930 . S
H874 C854 0.929 . S
H875 C856 0.930 . S
H876 C858 0.932 . S
H877 C859 0.929 . S
H878 C860 0.928 . S
H879 C862 0.932 . S
C880 C881 1.264 . S
C880 C885 1.479 . S
C880 C890 1.465 . S
C881 C880 1.264 . S
C881 C883 1.339 . S
C881 H908 0.931 . S
C882 C883 1.395 . S
C882 C884 1.320 . S
C883 C881 1.339 . S
C883 C882 1.395 . S
C883 H909 0.929 . S
C884 C882 1.320 . S
C884 C885 1.405 . S
C884 H910 0.930 . S
C885 C880 1.479 . S
C885 C884 1.405 . S
C885 H911 0.931 . S
U886 O887 2.454 . S
U886 O888 2.458 . S
U886 C889 2.984 . S
U886 C890 2.847 . S
U886 C903 2.882 . S
U886 O904 2.441 . S
U886 O905 2.420 . S
U886 O906 2.455 . S
U886 O907 2.449 . S
O887 U886 2.454 . S
O887 C889 1.353 . S
O888 U886 2.458 . S
O888 C889 1.286 . S
C889 U886 2.984 . S
C889 O887 1.353 . S
C889 O888 1.286 . S
C889 C891 1.363 . S
C890 C880 1.465 . S
C890 U886 2.847 . S
C890 O904 1.249 . S
C890 O905 1.202 . S
C891 C889 1.363 . S
C891 C893 1.408 . S
C891 C896 1.342 . S
C892 C893 1.310 . S
C892 C895 1.461 . S
C892 H912 0.932 . S
C893 C891 1.408 . S
C893 C892 1.310 . S
C893 H913 0.930 . S
C894 C895 1.474 . S
C894 C896 1.285 . S
C894 H914 0.929 . S
C895 C892 1.461 . S
C895 C894 1.474 . S
C896 C891 1.342 . S
C896 C894 1.285 . S
C896 H915 0.930 . S
C897 C900 1.424 . S
C897 C902 1.245 . S
C897 C903 1.428 . S
C898 C901 1.260 . S
C898 C902 1.477 . S
C898 H916 0.932 . S
C899 C900 1.384 . S
C899 C901 1.479 . S
C899 H917 0.929 . S
C900 C897 1.424 . S
C900 C899 1.384 . S
C900 H918 0.928 . S
C901 C898 1.260 . S
C901 C899 1.479 . S
C902 C897 1.245 . S
C902 C898 1.477 . S
C902 H919 0.932 . S
C903 U886 2.882 . S
C903 C897 1.428 . S
C903 O906 1.301 . S
C903 O907 1.282 . S
O904 U886 2.441 . S
O904 C890 1.249 . S
O905 U886 2.420 . S
O905 C890 1.202 . S
O906 U886 2.455 . S
O906 C903 1.301 . S
O907 U886 2.449 . S
O907 C903 1.282 . S
H908 C881 0.931 . S
H909 C883 0.929 . S
H910 C884 0.930 . S
H911 C885 0.931 . S
H912 C892 0.932 . S
H913 C893 0.930 . S
H914 C894 0.929 . S
H915 C896 0.930 . S
H916 C898 0.932 . S
H917 C899 0.929 . S
H918 C900 0.928 . S
H919 C902 0.932 . S
C920 C921 1.264 . S
C920 C925 1.479 . S
C920 C930 1.465 . S
C921 C920 1.264 . S
C921 C923 1.339 . S
C921 H948 0.931 . S
C922 C923 1.395 . S
C922 C924 1.320 . S
C923 C921 1.339 . S
C923 C922 1.395 . S
C923 H949 0.929 . S
C924 C922 1.320 . S
C924 C925 1.405 . S
C924 H950 0.930 . S
C925 C920 1.479 . S
C925 C924 1.405 . S
C925 H951 0.931 . S
U926 O927 2.454 . S
U926 O928 2.458 . S
U926 C929 2.984 . S
U926 C930 2.847 . S
U926 C943 2.882 . S
U926 O944 2.441 . S
U926 O945 2.420 . S
U926 O946 2.455 . S
U926 O947 2.449 . S
O927 U926 2.454 . S
O927 C929 1.353 . S
O928 U926 2.458 . S
O928 C929 1.286 . S
C929 U926 2.984 . S
C929 O927 1.353 . S
C929 O928 1.286 . S
C929 C931 1.363 . S
C930 C920 1.465 . S
C930 U926 2.847 . S
C930 O944 1.249 . S
C930 O945 1.202 . S
C931 C929 1.363 . S
C931 C933 1.408 . S
C931 C936 1.342 . S
C932 C933 1.310 . S
C932 C935 1.461 . S
C932 H952 0.932 . S
C933 C931 1.408 . S
C933 C932 1.310 . S
C933 H953 0.930 . S
C934 C935 1.474 . S
C934 C936 1.285 . S
C934 H954 0.929 . S
C935 C932 1.461 . S
C935 C934 1.474 . S
C936 C931 1.342 . S
C936 C934 1.285 . S
C936 H955 0.930 . S
C937 C940 1.424 . S
C937 C942 1.245 . S
C937 C943 1.428 . S
C938 C941 1.260 . S
C938 C942 1.477 . S
C938 H956 0.932 . S
C939 C940 1.384 . S
C939 C941 1.479 . S
C939 H957 0.929 . S
C940 C937 1.424 . S
C940 C939 1.384 . S
C940 H958 0.928 . S
C941 C938 1.260 . S
C941 C939 1.479 . S
C942 C937 1.245 . S
C942 C938 1.477 . S
C942 H959 0.932 . S
C943 U926 2.882 . S
C943 C937 1.428 . S
C943 O946 1.301 . S
C943 O947 1.282 . S
O944 U926 2.441 . S
O944 C930 1.249 . S
O945 U926 2.420 . S
O945 C930 1.202 . S
O946 U926 2.455 . S
O946 C943 1.301 . S
O947 U926 2.449 . S
O947 C943 1.282 . S
H948 C921 0.931 . S
H949 C923 0.929 . S
H950 C924 0.930 . S
H951 C925 0.931 . S
H952 C932 0.932 . S
H953 C933 0.930 . S
H954 C934 0.929 . S
H955 C936 0.930 . S
H956 C938 0.932 . S
H957 C939 0.929 . S
H958 C940 0.928 . S
H959 C942 0.932 . S
C960 C961 1.264 . S
C960 C965 1.479 . S
C960 C970 1.465 . S
C961 C960 1.264 . S
C961 C963 1.339 . S
C961 H988 0.931 . S
C962 C963 1.395 . S
C962 C964 1.320 . S
C963 C961 1.339 . S
C963 C962 1.395 . S
C963 H989 0.929 . S
C964 C962 1.320 . S
C964 C965 1.405 . S
C964 H990 0.930 . S
C965 C960 1.479 . S
C965 C964 1.405 . S
C965 H991 0.931 . S
U966 O967 2.454 . S
U966 O968 2.458 . S
U966 C969 2.984 . S
U966 C970 2.847 . S
U966 C983 2.882 . S
U966 O984 2.441 . S
U966 O985 2.420 . S
U966 O986 2.455 . S
U966 O987 2.449 . S
O967 U966 2.454 . S
O967 C969 1.353 . S
O968 U966 2.458 . S
O968 C969 1.286 . S
C969 U966 2.984 . S
C969 O967 1.353 . S
C969 O968 1.286 . S
C969 C971 1.363 . S
C970 C960 1.465 . S
C970 U966 2.847 . S
C970 O984 1.249 . S
C970 O985 1.202 . S
C971 C969 1.363 . S
C971 C973 1.408 . S
C971 C976 1.342 . S
C972 C973 1.310 . S
C972 C975 1.461 . S
C972 H992 0.932 . S
C973 C971 1.408 . S
C973 C972 1.310 . S
C973 H993 0.930 . S
C974 C975 1.474 . S
C974 C976 1.285 . S
C974 H994 0.929 . S
C975 C972 1.461 . S
C975 C974 1.474 . S
C976 C971 1.342 . S
C976 C974 1.285 . S
C976 H995 0.930 . S
C977 C980 1.424 . S
C977 C982 1.245 . S
C977 C983 1.428 . S
C978 C981 1.260 . S
C978 C982 1.477 . S
C978 H996 0.932 . S
C979 C980 1.384 . S
C979 C981 1.479 . S
C979 H997 0.929 . S
C980 C977 1.424 . S
C980 C979 1.384 . S
C980 H998 0.928 . S
C981 C978 1.260 . S
C981 C979 1.479 . S
C982 C977 1.245 . S
C982 C978 1.477 . S
C982 H999 0.932 . S
C983 U966 2.882 . S
C983 C977 1.428 . S
C983 O986 1.301 . S
C983 O987 1.282 . S
O984 U966 2.441 . S
O984 C970 1.249 . S
O985 U966 2.420 . S
O985 C970 1.202 . S
O986 U966 2.455 . S
O986 C983 1.301 . S
O987 U966 2.449 . S
O987 C983 1.282 . S
H988 C961 0.931 . S
H989 C963 0.929 . S
H990 C964 0.930 . S
H991 C965 0.931 . S
H992 C972 0.932 . S
H993 C973 0.930 . S
H994 C974 0.929 . S
H995 C976 0.930 . S
H996 C978 0.932 . S
H997 C979 0.929 . S
H998 C980 0.928 . S
H999 C982 0.932 . S
C1000 C1001 1.264 . S
C1000 C1005 1.479 . S
C1000 C1010 1.465 . S
C1001 C1000 1.264 . S
C1001 C1003 1.339 . S
C1001 H1028 0.931 . S
C1002 C1003 1.395 . S
C1002 C1004 1.320 . S
C1003 C1001 1.339 . S
C1003 C1002 1.395 . S
C1003 H1029 0.929 . S
C1004 C1002 1.320 . S
C1004 C1005 1.405 . S
C1004 H1030 0.930 . S
C1005 C1000 1.479 . S
C1005 C1004 1.405 . S
C1005 H1031 0.931 . S
U1006 O1007 2.454 . S
U1006 O1008 2.458 . S
U1006 C1009 2.984 . S
U1006 C1010 2.847 . S
U1006 C1023 2.882 . S
U1006 O1024 2.441 . S
U1006 O1025 2.420 . S
U1006 O1026 2.455 . S
U1006 O1027 2.449 . S
O1007 U1006 2.454 . S
O1007 C1009 1.353 . S
O1008 U1006 2.458 . S
O1008 C1009 1.286 . S
C1009 U1006 2.984 . S
C1009 O1007 1.353 . S
C1009 O1008 1.286 . S
C1009 C1011 1.363 . S
C1010 C1000 1.465 . S
C1010 U1006 2.847 . S
C1010 O1024 1.249 . S
C1010 O1025 1.202 . S
C1011 C1009 1.363 . S
C1011 C1013 1.408 . S
C1011 C1016 1.342 . S
C1012 C1013 1.310 . S
C1012 C1015 1.461 . S
C1012 H1032 0.932 . S
C1013 C1011 1.408 . S
C1013 C1012 1.310 . S
C1013 H1033 0.930 . S
C1014 C1015 1.474 . S
C1014 C1016 1.285 . S
C1014 H1034 0.929 . S
C1015 C1012 1.461 . S
C1015 C1014 1.474 . S
C1016 C1011 1.342 . S
C1016 C1014 1.285 . S
C1016 H1035 0.930 . S
C1017 C1020 1.424 . S
C1017 C1022 1.245 . S
C1017 C1023 1.428 . S
C1018 C1021 1.260 . S
C1018 C1022 1.477 . S
C1018 H1036 0.932 . S
C1019 C1020 1.384 . S
C1019 C1021 1.479 . S
C1019 H1037 0.929 . S
C1020 C1017 1.424 . S
C1020 C1019 1.384 . S
C1020 H1038 0.928 . S
C1021 C1018 1.260 . S
C1021 C1019 1.479 . S
C1022 C1017 1.245 . S
C1022 C1018 1.477 . S
C1022 H1039 0.932 . S
C1023 U1006 2.882 . S
C1023 C1017 1.428 . S
C1023 O1026 1.301 . S
C1023 O1027 1.282 . S
O1024 U1006 2.441 . S
O1024 C1010 1.249 . S
O1025 U1006 2.420 . S
O1025 C1010 1.202 . S
O1026 U1006 2.455 . S
O1026 C1023 1.301 . S
O1027 U1006 2.449 . S
O1027 C1023 1.282 . S
H1028 C1001 0.931 . S
H1029 C1003 0.929 . S
H1030 C1004 0.930 . S
H1031 C1005 0.931 . S
H1032 C1012 0.932 . S
H1033 C1013 0.930 . S
H1034 C1014 0.929 . S
H1035 C1016 0.930 . S
H1036 C1018 0.932 . S
H1037 C1019 0.929 . S
H1038 C1020 0.928 . S
H1039 C1022 0.932 . S
C1040 C1041 1.264 . S
C1040 C1045 1.479 . S
C1040 C1050 1.465 . S
C1041 C1040 1.264 . S
C1041 C1043 1.339 . S
C1041 H1068 0.931 . S
C1042 C1043 1.395 . S
C1042 C1044 1.320 . S
C1043 C1041 1.339 . S
C1043 C1042 1.395 . S
C1043 H1069 0.929 . S
C1044 C1042 1.320 . S
C1044 C1045 1.405 . S
C1044 H1070 0.930 . S
C1045 C1040 1.479 . S
C1045 C1044 1.405 . S
C1045 H1071 0.931 . S
U1046 O1047 2.454 . S
U1046 O1048 2.458 . S
U1046 C1049 2.984 . S
U1046 C1050 2.847 . S
U1046 C1063 2.882 . S
U1046 O1064 2.441 . S
U1046 O1065 2.420 . S
U1046 O1066 2.455 . S
U1046 O1067 2.449 . S
O1047 U1046 2.454 . S
O1047 C1049 1.353 . S
O1048 U1046 2.458 . S
O1048 C1049 1.286 . S
C1049 U1046 2.984 . S
C1049 O1047 1.353 . S
C1049 O1048 1.286 . S
C1049 C1051 1.363 . S
C1050 C1040 1.465 . S
C1050 U1046 2.847 . S
C1050 O1064 1.249 . S
C1050 O1065 1.202 . S
C1051 C1049 1.363 . S
C1051 C1053 1.408 . S
C1051 C1056 1.342 . S
C1052 C1053 1.310 . S
C1052 C1055 1.461 . S
C1052 H1072 0.932 . S
C1053 C1051 1.408 . S
C1053 C1052 1.310 . S
C1053 H1073 0.930 . S
C1054 C1055 1.474 . S
C1054 C1056 1.285 . S
C1054 H1074 0.929 . S
C1055 C1052 1.461 . S
C1055 C1054 1.474 . S
C1056 C1051 1.342 . S
C1056 C1054 1.285 . S
C1056 H1075 0.930 . S
C1057 C1060 1.424 . S
C1057 C1062 1.245 . S
C1057 C1063 1.428 . S
C1058 C1061 1.260 . S
C1058 C1062 1.477 . S
C1058 H1076 0.932 . S
C1059 C1060 1.384 . S
C1059 C1061 1.479 . S
C1059 H1077 0.929 . S
C1060 C1057 1.424 . S
C1060 C1059 1.384 . S
C1060 H1078 0.928 . S
C1061 C1058 1.260 . S
C1061 C1059 1.479 . S
C1062 C1057 1.245 . S
C1062 C1058 1.477 . S
C1062 H1079 0.932 . S
C1063 U1046 2.882 . S
C1063 C1057 1.428 . S
C1063 O1066 1.301 . S
C1063 O1067 1.282 . S
O1064 U1046 2.441 . S
O1064 C1050 1.249 . S
O1065 U1046 2.420 . S
O1065 C1050 1.202 . S
O1066 U1046 2.455 . S
O1066 C1063 1.301 . S
O1067 U1046 2.449 . S
O1067 C1063 1.282 . S
H1068 C1041 0.931 . S
H1069 C1043 0.929 . S
H1070 C1044 0.930 . S
H1071 C1045 0.931 . S
H1072 C1052 0.932 . S
H1073 C1053 0.930 . S
H1074 C1054 0.929 . S
H1075 C1056 0.930 . S
H1076 C1058 0.932 . S
H1077 C1059 0.929 . S
H1078 C1060 0.928 . S
H1079 C1062 0.932 . S
C1080 C1081 1.264 . S
C1080 C1085 1.479 . S
C1080 C1090 1.465 . S
C1081 C1080 1.264 . S
C1081 C1083 1.339 . S
C1081 H1108 0.931 . S
C1082 C1083 1.395 . S
C1082 C1084 1.320 . S
C1083 C1081 1.339 . S
C1083 C1082 1.395 . S
C1083 H1109 0.929 . S
C1084 C1082 1.320 . S
C1084 C1085 1.405 . S
C1084 H1110 0.930 . S
C1085 C1080 1.479 . S
C1085 C1084 1.405 . S
C1085 H1111 0.931 . S
U1086 O1087 2.454 . S
U1086 O1088 2.458 . S
U1086 C1089 2.984 . S
U1086 C1090 2.847 . S
U1086 C1103 2.882 . S
U1086 O1104 2.441 . S
U1086 O1105 2.420 . S
U1086 O1106 2.455 . S
U1086 O1107 2.449 . S
O1087 U1086 2.454 . S
O1087 C1089 1.353 . S
O1088 U1086 2.458 . S
O1088 C1089 1.286 . S
C1089 U1086 2.984 . S
C1089 O1087 1.353 . S
C1089 O1088 1.286 . S
C1089 C1091 1.363 . S
C1090 C1080 1.465 . S
C1090 U1086 2.847 . S
C1090 O1104 1.249 . S
C1090 O1105 1.202 . S
C1091 C1089 1.363 . S
C1091 C1093 1.408 . S
C1091 C1096 1.342 . S
C1092 C1093 1.310 . S
C1092 C1095 1.461 . S
C1092 H1112 0.932 . S
C1093 C1091 1.408 . S
C1093 C1092 1.310 . S
C1093 H1113 0.930 . S
C1094 C1095 1.474 . S
C1094 C1096 1.285 . S
C1094 H1114 0.929 . S
C1095 C1092 1.461 . S
C1095 C1094 1.474 . S
C1096 C1091 1.342 . S
C1096 C1094 1.285 . S
C1096 H1115 0.930 . S
C1097 C1100 1.424 . S
C1097 C1102 1.245 . S
C1097 C1103 1.428 . S
C1098 C1101 1.260 . S
C1098 C1102 1.477 . S
C1098 H1116 0.932 . S
C1099 C1100 1.384 . S
C1099 C1101 1.479 . S
C1099 H1117 0.929 . S
C1100 C1097 1.424 . S
C1100 C1099 1.384 . S
C1100 H1118 0.928 . S
C1101 C1098 1.260 . S
C1101 C1099 1.479 . S
C1102 C1097 1.245 . S
C1102 C1098 1.477 . S
C1102 H1119 0.932 . S
C1103 U1086 2.882 . S
C1103 C1097 1.428 . S
C1103 O1106 1.301 . S
C1103 O1107 1.282 . S
O1104 U1086 2.441 . S
O1104 C1090 1.249 . S
O1105 U1086 2.420 . S
O1105 C1090 1.202 . S
O1106 U1086 2.455 . S
O1106 C1103 1.301 . S
O1107 U1086 2.449 . S
O1107 C1103 1.282 . S
H1108 C1081 0.931 . S
H1109 C1083 0.929 . S
H1110 C1084 0.930 . S
H1111 C1085 0.931 . S
H1112 C1092 0.932 . S
H1113 C1093 0.930 . S
H1114 C1094 0.929 . S
H1115 C1096 0.930 . S
H1116 C1098 0.932 . S
H1117 C1099 0.929 . S
H1118 C1100 0.928 . S
H1119 C1102 0.932 . S
C1120 C1121 1.264 . S
C1120 C1125 1.479 . S
C1120 C1130 1.465 . S
C1121 C1120 1.264 . S
C1121 C1123 1.339 . S
C1121 H1148 0.931 . S
C1122 C1123 1.395 . S
C1122 C1124 1.320 . S
C1123 C1121 1.339 . S
C1123 C1122 1.395 . S
C1123 H1149 0.929 . S
C1124 C1122 1.320 . S
C1124 C1125 1.405 . S
C1124 H1150 0.930 . S
C1125 C1120 1.479 . S
C1125 C1124 1.405 . S
C1125 H1151 0.931 . S
U1126 O1127 2.454 . S
U1126 O1128 2.458 . S
U1126 C1129 2.984 . S
U1126 C1130 2.847 . S
U1126 C1143 2.882 . S
U1126 O1144 2.441 . S
U1126 O1145 2.420 . S
U1126 O1146 2.455 . S
U1126 O1147 2.449 . S
O1127 U1126 2.454 . S
O1127 C1129 1.353 . S
O1128 U1126 2.458 . S
O1128 C1129 1.286 . S
C1129 U1126 2.984 . S
C1129 O1127 1.353 . S
C1129 O1128 1.286 . S
C1129 C1131 1.363 . S
C1130 C1120 1.465 . S
C1130 U1126 2.847 . S
C1130 O1144 1.249 . S
C1130 O1145 1.202 . S
C1131 C1129 1.363 . S
C1131 C1133 1.408 . S
C1131 C1136 1.342 . S
C1132 C1133 1.310 . S
C1132 C1135 1.461 . S
C1132 H1152 0.932 . S
C1133 C1131 1.408 . S
C1133 C1132 1.310 . S
C1133 H1153 0.930 . S
C1134 C1135 1.474 . S
C1134 C1136 1.285 . S
C1134 H1154 0.929 . S
C1135 C1132 1.461 . S
C1135 C1134 1.474 . S
C1136 C1131 1.342 . S
C1136 C1134 1.285 . S
C1136 H1155 0.930 . S
C1137 C1140 1.424 . S
C1137 C1142 1.245 . S
C1137 C1143 1.428 . S
C1138 C1141 1.260 . S
C1138 C1142 1.477 . S
C1138 H1156 0.932 . S
C1139 C1140 1.384 . S
C1139 C1141 1.479 . S
C1139 H1157 0.929 . S
C1140 C1137 1.424 . S
C1140 C1139 1.384 . S
C1140 H1158 0.928 . S
C1141 C1138 1.260 . S
C1141 C1139 1.479 . S
C1142 C1137 1.245 . S
C1142 C1138 1.477 . S
C1142 H1159 0.932 . S
C1143 U1126 2.882 . S
C1143 C1137 1.428 . S
C1143 O1146 1.301 . S
C1143 O1147 1.282 . S
O1144 U1126 2.441 . S
O1144 C1130 1.249 . S
O1145 U1126 2.420 . S
O1145 C1130 1.202 . S
O1146 U1126 2.455 . S
O1146 C1143 1.301 . S
O1147 U1126 2.449 . S
O1147 C1143 1.282 . S
H1148 C1121 0.931 . S
H1149 C1123 0.929 . S
H1150 C1124 0.930 . S
H1151 C1125 0.931 . S
H1152 C1132 0.932 . S
H1153 C1133 0.930 . S
H1154 C1134 0.929 . S
H1155 C1136 0.930 . S
H1156 C1138 0.932 . S
H1157 C1139 0.929 . S
H1158 C1140 0.928 . S
H1159 C1142 0.932 . S
C1160 C1161 1.264 . S
C1160 C1165 1.479 . S
C1160 C1170 1.465 . S
C1161 C1160 1.264 . S
C1161 C1163 1.339 . S
C1161 H1188 0.931 . S
C1162 C1163 1.395 . S
C1162 C1164 1.320 . S
C1163 C1161 1.339 . S
C1163 C1162 1.395 . S
C1163 H1189 0.929 . S
C1164 C1162 1.320 . S
C1164 C1165 1.405 . S
C1164 H1190 0.930 . S
C1165 C1160 1.479 . S
C1165 C1164 1.405 . S
C1165 H1191 0.931 . S
U1166 O1167 2.454 . S
U1166 O1168 2.458 . S
U1166 C1169 2.984 . S
U1166 C1170 2.847 . S
U1166 C1183 2.882 . S
U1166 O1184 2.441 . S
U1166 O1185 2.420 . S
U1166 O1186 2.455 . S
U1166 O1187 2.449 . S
O1167 U1166 2.454 . S
O1167 C1169 1.353 . S
O1168 U1166 2.458 . S
O1168 C1169 1.286 . S
C1169 U1166 2.984 . S
C1169 O1167 1.353 . S
C1169 O1168 1.286 . S
C1169 C1171 1.363 . S
C1170 C1160 1.465 . S
C1170 U1166 2.847 . S
C1170 O1184 1.249 . S
C1170 O1185 1.202 . S
C1171 C1169 1.363 . S
C1171 C1173 1.408 . S
C1171 C1176 1.342 . S
C1172 C1173 1.310 . S
C1172 C1175 1.461 . S
C1172 H1192 0.932 . S
C1173 C1171 1.408 . S
C1173 C1172 1.310 . S
C1173 H1193 0.930 . S
C1174 C1175 1.474 . S
C1174 C1176 1.285 . S
C1174 H1194 0.929 1_565 S
C1175 C1172 1.461 . S
C1175 C1174 1.474 . S
C1176 C1171 1.342 . S
C1176 C1174 1.285 . S
C1176 H1195 0.930 . S
C1177 C1180 1.397 1_545 S
C1177 C1182 1.306 . S
C1177 C1183 1.386 1_545 S
C1178 C1181 1.260 . S
C1178 C1182 1.477 . S
C1178 H1196 0.932 . S
C1179 C1180 1.384 1_545 S
C1179 C1181 1.479 . S
C1179 H1197 0.943 . S
C1180 C1177 1.397 1_565 S
C1180 C1179 1.384 1_565 S
C1180 H1198 0.928 . S
C1181 C1178 1.260 . S
C1181 C1179 1.479 . S
C1182 C1177 1.306 . S
C1182 C1178 1.477 . S
C1182 H1199 0.932 . S
C1183 U1166 2.882 . S
C1183 C1177 1.386 1_565 S
C1183 O1186 1.301 . S
C1183 O1187 1.282 . S
O1184 U1166 2.441 . S
O1184 C1170 1.249 . S
O1185 U1166 2.420 . S
O1185 C1170 1.202 . S
O1186 U1166 2.455 . S
O1186 C1183 1.301 . S
O1187 U1166 2.449 . S
O1187 C1183 1.282 . S
H1188 C1161 0.931 . S
H1189 C1163 0.929 . S
H1190 C1164 0.930 . S
H1191 C1165 0.931 . S
H1192 C1172 0.932 . S
H1193 C1173 0.930 . S
H1194 C1174 0.929 1_545 S
H1195 C1176 0.930 . S
H1196 C1178 0.932 . S
H1197 C1179 0.943 . S
H1198 C1180 0.928 . S
H1199 C1182 0.932 . S
C1200 C1201 1.264 . S
C1200 C1205 1.479 . S
C1200 C1210 1.465 . S
C1201 C1200 1.264 . S
C1201 C1203 1.339 . S
C1201 H1228 0.931 . S
C1202 C1203 1.395 . S
C1202 C1204 1.320 . S
C1203 C1201 1.339 . S
C1203 C1202 1.395 . S
C1203 H1229 0.929 . S
C1204 C1202 1.320 . S
C1204 C1205 1.405 . S
C1204 H1230 0.930 . S
C1205 C1200 1.479 . S
C1205 C1204 1.405 . S
C1205 H1231 0.931 . S
U1206 O1207 2.454 . S
U1206 O1208 2.458 . S
U1206 C1209 2.984 . S
U1206 C1210 2.847 . S
U1206 C1223 2.882 . S
U1206 O1224 2.441 . S
U1206 O1225 2.420 . S
U1206 O1226 2.455 . S
U1206 O1227 2.449 . S
O1207 U1206 2.454 . S
O1207 C1209 1.353 . S
O1208 U1206 2.458 . S
O1208 C1209 1.286 . S
C1209 U1206 2.984 . S
C1209 O1207 1.353 . S
C1209 O1208 1.286 . S
C1209 C1211 1.363 . S
C1210 C1200 1.465 . S
C1210 U1206 2.847 . S
C1210 O1224 1.249 . S
C1210 O1225 1.202 . S
C1211 C1209 1.363 . S
C1211 C1213 1.408 . S
C1211 C1216 1.342 . S
C1212 C1213 1.310 . S
C1212 C1215 1.461 . S
C1212 H1232 0.932 . S
C1213 C1211 1.408 . S
C1213 C1212 1.310 . S
C1213 H1233 0.930 . S
C1214 C1215 1.474 . S
C1214 C1216 1.285 . S
C1214 H1234 0.929 . S
C1215 C1212 1.461 . S
C1215 C1214 1.474 . S
C1216 C1211 1.342 . S
C1216 C1214 1.285 . S
C1216 H1235 0.930 . S
C1217 C1220 1.424 . S
C1217 C1222 1.245 . S
C1217 C1223 1.428 . S
C1218 C1221 1.260 . S
C1218 C1222 1.477 . S
C1218 H1236 0.932 . S
C1219 C1220 1.384 . S
C1219 C1221 1.479 . S
C1219 H1237 0.929 . S
C1220 C1217 1.424 . S
C1220 C1219 1.384 . S
C1220 H1238 0.928 . S
C1221 C1218 1.260 . S
C1221 C1219 1.479 . S
C1222 C1217 1.245 . S
C1222 C1218 1.477 . S
C1222 H1239 0.932 . S
C1223 U1206 2.882 . S
C1223 C1217 1.428 . S
C1223 O1226 1.301 . S
C1223 O1227 1.282 . S
O1224 U1206 2.441 . S
O1224 C1210 1.249 . S
O1225 U1206 2.420 . S
O1225 C1210 1.202 . S
O1226 U1206 2.455 . S
O1226 C1223 1.301 . S
O1227 U1206 2.449 . S
O1227 C1223 1.282 . S
H1228 C1201 0.931 . S
H1229 C1203 0.929 . S
H1230 C1204 0.930 . S
H1231 C1205 0.931 . S
H1232 C1212 0.932 . S
H1233 C1213 0.930 . S
H1234 C1214 0.929 . S
H1235 C1216 0.930 . S
H1236 C1218 0.932 . S
H1237 C1219 0.929 . S
H1238 C1220 0.928 . S
H1239 C1222 0.932 . S
C1240 C1241 1.264 . S
C1240 C1245 1.479 . S
C1240 C1250 1.465 . S
C1241 C1240 1.264 . S
C1241 C1243 1.339 . S
C1241 H1268 0.931 . S
C1242 C1243 1.395 . S
C1242 C1244 1.320 . S
C1243 C1241 1.339 . S
C1243 C1242 1.395 . S
C1243 H1269 0.929 . S
C1244 C1242 1.320 . S
C1244 C1245 1.405 . S
C1244 H1270 0.930 . S
C1245 C1240 1.479 . S
C1245 C1244 1.405 . S
C1245 H1271 0.931 . S
U1246 O1247 2.454 . S
U1246 O1248 2.458 . S
U1246 C1249 2.984 . S
U1246 C1250 2.847 . S
U1246 C1263 2.882 . S
U1246 O1264 2.441 . S
U1246 O1265 2.420 . S
U1246 O1266 2.455 . S
U1246 O1267 2.449 . S
O1247 U1246 2.454 . S
O1247 C1249 1.353 . S
O1248 U1246 2.458 . S
O1248 C1249 1.286 . S
C1249 U1246 2.984 . S
C1249 O1247 1.353 . S
C1249 O1248 1.286 . S
C1249 C1251 1.363 . S
C1250 C1240 1.465 . S
C1250 U1246 2.847 . S
C1250 O1264 1.249 . S
C1250 O1265 1.202 . S
C1251 C1249 1.363 . S
C1251 C1253 1.408 . S
C1251 C1256 1.342 . S
C1252 C1253 1.310 . S
C1252 C1255 1.461 . S
C1252 H1272 0.932 . S
C1253 C1251 1.408 . S
C1253 C1252 1.310 . S
C1253 H1273 0.930 . S
C1254 C1255 1.474 . S
C1254 C1256 1.285 . S
C1254 H1274 0.929 1_545 S
C1255 C1252 1.461 . S
C1255 C1254 1.474 . S
C1256 C1251 1.342 . S
C1256 C1254 1.285 . S
C1256 H1275 0.930 . S
C1257 C1260 1.397 1_565 S
C1257 C1262 1.306 . S
C1257 C1263 1.386 1_565 S
C1258 C1261 1.260 . S
C1258 C1262 1.477 . S
C1258 H1276 0.932 . S
C1259 C1260 1.384 1_565 S
C1259 C1261 1.479 . S
C1259 H1277 0.943 . S
C1260 C1257 1.397 1_545 S
C1260 C1259 1.384 1_545 S
C1260 H1278 0.928 . S
C1261 C1258 1.260 . S
C1261 C1259 1.479 . S
C1262 C1257 1.306 . S
C1262 C1258 1.477 . S
C1262 H1279 0.932 . S
C1263 U1246 2.882 . S
C1263 C1257 1.386 1_545 S
C1263 O1266 1.301 . S
C1263 O1267 1.282 . S
O1264 U1246 2.441 . S
O1264 C1250 1.249 . S
O1265 U1246 2.420 . S
O1265 C1250 1.202 . S
O1266 U1246 2.455 . S
O1266 C1263 1.301 . S
O1267 U1246 2.449 . S
O1267 C1263 1.282 . S
H1268 C1241 0.931 . S
H1269 C1243 0.929 . S
H1270 C1244 0.930 . S
H1271 C1245 0.931 . S
H1272 C1252 0.932 . S
H1273 C1253 0.930 . S
H1274 C1254 0.929 1_565 S
H1275 C1256 0.930 . S
H1276 C1258 0.932 . S
H1277 C1259 0.943 . S
H1278 C1260 0.928 . S
H1279 C1262 0.932 . S
C1280 C1281 1.264 . S
C1280 C1285 1.479 . S
C1280 C1290 1.465 . S
C1281 C1280 1.264 . S
C1281 C1283 1.339 . S
C1281 H1308 0.931 . S
C1282 C1283 1.395 . S
C1282 C1284 1.320 . S
C1283 C1281 1.339 . S
C1283 C1282 1.395 . S
C1283 H1309 0.929 . S
C1284 C1282 1.320 . S
C1284 C1285 1.405 . S
C1284 H1310 0.930 . S
C1285 C1280 1.479 . S
C1285 C1284 1.405 . S
C1285 H1311 0.931 . S
U1286 O1287 2.454 . S
U1286 O1288 2.458 . S
U1286 C1289 2.984 . S
U1286 C1290 2.847 . S
U1286 C1303 2.882 . S
U1286 O1304 2.441 . S
U1286 O1305 2.420 . S
U1286 O1306 2.455 . S
U1286 O1307 2.449 . S
O1287 U1286 2.454 . S
O1287 C1289 1.353 . S
O1288 U1286 2.458 . S
O1288 C1289 1.286 . S
C1289 U1286 2.984 . S
C1289 O1287 1.353 . S
C1289 O1288 1.286 . S
C1289 C1291 1.363 . S
C1290 C1280 1.465 . S
C1290 U1286 2.847 . S
C1290 O1304 1.249 . S
C1290 O1305 1.202 . S
C1291 C1289 1.363 . S
C1291 C1293 1.408 . S
C1291 C1296 1.342 . S
C1292 C1293 1.310 . S
C1292 C1295 1.461 . S
C1292 H1312 0.932 . S
C1293 C1291 1.408 . S
C1293 C1292 1.310 . S
C1293 H1313 0.930 . S
C1294 C1295 1.474 . S
C1294 C1296 1.285 . S
C1294 H1314 0.929 . S
C1295 C1292 1.461 . S
C1295 C1294 1.474 . S
C1296 C1291 1.342 . S
C1296 C1294 1.285 . S
C1296 H1315 0.930 . S
C1297 C1300 1.424 . S
C1297 C1302 1.245 . S
C1297 C1303 1.428 . S
C1298 C1301 1.260 . S
C1298 C1302 1.477 . S
C1298 H1316 0.932 . S
C1299 C1300 1.384 . S
C1299 C1301 1.479 . S
C1299 H1317 0.929 . S
C1300 C1297 1.424 . S
C1300 C1299 1.384 . S
C1300 H1318 0.928 . S
C1301 C1298 1.260 . S
C1301 C1299 1.479 . S
C1302 C1297 1.245 . S
C1302 C1298 1.477 . S
C1302 H1319 0.932 . S
C1303 U1286 2.882 . S
C1303 C1297 1.428 . S
C1303 O1306 1.301 . S
C1303 O1307 1.282 . S
O1304 U1286 2.441 . S
O1304 C1290 1.249 . S
O1305 U1286 2.420 . S
O1305 C1290 1.202 . S
O1306 U1286 2.455 . S
O1306 C1303 1.301 . S
O1307 U1286 2.449 . S
O1307 C1303 1.282 . S
H1308 C1281 0.931 . S
H1309 C1283 0.929 . S
H1310 C1284 0.930 . S
H1311 C1285 0.931 . S
H1312 C1292 0.932 . S
H1313 C1293 0.930 . S
H1314 C1294 0.929 . S
H1315 C1296 0.930 . S
H1316 C1298 0.932 . S
H1317 C1299 0.929 . S
H1318 C1300 0.928 . S
H1319 C1302 0.932 . S
C1320 C1321 1.264 . S
C1320 C1325 1.479 . S
C1320 C1330 1.465 . S
C1321 C1320 1.264 . S
C1321 C1323 1.339 . S
C1321 H1348 0.931 . S
C1322 C1323 1.395 . S
C1322 C1324 1.320 . S
C1323 C1321 1.339 . S
C1323 C1322 1.395 . S
C1323 H1349 0.929 . S
C1324 C1322 1.320 . S
C1324 C1325 1.405 . S
C1324 H1350 0.930 . S
C1325 C1320 1.479 . S
C1325 C1324 1.405 . S
C1325 H1351 0.931 . S
U1326 O1327 2.454 . S
U1326 O1328 2.458 . S
U1326 C1329 2.984 . S
U1326 C1330 2.847 . S
U1326 C1343 2.882 . S
U1326 O1344 2.441 . S
U1326 O1345 2.420 . S
U1326 O1346 2.455 . S
U1326 O1347 2.449 . S
O1327 U1326 2.454 . S
O1327 C1329 1.353 . S
O1328 U1326 2.458 . S
O1328 C1329 1.286 . S
C1329 U1326 2.984 . S
C1329 O1327 1.353 . S
C1329 O1328 1.286 . S
C1329 C1331 1.363 . S
C1330 C1320 1.465 . S
C1330 U1326 2.847 . S
C1330 O1344 1.249 . S
C1330 O1345 1.202 . S
C1331 C1329 1.363 . S
C1331 C1333 1.408 . S
C1331 C1336 1.342 . S
C1332 C1333 1.310 . S
C1332 C1335 1.461 . S
C1332 H1352 0.932 . S
C1333 C1331 1.408 . S
C1333 C1332 1.310 . S
C1333 H1353 0.930 . S
C1334 C1335 1.474 . S
C1334 C1336 1.285 . S
C1334 H1354 0.957 . S
C1335 C1332 1.461 . S
C1335 C1334 1.474 . S
C1336 C1331 1.342 . S
C1336 C1334 1.285 . S
C1336 H1355 0.930 . S
C1337 C1340 1.434 . S
C1337 C1342 1.224 1_556 S
C1337 C1343 1.444 . S
C1338 C1341 1.260 . S
C1338 C1342 1.477 . S
C1338 H1356 0.932 . S
C1339 C1340 1.384 1_554 S
C1339 C1341 1.479 . S
C1339 H1357 0.919 1_554 S
C1340 C1337 1.434 . S
C1340 C1339 1.384 1_556 S
C1340 H1358 0.928 . S
C1341 C1338 1.260 . S
C1341 C1339 1.479 . S
C1342 C1337 1.224 1_554 S
C1342 C1338 1.477 . S
C1342 H1359 0.932 . S
C1343 U1326 2.882 . S
C1343 C1337 1.444 . S
C1343 O1346 1.301 . S
C1343 O1347 1.282 . S
O1344 U1326 2.441 . S
O1344 C1330 1.249 . S
O1345 U1326 2.420 . S
O1345 C1330 1.202 . S
O1346 U1326 2.455 . S
O1346 C1343 1.301 . S
O1347 U1326 2.449 . S
O1347 C1343 1.282 . S
H1348 C1321 0.931 . S
H1349 C1323 0.929 . S
H1350 C1324 0.930 . S
H1351 C1325 0.931 . S
H1352 C1332 0.932 . S
H1353 C1333 0.930 . S
H1354 C1334 0.957 . S
H1355 C1336 0.930 . S
H1356 C1338 0.932 . S
H1357 C1339 0.919 1_556 S
H1358 C1340 0.928 . S
H1359 C1342 0.932 . S
C1360 C1361 1.264 . S
C1360 C1365 1.479 . S
C1360 C1370 1.465 . S
C1361 C1360 1.264 . S
C1361 C1363 1.339 . S
C1361 H1388 0.931 . S
C1362 C1363 1.395 . S
C1362 C1364 1.320 . S
C1363 C1361 1.339 . S
C1363 C1362 1.395 . S
C1363 H1389 0.929 . S
C1364 C1362 1.320 . S
C1364 C1365 1.405 . S
C1364 H1390 0.930 . S
C1365 C1360 1.479 . S
C1365 C1364 1.405 . S
C1365 H1391 0.931 . S
U1366 O1367 2.454 . S
U1366 O1368 2.458 . S
U1366 C1369 2.984 . S
U1366 C1370 2.847 . S
U1366 C1383 2.882 . S
U1366 O1384 2.441 . S
U1366 O1385 2.420 . S
U1366 O1386 2.455 . S
U1366 O1387 2.449 . S
O1367 U1366 2.454 . S
O1367 C1369 1.353 . S
O1368 U1366 2.458 . S
O1368 C1369 1.286 . S
C1369 U1366 2.984 . S
C1369 O1367 1.353 . S
C1369 O1368 1.286 . S
C1369 C1371 1.363 . S
C1370 C1360 1.465 . S
C1370 U1366 2.847 . S
C1370 O1384 1.249 . S
C1370 O1385 1.202 . S
C1371 C1369 1.363 . S
C1371 C1373 1.408 . S
C1371 C1376 1.342 . S
C1372 C1373 1.310 . S
C1372 C1375 1.461 . S
C1372 H1392 0.932 . S
C1373 C1371 1.408 . S
C1373 C1372 1.310 . S
C1373 H1393 0.930 . S
C1374 C1375 1.474 . S
C1374 C1376 1.285 . S
C1374 H1394 0.929 1_556 S
C1375 C1372 1.461 . S
C1375 C1374 1.474 . S
C1376 C1371 1.342 . S
C1376 C1374 1.285 . S
C1376 H1395 0.930 . S
C1377 C1380 1.424 1_554 S
C1377 C1382 1.245 . S
C1377 C1383 1.428 1_554 S
C1378 C1381 1.260 . S
C1378 C1382 1.477 . S
C1378 H1396 0.932 . S
C1379 C1380 1.384 1_554 S
C1379 C1381 1.479 . S
C1379 H1397 0.954 . S
C1380 C1377 1.424 1_556 S
C1380 C1379 1.384 1_556 S
C1380 H1398 0.928 . S
C1381 C1378 1.260 . S
C1381 C1379 1.479 . S
C1382 C1377 1.245 . S
C1382 C1378 1.477 . S
C1382 H1399 0.932 . S
C1383 U1366 2.882 . S
C1383 C1377 1.428 1_556 S
C1383 O1386 1.301 . S
C1383 O1387 1.282 . S
O1384 U1366 2.441 . S
O1384 C1370 1.249 . S
O1385 U1366 2.420 . S
O1385 C1370 1.202 . S
O1386 U1366 2.455 . S
O1386 C1383 1.301 . S
O1387 U1366 2.449 . S
O1387 C1383 1.282 . S
H1388 C1361 0.931 . S
H1389 C1363 0.929 . S
H1390 C1364 0.930 . S
H1391 C1365 0.931 . S
H1392 C1372 0.932 . S
H1393 C1373 0.930 . S
H1394 C1374 0.929 1_554 S
H1395 C1376 0.930 . S
H1396 C1378 0.932 . S
H1397 C1379 0.954 . S
H1398 C1380 0.928 . S
H1399 C1382 0.932 . S
C1400 C1401 1.264 . S
C1400 C1405 1.479 . S
C1400 C1410 1.465 . S
C1401 C1400 1.264 . S
C1401 C1403 1.339 . S
C1401 H1428 0.931 . S
C1402 C1403 1.395 . S
C1402 C1404 1.320 . S
C1403 C1401 1.339 . S
C1403 C1402 1.395 . S
C1403 H1429 0.929 . S
C1404 C1402 1.320 . S
C1404 C1405 1.405 . S
C1404 H1430 0.930 . S
C1405 C1400 1.479 . S
C1405 C1404 1.405 . S
C1405 H1431 0.931 . S
U1406 O1407 2.454 . S
U1406 O1408 2.458 . S
U1406 C1409 2.984 . S
U1406 C1410 2.847 . S
U1406 C1423 2.882 . S
U1406 O1424 2.441 . S
U1406 O1425 2.420 . S
U1406 O1426 2.455 . S
U1406 O1427 2.449 . S
O1407 U1406 2.454 . S
O1407 C1409 1.353 . S
O1408 U1406 2.458 . S
O1408 C1409 1.286 . S
C1409 U1406 2.984 . S
C1409 O1407 1.353 . S
C1409 O1408 1.286 . S
C1409 C1411 1.363 . S
C1410 C1400 1.465 . S
C1410 U1406 2.847 . S
C1410 O1424 1.249 . S
C1410 O1425 1.202 . S
C1411 C1409 1.363 . S
C1411 C1413 1.408 . S
C1411 C1416 1.342 . S
C1412 C1413 1.310 . S
C1412 C1415 1.461 . S
C1412 H1432 0.932 . S
C1413 C1411 1.408 . S
C1413 C1412 1.310 . S
C1413 H1433 0.930 . S
C1414 C1415 1.474 . S
C1414 C1416 1.285 . S
C1414 H1434 0.929 1_554 S
C1415 C1412 1.461 . S
C1415 C1414 1.474 . S
C1416 C1411 1.342 . S
C1416 C1414 1.285 . S
C1416 H1435 0.930 . S
C1417 C1420 1.424 1_556 S
C1417 C1422 1.245 . S
C1417 C1423 1.428 1_556 S
C1418 C1421 1.260 . S
C1418 C1422 1.477 . S
C1418 H1436 0.932 . S
C1419 C1420 1.384 1_556 S
C1419 C1421 1.479 . S
C1419 H1437 0.954 . S
C1420 C1417 1.424 1_554 S
C1420 C1419 1.384 1_554 S
C1420 H1438 0.928 . S
C1421 C1418 1.260 . S
C1421 C1419 1.479 . S
C1422 C1417 1.245 . S
C1422 C1418 1.477 . S
C1422 H1439 0.932 . S
C1423 U1406 2.882 . S
C1423 C1417 1.428 1_554 S
C1423 O1426 1.301 . S
C1423 O1427 1.282 . S
O1424 U1406 2.441 . S
O1424 C1410 1.249 . S
O1425 U1406 2.420 . S
O1425 C1410 1.202 . S
O1426 U1406 2.455 . S
O1426 C1423 1.301 . S
O1427 U1406 2.449 . S
O1427 C1423 1.282 . S
H1428 C1401 0.931 . S
H1429 C1403 0.929 . S
H1430 C1404 0.930 . S
H1431 C1405 0.931 . S
H1432 C1412 0.932 . S
H1433 C1413 0.930 . S
H1434 C1414 0.929 1_556 S
H1435 C1416 0.930 . S
H1436 C1418 0.932 . S
H1437 C1419 0.954 . S
H1438 C1420 0.928 . S
H1439 C1422 0.932 . S
C1440 C1441 1.264 . S
C1440 C1445 1.479 . S
C1440 C1450 1.465 . S
C1441 C1440 1.264 . S
C1441 C1443 1.339 . S
C1441 H1468 0.931 . S
C1442 C1443 1.395 . S
C1442 C1444 1.320 . S
C1443 C1441 1.339 . S
C1443 C1442 1.395 . S
C1443 H1469 0.929 . S
C1444 C1442 1.320 . S
C1444 C1445 1.405 . S
C1444 H1470 0.930 . S
C1445 C1440 1.479 . S
C1445 C1444 1.405 . S
C1445 H1471 0.931 . S
U1446 O1447 2.454 . S
U1446 O1448 2.458 . S
U1446 C1449 2.984 . S
U1446 C1450 2.847 . S
U1446 C1463 2.882 . S
U1446 O1464 2.441 . S
U1446 O1465 2.420 . S
U1446 O1466 2.455 . S
U1446 O1467 2.449 . S
O1447 U1446 2.454 . S
O1447 C1449 1.353 . S
O1448 U1446 2.458 . S
O1448 C1449 1.286 . S
C1449 U1446 2.984 . S
C1449 O1447 1.353 . S
C1449 O1448 1.286 . S
C1449 C1451 1.363 . S
C1450 C1440 1.465 . S
C1450 U1446 2.847 . S
C1450 O1464 1.249 . S
C1450 O1465 1.202 . S
C1451 C1449 1.363 . S
C1451 C1453 1.408 . S
C1451 C1456 1.342 . S
C1452 C1453 1.310 . S
C1452 C1455 1.461 . S
C1452 H1472 0.932 . S
C1453 C1451 1.408 . S
C1453 C1452 1.310 . S
C1453 H1473 0.930 . S
C1454 C1455 1.474 . S
C1454 C1456 1.285 . S
C1454 H1474 0.929 . S
C1455 C1452 1.461 . S
C1455 C1454 1.474 . S
C1456 C1451 1.342 . S
C1456 C1454 1.285 . S
C1456 H1475 0.930 . S
C1457 C1460 1.424 . S
C1457 C1462 1.245 . S
C1457 C1463 1.428 . S
C1458 C1461 1.260 . S
C1458 C1462 1.477 . S
C1458 H1476 0.932 . S
C1459 C1460 1.384 . S
C1459 C1461 1.479 . S
C1459 H1477 0.929 . S
C1460 C1457 1.424 . S
C1460 C1459 1.384 . S
C1460 H1478 0.928 . S
C1461 C1458 1.260 . S
C1461 C1459 1.479 . S
C1462 C1457 1.245 . S
C1462 C1458 1.477 . S
C1462 H1479 0.932 . S
C1463 U1446 2.882 . S
C1463 C1457 1.428 . S
C1463 O1466 1.301 . S
C1463 O1467 1.282 . S
O1464 U1446 2.441 . S
O1464 C1450 1.249 . S
O1465 U1446 2.420 . S
O1465 C1450 1.202 . S
O1466 U1446 2.455 . S
O1466 C1463 1.301 . S
O1467 U1446 2.449 . S
O1467 C1463 1.282 . S
H1468 C1441 0.931 . S
H1469 C1443 0.929 . S
H1470 C1444 0.930 . S
H1471 C1445 0.931 . S
H1472 C1452 0.932 . S
H1473 C1453 0.930 . S
H1474 C1454 0.929 . S
H1475 C1456 0.930 . S
H1476 C1458 0.932 . S
H1477 C1459 0.929 . S
H1478 C1460 0.928 . S
H1479 C1462 0.932 . S
C1480 C1481 1.264 . S
C1480 C1485 1.479 . S
C1480 C1490 1.465 . S
C1481 C1480 1.264 . S
C1481 C1483 1.339 . S
C1481 H1508 0.931 . S
C1482 C1483 1.395 . S
C1482 C1484 1.320 . S
C1483 C1481 1.339 . S
C1483 C1482 1.395 . S
C1483 H1509 0.929 . S
C1484 C1482 1.320 . S
C1484 C1485 1.405 . S
C1484 H1510 0.930 . S
C1485 C1480 1.479 . S
C1485 C1484 1.405 . S
C1485 H1511 0.931 . S
U1486 O1487 2.454 . S
U1486 O1488 2.458 . S
U1486 C1489 2.984 . S
U1486 C1490 2.847 . S
U1486 C1503 2.882 . S
U1486 O1504 2.441 . S
U1486 O1505 2.420 . S
U1486 O1506 2.455 . S
U1486 O1507 2.449 . S
O1487 U1486 2.454 . S
O1487 C1489 1.353 . S
O1488 U1486 2.458 . S
O1488 C1489 1.286 . S
C1489 U1486 2.984 . S
C1489 O1487 1.353 . S
C1489 O1488 1.286 . S
C1489 C1491 1.363 . S
C1490 C1480 1.465 . S
C1490 U1486 2.847 . S
C1490 O1504 1.249 . S
C1490 O1505 1.202 . S
C1491 C1489 1.363 . S
C1491 C1493 1.408 . S
C1491 C1496 1.342 . S
C1492 C1493 1.310 . S
C1492 C1495 1.461 . S
C1492 H1512 0.932 . S
C1493 C1491 1.408 . S
C1493 C1492 1.310 . S
C1493 H1513 0.930 . S
C1494 C1495 1.474 . S
C1494 C1496 1.285 . S
C1494 H1514 0.929 . S
C1495 C1492 1.461 . S
C1495 C1494 1.474 . S
C1496 C1491 1.342 . S
C1496 C1494 1.285 . S
C1496 H1515 0.930 . S
C1497 C1500 1.424 . S
C1497 C1502 1.245 . S
C1497 C1503 1.428 . S
C1498 C1501 1.260 . S
C1498 C1502 1.477 . S
C1498 H1516 0.932 . S
C1499 C1500 1.384 . S
C1499 C1501 1.479 . S
C1499 H1517 0.929 . S
C1500 C1497 1.424 . S
C1500 C1499 1.384 . S
C1500 H1518 0.928 . S
C1501 C1498 1.260 . S
C1501 C1499 1.479 . S
C1502 C1497 1.245 . S
C1502 C1498 1.477 . S
C1502 H1519 0.932 . S
C1503 U1486 2.882 . S
C1503 C1497 1.428 . S
C1503 O1506 1.301 . S
C1503 O1507 1.282 . S
O1504 U1486 2.441 . S
O1504 C1490 1.249 . S
O1505 U1486 2.420 . S
O1505 C1490 1.202 . S
O1506 U1486 2.455 . S
O1506 C1503 1.301 . S
O1507 U1486 2.449 . S
O1507 C1503 1.282 . S
H1508 C1481 0.931 . S
H1509 C1483 0.929 . S
H1510 C1484 0.930 . S
H1511 C1485 0.931 . S
H1512 C1492 0.932 . S
H1513 C1493 0.930 . S
H1514 C1494 0.929 . S
H1515 C1496 0.930 . S
H1516 C1498 0.932 . S
H1517 C1499 0.929 . S
H1518 C1500 0.928 . S
H1519 C1502 0.932 . S
C1520 C1521 1.264 . S
C1520 C1525 1.479 . S
C1520 C1530 1.465 . S
C1521 C1520 1.264 . S
C1521 C1523 1.339 . S
C1521 H1548 0.931 . S
C1522 C1523 1.395 . S
C1522 C1524 1.320 . S
C1523 C1521 1.339 . S
C1523 C1522 1.395 . S
C1523 H1549 0.929 . S
C1524 C1522 1.320 . S
C1524 C1525 1.405 . S
C1524 H1550 0.930 . S
C1525 C1520 1.479 . S
C1525 C1524 1.405 . S
C1525 H1551 0.931 . S
U1526 O1527 2.454 . S
U1526 O1528 2.458 . S
U1526 C1529 2.984 . S
U1526 C1530 2.847 . S
U1526 C1543 2.882 . S
U1526 O1544 2.441 . S
U1526 O1545 2.420 . S
U1526 O1546 2.455 . S
U1526 O1547 2.449 . S
O1527 U1526 2.454 . S
O1527 C1529 1.353 . S
O1528 U1526 2.458 . S
O1528 C1529 1.286 . S
C1529 U1526 2.984 . S
C1529 O1527 1.353 . S
C1529 O1528 1.286 . S
C1529 C1531 1.363 . S
C1530 C1520 1.465 . S
C1530 U1526 2.847 . S
C1530 O1544 1.249 . S
C1530 O1545 1.202 . S
C1531 C1529 1.363 . S
C1531 C1533 1.408 . S
C1531 C1536 1.342 . S
C1532 C1533 1.310 . S
C1532 C1535 1.461 . S
C1532 H1552 0.932 . S
C1533 C1531 1.408 . S
C1533 C1532 1.310 . S
C1533 H1553 0.930 . S
C1534 C1535 1.474 . S
C1534 C1536 1.285 . S
C1534 H1554 0.929 . S
C1535 C1532 1.461 . S
C1535 C1534 1.474 . S
C1536 C1531 1.342 . S
C1536 C1534 1.285 . S
C1536 H1555 0.930 . S
C1537 C1540 1.424 . S
C1537 C1542 1.245 . S
C1537 C1543 1.428 . S
C1538 C1541 1.260 . S
C1538 C1542 1.477 . S
C1538 H1556 0.932 . S
C1539 C1540 1.384 . S
C1539 C1541 1.479 . S
C1539 H1557 0.929 . S
C1540 C1537 1.424 . S
C1540 C1539 1.384 . S
C1540 H1558 0.928 . S
C1541 C1538 1.260 . S
C1541 C1539 1.479 . S
C1542 C1537 1.245 . S
C1542 C1538 1.477 . S
C1542 H1559 0.932 . S
C1543 U1526 2.882 . S
C1543 C1537 1.428 . S
C1543 O1546 1.301 . S
C1543 O1547 1.282 . S
O1544 U1526 2.441 . S
O1544 C1530 1.249 . S
O1545 U1526 2.420 . S
O1545 C1530 1.202 . S
O1546 U1526 2.455 . S
O1546 C1543 1.301 . S
O1547 U1526 2.449 . S
O1547 C1543 1.282 . S
H1548 C1521 0.931 . S
H1549 C1523 0.929 . S
H1550 C1524 0.930 . S
H1551 C1525 0.931 . S
H1552 C1532 0.932 . S
H1553 C1533 0.930 . S
H1554 C1534 0.929 . S
H1555 C1536 0.930 . S
H1556 C1538 0.932 . S
H1557 C1539 0.929 . S
H1558 C1540 0.928 . S
H1559 C1542 0.932 . S
C1560 C1561 1.264 . S
C1560 C1565 1.479 . S
C1560 C1570 1.465 . S
C1561 C1560 1.264 . S
C1561 C1563 1.339 . S
C1561 H1588 0.931 . S
C1562 C1563 1.395 . S
C1562 C1564 1.320 . S
C1563 C1561 1.339 . S
C1563 C1562 1.395 . S
C1563 H1589 0.929 . S
C1564 C1562 1.320 . S
C1564 C1565 1.405 . S
C1564 H1590 0.930 . S
C1565 C1560 1.479 . S
C1565 C1564 1.405 . S
C1565 H1591 0.931 . S
U1566 O1567 2.454 . S
U1566 O1568 2.458 . S
U1566 C1569 2.984 . S
U1566 C1570 2.847 . S
U1566 C1583 2.882 . S
U1566 O1584 2.441 . S
U1566 O1585 2.420 . S
U1566 O1586 2.455 . S
U1566 O1587 2.449 . S
O1567 U1566 2.454 . S
O1567 C1569 1.353 . S
O1568 U1566 2.458 . S
O1568 C1569 1.286 . S
C1569 U1566 2.984 . S
C1569 O1567 1.353 . S
C1569 O1568 1.286 . S
C1569 C1571 1.363 . S
C1570 C1560 1.465 . S
C1570 U1566 2.847 . S
C1570 O1584 1.249 . S
C1570 O1585 1.202 . S
C1571 C1569 1.363 . S
C1571 C1573 1.408 . S
C1571 C1576 1.342 . S
C1572 C1573 1.310 . S
C1572 C1575 1.461 . S
C1572 H1592 0.932 . S
C1573 C1571 1.408 . S
C1573 C1572 1.310 . S
C1573 H1593 0.930 . S
C1574 C1575 1.474 . S
C1574 C1576 1.285 . S
C1574 H1594 0.929 . S
C1575 C1572 1.461 . S
C1575 C1574 1.474 . S
C1576 C1571 1.342 . S
C1576 C1574 1.285 . S
C1576 H1595 0.930 . S
C1577 C1580 1.424 . S
C1577 C1582 1.245 . S
C1577 C1583 1.428 . S
C1578 C1581 1.260 . S
C1578 C1582 1.477 . S
C1578 H1596 0.932 . S
C1579 C1580 1.384 . S
C1579 C1581 1.479 . S
C1579 H1597 0.929 . S
C1580 C1577 1.424 . S
C1580 C1579 1.384 . S
C1580 H1598 0.928 . S
C1581 C1578 1.260 . S
C1581 C1579 1.479 . S
C1582 C1577 1.245 . S
C1582 C1578 1.477 . S
C1582 H1599 0.932 . S
C1583 U1566 2.882 . S
C1583 C1577 1.428 . S
C1583 O1586 1.301 . S
C1583 O1587 1.282 . S
O1584 U1566 2.441 . S
O1584 C1570 1.249 . S
O1585 U1566 2.420 . S
O1585 C1570 1.202 . S
O1586 U1566 2.455 . S
O1586 C1583 1.301 . S
O1587 U1566 2.449 . S
O1587 C1583 1.282 . S
H1588 C1561 0.931 . S
H1589 C1563 0.929 . S
H1590 C1564 0.930 . S
H1591 C1565 0.931 . S
H1592 C1572 0.932 . S
H1593 C1573 0.930 . S
H1594 C1574 0.929 . S
H1595 C1576 0.930 . S
H1596 C1578 0.932 . S
H1597 C1579 0.929 . S
H1598 C1580 0.928 . S
H1599 C1582 0.932 . S
C1600 C1601 1.264 . S
C1600 C1605 1.479 . S
C1600 C1610 1.465 . S
C1601 C1600 1.264 . S
C1601 C1603 1.339 . S
C1601 H1628 0.931 . S
C1602 C1603 1.395 . S
C1602 C1604 1.320 . S
C1603 C1601 1.339 . S
C1603 C1602 1.395 . S
C1603 H1629 0.929 . S
C1604 C1602 1.320 . S
C1604 C1605 1.405 . S
C1604 H1630 0.930 . S
C1605 C1600 1.479 . S
C1605 C1604 1.405 . S
C1605 H1631 0.931 . S
U1606 O1607 2.454 . S
U1606 O1608 2.458 . S
U1606 C1609 2.984 . S
U1606 C1610 2.847 . S
U1606 C1623 2.882 . S
U1606 O1624 2.441 . S
U1606 O1625 2.420 . S
U1606 O1626 2.455 . S
U1606 O1627 2.449 . S
O1607 U1606 2.454 . S
O1607 C1609 1.353 . S
O1608 U1606 2.458 . S
O1608 C1609 1.286 . S
C1609 U1606 2.984 . S
C1609 O1607 1.353 . S
C1609 O1608 1.286 . S
C1609 C1611 1.363 . S
C1610 C1600 1.465 . S
C1610 U1606 2.847 . S
C1610 O1624 1.249 . S
C1610 O1625 1.202 . S
C1611 C1609 1.363 . S
C1611 C1613 1.408 . S
C1611 C1616 1.342 . S
C1612 C1613 1.310 . S
C1612 C1615 1.461 . S
C1612 H1632 0.932 . S
C1613 C1611 1.408 . S
C1613 C1612 1.310 . S
C1613 H1633 0.930 . S
C1614 C1615 1.474 . S
C1614 C1616 1.285 . S
C1614 H1634 0.929 . S
C1615 C1612 1.461 . S
C1615 C1614 1.474 . S
C1616 C1611 1.342 . S
C1616 C1614 1.285 . S
C1616 H1635 0.930 . S
C1617 C1620 1.424 . S
C1617 C1622 1.245 . S
C1617 C1623 1.428 . S
C1618 C1621 1.260 . S
C1618 C1622 1.477 . S
C1618 H1636 0.932 . S
C1619 C1620 1.384 . S
C1619 C1621 1.479 . S
C1619 H1637 0.929 . S
C1620 C1617 1.424 . S
C1620 C1619 1.384 . S
C1620 H1638 0.928 . S
C1621 C1618 1.260 . S
C1621 C1619 1.479 . S
C1622 C1617 1.245 . S
C1622 C1618 1.477 . S
C1622 H1639 0.932 . S
C1623 U1606 2.882 . S
C1623 C1617 1.428 . S
C1623 O1626 1.301 . S
C1623 O1627 1.282 . S
O1624 U1606 2.441 . S
O1624 C1610 1.249 . S
O1625 U1606 2.420 . S
O1625 C1610 1.202 . S
O1626 U1606 2.455 . S
O1626 C1623 1.301 . S
O1627 U1606 2.449 . S
O1627 C1623 1.282 . S
H1628 C1601 0.931 . S
H1629 C1603 0.929 . S
H1630 C1604 0.930 . S
H1631 C1605 0.931 . S
H1632 C1612 0.932 . S
H1633 C1613 0.930 . S
H1634 C1614 0.929 . S
H1635 C1616 0.930 . S
H1636 C1618 0.932 . S
H1637 C1619 0.929 . S
H1638 C1620 0.928 . S
H1639 C1622 0.932 . S
C1640 C1641 1.264 . S
C1640 C1645 1.479 . S
C1640 C1650 1.465 1_565 S
C1641 C1640 1.264 . S
C1641 C1643 1.339 . S
C1641 H1668 0.931 1_565 S
C1642 C1643 1.395 . S
C1642 C1644 1.320 . S
C1643 C1641 1.339 . S
C1643 C1642 1.395 . S
C1643 H1669 0.929 . S
C1644 C1642 1.320 . S
C1644 C1645 1.405 . S
C1644 H1670 0.930 . S
C1645 C1640 1.479 . S
C1645 C1644 1.405 . S
C1645 H1671 0.931 . S
U1646 O1647 2.454 . S
U1646 O1648 2.458 . S
U1646 C1649 2.984 . S
U1646 C1650 2.847 . S
U1646 C1663 2.882 . S
U1646 O1664 2.469 . S
U1646 O1665 2.420 . S
U1646 O1666 2.455 . S
U1646 O1667 2.449 . S
O1647 U1646 2.454 . S
O1647 C1649 1.353 . S
O1648 U1646 2.458 . S
O1648 C1649 1.286 . S
C1649 U1646 2.984 . S
C1649 O1647 1.353 . S
C1649 O1648 1.286 . S
C1649 C1651 1.363 . S
C1650 C1640 1.465 1_545 S
C1650 U1646 2.847 . S
C1650 O1664 1.253 . S
C1650 O1665 1.202 . S
C1651 C1649 1.363 . S
C1651 C1653 1.408 . S
C1651 C1656 1.342 . S
C1652 C1653 1.310 . S
C1652 C1655 1.461 . S
C1652 H1672 0.932 1_545 S
C1653 C1651 1.408 . S
C1653 C1652 1.310 . S
C1653 H1673 0.930 1_545 S
C1654 C1655 1.474 . S
C1654 C1656 1.285 . S
C1654 H1674 0.929 . S
C1655 C1652 1.461 . S
C1655 C1654 1.474 . S
C1656 C1651 1.342 . S
C1656 C1654 1.285 . S
C1656 H1675 0.930 . S
C1657 C1660 1.424 . S
C1657 C1662 1.245 . S
C1657 C1663 1.428 . S
C1658 C1661 1.260 . S
C1658 C1662 1.477 . S
C1658 H1676 0.932 . S
C1659 C1660 1.384 . S
C1659 C1661 1.479 . S
C1659 H1677 0.929 . S
C1660 C1657 1.424 . S
C1660 C1659 1.384 . S
C1660 H1678 0.928 . S
C1661 C1658 1.260 . S
C1661 C1659 1.479 . S
C1662 C1657 1.245 . S
C1662 C1658 1.477 . S
C1662 H1679 0.932 . S
C1663 U1646 2.882 . S
C1663 C1657 1.428 . S
C1663 O1666 1.301 . S
C1663 O1667 1.282 . S
O1664 U1646 2.469 . S
O1664 C1650 1.253 . S
O1665 U1646 2.420 . S
O1665 C1650 1.202 . S
O1666 U1646 2.455 . S
O1666 C1663 1.301 . S
O1667 U1646 2.449 . S
O1667 C1663 1.282 . S
H1668 C1641 0.931 1_545 S
H1669 C1643 0.929 . S
H1670 C1644 0.930 . S
H1671 C1645 0.931 . S
H1672 C1652 0.932 1_565 S
H1673 C1653 0.930 1_565 S
H1674 C1654 0.929 . S
H1675 C1656 0.930 . S
H1676 C1658 0.932 . S
H1677 C1659 0.929 . S
H1678 C1660 0.928 . S
H1679 C1662 0.932 . S
C1680 C1681 1.264 . S
C1680 C1685 1.479 . S
C1680 C1690 1.465 . S
C1681 C1680 1.264 . S
C1681 C1683 1.339 . S
C1681 H1708 0.931 . S
C1682 C1683 1.395 . S
C1682 C1684 1.320 . S
C1683 C1681 1.339 . S
C1683 C1682 1.395 . S
C1683 H1709 0.929 . S
C1684 C1682 1.320 . S
C1684 C1685 1.405 . S
C1684 H1710 0.930 . S
C1685 C1680 1.479 . S
C1685 C1684 1.405 . S
C1685 H1711 0.931 . S
U1686 O1687 2.454 . S
U1686 O1688 2.458 . S
U1686 C1689 2.984 . S
U1686 C1690 2.847 . S
U1686 C1703 2.882 . S
U1686 O1704 2.441 . S
U1686 O1705 2.420 . S
U1686 O1706 2.455 . S
U1686 O1707 2.449 . S
O1687 U1686 2.454 . S
O1687 C1689 1.353 . S
O1688 U1686 2.458 . S
O1688 C1689 1.286 . S
C1689 U1686 2.984 . S
C1689 O1687 1.353 . S
C1689 O1688 1.286 . S
C1689 C1691 1.363 . S
C1690 C1680 1.465 . S
C1690 U1686 2.847 . S
C1690 O1704 1.249 . S
C1690 O1705 1.202 . S
C1691 C1689 1.363 . S
C1691 C1693 1.408 . S
C1691 C1696 1.342 . S
C1692 C1693 1.310 . S
C1692 C1695 1.461 . S
C1692 H1712 0.932 . S
C1693 C1691 1.408 . S
C1693 C1692 1.310 . S
C1693 H1713 0.930 . S
C1694 C1695 1.474 . S
C1694 C1696 1.285 . S
C1694 H1714 0.929 . S
C1695 C1692 1.461 . S
C1695 C1694 1.474 . S
C1696 C1691 1.342 . S
C1696 C1694 1.285 . S
C1696 H1715 0.930 . S
C1697 C1700 1.424 . S
C1697 C1702 1.245 . S
C1697 C1703 1.428 . S
C1698 C1701 1.260 . S
C1698 C1702 1.477 . S
C1698 H1716 0.932 . S
C1699 C1700 1.384 . S
C1699 C1701 1.479 . S
C1699 H1717 0.929 . S
C1700 C1697 1.424 . S
C1700 C1699 1.384 . S
C1700 H1718 0.928 . S
C1701 C1698 1.260 . S
C1701 C1699 1.479 . S
C1702 C1697 1.245 . S
C1702 C1698 1.477 . S
C1702 H1719 0.932 . S
C1703 U1686 2.882 . S
C1703 C1697 1.428 . S
C1703 O1706 1.301 . S
C1703 O1707 1.282 . S
O1704 U1686 2.441 . S
O1704 C1690 1.249 . S
O1705 U1686 2.420 . S
O1705 C1690 1.202 . S
O1706 U1686 2.455 . S
O1706 C1703 1.301 . S
O1707 U1686 2.449 . S
O1707 C1703 1.282 . S
H1708 C1681 0.931 . S
H1709 C1683 0.929 . S
H1710 C1684 0.930 . S
H1711 C1685 0.931 . S
H1712 C1692 0.932 . S
H1713 C1693 0.930 . S
H1714 C1694 0.929 . S
H1715 C1696 0.930 . S
H1716 C1698 0.932 . S
H1717 C1699 0.929 . S
H1718 C1700 0.928 . S
H1719 C1702 0.932 . S
C1720 C1721 1.264 . S
C1720 C1725 1.479 . S
C1720 C1730 1.465 1_545 S
C1721 C1720 1.264 . S
C1721 C1723 1.339 . S
C1721 H1748 0.931 1_545 S
C1722 C1723 1.395 . S
C1722 C1724 1.320 . S
C1723 C1721 1.339 . S
C1723 C1722 1.395 . S
C1723 H1749 0.929 . S
C1724 C1722 1.320 . S
C1724 C1725 1.405 . S
C1724 H1750 0.930 . S
C1725 C1720 1.479 . S
C1725 C1724 1.405 . S
C1725 H1751 0.931 . S
U1726 O1727 2.454 . S
U1726 O1728 2.458 . S
U1726 C1729 2.984 . S
U1726 C1730 2.847 . S
U1726 C1743 2.882 . S
U1726 O1744 2.469 . S
U1726 O1745 2.420 . S
U1726 O1746 2.455 . S
U1726 O1747 2.449 . S
O1727 U1726 2.454 . S
O1727 C1729 1.353 . S
O1728 U1726 2.458 . S
O1728 C1729 1.286 . S
C1729 U1726 2.984 . S
C1729 O1727 1.353 . S
C1729 O1728 1.286 . S
C1729 C1731 1.363 . S
C1730 C1720 1.465 1_565 S
C1730 U1726 2.847 . S
C1730 O1744 1.253 . S
C1730 O1745 1.202 . S
C1731 C1729 1.363 . S
C1731 C1733 1.408 . S
C1731 C1736 1.342 . S
C1732 C1733 1.310 . S
C1732 C1735 1.461 . S
C1732 H1752 0.932 1_565 S
C1733 C1731 1.408 . S
C1733 C1732 1.310 . S
C1733 H1753 0.930 1_565 S
C1734 C1735 1.474 . S
C1734 C1736 1.285 . S
C1734 H1754 0.929 . S
C1735 C1732 1.461 . S
C1735 C1734 1.474 . S
C1736 C1731 1.342 . S
C1736 C1734 1.285 . S
C1736 H1755 0.930 . S
C1737 C1740 1.424 . S
C1737 C1742 1.245 . S
C1737 C1743 1.428 . S
C1738 C1741 1.260 . S
C1738 C1742 1.477 . S
C1738 H1756 0.932 . S
C1739 C1740 1.384 . S
C1739 C1741 1.479 . S
C1739 H1757 0.929 . S
C1740 C1737 1.424 . S
C1740 C1739 1.384 . S
C1740 H1758 0.928 . S
C1741 C1738 1.260 . S
C1741 C1739 1.479 . S
C1742 C1737 1.245 . S
C1742 C1738 1.477 . S
C1742 H1759 0.932 . S
C1743 U1726 2.882 . S
C1743 C1737 1.428 . S
C1743 O1746 1.301 . S
C1743 O1747 1.282 . S
O1744 U1726 2.469 . S
O1744 C1730 1.253 . S
O1745 U1726 2.420 . S
O1745 C1730 1.202 . S
O1746 U1726 2.455 . S
O1746 C1743 1.301 . S
O1747 U1726 2.449 . S
O1747 C1743 1.282 . S
H1748 C1721 0.931 1_565 S
H1749 C1723 0.929 . S
H1750 C1724 0.930 . S
H1751 C1725 0.931 . S
H1752 C1732 0.932 1_545 S
H1753 C1733 0.930 1_545 S
H1754 C1734 0.929 . S
H1755 C1736 0.930 . S
H1756 C1738 0.932 . S
H1757 C1739 0.929 . S
H1758 C1740 0.928 . S
H1759 C1742 0.932 . S
C1760 C1761 1.264 . S
C1760 C1765 1.479 . S
C1760 C1770 1.465 . S
C1761 C1760 1.264 . S
C1761 C1763 1.339 . S
C1761 H1788 0.931 . S
C1762 C1763 1.395 . S
C1762 C1764 1.320 . S
C1763 C1761 1.339 . S
C1763 C1762 1.395 . S
C1763 H1789 0.929 . S
C1764 C1762 1.320 . S
C1764 C1765 1.405 . S
C1764 H1790 0.930 . S
C1765 C1760 1.479 . S
C1765 C1764 1.405 . S
C1765 H1791 0.931 . S
U1766 O1767 2.454 . S
U1766 O1768 2.458 . S
U1766 C1769 2.984 . S
U1766 C1770 2.847 . S
U1766 C1783 2.882 . S
U1766 O1784 2.441 . S
U1766 O1785 2.420 . S
U1766 O1786 2.455 . S
U1766 O1787 2.449 . S
O1767 U1766 2.454 . S
O1767 C1769 1.353 . S
O1768 U1766 2.458 . S
O1768 C1769 1.286 . S
C1769 U1766 2.984 . S
C1769 O1767 1.353 . S
C1769 O1768 1.286 . S
C1769 C1771 1.363 . S
C1770 C1760 1.465 . S
C1770 U1766 2.847 . S
C1770 O1784 1.249 . S
C1770 O1785 1.202 . S
C1771 C1769 1.363 . S
C1771 C1773 1.408 . S
C1771 C1776 1.342 . S
C1772 C1773 1.310 . S
C1772 C1775 1.461 . S
C1772 H1792 0.932 . S
C1773 C1771 1.408 . S
C1773 C1772 1.310 . S
C1773 H1793 0.930 . S
C1774 C1775 1.474 . S
C1774 C1776 1.285 . S
C1774 H1794 0.929 . S
C1775 C1772 1.461 . S
C1775 C1774 1.474 . S
C1776 C1771 1.342 . S
C1776 C1774 1.285 . S
C1776 H1795 0.930 . S
C1777 C1780 1.424 . S
C1777 C1782 1.245 . S
C1777 C1783 1.428 . S
C1778 C1781 1.260 . S
C1778 C1782 1.477 . S
C1778 H1796 0.932 . S
C1779 C1780 1.384 . S
C1779 C1781 1.479 . S
C1779 H1797 0.929 . S
C1780 C1777 1.424 . S
C1780 C1779 1.384 . S
C1780 H1798 0.928 . S
C1781 C1778 1.260 . S
C1781 C1779 1.479 . S
C1782 C1777 1.245 . S
C1782 C1778 1.477 . S
C1782 H1799 0.932 . S
C1783 U1766 2.882 . S
C1783 C1777 1.428 . S
C1783 O1786 1.301 . S
C1783 O1787 1.282 . S
O1784 U1766 2.441 . S
O1784 C1770 1.249 . S
O1785 U1766 2.420 . S
O1785 C1770 1.202 . S
O1786 U1766 2.455 . S
O1786 C1783 1.301 . S
O1787 U1766 2.449 . S
O1787 C1783 1.282 . S
H1788 C1761 0.931 . S
H1789 C1763 0.929 . S
H1790 C1764 0.930 . S
H1791 C1765 0.931 . S
H1792 C1772 0.932 . S
H1793 C1773 0.930 . S
H1794 C1774 0.929 . S
H1795 C1776 0.930 . S
H1796 C1778 0.932 . S
H1797 C1779 0.929 . S
H1798 C1780 0.928 . S
H1799 C1782 0.932 . S
C1800 C1801 1.264 . S
C1800 C1805 1.479 . S
C1800 C1810 1.465 . S
C1801 C1800 1.264 . S
C1801 C1803 1.339 . S
C1801 H1828 0.931 . S
C1802 C1803 1.395 . S
C1802 C1804 1.320 . S
C1803 C1801 1.339 . S
C1803 C1802 1.395 . S
C1803 H1829 0.929 . S
C1804 C1802 1.320 . S
C1804 C1805 1.405 . S
C1804 H1830 0.930 . S
C1805 C1800 1.479 . S
C1805 C1804 1.405 . S
C1805 H1831 0.931 . S
U1806 O1807 2.454 . S
U1806 O1808 2.458 . S
U1806 C1809 2.984 . S
U1806 C1810 2.847 . S
U1806 C1823 2.882 . S
U1806 O1824 2.441 . S
U1806 O1825 2.420 . S
U1806 O1826 2.455 . S
U1806 O1827 2.449 . S
O1807 U1806 2.454 . S
O1807 C1809 1.353 . S
O1808 U1806 2.458 . S
O1808 C1809 1.286 . S
C1809 U1806 2.984 . S
C1809 O1807 1.353 . S
C1809 O1808 1.286 . S
C1809 C1811 1.363 . S
C1810 C1800 1.465 . S
C1810 U1806 2.847 . S
C1810 O1824 1.249 . S
C1810 O1825 1.202 . S
C1811 C1809 1.363 . S
C1811 C1813 1.408 . S
C1811 C1816 1.342 . S
C1812 C1813 1.310 . S
C1812 C1815 1.461 . S
C1812 H1832 0.932 . S
C1813 C1811 1.408 . S
C1813 C1812 1.310 . S
C1813 H1833 0.930 . S
C1814 C1815 1.474 . S
C1814 C1816 1.285 . S
C1814 H1834 0.929 1_554 S
C1815 C1812 1.461 . S
C1815 C1814 1.474 . S
C1816 C1811 1.342 . S
C1816 C1814 1.285 . S
C1816 H1835 0.930 . S
C1817 C1820 1.424 . S
C1817 C1822 1.245 1_554 S
C1817 C1823 1.428 . S
C1818 C1821 1.260 . S
C1818 C1822 1.477 . S
C1818 H1836 0.932 . S
C1819 C1820 1.384 . S
C1819 C1821 1.479 1_554 S
C1819 H1837 0.929 . S
C1820 C1817 1.424 . S
C1820 C1819 1.384 . S
C1820 H1838 0.928 . S
C1821 C1818 1.260 . S
C1821 C1819 1.479 1_556 S
C1822 C1817 1.245 1_556 S
C1822 C1818 1.477 . S
C1822 H1839 0.932 . S
C1823 U1806 2.882 . S
C1823 C1817 1.428 . S
C1823 O1826 1.301 . S
C1823 O1827 1.282 . S
O1824 U1806 2.441 . S
O1824 C1810 1.249 . S
O1825 U1806 2.420 . S
O1825 C1810 1.202 . S
O1826 U1806 2.455 . S
O1826 C1823 1.301 . S
O1827 U1806 2.449 . S
O1827 C1823 1.282 . S
H1828 C1801 0.931 . S
H1829 C1803 0.929 . S
H1830 C1804 0.930 . S
H1831 C1805 0.931 . S
H1832 C1812 0.932 . S
H1833 C1813 0.930 . S
H1834 C1814 0.929 1_556 S
H1835 C1816 0.930 . S
H1836 C1818 0.932 . S
H1837 C1819 0.929 . S
H1838 C1820 0.928 . S
H1839 C1822 0.932 . S
C1840 C1841 1.264 . S
C1840 C1845 1.479 . S
C1840 C1850 1.465 . S
C1841 C1840 1.264 . S
C1841 C1843 1.339 . S
C1841 H1868 0.931 . S
C1842 C1843 1.395 . S
C1842 C1844 1.320 . S
C1843 C1841 1.339 . S
C1843 C1842 1.395 . S
C1843 H1869 0.929 . S
C1844 C1842 1.320 . S
C1844 C1845 1.405 . S
C1844 H1870 0.930 . S
C1845 C1840 1.479 . S
C1845 C1844 1.405 . S
C1845 H1871 0.931 . S
U1846 O1847 2.454 . S
U1846 O1848 2.458 . S
U1846 C1849 2.984 . S
U1846 C1850 2.847 . S
U1846 C1863 2.882 . S
U1846 O1864 2.441 . S
U1846 O1865 2.420 . S
U1846 O1866 2.455 . S
U1846 O1867 2.449 . S
O1847 U1846 2.454 . S
O1847 C1849 1.353 . S
O1848 U1846 2.458 . S
O1848 C1849 1.286 . S
C1849 U1846 2.984 . S
C1849 O1847 1.353 . S
C1849 O1848 1.286 . S
C1849 C1851 1.363 . S
C1850 C1840 1.465 . S
C1850 U1846 2.847 . S
C1850 O1864 1.249 . S
C1850 O1865 1.202 . S
C1851 C1849 1.363 . S
C1851 C1853 1.408 . S
C1851 C1856 1.342 . S
C1852 C1853 1.310 . S
C1852 C1855 1.461 . S
C1852 H1872 0.932 . S
C1853 C1851 1.408 . S
C1853 C1852 1.310 . S
C1853 H1873 0.930 . S
C1854 C1855 1.474 . S
C1854 C1856 1.285 . S
C1854 H1874 0.881 1_554 S
C1855 C1852 1.461 . S
C1855 C1854 1.474 . S
C1856 C1851 1.342 . S
C1856 C1854 1.285 . S
C1856 H1875 0.930 . S
C1857 C1860 1.424 . S
C1857 C1862 1.245 1_554 S
C1857 C1863 1.428 . S
C1858 C1861 1.260 . S
C1858 C1862 1.477 . S
C1858 H1876 0.932 . S
C1859 C1860 1.384 . S
C1859 C1861 1.479 1_554 S
C1859 H1877 0.929 . S
C1860 C1857 1.424 . S
C1860 C1859 1.384 . S
C1860 H1878 0.928 . S
C1861 C1858 1.260 . S
C1861 C1859 1.479 1_556 S
C1862 C1857 1.245 1_556 S
C1862 C1858 1.477 . S
C1862 H1879 0.932 . S
C1863 U1846 2.882 . S
C1863 C1857 1.428 . S
C1863 O1866 1.301 . S
C1863 O1867 1.282 . S
O1864 U1846 2.441 . S
O1864 C1850 1.249 . S
O1865 U1846 2.420 . S
O1865 C1850 1.202 . S
O1866 U1846 2.455 . S
O1866 C1863 1.301 . S
O1867 U1846 2.449 . S
O1867 C1863 1.282 . S
H1868 C1841 0.931 . S
H1869 C1843 0.929 . S
H1870 C1844 0.930 . S
H1871 C1845 0.931 . S
H1872 C1852 0.932 . S
H1873 C1853 0.930 . S
H1874 C1854 0.881 1_556 S
H1875 C1856 0.930 . S
H1876 C1858 0.932 . S
H1877 C1859 0.929 . S
H1878 C1860 0.928 . S
H1879 C1862 0.932 . S
C1880 C1881 1.264 . S
C1880 C1885 1.479 . S
C1880 C1890 1.465 . S
C1881 C1880 1.264 . S
C1881 C1883 1.339 . S
C1881 H1908 0.931 . S
C1882 C1883 1.395 . S
C1882 C1884 1.320 . S
C1883 C1881 1.339 . S
C1883 C1882 1.395 . S
C1883 H1909 0.929 . S
C1884 C1882 1.320 . S
C1884 C1885 1.405 . S
C1884 H1910 0.930 . S
C1885 C1880 1.479 . S
C1885 C1884 1.405 . S
C1885 H1911 0.931 . S
U1886 O1887 2.454 . S
U1886 O1888 2.458 . S
U1886 C1889 2.984 . S
U1886 C1890 2.847 . S
U1886 C1903 2.882 . S
U1886 O1904 2.441 . S
U1886 O1905 2.420 . S
U1886 O1906 2.455 . S
U1886 O1907 2.449 . S
O1887 U1886 2.454 . S
O1887 C1889 1.353 . S
O1888 U1886 2.458 . S
O1888 C1889 1.286 . S
C1889 U1886 2.984 . S
C1889 O1887 1.353 . S
C1889 O1888 1.286 . S
C1889 C1891 1.363 . S
C1890 C1880 1.465 . S
C1890 U1886 2.847 . S
C1890 O1904 1.249 . S
C1890 O1905 1.202 . S
C1891 C1889 1.363 . S
C1891 C1893 1.408 . S
C1891 C1896 1.342 . S
C1892 C1893 1.310 . S
C1892 C1895 1.461 . S
C1892 H1912 0.932 . S
C1893 C1891 1.408 . S
C1893 C1892 1.310 . S
C1893 H1913 0.930 . S
C1894 C1895 1.474 . S
C1894 C1896 1.285 . S
C1894 H1914 0.881 1_556 S
C1895 C1892 1.461 . S
C1895 C1894 1.474 . S
C1896 C1891 1.342 . S
C1896 C1894 1.285 . S
C1896 H1915 0.930 . S
C1897 C1900 1.424 . S
C1897 C1902 1.245 1_556 S
C1897 C1903 1.428 . S
C1898 C1901 1.260 . S
C1898 C1902 1.477 . S
C1898 H1916 0.932 . S
C1899 C1900 1.384 . S
C1899 C1901 1.479 1_556 S
C1899 H1917 0.929 . S
C1900 C1897 1.424 . S
C1900 C1899 1.384 . S
C1900 H1918 0.928 . S
C1901 C1898 1.260 . S
C1901 C1899 1.479 1_554 S
C1902 C1897 1.245 1_554 S
C1902 C1898 1.477 . S
C1902 H1919 0.932 . S
C1903 U1886 2.882 . S
C1903 C1897 1.428 . S
C1903 O1906 1.301 . S
C1903 O1907 1.282 . S
O1904 U1886 2.441 . S
O1904 C1890 1.249 . S
O1905 U1886 2.420 . S
O1905 C1890 1.202 . S
O1906 U1886 2.455 . S
O1906 C1903 1.301 . S
O1907 U1886 2.449 . S
O1907 C1903 1.282 . S
H1908 C1881 0.931 . S
H1909 C1883 0.929 . S
H1910 C1884 0.930 . S
H1911 C1885 0.931 . S
H1912 C1892 0.932 . S
H1913 C1893 0.930 . S
H1914 C1894 0.881 1_554 S
H1915 C1896 0.930 . S
H1916 C1898 0.932 . S
H1917 C1899 0.929 . S
H1918 C1900 0.928 . S
H1919 C1902 0.932 . S
C1920 C1921 1.369 . S
C1920 C1922 1.419 . S
C1920 H1924 0.930 . S
C1921 C1920 1.369 . S
C1921 C1930 1.429 . S
C1922 C1920 1.419 . S
C1922 C1923 1.363 . S
C1922 H1925 0.929 . S
C1923 C1922 1.363 . S
C1923 C1929 1.428 . S
H1924 C1920 0.930 . S
H1925 C1922 0.929 . S
S1926 N1927 1.613 . S
S1926 N1928 1.610 . S
N1927 S1926 1.613 . S
N1927 C1930 1.350 . S
N1928 S1926 1.610 . S
N1928 C1929 1.351 . S
C1929 C1923 1.428 . S
C1929 N1928 1.351 . S
C1929 C1930 1.434 . S
C1930 C1921 1.429 . S
C1930 N1927 1.350 . S
C1930 C1929 1.434 . S
C1931 C1932 1.369 . S
C1931 C1933 1.419 . S
C1931 H1935 0.930 . S
C1932 C1931 1.369 . S
C1932 C1941 1.429 . S
C1933 C1931 1.419 . S
C1933 C1934 1.363 . S
C1933 H1936 0.929 . S
C1934 C1933 1.363 . S
C1934 C1940 1.428 . S
H1935 C1931 0.930 . S
H1936 C1933 0.929 . S
S1937 N1938 1.613 . S
S1937 N1939 1.610 . S
N1938 S1937 1.613 . S
N1938 C1941 1.350 . S
N1939 S1937 1.610 . S
N1939 C1940 1.351 . S
C1940 C1934 1.428 . S
C1940 N1939 1.351 . S
C1940 C1941 1.434 . S
C1941 C1932 1.429 . S
C1941 N1938 1.350 . S
C1941 C1940 1.434 . S
C1942 C1943 1.369 . S
C1942 C1944 1.419 . S
C1942 H1946 0.930 . S
C1943 C1942 1.369 . S
C1943 C1952 1.429 . S
C1944 C1942 1.419 . S
C1944 C1945 1.363 . S
C1944 H1947 0.929 . S
C1945 C1944 1.363 . S
C1945 C1951 1.428 . S
H1946 C1942 0.930 . S
H1947 C1944 0.929 . S
S1948 N1949 1.613 . S
S1948 N1950 1.610 . S
N1949 S1948 1.613 . S
N1949 C1952 1.350 . S
N1950 S1948 1.610 . S
N1950 C1951 1.351 . S
C1951 C1945 1.428 . S
C1951 N1950 1.351 . S
C1951 C1952 1.434 . S
C1952 C1943 1.429 . S
C1952 N1949 1.350 . S
C1952 C1951 1.434 . S
C1953 C1954 1.369 . S
C1953 C1955 1.419 . S
C1953 H1957 0.930 . S
C1954 C1953 1.369 . S
C1954 C1963 1.429 . S
C1955 C1953 1.419 . S
C1955 C1956 1.363 . S
C1955 H1958 0.929 . S
C1956 C1955 1.363 . S
C1956 C1962 1.428 . S
H1957 C1953 0.930 . S
H1958 C1955 0.929 . S
S1959 N1960 1.613 . S
S1959 N1961 1.610 . S
N1960 S1959 1.613 . S
N1960 C1963 1.350 . S
N1961 S1959 1.610 . S
N1961 C1962 1.351 . S
C1962 C1956 1.428 . S
C1962 N1961 1.351 . S
C1962 C1963 1.434 . S
C1963 C1954 1.429 . S
C1963 N1960 1.350 . S
C1963 C1962 1.434 . S
C1964 C1965 1.369 . S
C1964 C1966 1.419 . S
C1964 H1968 0.930 . S
C1965 C1964 1.369 . S
C1965 C1974 1.429 . S
C1966 C1964 1.419 . S
C1966 C1967 1.363 . S
C1966 H1969 0.929 . S
C1967 C1966 1.363 . S
C1967 C1973 1.428 . S
H1968 C1964 0.930 . S
H1969 C1966 0.929 . S
S1970 N1971 1.613 . S
S1970 N1972 1.610 . S
N1971 S1970 1.613 . S
N1971 C1974 1.350 . S
N1972 S1970 1.610 . S
N1972 C1973 1.351 . S
C1973 C1967 1.428 . S
C1973 N1972 1.351 . S
C1973 C1974 1.434 . S
C1974 C1965 1.429 . S
C1974 N1971 1.350 . S
C1974 C1973 1.434 . S
C1975 C1976 1.369 . S
C1975 C1977 1.419 . S
C1975 H1979 0.930 . S
C1976 C1975 1.369 . S
C1976 C1985 1.429 . S
C1977 C1975 1.419 . S
C1977 C1978 1.363 . S
C1977 H1980 0.929 . S
C1978 C1977 1.363 . S
C1978 C1984 1.428 . S
H1979 C1975 0.930 . S
H1980 C1977 0.929 . S
S1981 N1982 1.613 . S
S1981 N1983 1.610 . S
N1982 S1981 1.613 . S
N1982 C1985 1.350 . S
N1983 S1981 1.610 . S
N1983 C1984 1.351 . S
C1984 C1978 1.428 . S
C1984 N1983 1.351 . S
C1984 C1985 1.434 . S
C1985 C1976 1.429 . S
C1985 N1982 1.350 . S
C1985 C1984 1.434 . S
C1986 C1987 1.369 . S
C1986 C1988 1.419 . S
C1986 H1990 0.930 . S
C1987 C1986 1.369 . S
C1987 C1996 1.429 . S
C1988 C1986 1.419 . S
C1988 C1989 1.363 . S
C1988 H1991 0.929 . S
C1989 C1988 1.363 . S
C1989 C1995 1.428 . S
H1990 C1986 0.930 . S
H1991 C1988 0.929 . S
S1992 N1993 1.613 . S
S1992 N1994 1.610 . S
N1993 S1992 1.613 . S
N1993 C1996 1.350 . S
N1994 S1992 1.610 . S
N1994 C1995 1.351 . S
C1995 C1989 1.428 . S
C1995 N1994 1.351 . S
C1995 C1996 1.434 . S
C1996 C1987 1.429 . S
C1996 N1993 1.350 . S
C1996 C1995 1.434 . S
C1997 C1998 1.369 . S
C1997 C1999 1.419 . S
C1997 H2001 0.930 . S
C1998 C1997 1.369 . S
C1998 C2007 1.429 . S
C1999 C1997 1.419 . S
C1999 C2000 1.363 . S
C1999 H2002 0.929 . S
C2000 C1999 1.363 . S
C2000 C2006 1.428 . S
H2001 C1997 0.930 . S
H2002 C1999 0.929 . S
S2003 N2004 1.613 . S
S2003 N2005 1.610 . S
N2004 S2003 1.613 . S
N2004 C2007 1.350 . S
N2005 S2003 1.610 . S
N2005 C2006 1.351 . S
C2006 C2000 1.428 . S
C2006 N2005 1.351 . S
C2006 C2007 1.434 . S
C2007 C1998 1.429 . S
C2007 N2004 1.350 . S
C2007 C2006 1.434 . S
C2008 C2009 1.369 . S
C2008 C2010 1.419 . S
C2008 H2012 0.930 . S
C2009 C2008 1.369 . S
C2009 C2018 1.429 . S
C2010 C2008 1.419 . S
C2010 C2011 1.363 . S
C2010 H2013 0.929 . S
C2011 C2010 1.363 . S
C2011 C2017 1.428 . S
H2012 C2008 0.930 . S
H2013 C2010 0.929 . S
S2014 N2015 1.613 . S
S2014 N2016 1.610 . S
N2015 S2014 1.613 . S
N2015 C2018 1.350 . S
N2016 S2014 1.610 . S
N2016 C2017 1.351 . S
C2017 C2011 1.428 . S
C2017 N2016 1.351 . S
C2017 C2018 1.434 . S
C2018 C2009 1.429 . S
C2018 N2015 1.350 . S
C2018 C2017 1.434 . S
C2019 C2020 1.369 . S
C2019 C2021 1.419 . S
C2019 H2023 0.930 . S
C2020 C2019 1.369 . S
C2020 C2029 1.429 . S
C2021 C2019 1.419 . S
C2021 C2022 1.363 . S
C2021 H2024 0.929 . S
C2022 C2021 1.363 . S
C2022 C2028 1.428 . S
H2023 C2019 0.930 . S
H2024 C2021 0.929 . S
S2025 N2026 1.613 . S
S2025 N2027 1.610 . S
N2026 S2025 1.613 . S
N2026 C2029 1.350 . S
N2027 S2025 1.610 . S
N2027 C2028 1.351 . S
C2028 C2022 1.428 . S
C2028 N2027 1.351 . S
C2028 C2029 1.434 . S
C2029 C2020 1.429 . S
C2029 N2026 1.350 . S
C2029 C2028 1.434 . S
C2030 C2031 1.369 . S
C2030 C2032 1.419 . S
C2030 H2034 0.930 . S
C2031 C2030 1.369 . S
C2031 C2040 1.429 . S
C2032 C2030 1.419 . S
C2032 C2033 1.363 . S
C2032 H2035 0.929 . S
C2033 C2032 1.363 . S
C2033 C2039 1.428 . S
H2034 C2030 0.930 . S
H2035 C2032 0.929 . S
S2036 N2037 1.613 . S
S2036 N2038 1.610 . S
N2037 S2036 1.613 . S
N2037 C2040 1.350 . S
N2038 S2036 1.610 . S
N2038 C2039 1.351 . S
C2039 C2033 1.428 . S
C2039 N2038 1.351 . S
C2039 C2040 1.434 . S
C2040 C2031 1.429 . S
C2040 N2037 1.350 . S
C2040 C2039 1.434 . S
C2041 C2042 1.369 . S
C2041 C2043 1.419 . S
C2041 H2045 0.930 . S
C2042 C2041 1.369 . S
C2042 C2051 1.429 . S
C2043 C2041 1.419 . S
C2043 C2044 1.363 . S
C2043 H2046 0.929 . S
C2044 C2043 1.363 . S
C2044 C2050 1.428 . S
H2045 C2041 0.930 . S
H2046 C2043 0.929 . S
S2047 N2048 1.613 . S
S2047 N2049 1.610 . S
N2048 S2047 1.613 . S
N2048 C2051 1.350 . S
N2049 S2047 1.610 . S
N2049 C2050 1.351 . S
C2050 C2044 1.428 . S
C2050 N2049 1.351 . S
C2050 C2051 1.434 . S
C2051 C2042 1.429 . S
C2051 N2048 1.350 . S
C2051 C2050 1.434 . S
C2052 C2053 1.369 . S
C2052 C2054 1.419 . S
C2052 H2056 0.930 . S
C2053 C2052 1.369 . S
C2053 C2062 1.429 . S
C2054 C2052 1.419 . S
C2054 C2055 1.363 . S
C2054 H2057 0.929 . S
C2055 C2054 1.363 . S
C2055 C2061 1.428 . S
H2056 C2052 0.930 . S
H2057 C2054 0.929 . S
S2058 N2059 1.613 . S
S2058 N2060 1.610 . S
N2059 S2058 1.613 . S
N2059 C2062 1.350 . S
N2060 S2058 1.610 . S
N2060 C2061 1.351 . S
C2061 C2055 1.428 . S
C2061 N2060 1.351 . S
C2061 C2062 1.434 . S
C2062 C2053 1.429 . S
C2062 N2059 1.350 . S
C2062 C2061 1.434 . S
C2063 C2064 1.369 . S
C2063 C2065 1.419 . S
C2063 H2067 0.930 . S
C2064 C2063 1.369 . S
C2064 C2073 1.429 . S
C2065 C2063 1.419 . S
C2065 C2066 1.363 . S
C2065 H2068 0.929 . S
C2066 C2065 1.363 . S
C2066 C2072 1.428 . S
H2067 C2063 0.930 . S
H2068 C2065 0.929 . S
S2069 N2070 1.613 . S
S2069 N2071 1.610 . S
N2070 S2069 1.613 . S
N2070 C2073 1.350 . S
N2071 S2069 1.610 . S
N2071 C2072 1.351 . S
C2072 C2066 1.428 . S
C2072 N2071 1.351 . S
C2072 C2073 1.434 . S
C2073 C2064 1.429 . S
C2073 N2070 1.350 . S
C2073 C2072 1.434 . S
C2074 C2075 1.369 . S
C2074 C2076 1.419 . S
C2074 H2078 0.930 . S
C2075 C2074 1.369 . S
C2075 C2084 1.429 . S
C2076 C2074 1.419 . S
C2076 C2077 1.363 . S
C2076 H2079 0.929 . S
C2077 C2076 1.363 . S
C2077 C2083 1.428 . S
H2078 C2074 0.930 . S
H2079 C2076 0.929 . S
S2080 N2081 1.613 . S
S2080 N2082 1.610 . S
N2081 S2080 1.613 . S
N2081 C2084 1.350 . S
N2082 S2080 1.610 . S
N2082 C2083 1.351 . S
C2083 C2077 1.428 . S
C2083 N2082 1.351 . S
C2083 C2084 1.434 . S
C2084 C2075 1.429 . S
C2084 N2081 1.350 . S
C2084 C2083 1.434 . S
C2085 C2086 1.369 . S
C2085 C2087 1.419 . S
C2085 H2089 0.930 . S
C2086 C2085 1.369 . S
C2086 C2095 1.429 . S
C2087 C2085 1.419 . S
C2087 C2088 1.363 . S
C2087 H2090 0.929 . S
C2088 C2087 1.363 . S
C2088 C2094 1.428 . S
H2089 C2085 0.930 . S
H2090 C2087 0.929 . S
S2091 N2092 1.613 . S
S2091 N2093 1.610 . S
N2092 S2091 1.613 . S
N2092 C2095 1.350 . S
N2093 S2091 1.610 . S
N2093 C2094 1.351 . S
C2094 C2088 1.428 . S
C2094 N2093 1.351 . S
C2094 C2095 1.434 . S
C2095 C2086 1.429 . S
C2095 N2092 1.350 . S
C2095 C2094 1.434 . S
C2096 C2097 1.369 . S
C2096 C2098 1.419 . S
C2096 H2100 0.930 . S
C2097 C2096 1.369 . S
C2097 C2106 1.429 . S
C2098 C2096 1.419 . S
C2098 C2099 1.363 . S
C2098 H2101 0.929 . S
C2099 C2098 1.363 . S
C2099 C2105 1.428 . S
H2100 C2096 0.930 . S
H2101 C2098 0.929 . S
S2102 N2103 1.613 . S
S2102 N2104 1.610 . S
N2103 S2102 1.613 . S
N2103 C2106 1.350 . S
N2104 S2102 1.610 . S
N2104 C2105 1.351 . S
C2105 C2099 1.428 . S
C2105 N2104 1.351 . S
C2105 C2106 1.434 . S
C2106 C2097 1.429 . S
C2106 N2103 1.350 . S
C2106 C2105 1.434 . S
C2107 C2108 1.369 . S
C2107 C2109 1.419 . S
C2107 H2111 0.930 . S
C2108 C2107 1.369 . S
C2108 C2117 1.429 . S
C2109 C2107 1.419 . S
C2109 C2110 1.363 . S
C2109 H2112 0.929 . S
C2110 C2109 1.363 . S
C2110 C2116 1.428 . S
H2111 C2107 0.930 . S
H2112 C2109 0.929 . S
S2113 N2114 1.613 . S
S2113 N2115 1.610 . S
N2114 S2113 1.613 . S
N2114 C2117 1.350 . S
N2115 S2113 1.610 . S
N2115 C2116 1.351 . S
C2116 C2110 1.428 . S
C2116 N2115 1.351 . S
C2116 C2117 1.434 . S
C2117 C2108 1.429 . S
C2117 N2114 1.350 . S
C2117 C2116 1.434 . S
C2118 C2119 1.369 . S
C2118 C2120 1.419 . S
C2118 H2122 0.930 . S
C2119 C2118 1.369 . S
C2119 C2128 1.429 . S
C2120 C2118 1.419 . S
C2120 C2121 1.363 . S
C2120 H2123 0.929 . S
C2121 C2120 1.363 . S
C2121 C2127 1.428 . S
H2122 C2118 0.930 . S
H2123 C2120 0.929 . S
S2124 N2125 1.613 . S
S2124 N2126 1.610 . S
N2125 S2124 1.613 . S
N2125 C2128 1.350 . S
N2126 S2124 1.610 . S
N2126 C2127 1.351 . S
C2127 C2121 1.428 . S
C2127 N2126 1.351 . S
C2127 C2128 1.434 . S
C2128 C2119 1.429 . S
C2128 N2125 1.350 . S
C2128 C2127 1.434 . S
C2129 C2130 1.369 . S
C2129 C2131 1.419 . S
C2129 H2133 0.930 . S
C2130 C2129 1.369 . S
C2130 C2139 1.429 . S
C2131 C2129 1.419 . S
C2131 C2132 1.363 . S
C2131 H2134 0.929 . S
C2132 C2131 1.363 . S
C2132 C2138 1.428 . S
H2133 C2129 0.930 . S
H2134 C2131 0.929 . S
S2135 N2136 1.613 . S
S2135 N2137 1.610 . S
N2136 S2135 1.613 . S
N2136 C2139 1.350 . S
N2137 S2135 1.610 . S
N2137 C2138 1.351 . S
C2138 C2132 1.428 . S
C2138 N2137 1.351 . S
C2138 C2139 1.434 . S
C2139 C2130 1.429 . S
C2139 N2136 1.350 . S
C2139 C2138 1.434 . S
C2140 C2141 1.369 . S
C2140 C2142 1.419 . S
C2140 H2144 0.930 . S
C2141 C2140 1.369 . S
C2141 C2150 1.429 . S
C2142 C2140 1.419 . S
C2142 C2143 1.363 . S
C2142 H2145 0.929 . S
C2143 C2142 1.363 . S
C2143 C2149 1.428 . S
H2144 C2140 0.930 . S
H2145 C2142 0.929 . S
S2146 N2147 1.613 . S
S2146 N2148 1.610 . S
N2147 S2146 1.613 . S
N2147 C2150 1.350 . S
N2148 S2146 1.610 . S
N2148 C2149 1.351 . S
C2149 C2143 1.428 . S
C2149 N2148 1.351 . S
C2149 C2150 1.434 . S
C2150 C2141 1.429 . S
C2150 N2147 1.350 . S
C2150 C2149 1.434 . S
C2151 C2152 1.369 . S
C2151 C2153 1.419 . S
C2151 H2155 0.930 . S
C2152 C2151 1.369 . S
C2152 C2161 1.429 . S
C2153 C2151 1.419 . S
C2153 C2154 1.363 . S
C2153 H2156 0.929 . S
C2154 C2153 1.363 . S
C2154 C2160 1.428 . S
H2155 C2151 0.930 . S
H2156 C2153 0.929 . S
S2157 N2158 1.613 . S
S2157 N2159 1.610 . S
N2158 S2157 1.613 . S
N2158 C2161 1.350 . S
N2159 S2157 1.610 . S
N2159 C2160 1.351 . S
C2160 C2154 1.428 . S
C2160 N2159 1.351 . S
C2160 C2161 1.434 . S
C2161 C2152 1.429 . S
C2161 N2158 1.350 . S
C2161 C2160 1.434 . S
C2162 C2163 1.369 . S
C2162 C2164 1.419 . S
C2162 H2166 0.930 . S
C2163 C2162 1.369 . S
C2163 C2172 1.429 . S
C2164 C2162 1.419 . S
C2164 C2165 1.363 . S
C2164 H2167 0.929 . S
C2165 C2164 1.363 . S
C2165 C2171 1.428 . S
H2166 C2162 0.930 . S
H2167 C2164 0.929 . S
S2168 N2169 1.613 . S
S2168 N2170 1.610 . S
N2169 S2168 1.613 . S
N2169 C2172 1.350 . S
N2170 S2168 1.610 . S
N2170 C2171 1.351 . S
C2171 C2165 1.428 . S
C2171 N2170 1.351 . S
C2171 C2172 1.434 . S
C2172 C2163 1.429 . S
C2172 N2169 1.350 . S
C2172 C2171 1.434 . S
C2173 C2174 1.369 . S
C2173 C2175 1.419 . S
C2173 H2177 0.930 . S
C2174 C2173 1.369 . S
C2174 C2183 1.429 . S
C2175 C2173 1.419 . S
C2175 C2176 1.363 . S
C2175 H2178 0.929 . S
C2176 C2175 1.363 . S
C2176 C2182 1.428 . S
H2177 C2173 0.930 . S
H2178 C2175 0.929 . S
S2179 N2180 1.613 . S
S2179 N2181 1.610 . S
N2180 S2179 1.613 . S
N2180 C2183 1.350 . S
N2181 S2179 1.610 . S
N2181 C2182 1.351 . S
C2182 C2176 1.428 . S
C2182 N2181 1.351 . S
C2182 C2183 1.434 . S
C2183 C2174 1.429 . S
C2183 N2180 1.350 . S
C2183 C2182 1.434 . S
C2184 C2185 1.369 . S
C2184 C2186 1.419 . S
C2184 H2188 0.930 . S
C2185 C2184 1.369 . S
C2185 C2194 1.429 . S
C2186 C2184 1.419 . S
C2186 C2187 1.363 . S
C2186 H2189 0.929 . S
C2187 C2186 1.363 . S
C2187 C2193 1.428 . S
H2188 C2184 0.930 . S
H2189 C2186 0.929 . S
S2190 N2191 1.613 . S
S2190 N2192 1.610 . S
N2191 S2190 1.613 . S
N2191 C2194 1.350 . S
N2192 S2190 1.610 . S
N2192 C2193 1.351 . S
C2193 C2187 1.428 . S
C2193 N2192 1.351 . S
C2193 C2194 1.434 . S
C2194 C2185 1.429 . S
C2194 N2191 1.350 . S
C2194 C2193 1.434 . S
C2195 C2196 1.369 . S
C2195 C2197 1.419 . S
C2195 H2199 0.930 . S
C2196 C2195 1.369 . S
C2196 C2205 1.429 . S
C2197 C2195 1.419 . S
C2197 C2198 1.363 . S
C2197 H2200 0.929 . S
C2198 C2197 1.363 . S
C2198 C2204 1.428 . S
H2199 C2195 0.930 . S
H2200 C2197 0.929 . S
S2201 N2202 1.613 . S
S2201 N2203 1.610 . S
N2202 S2201 1.613 . S
N2202 C2205 1.350 . S
N2203 S2201 1.610 . S
N2203 C2204 1.351 . S
C2204 C2198 1.428 . S
C2204 N2203 1.351 . S
C2204 C2205 1.434 . S
C2205 C2196 1.429 . S
C2205 N2202 1.350 . S
C2205 C2204 1.434 . S
C2206 C2207 1.369 . S
C2206 C2208 1.419 . S
C2206 H2210 0.930 . S
C2207 C2206 1.369 . S
C2207 C2216 1.429 . S
C2208 C2206 1.419 . S
C2208 C2209 1.363 . S
C2208 H2211 0.929 . S
C2209 C2208 1.363 . S
C2209 C2215 1.428 . S
H2210 C2206 0.930 . S
H2211 C2208 0.929 . S
S2212 N2213 1.613 . S
S2212 N2214 1.610 . S
N2213 S2212 1.613 . S
N2213 C2216 1.350 . S
N2214 S2212 1.610 . S
N2214 C2215 1.351 . S
C2215 C2209 1.428 . S
C2215 N2214 1.351 . S
C2215 C2216 1.434 . S
C2216 C2207 1.429 . S
C2216 N2213 1.350 . S
C2216 C2215 1.434 . S
C2217 C2218 1.369 . S
C2217 C2219 1.419 . S
C2217 H2221 0.930 . S
C2218 C2217 1.369 . S
C2218 C2227 1.429 . S
C2219 C2217 1.419 . S
C2219 C2220 1.363 . S
C2219 H2222 0.929 . S
C2220 C2219 1.363 . S
C2220 C2226 1.428 . S
H2221 C2217 0.930 . S
H2222 C2219 0.929 . S
S2223 N2224 1.613 . S
S2223 N2225 1.610 . S
N2224 S2223 1.613 . S
N2224 C2227 1.350 . S
N2225 S2223 1.610 . S
N2225 C2226 1.351 . S
C2226 C2220 1.428 . S
C2226 N2225 1.351 . S
C2226 C2227 1.434 . S
C2227 C2218 1.429 . S
C2227 N2224 1.350 . S
C2227 C2226 1.434 . S
C2228 C2229 1.369 . S
C2228 C2230 1.419 . S
C2228 H2232 0.930 . S
C2229 C2228 1.369 . S
C2229 C2238 1.429 . S
C2230 C2228 1.419 . S
C2230 C2231 1.363 . S
C2230 H2233 0.929 . S
C2231 C2230 1.363 . S
C2231 C2237 1.428 . S
H2232 C2228 0.930 . S
H2233 C2230 0.929 . S
S2234 N2235 1.613 . S
S2234 N2236 1.610 . S
N2235 S2234 1.613 . S
N2235 C2238 1.350 . S
N2236 S2234 1.610 . S
N2236 C2237 1.351 . S
C2237 C2231 1.428 . S
C2237 N2236 1.351 . S
C2237 C2238 1.434 . S
C2238 C2229 1.429 . S
C2238 N2235 1.350 . S
C2238 C2237 1.434 . S
C2239 C2240 1.369 . S
C2239 C2241 1.419 . S
C2239 H2243 0.930 . S
C2240 C2239 1.369 . S
C2240 C2249 1.429 . S
C2241 C2239 1.419 . S
C2241 C2242 1.363 . S
C2241 H2244 0.929 . S
C2242 C2241 1.363 . S
C2242 C2248 1.428 . S
H2243 C2239 0.930 . S
H2244 C2241 0.929 . S
S2245 N2246 1.613 . S
S2245 N2247 1.610 . S
N2246 S2245 1.613 . S
N2246 C2249 1.350 . S
N2247 S2245 1.610 . S
N2247 C2248 1.351 . S
C2248 C2242 1.428 . S
C2248 N2247 1.351 . S
C2248 C2249 1.434 . S
C2249 C2240 1.429 . S
C2249 N2246 1.350 . S
C2249 C2248 1.434 . S
C2250 C2251 1.369 . S
C2250 C2252 1.419 . S
C2250 H2254 0.930 . S
C2251 C2250 1.369 . S
C2251 C2260 1.429 . S
C2252 C2250 1.419 . S
C2252 C2253 1.363 . S
C2252 H2255 0.929 . S
C2253 C2252 1.363 . S
C2253 C2259 1.428 . S
H2254 C2250 0.930 . S
H2255 C2252 0.929 . S
S2256 N2257 1.613 . S
S2256 N2258 1.610 . S
N2257 S2256 1.613 . S
N2257 C2260 1.350 . S
N2258 S2256 1.610 . S
N2258 C2259 1.351 . S
C2259 C2253 1.428 . S
C2259 N2258 1.351 . S
C2259 C2260 1.434 . S
C2260 C2251 1.429 . S
C2260 N2257 1.350 . S
C2260 C2259 1.434 . S
C2261 C2262 1.369 . S
C2261 C2263 1.419 . S
C2261 H2265 0.930 . S
C2262 C2261 1.369 . S
C2262 C2271 1.429 . S
C2263 C2261 1.419 . S
C2263 C2264 1.363 . S
C2263 H2266 0.929 . S
C2264 C2263 1.363 . S
C2264 C2270 1.428 . S
H2265 C2261 0.930 . S
H2266 C2263 0.929 . S
S2267 N2268 1.613 . S
S2267 N2269 1.610 . S
N2268 S2267 1.613 . S
N2268 C2271 1.350 . S
N2269 S2267 1.610 . S
N2269 C2270 1.351 . S
C2270 C2264 1.428 . S
C2270 N2269 1.351 . S
C2270 C2271 1.434 . S
C2271 C2262 1.429 . S
C2271 N2268 1.350 . S
C2271 C2270 1.434 . S
C2272 C2273 1.369 . S
C2272 C2274 1.419 . S
C2272 H2276 0.930 . S
C2273 C2272 1.369 . S
C2273 C2282 1.429 . S
C2274 C2272 1.419 . S
C2274 C2275 1.363 . S
C2274 H2277 0.929 . S
C2275 C2274 1.363 . S
C2275 C2281 1.428 . S
H2276 C2272 0.930 . S
H2277 C2274 0.929 . S
S2278 N2279 1.613 . S
S2278 N2280 1.610 . S
N2279 S2278 1.613 . S
N2279 C2282 1.350 . S
N2280 S2278 1.610 . S
N2280 C2281 1.351 . S
C2281 C2275 1.428 . S
C2281 N2280 1.351 . S
C2281 C2282 1.434 . S
C2282 C2273 1.429 . S
C2282 N2279 1.350 . S
C2282 C2281 1.434 . S
C2283 C2284 1.369 . S
C2283 C2285 1.419 . S
C2283 H2287 0.930 . S
C2284 C2283 1.369 . S
C2284 C2293 1.429 . S
C2285 C2283 1.419 . S
C2285 C2286 1.363 . S
C2285 H2288 0.929 . S
C2286 C2285 1.363 . S
C2286 C2292 1.428 . S
H2287 C2283 0.930 . S
H2288 C2285 0.929 . S
S2289 N2290 1.613 . S
S2289 N2291 1.610 . S
N2290 S2289 1.613 . S
N2290 C2293 1.350 . S
N2291 S2289 1.610 . S
N2291 C2292 1.351 . S
C2292 C2286 1.428 . S
C2292 N2291 1.351 . S
C2292 C2293 1.434 . S
C2293 C2284 1.429 . S
C2293 N2290 1.350 . S
C2293 C2292 1.434 . S
C2294 C2295 1.369 . S
C2294 C2296 1.419 . S
C2294 H2298 0.930 . S
C2295 C2294 1.369 . S
C2295 C2304 1.429 . S
C2296 C2294 1.419 . S
C2296 C2297 1.363 . S
C2296 H2299 0.929 . S
C2297 C2296 1.363 . S
C2297 C2303 1.428 . S
H2298 C2294 0.930 . S
H2299 C2296 0.929 . S
S2300 N2301 1.613 . S
S2300 N2302 1.610 . S
N2301 S2300 1.613 . S
N2301 C2304 1.350 . S
N2302 S2300 1.610 . S
N2302 C2303 1.351 . S
C2303 C2297 1.428 . S
C2303 N2302 1.351 . S
C2303 C2304 1.434 . S
C2304 C2295 1.429 . S
C2304 N2301 1.350 . S
C2304 C2303 1.434 . S
C2305 C2306 1.369 . S
C2305 C2307 1.419 . S
C2305 H2309 0.930 . S
C2306 C2305 1.369 . S
C2306 C2315 1.429 . S
C2307 C2305 1.419 . S
C2307 C2308 1.363 . S
C2307 H2310 0.929 . S
C2308 C2307 1.363 . S
C2308 C2314 1.428 . S
H2309 C2305 0.930 . S
H2310 C2307 0.929 . S
S2311 N2312 1.613 . S
S2311 N2313 1.610 . S
N2312 S2311 1.613 . S
N2312 C2315 1.350 . S
N2313 S2311 1.610 . S
N2313 C2314 1.351 . S
C2314 C2308 1.428 . S
C2314 N2313 1.351 . S
C2314 C2315 1.434 . S
C2315 C2306 1.429 . S
C2315 N2312 1.350 . S
C2315 C2314 1.434 . S
C2316 C2317 1.369 . S
C2316 C2318 1.419 . S
C2316 H2320 0.930 . S
C2317 C2316 1.369 . S
C2317 C2326 1.429 . S
C2318 C2316 1.419 . S
C2318 C2319 1.363 . S
C2318 H2321 0.929 . S
C2319 C2318 1.363 . S
C2319 C2325 1.428 . S
H2320 C2316 0.930 . S
H2321 C2318 0.929 . S
S2322 N2323 1.613 . S
S2322 N2324 1.610 . S
N2323 S2322 1.613 . S
N2323 C2326 1.350 . S
N2324 S2322 1.610 . S
N2324 C2325 1.351 . S
C2325 C2319 1.428 . S
C2325 N2324 1.351 . S
C2325 C2326 1.434 . S
C2326 C2317 1.429 . S
C2326 N2323 1.350 . S
C2326 C2325 1.434 . S
C2327 C2328 1.369 . S
C2327 C2329 1.419 . S
C2327 H2331 0.930 . S
C2328 C2327 1.369 . S
C2328 C2337 1.429 . S
C2329 C2327 1.419 . S
C2329 C2330 1.363 . S
C2329 H2332 0.929 . S
C2330 C2329 1.363 . S
C2330 C2336 1.428 . S
H2331 C2327 0.930 . S
H2332 C2329 0.929 . S
S2333 N2334 1.613 . S
S2333 N2335 1.610 . S
N2334 S2333 1.613 . S
N2334 C2337 1.350 . S
N2335 S2333 1.610 . S
N2335 C2336 1.351 . S
C2336 C2330 1.428 . S
C2336 N2335 1.351 . S
C2336 C2337 1.434 . S
C2337 C2328 1.429 . S
C2337 N2334 1.350 . S
C2337 C2336 1.434 . S
C2338 C2339 1.369 . S
C2338 C2340 1.419 . S
C2338 H2342 0.930 . S
C2339 C2338 1.369 . S
C2339 C2348 1.429 . S
C2340 C2338 1.419 . S
C2340 C2341 1.363 . S
C2340 H2343 0.929 . S
C2341 C2340 1.363 . S
C2341 C2347 1.428 . S
H2342 C2338 0.930 . S
H2343 C2340 0.929 . S
S2344 N2345 1.613 . S
S2344 N2346 1.610 . S
N2345 S2344 1.613 . S
N2345 C2348 1.350 . S
N2346 S2344 1.610 . S
N2346 C2347 1.351 . S
C2347 C2341 1.428 . S
C2347 N2346 1.351 . S
C2347 C2348 1.434 . S
C2348 C2339 1.429 . S
C2348 N2345 1.350 . S
C2348 C2347 1.434 . S
C2349 C2350 1.369 . S
C2349 C2351 1.419 . S
C2349 H2353 0.930 . S
C2350 C2349 1.369 . S
C2350 C2359 1.429 . S
C2351 C2349 1.419 . S
C2351 C2352 1.363 . S
C2351 H2354 0.929 . S
C2352 C2351 1.363 . S
C2352 C2358 1.428 . S
H2353 C2349 0.930 . S
H2354 C2351 0.929 . S
S2355 N2356 1.613 . S
S2355 N2357 1.610 . S
N2356 S2355 1.613 . S
N2356 C2359 1.350 . S
N2357 S2355 1.610 . S
N2357 C2358 1.351 . S
C2358 C2352 1.428 . S
C2358 N2357 1.351 . S
C2358 C2359 1.434 . S
C2359 C2350 1.429 . S
C2359 N2356 1.350 . S
C2359 C2358 1.434 . S
C2360 C2361 1.369 . S
C2360 C2362 1.419 . S
C2360 H2364 0.930 . S
C2361 C2360 1.369 . S
C2361 C2370 1.429 . S
C2362 C2360 1.419 . S
C2362 C2363 1.363 . S
C2362 H2365 0.929 . S
C2363 C2362 1.363 . S
C2363 C2369 1.428 . S
H2364 C2360 0.930 . S
H2365 C2362 0.929 . S
S2366 N2367 1.613 . S
S2366 N2368 1.610 . S
N2367 S2366 1.613 . S
N2367 C2370 1.350 . S
N2368 S2366 1.610 . S
N2368 C2369 1.351 . S
C2369 C2363 1.428 . S
C2369 N2368 1.351 . S
C2369 C2370 1.434 . S
C2370 C2361 1.429 . S
C2370 N2367 1.350 . S
C2370 C2369 1.434 . S
C2371 C2372 1.369 . S
C2371 C2373 1.419 . S
C2371 H2375 0.930 . S
C2372 C2371 1.369 . S
C2372 C2381 1.429 . S
C2373 C2371 1.419 . S
C2373 C2374 1.363 . S
C2373 H2376 0.929 . S
C2374 C2373 1.363 . S
C2374 C2380 1.428 . S
H2375 C2371 0.930 . S
H2376 C2373 0.929 . S
S2377 N2378 1.613 . S
S2377 N2379 1.610 . S
N2378 S2377 1.613 . S
N2378 C2381 1.350 . S
N2379 S2377 1.610 . S
N2379 C2380 1.351 . S
C2380 C2374 1.428 . S
C2380 N2379 1.351 . S
C2380 C2381 1.434 . S
C2381 C2372 1.429 . S
C2381 N2378 1.350 . S
C2381 C2380 1.434 . S
C2382 C2383 1.369 . S
C2382 C2384 1.419 . S
C2382 H2386 0.930 . S
C2383 C2382 1.369 . S
C2383 C2392 1.429 . S
C2384 C2382 1.419 . S
C2384 C2385 1.363 . S
C2384 H2387 0.929 . S
C2385 C2384 1.363 . S
C2385 C2391 1.428 . S
H2386 C2382 0.930 . S
H2387 C2384 0.929 . S
S2388 N2389 1.613 . S
S2388 N2390 1.610 . S
N2389 S2388 1.613 . S
N2389 C2392 1.350 . S
N2390 S2388 1.610 . S
N2390 C2391 1.351 . S
C2391 C2385 1.428 . S
C2391 N2390 1.351 . S
C2391 C2392 1.434 . S
C2392 C2383 1.429 . S
C2392 N2389 1.350 . S
C2392 C2391 1.434 . S
C2393 C2394 1.369 . S
C2393 C2395 1.419 . S
C2393 H2397 0.930 . S
C2394 C2393 1.369 . S
C2394 C2403 1.429 . S
C2395 C2393 1.419 . S
C2395 C2396 1.363 . S
C2395 H2398 0.929 . S
C2396 C2395 1.363 . S
C2396 C2402 1.428 . S
H2397 C2393 0.930 . S
H2398 C2395 0.929 . S
S2399 N2400 1.613 . S
S2399 N2401 1.610 . S
N2400 S2399 1.613 . S
N2400 C2403 1.350 . S
N2401 S2399 1.610 . S
N2401 C2402 1.351 . S
C2402 C2396 1.428 . S
C2402 N2401 1.351 . S
C2402 C2403 1.434 . S
C2403 C2394 1.429 . S
C2403 N2400 1.350 . S
C2403 C2402 1.434 . S
C2404 C2405 1.369 . S
C2404 C2406 1.419 . S
C2404 H2408 0.930 . S
C2405 C2404 1.369 . S
C2405 C2414 1.429 . S
C2406 C2404 1.419 . S
C2406 C2407 1.363 . S
C2406 H2409 0.929 . S
C2407 C2406 1.363 . S
C2407 C2413 1.428 . S
H2408 C2404 0.930 . S
H2409 C2406 0.929 . S
S2410 N2411 1.613 . S
S2410 N2412 1.610 . S
N2411 S2410 1.613 . S
N2411 C2414 1.350 . S
N2412 S2410 1.610 . S
N2412 C2413 1.351 . S
C2413 C2407 1.428 . S
C2413 N2412 1.351 . S
C2413 C2414 1.434 . S
C2414 C2405 1.429 . S
C2414 N2411 1.350 . S
C2414 C2413 1.434 . S
C2415 C2416 1.369 . S
C2415 C2417 1.419 . S
C2415 H2419 0.930 . S
C2416 C2415 1.369 . S
C2416 C2425 1.429 . S
C2417 C2415 1.419 . S
C2417 C2418 1.363 . S
C2417 H2420 0.929 . S
C2418 C2417 1.363 . S
C2418 C2424 1.428 . S
H2419 C2415 0.930 . S
H2420 C2417 0.929 . S
S2421 N2422 1.613 . S
S2421 N2423 1.610 . S
N2422 S2421 1.613 . S
N2422 C2425 1.350 . S
N2423 S2421 1.610 . S
N2423 C2424 1.351 . S
C2424 C2418 1.428 . S
C2424 N2423 1.351 . S
C2424 C2425 1.434 . S
C2425 C2416 1.429 . S
C2425 N2422 1.350 . S
C2425 C2424 1.434 . S
C2426 C2427 1.369 . S
C2426 C2428 1.419 . S
C2426 H2430 0.930 . S
C2427 C2426 1.369 . S
C2427 C2436 1.429 . S
C2428 C2426 1.419 . S
C2428 C2429 1.363 . S
C2428 H2431 0.929 . S
C2429 C2428 1.363 . S
C2429 C2435 1.428 . S
H2430 C2426 0.930 . S
H2431 C2428 0.929 . S
S2432 N2433 1.613 . S
S2432 N2434 1.610 . S
N2433 S2432 1.613 . S
N2433 C2436 1.350 . S
N2434 S2432 1.610 . S
N2434 C2435 1.351 . S
C2435 C2429 1.428 . S
C2435 N2434 1.351 . S
C2435 C2436 1.434 . S
C2436 C2427 1.429 . S
C2436 N2433 1.350 . S
C2436 C2435 1.434 . S
C2437 C2438 1.369 . S
C2437 C2439 1.419 . S
C2437 H2441 0.930 . S
C2438 C2437 1.369 . S
C2438 C2447 1.429 . S
C2439 C2437 1.419 . S
C2439 C2440 1.363 . S
C2439 H2442 0.929 . S
C2440 C2439 1.363 . S
C2440 C2446 1.428 . S
H2441 C2437 0.930 . S
H2442 C2439 0.929 . S
S2443 N2444 1.613 . S
S2443 N2445 1.610 . S
N2444 S2443 1.613 . S
N2444 C2447 1.350 . S
N2445 S2443 1.610 . S
N2445 C2446 1.351 . S
C2446 C2440 1.428 . S
C2446 N2445 1.351 . S
C2446 C2447 1.434 . S
C2447 C2438 1.429 . S
C2447 N2444 1.350 . S
C2447 C2446 1.434 . S
C2448 C2449 1.369 . S
C2448 C2450 1.419 . S
C2448 H2452 0.930 . S
C2449 C2448 1.369 . S
C2449 C2458 1.429 1_655 S
C2450 C2448 1.419 . S
C2450 C2451 1.363 1_655 S
C2450 H2453 0.929 . S
C2451 C2450 1.363 1_455 S
C2451 C2457 1.428 . S
H2452 C2448 0.930 . S
H2453 C2450 0.929 . S
S2454 N2455 1.613 . S
S2454 N2456 1.610 . S
N2455 S2454 1.613 . S
N2455 C2458 1.350 . S
N2456 S2454 1.610 . S
N2456 C2457 1.351 . S
C2457 C2451 1.428 . S
C2457 N2456 1.351 . S
C2457 C2458 1.434 . S
C2458 C2449 1.429 1_455 S
C2458 N2455 1.350 . S
C2458 C2457 1.434 . S
C2459 C2460 1.369 . S
C2459 C2461 1.419 . S
C2459 H2463 0.930 . S
C2460 C2459 1.369 . S
C2460 C2469 1.429 1_455 S
C2461 C2459 1.419 . S
C2461 C2462 1.363 1_455 S
C2461 H2464 0.929 . S
C2462 C2461 1.363 1_655 S
C2462 C2468 1.428 . S
H2463 C2459 0.930 . S
H2464 C2461 0.929 . S
S2465 N2466 1.613 . S
S2465 N2467 1.610 . S
N2466 S2465 1.613 . S
N2466 C2469 1.350 . S
N2467 S2465 1.610 . S
N2467 C2468 1.351 . S
C2468 C2462 1.428 . S
C2468 N2467 1.351 . S
C2468 C2469 1.434 . S
C2469 C2460 1.429 1_655 S
C2469 N2466 1.350 . S
C2469 C2468 1.434 . S
C2470 C2471 1.369 1_565 S
C2470 C2472 1.419 . S
C2470 H2474 0.930 . S
C2471 C2470 1.369 1_545 S
C2471 C2480 1.429 . S
C2472 C2470 1.419 . S
C2472 C2473 1.363 . S
C2472 H2475 0.929 . S
C2473 C2472 1.363 . S
C2473 C2479 1.428 1_565 S
H2474 C2470 0.930 . S
H2475 C2472 0.929 . S
S2476 N2477 1.613 . S
S2476 N2478 1.610 . S
N2477 S2476 1.613 . S
N2477 C2480 1.350 . S
N2478 S2476 1.610 . S
N2478 C2479 1.351 . S
C2479 C2473 1.428 1_545 S
C2479 N2478 1.351 . S
C2479 C2480 1.434 . S
C2480 C2471 1.429 . S
C2480 N2477 1.350 . S
C2480 C2479 1.434 . S
C2481 C2482 1.369 . S
C2481 C2483 1.419 . S
C2481 H2485 0.930 . S
C2482 C2481 1.369 . S
C2482 C2491 1.429 . S
C2483 C2481 1.419 . S
C2483 C2484 1.363 . S
C2483 H2486 0.929 . S
C2484 C2483 1.363 . S
C2484 C2490 1.428 . S
H2485 C2481 0.930 . S
H2486 C2483 0.929 . S
S2487 N2488 1.613 . S
S2487 N2489 1.610 . S
N2488 S2487 1.613 . S
N2488 C2491 1.350 . S
N2489 S2487 1.610 . S
N2489 C2490 1.351 . S
C2490 C2484 1.428 . S
C2490 N2489 1.351 . S
C2490 C2491 1.434 . S
C2491 C2482 1.429 . S
C2491 N2488 1.350 . S
C2491 C2490 1.434 . S
C2492 C2493 1.369 . S
C2492 C2494 1.419 1_556 S
C2492 H2496 0.930 . S
C2493 C2492 1.369 . S
C2493 C2502 1.425 . S
C2494 C2492 1.419 1_554 S
C2494 C2495 1.363 . S
C2494 H2497 0.929 . S
C2495 C2494 1.363 . S
C2495 C2501 1.428 . S
H2496 C2492 0.930 . S
H2497 C2494 0.929 . S
S2498 N2499 1.618 1_554 S
S2498 N2500 1.610 . S
N2499 S2498 1.618 1_556 S
N2499 C2502 1.350 . S
N2500 S2498 1.610 . S
N2500 C2501 1.351 . S
C2501 C2495 1.428 . S
C2501 N2500 1.351 . S
C2501 C2502 1.438 1_554 S
C2502 C2493 1.425 . S
C2502 N2499 1.350 . S
C2502 C2501 1.438 1_556 S
C2503 C2504 1.369 . S
C2503 C2505 1.419 . S
C2503 H2507 0.930 . S
C2504 C2503 1.369 . S
C2504 C2513 1.429 . S
C2505 C2503 1.419 . S
C2505 C2506 1.363 . S
C2505 H2508 0.929 . S
C2506 C2505 1.363 . S
C2506 C2512 1.428 . S
H2507 C2503 0.930 . S
H2508 C2505 0.929 . S
S2509 N2510 1.613 . S
S2509 N2511 1.610 . S
N2510 S2509 1.613 . S
N2510 C2513 1.350 . S
N2511 S2509 1.610 . S
N2511 C2512 1.351 . S
C2512 C2506 1.428 . S
C2512 N2511 1.351 . S
C2512 C2513 1.434 . S
C2513 C2504 1.429 . S
C2513 N2510 1.350 . S
C2513 C2512 1.434 . S
C2514 C2515 1.369 . S
C2514 C2516 1.419 . S
C2514 H2518 0.930 . S
C2515 C2514 1.369 . S
C2515 C2524 1.429 . S
C2516 C2514 1.419 . S
C2516 C2517 1.363 . S
C2516 H2519 0.929 . S
C2517 C2516 1.363 . S
C2517 C2523 1.428 . S
H2518 C2514 0.930 . S
H2519 C2516 0.929 . S
S2520 N2521 1.613 . S
S2520 N2522 1.610 . S
N2521 S2520 1.613 . S
N2521 C2524 1.350 . S
N2522 S2520 1.610 . S
N2522 C2523 1.351 . S
C2523 C2517 1.428 . S
C2523 N2522 1.351 . S
C2523 C2524 1.434 . S
C2524 C2515 1.429 . S
C2524 N2521 1.350 . S
C2524 C2523 1.434 . S
C2525 C2526 1.369 . S
C2525 C2527 1.419 . S
C2525 H2529 0.930 . S
C2526 C2525 1.369 . S
C2526 C2535 1.429 1_655 S
C2527 C2525 1.419 . S
C2527 C2528 1.363 1_655 S
C2527 H2530 0.929 . S
C2528 C2527 1.363 1_455 S
C2528 C2534 1.428 . S
H2529 C2525 0.930 . S
H2530 C2527 0.929 . S
S2531 N2532 1.613 . S
S2531 N2533 1.610 . S
N2532 S2531 1.613 . S
N2532 C2535 1.350 . S
N2533 S2531 1.610 . S
N2533 C2534 1.351 . S
C2534 C2528 1.428 . S
C2534 N2533 1.351 . S
C2534 C2535 1.434 . S
C2535 C2526 1.429 1_455 S
C2535 N2532 1.350 . S
C2535 C2534 1.434 . S
C2536 C2537 1.369 . S
C2536 C2538 1.419 . S
C2536 H2540 0.930 . S
C2537 C2536 1.369 . S
C2537 C2546 1.429 1_655 S
C2538 C2536 1.419 . S
C2538 C2539 1.363 1_655 S
C2538 H2541 0.929 . S
C2539 C2538 1.363 1_455 S
C2539 C2545 1.428 . S
H2540 C2536 0.930 . S
H2541 C2538 0.929 . S
S2542 N2543 1.613 . S
S2542 N2544 1.610 . S
N2543 S2542 1.613 . S
N2543 C2546 1.350 . S
N2544 S2542 1.610 . S
N2544 C2545 1.351 . S
C2545 C2539 1.428 . S
C2545 N2544 1.351 . S
C2545 C2546 1.434 . S
C2546 C2537 1.429 1_455 S
C2546 N2543 1.350 . S
C2546 C2545 1.434 . S
C2547 C2548 1.369 . S
C2547 C2549 1.458 . S
C2547 H2551 0.930 . S
C2548 C2547 1.369 . S
C2548 C2557 1.429 1_565 S
C2549 C2547 1.458 . S
C2549 C2550 1.319 1_565 S
C2549 H2552 0.940 . S
C2550 C2549 1.319 1_545 S
C2550 C2556 1.428 . S
H2551 C2547 0.930 . S
H2552 C2549 0.940 . S
S2553 N2554 1.613 . S
S2553 N2555 1.610 . S
N2554 S2553 1.613 . S
N2554 C2557 1.350 . S
N2555 S2553 1.610 . S
N2555 C2556 1.351 . S
C2556 C2550 1.428 . S
C2556 N2555 1.351 . S
C2556 C2557 1.434 . S
C2557 C2548 1.429 1_545 S
C2557 N2554 1.350 . S
C2557 C2556 1.434 . S
C2558 C2559 1.369 . S
C2558 C2560 1.419 . S
C2558 H2562 0.930 . S
C2559 C2558 1.369 . S
C2559 C2568 1.429 . S
C2560 C2558 1.419 . S
C2560 C2561 1.363 . S
C2560 H2563 0.929 . S
C2561 C2560 1.363 . S
C2561 C2567 1.428 . S
H2562 C2558 0.930 . S
H2563 C2560 0.929 . S
S2564 N2565 1.613 . S
S2564 N2566 1.610 . S
N2565 S2564 1.613 . S
N2565 C2568 1.350 . S
N2566 S2564 1.610 . S
N2566 C2567 1.351 . S
C2567 C2561 1.428 . S
C2567 N2566 1.351 . S
C2567 C2568 1.434 . S
C2568 C2559 1.429 . S
C2568 N2565 1.350 . S
C2568 C2567 1.434 . S
C2569 C2570 1.369 . S
C2569 C2571 1.419 . S
C2569 H2573 0.930 . S
C2570 C2569 1.369 . S
C2570 C2579 1.435 1_554 S
C2571 C2569 1.419 . S
C2571 C2572 1.363 1_554 S
C2571 H2574 0.929 . S
C2572 C2571 1.363 1_556 S
C2572 C2578 1.428 . S
H2573 C2569 0.930 . S
H2574 C2571 0.929 . S
S2575 N2576 1.613 . S
S2575 N2577 1.610 . S
N2576 S2575 1.613 . S
N2576 C2579 1.348 . S
N2577 S2575 1.610 . S
N2577 C2578 1.351 . S
C2578 C2572 1.428 . S
C2578 N2577 1.351 . S
C2578 C2579 1.429 . S
C2579 C2570 1.435 1_556 S
C2579 N2576 1.348 . S
C2579 C2578 1.429 . S
C2580 C2581 1.369 . S
C2580 C2582 1.419 . S
C2580 H2584 0.930 . S
C2581 C2580 1.369 . S
C2581 C2590 1.429 . S
C2582 C2580 1.419 . S
C2582 C2583 1.363 . S
C2582 H2585 0.929 . S
C2583 C2582 1.363 . S
C2583 C2589 1.428 . S
H2584 C2580 0.930 . S
H2585 C2582 0.929 . S
S2586 N2587 1.613 . S
S2586 N2588 1.610 . S
N2587 S2586 1.613 . S
N2587 C2590 1.350 . S
N2588 S2586 1.610 . S
N2588 C2589 1.351 . S
C2589 C2583 1.428 . S
C2589 N2588 1.351 . S
C2589 C2590 1.434 . S
C2590 C2581 1.429 . S
C2590 N2587 1.350 . S
C2590 C2589 1.434 . S
C2591 C2592 1.369 . S
C2591 C2593 1.419 . S
C2591 H2595 0.930 . S
C2592 C2591 1.369 . S
C2592 C2601 1.429 . S
C2593 C2591 1.419 . S
C2593 C2594 1.363 . S
C2593 H2596 0.929 . S
C2594 C2593 1.363 . S
C2594 C2600 1.428 . S
H2595 C2591 0.930 . S
H2596 C2593 0.929 . S
S2597 N2598 1.613 . S
S2597 N2599 1.610 . S
N2598 S2597 1.613 . S
N2598 C2601 1.350 . S
N2599 S2597 1.610 . S
N2599 C2600 1.351 . S
C2600 C2594 1.428 . S
C2600 N2599 1.351 . S
C2600 C2601 1.434 . S
C2601 C2592 1.429 . S
C2601 N2598 1.350 . S
C2601 C2600 1.434 . S
C2602 C2603 1.369 . S
C2602 C2604 1.419 . S
C2602 H2606 0.930 . S
C2603 C2602 1.369 . S
C2603 C2612 1.429 . S
C2604 C2602 1.419 . S
C2604 C2605 1.363 . S
C2604 H2607 0.929 . S
C2605 C2604 1.363 . S
C2605 C2611 1.428 . S
H2606 C2602 0.930 . S
H2607 C2604 0.929 . S
S2608 N2609 1.613 . S
S2608 N2610 1.610 . S
N2609 S2608 1.613 . S
N2609 C2612 1.350 . S
N2610 S2608 1.610 . S
N2610 C2611 1.351 . S
C2611 C2605 1.428 . S
C2611 N2610 1.351 . S
C2611 C2612 1.434 . S
C2612 C2603 1.429 . S
C2612 N2609 1.350 . S
C2612 C2611 1.434 . S
C2613 C2614 1.369 . S
C2613 C2615 1.419 . S
C2613 H2617 0.930 . S
C2614 C2613 1.369 . S
C2614 C2623 1.429 . S
C2615 C2613 1.419 . S
C2615 C2616 1.363 . S
C2615 H2618 0.929 . S
C2616 C2615 1.363 . S
C2616 C2622 1.428 . S
H2617 C2613 0.930 . S
H2618 C2615 0.929 . S
S2619 N2620 1.613 . S
S2619 N2621 1.610 . S
N2620 S2619 1.613 . S
N2620 C2623 1.350 . S
N2621 S2619 1.610 . S
N2621 C2622 1.351 . S
C2622 C2616 1.428 . S
C2622 N2621 1.351 . S
C2622 C2623 1.434 . S
C2623 C2614 1.429 . S
C2623 N2620 1.350 . S
C2623 C2622 1.434 . S
C2624 C2625 1.369 . S
C2624 C2626 1.419 . S
C2624 H2628 0.930 . S
C2625 C2624 1.369 . S
C2625 C2634 1.429 . S
C2626 C2624 1.419 . S
C2626 C2627 1.363 . S
C2626 H2629 0.929 . S
C2627 C2626 1.363 . S
C2627 C2633 1.428 . S
H2628 C2624 0.930 . S
H2629 C2626 0.929 . S
S2630 N2631 1.613 . S
S2630 N2632 1.610 . S
N2631 S2630 1.613 . S
N2631 C2634 1.350 . S
N2632 S2630 1.610 . S
N2632 C2633 1.351 . S
C2633 C2627 1.428 . S
C2633 N2632 1.351 . S
C2633 C2634 1.434 . S
C2634 C2625 1.429 . S
C2634 N2631 1.350 . S
C2634 C2633 1.434 . S
C2635 C2636 1.349 1_565 S
C2635 C2637 1.437 . S
C2635 H2639 0.934 . S
C2636 C2635 1.349 1_545 S
C2636 C2645 1.429 . S
C2637 C2635 1.437 . S
C2637 C2638 1.363 . S
C2637 H2640 0.929 . S
C2638 C2637 1.363 . S
C2638 C2644 1.381 1_565 S
H2639 C2635 0.934 . S
H2640 C2637 0.929 . S
S2641 N2642 1.613 . S
S2641 N2643 1.610 . S
N2642 S2641 1.613 . S
N2642 C2645 1.350 . S
N2643 S2641 1.610 . S
N2643 C2644 1.369 . S
C2644 C2638 1.381 1_545 S
C2644 N2643 1.369 . S
C2644 C2645 1.479 . S
C2645 C2636 1.429 . S
C2645 N2642 1.350 . S
C2645 C2644 1.479 . S
C2646 C2647 1.369 . S
C2646 C2648 1.419 . S
C2646 H2650 0.930 . S
C2647 C2646 1.369 . S
C2647 C2656 1.429 1_556 S
C2648 C2646 1.419 . S
C2648 C2649 1.363 1_556 S
C2648 H2651 0.929 . S
C2649 C2648 1.363 1_554 S
C2649 C2655 1.428 . S
H2650 C2646 0.930 . S
H2651 C2648 0.929 . S
S2652 N2653 1.613 . S
S2652 N2654 1.610 . S
N2653 S2652 1.613 . S
N2653 C2656 1.350 . S
N2654 S2652 1.610 . S
N2654 C2655 1.351 . S
C2655 C2649 1.428 . S
C2655 N2654 1.351 . S
C2655 C2656 1.434 . S
C2656 C2647 1.429 1_554 S
C2656 N2653 1.350 . S
C2656 C2655 1.434 . S
C2657 C2658 1.369 . S
C2657 C2659 1.419 . S
C2657 H2661 0.930 . S
C2658 C2657 1.369 . S
C2658 C2667 1.429 . S
C2659 C2657 1.419 . S
C2659 C2660 1.363 . S
C2659 H2662 0.929 . S
C2660 C2659 1.363 . S
C2660 C2666 1.428 . S
H2661 C2657 0.930 . S
H2662 C2659 0.929 . S
S2663 N2664 1.613 . S
S2663 N2665 1.610 . S
N2664 S2663 1.613 . S
N2664 C2667 1.350 . S
N2665 S2663 1.610 . S
N2665 C2666 1.351 . S
C2666 C2660 1.428 . S
C2666 N2665 1.351 . S
C2666 C2667 1.434 . S
C2667 C2658 1.429 . S
C2667 N2664 1.350 . S
C2667 C2666 1.434 . S
C2668 C2669 1.369 . S
C2668 C2670 1.419 . S
C2668 H2672 0.930 . S
C2669 C2668 1.369 . S
C2669 C2678 1.429 . S
C2670 C2668 1.419 . S
C2670 C2671 1.363 . S
C2670 H2673 0.929 . S
C2671 C2670 1.363 . S
C2671 C2677 1.428 . S
H2672 C2668 0.930 . S
H2673 C2670 0.929 . S
S2674 N2675 1.613 . S
S2674 N2676 1.610 . S
N2675 S2674 1.613 . S
N2675 C2678 1.350 . S
N2676 S2674 1.610 . S
N2676 C2677 1.351 . S
C2677 C2671 1.428 . S
C2677 N2676 1.351 . S
C2677 C2678 1.434 . S
C2678 C2669 1.429 . S
C2678 N2675 1.350 . S
C2678 C2677 1.434 . S
C2679 C2680 1.369 . S
C2679 C2681 1.419 . S
C2679 H2683 0.930 . S
C2680 C2679 1.369 . S
C2680 C2689 1.429 . S
C2681 C2679 1.419 . S
C2681 C2682 1.363 . S
C2681 H2684 0.929 . S
C2682 C2681 1.363 . S
C2682 C2688 1.428 . S
H2683 C2679 0.930 . S
H2684 C2681 0.929 . S
S2685 N2686 1.613 . S
S2685 N2687 1.610 . S
N2686 S2685 1.613 . S
N2686 C2689 1.350 . S
N2687 S2685 1.610 . S
N2687 C2688 1.351 . S
C2688 C2682 1.428 . S
C2688 N2687 1.351 . S
C2688 C2689 1.434 . S
C2689 C2680 1.429 . S
C2689 N2686 1.350 . S
C2689 C2688 1.434 . S
C2690 C2691 1.369 1_565 S
C2690 C2692 1.419 . S
C2690 H2694 0.930 . S
C2691 C2690 1.369 1_545 S
C2691 C2700 1.429 . S
C2692 C2690 1.419 . S
C2692 C2693 1.363 . S
C2692 H2695 0.929 . S
C2693 C2692 1.363 . S
C2693 C2699 1.428 1_565 S
H2694 C2690 0.930 . S
H2695 C2692 0.929 . S
S2696 N2697 1.613 . S
S2696 N2698 1.610 . S
N2697 S2696 1.613 . S
N2697 C2700 1.350 . S
N2698 S2696 1.610 . S
N2698 C2699 1.351 . S
C2699 C2693 1.428 1_545 S
C2699 N2698 1.351 . S
C2699 C2700 1.434 . S
C2700 C2691 1.429 . S
C2700 N2697 1.350 . S
C2700 C2699 1.434 . S
C2701 C2702 1.369 . S
C2701 C2703 1.419 . S
C2701 H2705 0.930 . S
C2702 C2701 1.369 . S
C2702 C2711 1.429 1_554 S
C2703 C2701 1.419 . S
C2703 C2704 1.363 1_554 S
C2703 H2706 0.929 . S
C2704 C2703 1.363 1_556 S
C2704 C2710 1.428 . S
H2705 C2701 0.930 . S
H2706 C2703 0.929 . S
S2707 N2708 1.613 . S
S2707 N2709 1.610 . S
N2708 S2707 1.613 . S
N2708 C2711 1.350 . S
N2709 S2707 1.610 . S
N2709 C2710 1.351 . S
C2710 C2704 1.428 . S
C2710 N2709 1.351 . S
C2710 C2711 1.434 . S
C2711 C2702 1.429 1_556 S
C2711 N2708 1.350 . S
C2711 C2710 1.434 . S
C1921 C901 1.805 . S
C1923 C21 1.809 . S
C1932 C861 1.733 . S
C1934 C42 1.639 . S
C1943 C1901 1.807 . S
C1945 C101 1.808 . S
C1954 C821 1.733 . S
C1956 C122 1.635 . S
C1965 C1482 1.642 . S
C1967 C181 1.751 . S
C1976 C1461 1.751 . S
C1978 C202 1.656 . S
C1987 C1562 1.643 . S
C1989 C261 1.751 . S
C1998 C282 1.659 . S
C2000 C1541 1.751 . S
C2009 C322 1.688 . S
C2011 C1701 1.802 . S
C2020 C1621 1.801 . S
C2022 C362 1.691 . S
C2031 C402 1.620 . S
C2033 C1642 1.621 . S
C2042 C762 1.624 . S
C2044 C442 1.617 . S
C2053 C482 1.712 . S
C2055 C421 1.648 . S
C2064 C541 1.708 . S
C2066 C381 1.716 . S
C2075 C562 1.713 . S
C2077 C1421 1.647 . S
C2086 C341 1.707 . S
C2088 C621 1.715 . S
C2097 C642 1.735 . S
C2099 C1021 1.665 . S
C2108 C701 1.660 . S
C2110 C962 1.734 . S
C2119 C722 1.736 . S
C2121 C1101 1.662 . S
C2130 C781 1.661 . S
C2132 C1042 1.734 . S
C2141 C1202 1.696 . S
C2143 C802 1.700 . S
C2152 C842 1.702 . S
C2154 C1122 1.697 . S
C2163 C882 1.780 . S
C2165 C1181 1.711 . S
C2174 C922 1.781 . S
C2176 C301 1.709 . S
C2185 C981 1.809 . S
C2187 C1861 1.805 . S
C2196 C1821 1.733 . S
C2198 C1002 1.638 . S
C2207 C1061 1.809 . S
C2209 C941 1.806 . S
C2218 C1781 1.733 . S
C2220 C1082 1.635 . S
C2229 C522 1.641 . S
C2231 C1141 1.752 . S
C2240 C1162 1.649 . S
C2242 C501 1.753 . S
C2251 C1221 1.752 . S
C2253 C602 1.643 . S
C2262 C1242 1.659 . S
C2264 C581 1.751 . S
C2273 C1282 1.692 . S
C2275 C741 1.800 . S
C2284 C1322 1.697 . S
C2286 C661 1.799 . S
C2295 C682 1.624 . S
C2297 C1362 1.619 . S
C2306 C1402 1.618 . S
C2308 C1722 1.622 . S
C2317 C1381 1.650 . S
C2319 C1442 1.713 . S
C2328 C1501 1.712 . S
C2330 C1341 1.715 . S
C2339 C461 1.647 . S
C2341 C1522 1.714 . S
C2350 C1581 1.709 . S
C2352 C1301 1.716 . S
C2361 C1602 1.733 . S
C2363 C61 1.668 . S
C2372 C1661 1.661 . S
C2374 C2 1.734 . S
C2383 C141 1.671 . S
C2385 C1682 1.732 . S
C2394 C82 1.730 . S
C2396 C1741 1.667 . S
C2405 C242 1.699 . S
C2407 C1762 1.698 . S
C2416 C1802 1.701 . S
C2418 C162 1.696 . S
C2427 C221 1.712 . S
C2429 C1842 1.780 . S
C2438 C1882 1.778 . S
C2440 C1261 1.712 . S
C2449 C55 1.658 . S
C2451 C15 1.663 . S
C2460 C95 1.658 . S
C2462 C135 1.661 . S
C2471 C175 1.614 . S
C2473 C255 1.610 . S
C2482 C215 1.663 . S
C2484 C295 1.668 . S
C2493 C1375 1.663 . S
C2495 C335 1.663 . S
C2504 C375 1.660 . S
C2506 C455 1.665 . S
C2515 C1295 1.663 . S
C2517 C415 1.666 . S
C2526 C495 1.662 . S
C2528 C535 1.657 . S
C2537 C575 1.662 . S
C2539 C615 1.657 . S
C2548 C655 1.669 . S
C2550 C735 1.672 . S
C2559 C695 1.610 . S
C2561 C775 1.605 . S
C2570 C1855 1.667 . S
C2572 C815 1.669 . S
C2581 C935 1.670 . S
C2583 C855 1.669 . S
C2592 C895 1.670 . S
C2594 C1775 1.668 . S
C2603 C975 1.661 . S
C2605 C1015 1.658 . S
C2614 C1055 1.661 . S
C2616 C1095 1.661 . S
C2625 C1215 1.609 . S
C2627 C1135 1.613 . S
C2636 C1255 1.668 . S
C2638 C1175 1.665 . S
C2647 C1335 1.662 . S
C2649 C1415 1.667 . S
C2658 C1455 1.665 . S
C2660 C1495 1.656 . S
C2669 C1575 1.654 . S
C2671 C1535 1.665 . S
C2680 C1695 1.669 . S
C2682 C1615 1.670 . S
C2691 C1655 1.609 . S
C2693 C1735 1.605 . S
C2702 C1815 1.667 . S
C2704 C1895 1.670 . S
