# Generated by pormake.
# Topology sml, (6)-cn, num edge types: 1
# Building blocks:
#     Node 0, Type 0, BuildingBlock: INOVEN_clean_sbu_0, # of connection points: 6
#     Node 1, Type 0, BuildingBlock: INOVEN_clean_sbu_0, # of connection points: 6
#     Node 2, Type 0, BuildingBlock: INOVEN_clean_sbu_0, # of connection points: 6
#     Node 3, Type 0, BuildingBlock: INOVEN_clean_sbu_0, # of connection points: 6
#     Node 4, Type 0, BuildingBlock: INOVEN_clean_sbu_0, # of connection points: 6
#     Node 5, Type 0, BuildingBlock: INOVEN_clean_sbu_0, # of connection points: 6
#     Edge 6, Type (0, 0), BuildingBlock: ZUJKAS_clean_linker_0, # of connection points: 2
#     Edge 7, Type (0, 0), BuildingBlock: ZUJKAS_clean_linker_0, # of connection points: 2
#     Edge 8, Type (0, 0), BuildingBlock: ZUJKAS_clean_linker_0, # of connection points: 2
#     Edge 9, Type (0, 0), BuildingBlock: ZUJKAS_clean_linker_0, # of connection points: 2
#     Edge 10, Type (0, 0), BuildingBlock: ZUJKAS_clean_linker_0, # of connection points: 2
#     Edge 11, Type (0, 0), BuildingBlock: ZUJKAS_clean_linker_0, # of connection points: 2
#     Edge 12, Type (0, 0), BuildingBlock: ZUJKAS_clean_linker_0, # of connection points: 2
#     Edge 13, Type (0, 0), BuildingBlock: ZUJKAS_clean_linker_0, # of connection points: 2
#     Edge 14, Type (0, 0), BuildingBlock: ZUJKAS_clean_linker_0, # of connection points: 2
#     Edge 15, Type (0, 0), BuildingBlock: ZUJKAS_clean_linker_0, # of connection points: 2
#     Edge 16, Type (0, 0), BuildingBlock: ZUJKAS_clean_linker_0, # of connection points: 2
#     Edge 17, Type (0, 0), BuildingBlock: ZUJKAS_clean_linker_0, # of connection points: 2
#     Edge 18, Type (0, 0), BuildingBlock: ZUJKAS_clean_linker_0, # of connection points: 2
#     Edge 19, Type (0, 0), BuildingBlock: ZUJKAS_clean_linker_0, # of connection points: 2
#     Edge 20, Type (0, 0), BuildingBlock: ZUJKAS_clean_linker_0, # of connection points: 2
#     Edge 21, Type (0, 0), BuildingBlock: ZUJKAS_clean_linker_0, # of connection points: 2
#     Edge 22, Type (0, 0), BuildingBlock: ZUJKAS_clean_linker_0, # of connection points: 2
#     Edge 23, Type (0, 0), BuildingBlock: ZUJKAS_clean_linker_0, # of connection points: 2
# Relax obj value: 0.181
# Max RMSD: 0.223
# Mean RMSD: 0.223
data_MOF--net-sml--node1-INOVEN_clean_sbu_0--edge1-ZUJKAS_clean_linker_0
_symmetry_space_group_name_H-M    P1
_symmetry_Int_Tables_number       1
_symmetry_cell_setting            triclinic
loop_
_symmetry_equiv_pos_as_xyz
'x, y, z'
_cell_length_a     44.383171
_cell_length_b     44.346808
_cell_length_c     29.942071
_cell_angle_alpha  90.087084
_cell_angle_beta   89.986506
_cell_angle_gamma 120.01968
loop_
_atom_site_label
_atom_site_type_symbol
_atom_site_fract_x
_atom_site_fract_y
_atom_site_fract_z
_atom_type_partial_charge
Gd0 Gd 0.18856 0.42579 0.96152 0.0
Gd1 Gd 0.21936 0.41332 0.0533 0.0
C2 C 0.21016 0.36584 0.96462 0.0
C3 C 0.18322 0.44803 0.88385 0.0
C4 C 0.19167 0.44688 0.83619 0.0
C5 C 0.16445 0.42693 0.80627 0.0
C6 C 0.22578 0.4662 0.81954 0.0
C7 C 0.20506 0.44543 0.74398 0.0
C8 C 0.23244 0.4653 0.77389 0.0
C9 C 0.17105 0.42613 0.76084 0.0
C10 C 0.13734 0.38381 0.01949 0.0
C11 C 0.1954 0.47055 0.05135 0.0
C12 C 0.23018 0.39046 0.12746 0.0
C13 C 0.22941 0.39675 0.17603 0.0
C14 C 0.26075 0.4146 0.19998 0.0
C15 C 0.19781 0.3844 0.19919 0.0
C16 C 0.22908 0.40795 0.26921 0.0
C17 C 0.19767 0.38996 0.24521 0.0
C18 C 0.26062 0.42026 0.24593 0.0
C19 C 0.26424 0.46389 0.99838 0.0
O20 O 0.19949 0.38364 0.94015 0.0
O21 O 0.21841 0.3722 0.0076 0.0
O22 O 0.1594 0.41844 0.90104 0.0
O23 O 0.20863 0.46702 0.91181 0.0
O24 O 0.13112 0.39187 0.98029 0.0
O25 O 0.16962 0.39846 0.02395 0.0
O26 O 0.19938 0.44809 0.0763 0.0
O27 O 0.19494 0.46958 0.00691 0.0
O28 O 0.25509 0.41566 0.1043 0.0
O29 O 0.20037 0.37487 0.10614 0.0
O30 O 0.26719 0.46566 0.04167 0.0
O31 O 0.23916 0.43486 0.98655 0.0
H32 H 0.13784 0.41203 0.81799 0.0
H33 H 0.24723 0.48231 0.84154 0.0
H34 H 0.2589 0.48076 0.76188 0.0
H35 H 0.14941 0.41018 0.7389 0.0
H36 H 0.2855 0.42423 0.18315 0.0
H37 H 0.17312 0.3702 0.18195 0.0
H38 H 0.17287 0.37961 0.26209 0.0
H39 H 0.28531 0.4346 0.26312 0.0
Gd40 Gd 0.75899 0.19601 0.30271 0.0
Gd41 Gd 0.80409 0.21817 0.38738 0.0
C42 C 0.8409 0.21677 0.2982 0.0
C43 C 0.73267 0.18987 0.2238 0.0
C44 C 0.7428 0.1937 0.17619 0.0
C45 C 0.72564 0.16476 0.14782 0.0
C46 C 0.76802 0.22579 0.15813 0.0
C47 C 0.75821 0.19978 0.08388 0.0
C48 C 0.77557 0.2288 0.11235 0.0
C49 C 0.73331 0.1677 0.10226 0.0
C50 C 0.75108 0.14362 0.3556 0.0
C51 C 0.72294 0.19897 0.39234 0.0
C52 C 0.83036 0.22481 0.4664 0.0
C53 C 0.82016 0.22166 0.51392 0.0
C54 C 0.83793 0.25074 0.54193 0.0
C55 C 0.79414 0.19009 0.53225 0.0
C56 C 0.80453 0.21683 0.60609 0.0
C57 C 0.78648 0.18769 0.57795 0.0
C58 C 0.83015 0.24842 0.58743 0.0
C59 C 0.81031 0.27019 0.33447 0.0
O60 O 0.81354 0.21437 0.27704 0.0
O61 O 0.84146 0.21378 0.34199 0.0
O62 O 0.73212 0.16393 0.2453 0.0
O63 O 0.74466 0.21821 0.24798 0.0
O64 O 0.72576 0.14344 0.33373 0.0
O65 O 0.77965 0.17056 0.34672 0.0
O66 O 0.74984 0.20034 0.41341 0.0
O67 O 0.72233 0.20176 0.34846 0.0
O68 O 0.83134 0.2507 0.44427 0.0
O69 O 0.81803 0.19616 0.44274 0.0
O70 O 0.8364 0.27118 0.35537 0.0
O71 O 0.78256 0.24284 0.34417 0.0
H72 H 0.70586 0.13984 0.16084 0.0
H73 H 0.78173 0.24859 0.17919 0.0
H74 H 0.79508 0.25382 0.09929 0.0
H75 H 0.71907 0.14497 0.08122 0.0
H76 H 0.85828 0.27528 0.52869 0.0
H77 H 0.77991 0.16719 0.51146 0.0
H78 H 0.76639 0.16307 0.59125 0.0
H79 H 0.84488 0.2712 0.60823 0.0
Gd80 Gd 0.56736 0.76208 0.62941 0.0
Gd81 Gd 0.5898 0.80818 0.71343 0.0
C82 C 0.6287 0.84382 0.62419 0.0
C83 C 0.54888 0.73446 0.55072 0.0
C84 C 0.55422 0.74387 0.50297 0.0
C85 C 0.55655 0.72099 0.47274 0.0
C86 C 0.55621 0.77457 0.48686 0.0
C87 C 0.56156 0.7585 0.41039 0.0
C88 C 0.55983 0.7818 0.44095 0.0
C89 C 0.56025 0.7282 0.42703 0.0
C90 C 0.60936 0.75308 0.68549 0.0
C91 C 0.5255 0.72773 0.71847 0.0
C92 C 0.61021 0.83496 0.79221 0.0
C93 C 0.60293 0.82616 0.84005 0.0
C94 C 0.60054 0.84993 0.86865 0.0
C95 C 0.59973 0.79542 0.85802 0.0
C96 C 0.59327 0.81327 0.93299 0.0
C97 C 0.59496 0.78906 0.90406 0.0
C98 C 0.59568 0.84356 0.91452 0.0
C99 C 0.54463 0.81426 0.65895 0.0
O100 O 0.60345 0.8165 0.60327 0.0
O101 O 0.63215 0.84466 0.66801 0.0
O102 O 0.57555 0.73677 0.5724 0.0
O103 O 0.53093 0.74491 0.57426 0.0
O104 O 0.584 0.72793 0.66367 0.0
O105 O 0.61255 0.78212 0.67514 0.0
O106 O 0.55056 0.7549 0.73989 0.0
O107 O 0.52379 0.72613 0.67434 0.0
O108 O 0.58648 0.83756 0.76938 0.0
O109 O 0.62465 0.82017 0.76967 0.0
O110 O 0.56921 0.84042 0.68058 0.0
O111 O 0.54423 0.78661 0.66912 0.0
H112 H 0.55527 0.69727 0.4845 0.0
H113 H 0.55458 0.79271 0.50962 0.0
H114 H 0.56053 0.80526 0.42934 0.0
H115 H 0.56222 0.71003 0.40471 0.0
H116 H 0.60282 0.87375 0.85552 0.0
H117 H 0.60142 0.77658 0.83666 0.0
H118 H 0.59348 0.76559 0.91709 0.0
H119 H 0.5938 0.86245 0.93554 0.0
Gd120 Gd 0.80757 0.56658 0.96119 0.0
Gd121 Gd 0.78419 0.5881 0.04617 0.0
C122 C 0.78559 0.62689 0.9571 0.0
C123 C 0.81445 0.54679 0.88223 0.0
C124 C 0.8119 0.55373 0.83469 0.0
C125 C 0.83332 0.54958 0.80389 0.0
C126 C 0.78829 0.56377 0.8194 0.0
C127 C 0.80724 0.56468 0.74261 0.0
C128 C 0.7859 0.56908 0.77368 0.0
C129 C 0.83107 0.55501 0.75837 0.0
C130 C 0.85924 0.61117 0.01486 0.0
C131 C 0.80399 0.52634 0.05039 0.0
C132 C 0.77773 0.60825 0.12508 0.0
C133 C 0.77988 0.60126 0.17272 0.0
C134 C 0.7581 0.60524 0.20307 0.0
C135 C 0.80346 0.59136 0.18854 0.0
C136 C 0.78377 0.59031 0.26498 0.0
C137 C 0.80546 0.58604 0.23435 0.0
C138 C 0.75997 0.59982 0.24868 0.0
C139 C 0.73268 0.5417 0.99309 0.0
O140 O 0.78995 0.60327 0.93548 0.0
O141 O 0.78669 0.62926 1.00107 0.0
O142 O 0.84031 0.57153 0.90465 0.0
O143 O 0.78544 0.53134 0.90509 0.0
O144 O 0.86004 0.58657 0.99236 0.0
O145 O 0.83205 0.6124 0.00608 0.0
O146 O 0.8007 0.55062 0.07204 0.0
O147 O 0.80318 0.52435 0.00629 0.0
O148 O 0.75164 0.58384 0.10261 0.0
O149 O 0.80683 0.62318 0.10234 0.0
O150 O 0.73085 0.566 0.01502 0.0
O151 O 0.76051 0.54204 1.00224 0.0
H152 H 0.85163 0.54177 0.81505 0.0
H153 H 0.77163 0.56732 0.84269 0.0
H154 H 0.76754 0.57685 0.76269 0.0
H155 H 0.84753 0.5509 0.73539 0.0
H156 H 0.73979 0.61294 0.1915 0.0
H157 H 0.82041 0.58793 0.16561 0.0
H158 H 0.82382 0.57838 0.24576 0.0
H159 H 0.74323 0.60382 0.27131 0.0
Gd160 Gd 0.24026 0.80719 0.291 0.0
Gd161 Gd 0.19435 0.78458 0.37508 0.0
C162 C 0.15885 0.78796 0.28566 0.0
C163 C 0.26717 0.81343 0.2124 0.0
C164 C 0.25782 0.80938 0.16451 0.0
C165 C 0.27816 0.83689 0.13537 0.0
C166 C 0.2301 0.77845 0.14703 0.0
C167 C 0.24409 0.80254 0.07162 0.0
C168 C 0.2233 0.77509 0.10099 0.0
C169 C 0.27136 0.83358 0.08954 0.0
C170 C 0.24854 0.85938 0.34486 0.0
C171 C 0.27537 0.80344 0.38116 0.0
C172 C 0.16689 0.77659 0.45364 0.0
C173 C 0.17579 0.7787 0.50155 0.0
C174 C 0.15397 0.75095 0.52956 0.0
C175 C 0.20468 0.80805 0.52013 0.0
C176 C 0.18886 0.78214 0.5945 0.0
C177 C 0.21113 0.80975 0.56618 0.0
C178 C 0.16044 0.75257 0.57541 0.0
C179 C 0.18797 0.73296 0.3209 0.0
O180 O 0.18602 0.78968 0.26479 0.0
O181 O 0.15806 0.79071 0.32951 0.0
O182 O 0.267 0.83919 0.23352 0.0
O183 O 0.25519 0.78515 0.2366 0.0
O184 O 0.27372 0.8595 0.32269 0.0
O185 O 0.21982 0.83269 0.33555 0.0
O186 O 0.24826 0.80188 0.40189 0.0
O187 O 0.27646 0.80108 0.33723 0.0
O188 O 0.16633 0.75111 0.43091 0.0
O189 O 0.17994 0.80573 0.43107 0.0
O190 O 0.16185 0.73214 0.34147 0.0
O191 O 0.21581 0.75995 0.33146 0.0
H192 H 0.29964 0.86098 0.14807 0.0
H193 H 0.21398 0.75675 0.16875 0.0
H194 H 0.20226 0.75072 0.08832 0.0
H195 H 0.28749 0.85548 0.06813 0.0
H196 H 0.1316 0.72801 0.51596 0.0
H197 H 0.22201 0.82984 0.49926 0.0
H198 H 0.2331 0.83304 0.5797 0.0
H199 H 0.14314 0.73052 0.5959 0.0
Gd200 Gd 0.42668 0.23733 0.63272 0.0
Gd201 Gd 0.4033 0.19143 0.71674 0.0
C202 C 0.36703 0.15499 0.62624 0.0
C203 C 0.44676 0.26471 0.55425 0.0
C204 C 0.44115 0.25531 0.50639 0.0
C205 C 0.4349 0.27625 0.47716 0.0
C206 C 0.44307 0.22684 0.48907 0.0
C207 C 0.43381 0.24136 0.41354 0.0
C208 C 0.43945 0.21994 0.44306 0.0
C209 C 0.43117 0.26933 0.43134 0.0
C210 C 0.38134 0.24398 0.6854 0.0
C211 C 0.46538 0.27282 0.72303 0.0
C212 C 0.38222 0.16458 0.79525 0.0
C213 C 0.38927 0.17353 0.84317 0.0
C214 C 0.39597 0.15213 0.87097 0.0
C215 C 0.38799 0.20192 0.86207 0.0
C216 C 0.39878 0.18639 0.93621 0.0
C217 C 0.39269 0.20826 0.90813 0.0
C218 C 0.4008 0.15852 0.91686 0.0
C219 C 0.45102 0.18722 0.66533 0.0
O220 O 0.39213 0.18278 0.60601 0.0
O221 O 0.3626 0.15392 0.66994 0.0
O222 O 0.42082 0.26414 0.57573 0.0
O223 O 0.46342 0.25293 0.57805 0.0
O224 O 0.40662 0.26971 0.66428 0.0
O225 O 0.38001 0.21559 0.67597 0.0
O226 O 0.44002 0.24549 0.74376 0.0
O227 O 0.46867 0.27398 0.67907 0.0
O228 O 0.40616 0.16205 0.77282 0.0
O229 O 0.36775 0.17911 0.77228 0.0
O230 O 0.42629 0.16063 0.68601 0.0
O231 O 0.45017 0.21439 0.67473 0.0
H232 H 0.43321 0.29827 0.48978 0.0
H233 H 0.44782 0.21019 0.5109 0.0
H234 H 0.44188 0.19834 0.43054 0.0
H235 H 0.42614 0.28594 0.40985 0.0
H236 H 0.39713 0.13012 0.85719 0.0
H237 H 0.38286 0.21891 0.84145 0.0
H238 H 0.39067 0.22978 0.92187 0.0
H239 H 0.40611 0.14154 0.93719 0.0
H240 H 0.31952 0.19348 0.72113 0.0
H241 H 0.28015 0.20264 0.77004 0.0
H242 H 0.35289 0.31316 0.77025 0.0
H243 H 0.39151 0.30432 0.72097 0.0
H244 H 0.28781 0.23225 0.85384 0.0
H245 H 0.26419 0.3088 0.72771 0.0
H246 H 0.28457 0.28352 0.71398 0.0
H247 H 0.30987 0.32662 0.73724 0.0
C248 C 0.32696 0.21966 0.73178 0.0
C249 C 0.35821 0.24827 0.71681 0.0
C250 C 0.30455 0.22485 0.75965 0.0
C251 C 0.31322 0.25868 0.7728 0.0
C252 C 0.34519 0.28696 0.75941 0.0
H253 H 0.25807 0.34697 0.98638 0.0
H254 H 0.2764 0.31341 0.94086 0.0
C255 C 0.3673 0.28185 0.73139 0.0
C256 C 0.28912 0.26511 0.80009 0.0
H257 H 0.25276 0.3169 0.80404 0.0
C258 C 0.27956 0.25028 0.84278 0.0
C259 C 0.27753 0.28785 0.78519 0.0
C260 C 0.28425 0.30227 0.73832 0.0
C261 C 0.26059 0.25939 0.87204 0.0
C262 C 0.25191 0.28474 0.85859 0.0
C263 C 0.25967 0.29781 0.81484 0.0
C264 C 0.23716 0.3002 0.88972 0.0
C265 C 0.25028 0.24183 0.91701 0.0
C266 C 0.2091 0.30435 0.87627 0.0
C267 C 0.19929 0.32451 0.90164 0.0
C268 C 0.21696 0.34044 0.94137 0.0
C269 C 0.24367 0.33465 0.95618 0.0
C270 C 0.254 0.31515 0.93029 0.0
H271 H 0.24617 0.215 0.91526 0.0
H272 H 0.27161 0.25668 0.94124 0.0
H273 H 0.22614 0.24047 0.92973 0.0
H274 H 0.19569 0.29316 0.84512 0.0
H275 H 0.1785 0.32842 0.8895 0.0
H276 H 0.14466 0.37866 0.10955 0.0
H277 H 0.09855 0.34294 0.16319 0.0
H278 H 0.02328 0.30558 0.05619 0.0
H279 H 0.06926 0.34017 1.00275 0.0
H280 H 0.04134 0.34863 0.18187 0.0
H281 H 0.99855 0.21572 0.12005 0.0
H282 H 0.03946 0.25294 0.10378 0.0
H283 H -0.0003 0.24371 0.07611 0.0
C284 C 0.11847 0.36194 0.09749 0.0
C285 C 0.11057 0.3615 0.05202 0.0
C286 C 0.09212 0.34182 0.12809 0.0
C287 C 0.0576 0.32094 0.1135 0.0
C288 C 0.04984 0.32062 0.06803 0.0
H289 H 0.85016 0.22448 0.20767 0.0
H290 H 0.90483 0.24707 0.16655 0.0
C291 C 0.07608 0.34066 0.03759 0.0
C292 C 0.02895 0.30177 0.14581 0.0
H293 H 0.95685 0.22247 0.1646 0.0
C294 C 0.02326 0.32091 0.17877 0.0
C295 C 0.0054 0.26559 0.14166 0.0
C296 C 0.01128 0.24325 0.10877 0.0
C297 C 0.99356 0.30522 0.20598 0.0
C298 C 0.96918 0.26944 0.20025 0.0
C299 C 0.97555 0.24996 0.16862 0.0
C300 C 0.93588 0.2525 0.2249 0.0
C301 C 0.98754 0.32731 0.23918 0.0
C302 C 0.93522 0.24723 0.2711 0.0
C303 C 0.90402 0.23421 0.29475 0.0
C304 C 0.87296 0.22634 0.27253 0.0
C305 C 0.87357 0.23035 0.22588 0.0
C306 C 0.90476 0.24322 0.20229 0.0
H307 H 0.00642 0.35552 0.23504 0.0
H308 H 0.96077 0.32302 0.23567 0.0
H309 H 0.99022 0.31965 0.27357 0.0
H310 H 0.95899 0.25396 0.28899 0.0
H311 H 0.90452 0.23139 0.33062 0.0
H312 H 0.69001 0.09196 0.38767 0.0
H313 H 0.68084 0.04569 0.43951 0.0
H314 H 0.79168 0.08701 0.44771 0.0
H315 H 0.80111 0.13371 0.39537 0.0
H316 H 0.7494 0.0122 0.43069 0.0
H317 H 0.70275 0.05514 0.57577 0.0
H318 H 0.68197 0.05481 0.52415 0.0
H319 H 0.72788 0.08416 0.53098 0.0
C320 C 0.71247 0.09131 0.40062 0.0
C321 C 0.74627 0.11638 0.38763 0.0
C322 C 0.7072 0.06501 0.43043 0.0
C323 C 0.7356 0.06324 0.44781 0.0
C324 C 0.76947 0.08816 0.43484 0.0
H325 H 0.68279 0.90543 0.65502 0.0
H326 H 0.71586 0.95984 0.61367 0.0
C327 C 0.77481 0.11476 0.40511 0.0
C328 C 0.72919 0.03424 0.47797 0.0
H329 H 0.6876 0.99505 0.57472 0.0
C330 C 0.73648 0.00867 0.4626 0.0
C331 C 0.71283 0.03002 0.51981 0.0
C332 C 0.70618 0.05765 0.53895 0.0
C333 C 0.72579 0.97784 0.48681 0.0
C334 C 0.70695 0.97239 0.52697 0.0
C335 C 0.70169 0.99903 0.54366 0.0
C336 C 0.69018 0.93847 0.5506 0.0
C337 C 0.73426 0.95117 0.46875 0.0
C338 C 0.66498 0.90827 0.52875 0.0
C339 C 0.64604 0.87709 0.55223 0.0
C340 C 0.6517 0.87558 0.59819 0.0
C341 C 0.67773 0.90562 0.61967 0.0
C342 C 0.69668 0.93679 0.59611 0.0
H343 H 0.75781 0.96352 0.44726 0.0
H344 H 0.73855 0.93689 0.49616 0.0
H345 H 0.71221 0.93206 0.44798 0.0
H346 H 0.65891 0.90913 0.4939 0.0
H347 H 0.62609 0.85455 0.53463 0.0
H348 H 0.58898 0.69547 0.73503 0.0
H349 H 0.62431 0.68247 0.78505 0.0
H350 H 0.71311 0.78386 0.75879 0.0
H351 H 0.6769 0.79764 0.71036 0.0
H352 H 0.6764 0.67575 0.76121 0.0
H353 H 0.72298 0.77898 0.89067 0.0
H354 H 0.6888 0.77137 0.85184 0.0
H355 H 0.73367 0.7958 0.83491 0.0
C356 C 0.61591 0.7152 0.74056 0.0
C357 C 0.63039 0.74743 0.71878 0.0
C358 C 0.6361 0.70777 0.76912 0.0
C359 C 0.67144 0.73215 0.77587 0.0
C360 C 0.68578 0.76486 0.75495 0.0
H361 H 0.79997 0.64611 0.86955 0.0
H362 H 0.77781 0.67692 0.82473 0.0
C363 C 0.66521 0.77265 0.72706 0.0
C364 C 0.69333 0.72166 0.80169 0.0
H365 H 0.74837 0.74279 0.89082 0.0
C366 C 0.69208 0.69044 0.78962 0.0
C367 C 0.71367 0.74069 0.83889 0.0
C368 C 0.71466 0.77338 0.85518 0.0
C369 C 0.70971 0.67717 0.81419 0.0
C370 C 0.7308 0.69657 0.85075 0.0
C371 C 0.7326 0.72816 0.86245 0.0
C372 C 0.74905 0.68315 0.87898 0.0
C373 C 0.70409 0.64167 0.80181 0.0
C374 C 0.7424 0.67865 0.92506 0.0
C375 C 0.75594 0.66202 0.951 0.0
C376 C 0.77601 0.64918 0.9312 0.0
C377 C 0.78419 0.65533 0.88558 0.0
C378 C 0.77132 0.6727 0.85988 0.0
H379 H 0.6799 0.6264 0.78199 0.0
H380 H 0.72619 0.64481 0.78107 0.0
H381 H 0.70239 0.62638 0.83199 0.0
H382 H 0.72547 0.68663 0.94066 0.0
H383 H 0.74914 0.65763 0.98607 0.0
H384 H 0.09788 0.78227 0.31586 0.0
H385 H 0.04333 0.7605 0.27453 0.0
H386 H 0.09308 0.75138 0.15567 0.0
H387 H 0.14781 0.77354 0.19634 0.0
H388 H 0.0466 0.77688 0.13992 0.0
H389 H 0.98712 0.65621 0.24287 0.0
H390 H 0.00414 0.6966 0.2729 0.0
H391 H 0.03327 0.68674 0.24306 0.0
C392 C 0.09739 0.77611 0.28076 0.0
C393 C 0.12716 0.77928 0.25956 0.0
C394 C 0.06614 0.76356 0.25726 0.0
C395 C 0.06406 0.75379 0.2123 0.0
C396 C 0.09414 0.7587 0.19043 0.0
H397 H 0.91294 0.60388 0.04334 0.0
H398 H 0.95967 0.64142 0.09432 0.0
C399 C 0.12541 0.77132 0.2138 0.0
C400 C 0.0302 0.73601 0.18864 0.0
H401 H 0.95344 0.65892 0.18442 0.0
C402 C 0.02595 0.75131 0.14992 0.0
C403 C 0.00349 0.70254 0.20174 0.0
C404 C 0.00713 0.68431 0.24219 0.0
C405 C 0.99612 0.73349 0.12307 0.0
C406 C 0.96989 0.69969 0.1356 0.0
C407 C 0.97356 0.68497 0.17519 0.0
C408 C 0.94077 0.67732 0.10533 0.0
C409 C 0.99367 0.75009 0.08032 0.0
C410 C 0.91446 0.68496 0.09486 0.0
C411 C 0.88757 0.66343 0.0655 0.0
C412 C 0.88676 0.63405 0.04642 0.0
C413 C 0.91297 0.62642 0.05739 0.0
C414 C 0.93963 0.64778 0.08662 0.0
H415 H 0.01821 0.77457 0.07267 0.0
H416 H 0.98733 0.73178 0.05188 0.0
H417 H 0.9724 0.75625 0.08325 0.0
H418 H 0.91472 0.70747 0.10938 0.0
H419 H 0.86769 0.66989 0.05744 0.0
H420 H 0.31413 0.09181 0.65515 0.0
H421 H 0.28332 0.03779 0.61201 0.0
H422 H 0.34048 0.09186 0.49408 0.0
H423 H 0.37102 0.146 0.5365 0.0
H424 H 0.26937 0.04404 0.47789 0.0
H425 H 0.3338 0.98512 0.57521 0.0
H426 H 0.30947 6e-05 0.60709 0.0
H427 H 0.34799 0.03097 0.57787 0.0
C428 C 0.31986 0.09235 0.6199 0.0
C429 C 0.34535 0.12321 0.59943 0.0
C430 C 0.30231 0.06139 0.59537 0.0
C431 C 0.31006 0.06073 0.55007 0.0
C432 C 0.3342 0.0918 0.52907 0.0
H433 H 0.30995 0.91235 0.3742 0.0
H434 H 0.31967 0.95843 0.42681 0.0
C435 C 0.3517 0.12274 0.55346 0.0
C436 C 0.29485 0.02751 0.52489 0.0
H437 H 0.29725 0.95195 0.51637 0.0
C438 C 0.27502 0.02364 0.48654 0.0
C439 C 0.30258 0.00113 0.53619 0.0
C440 C 0.32483 0.00444 0.5761 0.0
C441 C 0.26357 0.99454 0.4584 0.0
C442 C 0.27191 0.96854 0.46926 0.0
C443 C 0.29074 0.97186 0.50838 0.0
C444 C 0.26499 0.93984 0.43803 0.0
C445 C 0.24417 0.99264 0.41615 0.0
C446 C 0.23093 0.9139 0.42713 0.0
C447 C 0.22529 0.88747 0.39679 0.0
C448 C 0.25365 0.88665 0.3772 0.0
C449 C 0.2876 0.91242 0.38862 0.0
C450 C 0.2932 0.93869 0.4188 0.0
H451 H 0.24455 0.01742 0.40921 0.0
H452 H 0.25559 0.98628 0.38713 0.0
H453 H 0.21665 0.97162 0.41939 0.0
H454 H 0.20881 0.9141 0.44206 0.0
H455 H 0.19885 0.86792 0.38841 0.0
H456 H 0.16684 0.44915 0.67486 0.0
H457 H 0.17501 0.44473 0.5949 0.0
H458 H 0.26631 0.43707 0.62232 0.0
H459 H 0.25785 0.44068 0.70273 0.0
H460 H 0.23312 0.48748 0.53986 0.0
H461 H 0.20512 0.35044 0.54453 0.0
H462 H 0.19424 0.36996 0.59012 0.0
H463 H 0.23844 0.38015 0.58204 0.0
C464 C 0.18855 0.44628 0.66396 0.0
C465 C 0.21147 0.44487 0.69524 0.0
C466 C 0.1933 0.44399 0.61822 0.0
C467 C 0.22095 0.44006 0.60269 0.0
C468 C 0.24446 0.43954 0.63365 0.0
H469 H 0.27161 0.40444 0.33306 0.0
H470 H 0.27179 0.41441 0.41341 0.0
C471 C 0.23979 0.44194 0.67953 0.0
C472 C 0.22479 0.4363 0.55406 0.0
H473 H 0.22056 0.37882 0.47479 0.0
C474 C 0.23046 0.46377 0.52559 0.0
C475 C 0.22138 0.40536 0.53558 0.0
C476 C 0.21419 0.37462 0.56447 0.0
C477 C 0.23292 0.46119 0.4791 0.0
C478 C 0.22878 0.42997 0.46049 0.0
C479 C 0.22365 0.4027 0.48906 0.0
C480 C 0.22909 0.42478 0.41145 0.0
C481 C 0.24039 0.49213 0.45044 0.0
C482 C 0.20478 0.42693 0.38359 0.0
C483 C 0.20483 0.4216 0.33752 0.0
C484 C 0.22899 0.41366 0.31832 0.0
C485 C 0.25303 0.41111 0.34648 0.0
C486 C 0.25302 0.41655 0.39253 0.0
H487 H 0.25292 0.51674 0.47002 0.0
H488 H 0.25755 0.4948 0.42193 0.0
H489 H 0.21554 0.48857 0.4369 0.0
H490 H 0.18555 0.43248 0.39751 0.0
H491 H 0.18611 0.42403 0.31693 0.0
H492 H 0.76665 0.25222 0.02768 0.0
H493 H 0.77436 0.25513 0.94646 0.0
H494 H 0.77314 0.15731 0.94832 0.0
H495 H 0.7655 0.15421 0.02938 0.0
H496 H 0.82629 0.25481 0.89355 0.0
H497 H 0.69722 0.13952 0.85737 0.0
H498 H 0.70815 0.16072 0.91122 0.0
H499 H 0.72324 0.13129 0.89593 0.0
C500 C 0.76838 0.2315 0.01086 0.0
C501 C 0.76515 0.20282 0.03498 0.0
C502 C 0.7726 0.23312 0.96443 0.0
C503 C 0.77358 0.20608 0.94124 0.0
C504 C 0.77152 0.178 0.96537 0.0
H505 H 0.79503 0.16446 0.66299 0.0
H506 H 0.78735 0.16225 0.74416 0.0
C507 C 0.76721 0.17631 0.01172 0.0
C508 C 0.77688 0.20726 0.89184 0.0
H509 H 0.73628 0.16339 0.79639 0.0
C510 C 0.80655 0.23494 0.87225 0.0
C511 C 0.75109 0.18126 0.86414 0.0
C512 C 0.71796 0.15167 0.88311 0.0
C513 C 0.8115 0.23695 0.82576 0.0
C514 C 0.78572 0.21092 0.79806 0.0
C515 C 0.75602 0.18329 0.81766 0.0
C516 C 0.78916 0.21184 0.74867 0.0
C517 C 0.8447 0.26647 0.80685 0.0
C518 C 0.79183 0.24001 0.72411 0.0
C519 C 0.79619 0.24132 0.67777 0.0
C520 C 0.79761 0.2143 0.65496 0.0
C521 C 0.79378 0.18556 0.67949 0.0
C522 C 0.78957 0.18435 0.72589 0.0
H523 H 0.86543 0.27854 0.83262 0.0
H524 H 0.85449 0.25738 0.77874 0.0
H525 H 0.83955 0.28693 0.79404 0.0
H526 H 0.79062 0.26106 0.74082 0.0
H527 H 0.79841 0.26351 0.65976 0.0
H528 H 0.52877 0.71152 0.34282 0.0
H529 H 0.53493 0.72191 0.2624 0.0
H530 H 0.60521 0.83123 0.28592 0.0
H531 H 0.60023 0.82087 0.36661 0.0
H532 H 0.51987 0.7641 0.21043 0.0
H533 H 0.66037 0.80617 0.19949 0.0
H534 H 0.63458 0.78512 0.24838 0.0
H535 H 0.65023 0.83057 0.23855 0.0
C536 C 0.54593 0.73775 0.33099 0.0
C537 C 0.56433 0.76529 0.36133 0.0
C538 C 0.54919 0.74367 0.28493 0.0
C539 C 0.57098 0.77723 0.26805 0.0
C540 C 0.5888 0.80498 0.29814 0.0
H541 H 0.62559 0.86145 0.99953 0.0
H542 H 0.6189 0.85248 0.08019 0.0
C543 C 0.58559 0.79907 0.34431 0.0
C544 C 0.57462 0.78303 0.21895 0.0
H545 H 0.63361 0.81103 0.1336 0.0
C546 C 0.54472 0.77428 0.1936 0.0
C547 C 0.60706 0.7963 0.19701 0.0
C548 C 0.63987 0.80482 0.22211 0.0
C549 C 0.54643 0.77892 0.14704 0.0
C550 C 0.57885 0.79207 0.12507 0.0
C551 C 0.60877 0.80093 0.15045 0.0
C552 C 0.5824 0.79719 0.07585 0.0
C553 C 0.51362 0.7704 0.12195 0.0
C554 C 0.56442 0.76901 0.04643 0.0
C555 C 0.56793 0.7741 1.00013 0.0
C556 C 0.58967 0.80749 0.98227 0.0
C557 C 0.60808 0.83552 0.01197 0.0
C558 C 0.60451 0.8304 0.05818 0.0
H559 H 0.49335 0.76962 0.1445 0.0
H560 H 0.51898 0.78976 0.09519 0.0
H561 H 0.50293 0.74437 0.10617 0.0
H562 H 0.54777 0.743 0.05927 0.0
H563 H 0.55325 0.75194 0.97836 0.0
H564 H 0.86013 0.59708 0.68198 0.0
H565 H 0.85548 0.60161 0.60117 0.0
H566 H 0.74359 0.54713 0.61174 0.0
H567 H 0.74802 0.54247 0.69266 0.0
H568 H 0.82319 0.54773 0.54029 0.0
H569 H 0.76322 0.63153 0.53647 0.0
H570 H 0.78306 0.62608 0.58613 0.0
H571 H 0.74 0.59302 0.56989 0.0
C572 C 0.83451 0.5861 0.66715 0.0
C573 C 0.80443 0.5694 0.69383 0.0
C574 C 0.83191 0.58882 0.62096 0.0
C575 C 0.79922 0.57506 0.60041 0.0
C576 C 0.76912 0.55862 0.62694 0.0
H577 H 0.73045 0.5579 0.32508 0.0
H578 H 0.73456 0.55328 0.40599 0.0
C579 C 0.7717 0.55597 0.67322 0.0
C580 C 0.79672 0.57666 0.55105 0.0
H581 H 0.76651 0.60693 0.46749 0.0
C582 C 0.81093 0.56081 0.52435 0.0
C583 C 0.78063 0.59363 0.53029 0.0
C584 C 0.76612 0.61232 0.55709 0.0
C585 C 0.80904 0.561 0.47751 0.0
C586 C 0.79302 0.57804 0.45674 0.0
C587 C 0.77875 0.59383 0.48344 0.0
C588 C 0.79081 0.57987 0.40737 0.0
C589 C 0.82353 0.54229 0.45072 0.0
C590 C 0.82108 0.5964 0.38118 0.0
C591 C 0.81882 0.59911 0.33486 0.0
C592 C 0.78623 0.58564 0.31385 0.0
C593 C 0.75597 0.5689 0.34022 0.0
C594 C 0.75825 0.56614 0.38646 0.0
H595 H 0.82627 0.52297 0.4713 0.0
H596 H 0.80667 0.52866 0.42157 0.0
H597 H 0.84973 0.56155 0.4381 0.0
H598 H 0.84651 0.60787 0.39667 0.0
H599 H 0.84263 0.61265 0.31569 0.0
H600 H 0.25098 0.80939 0.63996 0.0
H601 H 0.25991 0.81206 0.72095 0.0
H602 H 0.14911 0.76214 0.74162 0.0
H603 H 0.13991 0.7599 0.66101 0.0
H604 H 0.23882 0.84424 0.78702 0.0
H605 H 0.17791 0.70175 0.81465 0.0
H606 H 0.19119 0.72128 0.76007 0.0
H607 H 0.15141 0.71488 0.78443 0.0
C608 C 0.2285 0.7992 0.6617 0.0
C609 C 0.19468 0.78418 0.64378 0.0
C610 C 0.23366 0.80057 0.70799 0.0
C611 C 0.20514 0.78675 0.73728 0.0
C612 C 0.17145 0.77222 0.71962 0.0
H613 H 0.18154 0.7719 0.02689 0.0
H614 H 0.17201 0.76807 0.94592 0.0
C615 C 0.16625 0.77092 0.67344 0.0
C616 C 0.2106 0.7882 0.78637 0.0
H617 H 0.19272 0.73734 0.87931 0.0
C618 C 0.22892 0.82089 0.80719 0.0
C619 C 0.19746 0.75769 0.81265 0.0
C620 C 0.17864 0.72187 0.79189 0.0
C621 C 0.234 0.82391 0.85368 0.0
C622 C 0.22101 0.79339 0.87997 0.0
C623 C 0.20261 0.7607 0.85915 0.0
C624 C 0.22674 0.79493 0.92903 0.0
C625 C 0.25256 0.85977 0.87436 0.0
C626 C 0.26061 0.81056 0.9464 0.0
C627 C 0.26613 0.81265 0.99254 0.0
C628 C 0.23787 0.79899 0.02244 0.0
C629 C 0.20389 0.78252 1.00489 0.0
C630 C 0.19839 0.78046 0.95863 0.0
H631 H 0.25243 0.87962 0.85188 0.0
H632 H 0.24043 0.86017 0.90663 0.0
H633 H 0.28007 0.86734 0.88086 0.0
H634 H 0.28285 0.8211 0.92422 0.0
H635 H 0.29262 0.82478 1.00478 0.0
H636 H 0.40097 0.17874 0.3688 0.0
H637 H 0.39644 0.16905 0.2879 0.0
H638 H 0.45484 0.27995 0.26607 0.0
H639 H 0.46066 0.28985 0.34657 0.0
H640 H 0.36609 0.19151 0.22518 0.0
H641 H 0.5061 0.24577 0.18709 0.0
H642 H 0.48911 0.23535 0.24321 0.0
H643 H 0.49697 0.27524 0.21737 0.0
C644 C 0.41334 0.20106 0.34681 0.0
C645 C 0.43122 0.23509 0.36434 0.0
C646 C 0.41051 0.19547 0.30056 0.0
C647 C 0.42572 0.22374 0.27089 0.0
C648 C 0.44347 0.25769 0.28825 0.0
H649 H 0.43252 0.24841 0.98215 0.0
H650 H 0.4378 0.25712 0.06319 0.0
C651 C 0.44636 0.26331 0.33439 0.0
C652 C 0.42201 0.21788 0.2218 0.0
H653 H 0.46836 0.23392 0.12497 0.0
C654 C 0.38844 0.20056 0.20328 0.0
C655 C 0.45119 0.22984 0.19322 0.0
C656 C 0.48787 0.2473 0.2112 0.0
C657 C 0.38326 0.19552 0.15694 0.0
C658 C 0.41245 0.20758 0.12835 0.0
C659 C 0.44602 0.22481 0.14687 0.0
C660 C 0.40872 0.20222 0.07918 0.0
C661 C 0.34658 0.17808 0.13896 0.0
C662 C 0.39089 0.16848 0.06118 0.0
C663 C 0.38755 0.16343 0.01494 0.0
C664 C 0.4023 0.19201 0.98553 0.0
C665 C 0.42042 0.22582 1.00371 0.0
C666 C 0.42368 0.23084 0.05005 0.0
H667 H 0.32826 0.17923 0.16327 0.0
H668 H 0.3453 0.19034 0.10724 0.0
H669 H 0.33763 0.15025 0.13221 0.0
H670 H 0.3797 0.14597 0.08293 0.0
H671 H 0.3731 0.13704 1.00228 0.0
H672 H 0.20575 0.48771 0.1398 0.0
H673 H 0.19932 0.53246 0.17849 0.0
H674 H 0.16908 0.56006 0.05514 0.0
H675 H 0.17634 0.51566 0.01559 0.0
H676 H 0.21477 0.61719 0.10092 0.0
H677 H 0.11027 0.52843 0.21532 0.0
H678 H 0.14725 0.52245 0.21912 0.0
H679 H 0.12326 0.51282 0.16751 0.0
C680 C 0.19753 0.50309 0.12075 0.0
C681 C 0.1913 0.49785 0.07455 0.0
C682 C 0.19365 0.52858 0.14308 0.0
C683 C 0.18288 0.54907 0.11998 0.0
C684 C 0.17709 0.54432 0.07373 0.0
H685 H 0.12946 0.68149 0.28098 0.0
H686 H 0.12572 0.63822 0.22669 0.0
C687 C 0.18126 0.51893 0.05118 0.0
C688 C 0.17885 0.57609 0.14422 0.0
H689 H 0.14222 0.58874 0.23742 0.0
C690 C 0.19854 0.61093 0.13042 0.0
C691 C 0.15703 0.5679 0.1821 0.0
C692 C 0.13297 0.53081 0.19657 0.0
C693 C 0.19844 0.63795 0.15488 0.0
C694 C 0.17885 0.62995 0.19484 0.0
C695 C 0.15771 0.59497 0.20723 0.0
C696 C 0.18119 0.65741 0.22548 0.0
C697 C 0.21936 0.67476 0.13769 0.0
C698 C 0.21351 0.68233 0.24316 0.0
C699 C 0.21567 0.70702 0.27395 0.0
C700 C 0.18549 0.707 0.28808 0.0
C701 C 0.15311 0.68199 0.27066 0.0
C702 C 0.15097 0.65738 0.23959 0.0
H703 H 0.2226 0.67519 0.10086 0.0
H704 H 0.2069 0.69037 0.14632 0.0
H705 H 0.24569 0.68742 0.15289 0.0
H706 H 0.23706 0.68225 0.23389 0.0
H707 H 0.24092 0.72578 0.28729 0.0
H708 H 0.67108 0.2115 0.36653 0.0
H709 H 0.62351 0.20736 0.41238 0.0
H710 H 0.65886 0.1714 0.52357 0.0
H711 H 0.70707 0.17654 0.4785 0.0
H712 H 0.56972 0.15416 0.4548 0.0
H713 H 0.65594 0.2526 0.57876 0.0
H714 H 0.67207 0.24554 0.52683 0.0
H715 H 0.66407 0.217 0.57356 0.0
C716 C 0.66871 0.2027 0.40074 0.0
C717 C 0.69308 0.19478 0.41907 0.0
C718 C 0.64149 0.20031 0.42688 0.0
C719 C 0.63805 0.18978 0.47169 0.0
C720 C 0.66158 0.18056 0.48949 0.0
H721 H 0.45447 0.13029 0.63763 0.0
H722 H 0.49905 0.12965 0.5898 0.0
C723 C 0.68904 0.18336 0.4636 0.0
C724 C 0.61012 0.18885 0.49989 0.0
H725 H 0.59584 0.22046 0.59671 0.0
C726 C 0.5754 0.16872 0.48578 0.0
C727 C 0.61762 0.20831 0.53995 0.0
C728 C 0.65445 0.23236 0.55548 0.0
C729 C 0.54794 0.16726 0.51086 0.0
C730 C 0.5554 0.18572 0.55172 0.0
C731 C 0.59013 0.20601 0.56563 0.0
C732 C 0.52784 0.18553 0.57997 0.0
C733 C 0.51137 0.14675 0.49274 0.0
C734 C 0.52975 0.21715 0.59136 0.0
C735 C 0.5048 0.21758 0.61927 0.0
C736 C 0.47727 0.18637 0.63605 0.0
C737 C 0.47533 0.15469 0.62484 0.0
C738 C 0.50056 0.15428 0.5972 0.0
H739 H 0.51123 0.14239 0.45617 0.0
H740 H 0.49775 0.12089 0.50919 0.0
H741 H 0.49648 0.16026 0.49951 0.0
H742 H 0.55069 0.24159 0.57875 0.0
H743 H 0.50726 0.24242 0.62798 0.0
H744 H 0.26845 0.45831 0.90812 0.0
H745 H 0.31244 0.50128 0.85749 0.0
H746 H 0.36133 0.57114 0.96848 0.0
H747 H 0.31757 0.52835 0.01921 0.0
H748 H 0.33004 0.57281 0.84272 0.0
H749 H 0.4407 0.56139 0.9092 0.0
H750 H 0.39583 0.52897 0.91941 0.0
H751 H 0.41597 0.56891 0.95077 0.0
C752 C 0.28847 0.48295 0.9216 0.0
C753 C 0.28966 0.49011 0.9675 0.0
C754 C 0.31356 0.50737 0.89272 0.0
C755 C 0.34029 0.53913 0.90941 0.0
C756 C 0.34119 0.54652 0.95513 0.0
H757 H 0.51816 0.72373 0.80927 0.0
H758 H 0.47234 0.67688 0.85305 0.0
C759 C 0.31613 0.52216 0.98398 0.0
C760 C 0.36723 0.56476 0.87908 0.0
H761 H 0.45465 0.60811 0.85926 0.0
C762 C 0.35727 0.58041 0.846 0.0
C763 C 0.40264 0.57444 0.88354 0.0
C764 C 0.41452 0.55738 0.91737 0.0
C765 C 0.38207 0.60652 0.8182 0.0
C766 C 0.41762 0.6166 0.8231 0.0
C767 C 0.42741 0.6004 0.85566 0.0
C768 C 0.44528 0.64474 0.79591 0.0
C769 C 0.37014 0.62392 0.78495 0.0
C770 C 0.44555 0.642 0.74922 0.0
C771 C 0.47167 0.66887 0.72395 0.0
C772 C 0.49817 0.69882 0.74501 0.0
C773 C 0.49813 0.70112 0.79188 0.0
C774 C 0.47196 0.67434 0.81702 0.0
H775 H 0.34375 0.61939 0.79301 0.0
H776 H 0.38851 0.65243 0.7838 0.0
H777 H 0.3691 0.61308 0.7512 0.0
H778 H 0.42566 0.61901 0.73233 0.0
H779 H 0.47106 0.66613 0.68797 0.0
H780 H 0.75728 0.27678 0.30007 0.0
H781 H 0.76109 0.31993 0.24626 0.0
H782 H 0.87263 0.36518 0.2411 0.0
H783 H 0.86895 0.32229 0.29579 0.0
H784 H 0.85485 0.41425 0.24988 0.0
H785 H 0.77703 0.32513 0.11339 0.0
H786 H 0.75374 0.31321 0.16526 0.0
H787 H 0.79316 0.31129 0.15972 0.0
C788 C 0.78258 0.29576 0.28715 0.0
C789 C 0.81282 0.29619 0.30185 0.0
C790 C 0.78471 0.32024 0.25616 0.0
C791 C 0.81707 0.34534 0.23887 0.0
C792 C 0.84736 0.34588 0.25373 0.0
H793 H 0.82321 0.47996 0.0204 0.0
H794 H 0.83021 0.43741 0.06448 0.0
C795 C 0.84526 0.32148 0.285 0.0
C796 C 0.81928 0.37217 0.20736 0.0
H797 H 0.78462 0.38277 0.11095 0.0
C798 C 0.83983 0.40739 0.21921 0.0
C799 C 0.80032 0.3633 0.16683 0.0
C800 C 0.78014 0.32619 0.15028 0.0
C801 C 0.84068 0.43388 0.19272 0.0
C802 C 0.81957 0.42483 0.15401 0.0
C803 C 0.80031 0.38971 0.14104 0.0
C804 C 0.81621 0.45123 0.12738 0.0
C805 C 0.86434 0.47127 0.20649 0.0
C806 C 0.80559 0.47287 0.14792 0.0
C807 C 0.80195 0.49744 0.12296 0.0
C808 C 0.80816 0.50041 0.07668 0.0
C809 C 0.81822 0.47833 0.05598 0.0
C810 C 0.82224 0.454 0.08112 0.0
H811 H 0.88673 0.47414 0.22647 0.0
H812 H 0.87454 0.48871 0.17703 0.0
H813 H 0.84958 0.47994 0.22768 0.0
H814 H 0.79972 0.47052 0.18328 0.0
H815 H 0.79381 0.51376 0.13994 0.0
H816 H 0.32788 0.79155 0.35611 0.0
H817 H 0.37526 0.79602 0.40274 0.0
H818 H 0.33829 0.83098 0.51344 0.0
H819 H 0.2903 0.82549 0.46763 0.0
H820 H 0.42844 0.8493 0.44631 0.0
H821 H 0.34141 0.75005 0.56854 0.0
H822 H 0.32568 0.75716 0.51635 0.0
H823 H 0.333 0.78545 0.56329 0.0
C824 C 0.32986 0.80019 0.39039 0.0
C825 C 0.30508 0.80771 0.40835 0.0
C826 C 0.35697 0.80278 0.41697 0.0
C827 C 0.35991 0.81313 0.46186 0.0
C828 C 0.33598 0.82197 0.4793 0.0
H829 H 0.54228 0.87185 0.63125 0.0
H830 H 0.49844 0.87322 0.58261 0.0
C831 C 0.30863 0.81895 0.45297 0.0
C832 C 0.38769 0.81422 0.49058 0.0
H833 H 0.40127 0.78244 0.58758 0.0
C834 C 0.42254 0.83463 0.47716 0.0
C835 C 0.37991 0.79464 0.5305 0.0
C836 C 0.34297 0.77032 0.54533 0.0
C837 C 0.44984 0.83618 0.50273 0.0
C838 C 0.44208 0.81752 0.54338 0.0
C839 C 0.40723 0.79704 0.55665 0.0
C840 C 0.46939 0.81742 0.57189 0.0
C841 C 0.48658 0.85698 0.48531 0.0
C842 C 0.46714 0.78562 0.58298 0.0
C843 C 0.49163 0.78478 0.61133 0.0
C844 C 0.5191 0.81574 0.62888 0.0
C845 C 0.52148 0.84764 0.61787 0.0
C846 C 0.49666 0.84845 0.58978 0.0
H847 H 0.48708 0.86167 0.4488 0.0
H848 H 0.49995 0.88268 0.50228 0.0
H849 H 0.50149 0.84349 0.49206 0.0
H850 H 0.44624 0.76134 0.56986 0.0
H851 H 0.48878 0.75977 0.61987 0.0
H852 H 0.67166 0.53822 0.96981 0.0
H853 H 0.62445 0.49328 0.92458 0.0
H854 H 0.68403 0.44156 0.90625 0.0
H855 H 0.7305 0.48548 0.95295 0.0
H856 H 0.62247 0.47347 0.83893 0.0
H857 H 0.59296 0.36281 0.95094 0.0
H858 H 0.62081 0.40753 0.96757 0.0
H859 H 0.63764 0.38571 0.9337 0.0
C860 C 0.67455 0.51714 0.95627 0.0
C861 C 0.70467 0.51526 0.96485 0.0
C862 C 0.64765 0.49157 0.93036 0.0
C863 C 0.65044 0.46372 0.91267 0.0
C864 C 0.68092 0.46232 0.92042 0.0
H865 H 0.52896 0.32583 0.69663 0.0
H866 H 0.57276 0.37299 0.74255 0.0
C867 C 0.70764 0.48766 0.94666 0.0
C868 C 0.62164 0.43628 0.88583 0.0
H869 H 0.56757 0.34836 0.87831 0.0
C870 C 0.61028 0.44612 0.84767 0.0
C871 C 0.60532 0.40066 0.89771 0.0
C872 C 0.61453 0.38854 0.93997 0.0
C873 C 0.58361 0.42123 0.82048 0.0
C874 C 0.56853 0.38546 0.83113 0.0
C875 C 0.57937 0.37573 0.86985 0.0
C876 C 0.54151 0.35758 0.80271 0.0
C877 C 0.57152 0.43361 0.78109 0.0
C878 C 0.50968 0.33264 0.82146 0.0
C879 C 0.48484 0.30528 0.79548 0.0
C880 C 0.49128 0.30238 0.75014 0.0
C881 C 0.52304 0.32753 0.73132 0.0
C882 C 0.54804 0.35467 0.75748 0.0
H883 H 0.57747 0.46091 0.78573 0.0
H884 H 0.58531 0.43277 0.75061 0.0
H885 H 0.5431 0.41684 0.77556 0.0
H886 H 0.50412 0.33427 0.85633 0.0
H887 H 0.4606 0.28639 0.81099 0.0
loop_
_geom_bond_atom_site_label_1
_geom_bond_atom_site_label_2
_geom_bond_distance
_geom_bond_site_symmetry_2
_ccdc_geom_bond_type
Gd0 C3 2.818 . S
Gd0 O20 2.377 . S
Gd0 O22 2.448 . S
Gd0 O23 2.506 . S
Gd0 O24 2.435 . S
Gd0 O25 2.717 1_556 S
Gd0 O27 2.395 1_556 S
Gd0 O31 2.327 . S
Gd1 C12 2.818 . S
Gd1 O21 2.395 1_554 S
Gd1 O25 2.327 . S
Gd1 O26 2.377 . S
Gd1 O28 2.448 . S
Gd1 O29 2.506 . S
Gd1 O30 2.435 . S
Gd1 O31 2.717 1_554 S
C2 O20 1.240 . S
C2 O21 1.240 . S
C3 Gd0 2.818 . S
C3 C4 1.510 . S
C3 O22 1.249 . S
C3 O23 1.252 . S
C4 C3 1.510 . S
C4 C5 1.404 . S
C4 C6 1.352 . S
C5 C4 1.404 . S
C5 C9 1.389 . S
C5 H32 0.930 . S
C6 C4 1.352 . S
C6 C8 1.374 . S
C6 H33 0.931 . S
C7 C8 1.359 . S
C7 C9 1.364 . S
C8 C6 1.374 . S
C8 C7 1.359 . S
C8 H34 0.931 . S
C9 C5 1.389 . S
C9 C7 1.364 . S
C9 H35 0.931 . S
C10 O24 1.256 1_554 S
C10 O25 1.257 . S
C11 O26 1.240 . S
C11 O27 1.240 . S
C12 Gd1 2.818 . S
C12 C13 1.510 . S
C12 O28 1.249 . S
C12 O29 1.252 . S
C13 C12 1.510 . S
C13 C14 1.404 . S
C13 C15 1.352 . S
C14 C13 1.404 . S
C14 C18 1.389 . S
C14 H36 0.930 . S
C15 C13 1.352 . S
C15 C17 1.374 . S
C15 H37 0.931 . S
C16 C17 1.359 . S
C16 C18 1.364 . S
C17 C15 1.374 . S
C17 C16 1.359 . S
C17 H38 0.931 . S
C18 C14 1.389 . S
C18 C16 1.364 . S
C18 H39 0.931 . S
C19 O30 1.256 1_556 S
C19 O31 1.257 . S
O20 Gd0 2.377 . S
O20 C2 1.240 . S
O21 Gd1 2.395 1_556 S
O21 C2 1.240 . S
O22 Gd0 2.448 . S
O22 C3 1.249 . S
O23 Gd0 2.506 . S
O23 C3 1.252 . S
O24 Gd0 2.435 . S
O24 C10 1.256 1_556 S
O25 Gd0 2.717 1_554 S
O25 Gd1 2.327 . S
O25 C10 1.257 . S
O26 Gd1 2.377 . S
O26 C11 1.240 . S
O27 Gd0 2.395 1_554 S
O27 C11 1.240 . S
O28 Gd1 2.448 . S
O28 C12 1.249 . S
O29 Gd1 2.506 . S
O29 C12 1.252 . S
O30 Gd1 2.435 . S
O30 C19 1.256 1_554 S
O31 Gd0 2.327 . S
O31 Gd1 2.717 1_556 S
O31 C19 1.257 . S
H32 C5 0.930 . S
H33 C6 0.931 . S
H34 C8 0.931 . S
H35 C9 0.931 . S
H36 C14 0.930 . S
H37 C15 0.931 . S
H38 C17 0.931 . S
H39 C18 0.931 . S
Gd40 C43 2.818 . S
Gd40 O60 2.377 . S
Gd40 O62 2.448 . S
Gd40 O63 2.506 . S
Gd40 O64 2.435 . S
Gd40 O65 2.717 . S
Gd40 O67 2.395 . S
Gd40 O71 2.327 . S
Gd41 C52 2.818 . S
Gd41 O61 2.395 . S
Gd41 O65 2.327 . S
Gd41 O66 2.377 . S
Gd41 O68 2.448 . S
Gd41 O69 2.506 . S
Gd41 O70 2.435 . S
Gd41 O71 2.717 . S
C42 O60 1.240 . S
C42 O61 1.240 . S
C43 Gd40 2.818 . S
C43 C44 1.510 . S
C43 O62 1.249 . S
C43 O63 1.252 . S
C44 C43 1.510 . S
C44 C45 1.404 . S
C44 C46 1.352 . S
C45 C44 1.404 . S
C45 C49 1.389 . S
C45 H72 0.930 . S
C46 C44 1.352 . S
C46 C48 1.374 . S
C46 H73 0.931 . S
C47 C48 1.359 . S
C47 C49 1.364 . S
C48 C46 1.374 . S
C48 C47 1.359 . S
C48 H74 0.931 . S
C49 C45 1.389 . S
C49 C47 1.364 . S
C49 H75 0.931 . S
C50 O64 1.256 . S
C50 O65 1.257 . S
C51 O66 1.240 . S
C51 O67 1.240 . S
C52 Gd41 2.818 . S
C52 C53 1.510 . S
C52 O68 1.249 . S
C52 O69 1.252 . S
C53 C52 1.510 . S
C53 C54 1.404 . S
C53 C55 1.352 . S
C54 C53 1.404 . S
C54 C58 1.389 . S
C54 H76 0.930 . S
C55 C53 1.352 . S
C55 C57 1.374 . S
C55 H77 0.931 . S
C56 C57 1.359 . S
C56 C58 1.364 . S
C57 C55 1.374 . S
C57 C56 1.359 . S
C57 H78 0.931 . S
C58 C54 1.389 . S
C58 C56 1.364 . S
C58 H79 0.931 . S
C59 O70 1.256 . S
C59 O71 1.257 . S
O60 Gd40 2.377 . S
O60 C42 1.240 . S
O61 Gd41 2.395 . S
O61 C42 1.240 . S
O62 Gd40 2.448 . S
O62 C43 1.249 . S
O63 Gd40 2.506 . S
O63 C43 1.252 . S
O64 Gd40 2.435 . S
O64 C50 1.256 . S
O65 Gd40 2.717 . S
O65 Gd41 2.327 . S
O65 C50 1.257 . S
O66 Gd41 2.377 . S
O66 C51 1.240 . S
O67 Gd40 2.395 . S
O67 C51 1.240 . S
O68 Gd41 2.448 . S
O68 C52 1.249 . S
O69 Gd41 2.506 . S
O69 C52 1.252 . S
O70 Gd41 2.435 . S
O70 C59 1.256 . S
O71 Gd40 2.327 . S
O71 Gd41 2.717 . S
O71 C59 1.257 . S
H72 C45 0.930 . S
H73 C46 0.931 . S
H74 C48 0.931 . S
H75 C49 0.931 . S
H76 C54 0.930 . S
H77 C55 0.931 . S
H78 C57 0.931 . S
H79 C58 0.931 . S
Gd80 C83 2.818 . S
Gd80 O100 2.377 . S
Gd80 O102 2.448 . S
Gd80 O103 2.506 . S
Gd80 O104 2.435 . S
Gd80 O105 2.717 . S
Gd80 O107 2.395 . S
Gd80 O111 2.327 . S
Gd81 C92 2.818 . S
Gd81 O101 2.395 . S
Gd81 O105 2.327 . S
Gd81 O106 2.377 . S
Gd81 O108 2.448 . S
Gd81 O109 2.506 . S
Gd81 O110 2.435 . S
Gd81 O111 2.717 . S
C82 O100 1.240 . S
C82 O101 1.240 . S
C83 Gd80 2.818 . S
C83 C84 1.510 . S
C83 O102 1.249 . S
C83 O103 1.252 . S
C84 C83 1.510 . S
C84 C85 1.404 . S
C84 C86 1.352 . S
C85 C84 1.404 . S
C85 C89 1.389 . S
C85 H112 0.930 . S
C86 C84 1.352 . S
C86 C88 1.374 . S
C86 H113 0.931 . S
C87 C88 1.359 . S
C87 C89 1.364 . S
C88 C86 1.374 . S
C88 C87 1.359 . S
C88 H114 0.931 . S
C89 C85 1.389 . S
C89 C87 1.364 . S
C89 H115 0.931 . S
C90 O104 1.256 . S
C90 O105 1.257 . S
C91 O106 1.240 . S
C91 O107 1.240 . S
C92 Gd81 2.818 . S
C92 C93 1.510 . S
C92 O108 1.249 . S
C92 O109 1.252 . S
C93 C92 1.510 . S
C93 C94 1.404 . S
C93 C95 1.352 . S
C94 C93 1.404 . S
C94 C98 1.389 . S
C94 H116 0.930 . S
C95 C93 1.352 . S
C95 C97 1.374 . S
C95 H117 0.931 . S
C96 C97 1.359 . S
C96 C98 1.364 . S
C97 C95 1.374 . S
C97 C96 1.359 . S
C97 H118 0.931 . S
C98 C94 1.389 . S
C98 C96 1.364 . S
C98 H119 0.931 . S
C99 O110 1.256 . S
C99 O111 1.257 . S
O100 Gd80 2.377 . S
O100 C82 1.240 . S
O101 Gd81 2.395 . S
O101 C82 1.240 . S
O102 Gd80 2.448 . S
O102 C83 1.249 . S
O103 Gd80 2.506 . S
O103 C83 1.252 . S
O104 Gd80 2.435 . S
O104 C90 1.256 . S
O105 Gd80 2.717 . S
O105 Gd81 2.327 . S
O105 C90 1.257 . S
O106 Gd81 2.377 . S
O106 C91 1.240 . S
O107 Gd80 2.395 . S
O107 C91 1.240 . S
O108 Gd81 2.448 . S
O108 C92 1.249 . S
O109 Gd81 2.506 . S
O109 C92 1.252 . S
O110 Gd81 2.435 . S
O110 C99 1.256 . S
O111 Gd80 2.327 . S
O111 Gd81 2.717 . S
O111 C99 1.257 . S
H112 C85 0.930 . S
H113 C86 0.931 . S
H114 C88 0.931 . S
H115 C89 0.931 . S
H116 C94 0.930 . S
H117 C95 0.931 . S
H118 C97 0.931 . S
H119 C98 0.931 . S
Gd120 C123 2.818 . S
Gd120 O140 2.377 . S
Gd120 O142 2.448 . S
Gd120 O143 2.506 . S
Gd120 O144 2.435 . S
Gd120 O145 2.717 1_556 S
Gd120 O147 2.395 1_556 S
Gd120 O151 2.327 . S
Gd121 C132 2.818 . S
Gd121 O141 2.395 1_554 S
Gd121 O145 2.327 . S
Gd121 O146 2.377 . S
Gd121 O148 2.448 . S
Gd121 O149 2.506 . S
Gd121 O150 2.435 . S
Gd121 O151 2.717 1_554 S
C122 O140 1.240 . S
C122 O141 1.240 . S
C123 Gd120 2.818 . S
C123 C124 1.510 . S
C123 O142 1.249 . S
C123 O143 1.252 . S
C124 C123 1.510 . S
C124 C125 1.404 . S
C124 C126 1.352 . S
C125 C124 1.404 . S
C125 C129 1.389 . S
C125 H152 0.930 . S
C126 C124 1.352 . S
C126 C128 1.374 . S
C126 H153 0.931 . S
C127 C128 1.359 . S
C127 C129 1.364 . S
C128 C126 1.374 . S
C128 C127 1.359 . S
C128 H154 0.931 . S
C129 C125 1.389 . S
C129 C127 1.364 . S
C129 H155 0.931 . S
C130 O144 1.256 1_554 S
C130 O145 1.257 . S
C131 O146 1.240 . S
C131 O147 1.240 . S
C132 Gd121 2.818 . S
C132 C133 1.510 . S
C132 O148 1.249 . S
C132 O149 1.252 . S
C133 C132 1.510 . S
C133 C134 1.404 . S
C133 C135 1.352 . S
C134 C133 1.404 . S
C134 C138 1.389 . S
C134 H156 0.930 . S
C135 C133 1.352 . S
C135 C137 1.374 . S
C135 H157 0.931 . S
C136 C137 1.359 . S
C136 C138 1.364 . S
C137 C135 1.374 . S
C137 C136 1.359 . S
C137 H158 0.931 . S
C138 C134 1.389 . S
C138 C136 1.364 . S
C138 H159 0.931 . S
C139 O150 1.256 1_556 S
C139 O151 1.257 . S
O140 Gd120 2.377 . S
O140 C122 1.240 . S
O141 Gd121 2.395 1_556 S
O141 C122 1.240 . S
O142 Gd120 2.448 . S
O142 C123 1.249 . S
O143 Gd120 2.506 . S
O143 C123 1.252 . S
O144 Gd120 2.435 . S
O144 C130 1.256 1_556 S
O145 Gd120 2.717 1_554 S
O145 Gd121 2.327 . S
O145 C130 1.257 . S
O146 Gd121 2.377 . S
O146 C131 1.240 . S
O147 Gd120 2.395 1_554 S
O147 C131 1.240 . S
O148 Gd121 2.448 . S
O148 C132 1.249 . S
O149 Gd121 2.506 . S
O149 C132 1.252 . S
O150 Gd121 2.435 . S
O150 C139 1.256 1_554 S
O151 Gd120 2.327 . S
O151 Gd121 2.717 1_556 S
O151 C139 1.257 . S
H152 C125 0.930 . S
H153 C126 0.931 . S
H154 C128 0.931 . S
H155 C129 0.931 . S
H156 C134 0.930 . S
H157 C135 0.931 . S
H158 C137 0.931 . S
H159 C138 0.931 . S
Gd160 C163 2.818 . S
Gd160 O180 2.377 . S
Gd160 O182 2.448 . S
Gd160 O183 2.506 . S
Gd160 O184 2.435 . S
Gd160 O185 2.717 . S
Gd160 O187 2.395 . S
Gd160 O191 2.327 . S
Gd161 C172 2.818 . S
Gd161 O181 2.395 . S
Gd161 O185 2.327 . S
Gd161 O186 2.377 . S
Gd161 O188 2.448 . S
Gd161 O189 2.506 . S
Gd161 O190 2.435 . S
Gd161 O191 2.717 . S
C162 O180 1.240 . S
C162 O181 1.240 . S
C163 Gd160 2.818 . S
C163 C164 1.510 . S
C163 O182 1.249 . S
C163 O183 1.252 . S
C164 C163 1.510 . S
C164 C165 1.404 . S
C164 C166 1.352 . S
C165 C164 1.404 . S
C165 C169 1.389 . S
C165 H192 0.930 . S
C166 C164 1.352 . S
C166 C168 1.374 . S
C166 H193 0.931 . S
C167 C168 1.359 . S
C167 C169 1.364 . S
C168 C166 1.374 . S
C168 C167 1.359 . S
C168 H194 0.931 . S
C169 C165 1.389 . S
C169 C167 1.364 . S
C169 H195 0.931 . S
C170 O184 1.256 . S
C170 O185 1.257 . S
C171 O186 1.240 . S
C171 O187 1.240 . S
C172 Gd161 2.818 . S
C172 C173 1.510 . S
C172 O188 1.249 . S
C172 O189 1.252 . S
C173 C172 1.510 . S
C173 C174 1.404 . S
C173 C175 1.352 . S
C174 C173 1.404 . S
C174 C178 1.389 . S
C174 H196 0.930 . S
C175 C173 1.352 . S
C175 C177 1.374 . S
C175 H197 0.931 . S
C176 C177 1.359 . S
C176 C178 1.364 . S
C177 C175 1.374 . S
C177 C176 1.359 . S
C177 H198 0.931 . S
C178 C174 1.389 . S
C178 C176 1.364 . S
C178 H199 0.931 . S
C179 O190 1.256 . S
C179 O191 1.257 . S
O180 Gd160 2.377 . S
O180 C162 1.240 . S
O181 Gd161 2.395 . S
O181 C162 1.240 . S
O182 Gd160 2.448 . S
O182 C163 1.249 . S
O183 Gd160 2.506 . S
O183 C163 1.252 . S
O184 Gd160 2.435 . S
O184 C170 1.256 . S
O185 Gd160 2.717 . S
O185 Gd161 2.327 . S
O185 C170 1.257 . S
O186 Gd161 2.377 . S
O186 C171 1.240 . S
O187 Gd160 2.395 . S
O187 C171 1.240 . S
O188 Gd161 2.448 . S
O188 C172 1.249 . S
O189 Gd161 2.506 . S
O189 C172 1.252 . S
O190 Gd161 2.435 . S
O190 C179 1.256 . S
O191 Gd160 2.327 . S
O191 Gd161 2.717 . S
O191 C179 1.257 . S
H192 C165 0.930 . S
H193 C166 0.931 . S
H194 C168 0.931 . S
H195 C169 0.931 . S
H196 C174 0.930 . S
H197 C175 0.931 . S
H198 C177 0.931 . S
H199 C178 0.931 . S
Gd200 C203 2.818 . S
Gd200 O220 2.377 . S
Gd200 O222 2.448 . S
Gd200 O223 2.506 . S
Gd200 O224 2.435 . S
Gd200 O225 2.717 . S
Gd200 O227 2.395 . S
Gd200 O231 2.327 . S
Gd201 C212 2.818 . S
Gd201 O221 2.395 . S
Gd201 O225 2.327 . S
Gd201 O226 2.377 . S
Gd201 O228 2.448 . S
Gd201 O229 2.506 . S
Gd201 O230 2.435 . S
Gd201 O231 2.717 . S
C202 O220 1.240 . S
C202 O221 1.240 . S
C203 Gd200 2.818 . S
C203 C204 1.510 . S
C203 O222 1.249 . S
C203 O223 1.252 . S
C204 C203 1.510 . S
C204 C205 1.404 . S
C204 C206 1.352 . S
C205 C204 1.404 . S
C205 C209 1.389 . S
C205 H232 0.930 . S
C206 C204 1.352 . S
C206 C208 1.374 . S
C206 H233 0.931 . S
C207 C208 1.359 . S
C207 C209 1.364 . S
C208 C206 1.374 . S
C208 C207 1.359 . S
C208 H234 0.931 . S
C209 C205 1.389 . S
C209 C207 1.364 . S
C209 H235 0.931 . S
C210 O224 1.256 . S
C210 O225 1.257 . S
C211 O226 1.240 . S
C211 O227 1.240 . S
C212 Gd201 2.818 . S
C212 C213 1.510 . S
C212 O228 1.249 . S
C212 O229 1.252 . S
C213 C212 1.510 . S
C213 C214 1.404 . S
C213 C215 1.352 . S
C214 C213 1.404 . S
C214 C218 1.389 . S
C214 H236 0.930 . S
C215 C213 1.352 . S
C215 C217 1.374 . S
C215 H237 0.931 . S
C216 C217 1.359 . S
C216 C218 1.364 . S
C217 C215 1.374 . S
C217 C216 1.359 . S
C217 H238 0.931 . S
C218 C214 1.389 . S
C218 C216 1.364 . S
C218 H239 0.931 . S
C219 O230 1.256 . S
C219 O231 1.257 . S
O220 Gd200 2.377 . S
O220 C202 1.240 . S
O221 Gd201 2.395 . S
O221 C202 1.240 . S
O222 Gd200 2.448 . S
O222 C203 1.249 . S
O223 Gd200 2.506 . S
O223 C203 1.252 . S
O224 Gd200 2.435 . S
O224 C210 1.256 . S
O225 Gd200 2.717 . S
O225 Gd201 2.327 . S
O225 C210 1.257 . S
O226 Gd201 2.377 . S
O226 C211 1.240 . S
O227 Gd200 2.395 . S
O227 C211 1.240 . S
O228 Gd201 2.448 . S
O228 C212 1.249 . S
O229 Gd201 2.506 . S
O229 C212 1.252 . S
O230 Gd201 2.435 . S
O230 C219 1.256 . S
O231 Gd200 2.327 . S
O231 Gd201 2.717 . S
O231 C219 1.257 . S
H232 C205 0.930 . S
H233 C206 0.931 . S
H234 C208 0.931 . S
H235 C209 0.931 . S
H236 C214 0.930 . S
H237 C215 0.931 . S
H238 C217 0.931 . S
H239 C218 0.931 . S
H240 C248 0.929 . S
H241 C250 0.930 . S
H242 C252 0.930 . S
H243 C255 0.929 . S
H244 C258 0.930 . S
H245 C260 0.960 . S
H246 C260 0.960 . S
H247 C260 0.960 . S
C248 H240 0.929 . S
C248 C249 1.377 . S
C248 C250 1.384 . S
C249 C248 1.377 . S
C249 C255 1.390 . S
C250 H241 0.930 . S
C250 C248 1.384 . S
C250 C251 1.372 . S
C251 C250 1.372 . S
C251 C252 1.400 . S
C251 C256 1.490 . S
C252 H242 0.930 . S
C252 C251 1.400 . S
C252 C255 1.386 . S
H253 C269 0.930 . S
H254 C270 0.931 . S
C255 H243 0.929 . S
C255 C249 1.390 . S
C255 C252 1.386 . S
C256 C251 1.490 . S
C256 C258 1.395 . S
C256 C259 1.403 . S
H257 C263 0.930 . S
C258 H244 0.930 . S
C258 C256 1.395 . S
C258 C261 1.403 . S
C259 C256 1.403 . S
C259 C260 1.524 . S
C259 C263 1.400 . S
C260 H245 0.960 . S
C260 H246 0.960 . S
C260 H247 0.960 . S
C260 C259 1.524 . S
C261 C258 1.403 . S
C261 C262 1.392 . S
C261 C265 1.495 . S
C262 C261 1.392 . S
C262 C263 1.385 . S
C262 C264 1.478 . S
C263 H257 0.930 . S
C263 C259 1.400 . S
C263 C262 1.385 . S
C264 C262 1.478 . S
C264 C266 1.381 . S
C264 C270 1.383 . S
C265 C261 1.495 . S
C265 H271 0.959 . S
C265 H272 0.961 . S
C265 H273 0.960 . S
C266 C264 1.381 . S
C266 C267 1.394 . S
C266 H274 0.930 . S
C267 C266 1.394 . S
C267 C268 1.383 . S
C267 H275 0.929 . S
C268 C267 1.383 . S
C268 C269 1.377 . S
C269 H253 0.930 . S
C269 C268 1.377 . S
C269 C270 1.379 . S
C270 H254 0.931 . S
C270 C264 1.383 . S
C270 C269 1.379 . S
H271 C265 0.959 . S
H272 C265 0.961 . S
H273 C265 0.960 . S
H274 C266 0.930 . S
H275 C267 0.929 . S
H276 C284 0.929 . S
H277 C286 0.930 . S
H278 C288 0.930 . S
H279 C291 0.929 1_556 S
H280 C294 0.930 . S
H281 C296 0.960 1_655 S
H282 C296 0.960 . S
H283 C296 0.960 . S
C284 H276 0.929 . S
C284 C285 1.377 . S
C284 C286 1.384 . S
C285 C284 1.377 . S
C285 C291 1.390 . S
C286 H277 0.930 . S
C286 C284 1.384 . S
C286 C287 1.372 . S
C287 C286 1.372 . S
C287 C288 1.400 . S
C287 C292 1.490 . S
C288 H278 0.930 . S
C288 C287 1.400 . S
C288 C291 1.386 . S
H289 C305 0.930 . S
H290 C306 0.931 . S
C291 H279 0.929 1_554 S
C291 C285 1.390 . S
C291 C288 1.386 . S
C292 C287 1.490 . S
C292 C294 1.395 . S
C292 C295 1.403 . S
H293 C299 0.930 . S
C294 H280 0.930 . S
C294 C292 1.395 . S
C294 C297 1.403 1_455 S
C295 C292 1.403 . S
C295 C296 1.524 . S
C295 C299 1.400 1_455 S
C296 H281 0.960 1_455 S
C296 H282 0.960 . S
C296 H283 0.960 . S
C296 C295 1.524 . S
C297 C294 1.403 1_655 S
C297 C298 1.392 . S
C297 C301 1.495 . S
C298 C297 1.392 . S
C298 C299 1.385 . S
C298 C300 1.478 . S
C299 H293 0.930 . S
C299 C295 1.400 1_655 S
C299 C298 1.385 . S
C300 C298 1.478 . S
C300 C302 1.381 . S
C300 C306 1.383 . S
C301 C297 1.495 . S
C301 H307 0.959 1_655 S
C301 H308 0.961 . S
C301 H309 0.960 . S
C302 C300 1.381 . S
C302 C303 1.394 . S
C302 H310 0.930 . S
C303 C302 1.394 . S
C303 C304 1.383 . S
C303 H311 0.929 . S
C304 C303 1.383 . S
C304 C305 1.377 . S
C305 H289 0.930 . S
C305 C304 1.377 . S
C305 C306 1.379 . S
C306 H290 0.931 . S
C306 C300 1.383 . S
C306 C305 1.379 . S
H307 C301 0.959 1_455 S
H308 C301 0.961 . S
H309 C301 0.960 . S
H310 C302 0.930 . S
H311 C303 0.929 . S
H312 C320 0.929 . S
H313 C322 0.930 . S
H314 C324 0.930 . S
H315 C327 0.929 . S
H316 C330 0.930 . S
H317 C332 0.960 . S
H318 C332 0.960 . S
H319 C332 0.960 . S
C320 H312 0.929 . S
C320 C321 1.377 . S
C320 C322 1.384 . S
C321 C320 1.377 . S
C321 C327 1.390 . S
C322 H313 0.930 . S
C322 C320 1.384 . S
C322 C323 1.372 . S
C323 C322 1.372 . S
C323 C324 1.400 . S
C323 C328 1.490 . S
C324 H314 0.930 . S
C324 C323 1.400 . S
C324 C327 1.386 . S
H325 C341 0.930 . S
H326 C342 0.931 . S
C327 H315 0.929 . S
C327 C321 1.390 . S
C327 C324 1.386 . S
C328 C323 1.490 . S
C328 C330 1.395 1_545 S
C328 C331 1.403 . S
H329 C335 0.930 . S
C330 H316 0.930 . S
C330 C328 1.395 1_565 S
C330 C333 1.403 . S
C331 C328 1.403 . S
C331 C332 1.524 . S
C331 C335 1.400 1_545 S
C332 H317 0.960 . S
C332 H318 0.960 . S
C332 H319 0.960 . S
C332 C331 1.524 . S
C333 C330 1.403 . S
C333 C334 1.392 . S
C333 C337 1.495 . S
C334 C333 1.392 . S
C334 C335 1.385 . S
C334 C336 1.478 . S
C335 H329 0.930 . S
C335 C331 1.400 1_565 S
C335 C334 1.385 . S
C336 C334 1.478 . S
C336 C338 1.381 . S
C336 C342 1.383 . S
C337 C333 1.495 . S
C337 H343 0.959 . S
C337 H344 0.961 . S
C337 H345 0.960 . S
C338 C336 1.381 . S
C338 C339 1.394 . S
C338 H346 0.930 . S
C339 C338 1.394 . S
C339 C340 1.383 . S
C339 H347 0.929 . S
C340 C339 1.383 . S
C340 C341 1.377 . S
C341 H325 0.930 . S
C341 C340 1.377 . S
C341 C342 1.379 . S
C342 H326 0.931 . S
C342 C336 1.383 . S
C342 C341 1.379 . S
H343 C337 0.959 . S
H344 C337 0.961 . S
H345 C337 0.960 . S
H346 C338 0.930 . S
H347 C339 0.929 . S
H348 C356 0.929 . S
H349 C358 0.930 . S
H350 C360 0.930 . S
H351 C363 0.929 . S
H352 C366 0.930 . S
H353 C368 0.960 . S
H354 C368 0.960 . S
H355 C368 0.960 . S
C356 H348 0.929 . S
C356 C357 1.377 . S
C356 C358 1.384 . S
C357 C356 1.377 . S
C357 C363 1.390 . S
C358 H349 0.930 . S
C358 C356 1.384 . S
C358 C359 1.372 . S
C359 C358 1.372 . S
C359 C360 1.400 . S
C359 C364 1.490 . S
C360 H350 0.930 . S
C360 C359 1.400 . S
C360 C363 1.386 . S
H361 C377 0.930 . S
H362 C378 0.931 . S
C363 H351 0.929 . S
C363 C357 1.390 . S
C363 C360 1.386 . S
C364 C359 1.490 . S
C364 C366 1.395 . S
C364 C367 1.403 . S
H365 C371 0.930 . S
C366 H352 0.930 . S
C366 C364 1.395 . S
C366 C369 1.403 . S
C367 C364 1.403 . S
C367 C368 1.524 . S
C367 C371 1.400 . S
C368 H353 0.960 . S
C368 H354 0.960 . S
C368 H355 0.960 . S
C368 C367 1.524 . S
C369 C366 1.403 . S
C369 C370 1.392 . S
C369 C373 1.495 . S
C370 C369 1.392 . S
C370 C371 1.385 . S
C370 C372 1.478 . S
C371 H365 0.930 . S
C371 C367 1.400 . S
C371 C370 1.385 . S
C372 C370 1.478 . S
C372 C374 1.381 . S
C372 C378 1.383 . S
C373 C369 1.495 . S
C373 H379 0.959 . S
C373 H380 0.961 . S
C373 H381 0.960 . S
C374 C372 1.381 . S
C374 C375 1.394 . S
C374 H382 0.930 . S
C375 C374 1.394 . S
C375 C376 1.383 . S
C375 H383 0.929 . S
C376 C375 1.383 . S
C376 C377 1.377 . S
C377 H361 0.930 . S
C377 C376 1.377 . S
C377 C378 1.379 . S
C378 H362 0.931 . S
C378 C372 1.383 . S
C378 C377 1.379 . S
H379 C373 0.959 . S
H380 C373 0.961 . S
H381 C373 0.960 . S
H382 C374 0.930 . S
H383 C375 0.929 . S
H384 C392 0.929 . S
H385 C394 0.930 . S
H386 C396 0.930 . S
H387 C399 0.929 . S
H388 C402 0.930 . S
H389 C404 0.960 1_655 S
H390 C404 0.960 . S
H391 C404 0.960 . S
C392 H384 0.929 . S
C392 C393 1.377 . S
C392 C394 1.384 . S
C393 C392 1.377 . S
C393 C399 1.390 . S
C394 H385 0.930 . S
C394 C392 1.384 . S
C394 C395 1.372 . S
C395 C394 1.372 . S
C395 C396 1.400 . S
C395 C400 1.490 . S
C396 H386 0.930 . S
C396 C395 1.400 . S
C396 C399 1.386 . S
H397 C413 0.930 . S
H398 C414 0.931 . S
C399 H387 0.929 . S
C399 C393 1.390 . S
C399 C396 1.386 . S
C400 C395 1.490 . S
C400 C402 1.395 . S
C400 C403 1.403 . S
H401 C407 0.930 . S
C402 H388 0.930 . S
C402 C400 1.395 . S
C402 C405 1.430 . S
C403 C400 1.403 . S
C403 C404 1.524 . S
C403 C407 1.400 1_455 S
C404 H389 0.960 1_455 S
C404 H390 0.960 . S
C404 H391 0.960 . S
C404 C403 1.524 . S
C405 C402 1.430 . S
C405 C406 1.381 1_455 S
C405 C409 1.493 . S
C406 C405 1.381 1_655 S
C406 C407 1.385 . S
C406 C408 1.478 . S
C407 H401 0.930 . S
C407 C403 1.400 1_655 S
C407 C406 1.385 . S
C408 C406 1.478 . S
C408 C410 1.381 . S
C408 C414 1.383 . S
C409 C405 1.493 . S
C409 H415 0.973 . S
C409 H416 0.970 1_455 S
C409 H417 0.930 1_455 S
C410 C408 1.381 . S
C410 C411 1.394 . S
C410 H418 0.930 . S
C411 C410 1.394 . S
C411 C412 1.383 . S
C411 H419 0.929 . S
C412 C411 1.383 . S
C412 C413 1.377 . S
C413 H397 0.930 . S
C413 C412 1.377 . S
C413 C414 1.379 . S
C414 H398 0.931 . S
C414 C408 1.383 . S
C414 C413 1.379 . S
H415 C409 0.973 . S
H416 C409 0.970 1_655 S
H417 C409 0.930 1_655 S
H418 C410 0.930 . S
H419 C411 0.929 . S
H420 C428 0.929 . S
H421 C430 0.930 . S
H422 C432 0.930 . S
H423 C435 0.929 . S
H424 C438 0.930 . S
H425 C440 0.960 . S
H426 C440 0.960 . S
H427 C440 0.960 . S
C428 H420 0.929 . S
C428 C429 1.377 . S
C428 C430 1.384 . S
C429 C428 1.377 . S
C429 C435 1.390 . S
C430 H421 0.930 . S
C430 C428 1.384 . S
C430 C431 1.372 . S
C431 C430 1.372 . S
C431 C432 1.400 . S
C431 C436 1.490 . S
C432 H422 0.930 . S
C432 C431 1.400 . S
C432 C435 1.386 . S
H433 C449 0.930 . S
H434 C450 0.931 . S
C435 H423 0.929 . S
C435 C429 1.390 . S
C435 C432 1.386 . S
C436 C431 1.490 . S
C436 C438 1.395 . S
C436 C439 1.403 . S
H437 C443 0.930 . S
C438 H424 0.930 . S
C438 C436 1.395 . S
C438 C441 1.403 1_545 S
C439 C436 1.403 . S
C439 C440 1.524 . S
C439 C443 1.400 1_545 S
C440 H425 0.960 . S
C440 H426 0.960 . S
C440 H427 0.960 . S
C440 C439 1.524 . S
C441 C438 1.403 1_565 S
C441 C442 1.392 . S
C441 C445 1.495 . S
C442 C441 1.392 . S
C442 C443 1.385 . S
C442 C444 1.478 . S
C443 H437 0.930 . S
C443 C439 1.400 1_565 S
C443 C442 1.385 . S
C444 C442 1.478 . S
C444 C446 1.381 . S
C444 C450 1.383 . S
C445 C441 1.495 . S
C445 H451 0.978 . S
C445 H452 0.961 . S
C445 H453 0.960 . S
C446 C444 1.381 . S
C446 C447 1.394 . S
C446 H454 0.930 . S
C447 C446 1.394 . S
C447 C448 1.383 . S
C447 H455 0.929 . S
C448 C447 1.383 . S
C448 C449 1.377 . S
C449 H433 0.930 . S
C449 C448 1.377 . S
C449 C450 1.379 . S
C450 H434 0.931 . S
C450 C444 1.383 . S
C450 C449 1.379 . S
H451 C445 0.978 . S
H452 C445 0.961 . S
H453 C445 0.960 . S
H454 C446 0.930 . S
H455 C447 0.929 . S
H456 C464 0.929 . S
H457 C466 0.930 . S
H458 C468 0.930 . S
H459 C471 0.929 . S
H460 C474 0.930 . S
H461 C476 0.960 . S
H462 C476 0.960 . S
H463 C476 0.960 . S
C464 H456 0.929 . S
C464 C465 1.377 . S
C464 C466 1.384 . S
C465 C464 1.377 . S
C465 C471 1.390 . S
C466 H457 0.930 . S
C466 C464 1.384 . S
C466 C467 1.372 . S
C467 C466 1.372 . S
C467 C468 1.400 . S
C467 C472 1.490 . S
C468 H458 0.930 . S
C468 C467 1.400 . S
C468 C471 1.386 . S
H469 C485 0.930 . S
H470 C486 0.931 . S
C471 H459 0.929 . S
C471 C465 1.390 . S
C471 C468 1.386 . S
C472 C467 1.490 . S
C472 C474 1.395 . S
C472 C475 1.403 . S
H473 C479 0.930 . S
C474 H460 0.930 . S
C474 C472 1.395 . S
C474 C477 1.403 . S
C475 C472 1.403 . S
C475 C476 1.524 . S
C475 C479 1.400 . S
C476 H461 0.960 . S
C476 H462 0.960 . S
C476 H463 0.960 . S
C476 C475 1.524 . S
C477 C474 1.403 . S
C477 C478 1.392 . S
C477 C481 1.495 . S
C478 C477 1.392 . S
C478 C479 1.385 . S
C478 C480 1.478 . S
C479 H473 0.930 . S
C479 C475 1.400 . S
C479 C478 1.385 . S
C480 C478 1.478 . S
C480 C482 1.381 . S
C480 C486 1.383 . S
C481 C477 1.495 . S
C481 H487 0.959 . S
C481 H488 0.961 . S
C481 H489 0.960 . S
C482 C480 1.381 . S
C482 C483 1.394 . S
C482 H490 0.930 . S
C483 C482 1.394 . S
C483 C484 1.383 . S
C483 H491 0.929 . S
C484 C483 1.383 . S
C484 C485 1.377 . S
C485 H469 0.930 . S
C485 C484 1.377 . S
C485 C486 1.379 . S
C486 H470 0.931 . S
C486 C480 1.383 . S
C486 C485 1.379 . S
H487 C481 0.959 . S
H488 C481 0.961 . S
H489 C481 0.960 . S
H490 C482 0.930 . S
H491 C483 0.929 . S
H492 C500 0.929 . S
H493 C502 0.930 . S
H494 C504 0.930 . S
H495 C507 0.929 . S
H496 C510 0.930 . S
H497 C512 0.960 . S
H498 C512 0.960 . S
H499 C512 0.960 . S
C500 H492 0.929 . S
C500 C501 1.377 . S
C500 C502 1.384 1_554 S
C501 C500 1.377 . S
C501 C507 1.390 1_554 S
C502 H493 0.930 . S
C502 C500 1.384 1_556 S
C502 C503 1.372 . S
C503 C502 1.372 . S
C503 C504 1.400 . S
C503 C508 1.490 . S
C504 H494 0.930 . S
C504 C503 1.400 . S
C504 C507 1.386 . S
H505 C521 0.930 . S
H506 C522 0.931 . S
C507 H495 0.929 . S
C507 C501 1.390 1_556 S
C507 C504 1.386 . S
C508 C503 1.490 . S
C508 C510 1.395 . S
C508 C511 1.403 . S
H509 C515 0.930 . S
C510 H496 0.930 . S
C510 C508 1.395 . S
C510 C513 1.403 . S
C511 C508 1.403 . S
C511 C512 1.524 . S
C511 C515 1.400 . S
C512 H497 0.960 . S
C512 H498 0.960 . S
C512 H499 0.960 . S
C512 C511 1.524 . S
C513 C510 1.403 . S
C513 C514 1.392 . S
C513 C517 1.495 . S
C514 C513 1.392 . S
C514 C515 1.385 . S
C514 C516 1.478 . S
C515 H509 0.930 . S
C515 C511 1.400 . S
C515 C514 1.385 . S
C516 C514 1.478 . S
C516 C518 1.381 . S
C516 C522 1.383 . S
C517 C513 1.495 . S
C517 H523 0.959 . S
C517 H524 0.961 . S
C517 H525 0.960 . S
C518 C516 1.381 . S
C518 C519 1.394 . S
C518 H526 0.930 . S
C519 C518 1.394 . S
C519 C520 1.383 . S
C519 H527 0.929 . S
C520 C519 1.383 . S
C520 C521 1.377 . S
C521 H505 0.930 . S
C521 C520 1.377 . S
C521 C522 1.379 . S
C522 H506 0.931 . S
C522 C516 1.383 . S
C522 C521 1.379 . S
H523 C517 0.959 . S
H524 C517 0.961 . S
H525 C517 0.960 . S
H526 C518 0.930 . S
H527 C519 0.929 . S
H528 C536 0.929 . S
H529 C538 0.930 . S
H530 C540 0.930 . S
H531 C543 0.929 . S
H532 C546 0.930 . S
H533 C548 0.960 . S
H534 C548 0.960 . S
H535 C548 0.960 . S
C536 H528 0.929 . S
C536 C537 1.377 . S
C536 C538 1.384 . S
C537 C536 1.377 . S
C537 C543 1.390 . S
C538 H529 0.930 . S
C538 C536 1.384 . S
C538 C539 1.372 . S
C539 C538 1.372 . S
C539 C540 1.400 . S
C539 C544 1.490 . S
C540 H530 0.930 . S
C540 C539 1.400 . S
C540 C543 1.386 . S
H541 C557 0.930 . S
H542 C558 0.931 . S
C543 H531 0.929 . S
C543 C537 1.390 . S
C543 C540 1.386 . S
C544 C539 1.490 . S
C544 C546 1.395 . S
C544 C547 1.403 . S
H545 C551 0.930 . S
C546 H532 0.930 . S
C546 C544 1.395 . S
C546 C549 1.403 . S
C547 C544 1.403 . S
C547 C548 1.524 . S
C547 C551 1.400 . S
C548 H533 0.960 . S
C548 H534 0.960 . S
C548 H535 0.960 . S
C548 C547 1.524 . S
C549 C546 1.403 . S
C549 C550 1.392 . S
C549 C553 1.495 . S
C550 C549 1.392 . S
C550 C551 1.385 . S
C550 C552 1.478 . S
C551 H545 0.930 . S
C551 C547 1.400 . S
C551 C550 1.385 . S
C552 C550 1.478 . S
C552 C554 1.381 . S
C552 C558 1.383 . S
C553 C549 1.495 . S
C553 H559 0.959 . S
C553 H560 0.961 . S
C553 H561 0.960 . S
C554 C552 1.381 . S
C554 C555 1.394 . S
C554 H562 0.930 . S
C555 C554 1.394 . S
C555 C556 1.383 1_554 S
C555 H563 0.929 1_554 S
C556 C555 1.383 1_556 S
C556 C557 1.377 1_556 S
C557 H541 0.930 . S
C557 C556 1.377 1_554 S
C557 C558 1.379 . S
C558 H542 0.931 . S
C558 C552 1.383 . S
C558 C557 1.379 . S
H559 C553 0.959 . S
H560 C553 0.961 . S
H561 C553 0.960 . S
H562 C554 0.930 . S
H563 C555 0.929 1_556 S
H564 C572 0.929 . S
H565 C574 0.930 . S
H566 C576 0.930 . S
H567 C579 0.929 . S
H568 C582 0.930 . S
H569 C584 0.960 . S
H570 C584 0.960 . S
H571 C584 0.960 . S
C572 H564 0.929 . S
C572 C573 1.377 . S
C572 C574 1.384 . S
C573 C572 1.377 . S
C573 C579 1.390 . S
C574 H565 0.930 . S
C574 C572 1.384 . S
C574 C575 1.372 . S
C575 C574 1.372 . S
C575 C576 1.400 . S
C575 C580 1.490 . S
C576 H566 0.930 . S
C576 C575 1.400 . S
C576 C579 1.386 . S
H577 C593 0.930 . S
H578 C594 0.931 . S
C579 H567 0.929 . S
C579 C573 1.390 . S
C579 C576 1.386 . S
C580 C575 1.490 . S
C580 C582 1.395 . S
C580 C583 1.403 . S
H581 C587 0.930 . S
C582 H568 0.930 . S
C582 C580 1.395 . S
C582 C585 1.403 . S
C583 C580 1.403 . S
C583 C584 1.524 . S
C583 C587 1.400 . S
C584 H569 0.960 . S
C584 H570 0.960 . S
C584 H571 0.960 . S
C584 C583 1.524 . S
C585 C582 1.403 . S
C585 C586 1.392 . S
C585 C589 1.495 . S
C586 C585 1.392 . S
C586 C587 1.385 . S
C586 C588 1.478 . S
C587 H581 0.930 . S
C587 C583 1.400 . S
C587 C586 1.385 . S
C588 C586 1.478 . S
C588 C590 1.381 . S
C588 C594 1.383 . S
C589 C585 1.495 . S
C589 H595 0.959 . S
C589 H596 0.961 . S
C589 H597 0.960 . S
C590 C588 1.381 . S
C590 C591 1.394 . S
C590 H598 0.930 . S
C591 C590 1.394 . S
C591 C592 1.383 . S
C591 H599 0.929 . S
C592 C591 1.383 . S
C592 C593 1.377 . S
C593 H577 0.930 . S
C593 C592 1.377 . S
C593 C594 1.379 . S
C594 H578 0.931 . S
C594 C588 1.383 . S
C594 C593 1.379 . S
H595 C589 0.959 . S
H596 C589 0.961 . S
H597 C589 0.960 . S
H598 C590 0.930 . S
H599 C591 0.929 . S
H600 C608 0.929 . S
H601 C610 0.930 . S
H602 C612 0.930 . S
H603 C615 0.929 . S
H604 C618 0.930 . S
H605 C620 0.960 . S
H606 C620 0.960 . S
H607 C620 0.960 . S
C608 H600 0.929 . S
C608 C609 1.377 . S
C608 C610 1.384 . S
C609 C608 1.377 . S
C609 C615 1.390 . S
C610 H601 0.930 . S
C610 C608 1.384 . S
C610 C611 1.372 . S
C611 C610 1.372 . S
C611 C612 1.400 . S
C611 C616 1.490 . S
C612 H602 0.930 . S
C612 C611 1.400 . S
C612 C615 1.386 . S
H613 C629 0.930 1_554 S
H614 C630 0.931 . S
C615 H603 0.929 . S
C615 C609 1.390 . S
C615 C612 1.386 . S
C616 C611 1.490 . S
C616 C618 1.395 . S
C616 C619 1.403 . S
H617 C623 0.930 . S
C618 H604 0.930 . S
C618 C616 1.395 . S
C618 C621 1.403 . S
C619 C616 1.403 . S
C619 C620 1.524 . S
C619 C623 1.400 . S
C620 H605 0.960 . S
C620 H606 0.960 . S
C620 H607 0.960 . S
C620 C619 1.524 . S
C621 C618 1.403 . S
C621 C622 1.392 . S
C621 C625 1.495 . S
C622 C621 1.392 . S
C622 C623 1.385 . S
C622 C624 1.478 . S
C623 H617 0.930 . S
C623 C619 1.400 . S
C623 C622 1.385 . S
C624 C622 1.478 . S
C624 C626 1.381 . S
C624 C630 1.383 . S
C625 C621 1.495 . S
C625 H631 0.959 . S
C625 H632 0.961 . S
C625 H633 0.960 . S
C626 C624 1.381 . S
C626 C627 1.394 . S
C626 H634 0.930 . S
C627 C626 1.394 . S
C627 C628 1.383 1_556 S
C627 H635 0.929 1_556 S
C628 C627 1.383 1_554 S
C628 C629 1.377 1_554 S
C629 H613 0.930 1_556 S
C629 C628 1.377 1_556 S
C629 C630 1.379 . S
C630 H614 0.931 . S
C630 C624 1.383 . S
C630 C629 1.379 . S
H631 C625 0.959 . S
H632 C625 0.961 . S
H633 C625 0.960 . S
H634 C626 0.930 . S
H635 C627 0.929 1_554 S
H636 C644 0.929 . S
H637 C646 0.930 . S
H638 C648 0.930 . S
H639 C651 0.929 . S
H640 C654 0.930 . S
H641 C656 0.960 . S
H642 C656 0.960 . S
H643 C656 0.960 . S
C644 H636 0.929 . S
C644 C645 1.377 . S
C644 C646 1.384 . S
C645 C644 1.377 . S
C645 C651 1.390 . S
C646 H637 0.930 . S
C646 C644 1.384 . S
C646 C647 1.372 . S
C647 C646 1.372 . S
C647 C648 1.400 . S
C647 C652 1.490 . S
C648 H638 0.930 . S
C648 C647 1.400 . S
C648 C651 1.386 . S
H649 C665 0.930 1_556 S
H650 C666 0.931 . S
C651 H639 0.929 . S
C651 C645 1.390 . S
C651 C648 1.386 . S
C652 C647 1.490 . S
C652 C654 1.395 . S
C652 C655 1.403 . S
H653 C659 0.930 . S
C654 H640 0.930 . S
C654 C652 1.395 . S
C654 C657 1.403 . S
C655 C652 1.403 . S
C655 C656 1.524 . S
C655 C659 1.400 . S
C656 H641 0.960 . S
C656 H642 0.960 . S
C656 H643 0.960 . S
C656 C655 1.524 . S
C657 C654 1.403 . S
C657 C658 1.392 . S
C657 C661 1.495 . S
C658 C657 1.392 . S
C658 C659 1.385 . S
C658 C660 1.478 . S
C659 H653 0.930 . S
C659 C655 1.400 . S
C659 C658 1.385 . S
C660 C658 1.478 . S
C660 C662 1.381 . S
C660 C666 1.383 . S
C661 C657 1.495 . S
C661 H667 0.959 . S
C661 H668 0.961 . S
C661 H669 0.960 . S
C662 C660 1.381 . S
C662 C663 1.394 . S
C662 H670 0.930 . S
C663 C662 1.394 . S
C663 C664 1.383 1_554 S
C663 H671 0.929 . S
C664 C663 1.383 1_556 S
C664 C665 1.377 1_556 S
C665 H649 0.930 1_554 S
C665 C664 1.377 1_554 S
C665 C666 1.379 . S
C666 H650 0.931 . S
C666 C660 1.383 . S
C666 C665 1.379 . S
H667 C661 0.959 . S
H668 C661 0.961 . S
H669 C661 0.960 . S
H670 C662 0.930 . S
H671 C663 0.929 . S
H672 C680 0.929 . S
H673 C682 0.930 . S
H674 C684 0.930 . S
H675 C687 0.929 . S
H676 C690 0.930 . S
H677 C692 0.960 . S
H678 C692 0.960 . S
H679 C692 0.960 . S
C680 H672 0.929 . S
C680 C681 1.377 . S
C680 C682 1.384 . S
C681 C680 1.377 . S
C681 C687 1.390 . S
C682 H673 0.930 . S
C682 C680 1.384 . S
C682 C683 1.372 . S
C683 C682 1.372 . S
C683 C684 1.400 . S
C683 C688 1.490 . S
C684 H674 0.930 . S
C684 C683 1.400 . S
C684 C687 1.386 . S
H685 C701 0.930 . S
H686 C702 0.931 . S
C687 H675 0.929 . S
C687 C681 1.390 . S
C687 C684 1.386 . S
C688 C683 1.490 . S
C688 C690 1.395 . S
C688 C691 1.403 . S
H689 C695 0.930 . S
C690 H676 0.930 . S
C690 C688 1.395 . S
C690 C693 1.403 . S
C691 C688 1.403 . S
C691 C692 1.524 . S
C691 C695 1.400 . S
C692 H677 0.960 . S
C692 H678 0.960 . S
C692 H679 0.960 . S
C692 C691 1.524 . S
C693 C690 1.403 . S
C693 C694 1.392 . S
C693 C697 1.495 . S
C694 C693 1.392 . S
C694 C695 1.385 . S
C694 C696 1.478 . S
C695 H689 0.930 . S
C695 C691 1.400 . S
C695 C694 1.385 . S
C696 C694 1.478 . S
C696 C698 1.381 . S
C696 C702 1.383 . S
C697 C693 1.495 . S
C697 H703 0.959 . S
C697 H704 0.961 . S
C697 H705 0.960 . S
C698 C696 1.381 . S
C698 C699 1.394 . S
C698 H706 0.930 . S
C699 C698 1.394 . S
C699 C700 1.383 . S
C699 H707 0.929 . S
C700 C699 1.383 . S
C700 C701 1.377 . S
C701 H685 0.930 . S
C701 C700 1.377 . S
C701 C702 1.379 . S
C702 H686 0.931 . S
C702 C696 1.383 . S
C702 C701 1.379 . S
H703 C697 0.959 . S
H704 C697 0.961 . S
H705 C697 0.960 . S
H706 C698 0.930 . S
H707 C699 0.929 . S
H708 C716 0.929 . S
H709 C718 0.930 . S
H710 C720 0.930 . S
H711 C723 0.929 . S
H712 C726 0.930 . S
H713 C728 0.960 . S
H714 C728 0.960 . S
H715 C728 0.960 . S
C716 H708 0.929 . S
C716 C717 1.377 . S
C716 C718 1.384 . S
C717 C716 1.377 . S
C717 C723 1.390 . S
C718 H709 0.930 . S
C718 C716 1.384 . S
C718 C719 1.372 . S
C719 C718 1.372 . S
C719 C720 1.400 . S
C719 C724 1.490 . S
C720 H710 0.930 . S
C720 C719 1.400 . S
C720 C723 1.386 . S
H721 C737 0.930 . S
H722 C738 0.931 . S
C723 H711 0.929 . S
C723 C717 1.390 . S
C723 C720 1.386 . S
C724 C719 1.490 . S
C724 C726 1.395 . S
C724 C727 1.403 . S
H725 C731 0.930 . S
C726 H712 0.930 . S
C726 C724 1.395 . S
C726 C729 1.403 . S
C727 C724 1.403 . S
C727 C728 1.524 . S
C727 C731 1.400 . S
C728 H713 0.960 . S
C728 H714 0.960 . S
C728 H715 0.960 . S
C728 C727 1.524 . S
C729 C726 1.403 . S
C729 C730 1.392 . S
C729 C733 1.495 . S
C730 C729 1.392 . S
C730 C731 1.385 . S
C730 C732 1.478 . S
C731 H725 0.930 . S
C731 C727 1.400 . S
C731 C730 1.385 . S
C732 C730 1.478 . S
C732 C734 1.381 . S
C732 C738 1.383 . S
C733 C729 1.495 . S
C733 H739 0.959 . S
C733 H740 0.961 . S
C733 H741 0.960 . S
C734 C732 1.381 . S
C734 C735 1.394 . S
C734 H742 0.930 . S
C735 C734 1.394 . S
C735 C736 1.383 . S
C735 H743 0.929 . S
C736 C735 1.383 . S
C736 C737 1.377 . S
C737 H721 0.930 . S
C737 C736 1.377 . S
C737 C738 1.379 . S
C738 H722 0.931 . S
C738 C732 1.383 . S
C738 C737 1.379 . S
H739 C733 0.959 . S
H740 C733 0.961 . S
H741 C733 0.960 . S
H742 C734 0.930 . S
H743 C735 0.929 . S
H744 C752 0.929 . S
H745 C754 0.930 . S
H746 C756 0.930 . S
H747 C759 0.915 1_554 S
H748 C762 0.930 . S
H749 C764 0.960 . S
H750 C764 0.960 . S
H751 C764 0.960 . S
C752 H744 0.929 . S
C752 C753 1.377 . S
C752 C754 1.384 . S
C753 C752 1.377 . S
C753 C759 1.390 . S
C754 H745 0.930 . S
C754 C752 1.384 . S
C754 C755 1.372 . S
C755 C754 1.372 . S
C755 C756 1.400 . S
C755 C760 1.490 . S
C756 H746 0.930 . S
C756 C755 1.400 . S
C756 C759 1.386 . S
H757 C773 0.930 . S
H758 C774 0.931 . S
C759 H747 0.915 1_556 S
C759 C753 1.390 . S
C759 C756 1.386 . S
C760 C755 1.490 . S
C760 C762 1.395 . S
C760 C763 1.403 . S
H761 C767 0.930 . S
C762 H748 0.930 . S
C762 C760 1.395 . S
C762 C765 1.403 . S
C763 C760 1.403 . S
C763 C764 1.524 . S
C763 C767 1.400 . S
C764 H749 0.960 . S
C764 H750 0.960 . S
C764 H751 0.960 . S
C764 C763 1.524 . S
C765 C762 1.403 . S
C765 C766 1.392 . S
C765 C769 1.495 . S
C766 C765 1.392 . S
C766 C767 1.385 . S
C766 C768 1.478 . S
C767 H761 0.930 . S
C767 C763 1.400 . S
C767 C766 1.385 . S
C768 C766 1.478 . S
C768 C770 1.381 . S
C768 C774 1.383 . S
C769 C765 1.495 . S
C769 H775 0.959 . S
C769 H776 0.961 . S
C769 H777 0.960 . S
C770 C768 1.381 . S
C770 C771 1.394 . S
C770 H778 0.930 . S
C771 C770 1.394 . S
C771 C772 1.383 . S
C771 H779 0.929 . S
C772 C771 1.383 . S
C772 C773 1.377 . S
C773 H757 0.930 . S
C773 C772 1.377 . S
C773 C774 1.379 . S
C774 H758 0.931 . S
C774 C768 1.383 . S
C774 C773 1.379 . S
H775 C769 0.959 . S
H776 C769 0.961 . S
H777 C769 0.960 . S
H778 C770 0.930 . S
H779 C771 0.929 . S
H780 C788 0.929 . S
H781 C790 0.930 . S
H782 C792 0.930 . S
H783 C795 0.929 . S
H784 C798 0.930 . S
H785 C800 0.960 . S
H786 C800 0.960 . S
H787 C800 0.960 . S
C788 H780 0.929 . S
C788 C789 1.377 . S
C788 C790 1.384 . S
C789 C788 1.377 . S
C789 C795 1.390 . S
C790 H781 0.930 . S
C790 C788 1.384 . S
C790 C791 1.372 . S
C791 C790 1.372 . S
C791 C792 1.400 . S
C791 C796 1.490 . S
C792 H782 0.930 . S
C792 C791 1.400 . S
C792 C795 1.386 . S
H793 C809 0.930 . S
H794 C810 0.931 . S
C795 H783 0.929 . S
C795 C789 1.390 . S
C795 C792 1.386 . S
C796 C791 1.490 . S
C796 C798 1.395 . S
C796 C799 1.403 . S
H797 C803 0.930 . S
C798 H784 0.930 . S
C798 C796 1.395 . S
C798 C801 1.403 . S
C799 C796 1.403 . S
C799 C800 1.524 . S
C799 C803 1.400 . S
C800 H785 0.960 . S
C800 H786 0.960 . S
C800 H787 0.960 . S
C800 C799 1.524 . S
C801 C798 1.403 . S
C801 C802 1.392 . S
C801 C805 1.495 . S
C802 C801 1.392 . S
C802 C803 1.385 . S
C802 C804 1.478 . S
C803 H797 0.930 . S
C803 C799 1.400 . S
C803 C802 1.385 . S
C804 C802 1.478 . S
C804 C806 1.381 . S
C804 C810 1.383 . S
C805 C801 1.495 . S
C805 H811 0.959 . S
C805 H812 0.961 . S
C805 H813 0.960 . S
C806 C804 1.381 . S
C806 C807 1.394 . S
C806 H814 0.930 . S
C807 C806 1.394 . S
C807 C808 1.383 . S
C807 H815 0.929 . S
C808 C807 1.383 . S
C808 C809 1.377 . S
C809 H793 0.930 . S
C809 C808 1.377 . S
C809 C810 1.379 . S
C810 H794 0.931 . S
C810 C804 1.383 . S
C810 C809 1.379 . S
H811 C805 0.959 . S
H812 C805 0.961 . S
H813 C805 0.960 . S
H814 C806 0.930 . S
H815 C807 0.929 . S
H816 C824 0.929 . S
H817 C826 0.930 . S
H818 C828 0.930 . S
H819 C831 0.929 . S
H820 C834 0.930 . S
H821 C836 0.960 . S
H822 C836 0.960 . S
H823 C836 0.960 . S
C824 H816 0.929 . S
C824 C825 1.377 . S
C824 C826 1.384 . S
C825 C824 1.377 . S
C825 C831 1.390 . S
C826 H817 0.930 . S
C826 C824 1.384 . S
C826 C827 1.372 . S
C827 C826 1.372 . S
C827 C828 1.400 . S
C827 C832 1.490 . S
C828 H818 0.930 . S
C828 C827 1.400 . S
C828 C831 1.386 . S
H829 C845 0.930 . S
H830 C846 0.931 . S
C831 H819 0.929 . S
C831 C825 1.390 . S
C831 C828 1.386 . S
C832 C827 1.490 . S
C832 C834 1.395 . S
C832 C835 1.403 . S
H833 C839 0.930 . S
C834 H820 0.930 . S
C834 C832 1.395 . S
C834 C837 1.403 . S
C835 C832 1.403 . S
C835 C836 1.524 . S
C835 C839 1.400 . S
C836 H821 0.960 . S
C836 H822 0.960 . S
C836 H823 0.960 . S
C836 C835 1.524 . S
C837 C834 1.403 . S
C837 C838 1.392 . S
C837 C841 1.495 . S
C838 C837 1.392 . S
C838 C839 1.385 . S
C838 C840 1.478 . S
C839 H833 0.930 . S
C839 C835 1.400 . S
C839 C838 1.385 . S
C840 C838 1.478 . S
C840 C842 1.381 . S
C840 C846 1.383 . S
C841 C837 1.495 . S
C841 H847 0.959 . S
C841 H848 0.961 . S
C841 H849 0.960 . S
C842 C840 1.381 . S
C842 C843 1.394 . S
C842 H850 0.930 . S
C843 C842 1.394 . S
C843 C844 1.383 . S
C843 H851 0.929 . S
C844 C843 1.383 . S
C844 C845 1.377 . S
C845 H829 0.930 . S
C845 C844 1.377 . S
C845 C846 1.379 . S
C846 H830 0.931 . S
C846 C840 1.383 . S
C846 C845 1.379 . S
H847 C841 0.959 . S
H848 C841 0.961 . S
H849 C841 0.960 . S
H850 C842 0.930 . S
H851 C843 0.929 . S
H852 C860 0.929 . S
H853 C862 0.930 . S
H854 C864 0.930 . S
H855 C867 0.929 . S
H856 C870 0.930 . S
H857 C872 0.960 . S
H858 C872 0.960 . S
H859 C872 0.960 . S
C860 H852 0.929 . S
C860 C861 1.377 . S
C860 C862 1.384 . S
C861 C860 1.377 . S
C861 C867 1.390 . S
C862 H853 0.930 . S
C862 C860 1.384 . S
C862 C863 1.372 . S
C863 C862 1.372 . S
C863 C864 1.400 . S
C863 C868 1.490 . S
C864 H854 0.930 . S
C864 C863 1.400 . S
C864 C867 1.386 . S
H865 C881 0.930 . S
H866 C882 0.931 . S
C867 H855 0.929 . S
C867 C861 1.390 . S
C867 C864 1.386 . S
C868 C863 1.490 . S
C868 C870 1.395 . S
C868 C871 1.403 . S
H869 C875 0.930 . S
C870 H856 0.930 . S
C870 C868 1.395 . S
C870 C873 1.403 . S
C871 C868 1.403 . S
C871 C872 1.524 . S
C871 C875 1.400 . S
C872 H857 0.960 . S
C872 H858 0.960 . S
C872 H859 0.960 . S
C872 C871 1.524 . S
C873 C870 1.403 . S
C873 C874 1.392 . S
C873 C877 1.495 . S
C874 C873 1.392 . S
C874 C875 1.385 . S
C874 C876 1.478 . S
C875 H869 0.930 . S
C875 C871 1.400 . S
C875 C874 1.385 . S
C876 C874 1.478 . S
C876 C878 1.381 . S
C876 C882 1.383 . S
C877 C873 1.495 . S
C877 H883 0.959 . S
C877 H884 0.961 . S
C877 H885 0.960 . S
C878 C876 1.381 . S
C878 C879 1.394 . S
C878 H886 0.930 . S
C879 C878 1.394 . S
C879 C880 1.383 . S
C879 H887 0.929 . S
C880 C879 1.383 . S
C880 C881 1.377 . S
C881 H865 0.930 . S
C881 C880 1.377 . S
C881 C882 1.379 . S
C882 H866 0.931 . S
C882 C876 1.383 . S
C882 C881 1.379 . S
H883 C877 0.959 . S
H884 C877 0.961 . S
H885 C877 0.960 . S
H886 C878 0.930 . S
H887 C879 0.929 . S
C249 C210 1.289 . S
C268 C2 1.323 . S
C285 C10 1.296 . S
C304 C42 1.312 . S
C321 C50 1.285 . S
C340 C82 1.331 . S
C357 C90 1.294 . S
C376 C122 1.315 . S
C393 C162 1.324 . S
C412 C130 1.296 . S
C429 C202 1.323 . S
C448 C170 1.308 . S
C465 C7 1.337 . S
C484 C16 1.347 . S
C501 C47 1.329 . S
C520 C56 1.349 . S
C537 C87 1.336 . S
C556 C96 1.358 . S
C573 C127 1.337 . S
C592 C136 1.334 . S
C609 C176 1.336 . S
C628 C167 1.357 . S
C645 C207 1.325 . S
C664 C216 1.305 . S
C681 C11 1.596 . S
C700 C179 1.609 . S
C717 C51 1.593 . S
C736 C219 1.610 . S
C753 C19 1.606 . S
C772 C91 1.578 . S
C789 C59 1.606 . S
C808 C131 1.604 . S
C825 C171 1.592 . S
C844 C99 1.602 . S
C861 C139 1.604 . S
C880 C211 1.600 . S
