# Generated by pormake.
# Topology uku, (4)-cn, num edge types: 1
# Building blocks:
#     Node 0, Type 0, BuildingBlock: QUQFOY_clean_sbu_3, # of connection points: 4
#     Node 1, Type 0, BuildingBlock: QUQFOY_clean_sbu_3, # of connection points: 4
#     Node 2, Type 0, BuildingBlock: QUQFOY_clean_sbu_3, # of connection points: 4
#     Node 3, Type 0, BuildingBlock: QUQFOY_clean_sbu_3, # of connection points: 4
#     Node 4, Type 0, BuildingBlock: QUQFOY_clean_sbu_3, # of connection points: 4
#     Node 5, Type 0, BuildingBlock: QUQFOY_clean_sbu_3, # of connection points: 4
#     Node 6, Type 0, BuildingBlock: QUQFOY_clean_sbu_3, # of connection points: 4
#     Node 7, Type 0, BuildingBlock: QUQFOY_clean_sbu_3, # of connection points: 4
#     Node 8, Type 0, BuildingBlock: QUQFOY_clean_sbu_3, # of connection points: 4
#     Node 9, Type 0, BuildingBlock: QUQFOY_clean_sbu_3, # of connection points: 4
#     Node 10, Type 0, BuildingBlock: QUQFOY_clean_sbu_3, # of connection points: 4
#     Node 11, Type 0, BuildingBlock: QUQFOY_clean_sbu_3, # of connection points: 4
#     Edge 12, Type (0, 0), BuildingBlock: KIFKEQ_clean_linker_1, # of connection points: 2
#     Edge 13, Type (0, 0), BuildingBlock: KIFKEQ_clean_linker_1, # of connection points: 2
#     Edge 14, Type (0, 0), BuildingBlock: KIFKEQ_clean_linker_1, # of connection points: 2
#     Edge 15, Type (0, 0), BuildingBlock: KIFKEQ_clean_linker_1, # of connection points: 2
#     Edge 16, Type (0, 0), BuildingBlock: KIFKEQ_clean_linker_1, # of connection points: 2
#     Edge 17, Type (0, 0), BuildingBlock: KIFKEQ_clean_linker_1, # of connection points: 2
#     Edge 18, Type (0, 0), BuildingBlock: KIFKEQ_clean_linker_1, # of connection points: 2
#     Edge 19, Type (0, 0), BuildingBlock: KIFKEQ_clean_linker_1, # of connection points: 2
#     Edge 20, Type (0, 0), BuildingBlock: KIFKEQ_clean_linker_1, # of connection points: 2
#     Edge 21, Type (0, 0), BuildingBlock: KIFKEQ_clean_linker_1, # of connection points: 2
#     Edge 22, Type (0, 0), BuildingBlock: KIFKEQ_clean_linker_1, # of connection points: 2
#     Edge 23, Type (0, 0), BuildingBlock: KIFKEQ_clean_linker_1, # of connection points: 2
#     Edge 24, Type (0, 0), BuildingBlock: KIFKEQ_clean_linker_1, # of connection points: 2
#     Edge 25, Type (0, 0), BuildingBlock: KIFKEQ_clean_linker_1, # of connection points: 2
#     Edge 26, Type (0, 0), BuildingBlock: KIFKEQ_clean_linker_1, # of connection points: 2
#     Edge 27, Type (0, 0), BuildingBlock: KIFKEQ_clean_linker_1, # of connection points: 2
#     Edge 28, Type (0, 0), BuildingBlock: KIFKEQ_clean_linker_1, # of connection points: 2
#     Edge 29, Type (0, 0), BuildingBlock: KIFKEQ_clean_linker_1, # of connection points: 2
#     Edge 30, Type (0, 0), BuildingBlock: KIFKEQ_clean_linker_1, # of connection points: 2
#     Edge 31, Type (0, 0), BuildingBlock: KIFKEQ_clean_linker_1, # of connection points: 2
#     Edge 32, Type (0, 0), BuildingBlock: KIFKEQ_clean_linker_1, # of connection points: 2
#     Edge 33, Type (0, 0), BuildingBlock: KIFKEQ_clean_linker_1, # of connection points: 2
#     Edge 34, Type (0, 0), BuildingBlock: KIFKEQ_clean_linker_1, # of connection points: 2
#     Edge 35, Type (0, 0), BuildingBlock: KIFKEQ_clean_linker_1, # of connection points: 2
# Relax obj value: 0.368
# Max RMSD: 0.260
# Mean RMSD: 0.260
data_MOF--net-uku--node1-QUQFOY_clean_sbu_3--edge1-KIFKEQ_clean_linker_1
_symmetry_space_group_name_H-M    P1
_symmetry_Int_Tables_number       1
_symmetry_cell_setting            triclinic
loop_
_symmetry_equiv_pos_as_xyz
'x, y, z'
_cell_length_a     43.971357
_cell_length_b     43.83556
_cell_length_c     43.959322
_cell_angle_alpha  90.33056
_cell_angle_beta   90.008368
_cell_angle_gamma 89.956501
loop_
_atom_site_label
_atom_site_type_symbol
_atom_site_fract_x
_atom_site_fract_y
_atom_site_fract_z
_atom_type_partial_charge
C0 C 0.01477 0.17538 0.68495 0.0
O1 O -0.00305 0.15393 0.69252 0.0
Cd2 Cd -0.00107 0.1047 0.66783 0.0
O3 O 0.03004 0.17365 0.66043 0.0
Cd4 Cd 0.03388 0.14146 0.61464 0.0
C5 C 0.07807 0.09955 0.65959 0.0
O6 O -0.00983 0.1072 0.615 0.0
O7 O 0.02995 0.09294 0.58961 0.0
O8 O 0.00854 0.18127 0.58746 0.0
C9 C 0.00321 0.08702 0.59861 0.0
O10 O 0.05262 0.09179 0.67112 0.0
C11 C 0.02787 0.18324 0.56613 0.0
O12 O 0.07947 0.11948 0.63851 0.0
O13 O 0.05171 0.1668 0.56828 0.0
C14 C 0.91187 0.78745 0.6968 0.0
O15 O 0.92254 0.81276 0.70611 0.0
Cd16 Cd 0.92303 0.859 0.67645 0.0
O17 O 0.90364 0.78417 0.66925 0.0
Cd18 Cd 0.90434 0.81349 0.62186 0.0
C19 C 0.84844 0.85612 0.65032 0.0
O20 O 0.94389 0.85221 0.62755 0.0
O21 O 0.90813 0.86081 0.5948 0.0
O22 O 0.94 0.77822 0.60075 0.0
C23 C 0.9326 0.86959 0.60737 0.0
O24 O 0.87001 0.86878 0.66507 0.0
C25 C 0.92435 0.77082 0.57762 0.0
O26 O 0.85283 0.83218 0.63416 0.0
O27 O 0.89758 0.7819 0.57577 0.0
C28 C 0.04736 0.74566 0.27914 0.0
O29 O 0.02085 0.75465 0.28605 0.0
Cd30 Cd 0.04171 0.79457 0.31933 0.0
O31 O 0.06942 0.7582 0.29283 0.0
Cd32 Cd 0.05353 0.79646 0.33478 0.0
C33 C 0.1068 0.82134 0.30349 0.0
O34 O 0.01245 0.83719 0.32162 0.0
O35 O 0.05221 0.85092 0.34709 0.0
O36 O 0.01515 0.76513 0.35968 0.0
C37 C 0.02695 0.8583 0.33523 0.0
O38 O 0.08214 0.81785 0.28905 0.0
C39 C 0.02921 0.76275 0.38473 0.0
O40 O 0.10762 0.81208 0.33081 0.0
O41 O 0.05547 0.7749 0.38645 0.0
C42 C 0.93062 0.15986 0.25212 0.0
O43 O 0.9441 0.13608 0.24239 0.0
Cd44 Cd 0.94552 0.08866 0.26998 0.0
O45 O 0.92078 0.16119 0.27928 0.0
Cd46 Cd 0.92238 0.13087 0.32608 0.0
C47 C 0.86947 0.08791 0.29239 0.0
O48 O 0.96454 0.09522 0.3196 0.0
O49 O 0.92937 0.08279 0.35157 0.0
O50 O 0.9524 0.17045 0.34936 0.0
C51 C 0.9543 0.07607 0.33866 0.0
O52 O 0.89207 0.07669 0.27797 0.0
C53 C 0.93543 0.1742 0.37243 0.0
O54 O 0.87255 0.11074 0.31034 0.0
O55 O 0.91096 0.15866 0.37331 0.0
C56 C 0.69538 0.02124 0.16889 0.0
O57 O 0.70336 0.00658 0.14519 0.0
Cd58 Cd 0.6763 0.00938 0.09766 0.0
O59 O 0.66979 0.03476 0.16991 0.0
Cd60 Cd 0.62319 0.03983 0.13933 0.0
C61 C 0.66433 0.08832 0.09793 0.0
O62 O 0.62416 -0.00206 0.10256 0.0
O63 O 0.59647 0.03731 0.09183 0.0
O64 O 0.59839 0.01072 0.178 0.0
C65 C 0.60629 0.0112 0.08405 0.0
O66 O 0.67631 0.06374 0.08792 0.0
C67 C 0.57631 0.02892 0.18215 0.0
O68 O 0.64445 0.08779 0.11918 0.0
O69 O 0.57683 0.05393 0.16748 0.0
C70 C 0.26356 0.92655 0.17889 0.0
O71 O 0.25324 0.94179 0.15665 0.0
Cd72 Cd 0.27832 0.94429 0.10776 0.0
O73 O 0.29023 0.91541 0.17782 0.0
Cd74 Cd 0.3351 0.91624 0.14479 0.0
C75 C 0.29612 0.86688 0.10219 0.0
O76 O 0.32981 0.95898 0.10983 0.0
O77 O 0.35684 0.92025 0.09508 0.0
O78 O 0.36109 0.94609 0.18248 0.0
C79 C 0.3463 0.94654 0.08942 0.0
O80 O 0.2826 0.89094 0.09316 0.0
C81 C 0.3842 0.92887 0.18463 0.0
O82 O 0.31538 0.86766 0.124 0.0
O83 O 0.38382 0.90408 0.16929 0.0
C84 C 0.68145 0.93603 0.77098 0.0
O85 O 0.69061 0.95355 0.7922 0.0
Cd86 Cd 0.66915 0.95033 0.84261 0.0
O87 O 0.65712 0.92076 0.77412 0.0
Cd88 Cd 0.61391 0.91593 0.80886 0.0
C89 C 0.66283 0.87076 0.84468 0.0
O90 O 0.61596 0.95813 0.84527 0.0
O91 O 0.59205 0.91704 0.85854 0.0
O92 O 0.58629 0.94457 0.77208 0.0
C93 C 0.60095 0.94372 0.86541 0.0
O94 O 0.67448 0.89629 0.85236 0.0
C95 C 0.5642 0.92614 0.76939 0.0
O96 O 0.63983 0.86943 0.82689 0.0
O97 O 0.56584 0.9012 0.78417 0.0
C98 C 0.25327 0.01949 0.77738 0.0
O99 O 0.24566 0.001 0.79814 0.0
Cd100 Cd 0.26851 0.00669 0.84774 0.0
O101 O 0.27729 0.03535 0.78014 0.0
Cd102 Cd 0.32218 0.03771 0.81324 0.0
C103 C 0.27697 0.08612 0.8489 0.0
O104 O 0.3213 -0.00335 0.85083 0.0
O105 O 0.34301 0.03937 0.86343 0.0
O106 O 0.3482 0.00693 0.77658 0.0
C107 C 0.33583 0.01232 0.87055 0.0
O108 O 0.26469 0.06125 0.85743 0.0
C109 C 0.37073 0.02462 0.773 0.0
O110 O 0.29924 0.08599 0.83021 0.0
O111 O 0.37016 0.05004 0.7873 0.0
C112 C 0.16802 0.69972 0.02152 0.0
O113 O 0.14263 0.70963 0.01188 0.0
Cd114 Cd 0.09619 0.68045 0.00949 0.0
O115 O 0.17146 0.67161 0.02771 0.0
Cd116 Cd 0.14235 0.62371 0.02489 0.0
C117 C 0.10005 0.6513 0.08274 0.0
O118 O 0.10424 0.63284 -0.01421 0.0
O119 O 0.09639 0.59489 0.01589 0.0
O120 O 0.18058 0.60202 -0.00816 0.0
C121 C 0.08712 0.61099 -0.00611 0.0
O122 O 0.08763 0.66767 0.06233 0.0
C123 C 0.18547 0.57855 0.00791 0.0
O124 O 0.12271 0.63405 0.07653 0.0
O125 O 0.17159 0.57702 0.0333 0.0
C126 C 0.16443 0.26858 0.9249 0.0
O127 O 0.14286 0.26182 0.94286 0.0
Cd128 Cd 0.09483 0.28824 0.94101 0.0
O129 O 0.16357 0.29316 0.90969 0.0
Cd130 Cd 0.13331 0.34025 0.90592 0.0
C131 C 0.09047 0.29568 0.86178 0.0
O132 O 0.09966 0.3411 0.95002 0.0
O133 O 0.0858 0.36706 0.91065 0.0
O134 O 0.175 0.36584 0.93022 0.0
C135 C 0.07998 0.35823 0.93744 0.0
O136 O 0.08217 0.28458 0.88723 0.0
C137 C 0.17749 0.38707 0.91087 0.0
O138 O 0.11086 0.31641 0.86045 0.0
O139 O 0.16018 0.38573 0.88762 0.0
C140 C 0.78117 0.69703 0.93055 0.0
O141 O 0.80534 0.70608 0.94366 0.0
Cd142 Cd 0.85249 0.67776 0.94392 0.0
O143 O 0.77902 0.66986 0.92049 0.0
Cd144 Cd 0.80777 0.62184 0.92057 0.0
C145 C 0.84996 0.65639 0.86735 0.0
O146 O 0.84515 0.62769 0.96068 0.0
O147 O 0.85435 0.59314 0.92666 0.0
O148 O 0.76892 0.60037 0.95229 0.0
C149 C 0.8631 0.6074 0.95027 0.0
O150 O 0.86176 0.67032 0.89 0.0
C151 C 0.76416 0.57695 0.93584 0.0
O152 O 0.82731 0.6384 0.87055 0.0
O153 O 0.77837 0.57536 0.91059 0.0
C154 C 0.77324 0.27043 0.02127 0.0
O155 O 0.79264 0.26422 0.00074 0.0
Cd156 Cd 0.84264 0.28657 0.00485 0.0
O157 O 0.77711 0.29335 0.03866 0.0
Cd158 Cd 0.80978 0.33856 0.04273 0.0
C159 C 0.84729 0.28848 0.08442 0.0
O160 O 0.84466 0.34019 -0.0006 0.0
O161 O 0.85906 0.36161 0.04161 0.0
O162 O 0.77008 0.36504 0.01687 0.0
C163 C 0.86497 0.35486 0.01413 0.0
O164 O 0.85424 0.27814 0.05815 0.0
C165 C 0.76759 0.38681 0.03587 0.0
O166 O 0.82945 0.31135 0.08743 0.0
O167 O 0.78397 0.38548 0.05981 0.0
H168 H -0.0128 0.20828 0.37653 0.0
H169 H 0.90889 0.1797 0.4284 0.0
H170 H 0.01203 0.22529 0.4232 0.0
H171 H 0.93379 0.19634 0.47497 0.0
H172 H 0.05628 0.17977 0.51093 0.0
H173 H 0.03319 0.19163 0.46217 0.0
H174 H 0.95747 0.23449 0.50826 0.0
H175 H -0.01957 0.22223 0.55714 0.0
C176 C -0.02509 0.20642 0.39779 0.0
C177 C 0.94635 0.19199 0.39891 0.0
C178 C -0.01079 0.21611 0.42451 0.0
C179 C -0.02483 0.21166 0.45282 0.0
C180 C 0.94525 0.20026 0.45354 0.0
C181 C 0.93096 0.19052 0.42682 0.0
C182 C 0.03531 0.19276 0.51069 0.0
C183 C 0.01978 0.19933 0.53782 0.0
C184 C 0.02205 0.19968 0.48267 0.0
C185 C -0.0069 0.21336 0.48139 0.0
C186 C -0.02054 0.22333 0.50856 0.0
C187 C -0.00729 0.21639 0.53655 0.0
H188 H 0.96867 0.76108 0.39457 0.0
H189 H 0.05446 0.73664 0.43536 0.0
H190 H 0.94283 0.75125 0.44173 0.0
H191 H 0.02825 0.72356 0.48239 0.0
H192 H -0.01537 0.76227 0.5689 0.0
H193 H 0.00969 0.74921 0.52216 0.0
H194 H 0.92261 0.72701 0.4815 0.0
H195 H 0.89728 0.74328 0.52819 0.0
C196 C -0.01813 0.75247 0.41349 0.0
C197 C 0.01364 0.75028 0.41159 0.0
C198 C 0.96693 0.74643 0.44072 0.0
C199 C -0.01672 0.73714 0.46663 0.0
C200 C 0.01484 0.73189 0.46355 0.0
C201 C 0.02996 0.73906 0.4365 0.0
C202 C 0.97079 0.75409 0.55018 0.0
C203 C 0.93891 0.75462 0.55194 0.0
C204 C -0.0147 0.7462 0.52311 0.0
C205 C 0.96836 0.73777 0.49723 0.0
C206 C 0.93653 0.73471 0.50032 0.0
C207 C 0.9219 0.74364 0.52723 0.0
H208 H 0.44112 0.90372 0.18367 0.0
H209 H 0.39003 -0.02008 0.21989 0.0
H210 H 0.48832 0.92974 0.19636 0.0
H211 H 0.43732 0.00584 0.23291 0.0
H212 H 0.51974 0.05485 0.18308 0.0
H213 H 0.47268 0.02924 0.1968 0.0
H214 H 0.52407 0.95328 0.23222 0.0
H215 H 0.57119 -0.02123 0.21814 0.0
C216 C 0.43995 0.92551 0.19534 0.0
C217 C 0.4119 0.94003 0.20015 0.0
C218 C 0.46704 0.94046 0.20275 0.0
C219 C 0.46654 0.97015 0.21515 0.0
C220 C 0.43842 -0.01676 0.22286 0.0
C221 C 0.41135 0.9683 0.21548 0.0
C222 C 0.52105 0.03322 0.19479 0.0
C223 C 0.5491 0.01853 0.19888 0.0
C224 C 0.49403 0.0185 0.20276 0.0
C225 C 0.49466 -0.01111 0.21503 0.0
C226 C 0.52287 -0.02421 0.22224 0.0
C227 C 0.54985 -0.00952 0.21427 0.0
H228 H 0.50781 0.89996 0.77182 0.0
H229 H 0.55693 0.97566 0.73297 0.0
H230 H 0.45993 0.92505 0.75978 0.0
H231 H 0.509 0.00063 0.72069 0.0
H232 H 0.42743 0.05026 0.77199 0.0
H233 H 0.47448 0.02444 0.75805 0.0
H234 H 0.42308 0.94751 0.72409 0.0
H235 H 0.37599 0.97322 0.73827 0.0
C236 C 0.50839 0.92138 0.75967 0.0
C237 C 0.53609 0.93614 0.75398 0.0
C238 C 0.48092 0.9358 0.75267 0.0
C239 C 0.48074 0.96515 0.73982 0.0
C240 C 0.50846 -0.02169 0.73112 0.0
C241 C 0.53588 0.96391 0.73808 0.0
C242 C 0.42611 0.02831 0.76061 0.0
C243 C 0.39808 0.0135 0.75685 0.0
C244 C 0.4531 0.01349 0.7525 0.0
C245 C 0.45247 -0.01635 0.74047 0.0
C246 C 0.42427 0.97023 0.73383 0.0
C247 C 0.39732 -0.01495 0.74189 0.0
H248 H 0.22052 0.3931 0.95513 0.0
H249 H 0.17485 0.44307 0.88409 0.0
H250 H 0.23779 0.44091 -0.02223 0.0
H251 H 0.19148 0.49079 0.907 0.0
H252 H 0.19263 0.52216 0.03297 0.0
H253 H 0.2051 0.47556 0.00566 0.0
H254 H 0.22779 0.52804 0.9259 0.0
H255 H 0.21476 0.57481 0.9532 0.0
C256 C 0.21495 0.41427 0.94381 0.0
C257 C 0.19568 0.41443 0.91827 0.0
C258 C 0.22476 0.44165 0.95687 0.0
C259 C 0.21537 0.46967 0.94469 0.0
C260 C 0.1992 0.46965 0.91702 0.0
C261 C 0.18952 0.44223 0.90387 0.0
C262 C 0.20127 0.52389 0.00997 0.0
C263 C 0.20195 0.55207 -0.00499 0.0
C264 C 0.20862 0.49711 -0.00574 0.0
C265 C 0.21685 0.49803 0.96332 0.0
C266 C 0.22091 0.52655 0.94951 0.0
C267 C 0.21355 0.55335 0.96522 0.0
H268 H 0.75846 0.51986 0.91121 0.0
H269 H 0.73298 0.57423 -0.01055 0.0
H270 H 0.74543 0.47378 0.93873 0.0
H271 H 0.7196 0.52803 0.01694 0.0
H272 H 0.7262 0.39264 -0.00982 0.0
H273 H 0.71082 0.44011 0.96608 0.0
H274 H 0.75609 0.4911 0.03724 0.0
H275 H 0.77106 0.44367 0.06153 0.0
C276 C 0.74898 0.52206 0.93386 0.0
C277 C 0.74746 0.55061 0.94839 0.0
C278 C 0.74136 0.4956 0.94968 0.0
C279 C 0.73205 0.49723 -0.0197 0.0
C280 C 0.72728 0.52603 -0.0064 0.0
C281 C 0.73484 0.55249 -0.02224 0.0
C282 C 0.73198 0.41401 0.00124 0.0
C283 C 0.75045 0.41448 0.02737 0.0
C284 C 0.72324 0.44119 -0.01266 0.0
C285 C 0.73283 0.46934 -0.00069 0.0
C286 C 0.74825 0.46981 0.02741 0.0
C287 C 0.75694 0.44258 0.04136 0.0
H288 H 0.08189 0.06118 0.70766 0.0
H289 H 0.13721 0.10463 0.63911 0.0
H290 H 0.12653 0.03811 0.72942 0.0
H291 H 0.18251 0.08036 0.66069 0.0
H292 H 0.25382 0.06838 0.7393 0.0
H293 H 0.21336 0.08462 0.70545 0.0
H294 H 0.16482 0.00088 0.72324 0.0
H295 H 0.20474 -0.01471 0.75834 0.0
C296 C 0.10361 0.06554 0.6969 0.0
C297 C 0.10593 0.08497 0.67167 0.0
C298 C 0.12931 0.0519 0.70926 0.0
C299 C 0.15818 0.05702 0.69666 0.0
C300 C 0.16061 0.07606 0.67105 0.0
C301 C 0.13469 0.08996 0.65868 0.0
C302 C 0.2348 0.05312 0.73555 0.0
C303 C 0.23214 0.02583 0.75202 0.0
C304 C 0.21163 0.0624 0.71594 0.0
C305 C 0.18549 0.04439 0.7121 0.0
C306 C 0.18424 0.01574 0.72639 0.0
C307 C 0.20719 0.00668 0.74637 0.0
H308 H 0.73779 0.95943 0.75915 0.0
H309 H 0.6693 0.89904 0.7221 0.0
H310 H 0.77335 0.94231 0.72049 0.0
H311 H 0.70486 0.88232 0.68285 0.0
H312 H 0.79538 0.82651 0.66293 0.0
H313 H 0.74981 0.85013 0.68458 0.0
H314 H 0.78785 0.93944 0.6681 0.0
H315 H 0.83368 0.91567 0.64771 0.0
C316 C 0.73004 0.9431 0.74227 0.0
C317 C 0.70085 0.9303 0.74404 0.0
C318 C 0.7504 0.93337 0.71989 0.0
C319 C 0.74202 0.91072 0.69865 0.0
C320 C 0.71215 0.89944 0.69914 0.0
C321 C 0.69175 0.90917 0.72158 0.0
C322 C 0.79339 0.85114 0.66299 0.0
C323 C 0.81798 0.86934 0.65411 0.0
C324 C 0.76733 0.86475 0.67538 0.0
C325 C 0.76552 0.89672 0.6787 0.0
C326 C 0.78888 0.91479 0.66661 0.0
C327 C 0.81498 0.90122 0.65471 0.0
H328 H 0.27587 0.88828 0.22636 0.0
H329 H 0.20481 0.94479 0.18852 0.0
H330 H 0.23912 0.86524 0.26079 0.0
H331 H 0.16833 0.92213 0.22339 0.0
H332 H 0.10965 0.83946 0.24489 0.0
H333 H 0.14855 0.86947 0.2204 0.0
H334 H 0.20085 0.87085 0.30357 0.0
H335 H 0.16131 0.84023 0.32858 0.0
C336 C 0.2526 0.8964 0.22591 0.0
C337 C 0.24312 0.91792 0.20419 0.0
C338 C 0.2316 0.88325 0.24577 0.0
C339 C 0.20078 0.89142 0.24431 0.0
C340 C 0.19187 0.9149 0.22453 0.0
C341 C 0.21281 0.92799 0.20463 0.0
C342 C 0.12938 0.84603 0.25814 0.0
C343 C 0.13232 0.83752 0.28878 0.0
C344 C 0.15157 0.86357 0.24411 0.0
C345 C 0.17743 0.8731 0.26024 0.0
C346 C 0.181 0.86395 0.29068 0.0
C347 C 0.15849 0.84637 0.30492 0.0
H348 H 0.75336 -0.00067 0.1728 0.0
H349 H 0.68689 0.05274 0.2223 0.0
H350 H 0.7916 0.01251 0.2103 0.0
H351 H 0.72522 0.06535 0.2605 0.0
H352 H 0.81559 0.11824 0.28555 0.0
H353 H 0.76959 0.09786 0.26172 0.0
H354 H 0.80961 0.00773 0.26099 0.0
H355 H 0.85585 0.02846 0.28347 0.0
C356 C 0.7467 0.01333 0.19206 0.0
C357 C 0.71714 0.02524 0.19431 0.0
C358 C 0.76863 0.02076 0.21379 0.0
C359 C 0.76153 0.04012 0.23844 0.0
C360 C 0.73153 0.05073 0.24158 0.0
C361 C 0.70955 0.04334 0.21975 0.0
C362 C 0.81409 0.09397 0.28104 0.0
C363 C 0.83929 0.07497 0.28582 0.0
C364 C 0.78775 0.08222 0.26744 0.0
C365 C 0.78619 0.05124 0.25881 0.0
C366 C 0.8104 0.03183 0.26652 0.0
C367 C 0.83678 0.04364 0.27959 0.0
H368 H 0.70896 0.09564 0.05604 0.0
H369 H 0.64309 0.1468 0.10868 0.0
H370 H 0.72798 0.14214 0.03442 0.0
H371 H 0.66187 0.19412 0.08588 0.0
H372 H 0.73868 0.26755 0.07268 0.0
H373 H 0.7064 0.22565 0.08856 0.0
H374 H 0.71838 0.18259 0.00065 0.0
H375 H 0.75199 0.22391 -0.01471 0.0
C376 C 0.69817 0.11685 0.06277 0.0
C377 C 0.67454 0.11741 0.08432 0.0
C378 C 0.70892 0.14366 0.04996 0.0
C379 C 0.69628 0.17197 0.05805 0.0
C380 C 0.67223 0.17267 0.07924 0.0
C381 C 0.66145 0.14561 0.09229 0.0
C382 C 0.73396 0.24945 0.05647 0.0
C383 C 0.74845 0.24869 0.02794 0.0
C384 C 0.71524 0.22546 0.06557 0.0
C385 C 0.71031 0.20037 0.04616 0.0
C386 C 0.72245 0.20114 0.01652 0.0
C387 C 0.74157 0.22489 0.0076 0.0
H388 H 0.22236 0.68824 0.0499 0.0
H389 H 0.16971 0.76063 0.00916 0.0
H390 H 0.26035 0.72544 0.06646 0.0
H391 H 0.20722 0.79758 0.02604 0.0
H392 H 0.28388 0.8585 0.04266 0.0
H393 H 0.25886 0.81487 0.01912 0.0
H394 H 0.26227 0.76696 0.1047 0.0
H395 H 0.28833 0.81063 0.12806 0.0
C396 C 0.21907 0.71199 0.0441 0.0
C397 C 0.19289 0.72149 0.0283 0.0
C398 C 0.24076 0.73329 0.05378 0.0
C399 C 0.23683 0.76444 0.04761 0.0
C400 C 0.21124 0.7737 0.0308 0.0
C401 C 0.18956 0.7525 0.02125 0.0
C402 C 0.27993 0.83833 0.05624 0.0
C403 C 0.2876 0.83798 0.08724 0.0
C404 C 0.26545 0.81343 0.04281 0.0
C405 C 0.25792 0.78777 0.0602 0.0
C406 C 0.26781 0.7864 0.09066 0.0
C407 C 0.28271 0.81134 0.10408 0.0
H408 H 0.73626 0.69156 0.88789 0.0
H409 H 0.77178 0.75304 0.95636 0.0
H410 H 0.70375 0.7321 0.86857 0.0
H411 H 0.73841 0.79319 0.93783 0.0
H412 H 0.71937 0.8658 0.86817 0.0
H413 H 0.74267 0.8223 0.89214 0.0
H414 H 0.66196 0.76876 0.87476 0.0
H415 H 0.63845 0.8129 0.84975 0.0
C416 C 0.73649 0.71347 0.89939 0.0
C417 C 0.75704 0.71932 0.92329 0.0
C418 C 0.71774 0.73669 0.88835 0.0
C419 C 0.71901 0.76606 0.9012 0.0
C420 C 0.73757 0.77102 0.92685 0.0
C421 C 0.75657 0.74799 0.93761 0.0
C422 C 0.7064 0.84484 0.86942 0.0
C423 C 0.67691 0.8429 0.85725 0.0
C424 C 0.71972 0.8199 0.8835 0.0
C425 C 0.70392 0.79224 0.88608 0.0
C426 C 0.67465 0.78985 0.87323 0.0
C427 C 0.66123 0.81503 0.85887 0.0
H428 H 0.30014 0.14446 0.84406 0.0
H429 H 0.22573 0.09306 0.88252 0.0
H430 H 0.2791 0.19127 0.86661 0.0
H431 H 0.20471 0.13915 0.90403 0.0
H432 H 0.17958 0.21843 0.95834 0.0
H433 H 0.21253 0.17648 0.94276 0.0
H434 H 0.23563 0.22491 0.8606 0.0
H435 H 0.20371 0.26736 0.87678 0.0
C436 C 0.27936 0.14314 0.8572 0.0
C437 C 0.26469 0.115 0.86151 0.0
C438 C 0.26732 0.16989 0.87012 0.0
C439 C 0.24045 0.1689 0.88753 0.0
C440 C 0.22589 0.14073 0.89157 0.0
C441 C 0.23786 0.11422 0.87887 0.0
C442 C 0.19222 0.2204 0.93729 0.0
C443 C 0.18861 0.24596 0.91856 0.0
C444 C 0.21097 0.1963 0.92825 0.0
C445 C 0.22611 0.19701 0.90004 0.0
C446 C 0.22436 0.2236 0.88245 0.0
C447 C 0.2059 0.24791 0.8917 0.0
H448 H 0.00555 0.71332 0.24568 0.0
H449 H 0.10218 0.72637 0.25796 0.0
H450 H 0.01568 0.68041 0.20178 0.0
H451 H 0.11224 0.69468 0.21379 0.0
H452 H 0.12733 0.63289 0.13596 0.0
H453 H 0.11183 0.64669 0.1877 0.0
H454 H 0.03228 0.69199 0.1518 0.0
H455 H 0.04704 0.67743 0.10084 0.0
C456 C 0.02891 0.70891 0.23921 0.0
C457 C 0.05302 0.72282 0.25496 0.0
C458 C 0.03475 0.69013 0.21404 0.0
C459 C 0.06478 0.68514 0.20402 0.0
C460 C 0.08886 0.69763 0.22099 0.0
C461 C 0.08305 0.71616 0.24619 0.0
C462 C 0.10617 0.64514 0.13929 0.0
C463 C 0.08876 0.65462 0.11428 0.0
C464 C 0.09736 0.6532 0.16888 0.0
C465 C 0.07101 0.67083 0.17392 0.0
C466 C 0.05254 0.67821 0.14897 0.0
C467 C 0.06126 0.67015 0.11957 0.0
H468 H 0.06351 0.21378 0.68564 0.0
H469 H -0.02008 0.19385 0.73317 0.0
H470 H 0.07874 0.24799 0.72655 0.0
H471 H -0.00557 0.22933 0.77347 0.0
H472 H 0.05219 0.2473 0.85765 0.0
H473 H 0.03043 0.2245 0.81268 0.0
H474 H 0.07358 0.29298 0.757 0.0
H475 H 0.0966 0.31551 0.80263 0.0
C476 C 0.04795 0.21741 0.70442 0.0
C477 C 0.02077 0.20066 0.7065 0.0
C478 C 0.05664 0.23722 0.72785 0.0
C479 C 0.03812 0.24099 0.75365 0.0
C480 C 0.00967 0.22626 0.75435 0.0
C481 C 0.00123 0.20607 0.73118 0.0
C482 C 0.05699 0.25779 0.83592 0.0
C483 C 0.07633 0.28321 0.83379 0.0
C484 C 0.04413 0.24482 0.81002 0.0
C485 C 0.04992 0.25702 0.78113 0.0
C486 C 0.0688 0.28287 0.7789 0.0
C487 C 0.08195 0.29582 0.80501 0.0
H488 H 0.90852 0.66726 0.85262 0.0
H489 H 0.81817 0.66413 0.81436 0.0
H490 H 0.92706 0.69313 0.80743 0.0
H491 H 0.83656 0.69088 0.76917 0.0
H492 H 0.92975 0.78478 0.7562 0.0
H493 H 0.91729 0.74588 0.79327 0.0
H494 H 0.87035 0.6939 0.72394 0.0
H495 H 0.88255 0.73317 0.68667 0.0
C496 C 0.89279 0.6715 0.83413 0.0
C497 C 0.86186 0.6641 0.83704 0.0
C498 C 0.90335 0.6865 0.80838 0.0
C499 C 0.88313 0.69473 0.78511 0.0
C500 C 0.85271 0.68482 0.78674 0.0
C501 C 0.84215 0.66947 0.81254 0.0
C502 C 0.9171 0.76492 0.7487 0.0
C503 C 0.90703 0.76222 0.71851 0.0
C504 C 0.91013 0.74246 0.76992 0.0
C505 C 0.89288 0.71673 0.7615 0.0
C506 C 0.88351 0.71355 0.73112 0.0
C507 C 0.89064 0.73599 0.70979 0.0
H508 H 0.8869 0.20373 0.25841 0.0
H509 H 0.95742 0.172 0.19752 0.0
H510 H 0.86854 0.23846 0.21942 0.0
H511 H 0.93996 0.20767 0.15903 0.0
H512 H 0.87328 0.23254 0.0852 0.0
H513 H 0.89633 0.20629 0.12737 0.0
H514 H 0.87517 0.28236 0.18672 0.0
H515 H 0.85092 0.30873 0.14396 0.0
C516 C 0.899 0.20476 0.23697 0.0
C517 C 0.92328 0.18473 0.23079 0.0
C518 C 0.88853 0.2248 0.21466 0.0
C519 C 0.90236 0.22541 0.18587 0.0
C520 C 0.9282 0.20712 0.18067 0.0
C521 C 0.93836 0.1868 0.20277 0.0
C522 C 0.87355 0.2439 0.10716 0.0
C523 C 0.86038 0.27287 0.11115 0.0
C524 C 0.88711 0.22888 0.13137 0.0
C525 C 0.88822 0.24243 0.16035 0.0
C526 C 0.87471 0.2713 0.16464 0.0
C527 C 0.86082 0.28639 0.14021 0.0
H528 H 0.03284 0.03717 0.57641 0.0
H529 H 0.94694 0.06585 0.61501 0.0
H530 H 0.01577 -0.01565 0.57679 0.0
H531 H 0.92976 0.01267 0.61493 0.0
H532 H 0.90277 0.91626 0.57968 0.0
H533 H 0.91901 0.96926 0.57542 0.0
H534 H 0.00311 0.94731 0.621 0.0
H535 H -0.01323 0.89415 0.6257 0.0
C536 C 0.01015 0.03227 0.58463 0.0
C537 C -0.00877 0.05568 0.59582 0.0
C538 C 0.00053 0.002 0.585 0.0
C539 C 0.97162 -0.00547 0.5961 0.0
C540 C 0.95216 0.01796 0.60618 0.0
C541 C 0.96197 0.04831 0.60624 0.0
C542 C 0.92484 0.92264 0.58862 0.0
C543 C 0.94356 0.90106 0.60303 0.0
C544 C 0.93397 0.95301 0.58633 0.0
C545 C 0.9622 0.96226 0.59795 0.0
C546 C -0.01873 0.94061 0.61172 0.0
C547 C 0.97193 0.91028 0.61446 0.0
H548 H 0.00773 0.0542 0.31518 0.0
H549 H 0.92797 0.02691 0.36562 0.0
H550 H 0.02537 0.00122 0.31464 0.0
H551 H 0.94551 0.97416 0.36478 0.0
H552 H 0.97035 0.88031 0.32111 0.0
H553 H 0.95338 0.93357 0.32299 0.0
H554 H 0.04258 0.9613 0.35344 0.0
H555 H 0.05948 0.90835 0.35182 0.0
C556 C -0.00588 0.03698 0.32633 0.0
C557 C 0.96649 0.04472 0.34042 0.0
C558 C 0.0042 0.00671 0.32602 0.0
C559 C -0.01337 -0.01635 0.33945 0.0
C560 C 0.95927 -0.00853 0.35393 0.0
C561 C 0.9494 0.02172 0.3546 0.0
C562 C -0.01374 0.8978 0.32823 0.0
C563 C 0.01618 0.89019 0.33638 0.0
C564 C -0.02345 0.92819 0.32942 0.0
C565 C -0.00326 0.95146 0.33833 0.0
C566 C 0.02666 0.94383 0.34627 0.0
C567 C 0.03623 0.91349 0.34549 0.0
H568 H 0.61705 -0.00035 0.88855 0.0
H569 H 0.57927 0.91241 0.914 0.0
H570 H 0.61617 0.01567 0.94203 0.0
H571 H 0.57866 0.92837 0.96711 0.0
H572 H 0.62367 0.95633 0.05955 0.0
H573 H 0.62024 0.94048 0.00617 0.0
H574 H 0.57672 0.02583 -0.01597 0.0
H575 H 0.57983 0.04163 0.03716 0.0
C576 C 0.60834 -0.01595 0.90546 0.0
C577 C 0.59831 0.95479 0.89708 0.0
C578 C 0.60779 -0.00679 0.93599 0.0
C579 C 0.59754 0.97311 0.95861 0.0
C580 C 0.587 0.94413 0.95014 0.0
C581 C 0.5872 0.93512 0.91969 0.0
C582 C 0.61309 0.97153 0.04333 0.0
C583 C 0.60207 0.0002 0.05254 0.0
C584 C 0.61111 0.96248 0.01285 0.0
C585 C 0.5984 -0.01792 -0.00894 0.0
C586 C 0.58692 0.01048 0.00035 0.0
C587 C 0.58855 0.01937 0.03081 0.0
H588 H 0.36237 0.0021 0.06699 0.0
H589 H 0.32771 0.91376 0.04102 0.0
H590 H 0.36255 0.01754 0.01369 0.0
H591 H 0.32525 0.92955 -0.01176 0.0
H592 H 0.34644 0.9548 0.89169 0.0
H593 H 0.35134 0.9392 0.94467 0.0
H594 H 0.33351 0.03216 0.97355 0.0
H595 H 0.33127 0.04771 0.92081 0.0
C596 C 0.35439 -0.01376 0.04977 0.0
C597 C 0.34521 0.95683 0.05778 0.0
C598 C 0.35423 -0.00497 0.01922 0.0
C599 C 0.34393 0.97483 -0.00372 0.0
C600 C 0.33417 0.94554 0.00482 0.0
C601 C 0.33523 0.93653 0.03515 0.0
C602 C 0.34386 0.97176 0.90953 0.0
C603 C 0.33869 0.00238 0.90231 0.0
C604 C 0.34637 0.96289 0.93995 0.0
C605 C 0.34274 -0.01564 0.96376 0.0
C606 C 0.33726 0.015 0.95616 0.0
C607 C 0.3357 0.02394 0.92584 0.0
H608 H 0.90338 0.56207 0.93764 0.0
H609 H 0.89565 0.64955 -0.01719 0.0
H610 H 0.95815 0.56226 0.94656 0.0
H611 H 0.9506 0.64972 -0.00836 0.0
H612 H 0.05243 0.65476 0.96645 0.0
H613 H -0.00243 0.65296 0.95712 0.0
H614 H -0.00523 0.56068 -0.00915 0.0
H615 H 0.04943 0.56245 0.00024 0.0
C616 C 0.91336 0.58115 0.94982 0.0
C617 C 0.89529 0.6058 0.95953 0.0
C618 C 0.94467 0.58125 0.95488 0.0
C619 C 0.95858 0.60616 0.96946 0.0
C620 C 0.94044 0.63044 -0.02006 0.0
C621 C 0.909 0.63017 -0.02479 0.0
C622 C 0.04016 0.63395 0.97139 0.0
C623 C 0.05514 0.60874 -0.01592 0.0
C624 C 0.00876 0.63306 0.9664 0.0
C625 C -0.00803 0.6068 0.9736 0.0
C626 C 0.0072 0.58119 -0.01493 0.0
C627 C 0.03844 0.58221 -0.00957 0.0
H628 H 0.03116 0.38475 0.91007 0.0
H629 H 0.05884 0.34032 -0.00685 0.0
H630 H -0.02113 0.38662 0.92831 0.0
H631 H 0.00633 0.34239 0.01142 0.0
H632 H 0.914 0.3776 0.04444 0.0
H633 H 0.96623 0.38128 0.02648 0.0
H634 H 0.93865 0.34633 0.9387 0.0
H635 H 0.88611 0.34247 0.95669 0.0
C636 C 0.02617 0.37567 0.93238 0.0
C637 C 0.04913 0.36226 0.95016 0.0
C638 C -0.00383 0.37659 0.94268 0.0
C639 C -0.01144 0.36447 0.97113 0.0
C640 C 0.01165 0.35205 -0.01057 0.0
C641 C 0.04166 0.35083 -0.02102 0.0
C642 C 0.91894 0.37093 0.0212 0.0
C643 C 0.89592 0.35962 0.00197 0.0
C644 C 0.94891 0.37289 0.01103 0.0
C645 C 0.95648 0.36393 -0.01868 0.0
C646 C 0.93336 0.35357 0.9617 0.0
C647 C 0.90334 0.35129 0.97199 0.0
loop_
_geom_bond_atom_site_label_1
_geom_bond_atom_site_label_2
_geom_bond_distance
_geom_bond_site_symmetry_2
_ccdc_geom_bond_type
C0 O1 1.306 . S
C0 O3 1.160 . S
O1 C0 1.306 . S
O1 Cd2 2.228 . S
Cd2 O1 2.228 . S
Cd2 O6 2.273 . S
Cd2 O10 2.277 . S
O3 C0 1.160 . S
O3 Cd4 2.203 . S
Cd4 O3 2.203 . S
Cd4 O6 2.411 . S
Cd4 O7 2.333 . S
Cd4 O8 2.352 . S
Cd4 O12 2.277 . S
Cd4 O13 2.356 . S
C5 O10 1.209 . S
C5 O12 1.226 . S
O6 Cd2 2.273 . S
O6 Cd4 2.411 . S
O6 C9 1.320 . S
O7 Cd4 2.333 . S
O7 C9 1.214 . S
O8 Cd4 2.352 . S
O8 C11 1.258 . S
C9 O6 1.320 . S
C9 O7 1.214 . S
O10 Cd2 2.277 . S
O10 C5 1.209 . S
C11 O8 1.258 . S
C11 O13 1.282 . S
O12 Cd4 2.277 . S
O12 C5 1.226 . S
O13 Cd4 2.356 . S
O13 C11 1.282 . S
C14 O15 1.306 . S
C14 O17 1.160 . S
O15 C14 1.306 . S
O15 Cd16 2.228 . S
Cd16 O15 2.228 . S
Cd16 O20 2.273 . S
Cd16 O24 2.277 . S
O17 C14 1.160 . S
O17 Cd18 2.203 . S
Cd18 O17 2.203 . S
Cd18 O20 2.411 . S
Cd18 O21 2.333 . S
Cd18 O22 2.352 . S
Cd18 O26 2.277 . S
Cd18 O27 2.356 . S
C19 O24 1.209 . S
C19 O26 1.226 . S
O20 Cd16 2.273 . S
O20 Cd18 2.411 . S
O20 C23 1.320 . S
O21 Cd18 2.333 . S
O21 C23 1.214 . S
O22 Cd18 2.352 . S
O22 C25 1.258 . S
C23 O20 1.320 . S
C23 O21 1.214 . S
O24 Cd16 2.277 . S
O24 C19 1.209 . S
C25 O22 1.258 . S
C25 O27 1.282 . S
O26 Cd18 2.277 . S
O26 C19 1.226 . S
O27 Cd18 2.356 . S
O27 C25 1.282 . S
C28 O29 1.306 . S
C28 O31 1.160 . S
O29 C28 1.306 . S
O29 Cd30 2.228 . S
Cd30 O29 2.228 . S
Cd30 O34 2.273 . S
Cd30 O38 2.277 . S
O31 C28 1.160 . S
O31 Cd32 2.203 . S
Cd32 O31 2.203 . S
Cd32 O34 2.411 . S
Cd32 O35 2.333 . S
Cd32 O36 2.352 . S
Cd32 O40 2.277 . S
Cd32 O41 2.356 . S
C33 O38 1.209 . S
C33 O40 1.226 . S
O34 Cd30 2.273 . S
O34 Cd32 2.411 . S
O34 C37 1.320 . S
O35 Cd32 2.333 . S
O35 C37 1.214 . S
O36 Cd32 2.352 . S
O36 C39 1.258 . S
C37 O34 1.320 . S
C37 O35 1.214 . S
O38 Cd30 2.277 . S
O38 C33 1.209 . S
C39 O36 1.258 . S
C39 O41 1.282 . S
O40 Cd32 2.277 . S
O40 C33 1.226 . S
O41 Cd32 2.356 . S
O41 C39 1.282 . S
C42 O43 1.306 . S
C42 O45 1.160 . S
O43 C42 1.306 . S
O43 Cd44 2.228 . S
Cd44 O43 2.228 . S
Cd44 O48 2.273 . S
Cd44 O52 2.277 . S
O45 C42 1.160 . S
O45 Cd46 2.203 . S
Cd46 O45 2.203 . S
Cd46 O48 2.411 . S
Cd46 O49 2.333 . S
Cd46 O50 2.352 . S
Cd46 O54 2.277 . S
Cd46 O55 2.356 . S
C47 O52 1.209 . S
C47 O54 1.226 . S
O48 Cd44 2.273 . S
O48 Cd46 2.411 . S
O48 C51 1.320 . S
O49 Cd46 2.333 . S
O49 C51 1.214 . S
O50 Cd46 2.352 . S
O50 C53 1.258 . S
C51 O48 1.320 . S
C51 O49 1.214 . S
O52 Cd44 2.277 . S
O52 C47 1.209 . S
C53 O50 1.258 . S
C53 O55 1.282 . S
O54 Cd46 2.277 . S
O54 C47 1.226 . S
O55 Cd46 2.356 . S
O55 C53 1.282 . S
C56 O57 1.306 . S
C56 O59 1.160 . S
O57 C56 1.306 . S
O57 Cd58 2.228 . S
Cd58 O57 2.228 . S
Cd58 O62 2.273 . S
Cd58 O66 2.277 . S
O59 C56 1.160 . S
O59 Cd60 2.203 . S
Cd60 O59 2.203 . S
Cd60 O62 2.411 . S
Cd60 O63 2.333 . S
Cd60 O64 2.352 . S
Cd60 O68 2.277 . S
Cd60 O69 2.356 . S
C61 O66 1.209 . S
C61 O68 1.226 . S
O62 Cd58 2.273 . S
O62 Cd60 2.411 . S
O62 C65 1.320 . S
O63 Cd60 2.333 . S
O63 C65 1.214 . S
O64 Cd60 2.352 . S
O64 C67 1.258 . S
C65 O62 1.320 . S
C65 O63 1.214 . S
O66 Cd58 2.277 . S
O66 C61 1.209 . S
C67 O64 1.258 . S
C67 O69 1.282 . S
O68 Cd60 2.277 . S
O68 C61 1.226 . S
O69 Cd60 2.356 . S
O69 C67 1.282 . S
C70 O71 1.306 . S
C70 O73 1.160 . S
O71 C70 1.306 . S
O71 Cd72 2.228 . S
Cd72 O71 2.228 . S
Cd72 O76 2.273 . S
Cd72 O80 2.277 . S
O73 C70 1.160 . S
O73 Cd74 2.203 . S
Cd74 O73 2.203 . S
Cd74 O76 2.411 . S
Cd74 O77 2.333 . S
Cd74 O78 2.352 . S
Cd74 O82 2.277 . S
Cd74 O83 2.356 . S
C75 O80 1.209 . S
C75 O82 1.226 . S
O76 Cd72 2.273 . S
O76 Cd74 2.411 . S
O76 C79 1.320 . S
O77 Cd74 2.333 . S
O77 C79 1.214 . S
O78 Cd74 2.352 . S
O78 C81 1.258 . S
C79 O76 1.320 . S
C79 O77 1.214 . S
O80 Cd72 2.277 . S
O80 C75 1.209 . S
C81 O78 1.258 . S
C81 O83 1.282 . S
O82 Cd74 2.277 . S
O82 C75 1.226 . S
O83 Cd74 2.356 . S
O83 C81 1.282 . S
C84 O85 1.306 . S
C84 O87 1.160 . S
O85 C84 1.306 . S
O85 Cd86 2.228 . S
Cd86 O85 2.228 . S
Cd86 O90 2.273 . S
Cd86 O94 2.277 . S
O87 C84 1.160 . S
O87 Cd88 2.203 . S
Cd88 O87 2.203 . S
Cd88 O90 2.411 . S
Cd88 O91 2.333 . S
Cd88 O92 2.352 . S
Cd88 O96 2.277 . S
Cd88 O97 2.356 . S
C89 O94 1.209 . S
C89 O96 1.226 . S
O90 Cd86 2.273 . S
O90 Cd88 2.411 . S
O90 C93 1.320 . S
O91 Cd88 2.333 . S
O91 C93 1.214 . S
O92 Cd88 2.352 . S
O92 C95 1.258 . S
C93 O90 1.320 . S
C93 O91 1.214 . S
O94 Cd86 2.277 . S
O94 C89 1.209 . S
C95 O92 1.258 . S
C95 O97 1.282 . S
O96 Cd88 2.277 . S
O96 C89 1.226 . S
O97 Cd88 2.356 . S
O97 C95 1.282 . S
C98 O99 1.306 . S
C98 O101 1.160 . S
O99 C98 1.306 . S
O99 Cd100 2.228 . S
Cd100 O99 2.228 . S
Cd100 O104 2.273 . S
Cd100 O108 2.277 . S
O101 C98 1.160 . S
O101 Cd102 2.203 . S
Cd102 O101 2.203 . S
Cd102 O104 2.411 . S
Cd102 O105 2.333 . S
Cd102 O106 2.352 . S
Cd102 O110 2.277 . S
Cd102 O111 2.356 . S
C103 O108 1.209 . S
C103 O110 1.226 . S
O104 Cd100 2.273 . S
O104 Cd102 2.411 . S
O104 C107 1.320 . S
O105 Cd102 2.333 . S
O105 C107 1.214 . S
O106 Cd102 2.352 . S
O106 C109 1.258 . S
C107 O104 1.320 . S
C107 O105 1.214 . S
O108 Cd100 2.277 . S
O108 C103 1.209 . S
C109 O106 1.258 . S
C109 O111 1.282 . S
O110 Cd102 2.277 . S
O110 C103 1.226 . S
O111 Cd102 2.356 . S
O111 C109 1.282 . S
C112 O113 1.306 . S
C112 O115 1.160 . S
O113 C112 1.306 . S
O113 Cd114 2.228 . S
Cd114 O113 2.228 . S
Cd114 O118 2.273 . S
Cd114 O122 2.277 . S
O115 C112 1.160 . S
O115 Cd116 2.203 . S
Cd116 O115 2.203 . S
Cd116 O118 2.411 . S
Cd116 O119 2.333 . S
Cd116 O120 2.352 . S
Cd116 O124 2.277 . S
Cd116 O125 2.356 . S
C117 O122 1.209 . S
C117 O124 1.226 . S
O118 Cd114 2.273 . S
O118 Cd116 2.411 . S
O118 C121 1.320 . S
O119 Cd116 2.333 . S
O119 C121 1.214 . S
O120 Cd116 2.352 . S
O120 C123 1.258 . S
C121 O118 1.320 . S
C121 O119 1.214 . S
O122 Cd114 2.277 . S
O122 C117 1.209 . S
C123 O120 1.258 . S
C123 O125 1.282 . S
O124 Cd116 2.277 . S
O124 C117 1.226 . S
O125 Cd116 2.356 . S
O125 C123 1.282 . S
C126 O127 1.306 . S
C126 O129 1.160 . S
O127 C126 1.306 . S
O127 Cd128 2.228 . S
Cd128 O127 2.228 . S
Cd128 O132 2.273 . S
Cd128 O136 2.277 . S
O129 C126 1.160 . S
O129 Cd130 2.203 . S
Cd130 O129 2.203 . S
Cd130 O132 2.411 . S
Cd130 O133 2.333 . S
Cd130 O134 2.352 . S
Cd130 O138 2.277 . S
Cd130 O139 2.356 . S
C131 O136 1.209 . S
C131 O138 1.226 . S
O132 Cd128 2.273 . S
O132 Cd130 2.411 . S
O132 C135 1.320 . S
O133 Cd130 2.333 . S
O133 C135 1.214 . S
O134 Cd130 2.352 . S
O134 C137 1.258 . S
C135 O132 1.320 . S
C135 O133 1.214 . S
O136 Cd128 2.277 . S
O136 C131 1.209 . S
C137 O134 1.258 . S
C137 O139 1.282 . S
O138 Cd130 2.277 . S
O138 C131 1.226 . S
O139 Cd130 2.356 . S
O139 C137 1.282 . S
C140 O141 1.306 . S
C140 O143 1.160 . S
O141 C140 1.306 . S
O141 Cd142 2.228 . S
Cd142 O141 2.228 . S
Cd142 O146 2.273 . S
Cd142 O150 2.277 . S
O143 C140 1.160 . S
O143 Cd144 2.203 . S
Cd144 O143 2.203 . S
Cd144 O146 2.411 . S
Cd144 O147 2.333 . S
Cd144 O148 2.352 . S
Cd144 O152 2.277 . S
Cd144 O153 2.356 . S
C145 O150 1.209 . S
C145 O152 1.226 . S
O146 Cd142 2.273 . S
O146 Cd144 2.411 . S
O146 C149 1.320 . S
O147 Cd144 2.333 . S
O147 C149 1.214 . S
O148 Cd144 2.352 . S
O148 C151 1.258 . S
C149 O146 1.320 . S
C149 O147 1.214 . S
O150 Cd142 2.277 . S
O150 C145 1.209 . S
C151 O148 1.258 . S
C151 O153 1.282 . S
O152 Cd144 2.277 . S
O152 C145 1.226 . S
O153 Cd144 2.356 . S
O153 C151 1.282 . S
C154 O155 1.306 . S
C154 O157 1.160 . S
O155 C154 1.306 . S
O155 Cd156 2.228 . S
Cd156 O155 2.228 . S
Cd156 O160 2.273 . S
Cd156 O164 2.277 . S
O157 C154 1.160 . S
O157 Cd158 2.203 . S
Cd158 O157 2.203 . S
Cd158 O160 2.411 . S
Cd158 O161 2.333 . S
Cd158 O162 2.352 . S
Cd158 O166 2.277 . S
Cd158 O167 2.356 . S
C159 O164 1.209 . S
C159 O166 1.226 . S
O160 Cd156 2.273 . S
O160 Cd158 2.411 . S
O160 C163 1.320 . S
O161 Cd158 2.333 . S
O161 C163 1.214 . S
O162 Cd158 2.352 . S
O162 C165 1.258 . S
C163 O160 1.320 . S
C163 O161 1.214 . S
O164 Cd156 2.277 . S
O164 C159 1.209 . S
C165 O162 1.258 . S
C165 O167 1.282 . S
O166 Cd158 2.277 . S
O166 C159 1.226 . S
O167 Cd158 2.356 . S
O167 C165 1.282 . S
H168 C176 0.950 . S
H169 C181 0.950 . S
H170 C178 0.950 . S
H171 C180 0.950 1_455 S
H172 C182 0.950 . S
H173 C184 0.950 . S
H174 C186 0.950 1_655 S
H175 C187 0.950 . S
C176 H168 0.950 . S
C176 C177 1.386 . S
C176 C178 1.391 . S
C177 C176 1.386 . S
C177 C181 1.393 . S
C178 H170 0.950 . S
C178 C176 1.391 . S
C178 C179 1.400 . S
C179 C178 1.400 . S
C179 C180 1.398 . S
C179 C185 1.491 1_655 S
C180 H171 0.950 1_655 S
C180 C179 1.398 . S
C180 C181 1.391 . S
C181 H169 0.950 . S
C181 C177 1.393 . S
C181 C180 1.391 . S
C182 H172 0.950 . S
C182 C183 1.386 . S
C182 C184 1.391 . S
C183 C182 1.386 . S
C183 C187 1.393 . S
C184 H173 0.950 . S
C184 C182 1.391 . S
C184 C185 1.400 . S
C185 C179 1.491 1_455 S
C185 C184 1.400 . S
C185 C186 1.398 . S
C186 H174 0.950 1_455 S
C186 C185 1.398 . S
C186 C187 1.391 . S
C187 H175 0.950 . S
C187 C183 1.393 . S
C187 C186 1.391 . S
H188 C196 0.950 . S
H189 C201 0.950 . S
H190 C198 0.950 . S
H191 C200 0.950 . S
H192 C202 0.950 . S
H193 C204 0.950 . S
H194 C206 0.950 . S
H195 C207 0.950 . S
C196 H188 0.950 . S
C196 C197 1.386 . S
C196 C198 1.391 1_455 S
C197 C196 1.386 . S
C197 C201 1.393 . S
C198 H190 0.950 . S
C198 C196 1.391 1_655 S
C198 C199 1.400 1_655 S
C199 C198 1.400 1_455 S
C199 C200 1.398 . S
C199 C205 1.491 1_455 S
C200 H191 0.950 . S
C200 C199 1.398 . S
C200 C201 1.391 . S
C201 H189 0.950 . S
C201 C197 1.393 . S
C201 C200 1.391 . S
C202 H192 0.950 . S
C202 C203 1.386 . S
C202 C204 1.391 1_655 S
C203 C202 1.386 . S
C203 C207 1.393 . S
C204 H193 0.950 . S
C204 C202 1.391 1_455 S
C204 C205 1.400 1_455 S
C205 C199 1.491 1_655 S
C205 C204 1.400 1_655 S
C205 C206 1.398 . S
C206 H194 0.950 . S
C206 C205 1.398 . S
C206 C207 1.391 . S
C207 H195 0.950 . S
C207 C203 1.393 . S
C207 C206 1.391 . S
H208 C216 0.950 . S
H209 C221 0.950 . S
H210 C218 0.950 . S
H211 C220 0.950 1_545 S
H212 C222 0.950 . S
H213 C224 0.950 . S
H214 C226 0.950 1_565 S
H215 C227 0.950 . S
C216 H208 0.950 . S
C216 C217 1.386 . S
C216 C218 1.391 . S
C217 C216 1.386 . S
C217 C221 1.393 . S
C218 H210 0.950 . S
C218 C216 1.391 . S
C218 C219 1.400 . S
C219 C218 1.400 . S
C219 C220 1.398 . S
C219 C225 1.491 1_565 S
C220 H211 0.950 1_565 S
C220 C219 1.398 . S
C220 C221 1.391 . S
C221 H209 0.950 . S
C221 C217 1.393 . S
C221 C220 1.391 . S
C222 H212 0.950 . S
C222 C223 1.386 . S
C222 C224 1.391 . S
C223 C222 1.386 . S
C223 C227 1.393 . S
C224 H213 0.950 . S
C224 C222 1.391 . S
C224 C225 1.400 . S
C225 C219 1.491 1_545 S
C225 C224 1.400 . S
C225 C226 1.398 . S
C226 H214 0.950 1_545 S
C226 C225 1.398 . S
C226 C227 1.391 . S
C227 H215 0.950 . S
C227 C223 1.393 . S
C227 C226 1.391 . S
H228 C236 0.950 . S
H229 C241 0.950 . S
H230 C238 0.950 . S
H231 C240 0.950 1_545 S
H232 C242 0.950 . S
H233 C244 0.950 . S
H234 C246 0.950 1_565 S
H235 C247 0.950 . S
C236 H228 0.950 . S
C236 C237 1.386 . S
C236 C238 1.391 . S
C237 C236 1.386 . S
C237 C241 1.393 . S
C238 H230 0.950 . S
C238 C236 1.391 . S
C238 C239 1.400 . S
C239 C238 1.400 . S
C239 C240 1.398 . S
C239 C245 1.491 1_565 S
C240 H231 0.950 1_565 S
C240 C239 1.398 . S
C240 C241 1.391 . S
C241 H229 0.950 . S
C241 C237 1.393 . S
C241 C240 1.391 . S
C242 H232 0.950 . S
C242 C243 1.386 . S
C242 C244 1.391 . S
C243 C242 1.386 . S
C243 C247 1.393 . S
C244 H233 0.950 . S
C244 C242 1.391 . S
C244 C245 1.400 . S
C245 C239 1.491 1_545 S
C245 C244 1.400 . S
C245 C246 1.398 . S
C246 H234 0.950 1_545 S
C246 C245 1.398 . S
C246 C247 1.391 . S
C247 H235 0.950 . S
C247 C243 1.393 . S
C247 C246 1.391 . S
H248 C256 0.950 . S
H249 C261 0.950 . S
H250 C258 0.950 . S
H251 C260 0.950 . S
H252 C262 0.950 . S
H253 C264 0.950 . S
H254 C266 0.950 . S
H255 C267 0.950 . S
C256 H248 0.950 . S
C256 C257 1.386 . S
C256 C258 1.391 . S
C257 C256 1.386 . S
C257 C261 1.393 . S
C258 H250 0.950 . S
C258 C256 1.391 . S
C258 C259 1.400 . S
C259 C258 1.400 . S
C259 C260 1.398 . S
C259 C265 1.491 1_556 S
C260 H251 0.950 . S
C260 C259 1.398 . S
C260 C261 1.391 . S
C261 H249 0.950 . S
C261 C257 1.393 . S
C261 C260 1.391 . S
C262 H252 0.950 . S
C262 C263 1.386 . S
C262 C264 1.391 . S
C263 C262 1.386 . S
C263 C267 1.393 . S
C264 H253 0.950 . S
C264 C262 1.391 . S
C264 C265 1.400 . S
C265 C259 1.491 1_554 S
C265 C264 1.400 . S
C265 C266 1.398 . S
C266 H254 0.950 . S
C266 C265 1.398 . S
C266 C267 1.391 . S
C267 H255 0.950 . S
C267 C263 1.393 . S
C267 C266 1.391 . S
H268 C276 0.950 . S
H269 C281 0.950 . S
H270 C278 0.950 . S
H271 C280 0.939 1_554 S
H272 C282 0.950 . S
H273 C284 0.950 . S
H274 C286 0.939 1_556 S
H275 C287 0.950 . S
C276 H268 0.950 . S
C276 C277 1.386 . S
C276 C278 1.391 . S
C277 C276 1.386 . S
C277 C281 1.393 . S
C278 H270 0.950 . S
C278 C276 1.391 . S
C278 C279 1.400 . S
C279 C278 1.400 . S
C279 C280 1.398 . S
C279 C285 1.491 1_556 S
C280 H271 0.939 1_556 S
C280 C279 1.398 . S
C280 C281 1.391 . S
C281 H269 0.950 . S
C281 C277 1.393 . S
C281 C280 1.391 . S
C282 H272 0.950 . S
C282 C283 1.386 . S
C282 C284 1.391 . S
C283 C282 1.386 . S
C283 C287 1.393 . S
C284 H273 0.950 . S
C284 C282 1.391 . S
C284 C285 1.400 . S
C285 C279 1.491 1_554 S
C285 C284 1.400 . S
C285 C286 1.398 . S
C286 H274 0.939 1_554 S
C286 C285 1.398 . S
C286 C287 1.391 . S
C287 H275 0.950 . S
C287 C283 1.393 . S
C287 C286 1.391 . S
H288 C296 0.950 . S
H289 C301 0.950 . S
H290 C298 0.950 . S
H291 C300 0.950 . S
H292 C302 0.950 . S
H293 C304 0.950 . S
H294 C306 0.950 . S
H295 C307 0.950 . S
C296 H288 0.950 . S
C296 C297 1.386 . S
C296 C298 1.391 . S
C297 C296 1.386 . S
C297 C301 1.393 . S
C298 H290 0.950 . S
C298 C296 1.391 . S
C298 C299 1.400 . S
C299 C298 1.400 . S
C299 C300 1.398 . S
C299 C305 1.491 . S
C300 H291 0.950 . S
C300 C299 1.398 . S
C300 C301 1.391 . S
C301 H289 0.950 . S
C301 C297 1.393 . S
C301 C300 1.391 . S
C302 H292 0.950 . S
C302 C303 1.386 . S
C302 C304 1.391 . S
C303 C302 1.386 . S
C303 C307 1.393 . S
C304 H293 0.950 . S
C304 C302 1.391 . S
C304 C305 1.400 . S
C305 C299 1.491 . S
C305 C304 1.400 . S
C305 C306 1.398 . S
C306 H294 0.950 . S
C306 C305 1.398 . S
C306 C307 1.391 . S
C307 H295 0.950 . S
C307 C303 1.393 . S
C307 C306 1.391 . S
H308 C316 0.950 . S
H309 C321 0.950 . S
H310 C318 0.950 . S
H311 C320 0.950 . S
H312 C322 0.950 . S
H313 C324 0.950 . S
H314 C326 0.950 . S
H315 C327 0.950 . S
C316 H308 0.950 . S
C316 C317 1.386 . S
C316 C318 1.391 . S
C317 C316 1.386 . S
C317 C321 1.393 . S
C318 H310 0.950 . S
C318 C316 1.391 . S
C318 C319 1.400 . S
C319 C318 1.400 . S
C319 C320 1.398 . S
C319 C325 1.491 . S
C320 H311 0.950 . S
C320 C319 1.398 . S
C320 C321 1.391 . S
C321 H309 0.950 . S
C321 C317 1.393 . S
C321 C320 1.391 . S
C322 H312 0.950 . S
C322 C323 1.386 . S
C322 C324 1.391 . S
C323 C322 1.386 . S
C323 C327 1.393 . S
C324 H313 0.950 . S
C324 C322 1.391 . S
C324 C325 1.400 . S
C325 C319 1.491 . S
C325 C324 1.400 . S
C325 C326 1.398 . S
C326 H314 0.950 . S
C326 C325 1.398 . S
C326 C327 1.391 . S
C327 H315 0.950 . S
C327 C323 1.393 . S
C327 C326 1.391 . S
H328 C336 0.950 . S
H329 C341 0.950 . S
H330 C338 0.950 . S
H331 C340 0.950 . S
H332 C342 0.950 . S
H333 C344 0.950 . S
H334 C346 0.950 . S
H335 C347 0.950 . S
C336 H328 0.950 . S
C336 C337 1.386 . S
C336 C338 1.391 . S
C337 C336 1.386 . S
C337 C341 1.393 . S
C338 H330 0.950 . S
C338 C336 1.391 . S
C338 C339 1.400 . S
C339 C338 1.400 . S
C339 C340 1.398 . S
C339 C345 1.491 . S
C340 H331 0.950 . S
C340 C339 1.398 . S
C340 C341 1.391 . S
C341 H329 0.950 . S
C341 C337 1.393 . S
C341 C340 1.391 . S
C342 H332 0.950 . S
C342 C343 1.386 . S
C342 C344 1.391 . S
C343 C342 1.386 . S
C343 C347 1.393 . S
C344 H333 0.950 . S
C344 C342 1.391 . S
C344 C345 1.400 . S
C345 C339 1.491 . S
C345 C344 1.400 . S
C345 C346 1.398 . S
C346 H334 0.950 . S
C346 C345 1.398 . S
C346 C347 1.391 . S
C347 H335 0.950 . S
C347 C343 1.393 . S
C347 C346 1.391 . S
H348 C356 0.950 . S
H349 C361 0.950 . S
H350 C358 0.950 . S
H351 C360 0.950 . S
H352 C362 0.950 . S
H353 C364 0.950 . S
H354 C366 0.950 . S
H355 C367 0.950 . S
C356 H348 0.950 . S
C356 C357 1.386 . S
C356 C358 1.391 . S
C357 C356 1.386 . S
C357 C361 1.393 . S
C358 H350 0.950 . S
C358 C356 1.391 . S
C358 C359 1.400 . S
C359 C358 1.400 . S
C359 C360 1.398 . S
C359 C365 1.491 . S
C360 H351 0.950 . S
C360 C359 1.398 . S
C360 C361 1.391 . S
C361 H349 0.950 . S
C361 C357 1.393 . S
C361 C360 1.391 . S
C362 H352 0.950 . S
C362 C363 1.386 . S
C362 C364 1.391 . S
C363 C362 1.386 . S
C363 C367 1.393 . S
C364 H353 0.950 . S
C364 C362 1.391 . S
C364 C365 1.400 . S
C365 C359 1.491 . S
C365 C364 1.400 . S
C365 C366 1.398 . S
C366 H354 0.950 . S
C366 C365 1.398 . S
C366 C367 1.391 . S
C367 H355 0.950 . S
C367 C363 1.393 . S
C367 C366 1.391 . S
H368 C376 0.950 . S
H369 C381 0.950 . S
H370 C378 0.950 . S
H371 C380 0.950 . S
H372 C382 0.950 . S
H373 C384 0.950 . S
H374 C386 0.950 . S
H375 C387 0.950 . S
C376 H368 0.950 . S
C376 C377 1.386 . S
C376 C378 1.391 . S
C377 C376 1.386 . S
C377 C381 1.393 . S
C378 H370 0.950 . S
C378 C376 1.391 . S
C378 C379 1.400 . S
C379 C378 1.400 . S
C379 C380 1.398 . S
C379 C385 1.491 . S
C380 H371 0.950 . S
C380 C379 1.398 . S
C380 C381 1.391 . S
C381 H369 0.950 . S
C381 C377 1.393 . S
C381 C380 1.391 . S
C382 H372 0.950 . S
C382 C383 1.386 . S
C382 C384 1.391 . S
C383 C382 1.386 . S
C383 C387 1.393 . S
C384 H373 0.950 . S
C384 C382 1.391 . S
C384 C385 1.400 . S
C385 C379 1.491 . S
C385 C384 1.400 . S
C385 C386 1.398 . S
C386 H374 0.950 . S
C386 C385 1.398 . S
C386 C387 1.391 . S
C387 H375 0.950 . S
C387 C383 1.393 . S
C387 C386 1.391 . S
H388 C396 0.950 . S
H389 C401 0.950 . S
H390 C398 0.950 . S
H391 C400 0.950 . S
H392 C402 0.950 . S
H393 C404 0.950 . S
H394 C406 0.950 . S
H395 C407 0.950 . S
C396 H388 0.950 . S
C396 C397 1.386 . S
C396 C398 1.391 . S
C397 C396 1.386 . S
C397 C401 1.393 . S
C398 H390 0.950 . S
C398 C396 1.391 . S
C398 C399 1.400 . S
C399 C398 1.400 . S
C399 C400 1.398 . S
C399 C405 1.491 . S
C400 H391 0.950 . S
C400 C399 1.398 . S
C400 C401 1.391 . S
C401 H389 0.950 . S
C401 C397 1.393 . S
C401 C400 1.391 . S
C402 H392 0.950 . S
C402 C403 1.386 . S
C402 C404 1.391 . S
C403 C402 1.386 . S
C403 C407 1.393 . S
C404 H393 0.950 . S
C404 C402 1.391 . S
C404 C405 1.400 . S
C405 C399 1.491 . S
C405 C404 1.400 . S
C405 C406 1.398 . S
C406 H394 0.950 . S
C406 C405 1.398 . S
C406 C407 1.391 . S
C407 H395 0.950 . S
C407 C403 1.393 . S
C407 C406 1.391 . S
H408 C416 0.950 . S
H409 C421 0.950 . S
H410 C418 0.950 . S
H411 C420 0.950 . S
H412 C422 0.950 . S
H413 C424 0.950 . S
H414 C426 0.950 . S
H415 C427 0.950 . S
C416 H408 0.950 . S
C416 C417 1.386 . S
C416 C418 1.391 . S
C417 C416 1.386 . S
C417 C421 1.393 . S
C418 H410 0.950 . S
C418 C416 1.391 . S
C418 C419 1.400 . S
C419 C418 1.400 . S
C419 C420 1.398 . S
C419 C425 1.491 . S
C420 H411 0.950 . S
C420 C419 1.398 . S
C420 C421 1.391 . S
C421 H409 0.950 . S
C421 C417 1.393 . S
C421 C420 1.391 . S
C422 H412 0.950 . S
C422 C423 1.386 . S
C422 C424 1.391 . S
C423 C422 1.386 . S
C423 C427 1.393 . S
C424 H413 0.950 . S
C424 C422 1.391 . S
C424 C425 1.400 . S
C425 C419 1.491 . S
C425 C424 1.400 . S
C425 C426 1.398 . S
C426 H414 0.950 . S
C426 C425 1.398 . S
C426 C427 1.391 . S
C427 H415 0.950 . S
C427 C423 1.393 . S
C427 C426 1.391 . S
H428 C436 0.950 . S
H429 C441 0.950 . S
H430 C438 0.950 . S
H431 C440 0.950 . S
H432 C442 0.950 . S
H433 C444 0.950 . S
H434 C446 0.950 . S
H435 C447 0.950 . S
C436 H428 0.950 . S
C436 C437 1.386 . S
C436 C438 1.391 . S
C437 C436 1.386 . S
C437 C441 1.393 . S
C438 H430 0.950 . S
C438 C436 1.391 . S
C438 C439 1.400 . S
C439 C438 1.400 . S
C439 C440 1.398 . S
C439 C445 1.491 . S
C440 H431 0.950 . S
C440 C439 1.398 . S
C440 C441 1.391 . S
C441 H429 0.950 . S
C441 C437 1.393 . S
C441 C440 1.391 . S
C442 H432 0.950 . S
C442 C443 1.386 . S
C442 C444 1.391 . S
C443 C442 1.386 . S
C443 C447 1.393 . S
C444 H433 0.950 . S
C444 C442 1.391 . S
C444 C445 1.400 . S
C445 C439 1.491 . S
C445 C444 1.400 . S
C445 C446 1.398 . S
C446 H434 0.950 . S
C446 C445 1.398 . S
C446 C447 1.391 . S
C447 H435 0.950 . S
C447 C443 1.393 . S
C447 C446 1.391 . S
H448 C456 0.950 . S
H449 C461 0.950 . S
H450 C458 0.950 . S
H451 C460 0.950 . S
H452 C462 0.950 . S
H453 C464 0.950 . S
H454 C466 0.950 . S
H455 C467 0.950 . S
C456 H448 0.950 . S
C456 C457 1.386 . S
C456 C458 1.391 . S
C457 C456 1.386 . S
C457 C461 1.393 . S
C458 H450 0.950 . S
C458 C456 1.391 . S
C458 C459 1.400 . S
C459 C458 1.400 . S
C459 C460 1.398 . S
C459 C465 1.491 . S
C460 H451 0.950 . S
C460 C459 1.398 . S
C460 C461 1.391 . S
C461 H449 0.950 . S
C461 C457 1.393 . S
C461 C460 1.391 . S
C462 H452 0.950 . S
C462 C463 1.386 . S
C462 C464 1.391 . S
C463 C462 1.386 . S
C463 C467 1.393 . S
C464 H453 0.950 . S
C464 C462 1.391 . S
C464 C465 1.400 . S
C465 C459 1.491 . S
C465 C464 1.400 . S
C465 C466 1.398 . S
C466 H454 0.950 . S
C466 C465 1.398 . S
C466 C467 1.391 . S
C467 H455 0.950 . S
C467 C463 1.393 . S
C467 C466 1.391 . S
H468 C476 0.950 . S
H469 C481 0.950 . S
H470 C478 0.950 . S
H471 C480 0.950 . S
H472 C482 0.950 . S
H473 C484 0.950 . S
H474 C486 0.950 . S
H475 C487 0.950 . S
C476 H468 0.950 . S
C476 C477 1.386 . S
C476 C478 1.391 . S
C477 C476 1.386 . S
C477 C481 1.393 . S
C478 H470 0.950 . S
C478 C476 1.391 . S
C478 C479 1.400 . S
C479 C478 1.400 . S
C479 C480 1.398 . S
C479 C485 1.491 . S
C480 H471 0.950 . S
C480 C479 1.398 . S
C480 C481 1.391 . S
C481 H469 0.950 . S
C481 C477 1.393 . S
C481 C480 1.391 . S
C482 H472 0.950 . S
C482 C483 1.386 . S
C482 C484 1.391 . S
C483 C482 1.386 . S
C483 C487 1.393 . S
C484 H473 0.950 . S
C484 C482 1.391 . S
C484 C485 1.400 . S
C485 C479 1.491 . S
C485 C484 1.400 . S
C485 C486 1.398 . S
C486 H474 0.950 . S
C486 C485 1.398 . S
C486 C487 1.391 . S
C487 H475 0.950 . S
C487 C483 1.393 . S
C487 C486 1.391 . S
H488 C496 0.950 . S
H489 C501 0.950 . S
H490 C498 0.950 . S
H491 C500 0.950 . S
H492 C502 0.950 . S
H493 C504 0.950 . S
H494 C506 0.950 . S
H495 C507 0.950 . S
C496 H488 0.950 . S
C496 C497 1.386 . S
C496 C498 1.391 . S
C497 C496 1.386 . S
C497 C501 1.393 . S
C498 H490 0.950 . S
C498 C496 1.391 . S
C498 C499 1.400 . S
C499 C498 1.400 . S
C499 C500 1.398 . S
C499 C505 1.491 . S
C500 H491 0.950 . S
C500 C499 1.398 . S
C500 C501 1.391 . S
C501 H489 0.950 . S
C501 C497 1.393 . S
C501 C500 1.391 . S
C502 H492 0.950 . S
C502 C503 1.386 . S
C502 C504 1.391 . S
C503 C502 1.386 . S
C503 C507 1.393 . S
C504 H493 0.950 . S
C504 C502 1.391 . S
C504 C505 1.400 . S
C505 C499 1.491 . S
C505 C504 1.400 . S
C505 C506 1.398 . S
C506 H494 0.950 . S
C506 C505 1.398 . S
C506 C507 1.391 . S
C507 H495 0.950 . S
C507 C503 1.393 . S
C507 C506 1.391 . S
H508 C516 0.950 . S
H509 C521 0.950 . S
H510 C518 0.950 . S
H511 C520 0.950 . S
H512 C522 0.950 . S
H513 C524 0.950 . S
H514 C526 0.950 . S
H515 C527 0.950 . S
C516 H508 0.950 . S
C516 C517 1.386 . S
C516 C518 1.391 . S
C517 C516 1.386 . S
C517 C521 1.393 . S
C518 H510 0.950 . S
C518 C516 1.391 . S
C518 C519 1.400 . S
C519 C518 1.400 . S
C519 C520 1.398 . S
C519 C525 1.491 . S
C520 H511 0.950 . S
C520 C519 1.398 . S
C520 C521 1.391 . S
C521 H509 0.950 . S
C521 C517 1.393 . S
C521 C520 1.391 . S
C522 H512 0.950 . S
C522 C523 1.386 . S
C522 C524 1.391 . S
C523 C522 1.386 . S
C523 C527 1.393 . S
C524 H513 0.950 . S
C524 C522 1.391 . S
C524 C525 1.400 . S
C525 C519 1.491 . S
C525 C524 1.400 . S
C525 C526 1.398 . S
C526 H514 0.950 . S
C526 C525 1.398 . S
C526 C527 1.391 . S
C527 H515 0.950 . S
C527 C523 1.393 . S
C527 C526 1.391 . S
H528 C536 0.950 . S
H529 C541 0.950 1_655 S
H530 C538 0.950 . S
H531 C540 0.950 . S
H532 C542 0.950 . S
H533 C544 0.950 . S
H534 C546 0.950 . S
H535 C547 0.950 1_455 S
C536 H528 0.950 . S
C536 C537 1.386 . S
C536 C538 1.391 . S
C537 C536 1.386 . S
C537 C541 1.393 . S
C538 H530 0.950 . S
C538 C536 1.391 . S
C538 C539 1.400 . S
C539 C538 1.400 . S
C539 C540 1.398 1_455 S
C539 C545 1.491 1_445 S
C540 H531 0.950 . S
C540 C539 1.398 1_655 S
C540 C541 1.391 1_655 S
C541 H529 0.950 1_455 S
C541 C537 1.393 . S
C541 C540 1.391 1_455 S
C542 H532 0.950 . S
C542 C543 1.386 . S
C542 C544 1.391 . S
C543 C542 1.386 . S
C543 C547 1.393 . S
C544 H533 0.950 . S
C544 C542 1.391 . S
C544 C545 1.400 . S
C545 C539 1.491 1_665 S
C545 C544 1.400 . S
C545 C546 1.398 1_655 S
C546 H534 0.950 . S
C546 C545 1.398 1_455 S
C546 C547 1.391 1_455 S
C547 H535 0.950 1_655 S
C547 C543 1.393 . S
C547 C546 1.391 1_655 S
H548 C556 0.950 1_455 S
H549 C561 0.950 . S
H550 C558 0.950 . S
H551 C560 0.950 . S
H552 C562 0.950 1_655 S
H553 C564 0.950 . S
H554 C566 0.950 . S
H555 C567 0.950 . S
C556 H548 0.950 1_655 S
C556 C557 1.386 . S
C556 C558 1.391 1_655 S
C557 C556 1.386 . S
C557 C561 1.393 . S
C558 H550 0.950 . S
C558 C556 1.391 1_455 S
C558 C559 1.400 1_455 S
C559 C558 1.400 1_655 S
C559 C560 1.398 . S
C559 C565 1.491 1_645 S
C560 H551 0.950 . S
C560 C559 1.398 . S
C560 C561 1.391 . S
C561 H549 0.950 . S
C561 C557 1.393 . S
C561 C560 1.391 . S
C562 H552 0.950 1_455 S
C562 C563 1.386 . S
C562 C564 1.391 1_455 S
C563 C562 1.386 . S
C563 C567 1.393 . S
C564 H553 0.950 . S
C564 C562 1.391 1_655 S
C564 C565 1.400 1_655 S
C565 C559 1.491 1_465 S
C565 C564 1.400 1_455 S
C565 C566 1.398 . S
C566 H554 0.950 . S
C566 C565 1.398 . S
C566 C567 1.391 . S
C567 H555 0.950 . S
C567 C563 1.393 . S
C567 C566 1.391 . S
H568 C576 0.950 . S
H569 C581 0.950 . S
H570 C578 0.950 . S
H571 C580 0.950 . S
H572 C582 0.950 . S
H573 C584 0.950 . S
H574 C586 0.950 . S
H575 C587 0.950 . S
C576 H568 0.950 . S
C576 C577 1.386 . S
C576 C578 1.391 . S
C577 C576 1.386 . S
C577 C581 1.393 . S
C578 H570 0.950 . S
C578 C576 1.391 . S
C578 C579 1.400 . S
C579 C578 1.400 . S
C579 C580 1.398 . S
C579 C585 1.491 1_566 S
C580 H571 0.950 . S
C580 C579 1.398 . S
C580 C581 1.391 . S
C581 H569 0.950 . S
C581 C577 1.393 . S
C581 C580 1.391 . S
C582 H572 0.950 . S
C582 C583 1.386 . S
C582 C584 1.391 . S
C583 C582 1.386 . S
C583 C587 1.393 . S
C584 H573 0.950 . S
C584 C582 1.391 . S
C584 C585 1.400 . S
C585 C579 1.491 1_544 S
C585 C584 1.400 . S
C585 C586 1.398 . S
C586 H574 0.950 . S
C586 C585 1.398 . S
C586 C587 1.391 . S
C587 H575 0.950 . S
C587 C583 1.393 . S
C587 C586 1.391 . S
H588 C596 0.950 1_545 S
H589 C601 0.950 . S
H590 C598 0.950 . S
H591 C600 0.950 . S
H592 C602 0.950 1_565 S
H593 C604 0.950 . S
H594 C606 0.950 . S
H595 C607 0.950 . S
C596 H588 0.950 1_565 S
C596 C597 1.386 . S
C596 C598 1.391 1_565 S
C597 C596 1.386 . S
C597 C601 1.393 . S
C598 H590 0.950 . S
C598 C596 1.391 1_545 S
C598 C599 1.400 1_545 S
C599 C598 1.400 1_565 S
C599 C600 1.398 . S
C599 C605 1.491 1_564 S
C600 H591 0.950 . S
C600 C599 1.398 . S
C600 C601 1.391 . S
C601 H589 0.950 . S
C601 C597 1.393 . S
C601 C600 1.391 . S
C602 H592 0.950 1_545 S
C602 C603 1.386 . S
C602 C604 1.391 1_545 S
C603 C602 1.386 . S
C603 C607 1.393 . S
C604 H593 0.950 . S
C604 C602 1.391 1_565 S
C604 C605 1.400 1_565 S
C605 C599 1.491 1_546 S
C605 C604 1.400 1_545 S
C605 C606 1.398 . S
C606 H594 0.950 . S
C606 C605 1.398 . S
C606 C607 1.391 . S
C607 H595 0.950 . S
C607 C603 1.393 . S
C607 C606 1.391 . S
H608 C616 0.950 . S
H609 C621 0.950 . S
H610 C618 0.950 . S
H611 C620 0.950 . S
H612 C622 0.950 . S
H613 C624 0.950 . S
H614 C626 0.950 . S
H615 C627 0.950 . S
C616 H608 0.950 . S
C616 C617 1.386 . S
C616 C618 1.391 . S
C617 C616 1.386 . S
C617 C621 1.393 . S
C618 H610 0.950 . S
C618 C616 1.391 . S
C618 C619 1.400 . S
C619 C618 1.400 . S
C619 C620 1.398 . S
C619 C625 1.491 1_656 S
C620 H611 0.950 . S
C620 C619 1.398 . S
C620 C621 1.391 . S
C621 H609 0.950 . S
C621 C617 1.393 . S
C621 C620 1.391 . S
C622 H612 0.950 . S
C622 C623 1.386 . S
C622 C624 1.391 . S
C623 C622 1.386 . S
C623 C627 1.393 . S
C624 H613 0.950 . S
C624 C622 1.391 . S
C624 C625 1.400 . S
C625 C619 1.491 1_454 S
C625 C624 1.400 . S
C625 C626 1.398 . S
C626 H614 0.950 . S
C626 C625 1.398 . S
C626 C627 1.391 . S
C627 H615 0.950 . S
C627 C623 1.393 . S
C627 C626 1.391 . S
H628 C636 0.950 . S
H629 C641 0.950 . S
H630 C638 0.950 . S
H631 C640 0.941 1_554 S
H632 C642 0.950 . S
H633 C644 0.950 . S
H634 C646 0.941 1_556 S
H635 C647 0.950 . S
C636 H628 0.950 . S
C636 C637 1.386 . S
C636 C638 1.391 . S
C637 C636 1.386 . S
C637 C641 1.393 . S
C638 H630 0.950 . S
C638 C636 1.391 . S
C638 C639 1.400 . S
C639 C638 1.400 . S
C639 C640 1.401 . S
C639 C645 1.491 1_456 S
C640 H631 0.941 1_556 S
C640 C639 1.401 . S
C640 C641 1.397 . S
C641 H629 0.950 . S
C641 C637 1.393 . S
C641 C640 1.397 . S
C642 H632 0.950 . S
C642 C643 1.386 . S
C642 C644 1.391 . S
C643 C642 1.386 . S
C643 C647 1.393 . S
C644 H633 0.950 . S
C644 C642 1.391 . S
C644 C645 1.400 . S
C645 C639 1.491 1_654 S
C645 C644 1.400 . S
C645 C646 1.401 . S
C646 H634 0.941 1_554 S
C646 C645 1.401 . S
C646 C647 1.397 . S
C647 H635 0.950 . S
C647 C643 1.393 . S
C647 C646 1.397 . S
C177 C53 0.955 . S
C183 C11 0.971 . S
C197 C39 0.974 . S
C203 C25 0.949 . S
C217 C81 0.946 . S
C223 C67 0.964 . S
C237 C95 0.946 . S
C243 C109 0.964 . S
C257 C137 0.961 . S
C263 C123 0.967 . S
C277 C151 0.952 . S
C283 C165 0.957 . S
C297 C5 0.958 . S
C303 C98 0.890 . S
C317 C84 0.900 . S
C323 C19 0.960 . S
C337 C70 0.924 . S
C343 C33 0.954 . S
C357 C56 0.897 . S
C363 C47 0.960 . S
C377 C61 0.955 . S
C383 C154 0.890 . S
C397 C112 0.934 . S
C403 C75 0.939 . S
C417 C140 0.942 . S
C423 C89 0.942 . S
C437 C103 0.944 . S
C443 C126 0.941 . S
C457 C28 0.889 . S
C463 C117 0.958 . S
C477 C0 0.939 . S
C483 C131 0.939 . S
C497 C145 0.956 . S
C503 C14 0.921 . S
C517 C42 0.941 . S
C523 C159 0.944 . S
C537 C9 1.244 . S
C543 C23 1.231 . S
C557 C51 1.233 . S
C563 C37 1.246 . S
C577 C93 1.235 . S
C583 C65 1.235 . S
C597 C79 1.231 . S
C603 C107 1.242 . S
C617 C149 1.235 . S
C623 C121 1.235 . S
C637 C135 1.244 . S
C643 C163 1.239 . S
