# Generated by pormake.
# Topology whk, (6)-cn, num edge types: 1
# Building blocks:
#     Node 0, Type 0, BuildingBlock: IZENUY_clean_sbu_0, # of connection points: 6
#     Node 1, Type 0, BuildingBlock: IZENUY_clean_sbu_0, # of connection points: 6
#     Node 2, Type 0, BuildingBlock: IZENUY_clean_sbu_0, # of connection points: 6
#     Node 3, Type 0, BuildingBlock: IZENUY_clean_sbu_0, # of connection points: 6
#     Node 4, Type 0, BuildingBlock: IZENUY_clean_sbu_0, # of connection points: 6
#     Node 5, Type 0, BuildingBlock: IZENUY_clean_sbu_0, # of connection points: 6
#     Node 6, Type 0, BuildingBlock: IZENUY_clean_sbu_0, # of connection points: 6
#     Node 7, Type 0, BuildingBlock: IZENUY_clean_sbu_0, # of connection points: 6
#     Node 8, Type 0, BuildingBlock: IZENUY_clean_sbu_0, # of connection points: 6
#     Node 9, Type 0, BuildingBlock: IZENUY_clean_sbu_0, # of connection points: 6
#     Node 10, Type 0, BuildingBlock: IZENUY_clean_sbu_0, # of connection points: 6
#     Node 11, Type 0, BuildingBlock: IZENUY_clean_sbu_0, # of connection points: 6
#     Node 12, Type 0, BuildingBlock: IZENUY_clean_sbu_0, # of connection points: 6
#     Node 13, Type 0, BuildingBlock: IZENUY_clean_sbu_0, # of connection points: 6
#     Node 14, Type 0, BuildingBlock: IZENUY_clean_sbu_0, # of connection points: 6
#     Node 15, Type 0, BuildingBlock: IZENUY_clean_sbu_0, # of connection points: 6
#     Edge 16, Type (0, 0), None
#     Edge 17, Type (0, 0), None
#     Edge 18, Type (0, 0), None
#     Edge 19, Type (0, 0), None
#     Edge 20, Type (0, 0), None
#     Edge 21, Type (0, 0), None
#     Edge 22, Type (0, 0), None
#     Edge 23, Type (0, 0), None
#     Edge 24, Type (0, 0), None
#     Edge 25, Type (0, 0), None
#     Edge 26, Type (0, 0), None
#     Edge 27, Type (0, 0), None
#     Edge 28, Type (0, 0), None
#     Edge 29, Type (0, 0), None
#     Edge 30, Type (0, 0), None
#     Edge 31, Type (0, 0), None
#     Edge 32, Type (0, 0), None
#     Edge 33, Type (0, 0), None
#     Edge 34, Type (0, 0), None
#     Edge 35, Type (0, 0), None
#     Edge 36, Type (0, 0), None
#     Edge 37, Type (0, 0), None
#     Edge 38, Type (0, 0), None
#     Edge 39, Type (0, 0), None
#     Edge 40, Type (0, 0), None
#     Edge 41, Type (0, 0), None
#     Edge 42, Type (0, 0), None
#     Edge 43, Type (0, 0), None
#     Edge 44, Type (0, 0), None
#     Edge 45, Type (0, 0), None
#     Edge 46, Type (0, 0), None
#     Edge 47, Type (0, 0), None
#     Edge 48, Type (0, 0), None
#     Edge 49, Type (0, 0), None
#     Edge 50, Type (0, 0), None
#     Edge 51, Type (0, 0), None
#     Edge 52, Type (0, 0), None
#     Edge 53, Type (0, 0), None
#     Edge 54, Type (0, 0), None
#     Edge 55, Type (0, 0), None
#     Edge 56, Type (0, 0), None
#     Edge 57, Type (0, 0), None
#     Edge 58, Type (0, 0), None
#     Edge 59, Type (0, 0), None
#     Edge 60, Type (0, 0), None
#     Edge 61, Type (0, 0), None
#     Edge 62, Type (0, 0), None
#     Edge 63, Type (0, 0), None
# Relax obj value: 0.289
# Max RMSD: 0.220
# Mean RMSD: 0.220
data_MOF--net-whk--node1-IZENUY_clean_sbu_0--edge1-none
_symmetry_space_group_name_H-M    P1
_symmetry_Int_Tables_number       1
_symmetry_cell_setting            triclinic
loop_
_symmetry_equiv_pos_as_xyz
'x, y, z'
_cell_length_a     16.612985
_cell_length_b     16.612628
_cell_length_c     22.939933
_cell_angle_alpha  90.000271
_cell_angle_beta   89.999881
_cell_angle_gamma 89.999963
loop_
_atom_site_label
_atom_site_type_symbol
_atom_site_fract_x
_atom_site_fract_y
_atom_site_fract_z
_atom_type_partial_charge
Fe0 Fe 0.62229 0.15631 0.46417 0.0
Fe1 Fe 0.51175 0.27284 0.52212 0.0
O2 O 0.58016 0.25442 0.46629 0.0
Fe3 Fe 0.61492 0.32875 0.41692 0.0
O4 O 0.71155 0.29754 0.43242 0.0
O5 O 0.71263 0.20175 0.49887 0.0
O6 O 0.58256 0.11667 0.53169 0.0
C7 C 0.59134 0.15048 0.579 0.0
C8 C 0.65738 0.1933 0.35006 0.0
O9 O 0.57443 0.22399 0.57962 0.0
C10 C 0.46085 0.3824 0.43884 0.0
O11 O 0.52762 0.1212 0.42956 0.0
O12 O 0.45632 0.18215 0.50013 0.0
O13 O 0.61024 0.25566 0.35288 0.0
O14 O 0.6763 0.15958 0.39604 0.0
C15 C 0.61212 0.41119 0.52529 0.0
O16 O 0.44519 0.32568 0.47354 0.0
O17 O 0.51718 0.37578 0.40169 0.0
C18 C 0.45941 0.1397 0.45318 0.0
O19 O 0.55984 0.3646 0.54687 0.0
O20 O 0.63416 0.40583 0.47278 0.0
C21 C 0.73843 0.27058 0.48014 0.0
Fe22 Fe 0.28704 0.51172 0.52208 0.0
Fe23 Fe 0.23114 0.61494 0.4169 0.0
O24 O 0.30547 0.58017 0.46626 0.0
Fe25 Fe 0.40356 0.62233 0.46416 0.0
O26 O 0.44318 0.58258 0.53169 0.0
O27 O 0.33586 0.57439 0.57961 0.0
O28 O 0.19527 0.55977 0.54683 0.0
C29 C 0.14869 0.61208 0.52527 0.0
C30 C 0.42023 0.45946 0.45315 0.0
O31 O 0.15406 0.63417 0.47277 0.0
C32 C 0.36659 0.65741 0.35004 0.0
O33 O 0.23425 0.44517 0.47346 0.0
O34 O 0.1841 0.5172 0.40166 0.0
O35 O 0.43873 0.52767 0.42955 0.0
O36 O 0.37776 0.45633 0.50009 0.0
C37 C 0.28927 0.73844 0.48014 0.0
O38 O 0.30422 0.61027 0.35286 0.0
O39 O 0.4003 0.67634 0.39604 0.0
C40 C 0.1775 0.46086 0.4388 0.0
O41 O 0.26233 0.71157 0.43242 0.0
O42 O 0.35811 0.71265 0.49887 0.0
C43 C 0.40936 0.59134 0.57899 0.0
Fe44 Fe 0.94506 0.23114 0.4169 0.0
Fe45 Fe 0.93756 0.40358 0.46417 0.0
O46 O 0.97976 0.3055 0.46628 0.0
Fe47 Fe 0.0482 0.28711 0.52211 0.0
O48 O 1.00015 0.19534 0.54687 0.0
O49 O 0.92591 0.15403 0.47275 0.0
O50 O 0.8484 0.26222 0.43244 0.0
C51 C 0.82158 0.28923 0.48016 0.0
C52 C 0.09912 0.17757 0.43882 0.0
O53 O 0.84724 0.35811 0.49888 0.0
C54 C 0.10043 0.42028 0.45315 0.0
O55 O 0.94965 0.30424 0.35287 0.0
O56 O 0.88354 0.40028 0.39605 0.0
O57 O 0.11478 0.2343 0.47351 0.0
O58 O 0.04283 0.18421 0.40165 0.0
C59 C 0.96856 0.40943 0.579 0.0
O60 O 0.03221 0.43876 0.42955 0.0
O61 O 0.10357 0.37783 0.5001 0.0
C62 C 0.90248 0.36658 0.35006 0.0
O63 O 0.97729 0.44324 0.53169 0.0
O64 O 0.98552 0.33593 0.57962 0.0
C65 C 0.94791 0.14871 0.52528 0.0
Fe66 Fe 0.27278 0.04818 0.52215 0.0
Fe67 Fe 0.32874 0.94508 0.41692 0.0
O68 O 0.25439 0.97978 0.4663 0.0
Fe69 Fe 0.1563 0.9376 0.46418 0.0
O70 O 0.11662 0.97733 0.53169 0.0
O71 O 0.22392 0.9855 0.57964 0.0
O72 O 0.36452 1.00009 0.54691 0.0
C73 C 0.41117 0.94788 0.5253 0.0
C74 C 0.13966 0.10048 0.45318 0.0
O75 O 0.40586 0.92592 0.47277 0.0
C76 C 0.19331 0.90251 0.35007 0.0
O77 O 0.32565 0.11478 0.4736 0.0
O78 O 0.37567 0.04285 0.40168 0.0
O79 O 0.12116 0.03226 0.42957 0.0
O80 O 0.18209 0.1036 0.50014 0.0
C81 C 0.27063 0.82159 0.48016 0.0
O82 O 0.25564 0.94969 0.35289 0.0
O83 O 0.15961 0.88358 0.39606 0.0
C84 C 0.38232 0.09915 0.43885 0.0
O85 O 0.29766 0.84843 0.43245 0.0
O86 O 0.20175 0.84726 0.49888 0.0
C87 C 0.15041 0.96857 0.57901 0.0
Fe88 Fe 1.01172 0.78706 0.12295 0.0
Fe89 Fe 0.11493 0.73115 0.22813 0.0
O90 O 0.08016 0.80548 0.17877 0.0
Fe91 Fe 0.12231 0.90358 0.18088 0.0
O92 O 0.08258 0.9432 0.11335 0.0
O93 O 0.07438 0.83588 1.06543 0.0
O94 O 0.05976 0.69528 0.09821 0.0
C95 C 0.11207 0.6487 0.11976 0.0
C96 C 0.95944 0.92026 0.19188 0.0
O97 O 0.13416 0.65407 0.17227 0.0
C98 C 0.1574 0.8666 0.29499 0.0
O99 O 0.94516 0.73427 0.17157 0.0
O100 O 1.0172 0.68411 0.24337 0.0
O101 O 1.02766 0.93874 0.21549 0.0
O102 O 0.95633 0.87778 0.14494 0.0
C103 C 0.23843 0.78929 0.1649 0.0
O104 O 0.11026 0.80424 0.29218 0.0
O105 O 0.17632 0.90031 0.249 0.0
C106 C 0.96085 0.67752 0.20624 0.0
O107 O 0.21156 0.76235 0.21262 0.0
O108 O 0.21264 0.85812 0.14617 0.0
C109 C 0.09134 0.90938 1.06604 0.0
Fe110 Fe 0.77283 1.01176 0.12291 0.0
Fe111 Fe 0.82873 0.11493 0.22811 0.0
O112 O 0.7544 0.08017 0.17875 0.0
Fe113 Fe 0.65631 0.1223 0.18087 0.0
O114 O 0.61666 0.08257 0.11334 0.0
O115 O 0.72397 0.07443 1.06541 0.0
O116 O 0.86458 0.05985 0.09816 0.0
C117 C 0.91117 0.11213 0.11974 0.0
C118 C 0.63968 0.95942 0.19186 0.0
O119 O 0.90582 0.13417 0.17225 0.0
C120 C 0.69329 0.15739 0.29498 0.0
O121 O 0.82567 0.94519 0.17149 0.0
O122 O 0.87577 1.01719 0.24334 0.0
O123 O 0.62119 1.02763 0.21547 0.0
O124 O 0.68214 0.95633 0.14491 0.0
C125 C 0.77057 0.23844 0.16489 0.0
O126 O 0.75565 0.11025 0.29216 0.0
O127 O 0.65957 0.17631 0.24899 0.0
C128 C 0.88237 0.96084 0.20621 0.0
O129 O 0.79753 0.21156 0.21261 0.0
O130 O 0.70174 0.21264 0.14616 0.0
C131 C 0.65046 0.09134 1.06603 0.0
Fe132 Fe 0.43758 0.65631 0.18086 0.0
Fe133 Fe 0.54816 0.77279 0.12288 0.0
O134 O 0.47976 0.7544 0.17873 0.0
Fe135 Fe 0.44506 0.82876 0.22811 0.0
O136 O 0.34841 0.79767 0.21258 0.0
O137 O 0.34725 0.70176 0.14615 0.0
O138 O 0.47731 0.61663 0.11334 0.0
C139 C 0.46856 0.65042 1.06603 0.0
C140 C 0.4025 0.69332 0.29496 0.0
O141 O 0.48548 0.72393 1.0654 0.0
C142 C 0.59913 0.88232 0.20618 0.0
O143 O 0.53225 0.62118 0.21547 0.0
O144 O 0.60357 0.68209 0.1449 0.0
O145 O 0.44967 0.75566 0.29215 0.0
O146 O 0.38357 0.65962 0.24897 0.0
C147 C 0.44786 0.91118 0.11973 0.0
O148 O 0.61476 0.82565 0.17144 0.0
O149 O 0.54284 0.87568 0.24335 0.0
C150 C 0.60047 0.63966 0.19185 0.0
O151 O 0.50007 0.86454 0.09812 0.0
O152 O 0.4259 0.90588 0.17227 0.0
C153 C 0.32158 0.77064 0.16487 0.0
Fe154 Fe 0.90357 0.43758 0.18087 0.0
Fe155 Fe 0.78709 0.54822 0.12293 0.0
O156 O 0.80549 0.47978 0.17876 0.0
Fe157 Fe 0.73113 0.44507 0.22813 0.0
O158 O 0.76221 0.34842 0.21259 0.0
O159 O 0.8581 0.34725 0.14615 0.0
O160 O 0.94323 0.47731 0.11335 0.0
C161 C 0.90941 0.46857 1.06604 0.0
C162 C 0.86657 0.40249 0.29498 0.0
O163 O 0.83592 0.48554 1.06541 0.0
C164 C 0.67757 0.59915 0.20623 0.0
O165 O 0.93874 0.53222 0.21548 0.0
O166 O 0.87782 0.60359 0.14494 0.0
O167 O 0.80423 0.44966 0.29217 0.0
O168 O 0.90026 0.38355 0.24898 0.0
C169 C 0.6487 0.44793 0.11976 0.0
O170 O 0.73428 0.61481 0.17152 0.0
O171 O 0.6842 0.54284 0.24339 0.0
C172 C 0.92027 0.60045 0.19188 0.0
O173 O 0.69533 0.50017 0.09817 0.0
O174 O 0.65402 0.42592 0.17228 0.0
C175 C 0.78922 0.32159 0.16488 0.0
Fe176 Fe 0.4376 0.90361 0.68087 0.0
Fe177 Fe 0.54814 0.78708 0.62289 0.0
O178 O 0.47973 0.80551 0.67874 0.0
Fe179 Fe 0.44498 0.73118 0.72811 0.0
O180 O 0.34835 0.76238 0.71261 0.0
O181 O 0.34725 0.85818 0.64617 0.0
O182 O 0.47731 0.94326 0.61335 0.0
C183 C 0.46852 0.90943 0.56605 0.0
C184 C 0.40252 0.86663 0.79498 0.0
O185 O 0.48548 0.83593 0.56539 0.0
C186 C 0.59904 0.67753 0.70618 0.0
O187 O 0.53228 0.93872 0.71546 0.0
O188 O 0.60356 0.87778 0.64489 0.0
O189 O 0.44966 0.80426 0.79215 0.0
O190 O 0.3836 0.90035 0.74899 0.0
C191 C 0.44777 0.64873 0.61974 0.0
O192 O 0.6147 0.73424 0.67147 0.0
O193 O 0.54272 0.68415 0.74333 0.0
C194 C 0.60048 0.92023 0.69184 0.0
O195 O 0.50004 0.69532 0.59815 0.0
O196 O 0.42574 0.65409 0.67225 0.0
C197 C 0.32146 0.78934 0.6649 0.0
Fe198 Fe 0.65632 0.43759 0.68087 0.0
Fe199 Fe 0.77285 0.54819 0.62294 0.0
O200 O 0.75442 0.47974 0.67876 0.0
Fe201 Fe 0.82875 0.44498 0.72813 0.0
O202 O 0.79756 0.34835 0.71262 0.0
O203 O 0.70178 0.34726 0.64617 0.0
O204 O 0.61669 0.47731 0.61335 0.0
C205 C 0.65055 0.46854 0.56606 0.0
C206 C 0.6933 0.40251 0.79499 0.0
O207 O 0.72403 0.48554 0.5654 0.0
C208 C 0.88239 0.59906 0.70622 0.0
O209 O 0.62116 0.53225 0.71548 0.0
O210 O 0.68212 0.60358 0.64493 0.0
O211 O 0.75566 0.44965 0.79217 0.0
O212 O 0.65959 0.38358 0.749 0.0
C213 C 0.9112 0.44784 0.61976 0.0
O214 O 0.82564 0.61475 0.67156 0.0
O215 O 0.87578 0.54272 0.74336 0.0
C216 C 0.63966 0.60046 0.69187 0.0
O217 O 0.86463 0.50015 0.59819 0.0
O218 O 0.90583 0.42576 0.67226 0.0
C219 C 0.77061 0.32147 0.6649 0.0
Fe220 Fe 0.12234 0.65633 0.68087 0.0
Fe221 Fe 1.0117 0.77281 0.62291 0.0
O222 O 0.08014 0.75441 0.67875 0.0
Fe223 Fe 0.11483 0.82877 0.72813 0.0
O224 O 0.21149 0.79769 0.7126 0.0
O225 O 0.21266 0.7018 0.64616 0.0
O226 O 0.08263 0.61666 0.61335 0.0
C227 C 0.09137 0.6505 0.56605 0.0
C228 C 0.15741 0.69333 0.79498 0.0
O229 O 0.07436 0.72399 0.56539 0.0
C230 C 0.96078 0.88234 0.7062 0.0
O231 O 1.02768 0.62115 0.71547 0.0
O232 O 0.95632 0.68208 0.64491 0.0
O233 O 0.11023 0.75567 0.79216 0.0
O234 O 0.17635 0.65963 0.74899 0.0
C235 C 0.11198 0.91121 0.61975 0.0
O236 O 0.94511 0.82562 0.6715 0.0
O237 O 1.01705 0.87569 0.74338 0.0
C238 C 0.95946 0.63963 0.69186 0.0
O239 O 0.05975 0.86458 0.59815 0.0
O240 O 0.13398 0.90589 0.67228 0.0
C241 C 0.23832 0.77068 0.66488 0.0
Fe242 Fe 0.78711 1.01174 0.62286 0.0
Fe243 Fe 0.73116 0.11483 0.7281 0.0
O244 O 0.80551 0.08014 0.67872 0.0
Fe245 Fe 0.9036 0.12232 0.68086 0.0
O246 O 0.94329 0.08261 0.61334 0.0
O247 O 0.83598 0.07441 0.56537 0.0
O248 O 0.69537 0.05984 0.59811 0.0
C249 C 0.64872 0.11204 0.61973 0.0
C250 C 0.92024 0.95944 0.69184 0.0
O251 O 0.65404 0.134 0.67226 0.0
C252 C 0.86659 0.1574 0.79496 0.0
O253 O 0.73425 0.94514 0.67142 0.0
O254 O 0.68424 1.01705 0.74334 0.0
O255 O 0.93873 1.02765 0.71546 0.0
O256 O 0.87781 0.95633 0.64488 0.0
C257 C 0.78927 0.23833 0.66488 0.0
O258 O 0.80426 0.11022 0.79214 0.0
O259 O 0.9003 0.17634 0.74897 0.0
C260 C 0.67758 0.96077 0.70617 0.0
O261 O 0.76224 0.21149 0.71258 0.0
O262 O 0.85815 0.21267 0.64616 0.0
C263 C 0.90947 0.09138 0.56604 0.0
Fe264 Fe 0.93758 0.15633 0.96416 0.0
Fe265 Fe 0.04817 0.27285 1.0221 0.0
O266 O 0.97973 0.25443 0.96627 0.0
Fe267 Fe 0.94497 0.32876 0.91691 0.0
O268 O 0.84834 0.29757 0.93241 0.0
O269 O 0.84725 0.20179 0.99886 0.0
O270 O 0.97729 0.1167 1.03168 0.0
C271 C 0.96852 0.15055 0.07898 0.0
C272 C 0.9025 0.19331 0.85004 0.0
O273 O 0.98552 0.22404 0.07963 0.0
C274 C 0.09904 0.3824 0.93881 0.0
O275 O 0.03224 0.12118 0.92956 0.0
O276 O 0.10356 0.18213 1.00011 0.0
O277 O 0.94964 0.25567 0.85286 0.0
O278 O 0.88358 0.15959 0.89603 0.0
C279 C 0.94783 0.41122 1.02527 0.0
O280 O 0.11473 0.32565 0.97348 0.0
O281 O 0.04271 0.37579 0.90167 0.0
C282 C 0.10045 0.13966 0.95317 0.0
O283 O 1.00013 0.36464 1.04684 0.0
O284 O 0.92574 0.40584 0.97277 0.0
C285 C 0.82146 0.27062 0.98013 0.0
Fe286 Fe 0.23117 0.94499 0.91693 0.0
Fe287 Fe 0.4036 0.93761 0.96417 0.0
O288 O 0.30549 0.97974 0.9663 0.0
Fe289 Fe 0.28707 0.04816 1.02214 0.0
O290 O 0.19531 1.00006 1.04689 0.0
O291 O 0.15408 0.92576 0.97278 0.0
O292 O 0.26236 0.84836 0.93243 0.0
C293 C 0.28933 0.82147 0.98014 0.0
C294 C 0.17753 0.09907 0.93884 0.0
O295 O 0.35816 0.84727 0.99886 0.0
C296 C 0.42021 0.1005 0.95319 0.0
O297 O 0.30425 0.94968 0.85288 0.0
O298 O 0.40033 0.88361 0.89604 0.0
O299 O 0.23422 0.11473 0.97356 0.0
O300 O 0.18414 0.04274 0.9017 0.0
C301 C 0.40942 0.96854 0.07898 0.0
O302 O 0.43871 0.0323 0.92957 0.0
O303 O 0.37776 0.10358 1.00014 0.0
C304 C 0.36661 0.90253 0.85006 0.0
O305 O 0.44325 0.97733 1.03169 0.0
O306 O 0.33592 0.98549 0.07965 0.0
C307 C 0.14872 0.94779 1.0253 0.0
Fe308 Fe 0.51173 0.28713 1.02217 0.0
Fe309 Fe 0.61482 0.23117 0.91693 0.0
O310 O 0.58014 0.30552 0.96631 0.0
Fe311 Fe 0.62231 0.40361 0.96418 0.0
O312 O 0.58261 0.44331 1.03169 0.0
O313 O 0.57441 0.33599 0.07966 0.0
O314 O 0.55983 0.19538 1.04693 0.0
C315 C 0.61203 0.14873 1.02531 0.0
C316 C 0.45942 0.42026 0.9532 0.0
O317 O 0.63398 0.15404 0.97277 0.0
C318 C 0.65739 0.3666 0.85007 0.0
O319 O 0.44513 0.23427 0.97362 0.0
O320 O 0.51704 0.18425 0.90169 0.0
O321 O 0.52764 0.43874 0.92957 0.0
O322 O 0.45632 0.37783 1.00015 0.0
C323 C 0.73832 0.28928 0.98016 0.0
O324 O 0.61021 0.30427 0.85289 0.0
O325 O 0.67632 0.40031 0.89606 0.0
C326 C 0.46076 0.1776 0.93887 0.0
O327 O 0.71148 0.26225 0.93245 0.0
O328 O 0.71266 0.35817 0.99887 0.0
C329 C 0.59137 0.40948 0.07899 0.0
Fe330 Fe 0.32876 0.61484 0.91691 0.0
Fe331 Fe 0.15632 0.62234 0.96417 0.0
O332 O 0.2544 0.58014 0.96629 0.0
Fe333 Fe 0.2728 0.5117 1.02212 0.0
O334 O 0.36457 0.55975 1.04688 0.0
O335 O 0.40587 0.63399 0.97276 0.0
O336 O 0.29768 0.7115 0.93244 0.0
C337 C 0.27067 0.73833 0.98015 0.0
C338 C 0.38232 0.46077 0.93882 0.0
O339 O 0.20179 0.71267 0.99887 0.0
C340 C 0.13962 0.45947 0.95317 0.0
O341 O 0.25566 0.61024 0.85287 0.0
O342 O 0.15962 0.67636 0.89605 0.0
O343 O 0.32561 0.44511 0.97353 0.0
O344 O 0.37568 0.51707 0.90166 0.0
C345 C 0.15049 0.59138 0.07898 0.0
O346 O 0.12115 0.52769 0.92956 0.0
O347 O 0.18207 0.45633 1.00012 0.0
C348 C 0.19332 0.65742 0.85006 0.0
O349 O 0.11665 0.58263 1.03169 0.0
O350 O 0.22398 0.57437 0.07964 0.0
C351 C 0.4112 0.61198 1.02528 0.0
loop_
_geom_bond_atom_site_label_1
_geom_bond_atom_site_label_2
_geom_bond_distance
_geom_bond_site_symmetry_2
_ccdc_geom_bond_type
Fe0 O2 1.918 . S
Fe0 O5 1.997 . S
Fe0 O6 2.002 . S
Fe0 O11 1.976 . S
Fe0 O14 1.996 . S
Fe1 O2 1.918 . S
Fe1 O9 1.997 . S
Fe1 O12 1.996 . S
Fe1 O16 1.976 . S
Fe1 O19 2.002 . S
O2 Fe0 1.918 . S
O2 Fe1 1.918 . S
O2 Fe3 1.918 . S
Fe3 O2 1.918 . S
Fe3 O4 2.002 . S
Fe3 O13 1.976 . S
Fe3 O17 1.996 . S
Fe3 O20 1.997 . S
O4 Fe3 2.002 . S
O4 C21 1.295 . S
O5 Fe0 1.997 . S
O5 C21 1.235 . S
O6 Fe0 2.002 . S
O6 C7 1.295 . S
C7 O6 1.295 . S
C7 O9 1.235 . S
C8 O13 1.287 . S
C8 O14 1.255 . S
O9 Fe1 1.997 . S
O9 C7 1.235 . S
C10 O16 1.287 . S
C10 O17 1.255 . S
O11 Fe0 1.976 . S
O11 C18 1.287 . S
O12 Fe1 1.996 . S
O12 C18 1.255 . S
O13 Fe3 1.976 . S
O13 C8 1.287 . S
O14 Fe0 1.996 . S
O14 C8 1.255 . S
C15 O19 1.295 . S
C15 O20 1.235 . S
O16 Fe1 1.976 . S
O16 C10 1.287 . S
O17 Fe3 1.996 . S
O17 C10 1.255 . S
C18 O11 1.287 . S
C18 O12 1.255 . S
O19 Fe1 2.002 . S
O19 C15 1.295 . S
O20 Fe3 1.997 . S
O20 C15 1.235 . S
C21 O4 1.295 . S
C21 O5 1.235 . S
Fe22 O24 1.918 . S
Fe22 O27 1.997 . S
Fe22 O28 2.002 . S
Fe22 O33 1.976 . S
Fe22 O36 1.996 . S
Fe23 O24 1.918 . S
Fe23 O31 1.997 . S
Fe23 O34 1.996 . S
Fe23 O38 1.976 . S
Fe23 O41 2.002 . S
O24 Fe22 1.918 . S
O24 Fe23 1.918 . S
O24 Fe25 1.918 . S
Fe25 O24 1.918 . S
Fe25 O26 2.002 . S
Fe25 O35 1.976 . S
Fe25 O39 1.996 . S
Fe25 O42 1.997 . S
O26 Fe25 2.002 . S
O26 C43 1.295 . S
O27 Fe22 1.997 . S
O27 C43 1.235 . S
O28 Fe22 2.002 . S
O28 C29 1.295 . S
C29 O28 1.295 . S
C29 O31 1.235 . S
C30 O35 1.287 . S
C30 O36 1.255 . S
O31 Fe23 1.997 . S
O31 C29 1.235 . S
C32 O38 1.287 . S
C32 O39 1.255 . S
O33 Fe22 1.976 . S
O33 C40 1.287 . S
O34 Fe23 1.996 . S
O34 C40 1.255 . S
O35 Fe25 1.976 . S
O35 C30 1.287 . S
O36 Fe22 1.996 . S
O36 C30 1.255 . S
C37 O41 1.295 . S
C37 O42 1.235 . S
O38 Fe23 1.976 . S
O38 C32 1.287 . S
O39 Fe25 1.996 . S
O39 C32 1.255 . S
C40 O33 1.287 . S
C40 O34 1.255 . S
O41 Fe23 2.002 . S
O41 C37 1.295 . S
O42 Fe25 1.997 . S
O42 C37 1.235 . S
C43 O26 1.295 . S
C43 O27 1.235 . S
Fe44 O46 1.918 . S
Fe44 O49 1.997 . S
Fe44 O50 2.002 . S
Fe44 O55 1.976 . S
Fe44 O58 1.984 1_655 S
Fe45 O46 1.918 . S
Fe45 O53 1.997 . S
Fe45 O56 1.996 . S
Fe45 O60 1.976 . S
Fe45 O63 2.002 . S
O46 Fe44 1.918 . S
O46 Fe45 1.918 . S
O46 Fe47 1.918 1_655 S
Fe47 O46 1.918 1_455 S
Fe47 O48 2.002 1_455 S
Fe47 O57 1.976 . S
Fe47 O61 1.996 . S
Fe47 O64 1.997 1_455 S
O48 Fe47 2.002 1_655 S
O48 C65 1.295 . S
O49 Fe44 1.997 . S
O49 C65 1.235 . S
O50 Fe44 2.002 . S
O50 C51 1.295 . S
C51 O50 1.295 . S
C51 O53 1.235 . S
C52 O57 1.287 . S
C52 O58 1.266 . S
O53 Fe45 1.997 . S
O53 C51 1.235 . S
C54 O60 1.287 1_455 S
C54 O61 1.255 . S
O55 Fe44 1.976 . S
O55 C62 1.287 . S
O56 Fe45 1.996 . S
O56 C62 1.255 . S
O57 Fe47 1.976 . S
O57 C52 1.287 . S
O58 Fe44 1.984 1_455 S
O58 C52 1.266 . S
C59 O63 1.295 . S
C59 O64 1.235 . S
O60 Fe45 1.976 . S
O60 C54 1.287 1_655 S
O61 Fe47 1.996 . S
O61 C54 1.255 . S
C62 O55 1.287 . S
C62 O56 1.255 . S
O63 Fe45 2.002 . S
O63 C59 1.295 . S
O64 Fe47 1.997 1_655 S
O64 C59 1.235 . S
C65 O48 1.295 . S
C65 O49 1.235 . S
Fe66 O68 1.918 1_545 S
Fe66 O71 1.997 1_545 S
Fe66 O72 2.002 1_545 S
Fe66 O77 1.976 . S
Fe66 O80 1.996 . S
Fe67 O68 1.918 . S
Fe67 O75 1.997 . S
Fe67 O78 1.984 1_565 S
Fe67 O82 1.976 . S
Fe67 O85 2.002 . S
O68 Fe66 1.918 1_565 S
O68 Fe67 1.918 . S
O68 Fe69 1.918 . S
Fe69 O68 1.918 . S
Fe69 O70 2.002 . S
Fe69 O79 1.976 . S
Fe69 O83 1.996 . S
Fe69 O86 1.997 . S
O70 Fe69 2.002 . S
O70 C87 1.295 . S
O71 Fe66 1.997 1_565 S
O71 C87 1.235 . S
O72 Fe66 2.002 1_565 S
O72 C73 1.295 . S
C73 O72 1.295 . S
C73 O75 1.235 . S
C74 O79 1.287 1_545 S
C74 O80 1.255 . S
O75 Fe67 1.997 . S
O75 C73 1.235 . S
C76 O82 1.287 . S
C76 O83 1.255 . S
O77 Fe66 1.976 . S
O77 C84 1.287 . S
O78 Fe67 1.984 1_545 S
O78 C84 1.266 . S
O79 Fe69 1.976 . S
O79 C74 1.287 1_565 S
O80 Fe66 1.996 . S
O80 C74 1.255 . S
C81 O85 1.295 . S
C81 O86 1.235 . S
O82 Fe67 1.976 . S
O82 C76 1.287 . S
O83 Fe69 1.996 . S
O83 C76 1.255 . S
C84 O77 1.287 . S
C84 O78 1.266 . S
O85 Fe67 2.002 . S
O85 C81 1.295 . S
O86 Fe69 1.997 . S
O86 C81 1.235 . S
C87 O70 1.295 . S
C87 O71 1.235 . S
Fe88 O90 1.918 1_655 S
Fe88 O93 1.997 1_655 S
Fe88 O94 2.002 1_655 S
Fe88 O99 1.976 . S
Fe88 O102 1.996 . S
Fe89 O90 1.918 . S
Fe89 O97 1.997 . S
Fe89 O100 1.984 1_455 S
Fe89 O104 1.976 . S
Fe89 O107 2.002 . S
O90 Fe88 1.918 1_455 S
O90 Fe89 1.918 . S
O90 Fe91 1.918 . S
Fe91 O90 1.918 . S
Fe91 O92 2.002 . S
Fe91 O101 1.976 . S
Fe91 O105 1.996 . S
Fe91 O108 1.997 . S
O92 Fe91 2.002 . S
O92 C109 1.295 . S
O93 Fe88 1.997 1_455 S
O93 C109 1.235 . S
O94 Fe88 2.002 1_455 S
O94 C95 1.295 . S
C95 O94 1.295 . S
C95 O97 1.235 . S
C96 O101 1.287 1_655 S
C96 O102 1.255 . S
O97 Fe89 1.997 . S
O97 C95 1.235 . S
C98 O104 1.287 . S
C98 O105 1.255 . S
O99 Fe88 1.976 . S
O99 C106 1.287 . S
O100 Fe89 1.984 1_655 S
O100 C106 1.266 . S
O101 Fe91 1.976 . S
O101 C96 1.287 1_455 S
O102 Fe88 1.996 . S
O102 C96 1.255 . S
C103 O107 1.295 . S
C103 O108 1.235 . S
O104 Fe89 1.976 . S
O104 C98 1.287 . S
O105 Fe91 1.996 . S
O105 C98 1.255 . S
C106 O99 1.287 . S
C106 O100 1.266 . S
O107 Fe89 2.002 . S
O107 C103 1.295 . S
O108 Fe91 1.997 . S
O108 C103 1.235 . S
C109 O92 1.295 . S
C109 O93 1.235 . S
Fe110 O112 1.918 1_565 S
Fe110 O115 1.997 1_565 S
Fe110 O116 2.002 1_565 S
Fe110 O121 1.976 . S
Fe110 O124 1.996 . S
Fe111 O112 1.918 . S
Fe111 O119 1.997 . S
Fe111 O122 1.984 1_545 S
Fe111 O126 1.976 . S
Fe111 O129 2.002 . S
O112 Fe110 1.918 1_545 S
O112 Fe111 1.918 . S
O112 Fe113 1.918 . S
Fe113 O112 1.918 . S
Fe113 O114 2.002 . S
Fe113 O123 1.976 . S
Fe113 O127 1.996 . S
Fe113 O130 1.997 . S
O114 Fe113 2.002 . S
O114 C131 1.295 . S
O115 Fe110 1.997 1_545 S
O115 C131 1.235 . S
O116 Fe110 2.002 1_545 S
O116 C117 1.295 . S
C117 O116 1.295 . S
C117 O119 1.235 . S
C118 O123 1.287 1_565 S
C118 O124 1.255 . S
O119 Fe111 1.997 . S
O119 C117 1.235 . S
C120 O126 1.287 . S
C120 O127 1.255 . S
O121 Fe110 1.976 . S
O121 C128 1.287 . S
O122 Fe111 1.984 1_565 S
O122 C128 1.266 . S
O123 Fe113 1.976 . S
O123 C118 1.287 1_545 S
O124 Fe110 1.996 . S
O124 C118 1.255 . S
C125 O129 1.295 . S
C125 O130 1.235 . S
O126 Fe111 1.976 . S
O126 C120 1.287 . S
O127 Fe113 1.996 . S
O127 C120 1.255 . S
C128 O121 1.287 . S
C128 O122 1.266 . S
O129 Fe111 2.002 . S
O129 C125 1.295 . S
O130 Fe113 1.997 . S
O130 C125 1.235 . S
C131 O114 1.295 . S
C131 O115 1.235 . S
Fe132 O134 1.918 . S
Fe132 O137 1.997 . S
Fe132 O138 2.002 . S
Fe132 O143 1.976 . S
Fe132 O146 1.996 . S
Fe133 O134 1.918 . S
Fe133 O141 1.997 . S
Fe133 O144 1.996 . S
Fe133 O148 1.976 . S
Fe133 O151 2.002 . S
O134 Fe132 1.918 . S
O134 Fe133 1.918 . S
O134 Fe135 1.918 . S
Fe135 O134 1.918 . S
Fe135 O136 2.002 . S
Fe135 O145 1.976 . S
Fe135 O149 1.996 . S
Fe135 O152 1.997 . S
O136 Fe135 2.002 . S
O136 C153 1.295 . S
O137 Fe132 1.997 . S
O137 C153 1.235 . S
O138 Fe132 2.002 . S
O138 C139 1.295 . S
C139 O138 1.295 . S
C139 O141 1.235 . S
C140 O145 1.287 . S
C140 O146 1.255 . S
O141 Fe133 1.997 . S
O141 C139 1.235 . S
C142 O148 1.287 . S
C142 O149 1.255 . S
O143 Fe132 1.976 . S
O143 C150 1.287 . S
O144 Fe133 1.996 . S
O144 C150 1.255 . S
O145 Fe135 1.976 . S
O145 C140 1.287 . S
O146 Fe132 1.996 . S
O146 C140 1.255 . S
C147 O151 1.295 . S
C147 O152 1.235 . S
O148 Fe133 1.976 . S
O148 C142 1.287 . S
O149 Fe135 1.996 . S
O149 C142 1.255 . S
C150 O143 1.287 . S
C150 O144 1.255 . S
O151 Fe133 2.002 . S
O151 C147 1.295 . S
O152 Fe135 1.997 . S
O152 C147 1.235 . S
C153 O136 1.295 . S
C153 O137 1.235 . S
Fe154 O156 1.918 . S
Fe154 O159 1.997 . S
Fe154 O160 2.002 . S
Fe154 O165 1.976 . S
Fe154 O168 1.996 . S
Fe155 O156 1.918 . S
Fe155 O163 1.997 . S
Fe155 O166 1.996 . S
Fe155 O170 1.976 . S
Fe155 O173 2.002 . S
O156 Fe154 1.918 . S
O156 Fe155 1.918 . S
O156 Fe157 1.918 . S
Fe157 O156 1.918 . S
Fe157 O158 2.002 . S
Fe157 O167 1.976 . S
Fe157 O171 1.996 . S
Fe157 O174 1.997 . S
O158 Fe157 2.002 . S
O158 C175 1.295 . S
O159 Fe154 1.997 . S
O159 C175 1.235 . S
O160 Fe154 2.002 . S
O160 C161 1.295 . S
C161 O160 1.295 . S
C161 O163 1.235 . S
C162 O167 1.287 . S
C162 O168 1.255 . S
O163 Fe155 1.997 . S
O163 C161 1.235 . S
C164 O170 1.287 . S
C164 O171 1.255 . S
O165 Fe154 1.976 . S
O165 C172 1.287 . S
O166 Fe155 1.996 . S
O166 C172 1.255 . S
O167 Fe157 1.976 . S
O167 C162 1.287 . S
O168 Fe154 1.996 . S
O168 C162 1.255 . S
C169 O173 1.295 . S
C169 O174 1.235 . S
O170 Fe155 1.976 . S
O170 C164 1.287 . S
O171 Fe157 1.996 . S
O171 C164 1.255 . S
C172 O165 1.287 . S
C172 O166 1.255 . S
O173 Fe155 2.002 . S
O173 C169 1.295 . S
O174 Fe157 1.997 . S
O174 C169 1.235 . S
C175 O158 1.295 . S
C175 O159 1.235 . S
Fe176 O178 1.918 . S
Fe176 O181 1.997 . S
Fe176 O182 2.002 . S
Fe176 O187 1.976 . S
Fe176 O190 1.996 . S
Fe177 O178 1.918 . S
Fe177 O185 1.997 . S
Fe177 O188 1.996 . S
Fe177 O192 1.976 . S
Fe177 O195 2.002 . S
O178 Fe176 1.918 . S
O178 Fe177 1.918 . S
O178 Fe179 1.918 . S
Fe179 O178 1.918 . S
Fe179 O180 2.002 . S
Fe179 O189 1.976 . S
Fe179 O193 1.996 . S
Fe179 O196 1.997 . S
O180 Fe179 2.002 . S
O180 C197 1.295 . S
O181 Fe176 1.997 . S
O181 C197 1.235 . S
O182 Fe176 2.002 . S
O182 C183 1.295 . S
C183 O182 1.295 . S
C183 O185 1.235 . S
C184 O189 1.287 . S
C184 O190 1.255 . S
O185 Fe177 1.997 . S
O185 C183 1.235 . S
C186 O192 1.287 . S
C186 O193 1.255 . S
O187 Fe176 1.976 . S
O187 C194 1.287 . S
O188 Fe177 1.996 . S
O188 C194 1.255 . S
O189 Fe179 1.976 . S
O189 C184 1.287 . S
O190 Fe176 1.996 . S
O190 C184 1.255 . S
C191 O195 1.295 . S
C191 O196 1.235 . S
O192 Fe177 1.976 . S
O192 C186 1.287 . S
O193 Fe179 1.996 . S
O193 C186 1.255 . S
C194 O187 1.287 . S
C194 O188 1.255 . S
O195 Fe177 2.002 . S
O195 C191 1.295 . S
O196 Fe179 1.997 . S
O196 C191 1.235 . S
C197 O180 1.295 . S
C197 O181 1.235 . S
Fe198 O200 1.918 . S
Fe198 O203 1.997 . S
Fe198 O204 2.002 . S
Fe198 O209 1.976 . S
Fe198 O212 1.996 . S
Fe199 O200 1.918 . S
Fe199 O207 1.997 . S
Fe199 O210 1.996 . S
Fe199 O214 1.976 . S
Fe199 O217 2.002 . S
O200 Fe198 1.918 . S
O200 Fe199 1.918 . S
O200 Fe201 1.918 . S
Fe201 O200 1.918 . S
Fe201 O202 2.002 . S
Fe201 O211 1.976 . S
Fe201 O215 1.996 . S
Fe201 O218 1.997 . S
O202 Fe201 2.002 . S
O202 C219 1.295 . S
O203 Fe198 1.997 . S
O203 C219 1.235 . S
O204 Fe198 2.002 . S
O204 C205 1.295 . S
C205 O204 1.295 . S
C205 O207 1.235 . S
C206 O211 1.287 . S
C206 O212 1.255 . S
O207 Fe199 1.997 . S
O207 C205 1.235 . S
C208 O214 1.287 . S
C208 O215 1.255 . S
O209 Fe198 1.976 . S
O209 C216 1.287 . S
O210 Fe199 1.996 . S
O210 C216 1.255 . S
O211 Fe201 1.976 . S
O211 C206 1.287 . S
O212 Fe198 1.996 . S
O212 C206 1.255 . S
C213 O217 1.295 . S
C213 O218 1.235 . S
O214 Fe199 1.976 . S
O214 C208 1.287 . S
O215 Fe201 1.996 . S
O215 C208 1.255 . S
C216 O209 1.287 . S
C216 O210 1.255 . S
O217 Fe199 2.002 . S
O217 C213 1.295 . S
O218 Fe201 1.997 . S
O218 C213 1.235 . S
C219 O202 1.295 . S
C219 O203 1.235 . S
Fe220 O222 1.918 . S
Fe220 O225 1.997 . S
Fe220 O226 2.002 . S
Fe220 O231 1.976 . S
Fe220 O234 1.996 . S
Fe221 O222 1.918 1_655 S
Fe221 O229 1.997 1_655 S
Fe221 O232 1.996 . S
Fe221 O236 1.976 . S
Fe221 O239 2.002 1_655 S
O222 Fe220 1.918 . S
O222 Fe221 1.918 1_455 S
O222 Fe223 1.918 . S
Fe223 O222 1.918 . S
Fe223 O224 2.002 . S
Fe223 O233 1.976 . S
Fe223 O237 1.984 1_455 S
Fe223 O240 1.997 . S
O224 Fe223 2.002 . S
O224 C241 1.295 . S
O225 Fe220 1.997 . S
O225 C241 1.235 . S
O226 Fe220 2.002 . S
O226 C227 1.295 . S
C227 O226 1.295 . S
C227 O229 1.235 . S
C228 O233 1.287 . S
C228 O234 1.255 . S
O229 Fe221 1.997 1_455 S
O229 C227 1.235 . S
C230 O236 1.287 . S
C230 O237 1.266 . S
O231 Fe220 1.976 . S
O231 C238 1.287 1_455 S
O232 Fe221 1.996 . S
O232 C238 1.255 . S
O233 Fe223 1.976 . S
O233 C228 1.287 . S
O234 Fe220 1.996 . S
O234 C228 1.255 . S
C235 O239 1.295 . S
C235 O240 1.235 . S
O236 Fe221 1.976 . S
O236 C230 1.287 . S
O237 Fe223 1.984 1_655 S
O237 C230 1.266 . S
C238 O231 1.287 1_655 S
C238 O232 1.255 . S
O239 Fe221 2.002 1_455 S
O239 C235 1.295 . S
O240 Fe223 1.997 . S
O240 C235 1.235 . S
C241 O224 1.295 . S
C241 O225 1.235 . S
Fe242 O244 1.918 1_565 S
Fe242 O247 1.997 1_565 S
Fe242 O248 2.002 1_565 S
Fe242 O253 1.976 . S
Fe242 O256 1.996 . S
Fe243 O244 1.918 . S
Fe243 O251 1.997 . S
Fe243 O254 1.984 1_545 S
Fe243 O258 1.976 . S
Fe243 O261 2.002 . S
O244 Fe242 1.918 1_545 S
O244 Fe243 1.918 . S
O244 Fe245 1.918 . S
Fe245 O244 1.918 . S
Fe245 O246 2.002 . S
Fe245 O255 1.976 . S
Fe245 O259 1.996 . S
Fe245 O262 1.997 . S
O246 Fe245 2.002 . S
O246 C263 1.295 . S
O247 Fe242 1.997 1_545 S
O247 C263 1.235 . S
O248 Fe242 2.002 1_545 S
O248 C249 1.295 . S
C249 O248 1.295 . S
C249 O251 1.235 . S
C250 O255 1.287 1_565 S
C250 O256 1.255 . S
O251 Fe243 1.997 . S
O251 C249 1.235 . S
C252 O258 1.287 . S
C252 O259 1.255 . S
O253 Fe242 1.976 . S
O253 C260 1.287 . S
O254 Fe243 1.984 1_565 S
O254 C260 1.266 . S
O255 Fe245 1.976 . S
O255 C250 1.287 1_545 S
O256 Fe242 1.996 . S
O256 C250 1.255 . S
C257 O261 1.295 . S
C257 O262 1.235 . S
O258 Fe243 1.976 . S
O258 C252 1.287 . S
O259 Fe245 1.996 . S
O259 C252 1.255 . S
C260 O253 1.287 . S
C260 O254 1.266 . S
O261 Fe243 2.002 . S
O261 C257 1.295 . S
O262 Fe245 1.997 . S
O262 C257 1.235 . S
C263 O246 1.295 . S
C263 O247 1.235 . S
Fe264 O266 1.918 . S
Fe264 O269 1.997 . S
Fe264 O270 2.002 . S
Fe264 O275 1.976 . S
Fe264 O278 1.996 . S
Fe265 O266 1.918 1_455 S
Fe265 O273 1.997 1_455 S
Fe265 O276 1.996 . S
Fe265 O280 1.976 . S
Fe265 O283 2.002 1_455 S
O266 Fe264 1.918 . S
O266 Fe265 1.918 1_655 S
O266 Fe267 1.918 . S
Fe267 O266 1.918 . S
Fe267 O268 2.002 . S
Fe267 O277 1.976 . S
Fe267 O281 1.984 1_655 S
Fe267 O284 1.997 . S
O268 Fe267 2.002 . S
O268 C285 1.295 . S
O269 Fe264 1.997 . S
O269 C285 1.235 . S
O270 Fe264 2.002 . S
O270 C271 1.295 . S
C271 O270 1.295 . S
C271 O273 1.235 . S
C272 O277 1.287 . S
C272 O278 1.255 . S
O273 Fe265 1.997 1_655 S
O273 C271 1.235 . S
C274 O280 1.287 . S
C274 O281 1.266 . S
O275 Fe264 1.976 . S
O275 C282 1.287 1_655 S
O276 Fe265 1.996 . S
O276 C282 1.255 . S
O277 Fe267 1.976 . S
O277 C272 1.287 . S
O278 Fe264 1.996 . S
O278 C272 1.255 . S
C279 O283 1.295 . S
C279 O284 1.235 . S
O280 Fe265 1.976 . S
O280 C274 1.287 . S
O281 Fe267 1.984 1_455 S
O281 C274 1.266 . S
C282 O275 1.287 1_455 S
C282 O276 1.255 . S
O283 Fe265 2.002 1_655 S
O283 C279 1.295 . S
O284 Fe267 1.997 . S
O284 C279 1.235 . S
C285 O268 1.295 . S
C285 O269 1.235 . S
Fe286 O288 1.918 . S
Fe286 O291 1.997 . S
Fe286 O292 2.002 . S
Fe286 O297 1.976 . S
Fe286 O300 1.984 1_565 S
Fe287 O288 1.918 . S
Fe287 O295 1.997 . S
Fe287 O298 1.996 . S
Fe287 O302 1.976 . S
Fe287 O305 2.002 . S
O288 Fe286 1.918 . S
O288 Fe287 1.918 . S
O288 Fe289 1.918 1_565 S
Fe289 O288 1.918 1_545 S
Fe289 O290 2.002 1_545 S
Fe289 O299 1.976 . S
Fe289 O303 1.996 . S
Fe289 O306 1.997 1_545 S
O290 Fe289 2.002 1_565 S
O290 C307 1.295 . S
O291 Fe286 1.997 . S
O291 C307 1.235 . S
O292 Fe286 2.002 . S
O292 C293 1.295 . S
C293 O292 1.295 . S
C293 O295 1.235 . S
C294 O299 1.287 . S
C294 O300 1.266 . S
O295 Fe287 1.997 . S
O295 C293 1.235 . S
C296 O302 1.287 1_545 S
C296 O303 1.255 . S
O297 Fe286 1.976 . S
O297 C304 1.287 . S
O298 Fe287 1.996 . S
O298 C304 1.255 . S
O299 Fe289 1.976 . S
O299 C294 1.287 . S
O300 Fe286 1.984 1_545 S
O300 C294 1.266 . S
C301 O305 1.295 . S
C301 O306 1.235 . S
O302 Fe287 1.976 . S
O302 C296 1.287 1_565 S
O303 Fe289 1.996 . S
O303 C296 1.255 . S
C304 O297 1.287 . S
C304 O298 1.255 . S
O305 Fe287 2.002 . S
O305 C301 1.295 . S
O306 Fe289 1.997 1_565 S
O306 C301 1.235 . S
C307 O290 1.295 . S
C307 O291 1.235 . S
Fe308 O310 1.918 . S
Fe308 O313 1.997 . S
Fe308 O314 2.002 . S
Fe308 O319 1.976 . S
Fe308 O322 1.996 . S
Fe309 O310 1.918 . S
Fe309 O317 1.997 . S
Fe309 O320 1.996 . S
Fe309 O324 1.976 . S
Fe309 O327 2.002 . S
O310 Fe308 1.918 . S
O310 Fe309 1.918 . S
O310 Fe311 1.918 . S
Fe311 O310 1.918 . S
Fe311 O312 2.002 . S
Fe311 O321 1.976 . S
Fe311 O325 1.996 . S
Fe311 O328 1.997 . S
O312 Fe311 2.002 . S
O312 C329 1.295 . S
O313 Fe308 1.997 . S
O313 C329 1.235 . S
O314 Fe308 2.002 . S
O314 C315 1.295 . S
C315 O314 1.295 . S
C315 O317 1.235 . S
C316 O321 1.287 . S
C316 O322 1.255 . S
O317 Fe309 1.997 . S
O317 C315 1.235 . S
C318 O324 1.287 . S
C318 O325 1.255 . S
O319 Fe308 1.976 . S
O319 C326 1.287 . S
O320 Fe309 1.996 . S
O320 C326 1.255 . S
O321 Fe311 1.976 . S
O321 C316 1.287 . S
O322 Fe308 1.996 . S
O322 C316 1.255 . S
C323 O327 1.295 . S
C323 O328 1.235 . S
O324 Fe309 1.976 . S
O324 C318 1.287 . S
O325 Fe311 1.996 . S
O325 C318 1.255 . S
C326 O319 1.287 . S
C326 O320 1.255 . S
O327 Fe309 2.002 . S
O327 C323 1.295 . S
O328 Fe311 1.997 . S
O328 C323 1.235 . S
C329 O312 1.295 . S
C329 O313 1.235 . S
Fe330 O332 1.918 . S
Fe330 O335 1.997 . S
Fe330 O336 2.002 . S
Fe330 O341 1.976 . S
Fe330 O344 1.996 . S
Fe331 O332 1.918 . S
Fe331 O339 1.997 . S
Fe331 O342 1.996 . S
Fe331 O346 1.976 . S
Fe331 O349 2.002 . S
O332 Fe330 1.918 . S
O332 Fe331 1.918 . S
O332 Fe333 1.918 . S
Fe333 O332 1.918 . S
Fe333 O334 2.002 . S
Fe333 O343 1.976 . S
Fe333 O347 1.996 . S
Fe333 O350 1.997 . S
O334 Fe333 2.002 . S
O334 C351 1.295 . S
O335 Fe330 1.997 . S
O335 C351 1.235 . S
O336 Fe330 2.002 . S
O336 C337 1.295 . S
C337 O336 1.295 . S
C337 O339 1.235 . S
C338 O343 1.287 . S
C338 O344 1.255 . S
O339 Fe331 1.997 . S
O339 C337 1.235 . S
C340 O346 1.287 . S
C340 O347 1.255 . S
O341 Fe330 1.976 . S
O341 C348 1.287 . S
O342 Fe331 1.996 . S
O342 C348 1.255 . S
O343 Fe333 1.976 . S
O343 C338 1.287 . S
O344 Fe330 1.996 . S
O344 C338 1.255 . S
C345 O349 1.295 . S
C345 O350 1.235 . S
O346 Fe331 1.976 . S
O346 C340 1.287 . S
O347 Fe333 1.996 . S
O347 C340 1.255 . S
C348 O341 1.287 . S
C348 O342 1.255 . S
O349 Fe331 2.002 . S
O349 C345 1.295 . S
O350 Fe333 1.997 . S
O350 C345 1.235 . S
C351 O334 1.295 . S
C351 O335 1.235 . S
C8 C120 3.088 . S
C140 C32 3.088 . S
C62 C162 3.088 . S
C76 C98 3.088 . S
C304 C184 3.088 . S
C318 C206 3.088 . S
C228 C348 3.088 . S
C252 C272 3.088 . S
C18 C84 1.724 . S
C30 C10 1.724 . S
C54 C40 1.724 . S
C74 C52 1.724 . S
C96 C128 1.724 . S
C142 C118 1.724 . S
C150 C164 1.724 . S
C106 C172 1.724 . S
C260 C194 1.724 . S
C216 C186 1.724 . S
C238 C208 1.724 . S
C250 C230 1.724 . S
C282 C294 1.724 . S
C296 C326 1.724 . S
C316 C338 1.724 . S
C340 C274 1.724 . S
C21 C51 0.808 . S
C37 C81 0.808 . S
C153 C103 0.808 . S
C175 C125 0.808 . S
C241 C197 0.808 . S
C257 C219 0.808 . S
C285 C323 0.808 . S
C293 C337 0.808 . S
C7 C249 1.457 . S
C191 C43 1.457 . S
C59 C213 1.457 . S
C235 C87 1.457 . S
C307 C109 1.457 1_556 S
C131 C315 1.457 1_554 S
C351 C139 1.457 1_556 S
C161 C279 1.457 1_554 S
C183 C73 1.457 . S
C205 C15 1.457 . S
C29 C227 1.457 . S
C263 C65 1.457 . S
C271 C117 1.457 1_556 S
C301 C147 1.457 1_556 S
C169 C329 1.457 1_554 S
C95 C345 1.457 1_554 S
