# Generated by pormake.
# Topology qtz-e, (6)-cn, num edge types: 1
# Building blocks:
#     Node 0, Type 0, BuildingBlock: BETDAH_clean_sbu_0, # of connection points: 6
#     Node 1, Type 0, BuildingBlock: BETDAH_clean_sbu_0, # of connection points: 6
#     Node 2, Type 0, BuildingBlock: BETDAH_clean_sbu_0, # of connection points: 6
#     Node 3, Type 0, BuildingBlock: BETDAH_clean_sbu_0, # of connection points: 6
#     Node 4, Type 0, BuildingBlock: BETDAH_clean_sbu_0, # of connection points: 6
#     Node 5, Type 0, BuildingBlock: BETDAH_clean_sbu_0, # of connection points: 6
#     Edge 6, Type (0, 0), BuildingBlock: UVAHIK_clean_linker_0, # of connection points: 2
#     Edge 7, Type (0, 0), BuildingBlock: UVAHIK_clean_linker_0, # of connection points: 2
#     Edge 8, Type (0, 0), BuildingBlock: UVAHIK_clean_linker_0, # of connection points: 2
#     Edge 9, Type (0, 0), BuildingBlock: UVAHIK_clean_linker_0, # of connection points: 2
#     Edge 10, Type (0, 0), BuildingBlock: UVAHIK_clean_linker_0, # of connection points: 2
#     Edge 11, Type (0, 0), BuildingBlock: UVAHIK_clean_linker_0, # of connection points: 2
#     Edge 12, Type (0, 0), BuildingBlock: UVAHIK_clean_linker_0, # of connection points: 2
#     Edge 13, Type (0, 0), BuildingBlock: UVAHIK_clean_linker_0, # of connection points: 2
#     Edge 14, Type (0, 0), BuildingBlock: UVAHIK_clean_linker_0, # of connection points: 2
#     Edge 15, Type (0, 0), BuildingBlock: UVAHIK_clean_linker_0, # of connection points: 2
#     Edge 16, Type (0, 0), BuildingBlock: UVAHIK_clean_linker_0, # of connection points: 2
#     Edge 17, Type (0, 0), BuildingBlock: UVAHIK_clean_linker_0, # of connection points: 2
#     Edge 18, Type (0, 0), BuildingBlock: UVAHIK_clean_linker_0, # of connection points: 2
#     Edge 19, Type (0, 0), BuildingBlock: UVAHIK_clean_linker_0, # of connection points: 2
#     Edge 20, Type (0, 0), BuildingBlock: UVAHIK_clean_linker_0, # of connection points: 2
#     Edge 21, Type (0, 0), BuildingBlock: UVAHIK_clean_linker_0, # of connection points: 2
#     Edge 22, Type (0, 0), BuildingBlock: UVAHIK_clean_linker_0, # of connection points: 2
#     Edge 23, Type (0, 0), BuildingBlock: UVAHIK_clean_linker_0, # of connection points: 2
# Relax obj value: 0.107
# Max RMSD: 0.177
# Mean RMSD: 0.177
data_MOF--net-qtz-e--node1-BETDAH_clean_sbu_0--edge1-UVAHIK_clean_linker_0
_symmetry_space_group_name_H-M    P1
_symmetry_Int_Tables_number       1
_symmetry_cell_setting            triclinic
loop_
_symmetry_equiv_pos_as_xyz
'x, y, z'
_cell_length_a     32.649963
_cell_length_b     32.592969
_cell_length_c     62.638988
_cell_angle_alpha  90.112971
_cell_angle_beta   89.398076
_cell_angle_gamma 120.03176
loop_
_atom_site_label
_atom_site_type_symbol
_atom_site_fract_x
_atom_site_fract_y
_atom_site_fract_z
_atom_type_partial_charge
Ho0 Ho 0.17057 0.45109 0.04986 0.0
Ho1 Ho 0.18667 0.36617 0.04475 0.0
C2 C 0.16877 0.3877 0.09175 0.0
C3 C 0.13725 0.50391 0.06303 0.0
C4 C 0.12982 0.51638 0.08487 0.0
C5 C 0.11399 0.48267 0.10144 0.0
C6 C 0.11289 0.49604 0.12255 0.0
C7 C 0.12761 0.54341 0.12758 0.0
C8 C 0.14143 0.57674 0.11088 0.0
C9 C 0.14268 0.56333 0.08972 0.0
C10 C 0.26121 0.47379 0.04928 0.0
C11 C 0.19564 0.4337 1.00363 0.0
C12 C 0.21448 0.30925 0.03068 0.0
C13 C 0.22562 0.29992 1.00888 0.0
C14 C 0.25521 0.28068 1.00572 0.0
C15 C 0.26652 0.2729 0.98499 0.0
C16 C 0.24901 0.28498 0.96707 0.0
C17 C 0.21918 0.304 0.97033 0.0
C18 C 0.2072 0.31088 0.991 0.0
C19 C 0.09626 0.34719 0.0446 0.0
O20 O 0.1585 0.41838 0.08291 0.0
O21 O 0.18581 0.36506 0.08048 0.0
O22 O 0.18148 0.52075 0.05738 0.0
O23 O 0.11039 0.45971 0.05727 0.0
O24 O 0.24605 0.50061 0.04156 0.0
O25 O 0.22816 0.43759 0.05842 0.0
O26 O 0.208 0.40518 1.01305 0.0
O27 O 0.17279 0.45155 1.01414 0.0
O28 O 0.17013 0.29633 0.03433 0.0
O29 O 0.24344 0.35119 0.03848 0.0
O30 O 0.10965 0.32098 0.05442 0.0
O31 O 0.13122 0.38109 0.0355 0.0
H32 H 0.10308 0.44604 0.09819 0.0
H33 H 0.10114 0.46937 0.135 0.0
H34 H 0.15313 0.61356 0.11427 0.0
H35 H 0.15516 0.58996 0.07723 0.0
H36 H 0.26971 0.27185 0.01928 0.0
H37 H 0.28969 0.2583 0.98294 0.0
H38 H 0.20473 0.31315 0.95686 0.0
H39 H 0.18369 0.32506 0.99299 0.0
Ho40 Ho 0.71635 0.18736 0.38235 0.0
Ho41 Ho 0.81927 0.21328 0.37885 0.0
C42 C 0.76989 0.17118 0.42305 0.0
C43 C 0.62837 0.14721 0.39329 0.0
C44 C 0.60811 0.1498 0.41417 0.0
C45 C 0.57437 0.10839 0.4247 0.0
C46 C 0.55936 0.11058 0.44554 0.0
C47 C 0.57793 0.1543 0.45624 0.0
C48 C 0.61078 0.19573 0.44535 0.0
C49 C 0.62592 0.1935 0.42469 0.0
C50 C 0.7774 0.27801 0.3923 0.0
C51 C 0.76529 0.22844 0.33815 0.0
C52 C 0.90789 0.25191 0.36839 0.0
C53 C 0.93403 0.26613 0.34768 0.0
C54 C 0.93007 0.29763 0.33367 0.0
C55 C 0.95255 0.30822 0.31362 0.0
C56 C 0.97973 0.28777 0.30707 0.0
C57 C 0.98431 0.25693 0.32129 0.0
C58 C 0.96177 0.24631 0.34134 0.0
C59 C 0.75435 0.12321 0.36897 0.0
O60 O 0.73022 0.15873 0.41268 0.0
O61 O 0.81176 0.1994 0.41416 0.0
O62 O 0.64978 0.18665 0.38225 0.0
O63 O 0.65229 0.12484 0.3934 0.0
O64 O 0.7371 0.26367 0.38328 0.0
O65 O 0.7822 0.24313 0.39718 0.0
O66 O 0.8054 0.2427 0.34853 0.0
O67 O 0.72397 0.1986 0.34703 0.0
O68 O 0.88051 0.20635 0.37141 0.0
O69 O 0.88816 0.27618 0.37502 0.0
O70 O 0.79118 0.1338 0.3804 0.0
O71 O 0.75425 0.16014 0.36384 0.0
H72 H 0.56057 0.07424 0.41704 0.0
H73 H 0.53432 0.0779 0.45348 0.0
H74 H 0.62518 0.23012 0.45284 0.0
H75 H 0.65243 0.2261 0.41716 0.0
H76 H 0.9089 0.3135 0.338 0.0
H77 H 0.94764 0.33162 0.30304 0.0
H78 H 0.0055 0.24106 0.31698 0.0
H79 H 0.96559 0.22207 0.35183 0.0
Ho80 Ho 0.52609 0.71709 0.7193 0.0
Ho81 Ho 0.60792 0.81773 0.71144 0.0
C82 C 0.60076 0.7769 0.75761 0.0
C83 C 0.47262 0.63102 0.7326 0.0
C84 C 0.44915 0.6133 0.75347 0.0
C85 C 0.4519 0.64549 0.7691 0.0
C86 C 0.42821 0.62923 0.78866 0.0
C87 C 0.40141 0.58038 0.79307 0.0
C88 C 0.39947 0.54821 0.77749 0.0
C89 C 0.42301 0.56458 0.75781 0.0
C90 C 0.50413 0.78529 0.72612 0.0
C91 C 0.53368 0.75771 0.67348 0.0
C92 C 0.66193 0.90375 0.69774 0.0
C93 C 0.67204 0.92652 0.67647 0.0
C94 C 0.70041 0.97586 0.67453 0.0
C95 C 0.71069 -0.00238 0.65437 0.0
C96 C 0.69247 0.97041 0.63574 0.0
C97 C 0.66395 0.92089 0.63781 0.0
C98 C 0.65411 0.89919 0.65794 0.0
C99 C 0.62723 0.74685 0.70596 0.0
O100 O 0.56998 0.7355 0.74922 0.0
O101 O 0.61655 0.81711 0.74689 0.0
O102 O 0.45698 0.65424 0.72156 0.0
O103 O 0.51884 0.65245 0.73263 0.0
O104 O 0.47482 0.74357 0.71897 0.0
O105 O 0.54269 0.78787 0.73089 0.0
O106 O 0.56086 0.79948 0.68246 0.0
O107 O 0.52202 0.71793 0.68376 0.0
O108 O 0.67652 0.87346 0.70059 0.0
O109 O 0.61922 0.88822 0.70542 0.0
O110 O 0.65578 0.78654 0.71521 0.0
O111 O 0.59095 0.7475 0.70013 0.0
H112 H 0.47208 0.68331 0.76606 0.0
H113 H 0.43108 0.65496 0.8004 0.0
H114 H 0.37892 0.51038 0.78034 0.0
H115 H 0.42038 0.53922 0.74592 0.0
H116 H 0.71469 -0.0024 0.68862 0.0
H117 H 0.73238 0.03583 0.65338 0.0
H118 H 0.64984 0.89876 0.62383 0.0
H119 H 0.63278 0.861 0.65901 0.0
Ho120 Ho 0.79933 0.53249 0.04682 0.0
Ho121 Ho 0.82082 0.63419 0.03733 0.0
C122 C 0.83408 0.61293 0.08514 0.0
C123 C 0.80255 0.4595 0.06075 0.0
C124 C 0.80028 0.4409 0.08238 0.0
C125 C 0.81817 0.41053 0.08631 0.0
C126 C 0.81618 0.39302 0.10692 0.0
C127 C 0.79589 0.40535 0.1239 0.0
C128 C 0.77841 0.43619 0.11988 0.0
C129 C 0.78075 0.45393 0.09934 0.0
C130 C 0.72398 0.54408 0.04694 0.0
C131 C 0.78315 0.55368 0.99986 0.0
C132 C 0.81935 0.70732 0.02252 0.0
C133 C 0.79998 0.71629 1.003 0.0
C134 C 0.75526 0.68267 0.99535 0.0
C135 C 0.73857 0.69064 0.97622 0.0
C136 C 0.76638 0.7322 0.96419 0.0
C137 C 0.81105 0.76587 0.97203 0.0
C138 C 0.82758 0.75799 0.99125 0.0
C139 C 0.89458 0.61865 0.03643 0.0
O140 O 0.8264 0.57105 0.07833 0.0
O141 O 0.82965 0.64301 0.07256 0.0
O142 O 0.76377 0.45759 0.05412 0.0
O143 O 0.84024 0.50013 0.05637 0.0
O144 O 0.72287 0.50558 0.04075 0.0
O145 O 0.76386 0.57321 0.05439 0.0
O146 O 0.78326 0.59135 1.00799 0.0
O147 O 0.79696 0.52863 1.01118 0.0
O148 O 0.8549 0.70003 0.01949 0.0
O149 O 0.78865 0.67822 0.03663 0.0
O150 O 0.89696 0.65619 0.04488 0.0
O151 O 0.85407 0.5927 0.02907 0.0
H152 H 0.83335 0.40009 0.07342 0.0
H153 H 0.82968 0.36911 0.1095 0.0
H154 H 0.76325 0.44694 0.13267 0.0
H155 H 0.76717 0.47775 0.09668 0.0
H156 H 0.73332 0.64996 1.00401 0.0
H157 H 0.70375 0.66419 0.9709 0.0
H158 H 0.83383 0.7979 0.9631 0.0
H159 H 0.86237 0.78418 0.99675 0.0
Ho160 Ho 0.2394 0.765 0.3861 0.0
Ho161 Ho 0.16986 0.79742 0.37271 0.0
C162 C 0.21757 0.83344 0.41762 0.0
C163 C 0.31228 0.76159 0.39958 0.0
C164 C 0.33166 0.76216 0.42076 0.0
C165 C 0.32258 0.78364 0.4382 0.0
C166 C 0.34 0.78286 0.45838 0.0
C167 C 0.36638 0.76008 0.46155 0.0
C168 C 0.3752 0.73836 0.44405 0.0
C169 C 0.35806 0.73953 0.42381 0.0
C170 C 0.14928 0.7047 0.39732 0.0
C171 C 0.18957 0.72825 0.34154 0.0
C172 C 0.09931 0.80217 0.35699 0.0
C173 C 0.07276 0.78541 0.33683 0.0
C174 C 0.06249 0.74175 0.32793 0.0
C175 C 0.04033 0.72763 0.30813 0.0
C176 C 0.02706 0.75644 0.29687 0.0
C177 C 0.0364 0.79971 0.30613 0.0
C178 C 0.05922 0.81409 0.32584 0.0
C179 C 0.26198 0.85418 0.36214 0.0
O180 O 0.24657 0.81774 0.41182 0.0
O181 O 0.18042 0.82494 0.40609 0.0
O182 O 0.2718 0.7239 0.39534 0.0
O183 O 0.31387 0.8008 0.39357 0.0
O184 O 0.17998 0.69212 0.39233 0.0
O185 O 0.16869 0.74927 0.39778 0.0
O186 O 0.1595 0.74169 0.34829 0.0
O187 O 0.22854 0.73938 0.3522 0.0
O188 O 0.14324 0.83636 0.35513 0.0
O189 O 0.09443 0.76944 0.37052 0.0
O190 O 0.23532 0.87058 0.36905 0.0
O191 O 0.2382 0.81007 0.36109 0.0
H192 H 0.30167 0.80065 0.43629 0.0
H193 H 0.33205 0.79932 0.47159 0.0
H194 H 0.39569 0.72083 0.44598 0.0
H195 H 0.36519 0.72251 0.41056 0.0
H196 H 0.07235 0.71875 0.33606 0.0
H197 H 0.03467 0.69452 0.30149 0.0
H198 H 0.02602 0.82254 0.29822 0.0
H199 H 0.0666 0.84785 0.33243 0.0
Ho200 Ho 0.45968 0.26051 0.7153 0.0
Ho201 Ho 0.3598 0.17803 0.70607 0.0
C202 C 0.37473 0.22251 0.752 0.0
C203 C 0.53119 0.33976 0.72756 0.0
C204 C 0.55098 0.36125 0.74848 0.0
C205 C 0.52195 0.36122 0.76522 0.0
C206 C 0.54105 0.37918 0.78529 0.0
C207 C 0.58958 0.39749 0.78907 0.0
C208 C 0.61859 0.39813 0.77213 0.0
C209 C 0.59947 0.38026 0.75207 0.0
C210 C 0.44716 0.17421 0.72351 0.0
C211 C 0.44427 0.21334 0.67003 0.0
C212 C 0.29029 0.10152 0.6907 0.0
C213 C 0.28338 0.07857 0.66945 0.0
C214 C 0.30907 0.05631 0.66323 0.0
C215 C 0.30454 0.03762 0.64267 0.0
C216 C 0.27425 0.04069 0.62772 0.0
C217 C 0.24808 0.06236 0.63409 0.0
C218 C 0.25245 0.08085 0.65469 0.0
C219 C 0.37591 0.26652 0.69884 0.0
O220 O 0.41561 0.25727 0.74437 0.0
O221 O 0.34818 0.18333 0.74101 0.0
O222 O 0.5343 0.30248 0.72253 0.0
O223 O 0.49019 0.33494 0.72263 0.0
O224 O 0.48668 0.20976 0.71685 0.0
O225 O 0.41717 0.18697 0.72707 0.0
O226 O 0.4052 0.17803 0.6785 0.0
O227 O 0.46915 0.25395 0.68021 0.0
O228 O 0.29121 0.14212 0.69098 0.0
O229 O 0.32256 0.10164 0.703 0.0
O230 O 0.33727 0.23343 0.70766 0.0
O231 O 0.40264 0.25038 0.69435 0.0
H232 H 0.48442 0.34687 0.76291 0.0
H233 H 0.51775 0.37874 0.79783 0.0
H234 H 0.65594 0.41133 0.77449 0.0
H235 H 0.62249 0.38048 0.73943 0.0
H236 H 0.33321 0.05376 0.67415 0.0
H237 H 0.32468 0.02053 0.63855 0.0
H238 H 0.22484 0.06601 0.62302 0.0
H239 H 0.23221 0.09779 0.65894 0.0
C240 C 0.15244 0.71002 0.30556 0.0
C241 C 0.18122 0.70465 0.3205 0.0
C242 C 0.14509 0.68929 0.28541 0.0
C243 C 0.19576 0.63948 0.24685 0.0
H244 H 0.07498 0.59391 0.21909 0.0
C245 C 0.15131 0.54261 0.16548 0.0
C246 C 0.13083 0.55833 0.15024 0.0
C247 C 0.15609 0.5578 0.18667 0.0
C248 C 0.10898 0.60673 0.2266 0.0
H249 H 0.22499 0.6732 0.32599 0.0
H250 H 0.21132 0.63579 0.29087 0.0
H251 H 0.08542 0.62359 0.25553 0.0
H252 H 0.09854 0.60162 0.14538 0.0
H253 H 0.10663 0.62802 0.1825 0.0
H254 H 0.21892 0.62192 0.21787 0.0
C255 C 0.19492 0.65676 0.29463 0.0
C256 C 0.11509 0.62391 0.24749 0.0
C257 C 0.2026 0.67796 0.31481 0.0
C258 C 0.11468 0.58912 0.15673 0.0
C259 C 0.11899 0.60392 0.178 0.0
C260 C 0.18944 0.6218 0.22603 0.0
C261 C 0.16612 0.66226 0.27962 0.0
C262 C 0.15877 0.64113 0.25783 0.0
C263 C 0.14009 0.58872 0.19316 0.0
C264 C 0.14615 0.60573 0.21559 0.0
H265 H 0.13654 0.73146 0.30917 0.0
H266 H 0.12374 0.69551 0.2742 0.0
H267 H 0.2301 0.65305 0.25409 0.0
H268 H 0.16459 0.5193 0.16092 0.0
H269 H 0.17217 0.54521 0.19801 0.0
C270 C 0.42681 0.169 0.63553 0.0
C271 C 0.45874 0.20694 0.6483 0.0
C272 C 0.43979 0.1625 0.61502 0.0
C273 C 0.52849 0.22553 0.57173 0.0
H274 H 0.48162 0.09824 0.55013 0.0
C275 C 0.59805 0.18933 0.49307 0.0
C276 C 0.56418 0.15715 0.47876 0.0
C277 C 0.58516 0.1941 0.51387 0.0
C278 C 0.49468 0.13399 0.55588 0.0
H279 H 0.52962 0.26758 0.64955 0.0
H280 H 0.5529 0.25558 0.61396 0.0
H281 H 0.46018 0.10946 0.58621 0.0
H282 H 0.49016 0.10388 0.4755 0.0
H283 H 0.46782 0.11173 0.51202 0.0
H284 H 0.56356 0.2499 0.54146 0.0
C285 C 0.51731 0.23139 0.61959 0.0
C286 C 0.48232 0.14052 0.57657 0.0
C287 C 0.5041 0.23818 0.64008 0.0
C288 C 0.51726 0.12876 0.48608 0.0
C289 C 0.50442 0.13331 0.50701 0.0
C290 C 0.54117 0.21897 0.55114 0.0
C291 C 0.48528 0.19348 0.60675 0.0
C292 C 0.49898 0.18641 0.58478 0.0
C293 C 0.53814 0.16651 0.52104 0.0
C294 C 0.5244 0.17315 0.54296 0.0
H295 H 0.39135 0.14448 0.64124 0.0
H296 H 0.41374 0.13351 0.60554 0.0
H297 H 0.54127 0.26138 0.57724 0.0
H298 H 0.63476 0.21091 0.48823 0.0
H299 H 0.61216 0.21931 0.52441 0.0
C300 C 0.23738 0.43002 0.97057 0.0
C301 C 0.21031 0.44693 0.98095 0.0
C302 C 0.25282 0.44278 0.94951 0.0
C303 C 0.28215 0.53586 0.9097 0.0
H304 H 0.27879 0.44231 0.87029 0.0
C305 C 0.35041 0.58436 0.82247 0.0
C306 C 0.37537 0.56332 0.81379 0.0
C307 C 0.32665 0.56909 0.84211 0.0
C308 C 0.28053 0.46905 0.88113 0.0
H309 H 0.17883 0.49131 0.97715 0.0
H310 H 0.20656 0.51431 0.9402 0.0
H311 H 0.24307 0.41767 0.90569 0.0
H312 H 0.39507 0.50981 0.81906 0.0
H313 H 0.35437 0.48362 0.85345 0.0
H314 H 0.32076 0.58749 0.88541 0.0
C315 C 0.21539 0.49071 0.94851 0.0
C316 C 0.25981 0.45484 0.90141 0.0
C317 C 0.19936 0.4774 0.96965 0.0
C318 C 0.37571 0.52638 0.82517 0.0
C319 C 0.3522 0.5113 0.84489 0.0
C320 C 0.30319 0.55016 0.88944 0.0
C321 C 0.24227 0.47343 0.93821 0.0
C322 C 0.26082 0.48813 0.91604 0.0
C323 C 0.32741 0.53251 0.85368 0.0
C324 C 0.30314 0.51702 0.87494 0.0
H325 H 0.24762 0.40746 0.9788 0.0
H326 H 0.27419 0.42954 0.94225 0.0
H327 H 0.28408 0.56248 0.92067 0.0
H328 H 0.3488 0.6124 0.81395 0.0
H329 H 0.30729 0.58572 0.84812 0.0
C330 C 0.81039 0.26625 0.30443 0.0
C331 C 0.76735 0.2448 0.31589 0.0
C332 C 0.81275 0.28216 0.2835 0.0
C333 C 0.75287 0.32122 0.24626 0.0
H334 H 0.82286 0.29622 0.20275 0.0
C335 C 0.75028 0.36856 0.15771 0.0
C336 C 0.79232 0.38575 0.14569 0.0
C337 C 0.74679 0.35038 0.17827 0.0
C338 C 0.8037 0.30412 0.21474 0.0
H339 H 0.6929 0.22304 0.31429 0.0
H340 H 0.69708 0.25115 0.27772 0.0
H341 H 0.81752 0.26637 0.23894 0.0
H342 H 0.86384 0.39773 0.1459 0.0
H343 H 0.8582 0.36689 0.18195 0.0
H344 H 0.73975 0.35974 0.2223 0.0
C345 C 0.72906 0.25577 0.28501 0.0
C346 C 0.80052 0.28683 0.23548 0.0
C347 C 0.72661 0.23943 0.30591 0.0
C348 C 0.8308 0.38425 0.15469 0.0
C349 C 0.82746 0.36643 0.17534 0.0
C350 C 0.75637 0.33885 0.22557 0.0
C351 C 0.77218 0.27732 0.27358 0.0
C352 C 0.77504 0.29516 0.25147 0.0
C353 C 0.78539 0.34927 0.18743 0.0
C354 C 0.78179 0.33051 0.20951 0.0
H355 H 0.84233 0.27057 0.31155 0.0
H356 H 0.84658 0.29893 0.2752 0.0
H357 H 0.73358 0.32883 0.2583 0.0
H358 H 0.71976 0.36856 0.1511 0.0
H359 H 0.71352 0.33665 0.18687 0.0
C360 C 0.49194 0.71318 0.64042 0.0
C361 C 0.51664 0.75622 0.65151 0.0
C362 C 0.4755 0.7122 0.61976 0.0
C363 C 0.44257 0.77966 0.58368 0.0
H364 H 0.46018 0.70794 0.53866 0.0
C365 C 0.40509 0.79955 0.49585 0.0
C366 C 0.38421 0.75872 0.4831 0.0
C367 C 0.42106 0.79818 0.5163 0.0
C368 C 0.45437 0.72764 0.55111 0.0
H369 H 0.54355 0.83203 0.64952 0.0
H370 H 0.51502 0.8302 0.61363 0.0
H371 H 0.48777 0.70682 0.57462 0.0
H372 H 0.36335 0.68433 0.48183 0.0
H373 H 0.39056 0.68167 0.51767 0.0
H374 H 0.40876 0.80014 0.5604 0.0
C375 C 0.50804 0.79718 0.62093 0.0
C376 C 0.47027 0.72703 0.5717 0.0
C377 C 0.52468 0.79821 0.64147 0.0
C378 C 0.37984 0.71652 0.4912 0.0
C379 C 0.39552 0.71504 0.51173 0.0
C380 C 0.4264 0.78001 0.56317 0.0
C381 C 0.48311 0.75418 0.60987 0.0
C382 C 0.4649 0.75337 0.58816 0.0
C383 C 0.4162 0.75584 0.52458 0.0
C384 C 0.43244 0.75435 0.54655 0.0
H385 H 0.48518 0.68021 0.64768 0.0
H386 H 0.45612 0.67849 0.61167 0.0
H387 H 0.4372 0.79967 0.59613 0.0
H388 H 0.40956 0.83276 0.48993 0.0
H389 H 0.43767 0.83054 0.52554 0.0
C390 C 0.76627 0.50013 0.96818 0.0
C391 C 0.76567 0.53883 0.9778 0.0
C392 C 0.7484 0.48551 0.94761 0.0
C393 C 0.71601 0.52606 0.89841 0.0
H394 H 0.64374 0.39164 0.88616 0.0
C395 C 0.65489 0.45496 0.81299 0.0
C396 C 0.60972 0.41482 0.81069 0.0
C397 C 0.6743 0.47041 0.83324 0.0
C398 C 0.66349 0.42932 0.88934 0.0
H399 H 0.74576 0.59255 0.97321 0.0
H400 H 0.71418 0.56675 0.93765 0.0
H401 H 0.67655 0.41794 0.9216 0.0
H402 H 0.5497 0.35943 0.82808 0.0
H403 H 0.58294 0.38706 0.86334 0.0
H404 H 0.70186 0.53741 0.86633 0.0
C405 C 0.72913 0.54807 0.94579 0.0
C406 C 0.6829 0.44445 0.90961 0.0
C407 C 0.74707 0.56274 0.9663 0.0
C408 C 0.58433 0.39078 0.82921 0.0
C409 C 0.60371 0.40627 0.84946 0.0
C410 C 0.69653 0.51093 0.87815 0.0
C411 C 0.72938 0.50915 0.93618 0.0
C412 C 0.70937 0.49303 0.91444 0.0
C413 C 0.64904 0.44619 0.85175 0.0
C414 C 0.66993 0.46235 0.87334 0.0
H415 H 0.78044 0.48098 0.97653 0.0
H416 H 0.74984 0.45584 0.94062 0.0
H417 H 0.7366 0.56376 0.90144 0.0
H418 H 0.67529 0.47469 0.79913 0.0
H419 H 0.70947 0.50099 0.83435 0.0
C420 C 0.32749 0.46207 0.06117 0.0
C421 C 0.31144 0.48787 0.04953 0.0
C422 C 0.37573 0.47688 0.06142 0.0
C423 C 0.48277 0.53319 0.06799 0.0
H424 H 0.54798 0.56075 1.0132 0.0
C425 C 0.67876 0.58301 0.05929 0.0
C426 C 0.68326 0.55118 0.04571 0.0
C427 C 0.63693 0.58496 0.05945 0.0
C428 C 0.53031 0.55373 0.02861 0.0
H429 H 0.33248 0.549 0.02905 0.0
H430 H 0.41644 0.57461 0.02944 0.0
H431 H 0.46585 0.5425 1.01492 0.0
H432 H 0.64993 0.49895 0.02076 0.0
H433 H 0.5775 0.50295 0.02076 0.0
H434 H 0.54696 0.54279 0.08152 0.0
C435 C 0.39202 0.54308 0.03832 0.0
C436 C 0.48347 0.5434 0.02962 0.0
C437 C 0.34404 0.52847 0.03815 0.0
C438 C 0.64692 0.52344 0.0315 0.0
C439 C 0.60571 0.526 0.03139 0.0
C440 C 0.52984 0.54393 0.06699 0.0
C441 C 0.40831 0.51744 0.04992 0.0
C442 C 0.45898 0.532 0.04925 0.0
C443 C 0.5999 0.55591 0.04569 0.0
C444 C 0.55353 0.55313 0.04722 0.0
H445 H 0.30289 0.43065 0.07006 0.0
H446 H 0.38744 0.45617 0.07027 0.0
H447 H 0.46474 0.52506 0.08333 0.0
H448 H 0.70661 0.60478 0.07033 0.0
H449 H 0.63311 0.60838 0.07056 0.0
C450 C 0.09679 0.62803 0.41497 0.0
C451 C 0.10396 0.67179 0.40765 0.0
C452 C 0.05286 0.59394 0.4228 0.0
C453 C 0.93369 0.55038 0.40983 0.0
H454 H 0.91544 0.45573 0.45212 0.0
C455 C 0.78848 0.35781 0.39956 0.0
C456 C 0.8051 0.3257 0.40133 0.0
C457 C 0.81478 0.40364 0.40753 0.0
C458 C 0.91973 0.48194 0.44036 0.0
H459 H 0.07225 0.71595 0.40431 0.0
H460 H -0.00647 0.65453 0.41696 0.0
H461 H 0.98258 0.53617 0.45504 0.0
H462 H 0.86118 0.31535 0.41337 0.0
H463 H 0.90839 0.3962 0.42665 0.0
H464 H 0.87366 0.49558 0.39402 0.0
C465 C 0.02247 0.64725 0.41689 0.0
C466 C 0.95779 0.52801 0.44216 0.0
C467 C 0.06716 0.68207 0.40949 0.0
C468 C 0.84781 0.33962 0.41176 0.0
C469 C 0.87441 0.38569 0.41959 0.0
C470 C 0.89575 0.50432 0.40798 0.0
C471 C 0.01482 0.60251 0.42315 0.0
C472 C 0.96671 0.56169 0.42615 0.0
C473 C 0.8585 0.41842 0.41725 0.0
C474 C 0.89012 0.46899 0.42253 0.0
H475 H 0.12479 0.61941 0.41403 0.0
H476 H 0.04791 0.55958 0.42717 0.0
H477 H 0.93991 0.57556 0.39719 0.0
H478 H 0.75527 0.34773 0.39179 0.0
H479 H 0.80137 0.42782 0.40568 0.0
C480 C 0.48381 0.12601 0.73247 0.0
C481 C 0.44304 0.12991 0.73127 0.0
C482 C 0.48071 0.08408 0.73941 0.0
C483 C 0.40646 0.96085 0.73563 0.0
H484 H 0.49618 0.95643 0.77433 0.0
C485 C 0.44152 0.80581 0.73296 0.0
C486 C 0.48955 0.81905 0.73312 0.0
C487 C 0.42731 0.83793 0.73909 0.0
C488 C 0.47087 0.95703 0.76349 0.0
H489 H 0.36732 0.09401 0.73699 0.0
H490 H 0.36152 0.01896 0.74809 0.0
H491 H 0.48583 0.02564 0.77412 0.0
H492 H 0.56033 0.87523 0.74039 0.0
H493 H 0.53609 0.93249 0.74997 0.0
H494 H 0.39439 0.89464 0.72352 0.0
C495 C 0.39583 0.04892 0.74402 0.0
C496 C 0.46464 -0.00366 0.76356 0.0
C497 C 0.3991 0.09148 0.73752 0.0
C498 C 0.52312 0.86444 0.74 0.0
C499 C 0.50903 0.89691 0.74578 0.0
C500 C 0.41317 0.92187 0.73532 0.0
C501 C 0.43669 0.04502 0.74491 0.0
C502 C 0.4338 -0.00074 0.74903 0.0
C503 C 0.46099 0.88421 0.74511 0.0
C504 C 0.44695 0.92049 0.74861 0.0
H505 H 0.51817 0.15525 0.72787 0.0
H506 H 0.51256 0.08153 0.73962 0.0
H507 H 0.38285 0.96269 0.72413 0.0
H508 H 0.41485 0.77064 0.728 0.0
H509 H 0.39001 0.82673 0.73875 0.0
C510 C 0.6107 0.66902 0.69306 0.0
C511 C 0.6263 0.70216 0.70961 0.0
C512 C 0.5954 0.62169 0.69744 0.0
C513 C 0.52102 0.53821 0.73299 0.0
H514 H 0.55237 0.45327 0.70304 0.0
C515 C 0.39183 0.33461 0.7223 0.0
C516 C 0.3955 0.31731 0.70225 0.0
C517 C 0.4235 0.38177 0.72774 0.0
C518 C 0.54309 0.47654 0.7115 0.0
H519 H 0.64139 0.71338 0.7434 0.0
H520 H 0.61164 0.62914 0.75133 0.0
H521 H 0.61127 0.53727 0.70554 0.0
H522 H 0.43088 0.33565 0.67147 0.0
H523 H 0.48382 0.41834 0.68032 0.0
H524 H 0.45131 0.47849 0.73716 0.0
C525 C 0.61282 0.64029 0.73494 0.0
C526 C 0.57708 0.5243 0.71324 0.0
C527 C 0.62986 0.68821 0.73039 0.0
C528 C 0.42757 0.34846 0.68702 0.0
C529 C 0.45845 0.39546 0.69227 0.0
C530 C 0.4866 0.49046 0.73093 0.0
C531 C 0.59412 0.60669 0.71853 0.0
C532 C 0.56556 0.55575 0.72316 0.0
C533 C 0.45857 0.41193 0.71304 0.0
C534 C 0.49666 0.4598 0.71915 0.0
H535 H 0.60725 0.67917 0.677 0.0
H536 H 0.5806 0.59614 0.68461 0.0
H537 H 0.51147 0.56218 0.74058 0.0
H538 H 0.36754 0.31083 0.73434 0.0
H539 H 0.4225 0.39363 0.7438 0.0
C540 C 0.04182 0.35192 0.07132 0.0
C541 C 0.05372 0.34944 0.04993 0.0
C542 C 0.01183 0.36987 0.07626 0.0
C543 C 0.93318 0.40866 0.05234 0.0
H544 H 0.01161 0.5273 0.08181 0.0
C545 C 0.93056 0.57119 0.02636 0.0
C546 C 0.92458 0.59878 0.04185 0.0
C547 C 0.94326 0.53807 0.0323 0.0
C548 C -0.01123 0.49402 0.07392 0.0
H549 H 0.04082 0.35873 0.01702 0.0
H550 H 0.98714 0.38789 0.02544 0.0
H551 H 0.02787 0.46215 0.08531 0.0
H552 H 0.93092 0.61687 0.07541 0.0
H553 H 0.95332 0.55817 0.08598 0.0
H554 H 0.89503 0.44085 0.04024 0.0
C555 C 0.00084 0.37663 0.03847 0.0
C556 C -0.00205 0.45667 0.07597 0.0
C557 C 0.0316 0.36 0.03359 0.0
C558 C 0.93599 0.59622 0.06318 0.0
C559 C 0.94828 0.5624 0.06923 0.0
C560 C 0.92381 0.4457 0.05038 0.0
C561 C -0.00734 0.38416 0.05982 0.0
C562 C 0.97218 0.41489 0.06409 0.0
C563 C 0.94937 0.53133 0.05392 0.0
C564 C 0.95334 0.48968 0.06007 0.0
H565 H 0.05914 0.34447 0.08416 0.0
H566 H 0.00618 0.37552 0.09283 0.0
H567 H 0.91222 0.37649 0.04333 0.0
H568 H 0.92179 0.57264 1.00983 0.0
H569 H 0.9455 0.51569 0.02007 0.0
C570 C 0.34141 0.92337 0.37116 0.0
C571 C 0.3139 0.87951 0.36119 0.0
C572 C 0.39054 0.94297 0.37243 0.0
C573 C 0.48984 0.93259 0.34862 0.0
H574 H 0.55611 0.00239 0.39903 0.0
C575 C 0.6855 0.06711 0.34861 0.0
C576 C 0.71156 0.07695 0.36739 0.0
C577 C 0.63814 0.03213 0.34839 0.0
C578 C 0.53797 0.98205 0.38506 0.0
H579 H 0.31566 0.82247 0.3441 0.0
H580 H 0.40012 0.85539 0.34689 0.0
H581 H 0.47035 0.96642 0.3975 0.0
H582 H 0.71042 0.05652 0.40034 0.0
H583 H 0.62675 -0.00582 0.4 0.0
H584 H 0.55715 0.94751 0.33631 0.0
C585 C 0.38472 0.87548 0.3534 0.0
C586 C 0.48893 0.9623 0.38398 0.0
C587 C 0.33613 0.85643 0.35189 0.0
C588 C 0.69094 0.04872 0.38557 0.0
C589 C 0.64303 0.0137 0.38544 0.0
C590 C 0.53861 0.95173 0.34982 0.0
C591 C 0.41261 0.91878 0.36383 0.0
C592 C 0.46443 0.93824 0.36554 0.0
C593 C 0.61576 0.00652 0.36706 0.0
C594 C 0.56343 0.97788 0.36776 0.0
H595 H 0.32492 0.94169 0.3785 0.0
H596 H 0.41113 0.97687 0.38023 0.0
H597 H 0.47238 0.91467 0.33407 0.0
H598 H 0.70081 0.08905 0.33452 0.0
H599 H 0.61826 0.02811 0.33405 0.0
C600 C 0.32956 0.18819 0.7863 0.0
C601 C 0.35953 0.22791 0.77374 0.0
C602 C 0.3172 0.19376 0.80717 0.0
C603 C 0.35307 0.28455 0.8507 0.0
H604 H 0.2317 0.19292 0.87524 0.0
C605 C 0.278 0.31488 0.92987 0.0
C606 C 0.26184 0.27807 0.94502 0.0
C607 C 0.28995 0.30847 0.90908 0.0
C608 C 0.26583 0.21864 0.86861 0.0
H609 H 0.39848 0.30468 0.77294 0.0
H610 H 0.37547 0.31457 0.80871 0.0
H611 H 0.25129 0.18268 0.83866 0.0
H612 H 0.24481 0.2055 0.95015 0.0
H613 H 0.26469 0.19391 0.91359 0.0
H614 H 0.36654 0.32128 0.88055 0.0
C615 C 0.36288 0.27892 0.80298 0.0
C616 C 0.2773 0.2127 0.84764 0.0
C617 C 0.37591 0.2733 0.78231 0.0
C618 C 0.25748 0.23457 0.93886 0.0
C619 C 0.26853 0.22784 0.91793 0.0
C620 C 0.34118 0.29092 0.8715 0.0
C621 C 0.33377 0.23927 0.8159 0.0
C622 C 0.3212 0.24552 0.83832 0.0
C623 C 0.28511 0.2648 0.90285 0.0
C624 C 0.29752 0.25798 0.88071 0.0
H625 H 0.31662 0.15273 0.78019 0.0
H626 H 0.2954 0.16223 0.81657 0.0
H627 H 0.38767 0.31009 0.84448 0.0
H628 H 0.28188 0.34885 0.93418 0.0
H629 H 0.30239 0.33749 0.89777 0.0
C630 C 0.02318 0.34387 0.27653 0.0
C631 C 0.00263 0.29809 0.28542 0.0
C632 C 0.04374 0.35333 0.25608 0.0
C633 C 0.09184 0.30691 0.21433 0.0
H634 H 0.07136 0.38977 0.17718 0.0
C635 C 0.14308 0.33307 0.12367 0.0
C636 C 0.15869 0.37825 0.11493 0.0
C637 C 0.12682 0.32308 0.14494 0.0
C638 C 0.07807 0.36705 0.1874 0.0
H639 H -0.01246 0.22628 0.27946 0.0
H640 H 0.02335 0.24278 0.24386 0.0
H641 H 0.03742 0.37289 0.213 0.0
H642 H 0.17297 0.44923 0.12202 0.0
H643 H 0.14559 0.43228 0.15893 0.0
H644 H 0.13243 0.30103 0.18857 0.0
C645 C 0.0242 0.2716 0.25285 0.0
C646 C 0.0585 0.35733 0.20801 0.0
C647 C 0.00362 0.26213 0.27331 0.0
C648 C 0.16012 0.41378 0.12816 0.0
C649 C 0.14421 0.40396 0.14933 0.0
C650 C 0.1115 0.31668 0.19365 0.0
C651 C 0.04434 0.31729 0.24389 0.0
C652 C 0.06521 0.32728 0.22183 0.0
C653 C 0.12611 0.35817 0.15789 0.0
C654 C 0.10509 0.3471 0.17993 0.0
H655 H 0.02387 0.37267 0.28547 0.0
H656 H 0.05963 0.38915 0.24991 0.0
H657 H 0.09822 0.28401 0.22457 0.0
H658 H 0.1413 0.30489 0.11382 0.0
H659 H 0.11302 0.28736 0.15093 0.0
C660 C 0.66716 0.97877 0.59892 0.0
C661 C 0.70295 -0.00654 0.61424 0.0
C662 C 0.67678 0.00037 0.57877 0.0
C663 C 0.7735 0.07009 0.54014 0.0
H664 H 0.68259 0.09957 0.51575 0.0
C665 C 0.80538 0.16843 0.45843 0.0
C666 C 0.76578 0.15294 0.44522 0.0
C667 C 0.80009 0.15129 0.47946 0.0
C668 C 0.70818 0.09111 0.52215 0.0
H669 H 0.77724 0.04207 0.62016 0.0
H670 H 0.79401 0.07983 0.58496 0.0
H671 H 0.66864 0.06491 0.55131 0.0
H672 H 0.68961 0.10634 0.44379 0.0
H673 H 0.68073 0.07625 0.47983 0.0
H674 H 0.81265 0.09557 0.51077 0.0
C675 C 0.75846 0.05152 0.58857 0.0
C676 C 0.70015 0.07126 0.54262 0.0
C677 C 0.74873 0.03018 0.60882 0.0
C678 C 0.721 0.11957 0.45346 0.0
C679 C 0.71579 0.10243 0.47431 0.0
C680 C 0.78141 0.08972 0.51954 0.0
C681 C 0.72254 0.03704 0.57332 0.0
C682 C 0.73241 0.06001 0.55181 0.0
C683 C 0.75509 0.11825 0.48773 0.0
C684 C 0.74853 0.09997 0.51015 0.0
H685 H 0.63144 0.95088 0.60258 0.0
H686 H 0.64836 0.98796 0.56735 0.0
H687 H 0.79893 0.06156 0.54667 0.0
H688 H 0.84035 0.19414 0.45263 0.0
H689 H 0.83117 0.16458 0.48934 0.0
C690 C 0.64689 0.8189 0.79055 0.0
C691 C 0.61753 0.7767 0.77954 0.0
C692 C 0.66253 0.81745 0.81119 0.0
C693 C 0.63562 0.73519 0.85732 0.0
H694 H 0.76472 0.82324 0.87373 0.0
C695 C 0.72285 0.70177 0.92958 0.0
C696 C 0.7492 0.73998 0.94342 0.0
C697 C 0.70649 0.70886 0.91017 0.0
C698 C 0.72842 0.79871 0.86944 0.0
H699 H 0.58222 0.69986 0.78158 0.0
H700 H 0.60998 0.69749 0.81691 0.0
H701 H 0.73656 0.83146 0.83885 0.0
H702 H 0.77872 0.81577 0.94748 0.0
H703 H 0.75097 0.82812 0.91335 0.0
H704 H 0.62788 0.70172 0.88764 0.0
C705 C 0.62011 0.73177 0.81002 0.0
C706 C 0.7122 0.8035 0.84948 0.0
C707 C 0.60439 0.73319 0.78958 0.0
C708 C 0.75915 0.78558 0.93715 0.0
C709 C 0.74315 0.79271 0.91761 0.0
C710 C 0.65194 0.73019 0.87713 0.0
C711 C 0.64921 0.77377 0.82119 0.0
C712 C 0.66576 0.77133 0.84303 0.0
C713 C 0.7164 0.75437 0.90396 0.0
C714 C 0.69867 0.76149 0.88332 0.0
H715 H 0.65766 0.85299 0.78329 0.0
H716 H 0.68461 0.85052 0.81937 0.0
H717 H 0.5993 0.71046 0.85317 0.0
H718 H 0.71536 0.66634 0.93356 0.0
H719 H 0.68663 0.67871 0.89984 0.0
C720 C 0.97357 0.69348 0.2708 0.0
C721 C 0.00437 0.74166 0.27545 0.0
C722 C 0.95376 0.67945 0.25053 0.0
C723 C 0.92235 0.7212 0.20237 0.0
H724 H 0.92839 0.61832 0.17421 0.0
C725 C 0.87033 0.67455 0.11382 0.0
C726 C 0.84978 0.62696 0.10747 0.0
C727 C 0.88779 0.68824 0.1345 0.0
C728 C 0.92554 0.64655 0.18192 0.0
H729 H 0.03813 0.81272 0.26202 0.0
H730 H 0.00231 0.78817 0.22694 0.0
H731 H 0.96064 0.64244 0.20988 0.0
H732 H 0.83041 0.5562 0.11815 0.0
H733 H 0.85906 0.57959 0.15433 0.0
H734 H 0.88636 0.72484 0.17473 0.0
C735 C -0.00636 0.76137 0.23909 0.0
C736 C 0.94431 0.66051 0.20237 0.0
C737 C 0.014 0.77541 0.25929 0.0
C738 C 0.84624 0.59322 0.12244 0.0
C739 C 0.86312 0.60679 0.1432 0.0
C740 C 0.90298 0.70685 0.18202 0.0
C741 C 0.96362 0.7132 0.23444 0.0
C742 C 0.9431 0.6981 0.21279 0.0
C743 C 0.88466 0.6546 0.1495 0.0
C744 C 0.90445 0.66941 0.17143 0.0
H745 H 0.96435 0.66642 0.28286 0.0
H746 H 0.93023 0.64211 0.24751 0.0
H747 H 0.92043 0.74996 0.21011 0.0
H748 H 0.87408 0.70157 0.10264 0.0
H749 H 0.90478 0.72547 0.13851 0.0
C750 C 0.30981 0.02515 0.59478 0.0
C751 C 0.27009 0.02156 0.60561 0.0
C752 C 0.30576 0.00696 0.57413 0.0
C753 C 0.23077 0.97226 0.52618 0.0
H754 H 0.28964 0.89741 0.5126 0.0
C755 C 0.18955 0.86387 0.44807 0.0
C756 C 0.2257 0.85879 0.43829 0.0
C757 C 0.1964 0.88564 0.46805 0.0
C758 C 0.27356 0.91885 0.51593 0.0
H759 H 0.19475 -0.00468 0.60296 0.0
H760 H 0.18801 0.96448 0.56691 0.0
H761 H 0.29938 0.93211 0.54799 0.0
H762 H 0.29811 0.8743 0.44158 0.0
H763 H 0.31043 0.91305 0.4761 0.0
H764 H 0.20538 0.95965 0.49412 0.0
C765 C 0.22238 0.98174 0.57439 0.0
C766 C 0.27907 0.93866 0.5363 0.0
C767 C 0.22632 -0.00044 0.59509 0.0
C768 C 0.26923 0.87695 0.44877 0.0
C769 C 0.27622 0.89906 0.46867 0.0
C770 C 0.22559 0.95284 0.50574 0.0
C771 C 0.26199 0.98506 0.56366 0.0
C772 C 0.25744 0.9653 0.54174 0.0
C773 C 0.23977 0.90337 0.47872 0.0
C774 C 0.2466 0.9255 0.50034 0.0
H775 H 0.3443 0.04259 0.60213 0.0
H776 H 0.33712 0.01068 0.56623 0.0
H777 H 0.21421 -0.0068 0.52973 0.0
H778 H 0.15546 0.85006 0.44054 0.0
H779 H 0.16716 0.88752 0.47533 0.0
loop_
_geom_bond_atom_site_label_1
_geom_bond_atom_site_label_2
_geom_bond_distance
_geom_bond_site_symmetry_2
_ccdc_geom_bond_type
Ho0 C3 2.811 . S
Ho0 O20 2.322 . S
Ho0 O22 2.378 . S
Ho0 O23 2.524 . S
Ho0 O24 2.381 . S
Ho0 O25 2.669 . S
Ho0 O27 2.346 . S
Ho0 O31 2.305 . S
Ho1 C12 2.811 1_554 S
Ho1 O21 2.346 . S
Ho1 O25 2.305 . S
Ho1 O26 2.322 1_554 S
Ho1 O28 2.378 1_554 S
Ho1 O29 2.524 1_554 S
Ho1 O30 2.381 . S
Ho1 O31 2.669 . S
C2 O20 1.259 . S
C2 O21 1.268 . S
C3 Ho0 2.811 . S
C3 C4 1.488 . S
C3 O22 1.215 . S
C3 O23 1.289 . S
C4 C3 1.488 . S
C4 C5 1.348 . S
C4 C9 1.413 . S
C5 C4 1.348 . S
C5 C6 1.442 . S
C5 H32 0.930 . S
C6 C5 1.442 . S
C6 C7 1.381 . S
C6 H33 0.931 . S
C7 C6 1.381 . S
C7 C8 1.321 . S
C8 C7 1.321 . S
C8 C9 1.403 . S
C8 H34 0.934 . S
C9 C4 1.413 . S
C9 C8 1.403 . S
C9 H35 0.930 . S
C10 O24 1.275 . S
C10 O25 1.256 . S
C11 O26 1.259 . S
C11 O27 1.268 1_556 S
C12 Ho1 2.811 1_556 S
C12 C13 1.488 . S
C12 O28 1.215 . S
C12 O29 1.289 . S
C13 C12 1.488 . S
C13 C14 1.348 . S
C13 C18 1.413 . S
C14 C13 1.348 . S
C14 C15 1.442 . S
C14 H36 0.930 . S
C15 C14 1.442 . S
C15 C16 1.381 . S
C15 H37 0.931 . S
C16 C15 1.381 . S
C16 C17 1.321 . S
C17 C16 1.321 . S
C17 C18 1.403 . S
C17 H38 0.934 . S
C18 C13 1.413 . S
C18 C17 1.403 . S
C18 H39 0.930 . S
C19 O30 1.275 . S
C19 O31 1.256 . S
O20 Ho0 2.322 . S
O20 C2 1.259 . S
O21 Ho1 2.346 . S
O21 C2 1.268 . S
O22 Ho0 2.378 . S
O22 C3 1.215 . S
O23 Ho0 2.524 . S
O23 C3 1.289 . S
O24 Ho0 2.381 . S
O24 C10 1.275 . S
O25 Ho0 2.669 . S
O25 Ho1 2.305 . S
O25 C10 1.256 . S
O26 Ho1 2.322 1_556 S
O26 C11 1.259 . S
O27 Ho0 2.346 . S
O27 C11 1.268 1_554 S
O28 Ho1 2.378 1_556 S
O28 C12 1.215 . S
O29 Ho1 2.524 1_556 S
O29 C12 1.289 . S
O30 Ho1 2.381 . S
O30 C19 1.275 . S
O31 Ho0 2.305 . S
O31 Ho1 2.669 . S
O31 C19 1.256 . S
H32 C5 0.930 . S
H33 C6 0.931 . S
H34 C8 0.934 . S
H35 C9 0.930 . S
H36 C14 0.930 . S
H37 C15 0.931 . S
H38 C17 0.934 . S
H39 C18 0.930 . S
Ho40 C43 2.811 . S
Ho40 O60 2.322 . S
Ho40 O62 2.378 . S
Ho40 O63 2.524 . S
Ho40 O64 2.381 . S
Ho40 O65 2.669 . S
Ho40 O67 2.346 . S
Ho40 O71 2.305 . S
Ho41 C52 2.811 . S
Ho41 O61 2.346 . S
Ho41 O65 2.305 . S
Ho41 O66 2.322 . S
Ho41 O68 2.378 . S
Ho41 O69 2.524 . S
Ho41 O70 2.381 . S
Ho41 O71 2.669 . S
C42 O60 1.259 . S
C42 O61 1.268 . S
C43 Ho40 2.811 . S
C43 C44 1.488 . S
C43 O62 1.215 . S
C43 O63 1.289 . S
C44 C43 1.488 . S
C44 C45 1.348 . S
C44 C49 1.413 . S
C45 C44 1.348 . S
C45 C46 1.442 . S
C45 H72 0.930 . S
C46 C45 1.442 . S
C46 C47 1.381 . S
C46 H73 0.931 . S
C47 C46 1.381 . S
C47 C48 1.321 . S
C48 C47 1.321 . S
C48 C49 1.403 . S
C48 H74 0.934 . S
C49 C44 1.413 . S
C49 C48 1.403 . S
C49 H75 0.930 . S
C50 O64 1.275 . S
C50 O65 1.256 . S
C51 O66 1.259 . S
C51 O67 1.268 . S
C52 Ho41 2.811 . S
C52 C53 1.488 . S
C52 O68 1.215 . S
C52 O69 1.289 . S
C53 C52 1.488 . S
C53 C54 1.348 . S
C53 C58 1.413 . S
C54 C53 1.348 . S
C54 C55 1.442 . S
C54 H76 0.930 . S
C55 C54 1.442 . S
C55 C56 1.381 . S
C55 H77 0.931 . S
C56 C55 1.381 . S
C56 C57 1.321 . S
C57 C56 1.321 . S
C57 C58 1.403 . S
C57 H78 0.934 . S
C58 C53 1.413 . S
C58 C57 1.403 . S
C58 H79 0.930 . S
C59 O70 1.275 . S
C59 O71 1.256 . S
O60 Ho40 2.322 . S
O60 C42 1.259 . S
O61 Ho41 2.346 . S
O61 C42 1.268 . S
O62 Ho40 2.378 . S
O62 C43 1.215 . S
O63 Ho40 2.524 . S
O63 C43 1.289 . S
O64 Ho40 2.381 . S
O64 C50 1.275 . S
O65 Ho40 2.669 . S
O65 Ho41 2.305 . S
O65 C50 1.256 . S
O66 Ho41 2.322 . S
O66 C51 1.259 . S
O67 Ho40 2.346 . S
O67 C51 1.268 . S
O68 Ho41 2.378 . S
O68 C52 1.215 . S
O69 Ho41 2.524 . S
O69 C52 1.289 . S
O70 Ho41 2.381 . S
O70 C59 1.275 . S
O71 Ho40 2.305 . S
O71 Ho41 2.669 . S
O71 C59 1.256 . S
H72 C45 0.930 . S
H73 C46 0.931 . S
H74 C48 0.934 . S
H75 C49 0.930 . S
H76 C54 0.930 . S
H77 C55 0.931 . S
H78 C57 0.934 . S
H79 C58 0.930 . S
Ho80 C83 2.811 . S
Ho80 O100 2.322 . S
Ho80 O102 2.378 . S
Ho80 O103 2.524 . S
Ho80 O104 2.381 . S
Ho80 O105 2.669 . S
Ho80 O107 2.346 . S
Ho80 O111 2.305 . S
Ho81 C92 2.811 . S
Ho81 O101 2.346 . S
Ho81 O105 2.305 . S
Ho81 O106 2.322 . S
Ho81 O108 2.378 . S
Ho81 O109 2.524 . S
Ho81 O110 2.381 . S
Ho81 O111 2.669 . S
C82 O100 1.259 . S
C82 O101 1.268 . S
C83 Ho80 2.811 . S
C83 C84 1.488 . S
C83 O102 1.215 . S
C83 O103 1.289 . S
C84 C83 1.488 . S
C84 C85 1.348 . S
C84 C89 1.413 . S
C85 C84 1.348 . S
C85 C86 1.442 . S
C85 H112 0.930 . S
C86 C85 1.442 . S
C86 C87 1.381 . S
C86 H113 0.931 . S
C87 C86 1.381 . S
C87 C88 1.321 . S
C88 C87 1.321 . S
C88 C89 1.403 . S
C88 H114 0.934 . S
C89 C84 1.413 . S
C89 C88 1.403 . S
C89 H115 0.930 . S
C90 O104 1.275 . S
C90 O105 1.256 . S
C91 O106 1.259 . S
C91 O107 1.268 . S
C92 Ho81 2.811 . S
C92 C93 1.488 . S
C92 O108 1.215 . S
C92 O109 1.289 . S
C93 C92 1.488 . S
C93 C94 1.348 . S
C93 C98 1.413 . S
C94 C93 1.348 . S
C94 C95 1.442 . S
C94 H116 0.930 . S
C95 C94 1.442 . S
C95 C96 1.381 . S
C95 H117 0.931 . S
C96 C95 1.381 . S
C96 C97 1.321 . S
C97 C96 1.321 . S
C97 C98 1.403 . S
C97 H118 0.934 . S
C98 C93 1.413 . S
C98 C97 1.403 . S
C98 H119 0.930 . S
C99 O110 1.275 . S
C99 O111 1.256 . S
O100 Ho80 2.322 . S
O100 C82 1.259 . S
O101 Ho81 2.346 . S
O101 C82 1.268 . S
O102 Ho80 2.378 . S
O102 C83 1.215 . S
O103 Ho80 2.524 . S
O103 C83 1.289 . S
O104 Ho80 2.381 . S
O104 C90 1.275 . S
O105 Ho80 2.669 . S
O105 Ho81 2.305 . S
O105 C90 1.256 . S
O106 Ho81 2.322 . S
O106 C91 1.259 . S
O107 Ho80 2.346 . S
O107 C91 1.268 . S
O108 Ho81 2.378 . S
O108 C92 1.215 . S
O109 Ho81 2.524 . S
O109 C92 1.289 . S
O110 Ho81 2.381 . S
O110 C99 1.275 . S
O111 Ho80 2.305 . S
O111 Ho81 2.669 . S
O111 C99 1.256 . S
H112 C85 0.930 . S
H113 C86 0.931 . S
H114 C88 0.934 . S
H115 C89 0.930 . S
H116 C94 0.930 . S
H117 C95 0.931 . S
H118 C97 0.934 . S
H119 C98 0.930 . S
Ho120 C123 2.811 . S
Ho120 O140 2.322 . S
Ho120 O142 2.378 . S
Ho120 O143 2.524 . S
Ho120 O144 2.381 . S
Ho120 O145 2.669 . S
Ho120 O147 2.346 . S
Ho120 O151 2.305 . S
Ho121 C132 2.811 1_554 S
Ho121 O141 2.346 . S
Ho121 O145 2.305 . S
Ho121 O146 2.322 1_554 S
Ho121 O148 2.378 1_554 S
Ho121 O149 2.524 1_554 S
Ho121 O150 2.381 . S
Ho121 O151 2.669 . S
C122 O140 1.259 . S
C122 O141 1.268 . S
C123 Ho120 2.811 . S
C123 C124 1.488 . S
C123 O142 1.215 . S
C123 O143 1.289 . S
C124 C123 1.488 . S
C124 C125 1.348 . S
C124 C129 1.413 . S
C125 C124 1.348 . S
C125 C126 1.442 . S
C125 H152 0.930 . S
C126 C125 1.442 . S
C126 C127 1.381 . S
C126 H153 0.931 . S
C127 C126 1.381 . S
C127 C128 1.321 . S
C128 C127 1.321 . S
C128 C129 1.403 . S
C128 H154 0.934 . S
C129 C124 1.413 . S
C129 C128 1.403 . S
C129 H155 0.930 . S
C130 O144 1.275 . S
C130 O145 1.256 . S
C131 O146 1.259 . S
C131 O147 1.268 1_556 S
C132 Ho121 2.811 1_556 S
C132 C133 1.488 . S
C132 O148 1.215 . S
C132 O149 1.289 . S
C133 C132 1.488 . S
C133 C134 1.348 . S
C133 C138 1.413 . S
C134 C133 1.348 . S
C134 C135 1.442 . S
C134 H156 0.930 . S
C135 C134 1.442 . S
C135 C136 1.381 . S
C135 H157 0.931 . S
C136 C135 1.381 . S
C136 C137 1.321 . S
C137 C136 1.321 . S
C137 C138 1.403 . S
C137 H158 0.934 . S
C138 C133 1.413 . S
C138 C137 1.403 . S
C138 H159 0.930 . S
C139 O150 1.275 . S
C139 O151 1.256 . S
O140 Ho120 2.322 . S
O140 C122 1.259 . S
O141 Ho121 2.346 . S
O141 C122 1.268 . S
O142 Ho120 2.378 . S
O142 C123 1.215 . S
O143 Ho120 2.524 . S
O143 C123 1.289 . S
O144 Ho120 2.381 . S
O144 C130 1.275 . S
O145 Ho120 2.669 . S
O145 Ho121 2.305 . S
O145 C130 1.256 . S
O146 Ho121 2.322 1_556 S
O146 C131 1.259 . S
O147 Ho120 2.346 . S
O147 C131 1.268 1_554 S
O148 Ho121 2.378 1_556 S
O148 C132 1.215 . S
O149 Ho121 2.524 1_556 S
O149 C132 1.289 . S
O150 Ho121 2.381 . S
O150 C139 1.275 . S
O151 Ho120 2.305 . S
O151 Ho121 2.669 . S
O151 C139 1.256 . S
H152 C125 0.930 . S
H153 C126 0.931 . S
H154 C128 0.934 . S
H155 C129 0.930 . S
H156 C134 0.930 . S
H157 C135 0.931 . S
H158 C137 0.934 . S
H159 C138 0.930 . S
Ho160 C163 2.811 . S
Ho160 O180 2.322 . S
Ho160 O182 2.378 . S
Ho160 O183 2.524 . S
Ho160 O184 2.381 . S
Ho160 O185 2.669 . S
Ho160 O187 2.346 . S
Ho160 O191 2.305 . S
Ho161 C172 2.811 . S
Ho161 O181 2.346 . S
Ho161 O185 2.305 . S
Ho161 O186 2.322 . S
Ho161 O188 2.378 . S
Ho161 O189 2.524 . S
Ho161 O190 2.381 . S
Ho161 O191 2.669 . S
C162 O180 1.259 . S
C162 O181 1.268 . S
C163 Ho160 2.811 . S
C163 C164 1.488 . S
C163 O182 1.215 . S
C163 O183 1.289 . S
C164 C163 1.488 . S
C164 C165 1.348 . S
C164 C169 1.413 . S
C165 C164 1.348 . S
C165 C166 1.442 . S
C165 H192 0.930 . S
C166 C165 1.442 . S
C166 C167 1.381 . S
C166 H193 0.931 . S
C167 C166 1.381 . S
C167 C168 1.321 . S
C168 C167 1.321 . S
C168 C169 1.403 . S
C168 H194 0.934 . S
C169 C164 1.413 . S
C169 C168 1.403 . S
C169 H195 0.930 . S
C170 O184 1.275 . S
C170 O185 1.256 . S
C171 O186 1.259 . S
C171 O187 1.268 . S
C172 Ho161 2.811 . S
C172 C173 1.488 . S
C172 O188 1.215 . S
C172 O189 1.289 . S
C173 C172 1.488 . S
C173 C174 1.348 . S
C173 C178 1.413 . S
C174 C173 1.348 . S
C174 C175 1.442 . S
C174 H196 0.930 . S
C175 C174 1.442 . S
C175 C176 1.381 . S
C175 H197 0.931 . S
C176 C175 1.381 . S
C176 C177 1.321 . S
C177 C176 1.321 . S
C177 C178 1.403 . S
C177 H198 0.934 . S
C178 C173 1.413 . S
C178 C177 1.403 . S
C178 H199 0.930 . S
C179 O190 1.275 . S
C179 O191 1.256 . S
O180 Ho160 2.322 . S
O180 C162 1.259 . S
O181 Ho161 2.346 . S
O181 C162 1.268 . S
O182 Ho160 2.378 . S
O182 C163 1.215 . S
O183 Ho160 2.524 . S
O183 C163 1.289 . S
O184 Ho160 2.381 . S
O184 C170 1.275 . S
O185 Ho160 2.669 . S
O185 Ho161 2.305 . S
O185 C170 1.256 . S
O186 Ho161 2.322 . S
O186 C171 1.259 . S
O187 Ho160 2.346 . S
O187 C171 1.268 . S
O188 Ho161 2.378 . S
O188 C172 1.215 . S
O189 Ho161 2.524 . S
O189 C172 1.289 . S
O190 Ho161 2.381 . S
O190 C179 1.275 . S
O191 Ho160 2.305 . S
O191 Ho161 2.669 . S
O191 C179 1.256 . S
H192 C165 0.930 . S
H193 C166 0.931 . S
H194 C168 0.934 . S
H195 C169 0.930 . S
H196 C174 0.930 . S
H197 C175 0.931 . S
H198 C177 0.934 . S
H199 C178 0.930 . S
Ho200 C203 2.811 . S
Ho200 O220 2.322 . S
Ho200 O222 2.378 . S
Ho200 O223 2.524 . S
Ho200 O224 2.381 . S
Ho200 O225 2.669 . S
Ho200 O227 2.346 . S
Ho200 O231 2.305 . S
Ho201 C212 2.811 . S
Ho201 O221 2.346 . S
Ho201 O225 2.305 . S
Ho201 O226 2.322 . S
Ho201 O228 2.378 . S
Ho201 O229 2.524 . S
Ho201 O230 2.381 . S
Ho201 O231 2.669 . S
C202 O220 1.259 . S
C202 O221 1.268 . S
C203 Ho200 2.811 . S
C203 C204 1.488 . S
C203 O222 1.215 . S
C203 O223 1.289 . S
C204 C203 1.488 . S
C204 C205 1.348 . S
C204 C209 1.413 . S
C205 C204 1.348 . S
C205 C206 1.442 . S
C205 H232 0.930 . S
C206 C205 1.442 . S
C206 C207 1.381 . S
C206 H233 0.931 . S
C207 C206 1.381 . S
C207 C208 1.321 . S
C208 C207 1.321 . S
C208 C209 1.403 . S
C208 H234 0.934 . S
C209 C204 1.413 . S
C209 C208 1.403 . S
C209 H235 0.930 . S
C210 O224 1.275 . S
C210 O225 1.256 . S
C211 O226 1.259 . S
C211 O227 1.268 . S
C212 Ho201 2.811 . S
C212 C213 1.488 . S
C212 O228 1.215 . S
C212 O229 1.289 . S
C213 C212 1.488 . S
C213 C214 1.348 . S
C213 C218 1.413 . S
C214 C213 1.348 . S
C214 C215 1.442 . S
C214 H236 0.930 . S
C215 C214 1.442 . S
C215 C216 1.381 . S
C215 H237 0.931 . S
C216 C215 1.381 . S
C216 C217 1.321 . S
C217 C216 1.321 . S
C217 C218 1.403 . S
C217 H238 0.934 . S
C218 C213 1.413 . S
C218 C217 1.403 . S
C218 H239 0.930 . S
C219 O230 1.275 . S
C219 O231 1.256 . S
O220 Ho200 2.322 . S
O220 C202 1.259 . S
O221 Ho201 2.346 . S
O221 C202 1.268 . S
O222 Ho200 2.378 . S
O222 C203 1.215 . S
O223 Ho200 2.524 . S
O223 C203 1.289 . S
O224 Ho200 2.381 . S
O224 C210 1.275 . S
O225 Ho200 2.669 . S
O225 Ho201 2.305 . S
O225 C210 1.256 . S
O226 Ho201 2.322 . S
O226 C211 1.259 . S
O227 Ho200 2.346 . S
O227 C211 1.268 . S
O228 Ho201 2.378 . S
O228 C212 1.215 . S
O229 Ho201 2.524 . S
O229 C212 1.289 . S
O230 Ho201 2.381 . S
O230 C219 1.275 . S
O231 Ho200 2.305 . S
O231 Ho201 2.669 . S
O231 C219 1.256 . S
H232 C205 0.930 . S
H233 C206 0.931 . S
H234 C208 0.934 . S
H235 C209 0.930 . S
H236 C214 0.930 . S
H237 C215 0.931 . S
H238 C217 0.934 . S
H239 C218 0.930 . S
C240 C241 1.349 . S
C240 C242 1.327 . S
C240 H265 0.950 . S
C241 C240 1.349 . S
C241 C257 1.349 . S
C242 C240 1.327 . S
C242 C261 1.429 . S
C242 H266 0.950 . S
C243 C260 1.574 . S
C243 C262 1.368 . S
C243 H267 0.949 . S
H244 C248 0.949 . S
C245 C246 1.349 . S
C245 C247 1.327 . S
C245 H268 0.950 . S
C246 C245 1.349 . S
C246 C258 1.349 . S
C247 C245 1.327 . S
C247 C263 1.429 . S
C247 H269 0.950 . S
C248 H244 0.949 . S
C248 C256 1.574 . S
C248 C264 1.368 . S
H249 C257 0.950 . S
H250 C255 0.950 . S
H251 C256 0.949 . S
H252 C258 0.950 . S
H253 C259 0.950 . S
H254 C260 0.949 . S
C255 H250 0.950 . S
C255 C257 1.327 . S
C255 C261 1.429 . S
C256 C248 1.574 . S
C256 H251 0.949 . S
C256 C262 1.368 . S
C257 C241 1.349 . S
C257 H249 0.950 . S
C257 C255 1.327 . S
C258 C246 1.349 . S
C258 H252 0.950 . S
C258 C259 1.327 . S
C259 H253 0.950 . S
C259 C258 1.327 . S
C259 C263 1.429 . S
C260 C243 1.574 . S
C260 H254 0.949 . S
C260 C264 1.368 . S
C261 C242 1.429 . S
C261 C255 1.429 . S
C261 C262 1.523 . S
C262 C243 1.368 . S
C262 C256 1.368 . S
C262 C261 1.523 . S
C263 C247 1.429 . S
C263 C259 1.429 . S
C263 C264 1.523 . S
C264 C248 1.368 . S
C264 C260 1.368 . S
C264 C263 1.523 . S
H265 C240 0.950 . S
H266 C242 0.950 . S
H267 C243 0.949 . S
H268 C245 0.950 . S
H269 C247 0.950 . S
C270 C271 1.349 . S
C270 C272 1.327 . S
C270 H295 0.950 . S
C271 C270 1.349 . S
C271 C287 1.349 . S
C272 C270 1.327 . S
C272 C291 1.429 . S
C272 H296 0.950 . S
C273 C290 1.574 . S
C273 C292 1.368 . S
C273 H297 0.949 . S
H274 C278 0.949 . S
C275 C276 1.349 . S
C275 C277 1.327 . S
C275 H298 0.950 . S
C276 C275 1.349 . S
C276 C288 1.349 . S
C277 C275 1.327 . S
C277 C293 1.429 . S
C277 H299 0.950 . S
C278 H274 0.949 . S
C278 C286 1.574 . S
C278 C294 1.368 . S
H279 C287 0.950 . S
H280 C285 0.950 . S
H281 C286 0.949 . S
H282 C288 0.950 . S
H283 C289 0.950 . S
H284 C290 0.949 . S
C285 H280 0.950 . S
C285 C287 1.327 . S
C285 C291 1.429 . S
C286 C278 1.574 . S
C286 H281 0.949 . S
C286 C292 1.368 . S
C287 C271 1.349 . S
C287 H279 0.950 . S
C287 C285 1.327 . S
C288 C276 1.349 . S
C288 H282 0.950 . S
C288 C289 1.327 . S
C289 H283 0.950 . S
C289 C288 1.327 . S
C289 C293 1.429 . S
C290 C273 1.574 . S
C290 H284 0.949 . S
C290 C294 1.368 . S
C291 C272 1.429 . S
C291 C285 1.429 . S
C291 C292 1.523 . S
C292 C273 1.368 . S
C292 C286 1.368 . S
C292 C291 1.523 . S
C293 C277 1.429 . S
C293 C289 1.429 . S
C293 C294 1.523 . S
C294 C278 1.368 . S
C294 C290 1.368 . S
C294 C293 1.523 . S
H295 C270 0.950 . S
H296 C272 0.950 . S
H297 C273 0.949 . S
H298 C275 0.950 . S
H299 C277 0.950 . S
C300 C301 1.349 . S
C300 C302 1.327 . S
C300 H325 0.950 . S
C301 C300 1.349 . S
C301 C317 1.349 . S
C302 C300 1.327 . S
C302 C321 1.429 . S
C302 H326 0.950 . S
C303 C320 1.574 . S
C303 C322 1.368 . S
C303 H327 0.949 . S
H304 C308 0.949 . S
C305 C306 1.349 . S
C305 C307 1.327 . S
C305 H328 0.950 . S
C306 C305 1.349 . S
C306 C318 1.349 . S
C307 C305 1.327 . S
C307 C323 1.429 . S
C307 H329 0.950 . S
C308 H304 0.949 . S
C308 C316 1.574 . S
C308 C324 1.368 . S
H309 C317 0.950 . S
H310 C315 0.950 . S
H311 C316 0.949 . S
H312 C318 0.950 . S
H313 C319 0.950 . S
H314 C320 0.949 . S
C315 H310 0.950 . S
C315 C317 1.327 . S
C315 C321 1.429 . S
C316 C308 1.574 . S
C316 H311 0.949 . S
C316 C322 1.368 . S
C317 C301 1.349 . S
C317 H309 0.950 . S
C317 C315 1.327 . S
C318 C306 1.349 . S
C318 H312 0.950 . S
C318 C319 1.327 . S
C319 H313 0.950 . S
C319 C318 1.327 . S
C319 C323 1.429 . S
C320 C303 1.574 . S
C320 H314 0.949 . S
C320 C324 1.368 . S
C321 C302 1.429 . S
C321 C315 1.429 . S
C321 C322 1.523 . S
C322 C303 1.368 . S
C322 C316 1.368 . S
C322 C321 1.523 . S
C323 C307 1.429 . S
C323 C319 1.429 . S
C323 C324 1.523 . S
C324 C308 1.368 . S
C324 C320 1.368 . S
C324 C323 1.523 . S
H325 C300 0.950 . S
H326 C302 0.950 . S
H327 C303 0.949 . S
H328 C305 0.950 . S
H329 C307 0.950 . S
C330 C331 1.349 . S
C330 C332 1.327 . S
C330 H355 0.950 . S
C331 C330 1.349 . S
C331 C347 1.349 . S
C332 C330 1.327 . S
C332 C351 1.429 . S
C332 H356 0.950 . S
C333 C350 1.574 . S
C333 C352 1.368 . S
C333 H357 0.949 . S
H334 C338 0.949 . S
C335 C336 1.349 . S
C335 C337 1.327 . S
C335 H358 0.950 . S
C336 C335 1.349 . S
C336 C348 1.349 . S
C337 C335 1.327 . S
C337 C353 1.429 . S
C337 H359 0.950 . S
C338 H334 0.949 . S
C338 C346 1.574 . S
C338 C354 1.368 . S
H339 C347 0.950 . S
H340 C345 0.950 . S
H341 C346 0.949 . S
H342 C348 0.950 . S
H343 C349 0.950 . S
H344 C350 0.949 . S
C345 H340 0.950 . S
C345 C347 1.327 . S
C345 C351 1.429 . S
C346 C338 1.574 . S
C346 H341 0.949 . S
C346 C352 1.368 . S
C347 C331 1.349 . S
C347 H339 0.950 . S
C347 C345 1.327 . S
C348 C336 1.349 . S
C348 H342 0.950 . S
C348 C349 1.327 . S
C349 H343 0.950 . S
C349 C348 1.327 . S
C349 C353 1.429 . S
C350 C333 1.574 . S
C350 H344 0.949 . S
C350 C354 1.368 . S
C351 C332 1.429 . S
C351 C345 1.429 . S
C351 C352 1.523 . S
C352 C333 1.368 . S
C352 C346 1.368 . S
C352 C351 1.523 . S
C353 C337 1.429 . S
C353 C349 1.429 . S
C353 C354 1.523 . S
C354 C338 1.368 . S
C354 C350 1.368 . S
C354 C353 1.523 . S
H355 C330 0.950 . S
H356 C332 0.950 . S
H357 C333 0.949 . S
H358 C335 0.950 . S
H359 C337 0.950 . S
C360 C361 1.349 . S
C360 C362 1.327 . S
C360 H385 0.950 . S
C361 C360 1.349 . S
C361 C377 1.349 . S
C362 C360 1.327 . S
C362 C381 1.429 . S
C362 H386 0.950 . S
C363 C380 1.574 . S
C363 C382 1.368 . S
C363 H387 0.949 . S
H364 C368 0.949 . S
C365 C366 1.349 . S
C365 C367 1.327 . S
C365 H388 0.950 . S
C366 C365 1.349 . S
C366 C378 1.349 . S
C367 C365 1.327 . S
C367 C383 1.429 . S
C367 H389 0.950 . S
C368 H364 0.949 . S
C368 C376 1.574 . S
C368 C384 1.368 . S
H369 C377 0.950 . S
H370 C375 0.950 . S
H371 C376 0.949 . S
H372 C378 0.950 . S
H373 C379 0.950 . S
H374 C380 0.949 . S
C375 H370 0.950 . S
C375 C377 1.327 . S
C375 C381 1.429 . S
C376 C368 1.574 . S
C376 H371 0.949 . S
C376 C382 1.368 . S
C377 C361 1.349 . S
C377 H369 0.950 . S
C377 C375 1.327 . S
C378 C366 1.349 . S
C378 H372 0.950 . S
C378 C379 1.327 . S
C379 H373 0.950 . S
C379 C378 1.327 . S
C379 C383 1.429 . S
C380 C363 1.574 . S
C380 H374 0.949 . S
C380 C384 1.368 . S
C381 C362 1.429 . S
C381 C375 1.429 . S
C381 C382 1.523 . S
C382 C363 1.368 . S
C382 C376 1.368 . S
C382 C381 1.523 . S
C383 C367 1.429 . S
C383 C379 1.429 . S
C383 C384 1.523 . S
C384 C368 1.368 . S
C384 C380 1.368 . S
C384 C383 1.523 . S
H385 C360 0.950 . S
H386 C362 0.950 . S
H387 C363 0.949 . S
H388 C365 0.950 . S
H389 C367 0.950 . S
C390 C391 1.349 . S
C390 C392 1.327 . S
C390 H415 0.950 . S
C391 C390 1.349 . S
C391 C407 1.349 . S
C392 C390 1.327 . S
C392 C411 1.429 . S
C392 H416 0.950 . S
C393 C410 1.574 . S
C393 C412 1.368 . S
C393 H417 0.949 . S
H394 C398 0.949 . S
C395 C396 1.349 . S
C395 C397 1.327 . S
C395 H418 0.950 . S
C396 C395 1.349 . S
C396 C408 1.349 . S
C397 C395 1.327 . S
C397 C413 1.429 . S
C397 H419 0.950 . S
C398 H394 0.949 . S
C398 C406 1.574 . S
C398 C414 1.368 . S
H399 C407 0.950 . S
H400 C405 0.950 . S
H401 C406 0.949 . S
H402 C408 0.950 . S
H403 C409 0.950 . S
H404 C410 0.949 . S
C405 H400 0.950 . S
C405 C407 1.327 . S
C405 C411 1.429 . S
C406 C398 1.574 . S
C406 H401 0.949 . S
C406 C412 1.368 . S
C407 C391 1.349 . S
C407 H399 0.950 . S
C407 C405 1.327 . S
C408 C396 1.349 . S
C408 H402 0.950 . S
C408 C409 1.327 . S
C409 H403 0.950 . S
C409 C408 1.327 . S
C409 C413 1.429 . S
C410 C393 1.574 . S
C410 H404 0.949 . S
C410 C414 1.368 . S
C411 C392 1.429 . S
C411 C405 1.429 . S
C411 C412 1.523 . S
C412 C393 1.368 . S
C412 C406 1.368 . S
C412 C411 1.523 . S
C413 C397 1.429 . S
C413 C409 1.429 . S
C413 C414 1.523 . S
C414 C398 1.368 . S
C414 C410 1.368 . S
C414 C413 1.523 . S
H415 C390 0.950 . S
H416 C392 0.950 . S
H417 C393 0.949 . S
H418 C395 0.950 . S
H419 C397 0.950 . S
C420 C421 1.349 . S
C420 C422 1.327 . S
C420 H445 0.950 . S
C421 C420 1.349 . S
C421 C437 1.349 . S
C422 C420 1.327 . S
C422 C441 1.429 . S
C422 H446 0.950 . S
C423 C440 1.574 . S
C423 C442 1.368 . S
C423 H447 0.949 . S
H424 C428 0.949 . S
C425 C426 1.349 . S
C425 C427 1.327 . S
C425 H448 0.950 . S
C426 C425 1.349 . S
C426 C438 1.349 . S
C427 C425 1.327 . S
C427 C443 1.429 . S
C427 H449 0.950 . S
C428 H424 0.949 . S
C428 C436 1.574 . S
C428 C444 1.368 . S
H429 C437 0.950 . S
H430 C435 0.950 . S
H431 C436 0.949 . S
H432 C438 0.950 . S
H433 C439 0.950 . S
H434 C440 0.949 . S
C435 H430 0.950 . S
C435 C437 1.327 . S
C435 C441 1.429 . S
C436 C428 1.574 . S
C436 H431 0.949 . S
C436 C442 1.368 . S
C437 C421 1.349 . S
C437 H429 0.950 . S
C437 C435 1.327 . S
C438 C426 1.349 . S
C438 H432 0.950 . S
C438 C439 1.327 . S
C439 H433 0.950 . S
C439 C438 1.327 . S
C439 C443 1.429 . S
C440 C423 1.574 . S
C440 H434 0.949 . S
C440 C444 1.368 . S
C441 C422 1.429 . S
C441 C435 1.429 . S
C441 C442 1.523 . S
C442 C423 1.368 . S
C442 C436 1.368 . S
C442 C441 1.523 . S
C443 C427 1.429 . S
C443 C439 1.429 . S
C443 C444 1.523 . S
C444 C428 1.368 . S
C444 C440 1.368 . S
C444 C443 1.523 . S
H445 C420 0.950 . S
H446 C422 0.950 . S
H447 C423 0.949 . S
H448 C425 0.950 . S
H449 C427 0.950 . S
C450 C451 1.349 . S
C450 C452 1.327 . S
C450 H475 0.950 . S
C451 C450 1.349 . S
C451 C467 1.349 . S
C452 C450 1.327 . S
C452 C471 1.429 . S
C452 H476 0.950 . S
C453 C470 1.574 . S
C453 C472 1.368 . S
C453 H477 0.949 . S
H454 C458 0.949 . S
C455 C456 1.349 . S
C455 C457 1.327 . S
C455 H478 0.950 . S
C456 C455 1.349 . S
C456 C468 1.349 . S
C457 C455 1.327 . S
C457 C473 1.429 . S
C457 H479 0.950 . S
C458 H454 0.949 . S
C458 C466 1.574 . S
C458 C474 1.368 . S
H459 C467 0.950 . S
H460 C465 0.950 . S
H461 C466 0.949 . S
H462 C468 0.950 . S
H463 C469 0.950 . S
H464 C470 0.949 . S
C465 H460 0.950 . S
C465 C467 1.327 . S
C465 C471 1.429 . S
C466 C458 1.574 . S
C466 H461 0.949 . S
C466 C472 1.368 1_655 S
C467 C451 1.349 . S
C467 H459 0.950 . S
C467 C465 1.327 . S
C468 C456 1.349 . S
C468 H462 0.950 . S
C468 C469 1.327 . S
C469 H463 0.950 . S
C469 C468 1.327 . S
C469 C473 1.429 . S
C470 C453 1.574 . S
C470 H464 0.949 . S
C470 C474 1.368 1_455 S
C471 C452 1.429 . S
C471 C465 1.429 . S
C471 C472 1.523 . S
C472 C453 1.368 . S
C472 C466 1.368 1_455 S
C472 C471 1.523 . S
C473 C457 1.429 . S
C473 C469 1.429 . S
C473 C474 1.523 . S
C474 C458 1.368 . S
C474 C470 1.368 1_655 S
C474 C473 1.523 . S
H475 C450 0.950 . S
H476 C452 0.950 . S
H477 C453 0.949 . S
H478 C455 0.950 . S
H479 C457 0.950 . S
C480 C481 1.349 . S
C480 C482 1.327 . S
C480 H505 0.950 . S
C481 C480 1.349 . S
C481 C497 1.349 . S
C482 C480 1.327 . S
C482 C501 1.429 . S
C482 H506 0.950 . S
C483 C500 1.574 . S
C483 C502 1.368 . S
C483 H507 0.949 . S
H484 C488 0.949 . S
C485 C486 1.349 . S
C485 C487 1.327 . S
C485 H508 0.950 . S
C486 C485 1.349 . S
C486 C498 1.349 . S
C487 C485 1.327 . S
C487 C503 1.429 . S
C487 H509 0.950 . S
C488 H484 0.949 . S
C488 C496 1.574 . S
C488 C504 1.368 . S
H489 C497 0.950 . S
H490 C495 0.950 . S
H491 C496 0.949 . S
H492 C498 0.950 . S
H493 C499 0.950 . S
H494 C500 0.949 . S
C495 H490 0.950 . S
C495 C497 1.327 . S
C495 C501 1.429 . S
C496 C488 1.574 . S
C496 H491 0.949 . S
C496 C502 1.368 1_565 S
C497 C481 1.349 . S
C497 H489 0.950 . S
C497 C495 1.327 . S
C498 C486 1.349 . S
C498 H492 0.950 . S
C498 C499 1.327 . S
C499 H493 0.950 . S
C499 C498 1.327 . S
C499 C503 1.429 . S
C500 C483 1.574 . S
C500 H494 0.949 . S
C500 C504 1.368 1_545 S
C501 C482 1.429 . S
C501 C495 1.429 . S
C501 C502 1.523 . S
C502 C483 1.368 . S
C502 C496 1.368 1_545 S
C502 C501 1.523 . S
C503 C487 1.429 . S
C503 C499 1.429 . S
C503 C504 1.523 . S
C504 C488 1.368 . S
C504 C500 1.368 1_565 S
C504 C503 1.523 . S
H505 C480 0.950 . S
H506 C482 0.950 . S
H507 C483 0.949 . S
H508 C485 0.950 . S
H509 C487 0.950 . S
C510 C511 1.349 . S
C510 C512 1.327 . S
C510 H535 0.950 . S
C511 C510 1.349 . S
C511 C527 1.349 . S
C512 C510 1.327 . S
C512 C531 1.429 . S
C512 H536 0.950 . S
C513 C530 1.574 . S
C513 C532 1.368 . S
C513 H537 0.949 . S
H514 C518 0.949 . S
C515 C516 1.349 . S
C515 C517 1.327 . S
C515 H538 0.950 . S
C516 C515 1.349 . S
C516 C528 1.349 . S
C517 C515 1.327 . S
C517 C533 1.429 . S
C517 H539 0.950 . S
C518 H514 0.949 . S
C518 C526 1.574 . S
C518 C534 1.368 . S
H519 C527 0.950 . S
H520 C525 0.950 . S
H521 C526 0.949 . S
H522 C528 0.950 . S
H523 C529 0.950 . S
H524 C530 0.949 . S
C525 H520 0.950 . S
C525 C527 1.327 . S
C525 C531 1.429 . S
C526 C518 1.574 . S
C526 H521 0.949 . S
C526 C532 1.368 . S
C527 C511 1.349 . S
C527 H519 0.950 . S
C527 C525 1.327 . S
C528 C516 1.349 . S
C528 H522 0.950 . S
C528 C529 1.327 . S
C529 H523 0.950 . S
C529 C528 1.327 . S
C529 C533 1.429 . S
C530 C513 1.574 . S
C530 H524 0.949 . S
C530 C534 1.368 . S
C531 C512 1.429 . S
C531 C525 1.429 . S
C531 C532 1.523 . S
C532 C513 1.368 . S
C532 C526 1.368 . S
C532 C531 1.523 . S
C533 C517 1.429 . S
C533 C529 1.429 . S
C533 C534 1.523 . S
C534 C518 1.368 . S
C534 C530 1.368 . S
C534 C533 1.523 . S
H535 C510 0.950 . S
H536 C512 0.950 . S
H537 C513 0.949 . S
H538 C515 0.950 . S
H539 C517 0.950 . S
C540 C541 1.349 . S
C540 C542 1.327 . S
C540 H565 0.950 . S
C541 C540 1.349 . S
C541 C557 1.349 . S
C542 C540 1.327 . S
C542 C561 1.429 . S
C542 H566 0.950 . S
C543 C560 1.574 . S
C543 C562 1.368 1_655 S
C543 H567 0.949 1_554 S
H544 C548 0.949 . S
C545 C546 1.349 . S
C545 C547 1.327 . S
C545 H568 0.935 1_554 S
C546 C545 1.349 . S
C546 C558 1.349 . S
C547 C545 1.327 . S
C547 C563 1.429 . S
C547 H569 0.950 1_554 S
C548 H544 0.949 . S
C548 C556 1.574 . S
C548 C564 1.368 1_455 S
H549 C557 0.935 1_556 S
H550 C555 0.950 1_556 S
H551 C556 0.949 . S
H552 C558 0.950 . S
H553 C559 0.950 . S
H554 C560 0.949 1_556 S
C555 H550 0.950 1_554 S
C555 C557 1.327 . S
C555 C561 1.429 . S
C556 C548 1.574 . S
C556 H551 0.949 . S
C556 C562 1.368 . S
C557 C541 1.349 . S
C557 H549 0.935 1_554 S
C557 C555 1.327 . S
C558 C546 1.349 . S
C558 H552 0.950 . S
C558 C559 1.327 . S
C559 H553 0.950 . S
C559 C558 1.327 . S
C559 C563 1.429 . S
C560 C543 1.574 . S
C560 H554 0.949 1_554 S
C560 C564 1.368 . S
C561 C542 1.429 . S
C561 C555 1.429 . S
C561 C562 1.523 . S
C562 C543 1.368 1_455 S
C562 C556 1.368 . S
C562 C561 1.523 . S
C563 C547 1.429 . S
C563 C559 1.429 . S
C563 C564 1.523 . S
C564 C548 1.368 1_655 S
C564 C560 1.368 . S
C564 C563 1.523 . S
H565 C540 0.950 . S
H566 C542 0.950 . S
H567 C543 0.949 1_556 S
H568 C545 0.935 1_556 S
H569 C547 0.950 1_556 S
C570 C571 1.349 . S
C570 C572 1.327 . S
C570 H595 0.950 . S
C571 C570 1.349 . S
C571 C587 1.349 . S
C572 C570 1.327 . S
C572 C591 1.429 . S
C572 H596 0.950 . S
C573 C590 1.574 . S
C573 C592 1.368 1_545 S
C573 H597 0.949 . S
H574 C578 0.949 . S
C575 C576 1.349 . S
C575 C577 1.327 . S
C575 H598 0.950 . S
C576 C575 1.349 . S
C576 C588 1.349 . S
C577 C575 1.327 . S
C577 C593 1.429 . S
C577 H599 0.950 . S
C578 H574 0.949 . S
C578 C586 1.574 . S
C578 C594 1.368 1_565 S
H579 C587 0.950 . S
H580 C585 0.950 . S
H581 C586 0.949 . S
H582 C588 0.950 . S
H583 C589 0.950 . S
H584 C590 0.949 . S
C585 H580 0.950 . S
C585 C587 1.327 . S
C585 C591 1.429 . S
C586 C578 1.574 . S
C586 H581 0.949 . S
C586 C592 1.368 . S
C587 C571 1.349 . S
C587 H579 0.950 . S
C587 C585 1.327 . S
C588 C576 1.349 . S
C588 H582 0.950 . S
C588 C589 1.327 . S
C589 H583 0.950 . S
C589 C588 1.327 . S
C589 C593 1.429 . S
C590 C573 1.574 . S
C590 H584 0.949 . S
C590 C594 1.368 . S
C591 C572 1.429 . S
C591 C585 1.429 . S
C591 C592 1.523 . S
C592 C573 1.368 1_565 S
C592 C586 1.368 . S
C592 C591 1.523 . S
C593 C577 1.429 . S
C593 C589 1.429 . S
C593 C594 1.523 . S
C594 C578 1.368 1_545 S
C594 C590 1.368 . S
C594 C593 1.523 . S
H595 C570 0.950 . S
H596 C572 0.950 . S
H597 C573 0.949 . S
H598 C575 0.950 . S
H599 C577 0.950 . S
C600 C601 1.349 . S
C600 C602 1.327 . S
C600 H625 0.950 . S
C601 C600 1.349 . S
C601 C617 1.349 . S
C602 C600 1.327 . S
C602 C621 1.429 . S
C602 H626 0.950 . S
C603 C620 1.574 . S
C603 C622 1.368 . S
C603 H627 0.949 . S
H604 C608 0.949 . S
C605 C606 1.349 . S
C605 C607 1.327 . S
C605 H628 0.950 . S
C606 C605 1.349 . S
C606 C618 1.349 . S
C607 C605 1.327 . S
C607 C623 1.429 . S
C607 H629 0.950 . S
C608 H604 0.949 . S
C608 C616 1.574 . S
C608 C624 1.368 . S
H609 C617 0.950 . S
H610 C615 0.950 . S
H611 C616 0.949 . S
H612 C618 0.950 . S
H613 C619 0.950 . S
H614 C620 0.949 . S
C615 H610 0.950 . S
C615 C617 1.327 . S
C615 C621 1.429 . S
C616 C608 1.574 . S
C616 H611 0.949 . S
C616 C622 1.368 . S
C617 C601 1.349 . S
C617 H609 0.950 . S
C617 C615 1.327 . S
C618 C606 1.349 . S
C618 H612 0.950 . S
C618 C619 1.327 . S
C619 H613 0.950 . S
C619 C618 1.327 . S
C619 C623 1.429 . S
C620 C603 1.574 . S
C620 H614 0.949 . S
C620 C624 1.368 . S
C621 C602 1.429 . S
C621 C615 1.429 . S
C621 C622 1.523 . S
C622 C603 1.368 . S
C622 C616 1.368 . S
C622 C621 1.523 . S
C623 C607 1.429 . S
C623 C619 1.429 . S
C623 C624 1.523 . S
C624 C608 1.368 . S
C624 C620 1.368 . S
C624 C623 1.523 . S
H625 C600 0.950 . S
H626 C602 0.950 . S
H627 C603 0.949 . S
H628 C605 0.950 . S
H629 C607 0.950 . S
C630 C631 1.349 . S
C630 C632 1.327 1_655 S
C630 H655 0.950 1_655 S
C631 C630 1.349 . S
C631 C647 1.349 . S
C632 C630 1.327 1_455 S
C632 C651 1.429 1_455 S
C632 H656 0.950 . S
C633 C650 1.574 1_655 S
C633 C652 1.368 1_655 S
C633 H657 0.949 . S
H634 C638 0.949 . S
C635 C636 1.349 . S
C635 C637 1.327 . S
C635 H658 0.950 . S
C636 C635 1.349 . S
C636 C648 1.349 . S
C637 C635 1.327 . S
C637 C653 1.429 . S
C637 H659 0.950 . S
C638 H634 0.949 . S
C638 C646 1.574 . S
C638 C654 1.368 . S
H639 C647 0.950 . S
H640 C645 0.950 . S
H641 C646 0.949 . S
H642 C648 0.950 . S
H643 C649 0.950 . S
H644 C650 0.949 . S
C645 H640 0.950 . S
C645 C647 1.327 . S
C645 C651 1.429 . S
C646 C638 1.574 . S
C646 H641 0.949 . S
C646 C652 1.368 . S
C647 C631 1.349 . S
C647 H639 0.950 . S
C647 C645 1.327 . S
C648 C636 1.349 . S
C648 H642 0.950 . S
C648 C649 1.327 . S
C649 H643 0.950 . S
C649 C648 1.327 . S
C649 C653 1.429 . S
C650 C633 1.574 1_455 S
C650 H644 0.949 . S
C650 C654 1.368 . S
C651 C632 1.429 1_655 S
C651 C645 1.429 . S
C651 C652 1.523 1_655 S
C652 C633 1.368 1_455 S
C652 C646 1.368 . S
C652 C651 1.523 1_455 S
C653 C637 1.429 . S
C653 C649 1.429 . S
C653 C654 1.523 . S
C654 C638 1.368 . S
C654 C650 1.368 . S
C654 C653 1.523 . S
H655 C630 0.950 1_455 S
H656 C632 0.950 . S
H657 C633 0.949 . S
H658 C635 0.950 . S
H659 C637 0.950 . S
C660 C661 1.349 . S
C660 C662 1.327 . S
C660 H685 0.950 . S
C661 C660 1.349 . S
C661 C677 1.349 . S
C662 C660 1.327 . S
C662 C681 1.429 . S
C662 H686 0.950 . S
C663 C680 1.574 . S
C663 C682 1.368 . S
C663 H687 0.949 . S
H664 C668 0.949 . S
C665 C666 1.349 . S
C665 C667 1.327 . S
C665 H688 0.950 . S
C666 C665 1.349 . S
C666 C678 1.349 . S
C667 C665 1.327 . S
C667 C683 1.429 . S
C667 H689 0.950 . S
C668 H664 0.949 . S
C668 C676 1.575 1_545 S
C668 C684 1.368 . S
H669 C677 0.950 1_545 S
H670 C675 0.950 . S
H671 C676 0.948 . S
H672 C678 0.950 . S
H673 C679 0.950 . S
H674 C680 0.949 . S
C675 H670 0.950 . S
C675 C677 1.327 1_545 S
C675 C681 1.429 1_545 S
C676 C668 1.575 1_565 S
C676 H671 0.948 . S
C676 C682 1.369 1_565 S
C677 C661 1.349 . S
C677 H669 0.950 1_565 S
C677 C675 1.327 1_565 S
C678 C666 1.349 . S
C678 H672 0.950 . S
C678 C679 1.327 . S
C679 H673 0.950 . S
C679 C678 1.327 . S
C679 C683 1.429 . S
C680 C663 1.574 . S
C680 H674 0.949 . S
C680 C684 1.368 . S
C681 C662 1.429 . S
C681 C675 1.429 1_565 S
C681 C682 1.523 1_565 S
C682 C663 1.368 . S
C682 C676 1.369 1_545 S
C682 C681 1.523 1_545 S
C683 C667 1.429 . S
C683 C679 1.429 . S
C683 C684 1.523 . S
C684 C668 1.368 . S
C684 C680 1.368 . S
C684 C683 1.523 . S
H685 C660 0.950 . S
H686 C662 0.950 . S
H687 C663 0.949 . S
H688 C665 0.950 . S
H689 C667 0.950 . S
C690 C691 1.349 . S
C690 C692 1.327 . S
C690 H715 0.950 . S
C691 C690 1.349 . S
C691 C707 1.349 . S
C692 C690 1.327 . S
C692 C711 1.429 . S
C692 H716 0.950 . S
C693 C710 1.574 . S
C693 C712 1.368 . S
C693 H717 0.949 . S
H694 C698 0.949 . S
C695 C696 1.349 . S
C695 C697 1.327 . S
C695 H718 0.950 . S
C696 C695 1.349 . S
C696 C708 1.349 . S
C697 C695 1.327 . S
C697 C713 1.429 . S
C697 H719 0.950 . S
C698 H694 0.949 . S
C698 C706 1.574 . S
C698 C714 1.368 . S
H699 C707 0.950 . S
H700 C705 0.950 . S
H701 C706 0.949 . S
H702 C708 0.950 . S
H703 C709 0.950 . S
H704 C710 0.949 . S
C705 H700 0.950 . S
C705 C707 1.327 . S
C705 C711 1.429 . S
C706 C698 1.574 . S
C706 H701 0.949 . S
C706 C712 1.368 . S
C707 C691 1.349 . S
C707 H699 0.950 . S
C707 C705 1.327 . S
C708 C696 1.349 . S
C708 H702 0.950 . S
C708 C709 1.327 . S
C709 H703 0.950 . S
C709 C708 1.327 . S
C709 C713 1.429 . S
C710 C693 1.574 . S
C710 H704 0.949 . S
C710 C714 1.368 . S
C711 C692 1.429 . S
C711 C705 1.429 . S
C711 C712 1.523 . S
C712 C693 1.368 . S
C712 C706 1.368 . S
C712 C711 1.523 . S
C713 C697 1.429 . S
C713 C709 1.429 . S
C713 C714 1.523 . S
C714 C698 1.368 . S
C714 C710 1.368 . S
C714 C713 1.523 . S
H715 C690 0.950 . S
H716 C692 0.950 . S
H717 C693 0.949 . S
H718 C695 0.950 . S
H719 C697 0.950 . S
C720 C721 1.349 . S
C720 C722 1.327 1_455 S
C720 H745 0.950 1_455 S
C721 C720 1.349 . S
C721 C737 1.349 . S
C722 C720 1.327 1_655 S
C722 C741 1.429 1_655 S
C722 H746 0.950 . S
C723 C740 1.574 . S
C723 C742 1.368 . S
C723 H747 0.949 1_655 S
H724 C728 0.949 . S
C725 C726 1.349 . S
C725 C727 1.327 . S
C725 H748 0.950 . S
C726 C725 1.349 . S
C726 C738 1.349 . S
C727 C725 1.327 . S
C727 C743 1.429 . S
C727 H749 0.950 . S
C728 H724 0.949 . S
C728 C736 1.574 . S
C728 C744 1.368 . S
H729 C737 0.950 . S
H730 C735 0.950 . S
H731 C736 0.949 . S
H732 C738 0.950 . S
H733 C739 0.950 . S
H734 C740 0.949 . S
C735 H730 0.950 . S
C735 C737 1.327 . S
C735 C741 1.429 . S
C736 C728 1.574 . S
C736 H731 0.949 . S
C736 C742 1.368 . S
C737 C721 1.349 . S
C737 H729 0.950 . S
C737 C735 1.327 . S
C738 C726 1.349 . S
C738 H732 0.950 . S
C738 C739 1.327 . S
C739 H733 0.950 . S
C739 C738 1.327 . S
C739 C743 1.429 . S
C740 C723 1.574 . S
C740 H734 0.949 . S
C740 C744 1.368 . S
C741 C722 1.429 1_455 S
C741 C735 1.429 . S
C741 C742 1.523 1_455 S
C742 C723 1.368 . S
C742 C736 1.368 . S
C742 C741 1.523 1_655 S
C743 C727 1.429 . S
C743 C739 1.429 . S
C743 C744 1.523 . S
C744 C728 1.368 . S
C744 C740 1.368 . S
C744 C743 1.523 . S
H745 C720 0.950 1_655 S
H746 C722 0.950 . S
H747 C723 0.949 1_455 S
H748 C725 0.950 . S
H749 C727 0.950 . S
C750 C751 1.349 . S
C750 C752 1.327 . S
C750 H775 0.950 . S
C751 C750 1.349 . S
C751 C767 1.349 . S
C752 C750 1.327 . S
C752 C771 1.429 . S
C752 H776 0.950 . S
C753 C770 1.574 . S
C753 C772 1.368 . S
C753 H777 0.949 . S
H754 C758 0.949 . S
C755 C756 1.349 . S
C755 C757 1.327 . S
C755 H778 0.950 . S
C756 C755 1.349 . S
C756 C768 1.349 . S
C757 C755 1.327 . S
C757 C773 1.429 . S
C757 H779 0.950 . S
C758 H754 0.949 . S
C758 C766 1.574 . S
C758 C774 1.368 . S
H759 C767 0.950 . S
H760 C765 0.950 . S
H761 C766 0.949 1_545 S
H762 C768 0.950 . S
H763 C769 0.950 . S
H764 C770 0.949 . S
C765 H760 0.950 . S
C765 C767 1.327 1_565 S
C765 C771 1.429 1_565 S
C766 C758 1.574 . S
C766 H761 0.949 1_565 S
C766 C772 1.368 . S
C767 C751 1.349 . S
C767 H759 0.950 . S
C767 C765 1.327 1_545 S
C768 C756 1.349 . S
C768 H762 0.950 . S
C768 C769 1.327 . S
C769 H763 0.950 . S
C769 C768 1.327 . S
C769 C773 1.429 . S
C770 C753 1.574 . S
C770 H764 0.949 . S
C770 C774 1.368 . S
C771 C752 1.429 . S
C771 C765 1.429 1_545 S
C771 C772 1.523 1_545 S
C772 C753 1.368 . S
C772 C766 1.368 . S
C772 C771 1.523 1_565 S
C773 C757 1.429 . S
C773 C769 1.429 . S
C773 C774 1.523 . S
C774 C758 1.368 . S
C774 C770 1.368 . S
C774 C773 1.523 . S
H775 C750 0.950 . S
H776 C752 0.950 . S
H777 C753 0.949 . S
H778 C755 0.950 . S
H779 C757 0.950 . S
C241 C171 1.158 . S
C246 C7 1.163 . S
C271 C211 1.158 . S
C276 C47 1.163 . S
C301 C11 1.159 . S
C306 C87 1.163 . S
C331 C51 1.158 . S
C336 C127 1.163 . S
C361 C91 1.158 . S
C366 C167 1.163 . S
C391 C131 1.158 . S
C396 C207 1.163 . S
C421 C10 0.652 . S
C426 C130 0.652 . S
C451 C170 0.652 . S
C456 C50 0.652 . S
C481 C210 0.651 . S
C486 C90 0.651 . S
C511 C99 0.598 . S
C516 C219 0.598 . S
C541 C19 0.600 . S
C546 C139 0.600 . S
C571 C179 0.599 . S
C576 C59 0.599 . S
C601 C202 1.250 . S
C606 C16 1.233 . S
C631 C56 1.233 . S
C636 C2 1.250 . S
C661 C96 1.233 . S
C666 C42 1.250 . S
C691 C82 1.250 . S
C696 C136 1.233 . S
C721 C176 1.233 . S
C726 C122 1.250 . S
C751 C216 1.233 . S
C756 C162 1.250 . S
