# Generated by pormake.
# Topology crr, (4)-cn, num edge types: 1
# Building blocks:
#     Node 0, Type 0, BuildingBlock: MUDLON_clean_sbu_0, # of connection points: 4
#     Node 1, Type 0, BuildingBlock: MUDLON_clean_sbu_0, # of connection points: 4
#     Node 2, Type 0, BuildingBlock: MUDLON_clean_sbu_0, # of connection points: 4
#     Node 3, Type 0, BuildingBlock: MUDLON_clean_sbu_0, # of connection points: 4
#     Node 4, Type 0, BuildingBlock: MUDLON_clean_sbu_0, # of connection points: 4
#     Node 5, Type 0, BuildingBlock: MUDLON_clean_sbu_0, # of connection points: 4
#     Node 6, Type 0, BuildingBlock: MUDLON_clean_sbu_0, # of connection points: 4
#     Node 7, Type 0, BuildingBlock: MUDLON_clean_sbu_0, # of connection points: 4
#     Node 8, Type 0, BuildingBlock: MUDLON_clean_sbu_0, # of connection points: 4
#     Node 9, Type 0, BuildingBlock: MUDLON_clean_sbu_0, # of connection points: 4
#     Node 10, Type 0, BuildingBlock: MUDLON_clean_sbu_0, # of connection points: 4
#     Node 11, Type 0, BuildingBlock: MUDLON_clean_sbu_0, # of connection points: 4
#     Edge 12, Type (0, 0), BuildingBlock: AJUNOK_clean_linker_0, # of connection points: 2
#     Edge 13, Type (0, 0), BuildingBlock: AJUNOK_clean_linker_0, # of connection points: 2
#     Edge 14, Type (0, 0), BuildingBlock: AJUNOK_clean_linker_0, # of connection points: 2
#     Edge 15, Type (0, 0), BuildingBlock: AJUNOK_clean_linker_0, # of connection points: 2
#     Edge 16, Type (0, 0), BuildingBlock: AJUNOK_clean_linker_0, # of connection points: 2
#     Edge 17, Type (0, 0), BuildingBlock: AJUNOK_clean_linker_0, # of connection points: 2
#     Edge 18, Type (0, 0), BuildingBlock: AJUNOK_clean_linker_0, # of connection points: 2
#     Edge 19, Type (0, 0), BuildingBlock: AJUNOK_clean_linker_0, # of connection points: 2
#     Edge 20, Type (0, 0), BuildingBlock: AJUNOK_clean_linker_0, # of connection points: 2
#     Edge 21, Type (0, 0), BuildingBlock: AJUNOK_clean_linker_0, # of connection points: 2
#     Edge 22, Type (0, 0), BuildingBlock: AJUNOK_clean_linker_0, # of connection points: 2
#     Edge 23, Type (0, 0), BuildingBlock: AJUNOK_clean_linker_0, # of connection points: 2
#     Edge 24, Type (0, 0), BuildingBlock: AJUNOK_clean_linker_0, # of connection points: 2
#     Edge 25, Type (0, 0), BuildingBlock: AJUNOK_clean_linker_0, # of connection points: 2
#     Edge 26, Type (0, 0), BuildingBlock: AJUNOK_clean_linker_0, # of connection points: 2
#     Edge 27, Type (0, 0), BuildingBlock: AJUNOK_clean_linker_0, # of connection points: 2
#     Edge 28, Type (0, 0), BuildingBlock: AJUNOK_clean_linker_0, # of connection points: 2
#     Edge 29, Type (0, 0), BuildingBlock: AJUNOK_clean_linker_0, # of connection points: 2
#     Edge 30, Type (0, 0), BuildingBlock: AJUNOK_clean_linker_0, # of connection points: 2
#     Edge 31, Type (0, 0), BuildingBlock: AJUNOK_clean_linker_0, # of connection points: 2
#     Edge 32, Type (0, 0), BuildingBlock: AJUNOK_clean_linker_0, # of connection points: 2
#     Edge 33, Type (0, 0), BuildingBlock: AJUNOK_clean_linker_0, # of connection points: 2
#     Edge 34, Type (0, 0), BuildingBlock: AJUNOK_clean_linker_0, # of connection points: 2
#     Edge 35, Type (0, 0), BuildingBlock: AJUNOK_clean_linker_0, # of connection points: 2
# Relax obj value: 0.144
# Max RMSD: 0.143
# Mean RMSD: 0.141
data_MOF--net-crr--node1-MUDLON_clean_sbu_0--edge1-AJUNOK_clean_linker_0
_symmetry_space_group_name_H-M    P1
_symmetry_Int_Tables_number       1
_symmetry_cell_setting            triclinic
loop_
_symmetry_equiv_pos_as_xyz
'x, y, z'
_cell_length_a     30.087156
_cell_length_b     29.536859
_cell_length_c     29.851312
_cell_angle_alpha  88.442396
_cell_angle_beta   88.644866
_cell_angle_gamma 90.224832
loop_
_atom_site_label
_atom_site_type_symbol
_atom_site_fract_x
_atom_site_fract_y
_atom_site_fract_z
_atom_type_partial_charge
Mg0 Mg 0.14416 0.38993 0.37178 0.0
C1 C 0.20892 0.32715 0.41375 0.0
O2 O 0.17228 0.31951 0.43761 0.0
C3 C 0.10841 0.47304 0.32812 0.0
O4 O 0.07969 0.44147 0.31817 0.0
C5 C 0.13793 0.34119 0.28087 0.0
O6 O 0.11765 0.3151 0.25282 0.0
O7 O 0.11811 0.35106 0.31743 0.0
O8 O 0.2089 0.35914 0.38429 0.0
O9 O 0.09923 0.37977 0.43051 0.0
C10 C 0.06506 0.35444 0.42797 0.0
O11 O 0.05808 0.33401 0.39025 0.0
O12 O 0.14177 0.46176 0.35142 0.0
Mg13 Mg 0.29641 0.91499 0.66799 0.0
C14 C 0.33584 0.85066 0.73893 0.0
O15 O 0.36496 0.88359 0.74213 0.0
C16 C 0.2858 0.93399 0.56935 0.0
O17 O 0.24793 0.9493 0.5855 0.0
C18 C 0.21083 0.91369 0.71903 0.0
O19 O 0.23944 0.91317 0.75164 0.0
O20 O 0.2254 0.92228 0.67935 0.0
O21 O 0.30767 0.85298 0.70782 0.0
O22 O 0.33838 0.96922 0.69148 0.0
C23 C 0.34807 1.00258 0.66509 0.0
O24 O 0.32741 1.00648 0.62693 0.0
O25 O 0.31165 0.91326 0.5961 0.0
Mg26 Mg 0.96351 0.71336 0.29662 0.0
C27 C 0.94124 0.80734 0.26494 0.0
O28 O 0.93159 0.78852 0.22701 0.0
C29 C 0.04865 0.65781 0.29979 0.0
O30 O 0.05726 0.68584 0.33185 0.0
C31 C 0.90139 0.69174 0.22204 0.0
O32 O 0.93953 0.68721 0.20033 0.0
O33 O 0.90149 0.69923 0.26383 0.0
O34 O 0.96855 0.78696 0.29034 0.0
O35 O 0.95883 0.70168 0.36866 0.0
C36 C 0.98417 0.7266 0.39111 0.0
O37 O 0.00799 0.75804 0.36969 0.0
O38 O 0.01509 0.66563 0.27549 0.0
Mg39 Mg 0.61038 0.11674 0.64679 0.0
C40 C 0.61579 0.02335 0.60658 0.0
O41 O 0.5773 0.01964 0.62802 0.0
C42 C 0.61024 0.15825 0.73291 0.0
O43 O 0.58405 0.1829 0.70753 0.0
C44 C 0.52022 0.08917 0.68007 0.0
O45 O 0.54593 0.07568 0.71272 0.0
O46 O 0.53804 0.11015 0.64632 0.0
O47 O 0.63856 0.05932 0.61096 0.0
O48 O 0.63931 0.17975 0.61946 0.0
C49 C 0.67602 0.17742 0.59766 0.0
O50 O 0.68981 0.13751 0.58498 0.0
O51 O 0.62773 0.12304 0.7164 0.0
Mg52 Mg 0.06522 0.69665 0.66662 0.0
C53 C 0.03125 0.60589 0.6756 0.0
O54 O 0.06858 0.604 0.65197 0.0
C55 C 0.07798 0.77544 0.72628 0.0
O56 O 0.08828 0.74235 0.75441 0.0
C57 C 0.01814 0.69409 0.58022 0.0
O58 O 0.9859 0.68289 0.60888 0.0
O59 O 0.05676 0.70174 0.59487 0.0
O60 O 0.01863 0.64401 0.68999 0.0
O61 O 0.13238 0.67638 0.68484 0.0
C62 C 0.13629 0.65203 0.72032 0.0
O63 O 0.10007 0.63842 0.74224 0.0
O64 O 0.05956 0.76533 0.69 0.0
Mg65 Mg 0.69016 0.90739 0.35851 0.0
C66 C 0.79049 0.89475 0.3503 0.0
O67 O 0.78541 0.88985 0.39399 0.0
C68 C 0.62058 0.96108 0.30831 0.0
O69 O 0.61961 0.92391 0.28516 0.0
C70 C 0.67417 0.81145 0.32657 0.0
O71 O 0.71664 0.80777 0.3352 0.0
O72 O 0.65422 0.84781 0.33666 0.0
O73 O 0.75664 0.90484 0.32731 0.0
O74 O 0.69117 0.91597 0.43072 0.0
C75 C 0.65386 0.91429 0.45166 0.0
O76 O 0.61868 0.90149 0.42993 0.0
O77 O 0.65007 0.96507 0.33774 0.0
Mg78 Mg 0.88848 0.3546 0.66337 0.0
C79 C 0.94103 0.43221 0.68574 0.0
O80 O 0.96602 0.39631 0.69219 0.0
C81 C 0.82369 0.30015 0.61436 0.0
O82 O 0.86131 0.27872 0.60747 0.0
C83 C 0.93469 0.34966 0.57535 0.0
O84 O 0.89685 0.36954 0.56625 0.0
O85 O 0.9417 0.33675 0.61562 0.0
O86 O 0.90117 0.42609 0.67386 0.0
O87 O 0.88387 0.31773 0.72789 0.0
C88 C 0.88202 0.33843 0.76476 0.0
O89 O 0.89243 0.38165 0.76459 0.0
O90 O 0.82446 0.33721 0.63514 0.0
Mg91 Mg 0.37333 0.10532 0.34503 0.0
C92 C 0.31329 0.13456 0.27076 0.0
O93 O 0.28728 0.14199 0.30577 0.0
C94 C 0.36155 0.0258 0.41049 0.0
O95 O 0.40513 0.02779 0.40714 0.0
C96 C 0.32897 0.17459 0.40337 0.0
O97 O 0.31364 0.13701 0.4227 0.0
O98 O 0.35849 0.17163 0.3724 0.0
O99 O 0.34983 0.11413 0.27703 0.0
O100 O 0.44386 0.08852 0.34075 0.0
C101 C 0.45662 0.06469 0.30801 0.0
O102 O 0.42745 0.05437 0.2778 0.0
O103 O 0.33897 0.05299 0.38631 0.0
Mg104 Mg 0.37542 0.34917 0.13404 0.0
C105 C 0.46582 0.30344 0.13587 0.0
O106 O 0.44074 0.26796 0.12895 0.0
C107 C 0.30532 0.39096 0.19579 0.0
O108 O 0.30278 0.42035 0.16218 0.0
C109 C 0.33695 0.41721 0.061 0.0
O110 O 0.2983 0.39694 0.06737 0.0
O111 O 0.37028 0.40321 0.0828 0.0
O112 O 0.44707 0.34131 0.14282 0.0
O113 O 0.35028 0.28245 0.11848 0.0
C114 C 0.31115 0.27203 0.13228 0.0
O115 O 0.28262 0.305 0.13834 0.0
O116 O 0.3366 0.36209 0.1952 0.0
Mg117 Mg 0.34783 0.66893 0.89695 0.0
C118 C 0.29442 0.62931 0.82512 0.0
O119 O 0.29346 0.59684 0.85607 0.0
C120 C 0.42887 0.70148 0.9399 0.0
O121 O 0.39655 0.71391 0.96717 0.0
C122 C 0.29577 0.75923 0.90807 0.0
O123 O 0.26938 0.7858 0.93102 0.0
O124 O 0.3097 0.72297 0.92696 0.0
O125 O 0.31984 0.66314 0.83055 0.0
O126 O 0.33369 0.60701 0.93716 0.0
C127 C 0.36443 0.57879 0.94569 0.0
O128 O 0.40482 0.58748 0.92998 0.0
O129 O 0.4187 0.68247 0.90371 0.0
Mg130 Mg 0.65412 0.65753 0.10201 0.0
C131 C 0.6019 0.67987 0.01853 0.0
O132 O 0.62839 0.64875 1.00238 0.0
C133 C 0.73392 0.71009 0.1295 0.0
O134 O 0.7025 0.73455 0.14799 0.0
C135 C 0.68769 0.57934 0.05217 0.0
O136 O 0.71459 0.61241 0.03884 0.0
O137 O 0.65705 0.58763 0.08089 0.0
O138 O 0.60759 0.69281 0.05834 0.0
O139 O 0.63595 0.66612 0.1725 0.0
C140 C 0.61334 0.70045 0.18388 0.0
O141 O 0.59307 0.72391 0.15248 0.0
O142 O 0.72297 0.68025 0.10187 0.0
Mg143 Mg 0.67945 0.30375 0.96585 0.0
C144 C 0.75076 0.3031 0.9009 0.0
O145 O 0.71519 0.31838 0.88094 0.0
C146 C 0.64462 0.30516 0.06066 0.0
O147 O 0.66738 0.34318 0.05896 0.0
C148 C 0.65575 0.23184 0.90495 0.0
O149 O 0.68592 0.21321 0.93057 0.0
O150 O 0.64254 0.27162 0.91367 0.0
O151 O 0.74828 0.29319 0.94274 0.0
O152 O 0.66971 0.37648 0.969 0.0
C153 C 0.7037 0.40003 0.97786 0.0
O154 O 0.74248 0.37995 0.98017 0.0
O155 O 0.65061 0.27744 0.02912 0.0
C156 C 0.24084 0.25544 0.44518 0.0
C157 C 0.24561 0.29343 0.41587 0.0
C158 C 0.26986 0.21861 0.44279 0.0
C159 C 0.30515 0.21796 0.41103 0.0
H160 H 0.21312 0.25292 0.46895 0.0
H161 H 0.26312 0.18948 0.46477 0.0
S162 S 0.33771 0.31267 0.33244 0.0
N163 N 0.29234 0.33087 0.35832 0.0
N164 N 0.347 0.26152 0.35377 0.0
C165 C 0.3127 0.25731 0.38404 0.0
C166 C 0.28294 0.29501 0.38647 0.0
C167 C 0.16076 0.86167 0.76449 0.0
C168 C 0.1678 0.8892 0.72568 0.0
C169 C 0.12815 0.82763 0.76624 0.0
C170 C 0.10104 0.81991 0.72938 0.0
H171 H 0.18295 0.86367 0.79243 0.0
H172 H 0.12664 0.80504 0.79544 0.0
S173 S 0.09798 0.891 0.62483 0.0
N174 N 0.1391 0.91252 0.65321 0.0
N175 N 0.07742 0.84893 0.65657 0.0
C176 C 0.10381 0.85113 0.69279 0.0
C177 C 0.13731 0.88565 0.69091 0.0
C178 C 0.83369 0.87237 0.28144 0.0
C179 C 0.83281 0.8809 0.32763 0.0
C180 C 0.87045 0.85176 0.2607 0.0
C181 C 0.90807 0.83879 0.28518 0.0
H182 H 0.80482 0.87938 0.26143 0.0
H183 H 0.86816 0.84375 0.22563 0.0
S184 S 0.9258 0.86108 0.4054 0.0
N185 N 0.8753 0.88019 0.396 0.0
N186 N 0.94436 0.84186 0.35708 0.0
C187 C 0.90915 0.85069 0.33057 0.0
C188 C 0.87156 0.87152 0.35176 0.0
C189 C 0.78155 0.24382 0.57132 0.0
C190 C 0.78139 0.27691 0.60433 0.0
C191 C 0.74556 0.21412 0.56709 0.0
C192 C 0.7079 0.21609 0.59581 0.0
H193 H 0.81068 0.23934 0.54988 0.0
H194 H 0.74837 0.18783 0.54258 0.0
S195 S 0.68935 0.29907 0.68563 0.0
N196 N 0.73901 0.31217 0.66423 0.0
N197 N 0.6713 0.2563 0.65645 0.0
C198 C 0.70592 0.25112 0.62698 0.0
C199 C 0.7427 0.28153 0.63121 0.0
C200 C 0.27049 0.22539 0.19134 0.0
C201 C 0.30452 0.22863 0.15815 0.0
C202 C 0.27139 0.19206 0.22562 0.0
C203 C 0.30618 0.16037 0.228 0.0
H204 H 0.24483 0.25093 0.19318 0.0
H205 H 0.2463 0.19339 0.25218 0.0
S206 S 0.39635 0.1466 0.14235 0.0
N207 N 0.36879 0.19163 0.12469 0.0
N208 N 0.3705 0.12888 0.18902 0.0
C209 C 0.33721 0.15971 0.19191 0.0
C210 C 0.33633 0.19381 0.15699 0.0
C211 C 0.22221 0.60141 0.79697 0.0
C212 C 0.25864 0.63132 0.79158 0.0
C213 C 0.18378 0.60724 0.77205 0.0
C214 C 0.1802 0.64278 0.74011 0.0
H215 H 0.22219 0.5745 0.82235 0.0
H216 H 0.15601 0.58446 0.77906 0.0
S217 S 0.26867 0.72606 0.70757 0.0
N218 N 0.29058 0.69487 0.74812 0.0
N219 N 0.21828 0.70539 0.70068 0.0
C220 C 0.21755 0.67091 0.73175 0.0
C221 C 0.25674 0.6653 0.75764 0.0
C222 C 0.66129 0.71168 0.25025 0.0
C223 C 0.622 0.72196 0.22738 0.0
C224 C 0.6764 0.73918 0.2844 0.0
C225 C 0.65264 0.77782 0.29754 0.0
H226 H 0.68237 0.68413 0.23963 0.0
H227 H 0.70822 0.73131 0.29889 0.0
S228 S 0.54325 0.81428 0.25421 0.0
N229 N 0.55653 0.76975 0.22452 0.0
N230 N 0.58432 0.82093 0.28918 0.0
C231 C 0.61114 0.78591 0.27788 0.0
C232 C 0.59601 0.75813 0.24272 0.0
C233 C 0.82719 0.33014 0.88033 0.0
C234 C 0.79205 0.29986 0.87373 0.0
C235 C 0.85903 0.33942 0.84602 0.0
C236 C 0.85687 0.31852 0.80414 0.0
H237 H 0.82778 0.34979 0.91044 0.0
H238 H 0.88362 0.36552 0.85123 0.0
S239 S 0.77411 0.23163 0.77336 0.0
N240 N 0.75918 0.24552 0.82474 0.0
N241 N 0.81916 0.26189 0.76063 0.0
C242 C 0.82419 0.28482 0.79908 0.0
C243 C 0.79163 0.27589 0.83379 0.0
C244 C 0.28434 0.80508 0.78961 0.0
C245 C 0.3281 0.81857 0.7776 0.0
C246 C 0.27453 0.78293 0.83088 0.0
C247 C 0.30817 0.77259 0.86133 0.0
H248 H 0.25695 0.81416 0.76828 0.0
H249 H 0.24009 0.77563 0.83988 0.0
S250 S 0.42834 0.79729 0.84491 0.0
N251 N 0.40566 0.81735 0.79861 0.0
N252 N 0.38701 0.77552 0.87601 0.0
C253 C 0.35226 0.78341 0.84876 0.0
C254 C 0.36227 0.80649 0.80695 0.0
C255 C 0.78439 0.72704 0.1922 0.0
C256 C 0.77853 0.70845 0.14976 0.0
C257 C 0.82386 0.72076 0.21545 0.0
C258 C 0.8595 0.69613 0.19706 0.0
H259 H 0.75779 0.74556 0.20843 0.0
H260 H 0.82648 0.73567 0.24805 0.0
S261 S 0.86227 0.64237 0.08606 0.0
N262 N 0.81246 0.66547 0.08966 0.0
N263 N 0.88703 0.65431 0.13313 0.0
C264 C 0.85471 0.67842 0.15413 0.0
C265 C 0.8142 0.6844 0.13058 0.0
C266 C 0.5984 0.21171 0.79541 0.0
C267 C 0.62035 0.17347 0.77856 0.0
C268 C 0.6091 0.22942 0.83683 0.0
C269 C 0.64217 0.20963 0.86334 0.0
H270 H 0.57312 0.22883 0.77613 0.0
H271 H 0.59178 0.25943 0.84769 0.0
S272 S 0.70874 0.10796 0.83537 0.0
N273 N 0.67596 0.11556 0.79228 0.0
N274 N 0.69611 0.14862 0.87025 0.0
C275 C 0.66362 0.17056 0.84753 0.0
C276 C 0.65273 0.15256 0.80516 0.0
C277 C 0.25967 0.34031 0.24784 0.0
C278 C 0.26594 0.38303 0.22624 0.0
C279 C 0.21882 0.32808 0.26853 0.0
C280 C 0.18287 0.35821 0.26883 0.0
H281 H 0.28543 0.31488 0.24622 0.0
H282 H 0.21465 0.29399 0.28239 0.0
S283 S 0.18203 0.47472 0.2198 0.0
N284 N 0.23296 0.4565 0.20935 0.0
N285 N 0.15606 0.43267 0.24714 0.0
C286 C 0.18911 0.4016 0.24945 0.0
C287 C 0.23072 0.41426 0.22852 0.0
C288 C 0.01344 0.35698 0.54609 0.0
C289 C 0.96879 0.34537 0.53913 0.0
C290 C 0.04458 0.35952 0.51011 0.0
C291 C 0.03236 0.3496 0.4661 0.0
H292 H 0.02393 0.36604 0.57916 0.0
H293 H 0.07835 0.36973 0.51677 0.0
S294 S 0.9199 0.3142 0.43134 0.0
N295 N 0.91427 0.322 0.48571 0.0
N296 N 0.97252 0.3255 0.4185 0.0
C297 C 0.98808 0.33616 0.4593 0.0
C298 C 0.95639 0.33442 0.49569 0.0
C299 C 0.36649 0.97036 0.47528 0.0
C300 C 0.33993 0.9967 0.44641 0.0
C301 C 0.34826 0.94769 0.51338 0.0
C302 C 0.30261 0.95039 0.52439 0.0
H303 H 0.40212 0.96858 0.46956 0.0
H304 H 0.37065 0.9298 0.53548 0.0
S305 S 0.21735 1.00924 0.45641 0.0
N306 N 0.26466 0.01998 0.42899 0.0
N307 N 0.2304 0.97737 0.50041 0.0
C308 C 0.27515 0.97401 0.49419 0.0
C309 C 0.29376 0.99714 0.45531 0.0
C310 C 0.03727 0.7282 0.50488 0.0
C311 C 0.00883 0.70076 0.53205 0.0
C312 C 0.02844 0.73674 0.45965 0.0
C313 C 0.99114 0.71769 0.4395 0.0
H314 H 0.06634 0.74384 0.51874 0.0
H315 H 0.05148 0.75818 0.4403 0.0
S316 S 0.90681 0.64229 0.49578 0.0
N317 N 0.942 0.65394 0.53554 0.0
N318 N 0.92573 0.66959 0.45019 0.0
C319 C 0.96259 0.68976 0.46614 0.0
C320 C 0.97134 0.68144 0.51247 0.0
C321 C 0.66809 0.99645 0.54601 0.0
C322 C 0.62886 0.98987 0.57218 0.0
C323 C 0.6776 0.96971 0.50878 0.0
C324 C 0.64808 0.93556 0.49597 0.0
H325 H 0.69082 0.02372 0.5531 0.0
H326 H 0.70707 0.97766 0.48849 0.0
S327 S 0.54426 0.89985 0.55678 0.0
N328 N 0.56294 0.94272 0.58537 0.0
N329 N 0.58062 0.89322 0.51523 0.0
C330 C 0.61031 0.92662 0.52347 0.0
C331 C 0.60078 0.95352 0.5616 0.0
C332 C 0.51286 0.0149 0.27109 0.0
C333 C 0.50168 0.04401 0.30619 0.0
C334 C 0.55246 0.9901 0.27096 0.0
C335 C 0.5829 0.99347 0.30576 0.0
H336 H 0.49013 1.00983 0.24405 0.0
H337 H 0.55849 0.96695 0.24397 0.0
S338 S 0.57174 0.06814 0.40361 0.0
N339 N 0.52605 0.07724 0.37522 0.0
N340 N 0.60059 0.03085 0.37491 0.0
C341 C 0.57343 0.02437 0.33988 0.0
C342 C 0.53284 0.04953 0.34012 0.0
C343 C 0.02923 0.52336 0.6917 0.0
C344 C 0.00573 0.56374 0.68452 0.0
C345 C 0.00746 0.4815 0.69396 0.0
C346 C 0.96124 0.47803 0.68827 0.0
H347 H 0.06507 0.52401 0.69462 0.0
H348 H 0.02757 0.45148 0.69863 0.0
S349 S 0.88414 0.57443 0.67064 0.0
N350 N 0.9336 0.59848 0.67384 0.0
N351 N 0.89228 0.51937 0.67724 0.0
C352 C 0.93698 0.51844 0.6826 0.0
C353 C 0.95931 0.5614 0.68098 0.0
C354 C 0.44881 0.07763 0.64008 0.0
C355 C 0.47319 0.07348 0.67961 0.0
C356 C 0.40708 0.05682 0.63667 0.0
C357 C 0.38805 0.03086 0.67257 0.0
H358 H 0.46283 0.09535 0.61078 0.0
H359 H 0.39073 0.05936 0.60476 0.0
S360 S 0.43496 0.01546 0.78581 0.0
N361 N 0.47263 0.04596 0.75732 0.0
N362 N 0.39454 1.00663 0.75062 0.0
C363 C 0.41066 0.02902 0.71327 0.0
C364 C 0.4531 0.05037 0.71684 0.0
C365 C 0.10142 0.60128 0.33332 0.0
C366 C 0.07053 0.61251 0.29994 0.0
C367 C 0.11572 0.55649 0.34061 0.0
C368 C 0.09952 0.52104 0.315 0.0
H369 H 0.11306 0.62683 0.35564 0.0
H370 H 0.13767 0.5493 0.36813 0.0
S371 S 0.02499 0.53315 0.21802 0.0
N372 N 0.02927 0.58494 0.23696 0.0
N373 N 0.05589 0.50103 0.25084 0.0
C374 C 0.07147 0.53224 0.27927 0.0
C375 C 0.05711 0.57786 0.27165 0.0
C376 C 0.38519 0.47364 0.01843 0.0
C377 C 0.34221 0.45752 0.0301 0.0
C378 C 0.39177 0.51239 0.99089 0.0
C379 C 0.35572 0.5372 0.97398 0.0
H380 H 0.41428 0.45626 0.03075 0.0
H381 H 0.42563 0.52323 0.98335 0.0
S382 S 0.23624 0.50919 0.99349 0.0
N383 N 0.26278 0.46922 0.02171 0.0
N384 N 0.27519 0.54225 0.97018 0.0
C385 C 0.31246 0.52138 0.98497 0.0
C386 C 0.30572 0.48154 0.01285 0.0
C387 C 0.50766 0.67422 0.93631 0.0
C388 C 0.47558 0.70317 0.95489 0.0
C389 C 0.54954 0.66905 0.95552 0.0
C390 C 0.56105 0.69264 0.99406 0.0
H391 H 0.49962 0.65347 0.90822 0.0
H392 H 0.57212 0.64457 0.94124 0.0
S393 S 0.49184 0.779 0.05046 0.0
N394 N 0.46038 0.76045 0.01022 0.0
N395 N 0.53888 0.7507 0.04628 0.0
C396 C 0.53055 0.7244 0.01073 0.0
C397 C 0.48789 0.72964 0.99118 0.0
C398 C 0.65922 0.46095 0.01435 0.0
C399 C 0.69898 0.44704 0.99316 0.0
C400 C 0.65589 0.5036 0.03378 0.0
C401 C 0.69198 0.53413 0.03213 0.0
H402 H 0.63088 0.43822 0.01723 0.0
H403 H 0.62478 0.51269 0.05011 0.0
S404 S 0.80292 0.51441 0.97904 0.0
N405 N 0.77476 0.46744 0.97076 0.0
N406 N 0.76852 0.54758 1.0067 0.0
C407 C 0.73161 0.52089 0.01019 0.0
C408 C 0.73509 0.47737 0.99087 0.0
C409 C 0.53232 0.26292 0.10492 0.0
C410 C 0.51456 0.30111 0.12615 0.0
C411 C 0.57582 0.26307 0.08692 0.0
C412 C 0.60362 0.3013 0.08964 0.0
H413 H 0.5117 0.23348 0.09967 0.0
H414 H 0.58676 0.23387 0.06852 0.0
S415 S 0.57611 0.40666 0.14968 0.0
N416 N 0.53035 0.37573 0.15448 0.0
N417 N 0.61217 0.37598 0.12126 0.0
C418 C 0.58771 0.33806 0.1146 0.0
C419 C 0.5432 0.33801 0.13262 0.0
loop_
_geom_bond_atom_site_label_1
_geom_bond_atom_site_label_2
_geom_bond_distance
_geom_bond_site_symmetry_2
_ccdc_geom_bond_type
Mg0 O7 2.141 . S
Mg0 O8 2.048 . S
Mg0 O9 2.048 . S
Mg0 O12 2.141 . S
C1 O2 1.313 . S
C1 O8 1.195 . S
O2 C1 1.313 . S
C3 O4 1.245 . S
C3 O12 1.289 1_655 S
O4 C3 1.245 . S
C5 O6 1.245 . S
C5 O7 1.289 . S
O6 C5 1.245 . S
O7 Mg0 2.141 . S
O7 C5 1.289 . S
O8 Mg0 2.048 . S
O8 C1 1.195 . S
O9 Mg0 2.048 . S
O9 C10 1.195 1_455 S
C10 O9 1.195 1_655 S
C10 O11 1.313 . S
O11 C10 1.313 . S
O12 Mg0 2.141 . S
O12 C3 1.289 1_455 S
Mg13 O20 2.141 . S
Mg13 O21 2.048 . S
Mg13 O22 2.048 . S
Mg13 O25 2.141 . S
C14 O15 1.313 . S
C14 O21 1.195 . S
O15 C14 1.313 . S
C16 O17 1.245 . S
C16 O25 1.289 1_545 S
O17 C16 1.245 . S
C18 O19 1.245 . S
C18 O20 1.289 . S
O19 C18 1.245 . S
O20 Mg13 2.141 . S
O20 C18 1.289 . S
O21 Mg13 2.048 . S
O21 C14 1.195 . S
O22 Mg13 2.048 . S
O22 C23 1.178 1_565 S
C23 O22 1.178 1_545 S
C23 O24 1.326 . S
O24 C23 1.326 . S
O25 Mg13 2.141 . S
O25 C16 1.289 1_565 S
Mg26 O33 2.141 . S
Mg26 O34 2.048 . S
Mg26 O35 2.048 . S
Mg26 O38 2.141 . S
C27 O28 1.313 . S
C27 O34 1.195 . S
O28 C27 1.313 . S
C29 O30 1.245 . S
C29 O38 1.289 1_455 S
O30 C29 1.245 . S
C31 O32 1.245 . S
C31 O33 1.289 . S
O32 C31 1.245 . S
O33 Mg26 2.141 . S
O33 C31 1.289 . S
O34 Mg26 2.048 . S
O34 C27 1.195 . S
O35 Mg26 2.048 . S
O35 C36 1.195 . S
C36 O35 1.195 . S
C36 O37 1.313 1_655 S
O37 C36 1.313 1_455 S
O38 Mg26 2.141 . S
O38 C29 1.289 1_655 S
Mg39 O46 2.141 . S
Mg39 O47 2.048 . S
Mg39 O48 2.048 . S
Mg39 O51 2.141 . S
C40 O41 1.313 . S
C40 O47 1.195 1_565 S
O41 C40 1.313 . S
C42 O43 1.245 . S
C42 O51 1.289 . S
O43 C42 1.245 . S
C44 O45 1.245 . S
C44 O46 1.289 1_565 S
O45 C44 1.245 . S
O46 Mg39 2.141 . S
O46 C44 1.289 1_545 S
O47 Mg39 2.048 . S
O47 C40 1.195 1_545 S
O48 Mg39 2.048 . S
O48 C49 1.195 . S
C49 O48 1.195 . S
C49 O50 1.313 . S
O50 C49 1.313 . S
O51 Mg39 2.141 . S
O51 C42 1.289 . S
Mg52 O59 2.141 . S
Mg52 O60 2.048 . S
Mg52 O61 2.048 . S
Mg52 O64 2.141 . S
C53 O54 1.313 . S
C53 O60 1.195 1_655 S
O54 C53 1.313 . S
C55 O56 1.245 . S
C55 O64 1.289 . S
O56 C55 1.245 . S
C57 O58 1.245 . S
C57 O59 1.289 1_655 S
O58 C57 1.245 . S
O59 Mg52 2.141 . S
O59 C57 1.289 1_455 S
O60 Mg52 2.048 . S
O60 C53 1.195 1_455 S
O61 Mg52 2.048 . S
O61 C62 1.195 . S
C62 O61 1.195 . S
C62 O63 1.313 . S
O63 C62 1.313 . S
O64 Mg52 2.141 . S
O64 C55 1.289 . S
Mg65 O72 2.141 . S
Mg65 O73 2.048 . S
Mg65 O74 2.048 1_565 S
Mg65 O77 2.141 1_565 S
C66 O67 1.313 . S
C66 O73 1.195 . S
O67 C66 1.313 . S
C68 O69 1.265 . S
C68 O77 1.283 1_565 S
O69 C68 1.265 . S
C70 O71 1.245 . S
C70 O72 1.289 . S
O71 C70 1.245 . S
O72 Mg65 2.141 . S
O72 C70 1.289 . S
O73 Mg65 2.048 . S
O73 C66 1.195 . S
O74 Mg65 2.048 1_545 S
O74 C75 1.195 1_545 S
C75 O74 1.195 1_565 S
C75 O76 1.313 . S
O76 C75 1.313 . S
O77 Mg65 2.141 1_545 S
O77 C68 1.283 1_545 S
Mg78 O85 2.141 . S
Mg78 O86 2.048 . S
Mg78 O87 2.048 . S
Mg78 O90 2.141 . S
C79 O80 1.313 . S
C79 O86 1.195 1_455 S
O80 C79 1.313 . S
C81 O82 1.245 . S
C81 O90 1.289 . S
O82 C81 1.245 . S
C83 O84 1.245 . S
C83 O85 1.289 1_455 S
O84 C83 1.245 . S
O85 Mg78 2.141 . S
O85 C83 1.289 1_655 S
O86 Mg78 2.048 . S
O86 C79 1.195 1_655 S
O87 Mg78 2.048 . S
O87 C88 1.195 . S
C88 O87 1.195 . S
C88 O89 1.313 . S
O89 C88 1.313 . S
O90 Mg78 2.141 . S
O90 C81 1.289 . S
Mg91 O98 2.141 . S
Mg91 O99 2.048 . S
Mg91 O100 2.048 . S
Mg91 O103 2.141 . S
C92 O93 1.313 . S
C92 O99 1.195 . S
O93 C92 1.313 . S
C94 O95 1.245 . S
C94 O103 1.289 1_565 S
O95 C94 1.245 . S
C96 O97 1.245 . S
C96 O98 1.289 . S
O97 C96 1.245 . S
O98 Mg91 2.141 . S
O98 C96 1.289 . S
O99 Mg91 2.048 . S
O99 C92 1.195 . S
O100 Mg91 2.048 . S
O100 C101 1.195 . S
C101 O100 1.195 . S
C101 O102 1.313 1_545 S
O102 C101 1.313 1_565 S
O103 Mg91 2.141 . S
O103 C94 1.289 1_545 S
Mg104 O111 2.141 . S
Mg104 O112 2.048 . S
Mg104 O113 2.048 . S
Mg104 O116 2.141 . S
C105 O106 1.313 . S
C105 O112 1.195 1_556 S
O106 C105 1.313 . S
C107 O108 1.245 . S
C107 O116 1.289 . S
O108 C107 1.245 . S
C109 O110 1.245 . S
C109 O111 1.289 1_556 S
O110 C109 1.245 . S
O111 Mg104 2.141 . S
O111 C109 1.289 1_554 S
O112 Mg104 2.048 . S
O112 C105 1.195 1_554 S
O113 Mg104 2.048 . S
O113 C114 1.195 . S
C114 O113 1.195 . S
C114 O115 1.313 . S
O115 C114 1.313 . S
O116 Mg104 2.141 . S
O116 C107 1.289 . S
Mg117 O124 2.141 . S
Mg117 O125 2.048 . S
Mg117 O126 2.048 . S
Mg117 O129 2.141 . S
C118 O119 1.313 . S
C118 O125 1.195 . S
O119 C118 1.313 . S
C120 O121 1.245 . S
C120 O129 1.289 1_554 S
O121 C120 1.245 . S
C122 O123 1.245 . S
C122 O124 1.289 . S
O123 C122 1.245 . S
O124 Mg117 2.141 . S
O124 C122 1.289 . S
O125 Mg117 2.048 . S
O125 C118 1.195 . S
O126 Mg117 2.048 . S
O126 C127 1.195 . S
C127 O126 1.195 . S
C127 O128 1.313 1_556 S
O128 C127 1.313 1_554 S
O129 Mg117 2.141 . S
O129 C120 1.289 1_556 S
Mg130 O137 2.141 . S
Mg130 O138 2.048 . S
Mg130 O139 2.048 . S
Mg130 O142 2.141 . S
C131 O132 1.313 . S
C131 O138 1.195 1_556 S
O132 C131 1.313 . S
C133 O134 1.245 . S
C133 O142 1.289 . S
O134 C133 1.245 . S
C135 O136 1.245 . S
C135 O137 1.289 1_556 S
O136 C135 1.245 . S
O137 Mg130 2.141 . S
O137 C135 1.289 1_554 S
O138 Mg130 2.048 . S
O138 C131 1.195 1_554 S
O139 Mg130 2.048 . S
O139 C140 1.195 . S
C140 O139 1.195 . S
C140 O141 1.313 . S
O141 C140 1.313 . S
O142 Mg130 2.141 . S
O142 C133 1.289 . S
Mg143 O150 2.141 . S
Mg143 O151 2.048 . S
Mg143 O152 2.048 . S
Mg143 O155 2.141 . S
C144 O145 1.313 . S
C144 O151 1.195 . S
O145 C144 1.313 . S
C146 O147 1.245 . S
C146 O155 1.289 1_554 S
O147 C146 1.245 . S
C148 O149 1.245 . S
C148 O150 1.289 . S
O149 C148 1.245 . S
O150 Mg143 2.141 . S
O150 C148 1.289 . S
O151 Mg143 2.048 . S
O151 C144 1.195 . S
O152 Mg143 2.048 . S
O152 C153 1.181 1_556 S
C153 O152 1.181 1_554 S
C153 O154 1.324 . S
O154 C153 1.324 . S
O155 Mg143 2.141 . S
O155 C146 1.289 1_556 S
C156 C157 1.369 . S
C156 C158 1.419 . S
C156 H160 0.930 . S
C157 C156 1.369 . S
C157 C166 1.429 . S
C158 C156 1.419 . S
C158 C159 1.363 . S
C158 H161 0.929 . S
C159 C158 1.363 . S
C159 C165 1.428 . S
H160 C156 0.930 . S
H161 C158 0.929 . S
S162 N163 1.613 . S
S162 N164 1.610 . S
N163 S162 1.613 . S
N163 C166 1.350 . S
N164 S162 1.610 . S
N164 C165 1.351 . S
C165 C159 1.428 . S
C165 N164 1.351 . S
C165 C166 1.434 . S
C166 C157 1.429 . S
C166 N163 1.350 . S
C166 C165 1.434 . S
C167 C168 1.369 . S
C167 C169 1.419 . S
C167 H171 0.930 . S
C168 C167 1.369 . S
C168 C177 1.429 . S
C169 C167 1.419 . S
C169 C170 1.363 . S
C169 H172 0.929 . S
C170 C169 1.363 . S
C170 C176 1.428 . S
H171 C167 0.930 . S
H172 C169 0.929 . S
S173 N174 1.613 . S
S173 N175 1.610 . S
N174 S173 1.613 . S
N174 C177 1.350 . S
N175 S173 1.610 . S
N175 C176 1.351 . S
C176 C170 1.428 . S
C176 N175 1.351 . S
C176 C177 1.434 . S
C177 C168 1.429 . S
C177 N174 1.350 . S
C177 C176 1.434 . S
C178 C179 1.369 . S
C178 C180 1.419 . S
C178 H182 0.930 . S
C179 C178 1.369 . S
C179 C188 1.429 . S
C180 C178 1.419 . S
C180 C181 1.363 . S
C180 H183 0.929 . S
C181 C180 1.363 . S
C181 C187 1.428 . S
H182 C178 0.930 . S
H183 C180 0.929 . S
S184 N185 1.613 . S
S184 N186 1.610 . S
N185 S184 1.613 . S
N185 C188 1.350 . S
N186 S184 1.610 . S
N186 C187 1.351 . S
C187 C181 1.428 . S
C187 N186 1.351 . S
C187 C188 1.434 . S
C188 C179 1.429 . S
C188 N185 1.350 . S
C188 C187 1.434 . S
C189 C190 1.369 . S
C189 C191 1.419 . S
C189 H193 0.930 . S
C190 C189 1.369 . S
C190 C199 1.429 . S
C191 C189 1.419 . S
C191 C192 1.363 . S
C191 H194 0.929 . S
C192 C191 1.363 . S
C192 C198 1.428 . S
H193 C189 0.930 . S
H194 C191 0.929 . S
S195 N196 1.613 . S
S195 N197 1.610 . S
N196 S195 1.613 . S
N196 C199 1.350 . S
N197 S195 1.610 . S
N197 C198 1.351 . S
C198 C192 1.428 . S
C198 N197 1.351 . S
C198 C199 1.434 . S
C199 C190 1.429 . S
C199 N196 1.350 . S
C199 C198 1.434 . S
C200 C201 1.369 . S
C200 C202 1.419 . S
C200 H204 0.930 . S
C201 C200 1.369 . S
C201 C210 1.429 . S
C202 C200 1.419 . S
C202 C203 1.363 . S
C202 H205 0.929 . S
C203 C202 1.363 . S
C203 C209 1.428 . S
H204 C200 0.930 . S
H205 C202 0.929 . S
S206 N207 1.613 . S
S206 N208 1.610 . S
N207 S206 1.613 . S
N207 C210 1.350 . S
N208 S206 1.610 . S
N208 C209 1.351 . S
C209 C203 1.428 . S
C209 N208 1.351 . S
C209 C210 1.434 . S
C210 C201 1.429 . S
C210 N207 1.350 . S
C210 C209 1.434 . S
C211 C212 1.369 . S
C211 C213 1.419 . S
C211 H215 0.930 . S
C212 C211 1.369 . S
C212 C221 1.429 . S
C213 C211 1.419 . S
C213 C214 1.363 . S
C213 H216 0.929 . S
C214 C213 1.363 . S
C214 C220 1.428 . S
H215 C211 0.930 . S
H216 C213 0.929 . S
S217 N218 1.613 . S
S217 N219 1.610 . S
N218 S217 1.613 . S
N218 C221 1.350 . S
N219 S217 1.610 . S
N219 C220 1.351 . S
C220 C214 1.428 . S
C220 N219 1.351 . S
C220 C221 1.434 . S
C221 C212 1.429 . S
C221 N218 1.350 . S
C221 C220 1.434 . S
C222 C223 1.369 . S
C222 C224 1.419 . S
C222 H226 0.930 . S
C223 C222 1.369 . S
C223 C232 1.429 . S
C224 C222 1.419 . S
C224 C225 1.363 . S
C224 H227 0.929 . S
C225 C224 1.363 . S
C225 C231 1.428 . S
H226 C222 0.930 . S
H227 C224 0.929 . S
S228 N229 1.613 . S
S228 N230 1.610 . S
N229 S228 1.613 . S
N229 C232 1.350 . S
N230 S228 1.610 . S
N230 C231 1.351 . S
C231 C225 1.428 . S
C231 N230 1.351 . S
C231 C232 1.434 . S
C232 C223 1.429 . S
C232 N229 1.350 . S
C232 C231 1.434 . S
C233 C234 1.369 . S
C233 C235 1.419 . S
C233 H237 0.930 . S
C234 C233 1.369 . S
C234 C243 1.429 . S
C235 C233 1.419 . S
C235 C236 1.363 . S
C235 H238 0.929 . S
C236 C235 1.363 . S
C236 C242 1.428 . S
H237 C233 0.930 . S
H238 C235 0.929 . S
S239 N240 1.613 . S
S239 N241 1.610 . S
N240 S239 1.613 . S
N240 C243 1.350 . S
N241 S239 1.610 . S
N241 C242 1.351 . S
C242 C236 1.428 . S
C242 N241 1.351 . S
C242 C243 1.434 . S
C243 C234 1.429 . S
C243 N240 1.350 . S
C243 C242 1.434 . S
C244 C245 1.369 . S
C244 C246 1.419 . S
C244 H248 0.930 . S
C245 C244 1.369 . S
C245 C254 1.429 . S
C246 C244 1.419 . S
C246 C247 1.363 . S
C246 H249 0.929 . S
C247 C246 1.363 . S
C247 C253 1.428 . S
H248 C244 0.930 . S
H249 C246 0.929 . S
S250 N251 1.613 . S
S250 N252 1.610 . S
N251 S250 1.613 . S
N251 C254 1.350 . S
N252 S250 1.610 . S
N252 C253 1.351 . S
C253 C247 1.428 . S
C253 N252 1.351 . S
C253 C254 1.434 . S
C254 C245 1.429 . S
C254 N251 1.350 . S
C254 C253 1.434 . S
C255 C256 1.369 . S
C255 C257 1.419 . S
C255 H259 0.930 . S
C256 C255 1.369 . S
C256 C265 1.429 . S
C257 C255 1.419 . S
C257 C258 1.363 . S
C257 H260 0.929 . S
C258 C257 1.363 . S
C258 C264 1.428 . S
H259 C255 0.930 . S
H260 C257 0.929 . S
S261 N262 1.613 . S
S261 N263 1.610 . S
N262 S261 1.613 . S
N262 C265 1.350 . S
N263 S261 1.610 . S
N263 C264 1.351 . S
C264 C258 1.428 . S
C264 N263 1.351 . S
C264 C265 1.434 . S
C265 C256 1.429 . S
C265 N262 1.350 . S
C265 C264 1.434 . S
C266 C267 1.369 . S
C266 C268 1.419 . S
C266 H270 0.930 . S
C267 C266 1.369 . S
C267 C276 1.429 . S
C268 C266 1.419 . S
C268 C269 1.363 . S
C268 H271 0.929 . S
C269 C268 1.363 . S
C269 C275 1.428 . S
H270 C266 0.930 . S
H271 C268 0.929 . S
S272 N273 1.613 . S
S272 N274 1.610 . S
N273 S272 1.613 . S
N273 C276 1.350 . S
N274 S272 1.610 . S
N274 C275 1.351 . S
C275 C269 1.428 . S
C275 N274 1.351 . S
C275 C276 1.434 . S
C276 C267 1.429 . S
C276 N273 1.350 . S
C276 C275 1.434 . S
C277 C278 1.369 . S
C277 C279 1.419 . S
C277 H281 0.930 . S
C278 C277 1.369 . S
C278 C287 1.429 . S
C279 C277 1.419 . S
C279 C280 1.363 . S
C279 H282 0.929 . S
C280 C279 1.363 . S
C280 C286 1.428 . S
H281 C277 0.930 . S
H282 C279 0.929 . S
S283 N284 1.613 . S
S283 N285 1.610 . S
N284 S283 1.613 . S
N284 C287 1.350 . S
N285 S283 1.610 . S
N285 C286 1.351 . S
C286 C280 1.428 . S
C286 N285 1.351 . S
C286 C287 1.434 . S
C287 C278 1.429 . S
C287 N284 1.350 . S
C287 C286 1.434 . S
C288 C289 1.369 . S
C288 C290 1.419 . S
C288 H292 0.930 . S
C289 C288 1.369 . S
C289 C298 1.429 1_455 S
C290 C288 1.419 . S
C290 C291 1.363 1_455 S
C290 H293 0.929 . S
C291 C290 1.363 1_655 S
C291 C297 1.428 . S
H292 C288 0.930 . S
H293 C290 0.929 . S
S294 N295 1.613 . S
S294 N296 1.610 . S
N295 S294 1.613 . S
N295 C298 1.350 . S
N296 S294 1.610 . S
N296 C297 1.351 . S
C297 C291 1.428 . S
C297 N296 1.351 . S
C297 C298 1.434 . S
C298 C289 1.429 1_655 S
C298 N295 1.350 . S
C298 C297 1.434 . S
C299 C300 1.369 . S
C299 C301 1.419 . S
C299 H303 0.930 . S
C300 C299 1.369 . S
C300 C309 1.429 1_565 S
C301 C299 1.419 . S
C301 C302 1.363 1_565 S
C301 H304 0.929 . S
C302 C301 1.363 1_545 S
C302 C308 1.428 . S
H303 C299 0.930 . S
H304 C301 0.929 . S
S305 N306 1.613 . S
S305 N307 1.610 . S
N306 S305 1.613 . S
N306 C309 1.350 . S
N307 S305 1.610 . S
N307 C308 1.351 . S
C308 C302 1.428 . S
C308 N307 1.351 . S
C308 C309 1.434 . S
C309 C300 1.429 1_545 S
C309 N306 1.350 . S
C309 C308 1.434 . S
C310 C311 1.369 1_455 S
C310 C312 1.419 . S
C310 H314 0.930 . S
C311 C310 1.369 1_655 S
C311 C320 1.429 . S
C312 C310 1.419 . S
C312 C313 1.363 1_455 S
C312 H315 0.929 . S
C313 C312 1.363 1_655 S
C313 C319 1.428 . S
H314 C310 0.930 . S
H315 C312 0.929 . S
S316 N317 1.613 . S
S316 N318 1.610 . S
N317 S316 1.613 . S
N317 C320 1.350 . S
N318 S316 1.610 . S
N318 C319 1.351 . S
C319 C313 1.428 . S
C319 N318 1.351 . S
C319 C320 1.434 . S
C320 C311 1.429 . S
C320 N317 1.350 . S
C320 C319 1.434 . S
C321 C322 1.369 1_545 S
C321 C323 1.419 . S
C321 H325 0.930 . S
C322 C321 1.369 1_565 S
C322 C331 1.429 . S
C323 C321 1.419 . S
C323 C324 1.363 . S
C323 H326 0.929 . S
C324 C323 1.363 . S
C324 C330 1.428 1_545 S
H325 C321 0.930 . S
H326 C323 0.929 . S
S327 N328 1.613 . S
S327 N329 1.610 . S
N328 S327 1.613 . S
N328 C331 1.350 . S
N329 S327 1.610 . S
N329 C330 1.351 . S
C330 C324 1.428 1_565 S
C330 N329 1.351 . S
C330 C331 1.434 . S
C331 C322 1.429 . S
C331 N328 1.350 . S
C331 C330 1.434 . S
C332 C333 1.370 . S
C332 C334 1.419 . S
C332 H336 0.930 . S
C333 C332 1.370 . S
C333 C342 1.427 1_565 S
C334 C332 1.419 . S
C334 C335 1.363 1_565 S
C334 H337 0.929 . S
C335 C334 1.363 1_545 S
C335 C341 1.428 . S
H336 C332 0.930 . S
H337 C334 0.929 . S
S338 N339 1.613 . S
S338 N340 1.610 . S
N339 S338 1.613 . S
N339 C342 1.350 . S
N340 S338 1.610 . S
N340 C341 1.351 . S
C341 C335 1.428 . S
C341 N340 1.351 . S
C341 C342 1.434 . S
C342 C333 1.427 1_545 S
C342 N339 1.350 . S
C342 C341 1.434 . S
C343 C344 1.369 . S
C343 C345 1.419 . S
C343 H347 0.930 . S
C344 C343 1.369 . S
C344 C353 1.429 . S
C345 C343 1.419 . S
C345 C346 1.363 1_655 S
C345 H348 0.929 . S
C346 C345 1.363 1_455 S
C346 C352 1.428 . S
H347 C343 0.930 . S
H348 C345 0.929 . S
S349 N350 1.611 1_455 S
S349 N351 1.613 . S
N350 S349 1.611 1_655 S
N350 C353 1.350 . S
N351 S349 1.613 . S
N351 C352 1.351 . S
C352 C346 1.428 . S
C352 N351 1.351 . S
C352 C353 1.434 1_455 S
C353 C344 1.429 . S
C353 N350 1.350 . S
C353 C352 1.434 1_655 S
C354 C355 1.369 1_545 S
C354 C356 1.419 . S
C354 H358 0.930 . S
C355 C354 1.369 1_565 S
C355 C364 1.429 . S
C356 C354 1.419 . S
C356 C357 1.363 . S
C356 H359 0.929 . S
C357 C356 1.363 . S
C357 C363 1.428 1_545 S
H358 C354 0.930 . S
H359 C356 0.929 . S
S360 N361 1.613 . S
S360 N362 1.610 . S
N361 S360 1.613 . S
N361 C364 1.350 . S
N362 S360 1.610 . S
N362 C363 1.351 . S
C363 C357 1.428 1_565 S
C363 N362 1.351 . S
C363 C364 1.434 . S
C364 C355 1.429 . S
C364 N361 1.350 . S
C364 C363 1.434 . S
C365 C366 1.369 . S
C365 C367 1.419 . S
C365 H369 0.930 . S
C366 C365 1.369 . S
C366 C375 1.429 1_455 S
C367 C365 1.419 . S
C367 C368 1.363 1_455 S
C367 H370 0.929 . S
C368 C367 1.363 1_655 S
C368 C374 1.428 . S
H369 C365 0.930 . S
H370 C367 0.929 . S
S371 N372 1.613 . S
S371 N373 1.610 . S
N372 S371 1.613 . S
N372 C375 1.350 . S
N373 S371 1.610 . S
N373 C374 1.351 . S
C374 C368 1.428 . S
C374 N373 1.351 . S
C374 C375 1.434 . S
C375 C366 1.429 1_655 S
C375 N372 1.350 . S
C375 C374 1.434 . S
C376 C377 1.369 1_554 S
C376 C378 1.419 . S
C376 H380 0.930 . S
C377 C376 1.369 1_556 S
C377 C386 1.429 . S
C378 C376 1.419 . S
C378 C379 1.363 . S
C378 H381 0.929 . S
C379 C378 1.363 . S
C379 C385 1.428 1_554 S
H380 C376 0.930 . S
H381 C378 0.929 . S
S382 N383 1.613 . S
S382 N384 1.610 . S
N383 S382 1.613 . S
N383 C386 1.350 . S
N384 S382 1.610 . S
N384 C385 1.351 . S
C385 C379 1.428 1_556 S
C385 N384 1.351 . S
C385 C386 1.434 . S
C386 C377 1.429 . S
C386 N383 1.350 . S
C386 C385 1.434 . S
C387 C388 1.369 1_556 S
C387 C389 1.419 . S
C387 H391 0.930 . S
C388 C387 1.369 1_554 S
C388 C397 1.429 . S
C389 C387 1.419 . S
C389 C390 1.363 . S
C389 H392 0.929 . S
C390 C389 1.363 . S
C390 C396 1.428 1_556 S
H391 C387 0.930 . S
H392 C389 0.929 . S
S393 N394 1.613 . S
S393 N395 1.610 . S
N394 S393 1.613 . S
N394 C397 1.350 . S
N395 S393 1.610 . S
N395 C396 1.351 . S
C396 C390 1.428 1_554 S
C396 N395 1.351 . S
C396 C397 1.434 . S
C397 C388 1.429 . S
C397 N394 1.350 . S
C397 C396 1.434 . S
C398 C399 1.369 1_556 S
C398 C400 1.419 . S
C398 H402 0.930 . S
C399 C398 1.369 1_554 S
C399 C408 1.429 . S
C400 C398 1.419 . S
C400 C401 1.363 . S
C400 H403 0.929 . S
C401 C400 1.363 . S
C401 C407 1.430 . S
H402 C398 0.930 . S
H403 C400 0.929 . S
S404 N405 1.613 . S
S404 N406 1.610 . S
N405 S404 1.613 . S
N405 C408 1.350 . S
N406 S404 1.610 . S
N406 C407 1.350 1_554 S
C407 C401 1.430 . S
C407 N406 1.350 1_556 S
C407 C408 1.433 1_556 S
C408 C399 1.429 . S
C408 N405 1.350 . S
C408 C407 1.433 1_554 S
C409 C410 1.369 . S
C409 C411 1.419 . S
C409 H413 0.930 . S
C410 C409 1.369 . S
C410 C419 1.429 1_556 S
C411 C409 1.419 . S
C411 C412 1.363 1_556 S
C411 H414 0.929 . S
C412 C411 1.363 1_554 S
C412 C418 1.428 . S
H413 C409 0.930 . S
H414 C411 0.929 . S
S415 N416 1.613 . S
S415 N417 1.610 . S
N416 S415 1.613 . S
N416 C419 1.350 . S
N417 S415 1.610 . S
N417 C418 1.351 . S
C418 C412 1.428 . S
C418 N417 1.351 . S
C418 C419 1.434 . S
C419 C410 1.429 1_554 S
C419 N416 1.350 . S
C419 C418 1.434 . S
C157 C1 1.541 . S
C159 C96 1.546 . S
C168 C18 1.530 . S
C170 C55 1.532 . S
C179 C66 1.565 . S
C181 C27 1.603 . S
C190 C81 1.591 . S
C192 C49 1.587 . S
C201 C114 1.612 . S
C203 C92 1.614 . S
C212 C118 1.637 . S
C214 C62 1.633 . S
C223 C140 1.599 . S
C225 C70 1.552 . S
C234 C144 1.615 . S
C236 C88 1.617 . S
C245 C14 1.533 . S
C247 C122 1.536 . S
C256 C133 1.497 . S
C258 C31 1.500 . S
C267 C42 1.523 . S
C269 C148 1.524 . S
C278 C107 1.520 . S
C280 C5 1.518 . S
C289 C83 1.894 . S
C291 C10 1.884 . S
C300 C94 1.855 . S
C302 C16 1.859 . S
C311 C57 1.893 . S
C313 C36 1.888 . S
C322 C40 1.923 . S
C324 C75 1.828 1_545 S
C333 C101 1.874 1_565 S
C335 C68 1.767 1_545 S
C344 C53 1.923 . S
C346 C79 1.923 . S
C355 C44 1.907 . S
C357 C23 1.893 . S
C366 C29 1.855 . S
C368 C3 1.857 . S
C377 C109 1.884 . S
C379 C127 1.872 1_554 S
C388 C120 1.898 . S
C390 C131 1.880 . S
C399 C153 1.899 . S
C401 C135 1.905 . S
C410 C105 1.883 . S
C412 C146 1.897 . S
