# Generated by pormake.
# Topology uol, (4)-cn, num edge types: 1
# Building blocks:
#     Node 0, Type 0, BuildingBlock: ICAMEG_clean_sbu_1, # of connection points: 4
#     Node 1, Type 0, BuildingBlock: ICAMEG_clean_sbu_1, # of connection points: 4
#     Node 2, Type 0, BuildingBlock: ICAMEG_clean_sbu_1, # of connection points: 4
#     Node 3, Type 0, BuildingBlock: ICAMEG_clean_sbu_1, # of connection points: 4
#     Node 4, Type 0, BuildingBlock: ICAMEG_clean_sbu_1, # of connection points: 4
#     Node 5, Type 0, BuildingBlock: ICAMEG_clean_sbu_1, # of connection points: 4
#     Node 6, Type 0, BuildingBlock: ICAMEG_clean_sbu_1, # of connection points: 4
#     Node 7, Type 0, BuildingBlock: ICAMEG_clean_sbu_1, # of connection points: 4
#     Node 8, Type 0, BuildingBlock: ICAMEG_clean_sbu_1, # of connection points: 4
#     Node 9, Type 0, BuildingBlock: ICAMEG_clean_sbu_1, # of connection points: 4
#     Node 10, Type 0, BuildingBlock: ICAMEG_clean_sbu_1, # of connection points: 4
#     Node 11, Type 0, BuildingBlock: ICAMEG_clean_sbu_1, # of connection points: 4
#     Edge 12, Type (0, 0), BuildingBlock: XIVTED_clean_linker_0, # of connection points: 2
#     Edge 13, Type (0, 0), BuildingBlock: XIVTED_clean_linker_0, # of connection points: 2
#     Edge 14, Type (0, 0), BuildingBlock: XIVTED_clean_linker_0, # of connection points: 2
#     Edge 15, Type (0, 0), BuildingBlock: XIVTED_clean_linker_0, # of connection points: 2
#     Edge 16, Type (0, 0), BuildingBlock: XIVTED_clean_linker_0, # of connection points: 2
#     Edge 17, Type (0, 0), BuildingBlock: XIVTED_clean_linker_0, # of connection points: 2
#     Edge 18, Type (0, 0), BuildingBlock: XIVTED_clean_linker_0, # of connection points: 2
#     Edge 19, Type (0, 0), BuildingBlock: XIVTED_clean_linker_0, # of connection points: 2
#     Edge 20, Type (0, 0), BuildingBlock: XIVTED_clean_linker_0, # of connection points: 2
#     Edge 21, Type (0, 0), BuildingBlock: XIVTED_clean_linker_0, # of connection points: 2
#     Edge 22, Type (0, 0), BuildingBlock: XIVTED_clean_linker_0, # of connection points: 2
#     Edge 23, Type (0, 0), BuildingBlock: XIVTED_clean_linker_0, # of connection points: 2
#     Edge 24, Type (0, 0), BuildingBlock: XIVTED_clean_linker_0, # of connection points: 2
#     Edge 25, Type (0, 0), BuildingBlock: XIVTED_clean_linker_0, # of connection points: 2
#     Edge 26, Type (0, 0), BuildingBlock: XIVTED_clean_linker_0, # of connection points: 2
#     Edge 27, Type (0, 0), BuildingBlock: XIVTED_clean_linker_0, # of connection points: 2
#     Edge 28, Type (0, 0), BuildingBlock: XIVTED_clean_linker_0, # of connection points: 2
#     Edge 29, Type (0, 0), BuildingBlock: XIVTED_clean_linker_0, # of connection points: 2
#     Edge 30, Type (0, 0), BuildingBlock: XIVTED_clean_linker_0, # of connection points: 2
#     Edge 31, Type (0, 0), BuildingBlock: XIVTED_clean_linker_0, # of connection points: 2
#     Edge 32, Type (0, 0), BuildingBlock: XIVTED_clean_linker_0, # of connection points: 2
#     Edge 33, Type (0, 0), BuildingBlock: XIVTED_clean_linker_0, # of connection points: 2
#     Edge 34, Type (0, 0), BuildingBlock: XIVTED_clean_linker_0, # of connection points: 2
#     Edge 35, Type (0, 0), BuildingBlock: XIVTED_clean_linker_0, # of connection points: 2
# Relax obj value: 0.050
# Max RMSD: 0.108
# Mean RMSD: 0.108
data_MOF--net-uol--node1-ICAMEG_clean_sbu_1--edge1-XIVTED_clean_linker_0
_symmetry_space_group_name_H-M    P1
_symmetry_Int_Tables_number       1
_symmetry_cell_setting            triclinic
loop_
_symmetry_equiv_pos_as_xyz
'x, y, z'
_cell_length_a     35.197553
_cell_length_b     35.226118
_cell_length_c     72.023141
_cell_angle_alpha  89.995046
_cell_angle_beta   90.023122
_cell_angle_gamma 120.02965
loop_
_atom_site_label
_atom_site_type_symbol
_atom_site_fract_x
_atom_site_fract_y
_atom_site_fract_z
_atom_type_partial_charge
Co0 Co 0.06293 0.28013 0.1108 0.0
Co1 Co 0.15505 0.37747 0.12326 0.0
O2 O 0.09183 0.3391 0.12117 0.0
C3 C 0.0313 0.26781 0.14917 0.0
O4 O 0.07263 0.29225 0.15393 0.0
C5 C 0.12653 0.42672 0.09971 0.0
O6 O 0.10564 0.39104 0.08963 0.0
O7 O 0.16475 0.36393 0.09744 0.0
O8 O 0.1049 0.30008 0.08957 0.0
H9 H 0.31341 0.41885 0.11705 0.0
H10 H 0.01084 0.32244 0.12044 0.0
O11 O 0.02066 0.2594 0.13213 0.0
H12 H 0.98742 0.2911 0.05337 0.0
H13 H 0.93115 0.13513 0.0941 0.0
H14 H 0.09276 0.22331 0.09332 0.0
H15 H 0.03393 0.27035 0.07133 0.0
H16 H 0.96932 0.2103 0.10679 0.0
O17 O 0.14844 0.42739 0.11391 0.0
H18 H 0.23336 0.36976 0.1146 0.0
H19 H 0.21159 0.46939 0.1363 0.0
H20 H 0.05594 0.14843 0.08036 0.0
H21 H 0.96377 0.34343 0.10305 0.0
H22 H 0.97455 0.10382 0.0807 0.0
H23 H 0.95192 0.32787 0.06925 0.0
O24 O 0.10214 0.26444 0.12485 0.0
H25 H 0.08178 0.41785 0.17313 0.0
H26 H 0.19568 0.37918 0.15979 0.0
H27 H 0.18339 0.39362 0.1921 0.0
H28 H 0.12612 0.41319 0.19893 0.0
H29 H 0.09493 0.40279 0.14104 0.0
H30 H 0.29145 0.51969 0.13886 0.0
H31 H 0.34293 0.49442 0.12926 0.0
O32 O 0.16231 0.32816 0.13241 0.0
C33 C 0.14303 0.33241 0.08615 0.0
C34 C 0.29131 0.4302 0.12133 0.0
C35 C 0.27898 0.48682 0.13355 0.0
N36 N 0.21786 0.4166 0.12541 0.0
C37 C 0.24595 0.40252 0.12002 0.0
C38 C 0.23381 0.45823 0.13202 0.0
C39 C 0.30785 0.47261 0.12816 0.0
C40 C 0.00554 0.31523 0.10577 0.0
N41 N 0.02497 0.29504 0.09692 0.0
C42 C 0.97898 0.32734 0.09598 0.0
C43 C 0.97239 0.31865 0.07701 0.0
C44 C 0.99232 0.29804 0.06809 0.0
C45 C 0.01871 0.28646 0.07832 0.0
C46 C 0.96662 0.15428 0.09384 0.0
C47 C 0.05732 0.20418 0.09341 0.0
C48 C 0.98841 0.19681 0.10104 0.0
N49 N 0.03319 0.22125 0.10065 0.0
C50 C 0.03666 0.16176 0.0861 0.0
C51 C 0.991 0.13673 0.08632 0.0
C52 C 0.14025 0.28635 0.13211 0.0
C53 C 0.10692 0.40949 0.17032 0.0
C54 C 0.17066 0.3876 0.16266 0.0
C55 C 0.16389 0.39582 0.18097 0.0
C56 C 0.13177 0.40681 0.1848 0.0
N57 N 0.14622 0.3904 0.14853 0.0
C58 C 0.11463 0.4011 0.15217 0.0
Co59 Co 0.78108 0.05586 0.2813 0.0
Co60 Co 0.77723 0.15138 0.2848 0.0
O61 O 0.7499 0.08762 0.28642 0.0
C62 C 0.74253 0.0249 0.3183 0.0
O63 O 0.75617 0.066 0.32251 0.0
C64 C 0.69678 0.11699 0.26213 0.0
O65 O 0.70621 0.08829 0.25513 0.0
O66 O 0.79926 0.15139 0.25937 0.0
O67 O 0.81409 0.09636 0.26045 0.0
H68 H 0.89917 0.30398 0.27079 0.0
H69 H 0.68395 0.00602 0.28369 0.0
O70 O 0.74931 0.01478 0.30217 0.0
H71 H 0.71891 0.98021 0.22029 0.0
H72 H 0.79262 0.91984 0.27396 0.0
H73 H 0.87343 0.08151 0.27305 0.0
H74 H 0.77807 0.02611 0.24226 0.0
H75 H 0.75414 0.96107 0.27975 0.0
O76 O 0.72204 0.145 0.27401 0.0
H77 H 0.86456 0.22356 0.2732 0.0
H78 H 0.74639 0.21479 0.29248 0.0
H79 H 0.91315 0.04162 0.26704 0.0
H80 H 0.62376 0.95951 0.26223 0.0
H81 H 0.87267 0.96017 0.26746 0.0
H82 H 0.6411 0.94649 0.23025 0.0
O83 O 0.82912 0.09413 0.29864 0.0
H84 H 0.66326 0.09865 0.33517 0.0
H85 H 0.8177 0.20247 0.31941 0.0
H86 H 0.7913 0.20158 0.3512 0.0
H87 H 0.71354 0.14943 0.35925 0.0
H88 H 0.69116 0.10031 0.30359 0.0
H89 H 0.77959 0.29508 0.29012 0.0
H90 H 0.85659 0.34025 0.27929 0.0
O91 O 0.8331 0.15947 0.29562 0.0
C92 C 0.81656 0.13007 0.25268 0.0
C93 C 0.86564 0.28467 0.27558 0.0
C94 C 0.79851 0.27967 0.28642 0.0
N95 N 0.80364 0.21456 0.28311 0.0
C96 C 0.84591 0.23914 0.27703 0.0
C97 C 0.77986 0.23421 0.28768 0.0
C98 C 0.84172 0.30499 0.28034 0.0
C99 C 0.69175 8e-05 0.26987 0.0
N100 N 0.73446 0.01862 0.26426 0.0
C101 C 0.65754 0.9739 0.25774 0.0
C102 C 0.66729 0.96668 0.23979 0.0
C103 C 0.71094 0.98563 0.23419 0.0
C104 C 0.74429 0.0117 0.24667 0.0
C105 C 0.81059 0.95532 0.27367 0.0
C106 C 0.85553 0.04608 0.27309 0.0
C107 C 0.78899 0.97884 0.27695 0.0
N108 N 0.81143 0.02365 0.27649 0.0
C109 C 0.87822 0.02367 0.26975 0.0
C110 C 0.8555 0.97797 0.27002 0.0
C111 C 0.84823 0.13539 0.30141 0.0
C112 C 0.69718 0.1216 0.33182 0.0
C113 C 0.78387 0.17956 0.32282 0.0
C114 C 0.76907 0.17929 0.34083 0.0
C115 C 0.72543 0.15006 0.34533 0.0
N116 N 0.75596 0.15155 0.30964 0.0
C117 C 0.71311 0.12284 0.31394 0.0
Co118 Co 0.71914 0.78455 0.44592 0.0
Co119 Co 0.62024 0.77563 0.4588 0.0
O120 O 0.65922 0.75175 0.45537 0.0
C121 C 0.72691 0.75422 0.48292 0.0
O122 O 0.69842 0.76548 0.48846 0.0
C123 C 0.57185 0.70195 0.4329 0.0
O124 O 0.60746 0.71878 0.42267 0.0
O125 O 0.63505 0.80372 0.4338 0.0
O126 O 0.69996 0.81014 0.42585 0.0
H127 H 0.57795 0.89236 0.45755 0.0
H128 H 0.67663 0.68858 0.4519 0.0
O129 O 0.73938 0.75959 0.46606 0.0
H130 H 0.71393 0.71094 0.38531 0.0
H131 H 0.86642 0.8039 0.4287 0.0
H132 H 0.77606 0.87472 0.43165 0.0
H133 H 0.73281 0.77401 0.40583 0.0
H134 H 0.79035 0.76326 0.44036 0.0
O135 O 0.57101 0.72075 0.44787 0.0
H136 H 0.62763 0.8626 0.45339 0.0
H137 H 0.52751 0.73714 0.47135 0.0
H138 H 0.85184 0.91646 0.41975 0.0
H139 H 0.65747 0.62456 0.43193 0.0
H140 H 0.89755 0.88101 0.41822 0.0
H141 H 0.67603 0.63555 0.39836 0.0
O142 O 0.73321 0.83589 0.46214 0.0
H143 H 0.57783 0.65296 0.50447 0.0
H144 H 0.61638 0.8073 0.49676 0.0
H145 H 0.6005 0.7745 0.52806 0.0
H146 H 0.58104 0.69678 0.53206 0.0
H147 H 0.5943 0.68715 0.47344 0.0
H148 H 0.47661 0.76546 0.47558 0.0
H149 H 0.50182 0.84364 0.46872 0.0
O150 O 0.66873 0.83052 0.46967 0.0
C151 C 0.66751 0.81593 0.42277 0.0
C152 C 0.56661 0.85826 0.46063 0.0
C153 C 0.50972 0.78702 0.47072 0.0
N154 N 0.58057 0.79826 0.46223 0.0
C155 C 0.59463 0.84125 0.45834 0.0
C156 C 0.53865 0.77115 0.46826 0.0
C157 C 0.52389 0.8309 0.46688 0.0
C158 C 0.6851 0.69363 0.43733 0.0
N159 N 0.70588 0.73497 0.43004 0.0
C160 C 0.67405 0.65725 0.42608 0.0
C161 C 0.68442 0.66344 0.40724 0.0
C162 C 0.70566 0.70572 0.39991 0.0
C163 C 0.71615 0.7413 0.41158 0.0
C164 C 0.8468 0.81968 0.42927 0.0
C165 C 0.79568 0.859 0.43092 0.0
C166 C 0.80375 0.79686 0.43589 0.0
N167 N 0.77872 0.81652 0.43655 0.0
C168 C 0.83859 0.88283 0.42422 0.0
C169 C 0.86424 0.86294 0.42338 0.0
C170 C 0.71054 0.85034 0.47006 0.0
C171 C 0.58613 0.68681 0.5029 0.0
C172 C 0.60798 0.77347 0.49839 0.0
C173 C 0.59895 0.75506 0.51614 0.0
C174 C 0.58801 0.71144 0.51837 0.0
N175 N 0.60604 0.74909 0.48327 0.0
C176 C 0.59529 0.70629 0.48535 0.0
Co177 Co 0.93904 0.72143 0.61168 0.0
Co178 Co 0.84519 0.62309 0.62186 0.0
O179 O 0.90884 0.66098 0.62066 0.0
C180 C 0.97086 0.72598 0.64981 0.0
O181 O 0.93002 0.69825 0.65433 0.0
C182 C 0.87673 0.57588 0.5986 0.0
O183 O 0.90302 0.61356 0.59059 0.0
O184 O 0.83771 0.63978 0.59632 0.0
O185 O 0.89779 0.70483 0.59024 0.0
H186 H 0.68825 0.58585 0.6145 0.0
H187 H 0.99002 0.67714 0.61976 0.0
O188 O 0.98074 0.73928 0.63313 0.0
H189 H 0.01526 0.71626 0.55339 0.0
H190 H 0.07242 0.86748 0.59778 0.0
H191 H 0.91074 0.78132 0.59616 0.0
H192 H 0.96902 0.73572 0.57226 0.0
H193 H 0.03313 0.79078 0.60866 0.0
O194 O 0.85073 0.57344 0.61144 0.0
H195 H 0.76863 0.63377 0.6132 0.0
H196 H 0.78626 0.53002 0.63298 0.0
H197 H 0.9487 0.8578 0.58501 0.0
H198 H 0.0368 0.65737 0.60146 0.0
H199 H 0.03013 0.90141 0.58578 0.0
H200 H 0.04953 0.6768 0.568 0.0
O201 O 0.9002 0.73593 0.62654 0.0
H202 H 0.91348 0.57474 0.67092 0.0
H203 H 0.80267 0.61805 0.65828 0.0
H204 H 0.81256 0.59953 0.69028 0.0
H205 H 0.8683 0.57767 0.69675 0.0
H206 H 0.90273 0.59385 0.63915 0.0
H207 H 0.70604 0.48085 0.63436 0.0
H208 H 0.65646 0.50877 0.62514 0.0
O209 O 0.83846 0.67196 0.63204 0.0
C210 C 0.86007 0.67295 0.58591 0.0
C211 C 0.70951 0.57333 0.6186 0.0
C212 C 0.7195 0.51438 0.62973 0.0
N213 N 0.78209 0.5848 0.62312 0.0
C214 C 0.75505 0.60035 0.61795 0.0
C215 C 0.76488 0.54235 0.62888 0.0
C216 C 0.6917 0.53007 0.62456 0.0
C217 C 0.9958 0.68613 0.60526 0.0
N218 N 0.97695 0.7077 0.59711 0.0
C219 C 0.02215 0.67467 0.59495 0.0
C220 C 0.02922 0.68552 0.57617 0.0
C221 C 0.00997 0.70763 0.56796 0.0
C222 C 0.98373 0.71847 0.5787 0.0
C223 C 0.03694 0.84879 0.59734 0.0
C224 C 0.94619 0.80001 0.59643 0.0
C225 C 0.01452 0.80538 0.60351 0.0
N226 N 0.96972 0.78152 0.6029 0.0
C227 C 0.9675 0.84333 0.59015 0.0
C228 C 0.01319 0.8678 0.5906 0.0
C229 C 0.86142 0.71364 0.63307 0.0
C230 C 0.88899 0.58407 0.66826 0.0
C231 C 0.82702 0.6086 0.66099 0.0
C232 C 0.83242 0.59808 0.67913 0.0
C233 C 0.86367 0.58579 0.68275 0.0
N234 N 0.85194 0.60679 0.64685 0.0
C235 C 0.88262 0.59472 0.65029 0.0
Co236 Co 0.21623 0.93129 0.78019 0.0
Co237 Co 0.2199 0.83696 0.78954 0.0
O238 O 0.24599 0.90041 0.78863 0.0
C239 C 0.24131 0.96043 0.81861 0.0
O240 O 0.22432 0.91877 0.82274 0.0
C241 C 0.29681 0.86671 0.76522 0.0
O242 O 0.28174 0.88817 0.75572 0.0
O243 O 0.19508 0.8301 0.76406 0.0
O244 O 0.19071 0.89079 0.75861 0.0
H245 H 0.0998 0.68032 0.78204 0.0
H246 H 0.31185 0.9804 0.78789 0.0
O247 O 0.24127 0.97212 0.80188 0.0
H248 H 0.29699 0.00887 0.72201 0.0
H249 H 0.20563 0.06632 0.76783 0.0
H250 H 0.12805 0.90479 0.76501 0.0
H251 H 0.23145 0.96283 0.74102 0.0
H252 H 0.24223 0.02571 0.77803 0.0
O253 O 0.27553 0.84338 0.77912 0.0
H254 H 0.1323 0.76065 0.78105 0.0
H255 H 0.25429 0.77785 0.79991 0.0
H256 H 0.09032 0.94409 0.75453 0.0
H257 H 0.37828 0.02693 0.76944 0.0
H258 H 0.12918 0.02544 0.75591 0.0
H259 H 0.37108 0.04131 0.73623 0.0
O260 O 0.16266 0.8923 0.79505 0.0
H261 H 0.33683 0.90379 0.83862 0.0
H262 H 0.18261 0.7933 0.82578 0.0
H263 H 0.21118 0.80206 0.85771 0.0
H264 H 0.28884 0.85759 0.86429 0.0
H265 H 0.30682 0.89421 0.80693 0.0
H266 H 0.22319 0.69767 0.80097 0.0
H267 H 0.14537 0.64833 0.79206 0.0
O268 O 0.16441 0.83012 0.79993 0.0
C269 C 0.18422 0.85301 0.754 0.0
C270 C 0.13373 0.70147 0.78599 0.0
C271 C 0.203 0.71121 0.7966 0.0
N272 N 0.19507 0.77389 0.79049 0.0
C273 C 0.15229 0.74698 0.7855 0.0
C274 C 0.22046 0.75658 0.79591 0.0
C275 C 0.15932 0.68354 0.7916 0.0
C276 C 0.30844 0.98682 0.77349 0.0
N277 N 0.26782 0.96904 0.76555 0.0
C278 C 0.34618 0.01306 0.7631 0.0
C279 C 0.34211 0.02107 0.74446 0.0
C280 C 0.30056 0.00285 0.73646 0.0
C281 C 0.26357 0.97672 0.74728 0.0
C282 C 0.18838 0.03088 0.76713 0.0
C283 C 0.14525 0.94021 0.76554 0.0
C284 C 0.2089 0.00771 0.77292 0.0
N285 N 0.18739 0.96297 0.77197 0.0
C286 C 0.12369 0.96227 0.75964 0.0
C287 C 0.1455 0.00792 0.76043 0.0
C288 C 0.14594 0.85326 0.80132 0.0
C289 C 0.30298 0.87939 0.83592 0.0
C290 C 0.21642 0.81759 0.82854 0.0
C291 C 0.23243 0.82235 0.84664 0.0
C292 C 0.27601 0.8535 0.85032 0.0
N293 N 0.24309 0.84304 0.81448 0.0
C294 C 0.28585 0.87369 0.81799 0.0
Co295 Co 0.27029 0.21395 0.94595 0.0
Co296 Co 0.37065 0.22242 0.95371 0.0
O297 O 0.33249 0.24762 0.95224 0.0
C298 C 0.27311 0.25653 0.98122 0.0
O299 O 0.30076 0.24417 0.98678 0.0
C300 C 0.41878 0.29765 0.92834 0.0
O301 O 0.38374 0.28114 0.91774 0.0
O302 O 0.35243 0.19659 0.92841 0.0
O303 O 0.28154 0.17896 0.92723 0.0
H304 H 0.40946 0.10387 0.94697 0.0
H305 H 0.31597 0.31107 0.94554 0.0
O306 O 0.25747 0.24762 0.96484 0.0
H307 H 0.26171 0.2653 0.88167 0.0
H308 H 0.12177 0.19612 0.93274 0.0
H309 H 0.20638 0.1199 0.93937 0.0
H310 H 0.24705 0.21015 0.90591 0.0
H311 H 0.2008 0.23753 0.94015 0.0
O312 O 0.41935 0.27775 0.94299 0.0
H313 H 0.36078 0.1354 0.94551 0.0
H314 H 0.46433 0.25815 0.96434 0.0
H315 H 0.12753 0.07723 0.93179 0.0
H316 H 0.33112 0.36735 0.92176 0.0
H317 H 0.08468 0.1154 0.92842 0.0
H318 H 0.30397 0.34454 0.88955 0.0
O319 O 0.25994 0.169 0.96504 0.0
H320 H 0.42141 0.342 0.00155 0.0
H321 H 0.37779 0.1873 0.99044 0.0
H322 H 0.39816 0.21772 0.02207 0.0
H323 H 0.42024 0.29562 0.02778 0.0
H324 H 0.40027 0.31012 0.97019 0.0
H325 H 0.51424 0.22804 0.96586 0.0
H326 H 0.48679 0.15031 0.95721 0.0
O327 O 0.32264 0.16685 0.96466 0.0
C328 C 0.31437 0.17681 0.92103 0.0
C329 C 0.42176 0.13775 0.95083 0.0
C330 C 0.48059 0.20745 0.96141 0.0
N331 N 0.4096 0.19845 0.95498 0.0
C332 C 0.39432 0.15575 0.95008 0.0
C333 C 0.45221 0.22434 0.96048 0.0
C334 C 0.46516 0.16383 0.95656 0.0
C335 C 0.30371 0.30092 0.9316 0.0
N336 N 0.28041 0.25741 0.92714 0.0
C337 C 0.31253 0.33292 0.91817 0.0
C338 C 0.29735 0.3201 0.9001 0.0
C339 C 0.27365 0.27564 0.89566 0.0
C340 C 0.26552 0.24457 0.90944 0.0
C341 C 0.14013 0.17914 0.93409 0.0
C342 C 0.18806 0.13677 0.93772 0.0
C343 C 0.18487 0.2024 0.93829 0.0
N344 N 0.20831 0.18121 0.9399 0.0
C345 C 0.14337 0.11242 0.93352 0.0
C346 C 0.11934 0.13385 0.93166 0.0
C347 C 0.2826 0.15125 0.96941 0.0
C348 C 0.41199 0.30804 -0.00077 0.0
C349 C 0.38718 0.22118 0.99282 0.0
C350 C 0.39881 0.23826 0.01075 0.0
C351 C 0.41124 0.28198 0.01394 0.0
N352 N 0.38798 0.24694 0.97846 0.0
C353 C 0.40021 0.28987 0.98148 0.0
Co354 Co 0.72458 0.93782 0.71506 0.0
Co355 Co 0.62355 0.84781 0.7057 0.0
O356 O 0.6629 0.91084 0.70802 0.0
C357 C 0.72517 0.97893 0.67967 0.0
O358 O 0.69689 0.93927 0.67394 0.0
C359 C 0.57622 0.87458 0.73157 0.0
O360 O 0.61144 0.89232 0.74208 0.0
O361 O 0.64015 0.83756 0.73086 0.0
O362 O 0.71082 0.89073 0.7337 0.0
H363 H 0.58057 0.68892 0.71031 0.0
H364 H 0.68115 0.99139 0.7147 0.0
O365 O 0.73988 0.98505 0.69621 0.0
H366 H 0.73014 0.99674 0.77929 0.0
H367 H 0.87364 0.06586 0.72998 0.0
H368 H 0.78621 0.90532 0.7227 0.0
H369 H 0.74507 0.95578 0.75537 0.0
H370 H 0.79525 0.03009 0.72154 0.0
O371 O 0.57531 0.85495 0.7166 0.0
H372 H 0.63078 0.76871 0.71283 0.0
H373 H 0.53003 0.79255 0.69428 0.0
H374 H 0.86436 0.93963 0.73131 0.0
H375 H 0.66579 0.03301 0.73815 0.0
H376 H 0.90863 0.0205 0.73501 0.0
H377 H 0.69028 0.03577 0.77072 0.0
O378 O 0.73524 0.90301 0.69622 0.0
H379 H 0.57734 0.92268 0.65887 0.0
H380 H 0.61697 0.80816 0.66839 0.0
H381 H 0.59855 0.82147 0.63692 0.0
H382 H 0.5785 0.87906 0.63201 0.0
H383 H 0.59648 0.90864 0.69007 0.0
H384 H 0.47862 0.71299 0.6917 0.0
H385 H 0.50389 0.66059 0.69968 0.0
O386 O 0.67112 0.83964 0.69468 0.0
C387 C 0.67725 0.85526 0.73906 0.0
C388 C 0.56922 0.71142 0.70674 0.0
C389 C 0.51198 0.72494 0.69631 0.0
N390 N 0.58345 0.78524 0.70355 0.0
C391 C 0.59753 0.75664 0.70809 0.0
C392 C 0.54121 0.76994 0.69784 0.0
C393 C 0.52618 0.69555 0.70079 0.0
C394 C 0.69225 0.9928 0.72881 0.0
N395 N 0.71422 0.97146 0.73364 0.0
C396 C 0.68331 0.01626 0.74204 0.0
C397 C 0.69701 0.01774 0.76032 0.0
C398 C 0.71936 0.99583 0.76514 0.0
C399 C 0.72765 0.97263 0.75155 0.0
C400 C 0.85465 0.03058 0.72849 0.0
C401 C 0.80514 0.94045 0.72448 0.0
C402 C 0.81027 0.01015 0.72371 0.0
N403 N 0.78604 0.96559 0.72191 0.0
C404 C 0.84943 0.95973 0.72927 0.0
C405 C 0.87426 0.00511 0.73131 0.0
C406 C 0.71188 0.86332 0.69093 0.0
C407 C 0.5859 0.89741 0.66084 0.0
C408 C 0.60844 0.83339 0.66636 0.0
C409 C 0.59792 0.84069 0.64851 0.0
C410 C 0.58663 0.87297 0.64577 0.0
N411 N 0.60766 0.8575 0.68107 0.0
C412 C 0.59654 0.88915 0.6785 0.0
Co413 Co 0.7779 0.71933 0.88077 0.0
Co414 Co 0.77755 0.62171 0.87696 0.0
O415 O 0.74939 0.65704 0.875 0.0
C416 C 0.74812 0.7137 0.84243 0.0
O417 O 0.76666 0.68996 0.83929 0.0
C418 C 0.69807 0.57432 0.89996 0.0
O419 O 0.7112 0.61098 0.90917 0.0
O420 O 0.79827 0.64342 0.90262 0.0
O421 O 0.80811 0.71166 0.90269 0.0
H422 H 0.89969 0.59228 0.89238 0.0
H423 H 0.68142 0.66852 0.87551 0.0
O424 O 0.74866 0.72818 0.85868 0.0
H425 H 0.70376 0.72608 0.93942 0.0
H426 H 0.78246 0.86378 0.88742 0.0
H427 H 0.86767 0.78773 0.89183 0.0
H428 H 0.76713 0.74328 0.91933 0.0
H429 H 0.74762 0.78458 0.88079 0.0
O430 O 0.72142 0.57243 0.8869 0.0
H431 H 0.86457 0.63753 0.88951 0.0
H432 H 0.74801 0.52788 0.86913 0.0
H433 H 0.90375 0.86685 0.89873 0.0
H434 H 0.61711 0.65076 0.89508 0.0
H435 H 0.86103 0.90539 0.89655 0.0
H436 H 0.6281 0.67954 0.9273 0.0
O437 O 0.82965 0.73197 0.86517 0.0
H438 H 0.66742 0.56142 0.82504 0.0
H439 H 0.82084 0.61276 0.84298 0.0
H440 H 0.79699 0.58817 0.81085 0.0
H441 H 0.71975 0.56218 0.80171 0.0
H442 H 0.69276 0.58673 0.85696 0.0
H443 H 0.78176 0.48134 0.87192 0.0
H444 H 0.8582 0.51358 0.88354 0.0
O445 O 0.8338 0.67042 0.86687 0.0
C446 C 0.8124 0.68104 0.91005 0.0
C447 C 0.86642 0.57788 0.88724 0.0
C448 C 0.8002 0.5156 0.87578 0.0
N449 N 0.80444 0.58545 0.87901 0.0
C450 C 0.8464 0.60337 0.88553 0.0
C451 C 0.78124 0.54209 0.87427 0.0
C452 C 0.8431 0.53372 0.8823 0.0
C453 C 0.68644 0.6815 0.88946 0.0
N454 N 0.72794 0.70712 0.89623 0.0
C455 C 0.64991 0.67119 0.9005 0.0
C456 C 0.65611 0.68729 0.91859 0.0
C457 C 0.69855 0.71339 0.9254 0.0
C458 C 0.7343 0.72296 0.91397 0.0
C459 C 0.80137 0.84732 0.8885 0.0
C460 C 0.84878 0.80419 0.89103 0.0
C461 C 0.78183 0.8025 0.88475 0.0
N462 N 0.80544 0.78146 0.8862 0.0
C463 C 0.86943 0.84903 0.89487 0.0
C464 C 0.84546 0.87064 0.89362 0.0
C465 C 0.8493 0.71042 0.86212 0.0
C466 C 0.70113 0.57255 0.82887 0.0
C467 C 0.78721 0.60163 0.8391 0.0
C468 C 0.77387 0.58765 0.82089 0.0
C469 C 0.73052 0.57304 0.81578 0.0
N470 N 0.75817 0.60097 0.85187 0.0
C471 C 0.71562 0.58673 0.84695 0.0
Co472 Co 0.06439 0.78276 0.05019 0.0
Co473 Co 0.15642 0.77756 0.0376 0.0
O474 O 0.09322 0.75255 0.03996 0.0
C475 C 0.03095 0.76168 0.01206 0.0
O476 O 0.07205 0.77903 0.00688 0.0
C477 C 0.1289 0.70091 0.06174 0.0
O478 O 0.10855 0.71625 0.07184 0.0
O479 O 0.16699 0.80212 0.06323 0.0
O480 O 0.10712 0.80605 0.07112 0.0
H481 H 0.31483 0.89533 0.04242 0.0
H482 H 0.0126 0.68787 0.0414 0.0
O483 O 0.02123 0.7599 0.02919 0.0
H484 H 0.99147 0.69887 0.10845 0.0
H485 H 0.93271 0.7958 0.06724 0.0
H486 H 0.09437 0.87018 0.06696 0.0
H487 H 0.03679 0.76535 0.08986 0.0
H488 H 0.97077 0.7586 0.05469 0.0
O489 O 0.15029 0.72153 0.04734 0.0
H490 H 0.23485 0.86422 0.04533 0.0
H491 H 0.21275 0.74181 0.02476 0.0
H492 H 0.05766 0.90846 0.07977 0.0
H493 H 0.9667 0.62055 0.05942 0.0
H494 H 0.97625 0.87122 0.07997 0.0
H495 H 0.95601 0.62581 0.09321 0.0
O496 O 0.1029 0.83709 0.03566 0.0
H497 H 0.08195 0.66152 0.98869 0.0
H498 H 0.1957 0.8149 0.00072 0.0
H499 H 0.18253 0.78666 0.96863 0.0
H500 H 0.12535 0.70941 0.96246 0.0
H501 H 0.09596 0.6912 0.02054 0.0
H502 H 0.29253 0.7715 0.02174 0.0
H503 H 0.34415 0.84884 0.03055 0.0
O504 O 0.16308 0.83357 0.02807 0.0
C505 C 0.14548 0.81236 0.07444 0.0
C506 C 0.29267 0.86161 0.03849 0.0
C507 C 0.28016 0.79209 0.02692 0.0
N508 N 0.21917 0.80133 0.03513 0.0
C509 C 0.24735 0.84384 0.04008 0.0
C510 C 0.23503 0.77543 0.0287 0.0
C511 C 0.3091 0.8355 0.03185 0.0
C512 C 0.0078 0.69044 0.05606 0.0
N513 N 0.02722 0.73049 0.06456 0.0
C514 C 0.9819 0.6522 0.06621 0.0
C515 C 0.97596 0.65517 0.08518 0.0
C516 C 0.99587 0.69615 0.09374 0.0
C517 C 0.02158 0.73367 0.08315 0.0
C518 C 0.9682 0.81234 0.06726 0.0
C519 C 0.05893 0.85367 0.0671 0.0
C520 C 0.98992 0.79148 0.06014 0.0
N521 N 0.03473 0.81209 0.06023 0.0
C522 C 0.03833 0.87555 0.07432 0.0
C523 C 0.99265 0.85465 0.07441 0.0
C524 C 0.14088 0.85317 0.02828 0.0
C525 C 0.10705 0.69519 0.99121 0.0
C526 C 0.1707 0.78128 -0.00186 0.0
C527 C 0.16345 0.76545 0.97995 0.0
C528 C 0.13137 0.7221 0.97649 0.0
N529 N 0.1468 0.75464 0.0125 0.0
C530 C 0.11524 0.71213 0.00922 0.0
Co531 Co 0.27419 0.0584 0.21441 0.0
Co532 Co 0.37399 0.15285 0.20894 0.0
O533 O 0.33686 0.08904 0.20858 0.0
C534 C 0.27929 0.02369 0.17799 0.0
O535 O 0.30697 0.06434 0.1732 0.0
C536 C 0.42108 0.12018 0.23195 0.0
O537 O 0.38335 0.09229 0.23953 0.0
O538 O 0.35387 0.15575 0.23443 0.0
O539 O 0.28355 0.10129 0.23452 0.0
H540 H 0.40727 0.30727 0.22022 0.0
H541 H 0.32032 0.00742 0.21274 0.0
O542 O 0.26305 0.01505 0.19427 0.0
H543 H 0.2639 0.98903 0.27672 0.0
H544 H 0.12631 0.92419 0.22451 0.0
H545 H 0.20871 0.08578 0.22236 0.0
H546 H 0.24988 0.03302 0.25401 0.0
H547 H 0.20568 0.96412 0.21778 0.0
O548 O 0.42322 0.14709 0.21964 0.0
H549 H 0.3606 0.22674 0.21937 0.0
H550 H 0.46791 0.21469 0.19982 0.0
H551 H 0.12946 0.04723 0.22929 0.0
H552 H 0.33469 0.96276 0.23495 0.0
H553 H 0.08772 0.96583 0.23041 0.0
H554 H 0.30653 0.95348 0.26722 0.0
O555 O 0.26381 0.09511 0.19645 0.0
H556 H 0.43085 0.09393 0.15932 0.0
H557 H 0.38266 0.20031 0.17344 0.0
H558 H 0.40581 0.19575 0.14161 0.0
H559 H 0.43019 0.1423 0.13438 0.0
H560 H 0.40696 0.09923 0.19092 0.0
H561 H 0.51585 0.29507 0.2006 0.0
H562 H 0.4855 0.34193 0.21079 0.0
O563 O 0.32581 0.16036 0.19817 0.0
C564 C 0.31564 0.13557 0.24159 0.0
C565 C 0.42084 0.28721 0.2157 0.0
C566 C 0.48179 0.28036 0.20471 0.0
N567 N 0.41142 0.21608 0.20941 0.0
C568 C 0.39455 0.24161 0.21515 0.0
C569 C 0.45452 0.23486 0.20433 0.0
C570 C 0.46474 0.30663 0.21042 0.0
C571 C 0.30752 0.00311 0.2267 0.0
N572 N 0.28416 0.02266 0.23205 0.0
C573 C 0.31595 0.97796 0.23923 0.0
C574 C 0.30021 0.97284 0.25735 0.0
C575 C 0.27634 0.99283 0.2627 0.0
C576 C 0.26862 0.01781 0.24979 0.0
C577 C 0.14417 0.95967 0.22414 0.0
C578 C 0.19085 0.05039 0.22301 0.0
C579 C 0.1891 0.98245 0.22033 0.0
N580 N 0.21191 0.02726 0.21995 0.0
C581 C 0.14595 0.02872 0.22685 0.0
C582 C 0.12254 0.98305 0.22745 0.0
C583 C 0.28617 0.136 0.19291 0.0
C584 C 0.42042 0.11743 0.16231 0.0
C585 C 0.39305 0.17684 0.1704 0.0
C586 C 0.40625 0.1745 0.15235 0.0
C587 C 0.41997 0.14453 0.14831 0.0
N588 N 0.39359 0.15015 0.18405 0.0
C589 C 0.40706 0.12074 0.1802 0.0
Co590 Co 0.21687 0.28302 0.38278 0.0
Co591 Co 0.21974 0.38014 0.37222 0.0
O592 O 0.24605 0.34301 0.37355 0.0
C593 C 0.23871 0.27563 0.3442 0.0
O594 O 0.22158 0.30015 0.34001 0.0
C595 C 0.2965 0.4286 0.39649 0.0
O596 O 0.28184 0.3922 0.40605 0.0
O597 O 0.19527 0.36335 0.39778 0.0
O598 O 0.19274 0.2996 0.40436 0.0
H599 H 0.09935 0.41644 0.37915 0.0
H600 H 0.31187 0.32859 0.37391 0.0
O601 O 0.24032 0.26551 0.36105 0.0
H602 H 0.30165 0.29096 0.44037 0.0
H603 H 0.20726 0.13845 0.3967 0.0
H604 H 0.12972 0.22246 0.39915 0.0
H605 H 0.2348 0.27006 0.42203 0.0
H606 H 0.24309 0.21485 0.38548 0.0
O607 O 0.27534 0.43003 0.38241 0.0
H608 H 0.13215 0.36891 0.38067 0.0
H609 H 0.25357 0.47302 0.36099 0.0
H610 H 0.09278 0.14628 0.41064 0.0
H611 H 0.37956 0.34983 0.39167 0.0
H612 H 0.13163 0.10376 0.40946 0.0
H613 H 0.37469 0.33111 0.42517 0.0
O614 O 0.16229 0.26733 0.36848 0.0
H615 H 0.33616 0.4286 0.32304 0.0
H616 H 0.18183 0.38443 0.33581 0.0
H617 H 0.21 0.40289 0.30378 0.0
H618 H 0.28772 0.42523 0.29724 0.0
H619 H 0.30654 0.40951 0.35483 0.0
H620 H 0.22217 0.5218 0.35938 0.0
H621 H 0.14448 0.4935 0.36844 0.0
O622 O 0.16416 0.3308 0.36218 0.0
C623 C 0.18553 0.33071 0.40841 0.0
C624 C 0.13321 0.42912 0.37512 0.0
C625 C 0.20217 0.48828 0.36405 0.0
N626 N 0.19464 0.4181 0.37083 0.0
C627 C 0.15194 0.40233 0.37591 0.0
C628 C 0.21979 0.46054 0.36504 0.0
C629 C 0.15856 0.47237 0.36913 0.0
C630 C 0.30948 0.32 0.38844 0.0
N631 N 0.26944 0.29795 0.39691 0.0
C632 C 0.34792 0.33225 0.39844 0.0
C633 C 0.34516 0.32178 0.41724 0.0
C634 C 0.3042 0.29928 0.42578 0.0
C635 C 0.26647 0.28762 0.41534 0.0
C636 C 0.19003 0.15667 0.39732 0.0
C637 C 0.14693 0.20425 0.39869 0.0
C638 C 0.21011 0.19989 0.39096 0.0
N639 N 0.18863 0.22316 0.3918 0.0
C640 C 0.1258 0.16109 0.40517 0.0
C641 C 0.1476 0.13723 0.40449 0.0
C642 C 0.14543 0.28905 0.36168 0.0
C643 C 0.30228 0.41904 0.32572 0.0
C644 C 0.21566 0.39405 0.33306 0.0
C645 C 0.23145 0.40454 0.31491 0.0
C646 C 0.27506 0.41709 0.31125 0.0
N647 N 0.24259 0.39615 0.34719 0.0
C648 C 0.28537 0.40837 0.34371 0.0
Co649 Co 0.93992 0.21805 0.5507 0.0
Co650 Co 0.8473 0.22383 0.53931 0.0
O651 O 0.91082 0.24905 0.54126 0.0
C652 C 0.97404 0.24559 0.5129 0.0
O653 O 0.93358 0.23305 0.50794 0.0
C654 C 0.87768 0.30249 0.56263 0.0
O655 O 0.904 0.29153 0.57092 0.0
O656 O 0.83815 0.19941 0.56485 0.0
O657 O 0.89745 0.19364 0.57173 0.0
H658 H 0.68963 0.10502 0.54524 0.0
H659 H 0.9922 0.31339 0.54291 0.0
O660 O 0.98287 0.24176 0.52971 0.0
H661 H 0.01375 0.29819 0.60958 0.0
H662 H 0.07139 0.20327 0.56625 0.0
H663 H 0.90976 0.12952 0.56623 0.0
H664 H 0.96787 0.23294 0.59039 0.0
H665 H 0.03352 0.24163 0.55476 0.0
O666 O 0.8525 0.27896 0.54958 0.0
H667 H 0.76983 0.1369 0.54746 0.0
H668 H 0.78963 0.25868 0.52714 0.0
H669 H 0.94628 0.09007 0.57798 0.0
H670 H 0.03868 0.37951 0.56154 0.0
H671 H 0.02768 0.12699 0.57803 0.0
H672 H 0.04956 0.37214 0.59514 0.0
O673 O 0.90158 0.16502 0.53552 0.0
H674 H 0.91936 0.34117 0.49078 0.0
H675 H 0.80694 0.18712 0.50245 0.0
H676 H 0.81905 0.21613 0.4705 0.0
H677 H 0.8756 0.29369 0.46451 0.0
H678 H 0.9064 0.31073 0.52249 0.0
H679 H 0.70961 0.22823 0.52484 0.0
H680 H 0.65903 0.1508 0.53386 0.0
O681 O 0.84069 0.16822 0.52924 0.0
C682 C 0.85972 0.18834 0.57562 0.0
C683 C 0.71132 0.13875 0.54121 0.0
C684 C 0.72254 0.20792 0.52979 0.0
N685 N 0.78437 0.19949 0.5373 0.0
C686 C 0.75677 0.15695 0.54239 0.0
C687 C 0.76781 0.22501 0.53115 0.0
C688 C 0.69418 0.16447 0.53484 0.0
C689 C 0.99714 0.3099 0.55749 0.0
N690 N 0.97744 0.26935 0.56555 0.0
C691 C 0.02334 0.34746 0.56798 0.0
C692 C 0.02937 0.34331 0.58683 0.0
C693 C 0.00926 0.30183 0.59495 0.0
C694 C 0.98321 0.26501 0.58403 0.0
C695 C 0.03591 0.18687 0.56633 0.0
C696 C 0.9452 0.14589 0.56632 0.0
C697 C 0.01429 0.20838 0.55981 0.0
N698 N 0.96949 0.18793 0.55997 0.0
C699 C 0.96569 0.12335 0.57294 0.0
C700 C 0.01136 0.14407 0.57295 0.0
C701 C 0.8633 0.14911 0.52851 0.0
C702 C 0.89452 0.30737 0.49322 0.0
C703 C 0.83164 0.22089 0.49995 0.0
C704 C 0.83829 0.23715 0.48184 0.0
C705 C 0.87001 0.28069 0.47849 0.0
N706 N 0.85579 0.24729 0.51433 0.0
C707 C 0.8869 0.29001 0.51116 0.0
H708 H 0.14332 0.6463 0.03971 0.0
H709 H 0.14264 0.49629 0.12175 0.0
H710 H 0.11049 0.66188 0.09587 0.0
H711 H 0.10752 0.44747 0.06573 0.0
H712 H 0.14157 0.56271 0.11252 0.0
H713 H 0.14098 0.57824 0.04899 0.0
C714 C 0.1357 0.63542 0.05399 0.0
C715 C 0.12712 0.65968 0.06707 0.0
C716 C 0.13395 0.53732 0.10231 0.0
C717 C 0.12489 0.58246 0.07774 0.0
C718 C 0.13475 0.4996 0.10752 0.0
C719 C 0.12519 0.46645 0.09446 0.0
C720 C 0.12445 0.54224 0.08384 0.0
C721 C 0.11495 0.47222 0.07623 0.0
C722 C 0.13416 0.59656 0.05923 0.0
C723 C 0.11717 0.64403 0.08536 0.0
N724 N 0.11526 0.50965 0.07139 0.0
N725 N 0.11673 0.60654 0.09021 0.0
H726 H 0.61993 0.04748 0.24944 0.0
H727 H 0.50499 0.18781 0.22964 0.0
H728 H 0.68088 0.18492 0.2632 0.0
H729 H 0.4289 0.05151 0.2453 0.0
H730 H 0.5722 0.18635 0.23668 0.0
H731 H 0.55136 0.04724 0.24245 0.0
C732 C 0.61895 0.0776 0.25083 0.0
C733 C 0.65598 0.11629 0.25688 0.0
C734 C 0.54077 0.15683 0.23863 0.0
C735 C 0.57838 0.11625 0.24884 0.0
C736 C 0.50248 0.15759 0.2346 0.0
C737 C 0.46143 0.11976 0.237 0.0
C738 C 0.53807 0.11773 0.24471 0.0
C739 C 0.45998 0.08146 0.24345 0.0
C740 C 0.57987 0.07734 0.247 0.0
C741 C 0.65299 0.15437 0.25863 0.0
N742 N 0.49789 0.08126 0.24693 0.0
N743 N 0.61494 0.15347 0.2545 0.0
H744 H 0.55042 0.66589 0.39814 0.0
H745 H 0.33744 0.44662 0.43023 0.0
H746 H 0.50389 0.6446 0.45473 0.0
H747 H 0.34972 0.49984 0.37513 0.0
H748 H 0.4057 0.51277 0.43908 0.0
H749 H 0.48367 0.59827 0.38903 0.0
C750 C 0.52627 0.64689 0.40864 0.0
C751 C 0.53249 0.66089 0.42719 0.0
C752 C 0.39335 0.50986 0.42507 0.0
C753 C 0.45677 0.58364 0.41694 0.0
C754 C 0.35458 0.47215 0.41999 0.0
C755 C 0.33785 0.46794 0.40196 0.0
C756 C 0.41594 0.54309 0.41191 0.0
C757 C 0.36134 0.50199 0.38923 0.0
C758 C 0.48822 0.60852 0.40343 0.0
C759 C 0.50018 0.63512 0.44025 0.0
N760 N 0.3994 0.5381 0.39442 0.0
N761 N 0.46378 0.59756 0.43489 0.0
H762 H 0.94566 0.57057 0.58414 0.0
H763 H 0.80965 0.31824 0.5602 0.0
H764 H 0.81018 0.49119 0.60064 0.0
H765 H 0.94492 0.37754 0.5775 0.0
H766 H 0.80968 0.38539 0.56913 0.0
H767 H 0.94663 0.50344 0.5757 0.0
C768 C 0.91611 0.53905 0.58586 0.0
C769 C 0.87776 0.53621 0.59306 0.0
C770 C 0.83926 0.38355 0.57099 0.0
C771 C 0.87858 0.46006 0.58327 0.0
C772 C 0.83935 0.34546 0.56586 0.0
C773 C 0.87731 0.34248 0.56822 0.0
C774 C 0.87771 0.41919 0.57805 0.0
C775 C 0.91492 0.37856 0.57562 0.0
C776 C 0.91681 0.50094 0.58118 0.0
C777 C 0.84043 0.49466 0.59518 0.0
N778 N 0.91435 0.41576 0.58012 0.0
N779 N 0.84162 0.45814 0.59013 0.0
H780 H 0.5529 0.88777 0.76625 0.0
H781 H 0.34027 0.89311 0.7321 0.0
H782 H 0.51062 0.86703 0.70904 0.0
H783 H 0.34991 0.84939 0.78699 0.0
H784 H 0.41028 0.89811 0.72401 0.0
H785 H 0.48558 0.88829 0.77474 0.0
C786 C 0.52963 0.88364 0.75549 0.0
C787 C 0.5371 0.87705 0.73695 0.0
C788 C 0.39697 0.88747 0.73782 0.0
C789 C 0.46079 0.87815 0.74649 0.0
C790 C 0.35718 0.88471 0.74245 0.0
C791 C 0.33916 0.87047 0.76018 0.0
C792 C 0.41924 0.87677 0.75113 0.0
C793 C 0.36247 0.86008 0.77309 0.0
C794 C 0.49126 0.88375 0.76034 0.0
C795 C 0.5059 0.8718 0.72353 0.0
N796 N 0.40146 0.86362 0.76834 0.0
N797 N 0.46916 0.87264 0.72855 0.0
H798 H 0.44401 0.33716 0.89425 0.0
H799 H 0.6508 0.55526 0.9322 0.0
H800 H 0.4822 0.35447 0.95196 0.0
H801 H 0.64816 0.5048 0.87731 0.0
H802 H 0.58057 0.48896 0.93899 0.0
H803 H 0.5111 0.40654 0.88706 0.0
C804 C 0.46633 0.35569 0.90539 0.0
C805 C 0.45783 0.34 0.92368 0.0
C806 C 0.59546 0.4926 0.92546 0.0
C807 C 0.53373 0.41917 0.91564 0.0
C808 C 0.63535 0.53035 0.92157 0.0
C809 C 0.65541 0.53525 0.90424 0.0
C810 C 0.57516 0.46014 0.91178 0.0
C811 C 0.63399 0.50205 0.89093 0.0
C812 C 0.50455 0.39505 0.90128 0.0
C813 C 0.48778 0.36522 0.93763 0.0
N814 N 0.59487 0.46593 0.89494 0.0
N815 N 0.52434 0.40368 0.93334 0.0
H816 H 0.32268 0.22208 0.18277 0.0
H817 H 0.10432 0.19718 0.13677 0.0
H818 H 0.20115 0.09833 0.18003 0.0
H819 H 0.22239 0.32087 0.14706 0.0
H820 H 0.13954 0.15919 0.15079 0.0
H821 H 0.28692 0.25738 0.16758 0.0
C822 C 0.28848 0.20217 0.17892 0.0
C823 C 0.26493 0.15705 0.18277 0.0
C824 C 0.1576 0.19464 0.14996 0.0
C825 C 0.22352 0.19767 0.16533 0.0
C826 C 0.13754 0.21638 0.14197 0.0
C827 C 0.16032 0.26237 0.14074 0.0
C828 C 0.20078 0.21906 0.15667 0.0
C829 C 0.20336 0.28544 0.1477 0.0
C830 C 0.268 0.22248 0.17025 0.0
C831 C 0.22063 0.13318 0.17736 0.0
N832 N 0.2221 0.26355 0.15531 0.0
N833 N 0.20132 0.15381 0.16894 0.0
H834 H 0.89865 0.22227 0.31019 0.0
H835 H 0.09315 0.1999 0.35664 0.0
H836 H 0.89577 0.09854 0.31488 0.0
H837 H 0.09743 0.32292 0.34654 0.0
H838 H 0.02004 0.16131 0.34254 0.0
H839 H 0.97028 0.25857 0.32496 0.0
C840 C 0.91292 0.20258 0.31439 0.0
C841 C 0.89096 0.15715 0.31123 0.0
C842 C 0.03711 0.19675 0.3434 0.0
C843 C 0.97365 0.19893 0.32818 0.0
C844 C 0.07888 0.21884 0.35143 0.0
C845 C 0.10166 0.26482 0.35278 0.0
C846 C 0.01794 0.22078 0.33675 0.0
C847 C 0.08135 0.28752 0.34582 0.0
C848 C 0.95404 0.22346 0.32281 0.0
C849 C 0.9114 0.1336 0.31703 0.0
N850 N 0.04075 0.26528 0.33816 0.0
N851 N 0.95166 0.15479 0.3252 0.0
H852 H 0.90053 0.098 0.52107 0.0
H853 H 0.67448 0.89548 0.48598 0.0
H854 H 0.77937 0.10018 0.51556 0.0
H855 H 0.79938 0.90349 0.47604 0.0
H856 H 0.71261 0.96773 0.50014 0.0
H857 H 0.86428 0.02444 0.50728 0.0
C858 C 0.86645 0.08319 0.51693 0.0
C859 C 0.84302 0.10545 0.51951 0.0
C860 C 0.73174 0.95373 0.49488 0.0
C861 C 0.80142 0.02128 0.50397 0.0
C862 C 0.70995 0.91226 0.48683 0.0
C863 C 0.73369 0.89325 0.47969 0.0
C864 C 0.77771 0.97654 0.49597 0.0
C865 C 0.77969 0.91685 0.4813 0.0
C866 C 0.84584 0.04123 0.50907 0.0
C867 C 0.7989 0.08452 0.51388 0.0
N868 N 0.80024 0.95732 0.48927 0.0
N869 N 0.77958 0.04365 0.50649 0.0
H870 H 0.89816 0.80226 0.6394 0.0
H871 H 0.67447 0.77897 0.67813 0.0
H872 H 0.77771 0.67885 0.64638 0.0
H873 H 0.79872 0.89999 0.68097 0.0
H874 H 0.7113 0.74354 0.66387 0.0
H875 H 0.86197 0.84007 0.65256 0.0
C876 C 0.86424 0.78306 0.64375 0.0
C877 C 0.84104 0.73722 0.64178 0.0
C878 C 0.73054 0.77788 0.66756 0.0
C879 C 0.79941 0.78039 0.65665 0.0
C880 C 0.70947 0.79827 0.67566 0.0
C881 C 0.73349 0.8426 0.68086 0.0
C882 C 0.77602 0.80188 0.66454 0.0
C883 C 0.77882 0.86576 0.67722 0.0
C884 C 0.84361 0.80471 0.65123 0.0
C885 C 0.79707 0.71417 0.64762 0.0
N886 N 0.79864 0.84508 0.66933 0.0
N887 N 0.77774 0.736 0.65472 0.0
H888 H 0.89591 0.7956 0.84949 0.0
H889 H 0.09956 0.77108 0.81629 0.0
H890 H 0.902 0.67636 0.8536 0.0
H891 H 0.09316 0.88916 0.80763 0.0
H892 H 0.02782 0.73732 0.83087 0.0
H893 H 0.96839 0.83155 0.83481 0.0
C894 C 0.91232 0.77691 0.84728 0.0
C895 C 0.89265 0.73279 0.85281 0.0
C896 C 0.04201 0.77063 0.82581 0.0
C897 C 0.97566 0.77386 0.8361 0.0
C898 C 0.08319 0.79008 0.81748 0.0
C899 C 0.10265 0.83317 0.81068 0.0
C900 C 0.0198 0.79427 0.82744 0.0
C901 C 0.07952 0.8559 0.81267 0.0
C902 C 0.95373 0.7975 0.83891 0.0
C903 C 0.91564 0.71035 0.8496 0.0
N904 N 0.03928 0.83615 0.82087 0.0
N905 N 0.95581 0.73114 0.84151 0.0
H906 H 0.22291 0.90053 0.01327 0.0
H907 H 0.19674 0.10329 0.98115 0.0
H908 H 0.10515 0.90663 0.02366 0.0
H909 H 0.3191 0.10245 0.98073 0.0
H910 H 0.16128 0.03092 0.99589 0.0
H911 H 0.25687 0.97358 -0.0 0.0
C912 C 0.20402 0.91711 0.01273 0.0
C913 C 0.16096 0.89719 0.01963 0.0
C914 C 0.19594 0.04681 0.99265 0.0
C915 C 0.20009 0.9815 0.00436 0.0
C916 C 0.21626 0.08815 0.98427 0.0
C917 C 0.26102 0.10908 0.97961 0.0
C918 C 0.22049 0.02617 0.9963 0.0
C919 C 0.28454 0.08773 0.98397 0.0
C920 C 0.22362 0.95906 0.00518 0.0
C921 C 0.13838 0.92064 0.01851 0.0
N922 N 0.26395 0.04746 0.99195 0.0
N923 N 0.15821 0.96158 0.01099 0.0
H924 H 0.23074 0.37545 0.07797 0.0
H925 H 0.19845 0.26187 0.97884 0.0
H926 H 0.10361 0.28714 0.05437 0.0
H927 H 0.31121 0.29789 0.01377 0.0
H928 H 0.16852 0.28916 0.00267 0.0
H929 H 0.26538 0.36519 0.05045 0.0
C930 C 0.21009 0.35453 0.06688 0.0
C931 C 0.16418 0.33168 0.06856 0.0
C932 C 0.20003 0.29148 0.00498 0.0
C933 C 0.20363 0.32016 0.03712 0.0
C934 C 0.2172 0.27609 0.9914 0.0
C935 C 0.2571 0.27717 0.99448 0.0
C936 C 0.22327 0.30863 0.02158 0.0
C937 C 0.28005 0.29595 0.01098 0.0
C938 C 0.22991 0.34857 0.05126 0.0
C939 C 0.13909 0.30498 0.05375 0.0
N940 N 0.26271 0.31085 0.02398 0.0
N941 N 0.15917 0.2998 0.03866 0.0
H942 H 0.88072 0.11359 0.24139 0.0
H943 H 0.9442 0.2431 0.14687 0.0
H944 H 0.81639 0.18609 0.226 0.0
H945 H 0.0418 0.24717 0.18439 0.0
H946 H 0.88861 0.20835 0.17149 0.0
H947 H 0.93146 0.14718 0.21559 0.0
C948 C 0.87683 0.13614 0.23247 0.0
C949 C 0.84434 0.14724 0.23595 0.0
C950 C 0.92228 0.21708 0.17423 0.0
C951 C 0.90221 0.18535 0.20629 0.0
C952 C 0.95383 0.23663 0.16026 0.0
C953 C 0.99752 0.24796 0.16369 0.0
C954 C 0.93452 0.20776 0.19141 0.0
C955 C 0.00851 0.23913 0.18124 0.0
C956 C 0.90602 0.15545 0.21783 0.0
C957 C 0.84114 0.17685 0.22387 0.0
N958 N 0.97708 0.21905 0.19439 0.0
N959 N 0.86973 0.19487 0.20946 0.0
H960 H 0.71163 0.03001 0.35265 0.0
H961 H 0.70532 0.81674 0.38968 0.0
H962 H 0.72829 0.94143 0.31661 0.0
H963 H 0.6341 0.87052 0.4174 0.0
H964 H 0.716 0.86382 0.36305 0.0
H965 H 0.68484 0.974 0.37708 0.0
C966 C 0.70934 0.99872 0.34983 0.0
C967 C 0.72262 0.99051 0.33265 0.0
C968 C 0.69753 0.86493 0.37485 0.0
C969 C 0.69245 0.92677 0.36046 0.0
C970 C 0.69157 0.83818 0.39008 0.0
C971 C 0.66903 0.83996 0.40579 0.0
C972 C 0.68173 0.89443 0.3755 0.0
C973 C 0.65161 0.86814 0.40552 0.0
C974 C 0.69387 0.96676 0.36372 0.0
C975 C 0.71863 0.94928 0.32967 0.0
N976 N 0.65896 0.8949 0.39071 0.0
N977 N 0.70448 0.91919 0.34353 0.0
H978 H 0.77289 0.62982 0.57678 0.0
H979 H 0.80434 0.75409 0.48055 0.0
H980 H 0.90051 0.72509 0.55571 0.0
H981 H 0.69142 0.7137 0.51585 0.0
H982 H 0.83627 0.72792 0.50407 0.0
H983 H 0.73897 0.64428 0.55012 0.0
C984 C 0.79385 0.65322 0.56642 0.0
C985 C 0.83965 0.67662 0.56858 0.0
C986 C 0.80439 0.72458 0.50655 0.0
C987 C 0.80095 0.69297 0.53809 0.0
C988 C 0.78612 0.73934 0.49316 0.0
C989 C 0.74541 0.73637 0.49639 0.0
C990 C 0.78132 0.70597 0.52304 0.0
C991 C 0.72313 0.71703 0.51295 0.0
C992 C 0.77441 0.66159 0.55129 0.0
C993 C 0.86509 0.7066 0.55469 0.0
N994 N 0.74137 0.70246 0.52567 0.0
N995 N 0.84537 0.71402 0.54003 0.0
H996 H 0.17784 0.89586 0.72354 0.0
H997 H 0.96898 0.68871 0.68332 0.0
H998 H 0.13387 0.76608 0.74515 0.0
H999 H 0.05126 0.80042 0.64884 0.0
H1000 H 0.02589 0.718 0.70736 0.0
H1001 H 0.12919 0.86319 0.69686 0.0
C1002 C 0.15836 0.86049 0.72257 0.0
C1003 C 0.15979 0.83366 0.73663 0.0
C1004 C 0.03155 0.73585 0.69446 0.0
C1005 C 0.10348 0.79623 0.70637 0.0
C1006 C -0.00096 0.71935 0.68081 0.0
C1007 C 0.0054 0.74235 0.66414 0.0
C1008 C 0.0702 0.77602 0.69154 0.0
C1009 C 0.04508 0.78169 0.66152 0.0
C1010 C 0.13067 0.8419 0.70733 0.0
C1011 C 0.13386 0.788 0.73462 0.0
N1012 N 0.07581 0.7976 0.67519 0.0
N1013 N 0.10619 0.7707 0.71991 0.0
H1014 H 0.23917 0.10109 0.91386 0.0
H1015 H 0.29807 0.049 0.8159 0.0
H1016 H 0.37082 0.18276 0.89319 0.0
H1017 H 0.22081 0.94671 0.85532 0.0
H1018 H 0.32003 0.10337 0.84103 0.0
H1019 H 0.22523 0.04881 0.88902 0.0
C1020 C 0.26505 0.10825 0.90397 0.0
C1021 C 0.30617 0.1464 0.90551 0.0
C1022 C 0.29864 0.06893 0.8441 0.0
C1023 C 0.29023 0.08668 0.87702 0.0
C1024 C 0.28595 0.03802 0.82983 0.0
C1025 C 0.25742 0.99338 0.83357 0.0
C1026 C 0.28167 0.05502 0.86199 0.0
C1027 C 0.24283 0.98077 0.85184 0.0
C1028 C 0.25716 0.07819 0.88992 0.0
C1029 C 0.33871 0.15364 0.89244 0.0
N1030 N 0.25459 0.01152 0.86532 0.0
N1031 N 0.3299 0.12415 0.87853 0.0
H1032 H 0.61829 0.80624 0.76634 0.0
H1033 H 0.76673 0.71418 0.80572 0.0
H1034 H 0.74969 0.85007 0.74677 0.0
H1035 H 0.69121 0.74549 0.84355 0.0
H1036 H 0.74506 0.74527 0.78027 0.0
H1037 H 0.63062 0.76656 0.79177 0.0
C1038 C 0.64958 0.80744 0.76741 0.0
C1039 C 0.68325 0.83175 0.75464 0.0
C1040 C 0.73294 0.74486 0.79413 0.0
C1041 C 0.69679 0.78587 0.78296 0.0
C1042 C 0.74507 0.72699 0.80863 0.0
C1043 C 0.73109 0.72774 0.82677 0.0
C1044 C 0.70598 0.76277 0.79775 0.0
C1045 C 0.70304 0.74477 0.82975 0.0
C1046 C 0.65653 0.78498 0.78184 0.0
C1047 C 0.72315 0.83227 0.7565 0.0
N1048 N 0.69133 0.76173 0.81534 0.0
N1049 N 0.72869 0.80935 0.77029 0.0
H1050 H 0.86921 0.76216 0.92385 0.0
H1051 H 0.94527 0.69603 0.01479 0.0
H1052 H 0.81739 0.62439 0.93504 0.0
H1053 H 0.03791 0.79441 0.97733 0.0
H1054 H 0.88783 0.67395 0.99086 0.0
H1055 H 0.9206 0.78004 0.94948 0.0
C1056 C 0.86808 0.73559 0.93183 0.0
C1057 C 0.83914 0.69161 0.92714 0.0
C1058 C 0.92083 0.70025 0.98799 0.0
C1059 C 0.89764 0.71221 0.95664 0.0
C1060 C 0.95341 0.71292 0.00156 0.0
C1061 C 0.99624 0.74697 -0.00208 0.0
C1062 C 0.93112 0.72287 0.97106 0.0
C1063 C 0.00534 0.76782 0.9806 0.0
C1064 C 0.89763 0.74594 0.94639 0.0
C1065 C 0.83937 0.6587 0.9381 0.0
N1066 N 0.97287 0.75581 0.96788 0.0
N1067 N 0.86825 0.66967 0.95244 0.0
H1068 H 0.10652 0.81561 0.10673 0.0
H1069 H 0.31648 0.02486 0.14445 0.0
H1070 H 0.23347 0.86282 0.08137 0.0
H1071 H 0.20723 0.94186 0.18 0.0
H1072 H 0.28663 0.96744 0.12064 0.0
H1073 H 0.14231 0.86264 0.1335 0.0
C1074 C 0.14197 0.83547 0.10689 0.0
C1075 C 0.16704 0.83553 0.09175 0.0
C1076 C 0.26957 0.96168 0.13376 0.0
C1077 C 0.20808 0.88997 0.12216 0.0
C1078 C 0.28642 0.99446 0.14729 0.0
C1079 C 0.26407 0.98823 0.16413 0.0
C1080 C 0.22972 0.92286 0.13701 0.0
C1081 C 0.22545 0.9481 0.16718 0.0
C1082 C 0.16238 0.86222 0.12219 0.0
C1083 C 0.21291 0.86178 0.09275 0.0
N1084 N 0.20916 0.91717 0.15363 0.0
N1085 N 0.23196 0.88858 0.10758 0.0
H1086 H 0.37347 0.19003 0.2682 0.0
H1087 H 0.21057 0.26109 0.30841 0.0
H1088 H 0.23706 0.12584 0.25205 0.0
H1089 H 0.29889 0.24794 0.34598 0.0
H1090 H 0.23107 0.22651 0.28398 0.0
H1091 H 0.3568 0.22529 0.29403 0.0
C1092 C 0.34011 0.1832 0.27013 0.0
C1093 C 0.30656 0.15488 0.258 0.0
C1094 C 0.24604 0.23141 0.29757 0.0
C1095 C 0.28788 0.19572 0.28693 0.0
C1096 C 0.23459 0.2513 0.31145 0.0
C1097 C 0.25294 0.2571 0.32922 0.0
C1098 C 0.27678 0.2182 0.30134 0.0
C1099 C 0.28381 0.24367 0.33245 0.0
C1100 C 0.33071 0.20319 0.28482 0.0
C1101 C 0.26389 0.14716 0.2611 0.0
N1102 N 0.29507 0.22499 0.31856 0.0
N1103 N 0.2559 0.16792 0.2751 0.0
H1104 H 0.13717 0.36963 0.41694 0.0
H1105 H 0.05371 0.25005 0.51473 0.0
H1106 H 0.17827 0.28207 0.43926 0.0
H1107 H 0.9748 0.28241 0.47944 0.0
H1108 H 0.11066 0.27732 0.49071 0.0
H1109 H 0.08893 0.35401 0.44377 0.0
C1110 C 0.13668 0.34774 0.42762 0.0
C1111 C 0.16151 0.3268 0.42577 0.0
C1112 C 0.08094 0.27862 0.48832 0.0
C1113 C 0.10662 0.30908 0.45643 0.0
C1114 C 0.04854 0.2632 0.50199 0.0
C1115 C 0.00938 0.26363 0.49895 0.0
C1116 C 0.07443 0.29533 0.4717 0.0
C1117 C 0.00433 0.28104 0.48222 0.0
C1118 C 0.10893 0.33867 0.44283 0.0
C1119 C 0.15941 0.29863 0.44004 0.0
N1120 N 0.03656 0.2963 0.4692 0.0
N1121 N 0.13232 0.2905 0.45477 0.0
H1122 H 0.80211 0.05698 0.68204 0.0
H1123 H 0.77224 0.1454 0.58424 0.0
H1124 H 0.68812 0.98449 0.64724 0.0
H1125 H 0.89891 0.17791 0.60655 0.0
H1126 H 0.73727 0.09931 0.61141 0.0
H1127 H 0.8339 0.11446 0.65831 0.0
C1128 C 0.78352 0.05346 0.66953 0.0
C1129 C 0.74265 0.01578 0.66646 0.0
C1130 C 0.77273 0.117 0.6104 0.0
C1131 C 0.77856 0.08135 0.63951 0.0
C1132 C 0.79277 0.14346 0.59497 0.0
C1133 C 0.8386 0.16521 0.59303 0.0
C1134 C 0.79874 0.11286 0.62411 0.0
C1135 C 0.86348 0.1614 0.60738 0.0
C1136 C 0.80175 0.08613 0.65601 0.0
C1137 C 0.71996 0.01283 0.65002 0.0
N1138 N 0.8432 0.13557 0.62232 0.0
N1139 N 0.73828 0.04519 0.63711 0.0
loop_
_geom_bond_atom_site_label_1
_geom_bond_atom_site_label_2
_geom_bond_distance
_geom_bond_site_symmetry_2
_ccdc_geom_bond_type
Co0 O2 2.143 . S
Co0 O8 2.074 . S
Co0 O11 2.093 . S
Co0 O24 2.097 . S
Co0 N41 2.151 . S
Co0 N49 2.214 . S
Co1 O2 2.160 . S
Co1 O7 2.058 . S
Co1 O17 2.057 . S
Co1 O32 2.037 . S
Co1 N36 2.145 . S
Co1 N57 2.257 . S
O2 Co0 2.143 . S
O2 Co1 2.160 . S
C3 O4 1.278 . S
C3 O11 1.224 . S
O4 C3 1.278 . S
C5 O6 1.245 . S
C5 O17 1.232 . S
O6 C5 1.245 . S
O7 Co1 2.058 . S
O7 C33 1.269 . S
O8 Co0 2.074 . S
O8 C33 1.257 . S
H9 C34 0.930 . S
H10 C40 0.930 . S
O11 Co0 2.093 . S
O11 C3 1.224 . S
H12 C44 0.929 1_655 S
H13 C46 0.930 . S
H14 C47 0.930 . S
H15 C45 0.929 . S
H16 C48 0.928 . S
O17 Co1 2.057 . S
O17 C5 1.232 . S
H18 C37 0.929 . S
H19 C38 0.929 . S
H20 C50 0.931 . S
H21 C42 0.929 . S
H22 C51 0.930 . S
H23 C43 0.931 . S
O24 Co0 2.097 . S
O24 C52 1.214 . S
H25 C53 0.929 . S
H26 C54 0.929 . S
H27 C55 0.930 . S
H28 C56 0.929 . S
H29 C58 0.930 . S
H30 C35 0.930 . S
H31 C39 0.930 . S
O32 Co1 2.037 . S
O32 C52 1.234 . S
C33 O7 1.269 . S
C33 O8 1.257 . S
C34 H9 0.930 . S
C34 C37 1.388 . S
C34 C39 1.418 . S
C35 H30 0.930 . S
C35 C38 1.404 . S
C35 C39 1.353 . S
N36 Co1 2.145 . S
N36 C37 1.397 . S
N36 C38 1.334 . S
C37 H18 0.929 . S
C37 C34 1.388 . S
C37 N36 1.397 . S
C38 H19 0.929 . S
C38 C35 1.404 . S
C38 N36 1.334 . S
C39 H31 0.930 . S
C39 C34 1.418 . S
C39 C35 1.353 . S
C40 H10 0.930 . S
C40 N41 1.330 . S
C40 C42 1.446 1_455 S
N41 Co0 2.151 . S
N41 C40 1.330 . S
N41 C45 1.418 . S
C42 H21 0.929 . S
C42 C40 1.446 1_655 S
C42 C43 1.332 . S
C43 H23 0.931 . S
C43 C42 1.332 . S
C43 C44 1.267 1_655 S
C44 H12 0.929 1_455 S
C44 C43 1.267 1_455 S
C44 C45 1.251 . S
C45 H15 0.929 . S
C45 N41 1.418 . S
C45 C44 1.251 . S
C46 H13 0.930 . S
C46 C48 1.406 . S
C46 C51 1.261 . S
C47 H14 0.930 . S
C47 N49 1.325 . S
C47 C50 1.357 . S
C48 H16 0.928 . S
C48 C46 1.406 . S
C48 N49 1.261 . S
N49 Co0 2.214 . S
N49 C47 1.325 . S
N49 C48 1.261 . S
C50 H20 0.931 . S
C50 C47 1.357 . S
C50 C51 1.312 . S
C51 H22 0.930 . S
C51 C46 1.261 . S
C51 C50 1.312 . S
C52 O24 1.214 . S
C52 O32 1.234 . S
C53 H25 0.929 . S
C53 C56 1.391 . S
C53 C58 1.391 . S
C54 H26 0.929 . S
C54 C55 1.390 . S
C54 N57 1.391 . S
C55 H27 0.930 . S
C55 C54 1.390 . S
C55 C56 1.392 . S
C56 H28 0.929 . S
C56 C53 1.391 . S
C56 C55 1.392 . S
N57 Co1 2.257 . S
N57 C54 1.391 . S
N57 C58 1.388 . S
C58 H29 0.930 . S
C58 C53 1.391 . S
C58 N57 1.388 . S
Co59 O61 2.143 . S
Co59 O67 2.074 . S
Co59 O70 2.093 . S
Co59 O83 2.097 . S
Co59 N100 2.151 . S
Co59 N108 2.214 . S
Co60 O61 2.160 . S
Co60 O66 2.058 . S
Co60 O76 2.057 . S
Co60 O91 2.037 . S
Co60 N95 2.145 . S
Co60 N116 2.257 . S
O61 Co59 2.143 . S
O61 Co60 2.160 . S
C62 O63 1.278 . S
C62 O70 1.224 . S
O63 C62 1.278 . S
C64 O65 1.245 . S
C64 O76 1.232 . S
O65 C64 1.245 . S
O66 Co60 2.058 . S
O66 C92 1.269 . S
O67 Co59 2.074 . S
O67 C92 1.257 . S
H68 C93 0.930 . S
H69 C99 0.930 . S
O70 Co59 2.093 . S
O70 C62 1.224 . S
H71 C103 0.929 1_565 S
H72 C105 0.930 . S
H73 C106 0.930 . S
H74 C104 0.929 . S
H75 C107 0.928 . S
O76 Co60 2.057 . S
O76 C64 1.232 . S
H77 C96 0.929 . S
H78 C97 0.929 . S
H79 C109 0.931 . S
H80 C101 0.929 . S
H81 C110 0.930 . S
H82 C102 0.931 . S
O83 Co59 2.097 . S
O83 C111 1.214 . S
H84 C112 0.929 . S
H85 C113 0.929 . S
H86 C114 0.930 . S
H87 C115 0.929 . S
H88 C117 0.930 . S
H89 C94 0.930 . S
H90 C98 0.930 . S
O91 Co60 2.037 . S
O91 C111 1.234 . S
C92 O66 1.269 . S
C92 O67 1.257 . S
C93 H68 0.930 . S
C93 C96 1.388 . S
C93 C98 1.418 . S
C94 H89 0.930 . S
C94 C97 1.404 . S
C94 C98 1.353 . S
N95 Co60 2.145 . S
N95 C96 1.397 . S
N95 C97 1.334 . S
C96 H77 0.929 . S
C96 C93 1.388 . S
C96 N95 1.397 . S
C97 H78 0.929 . S
C97 C94 1.404 . S
C97 N95 1.334 . S
C98 H90 0.930 . S
C98 C93 1.418 . S
C98 C94 1.353 . S
C99 H69 0.930 . S
C99 N100 1.330 . S
C99 C101 1.446 1_545 S
N100 Co59 2.151 . S
N100 C99 1.330 . S
N100 C104 1.418 . S
C101 H80 0.929 . S
C101 C99 1.446 1_565 S
C101 C102 1.332 . S
C102 H82 0.931 . S
C102 C101 1.332 . S
C102 C103 1.267 1_565 S
C103 H71 0.929 1_545 S
C103 C102 1.267 1_545 S
C103 C104 1.251 . S
C104 H74 0.929 . S
C104 N100 1.418 . S
C104 C103 1.251 . S
C105 H72 0.930 . S
C105 C107 1.406 . S
C105 C110 1.261 . S
C106 H73 0.930 . S
C106 N108 1.325 . S
C106 C109 1.357 . S
C107 H75 0.928 . S
C107 C105 1.406 . S
C107 N108 1.261 . S
N108 Co59 2.214 . S
N108 C106 1.325 . S
N108 C107 1.261 . S
C109 H79 0.931 . S
C109 C106 1.357 . S
C109 C110 1.312 . S
C110 H81 0.930 . S
C110 C105 1.261 . S
C110 C109 1.312 . S
C111 O83 1.214 . S
C111 O91 1.234 . S
C112 H84 0.929 . S
C112 C115 1.391 . S
C112 C117 1.391 . S
C113 H85 0.929 . S
C113 C114 1.390 . S
C113 N116 1.391 . S
C114 H86 0.930 . S
C114 C113 1.390 . S
C114 C115 1.392 . S
C115 H87 0.929 . S
C115 C112 1.391 . S
C115 C114 1.392 . S
N116 Co60 2.257 . S
N116 C113 1.391 . S
N116 C117 1.388 . S
C117 H88 0.930 . S
C117 C112 1.391 . S
C117 N116 1.388 . S
Co118 O120 2.143 . S
Co118 O126 2.074 . S
Co118 O129 2.093 . S
Co118 O142 2.097 . S
Co118 N159 2.151 . S
Co118 N167 2.214 . S
Co119 O120 2.160 . S
Co119 O125 2.058 . S
Co119 O135 2.057 . S
Co119 O150 2.037 . S
Co119 N154 2.145 . S
Co119 N175 2.257 . S
O120 Co118 2.143 . S
O120 Co119 2.160 . S
C121 O122 1.278 . S
C121 O129 1.224 . S
O122 C121 1.278 . S
C123 O124 1.245 . S
C123 O135 1.232 . S
O124 C123 1.245 . S
O125 Co119 2.058 . S
O125 C151 1.269 . S
O126 Co118 2.074 . S
O126 C151 1.257 . S
H127 C152 0.930 . S
H128 C158 0.930 . S
O129 Co118 2.093 . S
O129 C121 1.224 . S
H130 C162 0.929 . S
H131 C164 0.930 . S
H132 C165 0.930 . S
H133 C163 0.929 . S
H134 C166 0.928 . S
O135 Co119 2.057 . S
O135 C123 1.232 . S
H136 C155 0.929 . S
H137 C156 0.929 . S
H138 C168 0.931 . S
H139 C160 0.929 . S
H140 C169 0.930 . S
H141 C161 0.931 . S
O142 Co118 2.097 . S
O142 C170 1.214 . S
H143 C171 0.929 . S
H144 C172 0.929 . S
H145 C173 0.930 . S
H146 C174 0.929 . S
H147 C176 0.930 . S
H148 C153 0.930 . S
H149 C157 0.930 . S
O150 Co119 2.037 . S
O150 C170 1.234 . S
C151 O125 1.269 . S
C151 O126 1.257 . S
C152 H127 0.930 . S
C152 C155 1.388 . S
C152 C157 1.418 . S
C153 H148 0.930 . S
C153 C156 1.404 . S
C153 C157 1.353 . S
N154 Co119 2.145 . S
N154 C155 1.397 . S
N154 C156 1.334 . S
C155 H136 0.929 . S
C155 C152 1.388 . S
C155 N154 1.397 . S
C156 H137 0.929 . S
C156 C153 1.404 . S
C156 N154 1.334 . S
C157 H149 0.930 . S
C157 C152 1.418 . S
C157 C153 1.353 . S
C158 H128 0.930 . S
C158 N159 1.330 . S
C158 C160 1.446 . S
N159 Co118 2.151 . S
N159 C158 1.330 . S
N159 C163 1.418 . S
C160 H139 0.929 . S
C160 C158 1.446 . S
C160 C161 1.332 . S
C161 H141 0.931 . S
C161 C160 1.332 . S
C161 C162 1.267 . S
C162 H130 0.929 . S
C162 C161 1.267 . S
C162 C163 1.251 . S
C163 H133 0.929 . S
C163 N159 1.418 . S
C163 C162 1.251 . S
C164 H131 0.930 . S
C164 C166 1.406 . S
C164 C169 1.261 . S
C165 H132 0.930 . S
C165 N167 1.325 . S
C165 C168 1.357 . S
C166 H134 0.928 . S
C166 C164 1.406 . S
C166 N167 1.261 . S
N167 Co118 2.214 . S
N167 C165 1.325 . S
N167 C166 1.261 . S
C168 H138 0.931 . S
C168 C165 1.357 . S
C168 C169 1.312 . S
C169 H140 0.930 . S
C169 C164 1.261 . S
C169 C168 1.312 . S
C170 O142 1.214 . S
C170 O150 1.234 . S
C171 H143 0.929 . S
C171 C174 1.391 . S
C171 C176 1.391 . S
C172 H144 0.929 . S
C172 C173 1.390 . S
C172 N175 1.391 . S
C173 H145 0.930 . S
C173 C172 1.390 . S
C173 C174 1.392 . S
C174 H146 0.929 . S
C174 C171 1.391 . S
C174 C173 1.392 . S
N175 Co119 2.257 . S
N175 C172 1.391 . S
N175 C176 1.388 . S
C176 H147 0.930 . S
C176 C171 1.391 . S
C176 N175 1.388 . S
Co177 O179 2.143 . S
Co177 O185 2.074 . S
Co177 O188 2.093 . S
Co177 O201 2.097 . S
Co177 N218 2.151 . S
Co177 N226 2.214 . S
Co178 O179 2.160 . S
Co178 O184 2.058 . S
Co178 O194 2.057 . S
Co178 O209 2.037 . S
Co178 N213 2.145 . S
Co178 N234 2.257 . S
O179 Co177 2.143 . S
O179 Co178 2.160 . S
C180 O181 1.278 . S
C180 O188 1.224 . S
O181 C180 1.278 . S
C182 O183 1.245 . S
C182 O194 1.232 . S
O183 C182 1.245 . S
O184 Co178 2.058 . S
O184 C210 1.269 . S
O185 Co177 2.074 . S
O185 C210 1.257 . S
H186 C211 0.930 . S
H187 C217 0.930 . S
O188 Co177 2.093 . S
O188 C180 1.224 . S
H189 C221 0.929 1_455 S
H190 C223 0.930 . S
H191 C224 0.930 . S
H192 C222 0.929 . S
H193 C225 0.928 . S
O194 Co178 2.057 . S
O194 C182 1.232 . S
H195 C214 0.929 . S
H196 C215 0.929 . S
H197 C227 0.931 . S
H198 C219 0.929 . S
H199 C228 0.930 . S
H200 C220 0.931 . S
O201 Co177 2.097 . S
O201 C229 1.214 . S
H202 C230 0.929 . S
H203 C231 0.929 . S
H204 C232 0.930 . S
H205 C233 0.929 . S
H206 C235 0.930 . S
H207 C212 0.930 . S
H208 C216 0.930 . S
O209 Co178 2.037 . S
O209 C229 1.234 . S
C210 O184 1.269 . S
C210 O185 1.257 . S
C211 H186 0.930 . S
C211 C214 1.388 . S
C211 C216 1.418 . S
C212 H207 0.930 . S
C212 C215 1.404 . S
C212 C216 1.353 . S
N213 Co178 2.145 . S
N213 C214 1.397 . S
N213 C215 1.334 . S
C214 H195 0.929 . S
C214 C211 1.388 . S
C214 N213 1.397 . S
C215 H196 0.929 . S
C215 C212 1.404 . S
C215 N213 1.334 . S
C216 H208 0.930 . S
C216 C211 1.418 . S
C216 C212 1.353 . S
C217 H187 0.930 . S
C217 N218 1.330 . S
C217 C219 1.446 1_655 S
N218 Co177 2.151 . S
N218 C217 1.330 . S
N218 C222 1.418 . S
C219 H198 0.929 . S
C219 C217 1.446 1_455 S
C219 C220 1.332 . S
C220 H200 0.931 . S
C220 C219 1.332 . S
C220 C221 1.267 1_455 S
C221 H189 0.929 1_655 S
C221 C220 1.267 1_655 S
C221 C222 1.251 . S
C222 H192 0.929 . S
C222 N218 1.418 . S
C222 C221 1.251 . S
C223 H190 0.930 . S
C223 C225 1.406 . S
C223 C228 1.261 . S
C224 H191 0.930 . S
C224 N226 1.325 . S
C224 C227 1.357 . S
C225 H193 0.928 . S
C225 C223 1.406 . S
C225 N226 1.261 . S
N226 Co177 2.214 . S
N226 C224 1.325 . S
N226 C225 1.261 . S
C227 H197 0.931 . S
C227 C224 1.357 . S
C227 C228 1.312 . S
C228 H199 0.930 . S
C228 C223 1.261 . S
C228 C227 1.312 . S
C229 O201 1.214 . S
C229 O209 1.234 . S
C230 H202 0.929 . S
C230 C233 1.391 . S
C230 C235 1.391 . S
C231 H203 0.929 . S
C231 C232 1.390 . S
C231 N234 1.391 . S
C232 H204 0.930 . S
C232 C231 1.390 . S
C232 C233 1.392 . S
C233 H205 0.929 . S
C233 C230 1.391 . S
C233 C232 1.392 . S
N234 Co178 2.257 . S
N234 C231 1.391 . S
N234 C235 1.388 . S
C235 H206 0.930 . S
C235 C230 1.391 . S
C235 N234 1.388 . S
Co236 O238 2.143 . S
Co236 O244 2.074 . S
Co236 O247 2.093 . S
Co236 O260 2.097 . S
Co236 N277 2.151 . S
Co236 N285 2.214 . S
Co237 O238 2.160 . S
Co237 O243 2.058 . S
Co237 O253 2.057 . S
Co237 O268 2.037 . S
Co237 N272 2.145 . S
Co237 N293 2.257 . S
O238 Co236 2.143 . S
O238 Co237 2.160 . S
C239 O240 1.278 . S
C239 O247 1.224 . S
O240 C239 1.278 . S
C241 O242 1.245 . S
C241 O253 1.232 . S
O242 C241 1.245 . S
O243 Co237 2.058 . S
O243 C269 1.269 . S
O244 Co236 2.074 . S
O244 C269 1.257 . S
H245 C270 0.930 . S
H246 C276 0.930 . S
O247 Co236 2.093 . S
O247 C239 1.224 . S
H248 C280 0.929 1_545 S
H249 C282 0.930 . S
H250 C283 0.930 . S
H251 C281 0.929 . S
H252 C284 0.928 . S
O253 Co237 2.057 . S
O253 C241 1.232 . S
H254 C273 0.929 . S
H255 C274 0.929 . S
H256 C286 0.931 . S
H257 C278 0.929 . S
H258 C287 0.930 . S
H259 C279 0.931 . S
O260 Co236 2.097 . S
O260 C288 1.214 . S
H261 C289 0.929 . S
H262 C290 0.929 . S
H263 C291 0.930 . S
H264 C292 0.929 . S
H265 C294 0.930 . S
H266 C271 0.930 . S
H267 C275 0.930 . S
O268 Co237 2.037 . S
O268 C288 1.234 . S
C269 O243 1.269 . S
C269 O244 1.257 . S
C270 H245 0.930 . S
C270 C273 1.388 . S
C270 C275 1.418 . S
C271 H266 0.930 . S
C271 C274 1.404 . S
C271 C275 1.353 . S
N272 Co237 2.145 . S
N272 C273 1.397 . S
N272 C274 1.334 . S
C273 H254 0.929 . S
C273 C270 1.388 . S
C273 N272 1.397 . S
C274 H255 0.929 . S
C274 C271 1.404 . S
C274 N272 1.334 . S
C275 H267 0.930 . S
C275 C270 1.418 . S
C275 C271 1.353 . S
C276 H246 0.930 . S
C276 N277 1.330 . S
C276 C278 1.446 1_565 S
N277 Co236 2.151 . S
N277 C276 1.330 . S
N277 C281 1.418 . S
C278 H257 0.929 . S
C278 C276 1.446 1_545 S
C278 C279 1.332 . S
C279 H259 0.931 . S
C279 C278 1.332 . S
C279 C280 1.267 1_545 S
C280 H248 0.929 1_565 S
C280 C279 1.267 1_565 S
C280 C281 1.251 . S
C281 H251 0.929 . S
C281 N277 1.418 . S
C281 C280 1.251 . S
C282 H249 0.930 . S
C282 C284 1.406 . S
C282 C287 1.261 . S
C283 H250 0.930 . S
C283 N285 1.325 . S
C283 C286 1.357 . S
C284 H252 0.928 . S
C284 C282 1.406 . S
C284 N285 1.261 . S
N285 Co236 2.214 . S
N285 C283 1.325 . S
N285 C284 1.261 . S
C286 H256 0.931 . S
C286 C283 1.357 . S
C286 C287 1.312 . S
C287 H258 0.930 . S
C287 C282 1.261 . S
C287 C286 1.312 . S
C288 O260 1.214 . S
C288 O268 1.234 . S
C289 H261 0.929 . S
C289 C292 1.391 . S
C289 C294 1.391 . S
C290 H262 0.929 . S
C290 C291 1.390 . S
C290 N293 1.391 . S
C291 H263 0.930 . S
C291 C290 1.390 . S
C291 C292 1.392 . S
C292 H264 0.929 . S
C292 C289 1.391 . S
C292 C291 1.392 . S
N293 Co237 2.257 . S
N293 C290 1.391 . S
N293 C294 1.388 . S
C294 H265 0.930 . S
C294 C289 1.391 . S
C294 N293 1.388 . S
Co295 O297 2.143 . S
Co295 O303 2.074 . S
Co295 O306 2.093 . S
Co295 O319 2.097 . S
Co295 N336 2.151 . S
Co295 N344 2.214 . S
Co296 O297 2.160 . S
Co296 O302 2.058 . S
Co296 O312 2.057 . S
Co296 O327 2.037 . S
Co296 N331 2.145 . S
Co296 N352 2.257 . S
O297 Co295 2.143 . S
O297 Co296 2.160 . S
C298 O299 1.278 . S
C298 O306 1.224 . S
O299 C298 1.278 . S
C300 O301 1.245 . S
C300 O312 1.232 . S
O301 C300 1.245 . S
O302 Co296 2.058 . S
O302 C328 1.269 . S
O303 Co295 2.074 . S
O303 C328 1.257 . S
H304 C329 0.930 . S
H305 C335 0.930 . S
O306 Co295 2.093 . S
O306 C298 1.224 . S
H307 C339 0.929 . S
H308 C341 0.930 . S
H309 C342 0.930 . S
H310 C340 0.929 . S
H311 C343 0.928 . S
O312 Co296 2.057 . S
O312 C300 1.232 . S
H313 C332 0.929 . S
H314 C333 0.929 . S
H315 C345 0.931 . S
H316 C337 0.929 . S
H317 C346 0.930 . S
H318 C338 0.931 . S
O319 Co295 2.097 . S
O319 C347 1.214 . S
H320 C348 0.929 . S
H321 C349 0.929 . S
H322 C350 0.930 . S
H323 C351 0.929 . S
H324 C353 0.930 . S
H325 C330 0.930 . S
H326 C334 0.930 . S
O327 Co296 2.037 . S
O327 C347 1.234 . S
C328 O302 1.269 . S
C328 O303 1.257 . S
C329 H304 0.930 . S
C329 C332 1.388 . S
C329 C334 1.418 . S
C330 H325 0.930 . S
C330 C333 1.404 . S
C330 C334 1.353 . S
N331 Co296 2.145 . S
N331 C332 1.397 . S
N331 C333 1.334 . S
C332 H313 0.929 . S
C332 C329 1.388 . S
C332 N331 1.397 . S
C333 H314 0.929 . S
C333 C330 1.404 . S
C333 N331 1.334 . S
C334 H326 0.930 . S
C334 C329 1.418 . S
C334 C330 1.353 . S
C335 H305 0.930 . S
C335 N336 1.330 . S
C335 C337 1.446 . S
N336 Co295 2.151 . S
N336 C335 1.330 . S
N336 C340 1.418 . S
C337 H316 0.929 . S
C337 C335 1.446 . S
C337 C338 1.332 . S
C338 H318 0.931 . S
C338 C337 1.332 . S
C338 C339 1.267 . S
C339 H307 0.929 . S
C339 C338 1.267 . S
C339 C340 1.251 . S
C340 H310 0.929 . S
C340 N336 1.418 . S
C340 C339 1.251 . S
C341 H308 0.930 . S
C341 C343 1.406 . S
C341 C346 1.261 . S
C342 H309 0.930 . S
C342 N344 1.325 . S
C342 C345 1.357 . S
C343 H311 0.928 . S
C343 C341 1.406 . S
C343 N344 1.261 . S
N344 Co295 2.214 . S
N344 C342 1.325 . S
N344 C343 1.261 . S
C345 H315 0.931 . S
C345 C342 1.357 . S
C345 C346 1.312 . S
C346 H317 0.930 . S
C346 C341 1.261 . S
C346 C345 1.312 . S
C347 O319 1.214 . S
C347 O327 1.234 . S
C348 H320 0.929 . S
C348 C351 1.391 . S
C348 C353 1.391 1_554 S
C349 H321 0.929 . S
C349 C350 1.390 1_556 S
C349 N352 1.391 . S
C350 H322 0.930 . S
C350 C349 1.390 1_554 S
C350 C351 1.392 . S
C351 H323 0.929 . S
C351 C348 1.391 . S
C351 C350 1.392 . S
N352 Co296 2.257 . S
N352 C349 1.391 . S
N352 C353 1.388 . S
C353 H324 0.930 . S
C353 C348 1.391 1_556 S
C353 N352 1.388 . S
Co354 O356 2.143 . S
Co354 O362 2.074 . S
Co354 O365 2.093 . S
Co354 O378 2.097 . S
Co354 N395 2.151 . S
Co354 N403 2.214 . S
Co355 O356 2.160 . S
Co355 O361 2.058 . S
Co355 O371 2.057 . S
Co355 O386 2.037 . S
Co355 N390 2.145 . S
Co355 N411 2.257 . S
O356 Co354 2.143 . S
O356 Co355 2.160 . S
C357 O358 1.278 . S
C357 O365 1.224 . S
O358 C357 1.278 . S
C359 O360 1.245 . S
C359 O371 1.232 . S
O360 C359 1.245 . S
O361 Co355 2.058 . S
O361 C387 1.269 . S
O362 Co354 2.074 . S
O362 C387 1.257 . S
H363 C388 0.930 . S
H364 C394 0.930 . S
O365 Co354 2.093 . S
O365 C357 1.224 . S
H366 C398 0.929 1_545 S
H367 C400 0.930 . S
H368 C401 0.930 . S
H369 C399 0.929 . S
H370 C402 0.928 . S
O371 Co355 2.057 . S
O371 C359 1.232 . S
H372 C391 0.929 . S
H373 C392 0.929 . S
H374 C404 0.931 . S
H375 C396 0.929 . S
H376 C405 0.930 . S
H377 C397 0.931 . S
O378 Co354 2.097 . S
O378 C406 1.214 . S
H379 C407 0.929 . S
H380 C408 0.929 . S
H381 C409 0.930 . S
H382 C410 0.929 . S
H383 C412 0.930 . S
H384 C389 0.930 . S
H385 C393 0.930 . S
O386 Co355 2.037 . S
O386 C406 1.234 . S
C387 O361 1.269 . S
C387 O362 1.257 . S
C388 H363 0.930 . S
C388 C391 1.388 . S
C388 C393 1.418 . S
C389 H384 0.930 . S
C389 C392 1.404 . S
C389 C393 1.353 . S
N390 Co355 2.145 . S
N390 C391 1.397 . S
N390 C392 1.334 . S
C391 H372 0.929 . S
C391 C388 1.388 . S
C391 N390 1.397 . S
C392 H373 0.929 . S
C392 C389 1.404 . S
C392 N390 1.334 . S
C393 H385 0.930 . S
C393 C388 1.418 . S
C393 C389 1.353 . S
C394 H364 0.930 . S
C394 N395 1.330 . S
C394 C396 1.446 1_565 S
N395 Co354 2.151 . S
N395 C394 1.330 . S
N395 C399 1.418 . S
C396 H375 0.929 . S
C396 C394 1.446 1_545 S
C396 C397 1.332 . S
C397 H377 0.931 . S
C397 C396 1.332 . S
C397 C398 1.267 1_545 S
C398 H366 0.929 1_565 S
C398 C397 1.267 1_565 S
C398 C399 1.251 . S
C399 H369 0.929 . S
C399 N395 1.418 . S
C399 C398 1.251 . S
C400 H367 0.930 . S
C400 C402 1.406 . S
C400 C405 1.261 . S
C401 H368 0.930 . S
C401 N403 1.325 . S
C401 C404 1.357 . S
C402 H370 0.928 . S
C402 C400 1.406 . S
C402 N403 1.261 . S
N403 Co354 2.214 . S
N403 C401 1.325 . S
N403 C402 1.261 . S
C404 H374 0.931 . S
C404 C401 1.357 . S
C404 C405 1.312 . S
C405 H376 0.930 . S
C405 C400 1.261 . S
C405 C404 1.312 . S
C406 O378 1.214 . S
C406 O386 1.234 . S
C407 H379 0.929 . S
C407 C410 1.391 . S
C407 C412 1.391 . S
C408 H380 0.929 . S
C408 C409 1.390 . S
C408 N411 1.391 . S
C409 H381 0.930 . S
C409 C408 1.390 . S
C409 C410 1.392 . S
C410 H382 0.929 . S
C410 C407 1.391 . S
C410 C409 1.392 . S
N411 Co355 2.257 . S
N411 C408 1.391 . S
N411 C412 1.388 . S
C412 H383 0.930 . S
C412 C407 1.391 . S
C412 N411 1.388 . S
Co413 O415 2.143 . S
Co413 O421 2.074 . S
Co413 O424 2.093 . S
Co413 O437 2.097 . S
Co413 N454 2.151 . S
Co413 N462 2.214 . S
Co414 O415 2.160 . S
Co414 O420 2.058 . S
Co414 O430 2.057 . S
Co414 O445 2.037 . S
Co414 N449 2.145 . S
Co414 N470 2.257 . S
O415 Co413 2.143 . S
O415 Co414 2.160 . S
C416 O417 1.278 . S
C416 O424 1.224 . S
O417 C416 1.278 . S
C418 O419 1.245 . S
C418 O430 1.232 . S
O419 C418 1.245 . S
O420 Co414 2.058 . S
O420 C446 1.269 . S
O421 Co413 2.074 . S
O421 C446 1.257 . S
H422 C447 0.930 . S
H423 C453 0.930 . S
O424 Co413 2.093 . S
O424 C416 1.224 . S
H425 C457 0.929 . S
H426 C459 0.930 . S
H427 C460 0.930 . S
H428 C458 0.929 . S
H429 C461 0.928 . S
O430 Co414 2.057 . S
O430 C418 1.232 . S
H431 C450 0.929 . S
H432 C451 0.929 . S
H433 C463 0.931 . S
H434 C455 0.929 . S
H435 C464 0.930 . S
H436 C456 0.931 . S
O437 Co413 2.097 . S
O437 C465 1.214 . S
H438 C466 0.929 . S
H439 C467 0.929 . S
H440 C468 0.930 . S
H441 C469 0.929 . S
H442 C471 0.930 . S
H443 C448 0.930 . S
H444 C452 0.930 . S
O445 Co414 2.037 . S
O445 C465 1.234 . S
C446 O420 1.269 . S
C446 O421 1.257 . S
C447 H422 0.930 . S
C447 C450 1.388 . S
C447 C452 1.418 . S
C448 H443 0.930 . S
C448 C451 1.404 . S
C448 C452 1.353 . S
N449 Co414 2.145 . S
N449 C450 1.397 . S
N449 C451 1.334 . S
C450 H431 0.929 . S
C450 C447 1.388 . S
C450 N449 1.397 . S
C451 H432 0.929 . S
C451 C448 1.404 . S
C451 N449 1.334 . S
C452 H444 0.930 . S
C452 C447 1.418 . S
C452 C448 1.353 . S
C453 H423 0.930 . S
C453 N454 1.330 . S
C453 C455 1.446 . S
N454 Co413 2.151 . S
N454 C453 1.330 . S
N454 C458 1.418 . S
C455 H434 0.929 . S
C455 C453 1.446 . S
C455 C456 1.332 . S
C456 H436 0.931 . S
C456 C455 1.332 . S
C456 C457 1.267 . S
C457 H425 0.929 . S
C457 C456 1.267 . S
C457 C458 1.251 . S
C458 H428 0.929 . S
C458 N454 1.418 . S
C458 C457 1.251 . S
C459 H426 0.930 . S
C459 C461 1.406 . S
C459 C464 1.261 . S
C460 H427 0.930 . S
C460 N462 1.325 . S
C460 C463 1.357 . S
C461 H429 0.928 . S
C461 C459 1.406 . S
C461 N462 1.261 . S
N462 Co413 2.214 . S
N462 C460 1.325 . S
N462 C461 1.261 . S
C463 H433 0.931 . S
C463 C460 1.357 . S
C463 C464 1.312 . S
C464 H435 0.930 . S
C464 C459 1.261 . S
C464 C463 1.312 . S
C465 O437 1.214 . S
C465 O445 1.234 . S
C466 H438 0.929 . S
C466 C469 1.391 . S
C466 C471 1.391 . S
C467 H439 0.929 . S
C467 C468 1.390 . S
C467 N470 1.391 . S
C468 H440 0.930 . S
C468 C467 1.390 . S
C468 C469 1.392 . S
C469 H441 0.929 . S
C469 C466 1.391 . S
C469 C468 1.392 . S
N470 Co414 2.257 . S
N470 C467 1.391 . S
N470 C471 1.388 . S
C471 H442 0.930 . S
C471 C466 1.391 . S
C471 N470 1.388 . S
Co472 O474 2.143 . S
Co472 O480 2.074 . S
Co472 O483 2.093 . S
Co472 O496 2.097 . S
Co472 N513 2.151 . S
Co472 N521 2.214 . S
Co473 O474 2.160 . S
Co473 O479 2.058 . S
Co473 O489 2.057 . S
Co473 O504 2.037 . S
Co473 N508 2.145 . S
Co473 N529 2.257 . S
O474 Co472 2.143 . S
O474 Co473 2.160 . S
C475 O476 1.278 . S
C475 O483 1.224 . S
O476 C475 1.278 . S
C477 O478 1.245 . S
C477 O489 1.232 . S
O478 C477 1.245 . S
O479 Co473 2.058 . S
O479 C505 1.269 . S
O480 Co472 2.074 . S
O480 C505 1.257 . S
H481 C506 0.930 . S
H482 C512 0.930 . S
O483 Co472 2.093 . S
O483 C475 1.224 . S
H484 C516 0.929 1_655 S
H485 C518 0.930 . S
H486 C519 0.930 . S
H487 C517 0.929 . S
H488 C520 0.928 . S
O489 Co473 2.057 . S
O489 C477 1.232 . S
H490 C509 0.929 . S
H491 C510 0.929 . S
H492 C522 0.931 . S
H493 C514 0.929 . S
H494 C523 0.930 . S
H495 C515 0.931 . S
O496 Co472 2.097 . S
O496 C524 1.214 . S
H497 C525 0.929 . S
H498 C526 0.929 . S
H499 C527 0.930 . S
H500 C528 0.929 . S
H501 C530 0.930 . S
H502 C507 0.930 . S
H503 C511 0.930 . S
O504 Co473 2.037 . S
O504 C524 1.234 . S
C505 O479 1.269 . S
C505 O480 1.257 . S
C506 H481 0.930 . S
C506 C509 1.388 . S
C506 C511 1.418 . S
C507 H502 0.930 . S
C507 C510 1.404 . S
C507 C511 1.353 . S
N508 Co473 2.145 . S
N508 C509 1.397 . S
N508 C510 1.334 . S
C509 H490 0.929 . S
C509 C506 1.388 . S
C509 N508 1.397 . S
C510 H491 0.929 . S
C510 C507 1.404 . S
C510 N508 1.334 . S
C511 H503 0.930 . S
C511 C506 1.418 . S
C511 C507 1.353 . S
C512 H482 0.930 . S
C512 N513 1.330 . S
C512 C514 1.446 1_455 S
N513 Co472 2.151 . S
N513 C512 1.330 . S
N513 C517 1.418 . S
C514 H493 0.929 . S
C514 C512 1.446 1_655 S
C514 C515 1.332 . S
C515 H495 0.931 . S
C515 C514 1.332 . S
C515 C516 1.267 1_655 S
C516 H484 0.929 1_455 S
C516 C515 1.267 1_455 S
C516 C517 1.251 . S
C517 H487 0.929 . S
C517 N513 1.418 . S
C517 C516 1.251 . S
C518 H485 0.930 . S
C518 C520 1.406 . S
C518 C523 1.261 . S
C519 H486 0.930 . S
C519 N521 1.325 . S
C519 C522 1.357 . S
C520 H488 0.928 . S
C520 C518 1.406 . S
C520 N521 1.261 . S
N521 Co472 2.214 . S
N521 C519 1.325 . S
N521 C520 1.261 . S
C522 H492 0.931 . S
C522 C519 1.357 . S
C522 C523 1.312 . S
C523 H494 0.930 . S
C523 C518 1.261 . S
C523 C522 1.312 . S
C524 O496 1.214 . S
C524 O504 1.234 . S
C525 H497 0.929 . S
C525 C528 1.391 . S
C525 C530 1.391 1_556 S
C526 H498 0.929 . S
C526 C527 1.390 1_554 S
C526 N529 1.391 . S
C527 H499 0.930 . S
C527 C526 1.390 1_556 S
C527 C528 1.392 . S
C528 H500 0.929 . S
C528 C525 1.391 . S
C528 C527 1.392 . S
N529 Co473 2.257 . S
N529 C526 1.391 . S
N529 C530 1.388 . S
C530 H501 0.930 . S
C530 C525 1.391 1_554 S
C530 N529 1.388 . S
Co531 O533 2.143 . S
Co531 O539 2.074 . S
Co531 O542 2.093 . S
Co531 O555 2.097 . S
Co531 N572 2.151 . S
Co531 N580 2.214 . S
Co532 O533 2.160 . S
Co532 O538 2.058 . S
Co532 O548 2.057 . S
Co532 O563 2.037 . S
Co532 N567 2.145 . S
Co532 N588 2.257 . S
O533 Co531 2.143 . S
O533 Co532 2.160 . S
C534 O535 1.278 . S
C534 O542 1.224 . S
O535 C534 1.278 . S
C536 O537 1.245 . S
C536 O548 1.232 . S
O537 C536 1.245 . S
O538 Co532 2.058 . S
O538 C564 1.269 . S
O539 Co531 2.074 . S
O539 C564 1.257 . S
H540 C565 0.930 . S
H541 C571 0.930 . S
O542 Co531 2.093 . S
O542 C534 1.224 . S
H543 C575 0.929 1_565 S
H544 C577 0.930 . S
H545 C578 0.930 . S
H546 C576 0.929 . S
H547 C579 0.928 . S
O548 Co532 2.057 . S
O548 C536 1.232 . S
H549 C568 0.929 . S
H550 C569 0.929 . S
H551 C581 0.931 . S
H552 C573 0.929 . S
H553 C582 0.930 . S
H554 C574 0.931 . S
O555 Co531 2.097 . S
O555 C583 1.214 . S
H556 C584 0.929 . S
H557 C585 0.929 . S
H558 C586 0.930 . S
H559 C587 0.929 . S
H560 C589 0.930 . S
H561 C566 0.930 . S
H562 C570 0.930 . S
O563 Co532 2.037 . S
O563 C583 1.234 . S
C564 O538 1.269 . S
C564 O539 1.257 . S
C565 H540 0.930 . S
C565 C568 1.388 . S
C565 C570 1.418 . S
C566 H561 0.930 . S
C566 C569 1.404 . S
C566 C570 1.353 . S
N567 Co532 2.145 . S
N567 C568 1.397 . S
N567 C569 1.334 . S
C568 H549 0.929 . S
C568 C565 1.388 . S
C568 N567 1.397 . S
C569 H550 0.929 . S
C569 C566 1.404 . S
C569 N567 1.334 . S
C570 H562 0.930 . S
C570 C565 1.418 . S
C570 C566 1.353 . S
C571 H541 0.930 . S
C571 N572 1.330 . S
C571 C573 1.446 1_545 S
N572 Co531 2.151 . S
N572 C571 1.330 . S
N572 C576 1.418 . S
C573 H552 0.929 . S
C573 C571 1.446 1_565 S
C573 C574 1.332 . S
C574 H554 0.931 . S
C574 C573 1.332 . S
C574 C575 1.267 1_565 S
C575 H543 0.929 1_545 S
C575 C574 1.267 1_545 S
C575 C576 1.251 . S
C576 H546 0.929 . S
C576 N572 1.418 . S
C576 C575 1.251 . S
C577 H544 0.930 . S
C577 C579 1.406 . S
C577 C582 1.261 . S
C578 H545 0.930 . S
C578 N580 1.325 . S
C578 C581 1.357 . S
C579 H547 0.928 . S
C579 C577 1.406 . S
C579 N580 1.261 . S
N580 Co531 2.214 . S
N580 C578 1.325 . S
N580 C579 1.261 . S
C581 H551 0.931 . S
C581 C578 1.357 . S
C581 C582 1.312 . S
C582 H553 0.930 . S
C582 C577 1.261 . S
C582 C581 1.312 . S
C583 O555 1.214 . S
C583 O563 1.234 . S
C584 H556 0.929 . S
C584 C587 1.391 . S
C584 C589 1.391 . S
C585 H557 0.929 . S
C585 C586 1.390 . S
C585 N588 1.391 . S
C586 H558 0.930 . S
C586 C585 1.390 . S
C586 C587 1.392 . S
C587 H559 0.929 . S
C587 C584 1.391 . S
C587 C586 1.392 . S
N588 Co532 2.257 . S
N588 C585 1.391 . S
N588 C589 1.388 . S
C589 H560 0.930 . S
C589 C584 1.391 . S
C589 N588 1.388 . S
Co590 O592 2.143 . S
Co590 O598 2.074 . S
Co590 O601 2.093 . S
Co590 O614 2.097 . S
Co590 N631 2.151 . S
Co590 N639 2.214 . S
Co591 O592 2.160 . S
Co591 O597 2.058 . S
Co591 O607 2.057 . S
Co591 O622 2.037 . S
Co591 N626 2.145 . S
Co591 N647 2.257 . S
O592 Co590 2.143 . S
O592 Co591 2.160 . S
C593 O594 1.278 . S
C593 O601 1.224 . S
O594 C593 1.278 . S
C595 O596 1.245 . S
C595 O607 1.232 . S
O596 C595 1.245 . S
O597 Co591 2.058 . S
O597 C623 1.269 . S
O598 Co590 2.074 . S
O598 C623 1.257 . S
H599 C624 0.930 . S
H600 C630 0.930 . S
O601 Co590 2.093 . S
O601 C593 1.224 . S
H602 C634 0.929 . S
H603 C636 0.930 . S
H604 C637 0.930 . S
H605 C635 0.929 . S
H606 C638 0.928 . S
O607 Co591 2.057 . S
O607 C595 1.232 . S
H608 C627 0.929 . S
H609 C628 0.929 . S
H610 C640 0.931 . S
H611 C632 0.929 . S
H612 C641 0.930 . S
H613 C633 0.931 . S
O614 Co590 2.097 . S
O614 C642 1.214 . S
H615 C643 0.929 . S
H616 C644 0.929 . S
H617 C645 0.930 . S
H618 C646 0.929 . S
H619 C648 0.930 . S
H620 C625 0.930 . S
H621 C629 0.930 . S
O622 Co591 2.037 . S
O622 C642 1.234 . S
C623 O597 1.269 . S
C623 O598 1.257 . S
C624 H599 0.930 . S
C624 C627 1.388 . S
C624 C629 1.418 . S
C625 H620 0.930 . S
C625 C628 1.404 . S
C625 C629 1.353 . S
N626 Co591 2.145 . S
N626 C627 1.397 . S
N626 C628 1.334 . S
C627 H608 0.929 . S
C627 C624 1.388 . S
C627 N626 1.397 . S
C628 H609 0.929 . S
C628 C625 1.404 . S
C628 N626 1.334 . S
C629 H621 0.930 . S
C629 C624 1.418 . S
C629 C625 1.353 . S
C630 H600 0.930 . S
C630 N631 1.330 . S
C630 C632 1.446 . S
N631 Co590 2.151 . S
N631 C630 1.330 . S
N631 C635 1.418 . S
C632 H611 0.929 . S
C632 C630 1.446 . S
C632 C633 1.332 . S
C633 H613 0.931 . S
C633 C632 1.332 . S
C633 C634 1.267 . S
C634 H602 0.929 . S
C634 C633 1.267 . S
C634 C635 1.251 . S
C635 H605 0.929 . S
C635 N631 1.418 . S
C635 C634 1.251 . S
C636 H603 0.930 . S
C636 C638 1.406 . S
C636 C641 1.261 . S
C637 H604 0.930 . S
C637 N639 1.325 . S
C637 C640 1.357 . S
C638 H606 0.928 . S
C638 C636 1.406 . S
C638 N639 1.261 . S
N639 Co590 2.214 . S
N639 C637 1.325 . S
N639 C638 1.261 . S
C640 H610 0.931 . S
C640 C637 1.357 . S
C640 C641 1.312 . S
C641 H612 0.930 . S
C641 C636 1.261 . S
C641 C640 1.312 . S
C642 O614 1.214 . S
C642 O622 1.234 . S
C643 H615 0.929 . S
C643 C646 1.391 . S
C643 C648 1.391 . S
C644 H616 0.929 . S
C644 C645 1.390 . S
C644 N647 1.391 . S
C645 H617 0.930 . S
C645 C644 1.390 . S
C645 C646 1.392 . S
C646 H618 0.929 . S
C646 C643 1.391 . S
C646 C645 1.392 . S
N647 Co591 2.257 . S
N647 C644 1.391 . S
N647 C648 1.388 . S
C648 H619 0.930 . S
C648 C643 1.391 . S
C648 N647 1.388 . S
Co649 O651 2.143 . S
Co649 O657 2.074 . S
Co649 O660 2.093 . S
Co649 O673 2.097 . S
Co649 N690 2.151 . S
Co649 N698 2.214 . S
Co650 O651 2.160 . S
Co650 O656 2.058 . S
Co650 O666 2.057 . S
Co650 O681 2.037 . S
Co650 N685 2.145 . S
Co650 N706 2.257 . S
O651 Co649 2.143 . S
O651 Co650 2.160 . S
C652 O653 1.278 . S
C652 O660 1.224 . S
O653 C652 1.278 . S
C654 O655 1.245 . S
C654 O666 1.232 . S
O655 C654 1.245 . S
O656 Co650 2.058 . S
O656 C682 1.269 . S
O657 Co649 2.074 . S
O657 C682 1.257 . S
H658 C683 0.930 . S
H659 C689 0.930 . S
O660 Co649 2.093 . S
O660 C652 1.224 . S
H661 C693 0.929 1_455 S
H662 C695 0.930 . S
H663 C696 0.930 . S
H664 C694 0.929 . S
H665 C697 0.928 . S
O666 Co650 2.057 . S
O666 C654 1.232 . S
H667 C686 0.929 . S
H668 C687 0.929 . S
H669 C699 0.931 . S
H670 C691 0.929 . S
H671 C700 0.930 . S
H672 C692 0.931 . S
O673 Co649 2.097 . S
O673 C701 1.214 . S
H674 C702 0.929 . S
H675 C703 0.929 . S
H676 C704 0.930 . S
H677 C705 0.929 . S
H678 C707 0.930 . S
H679 C684 0.930 . S
H680 C688 0.930 . S
O681 Co650 2.037 . S
O681 C701 1.234 . S
C682 O656 1.269 . S
C682 O657 1.257 . S
C683 H658 0.930 . S
C683 C686 1.388 . S
C683 C688 1.418 . S
C684 H679 0.930 . S
C684 C687 1.404 . S
C684 C688 1.353 . S
N685 Co650 2.145 . S
N685 C686 1.397 . S
N685 C687 1.334 . S
C686 H667 0.929 . S
C686 C683 1.388 . S
C686 N685 1.397 . S
C687 H668 0.929 . S
C687 C684 1.404 . S
C687 N685 1.334 . S
C688 H680 0.930 . S
C688 C683 1.418 . S
C688 C684 1.353 . S
C689 H659 0.930 . S
C689 N690 1.330 . S
C689 C691 1.446 1_655 S
N690 Co649 2.151 . S
N690 C689 1.330 . S
N690 C694 1.418 . S
C691 H670 0.929 . S
C691 C689 1.446 1_455 S
C691 C692 1.332 . S
C692 H672 0.931 . S
C692 C691 1.332 . S
C692 C693 1.267 1_455 S
C693 H661 0.929 1_655 S
C693 C692 1.267 1_655 S
C693 C694 1.251 . S
C694 H664 0.929 . S
C694 N690 1.418 . S
C694 C693 1.251 . S
C695 H662 0.930 . S
C695 C697 1.406 . S
C695 C700 1.261 . S
C696 H663 0.930 . S
C696 N698 1.325 . S
C696 C699 1.357 . S
C697 H665 0.928 . S
C697 C695 1.406 . S
C697 N698 1.261 . S
N698 Co649 2.214 . S
N698 C696 1.325 . S
N698 C697 1.261 . S
C699 H669 0.931 . S
C699 C696 1.357 . S
C699 C700 1.312 . S
C700 H671 0.930 . S
C700 C695 1.261 . S
C700 C699 1.312 . S
C701 O673 1.214 . S
C701 O681 1.234 . S
C702 H674 0.929 . S
C702 C705 1.391 . S
C702 C707 1.391 . S
C703 H675 0.929 . S
C703 C704 1.390 . S
C703 N706 1.391 . S
C704 H676 0.930 . S
C704 C703 1.390 . S
C704 C705 1.392 . S
C705 H677 0.929 . S
C705 C702 1.391 . S
C705 C704 1.392 . S
N706 Co650 2.257 . S
N706 C703 1.391 . S
N706 C707 1.388 . S
C707 H678 0.930 . S
C707 C702 1.391 . S
C707 N706 1.388 . S
H708 C714 0.930 . S
H709 C718 0.930 . S
H710 C723 0.929 . S
H711 C721 0.929 . S
H712 C716 0.929 . S
H713 C722 0.929 . S
C714 H708 0.930 . S
C714 C715 1.367 . S
C714 C722 1.378 . S
C715 C714 1.367 . S
C715 C723 1.433 . S
C716 H712 0.929 . S
C716 C718 1.378 . S
C716 C720 1.350 . S
C717 C720 1.463 . S
C717 C722 1.350 . S
C717 N725 1.427 . S
C718 H709 0.930 . S
C718 C716 1.378 . S
C718 C719 1.367 . S
C719 C718 1.367 . S
C719 C721 1.433 . S
C720 C716 1.350 . S
C720 C717 1.463 . S
C720 N724 1.427 . S
C721 H711 0.929 . S
C721 C719 1.433 . S
C721 N724 1.384 . S
C722 H713 0.929 . S
C722 C714 1.378 . S
C722 C717 1.350 . S
C723 H710 0.929 . S
C723 C715 1.433 . S
C723 N725 1.384 . S
N724 C720 1.427 . S
N724 C721 1.384 . S
N725 C717 1.427 . S
N725 C723 1.384 . S
H726 C732 0.930 . S
H727 C736 0.930 . S
H728 C741 0.929 . S
H729 C739 0.929 . S
H730 C734 0.929 . S
H731 C740 0.929 . S
C732 H726 0.930 . S
C732 C733 1.367 . S
C732 C740 1.378 . S
C733 C732 1.367 . S
C733 C741 1.433 . S
C734 H730 0.929 . S
C734 C736 1.378 . S
C734 C738 1.350 . S
C735 C738 1.463 . S
C735 C740 1.350 . S
C735 N743 1.427 . S
C736 H727 0.930 . S
C736 C734 1.378 . S
C736 C737 1.367 . S
C737 C736 1.367 . S
C737 C739 1.433 . S
C738 C734 1.350 . S
C738 C735 1.463 . S
C738 N742 1.427 . S
C739 H729 0.929 . S
C739 C737 1.433 . S
C739 N742 1.384 . S
C740 H731 0.929 . S
C740 C732 1.378 . S
C740 C735 1.350 . S
C741 H728 0.929 . S
C741 C733 1.433 . S
C741 N743 1.384 . S
N742 C738 1.427 . S
N742 C739 1.384 . S
N743 C735 1.427 . S
N743 C741 1.384 . S
H744 C750 0.930 . S
H745 C754 0.930 . S
H746 C759 0.929 . S
H747 C757 0.929 . S
H748 C752 0.929 . S
H749 C758 0.929 . S
C750 H744 0.930 . S
C750 C751 1.367 . S
C750 C758 1.378 . S
C751 C750 1.367 . S
C751 C759 1.433 . S
C752 H748 0.929 . S
C752 C754 1.378 . S
C752 C756 1.350 . S
C753 C756 1.463 . S
C753 C758 1.350 . S
C753 N761 1.427 . S
C754 H745 0.930 . S
C754 C752 1.378 . S
C754 C755 1.367 . S
C755 C754 1.367 . S
C755 C757 1.433 . S
C756 C752 1.350 . S
C756 C753 1.463 . S
C756 N760 1.427 . S
C757 H747 0.929 . S
C757 C755 1.433 . S
C757 N760 1.384 . S
C758 H749 0.929 . S
C758 C750 1.378 . S
C758 C753 1.350 . S
C759 H746 0.929 . S
C759 C751 1.433 . S
C759 N761 1.384 . S
N760 C756 1.427 . S
N760 C757 1.384 . S
N761 C753 1.427 . S
N761 C759 1.384 . S
H762 C768 0.930 . S
H763 C772 0.930 . S
H764 C777 0.929 . S
H765 C775 0.929 . S
H766 C770 0.929 . S
H767 C776 0.929 . S
C768 H762 0.930 . S
C768 C769 1.367 . S
C768 C776 1.378 . S
C769 C768 1.367 . S
C769 C777 1.433 . S
C770 H766 0.929 . S
C770 C772 1.378 . S
C770 C774 1.350 . S
C771 C774 1.463 . S
C771 C776 1.350 . S
C771 N779 1.427 . S
C772 H763 0.930 . S
C772 C770 1.378 . S
C772 C773 1.367 . S
C773 C772 1.367 . S
C773 C775 1.433 . S
C774 C770 1.350 . S
C774 C771 1.463 . S
C774 N778 1.427 . S
C775 H765 0.929 . S
C775 C773 1.433 . S
C775 N778 1.384 . S
C776 H767 0.929 . S
C776 C768 1.378 . S
C776 C771 1.350 . S
C777 H764 0.929 . S
C777 C769 1.433 . S
C777 N779 1.384 . S
N778 C774 1.427 . S
N778 C775 1.384 . S
N779 C771 1.427 . S
N779 C777 1.384 . S
H780 C786 0.930 . S
H781 C790 0.930 . S
H782 C795 0.929 . S
H783 C793 0.929 . S
H784 C788 0.929 . S
H785 C794 0.929 . S
C786 H780 0.930 . S
C786 C787 1.367 . S
C786 C794 1.378 . S
C787 C786 1.367 . S
C787 C795 1.433 . S
C788 H784 0.929 . S
C788 C790 1.378 . S
C788 C792 1.350 . S
C789 C792 1.463 . S
C789 C794 1.350 . S
C789 N797 1.427 . S
C790 H781 0.930 . S
C790 C788 1.378 . S
C790 C791 1.367 . S
C791 C790 1.367 . S
C791 C793 1.433 . S
C792 C788 1.350 . S
C792 C789 1.463 . S
C792 N796 1.427 . S
C793 H783 0.929 . S
C793 C791 1.433 . S
C793 N796 1.384 . S
C794 H785 0.929 . S
C794 C786 1.378 . S
C794 C789 1.350 . S
C795 H782 0.929 . S
C795 C787 1.433 . S
C795 N797 1.384 . S
N796 C792 1.427 . S
N796 C793 1.384 . S
N797 C789 1.427 . S
N797 C795 1.384 . S
H798 C804 0.930 . S
H799 C808 0.930 . S
H800 C813 0.929 . S
H801 C811 0.929 . S
H802 C806 0.929 . S
H803 C812 0.929 . S
C804 H798 0.930 . S
C804 C805 1.367 . S
C804 C812 1.378 . S
C805 C804 1.367 . S
C805 C813 1.433 . S
C806 H802 0.929 . S
C806 C808 1.378 . S
C806 C810 1.350 . S
C807 C810 1.463 . S
C807 C812 1.350 . S
C807 N815 1.427 . S
C808 H799 0.930 . S
C808 C806 1.378 . S
C808 C809 1.367 . S
C809 C808 1.367 . S
C809 C811 1.433 . S
C810 C806 1.350 . S
C810 C807 1.463 . S
C810 N814 1.427 . S
C811 H801 0.929 . S
C811 C809 1.433 . S
C811 N814 1.384 . S
C812 H803 0.929 . S
C812 C804 1.378 . S
C812 C807 1.350 . S
C813 H800 0.929 . S
C813 C805 1.433 . S
C813 N815 1.384 . S
N814 C810 1.427 . S
N814 C811 1.384 . S
N815 C807 1.427 . S
N815 C813 1.384 . S
H816 C822 0.930 . S
H817 C826 0.930 . S
H818 C831 0.929 . S
H819 C829 0.929 . S
H820 C824 0.929 . S
H821 C830 0.929 . S
C822 H816 0.930 . S
C822 C823 1.367 . S
C822 C830 1.378 . S
C823 C822 1.367 . S
C823 C831 1.433 . S
C824 H820 0.929 . S
C824 C826 1.378 . S
C824 C828 1.350 . S
C825 C828 1.463 . S
C825 C830 1.350 . S
C825 N833 1.427 . S
C826 H817 0.930 . S
C826 C824 1.378 . S
C826 C827 1.367 . S
C827 C826 1.367 . S
C827 C829 1.433 . S
C828 C824 1.350 . S
C828 C825 1.463 . S
C828 N832 1.427 . S
C829 H819 0.929 . S
C829 C827 1.433 . S
C829 N832 1.384 . S
C830 H821 0.929 . S
C830 C822 1.378 . S
C830 C825 1.350 . S
C831 H818 0.929 . S
C831 C823 1.433 . S
C831 N833 1.384 . S
N832 C828 1.427 . S
N832 C829 1.384 . S
N833 C825 1.427 . S
N833 C831 1.384 . S
H834 C840 0.930 . S
H835 C844 0.930 . S
H836 C849 0.929 . S
H837 C847 0.929 . S
H838 C842 0.929 . S
H839 C848 0.929 . S
C840 H834 0.930 . S
C840 C841 1.367 . S
C840 C848 1.378 . S
C841 C840 1.367 . S
C841 C849 1.433 . S
C842 H838 0.929 . S
C842 C844 1.378 . S
C842 C846 1.350 . S
C843 C846 1.463 1_655 S
C843 C848 1.350 . S
C843 N851 1.427 . S
C844 H835 0.930 . S
C844 C842 1.378 . S
C844 C845 1.367 . S
C845 C844 1.367 . S
C845 C847 1.433 . S
C846 C842 1.350 . S
C846 C843 1.463 1_455 S
C846 N850 1.427 . S
C847 H837 0.929 . S
C847 C845 1.433 . S
C847 N850 1.384 . S
C848 H839 0.929 . S
C848 C840 1.378 . S
C848 C843 1.350 . S
C849 H836 0.929 . S
C849 C841 1.433 . S
C849 N851 1.384 . S
N850 C846 1.427 . S
N850 C847 1.384 . S
N851 C843 1.427 . S
N851 C849 1.384 . S
H852 C858 0.930 . S
H853 C862 0.930 . S
H854 C867 0.929 . S
H855 C865 0.929 . S
H856 C860 0.929 . S
H857 C866 0.929 . S
C858 H852 0.930 . S
C858 C859 1.367 . S
C858 C866 1.378 . S
C859 C858 1.367 . S
C859 C867 1.433 . S
C860 H856 0.929 . S
C860 C862 1.378 . S
C860 C864 1.350 . S
C861 C864 1.463 1_545 S
C861 C866 1.350 . S
C861 N869 1.427 . S
C862 H853 0.930 . S
C862 C860 1.378 . S
C862 C863 1.367 . S
C863 C862 1.367 . S
C863 C865 1.433 . S
C864 C860 1.350 . S
C864 C861 1.463 1_565 S
C864 N868 1.427 . S
C865 H855 0.929 . S
C865 C863 1.433 . S
C865 N868 1.384 . S
C866 H857 0.929 . S
C866 C858 1.378 . S
C866 C861 1.350 . S
C867 H854 0.929 . S
C867 C859 1.433 . S
C867 N869 1.384 . S
N868 C864 1.427 . S
N868 C865 1.384 . S
N869 C861 1.427 . S
N869 C867 1.384 . S
H870 C876 0.930 . S
H871 C880 0.930 . S
H872 C885 0.929 . S
H873 C883 0.929 . S
H874 C878 0.929 . S
H875 C884 0.929 . S
C876 H870 0.930 . S
C876 C877 1.367 . S
C876 C884 1.378 . S
C877 C876 1.367 . S
C877 C885 1.433 . S
C878 H874 0.929 . S
C878 C880 1.378 . S
C878 C882 1.350 . S
C879 C882 1.463 . S
C879 C884 1.350 . S
C879 N887 1.427 . S
C880 H871 0.930 . S
C880 C878 1.378 . S
C880 C881 1.367 . S
C881 C880 1.367 . S
C881 C883 1.433 . S
C882 C878 1.350 . S
C882 C879 1.463 . S
C882 N886 1.427 . S
C883 H873 0.929 . S
C883 C881 1.433 . S
C883 N886 1.384 . S
C884 H875 0.929 . S
C884 C876 1.378 . S
C884 C879 1.350 . S
C885 H872 0.929 . S
C885 C877 1.433 . S
C885 N887 1.384 . S
N886 C882 1.427 . S
N886 C883 1.384 . S
N887 C879 1.427 . S
N887 C885 1.384 . S
H888 C894 0.930 . S
H889 C898 0.930 . S
H890 C903 0.929 . S
H891 C901 0.929 . S
H892 C896 0.929 . S
H893 C902 0.929 . S
C894 H888 0.930 . S
C894 C895 1.367 . S
C894 C902 1.378 . S
C895 C894 1.367 . S
C895 C903 1.433 . S
C896 H892 0.929 . S
C896 C898 1.378 . S
C896 C900 1.350 . S
C897 C900 1.463 1_655 S
C897 C902 1.350 . S
C897 N905 1.427 . S
C898 H889 0.930 . S
C898 C896 1.378 . S
C898 C899 1.367 . S
C899 C898 1.367 . S
C899 C901 1.433 . S
C900 C896 1.350 . S
C900 C897 1.463 1_455 S
C900 N904 1.427 . S
C901 H891 0.929 . S
C901 C899 1.433 . S
C901 N904 1.384 . S
C902 H893 0.929 . S
C902 C894 1.378 . S
C902 C897 1.350 . S
C903 H890 0.929 . S
C903 C895 1.433 . S
C903 N905 1.384 . S
N904 C900 1.427 . S
N904 C901 1.384 . S
N905 C897 1.427 . S
N905 C903 1.384 . S
H906 C912 0.930 . S
H907 C916 0.930 . S
H908 C921 0.929 . S
H909 C919 0.929 . S
H910 C914 0.929 . S
H911 C920 0.929 . S
C912 H906 0.930 . S
C912 C913 1.367 . S
C912 C920 1.378 . S
C913 C912 1.367 . S
C913 C921 1.433 . S
C914 H910 0.929 . S
C914 C916 1.378 . S
C914 C918 1.350 . S
C915 C918 1.463 1_564 S
C915 C920 1.350 . S
C915 N923 1.427 . S
C916 H907 0.930 . S
C916 C914 1.378 . S
C916 C917 1.367 . S
C917 C916 1.367 . S
C917 C919 1.433 . S
C918 C914 1.350 . S
C918 C915 1.463 1_546 S
C918 N922 1.427 . S
C919 H909 0.929 . S
C919 C917 1.433 . S
C919 N922 1.384 . S
C920 H911 0.929 . S
C920 C912 1.378 . S
C920 C915 1.350 . S
C921 H908 0.929 . S
C921 C913 1.433 . S
C921 N923 1.384 . S
N922 C918 1.427 . S
N922 C919 1.384 . S
N923 C915 1.427 . S
N923 C921 1.384 . S
H924 C930 0.930 . S
H925 C934 0.930 . S
H926 C939 0.929 . S
H927 C937 0.929 . S
H928 C932 0.929 . S
H929 C938 0.929 . S
C930 H924 0.930 . S
C930 C931 1.367 . S
C930 C938 1.378 . S
C931 C930 1.367 . S
C931 C939 1.433 . S
C932 H928 0.929 . S
C932 C934 1.378 . S
C932 C936 1.350 . S
C933 C936 1.463 . S
C933 C938 1.350 . S
C933 N941 1.427 . S
C934 H925 0.930 . S
C934 C932 1.378 . S
C934 C935 1.386 . S
C935 C934 1.386 . S
C935 C937 1.454 . S
C936 C932 1.350 . S
C936 C933 1.463 . S
C936 N940 1.427 . S
C937 H927 0.929 . S
C937 C935 1.454 . S
C937 N940 1.384 . S
C938 H929 0.929 . S
C938 C930 1.378 . S
C938 C933 1.350 . S
C939 H926 0.929 . S
C939 C931 1.433 . S
C939 N941 1.384 . S
N940 C936 1.427 . S
N940 C937 1.384 . S
N941 C933 1.427 . S
N941 C939 1.384 . S
H942 C948 0.930 . S
H943 C952 0.930 . S
H944 C957 0.929 . S
H945 C955 0.929 . S
H946 C950 0.929 . S
H947 C956 0.929 . S
C948 H942 0.930 . S
C948 C949 1.367 . S
C948 C956 1.378 . S
C949 C948 1.367 . S
C949 C957 1.433 . S
C950 H946 0.929 . S
C950 C952 1.378 . S
C950 C954 1.350 . S
C951 C954 1.463 . S
C951 C956 1.350 . S
C951 N959 1.427 . S
C952 H943 0.930 . S
C952 C950 1.378 . S
C952 C953 1.367 1_655 S
C953 C952 1.367 1_455 S
C953 C955 1.433 . S
C954 C950 1.350 . S
C954 C951 1.463 . S
C954 N958 1.455 . S
C955 H945 0.929 . S
C955 C953 1.433 . S
C955 N958 1.370 1_455 S
C956 H947 0.929 . S
C956 C948 1.378 . S
C956 C951 1.350 . S
C957 H944 0.929 . S
C957 C949 1.433 . S
C957 N959 1.384 . S
N958 C954 1.455 . S
N958 C955 1.370 1_655 S
N959 C951 1.427 . S
N959 C957 1.384 . S
H960 C966 0.930 . S
H961 C970 0.930 . S
H962 C975 0.929 1_545 S
H963 C973 0.929 . S
H964 C968 0.929 . S
H965 C974 0.929 . S
C966 H960 0.930 . S
C966 C967 1.367 . S
C966 C974 1.378 1_545 S
C967 C966 1.367 . S
C967 C975 1.433 1_545 S
C968 H964 0.929 . S
C968 C970 1.378 . S
C968 C972 1.350 . S
C969 C972 1.463 . S
C969 C974 1.350 . S
C969 N977 1.427 . S
C970 H961 0.930 . S
C970 C968 1.378 . S
C970 C971 1.367 . S
C971 C970 1.367 . S
C971 C973 1.433 . S
C972 C968 1.350 . S
C972 C969 1.463 . S
C972 N976 1.427 . S
C973 H963 0.929 . S
C973 C971 1.433 . S
C973 N976 1.384 . S
C974 H965 0.929 . S
C974 C966 1.378 1_565 S
C974 C969 1.350 . S
C975 H962 0.929 1_565 S
C975 C967 1.433 1_565 S
C975 N977 1.384 . S
N976 C972 1.427 . S
N976 C973 1.384 . S
N977 C969 1.427 . S
N977 C975 1.384 . S
H978 C984 0.930 . S
H979 C988 0.930 . S
H980 C993 0.929 . S
H981 C991 0.929 . S
H982 C986 0.929 . S
H983 C992 0.929 . S
C984 H978 0.930 . S
C984 C985 1.367 . S
C984 C992 1.378 . S
C985 C984 1.367 . S
C985 C993 1.433 . S
C986 H982 0.929 . S
C986 C988 1.378 . S
C986 C990 1.350 . S
C987 C990 1.463 . S
C987 C992 1.350 . S
C987 N995 1.427 . S
C988 H979 0.930 . S
C988 C986 1.378 . S
C988 C989 1.367 . S
C989 C988 1.367 . S
C989 C991 1.433 . S
C990 C986 1.350 . S
C990 C987 1.463 . S
C990 N994 1.427 . S
C991 H981 0.929 . S
C991 C989 1.433 . S
C991 N994 1.384 . S
C992 H983 0.929 . S
C992 C984 1.378 . S
C992 C987 1.350 . S
C993 H980 0.929 . S
C993 C985 1.433 . S
C993 N995 1.384 . S
N994 C990 1.427 . S
N994 C991 1.384 . S
N995 C987 1.427 . S
N995 C993 1.384 . S
H996 C1002 0.930 . S
H997 C1006 0.930 . S
H998 C1011 0.929 . S
H999 C1009 0.929 . S
H1000 C1004 0.929 . S
H1001 C1010 0.929 . S
C1002 H996 0.930 . S
C1002 C1003 1.367 . S
C1002 C1010 1.378 . S
C1003 C1002 1.367 . S
C1003 C1011 1.433 . S
C1004 H1000 0.929 . S
C1004 C1006 1.378 . S
C1004 C1008 1.350 . S
C1005 C1008 1.463 . S
C1005 C1010 1.350 . S
C1005 N1013 1.427 . S
C1006 H997 0.930 . S
C1006 C1004 1.378 . S
C1006 C1007 1.367 1_455 S
C1007 C1006 1.367 1_655 S
C1007 C1009 1.433 . S
C1008 C1004 1.350 . S
C1008 C1005 1.463 . S
C1008 N1012 1.427 . S
C1009 H999 0.929 . S
C1009 C1007 1.433 . S
C1009 N1012 1.384 1_655 S
C1010 H1001 0.929 . S
C1010 C1002 1.378 . S
C1010 C1005 1.350 . S
C1011 H998 0.929 . S
C1011 C1003 1.433 . S
C1011 N1013 1.384 . S
N1012 C1008 1.427 . S
N1012 C1009 1.384 1_455 S
N1013 C1005 1.427 . S
N1013 C1011 1.384 . S
H1014 C1020 0.930 . S
H1015 C1024 0.930 . S
H1016 C1029 0.929 . S
H1017 C1027 0.929 . S
H1018 C1022 0.929 . S
H1019 C1028 0.929 . S
C1020 H1014 0.930 . S
C1020 C1021 1.367 . S
C1020 C1028 1.378 . S
C1021 C1020 1.367 . S
C1021 C1029 1.433 . S
C1022 H1018 0.929 . S
C1022 C1024 1.378 . S
C1022 C1026 1.350 . S
C1023 C1026 1.463 . S
C1023 C1028 1.350 . S
C1023 N1031 1.427 . S
C1024 H1015 0.930 . S
C1024 C1022 1.378 . S
C1024 C1025 1.367 1_545 S
C1025 C1024 1.367 1_565 S
C1025 C1027 1.433 . S
C1026 C1022 1.350 . S
C1026 C1023 1.463 . S
C1026 N1030 1.408 1_545 S
C1027 H1017 0.929 . S
C1027 C1025 1.433 . S
C1027 N1030 1.398 . S
C1028 H1019 0.929 . S
C1028 C1020 1.378 . S
C1028 C1023 1.350 . S
C1029 H1016 0.929 . S
C1029 C1021 1.433 . S
C1029 N1031 1.384 . S
N1030 C1026 1.408 1_565 S
N1030 C1027 1.398 . S
N1031 C1023 1.427 . S
N1031 C1029 1.384 . S
H1032 C1038 0.930 . S
H1033 C1042 0.930 . S
H1034 C1047 0.929 . S
H1035 C1045 0.929 . S
H1036 C1040 0.929 . S
H1037 C1046 0.929 . S
C1038 H1032 0.930 . S
C1038 C1039 1.367 . S
C1038 C1046 1.378 . S
C1039 C1038 1.367 . S
C1039 C1047 1.433 . S
C1040 H1036 0.929 . S
C1040 C1042 1.378 . S
C1040 C1044 1.350 . S
C1041 C1044 1.463 . S
C1041 C1046 1.350 . S
C1041 N1049 1.427 . S
C1042 H1033 0.930 . S
C1042 C1040 1.378 . S
C1042 C1043 1.367 . S
C1043 C1042 1.367 . S
C1043 C1045 1.433 . S
C1044 C1040 1.350 . S
C1044 C1041 1.463 . S
C1044 N1048 1.427 . S
C1045 H1035 0.929 . S
C1045 C1043 1.433 . S
C1045 N1048 1.384 . S
C1046 H1037 0.929 . S
C1046 C1038 1.378 . S
C1046 C1041 1.350 . S
C1047 H1034 0.929 . S
C1047 C1039 1.433 . S
C1047 N1049 1.384 . S
N1048 C1044 1.427 . S
N1048 C1045 1.384 . S
N1049 C1041 1.427 . S
N1049 C1047 1.384 . S
H1050 C1056 0.930 . S
H1051 C1060 0.900 1_554 S
H1052 C1065 0.929 . S
H1053 C1063 0.929 . S
H1054 C1058 0.929 . S
H1055 C1064 0.929 . S
C1056 H1050 0.930 . S
C1056 C1057 1.367 . S
C1056 C1064 1.378 . S
C1057 C1056 1.367 . S
C1057 C1065 1.433 . S
C1058 H1054 0.929 . S
C1058 C1060 1.409 . S
C1058 C1062 1.350 . S
C1059 C1062 1.463 . S
C1059 C1064 1.350 . S
C1059 N1067 1.427 . S
C1060 H1051 0.900 1_556 S
C1060 C1058 1.409 . S
C1060 C1061 1.367 1_655 S
C1061 C1060 1.367 1_455 S
C1061 C1063 1.465 . S
C1062 C1058 1.350 . S
C1062 C1059 1.463 . S
C1062 N1066 1.427 . S
C1063 H1053 0.929 . S
C1063 C1061 1.465 . S
C1063 N1066 1.384 1_455 S
C1064 H1055 0.929 . S
C1064 C1056 1.378 . S
C1064 C1059 1.350 . S
C1065 H1052 0.929 . S
C1065 C1057 1.433 . S
C1065 N1067 1.384 . S
N1066 C1062 1.427 . S
N1066 C1063 1.384 1_655 S
N1067 C1059 1.427 . S
N1067 C1065 1.384 . S
H1068 C1074 0.930 . S
H1069 C1078 0.930 . S
H1070 C1083 0.929 . S
H1071 C1081 0.929 . S
H1072 C1076 0.929 . S
H1073 C1082 0.929 . S
C1074 H1068 0.930 . S
C1074 C1075 1.367 . S
C1074 C1082 1.378 . S
C1075 C1074 1.367 . S
C1075 C1083 1.433 . S
C1076 H1072 0.929 . S
C1076 C1078 1.378 . S
C1076 C1080 1.350 . S
C1077 C1080 1.463 . S
C1077 C1082 1.350 . S
C1077 N1085 1.427 . S
C1078 H1069 0.930 . S
C1078 C1076 1.378 . S
C1078 C1079 1.367 1_565 S
C1079 C1078 1.367 1_545 S
C1079 C1081 1.433 . S
C1080 C1076 1.350 . S
C1080 C1077 1.463 . S
C1080 N1084 1.427 . S
C1081 H1071 0.929 . S
C1081 C1079 1.433 . S
C1081 N1084 1.384 1_545 S
C1082 H1073 0.929 . S
C1082 C1074 1.378 . S
C1082 C1077 1.350 . S
C1083 H1070 0.929 . S
C1083 C1075 1.433 . S
C1083 N1085 1.384 . S
N1084 C1080 1.427 . S
N1084 C1081 1.384 1_565 S
N1085 C1077 1.427 . S
N1085 C1083 1.384 . S
H1086 C1092 0.930 . S
H1087 C1096 0.930 . S
H1088 C1101 0.929 . S
H1089 C1099 0.929 . S
H1090 C1094 0.929 . S
H1091 C1100 0.929 . S
C1092 H1086 0.930 . S
C1092 C1093 1.367 . S
C1092 C1100 1.378 . S
C1093 C1092 1.367 . S
C1093 C1101 1.433 . S
C1094 H1090 0.929 . S
C1094 C1096 1.378 . S
C1094 C1098 1.350 . S
C1095 C1098 1.463 . S
C1095 C1100 1.350 . S
C1095 N1103 1.427 . S
C1096 H1087 0.930 . S
C1096 C1094 1.378 . S
C1096 C1097 1.367 . S
C1097 C1096 1.367 . S
C1097 C1099 1.433 . S
C1098 C1094 1.350 . S
C1098 C1095 1.463 . S
C1098 N1102 1.427 . S
C1099 H1089 0.929 . S
C1099 C1097 1.433 . S
C1099 N1102 1.384 . S
C1100 H1091 0.929 . S
C1100 C1092 1.378 . S
C1100 C1095 1.350 . S
C1101 H1088 0.929 . S
C1101 C1093 1.433 . S
C1101 N1103 1.384 . S
N1102 C1098 1.427 . S
N1102 C1099 1.384 . S
N1103 C1095 1.427 . S
N1103 C1101 1.384 . S
H1104 C1110 0.930 . S
H1105 C1114 0.930 . S
H1106 C1119 0.929 . S
H1107 C1117 0.929 . S
H1108 C1112 0.929 . S
H1109 C1118 0.929 . S
C1110 H1104 0.930 . S
C1110 C1111 1.367 . S
C1110 C1118 1.378 . S
C1111 C1110 1.367 . S
C1111 C1119 1.433 . S
C1112 H1108 0.929 . S
C1112 C1114 1.378 1_455 S
C1112 C1116 1.350 . S
C1113 C1116 1.463 . S
C1113 C1118 1.350 . S
C1113 N1121 1.427 . S
C1114 H1105 0.930 . S
C1114 C1112 1.378 1_655 S
C1114 C1115 1.367 . S
C1115 C1114 1.367 . S
C1115 C1117 1.433 1_655 S
C1116 C1112 1.350 . S
C1116 C1113 1.463 . S
C1116 N1120 1.427 . S
C1117 H1107 0.929 . S
C1117 C1115 1.433 1_455 S
C1117 N1120 1.384 . S
C1118 H1109 0.929 . S
C1118 C1110 1.378 . S
C1118 C1113 1.350 . S
C1119 H1106 0.929 . S
C1119 C1111 1.433 . S
C1119 N1121 1.384 . S
N1120 C1116 1.427 . S
N1120 C1117 1.384 . S
N1121 C1113 1.427 . S
N1121 C1119 1.384 . S
H1122 C1128 0.930 . S
H1123 C1132 0.930 . S
H1124 C1137 0.929 . S
H1125 C1135 0.929 . S
H1126 C1130 0.929 . S
H1127 C1136 0.929 . S
C1128 H1122 0.930 . S
C1128 C1129 1.367 1_545 S
C1128 C1136 1.378 . S
C1129 C1128 1.367 1_565 S
C1129 C1137 1.433 . S
C1130 H1126 0.929 . S
C1130 C1132 1.378 . S
C1130 C1134 1.350 . S
C1131 C1134 1.463 . S
C1131 C1136 1.350 . S
C1131 N1139 1.427 . S
C1132 H1123 0.930 . S
C1132 C1130 1.378 . S
C1132 C1133 1.367 . S
C1133 C1132 1.367 . S
C1133 C1135 1.433 . S
C1134 C1130 1.350 . S
C1134 C1131 1.463 . S
C1134 N1138 1.427 . S
C1135 H1125 0.929 . S
C1135 C1133 1.433 . S
C1135 N1138 1.384 . S
C1136 H1127 0.929 . S
C1136 C1128 1.378 . S
C1136 C1131 1.350 . S
C1137 H1124 0.929 . S
C1137 C1129 1.433 . S
C1137 N1139 1.384 1_565 S
N1138 C1134 1.427 . S
N1138 C1135 1.384 . S
N1139 C1131 1.427 . S
N1139 C1137 1.384 1_545 S
C715 C477 1.328 . S
C719 C5 1.328 . S
C733 C64 1.326 . S
C737 C536 1.327 . S
C751 C123 1.325 . S
C755 C595 1.325 . S
C769 C182 1.325 . S
C773 C654 1.326 . S
C787 C359 1.325 . S
C791 C241 1.325 . S
C805 C300 1.325 . S
C809 C418 1.325 . S
C823 C583 1.043 . S
C827 C52 1.038 . S
C841 C111 1.044 . S
C845 C642 1.037 . S
C859 C701 1.040 . S
C863 C170 1.042 . S
C877 C229 1.040 . S
C881 C406 1.041 . S
C895 C465 1.037 . S
C899 C288 1.044 . S
C913 C524 1.044 . S
C917 C347 1.037 . S
C931 C33 1.536 . S
C935 C298 1.469 1_554 S
C949 C92 1.537 . S
C953 C3 1.515 . S
C967 C62 1.512 . S
C971 C151 1.540 . S
C985 C210 1.538 . S
C989 C121 1.503 . S
C1003 C269 1.539 . S
C1007 C180 1.515 . S
C1021 C328 1.535 . S
C1025 C239 1.512 . S
C1039 C387 1.541 . S
C1043 C416 1.506 . S
C1057 C446 1.537 . S
C1061 C475 1.488 1_556 S
C1075 C505 1.539 . S
C1079 C534 1.514 . S
C1093 C564 1.540 . S
C1097 C593 1.504 . S
C1111 C623 1.536 . S
C1115 C652 1.503 . S
C1129 C357 1.506 . S
C1133 C682 1.534 . S
