# Generated by pormake.
# Topology sof, (5)-cn, num edge types: 1
# Building blocks:
#     Node 0, Type 0, BuildingBlock: XOMCOT_clean_sbu_0, # of connection points: 5
#     Node 1, Type 0, BuildingBlock: XOMCOT_clean_sbu_0, # of connection points: 5
#     Node 2, Type 0, BuildingBlock: XOMCOT_clean_sbu_0, # of connection points: 5
#     Node 3, Type 0, BuildingBlock: XOMCOT_clean_sbu_0, # of connection points: 5
#     Node 4, Type 0, BuildingBlock: XOMCOT_clean_sbu_0, # of connection points: 5
#     Node 5, Type 0, BuildingBlock: XOMCOT_clean_sbu_0, # of connection points: 5
#     Node 6, Type 0, BuildingBlock: XOMCOT_clean_sbu_0, # of connection points: 5
#     Node 7, Type 0, BuildingBlock: XOMCOT_clean_sbu_0, # of connection points: 5
#     Edge 8, Type (0, 0), BuildingBlock: AJUNOK_clean_linker_0, # of connection points: 2
#     Edge 9, Type (0, 0), BuildingBlock: AJUNOK_clean_linker_0, # of connection points: 2
#     Edge 10, Type (0, 0), BuildingBlock: AJUNOK_clean_linker_0, # of connection points: 2
#     Edge 11, Type (0, 0), BuildingBlock: AJUNOK_clean_linker_0, # of connection points: 2
#     Edge 12, Type (0, 0), BuildingBlock: AJUNOK_clean_linker_0, # of connection points: 2
#     Edge 13, Type (0, 0), BuildingBlock: AJUNOK_clean_linker_0, # of connection points: 2
#     Edge 14, Type (0, 0), BuildingBlock: AJUNOK_clean_linker_0, # of connection points: 2
#     Edge 15, Type (0, 0), BuildingBlock: AJUNOK_clean_linker_0, # of connection points: 2
#     Edge 16, Type (0, 0), BuildingBlock: AJUNOK_clean_linker_0, # of connection points: 2
#     Edge 17, Type (0, 0), BuildingBlock: AJUNOK_clean_linker_0, # of connection points: 2
#     Edge 18, Type (0, 0), BuildingBlock: AJUNOK_clean_linker_0, # of connection points: 2
#     Edge 19, Type (0, 0), BuildingBlock: AJUNOK_clean_linker_0, # of connection points: 2
#     Edge 20, Type (0, 0), BuildingBlock: AJUNOK_clean_linker_0, # of connection points: 2
#     Edge 21, Type (0, 0), BuildingBlock: AJUNOK_clean_linker_0, # of connection points: 2
#     Edge 22, Type (0, 0), BuildingBlock: AJUNOK_clean_linker_0, # of connection points: 2
#     Edge 23, Type (0, 0), BuildingBlock: AJUNOK_clean_linker_0, # of connection points: 2
#     Edge 24, Type (0, 0), BuildingBlock: AJUNOK_clean_linker_0, # of connection points: 2
#     Edge 25, Type (0, 0), BuildingBlock: AJUNOK_clean_linker_0, # of connection points: 2
#     Edge 26, Type (0, 0), BuildingBlock: AJUNOK_clean_linker_0, # of connection points: 2
#     Edge 27, Type (0, 0), BuildingBlock: AJUNOK_clean_linker_0, # of connection points: 2
# Relax obj value: 0.130
# Max RMSD: 0.155
# Mean RMSD: 0.155
data_MOF--net-sof--node1-XOMCOT_clean_sbu_0--edge1-AJUNOK_clean_linker_0
_symmetry_space_group_name_H-M    P1
_symmetry_Int_Tables_number       1
_symmetry_cell_setting            triclinic
loop_
_symmetry_equiv_pos_as_xyz
'x, y, z'
_cell_length_a     44.903979
_cell_length_b     13.560463
_cell_length_c     34.864008
_cell_angle_alpha  89.882745
_cell_angle_beta   90.00624
_cell_angle_gamma 89.986725
loop_
_atom_site_label
_atom_site_type_symbol
_atom_site_fract_x
_atom_site_fract_y
_atom_site_fract_z
_atom_type_partial_charge
Co0 Co 0.08505 0.1012 0.10186 0.0
C1 C 0.08582 0.8814 0.1046 0.0
C2 C 0.06163 0.94294 0.15166 0.0
C3 C 0.05925 0.84168 0.15339 0.0
N4 N 0.07905 0.96809 0.12163 0.0
N5 N 0.07439 0.80331 0.12358 0.0
H6 H 0.09692 0.87455 0.07738 0.0
H7 H 0.05056 0.99472 0.1704 0.0
C8 C 0.09755 0.12548 0.18617 0.0
O9 O 0.11272 0.04262 0.18581 0.0
N10 N 0.08995 0.23333 0.08231 0.0
C11 C 0.10622 0.26223 0.05188 0.0
C12 C 0.10576 0.36388 0.05009 0.0
C13 C 0.07957 0.31693 0.09835 0.0
N14 N 0.08894 0.39797 0.0793 0.0
C15 C 0.14099 0.01976 0.07703 0.0
C16 C 0.17708 0.13152 0.12404 0.0
C17 C 0.19002 0.05681 0.10184 0.0
C18 C 0.17162 1.00253 0.07728 0.0
C19 C 0.14625 0.14588 0.123 0.0
N20 N 0.12832 0.08557 0.1017 0.0
H21 H 0.12764 0.98143 0.05626 0.0
H22 H 0.13696 0.20652 0.13903 0.0
H23 H 0.11825 0.21304 0.03304 0.0
H24 H 0.06647 0.31845 0.12437 0.0
O25 O 0.07628 0.05426 0.05076 0.0
O26 O 0.04278 0.10904 0.09215 0.0
O27 O 0.08525 0.15729 0.15552 0.0
C28 C 0.04844 0.0718 0.05854 0.0
H29 H 0.04705 0.79995 0.17469 0.0
H30 H 0.11726 0.40929 0.02926 0.0
H31 H 0.19069 0.1795 0.14159 0.0
H32 H 0.18077 0.94687 0.05841 0.0
Co33 Co 0.42282 0.93489 0.10373 0.0
C34 C 0.42193 0.15505 0.10603 0.0
C35 C 0.44775 0.0928 0.15166 0.0
C36 C 0.44949 0.19398 0.15406 0.0
N37 N 0.42964 0.06817 0.12227 0.0
N38 N 0.43317 0.23255 0.12534 0.0
H39 H 0.40951 0.16286 0.07983 0.0
H40 H 0.45961 0.04067 0.16953 0.0
C41 C 0.4097 0.92021 0.18759 0.0
O42 O 0.39424 1.00193 0.18354 0.0
N43 N 0.41717 0.80244 0.08551 0.0
C44 C 0.40191 0.77335 0.05427 0.0
C45 C 0.40187 0.67168 0.05325 0.0
C46 C 0.42633 0.71912 0.10292 0.0
N47 N 0.41696 0.63809 0.0841 0.0
C48 C 0.36689 1.01617 0.07862 0.0
C49 C 0.33071 0.90503 0.1259 0.0
C50 C 0.31778 0.97867 0.10305 0.0
C51 C 0.33623 0.03264 0.07839 0.0
C52 C 0.36158 0.8913 0.12526 0.0
N53 N 0.37955 0.9516 0.10389 0.0
H54 H 0.38025 0.05373 0.05758 0.0
H55 H 0.37091 0.83131 0.14175 0.0
H56 H 0.39108 0.82252 0.03418 0.0
H57 H 0.4396 0.71783 0.1288 0.0
O58 O 0.4309 0.97886 0.05202 0.0
O59 O 0.46502 0.92522 0.09282 0.0
O60 O 0.42291 0.88306 0.1585 0.0
C61 C 0.4588 0.96066 0.05896 0.0
H62 H 0.4627 0.2358 0.17428 0.0
H63 H 0.3909 0.62593 0.03212 0.0
H64 H 0.31708 0.85728 0.14359 0.0
H65 H 0.32708 0.0873 0.05899 0.0
Co66 Co 0.08169 0.41787 0.40293 0.0
C67 C 0.0813 0.6373 0.40104 0.0
C68 C 0.06601 0.57885 0.34776 0.0
C69 C 0.06411 0.6806 0.34623 0.0
N70 N 0.078 0.55143 0.38172 0.0
N71 N 0.07418 0.71679 0.37971 0.0
H72 H 0.08683 0.64245 0.43111 0.0
H73 H 0.05804 0.52881 0.32598 0.0
C74 C 0.09809 0.37839 0.32078 0.0
O75 O 0.1158 0.45546 0.32115 0.0
N76 N 0.08394 0.28617 0.42429 0.0
C77 C 0.0976 0.25903 0.45702 0.0
C78 C 0.09738 0.15752 0.45938 0.0
C79 C 0.07504 0.20131 0.40763 0.0
N80 N 0.08364 0.12126 0.42794 0.0
C81 C 0.13916 0.50411 0.41966 0.0
C82 C 0.17316 0.35321 0.38989 0.0
C83 C 0.18771 0.43863 0.40292 0.0
C84 C 0.16999 0.51431 0.41819 0.0
C85 C 0.14201 0.34873 0.38984 0.0
N86 N 0.12524 0.42525 0.40345 0.0
H87 H 0.12682 0.55944 0.43456 0.0
H88 H 0.1314 0.28288 0.37916 0.0
H89 H 0.10797 0.30935 0.477 0.0
H90 H 0.06364 0.19791 0.38036 0.0
O91 O 0.07341 0.46973 0.45335 0.0
O92 O 0.03931 0.41886 0.41191 0.0
O93 O 0.08217 0.35711 0.35001 0.0
C94 C 0.04536 0.45727 0.44525 0.0
H95 H 0.0557 0.72439 0.3226 0.0
H96 H 0.10704 0.11402 0.48226 0.0
H97 H 0.18545 0.28934 0.38028 0.0
H98 H 0.17968 0.58154 0.42926 0.0
Co99 Co 0.41928 0.59874 0.40304 0.0
C100 C 0.41747 0.38267 0.39991 0.0
C101 C 0.44458 0.4405 0.35442 0.0
C102 C 0.44567 0.33857 0.35328 0.0
N103 N 0.42682 0.46759 0.38367 0.0
N104 N 0.42846 0.30256 0.38182 0.0
H105 H 0.40389 0.37983 0.42551 0.0
H106 H 0.45648 0.49106 0.33593 0.0
C107 C 0.40081 0.71998 0.33588 0.0
O108 O 0.37857 0.74837 0.35778 0.0
N109 N 0.41249 0.73133 0.42323 0.0
C110 C 0.39545 0.75946 0.45314 0.0
C111 C 0.3955 0.86091 0.45533 0.0
C112 C 0.42387 0.8165 0.40902 0.0
N113 N 0.41289 0.89684 0.42705 0.0
C114 C 0.36211 0.54955 0.43465 0.0
C115 C 0.33262 0.52233 0.36604 0.0
C116 C 0.31682 0.50753 0.40036 0.0
C117 C 0.33244 0.51903 0.43495 0.0
C118 C 0.36282 0.54703 0.36713 0.0
N119 N 0.3767 0.56811 0.40106 0.0
H120 H 0.37356 0.55436 0.46172 0.0
H121 H 0.37492 0.5487 0.34042 0.0
H122 H 0.38366 0.71096 0.47232 0.0
H123 H 0.43869 0.81992 0.38457 0.0
O124 O 0.42718 0.55115 0.4541 0.0
O125 O 0.46139 0.61252 0.41534 0.0
O126 O 0.41931 0.65556 0.34869 0.0
C127 C 0.45493 0.57278 0.44844 0.0
H128 H 0.45832 0.29439 0.33322 0.0
H129 H 0.38352 0.90475 0.47615 0.0
H130 H 0.32203 0.5159 0.33833 0.0
H131 H 0.32201 0.5037 0.46231 0.0
Co132 Co 0.92108 0.92758 0.90413 0.0
C133 C 0.91954 0.14667 0.90172 0.0
C134 C 0.94744 0.08731 0.85769 0.0
C135 C 0.94982 0.1887 0.85692 0.0
N136 N 0.92783 0.06086 0.8852 0.0
N137 N 0.93249 0.22544 0.88496 0.0
H138 H 0.90546 0.15223 0.92657 0.0
H139 H 0.96016 0.03624 0.84042 0.0
C140 C 0.91272 0.90661 0.81881 0.0
O141 O 0.89825 0.99084 0.81846 0.0
N142 N 0.91527 0.79541 0.92314 0.0
C143 C 0.89829 0.76721 0.95303 0.0
C144 C 0.89892 0.66569 0.95545 0.0
C145 C 0.92611 0.71146 0.9079 0.0
N146 N 0.91646 0.63096 0.92707 0.0
C147 C 0.86454 1.00506 0.92786 0.0
C148 C 0.82978 0.90733 0.87487 0.0
C149 C 0.81643 0.97798 0.89863 0.0
C150 C 0.83406 0.02412 0.9264 0.0
C151 C 0.86043 0.88974 0.87763 0.0
N152 N 0.87784 0.9441 0.90187 0.0
H153 H 0.87727 0.03841 0.95054 0.0
H154 H 0.86989 0.83173 0.8604 0.0
H155 H 0.88574 0.81678 0.97114 0.0
H156 H 0.94062 0.70917 0.88315 0.0
O157 O 0.92791 0.97388 0.95569 0.0
O158 O 0.96306 0.91965 0.91663 0.0
O159 O 0.92297 0.87238 0.85033 0.0
C160 C 0.95603 0.95738 0.94976 0.0
H161 H 0.96427 0.23176 0.83853 0.0
H162 H 0.88651 0.62092 0.97559 0.0
H163 H 0.81674 0.86636 0.85419 0.0
H164 H 0.82435 0.07364 0.94728 0.0
Co165 Co 0.58345 0.09447 0.89873 0.0
C166 C 0.58391 0.8749 0.89741 0.0
C167 C 0.55959 0.93523 0.8501 0.0
C168 C 0.55695 0.83401 0.84912 0.0
N169 N 0.57729 0.961 0.87976 0.0
N170 N 0.57203 0.79666 0.87916 0.0
H171 H 0.5959 0.86877 0.92401 0.0
H172 H 0.54831 0.98661 0.83131 0.0
C173 C 0.59601 0.11501 0.81508 0.0
O174 O 0.61154 0.03317 0.81805 0.0
N175 N 0.58843 0.22673 0.91768 0.0
C176 C 0.60384 0.25487 0.94893 0.0
C177 C 0.60283 0.35627 0.95136 0.0
C178 C 0.5782 0.31056 0.90158 0.0
N179 N 0.58665 0.39089 0.9216 0.0
C180 C 0.64024 1.0153 0.92143 0.0
C181 C 0.67504 0.13104 0.87407 0.0
C182 C 0.68879 0.05767 0.89629 0.0
C183 C 0.67099 1.00105 0.92084 0.0
C184 C 0.64416 0.14366 0.87602 0.0
N185 N 0.62684 0.08105 0.89728 0.0
H186 H 0.62747 0.9754 0.94238 0.0
H187 H 0.63428 0.204 0.86029 0.0
H188 H 0.61555 0.20529 0.96803 0.0
H189 H 0.56499 0.31293 0.87563 0.0
O190 O 0.57684 0.04802 0.95029 0.0
O191 O 0.5413 0.09974 0.91122 0.0
O192 O 0.58223 0.14882 0.84435 0.0
C193 C 0.54866 0.06307 0.94454 0.0
H194 H 0.54384 0.79147 0.82901 0.0
H195 H 0.61405 0.4011 0.97255 0.0
H196 H 0.68789 0.17795 0.85514 0.0
H197 H 0.68081 0.94722 0.94005 0.0
Co198 Co 0.91982 0.6282 0.59769 0.0
C199 C 0.91579 0.40939 0.60319 0.0
C200 C 0.94726 0.46843 0.6431 0.0
C201 C 0.94854 0.36685 0.64487 0.0
N202 N 0.92622 0.49536 0.6175 0.0
N203 N 0.92859 0.32994 0.61982 0.0
H204 H 0.90101 0.40405 0.57899 0.0
H205 H 0.96154 0.51921 0.65835 0.0
C206 C 0.91337 0.65429 0.68353 0.0
O207 O 0.90085 0.56706 0.68641 0.0
N208 N 0.91415 0.7599 0.57774 0.0
C209 C 0.89562 0.78725 0.54927 0.0
C210 C 0.89465 0.88883 0.54787 0.0
C211 C 0.92466 0.84473 0.59273 0.0
N212 N 0.91262 0.92474 0.57556 0.0
C213 C 0.86295 0.5549 0.5736 0.0
C214 C 0.82862 0.64979 0.62781 0.0
C215 C 0.81486 0.58321 0.60271 0.0
C216 C 0.83234 0.53839 0.57445 0.0
C217 C 0.85938 0.66534 0.62554 0.0
N218 N 0.87654 0.61282 0.6004 0.0
H219 H 0.87557 0.52178 0.55074 0.0
H220 H 0.86898 0.72112 0.64362 0.0
H221 H 0.88285 0.73695 0.53173 0.0
H222 H 0.93977 0.84795 0.61686 0.0
O223 O 0.92625 0.57909 0.54651 0.0
O224 O 0.96179 0.63418 0.58473 0.0
O225 O 0.92209 0.68669 0.65098 0.0
C226 C 0.95443 0.59483 0.552 0.0
H227 H 0.96355 0.32356 0.66243 0.0
H228 H 0.88134 0.93275 0.52839 0.0
H229 H 0.8158 0.68945 0.64909 0.0
H230 H 0.82244 0.49181 0.55272 0.0
Co231 Co 0.58368 0.44172 0.60346 0.0
C232 C 0.58394 0.65837 0.60538 0.0
C233 C 0.5623 0.59808 0.65514 0.0
C234 C 0.56091 0.69956 0.657 0.0
N235 N 0.57691 0.5728 0.6229 0.0
N236 N 0.57453 0.73694 0.62568 0.0
H237 H 0.59559 0.66299 0.57825 0.0
H238 H 0.55277 0.54649 0.6754 0.0
C239 C 0.60627 0.33129 0.67117 0.0
O240 O 0.62804 0.30444 0.64827 0.0
N241 N 0.58893 0.30807 0.58367 0.0
C242 C 0.59779 0.27781 0.54857 0.0
C243 C 0.59679 0.17624 0.54719 0.0
C244 C 0.58048 0.22433 0.60175 0.0
N245 N 0.58635 0.1428 0.58101 0.0
C246 C 0.64287 0.45878 0.57115 0.0
C247 C 0.66974 0.53021 0.63685 0.0
C248 C 0.68721 0.51142 0.60453 0.0
C249 C 0.67348 0.4768 0.57119 0.0
C250 C 0.63929 0.50939 0.63579 0.0
N251 N 0.62641 0.46934 0.60378 0.0
H252 H 0.63247 0.43899 0.54458 0.0
H253 H 0.62607 0.52437 0.66101 0.0
H254 H 0.60331 0.32511 0.52471 0.0
H255 H 0.56932 0.22299 0.6292 0.0
O256 O 0.57454 0.4887 0.55251 0.0
O257 O 0.54141 0.42962 0.59359 0.0
O258 O 0.5856 0.38764 0.65815 0.0
C259 C 0.54686 0.46851 0.56004 0.0
H260 H 0.54994 0.74241 0.67902 0.0
H261 H 0.60316 0.13065 0.5231 0.0
H262 H 0.6796 0.55925 0.66284 0.0
H263 H 0.68625 0.46541 0.5452 0.0
C264 C 0.23868 0.02618 0.0687 0.0
C265 C 0.22261 0.03746 0.10306 0.0
C266 C 0.26933 1.00663 0.06899 0.0
C267 C 0.28514 0.99722 0.10366 0.0
H268 H 0.22755 0.03341 0.04127 0.0
H269 H 0.28068 0.99815 0.04179 0.0
S270 S 0.2535 0.0197 0.20158 0.0
N271 N 0.22473 0.03616 0.17277 0.0
N272 N 0.28249 1.00181 0.1733 0.0
C273 C 0.26936 1.00818 0.13826 0.0
C274 C 0.23812 0.02805 0.13796 0.0
C275 C 0.26606 0.52107 0.43011 0.0
C276 C 0.28425 0.48314 0.40072 0.0
C277 C 0.23544 0.50284 0.43119 0.0
C278 C 0.22096 0.44926 0.40205 0.0
H279 H 0.27533 0.56706 0.45246 0.0
H280 H 0.22309 0.53211 0.45527 0.0
S281 S 0.25828 0.32936 0.31906 0.0
N282 N 0.28568 0.38071 0.34339 0.0
N283 N 0.22759 0.35742 0.34263 0.0
C284 C 0.23882 0.41015 0.37242 0.0
C285 C 0.27042 0.42498 0.37228 0.0
C286 C 0.76316 0.92364 0.89345 0.0
C287 C 0.78407 1.00058 0.89582 0.0
C288 C 0.7325 0.94313 0.89299 0.0
C289 C 0.7215 0.0403 0.89482 0.0
H290 H 0.77049 0.84755 0.89287 0.0
H291 H 0.71726 0.88136 0.89139 0.0
S292 S 0.76703 0.26832 0.8997 0.0
N293 N 0.79168 0.1781 0.89806 0.0
N294 N 0.73407 0.21446 0.89863 0.0
C295 C 0.74218 0.11806 0.89648 0.0
C296 C 0.77342 0.09824 0.89673 0.0
C297 C 0.73112 0.62377 0.6102 0.0
C298 C 0.71969 0.52819 0.6054 0.0
C299 C 0.76193 0.64103 0.60973 0.0
C300 C 0.78233 0.56305 0.60485 0.0
H301 H 0.71611 0.68572 0.61354 0.0
H302 H 0.76977 0.71624 0.61238 0.0
S303 S 0.76319 0.29766 0.5955 0.0
N304 N 0.73067 0.35418 0.59794 0.0
N305 N 0.78859 0.38539 0.59842 0.0
C306 C 0.77098 0.46659 0.60136 0.0
C307 C 0.73966 0.44948 0.60131 0.0
C308 C 0.03138 0.99264 0.99754 0.0
C309 C 0.02442 0.04535 0.03113 0.0
C310 C 0.00914 0.96367 0.97165 0.0
C311 C 0.97899 0.9861 0.97828 0.0
H312 H 0.05422 0.97282 0.99119 0.0
H313 H 0.0157 0.92336 0.94623 0.0
S314 S 0.94894 0.12535 0.06144 0.0
N315 N 0.98516 0.12044 0.06925 0.0
N316 N 0.9434 0.06625 0.02073 0.0
C317 C 0.9717 0.03931 0.01168 0.0
C318 C 0.99438 0.06886 0.03804 0.0
C319 C 0.47449 0.03513 0.99629 0.0
C320 C 0.48214 0.98366 0.03006 0.0
C321 C 0.49606 0.06063 0.96886 0.0
C322 C 0.5262 0.03586 0.97406 0.0
H323 H 0.45163 0.05683 0.99103 0.0
H324 H 0.48902 0.10053 0.94348 0.0
S325 S 0.5578 0.8973 0.05674 0.0
N326 N 0.52195 0.90638 0.06657 0.0
N327 N 0.56244 0.95387 0.01522 0.0
C328 C 0.53413 0.98337 0.00752 0.0
C329 C 0.51214 0.95741 0.03544 0.0
C330 C 0.0294 0.5402 0.506 0.0
C331 C 0.02166 0.49085 0.47191 0.0
C332 C 0.00756 0.57508 0.53136 0.0
C333 C 0.97706 0.56215 0.52367 0.0
H334 H 0.05257 0.55235 0.51325 0.0
H335 H 0.01472 0.61184 0.55733 0.0
S336 S 0.94488 0.43783 0.43826 0.0
N337 N 0.98122 0.43102 0.43181 0.0
N338 N 0.94023 0.4964 0.47927 0.0
C339 C 0.96898 0.51325 0.48958 0.0
C340 C 0.99124 0.47764 0.46378 0.0
C341 C 0.5083 0.56246 0.46974 0.0
C342 C 0.47791 0.54804 0.47768 0.0
C343 C 0.53033 0.53577 0.49642 0.0
C344 C 0.52293 0.49345 0.53216 0.0
H345 H 0.5152 0.59397 0.44259 0.0
H346 H 0.5534 0.54855 0.48885 0.0
S347 S 0.44652 0.44184 0.56745 0.0
N348 N 0.44154 0.48971 0.52438 0.0
N349 N 0.48289 0.43974 0.57419 0.0
C350 C 0.49262 0.4791 0.54057 0.0
C351 C 0.47017 0.50636 0.51345 0.0
C352 C 0.09501 0.35254 0.24996 0.0
C353 C 0.09763 0.31272 0.28701 0.0
C354 C 0.09441 0.2912 0.21757 0.0
C355 C 0.09715 0.18795 0.22103 0.0
H356 H 0.09307 0.43156 0.24601 0.0
H357 H 0.09237 0.32526 0.18957 0.0
S358 S 0.10606 0.04793 0.31184 0.0
N359 N 0.10382 0.16431 0.32536 0.0
N360 N 0.10313 0.04918 0.26462 0.0
C361 C 0.10021 0.14751 0.25797 0.0
C362 C 0.10031 0.20986 0.29093 0.0
C363 C 0.38462 0.84389 0.28716 0.0
C364 C 0.40421 0.76701 0.29743 0.0
C365 C 0.38691 0.89266 0.25193 0.0
C366 C 0.4088 0.86684 0.22493 0.0
H367 H 0.36723 0.86766 0.30659 0.0
H368 H 0.37105 0.95078 0.2458 0.0
S369 S 0.46633 0.67264 0.23757 0.0
N370 N 0.44679 0.66843 0.27769 0.0
N371 N 0.45099 0.76005 0.21106 0.0
C372 C 0.42866 0.79013 0.23458 0.0
C373 C 0.42642 0.74043 0.27086 0.0
C374 C 0.91833 0.74213 0.78679 0.0
C375 C 0.91403 0.84485 0.78368 0.0
C376 C 0.9181 0.68107 0.75431 0.0
C377 C 0.91413 0.72048 0.71736 0.0
H378 H 0.92129 0.70805 0.81462 0.0
H379 H 0.92117 0.60242 0.75819 0.0
S380 S 0.90174 0.98443 0.69335 0.0
N381 N 0.90558 0.98299 0.74044 0.0
N382 N 0.90524 0.86863 0.67958 0.0
C383 C 0.91004 0.8231 0.71376 0.0
C384 C 0.90994 0.88512 0.74685 0.0
C385 C 0.57475 0.22953 0.76506 0.0
C386 C 0.599 0.17599 0.77996 0.0
C387 C 0.57734 0.28295 0.73048 0.0
C388 C 0.60441 0.28568 0.71 0.0
H389 H 0.55341 0.22748 0.77953 0.0
H390 H 0.55779 0.31973 0.71918 0.0
S391 S 0.67573 0.1704 0.74062 0.0
N392 N 0.65158 0.1373 0.77388 0.0
N393 N 0.65678 0.23865 0.70991 0.0
C394 C 0.62922 0.23704 0.72607 0.0
C395 C 0.62643 0.18194 0.76076 0.0
C396 C 0.1042 0.66709 0.09664 0.0
C397 C 0.07739 0.70099 0.11285 0.0
C398 C 0.10771 0.56845 0.08552 0.0
C399 C 0.08454 0.49962 0.09016 0.0
H400 H 0.12278 0.7171 0.09298 0.0
H401 H 0.12892 0.5455 0.07381 0.0
S402 S 0.00896 0.55248 0.12783 0.0
N403 N 0.02663 0.65898 0.13079 0.0
N404 N 0.03325 0.47357 0.10995 0.0
C405 C 0.05746 0.53272 0.1058 0.0
C406 C 0.05387 0.63331 0.11714 0.0
C407 C 0.43102 0.36566 0.07713 0.0
C408 C 0.42966 0.335 0.11565 0.0
C409 C 0.42694 0.46485 0.06705 0.0
C410 C 0.42133 0.53677 0.09512 0.0
H411 H 0.43554 0.31259 0.0547 0.0
H412 H 0.42847 0.48572 0.03712 0.0
S413 S 0.41236 0.49216 0.19953 0.0
N414 N 0.42043 0.3827 0.18164 0.0
N415 N 0.41246 0.56916 0.16276 0.0
C416 C 0.41944 0.50671 0.1337 0.0
C417 C 0.4237 0.40579 0.14394 0.0
C418 C 0.05657 0.98593 0.39516 0.0
C419 C 0.08148 0.0193 0.41608 0.0
C420 C 0.05436 0.8874 0.38282 0.0
C421 C 0.07692 0.81862 0.39115 0.0
H422 H 0.03852 0.03615 0.38863 0.0
H423 H 0.03468 0.86436 0.36731 0.0
S424 S 0.14838 0.87064 0.44037 0.0
N425 N 0.13041 0.97683 0.44112 0.0
N426 N 0.12593 0.79231 0.41862 0.0
C427 C 0.10221 0.85153 0.41111 0.0
C428 C 0.10457 0.95158 0.42342 0.0
C429 C 0.44388 0.03327 0.40136 0.0
C430 C 0.41646 0.99892 0.4157 0.0
C431 C 0.44762 0.13213 0.38994 0.0
C432 C 0.42405 0.20041 0.39238 0.0
H433 H 0.46271 0.98362 0.39947 0.0
H434 H 0.46927 0.15576 0.37981 0.0
S435 S 0.34673 0.14517 0.42299 0.0
N436 N 0.36461 0.03963 0.42831 0.0
N437 N 0.37171 0.22454 0.40706 0.0
C438 C 0.39633 0.16637 0.40563 0.0
C439 C 0.39251 0.06597 0.41722 0.0
C440 C 0.92283 0.50038 0.87834 0.0
C441 C 0.92169 0.52921 0.9171 0.0
C442 C 0.92679 0.40123 0.86804 0.0
C443 C 0.92965 0.32728 0.89611 0.0
H444 H 0.91993 0.55453 0.85581 0.0
H445 H 0.92692 0.38181 0.83793 0.0
S446 S 0.93209 0.36546 1.00139 0.0
N447 N 0.92636 0.47674 0.98351 0.0
N448 N 0.9338 0.29059 0.96416 0.0
C449 C 0.92947 0.35539 0.93492 0.0
C450 C 0.92548 0.45627 0.9454 0.0
C451 C 0.57898 0.62161 0.86235 0.0
C452 C 0.57421 0.69457 0.89026 0.0
C453 C 0.58263 0.52234 0.87273 0.0
C454 C 0.58158 0.49255 0.91141 0.0
H455 H 0.58065 0.64195 0.83237 0.0
H456 H 0.58705 0.46886 0.85043 0.0
S457 S 0.56553 0.65315 0.99486 0.0
N458 N 0.56578 0.72909 0.95778 0.0
N459 N 0.57274 0.54265 0.9773 0.0
C460 C 0.57582 0.56436 0.93945 0.0
C461 C 0.57209 0.66534 0.92888 0.0
C462 C 0.94421 0.06207 0.59849 0.0
C463 C 0.91618 0.02641 0.58696 0.0
C464 C 0.94809 0.16084 0.6096 0.0
C465 C 0.92405 0.22763 0.60977 0.0
H466 H 0.96335 1.01354 0.59829 0.0
H467 H 0.9702 0.18555 0.61735 0.0
S468 S 0.84537 0.16763 0.58721 0.0
N469 N 0.86352 0.06349 0.57977 0.0
N470 N 0.87076 0.24839 0.60076 0.0
C471 C 0.89575 0.19196 0.59949 0.0
C472 C 0.89182 0.09164 0.58806 0.0
C473 C 0.57282 0.86888 0.57682 0.0
C474 C 0.57732 0.83914 0.61505 0.0
C475 C 0.57551 0.96819 0.56595 0.0
C476 C 0.58298 0.04132 0.59289 0.0
H477 H 0.5668 0.81502 0.55528 0.0
H478 H 0.57147 0.98798 0.53631 0.0
S479 S 0.59999 0.999 0.69592 0.0
N480 N 0.5912 0.88887 0.67937 0.0
N481 N 0.59689 0.07504 0.65909 0.0
C482 C 0.58806 1.01186 0.63114 0.0
C483 C 0.58508 0.91093 0.64217 0.0
loop_
_geom_bond_atom_site_label_1
_geom_bond_atom_site_label_2
_geom_bond_distance
_geom_bond_site_symmetry_2
_ccdc_geom_bond_type
Co0 N4 2.148 1_545 S
Co0 N10 2.128 . S
Co0 N20 2.194 . S
Co0 O25 2.351 . S
Co0 O26 2.155 . S
Co0 O27 2.096 . S
C1 N4 1.301 . S
C1 N5 1.328 . S
C1 H6 0.930 . S
C2 C3 1.333 . S
C2 N4 1.317 . S
C2 H7 0.930 . S
C3 C2 1.333 . S
C3 N5 1.350 . S
C3 H29 0.931 . S
N4 Co0 2.148 1_565 S
N4 C1 1.301 . S
N4 C2 1.317 . S
N5 C1 1.328 . S
N5 C3 1.350 . S
H6 C1 0.930 . S
H7 C2 0.930 . S
C8 O9 1.224 . S
C8 O27 1.247 . S
O9 C8 1.224 . S
N10 Co0 2.128 . S
N10 C11 1.355 . S
N10 C13 1.311 . S
C11 N10 1.355 . S
C11 C12 1.363 . S
C11 H23 0.929 . S
C12 C11 1.363 . S
C12 N14 1.375 . S
C12 H30 0.931 . S
C13 N10 1.311 . S
C13 N14 1.347 . S
C13 H24 0.929 . S
N14 C12 1.375 . S
N14 C13 1.347 . S
C15 C18 1.365 . S
C15 N20 1.328 . S
C15 H21 0.929 . S
C16 C17 1.362 . S
C16 C19 1.378 . S
C16 H31 0.929 . S
C17 C16 1.362 . S
C17 C18 1.366 . S
C18 C15 1.365 . S
C18 C17 1.366 . S
C18 H32 0.930 1_545 S
C19 C16 1.378 . S
C19 N20 1.315 . S
C19 H22 0.930 . S
N20 Co0 2.194 . S
N20 C15 1.328 . S
N20 C19 1.315 . S
H21 C15 0.929 . S
H22 C19 0.930 . S
H23 C11 0.929 . S
H24 C13 0.929 . S
O25 Co0 2.351 . S
O25 C28 1.244 . S
O26 Co0 2.155 . S
O26 C28 1.240 . S
O27 Co0 2.096 . S
O27 C8 1.247 . S
C28 O25 1.244 . S
C28 O26 1.240 . S
H29 C3 0.931 . S
H30 C12 0.931 . S
H31 C16 0.929 . S
H32 C18 0.930 1_565 S
Co33 N37 2.148 1_565 S
Co33 N43 2.128 . S
Co33 N53 2.194 . S
Co33 O58 2.351 . S
Co33 O59 2.155 . S
Co33 O60 2.096 . S
C34 N37 1.301 . S
C34 N38 1.328 . S
C34 H39 0.930 . S
C35 C36 1.333 . S
C35 N37 1.317 . S
C35 H40 0.930 . S
C36 C35 1.333 . S
C36 N38 1.350 . S
C36 H62 0.931 . S
N37 Co33 2.148 1_545 S
N37 C34 1.301 . S
N37 C35 1.317 . S
N38 C34 1.328 . S
N38 C36 1.350 . S
H39 C34 0.930 . S
H40 C35 0.930 . S
C41 O42 1.224 . S
C41 O60 1.247 . S
O42 C41 1.224 . S
N43 Co33 2.128 . S
N43 C44 1.355 . S
N43 C46 1.311 . S
C44 N43 1.355 . S
C44 C45 1.363 . S
C44 H56 0.929 . S
C45 C44 1.363 . S
C45 N47 1.375 . S
C45 H63 0.931 . S
C46 N43 1.311 . S
C46 N47 1.347 . S
C46 H57 0.929 . S
N47 C45 1.375 . S
N47 C46 1.347 . S
C48 C51 1.365 . S
C48 N53 1.328 . S
C48 H54 0.929 . S
C49 C50 1.362 . S
C49 C52 1.378 . S
C49 H64 0.929 . S
C50 C49 1.362 . S
C50 C51 1.366 . S
C51 C48 1.365 . S
C51 C50 1.366 . S
C51 H65 0.930 1_565 S
C52 C49 1.378 . S
C52 N53 1.315 . S
C52 H55 0.930 . S
N53 Co33 2.194 . S
N53 C48 1.328 . S
N53 C52 1.315 . S
H54 C48 0.929 . S
H55 C52 0.930 . S
H56 C44 0.929 . S
H57 C46 0.929 . S
O58 Co33 2.351 . S
O58 C61 1.244 . S
O59 Co33 2.155 . S
O59 C61 1.240 . S
O60 Co33 2.096 . S
O60 C41 1.247 . S
C61 O58 1.244 . S
C61 O59 1.240 . S
H62 C36 0.931 . S
H63 C45 0.931 . S
H64 C49 0.929 . S
H65 C51 0.930 1_545 S
Co66 N70 2.148 . S
Co66 N76 2.128 . S
Co66 N86 2.194 . S
Co66 O91 2.351 . S
Co66 O92 2.155 . S
Co66 O93 2.096 . S
C67 N70 1.301 . S
C67 N71 1.328 . S
C67 H72 0.930 . S
C68 C69 1.333 . S
C68 N70 1.317 . S
C68 H73 0.930 . S
C69 C68 1.333 . S
C69 N71 1.350 . S
C69 H95 0.931 . S
N70 Co66 2.148 . S
N70 C67 1.301 . S
N70 C68 1.317 . S
N71 C67 1.328 . S
N71 C69 1.350 . S
H72 C67 0.930 . S
H73 C68 0.930 . S
C74 O75 1.224 . S
C74 O93 1.247 . S
O75 C74 1.224 . S
N76 Co66 2.128 . S
N76 C77 1.355 . S
N76 C79 1.311 . S
C77 N76 1.355 . S
C77 C78 1.363 . S
C77 H89 0.929 . S
C78 C77 1.363 . S
C78 N80 1.375 . S
C78 H96 0.931 . S
C79 N76 1.311 . S
C79 N80 1.347 . S
C79 H90 0.929 . S
N80 C78 1.375 . S
N80 C79 1.347 . S
C81 C84 1.365 . S
C81 N86 1.328 . S
C81 H87 0.929 . S
C82 C83 1.362 . S
C82 C85 1.378 . S
C82 H97 0.929 . S
C83 C82 1.362 . S
C83 C84 1.366 . S
C84 C81 1.365 . S
C84 C83 1.366 . S
C84 H98 0.930 . S
C85 C82 1.378 . S
C85 N86 1.315 . S
C85 H88 0.930 . S
N86 Co66 2.194 . S
N86 C81 1.328 . S
N86 C85 1.315 . S
H87 C81 0.929 . S
H88 C85 0.930 . S
H89 C77 0.929 . S
H90 C79 0.929 . S
O91 Co66 2.351 . S
O91 C94 1.244 . S
O92 Co66 2.155 . S
O92 C94 1.240 . S
O93 Co66 2.096 . S
O93 C74 1.247 . S
C94 O91 1.244 . S
C94 O92 1.240 . S
H95 C69 0.931 . S
H96 C78 0.931 . S
H97 C82 0.929 . S
H98 C84 0.930 . S
Co99 N103 2.148 . S
Co99 N109 2.128 . S
Co99 N119 2.194 . S
Co99 O124 2.351 . S
Co99 O125 2.155 . S
Co99 O126 2.096 . S
C100 N103 1.301 . S
C100 N104 1.328 . S
C100 H105 0.930 . S
C101 C102 1.333 . S
C101 N103 1.317 . S
C101 H106 0.930 . S
C102 C101 1.333 . S
C102 N104 1.350 . S
C102 H128 0.931 . S
N103 Co99 2.148 . S
N103 C100 1.301 . S
N103 C101 1.317 . S
N104 C100 1.328 . S
N104 C102 1.350 . S
H105 C100 0.930 . S
H106 C101 0.930 . S
C107 O108 1.224 . S
C107 O126 1.247 . S
O108 C107 1.224 . S
N109 Co99 2.128 . S
N109 C110 1.355 . S
N109 C112 1.311 . S
C110 N109 1.355 . S
C110 C111 1.363 . S
C110 H122 0.929 . S
C111 C110 1.363 . S
C111 N113 1.375 . S
C111 H129 0.931 . S
C112 N109 1.311 . S
C112 N113 1.347 . S
C112 H123 0.929 . S
N113 C111 1.375 . S
N113 C112 1.347 . S
C114 C117 1.365 . S
C114 N119 1.328 . S
C114 H120 0.929 . S
C115 C116 1.362 . S
C115 C118 1.378 . S
C115 H130 0.929 . S
C116 C115 1.362 . S
C116 C117 1.366 . S
C117 C114 1.365 . S
C117 C116 1.366 . S
C117 H131 0.930 . S
C118 C115 1.378 . S
C118 N119 1.315 . S
C118 H121 0.930 . S
N119 Co99 2.194 . S
N119 C114 1.328 . S
N119 C118 1.315 . S
H120 C114 0.929 . S
H121 C118 0.930 . S
H122 C110 0.929 . S
H123 C112 0.929 . S
O124 Co99 2.351 . S
O124 C127 1.244 . S
O125 Co99 2.155 . S
O125 C127 1.240 . S
O126 Co99 2.096 . S
O126 C107 1.247 . S
C127 O124 1.244 . S
C127 O125 1.240 . S
H128 C102 0.931 . S
H129 C111 0.931 . S
H130 C115 0.929 . S
H131 C117 0.930 . S
Co132 N136 2.148 1_565 S
Co132 N142 2.128 . S
Co132 N152 2.194 . S
Co132 O157 2.351 . S
Co132 O158 2.155 . S
Co132 O159 2.096 . S
C133 N136 1.301 . S
C133 N137 1.328 . S
C133 H138 0.930 . S
C134 C135 1.333 . S
C134 N136 1.317 . S
C134 H139 0.930 . S
C135 C134 1.333 . S
C135 N137 1.350 . S
C135 H161 0.931 . S
N136 Co132 2.148 1_545 S
N136 C133 1.301 . S
N136 C134 1.317 . S
N137 C133 1.328 . S
N137 C135 1.350 . S
H138 C133 0.930 . S
H139 C134 0.930 . S
C140 O141 1.224 . S
C140 O159 1.247 . S
O141 C140 1.224 . S
N142 Co132 2.128 . S
N142 C143 1.355 . S
N142 C145 1.311 . S
C143 N142 1.355 . S
C143 C144 1.363 . S
C143 H155 0.929 . S
C144 C143 1.363 . S
C144 N146 1.375 . S
C144 H162 0.931 . S
C145 N142 1.311 . S
C145 N146 1.347 . S
C145 H156 0.929 . S
N146 C144 1.375 . S
N146 C145 1.347 . S
C147 C150 1.365 . S
C147 N152 1.328 . S
C147 H153 0.929 . S
C148 C149 1.362 . S
C148 C151 1.378 . S
C148 H163 0.929 . S
C149 C148 1.362 . S
C149 C150 1.366 . S
C150 C147 1.365 . S
C150 C149 1.366 . S
C150 H164 0.930 1_565 S
C151 C148 1.378 . S
C151 N152 1.315 . S
C151 H154 0.930 . S
N152 Co132 2.194 . S
N152 C147 1.328 . S
N152 C151 1.315 . S
H153 C147 0.929 . S
H154 C151 0.930 . S
H155 C143 0.929 . S
H156 C145 0.929 . S
O157 Co132 2.351 . S
O157 C160 1.244 . S
O158 Co132 2.155 . S
O158 C160 1.240 . S
O159 Co132 2.096 . S
O159 C140 1.247 . S
C160 O157 1.244 . S
C160 O158 1.240 . S
H161 C135 0.931 . S
H162 C144 0.931 . S
H163 C148 0.929 . S
H164 C150 0.930 1_545 S
Co165 N169 2.148 1_545 S
Co165 N175 2.128 . S
Co165 N185 2.194 . S
Co165 O190 2.351 . S
Co165 O191 2.155 . S
Co165 O192 2.096 . S
C166 N169 1.301 . S
C166 N170 1.328 . S
C166 H171 0.930 . S
C167 C168 1.333 . S
C167 N169 1.317 . S
C167 H172 0.930 . S
C168 C167 1.333 . S
C168 N170 1.350 . S
C168 H194 0.931 . S
N169 Co165 2.148 1_565 S
N169 C166 1.301 . S
N169 C167 1.317 . S
N170 C166 1.328 . S
N170 C168 1.350 . S
H171 C166 0.930 . S
H172 C167 0.930 . S
C173 O174 1.224 . S
C173 O192 1.247 . S
O174 C173 1.224 . S
N175 Co165 2.128 . S
N175 C176 1.355 . S
N175 C178 1.311 . S
C176 N175 1.355 . S
C176 C177 1.363 . S
C176 H188 0.929 . S
C177 C176 1.363 . S
C177 N179 1.375 . S
C177 H195 0.931 . S
C178 N175 1.311 . S
C178 N179 1.347 . S
C178 H189 0.929 . S
N179 C177 1.375 . S
N179 C178 1.347 . S
C180 C183 1.365 . S
C180 N185 1.328 . S
C180 H186 0.929 . S
C181 C182 1.362 . S
C181 C184 1.378 . S
C181 H196 0.929 . S
C182 C181 1.362 . S
C182 C183 1.366 . S
C183 C180 1.365 . S
C183 C182 1.366 . S
C183 H197 0.930 1_545 S
C184 C181 1.378 . S
C184 N185 1.315 . S
C184 H187 0.930 . S
N185 Co165 2.194 . S
N185 C180 1.328 . S
N185 C184 1.315 . S
H186 C180 0.929 . S
H187 C184 0.930 . S
H188 C176 0.929 . S
H189 C178 0.929 . S
O190 Co165 2.351 . S
O190 C193 1.244 . S
O191 Co165 2.155 . S
O191 C193 1.240 . S
O192 Co165 2.096 . S
O192 C173 1.247 . S
C193 O190 1.244 . S
C193 O191 1.240 . S
H194 C168 0.931 . S
H195 C177 0.931 . S
H196 C181 0.929 . S
H197 C183 0.930 1_565 S
Co198 N202 2.148 . S
Co198 N208 2.128 . S
Co198 N218 2.194 . S
Co198 O223 2.351 . S
Co198 O224 2.155 . S
Co198 O225 2.096 . S
C199 N202 1.301 . S
C199 N203 1.328 . S
C199 H204 0.930 . S
C200 C201 1.333 . S
C200 N202 1.317 . S
C200 H205 0.930 . S
C201 C200 1.333 . S
C201 N203 1.350 . S
C201 H227 0.931 . S
N202 Co198 2.148 . S
N202 C199 1.301 . S
N202 C200 1.317 . S
N203 C199 1.328 . S
N203 C201 1.350 . S
H204 C199 0.930 . S
H205 C200 0.930 . S
C206 O207 1.224 . S
C206 O225 1.247 . S
O207 C206 1.224 . S
N208 Co198 2.128 . S
N208 C209 1.355 . S
N208 C211 1.311 . S
C209 N208 1.355 . S
C209 C210 1.363 . S
C209 H221 0.929 . S
C210 C209 1.363 . S
C210 N212 1.375 . S
C210 H228 0.931 . S
C211 N208 1.311 . S
C211 N212 1.347 . S
C211 H222 0.929 . S
N212 C210 1.375 . S
N212 C211 1.347 . S
C213 C216 1.365 . S
C213 N218 1.328 . S
C213 H219 0.929 . S
C214 C215 1.362 . S
C214 C217 1.378 . S
C214 H229 0.929 . S
C215 C214 1.362 . S
C215 C216 1.366 . S
C216 C213 1.365 . S
C216 C215 1.366 . S
C216 H230 0.930 . S
C217 C214 1.378 . S
C217 N218 1.315 . S
C217 H220 0.930 . S
N218 Co198 2.194 . S
N218 C213 1.328 . S
N218 C217 1.315 . S
H219 C213 0.929 . S
H220 C217 0.930 . S
H221 C209 0.929 . S
H222 C211 0.929 . S
O223 Co198 2.351 . S
O223 C226 1.244 . S
O224 Co198 2.155 . S
O224 C226 1.240 . S
O225 Co198 2.096 . S
O225 C206 1.247 . S
C226 O223 1.244 . S
C226 O224 1.240 . S
H227 C201 0.931 . S
H228 C210 0.931 . S
H229 C214 0.929 . S
H230 C216 0.930 . S
Co231 N235 2.148 . S
Co231 N241 2.128 . S
Co231 N251 2.194 . S
Co231 O256 2.351 . S
Co231 O257 2.155 . S
Co231 O258 2.096 . S
C232 N235 1.301 . S
C232 N236 1.328 . S
C232 H237 0.930 . S
C233 C234 1.333 . S
C233 N235 1.317 . S
C233 H238 0.930 . S
C234 C233 1.333 . S
C234 N236 1.350 . S
C234 H260 0.931 . S
N235 Co231 2.148 . S
N235 C232 1.301 . S
N235 C233 1.317 . S
N236 C232 1.328 . S
N236 C234 1.350 . S
H237 C232 0.930 . S
H238 C233 0.930 . S
C239 O240 1.224 . S
C239 O258 1.247 . S
O240 C239 1.224 . S
N241 Co231 2.128 . S
N241 C242 1.355 . S
N241 C244 1.311 . S
C242 N241 1.355 . S
C242 C243 1.363 . S
C242 H254 0.929 . S
C243 C242 1.363 . S
C243 N245 1.375 . S
C243 H261 0.931 . S
C244 N241 1.311 . S
C244 N245 1.347 . S
C244 H255 0.929 . S
N245 C243 1.375 . S
N245 C244 1.347 . S
C246 C249 1.365 . S
C246 N251 1.328 . S
C246 H252 0.929 . S
C247 C248 1.362 . S
C247 C250 1.378 . S
C247 H262 0.929 . S
C248 C247 1.362 . S
C248 C249 1.366 . S
C249 C246 1.365 . S
C249 C248 1.366 . S
C249 H263 0.930 . S
C250 C247 1.378 . S
C250 N251 1.315 . S
C250 H253 0.930 . S
N251 Co231 2.194 . S
N251 C246 1.328 . S
N251 C250 1.315 . S
H252 C246 0.929 . S
H253 C250 0.930 . S
H254 C242 0.929 . S
H255 C244 0.929 . S
O256 Co231 2.351 . S
O256 C259 1.244 . S
O257 Co231 2.155 . S
O257 C259 1.240 . S
O258 Co231 2.096 . S
O258 C239 1.247 . S
C259 O256 1.244 . S
C259 O257 1.240 . S
H260 C234 0.931 . S
H261 C243 0.931 . S
H262 C247 0.929 . S
H263 C249 0.930 . S
C264 C265 1.369 . S
C264 C266 1.419 . S
C264 H268 0.930 . S
C265 C264 1.369 . S
C265 C274 1.429 1_545 S
C266 C264 1.419 . S
C266 C267 1.363 1_545 S
C266 H269 0.929 . S
C267 C266 1.363 1_565 S
C267 C273 1.428 . S
H268 C264 0.930 . S
H269 C266 0.929 . S
S270 N271 1.613 . S
S270 N272 1.610 . S
N271 S270 1.613 . S
N271 C274 1.350 . S
N272 S270 1.610 . S
N272 C273 1.351 . S
C273 C267 1.428 . S
C273 N272 1.351 . S
C273 C274 1.434 . S
C274 C265 1.429 1_565 S
C274 N271 1.350 . S
C274 C273 1.434 . S
C275 C276 1.369 . S
C275 C277 1.419 . S
C275 H279 0.930 . S
C276 C275 1.369 . S
C276 C285 1.429 . S
C277 C275 1.419 . S
C277 C278 1.363 . S
C277 H280 0.929 . S
C278 C277 1.363 . S
C278 C284 1.428 . S
H279 C275 0.930 . S
H280 C277 0.929 . S
S281 N282 1.613 . S
S281 N283 1.610 . S
N282 S281 1.613 . S
N282 C285 1.350 . S
N283 S281 1.610 . S
N283 C284 1.351 . S
C284 C278 1.428 . S
C284 N283 1.351 . S
C284 C285 1.434 . S
C285 C276 1.429 . S
C285 N282 1.350 . S
C285 C284 1.434 . S
C286 C287 1.369 . S
C286 C288 1.419 . S
C286 H290 0.930 . S
C287 C286 1.369 . S
C287 C296 1.429 1_565 S
C288 C286 1.419 . S
C288 C289 1.363 1_565 S
C288 H291 0.929 . S
C289 C288 1.363 1_545 S
C289 C295 1.428 . S
H290 C286 0.930 . S
H291 C288 0.929 . S
S292 N293 1.613 . S
S292 N294 1.610 . S
N293 S292 1.613 . S
N293 C296 1.350 . S
N294 S292 1.610 . S
N294 C295 1.351 . S
C295 C289 1.428 . S
C295 N294 1.351 . S
C295 C296 1.434 . S
C296 C287 1.429 1_545 S
C296 N293 1.350 . S
C296 C295 1.434 . S
C297 C298 1.369 . S
C297 C299 1.419 . S
C297 H301 0.930 . S
C298 C297 1.369 . S
C298 C307 1.429 . S
C299 C297 1.419 . S
C299 C300 1.363 . S
C299 H302 0.929 . S
C300 C299 1.363 . S
C300 C306 1.428 . S
H301 C297 0.930 . S
H302 C299 0.929 . S
S303 N304 1.613 . S
S303 N305 1.610 . S
N304 S303 1.613 . S
N304 C307 1.350 . S
N305 S303 1.610 . S
N305 C306 1.351 . S
C306 C300 1.428 . S
C306 N305 1.351 . S
C306 C307 1.434 . S
C307 C298 1.429 . S
C307 N304 1.350 . S
C307 C306 1.434 . S
C308 C309 1.369 1_556 S
C308 C310 1.419 1_455 S
C308 H312 0.930 . S
C309 C308 1.369 1_554 S
C309 C318 1.429 1_545 S
C310 C308 1.419 1_655 S
C310 C311 1.363 1_545 S
C310 H313 0.929 . S
C311 C310 1.363 1_565 S
C311 C317 1.428 1_556 S
H312 C308 0.930 . S
H313 C310 0.929 . S
S314 N315 1.613 1_655 S
S314 N316 1.610 . S
N315 S314 1.613 1_455 S
N315 C318 1.350 . S
N316 S314 1.610 . S
N316 C317 1.351 . S
C317 C311 1.428 1_554 S
C317 N316 1.351 . S
C317 C318 1.434 1_655 S
C318 C309 1.429 1_565 S
C318 N315 1.350 . S
C318 C317 1.434 1_455 S
C319 C320 1.369 1_546 S
C319 C321 1.419 . S
C319 H323 0.930 . S
C320 C319 1.369 1_564 S
C320 C329 1.429 . S
C321 C319 1.419 . S
C321 C322 1.363 . S
C321 H324 0.929 . S
C322 C321 1.363 . S
C322 C328 1.428 1_546 S
H323 C319 0.930 . S
H324 C321 0.929 . S
S325 N326 1.613 . S
S325 N327 1.610 . S
N326 S325 1.613 . S
N326 C329 1.350 . S
N327 S325 1.610 . S
N327 C328 1.351 . S
C328 C322 1.428 1_564 S
C328 N327 1.351 . S
C328 C329 1.434 . S
C329 C320 1.429 . S
C329 N326 1.350 . S
C329 C328 1.434 . S
C330 C331 1.369 . S
C330 C332 1.419 . S
C330 H334 0.930 . S
C331 C330 1.369 . S
C331 C340 1.429 1_455 S
C332 C330 1.419 . S
C332 C333 1.363 1_455 S
C332 H335 0.929 . S
C333 C332 1.363 1_655 S
C333 C339 1.428 . S
H334 C330 0.930 . S
H335 C332 0.929 . S
S336 N337 1.613 . S
S336 N338 1.610 . S
N337 S336 1.613 . S
N337 C340 1.350 . S
N338 S336 1.610 . S
N338 C339 1.351 . S
C339 C333 1.428 . S
C339 N338 1.351 . S
C339 C340 1.434 . S
C340 C331 1.429 1_655 S
C340 N337 1.350 . S
C340 C339 1.434 . S
C341 C342 1.369 . S
C341 C343 1.419 . S
C341 H345 0.930 . S
C342 C341 1.369 . S
C342 C351 1.429 . S
C343 C341 1.419 . S
C343 C344 1.363 . S
C343 H346 0.929 . S
C344 C343 1.363 . S
C344 C350 1.428 . S
H345 C341 0.930 . S
H346 C343 0.929 . S
S347 N348 1.613 . S
S347 N349 1.610 . S
N348 S347 1.613 . S
N348 C351 1.350 . S
N349 S347 1.610 . S
N349 C350 1.351 . S
C350 C344 1.428 . S
C350 N349 1.351 . S
C350 C351 1.434 . S
C351 C342 1.429 . S
C351 N348 1.350 . S
C351 C350 1.434 . S
C352 C353 1.369 . S
C352 C354 1.419 . S
C352 H356 0.930 . S
C353 C352 1.369 . S
C353 C362 1.429 . S
C354 C352 1.419 . S
C354 C355 1.363 . S
C354 H357 0.929 . S
C355 C354 1.363 . S
C355 C361 1.428 . S
H356 C352 0.930 . S
H357 C354 0.929 . S
S358 N359 1.613 . S
S358 N360 1.610 . S
N359 S358 1.613 . S
N359 C362 1.350 . S
N360 S358 1.610 . S
N360 C361 1.351 . S
C361 C355 1.428 . S
C361 N360 1.351 . S
C361 C362 1.434 . S
C362 C353 1.429 . S
C362 N359 1.350 . S
C362 C361 1.434 . S
C363 C364 1.369 . S
C363 C365 1.419 . S
C363 H367 0.930 . S
C364 C363 1.369 . S
C364 C373 1.429 . S
C365 C363 1.419 . S
C365 C366 1.363 . S
C365 H368 0.929 . S
C366 C365 1.363 . S
C366 C372 1.428 . S
H367 C363 0.930 . S
H368 C365 0.929 . S
S369 N370 1.613 . S
S369 N371 1.610 . S
N370 S369 1.613 . S
N370 C373 1.350 . S
N371 S369 1.610 . S
N371 C372 1.351 . S
C372 C366 1.428 . S
C372 N371 1.351 . S
C372 C373 1.434 . S
C373 C364 1.429 . S
C373 N370 1.350 . S
C373 C372 1.434 . S
C374 C375 1.369 . S
C374 C376 1.419 . S
C374 H378 0.930 . S
C375 C374 1.369 . S
C375 C384 1.429 . S
C376 C374 1.419 . S
C376 C377 1.363 . S
C376 H379 0.929 . S
C377 C376 1.363 . S
C377 C383 1.428 . S
H378 C374 0.930 . S
H379 C376 0.929 . S
S380 N381 1.613 . S
S380 N382 1.610 . S
N381 S380 1.613 . S
N381 C384 1.350 . S
N382 S380 1.610 . S
N382 C383 1.351 . S
C383 C377 1.428 . S
C383 N382 1.351 . S
C383 C384 1.434 . S
C384 C375 1.429 . S
C384 N381 1.350 . S
C384 C383 1.434 . S
C385 C386 1.369 . S
C385 C387 1.419 . S
C385 H389 0.930 . S
C386 C385 1.369 . S
C386 C395 1.429 . S
C387 C385 1.419 . S
C387 C388 1.363 . S
C387 H390 0.929 . S
C388 C387 1.363 . S
C388 C394 1.428 . S
H389 C385 0.930 . S
H390 C387 0.929 . S
S391 N392 1.613 . S
S391 N393 1.610 . S
N392 S391 1.613 . S
N392 C395 1.350 . S
N393 S391 1.610 . S
N393 C394 1.351 . S
C394 C388 1.428 . S
C394 N393 1.351 . S
C394 C395 1.434 . S
C395 C386 1.429 . S
C395 N392 1.350 . S
C395 C394 1.434 . S
C396 C397 1.369 . S
C396 C398 1.419 . S
C396 H400 0.930 . S
C397 C396 1.369 . S
C397 C406 1.429 . S
C398 C396 1.419 . S
C398 C399 1.363 . S
C398 H401 0.929 . S
C399 C398 1.363 . S
C399 C405 1.428 . S
H400 C396 0.930 . S
H401 C398 0.929 . S
S402 N403 1.613 . S
S402 N404 1.610 . S
N403 S402 1.613 . S
N403 C406 1.350 . S
N404 S402 1.610 . S
N404 C405 1.351 . S
C405 C399 1.428 . S
C405 N404 1.351 . S
C405 C406 1.434 . S
C406 C397 1.429 . S
C406 N403 1.350 . S
C406 C405 1.434 . S
C407 C408 1.369 . S
C407 C409 1.419 . S
C407 H411 0.930 . S
C408 C407 1.369 . S
C408 C417 1.429 . S
C409 C407 1.419 . S
C409 C410 1.363 . S
C409 H412 0.929 . S
C410 C409 1.363 . S
C410 C416 1.428 . S
H411 C407 0.930 . S
H412 C409 0.929 . S
S413 N414 1.613 . S
S413 N415 1.610 . S
N414 S413 1.613 . S
N414 C417 1.350 . S
N415 S413 1.610 . S
N415 C416 1.351 . S
C416 C410 1.428 . S
C416 N415 1.351 . S
C416 C417 1.434 . S
C417 C408 1.429 . S
C417 N414 1.350 . S
C417 C416 1.434 . S
C418 C419 1.369 1_565 S
C418 C420 1.419 . S
C418 H422 0.930 1_565 S
C419 C418 1.369 1_545 S
C419 C428 1.429 1_545 S
C420 C418 1.419 . S
C420 C421 1.363 . S
C420 H423 0.929 . S
C421 C420 1.363 . S
C421 C427 1.428 . S
H422 C418 0.930 1_545 S
H423 C420 0.929 . S
S424 N425 1.613 . S
S424 N426 1.610 . S
N425 S424 1.613 . S
N425 C428 1.350 . S
N426 S424 1.610 . S
N426 C427 1.351 . S
C427 C421 1.428 . S
C427 N426 1.351 . S
C427 C428 1.434 . S
C428 C419 1.429 1_565 S
C428 N425 1.350 . S
C428 C427 1.434 . S
C429 C430 1.369 1_545 S
C429 C431 1.419 . S
C429 H433 0.926 1_545 S
C430 C429 1.369 1_565 S
C430 C439 1.429 1_565 S
C431 C429 1.419 . S
C431 C432 1.363 . S
C431 H434 0.929 . S
C432 C431 1.363 . S
C432 C438 1.428 . S
H433 C429 0.926 1_565 S
H434 C431 0.929 . S
S435 N436 1.613 . S
S435 N437 1.610 . S
N436 S435 1.613 . S
N436 C439 1.350 . S
N437 S435 1.610 . S
N437 C438 1.351 . S
C438 C432 1.428 . S
C438 N437 1.351 . S
C438 C439 1.434 . S
C439 C430 1.429 1_545 S
C439 N436 1.350 . S
C439 C438 1.434 . S
C440 C441 1.369 . S
C440 C442 1.419 . S
C440 H444 0.930 . S
C441 C440 1.369 . S
C441 C450 1.429 . S
C442 C440 1.419 . S
C442 C443 1.363 . S
C442 H445 0.929 . S
C443 C442 1.363 . S
C443 C449 1.428 . S
H444 C440 0.930 . S
H445 C442 0.929 . S
S446 N447 1.613 . S
S446 N448 1.610 . S
N447 S446 1.613 . S
N447 C450 1.350 . S
N448 S446 1.610 . S
N448 C449 1.351 . S
C449 C443 1.428 . S
C449 N448 1.351 . S
C449 C450 1.434 . S
C450 C441 1.429 . S
C450 N447 1.350 . S
C450 C449 1.434 . S
C451 C452 1.369 . S
C451 C453 1.419 . S
C451 H455 0.930 . S
C452 C451 1.369 . S
C452 C461 1.429 . S
C453 C451 1.419 . S
C453 C454 1.363 . S
C453 H456 0.929 . S
C454 C453 1.363 . S
C454 C460 1.428 . S
H455 C451 0.930 . S
H456 C453 0.929 . S
S457 N458 1.613 . S
S457 N459 1.610 . S
N458 S457 1.613 . S
N458 C461 1.350 . S
N459 S457 1.610 . S
N459 C460 1.351 . S
C460 C454 1.428 . S
C460 N459 1.351 . S
C460 C461 1.434 . S
C461 C452 1.429 . S
C461 N458 1.350 . S
C461 C460 1.434 . S
C462 C463 1.369 1_545 S
C462 C464 1.419 . S
C462 H466 0.930 1_545 S
C463 C462 1.369 1_565 S
C463 C472 1.429 1_565 S
C464 C462 1.419 . S
C464 C465 1.363 . S
C464 H467 0.929 . S
C465 C464 1.363 . S
C465 C471 1.428 . S
H466 C462 0.930 1_565 S
H467 C464 0.929 . S
S468 N469 1.613 . S
S468 N470 1.610 . S
N469 S468 1.613 . S
N469 C472 1.350 . S
N470 S468 1.610 . S
N470 C471 1.351 . S
C471 C465 1.428 . S
C471 N470 1.351 . S
C471 C472 1.434 . S
C472 C463 1.429 1_545 S
C472 N469 1.350 . S
C472 C471 1.434 . S
C473 C474 1.369 . S
C473 C475 1.419 . S
C473 H477 0.930 . S
C474 C473 1.369 . S
C474 C483 1.429 . S
C475 C473 1.419 . S
C475 C476 1.363 1_565 S
C475 H478 0.929 . S
C476 C475 1.363 1_545 S
C476 C482 1.428 1_545 S
H477 C473 0.930 . S
H478 C475 0.929 . S
S479 N480 1.613 . S
S479 N481 1.610 1_565 S
N480 S479 1.613 . S
N480 C483 1.350 . S
N481 S479 1.610 1_545 S
N481 C482 1.351 1_545 S
C482 C476 1.428 1_565 S
C482 N481 1.351 1_565 S
C482 C483 1.434 . S
C483 C474 1.429 . S
C483 N480 1.350 . S
C483 C482 1.434 . S
C265 C17 1.539 . S
C267 C50 1.539 . S
C276 C116 1.540 . S
C278 C83 1.538 . S
C287 C149 1.539 . S
C289 C182 1.543 . S
C298 C248 1.540 . S
C300 C215 1.538 . S
C309 C28 1.159 . S
C311 C160 1.162 . S
C320 C61 1.159 . S
C322 C193 1.162 . S
C331 C94 1.159 . S
C333 C226 1.162 . S
C342 C127 1.163 . S
C344 C259 1.159 . S
C353 C74 1.484 . S
C355 C8 1.487 . S
C364 C107 1.488 . S
C366 C41 1.484 . S
C375 C140 1.487 . S
C377 C206 1.484 . S
C386 C173 1.483 . S
C388 C239 1.485 . S
C397 N5 1.444 . S
C399 N14 1.446 . S
C408 N38 1.442 . S
C410 N47 1.447 . S
C419 N80 1.446 . S
C421 N71 1.443 . S
C430 N113 1.447 . S
C432 N104 1.443 . S
C441 N146 1.444 . S
C443 N137 1.445 . S
C452 N170 1.444 . S
C454 N179 1.445 . S
C463 N212 1.445 . S
C465 N203 1.444 . S
C474 N236 1.443 . S
C476 N245 1.446 . S
