# Generated by pormake.
# Topology vby, (6)-cn, num edge types: 1
# Building blocks:
#     Node 0, Type 0, BuildingBlock: HISSIN_clean_sbu_0, # of connection points: 6
#     Node 1, Type 0, BuildingBlock: HISSIN_clean_sbu_0, # of connection points: 6
#     Node 2, Type 0, BuildingBlock: HISSIN_clean_sbu_0, # of connection points: 6
#     Node 3, Type 0, BuildingBlock: HISSIN_clean_sbu_0, # of connection points: 6
#     Node 4, Type 0, BuildingBlock: HISSIN_clean_sbu_0, # of connection points: 6
#     Node 5, Type 0, BuildingBlock: HISSIN_clean_sbu_0, # of connection points: 6
#     Node 6, Type 0, BuildingBlock: HISSIN_clean_sbu_0, # of connection points: 6
#     Node 7, Type 0, BuildingBlock: HISSIN_clean_sbu_0, # of connection points: 6
#     Edge 8, Type (0, 0), BuildingBlock: EZIPEK_clean_linker_0, # of connection points: 2
#     Edge 9, Type (0, 0), BuildingBlock: EZIPEK_clean_linker_0, # of connection points: 2
#     Edge 10, Type (0, 0), BuildingBlock: EZIPEK_clean_linker_0, # of connection points: 2
#     Edge 11, Type (0, 0), BuildingBlock: EZIPEK_clean_linker_0, # of connection points: 2
#     Edge 12, Type (0, 0), BuildingBlock: EZIPEK_clean_linker_0, # of connection points: 2
#     Edge 13, Type (0, 0), BuildingBlock: EZIPEK_clean_linker_0, # of connection points: 2
#     Edge 14, Type (0, 0), BuildingBlock: EZIPEK_clean_linker_0, # of connection points: 2
#     Edge 15, Type (0, 0), BuildingBlock: EZIPEK_clean_linker_0, # of connection points: 2
#     Edge 16, Type (0, 0), BuildingBlock: EZIPEK_clean_linker_0, # of connection points: 2
#     Edge 17, Type (0, 0), BuildingBlock: EZIPEK_clean_linker_0, # of connection points: 2
#     Edge 18, Type (0, 0), BuildingBlock: EZIPEK_clean_linker_0, # of connection points: 2
#     Edge 19, Type (0, 0), BuildingBlock: EZIPEK_clean_linker_0, # of connection points: 2
#     Edge 20, Type (0, 0), BuildingBlock: EZIPEK_clean_linker_0, # of connection points: 2
#     Edge 21, Type (0, 0), BuildingBlock: EZIPEK_clean_linker_0, # of connection points: 2
#     Edge 22, Type (0, 0), BuildingBlock: EZIPEK_clean_linker_0, # of connection points: 2
#     Edge 23, Type (0, 0), BuildingBlock: EZIPEK_clean_linker_0, # of connection points: 2
#     Edge 24, Type (0, 0), BuildingBlock: EZIPEK_clean_linker_0, # of connection points: 2
#     Edge 25, Type (0, 0), BuildingBlock: EZIPEK_clean_linker_0, # of connection points: 2
#     Edge 26, Type (0, 0), BuildingBlock: EZIPEK_clean_linker_0, # of connection points: 2
#     Edge 27, Type (0, 0), BuildingBlock: EZIPEK_clean_linker_0, # of connection points: 2
#     Edge 28, Type (0, 0), BuildingBlock: EZIPEK_clean_linker_0, # of connection points: 2
#     Edge 29, Type (0, 0), BuildingBlock: EZIPEK_clean_linker_0, # of connection points: 2
#     Edge 30, Type (0, 0), BuildingBlock: EZIPEK_clean_linker_0, # of connection points: 2
#     Edge 31, Type (0, 0), BuildingBlock: EZIPEK_clean_linker_0, # of connection points: 2
# Relax obj value: 0.200
# Max RMSD: 0.225
# Mean RMSD: 0.225
data_MOF--net-vby--node1-HISSIN_clean_sbu_0--edge1-EZIPEK_clean_linker_0
_symmetry_space_group_name_H-M    P1
_symmetry_Int_Tables_number       1
_symmetry_cell_setting            triclinic
loop_
_symmetry_equiv_pos_as_xyz
'x, y, z'
_cell_length_a     11.370015
_cell_length_b     88.594577
_cell_length_c     22.296251
_cell_angle_alpha  89.733041
_cell_angle_beta   91.206691
_cell_angle_gamma 89.683674
loop_
_atom_site_label
_atom_site_type_symbol
_atom_site_fract_x
_atom_site_fract_y
_atom_site_fract_z
_atom_type_partial_charge
Eu0 Eu 0.08468 0.36868 0.035 0.0
Eu1 Eu 0.08556 0.40649 0.01121 0.0
C2 C 0.08987 0.38277 0.90262 0.0
C3 C 0.12533 0.32463 0.03997 0.0
C4 C 0.20474 0.32233 -0.00654 0.0
C5 C 0.13682 0.29796 0.06519 0.0
C6 C 0.24956 0.30784 0.98275 0.0
C7 C 0.09227 0.31239 0.07582 0.0
C8 C 0.21525 0.29557 0.01849 0.0
C9 C 0.07257 0.33946 0.05173 0.0
O10 O 0.89389 0.40205 0.02514 0.0
O11 O 0.89385 0.3759 0.02477 0.0
C12 C 0.83882 0.38903 0.0252 0.0
O13 O 0.05404 0.37845 0.12579 0.0
O14 O 1.02829 0.42693 0.96279 0.0
O15 O 0.17701 0.42772 0.0256 0.0
O16 O 0.07372 0.40424 0.11168 0.0
C17 C 0.0586 0.39231 0.14604 0.0
O18 O 0.27457 0.37536 0.04831 0.0
O19 O 0.26931 0.39776 -0.00424 0.0
O20 O 1.04671 0.39545 0.92285 0.0
O21 O 0.13024 0.34851 0.08748 0.0
O22 O 1.02145 0.34656 0.00683 0.0
O23 O 0.1328 0.37218 0.93827 0.0
C24 C 0.08242 0.45115 0.00128 0.0
C25 C 0.09087 0.45697 0.05979 0.0
C26 C 0.05183 0.47656 0.96242 0.0
C27 C 0.08144 0.47256 0.06931 0.0
C28 C 0.06081 0.46104 0.95296 0.0
C29 C 0.06439 0.48245 0.02042 0.0
C30 C 0.10963 0.43525 -0.01213 0.0
C31 C 0.32743 0.38675 0.02265 0.0
H32 H 0.23113 0.33168 0.96537 0.0
H33 H 0.10959 0.28863 0.09313 0.0
H34 H 0.31014 0.30614 0.94652 0.0
H35 H 1.03095 0.31397 0.11185 0.0
H36 H 0.1081 0.44956 0.09777 0.0
H37 H 1.03824 0.48403 0.92426 0.0
H38 H 0.09068 0.47695 0.11441 0.0
H39 H 0.05508 0.45681 0.90747 0.0
Eu40 Eu 1.02509 0.62335 0.96937 0.0
Eu41 Eu 1.03473 0.66105 0.96162 0.0
C42 C 1.03491 0.64062 0.84576 0.0
C43 C 1.0419 0.57871 -0.00793 0.0
C44 C 0.09669 0.56905 0.95118 0.0
C45 C 1.01753 0.55731 0.05977 0.0
C46 C 0.10903 0.55364 0.96377 0.0
C47 C 1.00511 0.57274 0.04721 0.0
C48 C 0.06623 0.54762 0.01727 0.0
C49 C 1.00376 0.59397 0.97226 0.0
O50 O 0.84221 0.65545 0.94658 0.0
O51 O 0.84023 0.63136 -0.01399 0.0
C52 C 0.78581 0.64355 0.96636 0.0
O53 O 0.08049 0.63146 0.06101 0.0
O54 O 1.00825 0.6815 0.90777 0.0
O55 O 0.08097 0.68308 -0.0016 0.0
O56 O 0.99273 0.65494 0.05701 0.0
C57 C 1.03899 0.64354 0.08735 0.0
O58 O 0.21839 0.6285 0.95696 0.0
O59 O 0.22273 0.65393 0.98014 0.0
O60 O 0.09105 0.65144 0.87368 0.0
O61 O 0.95681 0.60303 0.01113 0.0
O62 O 0.06314 0.60112 0.93156 0.0
O63 O 0.97511 0.63055 0.8753 0.0
C64 C 0.98599 0.70502 0.95698 0.0
C65 C 0.9286 0.709 0.00991 0.0
C66 C 0.94508 0.73007 0.91641 0.0
C67 C 0.8807 0.7235 0.01612 0.0
C68 C 0.99277 0.71562 0.91021 0.0
C69 C 0.88985 0.73415 0.96958 0.0
C70 C 1.04663 0.69041 0.95015 0.0
C71 C 0.27574 0.64107 0.96876 0.0
H72 H 0.12421 0.57323 0.90799 0.0
H73 H 0.98399 0.55282 0.10127 0.0
H74 H 0.14674 0.54629 0.93048 0.0
H75 H 0.96109 0.57981 0.07937 0.0
H76 H 0.92244 0.70102 0.04665 0.0
H77 H 0.95283 0.73815 0.88012 0.0
H78 H 0.83808 0.7265 0.05742 0.0
H79 H 1.03721 0.71281 0.86918 0.0
Eu80 Eu 0.086 0.62337 0.46313 0.0
Eu81 Eu 0.07399 0.66121 0.46963 0.0
C82 C 0.07119 0.64057 0.58797 0.0
C83 C 0.07493 0.57849 0.46948 0.0
C84 C 0.1164 0.57157 0.52288 0.0
C85 C 1.00321 0.55407 0.43518 0.0
C86 C 0.10359 0.55603 0.53169 0.0
C87 C 1.01628 0.56961 0.42623 0.0
C88 C 1.04932 0.54715 0.48732 0.0
C89 C 0.11044 0.59407 0.4541 0.0
O90 O 0.26487 0.6557 0.4523 0.0
O91 O 0.27033 0.63105 0.48547 0.0
C92 C 0.32317 0.64346 0.46883 0.0
O93 O 0.12864 0.63287 0.37243 0.0
O94 O 1.02729 0.68201 0.5165 0.0
O95 O 0.10057 0.6831 0.42746 0.0
O96 O 1.01509 0.65415 0.37716 0.0
C97 C 0.06855 0.64377 0.34613 0.0
O98 O 0.89096 0.62863 0.45418 0.0
O99 O 0.88567 0.65396 0.47966 0.0
O100 O 0.1176 0.65252 0.56272 0.0
O101 O 1.04469 0.60214 0.41728 0.0
O102 O 0.16253 0.60221 0.49532 0.0
O103 O 1.03213 0.62905 0.55672 0.0
C104 C 0.12461 0.70488 0.48954 0.0
C105 C 0.21995 0.71017 0.45626 0.0
C106 C 0.12074 0.7288 0.54298 0.0
C107 C 0.26328 0.72475 0.46536 0.0
C108 C 0.07711 0.71424 0.53378 0.0
C109 C 0.21203 0.73428 0.50771 0.0
C110 C 0.06338 0.69072 0.47336 0.0
C111 C 0.8335 0.64113 0.46701 0.0
H112 H 0.16352 0.578 0.55675 0.0
H113 H 0.96132 0.54734 0.40045 0.0
H114 H 0.13976 0.55083 0.57217 0.0
H115 H 0.98531 0.57455 0.38421 0.0
H116 H 0.25811 0.7033 0.42157 0.0
H117 H 0.08018 0.73602 0.57583 0.0
H118 H 0.33386 0.72882 0.43778 0.0
H119 H 1.00281 0.71053 0.55956 0.0
Eu120 Eu 1.03277 0.3689 0.51732 0.0
Eu121 Eu 1.02357 0.40651 0.53608 0.0
C122 C 1.04966 0.38384 0.64517 0.0
C123 C 0.97157 0.32546 0.49491 0.0
C124 C 0.87975 0.32074 0.53188 0.0
C125 C 0.96478 0.30116 0.44448 0.0
C126 C 0.83286 0.30624 0.52599 0.0
C127 C 1.01197 0.31563 0.45046 0.0
C128 C 0.87686 0.29627 0.4831 0.0
C129 C 1.03756 0.33947 0.50738 0.0
O130 O 0.21905 0.40083 0.53307 0.0
O131 O 0.22188 0.37533 0.50992 0.0
C132 C 0.27537 0.38819 0.52001 0.0
O133 O 1.00012 0.37946 0.42564 0.0
O134 O 0.08248 0.42672 0.58478 0.0
O135 O 0.93469 0.42802 0.52171 0.0
O136 O 0.06263 0.40405 0.4389 0.0
C137 C 1.03453 0.39261 0.40437 0.0
O138 O 0.8441 0.3745 0.5382 0.0
O139 O 0.84048 0.39939 0.50857 0.0
O140 O 0.98465 0.39485 0.62327 0.0
O141 O 0.05989 0.3486 0.46301 0.0
O142 O 1.01618 0.3466 0.55702 0.0
O143 O 0.10273 0.37441 0.6097 0.0
C144 C 1.03236 0.45107 0.5441 0.0
C145 C 1.02637 0.45651 0.48473 0.0
C146 C 0.06119 0.47673 0.57951 0.0
C147 C 1.03558 0.47201 0.47306 0.0
C148 C 0.05216 0.46128 0.59115 0.0
C149 C 1.0506 0.48222 0.52056 0.0
C150 C 1.00258 0.43535 0.55919 0.0
C151 C 0.7867 0.38686 0.52274 0.0
H152 H 0.84719 0.32801 0.56682 0.0
H153 H 0.99967 0.29358 0.41118 0.0
H154 H 0.76486 0.30262 0.55609 0.0
H155 H 0.08354 0.31892 0.42195 0.0
H156 H 1.01048 0.44888 0.44766 0.0
H157 H 0.07286 0.48447 0.61662 0.0
H158 H 1.02733 0.47609 0.42728 0.0
H159 H 0.05587 0.45734 0.63725 0.0
Eu160 Eu 0.58397 0.86822 0.00778 0.0
Eu161 Eu 0.58687 0.90633 -0.01253 0.0
C162 C 0.59533 0.88291 0.87698 0.0
C163 C 0.61705 0.82413 0.01222 0.0
C164 C 0.71851 0.82231 0.97813 0.0
C165 C 0.611 0.79706 0.02906 0.0
C166 C 0.76597 0.80786 0.96957 0.0
C167 C 0.56375 0.81144 0.0375 0.0
C168 C 0.71235 0.79516 -0.00485 0.0
C169 C 0.56473 0.83901 0.02311 0.0
O170 O 0.39556 0.90192 0.00253 0.0
O171 O 0.39434 0.87584 -0.00445 0.0
C172 C 0.34007 0.88897 -0.00038 0.0
O173 O 0.56466 0.87777 0.09984 0.0
O174 O 0.53026 0.92711 0.94113 0.0
O175 O 0.67901 0.92738 0.004 0.0
O176 O 0.5611 0.90372 0.0868 0.0
C177 C 0.55619 0.89155 0.12065 0.0
O178 O 0.77659 0.87368 0.01634 0.0
O179 O 0.77415 0.8981 0.97926 0.0
O180 O 0.55396 0.89568 0.89751 0.0
O181 O 0.62034 0.84785 0.06051 0.0
O182 O 0.51948 0.84632 0.97718 0.0
O183 O 0.6348 0.872 0.91199 0.0
C184 C 0.58305 0.95104 0.984 0.0
C185 C 0.62613 0.95744 0.03778 0.0
C186 C 0.52009 0.97601 0.95015 0.0
C187 C 0.61838 0.97304 0.04698 0.0
C188 C 0.52782 0.96045 0.94093 0.0
C189 C 0.56799 0.98244 0.00249 0.0
C190 C 0.61097 0.93527 0.96773 0.0
C191 C 0.83013 0.88591 -0.00193 0.0
H192 H 0.76074 0.83203 0.95843 0.0
H193 H 0.56867 0.78739 0.04906 0.0
H194 H 0.84431 0.80655 0.94323 0.0
H195 H 0.48547 0.81267 0.06399 0.0
H196 H 0.67009 0.95051 0.07166 0.0
H197 H 0.48083 0.98312 0.9154 0.0
H198 H 0.65558 0.97784 0.08768 0.0
H199 H 0.49537 0.95585 0.89881 0.0
Eu200 Eu 0.5173 0.12353 0.95928 0.0
Eu201 Eu 0.52632 0.16132 0.95854 0.0
C202 C 0.5281 0.14233 0.83908 0.0
C203 C 0.5361 0.07869 0.97075 0.0
C204 C 0.55691 0.06858 0.92379 0.0
C205 C 0.55174 0.05774 0.04175 0.0
C206 C 0.57222 0.05318 0.93541 0.0
C207 C 0.53605 0.07319 0.0301 0.0
C208 C 0.56667 0.04761 -0.00578 0.0
C209 C 0.49608 0.09416 0.95552 0.0
O210 O 0.33435 0.15565 0.94212 0.0
O211 O 0.33303 0.13129 0.97868 0.0
C212 C 0.2782 0.1436 0.96054 0.0
O213 O 0.57441 0.13049 0.05217 0.0
O214 O 0.49636 0.1824 0.9093 0.0
O215 O 0.57258 0.1829 -0.00058 0.0
O216 O 0.48676 0.154 0.05288 0.0
C217 C 0.53395 0.14228 0.08086 0.0
O218 O 0.71081 0.12879 0.94872 0.0
O219 O 0.71518 0.15413 0.97398 0.0
O220 O 0.58336 0.15289 0.86892 0.0
O221 O 0.45254 0.10259 -0.00245 0.0
O222 O 0.5523 0.10192 0.91539 0.0
O223 O 0.4678 0.13196 0.8667 0.0
C224 C 0.47278 0.20522 0.96379 0.0
C225 C 0.44069 0.20979 0.02155 0.0
C226 C 0.40883 0.22964 0.92434 0.0
C227 C 0.3942 0.22427 0.03058 0.0
C228 C 0.45519 0.21522 0.91531 0.0
C229 C 0.37957 0.23433 0.98209 0.0
C230 C 0.53496 0.19081 0.95326 0.0
C231 C 0.76803 0.14131 0.96157 0.0
H232 H 0.55575 0.07248 0.87764 0.0
H233 H 0.54764 0.05361 0.08745 0.0
H234 H 0.58388 0.04552 0.89824 0.0
H235 H 0.51918 0.08069 0.0672 0.0
H236 H 0.45389 0.20236 0.05984 0.0
H237 H 0.39817 0.23727 0.88649 0.0
H238 H 0.3719 0.22774 0.07547 0.0
H239 H 0.48037 0.21201 0.8705 0.0
Eu240 Eu 0.58516 0.12347 0.46028 0.0
Eu241 Eu 0.57215 0.1613 0.45938 0.0
C242 C 0.56978 0.14223 0.58152 0.0
C243 C 0.57242 0.0789 0.47674 0.0
C244 C 0.57169 0.07451 0.5375 0.0
C245 C 0.53964 0.0528 0.44796 0.0
C246 C 0.55721 0.0593 0.55319 0.0
C247 C 0.55381 0.06795 0.4323 0.0
C248 C 0.54414 0.04832 0.50837 0.0
C249 C 0.6098 0.09411 0.45805 0.0
O250 O 0.76359 0.15572 0.44361 0.0
O251 O 0.76961 0.13141 0.48067 0.0
C252 C 0.82214 0.14367 0.46208 0.0
O253 O 0.62834 0.13179 0.36786 0.0
O254 O 0.52469 0.18277 0.50123 0.0
O255 O 0.59673 0.1825 0.41178 0.0
O256 O 0.51289 0.15293 0.36879 0.0
C257 C 0.56764 0.14232 0.33961 0.0
O258 O 0.39019 0.12862 0.44909 0.0
O259 O 0.38462 0.15407 0.47244 0.0
O260 O 0.61603 0.15388 0.55417 0.0
O261 O 0.54582 0.10162 0.41864 0.0
O262 O 0.65996 0.10281 0.49801 0.0
O263 O 0.53047 0.13039 0.55234 0.0
C264 C 0.61774 0.20527 0.46742 0.0
C265 C 0.73219 0.20817 0.44773 0.0
C266 C 0.60011 0.23146 0.49827 0.0
C267 C 0.77933 0.2227 0.45246 0.0
C268 C 0.55309 0.21697 0.49357 0.0
C269 C 0.71262 0.23447 0.47682 0.0
C270 C 0.55845 0.19079 0.45555 0.0
C271 C 0.33247 0.14117 0.4609 0.0
H272 H 0.58665 0.08269 0.57273 0.0
H273 H 0.52925 0.04447 0.41284 0.0
H274 H 0.56032 0.05603 0.60007 0.0
H275 H 0.55542 0.07102 0.38522 0.0
H276 H 0.78373 0.19934 0.42721 0.0
H277 H 0.54762 0.24042 0.5172 0.0
H278 H 0.86643 0.22487 0.43575 0.0
H279 H 0.46442 0.21501 0.50859 0.0
Eu280 Eu 0.51613 0.86903 0.48867 0.0
Eu281 Eu 0.5044 0.90695 0.50538 0.0
C282 C 0.54168 0.88512 0.6203 0.0
C283 C 0.46282 0.82524 0.48389 0.0
C284 C 0.4262 0.8208 0.54118 0.0
C285 C 0.40458 0.80077 0.44484 0.0
C286 C 0.37997 0.80634 0.55018 0.0
C287 C 0.45059 0.81516 0.43587 0.0
C288 C 0.37024 0.7962 0.50209 0.0
C289 C 0.5216 0.83977 0.47303 0.0
O290 O 0.6996 0.90147 0.50768 0.0
O291 O 0.70522 0.87585 0.48683 0.0
C292 C 0.75721 0.88876 0.49797 0.0
O293 O 0.56945 0.87954 0.40181 0.0
O294 O 0.43838 0.92762 0.54659 0.0
O295 O 0.54259 0.92887 0.4658 0.0
O296 O 0.45755 0.90081 0.41004 0.0
C297 C 0.51626 0.89124 0.37765 0.0
O298 O 0.32431 0.87544 0.47767 0.0
O299 O 0.32133 0.89881 0.52282 0.0
O300 O 0.55647 0.89861 0.59702 0.0
O301 O 0.47061 0.84917 0.43536 0.0
O302 O 0.57243 0.84658 0.51839 0.0
O303 O 0.50907 0.87329 0.5885 0.0
C304 C 0.52009 0.95191 0.52143 0.0
C305 C 0.58525 0.96042 0.48049 0.0
C306 C 0.4823 0.9749 0.57767 0.0
C307 C 0.59583 0.97603 0.48709 0.0
C308 C 0.47124 0.95926 0.57098 0.0
C309 C 0.54125 0.98343 0.53458 0.0
C310 C 0.48413 0.93634 0.50595 0.0
C311 C 0.26775 0.88697 0.50044 0.0
H312 H 0.43488 0.82838 0.57897 0.0
H313 H 0.39728 0.7931 0.40725 0.0
H314 H 0.35325 0.80298 0.59461 0.0
H315 H 0.47886 0.81832 0.39145 0.0
H316 H 0.62251 0.95517 0.44138 0.0
H317 H 0.43978 0.98045 0.61466 0.0
H318 H 0.6418 0.98245 0.45348 0.0
H319 H 0.41904 0.95308 0.60279 0.0
C320 C 0.52297 0.37785 0.98501 0.0
C321 C 0.45811 0.38735 0.02333 0.0
C322 C 0.64251 0.39767 0.06501 0.0
C323 C 0.70743 0.38898 0.0235 0.0
N324 N 0.70575 0.37397 0.93327 0.0
N325 N 0.45459 0.40862 0.09052 0.0
C326 C 0.64666 0.37988 0.98061 0.0
C327 C 0.51746 0.398 0.06036 0.0
N328 N 0.46653 0.36696 0.95228 0.0
N329 N 0.69926 0.40511 0.11066 0.0
H330 H 0.36306 0.40915 0.08899 0.0
H331 H 0.49325 0.41771 0.11268 0.0
H332 H 0.79034 0.40526 0.11634 0.0
H333 H 0.6556 0.41002 0.1463 0.0
H334 H 0.51081 0.3586 0.92887 0.0
H335 H 0.37549 0.36559 0.952 0.0
H336 H 0.66429 0.36848 0.89753 0.0
H337 H 0.79449 0.37605 0.92599 0.0
C338 C 0.47168 0.64227 0.02276 0.0
C339 C 0.4066 0.64106 0.96797 0.0
C340 C 0.59067 0.64133 0.91183 0.0
C341 C 0.65497 0.64359 0.96632 0.0
N342 N 0.65764 0.64824 0.07267 0.0
N343 N 0.40089 0.64122 0.85981 0.0
C344 C 0.59562 0.64461 0.02158 0.0
C345 C 0.46528 0.64103 0.91231 0.0
N346 N 0.41514 0.64072 0.07596 0.0
N347 N 0.64976 0.63897 0.85986 0.0
H348 H 0.30942 0.64056 0.85828 0.0
H349 H 0.43697 0.64302 0.81788 0.0
H350 H 0.7411 0.63955 0.85737 0.0
H351 H 0.60945 0.63547 0.82 0.0
H352 H 0.45823 0.63997 0.11752 0.0
H353 H 0.32478 0.63891 0.07833 0.0
H354 H 0.6188 0.65068 0.11338 0.0
H355 H 0.74824 0.65005 0.07332 0.0
C356 C 0.64306 0.63909 0.52148 0.0
C357 C 0.70273 0.64102 0.46673 0.0
C358 C 0.51317 0.64413 0.41275 0.0
C359 C 0.45405 0.64336 0.46821 0.0
N360 N 0.46227 0.64232 0.57624 0.0
N361 N 0.69776 0.64703 0.36118 0.0
C362 C 0.51896 0.6414 0.52286 0.0
C363 C 0.63858 0.64401 0.41259 0.0
N364 N 0.70499 0.63473 0.57192 0.0
N365 N 0.44939 0.64432 0.36003 0.0
H366 H 0.78909 0.64637 0.3587 0.0
H367 H 0.65739 0.65109 0.32196 0.0
H368 H 0.35771 0.64453 0.35816 0.0
H369 H 0.48656 0.64313 0.31804 0.0
H370 H 0.66594 0.63161 0.61189 0.0
H371 H 0.79581 0.63302 0.57248 0.0
H372 H 0.50543 0.64254 0.61785 0.0
H373 H 0.37187 0.64419 0.57896 0.0
C374 C 0.59252 0.37979 0.47518 0.0
C375 C 0.65623 0.38692 0.52239 0.0
C376 C 0.47118 0.39339 0.57087 0.0
C377 C 0.40677 0.38798 0.52012 0.0
N378 N 0.40777 0.37752 0.42006 0.0
N379 N 0.65723 0.40226 0.61157 0.0
C380 C 0.4679 0.38153 0.47123 0.0
C381 C 0.59578 0.39436 0.56886 0.0
N382 N 0.65088 0.37121 0.43444 0.0
N383 N 0.41441 0.39646 0.62285 0.0
H384 H 0.74886 0.40258 0.61382 0.0
H385 H 0.61699 0.40936 0.6422 0.0
H386 H 0.32484 0.39463 0.62778 0.0
H387 H 0.45784 0.39903 0.66309 0.0
H388 H 0.60857 0.36433 0.40308 0.0
H389 H 0.74217 0.37 0.4349 0.0
H390 H 0.44875 0.37455 0.38045 0.0
H391 H 0.31671 0.37831 0.41514 0.0
C392 C 1.02003 0.89485 0.04476 0.0
C393 C 0.9607 0.88637 -0.00044 0.0
C394 C 0.14799 0.88193 0.94985 0.0
C395 C 0.20898 0.88897 -0.00162 0.0
N396 N 0.2043 0.90105 0.09524 0.0
N397 N 0.96794 0.8704 0.91253 0.0
C398 C 0.14532 0.89524 0.04657 0.0
C399 C 1.02478 0.87941 0.9533 0.0
N400 N 0.95627 0.90271 0.08564 0.0
N401 N 0.20684 0.87851 0.89879 0.0
H402 H 0.87723 0.86873 0.91232 0.0
H403 H 1.01154 0.86369 0.88178 0.0
H404 H 0.29533 0.8811 0.89338 0.0
H405 H 0.16584 0.87469 0.85957 0.0
H406 H 0.99257 0.91061 0.11496 0.0
H407 H 0.86502 0.90204 0.08771 0.0
H408 H 0.16381 0.90396 0.13502 0.0
H409 H 0.29547 0.90202 0.09789 0.0
C410 C 0.08302 0.14282 0.90526 0.0
C411 C 0.14735 0.1436 0.96046 0.0
C412 C 0.9638 0.14097 0.01598 0.0
C413 C 0.89883 0.14127 0.96093 0.0
N414 N 0.89336 0.14419 0.85336 0.0
N415 N 0.14986 0.14552 0.06822 0.0
C416 C 0.95763 0.14264 0.90557 0.0
C417 C 0.08789 0.14322 0.01584 0.0
N418 N 0.14199 0.14166 0.85262 0.0
N419 N 0.90696 0.13812 0.06825 0.0
H420 H 0.24049 0.1473 0.06969 0.0
H421 H 0.11096 0.14692 0.10968 0.0
H422 H 0.81637 0.13643 0.06984 0.0
H423 H 0.9499 0.13622 0.10929 0.0
H424 H 0.10134 0.13926 0.81152 0.0
H425 H 0.23343 0.14205 0.85039 0.0
H426 H 0.92958 0.14705 0.81239 0.0
H427 H 0.8019 0.14355 0.85152 0.0
C428 C 0.13752 0.14296 0.40575 0.0
C429 C 0.20167 0.14106 0.46064 0.0
C430 C 1.0179 0.14267 0.51652 0.0
C431 C 0.95303 0.14357 0.46146 0.0
N432 N 0.94817 0.14247 0.35337 0.0
N433 N 0.20396 0.13695 0.56748 0.0
C434 C 1.01209 0.1432 0.40593 0.0
C435 C 0.14202 0.1403 0.51585 0.0
N436 N 0.19675 0.14488 0.35354 0.0
N437 N 0.96108 0.14461 0.56943 0.0
H438 H 0.29473 0.13519 0.56851 0.0
H439 H 0.16502 0.13471 0.60837 0.0
H440 H 0.87062 0.1465 0.57152 0.0
H441 H 1.0041 0.14563 0.61086 0.0
H442 H 0.15649 0.14815 0.31314 0.0
H443 H 0.28806 0.14412 0.35126 0.0
H444 H 0.98507 0.14042 0.31185 0.0
H445 H 0.85651 0.14281 0.35152 0.0
C446 C 0.95153 0.89812 0.46024 0.0
C447 C 0.88835 0.88868 0.49991 0.0
C448 C 0.07489 0.87771 0.53882 0.0
C449 C 0.13719 0.88701 0.49864 0.0
N450 N 0.13795 0.90429 0.41502 0.0
N451 N 0.88757 0.86894 0.57531 0.0
C452 C 0.07635 0.89683 0.45802 0.0
C453 C 0.94954 0.8783 0.5387 0.0
N454 N 0.8921 0.9082 0.42399 0.0
N455 N 0.13635 0.86862 0.57828 0.0
H456 H 0.79734 0.86992 0.58157 0.0
H457 H 0.92397 0.85981 0.59871 0.0
H458 H 0.22709 0.86706 0.57644 0.0
H459 H 0.09951 0.86298 0.61423 0.0
H460 H 0.93217 0.91683 0.40028 0.0
H461 H 0.80097 0.9084 0.41898 0.0
H462 H 0.09949 0.91036 0.37967 0.0
H463 H 0.22902 0.9035 0.41169 0.0
C464 C 0.16813 0.52304 0.04149 0.0
C465 C 0.06322 0.53097 0.0259 0.0
C466 C 0.95524 0.50709 0.02131 0.0
C467 C 0.06296 0.4991 0.02869 0.0
N468 N 0.27453 0.49926 0.0402 0.0
N469 N 0.85859 0.53068 -0.00536 0.0
C470 C 0.17018 0.50701 0.03788 0.0
C471 C 0.95681 0.52305 0.01458 0.0
N472 N 0.26526 0.53085 0.0604 0.0
N473 N 0.85137 0.49939 0.02152 0.0
H474 H 0.8555 0.54238 -0.01056 0.0
H475 H 0.7827 0.52536 0.97885 0.0
H476 H 0.8474 0.48768 0.02642 0.0
H477 H 0.76931 0.50465 0.02238 0.0
H478 H 0.34079 0.5257 0.07827 0.0
H479 H 0.26656 0.54261 0.0631 0.0
H480 H 0.35634 0.50448 0.03976 0.0
H481 H 0.2799 0.48752 0.03823 0.0
C482 C 0.15266 0.50614 0.49082 0.0
C483 C 1.04899 0.49877 0.50925 0.0
C484 C 0.9464 0.52317 0.5155 0.0
C485 C 1.04793 0.53044 0.49381 0.0
N486 N 0.24111 0.5289 0.45151 0.0
N487 N 0.84172 0.49967 0.52984 0.0
C488 C 0.14925 0.52193 0.47872 0.0
C489 C 0.94414 0.50713 0.51889 0.0
N490 N 0.25526 0.49812 0.48673 0.0
N491 N 0.85353 0.53164 0.53447 0.0
H492 H 0.8369 0.48794 0.5332 0.0
H493 H 0.75978 0.50495 0.53087 0.0
H494 H 0.85126 0.54339 0.53148 0.0
H495 H 0.78245 0.52717 0.55709 0.0
H496 H 0.33685 0.50308 0.48031 0.0
H497 H 0.26047 0.48649 0.49407 0.0
H498 H 0.31179 0.52311 0.43337 0.0
H499 H 0.24262 0.54047 0.44276 0.0
C500 C 0.67654 1.00704 -0.00421 0.0
C501 C 0.57139 0.99914 0.00838 0.0
C502 C 0.46385 0.02311 0.01528 0.0
C503 C 0.56993 0.03102 0.00481 0.0
N504 N 0.78093 0.03086 -0.00218 0.0
N505 N 0.37194 0.99945 0.04251 0.0
C506 C 0.67759 0.02306 -0.00085 0.0
C507 C 0.46719 1.00714 0.02216 0.0
N508 N 0.77387 0.99926 0.97791 0.0
N509 N 0.35909 0.03076 0.01568 0.0
H510 H 0.37157 0.98774 0.0477 0.0
H511 H 0.29747 1.00472 0.05921 0.0
H512 H 0.35263 0.04246 0.01114 0.0
H513 H 0.27763 0.02546 0.01603 0.0
H514 H 0.84845 1.00446 0.9613 0.0
H515 H 0.77729 0.98752 0.97544 0.0
H516 H 0.86342 0.0257 -0.00016 0.0
H517 H 0.78445 0.04261 0.00014 0.0
C518 C 0.64582 0.02411 0.53955 0.0
C519 C 0.54035 0.03198 0.52368 0.0
C520 C 0.43382 1.00804 0.51757 0.0
C521 C 0.53813 1.00022 0.5358 0.0
N522 N 0.73596 1.00085 0.57634 0.0
N523 N 0.32961 0.03198 0.51069 0.0
C524 C 0.64186 1.0083 0.55074 0.0
C525 C 0.43283 0.02409 0.51697 0.0
N526 N 0.75066 0.0316 0.54108 0.0
N527 N 0.33752 1.00016 0.49786 0.0
H528 H 0.3261 0.04375 0.51003 0.0
H529 H 0.24712 0.02695 0.51173 0.0
H530 H 0.33424 0.98841 0.49737 0.0
H531 H 0.26406 1.00524 0.47748 0.0
H532 H 0.83193 0.02619 0.5454 0.0
H533 H 0.75745 0.04319 0.53357 0.0
H534 H 0.80984 1.00631 0.59385 0.0
H535 H 0.73568 0.98927 0.58497 0.0
C536 C 0.37368 0.27574 0.02792 0.0
C537 C 0.25962 0.28007 0.00703 0.0
C538 C 0.22046 0.25408 0.975 0.0
C539 C 0.33753 0.25003 -0.00828 0.0
N540 N 0.53223 0.25736 0.02486 0.0
N541 N 0.08081 0.27421 0.95217 0.0
C542 C 0.41612 0.26097 0.01564 0.0
C543 C 0.18475 0.26946 0.97808 0.0
N544 N 0.43994 0.2856 0.06116 0.0
N545 N 0.14247 0.24314 0.9579 0.0
H546 H 0.05171 0.28538 0.9537 0.0
H547 H 1.02811 0.2674 0.92493 0.0
H548 H 0.16572 0.23176 0.9549 0.0
H549 H 0.05272 0.24509 0.95142 0.0
H550 H 0.51785 0.28256 0.08355 0.0
H551 H 0.41266 0.2966 0.07027 0.0
H552 H 0.59647 0.26528 0.03577 0.0
H553 H 0.56654 0.24663 0.01694 0.0
C554 C 0.70298 0.76962 0.94719 0.0
C555 C 0.76133 0.77975 -0.01321 0.0
C556 C 0.90899 0.7603 0.01175 0.0
C557 C 0.84425 0.74978 0.97659 0.0
N558 N 0.67098 0.74362 0.91774 0.0
N559 N 0.90935 0.78431 0.06355 0.0
C560 C 0.73876 0.75422 0.94614 0.0
C561 C 0.86168 0.77499 0.02091 0.0
N562 N 0.61538 0.77484 0.90945 0.0
N563 N 1.01741 0.75642 0.03483 0.0
H564 H 0.87809 0.79521 0.07114 0.0
H565 H 0.97387 0.78086 0.09457 0.0
H566 H 0.05468 0.74573 0.02955 0.0
H567 H 0.07456 0.7641 0.05503 0.0
H568 H 0.57782 0.76842 0.87514 0.0
H569 H 0.58697 0.78606 0.90896 0.0
H570 H 0.58696 0.74583 0.90029 0.0
H571 H 0.69456 0.73224 0.91595 0.0
C572 C 0.35736 0.75414 0.53966 0.0
C573 C 0.2483 0.75036 0.51173 0.0
C574 C 0.20979 0.77713 0.4898 0.0
C575 C 0.32491 0.78064 0.51077 0.0
N576 N 0.51382 0.7725 0.55057 0.0
N577 N 0.07606 0.75787 0.45354 0.0
C578 C 0.40008 0.76917 0.53478 0.0
C579 C 0.17542 0.76176 0.48533 0.0
N580 N 0.41891 0.74342 0.57174 0.0
N581 N 0.13282 0.78852 0.47497 0.0
H582 H 1.04755 0.74676 0.44904 0.0
H583 H 1.0268 0.76548 0.42752 0.0
H584 H 0.15541 0.7999 0.47764 0.0
H585 H 1.04392 0.78679 0.46533 0.0
H586 H 0.49283 0.7458 0.59831 0.0
H587 H 0.39022 0.7323 0.57589 0.0
H588 H 0.57694 0.76434 0.56168 0.0
H589 H 0.54777 0.7834 0.5486 0.0
C590 C 0.88463 0.26963 0.52196 0.0
C591 C 0.83579 0.28039 0.48093 0.0
C592 C 0.71688 0.26063 0.43311 0.0
C593 C 0.75781 0.25018 0.47746 0.0
N594 N 0.86853 0.24494 0.56859 0.0
N595 N 0.69553 0.28684 0.40235 0.0
C596 C 0.83863 0.25473 0.52311 0.0
C597 C 0.74916 0.27608 0.43776 0.0
N598 N 0.97713 0.27357 0.55874 0.0
N599 N 0.64975 0.25566 0.38562 0.0
H600 H 0.71843 0.29822 0.40388 0.0
H601 H 0.62257 0.28473 0.37473 0.0
H602 H 0.62371 0.24445 0.38089 0.0
H603 H 0.62765 0.26233 0.34846 0.0
H604 H 1.02528 0.26585 0.58479 0.0
H605 H 1.01206 0.28443 0.55989 0.0
H606 H 0.91628 0.24807 0.60684 0.0
H607 H 0.83814 0.23386 0.57034 0.0
C608 C 0.14335 0.40022 0.24612 0.0
C609 C 1.04745 0.39435 0.21172 0.0
C610 C 0.93498 0.39112 0.30355 0.0
C611 C 1.0366 0.39474 0.33832 0.0
N612 N 0.24083 0.40223 0.34328 0.0
N613 N 0.85427 0.38302 0.20794 0.0
C614 C 0.14115 0.39942 0.30985 0.0
C615 C 0.94386 0.38947 0.24051 0.0
N616 N 0.23793 0.40629 0.21807 0.0
N617 N 0.82856 0.38998 0.33062 0.0
H618 H 0.85357 0.38224 0.16135 0.0
H619 H 0.78368 0.37756 0.22745 0.0
H620 H 0.81809 0.39195 0.37629 0.0
H621 H 0.74906 0.3888 0.3071 0.0
H622 H 0.30238 0.41263 0.24005 0.0
H623 H 0.24906 0.40583 0.17199 0.0
H624 H 0.32369 0.40354 0.32504 0.0
H625 H 0.24375 0.40226 0.38992 0.0
C626 C 0.12105 0.65421 0.18327 0.0
C627 C 1.04287 0.64413 0.1536 0.0
C628 C 0.98407 0.63355 0.2502 0.0
C629 C 0.05828 0.64409 0.27998 0.0
N630 N 0.18643 0.66566 0.27685 0.0
N631 N 0.88581 0.62602 0.15749 0.0
C632 C 0.12315 0.65484 0.24705 0.0
C633 C 0.97057 0.63427 0.18671 0.0
N634 N 0.1969 0.6627 0.15047 0.0
N635 N 0.92729 0.62278 0.28267 0.0
H636 H 0.87347 0.62625 0.11102 0.0
H637 H 0.8214 0.61989 0.17923 0.0
H638 H 0.92936 0.62242 0.32943 0.0
H639 H 0.88354 0.61365 0.26349 0.0
H640 H 0.26557 0.66893 0.16924 0.0
H641 H 0.1968 0.66271 0.1037 0.0
H642 H 0.22464 0.67486 0.25581 0.0
H643 H 0.19498 0.666 0.32349 0.0
C644 C 0.11278 0.62923 0.75192 0.0
C645 C 1.03889 0.63998 0.77966 0.0
C646 C 0.97835 0.65015 0.68126 0.0
C647 C 0.05975 0.64027 0.65388 0.0
N648 N 0.21461 0.62165 0.66216 0.0
N649 N 0.90767 0.66142 0.77281 0.0
C650 C 0.12924 0.63006 0.68889 0.0
C651 C 0.9735 0.65067 0.74488 0.0
N652 N 0.16691 0.61821 0.78587 0.0
N653 N 0.9025 0.65861 0.64631 0.0
H654 H 0.89579 0.66157 0.81906 0.0
H655 H 0.86987 0.67068 0.75077 0.0
H656 H 0.90407 0.65866 0.59959 0.0
H657 H 0.83198 0.6647 0.66306 0.0
H658 H 0.2113 0.60904 0.76784 0.0
H659 H 0.16104 0.61764 0.83243 0.0
H660 H 0.27727 0.61526 0.68577 0.0
H661 H 0.22888 0.62193 0.6161 0.0
C662 C 0.13463 0.39371 0.74159 0.0
C663 C 0.06796 0.38256 0.71086 0.0
C664 C 1.02464 0.37019 0.80665 0.0
C665 C 0.09475 0.3811 0.83679 0.0
N666 N 0.24141 0.40055 0.83239 0.0
N667 N 0.96348 0.35892 0.71206 0.0
C668 C 0.15736 0.39204 0.80398 0.0
C669 C 1.01831 0.3703 0.74275 0.0
N670 N 0.17416 0.40611 0.71158 0.0
N671 N 0.95883 0.36033 0.83903 0.0
H672 H 0.94982 0.35912 0.66568 0.0
H673 H 0.9376 0.34886 0.732 0.0
H674 H 0.96272 0.35973 0.88573 0.0
H675 H 0.89486 0.35336 0.82008 0.0
H676 H 0.21039 0.41548 0.73299 0.0
H677 H 0.1636 0.40757 0.66543 0.0
H678 H 0.29859 0.40765 0.80994 0.0
H679 H 0.26249 0.39928 0.87788 0.0
C680 C 0.60769 0.90274 0.22194 0.0
C681 C 0.53582 0.89313 0.18593 0.0
C682 C 0.44489 0.88298 0.27642 0.0
C683 C 0.5144 0.89287 0.31179 0.0
N684 N 0.63853 0.91478 0.31832 0.0
N685 N 0.36477 0.87705 0.17808 0.0
C686 C 0.58771 0.90366 0.2845 0.0
C687 C 0.44801 0.88411 0.21296 0.0
N688 N 0.70013 0.91023 0.19757 0.0
N689 N 0.37669 0.87237 0.30349 0.0
H690 H 0.36193 0.87776 0.13143 0.0
H691 H 0.29139 0.87171 0.19536 0.0
H692 H 0.36564 0.87187 0.34979 0.0
H693 H 0.3363 0.86354 0.28043 0.0
H694 H 0.76361 0.91587 0.22314 0.0
H695 H 0.72024 0.90976 0.15237 0.0
H696 H 0.68294 0.92389 0.29996 0.0
H697 H 0.62682 0.91567 0.36439 0.0
C698 C 0.62121 0.15237 0.1765 0.0
C699 C 0.5421 0.14236 0.14709 0.0
C700 C 0.48656 0.13155 0.24387 0.0
C701 C 0.55996 0.14222 0.27341 0.0
N702 N 0.68821 0.16378 0.26979 0.0
N703 N 0.38735 0.12393 0.15151 0.0
C704 C 0.62447 0.15296 0.24025 0.0
C705 C 0.47177 0.1323 0.18041 0.0
N706 N 0.69666 0.16085 0.14344 0.0
N707 N 0.43148 0.12067 0.27654 0.0
H708 H 0.37427 0.12414 0.10507 0.0
H709 H 0.3241 0.11766 0.1735 0.0
H710 H 0.43502 0.12025 0.32329 0.0
H711 H 0.38806 0.1115 0.2575 0.0
H712 H 0.76583 0.16703 0.16198 0.0
H713 H 0.69605 0.16085 0.09667 0.0
H714 H 0.72566 0.17302 0.24862 0.0
H715 H 0.6982 0.16406 0.31638 0.0
C716 C 0.61175 0.13142 0.74575 0.0
C717 C 0.53617 0.14204 0.77308 0.0
C718 C 0.47866 0.15236 0.67446 0.0
C719 C 0.56022 0.14243 0.6475 0.0
N720 N 0.71639 0.12401 0.65667 0.0
N721 N 0.40601 0.16358 0.76573 0.0
C722 C 0.62975 0.13231 0.6829 0.0
C723 C 0.47222 0.15283 0.73806 0.0
N724 N 0.66583 0.12044 0.7799 0.0
N725 N 0.40393 0.16089 0.63913 0.0
H726 H 0.3934 0.16373 0.81193 0.0
H727 H 0.36886 0.17287 0.74357 0.0
H728 H 0.40692 0.16101 0.59244 0.0
H729 H 0.33317 0.167 0.6555 0.0
H730 H 0.71101 0.11131 0.76204 0.0
H731 H 0.65947 0.11987 0.82643 0.0
H732 H 0.77894 0.11768 0.68062 0.0
H733 H 0.73207 0.12438 0.61075 0.0
C734 C 0.47396 0.8765 0.72151 0.0
C735 C 0.56174 0.88326 0.68596 0.0
C736 C 0.68037 0.88834 0.77687 0.0
C737 C 0.59479 0.88094 0.8114 0.0
N738 N 0.42795 0.8644 0.81568 0.0
N739 N 0.76045 0.89266 0.67861 0.0
C740 C 0.49782 0.87375 0.78328 0.0
C741 C 0.66871 0.88832 0.71327 0.0
N742 N 0.36449 0.87381 0.69763 0.0
N743 N 0.77156 0.89564 0.80498 0.0
H744 H 0.75614 0.89283 0.63194 0.0
H745 H 0.84445 0.89485 0.69583 0.0
H746 H 0.78666 0.89507 0.85127 0.0
H747 H 0.82848 0.90285 0.78293 0.0
H748 H 0.29392 0.87025 0.72306 0.0
H749 H 0.34034 0.87686 0.65392 0.0
H750 H 0.36219 0.85777 0.79621 0.0
H751 H 0.44338 0.86217 0.86116 0.0
loop_
_geom_bond_atom_site_label_1
_geom_bond_atom_site_label_2
_geom_bond_distance
_geom_bond_site_symmetry_2
_ccdc_geom_bond_type
Eu0 C9 2.828 . S
Eu0 O11 2.392 1_455 S
Eu0 O13 2.418 . S
Eu0 O18 2.373 . S
Eu0 O21 2.488 . S
Eu0 O22 2.471 1_554 S
Eu0 O23 2.349 1_554 S
Eu1 O10 2.373 1_455 S
Eu1 O14 2.488 . S
Eu1 O15 2.471 1_556 S
Eu1 O16 2.349 1_556 S
Eu1 O19 2.392 . S
Eu1 O20 2.418 . S
Eu1 C30 2.828 1_456 S
C2 O20 1.244 . S
C2 O23 1.265 . S
C3 C4 1.379 . S
C3 C7 1.373 1_556 S
C3 C9 1.505 1_556 S
C4 C3 1.379 . S
C4 C6 1.369 . S
C4 H32 0.930 . S
C5 C7 1.383 . S
C5 C8 1.382 1_554 S
C5 H33 0.930 . S
C6 C4 1.369 . S
C6 C8 1.392 . S
C6 H34 0.930 . S
C7 C3 1.373 1_554 S
C7 C5 1.383 . S
C7 H35 0.931 . S
C8 C5 1.382 1_556 S
C8 C6 1.392 . S
C9 Eu0 2.828 . S
C9 C3 1.505 1_554 S
C9 O21 1.249 . S
C9 O22 1.244 1_554 S
O10 Eu1 2.373 1_655 S
O10 C12 1.258 1_556 S
O11 Eu0 2.392 1_655 S
O11 C12 1.242 . S
C12 O10 1.258 1_554 S
C12 O11 1.242 . S
O13 Eu0 2.418 . S
O13 C17 1.244 . S
O14 Eu1 2.488 . S
O14 C30 1.249 1_456 S
O15 Eu1 2.471 1_554 S
O15 C30 1.244 1_455 S
O16 Eu1 2.349 1_554 S
O16 C17 1.265 . S
C17 O13 1.244 . S
C17 O16 1.265 . S
O18 Eu0 2.373 . S
O18 C31 1.258 . S
O19 Eu1 2.392 . S
O19 C31 1.242 1_556 S
O20 Eu1 2.418 . S
O20 C2 1.244 . S
O21 Eu0 2.488 . S
O21 C9 1.249 . S
O22 Eu0 2.471 1_556 S
O22 C9 1.244 1_556 S
O23 Eu0 2.349 1_556 S
O23 C2 1.265 . S
C24 C25 1.379 . S
C24 C28 1.373 1_554 S
C24 C30 1.505 . S
C25 C24 1.379 . S
C25 C27 1.369 . S
C25 H36 0.930 . S
C26 C28 1.383 . S
C26 C29 1.382 1_556 S
C26 H37 0.930 . S
C27 C25 1.369 . S
C27 C29 1.392 . S
C27 H38 0.930 . S
C28 C24 1.373 1_556 S
C28 C26 1.383 . S
C28 H39 0.931 . S
C29 C26 1.382 1_554 S
C29 C27 1.392 . S
C30 Eu1 2.828 1_654 S
C30 O14 1.249 1_654 S
C30 O15 1.244 1_655 S
C30 C24 1.505 . S
C31 O18 1.258 . S
C31 O19 1.242 1_554 S
H32 C4 0.930 . S
H33 C5 0.930 . S
H34 C6 0.930 . S
H35 C7 0.931 . S
H36 C25 0.930 . S
H37 C26 0.930 . S
H38 C27 0.930 . S
H39 C28 0.931 . S
Eu40 C49 2.828 1_655 S
Eu40 O51 2.392 . S
Eu40 O53 2.418 . S
Eu40 O58 2.373 1_655 S
Eu40 O61 2.488 . S
Eu40 O62 2.471 1_554 S
Eu40 O63 2.349 1_554 S
Eu41 O50 2.373 . S
Eu41 O54 2.488 . S
Eu41 O55 2.471 1_556 S
Eu41 O56 2.349 1_556 S
Eu41 O59 2.392 1_655 S
Eu41 O60 2.418 . S
Eu41 C70 2.828 1_556 S
C42 O60 1.244 . S
C42 O63 1.265 . S
C43 C44 1.379 . S
C43 C47 1.373 1_556 S
C43 C49 1.505 1_556 S
C44 C43 1.379 . S
C44 C46 1.369 . S
C44 H72 0.930 . S
C45 C47 1.383 . S
C45 C48 1.382 1_554 S
C45 H73 0.930 . S
C46 C44 1.369 . S
C46 C48 1.392 . S
C46 H74 0.930 . S
C47 C43 1.373 1_554 S
C47 C45 1.383 . S
C47 H75 0.931 . S
C48 C45 1.382 1_556 S
C48 C46 1.392 . S
C49 Eu40 2.828 1_455 S
C49 C43 1.505 1_554 S
C49 O61 1.249 1_455 S
C49 O62 1.244 1_454 S
O50 Eu41 2.373 . S
O50 C52 1.257 1_556 S
O51 Eu40 2.392 . S
O51 C52 1.243 . S
C52 O50 1.257 1_554 S
C52 O51 1.243 . S
O53 Eu40 2.418 . S
O53 C57 1.244 . S
O54 Eu41 2.488 . S
O54 C70 1.249 1_556 S
O55 Eu41 2.471 1_554 S
O55 C70 1.244 . S
O56 Eu41 2.349 1_554 S
O56 C57 1.265 . S
C57 O53 1.244 . S
C57 O56 1.265 . S
O58 Eu40 2.373 1_455 S
O58 C71 1.258 . S
O59 Eu41 2.392 1_455 S
O59 C71 1.242 1_556 S
O60 Eu41 2.418 . S
O60 C42 1.244 . S
O61 Eu40 2.488 . S
O61 C49 1.249 1_655 S
O62 Eu40 2.471 1_556 S
O62 C49 1.244 1_656 S
O63 Eu40 2.349 1_556 S
O63 C42 1.265 . S
C64 C65 1.379 . S
C64 C68 1.373 1_554 S
C64 C70 1.505 . S
C65 C64 1.379 . S
C65 C67 1.369 . S
C65 H76 0.930 . S
C66 C68 1.383 . S
C66 C69 1.382 1_556 S
C66 H77 0.930 . S
C67 C65 1.369 . S
C67 C69 1.392 . S
C67 H78 0.930 . S
C68 C64 1.373 1_556 S
C68 C66 1.383 . S
C68 H79 0.931 . S
C69 C66 1.382 1_554 S
C69 C67 1.392 . S
C70 Eu41 2.828 1_554 S
C70 O54 1.249 1_554 S
C70 O55 1.244 . S
C70 C64 1.505 . S
C71 O58 1.258 . S
C71 O59 1.242 1_554 S
H72 C44 0.930 . S
H73 C45 0.930 . S
H74 C46 0.930 . S
H75 C47 0.931 . S
H76 C65 0.930 . S
H77 C66 0.930 . S
H78 C67 0.930 . S
H79 C68 0.931 . S
Eu80 C89 2.828 1_455 S
Eu80 O91 2.392 . S
Eu80 O93 2.418 . S
Eu80 O98 2.373 1_455 S
Eu80 O101 2.488 . S
Eu80 O102 2.471 . S
Eu80 O103 2.349 . S
Eu81 O90 2.373 . S
Eu81 O94 2.488 . S
Eu81 O95 2.471 . S
Eu81 O96 2.349 . S
Eu81 O99 2.392 1_455 S
Eu81 O100 2.418 . S
Eu81 C110 2.828 . S
C82 O100 1.244 . S
C82 O103 1.265 . S
C83 C84 1.379 . S
C83 C87 1.373 . S
C83 C89 1.505 . S
C84 C83 1.379 . S
C84 C86 1.369 . S
C84 H112 0.930 . S
C85 C87 1.383 . S
C85 C88 1.382 . S
C85 H113 0.930 . S
C86 C84 1.369 . S
C86 C88 1.392 . S
C86 H114 0.930 . S
C87 C83 1.373 . S
C87 C85 1.383 . S
C87 H115 0.931 . S
C88 C85 1.382 . S
C88 C86 1.392 . S
C89 Eu80 2.828 1_655 S
C89 C83 1.505 . S
C89 O101 1.249 1_655 S
C89 O102 1.244 1_655 S
O90 Eu81 2.373 . S
O90 C92 1.258 . S
O91 Eu80 2.392 . S
O91 C92 1.242 . S
C92 O90 1.258 . S
C92 O91 1.242 . S
O93 Eu80 2.418 . S
O93 C97 1.244 . S
O94 Eu81 2.488 . S
O94 C110 1.249 . S
O95 Eu81 2.471 . S
O95 C110 1.244 . S
O96 Eu81 2.349 . S
O96 C97 1.265 . S
C97 O93 1.244 . S
C97 O96 1.265 . S
O98 Eu80 2.373 1_655 S
O98 C111 1.258 . S
O99 Eu81 2.392 1_655 S
O99 C111 1.242 . S
O100 Eu81 2.418 . S
O100 C82 1.244 . S
O101 Eu80 2.488 . S
O101 C89 1.249 1_455 S
O102 Eu80 2.471 . S
O102 C89 1.244 1_455 S
O103 Eu80 2.349 . S
O103 C82 1.265 . S
C104 C105 1.379 . S
C104 C108 1.373 . S
C104 C110 1.505 . S
C105 C104 1.379 . S
C105 C107 1.369 . S
C105 H116 0.930 . S
C106 C108 1.383 . S
C106 C109 1.382 . S
C106 H117 0.930 . S
C107 C105 1.369 . S
C107 C109 1.392 . S
C107 H118 0.930 . S
C108 C104 1.373 . S
C108 C106 1.383 . S
C108 H119 0.931 . S
C109 C106 1.382 . S
C109 C107 1.392 . S
C110 Eu81 2.828 . S
C110 O94 1.249 . S
C110 O95 1.244 . S
C110 C104 1.505 . S
C111 O98 1.258 . S
C111 O99 1.242 . S
H112 C84 0.930 . S
H113 C85 0.930 . S
H114 C86 0.930 . S
H115 C87 0.931 . S
H116 C105 0.930 . S
H117 C106 0.930 . S
H118 C107 0.930 . S
H119 C108 0.931 . S
Eu120 C129 2.828 . S
Eu120 O131 2.392 1_655 S
Eu120 O133 2.418 . S
Eu120 O138 2.373 . S
Eu120 O141 2.488 . S
Eu120 O142 2.471 . S
Eu120 O143 2.349 . S
Eu121 O130 2.373 1_655 S
Eu121 O134 2.488 . S
Eu121 O135 2.471 . S
Eu121 O136 2.349 . S
Eu121 O139 2.392 . S
Eu121 O140 2.418 . S
Eu121 C150 2.828 1_655 S
C122 O140 1.244 . S
C122 O143 1.265 . S
C123 C124 1.379 . S
C123 C127 1.373 . S
C123 C129 1.505 . S
C124 C123 1.379 . S
C124 C126 1.369 . S
C124 H152 0.930 . S
C125 C127 1.383 . S
C125 C128 1.382 . S
C125 H153 0.930 . S
C126 C124 1.369 . S
C126 C128 1.392 . S
C126 H154 0.930 . S
C127 C123 1.373 . S
C127 C125 1.383 . S
C127 H155 0.931 . S
C128 C125 1.382 . S
C128 C126 1.392 . S
C129 Eu120 2.828 . S
C129 C123 1.505 . S
C129 O141 1.249 . S
C129 O142 1.244 . S
O130 Eu121 2.373 1_455 S
O130 C132 1.258 . S
O131 Eu120 2.392 1_455 S
O131 C132 1.242 . S
C132 O130 1.258 . S
C132 O131 1.242 . S
O133 Eu120 2.418 . S
O133 C137 1.244 . S
O134 Eu121 2.488 . S
O134 C150 1.249 1_655 S
O135 Eu121 2.471 . S
O135 C150 1.244 1_655 S
O136 Eu121 2.349 . S
O136 C137 1.265 . S
C137 O133 1.244 . S
C137 O136 1.265 . S
O138 Eu120 2.373 . S
O138 C151 1.258 . S
O139 Eu121 2.392 . S
O139 C151 1.242 . S
O140 Eu121 2.418 . S
O140 C122 1.244 . S
O141 Eu120 2.488 . S
O141 C129 1.249 . S
O142 Eu120 2.471 . S
O142 C129 1.244 . S
O143 Eu120 2.349 . S
O143 C122 1.265 . S
C144 C145 1.379 . S
C144 C148 1.373 . S
C144 C150 1.505 . S
C145 C144 1.379 . S
C145 C147 1.369 . S
C145 H156 0.930 . S
C146 C148 1.383 . S
C146 C149 1.382 . S
C146 H157 0.930 . S
C147 C145 1.369 . S
C147 C149 1.392 . S
C147 H158 0.930 . S
C148 C144 1.373 . S
C148 C146 1.383 . S
C148 H159 0.931 . S
C149 C146 1.382 . S
C149 C147 1.392 . S
C150 Eu121 2.828 1_455 S
C150 O134 1.249 1_455 S
C150 O135 1.244 1_455 S
C150 C144 1.505 . S
C151 O138 1.258 . S
C151 O139 1.242 . S
H152 C124 0.930 . S
H153 C125 0.930 . S
H154 C126 0.930 . S
H155 C127 0.931 . S
H156 C145 0.930 . S
H157 C146 0.930 . S
H158 C147 0.930 . S
H159 C148 0.931 . S
Eu160 C169 2.828 . S
Eu160 O171 2.392 . S
Eu160 O173 2.418 . S
Eu160 O178 2.373 . S
Eu160 O181 2.488 . S
Eu160 O182 2.471 1_554 S
Eu160 O183 2.349 1_554 S
Eu161 O170 2.373 . S
Eu161 O174 2.488 . S
Eu161 O175 2.471 1_556 S
Eu161 O176 2.349 1_556 S
Eu161 O179 2.392 . S
Eu161 O180 2.418 . S
Eu161 C190 2.828 1_556 S
C162 O180 1.244 . S
C162 O183 1.265 . S
C163 C164 1.379 . S
C163 C167 1.373 1_556 S
C163 C169 1.505 1_556 S
C164 C163 1.379 . S
C164 C166 1.369 . S
C164 H192 0.930 . S
C165 C167 1.383 . S
C165 C168 1.382 1_554 S
C165 H193 0.930 . S
C166 C164 1.369 . S
C166 C168 1.392 . S
C166 H194 0.930 . S
C167 C163 1.373 1_554 S
C167 C165 1.383 . S
C167 H195 0.931 . S
C168 C165 1.382 1_556 S
C168 C166 1.392 . S
C169 Eu160 2.828 . S
C169 C163 1.505 1_554 S
C169 O181 1.249 . S
C169 O182 1.244 1_554 S
O170 Eu161 2.373 . S
O170 C172 1.258 1_556 S
O171 Eu160 2.392 . S
O171 C172 1.242 . S
C172 O170 1.258 1_554 S
C172 O171 1.242 . S
O173 Eu160 2.418 . S
O173 C177 1.244 . S
O174 Eu161 2.488 . S
O174 C190 1.249 1_556 S
O175 Eu161 2.471 1_554 S
O175 C190 1.244 . S
O176 Eu161 2.349 1_554 S
O176 C177 1.265 . S
C177 O173 1.244 . S
C177 O176 1.265 . S
O178 Eu160 2.373 . S
O178 C191 1.258 . S
O179 Eu161 2.392 . S
O179 C191 1.242 1_556 S
O180 Eu161 2.418 . S
O180 C162 1.244 . S
O181 Eu160 2.488 . S
O181 C169 1.249 . S
O182 Eu160 2.471 1_556 S
O182 C169 1.244 1_556 S
O183 Eu160 2.349 1_556 S
O183 C162 1.265 . S
C184 C185 1.379 . S
C184 C188 1.373 1_554 S
C184 C190 1.505 . S
C185 C184 1.379 . S
C185 C187 1.369 . S
C185 H196 0.930 . S
C186 C188 1.383 . S
C186 C189 1.382 1_556 S
C186 H197 0.930 . S
C187 C185 1.369 . S
C187 C189 1.392 . S
C187 H198 0.930 . S
C188 C184 1.373 1_556 S
C188 C186 1.383 . S
C188 H199 0.931 . S
C189 C186 1.382 1_554 S
C189 C187 1.392 . S
C190 Eu161 2.828 1_554 S
C190 O174 1.249 1_554 S
C190 O175 1.244 . S
C190 C184 1.505 . S
C191 O178 1.258 . S
C191 O179 1.242 1_554 S
H192 C164 0.930 . S
H193 C165 0.930 . S
H194 C166 0.930 . S
H195 C167 0.931 . S
H196 C185 0.930 . S
H197 C186 0.930 . S
H198 C187 0.930 . S
H199 C188 0.931 . S
Eu200 C209 2.828 . S
Eu200 O211 2.392 . S
Eu200 O213 2.418 . S
Eu200 O218 2.373 . S
Eu200 O221 2.488 . S
Eu200 O222 2.471 1_554 S
Eu200 O223 2.349 1_554 S
Eu201 O210 2.373 . S
Eu201 O214 2.488 . S
Eu201 O215 2.471 1_556 S
Eu201 O216 2.349 1_556 S
Eu201 O219 2.392 . S
Eu201 O220 2.418 . S
Eu201 C230 2.828 1_556 S
C202 O220 1.244 . S
C202 O223 1.265 . S
C203 C204 1.379 . S
C203 C207 1.373 1_556 S
C203 C209 1.505 1_556 S
C204 C203 1.379 . S
C204 C206 1.369 . S
C204 H232 0.930 . S
C205 C207 1.383 . S
C205 C208 1.382 1_554 S
C205 H233 0.930 . S
C206 C204 1.369 . S
C206 C208 1.392 . S
C206 H234 0.930 . S
C207 C203 1.373 1_554 S
C207 C205 1.383 . S
C207 H235 0.931 . S
C208 C205 1.382 1_556 S
C208 C206 1.392 . S
C209 Eu200 2.828 . S
C209 C203 1.505 1_554 S
C209 O221 1.249 . S
C209 O222 1.244 1_554 S
O210 Eu201 2.373 . S
O210 C212 1.257 1_556 S
O211 Eu200 2.392 . S
O211 C212 1.243 . S
C212 O210 1.257 1_554 S
C212 O211 1.243 . S
O213 Eu200 2.418 . S
O213 C217 1.244 . S
O214 Eu201 2.488 . S
O214 C230 1.249 1_556 S
O215 Eu201 2.471 1_554 S
O215 C230 1.244 . S
O216 Eu201 2.349 1_554 S
O216 C217 1.265 . S
C217 O213 1.244 . S
C217 O216 1.265 . S
O218 Eu200 2.373 . S
O218 C231 1.258 . S
O219 Eu201 2.392 . S
O219 C231 1.242 1_556 S
O220 Eu201 2.418 . S
O220 C202 1.244 . S
O221 Eu200 2.488 . S
O221 C209 1.249 . S
O222 Eu200 2.471 1_556 S
O222 C209 1.244 1_556 S
O223 Eu200 2.349 1_556 S
O223 C202 1.265 . S
C224 C225 1.379 . S
C224 C228 1.373 1_554 S
C224 C230 1.505 . S
C225 C224 1.379 . S
C225 C227 1.369 . S
C225 H236 0.930 . S
C226 C228 1.383 . S
C226 C229 1.382 1_556 S
C226 H237 0.930 . S
C227 C225 1.369 . S
C227 C229 1.392 . S
C227 H238 0.930 . S
C228 C224 1.373 1_556 S
C228 C226 1.383 . S
C228 H239 0.931 . S
C229 C226 1.382 1_554 S
C229 C227 1.392 . S
C230 Eu201 2.828 1_554 S
C230 O214 1.249 1_554 S
C230 O215 1.244 . S
C230 C224 1.505 . S
C231 O218 1.258 . S
C231 O219 1.242 1_554 S
H232 C204 0.930 . S
H233 C205 0.930 . S
H234 C206 0.930 . S
H235 C207 0.931 . S
H236 C225 0.930 . S
H237 C226 0.930 . S
H238 C227 0.930 . S
H239 C228 0.931 . S
Eu240 C249 2.828 . S
Eu240 O251 2.392 . S
Eu240 O253 2.418 . S
Eu240 O258 2.373 . S
Eu240 O261 2.488 . S
Eu240 O262 2.471 . S
Eu240 O263 2.349 . S
Eu241 O250 2.373 . S
Eu241 O254 2.488 . S
Eu241 O255 2.471 . S
Eu241 O256 2.349 . S
Eu241 O259 2.392 . S
Eu241 O260 2.418 . S
Eu241 C270 2.828 . S
C242 O260 1.244 . S
C242 O263 1.265 . S
C243 C244 1.379 . S
C243 C247 1.373 . S
C243 C249 1.505 . S
C244 C243 1.379 . S
C244 C246 1.369 . S
C244 H272 0.930 . S
C245 C247 1.383 . S
C245 C248 1.382 . S
C245 H273 0.930 . S
C246 C244 1.369 . S
C246 C248 1.392 . S
C246 H274 0.930 . S
C247 C243 1.373 . S
C247 C245 1.383 . S
C247 H275 0.931 . S
C248 C245 1.382 . S
C248 C246 1.392 . S
C249 Eu240 2.828 . S
C249 C243 1.505 . S
C249 O261 1.249 . S
C249 O262 1.244 . S
O250 Eu241 2.373 . S
O250 C252 1.258 . S
O251 Eu240 2.392 . S
O251 C252 1.242 . S
C252 O250 1.258 . S
C252 O251 1.242 . S
O253 Eu240 2.418 . S
O253 C257 1.244 . S
O254 Eu241 2.488 . S
O254 C270 1.249 . S
O255 Eu241 2.471 . S
O255 C270 1.244 . S
O256 Eu241 2.349 . S
O256 C257 1.265 . S
C257 O253 1.244 . S
C257 O256 1.265 . S
O258 Eu240 2.373 . S
O258 C271 1.258 . S
O259 Eu241 2.392 . S
O259 C271 1.242 . S
O260 Eu241 2.418 . S
O260 C242 1.244 . S
O261 Eu240 2.488 . S
O261 C249 1.249 . S
O262 Eu240 2.471 . S
O262 C249 1.244 . S
O263 Eu240 2.349 . S
O263 C242 1.265 . S
C264 C265 1.379 . S
C264 C268 1.373 . S
C264 C270 1.505 . S
C265 C264 1.379 . S
C265 C267 1.369 . S
C265 H276 0.930 . S
C266 C268 1.383 . S
C266 C269 1.382 . S
C266 H277 0.930 . S
C267 C265 1.369 . S
C267 C269 1.392 . S
C267 H278 0.930 . S
C268 C264 1.373 . S
C268 C266 1.383 . S
C268 H279 0.931 . S
C269 C266 1.382 . S
C269 C267 1.392 . S
C270 Eu241 2.828 . S
C270 O254 1.249 . S
C270 O255 1.244 . S
C270 C264 1.505 . S
C271 O258 1.258 . S
C271 O259 1.242 . S
H272 C244 0.930 . S
H273 C245 0.930 . S
H274 C246 0.930 . S
H275 C247 0.931 . S
H276 C265 0.930 . S
H277 C266 0.930 . S
H278 C267 0.930 . S
H279 C268 0.931 . S
Eu280 C289 2.828 . S
Eu280 O291 2.392 . S
Eu280 O293 2.418 . S
Eu280 O298 2.373 . S
Eu280 O301 2.488 . S
Eu280 O302 2.471 . S
Eu280 O303 2.349 . S
Eu281 O290 2.373 . S
Eu281 O294 2.488 . S
Eu281 O295 2.471 . S
Eu281 O296 2.349 . S
Eu281 O299 2.392 . S
Eu281 O300 2.418 . S
Eu281 C310 2.828 . S
C282 O300 1.244 . S
C282 O303 1.265 . S
C283 C284 1.379 . S
C283 C287 1.373 . S
C283 C289 1.505 . S
C284 C283 1.379 . S
C284 C286 1.369 . S
C284 H312 0.930 . S
C285 C287 1.383 . S
C285 C288 1.382 . S
C285 H313 0.930 . S
C286 C284 1.369 . S
C286 C288 1.392 . S
C286 H314 0.930 . S
C287 C283 1.373 . S
C287 C285 1.383 . S
C287 H315 0.931 . S
C288 C285 1.382 . S
C288 C286 1.392 . S
C289 Eu280 2.828 . S
C289 C283 1.505 . S
C289 O301 1.249 . S
C289 O302 1.244 . S
O290 Eu281 2.373 . S
O290 C292 1.258 . S
O291 Eu280 2.392 . S
O291 C292 1.242 . S
C292 O290 1.258 . S
C292 O291 1.242 . S
O293 Eu280 2.418 . S
O293 C297 1.244 . S
O294 Eu281 2.488 . S
O294 C310 1.249 . S
O295 Eu281 2.471 . S
O295 C310 1.244 . S
O296 Eu281 2.349 . S
O296 C297 1.265 . S
C297 O293 1.244 . S
C297 O296 1.265 . S
O298 Eu280 2.373 . S
O298 C311 1.258 . S
O299 Eu281 2.392 . S
O299 C311 1.242 . S
O300 Eu281 2.418 . S
O300 C282 1.244 . S
O301 Eu280 2.488 . S
O301 C289 1.249 . S
O302 Eu280 2.471 . S
O302 C289 1.244 . S
O303 Eu280 2.349 . S
O303 C282 1.265 . S
C304 C305 1.379 . S
C304 C308 1.373 . S
C304 C310 1.505 . S
C305 C304 1.379 . S
C305 C307 1.369 . S
C305 H316 0.930 . S
C306 C308 1.383 . S
C306 C309 1.382 . S
C306 H317 0.930 . S
C307 C305 1.369 . S
C307 C309 1.392 . S
C307 H318 0.930 . S
C308 C304 1.373 . S
C308 C306 1.383 . S
C308 H319 0.931 . S
C309 C306 1.382 . S
C309 C307 1.392 . S
C310 Eu281 2.828 . S
C310 O294 1.249 . S
C310 O295 1.244 . S
C310 C304 1.505 . S
C311 O298 1.258 . S
C311 O299 1.242 . S
H312 C284 0.930 . S
H313 C285 0.930 . S
H314 C286 0.930 . S
H315 C287 0.931 . S
H316 C305 0.930 . S
H317 C306 0.930 . S
H318 C307 0.930 . S
H319 C308 0.931 . S
C320 C321 1.363 1_556 S
C320 C326 1.379 . S
C320 N328 1.356 . S
C321 C320 1.363 1_554 S
C321 C327 1.363 . S
C322 C323 1.363 . S
C322 C327 1.379 . S
C322 N329 1.356 . S
C323 C322 1.363 . S
C323 C326 1.363 1_554 S
N324 C326 1.356 . S
N324 H336 0.984 . S
N324 H337 0.985 . S
N325 C327 1.356 . S
N325 H330 0.984 . S
N325 H331 0.985 . S
C326 C320 1.379 . S
C326 C323 1.363 1_556 S
C326 N324 1.356 . S
C327 C321 1.363 . S
C327 C322 1.379 . S
C327 N325 1.356 . S
N328 C320 1.356 . S
N328 H334 0.984 . S
N328 H335 0.984 . S
N329 C322 1.356 . S
N329 H332 0.984 . S
N329 H333 0.985 . S
H330 N325 0.984 . S
H331 N325 0.985 . S
H332 N329 0.984 . S
H333 N329 0.985 . S
H334 N328 0.984 . S
H335 N328 0.984 . S
H336 N324 0.984 . S
H337 N324 0.985 . S
C338 C339 1.363 . S
C338 C344 1.379 . S
C338 N346 1.356 . S
C339 C338 1.363 . S
C339 C345 1.363 1_554 S
C340 C341 1.363 1_556 S
C340 C345 1.379 . S
C340 N347 1.356 . S
C341 C340 1.363 1_554 S
C341 C344 1.363 . S
N342 C344 1.356 . S
N342 H354 0.984 . S
N342 H355 0.985 . S
N343 C345 1.356 . S
N343 H348 0.984 . S
N343 H349 0.985 . S
C344 C338 1.379 . S
C344 C341 1.363 . S
C344 N342 1.356 . S
C345 C339 1.363 1_556 S
C345 C340 1.379 . S
C345 N343 1.356 . S
N346 C338 1.356 . S
N346 H352 0.984 . S
N346 H353 0.984 . S
N347 C340 1.356 . S
N347 H350 0.984 . S
N347 H351 0.985 . S
H348 N343 0.984 . S
H349 N343 0.985 . S
H350 N347 0.984 . S
H351 N347 0.985 . S
H352 N346 0.984 . S
H353 N346 0.984 . S
H354 N342 0.984 . S
H355 N342 0.985 . S
C356 C357 1.363 . S
C356 C362 1.379 . S
C356 N364 1.356 . S
C357 C356 1.363 . S
C357 C363 1.363 . S
C358 C359 1.363 . S
C358 C363 1.379 . S
C358 N365 1.356 . S
C359 C358 1.363 . S
C359 C362 1.363 . S
N360 C362 1.356 . S
N360 H372 0.984 . S
N360 H373 0.985 . S
N361 C363 1.356 . S
N361 H366 0.984 . S
N361 H367 0.985 . S
C362 C356 1.379 . S
C362 C359 1.363 . S
C362 N360 1.356 . S
C363 C357 1.363 . S
C363 C358 1.379 . S
C363 N361 1.356 . S
N364 C356 1.356 . S
N364 H370 0.984 . S
N364 H371 0.984 . S
N365 C358 1.356 . S
N365 H368 0.984 . S
N365 H369 0.985 . S
H366 N361 0.984 . S
H367 N361 0.985 . S
H368 N365 0.984 . S
H369 N365 0.985 . S
H370 N364 0.984 . S
H371 N364 0.984 . S
H372 N360 0.984 . S
H373 N360 0.985 . S
C374 C375 1.363 . S
C374 C380 1.379 . S
C374 N382 1.356 . S
C375 C374 1.363 . S
C375 C381 1.363 . S
C376 C377 1.363 . S
C376 C381 1.379 . S
C376 N383 1.356 . S
C377 C376 1.363 . S
C377 C380 1.363 . S
N378 C380 1.356 . S
N378 H390 0.984 . S
N378 H391 0.985 . S
N379 C381 1.356 . S
N379 H384 0.984 . S
N379 H385 0.985 . S
C380 C374 1.379 . S
C380 C377 1.363 . S
C380 N378 1.356 . S
C381 C375 1.363 . S
C381 C376 1.379 . S
C381 N379 1.356 . S
N382 C374 1.356 . S
N382 H388 0.984 . S
N382 H389 0.984 . S
N383 C376 1.356 . S
N383 H386 0.984 . S
N383 H387 0.985 . S
H384 N379 0.984 . S
H385 N379 0.985 . S
H386 N383 0.984 . S
H387 N383 0.985 . S
H388 N382 0.984 . S
H389 N382 0.984 . S
H390 N378 0.984 . S
H391 N378 0.985 . S
C392 C393 1.365 . S
C392 C398 1.374 1_655 S
C392 N400 1.360 . S
C393 C392 1.365 . S
C393 C399 1.363 1_654 S
C394 C395 1.363 1_556 S
C394 C399 1.379 . S
C394 N401 1.356 . S
C395 C394 1.363 1_554 S
C395 C398 1.363 . S
N396 C398 1.356 . S
N396 H408 0.984 . S
N396 H409 0.985 . S
N397 C399 1.356 1_655 S
N397 H402 0.984 . S
N397 H403 0.985 . S
C398 C392 1.374 1_455 S
C398 C395 1.363 . S
C398 N396 1.356 . S
C399 C393 1.363 1_456 S
C399 C394 1.379 . S
C399 N397 1.356 1_455 S
N400 C392 1.360 . S
N400 H406 0.984 . S
N400 H407 0.984 . S
N401 C394 1.356 . S
N401 H404 0.984 . S
N401 H405 0.985 . S
H402 N397 0.984 . S
H403 N397 0.985 . S
H404 N401 0.984 . S
H405 N401 0.985 . S
H406 N400 0.984 . S
H407 N400 0.984 . S
H408 N396 0.984 . S
H409 N396 0.985 . S
C410 C411 1.363 1_656 S
C410 C416 1.379 . S
C410 N418 1.356 1_655 S
C411 C410 1.363 1_454 S
C411 C417 1.363 . S
C412 C413 1.363 . S
C412 C417 1.379 1_655 S
C412 N419 1.356 . S
C413 C412 1.363 . S
C413 C416 1.363 1_554 S
N414 C416 1.356 . S
N414 H426 0.984 . S
N414 H427 0.985 . S
N415 C417 1.356 . S
N415 H420 0.984 . S
N415 H421 0.985 . S
C416 C410 1.379 . S
C416 C413 1.363 1_556 S
C416 N414 1.356 . S
C417 C411 1.363 . S
C417 C412 1.379 1_455 S
C417 N415 1.356 . S
N418 C410 1.356 1_455 S
N418 H424 0.984 . S
N418 H425 0.984 . S
N419 C412 1.356 . S
N419 H422 0.984 . S
N419 H423 0.985 . S
H420 N415 0.984 . S
H421 N415 0.985 . S
H422 N419 0.984 . S
H423 N419 0.985 . S
H424 N418 0.984 . S
H425 N418 0.984 . S
H426 N414 0.984 . S
H427 N414 0.985 . S
C428 C429 1.363 . S
C428 C434 1.379 . S
C428 N436 1.356 . S
C429 C428 1.363 . S
C429 C435 1.363 . S
C430 C431 1.363 . S
C430 C435 1.379 1_655 S
C430 N437 1.356 . S
C431 C430 1.363 . S
C431 C434 1.363 1_655 S
N432 C434 1.356 1_655 S
N432 H444 0.984 . S
N432 H445 0.985 . S
N433 C435 1.356 . S
N433 H438 0.984 . S
N433 H439 0.985 . S
C434 C428 1.379 . S
C434 C431 1.363 1_455 S
C434 N432 1.356 1_455 S
C435 C429 1.363 . S
C435 C430 1.379 1_455 S
C435 N433 1.356 . S
N436 C428 1.356 . S
N436 H442 0.984 . S
N436 H443 0.984 . S
N437 C430 1.356 . S
N437 H440 0.984 . S
N437 H441 0.985 . S
H438 N433 0.984 . S
H439 N433 0.985 . S
H440 N437 0.984 . S
H441 N437 0.985 . S
H442 N436 0.984 . S
H443 N436 0.984 . S
H444 N432 0.984 . S
H445 N432 0.985 . S
C446 C447 1.363 . S
C446 C452 1.379 . S
C446 N454 1.356 . S
C447 C446 1.363 . S
C447 C453 1.363 . S
C448 C449 1.363 . S
C448 C453 1.379 1_455 S
C448 N455 1.356 . S
C449 C448 1.363 . S
C449 C452 1.363 1_455 S
N450 C452 1.356 1_455 S
N450 H462 0.984 . S
N450 H463 0.985 . S
N451 C453 1.356 . S
N451 H456 0.984 . S
N451 H457 0.985 . S
C452 C446 1.379 . S
C452 C449 1.363 1_655 S
C452 N450 1.356 1_655 S
C453 C447 1.363 . S
C453 C448 1.379 1_655 S
C453 N451 1.356 . S
N454 C446 1.356 . S
N454 H460 0.984 . S
N454 H461 0.984 . S
N455 C448 1.356 . S
N455 H458 0.984 . S
N455 H459 0.985 . S
H456 N451 0.984 . S
H457 N451 0.985 . S
H458 N455 0.984 . S
H459 N455 0.985 . S
H460 N454 0.984 . S
H461 N454 0.984 . S
H462 N450 0.984 . S
H463 N450 0.985 . S
C464 C465 1.363 1_554 S
C464 C470 1.379 1_455 S
C464 N472 1.356 . S
C465 C464 1.363 1_556 S
C465 C471 1.363 . S
C466 C467 1.363 1_556 S
C466 C471 1.379 1_655 S
C466 N473 1.356 . S
C467 C466 1.363 1_554 S
C467 C470 1.363 . S
N468 C470 1.356 . S
N468 H480 0.988 . S
N468 H481 0.985 . S
N469 C471 1.356 . S
N469 H474 0.984 . S
N469 H475 0.988 . S
C470 C464 1.379 1_655 S
C470 C467 1.363 . S
C470 N468 1.356 . S
C471 C465 1.363 . S
C471 C466 1.379 1_455 S
C471 N469 1.356 . S
N472 C464 1.356 . S
N472 H478 0.984 . S
N472 H479 0.984 . S
N473 C466 1.356 . S
N473 H476 0.984 . S
N473 H477 0.985 . S
H474 N469 0.984 . S
H475 N469 0.988 . S
H476 N473 0.984 . S
H477 N473 0.985 . S
H478 N472 0.984 . S
H479 N472 0.984 . S
H480 N468 0.988 . S
H481 N468 0.985 . S
C482 C483 1.363 . S
C482 C488 1.379 . S
C482 N490 1.356 . S
C483 C482 1.363 . S
C483 C489 1.363 1_455 S
C484 C485 1.363 . S
C484 C489 1.379 . S
C484 N491 1.356 . S
C485 C484 1.363 . S
C485 C488 1.363 1_655 S
N486 C488 1.356 1_655 S
N486 H498 0.984 1_655 S
N486 H499 0.985 . S
N487 C489 1.356 1_455 S
N487 H492 0.984 . S
N487 H493 0.985 1_455 S
C488 C482 1.379 . S
C488 C485 1.363 1_455 S
C488 N486 1.356 1_455 S
C489 C483 1.363 1_655 S
C489 C484 1.379 . S
C489 N487 1.356 1_655 S
N490 C482 1.356 . S
N490 H496 0.984 . S
N490 H497 0.984 . S
N491 C484 1.356 . S
N491 H494 0.984 . S
N491 H495 0.985 . S
H492 N487 0.984 . S
H493 N487 0.985 1_655 S
H494 N491 0.984 . S
H495 N491 0.985 . S
H496 N490 0.984 . S
H497 N490 0.984 . S
H498 N486 0.984 1_455 S
H499 N486 0.985 . S
C500 C501 1.363 1_556 S
C500 C506 1.345 1_565 S
C500 N508 1.356 . S
C501 C500 1.363 1_554 S
C501 C507 1.397 . S
C502 C503 1.363 1_554 S
C502 C507 1.345 1_545 S
C502 N509 1.356 . S
C503 C502 1.363 1_556 S
C503 C506 1.397 . S
N504 C506 1.370 . S
N504 H516 0.947 1_545 S
N504 H517 0.985 . S
N505 C507 1.370 . S
N505 H510 0.984 . S
N505 H511 0.947 1_565 S
C506 C500 1.345 1_545 S
C506 C503 1.397 . S
C506 N504 1.370 . S
C507 C501 1.397 . S
C507 C502 1.345 1_565 S
C507 N505 1.370 . S
N508 C500 1.356 . S
N508 H514 0.984 . S
N508 H515 0.984 . S
N509 C502 1.356 . S
N509 H512 0.984 . S
N509 H513 0.985 . S
H510 N505 0.984 . S
H511 N505 0.947 1_545 S
H512 N509 0.984 . S
H513 N509 0.985 . S
H514 N508 0.984 . S
H515 N508 0.984 . S
H516 N504 0.947 1_565 S
H517 N504 0.985 . S
C518 C519 1.363 . S
C518 C524 1.379 1_545 S
C518 N526 1.356 . S
C519 C518 1.363 . S
C519 C525 1.363 . S
C520 C521 1.363 . S
C520 C525 1.379 1_565 S
C520 N527 1.356 . S
C521 C520 1.363 . S
C521 C524 1.363 . S
N522 C524 1.356 . S
N522 H534 0.984 . S
N522 H535 0.985 . S
N523 C525 1.356 . S
N523 H528 0.984 . S
N523 H529 0.985 . S
C524 C518 1.379 1_565 S
C524 C521 1.363 . S
C524 N522 1.356 . S
C525 C519 1.363 . S
C525 C520 1.379 1_545 S
C525 N523 1.356 . S
N526 C518 1.356 . S
N526 H532 0.984 . S
N526 H533 0.984 . S
N527 C520 1.356 . S
N527 H530 0.984 . S
N527 H531 0.985 . S
H528 N523 0.984 . S
H529 N523 0.985 . S
H530 N527 0.984 . S
H531 N527 0.985 . S
H532 N526 0.984 . S
H533 N526 0.984 . S
H534 N522 0.984 . S
H535 N522 0.985 . S
C536 C537 1.363 1_554 S
C536 C542 1.379 . S
C536 N544 1.356 . S
C537 C536 1.363 1_556 S
C537 C543 1.363 . S
C538 C539 1.363 1_556 S
C538 C543 1.379 . S
C538 N545 1.356 . S
C539 C538 1.363 1_554 S
C539 C542 1.363 . S
N540 C542 1.356 . S
N540 H552 0.984 . S
N540 H553 0.985 . S
N541 C543 1.356 . S
N541 H546 0.984 . S
N541 H547 0.985 . S
C542 C536 1.379 . S
C542 C539 1.363 . S
C542 N540 1.356 . S
C543 C537 1.363 . S
C543 C538 1.379 . S
C543 N541 1.356 . S
N544 C536 1.356 . S
N544 H550 0.984 . S
N544 H551 0.984 . S
N545 C538 1.356 . S
N545 H548 0.984 . S
N545 H549 0.985 . S
H546 N541 0.984 . S
H547 N541 0.985 . S
H548 N545 0.984 . S
H549 N545 0.985 . S
H550 N544 0.984 . S
H551 N544 0.984 . S
H552 N540 0.984 . S
H553 N540 0.985 . S
C554 C555 1.363 . S
C554 C560 1.379 . S
C554 N562 1.356 . S
C555 C554 1.363 . S
C555 C561 1.363 1_556 S
C556 C557 1.363 . S
C556 C561 1.379 . S
C556 N563 1.356 . S
C557 C556 1.363 . S
C557 C560 1.363 1_554 S
N558 C560 1.356 . S
N558 H570 0.984 . S
N558 H571 0.985 . S
N559 C561 1.356 . S
N559 H564 0.984 . S
N559 H565 0.985 . S
C560 C554 1.379 . S
C560 C557 1.363 1_556 S
C560 N558 1.356 . S
C561 C555 1.363 1_554 S
C561 C556 1.379 . S
C561 N559 1.356 . S
N562 C554 1.356 . S
N562 H568 0.984 . S
N562 H569 0.984 . S
N563 C556 1.356 . S
N563 H566 0.984 . S
N563 H567 0.985 . S
H564 N559 0.984 . S
H565 N559 0.985 . S
H566 N563 0.984 . S
H567 N563 0.985 . S
H568 N562 0.984 . S
H569 N562 0.984 . S
H570 N558 0.984 . S
H571 N558 0.985 . S
C572 C573 1.363 . S
C572 C578 1.379 . S
C572 N580 1.356 . S
C573 C572 1.363 . S
C573 C579 1.363 . S
C574 C575 1.363 . S
C574 C579 1.379 . S
C574 N581 1.356 . S
C575 C574 1.363 . S
C575 C578 1.363 . S
N576 C578 1.356 . S
N576 H588 0.984 . S
N576 H589 0.985 . S
N577 C579 1.356 . S
N577 H582 0.984 . S
N577 H583 0.985 . S
C578 C572 1.379 . S
C578 C575 1.363 . S
C578 N576 1.356 . S
C579 C573 1.363 . S
C579 C574 1.379 . S
C579 N577 1.356 . S
N580 C572 1.356 . S
N580 H586 0.984 . S
N580 H587 0.984 . S
N581 C574 1.356 . S
N581 H584 0.984 . S
N581 H585 0.985 1_455 S
H582 N577 0.984 . S
H583 N577 0.985 . S
H584 N581 0.984 . S
H585 N581 0.985 1_655 S
H586 N580 0.984 . S
H587 N580 0.984 . S
H588 N576 0.984 . S
H589 N576 0.985 . S
C590 C591 1.363 . S
C590 C596 1.379 . S
C590 N598 1.356 . S
C591 C590 1.363 . S
C591 C597 1.363 . S
C592 C593 1.363 . S
C592 C597 1.379 . S
C592 N599 1.356 . S
C593 C592 1.363 . S
C593 C596 1.363 . S
N594 C596 1.356 . S
N594 H606 0.984 . S
N594 H607 0.985 . S
N595 C597 1.356 . S
N595 H600 0.984 . S
N595 H601 0.985 . S
C596 C590 1.379 . S
C596 C593 1.363 . S
C596 N594 1.356 . S
C597 C591 1.363 . S
C597 C592 1.379 . S
C597 N595 1.356 . S
N598 C590 1.356 . S
N598 H604 0.984 . S
N598 H605 0.984 . S
N599 C592 1.356 . S
N599 H602 0.984 . S
N599 H603 0.985 . S
H600 N595 0.984 . S
H601 N595 0.985 . S
H602 N599 0.984 . S
H603 N599 0.985 . S
H604 N598 0.984 . S
H605 N598 0.984 . S
H606 N594 0.984 . S
H607 N594 0.985 . S
C608 C609 1.363 . S
C608 C614 1.379 . S
C608 N616 1.356 . S
C609 C608 1.363 . S
C609 C615 1.363 1_455 S
C610 C611 1.363 . S
C610 C615 1.379 . S
C610 N617 1.356 . S
C611 C610 1.363 . S
C611 C614 1.363 1_655 S
N612 C614 1.356 . S
N612 H624 0.984 . S
N612 H625 0.985 1_455 S
N613 C615 1.356 . S
N613 H618 0.984 1_655 S
N613 H619 0.985 . S
C614 C608 1.379 . S
C614 C611 1.363 1_455 S
C614 N612 1.356 . S
C615 C609 1.363 1_655 S
C615 C610 1.379 . S
C615 N613 1.356 . S
N616 C608 1.356 . S
N616 H622 0.984 . S
N616 H623 0.984 . S
N617 C610 1.356 . S
N617 H620 0.984 . S
N617 H621 0.985 . S
H618 N613 0.984 1_455 S
H619 N613 0.985 . S
H620 N617 0.984 . S
H621 N617 0.985 . S
H622 N616 0.984 . S
H623 N616 0.984 . S
H624 N612 0.984 . S
H625 N612 0.985 1_655 S
C626 C627 1.363 1_455 S
C626 C632 1.379 . S
C626 N634 1.356 . S
C627 C626 1.363 1_655 S
C627 C633 1.363 . S
C628 C629 1.363 1_655 S
C628 C633 1.379 . S
C628 N635 1.356 . S
C629 C628 1.363 1_455 S
C629 C632 1.363 . S
N630 C632 1.356 . S
N630 H642 0.984 . S
N630 H643 0.985 . S
N631 C633 1.356 . S
N631 H636 0.984 . S
N631 H637 0.985 . S
C632 C626 1.379 . S
C632 C629 1.363 . S
C632 N630 1.356 . S
C633 C627 1.363 . S
C633 C628 1.379 . S
C633 N631 1.356 . S
N634 C626 1.356 . S
N634 H640 0.984 . S
N634 H641 0.984 . S
N635 C628 1.356 . S
N635 H638 0.984 . S
N635 H639 0.985 . S
H636 N631 0.984 . S
H637 N631 0.985 . S
H638 N635 0.984 . S
H639 N635 0.985 . S
H640 N634 0.984 . S
H641 N634 0.984 . S
H642 N630 0.984 . S
H643 N630 0.985 . S
C644 C645 1.363 1_455 S
C644 C650 1.379 . S
C644 N652 1.356 . S
C645 C644 1.363 1_655 S
C645 C651 1.363 . S
C646 C647 1.363 1_655 S
C646 C651 1.379 . S
C646 N653 1.356 . S
C647 C646 1.363 1_455 S
C647 C650 1.363 . S
N648 C650 1.356 . S
N648 H660 0.984 . S
N648 H661 0.985 . S
N649 C651 1.356 . S
N649 H654 0.984 . S
N649 H655 0.985 . S
C650 C644 1.379 . S
C650 C647 1.363 . S
C650 N648 1.356 . S
C651 C645 1.363 . S
C651 C646 1.379 . S
C651 N649 1.356 . S
N652 C644 1.356 . S
N652 H658 0.984 . S
N652 H659 0.984 1_455 S
N653 C646 1.356 . S
N653 H656 0.984 1_655 S
N653 H657 0.985 . S
H654 N649 0.984 . S
H655 N649 0.985 . S
H656 N653 0.984 1_455 S
H657 N653 0.985 . S
H658 N652 0.984 . S
H659 N652 0.984 1_655 S
H660 N648 0.984 . S
H661 N648 0.985 . S
C662 C663 1.363 1_455 S
C662 C668 1.379 . S
C662 N670 1.356 . S
C663 C662 1.363 1_655 S
C663 C669 1.363 . S
C664 C665 1.363 1_655 S
C664 C669 1.379 . S
C664 N671 1.356 . S
C665 C664 1.363 1_455 S
C665 C668 1.363 . S
N666 C668 1.356 . S
N666 H678 0.984 . S
N666 H679 0.985 . S
N667 C669 1.356 . S
N667 H672 0.984 . S
N667 H673 0.985 . S
C668 C662 1.379 . S
C668 C665 1.363 . S
C668 N666 1.356 . S
C669 C663 1.363 . S
C669 C664 1.379 . S
C669 N667 1.356 . S
N670 C662 1.356 . S
N670 H676 0.984 . S
N670 H677 0.984 . S
N671 C664 1.356 . S
N671 H674 0.984 . S
N671 H675 0.985 . S
H672 N667 0.984 . S
H673 N667 0.985 . S
H674 N671 0.984 . S
H675 N671 0.985 . S
H676 N670 0.984 . S
H677 N670 0.984 . S
H678 N666 0.984 . S
H679 N666 0.985 . S
C680 C681 1.363 . S
C680 C686 1.379 . S
C680 N688 1.356 . S
C681 C680 1.363 . S
C681 C687 1.363 . S
C682 C683 1.363 . S
C682 C687 1.379 . S
C682 N689 1.356 . S
C683 C682 1.363 . S
C683 C686 1.363 . S
N684 C686 1.356 . S
N684 H696 0.984 . S
N684 H697 0.985 . S
N685 C687 1.356 . S
N685 H690 0.984 . S
N685 H691 0.985 . S
C686 C680 1.379 . S
C686 C683 1.363 . S
C686 N684 1.356 . S
C687 C681 1.363 . S
C687 C682 1.379 . S
C687 N685 1.356 . S
N688 C680 1.356 . S
N688 H694 0.984 . S
N688 H695 0.984 . S
N689 C682 1.356 . S
N689 H692 0.984 . S
N689 H693 0.985 . S
H690 N685 0.984 . S
H691 N685 0.985 . S
H692 N689 0.984 . S
H693 N689 0.985 . S
H694 N688 0.984 . S
H695 N688 0.984 . S
H696 N684 0.984 . S
H697 N684 0.985 . S
C698 C699 1.363 . S
C698 C704 1.379 . S
C698 N706 1.356 . S
C699 C698 1.363 . S
C699 C705 1.363 . S
C700 C701 1.363 . S
C700 C705 1.379 . S
C700 N707 1.356 . S
C701 C700 1.363 . S
C701 C704 1.363 . S
N702 C704 1.356 . S
N702 H714 0.984 . S
N702 H715 0.985 . S
N703 C705 1.356 . S
N703 H708 0.984 . S
N703 H709 0.985 . S
C704 C698 1.379 . S
C704 C701 1.363 . S
C704 N702 1.356 . S
C705 C699 1.363 . S
C705 C700 1.379 . S
C705 N703 1.356 . S
N706 C698 1.356 . S
N706 H712 0.984 . S
N706 H713 0.984 . S
N707 C700 1.356 . S
N707 H710 0.984 . S
N707 H711 0.985 . S
H708 N703 0.984 . S
H709 N703 0.985 . S
H710 N707 0.984 . S
H711 N707 0.985 . S
H712 N706 0.984 . S
H713 N706 0.984 . S
H714 N702 0.984 . S
H715 N702 0.985 . S
C716 C717 1.363 . S
C716 C722 1.379 . S
C716 N724 1.356 . S
C717 C716 1.363 . S
C717 C723 1.363 . S
C718 C719 1.363 . S
C718 C723 1.379 . S
C718 N725 1.356 . S
C719 C718 1.363 . S
C719 C722 1.363 . S
N720 C722 1.356 . S
N720 H732 0.984 . S
N720 H733 0.985 . S
N721 C723 1.356 . S
N721 H726 0.984 . S
N721 H727 0.985 . S
C722 C716 1.379 . S
C722 C719 1.363 . S
C722 N720 1.356 . S
C723 C717 1.363 . S
C723 C718 1.379 . S
C723 N721 1.356 . S
N724 C716 1.356 . S
N724 H730 0.984 . S
N724 H731 0.984 . S
N725 C718 1.356 . S
N725 H728 0.984 . S
N725 H729 0.985 . S
H726 N721 0.984 . S
H727 N721 0.985 . S
H728 N725 0.984 . S
H729 N725 0.985 . S
H730 N724 0.984 . S
H731 N724 0.984 . S
H732 N720 0.984 . S
H733 N720 0.985 . S
C734 C735 1.363 . S
C734 C740 1.379 . S
C734 N742 1.356 . S
C735 C734 1.363 . S
C735 C741 1.363 . S
C736 C737 1.363 . S
C736 C741 1.379 . S
C736 N743 1.356 . S
C737 C736 1.363 . S
C737 C740 1.363 . S
N738 C740 1.356 . S
N738 H750 0.984 . S
N738 H751 0.985 . S
N739 C741 1.356 . S
N739 H744 0.984 . S
N739 H745 0.985 . S
C740 C734 1.379 . S
C740 C737 1.363 . S
C740 N738 1.356 . S
C741 C735 1.363 . S
C741 C736 1.379 . S
C741 N739 1.356 . S
N742 C734 1.356 . S
N742 H748 0.984 . S
N742 H749 0.984 . S
N743 C736 1.356 . S
N743 H746 0.984 . S
N743 H747 0.985 . S
H744 N739 0.984 . S
H745 N739 0.985 . S
H746 N743 0.984 . S
H747 N743 0.985 . S
H748 N742 0.984 . S
H749 N742 0.984 . S
H750 N738 0.984 . S
H751 N738 0.985 . S
C321 C31 2.264 . S
C323 C12 2.264 . S
C339 C71 2.264 . S
C341 C52 2.264 . S
C357 C111 2.264 . S
C359 C92 2.264 . S
C375 C151 2.264 . S
C377 C132 2.264 . S
C393 C191 2.264 . S
C395 C172 2.264 . S
C411 C212 2.264 . S
C413 C231 2.264 . S
C429 C271 2.264 . S
C431 C252 2.264 . S
C447 C292 2.264 . S
C449 C311 2.264 . S
C465 C48 2.816 . S
C467 C29 2.816 . S
C483 C149 2.816 . S
C485 C88 2.816 . S
C501 C189 2.815 . S
C503 C208 2.815 . S
C519 C248 2.816 . S
C521 C309 2.816 . S
C537 C8 1.993 . S
C539 C229 1.992 . S
C555 C168 1.993 . S
C557 C69 1.993 . S
C573 C109 1.992 . S
C575 C288 1.992 . S
C591 C128 1.993 . S
C593 C269 1.993 . S
C609 C17 1.587 . S
C611 C137 1.587 . S
C627 C57 1.514 . S
C629 C97 1.514 . S
C645 C42 1.587 . S
C647 C82 1.587 . S
C663 C122 1.514 . S
C665 C2 1.514 . S
C681 C177 1.587 . S
C683 C297 1.588 . S
C699 C217 1.514 . S
C701 C257 1.514 . S
C717 C202 1.587 . S
C719 C242 1.587 . S
C735 C282 1.514 . S
C737 C162 1.514 . S
