# Generated by pormake.
# Topology unw, (4)-cn, num edge types: 1
# Building blocks:
#     Node 0, Type 0, BuildingBlock: MUDLON_clean_sbu_0, # of connection points: 4
#     Node 1, Type 0, BuildingBlock: MUDLON_clean_sbu_0, # of connection points: 4
#     Node 2, Type 0, BuildingBlock: MUDLON_clean_sbu_0, # of connection points: 4
#     Node 3, Type 0, BuildingBlock: MUDLON_clean_sbu_0, # of connection points: 4
#     Node 4, Type 0, BuildingBlock: MUDLON_clean_sbu_0, # of connection points: 4
#     Node 5, Type 0, BuildingBlock: MUDLON_clean_sbu_0, # of connection points: 4
#     Node 6, Type 0, BuildingBlock: MUDLON_clean_sbu_0, # of connection points: 4
#     Node 7, Type 0, BuildingBlock: MUDLON_clean_sbu_0, # of connection points: 4
#     Node 8, Type 0, BuildingBlock: MUDLON_clean_sbu_0, # of connection points: 4
#     Node 9, Type 0, BuildingBlock: MUDLON_clean_sbu_0, # of connection points: 4
#     Node 10, Type 0, BuildingBlock: MUDLON_clean_sbu_0, # of connection points: 4
#     Node 11, Type 0, BuildingBlock: MUDLON_clean_sbu_0, # of connection points: 4
#     Node 12, Type 0, BuildingBlock: MUDLON_clean_sbu_0, # of connection points: 4
#     Node 13, Type 0, BuildingBlock: MUDLON_clean_sbu_0, # of connection points: 4
#     Node 14, Type 0, BuildingBlock: MUDLON_clean_sbu_0, # of connection points: 4
#     Node 15, Type 0, BuildingBlock: MUDLON_clean_sbu_0, # of connection points: 4
#     Node 16, Type 0, BuildingBlock: MUDLON_clean_sbu_0, # of connection points: 4
#     Node 17, Type 0, BuildingBlock: MUDLON_clean_sbu_0, # of connection points: 4
#     Node 18, Type 0, BuildingBlock: MUDLON_clean_sbu_0, # of connection points: 4
#     Node 19, Type 0, BuildingBlock: MUDLON_clean_sbu_0, # of connection points: 4
#     Node 20, Type 0, BuildingBlock: MUDLON_clean_sbu_0, # of connection points: 4
#     Node 21, Type 0, BuildingBlock: MUDLON_clean_sbu_0, # of connection points: 4
#     Node 22, Type 0, BuildingBlock: MUDLON_clean_sbu_0, # of connection points: 4
#     Node 23, Type 0, BuildingBlock: MUDLON_clean_sbu_0, # of connection points: 4
#     Edge 24, Type (0, 0), BuildingBlock: TEMPAE_clean_linker_10, # of connection points: 2
#     Edge 25, Type (0, 0), BuildingBlock: TEMPAE_clean_linker_10, # of connection points: 2
#     Edge 26, Type (0, 0), BuildingBlock: TEMPAE_clean_linker_10, # of connection points: 2
#     Edge 27, Type (0, 0), BuildingBlock: TEMPAE_clean_linker_10, # of connection points: 2
#     Edge 28, Type (0, 0), BuildingBlock: TEMPAE_clean_linker_10, # of connection points: 2
#     Edge 29, Type (0, 0), BuildingBlock: TEMPAE_clean_linker_10, # of connection points: 2
#     Edge 30, Type (0, 0), BuildingBlock: TEMPAE_clean_linker_10, # of connection points: 2
#     Edge 31, Type (0, 0), BuildingBlock: TEMPAE_clean_linker_10, # of connection points: 2
#     Edge 32, Type (0, 0), BuildingBlock: TEMPAE_clean_linker_10, # of connection points: 2
#     Edge 33, Type (0, 0), BuildingBlock: TEMPAE_clean_linker_10, # of connection points: 2
#     Edge 34, Type (0, 0), BuildingBlock: TEMPAE_clean_linker_10, # of connection points: 2
#     Edge 35, Type (0, 0), BuildingBlock: TEMPAE_clean_linker_10, # of connection points: 2
#     Edge 36, Type (0, 0), BuildingBlock: TEMPAE_clean_linker_10, # of connection points: 2
#     Edge 37, Type (0, 0), BuildingBlock: TEMPAE_clean_linker_10, # of connection points: 2
#     Edge 38, Type (0, 0), BuildingBlock: TEMPAE_clean_linker_10, # of connection points: 2
#     Edge 39, Type (0, 0), BuildingBlock: TEMPAE_clean_linker_10, # of connection points: 2
#     Edge 40, Type (0, 0), BuildingBlock: TEMPAE_clean_linker_10, # of connection points: 2
#     Edge 41, Type (0, 0), BuildingBlock: TEMPAE_clean_linker_10, # of connection points: 2
#     Edge 42, Type (0, 0), BuildingBlock: TEMPAE_clean_linker_10, # of connection points: 2
#     Edge 43, Type (0, 0), BuildingBlock: TEMPAE_clean_linker_10, # of connection points: 2
#     Edge 44, Type (0, 0), BuildingBlock: TEMPAE_clean_linker_10, # of connection points: 2
#     Edge 45, Type (0, 0), BuildingBlock: TEMPAE_clean_linker_10, # of connection points: 2
#     Edge 46, Type (0, 0), BuildingBlock: TEMPAE_clean_linker_10, # of connection points: 2
#     Edge 47, Type (0, 0), BuildingBlock: TEMPAE_clean_linker_10, # of connection points: 2
#     Edge 48, Type (0, 0), BuildingBlock: TEMPAE_clean_linker_10, # of connection points: 2
#     Edge 49, Type (0, 0), BuildingBlock: TEMPAE_clean_linker_10, # of connection points: 2
#     Edge 50, Type (0, 0), BuildingBlock: TEMPAE_clean_linker_10, # of connection points: 2
#     Edge 51, Type (0, 0), BuildingBlock: TEMPAE_clean_linker_10, # of connection points: 2
#     Edge 52, Type (0, 0), BuildingBlock: TEMPAE_clean_linker_10, # of connection points: 2
#     Edge 53, Type (0, 0), BuildingBlock: TEMPAE_clean_linker_10, # of connection points: 2
#     Edge 54, Type (0, 0), BuildingBlock: TEMPAE_clean_linker_10, # of connection points: 2
#     Edge 55, Type (0, 0), BuildingBlock: TEMPAE_clean_linker_10, # of connection points: 2
#     Edge 56, Type (0, 0), BuildingBlock: TEMPAE_clean_linker_10, # of connection points: 2
#     Edge 57, Type (0, 0), BuildingBlock: TEMPAE_clean_linker_10, # of connection points: 2
#     Edge 58, Type (0, 0), BuildingBlock: TEMPAE_clean_linker_10, # of connection points: 2
#     Edge 59, Type (0, 0), BuildingBlock: TEMPAE_clean_linker_10, # of connection points: 2
#     Edge 60, Type (0, 0), BuildingBlock: TEMPAE_clean_linker_10, # of connection points: 2
#     Edge 61, Type (0, 0), BuildingBlock: TEMPAE_clean_linker_10, # of connection points: 2
#     Edge 62, Type (0, 0), BuildingBlock: TEMPAE_clean_linker_10, # of connection points: 2
#     Edge 63, Type (0, 0), BuildingBlock: TEMPAE_clean_linker_10, # of connection points: 2
#     Edge 64, Type (0, 0), BuildingBlock: TEMPAE_clean_linker_10, # of connection points: 2
#     Edge 65, Type (0, 0), BuildingBlock: TEMPAE_clean_linker_10, # of connection points: 2
#     Edge 66, Type (0, 0), BuildingBlock: TEMPAE_clean_linker_10, # of connection points: 2
#     Edge 67, Type (0, 0), BuildingBlock: TEMPAE_clean_linker_10, # of connection points: 2
#     Edge 68, Type (0, 0), BuildingBlock: TEMPAE_clean_linker_10, # of connection points: 2
#     Edge 69, Type (0, 0), BuildingBlock: TEMPAE_clean_linker_10, # of connection points: 2
#     Edge 70, Type (0, 0), BuildingBlock: TEMPAE_clean_linker_10, # of connection points: 2
#     Edge 71, Type (0, 0), BuildingBlock: TEMPAE_clean_linker_10, # of connection points: 2
# Relax obj value: 0.472
# Max RMSD: 0.264
# Mean RMSD: 0.264
data_MOF--net-unw--node1-MUDLON_clean_sbu_0--edge1-TEMPAE_clean_linker_10
_symmetry_space_group_name_H-M    P1
_symmetry_Int_Tables_number       1
_symmetry_cell_setting            triclinic
loop_
_symmetry_equiv_pos_as_xyz
'x, y, z'
_cell_length_a     50.954419
_cell_length_b     50.418173
_cell_length_c     50.371192
_cell_angle_alpha  90.033084
_cell_angle_beta   89.925902
_cell_angle_gamma 90.019661
loop_
_atom_site_label
_atom_site_type_symbol
_atom_site_fract_x
_atom_site_fract_y
_atom_site_fract_z
_atom_type_partial_charge
Mg0 Mg 0.12012 0.38042 0.25012 0.0
C1 C 0.13178 0.33833 0.28635 0.0
O2 O 0.1113 0.33068 0.27252 0.0
C3 C 0.12924 0.44419 0.24257 0.0
O4 O 0.11555 0.45075 0.26369 0.0
C5 C 0.07354 0.37598 0.28321 0.0
O6 O 0.09147 0.38716 0.29826 0.0
O7 O 0.07864 0.37276 0.25865 0.0
O8 O 0.14083 0.36164 0.28283 0.0
O9 O 0.14017 0.35702 0.22033 0.0
C10 C 0.16392 0.36498 0.22101 0.0
O11 O 0.17036 0.38407 0.23752 0.0
O12 O 0.13172 0.41992 0.23624 0.0
Mg13 Mg 0.62262 0.13177 0.25789 0.0
C14 C 0.6319 0.15763 0.20456 0.0
O15 O 0.60622 0.15796 0.20335 0.0
C16 C 0.62643 0.06823 0.26894 0.0
O17 O 0.61386 0.06194 0.24708 0.0
C18 C 0.56607 0.1367 0.2396 0.0
O19 O 0.57128 0.11289 0.23035 0.0
O20 O 0.58294 0.148 0.25444 0.0
O21 O 0.64294 0.14252 0.22138 0.0
O22 O 0.64875 0.15353 0.28399 0.0
C23 C 0.67159 0.1439 0.28016 0.0
O24 O 0.67412 0.12407 0.2634 0.0
O25 O 0.62977 0.09248 0.27496 0.0
Mg26 Mg 0.87536 0.63005 0.24974 0.0
C27 C 0.86419 0.67637 0.27937 0.0
O28 O 0.88114 0.68229 0.26061 0.0
C29 C 0.84963 0.57435 0.25254 0.0
O30 O 0.83629 0.58408 0.27264 0.0
C31 C 0.92573 0.63401 0.27683 0.0
O32 O 0.91227 0.61747 0.29171 0.0
O33 O 0.91622 0.64096 0.25456 0.0
O34 O 0.85709 0.65225 0.28201 0.0
O35 O 0.85302 0.648 0.21785 0.0
C36 C 0.82921 0.64349 0.22411 0.0
O37 O 0.82446 0.62922 0.24534 0.0
O38 O 0.86837 0.58785 0.24272 0.0
Mg39 Mg 0.37352 0.86775 0.25625 0.0
C40 C 0.34729 0.85726 0.19596 0.0
O41 O 0.34093 0.8722 0.1756 0.0
C42 C 0.35385 0.92464 0.26658 0.0
O43 O 0.34172 0.91999 0.24408 0.0
C44 C 0.42487 0.86346 0.23134 0.0
O45 O 0.41325 0.88319 0.21902 0.0
O46 O 0.41327 0.85302 0.25112 0.0
O47 O 0.35705 0.8692 0.21606 0.0
O48 O 0.34789 0.84362 0.2802 0.0
C49 C 0.32484 0.85219 0.27604 0.0
O50 O 0.32164 0.87102 0.25838 0.0
O51 O 0.36989 0.90735 0.27548 0.0
Mg52 Mg 0.12584 0.6316 0.75534 0.0
C53 C 0.16414 0.65767 0.71871 0.0
O54 O 0.18101 0.65061 0.73708 0.0
C55 C 0.15121 0.57735 0.75704 0.0
O56 O 0.16776 0.58941 0.74106 0.0
C57 C 0.06919 0.63447 0.73939 0.0
O58 O 0.07404 0.61016 0.73139 0.0
O59 O 0.08631 0.64673 0.75299 0.0
O60 O 0.14141 0.64728 0.71868 0.0
O61 O 0.14981 0.65263 0.78376 0.0
C62 C 0.16429 0.63932 0.79931 0.0
O63 O 0.15974 0.6139 0.80235 0.0
O64 O 0.13023 0.58933 0.7637 0.0
Mg65 Mg 0.38034 0.13028 0.74371 0.0
C66 C 0.35104 0.15729 0.79696 0.0
O67 O 0.34469 0.13665 0.8115 0.0
C68 C 0.35841 0.07232 0.74749 0.0
O69 O 0.34693 0.07956 0.76971 0.0
C70 C 0.42652 0.13873 0.77393 0.0
O71 O 0.40927 0.12699 0.78937 0.0
O72 O 0.42107 0.1416 0.74943 0.0
O73 O 0.36265 0.15409 0.7749 0.0
O74 O 0.35556 0.14691 0.71296 0.0
C75 C 0.33246 0.14037 0.72025 0.0
O76 O 0.32985 0.12504 0.74115 0.0
O77 O 0.37447 0.08805 0.7363 0.0
Mg78 Mg 0.87595 0.37591 0.75678 0.0
C79 C 0.84932 0.34737 0.70421 0.0
O80 O 0.85046 0.3674 0.68759 0.0
C81 C 0.86825 0.43962 0.76257 0.0
O82 O 0.89005 0.44543 0.74989 0.0
C83 C 0.92274 0.36883 0.72578 0.0
O84 O 0.90447 0.37732 0.70951 0.0
O85 O 0.91778 0.36862 0.75056 0.0
O86 O 0.85781 0.34988 0.72774 0.0
O87 O 0.8556 0.35651 0.78907 0.0
C88 C 0.83145 0.36032 0.78361 0.0
O89 O 0.82528 0.37494 0.76297 0.0
O90 O 0.86105 0.41562 0.76491 0.0
Mg91 Mg 0.62096 0.88416 0.75526 0.0
C92 C 0.65828 0.85614 0.79468 0.0
O93 O 0.67759 0.86816 0.78232 0.0
C94 C 0.62278 0.93856 0.72988 0.0
O95 O 0.60393 0.92782 0.71576 0.0
C96 C 0.57149 0.87915 0.78137 0.0
O97 O 0.58655 0.89297 0.7974 0.0
O98 O 0.57964 0.87486 0.75789 0.0
O99 O 0.63473 0.86292 0.79 0.0
O100 O 0.64193 0.86237 0.7252 0.0
C101 C 0.66459 0.87201 0.72102 0.0
O102 O 0.67117 0.89427 0.73274 0.0
O103 O 0.63185 0.92586 0.7497 0.0
Mg104 Mg 0.24948 0.13119 0.37528 0.0
C105 C 0.30066 0.14156 0.34718 0.0
O106 O 0.30263 0.11568 0.34869 0.0
C107 C 0.24388 0.15291 0.43245 0.0
O108 O 0.26515 0.16617 0.42601 0.0
C109 C 0.26982 0.0742 0.37147 0.0
O110 O 0.27876 0.08041 0.39514 0.0
O111 O 0.25481 0.09063 0.35963 0.0
O112 O 0.28388 0.15325 0.36181 0.0
O113 O 0.22094 0.15608 0.35464 0.0
C114 C 0.22387 0.17984 0.36283 0.0
O115 O 0.24196 0.18456 0.38072 0.0
O116 O 0.23555 0.13502 0.41668 0.0
Mg117 Mg 0.8733 0.25449 0.37802 0.0
C118 C 0.85635 0.30401 0.3431 0.0
O119 O 0.87279 0.31929 0.35607 0.0
C120 C 0.87041 0.23996 0.43699 0.0
O121 O 0.89435 0.23121 0.43291 0.0
C122 C 0.92321 0.28435 0.37718 0.0
O123 O 0.90855 0.29862 0.39322 0.0
O124 O 0.91469 0.26182 0.36978 0.0
O125 O 0.85274 0.28019 0.35042 0.0
O126 O 0.85583 0.21885 0.362 0.0
C127 C 0.83127 0.22133 0.36601 0.0
O128 O 0.82278 0.24178 0.37968 0.0
O129 O 0.85907 0.25336 0.41894 0.0
Mg130 Mg 0.74366 0.87326 0.38281 0.0
C131 C 0.7779 0.83151 0.36897 0.0
O132 O 0.76237 0.82327 0.38809 0.0
C133 C 0.74007 0.93004 0.35823 0.0
O134 O 0.76132 0.92317 0.34511 0.0
C135 C 0.77671 0.86721 0.43088 0.0
O136 O 0.79157 0.88034 0.41406 0.0
O137 O 0.75291 0.86265 0.42434 0.0
O138 O 0.77621 0.85553 0.36127 0.0
O139 O 0.71353 0.8519 0.36047 0.0
C140 C 0.71567 0.85969 0.33646 0.0
O141 O 0.7336 0.87749 0.33079 0.0
O142 O 0.73138 0.91466 0.37627 0.0
Mg143 Mg 0.12029 0.75415 0.37938 0.0
C144 C 0.15926 0.71693 0.35665 0.0
O145 O 0.17615 0.7347 0.36512 0.0
C146 C 0.14435 0.75953 0.43419 0.0
O147 O 0.15992 0.741 0.42477 0.0
C148 C 0.06391 0.73734 0.37511 0.0
O149 O 0.06841 0.72907 0.39939 0.0
O150 O 0.08116 0.75119 0.3633 0.0
O151 O 0.1364 0.7166 0.36676 0.0
O152 O 0.14455 0.7804 0.35631 0.0
C153 C 0.15876 0.79781 0.36749 0.0
O154 O 0.15436 0.80403 0.3924 0.0
O155 O 0.12455 0.76663 0.42058 0.0
Mg156 Mg 0.2533 0.87145 0.63079 0.0
C157 C 0.21562 0.83052 0.63994 0.0
O158 O 0.23016 0.82332 0.61964 0.0
C159 C 0.25807 0.93355 0.64526 0.0
O160 O 0.23305 0.93777 0.64065 0.0
C161 C 0.22169 0.86931 0.58243 0.0
O162 O 0.20654 0.88075 0.60019 0.0
O163 O 0.24562 0.865 0.58842 0.0
O164 O 0.21947 0.85328 0.65025 0.0
O165 O 0.28291 0.84819 0.65141 0.0
C166 C 0.27945 0.85295 0.67605 0.0
O167 O 0.26085 0.86952 0.68319 0.0
O168 O 0.26767 0.91056 0.64183 0.0
Mg169 Mg 0.12761 0.25582 0.63155 0.0
C170 C 0.13617 0.30269 0.66989 0.0
O171 O 0.11059 0.30511 0.66867 0.0
C172 C 0.12849 0.23439 0.57442 0.0
O173 O 0.10572 0.22419 0.5811 0.0
C174 C 0.07469 0.28051 0.63205 0.0
O175 O 0.08715 0.29488 0.61428 0.0
O176 O 0.08602 0.25988 0.64098 0.0
O177 O 0.14782 0.28677 0.6542 0.0
O178 O 0.14805 0.22281 0.64941 0.0
C179 C 0.1723 0.2276 0.6456 0.0
O180 O 0.17902 0.24852 0.63162 0.0
O181 O 0.13983 0.25046 0.5902 0.0
Mg182 Mg 0.745 0.1372 0.63241 0.0
C183 C 0.79782 0.16379 0.64438 0.0
O184 O 0.80325 0.16017 0.6192 0.0
C185 C 0.74124 0.07963 0.65274 0.0
O186 O 0.76212 0.08639 0.66645 0.0
C187 C 0.76783 0.14093 0.57758 0.0
O188 O 0.77715 0.11795 0.58548 0.0
O189 O 0.7512 0.15274 0.59235 0.0
O190 O 0.77892 0.15106 0.65486 0.0
O191 O 0.71572 0.157 0.65722 0.0
C192 C 0.72042 0.14971 0.68097 0.0
O193 O 0.73897 0.13211 0.6849 0.0
O194 O 0.73255 0.09556 0.63524 0.0
Mg195 Mg 0.8679 0.74834 0.63975 0.0
C196 C 0.84045 0.69053 0.64553 0.0
O197 O 0.83336 0.66936 0.6321 0.0
C198 C 0.86023 0.76285 0.58059 0.0
O199 O 0.85818 0.73701 0.578 0.0
C200 C 0.92216 0.72769 0.64436 0.0
O201 O 0.91515 0.71876 0.6209 0.0
O202 O 0.90645 0.74278 0.65691 0.0
O203 O 0.85181 0.70902 0.63252 0.0
O204 O 0.84033 0.76869 0.6646 0.0
C205 C 0.8188 0.76994 0.65202 0.0
O206 O 0.81722 0.75837 0.62869 0.0
O207 O 0.8664 0.7724 0.60317 0.0
Mg208 Mg 0.37125 0.25199 0.1332 0.0
C209 C 0.33625 0.21234 0.1641 0.0
O210 O 0.31601 0.22386 0.15294 0.0
C211 C 0.3698 0.27701 0.07875 0.0
O212 O 0.38498 0.2938 0.09142 0.0
C213 C 0.42774 0.23575 0.13611 0.0
O214 O 0.42068 0.22263 0.11474 0.0
O215 O 0.41205 0.25285 0.14584 0.0
O216 O 0.35927 0.21711 0.15554 0.0
O217 O 0.34607 0.28183 0.15096 0.0
C218 C 0.32375 0.2823 0.13967 0.0
O219 O 0.31975 0.26669 0.11921 0.0
O220 O 0.36311 0.25558 0.0904 0.0
Mg221 Mg 0.37881 0.74591 0.87374 0.0
C222 C 0.34812 0.80398 0.85526 0.0
O223 O 0.34243 0.82133 0.87384 0.0
C224 C 0.36459 0.74327 0.93533 0.0
O225 O 0.36465 0.76932 0.93597 0.0
C226 C 0.42577 0.77628 0.86849 0.0
O227 O 0.40937 0.79075 0.8825 0.0
O228 O 0.41941 0.75255 0.86289 0.0
O229 O 0.35943 0.78257 0.86204 0.0
O230 O 0.35609 0.71822 0.85083 0.0
C231 C 0.33325 0.71969 0.86097 0.0
O232 O 0.32929 0.73616 0.88079 0.0
O233 O 0.37141 0.73125 0.91418 0.0
Mg234 Mg 0.25908 0.38024 0.87504 0.0
C235 C 0.20613 0.34934 0.8509 0.0
O236 O 0.19407 0.34111 0.87244 0.0
C237 C 0.25968 0.35088 0.92887 0.0
O238 O 0.24266 0.33521 0.91717 0.0
C239 C 0.22698 0.4271 0.86536 0.0
O240 O 0.2109 0.40939 0.87543 0.0
O241 O 0.25147 0.42181 0.86463 0.0
O242 O 0.22746 0.36216 0.85263 0.0
O243 O 0.29065 0.35871 0.85492 0.0
C244 C 0.28468 0.33415 0.85535 0.0
O245 O 0.26329 0.3267 0.86775 0.0
O246 O 0.26674 0.37209 0.91716 0.0
Mg247 Mg 0.62086 0.25946 0.87758 0.0
C248 C 0.63211 0.20658 0.85027 0.0
O249 O 0.60665 0.20296 0.85075 0.0
C250 C 0.64087 0.26361 0.9349 0.0
O251 O 0.65245 0.24104 0.92913 0.0
C252 C 0.56752 0.23666 0.8742 0.0
O253 O 0.57662 0.22601 0.89616 0.0
O254 O 0.58115 0.2545 0.86283 0.0
O255 O 0.64232 0.22421 0.86509 0.0
O256 O 0.64557 0.28743 0.85638 0.0
C257 C 0.66892 0.28276 0.86408 0.0
O258 O 0.67253 0.26527 0.88301 0.0
O259 O 0.62461 0.27335 0.91844 0.0
Mg260 Mg 0.75037 0.63775 0.86705 0.0
C261 C 0.79953 0.65189 0.8353 0.0
O262 O 0.80374 0.62627 0.83706 0.0
C263 C 0.74797 0.65677 0.92564 0.0
O264 O 0.76639 0.67335 0.91802 0.0
C265 C 0.77396 0.58351 0.86492 0.0
O266 O 0.78472 0.59328 0.88651 0.0
O267 O 0.75668 0.59727 0.85297 0.0
O268 O 0.78163 0.66224 0.84965 0.0
O269 O 0.71866 0.6592 0.84786 0.0
C270 C 0.70401 0.6741 0.8619 0.0
O271 O 0.70361 0.6708 0.88773 0.0
O272 O 0.74041 0.63891 0.90953 0.0
Mg273 Mg 0.6236 0.74876 0.12775 0.0
C274 C 0.63162 0.78124 0.17404 0.0
O275 O 0.61297 0.76426 0.17997 0.0
C276 C 0.63176 0.74011 0.06374 0.0
O277 O 0.61341 0.75683 0.05636 0.0
C278 C 0.5756 0.77769 0.13427 0.0
O279 O 0.59273 0.79429 0.12403 0.0
O280 O 0.58171 0.75324 0.13558 0.0
O281 O 0.64085 0.78142 0.15048 0.0
O282 O 0.64606 0.71881 0.14799 0.0
C283 C 0.66975 0.72531 0.14297 0.0
O284 O 0.67445 0.74604 0.12793 0.0
O285 O 0.63677 0.73688 0.08822 0.0
Mg286 Mg 0.24409 0.64201 0.13517 0.0
C287 C 0.29545 0.67005 0.15236 0.0
O288 O 0.3034 0.66511 0.12807 0.0
C289 C 0.24242 0.58295 0.15374 0.0
O290 O 0.26357 0.58939 0.16717 0.0
C291 C 0.27125 0.64401 0.08259 0.0
O292 O 0.28184 0.6229 0.0935 0.0
O293 O 0.2526 0.65563 0.0948 0.0
O294 O 0.27447 0.65916 0.16082 0.0
O295 O 0.21133 0.66087 0.15574 0.0
C296 C 0.20854 0.64909 0.17794 0.0
O297 O 0.22364 0.62867 0.18306 0.0
O298 O 0.23292 0.59973 0.13749 0.0
Mg299 Mg 0.74443 0.37415 0.13682 0.0
C300 C 0.79767 0.35968 0.16036 0.0
O301 O 0.8051 0.38358 0.15335 0.0
C302 C 0.73396 0.3738 0.07284 0.0
O303 O 0.75434 0.38862 0.06689 0.0
C304 C 0.76612 0.43075 0.14127 0.0
O305 O 0.7743 0.42633 0.11694 0.0
O306 O 0.75189 0.41356 0.15288 0.0
O307 O 0.77696 0.34991 0.15031 0.0
O308 O 0.71471 0.35204 0.15819 0.0
C309 C 0.71655 0.32817 0.15011 0.0
O310 O 0.73353 0.32248 0.13132 0.0
O311 O 0.72914 0.36798 0.09689 0.0
C312 C 0.2348 0.54345 0.18309 0.0
C313 C 0.22622 0.55979 0.16228 0.0
C314 C 0.21822 0.52419 0.19436 0.0
C315 C 0.19235 0.52096 0.1846 0.0
C316 C 0.18394 0.53647 0.16276 0.0
C317 C 0.20092 0.5557 0.1519 0.0
C318 C 0.22812 0.50789 0.21741 0.0
C319 C 0.15666 0.53345 0.15149 0.0
C320 C 0.15826 0.45667 0.20428 0.0
C321 C 0.14352 0.46449 0.22659 0.0
C322 C 0.17346 0.47496 0.18988 0.0
C323 C 0.17407 0.50186 0.19788 0.0
C324 C 0.15851 0.51012 0.21976 0.0
C325 C 0.14344 0.49136 0.23385 0.0
C326 C 0.18947 0.46527 0.16657 0.0
C327 C 0.15841 0.53867 0.22881 0.0
H328 H 0.25426 0.54631 0.19127 0.0
H329 H 0.19399 0.56814 0.13583 0.0
H330 H 0.21615 0.51213 0.23533 0.0
H331 H 0.22603 0.48643 0.213 0.0
H332 H 0.24903 0.51207 0.22206 0.0
H333 H 0.15398 0.54502 0.13292 0.0
H334 H 0.15236 0.51228 0.14731 0.0
H335 H 0.14202 0.54036 0.16628 0.0
H336 H 0.15839 0.43603 0.19827 0.0
H337 H 0.13204 0.49767 0.2509 0.0
H338 H 0.21068 0.46752 0.17097 0.0
H339 H 0.18522 0.4774 0.14872 0.0
H340 H 0.18554 0.44411 0.16183 0.0
H341 H 0.17828 0.54425 0.23588 0.0
H342 H 0.14412 0.54225 0.24509 0.0
H343 H 0.15356 0.55194 0.21195 0.0
C344 C 0.52403 0.13953 0.21389 0.0
C345 C 0.54432 0.15234 0.22769 0.0
C346 C 0.50508 0.15406 0.19975 0.0
C347 C 0.50671 0.18212 0.19888 0.0
C348 C 0.52695 0.19518 0.21302 0.0
C349 C 0.54531 0.18018 0.22747 0.0
C350 C 0.48359 0.13931 0.18532 0.0
C351 C 0.52974 0.22498 0.21217 0.0
C352 C 0.47239 0.21552 0.1405 0.0
C353 C 0.44949 0.22524 0.15247 0.0
C354 C 0.49164 0.20231 0.15554 0.0
C355 C 0.48736 0.19776 0.18299 0.0
C356 C 0.46424 0.20762 0.19514 0.0
C357 C 0.44583 0.22163 0.17984 0.0
C358 C 0.51629 0.19276 0.14191 0.0
C359 C 0.45838 0.20237 0.22405 0.0
H360 H 0.52317 0.11805 0.21384 0.0
H361 H 0.56113 0.19028 0.2377 0.0
H362 H 0.46411 0.1475 0.19081 0.0
H363 H 0.48597 0.14194 0.16359 0.0
H364 H 0.48376 0.11774 0.18978 0.0
H365 H 0.54661 0.23214 0.22414 0.0
H366 H 0.53247 0.23158 0.19133 0.0
H367 H 0.51158 0.23451 0.21969 0.0
H368 H 0.47511 0.21806 0.1193 0.0
H369 H 0.42782 0.22851 0.18904 0.0
H370 H 0.51678 0.17077 0.14186 0.0
H371 H 0.53387 0.1997 0.1529 0.0
H372 H 0.51765 0.19982 0.12106 0.0
H373 H 0.45741 0.18066 0.22758 0.0
H374 H 0.43953 0.21138 0.23052 0.0
H375 H 0.47438 0.21031 0.23666 0.0
C376 C 0.7765 0.47845 0.15011 0.0
C377 C 0.77868 0.45173 0.1572 0.0
C378 C 0.78859 0.49832 0.1655 0.0
C379 C 0.80418 0.49104 0.18766 0.0
C380 C 0.80721 0.4639 0.19414 0.0
C381 C 0.79387 0.44465 0.17925 0.0
C382 C 0.78426 0.52705 0.15836 0.0
C383 C 0.82453 0.45516 0.21682 0.0
C384 C 0.85274 0.54158 0.21508 0.0
C385 C 0.83935 0.55117 0.23752 0.0
C386 C 0.84165 0.52194 0.19873 0.0
C387 C 0.81645 0.51174 0.20482 0.0
C388 C 0.80305 0.52098 0.22767 0.0
C389 C 0.8147 0.54042 0.24381 0.0
C390 C 0.85678 0.51233 0.17479 0.0
C391 C 0.77606 0.51077 0.23472 0.0
H392 H 0.76482 0.48381 0.13296 0.0
H393 H 0.79573 0.42392 0.18458 0.0
H394 H 0.77535 0.53768 0.17544 0.0
H395 H 0.80331 0.53678 0.15404 0.0
H396 H 0.77125 0.52939 0.14084 0.0
H397 H 0.8263 0.43323 0.21803 0.0
H398 H 0.84446 0.46374 0.21452 0.0
H399 H 0.81646 0.46259 0.23589 0.0
H400 H 0.87175 0.54978 0.20996 0.0
H401 H 0.80406 0.5478 0.26093 0.0
H402 H 0.8456 0.51663 0.15641 0.0
H403 H 0.85938 0.4905 0.17584 0.0
H404 H 0.87641 0.52178 0.17317 0.0
H405 H 0.76234 0.51444 0.21802 0.0
H406 H 0.76803 0.5203 0.25288 0.0
H407 H 0.77675 0.48902 0.23795 0.0
C408 C 0.52908 0.77664 0.15086 0.0
C409 C 0.55388 0.78854 0.15036 0.0
C410 C 0.50842 0.7881 0.1655 0.0
C411 C 0.51305 0.81143 0.18058 0.0
C412 C 0.53846 0.82273 0.18102 0.0
C413 C 0.55842 0.81137 0.16562 0.0
C414 C 0.48144 0.77582 0.16413 0.0
C415 C 0.54448 0.84714 0.19733 0.0
C416 C 0.45627 0.85829 0.19374 0.0
C417 C 0.44867 0.85124 0.21958 0.0
C418 C 0.47704 0.84537 0.18088 0.0
C419 C 0.49101 0.82519 0.19431 0.0
C420 C 0.48407 0.81856 0.22074 0.0
C421 C 0.46278 0.8315 0.23301 0.0
C422 C 0.4837 0.85302 0.15266 0.0
C423 C 0.49902 0.79767 0.23595 0.0
H424 H 0.52565 0.75893 0.13914 0.0
H425 H 0.57779 0.82028 0.1657 0.0
H426 H 0.47408 0.77153 0.18441 0.0
H427 H 0.46755 0.79004 0.15492 0.0
H428 H 0.48127 0.75716 0.15239 0.0
H429 H 0.56576 0.85197 0.19739 0.0
H430 H 0.5336 0.86439 0.18926 0.0
H431 H 0.5379 0.84428 0.21813 0.0
H432 H 0.44547 0.87347 0.18315 0.0
H433 H 0.4571 0.82604 0.25302 0.0
H434 H 0.48209 0.83542 0.13953 0.0
H435 H 0.50427 0.86014 0.15151 0.0
H436 H 0.47062 0.86883 0.14488 0.0
H437 H 0.49702 0.77821 0.22587 0.0
H438 H 0.49194 0.79565 0.25672 0.0
H439 H 0.52023 0.80263 0.23629 0.0
C440 C 0.2255 0.47524 0.85213 0.0
C441 C 0.21572 0.44937 0.85004 0.0
C442 C 0.21381 0.49619 0.83786 0.0
C443 C 0.19258 0.49086 0.8204 0.0
C444 C 0.18291 0.46464 0.81814 0.0
C445 C 0.19432 0.44436 0.83328 0.0
C446 C 0.22402 0.52405 0.84156 0.0
C447 C 0.16081 0.45787 0.79934 0.0
C448 C 0.1483 0.54689 0.79636 0.0
C449 C 0.15987 0.55346 0.7719 0.0
C450 C 0.15879 0.52671 0.81245 0.0
C451 C 0.1811 0.51239 0.80368 0.0
C452 C 0.19227 0.51832 0.77861 0.0
C453 C 0.18168 0.53889 0.76316 0.0
C454 C 0.14645 0.52128 0.83918 0.0
C455 C 0.21565 0.50312 0.76823 0.0
H456 H 0.24184 0.47914 0.86533 0.0
H457 H 0.18684 0.42429 0.83153 0.0
H458 H 0.2316 0.53183 0.82243 0.0
H459 H 0.2078 0.53732 0.84791 0.0
H460 H 0.23995 0.52508 0.85656 0.0
H461 H 0.15573 0.43644 0.79977 0.0
H462 H 0.14303 0.46948 0.80449 0.0
H463 H 0.16641 0.46332 0.77876 0.0
H464 H 0.13164 0.55822 0.80346 0.0
H465 H 0.19075 0.54383 0.74432 0.0
H466 H 0.16102 0.52498 0.85511 0.0
H467 H 0.14052 0.50017 0.84062 0.0
H468 H 0.12895 0.53388 0.84291 0.0
H469 H 0.23265 0.506 0.78166 0.0
H470 H 0.22141 0.50947 0.74792 0.0
H471 H 0.21121 0.48157 0.76785 0.0
C472 C 0.53592 0.23439 0.83611 0.0
C473 C 0.54587 0.22345 0.85963 0.0
C474 C 0.51719 0.22073 0.82087 0.0
C475 C 0.50845 0.19538 0.82916 0.0
C476 C 0.51848 0.18419 0.85283 0.0
C477 C 0.53687 0.19845 0.86788 0.0
C478 C 0.50662 0.23347 0.79597 0.0
C479 C 0.50995 0.15705 0.86217 0.0
C480 C 0.44149 0.17087 0.80759 0.0
C481 C 0.44779 0.15392 0.78649 0.0
C482 C 0.46102 0.18488 0.82118 0.0
C483 C 0.48763 0.18126 0.81399 0.0
C484 C 0.49415 0.16399 0.79272 0.0
C485 C 0.474 0.15079 0.77885 0.0
C486 C 0.45315 0.20341 0.84339 0.0
C487 C 0.52235 0.15904 0.78502 0.0
H488 H 0.54289 0.2536 0.8295 0.0
H489 H 0.54468 0.18962 0.88582 0.0
H490 H 0.51021 0.22041 0.77862 0.0
H491 H 0.48506 0.23608 0.79775 0.0
H492 H 0.51569 0.25311 0.79202 0.0
H493 H 0.52058 0.15062 0.88031 0.0
H494 H 0.48861 0.1571 0.86651 0.0
H495 H 0.51337 0.14219 0.84628 0.0
H496 H 0.42111 0.17328 0.81337 0.0
H497 H 0.47876 0.13741 0.76269 0.0
H498 H 0.46116 0.22354 0.83967 0.0
H499 H 0.46152 0.19638 0.86244 0.0
H500 H 0.4315 0.20492 0.84564 0.0
H501 H 0.5316 0.17782 0.7784 0.0
H502 H 0.52417 0.14417 0.76883 0.0
H503 H 0.53357 0.15191 0.80248 0.0
C504 C 0.77352 0.54796 0.82992 0.0
C505 C 0.78559 0.55977 0.85197 0.0
C506 C 0.786 0.52749 0.81572 0.0
C507 C 0.81132 0.51889 0.8235 0.0
C508 C 0.8232 0.53012 0.84628 0.0
C509 C 0.81013 0.55026 0.86031 0.0
C510 C 0.77238 0.51552 0.79197 0.0
C511 C 0.85012 0.5215 0.85534 0.0
C512 C 0.83655 0.45253 0.79824 0.0
C513 C 0.85336 0.4602 0.77744 0.0
C514 C 0.8229 0.47136 0.81344 0.0
C515 C 0.82567 0.49862 0.80748 0.0
C516 C 0.8424 0.50654 0.78638 0.0
C517 C 0.85624 0.48725 0.77175 0.0
C518 C 0.80574 0.46205 0.83607 0.0
C519 C 0.84572 0.53544 0.77932 0.0
H520 H 0.75449 0.55505 0.82345 0.0
H521 H 0.81968 0.55925 0.8773 0.0
H522 H 0.78393 0.51966 0.77374 0.0
H523 H 0.77119 0.49365 0.79412 0.0
H524 H 0.75222 0.52345 0.78927 0.0
H525 H 0.85596 0.53105 0.87432 0.0
H526 H 0.85073 0.49967 0.85796 0.0
H527 H 0.86486 0.52667 0.83996 0.0
H528 H 0.83439 0.43169 0.80307 0.0
H529 H 0.86916 0.49332 0.75576 0.0
H530 H 0.78527 0.46885 0.83302 0.0
H531 H 0.81266 0.47082 0.85502 0.0
H532 H 0.80569 0.4401 0.83812 0.0
H533 H 0.82639 0.54419 0.77422 0.0
H534 H 0.85929 0.53838 0.7623 0.0
H535 H 0.85341 0.54655 0.79667 0.0
C536 C 0.53458 0.84632 0.77692 0.0
C537 C 0.5489 0.86431 0.79247 0.0
C538 C 0.51494 0.83033 0.78832 0.0
C539 C 0.50973 0.83228 0.81588 0.0
C540 C 0.5241 0.85041 0.83161 0.0
C541 C 0.54331 0.86632 0.81969 0.0
C542 C 0.49971 0.81143 0.77091 0.0
C543 C 0.51927 0.85296 0.8611 0.0
C544 C 0.44302 0.81476 0.84376 0.0
C545 C 0.44745 0.78957 0.85454 0.0
C546 C 0.46288 0.82834 0.83024 0.0
C547 C 0.48807 0.81678 0.82814 0.0
C548 C 0.49272 0.79125 0.83903 0.0
C549 C 0.4721 0.77767 0.85174 0.0
C550 C 0.45694 0.85524 0.81847 0.0
C551 C 0.51955 0.77863 0.83777 0.0
H552 H 0.53891 0.84449 0.75593 0.0
H553 H 0.55435 0.88001 0.83195 0.0
H554 H 0.50176 0.79087 0.77844 0.0
H555 H 0.47852 0.81646 0.77159 0.0
H556 H 0.5064 0.81198 0.74992 0.0
H557 H 0.53306 0.86706 0.87073 0.0
H558 H 0.49893 0.85993 0.86474 0.0
H559 H 0.52129 0.83332 0.87081 0.0
H560 H 0.42377 0.82376 0.84559 0.0
H561 H 0.47542 0.75816 0.86014 0.0
H562 H 0.4622 0.85548 0.79709 0.0
H563 H 0.46896 0.87064 0.82843 0.0
H564 H 0.43591 0.86071 0.82052 0.0
H565 H 0.52558 0.77598 0.81678 0.0
H566 H 0.52008 0.75903 0.84783 0.0
H567 H 0.53425 0.79183 0.84725 0.0
C568 C 0.16675 0.2072 0.56057 0.0
C569 C 0.14417 0.22133 0.55344 0.0
C570 C 0.18169 0.19359 0.54147 0.0
C571 C 0.17444 0.19492 0.51435 0.0
C572 C 0.15136 0.20895 0.50711 0.0
C573 C 0.1362 0.22159 0.52686 0.0
C574 C 0.20541 0.178 0.55031 0.0
C575 C 0.14309 0.21121 0.47844 0.0
C576 C 0.23063 0.18817 0.46485 0.0
C577 C 0.22694 0.16252 0.45464 0.0
C578 C 0.21345 0.19893 0.48386 0.0
C579 C 0.19224 0.18356 0.49354 0.0
C580 C 0.18859 0.15744 0.4837 0.0
C581 C 0.20583 0.14733 0.46421 0.0
C582 C 0.2178 0.22703 0.49331 0.0
C583 C 0.16671 0.14005 0.49398 0.0
H584 H 0.17251 0.20647 0.58129 0.0
H585 H 0.1185 0.23222 0.52147 0.0
H586 H 0.20456 0.15755 0.54221 0.0
H587 H 0.22351 0.1874 0.54247 0.0
H588 H 0.20694 0.17686 0.57229 0.0
H589 H 0.12437 0.22225 0.47614 0.0
H590 H 0.1586 0.22157 0.46693 0.0
H591 H 0.14073 0.1912 0.46962 0.0
H592 H 0.2466 0.20027 0.4574 0.0
H593 H 0.20276 0.12752 0.45644 0.0
H594 H 0.22168 0.22716 0.51497 0.0
H595 H 0.19985 0.23902 0.48989 0.0
H596 H 0.23454 0.23678 0.48306 0.0
H597 H 0.17061 0.13488 0.51502 0.0
H598 H 0.16478 0.12139 0.48241 0.0
H599 H 0.1477 0.15075 0.49343 0.0
C600 C 0.77439 0.18165 0.5495 0.0
C601 C 0.78076 0.15518 0.55522 0.0
C602 C 0.78863 0.19622 0.53049 0.0
C603 C 0.80971 0.18406 0.51674 0.0
C604 C 0.81588 0.15718 0.52201 0.0
C605 C 0.80138 0.14311 0.54115 0.0
C606 C 0.78145 0.22482 0.52549 0.0
C607 C 0.83807 0.14336 0.5077 0.0
C608 C 0.831 0.21453 0.45103 0.0
C609 C 0.85429 0.22758 0.45804 0.0
C610 C 0.81656 0.20004 0.46983 0.0
C611 C 0.82507 0.19934 0.49657 0.0
C612 C 0.84834 0.21299 0.50388 0.0
C613 C 0.86299 0.2265 0.48437 0.0
C614 C 0.79256 0.1849 0.4609 0.0
C615 C 0.85779 0.21321 0.53227 0.0
H616 H 0.75864 0.19125 0.56033 0.0
H617 H 0.80659 0.12273 0.54545 0.0
H618 H 0.79855 0.23777 0.52977 0.0
H619 H 0.77633 0.22766 0.50429 0.0
H620 H 0.76461 0.23143 0.53787 0.0
H621 H 0.83967 0.1221 0.51325 0.0
H622 H 0.83522 0.14474 0.48591 0.0
H623 H 0.85694 0.15327 0.51239 0.0
H624 H 0.82463 0.21476 0.4305 0.0
H625 H 0.88115 0.23636 0.48969 0.0
H626 H 0.77502 0.19189 0.47192 0.0
H627 H 0.79499 0.1635 0.46542 0.0
H628 H 0.78884 0.18709 0.43928 0.0
H629 H 0.84221 0.22124 0.54543 0.0
H630 H 0.87582 0.22533 0.53484 0.0
H631 H 0.86194 0.19268 0.53894 0.0
C632 C 0.77461 0.8384 0.4719 0.0
C633 C 0.78898 0.8549 0.45481 0.0
C634 C 0.78695 0.82486 0.49298 0.0
C635 C 0.81438 0.82768 0.49702 0.0
C636 C 0.82884 0.84482 0.48023 0.0
C637 C 0.816 0.85823 0.45949 0.0
C638 C 0.77074 0.80701 0.51057 0.0
C639 C 0.85808 0.84834 0.48357 0.0
C640 C 0.84298 0.8066 0.56395 0.0
C641 C 0.85127 0.78054 0.55867 0.0
C642 C 0.83127 0.82229 0.54406 0.0
C643 C 0.82807 0.81189 0.5181 0.0
C644 C 0.83749 0.78605 0.51239 0.0
C645 C 0.84872 0.77065 0.53274 0.0
C646 C 0.82154 0.84969 0.55106 0.0
C647 C 0.83516 0.77438 0.48488 0.0
H648 H 0.75379 0.83562 0.46851 0.0
H649 H 0.82742 0.87087 0.44646 0.0
H650 H 0.77739 0.78618 0.50829 0.0
H651 H 0.77352 0.81255 0.53171 0.0
H652 H 0.74948 0.80801 0.50581 0.0
H653 H 0.86622 0.86362 0.46997 0.0
H654 H 0.86275 0.85409 0.50429 0.0
H655 H 0.86818 0.82925 0.47959 0.0
H656 H 0.84469 0.81441 0.58392 0.0
H657 H 0.85518 0.75063 0.5284 0.0
H658 H 0.79994 0.85059 0.54846 0.0
H659 H 0.83027 0.8646 0.53748 0.0
H660 H 0.82633 0.85529 0.57183 0.0
H661 H 0.81414 0.77212 0.47959 0.0
H662 H 0.84482 0.7547 0.48326 0.0
H663 H 0.8441 0.78794 0.47007 0.0
C664 C 0.14537 0.80235 0.45939 0.0
C665 C 0.15288 0.77564 0.45727 0.0
C666 C 0.15611 0.81891 0.47904 0.0
C667 C 0.17425 0.80834 0.4975 0.0
C668 C 0.18109 0.78113 0.49608 0.0
C669 C 0.17063 0.76522 0.47575 0.0
C670 C 0.14869 0.8479 0.47949 0.0
C671 C 0.19966 0.76887 0.51592 0.0
C672 C 0.22235 0.85223 0.53548 0.0
C673 C 0.2093 0.85543 0.55975 0.0
C674 C 0.21068 0.83785 0.5146 0.0
C675 C 0.18591 0.82556 0.51853 0.0
C676 C 0.17274 0.82881 0.54306 0.0
C677 C 0.18439 0.84403 0.56316 0.0
C678 C 0.22494 0.83558 0.48842 0.0
C679 C 0.14668 0.81553 0.54841 0.0
H680 H 0.1319 0.81065 0.44498 0.0
H681 H 0.17648 0.7446 0.47422 0.0
H682 H 0.14053 0.85336 0.49917 0.0
H683 H 0.16646 0.86023 0.4763 0.0
H684 H 0.13402 0.85294 0.464 0.0
H685 H 0.20208 0.74719 0.5128 0.0
H686 H 0.21921 0.77843 0.51441 0.0
H687 H 0.19234 0.77227 0.5364 0.0
H688 H 0.24156 0.86109 0.5328 0.0
H689 H 0.17438 0.84613 0.58205 0.0
H690 H 0.21186 0.84177 0.47195 0.0
H691 H 0.23045 0.81461 0.48477 0.0
H692 H 0.243 0.84791 0.48785 0.0
H693 H 0.13185 0.82236 0.53385 0.0
H694 H 0.13922 0.81967 0.56873 0.0
H695 H 0.14864 0.79374 0.54597 0.0
C696 C 0.66023 0.95149 0.70133 0.0
C697 C 0.63918 0.95923 0.71745 0.0
C698 C 0.67653 0.97031 0.68911 0.0
C699 C 0.67147 0.99766 0.69287 0.0
C700 C 0.6496 0.0056 0.70849 0.0
C701 C 0.63366 0.98622 0.72065 0.0
C702 C 0.6994 0.96086 0.67253 0.0
C703 C 0.64332 0.03456 0.71265 0.0
C704 C 0.72922 0.04514 0.68641 0.0
C705 C 0.7248 0.05682 0.66152 0.0
C706 C 0.712 0.02598 0.69676 0.0
C707 C 0.68994 0.01785 0.68173 0.0
C708 C 0.6858 0.02887 0.6562 0.0
C709 C 0.70316 0.04835 0.64648 0.0
C710 C 0.71708 0.01485 0.72411 0.0
C711 C 0.66293 0.02024 0.63924 0.0
H712 H 0.66392 0.93058 0.69817 0.0
H713 H 0.61705 0.99212 0.73275 0.0
H714 H 0.69865 0.96994 0.6525 0.0
H715 H 0.71809 0.96718 0.68187 0.0
H716 H 0.6997 0.93893 0.67032 0.0
H717 H 0.62521 0.03747 0.72462 0.0
H718 H 0.65991 0.04446 0.7229 0.0
H719 H 0.64076 0.04455 0.69321 0.0
H720 H 0.74571 0.05163 0.69833 0.0
H721 H 0.69959 0.05719 0.62721 0.0
H722 H 0.71931 0.99299 0.72302 0.0
H723 H 0.70007 0.01902 0.73725 0.0
H724 H 0.735 0.02334 0.73334 0.0
H725 H 0.66473 0.99881 0.63455 0.0
H726 H 0.6618 0.03147 0.62031 0.0
H727 H 0.64424 0.02291 0.65023 0.0
C728 C 0.95096 0.7226 0.68428 0.0
C729 C 0.94603 0.71716 0.65744 0.0
C730 C 0.97166 0.71014 0.69776 0.0
C731 C 0.98795 0.69198 0.68402 0.0
C732 C 0.9838 0.68729 0.65663 0.0
C733 C 0.96283 0.69987 0.64369 0.0
C734 C 0.97552 0.71568 0.72696 0.0
C735 C 0.00102 0.66841 0.64116 0.0
C736 C 0.05317 0.67463 0.71599 0.0
C737 C 0.04783 0.6496 0.72684 0.0
C738 C 0.03406 0.68839 0.70146 0.0
C739 C 0.00873 0.67725 0.69859 0.0
C740 C 0.00314 0.65211 0.70989 0.0
C741 C 0.02297 0.63833 0.72347 0.0
C742 C 0.04115 0.71457 0.68876 0.0
C743 C 0.97621 0.63982 0.70766 0.0
H744 H 0.93812 0.73595 0.69506 0.0
H745 H 0.95926 0.69565 0.62291 0.0
H746 H 0.97279 0.69711 0.73846 0.0
H747 H 0.99583 0.72268 0.73065 0.0
H748 H 0.96159 0.73083 0.7346 0.0
H749 H 0.99672 0.66882 0.61954 0.0
H750 H 0.02202 0.67337 0.64416 0.0
H751 H 0.99801 0.64789 0.64847 0.0
H752 H 0.07267 0.68303 0.718 0.0
H753 H 0.01902 0.61885 0.73166 0.0
H754 H 0.02862 0.73059 0.69695 0.0
H755 H 0.03742 0.71367 0.66707 0.0
H756 H 0.06205 0.71995 0.69197 0.0
H757 H 0.96134 0.65333 0.71642 0.0
H758 H 0.97497 0.62033 0.71787 0.0
H759 H 0.97101 0.637 0.68647 0.0
C760 C 0.35254 0.0479 0.70454 0.0
C761 C 0.34803 0.04947 0.73206 0.0
C762 C 0.33958 0.02903 0.68876 0.0
C763 C 0.3219 0.011 0.70078 0.0
C764 C 0.31834 0.01155 0.72869 0.0
C765 C 0.33126 0.03091 0.74396 0.0
C766 C 0.34388 0.02928 0.65909 0.0
C767 C 0.30025 0.99214 0.74234 0.0
C768 C 0.26556 0.9801 0.66187 0.0
C769 C 0.27504 0.95441 0.65717 0.0
C770 C 0.28102 0.99905 0.67516 0.0
C771 C 0.30644 0.99207 0.68423 0.0
C772 C 0.31646 0.96651 0.67868 0.0
C773 C 0.30074 0.94809 0.66515 0.0
C774 C 0.2699 0.02635 0.68014 0.0
C775 C 0.34353 0.95832 0.68773 0.0
H776 H 0.36533 0.06223 0.69504 0.0
H777 H 0.32775 0.03189 0.76516 0.0
H778 H 0.34774 0.00896 0.65158 0.0
H779 H 0.32586 0.03654 0.64912 0.0
H780 H 0.36051 0.0423 0.65324 0.0
H781 H 0.30074 0.99417 0.76429 0.0
H782 H 0.27981 0.99534 0.73548 0.0
H783 H 0.30574 0.97152 0.73702 0.0
H784 H 0.24588 0.98528 0.65558 0.0
H785 H 0.30844 0.92838 0.6615 0.0
H786 H 0.28369 0.04172 0.67277 0.0
H787 H 0.26748 0.02954 0.7018 0.0
H788 H 0.25058 0.02924 0.67037 0.0
H789 H 0.35846 0.97228 0.67987 0.0
H790 H 0.34871 0.93793 0.68119 0.0
H791 H 0.34463 0.95916 0.70971 0.0
C792 C 0.03943 0.27816 0.66705 0.0
C793 C 0.05154 0.29183 0.64607 0.0
C794 C 0.0192 0.28997 0.68201 0.0
C795 C 0.01104 0.31615 0.67602 0.0
C796 C 0.02324 0.33004 0.65493 0.0
C797 C 0.04315 0.31767 0.64014 0.0
C798 C 0.00643 0.27438 0.70411 0.0
C799 C 0.01529 0.35805 0.64798 0.0
C800 C 0.94194 0.33923 0.69167 0.0
C801 C 0.94561 0.35465 0.71455 0.0
C802 C 0.96289 0.32582 0.67967 0.0
C803 C 0.98843 0.32843 0.69033 0.0
C804 C 0.9923 0.3438 0.71364 0.0
C805 C 0.97067 0.35642 0.72579 0.0
C806 C 0.9577 0.3092 0.65527 0.0
C807 C 0.01932 0.34746 0.72529 0.0
H808 H 0.0459 0.25829 0.67196 0.0
H809 H 0.0525 0.32858 0.62419 0.0
H810 H 0.00813 0.28536 0.72312 0.0
H811 H 0.98519 0.27192 0.69995 0.0
H812 H 0.01536 0.25445 0.70663 0.0
H813 H 0.02764 0.36663 0.63195 0.0
H814 H 0.99452 0.35837 0.64141 0.0
H815 H 0.01676 0.37096 0.66577 0.0
H816 H 0.92247 0.33747 0.68319 0.0
H817 H 0.97349 0.36833 0.74348 0.0
H818 H 0.96557 0.28888 0.65808 0.0
H819 H 0.96794 0.31795 0.63791 0.0
H820 H 0.93645 0.30775 0.6506 0.0
H821 H 0.02778 0.32793 0.73066 0.0
H822 H 0.0191 0.36027 0.74325 0.0
H823 H 0.03256 0.35652 0.71031 0.0
C824 C 0.73069 0.96648 0.32559 0.0
C825 C 0.72339 0.95229 0.34842 0.0
C826 C 0.71377 0.98524 0.31405 0.0
C827 C 0.68886 0.99016 0.3256 0.0
C828 C 0.68165 0.97652 0.34908 0.0
C829 C 0.69894 0.95776 0.36017 0.0
C830 C 0.72235 0.99946 0.28913 0.0
C831 C 0.65539 0.98127 0.36216 0.0
C832 C 0.65667 0.0554 0.30603 0.0
C833 C 0.64003 0.04765 0.28515 0.0
C834 C 0.67197 0.03683 0.31989 0.0
C835 C 0.67057 0.00966 0.31298 0.0
C836 C 0.65293 1.00149 0.29278 0.0
C837 C 0.63796 0.02057 0.27904 0.0
C838 C 0.6904 0.04649 0.34127 0.0
C839 C 0.65054 0.97266 0.28506 0.0
H840 H 0.74944 0.96244 0.31624 0.0
H841 H 0.69299 0.94692 0.37775 0.0
H842 H 0.70856 0.99493 0.27271 0.0
H843 H 0.72186 0.02123 0.29234 0.0
H844 H 0.74247 0.99374 0.28282 0.0
H845 H 0.65331 0.97025 0.38114 0.0
H846 H 0.65261 1.00273 0.36614 0.0
H847 H 0.63942 0.97498 0.34858 0.0
H848 H 0.65845 0.07621 0.3111 0.0
H849 H 0.62509 0.0143 0.26312 0.0
H850 H 0.71101 0.04304 0.33501 0.0
H851 H 0.68721 0.03521 0.3599 0.0
H852 H 0.68789 0.06797 0.34554 0.0
H853 H 0.66927 0.96579 0.27615 0.0
H854 H 0.6345 0.96923 0.27055 0.0
H855 H 0.64684 0.9603 0.30289 0.0
C856 C 0.95377 0.67452 0.28065 0.0
C857 C 0.94814 0.64848 0.28859 0.0
C858 C 0.97232 0.6899 0.29436 0.0
C859 C 0.98598 0.67876 0.31614 0.0
C860 C 0.98099 0.65217 0.32367 0.0
C861 C 0.96191 0.63746 0.30999 0.0
C862 C 0.97674 0.71833 0.28608 0.0
C863 C 0.99561 0.63935 0.34634 0.0
C864 C 0.05041 0.7109 0.33597 0.0
C865 C 0.04337 0.7243 0.35929 0.0
C866 C 0.032 0.69569 0.32196 0.0
C867 C 0.00567 0.69483 0.33089 0.0
C868 C 0.99832 0.70897 0.3541 0.0
C869 C 0.01746 0.72308 0.3684 0.0
C870 C 0.04087 0.68006 0.29799 0.0
C871 C 0.9703 0.70908 0.36386 0.0
H872 H 0.94285 0.6833 0.26443 0.0
H873 H 0.95753 0.61737 0.31626 0.0
H874 H 0.97265 0.73178 0.30304 0.0
H875 H 0.99755 0.72131 0.28034 0.0
H876 H 0.96409 0.72422 0.26913 0.0
H877 H 0.99026 0.61814 0.34892 0.0
H878 H 0.01709 0.64073 0.3429 0.0
H879 H 0.99131 0.64999 0.36513 0.0
H880 H 0.07065 0.71142 0.32928 0.0
H881 H 0.01219 0.73331 0.38657 0.0
H882 H 0.03145 0.68808 0.27986 0.0
H883 H 0.03477 0.65901 0.29988 0.0
H884 H 0.06249 0.68071 0.29529 0.0
H885 H 0.95707 0.71612 0.34787 0.0
H886 H 0.96763 0.72196 0.38156 0.0
H887 H 0.96413 0.68864 0.36906 0.0
C888 C 0.31777 0.94354 0.29385 0.0
C889 C 0.34345 0.9458 0.28413 0.0
C890 C 0.30622 0.9639 0.30897 0.0
C891 C 0.32043 0.98753 0.31402 0.0
C892 C 0.34656 0.98983 0.30437 0.0
C893 C 0.35786 0.96881 0.28972 0.0
C894 C 0.27861 0.96023 0.31925 0.0
C895 C 0.36234 0.01473 0.30906 0.0
C896 C 0.27928 0.04917 0.32921 0.0
C897 C 0.28138 0.05115 0.35693 0.0
C898 C 0.2923 0.02896 0.31503 0.0
C899 C 0.30757 0.00992 0.32882 0.0
C900 C 0.3096 0.01171 0.35683 0.0
C901 C 0.29659 0.03228 0.37048 0.0
C902 C 0.28989 0.02814 0.28517 0.0
C903 C 0.32531 0.99174 0.37247 0.0
H904 H 0.30662 0.92574 0.28947 0.0
H905 H 0.37764 0.97066 0.28198 0.0
H906 H 0.27817 0.96306 0.3411 0.0
H907 H 0.2655 0.97541 0.31043 0.0
H908 H 0.27061 0.94027 0.31456 0.0
H909 H 0.38227 0.01354 0.30017 0.0
H910 H 0.35196 0.03205 0.30045 0.0
H911 H 0.36431 0.01842 0.33068 0.0
H912 H 0.26795 0.06382 0.31845 0.0
H913 H 0.29846 0.03363 0.39187 0.0
H914 H 0.2805 0.00928 0.27896 0.0
H915 H 0.30967 0.02875 0.27596 0.0
H916 H 0.27812 0.04492 0.27729 0.0
H917 H 0.31556 0.97209 0.37138 0.0
H918 H 0.32725 0.99742 0.39369 0.0
H919 H 0.34524 0.98946 0.36387 0.0
C920 C 0.05365 0.35346 0.32228 0.0
C921 C 0.05107 0.36233 0.29601 0.0
C922 C 0.0334 0.33954 0.33498 0.0
C923 C 0.00959 0.33486 0.32135 0.0
C924 C 0.00676 0.34383 0.2948 0.0
C925 C 0.02773 0.35714 0.28228 0.0
C926 C 0.03753 0.32983 0.36304 0.0
C927 C 0.98146 0.33972 0.27981 0.0
C928 C 0.96359 0.28155 0.34841 0.0
C929 C 0.94629 0.29665 0.36398 0.0
C930 C 0.98427 0.29368 0.33434 0.0
C931 C 0.98739 0.3216 0.33545 0.0
C932 C 0.96993 0.33689 0.35107 0.0
C933 C 0.94983 0.32424 0.36531 0.0
C934 C 0.00283 0.27663 0.31837 0.0
C935 C 0.97236 0.36672 0.35262 0.0
H936 H 0.07185 0.35692 0.33287 0.0
H937 H 0.02571 0.36388 0.26195 0.0
H938 H 0.02323 0.33946 0.37657 0.0
H939 H 0.03404 0.30813 0.36409 0.0
H940 H 0.05765 0.33402 0.37041 0.0
H941 H 0.98239 0.3478 0.25932 0.0
H942 H 0.97676 0.31827 0.27872 0.0
H943 H 0.96508 0.34953 0.29054 0.0
H944 H 0.96095 0.26025 0.3472 0.0
H945 H 0.93642 0.33617 0.37701 0.0
H946 H 0.02322 0.27947 0.32553 0.0
H947 H 0.00242 0.28271 0.29722 0.0
H948 H 0.99784 0.25521 0.31964 0.0
H949 H 0.99144 0.37218 0.36168 0.0
H950 H 0.95638 0.37586 0.36454 0.0
H951 H 0.97197 0.37536 0.33237 0.0
C952 C 0.70705 0.65125 0.95326 0.0
C953 C 0.73194 0.66283 0.94968 0.0
C954 C 0.68966 0.66057 0.97293 0.0
C955 C 0.69735 0.68191 0.9895 0.0
C956 C 0.7231 0.69229 0.98725 0.0
C957 C 0.74002 0.68268 0.96738 0.0
C958 C 0.66261 0.64853 0.97497 0.0
C959 C 0.73237 0.71455 0.00497 0.0
C960 C 0.64723 0.7309 0.01709 0.0
C961 C 0.64669 0.72405 0.04405 0.0
C962 C 0.66288 0.71666 0.99894 0.0
C963 C 0.67814 0.69488 0.00787 0.0
C964 C 0.67661 0.68707 0.0348 0.0
C965 C 0.66108 0.70181 0.05254 0.0
C966 C 0.66383 0.72553 0.97033 0.0
C967 C 0.6918 0.66348 0.04504 0.0
H968 H 0.70057 0.63579 0.93982 0.0
H969 H 0.75928 0.69152 0.96506 0.0
H970 H 0.65735 0.64468 0.99599 0.0
H971 H 0.64794 0.66267 0.96696 0.0
H972 H 0.66105 0.62967 0.96366 0.0
H973 H 0.75345 0.71928 1.00188 0.0
H974 H 0.72064 0.73266 1.00095 0.0
H975 H 0.72935 0.70928 0.02613 0.0
H976 H 0.63606 0.74787 0.01031 0.0
H977 H 0.66042 0.69598 0.07324 0.0
H978 H 0.65912 0.70868 0.95698 0.0
H979 H 0.68397 0.73229 0.96534 0.0
H980 H 0.64991 0.74197 0.96622 0.0
H981 H 0.68642 0.64546 0.03363 0.0
H982 H 0.68806 0.65969 0.06645 0.0
H983 H 0.71314 0.66673 0.04217 0.0
C984 C 0.27129 0.67601 0.04427 0.0
C985 C 0.28426 0.65678 0.05948 0.0
C986 C 0.28438 0.68955 0.02369 0.0
C987 C 0.31126 0.68423 0.01864 0.0
C988 C 0.32433 0.66462 0.03378 0.0
C989 C 0.31061 0.65095 0.05374 0.0
C990 C 0.26951 0.70973 0.00749 0.0
C991 C 0.35305 0.65858 0.02941 0.0
C992 C 0.34083 0.70309 0.95178 0.0
C993 C 0.3524 0.72779 0.95725 0.0
C994 C 0.3273 0.68884 0.97147 0.0
C995 C 0.32574 0.69917 0.99756 0.0
C996 C 0.33794 0.72377 1.00344 0.0
C997 C 0.3508 0.73798 0.98313 0.0
C998 C 0.31422 0.66296 0.96417 0.0
C999 C 0.33732 0.73511 0.03118 0.0
H1000 H 0.25092 0.68054 0.04852 0.0
H1001 H 0.3209 0.63629 0.06553 0.0
H1002 H 0.2783 0.72966 0.0103 0.0
H1003 H 0.27104 0.70484 0.98606 0.0
H1004 H 0.24843 0.71067 0.01303 0.0
H1005 H 0.3602 0.6424 0.0425 0.0
H1006 H 0.35655 0.65279 0.00846 0.0
H1007 H 0.3649 0.67663 0.0333 0.0
H1008 H 0.34162 0.69519 0.93177 0.0
H1009 H 0.35969 0.75702 0.98752 0.0
H1010 H 0.29286 0.6642 0.9683 0.0
H1011 H 0.32218 0.64663 0.97648 0.0
H1012 H 0.31703 0.65779 0.94291 0.0
H1013 H 0.31674 0.73911 0.03718 0.0
H1014 H 0.34871 0.75382 0.03282 0.0
H1015 H 0.34541 0.72051 0.04547 0.0
C1016 C 0.29278 0.35776 0.96538 0.0
C1017 C 0.27424 0.34147 0.95271 0.0
C1018 C 0.30865 0.34798 0.98606 0.0
C1019 C 0.30622 0.32114 0.99408 0.0
C1020 C 0.28723 0.30478 0.9817 0.0
C1021 C 0.27142 0.31515 0.96136 0.0
C1022 C 0.32836 0.36625 0.99895 0.0
C1023 C 0.28395 0.27609 0.98963 0.0
C1024 C 0.36262 0.28666 0.03036 0.0
C1025 C 0.35366 0.28721 0.05663 0.0
C1026 C 0.34757 0.29796 0.00976 0.0
C1027 C 0.32312 0.31013 0.01571 0.0
C1028 C 0.31436 0.31106 0.04238 0.0
C1029 C 0.32981 0.29976 0.06245 0.0
C1030 C 0.35779 0.29691 0.98164 0.0
C1031 C 0.28867 0.32406 0.04977 0.0
H1032 H 0.29519 0.3781 0.95886 0.0
H1033 H 0.25732 0.30229 0.95168 0.0
H1034 H 0.32619 0.36575 0.02087 0.0
H1035 H 0.34852 0.35943 0.99423 0.0
H1036 H 0.32623 0.38709 0.99213 0.0
H1037 H 0.26831 0.26596 0.9781 0.0
H1038 H 0.30268 0.26529 0.98657 0.0
H1039 H 0.27904 0.27473 0.01106 0.0
H1040 H 0.3814 0.27753 0.02597 0.0
H1041 H 0.3234 0.30118 0.08287 0.0
H1042 H 0.35974 0.3173 0.97362 0.0
H1043 H 0.34362 0.2862 0.96881 0.0
H1044 H 0.37715 0.28689 0.98028 0.0
H1045 H 0.28837 0.34488 0.04266 0.0
H1046 H 0.28515 0.32402 0.07153 0.0
H1047 H 0.2722 0.31354 0.03994 0.0
C1048 C 0.69453 0.34763 0.05909 0.0
C1049 C 0.71743 0.36146 0.05186 0.0
C1050 C 0.67995 0.33326 0.04036 0.0
C1051 C 0.6884 0.33254 0.01363 0.0
C1052 C 0.71074 0.34746 0.00587 0.0
C1053 C 0.72498 0.3618 0.02508 0.0
C1054 C 0.65612 0.31792 0.04948 0.0
C1055 C 0.7202 0.34741 0.97746 0.0
C1056 C 0.67151 0.27121 0.97303 0.0
C1057 C 0.65092 0.28033 0.957 0.0
C1058 C 0.68369 0.28797 0.9916 0.0
C1059 C 0.67508 0.31455 0.99433 0.0
C1060 C 0.6538 0.32369 0.97878 0.0
C1061 C 0.64194 0.30648 0.96037 0.0
C1062 C 0.70619 0.27736 0.00794 0.0
C1063 C 0.6438 0.35177 0.98131 0.0
H1064 H 0.68826 0.34746 0.07966 0.0
H1065 H 0.74251 0.3725 0.01925 0.0
H1066 H 0.63901 0.32252 0.0367 0.0
H1067 H 0.65997 0.29634 0.04769 0.0
H1068 H 0.65085 0.32235 0.07043 0.0
H1069 H 0.73675 0.36141 0.97424 0.0
H1070 H 0.72677 0.32716 0.97192 0.0
H1071 H 0.70393 0.35282 0.96389 0.0
H1072 H 0.67865 0.25111 0.97061 0.0
H1073 H 0.62605 0.31378 0.94809 0.0
H1074 H 0.70171 0.27943 0.0294 0.0
H1075 H 0.72418 0.2891 1.0039 0.0
H1076 H 0.71037 0.25616 1.00365 0.0
H1077 H 0.63616 0.35511 1.00168 0.0
H1078 H 0.62791 0.35619 0.9669 0.0
H1079 H 0.66006 0.36606 0.97815 0.0
C1080 C 0.17297 0.31464 0.2982 0.0
C1081 C 0.14594 0.31814 0.30172 0.0
C1082 C 0.18557 0.29188 0.30801 0.0
C1083 C 0.17081 0.27262 0.32211 0.0
C1084 C 0.14371 0.27678 0.32668 0.0
C1085 C 0.13154 0.29934 0.31611 0.0
C1086 C 0.21443 0.28793 0.30242 0.0
C1087 C 0.12743 0.25709 0.34217 0.0
C1088 C 0.19662 0.20187 0.32755 0.0
C1089 C 0.20849 0.20247 0.3526 0.0
C1090 C 0.18434 0.22465 0.31723 0.0
C1091 C 0.18371 0.24831 0.33251 0.0
C1092 C 0.19514 0.24871 0.35804 0.0
C1093 C 0.20742 0.22587 0.3677 0.0
C1094 C 0.17247 0.2236 0.28981 0.0
C1095 C 0.1946 0.27337 0.37511 0.0
H1096 H 0.18391 0.32888 0.28645 0.0
H1097 H 0.11055 0.30203 0.31854 0.0
H1098 H 0.22531 0.28524 0.32128 0.0
H1099 H 0.21728 0.26965 0.29049 0.0
H1100 H 0.22314 0.30491 0.29145 0.0
H1101 H 0.10681 0.26378 0.34476 0.0
H1102 H 0.12733 0.23768 0.33178 0.0
H1103 H 0.13617 0.25383 0.36206 0.0
H1104 H 0.1976 0.18391 0.31576 0.0
H1105 H 0.2164 0.22642 0.3872 0.0
H1106 H 0.18198 0.2386 0.27687 0.0
H1107 H 0.15129 0.22858 0.29082 0.0
H1108 H 0.17466 0.20376 0.28045 0.0
H1109 H 0.20491 0.28981 0.36483 0.0
H1110 H 0.20402 0.27023 0.39474 0.0
H1111 H 0.17403 0.27982 0.37839 0.0
C1112 C 0.79829 0.22042 0.33066 0.0
C1113 C 0.81193 0.20667 0.35042 0.0
C1114 C 0.77565 0.20973 0.31919 0.0
C1115 C 0.76637 0.18477 0.32796 0.0
C1116 C 0.78063 0.1704 0.34738 0.0
C1117 C 0.80335 0.18164 0.35851 0.0
C1118 C 0.76117 0.2256 0.29841 0.0
C1119 C 0.77134 0.14368 0.35707 0.0
C1120 C 0.69404 0.17053 0.31573 0.0
C1121 C 0.69538 0.1547 0.29292 0.0
C1122 C 0.7171 0.17998 0.32783 0.0
C1123 C 0.74185 0.17374 0.31652 0.0
C1124 C 0.7432 0.1579 0.29344 0.0
C1125 C 0.72 0.14847 0.28205 0.0
C1126 C 0.71501 0.19673 0.35259 0.0
C1127 C 0.76915 0.15125 0.28049 0.0
H1128 H 0.80483 0.2401 0.32494 0.0
H1129 H 0.81366 0.17147 0.37433 0.0
H1130 H 0.7581 0.21347 0.2803 0.0
H1131 H 0.7415 0.23121 0.30604 0.0
H1132 H 0.77185 0.24399 0.29278 0.0
H1133 H 0.78511 0.13471 0.3716 0.0
H1134 H 0.7518 0.14575 0.36661 0.0
H1135 H 0.76901 0.12987 0.34008 0.0
H1136 H 0.67506 0.17525 0.32426 0.0
H1137 H 0.72121 0.13641 0.26427 0.0
H1138 H 0.72297 0.21683 0.34867 0.0
H1139 H 0.72696 0.1879 0.36873 0.0
H1140 H 0.69443 0.19871 0.35962 0.0
H1141 H 0.77901 0.16975 0.27391 0.0
H1142 H 0.76682 0.138 0.26302 0.0
H1143 H 0.78232 0.14146 0.29499 0.0
C1144 C 0.86663 0.72185 0.29786 0.0
C1145 C 0.85233 0.6983 0.29465 0.0
C1146 C 0.85521 0.74437 0.30935 0.0
C1147 C 0.82869 0.74345 0.31756 0.0
C1148 C 0.81411 0.71966 0.3145 0.0
C1149 C 0.82621 0.69721 0.30325 0.0
C1150 C 0.87153 0.76917 0.31259 0.0
C1151 C 0.78561 0.71814 0.32259 0.0
C1152 C 0.80642 0.792 0.37042 0.0
C1153 C 0.79414 0.81167 0.35529 0.0
C1154 C 0.81802 0.76991 0.35832 0.0
C1155 C 0.81671 0.76711 0.33041 0.0
C1156 C 0.80453 0.78713 0.31494 0.0
C1157 C 0.79365 0.80946 0.3276 0.0
C1158 C 0.83119 0.74929 0.37549 0.0
C1159 C 0.8024 0.78466 0.28515 0.0
H1160 H 0.88684 0.72276 0.29114 0.0
H1161 H 0.81498 0.67918 0.30027 0.0
H1162 H 0.86245 0.7858 0.3015 0.0
H1163 H 0.87215 0.77504 0.33382 0.0
H1164 H 0.89198 0.76652 0.30538 0.0
H1165 H 0.77688 0.69838 0.31841 0.0
H1166 H 0.7836 0.72237 0.34411 0.0
H1167 H 0.77416 0.73345 0.31182 0.0
H1168 H 0.80646 0.79367 0.3919 0.0
H1169 H 0.78353 0.8244 0.31601 0.0
H1170 H 0.8518 0.7464 0.36896 0.0
H1171 H 0.82101 0.72996 0.3733 0.0
H1172 H 0.83118 0.75487 0.39683 0.0
H1173 H 0.82222 0.78595 0.27612 0.0
H1174 H 0.78989 0.80043 0.27639 0.0
H1175 H 0.7941 0.76505 0.27968 0.0
C1176 C 0.27693 0.85103 0.28294 0.0
C1177 C 0.30189 0.84261 0.29094 0.0
C1178 C 0.2545 0.84349 0.29683 0.0
C1179 C 0.25701 0.82701 0.31934 0.0
C1180 C 0.28214 0.8184 0.32773 0.0
C1181 C 0.30444 0.82631 0.31331 0.0
C1182 C 0.22805 0.85309 0.28724 0.0
C1183 C 0.28536 0.80074 0.35169 0.0
C1184 C 0.19766 0.82769 0.36448 0.0
C1185 C 0.18352 0.80594 0.35476 0.0
C1186 C 0.2222 0.83432 0.35375 0.0
C1187 C 0.23296 0.8184 0.3333 0.0
C1188 C 0.21909 0.79599 0.32392 0.0
C1189 C 0.19432 0.7903 0.33444 0.0
C1190 C 0.23628 0.8587 0.36379 0.0
C1191 C 0.23015 0.77833 0.30237 0.0
H1192 H 0.2748 0.86364 0.26565 0.0
H1193 H 0.32377 0.81995 0.31965 0.0
H1194 H 0.21582 0.83591 0.28121 0.0
H1195 H 0.21755 0.86348 0.30351 0.0
H1196 H 0.22971 0.86681 0.27007 0.0
H1197 H 0.30632 0.797 0.35646 0.0
H1198 H 0.27576 0.80984 0.36926 0.0
H1199 H 0.27554 0.78144 0.34806 0.0
H1200 H 0.18944 0.83966 0.38033 0.0
H1201 H 0.18366 0.77322 0.32706 0.0
H1202 H 0.23819 0.87339 0.3475 0.0
H1203 H 0.25642 0.85347 0.37027 0.0
H1204 H 0.22581 0.86823 0.38064 0.0
H1205 H 0.23046 0.78925 0.28326 0.0
H1206 H 0.21843 0.75993 0.29969 0.0
H1207 H 0.25068 0.77272 0.30704 0.0
C1208 C 0.19327 0.69129 0.69741 0.0
C1209 C 0.16808 0.68327 0.70504 0.0
C1210 C 0.19773 0.71689 0.68741 0.0
C1211 C 0.17663 0.73518 0.68591 0.0
C1212 C 0.15118 0.72723 0.69385 0.0
C1213 C 0.14712 0.70122 0.7029 0.0
C1214 C 0.22506 0.72442 0.67856 0.0
C1215 C 0.12839 0.74637 0.69338 0.0
C1216 C 0.19949 0.80672 0.68022 0.0
C1217 C 0.19925 0.81006 0.65263 0.0
C1218 C 0.1906 0.78291 0.69168 0.0
C1219 C 0.18124 0.76224 0.67506 0.0
C1220 C 0.1789 0.7666 0.64742 0.0
C1221 C 0.18797 0.79046 0.63656 0.0
C1222 C 0.19309 0.77917 0.72129 0.0
C1223 C 0.16894 0.74522 0.62897 0.0
H1224 H 0.2095 0.67753 0.69939 0.0
H1225 H 0.1277 0.69532 0.70947 0.0
H1226 H 0.22469 0.73114 0.65759 0.0
H1227 H 0.23242 0.7412 0.69071 0.0
H1228 H 0.23911 0.70767 0.6803 0.0
H1229 H 0.1101 0.73742 0.7014 0.0
H1230 H 0.1332 0.76427 0.70524 0.0
H1231 H 0.12465 0.75305 0.67275 0.0
H1232 H 0.20849 0.82177 0.69262 0.0
H1233 H 0.18775 0.79314 0.61518 0.0
H1234 H 0.20958 0.76545 0.72554 0.0
H1235 H 0.17499 0.77011 0.72956 0.0
H1236 H 0.19693 0.7982 0.73173 0.0
H1237 H 0.18331 0.7287 0.6283 0.0
H1238 H 0.16594 0.75268 0.60844 0.0
H1239 H 0.15013 0.73697 0.63636 0.0
C1240 C 0.30814 0.16123 0.68224 0.0
C1241 C 0.30852 0.15148 0.70823 0.0
C1242 C 0.28486 0.17156 0.67142 0.0
C1243 C 0.26184 0.17262 0.68726 0.0
C1244 C 0.26222 0.16271 0.71345 0.0
C1245 C 0.28546 0.15208 0.7235 0.0
C1246 C 0.28495 0.18176 0.64326 0.0
C1247 C 0.23833 0.16416 0.73124 0.0
C1248 C 0.21306 0.2267 0.67155 0.0
C1249 C 0.19315 0.21256 0.6587 0.0
C1250 C 0.2353 0.21382 0.68129 0.0
C1251 C 0.23795 0.18617 0.67743 0.0
C1252 C 0.21759 0.17163 0.6649 0.0
C1253 C 0.19514 0.18506 0.65585 0.0
C1254 C 0.25611 0.2299 0.69539 0.0
C1255 C 0.21991 0.14213 0.66041 0.0
H1256 H 0.3259 0.1606 0.67038 0.0
H1257 H 0.28567 0.14481 0.74375 0.0
H1258 H 0.26853 0.1728 0.63191 0.0
H1259 H 0.28191 0.20354 0.64328 0.0
H1260 H 0.30367 0.17735 0.63283 0.0
H1261 H 0.24162 0.15448 0.75076 0.0
H1262 H 0.23302 0.18522 0.73476 0.0
H1263 H 0.22129 0.15455 0.72151 0.0
H1264 H 0.21134 0.24805 0.67368 0.0
H1265 H 0.17979 0.17432 0.64553 0.0
H1266 H 0.27481 0.22896 0.68413 0.0
H1267 H 0.25988 0.22152 0.71538 0.0
H1268 H 0.25042 0.25105 0.69769 0.0
H1269 H 0.23719 0.13795 0.64764 0.0
H1270 H 0.20216 0.13368 0.6508 0.0
H1271 H 0.22316 0.13178 0.67955 0.0
C1272 C 0.8318 0.19778 0.65541 0.0
C1273 C 0.80574 0.18914 0.6566 0.0
C1274 C 0.8387 0.22341 0.66397 0.0
C1275 C 0.81885 0.2411 0.67271 0.0
C1276 C 0.79247 0.23236 0.67395 0.0
C1277 C 0.78632 0.20633 0.66632 0.0
C1278 C 0.86718 0.23164 0.66346 0.0
C1279 C 0.77062 0.25078 0.68239 0.0
C1280 C 0.8379 0.30041 0.71483 0.0
C1281 C 0.83998 0.32075 0.69584 0.0
C1282 C 0.83099 0.27452 0.70758 0.0
C1283 C 0.82566 0.26871 0.68067 0.0
C1284 C 0.82696 0.28923 0.66145 0.0
C1285 C 0.83421 0.31503 0.66925 0.0
C1286 C 0.82988 0.25327 0.7287 0.0
C1287 C 0.82087 0.28386 0.63263 0.0
H1288 H 0.84672 0.18453 0.64767 0.0
H1289 H 0.76602 0.19985 0.66665 0.0
H1290 H 0.8699 0.24849 0.64958 0.0
H1291 H 0.87327 0.23854 0.68345 0.0
H1292 H 0.88033 0.21519 0.65724 0.0
H1293 H 0.75114 0.24087 0.68226 0.0
H1294 H 0.77436 0.25852 0.70265 0.0
H1295 H 0.76987 0.26811 0.66884 0.0
H1296 H 0.84206 0.30458 0.73551 0.0
H1297 H 0.8357 0.33059 0.65449 0.0
H1298 H 0.84377 0.23707 0.7237 0.0
H1299 H 0.80996 0.24443 0.72953 0.0
H1300 H 0.83483 0.26104 0.74872 0.0
H1301 H 0.83508 0.26931 0.62447 0.0
H1302 H 0.8217 0.30214 0.62035 0.0
H1303 H 0.80102 0.27499 0.63077 0.0
C1304 C 0.77417 0.78845 0.64611 0.0
C1305 C 0.79618 0.78483 0.66237 0.0
C1306 C 0.75234 0.80259 0.65509 0.0
C1307 C 0.7525 0.81327 0.68101 0.0
C1308 C 0.7747 0.80987 0.69756 0.0
C1309 C 0.7964 0.79564 0.68799 0.0
C1310 C 0.72911 0.80609 0.63681 0.0
C1311 C 0.77544 0.82109 0.72535 0.0
C1312 C 0.70586 0.86972 0.69539 0.0
C1313 C 0.6852 0.85645 0.70802 0.0
C1314 C 0.72789 0.85585 0.68636 0.0
C1315 C 0.72937 0.82816 0.69056 0.0
C1316 C 0.70843 0.81459 0.70311 0.0
C1317 C 0.68634 0.82892 0.71146 0.0
C1318 C 0.74973 0.8709 0.67276 0.0
C1319 C 0.70965 0.78509 0.70821 0.0
H1320 H 0.77397 0.78033 0.62618 0.0
H1321 H 0.81343 0.7929 0.70058 0.0
H1322 H 0.71146 0.79677 0.64573 0.0
H1323 H 0.72475 0.82749 0.6342 0.0
H1324 H 0.73248 0.79715 0.61693 0.0
H1325 H 0.79463 0.81767 0.73522 0.0
H1326 H 0.77153 0.84273 0.72492 0.0
H1327 H 0.75979 0.81182 0.73755 0.0
H1328 H 0.70494 0.89107 0.69298 0.0
H1329 H 0.67057 0.81881 0.7218 0.0
H1330 H 0.75343 0.86244 0.65277 0.0
H1331 H 0.76816 0.86888 0.6843 0.0
H1332 H 0.74518 0.89234 0.67058 0.0
H1333 H 0.71126 0.77425 0.68911 0.0
H1334 H 0.69211 0.77771 0.71906 0.0
H1335 H 0.7274 0.78025 0.72 0.0
C1336 C 0.3009 0.17986 0.31531 0.0
C1337 C 0.31078 0.15503 0.32304 0.0
C1338 C 0.30605 0.19013 0.28987 0.0
C1339 C 0.32142 0.17522 0.27177 0.0
C1340 C 0.33251 0.15083 0.27995 0.0
C1341 C 0.32719 0.14113 0.30549 0.0
C1342 C 0.29417 0.21642 0.28203 0.0
C1343 C 0.34897 0.13432 0.26125 0.0
C1344 C 0.31083 0.18641 0.19777 0.0
C1345 C 0.33323 0.20096 0.19095 0.0
C1346 C 0.30685 0.17766 0.22398 0.0
C1347 C 0.32525 0.18453 0.24395 0.0
C1348 C 0.34769 0.19963 0.23718 0.0
C1349 C 0.35163 0.20727 0.21069 0.0
C1350 C 0.28301 0.16102 0.23027 0.0
C1351 C 0.36725 0.20819 0.258 0.0
H1352 H 0.28809 0.19073 0.32863 0.0
H1353 H 0.33495 0.12197 0.31126 0.0
H1354 H 0.3096 0.22987 0.27426 0.0
H1355 H 0.27969 0.21339 0.26588 0.0
H1356 H 0.28409 0.22632 0.29892 0.0
H1357 H 0.35661 0.11605 0.27084 0.0
H1358 H 0.33706 0.1285 0.24375 0.0
H1359 H 0.36584 0.14608 0.25381 0.0
H1360 H 0.29648 0.18181 0.18257 0.0
H1361 H 0.36866 0.21915 0.20563 0.0
H1362 H 0.2706 0.17127 0.24519 0.0
H1363 H 0.28918 0.14184 0.23906 0.0
H1364 H 0.27091 0.15693 0.21239 0.0
H1365 H 0.35716 0.21998 0.27358 0.0
H1366 H 0.38343 0.22032 0.24953 0.0
H1367 H 0.37586 0.19057 0.26786 0.0
C1368 C 0.84218 0.33892 0.31062 0.0
C1369 C 0.84616 0.31216 0.31686 0.0
C1370 C 0.83384 0.34648 0.2851 0.0
C1371 C 0.83039 0.32687 0.26519 0.0
C1372 C 0.83452 0.29985 0.27144 0.0
C1373 C 0.84191 0.29281 0.29727 0.0
C1374 C 0.82854 0.37539 0.27948 0.0
C1375 C 0.83176 0.27837 0.25069 0.0
C1376 C 0.78804 0.34055 0.20478 0.0
C1377 C 0.80669 0.34907 0.1861 0.0
C1378 C 0.79543 0.33375 0.2307 0.0
C1379 C 0.82226 0.33449 0.23784 0.0
C1380 C 0.8413 0.3422 0.21877 0.0
C1381 C 0.83319 0.35003 0.19326 0.0
C1382 C 0.77442 0.32653 0.25064 0.0
C1383 C 0.8702 0.34216 0.22532 0.0
H1384 H 0.84539 0.35388 0.32573 0.0
H1385 H 0.84528 0.27208 0.30186 0.0
H1386 H 0.84169 0.38257 0.26347 0.0
H1387 H 0.80807 0.37788 0.27237 0.0
H1388 H 0.83143 0.38806 0.29729 0.0
H1389 H 0.83646 0.25838 0.25862 0.0
H1390 H 0.81144 0.27801 0.24285 0.0
H1391 H 0.84502 0.28259 0.23371 0.0
H1392 H 0.76741 0.34035 0.19947 0.0
H1393 H 0.84754 0.35681 0.17888 0.0
H1394 H 0.77553 0.34007 0.26799 0.0
H1395 H 0.7776 0.30611 0.25813 0.0
H1396 H 0.75437 0.32771 0.24209 0.0
H1397 H 0.87426 0.35667 0.24134 0.0
H1398 H 0.88255 0.34721 0.20785 0.0
H1399 H 0.87611 0.32233 0.23278 0.0
C1400 C 0.62734 0.80641 0.21607 0.0
C1401 C 0.64352 0.79651 0.19586 0.0
C1402 C 0.63803 0.81692 0.23945 0.0
C1403 C 0.66558 0.81681 0.24302 0.0
C1404 C 0.68206 0.80713 0.22246 0.0
C1405 C 0.6708 0.79742 0.1989 0.0
C1406 C 0.61982 0.8278 0.26048 0.0
C1407 C 0.71149 0.80612 0.22572 0.0
C1408 C 0.69563 0.86498 0.29209 0.0
C1409 C 0.69995 0.84887 0.31436 0.0
C1410 C 0.6842 0.85484 0.26897 0.0
C1411 C 0.67711 0.82776 0.26789 0.0
C1412 C 0.68092 0.81142 0.29051 0.0
C1413 C 0.69214 0.82226 0.31366 0.0
C1414 C 0.68024 0.87303 0.24548 0.0
C1415 C 0.67382 0.78237 0.28997 0.0
H1416 H 0.60619 0.80551 0.21372 0.0
H1417 H 0.68324 0.78925 0.18347 0.0
H1418 H 0.62199 0.81624 0.27908 0.0
H1419 H 0.6251 0.84865 0.2651 0.0
H1420 H 0.59892 0.82715 0.25426 0.0
H1421 H 0.72158 0.79919 0.20743 0.0
H1422 H 0.71921 0.826 0.23105 0.0
H1423 H 0.71654 0.79247 0.24221 0.0
H1424 H 0.70163 0.88562 0.29259 0.0
H1425 H 0.69583 0.80971 0.33071 0.0
H1426 H 0.65936 0.87275 0.23924 0.0
H1427 H 0.69209 0.86596 0.2284 0.0
H1428 H 0.68593 0.89384 0.24991 0.0
H1429 H 0.65249 0.78006 0.28626 0.0
H1430 H 0.67879 0.77218 0.30886 0.0
H1431 H 0.6843 0.77233 0.27346 0.0
C1432 C 0.18909 0.68709 0.20333 0.0
C1433 C 0.19256 0.65975 0.1999 0.0
C1434 C 0.18029 0.69727 0.22781 0.0
C1435 C 0.1751 0.67961 0.24912 0.0
C1436 C 0.17647 0.65193 0.24485 0.0
C1437 C 0.18503 0.64238 0.22026 0.0
C1438 C 0.17817 0.7269 0.23137 0.0
C1439 C 0.17096 0.63238 0.26689 0.0
C1440 C 0.18865 0.70231 0.31971 0.0
C1441 C 0.16325 0.70529 0.32994 0.0
C1442 C 0.19273 0.69429 0.29332 0.0
C1443 C 0.17085 0.68977 0.27654 0.0
C1444 C 0.14515 0.69324 0.2866 0.0
C1445 C 0.14164 0.70047 0.3133 0.0
C1446 C 0.22048 0.69054 0.28343 0.0
C1447 C 0.12131 0.68942 0.26923 0.0
H1448 H 0.19495 0.70056 0.18764 0.0
H1449 H 0.18742 0.62117 0.21751 0.0
H1450 H 0.15966 0.73209 0.24179 0.0
H1451 H 0.19467 0.73405 0.24382 0.0
H1452 H 0.17883 0.73756 0.21208 0.0
H1453 H 0.17116 0.61152 0.25978 0.0
H1454 H 0.18603 0.63455 0.28264 0.0
H1455 H 0.1516 0.63648 0.27607 0.0
H1456 H 0.20538 0.70639 0.33235 0.0
H1457 H 0.1219 0.70331 0.32082 0.0
H1458 H 0.22419 0.70364 0.26615 0.0
H1459 H 0.22325 0.66978 0.27663 0.0
H1460 H 0.23532 0.69497 0.29896 0.0
H1461 H 0.12465 0.6976 0.24906 0.0
H1462 H 0.10367 0.69908 0.27785 0.0
H1463 H 0.1172 0.66792 0.2671 0.0
C1464 C 0.3281 0.83311 0.8205 0.0
C1465 C 0.34145 0.80964 0.82699 0.0
C1466 C 0.32065 0.83873 0.79427 0.0
C1467 C 0.32673 0.82049 0.77377 0.0
C1468 C 0.34082 0.79708 0.77996 0.0
C1469 C 0.34798 0.79187 0.8065 0.0
C1470 C 0.30558 0.86391 0.78867 0.0
C1471 C 0.34781 0.77732 0.75857 0.0
C1472 C 0.2802 0.82361 0.71504 0.0
C1473 C 0.29415 0.83951 0.69718 0.0
C1474 C 0.29115 0.81614 0.73944 0.0
C1475 C 0.3166 0.82515 0.74632 0.0
C1476 C 0.33122 0.84036 0.72775 0.0
C1477 C 0.31977 0.84736 0.70329 0.0
C1478 C 0.27476 0.80002 0.75852 0.0
C1479 C 0.35824 0.85064 0.73438 0.0
H1480 H 0.32304 0.84705 0.83607 0.0
H1481 H 0.35843 0.77376 0.8112 0.0
H1482 H 0.31536 0.8754 0.7727 0.0
H1483 H 0.28557 0.85891 0.78159 0.0
H1484 H 0.30378 0.87675 0.80651 0.0
H1485 H 0.36009 0.76082 0.76622 0.0
H1486 H 0.32962 0.76885 0.74992 0.0
H1487 H 0.35853 0.78736 0.74222 0.0
H1488 H 0.26012 0.81813 0.71044 0.0
H1489 H 0.33017 0.86038 0.68975 0.0
H1490 H 0.26983 0.81224 0.77616 0.0
H1491 H 0.28599 0.78257 0.76561 0.0
H1492 H 0.25618 0.79298 0.74938 0.0
H1493 H 0.35679 0.86559 0.75049 0.0
H1494 H 0.36794 0.86002 0.71699 0.0
H1495 H 0.37084 0.83429 0.74175 0.0
C1496 C 0.17355 0.32782 0.82004 0.0
C1497 C 0.19601 0.34337 0.82391 0.0
C1498 C 0.16465 0.32186 0.79427 0.0
C1499 C 0.17849 0.33179 0.77193 0.0
C1500 C 0.20105 0.34762 0.77574 0.0
C1501 C 0.20952 0.35318 0.80159 0.0
C1502 C 0.14055 0.30478 0.79091 0.0
C1503 C 0.21628 0.35873 0.75251 0.0
C1504 C 0.16957 0.29704 0.70556 0.0
C1505 C 0.14988 0.3125 0.69379 0.0
C1506 C 0.17922 0.30317 0.73093 0.0
C1507 C 0.16939 0.32569 0.74452 0.0
C1508 C 0.1506 0.3422 0.73205 0.0
C1509 C 0.14076 0.33516 0.70699 0.0
C1510 C 0.19906 0.2849 0.74362 0.0
C1511 C 0.14035 0.36689 0.7455 0.0
H1512 H 0.16303 0.32014 0.8371 0.0
H1513 H 0.22691 0.36527 0.80424 0.0
H1514 H 0.12539 0.3157 0.77953 0.0
H1515 H 0.14559 0.28674 0.77934 0.0
H1516 H 0.132 0.29861 0.81024 0.0
H1517 H 0.23323 0.37103 0.7589 0.0
H1518 H 0.22371 0.34233 0.73989 0.0
H1519 H 0.20321 0.37106 0.73996 0.0
H1520 H 0.17636 0.27924 0.69561 0.0
H1521 H 0.1255 0.34708 0.69792 0.0
H1522 H 0.19049 0.27592 0.76179 0.0
H1523 H 0.21668 0.29622 0.74981 0.0
H1524 H 0.20531 0.26868 0.73007 0.0
H1525 H 0.12938 0.36138 0.76371 0.0
H1526 H 0.12715 0.37853 0.7324 0.0
H1527 H 0.15693 0.37976 0.7517 0.0
C1528 C 0.68196 0.1722 0.70308 0.0
C1529 C 0.70703 0.16093 0.70445 0.0
C1530 C 0.66901 0.18059 0.72637 0.0
C1531 C 0.68166 0.17778 0.75131 0.0
C1532 C 0.70727 0.16718 0.75252 0.0
C1533 C 0.71958 0.15893 0.72916 0.0
C1534 C 0.64176 0.19211 0.72439 0.0
C1535 C 0.72156 0.16396 0.77862 0.0
C1536 C 0.66194 0.21674 0.81256 0.0
C1537 C 0.64646 0.19823 0.82627 0.0
C1538 C 0.67255 0.21076 0.78757 0.0
C1539 C 0.66827 0.18536 0.77643 0.0
C1540 C 0.65307 0.16641 0.79044 0.0
C1541 C 0.6419 0.17328 0.81501 0.0
C1542 C 0.68815 0.23171 0.77302 0.0
C1543 C 0.64884 0.13881 0.77961 0.0
H1544 H 0.67224 0.17378 0.68402 0.0
H1545 H 0.73916 0.1506 0.73034 0.0
H1546 H 0.62788 0.18031 0.73658 0.0
H1547 H 0.64168 0.21261 0.73244 0.0
H1548 H 0.63449 0.1926 0.70362 0.0
H1549 H 0.74149 0.1554 0.77605 0.0
H1550 H 0.72349 0.18345 0.78866 0.0
H1551 H 0.71012 0.15084 0.792 0.0
H1552 H 0.66488 0.23635 0.8209 0.0
H1553 H 0.62962 0.15915 0.82547 0.0
H1554 H 0.67953 0.23516 0.7531 0.0
H1555 H 0.70861 0.22484 0.76994 0.0
H1556 H 0.68868 0.25087 0.78393 0.0
H1557 H 0.63947 0.13985 0.75978 0.0
H1558 H 0.63636 0.12649 0.79285 0.0
H1559 H 0.66804 0.12873 0.77702 0.0
C1560 C 0.84649 0.70977 0.69206 0.0
C1561 C 0.83481 0.69142 0.67471 0.0
C1562 C 0.84188 0.70855 0.71978 0.0
C1563 C 0.82578 0.68817 0.73042 0.0
C1564 C 0.8134 0.6702 0.71287 0.0
C1565 C 0.81796 0.67211 0.68548 0.0
C1566 C 0.8544 0.72881 0.73777 0.0
C1567 C 0.79554 0.64853 0.72307 0.0
C1568 C 0.83233 0.65692 0.79865 0.0
C1569 C 0.80982 0.66625 0.81166 0.0
C1570 C 0.83908 0.66591 0.7731 0.0
C1571 C 0.82259 0.68424 0.75979 0.0
C1572 C 0.80072 0.69505 0.77358 0.0
C1573 C 0.79489 0.68623 0.79949 0.0
C1574 C 0.86281 0.65413 0.75954 0.0
C1575 C 0.78258 0.71507 0.76095 0.0
H1576 H 0.85972 0.72458 0.68418 0.0
H1577 H 0.80848 0.65795 0.67244 0.0
H1578 H 0.83902 0.73879 0.7498 0.0
H1579 H 0.86794 0.7188 0.75179 0.0
H1580 H 0.8655 0.74408 0.72651 0.0
H1581 H 0.78668 0.63668 0.70678 0.0
H1582 H 0.80673 0.63492 0.73616 0.0
H1583 H 0.77948 0.65731 0.73512 0.0
H1584 H 0.84406 0.64159 0.80796 0.0
H1585 H 0.77745 0.69366 0.80937 0.0
H1586 H 0.87468 0.66994 0.75 0.0
H1587 H 0.85631 0.64032 0.74369 0.0
H1588 H 0.87548 0.64302 0.7736 0.0
H1589 H 0.78875 0.73526 0.76714 0.0
H1590 H 0.76207 0.71215 0.76786 0.0
H1591 H 0.7828 0.71428 0.73895 0.0
C1592 C 0.18777 0.3252 0.20419 0.0
C1593 C 0.18497 0.35276 0.20535 0.0
C1594 C 0.21074 0.31384 0.1937 0.0
C1595 C 0.23091 0.33056 0.18383 0.0
C1596 C 0.22762 0.3584 0.1842 0.0
C1597 C 0.20477 0.36914 0.19519 0.0
C1598 C 0.21384 0.28407 0.194 0.0
C1599 C 0.24847 0.37686 0.17354 0.0
C1600 C 0.30052 0.30411 0.1777 0.0
C1601 C 0.30132 0.29703 0.15082 0.0
C1602 C 0.27761 0.31496 0.18886 0.0
C1603 C 0.2553 0.31906 0.17258 0.0
C1604 C 0.25639 0.31269 0.14527 0.0
C1605 C 0.27933 0.30163 0.13478 0.0
C1606 C 0.27708 0.32148 0.21811 0.0
C1607 C 0.23317 0.31718 0.1272 0.0
H1608 H 0.17267 0.31264 0.21272 0.0
H1609 H 0.20256 0.39052 0.19635 0.0
H1610 H 0.21778 0.27666 0.17364 0.0
H1611 H 0.23096 0.27857 0.20644 0.0
H1612 H 0.19616 0.27386 0.20191 0.0
H1613 H 0.24245 0.39802 0.17461 0.0
H1614 H 0.26689 0.37437 0.18499 0.0
H1615 H 0.25294 0.37189 0.15255 0.0
H1616 H 0.31741 0.3003 0.19019 0.0
H1617 H 0.2799 0.2962 0.11396 0.0
H1618 H 0.26139 0.30988 0.22808 0.0
H1619 H 0.27241 0.34277 0.22102 0.0
H1620 H 0.29607 0.31711 0.228 0.0
H1621 H 0.21624 0.30517 0.13409 0.0
H1622 H 0.23752 0.31183 0.10625 0.0
H1623 H 0.22711 0.33831 0.12792 0.0
C1624 C 0.3091 0.69734 0.82398 0.0
C1625 C 0.31079 0.70463 0.85073 0.0
C1626 C 0.28585 0.68623 0.81391 0.0
C1627 C 0.26422 0.68224 0.83118 0.0
C1628 C 0.26631 0.68879 0.85837 0.0
C1629 C 0.28958 0.69988 0.86779 0.0
C1630 C 0.28415 0.67953 0.78476 0.0
C1631 C 0.24374 0.68471 0.87745 0.0
C1632 C 0.19429 0.67793 0.80626 0.0
C1633 C 0.18944 0.65064 0.80837 0.0
C1634 C 0.21894 0.68847 0.81272 0.0
C1635 C 0.23917 0.67122 0.82123 0.0
C1636 C 0.23455 0.64363 0.82287 0.0
C1637 C 0.20966 0.63369 0.81665 0.0
C1638 C 0.22316 0.71808 0.811 0.0
C1639 C 0.2558 0.62465 0.83155 0.0
H1640 H 0.32547 0.70127 0.81079 0.0
H1641 H 0.29102 0.70532 0.88858 0.0
H1642 H 0.2779 0.65861 0.78213 0.0
H1643 H 0.2691 0.69218 0.77515 0.0
H1644 H 0.30315 0.68253 0.77434 0.0
H1645 H 0.24879 0.6906 0.89808 0.0
H1646 H 0.22655 0.69652 0.87093 0.0
H1647 H 0.23772 0.66357 0.87753 0.0
H1648 H 0.17882 0.69107 0.79957 0.0
H1649 H 0.20623 0.6125 0.81781 0.0
H1650 H 0.24091 0.72255 0.79904 0.0
H1651 H 0.22649 0.72624 0.83119 0.0
H1652 H 0.20612 0.72849 0.80204 0.0
H1653 H 0.27375 0.62764 0.81942 0.0
H1654 H 0.24962 0.60358 0.82982 0.0
H1655 H 0.26113 0.62865 0.85253 0.0
C1656 C 0.28544 0.29711 0.82371 0.0
C1657 C 0.29942 0.31365 0.84098 0.0
C1658 C 0.29585 0.27285 0.81524 0.0
C1659 C 0.32076 0.26475 0.82463 0.0
C1660 C 0.33568 0.28218 0.84081 0.0
C1661 C 0.32479 0.30659 0.84881 0.0
C1662 C 0.2794 0.25517 0.79765 0.0
C1663 C 0.36241 0.27432 0.85098 0.0
C1664 C 0.33032 0.18993 0.82857 0.0
C1665 C 0.34435 0.18481 0.80518 0.0
C1666 C 0.3232 0.216 0.83554 0.0
C1667 C 0.33026 0.23742 0.81873 0.0
C1668 C 0.34486 0.23243 0.7954 0.0
C1669 C 0.35173 0.20628 0.78894 0.0
C1670 C 0.30753 0.22057 0.86059 0.0
C1671 C 0.35258 0.25463 0.77683 0.0
H1672 H 0.26565 0.30257 0.81796 0.0
H1673 H 0.3353 0.3192 0.86263 0.0
H1674 H 0.29104 0.24817 0.7804 0.0
H1675 H 0.27313 0.23738 0.80897 0.0
H1676 H 0.26158 0.26543 0.79017 0.0
H1677 H 0.37221 0.29076 0.86182 0.0
H1678 H 0.36045 0.25713 0.86458 0.0
H1679 H 0.37518 0.26802 0.83428 0.0
H1680 H 0.32457 0.17357 0.84125 0.0
H1681 H 0.36266 0.20268 0.77082 0.0
H1682 H 0.28794 0.2287 0.85547 0.0
H1683 H 0.31751 0.23544 0.87331 0.0
H1684 H 0.30474 0.20207 0.87221 0.0
H1685 H 0.33471 0.26373 0.76817 0.0
H1686 H 0.36534 0.24766 0.76034 0.0
H1687 H 0.36306 0.27044 0.78788 0.0
C1688 C 0.71579 0.28 0.85203 0.0
C1689 C 0.69219 0.29427 0.85115 0.0
C1690 C 0.73889 0.29037 0.84135 0.0
C1691 C 0.73851 0.31585 0.82976 0.0
C1692 C 0.71468 0.33035 0.82846 0.0
C1693 C 0.6916 0.31922 0.83902 0.0
C1694 C 0.76373 0.27402 0.84248 0.0
C1695 C 0.71368 0.35763 0.81619 0.0
C1696 C 0.80443 0.35055 0.8236 0.0
C1697 C 0.81016 0.34609 0.79685 0.0
C1698 C 0.78084 0.34113 0.83459 0.0
C1699 C 0.76306 0.32676 0.81838 0.0
C1700 C 0.76932 0.32161 0.79152 0.0
C1701 C 0.79274 0.33157 0.78104 0.0
C1702 C 0.77462 0.34704 0.86329 0.0
C1703 C 0.75118 0.30589 0.77374 0.0
H1704 H 0.71622 0.26047 0.86103 0.0
H1705 H 0.67334 0.33024 0.8384 0.0
H1706 H 0.77149 0.27081 0.82215 0.0
H1707 H 0.77902 0.2848 0.85384 0.0
H1708 H 0.76054 0.25437 0.85193 0.0
H1709 H 0.69376 0.36651 0.81726 0.0
H1710 H 0.72771 0.37098 0.82646 0.0
H1711 H 0.71977 0.35659 0.79506 0.0
H1712 H 0.81774 0.36239 0.8355 0.0
H1713 H 0.79725 0.3285 0.7602 0.0
H1714 H 0.77199 0.32825 0.87443 0.0
H1715 H 0.75587 0.35815 0.86467 0.0
H1716 H 0.79029 0.35886 0.87305 0.0
H1717 H 0.74783 0.28587 0.78224 0.0
H1718 H 0.75914 0.30358 0.75332 0.0
H1719 H 0.73181 0.31583 0.77251 0.0
C1720 C 0.67716 0.71529 0.86616 0.0
C1721 C 0.69349 0.69905 0.85067 0.0
C1722 C 0.67058 0.74101 0.8579 0.0
C1723 C 0.68052 0.75074 0.83352 0.0
C1724 C 0.69627 0.73414 0.81734 0.0
C1725 C 0.70258 0.7085 0.82612 0.0
C1726 C 0.65359 0.75804 0.87562 0.0
C1727 C 0.70745 0.74372 0.79126 0.0
C1728 C 0.64575 0.80901 0.80155 0.0
C1729 C 0.663 0.83002 0.80701 0.0
C1730 C 0.65131 0.78313 0.80994 0.0
C1731 C 0.67426 0.77825 0.82491 0.0
C1732 C 0.69137 0.79953 0.8312 0.0
C1733 C 0.68577 0.82515 0.82172 0.0
C1734 C 0.63319 0.76082 0.80188 0.0
C1735 C 0.71576 0.79515 0.84757 0.0
H1736 H 0.67014 0.70818 0.88519 0.0
H1737 H 0.71556 0.69629 0.81419 0.0
H1738 H 0.66436 0.77633 0.88123 0.0
H1739 H 0.63568 0.76427 0.86479 0.0
H1740 H 0.64755 0.74755 0.89404 0.0
H1741 H 0.71444 0.72701 0.77872 0.0
H1742 H 0.69272 0.75522 0.77986 0.0
H1743 H 0.72437 0.757 0.79522 0.0
H1744 H 0.62843 0.81258 0.78959 0.0
H1745 H 0.69919 0.84135 0.82574 0.0
H1746 H 0.62617 0.74999 0.81968 0.0
H1747 H 0.64408 0.74639 0.78937 0.0
H1748 H 0.6159 0.76799 0.79055 0.0
H1749 H 0.71063 0.78517 0.86651 0.0
H1750 H 0.72609 0.81402 0.85216 0.0
H1751 H 0.72946 0.78192 0.83672 0.0
C1752 C 0.69703 0.68516 0.15023 0.0
C1753 C 0.69218 0.71199 0.155 0.0
C1754 C 0.72072 0.67362 0.15849 0.0
C1755 C 0.73934 0.68928 0.17233 0.0
C1756 C 0.73428 0.71643 0.1772 0.0
C1757 C 0.71085 0.72752 0.16813 0.0
C1758 C 0.7258 0.64472 0.15259 0.0
C1759 C 0.75327 0.73362 0.19253 0.0
C1760 C 0.78225 0.6553 0.22257 0.0
C1761 C 0.80679 0.65516 0.2099 0.0
C1762 C 0.7602 0.66607 0.21032 0.0
C1763 C 0.7626 0.67675 0.18455 0.0
C1764 C 0.78723 0.67658 0.1714 0.0
C1765 C 0.80923 0.66589 0.18439 0.0
C1766 C 0.73443 0.66647 0.22526 0.0
C1767 C 0.79026 0.68774 0.14377 0.0
H1768 H 0.68277 0.67352 0.13932 0.0
H1769 H 0.70705 0.74843 0.17132 0.0
H1770 H 0.74544 0.64223 0.14339 0.0
H1771 H 0.72575 0.63323 0.17136 0.0
H1772 H 0.71078 0.63616 0.1391 0.0
H1773 H 0.74709 0.75474 0.19308 0.0
H1774 H 0.75481 0.72631 0.21325 0.0
H1775 H 0.77316 0.73247 0.18363 0.0
H1776 H 0.78023 0.64731 0.24244 0.0
H1777 H 0.82817 0.66571 0.17457 0.0
H1778 H 0.71914 0.65583 0.21376 0.0
H1779 H 0.72766 0.68723 0.22783 0.0
H1780 H 0.73594 0.65714 0.24517 0.0
H1781 H 0.77663 0.67748 0.13001 0.0
H1782 H 0.81061 0.6856 0.13611 0.0
H1783 H 0.78495 0.70907 0.14366 0.0
C1784 C 0.33287 0.81783 0.16982 0.0
C1785 C 0.3425 0.82793 0.19398 0.0
C1786 C 0.32684 0.79091 0.16642 0.0
C1787 C 0.33058 0.77299 0.18767 0.0
C1788 C 0.34066 0.78272 0.21211 0.0
C1789 C 0.34657 0.81009 0.21501 0.0
C1790 C 0.316 0.78177 0.14001 0.0
C1791 C 0.34509 0.76417 0.23515 0.0
C1792 C 0.28914 0.71042 0.18054 0.0
C1793 C 0.30612 0.69366 0.16636 0.0
C1794 C 0.29725 0.73577 0.18893 0.0
C1795 C 0.3233 0.74435 0.18386 0.0
C1796 C 0.34106 0.72663 0.1713 0.0
C1797 C 0.33214 0.70174 0.1623 0.0
C1798 C 0.27724 0.75413 0.20123 0.0
C1799 C 0.3691 0.7346 0.16587 0.0
H1800 H 0.32972 0.83111 0.15323 0.0
H1801 H 0.35417 0.81746 0.23366 0.0
H1802 H 0.32892 0.76637 0.13127 0.0
H1803 H 0.29635 0.7727 0.14289 0.0
H1804 H 0.31413 0.79825 0.1255 0.0
H1805 H 0.35337 0.77453 0.25271 0.0
H1806 H 0.32629 0.75469 0.24098 0.0
H1807 H 0.35866 0.74803 0.22914 0.0
H1808 H 0.26885 0.70454 0.18338 0.0
H1809 H 0.34533 0.68892 0.1513 0.0
H1810 H 0.27298 0.77062 0.18729 0.0
H1811 H 0.28506 0.76305 0.21972 0.0
H1812 H 0.25851 0.74381 0.20588 0.0
H1813 H 0.36959 0.74985 0.15 0.0
H1814 H 0.38128 0.71749 0.15941 0.0
H1815 H 0.37801 0.7435 0.18388 0.0
C1816 C 0.67581 0.30364 0.16233 0.0
C1817 C 0.70312 0.30612 0.16329 0.0
C1818 C 0.66366 0.27976 0.16997 0.0
C1819 C 0.67931 0.25828 0.17891 0.0
C1820 C 0.70682 0.26139 0.18107 0.0
C1821 C 0.71838 0.28524 0.17301 0.0
C1822 C 0.63426 0.27713 0.16749 0.0
C1823 C 0.72421 0.23918 0.19079 0.0
C1824 C 0.6487 0.20164 0.21757 0.0
C1825 C 0.64547 0.1824 0.19776 0.0
C1826 C 0.65929 0.2266 0.21163 0.0
C1827 C 0.66719 0.23222 0.1853 0.0
C1828 C 0.66429 0.21263 0.16527 0.0
C1829 C 0.65308 0.18795 0.17171 0.0
C1830 C 0.6618 0.24701 0.23345 0.0
C1831 C 0.67302 0.21776 0.13709 0.0
H1832 H 0.66418 0.31975 0.15432 0.0
H1833 H 0.73957 0.28732 0.1735 0.0
H1834 H 0.62945 0.26146 0.15281 0.0
H1835 H 0.62566 0.27097 0.18677 0.0
H1836 H 0.62484 0.29594 0.16111 0.0
H1837 H 0.74506 0.24538 0.19259 0.0
H1838 H 0.71736 0.23203 0.21044 0.0
H1839 H 0.72308 0.22219 0.17683 0.0
H1840 H 0.64234 0.19729 0.23767 0.0
H1841 H 0.65025 0.17305 0.15645 0.0
H1842 H 0.65059 0.2651 0.22811 0.0
H1843 H 0.68263 0.25297 0.23577 0.0
H1844 H 0.65449 0.23954 0.25284 0.0
H1845 H 0.6621 0.23488 0.12881 0.0
H1846 H 0.66987 0.2003 0.124 0.0
H1847 H 0.69418 0.22299 0.13674 0.0
loop_
_geom_bond_atom_site_label_1
_geom_bond_atom_site_label_2
_geom_bond_distance
_geom_bond_site_symmetry_2
_ccdc_geom_bond_type
Mg0 O7 2.141 . S
Mg0 O8 2.048 . S
Mg0 O9 2.048 . S
Mg0 O12 2.141 . S
C1 O2 1.313 . S
C1 O8 1.195 . S
O2 C1 1.313 . S
C3 O4 1.245 . S
C3 O12 1.289 . S
O4 C3 1.245 . S
C5 O6 1.245 . S
C5 O7 1.289 . S
O6 C5 1.245 . S
O7 Mg0 2.141 . S
O7 C5 1.289 . S
O8 Mg0 2.048 . S
O8 C1 1.195 . S
O9 Mg0 2.048 . S
O9 C10 1.195 . S
C10 O9 1.195 . S
C10 O11 1.313 . S
O11 C10 1.313 . S
O12 Mg0 2.141 . S
O12 C3 1.289 . S
Mg13 O20 2.141 . S
Mg13 O21 2.048 . S
Mg13 O22 2.048 . S
Mg13 O25 2.141 . S
C14 O15 1.313 . S
C14 O21 1.195 . S
O15 C14 1.313 . S
C16 O17 1.245 . S
C16 O25 1.289 . S
O17 C16 1.245 . S
C18 O19 1.245 . S
C18 O20 1.289 . S
O19 C18 1.245 . S
O20 Mg13 2.141 . S
O20 C18 1.289 . S
O21 Mg13 2.048 . S
O21 C14 1.195 . S
O22 Mg13 2.048 . S
O22 C23 1.195 . S
C23 O22 1.195 . S
C23 O24 1.313 . S
O24 C23 1.313 . S
O25 Mg13 2.141 . S
O25 C16 1.289 . S
Mg26 O33 2.141 . S
Mg26 O34 2.048 . S
Mg26 O35 2.048 . S
Mg26 O38 2.141 . S
C27 O28 1.313 . S
C27 O34 1.195 . S
O28 C27 1.313 . S
C29 O30 1.245 . S
C29 O38 1.289 . S
O30 C29 1.245 . S
C31 O32 1.245 . S
C31 O33 1.289 . S
O32 C31 1.245 . S
O33 Mg26 2.141 . S
O33 C31 1.289 . S
O34 Mg26 2.048 . S
O34 C27 1.195 . S
O35 Mg26 2.048 . S
O35 C36 1.195 . S
C36 O35 1.195 . S
C36 O37 1.313 . S
O37 C36 1.313 . S
O38 Mg26 2.141 . S
O38 C29 1.289 . S
Mg39 O46 2.141 . S
Mg39 O47 2.048 . S
Mg39 O48 2.048 . S
Mg39 O51 2.141 . S
C40 O41 1.313 . S
C40 O47 1.195 . S
O41 C40 1.313 . S
C42 O43 1.245 . S
C42 O51 1.289 . S
O43 C42 1.245 . S
C44 O45 1.245 . S
C44 O46 1.289 . S
O45 C44 1.245 . S
O46 Mg39 2.141 . S
O46 C44 1.289 . S
O47 Mg39 2.048 . S
O47 C40 1.195 . S
O48 Mg39 2.048 . S
O48 C49 1.195 . S
C49 O48 1.195 . S
C49 O50 1.313 . S
O50 C49 1.313 . S
O51 Mg39 2.141 . S
O51 C42 1.289 . S
Mg52 O59 2.141 . S
Mg52 O60 2.048 . S
Mg52 O61 2.048 . S
Mg52 O64 2.141 . S
C53 O54 1.313 . S
C53 O60 1.195 . S
O54 C53 1.313 . S
C55 O56 1.245 . S
C55 O64 1.289 . S
O56 C55 1.245 . S
C57 O58 1.245 . S
C57 O59 1.289 . S
O58 C57 1.245 . S
O59 Mg52 2.141 . S
O59 C57 1.289 . S
O60 Mg52 2.048 . S
O60 C53 1.195 . S
O61 Mg52 2.048 . S
O61 C62 1.195 . S
C62 O61 1.195 . S
C62 O63 1.313 . S
O63 C62 1.313 . S
O64 Mg52 2.141 . S
O64 C55 1.289 . S
Mg65 O72 2.141 . S
Mg65 O73 2.048 . S
Mg65 O74 2.048 . S
Mg65 O77 2.141 . S
C66 O67 1.313 . S
C66 O73 1.195 . S
O67 C66 1.313 . S
C68 O69 1.245 . S
C68 O77 1.289 . S
O69 C68 1.245 . S
C70 O71 1.245 . S
C70 O72 1.289 . S
O71 C70 1.245 . S
O72 Mg65 2.141 . S
O72 C70 1.289 . S
O73 Mg65 2.048 . S
O73 C66 1.195 . S
O74 Mg65 2.048 . S
O74 C75 1.195 . S
C75 O74 1.195 . S
C75 O76 1.313 . S
O76 C75 1.313 . S
O77 Mg65 2.141 . S
O77 C68 1.289 . S
Mg78 O85 2.141 . S
Mg78 O86 2.048 . S
Mg78 O87 2.048 . S
Mg78 O90 2.141 . S
C79 O80 1.313 . S
C79 O86 1.195 . S
O80 C79 1.313 . S
C81 O82 1.245 . S
C81 O90 1.289 . S
O82 C81 1.245 . S
C83 O84 1.245 . S
C83 O85 1.289 . S
O84 C83 1.245 . S
O85 Mg78 2.141 . S
O85 C83 1.289 . S
O86 Mg78 2.048 . S
O86 C79 1.195 . S
O87 Mg78 2.048 . S
O87 C88 1.195 . S
C88 O87 1.195 . S
C88 O89 1.313 . S
O89 C88 1.313 . S
O90 Mg78 2.141 . S
O90 C81 1.289 . S
Mg91 O98 2.141 . S
Mg91 O99 2.048 . S
Mg91 O100 2.048 . S
Mg91 O103 2.141 . S
C92 O93 1.313 . S
C92 O99 1.195 . S
O93 C92 1.313 . S
C94 O95 1.245 . S
C94 O103 1.289 . S
O95 C94 1.245 . S
C96 O97 1.245 . S
C96 O98 1.289 . S
O97 C96 1.245 . S
O98 Mg91 2.141 . S
O98 C96 1.289 . S
O99 Mg91 2.048 . S
O99 C92 1.195 . S
O100 Mg91 2.048 . S
O100 C101 1.195 . S
C101 O100 1.195 . S
C101 O102 1.313 . S
O102 C101 1.313 . S
O103 Mg91 2.141 . S
O103 C94 1.289 . S
Mg104 O111 2.141 . S
Mg104 O112 2.048 . S
Mg104 O113 2.048 . S
Mg104 O116 2.141 . S
C105 O106 1.313 . S
C105 O112 1.195 . S
O106 C105 1.313 . S
C107 O108 1.245 . S
C107 O116 1.289 . S
O108 C107 1.245 . S
C109 O110 1.245 . S
C109 O111 1.289 . S
O110 C109 1.245 . S
O111 Mg104 2.141 . S
O111 C109 1.289 . S
O112 Mg104 2.048 . S
O112 C105 1.195 . S
O113 Mg104 2.048 . S
O113 C114 1.195 . S
C114 O113 1.195 . S
C114 O115 1.313 . S
O115 C114 1.313 . S
O116 Mg104 2.141 . S
O116 C107 1.289 . S
Mg117 O124 2.141 . S
Mg117 O125 2.048 . S
Mg117 O126 2.048 . S
Mg117 O129 2.141 . S
C118 O119 1.313 . S
C118 O125 1.195 . S
O119 C118 1.313 . S
C120 O121 1.245 . S
C120 O129 1.289 . S
O121 C120 1.245 . S
C122 O123 1.245 . S
C122 O124 1.289 . S
O123 C122 1.245 . S
O124 Mg117 2.141 . S
O124 C122 1.289 . S
O125 Mg117 2.048 . S
O125 C118 1.195 . S
O126 Mg117 2.048 . S
O126 C127 1.195 . S
C127 O126 1.195 . S
C127 O128 1.313 . S
O128 C127 1.313 . S
O129 Mg117 2.141 . S
O129 C120 1.289 . S
Mg130 O137 2.141 . S
Mg130 O138 2.048 . S
Mg130 O139 2.048 . S
Mg130 O142 2.141 . S
C131 O132 1.313 . S
C131 O138 1.195 . S
O132 C131 1.313 . S
C133 O134 1.245 . S
C133 O142 1.289 . S
O134 C133 1.245 . S
C135 O136 1.245 . S
C135 O137 1.289 . S
O136 C135 1.245 . S
O137 Mg130 2.141 . S
O137 C135 1.289 . S
O138 Mg130 2.048 . S
O138 C131 1.195 . S
O139 Mg130 2.048 . S
O139 C140 1.195 . S
C140 O139 1.195 . S
C140 O141 1.313 . S
O141 C140 1.313 . S
O142 Mg130 2.141 . S
O142 C133 1.289 . S
Mg143 O150 2.141 . S
Mg143 O151 2.048 . S
Mg143 O152 2.048 . S
Mg143 O155 2.141 . S
C144 O145 1.313 . S
C144 O151 1.195 . S
O145 C144 1.313 . S
C146 O147 1.245 . S
C146 O155 1.289 . S
O147 C146 1.245 . S
C148 O149 1.245 . S
C148 O150 1.289 . S
O149 C148 1.245 . S
O150 Mg143 2.141 . S
O150 C148 1.289 . S
O151 Mg143 2.048 . S
O151 C144 1.195 . S
O152 Mg143 2.048 . S
O152 C153 1.195 . S
C153 O152 1.195 . S
C153 O154 1.313 . S
O154 C153 1.313 . S
O155 Mg143 2.141 . S
O155 C146 1.289 . S
Mg156 O163 2.141 . S
Mg156 O164 2.048 . S
Mg156 O165 2.048 . S
Mg156 O168 2.141 . S
C157 O158 1.313 . S
C157 O164 1.195 . S
O158 C157 1.313 . S
C159 O160 1.245 . S
C159 O168 1.289 . S
O160 C159 1.245 . S
C161 O162 1.245 . S
C161 O163 1.289 . S
O162 C161 1.245 . S
O163 Mg156 2.141 . S
O163 C161 1.289 . S
O164 Mg156 2.048 . S
O164 C157 1.195 . S
O165 Mg156 2.048 . S
O165 C166 1.195 . S
C166 O165 1.195 . S
C166 O167 1.313 . S
O167 C166 1.313 . S
O168 Mg156 2.141 . S
O168 C159 1.289 . S
Mg169 O176 2.141 . S
Mg169 O177 2.048 . S
Mg169 O178 2.048 . S
Mg169 O181 2.141 . S
C170 O171 1.313 . S
C170 O177 1.195 . S
O171 C170 1.313 . S
C172 O173 1.245 . S
C172 O181 1.289 . S
O173 C172 1.245 . S
C174 O175 1.245 . S
C174 O176 1.289 . S
O175 C174 1.245 . S
O176 Mg169 2.141 . S
O176 C174 1.289 . S
O177 Mg169 2.048 . S
O177 C170 1.195 . S
O178 Mg169 2.048 . S
O178 C179 1.195 . S
C179 O178 1.195 . S
C179 O180 1.313 . S
O180 C179 1.313 . S
O181 Mg169 2.141 . S
O181 C172 1.289 . S
Mg182 O189 2.141 . S
Mg182 O190 2.048 . S
Mg182 O191 2.048 . S
Mg182 O194 2.141 . S
C183 O184 1.313 . S
C183 O190 1.195 . S
O184 C183 1.313 . S
C185 O186 1.245 . S
C185 O194 1.289 . S
O186 C185 1.245 . S
C187 O188 1.245 . S
C187 O189 1.289 . S
O188 C187 1.245 . S
O189 Mg182 2.141 . S
O189 C187 1.289 . S
O190 Mg182 2.048 . S
O190 C183 1.195 . S
O191 Mg182 2.048 . S
O191 C192 1.195 . S
C192 O191 1.195 . S
C192 O193 1.313 . S
O193 C192 1.313 . S
O194 Mg182 2.141 . S
O194 C185 1.289 . S
Mg195 O202 2.141 . S
Mg195 O203 2.048 . S
Mg195 O204 2.048 . S
Mg195 O207 2.141 . S
C196 O197 1.313 . S
C196 O203 1.195 . S
O197 C196 1.313 . S
C198 O199 1.245 . S
C198 O207 1.289 . S
O199 C198 1.245 . S
C200 O201 1.245 . S
C200 O202 1.289 . S
O201 C200 1.245 . S
O202 Mg195 2.141 . S
O202 C200 1.289 . S
O203 Mg195 2.048 . S
O203 C196 1.195 . S
O204 Mg195 2.048 . S
O204 C205 1.195 . S
C205 O204 1.195 . S
C205 O206 1.313 . S
O206 C205 1.313 . S
O207 Mg195 2.141 . S
O207 C198 1.289 . S
Mg208 O215 2.141 . S
Mg208 O216 2.048 . S
Mg208 O217 2.048 . S
Mg208 O220 2.141 . S
C209 O210 1.313 . S
C209 O216 1.195 . S
O210 C209 1.313 . S
C211 O212 1.245 . S
C211 O220 1.289 . S
O212 C211 1.245 . S
C213 O214 1.245 . S
C213 O215 1.289 . S
O214 C213 1.245 . S
O215 Mg208 2.141 . S
O215 C213 1.289 . S
O216 Mg208 2.048 . S
O216 C209 1.195 . S
O217 Mg208 2.048 . S
O217 C218 1.195 . S
C218 O217 1.195 . S
C218 O219 1.313 . S
O219 C218 1.313 . S
O220 Mg208 2.141 . S
O220 C211 1.289 . S
Mg221 O228 2.141 . S
Mg221 O229 2.048 . S
Mg221 O230 2.048 . S
Mg221 O233 2.141 . S
C222 O223 1.313 . S
C222 O229 1.195 . S
O223 C222 1.313 . S
C224 O225 1.245 . S
C224 O233 1.289 . S
O225 C224 1.245 . S
C226 O227 1.245 . S
C226 O228 1.289 . S
O227 C226 1.245 . S
O228 Mg221 2.141 . S
O228 C226 1.289 . S
O229 Mg221 2.048 . S
O229 C222 1.195 . S
O230 Mg221 2.048 . S
O230 C231 1.195 . S
C231 O230 1.195 . S
C231 O232 1.313 . S
O232 C231 1.313 . S
O233 Mg221 2.141 . S
O233 C224 1.289 . S
Mg234 O241 2.141 . S
Mg234 O242 2.048 . S
Mg234 O243 2.048 . S
Mg234 O246 2.141 . S
C235 O236 1.313 . S
C235 O242 1.195 . S
O236 C235 1.313 . S
C237 O238 1.245 . S
C237 O246 1.289 . S
O238 C237 1.245 . S
C239 O240 1.245 . S
C239 O241 1.289 . S
O240 C239 1.245 . S
O241 Mg234 2.141 . S
O241 C239 1.289 . S
O242 Mg234 2.048 . S
O242 C235 1.195 . S
O243 Mg234 2.048 . S
O243 C244 1.195 . S
C244 O243 1.195 . S
C244 O245 1.313 . S
O245 C244 1.313 . S
O246 Mg234 2.141 . S
O246 C237 1.289 . S
Mg247 O254 2.141 . S
Mg247 O255 2.048 . S
Mg247 O256 2.048 . S
Mg247 O259 2.141 . S
C248 O249 1.313 . S
C248 O255 1.195 . S
O249 C248 1.313 . S
C250 O251 1.245 . S
C250 O259 1.289 . S
O251 C250 1.245 . S
C252 O253 1.245 . S
C252 O254 1.289 . S
O253 C252 1.245 . S
O254 Mg247 2.141 . S
O254 C252 1.289 . S
O255 Mg247 2.048 . S
O255 C248 1.195 . S
O256 Mg247 2.048 . S
O256 C257 1.195 . S
C257 O256 1.195 . S
C257 O258 1.313 . S
O258 C257 1.313 . S
O259 Mg247 2.141 . S
O259 C250 1.289 . S
Mg260 O267 2.141 . S
Mg260 O268 2.048 . S
Mg260 O269 2.048 . S
Mg260 O272 2.141 . S
C261 O262 1.313 . S
C261 O268 1.195 . S
O262 C261 1.313 . S
C263 O264 1.245 . S
C263 O272 1.289 . S
O264 C263 1.245 . S
C265 O266 1.245 . S
C265 O267 1.289 . S
O266 C265 1.245 . S
O267 Mg260 2.141 . S
O267 C265 1.289 . S
O268 Mg260 2.048 . S
O268 C261 1.195 . S
O269 Mg260 2.048 . S
O269 C270 1.195 . S
C270 O269 1.195 . S
C270 O271 1.313 . S
O271 C270 1.313 . S
O272 Mg260 2.141 . S
O272 C263 1.289 . S
Mg273 O280 2.141 . S
Mg273 O281 2.048 . S
Mg273 O282 2.048 . S
Mg273 O285 2.141 . S
C274 O275 1.313 . S
C274 O281 1.195 . S
O275 C274 1.313 . S
C276 O277 1.245 . S
C276 O285 1.289 . S
O277 C276 1.245 . S
C278 O279 1.245 . S
C278 O280 1.289 . S
O279 C278 1.245 . S
O280 Mg273 2.141 . S
O280 C278 1.289 . S
O281 Mg273 2.048 . S
O281 C274 1.195 . S
O282 Mg273 2.048 . S
O282 C283 1.195 . S
C283 O282 1.195 . S
C283 O284 1.313 . S
O284 C283 1.313 . S
O285 Mg273 2.141 . S
O285 C276 1.289 . S
Mg286 O293 2.141 . S
Mg286 O294 2.048 . S
Mg286 O295 2.048 . S
Mg286 O298 2.141 . S
C287 O288 1.313 . S
C287 O294 1.195 . S
O288 C287 1.313 . S
C289 O290 1.245 . S
C289 O298 1.289 . S
O290 C289 1.245 . S
C291 O292 1.245 . S
C291 O293 1.289 . S
O292 C291 1.245 . S
O293 Mg286 2.141 . S
O293 C291 1.289 . S
O294 Mg286 2.048 . S
O294 C287 1.195 . S
O295 Mg286 2.048 . S
O295 C296 1.195 . S
C296 O295 1.195 . S
C296 O297 1.313 . S
O297 C296 1.313 . S
O298 Mg286 2.141 . S
O298 C289 1.289 . S
Mg299 O306 2.141 . S
Mg299 O307 2.048 . S
Mg299 O308 2.048 . S
Mg299 O311 2.141 . S
C300 O301 1.313 . S
C300 O307 1.195 . S
O301 C300 1.313 . S
C302 O303 1.245 . S
C302 O311 1.289 . S
O303 C302 1.245 . S
C304 O305 1.245 . S
C304 O306 1.289 . S
O305 C304 1.245 . S
O306 Mg299 2.141 . S
O306 C304 1.289 . S
O307 Mg299 2.048 . S
O307 C300 1.195 . S
O308 Mg299 2.048 . S
O308 C309 1.195 . S
C309 O308 1.195 . S
C309 O310 1.313 . S
O310 C309 1.313 . S
O311 Mg299 2.141 . S
O311 C302 1.289 . S
C312 C313 1.391 . S
C312 C314 1.394 . S
C312 H328 0.931 . S
C313 C312 1.391 . S
C313 C317 1.376 . S
C314 C312 1.394 . S
C314 C315 1.369 . S
C314 C318 1.531 . S
C315 C314 1.369 . S
C315 C316 1.410 . S
C315 C323 1.503 . S
C316 C315 1.410 . S
C316 C317 1.392 . S
C316 C319 1.511 . S
C317 C313 1.376 . S
C317 C316 1.392 . S
C317 H329 0.929 . S
C318 C314 1.531 . S
C318 H330 0.960 . S
C318 H331 0.962 . S
C318 H332 0.960 . S
C319 C316 1.511 . S
C319 H333 0.961 . S
C319 H334 0.961 . S
C319 H335 0.961 . S
C320 C321 1.370 . S
C320 C322 1.363 . S
C320 H336 0.931 . S
C321 C320 1.370 . S
C321 C325 1.408 . S
C322 C320 1.363 . S
C322 C323 1.370 . S
C322 C326 1.524 . S
C323 C315 1.503 . S
C323 C322 1.370 . S
C323 C324 1.403 . S
C324 C323 1.403 . S
C324 C325 1.404 . S
C324 C327 1.539 . S
C325 C321 1.408 . S
C325 C324 1.404 . S
C325 H337 0.930 . S
C326 C322 1.524 . S
C326 H338 0.956 . S
C326 H339 0.961 . S
C326 H340 0.961 . S
C327 C324 1.539 . S
C327 H341 0.958 . S
C327 H342 0.961 . S
C327 H343 0.960 . S
H328 C312 0.931 . S
H329 C317 0.929 . S
H330 C318 0.960 . S
H331 C318 0.962 . S
H332 C318 0.960 . S
H333 C319 0.961 . S
H334 C319 0.961 . S
H335 C319 0.961 . S
H336 C320 0.931 . S
H337 C325 0.930 . S
H338 C326 0.956 . S
H339 C326 0.961 . S
H340 C326 0.961 . S
H341 C327 0.958 . S
H342 C327 0.961 . S
H343 C327 0.960 . S
C344 C345 1.391 . S
C344 C346 1.394 . S
C344 H360 0.931 . S
C345 C344 1.391 . S
C345 C349 1.376 . S
C346 C344 1.394 . S
C346 C347 1.369 . S
C346 C350 1.531 . S
C347 C346 1.369 . S
C347 C348 1.410 . S
C347 C355 1.503 . S
C348 C347 1.410 . S
C348 C349 1.392 . S
C348 C351 1.511 . S
C349 C345 1.376 . S
C349 C348 1.392 . S
C349 H361 0.929 . S
C350 C346 1.531 . S
C350 H362 0.960 . S
C350 H363 0.962 . S
C350 H364 0.960 . S
C351 C348 1.511 . S
C351 H365 0.961 . S
C351 H366 0.961 . S
C351 H367 0.961 . S
C352 C353 1.370 . S
C352 C354 1.363 . S
C352 H368 0.931 . S
C353 C352 1.370 . S
C353 C357 1.408 . S
C354 C352 1.363 . S
C354 C355 1.370 . S
C354 C358 1.524 . S
C355 C347 1.503 . S
C355 C354 1.370 . S
C355 C356 1.403 . S
C356 C355 1.403 . S
C356 C357 1.404 . S
C356 C359 1.539 . S
C357 C353 1.408 . S
C357 C356 1.404 . S
C357 H369 0.930 . S
C358 C354 1.524 . S
C358 H370 0.956 . S
C358 H371 0.961 . S
C358 H372 0.961 . S
C359 C356 1.539 . S
C359 H373 0.958 . S
C359 H374 0.961 . S
C359 H375 0.960 . S
H360 C344 0.931 . S
H361 C349 0.929 . S
H362 C350 0.960 . S
H363 C350 0.962 . S
H364 C350 0.960 . S
H365 C351 0.961 . S
H366 C351 0.961 . S
H367 C351 0.961 . S
H368 C352 0.931 . S
H369 C357 0.930 . S
H370 C358 0.956 . S
H371 C358 0.961 . S
H372 C358 0.961 . S
H373 C359 0.958 . S
H374 C359 0.961 . S
H375 C359 0.960 . S
C376 C377 1.391 . S
C376 C378 1.394 . S
C376 H392 0.931 . S
C377 C376 1.391 . S
C377 C381 1.376 . S
C378 C376 1.394 . S
C378 C379 1.369 . S
C378 C382 1.531 . S
C379 C378 1.369 . S
C379 C380 1.410 . S
C379 C387 1.503 . S
C380 C379 1.410 . S
C380 C381 1.392 . S
C380 C383 1.511 . S
C381 C377 1.376 . S
C381 C380 1.392 . S
C381 H393 0.929 . S
C382 C378 1.531 . S
C382 H394 0.960 . S
C382 H395 0.962 . S
C382 H396 0.960 . S
C383 C380 1.511 . S
C383 H397 0.961 . S
C383 H398 0.961 . S
C383 H399 0.961 . S
C384 C385 1.370 . S
C384 C386 1.363 . S
C384 H400 0.931 . S
C385 C384 1.370 . S
C385 C389 1.408 . S
C386 C384 1.363 . S
C386 C387 1.370 . S
C386 C390 1.524 . S
C387 C379 1.503 . S
C387 C386 1.370 . S
C387 C388 1.403 . S
C388 C387 1.403 . S
C388 C389 1.404 . S
C388 C391 1.539 . S
C389 C385 1.408 . S
C389 C388 1.404 . S
C389 H401 0.930 . S
C390 C386 1.524 . S
C390 H402 0.956 . S
C390 H403 0.961 . S
C390 H404 0.961 . S
C391 C388 1.539 . S
C391 H405 0.958 . S
C391 H406 0.961 . S
C391 H407 0.960 . S
H392 C376 0.931 . S
H393 C381 0.929 . S
H394 C382 0.960 . S
H395 C382 0.962 . S
H396 C382 0.960 . S
H397 C383 0.961 . S
H398 C383 0.961 . S
H399 C383 0.961 . S
H400 C384 0.931 . S
H401 C389 0.930 . S
H402 C390 0.956 . S
H403 C390 0.961 . S
H404 C390 0.961 . S
H405 C391 0.958 . S
H406 C391 0.961 . S
H407 C391 0.960 . S
C408 C409 1.391 . S
C408 C410 1.394 . S
C408 H424 0.931 . S
C409 C408 1.391 . S
C409 C413 1.376 . S
C410 C408 1.394 . S
C410 C411 1.369 . S
C410 C414 1.531 . S
C411 C410 1.369 . S
C411 C412 1.410 . S
C411 C419 1.503 . S
C412 C411 1.410 . S
C412 C413 1.392 . S
C412 C415 1.511 . S
C413 C409 1.376 . S
C413 C412 1.392 . S
C413 H425 0.929 . S
C414 C410 1.531 . S
C414 H426 0.960 . S
C414 H427 0.962 . S
C414 H428 0.960 . S
C415 C412 1.511 . S
C415 H429 0.961 . S
C415 H430 0.961 . S
C415 H431 0.961 . S
C416 C417 1.370 . S
C416 C418 1.363 . S
C416 H432 0.931 . S
C417 C416 1.370 . S
C417 C421 1.408 . S
C418 C416 1.363 . S
C418 C419 1.370 . S
C418 C422 1.524 . S
C419 C411 1.503 . S
C419 C418 1.370 . S
C419 C420 1.403 . S
C420 C419 1.403 . S
C420 C421 1.404 . S
C420 C423 1.539 . S
C421 C417 1.408 . S
C421 C420 1.404 . S
C421 H433 0.930 . S
C422 C418 1.524 . S
C422 H434 0.956 . S
C422 H435 0.961 . S
C422 H436 0.961 . S
C423 C420 1.539 . S
C423 H437 0.958 . S
C423 H438 0.961 . S
C423 H439 0.960 . S
H424 C408 0.931 . S
H425 C413 0.929 . S
H426 C414 0.960 . S
H427 C414 0.962 . S
H428 C414 0.960 . S
H429 C415 0.961 . S
H430 C415 0.961 . S
H431 C415 0.961 . S
H432 C416 0.931 . S
H433 C421 0.930 . S
H434 C422 0.956 . S
H435 C422 0.961 . S
H436 C422 0.961 . S
H437 C423 0.958 . S
H438 C423 0.961 . S
H439 C423 0.960 . S
C440 C441 1.391 . S
C440 C442 1.394 . S
C440 H456 0.931 . S
C441 C440 1.391 . S
C441 C445 1.376 . S
C442 C440 1.394 . S
C442 C443 1.369 . S
C442 C446 1.531 . S
C443 C442 1.369 . S
C443 C444 1.410 . S
C443 C451 1.503 . S
C444 C443 1.410 . S
C444 C445 1.392 . S
C444 C447 1.511 . S
C445 C441 1.376 . S
C445 C444 1.392 . S
C445 H457 0.929 . S
C446 C442 1.531 . S
C446 H458 0.960 . S
C446 H459 0.962 . S
C446 H460 0.960 . S
C447 C444 1.511 . S
C447 H461 0.961 . S
C447 H462 0.961 . S
C447 H463 0.961 . S
C448 C449 1.370 . S
C448 C450 1.363 . S
C448 H464 0.931 . S
C449 C448 1.370 . S
C449 C453 1.408 . S
C450 C448 1.363 . S
C450 C451 1.370 . S
C450 C454 1.524 . S
C451 C443 1.503 . S
C451 C450 1.370 . S
C451 C452 1.403 . S
C452 C451 1.403 . S
C452 C453 1.404 . S
C452 C455 1.539 . S
C453 C449 1.408 . S
C453 C452 1.404 . S
C453 H465 0.930 . S
C454 C450 1.524 . S
C454 H466 0.956 . S
C454 H467 0.961 . S
C454 H468 0.961 . S
C455 C452 1.539 . S
C455 H469 0.958 . S
C455 H470 0.961 . S
C455 H471 0.960 . S
H456 C440 0.931 . S
H457 C445 0.929 . S
H458 C446 0.960 . S
H459 C446 0.962 . S
H460 C446 0.960 . S
H461 C447 0.961 . S
H462 C447 0.961 . S
H463 C447 0.961 . S
H464 C448 0.931 . S
H465 C453 0.930 . S
H466 C454 0.956 . S
H467 C454 0.961 . S
H468 C454 0.961 . S
H469 C455 0.958 . S
H470 C455 0.961 . S
H471 C455 0.960 . S
C472 C473 1.391 . S
C472 C474 1.394 . S
C472 H488 0.931 . S
C473 C472 1.391 . S
C473 C477 1.376 . S
C474 C472 1.394 . S
C474 C475 1.369 . S
C474 C478 1.531 . S
C475 C474 1.369 . S
C475 C476 1.410 . S
C475 C483 1.503 . S
C476 C475 1.410 . S
C476 C477 1.392 . S
C476 C479 1.511 . S
C477 C473 1.376 . S
C477 C476 1.392 . S
C477 H489 0.929 . S
C478 C474 1.531 . S
C478 H490 0.960 . S
C478 H491 0.962 . S
C478 H492 0.960 . S
C479 C476 1.511 . S
C479 H493 0.961 . S
C479 H494 0.961 . S
C479 H495 0.961 . S
C480 C481 1.370 . S
C480 C482 1.363 . S
C480 H496 0.931 . S
C481 C480 1.370 . S
C481 C485 1.408 . S
C482 C480 1.363 . S
C482 C483 1.370 . S
C482 C486 1.524 . S
C483 C475 1.503 . S
C483 C482 1.370 . S
C483 C484 1.403 . S
C484 C483 1.403 . S
C484 C485 1.404 . S
C484 C487 1.539 . S
C485 C481 1.408 . S
C485 C484 1.404 . S
C485 H497 0.930 . S
C486 C482 1.524 . S
C486 H498 0.956 . S
C486 H499 0.961 . S
C486 H500 0.961 . S
C487 C484 1.539 . S
C487 H501 0.958 . S
C487 H502 0.961 . S
C487 H503 0.960 . S
H488 C472 0.931 . S
H489 C477 0.929 . S
H490 C478 0.960 . S
H491 C478 0.962 . S
H492 C478 0.960 . S
H493 C479 0.961 . S
H494 C479 0.961 . S
H495 C479 0.961 . S
H496 C480 0.931 . S
H497 C485 0.930 . S
H498 C486 0.956 . S
H499 C486 0.961 . S
H500 C486 0.961 . S
H501 C487 0.958 . S
H502 C487 0.961 . S
H503 C487 0.960 . S
C504 C505 1.391 . S
C504 C506 1.394 . S
C504 H520 0.931 . S
C505 C504 1.391 . S
C505 C509 1.376 . S
C506 C504 1.394 . S
C506 C507 1.369 . S
C506 C510 1.531 . S
C507 C506 1.369 . S
C507 C508 1.410 . S
C507 C515 1.503 . S
C508 C507 1.410 . S
C508 C509 1.392 . S
C508 C511 1.511 . S
C509 C505 1.376 . S
C509 C508 1.392 . S
C509 H521 0.929 . S
C510 C506 1.531 . S
C510 H522 0.960 . S
C510 H523 0.962 . S
C510 H524 0.960 . S
C511 C508 1.511 . S
C511 H525 0.961 . S
C511 H526 0.961 . S
C511 H527 0.961 . S
C512 C513 1.370 . S
C512 C514 1.363 . S
C512 H528 0.931 . S
C513 C512 1.370 . S
C513 C517 1.408 . S
C514 C512 1.363 . S
C514 C515 1.370 . S
C514 C518 1.524 . S
C515 C507 1.503 . S
C515 C514 1.370 . S
C515 C516 1.403 . S
C516 C515 1.403 . S
C516 C517 1.404 . S
C516 C519 1.539 . S
C517 C513 1.408 . S
C517 C516 1.404 . S
C517 H529 0.930 . S
C518 C514 1.524 . S
C518 H530 0.956 . S
C518 H531 0.961 . S
C518 H532 0.961 . S
C519 C516 1.539 . S
C519 H533 0.958 . S
C519 H534 0.961 . S
C519 H535 0.960 . S
H520 C504 0.931 . S
H521 C509 0.929 . S
H522 C510 0.960 . S
H523 C510 0.962 . S
H524 C510 0.960 . S
H525 C511 0.961 . S
H526 C511 0.961 . S
H527 C511 0.961 . S
H528 C512 0.931 . S
H529 C517 0.930 . S
H530 C518 0.956 . S
H531 C518 0.961 . S
H532 C518 0.961 . S
H533 C519 0.958 . S
H534 C519 0.961 . S
H535 C519 0.960 . S
C536 C537 1.391 . S
C536 C538 1.394 . S
C536 H552 0.931 . S
C537 C536 1.391 . S
C537 C541 1.376 . S
C538 C536 1.394 . S
C538 C539 1.369 . S
C538 C542 1.531 . S
C539 C538 1.369 . S
C539 C540 1.410 . S
C539 C547 1.503 . S
C540 C539 1.410 . S
C540 C541 1.392 . S
C540 C543 1.511 . S
C541 C537 1.376 . S
C541 C540 1.392 . S
C541 H553 0.929 . S
C542 C538 1.531 . S
C542 H554 0.960 . S
C542 H555 0.962 . S
C542 H556 0.960 . S
C543 C540 1.511 . S
C543 H557 0.961 . S
C543 H558 0.961 . S
C543 H559 0.961 . S
C544 C545 1.370 . S
C544 C546 1.363 . S
C544 H560 0.931 . S
C545 C544 1.370 . S
C545 C549 1.408 . S
C546 C544 1.363 . S
C546 C547 1.370 . S
C546 C550 1.524 . S
C547 C539 1.503 . S
C547 C546 1.370 . S
C547 C548 1.403 . S
C548 C547 1.403 . S
C548 C549 1.404 . S
C548 C551 1.539 . S
C549 C545 1.408 . S
C549 C548 1.404 . S
C549 H561 0.930 . S
C550 C546 1.524 . S
C550 H562 0.956 . S
C550 H563 0.961 . S
C550 H564 0.961 . S
C551 C548 1.539 . S
C551 H565 0.958 . S
C551 H566 0.961 . S
C551 H567 0.960 . S
H552 C536 0.931 . S
H553 C541 0.929 . S
H554 C542 0.960 . S
H555 C542 0.962 . S
H556 C542 0.960 . S
H557 C543 0.961 . S
H558 C543 0.961 . S
H559 C543 0.961 . S
H560 C544 0.931 . S
H561 C549 0.930 . S
H562 C550 0.956 . S
H563 C550 0.961 . S
H564 C550 0.961 . S
H565 C551 0.958 . S
H566 C551 0.961 . S
H567 C551 0.960 . S
C568 C569 1.391 . S
C568 C570 1.394 . S
C568 H584 0.931 . S
C569 C568 1.391 . S
C569 C573 1.376 . S
C570 C568 1.394 . S
C570 C571 1.369 . S
C570 C574 1.531 . S
C571 C570 1.369 . S
C571 C572 1.410 . S
C571 C579 1.503 . S
C572 C571 1.410 . S
C572 C573 1.392 . S
C572 C575 1.511 . S
C573 C569 1.376 . S
C573 C572 1.392 . S
C573 H585 0.929 . S
C574 C570 1.531 . S
C574 H586 0.960 . S
C574 H587 0.962 . S
C574 H588 0.960 . S
C575 C572 1.511 . S
C575 H589 0.961 . S
C575 H590 0.961 . S
C575 H591 0.961 . S
C576 C577 1.370 . S
C576 C578 1.363 . S
C576 H592 0.931 . S
C577 C576 1.370 . S
C577 C581 1.408 . S
C578 C576 1.363 . S
C578 C579 1.370 . S
C578 C582 1.524 . S
C579 C571 1.503 . S
C579 C578 1.370 . S
C579 C580 1.403 . S
C580 C579 1.403 . S
C580 C581 1.404 . S
C580 C583 1.539 . S
C581 C577 1.408 . S
C581 C580 1.404 . S
C581 H593 0.930 . S
C582 C578 1.524 . S
C582 H594 0.956 . S
C582 H595 0.961 . S
C582 H596 0.961 . S
C583 C580 1.539 . S
C583 H597 0.958 . S
C583 H598 0.961 . S
C583 H599 0.960 . S
H584 C568 0.931 . S
H585 C573 0.929 . S
H586 C574 0.960 . S
H587 C574 0.962 . S
H588 C574 0.960 . S
H589 C575 0.961 . S
H590 C575 0.961 . S
H591 C575 0.961 . S
H592 C576 0.931 . S
H593 C581 0.930 . S
H594 C582 0.956 . S
H595 C582 0.961 . S
H596 C582 0.961 . S
H597 C583 0.958 . S
H598 C583 0.961 . S
H599 C583 0.960 . S
C600 C601 1.391 . S
C600 C602 1.394 . S
C600 H616 0.931 . S
C601 C600 1.391 . S
C601 C605 1.376 . S
C602 C600 1.394 . S
C602 C603 1.369 . S
C602 C606 1.531 . S
C603 C602 1.369 . S
C603 C604 1.410 . S
C603 C611 1.503 . S
C604 C603 1.410 . S
C604 C605 1.392 . S
C604 C607 1.511 . S
C605 C601 1.376 . S
C605 C604 1.392 . S
C605 H617 0.929 . S
C606 C602 1.531 . S
C606 H618 0.960 . S
C606 H619 0.962 . S
C606 H620 0.960 . S
C607 C604 1.511 . S
C607 H621 0.961 . S
C607 H622 0.961 . S
C607 H623 0.961 . S
C608 C609 1.370 . S
C608 C610 1.363 . S
C608 H624 0.931 . S
C609 C608 1.370 . S
C609 C613 1.408 . S
C610 C608 1.363 . S
C610 C611 1.370 . S
C610 C614 1.524 . S
C611 C603 1.503 . S
C611 C610 1.370 . S
C611 C612 1.403 . S
C612 C611 1.403 . S
C612 C613 1.404 . S
C612 C615 1.539 . S
C613 C609 1.408 . S
C613 C612 1.404 . S
C613 H625 0.930 . S
C614 C610 1.524 . S
C614 H626 0.956 . S
C614 H627 0.961 . S
C614 H628 0.961 . S
C615 C612 1.539 . S
C615 H629 0.958 . S
C615 H630 0.961 . S
C615 H631 0.960 . S
H616 C600 0.931 . S
H617 C605 0.929 . S
H618 C606 0.960 . S
H619 C606 0.962 . S
H620 C606 0.960 . S
H621 C607 0.961 . S
H622 C607 0.961 . S
H623 C607 0.961 . S
H624 C608 0.931 . S
H625 C613 0.930 . S
H626 C614 0.956 . S
H627 C614 0.961 . S
H628 C614 0.961 . S
H629 C615 0.958 . S
H630 C615 0.961 . S
H631 C615 0.960 . S
C632 C633 1.391 . S
C632 C634 1.394 . S
C632 H648 0.931 . S
C633 C632 1.391 . S
C633 C637 1.376 . S
C634 C632 1.394 . S
C634 C635 1.369 . S
C634 C638 1.531 . S
C635 C634 1.369 . S
C635 C636 1.410 . S
C635 C643 1.503 . S
C636 C635 1.410 . S
C636 C637 1.392 . S
C636 C639 1.511 . S
C637 C633 1.376 . S
C637 C636 1.392 . S
C637 H649 0.929 . S
C638 C634 1.531 . S
C638 H650 0.960 . S
C638 H651 0.962 . S
C638 H652 0.960 . S
C639 C636 1.511 . S
C639 H653 0.961 . S
C639 H654 0.961 . S
C639 H655 0.961 . S
C640 C641 1.370 . S
C640 C642 1.363 . S
C640 H656 0.931 . S
C641 C640 1.370 . S
C641 C645 1.408 . S
C642 C640 1.363 . S
C642 C643 1.370 . S
C642 C646 1.524 . S
C643 C635 1.503 . S
C643 C642 1.370 . S
C643 C644 1.403 . S
C644 C643 1.403 . S
C644 C645 1.404 . S
C644 C647 1.539 . S
C645 C641 1.408 . S
C645 C644 1.404 . S
C645 H657 0.930 . S
C646 C642 1.524 . S
C646 H658 0.956 . S
C646 H659 0.961 . S
C646 H660 0.961 . S
C647 C644 1.539 . S
C647 H661 0.958 . S
C647 H662 0.961 . S
C647 H663 0.960 . S
H648 C632 0.931 . S
H649 C637 0.929 . S
H650 C638 0.960 . S
H651 C638 0.962 . S
H652 C638 0.960 . S
H653 C639 0.961 . S
H654 C639 0.961 . S
H655 C639 0.961 . S
H656 C640 0.931 . S
H657 C645 0.930 . S
H658 C646 0.956 . S
H659 C646 0.961 . S
H660 C646 0.961 . S
H661 C647 0.958 . S
H662 C647 0.961 . S
H663 C647 0.960 . S
C664 C665 1.391 . S
C664 C666 1.394 . S
C664 H680 0.931 . S
C665 C664 1.391 . S
C665 C669 1.376 . S
C666 C664 1.394 . S
C666 C667 1.369 . S
C666 C670 1.531 . S
C667 C666 1.369 . S
C667 C668 1.410 . S
C667 C675 1.503 . S
C668 C667 1.410 . S
C668 C669 1.392 . S
C668 C671 1.511 . S
C669 C665 1.376 . S
C669 C668 1.392 . S
C669 H681 0.929 . S
C670 C666 1.531 . S
C670 H682 0.960 . S
C670 H683 0.962 . S
C670 H684 0.960 . S
C671 C668 1.511 . S
C671 H685 0.961 . S
C671 H686 0.961 . S
C671 H687 0.961 . S
C672 C673 1.370 . S
C672 C674 1.363 . S
C672 H688 0.931 . S
C673 C672 1.370 . S
C673 C677 1.408 . S
C674 C672 1.363 . S
C674 C675 1.370 . S
C674 C678 1.524 . S
C675 C667 1.503 . S
C675 C674 1.370 . S
C675 C676 1.403 . S
C676 C675 1.403 . S
C676 C677 1.404 . S
C676 C679 1.539 . S
C677 C673 1.408 . S
C677 C676 1.404 . S
C677 H689 0.930 . S
C678 C674 1.524 . S
C678 H690 0.956 . S
C678 H691 0.961 . S
C678 H692 0.961 . S
C679 C676 1.539 . S
C679 H693 0.958 . S
C679 H694 0.961 . S
C679 H695 0.960 . S
H680 C664 0.931 . S
H681 C669 0.929 . S
H682 C670 0.960 . S
H683 C670 0.962 . S
H684 C670 0.960 . S
H685 C671 0.961 . S
H686 C671 0.961 . S
H687 C671 0.961 . S
H688 C672 0.931 . S
H689 C677 0.930 . S
H690 C678 0.956 . S
H691 C678 0.961 . S
H692 C678 0.961 . S
H693 C679 0.958 . S
H694 C679 0.961 . S
H695 C679 0.960 . S
C696 C697 1.391 . S
C696 C698 1.394 . S
C696 H712 0.931 . S
C697 C696 1.391 . S
C697 C701 1.376 . S
C698 C696 1.394 . S
C698 C699 1.369 . S
C698 C702 1.531 . S
C699 C698 1.369 . S
C699 C700 1.410 . S
C699 C707 1.503 1_565 S
C700 C699 1.410 . S
C700 C701 1.392 . S
C700 C703 1.511 1_565 S
C701 C697 1.376 . S
C701 C700 1.392 . S
C701 H713 0.929 . S
C702 C698 1.531 . S
C702 H714 0.960 . S
C702 H715 0.962 . S
C702 H716 0.960 . S
C703 C700 1.511 1_545 S
C703 H717 0.961 . S
C703 H718 0.961 . S
C703 H719 0.961 . S
C704 C705 1.370 . S
C704 C706 1.363 . S
C704 H720 0.931 . S
C705 C704 1.370 . S
C705 C709 1.408 . S
C706 C704 1.363 . S
C706 C707 1.370 . S
C706 C710 1.524 . S
C707 C699 1.503 1_545 S
C707 C706 1.370 . S
C707 C708 1.403 . S
C708 C707 1.403 . S
C708 C709 1.404 . S
C708 C711 1.539 . S
C709 C705 1.408 . S
C709 C708 1.404 . S
C709 H721 0.930 . S
C710 C706 1.524 . S
C710 H722 0.956 1_545 S
C710 H723 0.961 . S
C710 H724 0.961 . S
C711 C708 1.539 . S
C711 H725 0.958 1_545 S
C711 H726 0.961 . S
C711 H727 0.959 1_545 S
H712 C696 0.931 . S
H713 C701 0.929 . S
H714 C702 0.960 . S
H715 C702 0.962 . S
H716 C702 0.960 . S
H717 C703 0.961 . S
H718 C703 0.961 . S
H719 C703 0.961 . S
H720 C704 0.931 . S
H721 C709 0.930 . S
H722 C710 0.956 1_565 S
H723 C710 0.961 . S
H724 C710 0.961 . S
H725 C711 0.958 1_565 S
H726 C711 0.961 . S
H727 C711 0.959 1_565 S
C728 C729 1.391 . S
C728 C730 1.394 . S
C728 H744 0.931 . S
C729 C728 1.391 . S
C729 C733 1.376 . S
C730 C728 1.394 . S
C730 C731 1.369 . S
C730 C734 1.531 . S
C731 C730 1.369 . S
C731 C732 1.410 . S
C731 C739 1.503 1_655 S
C732 C731 1.410 . S
C732 C733 1.392 . S
C732 C735 1.511 . S
C733 C729 1.376 . S
C733 C732 1.392 . S
C733 H745 0.929 . S
C734 C730 1.531 . S
C734 H746 0.960 . S
C734 H747 0.962 . S
C734 H748 0.960 . S
C735 C732 1.511 . S
C735 H749 0.961 . S
C735 H750 0.961 1_655 S
C735 H751 0.961 . S
C736 C737 1.370 . S
C736 C738 1.363 . S
C736 H752 0.931 . S
C737 C736 1.370 . S
C737 C741 1.408 . S
C738 C736 1.363 . S
C738 C739 1.370 . S
C738 C742 1.524 . S
C739 C731 1.503 1_455 S
C739 C738 1.370 . S
C739 C740 1.403 . S
C740 C739 1.403 . S
C740 C741 1.404 . S
C740 C743 1.539 1_455 S
C741 C737 1.408 . S
C741 C740 1.404 . S
C741 H753 0.930 . S
C742 C738 1.524 . S
C742 H754 0.956 . S
C742 H755 0.961 . S
C742 H756 0.961 . S
C743 C740 1.539 1_655 S
C743 H757 0.958 . S
C743 H758 0.961 . S
C743 H759 0.960 . S
H744 C728 0.931 . S
H745 C733 0.929 . S
H746 C734 0.960 . S
H747 C734 0.962 . S
H748 C734 0.960 . S
H749 C735 0.961 . S
H750 C735 0.961 1_455 S
H751 C735 0.961 . S
H752 C736 0.931 . S
H753 C741 0.930 . S
H754 C742 0.956 . S
H755 C742 0.961 . S
H756 C742 0.961 . S
H757 C743 0.958 . S
H758 C743 0.961 . S
H759 C743 0.960 . S
C760 C761 1.391 . S
C760 C762 1.394 . S
C760 H776 0.931 . S
C761 C760 1.391 . S
C761 C765 1.376 . S
C762 C760 1.394 . S
C762 C763 1.369 . S
C762 C766 1.531 . S
C763 C762 1.369 . S
C763 C764 1.410 . S
C763 C771 1.503 1_545 S
C764 C763 1.410 . S
C764 C765 1.392 . S
C764 C767 1.511 1_545 S
C765 C761 1.376 . S
C765 C764 1.392 . S
C765 H777 0.929 . S
C766 C762 1.531 . S
C766 H778 0.960 . S
C766 H779 0.962 . S
C766 H780 0.960 . S
C767 C764 1.511 1_565 S
C767 H781 0.971 . S
C767 H782 0.961 . S
C767 H783 0.961 . S
C768 C769 1.370 . S
C768 C770 1.363 . S
C768 H784 0.931 . S
C769 C768 1.370 . S
C769 C773 1.408 . S
C770 C768 1.363 . S
C770 C771 1.370 . S
C770 C774 1.524 1_565 S
C771 C763 1.503 1_565 S
C771 C770 1.370 . S
C771 C772 1.403 . S
C772 C771 1.403 . S
C772 C773 1.404 . S
C772 C775 1.539 . S
C773 C769 1.408 . S
C773 C772 1.404 . S
C773 H785 0.930 . S
C774 C770 1.524 1_545 S
C774 H786 0.956 . S
C774 H787 0.961 . S
C774 H788 0.961 . S
C775 C772 1.539 . S
C775 H789 0.958 . S
C775 H790 0.961 . S
C775 H791 0.960 . S
H776 C760 0.931 . S
H777 C765 0.929 . S
H778 C766 0.960 . S
H779 C766 0.962 . S
H780 C766 0.960 . S
H781 C767 0.971 . S
H782 C767 0.961 . S
H783 C767 0.961 . S
H784 C768 0.931 . S
H785 C773 0.930 . S
H786 C774 0.956 . S
H787 C774 0.961 . S
H788 C774 0.961 . S
H789 C775 0.958 . S
H790 C775 0.961 . S
H791 C775 0.960 . S
C792 C793 1.391 . S
C792 C794 1.394 . S
C792 H808 0.931 . S
C793 C792 1.391 . S
C793 C797 1.376 . S
C794 C792 1.394 . S
C794 C795 1.369 . S
C794 C798 1.531 . S
C795 C794 1.369 . S
C795 C796 1.410 . S
C795 C803 1.503 1_455 S
C796 C795 1.410 . S
C796 C797 1.392 . S
C796 C799 1.511 . S
C797 C793 1.376 . S
C797 C796 1.392 . S
C797 H809 0.929 . S
C798 C794 1.531 . S
C798 H810 0.960 . S
C798 H811 0.962 1_455 S
C798 H812 0.960 . S
C799 C796 1.511 . S
C799 H813 0.961 . S
C799 H814 1.001 . S
C799 H815 0.961 . S
C800 C801 1.370 . S
C800 C802 1.363 . S
C800 H816 0.931 . S
C801 C800 1.370 . S
C801 C805 1.408 . S
C802 C800 1.363 . S
C802 C803 1.370 . S
C802 C806 1.524 . S
C803 C795 1.503 1_655 S
C803 C802 1.370 . S
C803 C804 1.403 . S
C804 C803 1.403 . S
C804 C805 1.404 . S
C804 C807 1.539 1_655 S
C805 C801 1.408 . S
C805 C804 1.404 . S
C805 H817 0.930 . S
C806 C802 1.524 . S
C806 H818 0.956 . S
C806 H819 0.961 . S
C806 H820 0.961 . S
C807 C804 1.539 1_455 S
C807 H821 0.958 . S
C807 H822 0.961 . S
C807 H823 0.960 . S
H808 C792 0.931 . S
H809 C797 0.929 . S
H810 C798 0.960 . S
H811 C798 0.962 1_655 S
H812 C798 0.960 . S
H813 C799 0.961 . S
H814 C799 1.001 . S
H815 C799 0.961 . S
H816 C800 0.931 . S
H817 C805 0.930 . S
H818 C806 0.956 . S
H819 C806 0.961 . S
H820 C806 0.961 . S
H821 C807 0.958 . S
H822 C807 0.961 . S
H823 C807 0.960 . S
C824 C825 1.391 . S
C824 C826 1.394 . S
C824 H840 0.931 . S
C825 C824 1.391 . S
C825 C829 1.376 . S
C826 C824 1.394 . S
C826 C827 1.369 . S
C826 C830 1.531 . S
C827 C826 1.369 . S
C827 C828 1.410 . S
C827 C835 1.503 1_565 S
C828 C827 1.410 . S
C828 C829 1.392 . S
C828 C831 1.511 . S
C829 C825 1.376 . S
C829 C828 1.392 . S
C829 H841 0.929 . S
C830 C826 1.531 . S
C830 H842 0.960 . S
C830 H843 0.962 1_565 S
C830 H844 0.960 . S
C831 C828 1.511 . S
C831 H845 0.961 . S
C831 H846 0.961 1_565 S
C831 H847 0.961 . S
C832 C833 1.370 . S
C832 C834 1.363 . S
C832 H848 0.931 . S
C833 C832 1.370 . S
C833 C837 1.408 . S
C834 C832 1.363 . S
C834 C835 1.370 . S
C834 C838 1.524 . S
C835 C827 1.503 1_545 S
C835 C834 1.370 . S
C835 C836 1.403 . S
C836 C835 1.403 . S
C836 C837 1.404 . S
C836 C839 1.539 1_545 S
C837 C833 1.408 . S
C837 C836 1.404 . S
C837 H849 0.930 . S
C838 C834 1.524 . S
C838 H850 0.956 . S
C838 H851 0.961 . S
C838 H852 0.961 . S
C839 C836 1.539 1_565 S
C839 H853 0.958 . S
C839 H854 0.961 . S
C839 H855 0.960 . S
H840 C824 0.931 . S
H841 C829 0.929 . S
H842 C830 0.960 . S
H843 C830 0.962 1_545 S
H844 C830 0.960 . S
H845 C831 0.961 . S
H846 C831 0.961 1_545 S
H847 C831 0.961 . S
H848 C832 0.931 . S
H849 C837 0.930 . S
H850 C838 0.956 . S
H851 C838 0.961 . S
H852 C838 0.961 . S
H853 C839 0.958 . S
H854 C839 0.961 . S
H855 C839 0.960 . S
C856 C857 1.391 . S
C856 C858 1.394 . S
C856 H872 0.931 . S
C857 C856 1.391 . S
C857 C861 1.376 . S
C858 C856 1.394 . S
C858 C859 1.369 . S
C858 C862 1.531 . S
C859 C858 1.369 . S
C859 C860 1.410 . S
C859 C867 1.503 1_655 S
C860 C859 1.410 . S
C860 C861 1.392 . S
C860 C863 1.511 . S
C861 C857 1.376 . S
C861 C860 1.392 . S
C861 H873 0.929 . S
C862 C858 1.531 . S
C862 H874 0.960 . S
C862 H875 0.962 . S
C862 H876 0.960 . S
C863 C860 1.511 . S
C863 H877 0.961 . S
C863 H878 0.961 1_655 S
C863 H879 0.961 . S
C864 C865 1.370 . S
C864 C866 1.363 . S
C864 H880 0.931 . S
C865 C864 1.370 . S
C865 C869 1.408 . S
C866 C864 1.363 . S
C866 C867 1.370 . S
C866 C870 1.524 . S
C867 C859 1.503 1_455 S
C867 C866 1.370 . S
C867 C868 1.403 . S
C868 C867 1.403 . S
C868 C869 1.404 . S
C868 C871 1.539 1_455 S
C869 C865 1.408 . S
C869 C868 1.404 . S
C869 H881 0.930 . S
C870 C866 1.524 . S
C870 H882 0.956 . S
C870 H883 0.961 . S
C870 H884 0.961 . S
C871 C868 1.539 1_655 S
C871 H885 0.958 . S
C871 H886 0.961 . S
C871 H887 0.960 . S
H872 C856 0.931 . S
H873 C861 0.929 . S
H874 C862 0.960 . S
H875 C862 0.962 . S
H876 C862 0.960 . S
H877 C863 0.961 . S
H878 C863 0.961 1_455 S
H879 C863 0.961 . S
H880 C864 0.931 . S
H881 C869 0.930 . S
H882 C870 0.956 . S
H883 C870 0.961 . S
H884 C870 0.961 . S
H885 C871 0.958 . S
H886 C871 0.961 . S
H887 C871 0.960 . S
C888 C889 1.391 . S
C888 C890 1.394 . S
C888 H904 0.931 . S
C889 C888 1.391 . S
C889 C893 1.376 . S
C890 C888 1.394 . S
C890 C891 1.369 . S
C890 C894 1.531 . S
C891 C890 1.369 . S
C891 C892 1.410 . S
C891 C899 1.503 1_565 S
C892 C891 1.410 . S
C892 C893 1.392 . S
C892 C895 1.511 1_565 S
C893 C889 1.376 . S
C893 C892 1.392 . S
C893 H905 0.929 . S
C894 C890 1.531 . S
C894 H906 0.960 . S
C894 H907 0.962 . S
C894 H908 0.960 . S
C895 C892 1.511 1_545 S
C895 H909 0.961 . S
C895 H910 0.961 . S
C895 H911 0.961 . S
C896 C897 1.370 . S
C896 C898 1.363 . S
C896 H912 0.931 . S
C897 C896 1.370 . S
C897 C901 1.408 . S
C898 C896 1.363 . S
C898 C899 1.370 . S
C898 C902 1.524 . S
C899 C891 1.503 1_545 S
C899 C898 1.370 . S
C899 C900 1.403 . S
C900 C899 1.403 . S
C900 C901 1.404 . S
C900 C903 1.539 1_545 S
C901 C897 1.408 . S
C901 C900 1.404 . S
C901 H913 0.930 . S
C902 C898 1.524 . S
C902 H914 0.956 . S
C902 H915 0.961 . S
C902 H916 0.961 . S
C903 C900 1.539 1_565 S
C903 H917 0.958 . S
C903 H918 0.961 1_565 S
C903 H919 0.960 . S
H904 C888 0.931 . S
H905 C893 0.929 . S
H906 C894 0.960 . S
H907 C894 0.962 . S
H908 C894 0.960 . S
H909 C895 0.961 . S
H910 C895 0.961 . S
H911 C895 0.961 . S
H912 C896 0.931 . S
H913 C901 0.930 . S
H914 C902 0.956 . S
H915 C902 0.961 . S
H916 C902 0.961 . S
H917 C903 0.958 . S
H918 C903 0.961 1_545 S
H919 C903 0.960 . S
C920 C921 1.391 . S
C920 C922 1.394 . S
C920 H936 0.931 . S
C921 C920 1.391 . S
C921 C925 1.376 . S
C922 C920 1.394 . S
C922 C923 1.369 . S
C922 C926 1.531 . S
C923 C922 1.369 . S
C923 C924 1.410 . S
C923 C931 1.503 1_455 S
C924 C923 1.410 . S
C924 C925 1.392 . S
C924 C927 1.511 1_455 S
C925 C921 1.376 . S
C925 C924 1.392 . S
C925 H937 0.929 . S
C926 C922 1.531 . S
C926 H938 0.960 . S
C926 H939 0.962 . S
C926 H940 0.960 . S
C927 C924 1.511 1_655 S
C927 H941 0.961 . S
C927 H942 0.961 . S
C927 H943 0.961 . S
C928 C929 1.370 . S
C928 C930 1.363 . S
C928 H944 0.931 . S
C929 C928 1.370 . S
C929 C933 1.408 . S
C930 C928 1.363 . S
C930 C931 1.370 . S
C930 C934 1.524 1_655 S
C931 C923 1.503 1_655 S
C931 C930 1.370 . S
C931 C932 1.403 . S
C932 C931 1.403 . S
C932 C933 1.404 . S
C932 C935 1.539 . S
C933 C929 1.408 . S
C933 C932 1.404 . S
C933 H945 0.930 . S
C934 C930 1.524 1_455 S
C934 H946 0.956 . S
C934 H947 0.961 . S
C934 H948 0.961 1_455 S
C935 C932 1.539 . S
C935 H949 0.958 . S
C935 H950 0.961 . S
C935 H951 0.960 . S
H936 C920 0.931 . S
H937 C925 0.929 . S
H938 C926 0.960 . S
H939 C926 0.962 . S
H940 C926 0.960 . S
H941 C927 0.961 . S
H942 C927 0.961 . S
H943 C927 0.961 . S
H944 C928 0.931 . S
H945 C933 0.930 . S
H946 C934 0.956 . S
H947 C934 0.961 . S
H948 C934 0.961 1_655 S
H949 C935 0.958 . S
H950 C935 0.961 . S
H951 C935 0.960 . S
C952 C953 1.391 . S
C952 C954 1.394 . S
C952 H968 0.931 . S
C953 C952 1.391 . S
C953 C957 1.376 . S
C954 C952 1.394 . S
C954 C955 1.369 . S
C954 C958 1.531 . S
C955 C954 1.369 . S
C955 C956 1.410 . S
C955 C963 1.503 1_556 S
C956 C955 1.410 . S
C956 C957 1.392 . S
C956 C959 1.494 1_556 S
C957 C953 1.376 . S
C957 C956 1.392 . S
C957 H969 0.929 . S
C958 C954 1.531 . S
C958 H970 0.960 1_556 S
C958 H971 0.962 . S
C958 H972 0.960 . S
C959 C956 1.494 1_554 S
C959 H973 0.940 1_554 S
C959 H974 0.974 . S
C959 H975 0.987 . S
C960 C961 1.370 . S
C960 C962 1.363 . S
C960 H976 0.931 . S
C961 C960 1.370 . S
C961 C965 1.408 . S
C962 C960 1.363 . S
C962 C963 1.370 . S
C962 C966 1.524 1_554 S
C963 C955 1.503 1_554 S
C963 C962 1.370 . S
C963 C964 1.403 . S
C964 C963 1.403 . S
C964 C965 1.404 . S
C964 C967 1.539 . S
C965 C961 1.408 . S
C965 C964 1.404 . S
C965 H977 0.930 . S
C966 C962 1.524 1_556 S
C966 H978 0.956 . S
C966 H979 0.961 . S
C966 H980 0.961 . S
C967 C964 1.539 . S
C967 H981 0.958 . S
C967 H982 0.961 . S
C967 H983 0.960 . S
H968 C952 0.931 . S
H969 C957 0.929 . S
H970 C958 0.960 1_554 S
H971 C958 0.962 . S
H972 C958 0.960 . S
H973 C959 0.940 1_556 S
H974 C959 0.974 . S
H975 C959 0.987 . S
H976 C960 0.931 . S
H977 C965 0.930 . S
H978 C966 0.956 . S
H979 C966 0.961 . S
H980 C966 0.961 . S
H981 C967 0.958 . S
H982 C967 0.961 . S
H983 C967 0.960 . S
C984 C985 1.391 . S
C984 C986 1.394 . S
C984 H1000 0.931 . S
C985 C984 1.391 . S
C985 C989 1.376 . S
C986 C984 1.394 . S
C986 C987 1.369 . S
C986 C990 1.531 . S
C987 C986 1.369 . S
C987 C988 1.410 . S
C987 C995 1.503 1_554 S
C988 C987 1.410 . S
C988 C989 1.392 . S
C988 C991 1.511 . S
C989 C985 1.376 . S
C989 C988 1.392 . S
C989 H1001 0.929 . S
C990 C986 1.531 . S
C990 H1002 0.960 1_554 S
C990 H1003 0.962 1_554 S
C990 H1004 0.960 . S
C991 C988 1.511 . S
C991 H1005 0.961 . S
C991 H1006 0.961 . S
C991 H1007 0.961 . S
C992 C993 1.370 . S
C992 C994 1.363 . S
C992 H1008 0.931 . S
C993 C992 1.370 . S
C993 C997 1.408 . S
C994 C992 1.363 . S
C994 C995 1.370 . S
C994 C998 1.524 . S
C995 C987 1.503 1_556 S
C995 C994 1.370 . S
C995 C996 1.403 . S
C996 C995 1.403 . S
C996 C997 1.404 . S
C996 C999 1.539 1_556 S
C997 C993 1.408 . S
C997 C996 1.404 . S
C997 H1009 0.930 . S
C998 C994 1.524 . S
C998 H1010 0.956 . S
C998 H1011 0.961 . S
C998 H1012 0.961 . S
C999 C996 1.539 1_554 S
C999 H1013 0.958 . S
C999 H1014 0.961 . S
C999 H1015 0.960 . S
H1000 C984 0.931 . S
H1001 C989 0.929 . S
H1002 C990 0.960 1_556 S
H1003 C990 0.962 1_556 S
H1004 C990 0.960 . S
H1005 C991 0.961 . S
H1006 C991 0.961 . S
H1007 C991 0.961 . S
H1008 C992 0.931 . S
H1009 C997 0.930 . S
H1010 C998 0.956 . S
H1011 C998 0.961 . S
H1012 C998 0.961 . S
H1013 C999 0.958 . S
H1014 C999 0.961 . S
H1015 C999 0.960 . S
C1016 C1017 1.391 . S
C1016 C1018 1.394 . S
C1016 H1032 0.931 . S
C1017 C1016 1.391 . S
C1017 C1021 1.376 . S
C1018 C1016 1.394 . S
C1018 C1019 1.369 . S
C1018 C1022 1.531 1_556 S
C1019 C1018 1.369 . S
C1019 C1020 1.410 . S
C1019 C1027 1.503 1_556 S
C1020 C1019 1.410 . S
C1020 C1021 1.392 . S
C1020 C1023 1.511 . S
C1021 C1017 1.376 . S
C1021 C1020 1.392 . S
C1021 H1033 0.929 . S
C1022 C1018 1.531 1_554 S
C1022 H1034 0.960 . S
C1022 H1035 0.950 1_554 S
C1022 H1036 0.960 . S
C1023 C1020 1.511 . S
C1023 H1037 0.961 . S
C1023 H1038 0.961 . S
C1023 H1039 0.961 . S
C1024 C1025 1.370 . S
C1024 C1026 1.363 . S
C1024 H1040 0.931 . S
C1025 C1024 1.370 . S
C1025 C1029 1.408 . S
C1026 C1024 1.363 . S
C1026 C1027 1.370 . S
C1026 C1030 1.524 1_554 S
C1027 C1019 1.503 1_554 S
C1027 C1026 1.370 . S
C1027 C1028 1.403 . S
C1028 C1027 1.403 . S
C1028 C1029 1.404 . S
C1028 C1031 1.539 . S
C1029 C1025 1.408 . S
C1029 C1028 1.404 . S
C1029 H1041 0.930 . S
C1030 C1026 1.524 1_556 S
C1030 H1042 0.956 . S
C1030 H1043 0.961 . S
C1030 H1044 0.961 . S
C1031 C1028 1.539 . S
C1031 H1045 0.958 . S
C1031 H1046 0.961 . S
C1031 H1047 0.960 . S
H1032 C1016 0.931 . S
H1033 C1021 0.929 . S
H1034 C1022 0.960 . S
H1035 C1022 0.950 1_556 S
H1036 C1022 0.960 . S
H1037 C1023 0.961 . S
H1038 C1023 0.961 . S
H1039 C1023 0.961 . S
H1040 C1024 0.931 . S
H1041 C1029 0.930 . S
H1042 C1030 0.956 . S
H1043 C1030 0.961 . S
H1044 C1030 0.961 . S
H1045 C1031 0.958 . S
H1046 C1031 0.961 . S
H1047 C1031 0.960 . S
C1048 C1049 1.391 . S
C1048 C1050 1.394 . S
C1048 H1064 0.931 . S
C1049 C1048 1.391 . S
C1049 C1053 1.376 . S
C1050 C1048 1.394 . S
C1050 C1051 1.369 . S
C1050 C1054 1.531 . S
C1051 C1050 1.369 . S
C1051 C1052 1.410 . S
C1051 C1059 1.503 1_554 S
C1052 C1051 1.410 . S
C1052 C1053 1.392 . S
C1052 C1055 1.511 1_554 S
C1053 C1049 1.376 . S
C1053 C1052 1.392 . S
C1053 H1065 0.929 . S
C1054 C1050 1.531 . S
C1054 H1066 0.960 . S
C1054 H1067 0.962 . S
C1054 H1068 0.960 . S
C1055 C1052 1.511 1_556 S
C1055 H1069 0.961 . S
C1055 H1070 0.961 . S
C1055 H1071 0.961 . S
C1056 C1057 1.370 . S
C1056 C1058 1.363 . S
C1056 H1072 0.931 . S
C1057 C1056 1.370 . S
C1057 C1061 1.408 . S
C1058 C1056 1.363 . S
C1058 C1059 1.370 . S
C1058 C1062 1.524 . S
C1059 C1051 1.503 1_556 S
C1059 C1058 1.370 . S
C1059 C1060 1.403 . S
C1060 C1059 1.403 . S
C1060 C1061 1.404 . S
C1060 C1063 1.539 . S
C1061 C1057 1.408 . S
C1061 C1060 1.404 . S
C1061 H1073 0.930 . S
C1062 C1058 1.524 . S
C1062 H1074 0.956 1_556 S
C1062 H1075 0.961 . S
C1062 H1076 0.961 . S
C1063 C1060 1.539 . S
C1063 H1077 0.958 . S
C1063 H1078 0.961 . S
C1063 H1079 0.960 . S
H1064 C1048 0.931 . S
H1065 C1053 0.929 . S
H1066 C1054 0.960 . S
H1067 C1054 0.962 . S
H1068 C1054 0.960 . S
H1069 C1055 0.961 . S
H1070 C1055 0.961 . S
H1071 C1055 0.961 . S
H1072 C1056 0.931 . S
H1073 C1061 0.930 . S
H1074 C1062 0.956 1_554 S
H1075 C1062 0.961 . S
H1076 C1062 0.961 . S
H1077 C1063 0.958 . S
H1078 C1063 0.961 . S
H1079 C1063 0.960 . S
C1080 C1081 1.391 . S
C1080 C1082 1.394 . S
C1080 H1096 0.931 . S
C1081 C1080 1.391 . S
C1081 C1085 1.376 . S
C1082 C1080 1.394 . S
C1082 C1083 1.369 . S
C1082 C1086 1.531 . S
C1083 C1082 1.369 . S
C1083 C1084 1.410 . S
C1083 C1091 1.503 . S
C1084 C1083 1.410 . S
C1084 C1085 1.392 . S
C1084 C1087 1.511 . S
C1085 C1081 1.376 . S
C1085 C1084 1.392 . S
C1085 H1097 0.929 . S
C1086 C1082 1.531 . S
C1086 H1098 0.960 . S
C1086 H1099 0.962 . S
C1086 H1100 0.960 . S
C1087 C1084 1.511 . S
C1087 H1101 0.961 . S
C1087 H1102 0.961 . S
C1087 H1103 0.961 . S
C1088 C1089 1.370 . S
C1088 C1090 1.363 . S
C1088 H1104 0.931 . S
C1089 C1088 1.370 . S
C1089 C1093 1.408 . S
C1090 C1088 1.363 . S
C1090 C1091 1.370 . S
C1090 C1094 1.524 . S
C1091 C1083 1.503 . S
C1091 C1090 1.370 . S
C1091 C1092 1.403 . S
C1092 C1091 1.403 . S
C1092 C1093 1.404 . S
C1092 C1095 1.539 . S
C1093 C1089 1.408 . S
C1093 C1092 1.404 . S
C1093 H1105 0.930 . S
C1094 C1090 1.524 . S
C1094 H1106 0.956 . S
C1094 H1107 0.961 . S
C1094 H1108 0.961 . S
C1095 C1092 1.539 . S
C1095 H1109 0.958 . S
C1095 H1110 0.961 . S
C1095 H1111 0.960 . S
H1096 C1080 0.931 . S
H1097 C1085 0.929 . S
H1098 C1086 0.960 . S
H1099 C1086 0.962 . S
H1100 C1086 0.960 . S
H1101 C1087 0.961 . S
H1102 C1087 0.961 . S
H1103 C1087 0.961 . S
H1104 C1088 0.931 . S
H1105 C1093 0.930 . S
H1106 C1094 0.956 . S
H1107 C1094 0.961 . S
H1108 C1094 0.961 . S
H1109 C1095 0.958 . S
H1110 C1095 0.961 . S
H1111 C1095 0.960 . S
C1112 C1113 1.391 . S
C1112 C1114 1.394 . S
C1112 H1128 0.931 . S
C1113 C1112 1.391 . S
C1113 C1117 1.376 . S
C1114 C1112 1.394 . S
C1114 C1115 1.369 . S
C1114 C1118 1.531 . S
C1115 C1114 1.369 . S
C1115 C1116 1.410 . S
C1115 C1123 1.503 . S
C1116 C1115 1.410 . S
C1116 C1117 1.392 . S
C1116 C1119 1.511 . S
C1117 C1113 1.376 . S
C1117 C1116 1.392 . S
C1117 H1129 0.929 . S
C1118 C1114 1.531 . S
C1118 H1130 0.960 . S
C1118 H1131 0.962 . S
C1118 H1132 0.960 . S
C1119 C1116 1.511 . S
C1119 H1133 0.961 . S
C1119 H1134 0.961 . S
C1119 H1135 0.961 . S
C1120 C1121 1.370 . S
C1120 C1122 1.363 . S
C1120 H1136 0.931 . S
C1121 C1120 1.370 . S
C1121 C1125 1.408 . S
C1122 C1120 1.363 . S
C1122 C1123 1.370 . S
C1122 C1126 1.524 . S
C1123 C1115 1.503 . S
C1123 C1122 1.370 . S
C1123 C1124 1.403 . S
C1124 C1123 1.403 . S
C1124 C1125 1.404 . S
C1124 C1127 1.539 . S
C1125 C1121 1.408 . S
C1125 C1124 1.404 . S
C1125 H1137 0.930 . S
C1126 C1122 1.524 . S
C1126 H1138 0.956 . S
C1126 H1139 0.961 . S
C1126 H1140 0.961 . S
C1127 C1124 1.539 . S
C1127 H1141 0.958 . S
C1127 H1142 0.961 . S
C1127 H1143 0.960 . S
H1128 C1112 0.931 . S
H1129 C1117 0.929 . S
H1130 C1118 0.960 . S
H1131 C1118 0.962 . S
H1132 C1118 0.960 . S
H1133 C1119 0.961 . S
H1134 C1119 0.961 . S
H1135 C1119 0.961 . S
H1136 C1120 0.931 . S
H1137 C1125 0.930 . S
H1138 C1126 0.956 . S
H1139 C1126 0.961 . S
H1140 C1126 0.961 . S
H1141 C1127 0.958 . S
H1142 C1127 0.961 . S
H1143 C1127 0.960 . S
C1144 C1145 1.391 . S
C1144 C1146 1.394 . S
C1144 H1160 0.931 . S
C1145 C1144 1.391 . S
C1145 C1149 1.376 . S
C1146 C1144 1.394 . S
C1146 C1147 1.369 . S
C1146 C1150 1.531 . S
C1147 C1146 1.369 . S
C1147 C1148 1.410 . S
C1147 C1155 1.503 . S
C1148 C1147 1.410 . S
C1148 C1149 1.392 . S
C1148 C1151 1.511 . S
C1149 C1145 1.376 . S
C1149 C1148 1.392 . S
C1149 H1161 0.929 . S
C1150 C1146 1.531 . S
C1150 H1162 0.960 . S
C1150 H1163 0.962 . S
C1150 H1164 0.960 . S
C1151 C1148 1.511 . S
C1151 H1165 0.961 . S
C1151 H1166 0.961 . S
C1151 H1167 0.961 . S
C1152 C1153 1.370 . S
C1152 C1154 1.363 . S
C1152 H1168 0.931 . S
C1153 C1152 1.370 . S
C1153 C1157 1.408 . S
C1154 C1152 1.363 . S
C1154 C1155 1.370 . S
C1154 C1158 1.524 . S
C1155 C1147 1.503 . S
C1155 C1154 1.370 . S
C1155 C1156 1.403 . S
C1156 C1155 1.403 . S
C1156 C1157 1.404 . S
C1156 C1159 1.539 . S
C1157 C1153 1.408 . S
C1157 C1156 1.404 . S
C1157 H1169 0.930 . S
C1158 C1154 1.524 . S
C1158 H1170 0.956 . S
C1158 H1171 0.961 . S
C1158 H1172 0.961 . S
C1159 C1156 1.539 . S
C1159 H1173 0.958 . S
C1159 H1174 0.961 . S
C1159 H1175 0.960 . S
H1160 C1144 0.931 . S
H1161 C1149 0.929 . S
H1162 C1150 0.960 . S
H1163 C1150 0.962 . S
H1164 C1150 0.960 . S
H1165 C1151 0.961 . S
H1166 C1151 0.961 . S
H1167 C1151 0.961 . S
H1168 C1152 0.931 . S
H1169 C1157 0.930 . S
H1170 C1158 0.956 . S
H1171 C1158 0.961 . S
H1172 C1158 0.961 . S
H1173 C1159 0.958 . S
H1174 C1159 0.961 . S
H1175 C1159 0.960 . S
C1176 C1177 1.391 . S
C1176 C1178 1.394 . S
C1176 H1192 0.931 . S
C1177 C1176 1.391 . S
C1177 C1181 1.376 . S
C1178 C1176 1.394 . S
C1178 C1179 1.369 . S
C1178 C1182 1.531 . S
C1179 C1178 1.369 . S
C1179 C1180 1.410 . S
C1179 C1187 1.503 . S
C1180 C1179 1.410 . S
C1180 C1181 1.392 . S
C1180 C1183 1.511 . S
C1181 C1177 1.376 . S
C1181 C1180 1.392 . S
C1181 H1193 0.929 . S
C1182 C1178 1.531 . S
C1182 H1194 0.960 . S
C1182 H1195 0.962 . S
C1182 H1196 0.960 . S
C1183 C1180 1.511 . S
C1183 H1197 0.961 . S
C1183 H1198 0.961 . S
C1183 H1199 0.961 . S
C1184 C1185 1.370 . S
C1184 C1186 1.363 . S
C1184 H1200 0.931 . S
C1185 C1184 1.370 . S
C1185 C1189 1.408 . S
C1186 C1184 1.363 . S
C1186 C1187 1.370 . S
C1186 C1190 1.524 . S
C1187 C1179 1.503 . S
C1187 C1186 1.370 . S
C1187 C1188 1.403 . S
C1188 C1187 1.403 . S
C1188 C1189 1.404 . S
C1188 C1191 1.539 . S
C1189 C1185 1.408 . S
C1189 C1188 1.404 . S
C1189 H1201 0.930 . S
C1190 C1186 1.524 . S
C1190 H1202 0.956 . S
C1190 H1203 0.961 . S
C1190 H1204 0.961 . S
C1191 C1188 1.539 . S
C1191 H1205 0.958 . S
C1191 H1206 0.961 . S
C1191 H1207 0.960 . S
H1192 C1176 0.931 . S
H1193 C1181 0.929 . S
H1194 C1182 0.960 . S
H1195 C1182 0.962 . S
H1196 C1182 0.960 . S
H1197 C1183 0.961 . S
H1198 C1183 0.961 . S
H1199 C1183 0.961 . S
H1200 C1184 0.931 . S
H1201 C1189 0.930 . S
H1202 C1190 0.956 . S
H1203 C1190 0.961 . S
H1204 C1190 0.961 . S
H1205 C1191 0.958 . S
H1206 C1191 0.961 . S
H1207 C1191 0.960 . S
C1208 C1209 1.391 . S
C1208 C1210 1.394 . S
C1208 H1224 0.931 . S
C1209 C1208 1.391 . S
C1209 C1213 1.376 . S
C1210 C1208 1.394 . S
C1210 C1211 1.369 . S
C1210 C1214 1.531 . S
C1211 C1210 1.369 . S
C1211 C1212 1.410 . S
C1211 C1219 1.503 . S
C1212 C1211 1.410 . S
C1212 C1213 1.392 . S
C1212 C1215 1.511 . S
C1213 C1209 1.376 . S
C1213 C1212 1.392 . S
C1213 H1225 0.929 . S
C1214 C1210 1.531 . S
C1214 H1226 0.960 . S
C1214 H1227 0.962 . S
C1214 H1228 0.960 . S
C1215 C1212 1.511 . S
C1215 H1229 0.961 . S
C1215 H1230 0.961 . S
C1215 H1231 0.961 . S
C1216 C1217 1.370 . S
C1216 C1218 1.363 . S
C1216 H1232 0.931 . S
C1217 C1216 1.370 . S
C1217 C1221 1.408 . S
C1218 C1216 1.363 . S
C1218 C1219 1.370 . S
C1218 C1222 1.524 . S
C1219 C1211 1.503 . S
C1219 C1218 1.370 . S
C1219 C1220 1.403 . S
C1220 C1219 1.403 . S
C1220 C1221 1.404 . S
C1220 C1223 1.539 . S
C1221 C1217 1.408 . S
C1221 C1220 1.404 . S
C1221 H1233 0.930 . S
C1222 C1218 1.524 . S
C1222 H1234 0.956 . S
C1222 H1235 0.961 . S
C1222 H1236 0.961 . S
C1223 C1220 1.539 . S
C1223 H1237 0.958 . S
C1223 H1238 0.961 . S
C1223 H1239 0.960 . S
H1224 C1208 0.931 . S
H1225 C1213 0.929 . S
H1226 C1214 0.960 . S
H1227 C1214 0.962 . S
H1228 C1214 0.960 . S
H1229 C1215 0.961 . S
H1230 C1215 0.961 . S
H1231 C1215 0.961 . S
H1232 C1216 0.931 . S
H1233 C1221 0.930 . S
H1234 C1222 0.956 . S
H1235 C1222 0.961 . S
H1236 C1222 0.961 . S
H1237 C1223 0.958 . S
H1238 C1223 0.961 . S
H1239 C1223 0.960 . S
C1240 C1241 1.391 . S
C1240 C1242 1.394 . S
C1240 H1256 0.931 . S
C1241 C1240 1.391 . S
C1241 C1245 1.376 . S
C1242 C1240 1.394 . S
C1242 C1243 1.369 . S
C1242 C1246 1.531 . S
C1243 C1242 1.369 . S
C1243 C1244 1.410 . S
C1243 C1251 1.503 . S
C1244 C1243 1.410 . S
C1244 C1245 1.392 . S
C1244 C1247 1.511 . S
C1245 C1241 1.376 . S
C1245 C1244 1.392 . S
C1245 H1257 0.929 . S
C1246 C1242 1.531 . S
C1246 H1258 0.960 . S
C1246 H1259 0.962 . S
C1246 H1260 0.960 . S
C1247 C1244 1.511 . S
C1247 H1261 0.961 . S
C1247 H1262 0.961 . S
C1247 H1263 0.961 . S
C1248 C1249 1.370 . S
C1248 C1250 1.363 . S
C1248 H1264 0.931 . S
C1249 C1248 1.370 . S
C1249 C1253 1.408 . S
C1250 C1248 1.363 . S
C1250 C1251 1.370 . S
C1250 C1254 1.524 . S
C1251 C1243 1.503 . S
C1251 C1250 1.370 . S
C1251 C1252 1.403 . S
C1252 C1251 1.403 . S
C1252 C1253 1.404 . S
C1252 C1255 1.539 . S
C1253 C1249 1.408 . S
C1253 C1252 1.404 . S
C1253 H1265 0.930 . S
C1254 C1250 1.524 . S
C1254 H1266 0.956 . S
C1254 H1267 0.961 . S
C1254 H1268 0.961 . S
C1255 C1252 1.539 . S
C1255 H1269 0.958 . S
C1255 H1270 0.961 . S
C1255 H1271 0.960 . S
H1256 C1240 0.931 . S
H1257 C1245 0.929 . S
H1258 C1246 0.960 . S
H1259 C1246 0.962 . S
H1260 C1246 0.960 . S
H1261 C1247 0.961 . S
H1262 C1247 0.961 . S
H1263 C1247 0.961 . S
H1264 C1248 0.931 . S
H1265 C1253 0.930 . S
H1266 C1254 0.956 . S
H1267 C1254 0.961 . S
H1268 C1254 0.961 . S
H1269 C1255 0.958 . S
H1270 C1255 0.961 . S
H1271 C1255 0.960 . S
C1272 C1273 1.391 . S
C1272 C1274 1.394 . S
C1272 H1288 0.931 . S
C1273 C1272 1.391 . S
C1273 C1277 1.376 . S
C1274 C1272 1.394 . S
C1274 C1275 1.369 . S
C1274 C1278 1.531 . S
C1275 C1274 1.369 . S
C1275 C1276 1.410 . S
C1275 C1283 1.503 . S
C1276 C1275 1.410 . S
C1276 C1277 1.392 . S
C1276 C1279 1.511 . S
C1277 C1273 1.376 . S
C1277 C1276 1.392 . S
C1277 H1289 0.929 . S
C1278 C1274 1.531 . S
C1278 H1290 0.960 . S
C1278 H1291 0.962 . S
C1278 H1292 0.960 . S
C1279 C1276 1.511 . S
C1279 H1293 0.961 . S
C1279 H1294 0.961 . S
C1279 H1295 0.961 . S
C1280 C1281 1.370 . S
C1280 C1282 1.363 . S
C1280 H1296 0.931 . S
C1281 C1280 1.370 . S
C1281 C1285 1.408 . S
C1282 C1280 1.363 . S
C1282 C1283 1.370 . S
C1282 C1286 1.524 . S
C1283 C1275 1.503 . S
C1283 C1282 1.370 . S
C1283 C1284 1.403 . S
C1284 C1283 1.403 . S
C1284 C1285 1.404 . S
C1284 C1287 1.539 . S
C1285 C1281 1.408 . S
C1285 C1284 1.404 . S
C1285 H1297 0.930 . S
C1286 C1282 1.524 . S
C1286 H1298 0.956 . S
C1286 H1299 0.961 . S
C1286 H1300 0.961 . S
C1287 C1284 1.539 . S
C1287 H1301 0.958 . S
C1287 H1302 0.961 . S
C1287 H1303 0.960 . S
H1288 C1272 0.931 . S
H1289 C1277 0.929 . S
H1290 C1278 0.960 . S
H1291 C1278 0.962 . S
H1292 C1278 0.960 . S
H1293 C1279 0.961 . S
H1294 C1279 0.961 . S
H1295 C1279 0.961 . S
H1296 C1280 0.931 . S
H1297 C1285 0.930 . S
H1298 C1286 0.956 . S
H1299 C1286 0.961 . S
H1300 C1286 0.961 . S
H1301 C1287 0.958 . S
H1302 C1287 0.961 . S
H1303 C1287 0.960 . S
C1304 C1305 1.391 . S
C1304 C1306 1.394 . S
C1304 H1320 0.931 . S
C1305 C1304 1.391 . S
C1305 C1309 1.376 . S
C1306 C1304 1.394 . S
C1306 C1307 1.369 . S
C1306 C1310 1.531 . S
C1307 C1306 1.369 . S
C1307 C1308 1.410 . S
C1307 C1315 1.503 . S
C1308 C1307 1.410 . S
C1308 C1309 1.392 . S
C1308 C1311 1.511 . S
C1309 C1305 1.376 . S
C1309 C1308 1.392 . S
C1309 H1321 0.929 . S
C1310 C1306 1.531 . S
C1310 H1322 0.960 . S
C1310 H1323 0.962 . S
C1310 H1324 0.960 . S
C1311 C1308 1.511 . S
C1311 H1325 0.961 . S
C1311 H1326 0.961 . S
C1311 H1327 0.961 . S
C1312 C1313 1.370 . S
C1312 C1314 1.363 . S
C1312 H1328 0.931 . S
C1313 C1312 1.370 . S
C1313 C1317 1.408 . S
C1314 C1312 1.363 . S
C1314 C1315 1.370 . S
C1314 C1318 1.524 . S
C1315 C1307 1.503 . S
C1315 C1314 1.370 . S
C1315 C1316 1.403 . S
C1316 C1315 1.403 . S
C1316 C1317 1.404 . S
C1316 C1319 1.539 . S
C1317 C1313 1.408 . S
C1317 C1316 1.404 . S
C1317 H1329 0.930 . S
C1318 C1314 1.524 . S
C1318 H1330 0.956 . S
C1318 H1331 0.961 . S
C1318 H1332 0.961 . S
C1319 C1316 1.539 . S
C1319 H1333 0.958 . S
C1319 H1334 0.961 . S
C1319 H1335 0.960 . S
H1320 C1304 0.931 . S
H1321 C1309 0.929 . S
H1322 C1310 0.960 . S
H1323 C1310 0.962 . S
H1324 C1310 0.960 . S
H1325 C1311 0.961 . S
H1326 C1311 0.961 . S
H1327 C1311 0.961 . S
H1328 C1312 0.931 . S
H1329 C1317 0.930 . S
H1330 C1318 0.956 . S
H1331 C1318 0.961 . S
H1332 C1318 0.961 . S
H1333 C1319 0.958 . S
H1334 C1319 0.961 . S
H1335 C1319 0.960 . S
C1336 C1337 1.391 . S
C1336 C1338 1.394 . S
C1336 H1352 0.931 . S
C1337 C1336 1.391 . S
C1337 C1341 1.376 . S
C1338 C1336 1.394 . S
C1338 C1339 1.369 . S
C1338 C1342 1.531 . S
C1339 C1338 1.369 . S
C1339 C1340 1.410 . S
C1339 C1347 1.503 . S
C1340 C1339 1.410 . S
C1340 C1341 1.392 . S
C1340 C1343 1.511 . S
C1341 C1337 1.376 . S
C1341 C1340 1.392 . S
C1341 H1353 0.929 . S
C1342 C1338 1.531 . S
C1342 H1354 0.960 . S
C1342 H1355 0.962 . S
C1342 H1356 0.960 . S
C1343 C1340 1.511 . S
C1343 H1357 0.961 . S
C1343 H1358 0.961 . S
C1343 H1359 0.961 . S
C1344 C1345 1.370 . S
C1344 C1346 1.363 . S
C1344 H1360 0.931 . S
C1345 C1344 1.370 . S
C1345 C1349 1.408 . S
C1346 C1344 1.363 . S
C1346 C1347 1.370 . S
C1346 C1350 1.524 . S
C1347 C1339 1.503 . S
C1347 C1346 1.370 . S
C1347 C1348 1.403 . S
C1348 C1347 1.403 . S
C1348 C1349 1.404 . S
C1348 C1351 1.539 . S
C1349 C1345 1.408 . S
C1349 C1348 1.404 . S
C1349 H1361 0.930 . S
C1350 C1346 1.524 . S
C1350 H1362 0.956 . S
C1350 H1363 0.961 . S
C1350 H1364 0.961 . S
C1351 C1348 1.539 . S
C1351 H1365 0.958 . S
C1351 H1366 0.961 . S
C1351 H1367 0.960 . S
H1352 C1336 0.931 . S
H1353 C1341 0.929 . S
H1354 C1342 0.960 . S
H1355 C1342 0.962 . S
H1356 C1342 0.960 . S
H1357 C1343 0.961 . S
H1358 C1343 0.961 . S
H1359 C1343 0.961 . S
H1360 C1344 0.931 . S
H1361 C1349 0.930 . S
H1362 C1350 0.956 . S
H1363 C1350 0.961 . S
H1364 C1350 0.961 . S
H1365 C1351 0.958 . S
H1366 C1351 0.961 . S
H1367 C1351 0.960 . S
C1368 C1369 1.391 . S
C1368 C1370 1.394 . S
C1368 H1384 0.931 . S
C1369 C1368 1.391 . S
C1369 C1373 1.376 . S
C1370 C1368 1.394 . S
C1370 C1371 1.369 . S
C1370 C1374 1.531 . S
C1371 C1370 1.369 . S
C1371 C1372 1.410 . S
C1371 C1379 1.503 . S
C1372 C1371 1.410 . S
C1372 C1373 1.392 . S
C1372 C1375 1.511 . S
C1373 C1369 1.376 . S
C1373 C1372 1.392 . S
C1373 H1385 0.929 . S
C1374 C1370 1.531 . S
C1374 H1386 0.960 . S
C1374 H1387 0.962 . S
C1374 H1388 0.960 . S
C1375 C1372 1.511 . S
C1375 H1389 0.961 . S
C1375 H1390 0.961 . S
C1375 H1391 0.961 . S
C1376 C1377 1.370 . S
C1376 C1378 1.363 . S
C1376 H1392 0.931 . S
C1377 C1376 1.370 . S
C1377 C1381 1.408 . S
C1378 C1376 1.363 . S
C1378 C1379 1.370 . S
C1378 C1382 1.524 . S
C1379 C1371 1.503 . S
C1379 C1378 1.370 . S
C1379 C1380 1.403 . S
C1380 C1379 1.403 . S
C1380 C1381 1.404 . S
C1380 C1383 1.539 . S
C1381 C1377 1.408 . S
C1381 C1380 1.404 . S
C1381 H1393 0.930 . S
C1382 C1378 1.524 . S
C1382 H1394 0.956 . S
C1382 H1395 0.961 . S
C1382 H1396 0.961 . S
C1383 C1380 1.539 . S
C1383 H1397 0.958 . S
C1383 H1398 0.961 . S
C1383 H1399 0.960 . S
H1384 C1368 0.931 . S
H1385 C1373 0.929 . S
H1386 C1374 0.960 . S
H1387 C1374 0.962 . S
H1388 C1374 0.960 . S
H1389 C1375 0.961 . S
H1390 C1375 0.961 . S
H1391 C1375 0.961 . S
H1392 C1376 0.931 . S
H1393 C1381 0.930 . S
H1394 C1382 0.956 . S
H1395 C1382 0.961 . S
H1396 C1382 0.961 . S
H1397 C1383 0.958 . S
H1398 C1383 0.961 . S
H1399 C1383 0.960 . S
C1400 C1401 1.391 . S
C1400 C1402 1.394 . S
C1400 H1416 0.931 . S
C1401 C1400 1.391 . S
C1401 C1405 1.376 . S
C1402 C1400 1.394 . S
C1402 C1403 1.369 . S
C1402 C1406 1.531 . S
C1403 C1402 1.369 . S
C1403 C1404 1.410 . S
C1403 C1411 1.503 . S
C1404 C1403 1.410 . S
C1404 C1405 1.392 . S
C1404 C1407 1.511 . S
C1405 C1401 1.376 . S
C1405 C1404 1.392 . S
C1405 H1417 0.929 . S
C1406 C1402 1.531 . S
C1406 H1418 0.960 . S
C1406 H1419 0.962 . S
C1406 H1420 0.960 . S
C1407 C1404 1.511 . S
C1407 H1421 0.961 . S
C1407 H1422 0.961 . S
C1407 H1423 0.961 . S
C1408 C1409 1.370 . S
C1408 C1410 1.363 . S
C1408 H1424 0.931 . S
C1409 C1408 1.370 . S
C1409 C1413 1.408 . S
C1410 C1408 1.363 . S
C1410 C1411 1.370 . S
C1410 C1414 1.524 . S
C1411 C1403 1.503 . S
C1411 C1410 1.370 . S
C1411 C1412 1.403 . S
C1412 C1411 1.403 . S
C1412 C1413 1.404 . S
C1412 C1415 1.539 . S
C1413 C1409 1.408 . S
C1413 C1412 1.404 . S
C1413 H1425 0.930 . S
C1414 C1410 1.524 . S
C1414 H1426 0.956 . S
C1414 H1427 0.961 . S
C1414 H1428 0.961 . S
C1415 C1412 1.539 . S
C1415 H1429 0.958 . S
C1415 H1430 0.961 . S
C1415 H1431 0.960 . S
H1416 C1400 0.931 . S
H1417 C1405 0.929 . S
H1418 C1406 0.960 . S
H1419 C1406 0.962 . S
H1420 C1406 0.960 . S
H1421 C1407 0.961 . S
H1422 C1407 0.961 . S
H1423 C1407 0.961 . S
H1424 C1408 0.931 . S
H1425 C1413 0.930 . S
H1426 C1414 0.956 . S
H1427 C1414 0.961 . S
H1428 C1414 0.961 . S
H1429 C1415 0.958 . S
H1430 C1415 0.961 . S
H1431 C1415 0.960 . S
C1432 C1433 1.391 . S
C1432 C1434 1.394 . S
C1432 H1448 0.931 . S
C1433 C1432 1.391 . S
C1433 C1437 1.376 . S
C1434 C1432 1.394 . S
C1434 C1435 1.369 . S
C1434 C1438 1.531 . S
C1435 C1434 1.369 . S
C1435 C1436 1.410 . S
C1435 C1443 1.503 . S
C1436 C1435 1.410 . S
C1436 C1437 1.392 . S
C1436 C1439 1.511 . S
C1437 C1433 1.376 . S
C1437 C1436 1.392 . S
C1437 H1449 0.929 . S
C1438 C1434 1.531 . S
C1438 H1450 0.960 . S
C1438 H1451 0.962 . S
C1438 H1452 0.960 . S
C1439 C1436 1.511 . S
C1439 H1453 0.961 . S
C1439 H1454 0.961 . S
C1439 H1455 0.961 . S
C1440 C1441 1.370 . S
C1440 C1442 1.363 . S
C1440 H1456 0.931 . S
C1441 C1440 1.370 . S
C1441 C1445 1.408 . S
C1442 C1440 1.363 . S
C1442 C1443 1.370 . S
C1442 C1446 1.524 . S
C1443 C1435 1.503 . S
C1443 C1442 1.370 . S
C1443 C1444 1.403 . S
C1444 C1443 1.403 . S
C1444 C1445 1.404 . S
C1444 C1447 1.539 . S
C1445 C1441 1.408 . S
C1445 C1444 1.404 . S
C1445 H1457 0.930 . S
C1446 C1442 1.524 . S
C1446 H1458 0.956 . S
C1446 H1459 0.961 . S
C1446 H1460 0.961 . S
C1447 C1444 1.539 . S
C1447 H1461 0.958 . S
C1447 H1462 0.961 . S
C1447 H1463 0.960 . S
H1448 C1432 0.931 . S
H1449 C1437 0.929 . S
H1450 C1438 0.960 . S
H1451 C1438 0.962 . S
H1452 C1438 0.960 . S
H1453 C1439 0.961 . S
H1454 C1439 0.961 . S
H1455 C1439 0.961 . S
H1456 C1440 0.931 . S
H1457 C1445 0.930 . S
H1458 C1446 0.956 . S
H1459 C1446 0.961 . S
H1460 C1446 0.961 . S
H1461 C1447 0.958 . S
H1462 C1447 0.961 . S
H1463 C1447 0.960 . S
C1464 C1465 1.391 . S
C1464 C1466 1.394 . S
C1464 H1480 0.931 . S
C1465 C1464 1.391 . S
C1465 C1469 1.376 . S
C1466 C1464 1.394 . S
C1466 C1467 1.369 . S
C1466 C1470 1.531 . S
C1467 C1466 1.369 . S
C1467 C1468 1.410 . S
C1467 C1475 1.503 . S
C1468 C1467 1.410 . S
C1468 C1469 1.392 . S
C1468 C1471 1.511 . S
C1469 C1465 1.376 . S
C1469 C1468 1.392 . S
C1469 H1481 0.929 . S
C1470 C1466 1.531 . S
C1470 H1482 0.960 . S
C1470 H1483 0.962 . S
C1470 H1484 0.960 . S
C1471 C1468 1.511 . S
C1471 H1485 0.961 . S
C1471 H1486 0.961 . S
C1471 H1487 0.961 . S
C1472 C1473 1.370 . S
C1472 C1474 1.363 . S
C1472 H1488 0.931 . S
C1473 C1472 1.370 . S
C1473 C1477 1.408 . S
C1474 C1472 1.363 . S
C1474 C1475 1.370 . S
C1474 C1478 1.524 . S
C1475 C1467 1.503 . S
C1475 C1474 1.370 . S
C1475 C1476 1.403 . S
C1476 C1475 1.403 . S
C1476 C1477 1.404 . S
C1476 C1479 1.539 . S
C1477 C1473 1.408 . S
C1477 C1476 1.404 . S
C1477 H1489 0.930 . S
C1478 C1474 1.524 . S
C1478 H1490 0.956 . S
C1478 H1491 0.961 . S
C1478 H1492 0.961 . S
C1479 C1476 1.539 . S
C1479 H1493 0.958 . S
C1479 H1494 0.961 . S
C1479 H1495 0.960 . S
H1480 C1464 0.931 . S
H1481 C1469 0.929 . S
H1482 C1470 0.960 . S
H1483 C1470 0.962 . S
H1484 C1470 0.960 . S
H1485 C1471 0.961 . S
H1486 C1471 0.961 . S
H1487 C1471 0.961 . S
H1488 C1472 0.931 . S
H1489 C1477 0.930 . S
H1490 C1478 0.956 . S
H1491 C1478 0.961 . S
H1492 C1478 0.961 . S
H1493 C1479 0.958 . S
H1494 C1479 0.961 . S
H1495 C1479 0.960 . S
C1496 C1497 1.391 . S
C1496 C1498 1.394 . S
C1496 H1512 0.931 . S
C1497 C1496 1.391 . S
C1497 C1501 1.376 . S
C1498 C1496 1.394 . S
C1498 C1499 1.369 . S
C1498 C1502 1.531 . S
C1499 C1498 1.369 . S
C1499 C1500 1.410 . S
C1499 C1507 1.503 . S
C1500 C1499 1.410 . S
C1500 C1501 1.392 . S
C1500 C1503 1.511 . S
C1501 C1497 1.376 . S
C1501 C1500 1.392 . S
C1501 H1513 0.929 . S
C1502 C1498 1.531 . S
C1502 H1514 0.960 . S
C1502 H1515 0.962 . S
C1502 H1516 0.960 . S
C1503 C1500 1.511 . S
C1503 H1517 0.961 . S
C1503 H1518 0.961 . S
C1503 H1519 0.961 . S
C1504 C1505 1.370 . S
C1504 C1506 1.363 . S
C1504 H1520 0.931 . S
C1505 C1504 1.370 . S
C1505 C1509 1.408 . S
C1506 C1504 1.363 . S
C1506 C1507 1.370 . S
C1506 C1510 1.524 . S
C1507 C1499 1.503 . S
C1507 C1506 1.370 . S
C1507 C1508 1.403 . S
C1508 C1507 1.403 . S
C1508 C1509 1.404 . S
C1508 C1511 1.539 . S
C1509 C1505 1.408 . S
C1509 C1508 1.404 . S
C1509 H1521 0.930 . S
C1510 C1506 1.524 . S
C1510 H1522 0.956 . S
C1510 H1523 0.961 . S
C1510 H1524 0.961 . S
C1511 C1508 1.539 . S
C1511 H1525 0.958 . S
C1511 H1526 0.961 . S
C1511 H1527 0.960 . S
H1512 C1496 0.931 . S
H1513 C1501 0.929 . S
H1514 C1502 0.960 . S
H1515 C1502 0.962 . S
H1516 C1502 0.960 . S
H1517 C1503 0.961 . S
H1518 C1503 0.961 . S
H1519 C1503 0.961 . S
H1520 C1504 0.931 . S
H1521 C1509 0.930 . S
H1522 C1510 0.956 . S
H1523 C1510 0.961 . S
H1524 C1510 0.961 . S
H1525 C1511 0.958 . S
H1526 C1511 0.961 . S
H1527 C1511 0.960 . S
C1528 C1529 1.391 . S
C1528 C1530 1.394 . S
C1528 H1544 0.931 . S
C1529 C1528 1.391 . S
C1529 C1533 1.376 . S
C1530 C1528 1.394 . S
C1530 C1531 1.369 . S
C1530 C1534 1.531 . S
C1531 C1530 1.369 . S
C1531 C1532 1.410 . S
C1531 C1539 1.503 . S
C1532 C1531 1.410 . S
C1532 C1533 1.392 . S
C1532 C1535 1.511 . S
C1533 C1529 1.376 . S
C1533 C1532 1.392 . S
C1533 H1545 0.929 . S
C1534 C1530 1.531 . S
C1534 H1546 0.960 . S
C1534 H1547 0.962 . S
C1534 H1548 0.960 . S
C1535 C1532 1.511 . S
C1535 H1549 0.961 . S
C1535 H1550 0.961 . S
C1535 H1551 0.961 . S
C1536 C1537 1.370 . S
C1536 C1538 1.363 . S
C1536 H1552 0.931 . S
C1537 C1536 1.370 . S
C1537 C1541 1.408 . S
C1538 C1536 1.363 . S
C1538 C1539 1.370 . S
C1538 C1542 1.524 . S
C1539 C1531 1.503 . S
C1539 C1538 1.370 . S
C1539 C1540 1.403 . S
C1540 C1539 1.403 . S
C1540 C1541 1.404 . S
C1540 C1543 1.539 . S
C1541 C1537 1.408 . S
C1541 C1540 1.404 . S
C1541 H1553 0.930 . S
C1542 C1538 1.524 . S
C1542 H1554 0.956 . S
C1542 H1555 0.961 . S
C1542 H1556 0.961 . S
C1543 C1540 1.539 . S
C1543 H1557 0.958 . S
C1543 H1558 0.961 . S
C1543 H1559 0.960 . S
H1544 C1528 0.931 . S
H1545 C1533 0.929 . S
H1546 C1534 0.960 . S
H1547 C1534 0.962 . S
H1548 C1534 0.960 . S
H1549 C1535 0.961 . S
H1550 C1535 0.961 . S
H1551 C1535 0.961 . S
H1552 C1536 0.931 . S
H1553 C1541 0.930 . S
H1554 C1542 0.956 . S
H1555 C1542 0.961 . S
H1556 C1542 0.961 . S
H1557 C1543 0.958 . S
H1558 C1543 0.961 . S
H1559 C1543 0.960 . S
C1560 C1561 1.391 . S
C1560 C1562 1.394 . S
C1560 H1576 0.931 . S
C1561 C1560 1.391 . S
C1561 C1565 1.376 . S
C1562 C1560 1.394 . S
C1562 C1563 1.369 . S
C1562 C1566 1.531 . S
C1563 C1562 1.369 . S
C1563 C1564 1.410 . S
C1563 C1571 1.503 . S
C1564 C1563 1.410 . S
C1564 C1565 1.392 . S
C1564 C1567 1.511 . S
C1565 C1561 1.376 . S
C1565 C1564 1.392 . S
C1565 H1577 0.929 . S
C1566 C1562 1.531 . S
C1566 H1578 0.960 . S
C1566 H1579 0.962 . S
C1566 H1580 0.960 . S
C1567 C1564 1.511 . S
C1567 H1581 0.961 . S
C1567 H1582 0.961 . S
C1567 H1583 0.961 . S
C1568 C1569 1.370 . S
C1568 C1570 1.363 . S
C1568 H1584 0.931 . S
C1569 C1568 1.370 . S
C1569 C1573 1.408 . S
C1570 C1568 1.363 . S
C1570 C1571 1.370 . S
C1570 C1574 1.524 . S
C1571 C1563 1.503 . S
C1571 C1570 1.370 . S
C1571 C1572 1.403 . S
C1572 C1571 1.403 . S
C1572 C1573 1.404 . S
C1572 C1575 1.539 . S
C1573 C1569 1.408 . S
C1573 C1572 1.404 . S
C1573 H1585 0.930 . S
C1574 C1570 1.524 . S
C1574 H1586 0.956 . S
C1574 H1587 0.961 . S
C1574 H1588 0.961 . S
C1575 C1572 1.539 . S
C1575 H1589 0.958 . S
C1575 H1590 0.961 . S
C1575 H1591 0.960 . S
H1576 C1560 0.931 . S
H1577 C1565 0.929 . S
H1578 C1566 0.960 . S
H1579 C1566 0.962 . S
H1580 C1566 0.960 . S
H1581 C1567 0.961 . S
H1582 C1567 0.961 . S
H1583 C1567 0.961 . S
H1584 C1568 0.931 . S
H1585 C1573 0.930 . S
H1586 C1574 0.956 . S
H1587 C1574 0.961 . S
H1588 C1574 0.961 . S
H1589 C1575 0.958 . S
H1590 C1575 0.961 . S
H1591 C1575 0.960 . S
C1592 C1593 1.391 . S
C1592 C1594 1.394 . S
C1592 H1608 0.931 . S
C1593 C1592 1.391 . S
C1593 C1597 1.376 . S
C1594 C1592 1.394 . S
C1594 C1595 1.369 . S
C1594 C1598 1.531 . S
C1595 C1594 1.369 . S
C1595 C1596 1.410 . S
C1595 C1603 1.503 . S
C1596 C1595 1.410 . S
C1596 C1597 1.392 . S
C1596 C1599 1.511 . S
C1597 C1593 1.376 . S
C1597 C1596 1.392 . S
C1597 H1609 0.929 . S
C1598 C1594 1.531 . S
C1598 H1610 0.960 . S
C1598 H1611 0.962 . S
C1598 H1612 0.960 . S
C1599 C1596 1.511 . S
C1599 H1613 0.961 . S
C1599 H1614 0.961 . S
C1599 H1615 0.961 . S
C1600 C1601 1.370 . S
C1600 C1602 1.363 . S
C1600 H1616 0.931 . S
C1601 C1600 1.370 . S
C1601 C1605 1.408 . S
C1602 C1600 1.363 . S
C1602 C1603 1.370 . S
C1602 C1606 1.524 . S
C1603 C1595 1.503 . S
C1603 C1602 1.370 . S
C1603 C1604 1.403 . S
C1604 C1603 1.403 . S
C1604 C1605 1.404 . S
C1604 C1607 1.539 . S
C1605 C1601 1.408 . S
C1605 C1604 1.404 . S
C1605 H1617 0.930 . S
C1606 C1602 1.524 . S
C1606 H1618 0.956 . S
C1606 H1619 0.961 . S
C1606 H1620 0.961 . S
C1607 C1604 1.539 . S
C1607 H1621 0.958 . S
C1607 H1622 0.961 . S
C1607 H1623 0.960 . S
H1608 C1592 0.931 . S
H1609 C1597 0.929 . S
H1610 C1598 0.960 . S
H1611 C1598 0.962 . S
H1612 C1598 0.960 . S
H1613 C1599 0.961 . S
H1614 C1599 0.961 . S
H1615 C1599 0.961 . S
H1616 C1600 0.931 . S
H1617 C1605 0.930 . S
H1618 C1606 0.956 . S
H1619 C1606 0.961 . S
H1620 C1606 0.961 . S
H1621 C1607 0.958 . S
H1622 C1607 0.961 . S
H1623 C1607 0.960 . S
C1624 C1625 1.391 . S
C1624 C1626 1.394 . S
C1624 H1640 0.931 . S
C1625 C1624 1.391 . S
C1625 C1629 1.376 . S
C1626 C1624 1.394 . S
C1626 C1627 1.369 . S
C1626 C1630 1.531 . S
C1627 C1626 1.369 . S
C1627 C1628 1.410 . S
C1627 C1635 1.503 . S
C1628 C1627 1.410 . S
C1628 C1629 1.392 . S
C1628 C1631 1.511 . S
C1629 C1625 1.376 . S
C1629 C1628 1.392 . S
C1629 H1641 0.929 . S
C1630 C1626 1.531 . S
C1630 H1642 0.960 . S
C1630 H1643 0.962 . S
C1630 H1644 0.960 . S
C1631 C1628 1.511 . S
C1631 H1645 0.961 . S
C1631 H1646 0.961 . S
C1631 H1647 0.961 . S
C1632 C1633 1.370 . S
C1632 C1634 1.363 . S
C1632 H1648 0.931 . S
C1633 C1632 1.370 . S
C1633 C1637 1.408 . S
C1634 C1632 1.363 . S
C1634 C1635 1.370 . S
C1634 C1638 1.524 . S
C1635 C1627 1.503 . S
C1635 C1634 1.370 . S
C1635 C1636 1.403 . S
C1636 C1635 1.403 . S
C1636 C1637 1.404 . S
C1636 C1639 1.539 . S
C1637 C1633 1.408 . S
C1637 C1636 1.404 . S
C1637 H1649 0.930 . S
C1638 C1634 1.524 . S
C1638 H1650 0.956 . S
C1638 H1651 0.961 . S
C1638 H1652 0.961 . S
C1639 C1636 1.539 . S
C1639 H1653 0.958 . S
C1639 H1654 0.961 . S
C1639 H1655 0.960 . S
H1640 C1624 0.931 . S
H1641 C1629 0.929 . S
H1642 C1630 0.960 . S
H1643 C1630 0.962 . S
H1644 C1630 0.960 . S
H1645 C1631 0.961 . S
H1646 C1631 0.961 . S
H1647 C1631 0.961 . S
H1648 C1632 0.931 . S
H1649 C1637 0.930 . S
H1650 C1638 0.956 . S
H1651 C1638 0.961 . S
H1652 C1638 0.961 . S
H1653 C1639 0.958 . S
H1654 C1639 0.961 . S
H1655 C1639 0.960 . S
C1656 C1657 1.391 . S
C1656 C1658 1.394 . S
C1656 H1672 0.931 . S
C1657 C1656 1.391 . S
C1657 C1661 1.376 . S
C1658 C1656 1.394 . S
C1658 C1659 1.369 . S
C1658 C1662 1.531 . S
C1659 C1658 1.369 . S
C1659 C1660 1.410 . S
C1659 C1667 1.503 . S
C1660 C1659 1.410 . S
C1660 C1661 1.392 . S
C1660 C1663 1.511 . S
C1661 C1657 1.376 . S
C1661 C1660 1.392 . S
C1661 H1673 0.929 . S
C1662 C1658 1.531 . S
C1662 H1674 0.960 . S
C1662 H1675 0.962 . S
C1662 H1676 0.960 . S
C1663 C1660 1.511 . S
C1663 H1677 0.961 . S
C1663 H1678 0.961 . S
C1663 H1679 0.961 . S
C1664 C1665 1.370 . S
C1664 C1666 1.363 . S
C1664 H1680 0.931 . S
C1665 C1664 1.370 . S
C1665 C1669 1.408 . S
C1666 C1664 1.363 . S
C1666 C1667 1.370 . S
C1666 C1670 1.524 . S
C1667 C1659 1.503 . S
C1667 C1666 1.370 . S
C1667 C1668 1.403 . S
C1668 C1667 1.403 . S
C1668 C1669 1.404 . S
C1668 C1671 1.539 . S
C1669 C1665 1.408 . S
C1669 C1668 1.404 . S
C1669 H1681 0.930 . S
C1670 C1666 1.524 . S
C1670 H1682 0.956 . S
C1670 H1683 0.961 . S
C1670 H1684 0.961 . S
C1671 C1668 1.539 . S
C1671 H1685 0.958 . S
C1671 H1686 0.961 . S
C1671 H1687 0.960 . S
H1672 C1656 0.931 . S
H1673 C1661 0.929 . S
H1674 C1662 0.960 . S
H1675 C1662 0.962 . S
H1676 C1662 0.960 . S
H1677 C1663 0.961 . S
H1678 C1663 0.961 . S
H1679 C1663 0.961 . S
H1680 C1664 0.931 . S
H1681 C1669 0.930 . S
H1682 C1670 0.956 . S
H1683 C1670 0.961 . S
H1684 C1670 0.961 . S
H1685 C1671 0.958 . S
H1686 C1671 0.961 . S
H1687 C1671 0.960 . S
C1688 C1689 1.391 . S
C1688 C1690 1.394 . S
C1688 H1704 0.931 . S
C1689 C1688 1.391 . S
C1689 C1693 1.376 . S
C1690 C1688 1.394 . S
C1690 C1691 1.369 . S
C1690 C1694 1.531 . S
C1691 C1690 1.369 . S
C1691 C1692 1.410 . S
C1691 C1699 1.503 . S
C1692 C1691 1.410 . S
C1692 C1693 1.392 . S
C1692 C1695 1.511 . S
C1693 C1689 1.376 . S
C1693 C1692 1.392 . S
C1693 H1705 0.929 . S
C1694 C1690 1.531 . S
C1694 H1706 0.960 . S
C1694 H1707 0.962 . S
C1694 H1708 0.960 . S
C1695 C1692 1.511 . S
C1695 H1709 0.961 . S
C1695 H1710 0.961 . S
C1695 H1711 0.961 . S
C1696 C1697 1.370 . S
C1696 C1698 1.363 . S
C1696 H1712 0.931 . S
C1697 C1696 1.370 . S
C1697 C1701 1.408 . S
C1698 C1696 1.363 . S
C1698 C1699 1.370 . S
C1698 C1702 1.524 . S
C1699 C1691 1.503 . S
C1699 C1698 1.370 . S
C1699 C1700 1.403 . S
C1700 C1699 1.403 . S
C1700 C1701 1.404 . S
C1700 C1703 1.539 . S
C1701 C1697 1.408 . S
C1701 C1700 1.404 . S
C1701 H1713 0.930 . S
C1702 C1698 1.524 . S
C1702 H1714 0.956 . S
C1702 H1715 0.961 . S
C1702 H1716 0.961 . S
C1703 C1700 1.539 . S
C1703 H1717 0.958 . S
C1703 H1718 0.961 . S
C1703 H1719 0.960 . S
H1704 C1688 0.931 . S
H1705 C1693 0.929 . S
H1706 C1694 0.960 . S
H1707 C1694 0.962 . S
H1708 C1694 0.960 . S
H1709 C1695 0.961 . S
H1710 C1695 0.961 . S
H1711 C1695 0.961 . S
H1712 C1696 0.931 . S
H1713 C1701 0.930 . S
H1714 C1702 0.956 . S
H1715 C1702 0.961 . S
H1716 C1702 0.961 . S
H1717 C1703 0.958 . S
H1718 C1703 0.961 . S
H1719 C1703 0.960 . S
C1720 C1721 1.391 . S
C1720 C1722 1.394 . S
C1720 H1736 0.931 . S
C1721 C1720 1.391 . S
C1721 C1725 1.376 . S
C1722 C1720 1.394 . S
C1722 C1723 1.369 . S
C1722 C1726 1.531 . S
C1723 C1722 1.369 . S
C1723 C1724 1.410 . S
C1723 C1731 1.503 . S
C1724 C1723 1.410 . S
C1724 C1725 1.392 . S
C1724 C1727 1.511 . S
C1725 C1721 1.376 . S
C1725 C1724 1.392 . S
C1725 H1737 0.929 . S
C1726 C1722 1.531 . S
C1726 H1738 0.960 . S
C1726 H1739 0.962 . S
C1726 H1740 0.960 . S
C1727 C1724 1.511 . S
C1727 H1741 0.961 . S
C1727 H1742 0.961 . S
C1727 H1743 0.961 . S
C1728 C1729 1.370 . S
C1728 C1730 1.363 . S
C1728 H1744 0.931 . S
C1729 C1728 1.370 . S
C1729 C1733 1.408 . S
C1730 C1728 1.363 . S
C1730 C1731 1.370 . S
C1730 C1734 1.524 . S
C1731 C1723 1.503 . S
C1731 C1730 1.370 . S
C1731 C1732 1.403 . S
C1732 C1731 1.403 . S
C1732 C1733 1.404 . S
C1732 C1735 1.539 . S
C1733 C1729 1.408 . S
C1733 C1732 1.404 . S
C1733 H1745 0.930 . S
C1734 C1730 1.524 . S
C1734 H1746 0.956 . S
C1734 H1747 0.961 . S
C1734 H1748 0.961 . S
C1735 C1732 1.539 . S
C1735 H1749 0.958 . S
C1735 H1750 0.961 . S
C1735 H1751 0.960 . S
H1736 C1720 0.931 . S
H1737 C1725 0.929 . S
H1738 C1726 0.960 . S
H1739 C1726 0.962 . S
H1740 C1726 0.960 . S
H1741 C1727 0.961 . S
H1742 C1727 0.961 . S
H1743 C1727 0.961 . S
H1744 C1728 0.931 . S
H1745 C1733 0.930 . S
H1746 C1734 0.956 . S
H1747 C1734 0.961 . S
H1748 C1734 0.961 . S
H1749 C1735 0.958 . S
H1750 C1735 0.961 . S
H1751 C1735 0.960 . S
C1752 C1753 1.391 . S
C1752 C1754 1.394 . S
C1752 H1768 0.931 . S
C1753 C1752 1.391 . S
C1753 C1757 1.376 . S
C1754 C1752 1.394 . S
C1754 C1755 1.369 . S
C1754 C1758 1.531 . S
C1755 C1754 1.369 . S
C1755 C1756 1.410 . S
C1755 C1763 1.503 . S
C1756 C1755 1.410 . S
C1756 C1757 1.392 . S
C1756 C1759 1.511 . S
C1757 C1753 1.376 . S
C1757 C1756 1.392 . S
C1757 H1769 0.929 . S
C1758 C1754 1.531 . S
C1758 H1770 0.960 . S
C1758 H1771 0.962 . S
C1758 H1772 0.960 . S
C1759 C1756 1.511 . S
C1759 H1773 0.961 . S
C1759 H1774 0.961 . S
C1759 H1775 0.961 . S
C1760 C1761 1.370 . S
C1760 C1762 1.363 . S
C1760 H1776 0.931 . S
C1761 C1760 1.370 . S
C1761 C1765 1.408 . S
C1762 C1760 1.363 . S
C1762 C1763 1.370 . S
C1762 C1766 1.524 . S
C1763 C1755 1.503 . S
C1763 C1762 1.370 . S
C1763 C1764 1.403 . S
C1764 C1763 1.403 . S
C1764 C1765 1.404 . S
C1764 C1767 1.539 . S
C1765 C1761 1.408 . S
C1765 C1764 1.404 . S
C1765 H1777 0.930 . S
C1766 C1762 1.524 . S
C1766 H1778 0.956 . S
C1766 H1779 0.961 . S
C1766 H1780 0.961 . S
C1767 C1764 1.539 . S
C1767 H1781 0.958 . S
C1767 H1782 0.961 . S
C1767 H1783 0.960 . S
H1768 C1752 0.931 . S
H1769 C1757 0.929 . S
H1770 C1758 0.960 . S
H1771 C1758 0.962 . S
H1772 C1758 0.960 . S
H1773 C1759 0.961 . S
H1774 C1759 0.961 . S
H1775 C1759 0.961 . S
H1776 C1760 0.931 . S
H1777 C1765 0.930 . S
H1778 C1766 0.956 . S
H1779 C1766 0.961 . S
H1780 C1766 0.961 . S
H1781 C1767 0.958 . S
H1782 C1767 0.961 . S
H1783 C1767 0.960 . S
C1784 C1785 1.391 . S
C1784 C1786 1.394 . S
C1784 H1800 0.931 . S
C1785 C1784 1.391 . S
C1785 C1789 1.376 . S
C1786 C1784 1.394 . S
C1786 C1787 1.369 . S
C1786 C1790 1.531 . S
C1787 C1786 1.369 . S
C1787 C1788 1.410 . S
C1787 C1795 1.503 . S
C1788 C1787 1.410 . S
C1788 C1789 1.392 . S
C1788 C1791 1.511 . S
C1789 C1785 1.376 . S
C1789 C1788 1.392 . S
C1789 H1801 0.929 . S
C1790 C1786 1.531 . S
C1790 H1802 0.960 . S
C1790 H1803 0.962 . S
C1790 H1804 0.960 . S
C1791 C1788 1.511 . S
C1791 H1805 0.961 . S
C1791 H1806 0.961 . S
C1791 H1807 0.961 . S
C1792 C1793 1.370 . S
C1792 C1794 1.363 . S
C1792 H1808 0.931 . S
C1793 C1792 1.370 . S
C1793 C1797 1.408 . S
C1794 C1792 1.363 . S
C1794 C1795 1.370 . S
C1794 C1798 1.524 . S
C1795 C1787 1.503 . S
C1795 C1794 1.370 . S
C1795 C1796 1.403 . S
C1796 C1795 1.403 . S
C1796 C1797 1.404 . S
C1796 C1799 1.539 . S
C1797 C1793 1.408 . S
C1797 C1796 1.404 . S
C1797 H1809 0.930 . S
C1798 C1794 1.524 . S
C1798 H1810 0.956 . S
C1798 H1811 0.961 . S
C1798 H1812 0.961 . S
C1799 C1796 1.539 . S
C1799 H1813 0.958 . S
C1799 H1814 0.961 . S
C1799 H1815 0.960 . S
H1800 C1784 0.931 . S
H1801 C1789 0.929 . S
H1802 C1790 0.960 . S
H1803 C1790 0.962 . S
H1804 C1790 0.960 . S
H1805 C1791 0.961 . S
H1806 C1791 0.961 . S
H1807 C1791 0.961 . S
H1808 C1792 0.931 . S
H1809 C1797 0.930 . S
H1810 C1798 0.956 . S
H1811 C1798 0.961 . S
H1812 C1798 0.961 . S
H1813 C1799 0.958 . S
H1814 C1799 0.961 . S
H1815 C1799 0.960 . S
C1816 C1817 1.391 . S
C1816 C1818 1.394 . S
C1816 H1832 0.931 . S
C1817 C1816 1.391 . S
C1817 C1821 1.376 . S
C1818 C1816 1.394 . S
C1818 C1819 1.369 . S
C1818 C1822 1.531 . S
C1819 C1818 1.369 . S
C1819 C1820 1.410 . S
C1819 C1827 1.503 . S
C1820 C1819 1.410 . S
C1820 C1821 1.392 . S
C1820 C1823 1.511 . S
C1821 C1817 1.376 . S
C1821 C1820 1.392 . S
C1821 H1833 0.929 . S
C1822 C1818 1.531 . S
C1822 H1834 0.960 . S
C1822 H1835 0.962 . S
C1822 H1836 0.960 . S
C1823 C1820 1.511 . S
C1823 H1837 0.961 . S
C1823 H1838 0.961 . S
C1823 H1839 0.961 . S
C1824 C1825 1.370 . S
C1824 C1826 1.363 . S
C1824 H1840 0.931 . S
C1825 C1824 1.370 . S
C1825 C1829 1.408 . S
C1826 C1824 1.363 . S
C1826 C1827 1.370 . S
C1826 C1830 1.524 . S
C1827 C1819 1.503 . S
C1827 C1826 1.370 . S
C1827 C1828 1.403 . S
C1828 C1827 1.403 . S
C1828 C1829 1.404 . S
C1828 C1831 1.539 . S
C1829 C1825 1.408 . S
C1829 C1828 1.404 . S
C1829 H1841 0.930 . S
C1830 C1826 1.524 . S
C1830 H1842 0.956 . S
C1830 H1843 0.961 . S
C1830 H1844 0.961 . S
C1831 C1828 1.539 . S
C1831 H1845 0.958 . S
C1831 H1846 0.961 . S
C1831 H1847 0.960 . S
H1832 C1816 0.931 . S
H1833 C1821 0.929 . S
H1834 C1822 0.960 . S
H1835 C1822 0.962 . S
H1836 C1822 0.960 . S
H1837 C1823 0.961 . S
H1838 C1823 0.961 . S
H1839 C1823 0.961 . S
H1840 C1824 0.931 . S
H1841 C1829 0.930 . S
H1842 C1830 0.956 . S
H1843 C1830 0.961 . S
H1844 C1830 0.961 . S
H1845 C1831 0.958 . S
H1846 C1831 0.961 . S
H1847 C1831 0.960 . S
C313 C289 1.881 . S
C321 C3 1.907 . S
C345 C18 1.940 . S
C353 C213 1.922 . S
C377 C304 1.924 . S
C385 C29 1.892 . S
C409 C278 1.917 . S
C417 C44 1.930 . S
C441 C239 1.921 . S
C449 C55 1.892 . S
C473 C252 1.903 . S
C481 C70 1.940 . S
C505 C265 1.902 . S
C513 C81 1.907 . S
C537 C96 1.902 . S
C545 C226 1.939 . S
C569 C172 1.918 . S
C577 C107 1.913 . S
C601 C187 1.905 . S
C609 C120 1.911 . S
C633 C135 1.902 . S
C641 C198 1.905 . S
C665 C146 1.916 . S
C673 C161 1.921 . S
C697 C94 1.920 . S
C705 C185 1.913 . S
C729 C200 1.906 . S
C737 C57 1.939 . S
C761 C68 1.920 . S
C769 C159 1.900 . S
C793 C174 1.902 . S
C801 C83 1.940 . S
C825 C133 1.884 . S
C833 C16 1.909 . S
C857 C31 1.905 . S
C865 C148 1.940 . S
C889 C42 1.913 . S
C897 C109 1.936 . S
C921 C5 1.940 . S
C929 C122 1.927 . S
C953 C263 1.914 . S
C961 C276 1.897 . S
C985 C291 1.902 . S
C993 C224 1.905 . S
C1017 C237 1.900 . S
C1025 C211 1.892 . S
C1049 C302 1.925 . S
C1057 C250 1.910 . S
C1081 C1 0.936 . S
C1089 C114 1.018 . S
C1113 C127 0.970 . S
C1121 C23 1.012 . S
C1145 C27 0.986 . S
C1153 C131 0.959 . S
C1177 C49 0.969 . S
C1185 C153 0.993 . S
C1209 C53 0.962 . S
C1217 C157 0.993 . S
C1241 C75 1.038 . S
C1249 C179 1.005 . S
C1273 C183 1.027 . S
C1281 C79 0.962 . S
C1305 C205 0.986 . S
C1313 C101 0.987 . S
C1337 C105 0.926 . S
C1345 C209 1.000 . S
C1369 C118 1.024 . S
C1377 C300 0.965 . S
C1401 C274 1.006 . S
C1409 C140 0.986 . S
C1433 C296 1.006 . S
C1441 C144 0.995 . S
C1465 C222 1.009 . S
C1473 C166 1.009 . S
C1497 C235 1.006 . S
C1505 C170 0.976 . S
C1529 C192 1.038 . S
C1537 C248 0.968 . S
C1561 C196 0.947 . S
C1569 C261 0.974 . S
C1593 C10 0.998 . S
C1601 C218 1.018 . S
C1625 C231 1.008 . S
C1633 C62 1.018 . S
C1657 C244 0.969 . S
C1665 C66 0.997 . S
C1689 C257 0.963 . S
C1697 C88 0.997 . S
C1721 C270 1.021 . S
C1729 C92 0.951 . S
C1753 C283 1.033 . S
C1761 C36 0.994 . S
C1785 C40 1.020 . S
C1793 C287 0.968 . S
C1817 C309 1.036 . S
C1825 C14 0.957 . S
