# Generated by pormake.
# Topology lon, (4)-cn, num edge types: 1
# Building blocks:
#     Node 0, Type 0, BuildingBlock: QUQFOY_clean_sbu_3, # of connection points: 4
#     Node 1, Type 0, BuildingBlock: QUQFOY_clean_sbu_3, # of connection points: 4
#     Node 2, Type 0, BuildingBlock: QUQFOY_clean_sbu_3, # of connection points: 4
#     Node 3, Type 0, BuildingBlock: QUQFOY_clean_sbu_3, # of connection points: 4
#     Edge 4, Type (0, 0), BuildingBlock: XUDNAN_clean_linker_2, # of connection points: 2
#     Edge 5, Type (0, 0), BuildingBlock: XUDNAN_clean_linker_2, # of connection points: 2
#     Edge 6, Type (0, 0), BuildingBlock: XUDNAN_clean_linker_2, # of connection points: 2
#     Edge 7, Type (0, 0), BuildingBlock: XUDNAN_clean_linker_2, # of connection points: 2
#     Edge 8, Type (0, 0), BuildingBlock: XUDNAN_clean_linker_2, # of connection points: 2
#     Edge 9, Type (0, 0), BuildingBlock: XUDNAN_clean_linker_2, # of connection points: 2
#     Edge 10, Type (0, 0), BuildingBlock: XUDNAN_clean_linker_2, # of connection points: 2
#     Edge 11, Type (0, 0), BuildingBlock: XUDNAN_clean_linker_2, # of connection points: 2
# Relax obj value: 0.136
# Max RMSD: 0.173
# Mean RMSD: 0.169
data_MOF--net-lon--node1-QUQFOY_clean_sbu_3--edge1-XUDNAN_clean_linker_2
_symmetry_space_group_name_H-M    P1
_symmetry_Int_Tables_number       1
_symmetry_cell_setting            triclinic
loop_
_symmetry_equiv_pos_as_xyz
'x, y, z'
_cell_length_a     24.104206
_cell_length_b     26.023057
_cell_length_c     42.078785
_cell_angle_alpha  90.16114
_cell_angle_beta   89.962427
_cell_angle_gamma 117.53946
loop_
_atom_site_label
_atom_site_type_symbol
_atom_site_fract_x
_atom_site_fract_y
_atom_site_fract_z
_atom_type_partial_charge
C0 C 0.19743 0.67306 0.03162 0.0
O1 O 0.19574 0.71823 0.04192 0.0
Cd2 Cd 0.28237 0.79702 0.0674 0.0
O3 O 0.24598 0.66614 0.03554 0.0
Cd4 Cd 0.35102 0.71713 0.0607 0.0
C5 C 0.30052 0.73214 0.13461 0.0
O6 O 0.37302 0.8103 0.03802 0.0
O7 O 0.44513 0.80965 0.06845 0.0
O8 O 0.40268 0.69049 0.01898 0.0
C9 C 0.42747 0.83745 0.04978 0.0
O10 O 0.28377 0.76687 0.12163 0.0
C11 C 0.41218 0.65441 0.03523 0.0
O12 O 0.3249 0.70661 0.11811 0.0
O13 O 0.3926 0.64633 0.06372 0.0
C14 C 0.5594 0.29095 0.49798 0.0
O15 O 0.56101 0.25366 0.47893 0.0
Cd16 Cd 0.60626 0.19118 0.48902 0.0
O17 O 0.5813 0.29676 0.52617 0.0
Cd18 Cd 0.63182 0.25447 0.56228 0.0
C19 C 0.75348 0.29982 0.50994 0.0
O20 O 0.57225 0.15989 0.54112 0.0
O21 O 0.6393 0.16485 0.57631 0.0
O22 O 0.56567 0.26062 0.60411 0.0
C23 C 0.59703 0.13438 0.55662 0.0
O24 O 0.71638 0.26063 0.49107 0.0
C25 C 0.60851 0.28244 0.62494 0.0
O26 O 0.73504 0.30809 0.53704 0.0
O27 O 0.66352 0.29372 0.61626 0.0
C28 C 0.19835 0.56656 0.47579 0.0
O29 O 0.22605 0.58166 0.50248 0.0
Cd30 Cd 0.33634 0.6434 0.5092 0.0
O31 O 0.22831 0.58514 0.44983 0.0
Cd32 Cd 0.3338 0.64921 0.42875 0.0
C33 C 0.39085 0.56511 0.46411 0.0
O34 O 0.35586 0.7169 0.47129 0.0
O35 O 0.43065 0.74122 0.43727 0.0
O36 O 0.2819 0.6759 0.38719 0.0
C37 C 0.41076 0.75219 0.46298 0.0
O38 O 0.38409 0.58371 0.49115 0.0
C39 C 0.31027 0.66665 0.36416 0.0
O40 O 0.37435 0.58061 0.43861 0.0
O41 O 0.34984 0.64894 0.37114 0.0
C42 C 0.55319 0.38334 0.95052 0.0
O43 O 0.50675 0.33299 0.95016 0.0
Cd44 Cd 0.51317 0.24904 0.93131 0.0
O45 O 0.60751 0.39132 0.94217 0.0
Cd46 Cd 0.66147 0.33348 0.92583 0.0
C47 C 0.5785 0.29359 0.85692 0.0
O48 O 0.59947 0.25302 0.96114 0.0
O49 O 0.66752 0.24239 0.9323 0.0
O50 O 0.74621 0.40514 0.95801 0.0
C51 C 0.62594 0.22254 0.95366 0.0
O52 O 0.53089 0.2626 0.87387 0.0
C53 C 0.78976 0.40942 0.93951 0.0
O54 O 0.63155 0.32452 0.86974 0.0
O55 O 0.77357 0.37939 0.91418 0.0
H56 H 0.35444 0.68431 0.17506 0.0
H57 H 0.22537 0.75793 0.1727 0.0
H58 H 0.21144 0.74571 0.23057 0.0
H59 H 0.27466 0.57804 0.23749 0.0
H60 H 0.34642 0.58762 0.2558 0.0
H61 H 0.34402 0.59904 0.21372 0.0
H62 H 0.43616 0.70251 0.21968 0.0
H63 H 0.43873 0.69147 0.26177 0.0
H64 H 0.42966 0.75237 0.24744 0.0
H65 H 0.21318 0.72865 0.28847 0.0
H66 H 0.23202 0.70893 0.34359 0.0
H67 H 0.36143 0.64791 0.30951 0.0
C68 C 0.32274 0.69723 0.18669 0.0
C69 C 0.29093 0.72198 0.16927 0.0
C70 C 0.25044 0.73901 0.18547 0.0
C71 C 0.24201 0.73211 0.21837 0.0
C72 C 0.27449 0.70825 0.23487 0.0
C73 C 0.3141 0.69107 0.21971 0.0
C74 C 0.34515 0.66875 0.24345 0.0
C75 C 0.32642 0.60454 0.23724 0.0
C76 C 0.41666 0.70601 0.24306 0.0
C77 C 0.3171 0.67658 0.27424 0.0
C78 C 0.27616 0.69907 0.26864 0.0
C79 C 0.24497 0.71085 0.29321 0.0
C80 C 0.25603 0.69951 0.32445 0.0
C81 C 0.29817 0.67688 0.33089 0.0
C82 C 0.32888 0.66514 0.30535 0.0
H83 H 0.68899 0.32207 0.67595 0.0
H84 H 0.49399 0.25762 0.64944 0.0
H85 H 0.46629 0.25873 0.70574 0.0
H86 H 0.66274 0.23971 0.74506 0.0
H87 H 0.72454 0.29529 0.76805 0.0
H88 H 0.73055 0.29489 0.72543 0.0
H89 H 0.74531 0.39995 0.72312 0.0
H90 H 0.73988 0.40089 0.76582 0.0
H91 H 0.68816 0.41684 0.74158 0.0
H92 H 0.45786 0.25711 0.76488 0.0
H93 H 0.4703 0.25913 0.82312 0.0
H94 H 0.67103 0.32736 0.81165 0.0
C95 C 0.64066 0.3093 0.68192 0.0
C96 C 0.59367 0.28984 0.65825 0.0
C97 C 0.53086 0.27286 0.66711 0.0
C98 C 0.5146 0.27331 0.69905 0.0
C99 C 0.56175 0.29135 0.72185 0.0
C100 C 0.62362 0.30974 0.71373 0.0
C101 C 0.66474 0.32479 0.74307 0.0
C102 C 0.69755 0.28637 0.74553 0.0
C103 C 0.71233 0.38947 0.74341 0.0
C104 C 0.61606 0.31064 0.76892 0.0
C105 C 0.55699 0.2915 0.75613 0.0
C106 C 0.50398 0.27282 0.7752 0.0
C107 C 0.5115 0.27384 0.80826 0.0
C108 C 0.57165 0.2937 0.82196 0.0
C109 C 0.62456 0.31268 0.80192 0.0
H110 H 0.38878 0.54227 0.04543 0.0
H111 H 0.50786 0.69779 0.99293 0.0
H112 H 0.5611 0.64672 0.96762 0.0
H113 H 0.50244 0.48802 0.05724 0.0
H114 H 0.44585 0.4135 0.05066 0.0
H115 H 0.4213 0.46382 0.06697 0.0
H116 H 0.34005 0.43857 0.02161 0.0
H117 H 0.36445 0.38833 0.00515 0.0
H118 H 0.36573 0.44583 0.98087 0.0
H119 H 0.60135 0.57888 0.94813 0.0
H120 H 0.619 0.49617 0.93182 0.0
H121 H 0.46714 0.38255 0.99316 0.0
C122 C 0.42674 0.56564 0.02898 0.0
C123 C 0.445 0.62403 0.02135 0.0
C124 C 0.49359 0.65302 -0.00089 0.0
C125 C 0.52417 0.62449 0.98473 0.0
C126 C 0.50474 0.56668 0.99246 0.0
C127 C 0.45666 0.53731 0.01376 0.0
C128 C 0.44155 0.47409 0.01595 0.0
C129 C 0.45352 0.45899 0.04971 0.0
C130 C 0.37394 0.43438 0.00525 0.0
C131 C 0.4885 0.47255 0.99252 0.0
C132 C 0.52525 0.52663 0.97967 0.0
C133 C 0.57267 0.53624 0.95791 0.0
C134 C 0.58244 0.48913 0.94883 0.0
C135 C 0.54408 0.43307 0.96102 0.0
C136 C 0.49667 0.42488 0.98318 0.0
H137 H 0.11493 0.52992 0.52552 0.0
H138 H 0.12861 0.51186 0.42351 0.0
H139 H 0.01636 0.44257 0.42152 0.0
H140 H 0.00766 0.38202 0.54132 0.0
H141 H 0.96411 0.3985 0.57093 0.0
H142 H 0.04557 0.44763 0.56451 0.0
H143 H 0.01808 0.53139 0.55433 0.0
H144 H 0.93651 0.48255 0.5608 0.0
H145 H 0.96116 0.52296 0.52429 0.0
H146 H 0.90487 0.37312 0.43054 0.0
H147 H 0.7982 0.31023 0.44955 0.0
H148 H 0.85488 0.37471 0.54567 0.0
C149 C 0.09433 0.51148 0.50275 0.0
C150 C 0.13065 0.5262 0.47467 0.0
C151 C 0.10179 0.50134 0.44533 0.0
C152 C 0.03808 0.46187 0.44394 0.0
C153 C 0.00381 0.44807 0.47205 0.0
C154 C 0.03062 0.47233 0.50087 0.0
C155 C 0.98293 0.45007 0.52749 0.0
C156 C 0.00117 0.41762 0.55253 0.0
C157 C 0.97416 0.49971 0.54261 0.0
C158 C 0.92529 0.40904 0.50911 0.0
C159 C 0.93862 0.40856 0.47719 0.0
C160 C 0.89367 0.37327 0.45544 0.0
C161 C 0.83324 0.33753 0.46655 0.0
C162 C 0.8181 0.33752 0.49913 0.0
C163 C 0.86489 0.37396 0.52063 0.0
H164 H 0.51145 0.14575 0.97599 0.0
H165 H 0.70234 0.17358 0.96589 0.0
H166 H 0.67399 0.08042 0.99315 0.0
H167 H 0.47728 0.0745 0.05238 0.0
H168 H 0.39846 0.02322 0.04162 0.0
H169 H 0.43494 0.09388 0.02353 0.0
H170 H 0.41365 0.04652 0.96759 0.0
H171 H 0.37677 0.97579 0.9855 0.0
H172 H 0.44104 -0.00558 0.95832 0.0
H173 H 0.62449 0.98491 0.02257 0.0
H174 H 0.55491 0.88833 0.04506 0.0
H175 H 0.3951 0.92006 0.03123 0.0
C176 C 0.54731 0.13236 0.97981 0.0
C177 C 0.60916 0.16679 0.96929 0.0
C178 C 0.6547 0.14757 0.97393 0.0
C179 C 0.63912 0.09504 0.98952 0.0
C180 C 0.5776 0.06204 -0.00028 0.0
C181 C 0.5322 0.0795 -0.00545 0.0
C182 C 0.46857 0.03417 0.00556 0.0
C183 C 0.44336 0.05788 0.03237 0.0
C184 C 0.4223 0.01138 0.97757 0.0
C185 C 0.48519 -0.01159 0.01774 0.0
C186 C 0.54848 0.0057 0.01477 0.0
C187 C 0.57482 0.9708 0.02487 0.0
C188 C 0.53511 0.91627 0.03773 0.0
C189 C 0.46987 0.897 0.03968 0.0
C190 C 0.44486 0.93379 0.02982 0.0
H191 H 0.5365 0.36852 0.53297 0.0
H192 H 0.52225 0.299 0.4376 0.0
H193 H 0.47959 0.36292 0.41845 0.0
H194 H 0.39364 0.37994 0.53017 0.0
H195 H 0.42463 0.44649 0.55268 0.0
H196 H 0.45497 0.39574 0.55888 0.0
H197 H 0.56703 0.47649 0.54693 0.0
H198 H 0.53699 0.52745 0.5406 0.0
H199 H 0.58235 0.51571 0.51002 0.0
H200 H 0.43934 0.43461 0.40942 0.0
H201 H 0.40016 0.50693 0.41164 0.0
H202 H 0.43923 0.52864 0.51297 0.0
C203 C 0.52449 0.36674 0.50806 0.0
C204 C 0.53285 0.32878 0.48681 0.0
C205 C 0.51622 0.32763 0.45439 0.0
C206 C 0.49208 0.36387 0.44323 0.0
C207 C 0.48464 0.40086 0.46477 0.0
C208 C 0.50004 0.40242 0.49651 0.0
C209 C 0.48648 0.44554 0.51476 0.0
C210 C 0.43697 0.41509 0.54064 0.0
C211 C 0.54682 0.49418 0.5289 0.0
C212 C 0.46106 0.46791 0.48828 0.0
C213 C 0.46068 0.44178 0.45962 0.0
C214 C 0.43933 0.45539 0.43173 0.0
C215 C 0.41728 0.4966 0.43324 0.0
C216 C 0.41653 0.52344 0.46247 0.0
C217 C 0.43905 0.5089 0.49025 0.0
H218 H 0.07556 0.6521 0.03602 0.0
H219 H 0.19624 0.59383 0.98838 0.0
H220 H 0.1054 0.5219 0.95813 0.0
H221 H 0.94459 0.51024 0.04447 0.0
H222 H 0.88709 0.53531 0.03841 0.0
H223 H 0.96201 0.58318 0.05542 0.0
H224 H 0.97969 0.65849 0.01127 0.0
H225 H 0.90496 0.61069 0.99401 0.0
H226 H 0.97485 0.63714 0.97015 0.0
H227 H 0.00173 0.45873 0.93181 0.0
H228 H 0.89119 0.40215 0.91532 0.0
H229 H 0.83798 0.49815 0.98266 0.0
C230 C 0.0829 0.62431 0.01915 0.0
C231 C 0.14292 0.62873 0.01434 0.0
C232 C 0.15055 0.59105 0.99243 0.0
C233 C 0.09935 0.55031 0.97505 0.0
C234 C 0.04083 0.54736 0.98022 0.0
C235 C 0.03222 0.58281 0.00206 0.0
C236 C 0.96417 0.56937 0.00412 0.0
C237 C 0.93793 0.54826 0.03759 0.0
C238 C 0.95544 0.62206 0.99429 0.0
C239 C 0.93582 0.52101 0.9799 0.0
C240 C 0.98088 0.50939 0.96609 0.0
C241 C 0.96599 0.4672 0.94259 0.0
C242 C 0.9032 0.4355 0.9333 0.0
C243 C 0.85616 0.44569 0.94782 0.0
C244 C 0.87294 0.48921 0.97129 0.0
H245 H 0.58284 0.08719 0.49797 0.0
H246 H 0.57728 0.0472 0.59815 0.0
H247 H 0.53845 0.94323 0.58475 0.0
H248 H 0.44806 0.96973 0.47493 0.0
H249 H 0.47664 0.95826 0.43735 0.0
H250 H 0.51067 0.02946 0.45475 0.0
H251 H 0.62058 0.03461 0.45246 0.0
H252 H 0.58694 0.96339 0.43476 0.0
H253 H 0.63296 0.97802 0.47053 0.0
H254 H 0.48215 0.84349 0.56052 0.0
H255 H 0.42518 0.75604 0.52709 0.0
H256 H 0.47888 0.86269 0.44256 0.0
C257 C 0.57466 0.05663 0.51701 0.0
C258 C 0.58246 0.07448 0.54903 0.0
C259 C 0.57167 0.03382 0.57346 0.0
C260 C 0.54967 0.97496 0.56604 0.0
C261 C 0.54086 0.9584 0.53411 0.0
C262 C 0.55458 -0.00165 0.50996 0.0
C263 C 0.53892 0.96951 0.47767 0.0
C264 C 0.49071 0.98251 0.46017 0.0
C265 C 0.5984 -0.01255 0.45768 0.0
C266 C 0.51117 0.90668 0.48743 0.0
C267 C 0.5126 0.90109 0.52009 0.0
C268 C 0.48258 0.84724 0.53491 0.0
C269 C 0.45016 0.798 0.51584 0.0
C270 C 0.44916 0.80313 0.48243 0.0
C271 C 0.48092 0.85786 0.46804 0.0
loop_
_geom_bond_atom_site_label_1
_geom_bond_atom_site_label_2
_geom_bond_distance
_geom_bond_site_symmetry_2
_ccdc_geom_bond_type
C0 O1 1.306 . S
C0 O3 1.160 . S
O1 C0 1.306 . S
O1 Cd2 2.228 . S
Cd2 O1 2.228 . S
Cd2 O6 2.273 . S
Cd2 O10 2.277 . S
O3 C0 1.160 . S
O3 Cd4 2.203 . S
Cd4 O3 2.203 . S
Cd4 O6 2.411 . S
Cd4 O7 2.333 . S
Cd4 O8 2.352 . S
Cd4 O12 2.277 . S
Cd4 O13 2.356 . S
C5 O10 1.209 . S
C5 O12 1.226 . S
O6 Cd2 2.273 . S
O6 Cd4 2.411 . S
O6 C9 1.320 . S
O7 Cd4 2.333 . S
O7 C9 1.214 . S
O8 Cd4 2.352 . S
O8 C11 1.258 . S
C9 O6 1.320 . S
C9 O7 1.214 . S
O10 Cd2 2.277 . S
O10 C5 1.209 . S
C11 O8 1.258 . S
C11 O13 1.282 . S
O12 Cd4 2.277 . S
O12 C5 1.226 . S
O13 Cd4 2.356 . S
O13 C11 1.282 . S
C14 O15 1.306 . S
C14 O17 1.160 . S
O15 C14 1.306 . S
O15 Cd16 2.228 . S
Cd16 O15 2.228 . S
Cd16 O20 2.273 . S
Cd16 O24 2.277 . S
O17 C14 1.160 . S
O17 Cd18 2.203 . S
Cd18 O17 2.203 . S
Cd18 O20 2.411 . S
Cd18 O21 2.333 . S
Cd18 O22 2.352 . S
Cd18 O26 2.277 . S
Cd18 O27 2.356 . S
C19 O24 1.209 . S
C19 O26 1.226 . S
O20 Cd16 2.273 . S
O20 Cd18 2.411 . S
O20 C23 1.320 . S
O21 Cd18 2.333 . S
O21 C23 1.214 . S
O22 Cd18 2.352 . S
O22 C25 1.258 . S
C23 O20 1.320 . S
C23 O21 1.214 . S
O24 Cd16 2.277 . S
O24 C19 1.209 . S
C25 O22 1.258 . S
C25 O27 1.282 . S
O26 Cd18 2.277 . S
O26 C19 1.226 . S
O27 Cd18 2.356 . S
O27 C25 1.282 . S
C28 O29 1.306 . S
C28 O31 1.160 . S
O29 C28 1.306 . S
O29 Cd30 2.228 . S
Cd30 O29 2.228 . S
Cd30 O34 2.273 . S
Cd30 O38 2.277 . S
O31 C28 1.160 . S
O31 Cd32 2.203 . S
Cd32 O31 2.203 . S
Cd32 O34 2.411 . S
Cd32 O35 2.333 . S
Cd32 O36 2.352 . S
Cd32 O40 2.277 . S
Cd32 O41 2.356 . S
C33 O38 1.209 . S
C33 O40 1.226 . S
O34 Cd30 2.273 . S
O34 Cd32 2.411 . S
O34 C37 1.320 . S
O35 Cd32 2.333 . S
O35 C37 1.214 . S
O36 Cd32 2.352 . S
O36 C39 1.258 . S
C37 O34 1.320 . S
C37 O35 1.214 . S
O38 Cd30 2.277 . S
O38 C33 1.209 . S
C39 O36 1.258 . S
C39 O41 1.282 . S
O40 Cd32 2.277 . S
O40 C33 1.226 . S
O41 Cd32 2.356 . S
O41 C39 1.282 . S
C42 O43 1.306 . S
C42 O45 1.160 . S
O43 C42 1.306 . S
O43 Cd44 2.228 . S
Cd44 O43 2.228 . S
Cd44 O48 2.273 . S
Cd44 O52 2.277 . S
O45 C42 1.160 . S
O45 Cd46 2.203 . S
Cd46 O45 2.203 . S
Cd46 O48 2.411 . S
Cd46 O49 2.333 . S
Cd46 O50 2.352 . S
Cd46 O54 2.277 . S
Cd46 O55 2.356 . S
C47 O52 1.209 . S
C47 O54 1.226 . S
O48 Cd44 2.273 . S
O48 Cd46 2.411 . S
O48 C51 1.320 . S
O49 Cd46 2.333 . S
O49 C51 1.214 . S
O50 Cd46 2.352 . S
O50 C53 1.258 . S
C51 O48 1.320 . S
C51 O49 1.214 . S
O52 Cd44 2.277 . S
O52 C47 1.209 . S
C53 O50 1.258 . S
C53 O55 1.282 . S
O54 Cd46 2.277 . S
O54 C47 1.226 . S
O55 Cd46 2.356 . S
O55 C53 1.282 . S
H56 C68 0.930 . S
H57 C70 0.930 . S
H58 C71 0.930 . S
H59 C75 0.959 . S
H60 C75 0.959 . S
H61 C75 0.961 . S
H62 C76 0.960 . S
H63 C76 0.961 . S
H64 C76 0.959 . S
H65 C79 0.929 . S
H66 C80 0.931 . S
H67 C82 0.930 . S
C68 H56 0.930 . S
C68 C69 1.399 . S
C68 C73 1.399 . S
C69 C68 1.399 . S
C69 C70 1.376 . S
C70 H57 0.930 . S
C70 C69 1.376 . S
C70 C71 1.388 . S
C71 H58 0.930 . S
C71 C70 1.388 . S
C71 C72 1.390 . S
C72 C71 1.390 . S
C72 C73 1.394 . S
C72 C78 1.465 . S
C73 C68 1.399 . S
C73 C72 1.394 . S
C73 C74 1.516 . S
C74 C73 1.516 . S
C74 C75 1.502 . S
C74 C76 1.561 . S
C74 C77 1.526 . S
C75 H59 0.959 . S
C75 H60 0.959 . S
C75 H61 0.961 . S
C75 C74 1.502 . S
C76 H62 0.960 . S
C76 H63 0.961 . S
C76 H64 0.959 . S
C76 C74 1.561 . S
C77 C74 1.526 . S
C77 C78 1.396 . S
C77 C82 1.390 . S
C78 C72 1.465 . S
C78 C77 1.396 . S
C78 C79 1.399 . S
C79 H65 0.929 . S
C79 C78 1.399 . S
C79 C80 1.385 . S
C80 H66 0.931 . S
C80 C79 1.385 . S
C80 C81 1.389 . S
C81 C80 1.389 . S
C81 C82 1.387 . S
C82 H67 0.930 . S
C82 C77 1.390 . S
C82 C81 1.387 . S
H83 C95 0.930 . S
H84 C97 0.930 . S
H85 C98 0.930 . S
H86 C102 0.959 . S
H87 C102 0.959 . S
H88 C102 0.961 . S
H89 C103 0.960 . S
H90 C103 0.961 . S
H91 C103 0.959 . S
H92 C106 0.929 . S
H93 C107 0.931 . S
H94 C109 0.930 . S
C95 H83 0.930 . S
C95 C96 1.399 . S
C95 C100 1.399 . S
C96 C95 1.399 . S
C96 C97 1.376 . S
C97 H84 0.930 . S
C97 C96 1.376 . S
C97 C98 1.388 . S
C98 H85 0.930 . S
C98 C97 1.388 . S
C98 C99 1.390 . S
C99 C98 1.390 . S
C99 C100 1.394 . S
C99 C105 1.465 . S
C100 C95 1.399 . S
C100 C99 1.394 . S
C100 C101 1.516 . S
C101 C100 1.516 . S
C101 C102 1.502 . S
C101 C103 1.561 . S
C101 C104 1.526 . S
C102 H86 0.959 . S
C102 H87 0.959 . S
C102 H88 0.961 . S
C102 C101 1.502 . S
C103 H89 0.960 . S
C103 H90 0.961 . S
C103 H91 0.959 . S
C103 C101 1.561 . S
C104 C101 1.526 . S
C104 C105 1.396 . S
C104 C109 1.390 . S
C105 C99 1.465 . S
C105 C104 1.396 . S
C105 C106 1.399 . S
C106 H92 0.929 . S
C106 C105 1.399 . S
C106 C107 1.385 . S
C107 H93 0.931 . S
C107 C106 1.385 . S
C107 C108 1.389 . S
C108 C107 1.389 . S
C108 C109 1.387 . S
C109 H94 0.930 . S
C109 C104 1.390 . S
C109 C108 1.387 . S
H110 C122 0.930 . S
H111 C124 0.930 . S
H112 C125 0.930 . S
H113 C129 0.959 . S
H114 C129 0.959 . S
H115 C129 0.961 . S
H116 C130 0.960 . S
H117 C130 0.961 . S
H118 C130 0.959 . S
H119 C133 0.929 . S
H120 C134 0.931 . S
H121 C136 0.930 . S
C122 H110 0.930 . S
C122 C123 1.399 . S
C122 C127 1.404 . S
C123 C122 1.399 . S
C123 C124 1.376 1_554 S
C124 H111 0.930 . S
C124 C123 1.376 1_556 S
C124 C125 1.388 . S
C125 H112 0.930 . S
C125 C124 1.388 . S
C125 C126 1.390 . S
C126 C125 1.390 . S
C126 C127 1.387 1_556 S
C126 C132 1.465 . S
C127 C122 1.404 . S
C127 C126 1.387 1_554 S
C127 C128 1.516 . S
C128 C127 1.516 . S
C128 C129 1.535 . S
C128 C130 1.542 1_554 S
C128 C131 1.509 1_554 S
C129 H113 0.959 . S
C129 H114 0.959 . S
C129 H115 0.961 . S
C129 C128 1.535 . S
C130 H116 0.960 . S
C130 H117 0.961 . S
C130 H118 0.959 . S
C130 C128 1.542 1_556 S
C131 C128 1.509 1_556 S
C131 C132 1.396 . S
C131 C136 1.390 . S
C132 C126 1.465 . S
C132 C131 1.396 . S
C132 C133 1.399 . S
C133 H119 0.929 . S
C133 C132 1.399 . S
C133 C134 1.385 . S
C134 H120 0.931 . S
C134 C133 1.385 . S
C134 C135 1.389 . S
C135 C134 1.389 . S
C135 C136 1.387 . S
C136 H121 0.930 . S
C136 C131 1.390 . S
C136 C135 1.387 . S
H137 C149 0.930 . S
H138 C151 0.930 . S
H139 C152 0.930 . S
H140 C156 0.959 1_655 S
H141 C156 0.959 1_655 S
H142 C156 0.961 . S
H143 C157 0.960 . S
H144 C157 0.961 . S
H145 C157 0.959 . S
H146 C160 0.929 . S
H147 C161 0.931 . S
H148 C163 0.930 . S
C149 H137 0.930 . S
C149 C150 1.399 . S
C149 C154 1.399 . S
C150 C149 1.399 . S
C150 C151 1.376 . S
C151 H138 0.930 . S
C151 C150 1.376 . S
C151 C152 1.388 . S
C152 H139 0.930 . S
C152 C151 1.388 . S
C152 C153 1.390 . S
C153 C152 1.390 . S
C153 C154 1.394 . S
C153 C159 1.465 1_455 S
C154 C149 1.399 . S
C154 C153 1.394 . S
C154 C155 1.516 . S
C155 C154 1.516 . S
C155 C156 1.502 . S
C155 C157 1.561 . S
C155 C158 1.526 1_455 S
C156 H140 0.959 1_455 S
C156 H141 0.959 1_455 S
C156 H142 0.961 . S
C156 C155 1.502 . S
C157 H143 0.960 . S
C157 H144 0.961 . S
C157 H145 0.959 . S
C157 C155 1.561 . S
C158 C155 1.526 1_655 S
C158 C159 1.396 . S
C158 C163 1.390 . S
C159 C153 1.465 1_655 S
C159 C158 1.396 . S
C159 C160 1.399 . S
C160 H146 0.929 . S
C160 C159 1.399 . S
C160 C161 1.385 . S
C161 H147 0.931 . S
C161 C160 1.385 . S
C161 C162 1.389 . S
C162 C161 1.389 . S
C162 C163 1.387 . S
C163 H148 0.930 . S
C163 C158 1.390 . S
C163 C162 1.387 . S
H164 C176 0.930 . S
H165 C178 0.930 . S
H166 C179 0.930 . S
H167 C183 0.959 . S
H168 C183 0.959 1_565 S
H169 C183 0.961 . S
H170 C184 0.960 1_545 S
H171 C184 0.961 . S
H172 C184 0.959 . S
H173 C187 0.929 . S
H174 C188 0.931 . S
H175 C190 0.930 . S
C176 H164 0.930 . S
C176 C177 1.399 . S
C176 C181 1.399 . S
C177 C176 1.399 . S
C177 C178 1.376 . S
C178 H165 0.930 . S
C178 C177 1.376 . S
C178 C179 1.388 . S
C179 H166 0.930 . S
C179 C178 1.388 . S
C179 C180 1.390 . S
C180 C179 1.390 . S
C180 C181 1.394 . S
C180 C186 1.465 1_546 S
C181 C176 1.399 . S
C181 C180 1.394 . S
C181 C182 1.516 1_545 S
C182 C181 1.516 1_565 S
C182 C183 1.502 1_566 S
C182 C184 1.561 . S
C182 C185 1.526 1_556 S
C183 H167 0.959 . S
C183 H168 0.959 1_545 S
C183 H169 0.961 . S
C183 C182 1.502 1_544 S
C184 H170 0.960 1_565 S
C184 H171 0.961 . S
C184 H172 0.959 . S
C184 C182 1.561 . S
C185 C182 1.526 1_554 S
C185 C186 1.396 . S
C185 C190 1.390 . S
C186 C180 1.465 1_564 S
C186 C185 1.396 . S
C186 C187 1.399 . S
C187 H173 0.929 . S
C187 C186 1.399 . S
C187 C188 1.385 . S
C188 H174 0.931 . S
C188 C187 1.385 . S
C188 C189 1.389 . S
C189 C188 1.389 . S
C189 C190 1.387 . S
C190 H175 0.930 . S
C190 C185 1.390 . S
C190 C189 1.387 . S
H191 C203 0.930 . S
H192 C205 0.930 . S
H193 C206 0.930 . S
H194 C210 0.959 . S
H195 C210 0.959 . S
H196 C210 0.961 . S
H197 C211 0.960 . S
H198 C211 0.961 . S
H199 C211 0.959 . S
H200 C214 0.929 . S
H201 C215 0.931 . S
H202 C217 0.930 . S
C203 H191 0.930 . S
C203 C204 1.399 . S
C203 C208 1.399 . S
C204 C203 1.399 . S
C204 C205 1.376 . S
C205 H192 0.930 . S
C205 C204 1.376 . S
C205 C206 1.388 . S
C206 H193 0.930 . S
C206 C205 1.388 . S
C206 C207 1.390 . S
C207 C206 1.390 . S
C207 C208 1.394 . S
C207 C213 1.465 . S
C208 C203 1.399 . S
C208 C207 1.394 . S
C208 C209 1.516 . S
C209 C208 1.516 . S
C209 C210 1.502 . S
C209 C211 1.561 . S
C209 C212 1.526 . S
C210 H194 0.959 . S
C210 H195 0.959 . S
C210 H196 0.961 . S
C210 C209 1.502 . S
C211 H197 0.960 . S
C211 H198 0.961 . S
C211 H199 0.959 . S
C211 C209 1.561 . S
C212 C209 1.526 . S
C212 C213 1.396 . S
C212 C217 1.390 . S
C213 C207 1.465 . S
C213 C212 1.396 . S
C213 C214 1.399 . S
C214 H200 0.929 . S
C214 C213 1.399 . S
C214 C215 1.385 . S
C215 H201 0.931 . S
C215 C214 1.385 . S
C215 C216 1.389 . S
C216 C215 1.389 . S
C216 C217 1.387 . S
C217 H202 0.930 . S
C217 C212 1.390 . S
C217 C216 1.387 . S
H218 C230 0.930 . S
H219 C232 0.930 1_556 S
H220 C233 0.930 . S
H221 C237 0.950 1_455 S
H222 C237 0.972 . S
H223 C237 0.947 1_455 S
H224 C238 0.960 1_455 S
H225 C238 0.961 . S
H226 C238 0.959 . S
H227 C241 0.929 . S
H228 C242 0.931 . S
H229 C244 0.930 . S
C230 H218 0.930 . S
C230 C231 1.399 . S
C230 C235 1.399 . S
C231 C230 1.399 . S
C231 C232 1.376 . S
C232 H219 0.930 1_554 S
C232 C231 1.376 . S
C232 C233 1.388 1_554 S
C233 H220 0.930 . S
C233 C232 1.388 1_556 S
C233 C234 1.390 1_556 S
C234 C233 1.390 1_554 S
C234 C235 1.394 . S
C234 C240 1.465 1_454 S
C235 C230 1.399 . S
C235 C234 1.394 . S
C235 C236 1.516 1_455 S
C236 C235 1.516 1_655 S
C236 C237 1.512 . S
C236 C238 1.561 . S
C236 C239 1.526 . S
C237 H221 0.950 1_655 S
C237 H222 0.972 . S
C237 H223 0.947 1_655 S
C237 C236 1.512 . S
C238 H224 0.960 1_655 S
C238 H225 0.961 . S
C238 H226 0.959 . S
C238 C236 1.561 . S
C239 C236 1.526 . S
C239 C240 1.396 1_554 S
C239 C244 1.390 . S
C240 C234 1.465 1_656 S
C240 C239 1.396 1_556 S
C240 C241 1.399 . S
C241 H227 0.929 . S
C241 C240 1.399 . S
C241 C242 1.385 . S
C242 H228 0.931 . S
C242 C241 1.385 . S
C242 C243 1.389 . S
C243 C242 1.389 . S
C243 C244 1.387 1_556 S
C244 H229 0.930 . S
C244 C239 1.390 . S
C244 C243 1.387 1_554 S
H245 C257 0.930 . S
H246 C259 0.930 . S
H247 C260 0.930 . S
H248 C264 0.959 . S
H249 C264 0.959 . S
H250 C264 0.961 . S
H251 C265 0.960 . S
H252 C265 0.961 . S
H253 C265 0.959 . S
H254 C268 0.929 . S
H255 C269 0.931 . S
H256 C271 0.930 . S
C257 H245 0.930 . S
C257 C258 1.399 . S
C257 C262 1.399 . S
C258 C257 1.399 . S
C258 C259 1.376 . S
C259 H246 0.930 . S
C259 C258 1.376 . S
C259 C260 1.388 . S
C260 H247 0.930 . S
C260 C259 1.388 . S
C260 C261 1.390 . S
C261 C260 1.390 . S
C261 C262 1.394 . S
C261 C267 1.465 1_545 S
C262 C257 1.399 . S
C262 C261 1.394 . S
C262 C263 1.516 . S
C263 C262 1.516 . S
C263 C264 1.502 . S
C263 C265 1.561 . S
C263 C266 1.526 1_545 S
C264 H248 0.959 . S
C264 H249 0.959 . S
C264 H250 0.961 . S
C264 C263 1.502 . S
C265 H251 0.960 . S
C265 H252 0.961 . S
C265 H253 0.959 . S
C265 C263 1.561 . S
C266 C263 1.526 1_565 S
C266 C267 1.396 . S
C266 C271 1.390 . S
C267 C261 1.465 1_565 S
C267 C266 1.396 . S
C267 C268 1.399 . S
C268 H254 0.929 . S
C268 C267 1.399 . S
C268 C269 1.385 . S
C269 H255 0.931 . S
C269 C268 1.385 . S
C269 C270 1.389 . S
C270 C269 1.389 . S
C270 C271 1.387 . S
C271 H256 0.930 . S
C271 C266 1.390 . S
C271 C270 1.387 . S
C69 C5 1.569 . S
C81 C39 1.556 . S
C96 C25 1.577 . S
C108 C47 1.580 . S
C123 C11 1.447 . S
C135 C42 1.448 . S
C150 C28 1.637 . S
C162 C19 1.647 . S
C177 C51 1.518 . S
C189 C9 1.511 . S
C204 C14 1.624 . S
C216 C33 1.631 . S
C231 C0 1.427 . S
C243 C53 1.408 . S
C258 C23 1.580 . S
C270 C37 1.580 . S
