# Generated by pormake.
# Topology zni, (4)-cn, num edge types: 1
# Building blocks:
#     Node 0, Type 0, BuildingBlock: AZAVOO_clean_sbu_0, # of connection points: 4
#     Node 1, Type 0, BuildingBlock: AZAVOO_clean_sbu_0, # of connection points: 4
#     Node 2, Type 0, BuildingBlock: AZAVOO_clean_sbu_0, # of connection points: 4
#     Node 3, Type 0, BuildingBlock: AZAVOO_clean_sbu_0, # of connection points: 4
#     Node 4, Type 0, BuildingBlock: AZAVOO_clean_sbu_0, # of connection points: 4
#     Node 5, Type 0, BuildingBlock: AZAVOO_clean_sbu_0, # of connection points: 4
#     Node 6, Type 0, BuildingBlock: AZAVOO_clean_sbu_0, # of connection points: 4
#     Node 7, Type 0, BuildingBlock: AZAVOO_clean_sbu_0, # of connection points: 4
#     Node 8, Type 0, BuildingBlock: AZAVOO_clean_sbu_0, # of connection points: 4
#     Node 9, Type 0, BuildingBlock: AZAVOO_clean_sbu_0, # of connection points: 4
#     Node 10, Type 0, BuildingBlock: AZAVOO_clean_sbu_0, # of connection points: 4
#     Node 11, Type 0, BuildingBlock: AZAVOO_clean_sbu_0, # of connection points: 4
#     Node 12, Type 0, BuildingBlock: AZAVOO_clean_sbu_0, # of connection points: 4
#     Node 13, Type 0, BuildingBlock: AZAVOO_clean_sbu_0, # of connection points: 4
#     Node 14, Type 0, BuildingBlock: AZAVOO_clean_sbu_0, # of connection points: 4
#     Node 15, Type 0, BuildingBlock: AZAVOO_clean_sbu_0, # of connection points: 4
#     Node 16, Type 0, BuildingBlock: AZAVOO_clean_sbu_0, # of connection points: 4
#     Node 17, Type 0, BuildingBlock: AZAVOO_clean_sbu_0, # of connection points: 4
#     Node 18, Type 0, BuildingBlock: AZAVOO_clean_sbu_0, # of connection points: 4
#     Node 19, Type 0, BuildingBlock: AZAVOO_clean_sbu_0, # of connection points: 4
#     Node 20, Type 0, BuildingBlock: AZAVOO_clean_sbu_0, # of connection points: 4
#     Node 21, Type 0, BuildingBlock: AZAVOO_clean_sbu_0, # of connection points: 4
#     Node 22, Type 0, BuildingBlock: AZAVOO_clean_sbu_0, # of connection points: 4
#     Node 23, Type 0, BuildingBlock: AZAVOO_clean_sbu_0, # of connection points: 4
#     Node 24, Type 0, BuildingBlock: AZAVOO_clean_sbu_0, # of connection points: 4
#     Node 25, Type 0, BuildingBlock: AZAVOO_clean_sbu_0, # of connection points: 4
#     Node 26, Type 0, BuildingBlock: AZAVOO_clean_sbu_0, # of connection points: 4
#     Node 27, Type 0, BuildingBlock: AZAVOO_clean_sbu_0, # of connection points: 4
#     Node 28, Type 0, BuildingBlock: AZAVOO_clean_sbu_0, # of connection points: 4
#     Node 29, Type 0, BuildingBlock: AZAVOO_clean_sbu_0, # of connection points: 4
#     Node 30, Type 0, BuildingBlock: AZAVOO_clean_sbu_0, # of connection points: 4
#     Node 31, Type 0, BuildingBlock: AZAVOO_clean_sbu_0, # of connection points: 4
#     Edge 32, Type (0, 0), BuildingBlock: XIVTED_clean_linker_0, # of connection points: 2
#     Edge 33, Type (0, 0), BuildingBlock: XIVTED_clean_linker_0, # of connection points: 2
#     Edge 34, Type (0, 0), BuildingBlock: XIVTED_clean_linker_0, # of connection points: 2
#     Edge 35, Type (0, 0), BuildingBlock: XIVTED_clean_linker_0, # of connection points: 2
#     Edge 36, Type (0, 0), BuildingBlock: XIVTED_clean_linker_0, # of connection points: 2
#     Edge 37, Type (0, 0), BuildingBlock: XIVTED_clean_linker_0, # of connection points: 2
#     Edge 38, Type (0, 0), BuildingBlock: XIVTED_clean_linker_0, # of connection points: 2
#     Edge 39, Type (0, 0), BuildingBlock: XIVTED_clean_linker_0, # of connection points: 2
#     Edge 40, Type (0, 0), BuildingBlock: XIVTED_clean_linker_0, # of connection points: 2
#     Edge 41, Type (0, 0), BuildingBlock: XIVTED_clean_linker_0, # of connection points: 2
#     Edge 42, Type (0, 0), BuildingBlock: XIVTED_clean_linker_0, # of connection points: 2
#     Edge 43, Type (0, 0), BuildingBlock: XIVTED_clean_linker_0, # of connection points: 2
#     Edge 44, Type (0, 0), BuildingBlock: XIVTED_clean_linker_0, # of connection points: 2
#     Edge 45, Type (0, 0), BuildingBlock: XIVTED_clean_linker_0, # of connection points: 2
#     Edge 46, Type (0, 0), BuildingBlock: XIVTED_clean_linker_0, # of connection points: 2
#     Edge 47, Type (0, 0), BuildingBlock: XIVTED_clean_linker_0, # of connection points: 2
#     Edge 48, Type (0, 0), BuildingBlock: XIVTED_clean_linker_0, # of connection points: 2
#     Edge 49, Type (0, 0), BuildingBlock: XIVTED_clean_linker_0, # of connection points: 2
#     Edge 50, Type (0, 0), BuildingBlock: XIVTED_clean_linker_0, # of connection points: 2
#     Edge 51, Type (0, 0), BuildingBlock: XIVTED_clean_linker_0, # of connection points: 2
#     Edge 52, Type (0, 0), BuildingBlock: XIVTED_clean_linker_0, # of connection points: 2
#     Edge 53, Type (0, 0), BuildingBlock: XIVTED_clean_linker_0, # of connection points: 2
#     Edge 54, Type (0, 0), BuildingBlock: XIVTED_clean_linker_0, # of connection points: 2
#     Edge 55, Type (0, 0), BuildingBlock: XIVTED_clean_linker_0, # of connection points: 2
#     Edge 56, Type (0, 0), BuildingBlock: XIVTED_clean_linker_0, # of connection points: 2
#     Edge 57, Type (0, 0), BuildingBlock: XIVTED_clean_linker_0, # of connection points: 2
#     Edge 58, Type (0, 0), BuildingBlock: XIVTED_clean_linker_0, # of connection points: 2
#     Edge 59, Type (0, 0), BuildingBlock: XIVTED_clean_linker_0, # of connection points: 2
#     Edge 60, Type (0, 0), BuildingBlock: XIVTED_clean_linker_0, # of connection points: 2
#     Edge 61, Type (0, 0), BuildingBlock: XIVTED_clean_linker_0, # of connection points: 2
#     Edge 62, Type (0, 0), BuildingBlock: XIVTED_clean_linker_0, # of connection points: 2
#     Edge 63, Type (0, 0), BuildingBlock: XIVTED_clean_linker_0, # of connection points: 2
#     Edge 64, Type (0, 0), BuildingBlock: XIVTED_clean_linker_0, # of connection points: 2
#     Edge 65, Type (0, 0), BuildingBlock: XIVTED_clean_linker_0, # of connection points: 2
#     Edge 66, Type (0, 0), BuildingBlock: XIVTED_clean_linker_0, # of connection points: 2
#     Edge 67, Type (0, 0), BuildingBlock: XIVTED_clean_linker_0, # of connection points: 2
#     Edge 68, Type (0, 0), BuildingBlock: XIVTED_clean_linker_0, # of connection points: 2
#     Edge 69, Type (0, 0), BuildingBlock: XIVTED_clean_linker_0, # of connection points: 2
#     Edge 70, Type (0, 0), BuildingBlock: XIVTED_clean_linker_0, # of connection points: 2
#     Edge 71, Type (0, 0), BuildingBlock: XIVTED_clean_linker_0, # of connection points: 2
#     Edge 72, Type (0, 0), BuildingBlock: XIVTED_clean_linker_0, # of connection points: 2
#     Edge 73, Type (0, 0), BuildingBlock: XIVTED_clean_linker_0, # of connection points: 2
#     Edge 74, Type (0, 0), BuildingBlock: XIVTED_clean_linker_0, # of connection points: 2
#     Edge 75, Type (0, 0), BuildingBlock: XIVTED_clean_linker_0, # of connection points: 2
#     Edge 76, Type (0, 0), BuildingBlock: XIVTED_clean_linker_0, # of connection points: 2
#     Edge 77, Type (0, 0), BuildingBlock: XIVTED_clean_linker_0, # of connection points: 2
#     Edge 78, Type (0, 0), BuildingBlock: XIVTED_clean_linker_0, # of connection points: 2
#     Edge 79, Type (0, 0), BuildingBlock: XIVTED_clean_linker_0, # of connection points: 2
#     Edge 80, Type (0, 0), BuildingBlock: XIVTED_clean_linker_0, # of connection points: 2
#     Edge 81, Type (0, 0), BuildingBlock: XIVTED_clean_linker_0, # of connection points: 2
#     Edge 82, Type (0, 0), BuildingBlock: XIVTED_clean_linker_0, # of connection points: 2
#     Edge 83, Type (0, 0), BuildingBlock: XIVTED_clean_linker_0, # of connection points: 2
#     Edge 84, Type (0, 0), BuildingBlock: XIVTED_clean_linker_0, # of connection points: 2
#     Edge 85, Type (0, 0), BuildingBlock: XIVTED_clean_linker_0, # of connection points: 2
#     Edge 86, Type (0, 0), BuildingBlock: XIVTED_clean_linker_0, # of connection points: 2
#     Edge 87, Type (0, 0), BuildingBlock: XIVTED_clean_linker_0, # of connection points: 2
#     Edge 88, Type (0, 0), BuildingBlock: XIVTED_clean_linker_0, # of connection points: 2
#     Edge 89, Type (0, 0), BuildingBlock: XIVTED_clean_linker_0, # of connection points: 2
#     Edge 90, Type (0, 0), BuildingBlock: XIVTED_clean_linker_0, # of connection points: 2
#     Edge 91, Type (0, 0), BuildingBlock: XIVTED_clean_linker_0, # of connection points: 2
#     Edge 92, Type (0, 0), BuildingBlock: XIVTED_clean_linker_0, # of connection points: 2
#     Edge 93, Type (0, 0), BuildingBlock: XIVTED_clean_linker_0, # of connection points: 2
#     Edge 94, Type (0, 0), BuildingBlock: XIVTED_clean_linker_0, # of connection points: 2
#     Edge 95, Type (0, 0), BuildingBlock: XIVTED_clean_linker_0, # of connection points: 2
# Relax obj value: 0.213
# Max RMSD: 0.133
# Mean RMSD: 0.130
data_MOF--net-zni--node1-AZAVOO_clean_sbu_0--edge1-XIVTED_clean_linker_0
_symmetry_space_group_name_H-M    P1
_symmetry_Int_Tables_number       1
_symmetry_cell_setting            triclinic
loop_
_symmetry_equiv_pos_as_xyz
'x, y, z'
_cell_length_a     52.971483
_cell_length_b     50.543783
_cell_length_c     35.172355
_cell_angle_alpha  90.322679
_cell_angle_beta   90.253587
_cell_angle_gamma 90.113115
loop_
_atom_site_label
_atom_site_type_symbol
_atom_site_fract_x
_atom_site_fract_y
_atom_site_fract_z
_atom_type_partial_charge
Mg0 Mg 0.12627 0.07277 0.39774 0.0
O1 O 0.13375 0.1164 0.37945 0.0
O2 O 0.11545 0.11937 0.32214 0.0
Mg3 Mg 0.09626 0.08113 0.30445 0.0
C4 C 0.12809 0.12953 0.34954 0.0
C5 C 0.14521 0.05966 0.47437 0.0
O6 O 0.12644 0.0436 0.46586 0.0
O7 O 0.15636 0.0567 0.35605 0.0
O8 O 0.13503 0.06162 0.30149 0.0
O9 O 0.08951 0.08466 0.42396 0.0
O10 O 0.09354 0.07127 0.3646 0.0
C11 C 0.15459 0.05423 0.31987 0.0
C12 C 0.07921 0.08021 0.39115 0.0
O13 O 0.15283 0.07559 0.44893 0.0
Mg14 Mg 0.16336 0.86889 0.65425 0.0
O15 O 0.12282 0.87292 0.63074 0.0
O16 O 0.11888 0.84612 0.58037 0.0
Mg17 Mg 0.15681 0.82615 0.57036 0.0
C18 C 0.10968 0.86295 0.60364 0.0
C19 C 0.1528 0.92459 0.71321 0.0
O20 O 0.14884 0.9478 0.69765 0.0
O21 O 0.17873 0.8945 0.60601 0.0
O22 O 0.17402 0.86663 0.55683 0.0
O23 O 0.15105 0.83416 0.6889 0.0
O24 O 0.16643 0.83129 0.63074 0.0
C25 C 0.18076 0.889 0.57065 0.0
C26 C 0.15652 0.81973 0.65953 0.0
O27 O 0.15658 0.90468 0.6919 0.0
Mg28 Mg 0.35555 0.91134 0.89862 0.0
O29 O 0.34857 0.86779 0.87918 0.0
O30 O 0.36713 0.86493 0.82228 0.0
Mg31 Mg 0.38567 0.90354 0.80568 0.0
C32 C 0.35454 0.85465 0.84931 0.0
C33 C 0.33381 0.92496 0.97378 0.0
O34 O 0.35093 0.94297 0.96598 0.0
O35 O 0.32545 0.9272 0.85702 0.0
O36 O 0.34666 0.92257 0.80254 0.0
O37 O 0.39214 0.89944 0.92533 0.0
O38 O 0.38837 0.91316 0.86619 0.0
C39 C 0.32708 0.92972 0.82093 0.0
C40 C 0.40253 0.90388 0.89278 0.0
O41 O 0.32852 0.90774 0.94844 0.0
Mg42 Mg 0.32367 0.12163 0.14941 0.0
O43 O 0.36437 0.11213 0.12859 0.0
O44 O 0.36811 0.13324 0.07315 0.0
Mg45 Mg 0.33196 0.15465 0.05778 0.0
C46 C 0.37722 0.11863 0.09928 0.0
C47 C 0.30866 0.09681 0.22237 0.0
O48 O 0.29184 0.11509 0.21452 0.0
O49 O 0.30669 0.09181 0.10704 0.0
O50 O 0.31222 0.11435 0.05311 0.0
O51 O 0.33773 0.15844 0.17737 0.0
O52 O 0.32349 0.15673 0.11836 0.0
C53 C 0.30452 0.09395 0.07098 0.0
C54 C 0.33379 0.17027 0.14538 0.0
O55 O 0.32575 0.09203 0.19797 0.0
Mg56 Mg 0.12764 0.90279 0.07187 0.0
O57 O 0.13532 0.85983 0.09205 0.0
O58 O 0.11814 0.85837 0.15004 0.0
Mg59 Mg 0.09951 0.89701 0.1665 0.0
C60 C 0.13019 0.84751 0.12279 0.0
C61 C 0.14413 0.91708 -0.00259 0.0
O62 O 0.12836 0.93442 0.01194 0.0
O63 O 0.15878 0.92002 0.11138 0.0
O64 O 0.13833 0.91658 0.1667 0.0
O65 O 0.09033 0.89046 0.0476 0.0
O66 O 0.09566 0.90536 0.10606 0.0
C67 C 0.15759 0.92349 0.14745 0.0
C68 C 0.08073 0.8959 0.08042 0.0
O69 O 0.15215 0.89874 0.01892 0.0
Mg70 Mg 0.32468 0.86038 0.32085 0.0
O71 O 0.36518 0.872 0.34113 0.0
O72 O 0.36958 0.85287 0.39798 0.0
Mg73 Mg 0.33418 0.83048 0.41443 0.0
C74 C 0.37824 0.86695 0.37099 0.0
C75 C 0.30906 0.88132 0.24605 0.0
O76 O 0.29419 0.86134 0.25432 0.0
O77 O 0.30695 0.8907 0.36118 0.0
O78 O 0.31294 0.86997 0.41653 0.0
O79 O 0.33947 0.82326 0.29506 0.0
O80 O 0.32558 0.82625 0.35397 0.0
C81 C 0.30465 0.8895 0.39727 0.0
C82 C 0.33584 0.81218 0.32766 0.0
O83 O 0.32535 0.88865 0.27066 0.0
Mg84 Mg 0.35599 0.07501 0.57322 0.0
O85 O 0.34684 0.11911 0.58481 0.0
O86 O 0.3614 0.12789 0.64345 0.0
Mg87 Mg 0.38157 0.0919 0.66726 0.0
C88 C 0.35007 0.13483 0.61305 0.0
C89 C 0.33939 0.05859 0.49535 0.0
O90 O 0.35921 0.04416 0.50386 0.0
O91 O 0.32507 0.06059 0.61417 0.0
O92 O 0.34383 0.06996 0.66974 0.0
O93 O 0.39301 0.08663 0.54836 0.0
O94 O 0.3875 0.07747 0.60901 0.0
C95 C 0.32546 0.06028 0.65055 0.0
C96 C 0.40235 0.08509 0.58231 0.0
O97 O 0.33063 0.07407 0.52069 0.0
Mg98 Mg 0.15987 0.12229 0.82236 0.0
O99 O 0.11923 0.11223 0.84297 0.0
O100 O 0.11519 0.13355 0.89854 0.0
Mg101 Mg 0.1511 0.15552 0.91427 0.0
C102 C 0.10628 0.11865 0.87231 0.0
C103 C 0.17499 0.09847 0.74864 0.0
O104 O 0.19122 0.11736 0.75695 0.0
O105 O 0.17685 0.09274 0.86456 0.0
O106 O 0.17096 0.11538 0.91866 0.0
O107 O 0.14561 0.15883 0.79467 0.0
O108 O 0.15964 0.15753 0.85376 0.0
C109 C 0.17881 0.09499 0.90067 0.0
C110 C 0.14935 0.17085 0.82677 0.0
O111 O 0.15823 0.09274 0.77311 0.0
Mg112 Mg 0.88016 0.91853 0.56463 0.0
O113 O 0.87607 0.87592 0.58675 0.0
O114 O 0.89849 0.87261 0.64048 0.0
Mg115 Mg 0.91519 0.913 0.6544 0.0
C116 C 0.88434 0.86245 0.6148 0.0
C117 C 0.84221 0.92849 0.49806 0.0
O118 O 0.85021 0.95278 0.50412 0.0
O119 O 0.85166 0.9333 0.60852 0.0
O120 O 0.87492 0.92901 0.66139 0.0
O121 O 0.91562 0.90694 0.53507 0.0
O122 O 0.91466 0.92268 0.5937 0.0
C123 C 0.85435 0.9352 0.64453 0.0
C124 C 0.92754 0.91255 0.5663 0.0
O125 O 0.84975 0.91022 0.52003 0.0
Mg126 Mg 0.84648 0.09612 0.33045 0.0
O127 O 0.84906 0.14183 0.32877 0.0
O128 O 0.87992 0.15154 0.28794 0.0
Mg129 Mg 0.89705 0.11372 0.26417 0.0
C130 C 0.86265 0.15862 0.31104 0.0
C131 C 0.80416 0.07752 0.38196 0.0
O132 O 0.81807 0.0563 0.37692 0.0
O133 O 0.82648 0.09509 0.27205 0.0
O134 O 0.85935 0.10528 0.23488 0.0
O135 O 0.87633 0.09509 0.37593 0.0
O136 O 0.88407 0.09264 0.31446 0.0
C137 C 0.83613 0.0993 0.23935 0.0
C138 C 0.89262 0.09385 0.34867 0.0
O139 O 0.80994 0.09849 0.36417 0.0
Mg140 Mg 0.60781 0.06624 0.06509 0.0
O141 O 0.61236 0.10922 0.08646 0.0
O142 O 0.59153 0.11291 0.14133 0.0
Mg143 Mg 0.57504 0.07281 0.15636 0.0
C144 C 0.60491 0.12289 0.11495 0.0
C145 C 0.64399 0.05544 -0.00321 0.0
O146 O 0.6362 0.03122 0.00348 0.0
O147 O 0.63746 0.05207 0.10787 0.0
O148 O 0.61538 0.05674 0.16159 0.0
O149 O 0.57145 0.07695 0.03701 0.0
O150 O 0.57406 0.06226 0.09582 0.0
C151 C 0.63556 0.05045 0.14397 0.0
C152 C 0.56034 0.07159 0.06876 0.0
O153 O 0.63698 0.07399 0.01888 0.0
Mg154 Mg 0.63381 0.88885 0.82705 0.0
O155 O 0.6357 0.84314 0.82893 0.0
O156 O 0.60662 0.82821 0.78775 0.0
Mg157 Mg 0.58575 0.86282 0.76109 0.0
C158 C 0.62419 0.82419 0.81197 0.0
C159 C 0.66854 0.90099 0.8944 0.0
O160 O 0.64633 0.90916 0.90591 0.0
O161 O 0.65383 0.88972 0.76896 0.0
O162 O 0.62249 0.87439 0.73185 0.0
O163 O 0.60359 0.88851 0.87162 0.0
O164 O 0.59606 0.88755 0.80998 0.0
C165 C 0.64492 0.88318 0.73635 0.0
C166 C 0.58743 0.88706 0.84405 0.0
O167 O 0.67062 0.89149 0.86099 0.0
Mg168 Mg 0.8765 0.06535 0.9102 0.0
O169 O 0.87384 0.10883 0.89093 0.0
O170 O 0.89601 0.1127 0.83737 0.0
Mg171 Mg 0.91123 0.07232 0.82071 0.0
C172 C 0.88248 0.12273 0.86365 0.0
C173 C 0.83892 0.05492 0.97686 0.0
O174 O 0.84612 0.03055 0.96967 0.0
O175 O 0.84722 0.05277 0.86548 0.0
O176 O 0.87057 0.05752 0.81309 0.0
O177 O 0.91275 0.07446 0.94012 0.0
O178 O 0.9106 0.06067 0.88059 0.0
C179 C 0.84984 0.05156 0.82942 0.0
C180 C 0.92416 0.06925 0.90849 0.0
O181 O 0.84679 0.07343 0.95561 0.0
Mg182 Mg 0.63486 0.09665 0.64416 0.0
O183 O 0.63492 0.14235 0.644 0.0
O184 O 0.60536 0.1554 0.68518 0.0
Mg185 Mg 0.58605 0.11933 0.71047 0.0
C186 C 0.62275 0.16054 0.6613 0.0
C187 C 0.67667 0.07561 0.59202 0.0
O188 O 0.66242 0.05459 0.59682 0.0
O189 O 0.65515 0.09578 0.7023 0.0
O190 O 0.62331 0.10902 0.7396 0.0
O191 O 0.60472 0.09628 0.59923 0.0
O192 O 0.59719 0.09588 0.66085 0.0
C193 C 0.64605 0.10139 0.73501 0.0
C194 C 0.58854 0.09674 0.62669 0.0
O195 O 0.67129 0.09672 0.61002 0.0
Mg196 Mg 0.60865 0.92015 0.40605 0.0
O197 O 0.61139 0.87674 0.38605 0.0
O198 O 0.58919 0.87261 0.33219 0.0
Mg199 Mg 0.57372 0.91293 0.3162 0.0
C200 C 0.60287 0.86275 0.35845 0.0
C201 C 0.64493 0.93013 0.47496 0.0
O202 O 0.63632 0.95421 0.46984 0.0
O203 O 0.63782 0.93256 0.36174 0.0
O204 O 0.61445 0.92756 0.309 0.0
O205 O 0.5726 0.91101 0.43572 0.0
O206 O 0.57438 0.92462 0.37632 0.0
C207 C 0.6352 0.93354 0.32565 0.0
C208 C 0.56099 0.91607 0.40414 0.0
O209 O 0.63848 0.91205 0.45157 0.0
Mg210 Mg 0.84864 0.88987 0.14484 0.0
O211 O 0.84772 0.84407 0.1435 0.0
O212 O 0.87781 0.83059 0.18377 0.0
Mg213 Mg 0.89812 0.8661 0.20962 0.0
C214 C 0.85998 0.82571 0.16023 0.0
C215 C 0.81302 0.90222 0.07935 0.0
O216 O 0.83475 0.91225 0.06874 0.0
O217 O 0.82924 0.89069 0.20337 0.0
O218 O 0.86137 0.87657 0.23961 0.0
O219 O 0.87829 0.8897 0.09942 0.0
O220 O 0.88652 0.88982 0.1609 0.0
C221 C 0.83867 0.88457 0.23569 0.0
C222 C 0.89475 0.88895 0.12663 0.0
O223 O 0.81151 0.89128 0.11175 0.0
Mg224 Mg 0.62657 0.57485 0.90337 0.0
O225 O 0.63447 0.61832 0.88487 0.0
O226 O 0.61663 0.62125 0.8272 0.0
Mg227 Mg 0.59701 0.58322 0.80978 0.0
C228 C 0.62924 0.63133 0.8547 0.0
C229 C 0.64742 0.55996 0.97854 0.0
O230 O 0.63003 0.54247 0.96921 0.0
O231 O 0.65673 0.55877 0.86208 0.0
O232 O 0.63583 0.56377 0.80714 0.0
O233 O 0.58978 0.58693 0.92935 0.0
O234 O 0.59397 0.57355 0.86999 0.0
C235 C 0.65526 0.55644 0.82588 0.0
C236 C 0.57958 0.58251 0.89645 0.0
O237 O 0.65325 0.57752 0.95429 0.0
Mg238 Mg 0.6609 0.36332 0.14892 0.0
O239 O 0.61951 0.37176 0.1297 0.0
O240 O 0.61504 0.34991 0.07457 0.0
Mg241 Mg 0.65123 0.32925 0.05773 0.0
C242 C 0.60617 0.36461 0.10091 0.0
C243 C 0.67592 0.38647 0.22281 0.0
O244 O 0.69165 0.36725 0.21445 0.0
O245 O 0.67608 0.39328 0.10591 0.0
O246 O 0.6699 0.37003 0.05231 0.0
O247 O 0.64851 0.32644 0.17752 0.0
O248 O 0.66116 0.3279 0.11791 0.0
C249 C 0.67748 0.39083 0.06978 0.0
C250 C 0.65196 0.31435 0.14547 0.0
O251 O 0.6594 0.39285 0.19811 0.0
Mg252 Mg 0.85604 0.41054 0.39999 0.0
O253 O 0.85089 0.36702 0.37894 0.0
O254 O 0.86988 0.36594 0.32226 0.0
Mg255 Mg 0.88646 0.40572 0.30678 0.0
C256 C 0.85764 0.35462 0.34879 0.0
C257 C 0.83398 0.4221 0.47562 0.0
O258 O 0.85026 0.44098 0.46805 0.0
O259 O 0.82518 0.4256 0.35895 0.0
O260 O 0.84652 0.42257 0.30433 0.0
O261 O 0.89324 0.39995 0.42605 0.0
O262 O 0.88866 0.41458 0.36751 0.0
C263 C 0.82665 0.4285 0.3229 0.0
C264 C 0.9033 0.4055 0.39362 0.0
O265 O 0.82936 0.40487 0.44996 0.0
Mg266 Mg 0.82272 0.62425 0.65282 0.0
O267 O 0.86349 0.61399 0.63309 0.0
O268 O 0.86777 0.63447 0.57722 0.0
Mg269 Mg 0.83211 0.6564 0.56086 0.0
C270 C 0.87656 0.62001 0.60378 0.0
C271 C 0.80738 0.60183 0.72658 0.0
O272 O 0.79215 0.62155 0.71856 0.0
O273 O 0.80567 0.59437 0.61064 0.0
O274 O 0.81166 0.61646 0.55647 0.0
O275 O 0.83709 0.66094 0.68062 0.0
O276 O 0.82339 0.65915 0.62132 0.0
C277 C 0.8036 0.5963 0.57454 0.0
C278 C 0.83368 0.67265 0.6484 0.0
O279 O 0.82371 0.59509 0.70194 0.0
Mg280 Mg 0.62706 0.41078 0.57309 0.0
O281 O 0.63436 0.36732 0.5922 0.0
O282 O 0.61643 0.3649 0.64962 0.0
Mg283 Mg 0.59766 0.40331 0.66662 0.0
C284 C 0.62884 0.3545 0.62238 0.0
C285 C 0.64664 0.42408 0.49702 0.0
O286 O 0.62861 0.4409 0.50552 0.0
O287 O 0.65759 0.42684 0.61433 0.0
O288 O 0.63675 0.42226 0.66914 0.0
O289 O 0.5901 0.3988 0.54706 0.0
O290 O 0.59458 0.41258 0.60627 0.0
C291 C 0.65623 0.42932 0.6505 0.0
C292 C 0.58006 0.40343 0.57987 0.0
O293 O 0.65342 0.40751 0.5222 0.0
Mg294 Mg 0.82254 0.36106 0.82494 0.0
O295 O 0.86299 0.37333 0.84468 0.0
O296 O 0.86793 0.35426 0.9015 0.0
Mg297 Mg 0.83293 0.33147 0.91854 0.0
C298 C 0.87625 0.36847 0.8744 0.0
C299 C 0.80786 0.37967 0.74869 0.0
O300 O 0.79444 0.35855 0.75675 0.0
O301 O 0.8047 0.39134 0.86538 0.0
O302 O 0.81152 0.37087 0.92073 0.0
O303 O 0.83796 0.32434 0.79916 0.0
O304 O 0.8242 0.32692 0.85819 0.0
C305 C 0.80288 0.39027 0.90156 0.0
C306 C 0.83484 0.3132 0.83182 0.0
O307 O 0.82268 0.38889 0.77413 0.0
Mg308 Mg 0.85624 0.57453 0.07558 0.0
O309 O 0.84885 0.61819 0.09386 0.0
O310 O 0.86616 0.62157 0.15186 0.0
Mg311 Mg 0.88501 0.58339 0.16974 0.0
C312 C 0.854 0.6315 0.12401 0.0
C313 C 0.83577 0.56056 -0.00079 0.0
O314 O 0.85338 0.54319 0.00735 0.0
O315 O 0.82557 0.55896 0.11623 0.0
O316 O 0.84602 0.56409 0.17162 0.0
O317 O 0.89342 0.58602 0.05036 0.0
O318 O 0.88855 0.57307 0.10959 0.0
C319 C 0.8267 0.55674 0.15243 0.0
C320 C 0.90329 0.58169 0.08343 0.0
O321 O 0.82982 0.57751 0.02451 0.0
Mg322 Mg 0.66049 0.6231 0.32488 0.0
O323 O 0.61937 0.61361 0.34416 0.0
O324 O 0.61506 0.63535 0.39935 0.0
Mg325 Mg 0.65103 0.65678 0.41622 0.0
C326 C 0.60617 0.62051 0.37303 0.0
C327 C 0.67658 0.59984 0.25198 0.0
O328 O 0.69233 0.61896 0.26129 0.0
O329 O 0.67662 0.59349 0.36768 0.0
O330 O 0.67058 0.61649 0.4214 0.0
O331 O 0.64707 0.65968 0.29646 0.0
O332 O 0.66029 0.65844 0.35599 0.0
C333 C 0.67839 0.59592 0.40379 0.0
C334 C 0.65051 0.67177 0.32858 0.0
O335 O 0.65949 0.59359 0.27565 0.0
Mg336 Mg 0.37571 0.41763 0.07002 0.0
O337 O 0.37348 0.37464 0.09121 0.0
O338 O 0.39597 0.37172 0.1449 0.0
Mg339 Mg 0.41087 0.41268 0.15987 0.0
C340 C 0.38228 0.36123 0.11895 0.0
C341 C 0.33841 0.42547 0.00167 0.0
O342 O 0.34577 0.45008 0.00679 0.0
O343 O 0.34646 0.43049 0.11408 0.0
O344 O 0.36998 0.42674 0.16678 0.0
O345 O 0.41176 0.40825 0.04056 0.0
O346 O 0.40997 0.42322 0.09952 0.0
C347 C 0.34914 0.43213 0.15013 0.0
C348 C 0.42335 0.41408 0.07197 0.0
O349 O 0.34596 0.40794 0.02486 0.0
Mg350 Mg 0.34681 0.59626 0.83425 0.0
O351 O 0.34825 0.64201 0.833 0.0
O352 O 0.37888 0.65283 0.79234 0.0
Mg353 Mg 0.39728 0.61564 0.76871 0.0
C354 C 0.36134 0.65927 0.81536 0.0
C355 C 0.30229 0.57579 0.88121 0.0
O356 O 0.31427 0.55394 0.87205 0.0
O357 O 0.32712 0.59505 0.77549 0.0
O358 O 0.35996 0.60637 0.73895 0.0
O359 O 0.37659 0.5957 0.87996 0.0
O360 O 0.38456 0.59388 0.81855 0.0
C361 C 0.33686 0.59976 0.74297 0.0
C362 C 0.39299 0.595 0.85282 0.0
O363 O 0.31006 0.59761 0.86775 0.0
Mg364 Mg 0.10868 0.57375 0.57504 0.0
O365 O 0.11399 0.61606 0.59899 0.0
O366 O 0.09318 0.61876 0.65404 0.0
Mg367 Mg 0.07595 0.57856 0.66663 0.0
C368 C 0.1068 0.62913 0.62825 0.0
C369 C 0.14447 0.56228 0.50728 0.0
O370 O 0.13685 0.5383 0.51586 0.0
O371 O 0.13811 0.558 0.61695 0.0
O372 O 0.116 0.56149 0.67084 0.0
O373 O 0.07251 0.58551 0.54742 0.0
O374 O 0.0749 0.56963 0.60559 0.0
C375 C 0.1361 0.55533 0.65291 0.0
C376 C 0.06127 0.57946 0.57879 0.0
O377 O 0.13771 0.58148 0.52841 0.0
Mg378 Mg 0.13498 0.38768 0.32866 0.0
O379 O 0.13498 0.34185 0.32837 0.0
O380 O 0.10479 0.32938 0.28734 0.0
Mg381 Mg 0.0852 0.36552 0.26273 0.0
C382 C 0.12243 0.32389 0.31082 0.0
C383 C 0.17028 0.39894 0.39504 0.0
O384 O 0.14856 0.4091 0.4054 0.0
O385 O 0.15457 0.38877 0.27021 0.0
O386 O 0.12221 0.37578 0.2332 0.0
O387 O 0.1052 0.38777 0.37387 0.0
O388 O 0.09707 0.38858 0.31241 0.0
C389 C 0.14506 0.38331 0.23758 0.0
C390 C 0.08875 0.38775 0.34663 0.0
O391 O 0.172 0.38824 0.36232 0.0
Mg392 Mg 0.37644 0.56558 0.41221 0.0
O393 O 0.37285 0.6081 0.38915 0.0
O394 O 0.39459 0.61004 0.33491 0.0
Mg395 Mg 0.41034 0.56931 0.32159 0.0
C396 C 0.38105 0.62093 0.36049 0.0
C397 C 0.33949 0.5565 0.47978 0.0
O398 O 0.34706 0.53212 0.47356 0.0
O399 O 0.347 0.55071 0.36927 0.0
O400 O 0.36973 0.55386 0.316 0.0
O401 O 0.41256 0.57682 0.44074 0.0
O402 O 0.41051 0.56052 0.3825 0.0
C403 C 0.34925 0.54826 0.33328 0.0
C404 C 0.42395 0.57072 0.40943 0.0
O405 O 0.34689 0.57466 0.45754 0.0
Mg406 Mg 0.13594 0.59033 0.14902 0.0
O407 O 0.13508 0.63596 0.14869 0.0
O408 O 0.10461 0.6484 0.18876 0.0
Mg409 Mg 0.08558 0.61199 0.21348 0.0
C410 C 0.1223 0.65388 0.16556 0.0
C411 C 0.17574 0.57182 0.09263 0.0
O412 O 0.15917 0.55244 0.09271 0.0
O413 O 0.15546 0.59046 0.20799 0.0
O414 O 0.12267 0.60306 0.24389 0.0
O415 O 0.10636 0.5892 0.1031 0.0
O416 O 0.09805 0.58877 0.16446 0.0
C417 C 0.14568 0.59609 0.24025 0.0
C418 C 0.08982 0.58941 0.13005 0.0
O419 O 0.1727 0.5911 0.11553 0.0
Mg420 Mg 0.10728 0.41882 0.90743 0.0
O421 O 0.11008 0.37549 0.88695 0.0
O422 O 0.08822 0.37181 0.83272 0.0
Mg423 Mg 0.07264 0.41222 0.81725 0.0
C424 C 0.10173 0.36173 0.859 0.0
C425 C 0.14448 0.42903 0.97526 0.0
O426 O 0.13711 0.45339 0.96866 0.0
O427 O 0.13653 0.43157 0.86349 0.0
O428 O 0.11328 0.42732 0.81052 0.0
O429 O 0.07118 0.40966 0.93685 0.0
O430 O 0.07307 0.42348 0.87757 0.0
C431 C 0.13398 0.43315 0.82744 0.0
C432 C 0.05961 0.41496 0.90532 0.0
O433 O 0.13696 0.41063 0.95314 0.0
Mg434 Mg 0.34864 0.39086 0.6493 0.0
O435 O 0.34746 0.3455 0.64209 0.0
O436 O 0.37953 0.32854 0.67561 0.0
Mg437 Mg 0.39804 0.36186 0.7097 0.0
C438 C 0.36082 0.32594 0.65296 0.0
C439 C 0.31345 0.40259 0.58239 0.0
O440 O 0.33558 0.4109 0.57072 0.0
O441 O 0.32927 0.38805 0.70744 0.0
O442 O 0.36096 0.37019 0.74094 0.0
O443 O 0.3786 0.39336 0.60441 0.0
O444 O 0.38671 0.38982 0.66563 0.0
C445 C 0.33846 0.37912 0.73852 0.0
C446 C 0.39502 0.39102 0.63145 0.0
O447 O 0.31151 0.39351 0.61593 0.0
H448 H 0.17961 0.00922 0.34125 0.0
H449 H 0.17933 0.96993 0.12477 0.0
H450 H 0.17095 0.06346 0.24803 0.0
H451 H 0.17702 0.91499 0.2179 0.0
H452 H 0.19421 0.00439 0.16874 0.0
H453 H 0.19634 0.97614 0.29687 0.0
C454 C 0.18226 0.01458 0.31176 0.0
C455 C 0.17338 0.03885 0.29807 0.0
C456 C 0.19132 0.98455 0.17936 0.0
C457 C 0.19186 0.00102 0.24706 0.0
C458 C 0.18312 0.96477 0.15409 0.0
C459 C 0.17646 0.93978 0.16795 0.0
C460 C 0.19267 0.97917 0.21857 0.0
C461 C 0.18155 0.93422 0.20628 0.0
C462 C 0.19158 -0.00441 0.2863 0.0
C463 C 0.17715 0.04473 0.25954 0.0
N464 N 0.18873 0.95391 0.23046 0.0
N465 N 0.18554 0.02575 0.23523 0.0
H466 H 0.22057 0.92163 0.58801 0.0
H467 H 0.26061 0.91177 0.37254 0.0
H468 H 0.17275 0.8965 0.49502 0.0
H469 H 0.31129 0.90935 0.46868 0.0
H470 H 0.2272 0.92813 0.41444 0.0
H471 H 0.25109 0.93867 0.54196 0.0
C472 C 0.21603 0.92064 0.55797 0.0
C473 C 0.1945 0.90703 0.54515 0.0
C474 C 0.24591 0.92496 0.42607 0.0
C475 C 0.22922 0.92621 0.49262 0.0
C476 C 0.26503 0.91581 0.40212 0.0
C477 C 0.28846 0.90856 0.41752 0.0
C478 C 0.25045 0.92685 0.46542 0.0
C479 C 0.29322 0.91416 0.45598 0.0
C480 C 0.2335 0.93025 0.53172 0.0
C481 C 0.18948 0.90633 0.50596 0.0
N482 N 0.2742 0.92242 0.47885 0.0
N483 N 0.20697 0.91526 0.48102 0.0
H484 H 0.3018 0.01451 0.62787 0.0
H485 H 0.30224 0.97456 0.84349 0.0
H486 H 0.30827 0.06872 0.72249 0.0
H487 H 0.3103 0.92077 0.74884 0.0
H488 H 0.28571 0.00804 0.7999 0.0
H489 H 0.28608 0.98061 0.67124 0.0
C490 C 0.2989 0.01966 0.65747 0.0
C491 C 0.30702 0.04419 0.67185 0.0
C492 C 0.29026 0.98859 0.78885 0.0
C493 C 0.28963 0.00542 0.72168 0.0
C494 C 0.29946 0.96938 0.81383 0.0
C495 C 0.30818 0.94515 0.79951 0.0
C496 C 0.28992 0.9834 0.74948 0.0
C497 C 0.30425 0.93949 0.76082 0.0
C498 C 0.29014 0.00021 0.68233 0.0
C499 C 0.3028 0.04978 0.71046 0.0
N500 N 0.29597 0.95867 0.73699 0.0
N501 N 0.295 0.03035 0.73421 0.0
H502 H 0.16977 0.07758 0.97231 0.0
H503 H 0.3133 0.07577 -0.0006 0.0
H504 H 0.22227 0.06975 0.87973 0.0
H505 H 0.26063 0.06962 0.09193 0.0
H506 H 0.28115 0.05863 0.95597 0.0
H507 H 0.20147 0.05984 0.01561 0.0
C508 C 0.18776 0.07125 0.96091 0.0
C509 C 0.19371 0.07574 0.92267 0.0
C510 C 0.27673 0.06018 0.98593 0.0
C511 C 0.23045 0.05639 0.97224 0.0
C512 C 0.29517 0.0699 0.01076 0.0
C513 C 0.28934 0.0747 0.04903 0.0
C514 C 0.25208 0.05611 -0.00068 0.0
C515 C 0.26574 0.06651 0.06247 0.0
C516 C 0.20593 0.06118 0.98567 0.0
C517 C 0.21709 0.06693 0.90917 0.0
N518 N 0.24766 0.0584 0.03739 0.0
N519 N 0.23494 0.05844 0.93419 0.0
H520 H 0.82617 0.97862 0.62642 0.0
H521 H 0.82206 0.00757 0.84586 0.0
H522 H 0.83937 0.92233 0.71588 0.0
H523 H 0.83496 0.06508 0.75804 0.0
H524 H 0.80569 0.97676 0.79769 0.0
H525 H 0.80715 0.00875 0.67301 0.0
C526 C 0.82404 0.97213 0.65554 0.0
C527 C 0.83492 0.94836 0.6677 0.0
C528 C 0.81113 -0.00347 0.78919 0.0
C529 C 0.81353 0.9826 0.72087 0.0
C530 C 0.82029 0.01419 0.81673 0.0
C531 C 0.83051 0.03853 0.80557 0.0
C532 C 0.81233 0.00343 0.75056 0.0
C533 C 0.82778 0.04616 0.76751 0.0
C534 C 0.81331 0.98937 0.68214 0.0
C535 C 0.83169 0.94083 0.70567 0.0
N536 N 0.81953 0.02841 0.74114 0.0
N537 N 0.82177 0.95815 0.73113 0.0
H538 H 0.7782 0.12002 0.4109 0.0
H539 H 0.69607 0.03297 0.55405 0.0
H540 H 0.78468 0.03515 0.41985 0.0
H541 H 0.70236 0.11797 0.56264 0.0
H542 H 0.72648 0.03339 0.50206 0.0
H543 H 0.7476 0.11967 0.46287 0.0
C544 C 0.77303 0.1013 0.42354 0.0
C545 C 0.78405 0.07758 0.41104 0.0
C546 C 0.72131 0.05194 0.51544 0.0
C547 C 0.7492 0.07707 0.47062 0.0
C548 C 0.70397 0.05172 0.54517 0.0
C549 C 0.69666 0.07547 0.56275 0.0
C550 C 0.73125 0.07612 0.50285 0.0
C551 C 0.70752 0.09917 0.55001 0.0
C552 C 0.7557 0.10114 0.45338 0.0
C553 C 0.77673 0.05392 0.42862 0.0
N554 N 0.72416 0.09891 0.52067 0.0
N555 N 0.75977 0.05427 0.45748 0.0
H556 H 0.65042 0.91843 0.25512 0.0
H557 H 0.65376 0.06465 0.21348 0.0
H558 H 0.66333 0.97753 0.3418 0.0
H559 H 0.66072 0.00503 0.12621 0.0
H560 H 0.67183 0.03409 0.25945 0.0
H561 H 0.66866 0.94797 0.20809 0.0
C562 C 0.65801 0.93732 0.26445 0.0
C563 C 0.65479 0.94592 0.30206 0.0
C564 C 0.67029 0.02784 0.23003 0.0
C565 C 0.67463 0.98033 0.24822 0.0
C566 C 0.66004 0.04539 0.20375 0.0
C567 C 0.65521 0.03703 0.16636 0.0
C568 C 0.67476 0.00149 0.21905 0.0
C569 C 0.66385 0.01205 0.15499 0.0
C570 C 0.66838 0.95428 0.23756 0.0
C571 C 0.66516 0.97036 0.31288 0.0
N572 N 0.67242 -0.00523 0.18156 0.0
N573 N 0.67384 0.98714 0.28579 0.0
H574 H 0.71895 0.89569 0.87804 0.0
H575 H 0.76304 0.89285 0.09497 0.0
H576 H 0.66745 0.90801 0.97124 0.0
H577 H 0.81361 0.91245 0.00337 0.0
H578 H 0.72772 0.89312 0.04965 0.0
H579 H 0.75425 0.89658 0.92341 0.0
C580 C 0.71508 0.89857 0.90799 0.0
C581 C 0.69026 0.90181 0.92089 0.0
C582 C 0.74657 0.89743 0.0396 0.0
C583 C 0.73037 0.90255 0.97279 0.0
C584 C 0.7667 0.8972 0.06538 0.0
C585 C 0.79127 0.90265 0.05292 0.0
C586 C 0.75114 0.90271 0.00105 0.0
C587 C 0.79496 0.90823 0.01425 0.0
C588 C 0.7352 0.89916 0.93381 0.0
C589 C 0.6863 0.90554 0.96002 0.0
N590 N 0.77514 0.90793 -0.01036 0.0
N591 N 0.70613 0.90563 0.98462 0.0
H592 H 0.67601 0.41759 0.7197 0.0
H593 H 0.67464 0.56826 0.75669 0.0
H594 H 0.6784 0.47624 0.63143 0.0
H595 H 0.67775 0.5097 0.84508 0.0
H596 H 0.69149 0.53598 0.71175 0.0
H597 H 0.69222 0.45022 0.765 0.0
C598 C 0.68096 0.43712 0.70956 0.0
C599 C 0.67542 0.44444 0.67202 0.0
C600 C 0.68931 0.5303 0.74119 0.0
C601 C 0.69291 0.48226 0.72401 0.0
C602 C 0.67983 0.54882 0.76694 0.0
C603 C 0.67436 0.54142 0.80439 0.0
C604 C 0.69263 0.50397 0.75278 0.0
C605 C 0.68152 0.51611 0.81633 0.0
C606 C 0.69005 0.45585 0.73551 0.0
C607 C 0.68224 0.46989 0.66023 0.0
N608 N 0.68955 0.498 0.79029 0.0
N609 N 0.68988 0.48817 0.68644 0.0
H610 H 0.81123 0.41067 0.97219 0.0
H611 H 0.66777 0.40678 -0.00254 0.0
H612 H 0.75842 0.41271 0.87874 0.0
H613 H 0.72028 0.41787 0.09013 0.0
H614 H 0.69912 0.42419 0.95364 0.0
H615 H 0.77884 0.42853 0.01407 0.0
C616 C 0.79299 0.41574 0.96025 0.0
C617 C 0.78722 0.40959 0.92227 0.0
C618 C 0.70363 0.42366 0.98369 0.0
C619 C 0.74972 0.42904 0.97027 0.0
C620 C 0.68566 0.41377 0.00874 0.0
C621 C 0.69176 0.41021 0.04721 0.0
C622 C 0.72811 0.4292 -0.0029 0.0
C623 C 0.71499 0.41992 0.06052 0.0
C624 C 0.77443 0.42589 0.98419 0.0
C625 C 0.76349 0.41684 0.90803 0.0
N626 N 0.73267 0.42818 0.03528 0.0
N627 N 0.7453 0.4254 0.93234 0.0
H628 H 0.80761 0.41698 0.25292 0.0
H629 H 0.80725 0.56766 0.22211 0.0
H630 H 0.80303 0.47432 0.34365 0.0
H631 H 0.80402 0.51028 0.1312 0.0
H632 H 0.79045 0.53472 0.26567 0.0
H633 H 0.79095 0.44969 0.20875 0.0
C634 C 0.80207 0.4362 0.26382 0.0
C635 C 0.80714 0.44318 0.30175 0.0
C636 C 0.79258 0.52944 0.23597 0.0
C637 C 0.78916 0.48115 0.25109 0.0
C638 C 0.80204 0.54835 0.21102 0.0
C639 C 0.8075 0.54146 0.17325 0.0
C640 C 0.78929 0.50325 0.22326 0.0
C641 C 0.80029 0.5163 0.16023 0.0
C642 C 0.79272 0.45499 0.23852 0.0
C643 C 0.79958 0.46824 0.31452 0.0
N644 N 0.7923 0.4978 0.18549 0.0
N645 N 0.79173 0.48664 0.28896 0.0
H646 H 0.72039 0.56833 0.38189 0.0
H647 H 0.76087 0.57037 0.59732 0.0
H648 H 0.67072 0.58092 0.47702 0.0
H649 H 0.81076 0.57953 0.50177 0.0
H650 H 0.72835 0.55291 0.55419 0.0
H651 H 0.75241 0.55106 0.4256 0.0
C652 C 0.71582 0.56643 0.41174 0.0
C653 C 0.69324 0.57678 0.42613 0.0
C654 C 0.74673 0.55787 0.54287 0.0
C655 C 0.72975 0.55752 0.47614 0.0
C656 C 0.76535 0.56767 0.56753 0.0
C657 C 0.7882 0.57709 0.5528 0.0
C658 C 0.75114 0.55761 0.50345 0.0
C659 C 0.79308 0.57309 0.51402 0.0
C660 C 0.73417 0.55674 0.43673 0.0
C661 C 0.68823 0.57377 0.46501 0.0
N662 N 0.77449 0.56421 0.49051 0.0
N663 N 0.70657 0.56499 0.48883 0.0
H664 H 0.31989 0.4749 0.13286 0.0
H665 H 0.3223 0.50413 0.35191 0.0
H666 H 0.33475 0.41839 0.22144 0.0
H667 H 0.33253 0.56115 0.26267 0.0
H668 H 0.30416 0.4732 0.30531 0.0
H669 H 0.30177 0.5049 0.18036 0.0
C670 C 0.31825 0.46829 0.162 0.0
C671 C 0.32945 0.44456 0.17361 0.0
C672 C 0.30941 0.49289 0.29622 0.0
C673 C 0.30924 0.47873 0.22785 0.0
C674 C 0.31961 0.5106 0.32287 0.0
C675 C 0.3295 0.53485 0.31073 0.0
C676 C 0.30925 0.49965 0.25748 0.0
C677 C 0.32561 0.54231 0.27284 0.0
C678 C 0.30806 0.48549 0.18914 0.0
C679 C 0.32683 0.43689 0.21164 0.0
N680 N 0.31632 0.52453 0.24731 0.0
N681 N 0.31754 0.45421 0.23763 0.0
H682 H 0.20655 0.6133 0.073 0.0
H683 H 0.27797 0.5325 0.90964 0.0
H684 H 0.19004 0.53181 0.04488 0.0
H685 H 0.28141 0.61757 0.92003 0.0
H686 H 0.24774 0.53137 0.96183 0.0
H687 H 0.23682 0.61457 0.02059 0.0
C688 C 0.20945 0.59561 0.05606 0.0
C689 C 0.19571 0.57242 0.06333 0.0
C690 C 0.25499 0.55031 0.95257 0.0
C691 C 0.23017 0.57381 0.00322 0.0
C692 C 0.27224 0.55098 0.92271 0.0
C693 C 0.28225 0.57518 0.91041 0.0
C694 C 0.24787 0.57398 0.97061 0.0
C695 C 0.27411 0.59848 0.92847 0.0
C696 C 0.22659 0.59642 0.02598 0.0
C697 C 0.20015 0.55015 0.04028 0.0
N698 N 0.25753 0.59729 0.95785 0.0
N699 N 0.21698 0.55139 0.01131 0.0
H700 H 0.16403 0.47504 0.84748 0.0
H701 H 0.16189 0.51115 0.63087 0.0
H702 H 0.14745 0.42168 0.75462 0.0
H703 H 0.15311 0.56563 0.72454 0.0
H704 H 0.17912 0.47839 0.67497 0.0
H705 H 0.18248 0.50617 0.80222 0.0
C706 C 0.16531 0.46935 0.81781 0.0
C707 C 0.15354 0.4462 0.80446 0.0
C708 C 0.17438 0.4979 0.68561 0.0
C709 C 0.1742 0.48168 0.75277 0.0
C710 C 0.16471 0.51666 0.6604 0.0
C711 C 0.15545 0.54075 0.67444 0.0
C712 C 0.17468 0.50347 0.72483 0.0
C713 C 0.15951 0.54695 0.71288 0.0
C714 C 0.1757 0.48719 0.79195 0.0
C715 C 0.15576 0.43972 0.76581 0.0
N716 N 0.16829 0.52818 0.73697 0.0
N717 N 0.16529 0.45766 0.74113 0.0
H718 H 0.22047 0.39002 0.38029 0.0
H719 H 0.26306 0.39584 0.59821 0.0
H720 H 0.16888 0.4085 0.47128 0.0
H721 H 0.31477 0.4085 0.50551 0.0
H722 H 0.22803 0.3948 0.55232 0.0
H723 H 0.25542 0.39096 0.42631 0.0
C724 C 0.2165 0.39422 0.4099 0.0
C725 C 0.19177 0.39927 0.42197 0.0
C726 C 0.24707 0.39787 0.54215 0.0
C727 C 0.23146 0.40011 0.47462 0.0
C728 C 0.26703 0.3984 0.56828 0.0
C729 C 0.29183 0.40234 0.55567 0.0
C730 C 0.25205 0.40084 0.50318 0.0
C731 C 0.29593 0.40556 0.51653 0.0
C732 C 0.23642 0.39484 0.43608 0.0
C733 C 0.18768 0.40464 0.46068 0.0
N734 N 0.27627 0.40458 0.49166 0.0
N735 N 0.20729 0.40479 0.48566 0.0
H736 H 0.13664 0.16669 0.40644 0.0
H737 H 0.11665 0.28373 0.26025 0.0
H738 H 0.13466 0.15706 0.28449 0.0
H739 H 0.14183 0.29974 0.37492 0.0
H740 H 0.12361 0.23685 0.27041 0.0
H741 H 0.14003 0.21496 0.39777 0.0
C742 C 0.13744 0.17464 0.37794 0.0
C743 C 0.13491 0.15787 0.34614 0.0
C744 C 0.12786 0.2505 0.2934 0.0
C745 C 0.13849 0.21271 0.3361 0.0
C746 C 0.12374 0.27734 0.28764 0.0
C747 C 0.12849 0.29565 0.31686 0.0
C748 C 0.13638 0.24159 0.32896 0.0
C749 C 0.13794 0.28621 0.35164 0.0
C750 C 0.13927 0.20215 0.37302 0.0
C751 C 0.13603 0.16921 0.30986 0.0
N752 N 0.14126 0.25971 0.35698 0.0
N753 N 0.13743 0.19581 0.3059 0.0
H754 H 0.95753 0.88385 0.51834 0.0
H755 H 0.08151 0.89625 0.64887 0.0
H756 H 0.95903 0.92568 0.62564 0.0
H757 H 0.0767 0.8481 0.54724 0.0
H758 H 0.03728 0.90883 0.63991 0.0
H759 H 0.00185 0.87222 0.52741 0.0
C760 C 0.96718 0.89061 0.54382 0.0
C761 C 0.95449 0.90565 0.57136 0.0
C762 C 0.04594 0.89551 0.61961 0.0
C763 C 0.00536 0.89242 0.58195 0.0
C764 C 0.07122 0.88833 0.62468 0.0
C765 C 0.08293 0.87104 0.59881 0.0
C766 C 0.03227 0.88542 0.58838 0.0
C767 C 0.06856 0.86143 0.568 0.0
C768 C -0.00749 0.88392 0.54903 0.0
C769 C 0.968 0.91386 0.60382 0.0
N770 N 0.04407 0.86876 0.56367 0.0
N771 N -0.0073 0.90716 0.60821 0.0
H772 H 0.34425 0.81844 0.90604 0.0
H773 H 0.37029 0.6986 0.76511 0.0
H774 H 0.35118 0.82573 0.78432 0.0
H775 H 0.34008 0.68486 0.87703 0.0
H776 H 0.36353 0.74571 0.77366 0.0
H777 H 0.34167 0.77001 0.89824 0.0
C778 C 0.34474 0.80994 0.87772 0.0
C779 C 0.34838 0.82613 0.84583 0.0
C780 C 0.35817 0.7325 0.79638 0.0
C781 C 0.34574 0.77108 0.83684 0.0
C782 C 0.36219 0.70553 0.79158 0.0
C783 C 0.35591 0.68777 0.8205 0.0
C784 C 0.34815 0.7421 0.83068 0.0
C785 C 0.34518 0.69793 0.85402 0.0
C786 C 0.34336 0.78235 0.87331 0.0
C787 C 0.3489 0.81407 0.80981 0.0
N788 N 0.34191 0.72455 0.85844 0.0
N789 N 0.34791 0.78739 0.80639 0.0
H790 H 0.40688 0.12304 0.03655 0.0
H791 H 0.53095 0.06141 0.13133 0.0
H792 H 0.40822 0.09386 0.15173 0.0
H793 H 0.52774 0.09485 0.01877 0.0
H794 H 0.48609 0.07155 0.13948 0.0
H795 H 0.45082 0.1108 0.02959 0.0
C796 C 0.41639 0.114 0.0605 0.0
C797 C 0.40373 0.10965 0.09493 0.0
C798 C 0.49524 0.07667 0.11304 0.0
C799 C 0.4546 0.09553 0.08699 0.0
C800 C 0.52089 0.07098 0.10839 0.0
C801 C 0.53322 0.07747 0.07438 0.0
C802 C 0.48181 0.08882 0.08341 0.0
C803 C 0.5191 0.08954 0.0455 0.0
C804 C 0.44161 0.107 0.05643 0.0
C805 C 0.41718 0.09762 0.12468 0.0
N806 N 0.49422 0.09481 0.0507 0.0
N807 N 0.44196 0.09106 0.12009 0.0
H808 H 0.1158 0.69459 0.21496 0.0
H809 H 0.13862 0.80967 0.06713 0.0
H810 H 0.14247 0.67727 0.10181 0.0
H811 H 0.13622 0.82083 0.18881 0.0
H812 H 0.1414 0.76154 0.07708 0.0
H813 H 0.1234 0.74133 0.20415 0.0
C814 C 0.12331 0.70067 0.18776 0.0
C815 C 0.12831 0.68206 0.15914 0.0
C816 C 0.14069 0.77466 0.1015 0.0
C817 C 0.13699 0.73586 0.14632 0.0
C818 C 0.13919 0.80208 0.09585 0.0
C819 C 0.1367 0.81923 0.12718 0.0
C820 C 0.13958 0.76457 0.13865 0.0
C821 C 0.13756 0.80835 0.16377 0.0
C822 C 0.12782 0.7274 0.18164 0.0
C823 C 0.13835 0.69106 0.1246 0.0
N824 N 0.1386 0.78181 0.16843 0.0
N825 N 0.14205 0.71745 0.1189 0.0
H826 H 0.52905 0.89399 0.45581 0.0
H827 H 0.40816 0.89187 0.31755 0.0
H828 H 0.5306 0.92542 0.342 0.0
H829 H 0.40849 0.86467 0.43375 0.0
H830 H 0.4525 0.90539 0.32533 0.0
H831 H 0.48435 0.88398 0.44766 0.0
C832 C 0.52 0.89879 0.42905 0.0
C833 C 0.5337 0.91035 0.39944 0.0
C834 C 0.44275 0.89655 0.34909 0.0
C835 C 0.48228 0.8989 0.3898 0.0
C836 C 0.41743 0.88888 0.34469 0.0
C837 C 0.40453 0.87692 0.37492 0.0
C838 C 0.45517 0.89224 0.38395 0.0
C839 C 0.41758 0.87357 0.40945 0.0
C840 C 0.49441 0.89307 0.42438 0.0
C841 C 0.52087 0.91621 0.36544 0.0
N842 N 0.44207 0.88107 0.4129 0.0
N843 N 0.49589 0.91034 0.36149 0.0
H844 H 0.32251 0.16436 0.66254 0.0
H845 H 0.39262 0.29241 0.61691 0.0
H846 H 0.36383 0.16913 0.55754 0.0
H847 H 0.3161 0.299 0.65689 0.0
H848 H 0.38424 0.24636 0.59822 0.0
H849 H 0.32021 0.21289 0.66458 0.0
C850 C 0.33046 0.17568 0.6394 0.0
C851 C 0.34323 0.16292 0.6097 0.0
C852 C 0.36917 0.25804 0.61048 0.0
C853 C 0.34163 0.21804 0.61271 0.0
C854 C 0.37398 0.28414 0.62132 0.0
C855 C 0.35499 0.29928 0.63839 0.0
C856 C 0.3455 0.24678 0.61806 0.0
C857 C 0.33114 0.28784 0.64364 0.0
C858 C 0.32917 0.20326 0.64059 0.0
C859 C 0.35359 0.17834 0.58066 0.0
N860 N 0.32718 0.26197 0.63428 0.0
N861 N 0.35315 0.2052 0.58338 0.0
H862 H 0.07624 0.09134 0.82069 0.0
H863 H 0.95634 0.09275 0.95941 0.0
H864 H 0.07609 0.12412 0.93438 0.0
H865 H 0.95412 0.05859 0.84669 0.0
H866 H 0.00089 0.10306 0.95058 0.0
H867 H 0.03207 0.07779 0.82939 0.0
C868 C 0.06703 0.09559 0.84746 0.0
C869 C 0.07995 0.10905 0.87672 0.0
C870 C 0.9907 0.09331 0.9277 0.0
C871 C 0.02951 0.09367 0.88683 0.0
C872 C 0.96522 0.08741 0.93277 0.0
C873 C 0.95137 0.07502 0.90363 0.0
C874 C 0.00257 0.08681 0.89321 0.0
C875 C 0.96396 0.06847 0.86976 0.0
C876 C 0.04182 0.08789 0.85239 0.0
C877 C 0.06699 0.114 0.91082 0.0
N878 N 0.98883 0.07452 0.86542 0.0
N879 N 0.0426 0.10639 0.91483 0.0
H880 H 0.86151 0.70349 0.69693 0.0
H881 H 0.85603 0.8321 0.56526 0.0
H882 H 0.82514 0.70455 0.58688 0.0
H883 H 0.89656 0.8282 0.67193 0.0
H884 H 0.84441 0.78551 0.57227 0.0
H885 H 0.87448 0.74933 0.68787 0.0
C886 C 0.85631 0.71334 0.67079 0.0
C887 C 0.84225 0.70015 0.6426 0.0
C888 C 0.85589 0.79488 0.59407 0.0
C889 C 0.85696 0.75276 0.63205 0.0
C890 C 0.86251 0.8215 0.59012 0.0
C891 C 0.87727 0.83418 0.61807 0.0
C892 C 0.86401 0.78086 0.62625 0.0
C893 C 0.88515 0.81935 0.64963 0.0
C894 C 0.86374 0.73954 0.6656 0.0
C895 C 0.83608 0.71391 0.60927 0.0
N896 N 0.87838 0.79356 0.65287 0.0
N897 N 0.84341 0.73951 0.60496 0.0
H898 H 0.91768 0.10317 0.41619 0.0
H899 H 0.0526 0.07233 0.32535 0.0
H900 H 0.93024 0.08553 0.29755 0.0
H901 H 0.04379 0.09871 0.44146 0.0
H902 H 0.0076 0.0781 0.31513 0.0
H903 H 0.96353 0.10236 0.42679 0.0
C904 C 0.93005 0.09928 0.39237 0.0
C905 C 0.92012 0.0945 0.35591 0.0
C906 C 0.01546 0.08285 0.34282 0.0
C907 C 0.97238 0.09345 0.3678 0.0
C908 C 0.04127 0.07964 0.34864 0.0
C909 C 0.05208 0.08517 0.38426 0.0
C910 C 0.00012 0.09139 0.37294 0.0
C911 C 0.03625 0.09424 0.4135 0.0
C912 C 0.95618 0.09887 0.39842 0.0
C913 C 0.93699 0.08957 0.32608 0.0
N914 N 0.011 0.09693 0.40726 0.0
N915 N 0.96221 0.08907 0.33273 0.0
H916 H 0.62751 0.28274 0.19607 0.0
H917 H 0.63099 0.15338 0.06354 0.0
H918 H 0.65986 0.28207 0.08365 0.0
H919 H 0.59511 0.15708 0.17351 0.0
H920 H 0.64235 0.20019 0.07013 0.0
H921 H 0.61609 0.23632 0.18809 0.0
C922 C 0.63215 0.27285 0.16962 0.0
C923 C 0.64455 0.28636 0.14041 0.0
C924 C 0.63197 0.1907 0.09275 0.0
C925 C 0.63158 0.23304 0.13107 0.0
C926 C 0.62549 0.16397 0.08904 0.0
C927 C 0.61203 0.1512 0.11799 0.0
C928 C 0.62501 0.20472 0.12568 0.0
C929 C 0.60543 0.166 0.15037 0.0
C930 C 0.62561 0.2463 0.16506 0.0
C931 C 0.65013 0.27248 0.10679 0.0
N932 N 0.612 0.19188 0.15331 0.0
N933 N 0.64363 0.24655 0.10304 0.0
H934 H 0.54945 0.88867 0.79158 0.0
H935 H 0.43747 0.88438 0.94318 0.0
H936 H 0.56289 0.88176 0.91227 0.0
H937 H 0.42919 0.91045 0.82713 0.0
H938 H 0.48252 0.8768 0.93161 0.0
H939 H 0.50426 0.88934 0.80336 0.0
C940 C 0.54291 0.88697 0.82058 0.0
C941 C 0.56001 0.88521 0.85101 0.0
C942 C 0.47072 0.884 0.90868 0.0
C943 C 0.5081 0.88634 0.86474 0.0
C944 C 0.44503 0.88829 0.91521 0.0
C945 C 0.42946 0.89796 0.88601 0.0
C946 C 0.48081 0.88926 0.87265 0.0
C947 C 0.4403 0.90275 0.85039 0.0
C948 C 0.51705 0.88752 0.8273 0.0
C949 C 0.55035 0.88325 0.888 0.0
N950 N 0.46525 0.89836 0.84476 0.0
N951 N 0.52498 0.88399 0.89389 0.0
H952 H 0.86425 0.28288 0.78555 0.0
H953 H 0.85399 0.15272 0.91313 0.0
H954 H 0.8257 0.28147 0.89337 0.0
H955 H 0.8975 0.15816 0.80985 0.0
H956 H 0.84381 0.19982 0.90763 0.0
H957 H 0.87714 0.23718 0.79524 0.0
C958 C 0.85857 0.27297 0.81138 0.0
C959 C 0.84382 0.28599 0.83865 0.0
C960 C 0.85566 0.19067 0.88631 0.0
C961 C 0.8584 0.23345 0.84989 0.0
C962 C 0.86146 0.16377 0.88939 0.0
C963 C 0.87654 0.15135 0.86181 0.0
C964 C 0.86494 0.20519 0.85539 0.0
C965 C 0.88573 0.16674 0.83174 0.0
C966 C 0.86596 0.24684 0.81693 0.0
C967 C 0.83712 0.27219 0.87165 0.0
N968 N 0.87971 0.19275 0.82931 0.0
N969 N 0.84433 0.24658 0.87626 0.0
H970 H 0.56389 0.10426 0.55869 0.0
H971 H 0.42742 0.08382 0.65049 0.0
H972 H 0.55057 0.09324 0.67856 0.0
H973 H 0.43865 0.09976 0.5313 0.0
H974 H 0.47246 0.09006 0.66148 0.0
H975 H 0.51812 0.10506 0.54799 0.0
C976 C 0.55137 0.10221 0.58276 0.0
C977 C 0.56108 0.09872 0.61957 0.0
C978 C 0.46509 0.09242 0.63294 0.0
C979 C 0.50882 0.09951 0.60758 0.0
C980 C 0.43929 0.08894 0.62666 0.0
C981 C 0.42921 0.09122 0.58991 0.0
C982 C 0.48105 0.098 0.60219 0.0
C983 C 0.44563 0.09775 0.56011 0.0
C984 C 0.52526 0.1027 0.57666 0.0
C985 C 0.544 0.09616 0.64973 0.0
N986 N 0.47078 0.1007 0.56685 0.0
N987 N 0.51876 0.09648 0.64303 0.0
H988 H 0.62351 0.70234 0.27936 0.0
H989 H 0.63081 0.83301 0.40872 0.0
H990 H 0.65943 0.70443 0.38974 0.0
H991 H 0.58963 0.82741 0.30266 0.0
H992 H 0.64176 0.78614 0.4027 0.0
H993 H 0.61124 0.74845 0.28773 0.0
C994 C 0.62876 0.71248 0.30544 0.0
C995 C 0.64246 0.69949 0.33393 0.0
C996 C 0.63027 0.79521 0.38085 0.0
C997 C 0.62854 0.75242 0.3437 0.0
C998 C 0.62402 0.82197 0.38424 0.0
C999 C 0.6093 0.83427 0.35612 0.0
C1000 C 0.62183 0.78067 0.34907 0.0
C1001 C 0.60103 0.8189 0.32506 0.0
C1002 C 0.62172 0.73884 0.31023 0.0
C1003 C 0.64873 0.71363 0.36714 0.0
N1004 N 0.60746 0.79299 0.32236 0.0
N1005 N 0.64179 0.73939 0.37107 0.0
H1006 H 0.91848 0.88003 0.05843 0.0
H1007 H 0.05544 0.90542 0.14662 0.0
H1008 H 0.93325 0.89342 0.17781 0.0
H1009 H 0.04414 0.8774 0.0316 0.0
H1010 H 0.01044 0.90098 0.15794 0.0
H1011 H 0.96415 0.87897 0.04712 0.0
C1012 C 0.9313 0.88255 0.08226 0.0
C1013 C 0.92206 0.88677 0.11912 0.0
C1014 C 0.01777 0.89555 0.13029 0.0
C1015 C 0.97411 0.88574 0.10641 0.0
C1016 C 0.04357 0.898 0.12383 0.0
C1017 C 0.05365 0.89162 0.08818 0.0
C1018 C 0.00178 0.88694 0.10075 0.0
C1019 C 0.03716 0.88249 0.05958 0.0
C1020 C 0.95732 0.8819 0.07581 0.0
C1021 C 0.93948 0.88993 0.14897 0.0
N1022 N 0.01197 0.88058 0.0664 0.0
N1023 N 0.96461 0.8895 0.14191 0.0
H1024 H 0.64218 0.80264 0.87874 0.0
H1025 H 0.64052 0.6567 0.78947 0.0
H1026 H 0.62207 0.78265 0.7631 0.0
H1027 H 0.63516 0.66974 0.91048 0.0
H1028 H 0.6453 0.70404 0.78021 0.0
H1029 H 0.64968 0.75529 0.89132 0.0
C1030 C 0.63969 0.78836 0.85594 0.0
C1031 C 0.63123 0.79647 0.81992 0.0
C1032 C 0.64331 0.69664 0.80889 0.0
C1033 C 0.64007 0.74279 0.8339 0.0
C1034 C 0.64064 0.66957 0.81422 0.0
C1035 C 0.63696 0.65932 0.85075 0.0
C1036 C 0.64206 0.71386 0.84023 0.0
C1037 C 0.63779 0.6769 0.88182 0.0
C1038 C 0.64387 0.76143 0.86317 0.0
C1039 C 0.62823 0.77724 0.7914 0.0
N1040 N 0.63985 0.70349 0.87583 0.0
N1041 N 0.63262 0.7514 0.79901 0.0
H1042 H 0.45404 0.42642 0.13286 0.0
H1043 H 0.57414 0.35492 0.04159 0.0
H1044 H 0.45474 0.38862 0.02254 0.0
H1045 H 0.57705 0.39381 0.15122 0.0
H1046 H 0.53038 0.36781 0.03496 0.0
H1047 H 0.49878 0.41538 0.14079 0.0
C1048 C 0.46355 0.41575 0.11035 0.0
C1049 C 0.45053 0.40825 0.07707 0.0
C1050 C 0.54048 0.37363 0.0605 0.0
C1051 C 0.50174 0.39574 0.0859 0.0
C1052 C 0.56562 0.36623 0.0644 0.0
C1053 C 0.57947 0.37321 0.09714 0.0
C1054 C 0.52876 0.38816 0.08952 0.0
C1055 C 0.56717 0.38797 0.12551 0.0
C1056 C 0.48912 0.40953 0.11487 0.0
C1057 C 0.46393 0.39476 0.04869 0.0
N1058 N 0.54246 0.39492 0.12108 0.0
N1059 N 0.48871 0.3889 0.05381 0.0
H1060 H 0.87615 0.19828 0.26349 0.0
H1061 H 0.84417 0.31776 0.40328 0.0
H1062 H 0.83947 0.18448 0.37094 0.0
H1063 H 0.85988 0.3258 0.28353 0.0
H1064 H 0.842 0.26939 0.39438 0.0
H1065 H 0.87098 0.24552 0.27279 0.0
C1066 C 0.86696 0.2052 0.28913 0.0
C1067 C 0.85835 0.18734 0.31656 0.0
C1068 C 0.84562 0.28189 0.3701 0.0
C1069 C 0.85236 0.24188 0.32755 0.0
C1070 C 0.8468 0.30946 0.37512 0.0
C1071 C 0.85261 0.32588 0.34423 0.0
C1072 C 0.85039 0.27087 0.33403 0.0
C1073 C 0.85581 0.31402 0.30838 0.0
C1074 C 0.86387 0.23227 0.29436 0.0
C1075 C 0.84636 0.19759 0.34905 0.0
N1076 N 0.8549 0.28738 0.30442 0.0
N1077 N 0.84392 0.22427 0.35388 0.0
H1078 H 0.90595 0.62159 0.54056 0.0
H1079 H 0.0317 0.56859 0.64099 0.0
H1080 H 0.90788 0.59808 0.65839 0.0
H1081 H 0.02838 0.60124 0.52795 0.0
H1082 H 0.9863 0.57649 0.64771 0.0
H1083 H 0.95031 0.61065 0.535 0.0
C1084 C 0.91568 0.61404 0.56537 0.0
C1085 C 0.9031 0.61102 0.60016 0.0
C1086 C -0.00444 0.58195 0.6215 0.0
C1087 C 0.95442 0.59846 0.59389 0.0
C1088 C 0.0215 0.57755 0.61766 0.0
C1089 C 0.03395 0.58445 0.58392 0.0
C1090 C 0.98196 0.59317 0.59128 0.0
C1091 C 0.01967 0.59568 0.55452 0.0
C1092 C 0.94113 0.60781 0.56213 0.0
C1093 C 0.9168 0.60079 0.63105 0.0
N1094 N -0.00549 0.59965 0.55889 0.0
N1095 N 0.94181 0.59501 0.62726 0.0
H1096 H 0.6427 0.18316 0.59678 0.0
H1097 H 0.63714 0.32825 0.68808 0.0
H1098 H 0.61673 0.20191 0.70986 0.0
H1099 H 0.63597 0.31644 0.56649 0.0
H1100 H 0.64073 0.28077 0.69677 0.0
H1101 H 0.64983 0.23074 0.58565 0.0
C1102 C 0.63876 0.19722 0.61933 0.0
C1103 C 0.62889 0.18864 0.6542 0.0
C1104 C 0.6399 0.28848 0.66812 0.0
C1105 C 0.63732 0.24262 0.64188 0.0
C1106 C 0.63791 0.31564 0.66311 0.0
C1107 C 0.63577 0.3263 0.6265 0.0
C1108 C 0.63961 0.2716 0.63636 0.0
C1109 C 0.63741 0.30898 0.59521 0.0
C1110 C 0.64275 0.22428 0.6129 0.0
C1111 C 0.62406 0.20763 0.68241 0.0
N1112 N 0.63887 0.28232 0.60083 0.0
N1113 N 0.62834 0.23362 0.67564 0.0
H1114 H 0.02723 0.39468 0.95781 0.0
H1115 H 0.90645 0.39151 0.81961 0.0
H1116 H 0.02938 0.42386 0.84278 0.0
H1117 H 0.906 0.36862 0.93772 0.0
H1118 H 0.95095 0.40468 0.82678 0.0
H1119 H 0.98231 0.38581 0.95023 0.0
C1120 C 0.01827 0.3992 0.93089 0.0
C1121 C 0.03221 0.4098 0.90079 0.0
C1122 C 0.94098 0.39689 0.85109 0.0
C1123 C 0.9805 0.39966 0.89179 0.0
C1124 C 0.91558 0.38945 0.84704 0.0
C1125 C 0.90246 0.37869 0.87798 0.0
C1126 C 0.95325 0.39356 0.88631 0.0
C1127 C 0.9153 0.37649 0.91287 0.0
C1128 C -0.00746 0.39416 0.92655 0.0
C1129 C 0.01947 0.41538 0.86661 0.0
N1130 N 0.93988 0.38371 0.91597 0.0
N1131 N -0.00566 0.41014 0.86297 0.0
H1132 H 0.84095 0.80243 0.09485 0.0
H1133 H 0.84433 0.65868 0.1888 0.0
H1134 H 0.86395 0.78521 0.20988 0.0
H1135 H 0.84772 0.66864 0.06718 0.0
H1136 H 0.8402 0.70626 0.19651 0.0
H1137 H 0.83359 0.7547 0.08402 0.0
C1138 C 0.84414 0.78867 0.11788 0.0
C1139 C 0.85331 0.79768 0.15321 0.0
C1140 C 0.84164 0.69813 0.16805 0.0
C1141 C 0.84463 0.7436 0.14126 0.0
C1142 C 0.84395 0.67091 0.1636 0.0
C1143 C 0.84687 0.65972 0.12733 0.0
C1144 C 0.84246 0.71453 0.13605 0.0
C1145 C 0.84569 0.67653 0.09567 0.0
C1146 C 0.84004 0.76154 0.11164 0.0
C1147 C 0.85721 0.77911 0.18207 0.0
N1148 N 0.84397 0.70326 0.10077 0.0
N1149 N 0.85285 0.75307 0.17545 0.0
H1150 H 0.57705 0.59051 0.32309 0.0
H1151 H 0.45513 0.59817 0.45744 0.0
H1152 H 0.57428 0.63037 0.43197 0.0
H1153 H 0.45439 0.55805 0.34879 0.0
H1154 H 0.49936 0.60932 0.44793 0.0
H1155 H 0.53262 0.57754 0.33121 0.0
C1156 C 0.56721 0.59649 0.34865 0.0
C1157 C 0.57953 0.61162 0.37681 0.0
C1158 C 0.48959 0.59808 0.42606 0.0
C1159 C 0.52882 0.5969 0.38623 0.0
C1160 C 0.46427 0.59167 0.43154 0.0
C1161 C 0.45095 0.57726 0.40381 0.0
C1162 C 0.50187 0.59 0.3926 0.0
C1163 C 0.46386 0.5694 0.37079 0.0
C1164 C 0.54186 0.5891 0.35325 0.0
C1165 C 0.56575 0.61878 0.40935 0.0
N1166 N 0.48862 0.57588 0.36607 0.0
N1167 N 0.54128 0.6114 0.41306 0.0
H1168 H 0.39703 0.32661 0.17425 0.0
H1169 H 0.32397 0.20226 0.08443 0.0
H1170 H 0.35379 0.33057 0.07 0.0
H1171 H 0.36172 0.20143 0.19343 0.0
H1172 H 0.33669 0.24842 0.07647 0.0
H1173 H 0.38624 0.27997 0.17947 0.0
C1174 C 0.38529 0.3177 0.15236 0.0
C1175 C 0.37624 0.33267 0.12167 0.0
C1176 C 0.34224 0.23811 0.10206 0.0
C1177 C 0.36377 0.279 0.1276 0.0
C1178 C 0.33507 0.21171 0.10658 0.0
C1179 C 0.34184 0.19795 0.13963 0.0
C1180 C 0.35632 0.2508 0.13079 0.0
C1181 C 0.35604 0.21128 0.16752 0.0
C1182 C 0.37911 0.291 0.15541 0.0
C1183 C 0.36115 0.31988 0.0942 0.0
N1184 N 0.36279 0.23695 0.16247 0.0
N1185 N 0.35535 0.29379 0.09785 0.0
H1186 H 0.41776 0.60381 0.92075 0.0
H1187 H 0.55321 0.57509 0.83029 0.0
H1188 H 0.43088 0.58796 0.80175 0.0
H1189 H 0.54389 0.60047 0.94676 0.0
H1190 H 0.50821 0.58068 0.81985 0.0
H1191 H 0.46359 0.60337 0.93166 0.0
C1192 C 0.43024 0.60042 0.89692 0.0
C1193 C 0.42047 0.59602 0.86026 0.0
C1194 C 0.51595 0.58525 0.84767 0.0
C1195 C 0.47272 0.59536 0.87251 0.0
C1196 C 0.54177 0.58215 0.85362 0.0
C1197 C 0.55244 0.58745 0.88941 0.0
C1198 C 0.50047 0.59346 0.87781 0.0
C1199 C 0.53646 0.5962 0.91867 0.0
C1200 C 0.45637 0.60021 0.90314 0.0
C1201 C 0.43749 0.59169 0.83043 0.0
N1202 N 0.51122 0.59878 0.9123 0.0
N1203 N 0.4627 0.59137 0.83725 0.0
H1204 H 0.13696 0.65878 0.58147 0.0
H1205 H 0.12679 0.7908 0.70799 0.0
H1206 H 0.09457 0.66344 0.68594 0.0
H1207 H 0.17137 0.78402 0.60598 0.0
H1208 H 0.11497 0.74407 0.70121 0.0
H1209 H 0.14972 0.70484 0.59035 0.0
C1210 C 0.13031 0.66945 0.60626 0.0
C1211 C 0.11463 0.65714 0.63294 0.0
C1212 C 0.12736 0.75285 0.68035 0.0
C1213 C 0.12922 0.70998 0.64334 0.0
C1214 C 0.13414 0.77949 0.68427 0.0
C1215 C 0.14986 0.79138 0.65729 0.0
C1216 C 0.13645 0.73808 0.64929 0.0
C1217 C 0.15889 0.7758 0.62714 0.0
C1218 C 0.13764 0.69577 0.61136 0.0
C1219 C 0.10666 0.67205 0.66456 0.0
N1220 N 0.15201 0.75002 0.62392 0.0
N1221 N 0.11402 0.69766 0.66885 0.0
H1222 H 0.0647 0.3805 0.41483 0.0
H1223 H 0.92957 0.41596 0.32872 0.0
H1224 H 0.0504 0.39394 0.29557 0.0
H1225 H 0.93894 0.38491 0.44199 0.0
H1226 H 0.97425 0.40897 0.31717 0.0
H1227 H 0.01914 0.38274 0.42656 0.0
C1228 C 0.05199 0.38369 0.3911 0.0
C1229 C 0.06135 0.38702 0.35416 0.0
C1230 C 0.96655 0.40346 0.34448 0.0
C1231 C 0.00941 0.38985 0.3674 0.0
C1232 C 0.94094 0.40738 0.35108 0.0
C1233 C 0.93038 0.40076 0.38626 0.0
C1234 C 0.98192 0.39313 0.37341 0.0
C1235 C 0.94629 0.39021 0.41439 0.0
C1236 C 0.02602 0.38494 0.39781 0.0
C1237 C 0.04406 0.39112 0.32447 0.0
N1238 N 0.97133 0.38683 0.40742 0.0
N1239 N 0.01898 0.3926 0.33179 0.0
H1240 H 0.39312 0.65359 0.3016 0.0
H1241 H 0.32715 0.78185 0.39071 0.0
H1242 H 0.35493 0.65324 0.40988 0.0
H1243 H 0.36186 0.77942 0.27994 0.0
H1244 H 0.33865 0.73547 0.39994 0.0
H1245 H 0.38306 0.70022 0.29478 0.0
C1246 C 0.38262 0.66329 0.32404 0.0
C1247 C 0.37486 0.64936 0.3564 0.0
C1248 C 0.34382 0.74513 0.37369 0.0
C1249 C 0.36326 0.70308 0.34866 0.0
C1250 C 0.33736 0.77165 0.36845 0.0
C1251 C 0.34361 0.78455 0.33452 0.0
C1252 C 0.35662 0.73144 0.34478 0.0
C1253 C 0.35664 0.77027 0.30654 0.0
C1254 C 0.37687 0.69 0.32007 0.0
C1255 C 0.36127 0.66313 0.38442 0.0
N1256 N 0.36267 0.7445 0.31228 0.0
N1257 N 0.3559 0.68925 0.3799 0.0
H1258 H 0.92888 0.57505 0.15032 0.0
H1259 H 0.06579 0.5978 0.06161 0.0
H1260 H 0.93985 0.5979 0.03348 0.0
H1261 H 0.05137 0.58455 0.18069 0.0
H1262 H 0.02006 0.59876 0.04999 0.0
H1263 H 0.97393 0.57965 0.16151 0.0
C1264 C 0.94069 0.58135 0.12706 0.0
C1265 C 0.93047 0.58621 0.09094 0.0
C1266 C 0.02697 0.59586 0.07868 0.0
C1267 C 0.9825 0.59103 0.10341 0.0
C1268 C 0.05305 0.59525 0.0853 0.0
C1269 C 0.06243 0.59116 0.12219 0.0
C1270 C 0.01026 0.59213 0.10914 0.0
C1271 C 0.04507 0.58798 0.15184 0.0
C1272 C 0.96654 0.58388 0.13344 0.0
C1273 C 0.94692 0.59399 0.06182 0.0
N1274 N 0.01991 0.58842 0.14463 0.0
N1275 N 0.97218 0.596 0.0686 0.0
H1276 H 0.12164 0.20146 0.77845 0.0
H1277 H 0.12951 0.3316 0.90898 0.0
H1278 H 0.15862 0.20332 0.88803 0.0
H1279 H 0.0885 0.32674 0.80272 0.0
H1280 H 0.14033 0.28472 0.90247 0.0
H1281 H 0.10928 0.24751 0.78743 0.0
C1282 C 0.1271 0.21153 0.80448 0.0
C1283 C 0.14114 0.1985 0.83256 0.0
C1284 C 0.12891 0.29395 0.88067 0.0
C1285 C 0.12713 0.25136 0.84302 0.0
C1286 C 0.12273 0.32072 0.88435 0.0
C1287 C 0.10811 0.33323 0.85632 0.0
C1288 C 0.12047 0.2796 0.8487 0.0
C1289 C 0.09984 0.31806 0.82506 0.0
C1290 C 0.12001 0.23785 0.80963 0.0
C1291 C 0.14767 0.21255 0.86574 0.0
N1292 N 0.10619 0.29213 0.82208 0.0
N1293 N 0.14068 0.23827 0.87001 0.0
H1294 H 0.43344 0.39188 0.68314 0.0
H1295 H 0.54418 0.38509 0.52963 0.0
H1296 H 0.41889 0.38656 0.56246 0.0
H1297 H 0.55412 0.4104 0.64617 0.0
H1298 H 0.49896 0.37907 0.5417 0.0
H1299 H 0.47855 0.39163 0.67057 0.0
C1300 C 0.43972 0.39039 0.65395 0.0
C1301 C 0.42235 0.38927 0.62378 0.0
C1302 C 0.51115 0.38576 0.56461 0.0
C1303 C 0.47416 0.38927 0.60916 0.0
C1304 C 0.53694 0.38914 0.55781 0.0
C1305 C 0.55303 0.39816 0.587 0.0
C1306 C 0.50149 0.39127 0.6009 0.0
C1307 C 0.5426 0.40319 0.62289 0.0
C1308 C 0.46553 0.3904 0.64679 0.0
C1309 C 0.43166 0.38757 0.58654 0.0
N1310 N 0.51754 0.39968 0.62879 0.0
N1311 N 0.457 0.38769 0.58023 0.0
H1312 H 0.18184 0.0924 0.50483 0.0
H1313 H 0.14197 0.06174 0.71842 0.0
H1314 H 0.12878 0.03114 0.53505 0.0
H1315 H 0.20591 0.1106 0.68934 0.0
H1316 H 0.13799 0.04876 0.65148 0.0
H1317 H 0.19227 0.09811 0.57234 0.0
C1318 C 0.17261 0.07995 0.52555 0.0
C1319 C 0.15427 0.06142 0.51423 0.0
C1320 C 0.15307 0.06209 0.65985 0.0
C1321 C 0.16585 0.06804 0.59149 0.0
C1322 C 0.15536 0.06947 0.6981 0.0
C1323 C 0.17414 0.08747 0.70951 0.0
C1324 C 0.16953 0.073 0.63281 0.0
C1325 C 0.191 0.09682 0.68187 0.0
C1326 C 0.17855 0.08321 0.5641 0.0
C1327 C 0.14293 0.0458 0.54239 0.0
N1328 N 0.18811 0.08973 0.6448 0.0
N1329 N 0.14869 0.04967 0.57967 0.0
H1330 H 0.12572 0.9546 0.76221 0.0
H1331 H 0.1684 0.8798 0.95222 0.0
H1332 H 0.17576 0.88743 0.75867 0.0
H1333 H 0.12922 0.95456 0.94761 0.0
H1334 H 0.17033 0.8796 0.88212 0.0
H1335 H 0.12416 0.95124 0.83103 0.0
C1336 C 0.13654 0.93922 0.77605 0.0
C1337 C 0.15117 0.92155 0.75484 0.0
C1338 C 0.16145 0.89603 0.89669 0.0
C1339 C 0.14986 0.91772 0.83406 0.0
C1340 C 0.16049 0.89625 0.93661 0.0
C1341 C 0.14862 0.91723 0.95587 0.0
C1342 C 0.1503 0.91685 0.87624 0.0
C1343 C 0.13851 0.93792 0.93422 0.0
C1344 C 0.13568 0.93727 0.81542 0.0
C1345 C 0.16434 0.90154 0.77418 0.0
N1346 N 0.13948 0.93709 0.89581 0.0
N1347 N 0.16358 0.90028 0.81288 0.0
H1348 H 0.30125 0.88777 0.00271 0.0
H1349 H 0.33744 0.92218 0.21724 0.0
H1350 H 0.34577 0.956 0.03503 0.0
H1351 H 0.27999 0.86528 0.18599 0.0
H1352 H 0.33942 0.93626 0.15081 0.0
H1353 H 0.29153 0.88049 0.06981 0.0
C1354 C 0.30868 0.90143 0.02382 0.0
C1355 C 0.32455 0.92236 0.01323 0.0
C1356 C 0.32618 0.92089 0.15861 0.0
C1357 C 0.31382 0.91395 0.09005 0.0
C1358 C 0.32507 0.91286 0.19654 0.0
C1359 C 0.3087 0.89236 0.20716 0.0
C1360 C 0.31102 0.90814 0.13112 0.0
C1361 C 0.29303 0.88103 0.17911 0.0
C1362 C 0.30317 0.89725 0.06214 0.0
C1363 C 0.33362 0.93946 0.04185 0.0
N1364 N 0.29479 0.88886 0.14236 0.0
N1365 N 0.32839 0.93469 0.07894 0.0
H1366 H 0.30055 0.0881 0.46546 0.0
H1367 H 0.34289 0.06134 0.25158 0.0
H1368 H 0.35779 0.03141 0.43422 0.0
H1369 H 0.27692 0.10678 0.28165 0.0
H1370 H 0.3471 0.04791 0.31806 0.0
H1371 H 0.28986 0.09317 0.39812 0.0
C1372 C 0.31065 0.07648 0.44453 0.0
C1373 C 0.33025 0.0595 0.45552 0.0
C1374 C 0.33152 0.06057 0.31 0.0
C1375 C 0.31834 0.06541 0.37841 0.0
C1376 C 0.32911 0.06821 0.27202 0.0
C1377 C 0.30969 0.08542 0.26105 0.0
C1378 C 0.31453 0.07041 0.33723 0.0
C1379 C 0.29233 0.09365 0.2888 0.0
C1380 C 0.30456 0.07939 0.40607 0.0
C1381 C 0.34266 0.04489 0.42711 0.0
N1382 N 0.29534 0.08633 0.32563 0.0
N1383 N 0.3367 0.04841 0.3899 0.0
H1384 H 0.8149 0.92956 0.25961 0.0
H1385 H 0.82741 0.87942 0.47286 0.0
H1386 H 0.83218 0.84967 0.29272 0.0
H1387 H 0.82775 0.96169 0.44047 0.0
H1388 H 0.8148 0.86744 0.40822 0.0
H1389 H 0.80508 0.94019 0.32619 0.0
C1390 C 0.81555 0.91401 0.28066 0.0
C1391 C 0.82443 0.88877 0.27097 0.0
C1392 C 0.81718 0.88816 0.41543 0.0
C1393 C 0.81382 0.90078 0.34677 0.0
C1394 C 0.82435 0.89504 0.4524 0.0
C1395 C 0.82925 0.92158 0.46191 0.0
C1396 C 0.81497 0.90792 0.38769 0.0
C1397 C 0.82463 0.94094 0.43424 0.0
C1398 C 0.81025 0.92012 0.31866 0.0
C1399 C 0.82545 0.86939 0.29926 0.0
N1400 N 0.81819 0.9337 0.39818 0.0
N1401 N 0.82058 0.87588 0.33597 0.0
H1402 H 0.82334 0.02083 0.03257 0.0
H1403 H 0.82671 0.13527 0.18463 0.0
H1404 H 0.82621 0.10385 0.00473 0.0
H1405 H 0.81465 0.05357 0.21356 0.0
H1406 H 0.8167 0.12496 0.11839 0.0
H1407 H 0.8111 0.03258 0.09738 0.0
C1408 C 0.82092 0.04152 0.03982 0.0
C1409 C 0.82638 0.0614 0.01334 0.0
C1410 C 0.81547 0.10934 0.13924 0.0
C1411 C 0.81255 0.075 0.08766 0.0
C1412 C 0.82094 0.11532 0.17712 0.0
C1413 C 0.82136 0.09524 0.20437 0.0
C1414 C 0.81119 0.0829 0.12838 0.0
C1415 C 0.81424 0.06962 0.19329 0.0
C1416 C 0.81391 0.04822 0.07691 0.0
C1417 C 0.82262 0.08785 0.02431 0.0
N1418 N 0.81004 0.06401 0.15589 0.0
N1419 N 0.8164 0.09387 0.06077 0.0
H1420 H 0.65624 0.13672 0.79094 0.0
H1421 H 0.65788 0.02133 0.93963 0.0
H1422 H 0.66659 0.05504 0.75936 0.0
H1423 H 0.65773 0.1042 0.97002 0.0
H1424 H 0.66978 0.03319 0.87488 0.0
H1425 H 0.66631 0.12577 0.85675 0.0
C1426 C 0.66161 0.11662 0.79778 0.0
C1427 C 0.66068 0.09675 0.7699 0.0
C1428 C 0.66765 0.04875 0.89589 0.0
C1429 C 0.67094 0.08369 0.84541 0.0
C1430 C 0.66083 0.042 0.93293 0.0
C1431 C 0.65625 0.06184 0.96015 0.0
C1432 C 0.66969 0.07555 0.88591 0.0
C1433 C 0.66064 0.08824 0.94987 0.0
C1434 C 0.66713 0.11027 0.83541 0.0
C1435 C 0.66736 0.07093 0.78012 0.0
N1436 N 0.66666 0.09433 0.91345 0.0
N1437 N 0.67161 0.06498 0.81731 0.0
H1438 H 0.65988 0.88103 0.49888 0.0
H1439 H 0.66856 0.92876 0.71471 0.0
H1440 H 0.65772 0.96286 0.53458 0.0
H1441 H 0.65204 0.84914 0.6778 0.0
H1442 H 0.67904 0.94033 0.64884 0.0
H1443 H 0.67134 0.86851 0.56359 0.0
C1444 C 0.6623 0.89645 0.5201 0.0
C1445 C 0.65723 0.923 0.51144 0.0
C1446 C 0.67387 0.92013 0.6554 0.0
C1447 C 0.6702 0.90871 0.58573 0.0
C1448 C 0.66819 0.91347 0.693 0.0
C1449 C 0.65934 0.88802 0.70142 0.0
C1450 C 0.67076 0.9011 0.6264 0.0
C1451 C 0.65871 0.86902 0.67227 0.0
C1452 C 0.66881 0.88926 0.55711 0.0
C1453 C 0.661 0.9421 0.5401 0.0
N1454 N 0.66398 0.87602 0.63598 0.0
N1455 N 0.66683 0.93454 0.57614 0.0
H1456 H 0.63454 0.52778 0.03745 0.0
H1457 H 0.70786 0.61376 0.19399 0.0
H1458 H 0.68088 0.59548 0.01064 0.0
H1459 H 0.64544 0.56197 0.22004 0.0
H1460 H 0.70458 0.6007 0.12733 0.0
H1461 H 0.645 0.53372 0.10456 0.0
C1462 C 0.64719 0.54373 0.04556 0.0
C1463 C 0.65664 0.56136 0.01832 0.0
C1464 C 0.69176 0.59201 0.14767 0.0
C1465 C 0.66863 0.56821 0.09532 0.0
C1466 C 0.69363 0.59937 0.18584 0.0
C1467 C 0.67669 0.58915 0.21269 0.0
C1468 C 0.67291 0.57414 0.13617 0.0
C1469 C 0.65877 0.57048 0.20032 0.0
C1470 C 0.65306 0.54712 0.08396 0.0
C1471 C 0.67304 0.58152 0.03063 0.0
N1472 N 0.65725 0.56369 0.16288 0.0
N1473 N 0.67839 0.58451 0.0683 0.0
H1474 H 0.68161 0.38978 0.46667 0.0
H1475 H 0.64427 0.42427 0.25294 0.0
H1476 H 0.63204 0.45415 0.43667 0.0
H1477 H 0.70594 0.37248 0.28257 0.0
H1478 H 0.64054 0.43682 0.32005 0.0
H1479 H 0.69202 0.38419 0.39932 0.0
C1480 C 0.67316 0.40294 0.44603 0.0
C1481 C 0.65578 0.42231 0.45735 0.0
C1482 C 0.65508 0.42293 0.31175 0.0
C1483 C 0.66733 0.41585 0.38025 0.0
C1484 C 0.65722 0.4158 0.27343 0.0
C1485 C 0.67529 0.39713 0.26211 0.0
C1486 C 0.67094 0.4111 0.33895 0.0
C1487 C 0.69159 0.38682 0.28995 0.0
C1488 C 0.67908 0.39974 0.40757 0.0
C1489 C 0.64542 0.43882 0.42931 0.0
N1490 N 0.68884 0.39369 0.32707 0.0
N1491 N 0.65112 0.43502 0.39208 0.0
H1492 H 0.83396 0.42219 0.7198 0.0
H1493 H 0.80365 0.3828 0.50447 0.0
H1494 H 0.78169 0.36025 0.68767 0.0
H1495 H 0.84375 0.45395 0.53685 0.0
H1496 H 0.79377 0.37526 0.57147 0.0
H1497 H 0.83646 0.43534 0.65298 0.0
C1498 C 0.82282 0.41154 0.6988 0.0
C1499 C 0.80776 0.38997 0.70935 0.0
C1500 C 0.80448 0.39269 0.56383 0.0
C1501 C 0.8107 0.40469 0.63287 0.0
C1502 C 0.81008 0.39702 0.52556 0.0
C1503 C 0.82473 0.41891 0.51501 0.0
C1504 C 0.8138 0.41024 0.59175 0.0
C1505 C 0.83256 0.43668 0.54362 0.0
C1506 C 0.82425 0.41904 0.66066 0.0
C1507 C 0.79368 0.37692 0.6809 0.0
N1508 N 0.82725 0.4318 0.58066 0.0
N1509 N 0.79571 0.3843 0.64398 0.0
H1510 H 0.80149 0.59594 0.96994 0.0
H1511 H 0.83739 0.56227 0.75549 0.0
H1512 H 0.84897 0.53019 0.93809 0.0
H1513 H 0.778 0.61653 0.78655 0.0
H1514 H 0.84049 0.54862 0.82205 0.0
H1515 H 0.79096 0.60237 0.9028 0.0
C1516 C 0.80944 0.58265 0.94892 0.0
C1517 C 0.82633 0.56267 0.95966 0.0
C1518 C 0.82658 0.56329 0.81417 0.0
C1519 C 0.81464 0.57009 0.88278 0.0
C1520 C 0.82481 0.57107 0.77617 0.0
C1521 C 0.80759 0.59074 0.76545 0.0
C1522 C 0.8112 0.57548 0.84166 0.0
C1523 C 0.7917 0.60143 0.79349 0.0
C1524 C 0.80345 0.58633 0.91058 0.0
C1525 C 0.83602 0.54599 0.93116 0.0
N1526 N 0.79409 0.5939 0.83032 0.0
N1527 N 0.83028 0.55028 0.89404 0.0
H1528 H 0.31113 0.42191 0.76241 0.0
H1529 H 0.32675 0.37529 0.97727 0.0
H1530 H 0.33624 0.34466 0.79728 0.0
H1531 H 0.32289 0.45704 0.94278 0.0
H1532 H 0.31574 0.36181 0.91254 0.0
H1533 H 0.30088 0.43233 0.82887 0.0
C1534 C 0.31353 0.4068 0.78383 0.0
C1535 C 0.32474 0.38249 0.77458 0.0
C1536 C 0.31684 0.38271 0.91932 0.0
C1537 C 0.31345 0.39431 0.85028 0.0
C1538 C 0.32308 0.39045 0.95633 0.0
C1539 C 0.32635 0.41735 0.96531 0.0
C1540 C 0.31384 0.40197 0.89104 0.0
C1541 C 0.32103 0.43606 0.937 0.0
C1542 C 0.30794 0.41284 0.82176 0.0
C1543 C 0.32781 0.36371 0.8034 0.0
N1544 N 0.31545 0.42801 0.90095 0.0
N1545 N 0.32252 0.37013 0.84002 0.0
H1546 H 0.31315 0.55476 0.7184 0.0
H1547 H 0.32586 0.60572 0.5056 0.0
H1548 H 0.33003 0.63497 0.68641 0.0
H1549 H 0.32503 0.52331 0.53724 0.0
H1550 H 0.31368 0.61757 0.57033 0.0
H1551 H 0.30348 0.54435 0.65156 0.0
C1552 C 0.3137 0.57043 0.69754 0.0
C1553 C 0.32238 0.59572 0.70766 0.0
C1554 C 0.31572 0.59686 0.56294 0.0
C1555 C 0.31205 0.58395 0.6315 0.0
C1556 C 0.32265 0.59005 0.52592 0.0
C1557 C 0.32704 0.5635 0.51614 0.0
C1558 C 0.31325 0.577 0.59048 0.0
C1559 C 0.32228 0.54408 0.54365 0.0
C1560 C 0.30851 0.56444 0.65937 0.0
C1561 C 0.32337 0.61523 0.67956 0.0
N1562 N 0.31606 0.55124 0.57975 0.0
N1563 N 0.31865 0.60886 0.64269 0.0
H1564 H 0.15901 0.52605 0.45339 0.0
H1565 H 0.15559 0.63402 0.2926 0.0
H1566 H 0.15614 0.61012 0.47513 0.0
H1567 H 0.16577 0.55096 0.26971 0.0
H1568 H 0.16521 0.62637 0.35958 0.0
H1569 H 0.17012 0.535 0.38738 0.0
C1570 C 0.16117 0.54641 0.44451 0.0
C1571 C 0.15614 0.56737 0.46974 0.0
C1572 C 0.16609 0.60985 0.3399 0.0
C1573 C 0.16869 0.57776 0.39396 0.0
C1574 C 0.16085 0.6143 0.30159 0.0
C1575 C 0.16007 0.5931 0.27578 0.0
C1576 C 0.16984 0.58385 0.35267 0.0
C1577 C 0.16651 0.56784 0.28879 0.0
C1578 C 0.16754 0.5515 0.40673 0.0
C1579 C 0.1595 0.59332 0.45663 0.0
N1580 N 0.17057 0.56378 0.32657 0.0
N1581 N 0.16514 0.59776 0.41953 0.0
H1582 H 0.15372 0.3478 0.18151 0.0
H1583 H 0.15954 0.46283 0.03243 0.0
H1584 H 0.1668 0.42912 0.21313 0.0
H1585 H 0.15677 0.37994 0.00236 0.0
H1586 H 0.17086 0.45074 0.09747 0.0
H1587 H 0.16412 0.35836 0.11582 0.0
C1588 C 0.15972 0.36772 0.17471 0.0
C1589 C 0.15949 0.38762 0.20256 0.0
C1590 C 0.16829 0.4352 0.07648 0.0
C1591 C 0.17021 0.40027 0.12716 0.0
C1592 C 0.1618 0.44209 0.03927 0.0
C1593 C 0.15662 0.42235 0.01204 0.0
C1594 C 0.16939 0.40837 0.08661 0.0
C1595 C 0.16016 0.39585 0.0225 0.0
C1596 C 0.16545 0.37385 0.13714 0.0
C1597 C 0.16701 0.41321 0.19238 0.0
N1598 N 0.16586 0.38964 0.05907 0.0
N1599 N 0.17148 0.41898 0.15524 0.0
loop_
_geom_bond_atom_site_label_1
_geom_bond_atom_site_label_2
_geom_bond_distance
_geom_bond_site_symmetry_2
_ccdc_geom_bond_type
Mg0 O1 2.028 . S
Mg0 O7 1.986 . S
Mg0 O9 2.114 . S
Mg0 O10 2.251 . S
Mg0 O13 2.010 . S
O1 Mg0 2.028 . S
O1 C4 1.250 . S
O2 Mg3 2.028 . S
O2 C4 1.248 . S
Mg3 O2 2.028 . S
Mg3 O8 2.032 . S
Mg3 O10 2.079 . S
C4 O1 1.250 . S
C4 O2 1.248 . S
C5 O6 1.264 . S
C5 O13 1.249 . S
O6 C5 1.264 . S
O7 Mg0 1.986 . S
O7 C11 1.246 . S
O8 Mg3 2.032 . S
O8 C11 1.259 . S
O9 Mg0 2.114 . S
O9 C12 1.252 . S
O10 Mg0 2.251 . S
O10 Mg3 2.079 . S
O10 C12 1.273 . S
C11 O7 1.246 . S
C11 O8 1.259 . S
C12 O9 1.252 . S
C12 O10 1.273 . S
O13 Mg0 2.010 . S
O13 C5 1.249 . S
Mg14 O15 2.028 . S
Mg14 O21 1.986 . S
Mg14 O23 2.114 . S
Mg14 O24 2.251 . S
Mg14 O27 2.010 . S
O15 Mg14 2.028 . S
O15 C18 1.250 . S
O16 Mg17 2.028 . S
O16 C18 1.248 . S
Mg17 O16 2.028 . S
Mg17 O22 2.032 . S
Mg17 O24 2.079 . S
C18 O15 1.250 . S
C18 O16 1.248 . S
C19 O20 1.264 . S
C19 O27 1.249 . S
O20 C19 1.264 . S
O21 Mg14 1.986 . S
O21 C25 1.246 . S
O22 Mg17 2.032 . S
O22 C25 1.259 . S
O23 Mg14 2.114 . S
O23 C26 1.252 . S
O24 Mg14 2.251 . S
O24 Mg17 2.079 . S
O24 C26 1.273 . S
C25 O21 1.246 . S
C25 O22 1.259 . S
C26 O23 1.252 . S
C26 O24 1.273 . S
O27 Mg14 2.010 . S
O27 C19 1.249 . S
Mg28 O29 2.028 . S
Mg28 O35 1.986 . S
Mg28 O37 2.114 . S
Mg28 O38 2.251 . S
Mg28 O41 2.010 . S
O29 Mg28 2.028 . S
O29 C32 1.250 . S
O30 Mg31 2.028 . S
O30 C32 1.248 . S
Mg31 O30 2.028 . S
Mg31 O36 2.032 . S
Mg31 O38 2.079 . S
C32 O29 1.250 . S
C32 O30 1.248 . S
C33 O34 1.264 . S
C33 O41 1.249 1_554 S
O34 C33 1.264 . S
O35 Mg28 1.986 . S
O35 C39 1.246 . S
O36 Mg31 2.032 . S
O36 C39 1.259 . S
O37 Mg28 2.114 . S
O37 C40 1.252 . S
O38 Mg28 2.251 . S
O38 Mg31 2.079 . S
O38 C40 1.273 . S
C39 O35 1.246 . S
C39 O36 1.259 . S
C40 O37 1.252 . S
C40 O38 1.273 . S
O41 Mg28 2.010 . S
O41 C33 1.249 1_556 S
Mg42 O43 2.028 . S
Mg42 O49 1.986 . S
Mg42 O51 2.114 . S
Mg42 O52 2.251 . S
Mg42 O55 2.010 . S
O43 Mg42 2.028 . S
O43 C46 1.250 . S
O44 Mg45 2.028 . S
O44 C46 1.248 . S
Mg45 O44 2.028 . S
Mg45 O50 2.032 . S
Mg45 O52 2.079 . S
C46 O43 1.250 . S
C46 O44 1.248 . S
C47 O48 1.264 . S
C47 O55 1.249 . S
O48 C47 1.264 . S
O49 Mg42 1.986 . S
O49 C53 1.246 . S
O50 Mg45 2.032 . S
O50 C53 1.259 . S
O51 Mg42 2.114 . S
O51 C54 1.252 . S
O52 Mg42 2.251 . S
O52 Mg45 2.079 . S
O52 C54 1.273 . S
C53 O49 1.246 . S
C53 O50 1.259 . S
C54 O51 1.252 . S
C54 O52 1.273 . S
O55 Mg42 2.010 . S
O55 C47 1.249 . S
Mg56 O57 2.028 . S
Mg56 O63 1.986 . S
Mg56 O65 2.114 . S
Mg56 O66 2.251 . S
Mg56 O69 2.010 . S
O57 Mg56 2.028 . S
O57 C60 1.250 . S
O58 Mg59 2.028 . S
O58 C60 1.248 . S
Mg59 O58 2.028 . S
Mg59 O64 2.032 . S
Mg59 O66 2.079 . S
C60 O57 1.250 . S
C60 O58 1.248 . S
C61 O62 1.264 . S
C61 O69 1.249 1_556 S
O62 C61 1.264 . S
O63 Mg56 1.986 . S
O63 C67 1.246 . S
O64 Mg59 2.032 . S
O64 C67 1.259 . S
O65 Mg56 2.114 . S
O65 C68 1.252 . S
O66 Mg56 2.251 . S
O66 Mg59 2.079 . S
O66 C68 1.273 . S
C67 O63 1.246 . S
C67 O64 1.259 . S
C68 O65 1.252 . S
C68 O66 1.273 . S
O69 Mg56 2.010 . S
O69 C61 1.249 1_554 S
Mg70 O71 2.028 . S
Mg70 O77 1.986 . S
Mg70 O79 2.114 . S
Mg70 O80 2.251 . S
Mg70 O83 2.010 . S
O71 Mg70 2.028 . S
O71 C74 1.250 . S
O72 Mg73 2.028 . S
O72 C74 1.248 . S
Mg73 O72 2.028 . S
Mg73 O78 2.032 . S
Mg73 O80 2.079 . S
C74 O71 1.250 . S
C74 O72 1.248 . S
C75 O76 1.264 . S
C75 O83 1.249 . S
O76 C75 1.264 . S
O77 Mg70 1.986 . S
O77 C81 1.246 . S
O78 Mg73 2.032 . S
O78 C81 1.259 . S
O79 Mg70 2.114 . S
O79 C82 1.252 . S
O80 Mg70 2.251 . S
O80 Mg73 2.079 . S
O80 C82 1.273 . S
C81 O77 1.246 . S
C81 O78 1.259 . S
C82 O79 1.252 . S
C82 O80 1.273 . S
O83 Mg70 2.010 . S
O83 C75 1.249 . S
Mg84 O85 2.028 . S
Mg84 O91 1.986 . S
Mg84 O93 2.114 . S
Mg84 O94 2.251 . S
Mg84 O97 2.010 . S
O85 Mg84 2.028 . S
O85 C88 1.250 . S
O86 Mg87 2.028 . S
O86 C88 1.248 . S
Mg87 O86 2.028 . S
Mg87 O92 2.032 . S
Mg87 O94 2.079 . S
C88 O85 1.250 . S
C88 O86 1.248 . S
C89 O90 1.264 . S
C89 O97 1.249 . S
O90 C89 1.264 . S
O91 Mg84 1.986 . S
O91 C95 1.246 . S
O92 Mg87 2.032 . S
O92 C95 1.259 . S
O93 Mg84 2.114 . S
O93 C96 1.252 . S
O94 Mg84 2.251 . S
O94 Mg87 2.079 . S
O94 C96 1.273 . S
C95 O91 1.246 . S
C95 O92 1.259 . S
C96 O93 1.252 . S
C96 O94 1.273 . S
O97 Mg84 2.010 . S
O97 C89 1.249 . S
Mg98 O99 2.028 . S
Mg98 O105 1.986 . S
Mg98 O107 2.114 . S
Mg98 O108 2.251 . S
Mg98 O111 2.010 . S
O99 Mg98 2.028 . S
O99 C102 1.250 . S
O100 Mg101 2.028 . S
O100 C102 1.248 . S
Mg101 O100 2.028 . S
Mg101 O106 2.032 . S
Mg101 O108 2.079 . S
C102 O99 1.250 . S
C102 O100 1.248 . S
C103 O104 1.264 . S
C103 O111 1.249 . S
O104 C103 1.264 . S
O105 Mg98 1.986 . S
O105 C109 1.246 . S
O106 Mg101 2.032 . S
O106 C109 1.259 . S
O107 Mg98 2.114 . S
O107 C110 1.252 . S
O108 Mg98 2.251 . S
O108 Mg101 2.079 . S
O108 C110 1.273 . S
C109 O105 1.246 . S
C109 O106 1.259 . S
C110 O107 1.252 . S
C110 O108 1.273 . S
O111 Mg98 2.010 . S
O111 C103 1.249 . S
Mg112 O113 2.028 . S
Mg112 O119 1.986 . S
Mg112 O121 2.114 . S
Mg112 O122 2.251 . S
Mg112 O125 2.010 . S
O113 Mg112 2.028 . S
O113 C116 1.250 . S
O114 Mg115 2.028 . S
O114 C116 1.248 . S
Mg115 O114 2.028 . S
Mg115 O120 2.032 . S
Mg115 O122 2.079 . S
C116 O113 1.250 . S
C116 O114 1.248 . S
C117 O118 1.264 . S
C117 O125 1.249 . S
O118 C117 1.264 . S
O119 Mg112 1.986 . S
O119 C123 1.246 . S
O120 Mg115 2.032 . S
O120 C123 1.259 . S
O121 Mg112 2.114 . S
O121 C124 1.252 . S
O122 Mg112 2.251 . S
O122 Mg115 2.079 . S
O122 C124 1.273 . S
C123 O119 1.246 . S
C123 O120 1.259 . S
C124 O121 1.252 . S
C124 O122 1.273 . S
O125 Mg112 2.010 . S
O125 C117 1.249 . S
Mg126 O127 2.028 . S
Mg126 O133 1.986 . S
Mg126 O135 2.114 . S
Mg126 O136 2.251 . S
Mg126 O139 2.010 . S
O127 Mg126 2.028 . S
O127 C130 1.250 . S
O128 Mg129 2.028 . S
O128 C130 1.248 . S
Mg129 O128 2.028 . S
Mg129 O134 2.032 . S
Mg129 O136 2.079 . S
C130 O127 1.250 . S
C130 O128 1.248 . S
C131 O132 1.264 . S
C131 O139 1.249 . S
O132 C131 1.264 . S
O133 Mg126 1.986 . S
O133 C137 1.246 . S
O134 Mg129 2.032 . S
O134 C137 1.259 . S
O135 Mg126 2.114 . S
O135 C138 1.252 . S
O136 Mg126 2.251 . S
O136 Mg129 2.079 . S
O136 C138 1.273 . S
C137 O133 1.246 . S
C137 O134 1.259 . S
C138 O135 1.252 . S
C138 O136 1.273 . S
O139 Mg126 2.010 . S
O139 C131 1.249 . S
Mg140 O141 2.028 . S
Mg140 O147 1.986 . S
Mg140 O149 2.114 . S
Mg140 O150 2.251 . S
Mg140 O153 2.010 . S
O141 Mg140 2.028 . S
O141 C144 1.250 . S
O142 Mg143 2.028 . S
O142 C144 1.248 . S
Mg143 O142 2.028 . S
Mg143 O148 2.032 . S
Mg143 O150 2.079 . S
C144 O141 1.250 . S
C144 O142 1.248 . S
C145 O146 1.264 . S
C145 O153 1.249 1_556 S
O146 C145 1.264 . S
O147 Mg140 1.986 . S
O147 C151 1.246 . S
O148 Mg143 2.032 . S
O148 C151 1.259 . S
O149 Mg140 2.114 . S
O149 C152 1.252 . S
O150 Mg140 2.251 . S
O150 Mg143 2.079 . S
O150 C152 1.273 . S
C151 O147 1.246 . S
C151 O148 1.259 . S
C152 O149 1.252 . S
C152 O150 1.273 . S
O153 Mg140 2.010 . S
O153 C145 1.249 1_554 S
Mg154 O155 2.028 . S
Mg154 O161 1.986 . S
Mg154 O163 2.114 . S
Mg154 O164 2.251 . S
Mg154 O167 2.010 . S
O155 Mg154 2.028 . S
O155 C158 1.250 . S
O156 Mg157 2.028 . S
O156 C158 1.248 . S
Mg157 O156 2.028 . S
Mg157 O162 2.032 . S
Mg157 O164 2.079 . S
C158 O155 1.250 . S
C158 O156 1.248 . S
C159 O160 1.264 . S
C159 O167 1.249 . S
O160 C159 1.264 . S
O161 Mg154 1.986 . S
O161 C165 1.246 . S
O162 Mg157 2.032 . S
O162 C165 1.259 . S
O163 Mg154 2.114 . S
O163 C166 1.252 . S
O164 Mg154 2.251 . S
O164 Mg157 2.079 . S
O164 C166 1.273 . S
C165 O161 1.246 . S
C165 O162 1.259 . S
C166 O163 1.252 . S
C166 O164 1.273 . S
O167 Mg154 2.010 . S
O167 C159 1.249 . S
Mg168 O169 2.028 . S
Mg168 O175 1.986 . S
Mg168 O177 2.114 . S
Mg168 O178 2.251 . S
Mg168 O181 2.010 . S
O169 Mg168 2.028 . S
O169 C172 1.250 . S
O170 Mg171 2.028 . S
O170 C172 1.248 . S
Mg171 O170 2.028 . S
Mg171 O176 2.032 . S
Mg171 O178 2.079 . S
C172 O169 1.250 . S
C172 O170 1.248 . S
C173 O174 1.264 . S
C173 O181 1.249 1_554 S
O174 C173 1.264 . S
O175 Mg168 1.986 . S
O175 C179 1.246 . S
O176 Mg171 2.032 . S
O176 C179 1.259 . S
O177 Mg168 2.114 . S
O177 C180 1.252 . S
O178 Mg168 2.251 . S
O178 Mg171 2.079 . S
O178 C180 1.273 . S
C179 O175 1.246 . S
C179 O176 1.259 . S
C180 O177 1.252 . S
C180 O178 1.273 . S
O181 Mg168 2.010 . S
O181 C173 1.249 1_556 S
Mg182 O183 2.028 . S
Mg182 O189 1.986 . S
Mg182 O191 2.114 . S
Mg182 O192 2.251 . S
Mg182 O195 2.010 . S
O183 Mg182 2.028 . S
O183 C186 1.250 . S
O184 Mg185 2.028 . S
O184 C186 1.248 . S
Mg185 O184 2.028 . S
Mg185 O190 2.032 . S
Mg185 O192 2.079 . S
C186 O183 1.250 . S
C186 O184 1.248 . S
C187 O188 1.264 . S
C187 O195 1.249 . S
O188 C187 1.264 . S
O189 Mg182 1.986 . S
O189 C193 1.246 . S
O190 Mg185 2.032 . S
O190 C193 1.259 . S
O191 Mg182 2.114 . S
O191 C194 1.252 . S
O192 Mg182 2.251 . S
O192 Mg185 2.079 . S
O192 C194 1.273 . S
C193 O189 1.246 . S
C193 O190 1.259 . S
C194 O191 1.252 . S
C194 O192 1.273 . S
O195 Mg182 2.010 . S
O195 C187 1.249 . S
Mg196 O197 2.028 . S
Mg196 O203 1.986 . S
Mg196 O205 2.114 . S
Mg196 O206 2.251 . S
Mg196 O209 2.010 . S
O197 Mg196 2.028 . S
O197 C200 1.250 . S
O198 Mg199 2.028 . S
O198 C200 1.248 . S
Mg199 O198 2.028 . S
Mg199 O204 2.032 . S
Mg199 O206 2.079 . S
C200 O197 1.250 . S
C200 O198 1.248 . S
C201 O202 1.264 . S
C201 O209 1.249 . S
O202 C201 1.264 . S
O203 Mg196 1.986 . S
O203 C207 1.246 . S
O204 Mg199 2.032 . S
O204 C207 1.259 . S
O205 Mg196 2.114 . S
O205 C208 1.252 . S
O206 Mg196 2.251 . S
O206 Mg199 2.079 . S
O206 C208 1.273 . S
C207 O203 1.246 . S
C207 O204 1.259 . S
C208 O205 1.252 . S
C208 O206 1.273 . S
O209 Mg196 2.010 . S
O209 C201 1.249 . S
Mg210 O211 2.028 . S
Mg210 O217 1.986 . S
Mg210 O219 2.114 . S
Mg210 O220 2.251 . S
Mg210 O223 2.010 . S
O211 Mg210 2.028 . S
O211 C214 1.250 . S
O212 Mg213 2.028 . S
O212 C214 1.248 . S
Mg213 O212 2.028 . S
Mg213 O218 2.032 . S
Mg213 O220 2.079 . S
C214 O211 1.250 . S
C214 O212 1.248 . S
C215 O216 1.264 . S
C215 O223 1.249 . S
O216 C215 1.264 . S
O217 Mg210 1.986 . S
O217 C221 1.246 . S
O218 Mg213 2.032 . S
O218 C221 1.259 . S
O219 Mg210 2.114 . S
O219 C222 1.252 . S
O220 Mg210 2.251 . S
O220 Mg213 2.079 . S
O220 C222 1.273 . S
C221 O217 1.246 . S
C221 O218 1.259 . S
C222 O219 1.252 . S
C222 O220 1.273 . S
O223 Mg210 2.010 . S
O223 C215 1.249 . S
Mg224 O225 2.028 . S
Mg224 O231 1.986 . S
Mg224 O233 2.114 . S
Mg224 O234 2.251 . S
Mg224 O237 2.010 . S
O225 Mg224 2.028 . S
O225 C228 1.250 . S
O226 Mg227 2.028 . S
O226 C228 1.248 . S
Mg227 O226 2.028 . S
Mg227 O232 2.032 . S
Mg227 O234 2.079 . S
C228 O225 1.250 . S
C228 O226 1.248 . S
C229 O230 1.264 . S
C229 O237 1.249 1_554 S
O230 C229 1.264 . S
O231 Mg224 1.986 . S
O231 C235 1.246 . S
O232 Mg227 2.032 . S
O232 C235 1.259 . S
O233 Mg224 2.114 . S
O233 C236 1.252 . S
O234 Mg224 2.251 . S
O234 Mg227 2.079 . S
O234 C236 1.273 . S
C235 O231 1.246 . S
C235 O232 1.259 . S
C236 O233 1.252 . S
C236 O234 1.273 . S
O237 Mg224 2.010 . S
O237 C229 1.249 1_556 S
Mg238 O239 2.028 . S
Mg238 O245 1.986 . S
Mg238 O247 2.114 . S
Mg238 O248 2.251 . S
Mg238 O251 2.010 . S
O239 Mg238 2.028 . S
O239 C242 1.250 . S
O240 Mg241 2.028 . S
O240 C242 1.248 . S
Mg241 O240 2.028 . S
Mg241 O246 2.032 . S
Mg241 O248 2.079 . S
C242 O239 1.250 . S
C242 O240 1.248 . S
C243 O244 1.264 . S
C243 O251 1.249 . S
O244 C243 1.264 . S
O245 Mg238 1.986 . S
O245 C249 1.246 . S
O246 Mg241 2.032 . S
O246 C249 1.259 . S
O247 Mg238 2.114 . S
O247 C250 1.252 . S
O248 Mg238 2.251 . S
O248 Mg241 2.079 . S
O248 C250 1.273 . S
C249 O245 1.246 . S
C249 O246 1.259 . S
C250 O247 1.252 . S
C250 O248 1.273 . S
O251 Mg238 2.010 . S
O251 C243 1.249 . S
Mg252 O253 2.028 . S
Mg252 O259 1.986 . S
Mg252 O261 2.114 . S
Mg252 O262 2.251 . S
Mg252 O265 2.010 . S
O253 Mg252 2.028 . S
O253 C256 1.250 . S
O254 Mg255 2.028 . S
O254 C256 1.248 . S
Mg255 O254 2.028 . S
Mg255 O260 2.032 . S
Mg255 O262 2.079 . S
C256 O253 1.250 . S
C256 O254 1.248 . S
C257 O258 1.264 . S
C257 O265 1.249 . S
O258 C257 1.264 . S
O259 Mg252 1.986 . S
O259 C263 1.246 . S
O260 Mg255 2.032 . S
O260 C263 1.259 . S
O261 Mg252 2.114 . S
O261 C264 1.252 . S
O262 Mg252 2.251 . S
O262 Mg255 2.079 . S
O262 C264 1.273 . S
C263 O259 1.246 . S
C263 O260 1.259 . S
C264 O261 1.252 . S
C264 O262 1.273 . S
O265 Mg252 2.010 . S
O265 C257 1.249 . S
Mg266 O267 2.028 . S
Mg266 O273 1.986 . S
Mg266 O275 2.114 . S
Mg266 O276 2.251 . S
Mg266 O279 2.010 . S
O267 Mg266 2.028 . S
O267 C270 1.250 . S
O268 Mg269 2.028 . S
O268 C270 1.248 . S
Mg269 O268 2.028 . S
Mg269 O274 2.032 . S
Mg269 O276 2.079 . S
C270 O267 1.250 . S
C270 O268 1.248 . S
C271 O272 1.264 . S
C271 O279 1.249 . S
O272 C271 1.264 . S
O273 Mg266 1.986 . S
O273 C277 1.246 . S
O274 Mg269 2.032 . S
O274 C277 1.259 . S
O275 Mg266 2.114 . S
O275 C278 1.252 . S
O276 Mg266 2.251 . S
O276 Mg269 2.079 . S
O276 C278 1.273 . S
C277 O273 1.246 . S
C277 O274 1.259 . S
C278 O275 1.252 . S
C278 O276 1.273 . S
O279 Mg266 2.010 . S
O279 C271 1.249 . S
Mg280 O281 2.028 . S
Mg280 O287 1.986 . S
Mg280 O289 2.114 . S
Mg280 O290 2.251 . S
Mg280 O293 2.010 . S
O281 Mg280 2.028 . S
O281 C284 1.250 . S
O282 Mg283 2.028 . S
O282 C284 1.248 . S
Mg283 O282 2.028 . S
Mg283 O288 2.032 . S
Mg283 O290 2.079 . S
C284 O281 1.250 . S
C284 O282 1.248 . S
C285 O286 1.264 . S
C285 O293 1.249 . S
O286 C285 1.264 . S
O287 Mg280 1.986 . S
O287 C291 1.246 . S
O288 Mg283 2.032 . S
O288 C291 1.259 . S
O289 Mg280 2.114 . S
O289 C292 1.252 . S
O290 Mg280 2.251 . S
O290 Mg283 2.079 . S
O290 C292 1.273 . S
C291 O287 1.246 . S
C291 O288 1.259 . S
C292 O289 1.252 . S
C292 O290 1.273 . S
O293 Mg280 2.010 . S
O293 C285 1.249 . S
Mg294 O295 2.028 . S
Mg294 O301 1.986 . S
Mg294 O303 2.114 . S
Mg294 O304 2.251 . S
Mg294 O307 2.010 . S
O295 Mg294 2.028 . S
O295 C298 1.250 . S
O296 Mg297 2.028 . S
O296 C298 1.248 . S
Mg297 O296 2.028 . S
Mg297 O302 2.032 . S
Mg297 O304 2.079 . S
C298 O295 1.250 . S
C298 O296 1.248 . S
C299 O300 1.264 . S
C299 O307 1.249 . S
O300 C299 1.264 . S
O301 Mg294 1.986 . S
O301 C305 1.246 . S
O302 Mg297 2.032 . S
O302 C305 1.259 . S
O303 Mg294 2.114 . S
O303 C306 1.252 . S
O304 Mg294 2.251 . S
O304 Mg297 2.079 . S
O304 C306 1.273 . S
C305 O301 1.246 . S
C305 O302 1.259 . S
C306 O303 1.252 . S
C306 O304 1.273 . S
O307 Mg294 2.010 . S
O307 C299 1.249 . S
Mg308 O309 2.028 . S
Mg308 O315 1.986 . S
Mg308 O317 2.114 . S
Mg308 O318 2.251 . S
Mg308 O321 2.010 . S
O309 Mg308 2.028 . S
O309 C312 1.250 . S
O310 Mg311 2.028 . S
O310 C312 1.248 . S
Mg311 O310 2.028 . S
Mg311 O316 2.032 . S
Mg311 O318 2.079 . S
C312 O309 1.250 . S
C312 O310 1.248 . S
C313 O314 1.264 . S
C313 O321 1.249 1_556 S
O314 C313 1.264 . S
O315 Mg308 1.986 . S
O315 C319 1.246 . S
O316 Mg311 2.032 . S
O316 C319 1.259 . S
O317 Mg308 2.114 . S
O317 C320 1.252 . S
O318 Mg308 2.251 . S
O318 Mg311 2.079 . S
O318 C320 1.273 . S
C319 O315 1.246 . S
C319 O316 1.259 . S
C320 O317 1.252 . S
C320 O318 1.273 . S
O321 Mg308 2.010 . S
O321 C313 1.249 1_554 S
Mg322 O323 2.028 . S
Mg322 O329 1.986 . S
Mg322 O331 2.114 . S
Mg322 O332 2.251 . S
Mg322 O335 2.010 . S
O323 Mg322 2.028 . S
O323 C326 1.250 . S
O324 Mg325 2.028 . S
O324 C326 1.248 . S
Mg325 O324 2.028 . S
Mg325 O330 2.032 . S
Mg325 O332 2.079 . S
C326 O323 1.250 . S
C326 O324 1.248 . S
C327 O328 1.264 . S
C327 O335 1.249 . S
O328 C327 1.264 . S
O329 Mg322 1.986 . S
O329 C333 1.246 . S
O330 Mg325 2.032 . S
O330 C333 1.259 . S
O331 Mg322 2.114 . S
O331 C334 1.252 . S
O332 Mg322 2.251 . S
O332 Mg325 2.079 . S
O332 C334 1.273 . S
C333 O329 1.246 . S
C333 O330 1.259 . S
C334 O331 1.252 . S
C334 O332 1.273 . S
O335 Mg322 2.010 . S
O335 C327 1.249 . S
Mg336 O337 2.028 . S
Mg336 O343 1.986 . S
Mg336 O345 2.114 . S
Mg336 O346 2.251 . S
Mg336 O349 2.010 . S
O337 Mg336 2.028 . S
O337 C340 1.250 . S
O338 Mg339 2.028 . S
O338 C340 1.248 . S
Mg339 O338 2.028 . S
Mg339 O344 2.032 . S
Mg339 O346 2.079 . S
C340 O337 1.250 . S
C340 O338 1.248 . S
C341 O342 1.264 . S
C341 O349 1.249 1_556 S
O342 C341 1.264 . S
O343 Mg336 1.986 . S
O343 C347 1.246 . S
O344 Mg339 2.032 . S
O344 C347 1.259 . S
O345 Mg336 2.114 . S
O345 C348 1.252 . S
O346 Mg336 2.251 . S
O346 Mg339 2.079 . S
O346 C348 1.273 . S
C347 O343 1.246 . S
C347 O344 1.259 . S
C348 O345 1.252 . S
C348 O346 1.273 . S
O349 Mg336 2.010 . S
O349 C341 1.249 1_554 S
Mg350 O351 2.028 . S
Mg350 O357 1.986 . S
Mg350 O359 2.114 . S
Mg350 O360 2.251 . S
Mg350 O363 2.010 . S
O351 Mg350 2.028 . S
O351 C354 1.250 . S
O352 Mg353 2.028 . S
O352 C354 1.248 . S
Mg353 O352 2.028 . S
Mg353 O358 2.032 . S
Mg353 O360 2.079 . S
C354 O351 1.250 . S
C354 O352 1.248 . S
C355 O356 1.264 . S
C355 O363 1.249 . S
O356 C355 1.264 . S
O357 Mg350 1.986 . S
O357 C361 1.246 . S
O358 Mg353 2.032 . S
O358 C361 1.259 . S
O359 Mg350 2.114 . S
O359 C362 1.252 . S
O360 Mg350 2.251 . S
O360 Mg353 2.079 . S
O360 C362 1.273 . S
C361 O357 1.246 . S
C361 O358 1.259 . S
C362 O359 1.252 . S
C362 O360 1.273 . S
O363 Mg350 2.010 . S
O363 C355 1.249 . S
Mg364 O365 2.028 . S
Mg364 O371 1.986 . S
Mg364 O373 2.114 . S
Mg364 O374 2.251 . S
Mg364 O377 2.010 . S
O365 Mg364 2.028 . S
O365 C368 1.250 . S
O366 Mg367 2.028 . S
O366 C368 1.248 . S
Mg367 O366 2.028 . S
Mg367 O372 2.032 . S
Mg367 O374 2.079 . S
C368 O365 1.250 . S
C368 O366 1.248 . S
C369 O370 1.264 . S
C369 O377 1.249 . S
O370 C369 1.264 . S
O371 Mg364 1.986 . S
O371 C375 1.246 . S
O372 Mg367 2.032 . S
O372 C375 1.259 . S
O373 Mg364 2.114 . S
O373 C376 1.252 . S
O374 Mg364 2.251 . S
O374 Mg367 2.079 . S
O374 C376 1.273 . S
C375 O371 1.246 . S
C375 O372 1.259 . S
C376 O373 1.252 . S
C376 O374 1.273 . S
O377 Mg364 2.010 . S
O377 C369 1.249 . S
Mg378 O379 2.028 . S
Mg378 O385 1.986 . S
Mg378 O387 2.114 . S
Mg378 O388 2.251 . S
Mg378 O391 2.010 . S
O379 Mg378 2.028 . S
O379 C382 1.250 . S
O380 Mg381 2.028 . S
O380 C382 1.248 . S
Mg381 O380 2.028 . S
Mg381 O386 2.032 . S
Mg381 O388 2.079 . S
C382 O379 1.250 . S
C382 O380 1.248 . S
C383 O384 1.264 . S
C383 O391 1.249 . S
O384 C383 1.264 . S
O385 Mg378 1.986 . S
O385 C389 1.246 . S
O386 Mg381 2.032 . S
O386 C389 1.259 . S
O387 Mg378 2.114 . S
O387 C390 1.252 . S
O388 Mg378 2.251 . S
O388 Mg381 2.079 . S
O388 C390 1.273 . S
C389 O385 1.246 . S
C389 O386 1.259 . S
C390 O387 1.252 . S
C390 O388 1.273 . S
O391 Mg378 2.010 . S
O391 C383 1.249 . S
Mg392 O393 2.028 . S
Mg392 O399 1.986 . S
Mg392 O401 2.114 . S
Mg392 O402 2.251 . S
Mg392 O405 2.010 . S
O393 Mg392 2.028 . S
O393 C396 1.250 . S
O394 Mg395 2.028 . S
O394 C396 1.248 . S
Mg395 O394 2.028 . S
Mg395 O400 2.032 . S
Mg395 O402 2.079 . S
C396 O393 1.250 . S
C396 O394 1.248 . S
C397 O398 1.264 . S
C397 O405 1.249 . S
O398 C397 1.264 . S
O399 Mg392 1.986 . S
O399 C403 1.246 . S
O400 Mg395 2.032 . S
O400 C403 1.259 . S
O401 Mg392 2.114 . S
O401 C404 1.252 . S
O402 Mg392 2.251 . S
O402 Mg395 2.079 . S
O402 C404 1.273 . S
C403 O399 1.246 . S
C403 O400 1.259 . S
C404 O401 1.252 . S
C404 O402 1.273 . S
O405 Mg392 2.010 . S
O405 C397 1.249 . S
Mg406 O407 2.028 . S
Mg406 O413 1.986 . S
Mg406 O415 2.114 . S
Mg406 O416 2.251 . S
Mg406 O419 2.010 . S
O407 Mg406 2.028 . S
O407 C410 1.250 . S
O408 Mg409 2.028 . S
O408 C410 1.248 . S
Mg409 O408 2.028 . S
Mg409 O414 2.032 . S
Mg409 O416 2.079 . S
C410 O407 1.250 . S
C410 O408 1.248 . S
C411 O412 1.264 . S
C411 O419 1.249 . S
O412 C411 1.264 . S
O413 Mg406 1.986 . S
O413 C417 1.246 . S
O414 Mg409 2.032 . S
O414 C417 1.259 . S
O415 Mg406 2.114 . S
O415 C418 1.252 . S
O416 Mg406 2.251 . S
O416 Mg409 2.079 . S
O416 C418 1.273 . S
C417 O413 1.246 . S
C417 O414 1.259 . S
C418 O415 1.252 . S
C418 O416 1.273 . S
O419 Mg406 2.010 . S
O419 C411 1.249 . S
Mg420 O421 2.028 . S
Mg420 O427 1.986 . S
Mg420 O429 2.114 . S
Mg420 O430 2.251 . S
Mg420 O433 2.010 . S
O421 Mg420 2.028 . S
O421 C424 1.250 . S
O422 Mg423 2.028 . S
O422 C424 1.248 . S
Mg423 O422 2.028 . S
Mg423 O428 2.032 . S
Mg423 O430 2.079 . S
C424 O421 1.250 . S
C424 O422 1.248 . S
C425 O426 1.264 . S
C425 O433 1.249 1_554 S
O426 C425 1.264 . S
O427 Mg420 1.986 . S
O427 C431 1.246 . S
O428 Mg423 2.032 . S
O428 C431 1.259 . S
O429 Mg420 2.114 . S
O429 C432 1.252 . S
O430 Mg420 2.251 . S
O430 Mg423 2.079 . S
O430 C432 1.273 . S
C431 O427 1.246 . S
C431 O428 1.259 . S
C432 O429 1.252 . S
C432 O430 1.273 . S
O433 Mg420 2.010 . S
O433 C425 1.249 1_556 S
Mg434 O435 2.028 . S
Mg434 O441 1.986 . S
Mg434 O443 2.114 . S
Mg434 O444 2.251 . S
Mg434 O447 2.010 . S
O435 Mg434 2.028 . S
O435 C438 1.250 . S
O436 Mg437 2.028 . S
O436 C438 1.248 . S
Mg437 O436 2.028 . S
Mg437 O442 2.032 . S
Mg437 O444 2.079 . S
C438 O435 1.250 . S
C438 O436 1.248 . S
C439 O440 1.264 . S
C439 O447 1.249 . S
O440 C439 1.264 . S
O441 Mg434 1.986 . S
O441 C445 1.246 . S
O442 Mg437 2.032 . S
O442 C445 1.259 . S
O443 Mg434 2.114 . S
O443 C446 1.252 . S
O444 Mg434 2.251 . S
O444 Mg437 2.079 . S
O444 C446 1.273 . S
C445 O441 1.246 . S
C445 O442 1.259 . S
C446 O443 1.252 . S
C446 O444 1.273 . S
O447 Mg434 2.010 . S
O447 C439 1.249 . S
H448 C454 0.930 . S
H449 C458 0.930 . S
H450 C463 0.929 . S
H451 C461 0.929 . S
H452 C456 0.929 1_545 S
H453 C462 0.929 1_565 S
C454 H448 0.930 . S
C454 C455 1.367 . S
C454 C462 1.378 . S
C455 C454 1.367 . S
C455 C463 1.433 . S
C456 H452 0.929 1_565 S
C456 C458 1.378 . S
C456 C460 1.350 . S
C457 C460 1.463 1_545 S
C457 C462 1.350 . S
C457 N465 1.427 . S
C458 H449 0.930 . S
C458 C456 1.378 . S
C458 C459 1.367 . S
C459 C458 1.367 . S
C459 C461 1.433 . S
C460 C456 1.350 . S
C460 C457 1.463 1_565 S
C460 N464 1.427 . S
C461 H451 0.929 . S
C461 C459 1.433 . S
C461 N464 1.384 . S
C462 H453 0.929 1_545 S
C462 C454 1.378 . S
C462 C457 1.350 . S
C463 H450 0.929 . S
C463 C455 1.433 . S
C463 N465 1.384 . S
N464 C460 1.427 . S
N464 C461 1.384 . S
N465 C457 1.427 . S
N465 C463 1.384 . S
H466 C472 0.930 . S
H467 C476 0.930 . S
H468 C481 0.929 . S
H469 C479 0.929 . S
H470 C474 0.929 . S
H471 C480 0.929 . S
C472 H466 0.930 . S
C472 C473 1.367 . S
C472 C480 1.378 . S
C473 C472 1.367 . S
C473 C481 1.433 . S
C474 H470 0.929 . S
C474 C476 1.378 . S
C474 C478 1.350 . S
C475 C478 1.463 . S
C475 C480 1.350 . S
C475 N483 1.427 . S
C476 H467 0.930 . S
C476 C474 1.378 . S
C476 C477 1.367 . S
C477 C476 1.367 . S
C477 C479 1.433 . S
C478 C474 1.350 . S
C478 C475 1.463 . S
C478 N482 1.427 . S
C479 H469 0.929 . S
C479 C477 1.433 . S
C479 N482 1.384 . S
C480 H471 0.929 . S
C480 C472 1.378 . S
C480 C475 1.350 . S
C481 H468 0.929 . S
C481 C473 1.433 . S
C481 N483 1.384 . S
N482 C478 1.427 . S
N482 C479 1.384 . S
N483 C475 1.427 . S
N483 C481 1.384 . S
H484 C490 0.930 . S
H485 C494 0.930 . S
H486 C499 0.929 . S
H487 C497 0.929 . S
H488 C492 0.929 1_545 S
H489 C498 0.929 1_565 S
C490 H484 0.930 . S
C490 C491 1.367 . S
C490 C498 1.378 . S
C491 C490 1.367 . S
C491 C499 1.433 . S
C492 H488 0.929 1_565 S
C492 C494 1.378 . S
C492 C496 1.350 . S
C493 C496 1.463 1_545 S
C493 C498 1.350 . S
C493 N501 1.427 . S
C494 H485 0.930 . S
C494 C492 1.378 . S
C494 C495 1.367 . S
C495 C494 1.367 . S
C495 C497 1.433 . S
C496 C492 1.350 . S
C496 C493 1.463 1_565 S
C496 N500 1.427 . S
C497 H487 0.929 . S
C497 C495 1.433 . S
C497 N500 1.384 . S
C498 H489 0.929 1_545 S
C498 C490 1.378 . S
C498 C493 1.350 . S
C499 H486 0.929 . S
C499 C491 1.433 . S
C499 N501 1.384 . S
N500 C496 1.427 . S
N500 C497 1.384 . S
N501 C493 1.427 . S
N501 C499 1.384 . S
H502 C508 0.930 . S
H503 C512 0.930 . S
H504 C517 0.929 . S
H505 C515 0.929 . S
H506 C510 0.929 1_556 S
H507 C516 0.929 1_554 S
C508 H502 0.930 . S
C508 C509 1.367 . S
C508 C516 1.378 . S
C509 C508 1.367 . S
C509 C517 1.433 . S
C510 H506 0.929 1_554 S
C510 C512 1.378 . S
C510 C514 1.350 . S
C511 C514 1.463 1_556 S
C511 C516 1.350 . S
C511 N519 1.427 . S
C512 H503 0.930 . S
C512 C510 1.378 . S
C512 C513 1.367 . S
C513 C512 1.367 . S
C513 C515 1.433 . S
C514 C510 1.350 . S
C514 C511 1.463 1_554 S
C514 N518 1.427 . S
C515 H505 0.929 . S
C515 C513 1.433 . S
C515 N518 1.384 . S
C516 H507 0.929 1_556 S
C516 C508 1.378 . S
C516 C511 1.350 . S
C517 H504 0.929 . S
C517 C509 1.433 . S
C517 N519 1.384 . S
N518 C514 1.427 . S
N518 C515 1.384 . S
N519 C511 1.427 . S
N519 C517 1.384 . S
H520 C526 0.930 . S
H521 C530 0.930 . S
H522 C535 0.929 . S
H523 C533 0.929 . S
H524 C528 0.929 1_565 S
H525 C534 0.929 1_545 S
C526 H520 0.930 . S
C526 C527 1.367 . S
C526 C534 1.378 . S
C527 C526 1.367 . S
C527 C535 1.433 . S
C528 H524 0.929 1_545 S
C528 C530 1.378 . S
C528 C532 1.350 . S
C529 C532 1.463 1_565 S
C529 C534 1.350 . S
C529 N537 1.427 . S
C530 H521 0.930 . S
C530 C528 1.378 . S
C530 C531 1.367 . S
C531 C530 1.367 . S
C531 C533 1.433 . S
C532 C528 1.350 . S
C532 C529 1.463 1_545 S
C532 N536 1.427 . S
C533 H523 0.929 . S
C533 C531 1.433 . S
C533 N536 1.384 . S
C534 H525 0.929 1_565 S
C534 C526 1.378 . S
C534 C529 1.350 . S
C535 H522 0.929 . S
C535 C527 1.433 . S
C535 N537 1.384 . S
N536 C532 1.427 . S
N536 C533 1.384 . S
N537 C529 1.427 . S
N537 C535 1.384 . S
H538 C544 0.930 . S
H539 C548 0.930 . S
H540 C553 0.929 . S
H541 C551 0.929 . S
H542 C546 0.929 . S
H543 C552 0.929 . S
C544 H538 0.930 . S
C544 C545 1.367 . S
C544 C552 1.378 . S
C545 C544 1.367 . S
C545 C553 1.433 . S
C546 H542 0.929 . S
C546 C548 1.378 . S
C546 C550 1.350 . S
C547 C550 1.463 . S
C547 C552 1.350 . S
C547 N555 1.427 . S
C548 H539 0.930 . S
C548 C546 1.378 . S
C548 C549 1.367 . S
C549 C548 1.367 . S
C549 C551 1.433 . S
C550 C546 1.350 . S
C550 C547 1.463 . S
C550 N554 1.427 . S
C551 H541 0.929 . S
C551 C549 1.433 . S
C551 N554 1.384 . S
C552 H543 0.929 . S
C552 C544 1.378 . S
C552 C547 1.350 . S
C553 H540 0.929 . S
C553 C545 1.433 . S
C553 N555 1.384 . S
N554 C550 1.427 . S
N554 C551 1.384 . S
N555 C547 1.427 . S
N555 C553 1.384 . S
H556 C562 0.930 . S
H557 C566 0.930 . S
H558 C571 0.929 . S
H559 C569 0.929 . S
H560 C564 0.929 . S
H561 C570 0.929 . S
C562 H556 0.930 . S
C562 C563 1.367 . S
C562 C570 1.378 . S
C563 C562 1.367 . S
C563 C571 1.433 . S
C564 H560 0.929 . S
C564 C566 1.378 . S
C564 C568 1.350 . S
C565 C568 1.463 1_565 S
C565 C570 1.350 . S
C565 N573 1.427 . S
C566 H557 0.930 . S
C566 C564 1.378 . S
C566 C567 1.367 . S
C567 C566 1.367 . S
C567 C569 1.433 . S
C568 C564 1.350 . S
C568 C565 1.463 1_545 S
C568 N572 1.427 . S
C569 H559 0.929 . S
C569 C567 1.433 . S
C569 N572 1.384 . S
C570 H561 0.929 . S
C570 C562 1.378 . S
C570 C565 1.350 . S
C571 H558 0.929 . S
C571 C563 1.433 . S
C571 N573 1.384 . S
N572 C568 1.427 . S
N572 C569 1.384 . S
N573 C565 1.427 . S
N573 C571 1.384 . S
H574 C580 0.930 . S
H575 C584 0.930 . S
H576 C589 0.929 . S
H577 C587 0.929 . S
H578 C582 0.929 . S
H579 C588 0.929 . S
C580 H574 0.930 . S
C580 C581 1.367 . S
C580 C588 1.378 . S
C581 C580 1.367 . S
C581 C589 1.433 . S
C582 H578 0.929 . S
C582 C584 1.378 . S
C582 C586 1.350 . S
C583 C586 1.463 1_556 S
C583 C588 1.350 . S
C583 N591 1.427 . S
C584 H575 0.930 . S
C584 C582 1.378 . S
C584 C585 1.367 . S
C585 C584 1.367 . S
C585 C587 1.433 . S
C586 C582 1.350 . S
C586 C583 1.463 1_554 S
C586 N590 1.427 . S
C587 H577 0.929 . S
C587 C585 1.433 . S
C587 N590 1.384 . S
C588 H579 0.929 . S
C588 C580 1.378 . S
C588 C583 1.350 . S
C589 H576 0.929 . S
C589 C581 1.433 . S
C589 N591 1.384 . S
N590 C586 1.427 . S
N590 C587 1.384 . S
N591 C583 1.427 . S
N591 C589 1.384 . S
H592 C598 0.930 . S
H593 C602 0.930 . S
H594 C607 0.929 . S
H595 C605 0.929 . S
H596 C600 0.929 . S
H597 C606 0.929 . S
C598 H592 0.930 . S
C598 C599 1.367 . S
C598 C606 1.378 . S
C599 C598 1.367 . S
C599 C607 1.433 . S
C600 H596 0.929 . S
C600 C602 1.378 . S
C600 C604 1.350 . S
C601 C604 1.463 . S
C601 C606 1.350 . S
C601 N609 1.427 . S
C602 H593 0.930 . S
C602 C600 1.378 . S
C602 C603 1.367 . S
C603 C602 1.367 . S
C603 C605 1.433 . S
C604 C600 1.350 . S
C604 C601 1.463 . S
C604 N608 1.427 . S
C605 H595 0.929 . S
C605 C603 1.433 . S
C605 N608 1.384 . S
C606 H597 0.929 . S
C606 C598 1.378 . S
C606 C601 1.350 . S
C607 H594 0.929 . S
C607 C599 1.433 . S
C607 N609 1.384 . S
N608 C604 1.427 . S
N608 C605 1.384 . S
N609 C601 1.427 . S
N609 C607 1.384 . S
H610 C616 0.930 . S
H611 C620 0.930 . S
H612 C625 0.929 . S
H613 C623 0.929 . S
H614 C618 0.929 . S
H615 C624 0.929 . S
C616 H610 0.930 . S
C616 C617 1.367 . S
C616 C624 1.378 . S
C617 C616 1.367 . S
C617 C625 1.433 . S
C618 H614 0.929 . S
C618 C620 1.378 . S
C618 C622 1.350 . S
C619 C622 1.463 1_556 S
C619 C624 1.350 . S
C619 N627 1.427 . S
C620 H611 0.930 . S
C620 C618 1.378 . S
C620 C621 1.367 . S
C621 C620 1.367 . S
C621 C623 1.433 . S
C622 C618 1.350 . S
C622 C619 1.463 1_554 S
C622 N626 1.427 . S
C623 H613 0.929 . S
C623 C621 1.433 . S
C623 N626 1.384 . S
C624 H615 0.929 . S
C624 C616 1.378 . S
C624 C619 1.350 . S
C625 H612 0.929 . S
C625 C617 1.433 . S
C625 N627 1.384 . S
N626 C622 1.427 . S
N626 C623 1.384 . S
N627 C619 1.427 . S
N627 C625 1.384 . S
H628 C634 0.930 . S
H629 C638 0.930 . S
H630 C643 0.929 . S
H631 C641 0.929 . S
H632 C636 0.929 . S
H633 C642 0.929 . S
C634 H628 0.930 . S
C634 C635 1.367 . S
C634 C642 1.378 . S
C635 C634 1.367 . S
C635 C643 1.433 . S
C636 H632 0.929 . S
C636 C638 1.378 . S
C636 C640 1.350 . S
C637 C640 1.463 . S
C637 C642 1.350 . S
C637 N645 1.427 . S
C638 H629 0.930 . S
C638 C636 1.378 . S
C638 C639 1.367 . S
C639 C638 1.367 . S
C639 C641 1.433 . S
C640 C636 1.350 . S
C640 C637 1.463 . S
C640 N644 1.427 . S
C641 H631 0.929 . S
C641 C639 1.433 . S
C641 N644 1.384 . S
C642 H633 0.929 . S
C642 C634 1.378 . S
C642 C637 1.350 . S
C643 H630 0.929 . S
C643 C635 1.433 . S
C643 N645 1.384 . S
N644 C640 1.427 . S
N644 C641 1.384 . S
N645 C637 1.427 . S
N645 C643 1.384 . S
H646 C652 0.930 . S
H647 C656 0.930 . S
H648 C661 0.929 . S
H649 C659 0.929 . S
H650 C654 0.929 . S
H651 C660 0.929 . S
C652 H646 0.930 . S
C652 C653 1.367 . S
C652 C660 1.378 . S
C653 C652 1.367 . S
C653 C661 1.433 . S
C654 H650 0.929 . S
C654 C656 1.378 . S
C654 C658 1.350 . S
C655 C658 1.463 . S
C655 C660 1.350 . S
C655 N663 1.427 . S
C656 H647 0.930 . S
C656 C654 1.378 . S
C656 C657 1.367 . S
C657 C656 1.367 . S
C657 C659 1.433 . S
C658 C654 1.350 . S
C658 C655 1.463 . S
C658 N662 1.427 . S
C659 H649 0.929 . S
C659 C657 1.433 . S
C659 N662 1.384 . S
C660 H651 0.929 . S
C660 C652 1.378 . S
C660 C655 1.350 . S
C661 H648 0.929 . S
C661 C653 1.433 . S
C661 N663 1.384 . S
N662 C658 1.427 . S
N662 C659 1.384 . S
N663 C655 1.427 . S
N663 C661 1.384 . S
H664 C670 0.930 . S
H665 C674 0.930 . S
H666 C679 0.929 . S
H667 C677 0.929 . S
H668 C672 0.929 . S
H669 C678 0.929 . S
C670 H664 0.930 . S
C670 C671 1.367 . S
C670 C678 1.378 . S
C671 C670 1.367 . S
C671 C679 1.433 . S
C672 H668 0.929 . S
C672 C674 1.378 . S
C672 C676 1.350 . S
C673 C676 1.463 . S
C673 C678 1.350 . S
C673 N681 1.427 . S
C674 H665 0.930 . S
C674 C672 1.378 . S
C674 C675 1.367 . S
C675 C674 1.367 . S
C675 C677 1.433 . S
C676 C672 1.350 . S
C676 C673 1.463 . S
C676 N680 1.427 . S
C677 H667 0.929 . S
C677 C675 1.433 . S
C677 N680 1.384 . S
C678 H669 0.929 . S
C678 C670 1.378 . S
C678 C673 1.350 . S
C679 H666 0.929 . S
C679 C671 1.433 . S
C679 N681 1.384 . S
N680 C676 1.427 . S
N680 C677 1.384 . S
N681 C673 1.427 . S
N681 C679 1.384 . S
H682 C688 0.930 . S
H683 C692 0.930 . S
H684 C697 0.929 . S
H685 C695 0.929 . S
H686 C690 0.929 . S
H687 C696 0.929 . S
C688 H682 0.930 . S
C688 C689 1.367 . S
C688 C696 1.378 . S
C689 C688 1.367 . S
C689 C697 1.433 . S
C690 H686 0.929 . S
C690 C692 1.378 . S
C690 C694 1.350 . S
C691 C694 1.463 1_554 S
C691 C696 1.350 . S
C691 N699 1.427 . S
C692 H683 0.930 . S
C692 C690 1.378 . S
C692 C693 1.367 . S
C693 C692 1.367 . S
C693 C695 1.433 . S
C694 C690 1.350 . S
C694 C691 1.463 1_556 S
C694 N698 1.427 . S
C695 H685 0.929 . S
C695 C693 1.433 . S
C695 N698 1.384 . S
C696 H687 0.929 . S
C696 C688 1.378 . S
C696 C691 1.350 . S
C697 H684 0.929 . S
C697 C689 1.433 . S
C697 N699 1.384 . S
N698 C694 1.427 . S
N698 C695 1.384 . S
N699 C691 1.427 . S
N699 C697 1.384 . S
H700 C706 0.930 . S
H701 C710 0.930 . S
H702 C715 0.929 . S
H703 C713 0.929 . S
H704 C708 0.929 . S
H705 C714 0.929 . S
C706 H700 0.930 . S
C706 C707 1.367 . S
C706 C714 1.378 . S
C707 C706 1.367 . S
C707 C715 1.433 . S
C708 H704 0.929 . S
C708 C710 1.378 . S
C708 C712 1.350 . S
C709 C712 1.463 . S
C709 C714 1.350 . S
C709 N717 1.427 . S
C710 H701 0.930 . S
C710 C708 1.378 . S
C710 C711 1.367 . S
C711 C710 1.367 . S
C711 C713 1.433 . S
C712 C708 1.350 . S
C712 C709 1.463 . S
C712 N716 1.427 . S
C713 H703 0.929 . S
C713 C711 1.433 . S
C713 N716 1.384 . S
C714 H705 0.929 . S
C714 C706 1.378 . S
C714 C709 1.350 . S
C715 H702 0.929 . S
C715 C707 1.433 . S
C715 N717 1.384 . S
N716 C712 1.427 . S
N716 C713 1.384 . S
N717 C709 1.427 . S
N717 C715 1.384 . S
H718 C724 0.930 . S
H719 C728 0.930 . S
H720 C733 0.929 . S
H721 C731 0.929 . S
H722 C726 0.929 . S
H723 C732 0.929 . S
C724 H718 0.930 . S
C724 C725 1.367 . S
C724 C732 1.378 . S
C725 C724 1.367 . S
C725 C733 1.433 . S
C726 H722 0.929 . S
C726 C728 1.378 . S
C726 C730 1.350 . S
C727 C730 1.463 . S
C727 C732 1.350 . S
C727 N735 1.427 . S
C728 H719 0.930 . S
C728 C726 1.378 . S
C728 C729 1.367 . S
C729 C728 1.367 . S
C729 C731 1.433 . S
C730 C726 1.350 . S
C730 C727 1.463 . S
C730 N734 1.427 . S
C731 H721 0.929 . S
C731 C729 1.433 . S
C731 N734 1.384 . S
C732 H723 0.929 . S
C732 C724 1.378 . S
C732 C727 1.350 . S
C733 H720 0.929 . S
C733 C725 1.433 . S
C733 N735 1.384 . S
N734 C730 1.427 . S
N734 C731 1.384 . S
N735 C727 1.427 . S
N735 C733 1.384 . S
H736 C742 0.930 . S
H737 C746 0.930 . S
H738 C751 0.929 . S
H739 C749 0.929 . S
H740 C744 0.929 . S
H741 C750 0.929 . S
C742 H736 0.930 . S
C742 C743 1.367 . S
C742 C750 1.378 . S
C743 C742 1.367 . S
C743 C751 1.433 . S
C744 H740 0.929 . S
C744 C746 1.378 . S
C744 C748 1.350 . S
C745 C748 1.463 . S
C745 C750 1.350 . S
C745 N753 1.427 . S
C746 H737 0.930 . S
C746 C744 1.378 . S
C746 C747 1.367 . S
C747 C746 1.367 . S
C747 C749 1.433 . S
C748 C744 1.350 . S
C748 C745 1.463 . S
C748 N752 1.427 . S
C749 H739 0.929 . S
C749 C747 1.433 . S
C749 N752 1.384 . S
C750 H741 0.929 . S
C750 C742 1.378 . S
C750 C745 1.350 . S
C751 H738 0.929 . S
C751 C743 1.433 . S
C751 N753 1.384 . S
N752 C748 1.427 . S
N752 C749 1.384 . S
N753 C745 1.427 . S
N753 C751 1.384 . S
H754 C760 0.930 . S
H755 C764 0.930 . S
H756 C769 0.929 . S
H757 C767 0.929 . S
H758 C762 0.929 . S
H759 C768 0.929 1_455 S
C760 H754 0.930 . S
C760 C761 1.367 . S
C760 C768 1.378 . S
C761 C760 1.367 . S
C761 C769 1.433 . S
C762 H758 0.929 . S
C762 C764 1.378 . S
C762 C766 1.350 . S
C763 C766 1.463 . S
C763 C768 1.350 1_455 S
C763 N771 1.427 1_455 S
C764 H755 0.930 . S
C764 C762 1.378 . S
C764 C765 1.367 . S
C765 C764 1.367 . S
C765 C767 1.433 . S
C766 C762 1.350 . S
C766 C763 1.463 . S
C766 N770 1.427 . S
C767 H757 0.929 . S
C767 C765 1.433 . S
C767 N770 1.384 . S
C768 H759 0.929 1_655 S
C768 C760 1.378 . S
C768 C763 1.350 1_655 S
C769 H756 0.929 . S
C769 C761 1.433 . S
C769 N771 1.384 . S
N770 C766 1.427 . S
N770 C767 1.384 . S
N771 C763 1.427 1_655 S
N771 C769 1.384 . S
H772 C778 0.930 . S
H773 C782 0.930 . S
H774 C787 0.929 . S
H775 C785 0.929 . S
H776 C780 0.929 . S
H777 C786 0.929 . S
C778 H772 0.930 . S
C778 C779 1.367 . S
C778 C786 1.378 . S
C779 C778 1.367 . S
C779 C787 1.433 . S
C780 H776 0.929 . S
C780 C782 1.378 . S
C780 C784 1.350 . S
C781 C784 1.463 . S
C781 C786 1.350 . S
C781 N789 1.427 . S
C782 H773 0.930 . S
C782 C780 1.378 . S
C782 C783 1.367 . S
C783 C782 1.367 . S
C783 C785 1.433 . S
C784 C780 1.350 . S
C784 C781 1.463 . S
C784 N788 1.427 . S
C785 H775 0.929 . S
C785 C783 1.433 . S
C785 N788 1.384 . S
C786 H777 0.929 . S
C786 C778 1.378 . S
C786 C781 1.350 . S
C787 H774 0.929 . S
C787 C779 1.433 . S
C787 N789 1.384 . S
N788 C784 1.427 . S
N788 C785 1.384 . S
N789 C781 1.427 . S
N789 C787 1.384 . S
H790 C796 0.930 . S
H791 C800 0.930 . S
H792 C805 0.929 . S
H793 C803 0.929 . S
H794 C798 0.929 . S
H795 C804 0.929 . S
C796 H790 0.930 . S
C796 C797 1.367 . S
C796 C804 1.378 . S
C797 C796 1.367 . S
C797 C805 1.433 . S
C798 H794 0.929 . S
C798 C800 1.378 . S
C798 C802 1.350 . S
C799 C802 1.463 . S
C799 C804 1.350 . S
C799 N807 1.427 . S
C800 H791 0.930 . S
C800 C798 1.378 . S
C800 C801 1.367 . S
C801 C800 1.367 . S
C801 C803 1.433 . S
C802 C798 1.350 . S
C802 C799 1.463 . S
C802 N806 1.427 . S
C803 H793 0.929 . S
C803 C801 1.433 . S
C803 N806 1.384 . S
C804 H795 0.929 . S
C804 C796 1.378 . S
C804 C799 1.350 . S
C805 H792 0.929 . S
C805 C797 1.433 . S
C805 N807 1.384 . S
N806 C802 1.427 . S
N806 C803 1.384 . S
N807 C799 1.427 . S
N807 C805 1.384 . S
H808 C814 0.930 . S
H809 C818 0.930 . S
H810 C823 0.929 . S
H811 C821 0.929 . S
H812 C816 0.929 . S
H813 C822 0.929 . S
C814 H808 0.930 . S
C814 C815 1.367 . S
C814 C822 1.378 . S
C815 C814 1.367 . S
C815 C823 1.433 . S
C816 H812 0.929 . S
C816 C818 1.378 . S
C816 C820 1.350 . S
C817 C820 1.463 . S
C817 C822 1.350 . S
C817 N825 1.427 . S
C818 H809 0.930 . S
C818 C816 1.378 . S
C818 C819 1.367 . S
C819 C818 1.367 . S
C819 C821 1.433 . S
C820 C816 1.350 . S
C820 C817 1.463 . S
C820 N824 1.427 . S
C821 H811 0.929 . S
C821 C819 1.433 . S
C821 N824 1.384 . S
C822 H813 0.929 . S
C822 C814 1.378 . S
C822 C817 1.350 . S
C823 H810 0.929 . S
C823 C815 1.433 . S
C823 N825 1.384 . S
N824 C820 1.427 . S
N824 C821 1.384 . S
N825 C817 1.427 . S
N825 C823 1.384 . S
H826 C832 0.930 . S
H827 C836 0.930 . S
H828 C841 0.929 . S
H829 C839 0.929 . S
H830 C834 0.929 . S
H831 C840 0.929 . S
C832 H826 0.930 . S
C832 C833 1.367 . S
C832 C840 1.378 . S
C833 C832 1.367 . S
C833 C841 1.433 . S
C834 H830 0.929 . S
C834 C836 1.378 . S
C834 C838 1.350 . S
C835 C838 1.463 . S
C835 C840 1.350 . S
C835 N843 1.427 . S
C836 H827 0.930 . S
C836 C834 1.378 . S
C836 C837 1.367 . S
C837 C836 1.367 . S
C837 C839 1.433 . S
C838 C834 1.350 . S
C838 C835 1.463 . S
C838 N842 1.427 . S
C839 H829 0.929 . S
C839 C837 1.433 . S
C839 N842 1.384 . S
C840 H831 0.929 . S
C840 C832 1.378 . S
C840 C835 1.350 . S
C841 H828 0.929 . S
C841 C833 1.433 . S
C841 N843 1.384 . S
N842 C838 1.427 . S
N842 C839 1.384 . S
N843 C835 1.427 . S
N843 C841 1.384 . S
H844 C850 0.930 . S
H845 C854 0.930 . S
H846 C859 0.929 . S
H847 C857 0.929 . S
H848 C852 0.929 . S
H849 C858 0.929 . S
C850 H844 0.930 . S
C850 C851 1.367 . S
C850 C858 1.378 . S
C851 C850 1.367 . S
C851 C859 1.433 . S
C852 H848 0.929 . S
C852 C854 1.378 . S
C852 C856 1.350 . S
C853 C856 1.463 . S
C853 C858 1.350 . S
C853 N861 1.427 . S
C854 H845 0.930 . S
C854 C852 1.378 . S
C854 C855 1.367 . S
C855 C854 1.367 . S
C855 C857 1.433 . S
C856 C852 1.350 . S
C856 C853 1.463 . S
C856 N860 1.427 . S
C857 H847 0.929 . S
C857 C855 1.433 . S
C857 N860 1.384 . S
C858 H849 0.929 . S
C858 C850 1.378 . S
C858 C853 1.350 . S
C859 H846 0.929 . S
C859 C851 1.433 . S
C859 N861 1.384 . S
N860 C856 1.427 . S
N860 C857 1.384 . S
N861 C853 1.427 . S
N861 C859 1.384 . S
H862 C868 0.930 . S
H863 C872 0.930 . S
H864 C877 0.929 . S
H865 C875 0.929 . S
H866 C870 0.929 1_455 S
H867 C876 0.929 . S
C868 H862 0.930 . S
C868 C869 1.367 . S
C868 C876 1.378 . S
C869 C868 1.367 . S
C869 C877 1.433 . S
C870 H866 0.929 1_655 S
C870 C872 1.378 . S
C870 C874 1.350 1_655 S
C871 C874 1.463 . S
C871 C876 1.350 . S
C871 N879 1.427 . S
C872 H863 0.930 . S
C872 C870 1.378 . S
C872 C873 1.367 . S
C873 C872 1.367 . S
C873 C875 1.433 . S
C874 C870 1.350 1_455 S
C874 C871 1.463 . S
C874 N878 1.427 1_455 S
C875 H865 0.929 . S
C875 C873 1.433 . S
C875 N878 1.384 . S
C876 H867 0.929 . S
C876 C868 1.378 . S
C876 C871 1.350 . S
C877 H864 0.929 . S
C877 C869 1.433 . S
C877 N879 1.384 . S
N878 C874 1.427 1_655 S
N878 C875 1.384 . S
N879 C871 1.427 . S
N879 C877 1.384 . S
H880 C886 0.930 . S
H881 C890 0.930 . S
H882 C895 0.929 . S
H883 C893 0.929 . S
H884 C888 0.929 . S
H885 C894 0.929 . S
C886 H880 0.930 . S
C886 C887 1.367 . S
C886 C894 1.378 . S
C887 C886 1.367 . S
C887 C895 1.433 . S
C888 H884 0.929 . S
C888 C890 1.378 . S
C888 C892 1.350 . S
C889 C892 1.463 . S
C889 C894 1.350 . S
C889 N897 1.427 . S
C890 H881 0.930 . S
C890 C888 1.378 . S
C890 C891 1.367 . S
C891 C890 1.367 . S
C891 C893 1.433 . S
C892 C888 1.350 . S
C892 C889 1.463 . S
C892 N896 1.427 . S
C893 H883 0.929 . S
C893 C891 1.433 . S
C893 N896 1.384 . S
C894 H885 0.929 . S
C894 C886 1.378 . S
C894 C889 1.350 . S
C895 H882 0.929 . S
C895 C887 1.433 . S
C895 N897 1.384 . S
N896 C892 1.427 . S
N896 C893 1.384 . S
N897 C889 1.427 . S
N897 C895 1.384 . S
H898 C904 0.930 . S
H899 C908 0.930 . S
H900 C913 0.929 . S
H901 C911 0.929 . S
H902 C906 0.929 . S
H903 C912 0.929 . S
C904 H898 0.930 . S
C904 C905 1.367 . S
C904 C912 1.378 . S
C905 C904 1.367 . S
C905 C913 1.433 . S
C906 H902 0.929 . S
C906 C908 1.378 . S
C906 C910 1.350 . S
C907 C910 1.463 1_655 S
C907 C912 1.350 . S
C907 N915 1.427 . S
C908 H899 0.930 . S
C908 C906 1.378 . S
C908 C909 1.367 . S
C909 C908 1.367 . S
C909 C911 1.433 . S
C910 C906 1.350 . S
C910 C907 1.463 1_455 S
C910 N914 1.427 . S
C911 H901 0.929 . S
C911 C909 1.433 . S
C911 N914 1.384 . S
C912 H903 0.929 . S
C912 C904 1.378 . S
C912 C907 1.350 . S
C913 H900 0.929 . S
C913 C905 1.433 . S
C913 N915 1.384 . S
N914 C910 1.427 . S
N914 C911 1.384 . S
N915 C907 1.427 . S
N915 C913 1.384 . S
H916 C922 0.930 . S
H917 C926 0.930 . S
H918 C931 0.929 . S
H919 C929 0.929 . S
H920 C924 0.929 . S
H921 C930 0.929 . S
C922 H916 0.930 . S
C922 C923 1.367 . S
C922 C930 1.378 . S
C923 C922 1.367 . S
C923 C931 1.433 . S
C924 H920 0.929 . S
C924 C926 1.378 . S
C924 C928 1.350 . S
C925 C928 1.463 . S
C925 C930 1.350 . S
C925 N933 1.427 . S
C926 H917 0.930 . S
C926 C924 1.378 . S
C926 C927 1.367 . S
C927 C926 1.367 . S
C927 C929 1.433 . S
C928 C924 1.350 . S
C928 C925 1.463 . S
C928 N932 1.427 . S
C929 H919 0.929 . S
C929 C927 1.433 . S
C929 N932 1.384 . S
C930 H921 0.929 . S
C930 C922 1.378 . S
C930 C925 1.350 . S
C931 H918 0.929 . S
C931 C923 1.433 . S
C931 N933 1.384 . S
N932 C928 1.427 . S
N932 C929 1.384 . S
N933 C925 1.427 . S
N933 C931 1.384 . S
H934 C940 0.930 . S
H935 C944 0.930 . S
H936 C949 0.929 . S
H937 C947 0.929 . S
H938 C942 0.929 . S
H939 C948 0.929 . S
C940 H934 0.930 . S
C940 C941 1.367 . S
C940 C948 1.378 . S
C941 C940 1.367 . S
C941 C949 1.433 . S
C942 H938 0.929 . S
C942 C944 1.378 . S
C942 C946 1.350 . S
C943 C946 1.463 . S
C943 C948 1.350 . S
C943 N951 1.427 . S
C944 H935 0.930 . S
C944 C942 1.378 . S
C944 C945 1.367 . S
C945 C944 1.367 . S
C945 C947 1.433 . S
C946 C942 1.350 . S
C946 C943 1.463 . S
C946 N950 1.427 . S
C947 H937 0.929 . S
C947 C945 1.433 . S
C947 N950 1.384 . S
C948 H939 0.929 . S
C948 C940 1.378 . S
C948 C943 1.350 . S
C949 H936 0.929 . S
C949 C941 1.433 . S
C949 N951 1.384 . S
N950 C946 1.427 . S
N950 C947 1.384 . S
N951 C943 1.427 . S
N951 C949 1.384 . S
H952 C958 0.930 . S
H953 C962 0.930 . S
H954 C967 0.929 . S
H955 C965 0.929 . S
H956 C960 0.929 . S
H957 C966 0.929 . S
C958 H952 0.930 . S
C958 C959 1.367 . S
C958 C966 1.378 . S
C959 C958 1.367 . S
C959 C967 1.433 . S
C960 H956 0.929 . S
C960 C962 1.378 . S
C960 C964 1.350 . S
C961 C964 1.463 . S
C961 C966 1.350 . S
C961 N969 1.427 . S
C962 H953 0.930 . S
C962 C960 1.378 . S
C962 C963 1.367 . S
C963 C962 1.367 . S
C963 C965 1.433 . S
C964 C960 1.350 . S
C964 C961 1.463 . S
C964 N968 1.427 . S
C965 H955 0.929 . S
C965 C963 1.433 . S
C965 N968 1.384 . S
C966 H957 0.929 . S
C966 C958 1.378 . S
C966 C961 1.350 . S
C967 H954 0.929 . S
C967 C959 1.433 . S
C967 N969 1.384 . S
N968 C964 1.427 . S
N968 C965 1.384 . S
N969 C961 1.427 . S
N969 C967 1.384 . S
H970 C976 0.930 . S
H971 C980 0.930 . S
H972 C985 0.929 . S
H973 C983 0.929 . S
H974 C978 0.929 . S
H975 C984 0.929 . S
C976 H970 0.930 . S
C976 C977 1.367 . S
C976 C984 1.378 . S
C977 C976 1.367 . S
C977 C985 1.433 . S
C978 H974 0.929 . S
C978 C980 1.378 . S
C978 C982 1.350 . S
C979 C982 1.463 . S
C979 C984 1.350 . S
C979 N987 1.427 . S
C980 H971 0.930 . S
C980 C978 1.378 . S
C980 C981 1.367 . S
C981 C980 1.367 . S
C981 C983 1.433 . S
C982 C978 1.350 . S
C982 C979 1.463 . S
C982 N986 1.427 . S
C983 H973 0.929 . S
C983 C981 1.433 . S
C983 N986 1.384 . S
C984 H975 0.929 . S
C984 C976 1.378 . S
C984 C979 1.350 . S
C985 H972 0.929 . S
C985 C977 1.433 . S
C985 N987 1.384 . S
N986 C982 1.427 . S
N986 C983 1.384 . S
N987 C979 1.427 . S
N987 C985 1.384 . S
H988 C994 0.930 . S
H989 C998 0.930 . S
H990 C1003 0.929 . S
H991 C1001 0.929 . S
H992 C996 0.929 . S
H993 C1002 0.929 . S
C994 H988 0.930 . S
C994 C995 1.367 . S
C994 C1002 1.378 . S
C995 C994 1.367 . S
C995 C1003 1.433 . S
C996 H992 0.929 . S
C996 C998 1.378 . S
C996 C1000 1.350 . S
C997 C1000 1.463 . S
C997 C1002 1.350 . S
C997 N1005 1.427 . S
C998 H989 0.930 . S
C998 C996 1.378 . S
C998 C999 1.367 . S
C999 C998 1.367 . S
C999 C1001 1.433 . S
C1000 C996 1.350 . S
C1000 C997 1.463 . S
C1000 N1004 1.427 . S
C1001 H991 0.929 . S
C1001 C999 1.433 . S
C1001 N1004 1.384 . S
C1002 H993 0.929 . S
C1002 C994 1.378 . S
C1002 C997 1.350 . S
C1003 H990 0.929 . S
C1003 C995 1.433 . S
C1003 N1005 1.384 . S
N1004 C1000 1.427 . S
N1004 C1001 1.384 . S
N1005 C997 1.427 . S
N1005 C1003 1.384 . S
H1006 C1012 0.930 . S
H1007 C1016 0.930 . S
H1008 C1021 0.929 . S
H1009 C1019 0.929 . S
H1010 C1014 0.929 . S
H1011 C1020 0.929 . S
C1012 H1006 0.930 . S
C1012 C1013 1.367 . S
C1012 C1020 1.378 . S
C1013 C1012 1.367 . S
C1013 C1021 1.433 . S
C1014 H1010 0.929 . S
C1014 C1016 1.378 . S
C1014 C1018 1.350 . S
C1015 C1018 1.463 1_655 S
C1015 C1020 1.350 . S
C1015 N1023 1.427 . S
C1016 H1007 0.930 . S
C1016 C1014 1.378 . S
C1016 C1017 1.367 . S
C1017 C1016 1.367 . S
C1017 C1019 1.433 . S
C1018 C1014 1.350 . S
C1018 C1015 1.463 1_455 S
C1018 N1022 1.427 . S
C1019 H1009 0.929 . S
C1019 C1017 1.433 . S
C1019 N1022 1.384 . S
C1020 H1011 0.929 . S
C1020 C1012 1.378 . S
C1020 C1015 1.350 . S
C1021 H1008 0.929 . S
C1021 C1013 1.433 . S
C1021 N1023 1.384 . S
N1022 C1018 1.427 . S
N1022 C1019 1.384 . S
N1023 C1015 1.427 . S
N1023 C1021 1.384 . S
H1024 C1030 0.930 . S
H1025 C1034 0.930 . S
H1026 C1039 0.929 . S
H1027 C1037 0.929 . S
H1028 C1032 0.929 . S
H1029 C1038 0.929 . S
C1030 H1024 0.930 . S
C1030 C1031 1.367 . S
C1030 C1038 1.378 . S
C1031 C1030 1.367 . S
C1031 C1039 1.433 . S
C1032 H1028 0.929 . S
C1032 C1034 1.378 . S
C1032 C1036 1.350 . S
C1033 C1036 1.463 . S
C1033 C1038 1.350 . S
C1033 N1041 1.427 . S
C1034 H1025 0.930 . S
C1034 C1032 1.378 . S
C1034 C1035 1.367 . S
C1035 C1034 1.367 . S
C1035 C1037 1.433 . S
C1036 C1032 1.350 . S
C1036 C1033 1.463 . S
C1036 N1040 1.427 . S
C1037 H1027 0.929 . S
C1037 C1035 1.433 . S
C1037 N1040 1.384 . S
C1038 H1029 0.929 . S
C1038 C1030 1.378 . S
C1038 C1033 1.350 . S
C1039 H1026 0.929 . S
C1039 C1031 1.433 . S
C1039 N1041 1.384 . S
N1040 C1036 1.427 . S
N1040 C1037 1.384 . S
N1041 C1033 1.427 . S
N1041 C1039 1.384 . S
H1042 C1048 0.930 . S
H1043 C1052 0.930 . S
H1044 C1057 0.929 . S
H1045 C1055 0.929 . S
H1046 C1050 0.929 . S
H1047 C1056 0.929 . S
C1048 H1042 0.930 . S
C1048 C1049 1.367 . S
C1048 C1056 1.378 . S
C1049 C1048 1.367 . S
C1049 C1057 1.433 . S
C1050 H1046 0.929 . S
C1050 C1052 1.378 . S
C1050 C1054 1.350 . S
C1051 C1054 1.463 . S
C1051 C1056 1.350 . S
C1051 N1059 1.427 . S
C1052 H1043 0.930 . S
C1052 C1050 1.378 . S
C1052 C1053 1.367 . S
C1053 C1052 1.367 . S
C1053 C1055 1.433 . S
C1054 C1050 1.350 . S
C1054 C1051 1.463 . S
C1054 N1058 1.427 . S
C1055 H1045 0.929 . S
C1055 C1053 1.433 . S
C1055 N1058 1.384 . S
C1056 H1047 0.929 . S
C1056 C1048 1.378 . S
C1056 C1051 1.350 . S
C1057 H1044 0.929 . S
C1057 C1049 1.433 . S
C1057 N1059 1.384 . S
N1058 C1054 1.427 . S
N1058 C1055 1.384 . S
N1059 C1051 1.427 . S
N1059 C1057 1.384 . S
H1060 C1066 0.930 . S
H1061 C1070 0.930 . S
H1062 C1075 0.929 . S
H1063 C1073 0.929 . S
H1064 C1068 0.929 . S
H1065 C1074 0.929 . S
C1066 H1060 0.930 . S
C1066 C1067 1.367 . S
C1066 C1074 1.378 . S
C1067 C1066 1.367 . S
C1067 C1075 1.433 . S
C1068 H1064 0.929 . S
C1068 C1070 1.378 . S
C1068 C1072 1.350 . S
C1069 C1072 1.463 . S
C1069 C1074 1.350 . S
C1069 N1077 1.427 . S
C1070 H1061 0.930 . S
C1070 C1068 1.378 . S
C1070 C1071 1.367 . S
C1071 C1070 1.367 . S
C1071 C1073 1.433 . S
C1072 C1068 1.350 . S
C1072 C1069 1.463 . S
C1072 N1076 1.427 . S
C1073 H1063 0.929 . S
C1073 C1071 1.433 . S
C1073 N1076 1.384 . S
C1074 H1065 0.929 . S
C1074 C1066 1.378 . S
C1074 C1069 1.350 . S
C1075 H1062 0.929 . S
C1075 C1067 1.433 . S
C1075 N1077 1.384 . S
N1076 C1072 1.427 . S
N1076 C1073 1.384 . S
N1077 C1069 1.427 . S
N1077 C1075 1.384 . S
H1078 C1084 0.930 . S
H1079 C1088 0.930 . S
H1080 C1093 0.929 . S
H1081 C1091 0.929 . S
H1082 C1086 0.928 1_655 S
H1083 C1092 0.929 . S
C1084 H1078 0.930 . S
C1084 C1085 1.367 . S
C1084 C1092 1.378 . S
C1085 C1084 1.367 . S
C1085 C1093 1.433 . S
C1086 H1082 0.928 1_455 S
C1086 C1088 1.378 . S
C1086 C1090 1.350 1_455 S
C1087 C1090 1.463 . S
C1087 C1092 1.350 . S
C1087 N1095 1.427 . S
C1088 H1079 0.930 . S
C1088 C1086 1.378 . S
C1088 C1089 1.367 . S
C1089 C1088 1.367 . S
C1089 C1091 1.433 . S
C1090 C1086 1.350 1_655 S
C1090 C1087 1.463 . S
C1090 N1094 1.418 1_655 S
C1091 H1081 0.929 . S
C1091 C1089 1.433 . S
C1091 N1094 1.412 . S
C1092 H1083 0.929 . S
C1092 C1084 1.378 . S
C1092 C1087 1.350 . S
C1093 H1080 0.929 . S
C1093 C1085 1.433 . S
C1093 N1095 1.384 . S
N1094 C1090 1.418 1_455 S
N1094 C1091 1.412 . S
N1095 C1087 1.427 . S
N1095 C1093 1.384 . S
H1096 C1102 0.930 . S
H1097 C1106 0.930 . S
H1098 C1111 0.929 . S
H1099 C1109 0.929 . S
H1100 C1104 0.929 . S
H1101 C1110 0.929 . S
C1102 H1096 0.930 . S
C1102 C1103 1.367 . S
C1102 C1110 1.378 . S
C1103 C1102 1.367 . S
C1103 C1111 1.433 . S
C1104 H1100 0.929 . S
C1104 C1106 1.378 . S
C1104 C1108 1.350 . S
C1105 C1108 1.463 . S
C1105 C1110 1.350 . S
C1105 N1113 1.427 . S
C1106 H1097 0.930 . S
C1106 C1104 1.378 . S
C1106 C1107 1.367 . S
C1107 C1106 1.367 . S
C1107 C1109 1.433 . S
C1108 C1104 1.350 . S
C1108 C1105 1.463 . S
C1108 N1112 1.427 . S
C1109 H1099 0.929 . S
C1109 C1107 1.433 . S
C1109 N1112 1.384 . S
C1110 H1101 0.929 . S
C1110 C1102 1.378 . S
C1110 C1105 1.350 . S
C1111 H1098 0.929 . S
C1111 C1103 1.433 . S
C1111 N1113 1.384 . S
N1112 C1108 1.427 . S
N1112 C1109 1.384 . S
N1113 C1105 1.427 . S
N1113 C1111 1.384 . S
H1114 C1120 0.930 . S
H1115 C1124 0.930 . S
H1116 C1129 0.929 . S
H1117 C1127 0.929 . S
H1118 C1122 0.929 . S
H1119 C1128 0.929 1_655 S
C1120 H1114 0.930 . S
C1120 C1121 1.367 . S
C1120 C1128 1.378 . S
C1121 C1120 1.367 . S
C1121 C1129 1.433 . S
C1122 H1118 0.929 . S
C1122 C1124 1.378 . S
C1122 C1126 1.350 . S
C1123 C1126 1.463 . S
C1123 C1128 1.350 1_655 S
C1123 N1131 1.427 1_655 S
C1124 H1115 0.930 . S
C1124 C1122 1.378 . S
C1124 C1125 1.367 . S
C1125 C1124 1.367 . S
C1125 C1127 1.433 . S
C1126 C1122 1.350 . S
C1126 C1123 1.463 . S
C1126 N1130 1.427 . S
C1127 H1117 0.929 . S
C1127 C1125 1.433 . S
C1127 N1130 1.384 . S
C1128 H1119 0.929 1_455 S
C1128 C1120 1.378 . S
C1128 C1123 1.350 1_455 S
C1129 H1116 0.929 . S
C1129 C1121 1.433 . S
C1129 N1131 1.384 . S
N1130 C1126 1.427 . S
N1130 C1127 1.384 . S
N1131 C1123 1.427 1_455 S
N1131 C1129 1.384 . S
H1132 C1138 0.930 . S
H1133 C1142 0.930 . S
H1134 C1147 0.929 . S
H1135 C1145 0.929 . S
H1136 C1140 0.929 . S
H1137 C1146 0.929 . S
C1138 H1132 0.930 . S
C1138 C1139 1.367 . S
C1138 C1146 1.378 . S
C1139 C1138 1.367 . S
C1139 C1147 1.433 . S
C1140 H1136 0.929 . S
C1140 C1142 1.378 . S
C1140 C1144 1.350 . S
C1141 C1144 1.463 . S
C1141 C1146 1.350 . S
C1141 N1149 1.427 . S
C1142 H1133 0.930 . S
C1142 C1140 1.378 . S
C1142 C1143 1.367 . S
C1143 C1142 1.367 . S
C1143 C1145 1.433 . S
C1144 C1140 1.350 . S
C1144 C1141 1.463 . S
C1144 N1148 1.427 . S
C1145 H1135 0.929 . S
C1145 C1143 1.433 . S
C1145 N1148 1.384 . S
C1146 H1137 0.929 . S
C1146 C1138 1.378 . S
C1146 C1141 1.350 . S
C1147 H1134 0.929 . S
C1147 C1139 1.433 . S
C1147 N1149 1.384 . S
N1148 C1144 1.427 . S
N1148 C1145 1.384 . S
N1149 C1141 1.427 . S
N1149 C1147 1.384 . S
H1150 C1156 0.930 . S
H1151 C1160 0.930 . S
H1152 C1165 0.929 . S
H1153 C1163 0.929 . S
H1154 C1158 0.929 . S
H1155 C1164 0.929 . S
C1156 H1150 0.930 . S
C1156 C1157 1.367 . S
C1156 C1164 1.378 . S
C1157 C1156 1.367 . S
C1157 C1165 1.433 . S
C1158 H1154 0.929 . S
C1158 C1160 1.378 . S
C1158 C1162 1.350 . S
C1159 C1162 1.463 . S
C1159 C1164 1.350 . S
C1159 N1167 1.427 . S
C1160 H1151 0.930 . S
C1160 C1158 1.378 . S
C1160 C1161 1.367 . S
C1161 C1160 1.367 . S
C1161 C1163 1.433 . S
C1162 C1158 1.350 . S
C1162 C1159 1.463 . S
C1162 N1166 1.427 . S
C1163 H1153 0.929 . S
C1163 C1161 1.433 . S
C1163 N1166 1.384 . S
C1164 H1155 0.929 . S
C1164 C1156 1.378 . S
C1164 C1159 1.350 . S
C1165 H1152 0.929 . S
C1165 C1157 1.433 . S
C1165 N1167 1.384 . S
N1166 C1162 1.427 . S
N1166 C1163 1.384 . S
N1167 C1159 1.427 . S
N1167 C1165 1.384 . S
H1168 C1174 0.930 . S
H1169 C1178 0.930 . S
H1170 C1183 0.929 . S
H1171 C1181 0.929 . S
H1172 C1176 0.929 . S
H1173 C1182 0.929 . S
C1174 H1168 0.930 . S
C1174 C1175 1.367 . S
C1174 C1182 1.378 . S
C1175 C1174 1.367 . S
C1175 C1183 1.433 . S
C1176 H1172 0.929 . S
C1176 C1178 1.378 . S
C1176 C1180 1.350 . S
C1177 C1180 1.463 . S
C1177 C1182 1.350 . S
C1177 N1185 1.427 . S
C1178 H1169 0.930 . S
C1178 C1176 1.378 . S
C1178 C1179 1.367 . S
C1179 C1178 1.367 . S
C1179 C1181 1.433 . S
C1180 C1176 1.350 . S
C1180 C1177 1.463 . S
C1180 N1184 1.427 . S
C1181 H1171 0.929 . S
C1181 C1179 1.433 . S
C1181 N1184 1.384 . S
C1182 H1173 0.929 . S
C1182 C1174 1.378 . S
C1182 C1177 1.350 . S
C1183 H1170 0.929 . S
C1183 C1175 1.433 . S
C1183 N1185 1.384 . S
N1184 C1180 1.427 . S
N1184 C1181 1.384 . S
N1185 C1177 1.427 . S
N1185 C1183 1.384 . S
H1186 C1192 0.930 . S
H1187 C1196 0.930 . S
H1188 C1201 0.929 . S
H1189 C1199 0.929 . S
H1190 C1194 0.929 . S
H1191 C1200 0.929 . S
C1192 H1186 0.930 . S
C1192 C1193 1.367 . S
C1192 C1200 1.378 . S
C1193 C1192 1.367 . S
C1193 C1201 1.433 . S
C1194 H1190 0.929 . S
C1194 C1196 1.378 . S
C1194 C1198 1.350 . S
C1195 C1198 1.463 . S
C1195 C1200 1.350 . S
C1195 N1203 1.427 . S
C1196 H1187 0.930 . S
C1196 C1194 1.378 . S
C1196 C1197 1.367 . S
C1197 C1196 1.367 . S
C1197 C1199 1.433 . S
C1198 C1194 1.350 . S
C1198 C1195 1.463 . S
C1198 N1202 1.427 . S
C1199 H1189 0.929 . S
C1199 C1197 1.433 . S
C1199 N1202 1.384 . S
C1200 H1191 0.929 . S
C1200 C1192 1.378 . S
C1200 C1195 1.350 . S
C1201 H1188 0.929 . S
C1201 C1193 1.433 . S
C1201 N1203 1.384 . S
N1202 C1198 1.427 . S
N1202 C1199 1.384 . S
N1203 C1195 1.427 . S
N1203 C1201 1.384 . S
H1204 C1210 0.930 . S
H1205 C1214 0.930 . S
H1206 C1219 0.929 . S
H1207 C1217 0.929 . S
H1208 C1212 0.929 . S
H1209 C1218 0.929 . S
C1210 H1204 0.930 . S
C1210 C1211 1.367 . S
C1210 C1218 1.378 . S
C1211 C1210 1.367 . S
C1211 C1219 1.433 . S
C1212 H1208 0.929 . S
C1212 C1214 1.378 . S
C1212 C1216 1.350 . S
C1213 C1216 1.463 . S
C1213 C1218 1.350 . S
C1213 N1221 1.427 . S
C1214 H1205 0.930 . S
C1214 C1212 1.378 . S
C1214 C1215 1.367 . S
C1215 C1214 1.367 . S
C1215 C1217 1.433 . S
C1216 C1212 1.350 . S
C1216 C1213 1.463 . S
C1216 N1220 1.427 . S
C1217 H1207 0.929 . S
C1217 C1215 1.433 . S
C1217 N1220 1.384 . S
C1218 H1209 0.929 . S
C1218 C1210 1.378 . S
C1218 C1213 1.350 . S
C1219 H1206 0.929 . S
C1219 C1211 1.433 . S
C1219 N1221 1.384 . S
N1220 C1216 1.427 . S
N1220 C1217 1.384 . S
N1221 C1213 1.427 . S
N1221 C1219 1.384 . S
H1222 C1228 0.930 . S
H1223 C1232 0.930 . S
H1224 C1237 0.929 . S
H1225 C1235 0.929 . S
H1226 C1230 0.929 . S
H1227 C1236 0.929 . S
C1228 H1222 0.930 . S
C1228 C1229 1.367 . S
C1228 C1236 1.378 . S
C1229 C1228 1.367 . S
C1229 C1237 1.433 . S
C1230 H1226 0.929 . S
C1230 C1232 1.378 . S
C1230 C1234 1.350 . S
C1231 C1234 1.463 1_455 S
C1231 C1236 1.350 . S
C1231 N1239 1.427 . S
C1232 H1223 0.930 . S
C1232 C1230 1.378 . S
C1232 C1233 1.367 . S
C1233 C1232 1.367 . S
C1233 C1235 1.433 . S
C1234 C1230 1.350 . S
C1234 C1231 1.463 1_655 S
C1234 N1238 1.427 . S
C1235 H1225 0.929 . S
C1235 C1233 1.433 . S
C1235 N1238 1.384 . S
C1236 H1227 0.929 . S
C1236 C1228 1.378 . S
C1236 C1231 1.350 . S
C1237 H1224 0.929 . S
C1237 C1229 1.433 . S
C1237 N1239 1.384 . S
N1238 C1234 1.427 . S
N1238 C1235 1.384 . S
N1239 C1231 1.427 . S
N1239 C1237 1.384 . S
H1240 C1246 0.930 . S
H1241 C1250 0.930 . S
H1242 C1255 0.929 . S
H1243 C1253 0.929 . S
H1244 C1248 0.929 . S
H1245 C1254 0.929 . S
C1246 H1240 0.930 . S
C1246 C1247 1.367 . S
C1246 C1254 1.378 . S
C1247 C1246 1.367 . S
C1247 C1255 1.433 . S
C1248 H1244 0.929 . S
C1248 C1250 1.378 . S
C1248 C1252 1.350 . S
C1249 C1252 1.463 . S
C1249 C1254 1.350 . S
C1249 N1257 1.427 . S
C1250 H1241 0.930 . S
C1250 C1248 1.378 . S
C1250 C1251 1.367 . S
C1251 C1250 1.367 . S
C1251 C1253 1.433 . S
C1252 C1248 1.350 . S
C1252 C1249 1.463 . S
C1252 N1256 1.427 . S
C1253 H1243 0.929 . S
C1253 C1251 1.433 . S
C1253 N1256 1.384 . S
C1254 H1245 0.929 . S
C1254 C1246 1.378 . S
C1254 C1249 1.350 . S
C1255 H1242 0.929 . S
C1255 C1247 1.433 . S
C1255 N1257 1.384 . S
N1256 C1252 1.427 . S
N1256 C1253 1.384 . S
N1257 C1249 1.427 . S
N1257 C1255 1.384 . S
H1258 C1264 0.930 . S
H1259 C1268 0.930 . S
H1260 C1273 0.929 . S
H1261 C1271 0.929 . S
H1262 C1266 0.929 . S
H1263 C1272 0.929 . S
C1264 H1258 0.930 . S
C1264 C1265 1.367 . S
C1264 C1272 1.378 . S
C1265 C1264 1.367 . S
C1265 C1273 1.433 . S
C1266 H1262 0.929 . S
C1266 C1268 1.378 . S
C1266 C1270 1.350 . S
C1267 C1270 1.463 1_655 S
C1267 C1272 1.350 . S
C1267 N1275 1.427 . S
C1268 H1259 0.930 . S
C1268 C1266 1.378 . S
C1268 C1269 1.367 . S
C1269 C1268 1.367 . S
C1269 C1271 1.433 . S
C1270 C1266 1.350 . S
C1270 C1267 1.463 1_455 S
C1270 N1274 1.427 . S
C1271 H1261 0.929 . S
C1271 C1269 1.433 . S
C1271 N1274 1.384 . S
C1272 H1263 0.929 . S
C1272 C1264 1.378 . S
C1272 C1267 1.350 . S
C1273 H1260 0.929 . S
C1273 C1265 1.433 . S
C1273 N1275 1.384 . S
N1274 C1270 1.427 . S
N1274 C1271 1.384 . S
N1275 C1267 1.427 . S
N1275 C1273 1.384 . S
H1276 C1282 0.930 . S
H1277 C1286 0.930 . S
H1278 C1291 0.929 . S
H1279 C1289 0.929 . S
H1280 C1284 0.929 . S
H1281 C1290 0.929 . S
C1282 H1276 0.930 . S
C1282 C1283 1.367 . S
C1282 C1290 1.378 . S
C1283 C1282 1.367 . S
C1283 C1291 1.433 . S
C1284 H1280 0.929 . S
C1284 C1286 1.378 . S
C1284 C1288 1.350 . S
C1285 C1288 1.463 . S
C1285 C1290 1.350 . S
C1285 N1293 1.427 . S
C1286 H1277 0.930 . S
C1286 C1284 1.378 . S
C1286 C1287 1.367 . S
C1287 C1286 1.367 . S
C1287 C1289 1.433 . S
C1288 C1284 1.350 . S
C1288 C1285 1.463 . S
C1288 N1292 1.427 . S
C1289 H1279 0.929 . S
C1289 C1287 1.433 . S
C1289 N1292 1.384 . S
C1290 H1281 0.929 . S
C1290 C1282 1.378 . S
C1290 C1285 1.350 . S
C1291 H1278 0.929 . S
C1291 C1283 1.433 . S
C1291 N1293 1.384 . S
N1292 C1288 1.427 . S
N1292 C1289 1.384 . S
N1293 C1285 1.427 . S
N1293 C1291 1.384 . S
H1294 C1300 0.930 . S
H1295 C1304 0.930 . S
H1296 C1309 0.929 . S
H1297 C1307 0.929 . S
H1298 C1302 0.929 . S
H1299 C1308 0.929 . S
C1300 H1294 0.930 . S
C1300 C1301 1.367 . S
C1300 C1308 1.378 . S
C1301 C1300 1.367 . S
C1301 C1309 1.433 . S
C1302 H1298 0.929 . S
C1302 C1304 1.378 . S
C1302 C1306 1.350 . S
C1303 C1306 1.463 . S
C1303 C1308 1.350 . S
C1303 N1311 1.427 . S
C1304 H1295 0.930 . S
C1304 C1302 1.378 . S
C1304 C1305 1.367 . S
C1305 C1304 1.367 . S
C1305 C1307 1.433 . S
C1306 C1302 1.350 . S
C1306 C1303 1.463 . S
C1306 N1310 1.427 . S
C1307 H1297 0.929 . S
C1307 C1305 1.433 . S
C1307 N1310 1.384 . S
C1308 H1299 0.929 . S
C1308 C1300 1.378 . S
C1308 C1303 1.350 . S
C1309 H1296 0.929 . S
C1309 C1301 1.433 . S
C1309 N1311 1.384 . S
N1310 C1306 1.427 . S
N1310 C1307 1.384 . S
N1311 C1303 1.427 . S
N1311 C1309 1.384 . S
H1312 C1318 0.930 . S
H1313 C1322 0.930 . S
H1314 C1327 0.929 . S
H1315 C1325 0.929 . S
H1316 C1320 0.929 . S
H1317 C1326 0.929 . S
C1318 H1312 0.930 . S
C1318 C1319 1.367 . S
C1318 C1326 1.378 . S
C1319 C1318 1.367 . S
C1319 C1327 1.433 . S
C1320 H1316 0.929 . S
C1320 C1322 1.378 . S
C1320 C1324 1.350 . S
C1321 C1324 1.463 . S
C1321 C1326 1.350 . S
C1321 N1329 1.427 . S
C1322 H1313 0.930 . S
C1322 C1320 1.378 . S
C1322 C1323 1.367 . S
C1323 C1322 1.367 . S
C1323 C1325 1.433 . S
C1324 C1320 1.350 . S
C1324 C1321 1.463 . S
C1324 N1328 1.427 . S
C1325 H1315 0.929 . S
C1325 C1323 1.433 . S
C1325 N1328 1.384 . S
C1326 H1317 0.929 . S
C1326 C1318 1.378 . S
C1326 C1321 1.350 . S
C1327 H1314 0.929 . S
C1327 C1319 1.433 . S
C1327 N1329 1.384 . S
N1328 C1324 1.427 . S
N1328 C1325 1.384 . S
N1329 C1321 1.427 . S
N1329 C1327 1.384 . S
H1330 C1336 0.930 . S
H1331 C1340 0.930 . S
H1332 C1345 0.929 . S
H1333 C1343 0.929 . S
H1334 C1338 0.929 . S
H1335 C1344 0.929 . S
C1336 H1330 0.930 . S
C1336 C1337 1.367 . S
C1336 C1344 1.378 . S
C1337 C1336 1.367 . S
C1337 C1345 1.433 . S
C1338 H1334 0.929 . S
C1338 C1340 1.378 . S
C1338 C1342 1.350 . S
C1339 C1342 1.463 . S
C1339 C1344 1.350 . S
C1339 N1347 1.427 . S
C1340 H1331 0.930 . S
C1340 C1338 1.378 . S
C1340 C1341 1.367 . S
C1341 C1340 1.367 . S
C1341 C1343 1.433 . S
C1342 C1338 1.350 . S
C1342 C1339 1.463 . S
C1342 N1346 1.427 . S
C1343 H1333 0.929 . S
C1343 C1341 1.433 . S
C1343 N1346 1.384 . S
C1344 H1335 0.929 . S
C1344 C1336 1.378 . S
C1344 C1339 1.350 . S
C1345 H1332 0.929 . S
C1345 C1337 1.433 . S
C1345 N1347 1.384 . S
N1346 C1342 1.427 . S
N1346 C1343 1.384 . S
N1347 C1339 1.427 . S
N1347 C1345 1.384 . S
H1348 C1354 0.930 . S
H1349 C1358 0.930 . S
H1350 C1363 0.929 . S
H1351 C1361 0.929 . S
H1352 C1356 0.929 . S
H1353 C1362 0.929 . S
C1354 H1348 0.930 . S
C1354 C1355 1.367 . S
C1354 C1362 1.378 . S
C1355 C1354 1.367 . S
C1355 C1363 1.433 . S
C1356 H1352 0.929 . S
C1356 C1358 1.378 . S
C1356 C1360 1.350 . S
C1357 C1360 1.463 . S
C1357 C1362 1.350 . S
C1357 N1365 1.427 . S
C1358 H1349 0.930 . S
C1358 C1356 1.378 . S
C1358 C1359 1.367 . S
C1359 C1358 1.367 . S
C1359 C1361 1.433 . S
C1360 C1356 1.350 . S
C1360 C1357 1.463 . S
C1360 N1364 1.427 . S
C1361 H1351 0.929 . S
C1361 C1359 1.433 . S
C1361 N1364 1.384 . S
C1362 H1353 0.929 . S
C1362 C1354 1.378 . S
C1362 C1357 1.350 . S
C1363 H1350 0.929 . S
C1363 C1355 1.433 . S
C1363 N1365 1.384 . S
N1364 C1360 1.427 . S
N1364 C1361 1.384 . S
N1365 C1357 1.427 . S
N1365 C1363 1.384 . S
H1366 C1372 0.930 . S
H1367 C1376 0.930 . S
H1368 C1381 0.929 . S
H1369 C1379 0.929 . S
H1370 C1374 0.929 . S
H1371 C1380 0.929 . S
C1372 H1366 0.930 . S
C1372 C1373 1.367 . S
C1372 C1380 1.378 . S
C1373 C1372 1.367 . S
C1373 C1381 1.433 . S
C1374 H1370 0.929 . S
C1374 C1376 1.378 . S
C1374 C1378 1.350 . S
C1375 C1378 1.463 . S
C1375 C1380 1.350 . S
C1375 N1383 1.427 . S
C1376 H1367 0.930 . S
C1376 C1374 1.378 . S
C1376 C1377 1.367 . S
C1377 C1376 1.367 . S
C1377 C1379 1.433 . S
C1378 C1374 1.350 . S
C1378 C1375 1.463 . S
C1378 N1382 1.427 . S
C1379 H1369 0.929 . S
C1379 C1377 1.433 . S
C1379 N1382 1.384 . S
C1380 H1371 0.929 . S
C1380 C1372 1.378 . S
C1380 C1375 1.350 . S
C1381 H1368 0.929 . S
C1381 C1373 1.433 . S
C1381 N1383 1.384 . S
N1382 C1378 1.427 . S
N1382 C1379 1.384 . S
N1383 C1375 1.427 . S
N1383 C1381 1.384 . S
H1384 C1390 0.930 . S
H1385 C1394 0.930 . S
H1386 C1399 0.929 . S
H1387 C1397 0.929 . S
H1388 C1392 0.929 . S
H1389 C1398 0.929 . S
C1390 H1384 0.930 . S
C1390 C1391 1.367 . S
C1390 C1398 1.378 . S
C1391 C1390 1.367 . S
C1391 C1399 1.433 . S
C1392 H1388 0.929 . S
C1392 C1394 1.378 . S
C1392 C1396 1.350 . S
C1393 C1396 1.463 . S
C1393 C1398 1.350 . S
C1393 N1401 1.427 . S
C1394 H1385 0.930 . S
C1394 C1392 1.378 . S
C1394 C1395 1.367 . S
C1395 C1394 1.367 . S
C1395 C1397 1.433 . S
C1396 C1392 1.350 . S
C1396 C1393 1.463 . S
C1396 N1400 1.427 . S
C1397 H1387 0.929 . S
C1397 C1395 1.433 . S
C1397 N1400 1.384 . S
C1398 H1389 0.929 . S
C1398 C1390 1.378 . S
C1398 C1393 1.350 . S
C1399 H1386 0.929 . S
C1399 C1391 1.433 . S
C1399 N1401 1.384 . S
N1400 C1396 1.427 . S
N1400 C1397 1.384 . S
N1401 C1393 1.427 . S
N1401 C1399 1.384 . S
H1402 C1408 0.930 . S
H1403 C1412 0.930 . S
H1404 C1417 0.929 . S
H1405 C1415 0.929 . S
H1406 C1410 0.929 . S
H1407 C1416 0.929 . S
C1408 H1402 0.930 . S
C1408 C1409 1.367 . S
C1408 C1416 1.378 . S
C1409 C1408 1.367 . S
C1409 C1417 1.433 . S
C1410 H1406 0.929 . S
C1410 C1412 1.378 . S
C1410 C1414 1.350 . S
C1411 C1414 1.463 . S
C1411 C1416 1.350 . S
C1411 N1419 1.427 . S
C1412 H1403 0.930 . S
C1412 C1410 1.378 . S
C1412 C1413 1.367 . S
C1413 C1412 1.367 . S
C1413 C1415 1.433 . S
C1414 C1410 1.350 . S
C1414 C1411 1.463 . S
C1414 N1418 1.427 . S
C1415 H1405 0.929 . S
C1415 C1413 1.433 . S
C1415 N1418 1.384 . S
C1416 H1407 0.929 . S
C1416 C1408 1.378 . S
C1416 C1411 1.350 . S
C1417 H1404 0.929 . S
C1417 C1409 1.433 . S
C1417 N1419 1.384 . S
N1418 C1414 1.427 . S
N1418 C1415 1.384 . S
N1419 C1411 1.427 . S
N1419 C1417 1.384 . S
H1420 C1426 0.930 . S
H1421 C1430 0.930 . S
H1422 C1435 0.929 . S
H1423 C1433 0.929 . S
H1424 C1428 0.929 . S
H1425 C1434 0.929 . S
C1426 H1420 0.930 . S
C1426 C1427 1.367 . S
C1426 C1434 1.378 . S
C1427 C1426 1.367 . S
C1427 C1435 1.433 . S
C1428 H1424 0.929 . S
C1428 C1430 1.378 . S
C1428 C1432 1.350 . S
C1429 C1432 1.463 . S
C1429 C1434 1.350 . S
C1429 N1437 1.427 . S
C1430 H1421 0.930 . S
C1430 C1428 1.378 . S
C1430 C1431 1.367 . S
C1431 C1430 1.367 . S
C1431 C1433 1.433 . S
C1432 C1428 1.350 . S
C1432 C1429 1.463 . S
C1432 N1436 1.427 . S
C1433 H1423 0.929 . S
C1433 C1431 1.433 . S
C1433 N1436 1.384 . S
C1434 H1425 0.929 . S
C1434 C1426 1.378 . S
C1434 C1429 1.350 . S
C1435 H1422 0.929 . S
C1435 C1427 1.433 . S
C1435 N1437 1.384 . S
N1436 C1432 1.427 . S
N1436 C1433 1.384 . S
N1437 C1429 1.427 . S
N1437 C1435 1.384 . S
H1438 C1444 0.930 . S
H1439 C1448 0.930 . S
H1440 C1453 0.929 . S
H1441 C1451 0.929 . S
H1442 C1446 0.929 . S
H1443 C1452 0.929 . S
C1444 H1438 0.930 . S
C1444 C1445 1.367 . S
C1444 C1452 1.378 . S
C1445 C1444 1.367 . S
C1445 C1453 1.433 . S
C1446 H1442 0.929 . S
C1446 C1448 1.378 . S
C1446 C1450 1.350 . S
C1447 C1450 1.463 . S
C1447 C1452 1.350 . S
C1447 N1455 1.427 . S
C1448 H1439 0.930 . S
C1448 C1446 1.378 . S
C1448 C1449 1.367 . S
C1449 C1448 1.367 . S
C1449 C1451 1.433 . S
C1450 C1446 1.350 . S
C1450 C1447 1.463 . S
C1450 N1454 1.427 . S
C1451 H1441 0.929 . S
C1451 C1449 1.433 . S
C1451 N1454 1.384 . S
C1452 H1443 0.929 . S
C1452 C1444 1.378 . S
C1452 C1447 1.350 . S
C1453 H1440 0.929 . S
C1453 C1445 1.433 . S
C1453 N1455 1.384 . S
N1454 C1450 1.427 . S
N1454 C1451 1.384 . S
N1455 C1447 1.427 . S
N1455 C1453 1.384 . S
H1456 C1462 0.930 . S
H1457 C1466 0.930 . S
H1458 C1471 0.929 . S
H1459 C1469 0.929 . S
H1460 C1464 0.929 . S
H1461 C1470 0.929 . S
C1462 H1456 0.930 . S
C1462 C1463 1.367 . S
C1462 C1470 1.378 . S
C1463 C1462 1.367 . S
C1463 C1471 1.433 . S
C1464 H1460 0.929 . S
C1464 C1466 1.378 . S
C1464 C1468 1.350 . S
C1465 C1468 1.463 . S
C1465 C1470 1.350 . S
C1465 N1473 1.427 . S
C1466 H1457 0.930 . S
C1466 C1464 1.378 . S
C1466 C1467 1.367 . S
C1467 C1466 1.367 . S
C1467 C1469 1.433 . S
C1468 C1464 1.350 . S
C1468 C1465 1.463 . S
C1468 N1472 1.427 . S
C1469 H1459 0.929 . S
C1469 C1467 1.433 . S
C1469 N1472 1.384 . S
C1470 H1461 0.929 . S
C1470 C1462 1.378 . S
C1470 C1465 1.350 . S
C1471 H1458 0.929 . S
C1471 C1463 1.433 . S
C1471 N1473 1.384 . S
N1472 C1468 1.427 . S
N1472 C1469 1.384 . S
N1473 C1465 1.427 . S
N1473 C1471 1.384 . S
H1474 C1480 0.930 . S
H1475 C1484 0.930 . S
H1476 C1489 0.929 . S
H1477 C1487 0.929 . S
H1478 C1482 0.929 . S
H1479 C1488 0.929 . S
C1480 H1474 0.930 . S
C1480 C1481 1.367 . S
C1480 C1488 1.378 . S
C1481 C1480 1.367 . S
C1481 C1489 1.433 . S
C1482 H1478 0.929 . S
C1482 C1484 1.378 . S
C1482 C1486 1.350 . S
C1483 C1486 1.463 . S
C1483 C1488 1.350 . S
C1483 N1491 1.427 . S
C1484 H1475 0.930 . S
C1484 C1482 1.378 . S
C1484 C1485 1.367 . S
C1485 C1484 1.367 . S
C1485 C1487 1.433 . S
C1486 C1482 1.350 . S
C1486 C1483 1.463 . S
C1486 N1490 1.427 . S
C1487 H1477 0.929 . S
C1487 C1485 1.433 . S
C1487 N1490 1.384 . S
C1488 H1479 0.929 . S
C1488 C1480 1.378 . S
C1488 C1483 1.350 . S
C1489 H1476 0.929 . S
C1489 C1481 1.433 . S
C1489 N1491 1.384 . S
N1490 C1486 1.427 . S
N1490 C1487 1.384 . S
N1491 C1483 1.427 . S
N1491 C1489 1.384 . S
H1492 C1498 0.930 . S
H1493 C1502 0.930 . S
H1494 C1507 0.929 . S
H1495 C1505 0.929 . S
H1496 C1500 0.929 . S
H1497 C1506 0.929 . S
C1498 H1492 0.930 . S
C1498 C1499 1.367 . S
C1498 C1506 1.378 . S
C1499 C1498 1.367 . S
C1499 C1507 1.433 . S
C1500 H1496 0.929 . S
C1500 C1502 1.378 . S
C1500 C1504 1.350 . S
C1501 C1504 1.463 . S
C1501 C1506 1.350 . S
C1501 N1509 1.427 . S
C1502 H1493 0.930 . S
C1502 C1500 1.378 . S
C1502 C1503 1.367 . S
C1503 C1502 1.367 . S
C1503 C1505 1.433 . S
C1504 C1500 1.350 . S
C1504 C1501 1.463 . S
C1504 N1508 1.427 . S
C1505 H1495 0.929 . S
C1505 C1503 1.433 . S
C1505 N1508 1.384 . S
C1506 H1497 0.929 . S
C1506 C1498 1.378 . S
C1506 C1501 1.350 . S
C1507 H1494 0.929 . S
C1507 C1499 1.433 . S
C1507 N1509 1.384 . S
N1508 C1504 1.427 . S
N1508 C1505 1.384 . S
N1509 C1501 1.427 . S
N1509 C1507 1.384 . S
H1510 C1516 0.930 . S
H1511 C1520 0.930 . S
H1512 C1525 0.929 . S
H1513 C1523 0.929 . S
H1514 C1518 0.929 . S
H1515 C1524 0.929 . S
C1516 H1510 0.930 . S
C1516 C1517 1.367 . S
C1516 C1524 1.378 . S
C1517 C1516 1.367 . S
C1517 C1525 1.433 . S
C1518 H1514 0.929 . S
C1518 C1520 1.378 . S
C1518 C1522 1.350 . S
C1519 C1522 1.463 . S
C1519 C1524 1.350 . S
C1519 N1527 1.427 . S
C1520 H1511 0.930 . S
C1520 C1518 1.378 . S
C1520 C1521 1.367 . S
C1521 C1520 1.367 . S
C1521 C1523 1.433 . S
C1522 C1518 1.350 . S
C1522 C1519 1.463 . S
C1522 N1526 1.427 . S
C1523 H1513 0.929 . S
C1523 C1521 1.433 . S
C1523 N1526 1.384 . S
C1524 H1515 0.929 . S
C1524 C1516 1.378 . S
C1524 C1519 1.350 . S
C1525 H1512 0.929 . S
C1525 C1517 1.433 . S
C1525 N1527 1.384 . S
N1526 C1522 1.427 . S
N1526 C1523 1.384 . S
N1527 C1519 1.427 . S
N1527 C1525 1.384 . S
H1528 C1534 0.930 . S
H1529 C1538 0.930 . S
H1530 C1543 0.929 . S
H1531 C1541 0.929 . S
H1532 C1536 0.929 . S
H1533 C1542 0.929 . S
C1534 H1528 0.930 . S
C1534 C1535 1.367 . S
C1534 C1542 1.378 . S
C1535 C1534 1.367 . S
C1535 C1543 1.433 . S
C1536 H1532 0.929 . S
C1536 C1538 1.378 . S
C1536 C1540 1.350 . S
C1537 C1540 1.463 . S
C1537 C1542 1.350 . S
C1537 N1545 1.427 . S
C1538 H1529 0.930 . S
C1538 C1536 1.378 . S
C1538 C1539 1.367 . S
C1539 C1538 1.367 . S
C1539 C1541 1.433 . S
C1540 C1536 1.350 . S
C1540 C1537 1.463 . S
C1540 N1544 1.427 . S
C1541 H1531 0.929 . S
C1541 C1539 1.433 . S
C1541 N1544 1.384 . S
C1542 H1533 0.929 . S
C1542 C1534 1.378 . S
C1542 C1537 1.350 . S
C1543 H1530 0.929 . S
C1543 C1535 1.433 . S
C1543 N1545 1.384 . S
N1544 C1540 1.427 . S
N1544 C1541 1.384 . S
N1545 C1537 1.427 . S
N1545 C1543 1.384 . S
H1546 C1552 0.930 . S
H1547 C1556 0.930 . S
H1548 C1561 0.929 . S
H1549 C1559 0.929 . S
H1550 C1554 0.929 . S
H1551 C1560 0.929 . S
C1552 H1546 0.930 . S
C1552 C1553 1.367 . S
C1552 C1560 1.378 . S
C1553 C1552 1.367 . S
C1553 C1561 1.433 . S
C1554 H1550 0.929 . S
C1554 C1556 1.378 . S
C1554 C1558 1.350 . S
C1555 C1558 1.463 . S
C1555 C1560 1.350 . S
C1555 N1563 1.427 . S
C1556 H1547 0.930 . S
C1556 C1554 1.378 . S
C1556 C1557 1.367 . S
C1557 C1556 1.367 . S
C1557 C1559 1.433 . S
C1558 C1554 1.350 . S
C1558 C1555 1.463 . S
C1558 N1562 1.427 . S
C1559 H1549 0.929 . S
C1559 C1557 1.433 . S
C1559 N1562 1.384 . S
C1560 H1551 0.929 . S
C1560 C1552 1.378 . S
C1560 C1555 1.350 . S
C1561 H1548 0.929 . S
C1561 C1553 1.433 . S
C1561 N1563 1.384 . S
N1562 C1558 1.427 . S
N1562 C1559 1.384 . S
N1563 C1555 1.427 . S
N1563 C1561 1.384 . S
H1564 C1570 0.930 . S
H1565 C1574 0.930 . S
H1566 C1579 0.929 . S
H1567 C1577 0.929 . S
H1568 C1572 0.929 . S
H1569 C1578 0.929 . S
C1570 H1564 0.930 . S
C1570 C1571 1.367 . S
C1570 C1578 1.378 . S
C1571 C1570 1.367 . S
C1571 C1579 1.433 . S
C1572 H1568 0.929 . S
C1572 C1574 1.378 . S
C1572 C1576 1.350 . S
C1573 C1576 1.463 . S
C1573 C1578 1.350 . S
C1573 N1581 1.427 . S
C1574 H1565 0.930 . S
C1574 C1572 1.378 . S
C1574 C1575 1.367 . S
C1575 C1574 1.367 . S
C1575 C1577 1.433 . S
C1576 C1572 1.350 . S
C1576 C1573 1.463 . S
C1576 N1580 1.427 . S
C1577 H1567 0.929 . S
C1577 C1575 1.433 . S
C1577 N1580 1.384 . S
C1578 H1569 0.929 . S
C1578 C1570 1.378 . S
C1578 C1573 1.350 . S
C1579 H1566 0.929 . S
C1579 C1571 1.433 . S
C1579 N1581 1.384 . S
N1580 C1576 1.427 . S
N1580 C1577 1.384 . S
N1581 C1573 1.427 . S
N1581 C1579 1.384 . S
H1582 C1588 0.930 . S
H1583 C1592 0.930 . S
H1584 C1597 0.929 . S
H1585 C1595 0.929 . S
H1586 C1590 0.929 . S
H1587 C1596 0.929 . S
C1588 H1582 0.930 . S
C1588 C1589 1.367 . S
C1588 C1596 1.378 . S
C1589 C1588 1.367 . S
C1589 C1597 1.433 . S
C1590 H1586 0.929 . S
C1590 C1592 1.378 . S
C1590 C1594 1.350 . S
C1591 C1594 1.463 . S
C1591 C1596 1.350 . S
C1591 N1599 1.427 . S
C1592 H1583 0.930 . S
C1592 C1590 1.378 . S
C1592 C1593 1.367 . S
C1593 C1592 1.367 . S
C1593 C1595 1.433 . S
C1594 C1590 1.350 . S
C1594 C1591 1.463 . S
C1594 N1598 1.427 . S
C1595 H1585 0.929 . S
C1595 C1593 1.433 . S
C1595 N1598 1.384 . S
C1596 H1587 0.929 . S
C1596 C1588 1.378 . S
C1596 C1591 1.350 . S
C1597 H1584 0.929 . S
C1597 C1589 1.433 . S
C1597 N1599 1.384 . S
N1598 C1594 1.427 . S
N1598 C1595 1.384 . S
N1599 C1591 1.427 . S
N1599 C1597 1.384 . S
C455 C11 1.209 . S
C459 C67 1.222 . S
C473 C25 1.211 . S
C477 C81 1.223 . S
C491 C95 1.207 . S
C495 C39 1.222 . S
C509 C109 1.201 . S
C513 C53 1.212 . S
C527 C123 1.202 . S
C531 C179 1.190 . S
C545 C131 1.200 . S
C549 C187 1.175 . S
C563 C207 1.181 . S
C567 C151 1.199 . S
C581 C159 1.194 . S
C585 C215 1.184 . S
C599 C291 1.200 . S
C603 C235 1.215 . S
C617 C305 1.219 . S
C621 C249 1.202 . S
C635 C263 1.213 . S
C639 C319 1.200 . S
C653 C333 1.222 . S
C657 C277 1.214 . S
C671 C347 1.202 . S
C675 C403 1.193 . S
C689 C411 1.200 . S
C693 C355 1.176 . S
C707 C431 1.200 . S
C711 C375 1.197 . S
C725 C383 1.188 . S
C729 C439 1.191 . S
C743 C4 1.465 . S
C747 C382 1.488 . S
C761 C124 1.530 . S
C765 C18 1.469 . S
C779 C32 1.463 . S
C783 C354 1.489 . S
C797 C46 1.468 . S
C801 C152 1.530 . S
C815 C410 1.494 . S
C819 C60 1.456 . S
C833 C208 1.528 . S
C837 C74 1.460 . S
C851 C88 1.465 . S
C855 C438 1.488 . S
C869 C102 1.458 . S
C873 C180 1.528 . S
C887 C278 1.367 . S
C891 C116 1.320 . S
C905 C138 1.363 . S
C909 C12 1.382 . S
C923 C250 1.366 . S
C927 C144 1.312 . S
C941 C166 1.362 . S
C945 C40 1.381 . S
C959 C306 1.367 . S
C963 C172 1.322 . S
C977 C194 1.365 . S
C981 C96 1.382 . S
C995 C334 1.367 . S
C999 C200 1.320 . S
C1013 C222 1.362 . S
C1017 C68 1.381 . S
C1031 C158 1.496 . S
C1035 C228 1.455 . S
C1049 C348 1.529 . S
C1053 C242 1.454 . S
C1067 C130 1.488 . S
C1071 C256 1.465 . S
C1085 C270 1.458 . S
C1089 C376 1.529 . S
C1103 C186 1.495 . S
C1107 C284 1.456 . S
C1121 C432 1.528 . S
C1125 C298 1.458 . S
C1139 C214 1.494 . S
C1143 C312 1.458 . S
C1157 C326 1.469 . S
C1161 C404 1.530 . S
C1175 C340 1.306 . S
C1179 C54 1.366 . S
C1193 C362 1.362 . S
C1197 C236 1.381 . S
C1211 C368 1.312 . S
C1215 C26 1.366 . S
C1229 C390 1.367 . S
C1233 C264 1.383 . S
C1247 C396 1.313 . S
C1251 C82 1.367 . S
C1265 C320 1.382 . S
C1269 C418 1.363 . S
C1283 C110 1.367 . S
C1287 C424 1.322 . S
C1301 C446 1.365 . S
C1305 C292 1.382 . S
C1319 C5 1.066 . S
C1323 C103 1.072 . S
C1337 C19 1.083 . S
C1341 C61 1.083 . S
C1355 C33 1.069 . S
C1359 C75 1.065 . S
C1373 C89 1.071 . S
C1377 C47 1.077 . S
C1391 C221 1.182 . S
C1395 C117 1.071 . S
C1409 C173 1.055 . S
C1413 C137 1.166 . S
C1427 C193 1.168 . S
C1431 C145 1.054 . S
C1445 C201 1.068 . S
C1449 C165 1.182 . S
C1463 C229 1.059 . S
C1467 C327 1.065 . S
C1481 C285 1.072 . S
C1485 C243 1.068 . S
C1499 C299 1.069 . S
C1503 C257 1.073 . S
C1517 C313 1.071 . S
C1521 C271 1.067 . S
C1535 C445 1.181 . S
C1539 C341 1.077 . S
C1553 C361 1.179 . S
C1557 C397 1.081 . S
C1571 C369 1.052 . S
C1575 C417 1.175 . S
C1589 C389 1.162 . S
C1593 C425 1.066 . S
