# Generated by pormake.
# Topology lcv-a, (4)-cn, num edge types: 1
# Building blocks:
#     Node 0, Type 0, BuildingBlock: TATPOV_clean_sbu_0, # of connection points: 4
#     Node 1, Type 0, BuildingBlock: TATPOV_clean_sbu_0, # of connection points: 4
#     Node 2, Type 0, BuildingBlock: TATPOV_clean_sbu_0, # of connection points: 4
#     Node 3, Type 0, BuildingBlock: TATPOV_clean_sbu_0, # of connection points: 4
#     Node 4, Type 0, BuildingBlock: TATPOV_clean_sbu_0, # of connection points: 4
#     Node 5, Type 0, BuildingBlock: TATPOV_clean_sbu_0, # of connection points: 4
#     Node 6, Type 0, BuildingBlock: TATPOV_clean_sbu_0, # of connection points: 4
#     Node 7, Type 0, BuildingBlock: TATPOV_clean_sbu_0, # of connection points: 4
#     Node 8, Type 0, BuildingBlock: TATPOV_clean_sbu_0, # of connection points: 4
#     Node 9, Type 0, BuildingBlock: TATPOV_clean_sbu_0, # of connection points: 4
#     Node 10, Type 0, BuildingBlock: TATPOV_clean_sbu_0, # of connection points: 4
#     Node 11, Type 0, BuildingBlock: TATPOV_clean_sbu_0, # of connection points: 4
#     Node 12, Type 0, BuildingBlock: TATPOV_clean_sbu_0, # of connection points: 4
#     Node 13, Type 0, BuildingBlock: TATPOV_clean_sbu_0, # of connection points: 4
#     Node 14, Type 0, BuildingBlock: TATPOV_clean_sbu_0, # of connection points: 4
#     Node 15, Type 0, BuildingBlock: TATPOV_clean_sbu_0, # of connection points: 4
#     Node 16, Type 0, BuildingBlock: TATPOV_clean_sbu_0, # of connection points: 4
#     Node 17, Type 0, BuildingBlock: TATPOV_clean_sbu_0, # of connection points: 4
#     Node 18, Type 0, BuildingBlock: TATPOV_clean_sbu_0, # of connection points: 4
#     Node 19, Type 0, BuildingBlock: TATPOV_clean_sbu_0, # of connection points: 4
#     Node 20, Type 0, BuildingBlock: TATPOV_clean_sbu_0, # of connection points: 4
#     Node 21, Type 0, BuildingBlock: TATPOV_clean_sbu_0, # of connection points: 4
#     Node 22, Type 0, BuildingBlock: TATPOV_clean_sbu_0, # of connection points: 4
#     Node 23, Type 0, BuildingBlock: TATPOV_clean_sbu_0, # of connection points: 4
#     Node 24, Type 0, BuildingBlock: TATPOV_clean_sbu_0, # of connection points: 4
#     Node 25, Type 0, BuildingBlock: TATPOV_clean_sbu_0, # of connection points: 4
#     Node 26, Type 0, BuildingBlock: TATPOV_clean_sbu_0, # of connection points: 4
#     Node 27, Type 0, BuildingBlock: TATPOV_clean_sbu_0, # of connection points: 4
#     Node 28, Type 0, BuildingBlock: TATPOV_clean_sbu_0, # of connection points: 4
#     Node 29, Type 0, BuildingBlock: TATPOV_clean_sbu_0, # of connection points: 4
#     Node 30, Type 0, BuildingBlock: TATPOV_clean_sbu_0, # of connection points: 4
#     Node 31, Type 0, BuildingBlock: TATPOV_clean_sbu_0, # of connection points: 4
#     Node 32, Type 0, BuildingBlock: TATPOV_clean_sbu_0, # of connection points: 4
#     Node 33, Type 0, BuildingBlock: TATPOV_clean_sbu_0, # of connection points: 4
#     Node 34, Type 0, BuildingBlock: TATPOV_clean_sbu_0, # of connection points: 4
#     Node 35, Type 0, BuildingBlock: TATPOV_clean_sbu_0, # of connection points: 4
#     Node 36, Type 0, BuildingBlock: TATPOV_clean_sbu_0, # of connection points: 4
#     Node 37, Type 0, BuildingBlock: TATPOV_clean_sbu_0, # of connection points: 4
#     Node 38, Type 0, BuildingBlock: TATPOV_clean_sbu_0, # of connection points: 4
#     Node 39, Type 0, BuildingBlock: TATPOV_clean_sbu_0, # of connection points: 4
#     Node 40, Type 0, BuildingBlock: TATPOV_clean_sbu_0, # of connection points: 4
#     Node 41, Type 0, BuildingBlock: TATPOV_clean_sbu_0, # of connection points: 4
#     Node 42, Type 0, BuildingBlock: TATPOV_clean_sbu_0, # of connection points: 4
#     Node 43, Type 0, BuildingBlock: TATPOV_clean_sbu_0, # of connection points: 4
#     Node 44, Type 0, BuildingBlock: TATPOV_clean_sbu_0, # of connection points: 4
#     Node 45, Type 0, BuildingBlock: TATPOV_clean_sbu_0, # of connection points: 4
#     Node 46, Type 0, BuildingBlock: TATPOV_clean_sbu_0, # of connection points: 4
#     Node 47, Type 0, BuildingBlock: TATPOV_clean_sbu_0, # of connection points: 4
#     Edge 48, Type (0, 0), BuildingBlock: OJICUG_clean_linker_0, # of connection points: 2
#     Edge 49, Type (0, 0), BuildingBlock: OJICUG_clean_linker_0, # of connection points: 2
#     Edge 50, Type (0, 0), BuildingBlock: OJICUG_clean_linker_0, # of connection points: 2
#     Edge 51, Type (0, 0), BuildingBlock: OJICUG_clean_linker_0, # of connection points: 2
#     Edge 52, Type (0, 0), BuildingBlock: OJICUG_clean_linker_0, # of connection points: 2
#     Edge 53, Type (0, 0), BuildingBlock: OJICUG_clean_linker_0, # of connection points: 2
#     Edge 54, Type (0, 0), BuildingBlock: OJICUG_clean_linker_0, # of connection points: 2
#     Edge 55, Type (0, 0), BuildingBlock: OJICUG_clean_linker_0, # of connection points: 2
#     Edge 56, Type (0, 0), BuildingBlock: OJICUG_clean_linker_0, # of connection points: 2
#     Edge 57, Type (0, 0), BuildingBlock: OJICUG_clean_linker_0, # of connection points: 2
#     Edge 58, Type (0, 0), BuildingBlock: OJICUG_clean_linker_0, # of connection points: 2
#     Edge 59, Type (0, 0), BuildingBlock: OJICUG_clean_linker_0, # of connection points: 2
#     Edge 60, Type (0, 0), BuildingBlock: OJICUG_clean_linker_0, # of connection points: 2
#     Edge 61, Type (0, 0), BuildingBlock: OJICUG_clean_linker_0, # of connection points: 2
#     Edge 62, Type (0, 0), BuildingBlock: OJICUG_clean_linker_0, # of connection points: 2
#     Edge 63, Type (0, 0), BuildingBlock: OJICUG_clean_linker_0, # of connection points: 2
#     Edge 64, Type (0, 0), BuildingBlock: OJICUG_clean_linker_0, # of connection points: 2
#     Edge 65, Type (0, 0), BuildingBlock: OJICUG_clean_linker_0, # of connection points: 2
#     Edge 66, Type (0, 0), BuildingBlock: OJICUG_clean_linker_0, # of connection points: 2
#     Edge 67, Type (0, 0), BuildingBlock: OJICUG_clean_linker_0, # of connection points: 2
#     Edge 68, Type (0, 0), BuildingBlock: OJICUG_clean_linker_0, # of connection points: 2
#     Edge 69, Type (0, 0), BuildingBlock: OJICUG_clean_linker_0, # of connection points: 2
#     Edge 70, Type (0, 0), BuildingBlock: OJICUG_clean_linker_0, # of connection points: 2
#     Edge 71, Type (0, 0), BuildingBlock: OJICUG_clean_linker_0, # of connection points: 2
#     Edge 72, Type (0, 0), BuildingBlock: OJICUG_clean_linker_0, # of connection points: 2
#     Edge 73, Type (0, 0), BuildingBlock: OJICUG_clean_linker_0, # of connection points: 2
#     Edge 74, Type (0, 0), BuildingBlock: OJICUG_clean_linker_0, # of connection points: 2
#     Edge 75, Type (0, 0), BuildingBlock: OJICUG_clean_linker_0, # of connection points: 2
#     Edge 76, Type (0, 0), BuildingBlock: OJICUG_clean_linker_0, # of connection points: 2
#     Edge 77, Type (0, 0), BuildingBlock: OJICUG_clean_linker_0, # of connection points: 2
#     Edge 78, Type (0, 0), BuildingBlock: OJICUG_clean_linker_0, # of connection points: 2
#     Edge 79, Type (0, 0), BuildingBlock: OJICUG_clean_linker_0, # of connection points: 2
#     Edge 80, Type (0, 0), BuildingBlock: OJICUG_clean_linker_0, # of connection points: 2
#     Edge 81, Type (0, 0), BuildingBlock: OJICUG_clean_linker_0, # of connection points: 2
#     Edge 82, Type (0, 0), BuildingBlock: OJICUG_clean_linker_0, # of connection points: 2
#     Edge 83, Type (0, 0), BuildingBlock: OJICUG_clean_linker_0, # of connection points: 2
#     Edge 84, Type (0, 0), BuildingBlock: OJICUG_clean_linker_0, # of connection points: 2
#     Edge 85, Type (0, 0), BuildingBlock: OJICUG_clean_linker_0, # of connection points: 2
#     Edge 86, Type (0, 0), BuildingBlock: OJICUG_clean_linker_0, # of connection points: 2
#     Edge 87, Type (0, 0), BuildingBlock: OJICUG_clean_linker_0, # of connection points: 2
#     Edge 88, Type (0, 0), BuildingBlock: OJICUG_clean_linker_0, # of connection points: 2
#     Edge 89, Type (0, 0), BuildingBlock: OJICUG_clean_linker_0, # of connection points: 2
#     Edge 90, Type (0, 0), BuildingBlock: OJICUG_clean_linker_0, # of connection points: 2
#     Edge 91, Type (0, 0), BuildingBlock: OJICUG_clean_linker_0, # of connection points: 2
#     Edge 92, Type (0, 0), BuildingBlock: OJICUG_clean_linker_0, # of connection points: 2
#     Edge 93, Type (0, 0), BuildingBlock: OJICUG_clean_linker_0, # of connection points: 2
#     Edge 94, Type (0, 0), BuildingBlock: OJICUG_clean_linker_0, # of connection points: 2
#     Edge 95, Type (0, 0), BuildingBlock: OJICUG_clean_linker_0, # of connection points: 2
#     Edge 96, Type (0, 0), BuildingBlock: OJICUG_clean_linker_0, # of connection points: 2
#     Edge 97, Type (0, 0), BuildingBlock: OJICUG_clean_linker_0, # of connection points: 2
#     Edge 98, Type (0, 0), BuildingBlock: OJICUG_clean_linker_0, # of connection points: 2
#     Edge 99, Type (0, 0), BuildingBlock: OJICUG_clean_linker_0, # of connection points: 2
#     Edge 100, Type (0, 0), BuildingBlock: OJICUG_clean_linker_0, # of connection points: 2
#     Edge 101, Type (0, 0), BuildingBlock: OJICUG_clean_linker_0, # of connection points: 2
#     Edge 102, Type (0, 0), BuildingBlock: OJICUG_clean_linker_0, # of connection points: 2
#     Edge 103, Type (0, 0), BuildingBlock: OJICUG_clean_linker_0, # of connection points: 2
#     Edge 104, Type (0, 0), BuildingBlock: OJICUG_clean_linker_0, # of connection points: 2
#     Edge 105, Type (0, 0), BuildingBlock: OJICUG_clean_linker_0, # of connection points: 2
#     Edge 106, Type (0, 0), BuildingBlock: OJICUG_clean_linker_0, # of connection points: 2
#     Edge 107, Type (0, 0), BuildingBlock: OJICUG_clean_linker_0, # of connection points: 2
#     Edge 108, Type (0, 0), BuildingBlock: OJICUG_clean_linker_0, # of connection points: 2
#     Edge 109, Type (0, 0), BuildingBlock: OJICUG_clean_linker_0, # of connection points: 2
#     Edge 110, Type (0, 0), BuildingBlock: OJICUG_clean_linker_0, # of connection points: 2
#     Edge 111, Type (0, 0), BuildingBlock: OJICUG_clean_linker_0, # of connection points: 2
#     Edge 112, Type (0, 0), BuildingBlock: OJICUG_clean_linker_0, # of connection points: 2
#     Edge 113, Type (0, 0), BuildingBlock: OJICUG_clean_linker_0, # of connection points: 2
#     Edge 114, Type (0, 0), BuildingBlock: OJICUG_clean_linker_0, # of connection points: 2
#     Edge 115, Type (0, 0), BuildingBlock: OJICUG_clean_linker_0, # of connection points: 2
#     Edge 116, Type (0, 0), BuildingBlock: OJICUG_clean_linker_0, # of connection points: 2
#     Edge 117, Type (0, 0), BuildingBlock: OJICUG_clean_linker_0, # of connection points: 2
#     Edge 118, Type (0, 0), BuildingBlock: OJICUG_clean_linker_0, # of connection points: 2
#     Edge 119, Type (0, 0), BuildingBlock: OJICUG_clean_linker_0, # of connection points: 2
#     Edge 120, Type (0, 0), BuildingBlock: OJICUG_clean_linker_0, # of connection points: 2
#     Edge 121, Type (0, 0), BuildingBlock: OJICUG_clean_linker_0, # of connection points: 2
#     Edge 122, Type (0, 0), BuildingBlock: OJICUG_clean_linker_0, # of connection points: 2
#     Edge 123, Type (0, 0), BuildingBlock: OJICUG_clean_linker_0, # of connection points: 2
#     Edge 124, Type (0, 0), BuildingBlock: OJICUG_clean_linker_0, # of connection points: 2
#     Edge 125, Type (0, 0), BuildingBlock: OJICUG_clean_linker_0, # of connection points: 2
#     Edge 126, Type (0, 0), BuildingBlock: OJICUG_clean_linker_0, # of connection points: 2
#     Edge 127, Type (0, 0), BuildingBlock: OJICUG_clean_linker_0, # of connection points: 2
#     Edge 128, Type (0, 0), BuildingBlock: OJICUG_clean_linker_0, # of connection points: 2
#     Edge 129, Type (0, 0), BuildingBlock: OJICUG_clean_linker_0, # of connection points: 2
#     Edge 130, Type (0, 0), BuildingBlock: OJICUG_clean_linker_0, # of connection points: 2
#     Edge 131, Type (0, 0), BuildingBlock: OJICUG_clean_linker_0, # of connection points: 2
#     Edge 132, Type (0, 0), BuildingBlock: OJICUG_clean_linker_0, # of connection points: 2
#     Edge 133, Type (0, 0), BuildingBlock: OJICUG_clean_linker_0, # of connection points: 2
#     Edge 134, Type (0, 0), BuildingBlock: OJICUG_clean_linker_0, # of connection points: 2
#     Edge 135, Type (0, 0), BuildingBlock: OJICUG_clean_linker_0, # of connection points: 2
#     Edge 136, Type (0, 0), BuildingBlock: OJICUG_clean_linker_0, # of connection points: 2
#     Edge 137, Type (0, 0), BuildingBlock: OJICUG_clean_linker_0, # of connection points: 2
#     Edge 138, Type (0, 0), BuildingBlock: OJICUG_clean_linker_0, # of connection points: 2
#     Edge 139, Type (0, 0), BuildingBlock: OJICUG_clean_linker_0, # of connection points: 2
#     Edge 140, Type (0, 0), BuildingBlock: OJICUG_clean_linker_0, # of connection points: 2
#     Edge 141, Type (0, 0), BuildingBlock: OJICUG_clean_linker_0, # of connection points: 2
#     Edge 142, Type (0, 0), BuildingBlock: OJICUG_clean_linker_0, # of connection points: 2
#     Edge 143, Type (0, 0), BuildingBlock: OJICUG_clean_linker_0, # of connection points: 2
# Relax obj value: 0.794
# Max RMSD: 0.291
# Mean RMSD: 0.288
data_MOF--net-lcv-a--node1-TATPOV_clean_sbu_0--edge1-OJICUG_clean_linker_0
_symmetry_space_group_name_H-M    P1
_symmetry_Int_Tables_number       1
_symmetry_cell_setting            triclinic
loop_
_symmetry_equiv_pos_as_xyz
'x, y, z'
_cell_length_a     65.616006
_cell_length_b     65.582698
_cell_length_c     65.627063
_cell_angle_alpha  89.370572
_cell_angle_beta   89.344548
_cell_angle_gamma 89.247585
loop_
_atom_site_label
_atom_site_type_symbol
_atom_site_fract_x
_atom_site_fract_y
_atom_site_fract_z
_atom_type_partial_charge
Zn0 Zn 0.0647 0.31782 0.19747 0.0
Zn1 Zn 0.04002 0.34576 0.20312 0.0
O2 O 0.04074 0.32414 0.22673 0.0
O3 O 0.06805 0.30481 0.22502 0.0
O4 O 0.02658 0.3697 0.2166 0.0
O5 O 0.04066 0.3079 0.17992 0.0
O6 O 0.02012 0.33456 0.18323 0.0
C7 C 0.05171 0.30975 0.23419 0.0
C8 C 0.08064 0.3502 0.17759 0.0
O9 O 0.06344 0.35667 0.1844 0.0
O10 O 0.08718 0.33296 0.18355 0.0
C11 C 0.03374 0.37492 0.23365 0.0
O12 O 0.05025 0.36565 0.24041 0.0
C13 C 0.02414 0.31725 0.1756 0.0
Zn14 Zn 0.97657 0.79994 0.45099 0.0
Zn15 Zn 0.94953 0.776 0.45376 0.0
O16 O 0.97163 0.77271 0.47639 0.0
O17 O 0.99056 0.79976 0.47792 0.0
O18 O 0.92445 0.76523 0.4677 0.0
O19 O 0.98526 0.77744 0.43015 0.0
O20 O 0.95972 0.75603 0.43312 0.0
C21 C 0.98603 0.78232 0.4848 0.0
C22 C 0.94776 0.81915 0.43112 0.0
O23 O 0.94137 0.8012 0.43523 0.0
O24 O 0.96355 0.82523 0.43991 0.0
C25 C 0.92084 0.77336 0.48488 0.0
O26 O 0.93213 0.78866 0.49051 0.0
C27 C 0.97662 0.76103 0.425 0.0
Zn28 Zn 0.48702 0.72153 0.68527 0.0
Zn29 Zn 0.51421 0.69737 0.68885 0.0
O30 O 0.51338 0.72016 0.71103 0.0
O31 O 0.48362 0.7354 0.71212 0.0
O32 O 0.52734 0.67382 0.70381 0.0
O33 O 0.50946 0.73273 0.66532 0.0
O34 O 0.53376 0.70939 0.66862 0.0
C35 C 0.50135 0.73328 0.71917 0.0
C36 C 0.47291 0.69092 0.66485 0.0
O37 O 0.4913 0.68642 0.66962 0.0
O38 O 0.46434 0.70606 0.67324 0.0
C39 C 0.51853 0.67 0.72076 0.0
O40 O 0.50148 0.67981 0.72519 0.0
C41 C 0.52708 0.72582 0.66054 0.0
Zn42 Zn 0.56433 0.22916 0.94822 0.0
Zn43 Zn 0.58894 0.2565 0.95289 0.0
O44 O 0.56917 0.25378 0.97757 0.0
O45 O 0.55058 0.22657 0.97559 0.0
O46 O 0.61221 0.27162 0.96485 0.0
O47 O 0.55326 0.2509 0.92767 0.0
O48 O 0.57399 0.27606 0.93448 0.0
C49 C 0.55534 0.24242 0.98511 0.0
C50 C 0.59671 0.21569 0.92821 0.0
O51 O 0.60054 0.23409 0.93303 0.0
O52 O 0.58187 0.20689 0.93684 0.0
C53 C 0.61833 0.2652 0.98209 0.0
O54 O 0.61081 0.2482 0.98962 0.0
C55 C 0.55894 0.2692 0.92482 0.0
Zn56 Zn 0.06975 0.7335 0.34422 0.0
Zn57 Zn 0.05034 0.70102 0.33494 0.0
O58 O 0.0498 0.72165 0.31099 0.0
O59 O 0.07017 0.74701 0.31655 0.0
O60 O 0.0378 0.67699 0.32162 0.0
O61 O 0.04516 0.73871 0.36363 0.0
O62 O 0.02942 0.71032 0.3559 0.0
C63 C 0.05768 0.73836 0.30506 0.0
C64 C 0.0917 0.69915 0.35766 0.0
O65 O 0.07595 0.69063 0.35051 0.0
O66 O 0.09399 0.71812 0.35497 0.0
C67 C 0.04432 0.67225 0.30396 0.0
O68 O 0.06052 0.68139 0.29652 0.0
C69 C 0.03025 0.72671 0.36598 0.0
Zn70 Zn 0.54544 0.82033 0.57877 0.0
Zn71 Zn 0.58105 0.80507 0.57116 0.0
O72 O 0.56302 0.8015 0.54588 0.0
O73 O 0.53426 0.8181 0.55053 0.0
O74 O 0.60781 0.79456 0.56065 0.0
O75 O 0.54228 0.796 0.59883 0.0
O76 O 0.57309 0.78374 0.59228 0.0
C77 C 0.5455 0.80692 0.53942 0.0
C78 C 0.5753 0.84683 0.59256 0.0
O79 O 0.58656 0.83216 0.58615 0.0
O80 O 0.55635 0.84658 0.58924 0.0
C81 C 0.61504 0.80034 0.54354 0.0
O82 O 0.60605 0.8154 0.53361 0.0
C83 C 0.5562 0.78272 0.60185 0.0
Zn84 Zn 0.46676 0.3064 0.8455 0.0
Zn85 Zn 0.48653 0.33865 0.84156 0.0
O86 O 0.4902 0.31931 0.8168 0.0
O87 O 0.46683 0.29589 0.81692 0.0
O88 O 0.49951 0.3642 0.83127 0.0
O89 O 0.49109 0.29802 0.86376 0.0
O90 O 0.50574 0.32806 0.86308 0.0
C91 C 0.48217 0.30394 0.80842 0.0
C92 C 0.4443 0.33738 0.86358 0.0
O93 O 0.46005 0.34685 0.85718 0.0
O94 O 0.44204 0.31898 0.8586 0.0
C95 C 0.49506 0.37142 0.81382 0.0
O96 O 0.48027 0.36319 0.80353 0.0
C97 C 0.50504 0.3098 0.86961 0.0
Zn98 Zn 0.97983 0.22854 0.09881 0.0
Zn99 Zn 0.95062 0.2524 0.09292 0.0
O100 O 0.96912 0.25134 0.06723 0.0
O101 O 0.9931 0.22827 0.07108 0.0
O102 O 0.92537 0.26565 0.08199 0.0
O103 O 0.98765 0.25113 0.11908 0.0
O104 O 0.96348 0.27326 0.1108 0.0
C105 C 0.98491 0.24214 0.0603 0.0
C106 C 0.94839 0.21102 0.11791 0.0
O107 O 0.94179 0.22871 0.11262 0.0
O108 O 0.9649 0.20449 0.11011 0.0
C109 C 0.91836 0.2586 0.06557 0.0
O110 O 0.92656 0.2419 0.05801 0.0
C111 C 0.9792 0.26857 0.12102 0.0
Zn112 Zn 0.19211 0.06425 0.31802 0.0
Zn113 Zn 0.1973 0.03895 0.3458 0.0
O114 O 0.22124 0.03964 0.32456 0.0
O115 O 0.21986 0.06699 0.3053 0.0
O116 O 0.2099 0.02392 0.36929 0.0
O117 O 0.17396 0.04102 0.30745 0.0
O118 O 0.17684 0.0201 0.33383 0.0
C119 C 0.2289 0.05059 0.31028 0.0
C120 C 0.17295 0.08009 0.35121 0.0
O121 O 0.17946 0.06269 0.35744 0.0
O122 O 0.17885 0.08664 0.33397 0.0
C123 C 0.22715 0.02998 0.37519 0.0
O124 O 0.23476 0.04665 0.36702 0.0
C125 C 0.16928 0.0245 0.31659 0.0
Zn126 Zn 0.23365 0.94006 0.56963 0.0
Zn127 Zn 0.2583 0.94215 0.59598 0.0
O128 O 0.26032 0.9652 0.57373 0.0
O129 O 0.23268 0.96733 0.55561 0.0
O130 O 0.2698 0.95601 0.62031 0.0
O131 O 0.25639 0.91941 0.5603 0.0
O132 O 0.27845 0.92174 0.58525 0.0
C133 C 0.25011 0.97403 0.55966 0.0
C134 C 0.21574 0.9195 0.59894 0.0
O135 O 0.23376 0.92342 0.60494 0.0
O136 O 0.20907 0.92873 0.58335 0.0
C137 C 0.26091 0.97291 0.62404 0.0
O138 O 0.24422 0.97763 0.61404 0.0
C139 C 0.27315 0.91404 0.56848 0.0
Zn140 Zn 0.35552 0.99827 0.80486 0.0
Zn141 Zn 0.34338 0.0188 0.83297 0.0
O142 O 0.32898 0.02954 0.80669 0.0
O143 O 0.34172 0.01151 0.7815 0.0
O144 O 0.32578 0.03034 0.85513 0.0
O145 O 0.3833 0.00965 0.81378 0.0
O146 O 0.36996 0.03361 0.83321 0.0
C147 C 0.3303 0.02582 0.78769 0.0
C148 C 0.35057 0.97132 0.83297 0.0
O149 O 0.3509 0.98865 0.84167 0.0
O150 O 0.34567 0.97099 0.81446 0.0
C151 C 0.30706 0.02562 0.85546 0.0
O152 O 0.30044 0.01245 0.8422 0.0
C153 C 0.38541 0.02547 0.82457 0.0
Zn154 Zn 0.30449 0.07959 0.03973 0.0
Zn155 Zn 0.2853 0.07196 0.07294 0.0
O156 O 0.2784 0.04986 0.05186 0.0
O157 O 0.29937 0.05301 0.02592 0.0
O158 O 0.27312 0.06068 0.0986 0.0
O159 O 0.2832 0.10294 0.03665 0.0
O160 O 0.2682 0.09702 0.06635 0.0
C161 C 0.2847 0.04383 0.03446 0.0
C162 C 0.33038 0.0868 0.07191 0.0
O163 O 0.31402 0.08163 0.08121 0.0
O164 O 0.33126 0.08562 0.05269 0.0
C165 C 0.28023 0.04426 0.10628 0.0
O166 O 0.29605 0.03533 0.09754 0.0
C167 C 0.26973 0.10742 0.04998 0.0
Zn168 Zn 0.20846 0.98166 0.2374 0.0
Zn169 Zn 0.21092 0.00363 0.20811 0.0
O170 O 0.23208 0.01016 0.23076 0.0
O171 O 0.23507 0.98418 0.25164 0.0
O172 O 0.22326 0.01455 0.18237 0.0
O173 O 0.18605 0.00361 0.24376 0.0
O174 O 0.18759 0.02209 0.21558 0.0
C175 C 0.24044 0.00191 0.24633 0.0
C176 C 0.19236 0.95911 0.20895 0.0
O177 O 0.19608 0.97652 0.20087 0.0
O178 O 0.19928 0.95512 0.22645 0.0
C179 C 0.24053 0.0078 0.17642 0.0
O180 O 0.24953 0.99318 0.18696 0.0
C181 C 0.17966 0.01853 0.23295 0.0
Zn182 Zn 0.31292 0.94241 0.48233 0.0
Zn183 Zn 0.28745 0.94785 0.45526 0.0
O184 O 0.28595 0.96952 0.47822 0.0
O185 O 0.31378 0.9695 0.49613 0.0
O186 O 0.27174 0.96164 0.43291 0.0
O187 O 0.29086 0.92204 0.49233 0.0
O188 O 0.27043 0.92467 0.46594 0.0
C189 C 0.29638 0.97707 0.49253 0.0
C190 C 0.33047 0.92768 0.44765 0.0
O191 O 0.31276 0.93358 0.44197 0.0
O192 O 0.33617 0.93186 0.46544 0.0
C193 C 0.27676 0.97981 0.42845 0.0
O194 O 0.29266 0.98765 0.43734 0.0
C195 C 0.27499 0.91654 0.48298 0.0
Zn196 Zn 0.34851 0.0953 0.73129 0.0
Zn197 Zn 0.3287 0.05716 0.69255 0.0
O198 O 0.303 0.06983 0.7053 0.0
O199 O 0.32048 0.09357 0.71791 0.0
O200 O 0.31855 0.03402 0.6756 0.0
O201 O 0.36143 0.06727 0.73678 0.0
O202 O 0.34923 0.045 0.71424 0.0
C203 C 0.30848 0.07876 0.72118 0.0
C204 C 0.35191 0.09052 0.68696 0.0
O205 O 0.34457 0.07744 0.67508 0.0
O206 O 0.34002 0.0967 0.70113 0.0
C207 C 0.30165 0.03699 0.66669 0.0
O208 O 0.29298 0.05514 0.66754 0.0
C209 C 0.36055 0.04931 0.72946 0.0
Zn210 Zn 0.21908 0.0942 0.9764 0.0
Zn211 Zn 0.24304 0.08902 0.94736 0.0
O212 O 0.2408 0.06205 0.96385 0.0
O213 O 0.21795 0.06582 0.98803 0.0
O214 O 0.25718 0.08028 0.92173 0.0
O215 O 0.24195 0.11324 0.98598 0.0
O216 O 0.26423 0.10498 0.96201 0.0
C217 C 0.23134 0.05483 0.97935 0.0
C218 C 0.20277 0.11602 0.94629 0.0
O219 O 0.22035 0.11043 0.93965 0.0
O220 O 0.19554 0.10722 0.96196 0.0
C221 C 0.25189 0.06417 0.91276 0.0
O222 O 0.23561 0.05448 0.91923 0.0
C223 C 0.25966 0.11469 0.97807 0.0
Zn224 Zn 0.31437 0.18405 0.06708 0.0
Zn225 Zn 0.34196 0.18943 0.04169 0.0
O226 O 0.32169 0.21409 0.04418 0.0
O227 O 0.30299 0.21214 0.07186 0.0
O228 O 0.36577 0.20197 0.02727 0.0
O229 O 0.30265 0.16809 0.0428 0.0
O230 O 0.32892 0.1708 0.02173 0.0
C231 C 0.30799 0.22178 0.05584 0.0
C232 C 0.34689 0.16227 0.08101 0.0
O233 O 0.35314 0.16965 0.06401 0.0
O234 O 0.33 0.16849 0.08824 0.0
C235 C 0.37203 0.21871 0.03427 0.0
O236 O 0.364 0.22562 0.05132 0.0
C237 C 0.31134 0.16396 0.02589 0.0
Zn238 Zn 0.80368 0.34505 0.98411 0.0
Zn239 Zn 0.83394 0.33749 0.00714 0.0
O240 O 0.81238 0.31477 0.00911 0.0
O241 O 0.79066 0.31747 0.98423 0.0
O242 O 0.85707 0.32439 0.0222 0.0
O243 O 0.79566 0.36521 0.00705 0.0
O244 O 0.82375 0.36063 0.0248 0.0
C245 C 0.79695 0.30798 -0.00014 0.0
C246 C 0.83933 0.35714 0.96408 0.0
O247 O 0.84643 0.35047 0.98095 0.0
O248 O 0.82056 0.35512 0.9605 0.0
C249 C 0.86194 0.30629 0.01719 0.0
O250 O 0.85293 0.29805 0.00158 0.0
C251 C 0.80671 0.36963 0.02211 0.0
Zn252 Zn 0.95842 0.56316 0.22208 0.0
Zn253 Zn 0.96587 0.59244 0.24438 0.0
O254 O 0.98994 0.57178 0.2441 0.0
O255 O 0.98515 0.54791 0.22182 0.0
O256 O 0.97838 0.61688 0.25701 0.0
O257 O 0.93758 0.55709 0.24532 0.0
O258 O 0.94698 0.5814 0.266 0.0
C259 C 0.99603 0.55542 0.23554 0.0
C260 C 0.94099 0.59503 0.20339 0.0
O261 O 0.94665 0.60186 0.22059 0.0
O262 O 0.94797 0.57799 0.19754 0.0
C263 C 0.99652 0.62145 0.25197 0.0
O264 O 0.0054 0.61188 0.23672 0.0
C265 C 0.93595 0.56616 0.2623 0.0
Zn266 Zn 0.7281 0.69617 0.48264 0.0
Zn267 Zn 0.69803 0.71231 0.49786 0.0
O268 O 0.7232 0.72592 0.51091 0.0
O269 O 0.74961 0.70866 0.49911 0.0
O270 O 0.67503 0.73056 0.50653 0.0
O271 O 0.71482 0.66969 0.49348 0.0
O272 O 0.69394 0.68642 0.51392 0.0
C273 C 0.74231 0.72216 0.51074 0.0
C274 C 0.70531 0.70286 0.45169 0.0
O275 O 0.6936 0.70419 0.46733 0.0
O276 O 0.72396 0.70643 0.45407 0.0
C277 C 0.67474 0.74956 0.50258 0.0
O278 O 0.68899 0.75737 0.49077 0.0
C279 C 0.70179 0.66969 0.50797 0.0
Zn280 Zn 0.09284 0.97946 0.22766 0.0
Zn281 Zn 0.08646 0.95108 0.25203 0.0
O282 O 0.06129 0.97034 0.25061 0.0
O283 O 0.06548 0.9935 0.22684 0.0
O284 O 0.07493 0.92612 0.26531 0.0
O285 O 0.11307 0.98731 0.25029 0.0
O286 O 0.10428 0.96386 0.27293 0.0
C287 C 0.05465 0.98603 0.24103 0.0
C288 C 0.11208 0.94786 0.21102 0.0
O289 O 0.10658 0.94179 0.22881 0.0
O290 O 0.10423 0.9641 0.2039 0.0
C291 C 0.05807 0.91974 0.25871 0.0
O292 O 0.05016 0.92846 0.24245 0.0
C293 C 0.1148 0.97927 0.26793 0.0
Zn294 Zn 0.23797 0.8237 0.56254 0.0
Zn295 Zn 0.2076 0.82159 0.54081 0.0
O296 O 0.2271 0.79698 0.536 0.0
O297 O 0.25165 0.79657 0.55815 0.0
O298 O 0.18166 0.81178 0.52871 0.0
O299 O 0.24421 0.84746 0.54232 0.0
O300 O 0.21833 0.84326 0.52172 0.0
C301 C 0.2433 0.78868 0.54293 0.0
C302 C 0.20837 0.8396 0.58545 0.0
O303 O 0.2005 0.83707 0.56792 0.0
O304 O 0.22532 0.8311 0.58925 0.0
C305 C 0.17549 0.79433 0.53446 0.0
O306 O 0.18498 0.78484 0.5494 0.0
C307 C 0.23448 0.85252 0.52635 0.0
Zn308 Zn 0.95978 0.50007 0.31068 0.0
Zn309 Zn 0.96381 0.46618 0.29196 0.0
O310 O 0.98829 0.48487 0.28569 0.0
O311 O 0.98804 0.51084 0.30624 0.0
O312 O 0.97362 0.44023 0.27922 0.0
O313 O 0.9379 0.50616 0.28887 0.0
O314 O 0.94045 0.47599 0.27441 0.0
C315 C 0.9965 0.50116 0.29182 0.0
C316 C 0.94727 0.46849 0.33658 0.0
O317 O 0.95183 0.45858 0.32047 0.0
O318 O 0.95107 0.48734 0.33722 0.0
C319 C 0.99138 0.43393 0.28383 0.0
O320 O 0.00131 0.44329 0.29818 0.0
C321 C 0.93222 0.49358 0.27555 0.0
Zn322 Zn 0.59524 0.54967 0.84225 0.0
Zn323 Zn 0.58053 0.59123 0.80334 0.0
O324 O 0.55333 0.58052 0.81416 0.0
O325 O 0.56864 0.56608 0.83894 0.0
O326 O 0.57278 0.61018 0.78023 0.0
O327 O 0.60903 0.54366 0.81486 0.0
O328 O 0.59994 0.56788 0.79201 0.0
C329 C 0.55714 0.56411 0.8236 0.0
C330 C 0.60216 0.59365 0.83804 0.0
O331 O 0.59631 0.60654 0.82475 0.0
O332 O 0.58902 0.58052 0.84354 0.0
C333 C 0.55747 0.6217 0.78384 0.0
O334 O 0.5494 0.62161 0.80225 0.0
C335 C 0.60974 0.55142 0.79691 0.0
Zn336 Zn 0.55584 0.81615 0.6861 0.0
Zn337 Zn 0.52734 0.84074 0.6893 0.0
O338 O 0.5276 0.81778 0.71163 0.0
O339 O 0.55749 0.80293 0.7137 0.0
O340 O 0.50928 0.86222 0.70189 0.0
O341 O 0.5355 0.80389 0.66561 0.0
O342 O 0.51212 0.82835 0.6662 0.0
C343 C 0.53939 0.80476 0.72024 0.0
C344 C 0.57008 0.85144 0.67003 0.0
O345 O 0.5516 0.85559 0.67494 0.0
O346 O 0.57765 0.83443 0.67544 0.0
C347 C 0.51288 0.86598 0.72044 0.0
O348 O 0.52855 0.85694 0.72917 0.0
C349 C 0.51884 0.81158 0.65915 0.0
Zn350 Zn 0.48448 0.30508 0.95091 0.0
Zn351 Zn 0.45488 0.28078 0.95699 0.0
O352 O 0.47603 0.27843 0.98008 0.0
O353 O 0.49696 0.30402 0.97872 0.0
O354 O 0.43205 0.26458 0.96909 0.0
O355 O 0.4935 0.28333 0.92984 0.0
O356 O 0.46599 0.26452 0.93319 0.0
C357 C 0.49102 0.28788 0.98751 0.0
C358 C 0.4482 0.32469 0.93967 0.0
O359 O 0.44161 0.30728 0.94537 0.0
O360 O 0.46687 0.32862 0.94182 0.0
C361 C 0.42642 0.26957 0.98696 0.0
O362 O 0.4345 0.28565 0.99529 0.0
C363 C 0.48304 0.26812 0.9246 0.0
Zn364 Zn 0.98276 0.23711 0.21354 0.0
Zn365 Zn 0.0052 0.20789 0.21517 0.0
O366 O 0.01163 0.23044 0.23642 0.0
O367 O 0.98536 0.25081 0.24048 0.0
O368 O 0.01731 0.18255 0.22734 0.0
O369 O 0.00435 0.24429 0.19113 0.0
O370 O 0.02274 0.21595 0.19136 0.0
C371 C 0.0033 0.24569 0.24532 0.0
C372 C 0.96037 0.20804 0.19766 0.0
O373 O 0.97787 0.20001 0.20117 0.0
O374 O 0.95645 0.22562 0.20445 0.0
C375 C 0.0116 0.1774 0.2452 0.0
O376 O 0.9972 0.18812 0.25434 0.0
C377 C 0.01904 0.23358 0.18405 0.0
Zn378 Zn 0.06137 0.71788 0.45133 0.0
Zn379 Zn 0.08938 0.74203 0.456 0.0
O380 O 0.06652 0.74398 0.47826 0.0
O381 O 0.04764 0.71682 0.47873 0.0
O382 O 0.11255 0.75627 0.46923 0.0
O383 O 0.05214 0.74088 0.43129 0.0
O384 O 0.07932 0.76017 0.43318 0.0
C385 C 0.05186 0.73391 0.48617 0.0
C386 C 0.095 0.69921 0.43546 0.0
O387 O 0.10143 0.71652 0.44117 0.0
O388 O 0.07703 0.69414 0.44022 0.0
C389 C 0.11707 0.75043 0.48717 0.0
O390 O 0.10757 0.73473 0.49523 0.0
C391 C 0.06206 0.75651 0.42554 0.0
Zn392 Zn 0.56156 0.23844 0.83154 0.0
Zn393 Zn 0.54265 0.20761 0.82726 0.0
O394 O 0.53447 0.23076 0.80653 0.0
O395 O 0.55698 0.25498 0.8062 0.0
O396 O 0.53467 0.18102 0.81471 0.0
O397 O 0.53971 0.24081 0.85481 0.0
O398 O 0.52248 0.21275 0.84977 0.0
C399 C 0.54068 0.24779 0.79938 0.0
C400 C 0.58652 0.21163 0.84725 0.0
O401 O 0.56979 0.2026 0.84365 0.0
O402 O 0.58936 0.22908 0.83948 0.0
C403 C 0.52917 0.17987 0.79624 0.0
O404 O 0.52966 0.19624 0.78456 0.0
C405 C 0.52515 0.22901 0.85963 0.0
Zn406 Zn 0.04413 0.31398 0.0895 0.0
Zn407 Zn 0.07709 0.29378 0.08327 0.0
O408 O 0.05705 0.28861 0.05988 0.0
O409 O 0.03149 0.31019 0.06207 0.0
O410 O 0.10271 0.28095 0.07246 0.0
O411 O 0.03913 0.29216 0.11199 0.0
O412 O 0.0684 0.2759 0.10701 0.0
C413 C 0.04023 0.29554 0.05297 0.0
C414 C 0.07652 0.33817 0.10018 0.0
O415 O 0.08558 0.32163 0.09507 0.0
O416 O 0.05755 0.34003 0.09729 0.0
C417 C 0.11001 0.2874 0.05562 0.0
O418 O 0.1013 0.30316 0.04655 0.0
C419 C 0.05158 0.27789 0.1166 0.0
Zn420 Zn 0.98343 0.79763 0.33457 0.0
Zn421 Zn 0.00573 0.8278 0.33212 0.0
O422 O 0.01016 0.80891 0.30744 0.0
O423 O 0.98752 0.78486 0.30711 0.0
O424 O 0.01799 0.85372 0.32178 0.0
O425 O 0.00377 0.79041 0.35768 0.0
O426 O 0.02466 0.81621 0.35333 0.0
C427 C 0.00292 0.79319 0.29905 0.0
C428 C 0.96113 0.82755 0.35104 0.0
O429 O 0.97878 0.83514 0.34803 0.0
O430 O 0.95704 0.81077 0.34284 0.0
C431 C 0.01216 0.8598 0.30432 0.0
O432 O 0.99724 0.85024 0.29547 0.0
C433 C 0.01985 0.79978 0.3625 0.0
Zn434 Zn 0.49461 0.72696 0.56873 0.0
Zn435 Zn 0.46205 0.74599 0.56442 0.0
O436 O 0.48143 0.75187 0.54 0.0
O437 O 0.50856 0.73235 0.54189 0.0
O438 O 0.43519 0.75628 0.55413 0.0
O439 O 0.49787 0.74778 0.59201 0.0
O440 O 0.47027 0.76615 0.5856 0.0
C441 C 0.49873 0.74635 0.53279 0.0
C442 C 0.4668 0.70192 0.5842 0.0
O443 O 0.45721 0.71868 0.58065 0.0
O444 O 0.48439 0.6994 0.57653 0.0
C445 C 0.42979 0.75158 0.53627 0.0
O446 O 0.44091 0.73841 0.5259 0.0
C447 C 0.48632 0.76302 0.59584 0.0
Zn448 Zn 0.70439 0.53636 0.79782 0.0
Zn449 Zn 0.71258 0.52377 0.83202 0.0
O450 O 0.73644 0.52154 0.81069 0.0
O451 O 0.73198 0.54654 0.78922 0.0
O452 O 0.7261 0.51677 0.85835 0.0
O453 O 0.69633 0.50629 0.79344 0.0
O454 O 0.69535 0.49939 0.82632 0.0
C455 C 0.74265 0.53149 0.79505 0.0
C456 C 0.68109 0.55869 0.82488 0.0
O457 O 0.69215 0.54818 0.83711 0.0
O458 O 0.68312 0.55636 0.80589 0.0
C459 C 0.74344 0.5239 0.86256 0.0
O460 O 0.75159 0.53767 0.85038 0.0
C461 C 0.69206 0.49416 0.80809 0.0
Zn462 Zn 0.73065 0.46169 0.06173 0.0
Zn463 Zn 0.75231 0.46461 0.09081 0.0
O464 O 0.75819 0.48689 0.06862 0.0
O465 O 0.73434 0.48753 0.04571 0.0
O466 O 0.7633 0.47675 0.11616 0.0
O467 O 0.75154 0.43799 0.05671 0.0
O468 O 0.77188 0.44242 0.08269 0.0
C469 C 0.75079 0.49458 0.05232 0.0
C470 C 0.70794 0.44549 0.09025 0.0
O471 O 0.72553 0.44835 0.0979 0.0
O472 O 0.70368 0.4542 0.07354 0.0
C473 C 0.75813 0.49489 0.1207 0.0
O474 O 0.74407 0.50433 0.1099 0.0
C475 C 0.76732 0.43287 0.06671 0.0
Zn476 Zn 0.85214 0.48917 0.31852 0.0
Zn477 Zn 0.84997 0.51515 0.34545 0.0
O478 O 0.826 0.51635 0.32473 0.0
O479 O 0.82394 0.48837 0.30717 0.0
O480 O 0.8384 0.53148 0.36862 0.0
O481 O 0.87174 0.51085 0.30631 0.0
O482 O 0.87188 0.53196 0.33224 0.0
C483 C 0.81688 0.50584 0.31145 0.0
C484 C 0.87061 0.47206 0.35146 0.0
O485 O 0.86575 0.49 0.35739 0.0
O486 O 0.86397 0.46599 0.33459 0.0
C487 C 0.82038 0.52673 0.3739 0.0
O488 O 0.8122 0.51058 0.3658 0.0
C489 C 0.87828 0.52688 0.31467 0.0
Zn490 Zn 0.77802 0.59343 0.54999 0.0
Zn491 Zn 0.7589 0.58692 0.58154 0.0
O492 O 0.7604 0.56265 0.5611 0.0
O493 O 0.78926 0.56523 0.54488 0.0
O494 O 0.74786 0.57399 0.60704 0.0
O495 O 0.74935 0.60216 0.53981 0.0
O496 O 0.73598 0.60425 0.57065 0.0
C497 C 0.77307 0.55546 0.54807 0.0
C498 C 0.79477 0.61741 0.57918 0.0
O499 O 0.78183 0.60728 0.58974 0.0
O500 O 0.79642 0.61442 0.56026 0.0
C501 C 0.75477 0.55652 0.61216 0.0
O502 O 0.77008 0.54859 0.60173 0.0
C503 C 0.73455 0.60707 0.55154 0.0
Zn504 Zn 0.69063 0.47058 0.73302 0.0
Zn505 Zn 0.68962 0.49823 0.70716 0.0
O506 O 0.71714 0.49746 0.72278 0.0
O507 O 0.71991 0.46973 0.74132 0.0
O508 O 0.69757 0.51469 0.68258 0.0
O509 O 0.6706 0.49082 0.74729 0.0
O510 O 0.66984 0.51523 0.72414 0.0
C511 C 0.72752 0.48621 0.7349 0.0
C512 C 0.67003 0.45494 0.7017 0.0
O513 O 0.67294 0.47355 0.69656 0.0
O514 O 0.679 0.44781 0.7172 0.0
C515 C 0.7133 0.50793 0.67327 0.0
O516 O 0.72137 0.49043 0.67919 0.0
C517 C 0.66394 0.50815 0.74129 0.0
Zn518 Zn 0.82071 0.45116 0.98906 0.0
Zn519 Zn 0.79993 0.45681 0.9576 0.0
O520 O 0.79719 0.48086 0.97787 0.0
O521 O 0.82134 0.47939 0.00049 0.0
O522 O 0.78667 0.46831 0.93267 0.0
O523 O 0.79639 0.43291 0.9974 0.0
O524 O 0.78074 0.43515 0.9679 0.0
C525 C 0.80589 0.48848 0.99327 0.0
C526 C 0.842 0.43421 0.9567 0.0
O527 O 0.826 0.44121 0.94804 0.0
O528 O 0.84488 0.43822 0.97525 0.0
C529 C 0.79133 0.48596 0.9261 0.0
O530 O 0.80611 0.49583 0.93484 0.0
C531 C 0.78196 0.4278 0.98582 0.0
Zn532 Zn 0.84225 0.56991 0.23326 0.0
Zn533 Zn 0.8375 0.54659 0.20593 0.0
O534 O 0.81644 0.5434 0.22995 0.0
O535 O 0.81592 0.57053 0.24892 0.0
O536 O 0.82335 0.5344 0.18223 0.0
O537 O 0.8631 0.54675 0.24059 0.0
O538 O 0.85935 0.52676 0.21418 0.0
C539 C 0.80901 0.55311 0.24514 0.0
C540 C 0.85978 0.58924 0.20243 0.0
O541 O 0.85463 0.57179 0.1958 0.0
O542 O 0.85316 0.5948 0.21967 0.0
C543 C 0.80516 0.53992 0.17838 0.0
O544 O 0.79672 0.55481 0.18888 0.0
C545 C 0.86799 0.53072 0.23084 0.0
Zn546 Zn 0.7252 0.60686 0.47228 0.0
Zn547 Zn 0.75694 0.60671 0.45201 0.0
O548 O 0.75318 0.58004 0.46927 0.0
O549 O 0.72237 0.57795 0.48195 0.0
O550 O 0.77658 0.59634 0.43079 0.0
O551 O 0.74289 0.62675 0.48889 0.0
O552 O 0.77107 0.62659 0.47047 0.0
C553 C 0.73988 0.57011 0.47948 0.0
C554 C 0.71543 0.62734 0.43813 0.0
O555 O 0.73463 0.62397 0.43661 0.0
O556 O 0.70558 0.61866 0.45233 0.0
C557 C 0.76949 0.5809 0.42187 0.0
O558 O 0.75053 0.57573 0.42573 0.0
C559 C 0.76097 0.63298 0.48585 0.0
Zn560 Zn 0.78256 0.70416 0.58957 0.0
Zn561 Zn 0.83053 0.71669 0.55832 0.0
O562 O 0.81824 0.74452 0.56545 0.0
O563 O 0.79947 0.73024 0.58793 0.0
O564 O 0.85311 0.72313 0.53845 0.0
O565 O 0.78164 0.68947 0.56228 0.0
O566 O 0.8097 0.69737 0.54396 0.0
C567 C 0.8004 0.74134 0.57191 0.0
C568 C 0.8265 0.69624 0.59405 0.0
O569 O 0.84163 0.70137 0.58304 0.0
O570 O 0.8126 0.70981 0.5962 0.0
C571 C 0.86416 0.73815 0.54297 0.0
O572 O 0.86131 0.74694 0.5607 0.0
C573 C 0.79265 0.68803 0.54615 0.0
Zn574 Zn 0.29987 0.83548 0.47455 0.0
Zn575 Zn 0.33337 0.82624 0.49251 0.0
O576 O 0.3139 0.80172 0.49422 0.0
O577 O 0.28761 0.80759 0.47476 0.0
O578 O 0.35898 0.81374 0.50359 0.0
O579 O 0.29483 0.85426 0.4993 0.0
O580 O 0.3242 0.84666 0.51379 0.0
C581 C 0.29704 0.7959 0.48697 0.0
C582 C 0.33236 0.84987 0.45102 0.0
O583 O 0.34177 0.84245 0.4664 0.0
O584 O 0.31338 0.84709 0.44956 0.0
C585 C 0.36532 0.7969 0.49634 0.0
O586 O 0.35595 0.78917 0.48067 0.0
C587 C 0.30738 0.85648 0.51368 0.0
Zn588 Zn 0.45635 0.04641 0.73579 0.0
Zn589 Zn 0.46609 0.08044 0.74703 0.0
O590 O 0.4896 0.05859 0.74746 0.0
O591 O 0.48306 0.03746 0.72327 0.0
O592 O 0.48031 0.10665 0.75255 0.0
O593 O 0.45018 0.04186 0.76651 0.0
O594 O 0.45001 0.07474 0.77278 0.0
C595 C 0.49474 0.04282 0.73732 0.0
C596 C 0.43242 0.07426 0.715 0.0
O597 O 0.44446 0.08615 0.72421 0.0
O598 O 0.43403 0.05522 0.71765 0.0
C599 C 0.49118 0.10649 0.76847 0.0
O600 O 0.49228 0.08971 0.77957 0.0
C601 C 0.44679 0.05653 0.77865 0.0
Zn602 Zn 0.2331 0.20883 0.98676 0.0
Zn603 Zn 0.2042 0.21121 0.00912 0.0
O604 O 0.22807 0.23059 0.01668 0.0
O605 O 0.24865 0.23451 0.99061 0.0
O606 O 0.17944 0.22468 0.02107 0.0
O607 O 0.23861 0.18498 0.00737 0.0
O608 O 0.21056 0.18649 0.02609 0.0
C609 C 0.24387 0.23882 0.00877 0.0
C610 C 0.2038 0.1953 0.96356 0.0
O611 O 0.19599 0.19832 0.98123 0.0
O612 O 0.22156 0.20168 0.95986 0.0
C613 C 0.17512 0.2428 0.01547 0.0
O614 O 0.18634 0.25158 0.00126 0.0
C615 C 0.22762 0.17811 0.02193 0.0
Zn616 Zn 0.60144 0.47628 0.74683 0.0
Zn617 Zn 0.58662 0.44939 0.76751 0.0
O618 O 0.57311 0.47675 0.77697 0.0
O619 O 0.58877 0.50066 0.7594 0.0
O620 O 0.56807 0.42836 0.77933 0.0
O621 O 0.62825 0.46487 0.75907 0.0
O622 O 0.61267 0.44726 0.7832 0.0
C623 C 0.57611 0.49557 0.77308 0.0
C624 C 0.59545 0.44872 0.72037 0.0
O625 O 0.59462 0.43998 0.73786 0.0
O626 O 0.59159 0.46759 0.71951 0.0
C627 C 0.54969 0.42754 0.77357 0.0
O628 O 0.54343 0.43978 0.75887 0.0
C629 C 0.62899 0.45418 0.77535 0.0
Zn630 Zn 0.72731 0.34536 0.06503 0.0
Zn631 Zn 0.70063 0.34265 0.03959 0.0
O632 O 0.72045 0.31776 0.03922 0.0
O633 O 0.74095 0.3178 0.06514 0.0
O634 O 0.67614 0.33164 0.02574 0.0
O635 O 0.73691 0.36695 0.04362 0.0
O636 O 0.71403 0.36202 0.01991 0.0
C637 C 0.735 0.30939 0.04908 0.0
C638 C 0.69657 0.36501 0.08221 0.0
O639 O 0.69114 0.36135 0.06394 0.0
O640 O 0.71196 0.35568 0.08924 0.0
C641 C 0.67043 0.31411 0.03173 0.0
O642 O 0.67905 0.30581 0.04785 0.0
C643 C 0.72981 0.37098 0.02606 0.0
Zn644 Zn 0.44402 0.98096 0.80336 0.0
Zn645 Zn 0.44056 0.95586 0.7759 0.0
O646 O 0.46836 0.97091 0.77435 0.0
O647 O 0.47345 0.98862 0.80176 0.0
O648 O 0.44773 0.93124 0.75945 0.0
O649 O 0.42315 0.99609 0.78474 0.0
O650 O 0.42024 0.97358 0.76043 0.0
C651 C 0.47977 0.98247 0.78463 0.0
C652 C 0.42354 0.94997 0.82078 0.0
O653 O 0.42506 0.94527 0.80196 0.0
O654 O 0.43348 0.96496 0.82712 0.0
C655 C 0.46216 0.92098 0.7675 0.0
O656 O 0.46833 0.9261 0.78571 0.0
C657 C 0.41528 0.99073 0.76803 0.0
Zn658 Zn 0.08534 0.04484 0.31281 0.0
Zn659 Zn 0.07994 0.07838 0.29342 0.0
O660 O 0.05645 0.05864 0.28751 0.0
O661 O 0.0575 0.0331 0.30914 0.0
O662 O 0.06932 0.10427 0.28101 0.0
O663 O 0.10737 0.03958 0.29056 0.0
O664 O 0.10398 0.06981 0.27579 0.0
C665 C 0.04894 0.04205 0.29431 0.0
C666 C 0.09627 0.07678 0.33786 0.0
O667 O 0.09113 0.08637 0.32164 0.0
O668 O 0.09368 0.05771 0.33898 0.0
C669 C 0.05239 0.11127 0.28762 0.0
O670 O 0.04339 0.10206 0.30309 0.0
C671 C 0.11276 0.05247 0.27701 0.0
C672 C 0.05058 0.27514 0.25032 0.0
C673 C 0.04205 0.29485 0.24837 0.0
H674 H 0.04451 0.24323 0.25182 0.0
C675 C 0.02157 0.29786 0.25431 0.0
H676 H 0.06648 0.2723 0.24656 0.0
C677 C 0.0089 0.28109 0.25737 0.0
C678 C 0.01663 0.26121 0.25443 0.0
H679 H 0.01463 0.31294 0.25371 0.0
H680 H 0.99265 0.28386 0.25896 0.0
C681 C 0.03791 0.25837 0.25337 0.0
C682 C 0.01632 0.73671 0.49978 0.0
C683 C 0.03586 0.74514 0.49784 0.0
H684 H 0.98428 0.74247 0.49776 0.0
C685 C 0.03786 0.76628 0.5005 0.0
H686 H 0.01421 0.72042 0.49856 0.0
C687 C 0.0206 0.77901 0.49999 0.0
C688 C 0.00126 0.77064 0.49691 0.0
H689 H 0.05273 0.77327 0.49985 0.0
H690 H 0.0228 0.79533 0.499 0.0
C691 C -0.00094 0.74943 0.49929 0.0
C692 C 0.49883 0.76824 0.73365 0.0
C693 C 0.51015 0.75006 0.73108 0.0
H694 H 0.49967 0.80079 0.73299 0.0
C695 C 0.53137 0.75057 0.7338 0.0
H696 H 0.48238 0.76835 0.73238 0.0
C697 C 0.54134 0.76928 0.73417 0.0
C698 C 0.53013 0.78756 0.73178 0.0
H699 H 0.54055 0.73676 0.73265 0.0
H700 H 0.55784 0.7692 0.73325 0.0
C701 C 0.5088 0.78694 0.73401 0.0
C702 C 0.50363 0.25514 0.00237 0.0
C703 C 0.50555 0.27645 0.00066 0.0
H704 H 0.51921 0.2265 -0.00064 0.0
C705 C 0.52469 0.28493 0.00445 0.0
H706 H 0.48896 0.24803 0.00055 0.0
C707 C 0.54213 0.27246 0.00405 0.0
C708 C 0.54037 0.25162 -0.00046 0.0
H709 H 0.52661 0.30132 0.00424 0.0
H710 H 0.55686 0.27974 0.00357 0.0
C711 C 0.52109 0.24269 0.00173 0.0
C712 C 0.02699 0.74526 0.28422 0.0
C713 C 0.04689 0.75082 0.28946 0.0
H714 H 0.99604 0.75557 0.28234 0.0
C715 C 0.05249 0.77127 0.28655 0.0
H716 H 0.02233 0.72948 0.28518 0.0
C717 C 0.03733 0.78631 0.28451 0.0
C718 C 0.01668 0.7808 0.28586 0.0
H719 H 0.06795 0.77601 0.2894 0.0
H720 H 0.04173 0.8021 0.28585 0.0
C721 C 0.0118 0.76031 0.2825 0.0
C722 C 0.54417 0.77508 0.51941 0.0
C723 C 0.53568 0.79442 0.52369 0.0
H724 H 0.53813 0.74319 0.51809 0.0
C725 C 0.51487 0.79769 0.51974 0.0
H726 H 0.56034 0.77215 0.52124 0.0
C727 C 0.50208 0.78097 0.51762 0.0
C728 C 0.51015 0.76108 0.51983 0.0
H729 H 0.50795 0.81262 0.52186 0.0
H730 H 0.48576 0.7837 0.51817 0.0
C731 C 0.53135 0.75834 0.51755 0.0
C732 C 0.515 0.29748 0.78999 0.0
C733 C 0.49487 0.29149 0.79425 0.0
H734 H 0.5461 0.28768 0.7875 0.0
C735 C 0.48977 0.271 0.79108 0.0
H736 H 0.51939 0.31326 0.79151 0.0
C737 C 0.50518 0.25624 0.78874 0.0
C738 C 0.52577 0.2619 0.78956 0.0
H739 H 0.47428 0.2659 0.79348 0.0
H740 H 0.50098 0.24032 0.78941 0.0
C741 C 0.53042 0.28272 0.78767 0.0
C742 C 0.99201 0.27277 0.03893 0.0
C743 C 0.99744 0.25264 0.04451 0.0
H744 H 0.00248 0.30342 0.03653 0.0
C745 C 0.01788 0.24644 0.04177 0.0
H746 H 0.97626 0.2779 0.03977 0.0
C747 C 0.03301 0.26117 0.03959 0.0
C748 C 0.02761 0.282 0.04043 0.0
H749 H 0.02255 0.23082 0.04489 0.0
H750 H 0.04876 0.25627 0.04109 0.0
C751 C 0.00714 0.28751 0.03702 0.0
C752 C 0.24841 0.03657 0.25905 0.0
C753 C 0.24945 0.01528 0.2619 0.0
H754 H 0.24153 0.06521 0.2729 0.0
C755 C 0.25224 0.00761 0.2818 0.0
H756 H 0.24696 0.04313 0.2439 0.0
C757 C 0.24907 0.02034 0.29854 0.0
C758 C 0.24317 0.04084 0.29548 0.0
H759 H 0.25382 0.99135 0.28458 0.0
H760 H 0.24835 0.01344 0.3136 0.0
C761 C 0.24526 0.0493 0.27578 0.0
C762 C 0.28229 0.98877 0.54579 0.0
C763 C 0.26107 0.98653 0.54418 0.0
H764 H 0.31083 0.98835 0.52982 0.0
C765 C 0.25205 0.99023 0.52514 0.0
H766 H 0.28972 0.98678 0.56035 0.0
C767 C 0.26422 0.9912 0.50754 0.0
C768 C 0.28546 0.98838 0.5089 0.0
H769 H 0.23568 0.98937 0.52342 0.0
H770 H 0.25678 0.99103 0.49289 0.0
C771 C 0.29446 0.98972 0.52819 0.0
C772 C 0.30823 0.04445 0.73835 0.0
C773 C 0.31141 0.06563 0.73948 0.0
H774 H 0.31204 0.01525 0.75276 0.0
C775 C 0.31797 0.07379 0.75796 0.0
H776 H 0.30287 0.03757 0.7245 0.0
C777 C 0.32261 0.06085 0.77446 0.0
C778 C 0.32098 0.03961 0.77256 0.0
H779 H 0.32019 0.09004 0.75941 0.0
H780 H 0.32869 0.06735 0.78819 0.0
C781 C 0.31335 0.03158 0.75456 0.0
C782 C 0.27599 0.02941 0.00081 0.0
C783 C 0.27062 0.03237 0.02139 0.0
H784 H 0.26642 0.03333 0.97002 0.0
C785 C 0.2498 0.03213 0.02677 0.0
H786 H 0.29187 0.02852 0.99616 0.0
C787 C 0.23511 0.03511 0.0117 0.0
C788 C 0.24133 0.03823 0.99132 0.0
H789 H 0.24499 0.03337 0.04256 0.0
H790 H 0.2196 0.03858 0.01647 0.0
C791 C 0.26128 0.0322 0.98574 0.0
C792 C 0.27989 0.24868 0.01471 0.0
C793 C 0.25998 0.24625 0.02247 0.0
H794 H 0.31161 0.24323 0.01989 0.0
C795 C 0.25733 0.24405 0.04369 0.0
H796 H 0.28255 0.25111 -0.00145 0.0
C797 C 0.27409 0.2395 0.05599 0.0
C798 C 0.29361 0.23716 0.04716 0.0
H799 H 0.24221 0.24281 0.05035 0.0
H800 H 0.27125 0.23494 0.07168 0.0
C801 C 0.29665 0.24412 0.02701 0.0
C802 C 0.76884 0.29212 0.04573 0.0
C803 C 0.74915 0.29544 0.03803 0.0
H804 H 0.80068 0.29254 0.03873 0.0
C805 C 0.74608 0.29242 0.01708 0.0
H806 H 0.77168 0.29335 0.06189 0.0
C807 C 0.76281 0.2922 0.00369 0.0
C808 C 0.78254 0.29476 0.01131 0.0
H809 H 0.73098 0.29384 0.01068 0.0
H810 H 0.75998 0.2935 0.98749 0.0
C811 C 0.78557 0.29168 0.03234 0.0
C812 C 0.01546 0.53252 0.28229 0.0
C813 C 0.01035 0.51233 0.27773 0.0
H814 H 0.01615 0.56317 0.27109 0.0
C815 C 0.01143 0.50627 0.25722 0.0
H816 H 0.01579 0.53754 0.29795 0.0
C817 C 0.01134 0.52108 0.24172 0.0
C818 C 0.01034 0.54184 0.24683 0.0
H819 H 0.00862 0.49061 0.25311 0.0
H820 H 0.00838 0.51627 0.22631 0.0
C821 C 0.01566 0.54729 0.26676 0.0
C822 C 0.76412 0.73568 0.5616 0.0
C823 C 0.78454 0.73934 0.55617 0.0
H824 H 0.73436 0.72787 0.55112 0.0
C825 C 0.78996 0.74032 0.53533 0.0
H826 H 0.75944 0.73517 0.57747 0.0
C827 C 0.77579 0.73587 0.52043 0.0
C828 C 0.75572 0.73114 0.52591 0.0
H829 H 0.80546 0.74337 0.53048 0.0
H830 H 0.78073 0.73538 0.50462 0.0
C831 C 0.74976 0.73175 0.54654 0.0
C832 C 0.032 0.00948 0.28614 0.0
C833 C 0.03626 0.02977 0.28058 0.0
H834 H 0.03351 0.97847 0.27666 0.0
C835 C 0.03587 0.03508 0.25974 0.0
H836 H 0.03117 0.00496 0.30205 0.0
C837 C 0.03749 0.0198 0.24509 0.0
C838 C 0.0393 -0.00072 0.25137 0.0
H839 H 0.03807 0.05073 0.25482 0.0
H840 H 0.04092 0.02425 0.2295 0.0
C841 C 0.03337 0.99421 0.27146 0.0
C842 C 0.26483 0.7771 0.49303 0.0
C843 C 0.28529 0.78014 0.49824 0.0
H844 H 0.23423 0.77609 0.5043 0.0
C845 C 0.29138 0.77482 0.51813 0.0
H846 H 0.25973 0.78003 0.47762 0.0
C847 C 0.27666 0.77279 0.53357 0.0
C848 C 0.25596 0.77596 0.52899 0.0
H849 H 0.30719 0.77593 0.52252 0.0
H850 H 0.28168 0.77249 0.54924 0.0
C851 C 0.25013 0.77483 0.50845 0.0
C852 C 0.55724 0.54705 0.78963 0.0
C853 C 0.55915 0.54556 0.81097 0.0
H854 H 0.56136 0.53231 0.76092 0.0
C855 C 0.56369 0.52644 0.81979 0.0
H856 H 0.55347 0.56144 0.78223 0.0
C857 C 0.56758 0.50951 0.80741 0.0
C858 C 0.56725 0.51158 0.78608 0.0
H859 H 0.56491 0.52475 0.83617 0.0
H860 H 0.57215 0.49517 0.81447 0.0
C861 C 0.56162 0.53035 0.77734 0.0
C862 C 0.75557 0.49871 0.7812 0.0
C863 C 0.75403 0.52006 0.77903 0.0
H864 H 0.74808 0.47027 0.76784 0.0
C865 C 0.75427 0.5283 0.75912 0.0
H866 H 0.75665 0.4917 0.79619 0.0
C867 C 0.74917 0.51597 0.74274 0.0
C868 C 0.74446 0.49536 0.7463 0.0
H869 H 0.7543 0.54467 0.7567 0.0
H870 H 0.74569 0.52325 0.72828 0.0
C871 C 0.75051 0.48633 0.76485 0.0
C872 C 0.77335 0.50656 0.0019 0.0
C873 C 0.79385 0.50233 0.00667 0.0
H874 H 0.74279 0.50813 0.01342 0.0
C875 C 0.80005 0.50499 0.02692 0.0
H876 H 0.76811 0.50548 0.98636 0.0
C877 C 0.78544 0.50659 0.04252 0.0
C878 C 0.76458 0.5055 0.03794 0.0
H879 H 0.81584 0.50266 0.03109 0.0
H880 H 0.79053 0.50546 0.05815 0.0
C881 C 0.75874 0.5081 0.01751 0.0
C882 C 0.79993 0.50767 0.27762 0.0
C883 C 0.80341 0.51654 0.29667 0.0
H884 H 0.79808 0.51285 0.24549 0.0
C885 C 0.79979 0.53761 0.29873 0.0
H886 H 0.80188 0.49139 0.27556 0.0
C887 C 0.79757 0.55 0.28139 0.0
C888 C 0.79903 0.54138 0.26188 0.0
H889 H 0.8016 0.5449 0.31333 0.0
H890 H 0.7978 0.56638 0.28325 0.0
C891 C 0.79772 0.52005 0.26027 0.0
C892 C 0.73438 0.54815 0.51022 0.0
C893 C 0.74672 0.55346 0.49336 0.0
H894 H 0.73374 0.54265 0.54231 0.0
C895 C 0.76756 0.5482 0.49394 0.0
H896 H 0.71809 0.55105 0.51003 0.0
C897 C 0.77656 0.5432 0.51258 0.0
C898 C 0.76476 0.5441 0.53061 0.0
H899 H 0.7774 0.55111 0.48089 0.0
H900 H 0.79305 0.54269 0.51324 0.0
C901 C 0.74343 0.54317 0.52884 0.0
C902 C 0.50512 0.00641 0.74027 0.0
C903 C 0.50597 0.02624 0.74822 0.0
H904 H 0.49573 0.97583 0.74634 0.0
C905 C 0.50849 0.02814 0.7694 0.0
H906 H 0.50434 0.00416 0.72397 0.0
C907 C 0.50343 0.01184 0.78233 0.0
C908 C 0.49641 0.99358 0.77401 0.0
H909 H 0.51039 0.04301 0.77612 0.0
H910 H 0.50183 0.01475 0.7985 0.0
C911 C 0.50001 0.9901 0.75317 0.0
C912 C 0.00422 0.31473 0.1434 0.0
C913 C 0.00938 0.30701 0.16273 0.0
H914 H 0.99024 0.30834 0.11467 0.0
C915 C 0.00231 0.28789 0.16894 0.0
H916 H 0.00966 0.32949 0.13833 0.0
C917 C 0.99152 0.27586 0.15553 0.0
C918 C 0.98752 0.28286 0.13576 0.0
H919 H 0.00588 0.28204 0.18398 0.0
H920 H 0.98677 0.26079 0.16032 0.0
C921 C 0.99321 0.30269 0.12994 0.0
C922 C 0.99764 0.74456 0.37438 0.0
C923 C 0.01394 0.73199 0.38053 0.0
H924 H 0.97249 0.76352 0.38406 0.0
C925 C 0.01578 0.72646 0.40112 0.0
H926 H 0.99606 0.74897 0.35852 0.0
C927 C 0.00224 0.73454 0.41564 0.0
C928 C 0.98673 0.74819 0.40966 0.0
H929 H 0.02834 0.71681 0.40609 0.0
H930 H 0.00475 0.73127 0.43165 0.0
C931 C 0.98411 0.75267 0.38889 0.0
C932 C 0.54977 0.7546 0.65172 0.0
C933 C 0.53924 0.73728 0.64554 0.0
H934 H 0.56366 0.78272 0.64232 0.0
C935 C 0.53664 0.73377 0.62468 0.0
H936 H 0.55154 0.75775 0.66777 0.0
C937 C 0.54333 0.74811 0.61023 0.0
C938 C 0.5526 0.76608 0.61653 0.0
H939 H 0.52816 0.72071 0.61967 0.0
H940 H 0.54027 0.74572 0.59425 0.0
C941 C 0.55647 0.76892 0.63725 0.0
C942 C 0.53904 0.30067 0.91511 0.0
C943 C 0.54808 0.2819 0.90979 0.0
H944 H 0.51792 0.32449 0.90623 0.0
C945 C 0.54475 0.27395 0.89045 0.0
H946 H 0.54144 0.30704 0.93003 0.0
C947 C 0.53129 0.28366 0.87713 0.0
C948 C 0.52112 0.30159 0.88286 0.0
H949 H 0.55209 0.25978 0.88602 0.0
H950 H 0.52836 0.27699 0.86247 0.0
C951 C 0.5256 0.31055 0.90161 0.0
C952 C 0.14909 0.99234 0.27488 0.0
C953 C 0.12952 0.9878 0.28211 0.0
H954 H 0.17725 0.00728 0.28082 0.0
C955 C 0.12386 0.99313 0.30209 0.0
H956 H 0.1538 0.98782 0.25971 0.0
C957 C 0.13725 0.00428 0.31409 0.0
C958 C 0.15631 0.01 0.30612 0.0
H959 H 0.10877 0.98971 0.30795 0.0
H960 H 0.13233 0.00933 0.32904 0.0
C961 C 0.16238 0.00334 0.28681 0.0
C962 C 0.30736 0.89119 0.52848 0.0
C963 C 0.30222 0.87056 0.53022 0.0
H964 H 0.30223 0.92142 0.53989 0.0
C965 C 0.29009 0.86397 0.54667 0.0
H966 H 0.31666 0.8965 0.5158 0.0
C967 C 0.28202 0.87811 0.56049 0.0
C968 C 0.28607 0.89894 0.55799 0.0
H969 H 0.28597 0.84808 0.54816 0.0
H970 H 0.2715 0.87297 0.57226 0.0
C971 C 0.2993 0.90534 0.5423 0.0
C972 C 0.42284 0.02548 0.81988 0.0
C973 C 0.40462 0.03662 0.82245 0.0
H974 H 0.45125 0.02353 0.80361 0.0
C975 C 0.40379 0.05712 0.81606 0.0
H976 H 0.4239 0.00975 0.82502 0.0
C977 C 0.41942 0.06499 0.80375 0.0
C978 C 0.43585 0.05235 0.7979 0.0
H979 H 0.38991 0.06607 0.81796 0.0
H980 H 0.41724 0.07985 0.79668 0.0
C981 C 0.43841 0.03331 0.80755 0.0
C982 C 0.26138 0.14423 0.05367 0.0
C983 C 0.25617 0.12501 0.04638 0.0
H984 H 0.25603 0.17655 0.05151 0.0
C985 C 0.23935 0.12318 0.03357 0.0
H986 H 0.27433 0.14584 0.06358 0.0
C987 C 0.22863 0.1406 0.02705 0.0
C988 C 0.23481 0.15998 0.03314 0.0
H989 H 0.23519 0.10841 0.0278 0.0
H990 H 0.21653 0.13906 0.0161 0.0
C991 C 0.25085 0.16168 0.04694 0.0
C992 C 0.14937 0.05336 0.26708 0.0
C993 C 0.12949 0.04717 0.26296 0.0
H994 H 0.18124 0.04892 0.26046 0.0
C995 C 0.1261 0.03388 0.2468 0.0
H996 H 0.15219 0.0636 0.27955 0.0
C997 C 0.14257 0.02588 0.23562 0.0
C998 C 0.16257 0.03093 0.2407 0.0
H999 H 0.1108 0.02897 0.24347 0.0
H1000 H 0.13978 0.01467 0.22401 0.0
C1001 C 0.16588 0.04513 0.25612 0.0
C1002 C 0.2551 0.88406 0.48224 0.0
C1003 C 0.26168 0.90132 0.4927 0.0
H1004 H 0.2411 0.8546 0.48493 0.0
C1005 C 0.2569 0.90333 0.51341 0.0
H1006 H 0.25862 0.88228 0.46619 0.0
C1007 C 0.24701 0.88773 0.52396 0.0
C1008 C 0.24174 0.86985 0.51401 0.0
H1009 H 0.26136 0.91682 0.52148 0.0
H1010 H 0.24389 0.8893 0.54009 0.0
C1011 C 0.24513 0.86832 0.4929 0.0
C1012 C 0.38341 0.03794 0.75747 0.0
C1013 C 0.37356 0.03336 0.73922 0.0
H1014 H 0.40407 0.02843 0.78031 0.0
C1015 C 0.37709 0.01408 0.73049 0.0
H1016 H 0.38107 0.05249 0.76486 0.0
C1017 C 0.39056 -5e-05 0.73973 0.0
C1018 C 0.40062 0.00489 0.75783 0.0
H1019 H 0.36976 0.01007 0.71642 0.0
H1020 H 0.39319 0.9853 0.73264 0.0
C1021 C 0.39669 0.024 0.76651 0.0
C1022 C 0.29445 0.1215 0.99173 0.0
C1023 C 0.27449 0.12817 0.98746 0.0
H1024 H 0.32214 0.12786 0.00768 0.0
C1025 C 0.26806 0.14759 0.99359 0.0
H1026 H 0.29972 0.10654 0.98702 0.0
C1027 C 0.28075 0.15964 0.00514 0.0
C1028 C 0.30004 0.15246 0.01078 0.0
H1029 H 0.25295 0.15313 0.98981 0.0
H1030 H 0.27538 0.17439 0.01029 0.0
C1031 C 0.30721 0.13363 0.00345 0.0
C1032 C 0.78238 0.38059 0.04907 0.0
C1033 C 0.79929 0.38494 0.03663 0.0
H1034 H 0.7591 0.39269 0.06894 0.0
C1035 C 0.80748 0.40459 0.03659 0.0
H1036 H 0.77611 0.3654 0.04941 0.0
C1037 C 0.79789 0.42012 0.04779 0.0
C1038 C 0.78015 0.41602 0.05919 0.0
H1039 H 0.82049 0.40819 0.02697 0.0
H1040 H 0.80354 0.43553 0.04652 0.0
C1041 C 0.77285 0.39605 0.06031 0.0
C1042 C 0.90084 0.55565 0.27055 0.0
C1043 C 0.92063 0.55918 0.2772 0.0
H1044 H 0.87168 0.54295 0.27785 0.0
C1045 C 0.92579 0.55445 0.29745 0.0
H1046 H 0.89654 0.5598 0.25517 0.0
C1047 C 0.9116 0.54481 0.31037 0.0
C1048 C 0.89225 0.53998 0.30304 0.0
H1049 H 0.94105 0.55715 0.30286 0.0
H1050 H 0.91608 0.54017 0.32558 0.0
C1051 C 0.88676 0.54614 0.28338 0.0
C1052 C 0.71195 0.61612 0.52272 0.0
C1053 C 0.71761 0.61916 0.543 0.0
H1054 H 0.70116 0.63036 0.49532 0.0
C1055 C 0.71089 0.63683 0.55304 0.0
H1056 H 0.7166 0.60236 0.51487 0.0
C1057 C 0.70209 0.65286 0.54186 0.0
C1058 C 0.70008 0.65117 0.52065 0.0
H1059 H 0.71489 0.63941 0.56877 0.0
H1060 H 0.69969 0.66739 0.54926 0.0
C1061 C 0.70308 0.63209 0.51158 0.0
C1062 C 0.89559 0.49517 0.26653 0.0
C1063 C 0.9159 0.49958 0.26156 0.0
H1064 H 0.86411 0.50176 0.26028 0.0
C1065 C 0.92028 0.51178 0.24444 0.0
H1066 H 0.89201 0.48575 0.27972 0.0
C1067 C 0.90444 0.52059 0.23314 0.0
C1068 C 0.8841 0.51737 0.239 0.0
H1069 H 0.93592 0.5153 0.24045 0.0
H1070 H 0.90806 0.53103 0.22075 0.0
C1071 C 0.87973 0.50414 0.25537 0.0
C1072 C 0.64412 0.51119 0.77367 0.0
C1073 C 0.64951 0.51963 0.75468 0.0
H1074 H 0.62744 0.5141 0.80137 0.0
C1075 C 0.64108 0.53873 0.74911 0.0
H1076 H 0.65022 0.49664 0.77855 0.0
C1077 C 0.62776 0.54914 0.76252 0.0
C1078 C 0.62273 0.5406 0.78168 0.0
H1079 H 0.64488 0.54567 0.73454 0.0
H1080 H 0.62169 0.56394 0.75803 0.0
C1081 C 0.63096 0.52138 0.78689 0.0
C1082 C 0.49709 0.76741 0.63138 0.0
C1083 C 0.49144 0.77637 0.61283 0.0
H1084 H 0.50973 0.77199 0.6609 0.0
C1085 C 0.49228 0.79766 0.61042 0.0
H1086 H 0.49588 0.75111 0.63361 0.0
C1087 C 0.50023 0.80961 0.62601 0.0
C1088 C 0.50729 0.80027 0.644 0.0
H1089 H 0.48788 0.80486 0.59618 0.0
H1090 H 0.50188 0.82587 0.62357 0.0
C1091 C 0.50492 0.77926 0.64685 0.0
C1092 C 0.4834 0.25588 0.88881 0.0
C1093 C 0.49107 0.25463 0.90865 0.0
H1094 H 0.48844 0.24835 0.85734 0.0
C1095 C 0.50816 0.24224 0.91261 0.0
H1096 H 0.47027 0.26548 0.8855 0.0
C1097 C 0.51835 0.23229 0.89667 0.0
C1098 C 0.51157 0.23472 0.8766 0.0
H1099 H 0.51414 0.24106 0.9279 0.0
H1100 H 0.53226 0.2238 0.89982 0.0
C1101 C 0.49368 0.24603 0.8728 0.0
C1102 C 0.05201 0.26912 0.15343 0.0
C1103 C 0.04655 0.26406 0.13357 0.0
H1104 H 0.04742 0.26306 0.18537 0.0
C1105 C 0.03435 0.24704 0.13034 0.0
H1106 H 0.0615 0.28219 0.1561 0.0
C1107 C 0.02667 0.23587 0.14696 0.0
C1108 C 0.03102 0.24179 0.16691 0.0
H1109 H 0.02997 0.243 0.11505 0.0
H1110 H 0.01628 0.2235 0.14428 0.0
C1111 C 0.04414 0.25813 0.17006 0.0
C1112 C 0.0634 0.77713 0.39304 0.0
C1113 C 0.05277 0.77055 0.41057 0.0
H1114 H 0.06108 0.79181 0.36359 0.0
C1115 C 0.03222 0.77598 0.41307 0.0
H1116 H 0.07933 0.7731 0.39086 0.0
C1117 C 0.02194 0.78652 0.39769 0.0
C1118 C 0.03202 0.79182 0.37956 0.0
H1119 H 0.02402 0.77151 0.42677 0.0
H1120 H 0.0059 0.79009 0.39962 0.0
C1121 C 0.05302 0.78777 0.37753 0.0
C1122 C 0.68267 0.46624 0.78496 0.0
C1123 C 0.68009 0.47594 0.80378 0.0
H1124 H 0.66788 0.45036 0.76108 0.0
C1125 C 0.66288 0.47153 0.81586 0.0
H1126 H 0.69608 0.46907 0.77564 0.0
C1127 C 0.64676 0.46078 0.80755 0.0
C1128 C 0.64787 0.45453 0.78716 0.0
H1129 H 0.66067 0.47866 0.83055 0.0
H1130 H 0.6325 0.46009 0.816 0.0
C1131 C 0.6666 0.45546 0.77669 0.0
C1132 C 0.74885 0.38167 0.9945 0.0
C1133 C 0.73993 0.38653 0.01342 0.0
H1134 H 0.7695 0.3913 0.97064 0.0
C1135 C 0.74298 0.4058 0.02167 0.0
H1136 H 0.74671 0.36678 0.98795 0.0
C1137 C 0.75605 0.41954 0.01203 0.0
C1138 C 0.76609 0.41428 0.9939 0.0
H1139 H 0.7358 0.40982 0.03603 0.0
H1140 H 0.75881 0.43414 0.01894 0.0
C1141 C 0.76187 0.39558 0.9847 0.0
C1142 C 0.76538 0.66659 0.53188 0.0
C1143 C 0.78501 0.67471 0.52981 0.0
H1144 H 0.74292 0.64729 0.52006 0.0
C1145 C 0.7969 0.6693 0.51263 0.0
H1146 H 0.75559 0.67037 0.54473 0.0
C1147 C 0.7893 0.65578 0.4981 0.0
C1148 C 0.7697 0.64752 0.50053 0.0
H1149 H 0.8121 0.67526 0.51057 0.0
H1150 H 0.79876 0.65172 0.4851 0.0
C1151 C 0.75796 0.65325 0.51757 0.0
C1152 C 0.10395 0.34718 0.14757 0.0
C1153 C 0.08826 0.35809 0.15763 0.0
H1154 H 0.11292 0.33249 0.11993 0.0
C1155 C 0.07506 0.37022 0.1457 0.0
H1156 H 0.11504 0.3384 0.15622 0.0
C1157 C 0.07381 0.3668 0.12474 0.0
C1158 C 0.08585 0.35134 0.11572 0.0
H1159 H 0.06333 0.37959 0.15281 0.0
H1160 H 0.06122 0.37371 0.11653 0.0
C1161 C 0.10272 0.34376 0.12661 0.0
C1162 C 0.93355 0.82078 0.37667 0.0
C1163 C 0.94912 0.83365 0.3694 0.0
H1164 H 0.92029 0.80626 0.40286 0.0
C1165 C 0.95742 0.84763 0.38302 0.0
H1166 H 0.92623 0.81029 0.36652 0.0
C1167 C 0.95382 0.84543 0.40399 0.0
C1168 C 0.94202 0.82914 0.41151 0.0
H1169 H 0.96895 0.85826 0.37792 0.0
H1170 H 0.96269 0.85452 0.41424 0.0
C1171 C 0.93008 0.81847 0.39764 0.0
C1172 C 0.44748 0.69392 0.63691 0.0
C1173 C 0.46477 0.68397 0.64506 0.0
H1174 H 0.43406 0.70715 0.61024 0.0
C1175 C 0.47757 0.67295 0.63171 0.0
H1176 H 0.43683 0.70199 0.64676 0.0
C1177 C 0.47582 0.67574 0.61062 0.0
C1178 C 0.46139 0.68974 0.60271 0.0
H1179 H 0.49068 0.66456 0.63743 0.0
H1180 H 0.48765 0.66932 0.60089 0.0
C1181 C 0.44584 0.69686 0.61583 0.0
C1182 C 0.59395 0.19109 0.89961 0.0
C1183 C 0.60378 0.20795 0.90807 0.0
H1184 H 0.58098 0.17862 0.8728 0.0
C1185 C 0.61477 0.22089 0.89486 0.0
H1186 H 0.58588 0.18035 0.90931 0.0
C1187 C 0.61212 0.21974 0.87377 0.0
C1188 C 0.59831 0.20575 0.86569 0.0
H1189 H 0.62306 0.23367 0.90078 0.0
H1190 H 0.61855 0.23167 0.86423 0.0
C1191 C 0.59113 0.19006 0.87854 0.0
C1192 C 0.11894 0.70054 0.40586 0.0
C1193 C 0.10464 0.68938 0.41739 0.0
H1194 H 0.12661 0.71189 0.37615 0.0
C1195 C 0.09393 0.67394 0.4075 0.0
H1196 H 0.12823 0.71191 0.41301 0.0
C1197 C 0.09294 0.67397 0.3862 0.0
C1198 C 0.10277 0.68937 0.37488 0.0
H1199 H 0.08349 0.6643 0.41599 0.0
H1200 H 0.08174 0.6644 0.37915 0.0
C1201 C 0.118 0.70053 0.38457 0.0
C1202 C 0.59835 0.85192 0.62178 0.0
C1203 C 0.58227 0.85944 0.60974 0.0
H1204 H 0.60757 0.84429 0.65205 0.0
C1205 C 0.5683 0.87326 0.61868 0.0
H1206 H 0.60998 0.84197 0.6153 0.0
C1207 C 0.56685 0.87453 0.63992 0.0
C1208 C 0.5794 0.86199 0.65213 0.0
H1209 H 0.55626 0.88017 0.60968 0.0
H1210 H 0.55373 0.88237 0.64645 0.0
C1211 C 0.59694 0.85325 0.64302 0.0
C1212 C 0.42146 0.32722 0.9132 0.0
C1213 C 0.43658 0.33693 0.92445 0.0
H1214 H 0.41103 0.32078 0.88327 0.0
C1215 C 0.44569 0.35438 0.91586 0.0
H1216 H 0.41337 0.31431 0.91957 0.0
C1217 C 0.44426 0.35817 0.8949 0.0
C1218 C 0.43397 0.34429 0.88261 0.0
H1219 H 0.45669 0.3629 0.92442 0.0
H1220 H 0.45431 0.3694 0.88812 0.0
C1221 C 0.42007 0.33101 0.89222 0.0
C1222 C 0.95351 0.18621 0.14654 0.0
C1223 C 0.94192 0.20229 0.13793 0.0
H1224 H 0.96826 0.17493 0.17334 0.0
C1225 C 0.92968 0.21419 0.15106 0.0
H1226 H 0.96255 0.17618 0.13691 0.0
C1227 C 0.93289 0.21339 0.1721 0.0
C1228 C 0.9484 0.20072 0.18014 0.0
H1229 H 0.91997 0.22626 0.14503 0.0
H1230 H 0.92547 0.22484 0.18148 0.0
C1231 C 0.9568 0.18547 0.16757 0.0
C1232 C 0.12246 0.10288 0.34464 0.0
C1233 C 0.11142 0.08588 0.35161 0.0
H1234 H 0.15218 0.11517 0.34014 0.0
C1235 C 0.12006 0.07357 0.36705 0.0
H1236 H 0.11603 0.11329 0.33343 0.0
C1237 C 0.14093 0.07471 0.37096 0.0
C1238 C 0.15314 0.088 0.35927 0.0
H1239 H 0.11168 0.06088 0.37352 0.0
H1240 H 0.14782 0.06278 0.38024 0.0
C1241 C 0.14334 0.10399 0.34855 0.0
C1242 C 0.21754 0.88547 0.61635 0.0
C1243 C 0.2063 0.89974 0.60476 0.0
H1244 H 0.22632 0.85417 0.6199 0.0
C1245 C 0.18986 0.89262 0.5933 0.0
H1246 H 0.2299 0.89036 0.62587 0.0
C1247 C 0.18795 0.87174 0.58964 0.0
C1248 C 0.20233 0.85779 0.59758 0.0
H1249 H 0.18037 0.90317 0.58471 0.0
H1250 H 0.17713 0.86701 0.57834 0.0
C1251 C 0.21548 0.86458 0.61286 0.0
C1252 C 0.37978 0.96012 0.8542 0.0
C1253 C 0.36481 0.95496 0.84004 0.0
H1254 H 0.41178 0.96162 0.85937 0.0
C1255 C 0.36932 0.93886 0.8266 0.0
H1256 H 0.37665 0.97159 0.86561 0.0
C1257 C 0.38967 0.93336 0.82271 0.0
C1258 C 0.40529 0.94358 0.83273 0.0
H1259 H 0.35784 0.93354 0.81624 0.0
H1260 H 0.39307 0.92399 0.80958 0.0
C1261 C 0.4001 0.95442 0.85052 0.0
C1262 C 0.36533 0.12997 0.0731 0.0
C1263 C 0.35418 0.14162 0.08736 0.0
H1264 H 0.3666 0.10182 0.05701 0.0
C1265 C 0.34312 0.13112 0.10261 0.0
H1266 H 0.37485 0.13733 0.06169 0.0
C1267 C 0.33835 0.1106 0.09991 0.0
C1268 C 0.34479 0.1006 0.08206 0.0
H1269 H 0.33513 0.13945 0.11449 0.0
H1270 H 0.32691 0.10391 0.10987 0.0
C1271 C 0.36053 0.10946 0.07036 0.0
C1272 C 0.16231 0.95571 0.18629 0.0
C1273 C 0.17462 0.94739 0.20178 0.0
H1274 H 0.13185 0.96155 0.17645 0.0
C1275 C 0.16626 0.93219 0.21458 0.0
H1276 H 0.16834 0.96693 0.17567 0.0
C1277 C 0.14518 0.92917 0.21511 0.0
C1278 C 0.13232 0.94127 0.20281 0.0
H1279 H 0.17543 0.92486 0.22624 0.0
H1280 H 0.13892 0.91969 0.22721 0.0
C1281 C 0.14125 0.95259 0.18675 0.0
C1282 C 0.32864 0.89866 0.42376 0.0
C1283 C 0.34027 0.90988 0.43748 0.0
H1284 H 0.31744 0.86913 0.41679 0.0
C1285 C 0.35644 0.89972 0.44743 0.0
H1286 H 0.31668 0.90604 0.41501 0.0
C1287 C 0.35685 0.87839 0.4485 0.0
C1288 C 0.34117 0.86732 0.43949 0.0
H1289 H 0.36642 0.90798 0.45736 0.0
H1290 H 0.36712 0.87108 0.45922 0.0
C1291 C 0.32907 0.87734 0.4248 0.0
C1292 C 0.40596 0.07002 0.6887 0.0
C1293 C 0.41446 0.08209 0.70387 0.0
H1294 H 0.37976 0.06339 0.67115 0.0
C1295 C 0.40337 0.09907 0.71104 0.0
H1296 H 0.4142 0.05685 0.68288 0.0
C1297 C 0.38334 0.10269 0.70454 0.0
C1298 C 0.37418 0.08945 0.69072 0.0
H1299 H 0.40951 0.10854 0.72286 0.0
H1300 H 0.37466 0.11515 0.71119 0.0
C1301 C 0.38613 0.07375 0.68206 0.0
C1302 C 0.20804 0.17102 0.93472 0.0
C1303 C 0.19582 0.17869 0.95075 0.0
H1304 H 0.21943 0.14426 0.91992 0.0
C1305 C 0.18006 0.16639 0.95846 0.0
H1306 H 0.2199 0.18027 0.92786 0.0
C1307 C 0.17968 0.14563 0.95373 0.0
C1308 C 0.19519 0.13698 0.94142 0.0
H1309 H 0.16987 0.17194 0.97032 0.0
H1310 H 0.16919 0.13599 0.96215 0.0
C1311 C 0.20775 0.15024 0.93009 0.0
C1312 C 0.86652 0.40527 0.96061 0.0
C1313 C 0.85213 0.41563 0.9484 0.0
H1314 H 0.87422 0.37686 0.97496 0.0
C1315 C 0.84159 0.40424 0.93395 0.0
H1316 H 0.87572 0.4136 0.97122 0.0
C1317 C 0.84067 0.38302 0.93613 0.0
C1318 C 0.85043 0.37329 0.95264 0.0
H1319 H 0.83111 0.41169 0.92352 0.0
H1320 H 0.82956 0.37496 0.92729 0.0
C1321 C 0.86564 0.38404 0.96277 0.0
C1322 C 0.88775 0.61445 0.20559 0.0
C1323 C 0.87855 0.59901 0.19424 0.0
H1324 H 0.9157 0.62586 0.21706 0.0
C1325 C 0.89057 0.58869 0.17966 0.0
H1326 H 0.87889 0.62326 0.21648 0.0
C1327 C 0.91181 0.59039 0.17984 0.0
C1328 C 0.92125 0.60223 0.19475 0.0
H1329 H 0.88397 0.57717 0.17016 0.0
H1330 H 0.92076 0.5801 0.17041 0.0
C1331 C 0.90901 0.616 0.2059 0.0
C1332 C 0.71948 0.66037 0.41946 0.0
C1333 C 0.70647 0.64619 0.42893 0.0
H1334 H 0.72829 0.69158 0.41818 0.0
C1335 C 0.68746 0.65331 0.43633 0.0
H1336 H 0.73383 0.65544 0.41269 0.0
C1337 C 0.68438 0.67416 0.43972 0.0
C1338 C 0.70037 0.68778 0.43575 0.0
H1339 H 0.67649 0.64278 0.4428 0.0
H1340 H 0.67129 0.67882 0.44884 0.0
C1341 C 0.71623 0.68124 0.4226 0.0
C1342 C 0.91887 0.44475 0.34424 0.0
C1343 C 0.93143 0.46053 0.35083 0.0
H1344 H 0.88811 0.43538 0.34041 0.0
C1345 C 0.9239 0.47337 0.36632 0.0
H1346 H 0.92434 0.43395 0.333 0.0
C1347 C 0.90296 0.47422 0.37056 0.0
C1348 C 0.88961 0.46229 0.35922 0.0
H1349 H 0.93342 0.48511 0.37251 0.0
H1350 H 0.89717 0.48665 0.3798 0.0
C1351 C 0.89793 0.44557 0.34854 0.0
C1352 C 0.65678 0.58759 0.82001 0.0
C1353 C 0.66366 0.5712 0.83214 0.0
H1354 H 0.63222 0.60781 0.81257 0.0
C1355 C 0.65134 0.5644 0.84843 0.0
H1356 H 0.66599 0.59314 0.80736 0.0
C1357 C 0.63167 0.57261 0.85126 0.0
C1358 C 0.62411 0.58778 0.8379 0.0
H1359 H 0.65621 0.55166 0.85791 0.0
H1360 H 0.62201 0.56631 0.86317 0.0
C1361 C 0.63733 0.59592 0.82297 0.0
C1362 C 0.68138 0.41973 0.08286 0.0
C1363 C 0.69647 0.42683 0.09605 0.0
H1364 H 0.66902 0.39372 0.06825 0.0
C1365 C 0.70491 0.41297 0.11021 0.0
H1366 H 0.67399 0.43004 0.07217 0.0
C1367 C 0.70181 0.39202 0.10812 0.0
C1368 C 0.69044 0.38471 0.0917 0.0
H1369 H 0.71611 0.41792 0.12104 0.0
H1370 H 0.71072 0.38162 0.1175 0.0
C1371 C 0.67847 0.39877 0.08061 0.0
C1372 C 0.82402 0.64104 0.5785 0.0
C1373 C 0.80561 0.63493 0.58765 0.0
H1374 H 0.84528 0.66494 0.57361 0.0
C1375 C 0.79583 0.64801 0.60159 0.0
H1376 H 0.8319 0.63123 0.56772 0.0
C1377 C 0.80334 0.66763 0.60476 0.0
C1378 C 0.82077 0.6744 0.59412 0.0
H1379 H 0.78153 0.64374 0.60874 0.0
H1380 H 0.79489 0.67787 0.61467 0.0
C1381 C 0.83162 0.66046 0.58183 0.0
C1382 C 0.62396 0.4253 0.71091 0.0
C1383 C 0.61004 0.44063 0.70484 0.0
H1384 H 0.65549 0.41749 0.71379 0.0
C1385 C 0.61595 0.45373 0.68872 0.0
H1386 H 0.61973 0.41415 0.72245 0.0
C1387 C 0.63666 0.45594 0.68397 0.0
C1388 C 0.65127 0.44461 0.69496 0.0
H1389 H 0.60532 0.46502 0.68274 0.0
H1390 H 0.64118 0.46876 0.67448 0.0
C1391 C 0.64464 0.42731 0.70596 0.0
C1392 C 0.00343 0.39735 0.24101 0.0
C1393 C 0.02287 0.39003 0.24644 0.0
H1394 H 0.97807 0.41669 0.24873 0.0
C1395 C 0.03154 0.39673 0.26462 0.0
H1396 H 0.99627 0.39235 0.22717 0.0
C1397 C 0.02111 0.41067 0.27699 0.0
C1398 C 0.00173 0.41808 0.2715 0.0
H1399 H 0.04645 0.39131 0.26928 0.0
H1400 H 0.02832 0.41573 0.29077 0.0
C1401 C 0.99293 0.41117 0.25345 0.0
C1402 C 0.90312 0.77304 0.51871 0.0
C1403 C 0.90576 0.76457 0.49928 0.0
H1404 H 0.88817 0.77124 0.54773 0.0
C1405 C 0.89467 0.74715 0.49429 0.0
H1406 H 0.91146 0.78641 0.5231 0.0
C1407 C 0.88128 0.73835 0.50853 0.0
C1408 C 0.87877 0.74681 0.52801 0.0
H1409 H 0.89644 0.7402 0.47947 0.0
H1410 H 0.8729 0.72497 0.50425 0.0
C1411 C 0.88982 0.76426 0.53291 0.0
C1412 C 0.52916 0.64405 0.77126 0.0
C1413 C 0.54778 0.6339 0.76742 0.0
H1414 H 0.50528 0.663 0.75954 0.0
C1415 C 0.55649 0.63513 0.74777 0.0
H1416 H 0.52193 0.64331 0.78616 0.0
C1417 C 0.54687 0.64654 0.73238 0.0
C1418 C 0.52831 0.65678 0.73634 0.0
H1419 H 0.57078 0.62739 0.74432 0.0
H1420 H 0.55406 0.64747 0.71746 0.0
C1421 C 0.51952 0.65527 0.75591 0.0
C1422 C 0.65054 0.28252 0.02591 0.0
C1423 C 0.6564 0.30207 0.01933 0.0
H1424 H 0.63415 0.25551 0.01923 0.0
C1425 C 0.64981 0.30934 0.00025 0.0
H1426 H 0.65543 0.27642 0.04048 0.0
C1427 C 0.63774 0.29725 0.98795 0.0
C1428 C 0.63195 0.27767 0.99453 0.0
H1429 H 0.65418 0.32429 0.99469 0.0
H1430 H 0.63286 0.30329 0.97335 0.0
C1431 C 0.63843 0.27047 0.01366 0.0
C1432 C 0.0282 0.64087 0.25899 0.0
C1433 C 0.00844 0.63509 0.26491 0.0
H1434 H 0.05512 0.65699 0.26677 0.0
C1435 C 0.00072 0.64133 0.28394 0.0
H1436 H 0.03462 0.63622 0.24446 0.0
C1437 C 0.01258 0.65296 0.29686 0.0
C1438 C 0.03233 0.65877 0.29092 0.0
H1439 H 0.98561 0.63699 0.28904 0.0
H1440 H 0.00615 0.65758 0.31139 0.0
C1441 C 0.03999 0.65266 0.27183 0.0
C1442 C 0.64952 0.75577 0.53054 0.0
C1443 C 0.65968 0.76287 0.51296 0.0
H1444 H 0.6279 0.76218 0.55421 0.0
C1445 C 0.65572 0.78283 0.50591 0.0
H1446 H 0.65241 0.74054 0.53649 0.0
C1447 C 0.64145 0.79526 0.51603 0.0
C1448 C 0.63124 0.78806 0.53357 0.0
H1449 H 0.66341 0.78872 0.49244 0.0
H1450 H 0.63834 0.81044 0.51008 0.0
C1451 C 0.6356 0.76826 0.54082 0.0
C1452 C 0.5272 0.39137 0.81271 0.0
C1453 C 0.50829 0.38686 0.80411 0.0
H1454 H 0.55517 0.40749 0.80967 0.0
C1455 C 0.50287 0.3962 0.78554 0.0
H1456 H 0.53189 0.38437 0.82696 0.0
C1457 C 0.51623 0.4096 0.77564 0.0
C1458 C 0.53535 0.41366 0.78402 0.0
H1459 H 0.48841 0.39301 0.77853 0.0
H1460 H 0.51172 0.41649 0.76129 0.0
C1461 C 0.54063 0.40451 0.80271 0.0
C1462 C 0.89544 0.26263 0.0356 0.0
C1463 C 0.90311 0.2704 0.0538 0.0
H1464 H 0.87654 0.26793 0.0097 0.0
C1465 C 0.89708 0.29006 0.05992 0.0
H1466 H 0.89984 0.24756 0.03044 0.0
C1467 C 0.88387 0.30183 0.04793 0.0
C1468 C 0.87635 0.29412 0.02963 0.0
H1469 H 0.90279 0.29653 0.07382 0.0
H1470 H 0.87955 0.31695 0.05303 0.0
C1471 C 0.88216 0.27436 0.02366 0.0
C1472 C 0.27033 0.01221 0.409 0.0
C1473 C 0.26409 0.99251 0.41468 0.0
H1474 H 0.2635 0.03952 0.39219 0.0
C1475 C 0.24533 0.98542 0.4077 0.0
H1476 H 0.28467 0.01815 0.41419 0.0
C1477 C 0.23308 0.99777 0.39524 0.0
C1478 C 0.23942 0.0174 0.38941 0.0
H1479 H 0.24003 0.97037 0.41193 0.0
H1480 H 0.21878 0.99181 0.38999 0.0
C1481 C 0.25816 0.02449 0.39645 0.0
C1482 C 0.26151 0.00778 0.63876 0.0
C1483 C 0.27079 0.98849 0.63656 0.0
H1484 H 0.26402 0.03814 0.64974 0.0
C1485 C 0.2902 0.98503 0.64489 0.0
H1486 H 0.24658 0.011 0.63254 0.0
C1487 C 0.3003 0.00072 0.65478 0.0
C1488 C 0.29118 0.02016 0.65645 0.0
H1489 H 0.29779 0.97034 0.64338 0.0
H1490 H 0.31532 0.99768 0.66087 0.0
C1491 C 0.27159 0.02342 0.64854 0.0
C1492 C 0.25933 0.03794 0.88614 0.0
C1493 C 0.26546 0.05501 0.89716 0.0
H1494 H 0.2677 0.01524 0.86426 0.0
C1495 C 0.28526 0.06248 0.89412 0.0
H1496 H 0.24418 0.03182 0.88818 0.0
C1497 C 0.29879 0.05283 0.88068 0.0
C1498 C 0.29274 0.03564 0.86981 0.0
H1499 H 0.2905 0.07554 0.90244 0.0
H1500 H 0.31398 0.05888 0.87881 0.0
C1501 C 0.27281 0.02842 0.8725 0.0
C1502 C 0.2691 0.0087 0.15079 0.0
C1503 C 0.25067 0.01692 0.15837 0.0
H1504 H 0.29293 0.0109 0.12834 0.0
C1505 C 0.24214 0.03422 0.14875 0.0
H1506 H 0.27605 0.99539 0.15788 0.0
C1507 C 0.25186 0.04317 0.13197 0.0
C1508 C 0.27026 0.03494 0.12433 0.0
H1509 H 0.22799 0.04096 0.15426 0.0
H1510 H 0.24486 0.05648 0.12492 0.0
C1511 C 0.27877 0.0176 0.13388 0.0
C1512 C 0.39287 0.22545 0.00276 0.0
C1513 C 0.38651 0.2313 0.02239 0.0
H1514 H 0.41028 0.23307 0.97603 0.0
C1515 C 0.39327 0.24986 0.03018 0.0
H1516 H 0.38784 0.21128 0.99628 0.0
C1517 C 0.40606 0.26236 0.01856 0.0
C1518 C 0.41232 0.2566 -0.00112 0.0
H1519 H 0.3886 0.25483 0.04523 0.0
H1520 H 0.41103 0.27655 0.02504 0.0
C1521 C 0.40562 0.238 0.9911 0.0
C1522 C 0.04182 0.88326 0.30076 0.0
C1523 C 0.02354 0.8757 0.29306 0.0
H1524 H 0.06724 0.90287 0.29582 0.0
C1525 C 0.01684 0.88259 0.27389 0.0
H1526 H 0.04747 0.87815 0.31542 0.0
C1527 C 0.02819 0.89671 0.26264 0.0
C1528 C 0.04654 0.90417 0.27027 0.0
H1529 H 0.00286 0.877 0.2675 0.0
H1530 H 0.02257 0.90177 0.24795 0.0
C1531 C 0.05324 0.8973 0.28945 0.0
C1532 C 0.13932 0.78067 0.49232 0.0
C1533 C 0.13187 0.76182 0.4993 0.0
H1534 H 0.15867 0.80593 0.49812 0.0
C1535 C 0.13827 0.75418 0.5183 0.0
H1536 H 0.13455 0.78705 0.47782 0.0
C1537 C 0.15209 0.76498 0.52992 0.0
C1538 C 0.15968 0.78374 0.52288 0.0
H1539 H 0.13275 0.73974 0.52415 0.0
H1540 H 0.15695 0.75852 0.54436 0.0
C1541 C 0.15301 0.79156 0.50404 0.0
C1542 C 0.50297 0.88248 0.75322 0.0
C1543 C 0.49929 0.87957 0.73242 0.0
H1544 H 0.49395 0.89751 0.78062 0.0
C1545 C 0.48247 0.88949 0.72344 0.0
H1546 H 0.51568 0.87493 0.76067 0.0
C1547 C 0.46988 0.90246 0.73496 0.0
C1548 C 0.4739 0.9057 0.75567 0.0
H1549 H 0.47916 0.88744 0.70747 0.0
H1550 H 0.4573 0.91026 0.72755 0.0
C1551 C 0.49042 0.89537 0.7647 0.0
C1552 C 0.04981 0.13572 0.25824 0.0
C1553 C 0.04221 0.12851 0.27705 0.0
H1554 H 0.04595 0.15663 0.23332 0.0
C1555 C 0.02439 0.13743 0.28526 0.0
H1556 H 0.06345 0.12909 0.25146 0.0
C1557 C 0.01438 0.15327 0.27488 0.0
C1558 C 0.0219 0.16037 0.256 0.0
H1559 H 0.01815 0.13219 0.29971 0.0
H1560 H 0.00072 0.15989 0.28162 0.0
C1561 C 0.0397 0.15142 0.24778 0.0
C1562 C 0.50179 0.14269 0.76272 0.0
C1563 C 0.50184 0.12498 0.77496 0.0
H1564 H 0.5106 0.17388 0.75976 0.0
C1565 C 0.51181 0.12519 0.7938 0.0
H1566 H 0.49432 0.14297 0.74809 0.0
C1567 C 0.52107 0.1429 0.80052 0.0
C1568 C 0.52067 0.16074 0.78849 0.0
H1569 H 0.51218 0.11178 0.80357 0.0
H1570 H 0.52831 0.14266 0.81527 0.0
C1571 C 0.51118 0.16038 0.76939 0.0
C1572 C 0.14901 0.24627 0.04328 0.0
C1573 C 0.15841 0.25423 0.02564 0.0
H1574 H 0.12656 0.25062 0.06674 0.0
C1575 C 0.15204 0.27339 0.01811 0.0
H1576 H 0.15365 0.2316 0.04954 0.0
C1577 C 0.13643 0.28428 0.02796 0.0
C1578 C 0.12704 0.27631 0.04561 0.0
H1579 H 0.15902 0.27994 0.00456 0.0
H1580 H 0.13172 0.29894 0.02171 0.0
C1581 C 0.13355 0.25724 0.05322 0.0
C1582 C 0.39041 0.76783 0.49741 0.0
C1583 C 0.3819 0.78535 0.50645 0.0
H1584 H 0.41218 0.74334 0.49979 0.0
C1585 C 0.38886 0.79131 0.52563 0.0
H1586 H 0.38532 0.7628 0.48267 0.0
C1587 C 0.40402 0.78001 0.53556 0.0
C1588 C 0.41272 0.76263 0.52642 0.0
H1589 H 0.3825 0.80464 0.53309 0.0
H1590 H 0.40915 0.78511 0.55026 0.0
C1591 C 0.40574 0.75663 0.50725 0.0
C1592 C 0.76059 0.48737 0.90404 0.0
C1593 C 0.77916 0.49583 0.90987 0.0
H1594 H 0.7346 0.48979 0.88485 0.0
C1595 C 0.78561 0.51405 0.90051 0.0
H1596 H 0.7551 0.47344 0.91109 0.0
C1597 C 0.77384 0.52342 0.88535 0.0
C1598 C 0.75531 0.51488 0.87947 0.0
H1599 H 0.79982 0.52097 0.90476 0.0
H1600 H 0.77932 0.53729 0.87818 0.0
C1601 C 0.74874 0.49685 0.88909 0.0
C1602 C 0.79998 0.50942 0.15667 0.0
C1603 C 0.79308 0.52853 0.16356 0.0
H1604 H 0.79415 0.48363 0.13809 0.0
C1605 C 0.77425 0.53624 0.15675 0.0
H1606 H 0.81434 0.50297 0.16179 0.0
C1607 C 0.76269 0.52517 0.14304 0.0
C1608 C 0.76962 0.50607 0.13615 0.0
H1609 H 0.7685 0.5509 0.16186 0.0
H1610 H 0.74836 0.53161 0.13782 0.0
C1611 C 0.78831 0.49824 0.14322 0.0
C1612 C 0.8158 0.55852 0.39459 0.0
C1613 C 0.80783 0.54042 0.38682 0.0
H1614 H 0.80989 0.58571 0.41168 0.0
C1615 C 0.78722 0.53601 0.39047 0.0
H1616 H 0.83161 0.56241 0.39194 0.0
C1617 C 0.7748 0.54939 0.40151 0.0
C1618 C 0.78269 0.56749 0.40928 0.0
H1619 H 0.78054 0.52226 0.38462 0.0
H1620 H 0.75899 0.54541 0.40403 0.0
C1621 C 0.80334 0.57193 0.40577 0.0
C1622 C 0.75161 0.52474 0.63324 0.0
C1623 C 0.74443 0.54441 0.62823 0.0
H1624 H 0.7473 0.49776 0.65121 0.0
C1625 C 0.72673 0.55194 0.63797 0.0
H1626 H 0.76516 0.51846 0.62596 0.0
C1627 C 0.71639 0.53999 0.65239 0.0
C1628 C 0.72358 0.5203 0.65737 0.0
H1629 H 0.72075 0.567 0.63437 0.0
H1630 H 0.70284 0.54623 0.6597 0.0
C1631 C 0.7413 0.51283 0.64766 0.0
loop_
_geom_bond_atom_site_label_1
_geom_bond_atom_site_label_2
_geom_bond_distance
_geom_bond_site_symmetry_2
_ccdc_geom_bond_type
Zn0 O3 2.031 . S
Zn0 O5 2.049 . S
Zn0 O10 2.067 . S
Zn1 O2 1.962 . S
Zn1 O4 1.986 . S
Zn1 O6 1.996 . S
Zn1 O9 1.943 . S
O2 Zn1 1.962 . S
O2 C7 1.254 . S
O3 Zn0 2.031 . S
O3 C7 1.269 . S
O4 Zn1 1.986 . S
O4 C11 1.262 . S
O5 Zn0 2.049 . S
O5 C13 1.260 1_455 S
O6 Zn1 1.996 . S
O6 C13 1.257 1_455 S
C7 O2 1.254 . S
C7 O3 1.269 . S
C8 O9 1.249 . S
C8 O10 1.270 . S
O9 Zn1 1.943 . S
O9 C8 1.249 . S
O10 Zn0 2.067 . S
O10 C8 1.270 . S
C11 O4 1.262 . S
C11 O12 1.232 . S
O12 C11 1.232 . S
C13 O5 1.260 1_655 S
C13 O6 1.257 1_655 S
Zn14 O17 2.031 . S
Zn14 O19 2.049 . S
Zn14 O24 2.067 . S
Zn15 O16 1.962 . S
Zn15 O18 1.986 . S
Zn15 O20 1.996 . S
Zn15 O23 1.943 . S
O16 Zn15 1.962 . S
O16 C21 1.254 . S
O17 Zn14 2.031 . S
O17 C21 1.269 . S
O18 Zn15 1.986 . S
O18 C25 1.262 . S
O19 Zn14 2.049 . S
O19 C27 1.260 . S
O20 Zn15 1.996 . S
O20 C27 1.257 . S
C21 O16 1.254 . S
C21 O17 1.269 . S
C22 O23 1.249 . S
C22 O24 1.270 . S
O23 Zn15 1.943 . S
O23 C22 1.249 . S
O24 Zn14 2.067 . S
O24 C22 1.270 . S
C25 O18 1.262 . S
C25 O26 1.232 . S
O26 C25 1.232 . S
C27 O19 1.260 . S
C27 O20 1.257 . S
Zn28 O31 2.031 . S
Zn28 O33 2.049 . S
Zn28 O38 2.067 . S
Zn29 O30 1.962 . S
Zn29 O32 1.986 . S
Zn29 O34 1.996 . S
Zn29 O37 1.943 . S
O30 Zn29 1.962 . S
O30 C35 1.254 . S
O31 Zn28 2.031 . S
O31 C35 1.269 . S
O32 Zn29 1.986 . S
O32 C39 1.262 . S
O33 Zn28 2.049 . S
O33 C41 1.260 . S
O34 Zn29 1.996 . S
O34 C41 1.257 . S
C35 O30 1.254 . S
C35 O31 1.269 . S
C36 O37 1.249 . S
C36 O38 1.270 . S
O37 Zn29 1.943 . S
O37 C36 1.249 . S
O38 Zn28 2.067 . S
O38 C36 1.270 . S
C39 O32 1.262 . S
C39 O40 1.232 . S
O40 C39 1.232 . S
C41 O33 1.260 . S
C41 O34 1.257 . S
Zn42 O45 2.031 . S
Zn42 O47 2.049 . S
Zn42 O52 2.067 . S
Zn43 O44 1.962 . S
Zn43 O46 1.986 . S
Zn43 O48 1.996 . S
Zn43 O51 1.943 . S
O44 Zn43 1.962 . S
O44 C49 1.254 . S
O45 Zn42 2.031 . S
O45 C49 1.269 . S
O46 Zn43 1.986 . S
O46 C53 1.262 . S
O47 Zn42 2.049 . S
O47 C55 1.260 . S
O48 Zn43 1.996 . S
O48 C55 1.257 . S
C49 O44 1.254 . S
C49 O45 1.269 . S
C50 O51 1.249 . S
C50 O52 1.270 . S
O51 Zn43 1.943 . S
O51 C50 1.249 . S
O52 Zn42 2.067 . S
O52 C50 1.270 . S
C53 O46 1.262 . S
C53 O54 1.232 . S
O54 C53 1.232 . S
C55 O47 1.260 . S
C55 O48 1.257 . S
Zn56 O59 2.031 . S
Zn56 O61 2.049 . S
Zn56 O66 2.067 . S
Zn57 O58 1.962 . S
Zn57 O60 1.986 . S
Zn57 O62 1.996 . S
Zn57 O65 1.943 . S
O58 Zn57 1.962 . S
O58 C63 1.254 . S
O59 Zn56 2.031 . S
O59 C63 1.269 . S
O60 Zn57 1.986 . S
O60 C67 1.262 . S
O61 Zn56 2.049 . S
O61 C69 1.260 . S
O62 Zn57 1.996 . S
O62 C69 1.257 . S
C63 O58 1.254 . S
C63 O59 1.269 . S
C64 O65 1.249 . S
C64 O66 1.270 . S
O65 Zn57 1.943 . S
O65 C64 1.249 . S
O66 Zn56 2.067 . S
O66 C64 1.270 . S
C67 O60 1.262 . S
C67 O68 1.232 . S
O68 C67 1.232 . S
C69 O61 1.260 . S
C69 O62 1.257 . S
Zn70 O73 2.031 . S
Zn70 O75 2.049 . S
Zn70 O80 2.067 . S
Zn71 O72 1.962 . S
Zn71 O74 1.986 . S
Zn71 O76 1.996 . S
Zn71 O79 1.943 . S
O72 Zn71 1.962 . S
O72 C77 1.254 . S
O73 Zn70 2.031 . S
O73 C77 1.269 . S
O74 Zn71 1.986 . S
O74 C81 1.262 . S
O75 Zn70 2.049 . S
O75 C83 1.260 . S
O76 Zn71 1.996 . S
O76 C83 1.257 . S
C77 O72 1.254 . S
C77 O73 1.269 . S
C78 O79 1.249 . S
C78 O80 1.270 . S
O79 Zn71 1.943 . S
O79 C78 1.249 . S
O80 Zn70 2.067 . S
O80 C78 1.270 . S
C81 O74 1.262 . S
C81 O82 1.232 . S
O82 C81 1.232 . S
C83 O75 1.260 . S
C83 O76 1.257 . S
Zn84 O87 2.031 . S
Zn84 O89 2.049 . S
Zn84 O94 2.067 . S
Zn85 O86 1.962 . S
Zn85 O88 1.986 . S
Zn85 O90 1.996 . S
Zn85 O93 1.943 . S
O86 Zn85 1.962 . S
O86 C91 1.254 . S
O87 Zn84 2.031 . S
O87 C91 1.269 . S
O88 Zn85 1.986 . S
O88 C95 1.262 . S
O89 Zn84 2.049 . S
O89 C97 1.260 . S
O90 Zn85 1.996 . S
O90 C97 1.257 . S
C91 O86 1.254 . S
C91 O87 1.269 . S
C92 O93 1.249 . S
C92 O94 1.270 . S
O93 Zn85 1.943 . S
O93 C92 1.249 . S
O94 Zn84 2.067 . S
O94 C92 1.270 . S
C95 O88 1.262 . S
C95 O96 1.232 . S
O96 C95 1.232 . S
C97 O89 1.260 . S
C97 O90 1.257 . S
Zn98 O101 2.031 . S
Zn98 O103 2.049 . S
Zn98 O108 2.067 . S
Zn99 O100 1.962 . S
Zn99 O102 1.986 . S
Zn99 O104 1.996 . S
Zn99 O107 1.943 . S
O100 Zn99 1.962 . S
O100 C105 1.254 . S
O101 Zn98 2.031 . S
O101 C105 1.269 . S
O102 Zn99 1.986 . S
O102 C109 1.262 . S
O103 Zn98 2.049 . S
O103 C111 1.260 . S
O104 Zn99 1.996 . S
O104 C111 1.257 . S
C105 O100 1.254 . S
C105 O101 1.269 . S
C106 O107 1.249 . S
C106 O108 1.270 . S
O107 Zn99 1.943 . S
O107 C106 1.249 . S
O108 Zn98 2.067 . S
O108 C106 1.270 . S
C109 O102 1.262 . S
C109 O110 1.232 . S
O110 C109 1.232 . S
C111 O103 1.260 . S
C111 O104 1.257 . S
Zn112 O115 2.031 . S
Zn112 O117 2.049 . S
Zn112 O122 2.067 . S
Zn113 O114 1.962 . S
Zn113 O116 1.986 . S
Zn113 O118 1.996 . S
Zn113 O121 1.943 . S
O114 Zn113 1.962 . S
O114 C119 1.254 . S
O115 Zn112 2.031 . S
O115 C119 1.269 . S
O116 Zn113 1.986 . S
O116 C123 1.262 . S
O117 Zn112 2.049 . S
O117 C125 1.260 1_545 S
O118 Zn113 1.996 . S
O118 C125 1.257 1_545 S
C119 O114 1.254 . S
C119 O115 1.269 . S
C120 O121 1.249 . S
C120 O122 1.270 . S
O121 Zn113 1.943 . S
O121 C120 1.249 . S
O122 Zn112 2.067 . S
O122 C120 1.270 . S
C123 O116 1.262 . S
C123 O124 1.232 . S
O124 C123 1.232 . S
C125 O117 1.260 1_565 S
C125 O118 1.257 1_565 S
Zn126 O129 2.031 . S
Zn126 O131 2.049 . S
Zn126 O136 2.067 . S
Zn127 O128 1.962 . S
Zn127 O130 1.986 . S
Zn127 O132 1.996 . S
Zn127 O135 1.943 . S
O128 Zn127 1.962 . S
O128 C133 1.254 . S
O129 Zn126 2.031 . S
O129 C133 1.269 . S
O130 Zn127 1.986 . S
O130 C137 1.262 . S
O131 Zn126 2.049 . S
O131 C139 1.260 . S
O132 Zn127 1.996 . S
O132 C139 1.257 . S
C133 O128 1.254 . S
C133 O129 1.269 . S
C134 O135 1.249 . S
C134 O136 1.270 . S
O135 Zn127 1.943 . S
O135 C134 1.249 . S
O136 Zn126 2.067 . S
O136 C134 1.270 . S
C137 O130 1.262 . S
C137 O138 1.232 . S
O138 C137 1.232 . S
C139 O131 1.260 . S
C139 O132 1.257 . S
Zn140 O143 2.031 . S
Zn140 O145 2.049 . S
Zn140 O150 2.070 1_545 S
Zn141 O142 1.962 . S
Zn141 O144 1.986 . S
Zn141 O146 1.996 . S
Zn141 O149 1.943 . S
O142 Zn141 1.962 . S
O142 C147 1.254 . S
O143 Zn140 2.031 . S
O143 C147 1.269 . S
O144 Zn141 1.986 . S
O144 C151 1.262 . S
O145 Zn140 2.049 . S
O145 C153 1.260 . S
O146 Zn141 1.996 . S
O146 C153 1.257 . S
C147 O142 1.254 . S
C147 O143 1.269 . S
C148 O149 1.249 1_565 S
C148 O150 1.269 . S
O149 Zn141 1.943 . S
O149 C148 1.249 1_545 S
O150 Zn140 2.070 1_565 S
O150 C148 1.269 . S
C151 O144 1.262 . S
C151 O152 1.232 . S
O152 C151 1.232 . S
C153 O145 1.260 . S
C153 O146 1.257 . S
Zn154 O157 2.031 . S
Zn154 O159 2.049 . S
Zn154 O164 2.067 . S
Zn155 O156 1.962 . S
Zn155 O158 1.986 . S
Zn155 O160 1.996 . S
Zn155 O163 1.943 . S
O156 Zn155 1.962 . S
O156 C161 1.254 . S
O157 Zn154 2.031 . S
O157 C161 1.269 . S
O158 Zn155 1.986 . S
O158 C165 1.262 . S
O159 Zn154 2.049 . S
O159 C167 1.260 . S
O160 Zn155 1.996 . S
O160 C167 1.257 . S
C161 O156 1.254 . S
C161 O157 1.269 . S
C162 O163 1.249 . S
C162 O164 1.270 . S
O163 Zn155 1.943 . S
O163 C162 1.249 . S
O164 Zn154 2.067 . S
O164 C162 1.270 . S
C165 O158 1.262 . S
C165 O166 1.232 . S
O166 C165 1.232 . S
C167 O159 1.260 . S
C167 O160 1.257 . S
Zn168 O171 2.031 . S
Zn168 O173 2.049 . S
Zn168 O178 2.067 . S
Zn169 O170 1.962 . S
Zn169 O172 1.986 . S
Zn169 O174 1.996 . S
Zn169 O177 1.943 . S
O170 Zn169 1.962 . S
O170 C175 1.254 . S
O171 Zn168 2.031 . S
O171 C175 1.269 . S
O172 Zn169 1.986 . S
O172 C179 1.262 . S
O173 Zn168 2.049 . S
O173 C181 1.260 . S
O174 Zn169 1.996 . S
O174 C181 1.257 . S
C175 O170 1.254 . S
C175 O171 1.269 . S
C176 O177 1.253 . S
C176 O178 1.273 . S
O177 Zn169 1.943 . S
O177 C176 1.253 . S
O178 Zn168 2.067 . S
O178 C176 1.273 . S
C179 O172 1.262 . S
C179 O180 1.232 . S
O180 C179 1.232 . S
C181 O173 1.260 . S
C181 O174 1.257 . S
Zn182 O185 2.031 . S
Zn182 O187 2.049 . S
Zn182 O192 2.067 . S
Zn183 O184 1.962 . S
Zn183 O186 1.986 . S
Zn183 O188 1.996 . S
Zn183 O191 1.943 . S
O184 Zn183 1.962 . S
O184 C189 1.254 . S
O185 Zn182 2.031 . S
O185 C189 1.269 . S
O186 Zn183 1.986 . S
O186 C193 1.262 . S
O187 Zn182 2.049 . S
O187 C195 1.260 . S
O188 Zn183 1.996 . S
O188 C195 1.257 . S
C189 O184 1.254 . S
C189 O185 1.269 . S
C190 O191 1.249 . S
C190 O192 1.270 . S
O191 Zn183 1.943 . S
O191 C190 1.249 . S
O192 Zn182 2.067 . S
O192 C190 1.270 . S
C193 O186 1.262 . S
C193 O194 1.232 . S
O194 C193 1.232 . S
C195 O187 1.260 . S
C195 O188 1.257 . S
Zn196 O199 2.031 . S
Zn196 O201 2.049 . S
Zn196 O206 2.067 . S
Zn197 O198 1.962 . S
Zn197 O200 1.986 . S
Zn197 O202 1.996 . S
Zn197 O205 1.943 . S
O198 Zn197 1.962 . S
O198 C203 1.254 . S
O199 Zn196 2.031 . S
O199 C203 1.269 . S
O200 Zn197 1.986 . S
O200 C207 1.262 . S
O201 Zn196 2.049 . S
O201 C209 1.260 . S
O202 Zn197 1.996 . S
O202 C209 1.257 . S
C203 O198 1.254 . S
C203 O199 1.269 . S
C204 O205 1.249 . S
C204 O206 1.270 . S
O205 Zn197 1.943 . S
O205 C204 1.249 . S
O206 Zn196 2.067 . S
O206 C204 1.270 . S
C207 O200 1.262 . S
C207 O208 1.232 . S
O208 C207 1.232 . S
C209 O201 1.260 . S
C209 O202 1.257 . S
Zn210 O213 2.031 . S
Zn210 O215 2.049 . S
Zn210 O220 2.067 . S
Zn211 O212 1.962 . S
Zn211 O214 1.986 . S
Zn211 O216 1.996 . S
Zn211 O219 1.943 . S
O212 Zn211 1.962 . S
O212 C217 1.254 . S
O213 Zn210 2.031 . S
O213 C217 1.269 . S
O214 Zn211 1.986 . S
O214 C221 1.262 . S
O215 Zn210 2.049 . S
O215 C223 1.260 . S
O216 Zn211 1.996 . S
O216 C223 1.257 . S
C217 O212 1.254 . S
C217 O213 1.269 . S
C218 O219 1.249 . S
C218 O220 1.270 . S
O219 Zn211 1.943 . S
O219 C218 1.249 . S
O220 Zn210 2.067 . S
O220 C218 1.270 . S
C221 O214 1.262 . S
C221 O222 1.232 . S
O222 C221 1.232 . S
C223 O215 1.260 . S
C223 O216 1.257 . S
Zn224 O227 2.031 . S
Zn224 O229 2.049 . S
Zn224 O234 2.067 . S
Zn225 O226 1.962 . S
Zn225 O228 1.986 . S
Zn225 O230 1.996 . S
Zn225 O233 1.943 . S
O226 Zn225 1.962 . S
O226 C231 1.254 . S
O227 Zn224 2.031 . S
O227 C231 1.269 . S
O228 Zn225 1.986 . S
O228 C235 1.262 . S
O229 Zn224 2.049 . S
O229 C237 1.260 1_554 S
O230 Zn225 1.996 . S
O230 C237 1.257 1_554 S
C231 O226 1.254 . S
C231 O227 1.269 . S
C232 O233 1.249 . S
C232 O234 1.270 . S
O233 Zn225 1.943 . S
O233 C232 1.249 . S
O234 Zn224 2.067 . S
O234 C232 1.270 . S
C235 O228 1.262 . S
C235 O236 1.232 . S
O236 C235 1.232 . S
C237 O229 1.260 1_556 S
C237 O230 1.257 1_556 S
Zn238 O241 2.031 . S
Zn238 O243 2.049 . S
Zn238 O248 2.070 1_554 S
Zn239 O240 1.962 . S
Zn239 O242 1.986 . S
Zn239 O244 1.996 . S
Zn239 O247 1.943 . S
O240 Zn239 1.962 . S
O240 C245 1.254 . S
O241 Zn238 2.031 . S
O241 C245 1.269 . S
O242 Zn239 1.986 . S
O242 C249 1.262 . S
O243 Zn238 2.049 . S
O243 C251 1.260 . S
O244 Zn239 1.996 . S
O244 C251 1.257 . S
C245 O240 1.254 . S
C245 O241 1.269 . S
C246 O247 1.249 1_556 S
C246 O248 1.269 . S
O247 Zn239 1.943 . S
O247 C246 1.249 1_554 S
O248 Zn238 2.070 1_556 S
O248 C246 1.269 . S
C249 O242 1.262 . S
C249 O250 1.232 . S
O250 C249 1.232 . S
C251 O243 1.260 . S
C251 O244 1.257 . S
Zn252 O255 2.031 . S
Zn252 O257 2.049 . S
Zn252 O262 2.067 . S
Zn253 O254 1.962 . S
Zn253 O256 1.986 . S
Zn253 O258 1.996 . S
Zn253 O261 1.943 . S
O254 Zn253 1.962 . S
O254 C259 1.254 . S
O255 Zn252 2.031 . S
O255 C259 1.269 . S
O256 Zn253 1.986 . S
O256 C263 1.262 . S
O257 Zn252 2.049 . S
O257 C265 1.260 . S
O258 Zn253 1.996 . S
O258 C265 1.257 . S
C259 O254 1.254 . S
C259 O255 1.269 . S
C260 O261 1.249 . S
C260 O262 1.270 . S
O261 Zn253 1.943 . S
O261 C260 1.249 . S
O262 Zn252 2.067 . S
O262 C260 1.270 . S
C263 O256 1.262 . S
C263 O264 1.232 . S
O264 C263 1.232 . S
C265 O257 1.260 . S
C265 O258 1.257 . S
Zn266 O269 2.031 . S
Zn266 O271 2.049 . S
Zn266 O276 2.067 . S
Zn267 O268 1.962 . S
Zn267 O270 1.986 . S
Zn267 O272 1.996 . S
Zn267 O275 1.943 . S
O268 Zn267 1.962 . S
O268 C273 1.254 . S
O269 Zn266 2.031 . S
O269 C273 1.269 . S
O270 Zn267 1.986 . S
O270 C277 1.262 . S
O271 Zn266 2.049 . S
O271 C279 1.260 . S
O272 Zn267 1.996 . S
O272 C279 1.257 . S
C273 O268 1.254 . S
C273 O269 1.269 . S
C274 O275 1.249 . S
C274 O276 1.270 . S
O275 Zn267 1.943 . S
O275 C274 1.249 . S
O276 Zn266 2.067 . S
O276 C274 1.270 . S
C277 O270 1.262 . S
C277 O278 1.232 . S
O278 C277 1.232 . S
C279 O271 1.260 . S
C279 O272 1.257 . S
Zn280 O283 2.031 . S
Zn280 O285 2.049 . S
Zn280 O290 2.067 . S
Zn281 O282 1.962 . S
Zn281 O284 1.986 . S
Zn281 O286 1.996 . S
Zn281 O289 1.943 . S
O282 Zn281 1.962 . S
O282 C287 1.254 . S
O283 Zn280 2.031 . S
O283 C287 1.269 . S
O284 Zn281 1.986 . S
O284 C291 1.262 . S
O285 Zn280 2.049 . S
O285 C293 1.260 . S
O286 Zn281 1.996 . S
O286 C293 1.257 . S
C287 O282 1.254 . S
C287 O283 1.269 . S
C288 O289 1.249 . S
C288 O290 1.270 . S
O289 Zn281 1.943 . S
O289 C288 1.249 . S
O290 Zn280 2.067 . S
O290 C288 1.270 . S
C291 O284 1.262 . S
C291 O292 1.232 . S
O292 C291 1.232 . S
C293 O285 1.260 . S
C293 O286 1.257 . S
Zn294 O297 2.031 . S
Zn294 O299 2.049 . S
Zn294 O304 2.067 . S
Zn295 O296 1.962 . S
Zn295 O298 1.986 . S
Zn295 O300 1.996 . S
Zn295 O303 1.943 . S
O296 Zn295 1.962 . S
O296 C301 1.254 . S
O297 Zn294 2.031 . S
O297 C301 1.269 . S
O298 Zn295 1.986 . S
O298 C305 1.262 . S
O299 Zn294 2.049 . S
O299 C307 1.260 . S
O300 Zn295 1.996 . S
O300 C307 1.257 . S
C301 O296 1.254 . S
C301 O297 1.269 . S
C302 O303 1.249 . S
C302 O304 1.270 . S
O303 Zn295 1.943 . S
O303 C302 1.249 . S
O304 Zn294 2.067 . S
O304 C302 1.270 . S
C305 O298 1.262 . S
C305 O306 1.232 . S
O306 C305 1.232 . S
C307 O299 1.260 . S
C307 O300 1.257 . S
Zn308 O311 2.031 . S
Zn308 O313 2.049 . S
Zn308 O318 2.067 . S
Zn309 O310 1.962 . S
Zn309 O312 1.986 . S
Zn309 O314 1.996 . S
Zn309 O317 1.943 . S
O310 Zn309 1.962 . S
O310 C315 1.254 . S
O311 Zn308 2.031 . S
O311 C315 1.269 . S
O312 Zn309 1.986 . S
O312 C319 1.262 . S
O313 Zn308 2.049 . S
O313 C321 1.260 . S
O314 Zn309 1.996 . S
O314 C321 1.257 . S
C315 O310 1.254 . S
C315 O311 1.269 . S
C316 O317 1.249 . S
C316 O318 1.270 . S
O317 Zn309 1.943 . S
O317 C316 1.249 . S
O318 Zn308 2.067 . S
O318 C316 1.270 . S
C319 O312 1.262 . S
C319 O320 1.232 . S
O320 C319 1.232 . S
C321 O313 1.260 . S
C321 O314 1.257 . S
Zn322 O325 2.031 . S
Zn322 O327 2.049 . S
Zn322 O332 2.067 . S
Zn323 O324 1.962 . S
Zn323 O326 1.986 . S
Zn323 O328 1.996 . S
Zn323 O331 1.943 . S
O324 Zn323 1.962 . S
O324 C329 1.254 . S
O325 Zn322 2.031 . S
O325 C329 1.269 . S
O326 Zn323 1.986 . S
O326 C333 1.262 . S
O327 Zn322 2.049 . S
O327 C335 1.260 . S
O328 Zn323 1.996 . S
O328 C335 1.257 . S
C329 O324 1.254 . S
C329 O325 1.269 . S
C330 O331 1.249 . S
C330 O332 1.270 . S
O331 Zn323 1.943 . S
O331 C330 1.249 . S
O332 Zn322 2.067 . S
O332 C330 1.270 . S
C333 O326 1.262 . S
C333 O334 1.232 . S
O334 C333 1.232 . S
C335 O327 1.260 . S
C335 O328 1.257 . S
Zn336 O339 2.031 . S
Zn336 O341 2.049 . S
Zn336 O346 2.067 . S
Zn337 O338 1.962 . S
Zn337 O340 1.986 . S
Zn337 O342 1.996 . S
Zn337 O345 1.943 . S
O338 Zn337 1.962 . S
O338 C343 1.254 . S
O339 Zn336 2.031 . S
O339 C343 1.269 . S
O340 Zn337 1.986 . S
O340 C347 1.262 . S
O341 Zn336 2.049 . S
O341 C349 1.260 . S
O342 Zn337 1.996 . S
O342 C349 1.257 . S
C343 O338 1.254 . S
C343 O339 1.269 . S
C344 O345 1.249 . S
C344 O346 1.270 . S
O345 Zn337 1.943 . S
O345 C344 1.249 . S
O346 Zn336 2.067 . S
O346 C344 1.270 . S
C347 O340 1.262 . S
C347 O348 1.232 . S
O348 C347 1.232 . S
C349 O341 1.260 . S
C349 O342 1.257 . S
Zn350 O353 2.031 . S
Zn350 O355 2.049 . S
Zn350 O360 2.067 . S
Zn351 O352 1.962 . S
Zn351 O354 1.986 . S
Zn351 O356 1.996 . S
Zn351 O359 1.943 . S
O352 Zn351 1.962 . S
O352 C357 1.254 . S
O353 Zn350 2.031 . S
O353 C357 1.269 . S
O354 Zn351 1.986 . S
O354 C361 1.262 . S
O355 Zn350 2.049 . S
O355 C363 1.260 . S
O356 Zn351 1.996 . S
O356 C363 1.257 . S
C357 O352 1.254 . S
C357 O353 1.269 . S
C358 O359 1.249 . S
C358 O360 1.270 . S
O359 Zn351 1.943 . S
O359 C358 1.249 . S
O360 Zn350 2.067 . S
O360 C358 1.270 . S
C361 O354 1.262 . S
C361 O362 1.232 . S
O362 C361 1.232 . S
C363 O355 1.260 . S
C363 O356 1.257 . S
Zn364 O367 2.031 . S
Zn364 O369 2.049 . S
Zn364 O374 2.067 . S
Zn365 O366 1.962 . S
Zn365 O368 1.986 . S
Zn365 O370 1.996 . S
Zn365 O373 1.943 . S
O366 Zn365 1.962 . S
O366 C371 1.254 . S
O367 Zn364 2.031 . S
O367 C371 1.269 . S
O368 Zn365 1.986 . S
O368 C375 1.262 . S
O369 Zn364 2.049 . S
O369 C377 1.260 . S
O370 Zn365 1.996 . S
O370 C377 1.257 . S
C371 O366 1.254 . S
C371 O367 1.269 . S
C372 O373 1.252 . S
C372 O374 1.272 . S
O373 Zn365 1.943 . S
O373 C372 1.252 . S
O374 Zn364 2.067 . S
O374 C372 1.272 . S
C375 O368 1.262 . S
C375 O376 1.232 . S
O376 C375 1.232 . S
C377 O369 1.260 . S
C377 O370 1.257 . S
Zn378 O381 2.031 . S
Zn378 O383 2.049 . S
Zn378 O388 2.067 . S
Zn379 O380 1.962 . S
Zn379 O382 1.986 . S
Zn379 O384 1.996 . S
Zn379 O387 1.943 . S
O380 Zn379 1.962 . S
O380 C385 1.254 . S
O381 Zn378 2.031 . S
O381 C385 1.269 . S
O382 Zn379 1.986 . S
O382 C389 1.262 . S
O383 Zn378 2.049 . S
O383 C391 1.260 . S
O384 Zn379 1.996 . S
O384 C391 1.257 . S
C385 O380 1.254 . S
C385 O381 1.269 . S
C386 O387 1.249 . S
C386 O388 1.270 . S
O387 Zn379 1.943 . S
O387 C386 1.249 . S
O388 Zn378 2.067 . S
O388 C386 1.270 . S
C389 O382 1.262 . S
C389 O390 1.232 . S
O390 C389 1.232 . S
C391 O383 1.260 . S
C391 O384 1.257 . S
Zn392 O395 2.031 . S
Zn392 O397 2.049 . S
Zn392 O402 2.067 . S
Zn393 O394 1.962 . S
Zn393 O396 1.986 . S
Zn393 O398 1.996 . S
Zn393 O401 1.943 . S
O394 Zn393 1.962 . S
O394 C399 1.254 . S
O395 Zn392 2.031 . S
O395 C399 1.269 . S
O396 Zn393 1.986 . S
O396 C403 1.262 . S
O397 Zn392 2.049 . S
O397 C405 1.260 . S
O398 Zn393 1.996 . S
O398 C405 1.257 . S
C399 O394 1.254 . S
C399 O395 1.269 . S
C400 O401 1.249 . S
C400 O402 1.270 . S
O401 Zn393 1.943 . S
O401 C400 1.249 . S
O402 Zn392 2.067 . S
O402 C400 1.270 . S
C403 O396 1.262 . S
C403 O404 1.232 . S
O404 C403 1.232 . S
C405 O397 1.260 . S
C405 O398 1.257 . S
Zn406 O409 2.031 . S
Zn406 O411 2.049 . S
Zn406 O416 2.067 . S
Zn407 O408 1.962 . S
Zn407 O410 1.986 . S
Zn407 O412 1.996 . S
Zn407 O415 1.943 . S
O408 Zn407 1.962 . S
O408 C413 1.254 . S
O409 Zn406 2.031 . S
O409 C413 1.269 . S
O410 Zn407 1.986 . S
O410 C417 1.262 . S
O411 Zn406 2.049 . S
O411 C419 1.260 . S
O412 Zn407 1.996 . S
O412 C419 1.257 . S
C413 O408 1.254 . S
C413 O409 1.269 . S
C414 O415 1.249 . S
C414 O416 1.270 . S
O415 Zn407 1.943 . S
O415 C414 1.249 . S
O416 Zn406 2.067 . S
O416 C414 1.270 . S
C417 O410 1.262 . S
C417 O418 1.232 . S
O418 C417 1.232 . S
C419 O411 1.260 . S
C419 O412 1.257 . S
Zn420 O423 2.031 . S
Zn420 O425 2.049 . S
Zn420 O430 2.070 1_455 S
Zn421 O422 1.962 . S
Zn421 O424 1.986 . S
Zn421 O426 1.996 . S
Zn421 O429 1.943 . S
O422 Zn421 1.962 . S
O422 C427 1.254 . S
O423 Zn420 2.031 . S
O423 C427 1.269 . S
O424 Zn421 1.986 . S
O424 C431 1.262 . S
O425 Zn420 2.049 . S
O425 C433 1.260 . S
O426 Zn421 1.996 . S
O426 C433 1.257 . S
C427 O422 1.254 . S
C427 O423 1.269 . S
C428 O429 1.249 1_655 S
C428 O430 1.269 . S
O429 Zn421 1.943 . S
O429 C428 1.249 1_455 S
O430 Zn420 2.070 1_655 S
O430 C428 1.269 . S
C431 O424 1.262 . S
C431 O432 1.232 . S
O432 C431 1.232 . S
C433 O425 1.260 . S
C433 O426 1.257 . S
Zn434 O437 2.031 . S
Zn434 O439 2.049 . S
Zn434 O444 2.067 . S
Zn435 O436 1.962 . S
Zn435 O438 1.986 . S
Zn435 O440 1.996 . S
Zn435 O443 1.943 . S
O436 Zn435 1.962 . S
O436 C441 1.254 . S
O437 Zn434 2.031 . S
O437 C441 1.269 . S
O438 Zn435 1.986 . S
O438 C445 1.262 . S
O439 Zn434 2.049 . S
O439 C447 1.260 . S
O440 Zn435 1.996 . S
O440 C447 1.257 . S
C441 O436 1.254 . S
C441 O437 1.269 . S
C442 O443 1.249 . S
C442 O444 1.270 . S
O443 Zn435 1.943 . S
O443 C442 1.249 . S
O444 Zn434 2.067 . S
O444 C442 1.270 . S
C445 O438 1.262 . S
C445 O446 1.232 . S
O446 C445 1.232 . S
C447 O439 1.260 . S
C447 O440 1.257 . S
Zn448 O451 2.031 . S
Zn448 O453 2.049 . S
Zn448 O458 2.067 . S
Zn449 O450 1.962 . S
Zn449 O452 1.986 . S
Zn449 O454 1.996 . S
Zn449 O457 1.943 . S
O450 Zn449 1.962 . S
O450 C455 1.254 . S
O451 Zn448 2.031 . S
O451 C455 1.269 . S
O452 Zn449 1.986 . S
O452 C459 1.262 . S
O453 Zn448 2.049 . S
O453 C461 1.260 . S
O454 Zn449 1.996 . S
O454 C461 1.257 . S
C455 O450 1.254 . S
C455 O451 1.269 . S
C456 O457 1.249 . S
C456 O458 1.270 . S
O457 Zn449 1.943 . S
O457 C456 1.249 . S
O458 Zn448 2.067 . S
O458 C456 1.270 . S
C459 O452 1.262 . S
C459 O460 1.232 . S
O460 C459 1.232 . S
C461 O453 1.260 . S
C461 O454 1.257 . S
Zn462 O465 2.031 . S
Zn462 O467 2.049 . S
Zn462 O472 2.067 . S
Zn463 O464 1.962 . S
Zn463 O466 1.986 . S
Zn463 O468 1.996 . S
Zn463 O471 1.943 . S
O464 Zn463 1.962 . S
O464 C469 1.254 . S
O465 Zn462 2.031 . S
O465 C469 1.269 . S
O466 Zn463 1.986 . S
O466 C473 1.262 . S
O467 Zn462 2.049 . S
O467 C475 1.260 . S
O468 Zn463 1.996 . S
O468 C475 1.257 . S
C469 O464 1.254 . S
C469 O465 1.269 . S
C470 O471 1.249 . S
C470 O472 1.270 . S
O471 Zn463 1.943 . S
O471 C470 1.249 . S
O472 Zn462 2.067 . S
O472 C470 1.270 . S
C473 O466 1.262 . S
C473 O474 1.232 . S
O474 C473 1.232 . S
C475 O467 1.260 . S
C475 O468 1.257 . S
Zn476 O479 2.031 . S
Zn476 O481 2.049 . S
Zn476 O486 2.067 . S
Zn477 O478 1.962 . S
Zn477 O480 1.986 . S
Zn477 O482 1.996 . S
Zn477 O485 1.943 . S
O478 Zn477 1.962 . S
O478 C483 1.254 . S
O479 Zn476 2.031 . S
O479 C483 1.269 . S
O480 Zn477 1.986 . S
O480 C487 1.262 . S
O481 Zn476 2.049 . S
O481 C489 1.260 . S
O482 Zn477 1.996 . S
O482 C489 1.257 . S
C483 O478 1.254 . S
C483 O479 1.269 . S
C484 O485 1.249 . S
C484 O486 1.270 . S
O485 Zn477 1.943 . S
O485 C484 1.249 . S
O486 Zn476 2.067 . S
O486 C484 1.270 . S
C487 O480 1.262 . S
C487 O488 1.232 . S
O488 C487 1.232 . S
C489 O481 1.260 . S
C489 O482 1.257 . S
Zn490 O493 2.031 . S
Zn490 O495 2.049 . S
Zn490 O500 2.067 . S
Zn491 O492 1.962 . S
Zn491 O494 1.986 . S
Zn491 O496 1.996 . S
Zn491 O499 1.943 . S
O492 Zn491 1.962 . S
O492 C497 1.254 . S
O493 Zn490 2.031 . S
O493 C497 1.269 . S
O494 Zn491 1.986 . S
O494 C501 1.262 . S
O495 Zn490 2.049 . S
O495 C503 1.260 . S
O496 Zn491 1.996 . S
O496 C503 1.257 . S
C497 O492 1.254 . S
C497 O493 1.269 . S
C498 O499 1.249 . S
C498 O500 1.270 . S
O499 Zn491 1.943 . S
O499 C498 1.249 . S
O500 Zn490 2.067 . S
O500 C498 1.270 . S
C501 O494 1.262 . S
C501 O502 1.232 . S
O502 C501 1.232 . S
C503 O495 1.260 . S
C503 O496 1.257 . S
Zn504 O507 2.031 . S
Zn504 O509 2.049 . S
Zn504 O514 2.067 . S
Zn505 O506 1.962 . S
Zn505 O508 1.986 . S
Zn505 O510 1.996 . S
Zn505 O513 1.943 . S
O506 Zn505 1.962 . S
O506 C511 1.254 . S
O507 Zn504 2.031 . S
O507 C511 1.269 . S
O508 Zn505 1.986 . S
O508 C515 1.262 . S
O509 Zn504 2.049 . S
O509 C517 1.260 . S
O510 Zn505 1.996 . S
O510 C517 1.257 . S
C511 O506 1.254 . S
C511 O507 1.269 . S
C512 O513 1.249 . S
C512 O514 1.270 . S
O513 Zn505 1.943 . S
O513 C512 1.249 . S
O514 Zn504 2.067 . S
O514 C512 1.270 . S
C515 O508 1.262 . S
C515 O516 1.232 . S
O516 C515 1.232 . S
C517 O509 1.260 . S
C517 O510 1.257 . S
Zn518 O521 2.031 . S
Zn518 O523 2.049 . S
Zn518 O528 2.067 . S
Zn519 O520 1.962 . S
Zn519 O522 1.986 . S
Zn519 O524 1.996 . S
Zn519 O527 1.943 . S
O520 Zn519 1.962 . S
O520 C525 1.254 . S
O521 Zn518 2.031 . S
O521 C525 1.269 . S
O522 Zn519 1.986 . S
O522 C529 1.262 . S
O523 Zn518 2.049 . S
O523 C531 1.260 . S
O524 Zn519 1.996 . S
O524 C531 1.257 . S
C525 O520 1.254 . S
C525 O521 1.269 . S
C526 O527 1.249 . S
C526 O528 1.270 . S
O527 Zn519 1.943 . S
O527 C526 1.249 . S
O528 Zn518 2.067 . S
O528 C526 1.270 . S
C529 O522 1.262 . S
C529 O530 1.232 . S
O530 C529 1.232 . S
C531 O523 1.260 . S
C531 O524 1.257 . S
Zn532 O535 2.031 . S
Zn532 O537 2.049 . S
Zn532 O542 2.067 . S
Zn533 O534 1.962 . S
Zn533 O536 1.986 . S
Zn533 O538 1.996 . S
Zn533 O541 1.943 . S
O534 Zn533 1.962 . S
O534 C539 1.254 . S
O535 Zn532 2.031 . S
O535 C539 1.269 . S
O536 Zn533 1.986 . S
O536 C543 1.262 . S
O537 Zn532 2.049 . S
O537 C545 1.260 . S
O538 Zn533 1.996 . S
O538 C545 1.257 . S
C539 O534 1.254 . S
C539 O535 1.269 . S
C540 O541 1.249 . S
C540 O542 1.270 . S
O541 Zn533 1.943 . S
O541 C540 1.249 . S
O542 Zn532 2.067 . S
O542 C540 1.270 . S
C543 O536 1.262 . S
C543 O544 1.232 . S
O544 C543 1.232 . S
C545 O537 1.260 . S
C545 O538 1.257 . S
Zn546 O549 2.031 . S
Zn546 O551 2.049 . S
Zn546 O556 2.067 . S
Zn547 O548 1.962 . S
Zn547 O550 1.986 . S
Zn547 O552 1.996 . S
Zn547 O555 1.943 . S
O548 Zn547 1.962 . S
O548 C553 1.254 . S
O549 Zn546 2.031 . S
O549 C553 1.269 . S
O550 Zn547 1.986 . S
O550 C557 1.262 . S
O551 Zn546 2.049 . S
O551 C559 1.260 . S
O552 Zn547 1.996 . S
O552 C559 1.257 . S
C553 O548 1.254 . S
C553 O549 1.269 . S
C554 O555 1.249 . S
C554 O556 1.270 . S
O555 Zn547 1.943 . S
O555 C554 1.249 . S
O556 Zn546 2.067 . S
O556 C554 1.270 . S
C557 O550 1.262 . S
C557 O558 1.232 . S
O558 C557 1.232 . S
C559 O551 1.260 . S
C559 O552 1.257 . S
Zn560 O563 2.031 . S
Zn560 O565 2.049 . S
Zn560 O570 2.067 . S
Zn561 O562 1.962 . S
Zn561 O564 1.986 . S
Zn561 O566 1.996 . S
Zn561 O569 1.943 . S
O562 Zn561 1.962 . S
O562 C567 1.254 . S
O563 Zn560 2.031 . S
O563 C567 1.269 . S
O564 Zn561 1.986 . S
O564 C571 1.262 . S
O565 Zn560 2.049 . S
O565 C573 1.260 . S
O566 Zn561 1.996 . S
O566 C573 1.257 . S
C567 O562 1.254 . S
C567 O563 1.269 . S
C568 O569 1.249 . S
C568 O570 1.270 . S
O569 Zn561 1.943 . S
O569 C568 1.249 . S
O570 Zn560 2.067 . S
O570 C568 1.270 . S
C571 O564 1.262 . S
C571 O572 1.232 . S
O572 C571 1.232 . S
C573 O565 1.260 . S
C573 O566 1.257 . S
Zn574 O577 2.031 . S
Zn574 O579 2.049 . S
Zn574 O584 2.067 . S
Zn575 O576 1.962 . S
Zn575 O578 1.986 . S
Zn575 O580 1.996 . S
Zn575 O583 1.943 . S
O576 Zn575 1.962 . S
O576 C581 1.254 . S
O577 Zn574 2.031 . S
O577 C581 1.269 . S
O578 Zn575 1.986 . S
O578 C585 1.262 . S
O579 Zn574 2.049 . S
O579 C587 1.260 . S
O580 Zn575 1.996 . S
O580 C587 1.257 . S
C581 O576 1.254 . S
C581 O577 1.269 . S
C582 O583 1.249 . S
C582 O584 1.270 . S
O583 Zn575 1.943 . S
O583 C582 1.249 . S
O584 Zn574 2.067 . S
O584 C582 1.270 . S
C585 O578 1.262 . S
C585 O586 1.232 . S
O586 C585 1.232 . S
C587 O579 1.260 . S
C587 O580 1.257 . S
Zn588 O591 2.031 . S
Zn588 O593 2.049 . S
Zn588 O598 2.067 . S
Zn589 O590 1.962 . S
Zn589 O592 1.986 . S
Zn589 O594 1.996 . S
Zn589 O597 1.943 . S
O590 Zn589 1.962 . S
O590 C595 1.254 . S
O591 Zn588 2.031 . S
O591 C595 1.269 . S
O592 Zn589 1.986 . S
O592 C599 1.262 . S
O593 Zn588 2.049 . S
O593 C601 1.260 . S
O594 Zn589 1.996 . S
O594 C601 1.257 . S
C595 O590 1.254 . S
C595 O591 1.269 . S
C596 O597 1.249 . S
C596 O598 1.270 . S
O597 Zn589 1.943 . S
O597 C596 1.249 . S
O598 Zn588 2.067 . S
O598 C596 1.270 . S
C599 O592 1.262 . S
C599 O600 1.232 . S
O600 C599 1.232 . S
C601 O593 1.260 . S
C601 O594 1.257 . S
Zn602 O605 2.031 . S
Zn602 O607 2.049 . S
Zn602 O612 2.067 . S
Zn603 O604 1.962 . S
Zn603 O606 1.986 . S
Zn603 O608 1.996 . S
Zn603 O611 1.943 . S
O604 Zn603 1.962 . S
O604 C609 1.254 . S
O605 Zn602 2.031 . S
O605 C609 1.269 . S
O606 Zn603 1.986 . S
O606 C613 1.262 . S
O607 Zn602 2.049 . S
O607 C615 1.260 . S
O608 Zn603 1.996 . S
O608 C615 1.257 . S
C609 O604 1.254 . S
C609 O605 1.269 . S
C610 O611 1.253 . S
C610 O612 1.273 . S
O611 Zn603 1.943 . S
O611 C610 1.253 . S
O612 Zn602 2.067 . S
O612 C610 1.273 . S
C613 O606 1.262 . S
C613 O614 1.232 . S
O614 C613 1.232 . S
C615 O607 1.260 . S
C615 O608 1.257 . S
Zn616 O619 2.031 . S
Zn616 O621 2.049 . S
Zn616 O626 2.067 . S
Zn617 O618 1.962 . S
Zn617 O620 1.986 . S
Zn617 O622 1.996 . S
Zn617 O625 1.943 . S
O618 Zn617 1.962 . S
O618 C623 1.254 . S
O619 Zn616 2.031 . S
O619 C623 1.269 . S
O620 Zn617 1.986 . S
O620 C627 1.262 . S
O621 Zn616 2.049 . S
O621 C629 1.260 . S
O622 Zn617 1.996 . S
O622 C629 1.257 . S
C623 O618 1.254 . S
C623 O619 1.269 . S
C624 O625 1.249 . S
C624 O626 1.270 . S
O625 Zn617 1.943 . S
O625 C624 1.249 . S
O626 Zn616 2.067 . S
O626 C624 1.270 . S
C627 O620 1.262 . S
C627 O628 1.232 . S
O628 C627 1.232 . S
C629 O621 1.260 . S
C629 O622 1.257 . S
Zn630 O633 2.031 . S
Zn630 O635 2.049 . S
Zn630 O640 2.067 . S
Zn631 O632 1.962 . S
Zn631 O634 1.986 . S
Zn631 O636 1.996 . S
Zn631 O639 1.943 . S
O632 Zn631 1.962 . S
O632 C637 1.254 . S
O633 Zn630 2.031 . S
O633 C637 1.269 . S
O634 Zn631 1.986 . S
O634 C641 1.262 . S
O635 Zn630 2.049 . S
O635 C643 1.260 . S
O636 Zn631 1.996 . S
O636 C643 1.257 . S
C637 O632 1.254 . S
C637 O633 1.269 . S
C638 O639 1.249 . S
C638 O640 1.270 . S
O639 Zn631 1.943 . S
O639 C638 1.249 . S
O640 Zn630 2.067 . S
O640 C638 1.270 . S
C641 O634 1.262 . S
C641 O642 1.232 . S
O642 C641 1.232 . S
C643 O635 1.260 . S
C643 O636 1.257 . S
Zn644 O647 2.031 . S
Zn644 O649 2.049 . S
Zn644 O654 2.067 . S
Zn645 O646 1.962 . S
Zn645 O648 1.986 . S
Zn645 O650 1.996 . S
Zn645 O653 1.943 . S
O646 Zn645 1.962 . S
O646 C651 1.254 . S
O647 Zn644 2.031 . S
O647 C651 1.269 . S
O648 Zn645 1.986 . S
O648 C655 1.262 . S
O649 Zn644 2.049 . S
O649 C657 1.260 . S
O650 Zn645 1.996 . S
O650 C657 1.257 . S
C651 O646 1.254 . S
C651 O647 1.269 . S
C652 O653 1.249 . S
C652 O654 1.270 . S
O653 Zn645 1.943 . S
O653 C652 1.249 . S
O654 Zn644 2.067 . S
O654 C652 1.270 . S
C655 O648 1.262 . S
C655 O656 1.232 . S
O656 C655 1.232 . S
C657 O649 1.260 . S
C657 O650 1.257 . S
Zn658 O661 2.031 . S
Zn658 O663 2.049 . S
Zn658 O668 2.067 . S
Zn659 O660 1.962 . S
Zn659 O662 1.986 . S
Zn659 O664 1.996 . S
Zn659 O667 1.943 . S
O660 Zn659 1.962 . S
O660 C665 1.254 . S
O661 Zn658 2.031 . S
O661 C665 1.269 . S
O662 Zn659 1.986 . S
O662 C669 1.262 . S
O663 Zn658 2.049 . S
O663 C671 1.260 . S
O664 Zn659 1.996 . S
O664 C671 1.257 . S
C665 O660 1.254 . S
C665 O661 1.269 . S
C666 O667 1.249 . S
C666 O668 1.270 . S
O667 Zn659 1.943 . S
O667 C666 1.249 . S
O668 Zn658 2.067 . S
O668 C666 1.270 . S
C669 O662 1.262 . S
C669 O670 1.232 . S
O670 C669 1.232 . S
C671 O663 1.260 . S
C671 O664 1.257 . S
C672 C673 1.387 . S
C672 H676 0.950 . S
C672 C681 1.390 . S
C673 C672 1.387 . S
C673 C675 1.387 . S
H674 C681 0.950 . S
C675 C673 1.387 . S
C675 C677 1.390 . S
C675 H679 0.950 . S
H676 C672 0.950 . S
C677 C675 1.390 . S
C677 C678 1.387 . S
C677 H680 0.950 . S
C678 C677 1.387 . S
C678 C681 1.387 . S
H679 C675 0.950 . S
H680 C677 0.950 . S
C681 C672 1.390 . S
C681 H674 0.950 . S
C681 C678 1.387 . S
C682 C683 1.387 . S
C682 H686 0.950 . S
C682 C691 1.390 . S
C683 C682 1.387 . S
C683 C685 1.387 . S
H684 C691 0.950 . S
C685 C683 1.387 . S
C685 C687 1.390 . S
C685 H689 0.950 . S
H686 C682 0.950 . S
C687 C685 1.390 . S
C687 C688 1.387 . S
C687 H690 0.950 . S
C688 C687 1.387 . S
C688 C691 1.387 . S
H689 C685 0.950 . S
H690 C687 0.950 . S
C691 C682 1.390 . S
C691 H684 0.950 . S
C691 C688 1.387 . S
C692 C693 1.387 . S
C692 H696 0.950 . S
C692 C701 1.390 . S
C693 C692 1.387 . S
C693 C695 1.387 . S
H694 C701 0.950 . S
C695 C693 1.387 . S
C695 C697 1.390 . S
C695 H699 0.950 . S
H696 C692 0.950 . S
C697 C695 1.390 . S
C697 C698 1.387 . S
C697 H700 0.950 . S
C698 C697 1.387 . S
C698 C701 1.387 . S
H699 C695 0.950 . S
H700 C697 0.950 . S
C701 C692 1.390 . S
C701 H694 0.950 . S
C701 C698 1.387 . S
C702 C703 1.387 . S
C702 H706 0.950 . S
C702 C711 1.390 . S
C703 C702 1.387 . S
C703 C705 1.387 . S
H704 C711 0.950 . S
C705 C703 1.387 . S
C705 C707 1.390 . S
C705 H709 0.950 1_556 S
H706 C702 0.950 . S
C707 C705 1.390 . S
C707 C708 1.387 . S
C707 H710 0.950 1_556 S
C708 C707 1.387 . S
C708 C711 1.387 . S
H709 C705 0.950 1_554 S
H710 C707 0.950 1_554 S
C711 C702 1.390 . S
C711 H704 0.950 . S
C711 C708 1.387 . S
C712 C713 1.387 . S
C712 H716 0.950 . S
C712 C721 1.390 . S
C713 C712 1.387 . S
C713 C715 1.387 . S
H714 C721 0.950 . S
C715 C713 1.387 . S
C715 C717 1.390 . S
C715 H719 0.950 . S
H716 C712 0.950 . S
C717 C715 1.390 . S
C717 C718 1.387 . S
C717 H720 0.950 . S
C718 C717 1.387 . S
C718 C721 1.387 . S
H719 C715 0.950 . S
H720 C717 0.950 . S
C721 C712 1.390 . S
C721 H714 0.950 . S
C721 C718 1.387 . S
C722 C723 1.387 . S
C722 H726 0.950 . S
C722 C731 1.390 . S
C723 C722 1.387 . S
C723 C725 1.387 . S
H724 C731 0.950 . S
C725 C723 1.387 . S
C725 C727 1.390 . S
C725 H729 0.950 . S
H726 C722 0.950 . S
C727 C725 1.390 . S
C727 C728 1.387 . S
C727 H730 0.950 . S
C728 C727 1.387 . S
C728 C731 1.387 . S
H729 C725 0.950 . S
H730 C727 0.950 . S
C731 C722 1.390 . S
C731 H724 0.950 . S
C731 C728 1.387 . S
C732 C733 1.387 . S
C732 H736 0.950 . S
C732 C741 1.390 . S
C733 C732 1.387 . S
C733 C735 1.387 . S
H734 C741 0.950 . S
C735 C733 1.387 . S
C735 C737 1.390 . S
C735 H739 0.950 . S
H736 C732 0.950 . S
C737 C735 1.390 . S
C737 C738 1.387 . S
C737 H740 0.950 . S
C738 C737 1.387 . S
C738 C741 1.387 . S
H739 C735 0.950 . S
H740 C737 0.950 . S
C741 C732 1.390 . S
C741 H734 0.950 . S
C741 C738 1.387 . S
C742 C743 1.387 . S
C742 H746 0.950 . S
C742 C751 1.390 1_655 S
C743 C742 1.387 . S
C743 C745 1.407 . S
H744 C751 0.950 . S
C745 C743 1.407 . S
C745 C747 1.362 1_655 S
C745 H749 0.959 . S
H746 C742 0.950 . S
C747 C745 1.362 1_455 S
C747 C748 1.387 . S
C747 H750 0.950 . S
C748 C747 1.387 . S
C748 C751 1.387 . S
H749 C745 0.959 . S
H750 C747 0.950 . S
C751 C742 1.390 1_455 S
C751 H744 0.950 . S
C751 C748 1.387 . S
C752 C753 1.387 . S
C752 H756 0.950 . S
C752 C761 1.390 . S
C753 C752 1.387 . S
C753 C755 1.387 . S
H754 C761 0.950 . S
C755 C753 1.387 . S
C755 C757 1.390 . S
C755 H759 0.950 . S
H756 C752 0.950 . S
C757 C755 1.390 . S
C757 C758 1.387 . S
C757 H760 0.950 . S
C758 C757 1.387 . S
C758 C761 1.387 . S
H759 C755 0.950 . S
H760 C757 0.950 . S
C761 C752 1.390 . S
C761 H754 0.950 . S
C761 C758 1.387 . S
C762 C763 1.387 . S
C762 H766 0.950 . S
C762 C771 1.390 . S
C763 C762 1.387 . S
C763 C765 1.387 . S
H764 C771 0.950 . S
C765 C763 1.387 . S
C765 C767 1.390 . S
C765 H769 0.950 1_565 S
H766 C762 0.950 . S
C767 C765 1.390 . S
C767 C768 1.387 . S
C767 H770 0.950 1_565 S
C768 C767 1.387 . S
C768 C771 1.387 . S
H769 C765 0.950 1_545 S
H770 C767 0.950 1_545 S
C771 C762 1.390 . S
C771 H764 0.950 . S
C771 C768 1.387 . S
C772 C773 1.387 . S
C772 H776 0.950 . S
C772 C781 1.390 . S
C773 C772 1.387 . S
C773 C775 1.387 . S
H774 C781 0.950 . S
C775 C773 1.387 . S
C775 C777 1.390 . S
C775 H779 0.950 . S
H776 C772 0.950 . S
C777 C775 1.390 . S
C777 C778 1.387 . S
C777 H780 0.950 . S
C778 C777 1.387 . S
C778 C781 1.387 . S
H779 C775 0.950 . S
H780 C777 0.950 . S
C781 C772 1.390 . S
C781 H774 0.950 . S
C781 C778 1.387 . S
C782 C783 1.387 . S
C782 H786 0.950 . S
C782 C791 1.390 1_554 S
C783 C782 1.387 . S
C783 C785 1.387 . S
H784 C791 0.950 . S
C785 C783 1.387 . S
C785 C787 1.390 . S
C785 H789 0.950 . S
H786 C782 0.950 . S
C787 C785 1.390 . S
C787 C788 1.387 1_554 S
C787 H790 0.950 . S
C788 C787 1.387 1_556 S
C788 C791 1.387 . S
H789 C785 0.950 . S
H790 C787 0.950 . S
C791 C782 1.390 1_556 S
C791 H784 0.950 . S
C791 C788 1.387 . S
C792 C793 1.387 . S
C792 H796 0.950 . S
C792 C801 1.390 . S
C793 C792 1.387 . S
C793 C795 1.387 . S
H794 C801 0.950 . S
C795 C793 1.387 . S
C795 C797 1.390 . S
C795 H799 0.950 . S
H796 C792 0.950 . S
C797 C795 1.390 . S
C797 C798 1.387 . S
C797 H800 0.950 . S
C798 C797 1.387 . S
C798 C801 1.387 . S
H799 C795 0.950 . S
H800 C797 0.950 . S
C801 C792 1.390 . S
C801 H794 0.950 . S
C801 C798 1.387 . S
C802 C803 1.387 . S
C802 H806 0.950 . S
C802 C811 1.390 . S
C803 C802 1.387 . S
C803 C805 1.387 . S
H804 C811 0.950 . S
C805 C803 1.387 . S
C805 C807 1.390 . S
C805 H809 0.950 . S
H806 C802 0.950 . S
C807 C805 1.390 . S
C807 C808 1.387 . S
C807 H810 0.950 . S
C808 C807 1.387 . S
C808 C811 1.387 . S
H809 C805 0.950 . S
H810 C807 0.950 . S
C811 C802 1.390 . S
C811 H804 0.950 . S
C811 C808 1.387 . S
C812 C813 1.387 . S
C812 H816 0.950 1_655 S
C812 C821 1.390 . S
C813 C812 1.387 . S
C813 C815 1.387 . S
H814 C821 0.946 1_455 S
C815 C813 1.387 . S
C815 C817 1.390 . S
C815 H819 0.950 . S
H816 C812 0.950 1_455 S
C817 C815 1.390 . S
C817 C818 1.387 . S
C817 H820 0.950 . S
C818 C817 1.387 . S
C818 C821 1.387 . S
H819 C815 0.950 . S
H820 C817 0.950 . S
C821 C812 1.390 . S
C821 H814 0.946 1_655 S
C821 C818 1.387 . S
C822 C823 1.387 . S
C822 H826 0.950 . S
C822 C831 1.390 . S
C823 C822 1.387 . S
C823 C825 1.387 . S
H824 C831 0.950 . S
C825 C823 1.387 . S
C825 C827 1.390 . S
C825 H829 0.950 . S
H826 C822 0.950 . S
C827 C825 1.390 . S
C827 C828 1.387 . S
C827 H830 0.950 . S
C828 C827 1.387 . S
C828 C831 1.387 . S
H829 C825 0.950 . S
H830 C827 0.950 . S
C831 C822 1.390 . S
C831 H824 0.950 . S
C831 C828 1.387 . S
C832 C833 1.387 . S
C832 H836 0.950 . S
C832 C841 1.390 1_545 S
C833 C832 1.387 . S
C833 C835 1.387 . S
H834 C841 0.950 . S
C835 C833 1.387 . S
C835 C837 1.390 . S
C835 H839 0.950 . S
H836 C832 0.950 . S
C837 C835 1.390 . S
C837 C838 1.387 1_545 S
C837 H840 0.950 . S
C838 C837 1.387 1_565 S
C838 C841 1.387 . S
H839 C835 0.950 . S
H840 C837 0.950 . S
C841 C832 1.390 1_565 S
C841 H834 0.950 . S
C841 C838 1.387 . S
C842 C843 1.387 . S
C842 H846 0.950 . S
C842 C851 1.390 . S
C843 C842 1.387 . S
C843 C845 1.387 . S
H844 C851 0.950 . S
C845 C843 1.387 . S
C845 C847 1.390 . S
C845 H849 0.950 . S
H846 C842 0.950 . S
C847 C845 1.390 . S
C847 C848 1.387 . S
C847 H850 0.950 . S
C848 C847 1.387 . S
C848 C851 1.387 . S
H849 C845 0.950 . S
H850 C847 0.950 . S
C851 C842 1.390 . S
C851 H844 0.950 . S
C851 C848 1.387 . S
C852 C853 1.387 . S
C852 H856 0.950 . S
C852 C861 1.390 . S
C853 C852 1.387 . S
C853 C855 1.387 . S
H854 C861 0.950 . S
C855 C853 1.387 . S
C855 C857 1.390 . S
C855 H859 0.950 . S
H856 C852 0.950 . S
C857 C855 1.390 . S
C857 C858 1.387 . S
C857 H860 0.950 . S
C858 C857 1.387 . S
C858 C861 1.387 . S
H859 C855 0.950 . S
H860 C857 0.950 . S
C861 C852 1.390 . S
C861 H854 0.950 . S
C861 C858 1.387 . S
C862 C863 1.387 . S
C862 H866 0.950 . S
C862 C871 1.390 . S
C863 C862 1.387 . S
C863 C865 1.387 . S
H864 C871 0.950 . S
C865 C863 1.387 . S
C865 C867 1.390 . S
C865 H869 0.950 . S
H866 C862 0.950 . S
C867 C865 1.390 . S
C867 C868 1.387 . S
C867 H870 0.950 . S
C868 C867 1.387 . S
C868 C871 1.387 . S
H869 C865 0.950 . S
H870 C867 0.950 . S
C871 C862 1.390 . S
C871 H864 0.950 . S
C871 C868 1.387 . S
C872 C873 1.387 . S
C872 H876 0.950 . S
C872 C881 1.390 . S
C873 C872 1.387 . S
C873 C875 1.387 . S
H874 C881 0.950 . S
C875 C873 1.387 . S
C875 C877 1.390 . S
C875 H879 0.950 . S
H876 C872 0.950 . S
C877 C875 1.390 . S
C877 C878 1.387 . S
C877 H880 0.950 . S
C878 C877 1.387 . S
C878 C881 1.387 . S
H879 C875 0.950 . S
H880 C877 0.950 . S
C881 C872 1.390 . S
C881 H874 0.950 . S
C881 C878 1.387 . S
C882 C883 1.387 . S
C882 H886 0.950 . S
C882 C891 1.390 . S
C883 C882 1.387 . S
C883 C885 1.387 . S
H884 C891 0.950 . S
C885 C883 1.387 . S
C885 C887 1.390 . S
C885 H889 0.950 . S
H886 C882 0.950 . S
C887 C885 1.390 . S
C887 C888 1.387 . S
C887 H890 0.950 . S
C888 C887 1.387 . S
C888 C891 1.387 . S
H889 C885 0.950 . S
H890 C887 0.950 . S
C891 C882 1.390 . S
C891 H884 0.950 . S
C891 C888 1.387 . S
C892 C893 1.387 . S
C892 H896 0.950 . S
C892 C901 1.390 . S
C893 C892 1.387 . S
C893 C895 1.387 . S
H894 C901 0.950 . S
C895 C893 1.387 . S
C895 C897 1.390 . S
C895 H899 0.950 . S
H896 C892 0.950 . S
C897 C895 1.390 . S
C897 C898 1.387 . S
C897 H900 0.950 . S
C898 C897 1.387 . S
C898 C901 1.387 . S
H899 C895 0.950 . S
H900 C897 0.950 . S
C901 C892 1.390 . S
C901 H894 0.950 . S
C901 C898 1.387 . S
C902 C903 1.387 . S
C902 H906 0.950 . S
C902 C911 1.390 . S
C903 C902 1.387 . S
C903 C905 1.387 . S
H904 C911 0.950 . S
C905 C903 1.387 . S
C905 C907 1.390 . S
C905 H909 0.950 . S
H906 C902 0.950 . S
C907 C905 1.390 . S
C907 C908 1.387 . S
C907 H910 0.950 . S
C908 C907 1.387 . S
C908 C911 1.387 . S
H909 C905 0.950 . S
H910 C907 0.950 . S
C911 C902 1.390 . S
C911 H904 0.950 . S
C911 C908 1.387 . S
C912 C913 1.387 . S
C912 H916 0.950 . S
C912 C921 1.390 . S
C913 C912 1.387 . S
C913 C915 1.387 . S
H914 C921 0.950 . S
C915 C913 1.387 . S
C915 C917 1.390 . S
C915 H919 0.950 . S
H916 C912 0.950 . S
C917 C915 1.390 . S
C917 C918 1.387 . S
C917 H920 0.950 . S
C918 C917 1.387 . S
C918 C921 1.387 . S
H919 C915 0.950 . S
H920 C917 0.950 . S
C921 C912 1.390 . S
C921 H914 0.950 . S
C921 C918 1.387 . S
C922 C923 1.387 . S
C922 H926 0.958 . S
C922 C931 1.390 . S
C923 C922 1.387 . S
C923 C925 1.387 . S
H924 C931 0.950 . S
C925 C923 1.387 . S
C925 C927 1.390 . S
C925 H929 0.950 . S
H926 C922 0.958 . S
C927 C925 1.390 . S
C927 C928 1.387 . S
C927 H930 0.950 . S
C928 C927 1.387 . S
C928 C931 1.387 . S
H929 C925 0.950 . S
H930 C927 0.950 . S
C931 C922 1.390 . S
C931 H924 0.950 . S
C931 C928 1.387 . S
C932 C933 1.387 . S
C932 H936 0.950 . S
C932 C941 1.390 . S
C933 C932 1.387 . S
C933 C935 1.387 . S
H934 C941 0.950 . S
C935 C933 1.387 . S
C935 C937 1.390 . S
C935 H939 0.950 . S
H936 C932 0.950 . S
C937 C935 1.390 . S
C937 C938 1.387 . S
C937 H940 0.950 . S
C938 C937 1.387 . S
C938 C941 1.387 . S
H939 C935 0.950 . S
H940 C937 0.950 . S
C941 C932 1.390 . S
C941 H934 0.950 . S
C941 C938 1.387 . S
C942 C943 1.387 . S
C942 H946 0.950 . S
C942 C951 1.390 . S
C943 C942 1.387 . S
C943 C945 1.387 . S
H944 C951 0.950 . S
C945 C943 1.387 . S
C945 C947 1.390 . S
C945 H949 0.950 . S
H946 C942 0.950 . S
C947 C945 1.390 . S
C947 C948 1.387 . S
C947 H950 0.950 . S
C948 C947 1.387 . S
C948 C951 1.387 . S
H949 C945 0.950 . S
H950 C947 0.950 . S
C951 C942 1.390 . S
C951 H944 0.950 . S
C951 C948 1.387 . S
C952 C953 1.387 . S
C952 H956 0.950 . S
C952 C961 1.390 . S
C953 C952 1.387 . S
C953 C955 1.387 . S
H954 C961 0.950 . S
C955 C953 1.387 . S
C955 C957 1.390 . S
C955 H959 0.950 . S
H956 C952 0.950 . S
C957 C955 1.390 . S
C957 C958 1.387 . S
C957 H960 0.950 . S
C958 C957 1.387 . S
C958 C961 1.387 . S
H959 C955 0.950 . S
H960 C957 0.950 . S
C961 C952 1.390 . S
C961 H954 0.950 . S
C961 C958 1.387 . S
C962 C963 1.387 . S
C962 H966 0.950 . S
C962 C971 1.390 . S
C963 C962 1.387 . S
C963 C965 1.387 . S
H964 C971 0.950 . S
C965 C963 1.387 . S
C965 C967 1.390 . S
C965 H969 0.950 . S
H966 C962 0.950 . S
C967 C965 1.390 . S
C967 C968 1.387 . S
C967 H970 0.950 . S
C968 C967 1.387 . S
C968 C971 1.387 . S
H969 C965 0.950 . S
H970 C967 0.950 . S
C971 C962 1.390 . S
C971 H964 0.950 . S
C971 C968 1.387 . S
C972 C973 1.387 . S
C972 H976 0.950 . S
C972 C981 1.390 . S
C973 C972 1.387 . S
C973 C975 1.387 . S
H974 C981 0.950 . S
C975 C973 1.387 . S
C975 C977 1.390 . S
C975 H979 0.950 . S
H976 C972 0.950 . S
C977 C975 1.390 . S
C977 C978 1.387 . S
C977 H980 0.950 . S
C978 C977 1.387 . S
C978 C981 1.387 . S
H979 C975 0.950 . S
H980 C977 0.950 . S
C981 C972 1.390 . S
C981 H974 0.950 . S
C981 C978 1.387 . S
C982 C983 1.387 . S
C982 H986 0.950 . S
C982 C991 1.390 . S
C983 C982 1.387 . S
C983 C985 1.387 . S
H984 C991 0.950 . S
C985 C983 1.387 . S
C985 C987 1.390 . S
C985 H989 0.950 . S
H986 C982 0.950 . S
C987 C985 1.390 . S
C987 C988 1.387 . S
C987 H990 0.950 . S
C988 C987 1.387 . S
C988 C991 1.387 . S
H989 C985 0.950 . S
H990 C987 0.950 . S
C991 C982 1.390 . S
C991 H984 0.950 . S
C991 C988 1.387 . S
C992 C993 1.387 . S
C992 H996 0.950 . S
C992 C1001 1.390 . S
C993 C992 1.387 . S
C993 C995 1.387 . S
H994 C1001 0.950 . S
C995 C993 1.387 . S
C995 C997 1.390 . S
C995 H999 0.950 . S
H996 C992 0.950 . S
C997 C995 1.390 . S
C997 C998 1.387 . S
C997 H1000 0.950 . S
C998 C997 1.387 . S
C998 C1001 1.387 . S
H999 C995 0.950 . S
H1000 C997 0.950 . S
C1001 C992 1.390 . S
C1001 H994 0.950 . S
C1001 C998 1.387 . S
C1002 C1003 1.387 . S
C1002 H1006 0.950 . S
C1002 C1011 1.390 . S
C1003 C1002 1.387 . S
C1003 C1005 1.387 . S
H1004 C1011 0.950 . S
C1005 C1003 1.387 . S
C1005 C1007 1.390 . S
C1005 H1009 0.950 . S
H1006 C1002 0.950 . S
C1007 C1005 1.390 . S
C1007 C1008 1.387 . S
C1007 H1010 0.950 . S
C1008 C1007 1.387 . S
C1008 C1011 1.387 . S
H1009 C1005 0.950 . S
H1010 C1007 0.950 . S
C1011 C1002 1.390 . S
C1011 H1004 0.950 . S
C1011 C1008 1.387 . S
C1012 C1013 1.387 . S
C1012 H1016 0.950 1_565 S
C1012 C1021 1.390 . S
C1013 C1012 1.387 . S
C1013 C1015 1.387 . S
H1014 C1021 0.950 . S
C1015 C1013 1.387 . S
C1015 C1017 1.390 . S
C1015 H1019 0.950 . S
H1016 C1012 0.950 1_545 S
C1017 C1015 1.390 . S
C1017 C1018 1.387 . S
C1017 H1020 0.950 . S
C1018 C1017 1.387 . S
C1018 C1021 1.387 . S
H1019 C1015 0.950 . S
H1020 C1017 0.950 . S
C1021 C1012 1.390 . S
C1021 H1014 0.950 . S
C1021 C1018 1.387 . S
C1022 C1023 1.387 . S
C1022 H1026 0.950 . S
C1022 C1031 1.390 . S
C1023 C1022 1.387 . S
C1023 C1025 1.387 . S
H1024 C1031 0.950 . S
C1025 C1023 1.387 . S
C1025 C1027 1.390 . S
C1025 H1029 0.950 . S
H1026 C1022 0.950 . S
C1027 C1025 1.390 . S
C1027 C1028 1.387 . S
C1027 H1030 0.950 . S
C1028 C1027 1.387 . S
C1028 C1031 1.387 . S
H1029 C1025 0.950 . S
H1030 C1027 0.950 . S
C1031 C1022 1.390 . S
C1031 H1024 0.950 . S
C1031 C1028 1.387 . S
C1032 C1033 1.387 . S
C1032 H1036 0.950 . S
C1032 C1041 1.390 . S
C1033 C1032 1.387 . S
C1033 C1035 1.387 . S
H1034 C1041 0.950 . S
C1035 C1033 1.387 . S
C1035 C1037 1.390 . S
C1035 H1039 0.950 . S
H1036 C1032 0.950 . S
C1037 C1035 1.390 . S
C1037 C1038 1.387 . S
C1037 H1040 0.950 . S
C1038 C1037 1.387 . S
C1038 C1041 1.387 . S
H1039 C1035 0.950 . S
H1040 C1037 0.950 . S
C1041 C1032 1.390 . S
C1041 H1034 0.950 . S
C1041 C1038 1.387 . S
C1042 C1043 1.387 . S
C1042 H1046 0.950 . S
C1042 C1051 1.390 . S
C1043 C1042 1.387 . S
C1043 C1045 1.387 . S
H1044 C1051 0.950 . S
C1045 C1043 1.387 . S
C1045 C1047 1.390 . S
C1045 H1049 0.950 . S
H1046 C1042 0.950 . S
C1047 C1045 1.390 . S
C1047 C1048 1.387 . S
C1047 H1050 0.950 . S
C1048 C1047 1.387 . S
C1048 C1051 1.387 . S
H1049 C1045 0.950 . S
H1050 C1047 0.950 . S
C1051 C1042 1.390 . S
C1051 H1044 0.950 . S
C1051 C1048 1.387 . S
C1052 C1053 1.387 . S
C1052 H1056 0.950 . S
C1052 C1061 1.390 . S
C1053 C1052 1.387 . S
C1053 C1055 1.387 . S
H1054 C1061 0.950 . S
C1055 C1053 1.387 . S
C1055 C1057 1.390 . S
C1055 H1059 0.950 . S
H1056 C1052 0.950 . S
C1057 C1055 1.390 . S
C1057 C1058 1.387 . S
C1057 H1060 0.950 . S
C1058 C1057 1.387 . S
C1058 C1061 1.387 . S
H1059 C1055 0.950 . S
H1060 C1057 0.950 . S
C1061 C1052 1.390 . S
C1061 H1054 0.950 . S
C1061 C1058 1.387 . S
C1062 C1063 1.387 . S
C1062 H1066 0.950 . S
C1062 C1071 1.390 . S
C1063 C1062 1.387 . S
C1063 C1065 1.387 . S
H1064 C1071 0.950 . S
C1065 C1063 1.387 . S
C1065 C1067 1.390 . S
C1065 H1069 0.950 . S
H1066 C1062 0.950 . S
C1067 C1065 1.390 . S
C1067 C1068 1.387 . S
C1067 H1070 0.950 . S
C1068 C1067 1.387 . S
C1068 C1071 1.387 . S
H1069 C1065 0.950 . S
H1070 C1067 0.950 . S
C1071 C1062 1.390 . S
C1071 H1064 0.950 . S
C1071 C1068 1.387 . S
C1072 C1073 1.387 . S
C1072 H1076 0.950 . S
C1072 C1081 1.390 . S
C1073 C1072 1.387 . S
C1073 C1075 1.387 . S
H1074 C1081 0.950 . S
C1075 C1073 1.387 . S
C1075 C1077 1.390 . S
C1075 H1079 0.950 . S
H1076 C1072 0.950 . S
C1077 C1075 1.390 . S
C1077 C1078 1.387 . S
C1077 H1080 0.950 . S
C1078 C1077 1.387 . S
C1078 C1081 1.387 . S
H1079 C1075 0.950 . S
H1080 C1077 0.950 . S
C1081 C1072 1.390 . S
C1081 H1074 0.950 . S
C1081 C1078 1.387 . S
C1082 C1083 1.387 . S
C1082 H1086 0.950 . S
C1082 C1091 1.390 . S
C1083 C1082 1.387 . S
C1083 C1085 1.387 . S
H1084 C1091 0.950 . S
C1085 C1083 1.387 . S
C1085 C1087 1.390 . S
C1085 H1089 0.950 . S
H1086 C1082 0.950 . S
C1087 C1085 1.390 . S
C1087 C1088 1.387 . S
C1087 H1090 0.950 . S
C1088 C1087 1.387 . S
C1088 C1091 1.387 . S
H1089 C1085 0.950 . S
H1090 C1087 0.950 . S
C1091 C1082 1.390 . S
C1091 H1084 0.950 . S
C1091 C1088 1.387 . S
C1092 C1093 1.387 . S
C1092 H1096 0.950 . S
C1092 C1101 1.390 . S
C1093 C1092 1.387 . S
C1093 C1095 1.387 . S
H1094 C1101 0.950 . S
C1095 C1093 1.387 . S
C1095 C1097 1.390 . S
C1095 H1099 0.950 . S
H1096 C1092 0.950 . S
C1097 C1095 1.390 . S
C1097 C1098 1.387 . S
C1097 H1100 0.950 . S
C1098 C1097 1.387 . S
C1098 C1101 1.387 . S
H1099 C1095 0.950 . S
H1100 C1097 0.950 . S
C1101 C1092 1.390 . S
C1101 H1094 0.950 . S
C1101 C1098 1.387 . S
C1102 C1103 1.387 . S
C1102 H1106 0.950 . S
C1102 C1111 1.390 . S
C1103 C1102 1.387 . S
C1103 C1105 1.387 . S
H1104 C1111 0.950 . S
C1105 C1103 1.387 . S
C1105 C1107 1.390 . S
C1105 H1109 0.950 . S
H1106 C1102 0.950 . S
C1107 C1105 1.390 . S
C1107 C1108 1.387 . S
C1107 H1110 0.950 . S
C1108 C1107 1.387 . S
C1108 C1111 1.387 . S
H1109 C1105 0.950 . S
H1110 C1107 0.950 . S
C1111 C1102 1.390 . S
C1111 H1104 0.950 . S
C1111 C1108 1.387 . S
C1112 C1113 1.387 . S
C1112 H1116 0.950 . S
C1112 C1121 1.390 . S
C1113 C1112 1.387 . S
C1113 C1115 1.387 . S
H1114 C1121 0.950 . S
C1115 C1113 1.387 . S
C1115 C1117 1.390 . S
C1115 H1119 0.950 . S
H1116 C1112 0.950 . S
C1117 C1115 1.390 . S
C1117 C1118 1.387 . S
C1117 H1120 0.950 . S
C1118 C1117 1.387 . S
C1118 C1121 1.387 . S
H1119 C1115 0.950 . S
H1120 C1117 0.950 . S
C1121 C1112 1.390 . S
C1121 H1114 0.950 . S
C1121 C1118 1.387 . S
C1122 C1123 1.387 . S
C1122 H1126 0.950 . S
C1122 C1131 1.390 . S
C1123 C1122 1.387 . S
C1123 C1125 1.387 . S
H1124 C1131 0.950 . S
C1125 C1123 1.387 . S
C1125 C1127 1.390 . S
C1125 H1129 0.950 . S
H1126 C1122 0.950 . S
C1127 C1125 1.390 . S
C1127 C1128 1.387 . S
C1127 H1130 0.950 . S
C1128 C1127 1.387 . S
C1128 C1131 1.387 . S
H1129 C1125 0.950 . S
H1130 C1127 0.950 . S
C1131 C1122 1.390 . S
C1131 H1124 0.950 . S
C1131 C1128 1.387 . S
C1132 C1133 1.387 . S
C1132 H1136 0.950 . S
C1132 C1141 1.390 . S
C1133 C1132 1.387 . S
C1133 C1135 1.387 . S
H1134 C1141 0.950 . S
C1135 C1133 1.387 . S
C1135 C1137 1.390 . S
C1135 H1139 0.950 1_556 S
H1136 C1132 0.950 . S
C1137 C1135 1.390 . S
C1137 C1138 1.387 . S
C1137 H1140 0.950 . S
C1138 C1137 1.387 . S
C1138 C1141 1.387 . S
H1139 C1135 0.950 1_554 S
H1140 C1137 0.950 . S
C1141 C1132 1.390 . S
C1141 H1134 0.950 . S
C1141 C1138 1.387 . S
C1142 C1143 1.387 . S
C1142 H1146 0.950 . S
C1142 C1151 1.390 . S
C1143 C1142 1.387 . S
C1143 C1145 1.387 . S
H1144 C1151 0.950 . S
C1145 C1143 1.387 . S
C1145 C1147 1.390 . S
C1145 H1149 0.950 . S
H1146 C1142 0.950 . S
C1147 C1145 1.390 . S
C1147 C1148 1.387 . S
C1147 H1150 0.950 . S
C1148 C1147 1.387 . S
C1148 C1151 1.387 . S
H1149 C1145 0.950 . S
H1150 C1147 0.950 . S
C1151 C1142 1.390 . S
C1151 H1144 0.950 . S
C1151 C1148 1.387 . S
C1152 C1153 1.387 . S
C1152 H1156 0.950 . S
C1152 C1161 1.390 . S
C1153 C1152 1.387 . S
C1153 C1155 1.387 . S
H1154 C1161 0.950 . S
C1155 C1153 1.387 . S
C1155 C1157 1.390 . S
C1155 H1159 0.950 . S
H1156 C1152 0.950 . S
C1157 C1155 1.390 . S
C1157 C1158 1.387 . S
C1157 H1160 0.950 . S
C1158 C1157 1.387 . S
C1158 C1161 1.387 . S
H1159 C1155 0.950 . S
H1160 C1157 0.950 . S
C1161 C1152 1.390 . S
C1161 H1154 0.950 . S
C1161 C1158 1.387 . S
C1162 C1163 1.387 . S
C1162 H1166 0.950 . S
C1162 C1171 1.390 . S
C1163 C1162 1.387 . S
C1163 C1165 1.387 . S
H1164 C1171 0.950 . S
C1165 C1163 1.387 . S
C1165 C1167 1.390 . S
C1165 H1169 0.950 . S
H1166 C1162 0.950 . S
C1167 C1165 1.390 . S
C1167 C1168 1.387 . S
C1167 H1170 0.950 . S
C1168 C1167 1.387 . S
C1168 C1171 1.387 . S
H1169 C1165 0.950 . S
H1170 C1167 0.950 . S
C1171 C1162 1.390 . S
C1171 H1164 0.950 . S
C1171 C1168 1.387 . S
C1172 C1173 1.387 . S
C1172 H1176 0.950 . S
C1172 C1181 1.390 . S
C1173 C1172 1.387 . S
C1173 C1175 1.387 . S
H1174 C1181 0.950 . S
C1175 C1173 1.387 . S
C1175 C1177 1.390 . S
C1175 H1179 0.950 . S
H1176 C1172 0.950 . S
C1177 C1175 1.390 . S
C1177 C1178 1.387 . S
C1177 H1180 0.950 . S
C1178 C1177 1.387 . S
C1178 C1181 1.387 . S
H1179 C1175 0.950 . S
H1180 C1177 0.950 . S
C1181 C1172 1.390 . S
C1181 H1174 0.950 . S
C1181 C1178 1.387 . S
C1182 C1183 1.387 . S
C1182 H1186 0.950 . S
C1182 C1191 1.390 . S
C1183 C1182 1.387 . S
C1183 C1185 1.387 . S
H1184 C1191 0.950 . S
C1185 C1183 1.387 . S
C1185 C1187 1.390 . S
C1185 H1189 0.950 . S
H1186 C1182 0.950 . S
C1187 C1185 1.390 . S
C1187 C1188 1.387 . S
C1187 H1190 0.950 . S
C1188 C1187 1.387 . S
C1188 C1191 1.387 . S
H1189 C1185 0.950 . S
H1190 C1187 0.950 . S
C1191 C1182 1.390 . S
C1191 H1184 0.950 . S
C1191 C1188 1.387 . S
C1192 C1193 1.387 . S
C1192 H1196 0.950 . S
C1192 C1201 1.390 . S
C1193 C1192 1.387 . S
C1193 C1195 1.387 . S
H1194 C1201 0.950 . S
C1195 C1193 1.387 . S
C1195 C1197 1.390 . S
C1195 H1199 0.950 . S
H1196 C1192 0.950 . S
C1197 C1195 1.390 . S
C1197 C1198 1.387 . S
C1197 H1200 0.950 . S
C1198 C1197 1.387 . S
C1198 C1201 1.387 . S
H1199 C1195 0.950 . S
H1200 C1197 0.950 . S
C1201 C1192 1.390 . S
C1201 H1194 0.950 . S
C1201 C1198 1.387 . S
C1202 C1203 1.387 . S
C1202 H1206 0.950 . S
C1202 C1211 1.390 . S
C1203 C1202 1.387 . S
C1203 C1205 1.387 . S
H1204 C1211 0.950 . S
C1205 C1203 1.387 . S
C1205 C1207 1.390 . S
C1205 H1209 0.950 . S
H1206 C1202 0.950 . S
C1207 C1205 1.390 . S
C1207 C1208 1.387 . S
C1207 H1210 0.950 . S
C1208 C1207 1.387 . S
C1208 C1211 1.387 . S
H1209 C1205 0.950 . S
H1210 C1207 0.950 . S
C1211 C1202 1.390 . S
C1211 H1204 0.950 . S
C1211 C1208 1.387 . S
C1212 C1213 1.387 . S
C1212 H1216 0.950 . S
C1212 C1221 1.390 . S
C1213 C1212 1.387 . S
C1213 C1215 1.387 . S
H1214 C1221 0.950 . S
C1215 C1213 1.387 . S
C1215 C1217 1.390 . S
C1215 H1219 0.950 . S
H1216 C1212 0.950 . S
C1217 C1215 1.390 . S
C1217 C1218 1.387 . S
C1217 H1220 0.950 . S
C1218 C1217 1.387 . S
C1218 C1221 1.387 . S
H1219 C1215 0.950 . S
H1220 C1217 0.950 . S
C1221 C1212 1.390 . S
C1221 H1214 0.950 . S
C1221 C1218 1.387 . S
C1222 C1223 1.387 . S
C1222 H1226 0.950 . S
C1222 C1231 1.390 . S
C1223 C1222 1.387 . S
C1223 C1225 1.387 . S
H1224 C1231 0.950 . S
C1225 C1223 1.387 . S
C1225 C1227 1.390 . S
C1225 H1229 0.950 . S
H1226 C1222 0.950 . S
C1227 C1225 1.390 . S
C1227 C1228 1.387 . S
C1227 H1230 0.950 . S
C1228 C1227 1.387 . S
C1228 C1231 1.387 . S
H1229 C1225 0.950 . S
H1230 C1227 0.950 . S
C1231 C1222 1.390 . S
C1231 H1224 0.950 . S
C1231 C1228 1.387 . S
C1232 C1233 1.387 . S
C1232 H1236 0.950 . S
C1232 C1241 1.390 . S
C1233 C1232 1.387 . S
C1233 C1235 1.387 . S
H1234 C1241 0.950 . S
C1235 C1233 1.387 . S
C1235 C1237 1.390 . S
C1235 H1239 0.950 . S
H1236 C1232 0.950 . S
C1237 C1235 1.390 . S
C1237 C1238 1.387 . S
C1237 H1240 0.950 . S
C1238 C1237 1.387 . S
C1238 C1241 1.387 . S
H1239 C1235 0.950 . S
H1240 C1237 0.950 . S
C1241 C1232 1.390 . S
C1241 H1234 0.950 . S
C1241 C1238 1.387 . S
C1242 C1243 1.387 . S
C1242 H1246 0.950 . S
C1242 C1251 1.390 . S
C1243 C1242 1.387 . S
C1243 C1245 1.387 . S
H1244 C1251 0.950 . S
C1245 C1243 1.387 . S
C1245 C1247 1.390 . S
C1245 H1249 0.950 . S
H1246 C1242 0.950 . S
C1247 C1245 1.390 . S
C1247 C1248 1.387 . S
C1247 H1250 0.950 . S
C1248 C1247 1.387 . S
C1248 C1251 1.387 . S
H1249 C1245 0.950 . S
H1250 C1247 0.950 . S
C1251 C1242 1.390 . S
C1251 H1244 0.950 . S
C1251 C1248 1.387 . S
C1252 C1253 1.387 . S
C1252 H1256 0.950 . S
C1252 C1261 1.390 . S
C1253 C1252 1.387 . S
C1253 C1255 1.387 . S
H1254 C1261 0.950 . S
C1255 C1253 1.387 . S
C1255 C1257 1.390 . S
C1255 H1259 0.950 . S
H1256 C1252 0.950 . S
C1257 C1255 1.390 . S
C1257 C1258 1.387 . S
C1257 H1260 0.950 . S
C1258 C1257 1.387 . S
C1258 C1261 1.387 . S
H1259 C1255 0.950 . S
H1260 C1257 0.950 . S
C1261 C1252 1.390 . S
C1261 H1254 0.950 . S
C1261 C1258 1.387 . S
C1262 C1263 1.387 . S
C1262 H1266 0.950 . S
C1262 C1271 1.390 . S
C1263 C1262 1.387 . S
C1263 C1265 1.387 . S
H1264 C1271 0.950 . S
C1265 C1263 1.387 . S
C1265 C1267 1.390 . S
C1265 H1269 0.950 . S
H1266 C1262 0.950 . S
C1267 C1265 1.390 . S
C1267 C1268 1.387 . S
C1267 H1270 0.950 . S
C1268 C1267 1.387 . S
C1268 C1271 1.387 . S
H1269 C1265 0.950 . S
H1270 C1267 0.950 . S
C1271 C1262 1.390 . S
C1271 H1264 0.950 . S
C1271 C1268 1.387 . S
C1272 C1273 1.387 . S
C1272 H1276 0.950 . S
C1272 C1281 1.390 . S
C1273 C1272 1.387 . S
C1273 C1275 1.387 . S
H1274 C1281 0.950 . S
C1275 C1273 1.387 . S
C1275 C1277 1.390 . S
C1275 H1279 0.950 . S
H1276 C1272 0.950 . S
C1277 C1275 1.390 . S
C1277 C1278 1.387 . S
C1277 H1280 0.950 . S
C1278 C1277 1.387 . S
C1278 C1281 1.387 . S
H1279 C1275 0.950 . S
H1280 C1277 0.950 . S
C1281 C1272 1.390 . S
C1281 H1274 0.950 . S
C1281 C1278 1.387 . S
C1282 C1283 1.387 . S
C1282 H1286 0.950 . S
C1282 C1291 1.390 . S
C1283 C1282 1.387 . S
C1283 C1285 1.387 . S
H1284 C1291 0.950 . S
C1285 C1283 1.387 . S
C1285 C1287 1.390 . S
C1285 H1289 0.950 . S
H1286 C1282 0.950 . S
C1287 C1285 1.390 . S
C1287 C1288 1.387 . S
C1287 H1290 0.950 . S
C1288 C1287 1.387 . S
C1288 C1291 1.387 . S
H1289 C1285 0.950 . S
H1290 C1287 0.950 . S
C1291 C1282 1.390 . S
C1291 H1284 0.950 . S
C1291 C1288 1.387 . S
C1292 C1293 1.387 . S
C1292 H1296 0.950 . S
C1292 C1301 1.390 . S
C1293 C1292 1.387 . S
C1293 C1295 1.387 . S
H1294 C1301 0.950 . S
C1295 C1293 1.387 . S
C1295 C1297 1.390 . S
C1295 H1299 0.950 . S
H1296 C1292 0.950 . S
C1297 C1295 1.390 . S
C1297 C1298 1.387 . S
C1297 H1300 0.950 . S
C1298 C1297 1.387 . S
C1298 C1301 1.387 . S
H1299 C1295 0.950 . S
H1300 C1297 0.950 . S
C1301 C1292 1.390 . S
C1301 H1294 0.950 . S
C1301 C1298 1.387 . S
C1302 C1303 1.387 . S
C1302 H1306 0.950 . S
C1302 C1311 1.390 . S
C1303 C1302 1.387 . S
C1303 C1305 1.387 . S
H1304 C1311 0.950 . S
C1305 C1303 1.387 . S
C1305 C1307 1.390 . S
C1305 H1309 0.950 . S
H1306 C1302 0.950 . S
C1307 C1305 1.390 . S
C1307 C1308 1.387 . S
C1307 H1310 0.950 . S
C1308 C1307 1.387 . S
C1308 C1311 1.387 . S
H1309 C1305 0.950 . S
H1310 C1307 0.950 . S
C1311 C1302 1.390 . S
C1311 H1304 0.950 . S
C1311 C1308 1.387 . S
C1312 C1313 1.387 . S
C1312 H1316 0.950 . S
C1312 C1321 1.390 . S
C1313 C1312 1.387 . S
C1313 C1315 1.387 . S
H1314 C1321 0.950 . S
C1315 C1313 1.387 . S
C1315 C1317 1.390 . S
C1315 H1319 0.950 . S
H1316 C1312 0.950 . S
C1317 C1315 1.390 . S
C1317 C1318 1.387 . S
C1317 H1320 0.950 . S
C1318 C1317 1.387 . S
C1318 C1321 1.387 . S
H1319 C1315 0.950 . S
H1320 C1317 0.950 . S
C1321 C1312 1.390 . S
C1321 H1314 0.950 . S
C1321 C1318 1.387 . S
C1322 C1323 1.387 . S
C1322 H1326 0.950 . S
C1322 C1331 1.390 . S
C1323 C1322 1.387 . S
C1323 C1325 1.387 . S
H1324 C1331 0.950 . S
C1325 C1323 1.387 . S
C1325 C1327 1.390 . S
C1325 H1329 0.950 . S
H1326 C1322 0.950 . S
C1327 C1325 1.390 . S
C1327 C1328 1.387 . S
C1327 H1330 0.950 . S
C1328 C1327 1.387 . S
C1328 C1331 1.387 . S
H1329 C1325 0.950 . S
H1330 C1327 0.950 . S
C1331 C1322 1.390 . S
C1331 H1324 0.950 . S
C1331 C1328 1.387 . S
C1332 C1333 1.387 . S
C1332 H1336 0.950 . S
C1332 C1341 1.390 . S
C1333 C1332 1.387 . S
C1333 C1335 1.387 . S
H1334 C1341 0.950 . S
C1335 C1333 1.387 . S
C1335 C1337 1.390 . S
C1335 H1339 0.950 . S
H1336 C1332 0.950 . S
C1337 C1335 1.390 . S
C1337 C1338 1.387 . S
C1337 H1340 0.950 . S
C1338 C1337 1.387 . S
C1338 C1341 1.387 . S
H1339 C1335 0.950 . S
H1340 C1337 0.950 . S
C1341 C1332 1.390 . S
C1341 H1334 0.950 . S
C1341 C1338 1.387 . S
C1342 C1343 1.387 . S
C1342 H1346 0.950 . S
C1342 C1351 1.390 . S
C1343 C1342 1.387 . S
C1343 C1345 1.387 . S
H1344 C1351 0.950 . S
C1345 C1343 1.387 . S
C1345 C1347 1.390 . S
C1345 H1349 0.950 . S
H1346 C1342 0.950 . S
C1347 C1345 1.390 . S
C1347 C1348 1.387 . S
C1347 H1350 0.950 . S
C1348 C1347 1.387 . S
C1348 C1351 1.387 . S
H1349 C1345 0.950 . S
H1350 C1347 0.950 . S
C1351 C1342 1.390 . S
C1351 H1344 0.950 . S
C1351 C1348 1.387 . S
C1352 C1353 1.387 . S
C1352 H1356 0.950 . S
C1352 C1361 1.390 . S
C1353 C1352 1.387 . S
C1353 C1355 1.387 . S
H1354 C1361 0.950 . S
C1355 C1353 1.387 . S
C1355 C1357 1.390 . S
C1355 H1359 0.950 . S
H1356 C1352 0.950 . S
C1357 C1355 1.390 . S
C1357 C1358 1.387 . S
C1357 H1360 0.950 . S
C1358 C1357 1.387 . S
C1358 C1361 1.387 . S
H1359 C1355 0.950 . S
H1360 C1357 0.950 . S
C1361 C1352 1.390 . S
C1361 H1354 0.950 . S
C1361 C1358 1.387 . S
C1362 C1363 1.387 . S
C1362 H1366 0.950 . S
C1362 C1371 1.390 . S
C1363 C1362 1.387 . S
C1363 C1365 1.387 . S
H1364 C1371 0.950 . S
C1365 C1363 1.387 . S
C1365 C1367 1.390 . S
C1365 H1369 0.950 . S
H1366 C1362 0.950 . S
C1367 C1365 1.390 . S
C1367 C1368 1.387 . S
C1367 H1370 0.950 . S
C1368 C1367 1.387 . S
C1368 C1371 1.387 . S
H1369 C1365 0.950 . S
H1370 C1367 0.950 . S
C1371 C1362 1.390 . S
C1371 H1364 0.950 . S
C1371 C1368 1.387 . S
C1372 C1373 1.387 . S
C1372 H1376 0.950 . S
C1372 C1381 1.390 . S
C1373 C1372 1.387 . S
C1373 C1375 1.387 . S
H1374 C1381 0.950 . S
C1375 C1373 1.387 . S
C1375 C1377 1.390 . S
C1375 H1379 0.950 . S
H1376 C1372 0.950 . S
C1377 C1375 1.390 . S
C1377 C1378 1.387 . S
C1377 H1380 0.950 . S
C1378 C1377 1.387 . S
C1378 C1381 1.387 . S
H1379 C1375 0.950 . S
H1380 C1377 0.950 . S
C1381 C1372 1.390 . S
C1381 H1374 0.950 . S
C1381 C1378 1.387 . S
C1382 C1383 1.387 . S
C1382 H1386 0.950 . S
C1382 C1391 1.390 . S
C1383 C1382 1.387 . S
C1383 C1385 1.387 . S
H1384 C1391 0.950 . S
C1385 C1383 1.387 . S
C1385 C1387 1.390 . S
C1385 H1389 0.950 . S
H1386 C1382 0.950 . S
C1387 C1385 1.390 . S
C1387 C1388 1.387 . S
C1387 H1390 0.950 . S
C1388 C1387 1.387 . S
C1388 C1391 1.387 . S
H1389 C1385 0.950 . S
H1390 C1387 0.950 . S
C1391 C1382 1.390 . S
C1391 H1384 0.950 . S
C1391 C1388 1.387 . S
C1392 C1393 1.387 . S
C1392 H1396 0.950 . S
C1392 C1401 1.390 1_455 S
C1393 C1392 1.387 . S
C1393 C1395 1.387 . S
H1394 C1401 0.950 . S
C1395 C1393 1.387 . S
C1395 C1397 1.390 1_455 S
C1395 H1399 0.950 . S
H1396 C1392 0.950 . S
C1397 C1395 1.390 1_655 S
C1397 C1398 1.387 . S
C1397 H1400 0.950 . S
C1398 C1397 1.387 . S
C1398 C1401 1.387 . S
H1399 C1395 0.950 . S
H1400 C1397 0.950 . S
C1401 C1392 1.390 1_655 S
C1401 H1394 0.950 . S
C1401 C1398 1.387 . S
C1402 C1403 1.387 . S
C1402 H1406 0.950 . S
C1402 C1411 1.390 . S
C1403 C1402 1.387 . S
C1403 C1405 1.387 . S
H1404 C1411 0.950 . S
C1405 C1403 1.387 . S
C1405 C1407 1.390 . S
C1405 H1409 0.950 . S
H1406 C1402 0.950 . S
C1407 C1405 1.390 . S
C1407 C1408 1.387 . S
C1407 H1410 0.950 . S
C1408 C1407 1.387 . S
C1408 C1411 1.387 . S
H1409 C1405 0.950 . S
H1410 C1407 0.950 . S
C1411 C1402 1.390 . S
C1411 H1404 0.950 . S
C1411 C1408 1.387 . S
C1412 C1413 1.387 . S
C1412 H1416 0.950 . S
C1412 C1421 1.390 . S
C1413 C1412 1.387 . S
C1413 C1415 1.387 . S
H1414 C1421 0.950 . S
C1415 C1413 1.387 . S
C1415 C1417 1.390 . S
C1415 H1419 0.950 . S
H1416 C1412 0.950 . S
C1417 C1415 1.390 . S
C1417 C1418 1.387 . S
C1417 H1420 0.950 . S
C1418 C1417 1.387 . S
C1418 C1421 1.387 . S
H1419 C1415 0.950 . S
H1420 C1417 0.950 . S
C1421 C1412 1.390 . S
C1421 H1414 0.950 . S
C1421 C1418 1.387 . S
C1422 C1423 1.387 . S
C1422 H1426 0.950 . S
C1422 C1431 1.390 1_554 S
C1423 C1422 1.387 . S
C1423 C1425 1.367 1_554 S
H1424 C1431 0.950 . S
C1425 C1423 1.367 1_556 S
C1425 C1427 1.423 . S
C1425 H1429 0.940 1_556 S
H1426 C1422 0.950 . S
C1427 C1425 1.423 . S
C1427 C1428 1.387 . S
C1427 H1430 0.950 . S
C1428 C1427 1.387 . S
C1428 C1431 1.387 . S
H1429 C1425 0.940 1_554 S
H1430 C1427 0.950 . S
C1431 C1422 1.390 1_556 S
C1431 H1424 0.950 . S
C1431 C1428 1.387 . S
C1432 C1433 1.350 1_455 S
C1432 H1436 0.961 . S
C1432 C1441 1.417 . S
C1433 C1432 1.350 1_655 S
C1433 C1435 1.387 . S
H1434 C1441 0.950 . S
C1435 C1433 1.387 . S
C1435 C1437 1.390 . S
C1435 H1439 0.950 . S
H1436 C1432 0.961 . S
C1437 C1435 1.390 . S
C1437 C1438 1.387 1_655 S
C1437 H1440 0.950 . S
C1438 C1437 1.387 1_455 S
C1438 C1441 1.387 . S
H1439 C1435 0.950 . S
H1440 C1437 0.950 . S
C1441 C1432 1.417 . S
C1441 H1434 0.950 . S
C1441 C1438 1.387 . S
C1442 C1443 1.387 . S
C1442 H1446 0.950 . S
C1442 C1451 1.390 . S
C1443 C1442 1.387 . S
C1443 C1445 1.387 . S
H1444 C1451 0.950 . S
C1445 C1443 1.387 . S
C1445 C1447 1.390 . S
C1445 H1449 0.950 . S
H1446 C1442 0.950 . S
C1447 C1445 1.390 . S
C1447 C1448 1.387 . S
C1447 H1450 0.950 . S
C1448 C1447 1.387 . S
C1448 C1451 1.387 . S
H1449 C1445 0.950 . S
H1450 C1447 0.950 . S
C1451 C1442 1.390 . S
C1451 H1444 0.950 . S
C1451 C1448 1.387 . S
C1452 C1453 1.387 . S
C1452 H1456 0.950 . S
C1452 C1461 1.390 . S
C1453 C1452 1.387 . S
C1453 C1455 1.387 . S
H1454 C1461 0.950 . S
C1455 C1453 1.387 . S
C1455 C1457 1.390 . S
C1455 H1459 0.950 . S
H1456 C1452 0.950 . S
C1457 C1455 1.390 . S
C1457 C1458 1.387 . S
C1457 H1460 0.950 . S
C1458 C1457 1.387 . S
C1458 C1461 1.387 . S
H1459 C1455 0.950 . S
H1460 C1457 0.950 . S
C1461 C1452 1.390 . S
C1461 H1454 0.950 . S
C1461 C1458 1.387 . S
C1462 C1463 1.387 . S
C1462 H1466 0.950 . S
C1462 C1471 1.390 . S
C1463 C1462 1.387 . S
C1463 C1465 1.387 . S
H1464 C1471 0.950 . S
C1465 C1463 1.387 . S
C1465 C1467 1.390 . S
C1465 H1469 0.950 . S
H1466 C1462 0.950 . S
C1467 C1465 1.390 . S
C1467 C1468 1.387 . S
C1467 H1470 0.950 . S
C1468 C1467 1.387 . S
C1468 C1471 1.387 . S
H1469 C1465 0.950 . S
H1470 C1467 0.950 . S
C1471 C1462 1.390 . S
C1471 H1464 0.950 . S
C1471 C1468 1.387 . S
C1472 C1473 1.403 . S
C1472 H1476 0.956 . S
C1472 C1481 1.370 1_565 S
C1473 C1472 1.403 . S
C1473 C1475 1.387 . S
H1474 C1481 0.950 . S
C1475 C1473 1.387 . S
C1475 C1477 1.390 1_565 S
C1475 H1479 0.950 . S
H1476 C1472 0.956 . S
C1477 C1475 1.390 1_545 S
C1477 C1478 1.387 . S
C1477 H1480 0.950 . S
C1478 C1477 1.387 . S
C1478 C1481 1.387 . S
H1479 C1475 0.950 . S
H1480 C1477 0.950 . S
C1481 C1472 1.370 1_545 S
C1481 H1474 0.950 . S
C1481 C1478 1.387 . S
C1482 C1483 1.387 . S
C1482 H1486 0.950 . S
C1482 C1491 1.406 . S
C1483 C1482 1.387 . S
C1483 C1485 1.387 . S
H1484 C1491 0.944 1_545 S
C1485 C1483 1.387 . S
C1485 C1487 1.390 1_565 S
C1485 H1489 0.950 . S
H1486 C1482 0.950 . S
C1487 C1485 1.390 1_545 S
C1487 C1488 1.387 . S
C1487 H1490 0.950 . S
C1488 C1487 1.387 . S
C1488 C1491 1.378 1_545 S
H1489 C1485 0.950 . S
H1490 C1487 0.950 . S
C1491 C1482 1.406 . S
C1491 H1484 0.944 1_565 S
C1491 C1488 1.378 1_565 S
C1492 C1493 1.387 . S
C1492 H1496 0.950 . S
C1492 C1501 1.390 . S
C1493 C1492 1.387 . S
C1493 C1495 1.387 . S
H1494 C1501 0.950 . S
C1495 C1493 1.387 . S
C1495 C1497 1.390 . S
C1495 H1499 0.950 . S
H1496 C1492 0.950 . S
C1497 C1495 1.390 . S
C1497 C1498 1.387 . S
C1497 H1500 0.950 . S
C1498 C1497 1.387 . S
C1498 C1501 1.387 . S
H1499 C1495 0.950 . S
H1500 C1497 0.950 . S
C1501 C1492 1.390 . S
C1501 H1494 0.950 . S
C1501 C1498 1.387 . S
C1502 C1503 1.387 . S
C1502 H1506 0.950 . S
C1502 C1511 1.390 . S
C1503 C1502 1.387 . S
C1503 C1505 1.387 . S
H1504 C1511 0.950 . S
C1505 C1503 1.387 . S
C1505 C1507 1.390 . S
C1505 H1509 0.950 . S
H1506 C1502 0.950 . S
C1507 C1505 1.390 . S
C1507 C1508 1.387 . S
C1507 H1510 0.950 . S
C1508 C1507 1.387 . S
C1508 C1511 1.387 . S
H1509 C1505 0.950 . S
H1510 C1507 0.950 . S
C1511 C1502 1.390 . S
C1511 H1504 0.950 . S
C1511 C1508 1.387 . S
C1512 C1513 1.387 1_556 S
C1512 H1516 0.950 . S
C1512 C1521 1.390 . S
C1513 C1512 1.387 1_554 S
C1513 C1515 1.387 . S
H1514 C1521 0.950 . S
C1515 C1513 1.387 . S
C1515 C1517 1.390 . S
C1515 H1519 0.950 . S
H1516 C1512 0.950 . S
C1517 C1515 1.390 . S
C1517 C1518 1.387 1_554 S
C1517 H1520 0.950 . S
C1518 C1517 1.387 1_556 S
C1518 C1521 1.387 . S
H1519 C1515 0.950 . S
H1520 C1517 0.950 . S
C1521 C1512 1.390 . S
C1521 H1514 0.950 . S
C1521 C1518 1.387 . S
C1522 C1523 1.387 . S
C1522 H1526 0.950 . S
C1522 C1531 1.390 . S
C1523 C1522 1.387 . S
C1523 C1525 1.387 . S
H1524 C1531 0.950 . S
C1525 C1523 1.387 . S
C1525 C1527 1.390 . S
C1525 H1529 0.950 . S
H1526 C1522 0.950 . S
C1527 C1525 1.390 . S
C1527 C1528 1.387 . S
C1527 H1530 0.950 . S
C1528 C1527 1.387 . S
C1528 C1531 1.387 . S
H1529 C1525 0.950 . S
H1530 C1527 0.950 . S
C1531 C1522 1.390 . S
C1531 H1524 0.950 . S
C1531 C1528 1.387 . S
C1532 C1533 1.387 . S
C1532 H1536 0.950 . S
C1532 C1541 1.390 . S
C1533 C1532 1.387 . S
C1533 C1535 1.387 . S
H1534 C1541 0.950 . S
C1535 C1533 1.387 . S
C1535 C1537 1.390 . S
C1535 H1539 0.950 . S
H1536 C1532 0.950 . S
C1537 C1535 1.390 . S
C1537 C1538 1.387 . S
C1537 H1540 0.950 . S
C1538 C1537 1.387 . S
C1538 C1541 1.387 . S
H1539 C1535 0.950 . S
H1540 C1537 0.950 . S
C1541 C1532 1.390 . S
C1541 H1534 0.950 . S
C1541 C1538 1.387 . S
C1542 C1543 1.387 . S
C1542 H1546 0.950 . S
C1542 C1551 1.390 . S
C1543 C1542 1.387 . S
C1543 C1545 1.387 . S
H1544 C1551 0.950 . S
C1545 C1543 1.387 . S
C1545 C1547 1.390 . S
C1545 H1549 0.950 . S
H1546 C1542 0.950 . S
C1547 C1545 1.390 . S
C1547 C1548 1.387 . S
C1547 H1550 0.950 . S
C1548 C1547 1.387 . S
C1548 C1551 1.387 . S
H1549 C1545 0.950 . S
H1550 C1547 0.950 . S
C1551 C1542 1.390 . S
C1551 H1544 0.950 . S
C1551 C1548 1.387 . S
C1552 C1553 1.387 . S
C1552 H1556 0.950 . S
C1552 C1561 1.390 . S
C1553 C1552 1.387 . S
C1553 C1555 1.387 . S
H1554 C1561 0.950 . S
C1555 C1553 1.387 . S
C1555 C1557 1.390 . S
C1555 H1559 0.950 . S
H1556 C1552 0.950 . S
C1557 C1555 1.390 . S
C1557 C1558 1.387 . S
C1557 H1560 0.950 . S
C1558 C1557 1.387 . S
C1558 C1561 1.387 . S
H1559 C1555 0.950 . S
H1560 C1557 0.950 . S
C1561 C1552 1.390 . S
C1561 H1554 0.950 . S
C1561 C1558 1.387 . S
C1562 C1563 1.387 . S
C1562 H1566 0.950 . S
C1562 C1571 1.390 . S
C1563 C1562 1.387 . S
C1563 C1565 1.387 . S
H1564 C1571 0.950 . S
C1565 C1563 1.387 . S
C1565 C1567 1.390 . S
C1565 H1569 0.950 . S
H1566 C1562 0.950 . S
C1567 C1565 1.390 . S
C1567 C1568 1.387 . S
C1567 H1570 0.950 . S
C1568 C1567 1.387 . S
C1568 C1571 1.387 . S
H1569 C1565 0.950 . S
H1570 C1567 0.950 . S
C1571 C1562 1.390 . S
C1571 H1564 0.950 . S
C1571 C1568 1.387 . S
C1572 C1573 1.387 . S
C1572 H1576 0.950 . S
C1572 C1581 1.390 . S
C1573 C1572 1.387 . S
C1573 C1575 1.387 . S
H1574 C1581 0.950 . S
C1575 C1573 1.387 . S
C1575 C1577 1.390 . S
C1575 H1579 0.950 . S
H1576 C1572 0.950 . S
C1577 C1575 1.390 . S
C1577 C1578 1.387 . S
C1577 H1580 0.950 . S
C1578 C1577 1.387 . S
C1578 C1581 1.387 . S
H1579 C1575 0.950 . S
H1580 C1577 0.950 . S
C1581 C1572 1.390 . S
C1581 H1574 0.950 . S
C1581 C1578 1.387 . S
C1582 C1583 1.387 . S
C1582 H1586 0.950 . S
C1582 C1591 1.390 . S
C1583 C1582 1.387 . S
C1583 C1585 1.387 . S
H1584 C1591 0.950 . S
C1585 C1583 1.387 . S
C1585 C1587 1.390 . S
C1585 H1589 0.950 . S
H1586 C1582 0.950 . S
C1587 C1585 1.390 . S
C1587 C1588 1.387 . S
C1587 H1590 0.950 . S
C1588 C1587 1.387 . S
C1588 C1591 1.387 . S
H1589 C1585 0.950 . S
H1590 C1587 0.950 . S
C1591 C1582 1.390 . S
C1591 H1584 0.950 . S
C1591 C1588 1.387 . S
C1592 C1593 1.387 . S
C1592 H1596 0.950 . S
C1592 C1601 1.390 . S
C1593 C1592 1.387 . S
C1593 C1595 1.387 . S
H1594 C1601 0.950 . S
C1595 C1593 1.387 . S
C1595 C1597 1.390 . S
C1595 H1599 0.950 . S
H1596 C1592 0.950 . S
C1597 C1595 1.390 . S
C1597 C1598 1.387 . S
C1597 H1600 0.950 . S
C1598 C1597 1.387 . S
C1598 C1601 1.387 . S
H1599 C1595 0.950 . S
H1600 C1597 0.950 . S
C1601 C1592 1.390 . S
C1601 H1594 0.950 . S
C1601 C1598 1.387 . S
C1602 C1603 1.387 . S
C1602 H1606 0.950 . S
C1602 C1611 1.390 . S
C1603 C1602 1.387 . S
C1603 C1605 1.387 . S
H1604 C1611 0.950 . S
C1605 C1603 1.387 . S
C1605 C1607 1.390 . S
C1605 H1609 0.950 . S
H1606 C1602 0.950 . S
C1607 C1605 1.390 . S
C1607 C1608 1.387 . S
C1607 H1610 0.950 . S
C1608 C1607 1.387 . S
C1608 C1611 1.387 . S
H1609 C1605 0.950 . S
H1610 C1607 0.950 . S
C1611 C1602 1.390 . S
C1611 H1604 0.950 . S
C1611 C1608 1.387 . S
C1612 C1613 1.387 . S
C1612 H1616 0.950 . S
C1612 C1621 1.390 . S
C1613 C1612 1.387 . S
C1613 C1615 1.387 . S
H1614 C1621 0.950 . S
C1615 C1613 1.387 . S
C1615 C1617 1.390 . S
C1615 H1619 0.950 . S
H1616 C1612 0.950 . S
C1617 C1615 1.390 . S
C1617 C1618 1.387 . S
C1617 H1620 0.950 . S
C1618 C1617 1.387 . S
C1618 C1621 1.387 . S
H1619 C1615 0.950 . S
H1620 C1617 0.950 . S
C1621 C1612 1.390 . S
C1621 H1614 0.950 . S
C1621 C1618 1.387 . S
C1622 C1623 1.387 . S
C1622 H1626 0.950 . S
C1622 C1631 1.390 . S
C1623 C1622 1.387 . S
C1623 C1625 1.387 . S
H1624 C1631 0.950 . S
C1625 C1623 1.387 . S
C1625 C1627 1.390 . S
C1625 H1629 0.950 . S
H1626 C1622 0.950 . S
C1627 C1625 1.390 . S
C1627 C1628 1.387 . S
C1627 H1630 0.950 . S
C1628 C1627 1.387 . S
C1628 C1631 1.387 . S
H1629 C1625 0.950 . S
H1630 C1627 0.950 . S
C1631 C1622 1.390 . S
C1631 H1624 0.950 . S
C1631 C1628 1.387 . S
C673 C7 1.037 . S
C678 C371 0.927 . S
C683 C385 0.987 . S
C688 C21 0.976 1_455 S
C693 C35 0.989 . S
C698 C343 0.985 . S
C703 C357 0.968 . S
C708 C49 1.000 . S
C713 C63 1.006 . S
C718 C427 0.970 . S
C723 C77 0.984 . S
C728 C441 0.980 . S
C733 C91 0.980 . S
C738 C399 0.991 . S
C743 C105 1.037 . S
C748 C413 0.918 . S
C753 C175 0.927 . S
C758 C119 1.036 . S
C763 C133 1.000 . S
C768 C189 0.968 . S
C773 C203 1.006 . S
C778 C147 0.970 . S
C783 C161 0.922 . S
C788 C217 1.039 . S
C793 C609 0.921 . S
C798 C231 1.039 . S
C803 C637 0.999 . S
C808 C245 0.969 . S
C813 C315 0.971 . S
C818 C259 1.006 . S
C823 C567 0.981 . S
C828 C273 0.984 . S
C833 C665 0.919 . S
C838 C287 1.038 . S
C843 C581 0.975 . S
C848 C301 0.986 . S
C853 C329 0.990 . S
C858 C623 0.984 . S
C863 C455 0.986 . S
C868 C511 0.989 . S
C873 C525 0.981 1_554 S
C878 C469 0.991 . S
C883 C483 0.975 . S
C888 C539 0.987 . S
C893 C553 0.980 . S
C898 C497 0.984 . S
C903 C595 0.991 . S
C908 C651 0.980 1_545 S
C913 C13 0.748 . S
C918 C111 0.737 . S
C923 C69 0.750 1_655 S
C928 C27 0.759 . S
C933 C41 0.742 . S
C938 C83 0.753 . S
C943 C55 0.748 . S
C948 C97 0.759 . S
C953 C293 0.747 . S
C958 C125 0.737 . S
C963 C587 0.759 . S
C968 C139 0.748 . S
C973 C153 0.736 . S
C978 C601 0.739 . S
C983 C167 0.684 . S
C988 C615 0.677 . S
C993 C671 0.684 . S
C998 C181 0.681 . S
C1003 C195 0.738 . S
C1008 C307 0.732 . S
C1013 C209 0.751 1_565 S
C1018 C657 0.758 . S
C1023 C223 0.737 . S
C1028 C237 0.748 . S
C1033 C251 0.728 . S
C1038 C475 0.742 . S
C1043 C265 0.758 . S
C1048 C489 0.751 . S
C1053 C503 0.743 . S
C1058 C279 0.753 . S
C1063 C321 0.734 . S
C1068 C545 0.734 . S
C1073 C517 0.752 . S
C1078 C335 0.745 . S
C1083 C447 0.747 . S
C1088 C349 0.739 . S
C1093 C363 0.737 . S
C1098 C405 0.738 . S
C1103 C419 0.684 . S
C1108 C377 0.681 . S
C1113 C391 0.743 . S
C1118 C433 0.729 . S
C1123 C461 0.740 . S
C1128 C629 0.746 . S
C1133 C643 0.748 1_556 S
C1138 C531 0.759 . S
C1143 C573 0.736 . S
C1148 C559 0.747 . S
C1153 C8 1.040 . S
C1158 C414 1.252 . S
C1163 C428 1.093 . S
C1168 C22 1.074 . S
C1173 C36 1.045 . S
C1178 C442 1.055 . S
C1183 C50 1.056 . S
C1188 C400 1.087 . S
C1193 C386 1.089 . S
C1198 C64 1.057 . S
C1203 C78 1.044 . S
C1208 C344 1.056 . S
C1213 C358 1.090 . S
C1218 C92 1.078 . S
C1223 C106 1.041 . S
C1228 C372 1.241 1_655 S
C1233 C666 1.248 . S
C1238 C120 1.040 . S
C1243 C134 1.050 . S
C1248 C302 1.091 . S
C1253 C148 1.086 . S
C1258 C652 1.076 . S
C1263 C232 1.036 . S
C1268 C162 1.254 . S
C1273 C176 1.241 1_565 S
C1278 C288 1.041 . S
C1283 C190 1.086 . S
C1288 C582 1.078 . S
C1293 C596 1.094 . S
C1298 C204 1.054 . S
C1303 C610 1.246 1_556 S
C1308 C218 1.038 . S
C1313 C526 1.079 . S
C1318 C246 1.086 . S
C1323 C540 1.094 . S
C1328 C260 1.052 . S
C1333 C554 1.052 . S
C1338 C274 1.046 . S
C1343 C316 1.088 . S
C1348 C484 1.074 . S
C1353 C456 1.057 . S
C1358 C330 1.042 . S
C1363 C470 1.094 . S
C1368 C638 1.052 . S
C1373 C498 1.046 . S
C1378 C568 1.054 . S
C1383 C624 1.055 . S
C1388 C512 1.045 . S
C1393 C11 1.429 . S
C1398 C319 1.467 . S
C1403 C25 1.345 . S
C1408 C571 1.353 . S
C1413 C333 1.345 . S
C1418 C39 1.344 . S
C1423 C641 1.430 . S
C1428 C53 1.431 . S
C1433 C263 1.429 . S
C1438 C67 1.429 . S
C1443 C277 1.347 . S
C1448 C81 1.348 . S
C1453 C95 1.348 . S
C1458 C627 1.356 . S
C1463 C109 1.427 . S
C1468 C249 1.465 . S
C1473 C193 1.467 . S
C1478 C123 1.429 . S
C1483 C137 1.431 . S
C1488 C207 1.430 . S
C1493 C221 1.427 . S
C1498 C151 1.466 . S
C1503 C179 1.349 . S
C1508 C165 1.348 . S
C1513 C235 1.431 . S
C1518 C361 1.469 . S
C1523 C431 1.468 . S
C1528 C291 1.430 . S
C1533 C389 1.323 . S
C1538 C305 1.322 . S
C1543 C347 1.355 . S
C1548 C655 1.347 . S
C1553 C669 1.346 . S
C1558 C375 1.347 . S
C1563 C599 1.321 . S
C1568 C403 1.320 . S
C1573 C613 1.346 . S
C1578 C417 1.347 . S
C1583 C585 1.345 . S
C1588 C445 1.353 . S
C1593 C529 1.347 . S
C1598 C459 1.355 . S
C1603 C543 1.321 . S
C1608 C473 1.322 . S
C1613 C487 1.348 . S
C1618 C557 1.357 . S
C1623 C501 1.344 . S
C1628 C515 1.344 . S
