# Generated by pormake.
# Topology xft, (5)-cn, num edge types: 1
# Building blocks:
#     Node 0, Type 0, BuildingBlock: BEQFEK_clean_sbu_0, # of connection points: 5
#     Node 1, Type 0, BuildingBlock: BEQFEK_clean_sbu_0, # of connection points: 5
#     Node 2, Type 0, BuildingBlock: BEQFEK_clean_sbu_0, # of connection points: 5
#     Node 3, Type 0, BuildingBlock: BEQFEK_clean_sbu_0, # of connection points: 5
#     Node 4, Type 0, BuildingBlock: BEQFEK_clean_sbu_0, # of connection points: 5
#     Node 5, Type 0, BuildingBlock: BEQFEK_clean_sbu_0, # of connection points: 5
#     Node 6, Type 0, BuildingBlock: BEQFEK_clean_sbu_0, # of connection points: 5
#     Node 7, Type 0, BuildingBlock: BEQFEK_clean_sbu_0, # of connection points: 5
#     Edge 8, Type (0, 0), BuildingBlock: MIFKUJ_clean_linker_0, # of connection points: 2
#     Edge 9, Type (0, 0), BuildingBlock: MIFKUJ_clean_linker_0, # of connection points: 2
#     Edge 10, Type (0, 0), BuildingBlock: MIFKUJ_clean_linker_0, # of connection points: 2
#     Edge 11, Type (0, 0), BuildingBlock: MIFKUJ_clean_linker_0, # of connection points: 2
#     Edge 12, Type (0, 0), BuildingBlock: MIFKUJ_clean_linker_0, # of connection points: 2
#     Edge 13, Type (0, 0), BuildingBlock: MIFKUJ_clean_linker_0, # of connection points: 2
#     Edge 14, Type (0, 0), BuildingBlock: MIFKUJ_clean_linker_0, # of connection points: 2
#     Edge 15, Type (0, 0), BuildingBlock: MIFKUJ_clean_linker_0, # of connection points: 2
#     Edge 16, Type (0, 0), BuildingBlock: MIFKUJ_clean_linker_0, # of connection points: 2
#     Edge 17, Type (0, 0), BuildingBlock: MIFKUJ_clean_linker_0, # of connection points: 2
#     Edge 18, Type (0, 0), BuildingBlock: MIFKUJ_clean_linker_0, # of connection points: 2
#     Edge 19, Type (0, 0), BuildingBlock: MIFKUJ_clean_linker_0, # of connection points: 2
#     Edge 20, Type (0, 0), BuildingBlock: MIFKUJ_clean_linker_0, # of connection points: 2
#     Edge 21, Type (0, 0), BuildingBlock: MIFKUJ_clean_linker_0, # of connection points: 2
#     Edge 22, Type (0, 0), BuildingBlock: MIFKUJ_clean_linker_0, # of connection points: 2
#     Edge 23, Type (0, 0), BuildingBlock: MIFKUJ_clean_linker_0, # of connection points: 2
#     Edge 24, Type (0, 0), BuildingBlock: MIFKUJ_clean_linker_0, # of connection points: 2
#     Edge 25, Type (0, 0), BuildingBlock: MIFKUJ_clean_linker_0, # of connection points: 2
#     Edge 26, Type (0, 0), BuildingBlock: MIFKUJ_clean_linker_0, # of connection points: 2
#     Edge 27, Type (0, 0), BuildingBlock: MIFKUJ_clean_linker_0, # of connection points: 2
# Relax obj value: 0.414
# Max RMSD: 0.297
# Mean RMSD: 0.297
data_MOF--net-xft--node1-BEQFEK_clean_sbu_0--edge1-MIFKUJ_clean_linker_0
_symmetry_space_group_name_H-M    P1
_symmetry_Int_Tables_number       1
_symmetry_cell_setting            triclinic
loop_
_symmetry_equiv_pos_as_xyz
'x, y, z'
_cell_length_a     47.597716
_cell_length_b     47.579496
_cell_length_c     44.499511
_cell_angle_alpha  90.03232
_cell_angle_beta   89.860533
_cell_angle_gamma 89.99853
loop_
_atom_site_label
_atom_site_type_symbol
_atom_site_fract_x
_atom_site_fract_y
_atom_site_fract_z
_atom_type_partial_charge
Co0 Co 0.30797 0.02449 0.7077 0.0
Co1 Co 0.28957 0.97984 0.75528 0.0
C2 C 0.29231 0.96559 0.69041 0.0
O3 O 0.30126 0.98996 0.68349 0.0
O4 O 0.28655 0.95917 0.71742 0.0
C5 C 0.29851 0.06377 0.65901 0.0
O6 O 0.27301 0.05333 0.65734 0.0
C7 C 0.26128 0.93306 0.78566 0.0
C8 C 0.27628 0.93826 0.83233 0.0
C9 C 0.26044 0.92098 0.81396 0.0
N10 N 0.27698 0.95648 0.78722 0.0
N11 N 0.28581 0.95952 0.81517 0.0
C12 C 0.25034 0.92102 0.75692 0.0
H13 H 0.26831 0.91266 0.74378 0.0
H14 H 0.24017 0.93783 0.74351 0.0
H15 H 0.23535 0.90357 0.76068 0.0
C16 C 0.2626 0.05692 0.73854 0.0
N17 N 0.27755 0.03324 0.73385 0.0
N18 N 0.26936 0.014 0.75326 0.0
C19 C 0.24843 0.02449 0.77027 0.0
C20 C 0.24354 0.05206 0.76157 0.0
C21 C 0.26879 0.08466 0.72409 0.0
H22 H 0.29146 0.08633 0.71864 0.0
H23 H 0.25645 0.08653 0.70309 0.0
H24 H 0.26281 0.10232 0.7391 0.0
O25 O 0.34261 0.01982 0.73146 0.0
O26 O 0.32962 0.98692 0.76393 0.0
H27 H 0.24698 0.00695 0.81441 0.0
H28 H 0.21323 0.01844 0.80051 0.0
C29 C 0.2334 0.00829 0.79424 0.0
H30 H 0.22914 0.98663 0.78626 0.0
H31 H 0.29893 0.97574 0.82235 0.0
O32 O 0.31546 0.05483 0.67882 0.0
C33 C 0.3481 0.00346 0.75327 0.0
Co34 Co 0.00279 0.81265 0.98223 0.0
Co35 Co 0.04519 0.80578 0.03528 0.0
C36 C 0.06144 0.79354 0.97134 0.0
O37 O 0.03729 0.80025 0.96146 0.0
O38 O 0.06709 0.79457 -0.00072 0.0
C39 C 0.97261 0.80906 0.92575 0.0
O40 O 0.99651 0.80082 0.91384 0.0
C41 C 0.08633 0.77811 0.07332 0.0
C42 C 0.08931 0.80697 0.11213 0.0
C43 C 0.10067 0.78266 0.09998 0.0
N44 N 0.0678 0.79904 0.06959 0.0
N45 N 0.0696 0.81622 0.09285 0.0
C46 C 0.08887 0.75361 0.05238 0.0
H47 H 0.06909 0.75075 0.03957 0.0
H48 H 0.09379 0.73411 0.06501 0.0
H49 H 0.10613 0.75765 0.03618 0.0
C50 C 0.97056 0.77262 0.01888 0.0
N51 N 0.99356 0.78835 0.01408 0.0
N52 N 0.0107 0.78588 0.03708 0.0
C53 C -0.00109 0.76864 0.05756 0.0
C54 C 0.973 0.75977 0.04671 0.0
C55 C 0.94757 0.76888 0.9963 0.0
H56 H 0.95685 0.76565 0.97368 0.0
H57 H 0.93399 0.75062 0.00171 0.0
H58 H 0.93455 0.78822 0.99562 0.0
O59 O 0.00752 0.85135 0.9974 0.0
O60 O 0.03859 0.84669 0.03414 0.0
H61 H 0.9961 0.75258 0.10301 0.0
H62 H 0.0293 0.747 0.08411 0.0
C63 C 0.01169 0.76197 0.08741 0.0
H64 H 0.02031 0.7814 0.0976 0.0
H65 H 0.05765 0.83449 0.09536 0.0
O66 O 0.97132 0.81451 0.95366 0.0
C67 C 0.02271 0.8619 0.01799 0.0
Co68 Co 0.20687 0.49347 0.23455 0.0
Co69 Co 0.20358 0.52233 0.29727 0.0
C70 C 0.21649 0.55396 0.23945 0.0
O71 O 0.2166 0.53205 0.22309 0.0
O72 O 0.21117 0.55257 0.26747 0.0
C73 C 0.20203 0.47551 0.17365 0.0
O74 O 0.19362 0.50145 0.16902 0.0
C75 C 0.22824 0.55623 0.34388 0.0
C76 C 0.19313 0.56179 0.37591 0.0
C77 C 0.2202 0.57062 0.3695 0.0
N78 N 0.20697 0.53956 0.33547 0.0
N79 N 0.18616 0.54257 0.35495 0.0
C80 C 0.25382 0.56146 0.32507 0.0
H81 H 0.2537 0.58354 0.31702 0.0
H82 H 0.25451 0.54695 0.30556 0.0
H83 H 0.273 0.55845 0.3388 0.0
C84 C 0.24837 0.45878 0.26613 0.0
N85 N 0.23022 0.48038 0.26552 0.0
N86 N 0.22858 0.49173 0.29244 0.0
C87 C 0.24533 0.47724 0.31128 0.0
C88 C 0.25844 0.45606 0.29507 0.0
C89 C 0.25475 0.44027 0.23978 0.0
H90 H 0.23559 0.42826 0.23375 0.0
H91 H 0.26065 0.45344 0.22019 0.0
H92 H 0.27198 0.42527 0.24474 0.0
O93 O 0.16673 0.49146 0.24673 0.0
O94 O 0.16465 0.50944 0.29269 0.0
H95 H 0.22728 0.48802 0.35393 0.0
H96 H 0.25768 0.46503 0.35613 0.0
C97 C 0.24817 0.48313 0.34414 0.0
H98 H 0.26186 0.50176 0.34725 0.0
H99 H 0.16655 0.53294 0.35281 0.0
O100 O 0.21009 0.46841 0.19972 0.0
C101 C 0.15287 0.49781 0.27029 0.0
Co102 Co 0.50088 0.71502 0.44112 0.0
Co103 Co 0.47723 0.71497 0.5065 0.0
C104 C 0.44078 0.72472 0.45152 0.0
O105 O 0.46096 0.72304 0.43278 0.0
O106 O 0.44482 0.72156 0.47957 0.0
C107 C 0.5174 0.69822 0.38355 0.0
O108 O 0.49424 0.68334 0.38596 0.0
C109 C 0.44744 0.74272 0.55429 0.0
C110 C 0.44894 0.71246 0.59185 0.0
C111 C 0.43791 0.73808 0.58311 0.0
N112 N 0.46354 0.72098 0.54604 0.0
N113 N 0.46468 0.703 0.56868 0.0
C114 C 0.43986 0.76674 0.53425 0.0
H115 H 0.45396 0.76757 0.51438 0.0
H116 H 0.44115 0.78679 0.54695 0.0
H117 H 0.41784 0.76417 0.52666 0.0
C118 C 0.53865 0.7576 0.46788 0.0
N119 N 0.51639 0.74022 0.46943 0.0
N120 N 0.507 0.73959 0.49724 0.0
C121 C 0.52316 0.75626 0.51444 0.0
C122 C 0.54366 0.7684 0.49634 0.0
C123 C 0.55511 0.76305 0.4398 0.0
H124 H 0.54056 0.76582 0.4206 0.0
H125 H 0.56846 0.78205 0.44205 0.0
H126 H 0.56868 0.74461 0.43499 0.0
O127 O 0.50512 0.6758 0.45579 0.0
O128 O 0.49017 0.67587 0.50306 0.0
H129 H 0.54105 0.7648 0.5583 0.0
H130 H 0.50412 0.77257 0.55432 0.0
C131 C 0.52107 0.75767 0.54801 0.0
H132 H 0.51568 0.73669 0.55718 0.0
H133 H 0.47521 0.68376 0.56786 0.0
O134 O 0.52315 0.71588 0.404 0.0
C135 C 0.50076 0.66315 0.48058 0.0
Co136 Co 0.68449 0.97864 0.73282 0.0
Co137 Co 0.69795 0.02085 0.78458 0.0
C138 C 0.69604 0.03937 0.72063 0.0
O139 O 0.68937 0.01496 0.71136 0.0
O140 O 0.70029 0.04426 0.74832 0.0
C141 C 0.69595 0.94557 0.67962 0.0
O142 O 0.71812 0.96168 0.67595 0.0
C143 C 0.72698 0.06518 0.81702 0.0
C144 C 0.71054 0.06064 0.86324 0.0
C145 C 0.72799 0.07695 0.84542 0.0
N146 N 0.70929 0.04325 0.81773 0.0
N147 N 0.69945 0.04063 0.8454 0.0
C148 C 0.74428 0.07319 0.79023 0.0
H149 H 0.74715 0.05489 0.77507 0.0
H150 H 0.76517 0.08118 0.79727 0.0
H151 H 0.73332 0.09014 0.77784 0.0
C152 C 0.73206 0.94817 0.76082 0.0
N153 N 0.71475 0.97046 0.75883 0.0
N154 N 0.7207 0.98835 0.78048 0.0
C155 C 0.74245 0.9783 0.79654 0.0
C156 C 0.75031 0.95247 0.78461 0.0
C157 C 0.72938 0.92208 0.74221 0.0
H158 H 0.70692 0.91739 0.73803 0.0
H159 H 0.74005 0.9254 0.72032 0.0
H160 H 0.73912 0.90374 0.7535 0.0
O161 O 0.64913 0.97945 0.75587 0.0
O162 O 0.65795 0.01103 0.79143 0.0
H163 H 0.74103 0.99439 0.84137 0.0
H164 H 0.77575 0.98358 0.82929 0.0
C165 C 0.75587 0.99367 0.82212 0.0
H166 H 0.76045 0.01557 0.81525 0.0
H167 H 0.68512 0.02523 0.85207 0.0
O168 O 0.67996 0.94932 0.70216 0.0
C169 C 0.64142 0.99386 0.7785 0.0
Co170 Co 0.01124 0.20782 0.97755 0.0
Co171 Co 0.97061 0.21237 0.03266 0.0
C172 C 0.95012 0.215 0.96863 0.0
O173 O 0.97458 0.2125 0.95729 0.0
O174 O 0.94633 0.21505 0.99695 0.0
C175 C 0.04059 0.21245 0.92005 0.0
O176 O 0.01664 0.22051 0.90826 0.0
C177 C 0.92507 0.23572 0.06845 0.0
C178 C 0.9318 0.2163 0.11296 0.0
C179 C 0.91396 0.23378 0.09708 0.0
N180 N 0.94817 0.21963 0.06709 0.0
N181 N 0.9521 0.20799 0.09374 0.0
C182 C 0.91508 0.25423 0.04348 0.0
H183 H 0.93267 0.25943 0.02805 0.0
H184 H 0.90586 0.27391 0.05259 0.0
H185 H 0.8985 0.24309 0.03072 0.0
C186 C 0.03772 0.25577 0.00801 0.0
N187 N 0.01728 0.2364 0.00592 0.0
N188 N 0.00098 0.23792 0.02979 0.0
C189 C 0.01078 0.25821 0.04809 0.0
C190 C 0.03427 0.27021 0.03476 0.0
C191 C 0.06134 0.25861 0.98594 0.0
H192 H 0.0734 0.23866 0.98525 0.0
H193 H 0.05261 0.26229 0.96319 0.0
H194 H 0.07576 0.27604 0.9919 0.0
O195 O 0.01324 0.17056 0.99722 0.0
O196 O 0.98393 0.17341 0.036 0.0
H197 H -0.00133 0.24684 0.09272 0.0
H198 H 0.00952 0.28317 0.08884 0.0
C199 C -0.00185 0.26557 0.07789 0.0
H200 H 0.97585 0.27159 0.07474 0.0
H201 H 0.9686 0.19435 0.09877 0.0
O202 O 0.04196 0.20726 0.94799 0.0
C203 C 0.00129 0.15967 0.01999 0.0
Co204 Co 0.80535 0.50937 0.22923 0.0
Co205 Co 0.79559 0.46422 0.27928 0.0
C206 C 0.78237 0.45433 0.21329 0.0
O207 O 0.78943 0.47883 0.20469 0.0
O208 O 0.78444 0.44684 0.24065 0.0
C209 C 0.79979 0.55245 0.18194 0.0
O210 O 0.7754 0.54181 0.17414 0.0
C211 C 0.76891 0.41699 0.31065 0.0
C212 C 0.79075 0.4177 0.35445 0.0
C213 C 0.77119 0.40285 0.33781 0.0
N214 N 0.78629 0.43925 0.3113 0.0
N215 N 0.79923 0.43958 0.33755 0.0
C216 C 0.75321 0.40798 0.28317 0.0
H217 H 0.76855 0.40299 0.26525 0.0
H218 H 0.73985 0.42556 0.27517 0.0
H219 H 0.74029 0.38896 0.28674 0.0
C220 C 0.76642 0.54136 0.26862 0.0
N221 N 0.78216 0.51855 0.26258 0.0
N222 N 0.77757 0.4994 0.28338 0.0
C223 C 0.75828 0.50919 0.30293 0.0
C224 C 0.7508 0.53618 0.29436 0.0
C225 C 0.76413 0.56632 0.24831 0.0
H226 H 0.78543 0.57426 0.24285 0.0
H227 H 0.75387 0.5598 0.22708 0.0
H228 H 0.75159 0.58347 0.25859 0.0
O229 O 0.84296 0.4977 0.24228 0.0
O230 O 0.83697 0.46836 0.2804 0.0
H231 H 0.73018 0.50451 0.34099 0.0
H232 H 0.73648 0.47294 0.31914 0.0
C233 C 0.74616 0.49238 0.32822 0.0
H234 H 0.76327 0.48606 0.34367 0.0
H235 H 0.81439 0.45438 0.34362 0.0
O236 O 0.81328 0.54213 0.20388 0.0
C237 C 0.8529 0.48207 0.26277 0.0
Co238 Co 0.50485 0.31355 0.45933 0.0
Co239 Co 0.53709 0.30961 0.51998 0.0
C240 C 0.56006 0.28559 0.46218 0.0
O241 O 0.53849 0.29246 0.44712 0.0
O242 O 0.56199 0.29148 0.48995 0.0
C243 C 0.47327 0.29479 0.40757 0.0
O244 O 0.48251 0.26942 0.41369 0.0
C245 C 0.56335 0.2771 0.56665 0.0
C246 C 0.57818 0.30923 0.59879 0.0
C247 C 0.57856 0.28066 0.5928 0.0
N248 N 0.55413 0.30233 0.55762 0.0
N249 N 0.5628 0.32149 0.57703 0.0
C250 C 0.56064 0.25079 0.54838 0.0
H251 H 0.58173 0.2442 0.54033 0.0
H252 H 0.54655 0.25413 0.5289 0.0
H253 H 0.55202 0.23351 0.56231 0.0
C254 C 0.46027 0.2861 0.49648 0.0
N255 N 0.48621 0.29704 0.49281 0.0
N256 N 0.49993 0.2952 0.5184 0.0
C257 C 0.48322 0.28287 0.53903 0.0
C258 C 0.45766 0.27661 0.52579 0.0
C259 C 0.439 0.28328 0.47194 0.0
H260 H 0.43801 0.303 0.45876 0.0
H261 H 0.44531 0.26584 0.45687 0.0
H262 H 0.41778 0.27849 0.48083 0.0
O263 O 0.5154 0.35283 0.46882 0.0
O264 O 0.53659 0.35064 0.51319 0.0
H265 H 0.47223 0.2743 0.58523 0.0
H266 H 0.50436 0.25845 0.57228 0.0
C267 C 0.49116 0.2776 0.57105 0.0
H268 H 0.50331 0.29562 0.57997 0.0
H269 H 0.55926 0.34306 0.5747 0.0
O270 O 0.48007 0.31538 0.4242 0.0
C271 C 0.52747 0.36474 0.49094 0.0
H272 H 0.23909 0.06492 0.82079 0.0
H273 H 0.20601 0.09758 0.84438 0.0
H274 H 0.17196 0.11814 0.7573 0.0
H275 H 0.20539 0.08556 0.7336 0.0
H276 H 0.17674 0.16467 0.79257 0.0
H277 H 0.13836 0.07241 0.80133 0.0
H278 H 0.13807 0.02193 0.81375 0.0
H279 H 0.15226 0.0414 0.90671 0.0
H280 H 0.1532 0.09202 0.89476 0.0
H281 H 0.04341 0.21161 0.85837 0.0
H282 H 0.08076 0.19046 0.82769 0.0
H283 H 0.12916 0.17448 0.90764 0.0
H284 H 0.09246 0.19575 0.93832 0.0
H285 H 0.11487 0.12614 0.87244 0.0
H286 H 0.15415 0.21905 0.8623 0.0
H287 H 0.15345 0.2693 0.8489 0.0
H288 H 0.13489 0.24809 0.75727 0.0
H289 H 0.13507 0.19767 0.77024 0.0
C290 C 0.22447 0.07638 0.80677 0.0
C291 C 0.2243 0.07251 0.77554 0.0
C292 C 0.20569 0.09506 0.82018 0.0
C293 C 0.18625 0.10989 0.8026 0.0
C294 C 0.18676 0.10681 0.77124 0.0
C295 C 0.20571 0.08821 0.75778 0.0
C296 C 0.16466 0.12759 0.81726 0.0
C297 C 0.16291 0.15621 0.80974 0.0
C298 C 0.14679 0.1165 0.83976 0.0
C299 C 0.1461 0.08603 0.84709 0.0
C300 C 0.14166 0.06594 0.82439 0.0
C301 C 0.14136 0.03729 0.83135 0.0
C302 C 0.1452 0.02846 0.86099 0.0
C303 C 0.14932 0.04828 0.88375 0.0
C304 C 0.14974 0.07695 0.87689 0.0
C305 C 0.06231 0.20422 0.86931 0.0
C306 C 0.06477 0.20489 0.9008 0.0
C307 C 0.0836 0.1922 0.85177 0.0
C308 C 0.10748 0.18075 0.86555 0.0
C309 C 0.11076 0.1831 0.8967 0.0
C310 C 0.08971 0.19524 0.91416 0.0
C311 C 0.12743 0.1633 0.8483 0.0
C312 C 0.12865 0.13459 0.85521 0.0
C313 C 0.1445 0.1743 0.82513 0.0
C314 C 0.14427 0.20459 0.81733 0.0
C315 C 0.1496 0.2251 0.83937 0.0
C316 C 0.14938 0.25362 0.83183 0.0
C317 C 0.14403 0.26189 0.80227 0.0
C318 C 0.13897 0.24165 0.78017 0.0
C319 C 0.13915 0.2131 0.7876 0.0
H320 H 0.14388 0.28398 0.79647 0.0
H321 H 0.14493 0.00628 0.86634 0.0
H322 H 0.91708 0.76881 0.05433 0.0
H323 H 0.88211 0.73572 0.07382 0.0
H324 H 0.94788 0.67547 0.09137 0.0
H325 H 0.98271 0.70817 0.07075 0.0
H326 H 0.90495 0.65116 0.06364 0.0
H327 H 0.91635 0.7139 0.14791 0.0
H328 H 0.91671 0.75983 0.17362 0.0
H329 H 0.82975 0.7719 0.15164 0.0
H330 H 0.82898 0.72618 0.12544 0.0
H331 H 0.85522 0.56423 0.17833 0.0
H332 H 0.87793 0.60193 0.15047 0.0
H333 H 0.79732 0.63071 0.11894 0.0
H334 H 0.77411 0.59221 0.14658 0.0
H335 H 0.83974 0.67309 0.14764 0.0
H336 H 0.82828 0.60595 0.06848 0.0
H337 H 0.82948 0.55871 0.04573 0.0
H338 H 0.9184 0.55397 0.06093 0.0
H339 H 0.91766 0.60102 0.08422 0.0
C340 C 0.92397 0.74848 0.06243 0.0
C341 C 0.95245 0.74087 0.06105 0.0
C342 C 0.90406 0.72971 0.07369 0.0
C343 C 0.91242 0.70319 0.08415 0.0
C344 C 0.94099 0.69582 0.08333 0.0
C345 C 0.96088 0.71453 0.07187 0.0
C346 C 0.8914 0.68275 0.09526 0.0
C347 C 0.89077 0.65596 0.08207 0.0
C348 C 0.87226 0.68932 0.11865 0.0
C349 C 0.8727 0.71679 0.1344 0.0
C350 C 0.89737 0.72647 0.14833 0.0
C351 C 0.89764 0.75244 0.16304 0.0
C352 C 0.87329 0.76882 0.16418 0.0
C353 C 0.8486 0.75922 0.15069 0.0
C354 C 0.84824 0.73327 0.13592 0.0
C355 C 0.84222 0.57852 0.16549 0.0
C356 C 0.81288 0.57535 0.16461 0.0
C357 C 0.85526 0.59997 0.14954 0.0
C358 C 0.83924 0.61889 0.13269 0.0
C359 C 0.8099 0.61613 0.13186 0.0
C360 C 0.79676 0.59418 0.14749 0.0
C361 C 0.85388 0.64153 0.11643 0.0
C362 C 0.85345 0.66864 0.12871 0.0
C363 C 0.87225 0.63523 0.0924 0.0
C364 C 0.87286 0.60696 0.07828 0.0
C365 C 0.84805 0.59474 0.06721 0.0
C366 C 0.84866 0.56801 0.05417 0.0
C367 C 0.87399 0.55333 0.05193 0.0
C368 C 0.89879 0.56537 0.06268 0.0
C369 C 0.89829 0.59209 0.07577 0.0
H370 H 0.87442 0.53263 0.04182 0.0
H371 H 0.87354 0.78891 0.17558 0.0
H372 H 0.24495 0.40788 0.32412 0.0
H373 H 0.27689 0.36913 0.33703 0.0
H374 H 0.34681 0.41695 0.30201 0.0
H375 H 0.3147 0.45514 0.2884 0.0
H376 H 0.34959 0.36405 0.28325 0.0
H377 H 0.33271 0.41148 0.37829 0.0
H378 H 0.30313 0.42957 0.41957 0.0
H379 H 0.27201 0.34634 0.43647 0.0
H380 H 0.30115 0.32782 0.39498 0.0
H381 H 0.46992 0.33715 0.36763 0.0
H382 H 0.42821 0.35162 0.33983 0.0
H383 H 0.38384 0.27843 0.37193 0.0
H384 H 0.42612 0.26339 0.3992 0.0
H385 H 0.36018 0.3312 0.38838 0.0
H386 H 0.38828 0.28357 0.30019 0.0
H387 H 0.42054 0.26734 0.2604 0.0
H388 H 0.43344 0.35254 0.23182 0.0
H389 H 0.4016 0.36938 0.27172 0.0
C390 C 0.26723 0.41003 0.31962 0.0
C391 C 0.27774 0.43434 0.30583 0.0
C392 C 0.28538 0.38798 0.32683 0.0
C393 C 0.31424 0.39022 0.32057 0.0
C394 C 0.32461 0.41473 0.30689 0.0
C395 C 0.30644 0.4366 0.29946 0.0
C396 C 0.33399 0.36743 0.32861 0.0
C397 C 0.35196 0.35684 0.30623 0.0
C398 C 0.33627 0.35722 0.35836 0.0
C399 C 0.31879 0.36834 0.38329 0.0
C400 C 0.31937 0.39708 0.39065 0.0
C401 C 0.30272 0.40741 0.4141 0.0
C402 C 0.28562 0.38913 0.43056 0.0
C403 C 0.2852 0.36048 0.42365 0.0
C404 C 0.30178 0.35006 0.40017 0.0
C405 C 0.45161 0.32362 0.36775 0.0
C406 C 0.45106 0.29921 0.38535 0.0
C407 C 0.42785 0.33182 0.35185 0.0
C408 C 0.40303 0.31603 0.35381 0.0
C409 C 0.40292 0.2907 0.36998 0.0
C410 C 0.42703 0.28211 0.38538 0.0
C411 C 0.3766 0.32884 0.34329 0.0
C412 C 0.35728 0.33765 0.3652 0.0
C413 C 0.37336 0.33769 0.31322 0.0
C414 C 0.39256 0.32775 0.28907 0.0
C415 C 0.39814 0.29889 0.28557 0.0
C416 C 0.41633 0.28957 0.26296 0.0
C417 C 0.42904 0.3089 0.24361 0.0
C418 C 0.42355 0.33759 0.24681 0.0
C419 C 0.40538 0.34703 0.26939 0.0
H420 H 0.44312 0.30164 0.22611 0.0
H421 H 0.27275 0.39716 0.44872 0.0
H422 H 0.72836 0.9253 0.63314 0.0
H423 H 0.71506 0.88929 0.59623 0.0
H424 H 0.63413 0.88106 0.63937 0.0
H425 H 0.64746 0.91588 0.67643 0.0
H426 H 0.65266 0.83152 0.6253 0.0
H427 H 0.64678 0.92312 0.57441 0.0
H428 H 0.66727 0.96704 0.55462 0.0
H429 H 0.72501 0.91938 0.50055 0.0
H430 H 0.70499 0.87518 0.52028 0.0
H431 H 0.54013 0.81542 0.53015 0.0
H432 H 0.57886 0.84087 0.55385 0.0
H433 H 0.63865 0.78717 0.50891 0.0
H434 H 0.59975 0.76101 0.48565 0.0
H435 H 0.64547 0.85822 0.51778 0.0
H436 H 0.64158 0.76531 0.56472 0.0
H437 H 0.61461 0.72464 0.5835 0.0
H438 H 0.57053 0.77822 0.64534 0.0
H439 H 0.59693 0.81927 0.62656 0.0
C440 C 0.70782 0.91561 0.63476 0.0
C441 C 0.68891 0.92349 0.6576 0.0
C442 C 0.70026 0.8951 0.61368 0.0
C443 C 0.67354 0.88258 0.61495 0.0
C444 C 0.65495 0.89021 0.63805 0.0
C445 C 0.66256 0.9103 0.65919 0.0
C446 C 0.66375 0.86243 0.59185 0.0
C447 C 0.65157 0.83718 0.60171 0.0
C448 C 0.66277 0.86942 0.56092 0.0
C449 C 0.67467 0.89593 0.54907 0.0
C450 C 0.66396 0.92205 0.55844 0.0
C451 C 0.67547 0.94697 0.54722 0.0
C452 C 0.69749 0.946 0.52642 0.0
C453 C 0.708 0.9201 0.51672 0.0
C454 C 0.69659 0.89512 0.5279 0.0
C455 C 0.56155 0.80938 0.52497 0.0
C456 C 0.56709 0.78628 0.50634 0.0
C457 C 0.58357 0.82396 0.53832 0.0
C458 C 0.61143 0.81576 0.53304 0.0
C459 C 0.6172 0.7938 0.51297 0.0
C460 C 0.59506 0.77899 0.49974 0.0
C461 C 0.63366 0.82822 0.55168 0.0
C462 C 0.64793 0.85197 0.54108 0.0
C463 C 0.63632 0.82012 0.58204 0.0
C464 C 0.62114 0.79534 0.59413 0.0
C465 C 0.62604 0.76842 0.58221 0.0
C466 C 0.61086 0.74531 0.59286 0.0
C467 C 0.59084 0.74885 0.61557 0.0
C468 C 0.58604 0.7755 0.62776 0.0
C469 C 0.60114 0.79869 0.61716 0.0
H470 H 0.57907 0.73094 0.62375 0.0
H471 H 0.70637 0.96532 0.51776 0.0
H472 H 0.94867 0.21448 0.90693 0.0
H473 H 0.90752 0.20591 0.87536 0.0
H474 H 0.85465 0.20577 0.95431 0.0
H475 H 0.89512 0.21487 0.98561 0.0
H476 H 0.87995 0.15934 0.87854 0.0
H477 H 0.7886 0.21776 0.94092 0.0
H478 H 0.78031 0.26415 0.96401 0.0
H479 H 0.84384 0.30056 0.90753 0.0
H480 H 0.85232 0.25448 0.88382 0.0
H481 H 0.76037 0.07958 0.89527 0.0
H482 H 0.79483 0.11598 0.90779 0.0
H483 H 0.76921 0.16417 0.83051 0.0
H484 H 0.7347 0.12771 0.81781 0.0
H485 H 0.78273 0.19578 0.8895 0.0
H486 H 0.81979 0.13284 0.81484 0.0
H487 H 0.82772 0.08592 0.79288 0.0
H488 H 0.87382 0.06113 0.87134 0.0
H489 H 0.86563 0.10774 0.89405 0.0
C490 C 0.92815 0.21342 0.91743 0.0
C491 C 0.92524 0.21504 0.94884 0.0
C492 C 0.90466 0.20858 0.89936 0.0
C493 C 0.87795 0.20536 0.91241 0.0
C494 C 0.87485 0.20882 0.94355 0.0
C495 C 0.89819 0.21379 0.96153 0.0
C496 C 0.85432 0.19354 0.89491 0.0
C497 C 0.85882 0.16776 0.88034 0.0
C498 C 0.82671 0.20455 0.89701 0.0
C499 C 0.82112 0.23257 0.91059 0.0
C500 C 0.80062 0.23569 0.93319 0.0
C501 C 0.79595 0.26193 0.94647 0.0
C502 C 0.81154 0.28528 0.93725 0.0
C503 C 0.8318 0.28244 0.91469 0.0
C504 C 0.83658 0.25625 0.90135 0.0
C505 C 0.76172 0.09821 0.88135 0.0
C506 C 0.74548 0.10068 0.85528 0.0
C507 C 0.78132 0.11892 0.88848 0.0
C508 C 0.78457 0.1425 0.86986 0.0
C509 C 0.76692 0.14604 0.84503 0.0
C510 C 0.74753 0.12513 0.83768 0.0
C511 C 0.80862 0.16141 0.87465 0.0
C512 C 0.80407 0.18818 0.88685 0.0
C513 C 0.83629 0.15157 0.87011 0.0
C514 C 0.84195 0.12375 0.85621 0.0
C515 C 0.83146 0.11733 0.82749 0.0
C516 C 0.83601 0.09078 0.8149 0.0
C517 C 0.85125 0.07054 0.83071 0.0
C518 C 0.86202 0.07683 0.85912 0.0
C519 C 0.85745 0.10332 0.87185 0.0
H520 H 0.85474 0.04999 0.82094 0.0
H521 H 0.80791 0.30556 0.94758 0.0
H522 H 0.86114 0.23423 0.07392 0.0
H523 H 0.82164 0.26371 0.09017 0.0
H524 H 0.87292 0.29739 0.16165 0.0
H525 H 0.91159 0.26675 0.14644 0.0
H526 H 0.82267 0.29422 0.18067 0.0
H527 H 0.86581 0.32862 0.0874 0.0
H528 H 0.87916 0.32341 0.03406 0.0
H529 H 0.79275 0.30997 0.01053 0.0
H530 H 0.77895 0.31487 0.06384 0.0
H531 H 0.80916 0.44721 0.16021 0.0
H532 H 0.81381 0.40272 0.13372 0.0
H533 H 0.74825 0.36692 0.18893 0.0
H534 H 0.7445 0.41133 0.21648 0.0
H535 H 0.79073 0.3626 0.10384 0.0
H536 H 0.76749 0.30458 0.21257 0.0
H537 H 0.76356 0.31255 0.26732 0.0
H538 H 0.8238 0.37952 0.26144 0.0
H539 H 0.82799 0.37195 0.20669 0.0
C540 C 0.86361 0.24764 0.09341 0.0
C541 C 0.88929 0.24869 0.10882 0.0
C542 C 0.84115 0.26448 0.10262 0.0
C543 C 0.84448 0.28326 0.12671 0.0
C544 C 0.86977 0.28308 0.14301 0.0
C545 C 0.89191 0.26571 0.1343 0.0
C546 C 0.82303 0.30494 0.13366 0.0
C547 C 0.81525 0.30887 0.16377 0.0
C548 C 0.81322 0.32405 0.11162 0.0
C549 C 0.82141 0.32181 0.07956 0.0
C550 C 0.84969 0.3245 0.07083 0.0
C551 C 0.85733 0.32159 0.04063 0.0
C552 C 0.83682 0.31628 0.01893 0.0
C553 C 0.80861 0.31403 0.02737 0.0
C554 C 0.80086 0.31689 0.05756 0.0
C555 C 0.79495 0.43022 0.1659 0.0
C556 C 0.77708 0.43229 0.19089 0.0
C557 C 0.7976 0.40471 0.15072 0.0
C558 C 0.78208 0.38115 0.16008 0.0
C559 C 0.76107 0.38458 0.18199 0.0
C560 C 0.7589 0.40992 0.19767 0.0
C561 C 0.79191 0.35277 0.15109 0.0
C562 C 0.79721 0.34736 0.12058 0.0
C563 C 0.80055 0.33286 0.17289 0.0
C564 C 0.79779 0.33789 0.20562 0.0
C565 C 0.77983 0.32102 0.22302 0.0
C566 C 0.77757 0.32545 0.25401 0.0
C567 C 0.79345 0.34649 0.26784 0.0
C568 C 0.81156 0.36319 0.2507 0.0
C569 C 0.8138 0.35892 0.2197 0.0
H570 H 0.79166 0.3499 0.29183 0.0
H571 H 0.84279 0.31396 0.99557 0.0
H572 H 0.57163 0.28954 0.40253 0.0
H573 H 0.61746 0.28586 0.37952 0.0
H574 H 0.65143 0.25274 0.46222 0.0
H575 H 0.60544 0.25825 0.48608 0.0
H576 H 0.6793 0.29431 0.45004 0.0
H577 H 0.65944 0.21756 0.38929 0.0
H578 H 0.6332 0.18503 0.35666 0.0
H579 H 0.62851 0.24826 0.28808 0.0
H580 H 0.65429 0.28137 0.32039 0.0
H581 H 0.7933 0.35823 0.36795 0.0
H582 H 0.76806 0.31667 0.38681 0.0
H583 H 0.6911 0.34859 0.34895 0.0
H584 H 0.71571 0.39049 0.33158 0.0
H585 H 0.70114 0.28702 0.34134 0.0
H586 H 0.70311 0.36473 0.41745 0.0
H587 H 0.72979 0.39623 0.451 0.0
H588 H 0.77058 0.32494 0.49088 0.0
H589 H 0.74431 0.29308 0.45728 0.0
C590 C 0.58857 0.28054 0.41559 0.0
C591 C 0.58512 0.27485 0.44631 0.0
C592 C 0.61494 0.27807 0.40222 0.0
C593 C 0.63824 0.26902 0.41904 0.0
C594 C 0.63394 0.26003 0.44879 0.0
C595 C 0.60764 0.26319 0.46243 0.0
C596 C 0.66702 0.27539 0.40782 0.0
C597 C 0.68454 0.29154 0.42649 0.0
C598 C 0.67446 0.27179 0.3772 0.0
C599 C 0.65896 0.25198 0.35736 0.0
C600 C 0.65273 0.22461 0.36731 0.0
C601 C 0.63792 0.20605 0.34884 0.0
C602 C 0.62923 0.21456 0.32031 0.0
C603 C 0.63534 0.24166 0.31016 0.0
C604 C 0.65014 0.26032 0.32853 0.0
C605 C 0.77104 0.35611 0.36344 0.0
C606 C 0.75654 0.37713 0.34761 0.0
C607 C 0.7568 0.33233 0.37392 0.0
C608 C 0.72792 0.32937 0.36862 0.0
C609 C 0.71357 0.35016 0.35247 0.0
C610 C 0.72765 0.37403 0.34246 0.0
C611 C 0.71132 0.30703 0.38321 0.0
C612 C 0.69638 0.28809 0.36516 0.0
C613 C 0.7065 0.30749 0.41448 0.0
C614 C 0.72206 0.32662 0.4347 0.0
C615 C 0.71791 0.35583 0.43326 0.0
C616 C 0.73293 0.37373 0.45228 0.0
C617 C 0.75194 0.3626 0.473 0.0
C618 C 0.75591 0.33353 0.47478 0.0
C619 C 0.74097 0.31556 0.45576 0.0
H620 H 0.76354 0.37648 0.48771 0.0
H621 H 0.61774 0.20016 0.30606 0.0
H622 H 0.55964 0.23091 0.61441 0.0
H623 H 0.58766 0.19262 0.63525 0.0
H624 H 0.6623 0.24377 0.62831 0.0
H625 H 0.63416 0.28207 0.60662 0.0
H626 H 0.67095 0.19079 0.60607 0.0
H627 H 0.63576 0.23131 0.69585 0.0
H628 H 0.60072 0.25143 0.73061 0.0
H629 H 0.55604 0.17304 0.73186 0.0
H630 H 0.59058 0.15255 0.69673 0.0
H631 H 0.72512 0.08854 0.7246 0.0
H632 H 0.71376 0.13253 0.69885 0.0
H633 H 0.65199 0.08914 0.64549 0.0
H634 H 0.66351 0.04499 0.67076 0.0
H635 H 0.64407 0.14233 0.70058 0.0
H636 H 0.67706 0.10781 0.60006 0.0
H637 H 0.71485 0.08935 0.56754 0.0
H638 H 0.76743 0.1592 0.59139 0.0
H639 H 0.73001 0.17782 0.6244 0.0
C640 C 0.58202 0.2339 0.61728 0.0
C641 C 0.59493 0.2591 0.6086 0.0
C642 C 0.59797 0.21218 0.62942 0.0
C643 C 0.62704 0.21542 0.63336 0.0
C644 C 0.6399 0.2409 0.62537 0.0
C645 C 0.62385 0.26274 0.61328 0.0
C646 C 0.64379 0.19166 0.645 0.0
C647 C 0.66532 0.18044 0.62696 0.0
C648 C 0.63658 0.17825 0.67231 0.0
C649 C 0.61569 0.19045 0.69346 0.0
C650 C 0.61834 0.21842 0.70334 0.0
C651 C 0.59859 0.22988 0.72315 0.0
C652 C 0.57614 0.21354 0.73339 0.0
C653 C 0.57344 0.18568 0.72389 0.0
C654 C 0.59312 0.17412 0.70406 0.0
C655 C 0.70977 0.08823 0.70672 0.0
C656 C 0.69491 0.0635 0.69994 0.0
C657 C 0.70346 0.11329 0.69193 0.0
C658 C 0.68223 0.11389 0.67023 0.0
C659 C 0.66884 0.08886 0.66181 0.0
C660 C 0.67541 0.06369 0.6763 0.0
C661 C 0.67016 0.141 0.66105 0.0
C662 C 0.64972 0.15292 0.67983 0.0
C663 C 0.67857 0.15514 0.63471 0.0
C664 C 0.70097 0.14392 0.615 0.0
C665 C 0.69682 0.11901 0.59866 0.0
C666 C 0.71812 0.10858 0.58006 0.0
C667 C 0.74358 0.12303 0.5775 0.0
C668 C 0.74774 0.14798 0.59346 0.0
C669 C 0.7265 0.15848 0.6121 0.0
H670 H 0.76004 0.11493 0.56307 0.0
H671 H 0.56087 0.22245 0.74874 0.0
H672 H 0.69551 0.52361 0.29115 0.0
H673 H 0.65589 0.5547 0.30329 0.0
H674 H 0.71384 0.61819 0.33405 0.0
H675 H 0.75351 0.58715 0.32151 0.0
H676 H 0.66455 0.61014 0.37147 0.0
H677 H 0.6912 0.62616 0.26885 0.0
H678 H 0.70278 0.61165 0.21711 0.0
H679 H 0.61983 0.57762 0.20645 0.0
H680 H 0.60795 0.59139 0.25842 0.0
H681 H 0.57 0.72055 0.37752 0.0
H682 H 0.61081 0.69671 0.35621 0.0
H683 H 0.55736 0.63069 0.32261 0.0
H684 H 0.51631 0.65435 0.34382 0.0
H685 H 0.6057 0.64179 0.28583 0.0
H686 H 0.57974 0.62437 0.38905 0.0
H687 H 0.56814 0.6389 0.44076 0.0
H688 H 0.65022 0.67499 0.45068 0.0
H689 H 0.66209 0.66142 0.39864 0.0
C690 C 0.69961 0.54402 0.30102 0.0
C691 C 0.72726 0.5532 0.30555 0.0
C692 C 0.67712 0.56173 0.30779 0.0
C693 C 0.68208 0.58874 0.3193 0.0
C694 C 0.7097 0.59739 0.32518 0.0
C695 C 0.73222 0.57977 0.31807 0.0
C696 C 0.65848 0.60847 0.32358 0.0
C697 C 0.65193 0.61742 0.35274 0.0
C698 C 0.64185 0.61748 0.29908 0.0
C699 C 0.64878 0.60955 0.26765 0.0
C700 C 0.6755 0.61536 0.25558 0.0
C701 C 0.68212 0.60729 0.22619 0.0
C702 C 0.66207 0.59367 0.20852 0.0
C703 C 0.63535 0.58814 0.22019 0.0
C704 C 0.62866 0.59607 0.24961 0.0
C705 C 0.56674 0.70145 0.36475 0.0
C706 C 0.54002 0.68891 0.36307 0.0
C707 C 0.59011 0.68788 0.35258 0.0
C708 C 0.58706 0.66167 0.33854 0.0
C709 C 0.56008 0.65084 0.33358 0.0
C710 C 0.53665 0.66436 0.34582 0.0
C711 C 0.61185 0.64357 0.3337 0.0
C712 C 0.6185 0.63475 0.3045 0.0
C713 C 0.62858 0.63463 0.3582 0.0
C714 C 0.62166 0.64227 0.38974 0.0
C715 C 0.5952 0.63577 0.40207 0.0
C716 C 0.58856 0.64383 0.43145 0.0
C717 C 0.60836 0.65799 0.44893 0.0
C718 C 0.63487 0.66408 0.43708 0.0
C719 C 0.64156 0.65625 0.40762 0.0
H720 H 0.6032 0.66411 0.47172 0.0
H721 H 0.66722 0.58746 0.18576 0.0
H722 H 0.46363 0.22347 0.54553 0.0
H723 H 0.4267 0.19128 0.56215 0.0
H724 H 0.36467 0.2564 0.54981 0.0
H725 H 0.40196 0.28892 0.53335 0.0
H726 H 0.35764 0.22502 0.60348 0.0
H727 H 0.36604 0.20876 0.49921 0.0
H728 H 0.39045 0.20146 0.45093 0.0
H729 H 0.42558 0.12432 0.48389 0.0
H730 H 0.40183 0.1314 0.53261 0.0
H731 H 0.26658 0.1055 0.63395 0.0
H732 H 0.28379 0.14575 0.60433 0.0
H733 H 0.36806 0.11271 0.6091 0.0
H734 H 0.35126 0.07317 0.63902 0.0
H735 H 0.35084 0.13346 0.5504 0.0
H736 H 0.35146 0.15841 0.65781 0.0
H737 H 0.32757 0.16614 0.70636 0.0
H738 H 0.2738 0.22765 0.66554 0.0
H739 H 0.29714 0.21992 0.6166 0.0
C740 C 0.44215 0.23095 0.54669 0.0
C741 C 0.43541 0.25841 0.538 0.0
C742 C 0.42109 0.21258 0.55595 0.0
C743 C 0.39295 0.22138 0.55664 0.0
C744 C 0.38626 0.24922 0.54914 0.0
C745 C 0.40743 0.26764 0.53971 0.0
C746 C 0.37089 0.20096 0.56493 0.0
C747 C 0.35549 0.20531 0.59143 0.0
C748 C 0.36808 0.17533 0.54907 0.0
C749 C 0.38219 0.17069 0.51966 0.0
C750 C 0.37911 0.19032 0.49625 0.0
C751 C 0.39283 0.18622 0.46879 0.0
C752 C 0.40956 0.16245 0.46435 0.0
C753 C 0.41259 0.14271 0.48736 0.0
C754 C 0.39896 0.14675 0.5149 0.0
C755 C 0.28868 0.10675 0.62824 0.0
C756 C 0.30767 0.08644 0.63881 0.0
C757 C 0.29843 0.12965 0.61144 0.0
C758 C 0.32714 0.13203 0.60461 0.0
C759 C 0.34582 0.11109 0.61407 0.0
C760 C 0.33623 0.08866 0.63128 0.0
C761 C 0.33869 0.15712 0.58955 0.0
C762 C 0.35216 0.15359 0.56178 0.0
C763 C 0.33954 0.18353 0.60409 0.0
C764 C 0.32575 0.18832 0.63351 0.0
C765 C 0.33437 0.17339 0.65914 0.0
C766 C 0.32097 0.1778 0.68673 0.0
C767 C 0.29911 0.1973 0.68902 0.0
C768 C 0.29068 0.2125 0.66372 0.0
C769 C 0.30398 0.20811 0.63606 0.0
H770 H 0.28877 0.2007 0.7104 0.0
H771 H 0.42017 0.15931 0.44307 0.0
H772 H 0.91992 0.82311 0.94427 0.0
H773 H 0.88088 0.83873 0.91339 0.0
H774 H 0.9298 0.82345 0.83325 0.0
H775 H 0.96946 0.8082 0.86423 0.0
H776 H 0.90855 0.87506 0.83336 0.0
H777 H 0.8712 0.78368 0.84875 0.0
H778 H 0.85747 0.74138 0.87719 0.0
H779 H 0.79869 0.79008 0.9288 0.0
H780 H 0.81233 0.83278 0.90099 0.0
H781 H 0.79121 0.92734 0.75144 0.0
H782 H 0.8276 0.89488 0.76912 0.0
H783 H 0.7953 0.90209 0.85953 0.0
H784 H 0.75836 0.93377 0.84167 0.0
H785 H 0.80849 0.84814 0.84572 0.0
H786 H 0.85218 0.93988 0.83676 0.0
H787 H 0.86626 0.9828 0.80954 0.0
H788 H 0.91344 0.93304 0.74664 0.0
H789 H 0.89933 0.88978 0.77331 0.0
C790 C 0.92232 0.82265 0.92006 0.0
C791 C 0.9479 0.81471 0.90669 0.0
C792 C 0.89984 0.83136 0.9024 0.0
C793 C 0.90234 0.83203 0.87099 0.0
C794 C 0.92744 0.823 0.85746 0.0
C795 C 0.95004 0.81427 0.87518 0.0
C796 C 0.87981 0.84513 0.85289 0.0
C797 C 0.88674 0.86869 0.83541 0.0
C798 C 0.85132 0.83717 0.85609 0.0
C799 C 0.84291 0.81149 0.87283 0.0
C800 C 0.85548 0.78543 0.8663 0.0
C801 C 0.84769 0.76136 0.88229 0.0
C802 C 0.82725 0.76305 0.90481 0.0
C803 C 0.81451 0.7888 0.91134 0.0
C804 C 0.82223 0.81294 0.89542 0.0
C805 C 0.79186 0.92178 0.77503 0.0
C806 C 0.77232 0.93317 0.79534 0.0
C807 C 0.81263 0.90337 0.7851 0.0
C808 C 0.81426 0.89631 0.81566 0.0
C809 C 0.79438 0.90729 0.83585 0.0
C810 C 0.77355 0.92559 0.82575 0.0
C811 C 0.83727 0.87836 0.827 0.0
C812 C 0.83039 0.854 0.84316 0.0
C813 C 0.86582 0.8856 0.8227 0.0
C814 C 0.87444 0.9116 0.8068 0.0
C815 C 0.86539 0.93809 0.81699 0.0
C816 C 0.8734 0.96247 0.80169 0.0
C817 C 0.89066 0.96064 0.77632 0.0
C818 C 0.90002 0.93442 0.76626 0.0
C819 C 0.89204 0.90997 0.78146 0.0
H820 H 0.89684 0.97953 0.7645 0.0
H821 H 0.82125 0.7444 0.91717 0.0
H822 H 0.06766 0.26322 0.08321 0.0
H823 H 0.10256 0.29633 0.1028 0.0
H824 H 0.079 0.3565 0.03469 0.0
H825 H 0.04495 0.32274 0.01439 0.0
H826 H 0.13362 0.35573 0.03986 0.0
H827 H 0.05648 0.36179 0.1091 0.0
H828 H 0.02072 0.34404 0.1445 0.0
H829 H 0.08563 0.31177 0.20176 0.0
H830 H 0.12179 0.32897 0.16645 0.0
H831 H 0.17588 0.48097 0.1192 0.0
H832 H 0.15496 0.44295 0.08982 0.0
H833 H 0.19249 0.38187 0.14895 0.0
H834 H 0.21367 0.41956 0.17828 0.0
H835 H 0.13358 0.38146 0.14787 0.0
H836 H 0.21085 0.38029 0.07883 0.0
H837 H 0.24513 0.40049 0.0433 0.0
H838 H 0.17797 0.42721 0.98577 0.0
H839 H 0.14323 0.40753 0.02118 0.0
C840 C 0.06993 0.28364 0.0727 0.0
C841 C 0.05367 0.29083 0.04768 0.0
C842 C 0.08977 0.3025 0.08381 0.0
C843 C 0.09311 0.32905 0.07045 0.0
C844 C 0.07677 0.33614 0.04533 0.0
C845 C 0.05724 0.31707 0.03393 0.0
C846 C 0.11347 0.3495 0.08282 0.0
C847 C 0.13344 0.3616 0.06342 0.0
C848 C 0.11355 0.35674 0.11366 0.0
C849 C 0.09183 0.34641 0.13496 0.0
C850 C 0.06312 0.35071 0.12912 0.0
C851 C 0.04278 0.34078 0.14919 0.0
C852 C 0.0509 0.32672 0.17532 0.0
C853 C 0.07938 0.32262 0.18148 0.0
C854 C 0.0998 0.33247 0.16145 0.0
C855 C 0.18045 0.45944 0.12538 0.0
C856 C 0.19587 0.45328 0.15147 0.0
C857 C 0.16854 0.43775 0.10851 0.0
C858 C 0.17199 0.40971 0.1175 0.0
C859 C 0.18952 0.40344 0.14182 0.0
C860 C 0.20156 0.42504 0.15856 0.0
C861 C 0.15368 0.38763 0.10496 0.0
C862 C 0.13394 0.37536 0.12436 0.0
C863 C 0.15357 0.38068 0.07412 0.0
C864 C 0.17441 0.39265 0.05283 0.0
C865 C 0.20336 0.39072 0.05876 0.0
C866 C 0.22289 0.40202 0.0386 0.0
C867 C 0.21373 0.41519 0.01233 0.0
C868 C 0.18503 0.41703 0.00614 0.0
C869 C 0.16541 0.40577 0.02623 0.0
H870 H 0.22889 0.42391 0.99674 0.0
H871 H 0.03512 0.31906 0.19084 0.0
H872 H 0.42059 0.70922 0.3967 0.0
H873 H 0.37169 0.69998 0.38438 0.0
H874 H 0.34581 0.7356 0.46933 0.0
H875 H 0.39494 0.74386 0.48222 0.0
H876 H 0.32846 0.68554 0.46668 0.0
H877 H 0.32018 0.76133 0.40018 0.0
H878 H 0.33298 0.79479 0.36018 0.0
H879 H 0.33306 0.72791 0.29539 0.0
H880 H 0.3206 0.69393 0.33501 0.0
H881 H 0.20095 0.62403 0.37638 0.0
H882 H 0.2279 0.66508 0.39379 0.0
H883 H 0.29947 0.61158 0.41006 0.0
H884 H 0.27276 0.57081 0.39251 0.0
H885 H 0.27956 0.68488 0.36841 0.0
H886 H 0.32918 0.63278 0.4744 0.0
H887 H 0.31461 0.60076 0.51509 0.0
H888 H 0.22858 0.62525 0.50285 0.0
H889 H 0.24265 0.65774 0.4624 0.0
C890 C 0.40445 0.71599 0.41231 0.0
C891 C 0.41158 0.72668 0.44069 0.0
C892 C 0.37637 0.71088 0.40515 0.0
C893 C 0.35496 0.71694 0.426 0.0
C894 C 0.36195 0.73052 0.45299 0.0
C895 C 0.39005 0.73519 0.46036 0.0
C896 C 0.32689 0.70382 0.42231 0.0
C897 C 0.31749 0.68593 0.44536 0.0
C898 C 0.31202 0.70472 0.3948 0.0
C899 C 0.31948 0.72503 0.37069 0.0
C900 C 0.32308 0.75369 0.37745 0.0
C901 C 0.33024 0.77277 0.35481 0.0
C902 C 0.33382 0.76348 0.32526 0.0
C903 C 0.33021 0.73508 0.31828 0.0
C904 C 0.32302 0.71591 0.34082 0.0
C905 C 0.22231 0.62114 0.38416 0.0
C906 C 0.23499 0.59449 0.38316 0.0
C907 C 0.23765 0.64451 0.39385 0.0
C908 C 0.26555 0.64125 0.40325 0.0
C909 C 0.27786 0.61443 0.40308 0.0
C910 C 0.26271 0.59124 0.393 0.0
C911 C 0.28276 0.6657 0.41204 0.0
C912 C 0.29008 0.68546 0.38999 0.0
C913 C 0.29552 0.66691 0.4406 0.0
C914 C 0.28699 0.64766 0.46526 0.0
C915 C 0.30717 0.6315 0.48052 0.0
C916 C 0.29899 0.61323 0.50352 0.0
C917 C 0.27068 0.61095 0.51153 0.0
C918 C 0.25049 0.62698 0.49658 0.0
C919 C 0.25856 0.64531 0.47359 0.0
H920 H 0.2644 0.59677 0.52933 0.0
H921 H 0.33938 0.77828 0.30777 0.0
H922 H 0.26082 0.91777 0.68943 0.0
H923 H 0.27445 0.87385 0.66494 0.0
H924 H 0.34041 0.9174 0.61738 0.0
H925 H 0.32682 0.96137 0.64169 0.0
H926 H 0.31999 0.86933 0.58622 0.0
H927 H 0.35534 0.89681 0.6856 0.0
H928 H 0.34656 0.91255 0.73765 0.0
H929 H 0.29774 0.83828 0.75446 0.0
H930 H 0.30597 0.8223 0.70233 0.0
H931 H 0.44581 0.77918 0.62426 0.0
H932 H 0.41069 0.8137 0.64083 0.0
H933 H 0.34669 0.76924 0.59132 0.0
H934 H 0.38196 0.73505 0.57443 0.0
H935 H 0.36003 0.81397 0.67056 0.0
H936 H 0.30768 0.81733 0.55545 0.0
H937 H 0.31798 0.80423 0.50285 0.0
H938 H 0.40564 0.8206 0.51713 0.0
H939 H 0.39586 0.83369 0.5698 0.0
C940 C 0.27758 0.91814 0.67296 0.0
C941 C 0.29338 0.94269 0.66816 0.0
C942 C 0.28522 0.8931 0.65886 0.0
C943 C 0.30888 0.89235 0.64004 0.0
C944 C 0.32216 0.91758 0.63199 0.0
C945 C 0.31439 0.94271 0.64594 0.0
C946 C 0.32342 0.86547 0.63427 0.0
C947 C 0.32834 0.85693 0.6046 0.0
C948 C 0.33476 0.84966 0.65834 0.0
C949 C 0.33112 0.85846 0.69009 0.0
C950 C 0.34276 0.88384 0.70043 0.0
C951 C 0.33785 0.89283 0.72991 0.0
C952 C 0.32158 0.87643 0.74934 0.0
C953 C 0.31034 0.85094 0.73938 0.0
C954 C 0.31514 0.8419 0.70989 0.0
C955 C 0.42405 0.77642 0.6178 0.0
C956 C 0.41627 0.7546 0.59844 0.0
C957 C 0.40406 0.79606 0.62717 0.0
C958 C 0.3762 0.79414 0.617 0.0
C959 C 0.36812 0.77119 0.59918 0.0
C960 C 0.38813 0.75164 0.58975 0.0
C961 C 0.3566 0.8177 0.62244 0.0
C962 C 0.35097 0.8258 0.65214 0.0
C963 C 0.34498 0.83331 0.59837 0.0
C964 C 0.35104 0.82626 0.56656 0.0
C965 C 0.32912 0.81821 0.5473 0.0
C966 C 0.33489 0.8107 0.51752 0.0
C967 C 0.36247 0.81143 0.50671 0.0
C968 C 0.38432 0.81986 0.5256 0.0
C969 C 0.37869 0.82727 0.55542 0.0
H970 H 0.3669 0.80553 0.48368 0.0
H971 H 0.31766 0.88349 0.7721 0.0
H972 H 0.06249 0.80581 0.91156 0.0
H973 H 0.1037 0.8079 0.8795 0.0
H974 H 0.15368 0.77024 0.94961 0.0
H975 H 0.1125 0.76927 0.98244 0.0
H976 H 0.17515 0.8168 0.93574 0.0
H977 H 0.14785 0.74 0.87628 0.0
H978 H 0.11666 0.70872 0.84745 0.0
H979 H 0.10095 0.77481 0.78404 0.0
H980 H 0.13169 0.80667 0.81269 0.0
H981 H 0.28172 0.87769 0.84648 0.0
H982 H 0.25576 0.83755 0.8673 0.0
H983 H 0.17997 0.86759 0.82503 0.0
H984 H 0.20583 0.90745 0.80422 0.0
H985 H 0.18277 0.80953 0.82486 0.0
H986 H 0.19667 0.88765 0.89601 0.0
H987 H 0.22647 0.9197 0.92571 0.0
H988 H 0.26654 0.84899 0.96755 0.0
H989 H 0.23715 0.81654 0.9378 0.0
C990 C 0.08203 0.79716 0.9199 0.0
C991 C 0.0844 0.78796 0.94977 0.0
C992 C 0.10564 0.79808 0.90134 0.0
C993 C 0.13194 0.7892 0.91205 0.0
C994 C 0.13368 0.77733 0.94088 0.0
C995 C 0.11014 0.77687 0.95966 0.0
C996 C 0.1578 0.7978 0.89579 0.0
C997 C 0.17731 0.81423 0.91161 0.0
C998 C 0.16063 0.79485 0.86425 0.0
C999 C 0.14213 0.77577 0.84673 0.0
C1000 C 0.13764 0.74795 0.85629 0.0
C1001 C 0.12004 0.73009 0.83995 0.0
C1002 C 0.10683 0.73977 0.81393 0.0
C1003 C 0.11123 0.76733 0.80417 0.0
C1004 C 0.12881 0.78528 0.82042 0.0
C1005 C 0.25964 0.87529 0.84125 0.0
C1006 C 0.24573 0.89534 0.82359 0.0
C1007 C 0.24491 0.85238 0.85298 0.0
C1008 C 0.21596 0.84965 0.84772 0.0
C1009 C 0.20238 0.86909 0.82901 0.0
C1010 C 0.21712 0.89185 0.81716 0.0
C1011 C 0.19879 0.82926 0.86481 0.0
C1012 C 0.18108 0.81082 0.84913 0.0
C1013 C 0.19751 0.83023 0.89653 0.0
C1014 C 0.21503 0.84972 0.91445 0.0
C1015 C 0.21197 0.87897 0.91141 0.0
C1016 C 0.22876 0.89719 0.92826 0.0
C1017 C 0.24846 0.88639 0.94842 0.0
C1018 C 0.25133 0.85733 0.95186 0.0
C1019 C 0.23463 0.83902 0.93501 0.0
H1020 H 0.26143 0.90052 0.96145 0.0
H1021 H 0.0932 0.72592 0.80132 0.0
H1022 H 0.14485 0.75749 0.07119 0.0
H1023 H 0.1787 0.7246 0.09275 0.0
H1024 H 0.14242 0.73768 0.18059 0.0
H1025 H 0.10826 0.77045 0.15902 0.0
H1026 H 0.20181 0.73027 0.18144 0.0
H1027 H 0.1178 0.68641 0.13956 0.0
H1028 H 0.0844 0.67759 0.09832 0.0
H1029 H 0.1512 0.64435 0.04386 0.0
H1030 H 0.18509 0.65346 0.08466 0.0
H1031 H 0.20444 0.60513 0.26392 0.0
H1032 H 0.19959 0.64944 0.23736 0.0
H1033 H 0.23082 0.61064 0.15616 0.0
H1034 H 0.23459 0.56572 0.18241 0.0
H1035 H 0.18359 0.6333 0.14533 0.0
H1036 H 0.26591 0.66713 0.19238 0.0
H1037 H 0.29917 0.67607 0.23368 0.0
H1038 H 0.23789 0.72768 0.27821 0.0
H1039 H 0.20408 0.71875 0.23741 0.0
C1040 C 0.14402 0.75327 0.09506 0.0
C1041 C 0.12324 0.76554 0.1133 0.0
C1042 C 0.16364 0.73487 0.1074 0.0
C1043 C 0.16274 0.72847 0.13814 0.0
C1044 C 0.14342 0.74239 0.15679 0.0
C1045 C 0.12382 0.76089 0.14444 0.0
C1046 C 0.17899 0.70454 0.15011 0.0
C1047 C 0.19799 0.709 0.17367 0.0
C1048 C 0.17448 0.67701 0.13921 0.0
C1049 C 0.154 0.6709 0.11499 0.0
C1050 C 0.12537 0.67737 0.11872 0.0
C1051 C 0.10636 0.67232 0.09544 0.0
C1052 C 0.11569 0.66049 0.06846 0.0
C1053 C 0.14402 0.65357 0.06475 0.0
C1054 C 0.16314 0.65867 0.08794 0.0
C1055 C 0.21094 0.60612 0.2406 0.0
C1056 C 0.21943 0.5818 0.22512 0.0
C1057 C 0.2084 0.63164 0.22545 0.0
C1058 C 0.21493 0.63349 0.19472 0.0
C1059 C 0.22557 0.6097 0.17984 0.0
C1060 C 0.22769 0.58404 0.19486 0.0
C1061 C 0.2063 0.65865 0.17739 0.0
C1062 C 0.18838 0.65449 0.15276 0.0
C1063 C 0.212 0.68637 0.18733 0.0
C1064 C 0.23238 0.69214 0.21182 0.0
C1065 C 0.25945 0.68026 0.21105 0.0
C1066 C 0.27841 0.68535 0.23437 0.0
C1067 C 0.27063 0.70239 0.25857 0.0
C1068 C 0.24389 0.71448 0.25944 0.0
C1069 C 0.22483 0.70947 0.23618 0.0
H1070 H 0.2853 0.70622 0.27665 0.0
H1071 H 0.10094 0.65662 0.05045 0.0
H1072 H 0.60774 0.03753 0.79358 0.0
H1073 H 0.55688 0.03656 0.79996 0.0
H1074 H 0.55779 0.946 0.79222 0.0
H1075 H 0.60851 0.94737 0.78324 0.0
H1076 H 0.5205 0.96241 0.75907 0.0
H1077 H 0.53936 0.98534 0.86051 0.0
H1078 H 0.56064 0.01013 0.90347 0.0
H1079 H 0.52159 0.08715 0.87566 0.0
H1080 H 0.50038 0.06295 0.83228 0.0
H1081 H 0.37267 0.96077 0.78449 0.0
H1082 H 0.42182 0.95736 0.80012 0.0
H1083 H 0.43746 0.04066 0.76589 0.0
H1084 H 0.38846 0.04411 0.74958 0.0
H1085 H 0.46409 0.02305 0.82699 0.0
H1086 H 0.45256 0.9965 0.72031 0.0
H1087 H 0.42909 0.96833 0.68115 0.0
H1088 H 0.45337 0.89235 0.7262 0.0
H1089 H 0.47664 0.92015 0.76587 0.0
C1090 C 0.59707 0.01741 0.79387 0.0
C1091 C 0.61185 0.99253 0.7879 0.0
C1092 C 0.56798 0.0168 0.79778 0.0
C1093 C 0.55329 0.99115 0.797 0.0
C1094 C 0.56848 0.96609 0.79278 0.0
C1095 C 0.59745 0.96682 0.7878 0.0
C1096 C 0.52202 0.99082 0.79701 0.0
C1097 C 0.50834 0.97519 0.77454 0.0
C1098 C 0.50576 0.00762 0.81687 0.0
C1099 C 0.51841 0.02232 0.843 0.0
C1100 C 0.53545 0.00761 0.86343 0.0
C1101 C 0.54748 0.02155 0.88788 0.0
C1102 C 0.54251 0.0502 0.89227 0.0
C1103 C 0.52543 0.06496 0.87224 0.0
C1104 C 0.51335 0.05112 0.84774 0.0
C1105 C 0.38644 0.97856 0.78073 0.0
C1106 C 0.37684 0.00262 0.76556 0.0
C1107 C 0.41443 0.97658 0.78976 0.0
C1108 C 0.43305 -0.00121 0.78418 0.0
C1109 C 0.42321 0.02343 0.77054 0.0
C1110 C 0.39535 0.02525 0.76101 0.0
C1111 C 0.46342 0.99505 0.78909 0.0
C1112 C 0.47666 0.00993 0.81223 0.0
C1113 C 0.47929 0.97702 0.77048 0.0
C1114 C 0.46607 0.96037 0.74616 0.0
C1115 C 0.45274 0.97379 0.72194 0.0
C1116 C 0.43949 0.9579 0.69965 0.0
C1117 C 0.43966 0.92856 0.70124 0.0
C1118 C 0.45321 0.91507 0.72503 0.0
C1119 C 0.46645 0.93088 0.7474 0.0
H1120 H 0.42934 0.91629 0.684 0.0
H1121 H 0.55185 0.06096 0.91121 0.0
H1122 H 0.96277 0.12087 0.03681 0.0
H1123 H 0.96987 0.07041 0.04237 0.0
H1124 H 0.0587 0.0813 0.02558 0.0
H1125 H 0.051 0.1316 0.01748 0.0
H1126 H 0.04407 0.04051 0.99589 0.0
H1127 H 0.02764 0.06258 0.09837 0.0
H1128 H 0.00393 0.08339 0.1424 0.0
H1129 H 0.93027 0.03415 0.12444 0.0
H1130 H 0.95337 0.01331 0.08005 0.0
H1131 H 0.06439 0.89478 0.041 0.0
H1132 H 0.064 0.94607 0.04696 0.0
H1133 H 0.9793 0.94904 0.01304 0.0
H1134 H 0.97976 0.89796 0.00609 0.0
H1135 H 0.99723 0.98169 0.0732 0.0
H1136 H 0.01656 0.96537 0.9655 0.0
H1137 H 0.04429 0.94434 0.92435 0.0
H1138 H 0.11907 0.98336 0.95846 0.0
H1139 H 0.0918 0.0042 0.00015 0.0
C1140 C 0.98384 0.11245 0.0347 0.0
C1141 C 0.00637 0.12992 0.02677 0.0
C1142 C 0.98797 0.08362 0.03815 0.0
C1143 C 0.01496 0.07192 0.03503 0.0
C1144 C 0.03767 0.0897 0.02809 0.0
C1145 C 0.03333 0.11841 0.02357 0.0
C1146 C 0.019 0.04096 0.03646 0.0
C1147 C 0.03428 0.02787 0.01328 0.0
C1148 C 0.00618 0.02412 0.05895 0.0
C1149 C 0.9922 0.03651 0.08574 0.0
C1150 C 0.00632 0.05631 0.10369 0.0
C1151 C 0.99299 0.0681 0.12873 0.0
C1152 C 0.9656 0.06013 0.13618 0.0
C1153 C 0.95149 0.0403 0.11864 0.0
C1154 C 0.96471 0.02846 0.09356 0.0
C1155 C 0.04565 0.90638 0.03497 0.0
C1156 C 0.02213 0.8925 0.02296 0.0
C1157 C 0.04549 0.93556 0.03838 0.0
C1158 C 0.02162 0.95107 0.03043 0.0
C1159 C -0.00215 0.93723 0.0193 0.0
C1160 C -0.00179 0.90817 0.01522 0.0
C1161 C 0.02173 0.98192 0.03257 0.0
C1162 C 0.00729 0.99475 0.05633 0.0
C1163 C 0.03593 -0.00143 0.01119 0.0
C1164 C 0.05224 0.98597 0.98617 0.0
C1165 C 0.03897 0.96915 0.96445 0.0
C1166 C 0.05459 0.95734 0.94097 0.0
C1167 C 0.08345 0.96241 0.93886 0.0
C1168 C 0.09673 0.97937 0.96018 0.0
C1169 C 0.08121 0.99118 0.98373 0.0
H1170 H 0.09549 0.95328 0.92065 0.0
H1171 H 0.95532 0.06929 0.15557 0.0
H1172 H 0.11823 0.49832 0.31944 0.0
H1173 H 0.06718 0.49203 0.32027 0.0
H1174 H 0.06738 0.47949 0.2243 0.0
H1175 H 0.11838 0.4854 0.2232 0.0
H1176 H 0.02899 0.52121 0.24618 0.0
H1177 H 0.05682 0.42516 0.26531 0.0
H1178 H 0.08192 0.38784 0.29274 0.0
H1179 H 0.03786 0.40971 0.37376 0.0
H1180 H 0.01276 0.44744 0.34688 0.0
H1181 H 0.89076 0.48377 0.21746 0.0
H1182 H 0.94181 0.48278 0.22113 0.0
H1183 H 0.93558 0.47542 0.31763 0.0
H1184 H 0.88409 0.47476 0.31379 0.0
H1185 H 0.97743 0.44492 0.29867 0.0
H1186 H 0.94913 0.53989 0.28171 0.0
H1187 H 0.92403 0.5785 0.25637 0.0
H1188 H 0.96935 0.56169 0.17477 0.0
H1189 H 0.99446 0.52272 0.19951 0.0
C1190 C 0.10744 0.49401 0.29854 0.0
C1191 C 0.12231 0.49245 0.27122 0.0
C1192 C 0.07833 0.49032 0.2991 0.0
C1193 C 0.06367 0.48527 0.27236 0.0
C1194 C 0.07844 0.48336 0.24515 0.0
C1195 C 0.10756 0.48667 0.2446 0.0
C1196 C 0.03272 0.48345 0.27244 0.0
C1197 C 0.01765 0.50437 0.25733 0.0
C1198 C 0.01814 0.46206 0.28802 0.0
C1199 C 0.03314 0.43932 0.30416 0.0
C1200 C 0.05267 0.42218 0.28904 0.0
C1201 C 0.06685 0.40091 0.30447 0.0
C1202 C 0.06155 0.39646 0.33499 0.0
C1203 C 0.04198 0.41321 0.35013 0.0
C1204 C 0.02775 0.43452 0.3348 0.0
C1205 C 0.90029 0.48177 0.23945 0.0
C1206 C 0.88361 0.47974 0.2654 0.0
C1207 C 0.92945 0.48134 0.24155 0.0
C1208 C 0.94255 0.47992 0.26973 0.0
C1209 C 0.92592 0.47679 0.29566 0.0
C1210 C 0.89659 0.47647 0.29349 0.0
C1211 C 0.97352 0.48249 0.27191 0.0
C1212 C 0.98865 0.46185 0.28758 0.0
C1213 C 0.98825 0.50448 0.25725 0.0
C1214 C 0.97353 0.52824 0.24243 0.0
C1215 C 0.95365 0.54434 0.25833 0.0
C1216 C 0.93942 0.56629 0.24407 0.0
C1217 C 0.94504 0.5725 0.21396 0.0
C1218 C 0.965 0.55684 0.19809 0.0
C1219 C 0.97926 0.53484 0.21223 0.0
H1220 H 0.93397 0.58947 0.20295 0.0
H1221 H 0.07255 0.37998 0.3469 0.0
H1222 H 0.53791 0.39916 0.5389 0.0
H1223 H 0.53898 0.45064 0.53918 0.0
H1224 H 0.52458 0.45158 0.44356 0.0
H1225 H 0.52314 0.40022 0.44304 0.0
H1226 H 0.56691 0.49085 0.46491 0.0
H1227 H 0.47102 0.4609 0.48474 0.0
H1228 H 0.43476 0.43442 0.51249 0.0
H1229 H 0.45769 0.47672 0.59409 0.0
H1230 H 0.49439 0.50317 0.56687 0.0
H1231 H 0.51278 0.62627 0.43524 0.0
H1232 H 0.52357 0.57633 0.43962 0.0
H1233 H 0.51704 0.58223 0.53619 0.0
H1234 H 0.50555 0.6321 0.53194 0.0
H1235 H 0.48895 0.53934 0.51799 0.0
H1236 H 0.58195 0.5719 0.50007 0.0
H1237 H 0.62114 0.59684 0.47544 0.0
H1238 H 0.6068 0.55051 0.39412 0.0
H1239 H 0.56745 0.52528 0.41824 0.0
C1240 C 0.53526 0.41032 0.51788 0.0
C1241 C 0.53021 0.39567 0.49098 0.0
C1242 C 0.53586 0.43967 0.51811 0.0
C1243 C 0.53175 0.45476 0.49141 0.0
C1244 C 0.52784 0.44022 0.46435 0.0
C1245 C 0.52685 0.41091 0.46416 0.0
C1246 C 0.52968 0.48572 0.49188 0.0
C1247 C 0.5498 0.50157 0.47629 0.0
C1248 C 0.50782 0.49951 0.50754 0.0
C1249 C 0.48565 0.48376 0.52385 0.0
C1250 C 0.46849 0.46437 0.50865 0.0
C1251 C 0.44783 0.4494 0.52427 0.0
C1252 C 0.44398 0.45382 0.55506 0.0
C1253 C 0.46073 0.47328 0.57026 0.0
C1254 C 0.48145 0.48827 0.55475 0.0
C1255 C 0.51382 0.61699 0.45744 0.0
C1256 C 0.50821 0.63311 0.48325 0.0
C1257 C 0.52024 0.58846 0.45992 0.0
C1258 C 0.52148 0.57557 0.48827 0.0
C1259 C 0.51623 0.59173 0.51409 0.0
C1260 C 0.50961 0.62021 0.51162 0.0
C1261 C 0.52614 0.54485 0.4908 0.0
C1262 C 0.50636 0.52888 0.50687 0.0
C1263 C 0.54858 0.53106 0.4759 0.0
C1264 C 0.57163 0.5468 0.46094 0.0
C1265 C 0.58699 0.56718 0.47686 0.0
C1266 C 0.60934 0.58125 0.46305 0.0
C1267 C 0.61653 0.57516 0.43329 0.0
C1268 C 0.60128 0.5551 0.41722 0.0
C1269 C 0.579 0.54085 0.43097 0.0
H1270 H 0.63386 0.58604 0.42266 0.0
H1271 H 0.42797 0.44222 0.56711 0.0
loop_
_geom_bond_atom_site_label_1
_geom_bond_atom_site_label_2
_geom_bond_distance
_geom_bond_site_symmetry_2
_ccdc_geom_bond_type
Co0 O3 1.970 1_545 S
Co0 N17 1.989 . S
Co0 O25 1.967 . S
Co0 O32 1.920 . S
Co1 O4 1.966 . S
Co1 N10 2.022 . S
Co1 N18 1.993 1_565 S
Co1 O26 1.941 . S
C2 O3 1.258 . S
C2 O4 1.263 . S
O3 Co0 1.970 1_565 S
O3 C2 1.258 . S
O4 Co1 1.966 . S
O4 C2 1.263 . S
C5 O6 1.235 . S
C5 O32 1.289 . S
O6 C5 1.235 . S
C7 C9 1.400 . S
C7 N10 1.351 . S
C7 C12 1.501 . S
C8 C9 1.387 . S
C8 N11 1.341 . S
C9 C7 1.400 . S
C9 C8 1.387 . S
N10 Co1 2.022 . S
N10 C7 1.351 . S
N10 N11 1.365 . S
N11 C8 1.341 . S
N11 N10 1.365 . S
N11 H31 0.862 . S
C12 C7 1.501 . S
C12 H13 0.961 . S
C12 H14 0.961 . S
C12 H15 0.960 . S
H13 C12 0.961 . S
H14 C12 0.961 . S
H15 C12 0.960 . S
C16 N17 1.342 . S
C16 C20 1.401 . S
C16 C21 1.499 . S
N17 Co0 1.989 . S
N17 C16 1.342 . S
N17 N18 1.388 . S
N18 Co1 1.993 1_545 S
N18 N17 1.388 . S
N18 C19 1.346 . S
C19 N18 1.346 . S
C19 C20 1.396 . S
C19 C29 1.510 . S
C20 C16 1.401 . S
C20 C19 1.396 . S
C21 C16 1.499 . S
C21 H22 0.959 . S
C21 H23 0.960 . S
C21 H24 0.961 . S
H22 C21 0.959 . S
H23 C21 0.960 . S
H24 C21 0.961 . S
O25 Co0 1.967 . S
O25 C33 1.251 1_545 S
O26 Co1 1.941 . S
O26 C33 1.274 . S
H27 C29 0.959 . S
H28 C29 0.961 . S
C29 C19 1.510 . S
C29 H27 0.959 . S
C29 H28 0.961 . S
C29 H30 0.960 1_545 S
H30 C29 0.960 1_565 S
H31 N11 0.862 . S
O32 Co0 1.920 . S
O32 C5 1.289 . S
C33 O25 1.251 1_565 S
C33 O26 1.274 . S
Co34 O37 1.970 1_655 S
Co34 N51 1.989 1_556 S
Co34 O59 1.950 1_556 S
Co34 O66 1.920 . S
Co35 O38 1.966 1_554 S
Co35 N44 2.022 . S
Co35 N52 1.993 1_455 S
Co35 O60 1.941 . S
C36 O37 1.258 . S
C36 O38 1.263 . S
O37 Co34 1.970 1_455 S
O37 C36 1.258 . S
O38 Co35 1.966 1_556 S
O38 C36 1.263 . S
C39 O40 1.235 . S
C39 O66 1.289 . S
O40 C39 1.235 . S
C41 C43 1.400 . S
C41 N44 1.351 . S
C41 C46 1.501 . S
C42 C43 1.387 . S
C42 N45 1.341 . S
C43 C41 1.400 . S
C43 C42 1.387 . S
N44 Co35 2.022 . S
N44 C41 1.351 . S
N44 N45 1.365 . S
N45 C42 1.341 . S
N45 N44 1.365 . S
N45 H65 0.862 . S
C46 C41 1.501 . S
C46 H47 0.961 . S
C46 H48 0.961 . S
C46 H49 0.960 . S
H47 C46 0.961 . S
H48 C46 0.961 . S
H49 C46 0.960 . S
C50 N51 1.342 . S
C50 C54 1.401 . S
C50 C55 1.499 1_554 S
N51 Co34 1.989 1_554 S
N51 C50 1.342 . S
N51 N52 1.388 . S
N52 Co35 1.993 1_655 S
N52 N51 1.388 . S
N52 C53 1.346 . S
C53 N52 1.346 . S
C53 C54 1.396 . S
C53 C63 1.510 1_655 S
C54 C50 1.401 . S
C54 C53 1.396 . S
C55 C50 1.499 1_556 S
C55 H56 0.959 . S
C55 H57 0.960 . S
C55 H58 0.961 1_556 S
H56 C55 0.959 . S
H57 C55 0.960 . S
H58 C55 0.961 1_554 S
O59 Co34 1.950 1_554 S
O59 C67 1.282 1_655 S
O60 Co35 1.941 . S
O60 C67 1.266 . S
H61 C63 0.959 1_655 S
H62 C63 0.961 . S
C63 C53 1.510 1_455 S
C63 H61 0.959 1_455 S
C63 H62 0.961 . S
C63 H64 0.960 . S
H64 C63 0.960 . S
H65 N45 0.862 . S
O66 Co34 1.920 . S
O66 C39 1.289 . S
C67 O59 1.282 1_455 S
C67 O60 1.266 . S
Co68 O71 1.970 . S
Co68 N85 1.989 . S
Co68 O93 1.967 . S
Co68 O100 1.920 . S
Co69 O72 1.966 . S
Co69 N78 2.022 . S
Co69 N86 1.993 . S
Co69 O94 1.941 . S
C70 O71 1.258 . S
C70 O72 1.263 . S
O71 Co68 1.970 . S
O71 C70 1.258 . S
O72 Co69 1.966 . S
O72 C70 1.263 . S
C73 O74 1.235 . S
C73 O100 1.289 . S
O74 C73 1.235 . S
C75 C77 1.400 . S
C75 N78 1.351 . S
C75 C80 1.501 . S
C76 C77 1.387 . S
C76 N79 1.341 . S
C77 C75 1.400 . S
C77 C76 1.387 . S
N78 Co69 2.022 . S
N78 C75 1.351 . S
N78 N79 1.365 . S
N79 C76 1.341 . S
N79 N78 1.365 . S
N79 H99 0.862 . S
C80 C75 1.501 . S
C80 H81 0.961 . S
C80 H82 0.961 . S
C80 H83 0.960 . S
H81 C80 0.961 . S
H82 C80 0.961 . S
H83 C80 0.960 . S
C84 N85 1.342 . S
C84 C88 1.401 . S
C84 C89 1.499 . S
N85 Co68 1.989 . S
N85 C84 1.342 . S
N85 N86 1.388 . S
N86 Co69 1.993 . S
N86 N85 1.388 . S
N86 C87 1.346 . S
C87 N86 1.346 . S
C87 C88 1.396 . S
C87 C97 1.510 . S
C88 C84 1.401 . S
C88 C87 1.396 . S
C89 C84 1.499 . S
C89 H90 0.959 . S
C89 H91 0.960 . S
C89 H92 0.961 . S
H90 C89 0.959 . S
H91 C89 0.960 . S
H92 C89 0.961 . S
O93 Co68 1.967 . S
O93 C101 1.258 . S
O94 Co69 1.941 . S
O94 C101 1.266 . S
H95 C97 0.959 . S
H96 C97 0.961 . S
C97 C87 1.510 . S
C97 H95 0.959 . S
C97 H96 0.961 . S
C97 H98 0.960 . S
H98 C97 0.960 . S
H99 N79 0.862 . S
O100 Co68 1.920 . S
O100 C73 1.289 . S
C101 O93 1.258 . S
C101 O94 1.266 . S
Co102 O105 1.970 . S
Co102 N119 1.989 . S
Co102 O127 1.967 . S
Co102 O134 1.920 . S
Co103 O106 1.966 . S
Co103 N112 2.022 . S
Co103 N120 1.993 . S
Co103 O128 1.941 . S
C104 O105 1.258 . S
C104 O106 1.263 . S
O105 Co102 1.970 . S
O105 C104 1.258 . S
O106 Co103 1.966 . S
O106 C104 1.263 . S
C107 O108 1.235 . S
C107 O134 1.289 . S
O108 C107 1.235 . S
C109 C111 1.400 . S
C109 N112 1.351 . S
C109 C114 1.501 . S
C110 C111 1.387 . S
C110 N113 1.341 . S
C111 C109 1.400 . S
C111 C110 1.387 . S
N112 Co103 2.022 . S
N112 C109 1.351 . S
N112 N113 1.365 . S
N113 C110 1.341 . S
N113 N112 1.365 . S
N113 H133 0.862 . S
C114 C109 1.501 . S
C114 H115 0.961 . S
C114 H116 0.961 . S
C114 H117 0.960 . S
H115 C114 0.961 . S
H116 C114 0.961 . S
H117 C114 0.960 . S
C118 N119 1.342 . S
C118 C122 1.401 . S
C118 C123 1.499 . S
N119 Co102 1.989 . S
N119 C118 1.342 . S
N119 N120 1.388 . S
N120 Co103 1.993 . S
N120 N119 1.388 . S
N120 C121 1.346 . S
C121 N120 1.346 . S
C121 C122 1.396 . S
C121 C131 1.510 . S
C122 C118 1.401 . S
C122 C121 1.396 . S
C123 C118 1.499 . S
C123 H124 0.959 . S
C123 H125 0.960 . S
C123 H126 0.961 . S
H124 C123 0.959 . S
H125 C123 0.960 . S
H126 C123 0.961 . S
O127 Co102 1.967 . S
O127 C135 1.258 . S
O128 Co103 1.941 . S
O128 C135 1.266 . S
H129 C131 0.959 . S
H130 C131 0.961 . S
C131 C121 1.510 . S
C131 H129 0.959 . S
C131 H130 0.961 . S
C131 H132 0.960 . S
H132 C131 0.960 . S
H133 N113 0.862 . S
O134 Co102 1.920 . S
O134 C107 1.289 . S
C135 O127 1.258 . S
C135 O128 1.266 . S
Co136 O139 1.970 1_565 S
Co136 N153 1.989 . S
Co136 O161 1.967 . S
Co136 O168 1.920 . S
Co137 O140 1.966 . S
Co137 N146 2.022 . S
Co137 N154 1.993 1_545 S
Co137 O162 1.941 . S
C138 O139 1.258 . S
C138 O140 1.263 . S
O139 Co136 1.970 1_545 S
O139 C138 1.258 . S
O140 Co137 1.966 . S
O140 C138 1.263 . S
C141 O142 1.235 . S
C141 O168 1.289 . S
O142 C141 1.235 . S
C143 C145 1.400 . S
C143 N146 1.351 . S
C143 C148 1.501 . S
C144 C145 1.387 . S
C144 N147 1.341 . S
C145 C143 1.400 . S
C145 C144 1.387 . S
N146 Co137 2.022 . S
N146 C143 1.351 . S
N146 N147 1.365 . S
N147 C144 1.341 . S
N147 N146 1.365 . S
N147 H167 0.862 . S
C148 C143 1.501 . S
C148 H149 0.961 . S
C148 H150 0.961 . S
C148 H151 0.960 . S
H149 C148 0.961 . S
H150 C148 0.961 . S
H151 C148 0.960 . S
C152 N153 1.342 . S
C152 C156 1.401 . S
C152 C157 1.499 . S
N153 Co136 1.989 . S
N153 C152 1.342 . S
N153 N154 1.388 . S
N154 Co137 1.993 1_565 S
N154 N153 1.388 . S
N154 C155 1.346 . S
C155 N154 1.346 . S
C155 C156 1.396 . S
C155 C165 1.510 1_565 S
C156 C152 1.401 . S
C156 C155 1.396 . S
C157 C152 1.499 . S
C157 H158 0.959 . S
C157 H159 0.960 . S
C157 H160 0.961 . S
H158 C157 0.959 . S
H159 C157 0.960 . S
H160 C157 0.961 . S
O161 Co136 1.967 . S
O161 C169 1.258 1_565 S
O162 Co137 1.941 . S
O162 C169 1.266 . S
H163 C165 0.959 1_565 S
H164 C165 0.961 . S
C165 C155 1.510 1_545 S
C165 H163 0.959 1_545 S
C165 H164 0.961 . S
C165 H166 0.960 . S
H166 C165 0.960 . S
H167 N147 0.862 . S
O168 Co136 1.920 . S
O168 C141 1.289 . S
C169 O161 1.258 1_545 S
C169 O162 1.266 . S
Co170 O173 1.970 1_455 S
Co170 N187 1.989 1_556 S
Co170 O195 1.961 1_556 S
Co170 O202 1.920 . S
Co171 O174 1.966 1_554 S
Co171 N180 2.022 . S
Co171 N188 1.993 1_655 S
Co171 O196 1.941 . S
C172 O173 1.258 . S
C172 O174 1.263 . S
O173 Co170 1.970 1_655 S
O173 C172 1.258 . S
O174 Co171 1.966 1_556 S
O174 C172 1.263 . S
C175 O176 1.235 . S
C175 O202 1.289 . S
O176 C175 1.235 . S
C177 C179 1.400 . S
C177 N180 1.351 . S
C177 C182 1.501 . S
C178 C179 1.387 . S
C178 N181 1.341 . S
C179 C177 1.400 . S
C179 C178 1.387 . S
N180 Co171 2.022 . S
N180 C177 1.351 . S
N180 N181 1.365 . S
N181 C178 1.341 . S
N181 N180 1.365 . S
N181 H201 0.862 . S
C182 C177 1.501 . S
C182 H183 0.982 . S
C182 H184 0.961 . S
C182 H185 0.960 . S
H183 C182 0.982 . S
H184 C182 0.961 . S
H185 C182 0.960 . S
C186 N187 1.342 . S
C186 C190 1.401 . S
C186 C191 1.499 1_554 S
N187 Co170 1.989 1_554 S
N187 C186 1.342 . S
N187 N188 1.388 . S
N188 Co171 1.993 1_455 S
N188 N187 1.388 . S
N188 C189 1.346 . S
C189 N188 1.346 . S
C189 C190 1.396 . S
C189 C199 1.510 . S
C190 C186 1.401 . S
C190 C189 1.396 . S
C191 C186 1.499 1_556 S
C191 H192 0.959 . S
C191 H193 0.960 . S
C191 H194 0.961 1_556 S
H192 C191 0.959 . S
H193 C191 0.960 . S
H194 C191 0.961 1_554 S
O195 Co170 1.961 1_554 S
O195 C203 1.257 1_455 S
O196 Co171 1.941 . S
O196 C203 1.276 . S
H197 C199 0.959 . S
H198 C199 0.961 . S
C199 C189 1.510 . S
C199 H197 0.959 . S
C199 H198 0.961 . S
C199 H200 0.960 1_455 S
H200 C199 0.960 1_655 S
H201 N181 0.862 . S
O202 Co170 1.920 . S
O202 C175 1.289 . S
C203 O195 1.257 1_655 S
C203 O196 1.276 . S
Co204 O207 1.970 . S
Co204 N221 1.989 . S
Co204 O229 1.967 . S
Co204 O236 1.920 . S
Co205 O208 1.966 . S
Co205 N214 2.022 . S
Co205 N222 1.993 . S
Co205 O230 1.941 . S
C206 O207 1.258 . S
C206 O208 1.263 . S
O207 Co204 1.970 . S
O207 C206 1.258 . S
O208 Co205 1.966 . S
O208 C206 1.263 . S
C209 O210 1.235 . S
C209 O236 1.289 . S
O210 C209 1.235 . S
C211 C213 1.400 . S
C211 N214 1.351 . S
C211 C216 1.501 . S
C212 C213 1.387 . S
C212 N215 1.341 . S
C213 C211 1.400 . S
C213 C212 1.387 . S
N214 Co205 2.022 . S
N214 C211 1.351 . S
N214 N215 1.365 . S
N215 C212 1.341 . S
N215 N214 1.365 . S
N215 H235 0.862 . S
C216 C211 1.501 . S
C216 H217 0.961 . S
C216 H218 0.961 . S
C216 H219 0.960 . S
H217 C216 0.961 . S
H218 C216 0.961 . S
H219 C216 0.960 . S
C220 N221 1.342 . S
C220 C224 1.401 . S
C220 C225 1.499 . S
N221 Co204 1.989 . S
N221 C220 1.342 . S
N221 N222 1.388 . S
N222 Co205 1.993 . S
N222 N221 1.388 . S
N222 C223 1.346 . S
C223 N222 1.346 . S
C223 C224 1.396 . S
C223 C233 1.510 . S
C224 C220 1.401 . S
C224 C223 1.396 . S
C225 C220 1.499 . S
C225 H226 0.959 . S
C225 H227 0.960 . S
C225 H228 0.961 . S
H226 C225 0.959 . S
H227 C225 0.960 . S
H228 C225 0.961 . S
O229 Co204 1.967 . S
O229 C237 1.258 . S
O230 Co205 1.941 . S
O230 C237 1.266 . S
H231 C233 0.959 . S
H232 C233 0.961 . S
C233 C223 1.510 . S
C233 H231 0.959 . S
C233 H232 0.961 . S
C233 H234 0.960 . S
H234 C233 0.960 . S
H235 N215 0.862 . S
O236 Co204 1.920 . S
O236 C209 1.289 . S
C237 O229 1.258 . S
C237 O230 1.266 . S
Co238 O241 1.970 . S
Co238 N255 1.989 . S
Co238 O263 1.967 . S
Co238 O270 1.920 . S
Co239 O242 1.966 . S
Co239 N248 2.022 . S
Co239 N256 1.993 . S
Co239 O264 1.941 . S
C240 O241 1.258 . S
C240 O242 1.263 . S
O241 Co238 1.970 . S
O241 C240 1.258 . S
O242 Co239 1.966 . S
O242 C240 1.263 . S
C243 O244 1.235 . S
C243 O270 1.289 . S
O244 C243 1.235 . S
C245 C247 1.400 . S
C245 N248 1.351 . S
C245 C250 1.501 . S
C246 C247 1.387 . S
C246 N249 1.341 . S
C247 C245 1.400 . S
C247 C246 1.387 . S
N248 Co239 2.022 . S
N248 C245 1.351 . S
N248 N249 1.365 . S
N249 C246 1.341 . S
N249 N248 1.365 . S
N249 H269 0.862 . S
C250 C245 1.501 . S
C250 H251 0.961 . S
C250 H252 0.961 . S
C250 H253 0.960 . S
H251 C250 0.961 . S
H252 C250 0.961 . S
H253 C250 0.960 . S
C254 N255 1.342 . S
C254 C258 1.401 . S
C254 C259 1.499 . S
N255 Co238 1.989 . S
N255 C254 1.342 . S
N255 N256 1.388 . S
N256 Co239 1.993 . S
N256 N255 1.388 . S
N256 C257 1.346 . S
C257 N256 1.346 . S
C257 C258 1.396 . S
C257 C267 1.510 . S
C258 C254 1.401 . S
C258 C257 1.396 . S
C259 C254 1.499 . S
C259 H260 0.959 . S
C259 H261 0.960 . S
C259 H262 0.961 . S
H260 C259 0.959 . S
H261 C259 0.960 . S
H262 C259 0.961 . S
O263 Co238 1.967 . S
O263 C271 1.258 . S
O264 Co239 1.941 . S
O264 C271 1.266 . S
H265 C267 0.959 . S
H266 C267 0.961 . S
C267 C257 1.510 . S
C267 H265 0.959 . S
C267 H266 0.961 . S
C267 H268 0.960 . S
H268 C267 0.960 . S
H269 N249 0.862 . S
O270 Co238 1.920 . S
O270 C243 1.289 . S
C271 O263 1.258 . S
C271 O264 1.266 . S
H272 C290 0.951 . S
H273 C292 0.951 . S
H274 C294 0.950 . S
H275 C295 0.950 . S
H276 C297 0.950 . S
H277 C300 0.950 . S
H278 C301 0.950 . S
H279 C303 0.950 1_565 S
H280 C304 0.950 . S
H281 C305 0.951 . S
H282 C307 0.951 . S
H283 C309 0.950 . S
H284 C310 0.950 . S
H285 C312 0.950 . S
H286 C315 0.950 . S
H287 C316 0.950 . S
H288 C318 0.950 . S
H289 C319 0.950 . S
C290 H272 0.951 . S
C290 C291 1.366 . S
C290 C292 1.388 . S
C291 C290 1.366 . S
C291 C295 1.385 . S
C292 H273 0.951 . S
C292 C290 1.388 . S
C292 C293 1.366 . S
C293 C292 1.366 . S
C293 C294 1.414 . S
C293 C296 1.499 . S
C294 H274 0.950 . S
C294 C293 1.414 . S
C294 C295 1.374 . S
C295 H275 0.950 . S
C295 C291 1.385 . S
C295 C294 1.374 . S
C296 C293 1.499 . S
C296 C297 1.373 . S
C296 C298 1.389 . S
C297 H276 0.950 . S
C297 C296 1.373 . S
C297 C313 1.377 . S
C298 C296 1.389 . S
C298 C299 1.524 . S
C298 C312 1.377 . S
C299 C298 1.524 . S
C299 C300 1.397 . S
C299 C304 1.363 . S
C300 H277 0.950 . S
C300 C299 1.397 . S
C300 C301 1.334 . S
C301 H278 0.950 . S
C301 C300 1.334 . S
C301 C302 1.287 . S
C302 C301 1.287 . S
C302 C303 1.524 . S
C302 H321 0.913 1_545 S
C303 H279 0.950 1_545 S
C303 C302 1.524 . S
C303 C304 1.415 . S
C304 H280 0.950 . S
C304 C299 1.363 . S
C304 C303 1.415 . S
C305 H281 0.951 . S
C305 C306 1.366 . S
C305 C307 1.388 . S
C306 C305 1.366 . S
C306 C310 1.385 . S
C307 H282 0.951 . S
C307 C305 1.388 . S
C307 C308 1.366 . S
C308 C307 1.366 . S
C308 C309 1.414 . S
C308 C311 1.499 . S
C309 H283 0.950 . S
C309 C308 1.414 . S
C309 C310 1.374 . S
C310 H284 0.950 . S
C310 C306 1.385 . S
C310 C309 1.374 . S
C311 C308 1.499 . S
C311 C312 1.373 . S
C311 C313 1.389 . S
C312 H285 0.950 . S
C312 C298 1.377 . S
C312 C311 1.373 . S
C313 C297 1.377 . S
C313 C311 1.389 . S
C313 C314 1.524 . S
C314 C313 1.524 . S
C314 C315 1.397 . S
C314 C319 1.363 . S
C315 H286 0.950 . S
C315 C314 1.397 . S
C315 C316 1.334 . S
C316 H287 0.950 . S
C316 C315 1.334 . S
C316 C317 1.287 . S
C317 C316 1.287 . S
C317 C318 1.524 . S
C317 H320 0.999 . S
C318 H288 0.950 . S
C318 C317 1.524 . S
C318 C319 1.415 . S
C319 H289 0.950 . S
C319 C314 1.363 . S
C319 C318 1.415 . S
H320 C317 0.999 . S
H321 C302 0.913 1_565 S
H322 C340 0.951 . S
H323 C342 0.951 . S
H324 C344 0.950 . S
H325 C345 0.950 . S
H326 C347 0.950 . S
H327 C350 0.950 . S
H328 C351 0.950 . S
H329 C353 0.950 . S
H330 C354 0.950 . S
H331 C355 0.951 . S
H332 C357 0.951 . S
H333 C359 0.950 . S
H334 C360 0.950 . S
H335 C362 0.950 . S
H336 C365 0.950 . S
H337 C366 0.950 . S
H338 C368 0.950 . S
H339 C369 0.950 . S
C340 H322 0.951 . S
C340 C341 1.366 . S
C340 C342 1.388 . S
C341 C340 1.366 . S
C341 C345 1.385 . S
C342 H323 0.951 . S
C342 C340 1.388 . S
C342 C343 1.366 . S
C343 C342 1.366 . S
C343 C344 1.414 . S
C343 C346 1.499 . S
C344 H324 0.950 . S
C344 C343 1.414 . S
C344 C345 1.374 . S
C345 H325 0.950 . S
C345 C341 1.385 . S
C345 C344 1.374 . S
C346 C343 1.499 . S
C346 C347 1.373 . S
C346 C348 1.389 . S
C347 H326 0.950 . S
C347 C346 1.373 . S
C347 C363 1.377 . S
C348 C346 1.389 . S
C348 C349 1.524 . S
C348 C362 1.377 . S
C349 C348 1.524 . S
C349 C350 1.397 . S
C349 C354 1.363 . S
C350 H327 0.950 . S
C350 C349 1.397 . S
C350 C351 1.334 . S
C351 H328 0.950 . S
C351 C350 1.334 . S
C351 C352 1.287 . S
C352 C351 1.287 . S
C352 C353 1.524 . S
C352 H371 0.913 . S
C353 H329 0.950 . S
C353 C352 1.524 . S
C353 C354 1.415 . S
C354 H330 0.950 . S
C354 C349 1.363 . S
C354 C353 1.415 . S
C355 H331 0.951 . S
C355 C356 1.366 . S
C355 C357 1.388 . S
C356 C355 1.366 . S
C356 C360 1.385 . S
C357 H332 0.951 . S
C357 C355 1.388 . S
C357 C358 1.366 . S
C358 C357 1.366 . S
C358 C359 1.414 . S
C358 C361 1.499 . S
C359 H333 0.950 . S
C359 C358 1.414 . S
C359 C360 1.374 . S
C360 H334 0.950 . S
C360 C356 1.385 . S
C360 C359 1.374 . S
C361 C358 1.499 . S
C361 C362 1.373 . S
C361 C363 1.389 . S
C362 H335 0.950 . S
C362 C348 1.377 . S
C362 C361 1.373 . S
C363 C347 1.377 . S
C363 C361 1.389 . S
C363 C364 1.524 . S
C364 C363 1.524 . S
C364 C365 1.397 . S
C364 C369 1.363 . S
C365 H336 0.950 . S
C365 C364 1.397 . S
C365 C366 1.334 . S
C366 H337 0.950 . S
C366 C365 1.334 . S
C366 C367 1.287 . S
C367 C366 1.287 . S
C367 C368 1.524 . S
C367 H370 0.999 . S
C368 H338 0.950 . S
C368 C367 1.524 . S
C368 C369 1.415 . S
C369 H339 0.950 . S
C369 C364 1.363 . S
C369 C368 1.415 . S
H370 C367 0.999 . S
H371 C352 0.913 . S
H372 C390 0.951 . S
H373 C392 0.951 . S
H374 C394 0.950 . S
H375 C395 0.950 . S
H376 C397 0.950 . S
H377 C400 0.950 . S
H378 C401 0.950 . S
H379 C403 0.950 . S
H380 C404 0.950 . S
H381 C405 0.951 . S
H382 C407 0.951 . S
H383 C409 0.950 . S
H384 C410 0.950 . S
H385 C412 0.950 . S
H386 C415 0.950 . S
H387 C416 0.950 . S
H388 C418 0.950 . S
H389 C419 0.950 . S
C390 H372 0.951 . S
C390 C391 1.366 . S
C390 C392 1.388 . S
C391 C390 1.366 . S
C391 C395 1.385 . S
C392 H373 0.951 . S
C392 C390 1.388 . S
C392 C393 1.366 . S
C393 C392 1.366 . S
C393 C394 1.414 . S
C393 C396 1.499 . S
C394 H374 0.950 . S
C394 C393 1.414 . S
C394 C395 1.374 . S
C395 H375 0.950 . S
C395 C391 1.385 . S
C395 C394 1.374 . S
C396 C393 1.499 . S
C396 C397 1.373 . S
C396 C398 1.389 . S
C397 H376 0.950 . S
C397 C396 1.373 . S
C397 C413 1.377 . S
C398 C396 1.389 . S
C398 C399 1.524 . S
C398 C412 1.377 . S
C399 C398 1.524 . S
C399 C400 1.397 . S
C399 C404 1.363 . S
C400 H377 0.950 . S
C400 C399 1.397 . S
C400 C401 1.334 . S
C401 H378 0.950 . S
C401 C400 1.334 . S
C401 C402 1.287 . S
C402 C401 1.287 . S
C402 C403 1.524 . S
C402 H421 0.913 . S
C403 H379 0.950 . S
C403 C402 1.524 . S
C403 C404 1.415 . S
C404 H380 0.950 . S
C404 C399 1.363 . S
C404 C403 1.415 . S
C405 H381 0.951 . S
C405 C406 1.366 . S
C405 C407 1.388 . S
C406 C405 1.366 . S
C406 C410 1.385 . S
C407 H382 0.951 . S
C407 C405 1.388 . S
C407 C408 1.366 . S
C408 C407 1.366 . S
C408 C409 1.414 . S
C408 C411 1.499 . S
C409 H383 0.950 . S
C409 C408 1.414 . S
C409 C410 1.374 . S
C410 H384 0.950 . S
C410 C406 1.385 . S
C410 C409 1.374 . S
C411 C408 1.499 . S
C411 C412 1.373 . S
C411 C413 1.389 . S
C412 H385 0.950 . S
C412 C398 1.377 . S
C412 C411 1.373 . S
C413 C397 1.377 . S
C413 C411 1.389 . S
C413 C414 1.524 . S
C414 C413 1.524 . S
C414 C415 1.397 . S
C414 C419 1.363 . S
C415 H386 0.950 . S
C415 C414 1.397 . S
C415 C416 1.334 . S
C416 H387 0.950 . S
C416 C415 1.334 . S
C416 C417 1.287 . S
C417 C416 1.287 . S
C417 C418 1.524 . S
C417 H420 0.999 . S
C418 H388 0.950 . S
C418 C417 1.524 . S
C418 C419 1.415 . S
C419 H389 0.950 . S
C419 C414 1.363 . S
C419 C418 1.415 . S
H420 C417 0.999 . S
H421 C402 0.913 . S
H422 C440 0.951 . S
H423 C442 0.951 . S
H424 C444 0.950 . S
H425 C445 0.950 . S
H426 C447 0.950 . S
H427 C450 0.950 . S
H428 C451 0.950 . S
H429 C453 0.950 . S
H430 C454 0.950 . S
H431 C455 0.951 . S
H432 C457 0.951 . S
H433 C459 0.950 . S
H434 C460 0.950 . S
H435 C462 0.950 . S
H436 C465 0.950 . S
H437 C466 0.950 . S
H438 C468 0.950 . S
H439 C469 0.950 . S
C440 H422 0.951 . S
C440 C441 1.366 . S
C440 C442 1.388 . S
C441 C440 1.366 . S
C441 C445 1.385 . S
C442 H423 0.951 . S
C442 C440 1.388 . S
C442 C443 1.366 . S
C443 C442 1.366 . S
C443 C444 1.414 . S
C443 C446 1.499 . S
C444 H424 0.950 . S
C444 C443 1.414 . S
C444 C445 1.374 . S
C445 H425 0.950 . S
C445 C441 1.385 . S
C445 C444 1.374 . S
C446 C443 1.499 . S
C446 C447 1.373 . S
C446 C448 1.389 . S
C447 H426 0.950 . S
C447 C446 1.373 . S
C447 C463 1.377 . S
C448 C446 1.389 . S
C448 C449 1.524 . S
C448 C462 1.377 . S
C449 C448 1.524 . S
C449 C450 1.397 . S
C449 C454 1.363 . S
C450 H427 0.950 . S
C450 C449 1.397 . S
C450 C451 1.334 . S
C451 H428 0.950 . S
C451 C450 1.334 . S
C451 C452 1.287 . S
C452 C451 1.287 . S
C452 C453 1.524 . S
C452 H471 0.913 . S
C453 H429 0.950 . S
C453 C452 1.524 . S
C453 C454 1.415 . S
C454 H430 0.950 . S
C454 C449 1.363 . S
C454 C453 1.415 . S
C455 H431 0.951 . S
C455 C456 1.366 . S
C455 C457 1.388 . S
C456 C455 1.366 . S
C456 C460 1.385 . S
C457 H432 0.951 . S
C457 C455 1.388 . S
C457 C458 1.366 . S
C458 C457 1.366 . S
C458 C459 1.414 . S
C458 C461 1.499 . S
C459 H433 0.950 . S
C459 C458 1.414 . S
C459 C460 1.374 . S
C460 H434 0.950 . S
C460 C456 1.385 . S
C460 C459 1.374 . S
C461 C458 1.499 . S
C461 C462 1.373 . S
C461 C463 1.389 . S
C462 H435 0.950 . S
C462 C448 1.377 . S
C462 C461 1.373 . S
C463 C447 1.377 . S
C463 C461 1.389 . S
C463 C464 1.524 . S
C464 C463 1.524 . S
C464 C465 1.397 . S
C464 C469 1.363 . S
C465 H436 0.950 . S
C465 C464 1.397 . S
C465 C466 1.334 . S
C466 H437 0.950 . S
C466 C465 1.334 . S
C466 C467 1.287 . S
C467 C466 1.287 . S
C467 C468 1.524 . S
C467 H470 0.999 . S
C468 H438 0.950 . S
C468 C467 1.524 . S
C468 C469 1.415 . S
C469 H439 0.950 . S
C469 C464 1.363 . S
C469 C468 1.415 . S
H470 C467 0.999 . S
H471 C452 0.913 . S
H472 C490 0.951 . S
H473 C492 0.951 . S
H474 C494 0.950 . S
H475 C495 0.950 . S
H476 C497 0.950 . S
H477 C500 0.950 . S
H478 C501 0.950 . S
H479 C503 0.950 . S
H480 C504 0.950 . S
H481 C505 0.951 . S
H482 C507 0.951 . S
H483 C509 0.950 . S
H484 C510 0.950 . S
H485 C512 0.950 . S
H486 C515 0.950 . S
H487 C516 0.950 . S
H488 C518 0.950 . S
H489 C519 0.950 . S
C490 H472 0.951 . S
C490 C491 1.366 . S
C490 C492 1.388 . S
C491 C490 1.366 . S
C491 C495 1.385 . S
C492 H473 0.951 . S
C492 C490 1.388 . S
C492 C493 1.366 . S
C493 C492 1.366 . S
C493 C494 1.414 . S
C493 C496 1.499 . S
C494 H474 0.950 . S
C494 C493 1.414 . S
C494 C495 1.374 . S
C495 H475 0.950 . S
C495 C491 1.385 . S
C495 C494 1.374 . S
C496 C493 1.499 . S
C496 C497 1.373 . S
C496 C498 1.389 . S
C497 H476 0.950 . S
C497 C496 1.373 . S
C497 C513 1.377 . S
C498 C496 1.389 . S
C498 C499 1.524 . S
C498 C512 1.377 . S
C499 C498 1.524 . S
C499 C500 1.397 . S
C499 C504 1.363 . S
C500 H477 0.950 . S
C500 C499 1.397 . S
C500 C501 1.334 . S
C501 H478 0.950 . S
C501 C500 1.334 . S
C501 C502 1.287 . S
C502 C501 1.287 . S
C502 C503 1.524 . S
C502 H521 0.913 . S
C503 H479 0.950 . S
C503 C502 1.524 . S
C503 C504 1.415 . S
C504 H480 0.950 . S
C504 C499 1.363 . S
C504 C503 1.415 . S
C505 H481 0.951 . S
C505 C506 1.366 . S
C505 C507 1.388 . S
C506 C505 1.366 . S
C506 C510 1.385 . S
C507 H482 0.951 . S
C507 C505 1.388 . S
C507 C508 1.366 . S
C508 C507 1.366 . S
C508 C509 1.414 . S
C508 C511 1.499 . S
C509 H483 0.950 . S
C509 C508 1.414 . S
C509 C510 1.374 . S
C510 H484 0.950 . S
C510 C506 1.385 . S
C510 C509 1.374 . S
C511 C508 1.499 . S
C511 C512 1.373 . S
C511 C513 1.389 . S
C512 H485 0.950 . S
C512 C498 1.377 . S
C512 C511 1.373 . S
C513 C497 1.377 . S
C513 C511 1.389 . S
C513 C514 1.524 . S
C514 C513 1.524 . S
C514 C515 1.397 . S
C514 C519 1.363 . S
C515 H486 0.950 . S
C515 C514 1.397 . S
C515 C516 1.334 . S
C516 H487 0.950 . S
C516 C515 1.334 . S
C516 C517 1.287 . S
C517 C516 1.287 . S
C517 C518 1.524 . S
C517 H520 0.999 . S
C518 H488 0.950 . S
C518 C517 1.524 . S
C518 C519 1.415 . S
C519 H489 0.950 . S
C519 C514 1.363 . S
C519 C518 1.415 . S
H520 C517 0.999 . S
H521 C502 0.913 . S
H522 C540 0.951 . S
H523 C542 0.951 . S
H524 C544 0.950 . S
H525 C545 0.950 . S
H526 C547 0.950 . S
H527 C550 0.950 . S
H528 C551 0.950 . S
H529 C553 0.950 . S
H530 C554 0.950 . S
H531 C555 0.951 . S
H532 C557 0.951 . S
H533 C559 0.950 . S
H534 C560 0.950 . S
H535 C562 0.950 . S
H536 C565 0.950 . S
H537 C566 0.950 . S
H538 C568 0.950 . S
H539 C569 0.950 . S
C540 H522 0.951 . S
C540 C541 1.366 . S
C540 C542 1.388 . S
C541 C540 1.366 . S
C541 C545 1.385 . S
C542 H523 0.951 . S
C542 C540 1.388 . S
C542 C543 1.366 . S
C543 C542 1.366 . S
C543 C544 1.414 . S
C543 C546 1.499 . S
C544 H524 0.950 . S
C544 C543 1.414 . S
C544 C545 1.374 . S
C545 H525 0.950 . S
C545 C541 1.385 . S
C545 C544 1.374 . S
C546 C543 1.499 . S
C546 C547 1.373 . S
C546 C548 1.389 . S
C547 H526 0.950 . S
C547 C546 1.373 . S
C547 C563 1.377 . S
C548 C546 1.389 . S
C548 C549 1.524 . S
C548 C562 1.377 . S
C549 C548 1.524 . S
C549 C550 1.397 . S
C549 C554 1.363 . S
C550 H527 0.950 . S
C550 C549 1.397 . S
C550 C551 1.334 . S
C551 H528 0.950 . S
C551 C550 1.334 . S
C551 C552 1.287 . S
C552 C551 1.287 . S
C552 C553 1.524 . S
C552 H571 0.913 1_554 S
C553 H529 0.950 . S
C553 C552 1.524 . S
C553 C554 1.415 . S
C554 H530 0.950 . S
C554 C549 1.363 . S
C554 C553 1.415 . S
C555 H531 0.951 . S
C555 C556 1.366 . S
C555 C557 1.388 . S
C556 C555 1.366 . S
C556 C560 1.385 . S
C557 H532 0.951 . S
C557 C555 1.388 . S
C557 C558 1.366 . S
C558 C557 1.366 . S
C558 C559 1.414 . S
C558 C561 1.499 . S
C559 H533 0.950 . S
C559 C558 1.414 . S
C559 C560 1.374 . S
C560 H534 0.950 . S
C560 C556 1.385 . S
C560 C559 1.374 . S
C561 C558 1.499 . S
C561 C562 1.373 . S
C561 C563 1.389 . S
C562 H535 0.950 . S
C562 C548 1.377 . S
C562 C561 1.373 . S
C563 C547 1.377 . S
C563 C561 1.389 . S
C563 C564 1.524 . S
C564 C563 1.524 . S
C564 C565 1.397 . S
C564 C569 1.363 . S
C565 H536 0.950 . S
C565 C564 1.397 . S
C565 C566 1.334 . S
C566 H537 0.950 . S
C566 C565 1.334 . S
C566 C567 1.287 . S
C567 C566 1.287 . S
C567 C568 1.524 . S
C567 H570 0.999 . S
C568 H538 0.950 . S
C568 C567 1.524 . S
C568 C569 1.415 . S
C569 H539 0.950 . S
C569 C564 1.363 . S
C569 C568 1.415 . S
H570 C567 0.999 . S
H571 C552 0.913 1_556 S
H572 C590 0.951 . S
H573 C592 0.951 . S
H574 C594 0.950 . S
H575 C595 0.950 . S
H576 C597 0.950 . S
H577 C600 0.950 . S
H578 C601 0.950 . S
H579 C603 0.950 . S
H580 C604 0.950 . S
H581 C605 0.951 . S
H582 C607 0.951 . S
H583 C609 0.950 . S
H584 C610 0.950 . S
H585 C612 0.950 . S
H586 C615 0.950 . S
H587 C616 0.950 . S
H588 C618 0.950 . S
H589 C619 0.950 . S
C590 H572 0.951 . S
C590 C591 1.366 . S
C590 C592 1.388 . S
C591 C590 1.366 . S
C591 C595 1.385 . S
C592 H573 0.951 . S
C592 C590 1.388 . S
C592 C593 1.366 . S
C593 C592 1.366 . S
C593 C594 1.414 . S
C593 C596 1.499 . S
C594 H574 0.950 . S
C594 C593 1.414 . S
C594 C595 1.374 . S
C595 H575 0.950 . S
C595 C591 1.385 . S
C595 C594 1.374 . S
C596 C593 1.499 . S
C596 C597 1.373 . S
C596 C598 1.389 . S
C597 H576 0.950 . S
C597 C596 1.373 . S
C597 C613 1.377 . S
C598 C596 1.389 . S
C598 C599 1.524 . S
C598 C612 1.377 . S
C599 C598 1.524 . S
C599 C600 1.397 . S
C599 C604 1.363 . S
C600 H577 0.950 . S
C600 C599 1.397 . S
C600 C601 1.334 . S
C601 H578 0.950 . S
C601 C600 1.334 . S
C601 C602 1.287 . S
C602 C601 1.287 . S
C602 C603 1.524 . S
C602 H621 0.913 . S
C603 H579 0.950 . S
C603 C602 1.524 . S
C603 C604 1.415 . S
C604 H580 0.950 . S
C604 C599 1.363 . S
C604 C603 1.415 . S
C605 H581 0.951 . S
C605 C606 1.366 . S
C605 C607 1.388 . S
C606 C605 1.366 . S
C606 C610 1.385 . S
C607 H582 0.951 . S
C607 C605 1.388 . S
C607 C608 1.366 . S
C608 C607 1.366 . S
C608 C609 1.414 . S
C608 C611 1.499 . S
C609 H583 0.950 . S
C609 C608 1.414 . S
C609 C610 1.374 . S
C610 H584 0.950 . S
C610 C606 1.385 . S
C610 C609 1.374 . S
C611 C608 1.499 . S
C611 C612 1.373 . S
C611 C613 1.389 . S
C612 H585 0.950 . S
C612 C598 1.377 . S
C612 C611 1.373 . S
C613 C597 1.377 . S
C613 C611 1.389 . S
C613 C614 1.524 . S
C614 C613 1.524 . S
C614 C615 1.397 . S
C614 C619 1.363 . S
C615 H586 0.950 . S
C615 C614 1.397 . S
C615 C616 1.334 . S
C616 H587 0.950 . S
C616 C615 1.334 . S
C616 C617 1.287 . S
C617 C616 1.287 . S
C617 C618 1.524 . S
C617 H620 0.999 . S
C618 H588 0.950 . S
C618 C617 1.524 . S
C618 C619 1.415 . S
C619 H589 0.950 . S
C619 C614 1.363 . S
C619 C618 1.415 . S
H620 C617 0.999 . S
H621 C602 0.913 . S
H622 C640 0.951 . S
H623 C642 0.951 . S
H624 C644 0.950 . S
H625 C645 0.950 . S
H626 C647 0.950 . S
H627 C650 0.950 . S
H628 C651 0.950 . S
H629 C653 0.950 . S
H630 C654 0.950 . S
H631 C655 0.951 . S
H632 C657 0.951 . S
H633 C659 0.950 . S
H634 C660 0.950 . S
H635 C662 0.950 . S
H636 C665 0.950 . S
H637 C666 0.950 . S
H638 C668 0.950 . S
H639 C669 0.950 . S
C640 H622 0.951 . S
C640 C641 1.366 . S
C640 C642 1.388 . S
C641 C640 1.366 . S
C641 C645 1.385 . S
C642 H623 0.951 . S
C642 C640 1.388 . S
C642 C643 1.366 . S
C643 C642 1.366 . S
C643 C644 1.414 . S
C643 C646 1.499 . S
C644 H624 0.950 . S
C644 C643 1.414 . S
C644 C645 1.374 . S
C645 H625 0.950 . S
C645 C641 1.385 . S
C645 C644 1.374 . S
C646 C643 1.499 . S
C646 C647 1.373 . S
C646 C648 1.389 . S
C647 H626 0.950 . S
C647 C646 1.373 . S
C647 C663 1.377 . S
C648 C646 1.389 . S
C648 C649 1.524 . S
C648 C662 1.377 . S
C649 C648 1.524 . S
C649 C650 1.397 . S
C649 C654 1.363 . S
C650 H627 0.950 . S
C650 C649 1.397 . S
C650 C651 1.334 . S
C651 H628 0.950 . S
C651 C650 1.334 . S
C651 C652 1.287 . S
C652 C651 1.287 . S
C652 C653 1.524 . S
C652 H671 0.913 . S
C653 H629 0.950 . S
C653 C652 1.524 . S
C653 C654 1.415 . S
C654 H630 0.950 . S
C654 C649 1.363 . S
C654 C653 1.415 . S
C655 H631 0.951 . S
C655 C656 1.366 . S
C655 C657 1.388 . S
C656 C655 1.366 . S
C656 C660 1.385 . S
C657 H632 0.951 . S
C657 C655 1.388 . S
C657 C658 1.366 . S
C658 C657 1.366 . S
C658 C659 1.414 . S
C658 C661 1.499 . S
C659 H633 0.950 . S
C659 C658 1.414 . S
C659 C660 1.374 . S
C660 H634 0.950 . S
C660 C656 1.385 . S
C660 C659 1.374 . S
C661 C658 1.499 . S
C661 C662 1.373 . S
C661 C663 1.389 . S
C662 H635 0.950 . S
C662 C648 1.377 . S
C662 C661 1.373 . S
C663 C647 1.377 . S
C663 C661 1.389 . S
C663 C664 1.524 . S
C664 C663 1.524 . S
C664 C665 1.397 . S
C664 C669 1.363 . S
C665 H636 0.950 . S
C665 C664 1.397 . S
C665 C666 1.334 . S
C666 H637 0.950 . S
C666 C665 1.334 . S
C666 C667 1.287 . S
C667 C666 1.287 . S
C667 C668 1.524 . S
C667 H670 0.999 . S
C668 H638 0.950 . S
C668 C667 1.524 . S
C668 C669 1.415 . S
C669 H639 0.950 . S
C669 C664 1.363 . S
C669 C668 1.415 . S
H670 C667 0.999 . S
H671 C652 0.913 . S
H672 C690 0.951 . S
H673 C692 0.951 . S
H674 C694 0.950 . S
H675 C695 0.950 . S
H676 C697 0.950 . S
H677 C700 0.950 . S
H678 C701 0.950 . S
H679 C703 0.950 . S
H680 C704 0.950 . S
H681 C705 0.951 . S
H682 C707 0.951 . S
H683 C709 0.950 . S
H684 C710 0.950 . S
H685 C712 0.950 . S
H686 C715 0.950 . S
H687 C716 0.950 . S
H688 C718 0.950 . S
H689 C719 0.950 . S
C690 H672 0.951 . S
C690 C691 1.366 . S
C690 C692 1.388 . S
C691 C690 1.366 . S
C691 C695 1.385 . S
C692 H673 0.951 . S
C692 C690 1.388 . S
C692 C693 1.366 . S
C693 C692 1.366 . S
C693 C694 1.414 . S
C693 C696 1.499 . S
C694 H674 0.950 . S
C694 C693 1.414 . S
C694 C695 1.374 . S
C695 H675 0.950 . S
C695 C691 1.385 . S
C695 C694 1.374 . S
C696 C693 1.499 . S
C696 C697 1.373 . S
C696 C698 1.389 . S
C697 H676 0.950 . S
C697 C696 1.373 . S
C697 C713 1.377 . S
C698 C696 1.389 . S
C698 C699 1.524 . S
C698 C712 1.377 . S
C699 C698 1.524 . S
C699 C700 1.397 . S
C699 C704 1.363 . S
C700 H677 0.950 . S
C700 C699 1.397 . S
C700 C701 1.334 . S
C701 H678 0.950 . S
C701 C700 1.334 . S
C701 C702 1.287 . S
C702 C701 1.287 . S
C702 C703 1.524 . S
C702 H721 0.913 . S
C703 H679 0.950 . S
C703 C702 1.524 . S
C703 C704 1.415 . S
C704 H680 0.950 . S
C704 C699 1.363 . S
C704 C703 1.415 . S
C705 H681 0.951 . S
C705 C706 1.366 . S
C705 C707 1.388 . S
C706 C705 1.366 . S
C706 C710 1.385 . S
C707 H682 0.951 . S
C707 C705 1.388 . S
C707 C708 1.366 . S
C708 C707 1.366 . S
C708 C709 1.414 . S
C708 C711 1.499 . S
C709 H683 0.950 . S
C709 C708 1.414 . S
C709 C710 1.374 . S
C710 H684 0.950 . S
C710 C706 1.385 . S
C710 C709 1.374 . S
C711 C708 1.499 . S
C711 C712 1.373 . S
C711 C713 1.389 . S
C712 H685 0.950 . S
C712 C698 1.377 . S
C712 C711 1.373 . S
C713 C697 1.377 . S
C713 C711 1.389 . S
C713 C714 1.524 . S
C714 C713 1.524 . S
C714 C715 1.397 . S
C714 C719 1.363 . S
C715 H686 0.950 . S
C715 C714 1.397 . S
C715 C716 1.334 . S
C716 H687 0.950 . S
C716 C715 1.334 . S
C716 C717 1.287 . S
C717 C716 1.287 . S
C717 C718 1.524 . S
C717 H720 0.999 . S
C718 H688 0.950 . S
C718 C717 1.524 . S
C718 C719 1.415 . S
C719 H689 0.950 . S
C719 C714 1.363 . S
C719 C718 1.415 . S
H720 C717 0.999 . S
H721 C702 0.913 . S
H722 C740 0.951 . S
H723 C742 0.951 . S
H724 C744 0.950 . S
H725 C745 0.950 . S
H726 C747 0.950 . S
H727 C750 0.950 . S
H728 C751 0.950 . S
H729 C753 0.950 . S
H730 C754 0.950 . S
H731 C755 0.951 . S
H732 C757 0.951 . S
H733 C759 0.950 . S
H734 C760 0.950 . S
H735 C762 0.950 . S
H736 C765 0.950 . S
H737 C766 0.950 . S
H738 C768 0.950 . S
H739 C769 0.950 . S
C740 H722 0.951 . S
C740 C741 1.366 . S
C740 C742 1.388 . S
C741 C740 1.366 . S
C741 C745 1.385 . S
C742 H723 0.951 . S
C742 C740 1.388 . S
C742 C743 1.366 . S
C743 C742 1.366 . S
C743 C744 1.414 . S
C743 C746 1.499 . S
C744 H724 0.950 . S
C744 C743 1.414 . S
C744 C745 1.374 . S
C745 H725 0.950 . S
C745 C741 1.385 . S
C745 C744 1.374 . S
C746 C743 1.499 . S
C746 C747 1.373 . S
C746 C748 1.389 . S
C747 H726 0.950 . S
C747 C746 1.373 . S
C747 C763 1.377 . S
C748 C746 1.389 . S
C748 C749 1.524 . S
C748 C762 1.377 . S
C749 C748 1.524 . S
C749 C750 1.397 . S
C749 C754 1.363 . S
C750 H727 0.950 . S
C750 C749 1.397 . S
C750 C751 1.334 . S
C751 H728 0.950 . S
C751 C750 1.334 . S
C751 C752 1.287 . S
C752 C751 1.287 . S
C752 C753 1.524 . S
C752 H771 0.913 . S
C753 H729 0.950 . S
C753 C752 1.524 . S
C753 C754 1.415 . S
C754 H730 0.950 . S
C754 C749 1.363 . S
C754 C753 1.415 . S
C755 H731 0.951 . S
C755 C756 1.366 . S
C755 C757 1.388 . S
C756 C755 1.366 . S
C756 C760 1.385 . S
C757 H732 0.951 . S
C757 C755 1.388 . S
C757 C758 1.366 . S
C758 C757 1.366 . S
C758 C759 1.414 . S
C758 C761 1.499 . S
C759 H733 0.950 . S
C759 C758 1.414 . S
C759 C760 1.374 . S
C760 H734 0.950 . S
C760 C756 1.385 . S
C760 C759 1.374 . S
C761 C758 1.499 . S
C761 C762 1.373 . S
C761 C763 1.389 . S
C762 H735 0.950 . S
C762 C748 1.377 . S
C762 C761 1.373 . S
C763 C747 1.377 . S
C763 C761 1.389 . S
C763 C764 1.524 . S
C764 C763 1.524 . S
C764 C765 1.397 . S
C764 C769 1.363 . S
C765 H736 0.950 . S
C765 C764 1.397 . S
C765 C766 1.334 . S
C766 H737 0.950 . S
C766 C765 1.334 . S
C766 C767 1.287 . S
C767 C766 1.287 . S
C767 C768 1.524 . S
C767 H770 0.999 . S
C768 H738 0.950 . S
C768 C767 1.524 . S
C768 C769 1.415 . S
C769 H739 0.950 . S
C769 C764 1.363 . S
C769 C768 1.415 . S
H770 C767 0.999 . S
H771 C752 0.913 . S
H772 C790 0.951 . S
H773 C792 0.951 . S
H774 C794 0.950 . S
H775 C795 0.950 . S
H776 C797 0.950 . S
H777 C800 0.950 . S
H778 C801 0.950 . S
H779 C803 0.950 . S
H780 C804 0.950 . S
H781 C805 0.951 . S
H782 C807 0.951 . S
H783 C809 0.950 . S
H784 C810 0.950 . S
H785 C812 0.950 . S
H786 C815 0.950 . S
H787 C816 0.950 . S
H788 C818 0.950 . S
H789 C819 0.950 . S
C790 H772 0.951 . S
C790 C791 1.366 . S
C790 C792 1.388 . S
C791 C790 1.366 . S
C791 C795 1.385 . S
C792 H773 0.951 . S
C792 C790 1.388 . S
C792 C793 1.366 . S
C793 C792 1.366 . S
C793 C794 1.414 . S
C793 C796 1.499 . S
C794 H774 0.950 . S
C794 C793 1.414 . S
C794 C795 1.374 . S
C795 H775 0.950 . S
C795 C791 1.385 . S
C795 C794 1.374 . S
C796 C793 1.499 . S
C796 C797 1.373 . S
C796 C798 1.389 . S
C797 H776 0.950 . S
C797 C796 1.373 . S
C797 C813 1.377 . S
C798 C796 1.389 . S
C798 C799 1.524 . S
C798 C812 1.377 . S
C799 C798 1.524 . S
C799 C800 1.397 . S
C799 C804 1.363 . S
C800 H777 0.950 . S
C800 C799 1.397 . S
C800 C801 1.334 . S
C801 H778 0.950 . S
C801 C800 1.334 . S
C801 C802 1.287 . S
C802 C801 1.287 . S
C802 C803 1.524 . S
C802 H821 0.913 . S
C803 H779 0.950 . S
C803 C802 1.524 . S
C803 C804 1.415 . S
C804 H780 0.950 . S
C804 C799 1.363 . S
C804 C803 1.415 . S
C805 H781 0.951 . S
C805 C806 1.366 . S
C805 C807 1.388 . S
C806 C805 1.366 . S
C806 C810 1.385 . S
C807 H782 0.951 . S
C807 C805 1.388 . S
C807 C808 1.366 . S
C808 C807 1.366 . S
C808 C809 1.414 . S
C808 C811 1.499 . S
C809 H783 0.950 . S
C809 C808 1.414 . S
C809 C810 1.374 . S
C810 H784 0.950 . S
C810 C806 1.385 . S
C810 C809 1.374 . S
C811 C808 1.499 . S
C811 C812 1.373 . S
C811 C813 1.389 . S
C812 H785 0.950 . S
C812 C798 1.377 . S
C812 C811 1.373 . S
C813 C797 1.377 . S
C813 C811 1.389 . S
C813 C814 1.524 . S
C814 C813 1.524 . S
C814 C815 1.397 . S
C814 C819 1.363 . S
C815 H786 0.950 . S
C815 C814 1.397 . S
C815 C816 1.334 . S
C816 H787 0.950 . S
C816 C815 1.334 . S
C816 C817 1.287 . S
C817 C816 1.287 . S
C817 C818 1.524 . S
C817 H820 0.999 . S
C818 H788 0.950 . S
C818 C817 1.524 . S
C818 C819 1.415 . S
C819 H789 0.950 . S
C819 C814 1.363 . S
C819 C818 1.415 . S
H820 C817 0.999 . S
H821 C802 0.913 . S
H822 C840 0.951 . S
H823 C842 0.951 . S
H824 C844 0.950 . S
H825 C845 0.950 . S
H826 C847 0.950 . S
H827 C850 0.950 . S
H828 C851 0.950 . S
H829 C853 0.950 . S
H830 C854 0.950 . S
H831 C855 0.951 . S
H832 C857 0.951 . S
H833 C859 0.950 . S
H834 C860 0.950 . S
H835 C862 0.950 . S
H836 C865 0.950 . S
H837 C866 0.950 . S
H838 C868 0.950 . S
H839 C869 0.950 . S
C840 H822 0.951 . S
C840 C841 1.366 . S
C840 C842 1.388 . S
C841 C840 1.366 . S
C841 C845 1.385 . S
C842 H823 0.951 . S
C842 C840 1.388 . S
C842 C843 1.366 . S
C843 C842 1.366 . S
C843 C844 1.414 . S
C843 C846 1.499 . S
C844 H824 0.950 . S
C844 C843 1.414 . S
C844 C845 1.374 . S
C845 H825 0.950 . S
C845 C841 1.385 . S
C845 C844 1.374 . S
C846 C843 1.499 . S
C846 C847 1.373 . S
C846 C848 1.389 . S
C847 H826 0.950 . S
C847 C846 1.373 . S
C847 C863 1.377 . S
C848 C846 1.389 . S
C848 C849 1.524 . S
C848 C862 1.377 . S
C849 C848 1.524 . S
C849 C850 1.397 . S
C849 C854 1.363 . S
C850 H827 0.950 . S
C850 C849 1.397 . S
C850 C851 1.334 . S
C851 H828 0.950 . S
C851 C850 1.334 . S
C851 C852 1.287 . S
C852 C851 1.287 . S
C852 C853 1.524 . S
C852 H871 0.913 . S
C853 H829 0.950 . S
C853 C852 1.524 . S
C853 C854 1.415 . S
C854 H830 0.950 . S
C854 C849 1.363 . S
C854 C853 1.415 . S
C855 H831 0.951 . S
C855 C856 1.366 . S
C855 C857 1.388 . S
C856 C855 1.366 . S
C856 C860 1.385 . S
C857 H832 0.951 . S
C857 C855 1.388 . S
C857 C858 1.366 . S
C858 C857 1.366 . S
C858 C859 1.414 . S
C858 C861 1.499 . S
C859 H833 0.950 . S
C859 C858 1.414 . S
C859 C860 1.374 . S
C860 H834 0.950 . S
C860 C856 1.385 . S
C860 C859 1.374 . S
C861 C858 1.499 . S
C861 C862 1.373 . S
C861 C863 1.389 . S
C862 H835 0.950 . S
C862 C848 1.377 . S
C862 C861 1.373 . S
C863 C847 1.377 . S
C863 C861 1.389 . S
C863 C864 1.524 . S
C864 C863 1.524 . S
C864 C865 1.397 . S
C864 C869 1.363 . S
C865 H836 0.950 . S
C865 C864 1.397 . S
C865 C866 1.334 . S
C866 H837 0.950 . S
C866 C865 1.334 . S
C866 C867 1.287 . S
C867 C866 1.287 . S
C867 C868 1.524 . S
C867 H870 0.999 . S
C868 H838 0.950 . S
C868 C867 1.524 . S
C868 C869 1.415 . S
C869 H839 0.950 . S
C869 C864 1.363 . S
C869 C868 1.415 . S
H870 C867 0.999 . S
H871 C852 0.913 . S
H872 C890 0.951 . S
H873 C892 0.951 . S
H874 C894 0.950 . S
H875 C895 0.950 . S
H876 C897 0.950 . S
H877 C900 0.950 . S
H878 C901 0.950 . S
H879 C903 0.950 . S
H880 C904 0.950 . S
H881 C905 0.951 . S
H882 C907 0.951 . S
H883 C909 0.950 . S
H884 C910 0.950 . S
H885 C912 0.950 . S
H886 C915 0.950 . S
H887 C916 0.950 . S
H888 C918 0.950 . S
H889 C919 0.950 . S
C890 H872 0.951 . S
C890 C891 1.366 . S
C890 C892 1.388 . S
C891 C890 1.366 . S
C891 C895 1.385 . S
C892 H873 0.951 . S
C892 C890 1.388 . S
C892 C893 1.366 . S
C893 C892 1.366 . S
C893 C894 1.414 . S
C893 C896 1.499 . S
C894 H874 0.950 . S
C894 C893 1.414 . S
C894 C895 1.374 . S
C895 H875 0.950 . S
C895 C891 1.385 . S
C895 C894 1.374 . S
C896 C893 1.499 . S
C896 C897 1.373 . S
C896 C898 1.389 . S
C897 H876 0.950 . S
C897 C896 1.373 . S
C897 C913 1.377 . S
C898 C896 1.389 . S
C898 C899 1.524 . S
C898 C912 1.377 . S
C899 C898 1.524 . S
C899 C900 1.397 . S
C899 C904 1.363 . S
C900 H877 0.950 . S
C900 C899 1.397 . S
C900 C901 1.334 . S
C901 H878 0.950 . S
C901 C900 1.334 . S
C901 C902 1.287 . S
C902 C901 1.287 . S
C902 C903 1.524 . S
C902 H921 0.913 . S
C903 H879 0.950 . S
C903 C902 1.524 . S
C903 C904 1.415 . S
C904 H880 0.950 . S
C904 C899 1.363 . S
C904 C903 1.415 . S
C905 H881 0.951 . S
C905 C906 1.366 . S
C905 C907 1.388 . S
C906 C905 1.366 . S
C906 C910 1.385 . S
C907 H882 0.951 . S
C907 C905 1.388 . S
C907 C908 1.366 . S
C908 C907 1.366 . S
C908 C909 1.414 . S
C908 C911 1.499 . S
C909 H883 0.950 . S
C909 C908 1.414 . S
C909 C910 1.374 . S
C910 H884 0.950 . S
C910 C906 1.385 . S
C910 C909 1.374 . S
C911 C908 1.499 . S
C911 C912 1.373 . S
C911 C913 1.389 . S
C912 H885 0.950 . S
C912 C898 1.377 . S
C912 C911 1.373 . S
C913 C897 1.377 . S
C913 C911 1.389 . S
C913 C914 1.524 . S
C914 C913 1.524 . S
C914 C915 1.397 . S
C914 C919 1.363 . S
C915 H886 0.950 . S
C915 C914 1.397 . S
C915 C916 1.334 . S
C916 H887 0.950 . S
C916 C915 1.334 . S
C916 C917 1.287 . S
C917 C916 1.287 . S
C917 C918 1.524 . S
C917 H920 0.999 . S
C918 H888 0.950 . S
C918 C917 1.524 . S
C918 C919 1.415 . S
C919 H889 0.950 . S
C919 C914 1.363 . S
C919 C918 1.415 . S
H920 C917 0.999 . S
H921 C902 0.913 . S
H922 C940 0.951 . S
H923 C942 0.951 . S
H924 C944 0.950 . S
H925 C945 0.950 . S
H926 C947 0.950 . S
H927 C950 0.950 . S
H928 C951 0.950 . S
H929 C953 0.950 . S
H930 C954 0.950 . S
H931 C955 0.951 . S
H932 C957 0.951 . S
H933 C959 0.950 . S
H934 C960 0.950 . S
H935 C962 0.950 . S
H936 C965 0.950 . S
H937 C966 0.950 . S
H938 C968 0.950 . S
H939 C969 0.950 . S
C940 H922 0.951 . S
C940 C941 1.366 . S
C940 C942 1.388 . S
C941 C940 1.366 . S
C941 C945 1.385 . S
C942 H923 0.951 . S
C942 C940 1.388 . S
C942 C943 1.366 . S
C943 C942 1.366 . S
C943 C944 1.414 . S
C943 C946 1.499 . S
C944 H924 0.950 . S
C944 C943 1.414 . S
C944 C945 1.374 . S
C945 H925 0.950 . S
C945 C941 1.385 . S
C945 C944 1.374 . S
C946 C943 1.499 . S
C946 C947 1.373 . S
C946 C948 1.389 . S
C947 H926 0.950 . S
C947 C946 1.373 . S
C947 C963 1.377 . S
C948 C946 1.389 . S
C948 C949 1.524 . S
C948 C962 1.377 . S
C949 C948 1.524 . S
C949 C950 1.397 . S
C949 C954 1.363 . S
C950 H927 0.950 . S
C950 C949 1.397 . S
C950 C951 1.334 . S
C951 H928 0.950 . S
C951 C950 1.334 . S
C951 C952 1.287 . S
C952 C951 1.287 . S
C952 C953 1.524 . S
C952 H971 0.913 . S
C953 H929 0.950 . S
C953 C952 1.524 . S
C953 C954 1.415 . S
C954 H930 0.950 . S
C954 C949 1.363 . S
C954 C953 1.415 . S
C955 H931 0.951 . S
C955 C956 1.366 . S
C955 C957 1.388 . S
C956 C955 1.366 . S
C956 C960 1.385 . S
C957 H932 0.951 . S
C957 C955 1.388 . S
C957 C958 1.366 . S
C958 C957 1.366 . S
C958 C959 1.414 . S
C958 C961 1.499 . S
C959 H933 0.950 . S
C959 C958 1.414 . S
C959 C960 1.374 . S
C960 H934 0.950 . S
C960 C956 1.385 . S
C960 C959 1.374 . S
C961 C958 1.499 . S
C961 C962 1.373 . S
C961 C963 1.389 . S
C962 H935 0.950 . S
C962 C948 1.377 . S
C962 C961 1.373 . S
C963 C947 1.377 . S
C963 C961 1.389 . S
C963 C964 1.524 . S
C964 C963 1.524 . S
C964 C965 1.397 . S
C964 C969 1.363 . S
C965 H936 0.950 . S
C965 C964 1.397 . S
C965 C966 1.334 . S
C966 H937 0.950 . S
C966 C965 1.334 . S
C966 C967 1.287 . S
C967 C966 1.287 . S
C967 C968 1.524 . S
C967 H970 0.999 . S
C968 H938 0.950 . S
C968 C967 1.524 . S
C968 C969 1.415 . S
C969 H939 0.950 . S
C969 C964 1.363 . S
C969 C968 1.415 . S
H970 C967 0.999 . S
H971 C952 0.913 . S
H972 C990 0.951 . S
H973 C992 0.951 . S
H974 C994 0.950 . S
H975 C995 0.950 . S
H976 C997 0.950 . S
H977 C1000 0.950 . S
H978 C1001 0.950 . S
H979 C1003 0.950 . S
H980 C1004 0.950 . S
H981 C1005 0.951 . S
H982 C1007 0.951 . S
H983 C1009 0.950 . S
H984 C1010 0.950 . S
H985 C1012 0.950 . S
H986 C1015 0.950 . S
H987 C1016 0.950 . S
H988 C1018 0.950 . S
H989 C1019 0.950 . S
C990 H972 0.951 . S
C990 C991 1.366 . S
C990 C992 1.388 . S
C991 C990 1.366 . S
C991 C995 1.385 . S
C992 H973 0.951 . S
C992 C990 1.388 . S
C992 C993 1.366 . S
C993 C992 1.366 . S
C993 C994 1.414 . S
C993 C996 1.499 . S
C994 H974 0.950 . S
C994 C993 1.414 . S
C994 C995 1.374 . S
C995 H975 0.950 . S
C995 C991 1.385 . S
C995 C994 1.374 . S
C996 C993 1.499 . S
C996 C997 1.373 . S
C996 C998 1.389 . S
C997 H976 0.950 . S
C997 C996 1.373 . S
C997 C1013 1.377 . S
C998 C996 1.389 . S
C998 C999 1.524 . S
C998 C1012 1.377 . S
C999 C998 1.524 . S
C999 C1000 1.397 . S
C999 C1004 1.363 . S
C1000 H977 0.950 . S
C1000 C999 1.397 . S
C1000 C1001 1.334 . S
C1001 H978 0.950 . S
C1001 C1000 1.334 . S
C1001 C1002 1.287 . S
C1002 C1001 1.287 . S
C1002 C1003 1.524 . S
C1002 H1021 0.913 . S
C1003 H979 0.950 . S
C1003 C1002 1.524 . S
C1003 C1004 1.415 . S
C1004 H980 0.950 . S
C1004 C999 1.363 . S
C1004 C1003 1.415 . S
C1005 H981 0.951 . S
C1005 C1006 1.366 . S
C1005 C1007 1.388 . S
C1006 C1005 1.366 . S
C1006 C1010 1.385 . S
C1007 H982 0.951 . S
C1007 C1005 1.388 . S
C1007 C1008 1.366 . S
C1008 C1007 1.366 . S
C1008 C1009 1.414 . S
C1008 C1011 1.499 . S
C1009 H983 0.950 . S
C1009 C1008 1.414 . S
C1009 C1010 1.374 . S
C1010 H984 0.950 . S
C1010 C1006 1.385 . S
C1010 C1009 1.374 . S
C1011 C1008 1.499 . S
C1011 C1012 1.373 . S
C1011 C1013 1.389 . S
C1012 H985 0.950 . S
C1012 C998 1.377 . S
C1012 C1011 1.373 . S
C1013 C997 1.377 . S
C1013 C1011 1.389 . S
C1013 C1014 1.524 . S
C1014 C1013 1.524 . S
C1014 C1015 1.397 . S
C1014 C1019 1.363 . S
C1015 H986 0.950 . S
C1015 C1014 1.397 . S
C1015 C1016 1.334 . S
C1016 H987 0.950 . S
C1016 C1015 1.334 . S
C1016 C1017 1.287 . S
C1017 C1016 1.287 . S
C1017 C1018 1.524 . S
C1017 H1020 0.999 . S
C1018 H988 0.950 . S
C1018 C1017 1.524 . S
C1018 C1019 1.415 . S
C1019 H989 0.950 . S
C1019 C1014 1.363 . S
C1019 C1018 1.415 . S
H1020 C1017 0.999 . S
H1021 C1002 0.913 . S
H1022 C1040 0.951 . S
H1023 C1042 0.951 . S
H1024 C1044 0.950 . S
H1025 C1045 0.950 . S
H1026 C1047 0.950 . S
H1027 C1050 0.950 . S
H1028 C1051 0.950 . S
H1029 C1053 0.950 . S
H1030 C1054 0.950 . S
H1031 C1055 0.951 . S
H1032 C1057 0.951 . S
H1033 C1059 0.950 . S
H1034 C1060 0.950 . S
H1035 C1062 0.950 . S
H1036 C1065 0.950 . S
H1037 C1066 0.950 . S
H1038 C1068 0.950 . S
H1039 C1069 0.950 . S
C1040 H1022 0.951 . S
C1040 C1041 1.366 . S
C1040 C1042 1.388 . S
C1041 C1040 1.366 . S
C1041 C1045 1.385 . S
C1042 H1023 0.951 . S
C1042 C1040 1.388 . S
C1042 C1043 1.366 . S
C1043 C1042 1.366 . S
C1043 C1044 1.414 . S
C1043 C1046 1.499 . S
C1044 H1024 0.950 . S
C1044 C1043 1.414 . S
C1044 C1045 1.374 . S
C1045 H1025 0.950 . S
C1045 C1041 1.385 . S
C1045 C1044 1.374 . S
C1046 C1043 1.499 . S
C1046 C1047 1.373 . S
C1046 C1048 1.389 . S
C1047 H1026 0.950 . S
C1047 C1046 1.373 . S
C1047 C1063 1.377 . S
C1048 C1046 1.389 . S
C1048 C1049 1.524 . S
C1048 C1062 1.377 . S
C1049 C1048 1.524 . S
C1049 C1050 1.397 . S
C1049 C1054 1.363 . S
C1050 H1027 0.950 . S
C1050 C1049 1.397 . S
C1050 C1051 1.334 . S
C1051 H1028 0.950 . S
C1051 C1050 1.334 . S
C1051 C1052 1.287 . S
C1052 C1051 1.287 . S
C1052 C1053 1.524 . S
C1052 H1071 0.913 . S
C1053 H1029 0.950 . S
C1053 C1052 1.524 . S
C1053 C1054 1.415 . S
C1054 H1030 0.950 . S
C1054 C1049 1.363 . S
C1054 C1053 1.415 . S
C1055 H1031 0.951 . S
C1055 C1056 1.366 . S
C1055 C1057 1.388 . S
C1056 C1055 1.366 . S
C1056 C1060 1.385 . S
C1057 H1032 0.951 . S
C1057 C1055 1.388 . S
C1057 C1058 1.366 . S
C1058 C1057 1.366 . S
C1058 C1059 1.414 . S
C1058 C1061 1.499 . S
C1059 H1033 0.950 . S
C1059 C1058 1.414 . S
C1059 C1060 1.374 . S
C1060 H1034 0.950 . S
C1060 C1056 1.385 . S
C1060 C1059 1.374 . S
C1061 C1058 1.499 . S
C1061 C1062 1.373 . S
C1061 C1063 1.389 . S
C1062 H1035 0.950 . S
C1062 C1048 1.377 . S
C1062 C1061 1.373 . S
C1063 C1047 1.377 . S
C1063 C1061 1.389 . S
C1063 C1064 1.524 . S
C1064 C1063 1.524 . S
C1064 C1065 1.397 . S
C1064 C1069 1.363 . S
C1065 H1036 0.950 . S
C1065 C1064 1.397 . S
C1065 C1066 1.334 . S
C1066 H1037 0.950 . S
C1066 C1065 1.334 . S
C1066 C1067 1.287 . S
C1067 C1066 1.287 . S
C1067 C1068 1.524 . S
C1067 H1070 0.999 . S
C1068 H1038 0.950 . S
C1068 C1067 1.524 . S
C1068 C1069 1.415 . S
C1069 H1039 0.950 . S
C1069 C1064 1.363 . S
C1069 C1068 1.415 . S
H1070 C1067 0.999 . S
H1071 C1052 0.913 . S
H1072 C1090 0.951 . S
H1073 C1092 0.951 . S
H1074 C1094 0.950 . S
H1075 C1095 0.950 . S
H1076 C1097 0.950 . S
H1077 C1100 0.926 1_565 S
H1078 C1101 0.950 . S
H1079 C1103 0.950 . S
H1080 C1104 0.950 . S
H1081 C1105 0.951 . S
H1082 C1107 0.951 . S
H1083 C1109 0.950 . S
H1084 C1110 0.950 . S
H1085 C1112 0.950 . S
H1086 C1115 0.950 1_545 S
H1087 C1116 0.950 . S
H1088 C1118 0.950 . S
H1089 C1119 0.950 . S
C1090 H1072 0.951 . S
C1090 C1091 1.366 . S
C1090 C1092 1.388 . S
C1091 C1090 1.366 . S
C1091 C1095 1.385 1_545 S
C1092 H1073 0.951 . S
C1092 C1090 1.388 . S
C1092 C1093 1.366 . S
C1093 C1092 1.366 . S
C1093 C1094 1.414 1_545 S
C1093 C1096 1.499 . S
C1094 H1074 0.950 . S
C1094 C1093 1.414 1_565 S
C1094 C1095 1.374 . S
C1095 H1075 0.950 . S
C1095 C1091 1.385 1_565 S
C1095 C1094 1.374 . S
C1096 C1093 1.499 . S
C1096 C1097 1.373 1_545 S
C1096 C1098 1.389 . S
C1097 H1076 0.950 . S
C1097 C1096 1.373 1_565 S
C1097 C1113 1.377 . S
C1098 C1096 1.389 . S
C1098 C1099 1.524 . S
C1098 C1112 1.377 . S
C1099 C1098 1.524 . S
C1099 C1100 1.397 . S
C1099 C1104 1.363 . S
C1100 H1077 0.926 1_545 S
C1100 C1099 1.397 . S
C1100 C1101 1.334 . S
C1101 H1078 0.950 . S
C1101 C1100 1.334 . S
C1101 C1102 1.287 . S
C1102 C1101 1.287 . S
C1102 C1103 1.524 . S
C1102 H1121 0.913 . S
C1103 H1079 0.950 . S
C1103 C1102 1.524 . S
C1103 C1104 1.415 . S
C1104 H1080 0.950 . S
C1104 C1099 1.363 . S
C1104 C1103 1.415 . S
C1105 H1081 0.951 . S
C1105 C1106 1.350 1_565 S
C1105 C1107 1.388 . S
C1106 C1105 1.350 1_545 S
C1106 C1110 1.401 . S
C1107 H1082 0.951 . S
C1107 C1105 1.388 . S
C1107 C1108 1.366 1_565 S
C1108 C1107 1.366 1_545 S
C1108 C1109 1.414 . S
C1108 C1111 1.499 . S
C1109 H1083 0.950 . S
C1109 C1108 1.414 . S
C1109 C1110 1.374 . S
C1110 H1084 0.950 . S
C1110 C1106 1.401 . S
C1110 C1109 1.374 . S
C1111 C1108 1.499 . S
C1111 C1112 1.373 . S
C1111 C1113 1.389 1_545 S
C1112 H1085 0.950 . S
C1112 C1098 1.377 . S
C1112 C1111 1.373 . S
C1113 C1097 1.377 . S
C1113 C1111 1.389 1_565 S
C1113 C1114 1.524 . S
C1114 C1113 1.524 . S
C1114 C1115 1.397 . S
C1114 C1119 1.363 . S
C1115 H1086 0.950 1_565 S
C1115 C1114 1.397 . S
C1115 C1116 1.334 . S
C1116 H1087 0.950 . S
C1116 C1115 1.334 . S
C1116 C1117 1.287 . S
C1117 C1116 1.287 . S
C1117 C1118 1.524 . S
C1117 H1120 0.999 . S
C1118 H1088 0.950 . S
C1118 C1117 1.524 . S
C1118 C1119 1.415 . S
C1119 H1089 0.950 . S
C1119 C1114 1.363 . S
C1119 C1118 1.415 . S
H1120 C1117 0.999 . S
H1121 C1102 0.913 . S
H1122 C1140 0.951 . S
H1123 C1142 0.951 . S
H1124 C1144 0.950 . S
H1125 C1145 0.950 . S
H1126 C1147 0.950 . S
H1127 C1150 0.950 . S
H1128 C1151 0.950 . S
H1129 C1153 0.950 . S
H1130 C1154 0.950 . S
H1131 C1155 0.951 . S
H1132 C1157 0.951 . S
H1133 C1159 0.950 . S
H1134 C1160 0.950 . S
H1135 C1162 0.950 . S
H1136 C1165 0.950 . S
H1137 C1166 0.950 . S
H1138 C1168 0.950 . S
H1139 C1169 0.950 1_545 S
C1140 H1122 0.951 . S
C1140 C1141 1.354 1_655 S
C1140 C1142 1.388 . S
C1141 C1140 1.354 1_455 S
C1141 C1145 1.397 . S
C1142 H1123 0.951 . S
C1142 C1140 1.388 . S
C1142 C1143 1.366 1_655 S
C1143 C1142 1.366 1_455 S
C1143 C1144 1.414 . S
C1143 C1146 1.499 . S
C1144 H1124 0.950 . S
C1144 C1143 1.414 . S
C1144 C1145 1.374 . S
C1145 H1125 0.950 . S
C1145 C1141 1.397 . S
C1145 C1144 1.374 . S
C1146 C1143 1.499 . S
C1146 C1147 1.373 . S
C1146 C1148 1.389 1_455 S
C1147 H1126 0.950 . S
C1147 C1146 1.373 . S
C1147 C1163 1.377 1_545 S
C1148 C1146 1.389 1_655 S
C1148 C1149 1.524 . S
C1148 C1162 1.377 1_545 S
C1149 C1148 1.524 . S
C1149 C1150 1.397 . S
C1149 C1154 1.363 . S
C1150 H1127 0.950 . S
C1150 C1149 1.397 . S
C1150 C1151 1.334 . S
C1151 H1128 0.950 . S
C1151 C1150 1.334 . S
C1151 C1152 1.287 . S
C1152 C1151 1.287 . S
C1152 C1153 1.524 . S
C1152 H1171 0.913 . S
C1153 H1129 0.950 . S
C1153 C1152 1.524 . S
C1153 C1154 1.415 . S
C1154 H1130 0.950 . S
C1154 C1149 1.363 . S
C1154 C1153 1.415 . S
C1155 H1131 0.951 . S
C1155 C1156 1.366 . S
C1155 C1157 1.388 . S
C1156 C1155 1.366 . S
C1156 C1160 1.385 1_455 S
C1157 H1132 0.951 . S
C1157 C1155 1.388 . S
C1157 C1158 1.366 . S
C1158 C1157 1.366 . S
C1158 C1159 1.414 1_455 S
C1158 C1161 1.499 . S
C1159 H1133 0.950 . S
C1159 C1158 1.414 1_655 S
C1159 C1160 1.374 . S
C1160 H1134 0.950 . S
C1160 C1156 1.385 1_655 S
C1160 C1159 1.374 . S
C1161 C1158 1.499 . S
C1161 C1162 1.373 1_455 S
C1161 C1163 1.389 . S
C1162 H1135 0.950 . S
C1162 C1148 1.377 1_565 S
C1162 C1161 1.373 1_655 S
C1163 C1147 1.377 1_565 S
C1163 C1161 1.389 . S
C1163 C1164 1.541 . S
C1164 C1163 1.541 . S
C1164 C1165 1.371 1_554 S
C1164 C1169 1.371 . S
C1165 H1136 0.950 . S
C1165 C1164 1.371 1_556 S
C1165 C1166 1.334 . S
C1166 H1137 0.950 . S
C1166 C1165 1.334 . S
C1166 C1167 1.287 . S
C1167 C1166 1.287 . S
C1167 C1168 1.524 . S
C1167 H1170 0.999 . S
C1168 H1138 0.950 . S
C1168 C1167 1.524 . S
C1168 C1169 1.415 1_556 S
C1169 H1139 0.950 1_565 S
C1169 C1164 1.371 . S
C1169 C1168 1.415 1_554 S
H1170 C1167 0.999 . S
H1171 C1152 0.913 . S
H1172 C1190 0.951 . S
H1173 C1192 0.951 . S
H1174 C1194 0.950 . S
H1175 C1195 0.950 . S
H1176 C1197 0.950 . S
H1177 C1200 0.950 . S
H1178 C1201 0.950 . S
H1179 C1203 0.950 . S
H1180 C1204 0.950 . S
H1181 C1205 0.951 . S
H1182 C1207 0.951 . S
H1183 C1209 0.950 . S
H1184 C1210 0.950 . S
H1185 C1212 0.950 . S
H1186 C1215 0.950 . S
H1187 C1216 0.950 . S
H1188 C1218 0.950 . S
H1189 C1219 0.950 . S
C1190 H1172 0.951 . S
C1190 C1191 1.366 . S
C1190 C1192 1.388 . S
C1191 C1190 1.366 . S
C1191 C1195 1.385 . S
C1192 H1173 0.951 . S
C1192 C1190 1.388 . S
C1192 C1193 1.366 . S
C1193 C1192 1.366 . S
C1193 C1194 1.414 . S
C1193 C1196 1.499 . S
C1194 H1174 0.950 . S
C1194 C1193 1.414 . S
C1194 C1195 1.374 . S
C1195 H1175 0.950 . S
C1195 C1191 1.385 . S
C1195 C1194 1.374 . S
C1196 C1193 1.499 . S
C1196 C1197 1.373 . S
C1196 C1198 1.389 . S
C1197 H1176 0.950 . S
C1197 C1196 1.373 . S
C1197 C1213 1.377 1_455 S
C1198 C1196 1.389 . S
C1198 C1199 1.524 . S
C1198 C1212 1.377 1_455 S
C1199 C1198 1.524 . S
C1199 C1200 1.397 . S
C1199 C1204 1.363 . S
C1200 H1177 0.950 . S
C1200 C1199 1.397 . S
C1200 C1201 1.334 . S
C1201 H1178 0.950 . S
C1201 C1200 1.334 . S
C1201 C1202 1.287 . S
C1202 C1201 1.287 . S
C1202 C1203 1.524 . S
C1202 H1221 0.913 . S
C1203 H1179 0.950 . S
C1203 C1202 1.524 . S
C1203 C1204 1.415 . S
C1204 H1180 0.950 . S
C1204 C1199 1.363 . S
C1204 C1203 1.415 . S
C1205 H1181 0.951 . S
C1205 C1206 1.366 . S
C1205 C1207 1.388 . S
C1206 C1205 1.366 . S
C1206 C1210 1.385 . S
C1207 H1182 0.951 . S
C1207 C1205 1.388 . S
C1207 C1208 1.366 . S
C1208 C1207 1.366 . S
C1208 C1209 1.414 . S
C1208 C1211 1.499 . S
C1209 H1183 0.950 . S
C1209 C1208 1.414 . S
C1209 C1210 1.374 . S
C1210 H1184 0.950 . S
C1210 C1206 1.385 . S
C1210 C1209 1.374 . S
C1211 C1208 1.499 . S
C1211 C1212 1.373 . S
C1211 C1213 1.389 . S
C1212 H1185 0.950 . S
C1212 C1198 1.377 1_655 S
C1212 C1211 1.373 . S
C1213 C1197 1.377 1_655 S
C1213 C1211 1.389 . S
C1213 C1214 1.524 . S
C1214 C1213 1.524 . S
C1214 C1215 1.397 . S
C1214 C1219 1.363 . S
C1215 H1186 0.950 . S
C1215 C1214 1.397 . S
C1215 C1216 1.334 . S
C1216 H1187 0.950 . S
C1216 C1215 1.334 . S
C1216 C1217 1.287 . S
C1217 C1216 1.287 . S
C1217 C1218 1.524 . S
C1217 H1220 0.999 . S
C1218 H1188 0.950 . S
C1218 C1217 1.524 . S
C1218 C1219 1.415 . S
C1219 H1189 0.950 . S
C1219 C1214 1.363 . S
C1219 C1218 1.415 . S
H1220 C1217 0.999 . S
H1221 C1202 0.913 . S
H1222 C1240 0.951 . S
H1223 C1242 0.951 . S
H1224 C1244 0.950 . S
H1225 C1245 0.950 . S
H1226 C1247 0.950 . S
H1227 C1250 0.950 . S
H1228 C1251 0.950 . S
H1229 C1253 0.950 . S
H1230 C1254 0.950 . S
H1231 C1255 0.951 . S
H1232 C1257 0.951 . S
H1233 C1259 0.950 . S
H1234 C1260 0.950 . S
H1235 C1262 0.950 . S
H1236 C1265 0.950 . S
H1237 C1266 0.950 . S
H1238 C1268 0.950 . S
H1239 C1269 0.950 . S
C1240 H1222 0.951 . S
C1240 C1241 1.366 . S
C1240 C1242 1.388 . S
C1241 C1240 1.366 . S
C1241 C1245 1.385 . S
C1242 H1223 0.951 . S
C1242 C1240 1.388 . S
C1242 C1243 1.366 . S
C1243 C1242 1.366 . S
C1243 C1244 1.414 . S
C1243 C1246 1.499 . S
C1244 H1224 0.950 . S
C1244 C1243 1.414 . S
C1244 C1245 1.374 . S
C1245 H1225 0.950 . S
C1245 C1241 1.385 . S
C1245 C1244 1.374 . S
C1246 C1243 1.499 . S
C1246 C1247 1.373 . S
C1246 C1248 1.389 . S
C1247 H1226 0.950 . S
C1247 C1246 1.373 . S
C1247 C1263 1.377 . S
C1248 C1246 1.389 . S
C1248 C1249 1.524 . S
C1248 C1262 1.377 . S
C1249 C1248 1.524 . S
C1249 C1250 1.397 . S
C1249 C1254 1.363 . S
C1250 H1227 0.950 . S
C1250 C1249 1.397 . S
C1250 C1251 1.334 . S
C1251 H1228 0.950 . S
C1251 C1250 1.334 . S
C1251 C1252 1.287 . S
C1252 C1251 1.287 . S
C1252 C1253 1.524 . S
C1252 H1271 0.913 . S
C1253 H1229 0.950 . S
C1253 C1252 1.524 . S
C1253 C1254 1.415 . S
C1254 H1230 0.950 . S
C1254 C1249 1.363 . S
C1254 C1253 1.415 . S
C1255 H1231 0.951 . S
C1255 C1256 1.366 . S
C1255 C1257 1.388 . S
C1256 C1255 1.366 . S
C1256 C1260 1.385 . S
C1257 H1232 0.951 . S
C1257 C1255 1.388 . S
C1257 C1258 1.366 . S
C1258 C1257 1.366 . S
C1258 C1259 1.414 . S
C1258 C1261 1.499 . S
C1259 H1233 0.950 . S
C1259 C1258 1.414 . S
C1259 C1260 1.374 . S
C1260 H1234 0.950 . S
C1260 C1256 1.385 . S
C1260 C1259 1.374 . S
C1261 C1258 1.499 . S
C1261 C1262 1.373 . S
C1261 C1263 1.389 . S
C1262 H1235 0.950 . S
C1262 C1248 1.377 . S
C1262 C1261 1.373 . S
C1263 C1247 1.377 . S
C1263 C1261 1.389 . S
C1263 C1264 1.524 . S
C1264 C1263 1.524 . S
C1264 C1265 1.397 . S
C1264 C1269 1.363 . S
C1265 H1236 0.950 . S
C1265 C1264 1.397 . S
C1265 C1266 1.334 . S
C1266 H1237 0.950 . S
C1266 C1265 1.334 . S
C1266 C1267 1.287 . S
C1267 C1266 1.287 . S
C1267 C1268 1.524 . S
C1267 H1270 0.999 . S
C1268 H1238 0.950 . S
C1268 C1267 1.524 . S
C1268 C1269 1.415 . S
C1269 H1239 0.950 . S
C1269 C1264 1.363 . S
C1269 C1268 1.415 . S
H1270 C1267 0.999 . S
H1271 C1252 0.913 . S
C291 C20 0.757 . S
C306 C175 0.757 . S
C341 C54 0.755 . S
C356 C209 0.756 . S
C391 C88 0.757 . S
C406 C243 0.757 . S
C441 C141 0.756 . S
C456 C122 0.756 . S
C491 C172 0.785 . S
C506 C145 0.782 . S
C541 C179 0.782 . S
C556 C206 0.786 . S
C591 C240 0.785 . S
C606 C213 0.783 . S
C641 C247 0.783 . S
C656 C138 0.785 . S
C691 C224 0.755 . S
C706 C107 0.756 . S
C741 C258 0.756 . S
C756 C5 0.757 . S
C791 C39 0.756 . S
C806 C156 0.756 . S
C841 C190 0.757 . S
C856 C73 0.757 . S
C891 C104 0.785 . S
C906 C77 0.784 . S
C941 C2 0.786 . S
C956 C111 0.781 . S
C991 C36 0.785 . S
C1006 C9 0.783 . S
C1041 C43 0.782 . S
C1056 C70 0.785 . S
C1091 C169 0.942 . S
C1106 C33 0.943 1_545 S
C1141 C203 0.942 1_455 S
C1156 C67 0.943 . S
C1191 C101 0.942 . S
C1206 C237 0.943 . S
C1241 C271 0.943 . S
C1256 C135 0.943 . S
