# Generated by pormake.
# Topology lcs, (4)-cn, num edge types: 1
# Building blocks:
#     Node 0, Type 0, BuildingBlock: TATPOV_clean_sbu_0, # of connection points: 4
#     Node 1, Type 0, BuildingBlock: TATPOV_clean_sbu_0, # of connection points: 4
#     Node 2, Type 0, BuildingBlock: TATPOV_clean_sbu_0, # of connection points: 4
#     Node 3, Type 0, BuildingBlock: TATPOV_clean_sbu_0, # of connection points: 4
#     Node 4, Type 0, BuildingBlock: TATPOV_clean_sbu_0, # of connection points: 4
#     Node 5, Type 0, BuildingBlock: TATPOV_clean_sbu_0, # of connection points: 4
#     Node 6, Type 0, BuildingBlock: TATPOV_clean_sbu_0, # of connection points: 4
#     Node 7, Type 0, BuildingBlock: TATPOV_clean_sbu_0, # of connection points: 4
#     Node 8, Type 0, BuildingBlock: TATPOV_clean_sbu_0, # of connection points: 4
#     Node 9, Type 0, BuildingBlock: TATPOV_clean_sbu_0, # of connection points: 4
#     Node 10, Type 0, BuildingBlock: TATPOV_clean_sbu_0, # of connection points: 4
#     Node 11, Type 0, BuildingBlock: TATPOV_clean_sbu_0, # of connection points: 4
#     Node 12, Type 0, BuildingBlock: TATPOV_clean_sbu_0, # of connection points: 4
#     Node 13, Type 0, BuildingBlock: TATPOV_clean_sbu_0, # of connection points: 4
#     Node 14, Type 0, BuildingBlock: TATPOV_clean_sbu_0, # of connection points: 4
#     Node 15, Type 0, BuildingBlock: TATPOV_clean_sbu_0, # of connection points: 4
#     Node 16, Type 0, BuildingBlock: TATPOV_clean_sbu_0, # of connection points: 4
#     Node 17, Type 0, BuildingBlock: TATPOV_clean_sbu_0, # of connection points: 4
#     Node 18, Type 0, BuildingBlock: TATPOV_clean_sbu_0, # of connection points: 4
#     Node 19, Type 0, BuildingBlock: TATPOV_clean_sbu_0, # of connection points: 4
#     Node 20, Type 0, BuildingBlock: TATPOV_clean_sbu_0, # of connection points: 4
#     Node 21, Type 0, BuildingBlock: TATPOV_clean_sbu_0, # of connection points: 4
#     Node 22, Type 0, BuildingBlock: TATPOV_clean_sbu_0, # of connection points: 4
#     Node 23, Type 0, BuildingBlock: TATPOV_clean_sbu_0, # of connection points: 4
#     Edge 24, Type (0, 0), BuildingBlock: ZUJKAS_clean_linker_0, # of connection points: 2
#     Edge 25, Type (0, 0), BuildingBlock: ZUJKAS_clean_linker_0, # of connection points: 2
#     Edge 26, Type (0, 0), BuildingBlock: ZUJKAS_clean_linker_0, # of connection points: 2
#     Edge 27, Type (0, 0), BuildingBlock: ZUJKAS_clean_linker_0, # of connection points: 2
#     Edge 28, Type (0, 0), BuildingBlock: ZUJKAS_clean_linker_0, # of connection points: 2
#     Edge 29, Type (0, 0), BuildingBlock: ZUJKAS_clean_linker_0, # of connection points: 2
#     Edge 30, Type (0, 0), BuildingBlock: ZUJKAS_clean_linker_0, # of connection points: 2
#     Edge 31, Type (0, 0), BuildingBlock: ZUJKAS_clean_linker_0, # of connection points: 2
#     Edge 32, Type (0, 0), BuildingBlock: ZUJKAS_clean_linker_0, # of connection points: 2
#     Edge 33, Type (0, 0), BuildingBlock: ZUJKAS_clean_linker_0, # of connection points: 2
#     Edge 34, Type (0, 0), BuildingBlock: ZUJKAS_clean_linker_0, # of connection points: 2
#     Edge 35, Type (0, 0), BuildingBlock: ZUJKAS_clean_linker_0, # of connection points: 2
#     Edge 36, Type (0, 0), BuildingBlock: ZUJKAS_clean_linker_0, # of connection points: 2
#     Edge 37, Type (0, 0), BuildingBlock: ZUJKAS_clean_linker_0, # of connection points: 2
#     Edge 38, Type (0, 0), BuildingBlock: ZUJKAS_clean_linker_0, # of connection points: 2
#     Edge 39, Type (0, 0), BuildingBlock: ZUJKAS_clean_linker_0, # of connection points: 2
#     Edge 40, Type (0, 0), BuildingBlock: ZUJKAS_clean_linker_0, # of connection points: 2
#     Edge 41, Type (0, 0), BuildingBlock: ZUJKAS_clean_linker_0, # of connection points: 2
#     Edge 42, Type (0, 0), BuildingBlock: ZUJKAS_clean_linker_0, # of connection points: 2
#     Edge 43, Type (0, 0), BuildingBlock: ZUJKAS_clean_linker_0, # of connection points: 2
#     Edge 44, Type (0, 0), BuildingBlock: ZUJKAS_clean_linker_0, # of connection points: 2
#     Edge 45, Type (0, 0), BuildingBlock: ZUJKAS_clean_linker_0, # of connection points: 2
#     Edge 46, Type (0, 0), BuildingBlock: ZUJKAS_clean_linker_0, # of connection points: 2
#     Edge 47, Type (0, 0), BuildingBlock: ZUJKAS_clean_linker_0, # of connection points: 2
#     Edge 48, Type (0, 0), BuildingBlock: ZUJKAS_clean_linker_0, # of connection points: 2
#     Edge 49, Type (0, 0), BuildingBlock: ZUJKAS_clean_linker_0, # of connection points: 2
#     Edge 50, Type (0, 0), BuildingBlock: ZUJKAS_clean_linker_0, # of connection points: 2
#     Edge 51, Type (0, 0), BuildingBlock: ZUJKAS_clean_linker_0, # of connection points: 2
#     Edge 52, Type (0, 0), BuildingBlock: ZUJKAS_clean_linker_0, # of connection points: 2
#     Edge 53, Type (0, 0), BuildingBlock: ZUJKAS_clean_linker_0, # of connection points: 2
#     Edge 54, Type (0, 0), BuildingBlock: ZUJKAS_clean_linker_0, # of connection points: 2
#     Edge 55, Type (0, 0), BuildingBlock: ZUJKAS_clean_linker_0, # of connection points: 2
#     Edge 56, Type (0, 0), BuildingBlock: ZUJKAS_clean_linker_0, # of connection points: 2
#     Edge 57, Type (0, 0), BuildingBlock: ZUJKAS_clean_linker_0, # of connection points: 2
#     Edge 58, Type (0, 0), BuildingBlock: ZUJKAS_clean_linker_0, # of connection points: 2
#     Edge 59, Type (0, 0), BuildingBlock: ZUJKAS_clean_linker_0, # of connection points: 2
#     Edge 60, Type (0, 0), BuildingBlock: ZUJKAS_clean_linker_0, # of connection points: 2
#     Edge 61, Type (0, 0), BuildingBlock: ZUJKAS_clean_linker_0, # of connection points: 2
#     Edge 62, Type (0, 0), BuildingBlock: ZUJKAS_clean_linker_0, # of connection points: 2
#     Edge 63, Type (0, 0), BuildingBlock: ZUJKAS_clean_linker_0, # of connection points: 2
#     Edge 64, Type (0, 0), BuildingBlock: ZUJKAS_clean_linker_0, # of connection points: 2
#     Edge 65, Type (0, 0), BuildingBlock: ZUJKAS_clean_linker_0, # of connection points: 2
#     Edge 66, Type (0, 0), BuildingBlock: ZUJKAS_clean_linker_0, # of connection points: 2
#     Edge 67, Type (0, 0), BuildingBlock: ZUJKAS_clean_linker_0, # of connection points: 2
#     Edge 68, Type (0, 0), BuildingBlock: ZUJKAS_clean_linker_0, # of connection points: 2
#     Edge 69, Type (0, 0), BuildingBlock: ZUJKAS_clean_linker_0, # of connection points: 2
#     Edge 70, Type (0, 0), BuildingBlock: ZUJKAS_clean_linker_0, # of connection points: 2
#     Edge 71, Type (0, 0), BuildingBlock: ZUJKAS_clean_linker_0, # of connection points: 2
# Relax obj value: 0.081
# Max RMSD: 0.145
# Mean RMSD: 0.143
data_MOF--net-lcs--node1-TATPOV_clean_sbu_0--edge1-ZUJKAS_clean_linker_0
_symmetry_space_group_name_H-M    P1
_symmetry_Int_Tables_number       1
_symmetry_cell_setting            triclinic
loop_
_symmetry_equiv_pos_as_xyz
'x, y, z'
_cell_length_a     62.836187
_cell_length_b     62.841542
_cell_length_c     62.844472
_cell_angle_alpha  93.217889
_cell_angle_beta   93.222079
_cell_angle_gamma 93.218894
loop_
_atom_site_label
_atom_site_type_symbol
_atom_site_fract_x
_atom_site_fract_y
_atom_site_fract_z
_atom_type_partial_charge
Zn0 Zn 0.00725 0.2227 0.43238 0.0
Zn1 Zn 0.01413 0.24968 0.40119 0.0
O2 O 0.99115 0.264 0.41803 0.0
O3 O 0.9854 0.24222 0.44361 0.0
O4 O 0.02031 0.26969 0.37821 0.0
O5 O 0.03829 0.22658 0.44259 0.0
O6 O 0.0438 0.24736 0.41616 0.0
C7 C 0.98114 0.25895 0.43426 0.0
C8 C 0.99671 0.20395 0.38974 0.0
O9 O 0.00233 0.22256 0.38436 0.0
O10 O 0.99775 0.1997 0.40924 0.0
C11 C 0.00561 0.27854 0.36788 0.0
O12 O 0.98564 0.27468 0.37236 0.0
C13 C 0.05093 0.23785 0.43222 0.0
Zn14 Zn 0.00214 0.77924 0.57465 0.0
Zn15 Zn 0.99352 0.7549 0.60763 0.0
O16 O 0.96433 0.75578 0.59141 0.0
O17 O 0.97107 0.77525 0.56426 0.0
O18 O 0.9878 0.73563 0.63128 0.0
O19 O 0.02367 0.75865 0.56483 0.0
O20 O 0.01752 0.74021 0.59282 0.0
C21 C 0.95792 0.76455 0.57461 0.0
C22 C 0.01084 0.80083 0.61669 0.0
O23 O 0.00382 0.78312 0.62323 0.0
O24 O 0.01186 0.8032 0.59686 0.0
C25 C 0.9765 0.74052 0.64676 0.0
O26 O 0.96771 0.75901 0.64752 0.0
C27 C 0.02779 0.74325 0.57625 0.0
Zn28 Zn 0.5035 0.72634 0.93288 0.0
Zn29 Zn 0.51291 0.74949 0.89925 0.0
O30 O 0.48951 0.76578 0.91357 0.0
O31 O 0.48278 0.7481 0.94193 0.0
O32 O 0.52038 0.76728 0.87485 0.0
O33 O 0.53457 0.72915 0.94344 0.0
O34 O 0.54185 0.74759 0.91574 0.0
C35 C 0.47914 0.7634 0.93021 0.0
C36 C 0.49377 0.70401 0.89141 0.0
O37 O 0.50134 0.7213 0.88443 0.0
O38 O 0.49286 0.70212 0.91133 0.0
C39 C 0.50602 0.77542 0.86338 0.0
O40 O 0.48588 0.77204 0.8675 0.0
C41 C 0.54803 0.73902 0.93274 0.0
Zn42 Zn 0.50797 0.28193 0.07057 0.0
Zn43 Zn 0.49635 0.25538 0.10072 0.0
O44 O 0.46842 0.25848 0.0827 0.0
O45 O 0.47796 0.2792 0.05734 0.0
O46 O 0.48778 0.23433 0.12212 0.0
O47 O 0.5298 0.26177 0.06107 0.0
O48 O 0.52089 0.2408 0.08643 0.0
C49 C 0.46366 0.2683 0.06603 0.0
C50 C 0.5141 0.30062 0.1139 0.0
O51 O 0.50659 0.28241 0.11876 0.0
O52 O 0.51624 0.30443 0.09451 0.0
C53 C 0.48103 0.23942 0.14031 0.0
O54 O 0.47913 0.25964 0.14594 0.0
C55 C 0.53252 0.24512 0.07108 0.0
Zn56 Zn 0.97723 0.75082 0.18251 0.0
Zn57 Zn 0.00023 0.76385 0.15014 0.0
O58 O 0.99643 0.79144 0.16853 0.0
O59 O 0.97837 0.78091 0.19544 0.0
O60 O 0.01984 0.77377 0.1279 0.0
O61 O -0.00039 0.73067 0.19094 0.0
O62 O 0.01697 0.74 0.16315 0.0
C63 C 0.98748 0.79574 0.18584 0.0
C64 C 0.95568 0.74322 0.1402 0.0
O65 O 0.97267 0.75216 0.13384 0.0
O66 O 0.95384 0.74075 0.15991 0.0
C67 C 0.01633 0.77152 0.10775 0.0
O68 O 0.99811 0.76239 0.0997 0.0
C69 C 0.01508 0.72853 0.1791 0.0
Zn70 Zn 0.53113 0.75935 0.32325 0.0
Zn71 Zn 0.50686 0.74666 0.35482 0.0
O72 O 0.49055 0.77089 0.34205 0.0
O73 O 0.50895 0.77989 0.3148 0.0
O74 O 0.48822 0.73649 0.37758 0.0
O75 O 0.53001 0.72911 0.31045 0.0
O76 O 0.50996 0.71917 0.33615 0.0
C77 C 0.49321 0.7824 0.32624 0.0
C78 C 0.55173 0.76638 0.3658 0.0
O79 O 0.53435 0.75767 0.37151 0.0
O80 O 0.55425 0.76906 0.34623 0.0
C81 C 0.48161 0.74947 0.39163 0.0
O82 O 0.48711 0.76992 0.39121 0.0
C83 C 0.51972 0.71457 0.31942 0.0
Zn84 Zn 0.47853 0.25156 0.68314 0.0
Zn85 Zn 0.50322 0.26153 0.65092 0.0
O86 O 0.50031 0.29061 0.6669 0.0
O87 O 0.48041 0.28266 0.69341 0.0
O88 O 0.52286 0.26803 0.62775 0.0
O89 O 0.50006 0.23138 0.69387 0.0
O90 O 0.51885 0.23843 0.66634 0.0
C91 C 0.49065 0.29642 0.68337 0.0
C92 C 0.45835 0.24163 0.64069 0.0
O93 O 0.47584 0.24969 0.63458 0.0
O94 O 0.4556 0.24045 0.66044 0.0
C95 C 0.51891 0.28086 0.61331 0.0
O96 O 0.50116 0.29096 0.61336 0.0
C97 C 0.51599 0.22809 0.68291 0.0
Zn98 Zn 0.03186 0.25447 0.82291 0.0
Zn99 Zn 0.00593 0.24589 0.85482 0.0
O100 O 0.99111 0.26936 0.8393 0.0
O101 O 0.01126 0.27586 0.81258 0.0
O102 O 0.98577 0.23859 0.87745 0.0
O103 O 0.02884 0.22348 0.81226 0.0
O104 O 0.0086 0.21681 0.83882 0.0
C105 C 0.99507 0.27973 0.82298 0.0
C106 C 0.05147 0.26411 0.86557 0.0
O107 O 0.03331 0.25743 0.87132 0.0
O108 O 0.05502 0.26425 0.84591 0.0
C109 C 0.98685 0.2474 0.89623 0.0
O110 O 0.00189 0.26238 0.90173 0.0
C111 C 0.01807 0.21031 0.82249 0.0
Zn112 Zn 0.43548 0.00501 0.22908 0.0
Zn113 Zn 0.40161 0.01479 0.25173 0.0
O114 O 0.41581 0.99196 0.26886 0.0
O115 O 0.4439 0.98425 0.25115 0.0
O116 O 0.37713 0.02296 0.2691 0.0
O117 O 0.44652 0.03587 0.23179 0.0
O118 O 0.41809 0.04362 0.24889 0.0
C119 C 0.43224 0.98125 0.26664 0.0
C120 C 0.39414 0.99511 0.20645 0.0
O121 O 0.38699 0.0022 0.22384 0.0
O122 O 0.41411 0.99489 0.20448 0.0
C123 C 0.36562 0.00899 0.27773 0.0
O124 O 0.36973 0.98877 0.27515 0.0
C125 C 0.43541 0.04956 0.24076 0.0
Zn126 Zn 0.27791 0.07315 0.50457 0.0
Zn127 Zn 0.25517 0.10676 0.4942 0.0
O128 O 0.25648 0.08963 0.46553 0.0
O129 O 0.27416 0.06168 0.47385 0.0
O130 O 0.23693 0.13091 0.48732 0.0
O131 O 0.25647 0.06483 0.52582 0.0
O132 O 0.2392 0.0932 0.51817 0.0
C133 C 0.26451 0.07213 0.46001 0.0
C134 C 0.30084 0.11469 0.51254 0.0
O135 O 0.28358 0.12166 0.50488 0.0
O136 O 0.30245 0.0948 0.51416 0.0
C137 C 0.24103 0.14421 0.47339 0.0
O138 O 0.25806 0.14229 0.46239 0.0
C139 C 0.24134 0.07688 0.52906 0.0
Zn140 Zn 0.18206 0.97877 0.75072 0.0
Zn141 Zn 0.14984 0.00287 0.76203 0.0
O142 O 0.16696 8e-05 0.79053 0.0
O143 O 0.19383 0.98121 0.78132 0.0
O144 O 0.12679 0.02238 0.76932 0.0
O145 O 0.19145 0.00017 0.72989 0.0
O146 O 0.16405 0.01861 0.73825 0.0
C147 C 0.18403 0.99102 0.79557 0.0
C148 C 0.13956 0.95788 0.7427 0.0
O149 O 0.13345 0.97532 0.75088 0.0
O150 O 0.15928 0.95543 0.74079 0.0
C151 C 0.11276 0.01866 0.78263 0.0
O152 O 0.1131 0.00108 0.79299 0.0
C153 C 0.18013 0.01594 0.72713 0.0
Zn154 Zn 0.25601 0.82285 0.03004 0.0
Zn155 Zn 0.24539 0.85485 0.00534 0.0
O156 O 0.26857 0.84045 0.98889 0.0
O157 O 0.27677 0.81366 0.0083 0.0
O158 O 0.23647 0.8782 0.9868 0.0
O159 O 0.22541 0.81114 0.02822 0.0
O160 O 0.21695 0.83777 0.00874 0.0
C161 C 0.27961 0.82442 0.99213 0.0
C162 C 0.26549 0.86516 0.05025 0.0
O163 O 0.25795 0.87114 0.03249 0.0
O164 O 0.26611 0.84544 0.05339 0.0
C165 C 0.25013 0.89035 0.97848 0.0
O166 O 0.27056 0.88753 0.98203 0.0
C167 C 0.21144 0.82105 0.01815 0.0
Zn168 Zn 0.22731 0.43491 0.0058 0.0
Zn169 Zn 0.25106 0.4018 0.01525 0.0
O170 O 0.26685 0.41561 0.99137 0.0
O171 O 0.24842 0.44335 0.98409 0.0
O172 O 0.26944 0.37813 0.02331 0.0
O173 O 0.2308 0.44652 0.03648 0.0
O174 O 0.24906 0.41875 0.04393 0.0
C175 C 0.26389 0.43182 0.98053 0.0
C176 C 0.20539 0.39301 0.99724 0.0
O177 O 0.22315 0.38634 0.00394 0.0
O178 O 0.20296 0.41288 0.99675 0.0
C179 C 0.27386 0.36349 0.00978 0.0
O180 O 0.26611 0.36374 0.98994 0.0
C181 C 0.24069 0.4359 0.04999 0.0
Zn182 Zn 0.75314 0.17907 0.96519 0.0
Zn183 Zn 0.76519 0.14986 0.99294 0.0
O184 O 0.79226 0.16962 0.99165 0.0
O185 O 0.78272 0.1934 0.96908 0.0
O186 O 0.77379 0.12891 0.0145 0.0
O187 O 0.73006 0.18753 0.98451 0.0
O188 O 0.73926 0.16278 0.00609 0.0
C189 C 0.7968 0.18606 0.98141 0.0
C190 C 0.7502 0.1357 0.94688 0.0
O191 O 0.75747 0.13153 0.9654 0.0
O192 O 0.74682 0.15477 0.94273 0.0
C193 C 0.76769 0.1092 0.01304 0.0
O194 O 0.7554 0.10154 0.99647 0.0
C195 C 0.72711 0.17751 0.00112 0.0
Zn196 Zn 0.07113 0.50922 0.27883 0.0
Zn197 Zn 0.10292 0.4958 0.25497 0.0
O198 O 0.08419 0.46848 0.25852 0.0
O199 O 0.05776 0.47919 0.27721 0.0
O200 O 0.12501 0.48594 0.23526 0.0
O201 O 0.06302 0.5299 0.25677 0.0
O202 O 0.09012 0.51998 0.23865 0.0
C203 C 0.06695 0.46433 0.26765 0.0
C204 C 0.11385 0.51569 0.29969 0.0
O205 O 0.11967 0.50692 0.28239 0.0
O206 O 0.09426 0.51852 0.30202 0.0
C207 C 0.14394 0.48144 0.24079 0.0
O208 O 0.15034 0.48275 0.2611 0.0
C209 C 0.07454 0.53185 0.24102 0.0
Zn210 Zn 0.73075 0.932 0.50304 0.0
Zn211 Zn 0.75503 0.89902 0.51173 0.0
O212 O 0.77003 0.91399 0.48795 0.0
O213 O 0.75156 0.94196 0.48177 0.0
O214 O 0.77429 0.87544 0.51791 0.0
O215 O 0.73421 0.94239 0.53414 0.0
O216 O 0.75325 0.91495 0.54096 0.0
C217 C 0.76704 0.93061 0.47773 0.0
C218 C 0.7093 0.88988 0.49402 0.0
O219 O 0.72702 0.88335 0.50103 0.0
O220 O 0.70688 0.90972 0.49312 0.0
C221 C 0.7694 0.86057 0.52996 0.0
O222 O 0.75105 0.86048 0.53901 0.0
C223 C 0.74444 0.93173 0.54738 0.0
Zn224 Zn 0.81948 0.03249 0.25382 0.0
Zn225 Zn 0.85118 0.00791 0.24193 0.0
O226 O 0.83809 0.99192 0.26608 0.0
O227 O 0.81128 0.01093 0.27515 0.0
O228 O 0.87384 0.98891 0.23233 0.0
O229 O 0.80655 0.03035 0.22366 0.0
O230 O 0.83285 0.01088 0.21419 0.0
C231 C 0.82247 0.995 0.27771 0.0
C232 C 0.86208 0.05307 0.26079 0.0
O233 O 0.8679 0.0353 0.25311 0.0
O234 O 0.84243 0.05595 0.26256 0.0
C235 C 0.88911 0.98436 0.24509 0.0
O236 O 0.89013 0.99243 0.26489 0.0
C237 C 0.8159 0.02019 0.20932 0.0
Zn238 Zn 0.25155 0.68307 0.47651 0.0
Zn239 Zn 0.26188 0.65119 0.50138 0.0
O240 O 0.29071 0.66786 0.49869 0.0
O241 O 0.28218 0.69466 0.47941 0.0
O242 O 0.26851 0.62862 0.52174 0.0
O243 O 0.23026 0.69319 0.49705 0.0
O244 O 0.23787 0.66607 0.51621 0.0
C245 C 0.29613 0.68476 0.48954 0.0
C246 C 0.24345 0.64028 0.45621 0.0
O247 O 0.25106 0.63431 0.47395 0.0
O248 O 0.24197 0.65998 0.45339 0.0
C249 C 0.28141 0.61408 0.51851 0.0
O250 O 0.2917 0.61346 0.50087 0.0
C251 C 0.22699 0.6822 0.51295 0.0
Zn252 Zn 0.32084 0.52704 0.75534 0.0
Zn253 Zn 0.3531 0.50247 0.7449 0.0
O254 O 0.33817 0.48685 0.76834 0.0
O255 O 0.31043 0.5053 0.77549 0.0
O256 O 0.37538 0.4822 0.73673 0.0
O257 O 0.31009 0.52595 0.72438 0.0
O258 O 0.33666 0.50624 0.71625 0.0
C259 C 0.32168 0.48959 0.77884 0.0
C260 C 0.36357 0.54701 0.76524 0.0
O261 O 0.36971 0.52961 0.75698 0.0
O262 O 0.34381 0.54971 0.76649 0.0
C263 C 0.39457 0.48748 0.73293 0.0
O264 O 0.40115 0.50775 0.73422 0.0
C265 C 0.32023 0.51598 0.71052 0.0
Zn266 Zn 0.57799 0.00411 0.78217 0.0
Zn267 Zn 0.60748 0.99203 0.75475 0.0
O268 O 0.58842 0.9647 0.75733 0.0
O269 O 0.56372 0.97448 0.77875 0.0
O270 O 0.62827 0.98305 0.73317 0.0
O271 O 0.56919 0.02686 0.76265 0.0
O272 O 0.59421 0.01773 0.74132 0.0
C273 C 0.57178 0.96018 0.76728 0.0
C274 C 0.62174 0.00799 0.80026 0.0
O275 O 0.62603 0.00077 0.78178 0.0
O276 O 0.60256 0.01087 0.80447 0.0
C277 C 0.64637 0.97597 0.73802 0.0
O278 O 0.65223 0.97406 0.75818 0.0
C279 C 0.57933 0.02978 0.74611 0.0
Zn280 Zn 0.7762 0.57164 0.01009 0.0
Zn281 Zn 0.75268 0.60322 0.99585 0.0
O282 O 0.757 0.58419 0.96884 0.0
O283 O 0.77557 0.558 0.98031 0.0
O284 O 0.73322 0.62517 0.98498 0.0
O285 O 0.75356 0.56351 0.03007 0.0
O286 O 0.73564 0.59059 0.0197 0.0
C287 C 0.76633 0.56698 0.96512 0.0
C288 C 0.79699 0.61426 0.01693 0.0
O289 O 0.77991 0.62004 0.00766 0.0
O290 O 0.79923 0.5947 0.01991 0.0
C291 C 0.73863 0.64455 0.98208 0.0
O292 O 0.7586 0.65164 0.98606 0.0
C293 C 0.73774 0.575 0.03161 0.0
Zn294 Zn 0.93416 0.50767 0.72567 0.0
Zn295 Zn 0.90231 0.51601 0.75144 0.0
O296 O 0.91666 0.49131 0.76541 0.0
O297 O 0.94321 0.48472 0.74506 0.0
O298 O 0.87954 0.52333 0.77123 0.0
O299 O 0.94626 0.53808 0.73051 0.0
O300 O 0.91941 0.54474 0.75038 0.0
C301 C 0.93256 0.4805 0.76099 0.0
C302 C 0.89151 0.50052 0.70522 0.0
O303 O 0.88565 0.5062 0.72364 0.0
O304 O 0.9112 0.50015 0.70186 0.0
C305 C 0.86516 0.50967 0.77596 0.0
O306 O 0.86506 0.49001 0.76763 0.0
C307 C 0.93625 0.55114 0.74167 0.0
Zn308 Zn 0.75406 0.32456 0.53709 0.0
Zn309 Zn 0.74634 0.35442 0.50866 0.0
O310 O 0.77085 0.33835 0.49622 0.0
O311 O 0.77729 0.31385 0.51903 0.0
O312 O 0.73981 0.37539 0.48634 0.0
O313 O 0.72358 0.31271 0.53262 0.0
O314 O 0.71723 0.33816 0.51087 0.0
C315 C 0.78165 0.32295 0.50219 0.0
C316 C 0.76178 0.36807 0.55462 0.0
O317 O 0.75641 0.37261 0.53565 0.0
O318 O 0.76166 0.34875 0.55948 0.0
C319 C 0.74293 0.39558 0.48885 0.0
O320 O 0.75105 0.40422 0.50725 0.0
C321 C 0.71064 0.32212 0.52075 0.0
Zn322 Zn 0.6807 0.47585 0.25039 0.0
Zn323 Zn 0.64927 0.49981 0.26415 0.0
O324 O 0.66848 0.49648 0.29127 0.0
O325 O 0.69414 0.47689 0.2803 0.0
O326 O 0.6275 0.51982 0.27425 0.0
O327 O 0.689 0.49797 0.22984 0.0
O328 O 0.66174 0.5159 0.23965 0.0
C329 C 0.68546 0.48685 0.29525 0.0
C330 C 0.63798 0.4551 0.24436 0.0
O331 O 0.63229 0.47226 0.25354 0.0
O332 O 0.65747 0.4529 0.24101 0.0
C333 C 0.60777 0.5183 0.26825 0.0
O334 O 0.60032 0.50229 0.25511 0.0
C335 C 0.67734 0.5136 0.2278 0.0
H336 H 0.02848 0.45022 0.28133 0.0
H337 H 0.01802 0.41406 0.29066 0.0
H338 H 0.07658 0.39163 0.26764 0.0
H339 H 0.08728 0.42783 0.25818 0.0
H340 H 0.01639 0.3701 0.2664 0.0
H341 H 0.07693 0.38435 0.33482 0.0
H342 H 0.06667 0.40596 0.32036 0.0
H343 H 0.0853 0.389 0.30847 0.0
C344 C 0.03896 0.43754 0.27781 0.0
C345 C 0.05886 0.44195 0.26931 0.0
C346 C 0.03289 0.41688 0.28307 0.0
C347 C 0.04664 0.40033 0.28001 0.0
C348 C 0.06583 0.4043 0.27016 0.0
H349 H 0.04371 0.28437 0.34958 0.0
H350 H 0.05368 0.31124 0.32474 0.0
C351 C 0.07189 0.42497 0.26476 0.0
C352 C 0.04205 0.37981 0.28965 0.0
H353 H 0.05539 0.3527 0.33346 0.0
C354 C 0.02503 0.36608 0.28092 0.0
C355 C 0.05339 0.37474 0.30856 0.0
C356 C 0.07154 0.38926 0.31878 0.0
C357 C 0.01889 0.34738 0.29082 0.0
C358 C 0.02971 0.34274 0.31024 0.0
C359 C 0.04711 0.35624 0.31857 0.0
C360 C 0.02272 0.32472 0.32296 0.0
C361 C 0.00094 0.33282 0.28036 0.0
C362 C 0.00193 0.32322 0.3301 0.0
C363 C 0.99613 0.30773 0.34416 0.0
C364 C 0.01114 0.29375 0.35166 0.0
C365 C 0.03182 0.29501 0.34418 0.0
C366 C 0.03752 0.31031 0.32994 0.0
H367 H -0.00047 0.33444 0.26283 0.0
H368 H 0.00328 0.31585 0.28342 0.0
H369 H 0.98565 0.33726 0.28689 0.0
H370 H 0.99041 0.33453 0.32545 0.0
H371 H 0.98012 0.30724 0.34973 0.0
H372 H 0.92421 0.74962 0.59662 0.0
H373 H 0.88633 0.75511 0.58888 0.0
H374 H 0.90181 0.7852 0.53124 0.0
H375 H 0.93939 0.77949 0.53857 0.0
H376 H 0.87173 0.79444 0.58753 0.0
H377 H 0.84819 0.75029 0.51081 0.0
H378 H 0.8718 0.74469 0.52679 0.0
H379 H 0.87258 0.76604 0.50881 0.0
C380 C 0.91946 0.75685 0.58199 0.0
C381 C 0.93484 0.76427 0.56829 0.0
C382 C 0.89781 0.75998 0.5776 0.0
C383 C 0.89119 0.77034 0.55936 0.0
C384 C 0.90642 0.7767 0.54513 0.0
H385 H 0.80724 0.85511 0.51175 0.0
H386 H 0.83341 0.82909 0.51998 0.0
C387 C 0.92799 0.77361 0.54948 0.0
C388 C 0.86918 0.77751 0.55665 0.0
H389 H 0.82904 0.78237 0.51867 0.0
C390 C 0.86205 0.79131 0.57273 0.0
C391 C 0.85656 0.77337 0.53735 0.0
C392 C 0.86261 0.75759 0.52008 0.0
C393 C 0.84358 0.8025 0.56933 0.0
C394 C 0.83188 0.79959 0.5494 0.0
C395 C 0.83816 0.78467 0.53388 0.0
C396 C 0.81487 0.81385 0.54346 0.0
C397 C 0.83758 0.8185 0.58646 0.0
C398 C 0.79562 0.81364 0.55374 0.0
C399 C 0.78057 0.82859 0.54911 0.0
C400 C 0.78461 0.84394 0.53414 0.0
C401 C 0.80367 0.84361 0.52346 0.0
C402 C 0.81861 0.82868 0.52805 0.0
H403 H 0.84983 0.82067 0.59998 0.0
H404 H 0.83534 0.83423 0.5797 0.0
H405 H 0.82223 0.81298 0.5928 0.0
H406 H 0.79239 0.80216 0.56555 0.0
H407 H 0.76599 0.82834 0.55751 0.0
H408 H 0.40682 0.5493 0.76119 0.0
H409 H 0.43316 0.57595 0.77838 0.0
H410 H 0.38269 0.60858 0.80767 0.0
H411 H 0.35629 0.58251 0.79012 0.0
H412 H 0.41182 0.63619 0.79242 0.0
H413 H 0.45231 0.57738 0.84106 0.0
H414 H 0.45176 0.57169 0.81271 0.0
H415 H 0.42722 0.57093 0.82611 0.0
C416 C 0.40134 0.56223 0.7712 0.0
C417 C 0.37948 0.5637 0.77442 0.0
C418 C 0.41641 0.57736 0.7811 0.0
C419 C 0.4099 0.59398 0.79462 0.0
C420 C 0.38806 0.59582 0.79734 0.0
H421 H 0.46967 0.66846 0.90025 0.0
H422 H 0.4518 0.6416 0.87481 0.0
C423 C 0.37299 0.58088 0.7873 0.0
C424 C 0.42564 0.60931 0.80646 0.0
H425 H 0.46587 0.61311 0.84554 0.0
C426 C 0.42378 0.63118 0.80392 0.0
C427 C 0.44107 0.60265 0.82157 0.0
C428 C 0.44317 0.57941 0.82573 0.0
C429 C 0.43646 0.64665 0.81656 0.0
C430 C 0.45184 0.63999 0.83172 0.0
C431 C 0.45416 0.61812 0.83379 0.0
C432 C 0.46425 0.65543 0.84693 0.0
C433 C 0.43247 0.66991 0.8143 0.0
C434 C 0.47763 0.67179 0.83972 0.0
C435 C 0.48768 0.68736 0.85422 0.0
C436 C 0.48478 0.68658 0.87621 0.0
C437 C 0.47221 0.66955 0.88343 0.0
C438 C 0.462 0.65416 0.86891 0.0
H439 H 0.41693 0.672 0.80556 0.0
H440 H 0.43263 0.67862 0.83018 0.0
H441 H 0.44527 0.67735 0.80521 0.0
H442 H 0.47999 0.67275 0.82285 0.0
H443 H 0.49746 0.70015 0.84818 0.0
H444 H 0.55019 0.21465 0.09503 0.0
H445 H 0.5835 0.19714 0.08895 0.0
H446 H 0.58907 0.22865 0.03019 0.0
H447 H 0.55607 0.24623 0.03605 0.0
H448 H 0.59731 0.17588 0.03741 0.0
H449 H 0.64316 0.2427 0.08484 0.0
H450 H 0.61729 0.23254 0.09222 0.0
H451 H 0.61924 0.24815 0.06934 0.0
C452 C 0.55829 0.21751 0.08061 0.0
C453 C 0.55059 0.23196 0.06609 0.0
C454 C 0.57728 0.20753 0.07721 0.0
C455 C 0.58863 0.21176 0.05919 0.0
C456 C 0.58044 0.22526 0.04418 0.0
H457 H 0.7019 0.21124 0.99841 0.0
H458 H 0.66927 0.21708 0.01662 0.0
C459 C 0.56161 0.2353 0.04759 0.0
C460 C 0.60994 0.20366 0.05653 0.0
H461 H 0.66271 0.21988 0.06326 0.0
C462 C 0.6117 0.1851 0.04348 0.0
C463 C 0.62851 0.21591 0.06444 0.0
C464 C 0.62717 0.23595 0.07856 0.0
C465 C 0.6317 0.17908 0.03715 0.0
C466 C 0.6502 0.19202 0.04412 0.0
C467 C 0.64847 0.20998 0.05806 0.0
C468 C 0.67091 0.18891 0.03475 0.0
C469 C 0.63284 0.15977 0.02197 0.0
C470 C 0.68284 0.17136 0.03934 0.0
C471 C 0.70164 0.168 0.02901 0.0
C472 C 0.70863 0.1821 0.01385 0.0
C473 C 0.69692 0.20002 0.00989 0.0
C474 C 0.67829 0.20342 0.0203 0.0
H475 H 0.61677 0.15242 0.01673 0.0
H476 H 0.64125 0.16425 0.00765 0.0
H477 H 0.64212 0.14762 0.02991 0.0
H478 H 0.67742 0.16011 0.05061 0.0
H479 H 0.71031 0.15404 0.0324 0.0
H480 H 0.03882 0.55407 0.23565 0.0
H481 H 0.03532 0.5869 0.21708 0.0
H482 H 0.09943 0.58318 0.19661 0.0
H483 H 0.10305 0.55008 0.21505 0.0
H484 H 0.09023 0.62242 0.22014 0.0
H485 H 0.0308 0.60066 0.15286 0.0
H486 H 0.0234 0.59047 0.17772 0.0
H487 H 0.04666 0.58124 0.16551 0.0
C488 C 0.05202 0.55995 0.2268 0.0
C489 C 0.07123 0.54953 0.22687 0.0
C490 C 0.04995 0.57865 0.2161 0.0
C491 C 0.06707 0.58734 0.20537 0.0
C492 C 0.086 0.57659 0.20468 0.0
H493 H 0.0398 0.70912 0.15015 0.0
H494 H 0.05795 0.67589 0.15413 0.0
C495 C 0.088 0.55767 0.21517 0.0
C496 C 0.06576 0.60884 0.19717 0.0
H497 H 0.03418 0.63775 0.16529 0.0
C498 C 0.07835 0.62578 0.20777 0.0
C499 C 0.05041 0.61311 0.18092 0.0
C500 C 0.03717 0.59539 0.16843 0.0
C501 C 0.07481 0.64705 0.20368 0.0
C502 C 0.05824 0.65136 0.18869 0.0
C503 C 0.0468 0.63438 0.17688 0.0
C504 C 0.05054 0.67304 0.18708 0.0
C505 C 0.08817 0.66477 0.21604 0.0
C506 C 0.0407 0.68253 0.2044 0.0
C507 C 0.03017 0.7013 0.20214 0.0
C508 C 0.02937 0.71098 0.18251 0.0
C509 C 0.04027 0.7021 0.16551 0.0
C510 C 0.05059 0.68311 0.16772 0.0
H511 H 0.10379 0.65922 0.22196 0.0
H512 H 0.09105 0.67857 0.20607 0.0
H513 H 0.07957 0.67031 0.23008 0.0
H514 H 0.04021 0.67482 0.21937 0.0
H515 H 0.02195 0.70777 0.21552 0.0
H516 H 0.58874 0.78937 0.35953 0.0
H517 H 0.6154 0.8047 0.38652 0.0
H518 H 0.58008 0.77659 0.43587 0.0
H519 H 0.55291 0.76155 0.40891 0.0
H520 H 0.5908 0.81792 0.44566 0.0
H521 H 0.66228 0.77849 0.42041 0.0
H522 H 0.64955 0.79083 0.39846 0.0
H523 H 0.63562 0.76922 0.4106 0.0
C524 C 0.58673 0.78618 0.37608 0.0
C525 C 0.56869 0.77422 0.38206 0.0
C526 C 0.60211 0.79483 0.39149 0.0
C527 C 0.59995 0.79144 0.41316 0.0
C528 C 0.58213 0.77924 0.4192 0.0
H529 H 0.70704 0.84663 0.49771 0.0
H530 H 0.67925 0.82064 0.48212 0.0
C531 C 0.56663 0.77067 0.40378 0.0
C532 C 0.61544 0.80217 0.42947 0.0
H533 H 0.66883 0.81226 0.44099 0.0
C534 C 0.60785 0.81638 0.44492 0.0
C535 C 0.63765 0.79983 0.42884 0.0
C536 C 0.64672 0.78357 0.41382 0.0
C537 C 0.62197 0.82937 0.45881 0.0
C538 C 0.64421 0.82847 0.45677 0.0
C539 C 0.65177 0.81321 0.44232 0.0
C540 C 0.65985 0.84424 0.46814 0.0
C541 C 0.61288 0.84413 0.47528 0.0
C542 C 0.65814 0.86612 0.4655 0.0
C543 C 0.67387 0.881 0.4745 0.0
C544 C 0.69184 0.87425 0.48601 0.0
C545 C 0.6934 0.85234 0.48889 0.0
C546 C 0.67754 0.83747 0.48002 0.0
H547 H 0.59716 0.83757 0.48001 0.0
H548 H 0.62381 0.84691 0.48979 0.0
H549 H 0.61032 0.85971 0.46835 0.0
H550 H 0.64497 0.87167 0.45587 0.0
H551 H 0.67225 0.89773 0.47184 0.0
H552 H 0.47284 0.31373 0.71841 0.0
H553 H 0.46486 0.35083 0.72549 0.0
H554 H 0.49744 0.36847 0.66993 0.0
H555 H 0.50522 0.33109 0.66239 0.0
H556 H 0.48854 0.3902 0.73155 0.0
H557 H 0.43582 0.38454 0.65684 0.0
H558 H 0.44677 0.36136 0.6679 0.0
H559 H 0.46343 0.37948 0.6541 0.0
C560 C 0.47863 0.32549 0.70782 0.0
C561 C 0.48935 0.31936 0.68961 0.0
C562 C 0.47412 0.34674 0.71196 0.0
C563 C 0.48022 0.36231 0.69802 0.0
C564 C 0.49227 0.35659 0.68067 0.0
H565 H 0.43737 0.49236 0.72639 0.0
H566 H 0.46131 0.46425 0.71676 0.0
C567 C 0.49678 0.33525 0.67646 0.0
C568 C 0.47196 0.38385 0.70074 0.0
H569 H 0.4344 0.4151 0.67958 0.0
C570 C 0.47703 0.39592 0.72002 0.0
C571 C 0.45677 0.39108 0.68572 0.0
C572 C 0.45019 0.37845 0.66502 0.0
C573 C 0.46659 0.41456 0.72511 0.0
C574 C 0.45086 0.42131 0.71042 0.0
C575 C 0.44655 0.40983 0.69073 0.0
C576 C 0.43683 0.43858 0.71618 0.0
C577 C 0.47147 0.42622 0.74662 0.0
C578 C 0.41518 0.4334 0.71878 0.0
C579 C 0.40153 0.4493 0.72425 0.0
C580 C 0.40924 0.47077 0.7271 0.0
C581 C 0.43096 0.47597 0.72434 0.0
C582 C 0.44466 0.45996 0.71892 0.0
H583 H 0.48239 0.41754 0.75711 0.0
H584 H 0.4791 0.44224 0.74442 0.0
H585 H 0.45648 0.42855 0.75479 0.0
H586 H 0.40886 0.41697 0.71671 0.0
H587 H 0.38491 0.44473 0.7262 0.0
H588 H 0.98598 0.26042 0.93856 0.0
H589 H 0.95901 0.25022 0.96342 0.0
H590 H 0.9247 0.21053 0.91311 0.0
H591 H 0.95166 0.22013 0.88846 0.0
H592 H 0.91753 0.25718 0.9619 0.0
H593 H 0.92565 0.17036 0.96051 0.0
H594 H 0.94554 0.18834 0.95032 0.0
H595 H 0.92233 0.17849 0.93372 0.0
C596 C 0.97279 0.24933 0.93288 0.0
C597 C 0.971 0.24101 0.91155 0.0
C598 C 0.95744 0.2435 0.94711 0.0
C599 C 0.94011 0.22923 0.94026 0.0
C600 C 0.93829 0.22101 0.91896 0.0
H601 H 0.81192 0.2192 0.95932 0.0
H602 H 0.84888 0.23122 0.95605 0.0
C603 C 0.95364 0.2267 0.90481 0.0
C604 C 0.92289 0.22403 0.95464 0.0
H605 H 0.89026 0.18226 0.96779 0.0
C606 C 0.91186 0.24078 0.96366 0.0
C607 C 0.91584 0.20268 0.95759 0.0
C608 C 0.92816 0.18399 0.95022 0.0
C609 C 0.8928 0.23673 0.97373 0.0
C610 C 0.88432 0.21543 0.97421 0.0
C611 C 0.89647 0.19865 0.96707 0.0
C612 C 0.86185 0.21027 0.97907 0.0
C613 C 0.88165 0.25538 0.98313 0.0
C614 C 0.85668 0.19428 0.993 0.0
C615 C 0.83539 0.18701 0.99461 0.0
C616 C 0.81894 0.19557 0.98226 0.0
C617 C 0.82414 0.21225 0.96912 0.0
C618 C 0.84534 0.21936 0.96741 0.0
H619 H 0.89344 0.2683 0.98958 0.0
H620 H 0.87152 0.26206 0.9704 0.0
H621 H 0.87141 0.25061 0.9961 0.0
H622 H 0.86917 0.18691 0.00203 0.0
H623 H 0.83193 0.17415 0.0049 0.0
H624 H 0.25811 0.09589 0.42528 0.0
H625 H 0.26629 0.08612 0.38846 0.0
H626 H 0.28055 0.02306 0.40656 0.0
H627 H 0.27252 0.03264 0.44328 0.0
H628 H 0.30843 0.07384 0.38164 0.0
H629 H 0.24791 0.01189 0.3475 0.0
H630 H 0.24289 0.03045 0.36944 0.0
H631 H 0.25787 0.00745 0.37415 0.0
C632 C 0.26234 0.07974 0.42127 0.0
C633 C 0.26489 0.06509 0.43721 0.0
C634 C 0.26701 0.0742 0.40024 0.0
C635 C 0.27386 0.05384 0.39479 0.0
C636 C 0.27493 0.03874 0.41035 0.0
H637 H 0.3462 0.98573 0.30734 0.0
H638 H 0.32133 0.99812 0.33323 0.0
C639 C 0.2705 0.0443 0.43138 0.0
C640 C 0.28335 0.0494 0.37413 0.0
H641 H 0.28161 0.01349 0.33119 0.0
C642 C 0.30236 0.06095 0.37032 0.0
C643 C 0.27547 0.03243 0.35962 0.0
C644 C 0.2548 0.01994 0.36274 0.0
C645 C 0.31443 0.05521 0.35304 0.0
C646 C 0.30689 0.03781 0.33879 0.0
C647 C 0.28736 0.02682 0.34211 0.0
C648 C 0.31993 0.02977 0.32146 0.0
C649 C 0.33579 0.06699 0.35108 0.0
C650 C 0.32687 0.04323 0.30584 0.0
C651 C 0.3414 0.03632 0.29129 0.0
C652 C 0.34884 0.01565 0.29181 0.0
C653 C 0.34083 0.00177 0.3066 0.0
C654 C 0.32656 0.0088 0.32136 0.0
H655 H 0.34144 0.07626 0.3661 0.0
H656 H 0.34812 0.05575 0.34684 0.0
H657 H 0.33431 0.07839 0.3383 0.0
H658 H 0.3215 0.05927 0.30526 0.0
H659 H 0.34704 0.04726 0.27983 0.0
H660 H 0.21657 0.02015 0.70577 0.0
H661 H 0.22129 0.03798 0.67268 0.0
H662 H 0.15756 0.05987 0.67439 0.0
H663 H 0.15271 0.04218 0.70771 0.0
H664 H 0.16734 0.03519 0.63587 0.0
H665 H 0.22735 0.10199 0.65792 0.0
H666 H 0.23391 0.07711 0.66867 0.0
H667 H 0.21072 0.09 0.67712 0.0
C668 C 0.20372 0.02916 0.69939 0.0
C669 C 0.18424 0.02969 0.70931 0.0
C670 C 0.20648 0.03942 0.68054 0.0
C671 C 0.18981 0.05032 0.67121 0.0
C672 C 0.17064 0.05164 0.68147 0.0
H673 H 0.21676 0.10537 0.54933 0.0
H674 H 0.19938 0.10096 0.58289 0.0
C675 C 0.16794 0.04158 0.70052 0.0
C676 C 0.19179 0.05809 0.64962 0.0
H677 H 0.22399 0.08959 0.62092 0.0
C678 C 0.17938 0.04743 0.63259 0.0
C679 C 0.20739 0.07415 0.64545 0.0
C680 C 0.22049 0.08664 0.66327 0.0
C681 C 0.18322 0.05138 0.61135 0.0
C682 C 0.19989 0.06631 0.60717 0.0
C683 C 0.21128 0.07806 0.62421 0.0
C684 C 0.20748 0.06818 0.58549 0.0
C685 C 0.16999 0.03903 0.59353 0.0
C686 C 0.21747 0.05109 0.57577 0.0
C687 C 0.22756 0.05358 0.55678 0.0
C688 C 0.22776 0.07322 0.54711 0.0
C689 C 0.21678 0.09 0.55632 0.0
C690 C 0.2069 0.08756 0.5755 0.0
H691 H 0.15445 0.03279 0.59901 0.0
H692 H 0.16694 0.04914 0.57988 0.0
H693 H 0.1788 0.02522 0.58779 0.0
H694 H 0.21833 0.0361 0.58341 0.0
H695 H 0.23586 0.04036 0.55008 0.0
H696 H 0.22295 0.98011 0.81129 0.0
H697 H 0.23261 0.97101 0.8477 0.0
H698 H 0.17129 0.98919 0.86752 0.0
H699 H 0.16141 0.99845 0.83101 0.0
H700 H 0.23081 0.99446 0.89163 0.0
H701 H 0.17539 0.92228 0.87437 0.0
H702 H 0.18545 0.93771 0.85333 0.0
H703 H 0.16548 0.94804 0.8697 0.0
C704 C 0.21167 0.98264 0.82347 0.0
C705 C 0.1913 0.98972 0.81822 0.0
C706 C 0.21727 0.97751 0.84427 0.0
C707 C 0.20258 0.97925 0.86014 0.0
C708 C 0.18278 0.9877 0.85538 0.0
H709 H 0.21019 0.90506 0.97329 0.0
H710 H 0.19784 0.93024 0.94771 0.0
C711 C 0.1772 0.99301 0.83455 0.0
C712 C 0.2071 0.96962 0.88069 0.0
H713 H 0.19676 0.92401 0.90612 0.0
C714 C 0.22318 0.97921 0.89505 0.0
C715 C 0.19707 0.94977 0.885 0.0
C716 C 0.17994 0.93867 0.86982 0.0
C717 C 0.22982 0.96918 0.91351 0.0
C718 C 0.22053 0.94877 0.91726 0.0
C719 C 0.20388 0.93963 0.90325 0.0
C720 C 0.22868 0.93581 0.93464 0.0
C721 C 0.24673 0.98052 0.92871 0.0
C722 C 0.25016 0.93066 0.93593 0.0
C723 C 0.25731 0.91643 0.95068 0.0
C724 C 0.243 0.90673 0.96412 0.0
C725 C 0.22158 0.91219 0.96308 0.0
C726 C 0.21451 0.92662 0.94851 0.0
H727 H 0.24646 0.99813 0.92793 0.0
H728 H 0.24463 0.97635 0.94543 0.0
H729 H 0.26269 0.97583 0.92414 0.0
H730 H 0.26126 0.93701 0.92499 0.0
H731 H 0.27387 0.91244 0.951 0.0
H732 H 0.27527 0.90759 0.04588 0.0
H733 H 0.29532 0.93275 0.07175 0.0
H734 H 0.297 0.88426 0.11763 0.0
H735 H 0.27745 0.85885 0.09176 0.0
H736 H 0.28899 0.94861 0.11285 0.0
H737 H 0.35998 0.9001 0.11128 0.0
H738 H 0.33743 0.89534 0.09222 0.0
H739 H 0.33642 0.88538 0.11846 0.0
C740 C 0.27971 0.90234 0.06156 0.0
C741 C 0.27506 0.88114 0.06668 0.0
C742 C 0.29115 0.91674 0.0763 0.0
C743 C 0.29804 0.91018 0.09638 0.0
C744 C 0.29228 0.88944 0.102 0.0
H745 H 0.35159 0.98427 0.20818 0.0
H746 H 0.32779 0.96586 0.18016 0.0
C747 C 0.28104 0.87498 0.08723 0.0
C748 C 0.31212 0.92464 0.11108 0.0
H749 H 0.36088 0.92836 0.13809 0.0
C750 C 0.30476 0.94429 0.11831 0.0
C751 C 0.33286 0.91914 0.11776 0.0
C752 C 0.34226 0.89895 0.10937 0.0
C753 C 0.31742 0.95835 0.1326 0.0
C754 C 0.33773 0.95232 0.14013 0.0
C755 C 0.34525 0.93291 0.13243 0.0
C756 C 0.35141 0.96549 0.15637 0.0
C757 C 0.30902 0.97958 0.13927 0.0
C758 C 0.37268 0.9712 0.1524 0.0
C759 C 0.38645 0.98135 0.16851 0.0
C760 C 0.37915 0.98607 0.18888 0.0
C761 C 0.35766 0.98098 0.19261 0.0
C762 C 0.34397 0.9706 0.17655 0.0
H763 H 0.29696 0.98457 0.12723 0.0
H764 H 0.30116 0.97817 0.15454 0.0
H765 H 0.32211 0.99226 0.14167 0.0
H766 H 0.37877 0.96733 0.13694 0.0
H767 H 0.40289 0.98516 0.1651 0.0
H768 H 0.29263 0.3345 0.98381 0.0
H769 H 0.32077 0.31105 0.99404 0.0
H770 H 0.31707 0.33242 0.06009 0.0
H771 H 0.28929 0.35619 0.04999 0.0
H772 H 0.3569 0.33754 0.04644 0.0
H773 H 0.32394 0.2552 0.02374 0.0
H774 H 0.32134 0.27308 0.00257 0.0
H775 H 0.30728 0.2776 0.0264 0.0
C776 C 0.29753 0.33392 0.00055 0.0
C777 C 0.2889 0.34736 0.01607 0.0
C778 C 0.31349 0.32035 0.0064 0.0
C779 C 0.32085 0.31982 0.02785 0.0
C780 C 0.31155 0.33252 0.04345 0.0
H781 H 0.42758 0.25658 0.08617 0.0
H782 H 0.391 0.26554 0.07623 0.0
C783 C 0.29573 0.34616 0.03763 0.0
C784 C 0.34007 0.30836 0.03372 0.0
H785 H 0.36201 0.25978 0.0306 0.0
C786 C 0.35788 0.32049 0.04322 0.0
C787 C 0.34133 0.28611 0.0295 0.0
C788 C 0.32239 0.27218 0.02018 0.0
C789 C 0.37708 0.31112 0.04811 0.0
C790 C 0.3786 0.28908 0.04316 0.0
C791 C 0.36072 0.27672 0.03418 0.0
C792 C 0.39912 0.27919 0.04671 0.0
C793 C 0.39583 0.32491 0.0582 0.0
C794 C 0.41546 0.28322 0.03295 0.0
C795 C 0.4363 0.27828 0.0386 0.0
C796 C 0.44113 0.26921 0.05812 0.0
C797 C 0.42437 0.26359 0.07105 0.0
C798 C 0.40348 0.26864 0.0654 0.0
H799 H 0.39111 0.34091 0.06394 0.0
H800 H 0.40335 0.31704 0.07186 0.0
H801 H 0.40802 0.3271 0.04628 0.0
H802 H 0.41231 0.29138 0.01847 0.0
H803 H 0.4488 0.28262 0.02818 0.0
H804 H 0.97324 0.81006 0.22394 0.0
H805 H 0.96282 0.84599 0.23366 0.0
H806 H 0.98587 0.86816 0.17502 0.0
H807 H 0.99646 0.83214 0.16505 0.0
H808 H 0.99253 0.8976 0.21857 0.0
H809 H 0.91042 0.86522 0.19209 0.0
H810 H 0.92569 0.84942 0.20969 0.0
H811 H 0.93404 0.85313 0.18324 0.0
C812 C 0.97657 0.82263 0.21329 0.0
C813 C 0.98538 0.81817 0.19355 0.0
C814 C 0.97066 0.84316 0.21892 0.0
C815 C 0.97345 0.85955 0.20496 0.0
C816 C 0.98367 0.85563 0.18599 0.0
H817 H 0.89305 0.96715 0.20473 0.0
H818 H 0.91628 0.93922 0.19367 0.0
C819 C 0.98967 0.83505 0.18033 0.0
C820 C 0.96302 0.87974 0.20889 0.0
H821 H 0.91375 0.89978 0.20898 0.0
C822 C 0.97534 0.89823 0.21636 0.0
C823 C 0.94065 0.88043 0.20571 0.0
C824 C 0.92684 0.86107 0.1971 0.0
C825 C 0.96565 0.91739 0.22131 0.0
C826 C 0.94315 0.91782 0.21889 0.0
C827 C 0.93099 0.89942 0.21086 0.0
C828 C 0.93155 0.93686 0.22511 0.0
C829 C 0.97954 0.93697 0.22896 0.0
C830 C 0.93261 0.945 0.24643 0.0
C831 C 0.91935 0.96102 0.25282 0.0
C832 C 0.90463 0.96898 0.23803 0.0
C833 C 0.90411 0.96128 0.21655 0.0
C834 C 0.91743 0.94536 0.21018 0.0
H835 H 0.99618 0.93578 0.2241 0.0
H836 H 0.97307 0.95161 0.22268 0.0
H837 H 0.98005 0.93863 0.24666 0.0
H838 H 0.94303 0.93834 0.25832 0.0
H839 H 0.92011 0.96659 0.26948 0.0
H840 H 0.20587 0.7189 0.51588 0.0
H841 H 0.1725 0.72438 0.53303 0.0
H842 H 0.17309 0.66114 0.55626 0.0
H843 H 0.20669 0.65554 0.53931 0.0
H844 H 0.13477 0.67165 0.53032 0.0
H845 H 0.15765 0.73121 0.59747 0.0
H846 H 0.16886 0.73702 0.57258 0.0
H847 H 0.17643 0.7138 0.58591 0.0
C848 C 0.19917 0.70632 0.52503 0.0
C849 C 0.20888 0.68677 0.52619 0.0
C850 C 0.18015 0.70951 0.53487 0.0
C851 C 0.17045 0.69319 0.54596 0.0
C852 C 0.18046 0.67395 0.54786 0.0
H853 H 0.04914 0.71776 0.60302 0.0
H854 H 0.08295 0.70136 0.59715 0.0
C855 C 0.19967 0.67082 0.53823 0.0
C856 C 0.14885 0.69564 0.55353 0.0
H857 H 0.12063 0.72764 0.58572 0.0
C858 C 0.13165 0.68359 0.54272 0.0
C859 C 0.14492 0.71114 0.56976 0.0
C860 C 0.16293 0.72394 0.58227 0.0
C861 C 0.11049 0.68755 0.5469 0.0
C862 C 0.10655 0.70395 0.56221 0.0
C863 C 0.12376 0.71512 0.57391 0.0
C864 C 0.08486 0.71123 0.56488 0.0
C865 C 0.09247 0.67465 0.53449 0.0
C866 C 0.07469 0.72191 0.54853 0.0
C867 C 0.05553 0.73145 0.55186 0.0
C868 C 0.04616 0.73038 0.5716 0.0
C869 C 0.05588 0.71877 0.5876 0.0
C870 C 0.07522 0.70944 0.58432 0.0
H871 H 0.09788 0.65945 0.52734 0.0
H872 H 0.07918 0.67098 0.54488 0.0
H873 H 0.0862 0.68406 0.52134 0.0
H874 H 0.08206 0.72366 0.5335 0.0
H875 H 0.04844 0.74027 0.53923 0.0
H876 H 0.99477 0.70256 0.65099 0.0
H877 H 0.98778 0.67625 0.67719 0.0
H878 H 0.94369 0.71725 0.70668 0.0
H879 H 0.95049 0.74381 0.68032 0.0
H880 H 0.99133 0.68037 0.72393 0.0
H881 H 0.90853 0.65995 0.68925 0.0
H882 H 0.92808 0.67449 0.67483 0.0
H883 H 0.91607 0.68749 0.69687 0.0
C884 C 0.98364 0.7061 0.66308 0.0
C885 C 0.97302 0.7252 0.66344 0.0
C886 C 0.97977 0.69108 0.67811 0.0
C887 C 0.96514 0.69478 0.69374 0.0
C888 C 0.95491 0.71407 0.69459 0.0
H889 H 0.91526 0.58464 0.75862 0.0
H890 H 0.92283 0.62262 0.75366 0.0
C891 C 0.95883 0.7292 0.67955 0.0
C892 C 0.9599 0.67769 0.70813 0.0
H893 H 0.92227 0.6377 0.71451 0.0
C894 C 0.97609 0.67125 0.72223 0.0
C895 C 0.93994 0.66599 0.706 0.0
C896 C 0.92211 0.67215 0.69088 0.0
C897 C 0.97323 0.6527 0.73342 0.0
C898 C 0.95385 0.64009 0.73001 0.0
C899 C 0.93714 0.64737 0.71708 0.0
C900 C 0.95155 0.61797 0.73695 0.0
C901 C 0.99121 0.64647 0.74828 0.0
C902 C 0.96543 0.60282 0.72963 0.0
C903 C 0.96118 0.58117 0.73242 0.0
C904 C 0.94279 0.57418 0.74241 0.0
C905 C 0.92955 0.58948 0.75084 0.0
C906 C 0.93384 0.6112 0.74803 0.0
H907 H 0.00075 0.66081 0.75537 0.0
H908 H 0.98516 0.63709 0.76137 0.0
H909 H 0.00206 0.63662 0.73912 0.0
H910 H 0.9789 0.60756 0.72059 0.0
H911 H 0.97173 0.56984 0.72575 0.0
H912 H 0.24147 0.17226 0.44145 0.0
H913 H 0.21522 0.19865 0.43362 0.0
H914 H 0.1809 0.1806 0.48799 0.0
H915 H 0.20694 0.15449 0.49599 0.0
H916 H 0.17235 0.18857 0.4241 0.0
H917 H 0.18236 0.24547 0.49459 0.0
H918 H 0.20252 0.22731 0.48765 0.0
H919 H 0.18013 0.21841 0.50223 0.0
C920 C 0.22851 0.17417 0.45191 0.0
C921 C 0.22624 0.16123 0.4693 0.0
C922 C 0.21357 0.18927 0.44745 0.0
C923 C 0.19636 0.19186 0.46046 0.0
C924 C 0.19437 0.17928 0.47806 0.0
H925 H 0.071 0.22101 0.46644 0.0
H926 H 0.10893 0.21552 0.47191 0.0
C927 C 0.20917 0.16417 0.48247 0.0
C928 C 0.179 0.20578 0.45453 0.0
H929 H 0.14715 0.24253 0.47606 0.0
C930 C 0.16713 0.20082 0.43514 0.0
C931 C 0.17232 0.22179 0.46896 0.0
C932 C 0.18516 0.22871 0.48942 0.0
C933 C 0.14771 0.21009 0.43064 0.0
C934 C 0.14023 0.22496 0.44582 0.0
C935 C 0.15289 0.23107 0.4645 0.0
C936 C 0.11805 0.23172 0.44403 0.0
C937 C 0.13458 0.20266 0.41046 0.0
C938 C 0.11073 0.2434 0.42699 0.0
C939 C 0.08893 0.24652 0.42374 0.0
C940 C 0.07419 0.23799 0.43752 0.0
C941 C 0.08186 0.22761 0.4554 0.0
C942 C 0.10358 0.22452 0.45861 0.0
H943 H 0.14134 0.18887 0.4019 0.0
H944 H 0.11794 0.19797 0.41414 0.0
H945 H 0.13399 0.21591 0.39954 0.0
H946 H 0.12174 0.24938 0.41576 0.0
H947 H 0.08356 0.25472 0.4099 0.0
H948 H 0.64403 0.41956 0.21909 0.0
H949 H 0.61704 0.39324 0.20321 0.0
H950 H 0.56829 0.42521 0.23605 0.0
H951 H 0.59526 0.45218 0.25161 0.0
H952 H 0.58905 0.36518 0.21974 0.0
H953 H 0.54572 0.42474 0.1744 0.0
H954 H 0.57146 0.43115 0.1881 0.0
H955 H 0.54784 0.42944 0.20291 0.0
C956 C 0.62761 0.42099 0.22308 0.0
C957 C 0.62177 0.43812 0.23643 0.0
C958 C 0.61218 0.40587 0.21402 0.0
C959 C 0.59061 0.40746 0.21817 0.0
C960 C 0.58479 0.42397 0.23226 0.0
H961 H 0.5079 0.30029 0.15675 0.0
H962 H 0.52237 0.32653 0.18492 0.0
C963 C 0.60023 0.43929 0.24121 0.0
C964 C 0.57445 0.3922 0.20682 0.0
H965 H 0.53423 0.38877 0.16775 0.0
C966 C 0.57683 0.37029 0.20858 0.0
C967 C 0.55861 0.399 0.19224 0.0
C968 C 0.55576 0.42234 0.1891 0.0
C969 C 0.56466 0.35496 0.19527 0.0
C970 C 0.54926 0.36178 0.18023 0.0
C971 C 0.54602 0.38364 0.17936 0.0
C972 C 0.53846 0.34687 0.16342 0.0
C973 C 0.56943 0.33176 0.19648 0.0
C974 C 0.54191 0.35012 0.14195 0.0
C975 C 0.53344 0.33541 0.12585 0.0
C976 C 0.52142 0.31704 0.1309 0.0
C977 C 0.51731 0.31417 0.15237 0.0
C978 C 0.52564 0.32907 0.1685 0.0
H979 H 0.58457 0.32973 0.20595 0.0
H980 H 0.55631 0.3232 0.20423 0.0
H981 H 0.57055 0.3241 0.18026 0.0
H982 H 0.55174 0.36377 0.13767 0.0
H983 H 0.53687 0.33815 0.10949 0.0
H984 H 0.30196 0.78847 0.99043 0.0
H985 H 0.33557 0.78358 0.9736 0.0
H986 H 0.33231 0.84529 0.9473 0.0
H987 H 0.2985 0.85037 0.96407 0.0
H988 H 0.34782 0.78708 0.92854 0.0
H989 H 0.38881 0.84716 0.98802 0.0
H990 H 0.363 0.83449 0.99224 0.0
H991 H 0.36529 0.85447 0.97308 0.0
C992 C 0.30814 0.80085 0.98073 0.0
C993 C 0.29765 0.81989 0.97875 0.0
C994 C 0.32734 0.79802 0.97112 0.0
C995 C 0.33649 0.8142 0.95948 0.0
C996 C 0.32552 0.83272 0.95639 0.0
H997 H 0.459 0.78966 0.90317 0.0
H998 H 0.425 0.80609 0.90817 0.0
C999 C 0.30617 0.83552 0.96589 0.0
C1000 C 0.35827 0.81211 0.95217 0.0
H1001 H 0.41045 0.82746 0.966 0.0
C1002 C 0.36153 0.79619 0.93635 0.0
C1003 C 0.37604 0.82394 0.96263 0.0
C1004 C 0.3733 0.84094 0.98003 0.0
C1005 C 0.38221 0.79123 0.93125 0.0
C1006 C 0.4 0.80253 0.94226 0.0
C1007 C 0.39673 0.81899 0.95751 0.0
C1008 C 0.42189 0.79556 0.94008 0.0
C1009 C 0.38497 0.77312 0.91501 0.0
C1010 C 0.43171 0.785 0.9567 0.0
C1011 C 0.45103 0.77557 0.95392 0.0
C1012 C 0.46095 0.77668 0.93448 0.0
C1013 C 0.45176 0.78852 0.91834 0.0
C1014 C 0.4323 0.79782 0.9211 0.0
H1015 H 0.36952 0.76454 0.90952 0.0
H1016 H 0.39243 0.77951 0.90091 0.0
H1017 H 0.39575 0.76152 0.92184 0.0
H1018 H 0.42392 0.78317 0.9715 0.0
H1019 H 0.45773 0.76669 0.96671 0.0
H1020 H 0.96851 0.45814 0.76037 0.0
H1021 H 0.9742 0.4239 0.77573 0.0
H1022 H 0.91303 0.42518 0.80341 0.0
H1023 H 0.90717 0.45963 0.7882 0.0
H1024 H 0.97061 0.41114 0.82198 0.0
H1025 H 0.91329 0.36917 0.76043 0.0
H1026 H 0.92595 0.39504 0.75644 0.0
H1027 H 0.90537 0.39271 0.77493 0.0
C1028 C 0.95639 0.45134 0.77001 0.0
C1029 C 0.93733 0.46154 0.77295 0.0
C1030 C 0.95968 0.4318 0.77877 0.0
C1031 C 0.94393 0.42201 0.79047 0.0
C1032 C 0.92529 0.43251 0.7943 0.0
H1033 H 0.96655 0.29977 0.84744 0.0
H1034 H 0.95055 0.33369 0.841 0.0
C1035 C 0.92204 0.45221 0.78568 0.0
C1036 C 0.94668 0.40021 0.7974 0.0
H1037 H 0.93312 0.34783 0.78276 0.0
C1038 C 0.96216 0.39727 0.81374 0.0
C1039 C 0.9357 0.38226 0.78639 0.0
C1040 C 0.91917 0.38475 0.76849 0.0
C1041 C 0.96742 0.37671 0.81897 0.0
C1042 C 0.9569 0.35875 0.8075 0.0
C1043 C 0.94099 0.36169 0.79158 0.0
C1044 C 0.96395 0.33701 0.81033 0.0
C1045 C 0.98489 0.37426 0.83597 0.0
C1046 C 0.97611 0.3274 0.79486 0.0
C1047 C 0.98533 0.30813 0.79849 0.0
C1048 C 0.9824 0.29805 0.81762 0.0
C1049 C 0.9691 0.30711 0.83254 0.0
C1050 C 0.96002 0.32651 0.82895 0.0
H1051 H 0.99283 0.38986 0.84198 0.0
H1052 H 0.97804 0.36638 0.84962 0.0
H1053 H 0.99712 0.36394 0.82961 0.0
H1054 H 0.97925 0.33529 0.78037 0.0
H1055 H 0.99538 0.30154 0.78663 0.0
H1056 H 0.3363 0.10623 0.53698 0.0
H1057 H 0.36343 0.1319 0.55403 0.0
H1058 H 0.33306 0.18312 0.52368 0.0
H1059 H 0.30539 0.15758 0.50702 0.0
H1060 H 0.39235 0.16033 0.53925 0.0
H1061 H 0.33337 0.20255 0.58619 0.0
H1062 H 0.32665 0.17752 0.57125 0.0
H1063 H 0.32838 0.20198 0.55775 0.0
C1064 C 0.33545 0.12293 0.53378 0.0
C1065 C 0.31853 0.12991 0.52088 0.0
C1066 C 0.35099 0.13758 0.54352 0.0
C1067 C 0.35 0.15945 0.54046 0.0
C1068 C 0.3338 0.16637 0.52668 0.0
H1069 H 0.45656 0.24511 0.59736 0.0
H1070 H 0.42999 0.22788 0.57097 0.0
C1071 C 0.31808 0.15174 0.51709 0.0
C1072 C 0.36548 0.17489 0.55253 0.0
H1073 H 0.36929 0.21516 0.59156 0.0
C1074 C 0.38736 0.17247 0.55056 0.0
C1075 C 0.35883 0.19056 0.5674 0.0
C1076 C 0.33555 0.19326 0.57098 0.0
C1077 C 0.40282 0.18482 0.56356 0.0
C1078 C 0.39616 0.20038 0.57852 0.0
C1079 C 0.3743 0.2033 0.57997 0.0
C1080 C 0.41143 0.21231 0.59426 0.0
C1081 C 0.42603 0.18031 0.56189 0.0
C1082 C 0.40926 0.21 0.61612 0.0
C1083 C 0.42418 0.22004 0.63122 0.0
C1084 C 0.44164 0.23253 0.62474 0.0
C1085 C 0.44341 0.2354 0.60285 0.0
C1086 C 0.42832 0.22548 0.58774 0.0
H1087 H 0.428 0.16479 0.55306 0.0
H1088 H 0.43407 0.19306 0.5532 0.0
H1089 H 0.43426 0.18009 0.57798 0.0
H1090 H 0.39629 0.19995 0.6215 0.0
H1091 H 0.42231 0.21752 0.64794 0.0
H1092 H 0.49913 0.67888 0.33377 0.0
H1093 H 0.50583 0.64155 0.32449 0.0
H1094 H 0.55081 0.662 0.27931 0.0
H1095 H 0.54374 0.69908 0.28789 0.0
H1096 H 0.52767 0.62616 0.26442 0.0
H1097 H 0.56017 0.61741 0.34751 0.0
H1098 H 0.53277 0.62407 0.34491 0.0
H1099 H 0.55351 0.64287 0.33798 0.0
C1100 C 0.51018 0.67539 0.3216 0.0
C1101 C 0.52112 0.69199 0.31179 0.0
C1102 C 0.51409 0.65406 0.31643 0.0
C1103 C 0.52922 0.64904 0.3016 0.0
C1104 C 0.53915 0.66551 0.29088 0.0
H1105 H 0.61957 0.55617 0.29021 0.0
H1106 H 0.59718 0.58555 0.29863 0.0
C1107 C 0.53511 0.68674 0.29586 0.0
C1108 C 0.53608 0.62697 0.29814 0.0
H1109 H 0.56299 0.58859 0.32278 0.0
C1110 C 0.53514 0.61777 0.2772 0.0
C1111 C 0.54599 0.61618 0.31486 0.0
C1112 C 0.54838 0.62564 0.33756 0.0
C1113 C 0.54471 0.59856 0.27234 0.0
C1114 C 0.55499 0.58801 0.28901 0.0
C1115 C 0.55502 0.59669 0.31008 0.0
C1116 C 0.56792 0.5694 0.2847 0.0
C1117 C 0.54483 0.59047 0.24928 0.0
C1118 C 0.55884 0.55035 0.27441 0.0
C1119 C 0.5717 0.53353 0.26935 0.0
C1120 C 0.59379 0.53539 0.27476 0.0
C1121 C 0.60264 0.5542 0.28577 0.0
C1122 C 0.58984 0.57102 0.29064 0.0
H1123 H 0.54014 0.60274 0.23814 0.0
H1124 H 0.56089 0.58538 0.24547 0.0
H1125 H 0.5333 0.57644 0.24636 0.0
H1126 H 0.54188 0.54858 0.27012 0.0
H1127 H 0.56438 0.51916 0.26103 0.0
H1128 H 0.0146 0.76965 0.06391 0.0
H1129 H 0.04347 0.77923 0.04091 0.0
H1130 H 0.08513 0.79743 0.09662 0.0
H1131 H 0.05644 0.78838 0.11961 0.0
H1132 H 0.08758 0.82645 0.06537 0.0
H1133 H 0.09499 0.74349 0.03173 0.0
H1134 H 0.06916 0.75417 0.02833 0.0
H1135 H 0.07975 0.74929 0.05462 0.0
C1136 C 0.02989 0.77579 0.07124 0.0
C1137 C 0.03326 0.77813 0.0936 0.0
C1138 C 0.04639 0.78114 0.05807 0.0
C1139 C 0.06652 0.78875 0.06707 0.0
C1140 C 0.06972 0.79155 0.08935 0.0
H1141 H 0.19448 0.78809 0.03941 0.0
H1142 H 0.15716 0.78062 0.04632 0.0
C1143 C 0.05329 0.78632 0.10247 0.0
C1144 C 0.08462 0.79353 0.05365 0.0
H1145 H 0.1201 0.76976 0.02216 0.0
C1146 C 0.09455 0.81417 0.05563 0.0
C1147 C 0.09365 0.7774 0.04104 0.0
C1148 C 0.084 0.75479 0.03884 0.0
C1149 C 0.1139 0.81887 0.04632 0.0
C1150 C 0.12329 0.80258 0.03423 0.0
C1151 C 0.11277 0.78222 0.03131 0.0
C1152 C 0.14533 0.8055 0.02719 0.0
C1153 C 0.12478 0.84085 0.05071 0.0
C1154 C 0.15102 0.82147 0.01345 0.0
C1155 C 0.1725 0.82597 0.00962 0.0
C1156 C 0.18856 0.81439 0.0193 0.0
C1157 C 0.18258 0.79744 0.03182 0.0
C1158 C 0.1612 0.79309 0.03575 0.0
H1159 H 0.11732 0.85021 0.06353 0.0
H1160 H 0.14195 0.83975 0.05547 0.0
H1161 H 0.12364 0.84978 0.03599 0.0
H1162 H 0.13895 0.83092 0.00629 0.0
H1163 H 0.17655 0.83899 -0.00028 0.0
H1164 H 0.7314 0.96853 0.56627 0.0
H1165 H 0.7231 0.97478 0.60343 0.0
H1166 H 0.74668 0.91382 0.61806 0.0
H1167 H 0.75497 0.90732 0.58074 0.0
H1168 H 0.70488 0.91844 0.62821 0.0
H1169 H 0.75579 0.98861 0.66107 0.0
H1170 H 0.7431 0.99296 0.63551 0.0
H1171 H 0.76215 0.97272 0.63765 0.0
C1172 C 0.73536 0.95667 0.57747 0.0
C1173 C 0.74367 0.93735 0.5705 0.0
C1174 C 0.73075 0.96035 0.59878 0.0
C1175 C 0.73442 0.94484 0.61354 0.0
C1176 C 0.74387 0.92605 0.60693 0.0
H1177 H 0.68789 0.9649 0.74261 0.0
H1178 H 0.71149 0.95547 0.71417 0.0
C1179 C 0.74862 0.92239 0.5856 0.0
C1180 C 0.72541 0.94696 0.63477 0.0
H1181 H 0.72268 0.98173 0.67814 0.0
C1182 C 0.7091 0.93203 0.63936 0.0
C1183 C 0.73101 0.96462 0.64935 0.0
C1184 C 0.74913 0.98053 0.64577 0.0
C1185 C 0.69732 0.93501 0.65746 0.0
C1186 C 0.70188 0.95348 0.67119 0.0
C1187 C 0.71908 0.96771 0.6674 0.0
C1188 C 0.68784 0.95908 0.68848 0.0
C1189 C 0.67962 0.91875 0.66143 0.0
C1190 C 0.66689 0.96443 0.68334 0.0
C1191 C 0.65344 0.96991 0.69945 0.0
C1192 C 0.66071 0.9701 0.72103 0.0
C1193 C 0.68179 0.9648 0.72614 0.0
C1194 C 0.6953 0.95946 0.70995 0.0
H1195 H 0.68171 0.90311 0.65287 0.0
H1196 H 0.67886 0.91636 0.67875 0.0
H1197 H 0.66412 0.92456 0.65559 0.0
H1198 H 0.66096 0.96449 0.66682 0.0
H1199 H 0.63734 0.97395 0.69495 0.0
H1200 H 0.8503 0.96901 0.29692 0.0
H1201 H 0.8462 0.95177 0.33062 0.0
H1202 H 0.78263 0.97382 0.3335 0.0
H1203 H 0.78661 0.99126 0.30005 0.0
H1204 H 0.83649 0.97719 0.3696 0.0
H1205 H 0.77757 0.9092 0.34806 0.0
H1206 H 0.79412 0.92119 0.3288 0.0
H1207 H 0.77088 0.934 0.33717 0.0
C1208 C 0.83526 0.96976 0.30447 0.0
C1209 C 0.81878 0.98155 0.29587 0.0
C1210 C 0.83299 0.95997 0.32374 0.0
C1211 C 0.81408 0.96145 0.33442 0.0
C1212 C 0.79725 0.9723 0.32533 0.0
H1213 H 0.7703 0.96782 0.45745 0.0
H1214 H 0.78653 0.97361 0.42368 0.0
C1215 C 0.79958 0.98231 0.30626 0.0
C1216 C 0.8125 0.9537 0.35607 0.0
H1217 H 0.78184 0.92098 0.38506 0.0
C1218 C 0.82486 0.9646 0.37299 0.0
C1219 C 0.79742 0.93721 0.36037 0.0
C1220 C 0.78433 0.92456 0.34264 0.0
C1221 C 0.82157 0.96031 0.39427 0.0
C1222 C 0.80551 0.9448 0.39862 0.0
C1223 C 0.79409 0.93295 0.38165 0.0
C1224 C 0.7987 0.94213 0.42049 0.0
C1225 C 0.83479 0.97285 0.41198 0.0
C1226 C 0.80047 0.92261 0.43002 0.0
C1227 C 0.79135 0.9193 0.44945 0.0
C1228 C 0.77994 0.93533 0.4594 0.0
C1229 C 0.77896 0.95515 0.45019 0.0
C1230 C 0.7883 0.95853 0.43093 0.0
H1231 H 0.84987 0.9799 0.40622 0.0
H1232 H 0.82552 0.98609 0.4183 0.0
H1233 H 0.8387 0.9626 0.42532 0.0
H1234 H 0.80833 0.90974 0.42209 0.0
H1235 H 0.79227 0.9038 0.45607 0.0
H1236 H 0.76129 0.06573 0.01345 0.0
H1237 H 0.76981 0.04319 0.04295 0.0
H1238 H 0.79517 0.09882 0.08148 0.0
H1239 H 0.7873 0.1213 0.052 0.0
H1240 H 0.82056 0.06552 0.08475 0.0
H1241 H 0.7361 0.03919 0.09585 0.0
H1242 H 0.74534 0.0332 0.06978 0.0
H1243 H 0.74322 0.06052 0.07908 0.0
C1244 C 0.76874 0.07314 0.02819 0.0
C1245 C 0.7735 0.09533 0.03044 0.0
C1246 C 0.77349 0.06024 0.04506 0.0
C1247 C 0.78279 0.06937 0.06452 0.0
C1248 C 0.78795 0.09144 0.0666 0.0
H1249 H 0.78352 0.04289 0.1934 0.0
H1250 H 0.7754 0.05007 0.15628 0.0
C1251 C 0.7834 0.10428 0.04974 0.0
C1252 C 0.787 0.05627 0.08302 0.0
H1253 H 0.76224 0.0271 0.11972 0.0
C1254 C 0.80788 0.05689 0.09229 0.0
C1255 C 0.77035 0.0451 0.09281 0.0
C1256 C 0.74745 0.04453 0.08403 0.0
C1257 C 0.81245 0.04756 0.11165 0.0
C1258 C 0.79573 0.03675 0.12169 0.0
C1259 C 0.77503 0.03525 0.11188 0.0
C1260 C 0.79882 0.02956 0.14366 0.0
C1261 C 0.83486 0.05057 0.1218 0.0
C1262 C 0.81411 0.01493 0.14886 0.0
C1263 C 0.81902 0.01097 0.17022 0.0
C1264 C 0.80848 0.02136 0.18666 0.0
C1265 C 0.79206 0.03472 0.18119 0.0
C1266 C 0.78735 0.03882 0.15993 0.0
H1267 H 0.84467 0.06287 0.11409 0.0
H1268 H 0.83461 0.05534 0.13906 0.0
H1269 H 0.84281 0.03528 0.12021 0.0
H1270 H 0.82277 0.00719 0.13649 0.0
H1271 H 0.83158 0.00039 0.17388 0.0
H1272 H 0.66418 0.00049 0.79853 0.0
H1273 H 0.69333 0.01344 0.82429 0.0
H1274 H 0.64806 0.04315 0.86383 0.0
H1275 H 0.61893 0.02977 0.83866 0.0
H1276 H 0.70592 0.05322 0.83431 0.0
H1277 H 0.68421 0.01734 0.90849 0.0
H1278 H 0.67187 0.00794 0.88278 0.0
H1279 H 0.66171 0.03023 0.89759 0.0
C1280 C 0.66041 0.00945 0.81292 0.0
C1281 C 0.63923 0.01412 0.81655 0.0
C1282 C 0.67709 0.0168 0.82763 0.0
C1283 C 0.67287 0.02892 0.8462 0.0
C1284 C 0.65169 0.03324 0.84999 0.0
H1285 H 0.72942 0.13851 0.90799 0.0
H1286 H 0.71593 0.10938 0.88293 0.0
C1287 C 0.63502 0.02575 0.83544 0.0
C1288 C 0.69053 0.03923 0.86046 0.0
H1289 H 0.70406 0.05224 0.91303 0.0
C1290 C 0.70586 0.05258 0.85152 0.0
C1291 C 0.69096 0.03798 0.88288 0.0
C1292 C 0.67642 0.02237 0.89342 0.0
C1293 C 0.72025 0.0662 0.86447 0.0
C1294 C 0.7188 0.06691 0.88687 0.0
C1295 C 0.70488 0.05208 0.89583 0.0
C1296 C 0.72937 0.08449 0.90103 0.0
C1297 C 0.7364 0.08014 0.85394 0.0
C1298 C 0.74116 0.08023 0.9198 0.0
C1299 C 0.74861 0.09693 0.93445 0.0
C1300 C 0.74434 0.11816 0.93057 0.0
C1301 C 0.73312 0.12238 0.91144 0.0
C1302 C 0.72556 0.10571 0.89694 0.0
H1303 H 0.74138 0.07201 0.83903 0.0
H1304 H 0.72903 0.09504 0.8495 0.0
H1305 H 0.75082 0.08442 0.8647 0.0
H1306 H 0.74412 0.06395 0.92336 0.0
H1307 H 0.75723 0.09316 0.94903 0.0
H1308 H 0.56637 0.72347 0.96861 0.0
H1309 H 0.60375 0.71654 0.97554 0.0
H1310 H 0.61955 0.74589 0.9176 0.0
H1311 H 0.58192 0.75265 0.91031 0.0
H1312 H 0.63309 0.706 0.91894 0.0
H1313 H 0.65847 0.75061 0.99509 0.0
H1314 H 0.63375 0.73544 0.99732 0.0
H1315 H 0.63495 0.75664 0.97919 0.0
C1316 C 0.57781 0.72892 0.95755 0.0
C1317 C 0.5711 0.73845 0.9388 0.0
C1318 C 0.59927 0.72511 0.96166 0.0
C1319 C 0.61451 0.73091 0.94722 0.0
C1320 C 0.60806 0.74142 0.92902 0.0
H1321 H 0.74339 0.68777 0.97793 0.0
H1322 H 0.71571 0.71166 0.96703 0.0
C1323 C 0.58655 0.74528 0.9249 0.0
C1324 C 0.63631 0.72319 0.94973 0.0
H1325 H 0.67724 0.7185 0.98691 0.0
C1326 C 0.64299 0.70915 0.9336 0.0
C1327 C 0.64941 0.7275 0.9687 0.0
C1328 C 0.64386 0.74357 0.98594 0.0
C1329 C 0.66156 0.69805 0.93663 0.0
C1330 C 0.67353 0.70084 0.95641 0.0
C1331 C 0.66782 0.71612 0.97188 0.0
C1332 C 0.69063 0.68656 0.9621 0.0
C1333 C 0.6678 0.6829 0.91888 0.0
C1334 C 0.6856 0.66462 0.96312 0.0
C1335 C 0.70126 0.651 0.96937 0.0
C1336 C 0.7223 0.65905 0.97483 0.0
C1337 C 0.72735 0.68106 0.97374 0.0
C1338 C 0.71158 0.69473 0.96754 0.0
H1339 H 0.66148 0.68756 0.90305 0.0
H1340 H 0.68542 0.68233 0.91871 0.0
H1341 H 0.66097 0.6666 0.92131 0.0
H1342 H 0.66941 0.65807 0.95941 0.0
H1343 H 0.69679 0.63417 0.97009 0.0
H1344 H 0.08322 0.01882 0.81322 0.0
H1345 H 0.05754 0.046 0.8203 0.0
H1346 H 0.08003 0.08095 0.76803 0.0
H1347 H 0.10548 0.05403 0.76078 0.0
H1348 H 0.0686 0.08901 0.83093 0.0
H1349 H 0.0152 0.08054 0.75767 0.0
H1350 H 0.03241 0.05989 0.76555 0.0
H1351 H 0.04283 0.08221 0.75177 0.0
C1352 C 0.08249 0.03216 0.80308 0.0
C1353 C 0.09643 0.03429 0.78647 0.0
C1354 C 0.0678 0.04763 0.80712 0.0
C1355 C 0.06662 0.06526 0.79443 0.0
C1356 C 0.08029 0.0672 0.77767 0.0
H1357 H 0.03648 0.19129 0.78861 0.0
H1358 H 0.04303 0.15362 0.78282 0.0
C1359 C 0.095 0.05188 0.7737 0.0
C1360 C 0.05277 0.08285 0.79976 0.0
H1361 H 0.01717 0.11514 0.777 0.0
C1362 C 0.05692 0.09446 0.81941 0.0
C1363 C 0.03753 0.08983 0.78469 0.0
C1364 C 0.03156 0.07732 0.76382 0.0
C1365 C 0.04753 0.11386 0.8237 0.0
C1366 C 0.03332 0.12157 0.80802 0.0
C1367 C 0.02811 0.10922 0.78895 0.0
C1368 C 0.02615 0.1436 0.80996 0.0
C1369 C 0.05409 0.12668 0.84429 0.0
C1370 C 0.01372 0.15032 0.82666 0.0
C1371 C 0.01 0.17196 0.83011 0.0
C1372 C 0.01862 0.18715 0.81684 0.0
C1373 C 0.02977 0.18007 0.79926 0.0
C1374 C 0.03348 0.15851 0.79586 0.0
H1375 H 0.06775 0.12 0.85313 0.0
H1376 H 0.05861 0.1435 0.84112 0.0
H1377 H 0.04044 0.12673 0.85475 0.0
H1378 H 0.00759 0.13896 0.83748 0.0
H1379 H 0.0012 0.17685 0.8437 0.0
H1380 H 0.95822 0.25382 0.46939 0.0
H1381 H 0.92504 0.26992 0.47761 0.0
H1382 H 0.92924 0.30774 0.42267 0.0
H1383 H 0.96248 0.29143 0.41405 0.0
H1384 H 0.91477 0.31249 0.48529 0.0
H1385 H 0.87092 0.27427 0.41221 0.0
H1386 H 0.89681 0.2663 0.42152 0.0
H1387 H 0.89455 0.29073 0.40829 0.0
C1388 C 0.95228 0.26573 0.45914 0.0
C1389 C 0.96291 0.27117 0.44092 0.0
C1390 C 0.93329 0.27493 0.46388 0.0
C1391 C 0.92449 0.2897 0.45052 0.0
C1392 C 0.93558 0.29605 0.43294 0.0
H1393 H 0.7985 0.34142 0.46775 0.0
H1394 H 0.83314 0.33518 0.45307 0.0
C1395 C 0.95465 0.28684 0.42816 0.0
C1396 C 0.90329 0.29759 0.45481 0.0
H1397 H 0.85087 0.29332 0.43649 0.0
C1398 C 0.90085 0.30855 0.4745 0.0
C1399 C 0.88516 0.29242 0.44066 0.0
C1400 C 0.88682 0.28016 0.41953 0.0
C1401 C 0.88065 0.31387 0.48075 0.0
C1402 C 0.86246 0.30785 0.46703 0.0
C1403 C 0.86493 0.29781 0.44692 0.0
C1404 C 0.8407 0.31034 0.47422 0.0
C1405 C 0.87882 0.32541 0.50221 0.0
C1406 C 0.83329 0.29787 0.49036 0.0
C1407 C 0.81356 0.30125 0.49868 0.0
C1408 C 0.80086 0.31724 0.49101 0.0
C1409 C 0.80789 0.32901 0.47404 0.0
C1410 C 0.82768 0.32553 0.46567 0.0
H1411 H 0.89436 0.33322 0.50858 0.0
H1412 H 0.86683 0.3377 0.50116 0.0
H1413 H 0.87346 0.31377 0.51373 0.0
H1414 H 0.84305 0.28587 0.49693 0.0
H1415 H 0.80863 0.29181 0.51164 0.0
H1416 H 0.53347 0.94597 0.78114 0.0
H1417 H 0.52247 0.90935 0.78851 0.0
H1418 H 0.57967 0.88712 0.76218 0.0
H1419 H 0.59087 0.92379 0.75463 0.0
H1420 H 0.51974 0.86613 0.76157 0.0
H1421 H 0.58146 0.87699 0.82929 0.0
H1422 H 0.57099 0.89945 0.81636 0.0
H1423 H 0.58908 0.88296 0.80298 0.0
C1424 C 0.5435 0.93326 0.77644 0.0
C1425 C 0.56319 0.93781 0.76759 0.0
C1426 C 0.53713 0.91234 0.78058 0.0
C1427 C 0.55037 0.89567 0.77604 0.0
C1428 C 0.56929 0.89987 0.7658 0.0
H1429 H 0.54432 0.77925 0.84506 0.0
H1430 H 0.55535 0.80517 0.81964 0.0
C1431 C 0.57563 0.92081 0.7615 0.0
C1432 C 0.54571 0.87473 0.7848 0.0
H1433 H 0.55866 0.84625 0.82774 0.0
C1434 C 0.5284 0.86152 0.77585 0.0
C1435 C 0.55711 0.86887 0.80337 0.0
C1436 C 0.57566 0.88276 0.81373 0.0
C1437 C 0.5219 0.84269 0.78533 0.0
C1438 C 0.53262 0.83739 0.80457 0.0
C1439 C 0.55044 0.85027 0.813 0.0
C1440 C 0.52489 0.81962 0.81727 0.0
C1441 C 0.50359 0.82875 0.77464 0.0
C1442 C 0.50401 0.8189 0.82419 0.0
C1443 C 0.49759 0.80393 0.83852 0.0
C1444 C 0.51209 0.78972 0.84657 0.0
C1445 C 0.53282 0.7901 0.83924 0.0
C1446 C 0.53913 0.80486 0.82467 0.0
H1447 H 0.50257 0.83039 0.75711 0.0
H1448 H 0.50519 0.81167 0.77774 0.0
H1449 H 0.48839 0.83383 0.78089 0.0
H1450 H 0.49291 0.83051 0.81926 0.0
H1451 H 0.48155 0.80412 0.84399 0.0
H1452 H 0.98479 0.20963 0.348 0.0
H1453 H 0.96473 0.18396 0.32269 0.0
H1454 H 0.96764 0.13597 0.36903 0.0
H1455 H 0.98731 0.16159 0.39461 0.0
H1456 H 0.9717 0.14286 0.30485 0.0
H1457 H 0.9035 0.14221 0.35733 0.0
H1458 H 0.92581 0.16164 0.36121 0.0
H1459 H 0.9281 0.13517 0.37027 0.0
C1460 C 0.98141 0.19353 0.35273 0.0
C1461 C 0.98733 0.18773 0.37344 0.0
C1462 C 0.96998 0.17889 0.33822 0.0
C1463 C 0.96437 0.15826 0.34419 0.0
C1464 C 0.97146 0.15199 0.36432 0.0
H1465 H 0.90489 0.04936 0.26875 0.0
H1466 H 0.93059 0.07604 0.28669 0.0
C1467 C 0.98274 0.16664 0.37889 0.0
C1468 C 0.94981 0.14379 0.33001 0.0
H1469 H 0.90089 0.11718 0.3276 0.0
C1470 C 0.95618 0.13725 0.30973 0.0
C1471 C 0.92942 0.13692 0.33632 0.0
C1472 C 0.92116 0.14449 0.35737 0.0
C1473 C 0.94279 0.12356 0.29572 0.0
C1474 C 0.92275 0.11603 0.30241 0.0
C1475 C 0.9163 0.1229 0.32255 0.0
C1476 C 0.9081 0.10081 0.28907 0.0
C1477 C 0.95009 0.11754 0.27385 0.0
C1478 C 0.88692 0.10586 0.28449 0.0
C1479 C 0.87212 0.09056 0.27458 0.0
C1480 C 0.87826 0.06992 0.269 0.0
C1481 C 0.89971 0.06517 0.27275 0.0
C1482 C 0.91447 0.08045 0.28288 0.0
H1483 H 0.96244 0.12934 0.26895 0.0
H1484 H 0.95722 0.10179 0.27412 0.0
H1485 H 0.9365 0.1163 0.26167 0.0
H1486 H 0.88169 0.12149 0.28919 0.0
H1487 H 0.85576 0.09475 0.27179 0.0
H1488 H 0.54356 0.05234 0.74525 0.0
H1489 H 0.53841 0.08609 0.7287 0.0
H1490 H 0.60051 0.08398 0.70306 0.0
H1491 H 0.60575 0.04991 0.71936 0.0
H1492 H 0.58974 0.12334 0.73093 0.0
H1493 H 0.53167 0.0997 0.66256 0.0
H1494 H 0.52652 0.0878 0.68729 0.0
H1495 H 0.54994 0.08145 0.67371 0.0
C1496 C 0.55598 0.05883 0.73577 0.0
C1497 C 0.57507 0.04849 0.73362 0.0
C1498 C 0.55298 0.07807 0.7263 0.0
C1499 C 0.56906 0.0874 0.71466 0.0
C1500 C 0.5879 0.07689 0.71192 0.0
H1501 H 0.54295 0.20789 0.65685 0.0
H1502 H 0.56052 0.17479 0.66323 0.0
C1503 C 0.59081 0.05743 0.72116 0.0
C1504 C 0.56664 0.10896 0.70702 0.0
H1505 H 0.53507 0.13666 0.67392 0.0
C1506 C 0.57811 0.1263 0.71818 0.0
C1507 C 0.55153 0.11266 0.69035 0.0
C1508 C 0.53927 0.09445 0.67762 0.0
C1509 C 0.57392 0.14739 0.7139 0.0
C1510 C 0.55788 0.15109 0.69811 0.0
C1511 C 0.54734 0.13374 0.68607 0.0
C1512 C 0.55018 0.1726 0.69531 0.0
C1513 C 0.58617 0.16557 0.72671 0.0
C1514 C 0.53888 0.18241 0.71139 0.0
C1515 C 0.52868 0.20115 0.70777 0.0
C1516 C 0.52968 0.21045 0.68799 0.0
C1517 C 0.54198 0.20118 0.6723 0.0
C1518 C 0.55197 0.18226 0.67586 0.0
H1519 H 0.60136 0.16045 0.73415 0.0
H1520 H 0.58978 0.17904 0.71654 0.0
H1521 H 0.5763 0.17145 0.73966 0.0
H1522 H 0.53709 0.17502 0.72641 0.0
H1523 H 0.51935 0.20791 0.72017 0.0
H1524 H 0.16365 0.40069 0.98789 0.0
H1525 H 0.13602 0.37606 0.96993 0.0
H1526 H 0.18051 0.32621 0.96814 0.0
H1527 H 0.20802 0.35053 0.98665 0.0
H1528 H 0.13825 0.35889 0.93068 0.0
H1529 H 0.12786 0.29384 0.98573 0.0
H1530 H 0.14165 0.31919 0.99399 0.0
H1531 H 0.15522 0.29884 0.97978 0.0
C1532 C 0.16743 0.38437 0.98403 0.0
C1533 C 0.18803 0.37757 0.98861 0.0
C1534 C 0.15162 0.37031 0.9738 0.0
C1535 C 0.15613 0.34924 0.96788 0.0
C1536 C 0.1765 0.34223 0.97301 0.0
H1537 H 0.09315 0.27592 0.85969 0.0
H1538 H 0.11894 0.29504 0.88551 0.0
C1539 C 0.19226 0.35622 0.98346 0.0
C1540 C 0.14034 0.33543 0.95432 0.0
H1541 H 0.11387 0.28628 0.9496 0.0
C1542 C 0.13278 0.34309 0.93493 0.0
C1543 C 0.13311 0.31489 0.95995 0.0
C1544 C 0.13971 0.30628 0.9811 0.0
C1545 C 0.11848 0.33066 0.92082 0.0
C1546 C 0.11204 0.30974 0.92597 0.0
C1547 C 0.11917 0.3022 0.94557 0.0
C1548 C 0.09749 0.29575 0.91128 0.0
C1549 C 0.11019 0.3402 0.90067 0.0
C1550 C 0.07734 0.28883 0.91761 0.0
C1551 C 0.06265 0.27767 0.90298 0.0
C1552 C 0.06789 0.27332 0.88176 0.0
C1553 C 0.08853 0.27927 0.87583 0.0
C1554 C 0.10325 0.29026 0.89053 0.0
H1555 H 0.11201 0.35793 0.90196 0.0
H1556 H 0.11939 0.33451 0.88712 0.0
H1557 H 0.09307 0.33532 0.89692 0.0
H1558 H 0.07268 0.2928 0.93363 0.0
H1559 H 0.04693 0.27321 0.90809 0.0
H1560 H 0.45848 0.77322 0.4187 0.0
H1561 H 0.43171 0.7602 0.44231 0.0
H1562 H 0.44498 0.69523 0.42431 0.0
H1563 H 0.47134 0.70812 0.40018 0.0
H1564 H 0.40372 0.70089 0.41996 0.0
H1565 H 0.4336 0.73511 0.49973 0.0
H1566 H 0.43199 0.75524 0.48068 0.0
H1567 H 0.45016 0.73432 0.47716 0.0
C1568 C 0.45594 0.75617 0.42001 0.0
C1569 C 0.46693 0.7417 0.40747 0.0
C1570 C 0.44076 0.74874 0.43369 0.0
C1571 C 0.43656 0.72673 0.43537 0.0
C1572 C 0.44804 0.71228 0.42337 0.0
H1573 H 0.3311 0.66137 0.49662 0.0
H1574 H 0.3677 0.67065 0.48717 0.0
C1575 C 0.46306 0.71968 0.40954 0.0
C1576 C 0.41855 0.71882 0.44764 0.0
H1577 H 0.39592 0.72424 0.49573 0.0
C1578 C 0.40227 0.70564 0.43665 0.0
C1579 C 0.41663 0.72501 0.46944 0.0
C1580 C 0.43415 0.73802 0.48249 0.0
C1581 C 0.38372 0.69932 0.44655 0.0
C1582 C 0.38137 0.70638 0.46796 0.0
C1583 C 0.39786 0.71893 0.47927 0.0
C1584 C 0.36093 0.70229 0.47788 0.0
C1585 C 0.36626 0.68587 0.43382 0.0
C1586 C 0.34538 0.71732 0.47639 0.0
C1587 C 0.32451 0.71206 0.48155 0.0
C1588 C 0.3189 0.69167 0.4884 0.0
C1589 C 0.33494 0.67721 0.49143 0.0
C1590 C 0.35583 0.68245 0.48606 0.0
H1591 H 0.37055 0.68178 0.41724 0.0
H1592 H 0.36288 0.67083 0.4418 0.0
H1593 H 0.35134 0.69455 0.43318 0.0
H1594 H 0.34908 0.73268 0.47001 0.0
H1595 H 0.31255 0.7236 0.4792 0.0
H1596 H 0.83628 0.48339 0.79457 0.0
H1597 H 0.81327 0.49312 0.82328 0.0
H1598 H 0.83569 0.5591 0.82151 0.0
H1599 H 0.85897 0.54952 0.79314 0.0
H1600 H 0.84017 0.54392 0.86114 0.0
H1601 H 0.75786 0.5241 0.8263 0.0
H1602 H 0.77551 0.50276 0.82333 0.0
H1603 H 0.7806 0.52701 0.81012 0.0
C1604 C 0.83606 0.50002 0.80006 0.0
C1605 C 0.84959 0.51566 0.79171 0.0
C1606 C 0.82276 0.50558 0.81635 0.0
C1607 C 0.8226 0.52687 0.82435 0.0
C1608 C 0.83551 0.54259 0.81548 0.0
H1609 H 0.75639 0.58621 0.928 0.0
H1610 H 0.76707 0.57548 0.89222 0.0
C1611 C 0.84886 0.53706 0.79932 0.0
C1612 C 0.81098 0.53245 0.84354 0.0
H1613 H 0.76178 0.53094 0.86423 0.0
C1614 C 0.82301 0.54125 0.86173 0.0
C1615 C 0.78858 0.52899 0.84424 0.0
C1616 C 0.77482 0.52038 0.8249 0.0
C1617 C 0.81333 0.5463 0.88073 0.0
C1618 C 0.79108 0.54222 0.88165 0.0
C1619 C 0.77888 0.53385 0.86341 0.0
C1620 C 0.78066 0.54639 0.90179 0.0
C1621 C 0.82699 0.55585 0.89981 0.0
C1622 C 0.7841 0.53312 0.91866 0.0
C1623 C 0.77813 0.5392 0.93906 0.0
C1624 C 0.76863 0.55868 0.94291 0.0
C1625 C 0.76373 0.57115 0.92558 0.0
C1626 C 0.76977 0.56505 0.90513 0.0
H1627 H 0.84323 0.56127 0.89545 0.0
H1628 H 0.81934 0.56963 0.90738 0.0
H1629 H 0.82865 0.54369 0.91184 0.0
H1630 H 0.79246 0.51864 0.91629 0.0
H1631 H 0.78195 0.52911 0.952 0.0
H1632 H 0.71309 0.51925 0.20568 0.0
H1633 H 0.71652 0.53779 0.17283 0.0
H1634 H 0.65216 0.55764 0.17626 0.0
H1635 H 0.64861 0.53922 0.20939 0.0
H1636 H 0.66176 0.53411 0.13711 0.0
H1637 H 0.72043 0.60203 0.15896 0.0
H1638 H 0.72804 0.57729 0.16929 0.0
H1639 H 0.70458 0.58928 0.17832 0.0
C1640 C 0.69982 0.52795 0.19974 0.0
C1641 C 0.68056 0.52772 0.21008 0.0
C1642 C 0.70184 0.53864 0.18103 0.0
C1643 C 0.68464 0.54919 0.17225 0.0
C1644 C 0.66565 0.54971 0.18293 0.0
H1645 H 0.71243 0.60386 0.05031 0.0
H1646 H 0.69388 0.60002 0.08334 0.0
C1647 C 0.66369 0.53924 0.20185 0.0
C1648 C 0.68594 0.55737 0.15074 0.0
H1649 H 0.71743 0.58941 0.1219 0.0
C1650 C 0.67354 0.54659 0.13377 0.0
C1651 C 0.70116 0.57375 0.1465 0.0
C1652 C 0.71419 0.58642 0.16425 0.0
C1653 C 0.67719 0.55062 0.11251 0.0
C1654 C 0.69367 0.56573 0.10825 0.0
C1655 C 0.70487 0.57772 0.12524 0.0
C1656 C 0.70159 0.56721 0.08665 0.0
C1657 C 0.66408 0.53803 0.09477 0.0
C1658 C 0.71172 0.54992 0.07748 0.0
C1659 C 0.72248 0.55211 0.05885 0.0
C1660 C 0.72322 0.57163 0.04896 0.0
C1661 C 0.71202 0.58858 0.0575 0.0
C1662 C 0.70147 0.58645 0.07637 0.0
H1663 H 0.64845 0.53202 0.10021 0.0
H1664 H 0.66123 0.54788 0.08087 0.0
H1665 H 0.67285 0.52405 0.08941 0.0
H1666 H 0.71227 0.53505 0.08537 0.0
H1667 H 0.73094 0.53877 0.05265 0.0
H1668 H 0.72732 0.38261 0.44853 0.0
H1669 H 0.71837 0.40488 0.41914 0.0
H1670 H 0.73663 0.4615 0.45947 0.0
H1671 H 0.746 0.43928 0.489 0.0
H1672 H 0.68859 0.43588 0.41747 0.0
H1673 H 0.77055 0.47014 0.40634 0.0
H1674 H 0.76564 0.4473 0.42193 0.0
H1675 H 0.76114 0.47361 0.43274 0.0
C1676 C 0.72952 0.39979 0.45119 0.0
C1677 C 0.73745 0.40916 0.4711 0.0
C1678 C 0.72436 0.4125 0.43437 0.0
C1679 C 0.72704 0.43482 0.43708 0.0
C1680 C 0.73478 0.44429 0.45696 0.0
H1681 H 0.67008 0.50421 0.33204 0.0
H1682 H 0.6808 0.49645 0.36876 0.0
C1683 C 0.74002 0.43156 0.47383 0.0
C1684 C 0.7214 0.44791 0.41896 0.0
H1685 H 0.7429 0.48033 0.38294 0.0
C1686 C 0.70037 0.44582 0.41003 0.0
C1687 C 0.73689 0.46078 0.40933 0.0
C1688 C 0.75987 0.46305 0.41791 0.0
C1689 C 0.69456 0.45552 0.39118 0.0
C1690 C 0.71013 0.46807 0.38128 0.0
C1691 C 0.73098 0.47086 0.3907 0.0
C1692 C 0.70579 0.47597 0.35979 0.0
C1693 C 0.67212 0.45116 0.38139 0.0
C1694 C 0.71712 0.46807 0.34275 0.0
C1695 C 0.71124 0.47266 0.32186 0.0
C1696 C 0.69384 0.48521 0.31756 0.0
C1697 C 0.68341 0.4943 0.33479 0.0
C1698 C 0.68943 0.48979 0.35577 0.0
H1699 H 0.66343 0.4379 0.38886 0.0
H1700 H 0.66306 0.46569 0.38366 0.0
H1701 H 0.67231 0.44707 0.36399 0.0
H1702 H 0.72987 0.45745 0.3455 0.0
H1703 H 0.71976 0.46552 0.30902 0.0
H1704 H 0.89763 0.49247 0.66293 0.0
H1705 H 0.87207 0.47526 0.63573 0.0
H1706 H 0.82371 0.47296 0.68176 0.0
H1707 H 0.849 0.49065 0.70894 0.0
H1708 H 0.85514 0.43558 0.63904 0.0
H1709 H 0.78991 0.4907 0.62951 0.0
H1710 H 0.81569 0.49909 0.64235 0.0
H1711 H 0.79594 0.48508 0.65681 0.0
C1712 C 0.88143 0.48871 0.66716 0.0
C1713 C 0.87538 0.49278 0.68812 0.0
C1714 C 0.86684 0.47891 0.65159 0.0
C1715 C 0.84595 0.47298 0.65668 0.0
C1716 C 0.83959 0.47782 0.67735 0.0
H1717 H 0.77109 0.36459 0.59721 0.0
H1718 H 0.78955 0.39147 0.62234 0.0
C1719 C 0.85414 0.4878 0.69292 0.0
C1720 C 0.83183 0.45937 0.64122 0.0
H1721 H 0.78229 0.45458 0.61551 0.0
C1722 C 0.83929 0.43985 0.63376 0.0
C1723 C 0.8112 0.46501 0.63429 0.0
C1724 C 0.80277 0.48621 0.64098 0.0
C1725 C 0.82657 0.42563 0.61985 0.0
C1726 C 0.80562 0.43083 0.61363 0.0
C1727 C 0.79826 0.45055 0.62063 0.0
C1728 C 0.79144 0.41594 0.59953 0.0
C1729 C 0.83576 0.4052 0.61179 0.0
C1730 C 0.78547 0.42125 0.57876 0.0
C1731 C 0.7748 0.40597 0.56437 0.0
C1732 C 0.76999 0.38516 0.57058 0.0
C1733 C 0.77481 0.38038 0.59184 0.0
C1734 C 0.78537 0.39569 0.60622 0.0
H1735 H 0.85348 0.4061 0.61378 0.0
H1736 H 0.82963 0.39182 0.62097 0.0
H1737 H 0.83096 0.40146 0.59465 0.0
H1738 H 0.78998 0.43687 0.57339 0.0
H1739 H 0.77123 0.4102 0.54815 0.0
H1740 H 0.41208 0.08368 0.25184 0.0
H1741 H 0.41876 0.1207 0.24256 0.0
H1742 H 0.47813 0.10439 0.21646 0.0
H1743 H 0.47181 0.06754 0.22586 0.0
H1744 H 0.47942 0.14589 0.23839 0.0
H1745 H 0.41097 0.13092 0.17805 0.0
H1746 H 0.4056 0.12697 0.2054 0.0
H1747 H 0.42278 0.10961 0.19175 0.0
C1748 C 0.42681 0.08807 0.24459 0.0
C1749 C 0.44124 0.07257 0.23925 0.0
C1750 C 0.43054 0.10922 0.23923 0.0
C1751 C 0.44873 0.11512 0.22847 0.0
C1752 C 0.46395 0.1001 0.22468 0.0
H1753 H 0.48072 0.19631 0.13228 0.0
H1754 H 0.47178 0.16841 0.15631 0.0
C1755 C 0.46025 0.07901 0.23 0.0
C1756 C 0.45094 0.13605 0.21888 0.0
H1757 H 0.43133 0.16317 0.17722 0.0
C1758 C 0.46872 0.14993 0.22527 0.0
C1759 C 0.43704 0.14105 0.20161 0.0
C1760 C 0.41808 0.12636 0.19361 0.0
C1761 C 0.47334 0.16838 0.21436 0.0
C1762 C 0.45978 0.17298 0.19671 0.0
C1763 C 0.44159 0.15955 0.19084 0.0
C1764 C 0.46536 0.19028 0.18267 0.0
C1765 C 0.49324 0.18225 0.22098 0.0
C1766 C 0.46457 0.21182 0.18956 0.0
C1767 C 0.46962 0.22789 0.1758 0.0
C1768 C 0.47554 0.2226 0.15498 0.0
C1769 C 0.47626 0.20096 0.14821 0.0
C1770 C 0.47114 0.18498 0.1619 0.0
H1771 H 0.50326 0.17522 0.2336 0.0
H1772 H 0.50293 0.18473 0.20699 0.0
H1773 H 0.48869 0.19814 0.22718 0.0
H1774 H 0.45992 0.21618 0.20549 0.0
H1775 H 0.46891 0.24441 0.18149 0.0
H1776 H 0.03413 0.83719 0.60884 0.0
H1777 H 0.05115 0.86389 0.63495 0.0
H1778 H 0.02301 0.83098 0.68587 0.0
H1779 H 0.0064 0.80372 0.65984 0.0
H1780 H 0.0364 0.89142 0.6646 0.0
H1781 H 0.08594 0.83243 0.70376 0.0
H1782 H 0.07051 0.82607 0.67894 0.0
H1783 H 0.05761 0.82679 0.70377 0.0
C1784 C 0.0314 0.83568 0.62557 0.0
C1785 C 0.01915 0.81819 0.6323 0.0
C1786 C 0.04113 0.85098 0.64048 0.0
C1787 C 0.03868 0.84918 0.66237 0.0
C1788 C 0.02554 0.83236 0.66909 0.0
H1789 H 0.09656 0.95522 0.74822 0.0
H1790 H 0.06998 0.92835 0.73184 0.0
C1791 C 0.01598 0.81688 0.65419 0.0
C1792 C 0.05076 0.86449 0.67797 0.0
H1793 H 0.09101 0.86815 0.71702 0.0
C1794 C 0.04821 0.88637 0.67623 0.0
C1795 C 0.06626 0.85778 0.69298 0.0
C1796 C 0.07044 0.83452 0.69493 0.0
C1797 C 0.06128 0.9018 0.68853 0.0
C1798 C 0.07692 0.89509 0.70338 0.0
C1799 C 0.07891 0.8732 0.7057 0.0
C1800 C 0.09287 0.91038 0.71498 0.0
C1801 C 0.05898 0.92508 0.68465 0.0
C1802 C 0.11462 0.90861 0.71171 0.0
C1803 C 0.12984 0.92368 0.72127 0.0
C1804 C 0.12359 0.94091 0.73423 0.0
C1805 C 0.10185 0.94225 0.73812 0.0
C1806 C 0.08663 0.927 0.72869 0.0
H1807 H 0.04951 0.92722 0.66953 0.0
H1808 H 0.05066 0.93266 0.69794 0.0
H1809 H 0.07487 0.93362 0.68399 0.0
H1810 H 0.11978 0.89586 0.70123 0.0
H1811 H 0.14644 0.92215 0.71798 0.0
H1812 H 0.4681 0.80223 0.35455 0.0
H1813 H 0.45087 0.83594 0.35032 0.0
H1814 H 0.47081 0.83727 0.28585 0.0
H1815 H 0.48819 0.80383 0.28996 0.0
H1816 H 0.47574 0.87425 0.33968 0.0
H1817 H 0.40693 0.8529 0.28182 0.0
H1818 H 0.41917 0.83359 0.29813 0.0
H1819 H 0.4314 0.84177 0.27449 0.0
C1820 C 0.46834 0.80943 0.3393 0.0
C1821 C 0.47956 0.80042 0.32259 0.0
C1822 C 0.45857 0.82871 0.33696 0.0
C1823 C 0.45948 0.83897 0.31775 0.0
C1824 C 0.46969 0.82943 0.30071 0.0
H1825 H 0.46896 0.96041 0.27159 0.0
H1826 H 0.47367 0.92713 0.28907 0.0
C1827 C 0.47969 0.81036 0.30311 0.0
C1828 C 0.45194 0.86071 0.31599 0.0
H1829 H 0.41975 0.88976 0.28483 0.0
C1830 C 0.46317 0.87766 0.32803 0.0
C1831 C 0.43546 0.86506 0.30091 0.0
C1832 C 0.42238 0.84736 0.28821 0.0
C1833 C 0.45931 0.89896 0.32432 0.0
C1834 C 0.4439 0.90331 0.30815 0.0
C1835 C 0.43165 0.88636 0.29715 0.0
C1836 C 0.44189 0.92506 0.30068 0.0
C1837 C 0.47224 0.91665 0.33719 0.0
C1838 C 0.42256 0.93508 0.30172 0.0
C1839 C 0.41986 0.95425 0.29185 0.0
C1840 C 0.43634 0.96342 0.28044 0.0
C1841 C 0.45597 0.95376 0.28024 0.0
C1842 C 0.45872 0.93478 0.2903 0.0
H1843 H 0.47883 0.91113 0.35256 0.0
H1844 H 0.48583 0.92217 0.32795 0.0
H1845 H 0.46242 0.93048 0.34053 0.0
H1846 H 0.40935 0.92771 0.30954 0.0
H1847 H 0.4045 0.96122 0.29219 0.0
H1848 H 0.83282 0.60792 0.04174 0.0
H1849 H 0.85939 0.63478 0.05757 0.0
H1850 H 0.82661 0.68398 0.02628 0.0
H1851 H 0.79951 0.65718 0.01073 0.0
H1852 H 0.88688 0.66324 0.04007 0.0
H1853 H 0.82908 0.70551 0.08863 0.0
H1854 H 0.82242 0.67983 0.0749 0.0
H1855 H 0.82297 0.70361 0.06029 0.0
C1856 C 0.83125 0.62442 0.03811 0.0
C1857 C 0.81391 0.63043 0.02514 0.0
C1858 C 0.8465 0.63976 0.04714 0.0
C1859 C 0.84478 0.6614 0.04336 0.0
C1860 C 0.82797 0.66741 0.02976 0.0
H1861 H 0.95232 0.74811 0.09703 0.0
H1862 H 0.92489 0.73159 0.07109 0.0
C1863 C 0.81256 0.65206 0.02082 0.0
C1864 C 0.86035 0.67748 0.05436 0.0
H1865 H 0.86503 0.71807 0.09306 0.0
C1866 C 0.88214 0.67542 0.05148 0.0
C1867 C 0.85404 0.69324 0.0693 0.0
C1868 C 0.83089 0.69567 0.07366 0.0
C1869 C 0.89787 0.68808 0.06382 0.0
C1870 C 0.89157 0.70356 0.07906 0.0
C1871 C 0.86976 0.70625 0.08127 0.0
C1872 C 0.9072 0.71531 0.09457 0.0
C1873 C 0.92105 0.68389 0.06129 0.0
C1874 C 0.90584 0.71233 0.11641 0.0
C1875 C 0.92126 0.72192 0.13125 0.0
C1876 C 0.93845 0.73464 0.12453 0.0
C1877 C 0.9394 0.73822 0.10269 0.0
C1878 C 0.92381 0.72872 0.08784 0.0
H1879 H 0.92294 0.66861 0.05199 0.0
H1880 H 0.92866 0.69698 0.0527 0.0
H1881 H 0.92975 0.68338 0.07711 0.0
H1882 H 0.89311 0.70207 0.12194 0.0
H1883 H 0.91999 0.71886 0.14793 0.0
H1884 H 0.51845 0.31055 0.58289 0.0
H1885 H 0.54554 0.31747 0.55709 0.0
H1886 H 0.58157 0.26658 0.5811 0.0
H1887 H 0.55473 0.25949 0.60669 0.0
H1888 H 0.58827 0.32922 0.56814 0.0
H1889 H 0.58172 0.25477 0.51648 0.0
H1890 H 0.56078 0.26257 0.53336 0.0
H1891 H 0.58339 0.24956 0.54429 0.0
C1892 C 0.53201 0.30066 0.58247 0.0
C1893 C 0.53447 0.28451 0.59688 0.0
C1894 C 0.54743 0.30461 0.5677 0.0
C1895 C 0.56534 0.29227 0.56692 0.0
C1896 C 0.5676 0.27594 0.58105 0.0
H1897 H 0.6917 0.28813 0.53899 0.0
H1898 H 0.65391 0.28174 0.5446 0.0
C1899 C 0.55233 0.27206 0.59584 0.0
C1900 C 0.58289 0.29765 0.55304 0.0
H1901 H 0.61598 0.2748 0.5183 0.0
C1902 C 0.59406 0.31758 0.55679 0.0
C1903 C 0.59031 0.28242 0.53823 0.0
C1904 C 0.57828 0.26121 0.53268 0.0
C1905 C 0.61347 0.32204 0.54748 0.0
C1906 C 0.62164 0.30624 0.53375 0.0
C1907 C 0.6097 0.28685 0.52887 0.0
C1908 C 0.64381 0.30836 0.52694 0.0
C1909 C 0.62583 0.34298 0.55368 0.0
C1910 C 0.65056 0.32492 0.51435 0.0
C1911 C 0.67229 0.32872 0.51118 0.0
C1912 C 0.68753 0.31594 0.52052 0.0
C1913 C 0.68045 0.29841 0.53175 0.0
C1914 C 0.65881 0.29468 0.53492 0.0
H1915 H 0.61878 0.352 0.567 0.0
H1916 H 0.64267 0.34024 0.55855 0.0
H1917 H 0.62585 0.35307 0.53975 0.0
H1918 H 0.63915 0.33541 0.50772 0.0
H1919 H 0.67719 0.34225 0.5023 0.0
H1920 H 0.25545 0.4142 0.084 0.0
H1921 H 0.24779 0.42087 0.1215 0.0
H1922 H 0.21621 0.47752 0.10551 0.0
H1923 H 0.22405 0.47127 0.06822 0.0
H1924 H 0.2396 0.4816 0.1456 0.0
H1925 H 0.18533 0.40799 0.13562 0.0
H1926 H 0.21294 0.40497 0.13075 0.0
H1927 H 0.19689 0.42004 0.11324 0.0
C1928 C 0.24731 0.42835 0.08854 0.0
C1929 C 0.24001 0.442 0.07304 0.0
C1930 C 0.24288 0.43208 0.10996 0.0
C1931 C 0.23105 0.44943 0.11614 0.0
C1932 C 0.22528 0.46397 0.10103 0.0
H1933 H 0.13484 0.47565 0.19788 0.0
H1934 H 0.1591 0.46654 0.17031 0.0
C1935 C 0.22972 0.46031 0.07968 0.0
C1936 C 0.22244 0.45135 0.13757 0.0
H1937 H 0.18389 0.42932 0.16713 0.0
C1938 C 0.22773 0.47 0.15058 0.0
C1939 C 0.2068 0.43623 0.14383 0.0
C1940 C 0.19997 0.41623 0.13014 0.0
C1941 C 0.2171 0.47437 0.16927 0.0
C1942 C 0.20093 0.45961 0.17506 0.0
C1943 C 0.19638 0.44052 0.16261 0.0
C1944 C 0.18665 0.46485 0.19227 0.0
C1945 C 0.22228 0.49526 0.18201 0.0
C1946 C 0.19411 0.46672 0.21379 0.0
C1947 C 0.18022 0.47194 0.22969 0.0
C1948 C 0.15868 0.47534 0.22425 0.0
C1949 C 0.15131 0.47319 0.20265 0.0
C1950 C 0.16515 0.46796 0.18686 0.0
H1951 H 0.23353 0.50602 0.17399 0.0
H1952 H 0.20745 0.50361 0.18463 0.0
H1953 H 0.22967 0.49211 0.19789 0.0
H1954 H 0.21062 0.46413 0.21826 0.0
H1955 H 0.18637 0.47343 0.24618 0.0
H1956 H 0.34864 0.46355 0.7992 0.0
H1957 H 0.34353 0.44718 0.83316 0.0
H1958 H 0.28 0.4697 0.83377 0.0
H1959 H 0.28497 0.48624 0.8 0.0
H1960 H 0.33386 0.4735 0.87075 0.0
H1961 H 0.27354 0.40638 0.85102 0.0
H1962 H 0.29023 0.41749 0.83138 0.0
H1963 H 0.26725 0.43096 0.83945 0.0
C1964 C 0.33337 0.46455 0.80627 0.0
C1965 C 0.31722 0.47627 0.79695 0.0
C1966 C 0.33053 0.45525 0.82571 0.0
C1967 C 0.31137 0.45716 0.83587 0.0
C1968 C 0.29481 0.46782 0.82602 0.0
H1969 H 0.26753 0.46828 0.95906 0.0
H1970 H 0.28357 0.47272 0.92494 0.0
C1971 C 0.29771 0.47733 0.80676 0.0
C1972 C 0.30935 0.45025 0.85781 0.0
H1973 H 0.27784 0.4193 0.88773 0.0
C1974 C 0.32191 0.46136 0.87448 0.0
C1975 C 0.29386 0.43433 0.86256 0.0
C1976 C 0.28055 0.42144 0.84516 0.0
C1977 C 0.31846 0.45783 0.8959 0.0
C1978 C 0.30205 0.44288 0.90067 0.0
C1979 C 0.29037 0.43085 0.88399 0.0
C1980 C 0.29525 0.44099 0.92266 0.0
C1981 C 0.33193 0.47056 0.91331 0.0
C1982 C 0.29684 0.42178 0.9328 0.0
C1983 C 0.28785 0.41925 0.95244 0.0
C1984 C 0.27676 0.43577 0.96198 0.0
C1985 C 0.27596 0.45527 0.95213 0.0
C1986 C 0.28517 0.45786 0.93267 0.0
H1987 H 0.3471 0.47718 0.90735 0.0
H1988 H 0.32291 0.4841 0.91935 0.0
H1989 H 0.3357 0.46056 0.92689 0.0
H1990 H 0.30447 0.40855 0.92522 0.0
H1991 H 0.28861 0.40398 0.95955 0.0
H1992 H 0.31063 0.58321 0.51924 0.0
H1993 H 0.31694 0.55813 0.54715 0.0
H1994 H 0.26652 0.58432 0.58231 0.0
H1995 H 0.26003 0.60921 0.55465 0.0
H1996 H 0.32854 0.56983 0.59007 0.0
H1997 H 0.25288 0.51987 0.58304 0.0
H1998 H 0.26145 0.53625 0.56202 0.0
H1999 H 0.24863 0.5479 0.5844 0.0
C2000 C 0.30074 0.58345 0.53281 0.0
C2001 C 0.28484 0.59823 0.53473 0.0
C2002 C 0.30434 0.5691 0.5487 0.0
C2003 C 0.29193 0.56912 0.56659 0.0
C2004 C 0.27593 0.58368 0.56839 0.0
H2005 H 0.28678 0.53629 0.69304 0.0
H2006 H 0.2806 0.54461 0.65588 0.0
C2007 C 0.27239 0.59805 0.55263 0.0
C2008 C 0.29674 0.55536 0.5844 0.0
H2009 H 0.27309 0.52054 0.61692 0.0
C2010 C 0.31664 0.55866 0.59571 0.0
C2011 C 0.28115 0.5408 0.59165 0.0
C2012 C 0.2599 0.53581 0.57951 0.0
C2013 C 0.32084 0.54898 0.61497 0.0
C2014 C 0.3048 0.53529 0.62284 0.0
C2015 C 0.28534 0.53106 0.61088 0.0
C2016 C 0.30702 0.52738 0.64457 0.0
C2017 C 0.34184 0.5546 0.62742 0.0
C2018 C 0.32343 0.5142 0.65039 0.0
C2019 C 0.3271 0.50948 0.67174 0.0
C2020 C 0.31434 0.51779 0.68755 0.0
C2021 C 0.29703 0.52976 0.68134 0.0
C2022 C 0.29343 0.5345 0.66006 0.0
H2023 H 0.35084 0.56829 0.62096 0.0
H2024 H 0.33923 0.55866 0.64447 0.0
H2025 H 0.3519 0.54065 0.62666 0.0
H2026 H 0.33383 0.50818 0.63857 0.0
H2027 H 0.34046 0.50006 0.67596 0.0
H2028 H 0.10781 0.54107 0.3352 0.0
H2029 H 0.13486 0.55674 0.36166 0.0
H2030 H 0.18344 0.5236 0.32973 0.0
H2031 H 0.15647 0.50829 0.30268 0.0
H2032 H 0.1626 0.53972 0.3897 0.0
H2033 H 0.20661 0.58509 0.33072 0.0
H2034 H 0.18074 0.57171 0.32418 0.0
H2035 H 0.20422 0.55664 0.32553 0.0
C2036 C 0.12421 0.537 0.33382 0.0
C2037 C 0.13002 0.52363 0.31669 0.0
C2038 C 0.13966 0.54594 0.349 0.0
C2039 C 0.1612 0.54162 0.34745 0.0
C2040 C 0.16697 0.52753 0.33092 0.0
H2041 H 0.2474 0.59698 0.45466 0.0
H2042 H 0.23092 0.5704 0.42781 0.0
C2043 C 0.15152 0.51873 0.31556 0.0
C2044 C 0.17745 0.55265 0.36283 0.0
H2045 H 0.219 0.59031 0.36665 0.0
C2046 C 0.17512 0.55061 0.38471 0.0
C2047 C 0.19367 0.56691 0.35618 0.0
C2048 C 0.19644 0.57042 0.3329 0.0
C2049 C 0.18789 0.56317 0.40017 0.0
C2050 C 0.20383 0.57774 0.39351 0.0
C2051 C 0.20683 0.57904 0.37165 0.0
C2052 C 0.21574 0.59354 0.40874 0.0
C2053 C 0.18333 0.56163 0.42339 0.0
C2054 C 0.21345 0.61537 0.40636 0.0
C2055 C 0.22306 0.63056 0.42143 0.0
C2056 C 0.23508 0.62421 0.43927 0.0
C2057 C 0.23804 0.60236 0.44121 0.0
C2058 C 0.22856 0.58715 0.42596 0.0
H2059 H 0.16776 0.55291 0.42538 0.0
H2060 H 0.19602 0.55291 0.43149 0.0
H2061 H 0.1832 0.57776 0.43153 0.0
H2062 H 0.20367 0.62065 0.39315 0.0
H2063 H 0.2205 0.64725 0.41941 0.0
loop_
_geom_bond_atom_site_label_1
_geom_bond_atom_site_label_2
_geom_bond_distance
_geom_bond_site_symmetry_2
_ccdc_geom_bond_type
Zn0 O3 2.031 . S
Zn0 O5 2.049 1_655 S
Zn0 O10 2.067 . S
Zn1 O2 1.962 1_455 S
Zn1 O4 1.986 . S
Zn1 O6 1.996 . S
Zn1 O9 1.943 1_455 S
O2 Zn1 1.962 1_655 S
O2 C7 1.254 . S
O3 Zn0 2.031 . S
O3 C7 1.269 . S
O4 Zn1 1.986 . S
O4 C11 1.262 . S
O5 Zn0 2.049 1_455 S
O5 C13 1.260 . S
O6 Zn1 1.996 . S
O6 C13 1.257 . S
C7 O2 1.254 . S
C7 O3 1.269 . S
C8 O9 1.249 . S
C8 O10 1.270 . S
O9 Zn1 1.943 1_655 S
O9 C8 1.249 . S
O10 Zn0 2.067 . S
O10 C8 1.270 . S
C11 O4 1.262 . S
C11 O12 1.258 . S
O12 C11 1.258 . S
C13 O5 1.260 . S
C13 O6 1.257 . S
Zn14 O17 2.031 1_455 S
Zn14 O19 2.049 . S
Zn14 O24 2.067 . S
Zn15 O16 1.962 1_455 S
Zn15 O18 1.986 . S
Zn15 O20 1.996 . S
Zn15 O23 1.943 . S
O16 Zn15 1.962 1_655 S
O16 C21 1.254 . S
O17 Zn14 2.031 1_655 S
O17 C21 1.269 . S
O18 Zn15 1.986 . S
O18 C25 1.262 1_455 S
O19 Zn14 2.049 . S
O19 C27 1.260 . S
O20 Zn15 1.996 . S
O20 C27 1.257 . S
C21 O16 1.254 . S
C21 O17 1.269 . S
C22 O23 1.249 . S
C22 O24 1.270 . S
O23 Zn15 1.943 . S
O23 C22 1.249 . S
O24 Zn14 2.067 . S
O24 C22 1.270 . S
C25 O18 1.262 1_655 S
C25 O26 1.232 . S
O26 C25 1.232 . S
C27 O19 1.260 . S
C27 O20 1.257 . S
Zn28 O31 2.031 . S
Zn28 O33 2.049 . S
Zn28 O38 2.067 . S
Zn29 O30 1.962 . S
Zn29 O32 1.986 . S
Zn29 O34 1.996 . S
Zn29 O37 1.943 . S
O30 Zn29 1.962 . S
O30 C35 1.254 . S
O31 Zn28 2.031 . S
O31 C35 1.269 . S
O32 Zn29 1.986 . S
O32 C39 1.262 . S
O33 Zn28 2.049 . S
O33 C41 1.260 . S
O34 Zn29 1.996 . S
O34 C41 1.257 . S
C35 O30 1.254 . S
C35 O31 1.269 . S
C36 O37 1.249 . S
C36 O38 1.270 . S
O37 Zn29 1.943 . S
O37 C36 1.249 . S
O38 Zn28 2.067 . S
O38 C36 1.270 . S
C39 O32 1.262 . S
C39 O40 1.232 . S
O40 C39 1.232 . S
C41 O33 1.260 . S
C41 O34 1.257 . S
Zn42 O45 2.031 . S
Zn42 O47 2.049 . S
Zn42 O52 2.067 . S
Zn43 O44 1.962 . S
Zn43 O46 1.986 . S
Zn43 O48 1.996 . S
Zn43 O51 1.943 . S
O44 Zn43 1.962 . S
O44 C49 1.254 . S
O45 Zn42 2.031 . S
O45 C49 1.269 . S
O46 Zn43 1.986 . S
O46 C53 1.262 . S
O47 Zn42 2.049 . S
O47 C55 1.260 . S
O48 Zn43 1.996 . S
O48 C55 1.257 . S
C49 O44 1.254 . S
C49 O45 1.269 . S
C50 O51 1.249 . S
C50 O52 1.270 . S
O51 Zn43 1.943 . S
O51 C50 1.249 . S
O52 Zn42 2.067 . S
O52 C50 1.270 . S
C53 O46 1.262 . S
C53 O54 1.232 . S
O54 C53 1.232 . S
C55 O47 1.260 . S
C55 O48 1.257 . S
Zn56 O59 2.031 . S
Zn56 O61 2.049 . S
Zn56 O66 2.067 . S
Zn57 O58 1.962 . S
Zn57 O60 1.986 . S
Zn57 O62 1.996 . S
Zn57 O65 1.943 1_455 S
O58 Zn57 1.962 . S
O58 C63 1.254 1_455 S
O59 Zn56 2.031 . S
O59 C63 1.269 . S
O60 Zn57 1.986 . S
O60 C67 1.262 . S
O61 Zn56 2.049 . S
O61 C69 1.260 1_655 S
O62 Zn57 1.996 . S
O62 C69 1.257 . S
C63 O58 1.254 1_655 S
C63 O59 1.269 . S
C64 O65 1.249 . S
C64 O66 1.270 . S
O65 Zn57 1.943 1_655 S
O65 C64 1.249 . S
O66 Zn56 2.067 . S
O66 C64 1.270 . S
C67 O60 1.262 . S
C67 O68 1.232 . S
O68 C67 1.232 . S
C69 O61 1.260 1_455 S
C69 O62 1.257 . S
Zn70 O73 2.031 . S
Zn70 O75 2.049 . S
Zn70 O80 2.067 . S
Zn71 O72 1.962 . S
Zn71 O74 1.986 . S
Zn71 O76 1.996 . S
Zn71 O79 1.943 . S
O72 Zn71 1.962 . S
O72 C77 1.254 . S
O73 Zn70 2.031 . S
O73 C77 1.269 . S
O74 Zn71 1.986 . S
O74 C81 1.262 . S
O75 Zn70 2.049 . S
O75 C83 1.260 . S
O76 Zn71 1.996 . S
O76 C83 1.257 . S
C77 O72 1.254 . S
C77 O73 1.269 . S
C78 O79 1.249 . S
C78 O80 1.270 . S
O79 Zn71 1.943 . S
O79 C78 1.249 . S
O80 Zn70 2.067 . S
O80 C78 1.270 . S
C81 O74 1.262 . S
C81 O82 1.232 . S
O82 C81 1.232 . S
C83 O75 1.260 . S
C83 O76 1.257 . S
Zn84 O87 2.031 . S
Zn84 O89 2.049 . S
Zn84 O94 2.067 . S
Zn85 O86 1.962 . S
Zn85 O88 1.986 . S
Zn85 O90 1.996 . S
Zn85 O93 1.943 . S
O86 Zn85 1.962 . S
O86 C91 1.254 . S
O87 Zn84 2.031 . S
O87 C91 1.269 . S
O88 Zn85 1.986 . S
O88 C95 1.262 . S
O89 Zn84 2.049 . S
O89 C97 1.260 . S
O90 Zn85 1.996 . S
O90 C97 1.257 . S
C91 O86 1.254 . S
C91 O87 1.269 . S
C92 O93 1.249 . S
C92 O94 1.270 . S
O93 Zn85 1.943 . S
O93 C92 1.249 . S
O94 Zn84 2.067 . S
O94 C92 1.270 . S
C95 O88 1.262 . S
C95 O96 1.232 . S
O96 C95 1.232 . S
C97 O89 1.260 . S
C97 O90 1.257 . S
Zn98 O101 2.031 . S
Zn98 O103 2.049 . S
Zn98 O108 2.067 . S
Zn99 O100 1.962 . S
Zn99 O102 1.986 . S
Zn99 O104 1.996 1_655 S
Zn99 O107 1.943 1_655 S
O100 Zn99 1.962 . S
O100 C105 1.254 . S
O101 Zn98 2.031 . S
O101 C105 1.269 1_455 S
O102 Zn99 1.986 . S
O102 C109 1.262 . S
O103 Zn98 2.049 . S
O103 C111 1.260 . S
O104 Zn99 1.996 1_455 S
O104 C111 1.257 . S
C105 O100 1.254 . S
C105 O101 1.269 1_655 S
C106 O107 1.249 . S
C106 O108 1.270 . S
O107 Zn99 1.943 1_455 S
O107 C106 1.249 . S
O108 Zn98 2.067 . S
O108 C106 1.270 . S
C109 O102 1.262 . S
C109 O110 1.232 . S
O110 C109 1.232 . S
C111 O103 1.260 . S
C111 O104 1.257 . S
Zn112 O115 2.031 . S
Zn112 O117 2.049 1_565 S
Zn112 O122 2.067 . S
Zn113 O114 1.962 1_545 S
Zn113 O116 1.986 . S
Zn113 O118 1.996 . S
Zn113 O121 1.943 1_545 S
O114 Zn113 1.962 1_565 S
O114 C119 1.254 . S
O115 Zn112 2.031 . S
O115 C119 1.269 . S
O116 Zn113 1.986 . S
O116 C123 1.262 . S
O117 Zn112 2.049 1_545 S
O117 C125 1.260 . S
O118 Zn113 1.996 . S
O118 C125 1.257 . S
C119 O114 1.254 . S
C119 O115 1.269 . S
C120 O121 1.249 . S
C120 O122 1.270 . S
O121 Zn113 1.943 1_565 S
O121 C120 1.249 . S
O122 Zn112 2.067 . S
O122 C120 1.270 . S
C123 O116 1.262 . S
C123 O124 1.258 . S
O124 C123 1.258 . S
C125 O117 1.260 . S
C125 O118 1.257 . S
Zn126 O129 2.031 . S
Zn126 O131 2.049 . S
Zn126 O136 2.067 . S
Zn127 O128 1.962 . S
Zn127 O130 1.986 . S
Zn127 O132 1.996 . S
Zn127 O135 1.943 . S
O128 Zn127 1.962 . S
O128 C133 1.254 . S
O129 Zn126 2.031 . S
O129 C133 1.269 . S
O130 Zn127 1.986 . S
O130 C137 1.262 . S
O131 Zn126 2.049 . S
O131 C139 1.260 . S
O132 Zn127 1.996 . S
O132 C139 1.257 . S
C133 O128 1.254 . S
C133 O129 1.269 . S
C134 O135 1.249 . S
C134 O136 1.270 . S
O135 Zn127 1.943 . S
O135 C134 1.249 . S
O136 Zn126 2.067 . S
O136 C134 1.270 . S
C137 O130 1.262 . S
C137 O138 1.232 . S
O138 C137 1.232 . S
C139 O131 1.260 . S
C139 O132 1.257 . S
Zn140 O143 2.031 . S
Zn140 O145 2.049 . S
Zn140 O150 2.067 . S
Zn141 O142 1.962 . S
Zn141 O144 1.986 . S
Zn141 O146 1.996 . S
Zn141 O149 1.943 1_545 S
O142 Zn141 1.962 . S
O142 C147 1.254 1_545 S
O143 Zn140 2.031 . S
O143 C147 1.269 . S
O144 Zn141 1.986 . S
O144 C151 1.262 . S
O145 Zn140 2.049 . S
O145 C153 1.260 1_565 S
O146 Zn141 1.996 . S
O146 C153 1.257 . S
C147 O142 1.254 1_565 S
C147 O143 1.269 . S
C148 O149 1.249 . S
C148 O150 1.270 . S
O149 Zn141 1.943 1_565 S
O149 C148 1.249 . S
O150 Zn140 2.067 . S
O150 C148 1.270 . S
C151 O144 1.262 . S
C151 O152 1.232 . S
O152 C151 1.232 . S
C153 O145 1.260 1_545 S
C153 O146 1.257 . S
Zn154 O157 2.031 . S
Zn154 O159 2.049 . S
Zn154 O164 2.067 . S
Zn155 O156 1.962 . S
Zn155 O158 1.986 . S
Zn155 O160 1.996 1_556 S
Zn155 O163 1.943 1_556 S
O156 Zn155 1.962 . S
O156 C161 1.254 . S
O157 Zn154 2.031 . S
O157 C161 1.269 1_554 S
O158 Zn155 1.986 . S
O158 C165 1.262 . S
O159 Zn154 2.049 . S
O159 C167 1.260 . S
O160 Zn155 1.996 1_554 S
O160 C167 1.257 . S
C161 O156 1.254 . S
C161 O157 1.269 1_556 S
C162 O163 1.249 . S
C162 O164 1.270 . S
O163 Zn155 1.943 1_554 S
O163 C162 1.249 . S
O164 Zn154 2.067 . S
O164 C162 1.270 . S
C165 O158 1.262 . S
C165 O166 1.232 . S
O166 C165 1.232 . S
C167 O159 1.260 . S
C167 O160 1.257 . S
Zn168 O171 2.031 . S
Zn168 O173 2.049 1_556 S
Zn168 O178 2.067 . S
Zn169 O170 1.962 1_554 S
Zn169 O172 1.986 . S
Zn169 O174 1.996 . S
Zn169 O177 1.943 1_554 S
O170 Zn169 1.962 1_556 S
O170 C175 1.254 . S
O171 Zn168 2.031 . S
O171 C175 1.269 . S
O172 Zn169 1.986 . S
O172 C179 1.262 . S
O173 Zn168 2.049 1_554 S
O173 C181 1.260 . S
O174 Zn169 1.996 . S
O174 C181 1.257 . S
C175 O170 1.254 . S
C175 O171 1.269 . S
C176 O177 1.249 . S
C176 O178 1.270 . S
O177 Zn169 1.943 1_556 S
O177 C176 1.249 . S
O178 Zn168 2.067 . S
O178 C176 1.270 . S
C179 O172 1.262 . S
C179 O180 1.258 . S
O180 C179 1.258 . S
C181 O173 1.260 . S
C181 O174 1.257 . S
Zn182 O185 2.031 . S
Zn182 O187 2.049 . S
Zn182 O192 2.067 . S
Zn183 O184 1.962 . S
Zn183 O186 1.986 . S
Zn183 O188 1.996 . S
Zn183 O191 1.943 1_554 S
O184 Zn183 1.962 . S
O184 C189 1.254 1_554 S
O185 Zn182 2.031 . S
O185 C189 1.269 . S
O186 Zn183 1.986 . S
O186 C193 1.262 . S
O187 Zn182 2.049 . S
O187 C195 1.260 1_556 S
O188 Zn183 1.996 . S
O188 C195 1.257 . S
C189 O184 1.254 1_556 S
C189 O185 1.269 . S
C190 O191 1.249 . S
C190 O192 1.270 . S
O191 Zn183 1.943 1_556 S
O191 C190 1.249 . S
O192 Zn182 2.067 . S
O192 C190 1.270 . S
C193 O186 1.262 . S
C193 O194 1.232 . S
O194 C193 1.232 . S
C195 O187 1.260 1_554 S
C195 O188 1.257 . S
Zn196 O199 2.031 . S
Zn196 O201 2.049 . S
Zn196 O206 2.067 . S
Zn197 O198 1.962 . S
Zn197 O200 1.986 . S
Zn197 O202 1.996 . S
Zn197 O205 1.943 . S
O198 Zn197 1.962 . S
O198 C203 1.254 . S
O199 Zn196 2.031 . S
O199 C203 1.269 . S
O200 Zn197 1.986 . S
O200 C207 1.262 . S
O201 Zn196 2.049 . S
O201 C209 1.260 . S
O202 Zn197 1.996 . S
O202 C209 1.257 . S
C203 O198 1.254 . S
C203 O199 1.269 . S
C204 O205 1.249 . S
C204 O206 1.270 . S
O205 Zn197 1.943 . S
O205 C204 1.249 . S
O206 Zn196 2.067 . S
O206 C204 1.270 . S
C207 O200 1.262 . S
C207 O208 1.232 . S
O208 C207 1.232 . S
C209 O201 1.260 . S
C209 O202 1.257 . S
Zn210 O213 2.031 . S
Zn210 O215 2.049 . S
Zn210 O220 2.067 . S
Zn211 O212 1.962 . S
Zn211 O214 1.986 . S
Zn211 O216 1.996 . S
Zn211 O219 1.943 . S
O212 Zn211 1.962 . S
O212 C217 1.254 . S
O213 Zn210 2.031 . S
O213 C217 1.269 . S
O214 Zn211 1.986 . S
O214 C221 1.262 . S
O215 Zn210 2.049 . S
O215 C223 1.260 . S
O216 Zn211 1.996 . S
O216 C223 1.257 . S
C217 O212 1.254 . S
C217 O213 1.269 . S
C218 O219 1.249 . S
C218 O220 1.270 . S
O219 Zn211 1.943 . S
O219 C218 1.249 . S
O220 Zn210 2.067 . S
O220 C218 1.270 . S
C221 O214 1.262 . S
C221 O222 1.232 . S
O222 C221 1.232 . S
C223 O215 1.260 . S
C223 O216 1.257 . S
Zn224 O227 2.031 . S
Zn224 O229 2.049 . S
Zn224 O234 2.067 . S
Zn225 O226 1.962 . S
Zn225 O228 1.986 . S
Zn225 O230 1.996 1_565 S
Zn225 O233 1.943 1_565 S
O226 Zn225 1.962 . S
O226 C231 1.254 . S
O227 Zn224 2.031 . S
O227 C231 1.269 1_545 S
O228 Zn225 1.986 . S
O228 C235 1.262 . S
O229 Zn224 2.049 . S
O229 C237 1.260 . S
O230 Zn225 1.996 1_545 S
O230 C237 1.257 . S
C231 O226 1.254 . S
C231 O227 1.269 1_565 S
C232 O233 1.249 . S
C232 O234 1.270 . S
O233 Zn225 1.943 1_545 S
O233 C232 1.249 . S
O234 Zn224 2.067 . S
O234 C232 1.270 . S
C235 O228 1.262 . S
C235 O236 1.232 . S
O236 C235 1.232 . S
C237 O229 1.260 . S
C237 O230 1.257 . S
Zn238 O241 2.031 . S
Zn238 O243 2.049 . S
Zn238 O248 2.067 . S
Zn239 O240 1.962 . S
Zn239 O242 1.986 . S
Zn239 O244 1.996 . S
Zn239 O247 1.943 . S
O240 Zn239 1.962 . S
O240 C245 1.254 . S
O241 Zn238 2.031 . S
O241 C245 1.269 . S
O242 Zn239 1.986 . S
O242 C249 1.262 . S
O243 Zn238 2.049 . S
O243 C251 1.260 . S
O244 Zn239 1.996 . S
O244 C251 1.257 . S
C245 O240 1.254 . S
C245 O241 1.269 . S
C246 O247 1.249 . S
C246 O248 1.270 . S
O247 Zn239 1.943 . S
O247 C246 1.249 . S
O248 Zn238 2.067 . S
O248 C246 1.270 . S
C249 O242 1.262 . S
C249 O250 1.232 . S
O250 C249 1.232 . S
C251 O243 1.260 . S
C251 O244 1.257 . S
Zn252 O255 2.031 . S
Zn252 O257 2.049 . S
Zn252 O262 2.067 . S
Zn253 O254 1.962 . S
Zn253 O256 1.986 . S
Zn253 O258 1.996 . S
Zn253 O261 1.943 . S
O254 Zn253 1.962 . S
O254 C259 1.254 . S
O255 Zn252 2.031 . S
O255 C259 1.269 . S
O256 Zn253 1.986 . S
O256 C263 1.262 . S
O257 Zn252 2.049 . S
O257 C265 1.260 . S
O258 Zn253 1.996 . S
O258 C265 1.257 . S
C259 O254 1.254 . S
C259 O255 1.269 . S
C260 O261 1.249 . S
C260 O262 1.270 . S
O261 Zn253 1.943 . S
O261 C260 1.249 . S
O262 Zn252 2.067 . S
O262 C260 1.270 . S
C263 O256 1.262 . S
C263 O264 1.232 . S
O264 C263 1.232 . S
C265 O257 1.260 . S
C265 O258 1.257 . S
Zn266 O269 2.031 1_545 S
Zn266 O271 2.049 . S
Zn266 O276 2.067 . S
Zn267 O268 1.962 1_545 S
Zn267 O270 1.986 . S
Zn267 O272 1.996 . S
Zn267 O275 1.943 . S
O268 Zn267 1.962 1_565 S
O268 C273 1.254 . S
O269 Zn266 2.031 1_565 S
O269 C273 1.269 . S
O270 Zn267 1.986 . S
O270 C277 1.262 1_545 S
O271 Zn266 2.049 . S
O271 C279 1.260 . S
O272 Zn267 1.996 . S
O272 C279 1.257 . S
C273 O268 1.254 . S
C273 O269 1.269 . S
C274 O275 1.249 . S
C274 O276 1.270 . S
O275 Zn267 1.943 . S
O275 C274 1.249 . S
O276 Zn266 2.067 . S
O276 C274 1.270 . S
C277 O270 1.262 1_565 S
C277 O278 1.232 . S
O278 C277 1.232 . S
C279 O271 1.260 . S
C279 O272 1.257 . S
Zn280 O283 2.031 1_554 S
Zn280 O285 2.049 . S
Zn280 O290 2.067 . S
Zn281 O282 1.962 1_554 S
Zn281 O284 1.986 . S
Zn281 O286 1.996 . S
Zn281 O289 1.943 . S
O282 Zn281 1.962 1_556 S
O282 C287 1.254 . S
O283 Zn280 2.031 1_556 S
O283 C287 1.269 . S
O284 Zn281 1.986 . S
O284 C291 1.262 1_554 S
O285 Zn280 2.049 . S
O285 C293 1.260 . S
O286 Zn281 1.996 . S
O286 C293 1.257 . S
C287 O282 1.254 . S
C287 O283 1.269 . S
C288 O289 1.249 . S
C288 O290 1.270 . S
O289 Zn281 1.943 . S
O289 C288 1.249 . S
O290 Zn280 2.067 . S
O290 C288 1.270 . S
C291 O284 1.262 1_556 S
C291 O292 1.232 . S
O292 C291 1.232 . S
C293 O285 1.260 . S
C293 O286 1.257 . S
Zn294 O297 2.031 . S
Zn294 O299 2.049 . S
Zn294 O304 2.067 . S
Zn295 O296 1.962 . S
Zn295 O298 1.986 . S
Zn295 O300 1.996 . S
Zn295 O303 1.943 . S
O296 Zn295 1.962 . S
O296 C301 1.254 . S
O297 Zn294 2.031 . S
O297 C301 1.269 . S
O298 Zn295 1.986 . S
O298 C305 1.262 . S
O299 Zn294 2.049 . S
O299 C307 1.260 . S
O300 Zn295 1.996 . S
O300 C307 1.257 . S
C301 O296 1.254 . S
C301 O297 1.269 . S
C302 O303 1.249 . S
C302 O304 1.270 . S
O303 Zn295 1.943 . S
O303 C302 1.249 . S
O304 Zn294 2.067 . S
O304 C302 1.270 . S
C305 O298 1.262 . S
C305 O306 1.232 . S
O306 C305 1.232 . S
C307 O299 1.260 . S
C307 O300 1.257 . S
Zn308 O311 2.031 . S
Zn308 O313 2.049 . S
Zn308 O318 2.067 . S
Zn309 O310 1.962 . S
Zn309 O312 1.986 . S
Zn309 O314 1.996 . S
Zn309 O317 1.943 . S
O310 Zn309 1.962 . S
O310 C315 1.254 . S
O311 Zn308 2.031 . S
O311 C315 1.269 . S
O312 Zn309 1.986 . S
O312 C319 1.262 . S
O313 Zn308 2.049 . S
O313 C321 1.260 . S
O314 Zn309 1.996 . S
O314 C321 1.257 . S
C315 O310 1.254 . S
C315 O311 1.269 . S
C316 O317 1.249 . S
C316 O318 1.270 . S
O317 Zn309 1.943 . S
O317 C316 1.249 . S
O318 Zn308 2.067 . S
O318 C316 1.270 . S
C319 O312 1.262 . S
C319 O320 1.232 . S
O320 C319 1.232 . S
C321 O313 1.260 . S
C321 O314 1.257 . S
Zn322 O325 2.031 . S
Zn322 O327 2.049 . S
Zn322 O332 2.067 . S
Zn323 O324 1.962 . S
Zn323 O326 1.986 . S
Zn323 O328 1.996 . S
Zn323 O331 1.943 . S
O324 Zn323 1.962 . S
O324 C329 1.254 . S
O325 Zn322 2.031 . S
O325 C329 1.269 . S
O326 Zn323 1.986 . S
O326 C333 1.262 . S
O327 Zn322 2.049 . S
O327 C335 1.260 . S
O328 Zn323 1.996 . S
O328 C335 1.257 . S
C329 O324 1.254 . S
C329 O325 1.269 . S
C330 O331 1.249 . S
C330 O332 1.270 . S
O331 Zn323 1.943 . S
O331 C330 1.249 . S
O332 Zn322 2.067 . S
O332 C330 1.270 . S
C333 O326 1.262 . S
C333 O334 1.232 . S
O334 C333 1.232 . S
C335 O327 1.260 . S
C335 O328 1.257 . S
H336 C344 0.929 . S
H337 C346 0.930 . S
H338 C348 0.930 . S
H339 C351 0.929 . S
H340 C354 0.930 . S
H341 C356 0.960 . S
H342 C356 0.960 . S
H343 C356 0.960 . S
C344 H336 0.929 . S
C344 C345 1.377 . S
C344 C346 1.384 . S
C345 C344 1.377 . S
C345 C351 1.390 . S
C346 H337 0.930 . S
C346 C344 1.384 . S
C346 C347 1.372 . S
C347 C346 1.372 . S
C347 C348 1.400 . S
C347 C352 1.490 . S
C348 H338 0.930 . S
C348 C347 1.400 . S
C348 C351 1.386 . S
H349 C365 0.930 . S
H350 C366 0.931 . S
C351 H339 0.929 . S
C351 C345 1.390 . S
C351 C348 1.386 . S
C352 C347 1.490 . S
C352 C354 1.395 . S
C352 C355 1.403 . S
H353 C359 0.930 . S
C354 H340 0.930 . S
C354 C352 1.395 . S
C354 C357 1.403 . S
C355 C352 1.403 . S
C355 C356 1.524 . S
C355 C359 1.400 . S
C356 H341 0.960 . S
C356 H342 0.960 . S
C356 H343 0.960 . S
C356 C355 1.524 . S
C357 C354 1.403 . S
C357 C358 1.392 . S
C357 C361 1.495 . S
C358 C357 1.392 . S
C358 C359 1.385 . S
C358 C360 1.478 . S
C359 H353 0.930 . S
C359 C355 1.400 . S
C359 C358 1.385 . S
C360 C358 1.478 . S
C360 C362 1.381 . S
C360 C366 1.383 . S
C361 C357 1.495 . S
C361 H367 0.959 . S
C361 H368 0.961 . S
C361 H369 0.960 . S
C362 C360 1.381 . S
C362 C363 1.394 . S
C362 H370 0.930 . S
C363 C362 1.394 . S
C363 C364 1.383 . S
C363 H371 0.929 . S
C364 C363 1.383 . S
C364 C365 1.377 . S
C365 H349 0.930 . S
C365 C364 1.377 . S
C365 C366 1.379 . S
C366 H350 0.931 . S
C366 C360 1.383 . S
C366 C365 1.379 . S
H367 C361 0.959 . S
H368 C361 0.961 . S
H369 C361 0.960 . S
H370 C362 0.930 . S
H371 C363 0.929 . S
H372 C380 0.929 . S
H373 C382 0.930 . S
H374 C384 0.930 . S
H375 C387 0.929 . S
H376 C390 0.930 . S
H377 C392 0.960 . S
H378 C392 0.960 . S
H379 C392 0.960 . S
C380 H372 0.929 . S
C380 C381 1.377 . S
C380 C382 1.384 . S
C381 C380 1.377 . S
C381 C387 1.390 . S
C382 H373 0.930 . S
C382 C380 1.384 . S
C382 C383 1.372 . S
C383 C382 1.372 . S
C383 C384 1.400 . S
C383 C388 1.490 . S
C384 H374 0.930 . S
C384 C383 1.400 . S
C384 C387 1.386 . S
H385 C401 0.930 . S
H386 C402 0.931 . S
C387 H375 0.929 . S
C387 C381 1.390 . S
C387 C384 1.386 . S
C388 C383 1.490 . S
C388 C390 1.395 . S
C388 C391 1.403 . S
H389 C395 0.930 . S
C390 H376 0.930 . S
C390 C388 1.395 . S
C390 C393 1.403 . S
C391 C388 1.403 . S
C391 C392 1.524 . S
C391 C395 1.400 . S
C392 H377 0.960 . S
C392 H378 0.960 . S
C392 H379 0.960 . S
C392 C391 1.524 . S
C393 C390 1.403 . S
C393 C394 1.392 . S
C393 C397 1.495 . S
C394 C393 1.392 . S
C394 C395 1.385 . S
C394 C396 1.478 . S
C395 H389 0.930 . S
C395 C391 1.400 . S
C395 C394 1.385 . S
C396 C394 1.478 . S
C396 C398 1.381 . S
C396 C402 1.383 . S
C397 C393 1.495 . S
C397 H403 0.959 . S
C397 H404 0.961 . S
C397 H405 0.960 . S
C398 C396 1.381 . S
C398 C399 1.394 . S
C398 H406 0.930 . S
C399 C398 1.394 . S
C399 C400 1.383 . S
C399 H407 0.929 . S
C400 C399 1.383 . S
C400 C401 1.377 . S
C401 H385 0.930 . S
C401 C400 1.377 . S
C401 C402 1.379 . S
C402 H386 0.931 . S
C402 C396 1.383 . S
C402 C401 1.379 . S
H403 C397 0.959 . S
H404 C397 0.961 . S
H405 C397 0.960 . S
H406 C398 0.930 . S
H407 C399 0.929 . S
H408 C416 0.929 . S
H409 C418 0.930 . S
H410 C420 0.930 . S
H411 C423 0.929 . S
H412 C426 0.930 . S
H413 C428 0.960 . S
H414 C428 0.960 . S
H415 C428 0.960 . S
C416 H408 0.929 . S
C416 C417 1.377 . S
C416 C418 1.384 . S
C417 C416 1.377 . S
C417 C423 1.390 . S
C418 H409 0.930 . S
C418 C416 1.384 . S
C418 C419 1.372 . S
C419 C418 1.372 . S
C419 C420 1.400 . S
C419 C424 1.490 . S
C420 H410 0.930 . S
C420 C419 1.400 . S
C420 C423 1.386 . S
H421 C437 0.930 . S
H422 C438 0.931 . S
C423 H411 0.929 . S
C423 C417 1.390 . S
C423 C420 1.386 . S
C424 C419 1.490 . S
C424 C426 1.395 . S
C424 C427 1.403 . S
H425 C431 0.930 . S
C426 H412 0.930 . S
C426 C424 1.395 . S
C426 C429 1.403 . S
C427 C424 1.403 . S
C427 C428 1.524 . S
C427 C431 1.400 . S
C428 H413 0.960 . S
C428 H414 0.960 . S
C428 H415 0.960 . S
C428 C427 1.524 . S
C429 C426 1.403 . S
C429 C430 1.392 . S
C429 C433 1.495 . S
C430 C429 1.392 . S
C430 C431 1.385 . S
C430 C432 1.478 . S
C431 H425 0.930 . S
C431 C427 1.400 . S
C431 C430 1.385 . S
C432 C430 1.478 . S
C432 C434 1.381 . S
C432 C438 1.383 . S
C433 C429 1.495 . S
C433 H439 0.959 . S
C433 H440 0.961 . S
C433 H441 0.960 . S
C434 C432 1.381 . S
C434 C435 1.394 . S
C434 H442 0.930 . S
C435 C434 1.394 . S
C435 C436 1.383 . S
C435 H443 0.929 . S
C436 C435 1.383 . S
C436 C437 1.377 . S
C437 H421 0.930 . S
C437 C436 1.377 . S
C437 C438 1.379 . S
C438 H422 0.931 . S
C438 C432 1.383 . S
C438 C437 1.379 . S
H439 C433 0.959 . S
H440 C433 0.961 . S
H441 C433 0.960 . S
H442 C434 0.930 . S
H443 C435 0.929 . S
H444 C452 0.929 . S
H445 C454 0.930 . S
H446 C456 0.930 . S
H447 C459 0.929 . S
H448 C462 0.930 . S
H449 C464 0.960 . S
H450 C464 0.960 . S
H451 C464 0.960 . S
C452 H444 0.929 . S
C452 C453 1.377 . S
C452 C454 1.384 . S
C453 C452 1.377 . S
C453 C459 1.390 . S
C454 H445 0.930 . S
C454 C452 1.384 . S
C454 C455 1.372 . S
C455 C454 1.372 . S
C455 C456 1.400 . S
C455 C460 1.490 . S
C456 H446 0.930 . S
C456 C455 1.400 . S
C456 C459 1.386 . S
H457 C473 0.930 . S
H458 C474 0.931 . S
C459 H447 0.929 . S
C459 C453 1.390 . S
C459 C456 1.386 . S
C460 C455 1.490 . S
C460 C462 1.395 . S
C460 C463 1.403 . S
H461 C467 0.930 . S
C462 H448 0.930 . S
C462 C460 1.395 . S
C462 C465 1.403 . S
C463 C460 1.403 . S
C463 C464 1.524 . S
C463 C467 1.400 . S
C464 H449 0.960 . S
C464 H450 0.960 . S
C464 H451 0.960 . S
C464 C463 1.524 . S
C465 C462 1.403 . S
C465 C466 1.392 . S
C465 C469 1.495 . S
C466 C465 1.392 . S
C466 C467 1.385 . S
C466 C468 1.478 . S
C467 H461 0.930 . S
C467 C463 1.400 . S
C467 C466 1.385 . S
C468 C466 1.478 . S
C468 C470 1.381 . S
C468 C474 1.383 . S
C469 C465 1.495 . S
C469 H475 0.959 . S
C469 H476 0.961 . S
C469 H477 0.960 . S
C470 C468 1.381 . S
C470 C471 1.394 . S
C470 H478 0.930 . S
C471 C470 1.394 . S
C471 C472 1.383 . S
C471 H479 0.929 . S
C472 C471 1.383 . S
C472 C473 1.377 . S
C473 H457 0.930 . S
C473 C472 1.377 . S
C473 C474 1.379 . S
C474 H458 0.931 . S
C474 C468 1.383 . S
C474 C473 1.379 . S
H475 C469 0.959 . S
H476 C469 0.961 . S
H477 C469 0.960 . S
H478 C470 0.930 . S
H479 C471 0.929 . S
H480 C488 0.929 . S
H481 C490 0.930 . S
H482 C492 0.930 . S
H483 C495 0.929 . S
H484 C498 0.930 . S
H485 C500 0.960 . S
H486 C500 0.960 . S
H487 C500 0.960 . S
C488 H480 0.929 . S
C488 C489 1.377 . S
C488 C490 1.384 . S
C489 C488 1.377 . S
C489 C495 1.390 . S
C490 H481 0.930 . S
C490 C488 1.384 . S
C490 C491 1.372 . S
C491 C490 1.372 . S
C491 C492 1.400 . S
C491 C496 1.490 . S
C492 H482 0.930 . S
C492 C491 1.400 . S
C492 C495 1.386 . S
H493 C509 0.930 . S
H494 C510 0.931 . S
C495 H483 0.929 . S
C495 C489 1.390 . S
C495 C492 1.386 . S
C496 C491 1.490 . S
C496 C498 1.395 . S
C496 C499 1.403 . S
H497 C503 0.930 . S
C498 H484 0.930 . S
C498 C496 1.395 . S
C498 C501 1.403 . S
C499 C496 1.403 . S
C499 C500 1.524 . S
C499 C503 1.400 . S
C500 H485 0.960 . S
C500 H486 0.960 . S
C500 H487 0.960 . S
C500 C499 1.524 . S
C501 C498 1.403 . S
C501 C502 1.392 . S
C501 C505 1.495 . S
C502 C501 1.392 . S
C502 C503 1.385 . S
C502 C504 1.478 . S
C503 H497 0.930 . S
C503 C499 1.400 . S
C503 C502 1.385 . S
C504 C502 1.478 . S
C504 C506 1.381 . S
C504 C510 1.383 . S
C505 C501 1.495 . S
C505 H511 0.959 . S
C505 H512 0.961 . S
C505 H513 0.960 . S
C506 C504 1.381 . S
C506 C507 1.394 . S
C506 H514 0.930 . S
C507 C506 1.394 . S
C507 C508 1.383 . S
C507 H515 0.929 . S
C508 C507 1.383 . S
C508 C509 1.377 . S
C509 H493 0.930 . S
C509 C508 1.377 . S
C509 C510 1.379 . S
C510 H494 0.931 . S
C510 C504 1.383 . S
C510 C509 1.379 . S
H511 C505 0.959 . S
H512 C505 0.961 . S
H513 C505 0.960 . S
H514 C506 0.930 . S
H515 C507 0.929 . S
H516 C524 0.929 . S
H517 C526 0.930 . S
H518 C528 0.930 . S
H519 C531 0.929 . S
H520 C534 0.930 . S
H521 C536 0.960 . S
H522 C536 0.960 . S
H523 C536 0.960 . S
C524 H516 0.929 . S
C524 C525 1.377 . S
C524 C526 1.384 . S
C525 C524 1.377 . S
C525 C531 1.390 . S
C526 H517 0.930 . S
C526 C524 1.384 . S
C526 C527 1.372 . S
C527 C526 1.372 . S
C527 C528 1.400 . S
C527 C532 1.490 . S
C528 H518 0.930 . S
C528 C527 1.400 . S
C528 C531 1.386 . S
H529 C545 0.930 . S
H530 C546 0.931 . S
C531 H519 0.929 . S
C531 C525 1.390 . S
C531 C528 1.386 . S
C532 C527 1.490 . S
C532 C534 1.395 . S
C532 C535 1.403 . S
H533 C539 0.930 . S
C534 H520 0.930 . S
C534 C532 1.395 . S
C534 C537 1.403 . S
C535 C532 1.403 . S
C535 C536 1.524 . S
C535 C539 1.400 . S
C536 H521 0.960 . S
C536 H522 0.960 . S
C536 H523 0.960 . S
C536 C535 1.524 . S
C537 C534 1.403 . S
C537 C538 1.392 . S
C537 C541 1.495 . S
C538 C537 1.392 . S
C538 C539 1.385 . S
C538 C540 1.478 . S
C539 H533 0.930 . S
C539 C535 1.400 . S
C539 C538 1.385 . S
C540 C538 1.478 . S
C540 C542 1.381 . S
C540 C546 1.383 . S
C541 C537 1.495 . S
C541 H547 0.959 . S
C541 H548 0.961 . S
C541 H549 0.960 . S
C542 C540 1.381 . S
C542 C543 1.394 . S
C542 H550 0.930 . S
C543 C542 1.394 . S
C543 C544 1.383 . S
C543 H551 0.929 . S
C544 C543 1.383 . S
C544 C545 1.377 . S
C545 H529 0.930 . S
C545 C544 1.377 . S
C545 C546 1.379 . S
C546 H530 0.931 . S
C546 C540 1.383 . S
C546 C545 1.379 . S
H547 C541 0.959 . S
H548 C541 0.961 . S
H549 C541 0.960 . S
H550 C542 0.930 . S
H551 C543 0.929 . S
H552 C560 0.929 . S
H553 C562 0.930 . S
H554 C564 0.930 . S
H555 C567 0.929 . S
H556 C570 0.930 . S
H557 C572 0.960 . S
H558 C572 0.960 . S
H559 C572 0.960 . S
C560 H552 0.929 . S
C560 C561 1.377 . S
C560 C562 1.384 . S
C561 C560 1.377 . S
C561 C567 1.390 . S
C562 H553 0.930 . S
C562 C560 1.384 . S
C562 C563 1.372 . S
C563 C562 1.372 . S
C563 C564 1.400 . S
C563 C568 1.490 . S
C564 H554 0.930 . S
C564 C563 1.400 . S
C564 C567 1.386 . S
H565 C581 0.930 . S
H566 C582 0.931 . S
C567 H555 0.929 . S
C567 C561 1.390 . S
C567 C564 1.386 . S
C568 C563 1.490 . S
C568 C570 1.395 . S
C568 C571 1.403 . S
H569 C575 0.930 . S
C570 H556 0.930 . S
C570 C568 1.395 . S
C570 C573 1.403 . S
C571 C568 1.403 . S
C571 C572 1.524 . S
C571 C575 1.400 . S
C572 H557 0.960 . S
C572 H558 0.960 . S
C572 H559 0.960 . S
C572 C571 1.524 . S
C573 C570 1.403 . S
C573 C574 1.392 . S
C573 C577 1.495 . S
C574 C573 1.392 . S
C574 C575 1.385 . S
C574 C576 1.478 . S
C575 H569 0.930 . S
C575 C571 1.400 . S
C575 C574 1.385 . S
C576 C574 1.478 . S
C576 C578 1.381 . S
C576 C582 1.383 . S
C577 C573 1.495 . S
C577 H583 0.959 . S
C577 H584 0.961 . S
C577 H585 0.960 . S
C578 C576 1.381 . S
C578 C579 1.394 . S
C578 H586 0.930 . S
C579 C578 1.394 . S
C579 C580 1.383 . S
C579 H587 0.929 . S
C580 C579 1.383 . S
C580 C581 1.377 . S
C581 H565 0.930 . S
C581 C580 1.377 . S
C581 C582 1.379 . S
C582 H566 0.931 . S
C582 C576 1.383 . S
C582 C581 1.379 . S
H583 C577 0.959 . S
H584 C577 0.961 . S
H585 C577 0.960 . S
H586 C578 0.930 . S
H587 C579 0.929 . S
H588 C596 0.929 . S
H589 C598 0.930 . S
H590 C600 0.930 . S
H591 C603 0.929 . S
H592 C606 0.930 . S
H593 C608 0.960 . S
H594 C608 0.960 . S
H595 C608 0.960 . S
C596 H588 0.929 . S
C596 C597 1.377 . S
C596 C598 1.384 . S
C597 C596 1.377 . S
C597 C603 1.390 . S
C598 H589 0.930 . S
C598 C596 1.384 . S
C598 C599 1.372 . S
C599 C598 1.372 . S
C599 C600 1.400 . S
C599 C604 1.490 . S
C600 H590 0.930 . S
C600 C599 1.400 . S
C600 C603 1.386 . S
H601 C617 0.930 . S
H602 C618 0.931 . S
C603 H591 0.929 . S
C603 C597 1.390 . S
C603 C600 1.386 . S
C604 C599 1.490 . S
C604 C606 1.395 . S
C604 C607 1.403 . S
H605 C611 0.930 . S
C606 H592 0.930 . S
C606 C604 1.395 . S
C606 C609 1.403 . S
C607 C604 1.403 . S
C607 C608 1.524 . S
C607 C611 1.400 . S
C608 H593 0.960 . S
C608 H594 0.960 . S
C608 H595 0.960 . S
C608 C607 1.524 . S
C609 C606 1.403 . S
C609 C610 1.392 . S
C609 C613 1.495 . S
C610 C609 1.392 . S
C610 C611 1.385 . S
C610 C612 1.478 . S
C611 H605 0.930 . S
C611 C607 1.400 . S
C611 C610 1.385 . S
C612 C610 1.478 . S
C612 C614 1.381 . S
C612 C618 1.383 . S
C613 C609 1.495 . S
C613 H619 0.959 . S
C613 H620 0.961 . S
C613 H621 0.960 . S
C614 C612 1.381 . S
C614 C615 1.394 . S
C614 H622 0.930 . S
C615 C614 1.394 . S
C615 C616 1.383 . S
C615 H623 0.929 . S
C616 C615 1.383 . S
C616 C617 1.377 . S
C617 H601 0.930 . S
C617 C616 1.377 . S
C617 C618 1.379 . S
C618 H602 0.931 . S
C618 C612 1.383 . S
C618 C617 1.379 . S
H619 C613 0.959 . S
H620 C613 0.961 . S
H621 C613 0.960 . S
H622 C614 0.930 . S
H623 C615 0.929 . S
H624 C632 0.929 . S
H625 C634 0.930 . S
H626 C636 0.930 . S
H627 C639 0.929 . S
H628 C642 0.930 . S
H629 C644 0.960 . S
H630 C644 0.960 . S
H631 C644 0.960 . S
C632 H624 0.929 . S
C632 C633 1.377 . S
C632 C634 1.384 . S
C633 C632 1.377 . S
C633 C639 1.390 . S
C634 H625 0.930 . S
C634 C632 1.384 . S
C634 C635 1.372 . S
C635 C634 1.372 . S
C635 C636 1.400 . S
C635 C640 1.490 . S
C636 H626 0.930 . S
C636 C635 1.400 . S
C636 C639 1.386 . S
H637 C653 0.930 . S
H638 C654 0.931 . S
C639 H627 0.929 . S
C639 C633 1.390 . S
C639 C636 1.386 . S
C640 C635 1.490 . S
C640 C642 1.395 . S
C640 C643 1.403 . S
H641 C647 0.930 . S
C642 H628 0.930 . S
C642 C640 1.395 . S
C642 C645 1.403 . S
C643 C640 1.403 . S
C643 C644 1.524 . S
C643 C647 1.400 . S
C644 H629 0.960 . S
C644 H630 0.960 . S
C644 H631 0.960 . S
C644 C643 1.524 . S
C645 C642 1.403 . S
C645 C646 1.392 . S
C645 C649 1.495 . S
C646 C645 1.392 . S
C646 C647 1.385 . S
C646 C648 1.478 . S
C647 H641 0.930 . S
C647 C643 1.400 . S
C647 C646 1.385 . S
C648 C646 1.478 . S
C648 C650 1.381 . S
C648 C654 1.383 . S
C649 C645 1.495 . S
C649 H655 0.959 . S
C649 H656 0.961 . S
C649 H657 0.960 . S
C650 C648 1.381 . S
C650 C651 1.394 . S
C650 H658 0.930 . S
C651 C650 1.394 . S
C651 C652 1.383 . S
C651 H659 0.929 . S
C652 C651 1.383 . S
C652 C653 1.377 . S
C653 H637 0.930 . S
C653 C652 1.377 . S
C653 C654 1.379 . S
C654 H638 0.931 . S
C654 C648 1.383 . S
C654 C653 1.379 . S
H655 C649 0.959 . S
H656 C649 0.961 . S
H657 C649 0.960 . S
H658 C650 0.930 . S
H659 C651 0.929 . S
H660 C668 0.929 . S
H661 C670 0.930 . S
H662 C672 0.930 . S
H663 C675 0.929 . S
H664 C678 0.930 . S
H665 C680 0.960 . S
H666 C680 0.960 . S
H667 C680 0.960 . S
C668 H660 0.929 . S
C668 C669 1.377 . S
C668 C670 1.384 . S
C669 C668 1.377 . S
C669 C675 1.390 . S
C670 H661 0.930 . S
C670 C668 1.384 . S
C670 C671 1.372 . S
C671 C670 1.372 . S
C671 C672 1.400 . S
C671 C676 1.490 . S
C672 H662 0.930 . S
C672 C671 1.400 . S
C672 C675 1.386 . S
H673 C689 0.930 . S
H674 C690 0.931 . S
C675 H663 0.929 . S
C675 C669 1.390 . S
C675 C672 1.386 . S
C676 C671 1.490 . S
C676 C678 1.395 . S
C676 C679 1.403 . S
H677 C683 0.930 . S
C678 H664 0.930 . S
C678 C676 1.395 . S
C678 C681 1.403 . S
C679 C676 1.403 . S
C679 C680 1.524 . S
C679 C683 1.400 . S
C680 H665 0.960 . S
C680 H666 0.960 . S
C680 H667 0.960 . S
C680 C679 1.524 . S
C681 C678 1.403 . S
C681 C682 1.392 . S
C681 C685 1.495 . S
C682 C681 1.392 . S
C682 C683 1.385 . S
C682 C684 1.478 . S
C683 H677 0.930 . S
C683 C679 1.400 . S
C683 C682 1.385 . S
C684 C682 1.478 . S
C684 C686 1.381 . S
C684 C690 1.383 . S
C685 C681 1.495 . S
C685 H691 0.959 . S
C685 H692 0.961 . S
C685 H693 0.960 . S
C686 C684 1.381 . S
C686 C687 1.394 . S
C686 H694 0.930 . S
C687 C686 1.394 . S
C687 C688 1.383 . S
C687 H695 0.929 . S
C688 C687 1.383 . S
C688 C689 1.377 . S
C689 H673 0.930 . S
C689 C688 1.377 . S
C689 C690 1.379 . S
C690 H674 0.931 . S
C690 C684 1.383 . S
C690 C689 1.379 . S
H691 C685 0.959 . S
H692 C685 0.961 . S
H693 C685 0.960 . S
H694 C686 0.930 . S
H695 C687 0.929 . S
H696 C704 0.929 . S
H697 C706 0.930 . S
H698 C708 0.930 . S
H699 C711 0.929 . S
H700 C714 0.930 . S
H701 C716 0.960 . S
H702 C716 0.960 . S
H703 C716 0.960 . S
C704 H696 0.929 . S
C704 C705 1.377 . S
C704 C706 1.384 . S
C705 C704 1.377 . S
C705 C711 1.390 . S
C706 H697 0.930 . S
C706 C704 1.384 . S
C706 C707 1.372 . S
C707 C706 1.372 . S
C707 C708 1.400 . S
C707 C712 1.490 . S
C708 H698 0.930 . S
C708 C707 1.400 . S
C708 C711 1.386 . S
H709 C725 0.930 . S
H710 C726 0.931 . S
C711 H699 0.929 . S
C711 C705 1.390 . S
C711 C708 1.386 . S
C712 C707 1.490 . S
C712 C714 1.395 . S
C712 C715 1.403 . S
H713 C719 0.930 . S
C714 H700 0.930 . S
C714 C712 1.395 . S
C714 C717 1.403 . S
C715 C712 1.403 . S
C715 C716 1.524 . S
C715 C719 1.400 . S
C716 H701 0.960 . S
C716 H702 0.960 . S
C716 H703 0.960 . S
C716 C715 1.524 . S
C717 C714 1.403 . S
C717 C718 1.392 . S
C717 C721 1.495 . S
C718 C717 1.392 . S
C718 C719 1.385 . S
C718 C720 1.478 . S
C719 H713 0.930 . S
C719 C715 1.400 . S
C719 C718 1.385 . S
C720 C718 1.478 . S
C720 C722 1.381 . S
C720 C726 1.383 . S
C721 C717 1.495 . S
C721 H727 0.959 . S
C721 H728 0.961 . S
C721 H729 0.960 . S
C722 C720 1.381 . S
C722 C723 1.394 . S
C722 H730 0.930 . S
C723 C722 1.394 . S
C723 C724 1.383 . S
C723 H731 0.929 . S
C724 C723 1.383 . S
C724 C725 1.377 . S
C725 H709 0.930 . S
C725 C724 1.377 . S
C725 C726 1.379 . S
C726 H710 0.931 . S
C726 C720 1.383 . S
C726 C725 1.379 . S
H727 C721 0.959 . S
H728 C721 0.961 . S
H729 C721 0.960 . S
H730 C722 0.930 . S
H731 C723 0.929 . S
H732 C740 0.929 . S
H733 C742 0.930 . S
H734 C744 0.930 . S
H735 C747 0.929 . S
H736 C750 0.930 . S
H737 C752 0.960 . S
H738 C752 0.960 . S
H739 C752 0.960 . S
C740 H732 0.929 . S
C740 C741 1.377 . S
C740 C742 1.384 . S
C741 C740 1.377 . S
C741 C747 1.390 . S
C742 H733 0.930 . S
C742 C740 1.384 . S
C742 C743 1.372 . S
C743 C742 1.372 . S
C743 C744 1.400 . S
C743 C748 1.490 . S
C744 H734 0.930 . S
C744 C743 1.400 . S
C744 C747 1.386 . S
H745 C761 0.930 . S
H746 C762 0.931 . S
C747 H735 0.929 . S
C747 C741 1.390 . S
C747 C744 1.386 . S
C748 C743 1.490 . S
C748 C750 1.395 . S
C748 C751 1.403 . S
H749 C755 0.930 . S
C750 H736 0.930 . S
C750 C748 1.395 . S
C750 C753 1.403 . S
C751 C748 1.403 . S
C751 C752 1.524 . S
C751 C755 1.400 . S
C752 H737 0.960 . S
C752 H738 0.960 . S
C752 H739 0.960 . S
C752 C751 1.524 . S
C753 C750 1.403 . S
C753 C754 1.392 . S
C753 C757 1.495 . S
C754 C753 1.392 . S
C754 C755 1.385 . S
C754 C756 1.478 . S
C755 H749 0.930 . S
C755 C751 1.400 . S
C755 C754 1.385 . S
C756 C754 1.478 . S
C756 C758 1.381 . S
C756 C762 1.383 . S
C757 C753 1.495 . S
C757 H763 0.959 . S
C757 H764 0.961 . S
C757 H765 0.960 . S
C758 C756 1.381 . S
C758 C759 1.394 . S
C758 H766 0.930 . S
C759 C758 1.394 . S
C759 C760 1.383 . S
C759 H767 0.929 . S
C760 C759 1.383 . S
C760 C761 1.377 . S
C761 H745 0.930 . S
C761 C760 1.377 . S
C761 C762 1.379 . S
C762 H746 0.931 . S
C762 C756 1.383 . S
C762 C761 1.379 . S
H763 C757 0.959 . S
H764 C757 0.961 . S
H765 C757 0.960 . S
H766 C758 0.930 . S
H767 C759 0.929 . S
H768 C776 0.929 . S
H769 C778 0.930 . S
H770 C780 0.930 . S
H771 C783 0.929 . S
H772 C786 0.930 . S
H773 C788 0.960 . S
H774 C788 0.960 . S
H775 C788 0.960 . S
C776 H768 0.929 . S
C776 C777 1.377 . S
C776 C778 1.384 . S
C777 C776 1.377 . S
C777 C783 1.390 . S
C778 H769 0.930 . S
C778 C776 1.384 . S
C778 C779 1.372 . S
C779 C778 1.372 . S
C779 C780 1.400 . S
C779 C784 1.490 . S
C780 H770 0.930 . S
C780 C779 1.400 . S
C780 C783 1.386 . S
H781 C797 0.930 . S
H782 C798 0.931 . S
C783 H771 0.929 . S
C783 C777 1.390 . S
C783 C780 1.386 . S
C784 C779 1.490 . S
C784 C786 1.395 . S
C784 C787 1.403 . S
H785 C791 0.930 . S
C786 H772 0.930 . S
C786 C784 1.395 . S
C786 C789 1.403 . S
C787 C784 1.403 . S
C787 C788 1.524 . S
C787 C791 1.400 . S
C788 H773 0.960 . S
C788 H774 0.960 . S
C788 H775 0.960 . S
C788 C787 1.524 . S
C789 C786 1.403 . S
C789 C790 1.392 . S
C789 C793 1.495 . S
C790 C789 1.392 . S
C790 C791 1.385 . S
C790 C792 1.478 . S
C791 H785 0.930 . S
C791 C787 1.400 . S
C791 C790 1.385 . S
C792 C790 1.478 . S
C792 C794 1.381 . S
C792 C798 1.383 . S
C793 C789 1.495 . S
C793 H799 0.959 . S
C793 H800 0.961 . S
C793 H801 0.960 . S
C794 C792 1.381 . S
C794 C795 1.394 . S
C794 H802 0.930 . S
C795 C794 1.394 . S
C795 C796 1.383 . S
C795 H803 0.929 . S
C796 C795 1.383 . S
C796 C797 1.377 . S
C797 H781 0.930 . S
C797 C796 1.377 . S
C797 C798 1.379 . S
C798 H782 0.931 . S
C798 C792 1.383 . S
C798 C797 1.379 . S
H799 C793 0.959 . S
H800 C793 0.961 . S
H801 C793 0.960 . S
H802 C794 0.930 . S
H803 C795 0.929 . S
H804 C812 0.929 . S
H805 C814 0.930 . S
H806 C816 0.930 . S
H807 C819 0.929 . S
H808 C822 0.930 . S
H809 C824 0.960 . S
H810 C824 0.960 . S
H811 C824 0.960 . S
C812 H804 0.929 . S
C812 C813 1.377 . S
C812 C814 1.384 . S
C813 C812 1.377 . S
C813 C819 1.390 . S
C814 H805 0.930 . S
C814 C812 1.384 . S
C814 C815 1.372 . S
C815 C814 1.372 . S
C815 C816 1.400 . S
C815 C820 1.490 . S
C816 H806 0.930 . S
C816 C815 1.400 . S
C816 C819 1.386 . S
H817 C833 0.930 . S
H818 C834 0.931 . S
C819 H807 0.929 . S
C819 C813 1.390 . S
C819 C816 1.386 . S
C820 C815 1.490 . S
C820 C822 1.395 . S
C820 C823 1.403 . S
H821 C827 0.930 . S
C822 H808 0.930 . S
C822 C820 1.395 . S
C822 C825 1.403 . S
C823 C820 1.403 . S
C823 C824 1.524 . S
C823 C827 1.400 . S
C824 H809 0.960 . S
C824 H810 0.960 . S
C824 H811 0.960 . S
C824 C823 1.524 . S
C825 C822 1.403 . S
C825 C826 1.392 . S
C825 C829 1.495 . S
C826 C825 1.392 . S
C826 C827 1.385 . S
C826 C828 1.478 . S
C827 H821 0.930 . S
C827 C823 1.400 . S
C827 C826 1.385 . S
C828 C826 1.478 . S
C828 C830 1.381 . S
C828 C834 1.383 . S
C829 C825 1.495 . S
C829 H835 0.959 . S
C829 H836 0.961 . S
C829 H837 0.960 . S
C830 C828 1.381 . S
C830 C831 1.394 . S
C830 H838 0.930 . S
C831 C830 1.394 . S
C831 C832 1.383 . S
C831 H839 0.929 . S
C832 C831 1.383 . S
C832 C833 1.377 . S
C833 H817 0.930 . S
C833 C832 1.377 . S
C833 C834 1.379 . S
C834 H818 0.931 . S
C834 C828 1.383 . S
C834 C833 1.379 . S
H835 C829 0.959 . S
H836 C829 0.961 . S
H837 C829 0.960 . S
H838 C830 0.930 . S
H839 C831 0.929 . S
H840 C848 0.929 . S
H841 C850 0.930 . S
H842 C852 0.930 . S
H843 C855 0.929 . S
H844 C858 0.930 . S
H845 C860 0.960 . S
H846 C860 0.960 . S
H847 C860 0.960 . S
C848 H840 0.929 . S
C848 C849 1.377 . S
C848 C850 1.384 . S
C849 C848 1.377 . S
C849 C855 1.390 . S
C850 H841 0.930 . S
C850 C848 1.384 . S
C850 C851 1.372 . S
C851 C850 1.372 . S
C851 C852 1.400 . S
C851 C856 1.490 . S
C852 H842 0.930 . S
C852 C851 1.400 . S
C852 C855 1.386 . S
H853 C869 0.930 . S
H854 C870 0.931 . S
C855 H843 0.929 . S
C855 C849 1.390 . S
C855 C852 1.386 . S
C856 C851 1.490 . S
C856 C858 1.395 . S
C856 C859 1.403 . S
H857 C863 0.930 . S
C858 H844 0.930 . S
C858 C856 1.395 . S
C858 C861 1.403 . S
C859 C856 1.403 . S
C859 C860 1.524 . S
C859 C863 1.400 . S
C860 H845 0.960 . S
C860 H846 0.960 . S
C860 H847 0.960 . S
C860 C859 1.524 . S
C861 C858 1.403 . S
C861 C862 1.392 . S
C861 C865 1.495 . S
C862 C861 1.392 . S
C862 C863 1.385 . S
C862 C864 1.478 . S
C863 H857 0.930 . S
C863 C859 1.400 . S
C863 C862 1.385 . S
C864 C862 1.478 . S
C864 C866 1.381 . S
C864 C870 1.383 . S
C865 C861 1.495 . S
C865 H871 0.959 . S
C865 H872 0.961 . S
C865 H873 0.960 . S
C866 C864 1.381 . S
C866 C867 1.394 . S
C866 H874 0.930 . S
C867 C866 1.394 . S
C867 C868 1.383 . S
C867 H875 0.929 . S
C868 C867 1.383 . S
C868 C869 1.377 . S
C869 H853 0.930 . S
C869 C868 1.377 . S
C869 C870 1.379 . S
C870 H854 0.931 . S
C870 C864 1.383 . S
C870 C869 1.379 . S
H871 C865 0.959 . S
H872 C865 0.961 . S
H873 C865 0.960 . S
H874 C866 0.930 . S
H875 C867 0.929 . S
H876 C884 0.929 1_455 S
H877 C886 0.951 . S
H878 C888 0.930 . S
H879 C891 0.929 . S
H880 C894 0.930 . S
H881 C896 0.960 . S
H882 C896 0.960 . S
H883 C896 0.960 . S
C884 H876 0.929 1_655 S
C884 C885 1.377 . S
C884 C886 1.384 . S
C885 C884 1.377 . S
C885 C891 1.390 . S
C886 H877 0.951 . S
C886 C884 1.384 . S
C886 C887 1.372 . S
C887 C886 1.372 . S
C887 C888 1.400 . S
C887 C892 1.490 . S
C888 H878 0.930 . S
C888 C887 1.400 . S
C888 C891 1.386 . S
H889 C905 0.930 . S
H890 C906 0.931 . S
C891 H879 0.929 . S
C891 C885 1.390 . S
C891 C888 1.386 . S
C892 C887 1.490 . S
C892 C894 1.395 . S
C892 C895 1.403 . S
H893 C899 0.930 . S
C894 H880 0.930 . S
C894 C892 1.395 . S
C894 C897 1.403 . S
C895 C892 1.403 . S
C895 C896 1.524 . S
C895 C899 1.400 . S
C896 H881 0.960 . S
C896 H882 0.960 . S
C896 H883 0.960 . S
C896 C895 1.524 . S
C897 C894 1.403 . S
C897 C898 1.392 . S
C897 C901 1.495 . S
C898 C897 1.392 . S
C898 C899 1.385 . S
C898 C900 1.478 . S
C899 H893 0.930 . S
C899 C895 1.400 . S
C899 C898 1.385 . S
C900 C898 1.478 . S
C900 C902 1.381 . S
C900 C906 1.383 . S
C901 C897 1.495 . S
C901 H907 0.959 . S
C901 H908 0.961 . S
C901 H909 0.960 . S
C902 C900 1.381 . S
C902 C903 1.394 . S
C902 H910 0.930 . S
C903 C902 1.394 . S
C903 C904 1.383 . S
C903 H911 0.929 . S
C904 C903 1.383 . S
C904 C905 1.377 . S
C905 H889 0.930 . S
C905 C904 1.377 . S
C905 C906 1.379 . S
C906 H890 0.931 . S
C906 C900 1.383 . S
C906 C905 1.379 . S
H907 C901 0.959 . S
H908 C901 0.961 . S
H909 C901 0.960 . S
H910 C902 0.930 . S
H911 C903 0.929 . S
H912 C920 0.929 . S
H913 C922 0.930 . S
H914 C924 0.930 . S
H915 C927 0.929 . S
H916 C930 0.930 . S
H917 C932 0.960 . S
H918 C932 0.960 . S
H919 C932 0.960 . S
C920 H912 0.929 . S
C920 C921 1.377 . S
C920 C922 1.384 . S
C921 C920 1.377 . S
C921 C927 1.390 . S
C922 H913 0.930 . S
C922 C920 1.384 . S
C922 C923 1.372 . S
C923 C922 1.372 . S
C923 C924 1.400 . S
C923 C928 1.490 . S
C924 H914 0.930 . S
C924 C923 1.400 . S
C924 C927 1.386 . S
H925 C941 0.930 . S
H926 C942 0.931 . S
C927 H915 0.929 . S
C927 C921 1.390 . S
C927 C924 1.386 . S
C928 C923 1.490 . S
C928 C930 1.395 . S
C928 C931 1.403 . S
H929 C935 0.930 . S
C930 H916 0.930 . S
C930 C928 1.395 . S
C930 C933 1.403 . S
C931 C928 1.403 . S
C931 C932 1.524 . S
C931 C935 1.400 . S
C932 H917 0.960 . S
C932 H918 0.960 . S
C932 H919 0.960 . S
C932 C931 1.524 . S
C933 C930 1.403 . S
C933 C934 1.392 . S
C933 C937 1.495 . S
C934 C933 1.392 . S
C934 C935 1.385 . S
C934 C936 1.478 . S
C935 H929 0.930 . S
C935 C931 1.400 . S
C935 C934 1.385 . S
C936 C934 1.478 . S
C936 C938 1.381 . S
C936 C942 1.383 . S
C937 C933 1.495 . S
C937 H943 0.959 . S
C937 H944 0.961 . S
C937 H945 0.960 . S
C938 C936 1.381 . S
C938 C939 1.394 . S
C938 H946 0.930 . S
C939 C938 1.394 . S
C939 C940 1.383 . S
C939 H947 0.929 . S
C940 C939 1.383 . S
C940 C941 1.377 . S
C941 H925 0.930 . S
C941 C940 1.377 . S
C941 C942 1.379 . S
C942 H926 0.931 . S
C942 C936 1.383 . S
C942 C941 1.379 . S
H943 C937 0.959 . S
H944 C937 0.961 . S
H945 C937 0.960 . S
H946 C938 0.930 . S
H947 C939 0.929 . S
H948 C956 0.929 . S
H949 C958 0.930 . S
H950 C960 0.930 . S
H951 C963 0.929 . S
H952 C966 0.930 . S
H953 C968 0.960 . S
H954 C968 0.960 . S
H955 C968 0.960 . S
C956 H948 0.929 . S
C956 C957 1.377 . S
C956 C958 1.384 . S
C957 C956 1.377 . S
C957 C963 1.390 . S
C958 H949 0.930 . S
C958 C956 1.384 . S
C958 C959 1.372 . S
C959 C958 1.372 . S
C959 C960 1.400 . S
C959 C964 1.490 . S
C960 H950 0.930 . S
C960 C959 1.400 . S
C960 C963 1.386 . S
H961 C977 0.930 . S
H962 C978 0.931 . S
C963 H951 0.929 . S
C963 C957 1.390 . S
C963 C960 1.386 . S
C964 C959 1.490 . S
C964 C966 1.395 . S
C964 C967 1.403 . S
H965 C971 0.930 . S
C966 H952 0.930 . S
C966 C964 1.395 . S
C966 C969 1.403 . S
C967 C964 1.403 . S
C967 C968 1.524 . S
C967 C971 1.400 . S
C968 H953 0.960 . S
C968 H954 0.960 . S
C968 H955 0.960 . S
C968 C967 1.524 . S
C969 C966 1.403 . S
C969 C970 1.392 . S
C969 C973 1.495 . S
C970 C969 1.392 . S
C970 C971 1.385 . S
C970 C972 1.478 . S
C971 H965 0.930 . S
C971 C967 1.400 . S
C971 C970 1.385 . S
C972 C970 1.478 . S
C972 C974 1.381 . S
C972 C978 1.383 . S
C973 C969 1.495 . S
C973 H979 0.959 . S
C973 H980 0.961 . S
C973 H981 0.960 . S
C974 C972 1.381 . S
C974 C975 1.394 . S
C974 H982 0.930 . S
C975 C974 1.394 . S
C975 C976 1.383 . S
C975 H983 0.929 . S
C976 C975 1.383 . S
C976 C977 1.377 . S
C977 H961 0.930 . S
C977 C976 1.377 . S
C977 C978 1.379 . S
C978 H962 0.931 . S
C978 C972 1.383 . S
C978 C977 1.379 . S
H979 C973 0.959 . S
H980 C973 0.961 . S
H981 C973 0.960 . S
H982 C974 0.930 . S
H983 C975 0.929 . S
H984 C992 0.929 . S
H985 C994 0.930 . S
H986 C996 0.930 . S
H987 C999 0.929 . S
H988 C1002 0.930 . S
H989 C1004 0.960 . S
H990 C1004 0.960 . S
H991 C1004 0.960 . S
C992 H984 0.929 . S
C992 C993 1.377 . S
C992 C994 1.384 . S
C993 C992 1.377 . S
C993 C999 1.390 . S
C994 H985 0.930 . S
C994 C992 1.384 . S
C994 C995 1.372 . S
C995 C994 1.372 . S
C995 C996 1.400 . S
C995 C1000 1.490 . S
C996 H986 0.930 . S
C996 C995 1.400 . S
C996 C999 1.386 . S
H997 C1013 0.930 . S
H998 C1014 0.931 . S
C999 H987 0.929 . S
C999 C993 1.390 . S
C999 C996 1.386 . S
C1000 C995 1.490 . S
C1000 C1002 1.395 . S
C1000 C1003 1.403 . S
H1001 C1007 0.930 . S
C1002 H988 0.930 . S
C1002 C1000 1.395 . S
C1002 C1005 1.403 . S
C1003 C1000 1.403 . S
C1003 C1004 1.524 . S
C1003 C1007 1.400 . S
C1004 H989 0.960 . S
C1004 H990 0.960 . S
C1004 H991 0.960 . S
C1004 C1003 1.524 . S
C1005 C1002 1.403 . S
C1005 C1006 1.392 . S
C1005 C1009 1.495 . S
C1006 C1005 1.392 . S
C1006 C1007 1.385 . S
C1006 C1008 1.478 . S
C1007 H1001 0.930 . S
C1007 C1003 1.400 . S
C1007 C1006 1.385 . S
C1008 C1006 1.478 . S
C1008 C1010 1.381 . S
C1008 C1014 1.383 . S
C1009 C1005 1.495 . S
C1009 H1015 0.959 . S
C1009 H1016 0.961 . S
C1009 H1017 0.960 . S
C1010 C1008 1.381 . S
C1010 C1011 1.394 . S
C1010 H1018 0.930 . S
C1011 C1010 1.394 . S
C1011 C1012 1.383 . S
C1011 H1019 0.929 . S
C1012 C1011 1.383 . S
C1012 C1013 1.377 . S
C1013 H997 0.930 . S
C1013 C1012 1.377 . S
C1013 C1014 1.379 . S
C1014 H998 0.931 . S
C1014 C1008 1.383 . S
C1014 C1013 1.379 . S
H1015 C1009 0.959 . S
H1016 C1009 0.961 . S
H1017 C1009 0.960 . S
H1018 C1010 0.930 . S
H1019 C1011 0.929 . S
H1020 C1028 0.929 . S
H1021 C1030 0.930 . S
H1022 C1032 0.930 . S
H1023 C1035 0.929 . S
H1024 C1038 0.930 . S
H1025 C1040 0.960 . S
H1026 C1040 0.960 . S
H1027 C1040 0.960 . S
C1028 H1020 0.929 . S
C1028 C1029 1.377 . S
C1028 C1030 1.384 . S
C1029 C1028 1.377 . S
C1029 C1035 1.390 . S
C1030 H1021 0.930 . S
C1030 C1028 1.384 . S
C1030 C1031 1.372 . S
C1031 C1030 1.372 . S
C1031 C1032 1.400 . S
C1031 C1036 1.490 . S
C1032 H1022 0.930 . S
C1032 C1031 1.400 . S
C1032 C1035 1.386 . S
H1033 C1049 0.930 . S
H1034 C1050 0.931 . S
C1035 H1023 0.929 . S
C1035 C1029 1.390 . S
C1035 C1032 1.386 . S
C1036 C1031 1.490 . S
C1036 C1038 1.395 . S
C1036 C1039 1.403 . S
H1037 C1043 0.930 . S
C1038 H1024 0.930 . S
C1038 C1036 1.395 . S
C1038 C1041 1.403 . S
C1039 C1036 1.403 . S
C1039 C1040 1.524 . S
C1039 C1043 1.400 . S
C1040 H1025 0.960 . S
C1040 H1026 0.960 . S
C1040 H1027 0.960 . S
C1040 C1039 1.524 . S
C1041 C1038 1.403 . S
C1041 C1042 1.392 . S
C1041 C1045 1.495 1_655 S
C1042 C1041 1.392 . S
C1042 C1043 1.385 . S
C1042 C1044 1.478 . S
C1043 H1037 0.930 . S
C1043 C1039 1.400 . S
C1043 C1042 1.385 . S
C1044 C1042 1.478 . S
C1044 C1046 1.381 . S
C1044 C1050 1.383 . S
C1045 C1041 1.495 1_455 S
C1045 H1051 0.959 . S
C1045 H1052 0.961 . S
C1045 H1053 0.960 . S
C1046 C1044 1.381 . S
C1046 C1047 1.394 . S
C1046 H1054 0.930 . S
C1047 C1046 1.394 . S
C1047 C1048 1.383 . S
C1047 H1055 0.941 . S
C1048 C1047 1.383 . S
C1048 C1049 1.377 . S
C1049 H1033 0.930 . S
C1049 C1048 1.377 . S
C1049 C1050 1.379 . S
C1050 H1034 0.931 . S
C1050 C1044 1.383 . S
C1050 C1049 1.379 . S
H1051 C1045 0.959 . S
H1052 C1045 0.961 . S
H1053 C1045 0.960 . S
H1054 C1046 0.930 . S
H1055 C1047 0.941 . S
H1056 C1064 0.929 . S
H1057 C1066 0.930 . S
H1058 C1068 0.930 . S
H1059 C1071 0.929 . S
H1060 C1074 0.930 . S
H1061 C1076 0.960 . S
H1062 C1076 0.960 . S
H1063 C1076 0.960 . S
C1064 H1056 0.929 . S
C1064 C1065 1.377 . S
C1064 C1066 1.384 . S
C1065 C1064 1.377 . S
C1065 C1071 1.390 . S
C1066 H1057 0.930 . S
C1066 C1064 1.384 . S
C1066 C1067 1.372 . S
C1067 C1066 1.372 . S
C1067 C1068 1.400 . S
C1067 C1072 1.490 . S
C1068 H1058 0.930 . S
C1068 C1067 1.400 . S
C1068 C1071 1.386 . S
H1069 C1085 0.930 . S
H1070 C1086 0.931 . S
C1071 H1059 0.929 . S
C1071 C1065 1.390 . S
C1071 C1068 1.386 . S
C1072 C1067 1.490 . S
C1072 C1074 1.395 . S
C1072 C1075 1.403 . S
H1073 C1079 0.930 . S
C1074 H1060 0.930 . S
C1074 C1072 1.395 . S
C1074 C1077 1.403 . S
C1075 C1072 1.403 . S
C1075 C1076 1.524 . S
C1075 C1079 1.400 . S
C1076 H1061 0.960 . S
C1076 H1062 0.960 . S
C1076 H1063 0.960 . S
C1076 C1075 1.524 . S
C1077 C1074 1.403 . S
C1077 C1078 1.392 . S
C1077 C1081 1.495 . S
C1078 C1077 1.392 . S
C1078 C1079 1.385 . S
C1078 C1080 1.478 . S
C1079 H1073 0.930 . S
C1079 C1075 1.400 . S
C1079 C1078 1.385 . S
C1080 C1078 1.478 . S
C1080 C1082 1.381 . S
C1080 C1086 1.383 . S
C1081 C1077 1.495 . S
C1081 H1087 0.959 . S
C1081 H1088 0.961 . S
C1081 H1089 0.960 . S
C1082 C1080 1.381 . S
C1082 C1083 1.394 . S
C1082 H1090 0.930 . S
C1083 C1082 1.394 . S
C1083 C1084 1.383 . S
C1083 H1091 0.929 . S
C1084 C1083 1.383 . S
C1084 C1085 1.377 . S
C1085 H1069 0.930 . S
C1085 C1084 1.377 . S
C1085 C1086 1.379 . S
C1086 H1070 0.931 . S
C1086 C1080 1.383 . S
C1086 C1085 1.379 . S
H1087 C1081 0.959 . S
H1088 C1081 0.961 . S
H1089 C1081 0.960 . S
H1090 C1082 0.930 . S
H1091 C1083 0.929 . S
H1092 C1100 0.929 . S
H1093 C1102 0.930 . S
H1094 C1104 0.930 . S
H1095 C1107 0.929 . S
H1096 C1110 0.930 . S
H1097 C1112 0.960 . S
H1098 C1112 0.960 . S
H1099 C1112 0.960 . S
C1100 H1092 0.929 . S
C1100 C1101 1.377 . S
C1100 C1102 1.384 . S
C1101 C1100 1.377 . S
C1101 C1107 1.390 . S
C1102 H1093 0.930 . S
C1102 C1100 1.384 . S
C1102 C1103 1.372 . S
C1103 C1102 1.372 . S
C1103 C1104 1.400 . S
C1103 C1108 1.490 . S
C1104 H1094 0.930 . S
C1104 C1103 1.400 . S
C1104 C1107 1.386 . S
H1105 C1121 0.930 . S
H1106 C1122 0.931 . S
C1107 H1095 0.929 . S
C1107 C1101 1.390 . S
C1107 C1104 1.386 . S
C1108 C1103 1.490 . S
C1108 C1110 1.395 . S
C1108 C1111 1.403 . S
H1109 C1115 0.930 . S
C1110 H1096 0.930 . S
C1110 C1108 1.395 . S
C1110 C1113 1.403 . S
C1111 C1108 1.403 . S
C1111 C1112 1.524 . S
C1111 C1115 1.400 . S
C1112 H1097 0.960 . S
C1112 H1098 0.960 . S
C1112 H1099 0.960 . S
C1112 C1111 1.524 . S
C1113 C1110 1.403 . S
C1113 C1114 1.392 . S
C1113 C1117 1.495 . S
C1114 C1113 1.392 . S
C1114 C1115 1.385 . S
C1114 C1116 1.478 . S
C1115 H1109 0.930 . S
C1115 C1111 1.400 . S
C1115 C1114 1.385 . S
C1116 C1114 1.478 . S
C1116 C1118 1.381 . S
C1116 C1122 1.383 . S
C1117 C1113 1.495 . S
C1117 H1123 0.959 . S
C1117 H1124 0.961 . S
C1117 H1125 0.960 . S
C1118 C1116 1.381 . S
C1118 C1119 1.394 . S
C1118 H1126 0.930 . S
C1119 C1118 1.394 . S
C1119 C1120 1.383 . S
C1119 H1127 0.929 . S
C1120 C1119 1.383 . S
C1120 C1121 1.377 . S
C1121 H1105 0.930 . S
C1121 C1120 1.377 . S
C1121 C1122 1.379 . S
C1122 H1106 0.931 . S
C1122 C1116 1.383 . S
C1122 C1121 1.379 . S
H1123 C1117 0.959 . S
H1124 C1117 0.961 . S
H1125 C1117 0.960 . S
H1126 C1118 0.930 . S
H1127 C1119 0.929 . S
H1128 C1136 0.929 . S
H1129 C1138 0.930 . S
H1130 C1140 0.930 . S
H1131 C1143 0.929 . S
H1132 C1146 0.930 . S
H1133 C1148 0.960 . S
H1134 C1148 0.960 . S
H1135 C1148 0.960 . S
C1136 H1128 0.929 . S
C1136 C1137 1.377 . S
C1136 C1138 1.384 . S
C1137 C1136 1.377 . S
C1137 C1143 1.390 . S
C1138 H1129 0.930 . S
C1138 C1136 1.384 . S
C1138 C1139 1.372 . S
C1139 C1138 1.372 . S
C1139 C1140 1.400 . S
C1139 C1144 1.490 . S
C1140 H1130 0.930 . S
C1140 C1139 1.400 . S
C1140 C1143 1.386 . S
H1141 C1157 0.930 . S
H1142 C1158 0.931 . S
C1143 H1131 0.929 . S
C1143 C1137 1.390 . S
C1143 C1140 1.386 . S
C1144 C1139 1.490 . S
C1144 C1146 1.395 . S
C1144 C1147 1.403 . S
H1145 C1151 0.930 . S
C1146 H1132 0.930 . S
C1146 C1144 1.395 . S
C1146 C1149 1.403 . S
C1147 C1144 1.403 . S
C1147 C1148 1.524 . S
C1147 C1151 1.400 . S
C1148 H1133 0.960 . S
C1148 H1134 0.960 . S
C1148 H1135 0.960 . S
C1148 C1147 1.524 . S
C1149 C1146 1.403 . S
C1149 C1150 1.392 . S
C1149 C1153 1.495 . S
C1150 C1149 1.392 . S
C1150 C1151 1.385 . S
C1150 C1152 1.478 . S
C1151 H1145 0.930 . S
C1151 C1147 1.400 . S
C1151 C1150 1.385 . S
C1152 C1150 1.478 . S
C1152 C1154 1.381 . S
C1152 C1158 1.383 . S
C1153 C1149 1.495 . S
C1153 H1159 0.959 . S
C1153 H1160 0.961 . S
C1153 H1161 0.960 . S
C1154 C1152 1.381 . S
C1154 C1155 1.394 . S
C1154 H1162 0.930 . S
C1155 C1154 1.394 . S
C1155 C1156 1.383 . S
C1155 H1163 0.929 1_554 S
C1156 C1155 1.383 . S
C1156 C1157 1.377 . S
C1157 H1141 0.930 . S
C1157 C1156 1.377 . S
C1157 C1158 1.379 . S
C1158 H1142 0.931 . S
C1158 C1152 1.383 . S
C1158 C1157 1.379 . S
H1159 C1153 0.959 . S
H1160 C1153 0.961 . S
H1161 C1153 0.960 . S
H1162 C1154 0.930 . S
H1163 C1155 0.929 1_556 S
H1164 C1172 0.929 . S
H1165 C1174 0.930 . S
H1166 C1176 0.930 . S
H1167 C1179 0.929 . S
H1168 C1182 0.930 . S
H1169 C1184 0.960 . S
H1170 C1184 0.960 . S
H1171 C1184 0.960 . S
C1172 H1164 0.929 . S
C1172 C1173 1.377 . S
C1172 C1174 1.384 . S
C1173 C1172 1.377 . S
C1173 C1179 1.390 . S
C1174 H1165 0.930 . S
C1174 C1172 1.384 . S
C1174 C1175 1.372 . S
C1175 C1174 1.372 . S
C1175 C1176 1.400 . S
C1175 C1180 1.490 . S
C1176 H1166 0.930 . S
C1176 C1175 1.400 . S
C1176 C1179 1.386 . S
H1177 C1193 0.930 . S
H1178 C1194 0.931 . S
C1179 H1167 0.929 . S
C1179 C1173 1.390 . S
C1179 C1176 1.386 . S
C1180 C1175 1.490 . S
C1180 C1182 1.395 . S
C1180 C1183 1.403 . S
H1181 C1187 0.930 . S
C1182 H1168 0.930 . S
C1182 C1180 1.395 . S
C1182 C1185 1.403 . S
C1183 C1180 1.403 . S
C1183 C1184 1.524 . S
C1183 C1187 1.400 . S
C1184 H1169 0.960 . S
C1184 H1170 0.960 . S
C1184 H1171 0.960 . S
C1184 C1183 1.524 . S
C1185 C1182 1.403 . S
C1185 C1186 1.392 . S
C1185 C1189 1.495 . S
C1186 C1185 1.392 . S
C1186 C1187 1.385 . S
C1186 C1188 1.478 . S
C1187 H1181 0.930 . S
C1187 C1183 1.400 . S
C1187 C1186 1.385 . S
C1188 C1186 1.478 . S
C1188 C1190 1.381 . S
C1188 C1194 1.383 . S
C1189 C1185 1.495 . S
C1189 H1195 0.959 . S
C1189 H1196 0.961 . S
C1189 H1197 0.960 . S
C1190 C1188 1.381 . S
C1190 C1191 1.394 . S
C1190 H1198 0.930 . S
C1191 C1190 1.394 . S
C1191 C1192 1.383 . S
C1191 H1199 0.929 1_565 S
C1192 C1191 1.383 . S
C1192 C1193 1.377 . S
C1193 H1177 0.930 . S
C1193 C1192 1.377 . S
C1193 C1194 1.379 . S
C1194 H1178 0.931 . S
C1194 C1188 1.383 . S
C1194 C1193 1.379 . S
H1195 C1189 0.959 . S
H1196 C1189 0.961 . S
H1197 C1189 0.960 . S
H1198 C1190 0.930 . S
H1199 C1191 0.929 1_545 S
H1200 C1208 0.929 . S
H1201 C1210 0.930 . S
H1202 C1212 0.930 . S
H1203 C1215 0.929 . S
H1204 C1218 0.930 . S
H1205 C1220 0.960 . S
H1206 C1220 0.960 . S
H1207 C1220 0.960 . S
C1208 H1200 0.929 . S
C1208 C1209 1.377 . S
C1208 C1210 1.384 . S
C1209 C1208 1.377 . S
C1209 C1215 1.390 . S
C1210 H1201 0.930 . S
C1210 C1208 1.384 . S
C1210 C1211 1.372 . S
C1211 C1210 1.372 . S
C1211 C1212 1.400 . S
C1211 C1216 1.490 . S
C1212 H1202 0.930 . S
C1212 C1211 1.400 . S
C1212 C1215 1.386 . S
H1213 C1229 0.930 . S
H1214 C1230 0.931 . S
C1215 H1203 0.929 . S
C1215 C1209 1.390 . S
C1215 C1212 1.386 . S
C1216 C1211 1.490 . S
C1216 C1218 1.395 . S
C1216 C1219 1.403 . S
H1217 C1223 0.930 . S
C1218 H1204 0.930 . S
C1218 C1216 1.395 . S
C1218 C1221 1.403 . S
C1219 C1216 1.403 . S
C1219 C1220 1.524 . S
C1219 C1223 1.400 . S
C1220 H1205 0.960 . S
C1220 H1206 0.960 . S
C1220 H1207 0.960 . S
C1220 C1219 1.524 . S
C1221 C1218 1.403 . S
C1221 C1222 1.392 . S
C1221 C1225 1.495 . S
C1222 C1221 1.392 . S
C1222 C1223 1.385 . S
C1222 C1224 1.478 . S
C1223 H1217 0.930 . S
C1223 C1219 1.400 . S
C1223 C1222 1.385 . S
C1224 C1222 1.478 . S
C1224 C1226 1.381 . S
C1224 C1230 1.383 . S
C1225 C1221 1.495 . S
C1225 H1231 0.959 . S
C1225 H1232 0.961 . S
C1225 H1233 0.960 . S
C1226 C1224 1.381 . S
C1226 C1227 1.394 . S
C1226 H1234 0.930 . S
C1227 C1226 1.394 . S
C1227 C1228 1.383 . S
C1227 H1235 0.929 . S
C1228 C1227 1.383 . S
C1228 C1229 1.377 . S
C1229 H1213 0.930 . S
C1229 C1228 1.377 . S
C1229 C1230 1.379 . S
C1230 H1214 0.931 . S
C1230 C1224 1.383 . S
C1230 C1229 1.379 . S
H1231 C1225 0.959 . S
H1232 C1225 0.961 . S
H1233 C1225 0.960 . S
H1234 C1226 0.930 . S
H1235 C1227 0.929 . S
H1236 C1244 0.929 . S
H1237 C1246 0.930 . S
H1238 C1248 0.930 . S
H1239 C1251 0.929 . S
H1240 C1254 0.930 . S
H1241 C1256 0.960 . S
H1242 C1256 0.960 . S
H1243 C1256 0.960 . S
C1244 H1236 0.929 . S
C1244 C1245 1.377 . S
C1244 C1246 1.384 . S
C1245 C1244 1.377 . S
C1245 C1251 1.390 . S
C1246 H1237 0.930 . S
C1246 C1244 1.384 . S
C1246 C1247 1.372 . S
C1247 C1246 1.372 . S
C1247 C1248 1.400 . S
C1247 C1252 1.490 . S
C1248 H1238 0.930 . S
C1248 C1247 1.400 . S
C1248 C1251 1.386 . S
H1249 C1265 0.930 . S
H1250 C1266 0.931 . S
C1251 H1239 0.929 . S
C1251 C1245 1.390 . S
C1251 C1248 1.386 . S
C1252 C1247 1.490 . S
C1252 C1254 1.395 . S
C1252 C1255 1.403 . S
H1253 C1259 0.930 . S
C1254 H1240 0.930 . S
C1254 C1252 1.395 . S
C1254 C1257 1.403 . S
C1255 C1252 1.403 . S
C1255 C1256 1.524 . S
C1255 C1259 1.400 . S
C1256 H1241 0.960 . S
C1256 H1242 0.960 . S
C1256 H1243 0.960 . S
C1256 C1255 1.524 . S
C1257 C1254 1.403 . S
C1257 C1258 1.392 . S
C1257 C1261 1.495 . S
C1258 C1257 1.392 . S
C1258 C1259 1.385 . S
C1258 C1260 1.478 . S
C1259 H1253 0.930 . S
C1259 C1255 1.400 . S
C1259 C1258 1.385 . S
C1260 C1258 1.478 . S
C1260 C1262 1.381 . S
C1260 C1266 1.383 . S
C1261 C1257 1.495 . S
C1261 H1267 0.959 . S
C1261 H1268 0.961 . S
C1261 H1269 0.960 . S
C1262 C1260 1.381 . S
C1262 C1263 1.394 . S
C1262 H1270 0.930 . S
C1263 C1262 1.394 . S
C1263 C1264 1.383 . S
C1263 H1271 0.929 1_545 S
C1264 C1263 1.383 . S
C1264 C1265 1.377 . S
C1265 H1249 0.930 . S
C1265 C1264 1.377 . S
C1265 C1266 1.379 . S
C1266 H1250 0.931 . S
C1266 C1260 1.383 . S
C1266 C1265 1.379 . S
H1267 C1261 0.959 . S
H1268 C1261 0.961 . S
H1269 C1261 0.960 . S
H1270 C1262 0.930 . S
H1271 C1263 0.929 1_565 S
H1272 C1280 0.929 . S
H1273 C1282 0.930 . S
H1274 C1284 0.930 . S
H1275 C1287 0.929 . S
H1276 C1290 0.930 . S
H1277 C1292 0.960 . S
H1278 C1292 0.960 . S
H1279 C1292 0.960 . S
C1280 H1272 0.929 . S
C1280 C1281 1.377 . S
C1280 C1282 1.384 . S
C1281 C1280 1.377 . S
C1281 C1287 1.390 . S
C1282 H1273 0.930 . S
C1282 C1280 1.384 . S
C1282 C1283 1.372 . S
C1283 C1282 1.372 . S
C1283 C1284 1.400 . S
C1283 C1288 1.490 . S
C1284 H1274 0.930 . S
C1284 C1283 1.400 . S
C1284 C1287 1.386 . S
H1285 C1301 0.930 . S
H1286 C1302 0.931 . S
C1287 H1275 0.929 . S
C1287 C1281 1.390 . S
C1287 C1284 1.386 . S
C1288 C1283 1.490 . S
C1288 C1290 1.395 . S
C1288 C1291 1.403 . S
H1289 C1295 0.930 . S
C1290 H1276 0.930 . S
C1290 C1288 1.395 . S
C1290 C1293 1.403 . S
C1291 C1288 1.403 . S
C1291 C1292 1.524 . S
C1291 C1295 1.400 . S
C1292 H1277 0.960 . S
C1292 H1278 0.960 . S
C1292 H1279 0.960 . S
C1292 C1291 1.524 . S
C1293 C1290 1.403 . S
C1293 C1294 1.392 . S
C1293 C1297 1.495 . S
C1294 C1293 1.392 . S
C1294 C1295 1.385 . S
C1294 C1296 1.478 . S
C1295 H1289 0.930 . S
C1295 C1291 1.400 . S
C1295 C1294 1.385 . S
C1296 C1294 1.478 . S
C1296 C1298 1.381 . S
C1296 C1302 1.383 . S
C1297 C1293 1.495 . S
C1297 H1303 0.959 . S
C1297 H1304 0.961 . S
C1297 H1305 0.960 . S
C1298 C1296 1.381 . S
C1298 C1299 1.394 . S
C1298 H1306 0.930 . S
C1299 C1298 1.394 . S
C1299 C1300 1.383 . S
C1299 H1307 0.929 . S
C1300 C1299 1.383 . S
C1300 C1301 1.377 . S
C1301 H1285 0.930 . S
C1301 C1300 1.377 . S
C1301 C1302 1.379 . S
C1302 H1286 0.931 . S
C1302 C1296 1.383 . S
C1302 C1301 1.379 . S
H1303 C1297 0.959 . S
H1304 C1297 0.961 . S
H1305 C1297 0.960 . S
H1306 C1298 0.930 . S
H1307 C1299 0.929 . S
H1308 C1316 0.929 . S
H1309 C1318 0.930 . S
H1310 C1320 0.930 . S
H1311 C1323 0.929 . S
H1312 C1326 0.930 . S
H1313 C1328 0.960 . S
H1314 C1328 0.960 . S
H1315 C1328 0.960 . S
C1316 H1308 0.929 . S
C1316 C1317 1.377 . S
C1316 C1318 1.384 . S
C1317 C1316 1.377 . S
C1317 C1323 1.390 . S
C1318 H1309 0.930 . S
C1318 C1316 1.384 . S
C1318 C1319 1.372 . S
C1319 C1318 1.372 . S
C1319 C1320 1.400 . S
C1319 C1324 1.490 . S
C1320 H1310 0.930 . S
C1320 C1319 1.400 . S
C1320 C1323 1.386 . S
H1321 C1337 0.930 . S
H1322 C1338 0.931 . S
C1323 H1311 0.929 . S
C1323 C1317 1.390 . S
C1323 C1320 1.386 . S
C1324 C1319 1.490 . S
C1324 C1326 1.395 . S
C1324 C1327 1.403 . S
H1325 C1331 0.930 . S
C1326 H1312 0.930 . S
C1326 C1324 1.395 . S
C1326 C1329 1.403 . S
C1327 C1324 1.403 . S
C1327 C1328 1.524 . S
C1327 C1331 1.400 . S
C1328 H1313 0.960 . S
C1328 H1314 0.960 . S
C1328 H1315 0.960 . S
C1328 C1327 1.524 . S
C1329 C1326 1.403 . S
C1329 C1330 1.392 . S
C1329 C1333 1.495 . S
C1330 C1329 1.392 . S
C1330 C1331 1.385 . S
C1330 C1332 1.478 . S
C1331 H1325 0.930 . S
C1331 C1327 1.400 . S
C1331 C1330 1.385 . S
C1332 C1330 1.478 . S
C1332 C1334 1.381 . S
C1332 C1338 1.383 . S
C1333 C1329 1.495 . S
C1333 H1339 0.959 . S
C1333 H1340 0.961 . S
C1333 H1341 0.960 . S
C1334 C1332 1.381 . S
C1334 C1335 1.394 . S
C1334 H1342 0.930 . S
C1335 C1334 1.394 . S
C1335 C1336 1.383 . S
C1335 H1343 0.929 1_556 S
C1336 C1335 1.383 . S
C1336 C1337 1.377 . S
C1337 H1321 0.930 . S
C1337 C1336 1.377 . S
C1337 C1338 1.379 . S
C1338 H1322 0.931 . S
C1338 C1332 1.383 . S
C1338 C1337 1.379 . S
H1339 C1333 0.959 . S
H1340 C1333 0.961 . S
H1341 C1333 0.960 . S
H1342 C1334 0.930 . S
H1343 C1335 0.929 1_554 S
H1344 C1352 0.929 . S
H1345 C1354 0.930 . S
H1346 C1356 0.930 . S
H1347 C1359 0.929 . S
H1348 C1362 0.930 . S
H1349 C1364 0.960 . S
H1350 C1364 0.960 . S
H1351 C1364 0.960 . S
C1352 H1344 0.929 . S
C1352 C1353 1.377 . S
C1352 C1354 1.384 . S
C1353 C1352 1.377 . S
C1353 C1359 1.390 . S
C1354 H1345 0.930 . S
C1354 C1352 1.384 . S
C1354 C1355 1.372 . S
C1355 C1354 1.372 . S
C1355 C1356 1.400 . S
C1355 C1360 1.490 . S
C1356 H1346 0.930 . S
C1356 C1355 1.400 . S
C1356 C1359 1.386 . S
H1357 C1373 0.930 . S
H1358 C1374 0.931 . S
C1359 H1347 0.929 . S
C1359 C1353 1.390 . S
C1359 C1356 1.386 . S
C1360 C1355 1.490 . S
C1360 C1362 1.395 . S
C1360 C1363 1.403 . S
H1361 C1367 0.930 . S
C1362 H1348 0.930 . S
C1362 C1360 1.395 . S
C1362 C1365 1.403 . S
C1363 C1360 1.403 . S
C1363 C1364 1.524 . S
C1363 C1367 1.400 . S
C1364 H1349 0.960 . S
C1364 H1350 0.960 . S
C1364 H1351 0.960 . S
C1364 C1363 1.524 . S
C1365 C1362 1.403 . S
C1365 C1366 1.392 . S
C1365 C1369 1.495 . S
C1366 C1365 1.392 . S
C1366 C1367 1.385 . S
C1366 C1368 1.478 . S
C1367 H1361 0.930 . S
C1367 C1363 1.400 . S
C1367 C1366 1.385 . S
C1368 C1366 1.478 . S
C1368 C1370 1.381 . S
C1368 C1374 1.383 . S
C1369 C1365 1.495 . S
C1369 H1375 0.959 . S
C1369 H1376 0.961 . S
C1369 H1377 0.960 . S
C1370 C1368 1.381 . S
C1370 C1371 1.394 . S
C1370 H1378 0.930 . S
C1371 C1370 1.394 . S
C1371 C1372 1.383 . S
C1371 H1379 0.929 . S
C1372 C1371 1.383 . S
C1372 C1373 1.377 . S
C1373 H1357 0.930 . S
C1373 C1372 1.377 . S
C1373 C1374 1.379 . S
C1374 H1358 0.931 . S
C1374 C1368 1.383 . S
C1374 C1373 1.379 . S
H1375 C1369 0.959 . S
H1376 C1369 0.961 . S
H1377 C1369 0.960 . S
H1378 C1370 0.930 . S
H1379 C1371 0.929 . S
H1380 C1388 0.929 . S
H1381 C1390 0.930 . S
H1382 C1392 0.930 . S
H1383 C1395 0.929 . S
H1384 C1398 0.930 . S
H1385 C1400 0.960 . S
H1386 C1400 0.960 . S
H1387 C1400 0.960 . S
C1388 H1380 0.929 . S
C1388 C1389 1.377 . S
C1388 C1390 1.384 . S
C1389 C1388 1.377 . S
C1389 C1395 1.390 . S
C1390 H1381 0.930 . S
C1390 C1388 1.384 . S
C1390 C1391 1.372 . S
C1391 C1390 1.372 . S
C1391 C1392 1.400 . S
C1391 C1396 1.490 . S
C1392 H1382 0.930 . S
C1392 C1391 1.400 . S
C1392 C1395 1.386 . S
H1393 C1409 0.930 . S
H1394 C1410 0.931 . S
C1395 H1383 0.929 . S
C1395 C1389 1.390 . S
C1395 C1392 1.386 . S
C1396 C1391 1.490 . S
C1396 C1398 1.395 . S
C1396 C1399 1.403 . S
H1397 C1403 0.930 . S
C1398 H1384 0.930 . S
C1398 C1396 1.395 . S
C1398 C1401 1.403 . S
C1399 C1396 1.403 . S
C1399 C1400 1.524 . S
C1399 C1403 1.400 . S
C1400 H1385 0.960 . S
C1400 H1386 0.960 . S
C1400 H1387 0.960 . S
C1400 C1399 1.524 . S
C1401 C1398 1.403 . S
C1401 C1402 1.392 . S
C1401 C1405 1.495 . S
C1402 C1401 1.392 . S
C1402 C1403 1.385 . S
C1402 C1404 1.478 . S
C1403 H1397 0.930 . S
C1403 C1399 1.400 . S
C1403 C1402 1.385 . S
C1404 C1402 1.478 . S
C1404 C1406 1.381 . S
C1404 C1410 1.383 . S
C1405 C1401 1.495 . S
C1405 H1411 0.959 . S
C1405 H1412 0.961 . S
C1405 H1413 0.960 . S
C1406 C1404 1.381 . S
C1406 C1407 1.394 . S
C1406 H1414 0.930 . S
C1407 C1406 1.394 . S
C1407 C1408 1.383 . S
C1407 H1415 0.929 . S
C1408 C1407 1.383 . S
C1408 C1409 1.377 . S
C1409 H1393 0.930 . S
C1409 C1408 1.377 . S
C1409 C1410 1.379 . S
C1410 H1394 0.931 . S
C1410 C1404 1.383 . S
C1410 C1409 1.379 . S
H1411 C1405 0.959 . S
H1412 C1405 0.961 . S
H1413 C1405 0.960 . S
H1414 C1406 0.930 . S
H1415 C1407 0.929 . S
H1416 C1424 0.929 . S
H1417 C1426 0.930 . S
H1418 C1428 0.930 . S
H1419 C1431 0.929 . S
H1420 C1434 0.930 . S
H1421 C1436 0.960 . S
H1422 C1436 0.960 . S
H1423 C1436 0.960 . S
C1424 H1416 0.929 . S
C1424 C1425 1.377 . S
C1424 C1426 1.384 . S
C1425 C1424 1.377 . S
C1425 C1431 1.390 . S
C1426 H1417 0.930 . S
C1426 C1424 1.384 . S
C1426 C1427 1.372 . S
C1427 C1426 1.372 . S
C1427 C1428 1.400 . S
C1427 C1432 1.490 . S
C1428 H1418 0.930 . S
C1428 C1427 1.400 . S
C1428 C1431 1.386 . S
H1429 C1445 0.930 . S
H1430 C1446 0.931 . S
C1431 H1419 0.929 . S
C1431 C1425 1.390 . S
C1431 C1428 1.386 . S
C1432 C1427 1.490 . S
C1432 C1434 1.395 . S
C1432 C1435 1.403 . S
H1433 C1439 0.930 . S
C1434 H1420 0.930 . S
C1434 C1432 1.395 . S
C1434 C1437 1.403 . S
C1435 C1432 1.403 . S
C1435 C1436 1.524 . S
C1435 C1439 1.400 . S
C1436 H1421 0.960 . S
C1436 H1422 0.960 . S
C1436 H1423 0.960 . S
C1436 C1435 1.524 . S
C1437 C1434 1.403 . S
C1437 C1438 1.392 . S
C1437 C1441 1.495 . S
C1438 C1437 1.392 . S
C1438 C1439 1.385 . S
C1438 C1440 1.478 . S
C1439 H1433 0.930 . S
C1439 C1435 1.400 . S
C1439 C1438 1.385 . S
C1440 C1438 1.478 . S
C1440 C1442 1.381 . S
C1440 C1446 1.383 . S
C1441 C1437 1.495 . S
C1441 H1447 0.959 . S
C1441 H1448 0.961 . S
C1441 H1449 0.960 . S
C1442 C1440 1.381 . S
C1442 C1443 1.394 . S
C1442 H1450 0.930 . S
C1443 C1442 1.394 . S
C1443 C1444 1.383 . S
C1443 H1451 0.929 . S
C1444 C1443 1.383 . S
C1444 C1445 1.377 . S
C1445 H1429 0.930 . S
C1445 C1444 1.377 . S
C1445 C1446 1.379 . S
C1446 H1430 0.931 . S
C1446 C1440 1.383 . S
C1446 C1445 1.379 . S
H1447 C1441 0.959 . S
H1448 C1441 0.961 . S
H1449 C1441 0.960 . S
H1450 C1442 0.930 . S
H1451 C1443 0.929 . S
H1452 C1460 0.929 . S
H1453 C1462 0.930 . S
H1454 C1464 0.930 . S
H1455 C1467 0.929 . S
H1456 C1470 0.930 . S
H1457 C1472 0.960 . S
H1458 C1472 0.960 . S
H1459 C1472 0.960 . S
C1460 H1452 0.929 . S
C1460 C1461 1.377 . S
C1460 C1462 1.384 . S
C1461 C1460 1.377 . S
C1461 C1467 1.390 . S
C1462 H1453 0.930 . S
C1462 C1460 1.384 . S
C1462 C1463 1.372 . S
C1463 C1462 1.372 . S
C1463 C1464 1.400 . S
C1463 C1468 1.490 . S
C1464 H1454 0.930 . S
C1464 C1463 1.400 . S
C1464 C1467 1.386 . S
H1465 C1481 0.930 . S
H1466 C1482 0.931 . S
C1467 H1455 0.929 . S
C1467 C1461 1.390 . S
C1467 C1464 1.386 . S
C1468 C1463 1.490 . S
C1468 C1470 1.395 . S
C1468 C1471 1.403 . S
H1469 C1475 0.930 . S
C1470 H1456 0.930 . S
C1470 C1468 1.395 . S
C1470 C1473 1.403 . S
C1471 C1468 1.403 . S
C1471 C1472 1.524 . S
C1471 C1475 1.400 . S
C1472 H1457 0.960 . S
C1472 H1458 0.960 . S
C1472 H1459 0.960 . S
C1472 C1471 1.524 . S
C1473 C1470 1.403 . S
C1473 C1474 1.392 . S
C1473 C1477 1.495 . S
C1474 C1473 1.392 . S
C1474 C1475 1.385 . S
C1474 C1476 1.478 . S
C1475 H1469 0.930 . S
C1475 C1471 1.400 . S
C1475 C1474 1.385 . S
C1476 C1474 1.478 . S
C1476 C1478 1.381 . S
C1476 C1482 1.383 . S
C1477 C1473 1.495 . S
C1477 H1483 0.959 . S
C1477 H1484 0.961 . S
C1477 H1485 0.960 . S
C1478 C1476 1.381 . S
C1478 C1479 1.394 . S
C1478 H1486 0.930 . S
C1479 C1478 1.394 . S
C1479 C1480 1.383 . S
C1479 H1487 0.929 . S
C1480 C1479 1.383 . S
C1480 C1481 1.377 . S
C1481 H1465 0.930 . S
C1481 C1480 1.377 . S
C1481 C1482 1.379 . S
C1482 H1466 0.931 . S
C1482 C1476 1.383 . S
C1482 C1481 1.379 . S
H1483 C1477 0.959 . S
H1484 C1477 0.961 . S
H1485 C1477 0.960 . S
H1486 C1478 0.930 . S
H1487 C1479 0.929 . S
H1488 C1496 0.929 . S
H1489 C1498 0.930 . S
H1490 C1500 0.930 . S
H1491 C1503 0.929 . S
H1492 C1506 0.930 . S
H1493 C1508 0.960 . S
H1494 C1508 0.960 . S
H1495 C1508 0.960 . S
C1496 H1488 0.929 . S
C1496 C1497 1.377 . S
C1496 C1498 1.384 . S
C1497 C1496 1.377 . S
C1497 C1503 1.390 . S
C1498 H1489 0.930 . S
C1498 C1496 1.384 . S
C1498 C1499 1.372 . S
C1499 C1498 1.372 . S
C1499 C1500 1.400 . S
C1499 C1504 1.490 . S
C1500 H1490 0.930 . S
C1500 C1499 1.400 . S
C1500 C1503 1.386 . S
H1501 C1517 0.930 . S
H1502 C1518 0.931 . S
C1503 H1491 0.929 . S
C1503 C1497 1.390 . S
C1503 C1500 1.386 . S
C1504 C1499 1.490 . S
C1504 C1506 1.395 . S
C1504 C1507 1.403 . S
H1505 C1511 0.930 . S
C1506 H1492 0.930 . S
C1506 C1504 1.395 . S
C1506 C1509 1.403 . S
C1507 C1504 1.403 . S
C1507 C1508 1.524 . S
C1507 C1511 1.400 . S
C1508 H1493 0.960 . S
C1508 H1494 0.960 . S
C1508 H1495 0.960 . S
C1508 C1507 1.524 . S
C1509 C1506 1.403 . S
C1509 C1510 1.392 . S
C1509 C1513 1.495 . S
C1510 C1509 1.392 . S
C1510 C1511 1.385 . S
C1510 C1512 1.478 . S
C1511 H1505 0.930 . S
C1511 C1507 1.400 . S
C1511 C1510 1.385 . S
C1512 C1510 1.478 . S
C1512 C1514 1.381 . S
C1512 C1518 1.383 . S
C1513 C1509 1.495 . S
C1513 H1519 0.959 . S
C1513 H1520 0.961 . S
C1513 H1521 0.960 . S
C1514 C1512 1.381 . S
C1514 C1515 1.394 . S
C1514 H1522 0.930 . S
C1515 C1514 1.394 . S
C1515 C1516 1.383 . S
C1515 H1523 0.929 . S
C1516 C1515 1.383 . S
C1516 C1517 1.377 . S
C1517 H1501 0.930 . S
C1517 C1516 1.377 . S
C1517 C1518 1.379 . S
C1518 H1502 0.931 . S
C1518 C1512 1.383 . S
C1518 C1517 1.379 . S
H1519 C1513 0.959 . S
H1520 C1513 0.961 . S
H1521 C1513 0.960 . S
H1522 C1514 0.930 . S
H1523 C1515 0.929 . S
H1524 C1532 0.929 . S
H1525 C1534 0.930 . S
H1526 C1536 0.930 . S
H1527 C1539 0.929 . S
H1528 C1542 0.930 . S
H1529 C1544 0.960 . S
H1530 C1544 0.960 . S
H1531 C1544 0.960 . S
C1532 H1524 0.929 . S
C1532 C1533 1.377 . S
C1532 C1534 1.384 . S
C1533 C1532 1.377 . S
C1533 C1539 1.390 . S
C1534 H1525 0.930 . S
C1534 C1532 1.384 . S
C1534 C1535 1.372 . S
C1535 C1534 1.372 . S
C1535 C1536 1.400 . S
C1535 C1540 1.490 . S
C1536 H1526 0.930 . S
C1536 C1535 1.400 . S
C1536 C1539 1.386 . S
H1537 C1553 0.930 . S
H1538 C1554 0.931 . S
C1539 H1527 0.929 . S
C1539 C1533 1.390 . S
C1539 C1536 1.386 . S
C1540 C1535 1.490 . S
C1540 C1542 1.395 . S
C1540 C1543 1.403 . S
H1541 C1547 0.930 . S
C1542 H1528 0.930 . S
C1542 C1540 1.395 . S
C1542 C1545 1.403 . S
C1543 C1540 1.403 . S
C1543 C1544 1.524 . S
C1543 C1547 1.400 . S
C1544 H1529 0.960 . S
C1544 H1530 0.960 . S
C1544 H1531 0.960 . S
C1544 C1543 1.524 . S
C1545 C1542 1.403 . S
C1545 C1546 1.392 . S
C1545 C1549 1.495 . S
C1546 C1545 1.392 . S
C1546 C1547 1.385 . S
C1546 C1548 1.478 . S
C1547 H1541 0.930 . S
C1547 C1543 1.400 . S
C1547 C1546 1.385 . S
C1548 C1546 1.478 . S
C1548 C1550 1.381 . S
C1548 C1554 1.383 . S
C1549 C1545 1.495 . S
C1549 H1555 0.959 . S
C1549 H1556 0.961 . S
C1549 H1557 0.960 . S
C1550 C1548 1.381 . S
C1550 C1551 1.394 . S
C1550 H1558 0.930 . S
C1551 C1550 1.394 . S
C1551 C1552 1.383 . S
C1551 H1559 0.929 . S
C1552 C1551 1.383 . S
C1552 C1553 1.377 . S
C1553 H1537 0.930 . S
C1553 C1552 1.377 . S
C1553 C1554 1.379 . S
C1554 H1538 0.931 . S
C1554 C1548 1.383 . S
C1554 C1553 1.379 . S
H1555 C1549 0.959 . S
H1556 C1549 0.961 . S
H1557 C1549 0.960 . S
H1558 C1550 0.930 . S
H1559 C1551 0.929 . S
H1560 C1568 0.929 . S
H1561 C1570 0.930 . S
H1562 C1572 0.930 . S
H1563 C1575 0.929 . S
H1564 C1578 0.930 . S
H1565 C1580 0.960 . S
H1566 C1580 0.960 . S
H1567 C1580 0.960 . S
C1568 H1560 0.929 . S
C1568 C1569 1.377 . S
C1568 C1570 1.384 . S
C1569 C1568 1.377 . S
C1569 C1575 1.390 . S
C1570 H1561 0.930 . S
C1570 C1568 1.384 . S
C1570 C1571 1.372 . S
C1571 C1570 1.372 . S
C1571 C1572 1.400 . S
C1571 C1576 1.490 . S
C1572 H1562 0.930 . S
C1572 C1571 1.400 . S
C1572 C1575 1.386 . S
H1573 C1589 0.930 . S
H1574 C1590 0.931 . S
C1575 H1563 0.929 . S
C1575 C1569 1.390 . S
C1575 C1572 1.386 . S
C1576 C1571 1.490 . S
C1576 C1578 1.395 . S
C1576 C1579 1.403 . S
H1577 C1583 0.930 . S
C1578 H1564 0.930 . S
C1578 C1576 1.395 . S
C1578 C1581 1.403 . S
C1579 C1576 1.403 . S
C1579 C1580 1.524 . S
C1579 C1583 1.400 . S
C1580 H1565 0.960 . S
C1580 H1566 0.960 . S
C1580 H1567 0.960 . S
C1580 C1579 1.524 . S
C1581 C1578 1.403 . S
C1581 C1582 1.392 . S
C1581 C1585 1.495 . S
C1582 C1581 1.392 . S
C1582 C1583 1.385 . S
C1582 C1584 1.478 . S
C1583 H1577 0.930 . S
C1583 C1579 1.400 . S
C1583 C1582 1.385 . S
C1584 C1582 1.478 . S
C1584 C1586 1.381 . S
C1584 C1590 1.383 . S
C1585 C1581 1.495 . S
C1585 H1591 0.959 . S
C1585 H1592 0.961 . S
C1585 H1593 0.960 . S
C1586 C1584 1.381 . S
C1586 C1587 1.394 . S
C1586 H1594 0.930 . S
C1587 C1586 1.394 . S
C1587 C1588 1.383 . S
C1587 H1595 0.929 . S
C1588 C1587 1.383 . S
C1588 C1589 1.377 . S
C1589 H1573 0.930 . S
C1589 C1588 1.377 . S
C1589 C1590 1.379 . S
C1590 H1574 0.931 . S
C1590 C1584 1.383 . S
C1590 C1589 1.379 . S
H1591 C1585 0.959 . S
H1592 C1585 0.961 . S
H1593 C1585 0.960 . S
H1594 C1586 0.930 . S
H1595 C1587 0.929 . S
H1596 C1604 0.929 . S
H1597 C1606 0.930 . S
H1598 C1608 0.930 . S
H1599 C1611 0.929 . S
H1600 C1614 0.930 . S
H1601 C1616 0.960 . S
H1602 C1616 0.960 . S
H1603 C1616 0.960 . S
C1604 H1596 0.929 . S
C1604 C1605 1.377 . S
C1604 C1606 1.384 . S
C1605 C1604 1.377 . S
C1605 C1611 1.390 . S
C1606 H1597 0.930 . S
C1606 C1604 1.384 . S
C1606 C1607 1.372 . S
C1607 C1606 1.372 . S
C1607 C1608 1.400 . S
C1607 C1612 1.490 . S
C1608 H1598 0.930 . S
C1608 C1607 1.400 . S
C1608 C1611 1.386 . S
H1609 C1625 0.930 . S
H1610 C1626 0.931 . S
C1611 H1599 0.929 . S
C1611 C1605 1.390 . S
C1611 C1608 1.386 . S
C1612 C1607 1.490 . S
C1612 C1614 1.395 . S
C1612 C1615 1.403 . S
H1613 C1619 0.930 . S
C1614 H1600 0.930 . S
C1614 C1612 1.395 . S
C1614 C1617 1.403 . S
C1615 C1612 1.403 . S
C1615 C1616 1.524 . S
C1615 C1619 1.400 . S
C1616 H1601 0.960 . S
C1616 H1602 0.960 . S
C1616 H1603 0.960 . S
C1616 C1615 1.524 . S
C1617 C1614 1.403 . S
C1617 C1618 1.392 . S
C1617 C1621 1.495 . S
C1618 C1617 1.392 . S
C1618 C1619 1.385 . S
C1618 C1620 1.478 . S
C1619 H1613 0.930 . S
C1619 C1615 1.400 . S
C1619 C1618 1.385 . S
C1620 C1618 1.478 . S
C1620 C1622 1.381 . S
C1620 C1626 1.383 . S
C1621 C1617 1.495 . S
C1621 H1627 0.959 . S
C1621 H1628 0.961 . S
C1621 H1629 0.960 . S
C1622 C1620 1.381 . S
C1622 C1623 1.394 . S
C1622 H1630 0.930 . S
C1623 C1622 1.394 . S
C1623 C1624 1.383 . S
C1623 H1631 0.929 . S
C1624 C1623 1.383 . S
C1624 C1625 1.377 . S
C1625 H1609 0.930 . S
C1625 C1624 1.377 . S
C1625 C1626 1.379 . S
C1626 H1610 0.931 . S
C1626 C1620 1.383 . S
C1626 C1625 1.379 . S
H1627 C1621 0.959 . S
H1628 C1621 0.961 . S
H1629 C1621 0.960 . S
H1630 C1622 0.930 . S
H1631 C1623 0.929 . S
H1632 C1640 0.929 . S
H1633 C1642 0.930 . S
H1634 C1644 0.930 . S
H1635 C1647 0.929 . S
H1636 C1650 0.930 . S
H1637 C1652 0.960 . S
H1638 C1652 0.960 . S
H1639 C1652 0.960 . S
C1640 H1632 0.929 . S
C1640 C1641 1.377 . S
C1640 C1642 1.384 . S
C1641 C1640 1.377 . S
C1641 C1647 1.390 . S
C1642 H1633 0.930 . S
C1642 C1640 1.384 . S
C1642 C1643 1.372 . S
C1643 C1642 1.372 . S
C1643 C1644 1.400 . S
C1643 C1648 1.490 . S
C1644 H1634 0.930 . S
C1644 C1643 1.400 . S
C1644 C1647 1.386 . S
H1645 C1661 0.930 . S
H1646 C1662 0.931 . S
C1647 H1635 0.929 . S
C1647 C1641 1.390 . S
C1647 C1644 1.386 . S
C1648 C1643 1.490 . S
C1648 C1650 1.395 . S
C1648 C1651 1.403 . S
H1649 C1655 0.930 . S
C1650 H1636 0.930 . S
C1650 C1648 1.395 . S
C1650 C1653 1.403 . S
C1651 C1648 1.403 . S
C1651 C1652 1.524 . S
C1651 C1655 1.400 . S
C1652 H1637 0.960 . S
C1652 H1638 0.960 . S
C1652 H1639 0.960 . S
C1652 C1651 1.524 . S
C1653 C1650 1.403 . S
C1653 C1654 1.392 . S
C1653 C1657 1.495 . S
C1654 C1653 1.392 . S
C1654 C1655 1.385 . S
C1654 C1656 1.478 . S
C1655 H1649 0.930 . S
C1655 C1651 1.400 . S
C1655 C1654 1.385 . S
C1656 C1654 1.478 . S
C1656 C1658 1.381 . S
C1656 C1662 1.383 . S
C1657 C1653 1.495 . S
C1657 H1663 0.959 . S
C1657 H1664 0.961 . S
C1657 H1665 0.960 . S
C1658 C1656 1.381 . S
C1658 C1659 1.394 . S
C1658 H1666 0.930 . S
C1659 C1658 1.394 . S
C1659 C1660 1.383 . S
C1659 H1667 0.929 . S
C1660 C1659 1.383 . S
C1660 C1661 1.377 . S
C1661 H1645 0.930 . S
C1661 C1660 1.377 . S
C1661 C1662 1.379 . S
C1662 H1646 0.931 . S
C1662 C1656 1.383 . S
C1662 C1661 1.379 . S
H1663 C1657 0.959 . S
H1664 C1657 0.961 . S
H1665 C1657 0.960 . S
H1666 C1658 0.930 . S
H1667 C1659 0.929 . S
H1668 C1676 0.929 . S
H1669 C1678 0.930 . S
H1670 C1680 0.930 . S
H1671 C1683 0.929 . S
H1672 C1686 0.930 . S
H1673 C1688 0.960 . S
H1674 C1688 0.960 . S
H1675 C1688 0.960 . S
C1676 H1668 0.929 . S
C1676 C1677 1.377 . S
C1676 C1678 1.384 . S
C1677 C1676 1.377 . S
C1677 C1683 1.390 . S
C1678 H1669 0.930 . S
C1678 C1676 1.384 . S
C1678 C1679 1.372 . S
C1679 C1678 1.372 . S
C1679 C1680 1.400 . S
C1679 C1684 1.490 . S
C1680 H1670 0.930 . S
C1680 C1679 1.400 . S
C1680 C1683 1.386 . S
H1681 C1697 0.930 . S
H1682 C1698 0.931 . S
C1683 H1671 0.929 . S
C1683 C1677 1.390 . S
C1683 C1680 1.386 . S
C1684 C1679 1.490 . S
C1684 C1686 1.395 . S
C1684 C1687 1.403 . S
H1685 C1691 0.930 . S
C1686 H1672 0.930 . S
C1686 C1684 1.395 . S
C1686 C1689 1.403 . S
C1687 C1684 1.403 . S
C1687 C1688 1.524 . S
C1687 C1691 1.400 . S
C1688 H1673 0.960 . S
C1688 H1674 0.960 . S
C1688 H1675 0.960 . S
C1688 C1687 1.524 . S
C1689 C1686 1.403 . S
C1689 C1690 1.392 . S
C1689 C1693 1.495 . S
C1690 C1689 1.392 . S
C1690 C1691 1.385 . S
C1690 C1692 1.478 . S
C1691 H1685 0.930 . S
C1691 C1687 1.400 . S
C1691 C1690 1.385 . S
C1692 C1690 1.478 . S
C1692 C1694 1.381 . S
C1692 C1698 1.383 . S
C1693 C1689 1.495 . S
C1693 H1699 0.959 . S
C1693 H1700 0.961 . S
C1693 H1701 0.960 . S
C1694 C1692 1.381 . S
C1694 C1695 1.394 . S
C1694 H1702 0.930 . S
C1695 C1694 1.394 . S
C1695 C1696 1.383 . S
C1695 H1703 0.929 . S
C1696 C1695 1.383 . S
C1696 C1697 1.377 . S
C1697 H1681 0.930 . S
C1697 C1696 1.377 . S
C1697 C1698 1.379 . S
C1698 H1682 0.931 . S
C1698 C1692 1.383 . S
C1698 C1697 1.379 . S
H1699 C1693 0.959 . S
H1700 C1693 0.961 . S
H1701 C1693 0.960 . S
H1702 C1694 0.930 . S
H1703 C1695 0.929 . S
H1704 C1712 0.929 . S
H1705 C1714 0.930 . S
H1706 C1716 0.930 . S
H1707 C1719 0.929 . S
H1708 C1722 0.930 . S
H1709 C1724 0.960 . S
H1710 C1724 0.960 . S
H1711 C1724 0.960 . S
C1712 H1704 0.929 . S
C1712 C1713 1.377 . S
C1712 C1714 1.384 . S
C1713 C1712 1.377 . S
C1713 C1719 1.390 . S
C1714 H1705 0.930 . S
C1714 C1712 1.384 . S
C1714 C1715 1.372 . S
C1715 C1714 1.372 . S
C1715 C1716 1.400 . S
C1715 C1720 1.490 . S
C1716 H1706 0.930 . S
C1716 C1715 1.400 . S
C1716 C1719 1.386 . S
H1717 C1733 0.930 . S
H1718 C1734 0.931 . S
C1719 H1707 0.929 . S
C1719 C1713 1.390 . S
C1719 C1716 1.386 . S
C1720 C1715 1.490 . S
C1720 C1722 1.395 . S
C1720 C1723 1.403 . S
H1721 C1727 0.930 . S
C1722 H1708 0.930 . S
C1722 C1720 1.395 . S
C1722 C1725 1.403 . S
C1723 C1720 1.403 . S
C1723 C1724 1.524 . S
C1723 C1727 1.400 . S
C1724 H1709 0.960 . S
C1724 H1710 0.960 . S
C1724 H1711 0.960 . S
C1724 C1723 1.524 . S
C1725 C1722 1.403 . S
C1725 C1726 1.392 . S
C1725 C1729 1.495 . S
C1726 C1725 1.392 . S
C1726 C1727 1.385 . S
C1726 C1728 1.478 . S
C1727 H1721 0.930 . S
C1727 C1723 1.400 . S
C1727 C1726 1.385 . S
C1728 C1726 1.478 . S
C1728 C1730 1.381 . S
C1728 C1734 1.383 . S
C1729 C1725 1.495 . S
C1729 H1735 0.959 . S
C1729 H1736 0.961 . S
C1729 H1737 0.960 . S
C1730 C1728 1.381 . S
C1730 C1731 1.394 . S
C1730 H1738 0.930 . S
C1731 C1730 1.394 . S
C1731 C1732 1.383 . S
C1731 H1739 0.929 . S
C1732 C1731 1.383 . S
C1732 C1733 1.377 . S
C1733 H1717 0.930 . S
C1733 C1732 1.377 . S
C1733 C1734 1.379 . S
C1734 H1718 0.931 . S
C1734 C1728 1.383 . S
C1734 C1733 1.379 . S
H1735 C1729 0.959 . S
H1736 C1729 0.961 . S
H1737 C1729 0.960 . S
H1738 C1730 0.930 . S
H1739 C1731 0.929 . S
H1740 C1748 0.929 . S
H1741 C1750 0.930 . S
H1742 C1752 0.930 . S
H1743 C1755 0.929 . S
H1744 C1758 0.930 . S
H1745 C1760 0.960 . S
H1746 C1760 0.960 . S
H1747 C1760 0.960 . S
C1748 H1740 0.929 . S
C1748 C1749 1.377 . S
C1748 C1750 1.384 . S
C1749 C1748 1.377 . S
C1749 C1755 1.390 . S
C1750 H1741 0.930 . S
C1750 C1748 1.384 . S
C1750 C1751 1.372 . S
C1751 C1750 1.372 . S
C1751 C1752 1.400 . S
C1751 C1756 1.490 . S
C1752 H1742 0.930 . S
C1752 C1751 1.400 . S
C1752 C1755 1.386 . S
H1753 C1769 0.930 . S
H1754 C1770 0.931 . S
C1755 H1743 0.929 . S
C1755 C1749 1.390 . S
C1755 C1752 1.386 . S
C1756 C1751 1.490 . S
C1756 C1758 1.395 . S
C1756 C1759 1.403 . S
H1757 C1763 0.930 . S
C1758 H1744 0.930 . S
C1758 C1756 1.395 . S
C1758 C1761 1.403 . S
C1759 C1756 1.403 . S
C1759 C1760 1.524 . S
C1759 C1763 1.400 . S
C1760 H1745 0.960 . S
C1760 H1746 0.960 . S
C1760 H1747 0.960 . S
C1760 C1759 1.524 . S
C1761 C1758 1.403 . S
C1761 C1762 1.392 . S
C1761 C1765 1.495 . S
C1762 C1761 1.392 . S
C1762 C1763 1.385 . S
C1762 C1764 1.478 . S
C1763 H1757 0.930 . S
C1763 C1759 1.400 . S
C1763 C1762 1.385 . S
C1764 C1762 1.478 . S
C1764 C1766 1.381 . S
C1764 C1770 1.383 . S
C1765 C1761 1.495 . S
C1765 H1771 0.959 . S
C1765 H1772 0.961 . S
C1765 H1773 0.960 . S
C1766 C1764 1.381 . S
C1766 C1767 1.394 . S
C1766 H1774 0.930 . S
C1767 C1766 1.394 . S
C1767 C1768 1.383 . S
C1767 H1775 0.929 . S
C1768 C1767 1.383 . S
C1768 C1769 1.377 . S
C1769 H1753 0.930 . S
C1769 C1768 1.377 . S
C1769 C1770 1.379 . S
C1770 H1754 0.931 . S
C1770 C1764 1.383 . S
C1770 C1769 1.379 . S
H1771 C1765 0.959 . S
H1772 C1765 0.961 . S
H1773 C1765 0.960 . S
H1774 C1766 0.930 . S
H1775 C1767 0.929 . S
H1776 C1784 0.929 . S
H1777 C1786 0.930 . S
H1778 C1788 0.930 . S
H1779 C1791 0.929 . S
H1780 C1794 0.930 . S
H1781 C1796 0.960 . S
H1782 C1796 0.960 . S
H1783 C1796 0.960 . S
C1784 H1776 0.929 . S
C1784 C1785 1.377 . S
C1784 C1786 1.384 . S
C1785 C1784 1.377 . S
C1785 C1791 1.390 . S
C1786 H1777 0.930 . S
C1786 C1784 1.384 . S
C1786 C1787 1.372 . S
C1787 C1786 1.372 . S
C1787 C1788 1.400 . S
C1787 C1792 1.490 . S
C1788 H1778 0.930 . S
C1788 C1787 1.400 . S
C1788 C1791 1.386 . S
H1789 C1805 0.930 . S
H1790 C1806 0.931 . S
C1791 H1779 0.929 . S
C1791 C1785 1.390 . S
C1791 C1788 1.386 . S
C1792 C1787 1.490 . S
C1792 C1794 1.395 . S
C1792 C1795 1.403 . S
H1793 C1799 0.930 . S
C1794 H1780 0.930 . S
C1794 C1792 1.395 . S
C1794 C1797 1.403 . S
C1795 C1792 1.403 . S
C1795 C1796 1.524 . S
C1795 C1799 1.400 . S
C1796 H1781 0.960 . S
C1796 H1782 0.960 . S
C1796 H1783 0.960 . S
C1796 C1795 1.524 . S
C1797 C1794 1.403 . S
C1797 C1798 1.392 . S
C1797 C1801 1.495 . S
C1798 C1797 1.392 . S
C1798 C1799 1.385 . S
C1798 C1800 1.478 . S
C1799 H1793 0.930 . S
C1799 C1795 1.400 . S
C1799 C1798 1.385 . S
C1800 C1798 1.478 . S
C1800 C1802 1.381 . S
C1800 C1806 1.383 . S
C1801 C1797 1.495 . S
C1801 H1807 0.959 . S
C1801 H1808 0.961 . S
C1801 H1809 0.960 . S
C1802 C1800 1.381 . S
C1802 C1803 1.394 . S
C1802 H1810 0.930 . S
C1803 C1802 1.394 . S
C1803 C1804 1.383 . S
C1803 H1811 0.929 . S
C1804 C1803 1.383 . S
C1804 C1805 1.377 . S
C1805 H1789 0.930 . S
C1805 C1804 1.377 . S
C1805 C1806 1.379 . S
C1806 H1790 0.931 . S
C1806 C1800 1.383 . S
C1806 C1805 1.379 . S
H1807 C1801 0.959 . S
H1808 C1801 0.961 . S
H1809 C1801 0.960 . S
H1810 C1802 0.930 . S
H1811 C1803 0.929 . S
H1812 C1820 0.929 . S
H1813 C1822 0.930 . S
H1814 C1824 0.930 . S
H1815 C1827 0.929 . S
H1816 C1830 0.930 . S
H1817 C1832 0.960 . S
H1818 C1832 0.960 . S
H1819 C1832 0.960 . S
C1820 H1812 0.929 . S
C1820 C1821 1.377 . S
C1820 C1822 1.384 . S
C1821 C1820 1.377 . S
C1821 C1827 1.390 . S
C1822 H1813 0.930 . S
C1822 C1820 1.384 . S
C1822 C1823 1.372 . S
C1823 C1822 1.372 . S
C1823 C1824 1.400 . S
C1823 C1828 1.490 . S
C1824 H1814 0.930 . S
C1824 C1823 1.400 . S
C1824 C1827 1.386 . S
H1825 C1841 0.930 . S
H1826 C1842 0.931 . S
C1827 H1815 0.929 . S
C1827 C1821 1.390 . S
C1827 C1824 1.386 . S
C1828 C1823 1.490 . S
C1828 C1830 1.395 . S
C1828 C1831 1.403 . S
H1829 C1835 0.930 . S
C1830 H1816 0.930 . S
C1830 C1828 1.395 . S
C1830 C1833 1.403 . S
C1831 C1828 1.403 . S
C1831 C1832 1.524 . S
C1831 C1835 1.400 . S
C1832 H1817 0.960 . S
C1832 H1818 0.960 . S
C1832 H1819 0.960 . S
C1832 C1831 1.524 . S
C1833 C1830 1.403 . S
C1833 C1834 1.392 . S
C1833 C1837 1.495 . S
C1834 C1833 1.392 . S
C1834 C1835 1.385 . S
C1834 C1836 1.478 . S
C1835 H1829 0.930 . S
C1835 C1831 1.400 . S
C1835 C1834 1.385 . S
C1836 C1834 1.478 . S
C1836 C1838 1.381 . S
C1836 C1842 1.383 . S
C1837 C1833 1.495 . S
C1837 H1843 0.959 . S
C1837 H1844 0.961 . S
C1837 H1845 0.960 . S
C1838 C1836 1.381 . S
C1838 C1839 1.394 . S
C1838 H1846 0.930 . S
C1839 C1838 1.394 . S
C1839 C1840 1.383 . S
C1839 H1847 0.929 . S
C1840 C1839 1.383 . S
C1840 C1841 1.377 . S
C1841 H1825 0.930 . S
C1841 C1840 1.377 . S
C1841 C1842 1.379 . S
C1842 H1826 0.931 . S
C1842 C1836 1.383 . S
C1842 C1841 1.379 . S
H1843 C1837 0.959 . S
H1844 C1837 0.961 . S
H1845 C1837 0.960 . S
H1846 C1838 0.930 . S
H1847 C1839 0.929 . S
H1848 C1856 0.929 . S
H1849 C1858 0.930 . S
H1850 C1860 0.930 . S
H1851 C1863 0.929 . S
H1852 C1866 0.930 . S
H1853 C1868 0.960 . S
H1854 C1868 0.960 . S
H1855 C1868 0.960 . S
C1856 H1848 0.929 . S
C1856 C1857 1.377 . S
C1856 C1858 1.384 . S
C1857 C1856 1.377 . S
C1857 C1863 1.390 . S
C1858 H1849 0.930 . S
C1858 C1856 1.384 . S
C1858 C1859 1.372 . S
C1859 C1858 1.372 . S
C1859 C1860 1.400 . S
C1859 C1864 1.490 . S
C1860 H1850 0.930 . S
C1860 C1859 1.400 . S
C1860 C1863 1.386 . S
H1861 C1877 0.930 . S
H1862 C1878 0.931 . S
C1863 H1851 0.929 . S
C1863 C1857 1.390 . S
C1863 C1860 1.386 . S
C1864 C1859 1.490 . S
C1864 C1866 1.395 . S
C1864 C1867 1.403 . S
H1865 C1871 0.930 . S
C1866 H1852 0.930 . S
C1866 C1864 1.395 . S
C1866 C1869 1.403 . S
C1867 C1864 1.403 . S
C1867 C1868 1.524 . S
C1867 C1871 1.400 . S
C1868 H1853 0.960 . S
C1868 H1854 0.960 . S
C1868 H1855 0.960 . S
C1868 C1867 1.524 . S
C1869 C1866 1.403 . S
C1869 C1870 1.392 . S
C1869 C1873 1.495 . S
C1870 C1869 1.392 . S
C1870 C1871 1.385 . S
C1870 C1872 1.478 . S
C1871 H1865 0.930 . S
C1871 C1867 1.400 . S
C1871 C1870 1.385 . S
C1872 C1870 1.478 . S
C1872 C1874 1.381 . S
C1872 C1878 1.383 . S
C1873 C1869 1.495 . S
C1873 H1879 0.959 . S
C1873 H1880 0.961 . S
C1873 H1881 0.960 . S
C1874 C1872 1.381 . S
C1874 C1875 1.394 . S
C1874 H1882 0.930 . S
C1875 C1874 1.394 . S
C1875 C1876 1.383 . S
C1875 H1883 0.929 . S
C1876 C1875 1.383 . S
C1876 C1877 1.377 . S
C1877 H1861 0.930 . S
C1877 C1876 1.377 . S
C1877 C1878 1.379 . S
C1878 H1862 0.931 . S
C1878 C1872 1.383 . S
C1878 C1877 1.379 . S
H1879 C1873 0.959 . S
H1880 C1873 0.961 . S
H1881 C1873 0.960 . S
H1882 C1874 0.930 . S
H1883 C1875 0.929 . S
H1884 C1892 0.929 . S
H1885 C1894 0.930 . S
H1886 C1896 0.930 . S
H1887 C1899 0.929 . S
H1888 C1902 0.930 . S
H1889 C1904 0.960 . S
H1890 C1904 0.960 . S
H1891 C1904 0.960 . S
C1892 H1884 0.929 . S
C1892 C1893 1.377 . S
C1892 C1894 1.384 . S
C1893 C1892 1.377 . S
C1893 C1899 1.390 . S
C1894 H1885 0.930 . S
C1894 C1892 1.384 . S
C1894 C1895 1.372 . S
C1895 C1894 1.372 . S
C1895 C1896 1.400 . S
C1895 C1900 1.490 . S
C1896 H1886 0.930 . S
C1896 C1895 1.400 . S
C1896 C1899 1.386 . S
H1897 C1913 0.930 . S
H1898 C1914 0.931 . S
C1899 H1887 0.929 . S
C1899 C1893 1.390 . S
C1899 C1896 1.386 . S
C1900 C1895 1.490 . S
C1900 C1902 1.395 . S
C1900 C1903 1.403 . S
H1901 C1907 0.930 . S
C1902 H1888 0.930 . S
C1902 C1900 1.395 . S
C1902 C1905 1.403 . S
C1903 C1900 1.403 . S
C1903 C1904 1.524 . S
C1903 C1907 1.400 . S
C1904 H1889 0.960 . S
C1904 H1890 0.960 . S
C1904 H1891 0.960 . S
C1904 C1903 1.524 . S
C1905 C1902 1.403 . S
C1905 C1906 1.392 . S
C1905 C1909 1.495 . S
C1906 C1905 1.392 . S
C1906 C1907 1.385 . S
C1906 C1908 1.478 . S
C1907 H1901 0.930 . S
C1907 C1903 1.400 . S
C1907 C1906 1.385 . S
C1908 C1906 1.478 . S
C1908 C1910 1.381 . S
C1908 C1914 1.383 . S
C1909 C1905 1.495 . S
C1909 H1915 0.959 . S
C1909 H1916 0.961 . S
C1909 H1917 0.960 . S
C1910 C1908 1.381 . S
C1910 C1911 1.394 . S
C1910 H1918 0.930 . S
C1911 C1910 1.394 . S
C1911 C1912 1.383 . S
C1911 H1919 0.929 . S
C1912 C1911 1.383 . S
C1912 C1913 1.377 . S
C1913 H1897 0.930 . S
C1913 C1912 1.377 . S
C1913 C1914 1.379 . S
C1914 H1898 0.931 . S
C1914 C1908 1.383 . S
C1914 C1913 1.379 . S
H1915 C1909 0.959 . S
H1916 C1909 0.961 . S
H1917 C1909 0.960 . S
H1918 C1910 0.930 . S
H1919 C1911 0.929 . S
H1920 C1928 0.929 . S
H1921 C1930 0.930 . S
H1922 C1932 0.930 . S
H1923 C1935 0.929 . S
H1924 C1938 0.930 . S
H1925 C1940 0.960 . S
H1926 C1940 0.960 . S
H1927 C1940 0.960 . S
C1928 H1920 0.929 . S
C1928 C1929 1.377 . S
C1928 C1930 1.384 . S
C1929 C1928 1.377 . S
C1929 C1935 1.390 . S
C1930 H1921 0.930 . S
C1930 C1928 1.384 . S
C1930 C1931 1.372 . S
C1931 C1930 1.372 . S
C1931 C1932 1.400 . S
C1931 C1936 1.490 . S
C1932 H1922 0.930 . S
C1932 C1931 1.400 . S
C1932 C1935 1.386 . S
H1933 C1949 0.930 . S
H1934 C1950 0.931 . S
C1935 H1923 0.929 . S
C1935 C1929 1.390 . S
C1935 C1932 1.386 . S
C1936 C1931 1.490 . S
C1936 C1938 1.395 . S
C1936 C1939 1.403 . S
H1937 C1943 0.930 . S
C1938 H1924 0.930 . S
C1938 C1936 1.395 . S
C1938 C1941 1.403 . S
C1939 C1936 1.403 . S
C1939 C1940 1.524 . S
C1939 C1943 1.400 . S
C1940 H1925 0.960 . S
C1940 H1926 0.960 . S
C1940 H1927 0.960 . S
C1940 C1939 1.524 . S
C1941 C1938 1.403 . S
C1941 C1942 1.392 . S
C1941 C1945 1.495 . S
C1942 C1941 1.392 . S
C1942 C1943 1.385 . S
C1942 C1944 1.478 . S
C1943 H1937 0.930 . S
C1943 C1939 1.400 . S
C1943 C1942 1.385 . S
C1944 C1942 1.478 . S
C1944 C1946 1.381 . S
C1944 C1950 1.383 . S
C1945 C1941 1.495 . S
C1945 H1951 0.959 . S
C1945 H1952 0.961 . S
C1945 H1953 0.960 . S
C1946 C1944 1.381 . S
C1946 C1947 1.394 . S
C1946 H1954 0.930 . S
C1947 C1946 1.394 . S
C1947 C1948 1.383 . S
C1947 H1955 0.929 . S
C1948 C1947 1.383 . S
C1948 C1949 1.377 . S
C1949 H1933 0.930 . S
C1949 C1948 1.377 . S
C1949 C1950 1.379 . S
C1950 H1934 0.931 . S
C1950 C1944 1.383 . S
C1950 C1949 1.379 . S
H1951 C1945 0.959 . S
H1952 C1945 0.961 . S
H1953 C1945 0.960 . S
H1954 C1946 0.930 . S
H1955 C1947 0.929 . S
H1956 C1964 0.929 . S
H1957 C1966 0.930 . S
H1958 C1968 0.930 . S
H1959 C1971 0.929 . S
H1960 C1974 0.930 . S
H1961 C1976 0.960 . S
H1962 C1976 0.960 . S
H1963 C1976 0.960 . S
C1964 H1956 0.929 . S
C1964 C1965 1.377 . S
C1964 C1966 1.384 . S
C1965 C1964 1.377 . S
C1965 C1971 1.390 . S
C1966 H1957 0.930 . S
C1966 C1964 1.384 . S
C1966 C1967 1.372 . S
C1967 C1966 1.372 . S
C1967 C1968 1.400 . S
C1967 C1972 1.490 . S
C1968 H1958 0.930 . S
C1968 C1967 1.400 . S
C1968 C1971 1.386 . S
H1969 C1985 0.930 . S
H1970 C1986 0.931 . S
C1971 H1959 0.929 . S
C1971 C1965 1.390 . S
C1971 C1968 1.386 . S
C1972 C1967 1.490 . S
C1972 C1974 1.395 . S
C1972 C1975 1.403 . S
H1973 C1979 0.930 . S
C1974 H1960 0.930 . S
C1974 C1972 1.395 . S
C1974 C1977 1.403 . S
C1975 C1972 1.403 . S
C1975 C1976 1.524 . S
C1975 C1979 1.400 . S
C1976 H1961 0.960 . S
C1976 H1962 0.960 . S
C1976 H1963 0.960 . S
C1976 C1975 1.524 . S
C1977 C1974 1.403 . S
C1977 C1978 1.392 . S
C1977 C1981 1.495 . S
C1978 C1977 1.392 . S
C1978 C1979 1.385 . S
C1978 C1980 1.478 . S
C1979 H1973 0.930 . S
C1979 C1975 1.400 . S
C1979 C1978 1.385 . S
C1980 C1978 1.478 . S
C1980 C1982 1.381 . S
C1980 C1986 1.383 . S
C1981 C1977 1.495 . S
C1981 H1987 0.959 . S
C1981 H1988 0.961 . S
C1981 H1989 0.960 . S
C1982 C1980 1.381 . S
C1982 C1983 1.394 . S
C1982 H1990 0.930 . S
C1983 C1982 1.394 . S
C1983 C1984 1.383 . S
C1983 H1991 0.929 . S
C1984 C1983 1.383 . S
C1984 C1985 1.377 . S
C1985 H1969 0.930 . S
C1985 C1984 1.377 . S
C1985 C1986 1.379 . S
C1986 H1970 0.931 . S
C1986 C1980 1.383 . S
C1986 C1985 1.379 . S
H1987 C1981 0.959 . S
H1988 C1981 0.961 . S
H1989 C1981 0.960 . S
H1990 C1982 0.930 . S
H1991 C1983 0.929 . S
H1992 C2000 0.929 . S
H1993 C2002 0.930 . S
H1994 C2004 0.930 . S
H1995 C2007 0.929 . S
H1996 C2010 0.930 . S
H1997 C2012 0.960 . S
H1998 C2012 0.960 . S
H1999 C2012 0.960 . S
C2000 H1992 0.929 . S
C2000 C2001 1.377 . S
C2000 C2002 1.384 . S
C2001 C2000 1.377 . S
C2001 C2007 1.390 . S
C2002 H1993 0.930 . S
C2002 C2000 1.384 . S
C2002 C2003 1.372 . S
C2003 C2002 1.372 . S
C2003 C2004 1.400 . S
C2003 C2008 1.490 . S
C2004 H1994 0.930 . S
C2004 C2003 1.400 . S
C2004 C2007 1.386 . S
H2005 C2021 0.930 . S
H2006 C2022 0.931 . S
C2007 H1995 0.929 . S
C2007 C2001 1.390 . S
C2007 C2004 1.386 . S
C2008 C2003 1.490 . S
C2008 C2010 1.395 . S
C2008 C2011 1.403 . S
H2009 C2015 0.930 . S
C2010 H1996 0.930 . S
C2010 C2008 1.395 . S
C2010 C2013 1.403 . S
C2011 C2008 1.403 . S
C2011 C2012 1.524 . S
C2011 C2015 1.400 . S
C2012 H1997 0.960 . S
C2012 H1998 0.960 . S
C2012 H1999 0.960 . S
C2012 C2011 1.524 . S
C2013 C2010 1.403 . S
C2013 C2014 1.392 . S
C2013 C2017 1.495 . S
C2014 C2013 1.392 . S
C2014 C2015 1.385 . S
C2014 C2016 1.478 . S
C2015 H2009 0.930 . S
C2015 C2011 1.400 . S
C2015 C2014 1.385 . S
C2016 C2014 1.478 . S
C2016 C2018 1.381 . S
C2016 C2022 1.383 . S
C2017 C2013 1.495 . S
C2017 H2023 0.959 . S
C2017 H2024 0.961 . S
C2017 H2025 0.960 . S
C2018 C2016 1.381 . S
C2018 C2019 1.394 . S
C2018 H2026 0.930 . S
C2019 C2018 1.394 . S
C2019 C2020 1.383 . S
C2019 H2027 0.929 . S
C2020 C2019 1.383 . S
C2020 C2021 1.377 . S
C2021 H2005 0.930 . S
C2021 C2020 1.377 . S
C2021 C2022 1.379 . S
C2022 H2006 0.931 . S
C2022 C2016 1.383 . S
C2022 C2021 1.379 . S
H2023 C2017 0.959 . S
H2024 C2017 0.961 . S
H2025 C2017 0.960 . S
H2026 C2018 0.930 . S
H2027 C2019 0.929 . S
H2028 C2036 0.929 . S
H2029 C2038 0.930 . S
H2030 C2040 0.930 . S
H2031 C2043 0.929 . S
H2032 C2046 0.930 . S
H2033 C2048 0.960 . S
H2034 C2048 0.960 . S
H2035 C2048 0.960 . S
C2036 H2028 0.929 . S
C2036 C2037 1.377 . S
C2036 C2038 1.384 . S
C2037 C2036 1.377 . S
C2037 C2043 1.390 . S
C2038 H2029 0.930 . S
C2038 C2036 1.384 . S
C2038 C2039 1.372 . S
C2039 C2038 1.372 . S
C2039 C2040 1.400 . S
C2039 C2044 1.490 . S
C2040 H2030 0.930 . S
C2040 C2039 1.400 . S
C2040 C2043 1.386 . S
H2041 C2057 0.930 . S
H2042 C2058 0.931 . S
C2043 H2031 0.929 . S
C2043 C2037 1.390 . S
C2043 C2040 1.386 . S
C2044 C2039 1.490 . S
C2044 C2046 1.395 . S
C2044 C2047 1.403 . S
H2045 C2051 0.930 . S
C2046 H2032 0.930 . S
C2046 C2044 1.395 . S
C2046 C2049 1.403 . S
C2047 C2044 1.403 . S
C2047 C2048 1.524 . S
C2047 C2051 1.400 . S
C2048 H2033 0.960 . S
C2048 H2034 0.960 . S
C2048 H2035 0.960 . S
C2048 C2047 1.524 . S
C2049 C2046 1.403 . S
C2049 C2050 1.392 . S
C2049 C2053 1.495 . S
C2050 C2049 1.392 . S
C2050 C2051 1.385 . S
C2050 C2052 1.478 . S
C2051 H2045 0.930 . S
C2051 C2047 1.400 . S
C2051 C2050 1.385 . S
C2052 C2050 1.478 . S
C2052 C2054 1.381 . S
C2052 C2058 1.383 . S
C2053 C2049 1.495 . S
C2053 H2059 0.959 . S
C2053 H2060 0.961 . S
C2053 H2061 0.960 . S
C2054 C2052 1.381 . S
C2054 C2055 1.394 . S
C2054 H2062 0.930 . S
C2055 C2054 1.394 . S
C2055 C2056 1.383 . S
C2055 H2063 0.929 . S
C2056 C2055 1.383 . S
C2056 C2057 1.377 . S
C2057 H2041 0.930 . S
C2057 C2056 1.377 . S
C2057 C2058 1.379 . S
C2058 H2042 0.931 . S
C2058 C2052 1.383 . S
C2058 C2057 1.379 . S
H2059 C2053 0.959 . S
H2060 C2053 0.961 . S
H2061 C2053 0.960 . S
H2062 C2054 0.930 . S
H2063 C2055 0.929 . S
C345 C203 1.442 . S
C364 C11 1.428 . S
C381 C21 1.443 . S
C400 C221 1.437 . S
C417 C260 1.501 . S
C436 C36 1.516 . S
C453 C55 1.243 . S
C472 C195 1.246 . S
C489 C209 1.234 . S
C508 C69 1.273 . S
C525 C78 1.497 . S
C544 C218 1.470 . S
C561 C91 1.442 . S
C580 C263 1.409 . S
C597 C109 1.429 . S
C616 C189 1.437 . S
C633 C133 1.443 . S
C652 C123 1.423 . S
C669 C153 1.239 . S
C688 C139 1.235 . S
C705 C147 1.442 . S
C724 C165 1.429 . S
C741 C162 1.501 . S
C760 C120 1.485 . S
C777 C179 1.429 . S
C796 C49 1.436 . S
C813 C63 1.442 . S
C832 C235 1.438 . S
C849 C251 1.236 . S
C868 C27 1.256 . S
C885 C25 1.156 . S
C904 C307 1.132 . S
C921 C137 1.160 . S
C940 C13 1.111 . S
C957 C330 1.198 . S
C976 C50 1.158 . S
C993 C161 1.201 . S
C1012 C35 1.194 . S
C1029 C301 1.201 . S
C1048 C105 1.193 . S
C1065 C134 1.196 . S
C1084 C92 1.161 . S
C1101 C83 1.128 . S
C1120 C333 1.160 . S
C1137 C67 1.161 . S
C1156 C167 1.154 . S
C1173 C223 1.121 . S
C1192 C277 1.144 . S
C1209 C231 1.204 . S
C1228 C217 1.205 . S
C1245 C193 1.161 . S
C1264 C237 1.154 . S
C1281 C274 1.199 . S
C1300 C190 1.181 . S
C1317 C41 1.119 . S
C1336 C291 1.142 . S
C1353 C151 1.161 . S
C1372 C111 1.131 . S
C1389 C7 1.202 . S
C1408 C315 1.197 . S
C1425 C273 1.442 . S
C1444 C39 1.419 . S
C1461 C8 1.502 . S
C1480 C232 1.487 . S
C1497 C279 1.236 . S
C1516 C97 1.257 . S
C1533 C176 1.498 . S
C1552 C106 1.505 . S
C1569 C81 1.427 . S
C1588 C245 1.436 . S
C1605 C305 1.426 . S
C1624 C287 1.436 . S
C1641 C335 1.236 . S
C1660 C293 1.255 . S
C1677 C319 1.425 . S
C1696 C329 1.441 . S
C1713 C302 1.494 . S
C1732 C316 1.472 . S
C1749 C125 1.123 . S
C1768 C53 1.169 . S
C1785 C22 1.187 . S
C1804 C148 1.218 . S
C1821 C77 1.203 . S
C1840 C119 1.201 . S
C1857 C288 1.187 . S
C1876 C64 1.209 . S
C1893 C95 1.161 . S
C1912 C321 1.124 . S
C1929 C181 1.125 . S
C1948 C207 1.171 . S
C1965 C259 1.204 . S
C1984 C175 1.207 . S
C2001 C249 1.160 . S
C2020 C265 1.155 . S
C2037 C204 1.187 . S
C2056 C246 1.203 . S
