# Generated by pormake.
# Topology acs-a, (4)-cn, num edge types: 1
# Building blocks:
#     Node 0, Type 0, BuildingBlock: KUFVIS_clean_sbu_0, # of connection points: 4
#     Node 1, Type 0, BuildingBlock: KUFVIS_clean_sbu_0, # of connection points: 4
#     Node 2, Type 0, BuildingBlock: KUFVIS_clean_sbu_0, # of connection points: 4
#     Node 3, Type 0, BuildingBlock: KUFVIS_clean_sbu_0, # of connection points: 4
#     Node 4, Type 0, BuildingBlock: KUFVIS_clean_sbu_0, # of connection points: 4
#     Node 5, Type 0, BuildingBlock: KUFVIS_clean_sbu_0, # of connection points: 4
#     Node 6, Type 0, BuildingBlock: KUFVIS_clean_sbu_0, # of connection points: 4
#     Node 7, Type 0, BuildingBlock: KUFVIS_clean_sbu_0, # of connection points: 4
#     Node 8, Type 0, BuildingBlock: KUFVIS_clean_sbu_0, # of connection points: 4
#     Node 9, Type 0, BuildingBlock: KUFVIS_clean_sbu_0, # of connection points: 4
#     Node 10, Type 0, BuildingBlock: KUFVIS_clean_sbu_0, # of connection points: 4
#     Node 11, Type 0, BuildingBlock: KUFVIS_clean_sbu_0, # of connection points: 4
#     Edge 12, Type (0, 0), BuildingBlock: KIFKEQ_clean_linker_1, # of connection points: 2
#     Edge 13, Type (0, 0), BuildingBlock: KIFKEQ_clean_linker_1, # of connection points: 2
#     Edge 14, Type (0, 0), BuildingBlock: KIFKEQ_clean_linker_1, # of connection points: 2
#     Edge 15, Type (0, 0), BuildingBlock: KIFKEQ_clean_linker_1, # of connection points: 2
#     Edge 16, Type (0, 0), BuildingBlock: KIFKEQ_clean_linker_1, # of connection points: 2
#     Edge 17, Type (0, 0), BuildingBlock: KIFKEQ_clean_linker_1, # of connection points: 2
#     Edge 18, Type (0, 0), BuildingBlock: KIFKEQ_clean_linker_1, # of connection points: 2
#     Edge 19, Type (0, 0), BuildingBlock: KIFKEQ_clean_linker_1, # of connection points: 2
#     Edge 20, Type (0, 0), BuildingBlock: KIFKEQ_clean_linker_1, # of connection points: 2
#     Edge 21, Type (0, 0), BuildingBlock: KIFKEQ_clean_linker_1, # of connection points: 2
#     Edge 22, Type (0, 0), BuildingBlock: KIFKEQ_clean_linker_1, # of connection points: 2
#     Edge 23, Type (0, 0), BuildingBlock: KIFKEQ_clean_linker_1, # of connection points: 2
#     Edge 24, Type (0, 0), BuildingBlock: KIFKEQ_clean_linker_1, # of connection points: 2
#     Edge 25, Type (0, 0), BuildingBlock: KIFKEQ_clean_linker_1, # of connection points: 2
#     Edge 26, Type (0, 0), BuildingBlock: KIFKEQ_clean_linker_1, # of connection points: 2
#     Edge 27, Type (0, 0), BuildingBlock: KIFKEQ_clean_linker_1, # of connection points: 2
#     Edge 28, Type (0, 0), BuildingBlock: KIFKEQ_clean_linker_1, # of connection points: 2
#     Edge 29, Type (0, 0), BuildingBlock: KIFKEQ_clean_linker_1, # of connection points: 2
#     Edge 30, Type (0, 0), BuildingBlock: KIFKEQ_clean_linker_1, # of connection points: 2
#     Edge 31, Type (0, 0), BuildingBlock: KIFKEQ_clean_linker_1, # of connection points: 2
#     Edge 32, Type (0, 0), BuildingBlock: KIFKEQ_clean_linker_1, # of connection points: 2
#     Edge 33, Type (0, 0), BuildingBlock: KIFKEQ_clean_linker_1, # of connection points: 2
#     Edge 34, Type (0, 0), BuildingBlock: KIFKEQ_clean_linker_1, # of connection points: 2
#     Edge 35, Type (0, 0), BuildingBlock: KIFKEQ_clean_linker_1, # of connection points: 2
# Relax obj value: 0.495
# Max RMSD: 0.250
# Mean RMSD: 0.225
data_MOF--net-acs-a--node1-KUFVIS_clean_sbu_0--edge1-KIFKEQ_clean_linker_1
_symmetry_space_group_name_H-M    P1
_symmetry_Int_Tables_number       1
_symmetry_cell_setting            triclinic
loop_
_symmetry_equiv_pos_as_xyz
'x, y, z'
_cell_length_a     48.30872
_cell_length_b     48.289059
_cell_length_c     40.433526
_cell_angle_alpha  89.982209
_cell_angle_beta   90.006028
_cell_angle_gamma 113.46876
loop_
_atom_site_label
_atom_site_type_symbol
_atom_site_fract_x
_atom_site_fract_y
_atom_site_fract_z
_atom_type_partial_charge
Mn0 Mn 0.57223 0.14972 0.08585 0.0
Mn1 Mn 0.51175 0.14886 0.12841 0.0
C2 C 0.55454 0.18739 0.07803 0.0
C3 C 0.62454 0.16545 0.0807 0.0
C4 C 0.507 0.10639 0.07131 0.0
O5 O 0.56988 0.12195 0.12471 0.0
O6 O 0.5305 0.12481 0.15258 0.0
C7 C 0.54177 0.18231 0.18861 0.0
N8 N 0.52411 0.17967 0.16153 0.0
C9 C 0.51769 0.22516 0.17568 0.0
C10 C 0.53569 0.22827 0.20379 0.0
C11 C 0.54778 0.20675 0.21027 0.0
C12 C 0.51211 0.20009 0.15524 0.0
H13 H 0.55128 0.16594 0.19361 0.0
C14 C 0.55204 0.11577 0.1496 0.0
O15 O 0.60611 0.14253 0.06404 0.0
O16 O 0.61271 0.17851 0.10086 0.0
N17 N 0.4927 0.17224 0.10745 0.0
C18 C 0.47791 0.16731 0.07793 0.0
C19 C 0.46567 0.18764 0.06697 0.0
C20 C 0.46879 0.2128 0.08642 0.0
C21 C 0.48413 0.21742 0.1167 0.0
C22 C 0.49562 0.19625 0.1265 0.0
H23 H 0.47571 0.14817 0.06272 0.0
O24 O 0.56998 0.18131 0.05501 0.0
O25 O 0.54917 0.17051 0.10421 0.0
O26 O 0.53511 0.11678 0.06434 0.0
O27 O 0.49621 0.1167 0.09481 0.0
C28 C 0.48907 0.24257 0.13715 0.0
C29 C 0.50578 0.2464 0.16666 0.0
H30 H 0.54064 0.24727 0.22037 0.0
H31 H 0.56181 0.20907 0.23182 0.0
H32 H 0.45402 0.18402 0.04348 0.0
H33 H 0.45959 0.2286 0.07771 0.0
H34 H 0.48049 0.25933 0.13019 0.0
H35 H 0.50978 0.26604 0.18195 0.0
Mn36 Mn 0.37573 0.54434 0.58596 0.0
Mn37 Mn 0.32825 0.4778 0.61732 0.0
C38 C 0.32487 0.52613 0.574 0.0
C39 C 0.39927 0.59671 0.59031 0.0
C40 C 0.37245 0.48337 0.56185 0.0
O41 O 0.39947 0.53752 0.62409 0.0
O42 O 0.36507 0.49432 0.64563 0.0
C43 C 0.31211 0.49811 0.68078 0.0
N44 N 0.30363 0.48437 0.65086 0.0
C45 C 0.25166 0.47546 0.66088 0.0
C46 C 0.25983 0.48941 0.69186 0.0
C47 C 0.29018 0.50076 0.70184 0.0
C48 C 0.27443 0.47307 0.64114 0.0
H49 H 0.33545 0.50713 0.68845 0.0
C50 C 0.39098 0.5166 0.64587 0.0
O51 O 0.41047 0.58189 0.57153 0.0
O52 O 0.37539 0.581 0.60722 0.0
N53 N 0.29187 0.4607 0.59199 0.0
C54 C 0.28813 0.45 0.56041 0.0
C55 C 0.25926 0.43892 0.54612 0.0
C56 C 0.23457 0.43903 0.5644 0.0
C57 C 0.23899 0.4502 0.59684 0.0
C58 C 0.26823 0.46067 0.6099 0.0
H59 H 0.30709 0.45018 0.54614 0.0
O60 O 0.34442 0.54504 0.5541 0.0
O61 O 0.3361 0.51768 0.59931 0.0
O62 O 0.38286 0.51203 0.55918 0.0
O63 O 0.35217 0.46849 0.58278 0.0
C64 C 0.21565 0.45199 0.61645 0.0
C65 C 0.22197 0.46457 0.64847 0.0
H66 H 0.24304 0.49183 0.70802 0.0
H67 H 0.29668 0.5117 0.72564 0.0
H68 H 0.25606 0.43049 0.521 0.0
H69 H 0.21239 0.43074 0.55317 0.0
H70 H 0.19282 0.44411 0.60699 0.0
H71 H 0.20391 0.46618 0.66313 0.0
Mn72 Mn 0.86157 0.36889 0.06557 0.0
Mn73 Mn 0.88458 0.3158 0.09161 0.0
C74 C 0.83333 0.31864 0.05247 0.0
C75 C 0.83545 0.39955 0.07448 0.0
C76 C 0.91753 0.3633 0.03996 0.0
O77 O 0.8906 0.38864 0.10371 0.0
O78 O 0.89667 0.34825 0.12549 0.0
C79 C 0.84722 0.29222 0.15138 0.0
N80 N 0.85552 0.28757 0.12036 0.0
C81 C 0.81968 0.23586 0.12078 0.0
C82 C 0.81082 0.24007 0.15276 0.0
C83 C 0.82468 0.26836 0.16812 0.0
C84 C 0.84252 0.26037 0.10545 0.0
H85 H 0.85758 0.31403 0.16314 0.0
C86 C 0.89953 0.37585 0.12673 0.0
O87 O 0.85803 0.40735 0.05412 0.0
O88 O 0.82826 0.37405 0.08996 0.0
N89 N 0.87272 0.28342 0.06022 0.0
C90 C 0.88244 0.28363 0.02855 0.0
C91 C 0.87019 0.25725 0.0094 0.0
C92 C 0.84803 0.23099 0.02295 0.0
C93 C 0.83836 0.23132 0.05558 0.0
C94 C 0.85162 0.25816 0.0736 0.0
H95 H 0.8993 0.30377 0.0179 0.0
O96 O 0.83115 0.33998 0.03443 0.0
O97 O 0.85276 0.32793 0.07633 0.0
O98 O 0.8963 0.37209 0.03548 0.0
O99 O 0.91642 0.34373 0.0618 0.0
C100 C 0.81558 0.20626 0.07065 0.0
C101 C 0.80623 0.20854 0.10321 0.0
H102 H 0.79319 0.22182 0.16561 0.0
H103 H 0.81784 0.27184 0.19273 0.0
H104 H 0.8777 0.25721 0.98419 0.0
H105 H 0.83842 0.21079 0.00797 0.0
H106 H 0.80482 0.18525 0.05725 0.0
H107 H 0.78841 0.18925 0.11437 0.0
Mn108 Mn 0.43058 0.85665 0.58433 0.0
Mn109 Mn 0.48869 0.85775 0.63153 0.0
C110 C 0.44815 0.81855 0.5798 0.0
C111 C 0.37845 0.84116 0.57689 0.0
C112 C 0.49642 0.89975 0.57303 0.0
O113 O 0.43163 0.88538 0.62185 0.0
O114 O 0.46871 0.88169 0.65342 0.0
C115 C 0.45595 0.82435 0.69056 0.0
N116 N 0.47492 0.82703 0.6647 0.0
C117 C 0.48118 0.78192 0.68093 0.0
C118 C 0.46182 0.77876 0.70782 0.0
C119 C 0.44915 0.80007 0.71264 0.0
C120 C 0.48748 0.80682 0.66001 0.0
H121 H 0.44602 0.84058 0.69428 0.0
C122 C 0.44789 0.89131 0.64804 0.0
O123 O 0.39754 0.86351 0.56001 0.0
O124 O 0.38952 0.82848 0.59836 0.0
N125 N 0.5089 0.83452 0.61268 0.0
C126 C 0.52505 0.83944 0.58407 0.0
C127 C 0.53802 0.81927 0.57468 0.0
C128 C 0.53424 0.79428 0.59478 0.0
C129 C 0.51751 0.78968 0.62411 0.0
C130 C 0.50532 0.81068 0.63234 0.0
H131 H 0.5278 0.85847 0.5684 0.0
O132 O 0.43365 0.82418 0.55546 0.0
O133 O 0.45255 0.83598 0.60538 0.0
O134 O 0.46891 0.88885 0.56347 0.0
O135 O 0.50561 0.88993 0.59824 0.0
C136 C 0.51186 0.76471 0.64508 0.0
C137 C 0.49378 0.76087 0.67352 0.0
H138 H 0.45627 0.75988 0.7247 0.0
H139 H 0.43407 0.7977 0.73324 0.0
H140 H 0.55076 0.82288 0.55192 0.0
H141 H 0.54403 0.77861 0.58728 0.0
H142 H 0.52096 0.74808 0.63932 0.0
H143 H 0.48924 0.74135 0.6892 0.0
Mn144 Mn 0.62817 0.46243 0.08461 0.0
Mn145 Mn 0.67131 0.52677 0.12343 0.0
C146 C 0.67974 0.48305 0.07655 0.0
C147 C 0.60591 0.40983 0.08483 0.0
C148 C 0.62985 0.52398 0.06592 0.0
O149 O 0.60136 0.46536 0.12184 0.0
O150 O 0.63351 0.50629 0.14933 0.0
C151 C 0.68632 0.50293 0.18526 0.0
N152 N 0.69543 0.51907 0.15675 0.0
C153 C 0.74754 0.53 0.16867 0.0
C154 C 0.73873 0.51355 0.19819 0.0
C155 C 0.70799 0.49999 0.20652 0.0
C156 C 0.72498 0.53253 0.14868 0.0
H157 H 0.6627 0.49225 0.19164 0.0
C158 C 0.60802 0.48372 0.14619 0.0
O159 O 0.59528 0.42528 0.06621 0.0
O160 O 0.6286 0.42498 0.10361 0.0
N161 N 0.70852 0.54748 0.10042 0.0
C162 C 0.71303 0.56058 0.06994 0.0
C163 C 0.74247 0.57415 0.05727 0.0
C164 C 0.76691 0.57402 0.076 0.0
C165 C 0.76169 0.56032 0.10727 0.0
C166 C 0.7319 0.54741 0.11874 0.0
H167 H 0.69429 0.56046 0.0553 0.0
O168 O 0.66192 0.46521 0.05451 0.0
O169 O 0.66639 0.48901 0.10176 0.0
O170 O 0.62157 0.49598 0.05954 0.0
O171 O 0.64773 0.53739 0.08953 0.0
C172 C 0.78481 0.55841 0.12718 0.0
C173 C 0.77775 0.5433 0.15788 0.0
H174 H 0.75533 0.51093 0.21447 0.0
H175 H 0.701 0.48715 0.22919 0.0
H176 H 0.7463 0.58452 0.03304 0.0
H177 H 0.78955 0.58427 0.06601 0.0
H178 H 0.80806 0.56816 0.11893 0.0
H179 H 0.79567 0.54165 0.17276 0.0
Mn180 Mn 0.14137 0.63939 0.56355 0.0
Mn181 Mn 0.11784 0.69191 0.5899 0.0
C182 C 0.16879 0.68963 0.54962 0.0
C183 C 0.16834 0.60945 0.57165 0.0
C184 C 0.08411 0.64315 0.53981 0.0
O185 O 0.11348 0.61985 0.6027 0.0
O186 O 0.10753 0.66027 0.62459 0.0
C187 C 0.15663 0.71762 0.64819 0.0
N188 N 0.14736 0.72123 0.61728 0.0
C189 C 0.1825 0.7732 0.61562 0.0
C190 C 0.19239 0.77005 0.64746 0.0
C191 C 0.17936 0.74215 0.66382 0.0
C192 C 0.15952 0.74807 0.60144 0.0
H193 H 0.14691 0.69612 0.66072 0.0
C194 C 0.10514 0.63282 0.62605 0.0
O195 O 0.14521 0.60114 0.55202 0.0
O196 O 0.17557 0.63503 0.58696 0.0
N197 N 0.12812 0.72348 0.55759 0.0
C198 C 0.11737 0.72229 0.52624 0.0
C199 C 0.12867 0.74816 0.50621 0.0
C200 C 0.15097 0.77495 0.51854 0.0
C201 C 0.16171 0.77564 0.55087 0.0
C202 C 0.14936 0.74925 0.56982 0.0
H203 H 0.1004 0.70174 0.51651 0.0
O204 O 0.17078 0.66826 0.53149 0.0
O205 O 0.14985 0.68033 0.57394 0.0
O206 O 0.10578 0.63522 0.53441 0.0
O207 O 0.08535 0.66278 0.56161 0.0
C208 C 0.18466 0.8013 0.56476 0.0
C209 C 0.19505 0.80008 0.59711 0.0
H210 H 0.21017 0.78881 0.65944 0.0
H211 H 0.18697 0.7395 0.68833 0.0
H212 H 0.12033 0.74742 0.48124 0.0
H213 H 0.15984 0.79477 0.50288 0.0
H214 H 0.19471 0.82199 0.55064 0.0
H215 H 0.21296 0.81983 0.60737 0.0
Mn216 Mn 0.85455 0.43282 0.41246 0.0
Mn217 Mn 0.85501 0.49158 0.3668 0.0
C218 C 0.8166 0.45037 0.41858 0.0
C219 C 0.83902 0.38053 0.41894 0.0
C220 C 0.89767 0.49857 0.42445 0.0
O221 O 0.88284 0.43446 0.37425 0.0
O222 O 0.87882 0.47202 0.34382 0.0
C223 C 0.82105 0.45957 0.30772 0.0
N224 N 0.82394 0.47816 0.33401 0.0
C225 C 0.77863 0.48454 0.31896 0.0
C226 C 0.77525 0.46558 0.29165 0.0
C227 C 0.79655 0.45304 0.28602 0.0
C228 C 0.80374 0.49059 0.33948 0.0
H229 H 0.83727 0.44975 0.30338 0.0
C230 C 0.88855 0.45116 0.34841 0.0
O231 O 0.86162 0.39937 0.43571 0.0
O232 O 0.82617 0.39195 0.39806 0.0
N233 N 0.83192 0.51145 0.38667 0.0
C234 C 0.83713 0.52726 0.41554 0.0
C235 C 0.81703 0.54005 0.4257 0.0
C236 C 0.79182 0.53647 0.4061 0.0
C237 C 0.78693 0.52011 0.37648 0.0
C238 C 0.80786 0.50807 0.36749 0.0
H239 H 0.85633 0.52986 0.43083 0.0
O240 O 0.82256 0.4355 0.44232 0.0
O241 O 0.8336 0.45508 0.39257 0.0
O242 O 0.88699 0.47089 0.43349 0.0
O243 O 0.88751 0.50811 0.39977 0.0
C244 C 0.76174 0.51469 0.35593 0.0
C245 C 0.75764 0.49699 0.32715 0.0
H246 H 0.75622 0.46024 0.27504 0.0
H247 H 0.79402 0.43827 0.26508 0.0
H248 H 0.82086 0.55252 0.44868 0.0
H249 H 0.77621 0.54614 0.41419 0.0
H250 H 0.74516 0.52369 0.36228 0.0
H251 H 0.73798 0.49265 0.31178 0.0
Mn252 Mn 0.36613 0.85765 0.93091 0.0
Mn253 Mn 0.31451 0.88458 0.90988 0.0
C254 C 0.31636 0.83217 0.94746 0.0
C255 C 0.39311 0.82813 0.92016 0.0
C256 C 0.36564 0.91563 0.9585 0.0
O257 O 0.38493 0.88535 0.89164 0.0
O258 O 0.34564 0.89594 0.87438 0.0
C259 C 0.28733 0.84883 0.85002 0.0
N260 N 0.2844 0.85686 0.8817 0.0
C261 C 0.23207 0.82274 0.88312 0.0
C262 C 0.23452 0.81416 0.85049 0.0
C263 C 0.26226 0.8273 0.83386 0.0
C264 C 0.25773 0.84459 0.89782 0.0
H265 H 0.3087 0.85862 0.83726 0.0
C266 C 0.37226 0.89642 0.87061 0.0
O267 O 0.40366 0.85138 0.93959 0.0
O268 O 0.36715 0.82245 0.90632 0.0
N269 N 0.28344 0.87353 0.94277 0.0
C270 C 0.28535 0.8828 0.97482 0.0
C271 C 0.25973 0.87113 0.99518 0.0
C272 C 0.23247 0.84996 0.98244 0.0
C273 C 0.23105 0.8407 0.9494 0.0
C274 C 0.25722 0.85338 0.93017 0.0
H275 H 0.30631 0.89884 0.98485 0.0
O276 O 0.33801 0.82914 0.96411 0.0
O277 O 0.32519 0.85122 0.92318 0.0
O278 O 0.37388 0.89379 0.96057 0.0
O279 O 0.34439 0.91513 0.93934 0.0
C280 C 0.20488 0.8189 0.93501 0.0
C281 C 0.20539 0.80992 0.90189 0.0
H282 H 0.21533 0.79729 0.83807 0.0
H283 H 0.26436 0.82069 0.80873 0.0
H284 H 0.26104 0.87829 0.02071 0.0
H285 H 0.21284 0.84078 0.99833 0.0
H286 H 0.18434 0.80862 0.94931 0.0
H287 H 0.18523 0.79287 0.89124 0.0
Mn288 Mn 0.54206 0.37737 0.41674 0.0
Mn289 Mn 0.47628 0.3321 0.38206 0.0
C290 C 0.52229 0.32615 0.42727 0.0
C291 C 0.59455 0.39997 0.41405 0.0
C292 C 0.48104 0.37559 0.43813 0.0
O293 O 0.53732 0.40242 0.37875 0.0
O294 O 0.49507 0.36914 0.35436 0.0
C295 C 0.49783 0.31559 0.31957 0.0
N296 N 0.483 0.3072 0.34894 0.0
C297 C 0.47255 0.2549 0.33869 0.0
C298 C 0.48763 0.26297 0.3083 0.0
C299 C 0.5003 0.29344 0.2987 0.0
C300 C 0.47042 0.2779 0.35825 0.0
H301 H 0.50783 0.33901 0.3122 0.0
C302 C 0.51774 0.39476 0.35556 0.0
O303 O 0.57966 0.4112 0.43271 0.0
O304 O 0.57888 0.37647 0.39658 0.0
N305 N 0.45716 0.29555 0.40675 0.0
C306 C 0.44539 0.29183 0.43786 0.0
C307 C 0.43288 0.2628 0.45175 0.0
C308 C 0.43269 0.23793 0.43358 0.0
C309 C 0.44501 0.24233 0.40164 0.0
C310 C 0.4569 0.27175 0.38896 0.0
H311 H 0.44577 0.31091 0.45206 0.0
O312 O 0.54081 0.34493 0.44811 0.0
O313 O 0.51511 0.33838 0.40189 0.0
O314 O 0.50944 0.38486 0.44251 0.0
O315 O 0.46669 0.35631 0.41604 0.0
C316 C 0.44654 0.21877 0.3822 0.0
C317 C 0.46026 0.22504 0.35073 0.0
H318 H 0.48991 0.246 0.2923 0.0
H319 H 0.5121 0.29986 0.27535 0.0
H320 H 0.42357 0.25961 0.47649 0.0
H321 H 0.42328 0.21561 0.44452 0.0
H322 H 0.43756 0.1958 0.39138 0.0
H323 H 0.46164 0.2068 0.33619 0.0
Mn324 Mn 0.14824 0.57138 0.91431 0.0
Mn325 Mn 0.1483 0.51368 0.86717 0.0
C326 C 0.18452 0.55188 0.92211 0.0
C327 C 0.16423 0.6234 0.92258 0.0
C328 C 0.10353 0.50569 0.92282 0.0
O329 O 0.12194 0.57185 0.87487 0.0
O330 O 0.12639 0.53495 0.84377 0.0
C331 C 0.18619 0.54853 0.81164 0.0
N332 N 0.18123 0.5282 0.83665 0.0
C333 C 0.22686 0.52159 0.82377 0.0
C334 C 0.23235 0.54231 0.79775 0.0
C335 C 0.21195 0.55587 0.7917 0.0
C336 C 0.2007 0.51501 0.84267 0.0
H337 H 0.17065 0.55912 0.80698 0.0
C338 C 0.117 0.55602 0.84843 0.0
O339 O 0.14069 0.60435 0.93784 0.0
O340 O 0.17793 0.61241 0.90227 0.0
N341 N 0.16945 0.49184 0.88714 0.0
C342 C 0.16171 0.47359 0.91427 0.0
C343 C 0.18027 0.45895 0.92428 0.0
C344 C 0.20651 0.46315 0.90628 0.0
C345 C 0.21392 0.48191 0.87833 0.0
C346 C 0.19442 0.49569 0.86935 0.0
H347 H 0.14162 0.47036 0.92826 0.0
O348 O 0.17838 0.56678 0.94567 0.0
O349 O 0.16908 0.54878 0.89513 0.0
O350 O 0.11444 0.53307 0.93285 0.0
O351 O 0.1141 0.49648 0.89817 0.0
C352 C 0.24017 0.48789 0.85939 0.0
C353 C 0.24662 0.5077 0.83212 0.0
H354 H 0.25229 0.54817 0.78245 0.0
H355 H 0.21611 0.57199 0.77177 0.0
H356 H 0.17443 0.44457 0.94592 0.0
H357 H 0.22092 0.45205 0.91427 0.0
H358 H 0.25574 0.47766 0.86584 0.0
H359 H 0.26705 0.51241 0.818 0.0
Mn360 Mn 0.63621 0.14334 0.43433 0.0
Mn361 Mn 0.68831 0.11988 0.40641 0.0
C362 C 0.68669 0.17099 0.44695 0.0
C363 C 0.60596 0.1701 0.42706 0.0
C364 C 0.64084 0.08636 0.45786 0.0
O365 O 0.61581 0.11509 0.39574 0.0
O366 O 0.6557 0.10889 0.3728 0.0
C367 C 0.71213 0.15815 0.3473 0.0
N368 N 0.7167 0.14922 0.37805 0.0
C369 C 0.7686 0.18458 0.37789 0.0
C370 C 0.76446 0.19411 0.3462 0.0
C371 C 0.73611 0.1808 0.33084 0.0
C372 C 0.74396 0.16167 0.39293 0.0
H373 H 0.69029 0.14822 0.33555 0.0
C374 C 0.62819 0.10634 0.37217 0.0
O375 O 0.59816 0.14714 0.4469 0.0
O376 O 0.63122 0.17731 0.41112 0.0
N377 N 0.72077 0.13071 0.43762 0.0
C378 C 0.72052 0.12034 0.469 0.0
C379 C 0.74694 0.13197 0.48813 0.0
C380 C 0.77329 0.1542 0.47486 0.0
C381 C 0.77301 0.16456 0.44252 0.0
C382 C 0.74611 0.15188 0.42449 0.0
H383 H 0.70029 0.10343 0.47945 0.0
O384 O 0.66569 0.17303 0.46565 0.0
O385 O 0.67694 0.15191 0.42279 0.0
O386 O 0.6328 0.10793 0.46346 0.0
O387 O 0.66012 0.0876 0.43564 0.0
C388 C 0.79818 0.18743 0.42774 0.0
C389 C 0.79597 0.19744 0.39545 0.0
H390 H 0.7828 0.21183 0.33358 0.0
H391 H 0.7327 0.18814 0.30645 0.0
H392 H 0.74694 0.12394 0.51312 0.0
H393 H 0.79354 0.16333 0.48982 0.0
H394 H 0.81925 0.19773 0.44114 0.0
H395 H 0.81536 0.21531 0.38452 0.0
Mn396 Mn 0.45061 0.61037 0.91875 0.0
Mn397 Mn 0.51197 0.6584 0.8787 0.0
C398 C 0.46476 0.66179 0.92407 0.0
C399 C 0.399 0.58129 0.91854 0.0
C400 C 0.51463 0.62123 0.93834 0.0
O401 O 0.45814 0.58424 0.88345 0.0
O402 O 0.49536 0.61959 0.85403 0.0
C403 C 0.48506 0.66799 0.81624 0.0
N404 N 0.5009 0.67935 0.84448 0.0
C405 C 0.50602 0.72964 0.83065 0.0
C406 C 0.48987 0.7185 0.80136 0.0
C407 C 0.47937 0.68754 0.79413 0.0
C408 C 0.5114 0.70915 0.85151 0.0
H409 H 0.47672 0.64417 0.81071 0.0
C410 C 0.47577 0.59252 0.85845 0.0
O411 O 0.41671 0.57527 0.93884 0.0
O412 O 0.41127 0.60364 0.89829 0.0
N413 N 0.52886 0.69668 0.90061 0.0
C414 C 0.54186 0.70335 0.93109 0.0
C415 C 0.55238 0.73316 0.94279 0.0
C416 C 0.54936 0.75576 0.92309 0.0
C417 C 0.53585 0.74834 0.89183 0.0
C418 C 0.52607 0.71831 0.88133 0.0
H419 H 0.54396 0.68601 0.94647 0.0
O420 O 0.44798 0.64352 0.94646 0.0
O421 O 0.47303 0.64919 0.89985 0.0
O422 O 0.48659 0.61059 0.94533 0.0
O423 O 0.52605 0.63835 0.91352 0.0
C424 C 0.53104 0.76942 0.87103 0.0
C425 C 0.5162 0.7601 0.84043 0.0
H426 H 0.48511 0.73344 0.78443 0.0
H427 H 0.46675 0.67875 0.77166 0.0
H428 H 0.56262 0.73867 0.96703 0.0
H429 H 0.5572 0.77866 0.93236 0.0
H430 H 0.5383 0.79279 0.87853 0.0
H431 H 0.51226 0.77643 0.82487 0.0
H432 H 0.57622 0.11177 0.35315 0.0
H433 H 0.6421 0.07822 0.31979 0.0
H434 H 0.55451 0.10452 0.29815 0.0
H435 H 0.61964 0.06994 0.26482 0.0
H436 H 0.60609 0.11402 0.16654 0.0
H437 H 0.62047 0.10271 0.22081 0.0
H438 H 0.52802 0.0734 0.25376 0.0
H439 H 0.51389 0.08586 0.19971 0.0
C440 C 0.58554 0.10198 0.33435 0.0
C441 C 0.61121 0.09601 0.34085 0.0
C442 C 0.57295 0.09765 0.30268 0.0
C443 C 0.58551 0.08694 0.27677 0.0
C444 C 0.60978 0.07884 0.28394 0.0
C445 C 0.62255 0.08343 0.31556 0.0
C446 C 0.58865 0.10434 0.18504 0.0
C447 C 0.55894 0.1013 0.17895 0.0
C448 C 0.59689 0.09776 0.21628 0.0
C449 C 0.57552 0.08767 0.24201 0.0
C450 C 0.54523 0.08192 0.23485 0.0
C451 C 0.53708 0.08883 0.20376 0.0
H452 H 0.44292 0.56483 0.66128 0.0
H453 H 0.38404 0.4762 0.69619 0.0
H454 H 0.4692 0.57506 0.71357 0.0
H455 H 0.41136 0.48605 0.74847 0.0
H456 H 0.51392 0.59474 0.80758 0.0
H457 H 0.49981 0.56796 0.75513 0.0
H458 H 0.41027 0.51673 0.79343 0.0
H459 H 0.42478 0.54238 0.84599 0.0
C460 C 0.43611 0.54712 0.67976 0.0
C461 C 0.41086 0.51997 0.67478 0.0
C462 C 0.45147 0.55289 0.70982 0.0
C463 C 0.44217 0.53153 0.73556 0.0
C464 C 0.41869 0.50326 0.72945 0.0
C465 C 0.40308 0.49758 0.69942 0.0
C466 C 0.49153 0.57706 0.80507 0.0
C467 C 0.47025 0.57116 0.83064 0.0
C468 C 0.48338 0.56182 0.77495 0.0
C469 C 0.45364 0.54079 0.76966 0.0
C470 C 0.43341 0.53268 0.79648 0.0
C471 C 0.4417 0.54757 0.82674 0.0
H472 H 0.89685 0.42905 0.14595 0.0
H473 H 0.92561 0.35968 0.17945 0.0
H474 H 0.90403 0.45011 0.2012 0.0
H475 H 0.93379 0.38147 0.23476 0.0
H476 H 0.92156 0.48919 0.29991 0.0
H477 H 0.93493 0.47491 0.24639 0.0
H478 H 0.90056 0.3817 0.27802 0.0
H479 H 0.88838 0.39626 0.33189 0.0
C480 C 0.90559 0.41879 0.16484 0.0
C481 C 0.91019 0.39237 0.15827 0.0
C482 C 0.9099 0.43102 0.19667 0.0
C483 C 0.91919 0.41731 0.2227 0.0
C484 C 0.92602 0.39224 0.21551 0.0
C485 C 0.92149 0.37986 0.1837 0.0
C486 C 0.91772 0.46578 0.29571 0.0
C487 C 0.90358 0.44378 0.31994 0.0
C488 C 0.92515 0.45754 0.26493 0.0
C489 C 0.91818 0.42705 0.25749 0.0
C490 C 0.90645 0.40543 0.2828 0.0
C491 C 0.8994 0.41376 0.31379 0.0
H492 H 0.42588 0.89589 0.84955 0.0
H493 H 0.35353 0.92128 0.81857 0.0
H494 H 0.44635 0.9048 0.79408 0.0
H495 H 0.37471 0.93115 0.76297 0.0
H496 H 0.48511 0.92603 0.69605 0.0
H497 H 0.46991 0.93791 0.74983 0.0
H498 H 0.37665 0.89942 0.71847 0.0
H499 H 0.39209 0.88872 0.66433 0.0
C500 C 0.41473 0.90414 0.83115 0.0
C501 C 0.38777 0.90741 0.83856 0.0
C502 C 0.42665 0.90951 0.79921 0.0
C503 C 0.41209 0.91853 0.77383 0.0
C504 C 0.38623 0.92375 0.78175 0.0
C505 C 0.37419 0.91824 0.81373 0.0
C506 C 0.46147 0.92105 0.70034 0.0
C507 C 0.43975 0.90611 0.67616 0.0
C508 C 0.45271 0.9276 0.73126 0.0
C509 C 0.42198 0.91889 0.73887 0.0
C510 C 0.40053 0.90657 0.71355 0.0
C511 C 0.40937 0.90041 0.68241 0.0
H512 H 0.56721 0.44685 0.34424 0.0
H513 H 0.48183 0.38877 0.3011 0.0
H514 H 0.58219 0.47353 0.29243 0.0
H515 H 0.49646 0.41654 0.24926 0.0
H516 H 0.60826 0.52004 0.19836 0.0
H517 H 0.57889 0.50471 0.24912 0.0
H518 H 0.53089 0.41551 0.2083 0.0
H519 H 0.55914 0.43114 0.15739 0.0
C520 C 0.55119 0.44031 0.32399 0.0
C521 C 0.52359 0.41513 0.32665 0.0
C522 C 0.55973 0.45589 0.29419 0.0
C523 C 0.54074 0.44691 0.26637 0.0
C524 C 0.51193 0.42357 0.26996 0.0
C525 C 0.50348 0.40774 0.29976 0.0
C526 C 0.5909 0.49738 0.19997 0.0
C527 C 0.58647 0.47664 0.17408 0.0
C528 C 0.57414 0.48856 0.22912 0.0
C529 C 0.55292 0.45869 0.23313 0.0
C530 C 0.54682 0.43877 0.20614 0.0
C531 C 0.56328 0.44769 0.17689 0.0
H532 H 0.10843 0.57981 0.64509 0.0
H533 H 0.08115 0.64978 0.67998 0.0
H534 H 0.10253 0.55903 0.70047 0.0
H535 H 0.07433 0.62832 0.73542 0.0
H536 H 0.08412 0.51909 0.79923 0.0
H537 H 0.0716 0.5343 0.74577 0.0
H538 H 0.1079 0.6273 0.77819 0.0
H539 H 0.11929 0.61181 0.83207 0.0
C540 C 0.10033 0.59029 0.66435 0.0
C541 C 0.09565 0.61672 0.65804 0.0
C542 C 0.09678 0.57825 0.69625 0.0
C543 C 0.0882 0.59214 0.72264 0.0
C544 C 0.08153 0.61738 0.71586 0.0
C545 C 0.08526 0.62956 0.68397 0.0
C546 C 0.08864 0.54269 0.7952 0.0
C547 C 0.10298 0.56431 0.81969 0.0
C548 C 0.0817 0.55145 0.76445 0.0
C549 C 0.08935 0.58211 0.7573 0.0
C550 C 0.10149 0.60346 0.78278 0.0
C551 C 0.10807 0.59461 0.81375 0.0
H552 H 0.44531 0.08528 0.06969 0.0
H553 H 0.52007 0.0681 0.03007 0.0
H554 H 0.40992 0.03985 0.04258 0.0
H555 H 0.48454 0.02273 0.00288 0.0
H556 H 0.35825 0.96943 0.96071 0.0
H557 H 0.39201 0.01684 0.98637 0.0
H558 H 0.44792 0.97276 0.02327 0.0
H559 H 0.41461 0.92575 0.99798 0.0
C560 C 0.45425 0.07197 0.055 0.0
C561 C 0.48563 0.08028 0.0523 0.0
C562 C 0.4339 0.04601 0.03932 0.0
C563 C 0.44441 0.02755 0.02085 0.0
C564 C 0.47575 0.03628 0.01735 0.0
C565 C 0.49612 0.06241 0.03275 0.0
C566 C 0.37755 0.96977 0.9746 0.0
C567 C 0.38366 0.94368 0.97706 0.0
C568 C 0.3969 0.99695 0.98926 0.0
C569 C 0.4229 0.99864 0.00639 0.0
C570 C 0.42845 0.97237 0.00966 0.0
C571 C 0.40909 0.94528 0.99534 0.0
H572 H 0.35399 0.42209 0.55588 0.0
H573 H 0.422 0.50676 0.5217 0.0
H574 H 0.37964 0.39486 0.52682 0.0
H575 H 0.44727 0.4794 0.49244 0.0
H576 H 0.50379 0.42385 0.48015 0.0
H577 H 0.47614 0.44903 0.50911 0.0
H578 H 0.39229 0.38398 0.46993 0.0
H579 H 0.41979 0.35844 0.44118 0.0
C580 C 0.3742 0.4349 0.54192 0.0
C581 C 0.38602 0.46666 0.54133 0.0
C582 C 0.38882 0.41926 0.52521 0.0
C583 C 0.41563 0.43503 0.50771 0.0
C584 C 0.42693 0.46669 0.50625 0.0
C585 C 0.41226 0.48233 0.52278 0.0
C586 C 0.47944 0.41468 0.47792 0.0
C587 C 0.46405 0.38919 0.45817 0.0
C588 C 0.46364 0.42929 0.49429 0.0
C589 C 0.43211 0.41867 0.49143 0.0
C590 C 0.41659 0.39262 0.47263 0.0
C591 C 0.43239 0.37808 0.45609 0.0
H592 H 0.0626 0.45262 0.8982 0.0
H593 H 0.08458 0.50745 0.98658 0.0
H594 H 0.01873 0.41532 0.92595 0.0
H595 H 0.04072 0.46962 0.01451 0.0
H596 H 0.9756 0.37809 0.06043 0.0
H597 H 0.02186 0.41161 0.0323 0.0
H598 H 0.96898 0.41791 0.94886 0.0
H599 H 0.92283 0.38507 0.97713 0.0
C600 C 0.05821 0.45665 0.92363 0.0
C601 C 0.07707 0.48311 0.94015 0.0
C602 C 0.03304 0.43528 0.93945 0.0
C603 C 0.02644 0.43954 0.97237 0.0
C604 C 0.0455 0.46568 0.98918 0.0
C605 C 0.07042 0.48741 0.97312 0.0
C606 C 0.97397 0.38615 0.03581 0.0
C607 C 0.94564 0.37892 0.02091 0.0
C608 C 0.00036 0.40556 0.01992 0.0
C609 C 0.99891 0.41747 0.98854 0.0
C610 C 0.97073 0.40899 0.973 0.0
C611 C 0.94435 0.39019 0.98915 0.0
H612 H 0.61959 0.07969 0.52095 0.0
H613 H 0.62394 0.02865 0.43492 0.0
H614 H 0.58589 0.03319 0.54793 0.0
H615 H 0.58954 0.98201 0.46181 0.0
H616 H 0.49383 0.91937 0.50944 0.0
H617 H 0.53178 0.96318 0.48133 0.0
H618 H 0.58802 0.9828 0.56833 0.0
H619 H 0.55076 0.93921 0.59619 0.0
C620 C 0.6137 0.05845 0.50803 0.0
C621 C 0.62457 0.05777 0.47593 0.0
C622 C 0.59437 0.03186 0.52343 0.0
C623 C 0.58494 0.00406 0.50683 0.0
C624 C 0.59631 0.0032 0.47502 0.0
C625 C 0.61625 0.02979 0.45985 0.0
C626 C 0.51435 0.93296 0.52247 0.0
C627 C 0.51916 0.92575 0.55509 0.0
C628 C 0.53613 0.95787 0.50631 0.0
C629 C 0.56282 0.97633 0.5227 0.0
C630 C 0.56764 0.96903 0.55516 0.0
C631 C 0.54625 0.94395 0.57104 0.0
H632 H 0.50656 0.60102 0.00232 0.0
H633 H 0.5676 0.61862 0.91929 0.0
H634 H 0.53756 0.58029 0.03324 0.0
H635 H 0.59803 0.59733 0.95005 0.0
H636 H 0.60801 0.5132 0.00274 0.0
H637 H 0.58268 0.54025 0.97224 0.0
H638 H 0.59538 0.6005 0.05497 0.0
H639 H 0.62128 0.57401 0.08531 0.0
C640 C 0.52669 0.60071 0.99082 0.0
C641 C 0.53465 0.61143 0.9584 0.0
C642 C 0.54441 0.58896 0.00851 0.0
C643 C 0.56999 0.58718 0.99384 0.0
C644 C 0.5783 0.59839 0.96174 0.0
C645 C 0.56098 0.61071 0.9443 0.0
C646 C 0.60568 0.53242 0.01426 0.0
C647 C 0.61662 0.54151 0.04637 0.0
C648 C 0.59132 0.54791 0.99679 0.0
C649 C 0.58712 0.57232 0.01142 0.0
C650 C 0.59833 0.58166 0.04331 0.0
C651 C 0.61326 0.5666 0.0605 0.0
H652 H 0.9174 0.49552 0.48787 0.0
H653 H 0.93721 0.55294 0.40149 0.0
H654 H 0.9612 0.53334 0.51612 0.0
H655 H 0.98081 0.59007 0.42947 0.0
H656 H 0.07761 0.62157 0.4769 0.0
H657 H 0.03123 0.58769 0.4499 0.0
H658 H 0.97982 0.59132 0.53583 0.0
H659 H 0.02636 0.62594 0.56273 0.0
C660 C 0.93101 0.51612 0.47494 0.0
C661 C 0.92378 0.52113 0.4424 0.0
C662 C 0.9559 0.53782 0.49118 0.0
C663 C 0.97433 0.56462 0.47494 0.0
C664 C 0.96705 0.56961 0.44253 0.0
C665 C 0.94198 0.54829 0.42658 0.0
C666 C 0.05635 0.61561 0.48979 0.0
C667 C 0.05557 0.62657 0.52182 0.0
C668 C 0.02983 0.59618 0.47437 0.0
C669 C 0.002 0.58672 0.4909 0.0
C670 C 0.00104 0.59812 0.52267 0.0
C671 C 0.02757 0.61817 0.53786 0.0
H672 H 0.57232 0.22516 0.12976 0.0
H673 H 0.54046 0.21929 0.02937 0.0
H674 H 0.57841 0.2773 0.13279 0.0
H675 H 0.54915 0.27303 0.03114 0.0
H676 H 0.55437 0.36927 0.05472 0.0
H677 H 0.53682 0.31398 0.05376 0.0
H678 H 0.61528 0.32104 0.11038 0.0
H679 H 0.63179 0.37513 0.11244 0.0
C680 C 0.56591 0.23495 0.10853 0.0
C681 C 0.55486 0.21796 0.07977 0.0
C682 C 0.57004 0.26509 0.10997 0.0
C683 C 0.56477 0.27961 0.08203 0.0
C684 C 0.55315 0.26248 0.05323 0.0
C685 C 0.54836 0.23185 0.05208 0.0
C686 C 0.56758 0.35879 0.06716 0.0
C687 C 0.59427 0.37652 0.08395 0.0
C688 C 0.55764 0.32721 0.06647 0.0
C689 C 0.57437 0.31297 0.08242 0.0
C690 C 0.60123 0.33098 0.0987 0.0
C691 C 0.61088 0.36219 0.09969 0.0
H692 H 0.29835 0.53664 0.62833 0.0
H693 H 0.2857 0.52089 0.52338 0.0
H694 H 0.25456 0.54921 0.63076 0.0
H695 H 0.24276 0.53572 0.52517 0.0
H696 H 0.15949 0.55587 0.54143 0.0
H697 H 0.19193 0.5279 0.54435 0.0
H698 H 0.25096 0.59468 0.61196 0.0
H699 H 0.2184 0.62207 0.60961 0.0
C700 C 0.28538 0.53465 0.60596 0.0
C701 C 0.29477 0.52683 0.57584 0.0
C702 C 0.26067 0.54254 0.60721 0.0
C703 C 0.24548 0.54399 0.57809 0.0
C704 C 0.25383 0.53459 0.54811 0.0
C705 C 0.27841 0.52619 0.547 0.0
C706 C 0.17922 0.56431 0.55724 0.0
C707 C 0.18649 0.59122 0.57523 0.0
C708 C 0.19782 0.54834 0.55879 0.0
C709 C 0.22395 0.55896 0.57845 0.0
C710 C 0.23069 0.58549 0.59706 0.0
C711 C 0.21215 0.60138 0.59552 0.0
H712 H 0.79908 0.29999 0.10658 0.0
H713 H 0.80631 0.27424 0.00601 0.0
H714 H 0.75127 0.25764 0.1126 0.0
H715 H 0.75858 0.22992 0.01226 0.0
H716 H 0.65391 0.18342 0.02221 0.0
H717 H 0.70709 0.21592 0.01456 0.0
H718 H 0.72258 0.20799 0.11894 0.0
H719 H 0.66885 0.17797 0.12657 0.0
C720 C 0.79072 0.28449 0.08601 0.0
C721 C 0.80654 0.29007 0.05602 0.0
C722 C 0.76321 0.25988 0.08946 0.0
C723 C 0.75064 0.23977 0.06303 0.0
C724 C 0.76709 0.24496 0.03311 0.0
C725 C 0.79456 0.27018 0.02949 0.0
C726 C 0.66895 0.18826 0.04329 0.0
C727 C 0.65741 0.17847 0.07499 0.0
C728 C 0.69958 0.20686 0.03897 0.0
C729 C 0.71944 0.21548 0.06624 0.0
C730 C 0.70804 0.20308 0.09746 0.0
C731 C 0.67728 0.18544 0.10189 0.0
H732 H 0.42811 0.78143 0.63185 0.0
H733 H 0.46487 0.7863 0.53387 0.0
H734 H 0.42302 0.72974 0.63723 0.0
H735 H 0.45701 0.7329 0.53771 0.0
H736 H 0.45176 0.63788 0.5626 0.0
H737 H 0.46874 0.69305 0.56171 0.0
H738 H 0.38877 0.68483 0.61614 0.0
H739 H 0.37298 0.63087 0.61839 0.0
C740 C 0.43574 0.7715 0.61167 0.0
C741 C 0.44798 0.78812 0.58298 0.0
C742 C 0.43217 0.74157 0.6144 0.0
C743 C 0.43912 0.72682 0.58771 0.0
C744 C 0.45175 0.74359 0.55893 0.0
C745 C 0.45604 0.77403 0.55656 0.0
C746 C 0.43818 0.6481 0.57474 0.0
C747 C 0.41117 0.63005 0.59079 0.0
C748 C 0.44776 0.67963 0.57404 0.0
C749 C 0.43033 0.69356 0.58913 0.0
C750 C 0.40336 0.67524 0.60509 0.0
C751 C 0.39411 0.64406 0.60618 0.0
H752 H 0.70418 0.47038 0.13139 0.0
H753 H 0.72173 0.4923 0.02805 0.0
H754 H 0.74828 0.45848 0.13483 0.0
H755 H 0.76474 0.4777 0.03053 0.0
H756 H 0.84572 0.45439 0.04636 0.0
H757 H 0.81401 0.48306 0.05026 0.0
H758 H 0.7531 0.41457 0.11501 0.0
H759 H 0.78505 0.38665 0.11187 0.0
C760 C 0.71832 0.47398 0.10971 0.0
C761 C 0.71018 0.48331 0.07973 0.0
C762 C 0.7432 0.46636 0.11144 0.0
C763 C 0.75971 0.46649 0.08282 0.0
C764 C 0.75268 0.47755 0.05314 0.0
C765 C 0.72803 0.48583 0.05162 0.0
C766 C 0.82575 0.44574 0.06178 0.0
C767 C 0.81779 0.4182 0.07872 0.0
C768 C 0.80755 0.46211 0.0639 0.0
C769 C 0.78105 0.45123 0.08301 0.0
C770 C 0.77366 0.42406 0.10061 0.0
C771 C 0.79185 0.40782 0.09859 0.0
H772 H 0.19611 0.73323 0.50234 0.0
H773 H 0.20316 0.70905 0.60359 0.0
H774 H 0.24432 0.77718 0.50782 0.0
H775 H 0.25123 0.75116 0.60896 0.0
H776 H 0.34944 0.82203 0.51823 0.0
H777 H 0.29602 0.79009 0.51055 0.0
H778 H 0.28003 0.80118 0.61407 0.0
H779 H 0.33383 0.83073 0.62184 0.0
C780 C 0.20786 0.7376 0.52583 0.0
C781 C 0.19569 0.71823 0.55276 0.0
C782 C 0.23559 0.7626 0.529 0.0
C783 C 0.25205 0.76815 0.55893 0.0
C784 C 0.23928 0.74863 0.58578 0.0
C785 C 0.21159 0.72418 0.58272 0.0
C786 C 0.33424 0.81804 0.53908 0.0
C787 C 0.34563 0.82858 0.57065 0.0
C788 C 0.3035 0.79976 0.53474 0.0
C789 C 0.28342 0.79218 0.56183 0.0
C790 C 0.29473 0.80532 0.59279 0.0
C791 C 0.32553 0.82268 0.59727 0.0
H792 H 0.78538 0.46647 0.46618 0.0
H793 H 0.77852 0.43124 0.3672 0.0
H794 H 0.73181 0.45822 0.4643 0.0
H795 H 0.72655 0.42565 0.36389 0.0
H796 H 0.63574 0.45241 0.44186 0.0
H797 H 0.69098 0.46993 0.44158 0.0
H798 H 0.6827 0.39007 0.38688 0.0
H799 H 0.62862 0.37362 0.38596 0.0
C800 C 0.77263 0.45793 0.4437 0.0
C801 C 0.7862 0.45036 0.41645 0.0
C802 C 0.7421 0.45341 0.44247 0.0
C803 C 0.72472 0.44099 0.41403 0.0
C804 C 0.73893 0.43465 0.38647 0.0
C805 C 0.76899 0.43849 0.38803 0.0
C806 C 0.64594 0.43891 0.42952 0.0
C807 C 0.62786 0.41179 0.41368 0.0
C808 C 0.6775 0.44883 0.4295 0.0
C809 C 0.6914 0.43165 0.41384 0.0
C810 C 0.67305 0.40446 0.39832 0.0
C811 C 0.64184 0.39484 0.39801 0.0
H812 H 0.27563 0.8043 0.99707 0.0
H813 H 0.29273 0.79965 0.89309 0.0
H814 H 0.23124 0.75634 0.99294 0.0
H815 H 0.25008 0.75188 0.88887 0.0
H816 H 0.18752 0.65148 0.98045 0.0
H817 H 0.21919 0.70495 0.98806 0.0
H818 H 0.19991 0.72243 0.88749 0.0
H819 H 0.1705 0.66854 0.87954 0.0
C820 C 0.26955 0.7932 0.97329 0.0
C821 C 0.28714 0.80593 0.94527 0.0
C822 C 0.24431 0.7656 0.97086 0.0
C823 C 0.23672 0.74983 0.94052 0.0
C824 C 0.25426 0.76328 0.91252 0.0
C825 C 0.279 0.79084 0.9149 0.0
C826 C 0.18965 0.66701 0.96032 0.0
C827 C 0.17677 0.65608 0.92941 0.0
C828 C 0.20774 0.69778 0.96463 0.0
C829 C 0.21288 0.71833 0.9382 0.0
C830 C 0.19756 0.70739 0.90814 0.0
C831 C 0.1803 0.67655 0.9036 0.0
H832 H 0.61832 0.22054 0.38986 0.0
H833 H 0.55223 0.16053 0.45738 0.0
H834 H 0.59065 0.25281 0.38802 0.0
H835 H 0.52387 0.19263 0.45488 0.0
H836 H 0.53342 0.30058 0.37253 0.0
H837 H 0.54564 0.25666 0.36932 0.0
H838 H 0.53053 0.24278 0.47452 0.0
H839 H 0.51569 0.2857 0.47696 0.0
C840 C 0.59758 0.21398 0.4039 0.0
C841 C 0.58755 0.1881 0.42386 0.0
C842 C 0.5815 0.23235 0.40264 0.0
C843 C 0.55487 0.2252 0.42117 0.0
C844 C 0.54439 0.19885 0.44052 0.0
C845 C 0.56057 0.18044 0.44183 0.0
C846 C 0.53084 0.28707 0.39458 0.0
C847 C 0.52256 0.29588 0.42477 0.0
C848 C 0.53862 0.26229 0.39292 0.0
C849 C 0.53966 0.24655 0.42176 0.0
C850 C 0.52974 0.25428 0.45177 0.0
C851 C 0.52133 0.27886 0.45326 0.0
H852 H 0.2286 0.57691 0.87787 0.0
H853 H 0.20682 0.52312 0.96669 0.0
H854 H 0.27855 0.57653 0.87729 0.0
H855 H 0.25699 0.52136 0.96567 0.0
H856 H 0.3631 0.56565 0.97317 0.0
H857 H 0.30874 0.55253 0.97443 0.0
H858 H 0.30636 0.54765 0.86757 0.0
H859 H 0.36084 0.56283 0.8666 0.0
C860 C 0.23446 0.56438 0.8969 0.0
C861 C 0.21381 0.54938 0.92181 0.0
C862 C 0.26305 0.56391 0.89651 0.0
C863 C 0.2718 0.54836 0.92107 0.0
C864 C 0.25107 0.53355 0.94635 0.0
C865 C 0.22238 0.5344 0.94693 0.0
C866 C 0.35068 0.56098 0.9501 0.0
C867 C 0.36598 0.56558 0.91979 0.0
C868 C 0.31951 0.55342 0.95075 0.0
C869 C 0.30319 0.54981 0.92105 0.0
C870 C 0.31831 0.55132 0.8909 0.0
C871 C 0.34945 0.55968 0.89027 0.0
H872 H 0.73115 0.19804 0.49337 0.0
H873 H 0.70532 0.20549 0.39288 0.0
H874 H 0.77517 0.2461 0.48737 0.0
H875 H 0.74747 0.25351 0.38706 0.0
H876 H 0.82709 0.33614 0.37334 0.0
H877 H 0.79723 0.28236 0.38092 0.0
H878 H 0.78866 0.29776 0.48516 0.0
H879 H 0.82092 0.3511 0.47757 0.0
C880 C 0.73516 0.20986 0.46993 0.0
C881 C 0.71531 0.19783 0.44337 0.0
C882 C 0.7602 0.23752 0.46646 0.0
C883 C 0.76531 0.25411 0.43663 0.0
C884 C 0.74528 0.24148 0.41014 0.0
C885 C 0.72081 0.21382 0.41347 0.0
C886 C 0.81953 0.32771 0.398 0.0
C887 C 0.82625 0.34763 0.42486 0.0
C888 C 0.80197 0.29691 0.40239 0.0
C889 C 0.78945 0.28544 0.43354 0.0
C890 C 0.79782 0.30534 0.4608 0.0
C891 C 0.8163 0.33605 0.45652 0.0
H892 H 0.47537 0.70578 0.97051 0.0
H893 H 0.44737 0.6824 0.86948 0.0
H894 H 0.46261 0.74992 0.96613 0.0
H895 H 0.43653 0.7272 0.86413 0.0
H896 H 0.37339 0.77491 0.88661 0.0
H897 H 0.39633 0.73844 0.88496 0.0
H898 H 0.47189 0.79881 0.94213 0.0
H899 H 0.4483 0.83509 0.94461 0.0
C900 C 0.46752 0.71078 0.94707 0.0
C901 C 0.46313 0.69132 0.92006 0.0
C902 C 0.46036 0.73607 0.94442 0.0
C903 C 0.44836 0.74201 0.91479 0.0
C904 C 0.44529 0.7231 0.88743 0.0
C905 C 0.45205 0.69774 0.89027 0.0
C906 C 0.39508 0.7806 0.89846 0.0
C907 C 0.40893 0.80777 0.9159 0.0
C908 C 0.40839 0.75976 0.89735 0.0
C909 C 0.43602 0.76568 0.91344 0.0
C910 C 0.45044 0.7934 0.92985 0.0
C911 C 0.437 0.81424 0.9311 0.0
loop_
_geom_bond_atom_site_label_1
_geom_bond_atom_site_label_2
_geom_bond_distance
_geom_bond_site_symmetry_2
_ccdc_geom_bond_type
Mn0 O5 2.095 . S
Mn0 O15 2.162 . S
Mn0 O16 2.297 . S
Mn0 O24 2.385 . S
Mn0 O25 2.209 . S
Mn0 O26 2.094 . S
Mn1 O6 2.121 . S
Mn1 N8 2.257 . S
Mn1 N17 2.282 . S
Mn1 O25 2.215 . S
Mn1 O27 2.117 . S
C2 O24 1.234 . S
C2 O25 1.283 . S
C3 O15 1.281 . S
C3 O16 1.236 . S
C4 O26 1.240 . S
C4 O27 1.264 . S
O5 Mn0 2.095 . S
O5 C14 1.250 . S
O6 Mn1 2.121 . S
O6 C14 1.258 . S
C7 N8 1.326 . S
C7 C11 1.460 . S
C7 H13 0.929 . S
N8 Mn1 2.257 . S
N8 C7 1.326 . S
N8 C12 1.362 . S
C9 C10 1.258 . S
C9 C12 1.431 . S
C9 C29 1.449 . S
C10 C9 1.258 . S
C10 C11 1.477 . S
C10 H30 0.931 . S
C11 C7 1.460 . S
C11 C10 1.477 . S
C11 H31 0.930 . S
C12 N8 1.362 . S
C12 C9 1.431 . S
C12 C22 1.476 . S
H13 C7 0.929 . S
C14 O5 1.250 . S
C14 O6 1.258 . S
O15 Mn0 2.162 . S
O15 C3 1.281 . S
O16 Mn0 2.297 . S
O16 C3 1.236 . S
N17 Mn1 2.282 . S
N17 C18 1.328 . S
N17 C22 1.318 . S
C18 N17 1.328 . S
C18 C19 1.457 . S
C18 H23 0.929 . S
C19 C18 1.457 . S
C19 C20 1.291 . S
C19 H32 0.931 1_554 S
C20 C19 1.291 . S
C20 C21 1.373 . S
C20 H33 0.948 . S
C21 C20 1.373 . S
C21 C22 1.396 . S
C21 C28 1.403 . S
C22 C12 1.476 . S
C22 N17 1.318 . S
C22 C21 1.396 . S
H23 C18 0.929 . S
O24 Mn0 2.385 . S
O24 C2 1.234 . S
O25 Mn0 2.209 . S
O25 Mn1 2.215 . S
O25 C2 1.283 . S
O26 Mn0 2.094 . S
O26 C4 1.240 . S
O27 Mn1 2.117 . S
O27 C4 1.264 . S
C28 C21 1.403 . S
C28 C29 1.399 . S
C28 H34 0.929 . S
C29 C9 1.449 . S
C29 C28 1.399 . S
C29 H35 0.930 . S
H30 C10 0.931 . S
H31 C11 0.930 . S
H32 C19 0.931 1_556 S
H33 C20 0.948 . S
H34 C28 0.929 . S
H35 C29 0.930 . S
Mn36 O41 2.095 . S
Mn36 O51 2.162 . S
Mn36 O52 2.297 . S
Mn36 O60 2.385 . S
Mn36 O61 2.209 . S
Mn36 O62 2.094 . S
Mn37 O42 2.121 . S
Mn37 N44 2.257 . S
Mn37 N53 2.282 . S
Mn37 O61 2.215 . S
Mn37 O63 2.117 . S
C38 O60 1.234 . S
C38 O61 1.283 . S
C39 O51 1.281 . S
C39 O52 1.236 . S
C40 O62 1.240 . S
C40 O63 1.264 . S
O41 Mn36 2.095 . S
O41 C50 1.250 . S
O42 Mn37 2.121 . S
O42 C50 1.258 . S
C43 N44 1.326 . S
C43 C47 1.460 . S
C43 H49 0.929 . S
N44 Mn37 2.257 . S
N44 C43 1.326 . S
N44 C48 1.362 . S
C45 C46 1.258 . S
C45 C48 1.431 . S
C45 C65 1.449 . S
C46 C45 1.258 . S
C46 C47 1.477 . S
C46 H66 0.931 . S
C47 C43 1.460 . S
C47 C46 1.477 . S
C47 H67 0.930 . S
C48 N44 1.362 . S
C48 C45 1.431 . S
C48 C58 1.476 . S
H49 C43 0.929 . S
C50 O41 1.250 . S
C50 O42 1.258 . S
O51 Mn36 2.162 . S
O51 C39 1.281 . S
O52 Mn36 2.297 . S
O52 C39 1.236 . S
N53 Mn37 2.282 . S
N53 C54 1.328 . S
N53 C58 1.318 . S
C54 N53 1.328 . S
C54 C55 1.457 . S
C54 H59 0.929 . S
C55 C54 1.457 . S
C55 C56 1.291 . S
C55 H68 0.931 . S
C56 C55 1.291 . S
C56 C57 1.373 . S
C56 H69 0.929 . S
C57 C56 1.373 . S
C57 C58 1.396 . S
C57 C64 1.403 . S
C58 C48 1.476 . S
C58 N53 1.318 . S
C58 C57 1.396 . S
H59 C54 0.929 . S
O60 Mn36 2.385 . S
O60 C38 1.234 . S
O61 Mn36 2.209 . S
O61 Mn37 2.215 . S
O61 C38 1.283 . S
O62 Mn36 2.094 . S
O62 C40 1.240 . S
O63 Mn37 2.117 . S
O63 C40 1.264 . S
C64 C57 1.403 . S
C64 C65 1.399 . S
C64 H70 0.929 . S
C65 C45 1.449 . S
C65 C64 1.399 . S
C65 H71 0.930 . S
H66 C46 0.931 . S
H67 C47 0.930 . S
H68 C55 0.931 . S
H69 C56 0.929 . S
H70 C64 0.929 . S
H71 C65 0.930 . S
Mn72 O77 2.095 . S
Mn72 O87 2.162 . S
Mn72 O88 2.297 . S
Mn72 O96 2.385 . S
Mn72 O97 2.209 . S
Mn72 O98 2.094 . S
Mn73 O78 2.121 . S
Mn73 N80 2.257 . S
Mn73 N89 2.282 . S
Mn73 O97 2.215 . S
Mn73 O99 2.117 . S
C74 O96 1.234 . S
C74 O97 1.283 . S
C75 O87 1.281 . S
C75 O88 1.236 . S
C76 O98 1.240 . S
C76 O99 1.264 . S
O77 Mn72 2.095 . S
O77 C86 1.250 . S
O78 Mn73 2.121 . S
O78 C86 1.258 . S
C79 N80 1.326 . S
C79 C83 1.460 . S
C79 H85 0.929 . S
N80 Mn73 2.257 . S
N80 C79 1.326 . S
N80 C84 1.362 . S
C81 C82 1.258 . S
C81 C84 1.431 . S
C81 C101 1.449 . S
C82 C81 1.258 . S
C82 C83 1.477 . S
C82 H102 0.931 . S
C83 C79 1.460 . S
C83 C82 1.477 . S
C83 H103 0.930 . S
C84 N80 1.362 . S
C84 C81 1.431 . S
C84 C94 1.476 . S
H85 C79 0.929 . S
C86 O77 1.250 . S
C86 O78 1.258 . S
O87 Mn72 2.162 . S
O87 C75 1.281 . S
O88 Mn72 2.297 . S
O88 C75 1.236 . S
N89 Mn73 2.282 . S
N89 C90 1.328 . S
N89 C94 1.318 . S
C90 N89 1.328 . S
C90 C91 1.457 1_554 S
C90 H95 0.929 1_554 S
C91 C90 1.457 1_556 S
C91 C92 1.291 . S
C91 H104 0.931 . S
C92 C91 1.291 . S
C92 C93 1.373 1_556 S
C92 H105 0.929 . S
C93 C92 1.373 1_554 S
C93 C94 1.396 . S
C93 C100 1.403 . S
C94 C84 1.476 . S
C94 N89 1.318 . S
C94 C93 1.396 . S
H95 C90 0.929 1_556 S
O96 Mn72 2.385 . S
O96 C74 1.234 . S
O97 Mn72 2.209 . S
O97 Mn73 2.215 . S
O97 C74 1.283 . S
O98 Mn72 2.094 . S
O98 C76 1.240 . S
O99 Mn73 2.117 . S
O99 C76 1.264 . S
C100 C93 1.403 . S
C100 C101 1.399 . S
C100 H106 0.929 . S
C101 C81 1.449 . S
C101 C100 1.399 . S
C101 H107 0.930 . S
H102 C82 0.931 . S
H103 C83 0.930 . S
H104 C91 0.931 . S
H105 C92 0.929 . S
H106 C100 0.929 . S
H107 C101 0.930 . S
Mn108 O113 2.095 . S
Mn108 O123 2.162 . S
Mn108 O124 2.297 . S
Mn108 O132 2.385 . S
Mn108 O133 2.209 . S
Mn108 O134 2.094 . S
Mn109 O114 2.121 . S
Mn109 N116 2.257 . S
Mn109 N125 2.282 . S
Mn109 O133 2.215 . S
Mn109 O135 2.117 . S
C110 O132 1.234 . S
C110 O133 1.283 . S
C111 O123 1.281 . S
C111 O124 1.236 . S
C112 O134 1.240 . S
C112 O135 1.264 . S
O113 Mn108 2.095 . S
O113 C122 1.250 . S
O114 Mn109 2.121 . S
O114 C122 1.258 . S
C115 N116 1.326 . S
C115 C119 1.460 . S
C115 H121 0.929 . S
N116 Mn109 2.257 . S
N116 C115 1.326 . S
N116 C120 1.362 . S
C117 C118 1.258 . S
C117 C120 1.431 . S
C117 C137 1.449 . S
C118 C117 1.258 . S
C118 C119 1.477 . S
C118 H138 0.931 . S
C119 C115 1.460 . S
C119 C118 1.477 . S
C119 H139 0.930 . S
C120 N116 1.362 . S
C120 C117 1.431 . S
C120 C130 1.476 . S
H121 C115 0.929 . S
C122 O113 1.250 . S
C122 O114 1.258 . S
O123 Mn108 2.162 . S
O123 C111 1.281 . S
O124 Mn108 2.297 . S
O124 C111 1.236 . S
N125 Mn109 2.282 . S
N125 C126 1.328 . S
N125 C130 1.318 . S
C126 N125 1.328 . S
C126 C127 1.457 . S
C126 H131 0.929 . S
C127 C126 1.457 . S
C127 C128 1.291 . S
C127 H140 0.931 . S
C128 C127 1.291 . S
C128 C129 1.373 . S
C128 H141 0.929 . S
C129 C128 1.373 . S
C129 C130 1.396 . S
C129 C136 1.403 . S
C130 C120 1.476 . S
C130 N125 1.318 . S
C130 C129 1.396 . S
H131 C126 0.929 . S
O132 Mn108 2.385 . S
O132 C110 1.234 . S
O133 Mn108 2.209 . S
O133 Mn109 2.215 . S
O133 C110 1.283 . S
O134 Mn108 2.094 . S
O134 C112 1.240 . S
O135 Mn109 2.117 . S
O135 C112 1.264 . S
C136 C129 1.403 . S
C136 C137 1.399 . S
C136 H142 0.929 . S
C137 C117 1.449 . S
C137 C136 1.399 . S
C137 H143 0.930 . S
H138 C118 0.931 . S
H139 C119 0.930 . S
H140 C127 0.931 . S
H141 C128 0.929 . S
H142 C136 0.929 . S
H143 C137 0.930 . S
Mn144 O149 2.095 . S
Mn144 O159 2.162 . S
Mn144 O160 2.297 . S
Mn144 O168 2.385 . S
Mn144 O169 2.209 . S
Mn144 O170 2.094 . S
Mn145 O150 2.121 . S
Mn145 N152 2.257 . S
Mn145 N161 2.282 . S
Mn145 O169 2.215 . S
Mn145 O171 2.117 . S
C146 O168 1.234 . S
C146 O169 1.283 . S
C147 O159 1.281 . S
C147 O160 1.236 . S
C148 O170 1.240 . S
C148 O171 1.264 . S
O149 Mn144 2.095 . S
O149 C158 1.250 . S
O150 Mn145 2.121 . S
O150 C158 1.258 . S
C151 N152 1.326 . S
C151 C155 1.460 . S
C151 H157 0.929 . S
N152 Mn145 2.257 . S
N152 C151 1.326 . S
N152 C156 1.362 . S
C153 C154 1.258 . S
C153 C156 1.431 . S
C153 C173 1.449 . S
C154 C153 1.258 . S
C154 C155 1.477 . S
C154 H174 0.931 . S
C155 C151 1.460 . S
C155 C154 1.477 . S
C155 H175 0.930 . S
C156 N152 1.362 . S
C156 C153 1.431 . S
C156 C166 1.476 . S
H157 C151 0.929 . S
C158 O149 1.250 . S
C158 O150 1.258 . S
O159 Mn144 2.162 . S
O159 C147 1.281 . S
O160 Mn144 2.297 . S
O160 C147 1.236 . S
N161 Mn145 2.282 . S
N161 C162 1.328 . S
N161 C166 1.318 . S
C162 N161 1.328 . S
C162 C163 1.457 1_554 S
C162 H167 0.929 . S
C163 C162 1.457 1_556 S
C163 C164 1.291 1_556 S
C163 H176 0.931 . S
C164 C163 1.291 1_554 S
C164 C165 1.373 . S
C164 H177 0.929 1_554 S
C165 C164 1.373 . S
C165 C166 1.396 . S
C165 C172 1.403 . S
C166 C156 1.476 . S
C166 N161 1.318 . S
C166 C165 1.396 . S
H167 C162 0.929 . S
O168 Mn144 2.385 . S
O168 C146 1.234 . S
O169 Mn144 2.209 . S
O169 Mn145 2.215 . S
O169 C146 1.283 . S
O170 Mn144 2.094 . S
O170 C148 1.240 . S
O171 Mn145 2.117 . S
O171 C148 1.264 . S
C172 C165 1.403 . S
C172 C173 1.399 . S
C172 H178 0.929 . S
C173 C153 1.449 . S
C173 C172 1.399 . S
C173 H179 0.930 . S
H174 C154 0.931 . S
H175 C155 0.930 . S
H176 C163 0.931 . S
H177 C164 0.929 1_556 S
H178 C172 0.929 . S
H179 C173 0.930 . S
Mn180 O185 2.095 . S
Mn180 O195 2.162 . S
Mn180 O196 2.297 . S
Mn180 O204 2.385 . S
Mn180 O205 2.209 . S
Mn180 O206 2.094 . S
Mn181 O186 2.121 . S
Mn181 N188 2.257 . S
Mn181 N197 2.282 . S
Mn181 O205 2.215 . S
Mn181 O207 2.117 . S
C182 O204 1.234 . S
C182 O205 1.283 . S
C183 O195 1.281 . S
C183 O196 1.236 . S
C184 O206 1.240 . S
C184 O207 1.264 . S
O185 Mn180 2.095 . S
O185 C194 1.250 . S
O186 Mn181 2.121 . S
O186 C194 1.258 . S
C187 N188 1.326 . S
C187 C191 1.460 . S
C187 H193 0.929 . S
N188 Mn181 2.257 . S
N188 C187 1.326 . S
N188 C192 1.362 . S
C189 C190 1.258 . S
C189 C192 1.431 . S
C189 C209 1.449 . S
C190 C189 1.258 . S
C190 C191 1.477 . S
C190 H210 0.931 . S
C191 C187 1.460 . S
C191 C190 1.477 . S
C191 H211 0.930 . S
C192 N188 1.362 . S
C192 C189 1.431 . S
C192 C202 1.476 . S
H193 C187 0.929 . S
C194 O185 1.250 . S
C194 O186 1.258 . S
O195 Mn180 2.162 . S
O195 C183 1.281 . S
O196 Mn180 2.297 . S
O196 C183 1.236 . S
N197 Mn181 2.282 . S
N197 C198 1.328 . S
N197 C202 1.318 . S
C198 N197 1.328 . S
C198 C199 1.457 . S
C198 H203 0.929 . S
C199 C198 1.457 . S
C199 C200 1.291 . S
C199 H212 0.931 . S
C200 C199 1.291 . S
C200 C201 1.373 . S
C200 H213 0.929 . S
C201 C200 1.373 . S
C201 C202 1.396 . S
C201 C208 1.403 . S
C202 C192 1.476 . S
C202 N197 1.318 . S
C202 C201 1.396 . S
H203 C198 0.929 . S
O204 Mn180 2.385 . S
O204 C182 1.234 . S
O205 Mn180 2.209 . S
O205 Mn181 2.215 . S
O205 C182 1.283 . S
O206 Mn180 2.094 . S
O206 C184 1.240 . S
O207 Mn181 2.117 . S
O207 C184 1.264 . S
C208 C201 1.403 . S
C208 C209 1.399 . S
C208 H214 0.929 . S
C209 C189 1.449 . S
C209 C208 1.399 . S
C209 H215 0.930 . S
H210 C190 0.931 . S
H211 C191 0.930 . S
H212 C199 0.931 . S
H213 C200 0.929 . S
H214 C208 0.929 . S
H215 C209 0.930 . S
Mn216 O221 2.095 . S
Mn216 O231 2.162 . S
Mn216 O232 2.297 . S
Mn216 O240 2.385 . S
Mn216 O241 2.209 . S
Mn216 O242 2.094 . S
Mn217 O222 2.121 . S
Mn217 N224 2.257 . S
Mn217 N233 2.282 . S
Mn217 O241 2.215 . S
Mn217 O243 2.117 . S
C218 O240 1.234 . S
C218 O241 1.283 . S
C219 O231 1.281 . S
C219 O232 1.236 . S
C220 O242 1.240 . S
C220 O243 1.264 . S
O221 Mn216 2.095 . S
O221 C230 1.250 . S
O222 Mn217 2.121 . S
O222 C230 1.258 . S
C223 N224 1.326 . S
C223 C227 1.460 . S
C223 H229 0.929 . S
N224 Mn217 2.257 . S
N224 C223 1.326 . S
N224 C228 1.362 . S
C225 C226 1.258 . S
C225 C228 1.431 . S
C225 C245 1.449 . S
C226 C225 1.258 . S
C226 C227 1.477 . S
C226 H246 0.931 . S
C227 C223 1.460 . S
C227 C226 1.477 . S
C227 H247 0.930 . S
C228 N224 1.362 . S
C228 C225 1.431 . S
C228 C238 1.476 . S
H229 C223 0.929 . S
C230 O221 1.250 . S
C230 O222 1.258 . S
O231 Mn216 2.162 . S
O231 C219 1.281 . S
O232 Mn216 2.297 . S
O232 C219 1.236 . S
N233 Mn217 2.282 . S
N233 C234 1.328 . S
N233 C238 1.318 . S
C234 N233 1.328 . S
C234 C235 1.457 . S
C234 H239 0.929 . S
C235 C234 1.457 . S
C235 C236 1.291 . S
C235 H248 0.931 . S
C236 C235 1.291 . S
C236 C237 1.373 . S
C236 H249 0.929 . S
C237 C236 1.373 . S
C237 C238 1.396 . S
C237 C244 1.403 . S
C238 C228 1.476 . S
C238 N233 1.318 . S
C238 C237 1.396 . S
H239 C234 0.929 . S
O240 Mn216 2.385 . S
O240 C218 1.234 . S
O241 Mn216 2.209 . S
O241 Mn217 2.215 . S
O241 C218 1.283 . S
O242 Mn216 2.094 . S
O242 C220 1.240 . S
O243 Mn217 2.117 . S
O243 C220 1.264 . S
C244 C237 1.403 . S
C244 C245 1.399 . S
C244 H250 0.929 . S
C245 C225 1.449 . S
C245 C244 1.399 . S
C245 H251 0.930 . S
H246 C226 0.931 . S
H247 C227 0.930 . S
H248 C235 0.931 . S
H249 C236 0.929 . S
H250 C244 0.929 . S
H251 C245 0.930 . S
Mn252 O257 2.095 . S
Mn252 O267 2.162 . S
Mn252 O268 2.297 . S
Mn252 O276 2.385 . S
Mn252 O277 2.209 . S
Mn252 O278 2.094 . S
Mn253 O258 2.121 . S
Mn253 N260 2.257 . S
Mn253 N269 2.282 . S
Mn253 O277 2.215 . S
Mn253 O279 2.117 . S
C254 O276 1.234 . S
C254 O277 1.283 . S
C255 O267 1.281 . S
C255 O268 1.236 . S
C256 O278 1.240 . S
C256 O279 1.264 . S
O257 Mn252 2.095 . S
O257 C266 1.250 . S
O258 Mn253 2.121 . S
O258 C266 1.258 . S
C259 N260 1.326 . S
C259 C263 1.460 . S
C259 H265 0.929 . S
N260 Mn253 2.257 . S
N260 C259 1.326 . S
N260 C264 1.362 . S
C261 C262 1.258 . S
C261 C264 1.431 . S
C261 C281 1.449 . S
C262 C261 1.258 . S
C262 C263 1.477 . S
C262 H282 0.931 . S
C263 C259 1.460 . S
C263 C262 1.477 . S
C263 H283 0.930 . S
C264 N260 1.362 . S
C264 C261 1.431 . S
C264 C274 1.476 . S
H265 C259 0.929 . S
C266 O257 1.250 . S
C266 O258 1.258 . S
O267 Mn252 2.162 . S
O267 C255 1.281 . S
O268 Mn252 2.297 . S
O268 C255 1.236 . S
N269 Mn253 2.282 . S
N269 C270 1.328 . S
N269 C274 1.318 . S
C270 N269 1.328 . S
C270 C271 1.457 1_556 S
C270 H275 0.929 1_556 S
C271 C270 1.457 1_554 S
C271 C272 1.291 . S
C271 H284 0.931 . S
C272 C271 1.291 . S
C272 C273 1.373 1_554 S
C272 H285 0.929 . S
C273 C272 1.373 1_556 S
C273 C274 1.396 . S
C273 C280 1.403 . S
C274 C264 1.476 . S
C274 N269 1.318 . S
C274 C273 1.396 . S
H275 C270 0.929 1_554 S
O276 Mn252 2.385 . S
O276 C254 1.234 . S
O277 Mn252 2.209 . S
O277 Mn253 2.215 . S
O277 C254 1.283 . S
O278 Mn252 2.094 . S
O278 C256 1.240 . S
O279 Mn253 2.117 . S
O279 C256 1.264 . S
C280 C273 1.403 . S
C280 C281 1.399 . S
C280 H286 0.929 . S
C281 C261 1.449 . S
C281 C280 1.399 . S
C281 H287 0.930 . S
H282 C262 0.931 . S
H283 C263 0.930 . S
H284 C271 0.931 . S
H285 C272 0.929 . S
H286 C280 0.929 . S
H287 C281 0.930 . S
Mn288 O293 2.095 . S
Mn288 O303 2.162 . S
Mn288 O304 2.297 . S
Mn288 O312 2.385 . S
Mn288 O313 2.209 . S
Mn288 O314 2.094 . S
Mn289 O294 2.121 . S
Mn289 N296 2.257 . S
Mn289 N305 2.282 . S
Mn289 O313 2.215 . S
Mn289 O315 2.117 . S
C290 O312 1.234 . S
C290 O313 1.283 . S
C291 O303 1.281 . S
C291 O304 1.236 . S
C292 O314 1.240 . S
C292 O315 1.264 . S
O293 Mn288 2.095 . S
O293 C302 1.250 . S
O294 Mn289 2.121 . S
O294 C302 1.258 . S
C295 N296 1.326 . S
C295 C299 1.460 . S
C295 H301 0.929 . S
N296 Mn289 2.257 . S
N296 C295 1.326 . S
N296 C300 1.362 . S
C297 C298 1.258 . S
C297 C300 1.431 . S
C297 C317 1.449 . S
C298 C297 1.258 . S
C298 C299 1.477 . S
C298 H318 0.931 . S
C299 C295 1.460 . S
C299 C298 1.477 . S
C299 H319 0.930 . S
C300 N296 1.362 . S
C300 C297 1.431 . S
C300 C310 1.476 . S
H301 C295 0.929 . S
C302 O293 1.250 . S
C302 O294 1.258 . S
O303 Mn288 2.162 . S
O303 C291 1.281 . S
O304 Mn288 2.297 . S
O304 C291 1.236 . S
N305 Mn289 2.282 . S
N305 C306 1.328 . S
N305 C310 1.318 . S
C306 N305 1.328 . S
C306 C307 1.457 . S
C306 H311 0.929 . S
C307 C306 1.457 . S
C307 C308 1.291 . S
C307 H320 0.931 . S
C308 C307 1.291 . S
C308 C309 1.373 . S
C308 H321 0.929 . S
C309 C308 1.373 . S
C309 C310 1.396 . S
C309 C316 1.403 . S
C310 C300 1.476 . S
C310 N305 1.318 . S
C310 C309 1.396 . S
H311 C306 0.929 . S
O312 Mn288 2.385 . S
O312 C290 1.234 . S
O313 Mn288 2.209 . S
O313 Mn289 2.215 . S
O313 C290 1.283 . S
O314 Mn288 2.094 . S
O314 C292 1.240 . S
O315 Mn289 2.117 . S
O315 C292 1.264 . S
C316 C309 1.403 . S
C316 C317 1.399 . S
C316 H322 0.929 . S
C317 C297 1.449 . S
C317 C316 1.399 . S
C317 H323 0.930 . S
H318 C298 0.931 . S
H319 C299 0.930 . S
H320 C307 0.931 . S
H321 C308 0.929 . S
H322 C316 0.929 . S
H323 C317 0.930 . S
Mn324 O329 2.095 . S
Mn324 O339 2.162 . S
Mn324 O340 2.297 . S
Mn324 O348 2.385 . S
Mn324 O349 2.209 . S
Mn324 O350 2.094 . S
Mn325 O330 2.121 . S
Mn325 N332 2.257 . S
Mn325 N341 2.282 . S
Mn325 O349 2.215 . S
Mn325 O351 2.117 . S
C326 O348 1.234 . S
C326 O349 1.283 . S
C327 O339 1.281 . S
C327 O340 1.236 . S
C328 O350 1.240 . S
C328 O351 1.264 . S
O329 Mn324 2.095 . S
O329 C338 1.250 . S
O330 Mn325 2.121 . S
O330 C338 1.258 . S
C331 N332 1.326 . S
C331 C335 1.460 . S
C331 H337 0.929 . S
N332 Mn325 2.257 . S
N332 C331 1.326 . S
N332 C336 1.362 . S
C333 C334 1.258 . S
C333 C336 1.431 . S
C333 C353 1.449 . S
C334 C333 1.258 . S
C334 C335 1.477 . S
C334 H354 0.931 . S
C335 C331 1.460 . S
C335 C334 1.477 . S
C335 H355 0.930 . S
C336 N332 1.362 . S
C336 C333 1.431 . S
C336 C346 1.476 . S
H337 C331 0.929 . S
C338 O329 1.250 . S
C338 O330 1.258 . S
O339 Mn324 2.162 . S
O339 C327 1.281 . S
O340 Mn324 2.297 . S
O340 C327 1.236 . S
N341 Mn325 2.282 . S
N341 C342 1.328 . S
N341 C346 1.318 . S
C342 N341 1.328 . S
C342 C343 1.457 . S
C342 H347 0.929 . S
C343 C342 1.457 . S
C343 C344 1.291 . S
C343 H356 0.931 1_556 S
C344 C343 1.291 . S
C344 C345 1.373 . S
C344 H357 0.948 . S
C345 C344 1.373 . S
C345 C346 1.396 . S
C345 C352 1.403 . S
C346 C336 1.476 . S
C346 N341 1.318 . S
C346 C345 1.396 . S
H347 C342 0.929 . S
O348 Mn324 2.385 . S
O348 C326 1.234 . S
O349 Mn324 2.209 . S
O349 Mn325 2.215 . S
O349 C326 1.283 . S
O350 Mn324 2.094 . S
O350 C328 1.240 . S
O351 Mn325 2.117 . S
O351 C328 1.264 . S
C352 C345 1.403 . S
C352 C353 1.399 . S
C352 H358 0.929 . S
C353 C333 1.449 . S
C353 C352 1.399 . S
C353 H359 0.930 . S
H354 C334 0.931 . S
H355 C335 0.930 . S
H356 C343 0.931 1_554 S
H357 C344 0.948 . S
H358 C352 0.929 . S
H359 C353 0.930 . S
Mn360 O365 2.095 . S
Mn360 O375 2.162 . S
Mn360 O376 2.297 . S
Mn360 O384 2.385 . S
Mn360 O385 2.209 . S
Mn360 O386 2.094 . S
Mn361 O366 2.121 . S
Mn361 N368 2.257 . S
Mn361 N377 2.282 . S
Mn361 O385 2.215 . S
Mn361 O387 2.117 . S
C362 O384 1.234 . S
C362 O385 1.283 . S
C363 O375 1.281 . S
C363 O376 1.236 . S
C364 O386 1.240 . S
C364 O387 1.264 . S
O365 Mn360 2.095 . S
O365 C374 1.250 . S
O366 Mn361 2.121 . S
O366 C374 1.258 . S
C367 N368 1.326 . S
C367 C371 1.460 . S
C367 H373 0.929 . S
N368 Mn361 2.257 . S
N368 C367 1.326 . S
N368 C372 1.362 . S
C369 C370 1.258 . S
C369 C372 1.431 . S
C369 C389 1.449 . S
C370 C369 1.258 . S
C370 C371 1.477 . S
C370 H390 0.931 . S
C371 C367 1.460 . S
C371 C370 1.477 . S
C371 H391 0.930 . S
C372 N368 1.362 . S
C372 C369 1.431 . S
C372 C382 1.476 . S
H373 C367 0.929 . S
C374 O365 1.250 . S
C374 O366 1.258 . S
O375 Mn360 2.162 . S
O375 C363 1.281 . S
O376 Mn360 2.297 . S
O376 C363 1.236 . S
N377 Mn361 2.282 . S
N377 C378 1.328 . S
N377 C382 1.318 . S
C378 N377 1.328 . S
C378 C379 1.457 . S
C378 H383 0.929 . S
C379 C378 1.457 . S
C379 C380 1.291 . S
C379 H392 0.931 . S
C380 C379 1.291 . S
C380 C381 1.373 . S
C380 H393 0.929 . S
C381 C380 1.373 . S
C381 C382 1.396 . S
C381 C388 1.403 . S
C382 C372 1.476 . S
C382 N377 1.318 . S
C382 C381 1.396 . S
H383 C378 0.929 . S
O384 Mn360 2.385 . S
O384 C362 1.234 . S
O385 Mn360 2.209 . S
O385 Mn361 2.215 . S
O385 C362 1.283 . S
O386 Mn360 2.094 . S
O386 C364 1.240 . S
O387 Mn361 2.117 . S
O387 C364 1.264 . S
C388 C381 1.403 . S
C388 C389 1.399 . S
C388 H394 0.929 . S
C389 C369 1.449 . S
C389 C388 1.399 . S
C389 H395 0.930 . S
H390 C370 0.931 . S
H391 C371 0.930 . S
H392 C379 0.931 . S
H393 C380 0.929 . S
H394 C388 0.929 . S
H395 C389 0.930 . S
Mn396 O401 2.095 . S
Mn396 O411 2.162 . S
Mn396 O412 2.297 . S
Mn396 O420 2.385 . S
Mn396 O421 2.209 . S
Mn396 O422 2.094 . S
Mn397 O402 2.121 . S
Mn397 N404 2.257 . S
Mn397 N413 2.282 . S
Mn397 O421 2.215 . S
Mn397 O423 2.117 . S
C398 O420 1.234 . S
C398 O421 1.283 . S
C399 O411 1.281 . S
C399 O412 1.236 . S
C400 O422 1.240 . S
C400 O423 1.264 . S
O401 Mn396 2.095 . S
O401 C410 1.250 . S
O402 Mn397 2.121 . S
O402 C410 1.258 . S
C403 N404 1.326 . S
C403 C407 1.460 . S
C403 H409 0.929 . S
N404 Mn397 2.257 . S
N404 C403 1.326 . S
N404 C408 1.362 . S
C405 C406 1.258 . S
C405 C408 1.431 . S
C405 C425 1.449 . S
C406 C405 1.258 . S
C406 C407 1.477 . S
C406 H426 0.931 . S
C407 C403 1.460 . S
C407 C406 1.477 . S
C407 H427 0.930 . S
C408 N404 1.362 . S
C408 C405 1.431 . S
C408 C418 1.476 . S
H409 C403 0.929 . S
C410 O401 1.250 . S
C410 O402 1.258 . S
O411 Mn396 2.162 . S
O411 C399 1.281 . S
O412 Mn396 2.297 . S
O412 C399 1.236 . S
N413 Mn397 2.282 . S
N413 C414 1.328 . S
N413 C418 1.318 . S
C414 N413 1.328 . S
C414 C415 1.457 1_556 S
C414 H419 0.929 . S
C415 C414 1.457 1_554 S
C415 C416 1.291 1_554 S
C415 H428 0.931 . S
C416 C415 1.291 1_556 S
C416 C417 1.373 . S
C416 H429 0.929 1_556 S
C417 C416 1.373 . S
C417 C418 1.396 . S
C417 C424 1.403 . S
C418 C408 1.476 . S
C418 N413 1.318 . S
C418 C417 1.396 . S
H419 C414 0.929 . S
O420 Mn396 2.385 . S
O420 C398 1.234 . S
O421 Mn396 2.209 . S
O421 Mn397 2.215 . S
O421 C398 1.283 . S
O422 Mn396 2.094 . S
O422 C400 1.240 . S
O423 Mn397 2.117 . S
O423 C400 1.264 . S
C424 C417 1.403 . S
C424 C425 1.399 . S
C424 H430 0.929 . S
C425 C405 1.449 . S
C425 C424 1.399 . S
C425 H431 0.930 . S
H426 C406 0.931 . S
H427 C407 0.930 . S
H428 C415 0.931 . S
H429 C416 0.929 1_554 S
H430 C424 0.929 . S
H431 C425 0.930 . S
H432 C440 0.950 . S
H433 C445 0.950 . S
H434 C442 0.950 . S
H435 C444 0.950 . S
H436 C446 0.950 . S
H437 C448 0.950 . S
H438 C450 0.950 . S
H439 C451 0.950 . S
C440 H432 0.950 . S
C440 C441 1.386 . S
C440 C442 1.391 . S
C441 C440 1.386 . S
C441 C445 1.393 . S
C442 H434 0.950 . S
C442 C440 1.391 . S
C442 C443 1.400 . S
C443 C442 1.400 . S
C443 C444 1.398 . S
C443 C449 1.491 . S
C444 H435 0.950 . S
C444 C443 1.398 . S
C444 C445 1.391 . S
C445 H433 0.950 . S
C445 C441 1.393 . S
C445 C444 1.391 . S
C446 H436 0.950 . S
C446 C447 1.386 . S
C446 C448 1.391 . S
C447 C446 1.386 . S
C447 C451 1.393 . S
C448 H437 0.950 . S
C448 C446 1.391 . S
C448 C449 1.400 . S
C449 C443 1.491 . S
C449 C448 1.400 . S
C449 C450 1.398 . S
C450 H438 0.950 . S
C450 C449 1.398 . S
C450 C451 1.391 . S
C451 H439 0.950 . S
C451 C447 1.393 . S
C451 C450 1.391 . S
H452 C460 0.950 . S
H453 C465 0.950 . S
H454 C462 0.950 . S
H455 C464 0.950 . S
H456 C466 0.950 . S
H457 C468 0.950 . S
H458 C470 0.950 . S
H459 C471 0.950 . S
C460 H452 0.950 . S
C460 C461 1.386 . S
C460 C462 1.391 . S
C461 C460 1.386 . S
C461 C465 1.393 . S
C462 H454 0.950 . S
C462 C460 1.391 . S
C462 C463 1.400 . S
C463 C462 1.400 . S
C463 C464 1.398 . S
C463 C469 1.491 . S
C464 H455 0.950 . S
C464 C463 1.398 . S
C464 C465 1.391 . S
C465 H453 0.950 . S
C465 C461 1.393 . S
C465 C464 1.391 . S
C466 H456 0.950 . S
C466 C467 1.386 . S
C466 C468 1.391 . S
C467 C466 1.386 . S
C467 C471 1.393 . S
C468 H457 0.950 . S
C468 C466 1.391 . S
C468 C469 1.400 . S
C469 C463 1.491 . S
C469 C468 1.400 . S
C469 C470 1.398 . S
C470 H458 0.950 . S
C470 C469 1.398 . S
C470 C471 1.391 . S
C471 H459 0.950 . S
C471 C467 1.393 . S
C471 C470 1.391 . S
H472 C480 0.950 . S
H473 C485 0.950 . S
H474 C482 0.950 . S
H475 C484 0.950 . S
H476 C486 0.950 . S
H477 C488 0.950 . S
H478 C490 0.950 . S
H479 C491 0.950 . S
C480 H472 0.950 . S
C480 C481 1.386 . S
C480 C482 1.391 . S
C481 C480 1.386 . S
C481 C485 1.393 . S
C482 H474 0.950 . S
C482 C480 1.391 . S
C482 C483 1.400 . S
C483 C482 1.400 . S
C483 C484 1.398 . S
C483 C489 1.491 . S
C484 H475 0.950 . S
C484 C483 1.398 . S
C484 C485 1.391 . S
C485 H473 0.950 . S
C485 C481 1.393 . S
C485 C484 1.391 . S
C486 H476 0.950 . S
C486 C487 1.386 . S
C486 C488 1.391 . S
C487 C486 1.386 . S
C487 C491 1.393 . S
C488 H477 0.950 . S
C488 C486 1.391 . S
C488 C489 1.400 . S
C489 C483 1.491 . S
C489 C488 1.400 . S
C489 C490 1.398 . S
C490 H478 0.950 . S
C490 C489 1.398 . S
C490 C491 1.391 . S
C491 H479 0.950 . S
C491 C487 1.393 . S
C491 C490 1.391 . S
H492 C500 0.950 . S
H493 C505 0.950 . S
H494 C502 0.950 . S
H495 C504 0.950 . S
H496 C506 0.950 . S
H497 C508 0.950 . S
H498 C510 0.950 . S
H499 C511 0.950 . S
C500 H492 0.950 . S
C500 C501 1.386 . S
C500 C502 1.391 . S
C501 C500 1.386 . S
C501 C505 1.393 . S
C502 H494 0.950 . S
C502 C500 1.391 . S
C502 C503 1.400 . S
C503 C502 1.400 . S
C503 C504 1.398 . S
C503 C509 1.491 . S
C504 H495 0.950 . S
C504 C503 1.398 . S
C504 C505 1.391 . S
C505 H493 0.950 . S
C505 C501 1.393 . S
C505 C504 1.391 . S
C506 H496 0.950 . S
C506 C507 1.386 . S
C506 C508 1.391 . S
C507 C506 1.386 . S
C507 C511 1.393 . S
C508 H497 0.950 . S
C508 C506 1.391 . S
C508 C509 1.400 . S
C509 C503 1.491 . S
C509 C508 1.400 . S
C509 C510 1.398 . S
C510 H498 0.950 . S
C510 C509 1.398 . S
C510 C511 1.391 . S
C511 H499 0.950 . S
C511 C507 1.393 . S
C511 C510 1.391 . S
H512 C520 0.950 . S
H513 C525 0.950 . S
H514 C522 0.950 . S
H515 C524 0.950 . S
H516 C526 0.950 . S
H517 C528 0.950 . S
H518 C530 0.950 . S
H519 C531 0.950 . S
C520 H512 0.950 . S
C520 C521 1.386 . S
C520 C522 1.391 . S
C521 C520 1.386 . S
C521 C525 1.393 . S
C522 H514 0.950 . S
C522 C520 1.391 . S
C522 C523 1.400 . S
C523 C522 1.400 . S
C523 C524 1.398 . S
C523 C529 1.491 . S
C524 H515 0.950 . S
C524 C523 1.398 . S
C524 C525 1.391 . S
C525 H513 0.950 . S
C525 C521 1.393 . S
C525 C524 1.391 . S
C526 H516 0.950 . S
C526 C527 1.386 . S
C526 C528 1.391 . S
C527 C526 1.386 . S
C527 C531 1.393 . S
C528 H517 0.950 . S
C528 C526 1.391 . S
C528 C529 1.400 . S
C529 C523 1.491 . S
C529 C528 1.400 . S
C529 C530 1.398 . S
C530 H518 0.950 . S
C530 C529 1.398 . S
C530 C531 1.391 . S
C531 H519 0.950 . S
C531 C527 1.393 . S
C531 C530 1.391 . S
H532 C540 0.950 . S
H533 C545 0.950 . S
H534 C542 0.950 . S
H535 C544 0.950 . S
H536 C546 0.950 . S
H537 C548 0.950 . S
H538 C550 0.950 . S
H539 C551 0.950 . S
C540 H532 0.950 . S
C540 C541 1.386 . S
C540 C542 1.391 . S
C541 C540 1.386 . S
C541 C545 1.393 . S
C542 H534 0.950 . S
C542 C540 1.391 . S
C542 C543 1.400 . S
C543 C542 1.400 . S
C543 C544 1.398 . S
C543 C549 1.491 . S
C544 H535 0.950 . S
C544 C543 1.398 . S
C544 C545 1.391 . S
C545 H533 0.950 . S
C545 C541 1.393 . S
C545 C544 1.391 . S
C546 H536 0.950 . S
C546 C547 1.386 . S
C546 C548 1.391 . S
C547 C546 1.386 . S
C547 C551 1.393 . S
C548 H537 0.950 . S
C548 C546 1.391 . S
C548 C549 1.400 . S
C549 C543 1.491 . S
C549 C548 1.400 . S
C549 C550 1.398 . S
C550 H538 0.950 . S
C550 C549 1.398 . S
C550 C551 1.391 . S
C551 H539 0.950 . S
C551 C547 1.393 . S
C551 C550 1.391 . S
H552 C560 0.950 . S
H553 C565 0.950 . S
H554 C562 0.950 1_565 S
H555 C564 0.950 1_556 S
H556 C566 0.950 . S
H557 C568 0.950 1_545 S
H558 C570 0.950 . S
H559 C571 0.950 . S
C560 H552 0.950 . S
C560 C561 1.386 . S
C560 C562 1.391 . S
C561 C560 1.386 . S
C561 C565 1.393 . S
C562 H554 0.950 1_545 S
C562 C560 1.391 . S
C562 C563 1.400 . S
C563 C562 1.400 . S
C563 C564 1.398 . S
C563 C569 1.491 1_544 S
C564 H555 0.950 1_554 S
C564 C563 1.398 . S
C564 C565 1.391 . S
C565 H553 0.950 . S
C565 C561 1.393 . S
C565 C564 1.391 . S
C566 H556 0.950 . S
C566 C567 1.386 . S
C566 C568 1.391 . S
C567 C566 1.386 . S
C567 C571 1.393 . S
C568 H557 0.950 1_565 S
C568 C566 1.391 . S
C568 C569 1.400 . S
C569 C563 1.491 1_566 S
C569 C568 1.400 . S
C569 C570 1.398 1_556 S
C570 H558 0.950 . S
C570 C569 1.398 1_554 S
C570 C571 1.391 1_554 S
C571 H559 0.950 . S
C571 C567 1.393 . S
C571 C570 1.391 1_556 S
H572 C580 0.950 . S
H573 C585 0.950 . S
H574 C582 0.950 . S
H575 C584 0.950 . S
H576 C586 0.950 . S
H577 C588 0.950 . S
H578 C590 0.950 . S
H579 C591 0.950 . S
C580 H572 0.950 . S
C580 C581 1.386 . S
C580 C582 1.391 . S
C581 C580 1.386 . S
C581 C585 1.393 . S
C582 H574 0.950 . S
C582 C580 1.391 . S
C582 C583 1.400 . S
C583 C582 1.400 . S
C583 C584 1.398 . S
C583 C589 1.491 . S
C584 H575 0.950 . S
C584 C583 1.398 . S
C584 C585 1.391 . S
C585 H573 0.950 . S
C585 C581 1.393 . S
C585 C584 1.391 . S
C586 H576 0.950 . S
C586 C587 1.386 . S
C586 C588 1.391 . S
C587 C586 1.386 . S
C587 C591 1.393 . S
C588 H577 0.950 . S
C588 C586 1.391 . S
C588 C589 1.400 . S
C589 C583 1.491 . S
C589 C588 1.400 . S
C589 C590 1.398 . S
C590 H578 0.950 . S
C590 C589 1.398 . S
C590 C591 1.391 . S
C591 H579 0.950 . S
C591 C587 1.393 . S
C591 C590 1.391 . S
H592 C600 0.950 . S
H593 C605 0.950 . S
H594 C602 0.950 . S
H595 C604 0.950 . S
H596 C606 0.950 . S
H597 C608 0.979 . S
H598 C610 0.950 . S
H599 C611 0.950 . S
C600 H592 0.950 . S
C600 C601 1.386 . S
C600 C602 1.391 . S
C601 C600 1.386 . S
C601 C605 1.393 1_556 S
C602 H594 0.950 . S
C602 C600 1.391 . S
C602 C603 1.400 . S
C603 C602 1.400 . S
C603 C604 1.398 1_556 S
C603 C609 1.491 1_456 S
C604 H595 0.950 . S
C604 C603 1.398 1_554 S
C604 C605 1.391 . S
C605 H593 0.950 . S
C605 C601 1.393 1_554 S
C605 C604 1.391 . S
C606 H596 0.950 . S
C606 C607 1.386 . S
C606 C608 1.391 . S
C607 C606 1.386 . S
C607 C611 1.393 1_554 S
C608 H597 0.979 . S
C608 C606 1.391 . S
C608 C609 1.400 . S
C609 C603 1.491 1_654 S
C609 C608 1.400 . S
C609 C610 1.398 1_554 S
C610 H598 0.950 . S
C610 C609 1.398 1_556 S
C610 C611 1.391 . S
C611 H599 0.950 . S
C611 C607 1.393 1_556 S
C611 C610 1.391 . S
H612 C620 0.950 . S
H613 C625 0.950 . S
H614 C622 0.950 . S
H615 C624 0.948 1_565 S
H616 C626 0.950 . S
H617 C628 0.950 . S
H618 C630 0.977 . S
H619 C631 0.950 . S
C620 H612 0.950 . S
C620 C621 1.386 . S
C620 C622 1.391 . S
C621 C620 1.386 . S
C621 C625 1.393 . S
C622 H614 0.950 . S
C622 C620 1.391 . S
C622 C623 1.400 . S
C623 C622 1.400 . S
C623 C624 1.398 . S
C623 C629 1.491 1_545 S
C624 H615 0.948 1_545 S
C624 C623 1.398 . S
C624 C625 1.391 . S
C625 H613 0.950 . S
C625 C621 1.393 . S
C625 C624 1.391 . S
C626 H616 0.950 . S
C626 C627 1.386 . S
C626 C628 1.391 . S
C627 C626 1.386 . S
C627 C631 1.393 . S
C628 H617 0.950 . S
C628 C626 1.391 . S
C628 C629 1.400 . S
C629 C623 1.491 1_565 S
C629 C628 1.400 . S
C629 C630 1.398 . S
C630 H618 0.977 . S
C630 C629 1.398 . S
C630 C631 1.391 . S
C631 H619 0.950 . S
C631 C627 1.393 . S
C631 C630 1.391 . S
H632 C640 0.951 1_554 S
H633 C645 0.950 . S
H634 C642 0.950 . S
H635 C644 0.950 . S
H636 C646 0.951 1_556 S
H637 C648 0.950 . S
H638 C650 0.950 . S
H639 C651 0.950 . S
C640 H632 0.951 1_556 S
C640 C641 1.383 . S
C640 C642 1.392 1_556 S
C641 C640 1.383 . S
C641 C645 1.393 . S
C642 H634 0.950 . S
C642 C640 1.392 1_554 S
C642 C643 1.400 1_554 S
C643 C642 1.400 1_556 S
C643 C644 1.398 . S
C643 C649 1.491 1_556 S
C644 H635 0.950 . S
C644 C643 1.398 . S
C644 C645 1.391 . S
C645 H633 0.950 . S
C645 C641 1.393 . S
C645 C644 1.391 . S
C646 H636 0.951 1_554 S
C646 C647 1.383 . S
C646 C648 1.392 1_554 S
C647 C646 1.383 . S
C647 C651 1.393 . S
C648 H637 0.950 . S
C648 C646 1.392 1_556 S
C648 C649 1.400 1_556 S
C649 C643 1.491 1_554 S
C649 C648 1.400 1_554 S
C649 C650 1.398 . S
C650 H638 0.950 . S
C650 C649 1.398 . S
C650 C651 1.391 . S
C651 H639 0.950 . S
C651 C647 1.393 . S
C651 C650 1.391 . S
H652 C660 0.950 . S
H653 C665 0.950 . S
H654 C662 0.950 . S
H655 C664 0.950 1_455 S
H656 C666 0.950 . S
H657 C668 0.950 . S
H658 C670 0.950 1_655 S
H659 C671 0.950 . S
C660 H652 0.950 . S
C660 C661 1.386 . S
C660 C662 1.391 . S
C661 C660 1.386 . S
C661 C665 1.393 . S
C662 H654 0.950 . S
C662 C660 1.391 . S
C662 C663 1.400 . S
C663 C662 1.400 . S
C663 C664 1.398 . S
C663 C669 1.491 1_655 S
C664 H655 0.950 1_655 S
C664 C663 1.398 . S
C664 C665 1.391 . S
C665 H653 0.950 . S
C665 C661 1.393 . S
C665 C664 1.391 . S
C666 H656 0.950 . S
C666 C667 1.386 . S
C666 C668 1.391 . S
C667 C666 1.386 . S
C667 C671 1.393 . S
C668 H657 0.950 . S
C668 C666 1.391 . S
C668 C669 1.400 . S
C669 C663 1.491 1_455 S
C669 C668 1.400 . S
C669 C670 1.398 . S
C670 H658 0.950 1_455 S
C670 C669 1.398 . S
C670 C671 1.391 . S
C671 H659 0.950 . S
C671 C667 1.393 . S
C671 C670 1.391 . S
H672 C680 0.950 . S
H673 C685 0.950 . S
H674 C682 0.950 . S
H675 C684 0.950 . S
H676 C686 0.950 . S
H677 C688 0.950 . S
H678 C690 0.950 . S
H679 C691 0.950 . S
C680 H672 0.950 . S
C680 C681 1.386 . S
C680 C682 1.391 . S
C681 C680 1.386 . S
C681 C685 1.393 . S
C682 H674 0.950 . S
C682 C680 1.391 . S
C682 C683 1.400 . S
C683 C682 1.400 . S
C683 C684 1.398 . S
C683 C689 1.491 . S
C684 H675 0.950 . S
C684 C683 1.398 . S
C684 C685 1.391 . S
C685 H673 0.950 . S
C685 C681 1.393 . S
C685 C684 1.391 . S
C686 H676 0.950 . S
C686 C687 1.386 . S
C686 C688 1.391 . S
C687 C686 1.386 . S
C687 C691 1.393 . S
C688 H677 0.950 . S
C688 C686 1.391 . S
C688 C689 1.400 . S
C689 C683 1.491 . S
C689 C688 1.400 . S
C689 C690 1.398 . S
C690 H678 0.950 . S
C690 C689 1.398 . S
C690 C691 1.391 . S
C691 H679 0.950 . S
C691 C687 1.393 . S
C691 C690 1.391 . S
H692 C700 0.950 . S
H693 C705 0.950 . S
H694 C702 0.950 . S
H695 C704 0.950 . S
H696 C706 0.950 . S
H697 C708 0.950 . S
H698 C710 0.950 . S
H699 C711 0.950 . S
C700 H692 0.950 . S
C700 C701 1.386 . S
C700 C702 1.391 . S
C701 C700 1.386 . S
C701 C705 1.393 . S
C702 H694 0.950 . S
C702 C700 1.391 . S
C702 C703 1.400 . S
C703 C702 1.400 . S
C703 C704 1.398 . S
C703 C709 1.491 . S
C704 H695 0.950 . S
C704 C703 1.398 . S
C704 C705 1.391 . S
C705 H693 0.950 . S
C705 C701 1.393 . S
C705 C704 1.391 . S
C706 H696 0.950 . S
C706 C707 1.386 . S
C706 C708 1.391 . S
C707 C706 1.386 . S
C707 C711 1.393 . S
C708 H697 0.950 . S
C708 C706 1.391 . S
C708 C709 1.400 . S
C709 C703 1.491 . S
C709 C708 1.400 . S
C709 C710 1.398 . S
C710 H698 0.950 . S
C710 C709 1.398 . S
C710 C711 1.391 . S
C711 H699 0.950 . S
C711 C707 1.393 . S
C711 C710 1.391 . S
H712 C720 0.950 . S
H713 C725 0.950 1_556 S
H714 C722 0.950 . S
H715 C724 0.950 1_556 S
H716 C726 0.950 . S
H717 C728 0.950 1_556 S
H718 C730 0.950 . S
H719 C731 0.950 . S
C720 H712 0.950 . S
C720 C721 1.386 . S
C720 C722 1.391 . S
C721 C720 1.386 . S
C721 C725 1.393 . S
C722 H714 0.950 . S
C722 C720 1.391 . S
C722 C723 1.400 . S
C723 C722 1.400 . S
C723 C724 1.398 . S
C723 C729 1.491 . S
C724 H715 0.950 1_554 S
C724 C723 1.398 . S
C724 C725 1.391 . S
C725 H713 0.950 1_554 S
C725 C721 1.393 . S
C725 C724 1.391 . S
C726 H716 0.950 . S
C726 C727 1.386 . S
C726 C728 1.391 . S
C727 C726 1.386 . S
C727 C731 1.393 . S
C728 H717 0.950 1_554 S
C728 C726 1.391 . S
C728 C729 1.400 . S
C729 C723 1.491 . S
C729 C728 1.400 . S
C729 C730 1.398 . S
C730 H718 0.950 . S
C730 C729 1.398 . S
C730 C731 1.391 . S
C731 H719 0.950 . S
C731 C727 1.393 . S
C731 C730 1.391 . S
H732 C740 0.950 . S
H733 C745 0.950 . S
H734 C742 0.950 . S
H735 C744 0.950 . S
H736 C746 0.950 . S
H737 C748 0.950 . S
H738 C750 0.950 . S
H739 C751 0.950 . S
C740 H732 0.950 . S
C740 C741 1.386 . S
C740 C742 1.391 . S
C741 C740 1.386 . S
C741 C745 1.393 . S
C742 H734 0.950 . S
C742 C740 1.391 . S
C742 C743 1.400 . S
C743 C742 1.400 . S
C743 C744 1.398 . S
C743 C749 1.491 . S
C744 H735 0.950 . S
C744 C743 1.398 . S
C744 C745 1.391 . S
C745 H733 0.950 . S
C745 C741 1.393 . S
C745 C744 1.391 . S
C746 H736 0.950 . S
C746 C747 1.386 . S
C746 C748 1.391 . S
C747 C746 1.386 . S
C747 C751 1.393 . S
C748 H737 0.950 . S
C748 C746 1.391 . S
C748 C749 1.400 . S
C749 C743 1.491 . S
C749 C748 1.400 . S
C749 C750 1.398 . S
C750 H738 0.950 . S
C750 C749 1.398 . S
C750 C751 1.391 . S
C751 H739 0.950 . S
C751 C747 1.393 . S
C751 C750 1.391 . S
H752 C760 0.950 . S
H753 C765 0.950 1_556 S
H754 C762 0.950 . S
H755 C764 0.950 . S
H756 C766 0.950 . S
H757 C768 0.950 . S
H758 C770 0.950 . S
H759 C771 0.950 . S
C760 H752 0.950 . S
C760 C761 1.386 . S
C760 C762 1.391 . S
C761 C760 1.386 . S
C761 C765 1.393 . S
C762 H754 0.950 . S
C762 C760 1.391 . S
C762 C763 1.400 . S
C763 C762 1.400 . S
C763 C764 1.398 . S
C763 C769 1.491 . S
C764 H755 0.950 . S
C764 C763 1.398 . S
C764 C765 1.391 . S
C765 H753 0.950 1_554 S
C765 C761 1.393 . S
C765 C764 1.391 . S
C766 H756 0.950 . S
C766 C767 1.386 . S
C766 C768 1.391 . S
C767 C766 1.386 . S
C767 C771 1.393 . S
C768 H757 0.950 . S
C768 C766 1.391 . S
C768 C769 1.400 . S
C769 C763 1.491 . S
C769 C768 1.400 . S
C769 C770 1.398 . S
C770 H758 0.950 . S
C770 C769 1.398 . S
C770 C771 1.391 . S
C771 H759 0.950 . S
C771 C767 1.393 . S
C771 C770 1.391 . S
H772 C780 0.950 . S
H773 C785 0.950 . S
H774 C782 0.950 . S
H775 C784 0.950 . S
H776 C786 0.950 . S
H777 C788 0.950 . S
H778 C790 0.950 . S
H779 C791 0.950 . S
C780 H772 0.950 . S
C780 C781 1.386 . S
C780 C782 1.391 . S
C781 C780 1.386 . S
C781 C785 1.393 . S
C782 H774 0.950 . S
C782 C780 1.391 . S
C782 C783 1.400 . S
C783 C782 1.400 . S
C783 C784 1.398 . S
C783 C789 1.491 . S
C784 H775 0.950 . S
C784 C783 1.398 . S
C784 C785 1.391 . S
C785 H773 0.950 . S
C785 C781 1.393 . S
C785 C784 1.391 . S
C786 H776 0.950 . S
C786 C787 1.386 . S
C786 C788 1.391 . S
C787 C786 1.386 . S
C787 C791 1.393 . S
C788 H777 0.950 . S
C788 C786 1.391 . S
C788 C789 1.400 . S
C789 C783 1.491 . S
C789 C788 1.400 . S
C789 C790 1.398 . S
C790 H778 0.950 . S
C790 C789 1.398 . S
C790 C791 1.391 . S
C791 H779 0.950 . S
C791 C787 1.393 . S
C791 C790 1.391 . S
H792 C800 0.950 . S
H793 C805 0.950 . S
H794 C802 0.950 . S
H795 C804 0.950 . S
H796 C806 0.950 . S
H797 C808 0.950 . S
H798 C810 0.950 . S
H799 C811 0.950 . S
C800 H792 0.950 . S
C800 C801 1.386 . S
C800 C802 1.391 . S
C801 C800 1.386 . S
C801 C805 1.393 . S
C802 H794 0.950 . S
C802 C800 1.391 . S
C802 C803 1.400 . S
C803 C802 1.400 . S
C803 C804 1.398 . S
C803 C809 1.491 . S
C804 H795 0.950 . S
C804 C803 1.398 . S
C804 C805 1.391 . S
C805 H793 0.950 . S
C805 C801 1.393 . S
C805 C804 1.391 . S
C806 H796 0.950 . S
C806 C807 1.386 . S
C806 C808 1.391 . S
C807 C806 1.386 . S
C807 C811 1.393 . S
C808 H797 0.950 . S
C808 C806 1.391 . S
C808 C809 1.400 . S
C809 C803 1.491 . S
C809 C808 1.400 . S
C809 C810 1.398 . S
C810 H798 0.950 . S
C810 C809 1.398 . S
C810 C811 1.391 . S
C811 H799 0.950 . S
C811 C807 1.393 . S
C811 C810 1.391 . S
H812 C820 0.950 . S
H813 C825 0.950 . S
H814 C822 0.950 . S
H815 C824 0.950 . S
H816 C826 0.950 . S
H817 C828 0.950 . S
H818 C830 0.950 . S
H819 C831 0.950 . S
C820 H812 0.950 . S
C820 C821 1.386 . S
C820 C822 1.391 . S
C821 C820 1.386 . S
C821 C825 1.393 . S
C822 H814 0.950 . S
C822 C820 1.391 . S
C822 C823 1.400 . S
C823 C822 1.400 . S
C823 C824 1.398 . S
C823 C829 1.491 . S
C824 H815 0.950 . S
C824 C823 1.398 . S
C824 C825 1.391 . S
C825 H813 0.950 . S
C825 C821 1.393 . S
C825 C824 1.391 . S
C826 H816 0.950 . S
C826 C827 1.386 . S
C826 C828 1.391 . S
C827 C826 1.386 . S
C827 C831 1.393 . S
C828 H817 0.950 . S
C828 C826 1.391 . S
C828 C829 1.400 . S
C829 C823 1.491 . S
C829 C828 1.400 . S
C829 C830 1.398 . S
C830 H818 0.950 . S
C830 C829 1.398 . S
C830 C831 1.391 . S
C831 H819 0.950 . S
C831 C827 1.393 . S
C831 C830 1.391 . S
H832 C840 0.950 . S
H833 C845 0.950 . S
H834 C842 0.950 . S
H835 C844 0.950 . S
H836 C846 0.950 . S
H837 C848 0.950 . S
H838 C850 0.950 . S
H839 C851 0.950 . S
C840 H832 0.950 . S
C840 C841 1.386 . S
C840 C842 1.391 . S
C841 C840 1.386 . S
C841 C845 1.393 . S
C842 H834 0.950 . S
C842 C840 1.391 . S
C842 C843 1.400 . S
C843 C842 1.400 . S
C843 C844 1.398 . S
C843 C849 1.491 . S
C844 H835 0.950 . S
C844 C843 1.398 . S
C844 C845 1.391 . S
C845 H833 0.950 . S
C845 C841 1.393 . S
C845 C844 1.391 . S
C846 H836 0.950 . S
C846 C847 1.386 . S
C846 C848 1.391 . S
C847 C846 1.386 . S
C847 C851 1.393 . S
C848 H837 0.950 . S
C848 C846 1.391 . S
C848 C849 1.400 . S
C849 C843 1.491 . S
C849 C848 1.400 . S
C849 C850 1.398 . S
C850 H838 0.950 . S
C850 C849 1.398 . S
C850 C851 1.391 . S
C851 H839 0.950 . S
C851 C847 1.393 . S
C851 C850 1.391 . S
H852 C860 0.950 . S
H853 C865 0.950 . S
H854 C862 0.950 . S
H855 C864 0.950 . S
H856 C866 0.950 . S
H857 C868 0.950 . S
H858 C870 0.950 . S
H859 C871 0.950 . S
C860 H852 0.950 . S
C860 C861 1.386 . S
C860 C862 1.391 . S
C861 C860 1.386 . S
C861 C865 1.393 . S
C862 H854 0.950 . S
C862 C860 1.391 . S
C862 C863 1.400 . S
C863 C862 1.400 . S
C863 C864 1.398 . S
C863 C869 1.491 . S
C864 H855 0.950 . S
C864 C863 1.398 . S
C864 C865 1.391 . S
C865 H853 0.950 . S
C865 C861 1.393 . S
C865 C864 1.391 . S
C866 H856 0.950 . S
C866 C867 1.386 . S
C866 C868 1.391 . S
C867 C866 1.386 . S
C867 C871 1.393 . S
C868 H857 0.950 . S
C868 C866 1.391 . S
C868 C869 1.400 . S
C869 C863 1.491 . S
C869 C868 1.400 . S
C869 C870 1.398 . S
C870 H858 0.950 . S
C870 C869 1.398 . S
C870 C871 1.391 . S
C871 H859 0.950 . S
C871 C867 1.393 . S
C871 C870 1.391 . S
H872 C880 0.950 . S
H873 C885 0.950 . S
H874 C882 0.950 . S
H875 C884 0.950 . S
H876 C886 0.950 . S
H877 C888 0.950 . S
H878 C890 0.950 . S
H879 C891 0.950 . S
C880 H872 0.950 . S
C880 C881 1.386 . S
C880 C882 1.391 . S
C881 C880 1.386 . S
C881 C885 1.393 . S
C882 H874 0.950 . S
C882 C880 1.391 . S
C882 C883 1.400 . S
C883 C882 1.400 . S
C883 C884 1.398 . S
C883 C889 1.491 . S
C884 H875 0.950 . S
C884 C883 1.398 . S
C884 C885 1.391 . S
C885 H873 0.950 . S
C885 C881 1.393 . S
C885 C884 1.391 . S
C886 H876 0.950 . S
C886 C887 1.386 . S
C886 C888 1.391 . S
C887 C886 1.386 . S
C887 C891 1.393 . S
C888 H877 0.950 . S
C888 C886 1.391 . S
C888 C889 1.400 . S
C889 C883 1.491 . S
C889 C888 1.400 . S
C889 C890 1.398 . S
C890 H878 0.950 . S
C890 C889 1.398 . S
C890 C891 1.391 . S
C891 H879 0.950 . S
C891 C887 1.393 . S
C891 C890 1.391 . S
H892 C900 0.950 . S
H893 C905 0.950 . S
H894 C902 0.950 . S
H895 C904 0.950 . S
H896 C906 0.950 . S
H897 C908 0.950 . S
H898 C910 0.950 . S
H899 C911 0.950 . S
C900 H892 0.950 . S
C900 C901 1.386 . S
C900 C902 1.391 . S
C901 C900 1.386 . S
C901 C905 1.393 . S
C902 H894 0.950 . S
C902 C900 1.391 . S
C902 C903 1.400 . S
C903 C902 1.400 . S
C903 C904 1.398 . S
C903 C909 1.491 . S
C904 H895 0.950 . S
C904 C903 1.398 . S
C904 C905 1.391 . S
C905 H893 0.950 . S
C905 C901 1.393 . S
C905 C904 1.391 . S
C906 H896 0.950 . S
C906 C907 1.386 . S
C906 C908 1.391 . S
C907 C906 1.386 . S
C907 C911 1.393 . S
C908 H897 0.950 . S
C908 C906 1.391 . S
C908 C909 1.400 . S
C909 C903 1.491 . S
C909 C908 1.400 . S
C909 C910 1.398 . S
C910 H898 0.950 . S
C910 C909 1.398 . S
C910 C911 1.391 . S
C911 H899 0.950 . S
C911 C907 1.393 . S
C911 C910 1.391 . S
C441 C374 1.567 . S
C447 C14 1.534 . S
C461 C50 1.419 . S
C467 C410 1.420 . S
C481 C86 1.561 . S
C487 C230 1.527 . S
C501 C266 1.560 . S
C507 C122 1.526 . S
C521 C302 1.416 . S
C527 C158 1.416 . S
C541 C194 1.564 . S
C547 C338 1.531 . S
C561 C4 0.958 . S
C567 C256 0.969 . S
C581 C40 0.765 . S
C587 C292 0.757 . S
C601 C328 0.958 . S
C607 C76 0.971 . S
C621 C364 0.969 . S
C627 C112 0.957 . S
C641 C400 0.754 . S
C647 C148 0.749 . S
C661 C220 0.990 . S
C667 C184 0.993 . S
C681 C2 0.883 . S
C687 C147 0.869 . S
C701 C38 0.929 . S
C707 C183 0.972 . S
C721 C74 0.868 . S
C727 C3 0.926 . S
C741 C110 0.883 . S
C747 C39 0.869 . S
C761 C146 0.931 . S
C767 C75 0.972 . S
C781 C182 0.875 . S
C787 C111 0.920 . S
C801 C218 0.887 . S
C807 C291 0.863 . S
C821 C254 0.873 . S
C827 C327 0.922 . S
C841 C363 0.967 . S
C847 C290 0.961 . S
C861 C326 0.857 . S
C867 C399 0.883 . S
C881 C362 0.914 . S
C887 C219 0.904 . S
C901 C398 0.932 . S
C907 C255 0.968 . S
