# Generated by pormake.
# Topology umq, (4)-cn, num edge types: 1
# Building blocks:
#     Node 0, Type 0, BuildingBlock: GALJAG_clean_sbu_0, # of connection points: 4
#     Node 1, Type 0, BuildingBlock: GALJAG_clean_sbu_0, # of connection points: 4
#     Node 2, Type 0, BuildingBlock: GALJAG_clean_sbu_0, # of connection points: 4
#     Node 3, Type 0, BuildingBlock: GALJAG_clean_sbu_0, # of connection points: 4
#     Node 4, Type 0, BuildingBlock: GALJAG_clean_sbu_0, # of connection points: 4
#     Node 5, Type 0, BuildingBlock: GALJAG_clean_sbu_0, # of connection points: 4
#     Node 6, Type 0, BuildingBlock: GALJAG_clean_sbu_0, # of connection points: 4
#     Node 7, Type 0, BuildingBlock: GALJAG_clean_sbu_0, # of connection points: 4
#     Node 8, Type 0, BuildingBlock: GALJAG_clean_sbu_0, # of connection points: 4
#     Node 9, Type 0, BuildingBlock: GALJAG_clean_sbu_0, # of connection points: 4
#     Node 10, Type 0, BuildingBlock: GALJAG_clean_sbu_0, # of connection points: 4
#     Node 11, Type 0, BuildingBlock: GALJAG_clean_sbu_0, # of connection points: 4
#     Node 12, Type 0, BuildingBlock: GALJAG_clean_sbu_0, # of connection points: 4
#     Node 13, Type 0, BuildingBlock: GALJAG_clean_sbu_0, # of connection points: 4
#     Node 14, Type 0, BuildingBlock: GALJAG_clean_sbu_0, # of connection points: 4
#     Node 15, Type 0, BuildingBlock: GALJAG_clean_sbu_0, # of connection points: 4
#     Node 16, Type 0, BuildingBlock: GALJAG_clean_sbu_0, # of connection points: 4
#     Node 17, Type 0, BuildingBlock: GALJAG_clean_sbu_0, # of connection points: 4
#     Node 18, Type 0, BuildingBlock: GALJAG_clean_sbu_0, # of connection points: 4
#     Node 19, Type 0, BuildingBlock: GALJAG_clean_sbu_0, # of connection points: 4
#     Node 20, Type 0, BuildingBlock: GALJAG_clean_sbu_0, # of connection points: 4
#     Node 21, Type 0, BuildingBlock: GALJAG_clean_sbu_0, # of connection points: 4
#     Node 22, Type 0, BuildingBlock: GALJAG_clean_sbu_0, # of connection points: 4
#     Node 23, Type 0, BuildingBlock: GALJAG_clean_sbu_0, # of connection points: 4
#     Node 24, Type 0, BuildingBlock: GALJAG_clean_sbu_0, # of connection points: 4
#     Node 25, Type 0, BuildingBlock: GALJAG_clean_sbu_0, # of connection points: 4
#     Node 26, Type 0, BuildingBlock: GALJAG_clean_sbu_0, # of connection points: 4
#     Node 27, Type 0, BuildingBlock: GALJAG_clean_sbu_0, # of connection points: 4
#     Node 28, Type 0, BuildingBlock: GALJAG_clean_sbu_0, # of connection points: 4
#     Node 29, Type 0, BuildingBlock: GALJAG_clean_sbu_0, # of connection points: 4
#     Node 30, Type 0, BuildingBlock: GALJAG_clean_sbu_0, # of connection points: 4
#     Node 31, Type 0, BuildingBlock: GALJAG_clean_sbu_0, # of connection points: 4
#     Edge 32, Type (0, 0), BuildingBlock: MIFKUJ_clean_linker_0, # of connection points: 2
#     Edge 33, Type (0, 0), BuildingBlock: MIFKUJ_clean_linker_0, # of connection points: 2
#     Edge 34, Type (0, 0), BuildingBlock: MIFKUJ_clean_linker_0, # of connection points: 2
#     Edge 35, Type (0, 0), BuildingBlock: MIFKUJ_clean_linker_0, # of connection points: 2
#     Edge 36, Type (0, 0), BuildingBlock: MIFKUJ_clean_linker_0, # of connection points: 2
#     Edge 37, Type (0, 0), BuildingBlock: MIFKUJ_clean_linker_0, # of connection points: 2
#     Edge 38, Type (0, 0), BuildingBlock: MIFKUJ_clean_linker_0, # of connection points: 2
#     Edge 39, Type (0, 0), BuildingBlock: MIFKUJ_clean_linker_0, # of connection points: 2
#     Edge 40, Type (0, 0), BuildingBlock: MIFKUJ_clean_linker_0, # of connection points: 2
#     Edge 41, Type (0, 0), BuildingBlock: MIFKUJ_clean_linker_0, # of connection points: 2
#     Edge 42, Type (0, 0), BuildingBlock: MIFKUJ_clean_linker_0, # of connection points: 2
#     Edge 43, Type (0, 0), BuildingBlock: MIFKUJ_clean_linker_0, # of connection points: 2
#     Edge 44, Type (0, 0), BuildingBlock: MIFKUJ_clean_linker_0, # of connection points: 2
#     Edge 45, Type (0, 0), BuildingBlock: MIFKUJ_clean_linker_0, # of connection points: 2
#     Edge 46, Type (0, 0), BuildingBlock: MIFKUJ_clean_linker_0, # of connection points: 2
#     Edge 47, Type (0, 0), BuildingBlock: MIFKUJ_clean_linker_0, # of connection points: 2
#     Edge 48, Type (0, 0), BuildingBlock: MIFKUJ_clean_linker_0, # of connection points: 2
#     Edge 49, Type (0, 0), BuildingBlock: MIFKUJ_clean_linker_0, # of connection points: 2
#     Edge 50, Type (0, 0), BuildingBlock: MIFKUJ_clean_linker_0, # of connection points: 2
#     Edge 51, Type (0, 0), BuildingBlock: MIFKUJ_clean_linker_0, # of connection points: 2
#     Edge 52, Type (0, 0), BuildingBlock: MIFKUJ_clean_linker_0, # of connection points: 2
#     Edge 53, Type (0, 0), BuildingBlock: MIFKUJ_clean_linker_0, # of connection points: 2
#     Edge 54, Type (0, 0), BuildingBlock: MIFKUJ_clean_linker_0, # of connection points: 2
#     Edge 55, Type (0, 0), BuildingBlock: MIFKUJ_clean_linker_0, # of connection points: 2
#     Edge 56, Type (0, 0), BuildingBlock: MIFKUJ_clean_linker_0, # of connection points: 2
#     Edge 57, Type (0, 0), BuildingBlock: MIFKUJ_clean_linker_0, # of connection points: 2
#     Edge 58, Type (0, 0), BuildingBlock: MIFKUJ_clean_linker_0, # of connection points: 2
#     Edge 59, Type (0, 0), BuildingBlock: MIFKUJ_clean_linker_0, # of connection points: 2
#     Edge 60, Type (0, 0), BuildingBlock: MIFKUJ_clean_linker_0, # of connection points: 2
#     Edge 61, Type (0, 0), BuildingBlock: MIFKUJ_clean_linker_0, # of connection points: 2
#     Edge 62, Type (0, 0), BuildingBlock: MIFKUJ_clean_linker_0, # of connection points: 2
#     Edge 63, Type (0, 0), BuildingBlock: MIFKUJ_clean_linker_0, # of connection points: 2
#     Edge 64, Type (0, 0), BuildingBlock: MIFKUJ_clean_linker_0, # of connection points: 2
#     Edge 65, Type (0, 0), BuildingBlock: MIFKUJ_clean_linker_0, # of connection points: 2
#     Edge 66, Type (0, 0), BuildingBlock: MIFKUJ_clean_linker_0, # of connection points: 2
#     Edge 67, Type (0, 0), BuildingBlock: MIFKUJ_clean_linker_0, # of connection points: 2
#     Edge 68, Type (0, 0), BuildingBlock: MIFKUJ_clean_linker_0, # of connection points: 2
#     Edge 69, Type (0, 0), BuildingBlock: MIFKUJ_clean_linker_0, # of connection points: 2
#     Edge 70, Type (0, 0), BuildingBlock: MIFKUJ_clean_linker_0, # of connection points: 2
#     Edge 71, Type (0, 0), BuildingBlock: MIFKUJ_clean_linker_0, # of connection points: 2
#     Edge 72, Type (0, 0), BuildingBlock: MIFKUJ_clean_linker_0, # of connection points: 2
#     Edge 73, Type (0, 0), BuildingBlock: MIFKUJ_clean_linker_0, # of connection points: 2
#     Edge 74, Type (0, 0), BuildingBlock: MIFKUJ_clean_linker_0, # of connection points: 2
#     Edge 75, Type (0, 0), BuildingBlock: MIFKUJ_clean_linker_0, # of connection points: 2
#     Edge 76, Type (0, 0), BuildingBlock: MIFKUJ_clean_linker_0, # of connection points: 2
#     Edge 77, Type (0, 0), BuildingBlock: MIFKUJ_clean_linker_0, # of connection points: 2
#     Edge 78, Type (0, 0), BuildingBlock: MIFKUJ_clean_linker_0, # of connection points: 2
#     Edge 79, Type (0, 0), BuildingBlock: MIFKUJ_clean_linker_0, # of connection points: 2
#     Edge 80, Type (0, 0), BuildingBlock: MIFKUJ_clean_linker_0, # of connection points: 2
#     Edge 81, Type (0, 0), BuildingBlock: MIFKUJ_clean_linker_0, # of connection points: 2
#     Edge 82, Type (0, 0), BuildingBlock: MIFKUJ_clean_linker_0, # of connection points: 2
#     Edge 83, Type (0, 0), BuildingBlock: MIFKUJ_clean_linker_0, # of connection points: 2
#     Edge 84, Type (0, 0), BuildingBlock: MIFKUJ_clean_linker_0, # of connection points: 2
#     Edge 85, Type (0, 0), BuildingBlock: MIFKUJ_clean_linker_0, # of connection points: 2
#     Edge 86, Type (0, 0), BuildingBlock: MIFKUJ_clean_linker_0, # of connection points: 2
#     Edge 87, Type (0, 0), BuildingBlock: MIFKUJ_clean_linker_0, # of connection points: 2
#     Edge 88, Type (0, 0), BuildingBlock: MIFKUJ_clean_linker_0, # of connection points: 2
#     Edge 89, Type (0, 0), BuildingBlock: MIFKUJ_clean_linker_0, # of connection points: 2
#     Edge 90, Type (0, 0), BuildingBlock: MIFKUJ_clean_linker_0, # of connection points: 2
#     Edge 91, Type (0, 0), BuildingBlock: MIFKUJ_clean_linker_0, # of connection points: 2
#     Edge 92, Type (0, 0), BuildingBlock: MIFKUJ_clean_linker_0, # of connection points: 2
#     Edge 93, Type (0, 0), BuildingBlock: MIFKUJ_clean_linker_0, # of connection points: 2
#     Edge 94, Type (0, 0), BuildingBlock: MIFKUJ_clean_linker_0, # of connection points: 2
#     Edge 95, Type (0, 0), BuildingBlock: MIFKUJ_clean_linker_0, # of connection points: 2
# Relax obj value: 0.107
# Max RMSD: 0.085
# Mean RMSD: 0.085
data_MOF--net-umq--node1-GALJAG_clean_sbu_0--edge1-MIFKUJ_clean_linker_0
_symmetry_space_group_name_H-M    P1
_symmetry_Int_Tables_number       1
_symmetry_cell_setting            triclinic
loop_
_symmetry_equiv_pos_as_xyz
'x, y, z'
_cell_length_a     81.783508
_cell_length_b     81.787846
_cell_length_c     62.246099
_cell_angle_alpha  89.999053
_cell_angle_beta   89.994372
_cell_angle_gamma 90.002744
loop_
_atom_site_label
_atom_site_type_symbol
_atom_site_fract_x
_atom_site_fract_y
_atom_site_fract_z
_atom_type_partial_charge
In0 In 0.23103 0.09698 0.15882 0.0
O1 O 0.20441 0.10134 0.16932 0.0
O2 O 0.22328 0.11415 0.18554 0.0
C3 C 0.22529 0.09133 0.1168 0.0
C4 C 0.23526 0.0691 0.18141 0.0
C5 C 0.25673 0.11726 0.15363 0.0
O6 O 0.21623 0.10049 0.12801 0.0
O7 O 0.23694 0.08478 0.12694 0.0
O8 O 0.25836 0.10274 0.16014 0.0
O9 O 0.2422 0.12147 0.1497 0.0
C10 C 0.2082 0.1113 0.18399 0.0
O11 O 0.2418 0.08246 0.18665 0.0
O12 O 0.22674 0.06968 0.16454 0.0
In13 In 0.90219 0.23321 0.15542 0.0
O14 O 0.88268 0.21331 0.15816 0.0
O15 O 0.90089 0.21431 0.18238 0.0
C16 C 0.90959 0.22866 0.11342 0.0
C17 C 0.92964 0.23863 0.17831 0.0
C18 C 0.88015 0.25787 0.15782 0.0
O19 O 0.90685 0.21693 0.12607 0.0
O20 O 0.90885 0.24259 0.12202 0.0
O21 O 0.89536 0.2604 0.15777 0.0
O22 O 0.87616 0.24304 0.15666 0.0
C23 C 0.88811 0.20748 0.17551 0.0
O24 O 0.91574 0.24354 0.1843 0.0
O25 O 0.92976 0.2311 0.16059 0.0
In26 In 0.76722 0.90267 0.15777 0.0
O27 O 0.75362 0.92353 0.17419 0.0
O28 O 0.77918 0.92628 0.16927 0.0
C29 C 0.74275 0.88048 0.15644 0.0
C30 C 0.78799 0.88731 0.18471 0.0
C31 C 0.77213 0.90971 0.11581 0.0
O32 O 0.74092 0.8946 0.16423 0.0
O33 O 0.75686 0.87761 0.14922 0.0
O34 O 0.78278 0.90275 0.12726 0.0
O35 O 0.75914 0.91335 0.1256 0.0
C36 C 0.76618 0.93226 0.17684 0.0
O37 O 0.79109 0.88919 0.16499 0.0
O38 O 0.77444 0.89308 0.19071 0.0
In39 In 0.09726 0.76796 0.1582 0.0
O40 O 0.09847 0.7944 0.17048 0.0
O41 O 0.11944 0.77933 0.17412 0.0
C42 C 0.08898 0.7734 0.11678 0.0
C43 C 0.07137 0.76272 0.18429 0.0
C44 C 0.11764 0.74208 0.15571 0.0
O45 O 0.0947 0.78452 0.12866 0.0
O46 O 0.08723 0.75976 0.1259 0.0
O47 O 0.10412 0.74139 0.16546 0.0
O48 O 0.12076 0.75572 0.1472 0.0
C49 C 0.11292 0.79306 0.17743 0.0
O50 O 0.08587 0.76328 0.19106 0.0
O51 O 0.06989 0.7646 0.16429 0.0
In52 In 0.22878 0.9035 0.34675 0.0
O53 O 0.20262 0.90217 0.33343 0.0
O54 O 0.21804 0.88146 0.32986 0.0
C55 C 0.22304 0.91137 0.38825 0.0
C56 C 0.2336 0.92927 0.32038 0.0
C57 C 0.2552 0.88386 0.3501 0.0
O58 O 0.21273 0.90373 0.37698 0.0
O59 O 0.23594 0.9153 0.37844 0.0
O60 O 0.25585 0.8977 0.34119 0.0
O61 O 0.24134 0.88006 0.3574 0.0
C62 C 0.20433 0.88787 0.32609 0.0
O63 O 0.23498 0.91466 0.31424 0.0
O64 O 0.22998 0.93096 0.33996 0.0
In65 In 0.09596 0.2324 0.34201 0.0
O66 O 0.08441 0.23786 0.30959 0.0
O67 O 0.06854 0.23644 0.33656 0.0
C68 C 0.11658 0.25789 0.3366 0.0
C69 C 0.10986 0.20498 0.3261 0.0
C70 C 0.09004 0.22886 0.3847 0.0
O71 O 0.10133 0.25976 0.33855 0.0
O72 O 0.12132 0.24323 0.33714 0.0
O73 O 0.088 0.21733 0.37154 0.0
O74 O 0.09477 0.24202 0.37631 0.0
C75 C 0.06995 0.23857 0.31655 0.0
O76 O 0.11764 0.21522 0.33729 0.0
O77 O 0.09492 0.20827 0.32358 0.0
In78 In 0.76955 0.09565 0.34561 0.0
O79 O 0.794 0.10762 0.33681 0.0
O80 O 0.77402 0.11066 0.31543 0.0
C81 C 0.77667 0.08738 0.38652 0.0
C82 C 0.7684 0.06681 0.32458 0.0
C83 C 0.74381 0.11593 0.35086 0.0
O84 O 0.78556 0.09687 0.37558 0.0
O85 O 0.76436 0.08184 0.37669 0.0
O86 O 0.74397 0.10465 0.33705 0.0
O87 O 0.75661 0.11698 0.36208 0.0
C88 C 0.78885 0.11353 0.31934 0.0
O89 O 0.7557 0.07426 0.33061 0.0
O90 O 0.78163 0.07365 0.32975 0.0
In91 In 0.90366 0.76618 0.34504 0.0
O92 O 0.88746 0.789 0.34286 0.0
O93 O 0.89834 0.78013 0.3142 0.0
C94 C 0.91225 0.77098 0.38643 0.0
C95 C 0.93145 0.76081 0.32283 0.0
C96 C 0.88106 0.74209 0.34649 0.0
O97 O 0.91015 0.78269 0.3735 0.0
O98 O 0.91028 0.75698 0.37837 0.0
O99 O 0.89612 0.73925 0.34431 0.0
O100 O 0.87743 0.75702 0.34788 0.0
C101 C 0.88917 0.79062 0.32283 0.0
O102 O 0.918 0.75422 0.318 0.0
O103 O 0.93099 0.76997 0.33915 0.0
In104 In 0.76499 0.90317 0.84451 0.0
O105 O 0.79118 0.89562 0.83605 0.0
O106 O 0.7724 0.89067 0.8134 0.0
C107 C 0.7707 0.90962 0.88639 0.0
C108 C 0.7606 0.93151 0.82304 0.0
C109 C 0.74117 0.88062 0.8493 0.0
O110 O 0.78043 0.90138 0.87498 0.0
O111 O 0.75824 0.91484 0.87658 0.0
O112 O 0.73818 0.89549 0.84563 0.0
O113 O 0.75615 0.87715 0.85065 0.0
C114 C 0.7874 0.88982 0.81792 0.0
O115 O 0.75129 0.91935 0.82082 0.0
O116 O 0.77196 0.92954 0.8365 0.0
In117 In 0.09362 0.76559 0.84694 0.0
O118 O 0.0756 0.75187 0.82573 0.0
O119 O 0.06836 0.77512 0.83774 0.0
C120 C 0.11548 0.74082 0.84711 0.0
C121 C 0.10969 0.78751 0.82233 0.0
C122 C 0.08591 0.77097 0.88862 0.0
O123 O 0.10043 0.73853 0.84385 0.0
O124 O 0.11941 0.7555 0.8504 0.0
O125 O 0.08956 0.78239 0.87589 0.0
O126 O 0.08591 0.75695 0.88027 0.0
C127 C 0.06477 0.76286 0.82634 0.0
O128 O 0.11157 0.78673 0.84242 0.0
O129 O 0.09961 0.7774 0.81472 0.0
In130 In 0.23277 0.09815 0.84441 0.0
O131 O 0.20706 0.10564 0.83358 0.0
O132 O 0.22721 0.1124 0.81393 0.0
C133 C 0.22709 0.09256 0.88661 0.0
C134 C 0.23518 0.06933 0.82352 0.0
C135 C 0.25777 0.11947 0.84807 0.0
O136 O 0.2185 0.10225 0.8756 0.0
O137 O 0.23827 0.08547 0.87625 0.0
O138 O 0.2599 0.10465 0.84313 0.0
O139 O 0.24306 0.12347 0.85126 0.0
C140 C 0.21193 0.11258 0.81661 0.0
O141 O 0.24679 0.07947 0.82432 0.0
O142 O 0.22255 0.07352 0.83376 0.0
In143 In 0.90371 0.23335 0.84246 0.0
O144 O 0.89961 0.20693 0.83077 0.0
O145 O 0.88437 0.2257 0.81848 0.0
C146 C 0.91044 0.22764 0.88428 0.0
C147 C 0.93081 0.23825 0.81835 0.0
C148 C 0.88287 0.25848 0.84804 0.0
O149 O 0.90305 0.21736 0.87266 0.0
O150 O 0.91466 0.24056 0.87469 0.0
O151 O 0.89729 0.26051 0.84128 0.0
O152 O 0.87914 0.24385 0.85228 0.0
C153 C 0.88799 0.21075 0.81839 0.0
O154 O 0.91717 0.24454 0.81391 0.0
O155 O 0.93091 0.22966 0.83516 0.0
In156 In 0.76946 0.09579 0.65541 0.0
O157 O 0.79539 0.09809 0.66886 0.0
O158 O 0.78031 0.1193 0.66853 0.0
C159 C 0.77687 0.0867 0.61473 0.0
C160 C 0.76508 0.06975 0.68161 0.0
C161 C 0.74277 0.11534 0.65426 0.0
O162 O 0.78691 0.09406 0.62667 0.0
O163 O 0.76333 0.08359 0.62347 0.0
O164 O 0.74409 0.10362 0.66731 0.0
O165 O 0.75479 0.11708 0.64182 0.0
C166 C 0.79388 0.11304 0.67361 0.0
O167 O 0.76167 0.06926 0.66186 0.0
O168 O 0.7705 0.0833 0.68804 0.0
In169 In 0.90255 0.77101 0.65614 0.0
O170 O 0.91657 0.7584 0.68291 0.0
O171 O 0.9295 0.77549 0.66347 0.0
C172 C 0.88045 0.74643 0.6573 0.0
C173 C 0.88835 0.7962 0.67736 0.0
C174 C 0.91133 0.77462 0.61445 0.0
O175 O 0.8955 0.74417 0.66051 0.0
O176 O 0.87654 0.76108 0.65369 0.0
O177 O 0.90855 0.78667 0.62655 0.0
O178 O 0.90991 0.76091 0.62345 0.0
C179 C 0.92989 0.76567 0.67914 0.0
O180 O 0.88321 0.79119 0.65943 0.0
O181 O 0.90066 0.78866 0.68436 0.0
In182 In 0.231 0.9029 0.65913 0.0
O183 O 0.20674 0.8902 0.66635 0.0
O184 O 0.22531 0.88949 0.69026 0.0
C185 C 0.22538 0.91101 0.61763 0.0
C186 C 0.23207 0.93175 0.68023 0.0
C187 C 0.25583 0.88128 0.65596 0.0
O188 O 0.21514 0.90324 0.62882 0.0
O189 O 0.23824 0.91496 0.62749 0.0
O190 O 0.25719 0.89466 0.66589 0.0
O191 O 0.24202 0.87889 0.64753 0.0
C192 C 0.21102 0.8854 0.68481 0.0
O193 O 0.24477 0.92423 0.67438 0.0
O194 O 0.21883 0.92492 0.675 0.0
In195 In 0.09843 0.23203 0.65668 0.0
O196 O 0.09871 0.20755 0.67427 0.0
O197 O 0.12103 0.21591 0.66078 0.0
C198 C 0.09401 0.22759 0.61385 0.0
C199 C 0.07161 0.23738 0.68104 0.0
C200 C 0.1163 0.25929 0.66358 0.0
O201 O 0.08891 0.21743 0.62754 0.0
O202 O 0.10128 0.23973 0.62177 0.0
O203 O 0.1018 0.25979 0.65667 0.0
O204 O 0.12164 0.24511 0.66727 0.0
C205 C 0.1138 0.20509 0.67168 0.0
O206 O 0.08574 0.23574 0.6888 0.0
O207 O 0.07093 0.23652 0.66082 0.0
In208 In 0.73367 0.59851 0.6566 0.0
O209 O 0.70797 0.60726 0.66541 0.0
O210 O 0.72775 0.6144 0.68551 0.0
C211 C 0.72894 0.5908 0.61476 0.0
C212 C 0.73518 0.57045 0.67935 0.0
C213 C 0.75845 0.62014 0.65346 0.0
O214 O 0.7197 0.60044 0.62487 0.0
O215 O 0.74035 0.5848 0.62585 0.0
O216 O 0.76026 0.60612 0.66161 0.0
O217 O 0.74421 0.62315 0.64674 0.0
C218 C 0.71259 0.61499 0.6819 0.0
O219 O 0.74768 0.57888 0.67512 0.0
O220 O 0.72203 0.57594 0.67165 0.0
In221 In 0.40243 0.73276 0.65439 0.0
O222 O 0.3857 0.71044 0.6582 0.0
O223 O 0.39653 0.72042 0.68625 0.0
C224 C 0.4112 0.72892 0.61281 0.0
C225 C 0.43108 0.73618 0.67521 0.0
C226 C 0.37988 0.75691 0.65391 0.0
O227 O 0.40721 0.71704 0.62463 0.0
O228 O 0.41102 0.74263 0.62205 0.0
O229 O 0.3944 0.75917 0.66003 0.0
O230 O 0.37676 0.74251 0.64799 0.0
C231 C 0.38731 0.70967 0.67833 0.0
O232 O 0.41963 0.74646 0.67665 0.0
O233 O 0.42823 0.72427 0.66283 0.0
In234 In 0.26523 0.4028 0.65524 0.0
O235 O 0.25131 0.42293 0.67275 0.0
O236 O 0.27645 0.427 0.66579 0.0
C237 C 0.23847 0.38344 0.65866 0.0
C238 C 0.28897 0.38966 0.67985 0.0
C239 C 0.27098 0.40497 0.61243 0.0
O240 O 0.23773 0.39776 0.65123 0.0
O241 O 0.25257 0.37898 0.6642 0.0
O242 O 0.27358 0.39216 0.62312 0.0
O243 O 0.26568 0.41682 0.62334 0.0
C244 C 0.26352 0.43229 0.67443 0.0
O245 O 0.29029 0.39074 0.65967 0.0
O246 O 0.27583 0.39528 0.68744 0.0
In247 In 0.59979 0.26647 0.65578 0.0
O248 O 0.57711 0.25417 0.66963 0.0
O249 O 0.57787 0.28014 0.66966 0.0
C250 C 0.61996 0.24025 0.65542 0.0
C251 C 0.61762 0.2867 0.68076 0.0
C252 C 0.59234 0.27151 0.61398 0.0
O253 O 0.60718 0.24077 0.66671 0.0
O254 O 0.62251 0.25287 0.64432 0.0
O255 O 0.60006 0.28186 0.62507 0.0
O256 O 0.58809 0.25885 0.62409 0.0
C257 C 0.5701 0.26737 0.67467 0.0
O258 O 0.61595 0.28897 0.66082 0.0
O259 O 0.61033 0.27428 0.688 0.0
In260 In 0.73491 0.40523 0.84501 0.0
O261 O 0.71184 0.39011 0.83905 0.0
O262 O 0.727 0.39572 0.81231 0.0
C263 C 0.73012 0.41287 0.88683 0.0
C264 C 0.73651 0.43435 0.82475 0.0
C265 C 0.75939 0.38315 0.8469 0.0
O266 O 0.71875 0.40773 0.87491 0.0
O267 O 0.74371 0.41448 0.87753 0.0
O268 O 0.76157 0.39762 0.84051 0.0
O269 O 0.74492 0.37987 0.85241 0.0
C270 C 0.71428 0.38871 0.8191 0.0
O271 O 0.74869 0.425 0.82669 0.0
O272 O 0.72358 0.4292 0.83352 0.0
In273 In 0.59417 0.73345 0.84483 0.0
O274 O 0.60373 0.70803 0.83584 0.0
O275 O 0.60879 0.72782 0.81473 0.0
C276 C 0.58617 0.72771 0.88623 0.0
C277 C 0.56625 0.73628 0.822 0.0
C278 C 0.61621 0.7575 0.85095 0.0
O279 O 0.59422 0.71765 0.87508 0.0
O280 O 0.58192 0.7405 0.87638 0.0
O281 O 0.6017 0.76032 0.84509 0.0
O282 O 0.6195 0.7426 0.85392 0.0
C283 C 0.61037 0.71277 0.81862 0.0
O284 O 0.57706 0.74726 0.82229 0.0
O285 O 0.56932 0.72405 0.83363 0.0
In286 In 0.2658 0.59626 0.8425 0.0
O287 O 0.25213 0.57649 0.824 0.0
O288 O 0.2774 0.57266 0.83015 0.0
C289 C 0.24085 0.61795 0.84416 0.0
C290 C 0.28724 0.6112 0.81611 0.0
C291 C 0.27116 0.59004 0.8847 0.0
O292 O 0.23868 0.60301 0.84007 0.0
O293 O 0.25551 0.62188 0.84759 0.0
O294 O 0.27988 0.5997 0.87389 0.0
O295 O 0.25989 0.58325 0.87417 0.0
C296 C 0.26447 0.56743 0.8215 0.0
O297 O 0.29088 0.60711 0.83509 0.0
O298 O 0.27282 0.60774 0.8105 0.0
In299 In 0.40444 0.26758 0.84044 0.0
O300 O 0.39027 0.29136 0.83559 0.0
O301 O 0.39452 0.27631 0.8083 0.0
C302 C 0.41321 0.272 0.88194 0.0
C303 C 0.43276 0.26647 0.8183 0.0
C304 C 0.38251 0.24293 0.84343 0.0
O305 O 0.40586 0.28282 0.87123 0.0
O306 O 0.41641 0.25914 0.87162 0.0
O307 O 0.39719 0.24062 0.83803 0.0
O308 O 0.37892 0.25762 0.84728 0.0
C309 C 0.3884 0.28931 0.81563 0.0
O310 O 0.42286 0.25465 0.81894 0.0
O311 O 0.42858 0.27874 0.82931 0.0
In312 In 0.26922 0.39862 0.3394 0.0
O313 O 0.29533 0.39072 0.33102 0.0
O314 O 0.27601 0.38355 0.31017 0.0
C315 C 0.27479 0.40312 0.38197 0.0
C316 C 0.26781 0.42661 0.31641 0.0
C317 C 0.24259 0.3791 0.34045 0.0
O318 O 0.28 0.39092 0.37171 0.0
O319 O 0.26704 0.41331 0.3707 0.0
O320 O 0.24148 0.39449 0.33965 0.0
O321 O 0.25702 0.37371 0.34098 0.0
C322 C 0.29113 0.38321 0.31416 0.0
O323 O 0.25555 0.4175 0.31922 0.0
O324 O 0.28068 0.42186 0.32569 0.0
In325 In 0.59503 0.26083 0.34259 0.0
O326 O 0.57945 0.24649 0.31881 0.0
O327 O 0.56838 0.26668 0.3346 0.0
C328 C 0.61734 0.23684 0.34823 0.0
C329 C 0.60764 0.28301 0.31517 0.0
C330 C 0.58967 0.26825 0.38427 0.0
O331 O 0.60218 0.23432 0.34988 0.0
O332 O 0.6212 0.25136 0.34381 0.0
O333 O 0.59929 0.27646 0.37261 0.0
O334 O 0.58259 0.25663 0.37476 0.0
C335 C 0.56691 0.25527 0.32109 0.0
O336 O 0.60188 0.2871 0.33325 0.0
O337 O 0.60697 0.26792 0.31116 0.0
In338 In 0.7329 0.59556 0.34328 0.0
O339 O 0.70809 0.60744 0.33658 0.0
O340 O 0.7252 0.60585 0.31094 0.0
C341 C 0.7282 0.58817 0.38511 0.0
C342 C 0.73552 0.56694 0.32211 0.0
C343 C 0.7569 0.61808 0.34665 0.0
O344 O 0.71779 0.59593 0.37418 0.0
O345 O 0.74076 0.58385 0.37482 0.0
O346 O 0.75977 0.60323 0.34277 0.0
O347 O 0.74199 0.62153 0.34893 0.0
C348 C 0.71126 0.61046 0.31712 0.0
O349 O 0.7464 0.57785 0.32147 0.0
O350 O 0.72337 0.57032 0.33382 0.0
In351 In 0.40136 0.73583 0.3432 0.0
O352 O 0.38456 0.71368 0.33925 0.0
O353 O 0.39194 0.72635 0.31109 0.0
C354 C 0.41068 0.73082 0.38438 0.0
C355 C 0.42986 0.7371 0.32147 0.0
C356 C 0.38006 0.761 0.34577 0.0
O357 O 0.40543 0.71947 0.37254 0.0
O358 O 0.41152 0.74458 0.37535 0.0
O359 O 0.39429 0.76261 0.33827 0.0
O360 O 0.37659 0.74674 0.35194 0.0
C361 C 0.38386 0.7147 0.31904 0.0
O362 O 0.42037 0.7492 0.32305 0.0
O363 O 0.42515 0.72444 0.33128 0.0
In364 In 0.26577 0.59566 0.15632 0.0
O365 O 0.25269 0.57462 0.17306 0.0
O366 O 0.27846 0.57286 0.16928 0.0
C367 C 0.2405 0.61688 0.1539 0.0
C368 C 0.28585 0.61239 0.18276 0.0
C369 C 0.2713 0.58847 0.1145 0.0
O370 O 0.23907 0.60283 0.16205 0.0
O371 O 0.25458 0.62012 0.14687 0.0
O372 O 0.28104 0.59688 0.12564 0.0
O373 O 0.25894 0.58334 0.12456 0.0
C374 C 0.26553 0.56649 0.17655 0.0
O375 O 0.28947 0.60943 0.16343 0.0
O376 O 0.27218 0.60688 0.18871 0.0
In377 In 0.40434 0.26378 0.15165 0.0
O378 O 0.38158 0.27675 0.16376 0.0
O379 O 0.40425 0.28915 0.16729 0.0
C380 C 0.41405 0.26996 0.11091 0.0
C381 C 0.42932 0.25771 0.17882 0.0
C382 C 0.38368 0.23806 0.1485 0.0
O383 O 0.4071 0.28059 0.12239 0.0
O384 O 0.41642 0.25646 0.12015 0.0
O385 O 0.39674 0.23739 0.15924 0.0
O386 O 0.38117 0.25157 0.13937 0.0
C387 C 0.38901 0.28922 0.17054 0.0
O388 O 0.41468 0.25886 0.18502 0.0
O389 O 0.43137 0.25938 0.15885 0.0
In390 In 0.72791 0.40031 0.15841 0.0
O391 O 0.70859 0.38013 0.16028 0.0
O392 O 0.70751 0.39915 0.18339 0.0
C393 C 0.7251 0.40843 0.11638 0.0
C394 C 0.73233 0.42725 0.18255 0.0
C395 C 0.75308 0.37892 0.16149 0.0
O396 O 0.71286 0.40497 0.12784 0.0
O397 O 0.73856 0.40801 0.12618 0.0
O398 O 0.75509 0.39417 0.16247 0.0
O399 O 0.73845 0.37449 0.15917 0.0
C400 C 0.70155 0.38592 0.17664 0.0
O401 O 0.73687 0.4132 0.18851 0.0
O402 O 0.72564 0.42775 0.16427 0.0
In403 In 0.59536 0.73267 0.15633 0.0
O404 O 0.61138 0.71009 0.161 0.0
O405 O 0.60436 0.72351 0.18876 0.0
C406 C 0.58673 0.72755 0.11492 0.0
C407 C 0.56627 0.73393 0.1766 0.0
C408 C 0.61756 0.75715 0.15547 0.0
O409 O 0.59248 0.71641 0.12671 0.0
O410 O 0.58507 0.74118 0.12412 0.0
O411 O 0.60384 0.7586 0.16453 0.0
O412 O 0.61999 0.74346 0.14676 0.0
C413 C 0.61206 0.71146 0.18118 0.0
O414 O 0.57447 0.74658 0.17229 0.0
O415 O 0.57252 0.72071 0.17014 0.0
H416 H 0.35381 0.23824 0.12932 0.0
H417 H 0.33341 0.21643 0.12921 0.0
H418 H 0.36625 0.18536 0.16487 0.0
H419 H 0.38682 0.20723 0.16511 0.0
H420 H 0.34941 0.16926 0.13049 0.0
H421 H 0.3378 0.20334 0.19167 0.0
H422 H 0.33271 0.22952 0.21013 0.0
H423 H 0.29049 0.23777 0.17059 0.0
H424 H 0.29548 0.21174 0.15166 0.0
H425 H 0.28866 0.11206 0.16466 0.0
H426 H 0.31129 0.13159 0.16251 0.0
H427 H 0.27879 0.16756 0.13513 0.0
H428 H 0.25609 0.14824 0.13765 0.0
H429 H 0.29634 0.18068 0.16613 0.0
H430 H 0.30746 0.14747 0.10449 0.0
H431 H 0.31232 0.12182 0.08468 0.0
H432 H 0.35485 0.11235 0.12315 0.0
H433 H 0.35011 0.13784 0.14342 0.0
C434 C 0.35676 0.22674 0.13702 0.0
C435 C 0.37186 0.22446 0.14736 0.0
C436 C 0.34508 0.21431 0.13696 0.0
C437 C 0.3483 0.19938 0.1472 0.0
C438 C 0.36357 0.19683 0.1569 0.0
C439 C 0.37525 0.20933 0.15709 0.0
C440 C 0.33536 0.18677 0.14854 0.0
C441 C 0.33788 0.17161 0.13853 0.0
C442 C 0.32022 0.19007 0.15862 0.0
C443 C 0.31711 0.20566 0.17012 0.0
C444 C 0.32751 0.21079 0.1868 0.0
C445 C 0.32463 0.2256 0.19737 0.0
C446 C 0.31131 0.23532 0.1915 0.0
C447 C 0.30082 0.23024 0.1751 0.0
C448 C 0.30365 0.21545 0.16446 0.0
C449 C 0.28638 0.1241 0.15806 0.0
C450 C 0.27062 0.12865 0.15136 0.0
C451 C 0.29933 0.13522 0.15676 0.0
C452 C 0.29675 0.151 0.14851 0.0
C453 C 0.28105 0.15547 0.14158 0.0
C454 C 0.2681 0.1444 0.14299 0.0
C455 C 0.31024 0.16312 0.14787 0.0
C456 C 0.30785 0.17823 0.15809 0.0
C457 C 0.32542 0.1598 0.13782 0.0
C458 C 0.32833 0.14448 0.12563 0.0
C459 C 0.31777 0.13985 0.10885 0.0
C460 C 0.32052 0.12535 0.09752 0.0
C461 C 0.33386 0.11544 0.1027 0.0
C462 C 0.34451 0.12003 0.11919 0.0
C463 C 0.3418 0.13451 0.13059 0.0
H464 H 0.33597 0.10422 0.0939 0.0
H465 H 0.3091 0.24678 0.1997 0.0
H466 H 0.84705 0.25474 0.15751 0.0
H467 H 0.82663 0.27649 0.15843 0.0
H468 H 0.86497 0.31265 0.16136 0.0
H469 H 0.88557 0.29084 0.1606 0.0
H470 H 0.83989 0.31922 0.18962 0.0
H471 H 0.84567 0.30651 0.11503 0.0
H472 H 0.84692 0.28857 0.08324 0.0
H473 H 0.79757 0.27292 0.0947 0.0
H474 H 0.7961 0.2906 0.12676 0.0
H475 H 0.78574 0.38554 0.16507 0.0
H476 H 0.80836 0.3659 0.16496 0.0
H477 H 0.77388 0.32617 0.15971 0.0
H478 H 0.75128 0.34571 0.15955 0.0
H479 H 0.79849 0.32279 0.13153 0.0
H480 H 0.79314 0.33449 0.20701 0.0
H481 H 0.79191 0.35219 0.23903 0.0
H482 H 0.84038 0.36974 0.22594 0.0
H483 H 0.84181 0.35229 0.19365 0.0
C484 C 0.85116 0.26732 0.15837 0.0
C485 C 0.86791 0.27111 0.15885 0.0
C486 C 0.83947 0.27973 0.15884 0.0
C487 C 0.8443 0.29618 0.15968 0.0
C488 C 0.86101 0.30002 0.16063 0.0
C489 C 0.87275 0.28757 0.16014 0.0
C490 C 0.8318 0.30929 0.15939 0.0
C491 C 0.83099 0.3202 0.17676 0.0
C492 C 0.82004 0.31035 0.14278 0.0
C493 C 0.82083 0.29978 0.12341 0.0
C494 C 0.83513 0.29915 0.11087 0.0
C495 C 0.83587 0.28904 0.09278 0.0
C496 C 0.82234 0.27958 0.08698 0.0
C497 C 0.80804 0.28025 0.09922 0.0
C498 C 0.80724 0.29032 0.11734 0.0
C499 C 0.783 0.37261 0.16401 0.0
C500 C 0.76676 0.36715 0.16232 0.0
C501 C 0.79592 0.36141 0.16401 0.0
C502 C 0.79279 0.34457 0.16246 0.0
C503 C 0.77656 0.33911 0.16089 0.0
C504 C 0.76367 0.35028 0.16087 0.0
C505 C 0.80639 0.33258 0.16194 0.0
C506 C 0.80743 0.3219 0.14435 0.0
C507 C 0.81834 0.33175 0.17835 0.0
C508 C 0.81751 0.34222 0.19778 0.0
C509 C 0.80348 0.34222 0.21085 0.0
C510 C 0.80276 0.35219 0.22907 0.0
C511 C 0.81604 0.36212 0.23448 0.0
C512 C 0.83009 0.36206 0.22171 0.0
C513 C 0.83087 0.35213 0.20346 0.0
H514 H 0.81546 0.36983 0.24859 0.0
H515 H 0.82294 0.27176 0.07298 0.0
H516 H 0.64818 0.75602 0.13831 0.0
H517 H 0.66901 0.77744 0.13887 0.0
H518 H 0.63596 0.80923 0.17313 0.0
H519 H 0.61496 0.78785 0.17247 0.0
H520 H 0.65178 0.82516 0.14064 0.0
H521 H 0.66624 0.79028 0.19957 0.0
H522 H 0.67281 0.76417 0.21741 0.0
H523 H 0.71424 0.75782 0.17588 0.0
H524 H 0.70778 0.78378 0.15755 0.0
H525 H 0.71171 0.88357 0.17212 0.0
H526 H 0.69005 0.86293 0.17206 0.0
H527 H 0.72223 0.8291 0.1398 0.0
H528 H 0.74401 0.84958 0.1401 0.0
H529 H 0.70646 0.81446 0.17219 0.0
H530 H 0.69177 0.84874 0.11264 0.0
H531 H 0.68531 0.87472 0.09442 0.0
H532 H 0.64445 0.88204 0.13667 0.0
H533 H 0.65081 0.85619 0.15534 0.0
C534 C 0.64533 0.76758 0.14593 0.0
C535 C 0.62997 0.77026 0.15542 0.0
C536 C 0.65726 0.77978 0.14631 0.0
C537 C 0.65409 0.79485 0.15627 0.0
C538 C 0.63866 0.79767 0.16542 0.0
C539 C 0.62671 0.78545 0.16507 0.0
C540 C 0.66691 0.80763 0.15711 0.0
C541 C 0.66366 0.82292 0.14782 0.0
C542 C 0.68252 0.80454 0.16605 0.0
C543 C 0.68644 0.78892 0.17706 0.0
C544 C 0.67667 0.78325 0.19411 0.0
C545 C 0.68039 0.76849 0.20434 0.0
C546 C 0.69392 0.75934 0.19777 0.0
C547 C 0.70376 0.76493 0.18095 0.0
C548 C 0.70008 0.77967 0.17064 0.0
C549 C 0.71415 0.87174 0.16497 0.0
C550 C 0.72953 0.86819 0.15607 0.0
C551 C 0.70175 0.85999 0.16488 0.0
C552 C 0.70447 0.84452 0.15574 0.0
C553 C 0.71986 0.84095 0.14693 0.0
C554 C 0.73227 0.85268 0.14705 0.0
C555 C 0.69138 0.83198 0.1556 0.0
C556 C 0.69457 0.81673 0.16505 0.0
C557 C 0.67574 0.83509 0.14676 0.0
C558 C 0.67187 0.85061 0.13553 0.0
C559 C 0.68149 0.85595 0.11816 0.0
C560 C 0.67783 0.87064 0.10773 0.0
C561 C 0.66451 0.88005 0.11442 0.0
C562 C 0.65479 0.87475 0.13153 0.0
C563 C 0.6584 0.86008 0.14202 0.0
H564 H 0.6617 0.89142 0.10633 0.0
H565 H 0.69681 0.74796 0.20576 0.0
H566 H 0.20922 0.61295 0.16854 0.0
H567 H 0.18725 0.63331 0.16858 0.0
H568 H 0.21931 0.66801 0.13774 0.0
H569 H 0.24133 0.64782 0.13784 0.0
H570 H 0.20368 0.6815 0.17131 0.0
H571 H 0.18914 0.64911 0.10978 0.0
H572 H 0.18254 0.62372 0.09028 0.0
H573 H 0.14127 0.61573 0.13161 0.0
H574 H 0.14776 0.64098 0.15157 0.0
H575 H 0.14798 0.74178 0.13778 0.0
H576 H 0.16772 0.71939 0.13762 0.0
H577 H 0.13339 0.68876 0.17152 0.0
H578 H 0.11346 0.71118 0.17168 0.0
H579 H 0.14924 0.67248 0.13815 0.0
H580 H 0.16341 0.70549 0.19888 0.0
H581 H 0.16998 0.73108 0.21796 0.0
H582 H 0.21211 0.73793 0.17778 0.0
H583 H 0.20564 0.7125 0.15823 0.0
C584 C 0.21154 0.62489 0.16166 0.0
C585 C 0.22698 0.62881 0.15319 0.0
C586 C 0.19897 0.63648 0.16164 0.0
C587 C 0.20163 0.65214 0.15304 0.0
C588 C 0.21702 0.65601 0.14447 0.0
C589 C 0.22956 0.64445 0.14448 0.0
C590 C 0.18857 0.66469 0.15352 0.0
C591 C 0.19184 0.67959 0.16384 0.0
C592 C 0.17298 0.66201 0.1443 0.0
C593 C 0.16904 0.64684 0.13232 0.0
C594 C 0.17874 0.64186 0.11484 0.0
C595 C 0.175 0.62751 0.10367 0.0
C596 C 0.16152 0.61809 0.10974 0.0
C597 C 0.15172 0.62302 0.12695 0.0
C598 C 0.15542 0.63736 0.13819 0.0
C599 C 0.14459 0.73026 0.14513 0.0
C600 C 0.12922 0.72825 0.15486 0.0
C601 C 0.1559 0.7175 0.14507 0.0
C602 C 0.15207 0.7025 0.15478 0.0
C603 C 0.13657 0.70027 0.164 0.0
C604 C 0.12524 0.71309 0.16413 0.0
C605 C 0.16447 0.68933 0.15565 0.0
C606 C 0.16106 0.67433 0.14568 0.0
C607 C 0.17997 0.6919 0.16516 0.0
C608 C 0.18395 0.70716 0.17696 0.0
C609 C 0.174 0.71252 0.194 0.0
C610 C 0.17772 0.72698 0.20492 0.0
C611 C 0.19143 0.73614 0.19905 0.0
C612 C 0.20148 0.73083 0.18229 0.0
C613 C 0.1978 0.71639 0.17129 0.0
H614 H 0.19429 0.74734 0.20753 0.0
H615 H 0.15864 0.60698 0.10108 0.0
H616 H 0.25573 0.85295 0.36626 0.0
H617 H 0.27866 0.83388 0.36683 0.0
H618 H 0.30959 0.87031 0.33744 0.0
H619 H 0.2865 0.88941 0.33639 0.0
H620 H 0.31337 0.84155 0.31825 0.0
H621 H 0.314 0.86024 0.39088 0.0
H622 H 0.30246 0.86694 0.42638 0.0
H623 H 0.2886 0.81676 0.43536 0.0
H624 H 0.29993 0.80979 0.39979 0.0
H625 H 0.38478 0.79277 0.33366 0.0
H626 H 0.3651 0.81529 0.33569 0.0
H627 H 0.32922 0.78259 0.36284 0.0
H628 H 0.34887 0.76011 0.36112 0.0
H629 H 0.32994 0.81146 0.38396 0.0
H630 H 0.32776 0.79343 0.3101 0.0
H631 H 0.33937 0.78692 0.27455 0.0
H632 H 0.35635 0.83636 0.26808 0.0
H633 H 0.34502 0.84311 0.30375 0.0
C634 C 0.26744 0.85696 0.36005 0.0
C635 C 0.26934 0.87268 0.35131 0.0
C636 C 0.28056 0.84606 0.36048 0.0
C637 C 0.29591 0.85074 0.35245 0.0
C638 C 0.29787 0.86647 0.34379 0.0
C639 C 0.28469 0.87737 0.34325 0.0
C640 C 0.30966 0.83891 0.35235 0.0
C641 C 0.31722 0.8352 0.3327 0.0
C642 C 0.31447 0.83041 0.37113 0.0
C643 C 0.30771 0.83452 0.39259 0.0
C644 C 0.30839 0.85066 0.40036 0.0
C645 C 0.3019 0.8545 0.42051 0.0
C646 C 0.29475 0.84229 0.4331 0.0
C647 C 0.29413 0.8262 0.42559 0.0
C648 C 0.30062 0.82229 0.40545 0.0
C649 C 0.3727 0.7904 0.34009 0.0
C650 C 0.36833 0.77468 0.34716 0.0
C651 C 0.36147 0.80326 0.34118 0.0
C652 C 0.34565 0.80057 0.34923 0.0
C653 C 0.34136 0.78493 0.35659 0.0
C654 C 0.35258 0.77209 0.35552 0.0
C655 C 0.33346 0.81396 0.34983 0.0
C656 C 0.3262 0.81796 0.36957 0.0
C657 C 0.32896 0.82275 0.33116 0.0
C658 C 0.33571 0.81872 0.30968 0.0
C659 C 0.33409 0.80288 0.30117 0.0
C660 C 0.34059 0.79915 0.28098 0.0
C661 C 0.34863 0.8112 0.26909 0.0
C662 C 0.35014 0.82703 0.27733 0.0
C663 C 0.34367 0.83081 0.29752 0.0
H664 H 0.35366 0.80829 0.25346 0.0
H665 H 0.28972 0.84528 0.4487 0.0
H666 H 0.24271 0.34593 0.33812 0.0
H667 H 0.21923 0.32762 0.33566 0.0
H668 H 0.18656 0.36895 0.33898 0.0
H669 H 0.21014 0.38746 0.34144 0.0
H670 H 0.17694 0.34271 0.36516 0.0
H671 H 0.19196 0.35191 0.29213 0.0
H672 H 0.21073 0.35389 0.26125 0.0
H673 H 0.22283 0.30305 0.26786 0.0
H674 H 0.20431 0.30082 0.29901 0.0
H675 H 0.10967 0.29062 0.33801 0.0
H676 H 0.12919 0.31335 0.33682 0.0
H677 H 0.16895 0.27904 0.33022 0.0
H678 H 0.14955 0.25635 0.33119 0.0
H679 H 0.17254 0.30466 0.30332 0.0
H680 H 0.16005 0.29627 0.37841 0.0
H681 H 0.14185 0.29413 0.40988 0.0
H682 H 0.12532 0.34334 0.3996 0.0
H683 H 0.14328 0.34569 0.36787 0.0
C684 C 0.23054 0.35115 0.3384 0.0
C685 C 0.22825 0.36813 0.33989 0.0
C686 C 0.21714 0.34067 0.33691 0.0
C687 C 0.20118 0.34696 0.33686 0.0
C688 C 0.1988 0.36389 0.33889 0.0
C689 C 0.21225 0.37442 0.34026 0.0
C690 C 0.1871 0.3357 0.33461 0.0
C691 C 0.17576 0.33461 0.35145 0.0
C692 C 0.18575 0.32499 0.31685 0.0
C693 C 0.19683 0.32623 0.29802 0.0
C694 C 0.19871 0.34118 0.28711 0.0
C695 C 0.20929 0.34234 0.26953 0.0
C696 C 0.21799 0.32861 0.26262 0.0
C697 C 0.21609 0.31368 0.27324 0.0
C698 C 0.20554 0.31245 0.29084 0.0
C699 C 0.12257 0.28795 0.33617 0.0
C700 C 0.12811 0.27171 0.33478 0.0
C701 C 0.1337 0.30093 0.33557 0.0
C702 C 0.15053 0.29787 0.33364 0.0
C703 C 0.15601 0.28168 0.33171 0.0
C704 C 0.14492 0.26872 0.33233 0.0
C705 C 0.16259 0.3114 0.3341 0.0
C706 C 0.17356 0.31292 0.31689 0.0
C707 C 0.16361 0.32248 0.35154 0.0
C708 C 0.15285 0.32109 0.37062 0.0
C709 C 0.15243 0.30658 0.38275 0.0
C710 C 0.14218 0.30534 0.40065 0.0
C711 C 0.1324 0.31857 0.40669 0.0
C712 C 0.13288 0.33309 0.39487 0.0
C713 C 0.1431 0.33439 0.37694 0.0
H714 H 0.12447 0.31759 0.42056 0.0
H715 H 0.22617 0.32953 0.24901 0.0
H716 H 0.73708 0.13572 0.38498 0.0
H717 H 0.71421 0.15479 0.38882 0.0
H718 H 0.69699 0.1414 0.32563 0.0
H719 H 0.71933 0.12177 0.32227 0.0
H720 H 0.70668 0.18069 0.36973 0.0
H721 H 0.65696 0.14607 0.31991 0.0
H722 H 0.6482 0.11767 0.31318 0.0
H723 H 0.66979 0.10253 0.37283 0.0
H724 H 0.67848 0.13087 0.38006 0.0
H725 H 0.64852 0.23669 0.33327 0.0
H726 H 0.66894 0.21516 0.33723 0.0
H727 H 0.63466 0.1865 0.3742 0.0
H728 H 0.61386 0.20772 0.36918 0.0
H729 H 0.64958 0.1672 0.34953 0.0
H730 H 0.66803 0.20792 0.39777 0.0
H731 H 0.67579 0.23548 0.41017 0.0
H732 H 0.71497 0.23672 0.36428 0.0
H733 H 0.70731 0.20925 0.35139 0.0
C734 C 0.7283 0.13676 0.37202 0.0
C735 C 0.7299 0.12724 0.35337 0.0
C736 C 0.71525 0.14768 0.3742 0.0
C737 C 0.7037 0.14942 0.35765 0.0
C738 C 0.70544 0.14 0.3389 0.0
C739 C 0.71828 0.12885 0.33691 0.0
C740 C 0.69025 0.1616 0.35952 0.0
C741 C 0.69418 0.17769 0.36544 0.0
C742 C 0.67381 0.15766 0.35457 0.0
C743 C 0.66849 0.14059 0.35042 0.0
C744 C 0.65977 0.1367 0.33164 0.0
C745 C 0.65483 0.12061 0.32773 0.0
C746 C 0.65847 0.1083 0.34254 0.0
C747 C 0.66702 0.11206 0.36133 0.0
C748 C 0.67198 0.12814 0.36533 0.0
C749 C 0.64536 0.2258 0.34227 0.0
C750 C 0.62966 0.22386 0.351 0.0
C751 C 0.65708 0.21354 0.34467 0.0
C752 C 0.65351 0.19931 0.35643 0.0
C753 C 0.63775 0.19735 0.3651 0.0
C754 C 0.62589 0.20948 0.36228 0.0
C755 C 0.66612 0.18637 0.35915 0.0
C756 C 0.66204 0.17015 0.35407 0.0
C757 C 0.68228 0.19005 0.36575 0.0
C758 C 0.68701 0.20655 0.37351 0.0
C759 C 0.67824 0.2141 0.39023 0.0
C760 C 0.68262 0.22971 0.39736 0.0
C761 C 0.69584 0.23785 0.38799 0.0
C762 C 0.70473 0.23039 0.37151 0.0
C763 C 0.70038 0.21479 0.36431 0.0
H764 H 0.69922 0.24993 0.39353 0.0
H765 H 0.65464 0.09585 0.33947 0.0
H766 H 0.78993 0.61334 0.34495 0.0
H767 H 0.81134 0.63425 0.34607 0.0
H768 H 0.77459 0.67181 0.3522 0.0
H769 H 0.75314 0.65099 0.35105 0.0
H770 H 0.79749 0.67915 0.32161 0.0
H771 H 0.79636 0.66128 0.39484 0.0
H772 H 0.79702 0.64105 0.42418 0.0
H773 H 0.84541 0.6265 0.40543 0.0
H774 H 0.84493 0.64649 0.37573 0.0
H775 H 0.84807 0.74566 0.35019 0.0
H776 H 0.82738 0.72411 0.35108 0.0
H777 H 0.86515 0.68754 0.34548 0.0
H778 H 0.88598 0.70907 0.34478 0.0
H779 H 0.84207 0.67933 0.37571 0.0
H780 H 0.84298 0.69748 0.30235 0.0
H781 H 0.84196 0.71773 0.27304 0.0
H782 H 0.79357 0.73187 0.29234 0.0
H783 H 0.7944 0.71185 0.32198 0.0
C784 C 0.78643 0.62605 0.34662 0.0
C785 C 0.76988 0.63056 0.34793 0.0
C786 C 0.79866 0.63796 0.34733 0.0
C787 C 0.79453 0.65455 0.34934 0.0
C788 C 0.77802 0.65906 0.35064 0.0
C789 C 0.76579 0.64716 0.35005 0.0
C790 C 0.80741 0.66726 0.3496 0.0
C791 C 0.80712 0.67933 0.3336 0.0
C792 C 0.82015 0.66721 0.36496 0.0
C793 C 0.82054 0.65527 0.38292 0.0
C794 C 0.80709 0.65368 0.39686 0.0
C795 C 0.80744 0.64227 0.41358 0.0
C796 C 0.82123 0.63246 0.41664 0.0
C797 C 0.83472 0.63409 0.40302 0.0
C798 C 0.83442 0.64546 0.38625 0.0
C799 C 0.85198 0.73303 0.34918 0.0
C800 C 0.86862 0.72904 0.3473 0.0
C801 C 0.84015 0.72074 0.34964 0.0
C802 C 0.84474 0.70425 0.34811 0.0
C803 C 0.86137 0.7002 0.34664 0.0
C804 C 0.87323 0.7125 0.34616 0.0
C805 C 0.83211 0.69127 0.34777 0.0
C806 C 0.83245 0.67914 0.36372 0.0
C807 C 0.81937 0.69127 0.33238 0.0
C808 C 0.81882 0.70327 0.31451 0.0
C809 C 0.83217 0.705 0.30045 0.0
C810 C 0.83162 0.71642 0.28376 0.0
C811 C 0.81773 0.72611 0.28087 0.0
C812 C 0.80434 0.72437 0.29462 0.0
C813 C 0.80483 0.71298 0.31136 0.0
H814 H 0.81732 0.73495 0.26793 0.0
H815 H 0.82148 0.62364 0.42959 0.0
H816 H 0.70816 0.88526 0.84694 0.0
H817 H 0.68673 0.86446 0.84922 0.0
H818 H 0.72337 0.82719 0.85869 0.0
H819 H 0.74487 0.8479 0.85617 0.0
H820 H 0.70131 0.81802 0.82914 0.0
H821 H 0.69997 0.84026 0.90028 0.0
H822 H 0.69823 0.862 0.92763 0.0
H823 H 0.65057 0.87534 0.90461 0.0
H824 H 0.65213 0.85383 0.8769 0.0
H825 H 0.64857 0.75383 0.8601 0.0
H826 H 0.6695 0.77514 0.86162 0.0
H827 H 0.63295 0.81177 0.84825 0.0
H828 H 0.61188 0.79048 0.84677 0.0
H829 H 0.6548 0.82127 0.88019 0.0
H830 H 0.6565 0.79917 0.80872 0.0
H831 H 0.65829 0.77724 0.78165 0.0
H832 H 0.70554 0.76352 0.80571 0.0
H833 H 0.70392 0.78523 0.83317 0.0
C834 C 0.71164 0.87264 0.84961 0.0
C835 C 0.72818 0.86819 0.85139 0.0
C836 C 0.69938 0.86078 0.851 0.0
C837 C 0.70346 0.8443 0.85431 0.0
C838 C 0.71997 0.83985 0.85614 0.0
C839 C 0.73223 0.85169 0.85476 0.0
C840 C 0.69053 0.83161 0.8552 0.0
C841 C 0.69127 0.81861 0.84052 0.0
C842 C 0.67723 0.8326 0.8697 0.0
C843 C 0.67624 0.84554 0.88637 0.0
C844 C 0.68918 0.84792 0.90093 0.0
C845 C 0.68821 0.86018 0.91652 0.0
C846 C 0.67432 0.87007 0.91782 0.0
C847 C 0.66134 0.86769 0.90356 0.0
C848 C 0.66225 0.85545 0.88792 0.0
C849 C 0.64497 0.76643 0.85764 0.0
C850 C 0.62862 0.7705 0.85319 0.0
C851 C 0.65694 0.77857 0.85845 0.0
C852 C 0.65278 0.79499 0.85481 0.0
C853 C 0.63639 0.79916 0.85107 0.0
C854 C 0.6244 0.78699 0.85016 0.0
C855 C 0.66566 0.8077 0.85421 0.0
C856 C 0.66487 0.8207 0.86887 0.0
C857 C 0.67895 0.80671 0.83972 0.0
C858 C 0.68001 0.79372 0.82314 0.0
C859 C 0.66721 0.79139 0.80836 0.0
C860 C 0.66821 0.77902 0.79292 0.0
C861 C 0.682 0.76896 0.792 0.0
C862 C 0.69485 0.7713 0.80647 0.0
C863 C 0.69391 0.78364 0.82196 0.0
H864 H 0.68275 0.75939 0.78003 0.0
H865 H 0.67359 0.87956 0.92991 0.0
H866 H 0.14843 0.74353 0.852 0.0
H867 H 0.16877 0.72171 0.85073 0.0
H868 H 0.13058 0.68626 0.83997 0.0
H869 H 0.11006 0.7081 0.84141 0.0
H870 H 0.15294 0.67582 0.8698 0.0
H871 H 0.15388 0.69814 0.79876 0.0
H872 H 0.15545 0.7201 0.77169 0.0
H873 H 0.2034 0.73303 0.79405 0.0
H874 H 0.20203 0.71128 0.82147 0.0
H875 H 0.20814 0.61221 0.83916 0.0
H876 H 0.186 0.63239 0.83912 0.0
H877 H 0.22107 0.67097 0.84969 0.0
H878 H 0.24324 0.6509 0.84965 0.0
H879 H 0.19922 0.67886 0.81838 0.0
H880 H 0.19781 0.65761 0.89035 0.0
H881 H 0.1962 0.63611 0.91804 0.0
H882 H 0.14915 0.62147 0.89423 0.0
H883 H 0.15058 0.64275 0.86618 0.0
C884 C 0.14434 0.73109 0.8494 0.0
C885 C 0.12766 0.72751 0.84673 0.0
C886 C 0.15599 0.71865 0.84859 0.0
C887 C 0.15119 0.7024 0.84498 0.0
C888 C 0.13452 0.69873 0.84269 0.0
C889 C 0.12283 0.71121 0.84347 0.0
C890 C 0.16367 0.68931 0.84365 0.0
C891 C 0.16291 0.67631 0.85832 0.0
C892 C 0.17684 0.69018 0.82894 0.0
C893 C 0.1778 0.70315 0.81229 0.0
C894 C 0.16472 0.70574 0.798 0.0
C895 C 0.16558 0.71813 0.78258 0.0
C896 C 0.17951 0.72797 0.78117 0.0
C897 C 0.19262 0.7254 0.79516 0.0
C898 C 0.19182 0.71302 0.81063 0.0
C899 C 0.21111 0.62499 0.84152 0.0
C900 C 0.2274 0.62999 0.84447 0.0
C901 C 0.19846 0.63649 0.84154 0.0
C902 C 0.2019 0.65316 0.84453 0.0
C903 C 0.21817 0.65817 0.84734 0.0
C904 C 0.2308 0.64668 0.8474 0.0
C905 C 0.18858 0.66544 0.84467 0.0
C906 C 0.18918 0.67829 0.82975 0.0
C907 C 0.17528 0.66444 0.85917 0.0
C908 C 0.17439 0.65164 0.87601 0.0
C909 C 0.18718 0.6497 0.8909 0.0
C910 C 0.18629 0.63758 0.90668 0.0
C911 C 0.1726 0.62739 0.90785 0.0
C912 C 0.15976 0.62934 0.89327 0.0
C913 C 0.1606 0.64144 0.87744 0.0
H914 H 0.17193 0.61802 0.92009 0.0
H915 H 0.18015 0.73755 0.76921 0.0
H916 H 0.34999 0.24549 0.85233 0.0
H917 H 0.32992 0.22345 0.8547 0.0
H918 H 0.36767 0.18809 0.84096 0.0
H919 H 0.38778 0.21019 0.83812 0.0
H920 H 0.34092 0.18184 0.81808 0.0
H921 H 0.35239 0.19279 0.89205 0.0
H922 H 0.35567 0.20982 0.92444 0.0
H923 H 0.30523 0.22412 0.92072 0.0
H924 H 0.30171 0.20734 0.88811 0.0
H925 H 0.29044 0.11362 0.84302 0.0
H926 H 0.31272 0.1336 0.844 0.0
H927 H 0.27796 0.17209 0.85667 0.0
H928 H 0.25569 0.15216 0.85612 0.0
H929 H 0.30456 0.17545 0.88134 0.0
H930 H 0.29367 0.16587 0.8062 0.0
H931 H 0.29039 0.14894 0.77369 0.0
H932 H 0.33991 0.1321 0.77979 0.0
H933 H 0.3434 0.14877 0.81251 0.0
C934 C 0.35403 0.23302 0.84987 0.0
C935 C 0.37045 0.22955 0.84509 0.0
C936 C 0.34256 0.22042 0.85134 0.0
C937 C 0.34734 0.20409 0.84832 0.0
C938 C 0.36373 0.2006 0.84342 0.0
C939 C 0.3752 0.21322 0.84184 0.0
C940 C 0.33511 0.19073 0.84975 0.0
C941 C 0.33316 0.18026 0.83207 0.0
C942 C 0.32477 0.18887 0.86784 0.0
C943 C 0.32683 0.1989 0.88753 0.0
C944 C 0.34203 0.19965 0.89804 0.0
C945 C 0.34393 0.20925 0.91646 0.0
C946 C 0.33068 0.21807 0.92461 0.0
C947 C 0.31549 0.21729 0.91438 0.0
C948 C 0.31353 0.20772 0.89595 0.0
C949 C 0.28757 0.12633 0.8461 0.0
C950 C 0.27133 0.13135 0.84939 0.0
C951 C 0.3003 0.13774 0.84658 0.0
C952 C 0.29698 0.15437 0.85013 0.0
C953 C 0.2808 0.15933 0.85389 0.0
C954 C 0.26809 0.14793 0.8535 0.0
C955 C 0.31028 0.1667 0.84959 0.0
C956 C 0.31242 0.17696 0.86743 0.0
C957 C 0.3208 0.16838 0.83166 0.0
C958 C 0.31874 0.15843 0.81192 0.0
C959 C 0.30382 0.15846 0.80069 0.0
C960 C 0.30193 0.14893 0.78222 0.0
C961 C 0.31492 0.13942 0.77471 0.0
C962 C 0.32984 0.13945 0.78564 0.0
C963 C 0.33179 0.14895 0.80414 0.0
H964 H 0.31343 0.13204 0.7604 0.0
H965 H 0.33217 0.2255 0.93887 0.0
H966 H 0.88785 0.29097 0.84004 0.0
H967 H 0.86744 0.31289 0.84076 0.0
H968 H 0.83056 0.27825 0.86041 0.0
H969 H 0.85084 0.25631 0.85961 0.0
H970 H 0.82026 0.29714 0.8273 0.0
H971 H 0.84582 0.30515 0.89591 0.0
H972 H 0.86887 0.30949 0.9208 0.0
H973 H 0.88076 0.35447 0.88882 0.0
H974 H 0.8579 0.35027 0.86353 0.0
H975 H 0.75691 0.35101 0.85788 0.0
H976 H 0.77867 0.33053 0.85838 0.0
H977 H 0.81346 0.36701 0.83796 0.0
H978 H 0.79172 0.38763 0.83755 0.0
H979 H 0.8254 0.34784 0.87055 0.0
H980 H 0.79922 0.34007 0.80247 0.0
H981 H 0.77618 0.33552 0.77762 0.0
H982 H 0.76545 0.28988 0.80863 0.0
H983 H 0.78826 0.29427 0.83391 0.0
C984 C 0.87542 0.28807 0.84469 0.0
C985 C 0.87093 0.27195 0.84977 0.0
C986 C 0.86379 0.3006 0.84514 0.0
C987 C 0.84751 0.29719 0.85071 0.0
C988 C 0.84306 0.28112 0.85603 0.0
C989 C 0.85467 0.26863 0.85564 0.0
C990 C 0.83493 0.31022 0.85033 0.0
C991 C 0.82128 0.30813 0.83696 0.0
C992 C 0.83651 0.32475 0.86249 0.0
C993 C 0.85026 0.3273 0.87768 0.0
C994 C 0.85344 0.31589 0.89406 0.0
C995 C 0.86645 0.31834 0.90826 0.0
C996 C 0.8763 0.33222 0.90635 0.0
C997 C 0.87313 0.34371 0.89026 0.0
C998 C 0.86015 0.34131 0.87599 0.0
C999 C 0.7692 0.35468 0.85353 0.0
C1000 C 0.77262 0.37089 0.84759 0.0
C1001 C 0.7816 0.34296 0.85375 0.0
C1002 C 0.79763 0.34723 0.84798 0.0
C1003 C 0.80115 0.36348 0.84242 0.0
C1004 C 0.78873 0.37521 0.84213 0.0
C1005 C 0.81066 0.33466 0.84768 0.0
C1006 C 0.82442 0.33686 0.86086 0.0
C1007 C 0.80917 0.32021 0.83535 0.0
C1008 C 0.79537 0.31758 0.82022 0.0
C1009 C 0.79186 0.32914 0.80413 0.0
C1010 C 0.77885 0.32657 0.78994 0.0
C1011 C 0.76935 0.31243 0.79157 0.0
C1012 C 0.77282 0.30083 0.8074 0.0
C1013 C 0.78579 0.30335 0.82166 0.0
H1014 H 0.75934 0.31042 0.78051 0.0
H1015 H 0.88636 0.3341 0.91737 0.0
H1016 H 0.64711 0.23606 0.6307 0.0
H1017 H 0.66596 0.21289 0.63076 0.0
H1018 H 0.63712 0.18931 0.67983 0.0
H1019 H 0.6182 0.21257 0.67995 0.0
H1020 H 0.66999 0.18842 0.68872 0.0
H1021 H 0.63514 0.17552 0.62941 0.0
H1022 H 0.62042 0.18077 0.59554 0.0
H1023 H 0.66601 0.18909 0.56313 0.0
H1024 H 0.681 0.18412 0.59689 0.0
H1025 H 0.71549 0.11434 0.67968 0.0
H1026 H 0.69265 0.13374 0.67999 0.0
H1027 H 0.71551 0.16115 0.62892 0.0
H1028 H 0.73816 0.1417 0.62829 0.0
H1029 H 0.68342 0.15812 0.62195 0.0
H1030 H 0.71804 0.17356 0.68126 0.0
H1031 H 0.73319 0.16901 0.71499 0.0
H1032 H 0.68845 0.15655 0.74718 0.0
H1033 H 0.67306 0.16081 0.71354 0.0
C1034 C 0.64474 0.22592 0.64146 0.0
C1035 C 0.63116 0.2261 0.65529 0.0
C1036 C 0.65549 0.21267 0.64142 0.0
C1037 C 0.65283 0.19931 0.65514 0.0
C1038 C 0.63935 0.19948 0.66908 0.0
C1039 C 0.62854 0.21274 0.66908 0.0
C1040 C 0.6644 0.18536 0.65515 0.0
C1041 C 0.67271 0.18157 0.67422 0.0
C1042 C 0.66816 0.17667 0.63612 0.0
C1043 C 0.65919 0.17956 0.61574 0.0
C1044 C 0.64202 0.17858 0.6151 0.0
C1045 C 0.63363 0.18149 0.59592 0.0
C1046 C 0.64227 0.18529 0.57721 0.0
C1047 C 0.65933 0.18615 0.57764 0.0
C1048 C 0.66779 0.18327 0.59679 0.0
C1049 C 0.71558 0.12446 0.66846 0.0
C1050 C 0.72862 0.12656 0.65402 0.0
C1051 C 0.70257 0.13556 0.6687 0.0
C1052 C 0.70247 0.14899 0.65464 0.0
C1053 C 0.71532 0.15087 0.63991 0.0
C1054 C 0.72828 0.13978 0.63961 0.0
C1055 C 0.6892 0.16134 0.65544 0.0
C1056 C 0.68056 0.16483 0.6365 0.0
C1057 C 0.68521 0.16981 0.67457 0.0
C1058 C 0.69443 0.16732 0.69483 0.0
C1059 C 0.71145 0.16973 0.69549 0.0
C1060 C 0.72008 0.16722 0.7146 0.0
C1061 C 0.71179 0.16245 0.7332 0.0
C1062 C 0.69485 0.16022 0.73275 0.0
C1063 C 0.68617 0.16268 0.71367 0.0
H1064 H 0.71849 0.16052 0.74798 0.0
H1065 H 0.63575 0.18754 0.56237 0.0
H1066 H 0.79052 0.61593 0.66444 0.0
H1067 H 0.8122 0.63657 0.66434 0.0
H1068 H 0.77791 0.67259 0.64118 0.0
H1069 H 0.75633 0.65193 0.64071 0.0
H1070 H 0.80602 0.67556 0.62079 0.0
H1071 H 0.78943 0.67057 0.69464 0.0
H1072 H 0.78382 0.65597 0.72851 0.0
H1073 H 0.83391 0.64042 0.73168 0.0
H1074 H 0.83977 0.65476 0.69765 0.0
H1075 H 0.84793 0.74832 0.64808 0.0
H1076 H 0.82813 0.72593 0.6469 0.0
H1077 H 0.86592 0.69181 0.66501 0.0
H1078 H 0.88581 0.71419 0.66631 0.0
H1079 H 0.83727 0.68698 0.68746 0.0
H1080 H 0.85387 0.69343 0.61402 0.0
H1081 H 0.85911 0.70869 0.58056 0.0
H1082 H 0.80844 0.72219 0.57708 0.0
H1083 H 0.80294 0.70719 0.6107 0.0
C1084 C 0.78764 0.62823 0.65923 0.0
C1085 C 0.77173 0.63235 0.65266 0.0
C1086 C 0.80001 0.64003 0.65928 0.0
C1087 C 0.79662 0.65619 0.65306 0.0
C1088 C 0.78081 0.66021 0.64607 0.0
C1089 C 0.76848 0.6484 0.64586 0.0
C1090 C 0.80946 0.669 0.65401 0.0
C1091 C 0.81273 0.67816 0.63544 0.0
C1092 C 0.81847 0.67216 0.67299 0.0
C1093 C 0.81499 0.66359 0.69349 0.0
C1094 C 0.79922 0.66393 0.70248 0.0
C1095 C 0.79599 0.65572 0.72171 0.0
C1096 C 0.80848 0.64723 0.73221 0.0
C1097 C 0.82424 0.64698 0.72351 0.0
C1098 C 0.82752 0.65515 0.70426 0.0
C1099 C 0.85202 0.73606 0.65185 0.0
C1100 C 0.86842 0.73298 0.65721 0.0
C1101 C 0.84071 0.72328 0.65109 0.0
C1102 C 0.84561 0.70719 0.65563 0.0
C1103 C 0.86191 0.70413 0.6614 0.0
C1104 C 0.87325 0.71691 0.66208 0.0
C1105 C 0.83369 0.6936 0.65431 0.0
C1106 C 0.83061 0.68429 0.6728 0.0
C1107 C 0.82477 0.69037 0.6353 0.0
C1108 C 0.82802 0.6993 0.61499 0.0
C1109 C 0.84387 0.69975 0.60621 0.0
C1110 C 0.84688 0.70834 0.5872 0.0
C1111 C 0.83412 0.71643 0.57673 0.0
C1112 C 0.81831 0.71592 0.58522 0.0
C1113 C 0.81524 0.70737 0.60424 0.0
H1114 H 0.83648 0.72308 0.56201 0.0
H1115 H 0.80597 0.64088 0.7471 0.0
H1116 H 0.25487 0.8511 0.63747 0.0
H1117 H 0.27651 0.83048 0.63694 0.0
H1118 H 0.30838 0.86322 0.67156 0.0
H1119 H 0.28679 0.88398 0.67205 0.0
H1120 H 0.32409 0.84761 0.63816 0.0
H1121 H 0.28991 0.83307 0.6979 0.0
H1122 H 0.26386 0.82661 0.71596 0.0
H1123 H 0.257 0.78538 0.67422 0.0
H1124 H 0.28291 0.79173 0.65569 0.0
H1125 H 0.38313 0.78816 0.6687 0.0
H1126 H 0.36242 0.80975 0.66878 0.0
H1127 H 0.32809 0.77695 0.63853 0.0
H1128 H 0.34863 0.75522 0.63886 0.0
H1129 H 0.31383 0.79302 0.67026 0.0
H1130 H 0.34759 0.80752 0.61012 0.0
H1131 H 0.37339 0.81397 0.59147 0.0
H1132 H 0.38088 0.85512 0.63317 0.0
H1133 H 0.35521 0.84877 0.65227 0.0
C1134 C 0.26651 0.85394 0.6449 0.0
C1135 C 0.26913 0.86912 0.6549 0.0
C1136 C 0.27883 0.84213 0.64464 0.0
C1137 C 0.29396 0.84527 0.65443 0.0
C1138 C 0.29676 0.86056 0.66396 0.0
C1139 C 0.28442 0.87238 0.66428 0.0
C1140 C 0.30677 0.83247 0.65498 0.0
C1141 C 0.32196 0.83574 0.64543 0.0
C1142 C 0.3038 0.81689 0.66406 0.0
C1143 C 0.28827 0.81297 0.67528 0.0
C1144 C 0.28278 0.8227 0.69246 0.0
C1145 C 0.26805 0.81904 0.7028 0.0
C1146 C 0.25876 0.80561 0.69621 0.0
C1147 C 0.2642 0.79579 0.67929 0.0
C1148 C 0.27891 0.7994 0.66888 0.0
C1149 C 0.37118 0.78558 0.66203 0.0
C1150 C 0.36749 0.77003 0.65373 0.0
C1151 C 0.35938 0.79794 0.662 0.0
C1152 C 0.34376 0.79502 0.65342 0.0
C1153 C 0.34006 0.77947 0.64521 0.0
C1154 C 0.35181 0.76709 0.64536 0.0
C1155 C 0.33117 0.80808 0.6533 0.0
C1156 C 0.31601 0.80488 0.66298 0.0
C1157 C 0.33415 0.82369 0.64426 0.0
C1158 C 0.34956 0.82757 0.63276 0.0
C1159 C 0.3548 0.81787 0.61542 0.0
C1160 C 0.36939 0.82152 0.60475 0.0
C1161 C 0.37879 0.83492 0.61117 0.0
C1162 C 0.37359 0.84473 0.62824 0.0
C1163 C 0.35902 0.84112 0.63898 0.0
H1164 H 0.39008 0.83773 0.60288 0.0
H1165 H 0.24736 0.8028 0.70423 0.0
H1166 H 0.14713 0.26105 0.67989 0.0
H1167 H 0.16495 0.28497 0.68146 0.0
H1168 H 0.12669 0.31472 0.6541 0.0
H1169 H 0.10876 0.29073 0.65235 0.0
H1170 H 0.1557 0.31921 0.63374 0.0
H1171 H 0.1368 0.3196 0.70603 0.0
H1172 H 0.13027 0.30814 0.74164 0.0
H1173 H 0.18085 0.29625 0.75147 0.0
H1174 H 0.18767 0.30742 0.71578 0.0
H1175 H 0.20682 0.38968 0.64676 0.0
H1176 H 0.1833 0.3712 0.64976 0.0
H1177 H 0.21432 0.33435 0.67802 0.0
H1178 H 0.23772 0.35273 0.67531 0.0
H1179 H 0.18563 0.33665 0.69916 0.0
H1180 H 0.20365 0.33276 0.62525 0.0
H1181 H 0.21037 0.34365 0.58937 0.0
H1182 H 0.16136 0.36178 0.58266 0.0
H1183 H 0.15442 0.35118 0.61865 0.0
C1184 C 0.14244 0.27272 0.67442 0.0
C1185 C 0.12656 0.27403 0.666 0.0
C1186 C 0.15261 0.28639 0.67541 0.0
C1187 C 0.14709 0.30166 0.66808 0.0
C1188 C 0.13116 0.30306 0.6599 0.0
C1189 C 0.12093 0.28937 0.65898 0.0
C1190 C 0.15837 0.31585 0.66789 0.0
C1191 C 0.16198 0.32328 0.64813 0.0
C1192 C 0.16675 0.32096 0.68661 0.0
C1193 C 0.16273 0.31426 0.70814 0.0
C1194 C 0.14652 0.31443 0.71571 0.0
C1195 C 0.14277 0.30801 0.73593 0.0
C1196 C 0.15513 0.30144 0.7488 0.0
C1197 C 0.17128 0.30133 0.74148 0.0
C1198 C 0.1751 0.30773 0.72127 0.0
C1199 C 0.20858 0.37765 0.65367 0.0
C1200 C 0.22411 0.37261 0.66071 0.0
C1201 C 0.19516 0.36711 0.65533 0.0
C1202 C 0.19709 0.35136 0.66398 0.0
C1203 C 0.21254 0.34646 0.67135 0.0
C1204 C 0.22592 0.35695 0.66969 0.0
C1205 C 0.18322 0.33971 0.66495 0.0
C1206 C 0.17913 0.33276 0.68486 0.0
C1207 C 0.17442 0.33502 0.64637 0.0
C1208 C 0.17858 0.34136 0.62473 0.0
C1209 C 0.19435 0.3392 0.61619 0.0
C1210 C 0.19819 0.34529 0.59583 0.0
C1211 C 0.18631 0.35345 0.58377 0.0
C1212 C 0.17056 0.35549 0.59203 0.0
C1213 C 0.16666 0.34944 0.61241 0.0
H1214 H 0.18931 0.35816 0.568 0.0
H1215 H 0.1522 0.29647 0.76444 0.0
H1216 H 0.24331 0.0722 0.08991 0.0
H1217 H 0.24169 0.07084 0.05077 0.0
H1218 H 0.20129 0.10474 0.05143 0.0
H1219 H 0.2027 0.10601 0.09073 0.0
H1220 H 0.19675 0.08035 0.02182 0.0
H1221 H 0.23893 0.11838 0.04087 0.0
H1222 H 0.26385 0.1276 0.05959 0.0
H1223 H 0.29174 0.09014 0.02806 0.0
H1224 H 0.26692 0.08053 0.0094 0.0
H1225 H 0.20427 0.10693 0.91258 0.0
H1226 H 0.20219 0.10497 0.95175 0.0
H1227 H 0.24301 0.07156 0.95266 0.0
H1228 H 0.24523 0.07358 0.91358 0.0
H1229 H 0.24681 0.09577 0.98156 0.0
H1230 H 0.20434 0.05809 0.96194 0.0
H1231 H 0.17924 0.04914 0.94342 0.0
H1232 H 0.15176 0.08648 0.97579 0.0
H1233 H 0.17676 0.0958 0.99429 0.0
C1234 C 0.23396 0.07924 0.08176 0.0
C1235 C 0.22321 0.08932 0.09337 0.0
C1236 C 0.23308 0.07848 0.05938 0.0
C1237 C 0.22154 0.08789 0.04817 0.0
C1238 C 0.21032 0.09742 0.05977 0.0
C1239 C 0.21117 0.09816 0.0822 0.0
C1240 C 0.22176 0.08838 0.02435 0.0
C1241 C 0.20762 0.0839 0.01299 0.0
C1242 C 0.23603 0.09278 0.01285 0.0
C1243 C 0.25102 0.09864 0.02389 0.0
C1244 C 0.25035 0.11203 0.03805 0.0
C1245 C 0.26446 0.11734 0.04863 0.0
C1246 C 0.27936 0.10943 0.04506 0.0
C1247 C 0.28019 0.09624 0.03084 0.0
C1248 C 0.2661 0.09086 0.02024 0.0
C1249 C 0.21268 0.09904 0.92112 0.0
C1250 C 0.22492 0.09042 0.91003 0.0
C1251 C 0.21145 0.09789 0.94349 0.0
C1252 C 0.22239 0.08805 0.95512 0.0
C1253 C 0.23444 0.07923 0.94401 0.0
C1254 C 0.23566 0.08036 0.92167 0.0
C1255 C 0.22185 0.08758 0.97895 0.0
C1256 C 0.23593 0.09215 0.99034 0.0
C1257 C 0.20751 0.08334 0.99042 0.0
C1258 C 0.19246 0.07775 0.97933 0.0
C1259 C 0.19298 0.06448 0.96497 0.0
C1260 C 0.17876 0.05932 0.9545 0.0
C1261 C 0.16392 0.06726 0.95838 0.0
C1262 C 0.16327 0.08035 0.97278 0.0
C1263 C 0.17745 0.08557 0.98327 0.0
H1264 H 0.15293 0.06324 0.95026 0.0
H1265 H 0.29027 0.11356 0.05327 0.0
H1266 H 0.92267 0.24968 0.91283 0.0
H1267 H 0.92516 0.24672 0.95166 0.0
H1268 H 0.90694 0.1973 0.94734 0.0
H1269 H 0.90396 0.2004 0.90837 0.0
H1270 H 0.892 0.21267 0.97834 0.0
H1271 H 0.94787 0.20584 0.95911 0.0
H1272 H 0.97397 0.21227 0.94118 0.0
H1273 H 0.97666 0.25781 0.97531 0.0
H1274 H 0.95045 0.25177 0.99323 0.0
H1275 H 0.90715 0.20044 0.0901 0.0
H1276 H 0.90996 0.19733 0.0511 0.0
H1277 H 0.9214 0.24863 0.04538 0.0
H1278 H 0.91858 0.25183 0.08427 0.0
H1279 H 0.94128 0.22878 0.01974 0.0
H1280 H 0.88375 0.23632 0.03557 0.0
H1281 H 0.85773 0.22952 0.05352 0.0
H1282 H 0.85879 0.18153 0.02556 0.0
H1283 H 0.88495 0.18798 0.00767 0.0
C1284 C 0.91935 0.23812 0.9201 0.0
C1285 C 0.91313 0.22526 0.90756 0.0
C1286 C 0.92088 0.2364 0.94232 0.0
C1287 C 0.91646 0.2217 0.95246 0.0
C1288 C 0.91047 0.20874 0.9399 0.0
C1289 C 0.90882 0.21051 0.91764 0.0
C1290 C 0.91718 0.22031 0.97626 0.0
C1291 C 0.90291 0.21584 0.98734 0.0
C1292 C 0.93131 0.22471 0.9881 0.0
C1293 C 0.94712 0.22839 0.97741 0.0
C1294 C 0.95396 0.21728 0.96268 0.0
C1295 C 0.96879 0.22084 0.95254 0.0
C1296 C 0.97695 0.23545 0.95707 0.0
C1297 C 0.97032 0.2465 0.9718 0.0
C1298 C 0.95549 0.243 0.98198 0.0
C1299 C 0.91042 0.21101 0.08054 0.0
C1300 C 0.91255 0.2264 0.0902 0.0
C1301 C 0.91199 0.20922 0.05829 0.0
C1302 C 0.91576 0.22278 0.04536 0.0
C1303 C 0.9185 0.23801 0.05507 0.0
C1304 C 0.91681 0.23984 0.07728 0.0
C1305 C 0.91608 0.22136 0.02163 0.0
C1306 C 0.93051 0.22534 0.01063 0.0
C1307 C 0.90214 0.21641 0.00984 0.0
C1308 C 0.88639 0.21256 0.02049 0.0
C1309 C 0.8785 0.22427 0.0334 0.0
C1310 C 0.86372 0.22049 0.04353 0.0
C1311 C 0.85664 0.20509 0.04074 0.0
C1312 C 0.86431 0.19345 0.02774 0.0
C1313 C 0.8791 0.19716 0.01759 0.0
H1314 H 0.8452 0.20218 0.04859 0.0
H1315 H 0.98843 0.23819 0.9492 0.0
H1316 H 0.75031 0.92507 0.9145 0.0
H1317 H 0.7534 0.92744 0.95341 0.0
H1318 H 0.79978 0.90243 0.94981 0.0
H1319 H 0.79659 0.89975 0.91086 0.0
H1320 H 0.78136 0.88966 0.98039 0.0
H1321 H 0.79751 0.94372 0.96082 0.0
H1322 H 0.7952 0.97046 0.94277 0.0
H1323 H 0.75088 0.98045 0.97734 0.0
H1324 H 0.7528 0.95367 0.99539 0.0
H1325 H 0.79836 0.90142 0.09091 0.0
H1326 H 0.80079 0.90384 0.05184 0.0
H1327 H 0.75308 0.92623 0.049 0.0
H1328 H 0.75064 0.92401 0.08806 0.0
H1329 H 0.77468 0.9411 0.02173 0.0
H1330 H 0.75743 0.88614 0.03863 0.0
H1331 H 0.75955 0.85934 0.05656 0.0
H1332 H 0.80614 0.85114 0.02661 0.0
H1333 H 0.80438 0.87802 0.00873 0.0
C1334 C 0.76125 0.92024 0.92196 0.0
C1335 C 0.77321 0.91221 0.90965 0.0
C1336 C 0.76304 0.92167 0.9442 0.0
C1337 C 0.7769 0.91526 0.95453 0.0
C1338 C 0.789 0.90749 0.94218 0.0
C1339 C 0.78718 0.906 0.91994 0.0
C1340 C 0.77825 0.91577 0.97831 0.0
C1341 C 0.78023 0.90096 0.98939 0.0
C1342 C 0.77641 0.93047 0.9901 0.0
C1343 C 0.77524 0.94662 0.97933 0.0
C1344 C 0.78721 0.95156 0.96445 0.0
C1345 C 0.78598 0.96674 0.95424 0.0
C1346 C 0.77288 0.97713 0.95887 0.0
C1347 C 0.76101 0.97239 0.97376 0.0
C1348 C 0.76217 0.95722 0.98401 0.0
C1349 C 0.78847 0.90702 0.08198 0.0
C1350 C 0.77426 0.91242 0.09251 0.0
C1351 C 0.78986 0.90835 0.05967 0.0
C1352 C 0.77703 0.91502 0.0475 0.0
C1353 C 0.76312 0.92103 0.05808 0.0
C1354 C 0.76172 0.9197 0.08039 0.0
C1355 C 0.77769 0.91499 0.02369 0.0
C1356 C 0.77603 0.92986 0.01265 0.0
C1357 C 0.77983 0.90035 0.0119 0.0
C1358 C 0.78086 0.88416 0.02254 0.0
C1359 C 0.76818 0.87868 0.03601 0.0
C1360 C 0.76931 0.86346 0.04614 0.0
C1361 C 0.783 0.85356 0.04278 0.0
C1362 C 0.79556 0.85884 0.02923 0.0
C1363 C 0.7945 0.87405 0.01909 0.0
H1364 H 0.78385 0.84178 0.05063 0.0
H1365 H 0.77195 0.98887 0.95095 0.0
H1366 H 0.08682 0.79985 0.91075 0.0
H1367 H 0.08386 0.80373 0.94959 0.0
H1368 H 0.0754 0.752 0.95745 0.0
H1369 H 0.07814 0.74808 0.91871 0.0
H1370 H 0.05517 0.76997 0.98283 0.0
H1371 H 0.11305 0.76837 0.96575 0.0
H1372 H 0.13799 0.77768 0.94712 0.0
H1373 H 0.13208 0.82564 0.9741 0.0
H1374 H 0.10697 0.81665 0.99268 0.0
H1375 H 0.07891 0.75043 0.08811 0.0
H1376 H 0.07499 0.75364 0.04953 0.0
H1377 H 0.08689 0.8049 0.05459 0.0
H1378 H 0.09125 0.80165 0.09334 0.0
H1379 H 0.10312 0.7915 0.02263 0.0
H1380 H 0.04729 0.79192 0.04399 0.0
H1381 H 0.02253 0.78247 0.06287 0.0
H1382 H 0.02422 0.73709 0.02825 0.0
H1383 H 0.04912 0.74618 0.00937 0.0
C1384 C 0.08416 0.78934 0.92075 0.0
C1385 C 0.08282 0.77364 0.91174 0.0
C1386 C 0.08251 0.79157 0.94292 0.0
C1387 C 0.0796 0.77812 0.95642 0.0
C1388 C 0.07764 0.76255 0.94733 0.0
C1389 C 0.07928 0.76031 0.9252 0.0
C1390 C 0.07941 0.78 0.98012 0.0
C1391 C 0.06566 0.77461 0.99158 0.0
C1392 C 0.09292 0.78652 0.99146 0.0
C1393 C 0.10804 0.79189 0.98038 0.0
C1394 C 0.11701 0.78093 0.96757 0.0
C1395 C 0.13118 0.78614 0.95705 0.0
C1396 C 0.13659 0.80225 0.95937 0.0
C1397 C 0.12786 0.81317 0.97228 0.0
C1398 C 0.11366 0.80802 0.98282 0.0
C1399 C 0.08052 0.76244 0.08107 0.0
C1400 C 0.08539 0.77579 0.09374 0.0
C1401 C 0.07817 0.76428 0.05901 0.0
C1402 C 0.08041 0.77957 0.04917 0.0
C1403 C 0.08503 0.79301 0.06185 0.0
C1404 C 0.08748 0.79114 0.08397 0.0
C1405 C 0.07898 0.78113 0.02548 0.0
C1406 C 0.09246 0.78714 0.01396 0.0
C1407 C 0.0652 0.7752 0.01411 0.0
C1408 C 0.05015 0.76971 0.02535 0.0
C1409 C 0.04245 0.77989 0.0405 0.0
C1410 C 0.02837 0.7746 0.05119 0.0
C1411 C 0.02182 0.75918 0.04679 0.0
C1412 C 0.02931 0.74903 0.03164 0.0
C1413 C 0.04339 0.75426 0.02091 0.0
H1414 H 0.01093 0.7551 0.05509 0.0
H1415 H 0.14756 0.80627 0.95121 0.0
H1416 H 0.24396 0.9272 0.41511 0.0
H1417 H 0.24214 0.92947 0.45414 0.0
H1418 H 0.19576 0.90438 0.45317 0.0
H1419 H 0.19743 0.90216 0.41392 0.0
H1420 H 0.19661 0.93018 0.48285 0.0
H1421 H 0.22854 0.88306 0.46427 0.0
H1422 H 0.25052 0.86808 0.4456 0.0
H1423 H 0.28656 0.8983 0.47624 0.0
H1424 H 0.26477 0.91364 0.49485 0.0
H1425 H 0.19911 0.90292 0.59261 0.0
H1426 H 0.19673 0.90563 0.55355 0.0
H1427 H 0.24417 0.92861 0.55125 0.0
H1428 H 0.24668 0.92585 0.5902 0.0
H1429 H 0.24184 0.90374 0.52307 0.0
H1430 H 0.20975 0.9506 0.54229 0.0
H1431 H 0.18768 0.96552 0.56081 0.0
H1432 H 0.15179 0.93559 0.52937 0.0
H1433 H 0.17368 0.92032 0.51088 0.0
C1434 C 0.23326 0.92235 0.42315 0.0
C1435 C 0.22091 0.91436 0.41149 0.0
C1436 C 0.23226 0.92363 0.44546 0.0
C1437 C 0.21894 0.91688 0.45655 0.0
C1438 C 0.20616 0.90963 0.44489 0.0
C1439 C 0.20716 0.90834 0.4225 0.0
C1440 C 0.21899 0.91645 0.48035 0.0
C1441 C 0.20637 0.92424 0.4917 0.0
C1442 C 0.23187 0.90889 0.49182 0.0
C1443 C 0.24501 0.8996 0.48079 0.0
C1444 C 0.24114 0.8866 0.4669 0.0
C1445 C 0.25357 0.87803 0.45635 0.0
C1446 C 0.26992 0.88227 0.4597 0.0
C1447 C 0.27388 0.89505 0.47365 0.0
C1448 C 0.2615 0.90368 0.48421 0.0
C1449 C 0.20893 0.90875 0.5838 0.0
C1450 C 0.22311 0.91412 0.59444 0.0
C1451 C 0.20753 0.91034 0.5615 0.0
C1452 C 0.22026 0.91736 0.5495 0.0
C1453 C 0.23422 0.92313 0.5602 0.0
C1454 C 0.23561 0.92158 0.58246 0.0
C1455 C 0.21958 0.91769 0.52569 0.0
C1456 C 0.23207 0.90975 0.5143 0.0
C1457 C 0.20656 0.92506 0.51426 0.0
C1458 C 0.19337 0.93421 0.52537 0.0
C1459 C 0.19716 0.9471 0.53947 0.0
C1460 C 0.18468 0.95564 0.54994 0.0
C1461 C 0.16834 0.95147 0.54632 0.0
C1462 C 0.16445 0.93878 0.53218 0.0
C1463 C 0.17689 0.93019 0.52169 0.0
H1464 H 0.15869 0.95811 0.55443 0.0
H1465 H 0.27951 0.87564 0.45152 0.0
H1466 H 0.10297 0.24898 0.58265 0.0
H1467 H 0.09877 0.24654 0.54402 0.0
H1468 H 0.07539 0.19978 0.55319 0.0
H1469 H 0.07965 0.20212 0.59218 0.0
H1470 H 0.09784 0.19985 0.51937 0.0
H1471 H 0.05201 0.23158 0.54198 0.0
H1472 H 0.03788 0.25381 0.56125 0.0
H1473 H 0.06465 0.28948 0.52486 0.0
H1474 H 0.07913 0.26747 0.50558 0.0
H1475 H 0.07812 0.20244 0.40692 0.0
H1476 H 0.07521 0.19973 0.44601 0.0
H1477 H 0.09433 0.24852 0.45423 0.0
H1478 H 0.09681 0.25143 0.41542 0.0
H1479 H 0.06935 0.24417 0.47986 0.0
H1480 H 0.11795 0.21306 0.46158 0.0
H1481 H 0.1332 0.19128 0.44287 0.0
H1482 H 0.10207 0.15496 0.47134 0.0
H1483 H 0.08651 0.17656 0.49002 0.0
C1484 C 0.09692 0.23816 0.5765 0.0
C1485 C 0.09157 0.22576 0.59045 0.0
C1486 C 0.09448 0.23682 0.55441 0.0
C1487 C 0.08657 0.22309 0.54577 0.0
C1488 C 0.08145 0.21051 0.55958 0.0
C1489 C 0.08385 0.21188 0.5818 0.0
C1490 C 0.08387 0.22205 0.52226 0.0
C1491 C 0.09131 0.20934 0.51072 0.0
C1492 C 0.07553 0.23456 0.511 0.0
C1493 C 0.06672 0.24785 0.52241 0.0
C1494 C 0.05496 0.24416 0.53818 0.0
C1495 C 0.04688 0.25672 0.54909 0.0
C1496 C 0.05038 0.27304 0.5443 0.0
C1497 C 0.06195 0.27683 0.52855 0.0
C1498 C 0.07008 0.26431 0.5176 0.0
C1499 C 0.08161 0.21259 0.41711 0.0
C1500 C 0.08772 0.22713 0.40814 0.0
C1501 C 0.08001 0.21101 0.43943 0.0
C1502 C 0.08471 0.22386 0.4531 0.0
C1503 C 0.09058 0.23845 0.44405 0.0
C1504 C 0.09204 0.24008 0.42183 0.0
C1505 C 0.08383 0.22229 0.47686 0.0
C1506 C 0.07564 0.23451 0.48848 0.0
C1507 C 0.09158 0.20939 0.48814 0.0
C1508 C 0.10095 0.19643 0.47697 0.0
C1509 C 0.11428 0.20044 0.46371 0.0
C1510 C 0.123 0.18812 0.45314 0.0
C1511 C 0.11857 0.17175 0.45586 0.0
C1512 C 0.10546 0.16765 0.46921 0.0
C1513 C 0.09669 0.17992 0.4798 0.0
H1514 H 0.12533 0.16223 0.44767 0.0
H1515 H 0.04412 0.28275 0.55278 0.0
H1516 H 0.75705 0.07074 0.58646 0.0
H1517 H 0.76087 0.06778 0.54775 0.0
H1518 H 0.80759 0.09203 0.55233 0.0
H1519 H 0.80376 0.09517 0.59115 0.0
H1520 H 0.78855 0.10543 0.52172 0.0
H1521 H 0.80554 0.05143 0.54065 0.0
H1522 H 0.80347 0.02458 0.55843 0.0
H1523 H 0.75933 0.0143 0.5236 0.0
H1524 H 0.76101 0.0412 0.50582 0.0
H1525 H 0.80302 0.0967 0.41052 0.0
H1526 H 0.80671 0.09347 0.4493 0.0
H1527 H 0.76071 0.0678 0.45325 0.0
H1528 H 0.75716 0.07063 0.41443 0.0
H1529 H 0.7826 0.05424 0.47967 0.0
H1530 H 0.76347 0.10876 0.46444 0.0
H1531 H 0.7643 0.13585 0.44706 0.0
H1532 H 0.81118 0.1453 0.47557 0.0
H1533 H 0.81072 0.11816 0.49289 0.0
C1534 C 0.76826 0.07522 0.57929 0.0
C1535 C 0.78009 0.08323 0.59182 0.0
C1536 C 0.77046 0.07345 0.55716 0.0
C1537 C 0.78457 0.07958 0.54716 0.0
C1538 C 0.79662 0.08718 0.55974 0.0
C1539 C 0.79445 0.08892 0.58191 0.0
C1540 C 0.78604 0.07925 0.5234 0.0
C1541 C 0.78762 0.09419 0.51254 0.0
C1542 C 0.78436 0.06463 0.51142 0.0
C1543 C 0.78335 0.0484 0.52201 0.0
C1544 C 0.79533 0.0435 0.5369 0.0
C1545 C 0.79423 0.02826 0.54696 0.0
C1546 C 0.78126 0.01775 0.54218 0.0
C1547 C 0.76937 0.02246 0.52729 0.0
C1548 C 0.7704 0.03769 0.5172 0.0
C1549 C 0.7938 0.09019 0.41963 0.0
C1550 C 0.77973 0.08404 0.40949 0.0
C1551 C 0.7959 0.0884 0.44179 0.0
C1552 C 0.78385 0.08064 0.45424 0.0
C1553 C 0.77015 0.07385 0.44398 0.0
C1554 C 0.76811 0.07553 0.4218 0.0
C1555 C 0.78498 0.08044 0.47804 0.0
C1556 C 0.78381 0.06543 0.48889 0.0
C1557 C 0.78688 0.09502 0.49006 0.0
C1558 C 0.78714 0.11136 0.47975 0.0
C1559 C 0.77401 0.11657 0.46687 0.0
C1560 C 0.77441 0.13194 0.45705 0.0
C1561 C 0.78781 0.14227 0.46016 0.0
C1562 C 0.80082 0.13727 0.47314 0.0
C1563 C 0.8005 0.1219 0.48297 0.0
H1564 H 0.78809 0.15417 0.45255 0.0
H1565 H 0.78044 0.00596 0.54999 0.0
H1566 H 0.915 0.80278 0.59116 0.0
H1567 H 0.91929 0.80518 0.5523 0.0
H1568 H 0.91994 0.75258 0.54683 0.0
H1569 H 0.91601 0.75013 0.58555 0.0
H1570 H 0.94276 0.76584 0.5216 0.0
H1571 H 0.88526 0.7751 0.53618 0.0
H1572 H 0.86192 0.78914 0.55321 0.0
H1573 H 0.87679 0.83452 0.52451 0.0
H1574 H 0.90034 0.82076 0.50753 0.0
H1575 H 0.91665 0.74746 0.41678 0.0
H1576 H 0.92059 0.75119 0.45529 0.0
H1577 H 0.92007 0.80356 0.44683 0.0
H1578 H 0.91584 0.79988 0.40812 0.0
H1579 H 0.9003 0.79446 0.47886 0.0
H1580 H 0.95563 0.78363 0.45961 0.0
H1581 H 0.97831 0.76888 0.44212 0.0
H1582 H 0.9673 0.72596 0.4791 0.0
H1583 H 0.9444 0.74036 0.49661 0.0
C1584 C 0.91623 0.79175 0.58167 0.0
C1585 C 0.91507 0.77627 0.59135 0.0
C1586 C 0.91862 0.79313 0.55948 0.0
C1587 C 0.91973 0.77905 0.54663 0.0
C1588 C 0.91913 0.76361 0.55642 0.0
C1589 C 0.91682 0.76223 0.57855 0.0
C1590 C 0.92072 0.78022 0.52288 0.0
C1591 C 0.93346 0.77205 0.51223 0.0
C1592 C 0.90883 0.7887 0.51067 0.0
C1593 C 0.89466 0.79695 0.52081 0.0
C1594 C 0.88362 0.78809 0.53364 0.0
C1595 C 0.87034 0.796 0.54326 0.0
C1596 C 0.86791 0.81273 0.54 0.0
C1597 C 0.87871 0.82157 0.52706 0.0
C1598 C 0.89202 0.81373 0.51743 0.0
C1599 C 0.91755 0.75978 0.42306 0.0
C1600 C 0.91593 0.77338 0.40944 0.0
C1601 C 0.9199 0.7619 0.44508 0.0
C1602 C 0.92083 0.77766 0.45392 0.0
C1603 C 0.91946 0.79129 0.44032 0.0
C1604 C 0.91708 0.78917 0.41823 0.0
C1605 C 0.92214 0.77975 0.47753 0.0
C1606 C 0.90982 0.78852 0.48818 0.0
C1607 C 0.93437 0.77176 0.48972 0.0
C1608 C 0.94823 0.76307 0.47934 0.0
C1609 C 0.95797 0.77101 0.46392 0.0
C1610 C 0.97088 0.76272 0.45401 0.0
C1611 C 0.97422 0.74649 0.45947 0.0
C1612 C 0.96469 0.73853 0.47489 0.0
C1613 C 0.95176 0.74677 0.48484 0.0
H1614 H 0.98422 0.74009 0.45178 0.0
H1615 H 0.85762 0.81882 0.54746 0.0
H1616 H 0.70537 0.60237 0.58768 0.0
H1617 H 0.70396 0.59907 0.54865 0.0
H1618 H 0.74732 0.56904 0.55024 0.0
H1619 H 0.74885 0.57238 0.58926 0.0
H1620 H 0.7495 0.59299 0.52037 0.0
H1621 H 0.71036 0.55209 0.54039 0.0
H1622 H 0.68599 0.54121 0.55881 0.0
H1623 H 0.65557 0.57539 0.52499 0.0
H1624 H 0.6798 0.58664 0.50657 0.0
H1625 H 0.74845 0.57071 0.41125 0.0
H1626 H 0.74715 0.56844 0.45037 0.0
H1627 H 0.70314 0.59752 0.45091 0.0
H1628 H 0.70418 0.59956 0.41168 0.0
H1629 H 0.70127 0.57299 0.47976 0.0
H1630 H 0.74001 0.61483 0.46124 0.0
H1631 H 0.76413 0.62631 0.44284 0.0
H1632 H 0.79503 0.59121 0.47419 0.0
H1633 H 0.77105 0.57936 0.49254 0.0
C1634 C 0.71449 0.59491 0.57974 0.0
C1635 C 0.72723 0.58766 0.5915 0.0
C1636 C 0.71364 0.59298 0.55745 0.0
C1637 C 0.72549 0.58373 0.54656 0.0
C1638 C 0.73805 0.57622 0.55834 0.0
C1639 C 0.73888 0.57811 0.58062 0.0
C1640 C 0.72533 0.58267 0.52278 0.0
C1641 C 0.73906 0.58835 0.5115 0.0
C1642 C 0.71153 0.57706 0.51122 0.0
C1643 C 0.69692 0.5703 0.52225 0.0
C1644 C 0.69849 0.55738 0.53701 0.0
C1645 C 0.6847 0.55113 0.54743 0.0
C1646 C 0.66925 0.55763 0.54312 0.0
C1647 C 0.66755 0.57038 0.52833 0.0
C1648 C 0.68131 0.57668 0.51788 0.0
C1649 C 0.73839 0.57646 0.41968 0.0
C1650 C 0.72648 0.58543 0.40845 0.0
C1651 C 0.7377 0.5752 0.44203 0.0
C1652 C 0.72521 0.58306 0.45358 0.0
C1653 C 0.7129 0.59141 0.44232 0.0
C1654 C 0.71353 0.59259 0.41993 0.0
C1655 C 0.72546 0.58325 0.4774 0.0
C1656 C 0.71174 0.57751 0.48866 0.0
C1657 C 0.73924 0.5889 0.48899 0.0
C1658 C 0.75371 0.5961 0.4781 0.0
C1659 C 0.75193 0.60948 0.46409 0.0
C1660 C 0.76558 0.61607 0.45368 0.0
C1661 C 0.78109 0.60947 0.4573 0.0
C1662 C 0.783 0.5963 0.47138 0.0
C1663 C 0.76938 0.58965 0.4818 0.0
H1664 H 0.79165 0.61457 0.44923 0.0
H1665 H 0.65858 0.55277 0.5512 0.0
H1666 H 0.42081 0.75385 0.41308 0.0
H1667 H 0.42457 0.7506 0.45175 0.0
H1668 H 0.4129 0.69931 0.44643 0.0
H1669 H 0.40885 0.70256 0.40768 0.0
H1670 H 0.39574 0.71319 0.47764 0.0
H1671 H 0.45201 0.71203 0.45788 0.0
H1672 H 0.4772 0.72139 0.43993 0.0
H1673 H 0.47548 0.76637 0.47541 0.0
H1674 H 0.45014 0.75739 0.49336 0.0
H1675 H 0.41048 0.70096 0.58878 0.0
H1676 H 0.41404 0.69856 0.54983 0.0
H1677 H 0.42327 0.7504 0.54569 0.0
H1678 H 0.41991 0.75285 0.58458 0.0
H1679 H 0.44352 0.73305 0.51926 0.0
H1680 H 0.38575 0.73551 0.53537 0.0
H1681 H 0.36031 0.72654 0.5531 0.0
H1682 H 0.36497 0.67916 0.524 0.0
H1683 H 0.39057 0.6878 0.50632 0.0
C1684 C 0.41925 0.74183 0.42009 0.0
C1685 C 0.4145 0.72846 0.40737 0.0
C1686 C 0.42149 0.73997 0.4422 0.0
C1687 C 0.41917 0.72467 0.45198 0.0
C1688 C 0.41479 0.71121 0.43921 0.0
C1689 C 0.41252 0.71308 0.41709 0.0
C1690 C 0.42012 0.72308 0.4757 0.0
C1691 C 0.40634 0.7172 0.4867 0.0
C1692 C 0.43381 0.72864 0.48757 0.0
C1693 C 0.44909 0.73408 0.47685 0.0
C1694 C 0.45693 0.72397 0.46174 0.0
C1695 C 0.47125 0.7292 0.45158 0.0
C1696 C 0.47792 0.74448 0.45649 0.0
C1697 C 0.4703 0.75454 0.47161 0.0
C1698 C 0.45596 0.74938 0.4818 0.0
C1699 C 0.41346 0.7118 0.57959 0.0
C1700 C 0.4148 0.72712 0.58968 0.0
C1701 C 0.41545 0.71042 0.55735 0.0
C1702 C 0.41873 0.72434 0.54485 0.0
C1703 C 0.42075 0.73951 0.55503 0.0
C1704 C 0.41876 0.7409 0.57724 0.0
C1705 C 0.41909 0.72335 0.52107 0.0
C1706 C 0.43306 0.7288 0.51011 0.0
C1707 C 0.40558 0.71741 0.5092 0.0
C1708 C 0.39016 0.71224 0.51974 0.0
C1709 C 0.38141 0.72314 0.53289 0.0
C1710 C 0.36696 0.71812 0.54291 0.0
C1711 C 0.36105 0.70227 0.53973 0.0
C1712 C 0.36957 0.69142 0.52648 0.0
C1713 C 0.38405 0.69637 0.51646 0.0
H1714 H 0.34986 0.69841 0.54749 0.0
H1715 H 0.48901 0.7485 0.44861 0.0
H1716 H 0.28771 0.38083 0.40971 0.0
H1717 H 0.2886 0.38237 0.44892 0.0
H1718 H 0.26686 0.43037 0.44673 0.0
H1719 H 0.26588 0.42891 0.40739 0.0
H1720 H 0.29255 0.42771 0.47686 0.0
H1721 H 0.24311 0.39965 0.45753 0.0
H1722 H 0.22667 0.37868 0.439 0.0
H1723 H 0.25317 0.34079 0.47167 0.0
H1724 H 0.26995 0.36155 0.49016 0.0
H1725 H 0.26509 0.43087 0.58575 0.0
H1726 H 0.26751 0.43155 0.54657 0.0
H1727 H 0.28458 0.38163 0.54681 0.0
H1728 H 0.28196 0.3808 0.58593 0.0
H1729 H 0.26137 0.38578 0.51741 0.0
H1730 H 0.31068 0.41359 0.53715 0.0
H1731 H 0.32744 0.43439 0.5555 0.0
H1732 H 0.30167 0.47252 0.52229 0.0
H1733 H 0.28459 0.45194 0.50395 0.0
C1734 C 0.28327 0.39179 0.41755 0.0
C1735 C 0.27663 0.40472 0.4055 0.0
C1736 C 0.28375 0.39263 0.43995 0.0
C1737 C 0.27764 0.40641 0.45071 0.0
C1738 C 0.27161 0.41962 0.43871 0.0
C1739 C 0.27102 0.41875 0.41627 0.0
C1740 C 0.27686 0.40665 0.47451 0.0
C1741 C 0.28558 0.41868 0.48577 0.0
C1742 C 0.26803 0.39466 0.48606 0.0
C1743 C 0.2579 0.38215 0.47505 0.0
C1744 C 0.24553 0.38684 0.46062 0.0
C1745 C 0.23613 0.37499 0.45015 0.0
C1746 C 0.2389 0.35841 0.45411 0.0
C1747 C 0.25105 0.35364 0.4686 0.0
C1748 C 0.26051 0.36544 0.47908 0.0
C1749 C 0.26948 0.42008 0.57746 0.0
C1750 C 0.27333 0.40578 0.5889 0.0
C1751 C 0.27092 0.42051 0.55507 0.0
C1752 C 0.27635 0.40668 0.54375 0.0
C1753 C 0.28037 0.39245 0.5552 0.0
C1754 C 0.27891 0.39201 0.57756 0.0
C1755 C 0.27718 0.40678 0.51991 0.0
C1756 C 0.2684 0.39481 0.50858 0.0
C1757 C 0.28599 0.41881 0.50834 0.0
C1758 C 0.29624 0.43122 0.51934 0.0
C1759 C 0.30849 0.42641 0.53389 0.0
C1760 C 0.31807 0.43816 0.54427 0.0
C1761 C 0.31559 0.45477 0.54011 0.0
C1762 C 0.30356 0.45965 0.52552 0.0
C1763 C 0.29394 0.44795 0.51511 0.0
H1764 H 0.32302 0.46385 0.54815 0.0
H1765 H 0.23161 0.34926 0.446 0.0
H1766 H 0.60332 0.29599 0.58776 0.0
H1767 H 0.60096 0.29756 0.54862 0.0
H1768 H 0.57271 0.253 0.54843 0.0
H1769 H 0.5753 0.25121 0.58747 0.0
H1770 H 0.59652 0.25138 0.51989 0.0
H1771 H 0.5552 0.2907 0.53807 0.0
H1772 H 0.54393 0.31523 0.5557 0.0
H1773 H 0.57874 0.34536 0.52255 0.0
H1774 H 0.59038 0.32097 0.50493 0.0
H1775 H 0.57107 0.25083 0.41236 0.0
H1776 H 0.56988 0.25374 0.45138 0.0
H1777 H 0.60269 0.29494 0.44803 0.0
H1778 H 0.60393 0.29212 0.4088 0.0
H1779 H 0.57693 0.29915 0.478 0.0
H1780 H 0.61831 0.25979 0.46025 0.0
H1781 H 0.62935 0.23529 0.44229 0.0
H1782 H 0.59415 0.20526 0.47489 0.0
H1783 H 0.58272 0.22963 0.4928 0.0
C1784 C 0.59643 0.28665 0.57939 0.0
C1785 C 0.58953 0.27345 0.59066 0.0
C1786 C 0.59504 0.28759 0.55702 0.0
C1787 C 0.58658 0.27544 0.54558 0.0
C1788 C 0.57932 0.2625 0.55691 0.0
C1789 C 0.58077 0.26151 0.57923 0.0
C1790 C 0.58617 0.27558 0.52172 0.0
C1791 C 0.59199 0.26175 0.51078 0.0
C1792 C 0.58075 0.2893 0.50978 0.0
C1793 C 0.57377 0.30398 0.52035 0.0
C1794 C 0.56055 0.30254 0.53468 0.0
C1795 C 0.55407 0.31642 0.54464 0.0
C1796 C 0.56065 0.33184 0.54029 0.0
C1797 C 0.57368 0.33341 0.52592 0.0
C1798 C 0.58021 0.31956 0.51593 0.0
C1799 C 0.57789 0.26064 0.41987 0.0
C1800 C 0.5877 0.27117 0.40755 0.0
C1801 C 0.57721 0.26226 0.44217 0.0
C1802 C 0.58635 0.27443 0.45258 0.0
C1803 C 0.59556 0.28546 0.44027 0.0
C1804 C 0.5963 0.2838 0.4179 0.0
C1805 C 0.58703 0.27488 0.47635 0.0
C1806 C 0.58139 0.28881 0.48721 0.0
C1807 C 0.59261 0.26126 0.48829 0.0
C1808 C 0.59956 0.24656 0.47771 0.0
C1809 C 0.61284 0.24798 0.46346 0.0
C1810 C 0.61918 0.23411 0.45331 0.0
C1811 C 0.61243 0.21873 0.4574 0.0
C1812 C 0.59935 0.21718 0.47171 0.0
C1813 C 0.59294 0.23102 0.48188 0.0
H1814 H 0.61735 0.20801 0.44953 0.0
H1815 H 0.55561 0.34257 0.54802 0.0
H1816 H 0.70233 0.40929 0.91088 0.0
H1817 H 0.69991 0.41107 0.95006 0.0
H1818 H 0.75092 0.42406 0.95452 0.0
H1819 H 0.75345 0.42222 0.91549 0.0
H1820 H 0.74304 0.39894 0.98095 0.0
H1821 H 0.72155 0.45216 0.96404 0.0
H1822 H 0.70309 0.4717 0.9461 0.0
H1823 H 0.66163 0.44869 0.97571 0.0
H1824 H 0.67983 0.42886 0.9936 0.0
H1825 H 0.74966 0.41817 0.08987 0.0
H1826 H 0.74874 0.42127 0.05089 0.0
H1827 H 0.69746 0.40892 0.05107 0.0
H1828 H 0.69822 0.40609 0.09031 0.0
H1829 H 0.70417 0.43332 0.02229 0.0
H1830 H 0.72506 0.38017 0.03891 0.0
H1831 H 0.74306 0.36018 0.05678 0.0
H1832 H 0.78504 0.38226 0.02721 0.0
H1833 H 0.7673 0.40255 0.0094 0.0
C1834 C 0.71296 0.41274 0.92021 0.0
C1835 C 0.72809 0.41556 0.91014 0.0
C1836 C 0.71155 0.4138 0.94257 0.0
C1837 C 0.72523 0.41773 0.95518 0.0
C1838 C 0.74022 0.42098 0.94508 0.0
C1839 C 0.74163 0.41997 0.92278 0.0
C1840 C 0.7243 0.41738 0.97897 0.0
C1841 C 0.7347 0.40664 0.98999 0.0
C1842 C 0.71301 0.42699 0.9907 0.0
C1843 C 0.70205 0.43892 0.97998 0.0
C1844 C 0.70849 0.45118 0.96657 0.0
C1845 C 0.69807 0.46232 0.95645 0.0
C1846 C 0.68119 0.46141 0.95971 0.0
C1847 C 0.6747 0.44937 0.97316 0.0
C1848 C 0.68506 0.43818 0.98332 0.0
C1849 C 0.73814 0.41628 0.08166 0.0
C1850 C 0.72404 0.41174 0.0931 0.0
C1851 C 0.73764 0.41801 0.05937 0.0
C1852 C 0.7231 0.41503 0.04805 0.0
C1853 C 0.70881 0.41121 0.05951 0.0
C1854 C 0.70928 0.40956 0.08188 0.0
C1855 C 0.72314 0.4151 0.02422 0.0
C1856 C 0.71251 0.42566 0.01321 0.0
C1857 C 0.73415 0.40523 0.01241 0.0
C1858 C 0.74486 0.39297 0.02298 0.0
C1859 C 0.73814 0.38084 0.03634 0.0
C1860 C 0.7483 0.36944 0.04644 0.0
C1861 C 0.76519 0.36997 0.04317 0.0
C1862 C 0.77196 0.38188 0.02975 0.0
C1863 C 0.76186 0.39332 0.01963 0.0
H1864 H 0.77303 0.36114 0.05101 0.0
H1865 H 0.67315 0.47005 0.95186 0.0
H1866 H 0.57377 0.7496 0.08682 0.0
H1867 H 0.57049 0.7465 0.04799 0.0
H1868 H 0.58882 0.69713 0.05198 0.0
H1869 H 0.59222 0.70019 0.09086 0.0
H1870 H 0.6044 0.71477 0.0214 0.0
H1871 H 0.54895 0.70389 0.04096 0.0
H1872 H 0.52261 0.70895 0.05905 0.0
H1873 H 0.51714 0.75399 0.02436 0.0
H1874 H 0.54357 0.74933 0.00627 0.0
H1875 H 0.59295 0.70071 0.91046 0.0
H1876 H 0.58987 0.69771 0.94937 0.0
H1877 H 0.56957 0.74632 0.95314 0.0
H1878 H 0.57224 0.74923 0.91422 0.0
H1879 H 0.55387 0.72627 0.97996 0.0
H1880 H 0.61007 0.73903 0.96376 0.0
H1881 H 0.63675 0.73504 0.94604 0.0
H1882 H 0.64111 0.68759 0.97502 0.0
H1883 H 0.61433 0.69121 0.99268 0.0
C1884 C 0.5769 0.73801 0.07946 0.0
C1885 C 0.58329 0.72515 0.09185 0.0
C1886 C 0.57495 0.73623 0.05729 0.0
C1887 C 0.57931 0.72154 0.04712 0.0
C1888 C 0.58535 0.70855 0.05953 0.0
C1889 C 0.58725 0.71031 0.08173 0.0
C1890 C 0.57868 0.72021 0.02338 0.0
C1891 C 0.59327 0.71694 0.01235 0.0
C1892 C 0.56425 0.72349 0.01159 0.0
C1893 C 0.54831 0.72631 0.02238 0.0
C1894 C 0.54219 0.71494 0.03731 0.0
C1895 C 0.52723 0.71773 0.04754 0.0
C1896 C 0.51822 0.7318 0.04289 0.0
C1897 C 0.52414 0.7431 0.02795 0.0
C1898 C 0.5391 0.74038 0.01769 0.0
C1899 C 0.58765 0.71067 0.91957 0.0
C1900 C 0.58296 0.72526 0.90935 0.0
C1901 C 0.58595 0.70897 0.9418 0.0
C1902 C 0.57974 0.7219 0.95421 0.0
C1903 C 0.57441 0.7362 0.9439 0.0
C1904 C 0.576 0.73786 0.92166 0.0
C1905 C 0.57962 0.72095 0.97802 0.0
C1906 C 0.56493 0.72386 0.98905 0.0
C1907 C 0.59399 0.71748 0.98986 0.0
C1908 C 0.61012 0.71531 0.97933 0.0
C1909 C 0.61667 0.72769 0.96622 0.0
C1910 C 0.63181 0.72551 0.95621 0.0
C1911 C 0.6406 0.71105 0.95935 0.0
C1912 C 0.63427 0.69877 0.97257 0.0
C1913 C 0.61912 0.70088 0.98259 0.0
H1914 H 0.65232 0.70938 0.95159 0.0
H1915 H 0.50664 0.73394 0.05083 0.0
H1916 H 0.2945 0.60208 0.0886 0.0
H1917 H 0.29638 0.60027 0.04945 0.0
H1918 H 0.25498 0.56762 0.04844 0.0
H1919 H 0.25297 0.56942 0.08766 0.0
H1920 H 0.28016 0.55841 0.01977 0.0
H1921 H 0.24832 0.6058 0.0381 0.0
H1922 H 0.24272 0.63181 0.05673 0.0
H1923 H 0.28461 0.65364 0.0266 0.0
H1924 H 0.29061 0.62765 0.00803 0.0
H1925 H 0.2541 0.5696 0.91123 0.0
H1926 H 0.25641 0.5673 0.95032 0.0
H1927 H 0.29532 0.60292 0.95005 0.0
H1928 H 0.29301 0.60533 0.91099 0.0
H1929 H 0.27234 0.61021 0.97953 0.0
H1930 H 0.30352 0.56314 0.95975 0.0
H1931 H 0.30915 0.5371 0.94121 0.0
H1932 H 0.26868 0.51462 0.97375 0.0
H1933 H 0.26266 0.54061 0.99227 0.0
C1934 C 0.28592 0.59435 0.08008 0.0
C1935 C 0.27351 0.58597 0.09117 0.0
C1936 C 0.287 0.59336 0.05772 0.0
C1937 C 0.27572 0.58394 0.04607 0.0
C1938 C 0.26379 0.57496 0.05716 0.0
C1939 C 0.26263 0.57604 0.07954 0.0
C1940 C 0.27577 0.58429 0.02226 0.0
C1941 C 0.27829 0.56968 0.01092 0.0
C1942 C 0.27363 0.59907 0.0108 0.0
C1943 C 0.27002 0.61473 0.02187 0.0
C1944 C 0.25642 0.6161 0.03559 0.0
C1945 C 0.25316 0.63084 0.04612 0.0
C1946 C 0.26333 0.64435 0.0429 0.0
C1947 C 0.27676 0.64315 0.02911 0.0
C1948 C 0.28009 0.62842 0.01857 0.0
C1949 C 0.26326 0.5768 0.91948 0.0
C1950 C 0.27336 0.58766 0.90806 0.0
C1951 C 0.26461 0.57544 0.9418 0.0
C1952 C 0.27611 0.58487 0.95309 0.0
C1953 C 0.28638 0.59552 0.94166 0.0
C1954 C 0.28507 0.59685 0.91934 0.0
C1955 C 0.2768 0.58432 0.9769 0.0
C1956 C 0.27433 0.59892 0.9883 0.0
C1957 C 0.27898 0.56952 0.98836 0.0
C1958 C 0.28254 0.55387 0.97724 0.0
C1959 C 0.29573 0.55269 0.96281 0.0
C1960 C 0.29901 0.53793 0.95234 0.0
C1961 C 0.28925 0.52423 0.95626 0.0
C1962 C 0.27621 0.52525 0.97071 0.0
C1963 C 0.27287 0.53999 0.98121 0.0
H1964 H 0.29181 0.51281 0.94814 0.0
H1965 H 0.26078 0.65576 0.05106 0.0
H1966 H 0.40532 0.29751 0.90836 0.0
H1967 H 0.40875 0.29893 0.94738 0.0
H1968 H 0.43245 0.25181 0.94682 0.0
H1969 H 0.42885 0.25021 0.9079 0.0
H1970 H 0.4086 0.25278 0.97587 0.0
H1971 H 0.45392 0.28713 0.95678 0.0
H1972 H 0.46762 0.31023 0.93879 0.0
H1973 H 0.43682 0.34409 0.97258 0.0
H1974 H 0.42278 0.32117 0.99056 0.0
H1975 H 0.43058 0.2494 0.08425 0.0
H1976 H 0.43369 0.25175 0.04534 0.0
H1977 H 0.4087 0.29819 0.04656 0.0
H1978 H 0.4058 0.29605 0.08565 0.0
H1979 H 0.43379 0.29809 0.01729 0.0
H1980 H 0.38776 0.26424 0.03495 0.0
H1981 H 0.37355 0.24146 0.05297 0.0
H1982 H 0.40504 0.207 0.02138 0.0
H1983 H 0.41961 0.22962 0.00341 0.0
C1984 C 0.41146 0.28756 0.91653 0.0
C1985 C 0.41677 0.27372 0.9051 0.0
C1986 C 0.41348 0.28842 0.93882 0.0
C1987 C 0.42094 0.27551 0.95001 0.0
C1988 C 0.42665 0.2619 0.93851 0.0
C1989 C 0.42462 0.26102 0.91627 0.0
C1990 C 0.4217 0.27559 0.97383 0.0
C1991 C 0.41437 0.26256 0.98489 0.0
C1992 C 0.42874 0.28861 0.98562 0.0
C1993 C 0.43719 0.30242 0.97486 0.0
C1994 C 0.44998 0.29949 0.96024 0.0
C1995 C 0.45782 0.31256 0.95007 0.0
C1996 C 0.45307 0.32862 0.9545 0.0
C1997 C 0.44048 0.33165 0.96915 0.0
C1998 C 0.43258 0.31862 0.97935 0.0
C1999 C 0.42596 0.26024 0.07628 0.0
C2000 C 0.41779 0.27246 0.08794 0.0
C2001 C 0.42772 0.26154 0.05405 0.0
C2002 C 0.42115 0.275 0.04302 0.0
C2003 C 0.4138 0.28768 0.05476 0.0
C2004 C 0.41212 0.28642 0.07707 0.0
C2005 C 0.42089 0.27519 0.0192 0.0
C2006 C 0.42816 0.28828 0.00819 0.0
C2007 C 0.41371 0.26227 0.00737 0.0
C2008 C 0.40487 0.24863 0.01801 0.0
C2009 C 0.39173 0.25181 0.03197 0.0
C2010 C 0.3836 0.23893 0.04215 0.0
C2011 C 0.38841 0.2228 0.03836 0.0
C2012 C 0.40134 0.21951 0.02432 0.0
C2013 C 0.40953 0.23236 0.01413 0.0
H2014 H 0.38211 0.21284 0.04626 0.0
H2015 H 0.45916 0.33872 0.94661 0.0
H2016 H 0.22832 0.03769 0.16977 0.0
H2017 H 0.22981 0.01323 0.19232 0.0
H2018 H 0.24637 0.04268 0.24562 0.0
H2019 H 0.24564 0.06698 0.22283 0.0
H2020 H 0.26232 0.01573 0.24604 0.0
H2021 H 0.2055 0.02914 0.23988 0.0
H2022 H 0.17966 0.03537 0.22118 0.0
H2023 H 0.18072 0.98825 0.19079 0.0
H2024 H 0.20669 0.98181 0.20911 0.0
H2025 H 0.23726 0.9615 0.33071 0.0
H2026 H 0.23937 0.9847 0.30589 0.0
H2027 H 0.23575 0.95176 0.252 0.0
H2028 H 0.23393 0.9285 0.27667 0.0
H2029 H 0.21374 0.97961 0.25139 0.0
H2030 H 0.27082 0.96655 0.26071 0.0
H2031 H 0.29573 0.96121 0.28189 0.0
H2032 H 0.2927 0.00918 0.30962 0.0
H2033 H 0.26762 0.01473 0.28883 0.0
C2034 C 0.23237 0.03889 0.18627 0.0
C2035 C 0.23679 0.05421 0.19461 0.0
C2036 C 0.23314 0.02493 0.19918 0.0
C2037 C 0.23789 0.02613 0.22083 0.0
C2038 C 0.24265 0.04141 0.229 0.0
C2039 C 0.24219 0.05531 0.21598 0.0
C2040 C 0.23764 0.01157 0.2351 0.0
C2041 C 0.25161 0.00796 0.24735 0.0
C2042 C 0.22376 0.00125 0.23668 0.0
C2043 C 0.20812 0.00507 0.22569 0.0
C2044 C 0.20028 0.02015 0.22909 0.0
C2045 C 0.1856 0.02371 0.21858 0.0
C2046 C 0.17857 0.01223 0.20476 0.0
C2047 C 0.18619 0.99714 0.20147 0.0
C2048 C 0.20088 0.99352 0.21192 0.0
C2049 C 0.23703 0.95922 0.31357 0.0
C2050 C 0.23545 0.94323 0.30558 0.0
C2051 C 0.23827 0.97245 0.29945 0.0
C2052 C 0.23775 0.96988 0.27717 0.0
C2053 C 0.23618 0.95394 0.26916 0.0
C2054 C 0.2352 0.94069 0.28325 0.0
C2055 C 0.23835 0.98391 0.26222 0.0
C2056 C 0.22443 0.9874 0.24993 0.0
C2057 C 0.25213 0.99428 0.26093 0.0
C2058 C 0.26725 0.99099 0.27337 0.0
C2059 C 0.27538 0.97591 0.27147 0.0
C2060 C 0.28955 0.97285 0.28337 0.0
C2061 C 0.29577 0.98483 0.29713 0.0
C2062 C 0.28785 -9e-05 0.29897 0.0
C2063 C 0.27367 0.00302 0.28712 0.0
H2064 H 0.30674 0.98245 0.30633 0.0
H2065 H 0.16721 0.01501 0.19664 0.0
H2066 H 0.96135 0.23264 0.16704 0.0
H2067 H 0.98558 0.23459 0.18994 0.0
H2068 H 0.95541 0.2506 0.24281 0.0
H2069 H 0.93126 0.24922 0.21976 0.0
H2070 H 0.98261 0.2672 0.24298 0.0
H2071 H 0.969 0.21041 0.23805 0.0
H2072 H 0.96271 0.18435 0.21989 0.0
H2073 H 0.00999 0.18475 0.18989 0.0
H2074 H 0.01647 0.21094 0.20764 0.0
H2075 H 0.0381 0.24442 0.3276 0.0
H2076 H 0.01453 0.2465 0.30337 0.0
H2077 H 0.04629 0.23932 0.24885 0.0
H2078 H 0.06987 0.23743 0.27288 0.0
H2079 H 0.0186 0.21862 0.2496 0.0
H2080 H 0.03195 0.27572 0.25681 0.0
H2081 H 0.03756 0.30111 0.27684 0.0
H2082 H 0.98972 0.29906 0.30516 0.0
H2083 H 0.98391 0.2735 0.28552 0.0
C2084 C 0.95992 0.23669 0.1835 0.0
C2085 C 0.94442 0.24068 0.19167 0.0
C2086 C 0.97375 0.23772 0.19661 0.0
C2087 C 0.97228 0.24244 0.21824 0.0
C2088 C 0.95685 0.24689 0.22621 0.0
C2089 C 0.94305 0.24606 0.21303 0.0
C2090 C 0.98673 0.24236 0.2327 0.0
C2091 C 0.99036 0.2565 0.24459 0.0
C2092 C 0.99699 0.22848 0.23467 0.0
C2093 C 0.99315 0.21272 0.224 0.0
C2094 C 0.978 0.205 0.22745 0.0
C2095 C 0.97442 0.1902 0.21725 0.0
C2096 C 0.98593 0.18293 0.2037 0.0
C2097 C 0.00108 0.19042 0.20036 0.0
C2098 C 0.00472 0.20523 0.2105 0.0
C2099 C 0.04005 0.24343 0.31044 0.0
C2100 C 0.0558 0.24077 0.30211 0.0
C2101 C 0.02661 0.24466 0.29664 0.0
C2102 C 0.02872 0.2431 0.27435 0.0
C2103 C 0.04444 0.24057 0.26601 0.0
C2104 C 0.05789 0.23954 0.27976 0.0
C2105 C 0.01445 0.24344 0.25973 0.0
C2106 C 0.01085 0.22931 0.24788 0.0
C2107 C 0.00411 0.25722 0.25808 0.0
C2108 C 0.00756 0.27261 0.26986 0.0
C2109 C 0.02268 0.2806 0.26746 0.0
C2110 C 0.02588 0.29504 0.27871 0.0
C2111 C 0.01402 0.30167 0.29231 0.0
C2112 C 0.99891 0.29389 0.29464 0.0
C2113 C 0.99565 0.27944 0.28344 0.0
H2114 H 0.01652 0.31285 0.30101 0.0
H2115 H 0.98313 0.17146 0.19582 0.0
H2116 H 0.7942 0.0498 0.30821 0.0
H2117 H 0.79332 0.02701 0.28283 0.0
H2118 H 0.74059 0.0279 0.28439 0.0
H2119 H 0.74138 0.05064 0.30998 0.0
H2120 H 0.75284 0.99665 0.28517 0.0
H2121 H 0.76053 0.0457 0.24353 0.0
H2122 H 0.77428 0.07157 0.23414 0.0
H2123 H 0.81892 0.04558 0.22183 0.0
H2124 H 0.80549 0.01956 0.23143 0.0
H2125 H 0.73959 0.94803 0.19333 0.0
H2126 H 0.73951 0.97151 0.21765 0.0
H2127 H 0.79215 0.97391 0.21412 0.0
H2128 H 0.79228 0.95069 0.18938 0.0
H2129 H 0.7795 0.00384 0.21415 0.0
H2130 H 0.77282 0.95521 0.25637 0.0
H2131 H 0.76004 0.9291 0.26692 0.0
H2132 H 0.71469 0.95386 0.2792 0.0
H2133 H 0.72715 0.98009 0.26843 0.0
C2134 C 0.78242 0.04503 0.30333 0.0
C2135 C 0.76785 0.05205 0.31097 0.0
C2136 C 0.78194 0.03207 0.28875 0.0
C2137 C 0.76689 0.02597 0.28147 0.0
C2138 C 0.75232 0.0325 0.28974 0.0
C2139 C 0.7528 0.04548 0.30434 0.0
C2140 C 0.76635 0.01307 0.26479 0.0
C2141 C 0.75846 0.99829 0.26953 0.0
C2142 C 0.77403 0.01511 0.24458 0.0
C2143 C 0.78203 0.0307 0.23838 0.0
C2144 C 0.7733 0.04551 0.23894 0.0
C2145 C 0.78103 0.0602 0.23356 0.0
C2146 C 0.79747 0.06022 0.22744 0.0
C2147 C 0.80619 0.04554 0.22659 0.0
C2148 C 0.79852 0.03082 0.23197 0.0
C2149 C 0.75113 0.9537 0.19753 0.0
C2150 C 0.76595 0.94747 0.18959 0.0
C2151 C 0.75107 0.96705 0.21152 0.0
C2152 C 0.76585 0.97426 0.21804 0.0
C2153 C 0.78061 0.9685 0.20938 0.0
C2154 C 0.78067 0.95522 0.19526 0.0
C2155 C 0.76599 0.98737 0.23451 0.0
C2156 C 0.77382 0.0022 0.22975 0.0
C2157 C 0.75836 0.98532 0.25478 0.0
C2158 C 0.75087 0.96958 0.26138 0.0
C2159 C 0.76009 0.95506 0.26117 0.0
C2160 C 0.75291 0.94025 0.26721 0.0
C2161 C 0.73655 0.93982 0.27367 0.0
C2162 C 0.72735 0.95421 0.27416 0.0
C2163 C 0.73447 0.96906 0.2681 0.0
H2164 H 0.73101 0.92833 0.27834 0.0
H2165 H 0.80345 0.07161 0.22333 0.0
H2166 H 0.03973 0.75632 0.17326 0.0
H2167 H 0.01617 0.75408 0.19728 0.0
H2168 H 0.0475 0.76291 0.25187 0.0
H2169 H 0.07117 0.76454 0.22798 0.0
H2170 H 0.02633 0.74045 0.26185 0.0
H2171 H 0.02303 0.7934 0.22964 0.0
H2172 H 0.02227 0.8135 0.20013 0.0
H2173 H 0.97851 0.79134 0.17555 0.0
H2174 H 0.97913 0.77096 0.20477 0.0
H2175 H 0.96287 0.76901 0.33311 0.0
H2176 H 0.98705 0.76716 0.30988 0.0
H2177 H 0.95741 0.74682 0.25921 0.0
H2178 H 0.93328 0.74832 0.28241 0.0
H2179 H 0.97746 0.77473 0.2476 0.0
H2180 H 0.98121 0.72213 0.28228 0.0
H2181 H 0.98242 0.70357 0.31344 0.0
H2182 H 0.02609 0.72742 0.33549 0.0
H2183 H 0.025 0.74629 0.3046 0.0
C2184 C 0.04159 0.75768 0.1904 0.0
C2185 C 0.05724 0.76069 0.19877 0.0
C2186 C 0.02811 0.75649 0.2041 0.0
C2187 C 0.03001 0.75863 0.22636 0.0
C2188 C 0.04572 0.76124 0.23477 0.0
C2189 C 0.05923 0.76221 0.2211 0.0
C2190 C 0.01559 0.75846 0.24085 0.0
C2191 C 0.01573 0.74809 0.25884 0.0
C2192 C 0.00166 0.7683 0.23685 0.0
C2193 C 0.00123 0.78055 0.21927 0.0
C2194 C 0.01332 0.79274 0.21785 0.0
C2195 C 0.0129 0.80419 0.20119 0.0
C2196 C 0.00038 0.80367 0.18594 0.0
C2197 C 0.98822 0.79171 0.18735 0.0
C2198 C 0.98859 0.78021 0.20397 0.0
C2199 C 0.96157 0.76399 0.3171 0.0
C2200 C 0.94623 0.7588 0.30954 0.0
C2201 C 0.97536 0.76292 0.3039 0.0
C2202 C 0.97395 0.75684 0.2829 0.0
C2203 C 0.95869 0.75153 0.2754 0.0
C2204 C 0.94497 0.75235 0.28868 0.0
C2205 C 0.98825 0.7567 0.2684 0.0
C2206 C 0.98807 0.76707 0.25048 0.0
C2207 C 0.00223 0.7471 0.27269 0.0
C2208 C 0.00292 0.73574 0.29125 0.0
C2209 C 0.99098 0.72352 0.29388 0.0
C2210 C 0.99167 0.71292 0.31147 0.0
C2211 C 0.0043 0.71434 0.32647 0.0
C2212 C 0.0163 0.72635 0.32388 0.0
C2213 C 0.01566 0.73699 0.30632 0.0
H2214 H 0.00481 0.70612 0.34008 0.0
H2215 H 7e-05 0.81255 0.17305 0.0
H2216 H 0.74033 0.93631 0.78888 0.0
H2217 H 0.73927 0.96012 0.76511 0.0
H2218 H 0.77615 0.98404 0.80337 0.0
H2219 H 0.77737 0.9602 0.82719 0.0
H2220 H 0.74947 0.00454 0.79114 0.0
H2221 H 0.78775 0.96625 0.75926 0.0
H2222 H 0.79574 0.93917 0.7453 0.0
H2223 H 0.75749 0.94169 0.69816 0.0
H2224 H 0.74914 0.96869 0.71203 0.0
H2225 H 0.77722 0.06649 0.722 0.0
H2226 H 0.77461 0.04309 0.74602 0.0
H2227 H 0.74569 0.01786 0.69841 0.0
H2228 H 0.74884 0.04111 0.67389 0.0
H2229 H 0.76635 0.99753 0.7151 0.0
H2230 H 0.72837 0.03557 0.74453 0.0
H2231 H 0.71862 0.06206 0.75845 0.0
H2232 H 0.75363 0.05966 0.80975 0.0
H2233 H 0.76375 0.03325 0.79597 0.0
C2234 C 0.7481 0.9467 0.79236 0.0
C2235 C 0.75899 0.9464 0.80983 0.0
C2236 C 0.74751 0.96025 0.77873 0.0
C2237 C 0.75774 0.97373 0.78242 0.0
C2238 C 0.76819 0.97371 0.80029 0.0
C2239 C 0.76889 0.9601 0.81382 0.0
C2240 C 0.75797 0.9876 0.76718 0.0
C2241 C 0.75331 0.0031 0.77456 0.0
C2242 C 0.76248 0.98551 0.74542 0.0
C2243 C 0.76771 0.96941 0.73683 0.0
C2244 C 0.78098 0.96098 0.74601 0.0
C2245 C 0.78558 0.94565 0.7381 0.0
C2246 C 0.77708 0.93869 0.72091 0.0
C2247 C 0.76404 0.94708 0.7115 0.0
C2248 C 0.75938 0.96241 0.71936 0.0
C2249 C 0.77026 0.05597 0.71667 0.0
C2250 C 0.76316 0.05563 0.69612 0.0
C2251 C 0.76869 0.04263 0.73047 0.0
C2252 C 0.75967 0.02881 0.72422 0.0
C2253 C 0.75265 0.02841 0.70362 0.0
C2254 C 0.75442 0.04169 0.68965 0.0
C2255 C 0.75799 0.01467 0.73903 0.0
C2256 C 0.76239 0.99906 0.73161 0.0
C2257 C 0.75301 0.01663 0.7607 0.0
C2258 C 0.74691 0.03249 0.7691 0.0
C2259 C 0.73407 0.04074 0.75869 0.0
C2260 C 0.72846 0.05574 0.76657 0.0
C2261 C 0.73552 0.06255 0.78494 0.0
C2262 C 0.74818 0.05437 0.79551 0.0
C2263 C 0.75385 0.03938 0.78769 0.0
H2264 H 0.73117 0.07416 0.79101 0.0
H2265 H 0.7806 0.9268 0.71485 0.0
H2266 H 0.93343 0.74515 0.71333 0.0
H2267 H 0.95636 0.74383 0.73845 0.0
H2268 H 0.98165 0.78098 0.70214 0.0
H2269 H 0.95886 0.78216 0.67672 0.0
H2270 H 0.0024 0.75777 0.71488 0.0
H2271 H 0.96101 0.79088 0.74743 0.0
H2272 H 0.93323 0.79735 0.76024 0.0
H2273 H 0.93539 0.75716 0.80453 0.0
H2274 H 0.96312 0.75029 0.79174 0.0
H2275 H 0.04116 0.78621 0.822 0.0
H2276 H 0.01789 0.78593 0.79729 0.0
H2277 H 0.03113 0.73736 0.77658 0.0
H2278 H 0.05457 0.73768 0.80095 0.0
H2279 H 0.99121 0.76745 0.79223 0.0
H2280 H 0.02479 0.73436 0.72276 0.0
H2281 H 0.0529 0.73075 0.70915 0.0
H2282 H 0.06704 0.77642 0.73765 0.0
H2283 H 0.03898 0.78041 0.75115 0.0
C2284 C 0.94395 0.75292 0.71058 0.0
C2285 C 0.94433 0.76383 0.69314 0.0
C2286 C 0.957 0.7522 0.72499 0.0
C2287 C 0.97058 0.7625 0.72235 0.0
C2288 C 0.97126 0.77296 0.7045 0.0
C2289 C 0.95823 0.77364 0.69002 0.0
C2290 C 0.98385 0.76272 0.73856 0.0
C2291 C -5e-05 0.75983 0.73179 0.0
C2292 C 0.98068 0.76576 0.76057 0.0
C2293 C 0.96408 0.76997 0.76848 0.0
C2294 C 0.95552 0.78335 0.7598 0.0
C2295 C 0.93979 0.7871 0.76707 0.0
C2296 C 0.93253 0.77765 0.78315 0.0
C2297 C 0.94102 0.76446 0.79205 0.0
C2298 C 0.95675 0.76063 0.78481 0.0
C2299 C 0.03901 0.77541 0.81233 0.0
C2300 C 0.04975 0.76202 0.81326 0.0
C2301 C 0.0257 0.77526 0.79826 0.0
C2302 C 0.02293 0.76173 0.78487 0.0
C2303 C 0.03321 0.74804 0.7865 0.0
C2304 C 0.04655 0.74821 0.80049 0.0
C2305 C 0.00972 0.76222 0.76858 0.0
C2306 C 0.99364 0.76528 0.77533 0.0
C2307 C 0.01296 0.75974 0.74647 0.0
C2308 C 0.02982 0.75758 0.73815 0.0
C2309 C 0.03388 0.74365 0.72605 0.0
C2310 C 0.04981 0.74154 0.71836 0.0
C2311 C 0.06176 0.75332 0.7226 0.0
C2312 C 0.05779 0.76727 0.73445 0.0
C2313 C 0.04188 0.76946 0.74214 0.0
H2314 H 0.07409 0.75165 0.71666 0.0
H2315 H 0.92034 0.78057 0.78875 0.0
H2316 H 0.25868 0.95068 0.6893 0.0
H2317 H 0.25987 0.97448 0.71306 0.0
H2318 H 0.20812 0.96998 0.72536 0.0
H2319 H 0.20678 0.94656 0.70104 0.0
H2320 H 0.21565 0.00078 0.72112 0.0
H2321 H 0.23793 0.95578 0.7613 0.0
H2322 H 0.25653 0.93262 0.76812 0.0
H2323 H 0.29788 0.96486 0.76448 0.0
H2324 H 0.27952 0.98819 0.75736 0.0
H2325 H 0.21069 0.04737 0.81643 0.0
H2326 H 0.21099 0.02403 0.79187 0.0
H2327 H 0.26125 0.03429 0.7758 0.0
H2328 H 0.26108 0.05766 0.80043 0.0
H2329 H 0.25522 0.00115 0.78156 0.0
H2330 H 0.23219 0.04635 0.74251 0.0
H2331 H 0.21308 0.06926 0.73677 0.0
H2332 H 0.17243 0.03608 0.73942 0.0
H2333 H 0.1913 0.013 0.7455 0.0
C2334 C 0.24754 0.95486 0.69695 0.0
C2335 C 0.23265 0.94674 0.69341 0.0
C2336 C 0.24825 0.96839 0.71063 0.0
C2337 C 0.23414 0.97383 0.72135 0.0
C2338 C 0.21917 0.96599 0.71733 0.0
C2339 C 0.21842 0.9526 0.70345 0.0
C2340 C 0.23496 0.98753 0.73698 0.0
C2341 C 0.22418 0.00075 0.73447 0.0
C2342 C 0.24631 0.98768 0.75419 0.0
C2343 C 0.25736 0.97369 0.75859 0.0
C2344 C 0.25099 0.95791 0.76181 0.0
C2345 C 0.26149 0.94476 0.76575 0.0
C2346 C 0.27838 0.94726 0.76668 0.0
C2347 C 0.2848 0.96294 0.76373 0.0
C2348 C 0.27435 0.97613 0.75976 0.0
C2349 C 0.22186 0.04456 0.80783 0.0
C2350 C 0.23584 0.05438 0.81025 0.0
C2351 C 0.22198 0.03127 0.79375 0.0
C2352 C 0.23607 0.02759 0.78181 0.0
C2353 C 0.25025 0.03698 0.78482 0.0
C2354 C 0.25012 0.05032 0.79886 0.0
C2355 C 0.23584 0.01424 0.76573 0.0
C2356 C 0.24673 0.00114 0.76816 0.0
C2357 C 0.22451 0.01413 0.74855 0.0
C2358 C 0.21315 0.02797 0.74465 0.0
C2359 C 0.21917 0.04396 0.74202 0.0
C2360 C 0.20838 0.05697 0.73868 0.0
C2361 C 0.19155 0.05413 0.73778 0.0
C2362 C 0.18547 0.03826 0.74015 0.0
C2363 C 0.19621 0.02521 0.74352 0.0
H2364 H 0.18321 0.06422 0.7352 0.0
H2365 H 0.28649 0.93706 0.76973 0.0
H2366 H 0.9623 0.22938 0.82704 0.0
H2367 H 0.98604 0.23161 0.80319 0.0
H2368 H 0.95569 0.25346 0.75435 0.0
H2369 H 0.93194 0.25142 0.77816 0.0
H2370 H 0.97531 0.2274 0.73955 0.0
H2371 H 0.9809 0.27718 0.77996 0.0
H2372 H 0.98273 0.29375 0.81297 0.0
H2373 H 0.02571 0.26736 0.83213 0.0
H2374 H 0.024 0.25047 0.79937 0.0
H2375 H 0.04065 0.24587 0.6687 0.0
H2376 H 0.01642 0.24834 0.69159 0.0
H2377 H 0.0454 0.2353 0.74697 0.0
H2378 H 0.06969 0.23347 0.72434 0.0
H2379 H 0.02558 0.25842 0.7577 0.0
H2380 H 0.01965 0.20744 0.72021 0.0
H2381 H 0.01806 0.18933 0.68859 0.0
H2382 H 0.97625 0.21584 0.66558 0.0
H2383 H 0.97773 0.23424 0.69694 0.0
C2384 C 0.96072 0.23476 0.81128 0.0
C2385 C 0.9453 0.24024 0.80445 0.0
C2386 C 0.97428 0.23607 0.79772 0.0
C2387 C 0.97259 0.24276 0.77707 0.0
C2388 C 0.95721 0.24828 0.77024 0.0
C2389 C 0.9437 0.24715 0.78388 0.0
C2390 C 0.98679 0.2435 0.76236 0.0
C2391 C 0.98622 0.23439 0.7433 0.0
C2392 C 0.00113 0.25227 0.76763 0.0
C2393 C 0.00223 0.26246 0.7873 0.0
C2394 C 0.99066 0.27482 0.79129 0.0
C2395 C 0.9917 0.28429 0.80994 0.0
C2396 C 0.00431 0.28158 0.82466 0.0
C2397 C 0.01594 0.26943 0.82073 0.0
C2398 C 0.01495 0.25992 0.80211 0.0
C2399 C 0.04183 0.24362 0.68578 0.0
C2400 C 0.05702 0.23942 0.69474 0.0
C2401 C 0.02798 0.24495 0.69883 0.0
C2402 C 0.02901 0.24174 0.72098 0.0
C2403 C 0.04427 0.23784 0.72996 0.0
C2404 C 0.05814 0.23675 0.71698 0.0
C2405 C 0.01423 0.24217 0.73485 0.0
C2406 C 0.01466 0.2515 0.7538 0.0
C2407 C -0.00017 0.23338 0.72965 0.0
C2408 C 0.99891 0.22232 0.71079 0.0
C2409 C 0.01019 0.20948 0.70832 0.0
C2410 C 0.0093 0.19915 0.69046 0.0
C2411 C 0.99709 0.20146 0.67505 0.0
C2412 C 0.98572 0.21408 0.67751 0.0
C2413 C 0.98657 0.22446 0.69533 0.0
H2414 H 0.99642 0.19345 0.66124 0.0
H2415 H 0.00509 0.28893 0.83909 0.0
H2416 H 0.76218 0.55442 0.69429 0.0
H2417 H 0.76292 0.53131 0.71933 0.0
H2418 H 0.71021 0.53085 0.72148 0.0
H2419 H 0.70936 0.55385 0.69634 0.0
H2420 H 0.72506 0.53018 0.7622 0.0
H2421 H 0.72862 0.50221 0.69429 0.0
H2422 H 0.74017 0.49643 0.65849 0.0
H2423 H 0.78644 0.48463 0.68715 0.0
H2424 H 0.77523 0.49058 0.72312 0.0
H2425 H 0.71104 0.45423 0.8139 0.0
H2426 H 0.71164 0.47786 0.78989 0.0
H2427 H 0.76382 0.47232 0.78251 0.0
H2428 H 0.76321 0.4484 0.8061 0.0
H2429 H 0.7501 0.47655 0.74478 0.0
H2430 H 0.74708 0.50374 0.81252 0.0
H2431 H 0.73626 0.50989 0.8486 0.0
H2432 H 0.69017 0.52375 0.82107 0.0
H2433 H 0.70064 0.51747 0.78482 0.0
C2434 C 0.75076 0.5493 0.69997 0.0
C2435 C 0.73571 0.5559 0.69335 0.0
C2436 C 0.7512 0.53611 0.71424 0.0
C2437 C 0.73661 0.5294 0.7222 0.0
C2438 C 0.72159 0.5359 0.71552 0.0
C2439 C 0.72113 0.54897 0.70109 0.0
C2440 C 0.73701 0.51579 0.73787 0.0
C2441 C 0.73035 0.51837 0.75836 0.0
C2442 C 0.74437 0.50061 0.73298 0.0
C2443 C 0.75113 0.49701 0.71137 0.0
C2444 C 0.7413 0.49853 0.69294 0.0
C2445 C 0.74778 0.4952 0.67263 0.0
C2446 C 0.76404 0.49022 0.67054 0.0
C2447 C 0.77385 0.48852 0.68879 0.0
C2448 C 0.76744 0.49186 0.70914 0.0
C2449 C 0.72266 0.45816 0.80735 0.0
C2450 C 0.73708 0.44949 0.81188 0.0
C2451 C 0.723 0.4717 0.79368 0.0
C2452 C 0.7378 0.47696 0.78453 0.0
C2453 C 0.75226 0.46848 0.78936 0.0
C2454 C 0.75191 0.45486 0.80291 0.0
C2455 C 0.73807 0.49086 0.7692 0.0
C2456 C 0.74486 0.48836 0.74874 0.0
C2457 C 0.73095 0.50617 0.77419 0.0
C2458 C 0.7246 0.50999 0.79596 0.0
C2459 C 0.73459 0.50797 0.81417 0.0
C2460 C 0.72853 0.51151 0.83465 0.0
C2461 C 0.71252 0.51717 0.83713 0.0
C2462 C 0.70256 0.51935 0.81912 0.0
C2463 C 0.70856 0.51582 0.7986 0.0
H2464 H 0.70785 0.5199 0.853 0.0
H2465 H 0.76903 0.48763 0.6548 0.0
H2466 H 0.54128 0.71428 0.81901 0.0
H2467 H 0.51841 0.71466 0.79367 0.0
H2468 H 0.53555 0.76057 0.768 0.0
H2469 H 0.55851 0.76021 0.79321 0.0
H2470 H 0.49337 0.73587 0.7868 0.0
H2471 H 0.52964 0.75974 0.7134 0.0
H2472 H 0.55791 0.75954 0.69953 0.0
H2473 H 0.56768 0.71514 0.73403 0.0
H2474 H 0.53942 0.71495 0.74784 0.0
H2475 H 0.43853 0.75942 0.70499 0.0
H2476 H 0.46193 0.75985 0.72941 0.0
H2477 H 0.48064 0.7159 0.70004 0.0
H2478 H 0.45726 0.71541 0.67545 0.0
H2479 H 0.50498 0.73819 0.70856 0.0
H2480 H 0.46021 0.71284 0.74551 0.0
H2481 H 0.43197 0.71084 0.75914 0.0
H2482 H 0.43935 0.75387 0.79745 0.0
H2483 H 0.46757 0.75627 0.78378 0.0
C2484 C 0.5401 0.72451 0.80809 0.0
C2485 C 0.55171 0.73718 0.808 0.0
C2486 C 0.52702 0.72473 0.79366 0.0
C2487 C 0.52541 0.73754 0.77881 0.0
C2488 C 0.53671 0.75046 0.77915 0.0
C2489 C 0.54976 0.75027 0.79361 0.0
C2490 C 0.51216 0.73716 0.76261 0.0
C2491 C 0.4959 0.73643 0.7697 0.0
C2492 C 0.5155 0.73758 0.74029 0.0
C2493 C 0.53246 0.73744 0.73183 0.0
C2494 C 0.5378 0.74991 0.71796 0.0
C2495 C 0.55383 0.74987 0.71011 0.0
C2496 C 0.5646 0.73737 0.71596 0.0
C2497 C 0.55935 0.72485 0.72958 0.0
C2498 C 0.54333 0.72482 0.73744 0.0
C2499 C 0.44772 0.74994 0.70356 0.0
C2500 C 0.44603 0.73732 0.68841 0.0
C2501 C 0.46104 0.75018 0.71757 0.0
C2502 C 0.47288 0.73779 0.71669 0.0
C2503 C 0.4716 0.72555 0.70098 0.0
C2504 C 0.45823 0.72527 0.68699 0.0
C2505 C 0.4862 0.73722 0.73278 0.0
C2506 C 0.50246 0.73774 0.72566 0.0
C2507 C 0.48287 0.73631 0.75506 0.0
C2508 C 0.46595 0.73482 0.76346 0.0
C2509 C 0.45577 0.72194 0.75671 0.0
C2510 C 0.43977 0.72073 0.76446 0.0
C2511 C 0.43385 0.73224 0.77911 0.0
C2512 C 0.44394 0.74497 0.78608 0.0
C2513 C 0.45995 0.74626 0.77835 0.0
H2514 H 0.42146 0.73128 0.78509 0.0
H2515 H 0.577 0.73737 0.70989 0.0
H2516 H 0.28936 0.45128 0.68637 0.0
H2517 H 0.28907 0.47453 0.71111 0.0
H2518 H 0.23664 0.47065 0.71659 0.0
H2519 H 0.23684 0.44729 0.69193 0.0
H2520 H 0.24832 0.50328 0.71263 0.0
H2521 H 0.25843 0.45469 0.75447 0.0
H2522 H 0.27295 0.42914 0.7633 0.0
H2523 H 0.31765 0.45593 0.77176 0.0
H2524 H 0.30344 0.48162 0.76264 0.0
H2525 H 0.23766 0.5521 0.80495 0.0
H2526 H 0.23716 0.52899 0.78005 0.0
H2527 H 0.28986 0.52664 0.78186 0.0
H2528 H 0.29039 0.54942 0.80732 0.0
H2529 H 0.27785 0.49699 0.78181 0.0
H2530 H 0.26888 0.54526 0.73984 0.0
H2531 H 0.25543 0.57112 0.72975 0.0
H2532 H 0.21008 0.54569 0.72016 0.0
H2533 H 0.22321 0.51969 0.73049 0.0
C2534 C 0.27775 0.45551 0.69262 0.0
C2535 C 0.26313 0.44744 0.68731 0.0
C2536 C 0.27761 0.46874 0.7068 0.0
C2537 C 0.26285 0.47416 0.71583 0.0
C2538 C 0.24815 0.46661 0.70981 0.0
C2539 C 0.24829 0.45327 0.69577 0.0
C2540 C 0.26285 0.48723 0.73227 0.0
C2541 C 0.25459 0.50187 0.72788 0.0
C2542 C 0.27138 0.48546 0.7519 0.0
C2543 C 0.2799 0.47006 0.75766 0.0
C2544 C 0.27138 0.45512 0.75805 0.0
C2545 C 0.27955 0.44061 0.76313 0.0
C2546 C 0.29622 0.4409 0.76803 0.0
C2547 C 0.30474 0.45571 0.76793 0.0
C2548 C 0.29663 0.47026 0.76282 0.0
C2549 C 0.24912 0.54654 0.8002 0.0
C2550 C 0.26407 0.5526 0.80798 0.0
C2551 C 0.24883 0.53341 0.78586 0.0
C2552 C 0.26349 0.52629 0.77871 0.0
C2553 C 0.2784 0.53197 0.78706 0.0
C2554 C 0.27869 0.54499 0.8016 0.0
C2555 C 0.26332 0.51316 0.76224 0.0
C2556 C 0.27156 0.49847 0.76659 0.0
C2557 C 0.25491 0.51496 0.74246 0.0
C2558 C 0.24699 0.53056 0.73615 0.0
C2559 C 0.25601 0.5452 0.73573 0.0
C2560 C 0.24845 0.55988 0.72995 0.0
C2561 C 0.2319 0.56006 0.72437 0.0
C2562 C 0.22289 0.54554 0.72451 0.0
C2563 C 0.23039 0.53083 0.73032 0.0
H2564 H 0.22607 0.57144 0.71989 0.0
H2565 H 0.30253 0.42966 0.77195 0.0
H2566 H 0.45371 0.29174 0.81033 0.0
H2567 H 0.4768 0.29203 0.78529 0.0
H2568 H 0.46787 0.2414 0.76986 0.0
H2569 H 0.4448 0.241 0.7949 0.0
H2570 H 0.50055 0.24806 0.77583 0.0
H2571 H 0.45519 0.27025 0.73627 0.0
H2572 H 0.43214 0.28911 0.73007 0.0
H2573 H 0.46498 0.33004 0.73185 0.0
H2574 H 0.48822 0.31144 0.73838 0.0
H2575 H 0.54974 0.24185 0.68356 0.0
H2576 H 0.52574 0.24199 0.70698 0.0
H2577 H 0.53211 0.29371 0.71788 0.0
H2578 H 0.55584 0.29373 0.69393 0.0
H2579 H 0.50058 0.2867 0.71435 0.0
H2580 H 0.54584 0.26498 0.75435 0.0
H2581 H 0.56904 0.24645 0.7613 0.0
H2582 H 0.53667 0.20513 0.75966 0.0
H2583 H 0.5133 0.2234 0.7524 0.0
C2584 C 0.45676 0.28064 0.80173 0.0
C2585 C 0.44744 0.26635 0.8045 0.0
C2586 C 0.46988 0.28085 0.78736 0.0
C2587 C 0.4739 0.26679 0.77555 0.0
C2588 C 0.46493 0.25238 0.77879 0.0
C2589 C 0.45175 0.25218 0.79307 0.0
C2590 C 0.48732 0.26714 0.75958 0.0
C2591 C 0.50048 0.25636 0.76223 0.0
C2592 C 0.48735 0.27825 0.74214 0.0
C2593 C 0.47342 0.28946 0.73802 0.0
C2594 C 0.45748 0.28329 0.7355 0.0
C2595 C 0.44439 0.29392 0.7319 0.0
C2596 C 0.44709 0.31076 0.73062 0.0
C2597 C 0.46291 0.31699 0.73288 0.0
C2598 C 0.47605 0.30641 0.73651 0.0
C2599 C 0.5459 0.25328 0.69076 0.0
C2600 C 0.55471 0.26775 0.68706 0.0
C2601 C 0.53225 0.25333 0.70423 0.0
C2602 C 0.52733 0.26779 0.71456 0.0
C2603 C 0.53571 0.2824 0.71017 0.0
C2604 C 0.54928 0.28239 0.6965 0.0
C2605 C 0.51386 0.26757 0.73054 0.0
C2606 C 0.50068 0.27839 0.72793 0.0
C2607 C 0.51384 0.25655 0.74811 0.0
C2608 C 0.52785 0.24555 0.75263 0.0
C2609 C 0.54369 0.25193 0.75533 0.0
C2610 C 0.55686 0.24148 0.75934 0.0
C2611 C 0.55433 0.22462 0.76087 0.0
C2612 C 0.53861 0.21819 0.75844 0.0
C2613 C 0.5254 0.22859 0.7544 0.0
H2614 H 0.56455 0.21655 0.76397 0.0
H2615 H 0.43693 0.31897 0.7278 0.0
H2616 H 0.23916 0.54956 0.19161 0.0
H2617 H 0.23929 0.52549 0.21493 0.0
H2618 H 0.29206 0.52556 0.21461 0.0
H2619 H 0.29199 0.54935 0.19083 0.0
H2620 H 0.28113 0.49557 0.21078 0.0
H2621 H 0.26966 0.54061 0.25764 0.0
H2622 H 0.25488 0.56509 0.27019 0.0
H2623 H 0.21074 0.53703 0.27615 0.0
H2624 H 0.2252 0.51241 0.26334 0.0
H2625 H 0.2936 0.44502 0.30261 0.0
H2626 H 0.29292 0.46834 0.27796 0.0
H2627 H 0.24043 0.46435 0.27376 0.0
H2628 H 0.24102 0.44097 0.29833 0.0
H2629 H 0.25087 0.49613 0.27984 0.0
H2630 H 0.26331 0.4508 0.23349 0.0
H2631 H 0.27827 0.42706 0.21898 0.0
H2632 H 0.32152 0.45636 0.21217 0.0
H2633 H 0.30691 0.48021 0.22696 0.0
C2634 C 0.25078 0.54437 0.1964 0.0
C2635 C 0.26556 0.55135 0.18945 0.0
C2636 C 0.25084 0.53069 0.20984 0.0
C2637 C 0.26569 0.5239 0.21685 0.0
C2638 C 0.28046 0.53062 0.20948 0.0
C2639 C 0.2804 0.54422 0.19589 0.0
C2640 C 0.26587 0.50979 0.23186 0.0
C2641 C 0.27472 0.49578 0.22603 0.0
C2642 C 0.25719 0.50994 0.25155 0.0
C2643 C 0.24847 0.52471 0.25933 0.0
C2644 C 0.25677 0.53969 0.26147 0.0
C2645 C 0.24846 0.55358 0.26866 0.0
C2646 C 0.23187 0.55263 0.27391 0.0
C2647 C 0.22358 0.53776 0.27205 0.0
C2648 C 0.23183 0.52383 0.26484 0.0
C2649 C 0.28191 0.44916 0.29651 0.0
C2650 C 0.26735 0.44118 0.30239 0.0
C2651 C 0.28155 0.46241 0.28233 0.0
C2652 C 0.26664 0.46796 0.27388 0.0
C2653 C 0.25206 0.46022 0.28007 0.0
C2654 C 0.25242 0.44687 0.29409 0.0
C2655 C 0.26622 0.48196 0.25878 0.0
C2656 C 0.25732 0.49594 0.26461 0.0
C2657 C 0.27499 0.48185 0.23919 0.0
C2658 C 0.28404 0.46726 0.23152 0.0
C2659 C 0.27608 0.45212 0.22922 0.0
C2660 C 0.28449 0.43866 0.22086 0.0
C2661 C 0.30082 0.44023 0.21461 0.0
C2662 C 0.30886 0.45518 0.21699 0.0
C2663 C 0.30053 0.46866 0.22537 0.0
H2664 H 0.30724 0.42991 0.20775 0.0
H2665 H 0.22546 0.5634 0.27948 0.0
H2666 H 0.53641 0.26764 0.32843 0.0
H2667 H 0.51242 0.26558 0.30489 0.0
H2668 H 0.54028 0.23665 0.26003 0.0
H2669 H 0.56417 0.23828 0.2837 0.0
H2670 H 0.52306 0.26644 0.24339 0.0
H2671 H 0.51461 0.21691 0.28433 0.0
H2672 H 0.51149 0.20105 0.31776 0.0
H2673 H 0.46974 0.23 0.33516 0.0
H2674 H 0.47277 0.2462 0.30195 0.0
H2675 H 0.46056 0.24857 0.16936 0.0
H2676 H 0.48356 0.24595 0.19423 0.0
H2677 H 0.45214 0.25971 0.24696 0.0
H2678 H 0.42897 0.2616 0.22227 0.0
H2679 H 0.47151 0.23706 0.26005 0.0
H2680 H 0.47927 0.28723 0.22215 0.0
H2681 H 0.48196 0.30529 0.19063 0.0
H2682 H 0.52423 0.27847 0.16984 0.0
H2683 H 0.52166 0.26009 0.2011 0.0
C2684 C 0.53734 0.26068 0.31368 0.0
C2685 C 0.55211 0.25311 0.30786 0.0
C2686 C 0.52366 0.2595 0.3003 0.0
C2687 C 0.52466 0.25097 0.2808 0.0
C2688 C 0.53933 0.24326 0.27507 0.0
C2689 C 0.5529 0.24416 0.28862 0.0
C2690 C 0.51063 0.25079 0.26586 0.0
C2691 C 0.51186 0.25983 0.24681 0.0
C2692 C 0.49589 0.24264 0.27084 0.0
C2693 C 0.49403 0.23288 0.29077 0.0
C2694 C 0.50487 0.22 0.29538 0.0
C2695 C 0.50309 0.21093 0.31427 0.0
C2696 C 0.49045 0.21455 0.32861 0.0
C2697 C 0.47954 0.22722 0.32405 0.0
C2698 C 0.48127 0.23635 0.30519 0.0
C2699 C 0.45856 0.25092 0.18629 0.0
C2700 C 0.44303 0.25537 0.19389 0.0
C2701 C 0.47172 0.24951 0.20047 0.0
C2702 C 0.46968 0.25296 0.22244 0.0
C2703 C 0.45405 0.25701 0.23011 0.0
C2704 C 0.44082 0.25813 0.21598 0.0
C2705 C 0.48388 0.25268 0.23733 0.0
C2706 C 0.4827 0.24364 0.25647 0.0
C2707 C 0.49858 0.26115 0.23266 0.0
C2708 C 0.50017 0.27218 0.21384 0.0
C2709 C 0.48907 0.2851 0.21077 0.0
C2710 C 0.49058 0.29541 0.19296 0.0
C2711 C 0.50322 0.293 0.17821 0.0
C2712 C 0.51442 0.2803 0.18126 0.0
C2713 C 0.51295 0.26994 0.19903 0.0
H2714 H 0.50438 0.301 0.16444 0.0
H2715 H 0.48909 0.2075 0.34322 0.0
H2716 H 0.7592 0.55865 0.29335 0.0
H2717 H 0.75967 0.53496 0.26944 0.0
H2718 H 0.71472 0.51752 0.2976 0.0
H2719 H 0.71398 0.54141 0.32125 0.0
H2720 H 0.76119 0.50306 0.27481 0.0
H2721 H 0.69136 0.50004 0.25894 0.0
H2722 H 0.66761 0.51863 0.25809 0.0
H2723 H 0.69922 0.55909 0.24371 0.0
H2724 H 0.72312 0.54071 0.24416 0.0
H2725 H 0.74107 0.42809 0.22475 0.0
H2726 H 0.74269 0.45199 0.24817 0.0
H2727 H 0.72944 0.48316 0.19498 0.0
H2728 H 0.72724 0.45917 0.17165 0.0
H2729 H 0.71305 0.49191 0.22855 0.0
H2730 H 0.76941 0.48093 0.21474 0.0
H2731 H 0.7945 0.46429 0.21254 0.0
H2732 H 0.79233 0.45533 0.28046 0.0
H2733 H 0.76709 0.47175 0.28301 0.0
C2734 C 0.74947 0.54971 0.29455 0.0
C2735 C 0.73649 0.55192 0.30905 0.0
C2736 C 0.74978 0.53616 0.28091 0.0
C2737 C 0.73712 0.52459 0.28153 0.0
C2738 C 0.72446 0.52646 0.29659 0.0
C2739 C 0.72409 0.54006 0.31015 0.0
C2740 C 0.73695 0.51085 0.26599 0.0
C2741 C 0.75066 0.50059 0.26471 0.0
C2742 C 0.72337 0.5079 0.25242 0.0
C2743 C 0.70904 0.51902 0.25181 0.0
C2744 C 0.69323 0.51289 0.25551 0.0
C2745 C 0.67974 0.52339 0.25511 0.0
C2746 C 0.68191 0.54004 0.25092 0.0
C2747 C 0.69757 0.54621 0.24703 0.0
C2748 C 0.71109 0.53576 0.24738 0.0
C2749 C 0.73859 0.44005 0.21802 0.0
C2750 C 0.73406 0.4418 0.19637 0.0
C2751 C 0.73959 0.45371 0.2314 0.0
C2752 C 0.73639 0.46941 0.22329 0.0
C2753 C 0.73196 0.47117 0.20161 0.0
C2754 C 0.73076 0.45748 0.18828 0.0
C2755 C 0.73721 0.48393 0.23756 0.0
C2756 C 0.7236 0.49434 0.23863 0.0
C2757 C 0.75107 0.48729 0.25048 0.0
C2758 C 0.76628 0.47746 0.24903 0.0
C2759 C 0.77422 0.47532 0.22918 0.0
C2760 C 0.78847 0.46594 0.22787 0.0
C2761 C 0.79498 0.45873 0.24634 0.0
C2762 C 0.78726 0.46091 0.26616 0.0
C2763 C 0.77299 0.47027 0.26755 0.0
H2764 H 0.80602 0.45147 0.2453 0.0
H2765 H 0.67146 0.54815 0.25065 0.0
H2766 H 0.45008 0.71163 0.31182 0.0
H2767 H 0.47341 0.71174 0.28728 0.0
H2768 H 0.46654 0.76338 0.27621 0.0
H2769 H 0.44294 0.76324 0.30036 0.0
H2770 H 0.47097 0.74814 0.23942 0.0
H2771 H 0.49841 0.74885 0.3071 0.0
H2772 H 0.50496 0.73982 0.34389 0.0
H2773 H 0.52002 0.69298 0.31981 0.0
H2774 H 0.51334 0.70165 0.28288 0.0
H2775 H 0.54883 0.76081 0.18892 0.0
H2776 H 0.52528 0.76164 0.21323 0.0
H2777 H 0.52661 0.70908 0.21872 0.0
H2778 H 0.55005 0.70814 0.19432 0.0
H2779 H 0.52534 0.72545 0.25841 0.0
H2780 H 0.4974 0.72547 0.19036 0.0
H2781 H 0.49131 0.73541 0.15383 0.0
H2782 H 0.47787 0.7823 0.17934 0.0
H2783 H 0.48411 0.7727 0.21602 0.0
C2784 C 0.45364 0.72303 0.30431 0.0
C2785 C 0.44472 0.73743 0.30802 0.0
C2786 C 0.46701 0.7231 0.29034 0.0
C2787 C 0.47183 0.7376 0.28005 0.0
C2788 C 0.46304 0.75204 0.28397 0.0
C2789 C 0.44961 0.75196 0.29783 0.0
C2790 C 0.48565 0.73757 0.26461 0.0
C2791 C 0.48293 0.74341 0.2437 0.0
C2792 C 0.50118 0.73112 0.27004 0.0
C2793 C 0.50522 0.72585 0.29224 0.0
C2794 C 0.50299 0.73657 0.30966 0.0
C2795 C 0.50675 0.73153 0.33054 0.0
C2796 C 0.51286 0.71582 0.3342 0.0
C2797 C 0.51526 0.70514 0.31696 0.0
C2798 C 0.5115 0.71012 0.29605 0.0
C2799 C 0.54398 0.74943 0.19513 0.0
C2800 C 0.55125 0.73441 0.18973 0.0
C2801 C 0.53054 0.74992 0.20897 0.0
C2802 C 0.52423 0.73541 0.21773 0.0
C2803 C 0.53133 0.7204 0.21213 0.0
C2804 C 0.54466 0.71988 0.19812 0.0
C2805 C 0.51058 0.73594 0.23331 0.0
C2806 C 0.51337 0.73021 0.25423 0.0
C2807 C 0.49518 0.74263 0.22795 0.0
C2808 C 0.49139 0.74842 0.20591 0.0
C2809 C 0.49329 0.73795 0.18816 0.0
C2810 C 0.48978 0.74351 0.16744 0.0
C2811 C 0.48425 0.75949 0.16426 0.0
C2812 C 0.48218 0.76993 0.18182 0.0
C2813 C 0.48569 0.76443 0.20259 0.0
H2814 H 0.48153 0.76377 0.1482 0.0
H2815 H 0.51577 0.71194 0.35037 0.0
H2816 H 0.21458 0.13106 0.21802 0.0
H2817 H 0.19514 0.14296 0.24324 0.0
H2818 H 0.15525 0.12029 0.20906 0.0
H2819 H 0.17478 0.10827 0.18353 0.0
H2820 H 0.14936 0.15277 0.2189 0.0
H2821 H 0.1662 0.10477 0.25608 0.0
H2822 H 0.18579 0.08472 0.27063 0.0
H2823 H 0.20675 0.12176 0.31103 0.0
H2824 H 0.18744 0.14211 0.29648 0.0
H2825 H 0.09589 0.18221 0.29973 0.0
H2826 H 0.10999 0.16219 0.27711 0.0
H2827 H 0.15629 0.17738 0.30368 0.0
H2828 H 0.14226 0.19717 0.32658 0.0
H2829 H 0.15565 0.14479 0.29752 0.0
H2830 H 0.14205 0.19324 0.25647 0.0
H2831 H 0.12324 0.2139 0.24156 0.0
H2832 H 0.09684 0.17628 0.20819 0.0
H2833 H 0.11539 0.15537 0.22316 0.0
C2834 C 0.20168 0.12858 0.21582 0.0
C2835 C 0.19619 0.1187 0.19881 0.0
C2836 C 0.19059 0.13532 0.23034 0.0
C2837 C 0.17378 0.13231 0.22821 0.0
C2838 C 0.1682 0.12267 0.21104 0.0
C2839 C 0.17934 0.11582 0.1965 0.0
C2840 C 0.16218 0.13968 0.24373 0.0
C2841 C 0.15046 0.15074 0.23607 0.0
C2842 C 0.16385 0.13723 0.26614 0.0
C2843 C 0.17542 0.125 0.27508 0.0
C2844 C 0.17505 0.10868 0.26796 0.0
C2845 C 0.1861 0.09725 0.27622 0.0
C2846 C 0.19752 0.10197 0.29172 0.0
C2847 C 0.19789 0.11812 0.29902 0.0
C2848 C 0.18688 0.1296 0.29079 0.0
C2849 C 0.10905 0.18107 0.30102 0.0
C2850 C 0.118 0.19135 0.31478 0.0
C2851 C 0.11709 0.16968 0.28803 0.0
C2852 C 0.13422 0.16849 0.28844 0.0
C2853 C 0.14307 0.17811 0.30306 0.0
C2854 C 0.13504 0.18945 0.3161 0.0
C2855 C 0.14309 0.15815 0.2727 0.0
C2856 C 0.15432 0.14656 0.28033 0.0
C2857 C 0.14104 0.16017 0.25026 0.0
C2858 C 0.12997 0.17274 0.24113 0.0
C2859 C 0.13216 0.18937 0.24608 0.0
C2860 C 0.12156 0.20112 0.2376 0.0
C2861 C 0.10882 0.1964 0.22399 0.0
C2862 C 0.10669 0.17992 0.21878 0.0
C2863 C 0.11724 0.16811 0.22724 0.0
H2864 H 0.10062 0.20552 0.21745 0.0
H2865 H 0.20607 0.09311 0.29809 0.0
H2866 H 0.85845 0.19384 0.16644 0.0
H2867 H 0.84226 0.17588 0.1896 0.0
H2868 H 0.88142 0.17503 0.236 0.0
H2869 H 0.89772 0.19296 0.2129 0.0
H2870 H 0.86608 0.14453 0.23089 0.0
H2871 H 0.85137 0.20097 0.24324 0.0
H2872 H 0.84242 0.22848 0.23209 0.0
H2873 H 0.79776 0.20841 0.20717 0.0
H2874 H 0.80657 0.18072 0.21788 0.0
H2875 H 0.82125 0.12112 0.32383 0.0
H2876 H 0.8387 0.13555 0.29807 0.0
H2877 H 0.79778 0.1404 0.25477 0.0
H2878 H 0.78025 0.12625 0.28055 0.0
H2879 H 0.81407 0.16835 0.25753 0.0
H2880 H 0.82774 0.11228 0.24547 0.0
H2881 H 0.83634 0.08439 0.25541 0.0
H2882 H 0.8822 0.103 0.27846 0.0
H2883 H 0.87378 0.13105 0.2689 0.0
C2884 C 0.86372 0.18961 0.18141 0.0
C2885 C 0.87929 0.1949 0.18796 0.0
C2886 C 0.85445 0.17939 0.19464 0.0
C2887 C 0.86058 0.17433 0.21462 0.0
C2888 C 0.87647 0.17884 0.22065 0.0
C2889 C 0.88574 0.18911 0.20747 0.0
C2890 C 0.84999 0.16535 0.2299 0.0
C2891 C 0.85479 0.14977 0.23691 0.0
C2892 C 0.8351 0.17209 0.23736 0.0
C2893 C 0.8297 0.18876 0.23117 0.0
C2894 C 0.83969 0.20241 0.23524 0.0
C2895 C 0.83464 0.21803 0.22902 0.0
C2896 C 0.81955 0.22019 0.21888 0.0
C2897 C 0.80946 0.20672 0.215 0.0
C2898 C 0.81447 0.19106 0.22115 0.0
C2899 C 0.81599 0.12531 0.30884 0.0
C2900 C 0.7994 0.12257 0.30419 0.0
C2901 C 0.82598 0.13345 0.29408 0.0
C2902 C 0.81959 0.13887 0.27438 0.0
C2903 C 0.80298 0.1363 0.26986 0.0
C2904 C 0.79299 0.1282 0.28459 0.0
C2905 C 0.83011 0.14746 0.25858 0.0
C2906 C 0.82532 0.16303 0.25149 0.0
C2907 C 0.84493 0.14064 0.25096 0.0
C2908 C 0.85006 0.12379 0.25667 0.0
C2909 C 0.83961 0.11044 0.25282 0.0
C2910 C 0.84446 0.0946 0.25835 0.0
C2911 C 0.85979 0.09193 0.26761 0.0
C2912 C 0.87032 0.1051 0.2713 0.0
C2913 C 0.86552 0.12096 0.26581 0.0
H2914 H 0.86352 0.07966 0.27189 0.0
H2915 H 0.81566 0.2323 0.21407 0.0
H2916 H 0.89232 0.79691 0.28009 0.0
H2917 H 0.87617 0.81578 0.25834 0.0
H2918 H 0.84984 0.8312 0.31489 0.0
H2919 H 0.86595 0.8122 0.3368 0.0
H2920 H 0.82947 0.82322 0.28197 0.0
H2921 H 0.87695 0.85669 0.29142 0.0
H2922 H 0.9064 0.8631 0.29099 0.0
H2923 H 0.90805 0.85426 0.22303 0.0
H2924 H 0.87864 0.84757 0.22309 0.0
H2925 H 0.78545 0.88533 0.22825 0.0
H2926 H 0.80367 0.87107 0.25307 0.0
H2927 H 0.83392 0.85591 0.19985 0.0
H2928 H 0.81593 0.87057 0.17497 0.0
H2929 H 0.85242 0.86509 0.23279 0.0
H2930 H 0.80601 0.82977 0.22334 0.0
H2931 H 0.77673 0.82257 0.22309 0.0
H2932 H 0.77333 0.83393 0.29029 0.0
H2933 H 0.80256 0.84141 0.29087 0.0
C2934 C 0.88323 0.80445 0.28795 0.0
C2935 C 0.88037 0.80308 0.31014 0.0
C2936 C 0.87405 0.81528 0.27551 0.0
C2937 C 0.86189 0.82498 0.28502 0.0
C2938 C 0.8592 0.82384 0.30725 0.0
C2939 C 0.86843 0.81304 0.31975 0.0
C2940 C 0.85135 0.83552 0.27149 0.0
C2941 C 0.83445 0.8326 0.27151 0.0
C2942 C 0.85792 0.84741 0.25741 0.0
C2943 C 0.87561 0.85149 0.2573 0.0
C2944 C 0.88361 0.85598 0.27641 0.0
C2945 C 0.9003 0.85969 0.27622 0.0
C2946 C 0.9091 0.85905 0.257 0.0
C2947 C 0.90122 0.85474 0.23791 0.0
C2948 C 0.88454 0.85101 0.238 0.0
C2949 C 0.796 0.87898 0.22184 0.0
C2950 C 0.79922 0.87895 0.19967 0.0
C2951 C 0.80638 0.8708 0.23604 0.0
C2952 C 0.82002 0.8622 0.22829 0.0
C2953 C 0.82345 0.86244 0.20618 0.0
C2954 C 0.81314 0.87076 0.19198 0.0
C2955 C 0.83055 0.85273 0.24319 0.0
C2956 C 0.84743 0.85581 0.24338 0.0
C2957 C 0.82399 0.84088 0.25737 0.0
C2958 C 0.80643 0.83631 0.25709 0.0
C2959 C 0.79899 0.83085 0.23802 0.0
C2960 C 0.78241 0.82669 0.23783 0.0
C2961 C 0.77316 0.82783 0.25665 0.0
C2962 C 0.7805 0.83308 0.27572 0.0
C2963 C 0.79707 0.83726 0.27599 0.0
H2964 H 0.76033 0.82461 0.25647 0.0
H2965 H 0.92202 0.86193 0.25689 0.0
H2966 H 0.20615 0.85739 0.30906 0.0
H2967 H 0.188 0.84509 0.28256 0.0
H2968 H 0.15681 0.88756 0.28488 0.0
H2969 H 0.17505 0.90009 0.31163 0.0
H2970 H 0.13972 0.85663 0.28304 0.0
H2971 H 0.18117 0.88593 0.24506 0.0
H2972 H 0.2094 0.89459 0.23706 0.0
H2973 H 0.22244 0.84503 0.22206 0.0
H2974 H 0.19435 0.83602 0.23032 0.0
H2975 H 0.10101 0.8231 0.18932 0.0
H2976 H 0.11432 0.8432 0.21282 0.0
H2977 H 0.15658 0.81182 0.2177 0.0
H2978 H 0.14357 0.79199 0.19405 0.0
H2979 H 0.16576 0.84267 0.21337 0.0
H2980 H 0.12621 0.8129 0.25668 0.0
H2981 H 0.09847 0.80337 0.26593 0.0
H2982 H 0.08218 0.85311 0.27148 0.0
H2983 H 0.1098 0.86292 0.26197 0.0
C2984 C 0.19533 0.86407 0.30418 0.0
C2985 C 0.19208 0.87976 0.31229 0.0
C2986 C 0.18499 0.85703 0.28899 0.0
C2987 C 0.17124 0.86554 0.28154 0.0
C2988 C 0.16743 0.88086 0.29039 0.0
C2989 C 0.17784 0.88797 0.30564 0.0
C2990 C 0.16147 0.85857 0.26374 0.0
C2991 C 0.14525 0.85388 0.26761 0.0
C2992 C 0.1688 0.85489 0.24373 0.0
C2993 C 0.18566 0.86029 0.23843 0.0
C2994 C 0.19008 0.87686 0.24019 0.0
C2995 C 0.20606 0.88183 0.23559 0.0
C2996 C 0.21771 0.87037 0.22908 0.0
C2997 C 0.2134 0.8539 0.22711 0.0
C2998 C 0.19745 0.84886 0.23171 0.0
C2999 C 0.11322 0.82062 0.19522 0.0
C3000 C 0.12123 0.80596 0.18993 0.0
C3001 C 0.12076 0.83206 0.20872 0.0
C3002 C 0.13636 0.82892 0.21723 0.0
C3003 C 0.14455 0.81452 0.21133 0.0
C3004 C 0.13707 0.80317 0.19784 0.0
C3005 C 0.14416 0.84016 0.23289 0.0
C3006 C 0.16006 0.84571 0.2286 0.0
C3007 C 0.13654 0.84453 0.25252 0.0
C3008 C 0.12 0.83863 0.25836 0.0
C3009 C 0.11668 0.82179 0.25972 0.0
C3010 C 0.10099 0.81634 0.26503 0.0
C3011 C 0.08856 0.82763 0.26922 0.0
C3012 C 0.09181 0.84438 0.26818 0.0
C3013 C 0.10748 0.8499 0.26284 0.0
H3014 H 0.07642 0.82339 0.27333 0.0
H3015 H 0.23008 0.87424 0.22554 0.0
H3016 H 0.89963 0.81146 0.71328 0.0
H3017 H 0.88487 0.83065 0.73629 0.0
H3018 H 0.84344 0.82865 0.69345 0.0
H3019 H 0.85837 0.80981 0.66998 0.0
H3020 H 0.84775 0.85914 0.70858 0.0
H3021 H 0.84537 0.80469 0.7391 0.0
H3022 H 0.85751 0.77908 0.75267 0.0
H3023 H 0.88367 0.80597 0.80092 0.0
H3024 H 0.87182 0.83177 0.78748 0.0
H3025 H 0.78192 0.87845 0.77748 0.0
H3026 H 0.80152 0.86566 0.75315 0.0
H3027 H 0.83967 0.87183 0.80033 0.0
H3028 H 0.82001 0.8846 0.82491 0.0
H3029 H 0.83935 0.84121 0.78396 0.0
H3030 H 0.8393 0.89537 0.75612 0.0
H3031 H 0.82749 0.92107 0.74242 0.0
H3032 H 0.80617 0.89522 0.68933 0.0
H3033 H 0.81762 0.8693 0.7029 0.0
C3034 C 0.88745 0.81527 0.70862 0.0
C3035 C 0.88007 0.80903 0.68997 0.0
C3036 C 0.87902 0.8262 0.72182 0.0
C3037 C 0.86293 0.83082 0.71682 0.0
C3038 C 0.85582 0.8252 0.69765 0.0
C3039 C 0.86434 0.81441 0.68429 0.0
C3040 C 0.85315 0.84066 0.73218 0.0
C3041 C 0.84578 0.85517 0.72501 0.0
C3042 C 0.85097 0.8357 0.7538 0.0
C3043 C 0.85783 0.82016 0.76216 0.0
C3044 C 0.85377 0.80514 0.75254 0.0
C3045 C 0.86059 0.7906 0.76021 0.0
C3046 C 0.87139 0.7909 0.77761 0.0
C3047 C 0.87532 0.80575 0.78744 0.0
C3048 C 0.86854 0.82034 0.77981 0.0
C3049 C 0.7945 0.87716 0.78265 0.0
C3050 C 0.79944 0.8825 0.8031 0.0
C3051 C 0.80571 0.86994 0.76868 0.0
C3052 C 0.82209 0.86796 0.77484 0.0
C3053 C 0.82709 0.87331 0.79525 0.0
C3054 C 0.81587 0.8806 0.80924 0.0
C3055 C 0.83375 0.85959 0.76029 0.0
C3056 C 0.84144 0.84531 0.7676 0.0
C3057 C 0.83621 0.86479 0.73884 0.0
C3058 C 0.82923 0.88035 0.73063 0.0
C3059 C 0.83197 0.89513 0.74163 0.0
C3060 C 0.82536 0.90975 0.73387 0.0
C3061 C 0.81609 0.90978 0.71502 0.0
C3062 C 0.81337 0.89518 0.70393 0.0
C3063 C 0.81993 0.88052 0.71163 0.0
H3064 H 0.81107 0.92112 0.70898 0.0
H3065 H 0.87668 0.77963 0.7835 0.0
H3066 H 0.1802 0.87431 0.67622 0.0
H3067 H 0.16251 0.8581 0.69973 0.0
H3068 H 0.19975 0.85859 0.74884 0.0
H3069 H 0.21758 0.87454 0.72528 0.0
H3070 H 0.18711 0.8288 0.7448 0.0
H3071 H 0.16604 0.88309 0.75247 0.0
H3072 H 0.15512 0.9096 0.74023 0.0
H3073 H 0.11407 0.88528 0.71143 0.0
H3074 H 0.12488 0.85859 0.72325 0.0
H3075 H 0.13725 0.80443 0.83295 0.0
H3076 H 0.15401 0.82154 0.80928 0.0
H3077 H 0.12026 0.81309 0.75722 0.0
H3078 H 0.10358 0.79573 0.78068 0.0
H3079 H 0.13079 0.84678 0.76279 0.0
H3080 H 0.1524 0.7923 0.75584 0.0
H3081 H 0.16335 0.7662 0.76947 0.0
H3082 H 0.20369 0.79159 0.79839 0.0
H3083 H 0.19281 0.81789 0.78525 0.0
C3084 C 0.1846 0.87097 0.69204 0.0
C3085 C 0.20024 0.87572 0.69896 0.0
C3086 C 0.17446 0.86177 0.70548 0.0
C3087 C 0.17975 0.85729 0.72614 0.0
C3088 C 0.19543 0.86192 0.73298 0.0
C3089 C 0.20557 0.87107 0.71953 0.0
C3090 C 0.16899 0.84767 0.74058 0.0
C3091 C 0.17488 0.83285 0.74894 0.0
C3092 C 0.15291 0.8528 0.74568 0.0
C3093 C 0.14636 0.86883 0.73855 0.0
C3094 C 0.15476 0.88338 0.74337 0.0
C3095 C 0.14858 0.89845 0.73654 0.0
C3096 C 0.13393 0.89912 0.72501 0.0
C3097 C 0.12542 0.88474 0.72034 0.0
C3098 C 0.13157 0.86964 0.72711 0.0
C3099 C 0.13334 0.80633 0.81651 0.0
C3100 C 0.11916 0.79874 0.8086 0.0
C3101 C 0.14294 0.81604 0.80302 0.0
C3102 C 0.13838 0.81846 0.78153 0.0
C3103 C 0.12395 0.81134 0.77378 0.0
C3104 C 0.11448 0.80141 0.78716 0.0
C3105 C 0.14896 0.82803 0.76696 0.0
C3106 C 0.14303 0.84279 0.75859 0.0
C3107 C 0.16504 0.82292 0.76199 0.0
C3108 C 0.17168 0.80709 0.76977 0.0
C3109 C 0.16352 0.79234 0.76528 0.0
C3110 C 0.16973 0.7775 0.77289 0.0
C3111 C 0.18419 0.77724 0.78484 0.0
C3112 C 0.19248 0.79181 0.78916 0.0
C3113 C 0.1863 0.80669 0.78163 0.0
H3114 H 0.18898 0.76575 0.79072 0.0
H3115 H 0.12916 0.91079 0.71973 0.0
H3116 H 0.14658 0.19886 0.67108 0.0
H3117 H 0.16153 0.17952 0.69365 0.0
H3118 H 0.11601 0.16208 0.72018 0.0
H3119 H 0.10098 0.18158 0.69783 0.0
H3120 H 0.13701 0.17 0.75118 0.0
H3121 H 0.13925 0.1377 0.6874 0.0
H3122 H 0.14431 0.13193 0.6491 0.0
H3123 H 0.1951 0.14371 0.65722 0.0
H3124 H 0.1903 0.14978 0.69552 0.0
H3125 H 0.1785 0.11127 0.81584 0.0
H3126 H 0.16017 0.12367 0.78932 0.0
H3127 H 0.2018 0.14353 0.75563 0.0
H3128 H 0.22014 0.13081 0.78168 0.0
H3129 H 0.18053 0.13169 0.72784 0.0
H3130 H 0.17772 0.16698 0.79002 0.0
H3131 H 0.17292 0.17343 0.82821 0.0
H3132 H 0.12336 0.15658 0.82274 0.0
H3133 H 0.12795 0.14983 0.78456 0.0
C3134 C 0.13973 0.19068 0.68141 0.0
C3135 C 0.12262 0.19176 0.68275 0.0
C3136 C 0.14829 0.17959 0.69426 0.0
C3137 C 0.13988 0.1693 0.70855 0.0
C3138 C 0.12274 0.16992 0.70928 0.0
C3139 C 0.11417 0.18102 0.69644 0.0
C3140 C 0.14907 0.15897 0.72402 0.0
C3141 C 0.14629 0.16136 0.74605 0.0
C3142 C 0.16144 0.14799 0.71735 0.0
C3143 C 0.16438 0.14432 0.69432 0.0
C3144 C 0.15147 0.13919 0.68099 0.0
C3145 C 0.1543 0.13584 0.65928 0.0
C3146 C 0.17001 0.13749 0.65072 0.0
C3147 C 0.18293 0.14245 0.66387 0.0
C3148 C 0.18017 0.14582 0.68559 0.0
C3149 C 0.18371 0.11829 0.80277 0.0
C3150 C 0.20073 0.12016 0.80089 0.0
C3151 C 0.17324 0.12539 0.78766 0.0
C3152 C 0.1796 0.13469 0.7706 0.0
C3153 C 0.19661 0.13639 0.76861 0.0
C3154 C 0.20707 0.12918 0.78358 0.0
C3155 C 0.16863 0.14292 0.75496 0.0
C3156 C 0.17109 0.14016 0.73292 0.0
C3157 C 0.15601 0.15363 0.76159 0.0
C3158 C 0.15323 0.15773 0.78451 0.0
C3159 C 0.16584 0.16454 0.79701 0.0
C3160 C 0.16315 0.16827 0.81864 0.0
C3161 C 0.14786 0.16537 0.82791 0.0
C3162 C 0.13521 0.15878 0.81554 0.0
C3163 C 0.13784 0.15502 0.79391 0.0
H3164 H 0.1458 0.16826 0.84466 0.0
H3165 H 0.17217 0.13489 0.63391 0.0
H3166 H 0.89463 0.17814 0.81235 0.0
H3167 H 0.88031 0.15915 0.7882 0.0
H3168 H 0.84782 0.198 0.7688 0.0
H3169 H 0.86187 0.21684 0.79282 0.0
H3170 H 0.83129 0.17027 0.77736 0.0
H3171 H 0.87954 0.18611 0.73719 0.0
H3172 H 0.90923 0.18888 0.73131 0.0
H3173 H 0.91499 0.13686 0.73688 0.0
H3174 H 0.88533 0.13381 0.74308 0.0
H3175 H 0.79406 0.14556 0.68263 0.0
H3176 H 0.81212 0.16002 0.70737 0.0
H3177 H 0.83925 0.11557 0.71842 0.0
H3178 H 0.82131 0.10102 0.69325 0.0
H3179 H 0.85937 0.14257 0.71675 0.0
H3180 H 0.81073 0.12653 0.75377 0.0
H3181 H 0.78096 0.12378 0.759 0.0
H3182 H 0.77594 0.17604 0.75963 0.0
H3183 H 0.80565 0.1791 0.75409 0.0
C3184 C 0.88439 0.18256 0.80297 0.0
C3185 C 0.87937 0.19896 0.80445 0.0
C3186 C 0.87628 0.17174 0.78914 0.0
C3187 C 0.86307 0.17721 0.77661 0.0
C3188 C 0.85796 0.19352 0.77833 0.0
C3189 C 0.86604 0.20429 0.79204 0.0
C3190 C 0.85438 0.16612 0.76163 0.0
C3191 C 0.83742 0.16429 0.76405 0.0
C3192 C 0.86246 0.15792 0.74464 0.0
C3193 C 0.88026 0.15975 0.74086 0.0
C3194 C 0.88716 0.17527 0.73735 0.0
C3195 C 0.90397 0.17689 0.73392 0.0
C3196 C 0.914 0.16306 0.73379 0.0
C3197 C 0.90721 0.14757 0.73703 0.0
C3198 C 0.89041 0.14589 0.74049 0.0
C3199 C 0.80401 0.1389 0.69006 0.0
C3200 C 0.80619 0.12213 0.68618 0.0
C3201 C 0.81429 0.14717 0.70426 0.0
C3202 C 0.82679 0.13878 0.71508 0.0
C3203 C 0.8296 0.12224 0.71033 0.0
C3204 C 0.81935 0.11396 0.69597 0.0
C3205 C 0.83624 0.14716 0.73216 0.0
C3206 C 0.85329 0.1484 0.73021 0.0
C3207 C 0.82826 0.15482 0.74966 0.0
C3208 C 0.81041 0.15303 0.75337 0.0
C3209 C 0.80326 0.13743 0.7549 0.0
C3210 C 0.7864 0.13582 0.75793 0.0
C3211 C 0.77656 0.14973 0.7596 0.0
C3212 C 0.78358 0.16528 0.75832 0.0
C3213 C 0.80043 0.16696 0.75527 0.0
H3214 H 0.76351 0.14846 0.76192 0.0
H3215 H 0.92701 0.16433 0.73113 0.0
H3216 H 0.67916 0.61449 0.68133 0.0
H3217 H 0.66053 0.62969 0.70479 0.0
H3218 H 0.70185 0.65147 0.73708 0.0
H3219 H 0.72045 0.63594 0.7142 0.0
H3220 H 0.68016 0.64333 0.76545 0.0
H3221 H 0.67909 0.67224 0.69821 0.0
H3222 H 0.67537 0.67533 0.65909 0.0
H3223 H 0.62535 0.65997 0.66489 0.0
H3224 H 0.62885 0.6566 0.70402 0.0
H3225 H 0.62786 0.72121 0.78316 0.0
H3226 H 0.64404 0.70336 0.76003 0.0
H3227 H 0.6296 0.66162 0.79799 0.0
H3228 H 0.61368 0.67955 0.8216 0.0
H3229 H 0.63705 0.67894 0.73456 0.0
H3230 H 0.66102 0.63423 0.79922 0.0
H3231 H 0.66712 0.6339 0.83805 0.0
H3232 H 0.67549 0.68573 0.83689 0.0
H3233 H 0.66965 0.68632 0.79803 0.0
C3234 C 0.68424 0.62252 0.69346 0.0
C3235 C 0.70124 0.62409 0.69591 0.0
C3236 C 0.67359 0.63123 0.70681 0.0
C3237 C 0.67978 0.64187 0.72256 0.0
C3238 C 0.69678 0.64331 0.7251 0.0
C3239 C 0.7074 0.63448 0.71195 0.0
C3240 C 0.66866 0.6517 0.73629 0.0
C3241 C 0.67069 0.65106 0.75868 0.0
C3242 C 0.65642 0.66195 0.7275 0.0
C3243 C 0.65428 0.664 0.70399 0.0
C3244 C 0.66734 0.66941 0.69111 0.0
C3245 C 0.66526 0.67123 0.66895 0.0
C3246 C 0.65014 0.6678 0.6595 0.0
C3247 C 0.63706 0.6626 0.67222 0.0
C3248 C 0.63908 0.66074 0.69439 0.0
C3249 C 0.62811 0.70822 0.78657 0.0
C3250 C 0.6196 0.70177 0.80426 0.0
C3251 C 0.6373 0.69803 0.77328 0.0
C3252 C 0.63816 0.68118 0.77737 0.0
C3253 C 0.62933 0.67463 0.79473 0.0
C3254 C 0.62021 0.68486 0.80816 0.0
C3255 C 0.64861 0.67063 0.76368 0.0
C3256 C 0.64642 0.67108 0.74132 0.0
C3257 C 0.66101 0.66057 0.77246 0.0
C3258 C 0.6647 0.66033 0.79578 0.0
C3259 C 0.6642 0.64554 0.80725 0.0
C3260 C 0.66761 0.64531 0.82926 0.0
C3261 C 0.67163 0.65979 0.83994 0.0
C3262 C 0.67231 0.67453 0.82862 0.0
C3263 C 0.66893 0.67482 0.80661 0.0
H3264 H 0.67425 0.65959 0.85699 0.0
H3265 H 0.64856 0.66922 0.64234 0.0
H3266 H 0.28333 0.61781 0.7735 0.0
H3267 H 0.30203 0.63274 0.74991 0.0
H3268 H 0.3358 0.63881 0.80253 0.0
H3269 H 0.31716 0.62382 0.82624 0.0
H3270 H 0.32925 0.6677 0.78057 0.0
H3271 H 0.34491 0.61252 0.7642 0.0
H3272 H 0.34018 0.58387 0.7536 0.0
H3273 H 0.32056 0.59978 0.69313 0.0
H3274 H 0.32496 0.62856 0.7035 0.0
H3275 H 0.39309 0.70241 0.72029 0.0
H3276 H 0.37765 0.68383 0.74336 0.0
H3277 H 0.3461 0.67163 0.69013 0.0
H3278 H 0.36192 0.68982 0.66676 0.0
H3279 H 0.35219 0.6452 0.71294 0.0
H3280 H 0.33472 0.69982 0.72914 0.0
H3281 H 0.33824 0.72877 0.73922 0.0
H3282 H 0.35963 0.71433 0.7993 0.0
H3283 H 0.35644 0.68528 0.78945 0.0
C3284 C 0.29478 0.62225 0.78002 0.0
C3285 C 0.2988 0.61968 0.80171 0.0
C3286 C 0.30547 0.6307 0.7665 0.0
C3287 C 0.32033 0.63677 0.77447 0.0
C3288 C 0.3244 0.63418 0.7961 0.0
C3289 C 0.31377 0.6256 0.80959 0.0
C3290 C 0.3313 0.64642 0.7604 0.0
C3291 C 0.3345 0.66271 0.76596 0.0
C3292 C 0.3377 0.64001 0.74104 0.0
C3293 C 0.33513 0.62271 0.73472 0.0
C3294 C 0.33946 0.60992 0.74871 0.0
C3295 C 0.33686 0.59365 0.74273 0.0
C3296 C 0.33003 0.59 0.72272 0.0
C3297 C 0.32583 0.60262 0.70863 0.0
C3298 C 0.32839 0.61891 0.71454 0.0
C3299 C 0.38293 0.69567 0.71347 0.0
C3300 C 0.3786 0.69765 0.69179 0.0
C3301 C 0.37408 0.68511 0.72669 0.0
C3302 C 0.36049 0.67659 0.7186 0.0
C3303 C 0.35649 0.67812 0.69675 0.0
C3304 C 0.3655 0.68854 0.68342 0.0
C3305 C 0.35017 0.66652 0.7331 0.0
C3306 C 0.34703 0.65017 0.72761 0.0
C3307 C 0.34365 0.67292 0.75244 0.0
C3308 C 0.34549 0.69038 0.75846 0.0
C3309 C 0.34028 0.70282 0.74444 0.0
C3310 C 0.3422 0.71924 0.75012 0.0
C3311 C 0.34919 0.72339 0.76986 0.0
C3312 C 0.35424 0.71111 0.784 0.0
C3313 C 0.35236 0.69466 0.77838 0.0
H3314 H 0.35067 0.73611 0.77423 0.0
H3315 H 0.32803 0.5774 0.71812 0.0
H3316 H 0.38743 0.29007 0.77191 0.0
H3317 H 0.37222 0.3091 0.74907 0.0
H3318 H 0.35413 0.33394 0.80537 0.0
H3319 H 0.36945 0.31503 0.82836 0.0
H3320 H 0.32976 0.32547 0.77533 0.0
H3321 H 0.38206 0.35231 0.77687 0.0
H3322 H 0.41203 0.35379 0.77297 0.0
H3323 H 0.40796 0.34054 0.70644 0.0
H3324 H 0.37795 0.33879 0.71001 0.0
H3325 H 0.29103 0.3907 0.72341 0.0
H3326 H 0.30977 0.3755 0.74649 0.0
H3327 H 0.33313 0.35487 0.69054 0.0
H3328 H 0.31467 0.3705 0.66729 0.0
H3329 H 0.35535 0.36149 0.72065 0.0
H3330 H 0.30404 0.33347 0.71833 0.0
H3331 H 0.27412 0.33053 0.72124 0.0
H3332 H 0.27628 0.34395 0.78787 0.0
H3333 H 0.30621 0.3472 0.78528 0.0
C3334 C 0.38027 0.29964 0.77942 0.0
C3335 C 0.37958 0.30108 0.8019 0.0
C3336 C 0.37166 0.31052 0.76635 0.0
C3337 C 0.36215 0.32295 0.77556 0.0
C3338 C 0.36145 0.32443 0.798 0.0
C3339 C 0.37021 0.31366 0.81108 0.0
C3340 C 0.35241 0.33399 0.76175 0.0
C3341 C 0.33534 0.33356 0.76362 0.0
C3342 C 0.35974 0.34408 0.74601 0.0
C3343 C 0.37776 0.34529 0.74375 0.0
C3344 C 0.38756 0.3496 0.76144 0.0
C3345 C 0.40455 0.35051 0.75928 0.0
C3346 C 0.41189 0.34724 0.73948 0.0
C3347 C 0.40225 0.34307 0.72177 0.0
C3348 C 0.38525 0.34214 0.72384 0.0
C3349 C 0.30027 0.38305 0.71601 0.0
C3350 C 0.3013 0.38163 0.69357 0.0
C3351 C 0.31093 0.37433 0.72922 0.0
C3352 C 0.32262 0.36377 0.72025 0.0
C3353 C 0.32416 0.36289 0.69781 0.0
C3354 C 0.31359 0.37179 0.68455 0.0
C3355 C 0.33264 0.35309 0.73433 0.0
C3356 C 0.34975 0.35349 0.73244 0.0
C3357 C 0.32534 0.34276 0.7499 0.0
C3358 C 0.30735 0.34074 0.75155 0.0
C3359 C 0.29812 0.33591 0.73357 0.0
C3360 C 0.28116 0.33417 0.73516 0.0
C3361 C 0.2733 0.3371 0.75472 0.0
C3362 C 0.28239 0.34172 0.77273 0.0
C3363 C 0.29935 0.3435 0.77121 0.0
H3364 H 0.26016 0.33574 0.75592 0.0
H3365 H 0.42505 0.34796 0.73784 0.0
H3366 H 0.61847 0.28717 0.72449 0.0
H3367 H 0.63444 0.30534 0.74762 0.0
H3368 H 0.65469 0.32899 0.69171 0.0
H3369 H 0.63858 0.31095 0.66839 0.0
H3370 H 0.67815 0.32002 0.7238 0.0
H3371 H 0.6267 0.34842 0.71763 0.0
H3372 H 0.59668 0.35086 0.71958 0.0
H3373 H 0.59796 0.33894 0.78674 0.0
H3374 H 0.62798 0.3362 0.78512 0.0
H3375 H 0.71546 0.3869 0.77546 0.0
H3376 H 0.69841 0.37023 0.75184 0.0
H3377 H 0.67194 0.352 0.80683 0.0
H3378 H 0.68872 0.36903 0.83054 0.0
H3379 H 0.65147 0.35815 0.77498 0.0
H3380 H 0.70177 0.32924 0.78245 0.0
H3381 H 0.73169 0.32571 0.78204 0.0
H3382 H 0.73271 0.33652 0.71454 0.0
H3383 H 0.70279 0.34043 0.71464 0.0
C3384 C 0.62631 0.29625 0.71711 0.0
C3385 C 0.62728 0.29768 0.69465 0.0
C3386 C 0.63538 0.30663 0.73034 0.0
C3387 C 0.64566 0.31853 0.72134 0.0
C3388 C 0.6468 0.31987 0.69892 0.0
C3389 C 0.63757 0.30962 0.68566 0.0
C3390 C 0.65525 0.32951 0.7354 0.0
C3391 C 0.67236 0.32855 0.73477 0.0
C3392 C 0.64761 0.3402 0.75017 0.0
C3393 C 0.62957 0.34195 0.7512 0.0
C3394 C 0.62057 0.34619 0.73278 0.0
C3395 C 0.60355 0.34765 0.73383 0.0
C3396 C 0.59541 0.34501 0.75326 0.0
C3397 C 0.60428 0.34096 0.7717 0.0
C3398 C 0.62129 0.33946 0.77072 0.0
C3399 C 0.70596 0.3794 0.78251 0.0
C3400 C 0.70347 0.37917 0.80484 0.0
C3401 C 0.69627 0.36983 0.76901 0.0
C3402 C 0.68409 0.35964 0.7776 0.0
C3403 C 0.6813 0.35972 0.79986 0.0
C3404 C 0.69091 0.36942 0.81338 0.0
C3405 C 0.67444 0.34875 0.76336 0.0
C3406 C 0.65731 0.34967 0.76398 0.0
C3407 C 0.68207 0.33782 0.74881 0.0
C3408 C 0.70005 0.33529 0.7486 0.0
C3409 C 0.70838 0.33098 0.76755 0.0
C3410 C 0.72535 0.3289 0.76737 0.0
C3411 C 0.73411 0.33092 0.74828 0.0
C3412 C 0.72591 0.33498 0.72932 0.0
C3413 C 0.70894 0.33713 0.72943 0.0
H3414 H 0.74724 0.32931 0.74817 0.0
H3415 H 0.58224 0.34615 0.75404 0.0
H3416 H 0.40279 0.31292 0.19569 0.0
H3417 H 0.3885 0.332 0.21965 0.0
H3418 H 0.34211 0.31344 0.19746 0.0
H3419 H 0.35626 0.29431 0.1737 0.0
H3420 H 0.34293 0.34779 0.20185 0.0
H3421 H 0.35727 0.29883 0.24204 0.0
H3422 H 0.37671 0.27848 0.25626 0.0
H3423 H 0.40263 0.31638 0.28971 0.0
H3424 H 0.38346 0.33701 0.27541 0.0
H3425 H 0.28409 0.36397 0.27982 0.0
H3426 H 0.30322 0.35059 0.25547 0.0
H3427 H 0.34381 0.37013 0.29155 0.0
H3428 H 0.3246 0.38334 0.31642 0.0
H3429 H 0.34931 0.33878 0.28028 0.0
H3430 H 0.33266 0.38717 0.24501 0.0
H3431 H 0.31291 0.40755 0.23205 0.0
H3432 H 0.29226 0.37213 0.18894 0.0
H3433 H 0.31152 0.35128 0.20231 0.0
C3434 C 0.38955 0.31311 0.1957 0.0
C3435 C 0.38061 0.3021 0.18294 0.0
C3436 C 0.38142 0.32395 0.20942 0.0
C3437 C 0.36427 0.32401 0.21041 0.0
C3438 C 0.35536 0.31358 0.19691 0.0
C3439 C 0.36345 0.30263 0.1834 0.0
C3440 C 0.35549 0.33415 0.22637 0.0
C3441 C 0.34426 0.34581 0.21899 0.0
C3442 C 0.35764 0.33188 0.24873 0.0
C3443 C 0.36907 0.31947 0.25745 0.0
C3444 C 0.3672 0.30284 0.25228 0.0
C3445 C 0.37816 0.29125 0.26038 0.0
C3446 C 0.39093 0.29614 0.27382 0.0
C3447 C 0.39275 0.31262 0.27926 0.0
C3448 C 0.38185 0.32426 0.27117 0.0
C3449 C 0.29709 0.36541 0.28263 0.0
C3450 C 0.30287 0.3748 0.29992 0.0
C3451 C 0.30801 0.35779 0.26865 0.0
C3452 C 0.32494 0.35961 0.27146 0.0
C3453 C 0.33078 0.36865 0.28904 0.0
C3454 C 0.31982 0.37621 0.30317 0.0
C3455 C 0.33639 0.35216 0.25577 0.0
C3456 C 0.34814 0.34101 0.26317 0.0
C3457 C 0.33481 0.35501 0.23341 0.0
C3458 C 0.32349 0.36761 0.22479 0.0
C3459 C 0.32384 0.38367 0.23286 0.0
C3460 C 0.31271 0.39532 0.22543 0.0
C3461 C 0.30134 0.39117 0.2096 0.0
C3462 C 0.30108 0.37533 0.20119 0.0
C3463 C 0.31208 0.36357 0.20873 0.0
H3464 H 0.29274 0.40022 0.20384 0.0
H3465 H 0.3994 0.28715 0.28008 0.0
H3466 H 0.6122 0.316 0.32042 0.0
H3467 H 0.62583 0.33485 0.29551 0.0
H3468 H 0.63325 0.29525 0.25075 0.0
H3469 H 0.6199 0.27641 0.27555 0.0
H3470 H 0.66079 0.31198 0.25686 0.0
H3471 H 0.60466 0.32488 0.24152 0.0
H3472 H 0.57644 0.3332 0.25018 0.0
H3473 H 0.59401 0.37901 0.27471 0.0
H3474 H 0.62238 0.37086 0.26648 0.0
H3475 H 0.68893 0.35583 0.16748 0.0
H3476 H 0.6703 0.33968 0.18976 0.0
H3477 H 0.66654 0.37965 0.23469 0.0
H3478 H 0.68507 0.39593 0.21241 0.0
H3479 H 0.63688 0.3635 0.22881 0.0
H3480 H 0.69283 0.35044 0.24489 0.0
H3481 H 0.7211 0.34234 0.23616 0.0
H3482 H 0.70375 0.29678 0.21056 0.0
H3483 H 0.67533 0.30473 0.21883 0.0
C3484 C 0.61665 0.31137 0.3052 0.0
C3485 C 0.61504 0.29474 0.29995 0.0
C3486 C 0.62436 0.32215 0.29095 0.0
C3487 C 0.63048 0.31646 0.27122 0.0
C3488 C 0.62865 0.2999 0.2659 0.0
C3489 C 0.62099 0.28915 0.28008 0.0
C3490 C 0.63949 0.32749 0.25646 0.0
C3491 C 0.65545 0.32312 0.2505 0.0
C3492 C 0.6327 0.34226 0.24863 0.0
C3493 C 0.61566 0.34718 0.25359 0.0
C3494 C 0.60252 0.33667 0.24894 0.0
C3495 C 0.58649 0.34136 0.25373 0.0
C3496 C 0.58344 0.3566 0.26305 0.0
C3497 C 0.5964 0.3672 0.26753 0.0
C3498 C 0.61245 0.36255 0.26279 0.0
C3499 C 0.68391 0.36128 0.1819 0.0
C3500 C 0.68857 0.37707 0.18833 0.0
C3501 C 0.67331 0.35204 0.19463 0.0
C3502 C 0.66725 0.3584 0.21402 0.0
C3503 C 0.67111 0.37452 0.21981 0.0
C3504 C 0.68174 0.38377 0.2071 0.0
C3505 C 0.65802 0.34781 0.22903 0.0
C3506 C 0.64213 0.35231 0.23514 0.0
C3507 C 0.66485 0.33314 0.23707 0.0
C3508 C 0.68194 0.32825 0.23228 0.0
C3509 C 0.69503 0.33875 0.23725 0.0
C3510 C 0.71108 0.33417 0.2324 0.0
C3511 C 0.71422 0.31907 0.22276 0.0
C3512 C 0.7013 0.30849 0.218 0.0
C3513 C 0.68522 0.31301 0.22277 0.0
H3514 H 0.72665 0.31555 0.21902 0.0
H3515 H 0.57102 0.36022 0.26674 0.0
H3516 H 0.68298 0.6262 0.32802 0.0
H3517 H 0.66523 0.64226 0.30445 0.0
H3518 H 0.69604 0.63044 0.25034 0.0
H3519 H 0.71407 0.61479 0.27393 0.0
H3520 H 0.68943 0.66156 0.24994 0.0
H3521 H 0.65765 0.61282 0.25764 0.0
H3522 H 0.64348 0.59067 0.277 0.0
H3523 H 0.61196 0.62577 0.30727 0.0
H3524 H 0.62611 0.64817 0.28831 0.0
H3525 H 0.6345 0.68873 0.16857 0.0
H3526 H 0.65055 0.67048 0.19161 0.0
H3527 H 0.62637 0.68999 0.2476 0.0
H3528 H 0.61044 0.70843 0.22471 0.0
H3529 H 0.6292 0.65475 0.24649 0.0
H3530 H 0.66193 0.70343 0.23832 0.0
H3531 H 0.67581 0.72495 0.21744 0.0
H3532 H 0.70552 0.6887 0.18635 0.0
H3533 H 0.69159 0.66691 0.20679 0.0
C3534 C 0.68588 0.62693 0.31107 0.0
C3535 C 0.6999 0.61926 0.3028 0.0
C3536 C 0.6757 0.63606 0.29759 0.0
C3537 C 0.67921 0.63744 0.27556 0.0
C3538 C 0.6931 0.62958 0.26727 0.0
C3539 C 0.70336 0.6206 0.28076 0.0
C3540 C 0.66879 0.64758 0.26128 0.0
C3541 C 0.67629 0.65987 0.24897 0.0
C3542 C 0.6516 0.64563 0.26029 0.0
C3543 C 0.64305 0.63219 0.27171 0.0
C3544 C 0.64779 0.61583 0.26856 0.0
C3545 C 0.63974 0.60323 0.27943 0.0
C3546 C 0.62686 0.60681 0.2934 0.0
C3547 C 0.62196 0.62301 0.29647 0.0
C3548 C 0.62998 0.63567 0.28565 0.0
C3549 C 0.63256 0.68907 0.18578 0.0
C3550 C 0.6213 0.70003 0.19489 0.0
C3551 C 0.64173 0.67867 0.19889 0.0
C3552 C 0.63965 0.67897 0.22126 0.0
C3553 C 0.62811 0.68959 0.23035 0.0
C3554 C 0.6191 0.70015 0.21728 0.0
C3555 C 0.64989 0.66857 0.23525 0.0
C3556 C 0.64235 0.65631 0.24748 0.0
C3557 C 0.66706 0.67042 0.23602 0.0
C3558 C 0.67559 0.68352 0.22391 0.0
C3559 C 0.67132 0.70003 0.2269 0.0
C3560 C 0.67922 0.71228 0.21516 0.0
C3561 C 0.69152 0.70819 0.20053 0.0
C3562 C 0.69597 0.69184 0.19766 0.0
C3563 C 0.68808 0.67954 0.20932 0.0
H3564 H 0.69761 0.71769 0.19145 0.0
H3565 H 0.62064 0.59704 0.30181 0.0
H3566 H 0.28292 0.61602 0.22609 0.0
H3567 H 0.30019 0.63227 0.24997 0.0
H3568 H 0.32993 0.64676 0.19594 0.0
H3569 H 0.313 0.63003 0.17209 0.0
H3570 H 0.34876 0.6405 0.22883 0.0
H3571 H 0.30029 0.67237 0.21815 0.0
H3572 H 0.27066 0.67791 0.21762 0.0
H3573 H 0.26792 0.66851 0.2854 0.0
H3574 H 0.29752 0.66269 0.28627 0.0
H3575 H 0.38453 0.71162 0.27548 0.0
H3576 H 0.36843 0.69293 0.25324 0.0
H3577 H 0.34535 0.67346 0.31005 0.0
H3578 H 0.36155 0.69205 0.33247 0.0
H3579 H 0.32334 0.68182 0.27673 0.0
H3580 H 0.37288 0.6511 0.28663 0.0
H3581 H 0.40271 0.64677 0.28605 0.0
H3582 H 0.40352 0.65566 0.21807 0.0
H3583 H 0.37371 0.66028 0.21829 0.0
C3584 C 0.29317 0.62263 0.21932 0.0
C3585 C 0.29657 0.62185 0.19722 0.0
C3586 C 0.30299 0.63197 0.23296 0.0
C3587 C 0.31619 0.64099 0.2247 0.0
C3588 C 0.3198 0.63994 0.20268 0.0
C3589 C 0.3101 0.63042 0.18906 0.0
C3590 C 0.32614 0.65161 0.23897 0.0
C3591 C 0.3432 0.64966 0.2391 0.0
C3592 C 0.31889 0.66339 0.25268 0.0
C3593 C 0.30109 0.66693 0.25223 0.0
C3594 C 0.29335 0.67136 0.23291 0.0
C3595 C 0.27656 0.67457 0.23255 0.0
C3596 C 0.2674 0.67352 0.25145 0.0
C3597 C 0.27503 0.66929 0.27076 0.0
C3598 C 0.29181 0.66605 0.2712 0.0
C3599 C 0.37606 0.70332 0.28324 0.0
C3600 C 0.37429 0.70326 0.3057 0.0
C3601 C 0.36692 0.69263 0.27053 0.0
C3602 C 0.35579 0.68177 0.28004 0.0
C3603 C 0.35391 0.68175 0.30244 0.0
C3604 C 0.36319 0.69232 0.3152 0.0
C3605 C 0.34587 0.67069 0.26649 0.0
C3606 C 0.32884 0.67259 0.26649 0.0
C3607 C 0.35316 0.65904 0.25271 0.0
C3608 C 0.37108 0.65619 0.25252 0.0
C3609 C 0.37944 0.65227 0.27158 0.0
C3610 C 0.39634 0.64974 0.27131 0.0
C3611 C 0.40501 0.65098 0.25204 0.0
C3612 C 0.39679 0.65472 0.23299 0.0
C3613 C 0.37989 0.65728 0.23318 0.0
H3614 H 0.4181 0.64902 0.25187 0.0
H3615 H 0.25441 0.676 0.25114 0.0
loop_
_geom_bond_atom_site_label_1
_geom_bond_atom_site_label_2
_geom_bond_distance
_geom_bond_site_symmetry_2
_ccdc_geom_bond_type
In0 O1 2.294 . S
In0 O2 2.326 . S
In0 O6 2.266 . S
In0 O7 2.326 . S
In0 O8 2.266 . S
In0 O9 2.326 . S
In0 O11 2.294 . S
In0 O12 2.326 . S
O1 In0 2.294 . S
O1 C10 1.240 . S
O2 In0 2.326 . S
O2 C10 1.252 . S
C3 O6 1.252 . S
C3 O7 1.260 . S
C4 O11 1.240 . S
C4 O12 1.252 . S
C5 O8 1.252 . S
C5 O9 1.260 . S
O6 In0 2.266 . S
O6 C3 1.252 . S
O7 In0 2.326 . S
O7 C3 1.260 . S
O8 In0 2.266 . S
O8 C5 1.252 . S
O9 In0 2.326 . S
O9 C5 1.260 . S
C10 O1 1.240 . S
C10 O2 1.252 . S
O11 In0 2.294 . S
O11 C4 1.240 . S
O12 In0 2.326 . S
O12 C4 1.252 . S
In13 O14 2.294 . S
In13 O15 2.326 . S
In13 O19 2.266 . S
In13 O20 2.326 . S
In13 O21 2.266 . S
In13 O22 2.326 . S
In13 O24 2.294 . S
In13 O25 2.326 . S
O14 In13 2.294 . S
O14 C23 1.240 . S
O15 In13 2.326 . S
O15 C23 1.252 . S
C16 O19 1.252 . S
C16 O20 1.260 . S
C17 O24 1.240 . S
C17 O25 1.252 . S
C18 O21 1.252 . S
C18 O22 1.260 . S
O19 In13 2.266 . S
O19 C16 1.252 . S
O20 In13 2.326 . S
O20 C16 1.260 . S
O21 In13 2.266 . S
O21 C18 1.252 . S
O22 In13 2.326 . S
O22 C18 1.260 . S
C23 O14 1.240 . S
C23 O15 1.252 . S
O24 In13 2.294 . S
O24 C17 1.240 . S
O25 In13 2.326 . S
O25 C17 1.252 . S
In26 O27 2.294 . S
In26 O28 2.326 . S
In26 O32 2.266 . S
In26 O33 2.326 . S
In26 O34 2.266 . S
In26 O35 2.326 . S
In26 O37 2.294 . S
In26 O38 2.326 . S
O27 In26 2.294 . S
O27 C36 1.240 . S
O28 In26 2.326 . S
O28 C36 1.252 . S
C29 O32 1.252 . S
C29 O33 1.260 . S
C30 O37 1.240 . S
C30 O38 1.252 . S
C31 O34 1.252 . S
C31 O35 1.260 . S
O32 In26 2.266 . S
O32 C29 1.252 . S
O33 In26 2.326 . S
O33 C29 1.260 . S
O34 In26 2.266 . S
O34 C31 1.252 . S
O35 In26 2.326 . S
O35 C31 1.260 . S
C36 O27 1.240 . S
C36 O28 1.252 . S
O37 In26 2.294 . S
O37 C30 1.240 . S
O38 In26 2.326 . S
O38 C30 1.252 . S
In39 O40 2.294 . S
In39 O41 2.326 . S
In39 O45 2.266 . S
In39 O46 2.326 . S
In39 O47 2.266 . S
In39 O48 2.326 . S
In39 O50 2.294 . S
In39 O51 2.326 . S
O40 In39 2.294 . S
O40 C49 1.240 . S
O41 In39 2.326 . S
O41 C49 1.252 . S
C42 O45 1.252 . S
C42 O46 1.260 . S
C43 O50 1.240 . S
C43 O51 1.252 . S
C44 O47 1.252 . S
C44 O48 1.260 . S
O45 In39 2.266 . S
O45 C42 1.252 . S
O46 In39 2.326 . S
O46 C42 1.260 . S
O47 In39 2.266 . S
O47 C44 1.252 . S
O48 In39 2.326 . S
O48 C44 1.260 . S
C49 O40 1.240 . S
C49 O41 1.252 . S
O50 In39 2.294 . S
O50 C43 1.240 . S
O51 In39 2.326 . S
O51 C43 1.252 . S
In52 O53 2.294 . S
In52 O54 2.326 . S
In52 O58 2.266 . S
In52 O59 2.326 . S
In52 O60 2.266 . S
In52 O61 2.326 . S
In52 O63 2.294 . S
In52 O64 2.326 . S
O53 In52 2.294 . S
O53 C62 1.240 . S
O54 In52 2.326 . S
O54 C62 1.252 . S
C55 O58 1.252 . S
C55 O59 1.260 . S
C56 O63 1.240 . S
C56 O64 1.252 . S
C57 O60 1.252 . S
C57 O61 1.260 . S
O58 In52 2.266 . S
O58 C55 1.252 . S
O59 In52 2.326 . S
O59 C55 1.260 . S
O60 In52 2.266 . S
O60 C57 1.252 . S
O61 In52 2.326 . S
O61 C57 1.260 . S
C62 O53 1.240 . S
C62 O54 1.252 . S
O63 In52 2.294 . S
O63 C56 1.240 . S
O64 In52 2.326 . S
O64 C56 1.252 . S
In65 O66 2.294 . S
In65 O67 2.326 . S
In65 O71 2.266 . S
In65 O72 2.326 . S
In65 O73 2.266 . S
In65 O74 2.326 . S
In65 O76 2.294 . S
In65 O77 2.326 . S
O66 In65 2.294 . S
O66 C75 1.240 . S
O67 In65 2.326 . S
O67 C75 1.252 . S
C68 O71 1.252 . S
C68 O72 1.260 . S
C69 O76 1.240 . S
C69 O77 1.252 . S
C70 O73 1.252 . S
C70 O74 1.260 . S
O71 In65 2.266 . S
O71 C68 1.252 . S
O72 In65 2.326 . S
O72 C68 1.260 . S
O73 In65 2.266 . S
O73 C70 1.252 . S
O74 In65 2.326 . S
O74 C70 1.260 . S
C75 O66 1.240 . S
C75 O67 1.252 . S
O76 In65 2.294 . S
O76 C69 1.240 . S
O77 In65 2.326 . S
O77 C69 1.252 . S
In78 O79 2.294 . S
In78 O80 2.326 . S
In78 O84 2.266 . S
In78 O85 2.326 . S
In78 O86 2.266 . S
In78 O87 2.326 . S
In78 O89 2.294 . S
In78 O90 2.326 . S
O79 In78 2.294 . S
O79 C88 1.240 . S
O80 In78 2.326 . S
O80 C88 1.252 . S
C81 O84 1.252 . S
C81 O85 1.260 . S
C82 O89 1.240 . S
C82 O90 1.252 . S
C83 O86 1.252 . S
C83 O87 1.260 . S
O84 In78 2.266 . S
O84 C81 1.252 . S
O85 In78 2.326 . S
O85 C81 1.260 . S
O86 In78 2.266 . S
O86 C83 1.252 . S
O87 In78 2.326 . S
O87 C83 1.260 . S
C88 O79 1.240 . S
C88 O80 1.252 . S
O89 In78 2.294 . S
O89 C82 1.240 . S
O90 In78 2.326 . S
O90 C82 1.252 . S
In91 O92 2.294 . S
In91 O93 2.326 . S
In91 O97 2.266 . S
In91 O98 2.326 . S
In91 O99 2.266 . S
In91 O100 2.326 . S
In91 O102 2.294 . S
In91 O103 2.326 . S
O92 In91 2.294 . S
O92 C101 1.240 . S
O93 In91 2.326 . S
O93 C101 1.252 . S
C94 O97 1.252 . S
C94 O98 1.260 . S
C95 O102 1.240 . S
C95 O103 1.252 . S
C96 O99 1.252 . S
C96 O100 1.260 . S
O97 In91 2.266 . S
O97 C94 1.252 . S
O98 In91 2.326 . S
O98 C94 1.260 . S
O99 In91 2.266 . S
O99 C96 1.252 . S
O100 In91 2.326 . S
O100 C96 1.260 . S
C101 O92 1.240 . S
C101 O93 1.252 . S
O102 In91 2.294 . S
O102 C95 1.240 . S
O103 In91 2.326 . S
O103 C95 1.252 . S
In104 O105 2.294 . S
In104 O106 2.326 . S
In104 O110 2.266 . S
In104 O111 2.326 . S
In104 O112 2.266 . S
In104 O113 2.326 . S
In104 O115 2.294 . S
In104 O116 2.326 . S
O105 In104 2.294 . S
O105 C114 1.240 . S
O106 In104 2.326 . S
O106 C114 1.252 . S
C107 O110 1.252 . S
C107 O111 1.260 . S
C108 O115 1.240 . S
C108 O116 1.252 . S
C109 O112 1.252 . S
C109 O113 1.260 . S
O110 In104 2.266 . S
O110 C107 1.252 . S
O111 In104 2.326 . S
O111 C107 1.260 . S
O112 In104 2.266 . S
O112 C109 1.252 . S
O113 In104 2.326 . S
O113 C109 1.260 . S
C114 O105 1.240 . S
C114 O106 1.252 . S
O115 In104 2.294 . S
O115 C108 1.240 . S
O116 In104 2.326 . S
O116 C108 1.252 . S
In117 O118 2.294 . S
In117 O119 2.326 . S
In117 O123 2.266 . S
In117 O124 2.326 . S
In117 O125 2.266 . S
In117 O126 2.326 . S
In117 O128 2.294 . S
In117 O129 2.326 . S
O118 In117 2.294 . S
O118 C127 1.240 . S
O119 In117 2.326 . S
O119 C127 1.252 . S
C120 O123 1.252 . S
C120 O124 1.260 . S
C121 O128 1.240 . S
C121 O129 1.252 . S
C122 O125 1.252 . S
C122 O126 1.260 . S
O123 In117 2.266 . S
O123 C120 1.252 . S
O124 In117 2.326 . S
O124 C120 1.260 . S
O125 In117 2.266 . S
O125 C122 1.252 . S
O126 In117 2.326 . S
O126 C122 1.260 . S
C127 O118 1.240 . S
C127 O119 1.252 . S
O128 In117 2.294 . S
O128 C121 1.240 . S
O129 In117 2.326 . S
O129 C121 1.252 . S
In130 O131 2.294 . S
In130 O132 2.326 . S
In130 O136 2.266 . S
In130 O137 2.326 . S
In130 O138 2.266 . S
In130 O139 2.326 . S
In130 O141 2.294 . S
In130 O142 2.326 . S
O131 In130 2.294 . S
O131 C140 1.240 . S
O132 In130 2.326 . S
O132 C140 1.252 . S
C133 O136 1.252 . S
C133 O137 1.260 . S
C134 O141 1.240 . S
C134 O142 1.252 . S
C135 O138 1.252 . S
C135 O139 1.260 . S
O136 In130 2.266 . S
O136 C133 1.252 . S
O137 In130 2.326 . S
O137 C133 1.260 . S
O138 In130 2.266 . S
O138 C135 1.252 . S
O139 In130 2.326 . S
O139 C135 1.260 . S
C140 O131 1.240 . S
C140 O132 1.252 . S
O141 In130 2.294 . S
O141 C134 1.240 . S
O142 In130 2.326 . S
O142 C134 1.252 . S
In143 O144 2.294 . S
In143 O145 2.326 . S
In143 O149 2.266 . S
In143 O150 2.326 . S
In143 O151 2.266 . S
In143 O152 2.326 . S
In143 O154 2.294 . S
In143 O155 2.326 . S
O144 In143 2.294 . S
O144 C153 1.240 . S
O145 In143 2.326 . S
O145 C153 1.252 . S
C146 O149 1.252 . S
C146 O150 1.260 . S
C147 O154 1.240 . S
C147 O155 1.252 . S
C148 O151 1.252 . S
C148 O152 1.260 . S
O149 In143 2.266 . S
O149 C146 1.252 . S
O150 In143 2.326 . S
O150 C146 1.260 . S
O151 In143 2.266 . S
O151 C148 1.252 . S
O152 In143 2.326 . S
O152 C148 1.260 . S
C153 O144 1.240 . S
C153 O145 1.252 . S
O154 In143 2.294 . S
O154 C147 1.240 . S
O155 In143 2.326 . S
O155 C147 1.252 . S
In156 O157 2.294 . S
In156 O158 2.326 . S
In156 O162 2.266 . S
In156 O163 2.326 . S
In156 O164 2.266 . S
In156 O165 2.326 . S
In156 O167 2.294 . S
In156 O168 2.326 . S
O157 In156 2.294 . S
O157 C166 1.240 . S
O158 In156 2.326 . S
O158 C166 1.252 . S
C159 O162 1.252 . S
C159 O163 1.260 . S
C160 O167 1.240 . S
C160 O168 1.252 . S
C161 O164 1.252 . S
C161 O165 1.260 . S
O162 In156 2.266 . S
O162 C159 1.252 . S
O163 In156 2.326 . S
O163 C159 1.260 . S
O164 In156 2.266 . S
O164 C161 1.252 . S
O165 In156 2.326 . S
O165 C161 1.260 . S
C166 O157 1.240 . S
C166 O158 1.252 . S
O167 In156 2.294 . S
O167 C160 1.240 . S
O168 In156 2.326 . S
O168 C160 1.252 . S
In169 O170 2.294 . S
In169 O171 2.326 . S
In169 O175 2.266 . S
In169 O176 2.326 . S
In169 O177 2.266 . S
In169 O178 2.326 . S
In169 O180 2.294 . S
In169 O181 2.326 . S
O170 In169 2.294 . S
O170 C179 1.240 . S
O171 In169 2.326 . S
O171 C179 1.252 . S
C172 O175 1.252 . S
C172 O176 1.260 . S
C173 O180 1.240 . S
C173 O181 1.252 . S
C174 O177 1.252 . S
C174 O178 1.260 . S
O175 In169 2.266 . S
O175 C172 1.252 . S
O176 In169 2.326 . S
O176 C172 1.260 . S
O177 In169 2.266 . S
O177 C174 1.252 . S
O178 In169 2.326 . S
O178 C174 1.260 . S
C179 O170 1.240 . S
C179 O171 1.252 . S
O180 In169 2.294 . S
O180 C173 1.240 . S
O181 In169 2.326 . S
O181 C173 1.252 . S
In182 O183 2.294 . S
In182 O184 2.326 . S
In182 O188 2.266 . S
In182 O189 2.326 . S
In182 O190 2.266 . S
In182 O191 2.326 . S
In182 O193 2.294 . S
In182 O194 2.326 . S
O183 In182 2.294 . S
O183 C192 1.240 . S
O184 In182 2.326 . S
O184 C192 1.252 . S
C185 O188 1.252 . S
C185 O189 1.260 . S
C186 O193 1.240 . S
C186 O194 1.252 . S
C187 O190 1.252 . S
C187 O191 1.260 . S
O188 In182 2.266 . S
O188 C185 1.252 . S
O189 In182 2.326 . S
O189 C185 1.260 . S
O190 In182 2.266 . S
O190 C187 1.252 . S
O191 In182 2.326 . S
O191 C187 1.260 . S
C192 O183 1.240 . S
C192 O184 1.252 . S
O193 In182 2.294 . S
O193 C186 1.240 . S
O194 In182 2.326 . S
O194 C186 1.252 . S
In195 O196 2.294 . S
In195 O197 2.326 . S
In195 O201 2.266 . S
In195 O202 2.326 . S
In195 O203 2.266 . S
In195 O204 2.326 . S
In195 O206 2.294 . S
In195 O207 2.326 . S
O196 In195 2.294 . S
O196 C205 1.240 . S
O197 In195 2.326 . S
O197 C205 1.252 . S
C198 O201 1.252 . S
C198 O202 1.260 . S
C199 O206 1.240 . S
C199 O207 1.252 . S
C200 O203 1.252 . S
C200 O204 1.260 . S
O201 In195 2.266 . S
O201 C198 1.252 . S
O202 In195 2.326 . S
O202 C198 1.260 . S
O203 In195 2.266 . S
O203 C200 1.252 . S
O204 In195 2.326 . S
O204 C200 1.260 . S
C205 O196 1.240 . S
C205 O197 1.252 . S
O206 In195 2.294 . S
O206 C199 1.240 . S
O207 In195 2.326 . S
O207 C199 1.252 . S
In208 O209 2.294 . S
In208 O210 2.326 . S
In208 O214 2.266 . S
In208 O215 2.326 . S
In208 O216 2.266 . S
In208 O217 2.326 . S
In208 O219 2.294 . S
In208 O220 2.326 . S
O209 In208 2.294 . S
O209 C218 1.240 . S
O210 In208 2.326 . S
O210 C218 1.252 . S
C211 O214 1.252 . S
C211 O215 1.260 . S
C212 O219 1.240 . S
C212 O220 1.252 . S
C213 O216 1.252 . S
C213 O217 1.260 . S
O214 In208 2.266 . S
O214 C211 1.252 . S
O215 In208 2.326 . S
O215 C211 1.260 . S
O216 In208 2.266 . S
O216 C213 1.252 . S
O217 In208 2.326 . S
O217 C213 1.260 . S
C218 O209 1.240 . S
C218 O210 1.252 . S
O219 In208 2.294 . S
O219 C212 1.240 . S
O220 In208 2.326 . S
O220 C212 1.252 . S
In221 O222 2.294 . S
In221 O223 2.326 . S
In221 O227 2.266 . S
In221 O228 2.326 . S
In221 O229 2.266 . S
In221 O230 2.326 . S
In221 O232 2.294 . S
In221 O233 2.326 . S
O222 In221 2.294 . S
O222 C231 1.240 . S
O223 In221 2.326 . S
O223 C231 1.252 . S
C224 O227 1.252 . S
C224 O228 1.260 . S
C225 O232 1.240 . S
C225 O233 1.252 . S
C226 O229 1.252 . S
C226 O230 1.260 . S
O227 In221 2.266 . S
O227 C224 1.252 . S
O228 In221 2.326 . S
O228 C224 1.260 . S
O229 In221 2.266 . S
O229 C226 1.252 . S
O230 In221 2.326 . S
O230 C226 1.260 . S
C231 O222 1.240 . S
C231 O223 1.252 . S
O232 In221 2.294 . S
O232 C225 1.240 . S
O233 In221 2.326 . S
O233 C225 1.252 . S
In234 O235 2.294 . S
In234 O236 2.326 . S
In234 O240 2.266 . S
In234 O241 2.326 . S
In234 O242 2.266 . S
In234 O243 2.326 . S
In234 O245 2.294 . S
In234 O246 2.326 . S
O235 In234 2.294 . S
O235 C244 1.240 . S
O236 In234 2.326 . S
O236 C244 1.252 . S
C237 O240 1.252 . S
C237 O241 1.260 . S
C238 O245 1.240 . S
C238 O246 1.252 . S
C239 O242 1.252 . S
C239 O243 1.260 . S
O240 In234 2.266 . S
O240 C237 1.252 . S
O241 In234 2.326 . S
O241 C237 1.260 . S
O242 In234 2.266 . S
O242 C239 1.252 . S
O243 In234 2.326 . S
O243 C239 1.260 . S
C244 O235 1.240 . S
C244 O236 1.252 . S
O245 In234 2.294 . S
O245 C238 1.240 . S
O246 In234 2.326 . S
O246 C238 1.252 . S
In247 O248 2.294 . S
In247 O249 2.326 . S
In247 O253 2.266 . S
In247 O254 2.326 . S
In247 O255 2.266 . S
In247 O256 2.326 . S
In247 O258 2.294 . S
In247 O259 2.326 . S
O248 In247 2.294 . S
O248 C257 1.240 . S
O249 In247 2.326 . S
O249 C257 1.252 . S
C250 O253 1.252 . S
C250 O254 1.260 . S
C251 O258 1.240 . S
C251 O259 1.252 . S
C252 O255 1.252 . S
C252 O256 1.260 . S
O253 In247 2.266 . S
O253 C250 1.252 . S
O254 In247 2.326 . S
O254 C250 1.260 . S
O255 In247 2.266 . S
O255 C252 1.252 . S
O256 In247 2.326 . S
O256 C252 1.260 . S
C257 O248 1.240 . S
C257 O249 1.252 . S
O258 In247 2.294 . S
O258 C251 1.240 . S
O259 In247 2.326 . S
O259 C251 1.252 . S
In260 O261 2.294 . S
In260 O262 2.326 . S
In260 O266 2.266 . S
In260 O267 2.326 . S
In260 O268 2.266 . S
In260 O269 2.326 . S
In260 O271 2.294 . S
In260 O272 2.326 . S
O261 In260 2.294 . S
O261 C270 1.240 . S
O262 In260 2.326 . S
O262 C270 1.252 . S
C263 O266 1.252 . S
C263 O267 1.260 . S
C264 O271 1.240 . S
C264 O272 1.252 . S
C265 O268 1.252 . S
C265 O269 1.260 . S
O266 In260 2.266 . S
O266 C263 1.252 . S
O267 In260 2.326 . S
O267 C263 1.260 . S
O268 In260 2.266 . S
O268 C265 1.252 . S
O269 In260 2.326 . S
O269 C265 1.260 . S
C270 O261 1.240 . S
C270 O262 1.252 . S
O271 In260 2.294 . S
O271 C264 1.240 . S
O272 In260 2.326 . S
O272 C264 1.252 . S
In273 O274 2.294 . S
In273 O275 2.326 . S
In273 O279 2.266 . S
In273 O280 2.326 . S
In273 O281 2.266 . S
In273 O282 2.326 . S
In273 O284 2.294 . S
In273 O285 2.326 . S
O274 In273 2.294 . S
O274 C283 1.240 . S
O275 In273 2.326 . S
O275 C283 1.252 . S
C276 O279 1.252 . S
C276 O280 1.260 . S
C277 O284 1.240 . S
C277 O285 1.252 . S
C278 O281 1.252 . S
C278 O282 1.260 . S
O279 In273 2.266 . S
O279 C276 1.252 . S
O280 In273 2.326 . S
O280 C276 1.260 . S
O281 In273 2.266 . S
O281 C278 1.252 . S
O282 In273 2.326 . S
O282 C278 1.260 . S
C283 O274 1.240 . S
C283 O275 1.252 . S
O284 In273 2.294 . S
O284 C277 1.240 . S
O285 In273 2.326 . S
O285 C277 1.252 . S
In286 O287 2.294 . S
In286 O288 2.326 . S
In286 O292 2.266 . S
In286 O293 2.326 . S
In286 O294 2.266 . S
In286 O295 2.326 . S
In286 O297 2.294 . S
In286 O298 2.326 . S
O287 In286 2.294 . S
O287 C296 1.240 . S
O288 In286 2.326 . S
O288 C296 1.252 . S
C289 O292 1.252 . S
C289 O293 1.260 . S
C290 O297 1.240 . S
C290 O298 1.252 . S
C291 O294 1.252 . S
C291 O295 1.260 . S
O292 In286 2.266 . S
O292 C289 1.252 . S
O293 In286 2.326 . S
O293 C289 1.260 . S
O294 In286 2.266 . S
O294 C291 1.252 . S
O295 In286 2.326 . S
O295 C291 1.260 . S
C296 O287 1.240 . S
C296 O288 1.252 . S
O297 In286 2.294 . S
O297 C290 1.240 . S
O298 In286 2.326 . S
O298 C290 1.252 . S
In299 O300 2.294 . S
In299 O301 2.326 . S
In299 O305 2.266 . S
In299 O306 2.326 . S
In299 O307 2.266 . S
In299 O308 2.326 . S
In299 O310 2.294 . S
In299 O311 2.326 . S
O300 In299 2.294 . S
O300 C309 1.240 . S
O301 In299 2.326 . S
O301 C309 1.252 . S
C302 O305 1.252 . S
C302 O306 1.260 . S
C303 O310 1.240 . S
C303 O311 1.252 . S
C304 O307 1.252 . S
C304 O308 1.260 . S
O305 In299 2.266 . S
O305 C302 1.252 . S
O306 In299 2.326 . S
O306 C302 1.260 . S
O307 In299 2.266 . S
O307 C304 1.252 . S
O308 In299 2.326 . S
O308 C304 1.260 . S
C309 O300 1.240 . S
C309 O301 1.252 . S
O310 In299 2.294 . S
O310 C303 1.240 . S
O311 In299 2.326 . S
O311 C303 1.252 . S
In312 O313 2.294 . S
In312 O314 2.326 . S
In312 O318 2.266 . S
In312 O319 2.326 . S
In312 O320 2.266 . S
In312 O321 2.326 . S
In312 O323 2.294 . S
In312 O324 2.326 . S
O313 In312 2.294 . S
O313 C322 1.240 . S
O314 In312 2.326 . S
O314 C322 1.252 . S
C315 O318 1.252 . S
C315 O319 1.260 . S
C316 O323 1.240 . S
C316 O324 1.252 . S
C317 O320 1.252 . S
C317 O321 1.260 . S
O318 In312 2.266 . S
O318 C315 1.252 . S
O319 In312 2.326 . S
O319 C315 1.260 . S
O320 In312 2.266 . S
O320 C317 1.252 . S
O321 In312 2.326 . S
O321 C317 1.260 . S
C322 O313 1.240 . S
C322 O314 1.252 . S
O323 In312 2.294 . S
O323 C316 1.240 . S
O324 In312 2.326 . S
O324 C316 1.252 . S
In325 O326 2.294 . S
In325 O327 2.326 . S
In325 O331 2.266 . S
In325 O332 2.326 . S
In325 O333 2.266 . S
In325 O334 2.326 . S
In325 O336 2.294 . S
In325 O337 2.326 . S
O326 In325 2.294 . S
O326 C335 1.240 . S
O327 In325 2.326 . S
O327 C335 1.252 . S
C328 O331 1.252 . S
C328 O332 1.260 . S
C329 O336 1.240 . S
C329 O337 1.252 . S
C330 O333 1.252 . S
C330 O334 1.260 . S
O331 In325 2.266 . S
O331 C328 1.252 . S
O332 In325 2.326 . S
O332 C328 1.260 . S
O333 In325 2.266 . S
O333 C330 1.252 . S
O334 In325 2.326 . S
O334 C330 1.260 . S
C335 O326 1.240 . S
C335 O327 1.252 . S
O336 In325 2.294 . S
O336 C329 1.240 . S
O337 In325 2.326 . S
O337 C329 1.252 . S
In338 O339 2.294 . S
In338 O340 2.326 . S
In338 O344 2.266 . S
In338 O345 2.326 . S
In338 O346 2.266 . S
In338 O347 2.326 . S
In338 O349 2.294 . S
In338 O350 2.326 . S
O339 In338 2.294 . S
O339 C348 1.240 . S
O340 In338 2.326 . S
O340 C348 1.252 . S
C341 O344 1.252 . S
C341 O345 1.260 . S
C342 O349 1.240 . S
C342 O350 1.252 . S
C343 O346 1.252 . S
C343 O347 1.260 . S
O344 In338 2.266 . S
O344 C341 1.252 . S
O345 In338 2.326 . S
O345 C341 1.260 . S
O346 In338 2.266 . S
O346 C343 1.252 . S
O347 In338 2.326 . S
O347 C343 1.260 . S
C348 O339 1.240 . S
C348 O340 1.252 . S
O349 In338 2.294 . S
O349 C342 1.240 . S
O350 In338 2.326 . S
O350 C342 1.252 . S
In351 O352 2.294 . S
In351 O353 2.326 . S
In351 O357 2.266 . S
In351 O358 2.326 . S
In351 O359 2.266 . S
In351 O360 2.326 . S
In351 O362 2.294 . S
In351 O363 2.326 . S
O352 In351 2.294 . S
O352 C361 1.240 . S
O353 In351 2.326 . S
O353 C361 1.252 . S
C354 O357 1.252 . S
C354 O358 1.260 . S
C355 O362 1.240 . S
C355 O363 1.252 . S
C356 O359 1.252 . S
C356 O360 1.260 . S
O357 In351 2.266 . S
O357 C354 1.252 . S
O358 In351 2.326 . S
O358 C354 1.260 . S
O359 In351 2.266 . S
O359 C356 1.252 . S
O360 In351 2.326 . S
O360 C356 1.260 . S
C361 O352 1.240 . S
C361 O353 1.252 . S
O362 In351 2.294 . S
O362 C355 1.240 . S
O363 In351 2.326 . S
O363 C355 1.252 . S
In364 O365 2.294 . S
In364 O366 2.326 . S
In364 O370 2.266 . S
In364 O371 2.326 . S
In364 O372 2.266 . S
In364 O373 2.326 . S
In364 O375 2.294 . S
In364 O376 2.326 . S
O365 In364 2.294 . S
O365 C374 1.240 . S
O366 In364 2.326 . S
O366 C374 1.252 . S
C367 O370 1.252 . S
C367 O371 1.260 . S
C368 O375 1.240 . S
C368 O376 1.252 . S
C369 O372 1.252 . S
C369 O373 1.260 . S
O370 In364 2.266 . S
O370 C367 1.252 . S
O371 In364 2.326 . S
O371 C367 1.260 . S
O372 In364 2.266 . S
O372 C369 1.252 . S
O373 In364 2.326 . S
O373 C369 1.260 . S
C374 O365 1.240 . S
C374 O366 1.252 . S
O375 In364 2.294 . S
O375 C368 1.240 . S
O376 In364 2.326 . S
O376 C368 1.252 . S
In377 O378 2.294 . S
In377 O379 2.326 . S
In377 O383 2.266 . S
In377 O384 2.326 . S
In377 O385 2.266 . S
In377 O386 2.326 . S
In377 O388 2.294 . S
In377 O389 2.326 . S
O378 In377 2.294 . S
O378 C387 1.240 . S
O379 In377 2.326 . S
O379 C387 1.252 . S
C380 O383 1.252 . S
C380 O384 1.260 . S
C381 O388 1.240 . S
C381 O389 1.252 . S
C382 O385 1.252 . S
C382 O386 1.260 . S
O383 In377 2.266 . S
O383 C380 1.252 . S
O384 In377 2.326 . S
O384 C380 1.260 . S
O385 In377 2.266 . S
O385 C382 1.252 . S
O386 In377 2.326 . S
O386 C382 1.260 . S
C387 O378 1.240 . S
C387 O379 1.252 . S
O388 In377 2.294 . S
O388 C381 1.240 . S
O389 In377 2.326 . S
O389 C381 1.252 . S
In390 O391 2.294 . S
In390 O392 2.326 . S
In390 O396 2.266 . S
In390 O397 2.326 . S
In390 O398 2.266 . S
In390 O399 2.326 . S
In390 O401 2.294 . S
In390 O402 2.326 . S
O391 In390 2.294 . S
O391 C400 1.240 . S
O392 In390 2.326 . S
O392 C400 1.252 . S
C393 O396 1.252 . S
C393 O397 1.260 . S
C394 O401 1.240 . S
C394 O402 1.252 . S
C395 O398 1.252 . S
C395 O399 1.260 . S
O396 In390 2.266 . S
O396 C393 1.252 . S
O397 In390 2.326 . S
O397 C393 1.260 . S
O398 In390 2.266 . S
O398 C395 1.252 . S
O399 In390 2.326 . S
O399 C395 1.260 . S
C400 O391 1.240 . S
C400 O392 1.252 . S
O401 In390 2.294 . S
O401 C394 1.240 . S
O402 In390 2.326 . S
O402 C394 1.252 . S
In403 O404 2.294 . S
In403 O405 2.326 . S
In403 O409 2.266 . S
In403 O410 2.326 . S
In403 O411 2.266 . S
In403 O412 2.326 . S
In403 O414 2.294 . S
In403 O415 2.326 . S
O404 In403 2.294 . S
O404 C413 1.240 . S
O405 In403 2.326 . S
O405 C413 1.252 . S
C406 O409 1.252 . S
C406 O410 1.260 . S
C407 O414 1.240 . S
C407 O415 1.252 . S
C408 O411 1.252 . S
C408 O412 1.260 . S
O409 In403 2.266 . S
O409 C406 1.252 . S
O410 In403 2.326 . S
O410 C406 1.260 . S
O411 In403 2.266 . S
O411 C408 1.252 . S
O412 In403 2.326 . S
O412 C408 1.260 . S
C413 O404 1.240 . S
C413 O405 1.252 . S
O414 In403 2.294 . S
O414 C407 1.240 . S
O415 In403 2.326 . S
O415 C407 1.252 . S
H416 C434 0.951 . S
H417 C436 0.951 . S
H418 C438 0.950 . S
H419 C439 0.950 . S
H420 C441 0.950 . S
H421 C444 0.950 . S
H422 C445 0.950 . S
H423 C447 0.950 . S
H424 C448 0.950 . S
H425 C449 0.951 . S
H426 C451 0.951 . S
H427 C453 0.950 . S
H428 C454 0.950 . S
H429 C456 0.950 . S
H430 C459 0.950 . S
H431 C460 0.950 . S
H432 C462 0.950 . S
H433 C463 0.950 . S
C434 H416 0.951 . S
C434 C435 1.366 . S
C434 C436 1.388 . S
C435 C434 1.366 . S
C435 C439 1.385 . S
C436 H417 0.951 . S
C436 C434 1.388 . S
C436 C437 1.366 . S
C437 C436 1.366 . S
C437 C438 1.414 . S
C437 C440 1.499 . S
C438 H418 0.950 . S
C438 C437 1.414 . S
C438 C439 1.374 . S
C439 H419 0.950 . S
C439 C435 1.385 . S
C439 C438 1.374 . S
C440 C437 1.499 . S
C440 C441 1.373 . S
C440 C442 1.389 . S
C441 H420 0.950 . S
C441 C440 1.373 . S
C441 C457 1.377 . S
C442 C440 1.389 . S
C442 C443 1.524 . S
C442 C456 1.377 . S
C443 C442 1.524 . S
C443 C444 1.397 . S
C443 C448 1.363 . S
C444 H421 0.950 . S
C444 C443 1.397 . S
C444 C445 1.334 . S
C445 H422 0.950 . S
C445 C444 1.334 . S
C445 C446 1.287 . S
C446 C445 1.287 . S
C446 C447 1.524 . S
C446 H465 0.913 . S
C447 H423 0.950 . S
C447 C446 1.524 . S
C447 C448 1.415 . S
C448 H424 0.950 . S
C448 C443 1.363 . S
C448 C447 1.415 . S
C449 H425 0.951 . S
C449 C450 1.366 . S
C449 C451 1.388 . S
C450 C449 1.366 . S
C450 C454 1.385 . S
C451 H426 0.951 . S
C451 C449 1.388 . S
C451 C452 1.366 . S
C452 C451 1.366 . S
C452 C453 1.414 . S
C452 C455 1.499 . S
C453 H427 0.950 . S
C453 C452 1.414 . S
C453 C454 1.374 . S
C454 H428 0.950 . S
C454 C450 1.385 . S
C454 C453 1.374 . S
C455 C452 1.499 . S
C455 C456 1.373 . S
C455 C457 1.389 . S
C456 H429 0.950 . S
C456 C442 1.377 . S
C456 C455 1.373 . S
C457 C441 1.377 . S
C457 C455 1.389 . S
C457 C458 1.524 . S
C458 C457 1.524 . S
C458 C459 1.397 . S
C458 C463 1.363 . S
C459 H430 0.950 . S
C459 C458 1.397 . S
C459 C460 1.334 . S
C460 H431 0.950 . S
C460 C459 1.334 . S
C460 C461 1.287 . S
C461 C460 1.287 . S
C461 C462 1.524 . S
C461 H464 0.999 . S
C462 H432 0.950 . S
C462 C461 1.524 . S
C462 C463 1.415 . S
C463 H433 0.950 . S
C463 C458 1.363 . S
C463 C462 1.415 . S
H464 C461 0.999 . S
H465 C446 0.913 . S
H466 C484 0.951 . S
H467 C486 0.951 . S
H468 C488 0.950 . S
H469 C489 0.950 . S
H470 C491 0.950 . S
H471 C494 0.950 . S
H472 C495 0.950 . S
H473 C497 0.950 . S
H474 C498 0.950 . S
H475 C499 0.951 . S
H476 C501 0.951 . S
H477 C503 0.950 . S
H478 C504 0.950 . S
H479 C506 0.950 . S
H480 C509 0.950 . S
H481 C510 0.950 . S
H482 C512 0.950 . S
H483 C513 0.950 . S
C484 H466 0.951 . S
C484 C485 1.366 . S
C484 C486 1.388 . S
C485 C484 1.366 . S
C485 C489 1.385 . S
C486 H467 0.951 . S
C486 C484 1.388 . S
C486 C487 1.366 . S
C487 C486 1.366 . S
C487 C488 1.414 . S
C487 C490 1.499 . S
C488 H468 0.950 . S
C488 C487 1.414 . S
C488 C489 1.374 . S
C489 H469 0.950 . S
C489 C485 1.385 . S
C489 C488 1.374 . S
C490 C487 1.499 . S
C490 C491 1.373 . S
C490 C492 1.389 . S
C491 H470 0.950 . S
C491 C490 1.373 . S
C491 C507 1.377 . S
C492 C490 1.389 . S
C492 C493 1.524 . S
C492 C506 1.377 . S
C493 C492 1.524 . S
C493 C494 1.397 . S
C493 C498 1.363 . S
C494 H471 0.950 . S
C494 C493 1.397 . S
C494 C495 1.334 . S
C495 H472 0.950 . S
C495 C494 1.334 . S
C495 C496 1.287 . S
C496 C495 1.287 . S
C496 C497 1.524 . S
C496 H515 0.913 . S
C497 H473 0.950 . S
C497 C496 1.524 . S
C497 C498 1.415 . S
C498 H474 0.950 . S
C498 C493 1.363 . S
C498 C497 1.415 . S
C499 H475 0.951 . S
C499 C500 1.366 . S
C499 C501 1.388 . S
C500 C499 1.366 . S
C500 C504 1.385 . S
C501 H476 0.951 . S
C501 C499 1.388 . S
C501 C502 1.366 . S
C502 C501 1.366 . S
C502 C503 1.414 . S
C502 C505 1.499 . S
C503 H477 0.950 . S
C503 C502 1.414 . S
C503 C504 1.374 . S
C504 H478 0.950 . S
C504 C500 1.385 . S
C504 C503 1.374 . S
C505 C502 1.499 . S
C505 C506 1.373 . S
C505 C507 1.389 . S
C506 H479 0.950 . S
C506 C492 1.377 . S
C506 C505 1.373 . S
C507 C491 1.377 . S
C507 C505 1.389 . S
C507 C508 1.524 . S
C508 C507 1.524 . S
C508 C509 1.397 . S
C508 C513 1.363 . S
C509 H480 0.950 . S
C509 C508 1.397 . S
C509 C510 1.334 . S
C510 H481 0.950 . S
C510 C509 1.334 . S
C510 C511 1.287 . S
C511 C510 1.287 . S
C511 C512 1.524 . S
C511 H514 0.999 . S
C512 H482 0.950 . S
C512 C511 1.524 . S
C512 C513 1.415 . S
C513 H483 0.950 . S
C513 C508 1.363 . S
C513 C512 1.415 . S
H514 C511 0.999 . S
H515 C496 0.913 . S
H516 C534 0.951 . S
H517 C536 0.951 . S
H518 C538 0.950 . S
H519 C539 0.950 . S
H520 C541 0.950 . S
H521 C544 0.950 . S
H522 C545 0.950 . S
H523 C547 0.950 . S
H524 C548 0.950 . S
H525 C549 0.951 . S
H526 C551 0.951 . S
H527 C553 0.950 . S
H528 C554 0.950 . S
H529 C556 0.950 . S
H530 C559 0.950 . S
H531 C560 0.950 . S
H532 C562 0.950 . S
H533 C563 0.950 . S
C534 H516 0.951 . S
C534 C535 1.366 . S
C534 C536 1.388 . S
C535 C534 1.366 . S
C535 C539 1.385 . S
C536 H517 0.951 . S
C536 C534 1.388 . S
C536 C537 1.366 . S
C537 C536 1.366 . S
C537 C538 1.414 . S
C537 C540 1.499 . S
C538 H518 0.950 . S
C538 C537 1.414 . S
C538 C539 1.374 . S
C539 H519 0.950 . S
C539 C535 1.385 . S
C539 C538 1.374 . S
C540 C537 1.499 . S
C540 C541 1.373 . S
C540 C542 1.389 . S
C541 H520 0.950 . S
C541 C540 1.373 . S
C541 C557 1.377 . S
C542 C540 1.389 . S
C542 C543 1.524 . S
C542 C556 1.377 . S
C543 C542 1.524 . S
C543 C544 1.397 . S
C543 C548 1.363 . S
C544 H521 0.950 . S
C544 C543 1.397 . S
C544 C545 1.334 . S
C545 H522 0.950 . S
C545 C544 1.334 . S
C545 C546 1.287 . S
C546 C545 1.287 . S
C546 C547 1.524 . S
C546 H565 0.913 . S
C547 H523 0.950 . S
C547 C546 1.524 . S
C547 C548 1.415 . S
C548 H524 0.950 . S
C548 C543 1.363 . S
C548 C547 1.415 . S
C549 H525 0.951 . S
C549 C550 1.366 . S
C549 C551 1.388 . S
C550 C549 1.366 . S
C550 C554 1.385 . S
C551 H526 0.951 . S
C551 C549 1.388 . S
C551 C552 1.366 . S
C552 C551 1.366 . S
C552 C553 1.414 . S
C552 C555 1.499 . S
C553 H527 0.950 . S
C553 C552 1.414 . S
C553 C554 1.374 . S
C554 H528 0.950 . S
C554 C550 1.385 . S
C554 C553 1.374 . S
C555 C552 1.499 . S
C555 C556 1.373 . S
C555 C557 1.389 . S
C556 H529 0.950 . S
C556 C542 1.377 . S
C556 C555 1.373 . S
C557 C541 1.377 . S
C557 C555 1.389 . S
C557 C558 1.524 . S
C558 C557 1.524 . S
C558 C559 1.397 . S
C558 C563 1.363 . S
C559 H530 0.950 . S
C559 C558 1.397 . S
C559 C560 1.334 . S
C560 H531 0.950 . S
C560 C559 1.334 . S
C560 C561 1.287 . S
C561 C560 1.287 . S
C561 C562 1.524 . S
C561 H564 0.999 . S
C562 H532 0.950 . S
C562 C561 1.524 . S
C562 C563 1.415 . S
C563 H533 0.950 . S
C563 C558 1.363 . S
C563 C562 1.415 . S
H564 C561 0.999 . S
H565 C546 0.913 . S
H566 C584 0.951 . S
H567 C586 0.951 . S
H568 C588 0.950 . S
H569 C589 0.950 . S
H570 C591 0.950 . S
H571 C594 0.950 . S
H572 C595 0.950 . S
H573 C597 0.950 . S
H574 C598 0.950 . S
H575 C599 0.951 . S
H576 C601 0.951 . S
H577 C603 0.950 . S
H578 C604 0.950 . S
H579 C606 0.950 . S
H580 C609 0.950 . S
H581 C610 0.950 . S
H582 C612 0.950 . S
H583 C613 0.950 . S
C584 H566 0.951 . S
C584 C585 1.366 . S
C584 C586 1.388 . S
C585 C584 1.366 . S
C585 C589 1.385 . S
C586 H567 0.951 . S
C586 C584 1.388 . S
C586 C587 1.366 . S
C587 C586 1.366 . S
C587 C588 1.414 . S
C587 C590 1.499 . S
C588 H568 0.950 . S
C588 C587 1.414 . S
C588 C589 1.374 . S
C589 H569 0.950 . S
C589 C585 1.385 . S
C589 C588 1.374 . S
C590 C587 1.499 . S
C590 C591 1.373 . S
C590 C592 1.389 . S
C591 H570 0.950 . S
C591 C590 1.373 . S
C591 C607 1.377 . S
C592 C590 1.389 . S
C592 C593 1.524 . S
C592 C606 1.377 . S
C593 C592 1.524 . S
C593 C594 1.397 . S
C593 C598 1.363 . S
C594 H571 0.950 . S
C594 C593 1.397 . S
C594 C595 1.334 . S
C595 H572 0.950 . S
C595 C594 1.334 . S
C595 C596 1.287 . S
C596 C595 1.287 . S
C596 C597 1.524 . S
C596 H615 0.913 . S
C597 H573 0.950 . S
C597 C596 1.524 . S
C597 C598 1.415 . S
C598 H574 0.950 . S
C598 C593 1.363 . S
C598 C597 1.415 . S
C599 H575 0.951 . S
C599 C600 1.366 . S
C599 C601 1.388 . S
C600 C599 1.366 . S
C600 C604 1.385 . S
C601 H576 0.951 . S
C601 C599 1.388 . S
C601 C602 1.366 . S
C602 C601 1.366 . S
C602 C603 1.414 . S
C602 C605 1.499 . S
C603 H577 0.950 . S
C603 C602 1.414 . S
C603 C604 1.374 . S
C604 H578 0.950 . S
C604 C600 1.385 . S
C604 C603 1.374 . S
C605 C602 1.499 . S
C605 C606 1.373 . S
C605 C607 1.389 . S
C606 H579 0.950 . S
C606 C592 1.377 . S
C606 C605 1.373 . S
C607 C591 1.377 . S
C607 C605 1.389 . S
C607 C608 1.524 . S
C608 C607 1.524 . S
C608 C609 1.397 . S
C608 C613 1.363 . S
C609 H580 0.950 . S
C609 C608 1.397 . S
C609 C610 1.334 . S
C610 H581 0.950 . S
C610 C609 1.334 . S
C610 C611 1.287 . S
C611 C610 1.287 . S
C611 C612 1.524 . S
C611 H614 0.999 . S
C612 H582 0.950 . S
C612 C611 1.524 . S
C612 C613 1.415 . S
C613 H583 0.950 . S
C613 C608 1.363 . S
C613 C612 1.415 . S
H614 C611 0.999 . S
H615 C596 0.913 . S
H616 C634 0.951 . S
H617 C636 0.951 . S
H618 C638 0.950 . S
H619 C639 0.950 . S
H620 C641 0.950 . S
H621 C644 0.950 . S
H622 C645 0.950 . S
H623 C647 0.950 . S
H624 C648 0.950 . S
H625 C649 0.951 . S
H626 C651 0.951 . S
H627 C653 0.950 . S
H628 C654 0.950 . S
H629 C656 0.950 . S
H630 C659 0.950 . S
H631 C660 0.950 . S
H632 C662 0.950 . S
H633 C663 0.950 . S
C634 H616 0.951 . S
C634 C635 1.366 . S
C634 C636 1.388 . S
C635 C634 1.366 . S
C635 C639 1.385 . S
C636 H617 0.951 . S
C636 C634 1.388 . S
C636 C637 1.366 . S
C637 C636 1.366 . S
C637 C638 1.414 . S
C637 C640 1.499 . S
C638 H618 0.950 . S
C638 C637 1.414 . S
C638 C639 1.374 . S
C639 H619 0.950 . S
C639 C635 1.385 . S
C639 C638 1.374 . S
C640 C637 1.499 . S
C640 C641 1.373 . S
C640 C642 1.389 . S
C641 H620 0.950 . S
C641 C640 1.373 . S
C641 C657 1.377 . S
C642 C640 1.389 . S
C642 C643 1.524 . S
C642 C656 1.377 . S
C643 C642 1.524 . S
C643 C644 1.397 . S
C643 C648 1.363 . S
C644 H621 0.950 . S
C644 C643 1.397 . S
C644 C645 1.334 . S
C645 H622 0.950 . S
C645 C644 1.334 . S
C645 C646 1.287 . S
C646 C645 1.287 . S
C646 C647 1.524 . S
C646 H665 0.913 . S
C647 H623 0.950 . S
C647 C646 1.524 . S
C647 C648 1.415 . S
C648 H624 0.950 . S
C648 C643 1.363 . S
C648 C647 1.415 . S
C649 H625 0.951 . S
C649 C650 1.366 . S
C649 C651 1.388 . S
C650 C649 1.366 . S
C650 C654 1.385 . S
C651 H626 0.951 . S
C651 C649 1.388 . S
C651 C652 1.366 . S
C652 C651 1.366 . S
C652 C653 1.414 . S
C652 C655 1.499 . S
C653 H627 0.950 . S
C653 C652 1.414 . S
C653 C654 1.374 . S
C654 H628 0.950 . S
C654 C650 1.385 . S
C654 C653 1.374 . S
C655 C652 1.499 . S
C655 C656 1.373 . S
C655 C657 1.389 . S
C656 H629 0.950 . S
C656 C642 1.377 . S
C656 C655 1.373 . S
C657 C641 1.377 . S
C657 C655 1.389 . S
C657 C658 1.524 . S
C658 C657 1.524 . S
C658 C659 1.397 . S
C658 C663 1.363 . S
C659 H630 0.950 . S
C659 C658 1.397 . S
C659 C660 1.334 . S
C660 H631 0.950 . S
C660 C659 1.334 . S
C660 C661 1.287 . S
C661 C660 1.287 . S
C661 C662 1.524 . S
C661 H664 0.999 . S
C662 H632 0.950 . S
C662 C661 1.524 . S
C662 C663 1.415 . S
C663 H633 0.950 . S
C663 C658 1.363 . S
C663 C662 1.415 . S
H664 C661 0.999 . S
H665 C646 0.913 . S
H666 C684 0.951 . S
H667 C686 0.951 . S
H668 C688 0.950 . S
H669 C689 0.950 . S
H670 C691 0.950 . S
H671 C694 0.950 . S
H672 C695 0.950 . S
H673 C697 0.950 . S
H674 C698 0.950 . S
H675 C699 0.951 . S
H676 C701 0.951 . S
H677 C703 0.950 . S
H678 C704 0.950 . S
H679 C706 0.950 . S
H680 C709 0.950 . S
H681 C710 0.950 . S
H682 C712 0.950 . S
H683 C713 0.950 . S
C684 H666 0.951 . S
C684 C685 1.366 . S
C684 C686 1.388 . S
C685 C684 1.366 . S
C685 C689 1.385 . S
C686 H667 0.951 . S
C686 C684 1.388 . S
C686 C687 1.366 . S
C687 C686 1.366 . S
C687 C688 1.414 . S
C687 C690 1.499 . S
C688 H668 0.950 . S
C688 C687 1.414 . S
C688 C689 1.374 . S
C689 H669 0.950 . S
C689 C685 1.385 . S
C689 C688 1.374 . S
C690 C687 1.499 . S
C690 C691 1.373 . S
C690 C692 1.389 . S
C691 H670 0.950 . S
C691 C690 1.373 . S
C691 C707 1.377 . S
C692 C690 1.389 . S
C692 C693 1.524 . S
C692 C706 1.377 . S
C693 C692 1.524 . S
C693 C694 1.397 . S
C693 C698 1.363 . S
C694 H671 0.950 . S
C694 C693 1.397 . S
C694 C695 1.334 . S
C695 H672 0.950 . S
C695 C694 1.334 . S
C695 C696 1.287 . S
C696 C695 1.287 . S
C696 C697 1.524 . S
C696 H715 0.913 . S
C697 H673 0.950 . S
C697 C696 1.524 . S
C697 C698 1.415 . S
C698 H674 0.950 . S
C698 C693 1.363 . S
C698 C697 1.415 . S
C699 H675 0.951 . S
C699 C700 1.366 . S
C699 C701 1.388 . S
C700 C699 1.366 . S
C700 C704 1.385 . S
C701 H676 0.951 . S
C701 C699 1.388 . S
C701 C702 1.366 . S
C702 C701 1.366 . S
C702 C703 1.414 . S
C702 C705 1.499 . S
C703 H677 0.950 . S
C703 C702 1.414 . S
C703 C704 1.374 . S
C704 H678 0.950 . S
C704 C700 1.385 . S
C704 C703 1.374 . S
C705 C702 1.499 . S
C705 C706 1.373 . S
C705 C707 1.389 . S
C706 H679 0.950 . S
C706 C692 1.377 . S
C706 C705 1.373 . S
C707 C691 1.377 . S
C707 C705 1.389 . S
C707 C708 1.524 . S
C708 C707 1.524 . S
C708 C709 1.397 . S
C708 C713 1.363 . S
C709 H680 0.950 . S
C709 C708 1.397 . S
C709 C710 1.334 . S
C710 H681 0.950 . S
C710 C709 1.334 . S
C710 C711 1.287 . S
C711 C710 1.287 . S
C711 C712 1.524 . S
C711 H714 0.999 . S
C712 H682 0.950 . S
C712 C711 1.524 . S
C712 C713 1.415 . S
C713 H683 0.950 . S
C713 C708 1.363 . S
C713 C712 1.415 . S
H714 C711 0.999 . S
H715 C696 0.913 . S
H716 C734 0.951 . S
H717 C736 0.951 . S
H718 C738 0.950 . S
H719 C739 0.950 . S
H720 C741 0.950 . S
H721 C744 0.950 . S
H722 C745 0.950 . S
H723 C747 0.950 . S
H724 C748 0.950 . S
H725 C749 0.951 . S
H726 C751 0.951 . S
H727 C753 0.950 . S
H728 C754 0.950 . S
H729 C756 0.950 . S
H730 C759 0.950 . S
H731 C760 0.950 . S
H732 C762 0.950 . S
H733 C763 0.950 . S
C734 H716 0.951 . S
C734 C735 1.366 . S
C734 C736 1.388 . S
C735 C734 1.366 . S
C735 C739 1.385 . S
C736 H717 0.951 . S
C736 C734 1.388 . S
C736 C737 1.366 . S
C737 C736 1.366 . S
C737 C738 1.414 . S
C737 C740 1.499 . S
C738 H718 0.950 . S
C738 C737 1.414 . S
C738 C739 1.374 . S
C739 H719 0.950 . S
C739 C735 1.385 . S
C739 C738 1.374 . S
C740 C737 1.499 . S
C740 C741 1.373 . S
C740 C742 1.389 . S
C741 H720 0.950 . S
C741 C740 1.373 . S
C741 C757 1.377 . S
C742 C740 1.389 . S
C742 C743 1.524 . S
C742 C756 1.377 . S
C743 C742 1.524 . S
C743 C744 1.397 . S
C743 C748 1.363 . S
C744 H721 0.950 . S
C744 C743 1.397 . S
C744 C745 1.334 . S
C745 H722 0.950 . S
C745 C744 1.334 . S
C745 C746 1.287 . S
C746 C745 1.287 . S
C746 C747 1.524 . S
C746 H765 0.913 . S
C747 H723 0.950 . S
C747 C746 1.524 . S
C747 C748 1.415 . S
C748 H724 0.950 . S
C748 C743 1.363 . S
C748 C747 1.415 . S
C749 H725 0.951 . S
C749 C750 1.366 . S
C749 C751 1.388 . S
C750 C749 1.366 . S
C750 C754 1.385 . S
C751 H726 0.951 . S
C751 C749 1.388 . S
C751 C752 1.366 . S
C752 C751 1.366 . S
C752 C753 1.414 . S
C752 C755 1.499 . S
C753 H727 0.950 . S
C753 C752 1.414 . S
C753 C754 1.374 . S
C754 H728 0.950 . S
C754 C750 1.385 . S
C754 C753 1.374 . S
C755 C752 1.499 . S
C755 C756 1.373 . S
C755 C757 1.389 . S
C756 H729 0.950 . S
C756 C742 1.377 . S
C756 C755 1.373 . S
C757 C741 1.377 . S
C757 C755 1.389 . S
C757 C758 1.524 . S
C758 C757 1.524 . S
C758 C759 1.397 . S
C758 C763 1.363 . S
C759 H730 0.950 . S
C759 C758 1.397 . S
C759 C760 1.334 . S
C760 H731 0.950 . S
C760 C759 1.334 . S
C760 C761 1.287 . S
C761 C760 1.287 . S
C761 C762 1.524 . S
C761 H764 0.999 . S
C762 H732 0.950 . S
C762 C761 1.524 . S
C762 C763 1.415 . S
C763 H733 0.950 . S
C763 C758 1.363 . S
C763 C762 1.415 . S
H764 C761 0.999 . S
H765 C746 0.913 . S
H766 C784 0.951 . S
H767 C786 0.951 . S
H768 C788 0.950 . S
H769 C789 0.950 . S
H770 C791 0.950 . S
H771 C794 0.950 . S
H772 C795 0.950 . S
H773 C797 0.950 . S
H774 C798 0.950 . S
H775 C799 0.951 . S
H776 C801 0.951 . S
H777 C803 0.950 . S
H778 C804 0.950 . S
H779 C806 0.950 . S
H780 C809 0.950 . S
H781 C810 0.950 . S
H782 C812 0.950 . S
H783 C813 0.950 . S
C784 H766 0.951 . S
C784 C785 1.366 . S
C784 C786 1.388 . S
C785 C784 1.366 . S
C785 C789 1.385 . S
C786 H767 0.951 . S
C786 C784 1.388 . S
C786 C787 1.366 . S
C787 C786 1.366 . S
C787 C788 1.414 . S
C787 C790 1.499 . S
C788 H768 0.950 . S
C788 C787 1.414 . S
C788 C789 1.374 . S
C789 H769 0.950 . S
C789 C785 1.385 . S
C789 C788 1.374 . S
C790 C787 1.499 . S
C790 C791 1.373 . S
C790 C792 1.389 . S
C791 H770 0.950 . S
C791 C790 1.373 . S
C791 C807 1.377 . S
C792 C790 1.389 . S
C792 C793 1.524 . S
C792 C806 1.377 . S
C793 C792 1.524 . S
C793 C794 1.397 . S
C793 C798 1.363 . S
C794 H771 0.950 . S
C794 C793 1.397 . S
C794 C795 1.334 . S
C795 H772 0.950 . S
C795 C794 1.334 . S
C795 C796 1.287 . S
C796 C795 1.287 . S
C796 C797 1.524 . S
C796 H815 0.913 . S
C797 H773 0.950 . S
C797 C796 1.524 . S
C797 C798 1.415 . S
C798 H774 0.950 . S
C798 C793 1.363 . S
C798 C797 1.415 . S
C799 H775 0.951 . S
C799 C800 1.366 . S
C799 C801 1.388 . S
C800 C799 1.366 . S
C800 C804 1.385 . S
C801 H776 0.951 . S
C801 C799 1.388 . S
C801 C802 1.366 . S
C802 C801 1.366 . S
C802 C803 1.414 . S
C802 C805 1.499 . S
C803 H777 0.950 . S
C803 C802 1.414 . S
C803 C804 1.374 . S
C804 H778 0.950 . S
C804 C800 1.385 . S
C804 C803 1.374 . S
C805 C802 1.499 . S
C805 C806 1.373 . S
C805 C807 1.389 . S
C806 H779 0.950 . S
C806 C792 1.377 . S
C806 C805 1.373 . S
C807 C791 1.377 . S
C807 C805 1.389 . S
C807 C808 1.524 . S
C808 C807 1.524 . S
C808 C809 1.397 . S
C808 C813 1.363 . S
C809 H780 0.950 . S
C809 C808 1.397 . S
C809 C810 1.334 . S
C810 H781 0.950 . S
C810 C809 1.334 . S
C810 C811 1.287 . S
C811 C810 1.287 . S
C811 C812 1.524 . S
C811 H814 0.999 . S
C812 H782 0.950 . S
C812 C811 1.524 . S
C812 C813 1.415 . S
C813 H783 0.950 . S
C813 C808 1.363 . S
C813 C812 1.415 . S
H814 C811 0.999 . S
H815 C796 0.913 . S
H816 C834 0.951 . S
H817 C836 0.951 . S
H818 C838 0.950 . S
H819 C839 0.950 . S
H820 C841 0.950 . S
H821 C844 0.950 . S
H822 C845 0.950 . S
H823 C847 0.950 . S
H824 C848 0.950 . S
H825 C849 0.951 . S
H826 C851 0.951 . S
H827 C853 0.950 . S
H828 C854 0.950 . S
H829 C856 0.950 . S
H830 C859 0.950 . S
H831 C860 0.950 . S
H832 C862 0.950 . S
H833 C863 0.950 . S
C834 H816 0.951 . S
C834 C835 1.366 . S
C834 C836 1.388 . S
C835 C834 1.366 . S
C835 C839 1.385 . S
C836 H817 0.951 . S
C836 C834 1.388 . S
C836 C837 1.366 . S
C837 C836 1.366 . S
C837 C838 1.414 . S
C837 C840 1.499 . S
C838 H818 0.950 . S
C838 C837 1.414 . S
C838 C839 1.374 . S
C839 H819 0.950 . S
C839 C835 1.385 . S
C839 C838 1.374 . S
C840 C837 1.499 . S
C840 C841 1.373 . S
C840 C842 1.389 . S
C841 H820 0.950 . S
C841 C840 1.373 . S
C841 C857 1.377 . S
C842 C840 1.389 . S
C842 C843 1.524 . S
C842 C856 1.377 . S
C843 C842 1.524 . S
C843 C844 1.397 . S
C843 C848 1.363 . S
C844 H821 0.950 . S
C844 C843 1.397 . S
C844 C845 1.334 . S
C845 H822 0.950 . S
C845 C844 1.334 . S
C845 C846 1.287 . S
C846 C845 1.287 . S
C846 C847 1.524 . S
C846 H865 0.913 . S
C847 H823 0.950 . S
C847 C846 1.524 . S
C847 C848 1.415 . S
C848 H824 0.950 . S
C848 C843 1.363 . S
C848 C847 1.415 . S
C849 H825 0.951 . S
C849 C850 1.366 . S
C849 C851 1.388 . S
C850 C849 1.366 . S
C850 C854 1.385 . S
C851 H826 0.951 . S
C851 C849 1.388 . S
C851 C852 1.366 . S
C852 C851 1.366 . S
C852 C853 1.414 . S
C852 C855 1.499 . S
C853 H827 0.950 . S
C853 C852 1.414 . S
C853 C854 1.374 . S
C854 H828 0.950 . S
C854 C850 1.385 . S
C854 C853 1.374 . S
C855 C852 1.499 . S
C855 C856 1.373 . S
C855 C857 1.389 . S
C856 H829 0.950 . S
C856 C842 1.377 . S
C856 C855 1.373 . S
C857 C841 1.377 . S
C857 C855 1.389 . S
C857 C858 1.524 . S
C858 C857 1.524 . S
C858 C859 1.397 . S
C858 C863 1.363 . S
C859 H830 0.950 . S
C859 C858 1.397 . S
C859 C860 1.334 . S
C860 H831 0.950 . S
C860 C859 1.334 . S
C860 C861 1.287 . S
C861 C860 1.287 . S
C861 C862 1.524 . S
C861 H864 0.999 . S
C862 H832 0.950 . S
C862 C861 1.524 . S
C862 C863 1.415 . S
C863 H833 0.950 . S
C863 C858 1.363 . S
C863 C862 1.415 . S
H864 C861 0.999 . S
H865 C846 0.913 . S
H866 C884 0.951 . S
H867 C886 0.951 . S
H868 C888 0.950 . S
H869 C889 0.950 . S
H870 C891 0.950 . S
H871 C894 0.950 . S
H872 C895 0.950 . S
H873 C897 0.950 . S
H874 C898 0.950 . S
H875 C899 0.951 . S
H876 C901 0.951 . S
H877 C903 0.950 . S
H878 C904 0.950 . S
H879 C906 0.950 . S
H880 C909 0.950 . S
H881 C910 0.950 . S
H882 C912 0.950 . S
H883 C913 0.950 . S
C884 H866 0.951 . S
C884 C885 1.366 . S
C884 C886 1.388 . S
C885 C884 1.366 . S
C885 C889 1.385 . S
C886 H867 0.951 . S
C886 C884 1.388 . S
C886 C887 1.366 . S
C887 C886 1.366 . S
C887 C888 1.414 . S
C887 C890 1.499 . S
C888 H868 0.950 . S
C888 C887 1.414 . S
C888 C889 1.374 . S
C889 H869 0.950 . S
C889 C885 1.385 . S
C889 C888 1.374 . S
C890 C887 1.499 . S
C890 C891 1.373 . S
C890 C892 1.389 . S
C891 H870 0.950 . S
C891 C890 1.373 . S
C891 C907 1.377 . S
C892 C890 1.389 . S
C892 C893 1.524 . S
C892 C906 1.377 . S
C893 C892 1.524 . S
C893 C894 1.397 . S
C893 C898 1.363 . S
C894 H871 0.950 . S
C894 C893 1.397 . S
C894 C895 1.334 . S
C895 H872 0.950 . S
C895 C894 1.334 . S
C895 C896 1.287 . S
C896 C895 1.287 . S
C896 C897 1.524 . S
C896 H915 0.913 . S
C897 H873 0.950 . S
C897 C896 1.524 . S
C897 C898 1.415 . S
C898 H874 0.950 . S
C898 C893 1.363 . S
C898 C897 1.415 . S
C899 H875 0.951 . S
C899 C900 1.366 . S
C899 C901 1.388 . S
C900 C899 1.366 . S
C900 C904 1.385 . S
C901 H876 0.951 . S
C901 C899 1.388 . S
C901 C902 1.366 . S
C902 C901 1.366 . S
C902 C903 1.414 . S
C902 C905 1.499 . S
C903 H877 0.950 . S
C903 C902 1.414 . S
C903 C904 1.374 . S
C904 H878 0.950 . S
C904 C900 1.385 . S
C904 C903 1.374 . S
C905 C902 1.499 . S
C905 C906 1.373 . S
C905 C907 1.389 . S
C906 H879 0.950 . S
C906 C892 1.377 . S
C906 C905 1.373 . S
C907 C891 1.377 . S
C907 C905 1.389 . S
C907 C908 1.524 . S
C908 C907 1.524 . S
C908 C909 1.397 . S
C908 C913 1.363 . S
C909 H880 0.950 . S
C909 C908 1.397 . S
C909 C910 1.334 . S
C910 H881 0.950 . S
C910 C909 1.334 . S
C910 C911 1.287 . S
C911 C910 1.287 . S
C911 C912 1.524 . S
C911 H914 0.999 . S
C912 H882 0.950 . S
C912 C911 1.524 . S
C912 C913 1.415 . S
C913 H883 0.950 . S
C913 C908 1.363 . S
C913 C912 1.415 . S
H914 C911 0.999 . S
H915 C896 0.913 . S
H916 C934 0.951 . S
H917 C936 0.951 . S
H918 C938 0.950 . S
H919 C939 0.950 . S
H920 C941 0.950 . S
H921 C944 0.950 . S
H922 C945 0.950 . S
H923 C947 0.950 . S
H924 C948 0.950 . S
H925 C949 0.951 . S
H926 C951 0.951 . S
H927 C953 0.950 . S
H928 C954 0.950 . S
H929 C956 0.950 . S
H930 C959 0.950 . S
H931 C960 0.950 . S
H932 C962 0.950 . S
H933 C963 0.950 . S
C934 H916 0.951 . S
C934 C935 1.366 . S
C934 C936 1.388 . S
C935 C934 1.366 . S
C935 C939 1.385 . S
C936 H917 0.951 . S
C936 C934 1.388 . S
C936 C937 1.366 . S
C937 C936 1.366 . S
C937 C938 1.414 . S
C937 C940 1.499 . S
C938 H918 0.950 . S
C938 C937 1.414 . S
C938 C939 1.374 . S
C939 H919 0.950 . S
C939 C935 1.385 . S
C939 C938 1.374 . S
C940 C937 1.499 . S
C940 C941 1.373 . S
C940 C942 1.389 . S
C941 H920 0.950 . S
C941 C940 1.373 . S
C941 C957 1.377 . S
C942 C940 1.389 . S
C942 C943 1.524 . S
C942 C956 1.377 . S
C943 C942 1.524 . S
C943 C944 1.397 . S
C943 C948 1.363 . S
C944 H921 0.950 . S
C944 C943 1.397 . S
C944 C945 1.334 . S
C945 H922 0.950 . S
C945 C944 1.334 . S
C945 C946 1.287 . S
C946 C945 1.287 . S
C946 C947 1.524 . S
C946 H965 0.913 . S
C947 H923 0.950 . S
C947 C946 1.524 . S
C947 C948 1.415 . S
C948 H924 0.950 . S
C948 C943 1.363 . S
C948 C947 1.415 . S
C949 H925 0.951 . S
C949 C950 1.366 . S
C949 C951 1.388 . S
C950 C949 1.366 . S
C950 C954 1.385 . S
C951 H926 0.951 . S
C951 C949 1.388 . S
C951 C952 1.366 . S
C952 C951 1.366 . S
C952 C953 1.414 . S
C952 C955 1.499 . S
C953 H927 0.950 . S
C953 C952 1.414 . S
C953 C954 1.374 . S
C954 H928 0.950 . S
C954 C950 1.385 . S
C954 C953 1.374 . S
C955 C952 1.499 . S
C955 C956 1.373 . S
C955 C957 1.389 . S
C956 H929 0.950 . S
C956 C942 1.377 . S
C956 C955 1.373 . S
C957 C941 1.377 . S
C957 C955 1.389 . S
C957 C958 1.524 . S
C958 C957 1.524 . S
C958 C959 1.397 . S
C958 C963 1.363 . S
C959 H930 0.950 . S
C959 C958 1.397 . S
C959 C960 1.334 . S
C960 H931 0.950 . S
C960 C959 1.334 . S
C960 C961 1.287 . S
C961 C960 1.287 . S
C961 C962 1.524 . S
C961 H964 0.999 . S
C962 H932 0.950 . S
C962 C961 1.524 . S
C962 C963 1.415 . S
C963 H933 0.950 . S
C963 C958 1.363 . S
C963 C962 1.415 . S
H964 C961 0.999 . S
H965 C946 0.913 . S
H966 C984 0.951 . S
H967 C986 0.951 . S
H968 C988 0.950 . S
H969 C989 0.950 . S
H970 C991 0.950 . S
H971 C994 0.950 . S
H972 C995 0.950 . S
H973 C997 0.950 . S
H974 C998 0.950 . S
H975 C999 0.951 . S
H976 C1001 0.951 . S
H977 C1003 0.950 . S
H978 C1004 0.950 . S
H979 C1006 0.950 . S
H980 C1009 0.950 . S
H981 C1010 0.950 . S
H982 C1012 0.950 . S
H983 C1013 0.950 . S
C984 H966 0.951 . S
C984 C985 1.366 . S
C984 C986 1.388 . S
C985 C984 1.366 . S
C985 C989 1.385 . S
C986 H967 0.951 . S
C986 C984 1.388 . S
C986 C987 1.366 . S
C987 C986 1.366 . S
C987 C988 1.414 . S
C987 C990 1.499 . S
C988 H968 0.950 . S
C988 C987 1.414 . S
C988 C989 1.374 . S
C989 H969 0.950 . S
C989 C985 1.385 . S
C989 C988 1.374 . S
C990 C987 1.499 . S
C990 C991 1.373 . S
C990 C992 1.389 . S
C991 H970 0.950 . S
C991 C990 1.373 . S
C991 C1007 1.377 . S
C992 C990 1.389 . S
C992 C993 1.524 . S
C992 C1006 1.377 . S
C993 C992 1.524 . S
C993 C994 1.397 . S
C993 C998 1.363 . S
C994 H971 0.950 . S
C994 C993 1.397 . S
C994 C995 1.334 . S
C995 H972 0.950 . S
C995 C994 1.334 . S
C995 C996 1.287 . S
C996 C995 1.287 . S
C996 C997 1.524 . S
C996 H1015 0.913 . S
C997 H973 0.950 . S
C997 C996 1.524 . S
C997 C998 1.415 . S
C998 H974 0.950 . S
C998 C993 1.363 . S
C998 C997 1.415 . S
C999 H975 0.951 . S
C999 C1000 1.366 . S
C999 C1001 1.388 . S
C1000 C999 1.366 . S
C1000 C1004 1.385 . S
C1001 H976 0.951 . S
C1001 C999 1.388 . S
C1001 C1002 1.366 . S
C1002 C1001 1.366 . S
C1002 C1003 1.414 . S
C1002 C1005 1.499 . S
C1003 H977 0.950 . S
C1003 C1002 1.414 . S
C1003 C1004 1.374 . S
C1004 H978 0.950 . S
C1004 C1000 1.385 . S
C1004 C1003 1.374 . S
C1005 C1002 1.499 . S
C1005 C1006 1.373 . S
C1005 C1007 1.389 . S
C1006 H979 0.950 . S
C1006 C992 1.377 . S
C1006 C1005 1.373 . S
C1007 C991 1.377 . S
C1007 C1005 1.389 . S
C1007 C1008 1.524 . S
C1008 C1007 1.524 . S
C1008 C1009 1.397 . S
C1008 C1013 1.363 . S
C1009 H980 0.950 . S
C1009 C1008 1.397 . S
C1009 C1010 1.334 . S
C1010 H981 0.950 . S
C1010 C1009 1.334 . S
C1010 C1011 1.287 . S
C1011 C1010 1.287 . S
C1011 C1012 1.524 . S
C1011 H1014 0.999 . S
C1012 H982 0.950 . S
C1012 C1011 1.524 . S
C1012 C1013 1.415 . S
C1013 H983 0.950 . S
C1013 C1008 1.363 . S
C1013 C1012 1.415 . S
H1014 C1011 0.999 . S
H1015 C996 0.913 . S
H1016 C1034 0.951 . S
H1017 C1036 0.951 . S
H1018 C1038 0.950 . S
H1019 C1039 0.950 . S
H1020 C1041 0.950 . S
H1021 C1044 0.950 . S
H1022 C1045 0.950 . S
H1023 C1047 0.950 . S
H1024 C1048 0.950 . S
H1025 C1049 0.951 . S
H1026 C1051 0.951 . S
H1027 C1053 0.950 . S
H1028 C1054 0.950 . S
H1029 C1056 0.950 . S
H1030 C1059 0.950 . S
H1031 C1060 0.950 . S
H1032 C1062 0.950 . S
H1033 C1063 0.950 . S
C1034 H1016 0.951 . S
C1034 C1035 1.366 . S
C1034 C1036 1.388 . S
C1035 C1034 1.366 . S
C1035 C1039 1.385 . S
C1036 H1017 0.951 . S
C1036 C1034 1.388 . S
C1036 C1037 1.366 . S
C1037 C1036 1.366 . S
C1037 C1038 1.414 . S
C1037 C1040 1.499 . S
C1038 H1018 0.950 . S
C1038 C1037 1.414 . S
C1038 C1039 1.374 . S
C1039 H1019 0.950 . S
C1039 C1035 1.385 . S
C1039 C1038 1.374 . S
C1040 C1037 1.499 . S
C1040 C1041 1.373 . S
C1040 C1042 1.389 . S
C1041 H1020 0.950 . S
C1041 C1040 1.373 . S
C1041 C1057 1.377 . S
C1042 C1040 1.389 . S
C1042 C1043 1.524 . S
C1042 C1056 1.377 . S
C1043 C1042 1.524 . S
C1043 C1044 1.397 . S
C1043 C1048 1.363 . S
C1044 H1021 0.950 . S
C1044 C1043 1.397 . S
C1044 C1045 1.334 . S
C1045 H1022 0.950 . S
C1045 C1044 1.334 . S
C1045 C1046 1.287 . S
C1046 C1045 1.287 . S
C1046 C1047 1.524 . S
C1046 H1065 0.913 . S
C1047 H1023 0.950 . S
C1047 C1046 1.524 . S
C1047 C1048 1.415 . S
C1048 H1024 0.950 . S
C1048 C1043 1.363 . S
C1048 C1047 1.415 . S
C1049 H1025 0.951 . S
C1049 C1050 1.366 . S
C1049 C1051 1.388 . S
C1050 C1049 1.366 . S
C1050 C1054 1.385 . S
C1051 H1026 0.951 . S
C1051 C1049 1.388 . S
C1051 C1052 1.366 . S
C1052 C1051 1.366 . S
C1052 C1053 1.414 . S
C1052 C1055 1.499 . S
C1053 H1027 0.950 . S
C1053 C1052 1.414 . S
C1053 C1054 1.374 . S
C1054 H1028 0.950 . S
C1054 C1050 1.385 . S
C1054 C1053 1.374 . S
C1055 C1052 1.499 . S
C1055 C1056 1.373 . S
C1055 C1057 1.389 . S
C1056 H1029 0.950 . S
C1056 C1042 1.377 . S
C1056 C1055 1.373 . S
C1057 C1041 1.377 . S
C1057 C1055 1.389 . S
C1057 C1058 1.524 . S
C1058 C1057 1.524 . S
C1058 C1059 1.397 . S
C1058 C1063 1.363 . S
C1059 H1030 0.950 . S
C1059 C1058 1.397 . S
C1059 C1060 1.334 . S
C1060 H1031 0.950 . S
C1060 C1059 1.334 . S
C1060 C1061 1.287 . S
C1061 C1060 1.287 . S
C1061 C1062 1.524 . S
C1061 H1064 0.999 . S
C1062 H1032 0.950 . S
C1062 C1061 1.524 . S
C1062 C1063 1.415 . S
C1063 H1033 0.950 . S
C1063 C1058 1.363 . S
C1063 C1062 1.415 . S
H1064 C1061 0.999 . S
H1065 C1046 0.913 . S
H1066 C1084 0.951 . S
H1067 C1086 0.951 . S
H1068 C1088 0.950 . S
H1069 C1089 0.950 . S
H1070 C1091 0.950 . S
H1071 C1094 0.950 . S
H1072 C1095 0.950 . S
H1073 C1097 0.950 . S
H1074 C1098 0.950 . S
H1075 C1099 0.951 . S
H1076 C1101 0.951 . S
H1077 C1103 0.950 . S
H1078 C1104 0.950 . S
H1079 C1106 0.950 . S
H1080 C1109 0.950 . S
H1081 C1110 0.950 . S
H1082 C1112 0.950 . S
H1083 C1113 0.950 . S
C1084 H1066 0.951 . S
C1084 C1085 1.366 . S
C1084 C1086 1.388 . S
C1085 C1084 1.366 . S
C1085 C1089 1.385 . S
C1086 H1067 0.951 . S
C1086 C1084 1.388 . S
C1086 C1087 1.366 . S
C1087 C1086 1.366 . S
C1087 C1088 1.414 . S
C1087 C1090 1.499 . S
C1088 H1068 0.950 . S
C1088 C1087 1.414 . S
C1088 C1089 1.374 . S
C1089 H1069 0.950 . S
C1089 C1085 1.385 . S
C1089 C1088 1.374 . S
C1090 C1087 1.499 . S
C1090 C1091 1.373 . S
C1090 C1092 1.389 . S
C1091 H1070 0.950 . S
C1091 C1090 1.373 . S
C1091 C1107 1.377 . S
C1092 C1090 1.389 . S
C1092 C1093 1.524 . S
C1092 C1106 1.377 . S
C1093 C1092 1.524 . S
C1093 C1094 1.397 . S
C1093 C1098 1.363 . S
C1094 H1071 0.950 . S
C1094 C1093 1.397 . S
C1094 C1095 1.334 . S
C1095 H1072 0.950 . S
C1095 C1094 1.334 . S
C1095 C1096 1.287 . S
C1096 C1095 1.287 . S
C1096 C1097 1.524 . S
C1096 H1115 0.913 . S
C1097 H1073 0.950 . S
C1097 C1096 1.524 . S
C1097 C1098 1.415 . S
C1098 H1074 0.950 . S
C1098 C1093 1.363 . S
C1098 C1097 1.415 . S
C1099 H1075 0.951 . S
C1099 C1100 1.366 . S
C1099 C1101 1.388 . S
C1100 C1099 1.366 . S
C1100 C1104 1.385 . S
C1101 H1076 0.951 . S
C1101 C1099 1.388 . S
C1101 C1102 1.366 . S
C1102 C1101 1.366 . S
C1102 C1103 1.414 . S
C1102 C1105 1.499 . S
C1103 H1077 0.950 . S
C1103 C1102 1.414 . S
C1103 C1104 1.374 . S
C1104 H1078 0.950 . S
C1104 C1100 1.385 . S
C1104 C1103 1.374 . S
C1105 C1102 1.499 . S
C1105 C1106 1.373 . S
C1105 C1107 1.389 . S
C1106 H1079 0.950 . S
C1106 C1092 1.377 . S
C1106 C1105 1.373 . S
C1107 C1091 1.377 . S
C1107 C1105 1.389 . S
C1107 C1108 1.524 . S
C1108 C1107 1.524 . S
C1108 C1109 1.397 . S
C1108 C1113 1.363 . S
C1109 H1080 0.950 . S
C1109 C1108 1.397 . S
C1109 C1110 1.334 . S
C1110 H1081 0.950 . S
C1110 C1109 1.334 . S
C1110 C1111 1.287 . S
C1111 C1110 1.287 . S
C1111 C1112 1.524 . S
C1111 H1114 0.999 . S
C1112 H1082 0.950 . S
C1112 C1111 1.524 . S
C1112 C1113 1.415 . S
C1113 H1083 0.950 . S
C1113 C1108 1.363 . S
C1113 C1112 1.415 . S
H1114 C1111 0.999 . S
H1115 C1096 0.913 . S
H1116 C1134 0.951 . S
H1117 C1136 0.951 . S
H1118 C1138 0.950 . S
H1119 C1139 0.950 . S
H1120 C1141 0.950 . S
H1121 C1144 0.950 . S
H1122 C1145 0.950 . S
H1123 C1147 0.950 . S
H1124 C1148 0.950 . S
H1125 C1149 0.951 . S
H1126 C1151 0.951 . S
H1127 C1153 0.950 . S
H1128 C1154 0.950 . S
H1129 C1156 0.950 . S
H1130 C1159 0.950 . S
H1131 C1160 0.950 . S
H1132 C1162 0.950 . S
H1133 C1163 0.950 . S
C1134 H1116 0.951 . S
C1134 C1135 1.366 . S
C1134 C1136 1.388 . S
C1135 C1134 1.366 . S
C1135 C1139 1.385 . S
C1136 H1117 0.951 . S
C1136 C1134 1.388 . S
C1136 C1137 1.366 . S
C1137 C1136 1.366 . S
C1137 C1138 1.414 . S
C1137 C1140 1.499 . S
C1138 H1118 0.950 . S
C1138 C1137 1.414 . S
C1138 C1139 1.374 . S
C1139 H1119 0.950 . S
C1139 C1135 1.385 . S
C1139 C1138 1.374 . S
C1140 C1137 1.499 . S
C1140 C1141 1.373 . S
C1140 C1142 1.389 . S
C1141 H1120 0.950 . S
C1141 C1140 1.373 . S
C1141 C1157 1.377 . S
C1142 C1140 1.389 . S
C1142 C1143 1.524 . S
C1142 C1156 1.377 . S
C1143 C1142 1.524 . S
C1143 C1144 1.397 . S
C1143 C1148 1.363 . S
C1144 H1121 0.950 . S
C1144 C1143 1.397 . S
C1144 C1145 1.334 . S
C1145 H1122 0.950 . S
C1145 C1144 1.334 . S
C1145 C1146 1.287 . S
C1146 C1145 1.287 . S
C1146 C1147 1.524 . S
C1146 H1165 0.913 . S
C1147 H1123 0.950 . S
C1147 C1146 1.524 . S
C1147 C1148 1.415 . S
C1148 H1124 0.950 . S
C1148 C1143 1.363 . S
C1148 C1147 1.415 . S
C1149 H1125 0.951 . S
C1149 C1150 1.366 . S
C1149 C1151 1.388 . S
C1150 C1149 1.366 . S
C1150 C1154 1.385 . S
C1151 H1126 0.951 . S
C1151 C1149 1.388 . S
C1151 C1152 1.366 . S
C1152 C1151 1.366 . S
C1152 C1153 1.414 . S
C1152 C1155 1.499 . S
C1153 H1127 0.950 . S
C1153 C1152 1.414 . S
C1153 C1154 1.374 . S
C1154 H1128 0.950 . S
C1154 C1150 1.385 . S
C1154 C1153 1.374 . S
C1155 C1152 1.499 . S
C1155 C1156 1.373 . S
C1155 C1157 1.389 . S
C1156 H1129 0.950 . S
C1156 C1142 1.377 . S
C1156 C1155 1.373 . S
C1157 C1141 1.377 . S
C1157 C1155 1.389 . S
C1157 C1158 1.524 . S
C1158 C1157 1.524 . S
C1158 C1159 1.397 . S
C1158 C1163 1.363 . S
C1159 H1130 0.950 . S
C1159 C1158 1.397 . S
C1159 C1160 1.334 . S
C1160 H1131 0.950 . S
C1160 C1159 1.334 . S
C1160 C1161 1.287 . S
C1161 C1160 1.287 . S
C1161 C1162 1.524 . S
C1161 H1164 0.999 . S
C1162 H1132 0.950 . S
C1162 C1161 1.524 . S
C1162 C1163 1.415 . S
C1163 H1133 0.950 . S
C1163 C1158 1.363 . S
C1163 C1162 1.415 . S
H1164 C1161 0.999 . S
H1165 C1146 0.913 . S
H1166 C1184 0.951 . S
H1167 C1186 0.951 . S
H1168 C1188 0.950 . S
H1169 C1189 0.950 . S
H1170 C1191 0.950 . S
H1171 C1194 0.950 . S
H1172 C1195 0.950 . S
H1173 C1197 0.950 . S
H1174 C1198 0.950 . S
H1175 C1199 0.951 . S
H1176 C1201 0.951 . S
H1177 C1203 0.950 . S
H1178 C1204 0.950 . S
H1179 C1206 0.950 . S
H1180 C1209 0.950 . S
H1181 C1210 0.950 . S
H1182 C1212 0.950 . S
H1183 C1213 0.950 . S
C1184 H1166 0.951 . S
C1184 C1185 1.366 . S
C1184 C1186 1.388 . S
C1185 C1184 1.366 . S
C1185 C1189 1.385 . S
C1186 H1167 0.951 . S
C1186 C1184 1.388 . S
C1186 C1187 1.366 . S
C1187 C1186 1.366 . S
C1187 C1188 1.414 . S
C1187 C1190 1.499 . S
C1188 H1168 0.950 . S
C1188 C1187 1.414 . S
C1188 C1189 1.374 . S
C1189 H1169 0.950 . S
C1189 C1185 1.385 . S
C1189 C1188 1.374 . S
C1190 C1187 1.499 . S
C1190 C1191 1.373 . S
C1190 C1192 1.389 . S
C1191 H1170 0.950 . S
C1191 C1190 1.373 . S
C1191 C1207 1.377 . S
C1192 C1190 1.389 . S
C1192 C1193 1.524 . S
C1192 C1206 1.377 . S
C1193 C1192 1.524 . S
C1193 C1194 1.397 . S
C1193 C1198 1.363 . S
C1194 H1171 0.950 . S
C1194 C1193 1.397 . S
C1194 C1195 1.334 . S
C1195 H1172 0.950 . S
C1195 C1194 1.334 . S
C1195 C1196 1.287 . S
C1196 C1195 1.287 . S
C1196 C1197 1.524 . S
C1196 H1215 0.913 . S
C1197 H1173 0.950 . S
C1197 C1196 1.524 . S
C1197 C1198 1.415 . S
C1198 H1174 0.950 . S
C1198 C1193 1.363 . S
C1198 C1197 1.415 . S
C1199 H1175 0.951 . S
C1199 C1200 1.366 . S
C1199 C1201 1.388 . S
C1200 C1199 1.366 . S
C1200 C1204 1.385 . S
C1201 H1176 0.951 . S
C1201 C1199 1.388 . S
C1201 C1202 1.366 . S
C1202 C1201 1.366 . S
C1202 C1203 1.414 . S
C1202 C1205 1.499 . S
C1203 H1177 0.950 . S
C1203 C1202 1.414 . S
C1203 C1204 1.374 . S
C1204 H1178 0.950 . S
C1204 C1200 1.385 . S
C1204 C1203 1.374 . S
C1205 C1202 1.499 . S
C1205 C1206 1.373 . S
C1205 C1207 1.389 . S
C1206 H1179 0.950 . S
C1206 C1192 1.377 . S
C1206 C1205 1.373 . S
C1207 C1191 1.377 . S
C1207 C1205 1.389 . S
C1207 C1208 1.524 . S
C1208 C1207 1.524 . S
C1208 C1209 1.397 . S
C1208 C1213 1.363 . S
C1209 H1180 0.950 . S
C1209 C1208 1.397 . S
C1209 C1210 1.334 . S
C1210 H1181 0.950 . S
C1210 C1209 1.334 . S
C1210 C1211 1.287 . S
C1211 C1210 1.287 . S
C1211 C1212 1.524 . S
C1211 H1214 0.999 . S
C1212 H1182 0.950 . S
C1212 C1211 1.524 . S
C1212 C1213 1.415 . S
C1213 H1183 0.950 . S
C1213 C1208 1.363 . S
C1213 C1212 1.415 . S
H1214 C1211 0.999 . S
H1215 C1196 0.913 . S
H1216 C1234 0.951 . S
H1217 C1236 0.951 . S
H1218 C1238 0.950 . S
H1219 C1239 0.950 . S
H1220 C1241 0.950 . S
H1221 C1244 0.950 . S
H1222 C1245 0.950 . S
H1223 C1247 0.950 . S
H1224 C1248 0.950 . S
H1225 C1249 0.951 . S
H1226 C1251 0.951 . S
H1227 C1253 0.950 . S
H1228 C1254 0.950 . S
H1229 C1256 0.950 . S
H1230 C1259 0.950 . S
H1231 C1260 0.950 . S
H1232 C1262 0.950 . S
H1233 C1263 0.950 . S
C1234 H1216 0.951 . S
C1234 C1235 1.366 . S
C1234 C1236 1.388 . S
C1235 C1234 1.366 . S
C1235 C1239 1.385 . S
C1236 H1217 0.951 . S
C1236 C1234 1.388 . S
C1236 C1237 1.366 . S
C1237 C1236 1.366 . S
C1237 C1238 1.414 . S
C1237 C1240 1.499 . S
C1238 H1218 0.950 . S
C1238 C1237 1.414 . S
C1238 C1239 1.374 . S
C1239 H1219 0.950 . S
C1239 C1235 1.385 . S
C1239 C1238 1.374 . S
C1240 C1237 1.499 . S
C1240 C1241 1.373 . S
C1240 C1242 1.389 . S
C1241 H1220 0.950 . S
C1241 C1240 1.373 . S
C1241 C1257 1.377 1_554 S
C1242 C1240 1.389 . S
C1242 C1243 1.524 . S
C1242 C1256 1.377 1_554 S
C1243 C1242 1.524 . S
C1243 C1244 1.397 . S
C1243 C1248 1.363 . S
C1244 H1221 0.950 . S
C1244 C1243 1.397 . S
C1244 C1245 1.334 . S
C1245 H1222 0.950 . S
C1245 C1244 1.334 . S
C1245 C1246 1.287 . S
C1246 C1245 1.287 . S
C1246 C1247 1.524 . S
C1246 H1265 0.913 . S
C1247 H1223 0.950 . S
C1247 C1246 1.524 . S
C1247 C1248 1.415 . S
C1248 H1224 0.950 . S
C1248 C1243 1.363 . S
C1248 C1247 1.415 . S
C1249 H1225 0.951 . S
C1249 C1250 1.366 . S
C1249 C1251 1.388 . S
C1250 C1249 1.366 . S
C1250 C1254 1.385 . S
C1251 H1226 0.951 . S
C1251 C1249 1.388 . S
C1251 C1252 1.366 . S
C1252 C1251 1.366 . S
C1252 C1253 1.414 . S
C1252 C1255 1.499 . S
C1253 H1227 0.950 . S
C1253 C1252 1.414 . S
C1253 C1254 1.374 . S
C1254 H1228 0.950 . S
C1254 C1250 1.385 . S
C1254 C1253 1.374 . S
C1255 C1252 1.499 . S
C1255 C1256 1.373 . S
C1255 C1257 1.389 . S
C1256 H1229 0.950 . S
C1256 C1242 1.377 1_556 S
C1256 C1255 1.373 . S
C1257 C1241 1.377 1_556 S
C1257 C1255 1.389 . S
C1257 C1258 1.524 . S
C1258 C1257 1.524 . S
C1258 C1259 1.397 . S
C1258 C1263 1.363 . S
C1259 H1230 0.950 . S
C1259 C1258 1.397 . S
C1259 C1260 1.334 . S
C1260 H1231 0.950 . S
C1260 C1259 1.334 . S
C1260 C1261 1.287 . S
C1261 C1260 1.287 . S
C1261 C1262 1.524 . S
C1261 H1264 0.999 . S
C1262 H1232 0.950 . S
C1262 C1261 1.524 . S
C1262 C1263 1.415 . S
C1263 H1233 0.950 . S
C1263 C1258 1.363 . S
C1263 C1262 1.415 . S
H1264 C1261 0.999 . S
H1265 C1246 0.913 . S
H1266 C1284 0.951 . S
H1267 C1286 0.951 . S
H1268 C1288 0.950 . S
H1269 C1289 0.950 . S
H1270 C1291 0.950 . S
H1271 C1294 0.950 . S
H1272 C1295 0.950 . S
H1273 C1297 0.950 . S
H1274 C1298 0.950 . S
H1275 C1299 0.951 . S
H1276 C1301 0.951 . S
H1277 C1303 0.950 . S
H1278 C1304 0.950 . S
H1279 C1306 0.950 . S
H1280 C1309 0.950 . S
H1281 C1310 0.950 . S
H1282 C1312 0.950 . S
H1283 C1313 0.950 . S
C1284 H1266 0.951 . S
C1284 C1285 1.366 . S
C1284 C1286 1.388 . S
C1285 C1284 1.366 . S
C1285 C1289 1.385 . S
C1286 H1267 0.951 . S
C1286 C1284 1.388 . S
C1286 C1287 1.366 . S
C1287 C1286 1.366 . S
C1287 C1288 1.414 . S
C1287 C1290 1.499 . S
C1288 H1268 0.950 . S
C1288 C1287 1.414 . S
C1288 C1289 1.374 . S
C1289 H1269 0.950 . S
C1289 C1285 1.385 . S
C1289 C1288 1.374 . S
C1290 C1287 1.499 . S
C1290 C1291 1.373 . S
C1290 C1292 1.389 . S
C1291 H1270 0.950 . S
C1291 C1290 1.373 . S
C1291 C1307 1.377 1_556 S
C1292 C1290 1.389 . S
C1292 C1293 1.524 . S
C1292 C1306 1.377 1_556 S
C1293 C1292 1.524 . S
C1293 C1294 1.397 . S
C1293 C1298 1.363 . S
C1294 H1271 0.950 . S
C1294 C1293 1.397 . S
C1294 C1295 1.334 . S
C1295 H1272 0.950 . S
C1295 C1294 1.334 . S
C1295 C1296 1.287 . S
C1296 C1295 1.287 . S
C1296 C1297 1.524 . S
C1296 H1315 0.913 . S
C1297 H1273 0.950 . S
C1297 C1296 1.524 . S
C1297 C1298 1.415 . S
C1298 H1274 0.950 . S
C1298 C1293 1.363 . S
C1298 C1297 1.415 . S
C1299 H1275 0.951 . S
C1299 C1300 1.366 . S
C1299 C1301 1.388 . S
C1300 C1299 1.366 . S
C1300 C1304 1.385 . S
C1301 H1276 0.951 . S
C1301 C1299 1.388 . S
C1301 C1302 1.366 . S
C1302 C1301 1.366 . S
C1302 C1303 1.414 . S
C1302 C1305 1.499 . S
C1303 H1277 0.950 . S
C1303 C1302 1.414 . S
C1303 C1304 1.374 . S
C1304 H1278 0.950 . S
C1304 C1300 1.385 . S
C1304 C1303 1.374 . S
C1305 C1302 1.499 . S
C1305 C1306 1.373 . S
C1305 C1307 1.389 . S
C1306 H1279 0.950 . S
C1306 C1292 1.377 1_554 S
C1306 C1305 1.373 . S
C1307 C1291 1.377 1_554 S
C1307 C1305 1.389 . S
C1307 C1308 1.524 . S
C1308 C1307 1.524 . S
C1308 C1309 1.397 . S
C1308 C1313 1.363 . S
C1309 H1280 0.950 . S
C1309 C1308 1.397 . S
C1309 C1310 1.334 . S
C1310 H1281 0.950 . S
C1310 C1309 1.334 . S
C1310 C1311 1.287 . S
C1311 C1310 1.287 . S
C1311 C1312 1.524 . S
C1311 H1314 0.999 . S
C1312 H1282 0.950 . S
C1312 C1311 1.524 . S
C1312 C1313 1.415 . S
C1313 H1283 0.950 . S
C1313 C1308 1.363 . S
C1313 C1312 1.415 . S
H1314 C1311 0.999 . S
H1315 C1296 0.913 . S
H1316 C1334 0.951 . S
H1317 C1336 0.951 . S
H1318 C1338 0.950 . S
H1319 C1339 0.950 . S
H1320 C1341 0.950 . S
H1321 C1344 0.950 . S
H1322 C1345 0.950 . S
H1323 C1347 0.950 . S
H1324 C1348 0.950 . S
H1325 C1349 0.951 . S
H1326 C1351 0.951 . S
H1327 C1353 0.950 . S
H1328 C1354 0.950 . S
H1329 C1356 0.950 . S
H1330 C1359 0.950 . S
H1331 C1360 0.950 . S
H1332 C1362 0.950 . S
H1333 C1363 0.950 . S
C1334 H1316 0.951 . S
C1334 C1335 1.366 . S
C1334 C1336 1.388 . S
C1335 C1334 1.366 . S
C1335 C1339 1.385 . S
C1336 H1317 0.951 . S
C1336 C1334 1.388 . S
C1336 C1337 1.366 . S
C1337 C1336 1.366 . S
C1337 C1338 1.414 . S
C1337 C1340 1.499 . S
C1338 H1318 0.950 . S
C1338 C1337 1.414 . S
C1338 C1339 1.374 . S
C1339 H1319 0.950 . S
C1339 C1335 1.385 . S
C1339 C1338 1.374 . S
C1340 C1337 1.499 . S
C1340 C1341 1.373 . S
C1340 C1342 1.389 . S
C1341 H1320 0.950 . S
C1341 C1340 1.373 . S
C1341 C1357 1.377 1_556 S
C1342 C1340 1.389 . S
C1342 C1343 1.524 . S
C1342 C1356 1.377 1_556 S
C1343 C1342 1.524 . S
C1343 C1344 1.397 . S
C1343 C1348 1.363 . S
C1344 H1321 0.950 . S
C1344 C1343 1.397 . S
C1344 C1345 1.334 . S
C1345 H1322 0.950 . S
C1345 C1344 1.334 . S
C1345 C1346 1.287 . S
C1346 C1345 1.287 . S
C1346 C1347 1.524 . S
C1346 H1365 0.913 . S
C1347 H1323 0.950 . S
C1347 C1346 1.524 . S
C1347 C1348 1.415 . S
C1348 H1324 0.950 . S
C1348 C1343 1.363 . S
C1348 C1347 1.415 . S
C1349 H1325 0.951 . S
C1349 C1350 1.366 . S
C1349 C1351 1.388 . S
C1350 C1349 1.366 . S
C1350 C1354 1.385 . S
C1351 H1326 0.951 . S
C1351 C1349 1.388 . S
C1351 C1352 1.366 . S
C1352 C1351 1.366 . S
C1352 C1353 1.414 . S
C1352 C1355 1.499 . S
C1353 H1327 0.950 . S
C1353 C1352 1.414 . S
C1353 C1354 1.374 . S
C1354 H1328 0.950 . S
C1354 C1350 1.385 . S
C1354 C1353 1.374 . S
C1355 C1352 1.499 . S
C1355 C1356 1.373 . S
C1355 C1357 1.389 . S
C1356 H1329 0.950 . S
C1356 C1342 1.377 1_554 S
C1356 C1355 1.373 . S
C1357 C1341 1.377 1_554 S
C1357 C1355 1.389 . S
C1357 C1358 1.524 . S
C1358 C1357 1.524 . S
C1358 C1359 1.397 . S
C1358 C1363 1.363 . S
C1359 H1330 0.950 . S
C1359 C1358 1.397 . S
C1359 C1360 1.334 . S
C1360 H1331 0.950 . S
C1360 C1359 1.334 . S
C1360 C1361 1.287 . S
C1361 C1360 1.287 . S
C1361 C1362 1.524 . S
C1361 H1364 0.999 . S
C1362 H1332 0.950 . S
C1362 C1361 1.524 . S
C1362 C1363 1.415 . S
C1363 H1333 0.950 . S
C1363 C1358 1.363 . S
C1363 C1362 1.415 . S
H1364 C1361 0.999 . S
H1365 C1346 0.913 . S
H1366 C1384 0.951 . S
H1367 C1386 0.951 . S
H1368 C1388 0.950 . S
H1369 C1389 0.950 . S
H1370 C1391 0.950 . S
H1371 C1394 0.950 . S
H1372 C1395 0.950 . S
H1373 C1397 0.950 . S
H1374 C1398 0.950 . S
H1375 C1399 0.951 . S
H1376 C1401 0.951 . S
H1377 C1403 0.950 . S
H1378 C1404 0.950 . S
H1379 C1406 0.950 . S
H1380 C1409 0.950 . S
H1381 C1410 0.950 . S
H1382 C1412 0.950 . S
H1383 C1413 0.950 . S
C1384 H1366 0.951 . S
C1384 C1385 1.366 . S
C1384 C1386 1.388 . S
C1385 C1384 1.366 . S
C1385 C1389 1.385 . S
C1386 H1367 0.951 . S
C1386 C1384 1.388 . S
C1386 C1387 1.366 . S
C1387 C1386 1.366 . S
C1387 C1388 1.414 . S
C1387 C1390 1.499 . S
C1388 H1368 0.950 . S
C1388 C1387 1.414 . S
C1388 C1389 1.374 . S
C1389 H1369 0.950 . S
C1389 C1385 1.385 . S
C1389 C1388 1.374 . S
C1390 C1387 1.499 . S
C1390 C1391 1.373 . S
C1390 C1392 1.389 . S
C1391 H1370 0.950 . S
C1391 C1390 1.373 . S
C1391 C1407 1.377 1_556 S
C1392 C1390 1.389 . S
C1392 C1393 1.524 . S
C1392 C1406 1.377 1_556 S
C1393 C1392 1.524 . S
C1393 C1394 1.397 . S
C1393 C1398 1.363 . S
C1394 H1371 0.950 . S
C1394 C1393 1.397 . S
C1394 C1395 1.334 . S
C1395 H1372 0.950 . S
C1395 C1394 1.334 . S
C1395 C1396 1.287 . S
C1396 C1395 1.287 . S
C1396 C1397 1.524 . S
C1396 H1415 0.913 . S
C1397 H1373 0.950 . S
C1397 C1396 1.524 . S
C1397 C1398 1.415 . S
C1398 H1374 0.950 . S
C1398 C1393 1.363 . S
C1398 C1397 1.415 . S
C1399 H1375 0.951 . S
C1399 C1400 1.366 . S
C1399 C1401 1.388 . S
C1400 C1399 1.366 . S
C1400 C1404 1.385 . S
C1401 H1376 0.951 . S
C1401 C1399 1.388 . S
C1401 C1402 1.366 . S
C1402 C1401 1.366 . S
C1402 C1403 1.414 . S
C1402 C1405 1.499 . S
C1403 H1377 0.950 . S
C1403 C1402 1.414 . S
C1403 C1404 1.374 . S
C1404 H1378 0.950 . S
C1404 C1400 1.385 . S
C1404 C1403 1.374 . S
C1405 C1402 1.499 . S
C1405 C1406 1.373 . S
C1405 C1407 1.389 . S
C1406 H1379 0.950 . S
C1406 C1392 1.377 1_554 S
C1406 C1405 1.373 . S
C1407 C1391 1.377 1_554 S
C1407 C1405 1.389 . S
C1407 C1408 1.524 . S
C1408 C1407 1.524 . S
C1408 C1409 1.397 . S
C1408 C1413 1.363 . S
C1409 H1380 0.950 . S
C1409 C1408 1.397 . S
C1409 C1410 1.334 . S
C1410 H1381 0.950 . S
C1410 C1409 1.334 . S
C1410 C1411 1.287 . S
C1411 C1410 1.287 . S
C1411 C1412 1.524 . S
C1411 H1414 0.999 . S
C1412 H1382 0.950 . S
C1412 C1411 1.524 . S
C1412 C1413 1.415 . S
C1413 H1383 0.950 . S
C1413 C1408 1.363 . S
C1413 C1412 1.415 . S
H1414 C1411 0.999 . S
H1415 C1396 0.913 . S
H1416 C1434 0.951 . S
H1417 C1436 0.951 . S
H1418 C1438 0.950 . S
H1419 C1439 0.950 . S
H1420 C1441 0.950 . S
H1421 C1444 0.950 . S
H1422 C1445 0.950 . S
H1423 C1447 0.950 . S
H1424 C1448 0.950 . S
H1425 C1449 0.951 . S
H1426 C1451 0.951 . S
H1427 C1453 0.950 . S
H1428 C1454 0.950 . S
H1429 C1456 0.950 . S
H1430 C1459 0.950 . S
H1431 C1460 0.950 . S
H1432 C1462 0.950 . S
H1433 C1463 0.950 . S
C1434 H1416 0.951 . S
C1434 C1435 1.366 . S
C1434 C1436 1.388 . S
C1435 C1434 1.366 . S
C1435 C1439 1.385 . S
C1436 H1417 0.951 . S
C1436 C1434 1.388 . S
C1436 C1437 1.366 . S
C1437 C1436 1.366 . S
C1437 C1438 1.414 . S
C1437 C1440 1.499 . S
C1438 H1418 0.950 . S
C1438 C1437 1.414 . S
C1438 C1439 1.374 . S
C1439 H1419 0.950 . S
C1439 C1435 1.385 . S
C1439 C1438 1.374 . S
C1440 C1437 1.499 . S
C1440 C1441 1.373 . S
C1440 C1442 1.389 . S
C1441 H1420 0.950 . S
C1441 C1440 1.373 . S
C1441 C1457 1.377 . S
C1442 C1440 1.389 . S
C1442 C1443 1.524 . S
C1442 C1456 1.377 . S
C1443 C1442 1.524 . S
C1443 C1444 1.397 . S
C1443 C1448 1.363 . S
C1444 H1421 0.950 . S
C1444 C1443 1.397 . S
C1444 C1445 1.334 . S
C1445 H1422 0.950 . S
C1445 C1444 1.334 . S
C1445 C1446 1.287 . S
C1446 C1445 1.287 . S
C1446 C1447 1.524 . S
C1446 H1465 0.913 . S
C1447 H1423 0.950 . S
C1447 C1446 1.524 . S
C1447 C1448 1.415 . S
C1448 H1424 0.950 . S
C1448 C1443 1.363 . S
C1448 C1447 1.415 . S
C1449 H1425 0.951 . S
C1449 C1450 1.366 . S
C1449 C1451 1.388 . S
C1450 C1449 1.366 . S
C1450 C1454 1.385 . S
C1451 H1426 0.951 . S
C1451 C1449 1.388 . S
C1451 C1452 1.366 . S
C1452 C1451 1.366 . S
C1452 C1453 1.414 . S
C1452 C1455 1.499 . S
C1453 H1427 0.950 . S
C1453 C1452 1.414 . S
C1453 C1454 1.374 . S
C1454 H1428 0.950 . S
C1454 C1450 1.385 . S
C1454 C1453 1.374 . S
C1455 C1452 1.499 . S
C1455 C1456 1.373 . S
C1455 C1457 1.389 . S
C1456 H1429 0.950 . S
C1456 C1442 1.377 . S
C1456 C1455 1.373 . S
C1457 C1441 1.377 . S
C1457 C1455 1.389 . S
C1457 C1458 1.524 . S
C1458 C1457 1.524 . S
C1458 C1459 1.397 . S
C1458 C1463 1.363 . S
C1459 H1430 0.950 . S
C1459 C1458 1.397 . S
C1459 C1460 1.334 . S
C1460 H1431 0.950 . S
C1460 C1459 1.334 . S
C1460 C1461 1.287 . S
C1461 C1460 1.287 . S
C1461 C1462 1.524 . S
C1461 H1464 0.999 . S
C1462 H1432 0.950 . S
C1462 C1461 1.524 . S
C1462 C1463 1.415 . S
C1463 H1433 0.950 . S
C1463 C1458 1.363 . S
C1463 C1462 1.415 . S
H1464 C1461 0.999 . S
H1465 C1446 0.913 . S
H1466 C1484 0.951 . S
H1467 C1486 0.951 . S
H1468 C1488 0.950 . S
H1469 C1489 0.950 . S
H1470 C1491 0.950 . S
H1471 C1494 0.950 . S
H1472 C1495 0.950 . S
H1473 C1497 0.950 . S
H1474 C1498 0.950 . S
H1475 C1499 0.951 . S
H1476 C1501 0.951 . S
H1477 C1503 0.950 . S
H1478 C1504 0.950 . S
H1479 C1506 0.950 . S
H1480 C1509 0.950 . S
H1481 C1510 0.950 . S
H1482 C1512 0.950 . S
H1483 C1513 0.950 . S
C1484 H1466 0.951 . S
C1484 C1485 1.366 . S
C1484 C1486 1.388 . S
C1485 C1484 1.366 . S
C1485 C1489 1.385 . S
C1486 H1467 0.951 . S
C1486 C1484 1.388 . S
C1486 C1487 1.366 . S
C1487 C1486 1.366 . S
C1487 C1488 1.414 . S
C1487 C1490 1.499 . S
C1488 H1468 0.950 . S
C1488 C1487 1.414 . S
C1488 C1489 1.374 . S
C1489 H1469 0.950 . S
C1489 C1485 1.385 . S
C1489 C1488 1.374 . S
C1490 C1487 1.499 . S
C1490 C1491 1.373 . S
C1490 C1492 1.389 . S
C1491 H1470 0.950 . S
C1491 C1490 1.373 . S
C1491 C1507 1.377 . S
C1492 C1490 1.389 . S
C1492 C1493 1.524 . S
C1492 C1506 1.377 . S
C1493 C1492 1.524 . S
C1493 C1494 1.397 . S
C1493 C1498 1.363 . S
C1494 H1471 0.950 . S
C1494 C1493 1.397 . S
C1494 C1495 1.334 . S
C1495 H1472 0.950 . S
C1495 C1494 1.334 . S
C1495 C1496 1.287 . S
C1496 C1495 1.287 . S
C1496 C1497 1.524 . S
C1496 H1515 0.913 . S
C1497 H1473 0.950 . S
C1497 C1496 1.524 . S
C1497 C1498 1.415 . S
C1498 H1474 0.950 . S
C1498 C1493 1.363 . S
C1498 C1497 1.415 . S
C1499 H1475 0.951 . S
C1499 C1500 1.366 . S
C1499 C1501 1.388 . S
C1500 C1499 1.366 . S
C1500 C1504 1.385 . S
C1501 H1476 0.951 . S
C1501 C1499 1.388 . S
C1501 C1502 1.366 . S
C1502 C1501 1.366 . S
C1502 C1503 1.414 . S
C1502 C1505 1.499 . S
C1503 H1477 0.950 . S
C1503 C1502 1.414 . S
C1503 C1504 1.374 . S
C1504 H1478 0.950 . S
C1504 C1500 1.385 . S
C1504 C1503 1.374 . S
C1505 C1502 1.499 . S
C1505 C1506 1.373 . S
C1505 C1507 1.389 . S
C1506 H1479 0.950 . S
C1506 C1492 1.377 . S
C1506 C1505 1.373 . S
C1507 C1491 1.377 . S
C1507 C1505 1.389 . S
C1507 C1508 1.524 . S
C1508 C1507 1.524 . S
C1508 C1509 1.397 . S
C1508 C1513 1.363 . S
C1509 H1480 0.950 . S
C1509 C1508 1.397 . S
C1509 C1510 1.334 . S
C1510 H1481 0.950 . S
C1510 C1509 1.334 . S
C1510 C1511 1.287 . S
C1511 C1510 1.287 . S
C1511 C1512 1.524 . S
C1511 H1514 0.999 . S
C1512 H1482 0.950 . S
C1512 C1511 1.524 . S
C1512 C1513 1.415 . S
C1513 H1483 0.950 . S
C1513 C1508 1.363 . S
C1513 C1512 1.415 . S
H1514 C1511 0.999 . S
H1515 C1496 0.913 . S
H1516 C1534 0.951 . S
H1517 C1536 0.951 . S
H1518 C1538 0.950 . S
H1519 C1539 0.950 . S
H1520 C1541 0.950 . S
H1521 C1544 0.950 . S
H1522 C1545 0.950 . S
H1523 C1547 0.950 . S
H1524 C1548 0.950 . S
H1525 C1549 0.951 . S
H1526 C1551 0.951 . S
H1527 C1553 0.950 . S
H1528 C1554 0.950 . S
H1529 C1556 0.950 . S
H1530 C1559 0.950 . S
H1531 C1560 0.950 . S
H1532 C1562 0.950 . S
H1533 C1563 0.950 . S
C1534 H1516 0.951 . S
C1534 C1535 1.366 . S
C1534 C1536 1.388 . S
C1535 C1534 1.366 . S
C1535 C1539 1.385 . S
C1536 H1517 0.951 . S
C1536 C1534 1.388 . S
C1536 C1537 1.366 . S
C1537 C1536 1.366 . S
C1537 C1538 1.414 . S
C1537 C1540 1.499 . S
C1538 H1518 0.950 . S
C1538 C1537 1.414 . S
C1538 C1539 1.374 . S
C1539 H1519 0.950 . S
C1539 C1535 1.385 . S
C1539 C1538 1.374 . S
C1540 C1537 1.499 . S
C1540 C1541 1.373 . S
C1540 C1542 1.389 . S
C1541 H1520 0.950 . S
C1541 C1540 1.373 . S
C1541 C1557 1.377 . S
C1542 C1540 1.389 . S
C1542 C1543 1.524 . S
C1542 C1556 1.377 . S
C1543 C1542 1.524 . S
C1543 C1544 1.397 . S
C1543 C1548 1.363 . S
C1544 H1521 0.950 . S
C1544 C1543 1.397 . S
C1544 C1545 1.334 . S
C1545 H1522 0.950 . S
C1545 C1544 1.334 . S
C1545 C1546 1.287 . S
C1546 C1545 1.287 . S
C1546 C1547 1.524 . S
C1546 H1565 0.913 . S
C1547 H1523 0.950 . S
C1547 C1546 1.524 . S
C1547 C1548 1.415 . S
C1548 H1524 0.950 . S
C1548 C1543 1.363 . S
C1548 C1547 1.415 . S
C1549 H1525 0.951 . S
C1549 C1550 1.366 . S
C1549 C1551 1.388 . S
C1550 C1549 1.366 . S
C1550 C1554 1.385 . S
C1551 H1526 0.951 . S
C1551 C1549 1.388 . S
C1551 C1552 1.366 . S
C1552 C1551 1.366 . S
C1552 C1553 1.414 . S
C1552 C1555 1.499 . S
C1553 H1527 0.950 . S
C1553 C1552 1.414 . S
C1553 C1554 1.374 . S
C1554 H1528 0.950 . S
C1554 C1550 1.385 . S
C1554 C1553 1.374 . S
C1555 C1552 1.499 . S
C1555 C1556 1.373 . S
C1555 C1557 1.389 . S
C1556 H1529 0.950 . S
C1556 C1542 1.377 . S
C1556 C1555 1.373 . S
C1557 C1541 1.377 . S
C1557 C1555 1.389 . S
C1557 C1558 1.524 . S
C1558 C1557 1.524 . S
C1558 C1559 1.397 . S
C1558 C1563 1.363 . S
C1559 H1530 0.950 . S
C1559 C1558 1.397 . S
C1559 C1560 1.334 . S
C1560 H1531 0.950 . S
C1560 C1559 1.334 . S
C1560 C1561 1.287 . S
C1561 C1560 1.287 . S
C1561 C1562 1.524 . S
C1561 H1564 0.999 . S
C1562 H1532 0.950 . S
C1562 C1561 1.524 . S
C1562 C1563 1.415 . S
C1563 H1533 0.950 . S
C1563 C1558 1.363 . S
C1563 C1562 1.415 . S
H1564 C1561 0.999 . S
H1565 C1546 0.913 . S
H1566 C1584 0.951 . S
H1567 C1586 0.951 . S
H1568 C1588 0.950 . S
H1569 C1589 0.950 . S
H1570 C1591 0.950 . S
H1571 C1594 0.950 . S
H1572 C1595 0.950 . S
H1573 C1597 0.950 . S
H1574 C1598 0.950 . S
H1575 C1599 0.951 . S
H1576 C1601 0.951 . S
H1577 C1603 0.950 . S
H1578 C1604 0.950 . S
H1579 C1606 0.950 . S
H1580 C1609 0.950 . S
H1581 C1610 0.950 . S
H1582 C1612 0.950 . S
H1583 C1613 0.950 . S
C1584 H1566 0.951 . S
C1584 C1585 1.366 . S
C1584 C1586 1.388 . S
C1585 C1584 1.366 . S
C1585 C1589 1.385 . S
C1586 H1567 0.951 . S
C1586 C1584 1.388 . S
C1586 C1587 1.366 . S
C1587 C1586 1.366 . S
C1587 C1588 1.414 . S
C1587 C1590 1.499 . S
C1588 H1568 0.950 . S
C1588 C1587 1.414 . S
C1588 C1589 1.374 . S
C1589 H1569 0.950 . S
C1589 C1585 1.385 . S
C1589 C1588 1.374 . S
C1590 C1587 1.499 . S
C1590 C1591 1.373 . S
C1590 C1592 1.389 . S
C1591 H1570 0.950 . S
C1591 C1590 1.373 . S
C1591 C1607 1.377 . S
C1592 C1590 1.389 . S
C1592 C1593 1.524 . S
C1592 C1606 1.377 . S
C1593 C1592 1.524 . S
C1593 C1594 1.397 . S
C1593 C1598 1.363 . S
C1594 H1571 0.950 . S
C1594 C1593 1.397 . S
C1594 C1595 1.334 . S
C1595 H1572 0.950 . S
C1595 C1594 1.334 . S
C1595 C1596 1.287 . S
C1596 C1595 1.287 . S
C1596 C1597 1.524 . S
C1596 H1615 0.913 . S
C1597 H1573 0.950 . S
C1597 C1596 1.524 . S
C1597 C1598 1.415 . S
C1598 H1574 0.950 . S
C1598 C1593 1.363 . S
C1598 C1597 1.415 . S
C1599 H1575 0.951 . S
C1599 C1600 1.366 . S
C1599 C1601 1.388 . S
C1600 C1599 1.366 . S
C1600 C1604 1.385 . S
C1601 H1576 0.951 . S
C1601 C1599 1.388 . S
C1601 C1602 1.366 . S
C1602 C1601 1.366 . S
C1602 C1603 1.414 . S
C1602 C1605 1.499 . S
C1603 H1577 0.950 . S
C1603 C1602 1.414 . S
C1603 C1604 1.374 . S
C1604 H1578 0.950 . S
C1604 C1600 1.385 . S
C1604 C1603 1.374 . S
C1605 C1602 1.499 . S
C1605 C1606 1.373 . S
C1605 C1607 1.389 . S
C1606 H1579 0.950 . S
C1606 C1592 1.377 . S
C1606 C1605 1.373 . S
C1607 C1591 1.377 . S
C1607 C1605 1.389 . S
C1607 C1608 1.524 . S
C1608 C1607 1.524 . S
C1608 C1609 1.397 . S
C1608 C1613 1.363 . S
C1609 H1580 0.950 . S
C1609 C1608 1.397 . S
C1609 C1610 1.334 . S
C1610 H1581 0.950 . S
C1610 C1609 1.334 . S
C1610 C1611 1.287 . S
C1611 C1610 1.287 . S
C1611 C1612 1.524 . S
C1611 H1614 0.999 . S
C1612 H1582 0.950 . S
C1612 C1611 1.524 . S
C1612 C1613 1.415 . S
C1613 H1583 0.950 . S
C1613 C1608 1.363 . S
C1613 C1612 1.415 . S
H1614 C1611 0.999 . S
H1615 C1596 0.913 . S
H1616 C1634 0.951 . S
H1617 C1636 0.951 . S
H1618 C1638 0.950 . S
H1619 C1639 0.950 . S
H1620 C1641 0.950 . S
H1621 C1644 0.950 . S
H1622 C1645 0.950 . S
H1623 C1647 0.950 . S
H1624 C1648 0.950 . S
H1625 C1649 0.951 . S
H1626 C1651 0.951 . S
H1627 C1653 0.950 . S
H1628 C1654 0.950 . S
H1629 C1656 0.950 . S
H1630 C1659 0.950 . S
H1631 C1660 0.950 . S
H1632 C1662 0.950 . S
H1633 C1663 0.950 . S
C1634 H1616 0.951 . S
C1634 C1635 1.366 . S
C1634 C1636 1.388 . S
C1635 C1634 1.366 . S
C1635 C1639 1.385 . S
C1636 H1617 0.951 . S
C1636 C1634 1.388 . S
C1636 C1637 1.366 . S
C1637 C1636 1.366 . S
C1637 C1638 1.414 . S
C1637 C1640 1.499 . S
C1638 H1618 0.950 . S
C1638 C1637 1.414 . S
C1638 C1639 1.374 . S
C1639 H1619 0.950 . S
C1639 C1635 1.385 . S
C1639 C1638 1.374 . S
C1640 C1637 1.499 . S
C1640 C1641 1.373 . S
C1640 C1642 1.389 . S
C1641 H1620 0.950 . S
C1641 C1640 1.373 . S
C1641 C1657 1.377 . S
C1642 C1640 1.389 . S
C1642 C1643 1.524 . S
C1642 C1656 1.377 . S
C1643 C1642 1.524 . S
C1643 C1644 1.397 . S
C1643 C1648 1.363 . S
C1644 H1621 0.950 . S
C1644 C1643 1.397 . S
C1644 C1645 1.334 . S
C1645 H1622 0.950 . S
C1645 C1644 1.334 . S
C1645 C1646 1.287 . S
C1646 C1645 1.287 . S
C1646 C1647 1.524 . S
C1646 H1665 0.913 . S
C1647 H1623 0.950 . S
C1647 C1646 1.524 . S
C1647 C1648 1.415 . S
C1648 H1624 0.950 . S
C1648 C1643 1.363 . S
C1648 C1647 1.415 . S
C1649 H1625 0.951 . S
C1649 C1650 1.366 . S
C1649 C1651 1.388 . S
C1650 C1649 1.366 . S
C1650 C1654 1.385 . S
C1651 H1626 0.951 . S
C1651 C1649 1.388 . S
C1651 C1652 1.366 . S
C1652 C1651 1.366 . S
C1652 C1653 1.414 . S
C1652 C1655 1.499 . S
C1653 H1627 0.950 . S
C1653 C1652 1.414 . S
C1653 C1654 1.374 . S
C1654 H1628 0.950 . S
C1654 C1650 1.385 . S
C1654 C1653 1.374 . S
C1655 C1652 1.499 . S
C1655 C1656 1.373 . S
C1655 C1657 1.389 . S
C1656 H1629 0.950 . S
C1656 C1642 1.377 . S
C1656 C1655 1.373 . S
C1657 C1641 1.377 . S
C1657 C1655 1.389 . S
C1657 C1658 1.524 . S
C1658 C1657 1.524 . S
C1658 C1659 1.397 . S
C1658 C1663 1.363 . S
C1659 H1630 0.950 . S
C1659 C1658 1.397 . S
C1659 C1660 1.334 . S
C1660 H1631 0.950 . S
C1660 C1659 1.334 . S
C1660 C1661 1.287 . S
C1661 C1660 1.287 . S
C1661 C1662 1.524 . S
C1661 H1664 0.999 . S
C1662 H1632 0.950 . S
C1662 C1661 1.524 . S
C1662 C1663 1.415 . S
C1663 H1633 0.950 . S
C1663 C1658 1.363 . S
C1663 C1662 1.415 . S
H1664 C1661 0.999 . S
H1665 C1646 0.913 . S
H1666 C1684 0.951 . S
H1667 C1686 0.951 . S
H1668 C1688 0.950 . S
H1669 C1689 0.950 . S
H1670 C1691 0.950 . S
H1671 C1694 0.950 . S
H1672 C1695 0.950 . S
H1673 C1697 0.950 . S
H1674 C1698 0.950 . S
H1675 C1699 0.951 . S
H1676 C1701 0.951 . S
H1677 C1703 0.950 . S
H1678 C1704 0.950 . S
H1679 C1706 0.950 . S
H1680 C1709 0.950 . S
H1681 C1710 0.950 . S
H1682 C1712 0.950 . S
H1683 C1713 0.950 . S
C1684 H1666 0.951 . S
C1684 C1685 1.366 . S
C1684 C1686 1.388 . S
C1685 C1684 1.366 . S
C1685 C1689 1.385 . S
C1686 H1667 0.951 . S
C1686 C1684 1.388 . S
C1686 C1687 1.366 . S
C1687 C1686 1.366 . S
C1687 C1688 1.414 . S
C1687 C1690 1.499 . S
C1688 H1668 0.950 . S
C1688 C1687 1.414 . S
C1688 C1689 1.374 . S
C1689 H1669 0.950 . S
C1689 C1685 1.385 . S
C1689 C1688 1.374 . S
C1690 C1687 1.499 . S
C1690 C1691 1.373 . S
C1690 C1692 1.389 . S
C1691 H1670 0.950 . S
C1691 C1690 1.373 . S
C1691 C1707 1.377 . S
C1692 C1690 1.389 . S
C1692 C1693 1.524 . S
C1692 C1706 1.377 . S
C1693 C1692 1.524 . S
C1693 C1694 1.397 . S
C1693 C1698 1.363 . S
C1694 H1671 0.950 . S
C1694 C1693 1.397 . S
C1694 C1695 1.334 . S
C1695 H1672 0.950 . S
C1695 C1694 1.334 . S
C1695 C1696 1.287 . S
C1696 C1695 1.287 . S
C1696 C1697 1.524 . S
C1696 H1715 0.913 . S
C1697 H1673 0.950 . S
C1697 C1696 1.524 . S
C1697 C1698 1.415 . S
C1698 H1674 0.950 . S
C1698 C1693 1.363 . S
C1698 C1697 1.415 . S
C1699 H1675 0.951 . S
C1699 C1700 1.366 . S
C1699 C1701 1.388 . S
C1700 C1699 1.366 . S
C1700 C1704 1.385 . S
C1701 H1676 0.951 . S
C1701 C1699 1.388 . S
C1701 C1702 1.366 . S
C1702 C1701 1.366 . S
C1702 C1703 1.414 . S
C1702 C1705 1.499 . S
C1703 H1677 0.950 . S
C1703 C1702 1.414 . S
C1703 C1704 1.374 . S
C1704 H1678 0.950 . S
C1704 C1700 1.385 . S
C1704 C1703 1.374 . S
C1705 C1702 1.499 . S
C1705 C1706 1.373 . S
C1705 C1707 1.389 . S
C1706 H1679 0.950 . S
C1706 C1692 1.377 . S
C1706 C1705 1.373 . S
C1707 C1691 1.377 . S
C1707 C1705 1.389 . S
C1707 C1708 1.524 . S
C1708 C1707 1.524 . S
C1708 C1709 1.397 . S
C1708 C1713 1.363 . S
C1709 H1680 0.950 . S
C1709 C1708 1.397 . S
C1709 C1710 1.334 . S
C1710 H1681 0.950 . S
C1710 C1709 1.334 . S
C1710 C1711 1.287 . S
C1711 C1710 1.287 . S
C1711 C1712 1.524 . S
C1711 H1714 0.999 . S
C1712 H1682 0.950 . S
C1712 C1711 1.524 . S
C1712 C1713 1.415 . S
C1713 H1683 0.950 . S
C1713 C1708 1.363 . S
C1713 C1712 1.415 . S
H1714 C1711 0.999 . S
H1715 C1696 0.913 . S
H1716 C1734 0.951 . S
H1717 C1736 0.951 . S
H1718 C1738 0.950 . S
H1719 C1739 0.950 . S
H1720 C1741 0.950 . S
H1721 C1744 0.950 . S
H1722 C1745 0.950 . S
H1723 C1747 0.950 . S
H1724 C1748 0.950 . S
H1725 C1749 0.951 . S
H1726 C1751 0.951 . S
H1727 C1753 0.950 . S
H1728 C1754 0.950 . S
H1729 C1756 0.950 . S
H1730 C1759 0.950 . S
H1731 C1760 0.950 . S
H1732 C1762 0.950 . S
H1733 C1763 0.950 . S
C1734 H1716 0.951 . S
C1734 C1735 1.366 . S
C1734 C1736 1.388 . S
C1735 C1734 1.366 . S
C1735 C1739 1.385 . S
C1736 H1717 0.951 . S
C1736 C1734 1.388 . S
C1736 C1737 1.366 . S
C1737 C1736 1.366 . S
C1737 C1738 1.414 . S
C1737 C1740 1.499 . S
C1738 H1718 0.950 . S
C1738 C1737 1.414 . S
C1738 C1739 1.374 . S
C1739 H1719 0.950 . S
C1739 C1735 1.385 . S
C1739 C1738 1.374 . S
C1740 C1737 1.499 . S
C1740 C1741 1.373 . S
C1740 C1742 1.389 . S
C1741 H1720 0.950 . S
C1741 C1740 1.373 . S
C1741 C1757 1.377 . S
C1742 C1740 1.389 . S
C1742 C1743 1.524 . S
C1742 C1756 1.377 . S
C1743 C1742 1.524 . S
C1743 C1744 1.397 . S
C1743 C1748 1.363 . S
C1744 H1721 0.950 . S
C1744 C1743 1.397 . S
C1744 C1745 1.334 . S
C1745 H1722 0.950 . S
C1745 C1744 1.334 . S
C1745 C1746 1.287 . S
C1746 C1745 1.287 . S
C1746 C1747 1.524 . S
C1746 H1765 0.913 . S
C1747 H1723 0.950 . S
C1747 C1746 1.524 . S
C1747 C1748 1.415 . S
C1748 H1724 0.950 . S
C1748 C1743 1.363 . S
C1748 C1747 1.415 . S
C1749 H1725 0.951 . S
C1749 C1750 1.366 . S
C1749 C1751 1.388 . S
C1750 C1749 1.366 . S
C1750 C1754 1.385 . S
C1751 H1726 0.951 . S
C1751 C1749 1.388 . S
C1751 C1752 1.366 . S
C1752 C1751 1.366 . S
C1752 C1753 1.414 . S
C1752 C1755 1.499 . S
C1753 H1727 0.950 . S
C1753 C1752 1.414 . S
C1753 C1754 1.374 . S
C1754 H1728 0.950 . S
C1754 C1750 1.385 . S
C1754 C1753 1.374 . S
C1755 C1752 1.499 . S
C1755 C1756 1.373 . S
C1755 C1757 1.389 . S
C1756 H1729 0.950 . S
C1756 C1742 1.377 . S
C1756 C1755 1.373 . S
C1757 C1741 1.377 . S
C1757 C1755 1.389 . S
C1757 C1758 1.524 . S
C1758 C1757 1.524 . S
C1758 C1759 1.397 . S
C1758 C1763 1.363 . S
C1759 H1730 0.950 . S
C1759 C1758 1.397 . S
C1759 C1760 1.334 . S
C1760 H1731 0.950 . S
C1760 C1759 1.334 . S
C1760 C1761 1.287 . S
C1761 C1760 1.287 . S
C1761 C1762 1.524 . S
C1761 H1764 0.999 . S
C1762 H1732 0.950 . S
C1762 C1761 1.524 . S
C1762 C1763 1.415 . S
C1763 H1733 0.950 . S
C1763 C1758 1.363 . S
C1763 C1762 1.415 . S
H1764 C1761 0.999 . S
H1765 C1746 0.913 . S
H1766 C1784 0.951 . S
H1767 C1786 0.951 . S
H1768 C1788 0.950 . S
H1769 C1789 0.950 . S
H1770 C1791 0.950 . S
H1771 C1794 0.950 . S
H1772 C1795 0.950 . S
H1773 C1797 0.950 . S
H1774 C1798 0.950 . S
H1775 C1799 0.951 . S
H1776 C1801 0.951 . S
H1777 C1803 0.950 . S
H1778 C1804 0.950 . S
H1779 C1806 0.950 . S
H1780 C1809 0.950 . S
H1781 C1810 0.950 . S
H1782 C1812 0.950 . S
H1783 C1813 0.950 . S
C1784 H1766 0.951 . S
C1784 C1785 1.366 . S
C1784 C1786 1.388 . S
C1785 C1784 1.366 . S
C1785 C1789 1.385 . S
C1786 H1767 0.951 . S
C1786 C1784 1.388 . S
C1786 C1787 1.366 . S
C1787 C1786 1.366 . S
C1787 C1788 1.414 . S
C1787 C1790 1.499 . S
C1788 H1768 0.950 . S
C1788 C1787 1.414 . S
C1788 C1789 1.374 . S
C1789 H1769 0.950 . S
C1789 C1785 1.385 . S
C1789 C1788 1.374 . S
C1790 C1787 1.499 . S
C1790 C1791 1.373 . S
C1790 C1792 1.389 . S
C1791 H1770 0.950 . S
C1791 C1790 1.373 . S
C1791 C1807 1.377 . S
C1792 C1790 1.389 . S
C1792 C1793 1.524 . S
C1792 C1806 1.377 . S
C1793 C1792 1.524 . S
C1793 C1794 1.397 . S
C1793 C1798 1.363 . S
C1794 H1771 0.950 . S
C1794 C1793 1.397 . S
C1794 C1795 1.334 . S
C1795 H1772 0.950 . S
C1795 C1794 1.334 . S
C1795 C1796 1.287 . S
C1796 C1795 1.287 . S
C1796 C1797 1.524 . S
C1796 H1815 0.913 . S
C1797 H1773 0.950 . S
C1797 C1796 1.524 . S
C1797 C1798 1.415 . S
C1798 H1774 0.950 . S
C1798 C1793 1.363 . S
C1798 C1797 1.415 . S
C1799 H1775 0.951 . S
C1799 C1800 1.366 . S
C1799 C1801 1.388 . S
C1800 C1799 1.366 . S
C1800 C1804 1.385 . S
C1801 H1776 0.951 . S
C1801 C1799 1.388 . S
C1801 C1802 1.366 . S
C1802 C1801 1.366 . S
C1802 C1803 1.414 . S
C1802 C1805 1.499 . S
C1803 H1777 0.950 . S
C1803 C1802 1.414 . S
C1803 C1804 1.374 . S
C1804 H1778 0.950 . S
C1804 C1800 1.385 . S
C1804 C1803 1.374 . S
C1805 C1802 1.499 . S
C1805 C1806 1.373 . S
C1805 C1807 1.389 . S
C1806 H1779 0.950 . S
C1806 C1792 1.377 . S
C1806 C1805 1.373 . S
C1807 C1791 1.377 . S
C1807 C1805 1.389 . S
C1807 C1808 1.524 . S
C1808 C1807 1.524 . S
C1808 C1809 1.397 . S
C1808 C1813 1.363 . S
C1809 H1780 0.950 . S
C1809 C1808 1.397 . S
C1809 C1810 1.334 . S
C1810 H1781 0.950 . S
C1810 C1809 1.334 . S
C1810 C1811 1.287 . S
C1811 C1810 1.287 . S
C1811 C1812 1.524 . S
C1811 H1814 0.999 . S
C1812 H1782 0.950 . S
C1812 C1811 1.524 . S
C1812 C1813 1.415 . S
C1813 H1783 0.950 . S
C1813 C1808 1.363 . S
C1813 C1812 1.415 . S
H1814 C1811 0.999 . S
H1815 C1796 0.913 . S
H1816 C1834 0.951 . S
H1817 C1836 0.951 . S
H1818 C1838 0.950 . S
H1819 C1839 0.950 . S
H1820 C1841 0.950 . S
H1821 C1844 0.950 . S
H1822 C1845 0.950 . S
H1823 C1847 0.950 . S
H1824 C1848 0.950 . S
H1825 C1849 0.951 . S
H1826 C1851 0.951 . S
H1827 C1853 0.950 . S
H1828 C1854 0.950 . S
H1829 C1856 0.950 . S
H1830 C1859 0.950 . S
H1831 C1860 0.950 . S
H1832 C1862 0.950 . S
H1833 C1863 0.950 . S
C1834 H1816 0.951 . S
C1834 C1835 1.366 . S
C1834 C1836 1.388 . S
C1835 C1834 1.366 . S
C1835 C1839 1.385 . S
C1836 H1817 0.951 . S
C1836 C1834 1.388 . S
C1836 C1837 1.366 . S
C1837 C1836 1.366 . S
C1837 C1838 1.414 . S
C1837 C1840 1.499 . S
C1838 H1818 0.950 . S
C1838 C1837 1.414 . S
C1838 C1839 1.374 . S
C1839 H1819 0.950 . S
C1839 C1835 1.385 . S
C1839 C1838 1.374 . S
C1840 C1837 1.499 . S
C1840 C1841 1.373 . S
C1840 C1842 1.389 . S
C1841 H1820 0.950 . S
C1841 C1840 1.373 . S
C1841 C1857 1.377 1_556 S
C1842 C1840 1.389 . S
C1842 C1843 1.524 . S
C1842 C1856 1.377 1_556 S
C1843 C1842 1.524 . S
C1843 C1844 1.397 . S
C1843 C1848 1.363 . S
C1844 H1821 0.950 . S
C1844 C1843 1.397 . S
C1844 C1845 1.334 . S
C1845 H1822 0.950 . S
C1845 C1844 1.334 . S
C1845 C1846 1.287 . S
C1846 C1845 1.287 . S
C1846 C1847 1.524 . S
C1846 H1865 0.913 . S
C1847 H1823 0.950 . S
C1847 C1846 1.524 . S
C1847 C1848 1.415 . S
C1848 H1824 0.950 . S
C1848 C1843 1.363 . S
C1848 C1847 1.415 . S
C1849 H1825 0.951 . S
C1849 C1850 1.366 . S
C1849 C1851 1.388 . S
C1850 C1849 1.366 . S
C1850 C1854 1.385 . S
C1851 H1826 0.951 . S
C1851 C1849 1.388 . S
C1851 C1852 1.366 . S
C1852 C1851 1.366 . S
C1852 C1853 1.414 . S
C1852 C1855 1.499 . S
C1853 H1827 0.950 . S
C1853 C1852 1.414 . S
C1853 C1854 1.374 . S
C1854 H1828 0.950 . S
C1854 C1850 1.385 . S
C1854 C1853 1.374 . S
C1855 C1852 1.499 . S
C1855 C1856 1.373 . S
C1855 C1857 1.389 . S
C1856 H1829 0.950 . S
C1856 C1842 1.377 1_554 S
C1856 C1855 1.373 . S
C1857 C1841 1.377 1_554 S
C1857 C1855 1.389 . S
C1857 C1858 1.524 . S
C1858 C1857 1.524 . S
C1858 C1859 1.397 . S
C1858 C1863 1.363 . S
C1859 H1830 0.950 . S
C1859 C1858 1.397 . S
C1859 C1860 1.334 . S
C1860 H1831 0.950 . S
C1860 C1859 1.334 . S
C1860 C1861 1.287 . S
C1861 C1860 1.287 . S
C1861 C1862 1.524 . S
C1861 H1864 0.999 . S
C1862 H1832 0.950 . S
C1862 C1861 1.524 . S
C1862 C1863 1.415 . S
C1863 H1833 0.950 . S
C1863 C1858 1.363 . S
C1863 C1862 1.415 . S
H1864 C1861 0.999 . S
H1865 C1846 0.913 . S
H1866 C1884 0.951 . S
H1867 C1886 0.951 . S
H1868 C1888 0.950 . S
H1869 C1889 0.950 . S
H1870 C1891 0.950 . S
H1871 C1894 0.950 . S
H1872 C1895 0.950 . S
H1873 C1897 0.950 . S
H1874 C1898 0.950 . S
H1875 C1899 0.951 . S
H1876 C1901 0.951 . S
H1877 C1903 0.950 . S
H1878 C1904 0.950 . S
H1879 C1906 0.950 . S
H1880 C1909 0.950 . S
H1881 C1910 0.950 . S
H1882 C1912 0.950 . S
H1883 C1913 0.950 . S
C1884 H1866 0.951 . S
C1884 C1885 1.366 . S
C1884 C1886 1.388 . S
C1885 C1884 1.366 . S
C1885 C1889 1.385 . S
C1886 H1867 0.951 . S
C1886 C1884 1.388 . S
C1886 C1887 1.366 . S
C1887 C1886 1.366 . S
C1887 C1888 1.414 . S
C1887 C1890 1.499 . S
C1888 H1868 0.950 . S
C1888 C1887 1.414 . S
C1888 C1889 1.374 . S
C1889 H1869 0.950 . S
C1889 C1885 1.385 . S
C1889 C1888 1.374 . S
C1890 C1887 1.499 . S
C1890 C1891 1.373 . S
C1890 C1892 1.389 . S
C1891 H1870 0.950 . S
C1891 C1890 1.373 . S
C1891 C1907 1.377 1_554 S
C1892 C1890 1.389 . S
C1892 C1893 1.524 . S
C1892 C1906 1.377 1_554 S
C1893 C1892 1.524 . S
C1893 C1894 1.397 . S
C1893 C1898 1.363 . S
C1894 H1871 0.950 . S
C1894 C1893 1.397 . S
C1894 C1895 1.334 . S
C1895 H1872 0.950 . S
C1895 C1894 1.334 . S
C1895 C1896 1.287 . S
C1896 C1895 1.287 . S
C1896 C1897 1.524 . S
C1896 H1915 0.913 . S
C1897 H1873 0.950 . S
C1897 C1896 1.524 . S
C1897 C1898 1.415 . S
C1898 H1874 0.950 . S
C1898 C1893 1.363 . S
C1898 C1897 1.415 . S
C1899 H1875 0.951 . S
C1899 C1900 1.366 . S
C1899 C1901 1.388 . S
C1900 C1899 1.366 . S
C1900 C1904 1.385 . S
C1901 H1876 0.951 . S
C1901 C1899 1.388 . S
C1901 C1902 1.366 . S
C1902 C1901 1.366 . S
C1902 C1903 1.414 . S
C1902 C1905 1.499 . S
C1903 H1877 0.950 . S
C1903 C1902 1.414 . S
C1903 C1904 1.374 . S
C1904 H1878 0.950 . S
C1904 C1900 1.385 . S
C1904 C1903 1.374 . S
C1905 C1902 1.499 . S
C1905 C1906 1.373 . S
C1905 C1907 1.389 . S
C1906 H1879 0.950 . S
C1906 C1892 1.377 1_556 S
C1906 C1905 1.373 . S
C1907 C1891 1.377 1_556 S
C1907 C1905 1.389 . S
C1907 C1908 1.524 . S
C1908 C1907 1.524 . S
C1908 C1909 1.397 . S
C1908 C1913 1.363 . S
C1909 H1880 0.950 . S
C1909 C1908 1.397 . S
C1909 C1910 1.334 . S
C1910 H1881 0.950 . S
C1910 C1909 1.334 . S
C1910 C1911 1.287 . S
C1911 C1910 1.287 . S
C1911 C1912 1.524 . S
C1911 H1914 0.999 . S
C1912 H1882 0.950 . S
C1912 C1911 1.524 . S
C1912 C1913 1.415 . S
C1913 H1883 0.950 . S
C1913 C1908 1.363 . S
C1913 C1912 1.415 . S
H1914 C1911 0.999 . S
H1915 C1896 0.913 . S
H1916 C1934 0.951 . S
H1917 C1936 0.951 . S
H1918 C1938 0.950 . S
H1919 C1939 0.950 . S
H1920 C1941 0.950 . S
H1921 C1944 0.950 . S
H1922 C1945 0.950 . S
H1923 C1947 0.950 . S
H1924 C1948 0.950 . S
H1925 C1949 0.951 . S
H1926 C1951 0.951 . S
H1927 C1953 0.950 . S
H1928 C1954 0.950 . S
H1929 C1956 0.950 . S
H1930 C1959 0.950 . S
H1931 C1960 0.950 . S
H1932 C1962 0.950 . S
H1933 C1963 0.950 . S
C1934 H1916 0.951 . S
C1934 C1935 1.366 . S
C1934 C1936 1.388 . S
C1935 C1934 1.366 . S
C1935 C1939 1.385 . S
C1936 H1917 0.951 . S
C1936 C1934 1.388 . S
C1936 C1937 1.366 . S
C1937 C1936 1.366 . S
C1937 C1938 1.414 . S
C1937 C1940 1.499 . S
C1938 H1918 0.950 . S
C1938 C1937 1.414 . S
C1938 C1939 1.374 . S
C1939 H1919 0.950 . S
C1939 C1935 1.385 . S
C1939 C1938 1.374 . S
C1940 C1937 1.499 . S
C1940 C1941 1.373 . S
C1940 C1942 1.389 . S
C1941 H1920 0.950 . S
C1941 C1940 1.373 . S
C1941 C1957 1.377 1_554 S
C1942 C1940 1.389 . S
C1942 C1943 1.524 . S
C1942 C1956 1.377 1_554 S
C1943 C1942 1.524 . S
C1943 C1944 1.397 . S
C1943 C1948 1.363 . S
C1944 H1921 0.950 . S
C1944 C1943 1.397 . S
C1944 C1945 1.334 . S
C1945 H1922 0.950 . S
C1945 C1944 1.334 . S
C1945 C1946 1.287 . S
C1946 C1945 1.287 . S
C1946 C1947 1.524 . S
C1946 H1965 0.913 . S
C1947 H1923 0.950 . S
C1947 C1946 1.524 . S
C1947 C1948 1.415 . S
C1948 H1924 0.950 . S
C1948 C1943 1.363 . S
C1948 C1947 1.415 . S
C1949 H1925 0.951 . S
C1949 C1950 1.366 . S
C1949 C1951 1.388 . S
C1950 C1949 1.366 . S
C1950 C1954 1.385 . S
C1951 H1926 0.951 . S
C1951 C1949 1.388 . S
C1951 C1952 1.366 . S
C1952 C1951 1.366 . S
C1952 C1953 1.414 . S
C1952 C1955 1.499 . S
C1953 H1927 0.950 . S
C1953 C1952 1.414 . S
C1953 C1954 1.374 . S
C1954 H1928 0.950 . S
C1954 C1950 1.385 . S
C1954 C1953 1.374 . S
C1955 C1952 1.499 . S
C1955 C1956 1.373 . S
C1955 C1957 1.389 . S
C1956 H1929 0.950 . S
C1956 C1942 1.377 1_556 S
C1956 C1955 1.373 . S
C1957 C1941 1.377 1_556 S
C1957 C1955 1.389 . S
C1957 C1958 1.524 . S
C1958 C1957 1.524 . S
C1958 C1959 1.397 . S
C1958 C1963 1.363 . S
C1959 H1930 0.950 . S
C1959 C1958 1.397 . S
C1959 C1960 1.334 . S
C1960 H1931 0.950 . S
C1960 C1959 1.334 . S
C1960 C1961 1.287 . S
C1961 C1960 1.287 . S
C1961 C1962 1.524 . S
C1961 H1964 0.999 . S
C1962 H1932 0.950 . S
C1962 C1961 1.524 . S
C1962 C1963 1.415 . S
C1963 H1933 0.950 . S
C1963 C1958 1.363 . S
C1963 C1962 1.415 . S
H1964 C1961 0.999 . S
H1965 C1946 0.913 . S
H1966 C1984 0.951 . S
H1967 C1986 0.951 . S
H1968 C1988 0.950 . S
H1969 C1989 0.950 . S
H1970 C1991 0.950 . S
H1971 C1994 0.950 . S
H1972 C1995 0.950 . S
H1973 C1997 0.950 . S
H1974 C1998 0.950 . S
H1975 C1999 0.951 . S
H1976 C2001 0.951 . S
H1977 C2003 0.950 . S
H1978 C2004 0.950 . S
H1979 C2006 0.950 . S
H1980 C2009 0.950 . S
H1981 C2010 0.950 . S
H1982 C2012 0.950 . S
H1983 C2013 0.950 . S
C1984 H1966 0.951 . S
C1984 C1985 1.366 . S
C1984 C1986 1.388 . S
C1985 C1984 1.366 . S
C1985 C1989 1.385 . S
C1986 H1967 0.951 . S
C1986 C1984 1.388 . S
C1986 C1987 1.366 . S
C1987 C1986 1.366 . S
C1987 C1988 1.414 . S
C1987 C1990 1.499 . S
C1988 H1968 0.950 . S
C1988 C1987 1.414 . S
C1988 C1989 1.374 . S
C1989 H1969 0.950 . S
C1989 C1985 1.385 . S
C1989 C1988 1.374 . S
C1990 C1987 1.499 . S
C1990 C1991 1.373 . S
C1990 C1992 1.389 . S
C1991 H1970 0.950 . S
C1991 C1990 1.373 . S
C1991 C2007 1.377 1_556 S
C1992 C1990 1.389 . S
C1992 C1993 1.524 . S
C1992 C2006 1.377 1_556 S
C1993 C1992 1.524 . S
C1993 C1994 1.397 . S
C1993 C1998 1.363 . S
C1994 H1971 0.950 . S
C1994 C1993 1.397 . S
C1994 C1995 1.334 . S
C1995 H1972 0.950 . S
C1995 C1994 1.334 . S
C1995 C1996 1.287 . S
C1996 C1995 1.287 . S
C1996 C1997 1.524 . S
C1996 H2015 0.913 . S
C1997 H1973 0.950 . S
C1997 C1996 1.524 . S
C1997 C1998 1.415 . S
C1998 H1974 0.950 . S
C1998 C1993 1.363 . S
C1998 C1997 1.415 . S
C1999 H1975 0.951 . S
C1999 C2000 1.366 . S
C1999 C2001 1.388 . S
C2000 C1999 1.366 . S
C2000 C2004 1.385 . S
C2001 H1976 0.951 . S
C2001 C1999 1.388 . S
C2001 C2002 1.366 . S
C2002 C2001 1.366 . S
C2002 C2003 1.414 . S
C2002 C2005 1.499 . S
C2003 H1977 0.950 . S
C2003 C2002 1.414 . S
C2003 C2004 1.374 . S
C2004 H1978 0.950 . S
C2004 C2000 1.385 . S
C2004 C2003 1.374 . S
C2005 C2002 1.499 . S
C2005 C2006 1.373 . S
C2005 C2007 1.389 . S
C2006 H1979 0.950 . S
C2006 C1992 1.377 1_554 S
C2006 C2005 1.373 . S
C2007 C1991 1.377 1_554 S
C2007 C2005 1.389 . S
C2007 C2008 1.524 . S
C2008 C2007 1.524 . S
C2008 C2009 1.397 . S
C2008 C2013 1.363 . S
C2009 H1980 0.950 . S
C2009 C2008 1.397 . S
C2009 C2010 1.334 . S
C2010 H1981 0.950 . S
C2010 C2009 1.334 . S
C2010 C2011 1.287 . S
C2011 C2010 1.287 . S
C2011 C2012 1.524 . S
C2011 H2014 0.999 . S
C2012 H1982 0.950 . S
C2012 C2011 1.524 . S
C2012 C2013 1.415 . S
C2013 H1983 0.950 . S
C2013 C2008 1.363 . S
C2013 C2012 1.415 . S
H2014 C2011 0.999 . S
H2015 C1996 0.913 . S
H2016 C2034 0.951 . S
H2017 C2036 0.951 . S
H2018 C2038 0.950 . S
H2019 C2039 0.950 . S
H2020 C2041 0.950 . S
H2021 C2044 0.950 . S
H2022 C2045 0.950 . S
H2023 C2047 0.950 . S
H2024 C2048 0.950 . S
H2025 C2049 0.951 . S
H2026 C2051 0.951 . S
H2027 C2053 0.950 . S
H2028 C2054 0.950 . S
H2029 C2056 0.950 . S
H2030 C2059 0.950 . S
H2031 C2060 0.950 . S
H2032 C2062 0.950 . S
H2033 C2063 0.950 . S
C2034 H2016 0.951 . S
C2034 C2035 1.366 . S
C2034 C2036 1.388 . S
C2035 C2034 1.366 . S
C2035 C2039 1.385 . S
C2036 H2017 0.951 . S
C2036 C2034 1.388 . S
C2036 C2037 1.366 . S
C2037 C2036 1.366 . S
C2037 C2038 1.414 . S
C2037 C2040 1.499 . S
C2038 H2018 0.950 . S
C2038 C2037 1.414 . S
C2038 C2039 1.374 . S
C2039 H2019 0.950 . S
C2039 C2035 1.385 . S
C2039 C2038 1.374 . S
C2040 C2037 1.499 . S
C2040 C2041 1.373 . S
C2040 C2042 1.415 . S
C2041 H2020 0.950 . S
C2041 C2040 1.373 . S
C2041 C2057 1.350 1_545 S
C2042 C2040 1.415 . S
C2042 C2043 1.524 . S
C2042 C2056 1.350 1_545 S
C2043 C2042 1.524 . S
C2043 C2044 1.433 . S
C2043 C2048 1.327 1_545 S
C2044 H2021 0.950 . S
C2044 C2043 1.433 . S
C2044 C2045 1.334 . S
C2045 H2022 0.950 . S
C2045 C2044 1.334 . S
C2045 C2046 1.287 . S
C2046 C2045 1.287 . S
C2046 C2047 1.524 1_545 S
C2046 H2065 0.913 . S
C2047 H2023 0.950 . S
C2047 C2046 1.524 1_565 S
C2047 C2048 1.415 . S
C2048 H2024 0.950 . S
C2048 C2043 1.327 1_565 S
C2048 C2047 1.415 . S
C2049 H2025 0.951 . S
C2049 C2050 1.366 . S
C2049 C2051 1.388 . S
C2050 C2049 1.366 . S
C2050 C2054 1.385 . S
C2051 H2026 0.951 . S
C2051 C2049 1.388 . S
C2051 C2052 1.366 . S
C2052 C2051 1.366 . S
C2052 C2053 1.414 . S
C2052 C2055 1.499 . S
C2053 H2027 0.950 . S
C2053 C2052 1.414 . S
C2053 C2054 1.374 . S
C2054 H2028 0.950 . S
C2054 C2050 1.385 . S
C2054 C2053 1.374 . S
C2055 C2052 1.499 . S
C2055 C2056 1.373 . S
C2055 C2057 1.415 . S
C2056 H2029 0.950 . S
C2056 C2042 1.350 1_565 S
C2056 C2055 1.373 . S
C2057 C2041 1.350 1_565 S
C2057 C2055 1.415 . S
C2057 C2058 1.524 . S
C2058 C2057 1.524 . S
C2058 C2059 1.433 . S
C2058 C2063 1.327 1_565 S
C2059 H2030 0.950 . S
C2059 C2058 1.433 . S
C2059 C2060 1.334 . S
C2060 H2031 0.950 . S
C2060 C2059 1.334 . S
C2060 C2061 1.287 . S
C2061 C2060 1.287 . S
C2061 C2062 1.524 1_565 S
C2061 H2064 0.999 . S
C2062 H2032 0.950 . S
C2062 C2061 1.524 1_545 S
C2062 C2063 1.415 . S
C2063 H2033 0.950 . S
C2063 C2058 1.327 1_545 S
C2063 C2062 1.415 . S
H2064 C2061 0.999 . S
H2065 C2046 0.913 . S
H2066 C2084 0.951 . S
H2067 C2086 0.951 . S
H2068 C2088 0.950 . S
H2069 C2089 0.950 . S
H2070 C2091 0.950 . S
H2071 C2094 0.950 . S
H2072 C2095 0.950 . S
H2073 C2097 0.950 . S
H2074 C2098 0.950 . S
H2075 C2099 0.951 . S
H2076 C2101 0.951 . S
H2077 C2103 0.950 . S
H2078 C2104 0.950 . S
H2079 C2106 0.950 . S
H2080 C2109 0.950 . S
H2081 C2110 0.950 . S
H2082 C2112 0.950 . S
H2083 C2113 0.950 . S
C2084 H2066 0.951 . S
C2084 C2085 1.366 . S
C2084 C2086 1.388 . S
C2085 C2084 1.366 . S
C2085 C2089 1.385 . S
C2086 H2067 0.951 . S
C2086 C2084 1.388 . S
C2086 C2087 1.366 . S
C2087 C2086 1.366 . S
C2087 C2088 1.414 . S
C2087 C2090 1.499 . S
C2088 H2068 0.950 . S
C2088 C2087 1.414 . S
C2088 C2089 1.374 . S
C2089 H2069 0.950 . S
C2089 C2085 1.385 . S
C2089 C2088 1.374 . S
C2090 C2087 1.499 . S
C2090 C2091 1.373 . S
C2090 C2092 1.389 . S
C2091 H2070 0.950 . S
C2091 C2090 1.373 . S
C2091 C2107 1.377 1_655 S
C2092 C2090 1.389 . S
C2092 C2093 1.524 . S
C2092 C2106 1.377 1_655 S
C2093 C2092 1.524 . S
C2093 C2094 1.397 . S
C2093 C2098 1.363 1_655 S
C2094 H2071 0.950 . S
C2094 C2093 1.397 . S
C2094 C2095 1.334 . S
C2095 H2072 0.950 . S
C2095 C2094 1.334 . S
C2095 C2096 1.287 . S
C2096 C2095 1.287 . S
C2096 C2097 1.524 1_655 S
C2096 H2115 0.913 . S
C2097 H2073 0.950 . S
C2097 C2096 1.524 1_455 S
C2097 C2098 1.415 . S
C2098 H2074 0.950 . S
C2098 C2093 1.363 1_455 S
C2098 C2097 1.415 . S
C2099 H2075 0.951 . S
C2099 C2100 1.366 . S
C2099 C2101 1.388 . S
C2100 C2099 1.366 . S
C2100 C2104 1.385 . S
C2101 H2076 0.951 . S
C2101 C2099 1.388 . S
C2101 C2102 1.366 . S
C2102 C2101 1.366 . S
C2102 C2103 1.414 . S
C2102 C2105 1.499 . S
C2103 H2077 0.950 . S
C2103 C2102 1.414 . S
C2103 C2104 1.374 . S
C2104 H2078 0.950 . S
C2104 C2100 1.385 . S
C2104 C2103 1.374 . S
C2105 C2102 1.499 . S
C2105 C2106 1.373 . S
C2105 C2107 1.389 . S
C2106 H2079 0.950 . S
C2106 C2092 1.377 1_455 S
C2106 C2105 1.373 . S
C2107 C2091 1.377 1_455 S
C2107 C2105 1.389 . S
C2107 C2108 1.524 . S
C2108 C2107 1.524 . S
C2108 C2109 1.397 . S
C2108 C2113 1.363 1_455 S
C2109 H2080 0.950 . S
C2109 C2108 1.397 . S
C2109 C2110 1.334 . S
C2110 H2081 0.950 . S
C2110 C2109 1.334 . S
C2110 C2111 1.287 . S
C2111 C2110 1.287 . S
C2111 C2112 1.524 1_455 S
C2111 H2114 0.999 . S
C2112 H2082 0.950 . S
C2112 C2111 1.524 1_655 S
C2112 C2113 1.415 . S
C2113 H2083 0.950 . S
C2113 C2108 1.363 1_655 S
C2113 C2112 1.415 . S
H2114 C2111 0.999 . S
H2115 C2096 0.913 . S
H2116 C2134 0.951 . S
H2117 C2136 0.951 . S
H2118 C2138 0.950 . S
H2119 C2139 0.950 . S
H2120 C2141 0.950 1_565 S
H2121 C2144 0.950 . S
H2122 C2145 0.950 . S
H2123 C2147 0.950 . S
H2124 C2148 0.950 . S
H2125 C2149 0.951 . S
H2126 C2151 0.951 . S
H2127 C2153 0.950 . S
H2128 C2154 0.950 . S
H2129 C2156 0.950 1_545 S
H2130 C2159 0.950 . S
H2131 C2160 0.950 . S
H2132 C2162 0.950 . S
H2133 C2163 0.950 . S
C2134 H2116 0.951 . S
C2134 C2135 1.366 . S
C2134 C2136 1.388 . S
C2135 C2134 1.366 . S
C2135 C2139 1.385 . S
C2136 H2117 0.951 . S
C2136 C2134 1.388 . S
C2136 C2137 1.366 . S
C2137 C2136 1.366 . S
C2137 C2138 1.414 . S
C2137 C2140 1.499 . S
C2138 H2118 0.950 . S
C2138 C2137 1.414 . S
C2138 C2139 1.374 . S
C2139 H2119 0.950 . S
C2139 C2135 1.385 . S
C2139 C2138 1.374 . S
C2140 C2137 1.499 . S
C2140 C2141 1.369 . S
C2140 C2142 1.389 . S
C2141 H2120 0.950 1_545 S
C2141 C2140 1.369 . S
C2141 C2157 1.381 1_545 S
C2142 C2140 1.389 . S
C2142 C2143 1.524 . S
C2142 C2156 1.381 1_545 S
C2143 C2142 1.524 . S
C2143 C2144 1.397 . S
C2143 C2148 1.363 . S
C2144 H2121 0.950 . S
C2144 C2143 1.397 . S
C2144 C2145 1.334 . S
C2145 H2122 0.950 . S
C2145 C2144 1.334 . S
C2145 C2146 1.287 . S
C2146 C2145 1.287 . S
C2146 C2147 1.524 . S
C2146 H2165 0.913 . S
C2147 H2123 0.950 . S
C2147 C2146 1.524 . S
C2147 C2148 1.415 . S
C2148 H2124 0.950 . S
C2148 C2143 1.363 . S
C2148 C2147 1.415 . S
C2149 H2125 0.951 . S
C2149 C2150 1.366 . S
C2149 C2151 1.388 . S
C2150 C2149 1.366 . S
C2150 C2154 1.385 . S
C2151 H2126 0.951 . S
C2151 C2149 1.388 . S
C2151 C2152 1.366 . S
C2152 C2151 1.366 . S
C2152 C2153 1.414 . S
C2152 C2155 1.499 . S
C2153 H2127 0.950 . S
C2153 C2152 1.414 . S
C2153 C2154 1.374 . S
C2154 H2128 0.950 . S
C2154 C2150 1.385 . S
C2154 C2153 1.374 . S
C2155 C2152 1.499 . S
C2155 C2156 1.369 . S
C2155 C2157 1.389 . S
C2156 H2129 0.950 1_565 S
C2156 C2142 1.381 1_565 S
C2156 C2155 1.369 . S
C2157 C2141 1.381 1_565 S
C2157 C2155 1.389 . S
C2157 C2158 1.524 . S
C2158 C2157 1.524 . S
C2158 C2159 1.397 . S
C2158 C2163 1.363 . S
C2159 H2130 0.950 . S
C2159 C2158 1.397 . S
C2159 C2160 1.334 . S
C2160 H2131 0.950 . S
C2160 C2159 1.334 . S
C2160 C2161 1.287 . S
C2161 C2160 1.287 . S
C2161 C2162 1.524 . S
C2161 H2164 0.999 . S
C2162 H2132 0.950 . S
C2162 C2161 1.524 . S
C2162 C2163 1.415 . S
C2163 H2133 0.950 . S
C2163 C2158 1.363 . S
C2163 C2162 1.415 . S
H2164 C2161 0.999 . S
H2165 C2146 0.913 . S
H2166 C2184 0.951 . S
H2167 C2186 0.951 . S
H2168 C2188 0.950 . S
H2169 C2189 0.950 . S
H2170 C2191 0.950 . S
H2171 C2194 0.950 . S
H2172 C2195 0.950 . S
H2173 C2197 0.950 . S
H2174 C2198 0.950 . S
H2175 C2199 0.951 . S
H2176 C2201 0.951 . S
H2177 C2203 0.950 . S
H2178 C2204 0.950 . S
H2179 C2206 0.950 . S
H2180 C2209 0.950 . S
H2181 C2210 0.950 . S
H2182 C2212 0.950 . S
H2183 C2213 0.950 . S
C2184 H2166 0.951 . S
C2184 C2185 1.366 . S
C2184 C2186 1.388 . S
C2185 C2184 1.366 . S
C2185 C2189 1.385 . S
C2186 H2167 0.951 . S
C2186 C2184 1.388 . S
C2186 C2187 1.366 . S
C2187 C2186 1.366 . S
C2187 C2188 1.414 . S
C2187 C2190 1.499 . S
C2188 H2168 0.950 . S
C2188 C2187 1.414 . S
C2188 C2189 1.374 . S
C2189 H2169 0.950 . S
C2189 C2185 1.385 . S
C2189 C2188 1.374 . S
C2190 C2187 1.499 . S
C2190 C2191 1.373 . S
C2190 C2192 1.413 . S
C2191 H2170 0.950 . S
C2191 C2190 1.373 . S
C2191 C2207 1.352 1_455 S
C2192 C2190 1.413 . S
C2192 C2193 1.524 . S
C2192 C2206 1.352 1_455 S
C2193 C2192 1.524 . S
C2193 C2194 1.428 . S
C2193 C2198 1.332 1_455 S
C2194 H2171 0.950 . S
C2194 C2193 1.428 . S
C2194 C2195 1.334 . S
C2195 H2172 0.950 . S
C2195 C2194 1.334 . S
C2195 C2196 1.287 . S
C2196 C2195 1.287 . S
C2196 C2197 1.524 1_455 S
C2196 H2215 0.913 . S
C2197 H2173 0.950 . S
C2197 C2196 1.524 1_655 S
C2197 C2198 1.415 . S
C2198 H2174 0.950 . S
C2198 C2193 1.332 1_655 S
C2198 C2197 1.415 . S
C2199 H2175 0.951 . S
C2199 C2200 1.366 . S
C2199 C2201 1.388 . S
C2200 C2199 1.366 . S
C2200 C2204 1.385 . S
C2201 H2176 0.951 . S
C2201 C2199 1.388 . S
C2201 C2202 1.366 . S
C2202 C2201 1.366 . S
C2202 C2203 1.414 . S
C2202 C2205 1.499 . S
C2203 H2177 0.950 . S
C2203 C2202 1.414 . S
C2203 C2204 1.374 . S
C2204 H2178 0.950 . S
C2204 C2200 1.385 . S
C2204 C2203 1.374 . S
C2205 C2202 1.499 . S
C2205 C2206 1.373 . S
C2205 C2207 1.413 . S
C2206 H2179 0.950 . S
C2206 C2192 1.352 1_655 S
C2206 C2205 1.373 . S
C2207 C2191 1.352 1_655 S
C2207 C2205 1.413 . S
C2207 C2208 1.524 . S
C2208 C2207 1.524 . S
C2208 C2209 1.428 . S
C2208 C2213 1.332 1_655 S
C2209 H2180 0.950 . S
C2209 C2208 1.428 . S
C2209 C2210 1.334 . S
C2210 H2181 0.950 . S
C2210 C2209 1.334 . S
C2210 C2211 1.287 . S
C2211 C2210 1.287 . S
C2211 C2212 1.524 1_655 S
C2211 H2214 0.999 . S
C2212 H2182 0.950 . S
C2212 C2211 1.524 1_455 S
C2212 C2213 1.415 . S
C2213 H2183 0.950 . S
C2213 C2208 1.332 1_455 S
C2213 C2212 1.415 . S
H2214 C2211 0.999 . S
H2215 C2196 0.913 . S
H2216 C2234 0.951 . S
H2217 C2236 0.951 . S
H2218 C2238 0.950 . S
H2219 C2239 0.950 . S
H2220 C2241 0.950 . S
H2221 C2244 0.950 . S
H2222 C2245 0.950 . S
H2223 C2247 0.950 . S
H2224 C2248 0.950 . S
H2225 C2249 0.951 . S
H2226 C2251 0.951 . S
H2227 C2253 0.950 . S
H2228 C2254 0.950 . S
H2229 C2256 0.950 . S
H2230 C2259 0.950 . S
H2231 C2260 0.950 . S
H2232 C2262 0.950 . S
H2233 C2263 0.950 . S
C2234 H2216 0.951 . S
C2234 C2235 1.366 . S
C2234 C2236 1.388 . S
C2235 C2234 1.366 . S
C2235 C2239 1.385 . S
C2236 H2217 0.951 . S
C2236 C2234 1.388 . S
C2236 C2237 1.366 . S
C2237 C2236 1.366 . S
C2237 C2238 1.414 . S
C2237 C2240 1.499 . S
C2238 H2218 0.950 . S
C2238 C2237 1.414 . S
C2238 C2239 1.374 . S
C2239 H2219 0.950 . S
C2239 C2235 1.385 . S
C2239 C2238 1.374 . S
C2240 C2237 1.499 . S
C2240 C2241 1.373 1_565 S
C2240 C2242 1.389 . S
C2241 H2220 0.950 . S
C2241 C2240 1.373 1_545 S
C2241 C2257 1.377 . S
C2242 C2240 1.389 . S
C2242 C2243 1.524 . S
C2242 C2256 1.377 . S
C2243 C2242 1.524 . S
C2243 C2244 1.397 . S
C2243 C2248 1.363 . S
C2244 H2221 0.950 . S
C2244 C2243 1.397 . S
C2244 C2245 1.334 . S
C2245 H2222 0.950 . S
C2245 C2244 1.334 . S
C2245 C2246 1.287 . S
C2246 C2245 1.287 . S
C2246 C2247 1.524 . S
C2246 H2265 0.913 . S
C2247 H2223 0.950 . S
C2247 C2246 1.524 . S
C2247 C2248 1.415 . S
C2248 H2224 0.950 . S
C2248 C2243 1.363 . S
C2248 C2247 1.415 . S
C2249 H2225 0.951 . S
C2249 C2250 1.366 . S
C2249 C2251 1.388 . S
C2250 C2249 1.366 . S
C2250 C2254 1.385 . S
C2251 H2226 0.951 . S
C2251 C2249 1.388 . S
C2251 C2252 1.366 . S
C2252 C2251 1.366 . S
C2252 C2253 1.414 . S
C2252 C2255 1.499 . S
C2253 H2227 0.950 . S
C2253 C2252 1.414 . S
C2253 C2254 1.374 . S
C2254 H2228 0.950 . S
C2254 C2250 1.385 . S
C2254 C2253 1.374 . S
C2255 C2252 1.499 . S
C2255 C2256 1.373 1_545 S
C2255 C2257 1.389 . S
C2256 H2229 0.950 . S
C2256 C2242 1.377 . S
C2256 C2255 1.373 1_565 S
C2257 C2241 1.377 . S
C2257 C2255 1.389 . S
C2257 C2258 1.524 . S
C2258 C2257 1.524 . S
C2258 C2259 1.397 . S
C2258 C2263 1.363 . S
C2259 H2230 0.950 . S
C2259 C2258 1.397 . S
C2259 C2260 1.334 . S
C2260 H2231 0.950 . S
C2260 C2259 1.334 . S
C2260 C2261 1.287 . S
C2261 C2260 1.287 . S
C2261 C2262 1.524 . S
C2261 H2264 0.999 . S
C2262 H2232 0.950 . S
C2262 C2261 1.524 . S
C2262 C2263 1.415 . S
C2263 H2233 0.950 . S
C2263 C2258 1.363 . S
C2263 C2262 1.415 . S
H2264 C2261 0.999 . S
H2265 C2246 0.913 . S
H2266 C2284 0.951 . S
H2267 C2286 0.951 . S
H2268 C2288 0.950 . S
H2269 C2289 0.950 . S
H2270 C2291 0.950 . S
H2271 C2294 0.950 . S
H2272 C2295 0.950 . S
H2273 C2297 0.950 . S
H2274 C2298 0.950 . S
H2275 C2299 0.951 . S
H2276 C2301 0.951 . S
H2277 C2303 0.950 . S
H2278 C2304 0.950 . S
H2279 C2306 0.950 . S
H2280 C2309 0.950 . S
H2281 C2310 0.950 . S
H2282 C2312 0.950 . S
H2283 C2313 0.950 . S
C2284 H2266 0.951 . S
C2284 C2285 1.366 . S
C2284 C2286 1.388 . S
C2285 C2284 1.366 . S
C2285 C2289 1.385 . S
C2286 H2267 0.951 . S
C2286 C2284 1.388 . S
C2286 C2287 1.366 . S
C2287 C2286 1.366 . S
C2287 C2288 1.414 . S
C2287 C2290 1.499 . S
C2288 H2268 0.950 . S
C2288 C2287 1.414 . S
C2288 C2289 1.374 . S
C2289 H2269 0.950 . S
C2289 C2285 1.385 . S
C2289 C2288 1.374 . S
C2290 C2287 1.499 . S
C2290 C2291 1.373 1_655 S
C2290 C2292 1.389 . S
C2291 H2270 0.950 . S
C2291 C2290 1.373 1_455 S
C2291 C2307 1.377 . S
C2292 C2290 1.389 . S
C2292 C2293 1.524 . S
C2292 C2306 1.377 . S
C2293 C2292 1.524 . S
C2293 C2294 1.397 . S
C2293 C2298 1.363 . S
C2294 H2271 0.950 . S
C2294 C2293 1.397 . S
C2294 C2295 1.334 . S
C2295 H2272 0.950 . S
C2295 C2294 1.334 . S
C2295 C2296 1.287 . S
C2296 C2295 1.287 . S
C2296 C2297 1.524 . S
C2296 H2315 0.913 . S
C2297 H2273 0.950 . S
C2297 C2296 1.524 . S
C2297 C2298 1.415 . S
C2298 H2274 0.950 . S
C2298 C2293 1.363 . S
C2298 C2297 1.415 . S
C2299 H2275 0.951 . S
C2299 C2300 1.366 . S
C2299 C2301 1.388 . S
C2300 C2299 1.366 . S
C2300 C2304 1.385 . S
C2301 H2276 0.951 . S
C2301 C2299 1.388 . S
C2301 C2302 1.366 . S
C2302 C2301 1.366 . S
C2302 C2303 1.414 . S
C2302 C2305 1.499 . S
C2303 H2277 0.950 . S
C2303 C2302 1.414 . S
C2303 C2304 1.374 . S
C2304 H2278 0.950 . S
C2304 C2300 1.385 . S
C2304 C2303 1.374 . S
C2305 C2302 1.499 . S
C2305 C2306 1.373 1_455 S
C2305 C2307 1.389 . S
C2306 H2279 0.950 . S
C2306 C2292 1.377 . S
C2306 C2305 1.373 1_655 S
C2307 C2291 1.377 . S
C2307 C2305 1.389 . S
C2307 C2308 1.524 . S
C2308 C2307 1.524 . S
C2308 C2309 1.397 . S
C2308 C2313 1.363 . S
C2309 H2280 0.950 . S
C2309 C2308 1.397 . S
C2309 C2310 1.334 . S
C2310 H2281 0.950 . S
C2310 C2309 1.334 . S
C2310 C2311 1.287 . S
C2311 C2310 1.287 . S
C2311 C2312 1.524 . S
C2311 H2314 0.999 . S
C2312 H2282 0.950 . S
C2312 C2311 1.524 . S
C2312 C2313 1.415 . S
C2313 H2283 0.950 . S
C2313 C2308 1.363 . S
C2313 C2312 1.415 . S
H2314 C2311 0.999 . S
H2315 C2296 0.913 . S
H2316 C2334 0.951 . S
H2317 C2336 0.951 . S
H2318 C2338 0.950 . S
H2319 C2339 0.950 . S
H2320 C2341 0.950 . S
H2321 C2344 0.950 . S
H2322 C2345 0.950 . S
H2323 C2347 0.949 . S
H2324 C2348 0.950 1_545 S
H2325 C2349 0.951 . S
H2326 C2351 0.951 . S
H2327 C2353 0.950 . S
H2328 C2354 0.950 . S
H2329 C2356 0.950 . S
H2330 C2359 0.950 . S
H2331 C2360 0.950 . S
H2332 C2362 0.949 . S
H2333 C2363 0.950 1_565 S
C2334 H2316 0.951 . S
C2334 C2335 1.366 . S
C2334 C2336 1.388 . S
C2335 C2334 1.366 . S
C2335 C2339 1.385 . S
C2336 H2317 0.951 . S
C2336 C2334 1.388 . S
C2336 C2337 1.366 . S
C2337 C2336 1.366 . S
C2337 C2338 1.414 . S
C2337 C2340 1.499 . S
C2338 H2318 0.950 . S
C2338 C2337 1.414 . S
C2338 C2339 1.374 . S
C2339 H2319 0.950 . S
C2339 C2335 1.385 . S
C2339 C2338 1.374 . S
C2340 C2337 1.499 . S
C2340 C2341 1.373 . S
C2340 C2342 1.389 . S
C2341 H2320 0.950 . S
C2341 C2340 1.373 . S
C2341 C2357 1.377 1_565 S
C2342 C2340 1.389 . S
C2342 C2343 1.524 . S
C2342 C2356 1.377 1_565 S
C2343 C2342 1.524 . S
C2343 C2344 1.397 . S
C2343 C2348 1.363 . S
C2344 H2321 0.950 . S
C2344 C2343 1.397 . S
C2344 C2345 1.334 . S
C2345 H2322 0.950 . S
C2345 C2344 1.334 . S
C2345 C2346 1.287 . S
C2346 C2345 1.287 . S
C2346 C2347 1.524 . S
C2346 H2365 0.913 . S
C2347 H2323 0.949 . S
C2347 C2346 1.524 . S
C2347 C2348 1.415 . S
C2348 H2324 0.950 1_565 S
C2348 C2343 1.363 . S
C2348 C2347 1.415 . S
C2349 H2325 0.951 . S
C2349 C2350 1.366 . S
C2349 C2351 1.388 . S
C2350 C2349 1.366 . S
C2350 C2354 1.385 . S
C2351 H2326 0.951 . S
C2351 C2349 1.388 . S
C2351 C2352 1.366 . S
C2352 C2351 1.366 . S
C2352 C2353 1.414 . S
C2352 C2355 1.499 . S
C2353 H2327 0.950 . S
C2353 C2352 1.414 . S
C2353 C2354 1.374 . S
C2354 H2328 0.950 . S
C2354 C2350 1.385 . S
C2354 C2353 1.374 . S
C2355 C2352 1.499 . S
C2355 C2356 1.373 . S
C2355 C2357 1.389 . S
C2356 H2329 0.950 . S
C2356 C2342 1.377 1_545 S
C2356 C2355 1.373 . S
C2357 C2341 1.377 1_545 S
C2357 C2355 1.389 . S
C2357 C2358 1.524 . S
C2358 C2357 1.524 . S
C2358 C2359 1.397 . S
C2358 C2363 1.363 . S
C2359 H2330 0.950 . S
C2359 C2358 1.397 . S
C2359 C2360 1.334 . S
C2360 H2331 0.950 . S
C2360 C2359 1.334 . S
C2360 C2361 1.287 . S
C2361 C2360 1.287 . S
C2361 C2362 1.524 . S
C2361 H2364 0.999 . S
C2362 H2332 0.949 . S
C2362 C2361 1.524 . S
C2362 C2363 1.415 . S
C2363 H2333 0.950 1_545 S
C2363 C2358 1.363 . S
C2363 C2362 1.415 . S
H2364 C2361 0.999 . S
H2365 C2346 0.913 . S
H2366 C2384 0.951 . S
H2367 C2386 0.951 . S
H2368 C2388 0.950 . S
H2369 C2389 0.950 . S
H2370 C2391 0.950 . S
H2371 C2394 0.950 . S
H2372 C2395 0.950 . S
H2373 C2397 0.950 . S
H2374 C2398 0.950 . S
H2375 C2399 0.951 . S
H2376 C2401 0.951 . S
H2377 C2403 0.950 . S
H2378 C2404 0.950 . S
H2379 C2406 0.950 . S
H2380 C2409 0.950 . S
H2381 C2410 0.950 . S
H2382 C2412 0.950 . S
H2383 C2413 0.950 . S
C2384 H2366 0.951 . S
C2384 C2385 1.366 . S
C2384 C2386 1.388 . S
C2385 C2384 1.366 . S
C2385 C2389 1.385 . S
C2386 H2367 0.951 . S
C2386 C2384 1.388 . S
C2386 C2387 1.366 . S
C2387 C2386 1.366 . S
C2387 C2388 1.414 . S
C2387 C2390 1.499 . S
C2388 H2368 0.950 . S
C2388 C2387 1.414 . S
C2388 C2389 1.374 . S
C2389 H2369 0.950 . S
C2389 C2385 1.385 . S
C2389 C2388 1.374 . S
C2390 C2387 1.499 . S
C2390 C2391 1.373 . S
C2390 C2392 1.344 1_655 S
C2391 H2370 0.950 . S
C2391 C2390 1.373 . S
C2391 C2407 1.420 . S
C2392 C2390 1.344 1_455 S
C2392 C2393 1.530 . S
C2392 C2406 1.420 . S
C2393 C2392 1.530 . S
C2393 C2394 1.397 1_455 S
C2393 C2398 1.363 . S
C2394 H2371 0.950 . S
C2394 C2393 1.397 1_655 S
C2394 C2395 1.334 . S
C2395 H2372 0.950 . S
C2395 C2394 1.334 . S
C2395 C2396 1.287 1_655 S
C2396 C2395 1.287 1_455 S
C2396 C2397 1.524 . S
C2396 H2415 0.913 . S
C2397 H2373 0.950 . S
C2397 C2396 1.524 . S
C2397 C2398 1.415 . S
C2398 H2374 0.950 . S
C2398 C2393 1.363 . S
C2398 C2397 1.415 . S
C2399 H2375 0.951 . S
C2399 C2400 1.366 . S
C2399 C2401 1.388 . S
C2400 C2399 1.366 . S
C2400 C2404 1.385 . S
C2401 H2376 0.951 . S
C2401 C2399 1.388 . S
C2401 C2402 1.366 . S
C2402 C2401 1.366 . S
C2402 C2403 1.414 . S
C2402 C2405 1.499 . S
C2403 H2377 0.950 . S
C2403 C2402 1.414 . S
C2403 C2404 1.374 . S
C2404 H2378 0.950 . S
C2404 C2400 1.385 . S
C2404 C2403 1.374 . S
C2405 C2402 1.499 . S
C2405 C2406 1.373 . S
C2405 C2407 1.344 1_455 S
C2406 H2379 0.950 . S
C2406 C2392 1.420 . S
C2406 C2405 1.373 . S
C2407 C2391 1.420 . S
C2407 C2405 1.344 1_655 S
C2407 C2408 1.530 . S
C2408 C2407 1.530 . S
C2408 C2409 1.397 1_655 S
C2408 C2413 1.363 . S
C2409 H2380 0.950 . S
C2409 C2408 1.397 1_455 S
C2409 C2410 1.334 . S
C2410 H2381 0.950 . S
C2410 C2409 1.334 . S
C2410 C2411 1.287 1_455 S
C2411 C2410 1.287 1_655 S
C2411 C2412 1.524 . S
C2411 H2414 0.999 . S
C2412 H2382 0.950 . S
C2412 C2411 1.524 . S
C2412 C2413 1.415 . S
C2413 H2383 0.950 . S
C2413 C2408 1.363 . S
C2413 C2412 1.415 . S
H2414 C2411 0.999 . S
H2415 C2396 0.913 . S
H2416 C2434 0.951 . S
H2417 C2436 0.951 . S
H2418 C2438 0.950 . S
H2419 C2439 0.950 . S
H2420 C2441 0.950 . S
H2421 C2444 0.950 . S
H2422 C2445 0.950 . S
H2423 C2447 0.950 . S
H2424 C2448 0.950 . S
H2425 C2449 0.951 . S
H2426 C2451 0.951 . S
H2427 C2453 0.950 . S
H2428 C2454 0.950 . S
H2429 C2456 0.950 . S
H2430 C2459 0.950 . S
H2431 C2460 0.950 . S
H2432 C2462 0.950 . S
H2433 C2463 0.950 . S
C2434 H2416 0.951 . S
C2434 C2435 1.366 . S
C2434 C2436 1.388 . S
C2435 C2434 1.366 . S
C2435 C2439 1.385 . S
C2436 H2417 0.951 . S
C2436 C2434 1.388 . S
C2436 C2437 1.366 . S
C2437 C2436 1.366 . S
C2437 C2438 1.414 . S
C2437 C2440 1.499 . S
C2438 H2418 0.950 . S
C2438 C2437 1.414 . S
C2438 C2439 1.374 . S
C2439 H2419 0.950 . S
C2439 C2435 1.385 . S
C2439 C2438 1.374 . S
C2440 C2437 1.499 . S
C2440 C2441 1.373 . S
C2440 C2442 1.389 . S
C2441 H2420 0.950 . S
C2441 C2440 1.373 . S
C2441 C2457 1.377 . S
C2442 C2440 1.389 . S
C2442 C2443 1.524 . S
C2442 C2456 1.377 . S
C2443 C2442 1.524 . S
C2443 C2444 1.397 . S
C2443 C2448 1.363 . S
C2444 H2421 0.950 . S
C2444 C2443 1.397 . S
C2444 C2445 1.334 . S
C2445 H2422 0.950 . S
C2445 C2444 1.334 . S
C2445 C2446 1.287 . S
C2446 C2445 1.287 . S
C2446 C2447 1.524 . S
C2446 H2465 0.913 . S
C2447 H2423 0.950 . S
C2447 C2446 1.524 . S
C2447 C2448 1.415 . S
C2448 H2424 0.950 . S
C2448 C2443 1.363 . S
C2448 C2447 1.415 . S
C2449 H2425 0.951 . S
C2449 C2450 1.366 . S
C2449 C2451 1.388 . S
C2450 C2449 1.366 . S
C2450 C2454 1.385 . S
C2451 H2426 0.951 . S
C2451 C2449 1.388 . S
C2451 C2452 1.366 . S
C2452 C2451 1.366 . S
C2452 C2453 1.414 . S
C2452 C2455 1.499 . S
C2453 H2427 0.950 . S
C2453 C2452 1.414 . S
C2453 C2454 1.374 . S
C2454 H2428 0.950 . S
C2454 C2450 1.385 . S
C2454 C2453 1.374 . S
C2455 C2452 1.499 . S
C2455 C2456 1.373 . S
C2455 C2457 1.389 . S
C2456 H2429 0.950 . S
C2456 C2442 1.377 . S
C2456 C2455 1.373 . S
C2457 C2441 1.377 . S
C2457 C2455 1.389 . S
C2457 C2458 1.524 . S
C2458 C2457 1.524 . S
C2458 C2459 1.397 . S
C2458 C2463 1.363 . S
C2459 H2430 0.950 . S
C2459 C2458 1.397 . S
C2459 C2460 1.334 . S
C2460 H2431 0.950 . S
C2460 C2459 1.334 . S
C2460 C2461 1.287 . S
C2461 C2460 1.287 . S
C2461 C2462 1.524 . S
C2461 H2464 0.999 . S
C2462 H2432 0.950 . S
C2462 C2461 1.524 . S
C2462 C2463 1.415 . S
C2463 H2433 0.950 . S
C2463 C2458 1.363 . S
C2463 C2462 1.415 . S
H2464 C2461 0.999 . S
H2465 C2446 0.913 . S
H2466 C2484 0.951 . S
H2467 C2486 0.951 . S
H2468 C2488 0.950 . S
H2469 C2489 0.950 . S
H2470 C2491 0.950 . S
H2471 C2494 0.950 . S
H2472 C2495 0.950 . S
H2473 C2497 0.950 . S
H2474 C2498 0.950 . S
H2475 C2499 0.951 . S
H2476 C2501 0.951 . S
H2477 C2503 0.950 . S
H2478 C2504 0.950 . S
H2479 C2506 0.950 . S
H2480 C2509 0.950 . S
H2481 C2510 0.950 . S
H2482 C2512 0.950 . S
H2483 C2513 0.950 . S
C2484 H2466 0.951 . S
C2484 C2485 1.366 . S
C2484 C2486 1.388 . S
C2485 C2484 1.366 . S
C2485 C2489 1.385 . S
C2486 H2467 0.951 . S
C2486 C2484 1.388 . S
C2486 C2487 1.366 . S
C2487 C2486 1.366 . S
C2487 C2488 1.414 . S
C2487 C2490 1.499 . S
C2488 H2468 0.950 . S
C2488 C2487 1.414 . S
C2488 C2489 1.374 . S
C2489 H2469 0.950 . S
C2489 C2485 1.385 . S
C2489 C2488 1.374 . S
C2490 C2487 1.499 . S
C2490 C2491 1.373 . S
C2490 C2492 1.389 . S
C2491 H2470 0.950 . S
C2491 C2490 1.373 . S
C2491 C2507 1.377 . S
C2492 C2490 1.389 . S
C2492 C2493 1.524 . S
C2492 C2506 1.377 . S
C2493 C2492 1.524 . S
C2493 C2494 1.397 . S
C2493 C2498 1.363 . S
C2494 H2471 0.950 . S
C2494 C2493 1.397 . S
C2494 C2495 1.334 . S
C2495 H2472 0.950 . S
C2495 C2494 1.334 . S
C2495 C2496 1.287 . S
C2496 C2495 1.287 . S
C2496 C2497 1.524 . S
C2496 H2515 0.913 . S
C2497 H2473 0.950 . S
C2497 C2496 1.524 . S
C2497 C2498 1.415 . S
C2498 H2474 0.950 . S
C2498 C2493 1.363 . S
C2498 C2497 1.415 . S
C2499 H2475 0.951 . S
C2499 C2500 1.366 . S
C2499 C2501 1.388 . S
C2500 C2499 1.366 . S
C2500 C2504 1.385 . S
C2501 H2476 0.951 . S
C2501 C2499 1.388 . S
C2501 C2502 1.366 . S
C2502 C2501 1.366 . S
C2502 C2503 1.414 . S
C2502 C2505 1.499 . S
C2503 H2477 0.950 . S
C2503 C2502 1.414 . S
C2503 C2504 1.374 . S
C2504 H2478 0.950 . S
C2504 C2500 1.385 . S
C2504 C2503 1.374 . S
C2505 C2502 1.499 . S
C2505 C2506 1.373 . S
C2505 C2507 1.389 . S
C2506 H2479 0.950 . S
C2506 C2492 1.377 . S
C2506 C2505 1.373 . S
C2507 C2491 1.377 . S
C2507 C2505 1.389 . S
C2507 C2508 1.524 . S
C2508 C2507 1.524 . S
C2508 C2509 1.397 . S
C2508 C2513 1.363 . S
C2509 H2480 0.950 . S
C2509 C2508 1.397 . S
C2509 C2510 1.334 . S
C2510 H2481 0.950 . S
C2510 C2509 1.334 . S
C2510 C2511 1.287 . S
C2511 C2510 1.287 . S
C2511 C2512 1.524 . S
C2511 H2514 0.999 . S
C2512 H2482 0.950 . S
C2512 C2511 1.524 . S
C2512 C2513 1.415 . S
C2513 H2483 0.950 . S
C2513 C2508 1.363 . S
C2513 C2512 1.415 . S
H2514 C2511 0.999 . S
H2515 C2496 0.913 . S
H2516 C2534 0.951 . S
H2517 C2536 0.951 . S
H2518 C2538 0.950 . S
H2519 C2539 0.950 . S
H2520 C2541 0.950 . S
H2521 C2544 0.950 . S
H2522 C2545 0.950 . S
H2523 C2547 0.950 . S
H2524 C2548 0.950 . S
H2525 C2549 0.951 . S
H2526 C2551 0.951 . S
H2527 C2553 0.950 . S
H2528 C2554 0.950 . S
H2529 C2556 0.950 . S
H2530 C2559 0.950 . S
H2531 C2560 0.950 . S
H2532 C2562 0.950 . S
H2533 C2563 0.950 . S
C2534 H2516 0.951 . S
C2534 C2535 1.366 . S
C2534 C2536 1.388 . S
C2535 C2534 1.366 . S
C2535 C2539 1.385 . S
C2536 H2517 0.951 . S
C2536 C2534 1.388 . S
C2536 C2537 1.366 . S
C2537 C2536 1.366 . S
C2537 C2538 1.414 . S
C2537 C2540 1.499 . S
C2538 H2518 0.950 . S
C2538 C2537 1.414 . S
C2538 C2539 1.374 . S
C2539 H2519 0.950 . S
C2539 C2535 1.385 . S
C2539 C2538 1.374 . S
C2540 C2537 1.499 . S
C2540 C2541 1.373 . S
C2540 C2542 1.389 . S
C2541 H2520 0.950 . S
C2541 C2540 1.373 . S
C2541 C2557 1.377 . S
C2542 C2540 1.389 . S
C2542 C2543 1.524 . S
C2542 C2556 1.377 . S
C2543 C2542 1.524 . S
C2543 C2544 1.397 . S
C2543 C2548 1.363 . S
C2544 H2521 0.950 . S
C2544 C2543 1.397 . S
C2544 C2545 1.334 . S
C2545 H2522 0.950 . S
C2545 C2544 1.334 . S
C2545 C2546 1.287 . S
C2546 C2545 1.287 . S
C2546 C2547 1.524 . S
C2546 H2565 0.913 . S
C2547 H2523 0.950 . S
C2547 C2546 1.524 . S
C2547 C2548 1.415 . S
C2548 H2524 0.950 . S
C2548 C2543 1.363 . S
C2548 C2547 1.415 . S
C2549 H2525 0.951 . S
C2549 C2550 1.366 . S
C2549 C2551 1.388 . S
C2550 C2549 1.366 . S
C2550 C2554 1.385 . S
C2551 H2526 0.951 . S
C2551 C2549 1.388 . S
C2551 C2552 1.366 . S
C2552 C2551 1.366 . S
C2552 C2553 1.414 . S
C2552 C2555 1.499 . S
C2553 H2527 0.950 . S
C2553 C2552 1.414 . S
C2553 C2554 1.374 . S
C2554 H2528 0.950 . S
C2554 C2550 1.385 . S
C2554 C2553 1.374 . S
C2555 C2552 1.499 . S
C2555 C2556 1.373 . S
C2555 C2557 1.389 . S
C2556 H2529 0.950 . S
C2556 C2542 1.377 . S
C2556 C2555 1.373 . S
C2557 C2541 1.377 . S
C2557 C2555 1.389 . S
C2557 C2558 1.524 . S
C2558 C2557 1.524 . S
C2558 C2559 1.397 . S
C2558 C2563 1.363 . S
C2559 H2530 0.950 . S
C2559 C2558 1.397 . S
C2559 C2560 1.334 . S
C2560 H2531 0.950 . S
C2560 C2559 1.334 . S
C2560 C2561 1.287 . S
C2561 C2560 1.287 . S
C2561 C2562 1.524 . S
C2561 H2564 0.999 . S
C2562 H2532 0.950 . S
C2562 C2561 1.524 . S
C2562 C2563 1.415 . S
C2563 H2533 0.950 . S
C2563 C2558 1.363 . S
C2563 C2562 1.415 . S
H2564 C2561 0.999 . S
H2565 C2546 0.913 . S
H2566 C2584 0.951 . S
H2567 C2586 0.951 . S
H2568 C2588 0.950 . S
H2569 C2589 0.950 . S
H2570 C2591 0.950 . S
H2571 C2594 0.950 . S
H2572 C2595 0.950 . S
H2573 C2597 0.950 . S
H2574 C2598 0.950 . S
H2575 C2599 0.951 . S
H2576 C2601 0.951 . S
H2577 C2603 0.950 . S
H2578 C2604 0.950 . S
H2579 C2606 0.950 . S
H2580 C2609 0.950 . S
H2581 C2610 0.950 . S
H2582 C2612 0.950 . S
H2583 C2613 0.950 . S
C2584 H2566 0.951 . S
C2584 C2585 1.366 . S
C2584 C2586 1.388 . S
C2585 C2584 1.366 . S
C2585 C2589 1.385 . S
C2586 H2567 0.951 . S
C2586 C2584 1.388 . S
C2586 C2587 1.366 . S
C2587 C2586 1.366 . S
C2587 C2588 1.414 . S
C2587 C2590 1.499 . S
C2588 H2568 0.950 . S
C2588 C2587 1.414 . S
C2588 C2589 1.374 . S
C2589 H2569 0.950 . S
C2589 C2585 1.385 . S
C2589 C2588 1.374 . S
C2590 C2587 1.499 . S
C2590 C2591 1.373 . S
C2590 C2592 1.389 . S
C2591 H2570 0.950 . S
C2591 C2590 1.373 . S
C2591 C2607 1.377 . S
C2592 C2590 1.389 . S
C2592 C2593 1.524 . S
C2592 C2606 1.377 . S
C2593 C2592 1.524 . S
C2593 C2594 1.397 . S
C2593 C2598 1.363 . S
C2594 H2571 0.950 . S
C2594 C2593 1.397 . S
C2594 C2595 1.334 . S
C2595 H2572 0.950 . S
C2595 C2594 1.334 . S
C2595 C2596 1.287 . S
C2596 C2595 1.287 . S
C2596 C2597 1.524 . S
C2596 H2615 0.913 . S
C2597 H2573 0.950 . S
C2597 C2596 1.524 . S
C2597 C2598 1.415 . S
C2598 H2574 0.950 . S
C2598 C2593 1.363 . S
C2598 C2597 1.415 . S
C2599 H2575 0.951 . S
C2599 C2600 1.366 . S
C2599 C2601 1.388 . S
C2600 C2599 1.366 . S
C2600 C2604 1.385 . S
C2601 H2576 0.951 . S
C2601 C2599 1.388 . S
C2601 C2602 1.366 . S
C2602 C2601 1.366 . S
C2602 C2603 1.414 . S
C2602 C2605 1.499 . S
C2603 H2577 0.950 . S
C2603 C2602 1.414 . S
C2603 C2604 1.374 . S
C2604 H2578 0.950 . S
C2604 C2600 1.385 . S
C2604 C2603 1.374 . S
C2605 C2602 1.499 . S
C2605 C2606 1.373 . S
C2605 C2607 1.389 . S
C2606 H2579 0.950 . S
C2606 C2592 1.377 . S
C2606 C2605 1.373 . S
C2607 C2591 1.377 . S
C2607 C2605 1.389 . S
C2607 C2608 1.524 . S
C2608 C2607 1.524 . S
C2608 C2609 1.397 . S
C2608 C2613 1.363 . S
C2609 H2580 0.950 . S
C2609 C2608 1.397 . S
C2609 C2610 1.334 . S
C2610 H2581 0.950 . S
C2610 C2609 1.334 . S
C2610 C2611 1.287 . S
C2611 C2610 1.287 . S
C2611 C2612 1.524 . S
C2611 H2614 0.999 . S
C2612 H2582 0.950 . S
C2612 C2611 1.524 . S
C2612 C2613 1.415 . S
C2613 H2583 0.950 . S
C2613 C2608 1.363 . S
C2613 C2612 1.415 . S
H2614 C2611 0.999 . S
H2615 C2596 0.913 . S
H2616 C2634 0.951 . S
H2617 C2636 0.951 . S
H2618 C2638 0.950 . S
H2619 C2639 0.950 . S
H2620 C2641 0.950 . S
H2621 C2644 0.950 . S
H2622 C2645 0.950 . S
H2623 C2647 0.950 . S
H2624 C2648 0.950 . S
H2625 C2649 0.951 . S
H2626 C2651 0.951 . S
H2627 C2653 0.950 . S
H2628 C2654 0.950 . S
H2629 C2656 0.950 . S
H2630 C2659 0.950 . S
H2631 C2660 0.950 . S
H2632 C2662 0.950 . S
H2633 C2663 0.950 . S
C2634 H2616 0.951 . S
C2634 C2635 1.366 . S
C2634 C2636 1.388 . S
C2635 C2634 1.366 . S
C2635 C2639 1.385 . S
C2636 H2617 0.951 . S
C2636 C2634 1.388 . S
C2636 C2637 1.366 . S
C2637 C2636 1.366 . S
C2637 C2638 1.414 . S
C2637 C2640 1.499 . S
C2638 H2618 0.950 . S
C2638 C2637 1.414 . S
C2638 C2639 1.374 . S
C2639 H2619 0.950 . S
C2639 C2635 1.385 . S
C2639 C2638 1.374 . S
C2640 C2637 1.499 . S
C2640 C2641 1.373 . S
C2640 C2642 1.389 . S
C2641 H2620 0.950 . S
C2641 C2640 1.373 . S
C2641 C2657 1.377 . S
C2642 C2640 1.389 . S
C2642 C2643 1.524 . S
C2642 C2656 1.377 . S
C2643 C2642 1.524 . S
C2643 C2644 1.397 . S
C2643 C2648 1.363 . S
C2644 H2621 0.950 . S
C2644 C2643 1.397 . S
C2644 C2645 1.334 . S
C2645 H2622 0.950 . S
C2645 C2644 1.334 . S
C2645 C2646 1.287 . S
C2646 C2645 1.287 . S
C2646 C2647 1.524 . S
C2646 H2665 0.913 . S
C2647 H2623 0.950 . S
C2647 C2646 1.524 . S
C2647 C2648 1.415 . S
C2648 H2624 0.950 . S
C2648 C2643 1.363 . S
C2648 C2647 1.415 . S
C2649 H2625 0.951 . S
C2649 C2650 1.366 . S
C2649 C2651 1.388 . S
C2650 C2649 1.366 . S
C2650 C2654 1.385 . S
C2651 H2626 0.951 . S
C2651 C2649 1.388 . S
C2651 C2652 1.366 . S
C2652 C2651 1.366 . S
C2652 C2653 1.414 . S
C2652 C2655 1.499 . S
C2653 H2627 0.950 . S
C2653 C2652 1.414 . S
C2653 C2654 1.374 . S
C2654 H2628 0.950 . S
C2654 C2650 1.385 . S
C2654 C2653 1.374 . S
C2655 C2652 1.499 . S
C2655 C2656 1.373 . S
C2655 C2657 1.389 . S
C2656 H2629 0.950 . S
C2656 C2642 1.377 . S
C2656 C2655 1.373 . S
C2657 C2641 1.377 . S
C2657 C2655 1.389 . S
C2657 C2658 1.524 . S
C2658 C2657 1.524 . S
C2658 C2659 1.397 . S
C2658 C2663 1.363 . S
C2659 H2630 0.950 . S
C2659 C2658 1.397 . S
C2659 C2660 1.334 . S
C2660 H2631 0.950 . S
C2660 C2659 1.334 . S
C2660 C2661 1.287 . S
C2661 C2660 1.287 . S
C2661 C2662 1.524 . S
C2661 H2664 0.999 . S
C2662 H2632 0.950 . S
C2662 C2661 1.524 . S
C2662 C2663 1.415 . S
C2663 H2633 0.950 . S
C2663 C2658 1.363 . S
C2663 C2662 1.415 . S
H2664 C2661 0.999 . S
H2665 C2646 0.913 . S
H2666 C2684 0.951 . S
H2667 C2686 0.951 . S
H2668 C2688 0.950 . S
H2669 C2689 0.950 . S
H2670 C2691 0.950 . S
H2671 C2694 0.950 . S
H2672 C2695 0.950 . S
H2673 C2697 0.950 . S
H2674 C2698 0.950 . S
H2675 C2699 0.951 . S
H2676 C2701 0.951 . S
H2677 C2703 0.950 . S
H2678 C2704 0.950 . S
H2679 C2706 0.950 . S
H2680 C2709 0.950 . S
H2681 C2710 0.950 . S
H2682 C2712 0.950 . S
H2683 C2713 0.950 . S
C2684 H2666 0.951 . S
C2684 C2685 1.366 . S
C2684 C2686 1.388 . S
C2685 C2684 1.366 . S
C2685 C2689 1.385 . S
C2686 H2667 0.951 . S
C2686 C2684 1.388 . S
C2686 C2687 1.366 . S
C2687 C2686 1.366 . S
C2687 C2688 1.414 . S
C2687 C2690 1.499 . S
C2688 H2668 0.950 . S
C2688 C2687 1.414 . S
C2688 C2689 1.374 . S
C2689 H2669 0.950 . S
C2689 C2685 1.385 . S
C2689 C2688 1.374 . S
C2690 C2687 1.499 . S
C2690 C2691 1.373 . S
C2690 C2692 1.389 . S
C2691 H2670 0.950 . S
C2691 C2690 1.373 . S
C2691 C2707 1.377 . S
C2692 C2690 1.389 . S
C2692 C2693 1.524 . S
C2692 C2706 1.377 . S
C2693 C2692 1.524 . S
C2693 C2694 1.397 . S
C2693 C2698 1.363 . S
C2694 H2671 0.950 . S
C2694 C2693 1.397 . S
C2694 C2695 1.334 . S
C2695 H2672 0.950 . S
C2695 C2694 1.334 . S
C2695 C2696 1.287 . S
C2696 C2695 1.287 . S
C2696 C2697 1.524 . S
C2696 H2715 0.913 . S
C2697 H2673 0.950 . S
C2697 C2696 1.524 . S
C2697 C2698 1.415 . S
C2698 H2674 0.950 . S
C2698 C2693 1.363 . S
C2698 C2697 1.415 . S
C2699 H2675 0.951 . S
C2699 C2700 1.366 . S
C2699 C2701 1.388 . S
C2700 C2699 1.366 . S
C2700 C2704 1.385 . S
C2701 H2676 0.951 . S
C2701 C2699 1.388 . S
C2701 C2702 1.366 . S
C2702 C2701 1.366 . S
C2702 C2703 1.414 . S
C2702 C2705 1.499 . S
C2703 H2677 0.950 . S
C2703 C2702 1.414 . S
C2703 C2704 1.374 . S
C2704 H2678 0.950 . S
C2704 C2700 1.385 . S
C2704 C2703 1.374 . S
C2705 C2702 1.499 . S
C2705 C2706 1.373 . S
C2705 C2707 1.389 . S
C2706 H2679 0.950 . S
C2706 C2692 1.377 . S
C2706 C2705 1.373 . S
C2707 C2691 1.377 . S
C2707 C2705 1.389 . S
C2707 C2708 1.524 . S
C2708 C2707 1.524 . S
C2708 C2709 1.397 . S
C2708 C2713 1.363 . S
C2709 H2680 0.950 . S
C2709 C2708 1.397 . S
C2709 C2710 1.334 . S
C2710 H2681 0.950 . S
C2710 C2709 1.334 . S
C2710 C2711 1.287 . S
C2711 C2710 1.287 . S
C2711 C2712 1.524 . S
C2711 H2714 0.999 . S
C2712 H2682 0.950 . S
C2712 C2711 1.524 . S
C2712 C2713 1.415 . S
C2713 H2683 0.950 . S
C2713 C2708 1.363 . S
C2713 C2712 1.415 . S
H2714 C2711 0.999 . S
H2715 C2696 0.913 . S
H2716 C2734 0.951 . S
H2717 C2736 0.951 . S
H2718 C2738 0.950 . S
H2719 C2739 0.950 . S
H2720 C2741 0.950 . S
H2721 C2744 0.950 . S
H2722 C2745 0.950 . S
H2723 C2747 0.950 . S
H2724 C2748 0.950 . S
H2725 C2749 0.951 . S
H2726 C2751 0.951 . S
H2727 C2753 0.950 . S
H2728 C2754 0.950 . S
H2729 C2756 0.950 . S
H2730 C2759 0.950 . S
H2731 C2760 0.950 . S
H2732 C2762 0.950 . S
H2733 C2763 0.950 . S
C2734 H2716 0.951 . S
C2734 C2735 1.366 . S
C2734 C2736 1.388 . S
C2735 C2734 1.366 . S
C2735 C2739 1.385 . S
C2736 H2717 0.951 . S
C2736 C2734 1.388 . S
C2736 C2737 1.366 . S
C2737 C2736 1.366 . S
C2737 C2738 1.414 . S
C2737 C2740 1.499 . S
C2738 H2718 0.950 . S
C2738 C2737 1.414 . S
C2738 C2739 1.374 . S
C2739 H2719 0.950 . S
C2739 C2735 1.385 . S
C2739 C2738 1.374 . S
C2740 C2737 1.499 . S
C2740 C2741 1.373 . S
C2740 C2742 1.389 . S
C2741 H2720 0.950 . S
C2741 C2740 1.373 . S
C2741 C2757 1.377 . S
C2742 C2740 1.389 . S
C2742 C2743 1.524 . S
C2742 C2756 1.377 . S
C2743 C2742 1.524 . S
C2743 C2744 1.397 . S
C2743 C2748 1.363 . S
C2744 H2721 0.950 . S
C2744 C2743 1.397 . S
C2744 C2745 1.334 . S
C2745 H2722 0.950 . S
C2745 C2744 1.334 . S
C2745 C2746 1.287 . S
C2746 C2745 1.287 . S
C2746 C2747 1.524 . S
C2746 H2765 0.913 . S
C2747 H2723 0.950 . S
C2747 C2746 1.524 . S
C2747 C2748 1.415 . S
C2748 H2724 0.950 . S
C2748 C2743 1.363 . S
C2748 C2747 1.415 . S
C2749 H2725 0.951 . S
C2749 C2750 1.366 . S
C2749 C2751 1.388 . S
C2750 C2749 1.366 . S
C2750 C2754 1.385 . S
C2751 H2726 0.951 . S
C2751 C2749 1.388 . S
C2751 C2752 1.366 . S
C2752 C2751 1.366 . S
C2752 C2753 1.414 . S
C2752 C2755 1.499 . S
C2753 H2727 0.950 . S
C2753 C2752 1.414 . S
C2753 C2754 1.374 . S
C2754 H2728 0.950 . S
C2754 C2750 1.385 . S
C2754 C2753 1.374 . S
C2755 C2752 1.499 . S
C2755 C2756 1.373 . S
C2755 C2757 1.389 . S
C2756 H2729 0.950 . S
C2756 C2742 1.377 . S
C2756 C2755 1.373 . S
C2757 C2741 1.377 . S
C2757 C2755 1.389 . S
C2757 C2758 1.524 . S
C2758 C2757 1.524 . S
C2758 C2759 1.397 . S
C2758 C2763 1.363 . S
C2759 H2730 0.950 . S
C2759 C2758 1.397 . S
C2759 C2760 1.334 . S
C2760 H2731 0.950 . S
C2760 C2759 1.334 . S
C2760 C2761 1.287 . S
C2761 C2760 1.287 . S
C2761 C2762 1.524 . S
C2761 H2764 0.999 . S
C2762 H2732 0.950 . S
C2762 C2761 1.524 . S
C2762 C2763 1.415 . S
C2763 H2733 0.950 . S
C2763 C2758 1.363 . S
C2763 C2762 1.415 . S
H2764 C2761 0.999 . S
H2765 C2746 0.913 . S
H2766 C2784 0.951 . S
H2767 C2786 0.951 . S
H2768 C2788 0.950 . S
H2769 C2789 0.950 . S
H2770 C2791 0.950 . S
H2771 C2794 0.950 . S
H2772 C2795 0.950 . S
H2773 C2797 0.950 . S
H2774 C2798 0.950 . S
H2775 C2799 0.951 . S
H2776 C2801 0.951 . S
H2777 C2803 0.950 . S
H2778 C2804 0.950 . S
H2779 C2806 0.950 . S
H2780 C2809 0.950 . S
H2781 C2810 0.950 . S
H2782 C2812 0.950 . S
H2783 C2813 0.950 . S
C2784 H2766 0.951 . S
C2784 C2785 1.366 . S
C2784 C2786 1.388 . S
C2785 C2784 1.366 . S
C2785 C2789 1.385 . S
C2786 H2767 0.951 . S
C2786 C2784 1.388 . S
C2786 C2787 1.366 . S
C2787 C2786 1.366 . S
C2787 C2788 1.414 . S
C2787 C2790 1.499 . S
C2788 H2768 0.950 . S
C2788 C2787 1.414 . S
C2788 C2789 1.374 . S
C2789 H2769 0.950 . S
C2789 C2785 1.385 . S
C2789 C2788 1.374 . S
C2790 C2787 1.499 . S
C2790 C2791 1.373 . S
C2790 C2792 1.389 . S
C2791 H2770 0.950 . S
C2791 C2790 1.373 . S
C2791 C2807 1.377 . S
C2792 C2790 1.389 . S
C2792 C2793 1.524 . S
C2792 C2806 1.377 . S
C2793 C2792 1.524 . S
C2793 C2794 1.397 . S
C2793 C2798 1.363 . S
C2794 H2771 0.950 . S
C2794 C2793 1.397 . S
C2794 C2795 1.334 . S
C2795 H2772 0.950 . S
C2795 C2794 1.334 . S
C2795 C2796 1.287 . S
C2796 C2795 1.287 . S
C2796 C2797 1.524 . S
C2796 H2815 0.913 . S
C2797 H2773 0.950 . S
C2797 C2796 1.524 . S
C2797 C2798 1.415 . S
C2798 H2774 0.950 . S
C2798 C2793 1.363 . S
C2798 C2797 1.415 . S
C2799 H2775 0.951 . S
C2799 C2800 1.366 . S
C2799 C2801 1.388 . S
C2800 C2799 1.366 . S
C2800 C2804 1.385 . S
C2801 H2776 0.951 . S
C2801 C2799 1.388 . S
C2801 C2802 1.366 . S
C2802 C2801 1.366 . S
C2802 C2803 1.414 . S
C2802 C2805 1.499 . S
C2803 H2777 0.950 . S
C2803 C2802 1.414 . S
C2803 C2804 1.374 . S
C2804 H2778 0.950 . S
C2804 C2800 1.385 . S
C2804 C2803 1.374 . S
C2805 C2802 1.499 . S
C2805 C2806 1.373 . S
C2805 C2807 1.389 . S
C2806 H2779 0.950 . S
C2806 C2792 1.377 . S
C2806 C2805 1.373 . S
C2807 C2791 1.377 . S
C2807 C2805 1.389 . S
C2807 C2808 1.524 . S
C2808 C2807 1.524 . S
C2808 C2809 1.397 . S
C2808 C2813 1.363 . S
C2809 H2780 0.950 . S
C2809 C2808 1.397 . S
C2809 C2810 1.334 . S
C2810 H2781 0.950 . S
C2810 C2809 1.334 . S
C2810 C2811 1.287 . S
C2811 C2810 1.287 . S
C2811 C2812 1.524 . S
C2811 H2814 0.999 . S
C2812 H2782 0.950 . S
C2812 C2811 1.524 . S
C2812 C2813 1.415 . S
C2813 H2783 0.950 . S
C2813 C2808 1.363 . S
C2813 C2812 1.415 . S
H2814 C2811 0.999 . S
H2815 C2796 0.913 . S
H2816 C2834 0.951 . S
H2817 C2836 0.951 . S
H2818 C2838 0.950 . S
H2819 C2839 0.950 . S
H2820 C2841 0.950 . S
H2821 C2844 0.950 . S
H2822 C2845 0.950 . S
H2823 C2847 0.950 . S
H2824 C2848 0.950 . S
H2825 C2849 0.951 . S
H2826 C2851 0.951 . S
H2827 C2853 0.950 . S
H2828 C2854 0.950 . S
H2829 C2856 0.950 . S
H2830 C2859 0.950 . S
H2831 C2860 0.950 . S
H2832 C2862 0.950 . S
H2833 C2863 0.950 . S
C2834 H2816 0.951 . S
C2834 C2835 1.366 . S
C2834 C2836 1.388 . S
C2835 C2834 1.366 . S
C2835 C2839 1.385 . S
C2836 H2817 0.951 . S
C2836 C2834 1.388 . S
C2836 C2837 1.366 . S
C2837 C2836 1.366 . S
C2837 C2838 1.414 . S
C2837 C2840 1.499 . S
C2838 H2818 0.950 . S
C2838 C2837 1.414 . S
C2838 C2839 1.374 . S
C2839 H2819 0.950 . S
C2839 C2835 1.385 . S
C2839 C2838 1.374 . S
C2840 C2837 1.499 . S
C2840 C2841 1.373 . S
C2840 C2842 1.389 . S
C2841 H2820 0.950 . S
C2841 C2840 1.373 . S
C2841 C2857 1.377 . S
C2842 C2840 1.389 . S
C2842 C2843 1.524 . S
C2842 C2856 1.377 . S
C2843 C2842 1.524 . S
C2843 C2844 1.397 . S
C2843 C2848 1.363 . S
C2844 H2821 0.950 . S
C2844 C2843 1.397 . S
C2844 C2845 1.334 . S
C2845 H2822 0.950 . S
C2845 C2844 1.334 . S
C2845 C2846 1.287 . S
C2846 C2845 1.287 . S
C2846 C2847 1.524 . S
C2846 H2865 0.913 . S
C2847 H2823 0.950 . S
C2847 C2846 1.524 . S
C2847 C2848 1.415 . S
C2848 H2824 0.950 . S
C2848 C2843 1.363 . S
C2848 C2847 1.415 . S
C2849 H2825 0.951 . S
C2849 C2850 1.366 . S
C2849 C2851 1.388 . S
C2850 C2849 1.366 . S
C2850 C2854 1.385 . S
C2851 H2826 0.951 . S
C2851 C2849 1.388 . S
C2851 C2852 1.366 . S
C2852 C2851 1.366 . S
C2852 C2853 1.414 . S
C2852 C2855 1.499 . S
C2853 H2827 0.950 . S
C2853 C2852 1.414 . S
C2853 C2854 1.374 . S
C2854 H2828 0.950 . S
C2854 C2850 1.385 . S
C2854 C2853 1.374 . S
C2855 C2852 1.499 . S
C2855 C2856 1.373 . S
C2855 C2857 1.389 . S
C2856 H2829 0.950 . S
C2856 C2842 1.377 . S
C2856 C2855 1.373 . S
C2857 C2841 1.377 . S
C2857 C2855 1.389 . S
C2857 C2858 1.524 . S
C2858 C2857 1.524 . S
C2858 C2859 1.397 . S
C2858 C2863 1.363 . S
C2859 H2830 0.950 . S
C2859 C2858 1.397 . S
C2859 C2860 1.334 . S
C2860 H2831 0.950 . S
C2860 C2859 1.334 . S
C2860 C2861 1.287 . S
C2861 C2860 1.287 . S
C2861 C2862 1.524 . S
C2861 H2864 0.999 . S
C2862 H2832 0.950 . S
C2862 C2861 1.524 . S
C2862 C2863 1.415 . S
C2863 H2833 0.950 . S
C2863 C2858 1.363 . S
C2863 C2862 1.415 . S
H2864 C2861 0.999 . S
H2865 C2846 0.913 . S
H2866 C2884 0.951 . S
H2867 C2886 0.951 . S
H2868 C2888 0.950 . S
H2869 C2889 0.950 . S
H2870 C2891 0.950 . S
H2871 C2894 0.950 . S
H2872 C2895 0.950 . S
H2873 C2897 0.950 . S
H2874 C2898 0.950 . S
H2875 C2899 0.951 . S
H2876 C2901 0.951 . S
H2877 C2903 0.950 . S
H2878 C2904 0.950 . S
H2879 C2906 0.950 . S
H2880 C2909 0.950 . S
H2881 C2910 0.950 . S
H2882 C2912 0.950 . S
H2883 C2913 0.950 . S
C2884 H2866 0.951 . S
C2884 C2885 1.366 . S
C2884 C2886 1.388 . S
C2885 C2884 1.366 . S
C2885 C2889 1.385 . S
C2886 H2867 0.951 . S
C2886 C2884 1.388 . S
C2886 C2887 1.366 . S
C2887 C2886 1.366 . S
C2887 C2888 1.414 . S
C2887 C2890 1.499 . S
C2888 H2868 0.950 . S
C2888 C2887 1.414 . S
C2888 C2889 1.374 . S
C2889 H2869 0.950 . S
C2889 C2885 1.385 . S
C2889 C2888 1.374 . S
C2890 C2887 1.499 . S
C2890 C2891 1.373 . S
C2890 C2892 1.389 . S
C2891 H2870 0.950 . S
C2891 C2890 1.373 . S
C2891 C2907 1.377 . S
C2892 C2890 1.389 . S
C2892 C2893 1.524 . S
C2892 C2906 1.377 . S
C2893 C2892 1.524 . S
C2893 C2894 1.397 . S
C2893 C2898 1.363 . S
C2894 H2871 0.950 . S
C2894 C2893 1.397 . S
C2894 C2895 1.334 . S
C2895 H2872 0.950 . S
C2895 C2894 1.334 . S
C2895 C2896 1.287 . S
C2896 C2895 1.287 . S
C2896 C2897 1.524 . S
C2896 H2915 0.913 . S
C2897 H2873 0.950 . S
C2897 C2896 1.524 . S
C2897 C2898 1.415 . S
C2898 H2874 0.950 . S
C2898 C2893 1.363 . S
C2898 C2897 1.415 . S
C2899 H2875 0.951 . S
C2899 C2900 1.366 . S
C2899 C2901 1.388 . S
C2900 C2899 1.366 . S
C2900 C2904 1.385 . S
C2901 H2876 0.951 . S
C2901 C2899 1.388 . S
C2901 C2902 1.366 . S
C2902 C2901 1.366 . S
C2902 C2903 1.414 . S
C2902 C2905 1.499 . S
C2903 H2877 0.950 . S
C2903 C2902 1.414 . S
C2903 C2904 1.374 . S
C2904 H2878 0.950 . S
C2904 C2900 1.385 . S
C2904 C2903 1.374 . S
C2905 C2902 1.499 . S
C2905 C2906 1.373 . S
C2905 C2907 1.389 . S
C2906 H2879 0.950 . S
C2906 C2892 1.377 . S
C2906 C2905 1.373 . S
C2907 C2891 1.377 . S
C2907 C2905 1.389 . S
C2907 C2908 1.524 . S
C2908 C2907 1.524 . S
C2908 C2909 1.397 . S
C2908 C2913 1.363 . S
C2909 H2880 0.950 . S
C2909 C2908 1.397 . S
C2909 C2910 1.334 . S
C2910 H2881 0.950 . S
C2910 C2909 1.334 . S
C2910 C2911 1.287 . S
C2911 C2910 1.287 . S
C2911 C2912 1.524 . S
C2911 H2914 0.999 . S
C2912 H2882 0.950 . S
C2912 C2911 1.524 . S
C2912 C2913 1.415 . S
C2913 H2883 0.950 . S
C2913 C2908 1.363 . S
C2913 C2912 1.415 . S
H2914 C2911 0.999 . S
H2915 C2896 0.913 . S
H2916 C2934 0.951 . S
H2917 C2936 0.951 . S
H2918 C2938 0.950 . S
H2919 C2939 0.950 . S
H2920 C2941 0.950 . S
H2921 C2944 0.950 . S
H2922 C2945 0.950 . S
H2923 C2947 0.950 . S
H2924 C2948 0.950 . S
H2925 C2949 0.951 . S
H2926 C2951 0.951 . S
H2927 C2953 0.950 . S
H2928 C2954 0.950 . S
H2929 C2956 0.950 . S
H2930 C2959 0.950 . S
H2931 C2960 0.950 . S
H2932 C2962 0.950 . S
H2933 C2963 0.950 . S
C2934 H2916 0.951 . S
C2934 C2935 1.366 . S
C2934 C2936 1.388 . S
C2935 C2934 1.366 . S
C2935 C2939 1.385 . S
C2936 H2917 0.951 . S
C2936 C2934 1.388 . S
C2936 C2937 1.366 . S
C2937 C2936 1.366 . S
C2937 C2938 1.414 . S
C2937 C2940 1.499 . S
C2938 H2918 0.950 . S
C2938 C2937 1.414 . S
C2938 C2939 1.374 . S
C2939 H2919 0.950 . S
C2939 C2935 1.385 . S
C2939 C2938 1.374 . S
C2940 C2937 1.499 . S
C2940 C2941 1.373 . S
C2940 C2942 1.389 . S
C2941 H2920 0.950 . S
C2941 C2940 1.373 . S
C2941 C2957 1.377 . S
C2942 C2940 1.389 . S
C2942 C2943 1.524 . S
C2942 C2956 1.377 . S
C2943 C2942 1.524 . S
C2943 C2944 1.397 . S
C2943 C2948 1.363 . S
C2944 H2921 0.950 . S
C2944 C2943 1.397 . S
C2944 C2945 1.334 . S
C2945 H2922 0.950 . S
C2945 C2944 1.334 . S
C2945 C2946 1.287 . S
C2946 C2945 1.287 . S
C2946 C2947 1.524 . S
C2946 H2965 0.913 . S
C2947 H2923 0.950 . S
C2947 C2946 1.524 . S
C2947 C2948 1.415 . S
C2948 H2924 0.950 . S
C2948 C2943 1.363 . S
C2948 C2947 1.415 . S
C2949 H2925 0.951 . S
C2949 C2950 1.366 . S
C2949 C2951 1.388 . S
C2950 C2949 1.366 . S
C2950 C2954 1.385 . S
C2951 H2926 0.951 . S
C2951 C2949 1.388 . S
C2951 C2952 1.366 . S
C2952 C2951 1.366 . S
C2952 C2953 1.414 . S
C2952 C2955 1.499 . S
C2953 H2927 0.950 . S
C2953 C2952 1.414 . S
C2953 C2954 1.374 . S
C2954 H2928 0.950 . S
C2954 C2950 1.385 . S
C2954 C2953 1.374 . S
C2955 C2952 1.499 . S
C2955 C2956 1.373 . S
C2955 C2957 1.389 . S
C2956 H2929 0.950 . S
C2956 C2942 1.377 . S
C2956 C2955 1.373 . S
C2957 C2941 1.377 . S
C2957 C2955 1.389 . S
C2957 C2958 1.524 . S
C2958 C2957 1.524 . S
C2958 C2959 1.397 . S
C2958 C2963 1.363 . S
C2959 H2930 0.950 . S
C2959 C2958 1.397 . S
C2959 C2960 1.334 . S
C2960 H2931 0.950 . S
C2960 C2959 1.334 . S
C2960 C2961 1.287 . S
C2961 C2960 1.287 . S
C2961 C2962 1.524 . S
C2961 H2964 0.999 . S
C2962 H2932 0.950 . S
C2962 C2961 1.524 . S
C2962 C2963 1.415 . S
C2963 H2933 0.950 . S
C2963 C2958 1.363 . S
C2963 C2962 1.415 . S
H2964 C2961 0.999 . S
H2965 C2946 0.913 . S
H2966 C2984 0.951 . S
H2967 C2986 0.951 . S
H2968 C2988 0.950 . S
H2969 C2989 0.950 . S
H2970 C2991 0.950 . S
H2971 C2994 0.950 . S
H2972 C2995 0.950 . S
H2973 C2997 0.950 . S
H2974 C2998 0.950 . S
H2975 C2999 0.951 . S
H2976 C3001 0.951 . S
H2977 C3003 0.950 . S
H2978 C3004 0.950 . S
H2979 C3006 0.950 . S
H2980 C3009 0.950 . S
H2981 C3010 0.950 . S
H2982 C3012 0.950 . S
H2983 C3013 0.950 . S
C2984 H2966 0.951 . S
C2984 C2985 1.366 . S
C2984 C2986 1.388 . S
C2985 C2984 1.366 . S
C2985 C2989 1.385 . S
C2986 H2967 0.951 . S
C2986 C2984 1.388 . S
C2986 C2987 1.366 . S
C2987 C2986 1.366 . S
C2987 C2988 1.414 . S
C2987 C2990 1.499 . S
C2988 H2968 0.950 . S
C2988 C2987 1.414 . S
C2988 C2989 1.374 . S
C2989 H2969 0.950 . S
C2989 C2985 1.385 . S
C2989 C2988 1.374 . S
C2990 C2987 1.499 . S
C2990 C2991 1.373 . S
C2990 C2992 1.389 . S
C2991 H2970 0.950 . S
C2991 C2990 1.373 . S
C2991 C3007 1.377 . S
C2992 C2990 1.389 . S
C2992 C2993 1.524 . S
C2992 C3006 1.377 . S
C2993 C2992 1.524 . S
C2993 C2994 1.397 . S
C2993 C2998 1.363 . S
C2994 H2971 0.950 . S
C2994 C2993 1.397 . S
C2994 C2995 1.334 . S
C2995 H2972 0.950 . S
C2995 C2994 1.334 . S
C2995 C2996 1.287 . S
C2996 C2995 1.287 . S
C2996 C2997 1.524 . S
C2996 H3015 0.913 . S
C2997 H2973 0.950 . S
C2997 C2996 1.524 . S
C2997 C2998 1.415 . S
C2998 H2974 0.950 . S
C2998 C2993 1.363 . S
C2998 C2997 1.415 . S
C2999 H2975 0.951 . S
C2999 C3000 1.366 . S
C2999 C3001 1.388 . S
C3000 C2999 1.366 . S
C3000 C3004 1.385 . S
C3001 H2976 0.951 . S
C3001 C2999 1.388 . S
C3001 C3002 1.366 . S
C3002 C3001 1.366 . S
C3002 C3003 1.414 . S
C3002 C3005 1.499 . S
C3003 H2977 0.950 . S
C3003 C3002 1.414 . S
C3003 C3004 1.374 . S
C3004 H2978 0.950 . S
C3004 C3000 1.385 . S
C3004 C3003 1.374 . S
C3005 C3002 1.499 . S
C3005 C3006 1.373 . S
C3005 C3007 1.389 . S
C3006 H2979 0.950 . S
C3006 C2992 1.377 . S
C3006 C3005 1.373 . S
C3007 C2991 1.377 . S
C3007 C3005 1.389 . S
C3007 C3008 1.524 . S
C3008 C3007 1.524 . S
C3008 C3009 1.397 . S
C3008 C3013 1.363 . S
C3009 H2980 0.950 . S
C3009 C3008 1.397 . S
C3009 C3010 1.334 . S
C3010 H2981 0.950 . S
C3010 C3009 1.334 . S
C3010 C3011 1.287 . S
C3011 C3010 1.287 . S
C3011 C3012 1.524 . S
C3011 H3014 0.999 . S
C3012 H2982 0.950 . S
C3012 C3011 1.524 . S
C3012 C3013 1.415 . S
C3013 H2983 0.950 . S
C3013 C3008 1.363 . S
C3013 C3012 1.415 . S
H3014 C3011 0.999 . S
H3015 C2996 0.913 . S
H3016 C3034 0.951 . S
H3017 C3036 0.951 . S
H3018 C3038 0.950 . S
H3019 C3039 0.950 . S
H3020 C3041 0.950 . S
H3021 C3044 0.950 . S
H3022 C3045 0.950 . S
H3023 C3047 0.950 . S
H3024 C3048 0.950 . S
H3025 C3049 0.951 . S
H3026 C3051 0.951 . S
H3027 C3053 0.950 . S
H3028 C3054 0.950 . S
H3029 C3056 0.950 . S
H3030 C3059 0.950 . S
H3031 C3060 0.950 . S
H3032 C3062 0.950 . S
H3033 C3063 0.950 . S
C3034 H3016 0.951 . S
C3034 C3035 1.366 . S
C3034 C3036 1.388 . S
C3035 C3034 1.366 . S
C3035 C3039 1.385 . S
C3036 H3017 0.951 . S
C3036 C3034 1.388 . S
C3036 C3037 1.366 . S
C3037 C3036 1.366 . S
C3037 C3038 1.414 . S
C3037 C3040 1.499 . S
C3038 H3018 0.950 . S
C3038 C3037 1.414 . S
C3038 C3039 1.374 . S
C3039 H3019 0.950 . S
C3039 C3035 1.385 . S
C3039 C3038 1.374 . S
C3040 C3037 1.499 . S
C3040 C3041 1.373 . S
C3040 C3042 1.389 . S
C3041 H3020 0.950 . S
C3041 C3040 1.373 . S
C3041 C3057 1.377 . S
C3042 C3040 1.389 . S
C3042 C3043 1.524 . S
C3042 C3056 1.377 . S
C3043 C3042 1.524 . S
C3043 C3044 1.397 . S
C3043 C3048 1.363 . S
C3044 H3021 0.950 . S
C3044 C3043 1.397 . S
C3044 C3045 1.334 . S
C3045 H3022 0.950 . S
C3045 C3044 1.334 . S
C3045 C3046 1.287 . S
C3046 C3045 1.287 . S
C3046 C3047 1.524 . S
C3046 H3065 0.913 . S
C3047 H3023 0.950 . S
C3047 C3046 1.524 . S
C3047 C3048 1.415 . S
C3048 H3024 0.950 . S
C3048 C3043 1.363 . S
C3048 C3047 1.415 . S
C3049 H3025 0.951 . S
C3049 C3050 1.366 . S
C3049 C3051 1.388 . S
C3050 C3049 1.366 . S
C3050 C3054 1.385 . S
C3051 H3026 0.951 . S
C3051 C3049 1.388 . S
C3051 C3052 1.366 . S
C3052 C3051 1.366 . S
C3052 C3053 1.414 . S
C3052 C3055 1.499 . S
C3053 H3027 0.950 . S
C3053 C3052 1.414 . S
C3053 C3054 1.374 . S
C3054 H3028 0.950 . S
C3054 C3050 1.385 . S
C3054 C3053 1.374 . S
C3055 C3052 1.499 . S
C3055 C3056 1.373 . S
C3055 C3057 1.389 . S
C3056 H3029 0.950 . S
C3056 C3042 1.377 . S
C3056 C3055 1.373 . S
C3057 C3041 1.377 . S
C3057 C3055 1.389 . S
C3057 C3058 1.524 . S
C3058 C3057 1.524 . S
C3058 C3059 1.397 . S
C3058 C3063 1.363 . S
C3059 H3030 0.950 . S
C3059 C3058 1.397 . S
C3059 C3060 1.334 . S
C3060 H3031 0.950 . S
C3060 C3059 1.334 . S
C3060 C3061 1.287 . S
C3061 C3060 1.287 . S
C3061 C3062 1.524 . S
C3061 H3064 0.999 . S
C3062 H3032 0.950 . S
C3062 C3061 1.524 . S
C3062 C3063 1.415 . S
C3063 H3033 0.950 . S
C3063 C3058 1.363 . S
C3063 C3062 1.415 . S
H3064 C3061 0.999 . S
H3065 C3046 0.913 . S
H3066 C3084 0.951 . S
H3067 C3086 0.951 . S
H3068 C3088 0.950 . S
H3069 C3089 0.950 . S
H3070 C3091 0.950 . S
H3071 C3094 0.950 . S
H3072 C3095 0.950 . S
H3073 C3097 0.950 . S
H3074 C3098 0.950 . S
H3075 C3099 0.951 . S
H3076 C3101 0.951 . S
H3077 C3103 0.950 . S
H3078 C3104 0.950 . S
H3079 C3106 0.950 . S
H3080 C3109 0.950 . S
H3081 C3110 0.950 . S
H3082 C3112 0.950 . S
H3083 C3113 0.950 . S
C3084 H3066 0.951 . S
C3084 C3085 1.366 . S
C3084 C3086 1.388 . S
C3085 C3084 1.366 . S
C3085 C3089 1.385 . S
C3086 H3067 0.951 . S
C3086 C3084 1.388 . S
C3086 C3087 1.366 . S
C3087 C3086 1.366 . S
C3087 C3088 1.414 . S
C3087 C3090 1.499 . S
C3088 H3068 0.950 . S
C3088 C3087 1.414 . S
C3088 C3089 1.374 . S
C3089 H3069 0.950 . S
C3089 C3085 1.385 . S
C3089 C3088 1.374 . S
C3090 C3087 1.499 . S
C3090 C3091 1.373 . S
C3090 C3092 1.389 . S
C3091 H3070 0.950 . S
C3091 C3090 1.373 . S
C3091 C3107 1.377 . S
C3092 C3090 1.389 . S
C3092 C3093 1.524 . S
C3092 C3106 1.377 . S
C3093 C3092 1.524 . S
C3093 C3094 1.397 . S
C3093 C3098 1.363 . S
C3094 H3071 0.950 . S
C3094 C3093 1.397 . S
C3094 C3095 1.334 . S
C3095 H3072 0.950 . S
C3095 C3094 1.334 . S
C3095 C3096 1.287 . S
C3096 C3095 1.287 . S
C3096 C3097 1.524 . S
C3096 H3115 0.913 . S
C3097 H3073 0.950 . S
C3097 C3096 1.524 . S
C3097 C3098 1.415 . S
C3098 H3074 0.950 . S
C3098 C3093 1.363 . S
C3098 C3097 1.415 . S
C3099 H3075 0.951 . S
C3099 C3100 1.366 . S
C3099 C3101 1.388 . S
C3100 C3099 1.366 . S
C3100 C3104 1.385 . S
C3101 H3076 0.951 . S
C3101 C3099 1.388 . S
C3101 C3102 1.366 . S
C3102 C3101 1.366 . S
C3102 C3103 1.414 . S
C3102 C3105 1.499 . S
C3103 H3077 0.950 . S
C3103 C3102 1.414 . S
C3103 C3104 1.374 . S
C3104 H3078 0.950 . S
C3104 C3100 1.385 . S
C3104 C3103 1.374 . S
C3105 C3102 1.499 . S
C3105 C3106 1.373 . S
C3105 C3107 1.389 . S
C3106 H3079 0.950 . S
C3106 C3092 1.377 . S
C3106 C3105 1.373 . S
C3107 C3091 1.377 . S
C3107 C3105 1.389 . S
C3107 C3108 1.524 . S
C3108 C3107 1.524 . S
C3108 C3109 1.397 . S
C3108 C3113 1.363 . S
C3109 H3080 0.950 . S
C3109 C3108 1.397 . S
C3109 C3110 1.334 . S
C3110 H3081 0.950 . S
C3110 C3109 1.334 . S
C3110 C3111 1.287 . S
C3111 C3110 1.287 . S
C3111 C3112 1.524 . S
C3111 H3114 0.999 . S
C3112 H3082 0.950 . S
C3112 C3111 1.524 . S
C3112 C3113 1.415 . S
C3113 H3083 0.950 . S
C3113 C3108 1.363 . S
C3113 C3112 1.415 . S
H3114 C3111 0.999 . S
H3115 C3096 0.913 . S
H3116 C3134 0.951 . S
H3117 C3136 0.951 . S
H3118 C3138 0.950 . S
H3119 C3139 0.950 . S
H3120 C3141 0.950 . S
H3121 C3144 0.950 . S
H3122 C3145 0.950 . S
H3123 C3147 0.950 . S
H3124 C3148 0.950 . S
H3125 C3149 0.951 . S
H3126 C3151 0.951 . S
H3127 C3153 0.950 . S
H3128 C3154 0.950 . S
H3129 C3156 0.950 . S
H3130 C3159 0.950 . S
H3131 C3160 0.950 . S
H3132 C3162 0.950 . S
H3133 C3163 0.950 . S
C3134 H3116 0.951 . S
C3134 C3135 1.366 . S
C3134 C3136 1.388 . S
C3135 C3134 1.366 . S
C3135 C3139 1.385 . S
C3136 H3117 0.951 . S
C3136 C3134 1.388 . S
C3136 C3137 1.366 . S
C3137 C3136 1.366 . S
C3137 C3138 1.414 . S
C3137 C3140 1.499 . S
C3138 H3118 0.950 . S
C3138 C3137 1.414 . S
C3138 C3139 1.374 . S
C3139 H3119 0.950 . S
C3139 C3135 1.385 . S
C3139 C3138 1.374 . S
C3140 C3137 1.499 . S
C3140 C3141 1.373 . S
C3140 C3142 1.389 . S
C3141 H3120 0.950 . S
C3141 C3140 1.373 . S
C3141 C3157 1.377 . S
C3142 C3140 1.389 . S
C3142 C3143 1.524 . S
C3142 C3156 1.377 . S
C3143 C3142 1.524 . S
C3143 C3144 1.397 . S
C3143 C3148 1.363 . S
C3144 H3121 0.950 . S
C3144 C3143 1.397 . S
C3144 C3145 1.334 . S
C3145 H3122 0.950 . S
C3145 C3144 1.334 . S
C3145 C3146 1.287 . S
C3146 C3145 1.287 . S
C3146 C3147 1.524 . S
C3146 H3165 0.913 . S
C3147 H3123 0.950 . S
C3147 C3146 1.524 . S
C3147 C3148 1.415 . S
C3148 H3124 0.950 . S
C3148 C3143 1.363 . S
C3148 C3147 1.415 . S
C3149 H3125 0.951 . S
C3149 C3150 1.366 . S
C3149 C3151 1.388 . S
C3150 C3149 1.366 . S
C3150 C3154 1.385 . S
C3151 H3126 0.951 . S
C3151 C3149 1.388 . S
C3151 C3152 1.366 . S
C3152 C3151 1.366 . S
C3152 C3153 1.414 . S
C3152 C3155 1.499 . S
C3153 H3127 0.950 . S
C3153 C3152 1.414 . S
C3153 C3154 1.374 . S
C3154 H3128 0.950 . S
C3154 C3150 1.385 . S
C3154 C3153 1.374 . S
C3155 C3152 1.499 . S
C3155 C3156 1.373 . S
C3155 C3157 1.389 . S
C3156 H3129 0.950 . S
C3156 C3142 1.377 . S
C3156 C3155 1.373 . S
C3157 C3141 1.377 . S
C3157 C3155 1.389 . S
C3157 C3158 1.524 . S
C3158 C3157 1.524 . S
C3158 C3159 1.397 . S
C3158 C3163 1.363 . S
C3159 H3130 0.950 . S
C3159 C3158 1.397 . S
C3159 C3160 1.334 . S
C3160 H3131 0.950 . S
C3160 C3159 1.334 . S
C3160 C3161 1.287 . S
C3161 C3160 1.287 . S
C3161 C3162 1.524 . S
C3161 H3164 0.999 . S
C3162 H3132 0.950 . S
C3162 C3161 1.524 . S
C3162 C3163 1.415 . S
C3163 H3133 0.950 . S
C3163 C3158 1.363 . S
C3163 C3162 1.415 . S
H3164 C3161 0.999 . S
H3165 C3146 0.913 . S
H3166 C3184 0.951 . S
H3167 C3186 0.951 . S
H3168 C3188 0.950 . S
H3169 C3189 0.950 . S
H3170 C3191 0.950 . S
H3171 C3194 0.950 . S
H3172 C3195 0.950 . S
H3173 C3197 0.950 . S
H3174 C3198 0.950 . S
H3175 C3199 0.951 . S
H3176 C3201 0.951 . S
H3177 C3203 0.950 . S
H3178 C3204 0.950 . S
H3179 C3206 0.950 . S
H3180 C3209 0.950 . S
H3181 C3210 0.950 . S
H3182 C3212 0.950 . S
H3183 C3213 0.950 . S
C3184 H3166 0.951 . S
C3184 C3185 1.366 . S
C3184 C3186 1.388 . S
C3185 C3184 1.366 . S
C3185 C3189 1.385 . S
C3186 H3167 0.951 . S
C3186 C3184 1.388 . S
C3186 C3187 1.366 . S
C3187 C3186 1.366 . S
C3187 C3188 1.414 . S
C3187 C3190 1.499 . S
C3188 H3168 0.950 . S
C3188 C3187 1.414 . S
C3188 C3189 1.374 . S
C3189 H3169 0.950 . S
C3189 C3185 1.385 . S
C3189 C3188 1.374 . S
C3190 C3187 1.499 . S
C3190 C3191 1.373 . S
C3190 C3192 1.389 . S
C3191 H3170 0.950 . S
C3191 C3190 1.373 . S
C3191 C3207 1.377 . S
C3192 C3190 1.389 . S
C3192 C3193 1.524 . S
C3192 C3206 1.377 . S
C3193 C3192 1.524 . S
C3193 C3194 1.397 . S
C3193 C3198 1.363 . S
C3194 H3171 0.950 . S
C3194 C3193 1.397 . S
C3194 C3195 1.334 . S
C3195 H3172 0.950 . S
C3195 C3194 1.334 . S
C3195 C3196 1.287 . S
C3196 C3195 1.287 . S
C3196 C3197 1.524 . S
C3196 H3215 0.913 . S
C3197 H3173 0.950 . S
C3197 C3196 1.524 . S
C3197 C3198 1.415 . S
C3198 H3174 0.950 . S
C3198 C3193 1.363 . S
C3198 C3197 1.415 . S
C3199 H3175 0.951 . S
C3199 C3200 1.366 . S
C3199 C3201 1.388 . S
C3200 C3199 1.366 . S
C3200 C3204 1.385 . S
C3201 H3176 0.951 . S
C3201 C3199 1.388 . S
C3201 C3202 1.366 . S
C3202 C3201 1.366 . S
C3202 C3203 1.414 . S
C3202 C3205 1.499 . S
C3203 H3177 0.950 . S
C3203 C3202 1.414 . S
C3203 C3204 1.374 . S
C3204 H3178 0.950 . S
C3204 C3200 1.385 . S
C3204 C3203 1.374 . S
C3205 C3202 1.499 . S
C3205 C3206 1.373 . S
C3205 C3207 1.389 . S
C3206 H3179 0.950 . S
C3206 C3192 1.377 . S
C3206 C3205 1.373 . S
C3207 C3191 1.377 . S
C3207 C3205 1.389 . S
C3207 C3208 1.524 . S
C3208 C3207 1.524 . S
C3208 C3209 1.397 . S
C3208 C3213 1.363 . S
C3209 H3180 0.950 . S
C3209 C3208 1.397 . S
C3209 C3210 1.334 . S
C3210 H3181 0.950 . S
C3210 C3209 1.334 . S
C3210 C3211 1.287 . S
C3211 C3210 1.287 . S
C3211 C3212 1.524 . S
C3211 H3214 0.999 . S
C3212 H3182 0.950 . S
C3212 C3211 1.524 . S
C3212 C3213 1.415 . S
C3213 H3183 0.950 . S
C3213 C3208 1.363 . S
C3213 C3212 1.415 . S
H3214 C3211 0.999 . S
H3215 C3196 0.913 . S
H3216 C3234 0.951 . S
H3217 C3236 0.951 . S
H3218 C3238 0.950 . S
H3219 C3239 0.950 . S
H3220 C3241 0.950 . S
H3221 C3244 0.950 . S
H3222 C3245 0.950 . S
H3223 C3247 0.950 . S
H3224 C3248 0.950 . S
H3225 C3249 0.951 . S
H3226 C3251 0.951 . S
H3227 C3253 0.950 . S
H3228 C3254 0.950 . S
H3229 C3256 0.950 . S
H3230 C3259 0.950 . S
H3231 C3260 0.950 . S
H3232 C3262 0.950 . S
H3233 C3263 0.950 . S
C3234 H3216 0.951 . S
C3234 C3235 1.366 . S
C3234 C3236 1.388 . S
C3235 C3234 1.366 . S
C3235 C3239 1.385 . S
C3236 H3217 0.951 . S
C3236 C3234 1.388 . S
C3236 C3237 1.366 . S
C3237 C3236 1.366 . S
C3237 C3238 1.414 . S
C3237 C3240 1.499 . S
C3238 H3218 0.950 . S
C3238 C3237 1.414 . S
C3238 C3239 1.374 . S
C3239 H3219 0.950 . S
C3239 C3235 1.385 . S
C3239 C3238 1.374 . S
C3240 C3237 1.499 . S
C3240 C3241 1.373 . S
C3240 C3242 1.389 . S
C3241 H3220 0.950 . S
C3241 C3240 1.373 . S
C3241 C3257 1.377 . S
C3242 C3240 1.389 . S
C3242 C3243 1.524 . S
C3242 C3256 1.377 . S
C3243 C3242 1.524 . S
C3243 C3244 1.397 . S
C3243 C3248 1.363 . S
C3244 H3221 0.950 . S
C3244 C3243 1.397 . S
C3244 C3245 1.334 . S
C3245 H3222 0.950 . S
C3245 C3244 1.334 . S
C3245 C3246 1.287 . S
C3246 C3245 1.287 . S
C3246 C3247 1.524 . S
C3246 H3265 0.913 . S
C3247 H3223 0.950 . S
C3247 C3246 1.524 . S
C3247 C3248 1.415 . S
C3248 H3224 0.950 . S
C3248 C3243 1.363 . S
C3248 C3247 1.415 . S
C3249 H3225 0.951 . S
C3249 C3250 1.366 . S
C3249 C3251 1.388 . S
C3250 C3249 1.366 . S
C3250 C3254 1.385 . S
C3251 H3226 0.951 . S
C3251 C3249 1.388 . S
C3251 C3252 1.366 . S
C3252 C3251 1.366 . S
C3252 C3253 1.414 . S
C3252 C3255 1.499 . S
C3253 H3227 0.950 . S
C3253 C3252 1.414 . S
C3253 C3254 1.374 . S
C3254 H3228 0.950 . S
C3254 C3250 1.385 . S
C3254 C3253 1.374 . S
C3255 C3252 1.499 . S
C3255 C3256 1.373 . S
C3255 C3257 1.389 . S
C3256 H3229 0.950 . S
C3256 C3242 1.377 . S
C3256 C3255 1.373 . S
C3257 C3241 1.377 . S
C3257 C3255 1.389 . S
C3257 C3258 1.524 . S
C3258 C3257 1.524 . S
C3258 C3259 1.397 . S
C3258 C3263 1.363 . S
C3259 H3230 0.950 . S
C3259 C3258 1.397 . S
C3259 C3260 1.334 . S
C3260 H3231 0.950 . S
C3260 C3259 1.334 . S
C3260 C3261 1.287 . S
C3261 C3260 1.287 . S
C3261 C3262 1.524 . S
C3261 H3264 0.999 . S
C3262 H3232 0.950 . S
C3262 C3261 1.524 . S
C3262 C3263 1.415 . S
C3263 H3233 0.950 . S
C3263 C3258 1.363 . S
C3263 C3262 1.415 . S
H3264 C3261 0.999 . S
H3265 C3246 0.913 . S
H3266 C3284 0.951 . S
H3267 C3286 0.951 . S
H3268 C3288 0.950 . S
H3269 C3289 0.950 . S
H3270 C3291 0.950 . S
H3271 C3294 0.950 . S
H3272 C3295 0.950 . S
H3273 C3297 0.950 . S
H3274 C3298 0.950 . S
H3275 C3299 0.951 . S
H3276 C3301 0.951 . S
H3277 C3303 0.950 . S
H3278 C3304 0.950 . S
H3279 C3306 0.950 . S
H3280 C3309 0.950 . S
H3281 C3310 0.950 . S
H3282 C3312 0.950 . S
H3283 C3313 0.950 . S
C3284 H3266 0.951 . S
C3284 C3285 1.366 . S
C3284 C3286 1.388 . S
C3285 C3284 1.366 . S
C3285 C3289 1.385 . S
C3286 H3267 0.951 . S
C3286 C3284 1.388 . S
C3286 C3287 1.366 . S
C3287 C3286 1.366 . S
C3287 C3288 1.414 . S
C3287 C3290 1.499 . S
C3288 H3268 0.950 . S
C3288 C3287 1.414 . S
C3288 C3289 1.374 . S
C3289 H3269 0.950 . S
C3289 C3285 1.385 . S
C3289 C3288 1.374 . S
C3290 C3287 1.499 . S
C3290 C3291 1.373 . S
C3290 C3292 1.389 . S
C3291 H3270 0.950 . S
C3291 C3290 1.373 . S
C3291 C3307 1.377 . S
C3292 C3290 1.389 . S
C3292 C3293 1.524 . S
C3292 C3306 1.377 . S
C3293 C3292 1.524 . S
C3293 C3294 1.397 . S
C3293 C3298 1.363 . S
C3294 H3271 0.950 . S
C3294 C3293 1.397 . S
C3294 C3295 1.334 . S
C3295 H3272 0.950 . S
C3295 C3294 1.334 . S
C3295 C3296 1.287 . S
C3296 C3295 1.287 . S
C3296 C3297 1.524 . S
C3296 H3315 0.913 . S
C3297 H3273 0.950 . S
C3297 C3296 1.524 . S
C3297 C3298 1.415 . S
C3298 H3274 0.950 . S
C3298 C3293 1.363 . S
C3298 C3297 1.415 . S
C3299 H3275 0.951 . S
C3299 C3300 1.366 . S
C3299 C3301 1.388 . S
C3300 C3299 1.366 . S
C3300 C3304 1.385 . S
C3301 H3276 0.951 . S
C3301 C3299 1.388 . S
C3301 C3302 1.366 . S
C3302 C3301 1.366 . S
C3302 C3303 1.414 . S
C3302 C3305 1.499 . S
C3303 H3277 0.950 . S
C3303 C3302 1.414 . S
C3303 C3304 1.374 . S
C3304 H3278 0.950 . S
C3304 C3300 1.385 . S
C3304 C3303 1.374 . S
C3305 C3302 1.499 . S
C3305 C3306 1.373 . S
C3305 C3307 1.389 . S
C3306 H3279 0.950 . S
C3306 C3292 1.377 . S
C3306 C3305 1.373 . S
C3307 C3291 1.377 . S
C3307 C3305 1.389 . S
C3307 C3308 1.524 . S
C3308 C3307 1.524 . S
C3308 C3309 1.397 . S
C3308 C3313 1.363 . S
C3309 H3280 0.950 . S
C3309 C3308 1.397 . S
C3309 C3310 1.334 . S
C3310 H3281 0.950 . S
C3310 C3309 1.334 . S
C3310 C3311 1.287 . S
C3311 C3310 1.287 . S
C3311 C3312 1.524 . S
C3311 H3314 0.999 . S
C3312 H3282 0.950 . S
C3312 C3311 1.524 . S
C3312 C3313 1.415 . S
C3313 H3283 0.950 . S
C3313 C3308 1.363 . S
C3313 C3312 1.415 . S
H3314 C3311 0.999 . S
H3315 C3296 0.913 . S
H3316 C3334 0.951 . S
H3317 C3336 0.951 . S
H3318 C3338 0.950 . S
H3319 C3339 0.950 . S
H3320 C3341 0.950 . S
H3321 C3344 0.950 . S
H3322 C3345 0.950 . S
H3323 C3347 0.950 . S
H3324 C3348 0.950 . S
H3325 C3349 0.951 . S
H3326 C3351 0.951 . S
H3327 C3353 0.950 . S
H3328 C3354 0.950 . S
H3329 C3356 0.950 . S
H3330 C3359 0.950 . S
H3331 C3360 0.950 . S
H3332 C3362 0.950 . S
H3333 C3363 0.950 . S
C3334 H3316 0.951 . S
C3334 C3335 1.366 . S
C3334 C3336 1.388 . S
C3335 C3334 1.366 . S
C3335 C3339 1.385 . S
C3336 H3317 0.951 . S
C3336 C3334 1.388 . S
C3336 C3337 1.366 . S
C3337 C3336 1.366 . S
C3337 C3338 1.414 . S
C3337 C3340 1.499 . S
C3338 H3318 0.950 . S
C3338 C3337 1.414 . S
C3338 C3339 1.374 . S
C3339 H3319 0.950 . S
C3339 C3335 1.385 . S
C3339 C3338 1.374 . S
C3340 C3337 1.499 . S
C3340 C3341 1.373 . S
C3340 C3342 1.389 . S
C3341 H3320 0.950 . S
C3341 C3340 1.373 . S
C3341 C3357 1.377 . S
C3342 C3340 1.389 . S
C3342 C3343 1.524 . S
C3342 C3356 1.377 . S
C3343 C3342 1.524 . S
C3343 C3344 1.397 . S
C3343 C3348 1.363 . S
C3344 H3321 0.950 . S
C3344 C3343 1.397 . S
C3344 C3345 1.334 . S
C3345 H3322 0.950 . S
C3345 C3344 1.334 . S
C3345 C3346 1.287 . S
C3346 C3345 1.287 . S
C3346 C3347 1.524 . S
C3346 H3365 0.913 . S
C3347 H3323 0.950 . S
C3347 C3346 1.524 . S
C3347 C3348 1.415 . S
C3348 H3324 0.950 . S
C3348 C3343 1.363 . S
C3348 C3347 1.415 . S
C3349 H3325 0.951 . S
C3349 C3350 1.366 . S
C3349 C3351 1.388 . S
C3350 C3349 1.366 . S
C3350 C3354 1.385 . S
C3351 H3326 0.951 . S
C3351 C3349 1.388 . S
C3351 C3352 1.366 . S
C3352 C3351 1.366 . S
C3352 C3353 1.414 . S
C3352 C3355 1.499 . S
C3353 H3327 0.950 . S
C3353 C3352 1.414 . S
C3353 C3354 1.374 . S
C3354 H3328 0.950 . S
C3354 C3350 1.385 . S
C3354 C3353 1.374 . S
C3355 C3352 1.499 . S
C3355 C3356 1.373 . S
C3355 C3357 1.389 . S
C3356 H3329 0.950 . S
C3356 C3342 1.377 . S
C3356 C3355 1.373 . S
C3357 C3341 1.377 . S
C3357 C3355 1.389 . S
C3357 C3358 1.524 . S
C3358 C3357 1.524 . S
C3358 C3359 1.397 . S
C3358 C3363 1.363 . S
C3359 H3330 0.950 . S
C3359 C3358 1.397 . S
C3359 C3360 1.334 . S
C3360 H3331 0.950 . S
C3360 C3359 1.334 . S
C3360 C3361 1.287 . S
C3361 C3360 1.287 . S
C3361 C3362 1.524 . S
C3361 H3364 0.999 . S
C3362 H3332 0.950 . S
C3362 C3361 1.524 . S
C3362 C3363 1.415 . S
C3363 H3333 0.950 . S
C3363 C3358 1.363 . S
C3363 C3362 1.415 . S
H3364 C3361 0.999 . S
H3365 C3346 0.913 . S
H3366 C3384 0.951 . S
H3367 C3386 0.951 . S
H3368 C3388 0.950 . S
H3369 C3389 0.950 . S
H3370 C3391 0.950 . S
H3371 C3394 0.950 . S
H3372 C3395 0.950 . S
H3373 C3397 0.950 . S
H3374 C3398 0.950 . S
H3375 C3399 0.951 . S
H3376 C3401 0.951 . S
H3377 C3403 0.950 . S
H3378 C3404 0.950 . S
H3379 C3406 0.950 . S
H3380 C3409 0.950 . S
H3381 C3410 0.950 . S
H3382 C3412 0.950 . S
H3383 C3413 0.950 . S
C3384 H3366 0.951 . S
C3384 C3385 1.366 . S
C3384 C3386 1.388 . S
C3385 C3384 1.366 . S
C3385 C3389 1.385 . S
C3386 H3367 0.951 . S
C3386 C3384 1.388 . S
C3386 C3387 1.366 . S
C3387 C3386 1.366 . S
C3387 C3388 1.414 . S
C3387 C3390 1.499 . S
C3388 H3368 0.950 . S
C3388 C3387 1.414 . S
C3388 C3389 1.374 . S
C3389 H3369 0.950 . S
C3389 C3385 1.385 . S
C3389 C3388 1.374 . S
C3390 C3387 1.499 . S
C3390 C3391 1.373 . S
C3390 C3392 1.389 . S
C3391 H3370 0.950 . S
C3391 C3390 1.373 . S
C3391 C3407 1.377 . S
C3392 C3390 1.389 . S
C3392 C3393 1.524 . S
C3392 C3406 1.377 . S
C3393 C3392 1.524 . S
C3393 C3394 1.397 . S
C3393 C3398 1.363 . S
C3394 H3371 0.950 . S
C3394 C3393 1.397 . S
C3394 C3395 1.334 . S
C3395 H3372 0.950 . S
C3395 C3394 1.334 . S
C3395 C3396 1.287 . S
C3396 C3395 1.287 . S
C3396 C3397 1.524 . S
C3396 H3415 0.913 . S
C3397 H3373 0.950 . S
C3397 C3396 1.524 . S
C3397 C3398 1.415 . S
C3398 H3374 0.950 . S
C3398 C3393 1.363 . S
C3398 C3397 1.415 . S
C3399 H3375 0.951 . S
C3399 C3400 1.366 . S
C3399 C3401 1.388 . S
C3400 C3399 1.366 . S
C3400 C3404 1.385 . S
C3401 H3376 0.951 . S
C3401 C3399 1.388 . S
C3401 C3402 1.366 . S
C3402 C3401 1.366 . S
C3402 C3403 1.414 . S
C3402 C3405 1.499 . S
C3403 H3377 0.950 . S
C3403 C3402 1.414 . S
C3403 C3404 1.374 . S
C3404 H3378 0.950 . S
C3404 C3400 1.385 . S
C3404 C3403 1.374 . S
C3405 C3402 1.499 . S
C3405 C3406 1.373 . S
C3405 C3407 1.389 . S
C3406 H3379 0.950 . S
C3406 C3392 1.377 . S
C3406 C3405 1.373 . S
C3407 C3391 1.377 . S
C3407 C3405 1.389 . S
C3407 C3408 1.524 . S
C3408 C3407 1.524 . S
C3408 C3409 1.397 . S
C3408 C3413 1.363 . S
C3409 H3380 0.950 . S
C3409 C3408 1.397 . S
C3409 C3410 1.334 . S
C3410 H3381 0.950 . S
C3410 C3409 1.334 . S
C3410 C3411 1.287 . S
C3411 C3410 1.287 . S
C3411 C3412 1.524 . S
C3411 H3414 0.999 . S
C3412 H3382 0.950 . S
C3412 C3411 1.524 . S
C3412 C3413 1.415 . S
C3413 H3383 0.950 . S
C3413 C3408 1.363 . S
C3413 C3412 1.415 . S
H3414 C3411 0.999 . S
H3415 C3396 0.913 . S
H3416 C3434 0.951 . S
H3417 C3436 0.951 . S
H3418 C3438 0.950 . S
H3419 C3439 0.950 . S
H3420 C3441 0.950 . S
H3421 C3444 0.950 . S
H3422 C3445 0.950 . S
H3423 C3447 0.950 . S
H3424 C3448 0.950 . S
H3425 C3449 0.951 . S
H3426 C3451 0.951 . S
H3427 C3453 0.950 . S
H3428 C3454 0.950 . S
H3429 C3456 0.950 . S
H3430 C3459 0.950 . S
H3431 C3460 0.950 . S
H3432 C3462 0.950 . S
H3433 C3463 0.950 . S
C3434 H3416 0.951 . S
C3434 C3435 1.366 . S
C3434 C3436 1.388 . S
C3435 C3434 1.366 . S
C3435 C3439 1.385 . S
C3436 H3417 0.951 . S
C3436 C3434 1.388 . S
C3436 C3437 1.366 . S
C3437 C3436 1.366 . S
C3437 C3438 1.414 . S
C3437 C3440 1.499 . S
C3438 H3418 0.950 . S
C3438 C3437 1.414 . S
C3438 C3439 1.374 . S
C3439 H3419 0.950 . S
C3439 C3435 1.385 . S
C3439 C3438 1.374 . S
C3440 C3437 1.499 . S
C3440 C3441 1.373 . S
C3440 C3442 1.389 . S
C3441 H3420 0.950 . S
C3441 C3440 1.373 . S
C3441 C3457 1.377 . S
C3442 C3440 1.389 . S
C3442 C3443 1.524 . S
C3442 C3456 1.377 . S
C3443 C3442 1.524 . S
C3443 C3444 1.397 . S
C3443 C3448 1.363 . S
C3444 H3421 0.950 . S
C3444 C3443 1.397 . S
C3444 C3445 1.334 . S
C3445 H3422 0.950 . S
C3445 C3444 1.334 . S
C3445 C3446 1.287 . S
C3446 C3445 1.287 . S
C3446 C3447 1.524 . S
C3446 H3465 0.913 . S
C3447 H3423 0.950 . S
C3447 C3446 1.524 . S
C3447 C3448 1.415 . S
C3448 H3424 0.950 . S
C3448 C3443 1.363 . S
C3448 C3447 1.415 . S
C3449 H3425 0.951 . S
C3449 C3450 1.366 . S
C3449 C3451 1.388 . S
C3450 C3449 1.366 . S
C3450 C3454 1.385 . S
C3451 H3426 0.951 . S
C3451 C3449 1.388 . S
C3451 C3452 1.366 . S
C3452 C3451 1.366 . S
C3452 C3453 1.414 . S
C3452 C3455 1.499 . S
C3453 H3427 0.950 . S
C3453 C3452 1.414 . S
C3453 C3454 1.374 . S
C3454 H3428 0.950 . S
C3454 C3450 1.385 . S
C3454 C3453 1.374 . S
C3455 C3452 1.499 . S
C3455 C3456 1.373 . S
C3455 C3457 1.389 . S
C3456 H3429 0.950 . S
C3456 C3442 1.377 . S
C3456 C3455 1.373 . S
C3457 C3441 1.377 . S
C3457 C3455 1.389 . S
C3457 C3458 1.524 . S
C3458 C3457 1.524 . S
C3458 C3459 1.397 . S
C3458 C3463 1.363 . S
C3459 H3430 0.950 . S
C3459 C3458 1.397 . S
C3459 C3460 1.334 . S
C3460 H3431 0.950 . S
C3460 C3459 1.334 . S
C3460 C3461 1.287 . S
C3461 C3460 1.287 . S
C3461 C3462 1.524 . S
C3461 H3464 0.999 . S
C3462 H3432 0.950 . S
C3462 C3461 1.524 . S
C3462 C3463 1.415 . S
C3463 H3433 0.950 . S
C3463 C3458 1.363 . S
C3463 C3462 1.415 . S
H3464 C3461 0.999 . S
H3465 C3446 0.913 . S
H3466 C3484 0.951 . S
H3467 C3486 0.951 . S
H3468 C3488 0.950 . S
H3469 C3489 0.950 . S
H3470 C3491 0.950 . S
H3471 C3494 0.950 . S
H3472 C3495 0.950 . S
H3473 C3497 0.950 . S
H3474 C3498 0.950 . S
H3475 C3499 0.951 . S
H3476 C3501 0.951 . S
H3477 C3503 0.950 . S
H3478 C3504 0.950 . S
H3479 C3506 0.950 . S
H3480 C3509 0.950 . S
H3481 C3510 0.950 . S
H3482 C3512 0.950 . S
H3483 C3513 0.950 . S
C3484 H3466 0.951 . S
C3484 C3485 1.366 . S
C3484 C3486 1.388 . S
C3485 C3484 1.366 . S
C3485 C3489 1.385 . S
C3486 H3467 0.951 . S
C3486 C3484 1.388 . S
C3486 C3487 1.366 . S
C3487 C3486 1.366 . S
C3487 C3488 1.414 . S
C3487 C3490 1.499 . S
C3488 H3468 0.950 . S
C3488 C3487 1.414 . S
C3488 C3489 1.374 . S
C3489 H3469 0.950 . S
C3489 C3485 1.385 . S
C3489 C3488 1.374 . S
C3490 C3487 1.499 . S
C3490 C3491 1.373 . S
C3490 C3492 1.389 . S
C3491 H3470 0.950 . S
C3491 C3490 1.373 . S
C3491 C3507 1.377 . S
C3492 C3490 1.389 . S
C3492 C3493 1.524 . S
C3492 C3506 1.377 . S
C3493 C3492 1.524 . S
C3493 C3494 1.397 . S
C3493 C3498 1.363 . S
C3494 H3471 0.950 . S
C3494 C3493 1.397 . S
C3494 C3495 1.334 . S
C3495 H3472 0.950 . S
C3495 C3494 1.334 . S
C3495 C3496 1.287 . S
C3496 C3495 1.287 . S
C3496 C3497 1.524 . S
C3496 H3515 0.913 . S
C3497 H3473 0.950 . S
C3497 C3496 1.524 . S
C3497 C3498 1.415 . S
C3498 H3474 0.950 . S
C3498 C3493 1.363 . S
C3498 C3497 1.415 . S
C3499 H3475 0.951 . S
C3499 C3500 1.366 . S
C3499 C3501 1.388 . S
C3500 C3499 1.366 . S
C3500 C3504 1.385 . S
C3501 H3476 0.951 . S
C3501 C3499 1.388 . S
C3501 C3502 1.366 . S
C3502 C3501 1.366 . S
C3502 C3503 1.414 . S
C3502 C3505 1.499 . S
C3503 H3477 0.950 . S
C3503 C3502 1.414 . S
C3503 C3504 1.374 . S
C3504 H3478 0.950 . S
C3504 C3500 1.385 . S
C3504 C3503 1.374 . S
C3505 C3502 1.499 . S
C3505 C3506 1.373 . S
C3505 C3507 1.389 . S
C3506 H3479 0.950 . S
C3506 C3492 1.377 . S
C3506 C3505 1.373 . S
C3507 C3491 1.377 . S
C3507 C3505 1.389 . S
C3507 C3508 1.524 . S
C3508 C3507 1.524 . S
C3508 C3509 1.397 . S
C3508 C3513 1.363 . S
C3509 H3480 0.950 . S
C3509 C3508 1.397 . S
C3509 C3510 1.334 . S
C3510 H3481 0.950 . S
C3510 C3509 1.334 . S
C3510 C3511 1.287 . S
C3511 C3510 1.287 . S
C3511 C3512 1.524 . S
C3511 H3514 0.999 . S
C3512 H3482 0.950 . S
C3512 C3511 1.524 . S
C3512 C3513 1.415 . S
C3513 H3483 0.950 . S
C3513 C3508 1.363 . S
C3513 C3512 1.415 . S
H3514 C3511 0.999 . S
H3515 C3496 0.913 . S
H3516 C3534 0.951 . S
H3517 C3536 0.951 . S
H3518 C3538 0.950 . S
H3519 C3539 0.950 . S
H3520 C3541 0.950 . S
H3521 C3544 0.950 . S
H3522 C3545 0.950 . S
H3523 C3547 0.950 . S
H3524 C3548 0.950 . S
H3525 C3549 0.951 . S
H3526 C3551 0.951 . S
H3527 C3553 0.950 . S
H3528 C3554 0.950 . S
H3529 C3556 0.950 . S
H3530 C3559 0.950 . S
H3531 C3560 0.950 . S
H3532 C3562 0.950 . S
H3533 C3563 0.950 . S
C3534 H3516 0.951 . S
C3534 C3535 1.366 . S
C3534 C3536 1.388 . S
C3535 C3534 1.366 . S
C3535 C3539 1.385 . S
C3536 H3517 0.951 . S
C3536 C3534 1.388 . S
C3536 C3537 1.366 . S
C3537 C3536 1.366 . S
C3537 C3538 1.414 . S
C3537 C3540 1.499 . S
C3538 H3518 0.950 . S
C3538 C3537 1.414 . S
C3538 C3539 1.374 . S
C3539 H3519 0.950 . S
C3539 C3535 1.385 . S
C3539 C3538 1.374 . S
C3540 C3537 1.499 . S
C3540 C3541 1.373 . S
C3540 C3542 1.389 . S
C3541 H3520 0.950 . S
C3541 C3540 1.373 . S
C3541 C3557 1.377 . S
C3542 C3540 1.389 . S
C3542 C3543 1.524 . S
C3542 C3556 1.377 . S
C3543 C3542 1.524 . S
C3543 C3544 1.397 . S
C3543 C3548 1.363 . S
C3544 H3521 0.950 . S
C3544 C3543 1.397 . S
C3544 C3545 1.334 . S
C3545 H3522 0.950 . S
C3545 C3544 1.334 . S
C3545 C3546 1.287 . S
C3546 C3545 1.287 . S
C3546 C3547 1.524 . S
C3546 H3565 0.913 . S
C3547 H3523 0.950 . S
C3547 C3546 1.524 . S
C3547 C3548 1.415 . S
C3548 H3524 0.950 . S
C3548 C3543 1.363 . S
C3548 C3547 1.415 . S
C3549 H3525 0.951 . S
C3549 C3550 1.366 . S
C3549 C3551 1.388 . S
C3550 C3549 1.366 . S
C3550 C3554 1.385 . S
C3551 H3526 0.951 . S
C3551 C3549 1.388 . S
C3551 C3552 1.366 . S
C3552 C3551 1.366 . S
C3552 C3553 1.414 . S
C3552 C3555 1.499 . S
C3553 H3527 0.950 . S
C3553 C3552 1.414 . S
C3553 C3554 1.374 . S
C3554 H3528 0.950 . S
C3554 C3550 1.385 . S
C3554 C3553 1.374 . S
C3555 C3552 1.499 . S
C3555 C3556 1.373 . S
C3555 C3557 1.389 . S
C3556 H3529 0.950 . S
C3556 C3542 1.377 . S
C3556 C3555 1.373 . S
C3557 C3541 1.377 . S
C3557 C3555 1.389 . S
C3557 C3558 1.524 . S
C3558 C3557 1.524 . S
C3558 C3559 1.397 . S
C3558 C3563 1.363 . S
C3559 H3530 0.950 . S
C3559 C3558 1.397 . S
C3559 C3560 1.334 . S
C3560 H3531 0.950 . S
C3560 C3559 1.334 . S
C3560 C3561 1.287 . S
C3561 C3560 1.287 . S
C3561 C3562 1.524 . S
C3561 H3564 0.999 . S
C3562 H3532 0.950 . S
C3562 C3561 1.524 . S
C3562 C3563 1.415 . S
C3563 H3533 0.950 . S
C3563 C3558 1.363 . S
C3563 C3562 1.415 . S
H3564 C3561 0.999 . S
H3565 C3546 0.913 . S
H3566 C3584 0.951 . S
H3567 C3586 0.951 . S
H3568 C3588 0.950 . S
H3569 C3589 0.950 . S
H3570 C3591 0.950 . S
H3571 C3594 0.950 . S
H3572 C3595 0.950 . S
H3573 C3597 0.950 . S
H3574 C3598 0.950 . S
H3575 C3599 0.951 . S
H3576 C3601 0.951 . S
H3577 C3603 0.950 . S
H3578 C3604 0.950 . S
H3579 C3606 0.950 . S
H3580 C3609 0.950 . S
H3581 C3610 0.950 . S
H3582 C3612 0.950 . S
H3583 C3613 0.950 . S
C3584 H3566 0.951 . S
C3584 C3585 1.366 . S
C3584 C3586 1.388 . S
C3585 C3584 1.366 . S
C3585 C3589 1.385 . S
C3586 H3567 0.951 . S
C3586 C3584 1.388 . S
C3586 C3587 1.366 . S
C3587 C3586 1.366 . S
C3587 C3588 1.414 . S
C3587 C3590 1.499 . S
C3588 H3568 0.950 . S
C3588 C3587 1.414 . S
C3588 C3589 1.374 . S
C3589 H3569 0.950 . S
C3589 C3585 1.385 . S
C3589 C3588 1.374 . S
C3590 C3587 1.499 . S
C3590 C3591 1.373 . S
C3590 C3592 1.389 . S
C3591 H3570 0.950 . S
C3591 C3590 1.373 . S
C3591 C3607 1.377 . S
C3592 C3590 1.389 . S
C3592 C3593 1.524 . S
C3592 C3606 1.377 . S
C3593 C3592 1.524 . S
C3593 C3594 1.397 . S
C3593 C3598 1.363 . S
C3594 H3571 0.950 . S
C3594 C3593 1.397 . S
C3594 C3595 1.334 . S
C3595 H3572 0.950 . S
C3595 C3594 1.334 . S
C3595 C3596 1.287 . S
C3596 C3595 1.287 . S
C3596 C3597 1.524 . S
C3596 H3615 0.913 . S
C3597 H3573 0.950 . S
C3597 C3596 1.524 . S
C3597 C3598 1.415 . S
C3598 H3574 0.950 . S
C3598 C3593 1.363 . S
C3598 C3597 1.415 . S
C3599 H3575 0.951 . S
C3599 C3600 1.366 . S
C3599 C3601 1.388 . S
C3600 C3599 1.366 . S
C3600 C3604 1.385 . S
C3601 H3576 0.951 . S
C3601 C3599 1.388 . S
C3601 C3602 1.366 . S
C3602 C3601 1.366 . S
C3602 C3603 1.414 . S
C3602 C3605 1.499 . S
C3603 H3577 0.950 . S
C3603 C3602 1.414 . S
C3603 C3604 1.374 . S
C3604 H3578 0.950 . S
C3604 C3600 1.385 . S
C3604 C3603 1.374 . S
C3605 C3602 1.499 . S
C3605 C3606 1.373 . S
C3605 C3607 1.389 . S
C3606 H3579 0.950 . S
C3606 C3592 1.377 . S
C3606 C3605 1.373 . S
C3607 C3591 1.377 . S
C3607 C3605 1.389 . S
C3607 C3608 1.524 . S
C3608 C3607 1.524 . S
C3608 C3609 1.397 . S
C3608 C3613 1.363 . S
C3609 H3580 0.950 . S
C3609 C3608 1.397 . S
C3609 C3610 1.334 . S
C3610 H3581 0.950 . S
C3610 C3609 1.334 . S
C3610 C3611 1.287 . S
C3611 C3610 1.287 . S
C3611 C3612 1.524 . S
C3611 H3614 0.999 . S
C3612 H3582 0.950 . S
C3612 C3611 1.524 . S
C3612 C3613 1.415 . S
C3613 H3583 0.950 . S
C3613 C3608 1.363 . S
C3613 C3612 1.415 . S
H3614 C3611 0.999 . S
H3615 C3596 0.913 . S
C435 C382 1.725 . S
C450 C5 1.725 . S
C485 C18 1.725 . S
C500 C395 1.725 . S
C535 C408 1.725 . S
C550 C29 1.725 . S
C585 C367 1.725 . S
C600 C44 1.725 . S
C635 C57 1.725 . S
C650 C356 1.725 . S
C685 C317 1.725 . S
C700 C68 1.725 . S
C735 C83 1.725 . S
C750 C328 1.725 . S
C785 C343 1.725 . S
C800 C96 1.725 . S
C835 C109 1.725 . S
C850 C278 1.725 . S
C885 C120 1.725 . S
C900 C289 1.725 . S
C935 C304 1.725 . S
C950 C135 1.725 . S
C985 C148 1.725 . S
C1000 C265 1.725 . S
C1035 C250 1.725 . S
C1050 C161 1.725 . S
C1085 C213 1.725 . S
C1100 C172 1.725 . S
C1135 C187 1.725 . S
C1150 C226 1.725 . S
C1185 C200 1.725 . S
C1200 C237 1.725 . S
C1235 C3 1.317 . S
C1250 C133 1.316 . S
C1285 C146 1.316 . S
C1300 C16 1.316 . S
C1335 C107 1.316 . S
C1350 C31 1.317 . S
C1385 C122 1.316 . S
C1400 C42 1.316 . S
C1435 C55 1.317 . S
C1450 C185 1.316 . S
C1485 C198 1.316 . S
C1500 C70 1.316 . S
C1535 C159 1.316 . S
C1550 C81 1.317 . S
C1585 C174 1.316 . S
C1600 C94 1.316 . S
C1635 C211 1.316 . S
C1650 C341 1.316 . S
C1685 C354 1.316 . S
C1700 C224 1.317 . S
C1735 C315 1.316 . S
C1750 C239 1.316 . S
C1785 C252 1.316 . S
C1800 C330 1.316 . S
C1835 C263 1.316 . S
C1850 C393 1.317 . S
C1885 C406 1.316 . S
C1900 C276 1.316 . S
C1935 C369 1.316 . S
C1950 C291 1.316 . S
C1985 C302 1.316 . S
C2000 C380 1.316 . S
C2035 C4 1.683 . S
C2050 C56 1.683 . S
C2085 C17 1.683 . S
C2100 C75 1.683 . S
C2135 C82 1.683 . S
C2150 C36 1.683 . S
C2185 C43 1.683 . S
C2200 C95 1.683 . S
C2235 C108 1.683 . S
C2250 C160 1.683 . S
C2285 C179 1.683 . S
C2300 C127 1.683 . S
C2335 C186 1.683 . S
C2350 C134 1.683 . S
C2385 C147 1.683 . S
C2400 C199 1.683 . S
C2435 C212 1.682 . S
C2450 C264 1.682 . S
C2485 C277 1.683 . S
C2500 C225 1.683 . S
C2535 C244 1.683 . S
C2550 C296 1.683 . S
C2585 C303 1.683 . S
C2600 C257 1.683 . S
C2635 C374 1.683 . S
C2650 C316 1.683 . S
C2685 C335 1.683 . S
C2700 C381 1.683 . S
C2735 C342 1.683 . S
C2750 C394 1.683 . S
C2785 C355 1.682 . S
C2800 C407 1.682 . S
C2835 C10 1.367 . S
C2850 C69 1.367 . S
C2885 C23 1.367 . S
C2900 C88 1.367 . S
C2935 C101 1.367 . S
C2950 C30 1.367 . S
C2985 C62 1.367 . S
C3000 C49 1.367 . S
C3035 C173 1.367 . S
C3050 C114 1.367 . S
C3085 C192 1.367 . S
C3100 C121 1.367 . S
C3135 C205 1.367 . S
C3150 C140 1.367 . S
C3185 C153 1.367 . S
C3200 C166 1.367 . S
C3235 C218 1.367 . S
C3250 C283 1.367 . S
C3285 C290 1.367 . S
C3300 C231 1.367 . S
C3335 C309 1.367 . S
C3350 C238 1.367 . S
C3385 C251 1.367 . S
C3400 C270 1.367 . S
C3435 C387 1.367 . S
C3450 C322 1.367 . S
C3485 C329 1.367 . S
C3500 C400 1.367 . S
C3535 C348 1.367 . S
C3550 C413 1.367 . S
C3585 C368 1.367 . S
C3600 C361 1.367 . S
