# Generated by pormake.
# Topology umf, (4)-cn, num edge types: 1
# Building blocks:
#     Node 0, Type 0, BuildingBlock: NAWXER_clean_sbu_0, # of connection points: 4
#     Node 1, Type 0, BuildingBlock: NAWXER_clean_sbu_0, # of connection points: 4
#     Node 2, Type 0, BuildingBlock: NAWXER_clean_sbu_0, # of connection points: 4
#     Node 3, Type 0, BuildingBlock: NAWXER_clean_sbu_0, # of connection points: 4
#     Node 4, Type 0, BuildingBlock: NAWXER_clean_sbu_0, # of connection points: 4
#     Node 5, Type 0, BuildingBlock: NAWXER_clean_sbu_0, # of connection points: 4
#     Node 6, Type 0, BuildingBlock: NAWXER_clean_sbu_0, # of connection points: 4
#     Node 7, Type 0, BuildingBlock: NAWXER_clean_sbu_0, # of connection points: 4
#     Edge 8, Type (0, 0), BuildingBlock: AJUNOK_clean_linker_0, # of connection points: 2
#     Edge 9, Type (0, 0), BuildingBlock: AJUNOK_clean_linker_0, # of connection points: 2
#     Edge 10, Type (0, 0), BuildingBlock: AJUNOK_clean_linker_0, # of connection points: 2
#     Edge 11, Type (0, 0), BuildingBlock: AJUNOK_clean_linker_0, # of connection points: 2
#     Edge 12, Type (0, 0), BuildingBlock: AJUNOK_clean_linker_0, # of connection points: 2
#     Edge 13, Type (0, 0), BuildingBlock: AJUNOK_clean_linker_0, # of connection points: 2
#     Edge 14, Type (0, 0), BuildingBlock: AJUNOK_clean_linker_0, # of connection points: 2
#     Edge 15, Type (0, 0), BuildingBlock: AJUNOK_clean_linker_0, # of connection points: 2
#     Edge 16, Type (0, 0), BuildingBlock: AJUNOK_clean_linker_0, # of connection points: 2
#     Edge 17, Type (0, 0), BuildingBlock: AJUNOK_clean_linker_0, # of connection points: 2
#     Edge 18, Type (0, 0), BuildingBlock: AJUNOK_clean_linker_0, # of connection points: 2
#     Edge 19, Type (0, 0), BuildingBlock: AJUNOK_clean_linker_0, # of connection points: 2
#     Edge 20, Type (0, 0), BuildingBlock: AJUNOK_clean_linker_0, # of connection points: 2
#     Edge 21, Type (0, 0), BuildingBlock: AJUNOK_clean_linker_0, # of connection points: 2
#     Edge 22, Type (0, 0), BuildingBlock: AJUNOK_clean_linker_0, # of connection points: 2
#     Edge 23, Type (0, 0), BuildingBlock: AJUNOK_clean_linker_0, # of connection points: 2
# Relax obj value: 0.064
# Max RMSD: 0.167
# Mean RMSD: 0.166
data_MOF--net-umf--node1-NAWXER_clean_sbu_0--edge1-AJUNOK_clean_linker_0
_symmetry_space_group_name_H-M    P1
_symmetry_Int_Tables_number       1
_symmetry_cell_setting            triclinic
loop_
_symmetry_equiv_pos_as_xyz
'x, y, z'
_cell_length_a     21.360926
_cell_length_b     21.376029
_cell_length_c     38.558021
_cell_angle_alpha  90.179678
_cell_angle_beta   90.069726
_cell_angle_gamma 90.140072
loop_
_atom_site_label
_atom_site_type_symbol
_atom_site_fract_x
_atom_site_fract_y
_atom_site_fract_z
_atom_type_partial_charge
C0 C 0.15025 0.23369 0.21634 0.0
C1 C 0.04895 0.2435 0.10218 0.0
O2 O 0.09033 0.23461 0.21764 0.0
Zn3 Zn 0.01236 0.23769 0.18273 0.0
O4 O 0.17788 0.23504 0.18712 0.0
Zn5 Zn 0.10232 0.23945 0.15911 0.0
O6 O 0.06537 0.32955 0.17308 0.0
O7 O 0.97212 0.3146 0.19615 0.0
O8 O 0.10727 0.24336 0.10883 0.0
O9 O 0.00998 0.24159 0.12738 0.0
O10 O 0.97193 0.15851 0.19213 0.0
O11 O 0.06471 0.14776 0.16793 0.0
C12 C 0.01555 0.35175 0.18695 0.0
C13 C 0.01516 0.12317 0.18077 0.0
C14 C 0.74281 0.13965 0.72044 0.0
C15 C 0.73439 0.03691 0.6064 0.0
O16 O 0.74343 0.07975 0.72178 0.0
Zn17 Zn 0.74198 0.00139 0.68699 0.0
O18 O 0.74075 0.16703 0.69118 0.0
Zn19 Zn 0.73817 0.09148 0.66306 0.0
O20 O 0.64931 0.05219 0.67683 0.0
O21 O 0.66533 0.95934 0.70007 0.0
O22 O 0.73388 0.09541 0.61262 0.0
O23 O 0.73725 -0.00124 0.63185 0.0
O24 O 0.82283 0.9631 0.69579 0.0
O25 O 0.83037 0.05659 0.67203 0.0
C26 C 0.62771 0.00205 0.69056 0.0
C27 C 0.85654 0.0079 0.68469 0.0
C28 C 0.99417 0.62254 0.1901 0.0
C29 C -0.00146 0.85112 0.18033 0.0
O30 O 0.94412 0.6457 0.17717 0.0
Zn31 Zn 0.90765 0.73446 0.16303 0.0
O32 O 0.0396 0.65852 0.1979 0.0
Zn33 Zn 0.00101 0.73688 0.18431 0.0
O34 O 0.92674 0.74862 0.22053 0.0
O35 O 0.83526 0.74246 0.19381 0.0
O36 O 0.04366 0.81676 0.19043 0.0
O37 O 0.94785 0.82568 0.1694 0.0
O38 O 0.89933 0.72807 0.11268 0.0
O39 O -0.00229 0.72995 0.12958 0.0
C40 C 0.86688 0.75122 0.22145 0.0
C41 C 0.95735 0.72705 0.10512 0.0
C42 C 0.35677 0.98023 0.68969 0.0
C43 C 0.12846 0.99137 0.67982 0.0
O44 O 0.33271 0.9319 0.67511 0.0
Zn45 Zn 0.24244 0.89894 0.65978 0.0
O46 O 0.32157 0.02528 0.69873 0.0
Zn47 Zn 0.24273 0.98952 0.68377 0.0
O48 O 0.22908 0.91231 0.71779 0.0
O49 O 0.23302 0.82379 0.68803 0.0
O50 O 0.16488 0.03374 0.69151 0.0
O51 O 0.15182 0.94086 0.66735 0.0
O52 O 0.24829 0.89449 0.60931 0.0
O53 O 0.249 0.99127 0.62884 0.0
C54 C 0.2257 0.85253 0.71671 0.0
C55 C 0.25058 0.95298 0.6033 0.0
C56 C 0.9913 0.84922 0.88488 0.0
C57 C -0.0048 0.62065 0.87635 0.0
O58 O 0.04289 0.82468 0.89488 0.0
Zn59 Zn 0.08331 0.73365 0.90126 0.0
O60 O 0.94547 0.8141 0.87641 0.0
Zn61 Zn 0.98864 0.73484 0.88236 0.0
O62 O -0.00417 0.72942 0.93712 0.0
O63 O 0.09566 0.72853 0.95117 0.0
O64 O 0.94906 0.65622 0.8698 0.0
O65 O 0.04616 0.64427 0.88808 0.0
O66 O 0.15367 0.74067 0.86917 0.0
O67 O 0.06042 0.74525 0.84434 0.0
C68 C 0.0385 0.7274 0.9604 0.0
C69 C 0.12019 0.74809 0.84213 0.0
C70 C 0.12892 0.01136 0.38304 0.0
C71 C 0.3577 0.00599 0.37684 0.0
O72 O 0.15516 0.06072 0.39518 0.0
Zn73 Zn 0.2477 0.09634 0.40343 0.0
O74 O 0.16266 0.96633 0.3723 0.0
Zn75 Zn 0.24337 0.00567 0.38061 0.0
O76 O 0.24829 0.00562 0.43605 0.0
O77 O 0.25234 0.10367 0.45339 0.0
O78 O 0.31971 0.96309 0.36772 0.0
O79 O 0.33646 0.05676 0.39007 0.0
O80 O 0.24501 0.17075 0.37516 0.0
O81 O 0.24088 0.08282 0.34489 0.0
C82 C 0.25148 0.04575 0.46074 0.0
C83 C 0.2413 0.14279 0.34605 0.0
C84 C 0.97423 0.12106 0.88186 0.0
C85 C 0.97398 0.34976 0.87633 0.0
O86 O 0.9259 0.14579 0.89594 0.0
Zn87 Zn 0.88906 0.2373 0.90568 0.0
O88 O 0.01644 0.15631 0.86924 0.0
Zn89 Zn 0.97703 0.2357 0.87955 0.0
O90 O 0.9838 0.24019 0.93471 0.0
O91 O 0.8885 0.24142 0.9562 0.0
O92 O 0.01638 0.31287 0.86556 0.0
O93 O 0.92536 0.32727 0.89133 0.0
O94 O 0.81149 0.23293 0.87928 0.0
O95 O 0.89645 0.23233 0.84665 0.0
C96 C 0.94744 0.24215 0.96106 0.0
C97 C 0.8367 0.23116 0.84939 0.0
C98 C 0.85691 0.99223 0.38734 0.0
C99 C 0.62855 0.98173 0.37788 0.0
O100 O 0.83365 0.94054 0.39828 0.0
Zn101 Zn 0.74277 0.89789 0.40478 0.0
O102 O 0.8204 0.03548 0.3772 0.0
Zn103 Zn 0.7427 0.99032 0.38388 0.0
O104 O 0.73699 0.98725 0.439 0.0
O105 O 0.73735 0.88849 0.45487 0.0
O106 O 0.66404 0.0274 0.37016 0.0
O107 O 0.65241 0.9321 0.39085 0.0
O108 O 0.75145 0.82522 0.37437 0.0
O109 O 0.75599 0.91618 0.34734 0.0
C110 C 0.73549 0.94615 0.46307 0.0
C111 C 0.75918 0.85636 0.34661 0.0
C112 C 0.06261 0.45908 0.18908 0.0
C113 C 0.00915 0.42046 0.19127 0.0
C114 C 0.05785 0.52447 0.19046 0.0
C115 C -0.00067 0.55379 0.19357 0.0
H116 H 0.10861 0.43872 0.18572 0.0
H117 H 0.10005 0.55219 0.18766 0.0
S118 S 0.8455 0.47441 0.20311 0.0
N119 N 0.89619 0.41669 0.19902 0.0
N120 N 0.88717 0.53944 0.20121 0.0
C121 C 0.94574 0.51583 0.19706 0.0
C122 C 0.95065 0.44924 0.19606 0.0
C123 C 0.45521 0.04315 0.69431 0.0
C124 C 0.4256 0.9844 0.69386 0.0
C125 C 0.52062 0.04816 0.69415 0.0
C126 C 0.55902 -0.00536 0.69412 0.0
H127 H 0.42775 0.08566 0.69341 0.0
H128 H 0.54123 0.0945 0.69349 0.0
S129 S 0.50449 0.82982 0.69624 0.0
N130 N 0.4395 0.87146 0.69563 0.0
N131 N 0.56248 0.88102 0.69581 0.0
C132 C 0.53003 0.93562 0.69536 0.0
C133 C 0.46333 0.93047 0.69505 0.0
C134 C 0.92696 0.45678 0.87605 0.0
C135 C 0.98031 0.41853 0.87276 0.0
C136 C 0.9317 0.52219 0.87561 0.0
C137 C 0.99011 0.55191 0.87239 0.0
H138 H 0.88106 0.43607 0.87954 0.0
H139 H 0.88956 0.54957 0.87914 0.0
S140 S 0.14363 0.47359 0.86037 0.0
N141 N 0.09302 0.4155 0.86402 0.0
N142 N 0.10207 0.53835 0.86357 0.0
C143 C 0.04361 0.51435 0.86786 0.0
C144 C 0.03868 0.44772 0.86791 0.0
C145 C 0.46553 0.05112 0.37404 0.0
C146 C 0.42636 -0.002 0.37351 0.0
C147 C 0.53087 0.04551 0.37398 0.0
C148 C 0.5597 0.9865 0.37393 0.0
H149 H 0.44561 0.09766 0.37503 0.0
H150 H 0.55887 0.08778 0.37526 0.0
S151 S 0.47862 0.83268 0.37011 0.0
N152 N 0.42137 0.88442 0.37088 0.0
N153 N 0.54418 0.87372 0.37119 0.0
C154 C 0.52119 0.93295 0.37224 0.0
C155 C 0.45457 0.93871 0.37187 0.0
C156 C 0.93528 0.24187 1.02589 0.0
C157 C 0.97462 0.24423 0.9967 0.0
C158 C 0.95985 0.24213 0.05967 0.0
C159 C 0.02493 0.24479 0.06586 0.0
H160 H 0.88495 0.23928 1.02273 0.0
H161 H 0.92722 0.23977 0.0811 0.0
S162 S 0.1486 0.25374 0.99847 0.0
N163 N 0.08247 0.25087 0.97636 0.0
N164 N 0.12824 0.25125 0.03971 0.0
C165 C 0.06487 0.24792 0.03694 0.0
C166 C 0.03988 0.24768 1.00248 0.0
C167 C 0.73322 0.05379 0.54198 0.0
C168 C 0.73276 0.0123 0.57019 0.0
C169 C 0.73343 0.03178 0.50767 0.0
C170 C 0.7332 0.96721 0.49993 0.0
H171 H 0.73394 0.10388 0.54632 0.0
H172 H 0.7343 0.06604 0.48705 0.0
S173 S 0.73003 0.83846 0.5643 0.0
N174 N 0.73059 0.90292 0.58796 0.0
N175 N 0.7311 0.86193 0.52358 0.0
C176 C 0.73194 0.92507 0.52786 0.0
C177 C 0.7317 0.94746 0.56288 0.0
C178 C 0.9359 0.72729 0.04108 0.0
C179 C 0.97922 0.72446 0.06848 0.0
C180 C 0.9557 0.72758 1.00642 0.0
C181 C 0.01975 0.72507 0.99755 0.0
H182 H 0.88618 0.73005 0.04636 0.0
H183 H 0.92017 0.73044 0.98644 0.0
S184 S 0.15244 0.71452 0.05944 0.0
N185 N 0.08961 0.71708 0.08424 0.0
N186 N 0.12638 0.71785 1.01919 0.0
C187 C 0.0636 0.72123 1.02464 0.0
C188 C 0.0435 0.72086 0.06001 0.0
C189 C 0.25051 0.95909 0.50454 0.0
C190 C 0.25321 0.02373 0.49735 0.0
C191 C 0.2505 0.93659 0.5387 0.0
C192 C 0.25319 0.97767 0.56722 0.0
H193 H 0.24787 0.92527 0.48362 0.0
H194 H 0.24773 0.88652 0.5427 0.0
S195 S 0.26289 0.15136 0.56268 0.0
N196 N 0.26006 0.1285 0.52181 0.0
N197 N 0.26019 0.08663 0.58582 0.0
C198 C 0.25679 0.0425 0.56041 0.0
C199 C 0.25676 0.06536 0.52559 0.0
C200 C 0.23191 0.17742 0.25017 0.0
C201 C 0.18498 0.22328 0.2489 0.0
C202 C 0.25334 0.15437 0.28208 0.0
C203 C 0.22973 0.1776 0.31367 0.0
H204 H 0.24847 0.15566 0.2265 0.0
H205 H 0.28629 0.11591 0.28202 0.0
S206 S 0.11215 0.30344 0.32408 0.0
N207 N 0.11958 0.29502 0.28169 0.0
N208 N 0.16123 0.25298 0.34162 0.0
C209 C 0.18676 0.22715 0.31267 0.0
C210 C 0.16398 0.24964 0.28025 0.0
C211 C 0.82114 0.24485 0.78585 0.0
C212 C 0.79957 0.22035 0.81756 0.0
C213 C 0.79763 0.22299 0.75405 0.0
C214 C 0.75279 0.17489 0.75296 0.0
H215 H 0.85912 0.27855 0.78557 0.0
H216 H 0.81854 0.24007 0.7303 0.0
S217 S 0.67554 0.10057 0.82848 0.0
N218 N 0.72582 0.15051 0.84583 0.0
N219 N 0.68277 0.10817 0.78605 0.0
C220 C 0.72748 0.15342 0.78443 0.0
C221 C 0.75052 0.17656 0.81679 0.0
C222 C 0.757 0.776 0.29837 0.0
C223 C 0.78564 0.82709 0.31526 0.0
C224 C 0.78232 0.75154 0.26736 0.0
C225 C 0.83781 0.77647 0.25327 0.0
H226 H 0.71442 0.75586 0.30875 0.0
H227 H 0.75909 0.71259 0.25469 0.0
S228 S 0.93045 0.90979 0.28831 0.0
N229 N 0.87178 0.90148 0.31568 0.0
N230 N 0.91999 0.85499 0.25865 0.0
C231 C 0.8668 0.82702 0.27037 0.0
C232 C 0.84057 0.85242 0.3011 0.0
C233 C 0.22986 0.77358 0.76522 0.0
C234 C 0.19844 0.82107 0.74704 0.0
C235 C 0.20492 0.7495 0.79636 0.0
C236 C 0.14734 0.77135 0.80938 0.0
H237 H 0.27453 0.75649 0.75596 0.0
H238 H 0.23054 0.71371 0.81019 0.0
S239 S 0.04793 0.89569 0.77095 0.0
N240 N 0.10786 0.88918 0.74427 0.0
N241 N 0.06053 0.84367 0.80165 0.0
C242 C 0.11554 0.81819 0.79088 0.0
C243 C 0.14122 0.84308 0.75995 0.0
C244 C 0.06367 0.01663 0.17851 0.0
C245 C 0.00967 0.05396 0.18225 0.0
C246 C 0.06015 0.95106 0.17874 0.0
C247 C 0.00235 0.92028 0.18205 0.0
H248 H 0.10925 0.03818 0.17534 0.0
H249 H 0.1028 0.92437 0.17548 0.0
S250 S 0.84741 -0.00421 0.19452 0.0
N251 N 0.89698 0.05479 0.19104 0.0
N252 N 0.89007 0.93188 0.19074 0.0
C253 C 0.94809 0.95693 0.18638 0.0
C254 C 0.95182 0.02362 0.18671 0.0
C255 C 0.02141 0.94356 0.67853 0.0
C256 C 0.05929 -0.00257 0.68198 0.0
C257 C 0.95598 0.9469 0.68062 0.0
C258 C 0.92571 0.00444 0.68545 0.0
H259 H 0.0424 0.89807 0.67438 0.0
H260 H 0.92891 0.90433 0.6775 0.0
S261 S 0.00249 0.15906 0.69736 0.0
N262 N 0.06115 0.10985 0.69184 0.0
N263 N 0.93813 0.11635 0.69493 0.0
C264 C 0.96276 0.05862 0.68931 0.0
C265 C 0.02951 0.05509 0.6878 0.0
C266 C 0.92639 0.0144 0.88735 0.0
C267 C 0.97959 0.05178 0.88071 0.0
C268 C 0.92997 0.94887 0.88781 0.0
C269 C 0.98711 0.91819 0.88226 0.0
H270 H 0.88141 0.03587 0.89238 0.0
H271 H 0.88803 0.92218 0.89341 0.0
S272 S 0.13934 0.99347 0.86134 0.0
N273 N 0.09051 0.05251 0.8665 0.0
N274 N 0.09749 0.92963 0.86798 0.0
C275 C 0.0404 0.95475 0.87485 0.0
C276 C 0.03658 0.02142 0.87387 0.0
C277 C 0.96409 0.94519 0.3871 0.0
C278 C 0.92606 -0.00103 0.38523 0.0
C279 C 0.02953 0.94929 0.38536 0.0
C280 C 0.05968 0.00743 0.38226 0.0
H281 H 0.94323 0.89924 0.38983 0.0
H282 H 0.0567 0.90671 0.3873 0.0
S283 S 0.98227 0.16213 0.37426 0.0
N284 N 0.92382 0.11202 0.37841 0.0
N285 N 0.04679 0.11985 0.37567 0.0
C286 C 0.0224 0.06153 0.37975 0.0
C287 C 0.95566 0.05728 0.38106 0.0
loop_
_geom_bond_atom_site_label_1
_geom_bond_atom_site_label_2
_geom_bond_distance
_geom_bond_site_symmetry_2
_ccdc_geom_bond_type
C0 O2 1.247 . S
C0 O4 1.258 . S
C1 O8 1.247 . S
C1 O9 1.258 1_455 S
O2 C0 1.247 . S
O2 Zn3 2.028 . S
Zn3 O2 2.028 . S
Zn3 O7 2.035 . S
Zn3 O9 2.035 1_455 S
Zn3 O10 2.028 . S
O4 C0 1.258 . S
O4 Zn5 2.035 . S
Zn5 O4 2.035 . S
Zn5 O6 2.028 . S
Zn5 O8 2.028 . S
Zn5 O11 2.035 . S
O6 Zn5 2.028 . S
O6 C12 1.247 . S
O7 Zn3 2.035 . S
O7 C12 1.258 . S
O8 C1 1.247 . S
O8 Zn5 2.028 . S
O9 C1 1.258 1_655 S
O9 Zn3 2.035 1_655 S
O10 Zn3 2.028 . S
O10 C13 1.247 . S
O11 Zn5 2.035 . S
O11 C13 1.258 . S
C12 O6 1.247 . S
C12 O7 1.258 . S
C13 O10 1.247 . S
C13 O11 1.258 . S
C14 O16 1.247 . S
C14 O18 1.258 . S
C15 O22 1.247 . S
C15 O23 1.258 1_545 S
O16 C14 1.247 . S
O16 Zn17 2.028 . S
Zn17 O16 2.028 . S
Zn17 O21 2.035 . S
Zn17 O23 2.035 1_545 S
Zn17 O24 2.028 . S
O18 C14 1.258 . S
O18 Zn19 2.035 . S
Zn19 O18 2.035 . S
Zn19 O20 2.028 . S
Zn19 O22 2.028 . S
Zn19 O25 2.035 . S
O20 Zn19 2.028 . S
O20 C26 1.247 . S
O21 Zn17 2.035 . S
O21 C26 1.258 . S
O22 C15 1.247 . S
O22 Zn19 2.028 . S
O23 C15 1.258 1_565 S
O23 Zn17 2.035 1_565 S
O24 Zn17 2.028 . S
O24 C27 1.247 . S
O25 Zn19 2.035 . S
O25 C27 1.258 . S
C26 O20 1.247 . S
C26 O21 1.258 . S
C27 O24 1.247 . S
C27 O25 1.258 . S
C28 O30 1.247 . S
C28 O32 1.258 . S
C29 O36 1.247 . S
C29 O37 1.258 . S
O30 C28 1.247 . S
O30 Zn31 2.028 . S
Zn31 O30 2.028 . S
Zn31 O35 2.035 . S
Zn31 O37 2.035 . S
Zn31 O38 2.028 . S
O32 C28 1.258 . S
O32 Zn33 2.035 . S
Zn33 O32 2.035 . S
Zn33 O34 2.028 . S
Zn33 O36 2.028 . S
Zn33 O39 2.035 1_655 S
O34 Zn33 2.028 . S
O34 C40 1.247 . S
O35 Zn31 2.035 . S
O35 C40 1.258 . S
O36 C29 1.247 . S
O36 Zn33 2.028 . S
O37 C29 1.258 . S
O37 Zn31 2.035 . S
O38 Zn31 2.028 . S
O38 C41 1.247 . S
O39 Zn33 2.035 1_455 S
O39 C41 1.258 1_455 S
C40 O34 1.247 . S
C40 O35 1.258 . S
C41 O38 1.247 . S
C41 O39 1.258 1_655 S
C42 O44 1.247 . S
C42 O46 1.258 . S
C43 O50 1.247 . S
C43 O51 1.258 . S
O44 C42 1.247 . S
O44 Zn45 2.028 . S
Zn45 O44 2.028 . S
Zn45 O49 2.035 . S
Zn45 O51 2.035 . S
Zn45 O52 2.028 . S
O46 C42 1.258 . S
O46 Zn47 2.035 . S
Zn47 O46 2.035 . S
Zn47 O48 2.028 . S
Zn47 O50 2.028 . S
Zn47 O53 2.035 1_565 S
O48 Zn47 2.028 . S
O48 C54 1.247 . S
O49 Zn45 2.035 . S
O49 C54 1.258 . S
O50 C43 1.247 . S
O50 Zn47 2.028 . S
O51 C43 1.258 . S
O51 Zn45 2.035 . S
O52 Zn45 2.028 . S
O52 C55 1.247 . S
O53 Zn47 2.035 1_545 S
O53 C55 1.258 1_545 S
C54 O48 1.247 . S
C54 O49 1.258 . S
C55 O52 1.247 . S
C55 O53 1.258 1_565 S
C56 O58 1.247 . S
C56 O60 1.258 . S
C57 O64 1.247 . S
C57 O65 1.258 . S
O58 C56 1.247 . S
O58 Zn59 2.028 . S
Zn59 O58 2.028 . S
Zn59 O63 2.035 . S
Zn59 O65 2.035 . S
Zn59 O66 2.028 . S
O60 C56 1.258 . S
O60 Zn61 2.035 . S
Zn61 O60 2.035 . S
Zn61 O62 2.028 1_455 S
Zn61 O64 2.028 . S
Zn61 O67 2.035 . S
O62 Zn61 2.028 1_655 S
O62 C68 1.247 1_655 S
O63 Zn59 2.035 . S
O63 C68 1.258 . S
O64 C57 1.247 . S
O64 Zn61 2.028 . S
O65 C57 1.258 . S
O65 Zn59 2.035 . S
O66 Zn59 2.028 . S
O66 C69 1.247 . S
O67 Zn61 2.035 . S
O67 C69 1.258 . S
C68 O62 1.247 1_455 S
C68 O63 1.258 . S
C69 O66 1.247 . S
C69 O67 1.258 . S
C70 O72 1.247 . S
C70 O74 1.258 . S
C71 O78 1.247 . S
C71 O79 1.258 . S
O72 C70 1.247 . S
O72 Zn73 2.028 . S
Zn73 O72 2.028 . S
Zn73 O77 2.035 . S
Zn73 O79 2.035 . S
Zn73 O80 2.028 . S
O74 C70 1.258 . S
O74 Zn75 2.035 . S
Zn75 O74 2.035 . S
Zn75 O76 2.028 1_545 S
Zn75 O78 2.028 . S
Zn75 O81 2.035 . S
O76 Zn75 2.028 1_565 S
O76 C82 1.247 1_565 S
O77 Zn73 2.035 . S
O77 C82 1.258 . S
O78 C71 1.247 . S
O78 Zn75 2.028 . S
O79 C71 1.258 . S
O79 Zn73 2.035 . S
O80 Zn73 2.028 . S
O80 C83 1.247 . S
O81 Zn75 2.035 . S
O81 C83 1.258 . S
C82 O76 1.247 1_545 S
C82 O77 1.258 . S
C83 O80 1.247 . S
C83 O81 1.258 . S
C84 O86 1.247 . S
C84 O88 1.258 . S
C85 O92 1.247 . S
C85 O93 1.258 . S
O86 C84 1.247 . S
O86 Zn87 2.028 . S
Zn87 O86 2.028 . S
Zn87 O91 2.035 . S
Zn87 O93 2.035 . S
Zn87 O94 2.028 . S
O88 C84 1.258 . S
O88 Zn89 2.035 . S
Zn89 O88 2.035 . S
Zn89 O90 2.028 1_655 S
Zn89 O92 2.028 . S
Zn89 O95 2.035 . S
O90 Zn89 2.028 1_455 S
O90 C96 1.247 1_455 S
O91 Zn87 2.035 . S
O91 C96 1.258 . S
O92 C85 1.247 . S
O92 Zn89 2.028 . S
O93 C85 1.258 . S
O93 Zn87 2.035 . S
O94 Zn87 2.028 . S
O94 C97 1.247 . S
O95 Zn89 2.035 . S
O95 C97 1.258 . S
C96 O90 1.247 1_655 S
C96 O91 1.258 . S
C97 O94 1.247 . S
C97 O95 1.258 . S
C98 O100 1.247 . S
C98 O102 1.258 . S
C99 O106 1.247 . S
C99 O107 1.258 . S
O100 C98 1.247 . S
O100 Zn101 2.028 . S
Zn101 O100 2.028 . S
Zn101 O105 2.035 . S
Zn101 O107 2.035 . S
Zn101 O108 2.028 . S
O102 C98 1.258 . S
O102 Zn103 2.035 . S
Zn103 O102 2.035 . S
Zn103 O104 2.028 1_565 S
Zn103 O106 2.028 . S
Zn103 O109 2.035 . S
O104 Zn103 2.028 1_545 S
O104 C110 1.247 1_545 S
O105 Zn101 2.035 . S
O105 C110 1.258 . S
O106 C99 1.247 . S
O106 Zn103 2.028 . S
O107 C99 1.258 . S
O107 Zn101 2.035 . S
O108 Zn101 2.028 . S
O108 C111 1.247 . S
O109 Zn103 2.035 . S
O109 C111 1.258 . S
C110 O104 1.247 1_565 S
C110 O105 1.258 . S
C111 O108 1.247 . S
C111 O109 1.258 . S
C112 C113 1.369 . S
C112 C114 1.419 . S
C112 H116 0.930 . S
C113 C112 1.369 . S
C113 C122 1.429 1_455 S
C114 C112 1.419 . S
C114 C115 1.363 1_455 S
C114 H117 0.929 . S
C115 C114 1.363 1_655 S
C115 C121 1.428 . S
H116 C112 0.930 . S
H117 C114 0.929 . S
S118 N119 1.613 . S
S118 N120 1.610 . S
N119 S118 1.613 . S
N119 C122 1.350 . S
N120 S118 1.610 . S
N120 C121 1.351 . S
C121 C115 1.428 . S
C121 N120 1.351 . S
C121 C122 1.434 . S
C122 C113 1.429 1_655 S
C122 N119 1.350 . S
C122 C121 1.434 . S
C123 C124 1.369 1_545 S
C123 C125 1.419 . S
C123 H127 0.930 . S
C124 C123 1.369 1_565 S
C124 C133 1.429 . S
C125 C123 1.419 . S
C125 C126 1.363 . S
C125 H128 0.929 . S
C126 C125 1.363 . S
C126 C132 1.428 1_545 S
H127 C123 0.930 . S
H128 C125 0.929 . S
S129 N130 1.613 . S
S129 N131 1.610 . S
N130 S129 1.613 . S
N130 C133 1.350 . S
N131 S129 1.610 . S
N131 C132 1.351 . S
C132 C126 1.428 1_565 S
C132 N131 1.351 . S
C132 C133 1.434 . S
C133 C124 1.429 . S
C133 N130 1.350 . S
C133 C132 1.434 . S
C134 C135 1.369 . S
C134 C136 1.419 1_655 S
C134 H138 0.930 . S
C135 C134 1.369 . S
C135 C144 1.429 . S
C136 C134 1.419 1_455 S
C136 C137 1.363 . S
C136 H139 0.929 . S
C137 C136 1.363 . S
C137 C143 1.428 . S
H138 C134 0.930 . S
H139 C136 0.929 . S
S140 N141 1.613 1_455 S
S140 N142 1.610 . S
N141 S140 1.613 1_655 S
N141 C144 1.350 . S
N142 S140 1.610 . S
N142 C143 1.351 . S
C143 C137 1.428 . S
C143 N142 1.351 . S
C143 C144 1.434 1_455 S
C144 C135 1.429 . S
C144 N141 1.350 . S
C144 C143 1.434 1_655 S
C145 C146 1.369 . S
C145 C147 1.419 . S
C145 H149 0.930 . S
C146 C145 1.369 . S
C146 C155 1.429 1_545 S
C147 C145 1.419 . S
C147 C148 1.363 1_545 S
C147 H150 0.929 . S
C148 C147 1.363 1_565 S
C148 C154 1.428 . S
H149 C145 0.930 . S
H150 C147 0.929 . S
S151 N152 1.613 . S
S151 N153 1.610 . S
N152 S151 1.613 . S
N152 C155 1.350 . S
N153 S151 1.610 . S
N153 C154 1.351 . S
C154 C148 1.428 . S
C154 N153 1.351 . S
C154 C155 1.434 . S
C155 C146 1.429 1_565 S
C155 N152 1.350 . S
C155 C154 1.434 . S
C156 C157 1.369 . S
C156 C158 1.419 1_556 S
C156 H160 0.930 . S
C157 C156 1.369 . S
C157 C166 1.429 1_655 S
C158 C156 1.419 1_554 S
C158 C159 1.363 1_655 S
C158 H161 0.929 . S
C159 C158 1.363 1_455 S
C159 C165 1.428 . S
H160 C156 0.930 . S
H161 C158 0.929 . S
S162 N163 1.613 . S
S162 N164 1.610 1_556 S
N163 S162 1.613 . S
N163 C166 1.350 . S
N164 S162 1.610 1_554 S
N164 C165 1.351 . S
C165 C159 1.428 . S
C165 N164 1.351 . S
C165 C166 1.434 1_554 S
C166 C157 1.429 1_455 S
C166 N163 1.350 . S
C166 C165 1.434 1_556 S
C167 C168 1.369 . S
C167 C169 1.419 . S
C167 H171 0.930 . S
C168 C167 1.369 . S
C168 C177 1.429 1_545 S
C169 C167 1.419 . S
C169 C170 1.363 1_545 S
C169 H172 0.929 . S
C170 C169 1.363 1_565 S
C170 C176 1.428 . S
H171 C167 0.930 . S
H172 C169 0.929 . S
S173 N174 1.613 . S
S173 N175 1.610 . S
N174 S173 1.613 . S
N174 C177 1.350 . S
N175 S173 1.610 . S
N175 C176 1.351 . S
C176 C170 1.428 . S
C176 N175 1.351 . S
C176 C177 1.434 . S
C177 C168 1.429 1_565 S
C177 N174 1.350 . S
C177 C176 1.434 . S
C178 C179 1.369 . S
C178 C180 1.419 1_554 S
C178 H182 0.930 . S
C179 C178 1.369 . S
C179 C188 1.429 1_655 S
C180 C178 1.419 1_556 S
C180 C181 1.363 1_655 S
C180 H183 0.929 . S
C181 C180 1.363 1_455 S
C181 C187 1.428 . S
H182 C178 0.930 . S
H183 C180 0.929 . S
S184 N185 1.613 . S
S184 N186 1.610 1_554 S
N185 S184 1.613 . S
N185 C188 1.350 . S
N186 S184 1.610 1_556 S
N186 C187 1.351 . S
C187 C181 1.428 . S
C187 N186 1.351 . S
C187 C188 1.434 1_556 S
C188 C179 1.429 1_455 S
C188 N185 1.350 . S
C188 C187 1.434 1_554 S
C189 C190 1.369 1_565 S
C189 C191 1.419 . S
C189 H193 0.930 . S
C190 C189 1.369 1_545 S
C190 C199 1.429 . S
C191 C189 1.419 . S
C191 C192 1.363 . S
C191 H194 0.929 . S
C192 C191 1.363 . S
C192 C198 1.428 1_565 S
H193 C189 0.930 . S
H194 C191 0.929 . S
S195 N196 1.613 . S
S195 N197 1.610 . S
N196 S195 1.613 . S
N196 C199 1.350 . S
N197 S195 1.610 . S
N197 C198 1.351 . S
C198 C192 1.428 1_545 S
C198 N197 1.351 . S
C198 C199 1.434 . S
C199 C190 1.429 . S
C199 N196 1.350 . S
C199 C198 1.434 . S
C200 C201 1.369 . S
C200 C202 1.419 . S
C200 H204 0.930 . S
C201 C200 1.369 . S
C201 C210 1.429 . S
C202 C200 1.419 . S
C202 C203 1.363 . S
C202 H205 0.929 . S
C203 C202 1.363 . S
C203 C209 1.428 . S
H204 C200 0.930 . S
H205 C202 0.929 . S
S206 N207 1.613 . S
S206 N208 1.610 . S
N207 S206 1.613 . S
N207 C210 1.350 . S
N208 S206 1.610 . S
N208 C209 1.351 . S
C209 C203 1.428 . S
C209 N208 1.351 . S
C209 C210 1.434 . S
C210 C201 1.429 . S
C210 N207 1.350 . S
C210 C209 1.434 . S
C211 C212 1.369 . S
C211 C213 1.419 . S
C211 H215 0.930 . S
C212 C211 1.369 . S
C212 C221 1.429 . S
C213 C211 1.419 . S
C213 C214 1.363 . S
C213 H216 0.929 . S
C214 C213 1.363 . S
C214 C220 1.428 . S
H215 C211 0.930 . S
H216 C213 0.929 . S
S217 N218 1.613 . S
S217 N219 1.610 . S
N218 S217 1.613 . S
N218 C221 1.350 . S
N219 S217 1.610 . S
N219 C220 1.351 . S
C220 C214 1.428 . S
C220 N219 1.351 . S
C220 C221 1.434 . S
C221 C212 1.429 . S
C221 N218 1.350 . S
C221 C220 1.434 . S
C222 C223 1.369 . S
C222 C224 1.419 . S
C222 H226 0.930 . S
C223 C222 1.369 . S
C223 C232 1.429 . S
C224 C222 1.419 . S
C224 C225 1.363 . S
C224 H227 0.929 . S
C225 C224 1.363 . S
C225 C231 1.428 . S
H226 C222 0.930 . S
H227 C224 0.929 . S
S228 N229 1.613 . S
S228 N230 1.610 . S
N229 S228 1.613 . S
N229 C232 1.350 . S
N230 S228 1.610 . S
N230 C231 1.351 . S
C231 C225 1.428 . S
C231 N230 1.351 . S
C231 C232 1.434 . S
C232 C223 1.429 . S
C232 N229 1.350 . S
C232 C231 1.434 . S
C233 C234 1.369 . S
C233 C235 1.419 . S
C233 H237 0.930 . S
C234 C233 1.369 . S
C234 C243 1.429 . S
C235 C233 1.419 . S
C235 C236 1.363 . S
C235 H238 0.929 . S
C236 C235 1.363 . S
C236 C242 1.428 . S
H237 C233 0.930 . S
H238 C235 0.929 . S
S239 N240 1.613 . S
S239 N241 1.610 . S
N240 S239 1.613 . S
N240 C243 1.350 . S
N241 S239 1.610 . S
N241 C242 1.351 . S
C242 C236 1.428 . S
C242 N241 1.351 . S
C242 C243 1.434 . S
C243 C234 1.429 . S
C243 N240 1.350 . S
C243 C242 1.434 . S
C244 C245 1.369 1_565 S
C244 C246 1.419 . S
C244 H248 0.930 . S
C245 C244 1.369 1_545 S
C245 C254 1.429 1_455 S
C246 C244 1.419 . S
C246 C247 1.363 1_455 S
C246 H249 0.929 . S
C247 C246 1.363 1_655 S
C247 C253 1.428 1_565 S
H248 C244 0.930 . S
H249 C246 0.929 . S
S250 N251 1.613 . S
S250 N252 1.610 . S
N251 S250 1.613 . S
N251 C254 1.350 . S
N252 S250 1.610 . S
N252 C253 1.351 . S
C253 C247 1.428 1_545 S
C253 N252 1.351 . S
C253 C254 1.434 . S
C254 C245 1.429 1_655 S
C254 N251 1.350 . S
C254 C253 1.434 . S
C255 C256 1.369 . S
C255 C257 1.418 1_455 S
C255 H259 0.930 . S
C256 C255 1.369 . S
C256 C265 1.423 1_565 S
C257 C255 1.418 1_655 S
C257 C258 1.364 1_565 S
C257 H260 0.929 . S
C258 C257 1.364 1_545 S
C258 C264 1.428 . S
H259 C255 0.930 . S
H260 C257 0.929 . S
S261 N262 1.613 . S
S261 N263 1.610 1_455 S
N262 S261 1.613 . S
N262 C265 1.350 . S
N263 S261 1.610 1_655 S
N263 C264 1.351 . S
C264 C258 1.428 . S
C264 N263 1.351 . S
C264 C265 1.440 1_655 S
C265 C256 1.423 1_545 S
C265 N262 1.350 . S
C265 C264 1.440 1_455 S
C266 C267 1.369 . S
C266 C268 1.419 1_545 S
C266 H270 0.930 . S
C267 C266 1.369 . S
C267 C276 1.429 1_655 S
C268 C266 1.419 1_565 S
C268 C269 1.363 1_655 S
C268 H271 0.929 . S
C269 C268 1.363 1_455 S
C269 C275 1.428 . S
H270 C266 0.930 . S
H271 C268 0.929 . S
S272 N273 1.613 . S
S272 N274 1.610 1_545 S
N273 S272 1.613 . S
N273 C276 1.350 . S
N274 S272 1.610 1_565 S
N274 C275 1.351 . S
C275 C269 1.428 . S
C275 N274 1.351 . S
C275 C276 1.434 1_565 S
C276 C267 1.429 1_455 S
C276 N273 1.350 . S
C276 C275 1.434 1_545 S
C277 C278 1.369 . S
C277 C279 1.419 1_665 S
C277 H281 0.930 . S
C278 C277 1.369 . S
C278 C287 1.429 . S
C279 C277 1.419 1_445 S
C279 C280 1.363 . S
C279 H282 0.929 . S
C280 C279 1.363 . S
C280 C286 1.428 . S
H281 C277 0.930 . S
H282 C279 0.929 . S
S283 N284 1.613 1_545 S
S283 N285 1.610 1_655 S
N284 S283 1.613 1_565 S
N284 C287 1.350 . S
N285 S283 1.610 1_455 S
N285 C286 1.351 . S
C286 C280 1.428 . S
C286 N285 1.351 . S
C286 C287 1.434 1_445 S
C287 C278 1.429 . S
C287 N284 1.350 . S
C287 C286 1.434 1_665 S
C113 C12 1.799 . S
C115 C28 1.806 . S
C124 C42 1.807 . S
C126 C26 1.800 . S
C135 C85 1.796 . S
C137 C57 1.801 . S
C146 C71 1.795 . S
C148 C99 1.802 . S
C157 C96 1.578 . S
C159 C1 1.578 . S
C168 C15 1.579 . S
C170 C110 1.579 . S
C179 C41 1.582 . S
C181 C68 1.581 . S
C190 C82 1.579 . S
C192 C55 1.580 . S
C201 C0 1.658 . S
C203 C83 1.657 . S
C212 C97 1.655 . S
C214 C14 1.660 . S
C223 C111 1.657 . S
C225 C40 1.658 . S
C234 C54 1.659 . S
C236 C69 1.656 . S
C245 C13 1.544 . S
C247 C29 1.553 . S
C256 C43 1.550 . S
C258 C27 1.551 . S
C267 C84 1.552 . S
C269 C56 1.554 . S
C278 C98 1.555 . S
C280 C70 1.552 . S
