# Generated by pormake.
# Topology uka, (4)-cn, num edge types: 1
# Building blocks:
#     Node 0, Type 0, BuildingBlock: NAHDIM_clean_sbu_0, # of connection points: 4
#     Node 1, Type 0, BuildingBlock: NAHDIM_clean_sbu_0, # of connection points: 4
#     Node 2, Type 0, BuildingBlock: NAHDIM_clean_sbu_0, # of connection points: 4
#     Node 3, Type 0, BuildingBlock: NAHDIM_clean_sbu_0, # of connection points: 4
#     Node 4, Type 0, BuildingBlock: NAHDIM_clean_sbu_0, # of connection points: 4
#     Node 5, Type 0, BuildingBlock: NAHDIM_clean_sbu_0, # of connection points: 4
#     Node 6, Type 0, BuildingBlock: NAHDIM_clean_sbu_0, # of connection points: 4
#     Node 7, Type 0, BuildingBlock: NAHDIM_clean_sbu_0, # of connection points: 4
#     Node 8, Type 0, BuildingBlock: NAHDIM_clean_sbu_0, # of connection points: 4
#     Node 9, Type 0, BuildingBlock: NAHDIM_clean_sbu_0, # of connection points: 4
#     Node 10, Type 0, BuildingBlock: NAHDIM_clean_sbu_0, # of connection points: 4
#     Node 11, Type 0, BuildingBlock: NAHDIM_clean_sbu_0, # of connection points: 4
#     Node 12, Type 0, BuildingBlock: NAHDIM_clean_sbu_0, # of connection points: 4
#     Node 13, Type 0, BuildingBlock: NAHDIM_clean_sbu_0, # of connection points: 4
#     Node 14, Type 0, BuildingBlock: NAHDIM_clean_sbu_0, # of connection points: 4
#     Node 15, Type 0, BuildingBlock: NAHDIM_clean_sbu_0, # of connection points: 4
#     Node 16, Type 0, BuildingBlock: NAHDIM_clean_sbu_0, # of connection points: 4
#     Node 17, Type 0, BuildingBlock: NAHDIM_clean_sbu_0, # of connection points: 4
#     Node 18, Type 0, BuildingBlock: NAHDIM_clean_sbu_0, # of connection points: 4
#     Node 19, Type 0, BuildingBlock: NAHDIM_clean_sbu_0, # of connection points: 4
#     Node 20, Type 0, BuildingBlock: NAHDIM_clean_sbu_0, # of connection points: 4
#     Node 21, Type 0, BuildingBlock: NAHDIM_clean_sbu_0, # of connection points: 4
#     Node 22, Type 0, BuildingBlock: NAHDIM_clean_sbu_0, # of connection points: 4
#     Node 23, Type 0, BuildingBlock: NAHDIM_clean_sbu_0, # of connection points: 4
#     Node 24, Type 0, BuildingBlock: NAHDIM_clean_sbu_0, # of connection points: 4
#     Node 25, Type 0, BuildingBlock: NAHDIM_clean_sbu_0, # of connection points: 4
#     Node 26, Type 0, BuildingBlock: NAHDIM_clean_sbu_0, # of connection points: 4
#     Node 27, Type 0, BuildingBlock: NAHDIM_clean_sbu_0, # of connection points: 4
#     Node 28, Type 0, BuildingBlock: NAHDIM_clean_sbu_0, # of connection points: 4
#     Node 29, Type 0, BuildingBlock: NAHDIM_clean_sbu_0, # of connection points: 4
#     Node 30, Type 0, BuildingBlock: NAHDIM_clean_sbu_0, # of connection points: 4
#     Node 31, Type 0, BuildingBlock: NAHDIM_clean_sbu_0, # of connection points: 4
#     Edge 32, Type (0, 0), BuildingBlock: EZIPEK_clean_linker_0, # of connection points: 2
#     Edge 33, Type (0, 0), BuildingBlock: EZIPEK_clean_linker_0, # of connection points: 2
#     Edge 34, Type (0, 0), BuildingBlock: EZIPEK_clean_linker_0, # of connection points: 2
#     Edge 35, Type (0, 0), BuildingBlock: EZIPEK_clean_linker_0, # of connection points: 2
#     Edge 36, Type (0, 0), BuildingBlock: EZIPEK_clean_linker_0, # of connection points: 2
#     Edge 37, Type (0, 0), BuildingBlock: EZIPEK_clean_linker_0, # of connection points: 2
#     Edge 38, Type (0, 0), BuildingBlock: EZIPEK_clean_linker_0, # of connection points: 2
#     Edge 39, Type (0, 0), BuildingBlock: EZIPEK_clean_linker_0, # of connection points: 2
#     Edge 40, Type (0, 0), BuildingBlock: EZIPEK_clean_linker_0, # of connection points: 2
#     Edge 41, Type (0, 0), BuildingBlock: EZIPEK_clean_linker_0, # of connection points: 2
#     Edge 42, Type (0, 0), BuildingBlock: EZIPEK_clean_linker_0, # of connection points: 2
#     Edge 43, Type (0, 0), BuildingBlock: EZIPEK_clean_linker_0, # of connection points: 2
#     Edge 44, Type (0, 0), BuildingBlock: EZIPEK_clean_linker_0, # of connection points: 2
#     Edge 45, Type (0, 0), BuildingBlock: EZIPEK_clean_linker_0, # of connection points: 2
#     Edge 46, Type (0, 0), BuildingBlock: EZIPEK_clean_linker_0, # of connection points: 2
#     Edge 47, Type (0, 0), BuildingBlock: EZIPEK_clean_linker_0, # of connection points: 2
#     Edge 48, Type (0, 0), BuildingBlock: EZIPEK_clean_linker_0, # of connection points: 2
#     Edge 49, Type (0, 0), BuildingBlock: EZIPEK_clean_linker_0, # of connection points: 2
#     Edge 50, Type (0, 0), BuildingBlock: EZIPEK_clean_linker_0, # of connection points: 2
#     Edge 51, Type (0, 0), BuildingBlock: EZIPEK_clean_linker_0, # of connection points: 2
#     Edge 52, Type (0, 0), BuildingBlock: EZIPEK_clean_linker_0, # of connection points: 2
#     Edge 53, Type (0, 0), BuildingBlock: EZIPEK_clean_linker_0, # of connection points: 2
#     Edge 54, Type (0, 0), BuildingBlock: EZIPEK_clean_linker_0, # of connection points: 2
#     Edge 55, Type (0, 0), BuildingBlock: EZIPEK_clean_linker_0, # of connection points: 2
#     Edge 56, Type (0, 0), BuildingBlock: EZIPEK_clean_linker_0, # of connection points: 2
#     Edge 57, Type (0, 0), BuildingBlock: EZIPEK_clean_linker_0, # of connection points: 2
#     Edge 58, Type (0, 0), BuildingBlock: EZIPEK_clean_linker_0, # of connection points: 2
#     Edge 59, Type (0, 0), BuildingBlock: EZIPEK_clean_linker_0, # of connection points: 2
#     Edge 60, Type (0, 0), BuildingBlock: EZIPEK_clean_linker_0, # of connection points: 2
#     Edge 61, Type (0, 0), BuildingBlock: EZIPEK_clean_linker_0, # of connection points: 2
#     Edge 62, Type (0, 0), BuildingBlock: EZIPEK_clean_linker_0, # of connection points: 2
#     Edge 63, Type (0, 0), BuildingBlock: EZIPEK_clean_linker_0, # of connection points: 2
#     Edge 64, Type (0, 0), BuildingBlock: EZIPEK_clean_linker_0, # of connection points: 2
#     Edge 65, Type (0, 0), BuildingBlock: EZIPEK_clean_linker_0, # of connection points: 2
#     Edge 66, Type (0, 0), BuildingBlock: EZIPEK_clean_linker_0, # of connection points: 2
#     Edge 67, Type (0, 0), BuildingBlock: EZIPEK_clean_linker_0, # of connection points: 2
#     Edge 68, Type (0, 0), BuildingBlock: EZIPEK_clean_linker_0, # of connection points: 2
#     Edge 69, Type (0, 0), BuildingBlock: EZIPEK_clean_linker_0, # of connection points: 2
#     Edge 70, Type (0, 0), BuildingBlock: EZIPEK_clean_linker_0, # of connection points: 2
#     Edge 71, Type (0, 0), BuildingBlock: EZIPEK_clean_linker_0, # of connection points: 2
#     Edge 72, Type (0, 0), BuildingBlock: EZIPEK_clean_linker_0, # of connection points: 2
#     Edge 73, Type (0, 0), BuildingBlock: EZIPEK_clean_linker_0, # of connection points: 2
#     Edge 74, Type (0, 0), BuildingBlock: EZIPEK_clean_linker_0, # of connection points: 2
#     Edge 75, Type (0, 0), BuildingBlock: EZIPEK_clean_linker_0, # of connection points: 2
#     Edge 76, Type (0, 0), BuildingBlock: EZIPEK_clean_linker_0, # of connection points: 2
#     Edge 77, Type (0, 0), BuildingBlock: EZIPEK_clean_linker_0, # of connection points: 2
#     Edge 78, Type (0, 0), BuildingBlock: EZIPEK_clean_linker_0, # of connection points: 2
#     Edge 79, Type (0, 0), BuildingBlock: EZIPEK_clean_linker_0, # of connection points: 2
#     Edge 80, Type (0, 0), BuildingBlock: EZIPEK_clean_linker_0, # of connection points: 2
#     Edge 81, Type (0, 0), BuildingBlock: EZIPEK_clean_linker_0, # of connection points: 2
#     Edge 82, Type (0, 0), BuildingBlock: EZIPEK_clean_linker_0, # of connection points: 2
#     Edge 83, Type (0, 0), BuildingBlock: EZIPEK_clean_linker_0, # of connection points: 2
#     Edge 84, Type (0, 0), BuildingBlock: EZIPEK_clean_linker_0, # of connection points: 2
#     Edge 85, Type (0, 0), BuildingBlock: EZIPEK_clean_linker_0, # of connection points: 2
#     Edge 86, Type (0, 0), BuildingBlock: EZIPEK_clean_linker_0, # of connection points: 2
#     Edge 87, Type (0, 0), BuildingBlock: EZIPEK_clean_linker_0, # of connection points: 2
#     Edge 88, Type (0, 0), BuildingBlock: EZIPEK_clean_linker_0, # of connection points: 2
#     Edge 89, Type (0, 0), BuildingBlock: EZIPEK_clean_linker_0, # of connection points: 2
#     Edge 90, Type (0, 0), BuildingBlock: EZIPEK_clean_linker_0, # of connection points: 2
#     Edge 91, Type (0, 0), BuildingBlock: EZIPEK_clean_linker_0, # of connection points: 2
#     Edge 92, Type (0, 0), BuildingBlock: EZIPEK_clean_linker_0, # of connection points: 2
#     Edge 93, Type (0, 0), BuildingBlock: EZIPEK_clean_linker_0, # of connection points: 2
#     Edge 94, Type (0, 0), BuildingBlock: EZIPEK_clean_linker_0, # of connection points: 2
#     Edge 95, Type (0, 0), BuildingBlock: EZIPEK_clean_linker_0, # of connection points: 2
# Relax obj value: 0.247
# Max RMSD: 0.251
# Mean RMSD: 0.251
data_MOF--net-uka--node1-NAHDIM_clean_sbu_0--edge1-EZIPEK_clean_linker_0
_symmetry_space_group_name_H-M    P1
_symmetry_Int_Tables_number       1
_symmetry_cell_setting            triclinic
loop_
_symmetry_equiv_pos_as_xyz
'x, y, z'
_cell_length_a     44.405558
_cell_length_b     44.38949
_cell_length_c     29.910581
_cell_angle_alpha  89.890875
_cell_angle_beta   90.035875
_cell_angle_gamma 90.005362
loop_
_atom_site_label
_atom_site_type_symbol
_atom_site_fract_x
_atom_site_fract_y
_atom_site_fract_z
_atom_type_partial_charge
C0 C 0.1908 0.2569 0.23954 0.0
O1 O 0.17679 0.2475 0.20347 0.0
O2 O 0.11915 0.21694 0.29138 0.0
Zn3 Zn 0.13125 0.25902 0.27575 0.0
O4 O 0.11432 0.273 0.21684 0.0
C5 C 0.09402 0.27761 0.34886 0.0
O6 O 0.07899 0.25316 0.33826 0.0
O7 O 0.1759 0.26277 0.27458 0.0
C8 C 0.08642 0.27387 0.20752 0.0
O9 O 0.06657 0.26461 0.23704 0.0
C10 C 0.13263 0.19216 0.28471 0.0
O11 O 0.15776 0.1913 0.26169 0.0
O12 O 0.11689 0.28523 0.32596 0.0
C13 C 0.99458 0.92127 0.48762 0.0
O14 O 0.99434 0.90826 0.52709 0.0
O15 O 0.02189 0.84339 0.48535 0.0
Zn16 Zn 0.98433 0.86137 0.46083 0.0
O17 O 0.97228 0.84074 0.40361 0.0
C18 C 0.95362 0.82533 0.52075 0.0
O19 O 0.96904 0.80564 0.49743 0.0
O20 O 0.99029 0.90561 0.45273 0.0
C21 C 0.94464 0.83538 0.3961 0.0
O22 O 0.92424 0.8443 0.42494 0.0
C23 C 0.04642 0.83509 0.46766 0.0
O24 O 0.05082 0.83805 0.42447 0.0
O25 O 0.95463 0.85299 0.5099 0.0
C26 C 0.28855 0.70478 0.72102 0.0
O27 O 0.30277 0.72484 0.69672 0.0
O28 O 0.35187 0.73866 0.76645 0.0
Zn29 Zn 0.34747 0.69467 0.75285 0.0
O30 O 0.37216 0.68144 0.6998 0.0
C31 C 0.38017 0.68625 0.83407 0.0
O32 O 0.39163 0.71231 0.8221 0.0
O33 O 0.30346 0.6866 0.74513 0.0
C34 C 0.40016 0.6763 0.70439 0.0
O35 O 0.41306 0.68025 0.74342 0.0
C36 C 0.35296 0.76354 0.74552 0.0
O37 O 0.35082 0.76438 0.70175 0.0
O38 O 0.36084 0.67345 0.8091 0.0
C39 C 0.4906 0.02853 0.01687 0.0
O40 O 0.47406 0.04998 -0.00085 0.0
O41 O 0.4797 0.09569 0.06976 0.0
Zn42 Zn 0.51969 0.07918 0.04849 0.0
O43 O 0.53268 0.09706 0.98935 0.0
C44 C 0.54806 0.11085 0.11889 0.0
O45 O 0.526 0.12936 0.1095 0.0
O46 O 0.51333 0.03529 0.0405 0.0
C47 C 0.54601 0.12232 0.98636 0.0
O48 O 0.55194 0.13779 0.02265 0.0
C49 C 0.47091 0.12232 0.06177 0.0
O50 O 0.48626 0.13899 0.03355 0.0
O51 O 0.5511 0.08673 0.09655 0.0
C52 C 0.17339 0.75163 0.29164 0.0
O53 O 0.15842 0.75716 0.32857 0.0
O54 O 0.10765 0.80036 0.23425 0.0
Zn55 Zn 0.11515 0.75692 0.25047 0.0
O56 O 0.09515 0.74384 0.30755 0.0
C57 C 0.10676 0.73236 0.16122 0.0
O58 O 0.12956 0.74959 0.14987 0.0
O59 O 0.15959 0.7503 0.25451 0.0
C60 C 0.06753 0.74859 0.31595 0.0
O61 O 0.05127 0.76502 0.28853 0.0
C62 C 0.08488 0.80636 0.21012 0.0
O63 O 0.06538 0.78508 0.20073 0.0
O64 O 0.09813 0.73117 0.20164 0.0
C65 C 0.50591 0.94731 0.4786 0.0
O66 O 0.48795 0.93432 0.44956 0.0
O67 O 0.49417 0.86809 0.46256 0.0
Zn68 Zn 0.53149 0.88765 0.4878 0.0
O69 O 0.54492 0.86623 0.54409 0.0
C70 C 0.56091 0.89338 0.40183 0.0
O71 O 0.53776 0.91078 0.39305 0.0
O72 O 0.52552 0.93182 0.49932 0.0
C73 C 0.56644 0.84732 0.54312 0.0
O74 O 0.5799 0.84118 0.50515 0.0
C75 C 0.49778 0.84229 0.44496 0.0
O76 O 0.52424 0.82917 0.4471 0.0
O77 O 0.5633 0.88262 0.44105 0.0
C78 C 0.32391 0.24647 0.77492 0.0
O79 O 0.33919 0.22132 0.77942 0.0
O80 O 0.39595 0.22842 0.73615 0.0
Zn81 Zn 0.38104 0.27068 0.74603 0.0
O82 O 0.4079 0.29227 0.79001 0.0
C83 C 0.36533 0.28476 0.65485 0.0
O84 O 0.34217 0.26705 0.66223 0.0
O85 O 0.33741 0.27056 0.76379 0.0
C86 C 0.43087 0.30712 0.77716 0.0
O87 O 0.43751 0.3087 0.73445 0.0
C88 C 0.41823 0.22608 0.70982 0.0
O89 O 0.43159 0.25054 0.69512 0.0
O90 O 0.38353 0.29087 0.68633 0.0
C91 C 0.9818 0.07041 0.98581 0.0
O92 O 0.00602 0.08217 0.96771 0.0
O93 O 0.00369 0.14467 0.97013 0.0
Zn94 Zn 0.96245 0.132 0.99007 0.0
O95 O 0.95372 0.15118 0.04914 0.0
C96 C 0.9339 0.1346 0.90412 0.0
O97 O 0.95322 0.11315 0.89465 0.0
O98 O 0.96008 0.08723 0.99738 0.0
C99 C 0.93697 0.17417 0.05329 0.0
O100 O 0.92485 0.18664 0.01772 0.0
C101 C 0.00629 0.16983 0.95031 0.0
O102 O 0.98254 0.18723 0.94579 0.0
O103 O 0.93281 0.14535 0.9434 0.0
C104 C 0.81229 0.75057 0.76074 0.0
O105 O 0.8302 0.77148 0.77679 0.0
O106 O 0.87952 0.76288 0.68884 0.0
Zn107 Zn 0.86655 0.72601 0.72306 0.0
O108 O 0.89235 0.72246 0.7784 0.0
C109 C 0.87304 0.69031 0.64186 0.0
O110 O 0.86639 0.7157 0.62162 0.0
O111 O 0.82306 0.72899 0.73813 0.0
C112 C 0.90302 0.69697 0.78951 0.0
O113 O 0.89634 0.67301 0.76588 0.0
C114 C 0.90452 0.76109 0.66849 0.0
O115 O 0.92131 0.73705 0.6745 0.0
O116 O 0.87231 0.68916 0.68429 0.0
C117 C 0.0196 0.04813 0.46985 0.0
O118 O 0.01346 0.06149 0.4317 0.0
O119 O -0.00136 0.12415 0.46668 0.0
Zn120 Zn 0.03727 0.10694 0.48933 0.0
O121 O 0.05003 0.12985 0.54404 0.0
C122 C 0.06405 0.12958 0.40924 0.0
O123 O 0.03808 0.14357 0.40658 0.0
O124 O 0.03081 0.06323 0.5018 0.0
C125 C 0.05739 0.15744 0.54026 0.0
O126 O 0.05672 0.17039 0.50075 0.0
C127 C 0.9743 0.12754 0.48818 0.0
O128 O 0.97222 0.11873 0.53001 0.0
O129 O 0.06899 0.11156 0.44147 0.0
C130 C 0.6844 0.24562 0.27812 0.0
O131 O 0.68152 0.23921 0.23548 0.0
O132 O 0.62013 0.20243 0.24836 0.0
Zn133 Zn 0.62279 0.24532 0.26858 0.0
O134 O 0.58824 0.25675 0.30851 0.0
C135 C 0.5992 0.27868 0.195 0.0
O136 O 0.57376 0.26995 0.21319 0.0
O137 O 0.66115 0.25026 0.3016 0.0
C138 C 0.58669 0.28413 0.32045 0.0
O139 O 0.60678 0.30341 0.3056 0.0
C140 C 0.59467 0.19227 0.23671 0.0
O141 O 0.57047 0.20862 0.24344 0.0
O142 O 0.62395 0.27167 0.21344 0.0
C143 C 0.45239 0.90569 0.99537 0.0
O144 O 0.46889 0.88318 0.01002 0.0
O145 O 0.46239 0.84456 0.92831 0.0
Zn146 Zn 0.42345 0.85737 0.95655 0.0
O147 O 0.41636 0.83473 0.01404 0.0
C148 C 0.391 0.82821 0.88897 0.0
O149 O 0.40989 0.80695 0.90087 0.0
O150 O 0.42947 0.90047 0.97126 0.0
C151 C 0.40121 0.81081 0.02021 0.0
O152 O 0.38704 0.79799 0.98676 0.0
C153 C 0.47455 0.81893 0.93348 0.0
O154 O 0.46216 0.79908 0.96036 0.0
O155 O 0.39074 0.85294 0.91015 0.0
C156 C 0.79682 0.27031 0.80823 0.0
O157 O 0.80818 0.26058 0.84616 0.0
O158 O 0.87317 0.2382 0.80546 0.0
Zn159 Zn 0.85913 0.27938 0.78766 0.0
O160 O 0.88087 0.29178 0.73118 0.0
C161 C 0.89273 0.30012 0.86231 0.0
O162 O 0.90775 0.27546 0.85294 0.0
O163 O 0.81435 0.2797 0.77768 0.0
C164 C 0.9076 0.30213 0.73154 0.0
O165 O 0.92182 0.30545 0.76968 0.0
C166 C 0.86594 0.21217 0.79178 0.0
O167 O 0.84602 0.20879 0.75975 0.0
O168 O 0.86987 0.30714 0.83884 0.0
C169 C 0.50947 0.07561 0.50805 0.0
O170 O 0.53443 0.08592 0.52583 0.0
O171 O 0.53559 0.14842 0.52693 0.0
Zn172 Zn 0.4927 0.1383 0.50957 0.0
O173 O 0.47882 0.16149 0.45519 0.0
C174 C 0.46887 0.13743 0.59966 0.0
O175 O 0.48624 0.11375 0.60499 0.0
O176 O 0.48843 0.09375 0.49783 0.0
C177 C 0.48156 0.18978 0.44967 0.0
O178 O 0.49487 0.20621 0.4803 0.0
C179 C 0.53971 0.17005 0.55403 0.0
O180 O 0.51687 0.18701 0.56584 0.0
O181 O 0.46669 0.14992 0.56154 0.0
C182 C 0.67442 0.75556 0.22183 0.0
O183 O 0.66046 0.77966 0.20696 0.0
O184 O 0.61328 0.78695 0.27606 0.0
Zn185 Zn 0.61676 0.74353 0.25838 0.0
O186 O 0.59098 0.73284 0.2055 0.0
C187 C 0.57883 0.71132 0.32087 0.0
O188 O 0.55708 0.7194 0.29364 0.0
O189 O 0.66 0.73591 0.24403 0.0
C190 C 0.58054 0.75189 0.17781 0.0
O191 O 0.58561 0.78078 0.18343 0.0
C192 C 0.5885 0.79848 0.28829 0.0
O193 O 0.56351 0.78285 0.28483 0.0
O194 O 0.60587 0.71851 0.3122 0.0
C195 C 0.98722 0.94247 0.01269 0.0
O196 O 0.96908 0.92605 0.03739 0.0
O197 O 0.98614 0.86276 0.02168 0.0
Zn198 Zn 0.02131 0.88736 0.00113 0.0
O199 O 0.03617 0.87183 0.94233 0.0
C200 C 0.04415 0.89026 0.0887 0.0
O201 O 0.01619 0.89918 0.09397 0.0
O202 O 0.01001 0.93064 0.99414 0.0
C203 C 0.04176 0.84402 0.93735 0.0
O204 O 0.03871 0.82551 0.97134 0.0
C205 C 0.96231 0.85684 -2e-05 0.0
O206 O 0.95885 0.86682 0.95893 0.0
O207 O 0.05258 0.88349 0.04934 0.0
C208 C 0.68315 0.74763 0.76314 0.0
O209 O 0.67136 0.73018 0.73234 0.0
O210 O 0.60889 0.71524 0.79698 0.0
Zn211 Zn 0.6219 0.75698 0.7812 0.0
O212 O 0.60923 0.76844 0.71873 0.0
C213 C 0.5713 0.77658 0.82327 0.0
O214 O 0.56108 0.75704 0.79404 0.0
O215 O 0.66611 0.76194 0.7896 0.0
C216 C 0.60833 0.79641 0.70975 0.0
O217 O 0.61679 0.81597 0.74016 0.0
C218 C 0.59912 0.69486 0.77112 0.0
O219 O 0.6007 0.69833 0.72758 0.0
O220 O 0.59922 0.78264 0.82429 0.0
C221 C 0.53292 0.44387 0.0229 0.0
O222 O 0.53842 0.43001 0.06089 0.0
O223 O 0.5609 0.3686 0.03102 0.0
Zn224 Zn 0.52481 0.38421 0.99711 0.0
O225 O 0.51666 0.36219 0.93934 0.0
C226 C 0.48003 0.35309 0.04851 0.0
O227 O 0.49249 0.32983 0.02896 0.0
O228 O 0.52821 0.4285 0.98781 0.0
C229 C 0.49085 0.36674 0.92226 0.0
O230 O 0.47256 0.38613 0.94126 0.0
C231 C 0.56479 0.34046 0.03587 0.0
O232 O 0.55073 0.32177 0.00904 0.0
O233 O 0.48896 0.37935 0.03839 0.0
C234 C 0.80728 0.2406 0.3316 0.0
O235 O 0.82174 0.2527 0.3654 0.0
O236 O 0.88213 0.26276 0.32342 0.0
Zn237 Zn 0.86592 0.22302 0.30426 0.0
O238 O 0.88124 0.21129 0.24392 0.0
C239 C 0.90399 0.19617 0.36783 0.0
O240 O 0.92075 0.21902 0.35522 0.0
O241 O 0.82154 0.22638 0.30161 0.0
C242 C 0.90709 0.21843 0.2292 0.0
O243 O 0.92554 0.23432 0.25409 0.0
C244 C 0.88187 0.28775 0.30286 0.0
O245 O 0.87018 0.29001 0.26266 0.0
O246 O 0.87822 0.19241 0.35028 0.0
C247 C 0.00531 0.56371 0.48234 0.0
O248 O 0.98588 0.57253 0.45189 0.0
O249 O 0.96117 0.63195 0.52485 0.0
Zn250 Zn 0.00501 0.62611 0.51061 0.0
O251 O 0.0176 0.6502 0.45698 0.0
C252 C 0.02037 0.63212 0.6021 0.0
O253 O 0.00366 0.60787 0.6056 0.0
O254 O 0.01714 0.58283 0.50834 0.0
C255 C 0.0178 0.67871 0.46112 0.0
O256 O 0.0087 0.69096 0.49871 0.0
C257 C 0.93918 0.61384 0.52904 0.0
O258 O 0.94233 0.58524 0.51916 0.0
O259 O 0.02527 0.64367 0.56392 0.0
C260 C 0.66777 0.26305 0.78517 0.0
O261 O 0.64948 0.28622 0.7823 0.0
O262 O 0.58739 0.2597 0.7554 0.0
Zn263 Zn 0.61447 0.22465 0.77111 0.0
O264 O 0.59878 0.20178 0.82447 0.0
C265 C 0.62039 0.21081 0.67945 0.0
O266 O 0.62672 0.2397 0.67968 0.0
O267 O 0.65754 0.23645 0.7818 0.0
C268 C 0.58358 0.17764 0.82074 0.0
O269 O 0.57744 0.16676 0.78096 0.0
C270 C 0.55914 0.25504 0.75453 0.0
O271 O 0.54854 0.22923 0.76901 0.0
O272 O 0.61411 0.19842 0.71666 0.0
C273 C 0.01469 0.43898 0.97415 0.0
O274 O 0.99416 0.42858 0.94668 0.0
O275 O 0.98967 0.36435 0.96185 0.0
Zn276 Zn 0.03098 0.37654 0.98161 0.0
O277 O 0.04167 0.35461 0.03834 0.0
C278 C 0.05302 0.37425 0.89213 0.0
O279 O 0.03171 0.39434 0.88593 0.0
O280 O 0.03314 0.42105 0.99268 0.0
C281 C 0.05103 0.32757 0.03882 0.0
O282 O 0.05393 0.3128 0.00105 0.0
C283 C 0.966 0.36158 0.98523 0.0
O284 O 0.96636 0.36792 0.02809 0.0
O285 O 0.05841 0.36445 0.9313 0.0
C286 C 0.80342 0.74323 0.2118 0.0
O287 O 0.81861 0.74057 0.24928 0.0
O288 O 0.8786 0.7032 0.17196 0.0
Zn289 Zn 0.8624 0.74494 0.17567 0.0
O290 O 0.8776 0.76478 0.23223 0.0
C291 C 0.88392 0.79389 0.11955 0.0
O292 O 0.87604 0.81102 0.15329 0.0
O293 O 0.81737 0.7451 0.1749 0.0
C294 C 0.90458 0.7739 0.23635 0.0
O295 O 0.92369 0.77006 0.2034 0.0
C296 C 0.88116 0.68358 0.2026 0.0
O297 O 0.87088 0.68892 0.24296 0.0
O298 O 0.87841 0.76588 0.12091 0.0
C299 C 0.51038 0.54655 0.49909 0.0
O300 O 0.53343 0.56415 0.50767 0.0
O301 O 0.51869 0.62193 0.45496 0.0
Zn302 Zn 0.47956 0.60128 0.47112 0.0
O303 O 0.45794 0.62051 0.52294 0.0
C304 C 0.44776 0.63085 0.40338 0.0
O305 O 0.45864 0.65385 0.42561 0.0
O306 O 0.486 0.55761 0.48421 0.0
C307 C 0.47096 0.62806 0.55902 0.0
O308 O 0.50008 0.62378 0.56356 0.0
C309 C 0.52474 0.64924 0.46401 0.0
O310 O 0.50485 0.66465 0.48693 0.0
O311 O 0.45325 0.60428 0.41672 0.0
C312 C 0.31964 0.2723 0.23714 0.0
O313 O 0.33321 0.29853 0.23433 0.0
O314 O 0.38896 0.28463 0.18698 0.0
Zn315 Zn 0.37904 0.24824 0.22468 0.0
O316 O 0.40141 0.24622 0.28373 0.0
C317 C 0.40846 0.20899 0.16097 0.0
O318 O 0.42563 0.23256 0.15399 0.0
O319 O 0.33489 0.24818 0.23561 0.0
C320 C 0.42656 0.23262 0.28686 0.0
O321 O 0.43967 0.22238 0.25065 0.0
C322 C 0.41532 0.2954 0.18427 0.0
O323 O 0.4364 0.28523 0.21117 0.0
O324 O 0.38716 0.21044 0.18916 0.0
C325 C 0.50579 0.57026 0.00792 0.0
O326 O 0.47724 0.57617 0.00087 0.0
O327 O 0.46924 0.63398 0.96936 0.0
Zn328 Zn 0.5125 0.63326 0.98934 0.0
O329 O 0.52162 0.6625 0.0389 0.0
C330 C 0.53183 0.63079 0.89865 0.0
O331 O 0.51118 0.60965 0.89648 0.0
O332 O 0.52497 0.59143 0.00695 0.0
C333 C 0.52369 0.69063 0.03155 0.0
O334 O 0.51798 0.70134 0.99145 0.0
C335 C 0.4486 0.65198 0.98144 0.0
O336 O 0.4554 0.67308 0.0104 0.0
O337 O 0.53688 0.64415 0.93544 0.0
C338 C 0.16239 0.73122 0.72934 0.0
O339 O 0.14243 0.71901 0.75618 0.0
O340 O 0.0858 0.73038 0.6923 0.0
Zn341 Zn 0.11208 0.76609 0.70153 0.0
O342 O 0.10083 0.78666 0.75867 0.0
C343 C 0.11032 0.77876 0.6103 0.0
O344 O 0.12213 0.75162 0.61016 0.0
O345 O 0.15475 0.75235 0.70308 0.0
C346 C 0.07428 0.79658 0.76418 0.0
O347 O 0.05462 0.79446 0.73149 0.0
C348 C 0.07266 0.71389 0.72089 0.0
O349 O 0.07561 0.719 0.76388 0.0
O350 O 0.10497 0.79166 0.64736 0.0
C351 C 0.01468 0.4356 0.50267 0.0
O352 O 0.0382 0.41872 0.51156 0.0
O353 O 0.0173 0.35799 0.47227 0.0
Zn354 Zn 0.98135 0.37966 0.49632 0.0
O355 O 0.96765 0.36492 0.55658 0.0
C356 C 0.94914 0.34769 0.43071 0.0
O357 O 0.96962 0.32751 0.44096 0.0
O358 O 0.98897 0.42377 0.49704 0.0
C359 C 0.96617 0.33713 0.5666 0.0
O360 O 0.9754 0.31678 0.5379 0.0
C361 C 0.04006 0.34549 0.48991 0.0
O362 O 0.04449 0.34687 0.53328 0.0
O363 O 0.94866 0.37269 0.4512 0.0
C364 C 0.30239 0.73757 0.28639 0.0
O365 O 0.31348 0.71287 0.26881 0.0
O366 O 0.37813 0.71359 0.29943 0.0
Zn367 Zn 0.36402 0.7552 0.28536 0.0
O368 O 0.37085 0.76628 0.22106 0.0
C369 C 0.41468 0.77647 0.33418 0.0
O370 O 0.42688 0.75255 0.31587 0.0
O371 O 0.3199 0.75889 0.29746 0.0
C372 C 0.39576 0.76425 0.20044 0.0
O373 O 0.41968 0.75378 0.22107 0.0
C374 C 0.38348 0.69152 0.27378 0.0
O375 O 0.37835 0.69351 0.23065 0.0
O376 O 0.38733 0.78293 0.32591 0.0
C377 C 0.0121 0.56537 0.01775 0.0
O378 O 0.03 0.57748 0.04769 0.0
O379 O 0.0236 0.64498 0.03275 0.0
Zn380 Zn 0.98527 0.62463 0.01396 0.0
O381 O 0.96645 0.64542 0.9612 0.0
C382 C 0.95979 0.61481 0.10311 0.0
O383 O 0.98223 0.59605 0.10959 0.0
O384 O 0.99198 0.58125 0.9989 0.0
C385 C 0.97912 0.66523 0.93696 0.0
O386 O 0.00674 0.67394 0.9458 0.0
C387 C 0.02049 0.66946 0.05421 0.0
O388 O 0.99345 0.68092 0.0594 0.0
O389 O 0.95644 0.62771 0.06547 0.0
C390 C 0.1942 0.25141 0.7684 0.0
O391 O 0.18261 0.2744 0.74671 0.0
O392 O 0.11886 0.27675 0.79013 0.0
Zn393 Zn 0.13263 0.23545 0.77363 0.0
O394 O 0.12191 0.22399 0.71067 0.0
C395 C 0.11117 0.2127 0.8567 0.0
O396 O 0.13243 0.23015 0.87288 0.0
O397 O 0.17701 0.23111 0.78399 0.0
C398 C 0.0944 0.21985 0.70075 0.0
O399 O 0.07347 0.2257 0.73051 0.0
C400 C 0.11145 0.29898 0.76584 0.0
O401 O 0.11409 0.29758 0.72217 0.0
O402 O 0.10894 0.20915 0.81473 0.0
C403 C 0.50367 0.41753 0.5102 0.0
O404 O 0.49755 0.40456 0.47186 0.0
O405 O 0.45187 0.35083 0.53836 0.0
Zn406 Zn 0.4964 0.35749 0.54115 0.0
O407 O 0.51732 0.33974 0.48755 0.0
C408 C 0.49712 0.33334 0.63218 0.0
O409 O 0.47058 0.34608 0.63624 0.0
O410 O 0.505 0.40174 0.54558 0.0
C411 C 0.50526 0.33479 0.44971 0.0
O412 O 0.4769 0.34179 0.44284 0.0
C413 C 0.4418 0.32481 0.52915 0.0
O414 O 0.46141 0.30354 0.52 0.0
O415 O 0.51168 0.33575 0.59572 0.0
C416 C 0.11501 0.14998 0.38828 0.0
C417 C 0.08738 0.13632 0.37546 0.0
C418 C 0.09589 0.15074 0.29747 0.0
C419 C 0.12232 0.16599 0.31087 0.0
N420 N 0.16236 0.17194 0.36421 0.0
N421 N 0.05647 0.11524 0.31725 0.0
C422 C 0.13382 0.16245 0.35466 0.0
C423 C 0.07956 0.13378 0.32964 0.0
N424 N 0.12211 0.15344 0.43247 0.0
N425 N 0.08575 0.1538 0.25458 0.0
H426 H 0.04458 0.10223 0.3404 0.0
H427 H 0.05099 0.11061 0.28413 0.0
H428 H 0.09824 0.16496 0.23004 0.0
H429 H 0.06474 0.14634 0.24381 0.0
H430 H 0.13991 0.16672 0.44366 0.0
H431 H 0.10918 0.14476 0.45847 0.0
H432 H 0.1731 0.16769 0.39454 0.0
H433 H 0.17639 0.18137 0.34001 0.0
C434 C 0.05607 0.78991 0.51383 0.0
C435 C 0.06709 0.81729 0.4958 0.0
C436 C 0.11026 0.81555 0.54668 0.0
C437 C 0.09673 0.79079 0.56899 0.0
N438 N 0.05569 0.75535 0.57653 0.0
N439 N 0.10388 0.85708 0.49449 0.0
C440 C 0.06949 0.77795 0.55302 0.0
C441 C 0.09428 0.83016 0.51154 0.0
N442 N 0.03276 0.77544 0.49308 0.0
N443 N 0.13842 0.82483 0.55897 0.0
H444 H 0.09312 0.86777 0.4678 0.0
H445 H 0.1215 0.86955 0.50803 0.0
H446 H 0.15045 0.81471 0.58495 0.0
H447 H 0.15078 0.84089 0.54144 0.0
H448 H 0.02461 0.75444 0.50273 0.0
H449 H 0.02335 0.78324 0.46322 0.0
H450 H 0.03411 0.74749 0.56956 0.0
H451 H 0.06481 0.74576 0.60536 0.0
C452 C 0.34612 0.80787 0.84942 0.0
C453 C 0.37345 0.82403 0.84771 0.0
C454 C 0.38085 0.81018 0.76957 0.0
C455 C 0.35527 0.79118 0.77282 0.0
N456 N 0.30752 0.78127 0.80766 0.0
N457 N 0.40961 0.8508 0.80327 0.0
C458 C 0.33567 0.79351 0.81006 0.0
C459 C 0.3882 0.82886 0.80647 0.0
N460 N 0.33128 0.80486 0.88914 0.0
N461 N 0.3994 0.80861 0.73326 0.0
H462 H 0.41497 0.86467 0.83029 0.0
H463 H 0.41978 0.85702 0.77326 0.0
H464 H 0.39443 0.79576 0.70513 0.0
H465 H 0.42038 0.81906 0.73187 0.0
H466 H 0.31309 0.79039 0.89385 0.0
H467 H 0.33809 0.8163 0.91789 0.0
H468 H 0.29135 0.78365 0.8326 0.0
H469 H 0.29959 0.7712 0.77839 0.0
C470 C 0.41265 0.18002 0.08989 0.0
C471 C 0.41522 0.18077 0.13704 0.0
C472 C 0.447 0.13584 0.13632 0.0
C473 C 0.44666 0.13665 0.08856 0.0
N474 N 0.42091 0.15187 0.02148 0.0
N475 N 0.42531 0.15404 0.2056 0.0
C476 C 0.4266 0.15627 0.0659 0.0
C477 C 0.42901 0.15672 0.16039 0.0
N478 N 0.39758 0.20253 0.06814 0.0
N479 N 0.46596 0.11701 0.15911 0.0
H480 H 0.41268 0.16915 0.22445 0.0
H481 H 0.4321 0.1352 0.2238 0.0
H482 H 0.47791 0.09945 0.14476 0.0
H483 H 0.47086 0.11949 0.19295 0.0
H484 H 0.39807 0.20555 0.03362 0.0
H485 H 0.3852 0.21887 0.08516 0.0
H486 H 0.40482 0.16391 0.0035 0.0
H487 H 0.4303 0.13397 0.00371 0.0
C488 C 0.09999 0.84325 0.15081 0.0
C489 C 0.08162 0.83599 0.18822 0.0
C490 C 0.04878 0.87863 0.17099 0.0
C491 C 0.06232 0.88037 0.12823 0.0
N492 N 0.10937 0.87774 0.08906 0.0
N493 N 0.04081 0.84859 0.23778 0.0
C494 C 0.09084 0.86692 0.12177 0.0
C495 C 0.05699 0.85465 0.19999 0.0
N496 N 0.12483 0.82626 0.14138 0.0
N497 N 0.02943 0.90071 0.18444 0.0
H498 H 0.04739 0.83215 0.26082 0.0
H499 H 0.02042 0.85898 0.24536 0.0
H500 H 0.02602 0.92016 0.16543 0.0
H501 H 0.02014 0.90177 0.21634 0.0
H502 H 0.13679 0.8278 0.11155 0.0
H503 H 0.13297 0.80967 0.16289 0.0
H504 H 0.13138 0.87042 0.08418 0.0
H505 H 0.10369 0.89675 0.07027 0.0
C506 C 0.44356 0.78189 0.40568 0.0
C507 C 0.43273 0.79498 0.36535 0.0
C508 C 0.46275 0.8404 0.37903 0.0
C509 C 0.47317 0.82754 0.41974 0.0
N510 N 0.46959 0.78907 0.47632 0.0
N511 N 0.42791 0.83816 0.31668 0.0
C512 C 0.46243 0.79911 0.43435 0.0
C513 C 0.44082 0.82483 0.35324 0.0
N514 N 0.436 0.75287 0.41631 0.0
N515 N 0.47528 0.86652 0.36345 0.0
H516 H 0.41343 0.82693 0.29494 0.0
H517 H 0.42995 0.86101 0.30934 0.0
H518 H 0.49102 0.8789 0.38146 0.0
H519 H 0.47179 0.87496 0.33138 0.0
H520 H 0.44623 0.74057 0.4418 0.0
H521 H 0.42025 0.74037 0.39829 0.0
H522 H 0.46032 0.76991 0.49094 0.0
H523 H 0.48302 0.80139 0.49833 0.0
C524 C 0.45942 0.18913 0.69921 0.0
C525 C 0.42869 0.19655 0.6933 0.0
C526 C 0.42319 0.15542 0.63947 0.0
C527 C 0.45491 0.15255 0.63842 0.0
N528 N 0.50379 0.1652 0.66851 0.0
N529 N 0.38025 0.18609 0.65983 0.0
C530 C 0.47319 0.16844 0.66943 0.0
C531 C 0.41002 0.179 0.66487 0.0
N532 N 0.47528 0.20212 0.73331 0.0
N533 N 0.40588 0.13553 0.61593 0.0
H534 H 0.36946 0.20263 0.67851 0.0
H535 H 0.36644 0.17669 0.63543 0.0
H536 H 0.41526 0.118 0.59732 0.0
H537 H 0.38251 0.13453 0.61812 0.0
H538 H 0.49711 0.19598 0.74205 0.0
H539 H 0.46539 0.21715 0.75573 0.0
H540 H 0.51862 0.17858 0.68664 0.0
H541 H 0.51467 0.14979 0.648 0.0
C542 C 0.07891 0.16994 0.88247 0.0
C543 C 0.08707 0.20072 0.88589 0.0
C544 C 0.04662 0.20848 0.94024 0.0
C545 C 0.03544 0.17927 0.93088 0.0
N546 N 0.03848 0.13365 0.8868 0.0
N547 N 0.07459 0.25094 0.91173 0.0
C548 C 0.05103 0.16018 0.90061 0.0
C549 C 0.07004 0.22048 0.9134 0.0
N550 N 0.09794 0.14996 0.86229 0.0
N551 N 0.03525 0.22463 0.97524 0.0
H552 H 0.0903 0.26122 0.89086 0.0
H553 H 0.06047 0.26631 0.92763 0.0
H554 H 0.01858 0.21625 0.99647 0.0
H555 H 0.04467 0.24486 0.98602 0.0
H556 H 0.09441 0.12676 0.86262 0.0
H557 H 0.11882 0.1563 0.84932 0.0
H558 H 0.04751 0.12064 0.86115 0.0
H559 H 0.01753 0.12601 0.89758 0.0
C560 C 0.90812 0.81273 0.56618 0.0
C561 C 0.93975 0.8157 0.5632 0.0
C562 C 0.94532 0.7933 0.63752 0.0
C563 C 0.9146 0.78457 0.63635 0.0
N564 N 0.86623 0.78564 0.59826 0.0
N565 N 0.98911 0.80953 0.59574 0.0
C566 C 0.89559 0.79474 0.6009 0.0
C567 C 0.95855 0.80642 0.59899 0.0
N568 N 0.8901 0.82676 0.53549 0.0
N569 N 0.96158 0.78966 0.676 0.0
H570 H -0.00046 0.82097 0.56947 0.0
H571 H 0.00421 0.79952 0.61791 0.0
H572 H 0.95206 0.78125 0.70539 0.0
H573 H 0.98339 0.79779 0.68027 0.0
H574 H 0.86678 0.82816 0.53854 0.0
H575 H 0.89868 0.8395 0.50909 0.0
H576 H 0.85296 0.7887 0.5699 0.0
H577 H 0.8552 0.77346 0.62297 0.0
C578 C 0.9367 0.12783 0.42693 0.0
C579 C 0.9489 0.1422 0.46506 0.0
C580 C 0.92218 0.18858 0.44575 0.0
C581 C 0.91505 0.176 0.40351 0.0
N582 N 0.91575 0.13381 0.35265 0.0
N583 N 0.95385 0.1862 0.51167 0.0
C584 C 0.92176 0.14543 0.39401 0.0
C585 C 0.94132 0.17242 0.47531 0.0
N586 N 0.93962 0.09734 0.42237 0.0
N587 N 0.91043 0.2159 0.45754 0.0
H588 H 0.96724 0.17481 0.53482 0.0
H589 H 0.95236 0.20926 0.51764 0.0
H590 H 0.89601 0.22805 0.43663 0.0
H591 H 0.91256 0.22513 0.48936 0.0
H592 H 0.92905 0.08496 0.39733 0.0
H593 H 0.95033 0.08403 0.44643 0.0
H594 H 0.92342 0.11285 0.34201 0.0
H595 H 0.90469 0.14589 0.32765 0.0
C596 C 0.59509 0.13607 0.1416 0.0
C597 C 0.56925 0.11971 0.15427 0.0
C598 C 0.57121 0.14177 0.22893 0.0
C599 C 0.59192 0.16338 0.21252 0.0
N600 N 0.62594 0.18015 0.15425 0.0
N601 N 0.53505 0.10252 0.2108 0.0
C602 C 0.60536 0.15973 0.16965 0.0
C603 C 0.5585 0.12068 0.1987 0.0
N604 N 0.60895 0.1295 0.10207 0.0
N605 N 0.56365 0.14185 0.27321 0.0
H606 H 0.52673 0.08587 0.18948 0.0
H607 H 0.52354 0.10427 0.24097 0.0
H608 H 0.57322 0.15698 0.29582 0.0
H609 H 0.55009 0.12562 0.28822 0.0
H610 H 0.6293 0.13895 0.09197 0.0
H611 H 0.60138 0.11219 0.08135 0.0
H612 H 0.63334 0.181 0.12126 0.0
H613 H 0.63491 0.1973 0.1738 0.0
C614 C 0.50058 0.81528 0.85911 0.0
C615 C 0.50107 0.81062 0.90619 0.0
C616 C 0.54983 0.78518 0.89971 0.0
C617 C 0.54987 0.79162 0.85326 0.0
N618 N 0.52986 0.81989 0.79129 0.0
N619 N 0.5294 0.79759 0.97247 0.0
C620 C 0.52673 0.80908 0.83387 0.0
C621 C 0.52671 0.7975 0.92694 0.0
N622 N 0.47463 0.82354 0.83782 0.0
N623 N 0.57098 0.76626 0.91748 0.0
H624 H 0.51336 0.80727 0.99346 0.0
H625 H 0.54884 0.79078 0.98918 0.0
H626 H 0.5885 0.75709 0.89874 0.0
H627 H 0.56987 0.75797 0.95004 0.0
H628 H 0.47244 0.82398 0.80314 0.0
H629 H 0.45432 0.82671 0.85434 0.0
H630 H 0.51485 0.83513 0.77689 0.0
H631 H 0.54919 0.81619 0.77225 0.0
C632 C 0.913 0.18342 0.80446 0.0
C633 C 0.88162 0.18612 0.81167 0.0
C634 C 0.88413 0.14773 0.87041 0.0
C635 C 0.916 0.14904 0.86839 0.0
N636 N 0.96138 0.16931 0.83533 0.0
N637 N 0.83665 0.17159 0.85121 0.0
C638 C 0.93068 0.16675 0.83534 0.0
C639 C 0.86684 0.16805 0.84403 0.0
N640 N 0.92578 0.197 0.76805 0.0
N641 N 0.87053 0.1269 0.89738 0.0
H642 H 0.82322 0.18562 0.83155 0.0
H643 H 0.82518 0.16187 0.87793 0.0
H644 H 0.88274 0.11168 0.91692 0.0
H645 H 0.84743 0.12287 0.89747 0.0
H646 H 0.94807 0.19372 0.75846 0.0
H647 H 0.91317 0.20932 0.74489 0.0
H648 H 0.97306 0.18477 0.8157 0.0
H649 H 0.9753 0.1575 0.85725 0.0
C650 C 0.60302 0.16475 0.63819 0.0
C651 C 0.6123 0.19519 0.63686 0.0
C652 C 0.58433 0.2029 0.56753 0.0
C653 C 0.56929 0.17522 0.57533 0.0
N654 N 0.56631 0.1277 0.61469 0.0
N655 N 0.62633 0.23536 0.58703 0.0
C656 C 0.57986 0.15503 0.60879 0.0
C657 C 0.60758 0.21198 0.59721 0.0
N658 N 0.61709 0.14526 0.66673 0.0
N659 N 0.57548 0.2209 0.53287 0.0
H660 H 0.64563 0.23979 0.60582 0.0
H661 H 0.62521 0.24754 0.5573 0.0
H662 H 0.55999 0.21369 0.50891 0.0
H663 H 0.58268 0.24305 0.52874 0.0
H664 H 0.61303 0.12217 0.66748 0.0
H665 H 0.63551 0.15196 0.68602 0.0
H666 H 0.57045 0.11364 0.6419 0.0
H667 H 0.54948 0.11969 0.59362 0.0
C668 C 0.57054 0.85186 0.29459 0.0
C669 C 0.58826 0.82777 0.31163 0.0
C670 C 0.60121 0.85815 0.37696 0.0
C671 C 0.57813 0.87851 0.36514 0.0
N672 N 0.5541 0.90379 0.30372 0.0
N673 N 0.62019 0.80748 0.37028 0.0
C674 C 0.56675 0.87826 0.32095 0.0
C675 C 0.60431 0.83105 0.35254 0.0
N676 N 0.55671 0.84904 0.25397 0.0
N677 N 0.62014 0.86511 0.4114 0.0
H678 H 0.62226 0.78658 0.35482 0.0
H679 H 0.62922 0.80775 0.40242 0.0
H680 H 0.6187 0.88573 0.42805 0.0
H681 H 0.63904 0.85237 0.41965 0.0
H682 H 0.54064 0.86407 0.24192 0.0
H683 H 0.56059 0.83084 0.23273 0.0
H684 H 0.54662 0.90588 0.2709 0.0
H685 H 0.55473 0.92421 0.32092 0.0
C686 C 0.93003 0.79464 0.07036 0.0
C687 C 0.9015 0.80693 0.08212 0.0
C688 C 0.91083 0.85054 0.03361 0.0
C689 C 0.93909 0.83805 0.02176 0.0
N690 N 0.97147 0.79466 0.01786 0.0
N691 N 0.86137 0.84175 0.06533 0.0
C692 C 0.94725 0.80885 0.0365 0.0
C693 C 0.89082 0.83339 0.06061 0.0
N694 N 0.94184 0.77074 0.09338 0.0
N695 N 0.90375 0.87934 0.02123 0.0
H696 H 0.84595 0.82921 0.084 0.0
H697 H 0.85154 0.85922 0.04717 0.0
H698 H 0.91757 0.89249 0.00089 0.0
H699 H 0.88512 0.8909 0.03356 0.0
H700 H 0.96405 0.76359 0.08979 0.0
H701 H 0.93063 0.7594 0.11883 0.0
H702 H 0.97673 0.77212 0.02379 0.0
H703 H 0.98443 0.80454 0.9928 0.0
C704 C 0.53299 0.65757 0.82496 0.0
C705 C 0.54813 0.64039 0.8581 0.0
C706 C 0.59676 0.65118 0.82317 0.0
C707 C 0.58188 0.66999 0.79183 0.0
N708 N 0.5359 0.68438 0.75437 0.0
N709 N 0.59249 0.61395 0.88252 0.0
C710 C 0.54995 0.67065 0.7896 0.0
C711 C 0.57947 0.63487 0.85502 0.0
N712 N 0.50281 0.66314 0.82904 0.0
N713 N 0.62752 0.65004 0.82338 0.0
H714 H 0.58016 0.60164 0.90598 0.0
H715 H 0.61477 0.60696 0.87979 0.0
H716 H 0.64052 0.6603 0.79856 0.0
H717 H 0.64018 0.63985 0.8485 0.0
H718 H 0.49113 0.67858 0.80937 0.0
H719 H 0.4895 0.65368 0.85412 0.0
H720 H 0.51281 0.68317 0.74864 0.0
H721 H 0.54753 0.69467 0.7283 0.0
C722 C 0.60587 0.28598 0.11215 0.0
C723 C 0.59836 0.29786 0.15463 0.0
C724 C 0.57204 0.33988 0.11985 0.0
C725 C 0.57964 0.32844 0.07674 0.0
N726 N 0.61105 0.29561 0.03265 0.0
N727 N 0.58514 0.34113 0.19836 0.0
C728 C 0.59899 0.30307 0.07315 0.0
C729 C 0.5852 0.32661 0.15818 0.0
N730 N 0.61829 0.25794 0.10895 0.0
N731 N 0.55034 0.3614 0.12513 0.0
H732 H 0.59561 0.33205 0.22657 0.0
H733 H 0.57804 0.36337 0.20216 0.0
H734 H 0.53783 0.37043 0.09905 0.0
H735 H 0.54225 0.36788 0.15636 0.0
H736 H 0.62089 0.24656 0.07877 0.0
H737 H 0.62454 0.24538 0.13693 0.0
H738 H 0.62727 0.27889 0.0286 0.0
H739 H 0.60709 0.30827 0.00379 0.0
C740 C 0.92588 0.32095 0.3171 0.0
C741 C 0.89539 0.31376 0.3256 0.0
C742 C 0.89788 0.33738 0.39919 0.0
C743 C 0.92912 0.34203 0.39239 0.0
N744 N 0.97074 0.34757 0.34147 0.0
N745 N 0.84987 0.32311 0.36635 0.0
C746 C 0.94238 0.33702 0.34994 0.0
C747 C 0.88052 0.325 0.36386 0.0
N748 N 0.93938 0.31073 0.27901 0.0
N749 N 0.88537 0.34275 0.44015 0.0
H750 H 0.83703 0.3142 0.34027 0.0
H751 H 0.83714 0.33274 0.39179 0.0
H752 H 0.89737 0.35225 0.46655 0.0
H753 H 0.86354 0.33651 0.44877 0.0
H754 H 0.96247 0.31178 0.27322 0.0
H755 H 0.92731 0.30015 0.25357 0.0
H756 H 0.98095 0.3467 0.31019 0.0
H757 H 0.98308 0.35971 0.36508 0.0
C758 C 0.91028 0.64773 0.63137 0.0
C759 C 0.88524 0.66474 0.61545 0.0
C760 C 0.89045 0.64069 0.5421 0.0
C761 C 0.91479 0.62366 0.55895 0.0
N762 N 0.9388 0.60174 0.62322 0.0
N763 N 0.84568 0.66935 0.56019 0.0
C764 C 0.92115 0.62373 0.60508 0.0
C765 C 0.87334 0.6586 0.57218 0.0
N766 N 0.92602 0.65615 0.66857 0.0
N767 N 0.88435 0.64044 0.4974 0.0
H768 H 0.83187 0.68108 0.58236 0.0
H769 H 0.83516 0.66372 0.53019 0.0
H770 H 0.89583 0.62635 0.47529 0.0
H771 H 0.869 0.65506 0.48237 0.0
H772 H 0.94578 0.64543 0.67869 0.0
H773 H 0.9223 0.67617 0.68561 0.0
H774 H 0.94251 0.59979 0.65754 0.0
H775 H 0.94672 0.5837 0.60429 0.0
C776 C 0.513 0.28192 0.65547 0.0
C777 C 0.50841 0.3125 0.66704 0.0
C778 C 0.53076 0.30313 0.74084 0.0
C779 C 0.53992 0.27424 0.72596 0.0
N780 N 0.54216 0.23674 0.66747 0.0
N781 N 0.51259 0.35292 0.72047 0.0
C782 C 0.53144 0.26365 0.68299 0.0
C783 C 0.51679 0.32327 0.70997 0.0
N784 N 0.49894 0.27014 0.61876 0.0
N785 N 0.53506 0.31102 0.78453 0.0
H786 H 0.50206 0.36813 0.69894 0.0
H787 H 0.52097 0.36293 0.74936 0.0
H788 H 0.54533 0.29669 0.80765 0.0
H789 H 0.52634 0.33054 0.79874 0.0
H790 H 0.4989 0.24724 0.6112 0.0
H791 H 0.4845 0.28278 0.59859 0.0
H792 H 0.5396 0.22968 0.63451 0.0
H793 H 0.55566 0.22238 0.68641 0.0
C794 C 0.92624 0.3656 0.92743 0.0
C795 C 0.93892 0.34919 0.96334 0.0
C796 C 0.90988 0.30495 0.94115 0.0
C797 C 0.90328 0.31917 0.89975 0.0
N798 N 0.90638 0.36339 0.85233 0.0
N799 N 0.94313 0.3029 0.00525 0.0
C800 C 0.91112 0.34986 0.89281 0.0
C801 C 0.93033 0.31891 0.97113 0.0
N802 N 0.92895 0.39622 0.92655 0.0
N803 N 0.89653 0.2781 0.95163 0.0
H804 H 0.95768 0.31252 0.02857 0.0
H805 H 0.94069 0.27968 0.00879 0.0
H806 H 0.8809 0.26775 0.93057 0.0
H807 H 0.89853 0.26782 0.98283 0.0
H808 H 0.9182 0.40984 0.90305 0.0
H809 H 0.93915 0.40803 0.95263 0.0
H810 H 0.91504 0.3845 0.84414 0.0
H811 H 0.89578 0.35285 0.82556 0.0
C812 C 0.95054 0.64127 0.17592 0.0
C813 C 0.93954 0.62338 0.14011 0.0
C814 C 0.88766 0.63633 0.15945 0.0
C815 C 0.89884 0.65636 0.19224 0.0
N816 N 0.93876 0.67024 0.24244 0.0
N817 N 0.89852 0.59632 0.10645 0.0
C818 C 0.9296 0.65589 0.20445 0.0
C819 C 0.90825 0.61825 0.13502 0.0
N820 N 0.98076 0.64634 0.1804 0.0
N821 N 0.85751 0.63593 0.15036 0.0
H822 H 0.91346 0.5827 0.08867 0.0
H823 H 0.87609 0.58987 0.10324 0.0
H824 H 0.84201 0.64793 0.16963 0.0
H825 H 0.84798 0.62457 0.12343 0.0
H826 H 0.98985 0.66226 0.20208 0.0
H827 H -0.0031 0.63582 0.16063 0.0
H828 H 0.9605 0.6687 0.25526 0.0
H829 H 0.92372 0.68121 0.26365 0.0
C830 C 0.55958 0.71267 0.3994 0.0
C831 C 0.57159 0.69586 0.36322 0.0
C832 C 0.56641 0.64936 0.40665 0.0
C833 C 0.54878 0.66533 0.43817 0.0
N834 N 0.54427 0.7124 0.47727 0.0
N835 N 0.58823 0.64855 0.33235 0.0
C836 C 0.55008 0.69722 0.43856 0.0
C837 C 0.57613 0.66434 0.36718 0.0
N838 N 0.55645 0.74322 0.39574 0.0
N839 N 0.57523 0.62056 0.41595 0.0
H840 H 0.5962 0.6589 0.30334 0.0
H841 H 0.58876 0.62512 0.33106 0.0
H842 H 0.57098 0.61054 0.44691 0.0
H843 H 0.58988 0.60822 0.39593 0.0
H844 H 0.54441 0.75625 0.41847 0.0
H845 H 0.56471 0.75547 0.3686 0.0
H846 H 0.54665 0.7356 0.48079 0.0
H847 H 0.54107 0.70116 0.50757 0.0
C848 C 0.45818 0.3573 0.12633 0.0
C849 C 0.45556 0.34771 0.08123 0.0
C850 C 0.41849 0.30961 0.10236 0.0
C851 C 0.42352 0.31687 0.14817 0.0
N852 N 0.43909 0.35367 0.20233 0.0
N853 N 0.425 0.32454 0.02484 0.0
C854 C 0.44043 0.34282 0.15963 0.0
C855 C 0.43278 0.32716 0.06888 0.0
N856 N 0.47851 0.37904 0.13775 0.0
N857 N 0.40205 0.28485 0.0905 0.0
H858 H 0.43508 0.33764 -5e-05 0.0
H859 H 0.40664 0.31202 0.01368 0.0
H860 H 0.38984 0.27176 0.11284 0.0
H861 H 0.40167 0.2762 0.05816 0.0
H862 H 0.48463 0.38382 0.17058 0.0
H863 H 0.48986 0.3921 0.1143 0.0
H864 H 0.44878 0.37392 0.21233 0.0
H865 H 0.42565 0.34372 0.2269 0.0
C866 C 0.4165 0.63347 0.91818 0.0
C867 C 0.42059 0.65397 0.95378 0.0
C868 C 0.38685 0.68974 0.917 0.0
C869 C 0.38956 0.67262 0.87698 0.0
N870 N 0.40667 0.62745 0.8394 0.0
N871 N 0.39615 0.69226 0.9971 0.0
C872 C 0.40354 0.64384 0.87774 0.0
C873 C 0.40157 0.67944 0.95645 0.0
N874 N 0.42401 0.60392 0.92394 0.0
N875 N 0.37094 0.71611 0.91677 0.0
H876 H 0.40392 0.6825 0.0267 0.0
H877 H 0.3812 0.70996 0.00227 0.0
H878 H 0.35784 0.72294 0.88959 0.0
H879 H 0.37125 0.73159 0.94284 0.0
H880 H 0.41953 0.58728 0.90035 0.0
H881 H 0.43092 0.59568 0.95498 0.0
H882 H 0.42003 0.60821 0.83736 0.0
H883 H 0.3978 0.63411 0.80874 0.0
C884 C 0.06664 0.66017 0.69913 0.0
C885 C 0.05381 0.68918 0.70407 0.0
C886 C 0.01405 0.6771 0.65062 0.0
C887 C 0.02866 0.64925 0.64229 0.0
N888 N 0.0632 0.61045 0.66555 0.0
N889 N 0.01192 0.72286 0.69502 0.0
C890 C 0.05297 0.63938 0.66927 0.0
C891 C 0.02616 0.69673 0.68338 0.0
N892 N 0.09289 0.65341 0.72083 0.0
N893 N 0.98926 0.68501 0.62605 0.0
H894 H 0.02064 0.73741 0.71911 0.0
H895 H 0.99063 0.72908 0.68384 0.0
H896 H 0.97876 0.67024 0.60386 0.0
H897 H 0.97929 0.70621 0.6267 0.0
H898 H 0.10559 0.63414 0.71485 0.0
H899 H 0.10257 0.66783 0.7443 0.0
H900 H 0.07925 0.60097 0.68665 0.0
H901 H 0.05397 0.59504 0.64312 0.0
C902 C 0.0645 0.29731 0.4642 0.0
C903 C 0.06064 0.32892 0.45988 0.0
C904 C 0.0797 0.32719 0.38322 0.0
C905 C 0.08461 0.29576 0.38788 0.0
N906 N 0.09 0.25276 0.43691 0.0
N907 N 0.07319 0.37483 0.42115 0.0
C908 C 0.07966 0.28137 0.42973 0.0
C909 C 0.07126 0.34412 0.42129 0.0
N910 N 0.05224 0.28216 0.4996 0.0
N911 N 0.08101 0.34063 0.34209 0.0
H912 H 0.06783 0.38771 0.44916 0.0
H913 H 0.08318 0.38705 0.39535 0.0
H914 H 0.08568 0.32896 0.31271 0.0
H915 H 0.07443 0.36285 0.33646 0.0
H916 H 0.05129 0.25873 0.50139 0.0
H917 H 0.04104 0.29281 0.52575 0.0
H918 H 0.08941 0.24224 0.46807 0.0
H919 H 0.10205 0.24071 0.41293 0.0
C920 C 0.39961 0.63396 0.36019 0.0
C921 C 0.43141 0.63644 0.36135 0.0
C922 C 0.43139 0.66525 0.29166 0.0
C923 C 0.39951 0.66566 0.29333 0.0
N924 N 0.35329 0.64387 0.31912 0.0
N925 N 0.47807 0.64587 0.323 0.0
C926 C 0.38366 0.64743 0.32415 0.0
C927 C 0.44747 0.6491 0.32499 0.0
N928 N 0.38474 0.62055 0.39493 0.0
N929 N 0.44609 0.68203 0.26013 0.0
H930 H 0.49018 0.63397 0.34721 0.0
H931 H 0.49114 0.65265 0.29594 0.0
H932 H 0.43481 0.69283 0.23406 0.0
H933 H 0.46919 0.68596 0.26028 0.0
H934 H 0.36146 0.62084 0.39873 0.0
H935 H 0.39594 0.60986 0.42119 0.0
H936 H 0.34025 0.62942 0.33853 0.0
H937 H 0.34159 0.65371 0.29253 0.0
C938 C 0.05219 0.71516 0.0667 0.0
C939 C 0.04656 0.68428 0.07573 0.0
C940 C 0.08737 0.68399 0.13086 0.0
C941 C 0.08942 0.71571 0.12715 0.0
N942 N 0.07243 0.76236 0.09384 0.0
N943 N 0.05661 0.63972 0.12007 0.0
C944 C 0.07179 0.73157 0.09524 0.0
C945 C 0.06386 0.6686 0.10831 0.0
N946 N 0.03914 0.72864 0.0304 0.0
N947 N 0.10812 0.6686 0.15579 0.0
H948 H 0.03924 0.62755 0.10525 0.0
H949 H 0.06612 0.62861 0.14734 0.0
H950 H 0.12575 0.67934 0.17248 0.0
H951 H 0.10966 0.64519 0.15625 0.0
H952 H 0.04458 0.75027 0.01954 0.0
H953 H 0.02494 0.71714 0.0085 0.0
H954 H 0.05725 0.77523 0.07535 0.0
H955 H 0.0868 0.7753 0.11352 0.0
C956 C 0.11441 0.34264 0.81794 0.0
C957 C 0.09707 0.32488 0.78814 0.0
C958 C 0.05047 0.34241 0.82301 0.0
C959 C 0.06781 0.35992 0.85334 0.0
N960 N 0.1152 0.38257 0.87333 0.0
N961 N 0.04914 0.31357 0.75424 0.0
C962 C 0.09951 0.36193 0.84871 0.0
C963 C 0.06524 0.32698 0.78771 0.0
N964 N 0.14509 0.34019 0.81769 0.0
N965 N 0.02024 0.33855 0.82993 0.0
H966 H 0.05923 0.30142 0.72851 0.0
H967 H 0.02612 0.3168 0.74956 0.0
H968 H 0.00846 0.34876 0.85593 0.0
H969 H 0.00714 0.32322 0.8122 0.0
H970 H 0.15899 0.34945 0.84211 0.0
H971 H 0.15665 0.32771 0.79364 0.0
H972 H 0.13799 0.3871 0.86877 0.0
H973 H 0.10478 0.39712 0.8959 0.0
C974 C 0.39246 0.33745 0.56554 0.0
C975 C 0.41043 0.31655 0.54198 0.0
C976 C 0.3842 0.2747 0.57746 0.0
C977 C 0.37271 0.29539 0.6094 0.0
N978 N 0.36057 0.34631 0.63013 0.0
N979 N 0.41025 0.26814 0.50659 0.0
C980 C 0.37456 0.32685 0.60159 0.0
C981 C 0.40184 0.28594 0.54158 0.0
N982 N 0.39221 0.36692 0.55255 0.0
N983 N 0.38041 0.24444 0.58339 0.0
H984 H 0.42156 0.27704 0.47895 0.0
H985 H 0.40321 0.24594 0.50257 0.0
H986 H 0.36644 0.2355 0.60797 0.0
H987 H 0.39174 0.22819 0.56481 0.0
H988 H 0.37845 0.38327 0.56679 0.0
H989 H 0.4035 0.37408 0.52382 0.0
H990 H 0.36376 0.36954 0.62957 0.0
H991 H 0.34614 0.33882 0.65537 0.0
C992 C 0.2729 0.25412 0.27468 0.0
C993 C 0.28653 0.27034 0.23922 0.0
C994 C 0.23694 0.28088 0.20715 0.0
C995 C 0.22372 0.26145 0.23933 0.0
N996 N 0.22972 0.22538 0.2993 0.0
N997 N 0.28216 0.29447 0.16696 0.0
C998 C 0.24184 0.24696 0.27204 0.0
C999 C 0.26876 0.28257 0.20416 0.0
N1000 N 0.28945 0.24627 0.31147 0.0
N1001 N 0.21919 0.29862 0.18058 0.0
H1002 H 0.30543 0.29562 0.16278 0.0
H1003 H 0.27018 0.3006 0.13839 0.0
H1004 H 0.19574 0.29869 0.18246 0.0
H1005 H 0.22778 0.31545 0.15989 0.0
H1006 H 0.27997 0.23713 0.34032 0.0
H1007 H 0.3122 0.25164 0.31496 0.0
H1008 H 0.2426 0.21183 0.3204 0.0
H1009 H 0.20719 0.21893 0.29779 0.0
C1010 C 0.02793 0.96322 0.46197 0.0
C1011 C 0.00116 0.95375 0.48371 0.0
C1012 C 0.9881 0.0062 0.50026 0.0
C1013 C 0.01354 0.01569 0.47529 0.0
N1014 N 0.05598 0.00415 0.42801 0.0
N1015 N 0.95357 0.96559 0.51827 0.0
C1016 C 0.03292 0.99445 0.45472 0.0
C1017 C 0.98069 0.97505 0.50171 0.0
N1018 N 0.04923 0.94243 0.45015 0.0
N1019 N 0.97106 0.02696 0.52261 0.0
H1020 H 0.94729 0.94296 0.51965 0.0
H1021 H 0.93626 0.98013 0.52738 0.0
H1022 H 0.97486 0.05011 0.52051 0.0
H1023 H 0.95437 0.02127 0.54554 0.0
H1024 H 0.07062 0.9481 0.43866 0.0
H1025 H 0.04659 0.91934 0.45543 0.0
H1026 H 0.06859 0.98987 0.40777 0.0
H1027 H 0.06136 0.02685 0.42375 0.0
C1028 C 0.23697 0.70092 0.68815 0.0
C1029 C 0.25556 0.70696 0.72564 0.0
C1030 C 0.21242 0.72716 0.76694 0.0
C1031 C 0.19382 0.72071 0.72968 0.0
N1032 N 0.1862 0.6961 0.65887 0.0
N1033 N 0.26065 0.7209 0.8035 0.0
C1034 C 0.20546 0.70596 0.69142 0.0
C1035 C 0.24312 0.71824 0.76608 0.0
N1036 N 0.24957 0.69084 0.64924 0.0
N1037 N 0.20122 0.74352 0.80193 0.0
H1038 H 0.28373 0.71679 0.80396 0.0
H1039 H 0.25203 0.72538 0.83516 0.0
H1040 H 0.17879 0.75033 0.80401 0.0
H1041 H 0.2145 0.75236 0.82742 0.0
H1042 H 0.23798 0.68956 0.61905 0.0
H1043 H 0.27227 0.68504 0.64655 0.0
H1044 H 0.19278 0.68263 0.63216 0.0
H1045 H 0.16294 0.69926 0.6605 0.0
C1046 C 0.45538 0.98665 0.03561 0.0
C1047 C 0.4813 -0.00311 0.0123 0.0
C1048 C 0.48856 0.94714 0.97891 0.0
C1049 C 0.46259 0.93688 0.00207 0.0
N1050 N 0.41986 0.94603 0.04973 0.0
N1051 N 0.52491 0.98715 0.96663 0.0
C1052 C 0.44558 0.95642 0.02973 0.0
C1053 C 0.49863 0.97717 0.98543 0.0
N1054 N 0.44117 0.00552 0.065 0.0
N1055 N 0.50243 0.92867 0.94861 0.0
H1056 H 0.53215 0.00946 0.96855 0.0
H1057 H 0.54057 0.97318 0.95123 0.0
H1058 H 0.49562 0.90656 0.94256 0.0
H1059 H 0.51936 0.93562 0.92691 0.0
H1060 H 0.42377 -0.00093 0.08618 0.0
H1061 H 0.44795 0.0277 0.07049 0.0
H1062 H 0.40448 0.95956 0.06652 0.0
H1063 H 0.41298 0.92359 0.04813 0.0
C1064 C 0.2242 0.76978 0.26831 0.0
C1065 C 0.2065 0.74878 0.29255 0.0
C1066 C 0.25217 0.72265 0.31735 0.0
C1067 C 0.26949 0.74168 0.2892 0.0
N1068 N 0.27171 0.77993 0.23174 0.0
N1069 N 0.20278 0.70282 0.3354 0.0
C1070 C 0.25547 0.7644 0.26307 0.0
C1071 C 0.22023 0.7246 0.31602 0.0
N1072 N 0.21131 0.79541 0.25153 0.0
N1073 N 0.26629 0.70335 0.34623 0.0
H1074 H 0.1793 0.70342 0.33508 0.0
H1075 H 0.21145 0.68292 0.34865 0.0
H1076 H 0.28967 0.70131 0.34805 0.0
H1077 H 0.25504 0.69125 0.37096 0.0
H1078 H 0.2237 0.81305 0.23773 0.0
H1079 H 0.18851 0.80044 0.25528 0.0
H1080 H 0.26193 0.79432 0.20833 0.0
H1081 H 0.29463 0.7764 0.22623 0.0
C1082 C 0.5291 -0.00216 0.46508 0.0
C1083 C 0.5055 0.98037 0.48389 0.0
C1084 C 0.48395 0.02553 0.5184 0.0
C1085 C 0.50678 0.04315 0.49783 0.0
N1086 N 0.5467 0.04745 0.44358 0.0
N1087 N 0.45778 0.97758 0.52208 0.0
C1088 C 0.52816 0.02968 0.46891 0.0
C1089 C 0.48196 0.99427 0.50835 0.0
N1090 N 0.5526 0.984 0.44389 0.0
N1091 N 0.46523 0.03828 0.54935 0.0
H1092 H 0.4562 0.95439 0.51706 0.0
H1093 H 0.43833 0.98697 0.53559 0.0
H1094 H 0.46605 0.06103 0.55785 0.0
H1095 H 0.45044 0.02596 0.56924 0.0
H1096 H 0.57224 0.99516 0.43452 0.0
H1097 H 0.55346 0.96087 0.43818 0.0
H1098 H 0.56055 0.03915 0.41839 0.0
H1099 H 0.54613 0.07093 0.44461 0.0
C1100 C 0.24276 0.2279 0.74488 0.0
C1101 C 0.2272 0.24857 0.77257 0.0
C1102 C 0.27487 0.26447 0.80655 0.0
C1103 C 0.29061 0.24604 0.77571 0.0
N1104 N 0.29003 0.21427 0.71015 0.0
N1105 N 0.22778 0.28851 0.82709 0.0
C1106 C 0.27472 0.22859 0.74365 0.0
C1107 C 0.24308 0.26747 0.80265 0.0
N1108 N 0.22702 0.20773 0.71944 0.0
N1109 N 0.29026 0.27827 0.84043 0.0
H1110 H 0.20436 0.29031 0.82684 0.0
H1111 H 0.2383 0.30535 0.84557 0.0
H1112 H 0.31352 0.2763 0.84444 0.0
H1113 H 0.27985 0.28954 0.8667 0.0
H1114 H 0.23709 0.18976 0.70282 0.0
H1115 H 0.20358 0.2075 0.71746 0.0
H1116 H 0.27951 0.20419 0.68289 0.0
H1117 H 0.3134 0.21474 0.70708 0.0
C1118 C 0.98294 0.02619 0.03757 0.0
C1119 C 0.98012 0.03766 0.99344 0.0
C1120 C 0.97547 0.98646 0.96398 0.0
C1121 C 0.98196 0.97502 0.00718 0.0
N1122 N 0.99477 0.98327 0.08461 0.0
N1123 N 0.97509 0.02956 0.91406 0.0
C1124 C 0.98608 0.99464 0.04405 0.0
C1125 C 0.97672 0.01802 0.95643 0.0
N1126 N 0.98287 0.04545 0.07321 0.0
N1127 N 0.96723 0.9671 0.9306 0.0
H1128 H 0.97422 0.05262 0.90739 0.0
H1129 H 0.97627 0.01645 0.88531 0.0
H1130 H 0.96574 0.94385 0.9353 0.0
H1131 H 0.95932 0.97409 0.89951 0.0
H1132 H 0.98125 0.03832 0.1063 0.0
H1133 H 0.98235 0.06883 0.06983 0.0
H1134 H 0.00174 -0.00343 0.1113 0.0
H1135 H -0.00284 0.96029 0.09087 0.0
C1136 C 0.7645 0.72803 0.7888 0.0
C1137 C 0.7794 0.75225 0.76714 0.0
C1138 C 0.73089 0.77628 0.75134 0.0
C1139 C 0.7161 0.7501 0.76737 0.0
N1140 N 0.71801 0.70033 0.79974 0.0
N1141 N 0.77723 0.79794 0.72324 0.0
C1142 C 0.73268 0.72576 0.78577 0.0
C1143 C 0.76278 0.77625 0.74769 0.0
N1144 N 0.78082 0.70774 0.81332 0.0
N1145 N 0.71447 0.80107 0.73934 0.0
H1146 H 0.80053 0.79869 0.7193 0.0
H1147 H 0.76604 0.81389 0.70382 0.0
H1148 H 0.69101 0.80159 0.74011 0.0
H1149 H 0.72408 0.82191 0.73206 0.0
H1150 H 0.77116 0.69122 0.83345 0.0
H1151 H 0.80416 0.70917 0.81688 0.0
H1152 H 0.72898 0.68043 0.80839 0.0
H1153 H 0.69459 0.6985 0.80036 0.0
C1154 C 0.72379 0.22656 0.33098 0.0
C1155 C 0.71459 0.24774 0.29806 0.0
C1156 C 0.76575 0.26758 0.29266 0.0
C1157 C 0.775 0.24619 0.32512 0.0
N1158 N 0.76265 0.21048 0.38291 0.0
N1159 N 0.72419 0.29314 0.25615 0.0
C1160 C 0.75385 0.2275 0.34708 0.0
C1161 C 0.73481 0.26978 0.28155 0.0
N1162 N 0.70444 0.20442 0.34467 0.0
N1163 N 0.78672 0.28515 0.27159 0.0
H1164 H 0.70147 0.29557 0.24799 0.0
H1165 H 0.73725 0.31153 0.24657 0.0
H1166 H 0.80939 0.2853 0.28069 0.0
H1167 H 0.78202 0.29844 0.24374 0.0
H1168 H 0.71089 0.18629 0.36461 0.0
H1169 H 0.68224 0.20283 0.33356 0.0
H1170 H 0.74771 0.1986 0.40314 0.0
H1171 H 0.78474 0.21033 0.39483 0.0
C1172 C 0.71998 0.25575 0.756 0.0
C1173 C 0.70069 0.26751 0.78948 0.0
C1174 C 0.74461 0.28543 0.83137 0.0
C1175 C 0.76379 0.27007 0.80102 0.0
N1176 N 0.76938 0.23636 0.73821 0.0
N1177 N 0.69437 0.29012 0.86217 0.0
C1178 C 0.75142 0.25419 0.76417 0.0
C1179 C 0.71289 0.28159 0.82797 0.0
N1180 N 0.70834 0.24686 0.7158 0.0
N1181 N 0.75661 0.30453 0.86244 0.0
H1182 H 0.67103 0.28767 0.86103 0.0
H1183 H 0.70232 0.2973 0.89314 0.0
H1184 H 0.77969 0.30847 0.86534 0.0
H1185 H 0.74361 0.31867 0.88237 0.0
H1186 H 0.72165 0.24103 0.68849 0.0
H1187 H 0.68546 0.24829 0.70818 0.0
H1188 H 0.76097 0.22167 0.71412 0.0
H1189 H 0.79245 0.234 0.74345 0.0
C1190 C 0.75168 0.72457 0.19309 0.0
C1191 C 0.77041 0.74672 0.21294 0.0
C1192 C 0.72615 0.77384 0.24027 0.0
C1193 C 0.7074 0.75297 0.2176 0.0
N1194 N 0.70175 0.7114 0.16655 0.0
N1195 N 0.77593 0.79553 0.2474 0.0
C1196 C 0.72 0.72912 0.1923 0.0
C1197 C 0.75779 0.77226 0.23427 0.0
N1198 N 0.76408 0.69869 0.17655 0.0
N1199 N 0.71388 0.79431 0.26912 0.0
H1200 H 0.79925 0.79541 0.24316 0.0
H1201 H 0.76767 0.81613 0.25864 0.0
H1202 H 0.69079 0.79609 0.27492 0.0
H1203 H 0.72671 0.80775 0.29036 0.0
H1204 H 0.7514 0.68026 0.16612 0.0
H1205 H 0.78721 0.69457 0.17654 0.0
H1206 H 0.70985 0.6957 0.14371 0.0
H1207 H 0.67843 0.71415 0.16521 0.0
C1208 C 0.54502 0.49482 0.99197 0.0
C1209 C 0.52818 0.47677 0.02202 0.0
C1210 C 0.50187 0.52156 0.04919 0.0
C1211 C 0.51547 0.53876 0.01477 0.0
N1212 N 0.54677 0.5408 0.94862 0.0
N1213 N 0.48654 0.47204 0.07376 0.0
C1214 C 0.5364 0.52525 0.985 0.0
C1215 C 0.50563 0.48986 0.04947 0.0
N1216 N 0.5696 0.48305 0.97077 0.0
N1217 N 0.48587 0.53558 0.08218 0.0
H1218 H 0.48753 0.44858 0.07374 0.0
H1219 H 0.46773 0.4804 0.09044 0.0
H1220 H 0.48313 0.55891 0.0835 0.0
H1221 H 0.47802 0.52443 0.11056 0.0
H1222 H 0.58453 0.49602 0.95202 0.0
H1223 H 0.57673 0.46087 0.97546 0.0
H1224 H 0.55937 0.53087 0.92325 0.0
H1225 H 0.54058 0.56292 0.94145 0.0
C1226 C 0.00397 0.48585 0.53544 0.0
C1227 C 0.01726 0.46863 0.50089 0.0
C1228 C 0.02495 0.51402 0.45552 0.0
C1229 C 0.01097 0.53125 0.48966 0.0
N1230 N 0.99101 0.53491 0.56479 0.0
N1231 N 0.04483 0.46557 0.43175 0.0
C1232 C 0.00187 0.51759 0.53061 0.0
C1233 C 0.02929 0.48255 0.46211 0.0
N1234 N 0.99241 0.47153 0.57222 0.0
N1235 N 0.03362 0.52778 0.41663 0.0
H1236 H 0.0477 0.44236 0.43512 0.0
H1237 H 0.05657 0.4744 0.40468 0.0
H1238 H 0.03266 0.55104 0.41188 0.0
H1239 H 0.04081 0.51634 0.38827 0.0
H1240 H 0.97875 0.48185 0.59592 0.0
H1241 H 0.99551 0.44859 0.57837 0.0
H1242 H 0.98775 0.5271 0.59723 0.0
H1243 H 0.98648 0.55778 0.56172 0.0
C1244 C 0.03839 0.49008 0.9717 0.0
C1245 C 0.01468 0.47111 0.98645 0.0
C1246 C 0.9893 0.51393 0.02162 0.0
C1247 C 0.0136 0.53275 0.0084 0.0
N1248 N 0.06297 0.53883 0.97596 0.0
N1249 N 0.97036 0.46307 0.03139 0.0
C1250 C 0.03877 0.52079 0.98518 0.0
C1251 C 0.99082 0.48252 0.01294 0.0
N1252 N 0.05975 0.47899 0.94318 0.0
N1253 N 0.9647 0.52611 0.04239 0.0
H1254 H 0.97075 0.43988 0.02584 0.0
H1255 H 0.95438 0.46936 0.05504 0.0
H1256 H 0.96363 0.5485 0.05271 0.0
H1257 H 0.94463 0.5145 0.04751 0.0
H1258 H 0.07575 0.49227 0.92713 0.0
H1259 H 0.06024 0.45656 0.93284 0.0
H1260 H 0.08341 0.5308 0.96385 0.0
H1261 H 0.06339 0.56183 0.98294 0.0
C1262 C 0.48776 0.4686 0.53701 0.0
C1263 C 0.50798 0.4505 0.512 0.0
C1264 C 0.53169 0.49569 0.48068 0.0
C1265 C 0.51216 0.51374 0.50691 0.0
N1266 N 0.47695 0.51786 0.56785 0.0
N1267 N 0.55345 0.4463 0.46845 0.0
C1268 C 0.49189 0.5003 0.53762 0.0
C1269 C 0.53131 0.46392 0.48643 0.0
N1270 N 0.46359 0.45578 0.55805 0.0
N1271 N 0.54943 0.5087 0.44867 0.0
H1272 H 0.55401 0.42295 0.47242 0.0
H1273 H 0.5727 0.45499 0.4533 0.0
H1274 H 0.55049 0.53191 0.44346 0.0
H1275 H 0.56141 0.4964 0.42499 0.0
H1276 H 0.44626 0.46826 0.57239 0.0
H1277 H 0.45935 0.43269 0.55796 0.0
H1278 H 0.46421 0.50912 0.59406 0.0
H1279 H 0.47969 0.54118 0.56937 0.0
C1280 C 0.04754 0.28529 0.09493 0.0
C1281 C 0.06003 0.31341 0.08177 0.0
C1282 C 0.08603 0.31716 0.15377 0.0
C1283 C 0.07647 0.28756 0.16475 0.0
N1284 N 0.05233 0.24123 0.14244 0.0
N1285 N 0.09669 0.35271 0.09462 0.0
C1286 C 0.05834 0.27096 0.13443 0.0
C1287 C 0.08082 0.32844 0.11007 0.0
N1288 N 0.02456 0.27282 0.07082 0.0
N1289 N 0.09905 0.33503 0.18556 0.0
H1290 H 0.09459 0.36102 0.06214 0.0
H1291 H 0.11431 0.36253 0.11242 0.0
H1292 H 0.10235 0.32807 0.21853 0.0
H1293 H 0.10361 0.35781 0.18048 0.0
H1294 H 0.01284 0.25372 0.08112 0.0
H1295 H 0.01529 0.28304 0.04257 0.0
H1296 H 0.04201 0.22718 0.11917 0.0
H1297 H 0.06009 0.22984 0.17071 0.0
C1298 C 0.93713 0.77587 0.30497 0.0
C1299 C 0.91446 0.78922 0.27782 0.0
C1300 C 0.91458 0.83411 0.32546 0.0
C1301 C 0.9352 0.81974 0.35474 0.0
N1302 N 0.96282 0.77522 0.37659 0.0
N1303 N 0.87809 0.82903 0.26597 0.0
C1304 C 0.94579 0.7902 0.34553 0.0
C1305 C 0.90201 0.81765 0.28933 0.0
N1306 N 0.95019 0.74934 0.29224 0.0
N1307 N 0.90821 0.86405 0.33075 0.0
H1308 H 0.86884 0.81857 0.23807 0.0
H1309 H 0.86581 0.84773 0.27637 0.0
H1310 H 0.91764 0.87719 0.35602 0.0
H1311 H 0.89603 0.87666 0.30758 0.0
H1312 H 0.96935 0.7405 0.30739 0.0
H1313 H 0.9429 0.73682 0.26485 0.0
H1314 H 0.96848 0.75253 0.37416 0.0
H1315 H 0.96931 0.78471 0.40695 0.0
C1316 C 0.42294 0.68179 0.62816 0.0
C1317 C 0.41789 0.66399 0.66682 0.0
C1318 C 0.44974 0.62382 0.6364 0.0
C1319 C 0.45305 0.64069 0.5963 0.0
N1320 N 0.43999 0.68405 0.55128 0.0
N1321 N 0.42162 0.61623 0.70493 0.0
C1322 C 0.43869 0.66913 0.59129 0.0
C1323 C 0.43011 0.63455 0.67032 0.0
N1324 N 0.41388 0.71125 0.62751 0.0
N1325 N 0.46516 0.59741 0.64202 0.0
H1326 H 0.40667 0.623 0.72982 0.0
H1327 H 0.42706 0.59346 0.70696 0.0
H1328 H 0.47799 0.58747 0.61692 0.0
H1329 H 0.46678 0.58617 0.67251 0.0
H1330 H 0.41989 0.72648 0.60255 0.0
H1331 H 0.4023 0.72131 0.65389 0.0
H1332 H 0.427 0.70292 0.54381 0.0
H1333 H 0.45265 0.67654 0.52422 0.0
C1334 C 0.54259 0.15828 0.87092 0.0
C1335 C 0.57375 0.16136 0.86138 0.0
C1336 C 0.58666 0.13796 0.9332 0.0
C1337 C 0.5555 0.13414 0.94227 0.0
N1338 N 0.50377 0.136 0.91732 0.0
N1339 N 0.62533 0.1488 0.87821 0.0
C1340 C 0.53346 0.14267 0.91021 0.0
C1341 C 0.59579 0.14976 0.89113 0.0
N1342 N 0.52176 0.17168 0.84365 0.0
N1343 N 0.60757 0.13032 0.96486 0.0
H1344 H 0.63278 0.15674 0.84729 0.0
H1345 H 0.64213 0.13777 0.89617 0.0
H1346 H 0.60213 0.11909 0.99442 0.0
H1347 H 0.6302 0.1363 0.96292 0.0
H1348 H 0.49902 0.17361 0.85154 0.0
H1349 H 0.52745 0.18295 0.81429 0.0
H1350 H 0.48717 0.13826 0.89295 0.0
H1351 H 0.49577 0.12618 0.94664 0.0
C1352 C 0.055 0.71652 0.43205 0.0
C1353 C 0.02945 0.69794 0.42461 0.0
C1354 C 0.02946 0.71184 0.34544 0.0
C1355 C 0.0532 0.73255 0.35372 0.0
N1356 N 0.08475 0.75894 0.40632 0.0
N1357 N 0.98834 0.68295 0.37677 0.0
C1358 C 0.06483 0.73621 0.39753 0.0
C1359 C 0.01544 0.69712 0.38205 0.0
N1360 N 0.0707 0.71442 0.47129 0.0
N1361 N 0.02145 0.70476 0.30258 0.0
H1362 H 0.97719 0.67214 0.40296 0.0
H1363 H 0.97562 0.68445 0.34756 0.0
H1364 H 0.03162 0.71424 0.27448 0.0
H1365 H 0.00668 0.68731 0.29484 0.0
H1366 H 0.09123 0.72514 0.47673 0.0
H1367 H 0.06455 0.69997 0.49726 0.0
H1368 H 0.09199 0.76442 0.4384 0.0
H1369 H 0.09194 0.77417 0.38195 0.0
C1370 C 0.56801 0.80198 0.65114 0.0
C1371 C 0.59809 0.80722 0.66541 0.0
C1372 C 0.60677 0.83988 0.60056 0.0
C1373 C 0.57735 0.83325 0.58493 0.0
N1374 N 0.53196 0.80366 0.59022 0.0
N1375 N 0.64803 0.82548 0.64913 0.0
C1376 C 0.55851 0.81303 0.60876 0.0
C1377 C 0.61804 0.82454 0.63876 0.0
N1378 N 0.54815 0.7876 0.67879 0.0
N1379 N 0.62352 0.86175 0.58003 0.0
H1380 H 0.65719 0.81397 0.67635 0.0
H1381 H 0.66423 0.83512 0.62841 0.0
H1382 H 0.61602 0.87371 0.5521 0.0
H1383 H 0.64371 0.86993 0.59291 0.0
H1384 H 0.5251 0.78637 0.67256 0.0
H1385 H 0.55422 0.77878 0.7098 0.0
H1386 H 0.51883 0.78643 0.6036 0.0
H1387 H 0.52427 0.81131 0.55925 0.0
C1388 C 0.46497 0.30441 0.84354 0.0
C1389 C 0.45036 0.32208 0.81051 0.0
C1390 C 0.47117 0.36786 0.84408 0.0
C1391 C 0.48089 0.35068 0.88142 0.0
N1392 N 0.48568 0.30238 0.91824 0.0
N1393 N 0.43801 0.37093 0.77993 0.0
C1394 C 0.47786 0.31882 0.88136 0.0
C1395 C 0.45338 0.3539 0.8105 0.0
N1396 N 0.46716 0.27392 0.83812 0.0
N1397 N 0.47951 0.3974 0.8404 0.0
H1398 H 0.42464 0.36166 0.75482 0.0
H1399 H 0.43661 0.39432 0.78152 0.0
H1400 H 0.49304 0.40807 0.86411 0.0
H1401 H 0.4757 0.41034 0.81187 0.0
H1402 H 0.48029 0.26019 0.85861 0.0
H1403 H 0.4583 0.26273 0.81042 0.0
H1404 H 0.48038 0.27967 0.92214 0.0
H1405 H 0.49567 0.31178 0.94641 0.0
C1406 C 0.925 0.22793 0.15069 0.0
C1407 C 0.91662 0.20735 0.18485 0.0
C1408 C 0.9187 0.16574 0.13153 0.0
C1409 C 0.92994 0.18576 0.09845 0.0
N1410 N 0.94973 0.23479 0.07927 0.0
N1411 N 0.91264 0.15591 0.21052 0.0
C1412 C 0.9348 0.21659 0.10875 0.0
C1413 C 0.91561 0.176 0.17609 0.0
N1414 N 0.92239 0.25826 0.15752 0.0
N1415 N 0.90949 0.13738 0.1201 0.0
H1416 H 0.91121 0.16251 0.24391 0.0
H1417 H 0.91482 0.13271 0.20641 0.0
H1418 H 0.91 0.12927 0.08742 0.0
H1419 H 0.89832 0.12305 0.14219 0.0
H1420 H 0.92506 0.27415 0.13216 0.0
H1421 H 0.91483 0.26747 0.18751 0.0
H1422 H 0.95637 0.25669 0.08693 0.0
H1423 H 0.95808 0.22716 0.04874 0.0
C1424 C 0.97222 0.67397 0.85454 0.0
C1425 C 0.96219 0.6784 0.89909 0.0
C1426 C 0.91419 0.69853 0.87175 0.0
C1427 C 0.92428 0.69418 0.82728 0.0
N1428 N 0.96542 0.68622 0.77614 0.0
N1429 N 0.92773 0.70233 0.95011 0.0
C1430 C 0.95417 0.6846 0.81862 0.0
C1431 C 0.93442 0.69309 0.90768 0.0
N1432 N -0.00197 0.65813 0.84636 0.0
N1433 N 0.88492 0.70636 0.87979 0.0
H1434 H 0.94238 0.69913 0.97701 0.0
H1435 H 0.90919 0.71571 0.95784 0.0
H1436 H 0.86947 0.71086 0.85436 0.0
H1437 H 0.87535 0.70638 0.91156 0.0
H1438 H 0.00455 0.65122 0.81454 0.0
H1439 H 0.01191 0.6498 0.87163 0.0
H1440 H 0.98793 0.68226 0.76837 0.0
H1441 H 0.95291 0.69457 0.74931 0.0
C1442 C 0.06551 0.2188 0.6286 0.0
C1443 C 0.08614 0.20483 0.65831 0.0
C1444 C 0.09159 0.16258 0.60641 0.0
C1445 C 0.06791 0.17447 0.57987 0.0
N1446 N 0.02902 0.21195 0.56933 0.0
N1447 N 0.11434 0.16044 0.6797 0.0
C1448 C 0.05403 0.20217 0.59174 0.0
C1449 C 0.09807 0.17593 0.64836 0.0
N1450 N 0.05753 0.24823 0.63481 0.0
N1451 N 0.10869 0.13923 0.59088 0.0
H1452 H 0.11884 0.16878 0.71157 0.0
H1453 H 0.12073 0.13803 0.6757 0.0
H1454 H 0.10542 0.12949 0.55954 0.0
H1455 H 0.12812 0.13174 0.60697 0.0
H1456 H 0.04532 0.26057 0.61132 0.0
H1457 H 0.06562 0.26117 0.6613 0.0
H1458 H 0.01617 0.2303 0.57963 0.0
H1459 H 0.01942 0.20018 0.54278 0.0
C1460 C 0.53806 0.29239 0.42438 0.0
C1461 C 0.5231 0.31982 0.4144 0.0
C1462 C 0.54388 0.31851 0.33872 0.0
C1463 C 0.56298 0.29442 0.35157 0.0
N1464 N 0.58086 0.26043 0.40901 0.0
N1465 N 0.51456 0.36124 0.36332 0.0
C1466 C 0.56066 0.28168 0.39495 0.0
C1467 C 0.5265 0.33343 0.37174 0.0
N1468 N 0.53008 0.27609 0.46131 0.0
N1469 N 0.54163 0.3265 0.29474 0.0
H1470 H 0.50223 0.37337 0.38681 0.0
H1471 H 0.51922 0.37346 0.33436 0.0
H1472 H 0.55301 0.31496 0.26957 0.0
H1473 H 0.526 0.34208 0.28284 0.0
H1474 H 0.53801 0.25441 0.46743 0.0
H1475 H 0.51304 0.28276 0.4831 0.0
H1476 H 0.58205 0.25289 0.44197 0.0
H1477 H 0.59816 0.25219 0.38893 0.0
C1478 C 0.41045 0.76889 0.07511 0.0
C1479 C 0.39905 0.79812 0.06581 0.0
C1480 C 0.38981 0.80628 0.1455 0.0
C1481 C 0.39806 0.77596 0.15426 0.0
N1482 N 0.41201 0.7268 0.12673 0.0
N1483 N 0.37253 0.84249 0.09069 0.0
C1484 C 0.40732 0.75679 0.11891 0.0
C1485 C 0.38721 0.81623 0.10061 0.0
N1486 N 0.42533 0.75315 0.04268 0.0
N1487 N 0.38576 0.82599 0.18008 0.0
H1488 H 0.36957 0.8503 0.05807 0.0
H1489 H 0.36071 0.85497 0.11435 0.0
H1490 H 0.38844 0.81989 0.21353 0.0
H1491 H 0.38283 0.84907 0.17549 0.0
H1492 H 0.43735 0.73346 0.04907 0.0
H1493 H 0.42773 0.76096 0.01 0.0
H1494 H 0.41558 0.71116 0.10138 0.0
H1495 H 0.40992 0.71702 0.15828 0.0
C1496 C 0.96693 0.30985 0.64029 0.0
C1497 C 0.95123 0.32772 0.60859 0.0
C1498 C 0.90821 0.33126 0.65953 0.0
C1499 C 0.92257 0.31079 0.68915 0.0
N1500 N 0.96318 0.27578 0.70334 0.0
N1501 N 0.90434 0.34968 0.58363 0.0
C1502 C 0.95132 0.29875 0.6784 0.0
C1503 C 0.92111 0.33681 0.61692 0.0
N1504 N -0.00301 0.30436 0.63494 0.0
N1505 N 0.883 0.34652 0.67272 0.0
H1506 H 0.91259 0.35339 0.55145 0.0
H1507 H 0.88133 0.35381 0.58659 0.0
H1508 H 0.87334 0.344 0.70427 0.0
H1509 H 0.87352 0.36397 0.65411 0.0
H1510 H 0.01028 0.29451 0.65969 0.0
H1511 H 0.00927 0.31219 0.60756 0.0
H1512 H 0.98263 0.26417 0.69432 0.0
H1513 H 0.95205 0.26625 0.7306 0.0
C1514 C 0.47017 0.2325 0.34023 0.0
C1515 C 0.43962 0.22523 0.3312 0.0
C1516 C 0.43555 0.20139 0.40489 0.0
C1517 C 0.46708 0.20432 0.41062 0.0
N1518 N 0.51535 0.21995 0.38175 0.0
N1519 N 0.3945 0.198 0.35221 0.0
C1520 C 0.48469 0.21941 0.37797 0.0
C1521 C 0.42248 0.20865 0.36295 0.0
N1522 N 0.48508 0.25245 0.31333 0.0
N1523 N 0.41796 0.19215 0.43982 0.0
H1524 H 0.38429 0.20151 0.32127 0.0
H1525 H 0.3826 0.18305 0.37246 0.0
H1526 H 0.42672 0.18709 0.47134 0.0
H1527 H 0.39451 0.19258 0.43887 0.0
H1528 H 0.50644 0.26078 0.32065 0.0
H1529 H 0.47491 0.26294 0.28597 0.0
H1530 H 0.5295 0.22734 0.35623 0.0
H1531 H 0.52682 0.21077 0.40898 0.0
C1532 C 0.56531 0.72316 0.06102 0.0
C1533 C 0.53621 0.71042 0.06669 0.0
C1534 C 0.5347 0.72817 0.14424 0.0
C1535 C 0.56371 0.74099 0.13842 0.0
N1536 N 0.60405 0.7565 0.08955 0.0
N1537 N 0.49053 0.706 0.10958 0.0
C1538 C 0.57804 0.74059 0.09608 0.0
C1539 C 0.52007 0.71452 0.10714 0.0
N1540 N 0.58171 0.71684 0.02346 0.0
N1541 N 0.52142 0.72866 0.18549 0.0
H1542 H 0.47919 0.6961 0.08286 0.0
H1543 H 0.47652 0.71093 0.13647 0.0
H1544 H 0.53056 0.74032 0.21255 0.0
H1545 H 0.5021 0.71655 0.19357 0.0
H1546 H 0.60434 0.7224 0.01971 0.0
H1547 H 0.57353 0.70393 0.99705 0.0
H1548 H 0.61363 0.75999 0.0582 0.0
H1549 H 0.61491 0.76832 0.11494 0.0
C1550 C 0.08226 0.83346 0.82653 0.0
C1551 C 0.06539 0.80938 0.8079 0.0
C1552 C 0.03087 0.81097 0.87164 0.0
C1553 C 0.04986 0.83234 0.89273 0.0
N1554 N 0.09627 0.86061 0.89357 0.0
N1555 N 0.02703 0.77118 0.81702 0.0
C1556 C 0.0763 0.84274 0.87108 0.0
C1557 C 0.04057 0.79702 0.83156 0.0
N1558 N 0.10316 0.84827 0.80112 0.0
N1559 N 0.003 0.80491 0.88881 0.0
H1560 H 0.03389 0.7597 0.78849 0.0
H1561 H 0.01101 0.75948 0.83567 0.0
H1562 H 0.99458 0.81561 0.91714 0.0
H1563 H 0.98705 0.79177 0.87231 0.0
H1564 H 0.11389 0.86793 0.81146 0.0
H1565 H 0.10762 0.8427 0.76792 0.0
H1566 H 0.11746 0.86617 0.88112 0.0
H1567 H 0.09285 0.86767 0.92641 0.0
loop_
_geom_bond_atom_site_label_1
_geom_bond_atom_site_label_2
_geom_bond_distance
_geom_bond_site_symmetry_2
_ccdc_geom_bond_type
C0 O1 1.160 . S
C0 O7 1.185 . S
O1 C0 1.160 . S
O2 Zn3 1.899 . S
O2 C10 1.284 . S
Zn3 O2 1.899 . S
Zn3 O4 2.032 . S
Zn3 O7 2.086 . S
Zn3 O12 1.977 . S
O4 Zn3 2.032 . S
O4 C8 1.278 . S
C5 O6 1.203 . S
C5 O12 1.267 . S
O6 C5 1.203 . S
O7 C0 1.185 . S
O7 Zn3 2.086 . S
C8 O4 1.278 . S
C8 O9 1.211 . S
O9 C8 1.211 . S
C10 O2 1.284 . S
C10 O11 1.273 . S
O11 C10 1.273 . S
O12 Zn3 1.977 . S
O12 C5 1.267 . S
C13 O14 1.160 1_655 S
C13 O20 1.185 . S
O14 C13 1.160 1_455 S
O15 Zn16 1.899 1_455 S
O15 C23 1.284 . S
Zn16 O15 1.899 1_655 S
Zn16 O17 2.032 . S
Zn16 O20 2.086 . S
Zn16 O25 1.977 . S
O17 Zn16 2.032 . S
O17 C21 1.278 . S
C18 O19 1.203 . S
C18 O25 1.267 . S
O19 C18 1.203 . S
O20 C13 1.185 . S
O20 Zn16 2.086 . S
C21 O17 1.278 . S
C21 O22 1.211 . S
O22 C21 1.211 . S
C23 O15 1.284 . S
C23 O24 1.273 . S
O24 C23 1.273 . S
O25 Zn16 1.977 . S
O25 C18 1.267 . S
C26 O27 1.160 . S
C26 O33 1.185 . S
O27 C26 1.160 . S
O28 Zn29 1.899 . S
O28 C36 1.284 . S
Zn29 O28 1.899 . S
Zn29 O30 2.032 . S
Zn29 O33 2.086 . S
Zn29 O38 1.977 . S
O30 Zn29 2.032 . S
O30 C34 1.278 . S
C31 O32 1.203 . S
C31 O38 1.267 . S
O32 C31 1.203 . S
O33 C26 1.185 . S
O33 Zn29 2.086 . S
C34 O30 1.278 . S
C34 O35 1.211 . S
O35 C34 1.211 . S
C36 O28 1.284 . S
C36 O37 1.273 . S
O37 C36 1.273 . S
O38 Zn29 1.977 . S
O38 C31 1.267 . S
C39 O40 1.160 . S
C39 O46 1.185 . S
O40 C39 1.160 . S
O41 Zn42 1.899 . S
O41 C49 1.284 . S
Zn42 O41 1.899 . S
Zn42 O43 2.032 1_554 S
Zn42 O46 2.086 . S
Zn42 O51 1.977 . S
O43 Zn42 2.032 1_556 S
O43 C47 1.278 . S
C44 O45 1.203 . S
C44 O51 1.267 . S
O45 C44 1.203 . S
O46 C39 1.185 . S
O46 Zn42 2.086 . S
C47 O43 1.278 . S
C47 O48 1.211 . S
O48 C47 1.211 . S
C49 O41 1.284 . S
C49 O50 1.273 . S
O50 C49 1.273 . S
O51 Zn42 1.977 . S
O51 C44 1.267 . S
C52 O53 1.160 . S
C52 O59 1.185 . S
O53 C52 1.160 . S
O54 Zn55 1.899 . S
O54 C62 1.284 . S
Zn55 O54 1.899 . S
Zn55 O56 2.032 . S
Zn55 O59 2.086 . S
Zn55 O64 1.977 . S
O56 Zn55 2.032 . S
O56 C60 1.278 . S
C57 O58 1.203 . S
C57 O64 1.267 . S
O58 C57 1.203 . S
O59 C52 1.185 . S
O59 Zn55 2.086 . S
C60 O56 1.278 . S
C60 O61 1.211 . S
O61 C60 1.211 . S
C62 O54 1.284 . S
C62 O63 1.273 . S
O63 C62 1.273 . S
O64 Zn55 1.977 . S
O64 C57 1.267 . S
C65 O66 1.160 . S
C65 O72 1.185 . S
O66 C65 1.160 . S
O67 Zn68 1.899 . S
O67 C75 1.284 . S
Zn68 O67 1.899 . S
Zn68 O69 2.032 . S
Zn68 O72 2.086 . S
Zn68 O77 1.977 . S
O69 Zn68 2.032 . S
O69 C73 1.278 . S
C70 O71 1.203 . S
C70 O77 1.267 . S
O71 C70 1.203 . S
O72 C65 1.185 . S
O72 Zn68 2.086 . S
C73 O69 1.278 . S
C73 O74 1.211 . S
O74 C73 1.211 . S
C75 O67 1.284 . S
C75 O76 1.273 . S
O76 C75 1.273 . S
O77 Zn68 1.977 . S
O77 C70 1.267 . S
C78 O79 1.160 . S
C78 O85 1.185 . S
O79 C78 1.160 . S
O80 Zn81 1.899 . S
O80 C88 1.284 . S
Zn81 O80 1.899 . S
Zn81 O82 2.032 . S
Zn81 O85 2.086 . S
Zn81 O90 1.977 . S
O82 Zn81 2.032 . S
O82 C86 1.278 . S
C83 O84 1.203 . S
C83 O90 1.267 . S
O84 C83 1.203 . S
O85 C78 1.185 . S
O85 Zn81 2.086 . S
C86 O82 1.278 . S
C86 O87 1.211 . S
O87 C86 1.211 . S
C88 O80 1.284 . S
C88 O89 1.273 . S
O89 C88 1.273 . S
O90 Zn81 1.977 . S
O90 C83 1.267 . S
C91 O92 1.160 1_655 S
C91 O98 1.185 . S
O92 C91 1.160 1_455 S
O93 Zn94 1.899 1_455 S
O93 C101 1.284 . S
Zn94 O93 1.899 1_655 S
Zn94 O95 2.032 1_556 S
Zn94 O98 2.086 . S
Zn94 O103 1.977 . S
O95 Zn94 2.032 1_554 S
O95 C99 1.278 . S
C96 O97 1.203 . S
C96 O103 1.267 . S
O97 C96 1.203 . S
O98 C91 1.185 . S
O98 Zn94 2.086 . S
C99 O95 1.278 . S
C99 O100 1.211 . S
O100 C99 1.211 . S
C101 O93 1.284 . S
C101 O102 1.273 . S
O102 C101 1.273 . S
O103 Zn94 1.977 . S
O103 C96 1.267 . S
C104 O105 1.160 . S
C104 O111 1.185 . S
O105 C104 1.160 . S
O106 Zn107 1.899 . S
O106 C114 1.284 . S
Zn107 O106 1.899 . S
Zn107 O108 2.032 . S
Zn107 O111 2.086 . S
Zn107 O116 1.977 . S
O108 Zn107 2.032 . S
O108 C112 1.278 . S
C109 O110 1.203 . S
C109 O116 1.267 . S
O110 C109 1.203 . S
O111 C104 1.185 . S
O111 Zn107 2.086 . S
C112 O108 1.278 . S
C112 O113 1.211 . S
O113 C112 1.211 . S
C114 O106 1.284 . S
C114 O115 1.273 . S
O115 C114 1.273 . S
O116 Zn107 1.977 . S
O116 C109 1.267 . S
C117 O118 1.160 1_455 S
C117 O124 1.185 . S
O118 C117 1.160 1_655 S
O119 Zn120 1.899 1_655 S
O119 C127 1.284 . S
Zn120 O119 1.899 1_455 S
Zn120 O121 2.032 . S
Zn120 O124 2.086 . S
Zn120 O129 1.977 . S
O121 Zn120 2.032 . S
O121 C125 1.278 . S
C122 O123 1.203 . S
C122 O129 1.267 . S
O123 C122 1.203 . S
O124 C117 1.185 . S
O124 Zn120 2.086 . S
C125 O121 1.278 . S
C125 O126 1.211 . S
O126 C125 1.211 . S
C127 O119 1.284 . S
C127 O128 1.273 . S
O128 C127 1.273 . S
O129 Zn120 1.977 . S
O129 C122 1.267 . S
C130 O131 1.160 . S
C130 O137 1.185 . S
O131 C130 1.160 . S
O132 Zn133 1.899 . S
O132 C140 1.284 . S
Zn133 O132 1.899 . S
Zn133 O134 2.032 . S
Zn133 O137 2.086 . S
Zn133 O142 1.977 . S
O134 Zn133 2.032 . S
O134 C138 1.278 . S
C135 O136 1.203 . S
C135 O142 1.267 . S
O136 C135 1.203 . S
O137 C130 1.185 . S
O137 Zn133 2.086 . S
C138 O134 1.278 . S
C138 O139 1.211 . S
O139 C138 1.211 . S
C140 O132 1.284 . S
C140 O141 1.273 . S
O141 C140 1.273 . S
O142 Zn133 1.977 . S
O142 C135 1.267 . S
C143 O144 1.160 . S
C143 O150 1.185 . S
O144 C143 1.160 . S
O145 Zn146 1.899 . S
O145 C153 1.284 . S
Zn146 O145 1.899 . S
Zn146 O147 2.032 1_556 S
Zn146 O150 2.086 . S
Zn146 O155 1.977 . S
O147 Zn146 2.032 1_554 S
O147 C151 1.278 . S
C148 O149 1.203 . S
C148 O155 1.267 . S
O149 C148 1.203 . S
O150 C143 1.185 . S
O150 Zn146 2.086 . S
C151 O147 1.278 . S
C151 O152 1.211 . S
O152 C151 1.211 . S
C153 O145 1.284 . S
C153 O154 1.273 . S
O154 C153 1.273 . S
O155 Zn146 1.977 . S
O155 C148 1.267 . S
C156 O157 1.160 . S
C156 O163 1.185 . S
O157 C156 1.160 . S
O158 Zn159 1.899 . S
O158 C166 1.284 . S
Zn159 O158 1.899 . S
Zn159 O160 2.032 . S
Zn159 O163 2.086 . S
Zn159 O168 1.977 . S
O160 Zn159 2.032 . S
O160 C164 1.278 . S
C161 O162 1.203 . S
C161 O168 1.267 . S
O162 C161 1.203 . S
O163 C156 1.185 . S
O163 Zn159 2.086 . S
C164 O160 1.278 . S
C164 O165 1.211 . S
O165 C164 1.211 . S
C166 O158 1.284 . S
C166 O167 1.273 . S
O167 C166 1.273 . S
O168 Zn159 1.977 . S
O168 C161 1.267 . S
C169 O170 1.160 . S
C169 O176 1.185 . S
O170 C169 1.160 . S
O171 Zn172 1.899 . S
O171 C179 1.284 . S
Zn172 O171 1.899 . S
Zn172 O173 2.032 . S
Zn172 O176 2.086 . S
Zn172 O181 1.977 . S
O173 Zn172 2.032 . S
O173 C177 1.278 . S
C174 O175 1.203 . S
C174 O181 1.267 . S
O175 C174 1.203 . S
O176 C169 1.185 . S
O176 Zn172 2.086 . S
C177 O173 1.278 . S
C177 O178 1.211 . S
O178 C177 1.211 . S
C179 O171 1.284 . S
C179 O180 1.273 . S
O180 C179 1.273 . S
O181 Zn172 1.977 . S
O181 C174 1.267 . S
C182 O183 1.160 . S
C182 O189 1.185 . S
O183 C182 1.160 . S
O184 Zn185 1.899 . S
O184 C192 1.284 . S
Zn185 O184 1.899 . S
Zn185 O186 2.032 . S
Zn185 O189 2.086 . S
Zn185 O194 1.977 . S
O186 Zn185 2.032 . S
O186 C190 1.278 . S
C187 O188 1.203 . S
C187 O194 1.267 . S
O188 C187 1.203 . S
O189 C182 1.185 . S
O189 Zn185 2.086 . S
C190 O186 1.278 . S
C190 O191 1.211 . S
O191 C190 1.211 . S
C192 O184 1.284 . S
C192 O193 1.273 . S
O193 C192 1.273 . S
O194 Zn185 1.977 . S
O194 C187 1.267 . S
C195 O196 1.160 1_455 S
C195 O202 1.185 . S
O196 C195 1.160 1_655 S
O197 Zn198 1.899 1_655 S
O197 C205 1.284 . S
Zn198 O197 1.899 1_455 S
Zn198 O199 2.032 1_554 S
Zn198 O202 2.086 . S
Zn198 O207 1.977 . S
O199 Zn198 2.032 1_556 S
O199 C203 1.278 . S
C200 O201 1.203 . S
C200 O207 1.267 . S
O201 C200 1.203 . S
O202 C195 1.185 . S
O202 Zn198 2.086 . S
C203 O199 1.278 . S
C203 O204 1.211 . S
O204 C203 1.211 . S
C205 O197 1.284 . S
C205 O206 1.273 . S
O206 C205 1.273 . S
O207 Zn198 1.977 . S
O207 C200 1.267 . S
C208 O209 1.160 . S
C208 O215 1.185 . S
O209 C208 1.160 . S
O210 Zn211 1.899 . S
O210 C218 1.284 . S
Zn211 O210 1.899 . S
Zn211 O212 2.032 . S
Zn211 O215 2.086 . S
Zn211 O220 1.977 . S
O212 Zn211 2.032 . S
O212 C216 1.278 . S
C213 O214 1.203 . S
C213 O220 1.267 . S
O214 C213 1.203 . S
O215 C208 1.185 . S
O215 Zn211 2.086 . S
C216 O212 1.278 . S
C216 O217 1.211 . S
O217 C216 1.211 . S
C218 O210 1.284 . S
C218 O219 1.273 . S
O219 C218 1.273 . S
O220 Zn211 1.977 . S
O220 C213 1.267 . S
C221 O222 1.160 . S
C221 O228 1.185 . S
O222 C221 1.160 . S
O223 Zn224 1.899 . S
O223 C231 1.284 . S
Zn224 O223 1.899 . S
Zn224 O225 2.032 1_554 S
Zn224 O228 2.086 . S
Zn224 O233 1.977 . S
O225 Zn224 2.032 1_556 S
O225 C229 1.278 . S
C226 O227 1.203 . S
C226 O233 1.267 . S
O227 C226 1.203 . S
O228 C221 1.185 . S
O228 Zn224 2.086 . S
C229 O225 1.278 . S
C229 O230 1.211 . S
O230 C229 1.211 . S
C231 O223 1.284 . S
C231 O232 1.273 . S
O232 C231 1.273 . S
O233 Zn224 1.977 . S
O233 C226 1.267 . S
C234 O235 1.160 . S
C234 O241 1.185 . S
O235 C234 1.160 . S
O236 Zn237 1.899 . S
O236 C244 1.284 . S
Zn237 O236 1.899 . S
Zn237 O238 2.032 . S
Zn237 O241 2.086 . S
Zn237 O246 1.977 . S
O238 Zn237 2.032 . S
O238 C242 1.278 . S
C239 O240 1.203 . S
C239 O246 1.267 . S
O240 C239 1.203 . S
O241 C234 1.185 . S
O241 Zn237 2.086 . S
C242 O238 1.278 . S
C242 O243 1.211 . S
O243 C242 1.211 . S
C244 O236 1.284 . S
C244 O245 1.273 . S
O245 C244 1.273 . S
O246 Zn237 1.977 . S
O246 C239 1.267 . S
C247 O248 1.160 1_455 S
C247 O254 1.185 . S
O248 C247 1.160 1_655 S
O249 Zn250 1.899 1_655 S
O249 C257 1.284 . S
Zn250 O249 1.899 1_455 S
Zn250 O251 2.032 . S
Zn250 O254 2.086 . S
Zn250 O259 1.977 . S
O251 Zn250 2.032 . S
O251 C255 1.278 . S
C252 O253 1.203 . S
C252 O259 1.267 . S
O253 C252 1.203 . S
O254 C247 1.185 . S
O254 Zn250 2.086 . S
C255 O251 1.278 . S
C255 O256 1.211 . S
O256 C255 1.211 . S
C257 O249 1.284 . S
C257 O258 1.273 . S
O258 C257 1.273 . S
O259 Zn250 1.977 . S
O259 C252 1.267 . S
C260 O261 1.160 . S
C260 O267 1.185 . S
O261 C260 1.160 . S
O262 Zn263 1.899 . S
O262 C270 1.284 . S
Zn263 O262 1.899 . S
Zn263 O264 2.032 . S
Zn263 O267 2.086 . S
Zn263 O272 1.977 . S
O264 Zn263 2.032 . S
O264 C268 1.278 . S
C265 O266 1.203 . S
C265 O272 1.267 . S
O266 C265 1.203 . S
O267 C260 1.185 . S
O267 Zn263 2.086 . S
C268 O264 1.278 . S
C268 O269 1.211 . S
O269 C268 1.211 . S
C270 O262 1.284 . S
C270 O271 1.273 . S
O271 C270 1.273 . S
O272 Zn263 1.977 . S
O272 C265 1.267 . S
C273 O274 1.160 1_455 S
C273 O280 1.185 . S
O274 C273 1.160 1_655 S
O275 Zn276 1.899 1_655 S
O275 C283 1.284 . S
Zn276 O275 1.899 1_455 S
Zn276 O277 2.032 1_556 S
Zn276 O280 2.086 . S
Zn276 O285 1.977 . S
O277 Zn276 2.032 1_554 S
O277 C281 1.278 . S
C278 O279 1.203 . S
C278 O285 1.267 . S
O279 C278 1.203 . S
O280 C273 1.185 . S
O280 Zn276 2.086 . S
C281 O277 1.278 . S
C281 O282 1.211 . S
O282 C281 1.211 . S
C283 O275 1.284 . S
C283 O284 1.273 . S
O284 C283 1.273 . S
O285 Zn276 1.977 . S
O285 C278 1.267 . S
C286 O287 1.160 . S
C286 O293 1.185 . S
O287 C286 1.160 . S
O288 Zn289 1.899 . S
O288 C296 1.284 . S
Zn289 O288 1.899 . S
Zn289 O290 2.032 . S
Zn289 O293 2.086 . S
Zn289 O298 1.977 . S
O290 Zn289 2.032 . S
O290 C294 1.278 . S
C291 O292 1.203 . S
C291 O298 1.267 . S
O292 C291 1.203 . S
O293 C286 1.185 . S
O293 Zn289 2.086 . S
C294 O290 1.278 . S
C294 O295 1.211 . S
O295 C294 1.211 . S
C296 O288 1.284 . S
C296 O297 1.273 . S
O297 C296 1.273 . S
O298 Zn289 1.977 . S
O298 C291 1.267 . S
C299 O300 1.160 . S
C299 O306 1.185 . S
O300 C299 1.160 . S
O301 Zn302 1.899 . S
O301 C309 1.284 . S
Zn302 O301 1.899 . S
Zn302 O303 2.032 . S
Zn302 O306 2.086 . S
Zn302 O311 1.977 . S
O303 Zn302 2.032 . S
O303 C307 1.278 . S
C304 O305 1.203 . S
C304 O311 1.267 . S
O305 C304 1.203 . S
O306 C299 1.185 . S
O306 Zn302 2.086 . S
C307 O303 1.278 . S
C307 O308 1.211 . S
O308 C307 1.211 . S
C309 O301 1.284 . S
C309 O310 1.273 . S
O310 C309 1.273 . S
O311 Zn302 1.977 . S
O311 C304 1.267 . S
C312 O313 1.160 . S
C312 O319 1.185 . S
O313 C312 1.160 . S
O314 Zn315 1.899 . S
O314 C322 1.284 . S
Zn315 O314 1.899 . S
Zn315 O316 2.032 . S
Zn315 O319 2.086 . S
Zn315 O324 1.977 . S
O316 Zn315 2.032 . S
O316 C320 1.278 . S
C317 O318 1.203 . S
C317 O324 1.267 . S
O318 C317 1.203 . S
O319 C312 1.185 . S
O319 Zn315 2.086 . S
C320 O316 1.278 . S
C320 O321 1.211 . S
O321 C320 1.211 . S
C322 O314 1.284 . S
C322 O323 1.273 . S
O323 C322 1.273 . S
O324 Zn315 1.977 . S
O324 C317 1.267 . S
C325 O326 1.160 . S
C325 O332 1.185 . S
O326 C325 1.160 . S
O327 Zn328 1.899 . S
O327 C335 1.284 . S
Zn328 O327 1.899 . S
Zn328 O329 2.032 1_556 S
Zn328 O332 2.086 . S
Zn328 O337 1.977 . S
O329 Zn328 2.032 1_554 S
O329 C333 1.278 . S
C330 O331 1.203 . S
C330 O337 1.267 . S
O331 C330 1.203 . S
O332 C325 1.185 . S
O332 Zn328 2.086 . S
C333 O329 1.278 . S
C333 O334 1.211 . S
O334 C333 1.211 . S
C335 O327 1.284 . S
C335 O336 1.273 . S
O336 C335 1.273 . S
O337 Zn328 1.977 . S
O337 C330 1.267 . S
C338 O339 1.160 . S
C338 O345 1.185 . S
O339 C338 1.160 . S
O340 Zn341 1.899 . S
O340 C348 1.284 . S
Zn341 O340 1.899 . S
Zn341 O342 2.032 . S
Zn341 O345 2.086 . S
Zn341 O350 1.977 . S
O342 Zn341 2.032 . S
O342 C346 1.278 . S
C343 O344 1.203 . S
C343 O350 1.267 . S
O344 C343 1.203 . S
O345 C338 1.185 . S
O345 Zn341 2.086 . S
C346 O342 1.278 . S
C346 O347 1.211 . S
O347 C346 1.211 . S
C348 O340 1.284 . S
C348 O349 1.273 . S
O349 C348 1.273 . S
O350 Zn341 1.977 . S
O350 C343 1.267 . S
C351 O352 1.160 1_655 S
C351 O358 1.185 . S
O352 C351 1.160 1_455 S
O353 Zn354 1.899 1_455 S
O353 C361 1.284 . S
Zn354 O353 1.899 1_655 S
Zn354 O355 2.032 . S
Zn354 O358 2.086 . S
Zn354 O363 1.977 . S
O355 Zn354 2.032 . S
O355 C359 1.278 . S
C356 O357 1.203 . S
C356 O363 1.267 . S
O357 C356 1.203 . S
O358 C351 1.185 . S
O358 Zn354 2.086 . S
C359 O355 1.278 . S
C359 O360 1.211 . S
O360 C359 1.211 . S
C361 O353 1.284 . S
C361 O362 1.273 . S
O362 C361 1.273 . S
O363 Zn354 1.977 . S
O363 C356 1.267 . S
C364 O365 1.160 . S
C364 O371 1.185 . S
O365 C364 1.160 . S
O366 Zn367 1.899 . S
O366 C374 1.284 . S
Zn367 O366 1.899 . S
Zn367 O368 2.032 . S
Zn367 O371 2.086 . S
Zn367 O376 1.977 . S
O368 Zn367 2.032 . S
O368 C372 1.278 . S
C369 O370 1.203 . S
C369 O376 1.267 . S
O370 C369 1.203 . S
O371 C364 1.185 . S
O371 Zn367 2.086 . S
C372 O368 1.278 . S
C372 O373 1.211 . S
O373 C372 1.211 . S
C374 O366 1.284 . S
C374 O375 1.273 . S
O375 C374 1.273 . S
O376 Zn367 1.977 . S
O376 C369 1.267 . S
C377 O378 1.160 1_655 S
C377 O384 1.185 . S
O378 C377 1.160 1_455 S
O379 Zn380 1.899 1_455 S
O379 C387 1.284 . S
Zn380 O379 1.899 1_655 S
Zn380 O381 2.032 1_554 S
Zn380 O384 2.086 . S
Zn380 O389 1.977 . S
O381 Zn380 2.032 1_556 S
O381 C385 1.278 . S
C382 O383 1.203 . S
C382 O389 1.267 . S
O383 C382 1.203 . S
O384 C377 1.185 . S
O384 Zn380 2.086 . S
C385 O381 1.278 . S
C385 O386 1.211 . S
O386 C385 1.211 . S
C387 O379 1.284 . S
C387 O388 1.273 . S
O388 C387 1.273 . S
O389 Zn380 1.977 . S
O389 C382 1.267 . S
C390 O391 1.160 . S
C390 O397 1.185 . S
O391 C390 1.160 . S
O392 Zn393 1.899 . S
O392 C400 1.284 . S
Zn393 O392 1.899 . S
Zn393 O394 2.032 . S
Zn393 O397 2.086 . S
Zn393 O402 1.977 . S
O394 Zn393 2.032 . S
O394 C398 1.278 . S
C395 O396 1.203 . S
C395 O402 1.267 . S
O396 C395 1.203 . S
O397 C390 1.185 . S
O397 Zn393 2.086 . S
C398 O394 1.278 . S
C398 O399 1.211 . S
O399 C398 1.211 . S
C400 O392 1.284 . S
C400 O401 1.273 . S
O401 C400 1.273 . S
O402 Zn393 1.977 . S
O402 C395 1.267 . S
C403 O404 1.160 . S
C403 O410 1.185 . S
O404 C403 1.160 . S
O405 Zn406 1.899 . S
O405 C413 1.284 . S
Zn406 O405 1.899 . S
Zn406 O407 2.032 . S
Zn406 O410 2.086 . S
Zn406 O415 1.977 . S
O407 Zn406 2.032 . S
O407 C411 1.278 . S
C408 O409 1.203 . S
C408 O415 1.267 . S
O409 C408 1.203 . S
O410 C403 1.185 . S
O410 Zn406 2.086 . S
C411 O407 1.278 . S
C411 O412 1.211 . S
O412 C411 1.211 . S
C413 O405 1.284 . S
C413 O414 1.273 . S
O414 C413 1.273 . S
O415 Zn406 1.977 . S
O415 C408 1.267 . S
C416 C417 1.363 . S
C416 C422 1.379 . S
C416 N424 1.356 . S
C417 C416 1.363 . S
C417 C423 1.363 . S
C418 C419 1.363 . S
C418 C423 1.379 . S
C418 N425 1.356 . S
C419 C418 1.363 . S
C419 C422 1.363 . S
N420 C422 1.356 . S
N420 H432 0.984 . S
N420 H433 0.985 . S
N421 C423 1.356 . S
N421 H426 0.984 . S
N421 H427 0.985 . S
C422 C416 1.379 . S
C422 C419 1.363 . S
C422 N420 1.356 . S
C423 C417 1.363 . S
C423 C418 1.379 . S
C423 N421 1.356 . S
N424 C416 1.356 . S
N424 H430 0.984 . S
N424 H431 0.984 . S
N425 C418 1.356 . S
N425 H428 0.984 . S
N425 H429 0.985 . S
H426 N421 0.984 . S
H427 N421 0.985 . S
H428 N425 0.984 . S
H429 N425 0.985 . S
H430 N424 0.984 . S
H431 N424 0.984 . S
H432 N420 0.984 . S
H433 N420 0.985 . S
C434 C435 1.363 . S
C434 C440 1.379 . S
C434 N442 1.356 . S
C435 C434 1.363 . S
C435 C441 1.363 . S
C436 C437 1.363 . S
C436 C441 1.379 . S
C436 N443 1.356 . S
C437 C436 1.363 . S
C437 C440 1.363 . S
N438 C440 1.356 . S
N438 H450 0.984 . S
N438 H451 0.985 . S
N439 C441 1.356 . S
N439 H444 0.984 . S
N439 H445 0.985 . S
C440 C434 1.379 . S
C440 C437 1.363 . S
C440 N438 1.356 . S
C441 C435 1.363 . S
C441 C436 1.379 . S
C441 N439 1.356 . S
N442 C434 1.356 . S
N442 H448 0.984 . S
N442 H449 0.984 . S
N443 C436 1.356 . S
N443 H446 0.984 . S
N443 H447 0.985 . S
H444 N439 0.984 . S
H445 N439 0.985 . S
H446 N443 0.984 . S
H447 N443 0.985 . S
H448 N442 0.984 . S
H449 N442 0.984 . S
H450 N438 0.984 . S
H451 N438 0.985 . S
C452 C453 1.363 . S
C452 C458 1.379 . S
C452 N460 1.356 . S
C453 C452 1.363 . S
C453 C459 1.363 . S
C454 C455 1.363 . S
C454 C459 1.379 . S
C454 N461 1.356 . S
C455 C454 1.363 . S
C455 C458 1.363 . S
N456 C458 1.356 . S
N456 H468 0.984 . S
N456 H469 0.985 . S
N457 C459 1.356 . S
N457 H462 0.984 . S
N457 H463 0.985 . S
C458 C452 1.379 . S
C458 C455 1.363 . S
C458 N456 1.356 . S
C459 C453 1.363 . S
C459 C454 1.379 . S
C459 N457 1.356 . S
N460 C452 1.356 . S
N460 H466 0.984 . S
N460 H467 0.984 . S
N461 C454 1.356 . S
N461 H464 0.984 . S
N461 H465 0.985 . S
H462 N457 0.984 . S
H463 N457 0.985 . S
H464 N461 0.984 . S
H465 N461 0.985 . S
H466 N460 0.984 . S
H467 N460 0.984 . S
H468 N456 0.984 . S
H469 N456 0.985 . S
C470 C471 1.363 . S
C470 C476 1.379 . S
C470 N478 1.356 . S
C471 C470 1.363 . S
C471 C477 1.363 . S
C472 C473 1.363 . S
C472 C477 1.379 . S
C472 N479 1.356 . S
C473 C472 1.363 . S
C473 C476 1.363 . S
N474 C476 1.356 . S
N474 H486 0.984 . S
N474 H487 0.985 . S
N475 C477 1.356 . S
N475 H480 0.984 . S
N475 H481 0.985 . S
C476 C470 1.379 . S
C476 C473 1.363 . S
C476 N474 1.356 . S
C477 C471 1.363 . S
C477 C472 1.379 . S
C477 N475 1.356 . S
N478 C470 1.356 . S
N478 H484 0.984 . S
N478 H485 0.984 . S
N479 C472 1.356 . S
N479 H482 0.984 . S
N479 H483 0.985 . S
H480 N475 0.984 . S
H481 N475 0.985 . S
H482 N479 0.984 . S
H483 N479 0.985 . S
H484 N478 0.984 . S
H485 N478 0.984 . S
H486 N474 0.984 . S
H487 N474 0.985 . S
C488 C489 1.363 . S
C488 C494 1.379 . S
C488 N496 1.356 . S
C489 C488 1.363 . S
C489 C495 1.363 . S
C490 C491 1.363 . S
C490 C495 1.379 . S
C490 N497 1.356 . S
C491 C490 1.363 . S
C491 C494 1.363 . S
N492 C494 1.356 . S
N492 H504 0.984 . S
N492 H505 0.985 . S
N493 C495 1.356 . S
N493 H498 0.984 . S
N493 H499 0.985 . S
C494 C488 1.379 . S
C494 C491 1.363 . S
C494 N492 1.356 . S
C495 C489 1.363 . S
C495 C490 1.379 . S
C495 N493 1.356 . S
N496 C488 1.356 . S
N496 H502 0.984 . S
N496 H503 0.984 . S
N497 C490 1.356 . S
N497 H500 0.984 . S
N497 H501 0.985 . S
H498 N493 0.984 . S
H499 N493 0.985 . S
H500 N497 0.984 . S
H501 N497 0.985 . S
H502 N496 0.984 . S
H503 N496 0.984 . S
H504 N492 0.984 . S
H505 N492 0.985 . S
C506 C507 1.363 . S
C506 C512 1.379 . S
C506 N514 1.356 . S
C507 C506 1.363 . S
C507 C513 1.363 . S
C508 C509 1.363 . S
C508 C513 1.379 . S
C508 N515 1.356 . S
C509 C508 1.363 . S
C509 C512 1.363 . S
N510 C512 1.356 . S
N510 H522 0.984 . S
N510 H523 0.985 . S
N511 C513 1.356 . S
N511 H516 0.984 . S
N511 H517 0.985 . S
C512 C506 1.379 . S
C512 C509 1.363 . S
C512 N510 1.356 . S
C513 C507 1.363 . S
C513 C508 1.379 . S
C513 N511 1.356 . S
N514 C506 1.356 . S
N514 H520 0.984 . S
N514 H521 0.984 . S
N515 C508 1.356 . S
N515 H518 0.984 . S
N515 H519 0.985 . S
H516 N511 0.984 . S
H517 N511 0.985 . S
H518 N515 0.984 . S
H519 N515 0.985 . S
H520 N514 0.984 . S
H521 N514 0.984 . S
H522 N510 0.984 . S
H523 N510 0.985 . S
C524 C525 1.363 . S
C524 C530 1.379 . S
C524 N532 1.356 . S
C525 C524 1.363 . S
C525 C531 1.363 . S
C526 C527 1.363 . S
C526 C531 1.379 . S
C526 N533 1.356 . S
C527 C526 1.363 . S
C527 C530 1.363 . S
N528 C530 1.356 . S
N528 H540 0.984 . S
N528 H541 0.985 . S
N529 C531 1.356 . S
N529 H534 0.984 . S
N529 H535 0.985 . S
C530 C524 1.379 . S
C530 C527 1.363 . S
C530 N528 1.356 . S
C531 C525 1.363 . S
C531 C526 1.379 . S
C531 N529 1.356 . S
N532 C524 1.356 . S
N532 H538 0.984 . S
N532 H539 0.984 . S
N533 C526 1.356 . S
N533 H536 0.984 . S
N533 H537 0.985 . S
H534 N529 0.984 . S
H535 N529 0.985 . S
H536 N533 0.984 . S
H537 N533 0.985 . S
H538 N532 0.984 . S
H539 N532 0.984 . S
H540 N528 0.984 . S
H541 N528 0.985 . S
C542 C543 1.363 . S
C542 C548 1.379 . S
C542 N550 1.356 . S
C543 C542 1.363 . S
C543 C549 1.363 . S
C544 C545 1.363 . S
C544 C549 1.379 . S
C544 N551 1.356 . S
C545 C544 1.363 . S
C545 C548 1.363 . S
N546 C548 1.356 . S
N546 H558 0.984 . S
N546 H559 0.985 . S
N547 C549 1.356 . S
N547 H552 0.984 . S
N547 H553 0.985 . S
C548 C542 1.379 . S
C548 C545 1.363 . S
C548 N546 1.356 . S
C549 C543 1.363 . S
C549 C544 1.379 . S
C549 N547 1.356 . S
N550 C542 1.356 . S
N550 H556 0.984 . S
N550 H557 0.984 . S
N551 C544 1.356 . S
N551 H554 0.984 . S
N551 H555 0.985 . S
H552 N547 0.984 . S
H553 N547 0.985 . S
H554 N551 0.984 . S
H555 N551 0.985 . S
H556 N550 0.984 . S
H557 N550 0.984 . S
H558 N546 0.984 . S
H559 N546 0.985 . S
C560 C561 1.363 . S
C560 C566 1.379 . S
C560 N568 1.356 . S
C561 C560 1.363 . S
C561 C567 1.363 . S
C562 C563 1.363 . S
C562 C567 1.379 . S
C562 N569 1.356 . S
C563 C562 1.363 . S
C563 C566 1.363 . S
N564 C566 1.356 . S
N564 H576 0.984 . S
N564 H577 0.985 . S
N565 C567 1.356 . S
N565 H570 0.984 . S
N565 H571 0.985 . S
C566 C560 1.379 . S
C566 C563 1.363 . S
C566 N564 1.356 . S
C567 C561 1.363 . S
C567 C562 1.379 . S
C567 N565 1.356 . S
N568 C560 1.356 . S
N568 H574 0.984 . S
N568 H575 0.984 . S
N569 C562 1.356 . S
N569 H572 0.984 . S
N569 H573 0.985 . S
H570 N565 0.984 . S
H571 N565 0.985 . S
H572 N569 0.984 . S
H573 N569 0.985 . S
H574 N568 0.984 . S
H575 N568 0.984 . S
H576 N564 0.984 . S
H577 N564 0.985 . S
C578 C579 1.363 . S
C578 C584 1.379 . S
C578 N586 1.356 . S
C579 C578 1.363 . S
C579 C585 1.363 . S
C580 C581 1.363 . S
C580 C585 1.379 . S
C580 N587 1.356 . S
C581 C580 1.363 . S
C581 C584 1.363 . S
N582 C584 1.356 . S
N582 H594 0.984 . S
N582 H595 0.985 . S
N583 C585 1.356 . S
N583 H588 0.984 . S
N583 H589 0.985 . S
C584 C578 1.379 . S
C584 C581 1.363 . S
C584 N582 1.356 . S
C585 C579 1.363 . S
C585 C580 1.379 . S
C585 N583 1.356 . S
N586 C578 1.356 . S
N586 H592 0.984 . S
N586 H593 0.984 . S
N587 C580 1.356 . S
N587 H590 0.984 . S
N587 H591 0.985 . S
H588 N583 0.984 . S
H589 N583 0.985 . S
H590 N587 0.984 . S
H591 N587 0.985 . S
H592 N586 0.984 . S
H593 N586 0.984 . S
H594 N582 0.984 . S
H595 N582 0.985 . S
C596 C597 1.363 . S
C596 C602 1.379 . S
C596 N604 1.356 . S
C597 C596 1.363 . S
C597 C603 1.363 . S
C598 C599 1.363 . S
C598 C603 1.379 . S
C598 N605 1.356 . S
C599 C598 1.363 . S
C599 C602 1.363 . S
N600 C602 1.356 . S
N600 H612 0.984 . S
N600 H613 0.985 . S
N601 C603 1.356 . S
N601 H606 0.984 . S
N601 H607 0.985 . S
C602 C596 1.379 . S
C602 C599 1.363 . S
C602 N600 1.356 . S
C603 C597 1.363 . S
C603 C598 1.379 . S
C603 N601 1.356 . S
N604 C596 1.356 . S
N604 H610 0.984 . S
N604 H611 0.984 . S
N605 C598 1.356 . S
N605 H608 0.984 . S
N605 H609 0.985 . S
H606 N601 0.984 . S
H607 N601 0.985 . S
H608 N605 0.984 . S
H609 N605 0.985 . S
H610 N604 0.984 . S
H611 N604 0.984 . S
H612 N600 0.984 . S
H613 N600 0.985 . S
C614 C615 1.363 . S
C614 C620 1.379 . S
C614 N622 1.356 . S
C615 C614 1.363 . S
C615 C621 1.363 . S
C616 C617 1.363 . S
C616 C621 1.379 . S
C616 N623 1.356 . S
C617 C616 1.363 . S
C617 C620 1.363 . S
N618 C620 1.356 . S
N618 H630 0.984 . S
N618 H631 0.985 . S
N619 C621 1.356 . S
N619 H624 0.984 . S
N619 H625 0.985 . S
C620 C614 1.379 . S
C620 C617 1.363 . S
C620 N618 1.356 . S
C621 C615 1.363 . S
C621 C616 1.379 . S
C621 N619 1.356 . S
N622 C614 1.356 . S
N622 H628 0.984 . S
N622 H629 0.984 . S
N623 C616 1.356 . S
N623 H626 0.984 . S
N623 H627 0.985 . S
H624 N619 0.984 . S
H625 N619 0.985 . S
H626 N623 0.984 . S
H627 N623 0.985 . S
H628 N622 0.984 . S
H629 N622 0.984 . S
H630 N618 0.984 . S
H631 N618 0.985 . S
C632 C633 1.363 . S
C632 C638 1.379 . S
C632 N640 1.356 . S
C633 C632 1.363 . S
C633 C639 1.363 . S
C634 C635 1.363 . S
C634 C639 1.379 . S
C634 N641 1.356 . S
C635 C634 1.363 . S
C635 C638 1.363 . S
N636 C638 1.356 . S
N636 H648 0.984 . S
N636 H649 0.985 . S
N637 C639 1.356 . S
N637 H642 0.984 . S
N637 H643 0.985 . S
C638 C632 1.379 . S
C638 C635 1.363 . S
C638 N636 1.356 . S
C639 C633 1.363 . S
C639 C634 1.379 . S
C639 N637 1.356 . S
N640 C632 1.356 . S
N640 H646 0.984 . S
N640 H647 0.984 . S
N641 C634 1.356 . S
N641 H644 0.984 . S
N641 H645 0.985 . S
H642 N637 0.984 . S
H643 N637 0.985 . S
H644 N641 0.984 . S
H645 N641 0.985 . S
H646 N640 0.984 . S
H647 N640 0.984 . S
H648 N636 0.984 . S
H649 N636 0.985 . S
C650 C651 1.363 . S
C650 C656 1.379 . S
C650 N658 1.356 . S
C651 C650 1.363 . S
C651 C657 1.363 . S
C652 C653 1.363 . S
C652 C657 1.379 . S
C652 N659 1.356 . S
C653 C652 1.363 . S
C653 C656 1.363 . S
N654 C656 1.356 . S
N654 H666 0.984 . S
N654 H667 0.985 . S
N655 C657 1.356 . S
N655 H660 0.984 . S
N655 H661 0.985 . S
C656 C650 1.379 . S
C656 C653 1.363 . S
C656 N654 1.356 . S
C657 C651 1.363 . S
C657 C652 1.379 . S
C657 N655 1.356 . S
N658 C650 1.356 . S
N658 H664 0.984 . S
N658 H665 0.984 . S
N659 C652 1.356 . S
N659 H662 0.984 . S
N659 H663 0.985 . S
H660 N655 0.984 . S
H661 N655 0.985 . S
H662 N659 0.984 . S
H663 N659 0.985 . S
H664 N658 0.984 . S
H665 N658 0.984 . S
H666 N654 0.984 . S
H667 N654 0.985 . S
C668 C669 1.363 . S
C668 C674 1.379 . S
C668 N676 1.356 . S
C669 C668 1.363 . S
C669 C675 1.363 . S
C670 C671 1.363 . S
C670 C675 1.379 . S
C670 N677 1.356 . S
C671 C670 1.363 . S
C671 C674 1.363 . S
N672 C674 1.356 . S
N672 H684 0.984 . S
N672 H685 0.985 . S
N673 C675 1.356 . S
N673 H678 0.984 . S
N673 H679 0.985 . S
C674 C668 1.379 . S
C674 C671 1.363 . S
C674 N672 1.356 . S
C675 C669 1.363 . S
C675 C670 1.379 . S
C675 N673 1.356 . S
N676 C668 1.356 . S
N676 H682 0.984 . S
N676 H683 0.984 . S
N677 C670 1.356 . S
N677 H680 0.984 . S
N677 H681 0.985 . S
H678 N673 0.984 . S
H679 N673 0.985 . S
H680 N677 0.984 . S
H681 N677 0.985 . S
H682 N676 0.984 . S
H683 N676 0.984 . S
H684 N672 0.984 . S
H685 N672 0.985 . S
C686 C687 1.363 . S
C686 C692 1.379 . S
C686 N694 1.356 . S
C687 C686 1.363 . S
C687 C693 1.363 . S
C688 C689 1.363 . S
C688 C693 1.379 . S
C688 N695 1.356 . S
C689 C688 1.363 . S
C689 C692 1.363 . S
N690 C692 1.356 . S
N690 H702 0.984 . S
N690 H703 0.985 . S
N691 C693 1.356 . S
N691 H696 0.984 . S
N691 H697 0.985 . S
C692 C686 1.379 . S
C692 C689 1.363 . S
C692 N690 1.356 . S
C693 C687 1.363 . S
C693 C688 1.379 . S
C693 N691 1.356 . S
N694 C686 1.356 . S
N694 H700 0.984 . S
N694 H701 0.984 . S
N695 C688 1.356 . S
N695 H698 0.984 . S
N695 H699 0.985 . S
H696 N691 0.984 . S
H697 N691 0.985 . S
H698 N695 0.984 . S
H699 N695 0.985 . S
H700 N694 0.984 . S
H701 N694 0.984 . S
H702 N690 0.984 . S
H703 N690 0.985 . S
C704 C705 1.363 . S
C704 C710 1.379 . S
C704 N712 1.356 . S
C705 C704 1.363 . S
C705 C711 1.363 . S
C706 C707 1.363 . S
C706 C711 1.379 . S
C706 N713 1.356 . S
C707 C706 1.363 . S
C707 C710 1.363 . S
N708 C710 1.356 . S
N708 H720 0.984 . S
N708 H721 0.985 . S
N709 C711 1.356 . S
N709 H714 0.984 . S
N709 H715 0.985 . S
C710 C704 1.379 . S
C710 C707 1.363 . S
C710 N708 1.356 . S
C711 C705 1.363 . S
C711 C706 1.379 . S
C711 N709 1.356 . S
N712 C704 1.356 . S
N712 H718 0.984 . S
N712 H719 0.984 . S
N713 C706 1.356 . S
N713 H716 0.984 . S
N713 H717 0.985 . S
H714 N709 0.984 . S
H715 N709 0.985 . S
H716 N713 0.984 . S
H717 N713 0.985 . S
H718 N712 0.984 . S
H719 N712 0.984 . S
H720 N708 0.984 . S
H721 N708 0.985 . S
C722 C723 1.363 . S
C722 C728 1.379 . S
C722 N730 1.356 . S
C723 C722 1.363 . S
C723 C729 1.363 . S
C724 C725 1.363 . S
C724 C729 1.379 . S
C724 N731 1.356 . S
C725 C724 1.363 . S
C725 C728 1.363 . S
N726 C728 1.356 . S
N726 H738 0.984 . S
N726 H739 0.985 . S
N727 C729 1.356 . S
N727 H732 0.984 . S
N727 H733 0.985 . S
C728 C722 1.379 . S
C728 C725 1.363 . S
C728 N726 1.356 . S
C729 C723 1.363 . S
C729 C724 1.379 . S
C729 N727 1.356 . S
N730 C722 1.356 . S
N730 H736 0.984 . S
N730 H737 0.984 . S
N731 C724 1.356 . S
N731 H734 0.984 . S
N731 H735 0.985 . S
H732 N727 0.984 . S
H733 N727 0.985 . S
H734 N731 0.984 . S
H735 N731 0.985 . S
H736 N730 0.984 . S
H737 N730 0.984 . S
H738 N726 0.984 . S
H739 N726 0.985 . S
C740 C741 1.363 . S
C740 C746 1.379 . S
C740 N748 1.356 . S
C741 C740 1.363 . S
C741 C747 1.363 . S
C742 C743 1.363 . S
C742 C747 1.379 . S
C742 N749 1.356 . S
C743 C742 1.363 . S
C743 C746 1.363 . S
N744 C746 1.356 . S
N744 H756 0.984 . S
N744 H757 0.985 . S
N745 C747 1.356 . S
N745 H750 0.984 . S
N745 H751 0.985 . S
C746 C740 1.379 . S
C746 C743 1.363 . S
C746 N744 1.356 . S
C747 C741 1.363 . S
C747 C742 1.379 . S
C747 N745 1.356 . S
N748 C740 1.356 . S
N748 H754 0.984 . S
N748 H755 0.984 . S
N749 C742 1.356 . S
N749 H752 0.984 . S
N749 H753 0.985 . S
H750 N745 0.984 . S
H751 N745 0.985 . S
H752 N749 0.984 . S
H753 N749 0.985 . S
H754 N748 0.984 . S
H755 N748 0.984 . S
H756 N744 0.984 . S
H757 N744 0.985 . S
C758 C759 1.363 . S
C758 C764 1.379 . S
C758 N766 1.356 . S
C759 C758 1.363 . S
C759 C765 1.363 . S
C760 C761 1.363 . S
C760 C765 1.379 . S
C760 N767 1.356 . S
C761 C760 1.363 . S
C761 C764 1.363 . S
N762 C764 1.356 . S
N762 H774 0.984 1_655 S
N762 H775 0.985 1_655 S
N763 C765 1.356 . S
N763 H768 0.984 . S
N763 H769 0.985 . S
C764 C758 1.379 . S
C764 C761 1.363 . S
C764 N762 1.356 . S
C765 C759 1.363 . S
C765 C760 1.379 . S
C765 N763 1.356 . S
N766 C758 1.356 . S
N766 H772 0.984 . S
N766 H773 0.984 . S
N767 C760 1.356 . S
N767 H770 0.984 . S
N767 H771 0.985 . S
H768 N763 0.984 . S
H769 N763 0.985 . S
H770 N767 0.984 . S
H771 N767 0.985 . S
H772 N766 0.984 . S
H773 N766 0.984 . S
H774 N762 0.984 1_455 S
H775 N762 0.985 1_455 S
C776 C777 1.363 . S
C776 C782 1.379 . S
C776 N784 1.356 . S
C777 C776 1.363 . S
C777 C783 1.363 . S
C778 C779 1.363 . S
C778 C783 1.379 . S
C778 N785 1.356 . S
C779 C778 1.363 . S
C779 C782 1.363 . S
N780 C782 1.356 . S
N780 H792 0.984 . S
N780 H793 0.985 . S
N781 C783 1.356 . S
N781 H786 0.984 . S
N781 H787 0.985 . S
C782 C776 1.379 . S
C782 C779 1.363 . S
C782 N780 1.356 . S
C783 C777 1.363 . S
C783 C778 1.379 . S
C783 N781 1.356 . S
N784 C776 1.356 . S
N784 H790 0.984 . S
N784 H791 0.984 . S
N785 C778 1.356 . S
N785 H788 0.984 . S
N785 H789 0.985 . S
H786 N781 0.984 . S
H787 N781 0.985 . S
H788 N785 0.984 . S
H789 N785 0.985 . S
H790 N784 0.984 . S
H791 N784 0.984 . S
H792 N780 0.984 . S
H793 N780 0.985 . S
C794 C795 1.363 . S
C794 C800 1.379 . S
C794 N802 1.356 . S
C795 C794 1.363 . S
C795 C801 1.363 . S
C796 C797 1.363 . S
C796 C801 1.379 . S
C796 N803 1.356 . S
C797 C796 1.363 . S
C797 C800 1.363 . S
N798 C800 1.356 . S
N798 H810 0.984 . S
N798 H811 0.985 . S
N799 C801 1.356 . S
N799 H804 0.984 . S
N799 H805 0.985 . S
C800 C794 1.379 . S
C800 C797 1.363 . S
C800 N798 1.356 . S
C801 C795 1.363 . S
C801 C796 1.379 . S
C801 N799 1.356 . S
N802 C794 1.356 . S
N802 H808 0.984 . S
N802 H809 0.984 . S
N803 C796 1.356 . S
N803 H806 0.984 . S
N803 H807 0.985 . S
H804 N799 0.984 . S
H805 N799 0.985 . S
H806 N803 0.984 . S
H807 N803 0.985 . S
H808 N802 0.984 . S
H809 N802 0.984 . S
H810 N798 0.984 . S
H811 N798 0.985 . S
C812 C813 1.363 . S
C812 C818 1.379 . S
C812 N820 1.356 . S
C813 C812 1.363 . S
C813 C819 1.363 . S
C814 C815 1.363 . S
C814 C819 1.379 . S
C814 N821 1.356 . S
C815 C814 1.363 . S
C815 C818 1.363 . S
N816 C818 1.356 . S
N816 H828 0.984 . S
N816 H829 0.985 . S
N817 C819 1.356 . S
N817 H822 0.984 . S
N817 H823 0.985 . S
C818 C812 1.379 . S
C818 C815 1.363 . S
C818 N816 1.356 . S
C819 C813 1.363 . S
C819 C814 1.379 . S
C819 N817 1.356 . S
N820 C812 1.356 . S
N820 H826 0.984 . S
N820 H827 0.984 . S
N821 C814 1.356 . S
N821 H824 0.984 . S
N821 H825 0.985 . S
H822 N817 0.984 . S
H823 N817 0.985 . S
H824 N821 0.984 . S
H825 N821 0.985 . S
H826 N820 0.984 . S
H827 N820 0.984 . S
H828 N816 0.984 . S
H829 N816 0.985 . S
C830 C831 1.363 . S
C830 C836 1.379 . S
C830 N838 1.356 . S
C831 C830 1.363 . S
C831 C837 1.363 . S
C832 C833 1.363 . S
C832 C837 1.379 . S
C832 N839 1.356 . S
C833 C832 1.363 . S
C833 C836 1.363 . S
N834 C836 1.356 . S
N834 H846 0.984 . S
N834 H847 0.985 . S
N835 C837 1.356 . S
N835 H840 0.984 . S
N835 H841 0.985 . S
C836 C830 1.379 . S
C836 C833 1.363 . S
C836 N834 1.356 . S
C837 C831 1.363 . S
C837 C832 1.379 . S
C837 N835 1.356 . S
N838 C830 1.356 . S
N838 H844 0.984 . S
N838 H845 0.984 . S
N839 C832 1.356 . S
N839 H842 0.984 . S
N839 H843 0.985 . S
H840 N835 0.984 . S
H841 N835 0.985 . S
H842 N839 0.984 . S
H843 N839 0.985 . S
H844 N838 0.984 . S
H845 N838 0.984 . S
H846 N834 0.984 . S
H847 N834 0.985 . S
C848 C849 1.363 . S
C848 C854 1.379 . S
C848 N856 1.356 . S
C849 C848 1.363 . S
C849 C855 1.363 . S
C850 C851 1.363 . S
C850 C855 1.379 . S
C850 N857 1.356 . S
C851 C850 1.363 . S
C851 C854 1.363 . S
N852 C854 1.356 . S
N852 H864 0.984 . S
N852 H865 0.985 . S
N853 C855 1.356 . S
N853 H858 0.984 . S
N853 H859 0.985 . S
C854 C848 1.379 . S
C854 C851 1.363 . S
C854 N852 1.356 . S
C855 C849 1.363 . S
C855 C850 1.379 . S
C855 N853 1.356 . S
N856 C848 1.356 . S
N856 H862 0.984 . S
N856 H863 0.984 . S
N857 C850 1.356 . S
N857 H860 0.984 . S
N857 H861 0.985 . S
H858 N853 0.984 . S
H859 N853 0.985 . S
H860 N857 0.984 . S
H861 N857 0.985 . S
H862 N856 0.984 . S
H863 N856 0.984 . S
H864 N852 0.984 . S
H865 N852 0.985 . S
C866 C867 1.363 . S
C866 C872 1.379 . S
C866 N874 1.356 . S
C867 C866 1.363 . S
C867 C873 1.363 . S
C868 C869 1.363 . S
C868 C873 1.379 . S
C868 N875 1.356 . S
C869 C868 1.363 . S
C869 C872 1.363 . S
N870 C872 1.356 . S
N870 H882 0.984 . S
N870 H883 0.985 . S
N871 C873 1.356 . S
N871 H876 0.984 . S
N871 H877 0.985 . S
C872 C866 1.379 . S
C872 C869 1.363 . S
C872 N870 1.356 . S
C873 C867 1.363 . S
C873 C868 1.379 . S
C873 N871 1.356 . S
N874 C866 1.356 . S
N874 H880 0.984 . S
N874 H881 0.984 . S
N875 C868 1.356 . S
N875 H878 0.984 . S
N875 H879 0.985 . S
H876 N871 0.984 . S
H877 N871 0.985 . S
H878 N875 0.984 . S
H879 N875 0.985 . S
H880 N874 0.984 . S
H881 N874 0.984 . S
H882 N870 0.984 . S
H883 N870 0.985 . S
C884 C885 1.363 . S
C884 C890 1.379 . S
C884 N892 1.356 . S
C885 C884 1.363 . S
C885 C891 1.363 . S
C886 C887 1.363 . S
C886 C891 1.379 . S
C886 N893 1.356 . S
C887 C886 1.363 . S
C887 C890 1.363 . S
N888 C890 1.356 . S
N888 H900 0.984 . S
N888 H901 0.985 . S
N889 C891 1.356 . S
N889 H894 0.984 . S
N889 H895 0.985 . S
C890 C884 1.379 . S
C890 C887 1.363 . S
C890 N888 1.356 . S
C891 C885 1.363 . S
C891 C886 1.379 . S
C891 N889 1.356 . S
N892 C884 1.356 . S
N892 H898 0.984 . S
N892 H899 0.984 . S
N893 C886 1.356 . S
N893 H896 0.984 . S
N893 H897 0.985 . S
H894 N889 0.984 . S
H895 N889 0.985 . S
H896 N893 0.984 . S
H897 N893 0.985 . S
H898 N892 0.984 . S
H899 N892 0.984 . S
H900 N888 0.984 . S
H901 N888 0.985 . S
C902 C903 1.363 . S
C902 C908 1.379 . S
C902 N910 1.356 . S
C903 C902 1.363 . S
C903 C909 1.363 . S
C904 C905 1.363 . S
C904 C909 1.379 . S
C904 N911 1.356 . S
C905 C904 1.363 . S
C905 C908 1.363 . S
N906 C908 1.356 . S
N906 H918 0.984 . S
N906 H919 0.985 . S
N907 C909 1.356 . S
N907 H912 0.984 . S
N907 H913 0.985 . S
C908 C902 1.379 . S
C908 C905 1.363 . S
C908 N906 1.356 . S
C909 C903 1.363 . S
C909 C904 1.379 . S
C909 N907 1.356 . S
N910 C902 1.356 . S
N910 H916 0.984 . S
N910 H917 0.984 . S
N911 C904 1.356 . S
N911 H914 0.984 . S
N911 H915 0.985 . S
H912 N907 0.984 . S
H913 N907 0.985 . S
H914 N911 0.984 . S
H915 N911 0.985 . S
H916 N910 0.984 . S
H917 N910 0.984 . S
H918 N906 0.984 . S
H919 N906 0.985 . S
C920 C921 1.363 . S
C920 C926 1.379 . S
C920 N928 1.356 . S
C921 C920 1.363 . S
C921 C927 1.363 . S
C922 C923 1.363 . S
C922 C927 1.379 . S
C922 N929 1.356 . S
C923 C922 1.363 . S
C923 C926 1.363 . S
N924 C926 1.356 . S
N924 H936 0.984 . S
N924 H937 0.985 . S
N925 C927 1.356 . S
N925 H930 0.984 . S
N925 H931 0.985 . S
C926 C920 1.379 . S
C926 C923 1.363 . S
C926 N924 1.356 . S
C927 C921 1.363 . S
C927 C922 1.379 . S
C927 N925 1.356 . S
N928 C920 1.356 . S
N928 H934 0.984 . S
N928 H935 0.984 . S
N929 C922 1.356 . S
N929 H932 0.984 . S
N929 H933 0.985 . S
H930 N925 0.984 . S
H931 N925 0.985 . S
H932 N929 0.984 . S
H933 N929 0.985 . S
H934 N928 0.984 . S
H935 N928 0.984 . S
H936 N924 0.984 . S
H937 N924 0.985 . S
C938 C939 1.363 . S
C938 C944 1.379 . S
C938 N946 1.356 . S
C939 C938 1.363 . S
C939 C945 1.363 . S
C940 C941 1.363 . S
C940 C945 1.379 . S
C940 N947 1.356 . S
C941 C940 1.363 . S
C941 C944 1.363 . S
N942 C944 1.356 . S
N942 H954 0.984 . S
N942 H955 0.985 . S
N943 C945 1.356 . S
N943 H948 0.984 1_455 S
N943 H949 0.985 1_455 S
C944 C938 1.379 . S
C944 C941 1.363 . S
C944 N942 1.356 . S
C945 C939 1.363 . S
C945 C940 1.379 . S
C945 N943 1.356 . S
N946 C938 1.356 . S
N946 H952 0.984 1_554 S
N946 H953 0.984 . S
N947 C940 1.356 . S
N947 H950 0.984 . S
N947 H951 0.985 . S
H948 N943 0.984 1_655 S
H949 N943 0.985 1_655 S
H950 N947 0.984 . S
H951 N947 0.985 . S
H952 N946 0.984 1_556 S
H953 N946 0.984 . S
H954 N942 0.984 . S
H955 N942 0.985 . S
C956 C957 1.363 . S
C956 C962 1.379 . S
C956 N964 1.356 . S
C957 C956 1.363 . S
C957 C963 1.363 . S
C958 C959 1.363 . S
C958 C963 1.379 . S
C958 N965 1.356 . S
C959 C958 1.363 . S
C959 C962 1.363 . S
N960 C962 1.356 . S
N960 H972 0.984 . S
N960 H973 0.985 . S
N961 C963 1.356 . S
N961 H966 0.984 . S
N961 H967 0.985 . S
C962 C956 1.379 . S
C962 C959 1.363 . S
C962 N960 1.356 . S
C963 C957 1.363 . S
C963 C958 1.379 . S
C963 N961 1.356 . S
N964 C956 1.356 . S
N964 H970 0.984 . S
N964 H971 0.984 . S
N965 C958 1.356 . S
N965 H968 0.984 . S
N965 H969 0.985 . S
H966 N961 0.984 . S
H967 N961 0.985 . S
H968 N965 0.984 . S
H969 N965 0.985 . S
H970 N964 0.984 . S
H971 N964 0.984 . S
H972 N960 0.984 . S
H973 N960 0.985 . S
C974 C975 1.363 . S
C974 C980 1.379 . S
C974 N982 1.356 . S
C975 C974 1.363 . S
C975 C981 1.363 . S
C976 C977 1.363 . S
C976 C981 1.379 . S
C976 N983 1.356 . S
C977 C976 1.363 . S
C977 C980 1.363 . S
N978 C980 1.356 . S
N978 H990 0.984 . S
N978 H991 0.985 . S
N979 C981 1.356 . S
N979 H984 0.984 . S
N979 H985 0.985 . S
C980 C974 1.379 . S
C980 C977 1.363 . S
C980 N978 1.356 . S
C981 C975 1.363 . S
C981 C976 1.379 . S
C981 N979 1.356 . S
N982 C974 1.356 . S
N982 H988 0.984 . S
N982 H989 0.984 . S
N983 C976 1.356 . S
N983 H986 0.984 . S
N983 H987 0.985 . S
H984 N979 0.984 . S
H985 N979 0.985 . S
H986 N983 0.984 . S
H987 N983 0.985 . S
H988 N982 0.984 . S
H989 N982 0.984 . S
H990 N978 0.984 . S
H991 N978 0.985 . S
C992 C993 1.363 . S
C992 C998 1.379 . S
C992 N1000 1.356 . S
C993 C992 1.363 . S
C993 C999 1.363 . S
C994 C995 1.363 . S
C994 C999 1.379 . S
C994 N1001 1.356 . S
C995 C994 1.363 . S
C995 C998 1.363 . S
N996 C998 1.356 . S
N996 H1008 0.984 . S
N996 H1009 0.985 . S
N997 C999 1.356 . S
N997 H1002 0.984 . S
N997 H1003 0.985 . S
C998 C992 1.379 . S
C998 C995 1.363 . S
C998 N996 1.356 . S
C999 C993 1.363 . S
C999 C994 1.379 . S
C999 N997 1.356 . S
N1000 C992 1.356 . S
N1000 H1006 0.984 . S
N1000 H1007 0.984 . S
N1001 C994 1.356 . S
N1001 H1004 0.984 . S
N1001 H1005 0.985 . S
H1002 N997 0.984 . S
H1003 N997 0.985 . S
H1004 N1001 0.984 . S
H1005 N1001 0.985 . S
H1006 N1000 0.984 . S
H1007 N1000 0.984 . S
H1008 N996 0.984 . S
H1009 N996 0.985 . S
C1010 C1011 1.363 1_455 S
C1010 C1016 1.389 . S
C1010 N1018 1.356 . S
C1011 C1010 1.363 1_655 S
C1011 C1017 1.353 1_565 S
C1012 C1013 1.363 1_655 S
C1012 C1017 1.389 . S
C1012 N1019 1.356 . S
C1013 C1012 1.363 1_455 S
C1013 C1016 1.353 1_545 S
N1014 C1016 1.353 1_545 S
N1014 H1026 0.984 1_545 S
N1014 H1027 0.985 . S
N1015 C1017 1.353 1_565 S
N1015 H1020 0.984 . S
N1015 H1021 0.985 1_565 S
C1016 C1010 1.389 . S
C1016 C1013 1.353 1_565 S
C1016 N1014 1.353 1_565 S
C1017 C1011 1.353 1_545 S
C1017 C1012 1.389 . S
C1017 N1015 1.353 1_545 S
N1018 C1010 1.356 . S
N1018 H1024 0.984 . S
N1018 H1025 0.987 1_455 S
N1019 C1012 1.356 . S
N1019 H1022 0.987 1_655 S
N1019 H1023 0.985 . S
H1020 N1015 0.984 . S
H1021 N1015 0.985 1_545 S
H1022 N1019 0.987 1_455 S
H1023 N1019 0.985 . S
H1024 N1018 0.984 . S
H1025 N1018 0.987 1_655 S
H1026 N1014 0.984 1_565 S
H1027 N1014 0.985 . S
C1028 C1029 1.363 . S
C1028 C1034 1.379 . S
C1028 N1036 1.356 . S
C1029 C1028 1.363 . S
C1029 C1035 1.363 . S
C1030 C1031 1.363 . S
C1030 C1035 1.379 . S
C1030 N1037 1.356 . S
C1031 C1030 1.363 . S
C1031 C1034 1.363 . S
N1032 C1034 1.356 . S
N1032 H1044 0.984 . S
N1032 H1045 0.985 . S
N1033 C1035 1.356 . S
N1033 H1038 0.984 . S
N1033 H1039 0.985 . S
C1034 C1028 1.379 . S
C1034 C1031 1.363 . S
C1034 N1032 1.356 . S
C1035 C1029 1.363 . S
C1035 C1030 1.379 . S
C1035 N1033 1.356 . S
N1036 C1028 1.356 . S
N1036 H1042 0.984 . S
N1036 H1043 0.984 . S
N1037 C1030 1.356 . S
N1037 H1040 0.984 . S
N1037 H1041 0.985 . S
H1038 N1033 0.984 . S
H1039 N1033 0.985 . S
H1040 N1037 0.984 . S
H1041 N1037 0.985 . S
H1042 N1036 0.984 . S
H1043 N1036 0.984 . S
H1044 N1032 0.984 . S
H1045 N1032 0.985 . S
C1046 C1047 1.363 . S
C1046 C1052 1.371 1_544 S
C1046 N1054 1.356 . S
C1047 C1046 1.363 . S
C1047 C1053 1.371 . S
C1048 C1049 1.363 . S
C1048 C1053 1.371 1_566 S
C1048 N1055 1.356 . S
C1049 C1048 1.363 . S
C1049 C1052 1.371 . S
N1050 C1052 1.359 . S
N1050 H1062 0.984 1_565 S
N1050 H1063 0.985 . S
N1051 C1053 1.359 . S
N1051 H1056 0.984 . S
N1051 H1057 0.985 1_545 S
C1052 C1046 1.371 1_566 S
C1052 C1049 1.371 . S
C1052 N1050 1.359 . S
C1053 C1047 1.371 . S
C1053 C1048 1.371 1_544 S
C1053 N1051 1.359 . S
N1054 C1046 1.356 . S
N1054 H1060 0.984 . S
N1054 H1061 0.984 . S
N1055 C1048 1.356 . S
N1055 H1058 0.984 . S
N1055 H1059 0.985 . S
H1056 N1051 0.984 . S
H1057 N1051 0.985 1_565 S
H1058 N1055 0.984 . S
H1059 N1055 0.985 . S
H1060 N1054 0.984 . S
H1061 N1054 0.984 . S
H1062 N1050 0.984 1_545 S
H1063 N1050 0.985 . S
C1064 C1065 1.363 . S
C1064 C1070 1.379 . S
C1064 N1072 1.356 . S
C1065 C1064 1.363 . S
C1065 C1071 1.363 . S
C1066 C1067 1.363 . S
C1066 C1071 1.379 . S
C1066 N1073 1.356 . S
C1067 C1066 1.363 . S
C1067 C1070 1.363 . S
N1068 C1070 1.356 . S
N1068 H1080 0.984 . S
N1068 H1081 0.985 . S
N1069 C1071 1.356 . S
N1069 H1074 0.984 . S
N1069 H1075 0.985 . S
C1070 C1064 1.379 . S
C1070 C1067 1.363 . S
C1070 N1068 1.356 . S
C1071 C1065 1.363 . S
C1071 C1066 1.379 . S
C1071 N1069 1.356 . S
N1072 C1064 1.356 . S
N1072 H1078 0.984 . S
N1072 H1079 0.984 . S
N1073 C1066 1.356 . S
N1073 H1076 0.984 . S
N1073 H1077 0.985 . S
H1074 N1069 0.984 . S
H1075 N1069 0.985 . S
H1076 N1073 0.984 . S
H1077 N1073 0.985 . S
H1078 N1072 0.984 . S
H1079 N1072 0.984 . S
H1080 N1068 0.984 . S
H1081 N1068 0.985 . S
C1082 C1083 1.363 . S
C1082 C1088 1.379 1_565 S
C1082 N1090 1.356 . S
C1083 C1082 1.363 . S
C1083 C1089 1.363 . S
C1084 C1085 1.363 . S
C1084 C1089 1.379 1_545 S
C1084 N1091 1.356 . S
C1085 C1084 1.363 . S
C1085 C1088 1.363 . S
N1086 C1088 1.356 . S
N1086 H1098 0.984 . S
N1086 H1099 0.985 . S
N1087 C1089 1.356 . S
N1087 H1092 0.984 . S
N1087 H1093 0.985 . S
C1088 C1082 1.379 1_545 S
C1088 C1085 1.363 . S
C1088 N1086 1.356 . S
C1089 C1083 1.363 . S
C1089 C1084 1.379 1_565 S
C1089 N1087 1.356 . S
N1090 C1082 1.356 . S
N1090 H1096 0.984 1_565 S
N1090 H1097 0.984 . S
N1091 C1084 1.356 . S
N1091 H1094 0.984 . S
N1091 H1095 0.985 1_545 S
H1092 N1087 0.984 . S
H1093 N1087 0.985 . S
H1094 N1091 0.984 . S
H1095 N1091 0.985 1_565 S
H1096 N1090 0.984 1_545 S
H1097 N1090 0.984 . S
H1098 N1086 0.984 . S
H1099 N1086 0.985 . S
C1100 C1101 1.363 . S
C1100 C1106 1.379 . S
C1100 N1108 1.356 . S
C1101 C1100 1.363 . S
C1101 C1107 1.363 . S
C1102 C1103 1.363 . S
C1102 C1107 1.379 . S
C1102 N1109 1.356 . S
C1103 C1102 1.363 . S
C1103 C1106 1.363 . S
N1104 C1106 1.356 . S
N1104 H1116 0.984 . S
N1104 H1117 0.985 . S
N1105 C1107 1.356 . S
N1105 H1110 0.984 . S
N1105 H1111 0.985 . S
C1106 C1100 1.379 . S
C1106 C1103 1.363 . S
C1106 N1104 1.356 . S
C1107 C1101 1.363 . S
C1107 C1102 1.379 . S
C1107 N1105 1.356 . S
N1108 C1100 1.356 . S
N1108 H1114 0.984 . S
N1108 H1115 0.984 . S
N1109 C1102 1.356 . S
N1109 H1112 0.984 . S
N1109 H1113 0.985 . S
H1110 N1105 0.984 . S
H1111 N1105 0.985 . S
H1112 N1109 0.984 . S
H1113 N1109 0.985 . S
H1114 N1108 0.984 . S
H1115 N1108 0.984 . S
H1116 N1104 0.984 . S
H1117 N1104 0.985 . S
C1118 C1119 1.363 1_454 S
C1118 C1124 1.354 1_545 S
C1118 N1126 1.356 . S
C1119 C1118 1.363 1_656 S
C1119 C1125 1.388 . S
C1120 C1121 1.363 1_656 S
C1120 C1125 1.354 1_565 S
C1120 N1127 1.356 . S
C1121 C1120 1.363 1_454 S
C1121 C1124 1.388 . S
N1122 C1124 1.365 . S
N1122 H1134 0.984 1_565 S
N1122 H1135 0.985 . S
N1123 C1125 1.365 . S
N1123 H1128 0.984 . S
N1123 H1129 0.985 1_545 S
C1124 C1118 1.354 1_565 S
C1124 C1121 1.388 . S
C1124 N1122 1.365 . S
C1125 C1119 1.388 . S
C1125 C1120 1.354 1_545 S
C1125 N1123 1.365 . S
N1126 C1118 1.356 . S
N1126 H1132 0.984 . S
N1126 H1133 0.984 1_455 S
N1127 C1120 1.356 . S
N1127 H1130 0.984 1_655 S
N1127 H1131 0.985 . S
H1128 N1123 0.984 . S
H1129 N1123 0.985 1_565 S
H1130 N1127 0.984 1_455 S
H1131 N1127 0.985 . S
H1132 N1126 0.984 . S
H1133 N1126 0.984 1_655 S
H1134 N1122 0.984 1_545 S
H1135 N1122 0.985 . S
C1136 C1137 1.363 . S
C1136 C1142 1.379 . S
C1136 N1144 1.356 . S
C1137 C1136 1.363 . S
C1137 C1143 1.363 . S
C1138 C1139 1.363 . S
C1138 C1143 1.379 . S
C1138 N1145 1.356 . S
C1139 C1138 1.363 . S
C1139 C1142 1.363 . S
N1140 C1142 1.356 . S
N1140 H1152 0.984 . S
N1140 H1153 0.985 . S
N1141 C1143 1.356 . S
N1141 H1146 0.984 . S
N1141 H1147 0.985 . S
C1142 C1136 1.379 . S
C1142 C1139 1.363 . S
C1142 N1140 1.356 . S
C1143 C1137 1.363 . S
C1143 C1138 1.379 . S
C1143 N1141 1.356 . S
N1144 C1136 1.356 . S
N1144 H1150 0.984 . S
N1144 H1151 0.984 . S
N1145 C1138 1.356 . S
N1145 H1148 0.984 . S
N1145 H1149 0.985 . S
H1146 N1141 0.984 . S
H1147 N1141 0.985 . S
H1148 N1145 0.984 . S
H1149 N1145 0.985 . S
H1150 N1144 0.984 . S
H1151 N1144 0.984 . S
H1152 N1140 0.984 . S
H1153 N1140 0.985 . S
C1154 C1155 1.363 . S
C1154 C1160 1.379 . S
C1154 N1162 1.356 . S
C1155 C1154 1.363 . S
C1155 C1161 1.363 . S
C1156 C1157 1.363 . S
C1156 C1161 1.379 . S
C1156 N1163 1.356 . S
C1157 C1156 1.363 . S
C1157 C1160 1.363 . S
N1158 C1160 1.356 . S
N1158 H1170 0.984 . S
N1158 H1171 0.985 . S
N1159 C1161 1.356 . S
N1159 H1164 0.984 . S
N1159 H1165 0.985 . S
C1160 C1154 1.379 . S
C1160 C1157 1.363 . S
C1160 N1158 1.356 . S
C1161 C1155 1.363 . S
C1161 C1156 1.379 . S
C1161 N1159 1.356 . S
N1162 C1154 1.356 . S
N1162 H1168 0.984 . S
N1162 H1169 0.984 . S
N1163 C1156 1.356 . S
N1163 H1166 0.984 . S
N1163 H1167 0.985 . S
H1164 N1159 0.984 . S
H1165 N1159 0.985 . S
H1166 N1163 0.984 . S
H1167 N1163 0.985 . S
H1168 N1162 0.984 . S
H1169 N1162 0.984 . S
H1170 N1158 0.984 . S
H1171 N1158 0.985 . S
C1172 C1173 1.363 . S
C1172 C1178 1.379 . S
C1172 N1180 1.356 . S
C1173 C1172 1.363 . S
C1173 C1179 1.363 . S
C1174 C1175 1.363 . S
C1174 C1179 1.379 . S
C1174 N1181 1.356 . S
C1175 C1174 1.363 . S
C1175 C1178 1.363 . S
N1176 C1178 1.356 . S
N1176 H1188 0.984 . S
N1176 H1189 0.985 . S
N1177 C1179 1.356 . S
N1177 H1182 0.984 . S
N1177 H1183 0.985 . S
C1178 C1172 1.379 . S
C1178 C1175 1.363 . S
C1178 N1176 1.356 . S
C1179 C1173 1.363 . S
C1179 C1174 1.379 . S
C1179 N1177 1.356 . S
N1180 C1172 1.356 . S
N1180 H1186 0.984 . S
N1180 H1187 0.984 . S
N1181 C1174 1.356 . S
N1181 H1184 0.984 . S
N1181 H1185 0.985 . S
H1182 N1177 0.984 . S
H1183 N1177 0.985 . S
H1184 N1181 0.984 . S
H1185 N1181 0.985 . S
H1186 N1180 0.984 . S
H1187 N1180 0.984 . S
H1188 N1176 0.984 . S
H1189 N1176 0.985 . S
C1190 C1191 1.363 . S
C1190 C1196 1.379 . S
C1190 N1198 1.356 . S
C1191 C1190 1.363 . S
C1191 C1197 1.363 . S
C1192 C1193 1.363 . S
C1192 C1197 1.379 . S
C1192 N1199 1.356 . S
C1193 C1192 1.363 . S
C1193 C1196 1.363 . S
N1194 C1196 1.356 . S
N1194 H1206 0.984 . S
N1194 H1207 0.985 . S
N1195 C1197 1.356 . S
N1195 H1200 0.984 . S
N1195 H1201 0.985 . S
C1196 C1190 1.379 . S
C1196 C1193 1.363 . S
C1196 N1194 1.356 . S
C1197 C1191 1.363 . S
C1197 C1192 1.379 . S
C1197 N1195 1.356 . S
N1198 C1190 1.356 . S
N1198 H1204 0.984 . S
N1198 H1205 0.984 . S
N1199 C1192 1.356 . S
N1199 H1202 0.984 . S
N1199 H1203 0.985 . S
H1200 N1195 0.984 . S
H1201 N1195 0.985 . S
H1202 N1199 0.984 . S
H1203 N1199 0.985 . S
H1204 N1198 0.984 . S
H1205 N1198 0.984 . S
H1206 N1194 0.984 . S
H1207 N1194 0.985 . S
C1208 C1209 1.363 1_556 S
C1208 C1214 1.379 . S
C1208 N1216 1.356 . S
C1209 C1208 1.363 1_554 S
C1209 C1215 1.363 . S
C1210 C1211 1.363 1_554 S
C1210 C1215 1.379 . S
C1210 N1217 1.356 . S
C1211 C1210 1.363 1_556 S
C1211 C1214 1.363 . S
N1212 C1214 1.356 . S
N1212 H1224 0.984 . S
N1212 H1225 0.985 . S
N1213 C1215 1.356 . S
N1213 H1218 0.984 . S
N1213 H1219 0.985 . S
C1214 C1208 1.379 . S
C1214 C1211 1.363 . S
C1214 N1212 1.356 . S
C1215 C1209 1.363 . S
C1215 C1210 1.379 . S
C1215 N1213 1.356 . S
N1216 C1208 1.356 . S
N1216 H1222 0.984 . S
N1216 H1223 0.984 . S
N1217 C1210 1.356 . S
N1217 H1220 0.984 . S
N1217 H1221 0.985 . S
H1218 N1213 0.984 . S
H1219 N1213 0.985 . S
H1220 N1217 0.984 . S
H1221 N1217 0.985 . S
H1222 N1216 0.984 . S
H1223 N1216 0.984 . S
H1224 N1212 0.984 . S
H1225 N1212 0.985 . S
C1226 C1227 1.363 . S
C1226 C1232 1.379 . S
C1226 N1234 1.356 . S
C1227 C1226 1.363 . S
C1227 C1233 1.363 1_655 S
C1228 C1229 1.363 . S
C1228 C1233 1.379 . S
C1228 N1235 1.356 . S
C1229 C1228 1.363 . S
C1229 C1232 1.363 1_455 S
N1230 C1232 1.356 . S
N1230 H1242 0.984 . S
N1230 H1243 0.985 1_655 S
N1231 C1233 1.356 . S
N1231 H1236 0.984 1_455 S
N1231 H1237 0.985 . S
C1232 C1226 1.379 . S
C1232 C1229 1.363 1_655 S
C1232 N1230 1.356 . S
C1233 C1227 1.363 1_455 S
C1233 C1228 1.379 . S
C1233 N1231 1.356 . S
N1234 C1226 1.356 . S
N1234 H1240 0.984 . S
N1234 H1241 0.984 . S
N1235 C1228 1.356 . S
N1235 H1238 0.984 . S
N1235 H1239 0.985 . S
H1236 N1231 0.984 1_655 S
H1237 N1231 0.985 . S
H1238 N1235 0.984 . S
H1239 N1235 0.985 . S
H1240 N1234 0.984 . S
H1241 N1234 0.984 . S
H1242 N1230 0.984 . S
H1243 N1230 0.985 1_455 S
C1244 C1245 1.363 . S
C1244 C1250 1.379 . S
C1244 N1252 1.356 . S
C1245 C1244 1.363 . S
C1245 C1251 1.363 1_456 S
C1246 C1247 1.363 . S
C1246 C1251 1.379 . S
C1246 N1253 1.356 . S
C1247 C1246 1.363 . S
C1247 C1250 1.363 1_654 S
N1248 C1250 1.356 . S
N1248 H1260 0.984 . S
N1248 H1261 0.985 1_455 S
N1249 C1251 1.356 . S
N1249 H1254 0.984 1_655 S
N1249 H1255 0.985 . S
C1250 C1244 1.379 . S
C1250 C1247 1.363 1_456 S
C1250 N1248 1.356 . S
C1251 C1245 1.363 1_654 S
C1251 C1246 1.379 . S
C1251 N1249 1.356 . S
N1252 C1244 1.356 . S
N1252 H1258 0.984 . S
N1252 H1259 0.984 . S
N1253 C1246 1.356 . S
N1253 H1256 0.984 . S
N1253 H1257 0.985 . S
H1254 N1249 0.984 1_455 S
H1255 N1249 0.985 . S
H1256 N1253 0.984 . S
H1257 N1253 0.985 . S
H1258 N1252 0.984 . S
H1259 N1252 0.984 . S
H1260 N1248 0.984 . S
H1261 N1248 0.985 1_655 S
C1262 C1263 1.363 . S
C1262 C1268 1.379 . S
C1262 N1270 1.356 . S
C1263 C1262 1.363 . S
C1263 C1269 1.363 . S
C1264 C1265 1.363 . S
C1264 C1269 1.379 . S
C1264 N1271 1.356 . S
C1265 C1264 1.363 . S
C1265 C1268 1.363 . S
N1266 C1268 1.356 . S
N1266 H1278 0.984 . S
N1266 H1279 0.985 . S
N1267 C1269 1.356 . S
N1267 H1272 0.984 . S
N1267 H1273 0.985 . S
C1268 C1262 1.379 . S
C1268 C1265 1.363 . S
C1268 N1266 1.356 . S
C1269 C1263 1.363 . S
C1269 C1264 1.379 . S
C1269 N1267 1.356 . S
N1270 C1262 1.356 . S
N1270 H1276 0.984 . S
N1270 H1277 0.984 . S
N1271 C1264 1.356 . S
N1271 H1274 0.984 . S
N1271 H1275 0.985 . S
H1272 N1267 0.984 . S
H1273 N1267 0.985 . S
H1274 N1271 0.984 . S
H1275 N1271 0.985 . S
H1276 N1270 0.984 . S
H1277 N1270 0.984 . S
H1278 N1266 0.984 . S
H1279 N1266 0.985 . S
C1280 C1281 1.363 . S
C1280 C1286 1.379 . S
C1280 N1288 1.356 . S
C1281 C1280 1.363 . S
C1281 C1287 1.363 . S
C1282 C1283 1.363 . S
C1282 C1287 1.379 . S
C1282 N1289 1.356 . S
C1283 C1282 1.363 . S
C1283 C1286 1.363 . S
N1284 C1286 1.356 . S
N1284 H1296 0.984 . S
N1284 H1297 0.985 . S
N1285 C1287 1.356 . S
N1285 H1290 0.984 . S
N1285 H1291 0.985 . S
C1286 C1280 1.379 . S
C1286 C1283 1.363 . S
C1286 N1284 1.356 . S
C1287 C1281 1.363 . S
C1287 C1282 1.379 . S
C1287 N1285 1.356 . S
N1288 C1280 1.356 . S
N1288 H1294 0.984 . S
N1288 H1295 0.984 . S
N1289 C1282 1.356 . S
N1289 H1292 0.984 . S
N1289 H1293 0.985 . S
H1290 N1285 0.984 . S
H1291 N1285 0.985 . S
H1292 N1289 0.984 . S
H1293 N1289 0.985 . S
H1294 N1288 0.984 . S
H1295 N1288 0.984 . S
H1296 N1284 0.984 . S
H1297 N1284 0.985 . S
C1298 C1299 1.363 . S
C1298 C1304 1.379 . S
C1298 N1306 1.356 . S
C1299 C1298 1.363 . S
C1299 C1305 1.363 . S
C1300 C1301 1.363 . S
C1300 C1305 1.379 . S
C1300 N1307 1.356 . S
C1301 C1300 1.363 . S
C1301 C1304 1.363 . S
N1302 C1304 1.356 . S
N1302 H1314 0.984 . S
N1302 H1315 0.985 . S
N1303 C1305 1.356 . S
N1303 H1308 0.984 . S
N1303 H1309 0.985 . S
C1304 C1298 1.379 . S
C1304 C1301 1.363 . S
C1304 N1302 1.356 . S
C1305 C1299 1.363 . S
C1305 C1300 1.379 . S
C1305 N1303 1.356 . S
N1306 C1298 1.356 . S
N1306 H1312 0.984 . S
N1306 H1313 0.984 . S
N1307 C1300 1.356 . S
N1307 H1310 0.984 . S
N1307 H1311 0.985 . S
H1308 N1303 0.984 . S
H1309 N1303 0.985 . S
H1310 N1307 0.984 . S
H1311 N1307 0.985 . S
H1312 N1306 0.984 . S
H1313 N1306 0.984 . S
H1314 N1302 0.984 . S
H1315 N1302 0.985 . S
C1316 C1317 1.363 . S
C1316 C1322 1.379 . S
C1316 N1324 1.356 . S
C1317 C1316 1.363 . S
C1317 C1323 1.363 . S
C1318 C1319 1.363 . S
C1318 C1323 1.379 . S
C1318 N1325 1.356 . S
C1319 C1318 1.363 . S
C1319 C1322 1.363 . S
N1320 C1322 1.356 . S
N1320 H1332 0.984 . S
N1320 H1333 0.985 . S
N1321 C1323 1.356 . S
N1321 H1326 0.984 . S
N1321 H1327 0.985 . S
C1322 C1316 1.379 . S
C1322 C1319 1.363 . S
C1322 N1320 1.356 . S
C1323 C1317 1.363 . S
C1323 C1318 1.379 . S
C1323 N1321 1.356 . S
N1324 C1316 1.356 . S
N1324 H1330 0.984 . S
N1324 H1331 0.984 . S
N1325 C1318 1.356 . S
N1325 H1328 0.984 . S
N1325 H1329 0.985 . S
H1326 N1321 0.984 . S
H1327 N1321 0.985 . S
H1328 N1325 0.984 . S
H1329 N1325 0.985 . S
H1330 N1324 0.984 . S
H1331 N1324 0.984 . S
H1332 N1320 0.984 . S
H1333 N1320 0.985 . S
C1334 C1335 1.363 . S
C1334 C1340 1.379 . S
C1334 N1342 1.356 . S
C1335 C1334 1.363 . S
C1335 C1341 1.363 . S
C1336 C1337 1.363 . S
C1336 C1341 1.379 . S
C1336 N1343 1.356 . S
C1337 C1336 1.363 . S
C1337 C1340 1.363 . S
N1338 C1340 1.356 . S
N1338 H1350 0.984 . S
N1338 H1351 0.985 . S
N1339 C1341 1.356 . S
N1339 H1344 0.984 . S
N1339 H1345 0.985 . S
C1340 C1334 1.379 . S
C1340 C1337 1.363 . S
C1340 N1338 1.356 . S
C1341 C1335 1.363 . S
C1341 C1336 1.379 . S
C1341 N1339 1.356 . S
N1342 C1334 1.356 . S
N1342 H1348 0.984 . S
N1342 H1349 0.984 . S
N1343 C1336 1.356 . S
N1343 H1346 0.984 . S
N1343 H1347 0.985 . S
H1344 N1339 0.984 . S
H1345 N1339 0.985 . S
H1346 N1343 0.984 . S
H1347 N1343 0.985 . S
H1348 N1342 0.984 . S
H1349 N1342 0.984 . S
H1350 N1338 0.984 . S
H1351 N1338 0.985 . S
C1352 C1353 1.363 . S
C1352 C1358 1.379 . S
C1352 N1360 1.356 . S
C1353 C1352 1.363 . S
C1353 C1359 1.363 . S
C1354 C1355 1.363 . S
C1354 C1359 1.379 . S
C1354 N1361 1.356 . S
C1355 C1354 1.363 . S
C1355 C1358 1.363 . S
N1356 C1358 1.356 . S
N1356 H1368 0.984 . S
N1356 H1369 0.985 . S
N1357 C1359 1.356 . S
N1357 H1362 0.984 . S
N1357 H1363 0.985 . S
C1358 C1352 1.379 . S
C1358 C1355 1.363 . S
C1358 N1356 1.356 . S
C1359 C1353 1.363 . S
C1359 C1354 1.379 . S
C1359 N1357 1.356 . S
N1360 C1352 1.356 . S
N1360 H1366 0.984 . S
N1360 H1367 0.984 . S
N1361 C1354 1.356 . S
N1361 H1364 0.984 . S
N1361 H1365 0.985 . S
H1362 N1357 0.984 . S
H1363 N1357 0.985 . S
H1364 N1361 0.984 . S
H1365 N1361 0.985 . S
H1366 N1360 0.984 . S
H1367 N1360 0.984 . S
H1368 N1356 0.984 . S
H1369 N1356 0.985 . S
C1370 C1371 1.363 . S
C1370 C1376 1.379 . S
C1370 N1378 1.356 . S
C1371 C1370 1.363 . S
C1371 C1377 1.363 . S
C1372 C1373 1.363 . S
C1372 C1377 1.379 . S
C1372 N1379 1.356 . S
C1373 C1372 1.363 . S
C1373 C1376 1.363 . S
N1374 C1376 1.356 . S
N1374 H1386 0.984 . S
N1374 H1387 0.985 . S
N1375 C1377 1.356 . S
N1375 H1380 0.984 . S
N1375 H1381 0.985 . S
C1376 C1370 1.379 . S
C1376 C1373 1.363 . S
C1376 N1374 1.356 . S
C1377 C1371 1.363 . S
C1377 C1372 1.379 . S
C1377 N1375 1.356 . S
N1378 C1370 1.356 . S
N1378 H1384 0.984 . S
N1378 H1385 0.984 . S
N1379 C1372 1.356 . S
N1379 H1382 0.984 . S
N1379 H1383 0.985 . S
H1380 N1375 0.984 . S
H1381 N1375 0.985 . S
H1382 N1379 0.984 . S
H1383 N1379 0.985 . S
H1384 N1378 0.984 . S
H1385 N1378 0.984 . S
H1386 N1374 0.984 . S
H1387 N1374 0.985 . S
C1388 C1389 1.363 . S
C1388 C1394 1.379 . S
C1388 N1396 1.356 . S
C1389 C1388 1.363 . S
C1389 C1395 1.363 . S
C1390 C1391 1.363 . S
C1390 C1395 1.379 . S
C1390 N1397 1.356 . S
C1391 C1390 1.363 . S
C1391 C1394 1.363 . S
N1392 C1394 1.356 . S
N1392 H1404 0.984 . S
N1392 H1405 0.985 . S
N1393 C1395 1.356 . S
N1393 H1398 0.984 . S
N1393 H1399 0.985 . S
C1394 C1388 1.379 . S
C1394 C1391 1.363 . S
C1394 N1392 1.356 . S
C1395 C1389 1.363 . S
C1395 C1390 1.379 . S
C1395 N1393 1.356 . S
N1396 C1388 1.356 . S
N1396 H1402 0.984 . S
N1396 H1403 0.984 . S
N1397 C1390 1.356 . S
N1397 H1400 0.984 . S
N1397 H1401 0.985 . S
H1398 N1393 0.984 . S
H1399 N1393 0.985 . S
H1400 N1397 0.984 . S
H1401 N1397 0.985 . S
H1402 N1396 0.984 . S
H1403 N1396 0.984 . S
H1404 N1392 0.984 . S
H1405 N1392 0.985 . S
C1406 C1407 1.363 . S
C1406 C1412 1.379 . S
C1406 N1414 1.356 . S
C1407 C1406 1.363 . S
C1407 C1413 1.363 . S
C1408 C1409 1.363 . S
C1408 C1413 1.379 . S
C1408 N1415 1.356 . S
C1409 C1408 1.363 . S
C1409 C1412 1.363 . S
N1410 C1412 1.356 . S
N1410 H1422 0.984 . S
N1410 H1423 0.985 . S
N1411 C1413 1.356 . S
N1411 H1416 0.984 . S
N1411 H1417 0.985 . S
C1412 C1406 1.379 . S
C1412 C1409 1.363 . S
C1412 N1410 1.356 . S
C1413 C1407 1.363 . S
C1413 C1408 1.379 . S
C1413 N1411 1.356 . S
N1414 C1406 1.356 . S
N1414 H1420 0.984 . S
N1414 H1421 0.984 . S
N1415 C1408 1.356 . S
N1415 H1418 0.984 . S
N1415 H1419 0.985 . S
H1416 N1411 0.984 . S
H1417 N1411 0.985 . S
H1418 N1415 0.984 . S
H1419 N1415 0.985 . S
H1420 N1414 0.984 . S
H1421 N1414 0.984 . S
H1422 N1410 0.984 . S
H1423 N1410 0.985 . S
C1424 C1425 1.363 . S
C1424 C1430 1.379 . S
C1424 N1432 1.356 . S
C1425 C1424 1.363 . S
C1425 C1431 1.363 . S
C1426 C1427 1.363 . S
C1426 C1431 1.379 . S
C1426 N1433 1.356 . S
C1427 C1426 1.363 . S
C1427 C1430 1.363 . S
N1428 C1430 1.356 . S
N1428 H1440 0.984 . S
N1428 H1441 0.985 . S
N1429 C1431 1.356 . S
N1429 H1434 0.984 . S
N1429 H1435 0.985 . S
C1430 C1424 1.379 . S
C1430 C1427 1.363 . S
C1430 N1428 1.356 . S
C1431 C1425 1.363 . S
C1431 C1426 1.379 . S
C1431 N1429 1.356 . S
N1432 C1424 1.356 . S
N1432 H1438 0.984 . S
N1432 H1439 0.984 . S
N1433 C1426 1.356 . S
N1433 H1436 0.984 . S
N1433 H1437 0.985 . S
H1434 N1429 0.984 . S
H1435 N1429 0.985 . S
H1436 N1433 0.984 . S
H1437 N1433 0.985 . S
H1438 N1432 0.984 . S
H1439 N1432 0.984 . S
H1440 N1428 0.984 . S
H1441 N1428 0.985 . S
C1442 C1443 1.363 . S
C1442 C1448 1.379 . S
C1442 N1450 1.356 . S
C1443 C1442 1.363 . S
C1443 C1449 1.363 . S
C1444 C1445 1.363 . S
C1444 C1449 1.379 . S
C1444 N1451 1.356 . S
C1445 C1444 1.363 . S
C1445 C1448 1.363 . S
N1446 C1448 1.356 . S
N1446 H1458 0.984 . S
N1446 H1459 0.985 . S
N1447 C1449 1.356 . S
N1447 H1452 0.984 . S
N1447 H1453 0.985 . S
C1448 C1442 1.379 . S
C1448 C1445 1.363 . S
C1448 N1446 1.356 . S
C1449 C1443 1.363 . S
C1449 C1444 1.379 . S
C1449 N1447 1.356 . S
N1450 C1442 1.356 . S
N1450 H1456 0.984 . S
N1450 H1457 0.984 . S
N1451 C1444 1.356 . S
N1451 H1454 0.984 . S
N1451 H1455 0.985 . S
H1452 N1447 0.984 . S
H1453 N1447 0.985 . S
H1454 N1451 0.984 . S
H1455 N1451 0.985 . S
H1456 N1450 0.984 . S
H1457 N1450 0.984 . S
H1458 N1446 0.984 . S
H1459 N1446 0.985 . S
C1460 C1461 1.363 . S
C1460 C1466 1.379 . S
C1460 N1468 1.356 . S
C1461 C1460 1.363 . S
C1461 C1467 1.363 . S
C1462 C1463 1.363 . S
C1462 C1467 1.379 . S
C1462 N1469 1.356 . S
C1463 C1462 1.363 . S
C1463 C1466 1.363 . S
N1464 C1466 1.356 . S
N1464 H1476 0.984 . S
N1464 H1477 0.985 . S
N1465 C1467 1.356 . S
N1465 H1470 0.984 . S
N1465 H1471 0.985 . S
C1466 C1460 1.379 . S
C1466 C1463 1.363 . S
C1466 N1464 1.356 . S
C1467 C1461 1.363 . S
C1467 C1462 1.379 . S
C1467 N1465 1.356 . S
N1468 C1460 1.356 . S
N1468 H1474 0.984 . S
N1468 H1475 0.984 . S
N1469 C1462 1.356 . S
N1469 H1472 0.984 . S
N1469 H1473 0.985 . S
H1470 N1465 0.984 . S
H1471 N1465 0.985 . S
H1472 N1469 0.984 . S
H1473 N1469 0.985 . S
H1474 N1468 0.984 . S
H1475 N1468 0.984 . S
H1476 N1464 0.984 . S
H1477 N1464 0.985 . S
C1478 C1479 1.363 . S
C1478 C1484 1.379 . S
C1478 N1486 1.356 . S
C1479 C1478 1.363 . S
C1479 C1485 1.363 . S
C1480 C1481 1.363 . S
C1480 C1485 1.379 . S
C1480 N1487 1.356 . S
C1481 C1480 1.363 . S
C1481 C1484 1.363 . S
N1482 C1484 1.356 . S
N1482 H1494 0.984 . S
N1482 H1495 0.985 . S
N1483 C1485 1.356 . S
N1483 H1488 0.984 . S
N1483 H1489 0.985 . S
C1484 C1478 1.379 . S
C1484 C1481 1.363 . S
C1484 N1482 1.356 . S
C1485 C1479 1.363 . S
C1485 C1480 1.379 . S
C1485 N1483 1.356 . S
N1486 C1478 1.356 . S
N1486 H1492 0.984 . S
N1486 H1493 0.984 . S
N1487 C1480 1.356 . S
N1487 H1490 0.984 . S
N1487 H1491 0.985 . S
H1488 N1483 0.984 . S
H1489 N1483 0.985 . S
H1490 N1487 0.984 . S
H1491 N1487 0.985 . S
H1492 N1486 0.984 . S
H1493 N1486 0.984 . S
H1494 N1482 0.984 . S
H1495 N1482 0.985 . S
C1496 C1497 1.363 . S
C1496 C1502 1.379 . S
C1496 N1504 1.356 . S
C1497 C1496 1.363 . S
C1497 C1503 1.363 . S
C1498 C1499 1.363 . S
C1498 C1503 1.379 . S
C1498 N1505 1.356 . S
C1499 C1498 1.363 . S
C1499 C1502 1.363 . S
N1500 C1502 1.356 . S
N1500 H1512 0.984 . S
N1500 H1513 0.985 . S
N1501 C1503 1.356 . S
N1501 H1506 0.984 . S
N1501 H1507 0.985 . S
C1502 C1496 1.379 . S
C1502 C1499 1.363 . S
C1502 N1500 1.356 . S
C1503 C1497 1.363 . S
C1503 C1498 1.379 . S
C1503 N1501 1.356 . S
N1504 C1496 1.356 . S
N1504 H1510 0.979 1_655 S
N1504 H1511 0.984 . S
N1505 C1498 1.356 . S
N1505 H1508 0.984 . S
N1505 H1509 0.985 . S
H1506 N1501 0.984 . S
H1507 N1501 0.985 . S
H1508 N1505 0.984 . S
H1509 N1505 0.985 . S
H1510 N1504 0.979 1_455 S
H1511 N1504 0.984 . S
H1512 N1500 0.984 . S
H1513 N1500 0.985 . S
C1514 C1515 1.363 . S
C1514 C1520 1.379 . S
C1514 N1522 1.356 . S
C1515 C1514 1.363 . S
C1515 C1521 1.363 . S
C1516 C1517 1.363 . S
C1516 C1521 1.379 . S
C1516 N1523 1.356 . S
C1517 C1516 1.363 . S
C1517 C1520 1.363 . S
N1518 C1520 1.356 . S
N1518 H1530 0.984 . S
N1518 H1531 0.985 . S
N1519 C1521 1.356 . S
N1519 H1524 0.984 . S
N1519 H1525 0.985 . S
C1520 C1514 1.379 . S
C1520 C1517 1.363 . S
C1520 N1518 1.356 . S
C1521 C1515 1.363 . S
C1521 C1516 1.379 . S
C1521 N1519 1.356 . S
N1522 C1514 1.356 . S
N1522 H1528 0.984 . S
N1522 H1529 0.984 . S
N1523 C1516 1.356 . S
N1523 H1526 0.984 . S
N1523 H1527 0.985 . S
H1524 N1519 0.984 . S
H1525 N1519 0.985 . S
H1526 N1523 0.984 . S
H1527 N1523 0.985 . S
H1528 N1522 0.984 . S
H1529 N1522 0.984 . S
H1530 N1518 0.984 . S
H1531 N1518 0.985 . S
C1532 C1533 1.363 . S
C1532 C1538 1.379 . S
C1532 N1540 1.356 . S
C1533 C1532 1.363 . S
C1533 C1539 1.363 . S
C1534 C1535 1.363 . S
C1534 C1539 1.379 . S
C1534 N1541 1.356 . S
C1535 C1534 1.363 . S
C1535 C1538 1.363 . S
N1536 C1538 1.356 . S
N1536 H1548 0.984 . S
N1536 H1549 0.985 . S
N1537 C1539 1.356 . S
N1537 H1542 0.984 . S
N1537 H1543 0.985 . S
C1538 C1532 1.379 . S
C1538 C1535 1.363 . S
C1538 N1536 1.356 . S
C1539 C1533 1.363 . S
C1539 C1534 1.379 . S
C1539 N1537 1.356 . S
N1540 C1532 1.356 . S
N1540 H1546 0.984 . S
N1540 H1547 0.984 . S
N1541 C1534 1.356 . S
N1541 H1544 0.984 . S
N1541 H1545 0.985 . S
H1542 N1537 0.984 . S
H1543 N1537 0.985 . S
H1544 N1541 0.984 . S
H1545 N1541 0.985 . S
H1546 N1540 0.984 . S
H1547 N1540 0.984 . S
H1548 N1536 0.984 . S
H1549 N1536 0.985 . S
C1550 C1551 1.363 . S
C1550 C1556 1.379 . S
C1550 N1558 1.356 . S
C1551 C1550 1.363 . S
C1551 C1557 1.363 . S
C1552 C1553 1.363 . S
C1552 C1557 1.379 . S
C1552 N1559 1.356 . S
C1553 C1552 1.363 . S
C1553 C1556 1.363 . S
N1554 C1556 1.356 . S
N1554 H1566 0.984 . S
N1554 H1567 0.985 . S
N1555 C1557 1.356 . S
N1555 H1560 0.984 . S
N1555 H1561 0.985 . S
C1556 C1550 1.379 . S
C1556 C1553 1.363 . S
C1556 N1554 1.356 . S
C1557 C1551 1.363 . S
C1557 C1552 1.379 . S
C1557 N1555 1.356 . S
N1558 C1550 1.356 . S
N1558 H1564 0.984 . S
N1558 H1565 0.984 . S
N1559 C1552 1.356 . S
N1559 H1562 0.984 . S
N1559 H1563 0.985 . S
H1560 N1555 0.984 . S
H1561 N1555 0.985 . S
H1562 N1559 0.984 . S
H1563 N1559 0.985 . S
H1564 N1558 0.984 . S
H1565 N1558 0.984 . S
H1566 N1554 0.984 . S
H1567 N1554 0.985 . S
C417 C122 1.013 . S
C419 C10 1.120 . S
C435 C23 1.120 . S
C437 C343 1.013 . S
C453 C148 1.013 . S
C455 C36 1.120 . S
C471 C317 1.013 . S
C473 C49 1.120 . S
C489 C62 1.120 . S
C491 C200 1.013 . S
C507 C369 1.013 . S
C509 C75 1.120 . S
C525 C88 1.120 . S
C527 C174 1.013 . S
C543 C395 1.013 . S
C545 C101 1.120 . S
C561 C18 1.013 . S
C563 C114 1.120 . S
C579 C127 1.120 . S
C581 C239 1.013 . S
C597 C44 1.013 . S
C599 C140 1.120 . S
C615 C153 1.120 . S
C617 C213 1.013 . S
C633 C166 1.120 . S
C635 C96 1.013 . S
C651 C265 1.013 . S
C653 C179 1.120 . S
C669 C192 1.120 . S
C671 C70 1.013 . S
C687 C291 1.013 . S
C689 C205 1.120 . S
C705 C330 1.013 . S
C707 C218 1.120 . S
C723 C135 1.013 . S
C725 C231 1.120 . S
C741 C244 1.120 . S
C743 C356 1.013 . S
C759 C109 1.013 . S
C761 C257 1.120 . S
C777 C408 1.013 . S
C779 C270 1.120 . S
C795 C283 1.120 . S
C797 C161 1.013 . S
C813 C382 1.013 . S
C815 C296 1.120 . S
C831 C187 1.013 . S
C833 C309 1.120 . S
C849 C226 1.013 . S
C851 C322 1.120 . S
C867 C335 1.120 . S
C869 C31 1.013 . S
C885 C348 1.120 . S
C887 C252 1.013 . S
C903 C361 1.120 . S
C905 C5 1.013 . S
C921 C304 1.013 . S
C923 C374 1.120 . S
C939 C387 1.120 . S
C941 C57 1.013 . S
C957 C400 1.120 . S
C959 C278 1.013 . S
C975 C413 1.120 . S
C977 C83 1.013 . S
C993 C312 1.318 . S
C995 C0 1.318 . S
C1011 C13 1.318 . S
C1013 C117 1.318 . S
C1029 C26 1.318 . S
C1031 C338 1.318 . S
C1047 C39 1.317 . S
C1049 C143 1.317 . S
C1065 C52 1.318 . S
C1067 C364 1.318 . S
C1083 C65 1.317 . S
C1085 C169 1.317 . S
C1101 C390 1.318 . S
C1103 C78 1.318 . S
C1119 C91 1.318 . S
C1121 C195 1.318 . S
C1137 C104 1.318 . S
C1139 C208 1.318 . S
C1155 C130 1.318 . S
C1157 C234 1.318 . S
C1173 C260 1.318 . S
C1175 C156 1.318 . S
C1191 C286 1.318 . S
C1193 C182 1.318 . S
C1209 C221 1.318 . S
C1211 C325 1.318 . S
C1227 C351 1.318 . S
C1229 C247 1.318 . S
C1245 C273 1.318 . S
C1247 C377 1.318 . S
C1263 C403 1.318 . S
C1265 C299 1.318 . S
C1281 C281 1.591 . S
C1283 C8 1.591 . S
C1299 C294 1.592 . S
C1301 C21 1.592 . S
C1317 C34 1.591 . S
C1319 C307 1.591 . S
C1335 C268 1.591 . S
C1337 C47 1.591 . S
C1353 C255 1.591 . S
C1355 C60 1.591 . S
C1371 C216 1.591 . S
C1373 C73 1.591 . S
C1389 C86 1.591 . S
C1391 C229 1.591 . S
C1407 C242 1.592 . S
C1409 C99 1.592 . S
C1425 C385 1.591 . S
C1427 C112 1.591 . S
C1443 C398 1.592 . S
C1445 C125 1.592 . S
C1461 C411 1.591 . S
C1463 C138 1.591 . S
C1479 C151 1.591 . S
C1481 C372 1.591 . S
C1497 C359 1.591 . S
C1499 C164 1.591 . S
C1515 C320 1.591 . S
C1517 C177 1.591 . S
C1533 C333 1.591 . S
C1535 C190 1.591 . S
C1551 C346 1.592 . S
C1553 C203 1.592 . S
