# Generated by pormake.
# Topology fcu, (12)-cn, num edge types: 1
# Building blocks:
#     Node 0, Type 0, BuildingBlock: EZIPEK_clean_sbu_0, # of connection points: 12
#     Node 1, Type 0, BuildingBlock: EZIPEK_clean_sbu_0, # of connection points: 12
#     Node 2, Type 0, BuildingBlock: EZIPEK_clean_sbu_0, # of connection points: 12
#     Node 3, Type 0, BuildingBlock: EZIPEK_clean_sbu_0, # of connection points: 12
#     Edge 4, Type (0, 0), BuildingBlock: EYOCIG_clean_linker_4, # of connection points: 2
#     Edge 5, Type (0, 0), BuildingBlock: EYOCIG_clean_linker_4, # of connection points: 2
#     Edge 6, Type (0, 0), BuildingBlock: EYOCIG_clean_linker_4, # of connection points: 2
#     Edge 7, Type (0, 0), BuildingBlock: EYOCIG_clean_linker_4, # of connection points: 2
#     Edge 8, Type (0, 0), BuildingBlock: EYOCIG_clean_linker_4, # of connection points: 2
#     Edge 9, Type (0, 0), BuildingBlock: EYOCIG_clean_linker_4, # of connection points: 2
#     Edge 10, Type (0, 0), BuildingBlock: EYOCIG_clean_linker_4, # of connection points: 2
#     Edge 11, Type (0, 0), BuildingBlock: EYOCIG_clean_linker_4, # of connection points: 2
#     Edge 12, Type (0, 0), BuildingBlock: EYOCIG_clean_linker_4, # of connection points: 2
#     Edge 13, Type (0, 0), BuildingBlock: EYOCIG_clean_linker_4, # of connection points: 2
#     Edge 14, Type (0, 0), BuildingBlock: EYOCIG_clean_linker_4, # of connection points: 2
#     Edge 15, Type (0, 0), BuildingBlock: EYOCIG_clean_linker_4, # of connection points: 2
#     Edge 16, Type (0, 0), BuildingBlock: EYOCIG_clean_linker_4, # of connection points: 2
#     Edge 17, Type (0, 0), BuildingBlock: EYOCIG_clean_linker_4, # of connection points: 2
#     Edge 18, Type (0, 0), BuildingBlock: EYOCIG_clean_linker_4, # of connection points: 2
#     Edge 19, Type (0, 0), BuildingBlock: EYOCIG_clean_linker_4, # of connection points: 2
#     Edge 20, Type (0, 0), BuildingBlock: EYOCIG_clean_linker_4, # of connection points: 2
#     Edge 21, Type (0, 0), BuildingBlock: EYOCIG_clean_linker_4, # of connection points: 2
#     Edge 22, Type (0, 0), BuildingBlock: EYOCIG_clean_linker_4, # of connection points: 2
#     Edge 23, Type (0, 0), BuildingBlock: EYOCIG_clean_linker_4, # of connection points: 2
#     Edge 24, Type (0, 0), BuildingBlock: EYOCIG_clean_linker_4, # of connection points: 2
#     Edge 25, Type (0, 0), BuildingBlock: EYOCIG_clean_linker_4, # of connection points: 2
#     Edge 26, Type (0, 0), BuildingBlock: EYOCIG_clean_linker_4, # of connection points: 2
#     Edge 27, Type (0, 0), BuildingBlock: EYOCIG_clean_linker_4, # of connection points: 2
# Relax obj value: 0.000
# Max RMSD: 0.000
# Mean RMSD: 0.000
data_MOF--net-fcu--node1-EZIPEK_clean_sbu_0--edge1-EYOCIG_clean_linker_4
_symmetry_space_group_name_H-M    P1
_symmetry_Int_Tables_number       1
_symmetry_cell_setting            triclinic
loop_
_symmetry_equiv_pos_as_xyz
'x, y, z'
_cell_length_a     22.396191
_cell_length_b     22.400112
_cell_length_c     22.414195
_cell_angle_alpha  89.988203
_cell_angle_beta   89.987681
_cell_angle_gamma 90.011111
loop_
_atom_site_label
_atom_site_type_symbol
_atom_site_fract_x
_atom_site_fract_y
_atom_site_fract_z
_atom_type_partial_charge
C0 C 1.01147 0.86814 0.15663 0.0
C1 C 0.01394 0.86795 0.86806 0.0
C2 C 0.01299 0.15787 0.15578 0.0
C3 C 0.01371 0.1572 0.86798 0.0
C4 C 0.86915 0.15792 1.01219 0.0
C5 C 0.86851 0.86787 0.01283 0.0
C6 C 0.1571 0.15704 0.01336 0.0
C7 C 0.15712 0.86808 1.01129 0.0
C8 C 0.15809 0.01349 0.86868 0.0
C9 C 0.86921 0.01262 0.86672 0.0
C10 C 0.1563 0.01331 0.15773 0.0
C11 C 0.86794 0.01385 0.15657 0.0
Eu12 Eu 0.01271 0.89979 0.01237 0.0
O13 O 0.95972 0.95969 0.959 0.0
O14 O 0.06574 0.95947 0.06592 0.0
Eu15 Eu 0.89928 0.01277 1.01177 0.0
Eu16 Eu 0.12595 1.01247 0.01294 0.0
O17 O 0.95935 0.95991 0.0651 0.0
O18 O 0.06606 0.95965 0.9595 0.0
Eu19 Eu 1.01224 0.0128 0.12541 0.0
Eu20 Eu 0.01333 0.01253 0.89916 0.0
O21 O 0.95944 0.06567 0.06498 0.0
O22 O 0.95981 0.0656 0.95883 0.0
O23 O 0.06628 0.06548 0.95933 0.0
O24 O 0.06567 0.06562 0.06554 0.0
Eu25 Eu 0.01294 0.12536 1.01201 0.0
O26 O 1.0121 0.84962 0.10014 0.0
O27 O 0.01331 0.84952 0.9246 0.0
O28 O 0.0129 0.17593 0.09922 0.0
O29 O 0.01342 0.17568 0.92445 0.0
O30 O 0.84993 0.1015 1.01196 0.0
O31 O 0.84962 0.92436 0.01251 0.0
O32 O 0.17585 0.10055 0.01324 0.0
O33 O 0.17589 0.92453 1.01188 0.0
O34 O 0.10168 0.01309 0.84962 0.0
O35 O 0.92588 0.0126 0.8487 0.0
O36 O 0.09968 0.01308 0.17586 0.0
O37 O 0.92439 0.01344 0.17531 0.0
O38 O 0.1006 0.17553 0.01279 0.0
O39 O 0.92576 0.17597 1.01218 0.0
O40 O 0.10056 0.8496 1.01176 0.0
O41 O 0.92507 0.8495 0.0126 0.0
O42 O 0.01377 0.92444 0.84931 0.0
O43 O 0.01351 0.1007 0.84929 0.0
O44 O 1.01166 0.92465 0.1753 0.0
O45 O 0.01271 0.10144 0.1749 0.0
O46 O 0.8494 0.01344 0.1 0.0
O47 O 0.84995 0.01261 0.9231 0.0
O48 O 0.17543 0.01288 0.10135 0.0
O49 O 0.17628 0.01315 0.92528 0.0
C50 C 0.01338 0.36885 0.65741 0.0
C51 C 0.0138 0.65726 0.65656 0.0
C52 C 0.0133 0.36848 0.36745 0.0
C53 C 1.0116 0.65738 0.36805 0.0
C54 C 0.15747 0.5117 0.36811 0.0
C55 C 0.15686 0.51371 0.65693 0.0
C56 C 0.8675 0.51174 0.36842 0.0
C57 C 0.86716 0.51289 0.65575 0.0
C58 C 0.8684 0.65723 0.51128 0.0
C59 C 0.1565 0.65754 0.51237 0.0
C60 C 0.868 0.36827 0.51338 0.0
C61 C 0.15623 0.36728 0.51273 0.0
Eu62 Eu 1.01225 0.51282 0.62533 0.0
O63 O 0.06557 0.56553 0.56522 0.0
O64 O 0.95938 0.45951 0.56536 0.0
Eu65 Eu 0.12575 0.51243 0.51242 0.0
Eu66 Eu 0.89976 0.51269 0.51214 0.0
O67 O 0.06542 0.45954 0.56537 0.0
O68 O 0.95924 0.56603 0.56546 0.0
Eu69 Eu 1.01234 0.39947 0.51237 0.0
Eu70 Eu 1.0126 0.62559 0.51227 0.0
O71 O 0.0654 0.45966 0.45934 0.0
O72 O 0.06581 0.56563 0.45913 0.0
O73 O 0.95968 0.56573 0.459 0.0
O74 O 0.95959 0.45951 0.45897 0.0
Eu75 Eu 0.01262 0.51274 0.39896 0.0
O76 O 0.01295 0.42539 0.67573 0.0
O77 O 0.0132 0.60078 0.67528 0.0
O78 O 0.01312 0.42499 0.34892 0.0
O79 O 1.01203 0.60092 0.34921 0.0
O80 O 0.17594 0.5119 0.42463 0.0
O81 O 0.17566 0.51318 0.60048 0.0
O82 O 0.84932 0.5121 0.42494 0.0
O83 O 0.84912 0.51281 0.5992 0.0
O84 O 0.9249 0.67576 0.51178 0.0
O85 O 0.1 0.67601 0.51225 0.0
O86 O 0.92444 0.3495 0.51299 0.0
O87 O 0.09967 0.34902 0.51247 0.0
O88 O 0.92399 0.51203 0.34938 0.0
O89 O 0.10096 0.51219 0.34932 0.0
O90 O 0.9236 0.51284 0.67489 0.0
O91 O 0.10025 0.51336 0.67536 0.0
O92 O 0.01335 0.67574 0.60005 0.0
O93 O 1.01206 0.67577 0.42457 0.0
O94 O 0.01305 0.34995 0.60094 0.0
O95 O 0.01291 0.34975 0.42398 0.0
O96 O 0.17525 0.42377 0.51268 0.0
O97 O 0.17529 0.601 0.51237 0.0
O98 O 0.84954 0.42483 0.51289 0.0
O99 O 0.84972 0.60071 0.51149 0.0
C100 C 0.5133 0.86892 0.65753 0.0
C101 C 0.51186 0.15762 0.65613 0.0
C102 C 0.51379 0.86775 0.36801 0.0
C103 C 0.5131 0.15616 0.36672 0.0
C104 C 0.65744 0.01358 0.36826 0.0
C105 C 0.65746 0.01288 0.65619 0.0
C106 C 0.3681 0.01345 0.36803 0.0
C107 C 0.36839 0.01373 0.65672 0.0
C108 C 0.36787 0.15679 0.51281 0.0
C109 C 0.65743 0.15675 0.51319 0.0
C110 C 0.36741 0.86883 0.51226 0.0
C111 C 0.6577 0.86874 0.51158 0.0
Eu112 Eu 0.51277 0.01307 0.62513 0.0
O113 O 0.56562 0.06621 0.56502 0.0
O114 O 0.45967 0.95949 0.56549 0.0
Eu115 Eu 0.62531 0.01268 0.51223 0.0
Eu116 Eu 0.39989 0.01269 0.5123 0.0
O117 O 0.56559 0.95945 0.56539 0.0
O118 O 0.45984 0.06602 0.56493 0.0
Eu119 Eu 0.51257 0.89904 0.51266 0.0
Eu120 Eu 0.51265 0.12609 0.51168 0.0
O121 O 0.56547 0.95919 0.45941 0.0
O122 O 0.56556 0.06568 0.45886 0.0
O123 O 0.45972 0.06565 0.45889 0.0
O124 O 0.45966 0.95912 0.45933 0.0
Eu125 Eu 0.51267 1.01214 0.39915 0.0
O126 O 0.51297 0.92557 0.67561 0.0
O127 O 0.51219 0.10114 0.67493 0.0
O128 O 0.51338 0.92422 0.34929 0.0
O129 O 0.51286 0.09953 0.34865 0.0
O130 O 0.67576 0.01322 0.42477 0.0
O131 O 0.67579 0.01267 0.59967 0.0
O132 O 0.34967 0.01331 0.42455 0.0
O133 O 0.34977 0.01329 0.60024 0.0
O134 O 0.42433 0.17569 0.51233 0.0
O135 O 0.60098 0.17573 0.51265 0.0
O136 O 0.42384 0.84964 0.5124 0.0
O137 O 0.60124 0.84964 0.51199 0.0
O138 O 0.42458 0.01281 0.34926 0.0
O139 O 0.60097 0.01304 0.34942 0.0
O140 O 0.42491 0.01341 0.67526 0.0
O141 O 0.60097 0.01309 0.675 0.0
O142 O 0.51214 0.1761 0.59959 0.0
O143 O 0.51295 0.17537 0.42308 0.0
O144 O 0.51306 0.84972 0.60118 0.0
O145 O 0.51326 0.84915 0.42454 0.0
O146 O 0.67586 0.92534 0.51185 0.0
O147 O 0.6757 0.10019 0.51278 0.0
O148 O 0.34933 0.92543 0.51221 0.0
O149 O 0.34951 0.10023 0.51266 0.0
C150 C 0.51353 0.65743 0.86809 0.0
C151 C 0.51367 0.65745 0.1563 0.0
C152 C 0.51205 0.3689 0.86693 0.0
C153 C 0.51332 0.36774 0.15619 0.0
C154 C 0.65742 0.36834 0.0125 0.0
C155 C 0.65797 0.65614 0.01263 0.0
C156 C 0.36747 0.3687 0.0131 0.0
C157 C 0.36772 0.65659 1.01138 0.0
C158 C 0.36906 0.5119 0.15753 0.0
C159 C 0.65694 0.51154 0.15681 0.0
C160 C 0.36832 0.51374 0.8678 0.0
C161 C 0.65664 0.51296 0.86747 0.0
Eu162 Eu 0.51278 0.62583 0.01231 0.0
O163 O 0.56586 0.56564 0.06528 0.0
O164 O 0.45955 0.56583 0.95941 0.0
Eu165 Eu 0.62555 0.51236 1.01212 0.0
Eu166 Eu 0.39964 0.51267 0.01254 0.0
O167 O 0.56573 0.56576 0.95922 0.0
O168 O 0.45962 0.56584 0.06556 0.0
Eu169 Eu 0.51251 0.51293 0.89935 0.0
Eu170 Eu 0.51287 0.51256 0.1252 0.0
O171 O 0.56557 0.45933 0.95893 0.0
O172 O 0.56543 0.45927 0.06496 0.0
O173 O 0.45984 0.45938 0.06517 0.0
O174 O 0.45942 0.45951 0.95915 0.0
Eu175 Eu 0.51248 0.39913 1.01182 0.0
O176 O 0.51327 0.67596 0.92457 0.0
O177 O 0.51311 0.67602 0.09985 0.0
O178 O 0.5122 0.34971 0.9233 0.0
O179 O 0.51299 0.34918 0.09971 0.0
O180 O 0.67585 0.42486 0.0124 0.0
O181 O 0.67609 0.59957 0.01247 0.0
O182 O 0.34922 0.42526 0.01277 0.0
O183 O 0.34929 0.60008 1.01203 0.0
O184 O 0.42562 0.51222 0.17567 0.0
O185 O 0.60047 0.51195 0.1754 0.0
O186 O 0.42481 0.51351 0.84924 0.0
O187 O 0.60011 0.51295 0.84907 0.0
O188 O 0.42392 0.34965 0.01269 0.0
O189 O 0.60091 0.34949 0.01224 0.0
O190 O 0.42425 0.67544 1.0116 0.0
O191 O 0.60152 0.67527 0.01246 0.0
O192 O 0.51347 0.60089 0.17497 0.0
O193 O 0.51314 0.42427 0.17492 0.0
O194 O 0.51314 0.60094 0.84941 0.0
O195 O 0.51228 0.42553 0.84887 0.0
O196 O 0.67542 0.51269 0.92393 0.0
O197 O 0.67554 0.51183 0.10027 0.0
O198 O 0.34968 0.51317 0.92433 0.0
O199 O 0.35 0.51223 0.1011 0.0
C200 C 0.01433 0.24212 0.23812 0.0
C201 C 0.01372 0.20389 0.20029 0.0
C202 C 0.01447 0.28629 0.28305 0.0
C203 C 0.01393 0.32352 0.32187 0.0
C204 C 0.78521 0.01631 0.2404 0.0
C205 C 0.82273 0.01518 0.20187 0.0
C206 C 0.74099 0.01625 0.28526 0.0
C207 C 0.70304 0.01503 0.32336 0.0
C208 C 1.00893 0.78509 0.24016 0.0
C209 C 1.01009 0.82279 0.2018 0.0
C210 C 1.00894 0.74082 0.28496 0.0
C211 C 1.01016 0.70289 0.32308 0.0
C212 C 0.28378 0.01539 0.28581 0.0
C213 C 0.32254 0.0145 0.32308 0.0
C214 C 0.23884 0.01532 0.24169 0.0
C215 C 0.20095 0.0144 0.20354 0.0
C216 C 0.01653 0.78476 0.78468 0.0
C217 C 0.01535 0.82256 0.82294 0.0
C218 C 0.01655 0.74044 0.73991 0.0
C219 C 0.0153 0.70262 0.70169 0.0
C220 C 0.2418 0.01582 0.78581 0.0
C221 C 0.20382 0.01476 0.82391 0.0
C222 C 0.28585 0.01589 0.74078 0.0
C223 C 0.32325 0.0149 0.70212 0.0
C224 C 0.01537 0.28623 0.74136 0.0
C225 C 0.01446 0.32404 0.70311 0.0
C226 C 0.01541 0.24146 0.78567 0.0
C227 C 0.01464 0.20272 0.82298 0.0
C228 C 0.74206 0.01283 0.73817 0.0
C229 C 0.70318 0.01285 0.701 0.0
C230 C 0.78694 0.01277 0.78239 0.0
C231 C 0.82469 0.0127 0.82071 0.0
C232 C 0.2835 0.28615 0.01531 0.0
C233 C 0.32168 0.32402 0.0143 0.0
C234 C 0.23934 0.24127 0.01538 0.0
C235 C 0.20205 0.20254 0.01446 0.0
C236 C 0.28408 0.73947 1.00876 0.0
C237 C 0.32212 0.70147 1.00996 0.0
C238 C 0.23977 0.78423 1.00867 0.0
C239 C 0.20219 0.82268 1.00987 0.0
C240 C 0.74205 0.28643 0.01287 0.0
C241 C 0.7031 0.32353 0.0127 0.0
C242 C 0.78699 0.24232 0.01276 0.0
C243 C 0.82469 0.20396 0.0125 0.0
C244 C 0.78647 0.78332 0.01395 0.0
C245 C 0.82368 0.82217 0.01343 0.0
C246 C 0.74225 0.73845 0.01384 0.0
C247 C 0.70398 0.70064 0.01329 0.0
C248 C 0.73878 0.51377 0.78302 0.0
C249 C 0.70154 0.5134 0.82184 0.0
C250 C 0.78294 0.5137 0.7381 0.0
C251 C 0.82109 0.51333 0.70018 0.0
C252 C 0.24005 0.51632 0.74036 0.0
C253 C 0.20197 0.51513 0.70237 0.0
C254 C 0.28475 0.51631 0.78478 0.0
C255 C 0.32314 0.51514 0.82245 0.0
C256 C 0.24165 0.51 0.28571 0.0
C257 C 0.20301 0.51078 0.32314 0.0
C258 C 0.28645 0.51005 0.24145 0.0
C259 C 0.32449 0.51089 0.20343 0.0
C260 C 0.73939 0.50957 0.24092 0.0
C261 C 0.70201 0.51047 0.20226 0.0
C262 C 0.78356 0.50966 0.28583 0.0
C263 C 0.82157 0.51061 0.32386 0.0
C264 C 0.28304 0.78663 0.51246 0.0
C265 C 0.3214 0.82434 0.51237 0.0
C266 C 0.23866 0.74195 0.51255 0.0
C267 C 0.20137 0.70318 0.51247 0.0
C268 C 0.2386 0.28309 0.51409 0.0
C269 C 0.2009 0.32144 0.51347 0.0
C270 C 0.28339 0.23881 0.51419 0.0
C271 C 0.32223 0.20162 0.51356 0.0
C272 C 0.78611 0.74148 0.50942 0.0
C273 C 0.82339 0.70272 0.51027 0.0
C274 C 0.74193 0.78638 0.50951 0.0
C275 C 0.70359 0.82411 0.51046 0.0
C276 C 0.74105 0.23964 0.51591 0.0
C277 C 0.70307 0.20158 0.51467 0.0
C278 C 0.78518 0.28457 0.51596 0.0
C279 C 0.82273 0.32306 0.51479 0.0
C280 C 0.51054 0.28659 0.78273 0.0
C281 C 0.51123 0.32434 0.82102 0.0
C282 C 0.51043 0.2418 0.73847 0.0
C283 C 0.51109 0.20313 0.70111 0.0
C284 C 0.51522 0.78649 0.74162 0.0
C285 C 0.51434 0.8243 0.70339 0.0
C286 C 0.51531 0.7416 0.78576 0.0
C287 C 0.51449 0.70289 0.82308 0.0
C288 C 0.51628 0.74081 0.23942 0.0
C289 C 0.51509 0.70287 0.20134 0.0
C290 C 0.51635 0.78502 0.28425 0.0
C291 C 0.51518 0.82256 0.32274 0.0
C292 C 0.51453 0.23848 0.28253 0.0
C293 C 0.51387 0.20073 0.32082 0.0
C294 C 0.51462 0.28342 0.23842 0.0
C295 C 0.51403 0.32222 0.20118 0.0
loop_
_geom_bond_atom_site_label_1
_geom_bond_atom_site_label_2
_geom_bond_distance
_geom_bond_site_symmetry_2
_ccdc_geom_bond_type
C0 O26 1.283 . S
C0 O44 1.283 . S
C1 O27 1.283 . S
C1 O42 1.283 . S
C2 O28 1.283 . S
C2 O45 1.283 . S
C3 O29 1.283 . S
C3 O43 1.283 . S
C4 O30 1.283 . S
C4 O39 1.283 . S
C5 O31 1.283 . S
C5 O41 1.283 . S
C6 O32 1.283 . S
C6 O38 1.283 . S
C7 O33 1.283 . S
C7 O40 1.283 . S
C8 O34 1.283 . S
C8 O49 1.283 . S
C9 O35 1.283 . S
C9 O47 1.283 . S
C10 O36 1.283 . S
C10 O48 1.283 . S
C11 O37 1.283 . S
C11 O46 1.283 . S
Eu12 O13 2.370 1_454 S
Eu12 O14 2.370 . S
Eu12 O17 2.370 1_455 S
Eu12 O18 2.370 1_554 S
Eu12 O26 2.363 . S
Eu12 O27 2.363 1_554 S
Eu12 O40 2.363 . S
Eu12 O41 2.363 1_455 S
O13 Eu12 2.370 1_656 S
O13 Eu15 2.370 1_566 S
O13 Eu20 2.370 1_665 S
O14 Eu12 2.370 . S
O14 Eu16 2.370 1_565 S
O14 Eu19 2.370 1_565 S
Eu15 O13 2.370 1_544 S
Eu15 O17 2.370 1_545 S
Eu15 O21 2.370 . S
Eu15 O22 2.370 1_554 S
Eu15 O30 2.363 . S
Eu15 O31 2.363 1_545 S
Eu15 O46 2.363 . S
Eu15 O47 2.363 1_554 S
Eu16 O14 2.370 1_545 S
Eu16 O18 2.370 1_544 S
Eu16 O23 2.370 1_554 S
Eu16 O24 2.370 . S
Eu16 O32 2.363 . S
Eu16 O33 2.363 1_545 S
Eu16 O48 2.363 . S
Eu16 O49 2.363 1_554 S
O17 Eu12 2.370 1_655 S
O17 Eu15 2.370 1_565 S
O17 Eu19 2.370 1_665 S
O18 Eu12 2.370 1_556 S
O18 Eu16 2.370 1_566 S
O18 Eu20 2.370 1_565 S
Eu19 O14 2.370 1_545 S
Eu19 O17 2.370 1_445 S
Eu19 O21 2.370 1_455 S
Eu19 O24 2.370 . S
Eu19 O36 2.363 . S
Eu19 O37 2.363 1_455 S
Eu19 O44 2.363 1_545 S
Eu19 O45 2.363 . S
Eu20 O13 2.370 1_445 S
Eu20 O18 2.370 1_545 S
Eu20 O22 2.370 1_455 S
Eu20 O23 2.370 . S
Eu20 O34 2.363 . S
Eu20 O35 2.363 1_455 S
Eu20 O42 2.363 1_545 S
Eu20 O43 2.363 . S
O21 Eu15 2.370 . S
O21 Eu19 2.370 1_655 S
O21 Eu25 2.370 1_655 S
O22 Eu15 2.370 1_556 S
O22 Eu20 2.370 1_655 S
O22 Eu25 2.370 1_656 S
O23 Eu16 2.370 1_556 S
O23 Eu20 2.370 . S
O23 Eu25 2.370 1_556 S
O24 Eu16 2.370 . S
O24 Eu19 2.370 . S
O24 Eu25 2.370 . S
Eu25 O21 2.370 1_455 S
Eu25 O22 2.370 1_454 S
Eu25 O23 2.370 1_554 S
Eu25 O24 2.370 . S
Eu25 O28 2.363 . S
Eu25 O29 2.363 1_554 S
Eu25 O38 2.363 . S
Eu25 O39 2.363 1_455 S
O26 C0 1.283 . S
O26 Eu12 2.363 . S
O27 C1 1.283 . S
O27 Eu12 2.363 1_556 S
O28 C2 1.283 . S
O28 Eu25 2.363 . S
O29 C3 1.283 . S
O29 Eu25 2.363 1_556 S
O30 C4 1.283 . S
O30 Eu15 2.363 . S
O31 C5 1.283 . S
O31 Eu15 2.363 1_565 S
O32 C6 1.283 . S
O32 Eu16 2.363 . S
O33 C7 1.283 . S
O33 Eu16 2.363 1_565 S
O34 C8 1.283 . S
O34 Eu20 2.363 . S
O35 C9 1.283 . S
O35 Eu20 2.363 1_655 S
O36 C10 1.283 . S
O36 Eu19 2.363 . S
O37 C11 1.283 . S
O37 Eu19 2.363 1_655 S
O38 C6 1.283 . S
O38 Eu25 2.363 . S
O39 C4 1.283 . S
O39 Eu25 2.363 1_655 S
O40 C7 1.283 . S
O40 Eu12 2.363 . S
O41 C5 1.283 . S
O41 Eu12 2.363 1_655 S
O42 C1 1.283 . S
O42 Eu20 2.363 1_565 S
O43 C3 1.283 . S
O43 Eu20 2.363 . S
O44 C0 1.283 . S
O44 Eu19 2.363 1_565 S
O45 C2 1.283 . S
O45 Eu19 2.363 . S
O46 C11 1.283 . S
O46 Eu15 2.363 . S
O47 C9 1.283 . S
O47 Eu15 2.363 1_556 S
O48 C10 1.283 . S
O48 Eu16 2.363 . S
O49 C8 1.283 . S
O49 Eu16 2.363 1_556 S
C50 O76 1.283 . S
C50 O94 1.283 . S
C51 O77 1.283 . S
C51 O92 1.283 . S
C52 O78 1.283 . S
C52 O95 1.283 . S
C53 O79 1.283 . S
C53 O93 1.283 . S
C54 O80 1.283 . S
C54 O89 1.283 . S
C55 O81 1.283 . S
C55 O91 1.283 . S
C56 O82 1.283 . S
C56 O88 1.283 . S
C57 O83 1.283 . S
C57 O90 1.283 . S
C58 O84 1.283 . S
C58 O99 1.283 . S
C59 O85 1.283 . S
C59 O97 1.283 . S
C60 O86 1.283 . S
C60 O98 1.283 . S
C61 O87 1.283 . S
C61 O96 1.283 . S
Eu62 O63 2.370 . S
Eu62 O64 2.370 1_455 S
Eu62 O67 2.370 . S
Eu62 O68 2.370 1_455 S
Eu62 O76 2.363 . S
Eu62 O77 2.363 . S
Eu62 O90 2.363 1_455 S
Eu62 O91 2.363 . S
O63 Eu62 2.370 . S
O63 Eu65 2.370 . S
O63 Eu70 2.370 . S
O64 Eu62 2.370 1_655 S
O64 Eu66 2.370 . S
O64 Eu69 2.370 1_655 S
Eu65 O63 2.370 . S
Eu65 O67 2.370 . S
Eu65 O71 2.370 . S
Eu65 O72 2.370 . S
Eu65 O80 2.363 . S
Eu65 O81 2.363 . S
Eu65 O96 2.363 . S
Eu65 O97 2.363 . S
Eu66 O64 2.370 . S
Eu66 O68 2.370 . S
Eu66 O73 2.370 . S
Eu66 O74 2.370 . S
Eu66 O82 2.363 . S
Eu66 O83 2.363 . S
Eu66 O98 2.363 . S
Eu66 O99 2.363 . S
O67 Eu62 2.370 . S
O67 Eu65 2.370 . S
O67 Eu69 2.370 . S
O68 Eu62 2.370 1_655 S
O68 Eu66 2.370 . S
O68 Eu70 2.370 1_655 S
Eu69 O64 2.370 1_455 S
Eu69 O67 2.370 . S
Eu69 O71 2.370 . S
Eu69 O74 2.370 1_455 S
Eu69 O86 2.363 1_455 S
Eu69 O87 2.363 . S
Eu69 O94 2.363 . S
Eu69 O95 2.363 . S
Eu70 O63 2.370 . S
Eu70 O68 2.370 1_455 S
Eu70 O72 2.370 . S
Eu70 O73 2.370 1_455 S
Eu70 O84 2.363 1_455 S
Eu70 O85 2.363 . S
Eu70 O92 2.363 . S
Eu70 O93 2.363 . S
O71 Eu65 2.370 . S
O71 Eu69 2.370 . S
O71 Eu75 2.370 . S
O72 Eu65 2.370 . S
O72 Eu70 2.370 . S
O72 Eu75 2.370 . S
O73 Eu66 2.370 . S
O73 Eu70 2.370 1_655 S
O73 Eu75 2.370 1_655 S
O74 Eu66 2.370 . S
O74 Eu69 2.370 1_655 S
O74 Eu75 2.370 1_655 S
Eu75 O71 2.370 . S
Eu75 O72 2.370 . S
Eu75 O73 2.370 1_455 S
Eu75 O74 2.370 1_455 S
Eu75 O78 2.363 . S
Eu75 O79 2.363 . S
Eu75 O88 2.363 1_455 S
Eu75 O89 2.363 . S
O76 C50 1.283 . S
O76 Eu62 2.363 . S
O77 C51 1.283 . S
O77 Eu62 2.363 . S
O78 C52 1.283 . S
O78 Eu75 2.363 . S
O79 C53 1.283 . S
O79 Eu75 2.363 . S
O80 C54 1.283 . S
O80 Eu65 2.363 . S
O81 C55 1.283 . S
O81 Eu65 2.363 . S
O82 C56 1.283 . S
O82 Eu66 2.363 . S
O83 C57 1.283 . S
O83 Eu66 2.363 . S
O84 C58 1.283 . S
O84 Eu70 2.363 1_655 S
O85 C59 1.283 . S
O85 Eu70 2.363 . S
O86 C60 1.283 . S
O86 Eu69 2.363 1_655 S
O87 C61 1.283 . S
O87 Eu69 2.363 . S
O88 C56 1.283 . S
O88 Eu75 2.363 1_655 S
O89 C54 1.283 . S
O89 Eu75 2.363 . S
O90 C57 1.283 . S
O90 Eu62 2.363 1_655 S
O91 C55 1.283 . S
O91 Eu62 2.363 . S
O92 C51 1.283 . S
O92 Eu70 2.363 . S
O93 C53 1.283 . S
O93 Eu70 2.363 . S
O94 C50 1.283 . S
O94 Eu69 2.363 . S
O95 C52 1.283 . S
O95 Eu69 2.363 . S
O96 C61 1.283 . S
O96 Eu65 2.363 . S
O97 C59 1.283 . S
O97 Eu65 2.363 . S
O98 C60 1.283 . S
O98 Eu66 2.363 . S
O99 C58 1.283 . S
O99 Eu66 2.363 . S
C100 O126 1.283 . S
C100 O144 1.283 . S
C101 O127 1.283 . S
C101 O142 1.283 . S
C102 O128 1.283 . S
C102 O145 1.283 . S
C103 O129 1.283 . S
C103 O143 1.283 . S
C104 O130 1.283 . S
C104 O139 1.283 . S
C105 O131 1.283 . S
C105 O141 1.283 . S
C106 O132 1.283 . S
C106 O138 1.283 . S
C107 O133 1.283 . S
C107 O140 1.283 . S
C108 O134 1.283 . S
C108 O149 1.283 . S
C109 O135 1.283 . S
C109 O147 1.283 . S
C110 O136 1.283 . S
C110 O148 1.283 . S
C111 O137 1.283 . S
C111 O146 1.283 . S
Eu112 O113 2.370 . S
Eu112 O114 2.370 1_545 S
Eu112 O117 2.370 1_545 S
Eu112 O118 2.370 . S
Eu112 O126 2.363 1_545 S
Eu112 O127 2.363 . S
Eu112 O140 2.363 . S
Eu112 O141 2.363 . S
O113 Eu112 2.370 . S
O113 Eu115 2.370 . S
O113 Eu120 2.370 . S
O114 Eu112 2.370 1_565 S
O114 Eu116 2.370 1_565 S
O114 Eu119 2.370 . S
Eu115 O113 2.370 . S
Eu115 O117 2.370 1_545 S
Eu115 O121 2.370 1_545 S
Eu115 O122 2.370 . S
Eu115 O130 2.363 . S
Eu115 O131 2.363 . S
Eu115 O146 2.363 1_545 S
Eu115 O147 2.363 . S
Eu116 O114 2.370 1_545 S
Eu116 O118 2.370 . S
Eu116 O123 2.370 . S
Eu116 O124 2.370 1_545 S
Eu116 O132 2.363 . S
Eu116 O133 2.363 . S
Eu116 O148 2.363 1_545 S
Eu116 O149 2.363 . S
O117 Eu112 2.370 1_565 S
O117 Eu115 2.370 1_565 S
O117 Eu119 2.370 . S
O118 Eu112 2.370 . S
O118 Eu116 2.370 . S
O118 Eu120 2.370 . S
Eu119 O114 2.370 . S
Eu119 O117 2.370 . S
Eu119 O121 2.370 . S
Eu119 O124 2.370 . S
Eu119 O136 2.363 . S
Eu119 O137 2.363 . S
Eu119 O144 2.363 . S
Eu119 O145 2.363 . S
Eu120 O113 2.370 . S
Eu120 O118 2.370 . S
Eu120 O122 2.370 . S
Eu120 O123 2.370 . S
Eu120 O134 2.363 . S
Eu120 O135 2.363 . S
Eu120 O142 2.363 . S
Eu120 O143 2.363 . S
O121 Eu115 2.370 1_565 S
O121 Eu119 2.370 . S
O121 Eu125 2.370 1_565 S
O122 Eu115 2.370 . S
O122 Eu120 2.370 . S
O122 Eu125 2.370 . S
O123 Eu116 2.370 . S
O123 Eu120 2.370 . S
O123 Eu125 2.370 . S
O124 Eu116 2.370 1_565 S
O124 Eu119 2.370 . S
O124 Eu125 2.370 1_565 S
Eu125 O121 2.370 1_545 S
Eu125 O122 2.370 . S
Eu125 O123 2.370 . S
Eu125 O124 2.370 1_545 S
Eu125 O128 2.363 1_545 S
Eu125 O129 2.363 . S
Eu125 O138 2.363 . S
Eu125 O139 2.363 . S
O126 C100 1.283 . S
O126 Eu112 2.363 1_565 S
O127 C101 1.283 . S
O127 Eu112 2.363 . S
O128 C102 1.283 . S
O128 Eu125 2.363 1_565 S
O129 C103 1.283 . S
O129 Eu125 2.363 . S
O130 C104 1.283 . S
O130 Eu115 2.363 . S
O131 C105 1.283 . S
O131 Eu115 2.363 . S
O132 C106 1.283 . S
O132 Eu116 2.363 . S
O133 C107 1.283 . S
O133 Eu116 2.363 . S
O134 C108 1.283 . S
O134 Eu120 2.363 . S
O135 C109 1.283 . S
O135 Eu120 2.363 . S
O136 C110 1.283 . S
O136 Eu119 2.363 . S
O137 C111 1.283 . S
O137 Eu119 2.363 . S
O138 C106 1.283 . S
O138 Eu125 2.363 . S
O139 C104 1.283 . S
O139 Eu125 2.363 . S
O140 C107 1.283 . S
O140 Eu112 2.363 . S
O141 C105 1.283 . S
O141 Eu112 2.363 . S
O142 C101 1.283 . S
O142 Eu120 2.363 . S
O143 C103 1.283 . S
O143 Eu120 2.363 . S
O144 C100 1.283 . S
O144 Eu119 2.363 . S
O145 C102 1.283 . S
O145 Eu119 2.363 . S
O146 C111 1.283 . S
O146 Eu115 2.363 1_565 S
O147 C109 1.283 . S
O147 Eu115 2.363 . S
O148 C110 1.283 . S
O148 Eu116 2.363 1_565 S
O149 C108 1.283 . S
O149 Eu116 2.363 . S
C150 O176 1.283 . S
C150 O194 1.283 . S
C151 O177 1.283 . S
C151 O192 1.283 . S
C152 O178 1.283 . S
C152 O195 1.283 . S
C153 O179 1.283 . S
C153 O193 1.283 . S
C154 O180 1.283 . S
C154 O189 1.283 . S
C155 O181 1.283 . S
C155 O191 1.283 . S
C156 O182 1.283 . S
C156 O188 1.283 . S
C157 O183 1.283 . S
C157 O190 1.283 . S
C158 O184 1.283 . S
C158 O199 1.283 . S
C159 O185 1.283 . S
C159 O197 1.283 . S
C160 O186 1.283 . S
C160 O198 1.283 . S
C161 O187 1.283 . S
C161 O196 1.283 . S
Eu162 O163 2.370 . S
Eu162 O164 2.370 1_554 S
Eu162 O167 2.370 1_554 S
Eu162 O168 2.370 . S
Eu162 O176 2.363 1_554 S
Eu162 O177 2.363 . S
Eu162 O190 2.363 . S
Eu162 O191 2.363 . S
O163 Eu162 2.370 . S
O163 Eu165 2.370 . S
O163 Eu170 2.370 . S
O164 Eu162 2.370 1_556 S
O164 Eu166 2.370 1_556 S
O164 Eu169 2.370 . S
Eu165 O163 2.370 . S
Eu165 O167 2.370 1_554 S
Eu165 O171 2.370 1_554 S
Eu165 O172 2.370 . S
Eu165 O180 2.363 . S
Eu165 O181 2.363 . S
Eu165 O196 2.363 1_554 S
Eu165 O197 2.363 . S
Eu166 O164 2.370 1_554 S
Eu166 O168 2.370 . S
Eu166 O173 2.370 . S
Eu166 O174 2.370 1_554 S
Eu166 O182 2.363 . S
Eu166 O183 2.363 . S
Eu166 O198 2.363 1_554 S
Eu166 O199 2.363 . S
O167 Eu162 2.370 1_556 S
O167 Eu165 2.370 1_556 S
O167 Eu169 2.370 . S
O168 Eu162 2.370 . S
O168 Eu166 2.370 . S
O168 Eu170 2.370 . S
Eu169 O164 2.370 . S
Eu169 O167 2.370 . S
Eu169 O171 2.370 . S
Eu169 O174 2.370 . S
Eu169 O186 2.363 . S
Eu169 O187 2.363 . S
Eu169 O194 2.363 . S
Eu169 O195 2.363 . S
Eu170 O163 2.370 . S
Eu170 O168 2.370 . S
Eu170 O172 2.370 . S
Eu170 O173 2.370 . S
Eu170 O184 2.363 . S
Eu170 O185 2.363 . S
Eu170 O192 2.363 . S
Eu170 O193 2.363 . S
O171 Eu165 2.370 1_556 S
O171 Eu169 2.370 . S
O171 Eu175 2.370 1_556 S
O172 Eu165 2.370 . S
O172 Eu170 2.370 . S
O172 Eu175 2.370 . S
O173 Eu166 2.370 . S
O173 Eu170 2.370 . S
O173 Eu175 2.370 . S
O174 Eu166 2.370 1_556 S
O174 Eu169 2.370 . S
O174 Eu175 2.370 1_556 S
Eu175 O171 2.370 1_554 S
Eu175 O172 2.370 . S
Eu175 O173 2.370 . S
Eu175 O174 2.370 1_554 S
Eu175 O178 2.363 1_554 S
Eu175 O179 2.363 . S
Eu175 O188 2.363 . S
Eu175 O189 2.363 . S
O176 C150 1.283 . S
O176 Eu162 2.363 1_556 S
O177 C151 1.283 . S
O177 Eu162 2.363 . S
O178 C152 1.283 . S
O178 Eu175 2.363 1_556 S
O179 C153 1.283 . S
O179 Eu175 2.363 . S
O180 C154 1.283 . S
O180 Eu165 2.363 . S
O181 C155 1.283 . S
O181 Eu165 2.363 . S
O182 C156 1.283 . S
O182 Eu166 2.363 . S
O183 C157 1.283 . S
O183 Eu166 2.363 . S
O184 C158 1.283 . S
O184 Eu170 2.363 . S
O185 C159 1.283 . S
O185 Eu170 2.363 . S
O186 C160 1.283 . S
O186 Eu169 2.363 . S
O187 C161 1.283 . S
O187 Eu169 2.363 . S
O188 C156 1.283 . S
O188 Eu175 2.363 . S
O189 C154 1.283 . S
O189 Eu175 2.363 . S
O190 C157 1.283 . S
O190 Eu162 2.363 . S
O191 C155 1.283 . S
O191 Eu162 2.363 . S
O192 C151 1.283 . S
O192 Eu170 2.363 . S
O193 C153 1.283 . S
O193 Eu170 2.363 . S
O194 C150 1.283 . S
O194 Eu169 2.363 . S
O195 C152 1.283 . S
O195 Eu169 2.363 . S
O196 C161 1.283 . S
O196 Eu165 2.363 1_556 S
O197 C159 1.283 . S
O197 Eu165 2.363 . S
O198 C160 1.283 . S
O198 Eu166 2.363 1_556 S
O199 C158 1.283 . S
O199 Eu166 2.363 . S
C200 C201 1.171 . S
C200 C202 1.380 . S
C201 C200 1.171 . S
C202 C200 1.380 . S
C202 C203 1.170 . S
C203 C202 1.170 . S
C204 C205 1.170 . S
C204 C206 1.380 . S
C205 C204 1.170 . S
C206 C204 1.380 . S
C206 C207 1.170 . S
C207 C206 1.170 . S
C208 C209 1.170 . S
C208 C210 1.380 . S
C209 C208 1.170 . S
C210 C208 1.380 . S
C210 C211 1.170 . S
C211 C210 1.170 . S
C212 C213 1.170 . S
C212 C214 1.380 . S
C213 C212 1.170 . S
C214 C212 1.380 . S
C214 C215 1.170 . S
C215 C214 1.170 . S
C216 C217 1.170 . S
C216 C218 1.380 . S
C217 C216 1.170 . S
C218 C216 1.380 . S
C218 C219 1.170 . S
C219 C218 1.170 . S
C220 C221 1.170 . S
C220 C222 1.380 . S
C221 C220 1.170 . S
C222 C220 1.380 . S
C222 C223 1.170 . S
C223 C222 1.170 . S
C224 C225 1.170 . S
C224 C226 1.380 . S
C225 C224 1.170 . S
C226 C224 1.380 . S
C226 C227 1.170 . S
C227 C226 1.170 . S
C228 C229 1.170 . S
C228 C230 1.380 . S
C229 C228 1.170 . S
C230 C228 1.380 . S
C230 C231 1.170 1_545 S
C231 C230 1.170 1_565 S
C232 C233 1.170 . S
C232 C234 1.380 . S
C233 C232 1.170 . S
C234 C232 1.380 . S
C234 C235 1.170 . S
C235 C234 1.170 . S
C236 C237 1.170 . S
C236 C238 1.380 . S
C237 C236 1.170 . S
C238 C236 1.380 . S
C238 C239 1.170 . S
C239 C238 1.170 . S
C240 C241 1.170 . S
C240 C242 1.380 . S
C241 C240 1.170 . S
C242 C240 1.380 . S
C242 C243 1.170 1_554 S
C243 C242 1.170 1_556 S
C244 C245 1.170 . S
C244 C246 1.380 . S
C245 C244 1.170 . S
C246 C244 1.380 . S
C246 C247 1.170 . S
C247 C246 1.170 . S
C248 C249 1.170 . S
C248 C250 1.380 . S
C249 C248 1.170 . S
C250 C248 1.380 . S
C250 C251 1.170 . S
C251 C250 1.170 . S
C252 C253 1.170 . S
C252 C254 1.380 . S
C253 C252 1.170 . S
C254 C252 1.380 . S
C254 C255 1.170 . S
C255 C254 1.170 . S
C256 C257 1.170 . S
C256 C258 1.380 . S
C257 C256 1.170 . S
C258 C256 1.380 . S
C258 C259 1.170 . S
C259 C258 1.170 . S
C260 C261 1.170 . S
C260 C262 1.380 . S
C261 C260 1.170 . S
C262 C260 1.380 . S
C262 C263 1.170 . S
C263 C262 1.170 . S
C264 C265 1.170 . S
C264 C266 1.380 . S
C265 C264 1.170 . S
C266 C264 1.380 . S
C266 C267 1.170 . S
C267 C266 1.170 . S
C268 C269 1.170 . S
C268 C270 1.380 . S
C269 C268 1.170 . S
C270 C268 1.380 . S
C270 C271 1.170 . S
C271 C270 1.170 . S
C272 C273 1.170 . S
C272 C274 1.380 . S
C273 C272 1.170 . S
C274 C272 1.380 . S
C274 C275 1.170 . S
C275 C274 1.170 . S
C276 C277 1.170 . S
C276 C278 1.380 . S
C277 C276 1.170 . S
C278 C276 1.380 . S
C278 C279 1.170 . S
C279 C278 1.170 . S
C280 C281 1.170 . S
C280 C282 1.380 . S
C281 C280 1.170 . S
C282 C280 1.380 . S
C282 C283 1.170 . S
C283 C282 1.170 . S
C284 C285 1.170 . S
C284 C286 1.380 . S
C285 C284 1.170 . S
C286 C284 1.380 . S
C286 C287 1.170 . S
C287 C286 1.170 . S
C288 C289 1.170 . S
C288 C290 1.380 . S
C289 C288 1.170 . S
C290 C288 1.380 . S
C290 C291 1.170 . S
C291 C290 1.170 . S
C292 C293 1.170 . S
C292 C294 1.380 . S
C293 C292 1.170 . S
C294 C292 1.380 . S
C294 C295 1.170 . S
C295 C294 1.170 . S
C201 C2 1.498 . S
C203 C52 1.495 . S
C205 C11 1.498 . S
C207 C104 1.498 . S
C209 C0 1.498 1_655 S
C211 C53 1.498 1_655 S
C213 C106 1.498 . S
C215 C10 1.495 . S
C217 C1 1.498 . S
C219 C51 1.501 . S
C221 C8 1.498 . S
C223 C107 1.498 . S
C225 C50 1.498 . S
C227 C3 1.498 . S
C229 C105 1.498 . S
C231 C9 1.501 1_565 S
C233 C156 1.498 . S
C235 C6 1.495 . S
C237 C157 1.498 1_556 S
C239 C7 1.498 1_556 S
C241 C154 1.498 . S
C243 C4 1.498 1_556 S
C245 C5 1.498 . S
C247 C155 1.501 . S
C249 C161 1.498 . S
C251 C57 1.501 . S
C253 C55 1.498 . S
C255 C160 1.498 . S
C257 C54 1.498 . S
C259 C158 1.495 . S
C261 C159 1.498 . S
C263 C56 1.498 . S
C265 C110 1.498 . S
C267 C59 1.498 . S
C269 C61 1.498 . S
C271 C108 1.495 . S
C273 C58 1.498 . S
C275 C111 1.501 . S
C277 C109 1.498 . S
C279 C60 1.498 . S
C281 C152 1.498 . S
C283 C101 1.498 . S
C285 C100 1.498 . S
C287 C150 1.501 . S
C289 C151 1.498 . S
C291 C102 1.498 . S
C293 C103 1.498 . S
C295 C153 1.495 . S
