# Generated by pormake.
# Topology zfa, (5)-cn, num edge types: 1
# Building blocks:
#     Node 0, Type 0, BuildingBlock: BEQFEK_clean_sbu_0, # of connection points: 5
#     Node 1, Type 0, BuildingBlock: BEQFEK_clean_sbu_0, # of connection points: 5
#     Node 2, Type 0, BuildingBlock: BEQFEK_clean_sbu_0, # of connection points: 5
#     Node 3, Type 0, BuildingBlock: BEQFEK_clean_sbu_0, # of connection points: 5
#     Node 4, Type 0, BuildingBlock: BEQFEK_clean_sbu_0, # of connection points: 5
#     Node 5, Type 0, BuildingBlock: BEQFEK_clean_sbu_0, # of connection points: 5
#     Node 6, Type 0, BuildingBlock: BEQFEK_clean_sbu_0, # of connection points: 5
#     Node 7, Type 0, BuildingBlock: BEQFEK_clean_sbu_0, # of connection points: 5
#     Edge 8, Type (0, 0), BuildingBlock: AJUNOK_clean_linker_0, # of connection points: 2
#     Edge 9, Type (0, 0), BuildingBlock: AJUNOK_clean_linker_0, # of connection points: 2
#     Edge 10, Type (0, 0), BuildingBlock: AJUNOK_clean_linker_0, # of connection points: 2
#     Edge 11, Type (0, 0), BuildingBlock: AJUNOK_clean_linker_0, # of connection points: 2
#     Edge 12, Type (0, 0), BuildingBlock: AJUNOK_clean_linker_0, # of connection points: 2
#     Edge 13, Type (0, 0), BuildingBlock: AJUNOK_clean_linker_0, # of connection points: 2
#     Edge 14, Type (0, 0), BuildingBlock: AJUNOK_clean_linker_0, # of connection points: 2
#     Edge 15, Type (0, 0), BuildingBlock: AJUNOK_clean_linker_0, # of connection points: 2
#     Edge 16, Type (0, 0), BuildingBlock: AJUNOK_clean_linker_0, # of connection points: 2
#     Edge 17, Type (0, 0), BuildingBlock: AJUNOK_clean_linker_0, # of connection points: 2
#     Edge 18, Type (0, 0), BuildingBlock: AJUNOK_clean_linker_0, # of connection points: 2
#     Edge 19, Type (0, 0), BuildingBlock: AJUNOK_clean_linker_0, # of connection points: 2
#     Edge 20, Type (0, 0), BuildingBlock: AJUNOK_clean_linker_0, # of connection points: 2
#     Edge 21, Type (0, 0), BuildingBlock: AJUNOK_clean_linker_0, # of connection points: 2
#     Edge 22, Type (0, 0), BuildingBlock: AJUNOK_clean_linker_0, # of connection points: 2
#     Edge 23, Type (0, 0), BuildingBlock: AJUNOK_clean_linker_0, # of connection points: 2
#     Edge 24, Type (0, 0), BuildingBlock: AJUNOK_clean_linker_0, # of connection points: 2
#     Edge 25, Type (0, 0), BuildingBlock: AJUNOK_clean_linker_0, # of connection points: 2
#     Edge 26, Type (0, 0), BuildingBlock: AJUNOK_clean_linker_0, # of connection points: 2
#     Edge 27, Type (0, 0), BuildingBlock: AJUNOK_clean_linker_0, # of connection points: 2
# Relax obj value: 0.468
# Max RMSD: 0.198
# Mean RMSD: 0.198
data_MOF--net-zfa--node1-BEQFEK_clean_sbu_0--edge1-AJUNOK_clean_linker_0
_symmetry_space_group_name_H-M    P1
_symmetry_Int_Tables_number       1
_symmetry_cell_setting            triclinic
loop_
_symmetry_equiv_pos_as_xyz
'x, y, z'
_cell_length_a     23.62341
_cell_length_b     23.558967
_cell_length_c     27.809554
_cell_angle_alpha  89.748005
_cell_angle_beta   89.83524
_cell_angle_gamma 89.970332
loop_
_atom_site_label
_atom_site_type_symbol
_atom_site_fract_x
_atom_site_fract_y
_atom_site_fract_z
_atom_type_partial_charge
Co0 Co 0.20098 0.22487 0.30878 0.0
Co1 Co 0.21336 0.35293 0.33497 0.0
C2 C 0.21818 0.2632 0.4104 0.0
O3 O 0.20942 0.22361 0.38063 0.0
O4 O 0.22163 0.31425 0.39658 0.0
C5 C 0.12971 0.13964 0.32428 0.0
O6 O 0.11508 0.18051 0.35375 0.0
C7 C 0.18342 0.45048 0.3929 0.0
C8 C 0.17509 0.51692 0.33768 0.0
C9 C 0.16079 0.50393 0.38498 0.0
N10 N 0.20626 0.43137 0.35151 0.0
N11 N 0.20345 0.47246 0.31922 0.0
C12 C 0.18467 0.41895 0.43979 0.0
H13 H 0.2284 0.40401 0.4469 0.0
H14 H 0.15653 0.38137 0.43811 0.0
H15 H 0.17119 0.44659 0.46997 0.0
C16 C 0.09169 0.26715 0.26642 0.0
N17 N 0.14257 0.27682 0.28738 0.0
N18 N 0.14366 0.32919 0.30331 0.0
C19 C 0.09178 0.35276 0.29541 0.0
C20 C 0.05645 0.31374 0.27265 0.0
C21 C 0.07659 0.21437 0.24009 0.0
H22 H 0.11546 0.19095 0.23022 0.0
H23 H 1.04774 0.18837 0.26266 0.0
H24 H 0.05386 0.22455 0.2064 0.0
O25 O 0.27969 0.24253 0.28388 0.0
O26 O 0.28696 0.33517 0.29909 0.0
H27 H 1.03047 0.4208 0.30163 0.0
H28 H 0.08587 0.41935 0.34617 0.0
C29 C 0.07597 0.41211 0.30808 0.0
H30 H 0.10127 0.44188 0.28581 0.0
H31 H 0.21517 0.46792 0.28322 0.0
O32 O 0.17159 0.1473 0.29599 0.0
C33 C 0.30866 0.28855 0.28395 0.0
Co34 Co 0.37022 0.70968 0.80941 0.0
Co35 Co 0.2456 0.7148 0.84307 0.0
C36 C 0.33514 0.71467 0.91515 0.0
O37 O 0.37155 0.71668 0.88154 0.0
O38 O 0.28297 0.71133 0.90556 0.0
C39 C 0.44708 0.62971 0.82331 0.0
O40 O 0.40296 0.61522 0.84942 0.0
C41 C 0.14445 0.68201 0.89559 0.0
C42 C 0.08269 0.67597 0.83698 0.0
C43 C 0.09236 0.65894 0.88416 0.0
N44 N 0.1663 0.70745 0.85621 0.0
N45 N 0.12787 0.70601 0.8219 0.0
C46 C 0.17271 0.68011 0.94353 0.0
H47 H 0.18952 0.72278 0.95235 0.0
H48 H 0.20854 0.64991 0.94208 0.0
H49 H 0.14269 0.66664 0.97218 0.0
C50 C 0.32981 0.60328 0.76125 0.0
N51 N 0.31931 0.65231 0.78528 0.0
N52 N 0.26892 0.64945 0.805 0.0
C53 C 0.24761 0.59681 0.79653 0.0
C54 C 0.28617 0.56474 0.76977 0.0
C55 C 0.37939 0.59399 0.72852 0.0
H56 H 0.40656 0.63217 0.72617 0.0
H57 H 0.4041 0.55653 0.74023 0.0
H58 H 0.3637 0.58472 0.69184 0.0
O59 O 0.35306 0.78853 0.78435 0.0
O60 O 0.2655 0.79358 0.81443 0.0
H61 H 0.18407 0.53134 0.80692 0.0
H62 H 0.18589 0.58753 0.85102 0.0
C63 C 0.19066 0.57738 0.81271 0.0
H64 H 0.15796 0.60067 0.7921 0.0
H65 H 0.135 0.7197 0.78664 0.0
O66 O 0.44627 0.67654 0.7999 0.0
C67 C 0.30791 0.817 0.7931 0.0
Co68 Co 0.89605 0.87442 0.31008 0.0
Co69 Co 0.88721 0.74735 0.34071 0.0
C70 C 0.8769 0.84172 0.41209 0.0
O71 O 0.88583 0.88029 0.38124 0.0
O72 O 0.87517 0.79019 0.39985 0.0
C73 C 0.96539 0.96071 0.32317 0.0
O74 O 0.98033 0.9204 0.3533 0.0
C75 C 0.9315 0.66164 0.40351 0.0
C76 C 0.91733 0.58242 0.36391 0.0
C77 C 0.94725 0.60508 0.40235 0.0
N78 N 0.89719 0.67258 0.36597 0.0
N79 N 0.8867 0.62443 0.34365 0.0
C80 C 0.95434 0.70606 0.43671 0.0
H81 H 0.91896 0.72401 0.45805 0.0
H82 H 0.97426 0.74079 0.41553 0.0
H83 H 0.98522 0.6882 0.46266 0.0
C84 C 1.0077 0.83497 0.27117 0.0
N85 N 0.95691 0.82361 0.29193 0.0
N86 N 0.9567 0.77079 0.3073 0.0
C87 C 1.00859 0.7479 0.29734 0.0
C88 C 1.04374 0.78886 0.27644 0.0
C89 C 1.01888 0.88446 0.23882 0.0
H90 H 1.04363 0.91666 0.25827 0.0
H91 H 1.04468 0.87105 0.20742 0.0
H92 H 0.97854 0.90302 0.22588 0.0
O93 O 0.81795 0.85213 0.2859 0.0
O94 O 0.81384 0.75946 0.30329 0.0
H95 H 1.02688 0.66698 0.2674 0.0
H96 H 0.06688 0.68342 0.32003 0.0
C97 C 1.02441 0.68699 0.30337 0.0
H98 H 0.99285 0.66359 0.32426 0.0
H99 H 0.86348 0.62127 0.31188 0.0
O100 O 0.92425 0.95195 0.29451 0.0
C101 C 0.79082 0.80492 0.28674 0.0
Co102 Co 0.71741 0.39862 0.81485 0.0
Co103 Co 0.84539 0.3853 0.837 0.0
C104 C 0.75616 0.3822 0.91428 0.0
O105 O 0.71558 0.39455 0.88663 0.0
O106 O 0.80552 0.3762 0.89769 0.0
C107 C 0.63564 0.47481 0.82658 0.0
O108 O 0.67867 0.49258 0.85225 0.0
C109 C 0.9341 0.42742 0.89715 0.0
C110 C 1.011 0.41362 0.8541 0.0
C111 C 0.99034 0.443 0.89373 0.0
N112 N 0.92117 0.39372 0.85969 0.0
N113 N 0.96804 0.38335 0.83531 0.0
C114 C 0.89166 0.45145 0.93178 0.0
H115 H 0.85644 0.47182 0.91176 0.0
H116 H 0.911 0.48258 0.95662 0.0
H117 H 0.87445 0.41661 0.95434 0.0
C118 C 0.7587 0.50608 0.76694 0.0
N119 N 0.7688 0.45613 0.78994 0.0
N120 N 0.82237 0.45412 0.80244 0.0
C121 C 0.84706 0.50409 0.78892 0.0
C122 C 0.80697 0.53979 0.7676 0.0
C123 C 0.70728 0.51838 0.73729 0.0
H124 H 0.68268 0.47918 0.73056 0.0
H125 H 0.68047 0.55028 0.7553 0.0
H126 H 0.72028 0.53711 0.70225 0.0
O127 O 0.73555 0.31763 0.79262 0.0
O128 O 0.82928 0.31139 0.80222 0.0
H129 H 0.92983 0.51077 0.75893 0.0
H130 H 0.91431 0.56276 0.80442 0.0
C131 C 0.90838 0.51777 0.79393 0.0
H132 H 0.92866 0.48998 0.82004 0.0
H133 H 0.96952 0.36073 0.80313 0.0
O134 O 0.64022 0.42846 0.80324 0.0
C135 C 0.78182 0.28893 0.79035 0.0
Co136 Co 0.70405 0.37495 0.22195 0.0
Co137 Co 0.71139 0.24937 0.18814 0.0
C138 C 0.71936 0.34115 0.11742 0.0
O139 O 0.71654 0.37904 0.14965 0.0
O140 O 0.71622 0.28919 0.12807 0.0
C141 C 0.63277 0.45803 0.20557 0.0
O142 O 0.6194 0.41614 0.17679 0.0
C143 C 0.67826 0.15286 0.12953 0.0
C144 C 0.67936 0.08325 0.18237 0.0
C145 C 0.66039 0.09752 0.13664 0.0
N146 N 0.70357 0.1714 0.16998 0.0
N147 N 0.70621 0.12864 0.2007 0.0
C148 C 0.66731 0.18853 0.08573 0.0
H149 H 0.70796 0.20597 0.07221 0.0
H150 H 0.63896 0.22446 0.09483 0.0
H151 H 0.64793 0.1632 0.05653 0.0
C152 C 0.5932 0.33368 0.26235 0.0
N153 N 0.64429 0.32367 0.24159 0.0
N154 N 0.64385 0.27278 0.22271 0.0
C155 C 0.59114 0.25056 0.22836 0.0
C156 C 0.55664 0.28867 0.25332 0.0
C157 C 0.57969 0.38399 0.29284 0.0
H158 H 0.61891 0.40557 0.30469 0.0
H159 H 0.5528 0.41382 0.27231 0.0
H160 H 0.55494 0.37036 0.32487 0.0
O161 O 0.78063 0.35514 0.2494 0.0
O162 O 0.78742 0.26705 0.22042 0.0
H163 H 0.52487 0.19447 0.20286 0.0
H164 H 0.586 0.2027 0.16546 0.0
C165 C 0.57156 0.19885 0.20288 0.0
H166 H 0.59102 0.16068 0.21942 0.0
H167 H 0.72118 0.13205 0.23584 0.0
O168 O 0.67371 0.45175 0.23489 0.0
C169 C 0.80927 0.30975 0.24213 0.0
Co170 Co 0.22135 0.21011 0.71535 0.0
Co171 Co 0.34871 0.2169 0.68739 0.0
C172 C 0.25863 0.22343 0.61316 0.0
O173 O 0.21928 0.21689 0.6436 0.0
O174 O 0.30959 0.22514 0.6264 0.0
C175 C 0.1429 0.13203 0.70167 0.0
O176 O 0.1868 0.1171 0.67558 0.0
C177 C 0.43612 0.16629 0.62994 0.0
C178 C 0.51341 0.17944 0.67227 0.0
C179 C 0.492 0.14949 0.63337 0.0
N180 N 0.42429 0.20233 0.66614 0.0
N181 N 0.47132 0.21172 0.69034 0.0
C182 C 0.39356 0.14506 0.59436 0.0
H183 H 0.37808 0.18127 0.57248 0.0
H184 H 0.35719 0.1255 0.61359 0.0
H185 H 0.41219 0.11424 0.56879 0.0
C186 C 0.26052 0.10236 0.76398 0.0
N187 N 0.271 0.15132 0.73947 0.0
N188 N 0.32351 0.15092 0.72413 0.0
C189 C 0.34721 0.10056 0.73714 0.0
C190 C 0.30722 0.06629 0.76052 0.0
C191 C 0.21019 0.09315 0.79601 0.0
H192 H 0.18085 0.12965 0.79533 0.0
H193 H 0.18812 0.05329 0.78668 0.0
H194 H 0.2249 0.0888 0.83367 0.0
O195 O 0.24237 0.28942 0.73967 0.0
O196 O 0.33425 0.29355 0.71938 0.0
H197 H 0.42056 1.04998 0.75541 0.0
H198 H 0.42025 0.08071 0.69616 0.0
C199 C 0.40901 0.08804 0.7339 0.0
H200 H 0.43347 0.12502 0.7469 0.0
H201 H 0.4735 0.23586 0.72168 0.0
O202 O 0.14437 0.17876 0.72495 0.0
C203 C 0.28941 0.3168 0.73672 0.0
Co204 Co 0.39563 0.71895 0.21977 0.0
Co205 Co 0.39063 0.84583 0.18734 0.0
C206 C 0.38492 0.7526 0.11589 0.0
O207 O 0.38361 0.71514 0.14862 0.0
O208 O 0.38889 0.80467 0.12608 0.0
C209 C 0.46761 0.63649 0.20326 0.0
O210 O 0.48107 0.6791 0.17489 0.0
C211 C 0.42597 0.9415 0.12783 0.0
C212 C 0.42938 1.01024 0.18077 0.0
C213 C 0.44827 0.995 0.13522 0.0
N214 N 0.39913 0.92411 0.16822 0.0
N215 N 0.39891 0.96675 0.19888 0.0
C216 C 0.43477 0.90598 0.08405 0.0
H217 H 0.39343 0.88962 0.07137 0.0
H218 H 0.46236 0.86963 0.09336 0.0
H219 H 0.45469 0.93083 0.05451 0.0
C220 C 0.50619 0.75735 0.26108 0.0
N221 N 0.45604 0.76941 0.23961 0.0
N222 N 0.45729 0.8219 0.22351 0.0
C223 C 0.5094 0.84378 0.23338 0.0
C224 C 0.54317 0.80277 0.25555 0.0
C225 C 0.51631 0.70714 0.29306 0.0
H226 H 0.47574 0.6872 0.30401 0.0
H227 H 0.54311 0.67577 0.27443 0.0
H228 H 0.53971 0.72052 0.32567 0.0
O229 O 0.3185 0.73893 0.24543 0.0
O230 O 0.31413 0.82944 0.22118 0.0
H231 H 0.51783 0.9298 0.25519 0.0
H232 H 0.57325 0.9059 0.21559 0.0
C233 C 0.52727 0.90324 0.22331 0.0
H234 H 0.50369 0.92003 0.19288 0.0
H235 H 0.3838 0.96388 0.2341 0.0
O236 O 0.42593 0.64181 0.2322 0.0
C237 C 0.29105 0.78557 0.24079 0.0
Co238 Co 0.8748 0.89847 0.71525 0.0
Co239 Co 0.7473 0.88579 0.69036 0.0
C240 C 0.83551 0.88534 0.61397 0.0
O241 O 0.87519 0.89498 0.64335 0.0
O242 O 0.78514 0.87946 0.62846 0.0
C243 C 0.95517 0.97617 0.70288 0.0
O244 O 0.91164 0.99357 0.67749 0.0
C245 C 0.64854 0.91413 0.63299 0.0
C246 C 0.58403 0.92389 0.68945 0.0
C247 C 0.59559 0.93709 0.64167 0.0
N248 N 0.66885 0.8922 0.67443 0.0
N249 N 0.62884 0.89581 0.70748 0.0
C250 C 0.67996 0.91554 0.58614 0.0
H251 H 0.71688 0.94436 0.5887 0.0
H252 H 0.65214 0.93009 0.55641 0.0
H253 H 0.69558 0.87231 0.57768 0.0
C254 C 0.83255 1.00488 0.76283 0.0
N255 N 0.82286 0.95478 0.74035 0.0
N256 N 0.77075 0.95437 0.72417 0.0
C257 C 0.74714 1.00594 0.73346 0.0
C258 C 0.78578 1.04046 0.75765 0.0
C259 C 0.88297 1.01667 0.79373 0.0
H260 H 0.90639 0.97698 0.80187 0.0
H261 H 0.91147 1.0473 0.77577 0.0
H262 H 0.86896 1.03651 0.82789 0.0
O263 O 0.85858 0.81735 0.73714 0.0
O264 O 0.76544 0.81136 0.72461 0.0
H265 H 0.6575 1.01144 0.74121 0.0
H266 H 0.68884 0.07084 0.70944 0.0
C267 C 0.69084 1.02427 0.71519 0.0
H268 H 0.68304 1.00307 0.68098 0.0
H269 H 0.6345 0.88503 0.7436 0.0
O270 O 0.95155 0.92953 0.72625 0.0
C271 C 0.81233 0.78873 0.7378 0.0
C272 C 0.05224 0.61512 0.40917 0.0
C273 C 1.00307 0.58247 0.41721 0.0
C274 C 0.10541 0.58963 0.40502 0.0
C275 C 0.11168 0.53069 0.40954 0.0
H276 H 0.04953 0.65989 0.40109 0.0
H277 H 0.1409 0.61562 0.39364 0.0
S278 S 0.99814 0.42948 0.44613 0.0
N279 N 0.96533 0.49087 0.43998 0.0
N280 N 0.06529 0.44228 0.43395 0.0
C281 C 0.06406 0.49889 0.42496 0.0
C282 C 1.00967 0.52501 0.42826 0.0
C283 C 0.9809 0.54837 0.8997 0.0
C284 C 1.01306 0.49887 0.90809 0.0
C285 C 1.00628 0.60182 0.89802 0.0
C286 C 0.06457 0.60811 0.90548 0.0
H287 H 0.93669 0.54589 0.89019 0.0
H288 H 0.98094 0.63781 0.88666 0.0
S289 S 0.16359 0.49275 0.94277 0.0
N290 N 0.10305 0.46006 0.93291 0.0
N291 N 0.15115 0.56059 0.93245 0.0
C292 C 0.0955 0.5597 0.92074 0.0
C293 C 0.06963 0.50499 0.92119 0.0
C294 C 0.50677 0.07686 0.10933 0.0
C295 C 0.50158 1.01795 0.11449 0.0
C296 C 0.56009 0.10262 0.10813 0.0
C297 C 0.60989 0.07058 0.11503 0.0
H298 H 0.46942 0.10358 0.11012 0.0
H299 H 0.56119 0.14826 0.10648 0.0
S300 S 0.62075 0.91414 0.11395 0.0
N301 N 0.55215 0.92726 0.1123 0.0
N302 N 0.65171 0.97687 0.1151 0.0
C303 C 0.60572 1.01151 0.11329 0.0
C304 C 0.55159 0.98487 0.11203 0.0
C305 C 0.51038 0.99171 0.62017 0.0
C306 C 0.56936 0.98686 0.61771 0.0
C307 C 0.48418 1.04483 0.6188 0.0
C308 C 0.51633 0.09524 0.61618 0.0
H309 H 0.48477 0.95465 0.62794 0.0
H310 H 0.43903 1.04574 0.62462 0.0
S311 S 0.6702 0.10519 0.59342 0.0
N312 N 0.65771 1.03659 0.59918 0.0
N313 N 0.60823 0.13654 0.60014 0.0
C314 C 0.57428 0.09061 0.6069 0.0
C315 C 0.60093 1.03629 0.60665 0.0
C316 C 0.45918 0.33412 0.2474 0.0
C317 C 0.49315 0.28715 0.26046 0.0
C318 C 0.3998 0.33405 0.25408 0.0
C319 C 0.37113 0.28632 0.27281 0.0
H320 H 0.47846 0.37134 0.23139 0.0
H321 H 0.37613 0.37173 0.2443 0.0
S322 S 0.43999 0.15281 0.31413 0.0
N323 N 0.49321 0.19242 0.29504 0.0
N324 N 0.38221 0.19085 0.30514 0.0
C325 C 0.40452 0.23871 0.28532 0.0
C326 C 0.4651 0.23944 0.27971 0.0
C327 C 0.28627 0.97743 0.81104 0.0
C328 C 0.30902 1.00248 0.76899 0.0
C329 C 0.28466 0.91784 0.81773 0.0
C330 C 0.30687 0.88003 0.78323 0.0
H331 H 0.2702 1.0038 0.83965 0.0
H332 H 0.26712 0.90128 0.85097 0.0
S333 S 0.36772 0.92206 0.66532 0.0
N334 N 0.35066 0.983 0.69065 0.0
N335 N 0.35076 0.87218 0.70468 0.0
C336 C 0.32985 0.9042 0.74114 0.0
C337 C 0.33019 0.96482 0.73373 0.0
C338 C 0.63416 0.84864 0.2855 0.0
C339 C 0.60669 0.80304 0.26265 0.0
C340 C 0.69363 0.84978 0.29127 0.0
C341 C 0.72854 0.80483 0.27538 0.0
H342 H 0.60948 0.88359 0.29957 0.0
H343 H 0.71226 0.88551 0.3098 0.0
S344 S 0.67903 0.67776 0.20941 0.0
N345 N 0.62061 0.71427 0.21983 0.0
N346 N 0.73095 0.71447 0.23398 0.0
C347 C 0.70176 0.75923 0.25218 0.0
C348 C 0.64143 0.75882 0.24505 0.0
C349 C 0.82722 0.1987 0.75876 0.0
C350 C 0.78003 0.22624 0.77929 0.0
C351 C 0.8283 0.13929 0.75186 0.0
C352 C 0.78306 0.1039 0.76631 0.0
H353 H 0.86373 0.22332 0.74765 0.0
H354 H 0.86486 0.12108 0.73439 0.0
S355 S 0.6508 0.15366 0.82504 0.0
N356 N 0.6869 0.21257 0.81497 0.0
N357 N 0.69045 0.10142 0.80431 0.0
C358 C 0.73586 0.13077 0.78742 0.0
C359 C 0.73405 0.19151 0.79337 0.0
C360 C 0.96924 0.30526 0.21984 0.0
C361 C 0.99309 0.31562 0.26539 0.0
C362 C 0.91007 0.30194 0.2132 0.0
C363 C 0.87177 0.31019 0.25154 0.0
H364 H 0.99647 0.30003 0.18882 0.0
H365 H 0.89407 0.29404 0.17737 0.0
S366 S 0.91127 0.33712 0.37812 0.0
N367 N 0.97275 0.33202 0.34993 0.0
N368 N 0.86202 0.32904 0.33669 0.0
C369 C 0.89477 0.32153 0.29703 0.0
C370 C 0.95511 0.3235 0.3041 0.0
C371 C 0.29606 0.47789 0.71598 0.0
C372 C 0.28708 0.50114 0.76201 0.0
C373 C 0.29776 0.41851 0.70854 0.0
C374 C 0.28995 0.37947 0.74665 0.0
H375 H 0.30099 0.50572 0.6852 0.0
H376 H 0.3042 0.40294 0.67234 0.0
S377 S 0.27137 0.41727 0.87482 0.0
N378 N 0.27566 0.47928 0.84705 0.0
N379 N 0.27622 0.36852 0.83249 0.0
C380 C 0.28184 0.40192 0.79286 0.0
C381 C 0.28114 0.46234 0.80065 0.0
C382 C 0.1344 0.74186 0.24559 0.0
C383 C 0.10731 0.78775 0.26857 0.0
C384 C 0.19371 0.7409 0.23828 0.0
C385 C 0.22881 0.78632 0.25256 0.0
H386 H 0.10967 0.70674 0.23221 0.0
H387 H 0.21205 0.70485 0.21986 0.0
S388 S 0.18081 0.91425 0.31827 0.0
N389 N 0.1223 0.87729 0.31 0.0
N390 N 0.23209 0.87737 0.29265 0.0
C391 C 0.20254 0.8322 0.27583 0.0
C392 C 0.14246 0.83241 0.28469 0.0
C393 C 0.76908 0.69869 0.77228 0.0
C394 C 0.81383 0.72584 0.74774 0.0
C395 C 0.76768 0.6391 0.77839 0.0
C396 C 0.80994 0.6033 0.759 0.0
H397 H 0.73491 0.72378 0.78723 0.0
H398 H 0.73323 0.62097 0.79904 0.0
S399 S 0.93307 0.65248 0.68665 0.0
N400 N 0.90038 0.71172 0.70197 0.0
N401 N 0.89568 0.60032 0.71066 0.0
C402 C 0.85417 0.62989 0.73329 0.0
C403 C 0.85653 0.69075 0.7283 0.0
C404 C 0.26859 0.28151 0.4868 0.0
C405 C 0.22737 0.25056 0.46176 0.0
C406 C 0.27824 0.27201 0.5357 0.0
C407 C 0.24598 0.23231 0.5618 0.0
H408 H 0.29414 0.31299 0.46829 0.0
H409 H 0.31087 0.29653 0.55338 0.0
S410 S 0.13237 0.14065 0.51323 0.0
N411 N 0.1542 0.17819 0.46638 0.0
N412 N 0.17109 0.16166 0.55926 0.0
C413 C 0.20414 0.20137 0.53747 0.0
C414 C 0.19525 0.21006 0.48713 0.0
C415 C 0.32915 0.70649 0.05148 0.0
C416 C 0.37773 0.73624 0.06528 0.0
C417 C 0.31686 0.69799 1.00281 0.0
C418 C 0.3529 0.71851 0.96618 0.0
H419 H 0.29917 0.69185 0.07837 0.0
H420 H 0.27829 0.67594 0.99405 0.0
S421 S 0.49022 0.79164 0.98472 0.0
N422 N 0.46555 0.78044 0.03956 0.0
N423 N 0.44244 0.76509 0.94786 0.0
C424 C 0.40361 0.74518 0.97989 0.0
C425 C 0.41591 0.75406 0.02952 0.0
C426 C 0.81684 0.83471 0.53776 0.0
C427 C 0.84755 0.87643 0.56251 0.0
C428 C 0.82675 0.82418 0.48909 0.0
C429 C 0.86673 0.85593 0.46294 0.0
H430 H 0.78549 0.80917 0.55638 0.0
H431 H 0.8026 0.79103 0.4717 0.0
S432 S 0.95768 0.97076 0.51066 0.0
N433 N 0.91973 0.94975 0.55749 0.0
N434 N 0.93715 0.93112 0.46503 0.0
C435 C 0.89724 0.89845 0.48691 0.0
C436 C 0.88807 0.90829 0.53702 0.0
C437 C 0.69807 0.3955 0.04171 0.0
C438 C 0.73117 0.35574 0.0669 0.0
C439 C 0.7055 0.4036 0.99188 0.0
C440 C 0.74696 0.37296 0.96631 0.0
H441 H 0.66524 0.41902 0.06025 0.0
H442 H 0.679 0.43418 0.97338 0.0
S443 S 0.84528 0.26525 0.01689 0.0
N444 N 0.80722 0.28652 0.06327 0.0
N445 N 0.82166 0.30188 0.97039 0.0
C446 C 0.78085 0.33397 0.99165 0.0
C447 C 0.77284 0.32536 0.04179 0.0
C448 C 1.02402 1.03112 0.36419 0.0
C449 C 1.00175 1.01097 0.32076 0.0
C450 C 0.06757 0.07086 0.36454 0.0
C451 C 0.09207 0.09031 0.32151 0.0
H452 H 1.00793 1.01555 0.39833 0.0
H453 H 0.08216 0.08665 0.39891 0.0
S454 S 0.04974 1.04986 0.19802 0.0
N455 N 1.00502 1.01555 0.23344 0.0
N456 N 0.09272 0.08467 0.23417 0.0
C457 C 0.07138 0.0694 0.2777 0.0
C458 C 1.02429 1.03152 0.2773 0.0
C459 C 0.54999 0.60972 0.81973 0.0
C460 C 0.49432 0.5896 0.81962 0.0
C461 C 0.59537 0.57183 0.82184 0.0
C462 C 0.58666 0.51264 0.82129 0.0
H463 H 0.55846 0.65491 0.82052 0.0
H464 H 0.63766 0.58918 0.82439 0.0
S465 S 0.44855 0.43865 0.82012 0.0
N466 N 0.43232 0.50684 0.82024 0.0
N467 N 0.51843 0.43571 0.81981 0.0
C468 C 0.53124 0.49195 0.81946 0.0
C469 C 0.48481 0.53049 0.81969 0.0
C470 C 0.5258 0.56545 0.24809 0.0
C471 C 0.50618 0.58786 0.20428 0.0
C472 C 0.57098 0.52682 0.24896 0.0
C473 C 0.59542 0.5075 0.20591 0.0
H474 H 0.50755 0.57927 0.28184 0.0
H475 H 0.58532 0.51046 0.28327 0.0
S476 S 0.55793 0.55211 0.08211 0.0
N477 N 0.51473 0.58847 0.11715 0.0
N478 N 0.59702 0.5132 0.11871 0.0
C479 C 0.57557 0.52909 0.16206 0.0
C480 C 0.53121 0.56958 0.16124 0.0
C481 C 1.04011 0.11157 0.70749 0.0
C482 C 0.0959 0.09175 0.70652 0.0
C483 C 0.99492 0.0734 0.7066 0.0
C484 C 1.004 1.01427 0.70726 0.0
H485 H 1.03134 0.15671 0.70661 0.0
H486 H 0.95249 0.09045 0.70479 0.0
S487 S 0.14253 0.94098 0.70614 0.0
N488 N 0.15833 1.00924 0.70522 0.0
N489 N 0.07271 0.9377 0.70786 0.0
C490 C 0.05957 0.99388 0.7081 0.0
C491 C 0.10574 1.03266 0.70668 0.0
loop_
_geom_bond_atom_site_label_1
_geom_bond_atom_site_label_2
_geom_bond_distance
_geom_bond_site_symmetry_2
_ccdc_geom_bond_type
Co0 O3 1.970 . S
Co0 N17 1.989 . S
Co0 O25 1.967 . S
Co0 O32 1.920 . S
Co1 O4 1.966 . S
Co1 N10 2.022 . S
Co1 N18 1.993 . S
Co1 O26 1.941 . S
C2 O3 1.258 . S
C2 O4 1.263 . S
O3 Co0 1.970 . S
O3 C2 1.258 . S
O4 Co1 1.966 . S
O4 C2 1.263 . S
C5 O6 1.235 . S
C5 O32 1.289 . S
O6 C5 1.235 . S
C7 C9 1.400 . S
C7 N10 1.351 . S
C7 C12 1.501 . S
C8 C9 1.387 . S
C8 N11 1.341 . S
C9 C7 1.400 . S
C9 C8 1.387 . S
N10 Co1 2.022 . S
N10 C7 1.351 . S
N10 N11 1.365 . S
N11 C8 1.341 . S
N11 N10 1.365 . S
N11 H31 0.862 . S
C12 C7 1.501 . S
C12 H13 0.961 . S
C12 H14 0.961 . S
C12 H15 0.960 . S
H13 C12 0.961 . S
H14 C12 0.961 . S
H15 C12 0.960 . S
C16 N17 1.342 1_655 S
C16 C20 1.401 . S
C16 C21 1.499 . S
N17 Co0 1.989 . S
N17 C16 1.342 1_455 S
N17 N18 1.388 . S
N18 Co1 1.993 . S
N18 N17 1.388 . S
N18 C19 1.346 1_455 S
C19 N18 1.346 1_655 S
C19 C20 1.396 . S
C19 C29 1.510 . S
C20 C16 1.401 . S
C20 C19 1.396 . S
C21 C16 1.499 . S
C21 H22 0.959 . S
C21 H23 0.960 . S
C21 H24 0.961 . S
H22 C21 0.959 . S
H23 C21 0.960 . S
H24 C21 0.961 . S
O25 Co0 1.967 . S
O25 C33 1.258 . S
O26 Co1 1.941 . S
O26 C33 1.266 . S
H27 C29 0.959 . S
H28 C29 0.961 . S
C29 C19 1.510 . S
C29 H27 0.959 . S
C29 H28 0.961 . S
C29 H30 0.960 . S
H30 C29 0.960 . S
H31 N11 0.862 . S
O32 Co0 1.920 . S
O32 C5 1.289 . S
C33 O25 1.258 . S
C33 O26 1.266 . S
Co34 O37 1.970 . S
Co34 N51 1.989 . S
Co34 O59 1.967 . S
Co34 O66 1.920 . S
Co35 O38 1.966 . S
Co35 N44 2.022 . S
Co35 N52 1.993 . S
Co35 O60 1.941 . S
C36 O37 1.258 . S
C36 O38 1.263 . S
O37 Co34 1.970 . S
O37 C36 1.258 . S
O38 Co35 1.966 . S
O38 C36 1.263 . S
C39 O40 1.235 . S
C39 O66 1.289 . S
O40 C39 1.235 . S
C41 C43 1.400 . S
C41 N44 1.351 . S
C41 C46 1.501 . S
C42 C43 1.387 . S
C42 N45 1.341 . S
C43 C41 1.400 . S
C43 C42 1.387 . S
N44 Co35 2.022 . S
N44 C41 1.351 . S
N44 N45 1.365 . S
N45 C42 1.341 . S
N45 N44 1.365 . S
N45 H65 0.862 . S
C46 C41 1.501 . S
C46 H47 0.961 . S
C46 H48 0.961 . S
C46 H49 0.960 . S
H47 C46 0.961 . S
H48 C46 0.961 . S
H49 C46 0.960 . S
C50 N51 1.342 . S
C50 C54 1.401 . S
C50 C55 1.499 . S
N51 Co34 1.989 . S
N51 C50 1.342 . S
N51 N52 1.388 . S
N52 Co35 1.993 . S
N52 N51 1.388 . S
N52 C53 1.346 . S
C53 N52 1.346 . S
C53 C54 1.396 . S
C53 C63 1.510 . S
C54 C50 1.401 . S
C54 C53 1.396 . S
C55 C50 1.499 . S
C55 H56 0.959 . S
C55 H57 0.960 . S
C55 H58 0.961 . S
H56 C55 0.959 . S
H57 C55 0.960 . S
H58 C55 0.961 . S
O59 Co34 1.967 . S
O59 C67 1.258 . S
O60 Co35 1.941 . S
O60 C67 1.266 . S
H61 C63 0.959 . S
H62 C63 0.961 . S
C63 C53 1.510 . S
C63 H61 0.959 . S
C63 H62 0.961 . S
C63 H64 0.960 . S
H64 C63 0.960 . S
H65 N45 0.862 . S
O66 Co34 1.920 . S
O66 C39 1.289 . S
C67 O59 1.258 . S
C67 O60 1.266 . S
Co68 O71 1.970 . S
Co68 N85 1.989 . S
Co68 O93 1.967 . S
Co68 O100 1.920 . S
Co69 O72 1.966 . S
Co69 N78 2.022 . S
Co69 N86 1.993 . S
Co69 O94 1.941 . S
C70 O71 1.258 . S
C70 O72 1.263 . S
O71 Co68 1.970 . S
O71 C70 1.258 . S
O72 Co69 1.966 . S
O72 C70 1.263 . S
C73 O74 1.235 . S
C73 O100 1.289 . S
O74 C73 1.235 . S
C75 C77 1.400 . S
C75 N78 1.351 . S
C75 C80 1.501 . S
C76 C77 1.387 . S
C76 N79 1.341 . S
C77 C75 1.400 . S
C77 C76 1.387 . S
N78 Co69 2.022 . S
N78 C75 1.351 . S
N78 N79 1.365 . S
N79 C76 1.341 . S
N79 N78 1.365 . S
N79 H99 0.862 . S
C80 C75 1.501 . S
C80 H81 0.961 . S
C80 H82 0.961 . S
C80 H83 0.960 . S
H81 C80 0.961 . S
H82 C80 0.961 . S
H83 C80 0.960 . S
C84 N85 1.342 1_455 S
C84 C88 1.401 . S
C84 C89 1.499 . S
N85 Co68 1.989 . S
N85 C84 1.342 1_655 S
N85 N86 1.388 . S
N86 Co69 1.993 . S
N86 N85 1.388 . S
N86 C87 1.346 1_655 S
C87 N86 1.346 1_455 S
C87 C88 1.396 . S
C87 C97 1.510 . S
C88 C84 1.401 . S
C88 C87 1.396 . S
C89 C84 1.499 . S
C89 H90 0.959 . S
C89 H91 0.960 . S
C89 H92 0.961 . S
H90 C89 0.959 . S
H91 C89 0.960 . S
H92 C89 0.961 . S
O93 Co68 1.967 . S
O93 C101 1.258 . S
O94 Co69 1.941 . S
O94 C101 1.266 . S
H95 C97 0.959 . S
H96 C97 0.961 . S
C97 C87 1.510 . S
C97 H95 0.959 . S
C97 H96 0.961 . S
C97 H98 0.960 . S
H98 C97 0.960 . S
H99 N79 0.862 . S
O100 Co68 1.920 . S
O100 C73 1.289 . S
C101 O93 1.258 . S
C101 O94 1.266 . S
Co102 O105 1.970 . S
Co102 N119 1.989 . S
Co102 O127 1.967 . S
Co102 O134 1.920 . S
Co103 O106 1.966 . S
Co103 N112 2.022 . S
Co103 N120 1.993 . S
Co103 O128 1.941 . S
C104 O105 1.258 . S
C104 O106 1.263 . S
O105 Co102 1.970 . S
O105 C104 1.258 . S
O106 Co103 1.966 . S
O106 C104 1.263 . S
C107 O108 1.235 . S
C107 O134 1.289 . S
O108 C107 1.235 . S
C109 C111 1.400 . S
C109 N112 1.351 . S
C109 C114 1.501 . S
C110 C111 1.387 . S
C110 N113 1.341 . S
C111 C109 1.400 . S
C111 C110 1.387 . S
N112 Co103 2.022 . S
N112 C109 1.351 . S
N112 N113 1.365 . S
N113 C110 1.341 . S
N113 N112 1.365 . S
N113 H133 0.862 . S
C114 C109 1.501 . S
C114 H115 0.961 . S
C114 H116 0.961 . S
C114 H117 0.960 . S
H115 C114 0.961 . S
H116 C114 0.961 . S
H117 C114 0.960 . S
C118 N119 1.342 . S
C118 C122 1.401 . S
C118 C123 1.499 . S
N119 Co102 1.989 . S
N119 C118 1.342 . S
N119 N120 1.388 . S
N120 Co103 1.993 . S
N120 N119 1.388 . S
N120 C121 1.346 . S
C121 N120 1.346 . S
C121 C122 1.396 . S
C121 C131 1.510 . S
C122 C118 1.401 . S
C122 C121 1.396 . S
C123 C118 1.499 . S
C123 H124 0.959 . S
C123 H125 0.960 . S
C123 H126 0.961 . S
H124 C123 0.959 . S
H125 C123 0.960 . S
H126 C123 0.961 . S
O127 Co102 1.967 . S
O127 C135 1.258 . S
O128 Co103 1.941 . S
O128 C135 1.266 . S
H129 C131 0.959 . S
H130 C131 0.961 . S
C131 C121 1.510 . S
C131 H129 0.959 . S
C131 H130 0.961 . S
C131 H132 0.960 . S
H132 C131 0.960 . S
H133 N113 0.862 . S
O134 Co102 1.920 . S
O134 C107 1.289 . S
C135 O127 1.258 . S
C135 O128 1.266 . S
Co136 O139 1.970 . S
Co136 N153 1.989 . S
Co136 O161 1.967 . S
Co136 O168 1.920 . S
Co137 O140 1.966 . S
Co137 N146 2.022 . S
Co137 N154 1.993 . S
Co137 O162 1.941 . S
C138 O139 1.258 . S
C138 O140 1.263 . S
O139 Co136 1.970 . S
O139 C138 1.258 . S
O140 Co137 1.966 . S
O140 C138 1.263 . S
C141 O142 1.235 . S
C141 O168 1.289 . S
O142 C141 1.235 . S
C143 C145 1.400 . S
C143 N146 1.351 . S
C143 C148 1.501 . S
C144 C145 1.387 . S
C144 N147 1.341 . S
C145 C143 1.400 . S
C145 C144 1.387 . S
N146 Co137 2.022 . S
N146 C143 1.351 . S
N146 N147 1.365 . S
N147 C144 1.341 . S
N147 N146 1.365 . S
N147 H167 0.862 . S
C148 C143 1.501 . S
C148 H149 0.961 . S
C148 H150 0.961 . S
C148 H151 0.960 . S
H149 C148 0.961 . S
H150 C148 0.961 . S
H151 C148 0.960 . S
C152 N153 1.342 . S
C152 C156 1.401 . S
C152 C157 1.499 . S
N153 Co136 1.989 . S
N153 C152 1.342 . S
N153 N154 1.388 . S
N154 Co137 1.993 . S
N154 N153 1.388 . S
N154 C155 1.346 . S
C155 N154 1.346 . S
C155 C156 1.396 . S
C155 C165 1.510 . S
C156 C152 1.401 . S
C156 C155 1.396 . S
C157 C152 1.499 . S
C157 H158 0.959 . S
C157 H159 0.960 . S
C157 H160 0.961 . S
H158 C157 0.959 . S
H159 C157 0.960 . S
H160 C157 0.961 . S
O161 Co136 1.967 . S
O161 C169 1.258 . S
O162 Co137 1.941 . S
O162 C169 1.266 . S
H163 C165 0.959 . S
H164 C165 0.961 . S
C165 C155 1.510 . S
C165 H163 0.959 . S
C165 H164 0.961 . S
C165 H166 0.960 . S
H166 C165 0.960 . S
H167 N147 0.862 . S
O168 Co136 1.920 . S
O168 C141 1.289 . S
C169 O161 1.258 . S
C169 O162 1.266 . S
Co170 O173 1.970 . S
Co170 N187 1.989 . S
Co170 O195 1.967 . S
Co170 O202 1.920 . S
Co171 O174 1.966 . S
Co171 N180 2.022 . S
Co171 N188 1.993 . S
Co171 O196 1.941 . S
C172 O173 1.258 . S
C172 O174 1.263 . S
O173 Co170 1.970 . S
O173 C172 1.258 . S
O174 Co171 1.966 . S
O174 C172 1.263 . S
C175 O176 1.235 . S
C175 O202 1.289 . S
O176 C175 1.235 . S
C177 C179 1.400 . S
C177 N180 1.351 . S
C177 C182 1.501 . S
C178 C179 1.387 . S
C178 N181 1.341 . S
C179 C177 1.400 . S
C179 C178 1.387 . S
N180 Co171 2.022 . S
N180 C177 1.351 . S
N180 N181 1.365 . S
N181 C178 1.341 . S
N181 N180 1.365 . S
N181 H201 0.862 . S
C182 C177 1.501 . S
C182 H183 0.961 . S
C182 H184 0.961 . S
C182 H185 0.960 . S
H183 C182 0.961 . S
H184 C182 0.961 . S
H185 C182 0.960 . S
C186 N187 1.342 1_565 S
C186 C190 1.401 . S
C186 C191 1.499 . S
N187 Co170 1.989 . S
N187 C186 1.342 1_545 S
N187 N188 1.388 . S
N188 Co171 1.993 . S
N188 N187 1.388 . S
N188 C189 1.346 1_545 S
C189 N188 1.346 1_565 S
C189 C190 1.396 . S
C189 C199 1.510 . S
C190 C186 1.401 . S
C190 C189 1.396 . S
C191 C186 1.499 . S
C191 H192 0.959 . S
C191 H193 0.960 . S
C191 H194 0.961 . S
H192 C191 0.959 . S
H193 C191 0.960 . S
H194 C191 0.961 . S
O195 Co170 1.967 . S
O195 C203 1.258 . S
O196 Co171 1.941 . S
O196 C203 1.266 . S
H197 C199 0.959 . S
H198 C199 0.961 . S
C199 C189 1.510 . S
C199 H197 0.959 . S
C199 H198 0.961 . S
C199 H200 0.960 . S
H200 C199 0.960 . S
H201 N181 0.862 . S
O202 Co170 1.920 . S
O202 C175 1.289 . S
C203 O195 1.258 . S
C203 O196 1.266 . S
Co204 O207 1.970 . S
Co204 N221 1.989 . S
Co204 O229 1.967 . S
Co204 O236 1.920 . S
Co205 O208 1.966 . S
Co205 N214 2.022 . S
Co205 N222 1.993 . S
Co205 O230 1.941 . S
C206 O207 1.258 . S
C206 O208 1.263 . S
O207 Co204 1.970 . S
O207 C206 1.258 . S
O208 Co205 1.966 . S
O208 C206 1.263 . S
C209 O210 1.235 . S
C209 O236 1.289 . S
O210 C209 1.235 . S
C211 C213 1.400 . S
C211 N214 1.351 . S
C211 C216 1.501 . S
C212 C213 1.387 . S
C212 N215 1.341 . S
C213 C211 1.400 . S
C213 C212 1.387 . S
N214 Co205 2.022 . S
N214 C211 1.351 . S
N214 N215 1.365 . S
N215 C212 1.341 . S
N215 N214 1.365 . S
N215 H235 0.862 . S
C216 C211 1.501 . S
C216 H217 0.961 . S
C216 H218 0.961 . S
C216 H219 0.960 . S
H217 C216 0.961 . S
H218 C216 0.961 . S
H219 C216 0.960 . S
C220 N221 1.342 . S
C220 C224 1.401 . S
C220 C225 1.499 . S
N221 Co204 1.989 . S
N221 C220 1.342 . S
N221 N222 1.388 . S
N222 Co205 1.993 . S
N222 N221 1.388 . S
N222 C223 1.346 . S
C223 N222 1.346 . S
C223 C224 1.396 . S
C223 C233 1.510 . S
C224 C220 1.401 . S
C224 C223 1.396 . S
C225 C220 1.499 . S
C225 H226 0.959 . S
C225 H227 0.960 . S
C225 H228 0.961 . S
H226 C225 0.959 . S
H227 C225 0.960 . S
H228 C225 0.961 . S
O229 Co204 1.967 . S
O229 C237 1.258 . S
O230 Co205 1.941 . S
O230 C237 1.266 . S
H231 C233 0.959 . S
H232 C233 0.961 . S
C233 C223 1.510 . S
C233 H231 0.959 . S
C233 H232 0.961 . S
C233 H234 0.960 . S
H234 C233 0.960 . S
H235 N215 0.862 . S
O236 Co204 1.920 . S
O236 C209 1.289 . S
C237 O229 1.258 . S
C237 O230 1.266 . S
Co238 O241 1.970 . S
Co238 N255 1.989 . S
Co238 O263 1.967 . S
Co238 O270 1.920 . S
Co239 O242 1.966 . S
Co239 N248 2.022 . S
Co239 N256 1.993 . S
Co239 O264 1.941 . S
C240 O241 1.258 . S
C240 O242 1.263 . S
O241 Co238 1.970 . S
O241 C240 1.258 . S
O242 Co239 1.966 . S
O242 C240 1.263 . S
C243 O244 1.235 . S
C243 O270 1.289 . S
O244 C243 1.235 . S
C245 C247 1.400 . S
C245 N248 1.351 . S
C245 C250 1.501 . S
C246 C247 1.387 . S
C246 N249 1.341 . S
C247 C245 1.400 . S
C247 C246 1.387 . S
N248 Co239 2.022 . S
N248 C245 1.351 . S
N248 N249 1.365 . S
N249 C246 1.341 . S
N249 N248 1.365 . S
N249 H269 0.862 . S
C250 C245 1.501 . S
C250 H251 0.961 . S
C250 H252 0.961 . S
C250 H253 0.960 . S
H251 C250 0.961 . S
H252 C250 0.961 . S
H253 C250 0.960 . S
C254 N255 1.342 1_545 S
C254 C258 1.401 . S
C254 C259 1.499 . S
N255 Co238 1.989 . S
N255 C254 1.342 1_565 S
N255 N256 1.388 . S
N256 Co239 1.993 . S
N256 N255 1.388 . S
N256 C257 1.346 1_565 S
C257 N256 1.346 1_545 S
C257 C258 1.396 . S
C257 C267 1.510 . S
C258 C254 1.401 . S
C258 C257 1.396 . S
C259 C254 1.499 . S
C259 H260 0.959 . S
C259 H261 0.960 . S
C259 H262 0.961 . S
H260 C259 0.959 . S
H261 C259 0.960 . S
H262 C259 0.961 . S
O263 Co238 1.967 . S
O263 C271 1.258 . S
O264 Co239 1.941 . S
O264 C271 1.266 . S
H265 C267 0.959 . S
H266 C267 0.961 . S
C267 C257 1.510 . S
C267 H265 0.959 . S
C267 H266 0.961 . S
C267 H268 0.960 . S
H268 C267 0.960 . S
H269 N249 0.862 . S
O270 Co238 1.920 . S
O270 C243 1.289 . S
C271 O263 1.258 . S
C271 O264 1.266 . S
C272 C273 1.369 1_455 S
C272 C274 1.419 . S
C272 H276 0.930 . S
C273 C272 1.369 1_655 S
C273 C282 1.429 . S
C274 C272 1.419 . S
C274 C275 1.363 . S
C274 H277 0.929 . S
C275 C274 1.363 . S
C275 C281 1.428 1_455 S
H276 C272 0.930 . S
H277 C274 0.929 . S
S278 N279 1.613 . S
S278 N280 1.610 . S
N279 S278 1.613 . S
N279 C282 1.350 . S
N280 S278 1.610 . S
N280 C281 1.351 . S
C281 C275 1.428 1_655 S
C281 N280 1.351 . S
C281 C282 1.434 . S
C282 C273 1.429 . S
C282 N279 1.350 . S
C282 C281 1.434 . S
C283 C284 1.369 . S
C283 C285 1.419 . S
C283 H287 0.930 . S
C284 C283 1.369 . S
C284 C293 1.429 1_655 S
C285 C283 1.419 . S
C285 C286 1.363 1_655 S
C285 H288 0.929 . S
C286 C285 1.363 1_455 S
C286 C292 1.428 . S
H287 C283 0.930 . S
H288 C285 0.929 . S
S289 N290 1.613 . S
S289 N291 1.610 . S
N290 S289 1.613 . S
N290 C293 1.350 . S
N291 S289 1.610 . S
N291 C292 1.351 . S
C292 C286 1.428 . S
C292 N291 1.351 . S
C292 C293 1.434 . S
C293 C284 1.429 1_455 S
C293 N290 1.350 . S
C293 C292 1.434 . S
C294 C295 1.369 1_545 S
C294 C296 1.419 . S
C294 H298 0.930 . S
C295 C294 1.369 1_565 S
C295 C304 1.429 . S
C296 C294 1.419 . S
C296 C297 1.363 . S
C296 H299 0.929 . S
C297 C296 1.363 . S
C297 C303 1.428 1_545 S
H298 C294 0.930 . S
H299 C296 0.929 . S
S300 N301 1.613 . S
S300 N302 1.610 . S
N301 S300 1.613 . S
N301 C304 1.350 . S
N302 S300 1.610 . S
N302 C303 1.351 . S
C303 C297 1.428 1_565 S
C303 N302 1.351 . S
C303 C304 1.434 . S
C304 C295 1.429 . S
C304 N301 1.350 . S
C304 C303 1.434 . S
C305 C306 1.369 . S
C305 C307 1.419 . S
C305 H309 0.930 . S
C306 C305 1.369 . S
C306 C315 1.429 1_565 S
C307 C305 1.419 . S
C307 C308 1.363 1_565 S
C307 H310 0.929 . S
C308 C307 1.363 1_545 S
C308 C314 1.428 . S
H309 C305 0.930 . S
H310 C307 0.929 . S
S311 N312 1.613 . S
S311 N313 1.610 . S
N312 S311 1.613 . S
N312 C315 1.350 . S
N313 S311 1.610 . S
N313 C314 1.351 . S
C314 C308 1.428 . S
C314 N313 1.351 . S
C314 C315 1.434 . S
C315 C306 1.429 1_545 S
C315 N312 1.350 . S
C315 C314 1.434 . S
C316 C317 1.369 . S
C316 C318 1.419 . S
C316 H320 0.930 . S
C317 C316 1.369 . S
C317 C326 1.429 . S
C318 C316 1.419 . S
C318 C319 1.363 . S
C318 H321 0.929 . S
C319 C318 1.363 . S
C319 C325 1.428 . S
H320 C316 0.930 . S
H321 C318 0.929 . S
S322 N323 1.613 . S
S322 N324 1.610 . S
N323 S322 1.613 . S
N323 C326 1.350 . S
N324 S322 1.610 . S
N324 C325 1.351 . S
C325 C319 1.428 . S
C325 N324 1.351 . S
C325 C326 1.434 . S
C326 C317 1.429 . S
C326 N323 1.350 . S
C326 C325 1.434 . S
C327 C328 1.369 . S
C327 C329 1.419 . S
C327 H331 0.930 . S
C328 C327 1.369 . S
C328 C337 1.429 . S
C329 C327 1.419 . S
C329 C330 1.363 . S
C329 H332 0.929 . S
C330 C329 1.363 . S
C330 C336 1.428 . S
H331 C327 0.930 . S
H332 C329 0.929 . S
S333 N334 1.613 . S
S333 N335 1.610 . S
N334 S333 1.613 . S
N334 C337 1.350 . S
N335 S333 1.610 . S
N335 C336 1.351 . S
C336 C330 1.428 . S
C336 N335 1.351 . S
C336 C337 1.434 . S
C337 C328 1.429 . S
C337 N334 1.350 . S
C337 C336 1.434 . S
C338 C339 1.369 . S
C338 C340 1.419 . S
C338 H342 0.930 . S
C339 C338 1.369 . S
C339 C348 1.429 . S
C340 C338 1.419 . S
C340 C341 1.363 . S
C340 H343 0.929 . S
C341 C340 1.363 . S
C341 C347 1.428 . S
H342 C338 0.930 . S
H343 C340 0.929 . S
S344 N345 1.613 . S
S344 N346 1.610 . S
N345 S344 1.613 . S
N345 C348 1.350 . S
N346 S344 1.610 . S
N346 C347 1.351 . S
C347 C341 1.428 . S
C347 N346 1.351 . S
C347 C348 1.434 . S
C348 C339 1.429 . S
C348 N345 1.350 . S
C348 C347 1.434 . S
C349 C350 1.369 . S
C349 C351 1.419 . S
C349 H353 0.930 . S
C350 C349 1.369 . S
C350 C359 1.429 . S
C351 C349 1.419 . S
C351 C352 1.363 . S
C351 H354 0.929 . S
C352 C351 1.363 . S
C352 C358 1.428 . S
H353 C349 0.930 . S
H354 C351 0.929 . S
S355 N356 1.613 . S
S355 N357 1.610 . S
N356 S355 1.613 . S
N356 C359 1.350 . S
N357 S355 1.610 . S
N357 C358 1.351 . S
C358 C352 1.428 . S
C358 N357 1.351 . S
C358 C359 1.434 . S
C359 C350 1.429 . S
C359 N356 1.350 . S
C359 C358 1.434 . S
C360 C361 1.369 . S
C360 C362 1.419 . S
C360 H364 0.930 . S
C361 C360 1.369 . S
C361 C370 1.429 . S
C362 C360 1.419 . S
C362 C363 1.363 . S
C362 H365 0.929 . S
C363 C362 1.363 . S
C363 C369 1.428 . S
H364 C360 0.930 . S
H365 C362 0.929 . S
S366 N367 1.613 . S
S366 N368 1.610 . S
N367 S366 1.613 . S
N367 C370 1.350 . S
N368 S366 1.610 . S
N368 C369 1.351 . S
C369 C363 1.428 . S
C369 N368 1.351 . S
C369 C370 1.434 . S
C370 C361 1.429 . S
C370 N367 1.350 . S
C370 C369 1.434 . S
C371 C372 1.369 . S
C371 C373 1.419 . S
C371 H375 0.930 . S
C372 C371 1.369 . S
C372 C381 1.429 . S
C373 C371 1.419 . S
C373 C374 1.363 . S
C373 H376 0.929 . S
C374 C373 1.363 . S
C374 C380 1.428 . S
H375 C371 0.930 . S
H376 C373 0.929 . S
S377 N378 1.613 . S
S377 N379 1.610 . S
N378 S377 1.613 . S
N378 C381 1.350 . S
N379 S377 1.610 . S
N379 C380 1.351 . S
C380 C374 1.428 . S
C380 N379 1.351 . S
C380 C381 1.434 . S
C381 C372 1.429 . S
C381 N378 1.350 . S
C381 C380 1.434 . S
C382 C383 1.369 . S
C382 C384 1.419 . S
C382 H386 0.930 . S
C383 C382 1.369 . S
C383 C392 1.429 . S
C384 C382 1.419 . S
C384 C385 1.363 . S
C384 H387 0.929 . S
C385 C384 1.363 . S
C385 C391 1.428 . S
H386 C382 0.930 . S
H387 C384 0.929 . S
S388 N389 1.613 . S
S388 N390 1.610 . S
N389 S388 1.613 . S
N389 C392 1.350 . S
N390 S388 1.610 . S
N390 C391 1.351 . S
C391 C385 1.428 . S
C391 N390 1.351 . S
C391 C392 1.434 . S
C392 C383 1.429 . S
C392 N389 1.350 . S
C392 C391 1.434 . S
C393 C394 1.369 . S
C393 C395 1.419 . S
C393 H397 0.930 . S
C394 C393 1.369 . S
C394 C403 1.429 . S
C395 C393 1.419 . S
C395 C396 1.363 . S
C395 H398 0.929 . S
C396 C395 1.363 . S
C396 C402 1.428 . S
H397 C393 0.930 . S
H398 C395 0.929 . S
S399 N400 1.613 . S
S399 N401 1.610 . S
N400 S399 1.613 . S
N400 C403 1.350 . S
N401 S399 1.610 . S
N401 C402 1.351 . S
C402 C396 1.428 . S
C402 N401 1.351 . S
C402 C403 1.434 . S
C403 C394 1.429 . S
C403 N400 1.350 . S
C403 C402 1.434 . S
C404 C405 1.369 . S
C404 C406 1.419 . S
C404 H408 0.930 . S
C405 C404 1.369 . S
C405 C414 1.429 . S
C406 C404 1.419 . S
C406 C407 1.363 . S
C406 H409 0.929 . S
C407 C406 1.363 . S
C407 C413 1.428 . S
H408 C404 0.930 . S
H409 C406 0.929 . S
S410 N411 1.613 . S
S410 N412 1.610 . S
N411 S410 1.613 . S
N411 C414 1.350 . S
N412 S410 1.610 . S
N412 C413 1.351 . S
C413 C407 1.428 . S
C413 N412 1.351 . S
C413 C414 1.434 . S
C414 C405 1.429 . S
C414 N411 1.350 . S
C414 C413 1.434 . S
C415 C416 1.369 . S
C415 C417 1.419 . S
C415 H419 0.930 . S
C416 C415 1.369 . S
C416 C425 1.429 1_554 S
C417 C415 1.419 . S
C417 C418 1.363 1_554 S
C417 H420 0.929 . S
C418 C417 1.363 1_556 S
C418 C424 1.428 . S
H419 C415 0.930 . S
H420 C417 0.929 . S
S421 N422 1.613 . S
S421 N423 1.610 . S
N422 S421 1.613 . S
N422 C425 1.350 . S
N423 S421 1.610 . S
N423 C424 1.351 . S
C424 C418 1.428 . S
C424 N423 1.351 . S
C424 C425 1.434 . S
C425 C416 1.429 1_556 S
C425 N422 1.350 . S
C425 C424 1.434 . S
C426 C427 1.369 . S
C426 C428 1.419 . S
C426 H430 0.930 . S
C427 C426 1.369 . S
C427 C436 1.429 . S
C428 C426 1.419 . S
C428 C429 1.363 . S
C428 H431 0.929 . S
C429 C428 1.363 . S
C429 C435 1.428 . S
H430 C426 0.930 . S
H431 C428 0.929 . S
S432 N433 1.613 . S
S432 N434 1.610 . S
N433 S432 1.613 . S
N433 C436 1.350 . S
N434 S432 1.610 . S
N434 C435 1.351 . S
C435 C429 1.428 . S
C435 N434 1.351 . S
C435 C436 1.434 . S
C436 C427 1.429 . S
C436 N433 1.350 . S
C436 C435 1.434 . S
C437 C438 1.369 . S
C437 C439 1.419 1_554 S
C437 H441 0.930 . S
C438 C437 1.369 . S
C438 C447 1.429 . S
C439 C437 1.419 1_556 S
C439 C440 1.363 . S
C439 H442 0.929 . S
C440 C439 1.363 . S
C440 C446 1.428 . S
H441 C437 0.930 . S
H442 C439 0.929 . S
S443 N444 1.613 1_556 S
S443 N445 1.610 . S
N444 S443 1.613 1_554 S
N444 C447 1.350 . S
N445 S443 1.610 . S
N445 C446 1.351 . S
C446 C440 1.428 . S
C446 N445 1.351 . S
C446 C447 1.434 1_556 S
C447 C438 1.429 . S
C447 N444 1.350 . S
C447 C446 1.434 1_554 S
C448 C449 1.369 . S
C448 C450 1.419 1_665 S
C448 H452 0.930 . S
C449 C448 1.369 . S
C449 C458 1.429 . S
C450 C448 1.419 1_445 S
C450 C451 1.363 . S
C450 H453 0.929 . S
C451 C450 1.363 . S
C451 C457 1.428 . S
H452 C448 0.930 . S
H453 C450 0.929 . S
S454 N455 1.613 . S
S454 N456 1.604 1_565 S
N455 S454 1.613 . S
N455 C458 1.350 1_455 S
N456 S454 1.604 1_545 S
N456 C457 1.352 . S
C457 C451 1.428 . S
C457 N456 1.352 . S
C457 C458 1.434 1_445 S
C458 C449 1.429 . S
C458 N455 1.350 1_655 S
C458 C457 1.434 1_665 S
C459 C460 1.369 . S
C459 C461 1.419 . S
C459 H463 0.930 . S
C460 C459 1.369 . S
C460 C469 1.429 . S
C461 C459 1.419 . S
C461 C462 1.363 . S
C461 H464 0.929 . S
C462 C461 1.363 . S
C462 C468 1.428 . S
H463 C459 0.930 . S
H464 C461 0.929 . S
S465 N466 1.613 . S
S465 N467 1.610 . S
N466 S465 1.613 . S
N466 C469 1.350 . S
N467 S465 1.610 . S
N467 C468 1.351 . S
C468 C462 1.428 . S
C468 N467 1.351 . S
C468 C469 1.434 . S
C469 C460 1.429 . S
C469 N466 1.350 . S
C469 C468 1.434 . S
C470 C471 1.369 . S
C470 C472 1.419 . S
C470 H474 0.930 . S
C471 C470 1.369 . S
C471 C480 1.429 . S
C472 C470 1.419 . S
C472 C473 1.363 . S
C472 H475 0.929 . S
C473 C472 1.363 . S
C473 C479 1.428 . S
H474 C470 0.930 . S
H475 C472 0.929 . S
S476 N477 1.613 . S
S476 N478 1.610 . S
N477 S476 1.613 . S
N477 C480 1.350 . S
N478 S476 1.610 . S
N478 C479 1.351 . S
C479 C473 1.428 . S
C479 N478 1.351 . S
C479 C480 1.434 . S
C480 C471 1.429 . S
C480 N477 1.350 . S
C480 C479 1.434 . S
C481 C482 1.369 1_655 S
C481 C483 1.419 . S
C481 H485 0.930 . S
C482 C481 1.369 1_455 S
C482 C491 1.429 1_545 S
C483 C481 1.419 . S
C483 C484 1.363 1_545 S
C483 H486 0.929 . S
C484 C483 1.363 1_565 S
C484 C490 1.428 1_655 S
H485 C481 0.930 . S
H486 C483 0.929 . S
S487 N488 1.613 . S
S487 N489 1.610 . S
N488 S487 1.613 . S
N488 C491 1.350 . S
N489 S487 1.610 . S
N489 C490 1.351 . S
C490 C484 1.428 1_455 S
C490 N489 1.351 . S
C490 C491 1.434 . S
C491 C482 1.429 1_565 S
C491 N488 1.350 . S
C491 C490 1.434 . S
C273 C77 0.617 . S
C275 C9 0.608 . S
C284 C111 0.623 . S
C286 C43 0.616 . S
C295 C213 0.602 . S
C297 C145 0.611 . S
C306 C247 0.596 . S
C308 C179 0.604 . S
C317 C156 2.402 . S
C319 C33 2.388 . S
C328 C190 2.398 . S
C330 C67 2.391 . S
C339 C224 2.402 . S
C341 C101 2.387 . S
C350 C135 2.389 . S
C352 C258 2.402 . S
C361 C20 2.398 . S
C363 C169 2.391 . S
C372 C54 2.399 . S
C374 C203 2.391 . S
C383 C88 2.399 . S
C385 C237 2.389 . S
C394 C271 2.388 . S
C396 C122 2.402 . S
C405 C2 1.735 . S
C407 C172 1.732 . S
C416 C206 1.738 . S
C418 C36 1.731 . S
C427 C240 1.734 . S
C429 C70 1.732 . S
C438 C138 1.735 . S
C440 C104 1.736 . S
C449 C73 0.648 . S
C451 C5 0.667 . S
C460 C39 0.642 . S
C462 C107 0.664 . S
C471 C209 0.649 . S
C473 C141 0.655 . S
C482 C175 0.643 . S
C484 C243 0.668 . S
