# Generated by pormake.
# Topology nbo, (4)-cn, num edge types: 1
# Building blocks:
#     Node 0, Type 0, BuildingBlock: KOZSID_clean_sbu_0, # of connection points: 4
#     Node 1, Type 0, BuildingBlock: KOZSID_clean_sbu_0, # of connection points: 4
#     Node 2, Type 0, BuildingBlock: KOZSID_clean_sbu_0, # of connection points: 4
#     Node 3, Type 0, BuildingBlock: KOZSID_clean_sbu_0, # of connection points: 4
#     Node 4, Type 0, BuildingBlock: KOZSID_clean_sbu_0, # of connection points: 4
#     Node 5, Type 0, BuildingBlock: KOZSID_clean_sbu_0, # of connection points: 4
#     Edge 6, Type (0, 0), None
#     Edge 7, Type (0, 0), None
#     Edge 8, Type (0, 0), None
#     Edge 9, Type (0, 0), None
#     Edge 10, Type (0, 0), None
#     Edge 11, Type (0, 0), None
#     Edge 12, Type (0, 0), None
#     Edge 13, Type (0, 0), None
#     Edge 14, Type (0, 0), None
#     Edge 15, Type (0, 0), None
#     Edge 16, Type (0, 0), None
#     Edge 17, Type (0, 0), None
# Relax obj value: 0.000
# Max RMSD: 0.000
# Mean RMSD: 0.000
data_MOF--net-nbo--node1-KOZSID_clean_sbu_0--edge1-none
_symmetry_space_group_name_H-M    P1
_symmetry_Int_Tables_number       1
_symmetry_cell_setting            triclinic
loop_
_symmetry_equiv_pos_as_xyz
'x, y, z'
_cell_length_a     16.597429
_cell_length_b     22.246035
_cell_length_c     19.553472
_cell_angle_alpha  105.00111
_cell_angle_beta   107.99165
_cell_angle_gamma 106.99577
loop_
_atom_site_label
_atom_site_type_symbol
_atom_site_fract_x
_atom_site_fract_y
_atom_site_fract_z
_atom_type_partial_charge
C0 C 0.79895 0.97971 0.44194 0.0
C1 C 0.72051 0.9531 0.37206 0.0
C2 C 0.74779 0.93671 0.31351 0.0
C3 C 0.84112 0.95535 0.35019 0.0
N4 N 0.87536 0.98198 0.42897 0.0
Co5 Co 0.00968 0.02428 0.50439 0.0
N6 N 0.05027 1.00767 0.41739 0.0
C7 C 0.99592 0.98108 0.34015 0.0
C8 C 0.04365 0.97715 0.29438 0.0
C9 C 0.13387 1.00123 0.34532 0.0
C10 C 0.1356 1.01722 0.41959 0.0
N11 N 0.144 0.06657 0.57982 0.0
C12 C 0.22043 0.0689 0.56685 0.0
C13 C 0.29888 0.09557 0.63673 0.0
C14 C 0.27159 0.11195 0.69528 0.0
C15 C 0.17825 0.09324 0.6586 0.0
N16 N 0.96909 0.04088 0.59139 0.0
C17 C 0.02345 0.06746 0.66864 0.0
C18 C 0.97571 0.07139 0.71441 0.0
C19 C 0.8855 0.04733 0.66347 0.0
C20 C 0.88376 0.03134 0.5892 0.0
N21 N 1.00226 0.93346 0.50584 0.0
C22 C 1.00091 0.80637 0.50695 0.0
C23 C 0.04514 0.86421 0.57562 0.0
C24 C 0.04421 0.92645 0.57396 0.0
C25 C 0.95586 0.81272 0.43763 0.0
C26 C 0.95808 0.87635 0.43829 0.0
N27 N 0.0171 0.11509 0.50295 0.0
C28 C 0.06348 0.23583 0.57116 0.0
C29 C 0.01847 0.24219 0.50185 0.0
C30 C 0.97428 0.18436 0.43316 0.0
C31 C 0.9752 0.12211 0.43482 0.0
C32 C 0.06125 0.1722 0.57051 0.0
H33 H 0.94089 0.08042 0.38017 0.0
H34 H 0.09467 0.17028 0.62551 0.0
H35 H 0.07855 0.96815 0.62861 0.0
H36 H 0.92463 0.87827 0.38329 0.0
C37 C 0.89981 0.95666 0.31219 0.0
C38 C 0.79976 1.00933 0.51874 0.0
C39 C 0.21962 0.03926 0.49005 0.0
C40 C 0.11955 0.0919 0.6966 0.0
H41 H 0.65127 0.94891 0.36356 0.0
H42 H 0.70565 0.91754 0.25157 0.0
H43 H 0.01587 0.95743 0.23143 0.0
H44 H 0.1916 1.00448 0.32955 0.0
H45 H 0.36814 0.09981 0.64524 0.0
H46 H 0.31375 0.13116 0.75722 0.0
H47 H 1.00349 0.09112 0.77736 0.0
H48 H 0.82777 0.04409 0.67923 0.0
H49 H 0.07946 0.86119 0.6307 0.0
H50 H 0.92089 0.76912 0.38284 0.0
H51 H 0.09842 0.27943 0.62596 0.0
H52 H 0.93998 0.18739 0.37809 0.0
C53 C 0.59456 0.0691 0.18218 0.0
C54 C 0.67978 0.09832 0.24604 0.0
C55 C 0.74595 0.11538 0.21882 0.0
C56 C 0.69805 0.09531 0.14034 0.0
N57 N 0.60487 0.06699 0.11546 0.0
Co58 Co 0.5097 0.02431 0.00442 0.0
N59 N 0.60794 0.04304 0.96408 0.0
C60 C 0.70071 0.07227 0.00655 0.0
C61 C 0.75088 0.07949 0.96296 0.0
C62 C 0.68637 0.0544 0.88814 0.0
C63 C 0.60017 0.03371 0.89056 0.0
N64 N 0.41453 0.98161 0.89338 0.0
C65 C 0.42484 0.97939 0.82665 0.0
C66 C 0.33962 0.95006 0.76277 0.0
C67 C 0.27345 0.93303 0.79 0.0
C68 C 0.32135 0.95322 0.8685 0.0
N69 N 0.41145 1.0056 0.04477 0.0
C70 C 0.31869 0.97644 1.0023 0.0
C71 C 0.26852 0.96926 0.0459 0.0
C72 C 0.33303 0.99431 0.12072 0.0
C73 C 0.41922 1.01492 0.11829 0.0
N74 N 0.50616 0.1143 0.00977 0.0
C75 C 0.50256 0.24018 0.00802 0.0
C76 C 0.42101 0.18124 0.97309 0.0
C77 C 0.42418 0.11965 0.97574 0.0
C78 C 0.58583 0.23544 0.04496 0.0
C79 C 0.58617 0.17247 0.04447 0.0
N80 N 0.51323 0.93431 0.99907 0.0
C81 C 0.43356 0.81321 0.96407 0.0
C82 C 0.51686 0.80844 1.00082 0.0
C83 C 0.59843 0.86735 0.03556 0.0
C84 C 0.59524 0.92894 0.03292 0.0
C85 C 0.4332 0.87618 0.96456 0.0
H86 H 0.66012 0.97151 0.05909 0.0
H87 H 0.36717 0.87664 0.93741 0.0
H88 H 0.35931 0.07705 0.94941 0.0
H89 H 0.65219 0.17203 0.07178 0.0
C90 C 0.73863 0.09608 0.08763 0.0
C91 C 0.50609 0.04073 0.18701 0.0
C92 C 0.5133 1.00782 0.82182 0.0
C93 C 0.28076 0.95255 0.92123 0.0
H94 H 0.69341 0.10465 0.30581 0.0
H95 H 0.82024 0.13691 0.25157 0.0
H96 H 0.82548 0.10192 0.98338 0.0
H97 H 0.70117 0.05279 0.83769 0.0
H98 H 0.32598 0.94365 0.70298 0.0
H99 H 0.19916 0.91143 0.75723 0.0
H100 H 0.19392 0.94685 0.02548 0.0
H101 H 0.31823 0.99591 0.17117 0.0
H102 H 0.35471 0.18281 0.9448 0.0
H103 H 0.65084 0.27995 0.07276 0.0
H104 H 0.36852 0.76873 0.93641 0.0
H105 H 0.66475 0.86575 0.0637 0.0
C106 C 0.22087 0.57989 0.06063 0.0
C107 C 0.29868 0.64127 0.09481 0.0
C108 C 0.26967 0.69184 0.11434 0.0
C109 C 0.17607 0.65922 0.08979 0.0
N110 N 0.14329 0.59053 0.05658 0.0
Co111 Co 0.00969 0.52426 0.0044 0.0
N112 N 0.96684 0.59987 0.02522 0.0
C113 C 0.02004 0.66756 0.05898 0.0
C114 C 0.97091 0.70715 0.06384 0.0
C115 C 0.88091 0.66209 0.03291 0.0
C116 C 0.88072 0.59727 0.01235 0.0
N117 N 0.87609 0.45799 0.95224 0.0
C118 C 0.79849 0.46864 0.94811 0.0
C119 C 0.72067 0.40726 0.91387 0.0
C120 C 0.74968 0.35669 0.89435 0.0
C121 C 0.8433 0.3893 0.91898 0.0
N122 N 0.05253 0.44865 0.98359 0.0
C123 C 0.99934 0.38096 0.94983 0.0
C124 C 0.04847 0.34137 0.94498 0.0
C125 C 0.13847 0.38644 0.9759 0.0
C126 C 0.13866 0.45125 0.99645 0.0
N127 N 0.01565 0.51884 0.10577 0.0
C128 C 0.01521 0.51154 0.24737 0.0
C129 C 0.98208 0.45254 0.1818 0.0
C130 C 0.98199 0.45729 0.11194 0.0
C131 C 0.05066 0.57429 0.24183 0.0
C132 C 0.05099 0.57677 0.17118 0.0
N133 N 1.00373 0.52968 0.90304 0.0
C134 C 0.9687 0.47422 0.76697 0.0
C135 C 1.00415 0.53697 0.76143 0.0
C136 C 0.03728 0.59597 0.82699 0.0
C137 C 0.03737 0.59123 0.89685 0.0
C138 C 0.96839 0.47175 0.83763 0.0
H139 H 0.06593 0.63813 0.94507 0.0
H140 H 0.94019 0.42237 0.83813 0.0
H141 H 0.95343 0.41039 0.06373 0.0
H142 H 0.0792 0.62615 0.17068 0.0
C143 C 0.11635 0.69225 0.08885 0.0
C144 C 0.22193 0.51347 0.02489 0.0
C145 C 0.79744 0.53505 0.98388 0.0
C146 C 0.90302 0.35628 0.91994 0.0
H147 H 0.36871 0.64945 0.10174 0.0
H148 H 0.31108 0.74615 0.13925 0.0
H149 H 0.99757 0.76215 0.08867 0.0
H150 H 0.82222 0.67532 0.0285 0.0
H151 H 0.65062 0.39908 0.90687 0.0
H152 H 0.70826 0.30238 0.8694 0.0
H153 H 0.02181 0.28637 0.92014 0.0
H154 H 0.19716 0.3732 0.9803 0.0
H155 H 0.955 0.40286 0.18417 0.0
H156 H 0.07765 0.62127 0.29179 0.0
H157 H 0.9417 0.42725 0.71701 0.0
H158 H 0.06437 0.64565 0.82462 0.0
C159 C 0.6356 0.51722 0.91957 0.0
C160 C 0.63386 0.50123 0.84531 0.0
C161 C 0.54364 0.47718 0.79437 0.0
C162 C 0.49592 0.48112 0.84015 0.0
N163 N 0.55028 0.5077 0.91739 0.0
Co164 Co 0.5097 0.5243 0.0044 0.0
N165 N 0.37538 0.48202 0.92898 0.0
C166 C 0.34113 0.45535 0.8502 0.0
C167 C 0.24778 0.43664 0.81352 0.0
C168 C 0.22049 0.453 0.87208 0.0
C169 C 0.29895 0.47968 0.94195 0.0
N170 N 0.46912 0.54092 0.0914 0.0
C171 C 0.38379 0.53136 0.08922 0.0
C172 C 0.38554 0.54737 0.16349 0.0
C173 C 0.47576 0.57147 0.21442 0.0
C174 C 0.52349 0.56753 0.16865 0.0
N175 N 0.64402 0.56657 0.07981 0.0
C176 C 0.67828 0.59323 0.1586 0.0
C177 C 0.77161 0.6119 0.19527 0.0
C178 C 0.79889 0.59551 0.13671 0.0
C179 C 0.72044 0.56886 0.06683 0.0
N180 N 0.51714 0.61512 0.00296 0.0
C181 C 0.51851 0.74223 1.00186 0.0
C182 C 0.56362 0.73588 0.07116 0.0
C183 C 0.56138 0.67224 0.07051 0.0
C184 C 0.47423 0.68438 0.93319 0.0
C185 C 0.47515 0.62213 0.93484 0.0
N186 N 0.50226 0.43348 0.00583 0.0
C187 C 0.54505 0.36422 0.07564 0.0
C188 C 0.50091 0.30639 0.00696 0.0
C189 C 0.45594 0.31276 0.93763 0.0
C190 C 0.45815 0.37639 0.93828 0.0
C191 C 0.54413 0.42646 0.07397 0.0
H192 H 0.42477 0.37831 0.88328 0.0
H193 H 0.5784 0.46816 0.12863 0.0
H194 H 0.59487 0.67034 0.12549 0.0
H195 H 0.44077 0.58043 0.8802 0.0
C196 C 0.39982 0.45669 0.8122 0.0
C197 C 0.71961 0.53922 0.99003 0.0
C198 C 0.29976 0.5093 0.01876 0.0
C199 C 0.61959 0.59194 0.1966 0.0
H200 H 0.69158 0.50446 0.82953 0.0
H201 H 0.51586 0.45746 0.73142 0.0
H202 H 0.20563 0.41743 0.75158 0.0
H203 H 0.15123 0.44876 0.86357 0.0
H204 H 0.32781 0.54412 0.17926 0.0
H205 H 0.50355 0.5912 0.27737 0.0
H206 H 0.81376 0.63109 0.25721 0.0
H207 H 0.86813 0.5997 0.14522 0.0
H208 H 0.59863 0.77949 0.12595 0.0
H209 H 0.43986 0.6874 0.87812 0.0
H210 H 0.57931 0.36119 0.13073 0.0
H211 H 0.42103 0.26916 0.88283 0.0
C212 C 0.09456 0.56909 0.68216 0.0
C213 C 0.17978 0.59832 0.74603 0.0
C214 C 0.24595 0.61537 0.71879 0.0
C215 C 0.19804 0.59528 0.64031 0.0
N216 N 0.10486 0.56697 0.61544 0.0
Co217 Co 0.00968 0.52428 0.5044 0.0
N218 N 0.10792 0.54299 0.46405 0.0
C219 C 0.20069 0.5722 0.50652 0.0
C220 C 0.25085 0.57941 0.46292 0.0
C221 C 0.18633 0.55433 0.3881 0.0
C222 C 0.10014 0.53367 0.39053 0.0
N223 N 0.91451 0.48159 0.39337 0.0
C224 C 0.92481 0.47938 0.32663 0.0
C225 C 0.83958 0.45007 0.26276 0.0
C226 C 0.77342 0.43303 0.28999 0.0
C227 C 0.82132 0.45321 0.36849 0.0
N228 N 0.91145 0.50557 0.54476 0.0
C229 C 0.81868 0.4764 0.5023 0.0
C230 C 0.76852 0.46921 0.5459 0.0
C231 C 0.83303 0.49427 0.62071 0.0
C232 C 0.91922 0.51489 0.61828 0.0
N233 N 1.00616 0.61428 0.50975 0.0
C234 C 1.00256 0.74016 0.508 0.0
C235 C 0.921 0.68122 0.47312 0.0
C236 C 0.92417 0.61963 0.47577 0.0
C237 C 0.08583 0.7354 0.54489 0.0
C238 C 0.08618 0.67243 0.5444 0.0
N239 N 0.01321 0.43428 0.49905 0.0
C240 C 0.93353 0.31317 0.464 0.0
C241 C 0.01682 0.3084 0.50079 0.0
C242 C 0.09839 0.36732 0.53559 0.0
C243 C 0.09521 0.42891 0.53294 0.0
C244 C 0.93318 0.37614 0.4645 0.0
H245 H 0.16008 0.47148 0.55914 0.0
H246 H 0.86715 0.3766 0.43732 0.0
H247 H 0.8593 0.57704 0.44948 0.0
H248 H 0.15219 0.67198 0.57167 0.0
C249 C 0.23862 0.59603 0.58759 0.0
C250 C 1.00609 0.54071 0.68699 0.0
C251 C 0.01327 0.50779 0.3218 0.0
C252 C 0.78075 0.45253 0.42122 0.0
H253 H 0.19342 0.60466 0.80579 0.0
H254 H 0.32024 0.6369 0.75154 0.0
H255 H 0.32545 0.60183 0.48333 0.0
H256 H 0.20113 0.55272 0.33765 0.0
H257 H 0.82594 0.44367 0.20297 0.0
H258 H 0.69913 0.41145 0.25723 0.0
H259 H 0.69391 0.4468 0.52549 0.0
H260 H 0.81824 0.49587 0.67117 0.0
H261 H 0.8547 0.6828 0.44488 0.0
H262 H 0.15086 0.7799 0.57265 0.0
H263 H 0.86849 0.26868 0.43632 0.0
H264 H 0.1647 0.36573 0.56375 0.0
C265 C 0.72088 0.07991 0.56065 0.0
C266 C 0.79869 0.14129 0.59484 0.0
C267 C 0.76969 0.19186 0.61438 0.0
C268 C 0.67608 0.15924 0.58981 0.0
N269 N 0.64329 0.09055 0.55659 0.0
Co270 Co 0.50969 0.02429 0.50442 0.0
N271 N 0.46685 0.0999 0.52524 0.0
C272 C 0.52005 0.16759 0.559 0.0
C273 C 0.47092 0.20718 0.56385 0.0
C274 C 0.38092 0.16212 0.53292 0.0
C275 C 0.38073 0.0973 0.51237 0.0
N276 N 0.37609 0.95802 0.45227 0.0
C277 C 0.2985 0.96867 0.44815 0.0
C278 C 0.22068 0.90729 0.41393 0.0
C279 C 0.24969 0.85672 0.39442 0.0
C280 C 0.3433 0.88933 0.41902 0.0
N281 N 0.55253 0.94868 0.48359 0.0
C282 C 0.49933 0.88098 0.44982 0.0
C283 C 0.54846 0.84139 0.44493 0.0
C284 C 0.63846 0.88646 0.47584 0.0
C285 C 0.63865 0.95127 0.49642 0.0
N286 N 0.51567 1.01886 0.60579 0.0
C287 C 0.51524 1.01156 0.74739 0.0
C288 C 0.48215 0.95256 0.68183 0.0
C289 C 0.48205 0.95731 0.61197 0.0
C290 C 0.55066 0.07432 0.74184 0.0
C291 C 0.55098 0.0768 0.67119 0.0
N292 N 0.50371 0.02971 0.40305 0.0
C293 C 0.46865 0.97424 0.26698 0.0
C294 C 0.50413 0.03699 0.26144 0.0
C295 C 0.5373 0.096 0.32701 0.0
C296 C 0.53739 0.09126 0.39687 0.0
C297 C 0.46834 0.97177 0.33763 0.0
H298 H 0.56598 0.13816 0.44509 0.0
H299 H 0.44012 0.9224 0.33813 0.0
H300 H 0.45351 0.91041 0.56376 0.0
H301 H 0.57916 0.12617 0.67068 0.0
C302 C 0.61637 0.19227 0.58887 0.0
C303 C 0.72192 1.0135 0.52488 0.0
C304 C 0.29745 0.03509 0.48391 0.0
C305 C 0.40302 0.8563 0.41996 0.0
H306 H 0.86873 0.14946 0.60179 0.0
H307 H 0.8111 0.24617 0.6393 0.0
H308 H 0.49759 0.26218 0.58867 0.0
H309 H 0.32223 0.17536 0.52851 0.0
H310 H 0.15063 0.89912 0.40695 0.0
H311 H 0.20826 0.80241 0.36947 0.0
H312 H 0.52179 0.78639 0.42009 0.0
H313 H 0.69714 0.87322 0.48022 0.0
H314 H 0.45509 0.90289 0.6842 0.0
H315 H 0.57762 0.12129 0.7918 0.0
H316 H 0.44163 0.92727 0.21701 0.0
H317 H 0.56441 0.14567 0.32465 0.0
loop_
_geom_bond_atom_site_label_1
_geom_bond_atom_site_label_2
_geom_bond_distance
_geom_bond_site_symmetry_2
_ccdc_geom_bond_type
C0 C1 1.443 . S
C0 N4 1.376 . S
C0 C38 1.389 . S
C1 C0 1.443 . S
C1 C2 1.340 . S
C1 H41 0.951 . S
C2 C1 1.340 . S
C2 C3 1.439 . S
C2 H42 0.950 . S
C3 C2 1.439 . S
C3 N4 1.374 . S
C3 C37 1.395 . S
N4 C0 1.376 . S
N4 C3 1.374 . S
N4 Co5 2.005 1_665 S
Co5 N4 2.005 1_445 S
Co5 N6 1.998 1_545 S
Co5 N11 2.012 . S
Co5 N16 1.991 1_455 S
Co5 N21 2.283 1_445 S
Co5 N27 2.282 . S
N6 Co5 1.998 1_565 S
N6 C7 1.376 1_455 S
N6 C10 1.383 . S
C7 N6 1.376 1_655 S
C7 C8 1.442 1_655 S
C7 C37 1.396 . S
C8 C7 1.442 1_455 S
C8 C9 1.339 . S
C8 H43 0.949 . S
C9 C8 1.339 . S
C9 C10 1.439 . S
C9 H44 0.950 . S
C10 N6 1.383 . S
C10 C9 1.439 . S
C10 C39 1.392 1_565 S
N11 Co5 2.012 . S
N11 C12 1.376 . S
N11 C15 1.374 . S
C12 N11 1.376 . S
C12 C13 1.443 . S
C12 C39 1.389 . S
C13 C12 1.443 . S
C13 C14 1.340 . S
C13 H45 0.951 . S
C14 C13 1.340 . S
C14 C15 1.439 . S
C14 H46 0.950 . S
C15 N11 1.374 . S
C15 C14 1.439 . S
C15 C40 1.395 . S
N16 Co5 1.991 1_655 S
N16 C17 1.376 1_655 S
N16 C20 1.383 . S
C17 N16 1.376 1_455 S
C17 C18 1.446 1_455 S
C17 C40 1.391 . S
C18 C17 1.446 1_655 S
C18 C19 1.339 . S
C18 H47 0.949 . S
C19 C18 1.339 . S
C19 C20 1.439 . S
C19 H48 0.950 . S
C20 N16 1.383 . S
C20 C19 1.439 . S
C20 C38 1.394 1_545 S
N21 Co5 2.283 1_665 S
N21 C24 1.332 . S
N21 C26 1.332 . S
C22 C23 1.386 1_655 S
C22 C25 1.388 . S
C23 C22 1.386 1_455 S
C23 C24 1.379 1_455 S
C23 H49 0.950 . S
C24 N21 1.332 . S
C24 C23 1.379 1_655 S
C24 H35 0.955 1_655 S
C25 C22 1.388 . S
C25 C26 1.382 . S
C25 H50 0.950 . S
C26 N21 1.332 . S
C26 C25 1.382 . S
C26 H36 0.948 . S
N27 Co5 2.282 . S
N27 C31 1.332 . S
N27 C32 1.332 . S
C28 C29 1.388 . S
C28 C32 1.382 . S
C28 H51 0.950 . S
C29 C28 1.388 . S
C29 C30 1.386 1_455 S
C30 C29 1.386 1_655 S
C30 C31 1.382 1_655 S
C30 H52 0.950 . S
C31 N27 1.332 . S
C31 C30 1.382 1_455 S
C31 H33 0.952 1_455 S
C32 N27 1.332 . S
C32 C28 1.382 . S
C32 H34 0.948 . S
H33 C31 0.952 1_655 S
H34 C32 0.948 . S
H35 C24 0.955 1_455 S
H36 C26 0.948 . S
C37 C3 1.395 . S
C37 C7 1.396 . S
C38 C0 1.389 . S
C38 C20 1.394 1_565 S
C39 C10 1.392 1_545 S
C39 C12 1.389 . S
C40 C15 1.395 . S
C40 C17 1.391 . S
H41 C1 0.951 . S
H42 C2 0.950 . S
H43 C8 0.949 . S
H44 C9 0.950 . S
H45 C13 0.951 . S
H46 C14 0.950 . S
H47 C18 0.949 . S
H48 C19 0.950 . S
H49 C23 0.950 . S
H50 C25 0.950 . S
H51 C28 0.950 . S
H52 C30 0.950 . S
C53 C54 1.443 . S
C53 N57 1.376 . S
C53 C91 1.389 . S
C54 C53 1.443 . S
C54 C55 1.340 . S
C54 H94 0.951 . S
C55 C54 1.340 . S
C55 C56 1.439 . S
C55 H95 0.950 . S
C56 C55 1.439 . S
C56 N57 1.374 . S
C56 C90 1.395 . S
N57 C53 1.376 . S
N57 C56 1.374 . S
N57 Co58 2.008 . S
Co58 N57 2.008 . S
Co58 N59 1.995 1_554 S
Co58 N64 2.008 1_544 S
Co58 N69 1.995 1_545 S
Co58 N74 2.282 . S
Co58 N80 2.282 1_544 S
N59 Co58 1.995 1_556 S
N59 C60 1.376 1_556 S
N59 C63 1.383 . S
C60 N59 1.376 1_554 S
C60 C61 1.446 1_554 S
C60 C90 1.391 . S
C61 C60 1.446 1_556 S
C61 C62 1.339 . S
C61 H96 0.949 . S
C62 C61 1.339 . S
C62 C63 1.439 . S
C62 H97 0.950 . S
C63 N59 1.383 . S
C63 C62 1.439 . S
C63 C92 1.394 1_545 S
N64 Co58 2.008 1_566 S
N64 C65 1.376 . S
N64 C68 1.374 . S
C65 N64 1.376 . S
C65 C66 1.443 . S
C65 C92 1.389 . S
C66 C65 1.443 . S
C66 C67 1.340 . S
C66 H98 0.951 . S
C67 C66 1.340 . S
C67 C68 1.439 . S
C67 H99 0.950 . S
C68 N64 1.374 . S
C68 C67 1.439 . S
C68 C93 1.395 . S
N69 Co58 1.995 1_565 S
N69 C70 1.376 . S
N69 C73 1.383 . S
C70 N69 1.376 . S
C70 C71 1.446 . S
C70 C93 1.391 1_554 S
C71 C70 1.446 . S
C71 C72 1.339 . S
C71 H100 0.949 . S
C72 C71 1.339 . S
C72 C73 1.439 . S
C72 H101 0.950 . S
C73 N69 1.383 . S
C73 C72 1.439 . S
C73 C91 1.392 1_565 S
N74 Co58 2.282 . S
N74 C77 1.332 . S
N74 C79 1.332 . S
C75 C76 1.386 1_554 S
C75 C78 1.388 . S
C76 C75 1.386 1_556 S
C76 C77 1.382 1_556 S
C76 H102 0.950 . S
C77 N74 1.332 . S
C77 C76 1.382 1_554 S
C77 H88 0.952 1_554 S
C78 C75 1.388 . S
C78 C79 1.382 . S
C78 H103 0.950 . S
C79 N74 1.332 . S
C79 C78 1.382 . S
C79 H89 0.948 . S
N80 Co58 2.282 1_566 S
N80 C84 1.333 1_556 S
N80 C85 1.332 . S
C81 C82 1.388 . S
C81 C85 1.382 . S
C81 H104 0.950 . S
C82 C81 1.388 . S
C82 C83 1.386 1_556 S
C83 C82 1.386 1_554 S
C83 C84 1.388 . S
C83 H105 0.950 . S
C84 N80 1.333 1_554 S
C84 C83 1.388 . S
C84 H86 0.944 . S
C85 N80 1.332 . S
C85 C81 1.382 . S
C85 H87 0.948 . S
H86 C84 0.944 . S
H87 C85 0.948 . S
H88 C77 0.952 1_556 S
H89 C79 0.948 . S
C90 C56 1.395 . S
C90 C60 1.391 . S
C91 C53 1.389 . S
C91 C73 1.392 1_545 S
C92 C63 1.394 1_565 S
C92 C65 1.389 . S
C93 C68 1.395 . S
C93 C70 1.391 1_556 S
H94 C54 0.951 . S
H95 C55 0.950 . S
H96 C61 0.949 . S
H97 C62 0.950 . S
H98 C66 0.951 . S
H99 C67 0.950 . S
H100 C71 0.949 . S
H101 C72 0.950 . S
H102 C76 0.950 . S
H103 C78 0.950 . S
H104 C81 0.950 . S
H105 C83 0.950 . S
C106 C107 1.443 . S
C106 N110 1.376 . S
C106 C144 1.389 . S
C107 C106 1.443 . S
C107 C108 1.340 . S
C107 H147 0.951 . S
C108 C107 1.340 . S
C108 C109 1.439 . S
C108 H148 0.950 . S
C109 C108 1.439 . S
C109 N110 1.374 . S
C109 C143 1.395 . S
N110 C106 1.376 . S
N110 C109 1.374 . S
N110 Co111 2.012 . S
Co111 N110 2.012 . S
Co111 N112 1.991 1_455 S
Co111 N117 2.005 1_454 S
Co111 N122 1.998 1_554 S
Co111 N127 2.281 . S
Co111 N133 2.283 1_454 S
N112 Co111 1.991 1_655 S
N112 C113 1.376 1_655 S
N112 C116 1.383 . S
C113 N112 1.376 1_455 S
C113 C114 1.446 1_455 S
C113 C143 1.391 . S
C114 C113 1.446 1_655 S
C114 C115 1.339 . S
C114 H149 0.949 . S
C115 C114 1.339 . S
C115 C116 1.439 . S
C115 H150 0.950 . S
C116 N112 1.383 . S
C116 C115 1.439 . S
C116 C145 1.395 1_554 S
N117 Co111 2.005 1_656 S
N117 C118 1.376 . S
N117 C121 1.374 . S
C118 N117 1.376 . S
C118 C119 1.443 . S
C118 C145 1.390 . S
C119 C118 1.443 . S
C119 C120 1.340 . S
C119 H151 0.951 . S
C120 C119 1.340 . S
C120 C121 1.439 . S
C120 H152 0.950 . S
C121 N117 1.374 . S
C121 C120 1.439 . S
C121 C146 1.395 . S
N122 Co111 1.998 1_556 S
N122 C123 1.376 1_455 S
N122 C126 1.383 . S
C123 N122 1.376 1_655 S
C123 C124 1.442 1_655 S
C123 C146 1.396 . S
C124 C123 1.442 1_455 S
C124 C125 1.339 . S
C124 H153 0.949 . S
C125 C124 1.339 . S
C125 C126 1.439 . S
C125 H154 0.950 . S
C126 N122 1.383 . S
C126 C125 1.439 . S
C126 C144 1.392 1_556 S
N127 Co111 2.281 . S
N127 C130 1.332 . S
N127 C132 1.332 . S
C128 C129 1.386 1_455 S
C128 C131 1.388 . S
C129 C128 1.386 1_655 S
C129 C130 1.382 1_655 S
C129 H155 0.950 . S
C130 N127 1.332 . S
C130 C129 1.382 1_455 S
C130 H141 0.952 1_455 S
C131 C128 1.388 . S
C131 C132 1.382 . S
C131 H156 0.950 . S
C132 N127 1.332 . S
C132 C131 1.382 . S
C132 H142 0.948 . S
N133 Co111 2.283 1_656 S
N133 C137 1.332 . S
N133 C138 1.332 . S
C134 C135 1.388 . S
C134 C138 1.382 . S
C134 H157 0.950 . S
C135 C134 1.388 . S
C135 C136 1.386 1_655 S
C136 C135 1.386 1_455 S
C136 C137 1.379 1_455 S
C136 H158 0.950 . S
C137 N133 1.332 . S
C137 C136 1.379 1_655 S
C137 H139 0.955 1_655 S
C138 N133 1.332 . S
C138 C134 1.382 . S
C138 H140 0.948 . S
H139 C137 0.955 1_455 S
H140 C138 0.948 . S
H141 C130 0.952 1_655 S
H142 C132 0.948 . S
C143 C109 1.395 . S
C143 C113 1.391 . S
C144 C106 1.389 . S
C144 C126 1.392 1_554 S
C145 C116 1.395 1_556 S
C145 C118 1.390 . S
C146 C121 1.395 . S
C146 C123 1.396 . S
H147 C107 0.951 . S
H148 C108 0.950 . S
H149 C114 0.949 . S
H150 C115 0.950 . S
H151 C119 0.951 . S
H152 C120 0.950 . S
H153 C124 0.949 . S
H154 C125 0.950 . S
H155 C129 0.950 . S
H156 C131 0.950 . S
H157 C134 0.950 . S
H158 C136 0.950 . S
C159 C160 1.443 . S
C159 N163 1.376 . S
C159 C197 1.379 1_556 S
C160 C159 1.443 . S
C160 C161 1.340 . S
C160 H200 0.951 . S
C161 C160 1.340 . S
C161 C162 1.439 . S
C161 H201 0.950 . S
C162 C161 1.439 . S
C162 N163 1.374 . S
C162 C196 1.395 . S
N163 C159 1.376 . S
N163 C162 1.374 . S
N163 Co164 2.008 1_556 S
Co164 N163 2.008 1_554 S
Co164 N165 1.995 1_554 S
Co164 N170 2.008 . S
Co164 N175 1.995 . S
Co164 N180 2.282 1_554 S
Co164 N186 2.282 . S
N165 Co164 1.995 1_556 S
N165 C166 1.376 . S
N165 C169 1.383 . S
C166 N165 1.376 . S
C166 C167 1.446 . S
C166 C196 1.391 . S
C167 C166 1.446 . S
C167 C168 1.339 . S
C167 H202 0.949 . S
C168 C167 1.339 . S
C168 C169 1.439 . S
C168 H203 0.950 . S
C169 N165 1.383 . S
C169 C168 1.439 . S
C169 C198 1.392 1_556 S
N170 Co164 2.008 . S
N170 C171 1.376 . S
N170 C174 1.374 . S
C171 N170 1.376 . S
C171 C172 1.443 . S
C171 C198 1.389 . S
C172 C171 1.443 . S
C172 C173 1.340 . S
C172 H204 0.951 . S
C173 C172 1.340 . S
C173 C174 1.439 . S
C173 H205 0.950 . S
C174 N170 1.374 . S
C174 C173 1.439 . S
C174 C199 1.395 . S
N175 Co164 1.995 . S
N175 C176 1.376 . S
N175 C179 1.383 . S
C176 N175 1.376 . S
C176 C177 1.446 . S
C176 C199 1.391 . S
C177 C176 1.446 . S
C177 C178 1.339 . S
C177 H206 0.949 . S
C178 C177 1.339 . S
C178 C179 1.439 . S
C178 H207 0.950 . S
C179 N175 1.383 . S
C179 C178 1.439 . S
C179 C197 1.405 . S
N180 Co164 2.282 1_556 S
N180 C183 1.332 1_556 S
N180 C185 1.332 . S
C181 C182 1.386 . S
C181 C184 1.388 1_554 S
C182 C181 1.386 . S
C182 C183 1.382 . S
C182 H208 0.950 . S
C183 N180 1.332 1_554 S
C183 C182 1.382 . S
C183 H194 0.952 . S
C184 C181 1.388 1_556 S
C184 C185 1.382 . S
C184 H209 0.950 . S
C185 N180 1.332 . S
C185 C184 1.382 . S
C185 H195 0.948 . S
N186 Co164 2.282 . S
N186 C190 1.332 1_554 S
N186 C191 1.332 . S
C187 C188 1.388 . S
C187 C191 1.382 . S
C187 H210 0.950 . S
C188 C187 1.388 . S
C188 C189 1.386 1_554 S
C189 C188 1.386 1_556 S
C189 C190 1.382 . S
C189 H211 0.950 . S
C190 N186 1.332 1_556 S
C190 C189 1.382 . S
C190 H192 0.952 . S
C191 N186 1.332 . S
C191 C187 1.382 . S
C191 H193 0.948 . S
H192 C190 0.952 . S
H193 C191 0.948 . S
H194 C183 0.952 . S
H195 C185 0.948 . S
C196 C162 1.395 . S
C196 C166 1.391 . S
C197 C159 1.379 1_554 S
C197 C179 1.405 . S
C198 C169 1.392 1_554 S
C198 C171 1.389 . S
C199 C174 1.395 . S
C199 C176 1.391 . S
H200 C160 0.951 . S
H201 C161 0.950 . S
H202 C167 0.949 . S
H203 C168 0.950 . S
H204 C172 0.951 . S
H205 C173 0.950 . S
H206 C177 0.949 . S
H207 C178 0.950 . S
H208 C182 0.950 . S
H209 C184 0.950 . S
H210 C187 0.950 . S
H211 C189 0.950 . S
C212 C213 1.443 . S
C212 N216 1.376 . S
C212 C250 1.389 . S
C213 C212 1.443 . S
C213 C214 1.340 . S
C213 H253 0.951 . S
C214 C213 1.340 . S
C214 C215 1.439 . S
C214 H254 0.950 . S
C215 C214 1.439 . S
C215 N216 1.374 . S
C215 C249 1.395 . S
N216 C212 1.376 . S
N216 C215 1.374 . S
N216 Co217 2.010 . S
Co217 N216 2.010 . S
Co217 N218 1.999 . S
Co217 N223 2.006 1_455 S
Co217 N228 1.990 1_455 S
Co217 N233 2.281 . S
Co217 N239 2.284 1_455 S
N218 Co217 1.999 . S
N218 C219 1.376 . S
N218 C222 1.383 . S
C219 N218 1.376 . S
C219 C220 1.446 . S
C219 C249 1.391 . S
C220 C219 1.446 . S
C220 C221 1.339 . S
C220 H255 0.949 . S
C221 C220 1.339 . S
C221 C222 1.439 . S
C221 H256 0.950 . S
C222 N218 1.383 . S
C222 C221 1.439 . S
C222 C251 1.385 1_455 S
N223 Co217 2.006 1_655 S
N223 C224 1.376 . S
N223 C227 1.374 . S
C224 N223 1.376 . S
C224 C225 1.443 . S
C224 C251 1.398 . S
C225 C224 1.443 . S
C225 C226 1.340 . S
C225 H257 0.951 . S
C226 C225 1.340 . S
C226 C227 1.439 . S
C226 H258 0.950 . S
C227 N223 1.374 . S
C227 C226 1.439 . S
C227 C252 1.395 . S
N228 Co217 1.990 1_655 S
N228 C229 1.376 . S
N228 C232 1.383 . S
C229 N228 1.376 . S
C229 C230 1.446 . S
C229 C252 1.391 . S
C230 C229 1.446 . S
C230 C231 1.339 . S
C230 H259 0.949 . S
C231 C230 1.339 . S
C231 C232 1.439 . S
C231 H260 0.950 . S
C232 N228 1.383 . S
C232 C231 1.439 . S
C232 C250 1.392 1_655 S
N233 Co217 2.281 . S
N233 C236 1.332 1_455 S
N233 C238 1.332 . S
C234 C235 1.386 1_455 S
C234 C237 1.388 . S
C235 C234 1.386 1_655 S
C235 C236 1.382 . S
C235 H261 0.950 . S
C236 N233 1.332 1_655 S
C236 C235 1.382 . S
C236 H247 0.952 . S
C237 C234 1.388 . S
C237 C238 1.382 . S
C237 H262 0.950 . S
C238 N233 1.332 . S
C238 C237 1.382 . S
C238 H248 0.948 . S
N239 Co217 2.284 1_655 S
N239 C243 1.332 1_655 S
N239 C244 1.332 . S
C240 C241 1.395 . S
C240 C244 1.382 . S
C240 H263 0.950 . S
C241 C240 1.395 . S
C241 C242 1.381 1_655 S
C242 C241 1.381 1_455 S
C242 C243 1.382 . S
C242 H264 0.950 . S
C243 N239 1.332 1_455 S
C243 C242 1.382 . S
C243 H245 0.952 . S
C244 N239 1.332 . S
C244 C240 1.382 . S
C244 H246 0.948 . S
H245 C243 0.952 . S
H246 C244 0.948 . S
H247 C236 0.952 . S
H248 C238 0.948 . S
C249 C215 1.395 . S
C249 C219 1.391 . S
C250 C212 1.389 . S
C250 C232 1.392 1_455 S
C251 C222 1.385 1_655 S
C251 C224 1.398 . S
C252 C227 1.395 . S
C252 C229 1.391 . S
H253 C213 0.951 . S
H254 C214 0.950 . S
H255 C220 0.949 . S
H256 C221 0.950 . S
H257 C225 0.951 . S
H258 C226 0.950 . S
H259 C230 0.949 . S
H260 C231 0.950 . S
H261 C235 0.950 . S
H262 C237 0.950 . S
H263 C240 0.950 . S
H264 C242 0.950 . S
C265 C266 1.443 . S
C265 N269 1.376 . S
C265 C303 1.389 . S
C266 C265 1.443 . S
C266 C267 1.340 . S
C266 H306 0.951 . S
C267 C266 1.340 . S
C267 C268 1.439 . S
C267 H307 0.950 . S
C268 C267 1.439 . S
C268 N269 1.374 . S
C268 C302 1.395 . S
N269 C265 1.376 . S
N269 C268 1.374 . S
N269 Co270 2.008 . S
Co270 N269 2.008 . S
Co270 N271 1.995 . S
Co270 N276 2.008 1_545 S
Co270 N281 1.995 1_545 S
Co270 N286 2.282 . S
Co270 N292 2.282 1_545 S
N271 Co270 1.995 . S
N271 C272 1.376 . S
N271 C275 1.383 . S
C272 N271 1.376 . S
C272 C273 1.446 . S
C272 C302 1.391 . S
C273 C272 1.446 . S
C273 C274 1.339 . S
C273 H308 0.949 . S
C274 C273 1.339 . S
C274 C275 1.439 . S
C274 H309 0.950 . S
C275 N271 1.383 . S
C275 C274 1.439 . S
C275 C304 1.405 . S
N276 Co270 2.008 1_565 S
N276 C277 1.376 . S
N276 C280 1.374 . S
C277 N276 1.376 . S
C277 C278 1.443 . S
C277 C304 1.370 1_565 S
C278 C277 1.443 . S
C278 C279 1.340 . S
C278 H310 0.951 . S
C279 C278 1.340 . S
C279 C280 1.439 . S
C279 H311 0.950 . S
C280 N276 1.374 . S
C280 C279 1.439 . S
C280 C305 1.395 . S
N281 Co270 1.995 1_565 S
N281 C282 1.376 . S
N281 C285 1.383 . S
C282 N281 1.376 . S
C282 C283 1.446 . S
C282 C305 1.391 . S
C283 C282 1.446 . S
C283 C284 1.339 . S
C283 H312 0.949 . S
C284 C283 1.339 . S
C284 C285 1.439 . S
C284 H313 0.950 . S
C285 N281 1.383 . S
C285 C284 1.439 . S
C285 C303 1.392 1_565 S
N286 Co270 2.282 . S
N286 C289 1.332 1_545 S
N286 C291 1.332 . S
C287 C288 1.386 1_545 S
C287 C290 1.388 . S
C288 C287 1.386 1_565 S
C288 C289 1.382 . S
C288 H314 0.950 . S
C289 N286 1.332 1_565 S
C289 C288 1.382 . S
C289 H300 0.952 . S
C290 C287 1.388 . S
C290 C291 1.382 . S
C290 H315 0.950 . S
C291 N286 1.332 . S
C291 C290 1.382 . S
C291 H301 0.948 . S
N292 Co270 2.282 1_565 S
N292 C296 1.332 1_565 S
N292 C297 1.332 . S
C293 C294 1.388 1_565 S
C293 C297 1.382 . S
C293 H316 0.950 . S
C294 C293 1.388 1_545 S
C294 C295 1.386 . S
C295 C294 1.386 . S
C295 C296 1.382 . S
C295 H317 0.950 . S
C296 N292 1.332 1_545 S
C296 C295 1.382 . S
C296 H298 0.952 . S
C297 N292 1.332 . S
C297 C293 1.382 . S
C297 H299 0.948 . S
H298 C296 0.952 . S
H299 C297 0.948 . S
H300 C289 0.952 . S
H301 C291 0.948 . S
C302 C268 1.395 . S
C302 C272 1.391 . S
C303 C265 1.389 . S
C303 C285 1.392 1_545 S
C304 C275 1.405 . S
C304 C277 1.370 1_545 S
C305 C280 1.395 . S
C305 C282 1.391 . S
H306 C266 0.951 . S
H307 C267 0.950 . S
H308 C273 0.949 . S
H309 C274 0.950 . S
H310 C278 0.951 . S
H311 C279 0.950 . S
H312 C283 0.949 . S
H313 C284 0.950 . S
H314 C288 0.950 . S
H315 C290 0.950 . S
H316 C293 0.950 . S
H317 C295 0.950 . S
C29 C241 1.497 1_455 S
C38 C303 1.496 1_565 S
C234 C22 1.499 1_455 S
C304 C39 1.505 . S
C294 C91 1.499 . S
C128 C251 1.496 1_455 S
C287 C92 1.497 1_545 S
C250 C135 1.499 1_455 S
C144 C198 1.498 . S
C188 C75 1.499 . S
C145 C197 1.490 1_556 S
C181 C82 1.499 1_554 S
