# Generated by pormake.
# Topology bcu-f, (3)-cn, num edge types: 1
# Building blocks:
#     Node 0, Type 0, BuildingBlock: OLANEW_clean_sbu_2, # of connection points: 3
#     Node 1, Type 0, BuildingBlock: OLANEW_clean_sbu_2, # of connection points: 3
#     Node 2, Type 0, BuildingBlock: OLANEW_clean_sbu_2, # of connection points: 3
#     Node 3, Type 0, BuildingBlock: OLANEW_clean_sbu_2, # of connection points: 3
#     Node 4, Type 0, BuildingBlock: OLANEW_clean_sbu_2, # of connection points: 3
#     Node 5, Type 0, BuildingBlock: OLANEW_clean_sbu_2, # of connection points: 3
#     Node 6, Type 0, BuildingBlock: OLANEW_clean_sbu_2, # of connection points: 3
#     Node 7, Type 0, BuildingBlock: OLANEW_clean_sbu_2, # of connection points: 3
#     Node 8, Type 0, BuildingBlock: OLANEW_clean_sbu_2, # of connection points: 3
#     Node 9, Type 0, BuildingBlock: OLANEW_clean_sbu_2, # of connection points: 3
#     Node 10, Type 0, BuildingBlock: OLANEW_clean_sbu_2, # of connection points: 3
#     Node 11, Type 0, BuildingBlock: OLANEW_clean_sbu_2, # of connection points: 3
#     Node 12, Type 0, BuildingBlock: OLANEW_clean_sbu_2, # of connection points: 3
#     Node 13, Type 0, BuildingBlock: OLANEW_clean_sbu_2, # of connection points: 3
#     Node 14, Type 0, BuildingBlock: OLANEW_clean_sbu_2, # of connection points: 3
#     Node 15, Type 0, BuildingBlock: OLANEW_clean_sbu_2, # of connection points: 3
#     Edge 16, Type (0, 0), BuildingBlock: KIFKEQ_clean_linker_1, # of connection points: 2
#     Edge 17, Type (0, 0), BuildingBlock: KIFKEQ_clean_linker_1, # of connection points: 2
#     Edge 18, Type (0, 0), BuildingBlock: KIFKEQ_clean_linker_1, # of connection points: 2
#     Edge 19, Type (0, 0), BuildingBlock: KIFKEQ_clean_linker_1, # of connection points: 2
#     Edge 20, Type (0, 0), BuildingBlock: KIFKEQ_clean_linker_1, # of connection points: 2
#     Edge 21, Type (0, 0), BuildingBlock: KIFKEQ_clean_linker_1, # of connection points: 2
#     Edge 22, Type (0, 0), BuildingBlock: KIFKEQ_clean_linker_1, # of connection points: 2
#     Edge 23, Type (0, 0), BuildingBlock: KIFKEQ_clean_linker_1, # of connection points: 2
#     Edge 24, Type (0, 0), BuildingBlock: KIFKEQ_clean_linker_1, # of connection points: 2
#     Edge 25, Type (0, 0), BuildingBlock: KIFKEQ_clean_linker_1, # of connection points: 2
#     Edge 26, Type (0, 0), BuildingBlock: KIFKEQ_clean_linker_1, # of connection points: 2
#     Edge 27, Type (0, 0), BuildingBlock: KIFKEQ_clean_linker_1, # of connection points: 2
#     Edge 28, Type (0, 0), BuildingBlock: KIFKEQ_clean_linker_1, # of connection points: 2
#     Edge 29, Type (0, 0), BuildingBlock: KIFKEQ_clean_linker_1, # of connection points: 2
#     Edge 30, Type (0, 0), BuildingBlock: KIFKEQ_clean_linker_1, # of connection points: 2
#     Edge 31, Type (0, 0), BuildingBlock: KIFKEQ_clean_linker_1, # of connection points: 2
#     Edge 32, Type (0, 0), BuildingBlock: KIFKEQ_clean_linker_1, # of connection points: 2
#     Edge 33, Type (0, 0), BuildingBlock: KIFKEQ_clean_linker_1, # of connection points: 2
#     Edge 34, Type (0, 0), BuildingBlock: KIFKEQ_clean_linker_1, # of connection points: 2
#     Edge 35, Type (0, 0), BuildingBlock: KIFKEQ_clean_linker_1, # of connection points: 2
#     Edge 36, Type (0, 0), BuildingBlock: KIFKEQ_clean_linker_1, # of connection points: 2
#     Edge 37, Type (0, 0), BuildingBlock: KIFKEQ_clean_linker_1, # of connection points: 2
#     Edge 38, Type (0, 0), BuildingBlock: KIFKEQ_clean_linker_1, # of connection points: 2
#     Edge 39, Type (0, 0), BuildingBlock: KIFKEQ_clean_linker_1, # of connection points: 2
# Relax obj value: 0.001
# Max RMSD: 0.051
# Mean RMSD: 0.051
data_MOF--net-bcu-f--node1-OLANEW_clean_sbu_2--edge1-KIFKEQ_clean_linker_1
_symmetry_space_group_name_H-M    P1
_symmetry_Int_Tables_number       1
_symmetry_cell_setting            triclinic
loop_
_symmetry_equiv_pos_as_xyz
'x, y, z'
_cell_length_a     76.883904
_cell_length_b     77.019475
_cell_length_c     22.891667
_cell_angle_alpha  90.07751
_cell_angle_beta   89.917847
_cell_angle_gamma 90.063411
loop_
_atom_site_label
_atom_site_type_symbol
_atom_site_fract_x
_atom_site_fract_y
_atom_site_fract_z
_atom_type_partial_charge
O0 O 0.20127 0.11545 0.10707 0.0
Cd1 Cd 0.22534 0.09823 0.14575 0.0
O2 O 0.21863 0.13693 0.08159 0.0
Cd3 Cd 0.24274 0.12789 0.12202 0.0
O4 O 0.26785 0.13581 0.15865 0.0
C5 C 0.27276 0.1509 0.14328 0.0
O6 O 0.26291 0.15971 0.10703 0.0
C7 C 0.20354 0.13015 0.08294 0.0
C8 C 0.2231 0.06365 0.10914 0.0
O9 O 0.21646 0.06852 0.15785 0.0
O10 O 0.23084 0.0751 0.07789 0.0
O11 O 0.87175 0.19105 0.13068 0.0
Cd12 Cd 0.88768 0.2133 0.18518 0.0
O13 O 0.86481 0.20861 0.05877 0.0
Cd14 Cd 0.87004 0.2318 0.11063 0.0
O15 O 0.85446 0.25125 0.15652 0.0
C16 C 0.83957 0.24575 0.1722 0.0
O17 O 0.83561 0.22941 0.16212 0.0
C18 C 0.86515 0.19342 0.08042 0.0
C19 C 0.92141 0.21729 0.14147 0.0
O20 O 0.91778 0.20537 0.17858 0.0
O21 O 0.90912 0.22741 0.12517 0.0
O22 O 0.79861 0.89154 0.10268 0.0
Cd23 Cd 0.78392 0.91521 0.15412 0.0
O24 O 0.77441 0.87646 0.10016 0.0
Cd25 Cd 0.75919 0.8529 0.08477 0.0
O26 O 0.7418 0.83053 0.09111 0.0
C27 C 0.74201 0.82159 0.13775 0.0
O28 O 0.75296 0.82588 0.17939 0.0
C29 C 0.79049 0.87784 0.08798 0.0
C30 C 0.77852 0.94419 0.08331 0.0
O31 O 0.79287 0.94207 0.11078 0.0
O32 O 0.76671 0.93254 0.08906 0.0
O33 O 0.09336 0.79391 0.10791 0.0
Cd34 Cd 0.06969 0.77578 0.14486 0.0
O35 O 0.11091 0.77174 0.11589 0.0
Cd36 Cd 0.13518 0.75694 0.11936 0.0
O37 O 0.15359 0.73669 0.14479 0.0
C38 C 0.14785 0.72492 0.17865 0.0
O39 O 0.13152 0.72558 0.19546 0.0
C40 C 0.10854 0.78759 0.10253 0.0
C41 C 0.03965 0.779 0.07779 0.0
O42 O 0.04272 0.7894 0.12031 0.0
O43 O 0.05081 0.76705 0.06699 0.0
O44 O 0.19969 0.88512 0.96379 0.0
Cd45 Cd 0.22273 0.90491 0.93148 0.0
O46 O 0.21664 0.86385 0.93591 0.0
Cd47 Cd 0.22423 0.83707 0.9163 0.0
O48 O 0.23711 0.81287 0.89143 0.0
C49 C 0.24244 0.81096 0.83923 0.0
O50 O 0.23958 0.82341 0.80127 0.0
C51 C 0.20237 0.86891 0.95839 0.0
C52 C 0.21984 0.93885 0.97365 0.0
O53 O 0.21319 0.9345 0.92442 0.0
O54 O 0.22759 0.92707 0.00336 0.0
O55 O 0.09565 0.21104 0.95625 0.0
Cd56 Cd 0.07517 0.23335 0.9237 0.0
O57 O 0.11235 0.21531 0.87942 0.0
Cd58 Cd 0.10034 0.23933 0.84888 0.0
O59 O 0.10755 0.26502 0.81614 0.0
C60 C 0.11408 0.26586 0.76519 0.0
O61 O 0.11462 0.25167 0.73329 0.0
C62 C 0.10879 0.20682 0.92554 0.0
C63 C 0.04217 0.22961 0.97345 0.0
O64 O 0.04661 0.22086 0.92817 0.0
O65 O 0.05335 0.24008 0.99547 0.0
O66 O 0.78126 0.10559 0.8459 0.0
Cd67 Cd 0.75862 0.08731 0.80307 0.0
O68 O 0.76565 0.11084 0.92453 0.0
Cd69 Cd 0.74124 0.10357 0.88213 0.0
O70 O 0.71752 0.11276 0.83951 0.0
C71 C 0.71016 0.12568 0.86373 0.0
O72 O 0.71662 0.13167 0.91292 0.0
C73 C 0.78003 0.11182 0.89721 0.0
C74 C 0.76044 0.05455 0.85482 0.0
O75 O 0.76963 0.05828 0.8098 0.0
O76 O 0.75007 0.06618 0.87461 0.0
O77 O 0.87798 0.80944 0.82313 0.0
Cd78 Cd 0.90121 0.79568 0.76691 0.0
O79 O 0.86922 0.78395 0.85382 0.0
Cd80 Cd 0.85076 0.76594 0.89395 0.0
O81 O 0.83216 0.74447 0.89259 0.0
C82 C 0.83561 0.73207 0.8578 0.0
O83 O 0.85019 0.73263 0.82781 0.0
C84 C 0.86749 0.80035 0.85325 0.0
C85 C 0.93123 0.79177 0.8337 0.0
O86 O 0.92836 0.80577 0.80506 0.0
O87 O 0.9199 0.77958 0.83059 0.0
O88 O 0.68896 0.61476 0.57505 0.0
Cd89 Cd 0.70905 0.59962 0.63991 0.0
O90 O 0.70643 0.63654 0.55412 0.0
Cd91 Cd 0.72622 0.6301 0.61881 0.0
O92 O 0.74618 0.63929 0.67927 0.0
C93 C 0.74251 0.65312 0.70705 0.0
O94 O 0.72703 0.66002 0.70003 0.0
C95 C 0.69211 0.62858 0.54663 0.0
C96 C 0.71005 0.56486 0.60529 0.0
O97 O 0.69875 0.57023 0.64233 0.0
O98 O 0.72119 0.57583 0.58586 0.0
O99 O 0.39273 0.6516 0.71345 0.0
Cd100 Cd 0.4185 0.66573 0.75366 0.0
O101 O 0.37844 0.67601 0.72204 0.0
Cd102 Cd 0.35726 0.69482 0.71228 0.0
O103 O 0.33716 0.71477 0.71854 0.0
C104 C 0.3229 0.71152 0.74454 0.0
O105 O 0.32031 0.6959 0.76595 0.0
C106 C 0.37876 0.66014 0.70642 0.0
C107 C 0.44326 0.67026 0.66584 0.0
O108 O 0.44289 0.6564 0.69673 0.0
O109 O 0.43204 0.68211 0.67702 0.0
O110 O 0.27627 0.37484 0.54494 0.0
Cd111 Cd 0.24896 0.39107 0.55262 0.0
O112 O 0.26358 0.3512 0.57828 0.0
Cd113 Cd 0.23714 0.36101 0.59026 0.0
O114 O 0.21005 0.35468 0.61053 0.0
C115 C 0.20613 0.35132 0.66329 0.0
O116 O 0.21812 0.3532 0.70367 0.0
C117 C 0.2771 0.35892 0.55944 0.0
C118 C 0.25163 0.42587 0.51922 0.0
O119 O 0.254 0.42126 0.57242 0.0
O120 O 0.24821 0.41399 0.48168 0.0
O121 O 0.61374 0.27451 0.52618 0.0
Cd122 Cd 0.59684 0.25067 0.56876 0.0
O123 O 0.63779 0.25947 0.51301 0.0
Cd124 Cd 0.6291 0.23508 0.55225 0.0
O125 O 0.63629 0.21069 0.59474 0.0
C126 C 0.63229 0.20737 0.64746 0.0
O127 O 0.6225 0.2184 0.6764 0.0
C128 C 0.62942 0.27363 0.50859 0.0
C129 C 0.56183 0.25198 0.53562 0.0
O130 O 0.56754 0.26115 0.57824 0.0
O131 O 0.57264 0.24217 0.50858 0.0
O132 O 0.68439 0.39543 0.36654 0.0
Cd133 Cd 0.69934 0.42087 0.32678 0.0
O134 O 0.70875 0.38106 0.35699 0.0
Cd135 Cd 0.72626 0.35867 0.35322 0.0
O136 O 0.74691 0.33977 0.33683 0.0
C137 C 0.74445 0.32771 0.2998 0.0
O138 O 0.72931 0.32665 0.27345 0.0
C139 C 0.69274 0.38126 0.37118 0.0
C140 C 0.70109 0.44938 0.40188 0.0
O141 O 0.6878 0.44685 0.36917 0.0
O142 O 0.71344 0.43822 0.39993 0.0
O143 O 0.58318 0.67112 0.29567 0.0
Cd144 Cd 0.55663 0.68314 0.25382 0.0
O145 O 0.59783 0.69465 0.27367 0.0
Cd146 Cd 0.62111 0.71095 0.26693 0.0
O147 O 0.64287 0.72887 0.25482 0.0
C148 C 0.65077 0.72943 0.20604 0.0
O149 O 0.64581 0.71895 0.1639 0.0
C150 C 0.59731 0.67968 0.29703 0.0
C151 C 0.53027 0.68175 0.33747 0.0
O152 O 0.53283 0.66911 0.30201 0.0
O153 O 0.53998 0.69521 0.33261 0.0
O154 O 0.28006 0.6012 0.43627 0.0
Cd155 Cd 0.25662 0.58802 0.37935 0.0
O156 O 0.26209 0.6118 0.50207 0.0
Cd157 Cd 0.23969 0.60924 0.44424 0.0
O158 O 0.22174 0.6229 0.38638 0.0
C159 C 0.22725 0.63746 0.36779 0.0
O160 O 0.24294 0.64254 0.38281 0.0
C161 C 0.27753 0.60875 0.48498 0.0
C162 C 0.25445 0.55265 0.40577 0.0
O163 O 0.26383 0.55806 0.36315 0.0
O164 O 0.2459 0.56394 0.43529 0.0
O165 O 0.3843 0.28104 0.41504 0.0
Cd166 Cd 0.40197 0.25846 0.36834 0.0
O167 O 0.3732 0.26362 0.48147 0.0
Cd168 Cd 0.38156 0.23986 0.43738 0.0
O169 O 0.37066 0.21768 0.39003 0.0
C170 C 0.36878 0.21853 0.33495 0.0
O171 O 0.37492 0.23214 0.30713 0.0
C172 C 0.37495 0.27878 0.46028 0.0
C173 C 0.43625 0.25753 0.40907 0.0
O174 O 0.4316 0.26832 0.3695 0.0
O175 O 0.42468 0.24725 0.42984 0.0
H176 H 0.22986 0.95143 0.08019 0.0
H177 H 0.20826 0.96744 0.91466 0.0
H178 H 0.22997 0.98158 0.11313 0.0
H179 H 0.20832 -0.00242 0.94781 0.0
H180 H 0.2324 0.0502 0.00306 0.0
H181 H 0.23072 0.02001 0.97105 0.0
H182 H 0.20937 0.00548 0.13859 0.0
H183 H 0.21109 0.03568 0.17083 0.0
C184 C 0.22504 0.96136 0.05096 0.0
C185 C 0.21909 0.95703 0.99474 0.0
C186 C 0.22503 0.97862 0.06996 0.0
C187 C 0.2192 -0.00804 0.03299 0.0
C188 C 0.21307 0.98761 0.97703 0.0
C189 C 0.21294 0.97033 0.9582 0.0
C190 C 0.22732 0.04058 0.03308 0.0
C191 C 0.22191 0.04534 0.08954 0.0
C192 C 0.22626 0.0233 0.01459 0.0
C193 C 0.2199 0.01037 0.05229 0.0
C194 C 0.21447 0.01513 0.10874 0.0
C195 C 0.21539 0.03244 0.12708 0.0
H196 H 0.94767 0.19347 0.14369 0.0
H197 H 0.93541 0.2454 0.08581 0.0
H198 H 0.977 0.19645 0.10338 0.0
H199 H 0.96487 0.24843 0.0464 0.0
H200 H 0.02572 0.25176 0.04867 0.0
H201 H -0.00355 0.24889 0.08976 0.0
H202 H -0.01022 0.20033 -0.00183 0.0
H203 H 0.01891 0.20328 0.95623 0.0
C204 C 0.95126 0.20554 0.12262 0.0
C205 C 0.93924 0.2192 0.11786 0.0
C206 C 0.96801 0.2072 0.09936 0.0
C207 C 0.97316 0.22266 0.07185 0.0
C208 C 0.96124 0.23641 0.06773 0.0
C209 C 0.94438 0.23464 0.09003 0.0
C210 C 0.01801 0.24047 0.03735 0.0
C211 C 0.0246 0.22775 -0.00081 0.0
C212 C 0.00125 0.23888 0.06064 0.0
C213 C -0.0091 0.22439 0.0471 0.0
C214 C -0.00244 0.21157 0.00955 0.0
C215 C 0.01418 0.21331 0.9854 0.0
H216 H 0.74009 0.04115 0.9419 0.0
H217 H 0.78501 0.02961 0.83506 0.0
H218 H 0.74415 0.01387 0.99446 0.0
H219 H 0.78904 0.00237 0.88775 0.0
H220 H 0.80248 0.96831 0.04886 0.0
H221 H 0.79757 -0.00564 0.99063 0.0
H222 H 0.74307 0.98142 0.97697 0.0
H223 H 0.74795 0.95529 0.03518 0.0
C224 C 0.75075 0.03275 0.92937 0.0
C225 C 0.76225 0.03756 0.8844 0.0
C226 C 0.75302 0.01709 0.9593 0.0
C227 C 0.76695 0.00603 0.94531 0.0
C228 C 0.7783 0.01073 0.89983 0.0
C229 C 0.77592 0.02628 0.86947 0.0
C230 C 0.78946 0.97097 0.03329 0.0
C231 C 0.7756 0.95975 0.04671 0.0
C232 C 0.78667 0.98584 -0.00033 0.0
C233 C 0.76994 -0.01009 0.97926 0.0
C234 C 0.75608 0.97867 0.9925 0.0
C235 C 0.7589 0.96368 0.02558 0.0
H236 H 0.02759 0.75687 0.99354 0.0
H237 H 0.01563 0.80509 0.08156 0.0
H238 H 0.00134 0.7599 0.93453 0.0
H239 H -0.01063 0.80804 0.02267 0.0
H240 H 0.95558 0.8165 0.85901 0.0
H241 H 0.98177 0.81328 0.91807 0.0
H242 H 0.96901 0.75942 0.94845 0.0
H243 H 0.94282 0.76258 0.88918 0.0
C244 C 0.01936 0.7681 0.00034 0.0
C245 C 0.0237 0.78075 0.04219 0.0
C246 C 0.00429 0.76978 0.96676 0.0
C247 C -0.00668 0.78421 0.97397 0.0
C248 C -0.00233 0.79687 0.01574 0.0
C249 C 0.01267 0.79512 0.04966 0.0
C250 C 0.95836 0.80396 0.87823 0.0
C251 C 0.94713 0.78979 0.8694 0.0
C252 C 0.97331 0.80215 0.91231 0.0
C253 C 0.97742 0.7861 0.9379 0.0
C254 C 0.96625 0.7719 0.92882 0.0
C255 C 0.95121 0.77375 0.89514 0.0
H256 H 0.68522 0.54012 0.62517 0.0
H257 H 0.73387 0.54877 0.53491 0.0
H258 H 0.68331 0.51118 0.58197 0.0
H259 H 0.73189 0.51985 0.49169 0.0
H260 H 0.72949 0.46119 0.46192 0.0
H261 H 0.73216 0.48819 0.51738 0.0
H262 H 0.67844 0.50017 0.48041 0.0
H263 H 0.67573 0.47322 0.42514 0.0
C264 C 0.6956 0.53579 0.59661 0.0
C265 C 0.70966 0.54678 0.58325 0.0
C266 C 0.69444 0.51925 0.57165 0.0
C267 C 0.7074 0.51329 0.53326 0.0
C268 C 0.72177 0.52403 0.5215 0.0
C269 C 0.72285 0.54063 0.54603 0.0
C270 C 0.71821 0.46951 0.46608 0.0
C271 C 0.70241 0.46509 0.43894 0.0
C272 C 0.71978 0.485 0.49759 0.0
C273 C 0.70553 0.49631 0.50313 0.0
C274 C 0.68961 0.49164 0.4774 0.0
C275 C 0.68808 0.47625 0.44545 0.0
H276 H 0.52129 0.70653 0.41773 0.0
H277 H 0.50904 0.65427 0.36234 0.0
H278 H 0.50021 0.70401 0.49709 0.0
H279 H 0.48783 0.65186 0.44117 0.0
H280 H 0.46741 0.64678 0.62831 0.0
H281 H 0.48811 0.64994 0.54831 0.0
H282 H 0.46861 0.70152 0.51435 0.0
H283 H 0.44801 0.69846 0.59495 0.0
C284 C 0.51402 0.69456 0.42221 0.0
C285 C 0.51688 0.68058 0.38381 0.0
C286 C 0.50189 0.69314 0.46754 0.0
C287 C 0.49241 0.67771 0.47557 0.0
C288 C 0.49511 0.66383 0.43665 0.0
C289 C 0.50718 0.66526 0.39124 0.0
C290 C 0.46755 0.65881 0.60391 0.0
C291 C 0.45606 0.67236 0.61799 0.0
C292 C 0.47934 0.66058 0.5578 0.0
C293 C 0.47994 0.67595 0.52483 0.0
C294 C 0.46856 0.68958 0.53926 0.0
C295 C 0.45671 0.68779 0.58527 0.0
H296 H 0.23762 0.53756 0.49795 0.0
H297 H 0.26989 0.52548 0.34866 0.0
H298 H 0.23707 0.50692 0.52462 0.0
H299 H 0.26948 0.49485 0.37578 0.0
H300 H 0.24867 0.43954 0.40942 0.0
H301 H 0.2492 0.4701 0.38141 0.0
H302 H 0.25712 0.48465 0.56171 0.0
H303 H 0.25641 0.45413 0.58988 0.0
C304 C 0.24459 0.52837 0.47078 0.0
C305 C 0.25379 0.53397 0.42116 0.0
C306 C 0.24436 0.51082 0.48631 0.0
C307 C 0.25328 0.49845 0.45244 0.0
C308 C 0.26235 0.50403 0.40248 0.0
C309 C 0.26264 0.5216 0.3871 0.0
C310 C 0.25057 0.44925 0.44308 0.0
C311 C 0.25247 0.44439 0.5019 0.0
C312 C 0.25095 0.46676 0.42697 0.0
C313 C 0.25316 0.47981 0.46935 0.0
C314 C 0.25517 0.47493 0.52812 0.0
C315 C 0.25487 0.45742 0.54419 0.0
H316 H 0.53815 0.27729 0.56128 0.0
H317 H 0.54367 0.22841 0.4704 0.0
H318 H 0.50763 0.27871 0.53143 0.0
H319 H 0.51304 0.22971 0.44163 0.0
H320 H 0.45247 0.23098 0.46629 0.0
H321 H 0.4829 0.22956 0.4974 0.0
H322 H 0.4916 0.28113 0.4299 0.0
H323 H 0.46129 0.28248 0.39769 0.0
C324 C 0.53283 0.26682 0.53518 0.0
C325 C 0.54331 0.25275 0.5181 0.0
C326 C 0.5154 0.26768 0.51795 0.0
C327 C 0.50802 0.25431 0.48433 0.0
C328 C 0.51841 0.24013 0.46785 0.0
C329 C 0.53594 0.23944 0.48408 0.0
C330 C 0.46087 0.24203 0.4582 0.0
C331 C 0.4545 0.25684 0.42949 0.0
C332 C 0.47827 0.24117 0.47574 0.0
C333 C 0.48955 0.25523 0.466 0.0
C334 C 0.48313 0.27015 0.43818 0.0
C335 C 0.46583 0.27088 0.41958 0.0
H336 H 0.20487 0.15956 0.01719 0.0
H337 H 0.16864 0.12249 0.09025 0.0
H338 H 0.18081 0.17606 0.97719 0.0
H339 H 0.14439 0.13912 0.04937 0.0
H340 H 0.10824 0.1885 0.02857 0.0
H341 H 0.13029 0.16824 0.06422 0.0
H342 H 0.15836 0.17337 0.90162 0.0
H343 H 0.13661 0.19366 0.86632 0.0
C344 C 0.19176 0.15485 0.02447 0.0
C345 C 0.1887 0.13968 0.057 0.0
C346 C 0.17796 0.16428 0.00113 0.0
C347 C 0.16069 0.15885 0.00982 0.0
C348 C 0.15756 0.14366 0.04221 0.0
C349 C 0.17144 0.13411 0.06533 0.0
C350 C 0.119 0.18512 0.00017 0.0
C351 C 0.12077 0.19289 0.9449 0.0
C352 C 0.13159 0.17346 0.02052 0.0
C353 C 0.14618 0.1694 0.98601 0.0
C354 C 0.14745 0.1765 0.92969 0.0
C355 C 0.13491 0.1881 0.90939 0.0
H356 H 0.78362 0.12212 0.01076 0.0
H357 H 0.81012 0.12253 0.84411 0.0
H358 H 0.80686 0.13964 0.05286 0.0
H359 H 0.8334 0.1401 0.88652 0.0
H360 H 0.85281 0.19298 0.96847 0.0
H361 H 0.83442 0.17093 0.92332 0.0
H362 H 0.83867 0.13923 0.07806 0.0
H363 H 0.85706 0.16129 0.12349 0.0
C364 C 0.79449 0.12578 0.98326 0.0
C365 C 0.79495 0.12103 0.92398 0.0
C366 C 0.80787 0.13572 0.00752 0.0
C367 C 0.82193 0.14126 0.97293 0.0
C368 C 0.82266 0.1361 0.91407 0.0
C369 C 0.80936 0.12599 0.88992 0.0
C370 C 0.85007 0.18118 0.99254 0.0
C371 C 0.85627 0.17897 0.0498 0.0
C372 C 0.83961 0.16851 0.96652 0.0
C373 C 0.835 0.15343 -0.00262 0.0
C374 C 0.84186 0.15083 0.05354 0.0
C375 C 0.85247 0.16343 0.07938 0.0
H376 H 0.77905 0.85837 -0.00386 0.0
H377 H 0.82315 0.86622 0.10966 0.0
H378 H 0.79586 0.83718 0.93911 0.0
H379 H 0.83974 0.84471 0.05366 0.0
H380 H 0.85587 0.79241 0.96263 0.0
H381 H 0.83532 0.80919 0.02243 0.0
H382 H 0.82739 0.84456 0.87899 0.0
H383 H 0.84828 0.82815 0.81985 0.0
C384 C 0.79216 0.85522 0.0097 0.0
C385 C 0.79982 0.86381 0.05735 0.0
C386 C 0.80176 0.84321 0.97701 0.0
C387 C 0.81898 0.83932 0.99247 0.0
C388 C 0.8264 0.84741 0.04141 0.0
C389 C 0.81697 0.85973 0.07314 0.0
C390 C 0.84945 0.80355 0.9436 0.0
C391 C 0.85356 0.80898 0.88667 0.0
C392 C 0.83781 0.81316 0.97781 0.0
C393 C 0.8298 0.82804 0.95496 0.0
C394 C 0.83332 0.83302 0.89722 0.0
C395 C 0.84528 0.8237 0.8636 0.0
H396 H 0.13821 0.77839 0.04291 0.0
H397 H 0.11114 0.82249 0.11574 0.0
H398 H 0.16115 0.79763 0.00724 0.0
H399 H 0.13405 0.84166 0.08091 0.0
H400 H 0.20708 0.83639 0.00411 0.0
H401 H 0.18479 0.81627 0.03843 0.0
H402 H 0.145 0.85332 0.99177 0.0
H403 H 0.16734 0.87344 0.95805 0.0
C404 C 0.13734 0.79212 0.05243 0.0
C405 C 0.12297 0.79889 0.08277 0.0
C406 C 0.15045 0.80318 0.03173 0.0
C407 C 0.14943 0.82123 0.04095 0.0
C408 C 0.13512 0.8279 0.07197 0.0
C409 C 0.12202 0.81688 0.09229 0.0
C410 C 0.19357 0.84006 -3e-05 0.0
C411 C 0.18894 0.85637 0.97744 0.0
C412 C 0.18077 0.82856 0.01996 0.0
C413 C 0.16308 0.83315 0.01798 0.0
C414 C 0.15851 0.84945 0.99492 0.0
C415 C 0.17129 0.86095 0.97527 0.0
H416 H 0.69516 0.6569 0.47518 0.0
H417 H 0.65935 0.61625 0.52534 0.0
H418 H 0.6733 0.66892 0.40978 0.0
H419 H 0.63738 0.62852 0.46112 0.0
H420 H 0.60632 0.64565 0.30414 0.0
H421 H 0.63012 0.63292 0.35995 0.0
H422 H 0.64587 0.68416 0.41616 0.0
H423 H 0.62214 0.69681 0.36019 0.0
C424 C 0.68263 0.65052 0.47231 0.0
C425 C 0.679 0.63562 0.50563 0.0
C426 C 0.67007 0.65747 0.435 0.0
C427 C 0.65357 0.64971 0.43022 0.0
C428 C 0.65003 0.63469 0.46304 0.0
C429 C 0.6626 0.62771 0.50021 0.0
C430 C 0.61502 0.65418 0.3279 0.0
C431 C 0.6126 0.67225 0.32683 0.0
C432 C 0.62858 0.64689 0.36015 0.0
C433 C 0.63991 0.65751 0.39259 0.0
C434 C 0.63761 0.67562 0.39075 0.0
C435 C 0.62408 0.68291 0.35829 0.0
H436 H 0.31142 0.61185 0.45077 0.0
H437 H 0.27739 0.61949 0.59889 0.0
H438 H 0.33558 0.62376 0.50628 0.0
H439 H 0.30174 0.6307 0.65554 0.0
H440 H 0.34396 0.66798 0.71752 0.0
H441 H 0.31978 0.65525 0.66427 0.0
H442 H 0.35502 0.61865 0.5834 0.0
H443 H 0.37934 0.63242 0.633 0.0
C444 C 0.30916 0.61582 0.49555 0.0
C445 C 0.29247 0.61478 0.52034 0.0
C446 C 0.32306 0.62258 0.5276 0.0
C447 C 0.32067 0.62825 0.58555 0.0
C448 C 0.30403 0.6268 0.61074 0.0
C449 C 0.29007 0.62024 0.57839 0.0
C450 C 0.34663 0.65763 0.68697 0.0
C451 C 0.36368 0.65172 0.67775 0.0
C452 C 0.33267 0.64998 0.65745 0.0
C453 C 0.33541 0.63599 0.61887 0.0
C454 C 0.35242 0.62966 0.61154 0.0
C455 C 0.36637 0.63746 0.64049 0.0
H456 H 0.30896 0.37039 0.5198 0.0
H457 H 0.28234 0.32472 0.5836 0.0
H458 H 0.33526 0.3531 0.50428 0.0
H459 H 0.30816 0.30753 0.56663 0.0
H460 H 0.35829 0.28026 0.56564 0.0
H461 H 0.33693 0.3016 0.59742 0.0
H462 H 0.34554 0.33086 0.439 0.0
H463 H 0.36739 0.30985 0.40836 0.0
C464 C 0.30872 0.35671 0.53076 0.0
C465 C 0.2935 0.34895 0.55276 0.0
C466 C 0.32377 0.34679 0.52164 0.0
C467 C 0.32389 0.3289 0.53432 0.0
C468 C 0.30874 0.32131 0.55743 0.0
C469 C 0.2938 0.33119 0.56668 0.0
C470 C 0.35587 0.29143 0.53814 0.0
C471 C 0.36437 0.29322 0.48412 0.0
C472 C 0.34353 0.30362 0.55615 0.0
C473 C 0.3392 0.31778 0.52022 0.0
C474 C 0.34856 0.32019 0.46797 0.0
C475 C 0.36107 0.30808 0.45026 0.0
H476 H 0.70596 0.35338 0.43085 0.0
H477 H 0.65857 0.37347 0.35617 0.0
H478 H 0.69052 0.32729 0.46177 0.0
H479 H 0.6431 0.34736 0.38656 0.0
H480 H 0.61726 0.30705 0.50533 0.0
H481 H 0.6326 0.33293 0.47215 0.0
H482 H 0.67692 0.30144 0.4246 0.0
H483 H 0.66178 0.27566 0.45926 0.0
C484 C 0.69234 0.35206 0.41992 0.0
C485 C 0.68357 0.36533 0.39011 0.0
C486 C 0.68344 0.33713 0.43787 0.0
C487 C 0.66556 0.33515 0.42644 0.0
C488 C 0.6568 0.34851 0.3968 0.0
C489 C 0.66569 0.36345 0.37914 0.0
C490 C 0.63024 0.30563 0.48753 0.0
C491 C 0.63828 0.28927 0.48513 0.0
C492 C 0.63903 0.32048 0.46826 0.0
C493 C 0.65604 0.3193 0.44583 0.0
C494 C 0.66396 0.30288 0.44255 0.0
C495 C 0.65521 0.28806 0.46205 0.0
H496 H 0.36275 0.21617 0.21761 0.0
H497 H 0.34935 0.19219 0.3822 0.0
H498 H 0.34151 0.19789 0.16807 0.0
H499 H 0.32776 0.17425 0.33289 0.0
H500 H 0.2961 0.13695 0.22111 0.0
H501 H 0.32153 0.15117 0.26406 0.0
H502 H 0.3104 0.19747 0.16451 0.0
H503 H 0.28544 0.18322 0.12085 0.0
C504 C 0.35539 0.20689 0.24318 0.0
C505 C 0.35763 0.20579 0.30397 0.0
C506 C 0.34312 0.19648 0.21482 0.0
C507 C 0.33271 0.18477 0.24658 0.0
C508 C 0.3356 0.18303 0.30695 0.0
C509 C 0.34795 0.19339 0.3353 0.0
C510 C 0.2992 0.15011 0.20807 0.0
C511 C 0.28871 0.15896 0.16763 0.0
C512 C 0.31373 0.15829 0.23287 0.0
C513 C 0.31805 0.17547 0.21771 0.0
C514 C 0.30769 0.18414 0.17649 0.0
C515 C 0.29325 0.17599 0.15174 0.0
H516 H 0.743 0.30011 0.22504 0.0
H517 H 0.77798 0.32757 0.34045 0.0
H518 H 0.7664 0.28039 0.19797 0.0
H519 H 0.80138 0.30763 0.31378 0.0
H520 H 0.84249 0.2807 0.19409 0.0
H521 H 0.81968 0.3004 0.22805 0.0
H522 H 0.78397 0.25723 0.24073 0.0
H523 H 0.80657 0.23765 0.20624 0.0
C524 C 0.75565 0.30188 0.24494 0.0
C525 C 0.7586 0.31542 0.28493 0.0
C526 C 0.76905 0.29051 0.22964 0.0
C527 C 0.78575 0.29242 0.25385 0.0
C528 C 0.78871 0.30592 0.29397 0.0
C529 C 0.77527 0.31728 0.30948 0.0
C530 C 0.82981 0.27542 0.20454 0.0
C531 C 0.82633 0.25763 0.19706 0.0
C532 C 0.81676 0.28668 0.22422 0.0
C533 C 0.79997 0.28039 0.23661 0.0
C534 C 0.79668 0.26254 0.2306 0.0
C535 C 0.80969 0.2513 0.21114 0.0
H536 H 0.73884 0.80047 0.23297 0.0
H537 H 0.71696 0.81002 0.06221 0.0
H538 H 0.71761 0.77744 0.24902 0.0
H539 H 0.69553 0.78719 0.07877 0.0
H540 H 0.66981 0.73441 0.10643 0.0
H541 H 0.69265 0.75582 0.08941 0.0
H542 H 0.68646 0.77479 0.2659 0.0
H543 H 0.66386 0.7532 0.28331 0.0
C544 C 0.72952 0.79765 0.1988 0.0
C545 C 0.72957 0.80713 0.14636 0.0
C546 C 0.71729 0.7845 0.20817 0.0
C547 C 0.70482 0.78052 0.1653 0.0
C548 C 0.70507 0.7898 0.11244 0.0
C549 C 0.7173 0.80296 0.10307 0.0
C550 C 0.67337 0.7431 0.1417 0.0
C551 C 0.66498 0.74211 0.19621 0.0
C552 C 0.6864 0.75543 0.13181 0.0
C553 C 0.69136 0.76704 0.17623 0.0
C554 C 0.6831 0.7659 0.23096 0.0
C555 C 0.67007 0.75359 0.24083 0.0
H556 H 0.23477 0.67006 0.32891 0.0
H557 H 0.19406 0.63134 0.32891 0.0
H558 H 0.21563 0.69022 0.27886 0.0
H559 H 0.17498 0.65143 0.27716 0.0
H560 H 0.13999 0.69962 0.25778 0.0
H561 H 0.15926 0.67769 0.29813 0.0
H562 H 0.20107 0.69643 0.18864 0.0
H563 H 0.18188 0.71874 0.14936 0.0
C564 C 0.22179 0.66576 0.31757 0.0
C565 C 0.21591 0.64912 0.33329 0.0
C566 C 0.21084 0.6773 0.28844 0.0
C567 C 0.19373 0.67249 0.27405 0.0
C568 C 0.18799 0.65566 0.28837 0.0
C569 C 0.19896 0.6441 0.31773 0.0
C570 C 0.15327 0.69903 0.24206 0.0
C571 C 0.15942 0.71102 0.20062 0.0
C572 C 0.1643 0.68635 0.26491 0.0
C573 C 0.18174 0.68528 0.24674 0.0
C574 C 0.18779 0.69704 0.20427 0.0
C575 C 0.17676 0.70978 0.18154 0.0
H576 H 0.25149 0.7833 0.90767 0.0
H577 H 0.25659 0.80352 0.73244 0.0
H578 H 0.26991 0.75877 0.88141 0.0
H579 H 0.27477 0.77881 0.70596 0.0
H580 H 0.32453 0.74526 0.7078 0.0
H581 H 0.30398 0.76855 0.72817 0.0
H582 H 0.27107 0.73254 0.82167 0.0
H583 H 0.29179 0.70926 0.80219 0.0
C584 C 0.25639 0.78243 0.86338 0.0
C585 C 0.25264 0.79544 0.82227 0.0
C586 C 0.26687 0.76831 0.84823 0.0
C587 C 0.27387 0.76686 0.79163 0.0
C588 C 0.26979 0.77967 0.75016 0.0
C589 C 0.25929 0.79379 0.76529 0.0
C590 C 0.31287 0.74227 0.73241 0.0
C591 C 0.30986 0.72541 0.75364 0.0
C592 C 0.30103 0.75561 0.74379 0.0
C593 C 0.2859 0.75242 0.7767 0.0
C594 C 0.28272 0.73547 0.79688 0.0
C595 C 0.29455 0.72212 0.78542 0.0
H596 H 0.19473 0.34075 0.77051 0.0
H597 H 0.17954 0.34266 0.58895 0.0
H598 H 0.16945 0.32292 0.79235 0.0
H599 H 0.15395 0.32508 0.61116 0.0
H600 H 0.13073 0.27108 0.66131 0.0
H601 H 0.15015 0.29479 0.63567 0.0
H602 H 0.13815 0.3203 0.79902 0.0
H603 H 0.11894 0.2963 0.82538 0.0
C604 C 0.1858 0.33767 0.73542 0.0
C605 C 0.18931 0.34294 0.67783 0.0
C606 C 0.1712 0.32752 0.74805 0.0
C607 C 0.15973 0.32242 0.70341 0.0
C608 C 0.16268 0.32854 0.64638 0.0
C609 C 0.17731 0.3387 0.63372 0.0
C610 C 0.13199 0.28187 0.69142 0.0
C611 C 0.12346 0.28166 0.74576 0.0
C612 C 0.14306 0.29556 0.6765 0.0
C613 C 0.14586 0.3094 0.71552 0.0
C614 C 0.13651 0.3097 0.7684 0.0
C615 C 0.12542 0.29598 0.78335 0.0
H616 H 0.65625 0.18454 0.60387 0.0
H617 H 0.62705 0.19663 0.76011 0.0
H618 H 0.67264 0.16277 0.6573 0.0
H619 H 0.64314 0.17444 0.81329 0.0
H620 H 0.69335 0.1547 0.90196 0.0
H621 H 0.67222 0.17214 0.84969 0.0
H622 H 0.67291 0.13532 0.70707 0.0
H623 H 0.69455 0.11803 0.75899 0.0
C624 C 0.65308 0.18232 0.64937 0.0
C625 C 0.64048 0.1925 0.67788 0.0
C626 C 0.66243 0.16973 0.67999 0.0
C627 C 0.65935 0.16693 0.73982 0.0
C628 C 0.64609 0.17648 0.76753 0.0
C629 C 0.63679 0.18914 0.73694 0.0
C630 C 0.68888 0.15018 0.85973 0.0
C631 C 0.69578 0.13505 0.83443 0.0
C632 C 0.67662 0.16015 0.82986 0.0
C633 C 0.67088 0.1552 0.77397 0.0
C634 C 0.67725 0.13965 0.74966 0.0
C635 C 0.68957 0.12969 0.77955 0.0
H636 H 0.73944 0.68449 0.76138 0.0
H637 H 0.77603 0.64299 0.72946 0.0
H638 H 0.7623 0.70165 0.80639 0.0
H639 H 0.7989 0.66 0.77638 0.0
H640 H 0.83783 0.70594 0.77762 0.0
H641 H 0.81546 0.68515 0.75065 0.0
H642 H 0.78195 0.70548 0.88615 0.0
H643 H 0.80423 0.72673 0.912 0.0
C644 C 0.75231 0.67888 0.76494 0.0
C645 C 0.75595 0.66245 0.74115 0.0
C646 C 0.76543 0.68869 0.79123 0.0
C647 C 0.78251 0.68228 0.79472 0.0
C648 C 0.78596 0.66547 0.77349 0.0
C649 C 0.77283 0.65567 0.74689 0.0
C650 C 0.82577 0.70588 0.80216 0.0
C651 C 0.82274 0.71814 0.84651 0.0
C652 C 0.81296 0.69383 0.78695 0.0
C653 C 0.79683 0.69368 0.81596 0.0
C654 C 0.79411 0.70543 0.86221 0.0
C655 C 0.80691 0.71756 0.87724 0.0
loop_
_geom_bond_atom_site_label_1
_geom_bond_atom_site_label_2
_geom_bond_distance
_geom_bond_site_symmetry_2
_ccdc_geom_bond_type
O0 Cd1 2.300 . S
O0 C7 1.275 . S
Cd1 O0 2.300 . S
Cd1 O9 2.381 . S
Cd1 O10 2.378 . S
O2 Cd3 2.385 . S
O2 C7 1.255 . S
Cd3 O2 2.385 . S
Cd3 O4 2.317 . S
O4 Cd3 2.317 . S
O4 C5 1.232 . S
C5 O4 1.232 . S
C5 O6 1.218 . S
O6 C5 1.218 . S
C7 O0 1.275 . S
C7 O2 1.255 . S
C8 O9 1.258 . S
C8 O10 1.256 . S
O9 Cd1 2.381 . S
O9 C8 1.258 . S
O10 Cd1 2.378 . S
O10 C8 1.256 . S
O11 Cd12 2.300 . S
O11 C18 1.275 . S
Cd12 O11 2.300 . S
Cd12 O20 2.381 . S
Cd12 O21 2.378 . S
O13 Cd14 2.385 . S
O13 C18 1.255 . S
Cd14 O13 2.385 . S
Cd14 O15 2.317 . S
O15 Cd14 2.317 . S
O15 C16 1.232 . S
C16 O15 1.232 . S
C16 O17 1.218 . S
O17 C16 1.218 . S
C18 O11 1.275 . S
C18 O13 1.255 . S
C19 O20 1.258 . S
C19 O21 1.256 . S
O20 Cd12 2.381 . S
O20 C19 1.258 . S
O21 Cd12 2.378 . S
O21 C19 1.256 . S
O22 Cd23 2.300 . S
O22 C29 1.275 . S
Cd23 O22 2.300 . S
Cd23 O31 2.381 . S
Cd23 O32 2.378 . S
O24 Cd25 2.385 . S
O24 C29 1.255 . S
Cd25 O24 2.385 . S
Cd25 O26 2.317 . S
O26 Cd25 2.317 . S
O26 C27 1.232 . S
C27 O26 1.232 . S
C27 O28 1.218 . S
O28 C27 1.218 . S
C29 O22 1.275 . S
C29 O24 1.255 . S
C30 O31 1.258 . S
C30 O32 1.256 . S
O31 Cd23 2.381 . S
O31 C30 1.258 . S
O32 Cd23 2.378 . S
O32 C30 1.256 . S
O33 Cd34 2.300 . S
O33 C40 1.275 . S
Cd34 O33 2.300 . S
Cd34 O42 2.381 . S
Cd34 O43 2.378 . S
O35 Cd36 2.385 . S
O35 C40 1.255 . S
Cd36 O35 2.385 . S
Cd36 O37 2.317 . S
O37 Cd36 2.317 . S
O37 C38 1.232 . S
C38 O37 1.232 . S
C38 O39 1.218 . S
O39 C38 1.218 . S
C40 O33 1.275 . S
C40 O35 1.255 . S
C41 O42 1.258 . S
C41 O43 1.256 . S
O42 Cd34 2.381 . S
O42 C41 1.258 . S
O43 Cd34 2.378 . S
O43 C41 1.256 . S
O44 Cd45 2.300 . S
O44 C51 1.275 . S
Cd45 O44 2.300 . S
Cd45 O53 2.381 . S
Cd45 O54 2.378 . S
O46 Cd47 2.385 . S
O46 C51 1.255 . S
Cd47 O46 2.385 . S
Cd47 O48 2.317 . S
O48 Cd47 2.317 . S
O48 C49 1.232 . S
C49 O48 1.232 . S
C49 O50 1.218 . S
O50 C49 1.218 . S
C51 O44 1.275 . S
C51 O46 1.255 . S
C52 O53 1.258 . S
C52 O54 1.256 . S
O53 Cd45 2.381 . S
O53 C52 1.258 . S
O54 Cd45 2.378 . S
O54 C52 1.256 . S
O55 Cd56 2.300 . S
O55 C62 1.275 . S
Cd56 O55 2.300 . S
Cd56 O64 2.381 . S
Cd56 O65 2.378 . S
O57 Cd58 2.385 . S
O57 C62 1.255 . S
Cd58 O57 2.385 . S
Cd58 O59 2.317 . S
O59 Cd58 2.317 . S
O59 C60 1.232 . S
C60 O59 1.232 . S
C60 O61 1.218 . S
O61 C60 1.218 . S
C62 O55 1.275 . S
C62 O57 1.255 . S
C63 O64 1.258 . S
C63 O65 1.256 . S
O64 Cd56 2.381 . S
O64 C63 1.258 . S
O65 Cd56 2.378 . S
O65 C63 1.256 . S
O66 Cd67 2.300 . S
O66 C73 1.275 . S
Cd67 O66 2.300 . S
Cd67 O75 2.381 . S
Cd67 O76 2.378 . S
O68 Cd69 2.385 . S
O68 C73 1.255 . S
Cd69 O68 2.385 . S
Cd69 O70 2.317 . S
O70 Cd69 2.317 . S
O70 C71 1.232 . S
C71 O70 1.232 . S
C71 O72 1.218 . S
O72 C71 1.218 . S
C73 O66 1.275 . S
C73 O68 1.255 . S
C74 O75 1.258 . S
C74 O76 1.256 . S
O75 Cd67 2.381 . S
O75 C74 1.258 . S
O76 Cd67 2.378 . S
O76 C74 1.256 . S
O77 Cd78 2.300 . S
O77 C84 1.275 . S
Cd78 O77 2.300 . S
Cd78 O86 2.381 . S
Cd78 O87 2.378 . S
O79 Cd80 2.385 . S
O79 C84 1.255 . S
Cd80 O79 2.385 . S
Cd80 O81 2.317 . S
O81 Cd80 2.317 . S
O81 C82 1.232 . S
C82 O81 1.232 . S
C82 O83 1.218 . S
O83 C82 1.218 . S
C84 O77 1.275 . S
C84 O79 1.255 . S
C85 O86 1.258 . S
C85 O87 1.256 . S
O86 Cd78 2.381 . S
O86 C85 1.258 . S
O87 Cd78 2.378 . S
O87 C85 1.256 . S
O88 Cd89 2.300 . S
O88 C95 1.275 . S
Cd89 O88 2.300 . S
Cd89 O97 2.381 . S
Cd89 O98 2.378 . S
O90 Cd91 2.385 . S
O90 C95 1.255 . S
Cd91 O90 2.385 . S
Cd91 O92 2.317 . S
O92 Cd91 2.317 . S
O92 C93 1.232 . S
C93 O92 1.232 . S
C93 O94 1.218 . S
O94 C93 1.218 . S
C95 O88 1.275 . S
C95 O90 1.255 . S
C96 O97 1.258 . S
C96 O98 1.256 . S
O97 Cd89 2.381 . S
O97 C96 1.258 . S
O98 Cd89 2.378 . S
O98 C96 1.256 . S
O99 Cd100 2.300 . S
O99 C106 1.275 . S
Cd100 O99 2.300 . S
Cd100 O108 2.381 . S
Cd100 O109 2.378 . S
O101 Cd102 2.385 . S
O101 C106 1.255 . S
Cd102 O101 2.385 . S
Cd102 O103 2.317 . S
O103 Cd102 2.317 . S
O103 C104 1.232 . S
C104 O103 1.232 . S
C104 O105 1.218 . S
O105 C104 1.218 . S
C106 O99 1.275 . S
C106 O101 1.255 . S
C107 O108 1.258 . S
C107 O109 1.256 . S
O108 Cd100 2.381 . S
O108 C107 1.258 . S
O109 Cd100 2.378 . S
O109 C107 1.256 . S
O110 Cd111 2.300 . S
O110 C117 1.275 . S
Cd111 O110 2.300 . S
Cd111 O119 2.381 . S
Cd111 O120 2.378 . S
O112 Cd113 2.385 . S
O112 C117 1.255 . S
Cd113 O112 2.385 . S
Cd113 O114 2.317 . S
O114 Cd113 2.317 . S
O114 C115 1.232 . S
C115 O114 1.232 . S
C115 O116 1.218 . S
O116 C115 1.218 . S
C117 O110 1.275 . S
C117 O112 1.255 . S
C118 O119 1.258 . S
C118 O120 1.256 . S
O119 Cd111 2.381 . S
O119 C118 1.258 . S
O120 Cd111 2.378 . S
O120 C118 1.256 . S
O121 Cd122 2.300 . S
O121 C128 1.275 . S
Cd122 O121 2.300 . S
Cd122 O130 2.381 . S
Cd122 O131 2.378 . S
O123 Cd124 2.385 . S
O123 C128 1.255 . S
Cd124 O123 2.385 . S
Cd124 O125 2.317 . S
O125 Cd124 2.317 . S
O125 C126 1.232 . S
C126 O125 1.232 . S
C126 O127 1.218 . S
O127 C126 1.218 . S
C128 O121 1.275 . S
C128 O123 1.255 . S
C129 O130 1.258 . S
C129 O131 1.256 . S
O130 Cd122 2.381 . S
O130 C129 1.258 . S
O131 Cd122 2.378 . S
O131 C129 1.256 . S
O132 Cd133 2.300 . S
O132 C139 1.275 . S
Cd133 O132 2.300 . S
Cd133 O141 2.381 . S
Cd133 O142 2.378 . S
O134 Cd135 2.385 . S
O134 C139 1.255 . S
Cd135 O134 2.385 . S
Cd135 O136 2.317 . S
O136 Cd135 2.317 . S
O136 C137 1.232 . S
C137 O136 1.232 . S
C137 O138 1.218 . S
O138 C137 1.218 . S
C139 O132 1.275 . S
C139 O134 1.255 . S
C140 O141 1.258 . S
C140 O142 1.256 . S
O141 Cd133 2.381 . S
O141 C140 1.258 . S
O142 Cd133 2.378 . S
O142 C140 1.256 . S
O143 Cd144 2.300 . S
O143 C150 1.275 . S
Cd144 O143 2.300 . S
Cd144 O152 2.381 . S
Cd144 O153 2.378 . S
O145 Cd146 2.385 . S
O145 C150 1.255 . S
Cd146 O145 2.385 . S
Cd146 O147 2.317 . S
O147 Cd146 2.317 . S
O147 C148 1.232 . S
C148 O147 1.232 . S
C148 O149 1.218 . S
O149 C148 1.218 . S
C150 O143 1.275 . S
C150 O145 1.255 . S
C151 O152 1.258 . S
C151 O153 1.256 . S
O152 Cd144 2.381 . S
O152 C151 1.258 . S
O153 Cd144 2.378 . S
O153 C151 1.256 . S
O154 Cd155 2.300 . S
O154 C161 1.275 . S
Cd155 O154 2.300 . S
Cd155 O163 2.381 . S
Cd155 O164 2.378 . S
O156 Cd157 2.385 . S
O156 C161 1.255 . S
Cd157 O156 2.385 . S
Cd157 O158 2.317 . S
O158 Cd157 2.317 . S
O158 C159 1.232 . S
C159 O158 1.232 . S
C159 O160 1.218 . S
O160 C159 1.218 . S
C161 O154 1.275 . S
C161 O156 1.255 . S
C162 O163 1.258 . S
C162 O164 1.256 . S
O163 Cd155 2.381 . S
O163 C162 1.258 . S
O164 Cd155 2.378 . S
O164 C162 1.256 . S
O165 Cd166 2.300 . S
O165 C172 1.275 . S
Cd166 O165 2.300 . S
Cd166 O174 2.381 . S
Cd166 O175 2.378 . S
O167 Cd168 2.385 . S
O167 C172 1.255 . S
Cd168 O167 2.385 . S
Cd168 O169 2.317 . S
O169 Cd168 2.317 . S
O169 C170 1.232 . S
C170 O169 1.232 . S
C170 O171 1.218 . S
O171 C170 1.218 . S
C172 O165 1.275 . S
C172 O167 1.255 . S
C173 O174 1.258 . S
C173 O175 1.256 . S
O174 Cd166 2.381 . S
O174 C173 1.258 . S
O175 Cd166 2.378 . S
O175 C173 1.256 . S
H176 C184 0.950 1_554 S
H177 C189 0.950 . S
H178 C186 0.950 . S
H179 C188 0.950 . S
H180 C190 0.950 1_556 S
H181 C192 0.950 . S
H182 C194 0.950 . S
H183 C195 0.950 . S
C184 H176 0.950 1_556 S
C184 C185 1.386 . S
C184 C186 1.391 1_556 S
C185 C184 1.386 . S
C185 C189 1.393 . S
C186 H178 0.950 . S
C186 C184 1.391 1_554 S
C186 C187 1.400 1_554 S
C187 C186 1.400 1_556 S
C187 C188 1.398 . S
C187 C193 1.491 1_566 S
C188 H179 0.950 . S
C188 C187 1.398 . S
C188 C189 1.391 . S
C189 H177 0.950 . S
C189 C185 1.393 . S
C189 C188 1.391 . S
C190 H180 0.950 1_554 S
C190 C191 1.386 . S
C190 C192 1.391 1_554 S
C191 C190 1.386 . S
C191 C195 1.393 . S
C192 H181 0.950 . S
C192 C190 1.391 1_556 S
C192 C193 1.400 1_556 S
C193 C187 1.491 1_544 S
C193 C192 1.400 1_554 S
C193 C194 1.398 . S
C194 H182 0.950 . S
C194 C193 1.398 . S
C194 C195 1.391 . S
C195 H183 0.950 . S
C195 C191 1.393 . S
C195 C194 1.391 . S
H196 C204 0.950 . S
H197 C209 0.950 1_556 S
H198 C206 0.950 . S
H199 C208 0.950 . S
H200 C210 0.950 . S
H201 C212 0.950 . S
H202 C214 0.950 . S
H203 C215 0.950 1_554 S
C204 H196 0.950 . S
C204 C205 1.386 . S
C204 C206 1.391 . S
C205 C204 1.386 . S
C205 C209 1.393 . S
C206 H198 0.950 . S
C206 C204 1.391 . S
C206 C207 1.400 . S
C207 C206 1.400 . S
C207 C208 1.398 1_554 S
C207 C213 1.491 1_654 S
C208 H199 0.950 . S
C208 C207 1.398 1_556 S
C208 C209 1.391 1_556 S
C209 H197 0.950 1_554 S
C209 C205 1.393 . S
C209 C208 1.391 1_554 S
C210 H200 0.950 . S
C210 C211 1.386 . S
C210 C212 1.391 . S
C211 C210 1.386 . S
C211 C215 1.393 . S
C212 H201 0.950 . S
C212 C210 1.391 . S
C212 C213 1.400 . S
C213 C207 1.491 1_456 S
C213 C212 1.400 . S
C213 C214 1.398 1_556 S
C214 H202 0.950 . S
C214 C213 1.398 1_554 S
C214 C215 1.391 1_554 S
C215 H203 0.950 1_556 S
C215 C211 1.393 . S
C215 C214 1.391 1_556 S
H216 C224 0.950 . S
H217 C229 0.950 . S
H218 C226 0.950 . S
H219 C228 0.950 . S
H220 C230 0.950 . S
H221 C232 0.950 . S
H222 C234 0.950 . S
H223 C235 0.950 . S
C224 H216 0.950 . S
C224 C225 1.386 . S
C224 C226 1.391 . S
C225 C224 1.386 . S
C225 C229 1.393 . S
C226 H218 0.950 . S
C226 C224 1.391 . S
C226 C227 1.400 . S
C227 C226 1.400 . S
C227 C228 1.398 1_556 S
C227 C233 1.491 1_546 S
C228 H219 0.950 . S
C228 C227 1.398 1_554 S
C228 C229 1.391 1_554 S
C229 H217 0.950 . S
C229 C225 1.393 . S
C229 C228 1.391 1_556 S
C230 H220 0.950 . S
C230 C231 1.386 . S
C230 C232 1.391 . S
C231 C230 1.386 . S
C231 C235 1.393 . S
C232 H221 0.950 . S
C232 C230 1.391 . S
C232 C233 1.400 . S
C233 C227 1.491 1_564 S
C233 C232 1.400 . S
C233 C234 1.398 1_554 S
C234 H222 0.950 . S
C234 C233 1.398 1_556 S
C234 C235 1.391 1_556 S
C235 H223 0.950 . S
C235 C231 1.393 . S
C235 C234 1.391 1_554 S
H236 C244 0.950 . S
H237 C249 0.950 . S
H238 C246 0.950 . S
H239 C248 0.950 . S
H240 C250 0.950 . S
H241 C252 0.950 . S
H242 C254 0.950 . S
H243 C255 0.950 . S
C244 H236 0.950 . S
C244 C245 1.386 . S
C244 C246 1.391 . S
C245 C244 1.386 . S
C245 C249 1.393 . S
C246 H238 0.950 . S
C246 C244 1.391 . S
C246 C247 1.400 . S
C247 C246 1.400 . S
C247 C248 1.398 . S
C247 C253 1.491 1_454 S
C248 H239 0.950 . S
C248 C247 1.398 . S
C248 C249 1.391 . S
C249 H237 0.950 . S
C249 C245 1.393 . S
C249 C248 1.391 . S
C250 H240 0.950 . S
C250 C251 1.386 . S
C250 C252 1.391 . S
C251 C250 1.386 . S
C251 C255 1.393 . S
C252 H241 0.950 . S
C252 C250 1.391 . S
C252 C253 1.400 . S
C253 C247 1.491 1_656 S
C253 C252 1.400 . S
C253 C254 1.398 . S
C254 H242 0.950 . S
C254 C253 1.398 . S
C254 C255 1.391 . S
C255 H243 0.950 . S
C255 C251 1.393 . S
C255 C254 1.391 . S
H256 C264 0.950 . S
H257 C269 0.950 . S
H258 C266 0.950 . S
H259 C268 0.950 . S
H260 C270 0.950 . S
H261 C272 0.950 . S
H262 C274 0.950 . S
H263 C275 0.950 . S
C264 H256 0.950 . S
C264 C265 1.386 . S
C264 C266 1.391 . S
C265 C264 1.386 . S
C265 C269 1.393 . S
C266 H258 0.950 . S
C266 C264 1.391 . S
C266 C267 1.400 . S
C267 C266 1.400 . S
C267 C268 1.398 . S
C267 C273 1.491 . S
C268 H259 0.950 . S
C268 C267 1.398 . S
C268 C269 1.391 . S
C269 H257 0.950 . S
C269 C265 1.393 . S
C269 C268 1.391 . S
C270 H260 0.950 . S
C270 C271 1.386 . S
C270 C272 1.391 . S
C271 C270 1.386 . S
C271 C275 1.393 . S
C272 H261 0.950 . S
C272 C270 1.391 . S
C272 C273 1.400 . S
C273 C267 1.491 . S
C273 C272 1.400 . S
C273 C274 1.398 . S
C274 H262 0.950 . S
C274 C273 1.398 . S
C274 C275 1.391 . S
C275 H263 0.950 . S
C275 C271 1.393 . S
C275 C274 1.391 . S
H276 C284 0.950 . S
H277 C289 0.950 . S
H278 C286 0.950 . S
H279 C288 0.950 . S
H280 C290 0.950 . S
H281 C292 0.950 . S
H282 C294 0.950 . S
H283 C295 0.950 . S
C284 H276 0.950 . S
C284 C285 1.386 . S
C284 C286 1.391 . S
C285 C284 1.386 . S
C285 C289 1.393 . S
C286 H278 0.950 . S
C286 C284 1.391 . S
C286 C287 1.400 . S
C287 C286 1.400 . S
C287 C288 1.398 . S
C287 C293 1.491 . S
C288 H279 0.950 . S
C288 C287 1.398 . S
C288 C289 1.391 . S
C289 H277 0.950 . S
C289 C285 1.393 . S
C289 C288 1.391 . S
C290 H280 0.950 . S
C290 C291 1.386 . S
C290 C292 1.391 . S
C291 C290 1.386 . S
C291 C295 1.393 . S
C292 H281 0.950 . S
C292 C290 1.391 . S
C292 C293 1.400 . S
C293 C287 1.491 . S
C293 C292 1.400 . S
C293 C294 1.398 . S
C294 H282 0.950 . S
C294 C293 1.398 . S
C294 C295 1.391 . S
C295 H283 0.950 . S
C295 C291 1.393 . S
C295 C294 1.391 . S
H296 C304 0.950 . S
H297 C309 0.950 . S
H298 C306 0.950 . S
H299 C308 0.950 . S
H300 C310 0.950 . S
H301 C312 0.950 . S
H302 C314 0.950 . S
H303 C315 0.950 . S
C304 H296 0.950 . S
C304 C305 1.386 . S
C304 C306 1.391 . S
C305 C304 1.386 . S
C305 C309 1.393 . S
C306 H298 0.950 . S
C306 C304 1.391 . S
C306 C307 1.400 . S
C307 C306 1.400 . S
C307 C308 1.398 . S
C307 C313 1.491 . S
C308 H299 0.950 . S
C308 C307 1.398 . S
C308 C309 1.391 . S
C309 H297 0.950 . S
C309 C305 1.393 . S
C309 C308 1.391 . S
C310 H300 0.950 . S
C310 C311 1.386 . S
C310 C312 1.391 . S
C311 C310 1.386 . S
C311 C315 1.393 . S
C312 H301 0.950 . S
C312 C310 1.391 . S
C312 C313 1.400 . S
C313 C307 1.491 . S
C313 C312 1.400 . S
C313 C314 1.398 . S
C314 H302 0.950 . S
C314 C313 1.398 . S
C314 C315 1.391 . S
C315 H303 0.950 . S
C315 C311 1.393 . S
C315 C314 1.391 . S
H316 C324 0.950 . S
H317 C329 0.950 . S
H318 C326 0.950 . S
H319 C328 0.950 . S
H320 C330 0.950 . S
H321 C332 0.950 . S
H322 C334 0.950 . S
H323 C335 0.950 . S
C324 H316 0.950 . S
C324 C325 1.386 . S
C324 C326 1.391 . S
C325 C324 1.386 . S
C325 C329 1.393 . S
C326 H318 0.950 . S
C326 C324 1.391 . S
C326 C327 1.400 . S
C327 C326 1.400 . S
C327 C328 1.398 . S
C327 C333 1.491 . S
C328 H319 0.950 . S
C328 C327 1.398 . S
C328 C329 1.391 . S
C329 H317 0.950 . S
C329 C325 1.393 . S
C329 C328 1.391 . S
C330 H320 0.950 . S
C330 C331 1.386 . S
C330 C332 1.391 . S
C331 C330 1.386 . S
C331 C335 1.393 . S
C332 H321 0.950 . S
C332 C330 1.391 . S
C332 C333 1.400 . S
C333 C327 1.491 . S
C333 C332 1.400 . S
C333 C334 1.398 . S
C334 H322 0.950 . S
C334 C333 1.398 . S
C334 C335 1.391 . S
C335 H323 0.950 . S
C335 C331 1.393 . S
C335 C334 1.391 . S
H336 C344 0.950 . S
H337 C349 0.950 . S
H338 C346 0.950 1_556 S
H339 C348 0.950 . S
H340 C350 0.950 . S
H341 C352 0.950 1_554 S
H342 C354 0.950 . S
H343 C355 0.950 . S
C344 H336 0.950 . S
C344 C345 1.386 . S
C344 C346 1.391 . S
C345 C344 1.386 . S
C345 C349 1.393 . S
C346 H338 0.950 1_554 S
C346 C344 1.391 . S
C346 C347 1.400 . S
C347 C346 1.400 . S
C347 C348 1.398 . S
C347 C353 1.491 1_554 S
C348 H339 0.950 . S
C348 C347 1.398 . S
C348 C349 1.391 . S
C349 H337 0.950 . S
C349 C345 1.393 . S
C349 C348 1.391 . S
C350 H340 0.950 . S
C350 C351 1.386 . S
C350 C352 1.391 . S
C351 C350 1.386 . S
C351 C355 1.393 . S
C352 H341 0.950 1_556 S
C352 C350 1.391 . S
C352 C353 1.400 . S
C353 C347 1.491 1_556 S
C353 C352 1.400 . S
C353 C354 1.398 . S
C354 H342 0.950 . S
C354 C353 1.398 . S
C354 C355 1.391 . S
C355 H343 0.950 . S
C355 C351 1.393 . S
C355 C354 1.391 . S
H356 C364 0.950 1_554 S
H357 C369 0.950 . S
H358 C366 0.950 . S
H359 C368 0.950 . S
H360 C370 0.950 1_556 S
H361 C372 0.950 . S
H362 C374 0.950 . S
H363 C375 0.950 . S
C364 H356 0.950 1_556 S
C364 C365 1.386 . S
C364 C366 1.391 1_556 S
C365 C364 1.386 . S
C365 C369 1.393 . S
C366 H358 0.950 . S
C366 C364 1.391 1_554 S
C366 C367 1.400 1_554 S
C367 C366 1.400 1_556 S
C367 C368 1.398 . S
C367 C373 1.491 1_556 S
C368 H359 0.950 . S
C368 C367 1.398 . S
C368 C369 1.391 . S
C369 H357 0.950 . S
C369 C365 1.393 . S
C369 C368 1.391 . S
C370 H360 0.950 1_554 S
C370 C371 1.386 . S
C370 C372 1.391 1_554 S
C371 C370 1.386 . S
C371 C375 1.393 . S
C372 H361 0.950 . S
C372 C370 1.391 1_556 S
C372 C373 1.400 1_556 S
C373 C367 1.491 1_554 S
C373 C372 1.400 1_554 S
C373 C374 1.398 . S
C374 H362 0.950 . S
C374 C373 1.398 . S
C374 C375 1.391 . S
C375 H363 0.950 . S
C375 C371 1.393 . S
C375 C374 1.391 . S
H376 C384 0.950 1_556 S
H377 C389 0.950 . S
H378 C386 0.950 . S
H379 C388 0.950 . S
H380 C390 0.950 1_554 S
H381 C392 0.950 . S
H382 C394 0.950 . S
H383 C395 0.950 . S
C384 H376 0.950 1_554 S
C384 C385 1.386 . S
C384 C386 1.391 1_554 S
C385 C384 1.386 . S
C385 C389 1.393 . S
C386 H378 0.950 . S
C386 C384 1.391 1_556 S
C386 C387 1.400 1_556 S
C387 C386 1.400 1_554 S
C387 C388 1.398 . S
C387 C393 1.491 1_554 S
C388 H379 0.950 . S
C388 C387 1.398 . S
C388 C389 1.391 . S
C389 H377 0.950 . S
C389 C385 1.393 . S
C389 C388 1.391 . S
C390 H380 0.950 1_556 S
C390 C391 1.386 . S
C390 C392 1.391 1_556 S
C391 C390 1.386 . S
C391 C395 1.393 . S
C392 H381 0.950 . S
C392 C390 1.391 1_554 S
C392 C393 1.400 1_554 S
C393 C387 1.491 1_556 S
C393 C392 1.400 1_556 S
C393 C394 1.398 . S
C394 H382 0.950 . S
C394 C393 1.398 . S
C394 C395 1.391 . S
C395 H383 0.950 . S
C395 C391 1.393 . S
C395 C394 1.391 . S
H396 C404 0.950 1_556 S
H397 C409 0.950 . S
H398 C406 0.950 . S
H399 C408 0.950 . S
H400 C410 0.950 1_554 S
H401 C412 0.950 . S
H402 C414 0.950 . S
H403 C415 0.950 . S
C404 H396 0.950 1_554 S
C404 C405 1.386 . S
C404 C406 1.391 1_554 S
C405 C404 1.386 . S
C405 C409 1.393 . S
C406 H398 0.950 . S
C406 C404 1.391 1_556 S
C406 C407 1.400 1_556 S
C407 C406 1.400 1_554 S
C407 C408 1.398 . S
C407 C413 1.491 1_554 S
C408 H399 0.950 . S
C408 C407 1.398 . S
C408 C409 1.391 . S
C409 H397 0.950 . S
C409 C405 1.393 . S
C409 C408 1.391 . S
C410 H400 0.950 1_556 S
C410 C411 1.386 . S
C410 C412 1.391 1_556 S
C411 C410 1.386 . S
C411 C415 1.393 . S
C412 H401 0.950 . S
C412 C410 1.391 1_554 S
C412 C413 1.400 1_554 S
C413 C407 1.491 1_556 S
C413 C412 1.400 1_556 S
C413 C414 1.398 . S
C414 H402 0.950 . S
C414 C413 1.398 . S
C414 C415 1.391 . S
C415 H403 0.950 . S
C415 C411 1.393 . S
C415 C414 1.391 . S
H416 C424 0.950 . S
H417 C429 0.950 . S
H418 C426 0.950 . S
H419 C428 0.950 . S
H420 C430 0.950 . S
H421 C432 0.950 . S
H422 C434 0.950 . S
H423 C435 0.950 . S
C424 H416 0.950 . S
C424 C425 1.386 . S
C424 C426 1.391 . S
C425 C424 1.386 . S
C425 C429 1.393 . S
C426 H418 0.950 . S
C426 C424 1.391 . S
C426 C427 1.400 . S
C427 C426 1.400 . S
C427 C428 1.398 . S
C427 C433 1.491 . S
C428 H419 0.950 . S
C428 C427 1.398 . S
C428 C429 1.391 . S
C429 H417 0.950 . S
C429 C425 1.393 . S
C429 C428 1.391 . S
C430 H420 0.950 . S
C430 C431 1.386 . S
C430 C432 1.391 . S
C431 C430 1.386 . S
C431 C435 1.393 . S
C432 H421 0.950 . S
C432 C430 1.391 . S
C432 C433 1.400 . S
C433 C427 1.491 . S
C433 C432 1.400 . S
C433 C434 1.398 . S
C434 H422 0.950 . S
C434 C433 1.398 . S
C434 C435 1.391 . S
C435 H423 0.950 . S
C435 C431 1.393 . S
C435 C434 1.391 . S
H436 C444 0.950 . S
H437 C449 0.950 . S
H438 C446 0.950 . S
H439 C448 0.950 . S
H440 C450 0.950 . S
H441 C452 0.950 . S
H442 C454 0.950 . S
H443 C455 0.950 . S
C444 H436 0.950 . S
C444 C445 1.386 . S
C444 C446 1.391 . S
C445 C444 1.386 . S
C445 C449 1.393 . S
C446 H438 0.950 . S
C446 C444 1.391 . S
C446 C447 1.400 . S
C447 C446 1.400 . S
C447 C448 1.398 . S
C447 C453 1.491 . S
C448 H439 0.950 . S
C448 C447 1.398 . S
C448 C449 1.391 . S
C449 H437 0.950 . S
C449 C445 1.393 . S
C449 C448 1.391 . S
C450 H440 0.950 . S
C450 C451 1.386 . S
C450 C452 1.391 . S
C451 C450 1.386 . S
C451 C455 1.393 . S
C452 H441 0.950 . S
C452 C450 1.391 . S
C452 C453 1.400 . S
C453 C447 1.491 . S
C453 C452 1.400 . S
C453 C454 1.398 . S
C454 H442 0.950 . S
C454 C453 1.398 . S
C454 C455 1.391 . S
C455 H443 0.950 . S
C455 C451 1.393 . S
C455 C454 1.391 . S
H456 C464 0.950 . S
H457 C469 0.950 . S
H458 C466 0.950 . S
H459 C468 0.950 . S
H460 C470 0.950 . S
H461 C472 0.950 . S
H462 C474 0.950 . S
H463 C475 0.950 . S
C464 H456 0.950 . S
C464 C465 1.386 . S
C464 C466 1.391 . S
C465 C464 1.386 . S
C465 C469 1.393 . S
C466 H458 0.950 . S
C466 C464 1.391 . S
C466 C467 1.400 . S
C467 C466 1.400 . S
C467 C468 1.398 . S
C467 C473 1.491 . S
C468 H459 0.950 . S
C468 C467 1.398 . S
C468 C469 1.391 . S
C469 H457 0.950 . S
C469 C465 1.393 . S
C469 C468 1.391 . S
C470 H460 0.950 . S
C470 C471 1.386 . S
C470 C472 1.391 . S
C471 C470 1.386 . S
C471 C475 1.393 . S
C472 H461 0.950 . S
C472 C470 1.391 . S
C472 C473 1.400 . S
C473 C467 1.491 . S
C473 C472 1.400 . S
C473 C474 1.398 . S
C474 H462 0.950 . S
C474 C473 1.398 . S
C474 C475 1.391 . S
C475 H463 0.950 . S
C475 C471 1.393 . S
C475 C474 1.391 . S
H476 C484 0.950 . S
H477 C489 0.950 . S
H478 C486 0.950 . S
H479 C488 0.950 . S
H480 C490 0.950 . S
H481 C492 0.950 . S
H482 C494 0.950 . S
H483 C495 0.950 . S
C484 H476 0.950 . S
C484 C485 1.386 . S
C484 C486 1.391 . S
C485 C484 1.386 . S
C485 C489 1.393 . S
C486 H478 0.950 . S
C486 C484 1.391 . S
C486 C487 1.400 . S
C487 C486 1.400 . S
C487 C488 1.398 . S
C487 C493 1.491 . S
C488 H479 0.950 . S
C488 C487 1.398 . S
C488 C489 1.391 . S
C489 H477 0.950 . S
C489 C485 1.393 . S
C489 C488 1.391 . S
C490 H480 0.950 . S
C490 C491 1.386 . S
C490 C492 1.391 . S
C491 C490 1.386 . S
C491 C495 1.393 . S
C492 H481 0.950 . S
C492 C490 1.391 . S
C492 C493 1.400 . S
C493 C487 1.491 . S
C493 C492 1.400 . S
C493 C494 1.398 . S
C494 H482 0.950 . S
C494 C493 1.398 . S
C494 C495 1.391 . S
C495 H483 0.950 . S
C495 C491 1.393 . S
C495 C494 1.391 . S
H496 C504 0.950 . S
H497 C509 0.950 . S
H498 C506 0.950 . S
H499 C508 0.950 . S
H500 C510 0.950 . S
H501 C512 0.950 . S
H502 C514 0.950 . S
H503 C515 0.950 . S
C504 H496 0.950 . S
C504 C505 1.386 . S
C504 C506 1.391 . S
C505 C504 1.386 . S
C505 C509 1.393 . S
C506 H498 0.950 . S
C506 C504 1.391 . S
C506 C507 1.400 . S
C507 C506 1.400 . S
C507 C508 1.398 . S
C507 C513 1.491 . S
C508 H499 0.950 . S
C508 C507 1.398 . S
C508 C509 1.391 . S
C509 H497 0.950 . S
C509 C505 1.393 . S
C509 C508 1.391 . S
C510 H500 0.950 . S
C510 C511 1.386 . S
C510 C512 1.391 . S
C511 C510 1.386 . S
C511 C515 1.393 . S
C512 H501 0.950 . S
C512 C510 1.391 . S
C512 C513 1.400 . S
C513 C507 1.491 . S
C513 C512 1.400 . S
C513 C514 1.398 . S
C514 H502 0.950 . S
C514 C513 1.398 . S
C514 C515 1.391 . S
C515 H503 0.950 . S
C515 C511 1.393 . S
C515 C514 1.391 . S
H516 C524 0.950 . S
H517 C529 0.950 . S
H518 C526 0.950 . S
H519 C528 0.950 . S
H520 C530 0.950 . S
H521 C532 0.950 . S
H522 C534 0.950 . S
H523 C535 0.950 . S
C524 H516 0.950 . S
C524 C525 1.386 . S
C524 C526 1.391 . S
C525 C524 1.386 . S
C525 C529 1.393 . S
C526 H518 0.950 . S
C526 C524 1.391 . S
C526 C527 1.400 . S
C527 C526 1.400 . S
C527 C528 1.398 . S
C527 C533 1.491 . S
C528 H519 0.950 . S
C528 C527 1.398 . S
C528 C529 1.391 . S
C529 H517 0.950 . S
C529 C525 1.393 . S
C529 C528 1.391 . S
C530 H520 0.950 . S
C530 C531 1.386 . S
C530 C532 1.391 . S
C531 C530 1.386 . S
C531 C535 1.393 . S
C532 H521 0.950 . S
C532 C530 1.391 . S
C532 C533 1.400 . S
C533 C527 1.491 . S
C533 C532 1.400 . S
C533 C534 1.398 . S
C534 H522 0.950 . S
C534 C533 1.398 . S
C534 C535 1.391 . S
C535 H523 0.950 . S
C535 C531 1.393 . S
C535 C534 1.391 . S
H536 C544 0.950 . S
H537 C549 0.950 . S
H538 C546 0.950 . S
H539 C548 0.950 . S
H540 C550 0.950 . S
H541 C552 0.950 . S
H542 C554 0.950 . S
H543 C555 0.950 . S
C544 H536 0.950 . S
C544 C545 1.386 . S
C544 C546 1.391 . S
C545 C544 1.386 . S
C545 C549 1.393 . S
C546 H538 0.950 . S
C546 C544 1.391 . S
C546 C547 1.400 . S
C547 C546 1.400 . S
C547 C548 1.398 . S
C547 C553 1.491 . S
C548 H539 0.950 . S
C548 C547 1.398 . S
C548 C549 1.391 . S
C549 H537 0.950 . S
C549 C545 1.393 . S
C549 C548 1.391 . S
C550 H540 0.950 . S
C550 C551 1.386 . S
C550 C552 1.391 . S
C551 C550 1.386 . S
C551 C555 1.393 . S
C552 H541 0.950 . S
C552 C550 1.391 . S
C552 C553 1.400 . S
C553 C547 1.491 . S
C553 C552 1.400 . S
C553 C554 1.398 . S
C554 H542 0.950 . S
C554 C553 1.398 . S
C554 C555 1.391 . S
C555 H543 0.950 . S
C555 C551 1.393 . S
C555 C554 1.391 . S
H556 C564 0.950 . S
H557 C569 0.950 . S
H558 C566 0.950 . S
H559 C568 0.950 . S
H560 C570 0.950 . S
H561 C572 0.950 . S
H562 C574 0.950 . S
H563 C575 0.950 . S
C564 H556 0.950 . S
C564 C565 1.386 . S
C564 C566 1.391 . S
C565 C564 1.386 . S
C565 C569 1.393 . S
C566 H558 0.950 . S
C566 C564 1.391 . S
C566 C567 1.400 . S
C567 C566 1.400 . S
C567 C568 1.398 . S
C567 C573 1.491 . S
C568 H559 0.950 . S
C568 C567 1.398 . S
C568 C569 1.391 . S
C569 H557 0.950 . S
C569 C565 1.393 . S
C569 C568 1.391 . S
C570 H560 0.950 . S
C570 C571 1.386 . S
C570 C572 1.391 . S
C571 C570 1.386 . S
C571 C575 1.393 . S
C572 H561 0.950 . S
C572 C570 1.391 . S
C572 C573 1.400 . S
C573 C567 1.491 . S
C573 C572 1.400 . S
C573 C574 1.398 . S
C574 H562 0.950 . S
C574 C573 1.398 . S
C574 C575 1.391 . S
C575 H563 0.950 . S
C575 C571 1.393 . S
C575 C574 1.391 . S
H576 C584 0.950 . S
H577 C589 0.950 . S
H578 C586 0.950 . S
H579 C588 0.950 . S
H580 C590 0.950 . S
H581 C592 0.950 . S
H582 C594 0.950 . S
H583 C595 0.950 . S
C584 H576 0.950 . S
C584 C585 1.386 . S
C584 C586 1.391 . S
C585 C584 1.386 . S
C585 C589 1.393 . S
C586 H578 0.950 . S
C586 C584 1.391 . S
C586 C587 1.400 . S
C587 C586 1.400 . S
C587 C588 1.398 . S
C587 C593 1.491 . S
C588 H579 0.950 . S
C588 C587 1.398 . S
C588 C589 1.391 . S
C589 H577 0.950 . S
C589 C585 1.393 . S
C589 C588 1.391 . S
C590 H580 0.950 . S
C590 C591 1.386 . S
C590 C592 1.391 . S
C591 C590 1.386 . S
C591 C595 1.393 . S
C592 H581 0.950 . S
C592 C590 1.391 . S
C592 C593 1.400 . S
C593 C587 1.491 . S
C593 C592 1.400 . S
C593 C594 1.398 . S
C594 H582 0.950 . S
C594 C593 1.398 . S
C594 C595 1.391 . S
C595 H583 0.950 . S
C595 C591 1.393 . S
C595 C594 1.391 . S
H596 C604 0.950 . S
H597 C609 0.950 . S
H598 C606 0.950 . S
H599 C608 0.950 . S
H600 C610 0.950 . S
H601 C612 0.950 . S
H602 C614 0.950 . S
H603 C615 0.950 . S
C604 H596 0.950 . S
C604 C605 1.386 . S
C604 C606 1.391 . S
C605 C604 1.386 . S
C605 C609 1.393 . S
C606 H598 0.950 . S
C606 C604 1.391 . S
C606 C607 1.400 . S
C607 C606 1.400 . S
C607 C608 1.398 . S
C607 C613 1.491 . S
C608 H599 0.950 . S
C608 C607 1.398 . S
C608 C609 1.391 . S
C609 H597 0.950 . S
C609 C605 1.393 . S
C609 C608 1.391 . S
C610 H600 0.950 . S
C610 C611 1.386 . S
C610 C612 1.391 . S
C611 C610 1.386 . S
C611 C615 1.393 . S
C612 H601 0.950 . S
C612 C610 1.391 . S
C612 C613 1.400 . S
C613 C607 1.491 . S
C613 C612 1.400 . S
C613 C614 1.398 . S
C614 H602 0.950 . S
C614 C613 1.398 . S
C614 C615 1.391 . S
C615 H603 0.950 . S
C615 C611 1.393 . S
C615 C614 1.391 . S
H616 C624 0.950 . S
H617 C629 0.950 . S
H618 C626 0.950 . S
H619 C628 0.950 . S
H620 C630 0.950 . S
H621 C632 0.950 . S
H622 C634 0.950 . S
H623 C635 0.950 . S
C624 H616 0.950 . S
C624 C625 1.386 . S
C624 C626 1.391 . S
C625 C624 1.386 . S
C625 C629 1.393 . S
C626 H618 0.950 . S
C626 C624 1.391 . S
C626 C627 1.400 . S
C627 C626 1.400 . S
C627 C628 1.398 . S
C627 C633 1.491 . S
C628 H619 0.950 . S
C628 C627 1.398 . S
C628 C629 1.391 . S
C629 H617 0.950 . S
C629 C625 1.393 . S
C629 C628 1.391 . S
C630 H620 0.950 . S
C630 C631 1.386 . S
C630 C632 1.391 . S
C631 C630 1.386 . S
C631 C635 1.393 . S
C632 H621 0.950 . S
C632 C630 1.391 . S
C632 C633 1.400 . S
C633 C627 1.491 . S
C633 C632 1.400 . S
C633 C634 1.398 . S
C634 H622 0.950 . S
C634 C633 1.398 . S
C634 C635 1.391 . S
C635 H623 0.950 . S
C635 C631 1.393 . S
C635 C634 1.391 . S
H636 C644 0.950 . S
H637 C649 0.950 . S
H638 C646 0.950 . S
H639 C648 0.950 . S
H640 C650 0.950 . S
H641 C652 0.950 . S
H642 C654 0.950 . S
H643 C655 0.950 . S
C644 H636 0.950 . S
C644 C645 1.386 . S
C644 C646 1.391 . S
C645 C644 1.386 . S
C645 C649 1.393 . S
C646 H638 0.950 . S
C646 C644 1.391 . S
C646 C647 1.400 . S
C647 C646 1.400 . S
C647 C648 1.398 . S
C647 C653 1.491 . S
C648 H639 0.950 . S
C648 C647 1.398 . S
C648 C649 1.391 . S
C649 H637 0.950 . S
C649 C645 1.393 . S
C649 C648 1.391 . S
C650 H640 0.950 . S
C650 C651 1.386 . S
C650 C652 1.391 . S
C651 C650 1.386 . S
C651 C655 1.393 . S
C652 H641 0.950 . S
C652 C650 1.391 . S
C652 C653 1.400 . S
C653 C647 1.491 . S
C653 C652 1.400 . S
C653 C654 1.398 . S
C654 H642 0.950 . S
C654 C653 1.398 . S
C654 C655 1.391 . S
C655 H643 0.950 . S
C655 C651 1.393 . S
C655 C654 1.391 . S
C185 C52 1.562 . S
C191 C8 1.565 . S
C205 C19 1.551 . S
C211 C63 1.549 . S
C225 C74 1.565 . S
C231 C30 1.562 . S
C245 C41 1.566 . S
C251 C85 1.567 . S
C265 C96 1.551 . S
C271 C140 1.548 . S
C285 C151 1.563 . S
C291 C107 1.565 . S
C305 C162 1.555 . S
C311 C118 1.559 . S
C325 C129 1.549 . S
C331 C173 1.548 . S
C345 C7 1.449 . S
C351 C62 1.451 . S
C365 C73 1.468 . S
C371 C18 1.472 . S
C385 C29 1.457 . S
C391 C84 1.461 . S
C405 C40 1.464 . S
C411 C51 1.468 . S
C425 C95 1.451 . S
C431 C150 1.449 . S
C445 C161 1.479 . S
C451 C106 1.478 . S
C465 C117 1.477 . S
C471 C172 1.474 . S
C485 C139 1.452 . S
C491 C128 1.455 . S
C505 C170 1.332 . S
C511 C5 1.331 . S
C525 C137 1.328 . S
C531 C16 1.324 . S
C545 C27 1.312 . S
C551 C148 1.306 . S
C565 C159 1.296 . S
C571 C38 1.290 . S
C585 C49 1.307 . S
C591 C104 1.313 . S
C605 C115 1.292 . S
C611 C60 1.288 . S
C625 C126 1.282 . S
C631 C71 1.285 . S
C645 C93 1.296 . S
C651 C82 1.291 . S
