# Generated by pormake.
# Topology umu, (4)-cn, num edge types: 1
# Building blocks:
#     Node 0, Type 0, BuildingBlock: QUQFOY_clean_sbu_1, # of connection points: 4
#     Node 1, Type 0, BuildingBlock: QUQFOY_clean_sbu_1, # of connection points: 4
#     Node 2, Type 0, BuildingBlock: QUQFOY_clean_sbu_1, # of connection points: 4
#     Node 3, Type 0, BuildingBlock: QUQFOY_clean_sbu_1, # of connection points: 4
#     Node 4, Type 0, BuildingBlock: QUQFOY_clean_sbu_1, # of connection points: 4
#     Node 5, Type 0, BuildingBlock: QUQFOY_clean_sbu_1, # of connection points: 4
#     Node 6, Type 0, BuildingBlock: QUQFOY_clean_sbu_1, # of connection points: 4
#     Node 7, Type 0, BuildingBlock: QUQFOY_clean_sbu_1, # of connection points: 4
#     Node 8, Type 0, BuildingBlock: QUQFOY_clean_sbu_1, # of connection points: 4
#     Node 9, Type 0, BuildingBlock: QUQFOY_clean_sbu_1, # of connection points: 4
#     Node 10, Type 0, BuildingBlock: QUQFOY_clean_sbu_1, # of connection points: 4
#     Node 11, Type 0, BuildingBlock: QUQFOY_clean_sbu_1, # of connection points: 4
#     Node 12, Type 0, BuildingBlock: QUQFOY_clean_sbu_1, # of connection points: 4
#     Node 13, Type 0, BuildingBlock: QUQFOY_clean_sbu_1, # of connection points: 4
#     Node 14, Type 0, BuildingBlock: QUQFOY_clean_sbu_1, # of connection points: 4
#     Node 15, Type 0, BuildingBlock: QUQFOY_clean_sbu_1, # of connection points: 4
#     Node 16, Type 0, BuildingBlock: QUQFOY_clean_sbu_1, # of connection points: 4
#     Node 17, Type 0, BuildingBlock: QUQFOY_clean_sbu_1, # of connection points: 4
#     Node 18, Type 0, BuildingBlock: QUQFOY_clean_sbu_1, # of connection points: 4
#     Node 19, Type 0, BuildingBlock: QUQFOY_clean_sbu_1, # of connection points: 4
#     Node 20, Type 0, BuildingBlock: QUQFOY_clean_sbu_1, # of connection points: 4
#     Node 21, Type 0, BuildingBlock: QUQFOY_clean_sbu_1, # of connection points: 4
#     Node 22, Type 0, BuildingBlock: QUQFOY_clean_sbu_1, # of connection points: 4
#     Node 23, Type 0, BuildingBlock: QUQFOY_clean_sbu_1, # of connection points: 4
#     Node 24, Type 0, BuildingBlock: QUQFOY_clean_sbu_1, # of connection points: 4
#     Node 25, Type 0, BuildingBlock: QUQFOY_clean_sbu_1, # of connection points: 4
#     Node 26, Type 0, BuildingBlock: QUQFOY_clean_sbu_1, # of connection points: 4
#     Node 27, Type 0, BuildingBlock: QUQFOY_clean_sbu_1, # of connection points: 4
#     Node 28, Type 0, BuildingBlock: QUQFOY_clean_sbu_1, # of connection points: 4
#     Node 29, Type 0, BuildingBlock: QUQFOY_clean_sbu_1, # of connection points: 4
#     Node 30, Type 0, BuildingBlock: QUQFOY_clean_sbu_1, # of connection points: 4
#     Node 31, Type 0, BuildingBlock: QUQFOY_clean_sbu_1, # of connection points: 4
#     Edge 32, Type (0, 0), BuildingBlock: XIVTED_clean_linker_0, # of connection points: 2
#     Edge 33, Type (0, 0), BuildingBlock: XIVTED_clean_linker_0, # of connection points: 2
#     Edge 34, Type (0, 0), BuildingBlock: XIVTED_clean_linker_0, # of connection points: 2
#     Edge 35, Type (0, 0), BuildingBlock: XIVTED_clean_linker_0, # of connection points: 2
#     Edge 36, Type (0, 0), BuildingBlock: XIVTED_clean_linker_0, # of connection points: 2
#     Edge 37, Type (0, 0), BuildingBlock: XIVTED_clean_linker_0, # of connection points: 2
#     Edge 38, Type (0, 0), BuildingBlock: XIVTED_clean_linker_0, # of connection points: 2
#     Edge 39, Type (0, 0), BuildingBlock: XIVTED_clean_linker_0, # of connection points: 2
#     Edge 40, Type (0, 0), BuildingBlock: XIVTED_clean_linker_0, # of connection points: 2
#     Edge 41, Type (0, 0), BuildingBlock: XIVTED_clean_linker_0, # of connection points: 2
#     Edge 42, Type (0, 0), BuildingBlock: XIVTED_clean_linker_0, # of connection points: 2
#     Edge 43, Type (0, 0), BuildingBlock: XIVTED_clean_linker_0, # of connection points: 2
#     Edge 44, Type (0, 0), BuildingBlock: XIVTED_clean_linker_0, # of connection points: 2
#     Edge 45, Type (0, 0), BuildingBlock: XIVTED_clean_linker_0, # of connection points: 2
#     Edge 46, Type (0, 0), BuildingBlock: XIVTED_clean_linker_0, # of connection points: 2
#     Edge 47, Type (0, 0), BuildingBlock: XIVTED_clean_linker_0, # of connection points: 2
#     Edge 48, Type (0, 0), BuildingBlock: XIVTED_clean_linker_0, # of connection points: 2
#     Edge 49, Type (0, 0), BuildingBlock: XIVTED_clean_linker_0, # of connection points: 2
#     Edge 50, Type (0, 0), BuildingBlock: XIVTED_clean_linker_0, # of connection points: 2
#     Edge 51, Type (0, 0), BuildingBlock: XIVTED_clean_linker_0, # of connection points: 2
#     Edge 52, Type (0, 0), BuildingBlock: XIVTED_clean_linker_0, # of connection points: 2
#     Edge 53, Type (0, 0), BuildingBlock: XIVTED_clean_linker_0, # of connection points: 2
#     Edge 54, Type (0, 0), BuildingBlock: XIVTED_clean_linker_0, # of connection points: 2
#     Edge 55, Type (0, 0), BuildingBlock: XIVTED_clean_linker_0, # of connection points: 2
#     Edge 56, Type (0, 0), BuildingBlock: XIVTED_clean_linker_0, # of connection points: 2
#     Edge 57, Type (0, 0), BuildingBlock: XIVTED_clean_linker_0, # of connection points: 2
#     Edge 58, Type (0, 0), BuildingBlock: XIVTED_clean_linker_0, # of connection points: 2
#     Edge 59, Type (0, 0), BuildingBlock: XIVTED_clean_linker_0, # of connection points: 2
#     Edge 60, Type (0, 0), BuildingBlock: XIVTED_clean_linker_0, # of connection points: 2
#     Edge 61, Type (0, 0), BuildingBlock: XIVTED_clean_linker_0, # of connection points: 2
#     Edge 62, Type (0, 0), BuildingBlock: XIVTED_clean_linker_0, # of connection points: 2
#     Edge 63, Type (0, 0), BuildingBlock: XIVTED_clean_linker_0, # of connection points: 2
#     Edge 64, Type (0, 0), BuildingBlock: XIVTED_clean_linker_0, # of connection points: 2
#     Edge 65, Type (0, 0), BuildingBlock: XIVTED_clean_linker_0, # of connection points: 2
#     Edge 66, Type (0, 0), BuildingBlock: XIVTED_clean_linker_0, # of connection points: 2
#     Edge 67, Type (0, 0), BuildingBlock: XIVTED_clean_linker_0, # of connection points: 2
#     Edge 68, Type (0, 0), BuildingBlock: XIVTED_clean_linker_0, # of connection points: 2
#     Edge 69, Type (0, 0), BuildingBlock: XIVTED_clean_linker_0, # of connection points: 2
#     Edge 70, Type (0, 0), BuildingBlock: XIVTED_clean_linker_0, # of connection points: 2
#     Edge 71, Type (0, 0), BuildingBlock: XIVTED_clean_linker_0, # of connection points: 2
#     Edge 72, Type (0, 0), BuildingBlock: XIVTED_clean_linker_0, # of connection points: 2
#     Edge 73, Type (0, 0), BuildingBlock: XIVTED_clean_linker_0, # of connection points: 2
#     Edge 74, Type (0, 0), BuildingBlock: XIVTED_clean_linker_0, # of connection points: 2
#     Edge 75, Type (0, 0), BuildingBlock: XIVTED_clean_linker_0, # of connection points: 2
#     Edge 76, Type (0, 0), BuildingBlock: XIVTED_clean_linker_0, # of connection points: 2
#     Edge 77, Type (0, 0), BuildingBlock: XIVTED_clean_linker_0, # of connection points: 2
#     Edge 78, Type (0, 0), BuildingBlock: XIVTED_clean_linker_0, # of connection points: 2
#     Edge 79, Type (0, 0), BuildingBlock: XIVTED_clean_linker_0, # of connection points: 2
#     Edge 80, Type (0, 0), BuildingBlock: XIVTED_clean_linker_0, # of connection points: 2
#     Edge 81, Type (0, 0), BuildingBlock: XIVTED_clean_linker_0, # of connection points: 2
#     Edge 82, Type (0, 0), BuildingBlock: XIVTED_clean_linker_0, # of connection points: 2
#     Edge 83, Type (0, 0), BuildingBlock: XIVTED_clean_linker_0, # of connection points: 2
#     Edge 84, Type (0, 0), BuildingBlock: XIVTED_clean_linker_0, # of connection points: 2
#     Edge 85, Type (0, 0), BuildingBlock: XIVTED_clean_linker_0, # of connection points: 2
#     Edge 86, Type (0, 0), BuildingBlock: XIVTED_clean_linker_0, # of connection points: 2
#     Edge 87, Type (0, 0), BuildingBlock: XIVTED_clean_linker_0, # of connection points: 2
#     Edge 88, Type (0, 0), BuildingBlock: XIVTED_clean_linker_0, # of connection points: 2
#     Edge 89, Type (0, 0), BuildingBlock: XIVTED_clean_linker_0, # of connection points: 2
#     Edge 90, Type (0, 0), BuildingBlock: XIVTED_clean_linker_0, # of connection points: 2
#     Edge 91, Type (0, 0), BuildingBlock: XIVTED_clean_linker_0, # of connection points: 2
#     Edge 92, Type (0, 0), BuildingBlock: XIVTED_clean_linker_0, # of connection points: 2
#     Edge 93, Type (0, 0), BuildingBlock: XIVTED_clean_linker_0, # of connection points: 2
#     Edge 94, Type (0, 0), BuildingBlock: XIVTED_clean_linker_0, # of connection points: 2
#     Edge 95, Type (0, 0), BuildingBlock: XIVTED_clean_linker_0, # of connection points: 2
# Relax obj value: 0.032
# Max RMSD: 0.063
# Mean RMSD: 0.063
data_MOF--net-umu--node1-QUQFOY_clean_sbu_1--edge1-XIVTED_clean_linker_0
_symmetry_space_group_name_H-M    P1
_symmetry_Int_Tables_number       1
_symmetry_cell_setting            triclinic
loop_
_symmetry_equiv_pos_as_xyz
'x, y, z'
_cell_length_a     86.2391
_cell_length_b     86.246375
_cell_length_c     28.341315
_cell_angle_alpha  90.002621
_cell_angle_beta   90.011568
_cell_angle_gamma 89.908399
loop_
_atom_site_label
_atom_site_type_symbol
_atom_site_fract_x
_atom_site_fract_y
_atom_site_fract_z
_atom_type_partial_charge
O0 O 0.20912 0.16385 1.00141 0.0
Cd1 Cd 0.1951 0.16569 0.0595 0.0
Cd2 Cd 0.22389 0.16397 0.1021 0.0
O3 O 0.23059 0.15595 0.03618 0.0
O4 O 0.17428 0.16386 0.02991 0.0
O5 O 0.18407 0.14599 0.07732 0.0
C6 C 0.1732 0.15035 0.04889 0.0
C7 C 0.23221 0.1523 0.17213 0.0
C8 C 0.22277 0.1584 0.99884 0.0
C9 C 0.20613 0.19406 0.10781 0.0
O10 O 0.21927 0.18738 0.10943 0.0
O11 O 0.19423 0.18671 0.09378 0.0
O12 O 0.24161 0.16006 0.14582 0.0
O13 O 0.21817 0.1504 0.15729 0.0
O14 O 0.09125 0.96626 0.26807 0.0
Cd15 Cd 0.08549 0.95028 0.31864 0.0
Cd16 Cd 0.08581 0.97985 0.36993 0.0
O17 O 0.09401 0.98835 0.30646 0.0
O18 O 0.08529 0.93181 0.27648 0.0
O19 O 0.10173 0.93425 0.3356 0.0
C20 C 0.09707 0.92656 0.29918 0.0
C21 C 0.09658 0.98809 0.44147 0.0
C22 C 0.09465 0.98056 0.26844 0.0
C23 C 0.05579 0.96151 0.36362 0.0
O24 O 0.0626 0.97417 0.37357 0.0
O25 O 0.06318 0.95033 0.34485 0.0
O26 O 0.08826 0.99722 0.41582 0.0
O27 O 0.09933 0.97431 0.42561 0.0
O28 O 0.28778 0.8431 0.50113 0.0
Cd29 Cd 0.30322 0.83748 0.55344 0.0
Cd30 Cd 0.27391 0.83923 0.60299 0.0
O31 O 0.26602 0.84799 0.53923 0.0
O32 O 0.32234 0.83745 0.51417 0.0
O33 O 0.31862 0.85394 0.57265 0.0
C34 C 0.32697 0.84936 0.53747 0.0
C35 C 0.2664 0.8502 0.67503 0.0
C36 C 0.27378 0.84763 0.5011 0.0
C37 C 0.29119 0.80848 0.59891 0.0
O38 O 0.27865 0.81577 0.60717 0.0
O39 O 0.30278 0.81537 0.58088 0.0
O40 O 0.25681 0.8424 0.64951 0.0
O41 O 0.28018 0.85247 0.65847 0.0
O42 O 0.40645 0.04182 0.75484 0.0
Cd43 Cd 0.41203 0.05675 0.80852 0.0
Cd44 Cd 0.40986 0.027 0.85542 0.0
O45 O 0.40102 0.01987 0.79106 0.0
O46 O 0.41275 0.07604 0.77012 0.0
O47 O 0.39568 0.07243 0.82704 0.0
C48 C 0.4007 0.08081 0.79252 0.0
C49 C 0.39871 0.01909 0.92667 0.0
C50 C 0.40165 0.02794 0.75359 0.0
C51 C 0.44074 0.04382 0.85392 0.0
O52 O 0.43339 0.03122 0.86012 0.0
O53 O 0.43394 0.05573 0.83739 0.0
O54 O 0.40623 0.00953 0.9002 0.0
O55 O 0.39684 0.03311 0.91156 0.0
O56 O 0.21113 0.84643 0.1838 0.0
Cd57 Cd 0.19503 0.84075 0.13348 0.0
Cd58 Cd 0.22491 0.84084 0.08163 0.0
O59 O 0.23315 0.84936 0.14521 0.0
O60 O 0.17665 0.8406 0.17601 0.0
O61 O 0.17899 0.85704 0.11688 0.0
C62 C 0.17137 0.85239 0.15342 0.0
C63 C 0.2343 0.85072 0.01003 0.0
C64 C 0.2254 0.84995 0.18332 0.0
C65 C 0.20608 0.81101 0.08857 0.0
O66 O 0.21881 0.8177 0.07874 0.0
O67 O 0.19492 0.81848 0.10717 0.0
O68 O 0.24286 0.84239 0.03737 0.0
O69 O 0.22044 0.85402 0.02417 0.0
O70 O 0.40461 0.96593 0.43533 0.0
Cd71 Cd 0.41099 0.95039 0.38412 0.0
Cd72 Cd 0.40994 0.98025 0.33415 0.0
O73 O 0.40122 0.98811 0.39789 0.0
O74 O 0.41158 0.93168 0.42514 0.0
O75 O 0.39527 0.9341 0.36563 0.0
C76 C 0.40004 0.92628 0.40168 0.0
C77 C 0.39917 0.98844 0.26254 0.0
C78 C 0.40071 0.98012 0.43553 0.0
C79 C 0.4404 0.96251 0.33973 0.0
O80 O 0.43331 0.97509 0.33042 0.0
O81 O 0.43329 0.9511 0.35808 0.0
O82 O 0.40709 0.99771 0.28875 0.0
O83 O 0.39675 0.97454 0.27795 0.0
O84 O 0.28545 0.15966 0.68031 0.0
Cd85 Cd 0.30138 0.16528 0.62939 0.0
Cd86 Cd 0.27165 0.16458 0.57831 0.0
O87 O 0.26334 0.15655 0.64226 0.0
O88 O 0.31984 0.16587 0.67153 0.0
O89 O 0.31757 0.14913 0.61313 0.0
C90 C 0.32523 0.15406 0.64927 0.0
C91 C 0.26338 0.15356 0.50714 0.0
C92 C 0.27118 0.15614 0.68023 0.0
C93 C 0.28996 0.19464 0.58277 0.0
O94 O 0.27726 0.18779 0.57362 0.0
O95 O 0.3012 0.18738 0.60169 0.0
O96 O 0.25423 0.16188 0.5327 0.0
O97 O 0.27719 0.15091 0.52294 0.0
O98 O 0.08529 0.0419 0.94679 0.0
Cd99 Cd 0.08334 0.0556 0.88802 0.0
Cd100 Cd 0.08552 0.02693 0.84669 0.0
O101 O 0.09387 0.02063 0.91254 0.0
O102 O 0.08513 0.07662 0.91626 0.0
O103 O 0.10305 0.06649 0.8696 0.0
C104 C 0.09866 0.07755 0.89736 0.0
C105 C 0.09734 0.01892 0.77665 0.0
C106 C 0.09117 0.02844 0.94971 0.0
C107 C 0.0551 0.04398 0.8407 0.0
O108 O 0.06198 0.03093 0.8398 0.0
O109 O 0.06231 0.05608 0.85376 0.0
O110 O 0.08988 0.00931 0.80306 0.0
O111 O 0.09885 0.03303 0.79139 0.0
O112 O 0.78591 0.84434 0.19103 0.0
Cd113 Cd 0.80141 0.83879 0.13882 0.0
Cd114 Cd 0.77184 0.84007 0.08915 0.0
O115 O 0.76397 0.84859 0.15312 0.0
O116 O 0.82039 0.83853 0.17872 0.0
O117 O 0.81703 0.85517 0.12045 0.0
C118 C 0.82523 0.85042 0.15575 0.0
C119 C 0.76356 0.85103 0.01792 0.0
C120 C 0.7718 0.84851 0.19113 0.0
C121 C 0.78966 0.80965 0.09281 0.0
O122 O 0.77699 0.8167 0.08453 0.0
O123 O 0.80111 0.81673 0.11102 0.0
O124 O 0.75432 0.84304 0.04405 0.0
O125 O 0.77747 0.85342 0.03324 0.0
O126 O 0.90477 0.04066 0.93806 0.0
Cd127 Cd 0.91053 0.05642 0.88678 0.0
Cd128 Cd 0.9092 0.02672 0.83629 0.0
O129 O 0.9006 0.01875 0.89999 0.0
O130 O 0.91146 0.07496 0.92853 0.0
O131 O 0.89446 0.07273 0.87078 0.0
C132 C 0.89958 0.08039 0.90668 0.0
C133 C 0.89828 0.01883 0.76463 0.0
C134 C 0.90061 0.02657 0.93802 0.0
C135 C 0.93963 0.04441 0.8404 0.0
O136 O 0.93258 0.03175 0.83219 0.0
O137 O 0.93254 0.0559 0.85847 0.0
O138 O 0.90622 0.00942 0.79044 0.0
O139 O 0.89592 0.03268 0.78053 0.0
O140 O 0.70951 0.16389 0.69698 0.0
Cd141 Cd 0.69559 0.1656 0.6386 0.0
Cd142 Cd 0.72435 0.16408 0.59654 0.0
O143 O 0.73103 0.15607 0.66247 0.0
O144 O 0.67474 0.16365 0.66786 0.0
O145 O 0.68474 0.14581 0.62073 0.0
C146 C 0.6738 0.15012 0.64897 0.0
C147 C 0.73262 0.15229 0.52668 0.0
C148 C 0.72317 0.15848 0.69971 0.0
C149 C 0.70645 0.19404 0.59044 0.0
O150 O 0.71966 0.18747 0.58912 0.0
O151 O 0.69459 0.18659 0.60421 0.0
O152 O 0.74203 0.16011 0.55279 0.0
O153 O 0.71858 0.15043 0.54161 0.0
O154 O 0.59211 0.96575 0.43141 0.0
Cd155 Cd 0.58574 0.9496 0.38198 0.0
Cd156 Cd 0.58637 0.97925 0.32934 0.0
O157 O 0.59477 0.98776 0.39255 0.0
O158 O 0.58503 0.93149 0.4255 0.0
O159 O 0.60141 0.9329 0.36595 0.0
C160 C 0.59657 0.92565 0.40296 0.0
C161 C 0.59706 0.98741 0.2576 0.0
C162 C 0.5956 0.98002 0.43062 0.0
C163 C 0.55615 0.96124 0.33674 0.0
O164 O 0.56312 0.97374 0.32603 0.0
O165 O 0.56338 0.95006 0.35611 0.0
O166 O 0.58884 0.99659 0.28335 0.0
O167 O 0.59976 0.97361 0.27344 0.0
O168 O 0.78539 0.15992 0.01863 0.0
Cd169 Cd 0.80125 0.16567 0.06962 0.0
Cd170 Cd 0.77158 0.16431 0.12072 0.0
O171 O 0.76338 0.15624 0.05669 0.0
O172 O 0.8197 0.16659 0.02755 0.0
O173 O 0.8176 0.14964 0.08544 0.0
C174 C 0.82519 0.15474 0.04938 0.0
C175 C 0.76346 0.15311 0.19174 0.0
C176 C 0.7712 0.15609 0.01869 0.0
C177 C 0.78934 0.19473 0.11677 0.0
O178 O 0.77679 0.18761 0.12579 0.0
O179 O 0.80072 0.18773 0.09772 0.0
O180 O 0.75419 0.1613 0.1662 0.0
O181 O 0.77731 0.15068 0.17598 0.0
O182 O 0.58664 0.0413 0.75213 0.0
Cd183 Cd 0.58469 0.05495 0.81104 0.0
Cd184 Cd 0.58645 0.02619 0.85178 0.0
O185 O 0.59504 0.01993 0.78621 0.0
O186 O 0.58637 0.07595 0.78264 0.0
O187 O 0.60436 0.06595 0.82931 0.0
C188 C 0.5999 0.07696 0.8015 0.0
C189 C 0.59803 0.01818 0.92218 0.0
C190 C 0.59246 0.02782 0.74911 0.0
C191 C 0.5562 0.04348 0.85725 0.0
O192 O 0.56291 0.03033 0.85771 0.0
O193 O 0.56363 0.05554 0.8451 0.0
O194 O 0.59062 0.00858 0.89559 0.0
O195 O 0.59961 0.03228 0.90746 0.0
O196 O 0.70985 0.84432 0.50954 0.0
Cd197 Cd 0.69426 0.83876 0.56144 0.0
Cd198 Cd 0.72385 0.8405 0.6116 0.0
O199 O 0.73165 0.84905 0.54763 0.0
O200 O 0.67544 0.83806 0.52083 0.0
O201 O 0.6783 0.85505 0.57836 0.0
C202 C 0.67034 0.85004 0.54293 0.0
C203 C 0.73211 0.85144 0.68289 0.0
C204 C 0.72388 0.84872 0.50952 0.0
C205 C 0.70644 0.80987 0.60822 0.0
O206 O 0.71901 0.8171 0.61621 0.0
O207 O 0.69485 0.81679 0.59004 0.0
O208 O 0.7414 0.84354 0.65658 0.0
O209 O 0.71817 0.85376 0.6677 0.0
O210 O 0.90542 0.96499 0.25703 0.0
Cd211 Cd 0.91119 0.9496 0.30932 0.0
Cd212 Cd 0.90946 0.9791 0.35875 0.0
O213 O 0.90081 0.98688 0.29479 0.0
O214 O 0.91167 0.9306 0.26957 0.0
O215 O 0.895 0.93381 0.32784 0.0
C216 C 0.89983 0.92565 0.29257 0.0
C217 C 0.89832 0.98688 0.43023 0.0
C218 C 0.90103 0.97903 0.25682 0.0
C219 C 0.94016 0.96179 0.35523 0.0
O220 O 0.93291 0.97436 0.36342 0.0
O221 O 0.93325 0.95023 0.33707 0.0
O222 O 0.90612 0.99639 0.40445 0.0
O223 O 0.8962 0.973 0.41437 0.0
O224 O 0.70897 0.66411 0.50169 0.0
Cd225 Cd 0.69516 0.66599 0.56027 0.0
Cd226 Cd 0.72387 0.66433 0.60182 0.0
O227 O 0.73044 0.65608 0.53607 0.0
O228 O 0.67422 0.66419 0.53145 0.0
O229 O 0.68421 0.64628 0.57838 0.0
C230 C 0.67322 0.65067 0.55039 0.0
C231 C 0.73165 0.6525 0.67211 0.0
C232 C 0.72256 0.65854 0.49887 0.0
C233 C 0.70635 0.69446 0.6075 0.0
O234 O 0.71951 0.6878 0.60858 0.0
O235 O 0.69438 0.68704 0.59438 0.0
O236 O 0.74131 0.6601 0.64627 0.0
O237 O 0.71764 0.65086 0.65667 0.0
O238 O 0.5917 0.46508 0.767 0.0
Cd239 Cd 0.58617 0.4487 0.8167 0.0
Cd240 Cd 0.58678 0.47813 0.8699 0.0
O241 O 0.59468 0.48693 0.80645 0.0
O242 O 0.58562 0.43057 0.77318 0.0
O243 O 0.6024 0.43243 0.83161 0.0
C244 C 0.59748 0.42505 0.79494 0.0
C245 C 0.59774 0.4862 0.94139 0.0
C246 C 0.59512 0.47937 0.76799 0.0
C247 C 0.55678 0.45968 0.8642 0.0
O248 O 0.56362 0.4723 0.87435 0.0
O249 O 0.56404 0.44862 0.84438 0.0
O250 O 0.58927 0.49536 0.91632 0.0
O251 O 0.60055 0.4725 0.92495 0.0
O252 O 0.78624 0.33994 1.00283 0.0
Cd253 Cd 0.80043 0.33829 0.06064 0.0
Cd254 Cd 0.77191 0.34014 0.10399 0.0
O255 O 0.76503 0.34816 0.03831 0.0
O256 O 0.8212 0.33998 0.03066 0.0
O257 O 0.81149 0.35806 0.07752 0.0
C258 C 0.82232 0.35356 0.04915 0.0
C259 C 0.76399 0.35204 0.17404 0.0
C260 C 0.77264 0.34554 1.0007 0.0
C261 C 0.78956 0.31005 0.10982 0.0
O262 O 0.77641 0.31672 0.11141 0.0
O263 O 0.80142 0.31741 0.0956 0.0
O264 O 0.75443 0.34427 0.14832 0.0
O265 O 0.77799 0.3538 0.1586 0.0
O266 O 0.90479 0.53915 0.26232 0.0
Cd267 Cd 0.91051 0.55533 0.31236 0.0
Cd268 Cd 0.90985 0.52597 0.36515 0.0
O269 O 0.90166 0.51733 0.30182 0.0
O270 O 0.91066 0.5737 0.26981 0.0
O271 O 0.89425 0.57135 0.32905 0.0
C272 C 0.89888 0.57898 0.29249 0.0
C273 C 0.89914 0.51761 0.43667 0.0
C274 C 0.90121 0.52489 0.26337 0.0
C275 C 0.94 0.54419 0.35855 0.0
O276 O 0.93307 0.53165 0.36902 0.0
O277 O 0.93277 0.55531 0.33891 0.0
O278 O 0.90749 0.50855 0.41092 0.0
O279 O 0.89633 0.5314 0.42096 0.0
O280 O 0.71095 0.34388 0.68161 0.0
Cd281 Cd 0.69487 0.33845 0.63092 0.0
Cd282 Cd 0.72417 0.33976 0.57878 0.0
O283 O 0.73273 0.34771 0.6425 0.0
O284 O 0.67641 0.33796 0.67306 0.0
O285 O 0.67887 0.35484 0.61512 0.0
C286 C 0.67119 0.34993 0.65122 0.0
C287 C 0.73204 0.35104 0.5076 0.0
C288 C 0.72514 0.34772 0.68093 0.0
C289 C 0.70633 0.30938 0.58319 0.0
O290 O 0.71886 0.31649 0.5737 0.0
O291 O 0.69505 0.3164 0.60274 0.0
O292 O 0.74137 0.34274 0.5326 0.0
O293 O 0.71828 0.35352 0.52399 0.0
O294 O 0.90909 0.46322 0.94287 0.0
Cd295 Cd 0.91103 0.44902 0.88517 0.0
Cd296 Cd 0.90981 0.47763 0.84177 0.0
O297 O 0.90142 0.48455 0.90698 0.0
O298 O 0.90898 0.4283 0.91525 0.0
O299 O 0.89133 0.43805 0.86699 0.0
C300 C 0.89554 0.42724 0.89582 0.0
C301 C 0.89844 0.48596 0.77131 0.0
C302 C 0.90367 0.47688 0.94471 0.0
C303 C 0.93977 0.45963 0.83812 0.0
O304 O 0.93324 0.47284 0.83592 0.0
O305 O 0.93219 0.44784 0.85183 0.0
O306 O 0.90622 0.49531 0.79773 0.0
O307 O 0.89642 0.47193 0.78612 0.0
O308 O 0.78464 0.65882 0.18001 0.0
Cd309 Cd 0.80049 0.66458 0.12905 0.0
Cd310 Cd 0.77098 0.66383 0.07815 0.0
O311 O 0.76257 0.65565 0.14181 0.0
O312 O 0.81908 0.66489 0.17068 0.0
O313 O 0.81652 0.64837 0.11179 0.0
C314 C 0.8243 0.6531 0.14794 0.0
C315 C 0.76317 0.65281 0.00652 0.0
C316 C 0.77038 0.65523 0.17982 0.0
C317 C 0.78894 0.69407 0.08374 0.0
O318 O 0.77635 0.6871 0.07406 0.0
O319 O 0.80023 0.68684 0.10254 0.0
O320 O 0.7538 0.66099 0.03177 0.0
O321 O 0.77693 0.65029 0.02293 0.0
O322 O 0.58631 0.54055 0.44637 0.0
Cd323 Cd 0.58461 0.55466 0.38841 0.0
Cd324 Cd 0.5866 0.52621 0.34521 0.0
O325 O 0.59472 0.51942 0.41092 0.0
O326 O 0.58656 0.57547 0.41793 0.0
O327 O 0.6044 0.56551 0.3707 0.0
C328 C 0.60009 0.57644 0.39903 0.0
C329 C 0.59849 0.51836 0.27508 0.0
C330 C 0.59203 0.52701 0.44853 0.0
C331 C 0.55641 0.54369 0.33939 0.0
O332 O 0.56315 0.53058 0.33782 0.0
O333 O 0.56369 0.5556 0.3536 0.0
O334 O 0.59081 0.50875 0.30087 0.0
O335 O 0.60018 0.53237 0.2905 0.0
O336 O 0.28787 0.33974 0.69711 0.0
Cd337 Cd 0.30175 0.33797 0.63865 0.0
Cd338 Cd 0.27332 0.34044 0.59624 0.0
O339 O 0.26684 0.3486 0.66213 0.0
O340 O 0.32272 0.33994 0.66706 0.0
O341 O 0.31248 0.35774 0.62019 0.0
C342 C 0.32356 0.35346 0.648 0.0
C343 C 0.26528 0.3524 0.52646 0.0
C344 C 0.27444 0.34571 0.69957 0.0
C345 C 0.2903 0.30998 0.58978 0.0
O346 O 0.27729 0.31693 0.58857 0.0
O347 O 0.30236 0.31706 0.60377 0.0
O348 O 0.2557 0.34487 0.55273 0.0
O349 O 0.27939 0.35391 0.54121 0.0
O350 O 0.40655 0.53795 0.42881 0.0
Cd351 Cd 0.41193 0.554 0.37801 0.0
Cd352 Cd 0.41084 0.52466 0.32613 0.0
O353 O 0.40293 0.5161 0.38988 0.0
O354 O 0.41239 0.57247 0.42009 0.0
O355 O 0.39552 0.56996 0.36208 0.0
C356 C 0.40042 0.57768 0.39814 0.0
C357 C 0.39957 0.51677 0.25497 0.0
C358 C 0.40284 0.52373 0.42823 0.0
C359 C 0.4411 0.54268 0.33048 0.0
O360 O 0.43409 0.53009 0.32105 0.0
O361 O 0.43399 0.55391 0.34992 0.0
O362 O 0.40791 0.50746 0.27992 0.0
O363 O 0.39704 0.53052 0.27141 0.0
O364 O 0.20882 0.66083 0.193 0.0
Cd365 Cd 0.19349 0.66633 0.14031 0.0
Cd366 Cd 0.22289 0.66465 0.09112 0.0
O367 O 0.23059 0.65585 0.15508 0.0
O368 O 0.17427 0.66629 0.17914 0.0
O369 O 0.17823 0.64975 0.12093 0.0
C370 C 0.16978 0.65431 0.1559 0.0
C371 C 0.23081 0.65373 0.01938 0.0
C372 C 0.2228 0.65627 0.19315 0.0
C373 C 0.20551 0.69535 0.0949 0.0
O374 O 0.2181 0.6881 0.0869 0.0
O375 O 0.19391 0.68841 0.1127 0.0
O376 O 0.24027 0.66146 0.04554 0.0
O377 O 0.21691 0.65154 0.03501 0.0
O378 O 0.08893 0.46128 0.94268 0.0
Cd379 Cd 0.0838 0.44601 0.88949 0.0
Cd380 Cd 0.08594 0.47568 0.84071 0.0
O381 O 0.09446 0.48302 0.90533 0.0
O382 O 0.08334 0.42681 0.9284 0.0
O383 O 0.10049 0.43058 0.87179 0.0
C384 C 0.09553 0.4222 0.90639 0.0
C385 C 0.09682 0.48469 0.77011 0.0
C386 C 0.09366 0.4752 0.94328 0.0
C387 C 0.05518 0.45837 0.84234 0.0
O388 O 0.06252 0.47096 0.8354 0.0
O389 O 0.06197 0.44663 0.86002 0.0
O390 O 0.0889 0.49367 0.79734 0.0
O391 O 0.09922 0.47062 0.78399 0.0
O392 O 0.28537 0.65727 0.51044 0.0
Cd393 Cd 0.30155 0.66308 0.5604 0.0
Cd394 Cd 0.27184 0.6629 0.61246 0.0
O395 O 0.2634 0.65429 0.54926 0.0
O396 O 0.31976 0.66353 0.51726 0.0
O397 O 0.31788 0.64699 0.57627 0.0
C398 C 0.3253 0.6518 0.53956 0.0
C399 C 0.26359 0.65273 0.68488 0.0
C400 C 0.27111 0.6537 0.51107 0.0
C401 C 0.29037 0.69282 0.60522 0.0
O402 O 0.27765 0.68612 0.61502 0.0
O403 O 0.30156 0.68535 0.58677 0.0
O404 O 0.25446 0.66085 0.65864 0.0
O405 O 0.27733 0.64978 0.66908 0.0
O406 O 0.09109 0.53759 0.26081 0.0
Cd407 Cd 0.08513 0.55367 0.31099 0.0
Cd408 Cd 0.08587 0.52424 0.36318 0.0
O409 O 0.09422 0.51566 0.29981 0.0
O410 O 0.08495 0.57214 0.26887 0.0
O411 O 0.10118 0.56974 0.3286 0.0
C412 C 0.09657 0.57745 0.29215 0.0
C413 C 0.09664 0.51649 0.4353 0.0
C414 C 0.09474 0.52334 0.26155 0.0
C415 C 0.05565 0.54245 0.35683 0.0
O416 O 0.06262 0.52989 0.36712 0.0
O417 O 0.06285 0.55358 0.33727 0.0
O418 O 0.08836 0.50718 0.41021 0.0
O419 O 0.09944 0.53012 0.41837 0.0
O420 O 0.21271 0.34458 0.01787 0.0
Cd421 Cd 0.19635 0.33866 0.06716 0.0
Cd422 Cd 0.22583 0.33953 0.12098 0.0
O423 O 0.23456 0.34743 0.05747 0.0
O424 O 0.17831 0.33791 0.02332 0.0
O425 O 0.17976 0.35455 0.08225 0.0
C426 C 0.17253 0.34958 0.04536 0.0
C427 C 0.23416 0.3506 0.19201 0.0
C428 C 0.227 0.34802 0.01903 0.0
C429 C 0.20757 0.30938 0.11511 0.0
O430 O 0.22007 0.31637 0.12584 0.0
O431 O 0.19655 0.31651 0.09459 0.0
O432 O 0.24321 0.34207 0.1668 0.0
O433 O 0.22039 0.35337 0.17605 0.0
O434 O 0.41136 0.46285 0.75018 0.0
Cd435 Cd 0.41325 0.44873 0.80806 0.0
Cd436 Cd 0.41107 0.47718 0.85151 0.0
O437 O 0.40304 0.484 0.78574 0.0
O438 O 0.41149 0.4279 0.77855 0.0
O439 O 0.39357 0.43769 0.82584 0.0
C440 C 0.39798 0.42681 0.79752 0.0
C441 C 0.39899 0.48498 0.92139 0.0
C442 C 0.40567 0.4764 0.74811 0.0
C443 C 0.4414 0.45989 0.85724 0.0
O444 O 0.43453 0.47293 0.85927 0.0
O445 O 0.43423 0.44796 0.84256 0.0
O446 O 0.40671 0.49462 0.89581 0.0
O447 O 0.39739 0.47097 0.90592 0.0
H448 H 0.09154 0.10635 0.93088 0.0
H449 H 0.17412 0.11872 0.04782 0.0
H450 H 0.13021 0.07599 0.90226 0.0
H451 H 0.14495 0.15761 0.01138 0.0
H452 H 0.15589 0.1014 0.00749 0.0
H453 H 0.10924 0.12438 0.97047 0.0
C454 C 0.1038 0.10362 0.93224 0.0
C455 C 0.10947 0.08974 0.91303 0.0
C456 C 0.15345 0.11372 0.00874 0.0
C457 C 0.12956 0.10993 0.95969 0.0
C458 C 0.16371 0.12356 0.03227 0.0
C459 C 0.161 0.13959 0.03294 0.0
C460 C 0.14028 0.11995 0.98657 0.0
C461 C 0.14745 0.1453 0.0116 0.0
C462 C 0.11384 0.11385 0.95501 0.0
C463 C 0.12541 0.08667 0.91612 0.0
N464 N 0.13756 0.13548 0.98932 0.0
N465 N 0.13489 0.09659 0.9397 0.0
H466 H 0.11925 0.90893 0.34376 0.0
H467 H 0.1535 0.87437 0.10884 0.0
H468 H 0.09529 0.91425 0.21098 0.0
H469 H 0.15935 0.85078 0.24201 0.0
H470 H 0.13352 0.89079 0.14528 0.0
H471 H 0.13574 0.88898 0.30744 0.0
C472 C 0.11734 0.90577 0.30723 0.0
C473 C 0.10589 0.91323 0.28037 0.0
C474 C 0.13908 0.88187 0.16622 0.0
C475 C 0.12485 0.89082 0.23852 0.0
C476 C 0.15045 0.87253 0.14549 0.0
C477 C 0.15806 0.8612 0.17241 0.0
C478 C 0.13562 0.88009 0.21438 0.0
C479 C 0.15372 0.85933 0.21987 0.0
C480 C 0.12672 0.89441 0.28656 0.0
C481 C 0.10393 0.90874 0.23306 0.0
N482 N 0.14296 0.86884 0.23956 0.0
N483 N 0.11348 0.898 0.21343 0.0
H484 H 0.37899 0.90808 0.35457 0.0
H485 H 0.34352 0.87175 0.58449 0.0
H486 H 0.40152 0.91366 0.48952 0.0
H487 H 0.34041 0.84801 0.45074 0.0
H488 H 0.36337 0.88885 0.55066 0.0
H489 H 0.363 0.88737 0.38869 0.0
C490 C 0.3807 0.90482 0.39112 0.0
C491 C 0.39158 0.91257 0.41923 0.0
C492 C 0.35845 0.87973 0.52905 0.0
C493 C 0.37319 0.88929 0.45856 0.0
C494 C 0.34715 0.87001 0.5483 0.0
C495 C 0.34033 0.85846 0.52041 0.0
C496 C 0.36261 0.87811 0.48136 0.0
C497 C 0.34542 0.85673 0.47359 0.0
C498 C 0.37161 0.89303 0.41052 0.0
C499 C 0.3933 0.90794 0.4665 0.0
N500 N 0.35607 0.86661 0.45528 0.0
N501 N 0.38403 0.89677 0.4849 0.0
H502 H 0.37793 0.09752 0.83758 0.0
H503 H 0.34368 0.13267 0.60437 0.0
H504 H 0.40303 0.09435 0.70615 0.0
H505 H 0.33709 0.15575 0.73803 0.0
H506 H 0.36407 0.11669 0.6406 0.0
H507 H 0.36119 0.11743 0.80212 0.0
C508 C 0.38005 0.10116 0.80158 0.0
C509 C 0.39187 0.09429 0.77479 0.0
C510 C 0.35826 0.12542 0.66169 0.0
C511 C 0.37261 0.11662 0.73387 0.0
C512 C 0.34665 0.13449 0.64109 0.0
C513 C 0.33872 0.14554 0.66822 0.0
C514 C 0.36163 0.12716 0.70992 0.0
C515 C 0.34297 0.14741 0.71576 0.0
C516 C 0.37052 0.11249 0.78141 0.0
C517 C 0.39409 0.09938 0.72817 0.0
N518 N 0.35397 0.13814 0.73532 0.0
N519 N 0.38438 0.11005 0.70891 0.0
H520 H 0.84243 0.87239 0.10908 0.0
H521 H 0.87802 0.90826 0.3393 0.0
H522 H 0.83828 0.84892 0.243 0.0
H523 H 0.90145 0.91259 0.20537 0.0
H524 H 0.86157 0.88793 0.30506 0.0
H525 H 0.86262 0.889 0.14333 0.0
C526 C 0.84589 0.87061 0.14541 0.0
C527 C 0.83869 0.85927 0.17322 0.0
C528 C 0.87048 0.89323 0.2835 0.0
C529 C 0.86136 0.87837 0.21271 0.0
C530 C 0.87983 0.9048 0.30296 0.0
C531 C 0.8911 0.9121 0.27515 0.0
C532 C 0.87218 0.88927 0.23568 0.0
C533 C 0.89294 0.90722 0.22815 0.0
C534 C 0.85739 0.88005 0.16489 0.0
C535 C 0.84358 0.85747 0.22022 0.0
N536 N 0.8834 0.89629 0.20965 0.0
N537 N 0.85443 0.8671 0.23874 0.0
H538 H 0.9022 0.09266 0.99477 0.0
H539 H 0.83729 0.15726 0.96104 0.0
H540 H 0.87748 0.0985 0.86347 0.0
H541 H 0.84344 0.13275 0.09256 0.0
H542 H 0.85722 0.14089 0.92511 0.0
H543 H 0.88581 0.11259 0.0306 0.0
C544 C 0.89351 0.09833 0.97317 0.0
C545 C 0.89115 0.09388 0.92603 0.0
C546 C 0.8543 0.13925 0.96195 0.0
C547 C 0.87249 0.1167 0.96693 0.0
C548 C 0.84303 0.14862 0.98265 0.0
C549 C 0.83867 0.14631 0.0299 0.0
C550 C 0.86149 0.12768 0.98889 0.0
C551 C 0.84642 0.13487 0.05602 0.0
C552 C 0.88412 0.10961 0.99383 0.0
C553 C 0.87964 0.10155 0.89993 0.0
N554 N 0.8575 0.12596 0.03514 0.0
N555 N 0.87071 0.11262 0.92076 0.0
H556 H 0.67499 0.11849 0.65036 0.0
H557 H 0.59258 0.10571 0.76802 0.0
H558 H 0.64547 0.15718 0.68619 0.0
H559 H 0.63145 0.07557 0.7963 0.0
H560 H 0.61012 0.1238 0.72807 0.0
H561 H 0.65692 0.10108 0.69093 0.0
C562 C 0.66453 0.12326 0.66581 0.0
C563 C 0.66168 0.13927 0.66492 0.0
C564 C 0.6148 0.11331 0.74354 0.0
C565 C 0.64115 0.11952 0.71159 0.0
C566 C 0.60485 0.10305 0.76651 0.0
C567 C 0.61062 0.0892 0.78572 0.0
C568 C 0.63053 0.10947 0.73867 0.0
C569 C 0.62658 0.08621 0.78245 0.0
C570 C 0.65437 0.11337 0.68949 0.0
C571 C 0.64808 0.14489 0.68614 0.0
N572 N 0.63597 0.09616 0.75868 0.0
N573 N 0.63828 0.13502 0.70859 0.0
H574 H 0.59465 0.9141 0.49212 0.0
H575 H 0.65735 0.84748 0.45575 0.0
H576 H 0.61778 0.90672 0.35889 0.0
H577 H 0.65302 0.87263 0.5868 0.0
H578 H 0.63757 0.86425 0.42082 0.0
H579 H 0.61085 0.89394 0.52757 0.0
C580 C 0.60295 0.90805 0.47006 0.0
C581 C 0.60492 0.91213 0.42244 0.0
C582 C 0.64084 0.86595 0.45735 0.0
C583 C 0.62335 0.88903 0.4629 0.0
C584 C 0.65204 0.85634 0.4775 0.0
C585 C 0.65688 0.85871 0.52428 0.0
C586 C 0.63422 0.87782 0.48441 0.0
C587 C 0.64966 0.87045 0.5506 0.0
C588 C 0.61223 0.89664 0.49048 0.0
C589 C 0.61593 0.90397 0.39573 0.0
N590 N 0.63866 0.8796 0.53027 0.0
N591 N 0.62475 0.89277 0.41636 0.0
H592 H 0.6445 0.65791 0.51654 0.0
H593 H 0.63172 0.57528 0.40037 0.0
H594 H 0.67465 0.61912 0.54565 0.0
H595 H 0.593 0.60477 0.43615 0.0
H596 H 0.64913 0.59345 0.4406 0.0
H597 H 0.6264 0.64028 0.47695 0.0
C598 C 0.64717 0.64564 0.51527 0.0
C599 C 0.66101 0.63992 0.53463 0.0
C600 C 0.63683 0.59597 0.43923 0.0
C601 C 0.64074 0.6199 0.48799 0.0
C602 C 0.62693 0.58575 0.41576 0.0
C603 C 0.61092 0.58857 0.41493 0.0
C604 C 0.63067 0.6092 0.46118 0.0
C605 C 0.60529 0.60219 0.43605 0.0
C606 C 0.6369 0.63564 0.49251 0.0
C607 C 0.664 0.62396 0.53167 0.0
N608 N 0.61517 0.61204 0.45828 0.0
N609 N 0.65405 0.61451 0.50811 0.0
H610 H 0.59534 0.4135 0.70582 0.0
H611 H 0.65893 0.34759 0.73942 0.0
H612 H 0.61931 0.40655 0.83788 0.0
H613 H 0.65353 0.37244 0.60821 0.0
H614 H 0.63933 0.36434 0.77534 0.0
H615 H 0.61166 0.39358 0.66962 0.0
C616 C 0.60386 0.4076 0.72746 0.0
C617 C 0.60602 0.41172 0.77498 0.0
C618 C 0.64234 0.36599 0.73858 0.0
C619 C 0.62459 0.38889 0.73366 0.0
C620 C 0.65343 0.35639 0.71787 0.0
C621 C 0.6579 0.35867 0.67071 0.0
C622 C 0.63545 0.37776 0.71173 0.0
C623 C 0.65046 0.37033 0.64468 0.0
C624 C 0.61321 0.39633 0.70661 0.0
C625 C 0.61731 0.40377 0.80114 0.0
N626 N 0.63956 0.37947 0.66556 0.0
N627 N 0.6262 0.39269 0.78012 0.0
H628 H 0.86391 0.42841 0.89663 0.0
H629 H 0.85091 0.3461 0.01474 0.0
H630 H 0.90256 0.39896 0.93341 0.0
H631 H 0.82097 0.3851 0.04339 0.0
H632 H 0.869 0.36356 0.97441 0.0
H633 H 0.84644 0.41035 0.93706 0.0
C634 C 0.86867 0.41797 0.91226 0.0
C635 C 0.88468 0.41513 0.91168 0.0
C636 C 0.85855 0.36829 0.99001 0.0
C637 C 0.86486 0.39462 0.95814 0.0
C638 C 0.84829 0.35838 0.01318 0.0
C639 C 0.83451 0.36422 0.03266 0.0
C640 C 0.85477 0.38403 0.9852 0.0
C641 C 0.83157 0.38018 0.02934 0.0
C642 C 0.85874 0.40781 0.93584 0.0
C643 C 0.89027 0.40155 0.93312 0.0
N644 N 0.84152 0.38952 0.00539 0.0
N645 N 0.88036 0.39176 0.95545 0.0
H646 H 0.84187 0.63094 0.10307 0.0
H647 H 0.87701 0.59689 0.33737 0.0
H648 H 0.83689 0.65501 0.23577 0.0
H649 H 0.90034 0.59097 0.20382 0.0
H650 H 0.86052 0.61685 0.30115 0.0
H651 H 0.86196 0.61453 0.13901 0.0
C652 C 0.84513 0.63289 0.1395 0.0
C653 C 0.83772 0.64434 0.16645 0.0
C654 C 0.8694 0.61128 0.28007 0.0
C655 C 0.86029 0.62546 0.20788 0.0
C656 C 0.87878 0.59991 0.30068 0.0
C657 C 0.89005 0.59229 0.27359 0.0
C658 C 0.87108 0.61472 0.23187 0.0
C659 C 0.89183 0.59661 0.22608 0.0
C660 C 0.85657 0.62355 0.15994 0.0
C661 C 0.84235 0.64635 0.21362 0.0
N662 N 0.88229 0.60737 0.20652 0.0
N663 N 0.85316 0.63685 0.23306 0.0
H664 H 0.32231 0.38508 0.6492 0.0
H665 H 0.40531 0.39823 0.7627 0.0
H666 H 0.3521 0.34648 0.68389 0.0
H667 H 0.36641 0.42807 0.79348 0.0
H668 H 0.38766 0.3801 0.7233 0.0
H669 H 0.34057 0.40256 0.6887 0.0
C670 C 0.33286 0.38034 0.66417 0.0
C671 C 0.33574 0.36433 0.66329 0.0
C672 C 0.383 0.39054 0.73917 0.0
C673 C 0.35649 0.38417 0.7087 0.0
C674 C 0.39301 0.40082 0.76181 0.0
C675 C 0.38726 0.41459 0.78161 0.0
C676 C 0.36722 0.39428 0.73522 0.0
C677 C 0.37127 0.41749 0.77915 0.0
C678 C 0.34314 0.39027 0.68723 0.0
C679 C 0.34947 0.35876 0.68386 0.0
N680 N 0.36181 0.40752 0.75571 0.0
N681 N 0.35938 0.36868 0.70571 0.0
H682 H 0.33715 0.65386 0.45081 0.0
H683 H 0.40267 0.58998 0.48632 0.0
H684 H 0.34366 0.63 0.58326 0.0
H685 H 0.37807 0.59539 0.35465 0.0
H686 H 0.38595 0.60971 0.5218 0.0
H687 H 0.35711 0.63744 0.41527 0.0
C688 C 0.34296 0.64535 0.47268 0.0
C689 C 0.3387 0.64324 0.5201 0.0
C690 C 0.38436 0.60667 0.48503 0.0
C691 C 0.36157 0.62455 0.47953 0.0
C692 C 0.39393 0.59551 0.46458 0.0
C693 C 0.39171 0.591 0.41742 0.0
C694 C 0.37268 0.6136 0.45791 0.0
C695 C 0.38013 0.59849 0.39113 0.0
C696 C 0.35426 0.63594 0.45221 0.0
C697 C 0.34656 0.63195 0.54658 0.0
N698 N 0.37103 0.60946 0.41175 0.0
N699 N 0.35765 0.62301 0.52591 0.0
H700 H 0.1176 0.59573 0.33908 0.0
H701 H 0.15353 0.63167 0.10897 0.0
H702 H 0.0955 0.58963 0.20368 0.0
H703 H 0.15614 0.6557 0.24235 0.0
H704 H 0.13376 0.61447 0.14273 0.0
H705 H 0.13369 0.61632 0.30472 0.0
C706 C 0.11602 0.59883 0.30235 0.0
C707 C 0.10521 0.59099 0.27421 0.0
C708 C 0.13855 0.62366 0.16427 0.0
C709 C 0.12371 0.61414 0.23464 0.0
C710 C 0.1498 0.63345 0.14506 0.0
C711 C 0.15646 0.64512 0.17287 0.0
C712 C 0.13428 0.62534 0.21185 0.0
C713 C 0.15126 0.64689 0.21956 0.0
C714 C 0.12516 0.61056 0.28282 0.0
C715 C 0.10365 0.59543 0.22673 0.0
N716 N 0.14066 0.63695 0.23784 0.0
N717 N 0.11297 0.60655 0.20823 0.0
H718 H 0.09297 0.40851 0.99254 0.0
H719 H 0.16142 0.34791 0.95563 0.0
H720 H 0.1188 0.40587 0.86231 0.0
H721 H 0.15316 0.37037 0.08942 0.0
H722 H 0.14103 0.36383 0.92013 0.0
H723 H 0.11025 0.38907 0.02697 0.0
C724 C 0.10209 0.40363 0.97084 0.0
C725 C 0.1045 0.40886 0.92447 0.0
C726 C 0.1436 0.36513 0.95734 0.0
C727 C 0.12419 0.38659 0.96377 0.0
C728 C 0.15514 0.35601 0.97777 0.0
C729 C 0.15901 0.35787 0.02559 0.0
C730 C 0.13565 0.37596 0.98511 0.0
C731 C 0.15057 0.36862 0.05243 0.0
C732 C 0.11199 0.39263 0.99071 0.0
C733 C 0.11658 0.4022 0.8982 0.0
N734 N 0.13924 0.37727 0.0318 0.0
N735 N 0.12601 0.39138 0.91825 0.0
H736 H 0.20783 0.15888 0.91393 0.0
H737 H 0.28532 0.14929 0.76377 0.0
H738 H 0.25281 0.15062 0.97607 0.0
H739 H 0.24004 0.15529 0.70129 0.0
H740 H 0.27328 0.14718 0.84119 0.0
H741 H 0.21906 0.15529 0.83588 0.0
C742 C 0.22008 0.15625 0.91122 0.0
C743 C 0.22944 0.15523 0.9517 0.0
C744 C 0.26594 0.1488 0.81057 0.0
C745 C 0.24238 0.1511 0.86205 0.0
C746 C 0.2728 0.15001 0.76625 0.0
C747 C 0.26368 0.15267 0.72596 0.0
C748 C 0.24981 0.15038 0.81489 0.0
C749 C 0.24752 0.15332 0.73137 0.0
C750 C 0.22647 0.15415 0.86653 0.0
C751 C 0.24519 0.15161 0.94588 0.0
N752 N 0.24111 0.15237 0.77513 0.0
N753 N 0.25119 0.14981 0.90184 0.0
H754 H 0.10243 0.96662 0.1854 0.0
H755 H 0.09002 0.04349 0.0344 0.0
H756 H 0.09466 0.01169 0.24738 0.0
H757 H 0.10017 -0.0012 0.97292 0.0
H758 H 0.09407 0.03253 0.11262 0.0
H759 H 0.10434 0.97868 0.10796 0.0
C760 C 0.10129 0.9791 0.18281 0.0
C761 C 0.09817 0.98815 0.22292 0.0
C762 C 0.09553 0.02513 0.08207 0.0
C763 C 0.10022 0.00203 0.134 0.0
C764 C 0.09316 0.03136 0.03729 0.0
C765 C 0.09457 0.02199 0.99695 0.0
C766 C 0.09924 0.00937 0.08677 0.0
C767 C 0.09885 0.00642 1.003 0.0
C768 C 0.10239 0.98598 0.13848 0.0
C769 C 0.097 0.00427 0.21741 0.0
N770 N 0.1009 0.00056 0.04711 0.0
N771 N 0.09782 0.01068 0.17363 0.0
H772 H 0.25656 0.85292 0.20239 0.0
H773 H 0.24307 0.85379 0.4818 0.0
H774 H 0.21147 0.85529 0.26824 0.0
H775 H 0.28811 0.85073 0.41579 0.0
H776 H 0.23145 0.85776 0.40388 0.0
H777 H 0.26855 0.85561 0.28027 0.0
C778 C 0.24919 0.85421 0.23307 0.0
C779 C 0.23299 0.85365 0.22879 0.0
C780 C 0.2439 0.85636 0.40656 0.0
C781 C 0.24659 0.85662 0.318 0.0
C782 C 0.25053 0.85412 0.45107 0.0
C783 C 0.26656 0.85171 0.45535 0.0
C784 C 0.25336 0.85617 0.36612 0.0
C785 C 0.27566 0.85232 0.41423 0.0
C786 C 0.25602 0.8557 0.27757 0.0
C787 C 0.22401 0.85543 0.26984 0.0
N788 N 0.26893 0.85435 0.3714 0.0
N789 N 0.23092 0.85668 0.31268 0.0
H790 H 0.39817 0.04317 0.66985 0.0
H791 H 0.39423 0.96545 0.51848 0.0
H792 H 0.39594 0.9974 0.7312 0.0
H793 H 0.39798 0.01112 0.4572 0.0
H794 H 0.39106 0.97717 0.59602 0.0
H795 H 0.39443 0.03187 0.592 0.0
C796 C 0.39677 0.03073 0.66705 0.0
C797 C 0.3976 0.02119 0.70719 0.0
C798 C 0.39242 0.98466 0.56563 0.0
C799 C 0.39334 0.00816 0.61771 0.0
C800 C 0.39424 0.97798 0.52123 0.0
C801 C 0.39661 0.98732 0.48126 0.0
C802 C 0.39307 0.00082 0.57036 0.0
C803 C 0.39629 0.00347 0.48703 0.0
C804 C 0.39461 0.02429 0.62246 0.0
C805 C 0.39549 0.00518 0.70127 0.0
N806 N 0.39476 0.00971 0.53087 0.0
N807 N 0.39363 -0.00085 0.65727 0.0
H808 H 0.7409 0.85338 0.21066 0.0
H809 H 0.75475 0.85365 0.49 0.0
H810 H 0.78611 0.85242 0.2762 0.0
H811 H 0.70956 0.85249 0.42441 0.0
H812 H 0.76646 0.85694 0.41194 0.0
H813 H 0.7292 0.85678 0.28867 0.0
C814 C 0.74837 0.85406 0.24131 0.0
C815 C 0.76449 0.85239 0.23689 0.0
C816 C 0.75397 0.85611 0.41474 0.0
C817 C 0.7512 0.8562 0.32622 0.0
C818 C 0.74729 0.85427 0.45932 0.0
C819 C 0.73118 0.85257 0.46375 0.0
C820 C 0.74446 0.85624 0.37437 0.0
C821 C 0.72206 0.85353 0.42271 0.0
C822 C 0.74169 0.85597 0.28587 0.0
C823 C 0.77361 0.85344 0.2779 0.0
N824 N 0.72883 0.85516 0.3798 0.0
N825 N 0.76683 0.85513 0.3208 0.0
H826 H 0.89616 0.99563 0.95778 0.0
H827 H 0.89573 0.00984 0.2369 0.0
H828 H 0.89622 0.04092 0.02278 0.0
H829 H 0.8973 0.96457 0.17194 0.0
H830 H 0.8922 0.0214 0.15871 0.0
H831 H 0.89286 0.98397 0.03591 0.0
C832 C 0.89529 0.00312 0.98833 0.0
C833 C 0.8967 0.01925 0.98374 0.0
C834 C 0.89317 0.00892 0.16168 0.0
C835 C 0.89302 0.00602 0.0732 0.0
C836 C 0.89516 0.00232 0.20634 0.0
C837 C 0.89704 0.98624 0.21098 0.0
C838 C 0.89309 -0.00064 0.12144 0.0
C839 C 0.89613 0.97705 0.17008 0.0
C840 C 0.89345 0.99647 0.03296 0.0
C841 C 0.89542 0.02841 0.02462 0.0
N842 N 0.89436 0.98374 0.12708 0.0
N843 N 0.8938 0.02166 0.06758 0.0
H844 H 0.78546 0.14934 0.93531 0.0
H845 H 0.70812 0.15888 0.78445 0.0
H846 H 0.74009 0.15501 0.99742 0.0
H847 H 0.75317 0.15067 0.72276 0.0
H848 H 0.71926 0.15518 0.8626 0.0
H849 H 0.7735 0.14721 0.85777 0.0
C850 C 0.77294 0.14998 0.93272 0.0
C851 C 0.76376 0.15256 0.97292 0.0
C852 C 0.7267 0.15408 0.83202 0.0
C853 C 0.74999 0.15025 0.88388 0.0
C854 C 0.72037 0.15624 0.78728 0.0
C855 C 0.72977 0.15527 0.7469 0.0
C856 C 0.74261 0.15101 0.83665 0.0
C857 C 0.74551 0.15163 0.75287 0.0
C858 C 0.76612 0.14876 0.88833 0.0
C859 C 0.74761 0.1531 0.96739 0.0
N860 N 0.75146 0.14977 0.79696 0.0
N861 N 0.74124 0.15216 0.92356 0.0
H862 H 0.59132 0.04294 0.66453 0.0
H863 H 0.60402 0.96619 0.51323 0.0
H864 H 0.60163 -0.00176 0.72572 0.0
H865 H 0.59551 0.01117 0.4515 0.0
H866 H 0.60616 0.97829 0.59057 0.0
H867 H 0.59544 0.03206 0.58624 0.0
C868 C 0.59451 0.03083 0.66156 0.0
C869 C 0.59594 0.02143 0.70184 0.0
C870 C 0.60399 0.98556 0.56012 0.0
C871 C 0.60069 0.0089 0.61194 0.0
C872 C 0.60278 0.97866 0.51585 0.0
C873 C 0.59937 0.98767 0.47587 0.0
C874 C 0.60165 0.00158 0.56468 0.0
C875 C 0.59807 0.00378 0.48138 0.0
C876 C 0.59692 0.02465 0.61674 0.0
C877 C 0.60029 0.00589 0.69569 0.0
N878 N 0.599 0.0102 0.52512 0.0
N879 N 0.60237 7e-05 0.65154 0.0
H880 H 0.70747 0.65922 0.41419 0.0
H881 H 0.7845 0.64794 0.26301 0.0
H882 H 0.7524 0.65016 0.47568 0.0
H883 H 0.73926 0.6548 0.20111 0.0
H884 H 0.77252 0.64604 0.34057 0.0
H885 H 0.71847 0.65526 0.336 0.0
C886 C 0.71966 0.65634 0.41131 0.0
C887 C 0.72907 0.6552 0.45165 0.0
C888 C 0.76517 0.6478 0.31005 0.0
C889 C 0.74176 0.65064 0.36184 0.0
C890 C 0.772 0.64888 0.26565 0.0
C891 C 0.76287 0.65174 0.2255 0.0
C892 C 0.74909 0.64971 0.31458 0.0
C893 C 0.74674 0.65267 0.23109 0.0
C894 C 0.72592 0.65403 0.36654 0.0
C895 C 0.74473 0.65126 0.44561 0.0
N896 N 0.74037 0.65185 0.27494 0.0
N897 N 0.75062 0.64926 0.4015 0.0
H898 H 0.60145 0.49733 0.4697 0.0
H899 H 0.59575 0.51065 0.74901 0.0
H900 H 0.5902 0.54127 0.5344 0.0
H901 H 0.60195 0.46586 0.68352 0.0
H902 H 0.59767 0.52279 0.67108 0.0
H903 H 0.60536 0.48626 0.54831 0.0
C904 C 0.59989 0.50467 0.50035 0.0
C905 C 0.59531 0.5202 0.49541 0.0
C906 C 0.59876 0.51031 0.6739 0.0
C907 C 0.59979 0.50763 0.58543 0.0
C908 C 0.59774 0.5034 0.7184 0.0
C909 C 0.59848 0.48721 0.72273 0.0
C910 C 0.60057 0.50096 0.63358 0.0
C911 C 0.60109 0.47838 0.68182 0.0
C912 C 0.60212 0.49835 0.54523 0.0
C913 C 0.59355 0.52919 0.53645 0.0
N914 N 0.60191 0.48535 0.63899 0.0
N915 N 0.5957 0.52276 0.57967 0.0
H916 H 0.75637 0.3493 0.70017 0.0
H917 H 0.74276 0.35427 0.97949 0.0
H918 H 0.71136 0.35374 0.76554 0.0
H919 H 0.78699 0.34417 0.91491 0.0
H920 H 0.73161 0.35792 0.90085 0.0
H921 H 0.7684 0.35148 0.77821 0.0
C922 C 0.74904 0.35095 0.73078 0.0
C923 C 0.73284 0.35113 0.72638 0.0
C924 C 0.74378 0.35499 0.90396 0.0
C925 C 0.74647 0.35352 0.81563 0.0
C926 C 0.75014 0.35291 0.94886 0.0
C927 C 0.76578 0.34872 0.95383 0.0
C928 C 0.75314 0.35291 0.8638 0.0
C929 C 0.77483 0.34721 0.91283 0.0
C930 C 0.75589 0.35212 0.77534 0.0
C931 C 0.72389 0.35332 0.7673 0.0
N932 N 0.76836 0.34922 0.8696 0.0
N933 N 0.73081 0.3543 0.81018 0.0
H934 H 0.89985 0.49362 0.24474 0.0
H935 H 0.89491 0.5068 0.96534 0.0
H936 H 0.89466 0.53846 0.17877 0.0
H937 H 0.90465 0.4626 0.03065 0.0
H938 H 0.89104 0.51804 0.04375 0.0
H939 H 0.89762 0.48144 0.16697 0.0
C940 C 0.89802 0.50088 0.21406 0.0
C941 C 0.89766 0.51708 0.2182 0.0
C942 C 0.89393 0.50585 0.04085 0.0
C943 C 0.89522 0.50328 0.12923 0.0
C944 C 0.89614 0.49944 0.99608 0.0
C945 C 0.9003 0.48379 0.99139 0.0
C946 C 0.89588 0.49654 0.08116 0.0
C947 C 0.90164 0.47477 0.03252 0.0
C948 C 0.89682 0.49394 0.16965 0.0
C949 C 0.89523 0.52593 0.17721 0.0
N950 N 0.89953 0.4813 0.07563 0.0
N951 N 0.89424 0.51892 0.13446 0.0
H952 H 0.24495 0.35557 0.72116 0.0
H953 H 0.25829 0.34858 1.00013 0.0
H954 H 0.28876 0.34343 0.78529 0.0
H955 H 0.21353 0.35533 0.93489 0.0
H956 H 0.27044 0.35079 0.92231 0.0
H957 H 0.23398 0.35936 0.79992 0.0
C958 C 0.25229 0.35379 0.75173 0.0
C959 C 0.26774 0.34898 0.74658 0.0
C960 C 0.25797 0.35194 0.92517 0.0
C961 C 0.25528 0.35334 0.83676 0.0
C962 C 0.25104 0.35076 0.96961 0.0
C963 C 0.23486 0.35156 0.97394 0.0
C964 C 0.24863 0.35398 0.88493 0.0
C965 C 0.22604 0.35441 0.93315 0.0
C966 C 0.24602 0.35596 0.79669 0.0
C967 C 0.27673 0.34695 0.78751 0.0
N968 N 0.23302 0.35539 0.89037 0.0
N969 N 0.27035 0.34905 0.83082 0.0
H970 H 0.40139 0.4925 0.44762 0.0
H971 H 0.39678 0.50624 0.72693 0.0
H972 H 0.39681 0.53753 0.51283 0.0
H973 H 0.40692 0.46201 0.66236 0.0
H974 H 0.39294 0.51734 0.6483 0.0
H975 H 0.39935 0.48051 0.52573 0.0
C976 C 0.39973 0.49985 0.47821 0.0
C977 C 0.39948 0.51604 0.47374 0.0
C978 C 0.39592 0.50518 0.65142 0.0
C979 C 0.39725 0.50245 0.56307 0.0
C980 C 0.39811 0.49885 0.69631 0.0
C981 C 0.40237 0.48323 0.70127 0.0
C982 C 0.39796 0.49581 0.61126 0.0
C983 C 0.40383 0.47417 0.66028 0.0
C984 C 0.39865 0.49301 0.52281 0.0
C985 C 0.39729 0.525 0.51464 0.0
N986 N 0.40172 0.48061 0.61706 0.0
N987 N 0.39639 0.5181 0.55756 0.0
H988 H 0.23992 0.65091 0.49201 0.0
H989 H 0.25347 0.64992 0.21262 0.0
H990 H 0.285 0.64818 0.42622 0.0
H991 H 0.20843 0.65335 0.27848 0.0
H992 H 0.26504 0.64588 0.29057 0.0
H993 H 0.22792 0.6483 0.4141 0.0
C994 C 0.24729 0.64955 0.46135 0.0
C995 C 0.26348 0.64999 0.46565 0.0
C996 C 0.2526 0.64738 0.28785 0.0
C997 C 0.24987 0.64713 0.37641 0.0
C998 C 0.246 0.64966 0.24332 0.0
C999 C 0.22999 0.65219 0.23898 0.0
C1000 C 0.24312 0.64764 0.32827 0.0
C1001 C 0.22086 0.65166 0.28008 0.0
C1002 C 0.24045 0.64811 0.41683 0.0
C1003 C 0.27246 0.64813 0.42461 0.0
N1004 N 0.22757 0.64959 0.32293 0.0
N1005 N 0.26555 0.64694 0.38176 0.0
H1006 H 0.09756 0.49214 0.2426 0.0
H1007 H 0.10029 0.50572 0.96325 0.0
H1008 H 0.10051 0.53721 0.17686 0.0
H1009 H 0.09571 0.46076 0.02878 0.0
H1010 H 0.10392 0.51721 0.04146 0.0
H1011 H 0.1005 0.48014 0.1648 0.0
C1012 C 0.09903 0.49951 0.21197 0.0
C1013 C 0.09856 0.5157 0.21623 0.0
C1014 C 0.10225 0.50481 0.03863 0.0
C1015 C 0.10182 0.50208 0.12715 0.0
C1016 C 0.1002 0.49825 0.99395 0.0
C1017 C 0.09748 0.48229 0.98942 0.0
C1018 C 0.10156 0.49534 0.079 0.0
C1019 C 0.09756 0.47315 0.03052 0.0
C1020 C 0.10066 0.49266 0.16752 0.0
C1021 C 0.10057 0.52467 0.17526 0.0
N1022 N 0.09943 0.47982 0.07352 0.0
N1023 N 0.10197 0.51775 0.13248 0.0
H1024 H 0.18084 0.21314 0.09814 0.0
H1025 H 0.22918 0.28999 0.15458 0.0
H1026 H 0.22878 0.21321 0.14218 0.0
H1027 H 0.18303 0.29022 0.09537 0.0
H1028 H 0.22782 0.26183 0.16136 0.0
H1029 H 0.18009 0.24127 0.10815 0.0
C1030 C 0.19116 0.21903 0.11041 0.0
C1031 C 0.20495 0.2108 0.11882 0.0
C1032 C 0.21794 0.26805 0.14721 0.0
C1033 C 0.20417 0.24302 0.13015 0.0
C1034 C 0.2187 0.28415 0.14338 0.0
C1035 C 0.20626 0.29251 0.12386 0.0
C1036 C 0.20467 0.2602 0.13141 0.0
C1037 C 0.19295 0.28428 0.11026 0.0
C1038 C 0.19073 0.2351 0.116 0.0
C1039 C 0.21794 0.21907 0.13483 0.0
N1040 N 0.19255 0.26857 0.11396 0.0
N1041 N 0.21726 0.23472 0.13963 0.0
H1042 H 0.03697 0.9367 0.34423 0.0
H1043 H 0.95892 0.98405 0.39393 0.0
H1044 H 0.0359 0.98339 0.39928 0.0
H1045 H 0.95991 0.93747 0.33801 0.0
H1046 H 0.98703 0.98307 0.40331 0.0
H1047 H 0.00873 0.9358 0.34912 0.0
C1048 C 0.03083 0.94672 0.35776 0.0
C1049 C 0.03885 0.9602 0.37093 0.0
C1050 C 0.98109 0.97302 0.38929 0.0
C1051 C 0.00646 0.95927 0.37634 0.0
C1052 C 0.96501 0.97357 0.38391 0.0
C1053 C 0.95702 0.96088 0.36472 0.0
C1054 C 0.98927 0.9597 0.37526 0.0
C1055 C 0.96557 0.94758 0.35267 0.0
C1056 C 0.01468 0.9462 0.36048 0.0
C1057 C 0.03023 0.97278 0.3884 0.0
N1058 N 0.98123 0.94738 0.35781 0.0
N1059 N 0.01451 0.97205 0.39023 0.0
H1060 H 0.26887 0.78986 0.63786 0.0
H1061 H 0.31535 0.71144 0.58587 0.0
H1062 H 0.31528 0.78854 0.58072 0.0
H1063 H 0.26867 0.71289 0.64096 0.0
H1064 H 0.31653 0.73966 0.59122 0.0
H1065 H 0.2696 0.76174 0.64658 0.0
C1066 C 0.27927 0.78369 0.62743 0.0
C1067 C 0.29199 0.7916 0.60809 0.0
C1068 C 0.30607 0.7338 0.60247 0.0
C1069 C 0.29285 0.75932 0.61786 0.0
C1070 C 0.30539 0.71766 0.59948 0.0
C1071 C 0.29182 0.70976 0.61255 0.0
C1072 C 0.2931 0.74212 0.61853 0.0
C1073 C 0.27933 0.71847 0.63014 0.0
C1074 C 0.27967 0.7676 0.63243 0.0
C1075 C 0.30517 0.78295 0.59552 0.0
N1076 N 0.28023 0.73418 0.63227 0.0
N1077 N 0.30521 0.76727 0.6003 0.0
H1078 H 0.45948 0.02039 0.88602 0.0
H1079 H 0.53749 0.06918 0.85288 0.0
H1080 H 0.4605 0.06851 0.844 0.0
H1081 H 0.53647 0.02012 0.88334 0.0
H1082 H 0.50929 0.06998 0.86009 0.0
H1083 H 0.4876 0.02095 0.89543 0.0
C1084 C 0.46559 0.03112 0.87911 0.0
C1085 C 0.4576 0.04438 0.8637 0.0
C1086 C 0.51525 0.05907 0.86559 0.0
C1087 C 0.48985 0.04508 0.87434 0.0
C1088 C 0.53137 0.0586 0.86159 0.0
C1089 C 0.53937 0.04452 0.86699 0.0
C1090 C 0.50705 0.04536 0.87502 0.0
C1091 C 0.5308 0.03121 0.87846 0.0
C1092 C 0.48166 0.03142 0.88448 0.0
C1093 C 0.46616 0.05797 0.85558 0.0
N1094 N 0.5151 0.03194 0.88171 0.0
N1095 N 0.48182 0.05793 0.86068 0.0
H1096 H 0.18117 0.79234 0.10843 0.0
H1097 H 0.22776 0.71403 0.05583 0.0
H1098 H 0.2277 0.79099 0.05214 0.0
H1099 H 0.18137 0.71522 0.11315 0.0
H1100 H 0.22694 0.74216 0.04705 0.0
H1101 H 0.18003 0.76411 0.10308 0.0
C1102 C 0.1911 0.78614 0.09454 0.0
C1103 C 0.20461 0.79407 0.08115 0.0
C1104 C 0.21689 0.73626 0.06125 0.0
C1105 C 0.2034 0.76171 0.07517 0.0
C1106 C 0.21735 0.72018 0.06628 0.0
C1107 C 0.20466 0.71223 0.08569 0.0
C1108 C 0.20369 0.74451 0.07587 0.0
C1109 C 0.19146 0.72084 0.0983 0.0
C1110 C 0.19044 0.77 0.09155 0.0
C1111 C 0.21708 0.78539 0.06322 0.0
N1112 N 0.19137 0.73652 0.0935 0.0
N1113 N 0.21621 0.76968 0.06111 0.0
H1114 H 0.45956 0.98438 0.30077 0.0
H1115 H 0.53699 0.93682 0.35765 0.0
H1116 H 0.45988 0.93822 0.35983 0.0
H1117 H 0.53658 0.98307 0.29922 0.0
H1118 H 0.50875 0.93616 0.35185 0.0
H1119 H 0.48772 0.98316 0.29322 0.0
C1120 C 0.46552 0.97394 0.31186 0.0
C1121 C 0.45732 0.96144 0.33137 0.0
C1122 C 0.51485 0.94641 0.33997 0.0
C1123 C 0.48963 0.95999 0.32295 0.0
C1124 C 0.53099 0.94679 0.34322 0.0
C1125 C 0.53919 0.96008 0.3293 0.0
C1126 C 0.50682 0.95942 0.3228 0.0
C1127 C 0.53077 0.97261 0.31069 0.0
C1128 C 0.48163 0.97325 0.30754 0.0
C1129 C 0.4657 0.94818 0.34485 0.0
N1130 N 0.51505 0.97202 0.30832 0.0
N1131 N 0.48139 0.94785 0.34071 0.0
H1132 H 0.31519 0.21336 0.59748 0.0
H1133 H 0.26719 0.29134 0.55557 0.0
H1134 H 0.26774 0.21447 0.54878 0.0
H1135 H 0.31525 0.29042 0.59834 0.0
H1136 H 0.26798 0.26327 0.54538 0.0
H1137 H 0.31624 0.24156 0.59063 0.0
C1138 C 0.30503 0.2195 0.58494 0.0
C1139 C 0.2913 0.21152 0.57418 0.0
C1140 C 0.2784 0.26921 0.55658 0.0
C1141 C 0.29241 0.24385 0.56651 0.0
C1142 C 0.27796 0.28527 0.56241 0.0
C1143 C 0.29113 0.29325 0.57836 0.0
C1144 C 0.29208 0.26104 0.56704 0.0
C1145 C 0.30479 0.28475 0.5863 0.0
C1146 C 0.30564 0.23562 0.58104 0.0
C1147 C 0.27854 0.22012 0.55782 0.0
N1148 N 0.30486 0.26909 0.58102 0.0
N1149 N 0.27937 0.23582 0.55491 0.0
H1150 H 0.95867 0.06954 0.85276 0.0
H1151 H 0.0361 0.02074 0.80922 0.0
H1152 H 0.95914 0.02171 0.80759 0.0
H1153 H 0.03572 0.06909 0.84891 0.0
H1154 H 0.00794 0.0216 0.80103 0.0
H1155 H 0.98683 0.0703 0.84442 0.0
C1156 C 0.96466 0.05922 0.84073 0.0
C1157 C 0.95651 0.04549 0.83134 0.0
C1158 C 0.01403 0.03206 0.81111 0.0
C1159 C 0.9888 0.04627 0.82191 0.0
C1160 C 0.03012 0.03159 0.81578 0.0
C1161 C 0.0383 0.04482 0.83028 0.0
C1162 C 0.006 0.04585 0.82128 0.0
C1163 C 0.02992 0.05857 0.83795 0.0
C1164 C 0.98076 0.05967 0.83595 0.0
C1165 C 0.96492 0.03253 0.81556 0.0
N1166 N 0.01422 0.05868 0.83382 0.0
N1167 N 0.98061 0.0332 0.81175 0.0
H1168 H 0.76705 0.71351 0.04594 0.0
H1169 H 0.81445 0.79038 0.10875 0.0
H1170 H 0.81332 0.71332 0.10432 0.0
H1171 H 0.7675 0.79042 0.05571 0.0
H1172 H 0.81531 0.76227 0.09921 0.0
H1173 H 0.76813 0.74173 0.04096 0.0
C1174 C 0.7775 0.71937 0.05734 0.0
C1175 C 0.79006 0.71101 0.07603 0.0
C1176 C 0.80485 0.76844 0.08935 0.0
C1177 C 0.79132 0.74338 0.07063 0.0
C1178 C 0.80435 0.78451 0.09476 0.0
C1179 C 0.79082 0.79279 0.08345 0.0
C1180 C 0.79173 0.76055 0.07259 0.0
C1181 C 0.77814 0.78454 0.06524 0.0
C1182 C 0.77809 0.73551 0.05453 0.0
C1183 C 0.80332 0.71927 0.08998 0.0
N1184 N 0.77887 0.76887 0.06069 0.0
N1185 N 0.80355 0.73499 0.08733 0.0
H1186 H 0.68085 0.21278 0.59859 0.0
H1187 H 0.72849 0.29029 0.54525 0.0
H1188 H 0.72907 0.21351 0.55751 0.0
H1189 H 0.68189 0.28989 0.60108 0.0
H1190 H 0.72758 0.26211 0.53845 0.0
H1191 H 0.67978 0.24089 0.58852 0.0
C1192 C 0.69118 0.21881 0.58696 0.0
C1193 C 0.70513 0.21077 0.5794 0.0
C1194 C 0.71751 0.2682 0.55185 0.0
C1195 C 0.70397 0.24298 0.56799 0.0
C1196 C 0.718 0.28431 0.55569 0.0
C1197 C 0.7053 0.29249 0.57427 0.0
C1198 C 0.70423 0.26016 0.56671 0.0
C1199 C 0.692 0.28408 0.58692 0.0
C1200 C 0.69056 0.23488 0.58133 0.0
C1201 C 0.7181 0.21922 0.56419 0.0
N1202 N 0.69186 0.26837 0.58325 0.0
N1203 N 0.71724 0.23486 0.55933 0.0
H1204 H 0.8151 0.29122 0.10229 0.0
H1205 H 0.76699 0.21387 0.15349 0.0
H1206 H 0.7668 0.29069 0.14239 0.0
H1207 H 0.81392 0.21416 0.10022 0.0
H1208 H 0.76795 0.24204 0.16049 0.0
H1209 H 0.81604 0.26312 0.11236 0.0
C1210 C 0.80473 0.28524 0.1137 0.0
C1211 C 0.7908 0.29333 0.12098 0.0
C1212 C 0.77808 0.23593 0.14762 0.0
C1213 C 0.79179 0.26112 0.13236 0.0
C1214 C 0.77756 0.21982 0.14365 0.0
C1215 C 0.79034 0.21161 0.12573 0.0
C1216 C 0.79147 0.24394 0.13353 0.0
C1217 C 0.80373 0.21999 0.11385 0.0
C1218 C 0.80528 0.26917 0.11934 0.0
C1219 C 0.77776 0.28493 0.13594 0.0
N1220 N 0.8039 0.2357 0.11761 0.0
N1221 N 0.77855 0.26928 0.14077 0.0
H1222 H 0.68074 0.71324 0.60062 0.0
H1223 H 0.72916 0.79095 0.64384 0.0
H1224 H 0.72934 0.71404 0.63737 0.0
H1225 H 0.68183 0.79028 0.59403 0.0
H1226 H 0.72833 0.76281 0.6523 0.0
H1227 H 0.67988 0.74141 0.60895 0.0
C1228 C 0.6912 0.7193 0.61094 0.0
C1229 C 0.70519 0.71125 0.61778 0.0
C1230 C 0.71809 0.76883 0.63984 0.0
C1231 C 0.70427 0.74354 0.62714 0.0
C1232 C 0.71854 0.78492 0.63503 0.0
C1233 C 0.7056 0.79301 0.61769 0.0
C1234 C 0.7046 0.76073 0.62721 0.0
C1235 C 0.69214 0.78454 0.60716 0.0
C1236 C 0.6907 0.73541 0.61558 0.0
C1237 C 0.71833 0.71975 0.63131 0.0
N1238 N 0.69203 0.76886 0.61176 0.0
N1239 N 0.71758 0.73543 0.63518 0.0
H1240 H 0.53794 0.43472 0.84659 0.0
H1241 H 0.46017 0.48257 0.89339 0.0
H1242 H 0.53703 0.48152 0.90074 0.0
H1243 H 0.46084 0.43494 0.84636 0.0
H1244 H 0.48825 0.48154 0.9034 0.0
H1245 H 0.50973 0.43372 0.85324 0.0
C1246 C 0.53184 0.44474 0.86029 0.0
C1247 C 0.53989 0.45829 0.87264 0.0
C1248 C 0.48224 0.47126 0.8913 0.0
C1249 C 0.50754 0.45724 0.8801 0.0
C1250 C 0.46619 0.47184 0.88557 0.0
C1251 C 0.45813 0.45887 0.86851 0.0
C1252 C 0.49035 0.45766 0.8796 0.0
C1253 C 0.46656 0.44526 0.85931 0.0
C1254 C 0.51572 0.44415 0.86408 0.0
C1255 C 0.53134 0.47087 0.89044 0.0
N1256 N 0.48223 0.44506 0.86452 0.0
N1257 N 0.51563 0.47008 0.89321 0.0
H1258 H 0.95921 0.56851 0.33679 0.0
H1259 H 0.0364 0.52121 0.39842 0.0
H1260 H 0.95946 0.52265 0.39805 0.0
H1261 H 0.03634 0.56668 0.33452 0.0
H1262 H 0.00826 0.5227 0.40597 0.0
H1263 H 0.98743 0.5692 0.34321 0.0
C1264 C 0.96516 0.55863 0.35199 0.0
C1265 C 0.95693 0.54543 0.36648 0.0
C1266 C 0.01441 0.5324 0.39059 0.0
C1267 C 0.98928 0.54613 0.3737 0.0
C1268 C 0.0305 0.53157 0.38627 0.0
C1269 C 0.03876 0.54378 0.36537 0.0
C1270 C 0.00647 0.54552 0.37378 0.0
C1271 C 0.03046 0.55694 0.35058 0.0
C1272 C 0.9813 0.55903 0.35558 0.0
C1273 C 0.9653 0.53303 0.38608 0.0
N1274 N 0.01477 0.5574 0.35474 0.0
N1275 N 0.98102 0.53364 0.38878 0.0
H1276 H 0.95822 0.43384 0.84656 0.0
H1277 H 0.03665 0.48134 0.80633 0.0
H1278 H 0.95973 0.48229 0.80832 0.0
H1279 H 0.03527 0.43395 0.85538 0.0
H1280 H 0.00855 0.48082 0.79668 0.0
H1281 H 0.98642 0.43263 0.83949 0.0
C1282 C 0.96445 0.44419 0.83617 0.0
C1283 C 0.95659 0.45824 0.82854 0.0
C1284 C 0.0144 0.47049 0.80923 0.0
C1285 C 0.9889 0.45694 0.82065 0.0
C1286 C 0.03047 0.47077 0.81474 0.0
C1287 C 0.03835 0.45772 0.8322 0.0
C1288 C 0.0061 0.45708 0.82133 0.0
C1289 C 0.02969 0.44433 0.84217 0.0
C1290 C 0.98057 0.44349 0.83225 0.0
C1291 C 0.96529 0.47124 0.81496 0.0
N1292 N 0.01403 0.4444 0.83693 0.0
N1293 N 0.98098 0.4703 0.81183 0.0
H1294 H 0.46045 0.52061 0.29323 0.0
H1295 H 0.53739 0.5691 0.3471 0.0
H1296 H 0.46032 0.56736 0.34794 0.0
H1297 H 0.53723 0.52086 0.30622 0.0
H1298 H 0.50929 0.56988 0.33649 0.0
H1299 H 0.48863 0.52179 0.28675 0.0
C1300 C 0.46631 0.53119 0.30348 0.0
C1301 C 0.45798 0.54385 0.32168 0.0
C1302 C 0.51543 0.55916 0.32946 0.0
C1303 C 0.49031 0.54523 0.31449 0.0
C1304 C 0.53149 0.55871 0.33541 0.0
C1305 C 0.53969 0.54484 0.32806 0.0
C1306 C 0.50749 0.54566 0.31604 0.0
C1307 C 0.5314 0.53177 0.31274 0.0
C1308 C 0.48243 0.53183 0.29982 0.0
C1309 C 0.46624 0.55726 0.33409 0.0
N1310 N 0.51575 0.53247 0.3076 0.0
N1311 N 0.48196 0.55755 0.33062 0.0
H1312 H 0.26171 0.14981 0.20676 0.0
H1313 H 0.23391 0.15188 0.47216 0.0
H1314 H 0.21381 0.14393 0.24678 0.0
H1315 H 0.28165 0.14408 0.4333 0.0
H1316 H 0.22625 0.14743 0.3903 0.0
H1317 H 0.26933 0.14608 0.28904 0.0
C1318 C 0.2528 0.14748 0.23276 0.0
C1319 C 0.23708 0.14731 0.21992 0.0
C1320 C 0.23838 0.14644 0.39973 0.0
C1321 C 0.24572 0.14331 0.31443 0.0
C1322 C 0.24277 0.14901 0.4465 0.0
C1323 C 0.25847 0.14848 0.45951 0.0
C1324 C 0.24978 0.1436 0.36543 0.0
C1325 C 0.26943 0.14463 0.42481 0.0
C1326 C 0.25717 0.14534 0.27977 0.0
C1327 C 0.22606 0.14418 0.25509 0.0
N1328 N 0.26491 0.14259 0.3792 0.0
N1329 N 0.23057 0.14257 0.30086 0.0
H1330 H 0.09795 0.01753 0.47666 0.0
H1331 H 0.10045 0.98951 0.74191 0.0
H1332 H 0.10618 0.96984 0.51523 0.0
H1333 H 0.10534 0.03753 0.70212 0.0
H1334 H 0.10432 0.98201 0.65959 0.0
H1335 H 0.10232 0.02518 0.55857 0.0
C1336 C 0.10089 0.00868 0.50228 0.0
C1337 C 0.10156 0.993 0.48917 0.0
C1338 C 0.10481 0.99418 0.66892 0.0
C1339 C 0.10635 0.00166 0.5833 0.0
C1340 C 0.1026 -0.00153 0.71596 0.0
C1341 C 0.10243 0.01419 0.72886 0.0
C1342 C 0.1066 0.00569 0.63431 0.0
C1343 C 0.10534 0.02529 0.69375 0.0
C1344 C 0.10341 0.01306 0.54907 0.0
C1345 C 0.10551 0.98205 0.52381 0.0
N1346 N 0.10704 0.02084 0.64797 0.0
N1347 N 0.1075 0.98655 0.56945 0.0
H1348 H 0.26411 0.85036 0.97771 0.0
H1349 H 0.28516 0.86208 0.74452 0.0
H1350 H 0.21731 0.86062 0.93375 0.0
H1351 H 0.23774 0.84916 0.71623 0.0
H1352 H 0.27835 0.86622 0.82737 0.0
H1353 H 0.27285 0.85386 0.89673 0.0
C1354 C 0.25571 0.85367 0.95112 0.0
C1355 C 0.23994 0.85516 0.96254 0.0
C1356 C 0.26944 0.86243 0.80311 0.0
C1357 C 0.24991 0.85934 0.86929 0.0
C1358 C 0.27329 0.86024 0.75562 0.0
C1359 C 0.26207 0.85502 0.7235 0.0
C1360 C 0.25426 0.85931 0.81859 0.0
C1361 C 0.24683 0.85298 0.73986 0.0
C1362 C 0.26075 0.85581 0.90477 0.0
C1363 C 0.22958 0.85941 0.92656 0.0
N1364 N 0.2434 0.85503 0.78627 0.0
N1365 N 0.23471 0.86108 0.8814 0.0
H1366 H 0.39611 0.9897 0.96182 0.0
H1367 H 0.39755 0.01788 0.22724 0.0
H1368 H 0.39066 0.03772 1.00122 0.0
H1369 H 0.39012 0.97009 0.1884 0.0
H1370 H 0.39344 0.02546 0.14514 0.0
H1371 H 0.39228 0.98224 0.04415 0.0
C1372 C 0.39387 -0.00133 0.98771 0.0
C1373 C 0.39384 0.01437 0.97467 0.0
C1374 C 0.39247 0.01334 0.15462 0.0
C1375 C 0.38969 0.00591 0.06926 0.0
C1376 C 0.39483 0.00899 0.20153 0.0
C1377 C 0.39431 0.9933 0.21464 0.0
C1378 C 0.38982 0.0019 0.12029 0.0
C1379 C 0.39066 0.98231 0.17985 0.0
C1380 C 0.39167 0.99439 0.03475 0.0
C1381 C 0.39081 0.02548 0.00969 0.0
N1382 N 0.38881 0.98679 0.13413 0.0
N1383 N 0.38911 0.02106 0.0555 0.0
H1384 H 0.73406 0.85301 0.9833 0.0
H1385 H 0.76161 0.85342 0.7175 0.0
H1386 H 0.78183 0.8599 0.94346 0.0
H1387 H 0.7138 0.86009 0.75756 0.0
H1388 H 0.76932 0.85733 0.79959 0.0
H1389 H 0.72633 0.85713 0.90131 0.0
C1390 C 0.74291 0.85561 0.95739 0.0
C1391 C 0.75863 0.85598 0.97017 0.0
C1392 C 0.75716 0.85819 0.79038 0.0
C1393 C 0.74988 0.86046 0.87598 0.0
C1394 C 0.75274 0.85594 0.74348 0.0
C1395 C 0.73702 0.8563 0.73072 0.0
C1396 C 0.74576 0.86054 0.82502 0.0
C1397 C 0.72605 0.85968 0.76584 0.0
C1398 C 0.73848 0.85799 0.91055 0.0
C1399 C 0.76959 0.85948 0.93515 0.0
N1400 N 0.7306 0.86141 0.81153 0.0
N1401 N 0.76503 0.86133 0.88951 0.0
H1402 H 0.88893 0.03749 0.69153 0.0
H1403 H 0.88938 0.9681 0.50342 0.0
H1404 H 0.89676 0.98954 0.72805 0.0
H1405 H 0.89629 0.01615 0.46676 0.0
H1406 H 0.8854 0.97582 0.5858 0.0
H1407 H 0.88496 0.02971 0.6092 0.0
C1408 C 0.88952 0.0253 0.68243 0.0
C1409 C 0.89335 0.01416 0.71661 0.0
C1410 C 0.88758 0.98468 0.55955 0.0
C1411 C 0.88884 0.00521 0.62261 0.0
C1412 C 0.88976 0.98029 0.5125 0.0
C1413 C 0.89334 0.99148 0.47826 0.0
C1414 C 0.88883 0.00037 0.57232 0.0
C1415 C 0.89373 0.00712 0.49209 0.0
C1416 C 0.88734 0.02089 0.63541 0.0
C1417 C 0.894 -0.00146 0.70276 0.0
N1418 N 0.89161 0.01109 0.53807 0.0
N1419 N 0.89188 0.99454 0.65681 0.0
H1420 H 0.73403 0.15107 0.22677 0.0
H1421 H 0.76209 0.14975 0.49197 0.0
H1422 H 0.78188 0.14386 0.26554 0.0
H1423 H 0.71417 0.14367 0.45237 0.0
H1424 H 0.76966 0.14581 0.40976 0.0
H1425 H 0.72646 0.14665 0.30871 0.0
C1426 C 0.74293 0.14833 0.25243 0.0
C1427 C 0.75863 0.14797 0.23937 0.0
C1428 C 0.75751 0.14508 0.41911 0.0
C1429 C 0.75006 0.14313 0.33354 0.0
C1430 C 0.75317 0.14733 0.46609 0.0
C1431 C 0.73746 0.14718 0.47901 0.0
C1432 C 0.74603 0.14293 0.38456 0.0
C1433 C 0.72642 0.14393 0.44399 0.0
C1434 C 0.7386 0.14578 0.29925 0.0
C1435 C 0.76965 0.14428 0.27407 0.0
N1436 N 0.73089 0.14219 0.39824 0.0
N1437 N 0.76518 0.14226 0.31972 0.0
H1438 H 0.59849 0.01683 0.22232 0.0
H1439 H 0.60096 0.98876 0.95704 0.0
H1440 H 0.60654 0.9691 0.18379 0.0
H1441 H 0.60596 0.03678 0.99682 0.0
H1442 H 0.60472 0.98126 0.0394 0.0
H1443 H 0.60284 0.02445 0.1404 0.0
C1444 C 0.60138 0.00797 0.19671 0.0
C1445 C 0.60202 0.99229 0.20984 0.0
C1446 C 0.60526 0.99343 0.03006 0.0
C1447 C 0.60679 0.00091 0.11569 0.0
C1448 C 0.6031 0.99772 0.983 0.0
C1449 C 0.60301 0.01344 0.97008 0.0
C1450 C 0.60706 0.00494 0.06467 0.0
C1451 C 0.6059 0.02453 0.0052 0.0
C1452 C 0.6039 0.01233 0.14991 0.0
C1453 C 0.6059 0.98132 0.1752 0.0
N1454 N 0.60755 0.02009 0.05101 0.0
N1455 N 0.6079 0.98581 0.12956 0.0
H1456 H 0.78191 0.64312 0.93401 0.0
H1457 H 0.71275 0.64365 0.7451 0.0
H1458 H 0.73395 0.65137 0.96951 0.0
H1459 H 0.76091 0.65001 0.70867 0.0
H1460 H 0.72037 0.63968 0.82753 0.0
H1461 H 0.77424 0.63892 0.85166 0.0
C1462 C 0.76974 0.64376 0.92469 0.0
C1463 C 0.75857 0.64777 0.95857 0.0
C1464 C 0.72928 0.64172 0.80132 0.0
C1465 C 0.74974 0.64299 0.86458 0.0
C1466 C 0.72495 0.6439 0.75423 0.0
C1467 C 0.7362 0.64734 0.72003 0.0
C1468 C 0.74497 0.64286 0.81422 0.0
C1469 C 0.75183 0.64755 0.73396 0.0
C1470 C 0.76539 0.64144 0.87767 0.0
C1471 C 0.74297 0.64847 0.94445 0.0
N1472 N 0.75574 0.64547 0.78001 0.0
N1473 N 0.73903 0.64621 0.89852 0.0
H1474 H 0.60711 0.5372 0.20171 0.0
H1475 H 0.60795 0.46774 0.01391 0.0
H1476 H 0.60119 0.48906 0.23904 0.0
H1477 H 0.59879 0.51549 0.97793 0.0
H1478 H 0.6123 0.47561 0.09602 0.0
H1479 H 0.61097 0.52947 0.11933 0.0
C1480 C 0.60694 0.52499 0.19279 0.0
C1481 C 0.60365 0.51377 0.22722 0.0
C1482 C 0.60955 0.48437 0.06995 0.0
C1483 C 0.60801 0.50487 0.13311 0.0
C1484 C 0.60715 0.4799 0.02307 0.0
C1485 C 0.60284 0.49095 0.98915 0.0
C1486 C 0.60779 0.50001 0.08284 0.0
C1487 C 0.60192 0.50656 1.00305 0.0
C1488 C 0.60906 0.52059 0.14572 0.0
C1489 C 0.60354 0.49811 0.21356 0.0
N1490 N 0.60427 0.51061 0.04884 0.0
N1491 N 0.60555 0.49414 0.16754 0.0
H1492 H 0.71338 0.36097 0.43519 0.0
H1493 H 0.78277 0.36097 0.24722 0.0
H1494 H 0.76131 0.35269 0.47109 0.0
H1495 H 0.73469 0.35448 0.21013 0.0
H1496 H 0.77503 0.36487 0.32958 0.0
H1497 H 0.72115 0.36545 0.35307 0.0
C1498 C 0.72556 0.36039 0.42602 0.0
C1499 C 0.7367 0.35628 0.45991 0.0
C1500 C 0.76617 0.36282 0.30323 0.0
C1501 C 0.74564 0.36137 0.3662 0.0
C1502 C 0.77057 0.36069 0.25618 0.0
C1503 C 0.75937 0.35722 0.22184 0.0
C1504 C 0.75046 0.36161 0.31592 0.0
C1505 C 0.74372 0.35696 0.23555 0.0
C1506 C 0.72997 0.36287 0.37913 0.0
C1507 C 0.75232 0.35566 0.446 0.0
N1508 N 0.73974 0.35899 0.28156 0.0
N1509 N 0.75631 0.35807 0.40019 0.0
H1510 H 0.89599 0.51549 0.73705 0.0
H1511 H 0.89769 0.48811 0.47129 0.0
H1512 H 0.89005 0.46765 0.69646 0.0
H1513 H 0.88972 0.53575 0.5109 0.0
H1514 H 0.89342 0.48031 0.5531 0.0
H1515 H 0.89214 0.52323 0.65493 0.0
C1516 C 0.89363 0.50662 0.71096 0.0
C1517 C 0.89348 0.49088 0.72357 0.0
C1518 C 0.89236 0.49245 0.54385 0.0
C1519 C 0.88933 0.49965 0.62926 0.0
C1520 C 0.89483 0.49692 0.49712 0.0
C1521 C 0.8942 0.51263 0.48433 0.0
C1522 C 0.88952 0.50379 0.57834 0.0
C1523 C 0.89035 0.52352 0.51923 0.0
C1524 C 0.89142 0.51106 0.66404 0.0
C1525 C 0.8903 0.47991 0.68831 0.0
N1526 N 0.88841 0.51893 0.5648 0.0
N1527 N 0.88861 0.48448 0.64263 0.0
H1528 H 0.26364 0.35201 0.22687 0.0
H1529 H 0.23586 0.35569 0.49199 0.0
H1530 H 0.21602 0.36072 0.26539 0.0
H1531 H 0.28388 0.36024 0.45175 0.0
H1532 H 0.22831 0.35941 0.40966 0.0
H1533 H 0.27138 0.35676 0.30848 0.0
C1534 C 0.25482 0.35514 0.25241 0.0
C1535 C 0.23913 0.35583 0.2394 0.0
C1536 C 0.24048 0.35987 0.41889 0.0
C1537 C 0.24791 0.36107 0.33319 0.0
C1538 C 0.24481 0.35774 0.46593 0.0
C1539 C 0.26054 0.35751 0.47871 0.0
C1540 C 0.25198 0.3615 0.38416 0.0
C1541 C 0.27162 0.36029 0.44348 0.0
C1542 C 0.25926 0.35788 0.29903 0.0
C1543 C 0.22824 0.36003 0.27391 0.0
N1544 N 0.26715 0.3619 0.39769 0.0
N1545 N 0.2328 0.36223 0.31941 0.0
H1546 H 0.39008 0.46611 0.99436 0.0
H1547 H 0.38956 0.53541 0.18264 0.0
H1548 H 0.39627 0.51425 0.95757 0.0
H1549 H 0.39802 0.48751 0.21836 0.0
H1550 H 0.38513 0.52766 0.10048 0.0
H1551 H 0.38603 0.47378 0.07671 0.0
C1552 C 0.39026 0.47831 1.00339 0.0
C1553 C 0.3937 0.48954 0.96914 0.0
C1554 C 0.38774 0.51884 0.1265 0.0
C1555 C 0.38913 0.49838 0.0632 0.0
C1556 C 0.39019 0.52324 0.17342 0.0
C1557 C 0.39434 0.51211 0.20727 0.0
C1558 C 0.38931 0.50318 0.11351 0.0
C1559 C 0.39502 0.4965 0.1933 0.0
C1560 C 0.38804 0.48267 0.05043 0.0
C1561 C 0.39383 0.50519 0.98292 0.0
N1562 N 0.39265 0.49251 0.14746 0.0
N1563 N 0.39171 0.50913 0.02892 0.0
H1564 H 0.21214 0.64503 0.94561 0.0
H1565 H 0.28192 0.6434 0.75879 0.0
H1566 H 0.26015 0.65174 0.98328 0.0
H1567 H 0.23422 0.65216 0.72117 0.0
H1568 H 0.27392 0.63992 0.84114 0.0
H1569 H 0.22002 0.64109 0.86335 0.0
C1570 C 0.22436 0.64538 0.93677 0.0
C1571 C 0.23549 0.64887 0.97129 0.0
C1572 C 0.2652 0.64241 0.81469 0.0
C1573 C 0.24456 0.64439 0.87734 0.0
C1574 C 0.26974 0.64431 0.76766 0.0
C1575 C 0.25874 0.64823 0.73313 0.0
C1576 C 0.24953 0.64427 0.82715 0.0
C1577 C 0.24311 0.6493 0.74671 0.0
C1578 C 0.22883 0.64322 0.88979 0.0
C1579 C 0.25116 0.64923 0.95775 0.0
N1580 N 0.23899 0.64742 0.79266 0.0
N1581 N 0.25522 0.64712 0.91183 0.0
H1582 H 0.10962 0.53483 0.50402 0.0
H1583 H 0.09818 0.5145 0.73801 0.0
H1584 H 0.09455 0.48797 0.47699 0.0
H1585 H 0.10581 0.46724 0.69384 0.0
H1586 H 0.10189 0.52305 0.65694 0.0
H1587 H 0.11391 0.52795 0.58675 0.0
C1588 C 0.10733 0.52306 0.51538 0.0
C1589 C 0.10146 0.51204 0.48366 0.0
C1590 C 0.10324 0.51086 0.66494 0.0
C1591 C 0.10594 0.50416 0.57863 0.0
C1592 C 0.10099 0.50594 0.71135 0.0
C1593 C 0.10164 0.49012 0.72274 0.0
C1594 C 0.10604 0.49985 0.62936 0.0
C1595 C 0.10525 0.47955 0.68668 0.0
C1596 C 0.10961 0.51918 0.56281 0.0
C1597 C 0.09887 0.49692 0.50032 0.0
N1598 N 0.10703 0.48459 0.64146 0.0
N1599 N 0.10102 0.49347 0.54666 0.0
loop_
_geom_bond_atom_site_label_1
_geom_bond_atom_site_label_2
_geom_bond_distance
_geom_bond_site_symmetry_2
_ccdc_geom_bond_type
O0 Cd1 2.223 1_556 S
O0 C8 1.315 . S
Cd1 O0 2.223 1_554 S
Cd1 O4 2.297 1_554 S
Cd1 O5 2.439 . S
Cd1 O11 2.240 . S
Cd2 O3 2.240 . S
Cd2 O10 2.223 . S
Cd2 O12 2.297 . S
Cd2 O13 2.439 . S
O3 Cd2 2.240 . S
O3 C8 1.279 1_554 S
O4 Cd1 2.297 1_556 S
O4 C6 1.247 1_556 S
O5 Cd1 2.439 . S
O5 C6 1.208 . S
C6 O4 1.247 1_554 S
C6 O5 1.208 . S
C7 O12 1.247 . S
C7 O13 1.208 . S
C8 O0 1.315 . S
C8 O3 1.279 1_556 S
C9 O10 1.315 . S
C9 O11 1.279 . S
O10 Cd2 2.223 . S
O10 C9 1.315 . S
O11 Cd1 2.240 . S
O11 C9 1.279 . S
O12 Cd2 2.297 . S
O12 C7 1.247 . S
O13 Cd2 2.439 . S
O13 C7 1.208 . S
O14 Cd15 2.223 . S
O14 C22 1.315 . S
Cd15 O14 2.223 . S
Cd15 O18 2.297 . S
Cd15 O19 2.439 . S
Cd15 O25 2.240 . S
Cd16 O17 2.240 . S
Cd16 O24 2.223 . S
Cd16 O26 2.297 . S
Cd16 O27 2.439 . S
O17 Cd16 2.240 . S
O17 C22 1.279 . S
O18 Cd15 2.297 . S
O18 C20 1.247 . S
O19 Cd15 2.439 . S
O19 C20 1.208 . S
C20 O18 1.247 . S
C20 O19 1.208 . S
C21 O26 1.247 . S
C21 O27 1.208 . S
C22 O14 1.315 . S
C22 O17 1.279 . S
C23 O24 1.315 . S
C23 O25 1.279 . S
O24 Cd16 2.223 . S
O24 C23 1.315 . S
O25 Cd15 2.240 . S
O25 C23 1.279 . S
O26 Cd16 2.297 . S
O26 C21 1.247 . S
O27 Cd16 2.439 . S
O27 C21 1.208 . S
O28 Cd29 2.223 . S
O28 C36 1.315 . S
Cd29 O28 2.223 . S
Cd29 O32 2.297 . S
Cd29 O33 2.439 . S
Cd29 O39 2.240 . S
Cd30 O31 2.240 . S
Cd30 O38 2.223 . S
Cd30 O40 2.297 . S
Cd30 O41 2.439 . S
O31 Cd30 2.240 . S
O31 C36 1.279 . S
O32 Cd29 2.297 . S
O32 C34 1.247 . S
O33 Cd29 2.439 . S
O33 C34 1.208 . S
C34 O32 1.247 . S
C34 O33 1.208 . S
C35 O40 1.247 . S
C35 O41 1.208 . S
C36 O28 1.315 . S
C36 O31 1.279 . S
C37 O38 1.315 . S
C37 O39 1.279 . S
O38 Cd30 2.223 . S
O38 C37 1.315 . S
O39 Cd29 2.240 . S
O39 C37 1.279 . S
O40 Cd30 2.297 . S
O40 C35 1.247 . S
O41 Cd30 2.439 . S
O41 C35 1.208 . S
O42 Cd43 2.223 . S
O42 C50 1.315 . S
Cd43 O42 2.223 . S
Cd43 O46 2.297 . S
Cd43 O47 2.439 . S
Cd43 O53 2.240 . S
Cd44 O45 2.240 . S
Cd44 O52 2.223 . S
Cd44 O54 2.297 . S
Cd44 O55 2.439 . S
O45 Cd44 2.240 . S
O45 C50 1.279 . S
O46 Cd43 2.297 . S
O46 C48 1.247 . S
O47 Cd43 2.439 . S
O47 C48 1.208 . S
C48 O46 1.247 . S
C48 O47 1.208 . S
C49 O54 1.247 . S
C49 O55 1.208 . S
C50 O42 1.315 . S
C50 O45 1.279 . S
C51 O52 1.315 . S
C51 O53 1.279 . S
O52 Cd44 2.223 . S
O52 C51 1.315 . S
O53 Cd43 2.240 . S
O53 C51 1.279 . S
O54 Cd44 2.297 . S
O54 C49 1.247 . S
O55 Cd44 2.439 . S
O55 C49 1.208 . S
O56 Cd57 2.223 . S
O56 C64 1.315 . S
Cd57 O56 2.223 . S
Cd57 O60 2.297 . S
Cd57 O61 2.439 . S
Cd57 O67 2.240 . S
Cd58 O59 2.240 . S
Cd58 O66 2.223 . S
Cd58 O68 2.297 . S
Cd58 O69 2.439 . S
O59 Cd58 2.240 . S
O59 C64 1.279 . S
O60 Cd57 2.297 . S
O60 C62 1.247 . S
O61 Cd57 2.439 . S
O61 C62 1.208 . S
C62 O60 1.247 . S
C62 O61 1.208 . S
C63 O68 1.247 . S
C63 O69 1.208 . S
C64 O56 1.315 . S
C64 O59 1.279 . S
C65 O66 1.315 . S
C65 O67 1.279 . S
O66 Cd58 2.223 . S
O66 C65 1.315 . S
O67 Cd57 2.240 . S
O67 C65 1.279 . S
O68 Cd58 2.297 . S
O68 C63 1.247 . S
O69 Cd58 2.439 . S
O69 C63 1.208 . S
O70 Cd71 2.223 . S
O70 C78 1.315 . S
Cd71 O70 2.223 . S
Cd71 O74 2.297 . S
Cd71 O75 2.439 . S
Cd71 O81 2.240 . S
Cd72 O73 2.240 . S
Cd72 O80 2.223 . S
Cd72 O82 2.297 . S
Cd72 O83 2.439 . S
O73 Cd72 2.240 . S
O73 C78 1.279 . S
O74 Cd71 2.297 . S
O74 C76 1.247 . S
O75 Cd71 2.439 . S
O75 C76 1.208 . S
C76 O74 1.247 . S
C76 O75 1.208 . S
C77 O82 1.247 . S
C77 O83 1.208 . S
C78 O70 1.315 . S
C78 O73 1.279 . S
C79 O80 1.315 . S
C79 O81 1.279 . S
O80 Cd72 2.223 . S
O80 C79 1.315 . S
O81 Cd71 2.240 . S
O81 C79 1.279 . S
O82 Cd72 2.297 . S
O82 C77 1.247 . S
O83 Cd72 2.439 . S
O83 C77 1.208 . S
O84 Cd85 2.223 . S
O84 C92 1.315 . S
Cd85 O84 2.223 . S
Cd85 O88 2.297 . S
Cd85 O89 2.439 . S
Cd85 O95 2.240 . S
Cd86 O87 2.240 . S
Cd86 O94 2.223 . S
Cd86 O96 2.297 . S
Cd86 O97 2.439 . S
O87 Cd86 2.240 . S
O87 C92 1.279 . S
O88 Cd85 2.297 . S
O88 C90 1.247 . S
O89 Cd85 2.439 . S
O89 C90 1.208 . S
C90 O88 1.247 . S
C90 O89 1.208 . S
C91 O96 1.247 . S
C91 O97 1.208 . S
C92 O84 1.315 . S
C92 O87 1.279 . S
C93 O94 1.315 . S
C93 O95 1.279 . S
O94 Cd86 2.223 . S
O94 C93 1.315 . S
O95 Cd85 2.240 . S
O95 C93 1.279 . S
O96 Cd86 2.297 . S
O96 C91 1.247 . S
O97 Cd86 2.439 . S
O97 C91 1.208 . S
O98 Cd99 2.223 . S
O98 C106 1.315 . S
Cd99 O98 2.223 . S
Cd99 O102 2.297 . S
Cd99 O103 2.439 . S
Cd99 O109 2.240 . S
Cd100 O101 2.240 . S
Cd100 O108 2.223 . S
Cd100 O110 2.297 . S
Cd100 O111 2.439 . S
O101 Cd100 2.240 . S
O101 C106 1.279 . S
O102 Cd99 2.297 . S
O102 C104 1.247 . S
O103 Cd99 2.439 . S
O103 C104 1.208 . S
C104 O102 1.247 . S
C104 O103 1.208 . S
C105 O110 1.247 . S
C105 O111 1.208 . S
C106 O98 1.315 . S
C106 O101 1.279 . S
C107 O108 1.315 . S
C107 O109 1.279 . S
O108 Cd100 2.223 . S
O108 C107 1.315 . S
O109 Cd99 2.240 . S
O109 C107 1.279 . S
O110 Cd100 2.297 . S
O110 C105 1.247 . S
O111 Cd100 2.439 . S
O111 C105 1.208 . S
O112 Cd113 2.223 . S
O112 C120 1.315 . S
Cd113 O112 2.223 . S
Cd113 O116 2.297 . S
Cd113 O117 2.439 . S
Cd113 O123 2.240 . S
Cd114 O115 2.240 . S
Cd114 O122 2.223 . S
Cd114 O124 2.297 . S
Cd114 O125 2.439 . S
O115 Cd114 2.240 . S
O115 C120 1.279 . S
O116 Cd113 2.297 . S
O116 C118 1.247 . S
O117 Cd113 2.439 . S
O117 C118 1.208 . S
C118 O116 1.247 . S
C118 O117 1.208 . S
C119 O124 1.247 . S
C119 O125 1.208 . S
C120 O112 1.315 . S
C120 O115 1.279 . S
C121 O122 1.315 . S
C121 O123 1.279 . S
O122 Cd114 2.223 . S
O122 C121 1.315 . S
O123 Cd113 2.240 . S
O123 C121 1.279 . S
O124 Cd114 2.297 . S
O124 C119 1.247 . S
O125 Cd114 2.439 . S
O125 C119 1.208 . S
O126 Cd127 2.223 . S
O126 C134 1.315 . S
Cd127 O126 2.223 . S
Cd127 O130 2.297 . S
Cd127 O131 2.439 . S
Cd127 O137 2.240 . S
Cd128 O129 2.240 . S
Cd128 O136 2.223 . S
Cd128 O138 2.297 . S
Cd128 O139 2.439 . S
O129 Cd128 2.240 . S
O129 C134 1.279 . S
O130 Cd127 2.297 . S
O130 C132 1.247 . S
O131 Cd127 2.439 . S
O131 C132 1.208 . S
C132 O130 1.247 . S
C132 O131 1.208 . S
C133 O138 1.247 . S
C133 O139 1.208 . S
C134 O126 1.315 . S
C134 O129 1.279 . S
C135 O136 1.315 . S
C135 O137 1.279 . S
O136 Cd128 2.223 . S
O136 C135 1.315 . S
O137 Cd127 2.240 . S
O137 C135 1.279 . S
O138 Cd128 2.297 . S
O138 C133 1.247 . S
O139 Cd128 2.439 . S
O139 C133 1.208 . S
O140 Cd141 2.223 . S
O140 C148 1.315 . S
Cd141 O140 2.223 . S
Cd141 O144 2.297 . S
Cd141 O145 2.439 . S
Cd141 O151 2.240 . S
Cd142 O143 2.240 . S
Cd142 O150 2.223 . S
Cd142 O152 2.297 . S
Cd142 O153 2.439 . S
O143 Cd142 2.240 . S
O143 C148 1.279 . S
O144 Cd141 2.297 . S
O144 C146 1.247 . S
O145 Cd141 2.439 . S
O145 C146 1.208 . S
C146 O144 1.247 . S
C146 O145 1.208 . S
C147 O152 1.247 . S
C147 O153 1.208 . S
C148 O140 1.315 . S
C148 O143 1.279 . S
C149 O150 1.315 . S
C149 O151 1.279 . S
O150 Cd142 2.223 . S
O150 C149 1.315 . S
O151 Cd141 2.240 . S
O151 C149 1.279 . S
O152 Cd142 2.297 . S
O152 C147 1.247 . S
O153 Cd142 2.439 . S
O153 C147 1.208 . S
O154 Cd155 2.223 . S
O154 C162 1.315 . S
Cd155 O154 2.223 . S
Cd155 O158 2.297 . S
Cd155 O159 2.439 . S
Cd155 O165 2.240 . S
Cd156 O157 2.240 . S
Cd156 O164 2.223 . S
Cd156 O166 2.297 . S
Cd156 O167 2.439 . S
O157 Cd156 2.240 . S
O157 C162 1.279 . S
O158 Cd155 2.297 . S
O158 C160 1.247 . S
O159 Cd155 2.439 . S
O159 C160 1.208 . S
C160 O158 1.247 . S
C160 O159 1.208 . S
C161 O166 1.247 . S
C161 O167 1.208 . S
C162 O154 1.315 . S
C162 O157 1.279 . S
C163 O164 1.315 . S
C163 O165 1.279 . S
O164 Cd156 2.223 . S
O164 C163 1.315 . S
O165 Cd155 2.240 . S
O165 C163 1.279 . S
O166 Cd156 2.297 . S
O166 C161 1.247 . S
O167 Cd156 2.439 . S
O167 C161 1.208 . S
O168 Cd169 2.223 1_556 S
O168 C176 1.315 . S
Cd169 O168 2.223 1_554 S
Cd169 O172 2.297 1_554 S
Cd169 O173 2.439 . S
Cd169 O179 2.240 . S
Cd170 O171 2.240 . S
Cd170 O178 2.223 . S
Cd170 O180 2.297 . S
Cd170 O181 2.439 . S
O171 Cd170 2.240 . S
O171 C176 1.279 1_554 S
O172 Cd169 2.297 1_556 S
O172 C174 1.247 1_556 S
O173 Cd169 2.439 . S
O173 C174 1.208 . S
C174 O172 1.247 1_554 S
C174 O173 1.208 . S
C175 O180 1.247 . S
C175 O181 1.208 . S
C176 O168 1.315 . S
C176 O171 1.279 1_556 S
C177 O178 1.315 . S
C177 O179 1.279 . S
O178 Cd170 2.223 . S
O178 C177 1.315 . S
O179 Cd169 2.240 . S
O179 C177 1.279 . S
O180 Cd170 2.297 . S
O180 C175 1.247 . S
O181 Cd170 2.439 . S
O181 C175 1.208 . S
O182 Cd183 2.223 . S
O182 C190 1.315 . S
Cd183 O182 2.223 . S
Cd183 O186 2.297 . S
Cd183 O187 2.439 . S
Cd183 O193 2.240 . S
Cd184 O185 2.240 . S
Cd184 O192 2.223 . S
Cd184 O194 2.297 . S
Cd184 O195 2.439 . S
O185 Cd184 2.240 . S
O185 C190 1.279 . S
O186 Cd183 2.297 . S
O186 C188 1.247 . S
O187 Cd183 2.439 . S
O187 C188 1.208 . S
C188 O186 1.247 . S
C188 O187 1.208 . S
C189 O194 1.247 . S
C189 O195 1.208 . S
C190 O182 1.315 . S
C190 O185 1.279 . S
C191 O192 1.315 . S
C191 O193 1.279 . S
O192 Cd184 2.223 . S
O192 C191 1.315 . S
O193 Cd183 2.240 . S
O193 C191 1.279 . S
O194 Cd184 2.297 . S
O194 C189 1.247 . S
O195 Cd184 2.439 . S
O195 C189 1.208 . S
O196 Cd197 2.223 . S
O196 C204 1.315 . S
Cd197 O196 2.223 . S
Cd197 O200 2.297 . S
Cd197 O201 2.439 . S
Cd197 O207 2.240 . S
Cd198 O199 2.240 . S
Cd198 O206 2.223 . S
Cd198 O208 2.297 . S
Cd198 O209 2.439 . S
O199 Cd198 2.240 . S
O199 C204 1.279 . S
O200 Cd197 2.297 . S
O200 C202 1.247 . S
O201 Cd197 2.439 . S
O201 C202 1.208 . S
C202 O200 1.247 . S
C202 O201 1.208 . S
C203 O208 1.247 . S
C203 O209 1.208 . S
C204 O196 1.315 . S
C204 O199 1.279 . S
C205 O206 1.315 . S
C205 O207 1.279 . S
O206 Cd198 2.223 . S
O206 C205 1.315 . S
O207 Cd197 2.240 . S
O207 C205 1.279 . S
O208 Cd198 2.297 . S
O208 C203 1.247 . S
O209 Cd198 2.439 . S
O209 C203 1.208 . S
O210 Cd211 2.223 . S
O210 C218 1.315 . S
Cd211 O210 2.223 . S
Cd211 O214 2.297 . S
Cd211 O215 2.439 . S
Cd211 O221 2.240 . S
Cd212 O213 2.240 . S
Cd212 O220 2.223 . S
Cd212 O222 2.297 . S
Cd212 O223 2.439 . S
O213 Cd212 2.240 . S
O213 C218 1.279 . S
O214 Cd211 2.297 . S
O214 C216 1.247 . S
O215 Cd211 2.439 . S
O215 C216 1.208 . S
C216 O214 1.247 . S
C216 O215 1.208 . S
C217 O222 1.247 . S
C217 O223 1.208 . S
C218 O210 1.315 . S
C218 O213 1.279 . S
C219 O220 1.315 . S
C219 O221 1.279 . S
O220 Cd212 2.223 . S
O220 C219 1.315 . S
O221 Cd211 2.240 . S
O221 C219 1.279 . S
O222 Cd212 2.297 . S
O222 C217 1.247 . S
O223 Cd212 2.439 . S
O223 C217 1.208 . S
O224 Cd225 2.223 . S
O224 C232 1.315 . S
Cd225 O224 2.223 . S
Cd225 O228 2.297 . S
Cd225 O229 2.439 . S
Cd225 O235 2.240 . S
Cd226 O227 2.240 . S
Cd226 O234 2.223 . S
Cd226 O236 2.297 . S
Cd226 O237 2.439 . S
O227 Cd226 2.240 . S
O227 C232 1.279 . S
O228 Cd225 2.297 . S
O228 C230 1.247 . S
O229 Cd225 2.439 . S
O229 C230 1.208 . S
C230 O228 1.247 . S
C230 O229 1.208 . S
C231 O236 1.247 . S
C231 O237 1.208 . S
C232 O224 1.315 . S
C232 O227 1.279 . S
C233 O234 1.315 . S
C233 O235 1.279 . S
O234 Cd226 2.223 . S
O234 C233 1.315 . S
O235 Cd225 2.240 . S
O235 C233 1.279 . S
O236 Cd226 2.297 . S
O236 C231 1.247 . S
O237 Cd226 2.439 . S
O237 C231 1.208 . S
O238 Cd239 2.223 . S
O238 C246 1.315 . S
Cd239 O238 2.223 . S
Cd239 O242 2.297 . S
Cd239 O243 2.439 . S
Cd239 O249 2.240 . S
Cd240 O241 2.240 . S
Cd240 O248 2.223 . S
Cd240 O250 2.297 . S
Cd240 O251 2.439 . S
O241 Cd240 2.240 . S
O241 C246 1.279 . S
O242 Cd239 2.297 . S
O242 C244 1.247 . S
O243 Cd239 2.439 . S
O243 C244 1.208 . S
C244 O242 1.247 . S
C244 O243 1.208 . S
C245 O250 1.247 . S
C245 O251 1.208 . S
C246 O238 1.315 . S
C246 O241 1.279 . S
C247 O248 1.315 . S
C247 O249 1.279 . S
O248 Cd240 2.223 . S
O248 C247 1.315 . S
O249 Cd239 2.240 . S
O249 C247 1.279 . S
O250 Cd240 2.297 . S
O250 C245 1.247 . S
O251 Cd240 2.439 . S
O251 C245 1.208 . S
O252 Cd253 2.223 1_556 S
O252 C260 1.315 . S
Cd253 O252 2.223 1_554 S
Cd253 O256 2.297 1_554 S
Cd253 O257 2.439 . S
Cd253 O263 2.240 . S
Cd254 O255 2.240 . S
Cd254 O262 2.223 . S
Cd254 O264 2.297 . S
Cd254 O265 2.439 . S
O255 Cd254 2.240 . S
O255 C260 1.279 1_554 S
O256 Cd253 2.297 1_556 S
O256 C258 1.247 1_556 S
O257 Cd253 2.439 . S
O257 C258 1.208 . S
C258 O256 1.247 1_554 S
C258 O257 1.208 . S
C259 O264 1.247 . S
C259 O265 1.208 . S
C260 O252 1.315 . S
C260 O255 1.279 1_556 S
C261 O262 1.315 . S
C261 O263 1.279 . S
O262 Cd254 2.223 . S
O262 C261 1.315 . S
O263 Cd253 2.240 . S
O263 C261 1.279 . S
O264 Cd254 2.297 . S
O264 C259 1.247 . S
O265 Cd254 2.439 . S
O265 C259 1.208 . S
O266 Cd267 2.223 . S
O266 C274 1.315 . S
Cd267 O266 2.223 . S
Cd267 O270 2.297 . S
Cd267 O271 2.439 . S
Cd267 O277 2.240 . S
Cd268 O269 2.240 . S
Cd268 O276 2.223 . S
Cd268 O278 2.297 . S
Cd268 O279 2.439 . S
O269 Cd268 2.240 . S
O269 C274 1.279 . S
O270 Cd267 2.297 . S
O270 C272 1.247 . S
O271 Cd267 2.439 . S
O271 C272 1.208 . S
C272 O270 1.247 . S
C272 O271 1.208 . S
C273 O278 1.247 . S
C273 O279 1.208 . S
C274 O266 1.315 . S
C274 O269 1.279 . S
C275 O276 1.315 . S
C275 O277 1.279 . S
O276 Cd268 2.223 . S
O276 C275 1.315 . S
O277 Cd267 2.240 . S
O277 C275 1.279 . S
O278 Cd268 2.297 . S
O278 C273 1.247 . S
O279 Cd268 2.439 . S
O279 C273 1.208 . S
O280 Cd281 2.223 . S
O280 C288 1.315 . S
Cd281 O280 2.223 . S
Cd281 O284 2.297 . S
Cd281 O285 2.439 . S
Cd281 O291 2.240 . S
Cd282 O283 2.240 . S
Cd282 O290 2.223 . S
Cd282 O292 2.297 . S
Cd282 O293 2.439 . S
O283 Cd282 2.240 . S
O283 C288 1.279 . S
O284 Cd281 2.297 . S
O284 C286 1.247 . S
O285 Cd281 2.439 . S
O285 C286 1.208 . S
C286 O284 1.247 . S
C286 O285 1.208 . S
C287 O292 1.247 . S
C287 O293 1.208 . S
C288 O280 1.315 . S
C288 O283 1.279 . S
C289 O290 1.315 . S
C289 O291 1.279 . S
O290 Cd282 2.223 . S
O290 C289 1.315 . S
O291 Cd281 2.240 . S
O291 C289 1.279 . S
O292 Cd282 2.297 . S
O292 C287 1.247 . S
O293 Cd282 2.439 . S
O293 C287 1.208 . S
O294 Cd295 2.223 . S
O294 C302 1.315 . S
Cd295 O294 2.223 . S
Cd295 O298 2.297 . S
Cd295 O299 2.439 . S
Cd295 O305 2.240 . S
Cd296 O297 2.240 . S
Cd296 O304 2.223 . S
Cd296 O306 2.297 . S
Cd296 O307 2.439 . S
O297 Cd296 2.240 . S
O297 C302 1.279 . S
O298 Cd295 2.297 . S
O298 C300 1.247 . S
O299 Cd295 2.439 . S
O299 C300 1.208 . S
C300 O298 1.247 . S
C300 O299 1.208 . S
C301 O306 1.247 . S
C301 O307 1.208 . S
C302 O294 1.315 . S
C302 O297 1.279 . S
C303 O304 1.315 . S
C303 O305 1.279 . S
O304 Cd296 2.223 . S
O304 C303 1.315 . S
O305 Cd295 2.240 . S
O305 C303 1.279 . S
O306 Cd296 2.297 . S
O306 C301 1.247 . S
O307 Cd296 2.439 . S
O307 C301 1.208 . S
O308 Cd309 2.223 . S
O308 C316 1.315 . S
Cd309 O308 2.223 . S
Cd309 O312 2.297 . S
Cd309 O313 2.439 . S
Cd309 O319 2.240 . S
Cd310 O311 2.240 . S
Cd310 O318 2.223 . S
Cd310 O320 2.297 . S
Cd310 O321 2.439 . S
O311 Cd310 2.240 . S
O311 C316 1.279 . S
O312 Cd309 2.297 . S
O312 C314 1.247 . S
O313 Cd309 2.439 . S
O313 C314 1.208 . S
C314 O312 1.247 . S
C314 O313 1.208 . S
C315 O320 1.247 . S
C315 O321 1.208 . S
C316 O308 1.315 . S
C316 O311 1.279 . S
C317 O318 1.315 . S
C317 O319 1.279 . S
O318 Cd310 2.223 . S
O318 C317 1.315 . S
O319 Cd309 2.240 . S
O319 C317 1.279 . S
O320 Cd310 2.297 . S
O320 C315 1.247 . S
O321 Cd310 2.439 . S
O321 C315 1.208 . S
O322 Cd323 2.223 . S
O322 C330 1.315 . S
Cd323 O322 2.223 . S
Cd323 O326 2.297 . S
Cd323 O327 2.439 . S
Cd323 O333 2.240 . S
Cd324 O325 2.240 . S
Cd324 O332 2.223 . S
Cd324 O334 2.297 . S
Cd324 O335 2.439 . S
O325 Cd324 2.240 . S
O325 C330 1.279 . S
O326 Cd323 2.297 . S
O326 C328 1.247 . S
O327 Cd323 2.439 . S
O327 C328 1.208 . S
C328 O326 1.247 . S
C328 O327 1.208 . S
C329 O334 1.247 . S
C329 O335 1.208 . S
C330 O322 1.315 . S
C330 O325 1.279 . S
C331 O332 1.315 . S
C331 O333 1.279 . S
O332 Cd324 2.223 . S
O332 C331 1.315 . S
O333 Cd323 2.240 . S
O333 C331 1.279 . S
O334 Cd324 2.297 . S
O334 C329 1.247 . S
O335 Cd324 2.439 . S
O335 C329 1.208 . S
O336 Cd337 2.223 . S
O336 C344 1.315 . S
Cd337 O336 2.223 . S
Cd337 O340 2.297 . S
Cd337 O341 2.439 . S
Cd337 O347 2.240 . S
Cd338 O339 2.240 . S
Cd338 O346 2.223 . S
Cd338 O348 2.297 . S
Cd338 O349 2.439 . S
O339 Cd338 2.240 . S
O339 C344 1.279 . S
O340 Cd337 2.297 . S
O340 C342 1.247 . S
O341 Cd337 2.439 . S
O341 C342 1.208 . S
C342 O340 1.247 . S
C342 O341 1.208 . S
C343 O348 1.247 . S
C343 O349 1.208 . S
C344 O336 1.315 . S
C344 O339 1.279 . S
C345 O346 1.315 . S
C345 O347 1.279 . S
O346 Cd338 2.223 . S
O346 C345 1.315 . S
O347 Cd337 2.240 . S
O347 C345 1.279 . S
O348 Cd338 2.297 . S
O348 C343 1.247 . S
O349 Cd338 2.439 . S
O349 C343 1.208 . S
O350 Cd351 2.223 . S
O350 C358 1.315 . S
Cd351 O350 2.223 . S
Cd351 O354 2.297 . S
Cd351 O355 2.439 . S
Cd351 O361 2.240 . S
Cd352 O353 2.240 . S
Cd352 O360 2.223 . S
Cd352 O362 2.297 . S
Cd352 O363 2.439 . S
O353 Cd352 2.240 . S
O353 C358 1.279 . S
O354 Cd351 2.297 . S
O354 C356 1.247 . S
O355 Cd351 2.439 . S
O355 C356 1.208 . S
C356 O354 1.247 . S
C356 O355 1.208 . S
C357 O362 1.247 . S
C357 O363 1.208 . S
C358 O350 1.315 . S
C358 O353 1.279 . S
C359 O360 1.315 . S
C359 O361 1.279 . S
O360 Cd352 2.223 . S
O360 C359 1.315 . S
O361 Cd351 2.240 . S
O361 C359 1.279 . S
O362 Cd352 2.297 . S
O362 C357 1.247 . S
O363 Cd352 2.439 . S
O363 C357 1.208 . S
O364 Cd365 2.223 . S
O364 C372 1.315 . S
Cd365 O364 2.223 . S
Cd365 O368 2.297 . S
Cd365 O369 2.439 . S
Cd365 O375 2.240 . S
Cd366 O367 2.240 . S
Cd366 O374 2.223 . S
Cd366 O376 2.297 . S
Cd366 O377 2.439 . S
O367 Cd366 2.240 . S
O367 C372 1.279 . S
O368 Cd365 2.297 . S
O368 C370 1.247 . S
O369 Cd365 2.439 . S
O369 C370 1.208 . S
C370 O368 1.247 . S
C370 O369 1.208 . S
C371 O376 1.247 . S
C371 O377 1.208 . S
C372 O364 1.315 . S
C372 O367 1.279 . S
C373 O374 1.315 . S
C373 O375 1.279 . S
O374 Cd366 2.223 . S
O374 C373 1.315 . S
O375 Cd365 2.240 . S
O375 C373 1.279 . S
O376 Cd366 2.297 . S
O376 C371 1.247 . S
O377 Cd366 2.439 . S
O377 C371 1.208 . S
O378 Cd379 2.223 . S
O378 C386 1.315 . S
Cd379 O378 2.223 . S
Cd379 O382 2.297 . S
Cd379 O383 2.439 . S
Cd379 O389 2.240 . S
Cd380 O381 2.240 . S
Cd380 O388 2.223 . S
Cd380 O390 2.297 . S
Cd380 O391 2.439 . S
O381 Cd380 2.240 . S
O381 C386 1.279 . S
O382 Cd379 2.297 . S
O382 C384 1.247 . S
O383 Cd379 2.439 . S
O383 C384 1.208 . S
C384 O382 1.247 . S
C384 O383 1.208 . S
C385 O390 1.247 . S
C385 O391 1.208 . S
C386 O378 1.315 . S
C386 O381 1.279 . S
C387 O388 1.315 . S
C387 O389 1.279 . S
O388 Cd380 2.223 . S
O388 C387 1.315 . S
O389 Cd379 2.240 . S
O389 C387 1.279 . S
O390 Cd380 2.297 . S
O390 C385 1.247 . S
O391 Cd380 2.439 . S
O391 C385 1.208 . S
O392 Cd393 2.223 . S
O392 C400 1.315 . S
Cd393 O392 2.223 . S
Cd393 O396 2.297 . S
Cd393 O397 2.439 . S
Cd393 O403 2.240 . S
Cd394 O395 2.240 . S
Cd394 O402 2.223 . S
Cd394 O404 2.297 . S
Cd394 O405 2.439 . S
O395 Cd394 2.240 . S
O395 C400 1.279 . S
O396 Cd393 2.297 . S
O396 C398 1.247 . S
O397 Cd393 2.439 . S
O397 C398 1.208 . S
C398 O396 1.247 . S
C398 O397 1.208 . S
C399 O404 1.247 . S
C399 O405 1.208 . S
C400 O392 1.315 . S
C400 O395 1.279 . S
C401 O402 1.315 . S
C401 O403 1.279 . S
O402 Cd394 2.223 . S
O402 C401 1.315 . S
O403 Cd393 2.240 . S
O403 C401 1.279 . S
O404 Cd394 2.297 . S
O404 C399 1.247 . S
O405 Cd394 2.439 . S
O405 C399 1.208 . S
O406 Cd407 2.223 . S
O406 C414 1.315 . S
Cd407 O406 2.223 . S
Cd407 O410 2.297 . S
Cd407 O411 2.439 . S
Cd407 O417 2.240 . S
Cd408 O409 2.240 . S
Cd408 O416 2.223 . S
Cd408 O418 2.297 . S
Cd408 O419 2.439 . S
O409 Cd408 2.240 . S
O409 C414 1.279 . S
O410 Cd407 2.297 . S
O410 C412 1.247 . S
O411 Cd407 2.439 . S
O411 C412 1.208 . S
C412 O410 1.247 . S
C412 O411 1.208 . S
C413 O418 1.247 . S
C413 O419 1.208 . S
C414 O406 1.315 . S
C414 O409 1.279 . S
C415 O416 1.315 . S
C415 O417 1.279 . S
O416 Cd408 2.223 . S
O416 C415 1.315 . S
O417 Cd407 2.240 . S
O417 C415 1.279 . S
O418 Cd408 2.297 . S
O418 C413 1.247 . S
O419 Cd408 2.439 . S
O419 C413 1.208 . S
O420 Cd421 2.223 1_556 S
O420 C428 1.315 . S
Cd421 O420 2.223 1_554 S
Cd421 O424 2.297 1_554 S
Cd421 O425 2.439 . S
Cd421 O431 2.240 . S
Cd422 O423 2.240 . S
Cd422 O430 2.223 . S
Cd422 O432 2.297 . S
Cd422 O433 2.439 . S
O423 Cd422 2.240 . S
O423 C428 1.279 1_554 S
O424 Cd421 2.297 1_556 S
O424 C426 1.247 1_556 S
O425 Cd421 2.439 . S
O425 C426 1.208 . S
C426 O424 1.247 1_554 S
C426 O425 1.208 . S
C427 O432 1.247 . S
C427 O433 1.208 . S
C428 O420 1.315 . S
C428 O423 1.279 1_556 S
C429 O430 1.315 . S
C429 O431 1.279 . S
O430 Cd422 2.223 . S
O430 C429 1.315 . S
O431 Cd421 2.240 . S
O431 C429 1.279 . S
O432 Cd422 2.297 . S
O432 C427 1.247 . S
O433 Cd422 2.439 . S
O433 C427 1.208 . S
O434 Cd435 2.223 . S
O434 C442 1.315 . S
Cd435 O434 2.223 . S
Cd435 O438 2.297 . S
Cd435 O439 2.439 . S
Cd435 O445 2.240 . S
Cd436 O437 2.240 . S
Cd436 O444 2.223 . S
Cd436 O446 2.297 . S
Cd436 O447 2.439 . S
O437 Cd436 2.240 . S
O437 C442 1.279 . S
O438 Cd435 2.297 . S
O438 C440 1.247 . S
O439 Cd435 2.439 . S
O439 C440 1.208 . S
C440 O438 1.247 . S
C440 O439 1.208 . S
C441 O446 1.247 . S
C441 O447 1.208 . S
C442 O434 1.315 . S
C442 O437 1.279 . S
C443 O444 1.315 . S
C443 O445 1.279 . S
O444 Cd436 2.223 . S
O444 C443 1.315 . S
O445 Cd435 2.240 . S
O445 C443 1.279 . S
O446 Cd436 2.297 . S
O446 C441 1.247 . S
O447 Cd436 2.439 . S
O447 C441 1.208 . S
H448 C454 0.930 . S
H449 C458 0.930 . S
H450 C463 0.929 . S
H451 C461 0.929 . S
H452 C456 0.929 . S
H453 C462 0.929 . S
C454 H448 0.930 . S
C454 C455 1.367 . S
C454 C462 1.378 . S
C455 C454 1.367 . S
C455 C463 1.433 . S
C456 H452 0.929 . S
C456 C458 1.378 1_556 S
C456 C460 1.350 . S
C457 C460 1.463 . S
C457 C462 1.350 . S
C457 N465 1.427 . S
C458 H449 0.930 . S
C458 C456 1.378 1_554 S
C458 C459 1.367 . S
C459 C458 1.367 . S
C459 C461 1.433 . S
C460 C456 1.350 . S
C460 C457 1.463 . S
C460 N464 1.427 . S
C461 H451 0.929 . S
C461 C459 1.433 . S
C461 N464 1.384 1_554 S
C462 H453 0.929 . S
C462 C454 1.378 . S
C462 C457 1.350 . S
C463 H450 0.929 . S
C463 C455 1.433 . S
C463 N465 1.384 . S
N464 C460 1.427 . S
N464 C461 1.384 1_556 S
N465 C457 1.427 . S
N465 C463 1.384 . S
H466 C472 0.930 . S
H467 C476 0.930 . S
H468 C481 0.929 . S
H469 C479 0.929 . S
H470 C474 0.929 . S
H471 C480 0.929 . S
C472 H466 0.930 . S
C472 C473 1.367 . S
C472 C480 1.378 . S
C473 C472 1.367 . S
C473 C481 1.433 . S
C474 H470 0.929 . S
C474 C476 1.378 . S
C474 C478 1.350 . S
C475 C478 1.463 . S
C475 C480 1.350 . S
C475 N483 1.427 . S
C476 H467 0.930 . S
C476 C474 1.378 . S
C476 C477 1.367 . S
C477 C476 1.367 . S
C477 C479 1.433 . S
C478 C474 1.350 . S
C478 C475 1.463 . S
C478 N482 1.427 . S
C479 H469 0.929 . S
C479 C477 1.433 . S
C479 N482 1.384 . S
C480 H471 0.929 . S
C480 C472 1.378 . S
C480 C475 1.350 . S
C481 H468 0.929 . S
C481 C473 1.433 . S
C481 N483 1.384 . S
N482 C478 1.427 . S
N482 C479 1.384 . S
N483 C475 1.427 . S
N483 C481 1.384 . S
H484 C490 0.930 . S
H485 C494 0.930 . S
H486 C499 0.929 . S
H487 C497 0.929 . S
H488 C492 0.929 . S
H489 C498 0.929 . S
C490 H484 0.930 . S
C490 C491 1.367 . S
C490 C498 1.378 . S
C491 C490 1.367 . S
C491 C499 1.433 . S
C492 H488 0.929 . S
C492 C494 1.378 . S
C492 C496 1.350 . S
C493 C496 1.463 . S
C493 C498 1.350 . S
C493 N501 1.427 . S
C494 H485 0.930 . S
C494 C492 1.378 . S
C494 C495 1.367 . S
C495 C494 1.367 . S
C495 C497 1.433 . S
C496 C492 1.350 . S
C496 C493 1.463 . S
C496 N500 1.427 . S
C497 H487 0.929 . S
C497 C495 1.433 . S
C497 N500 1.384 . S
C498 H489 0.929 . S
C498 C490 1.378 . S
C498 C493 1.350 . S
C499 H486 0.929 . S
C499 C491 1.433 . S
C499 N501 1.384 . S
N500 C496 1.427 . S
N500 C497 1.384 . S
N501 C493 1.427 . S
N501 C499 1.384 . S
H502 C508 0.930 . S
H503 C512 0.930 . S
H504 C517 0.929 . S
H505 C515 0.929 . S
H506 C510 0.929 . S
H507 C516 0.929 . S
C508 H502 0.930 . S
C508 C509 1.367 . S
C508 C516 1.378 . S
C509 C508 1.367 . S
C509 C517 1.433 . S
C510 H506 0.929 . S
C510 C512 1.378 . S
C510 C514 1.350 . S
C511 C514 1.463 . S
C511 C516 1.350 . S
C511 N519 1.427 . S
C512 H503 0.930 . S
C512 C510 1.378 . S
C512 C513 1.367 . S
C513 C512 1.367 . S
C513 C515 1.433 . S
C514 C510 1.350 . S
C514 C511 1.463 . S
C514 N518 1.427 . S
C515 H505 0.929 . S
C515 C513 1.433 . S
C515 N518 1.384 . S
C516 H507 0.929 . S
C516 C508 1.378 . S
C516 C511 1.350 . S
C517 H504 0.929 . S
C517 C509 1.433 . S
C517 N519 1.384 . S
N518 C514 1.427 . S
N518 C515 1.384 . S
N519 C511 1.427 . S
N519 C517 1.384 . S
H520 C526 0.930 . S
H521 C530 0.930 . S
H522 C535 0.929 . S
H523 C533 0.929 . S
H524 C528 0.929 . S
H525 C534 0.929 . S
C526 H520 0.930 . S
C526 C527 1.367 . S
C526 C534 1.378 . S
C527 C526 1.367 . S
C527 C535 1.433 . S
C528 H524 0.929 . S
C528 C530 1.378 . S
C528 C532 1.350 . S
C529 C532 1.463 . S
C529 C534 1.350 . S
C529 N537 1.427 . S
C530 H521 0.930 . S
C530 C528 1.378 . S
C530 C531 1.367 . S
C531 C530 1.367 . S
C531 C533 1.433 . S
C532 C528 1.350 . S
C532 C529 1.463 . S
C532 N536 1.427 . S
C533 H523 0.929 . S
C533 C531 1.433 . S
C533 N536 1.384 . S
C534 H525 0.929 . S
C534 C526 1.378 . S
C534 C529 1.350 . S
C535 H522 0.929 . S
C535 C527 1.433 . S
C535 N537 1.384 . S
N536 C532 1.427 . S
N536 C533 1.384 . S
N537 C529 1.427 . S
N537 C535 1.384 . S
H538 C544 0.930 . S
H539 C548 0.930 . S
H540 C553 0.929 . S
H541 C551 0.929 . S
H542 C546 0.929 . S
H543 C552 0.929 1_554 S
C544 H538 0.930 . S
C544 C545 1.367 . S
C544 C552 1.378 . S
C545 C544 1.367 . S
C545 C553 1.433 . S
C546 H542 0.929 . S
C546 C548 1.378 . S
C546 C550 1.350 . S
C547 C550 1.463 . S
C547 C552 1.350 . S
C547 N555 1.427 . S
C548 H539 0.930 . S
C548 C546 1.378 . S
C548 C549 1.367 1_556 S
C549 C548 1.367 1_554 S
C549 C551 1.433 . S
C550 C546 1.350 . S
C550 C547 1.463 . S
C550 N554 1.427 1_556 S
C551 H541 0.929 . S
C551 C549 1.433 . S
C551 N554 1.384 . S
C552 H543 0.929 1_556 S
C552 C544 1.378 . S
C552 C547 1.350 . S
C553 H540 0.929 . S
C553 C545 1.433 . S
C553 N555 1.384 . S
N554 C550 1.427 1_554 S
N554 C551 1.384 . S
N555 C547 1.427 . S
N555 C553 1.384 . S
H556 C562 0.930 . S
H557 C566 0.930 . S
H558 C571 0.929 . S
H559 C569 0.929 . S
H560 C564 0.929 . S
H561 C570 0.929 . S
C562 H556 0.930 . S
C562 C563 1.367 . S
C562 C570 1.378 . S
C563 C562 1.367 . S
C563 C571 1.433 . S
C564 H560 0.929 . S
C564 C566 1.378 . S
C564 C568 1.350 . S
C565 C568 1.463 . S
C565 C570 1.350 . S
C565 N573 1.427 . S
C566 H557 0.930 . S
C566 C564 1.378 . S
C566 C567 1.367 . S
C567 C566 1.367 . S
C567 C569 1.433 . S
C568 C564 1.350 . S
C568 C565 1.463 . S
C568 N572 1.427 . S
C569 H559 0.929 . S
C569 C567 1.433 . S
C569 N572 1.384 . S
C570 H561 0.929 . S
C570 C562 1.378 . S
C570 C565 1.350 . S
C571 H558 0.929 . S
C571 C563 1.433 . S
C571 N573 1.384 . S
N572 C568 1.427 . S
N572 C569 1.384 . S
N573 C565 1.427 . S
N573 C571 1.384 . S
H574 C580 0.930 . S
H575 C584 0.930 . S
H576 C589 0.929 . S
H577 C587 0.929 . S
H578 C582 0.929 . S
H579 C588 0.929 . S
C580 H574 0.930 . S
C580 C581 1.367 . S
C580 C588 1.378 . S
C581 C580 1.367 . S
C581 C589 1.433 . S
C582 H578 0.929 . S
C582 C584 1.378 . S
C582 C586 1.350 . S
C583 C586 1.463 . S
C583 C588 1.350 . S
C583 N591 1.427 . S
C584 H575 0.930 . S
C584 C582 1.378 . S
C584 C585 1.367 . S
C585 C584 1.367 . S
C585 C587 1.433 . S
C586 C582 1.350 . S
C586 C583 1.463 . S
C586 N590 1.427 . S
C587 H577 0.929 . S
C587 C585 1.433 . S
C587 N590 1.384 . S
C588 H579 0.929 . S
C588 C580 1.378 . S
C588 C583 1.350 . S
C589 H576 0.929 . S
C589 C581 1.433 . S
C589 N591 1.384 . S
N590 C586 1.427 . S
N590 C587 1.384 . S
N591 C583 1.427 . S
N591 C589 1.384 . S
H592 C598 0.930 . S
H593 C602 0.930 . S
H594 C607 0.929 . S
H595 C605 0.929 . S
H596 C600 0.929 . S
H597 C606 0.929 . S
C598 H592 0.930 . S
C598 C599 1.367 . S
C598 C606 1.378 . S
C599 C598 1.367 . S
C599 C607 1.433 . S
C600 H596 0.929 . S
C600 C602 1.378 . S
C600 C604 1.350 . S
C601 C604 1.463 . S
C601 C606 1.350 . S
C601 N609 1.427 . S
C602 H593 0.930 . S
C602 C600 1.378 . S
C602 C603 1.367 . S
C603 C602 1.367 . S
C603 C605 1.433 . S
C604 C600 1.350 . S
C604 C601 1.463 . S
C604 N608 1.427 . S
C605 H595 0.929 . S
C605 C603 1.433 . S
C605 N608 1.384 . S
C606 H597 0.929 . S
C606 C598 1.378 . S
C606 C601 1.350 . S
C607 H594 0.929 . S
C607 C599 1.433 . S
C607 N609 1.384 . S
N608 C604 1.427 . S
N608 C605 1.384 . S
N609 C601 1.427 . S
N609 C607 1.384 . S
H610 C616 0.930 . S
H611 C620 0.930 . S
H612 C625 0.929 . S
H613 C623 0.929 . S
H614 C618 0.929 . S
H615 C624 0.929 . S
C616 H610 0.930 . S
C616 C617 1.367 . S
C616 C624 1.378 . S
C617 C616 1.367 . S
C617 C625 1.433 . S
C618 H614 0.929 . S
C618 C620 1.378 . S
C618 C622 1.350 . S
C619 C622 1.463 . S
C619 C624 1.350 . S
C619 N627 1.427 . S
C620 H611 0.930 . S
C620 C618 1.378 . S
C620 C621 1.367 . S
C621 C620 1.367 . S
C621 C623 1.433 . S
C622 C618 1.350 . S
C622 C619 1.463 . S
C622 N626 1.427 . S
C623 H613 0.929 . S
C623 C621 1.433 . S
C623 N626 1.384 . S
C624 H615 0.929 . S
C624 C616 1.378 . S
C624 C619 1.350 . S
C625 H612 0.929 . S
C625 C617 1.433 . S
C625 N627 1.384 . S
N626 C622 1.427 . S
N626 C623 1.384 . S
N627 C619 1.427 . S
N627 C625 1.384 . S
H628 C634 0.930 . S
H629 C638 0.930 . S
H630 C643 0.929 . S
H631 C641 0.929 . S
H632 C636 0.929 . S
H633 C642 0.929 . S
C634 H628 0.930 . S
C634 C635 1.367 . S
C634 C642 1.378 . S
C635 C634 1.367 . S
C635 C643 1.433 . S
C636 H632 0.929 . S
C636 C638 1.378 1_556 S
C636 C640 1.350 . S
C637 C640 1.463 . S
C637 C642 1.350 . S
C637 N645 1.427 . S
C638 H629 0.930 . S
C638 C636 1.378 1_554 S
C638 C639 1.367 . S
C639 C638 1.367 . S
C639 C641 1.433 . S
C640 C636 1.350 . S
C640 C637 1.463 . S
C640 N644 1.427 . S
C641 H631 0.929 . S
C641 C639 1.433 . S
C641 N644 1.384 1_554 S
C642 H633 0.929 . S
C642 C634 1.378 . S
C642 C637 1.350 . S
C643 H630 0.929 . S
C643 C635 1.433 . S
C643 N645 1.384 . S
N644 C640 1.427 . S
N644 C641 1.384 1_556 S
N645 C637 1.427 . S
N645 C643 1.384 . S
H646 C652 0.930 . S
H647 C656 0.930 . S
H648 C661 0.929 . S
H649 C659 0.929 . S
H650 C654 0.929 . S
H651 C660 0.929 . S
C652 H646 0.930 . S
C652 C653 1.367 . S
C652 C660 1.378 . S
C653 C652 1.367 . S
C653 C661 1.433 . S
C654 H650 0.929 . S
C654 C656 1.378 . S
C654 C658 1.350 . S
C655 C658 1.463 . S
C655 C660 1.350 . S
C655 N663 1.427 . S
C656 H647 0.930 . S
C656 C654 1.378 . S
C656 C657 1.367 . S
C657 C656 1.367 . S
C657 C659 1.433 . S
C658 C654 1.350 . S
C658 C655 1.463 . S
C658 N662 1.427 . S
C659 H649 0.929 . S
C659 C657 1.433 . S
C659 N662 1.384 . S
C660 H651 0.929 . S
C660 C652 1.378 . S
C660 C655 1.350 . S
C661 H648 0.929 . S
C661 C653 1.433 . S
C661 N663 1.384 . S
N662 C658 1.427 . S
N662 C659 1.384 . S
N663 C655 1.427 . S
N663 C661 1.384 . S
H664 C670 0.930 . S
H665 C674 0.930 . S
H666 C679 0.929 . S
H667 C677 0.929 . S
H668 C672 0.929 . S
H669 C678 0.929 . S
C670 H664 0.930 . S
C670 C671 1.367 . S
C670 C678 1.378 . S
C671 C670 1.367 . S
C671 C679 1.433 . S
C672 H668 0.929 . S
C672 C674 1.378 . S
C672 C676 1.350 . S
C673 C676 1.463 . S
C673 C678 1.350 . S
C673 N681 1.427 . S
C674 H665 0.930 . S
C674 C672 1.378 . S
C674 C675 1.367 . S
C675 C674 1.367 . S
C675 C677 1.433 . S
C676 C672 1.350 . S
C676 C673 1.463 . S
C676 N680 1.427 . S
C677 H667 0.929 . S
C677 C675 1.433 . S
C677 N680 1.384 . S
C678 H669 0.929 . S
C678 C670 1.378 . S
C678 C673 1.350 . S
C679 H666 0.929 . S
C679 C671 1.433 . S
C679 N681 1.384 . S
N680 C676 1.427 . S
N680 C677 1.384 . S
N681 C673 1.427 . S
N681 C679 1.384 . S
H682 C688 0.930 . S
H683 C692 0.930 . S
H684 C697 0.929 . S
H685 C695 0.929 . S
H686 C690 0.929 . S
H687 C696 0.929 . S
C688 H682 0.930 . S
C688 C689 1.367 . S
C688 C696 1.378 . S
C689 C688 1.367 . S
C689 C697 1.433 . S
C690 H686 0.929 . S
C690 C692 1.378 . S
C690 C694 1.350 . S
C691 C694 1.463 . S
C691 C696 1.350 . S
C691 N699 1.427 . S
C692 H683 0.930 . S
C692 C690 1.378 . S
C692 C693 1.367 . S
C693 C692 1.367 . S
C693 C695 1.433 . S
C694 C690 1.350 . S
C694 C691 1.463 . S
C694 N698 1.427 . S
C695 H685 0.929 . S
C695 C693 1.433 . S
C695 N698 1.384 . S
C696 H687 0.929 . S
C696 C688 1.378 . S
C696 C691 1.350 . S
C697 H684 0.929 . S
C697 C689 1.433 . S
C697 N699 1.384 . S
N698 C694 1.427 . S
N698 C695 1.384 . S
N699 C691 1.427 . S
N699 C697 1.384 . S
H700 C706 0.930 . S
H701 C710 0.930 . S
H702 C715 0.929 . S
H703 C713 0.929 . S
H704 C708 0.929 . S
H705 C714 0.929 . S
C706 H700 0.930 . S
C706 C707 1.367 . S
C706 C714 1.378 . S
C707 C706 1.367 . S
C707 C715 1.433 . S
C708 H704 0.929 . S
C708 C710 1.378 . S
C708 C712 1.350 . S
C709 C712 1.463 . S
C709 C714 1.350 . S
C709 N717 1.427 . S
C710 H701 0.930 . S
C710 C708 1.378 . S
C710 C711 1.367 . S
C711 C710 1.367 . S
C711 C713 1.433 . S
C712 C708 1.350 . S
C712 C709 1.463 . S
C712 N716 1.427 . S
C713 H703 0.929 . S
C713 C711 1.433 . S
C713 N716 1.384 . S
C714 H705 0.929 . S
C714 C706 1.378 . S
C714 C709 1.350 . S
C715 H702 0.929 . S
C715 C707 1.433 . S
C715 N717 1.384 . S
N716 C712 1.427 . S
N716 C713 1.384 . S
N717 C709 1.427 . S
N717 C715 1.384 . S
H718 C724 0.930 . S
H719 C728 0.930 . S
H720 C733 0.929 . S
H721 C731 0.929 . S
H722 C726 0.929 . S
H723 C732 0.929 1_554 S
C724 H718 0.930 . S
C724 C725 1.367 . S
C724 C732 1.378 . S
C725 C724 1.367 . S
C725 C733 1.433 . S
C726 H722 0.929 . S
C726 C728 1.378 . S
C726 C730 1.350 . S
C727 C730 1.463 . S
C727 C732 1.350 . S
C727 N735 1.427 . S
C728 H719 0.930 . S
C728 C726 1.378 . S
C728 C729 1.367 1_556 S
C729 C728 1.367 1_554 S
C729 C731 1.433 . S
C730 C726 1.350 . S
C730 C727 1.463 . S
C730 N734 1.427 1_556 S
C731 H721 0.929 . S
C731 C729 1.433 . S
C731 N734 1.384 . S
C732 H723 0.929 1_556 S
C732 C724 1.378 . S
C732 C727 1.350 . S
C733 H720 0.929 . S
C733 C725 1.433 . S
C733 N735 1.384 . S
N734 C730 1.427 1_554 S
N734 C731 1.384 . S
N735 C727 1.427 . S
N735 C733 1.384 . S
H736 C742 0.930 . S
H737 C746 0.930 . S
H738 C751 0.929 . S
H739 C749 0.929 . S
H740 C744 0.929 . S
H741 C750 0.929 . S
C742 H736 0.930 . S
C742 C743 1.367 . S
C742 C750 1.378 . S
C743 C742 1.367 . S
C743 C751 1.433 . S
C744 H740 0.929 . S
C744 C746 1.378 . S
C744 C748 1.350 . S
C745 C748 1.463 . S
C745 C750 1.350 . S
C745 N753 1.427 . S
C746 H737 0.930 . S
C746 C744 1.378 . S
C746 C747 1.367 . S
C747 C746 1.367 . S
C747 C749 1.433 . S
C748 C744 1.350 . S
C748 C745 1.463 . S
C748 N752 1.427 . S
C749 H739 0.929 . S
C749 C747 1.433 . S
C749 N752 1.384 . S
C750 H741 0.929 . S
C750 C742 1.378 . S
C750 C745 1.350 . S
C751 H738 0.929 . S
C751 C743 1.433 . S
C751 N753 1.384 . S
N752 C748 1.427 . S
N752 C749 1.384 . S
N753 C745 1.427 . S
N753 C751 1.384 . S
H754 C760 0.930 . S
H755 C764 0.930 . S
H756 C769 0.929 . S
H757 C767 0.929 . S
H758 C762 0.929 . S
H759 C768 0.929 . S
C760 H754 0.930 . S
C760 C761 1.367 . S
C760 C768 1.378 . S
C761 C760 1.367 . S
C761 C769 1.433 1_565 S
C762 H758 0.929 . S
C762 C764 1.378 . S
C762 C766 1.350 . S
C763 C766 1.475 . S
C763 C768 1.326 1_545 S
C763 N771 1.441 . S
C764 H755 0.930 . S
C764 C762 1.378 . S
C764 C765 1.367 1_554 S
C765 C764 1.367 1_556 S
C765 C767 1.433 . S
C766 C762 1.350 . S
C766 C763 1.475 . S
C766 N770 1.431 1_545 S
C767 H757 0.929 . S
C767 C765 1.433 . S
C767 N770 1.386 1_546 S
C768 H759 0.929 . S
C768 C760 1.378 . S
C768 C763 1.326 1_565 S
C769 H756 0.929 . S
C769 C761 1.433 1_545 S
C769 N771 1.384 . S
N770 C766 1.431 1_565 S
N770 C767 1.386 1_564 S
N771 C763 1.441 . S
N771 C769 1.384 . S
H772 C778 0.930 . S
H773 C782 0.930 . S
H774 C787 0.929 . S
H775 C785 0.929 . S
H776 C780 0.929 . S
H777 C786 0.929 . S
C778 H772 0.930 . S
C778 C779 1.367 . S
C778 C786 1.378 . S
C779 C778 1.367 . S
C779 C787 1.433 . S
C780 H776 0.929 . S
C780 C782 1.378 . S
C780 C784 1.350 . S
C781 C784 1.463 . S
C781 C786 1.350 . S
C781 N789 1.427 . S
C782 H773 0.930 . S
C782 C780 1.378 . S
C782 C783 1.367 . S
C783 C782 1.367 . S
C783 C785 1.433 . S
C784 C780 1.350 . S
C784 C781 1.463 . S
C784 N788 1.427 . S
C785 H775 0.929 . S
C785 C783 1.433 . S
C785 N788 1.384 . S
C786 H777 0.929 . S
C786 C778 1.378 . S
C786 C781 1.350 . S
C787 H774 0.929 . S
C787 C779 1.433 . S
C787 N789 1.384 . S
N788 C784 1.427 . S
N788 C785 1.384 . S
N789 C781 1.427 . S
N789 C787 1.384 . S
H790 C796 0.930 . S
H791 C800 0.930 . S
H792 C805 0.929 . S
H793 C803 0.929 . S
H794 C798 0.929 . S
H795 C804 0.929 . S
C796 H790 0.930 . S
C796 C797 1.367 . S
C796 C804 1.378 . S
C797 C796 1.367 . S
C797 C805 1.433 . S
C798 H794 0.929 . S
C798 C800 1.378 . S
C798 C802 1.324 1_565 S
C799 C802 1.477 . S
C799 C804 1.350 . S
C799 N807 1.443 . S
C800 H791 0.930 . S
C800 C798 1.378 . S
C800 C801 1.367 . S
C801 C800 1.367 . S
C801 C803 1.433 1_565 S
C802 C798 1.324 1_545 S
C802 C799 1.477 . S
C802 N806 1.442 . S
C803 H793 0.929 . S
C803 C801 1.433 1_545 S
C803 N806 1.384 . S
C804 H795 0.929 . S
C804 C796 1.378 . S
C804 C799 1.350 . S
C805 H792 0.929 . S
C805 C797 1.433 . S
C805 N807 1.397 . S
N806 C802 1.442 . S
N806 C803 1.384 . S
N807 C799 1.443 . S
N807 C805 1.397 . S
H808 C814 0.930 . S
H809 C818 0.930 . S
H810 C823 0.929 . S
H811 C821 0.929 . S
H812 C816 0.929 . S
H813 C822 0.929 . S
C814 H808 0.930 . S
C814 C815 1.367 . S
C814 C822 1.378 . S
C815 C814 1.367 . S
C815 C823 1.433 . S
C816 H812 0.929 . S
C816 C818 1.378 . S
C816 C820 1.350 . S
C817 C820 1.463 . S
C817 C822 1.350 . S
C817 N825 1.427 . S
C818 H809 0.930 . S
C818 C816 1.378 . S
C818 C819 1.367 . S
C819 C818 1.367 . S
C819 C821 1.433 . S
C820 C816 1.350 . S
C820 C817 1.463 . S
C820 N824 1.427 . S
C821 H811 0.929 . S
C821 C819 1.433 . S
C821 N824 1.384 . S
C822 H813 0.929 . S
C822 C814 1.378 . S
C822 C817 1.350 . S
C823 H810 0.929 . S
C823 C815 1.433 . S
C823 N825 1.384 . S
N824 C820 1.427 . S
N824 C821 1.384 . S
N825 C817 1.427 . S
N825 C823 1.384 . S
H826 C832 0.930 . S
H827 C836 0.950 . S
H828 C841 0.929 . S
H829 C839 0.929 . S
H830 C834 0.929 . S
H831 C840 0.929 1_565 S
C832 H826 0.930 . S
C832 C833 1.367 . S
C832 C840 1.378 1_556 S
C833 C832 1.367 . S
C833 C841 1.433 1_556 S
C834 H830 0.929 . S
C834 C836 1.399 . S
C834 C838 1.350 . S
C835 C838 1.463 . S
C835 C840 1.350 . S
C835 N843 1.427 . S
C836 H827 0.950 . S
C836 C834 1.399 . S
C836 C837 1.329 1_545 S
C837 C836 1.329 1_565 S
C837 C839 1.433 . S
C838 C834 1.350 . S
C838 C835 1.463 . S
C838 N842 1.427 1_545 S
C839 H829 0.929 . S
C839 C837 1.433 . S
C839 N842 1.384 . S
C840 H831 0.929 1_545 S
C840 C832 1.378 1_554 S
C840 C835 1.350 . S
C841 H828 0.929 . S
C841 C833 1.433 1_554 S
C841 N843 1.384 . S
N842 C838 1.427 1_565 S
N842 C839 1.384 . S
N843 C835 1.427 . S
N843 C841 1.384 . S
H844 C850 0.930 . S
H845 C854 0.930 . S
H846 C859 0.929 . S
H847 C857 0.929 . S
H848 C852 0.929 . S
H849 C858 0.929 . S
C850 H844 0.930 . S
C850 C851 1.367 . S
C850 C858 1.378 . S
C851 C850 1.367 . S
C851 C859 1.433 . S
C852 H848 0.929 . S
C852 C854 1.378 . S
C852 C856 1.350 . S
C853 C856 1.463 . S
C853 C858 1.350 . S
C853 N861 1.427 . S
C854 H845 0.930 . S
C854 C852 1.378 . S
C854 C855 1.367 . S
C855 C854 1.367 . S
C855 C857 1.433 . S
C856 C852 1.350 . S
C856 C853 1.463 . S
C856 N860 1.427 . S
C857 H847 0.929 . S
C857 C855 1.433 . S
C857 N860 1.384 . S
C858 H849 0.929 . S
C858 C850 1.378 . S
C858 C853 1.350 . S
C859 H846 0.929 . S
C859 C851 1.433 . S
C859 N861 1.384 . S
N860 C856 1.427 . S
N860 C857 1.384 . S
N861 C853 1.427 . S
N861 C859 1.384 . S
H862 C868 0.930 . S
H863 C872 0.930 . S
H864 C877 0.929 1_565 S
H865 C875 0.929 . S
H866 C870 0.929 . S
H867 C876 0.929 . S
C868 H862 0.930 . S
C868 C869 1.367 . S
C868 C876 1.378 . S
C869 C868 1.367 . S
C869 C877 1.433 . S
C870 H866 0.929 . S
C870 C872 1.378 . S
C870 C874 1.327 1_565 S
C871 C874 1.472 . S
C871 C876 1.350 . S
C871 N879 1.427 1_545 S
C872 H863 0.930 . S
C872 C870 1.378 . S
C872 C873 1.367 . S
C873 C872 1.367 . S
C873 C875 1.433 1_565 S
C874 C870 1.327 1_545 S
C874 C871 1.472 . S
C874 N878 1.442 . S
C875 H865 0.929 . S
C875 C873 1.433 1_545 S
C875 N878 1.384 . S
C876 H867 0.929 . S
C876 C868 1.378 . S
C876 C871 1.350 . S
C877 H864 0.929 1_545 S
C877 C869 1.433 . S
C877 N879 1.384 1_545 S
N878 C874 1.442 . S
N878 C875 1.384 . S
N879 C871 1.427 1_565 S
N879 C877 1.384 1_565 S
H880 C886 0.930 . S
H881 C890 0.930 . S
H882 C895 0.929 . S
H883 C893 0.929 . S
H884 C888 0.929 . S
H885 C894 0.929 . S
C886 H880 0.930 . S
C886 C887 1.367 . S
C886 C894 1.378 . S
C887 C886 1.367 . S
C887 C895 1.433 . S
C888 H884 0.929 . S
C888 C890 1.378 . S
C888 C892 1.350 . S
C889 C892 1.463 . S
C889 C894 1.350 . S
C889 N897 1.427 . S
C890 H881 0.930 . S
C890 C888 1.378 . S
C890 C891 1.367 . S
C891 C890 1.367 . S
C891 C893 1.433 . S
C892 C888 1.350 . S
C892 C889 1.463 . S
C892 N896 1.427 . S
C893 H883 0.929 . S
C893 C891 1.433 . S
C893 N896 1.384 . S
C894 H885 0.929 . S
C894 C886 1.378 . S
C894 C889 1.350 . S
C895 H882 0.929 . S
C895 C887 1.433 . S
C895 N897 1.384 . S
N896 C892 1.427 . S
N896 C893 1.384 . S
N897 C889 1.427 . S
N897 C895 1.384 . S
H898 C904 0.930 . S
H899 C908 0.930 . S
H900 C913 0.929 . S
H901 C911 0.929 . S
H902 C906 0.929 . S
H903 C912 0.929 . S
C904 H898 0.930 . S
C904 C905 1.367 . S
C904 C912 1.378 . S
C905 C904 1.367 . S
C905 C913 1.433 . S
C906 H902 0.929 . S
C906 C908 1.378 . S
C906 C910 1.350 . S
C907 C910 1.463 . S
C907 C912 1.350 . S
C907 N915 1.427 . S
C908 H899 0.930 . S
C908 C906 1.378 . S
C908 C909 1.367 . S
C909 C908 1.367 . S
C909 C911 1.433 . S
C910 C906 1.350 . S
C910 C907 1.463 . S
C910 N914 1.427 . S
C911 H901 0.929 . S
C911 C909 1.433 . S
C911 N914 1.384 . S
C912 H903 0.929 . S
C912 C904 1.378 . S
C912 C907 1.350 . S
C913 H900 0.929 . S
C913 C905 1.433 . S
C913 N915 1.384 . S
N914 C910 1.427 . S
N914 C911 1.384 . S
N915 C907 1.427 . S
N915 C913 1.384 . S
H916 C922 0.930 . S
H917 C926 0.930 . S
H918 C931 0.929 . S
H919 C929 0.929 . S
H920 C924 0.929 . S
H921 C930 0.929 . S
C922 H916 0.930 . S
C922 C923 1.367 . S
C922 C930 1.378 . S
C923 C922 1.367 . S
C923 C931 1.433 . S
C924 H920 0.929 . S
C924 C926 1.378 . S
C924 C928 1.350 . S
C925 C928 1.463 . S
C925 C930 1.350 . S
C925 N933 1.427 . S
C926 H917 0.930 . S
C926 C924 1.378 . S
C926 C927 1.367 . S
C927 C926 1.367 . S
C927 C929 1.433 . S
C928 C924 1.350 . S
C928 C925 1.463 . S
C928 N932 1.427 . S
C929 H919 0.929 . S
C929 C927 1.433 . S
C929 N932 1.384 . S
C930 H921 0.929 . S
C930 C922 1.378 . S
C930 C925 1.350 . S
C931 H918 0.929 . S
C931 C923 1.433 . S
C931 N933 1.384 . S
N932 C928 1.427 . S
N932 C929 1.384 . S
N933 C925 1.427 . S
N933 C931 1.384 . S
H934 C940 0.930 . S
H935 C944 0.930 . S
H936 C949 0.929 . S
H937 C947 0.929 . S
H938 C942 0.929 . S
H939 C948 0.929 . S
C940 H934 0.930 . S
C940 C941 1.367 . S
C940 C948 1.378 . S
C941 C940 1.367 . S
C941 C949 1.433 . S
C942 H938 0.929 . S
C942 C944 1.378 1_554 S
C942 C946 1.350 . S
C943 C946 1.463 . S
C943 C948 1.350 . S
C943 N951 1.427 . S
C944 H935 0.930 . S
C944 C942 1.378 1_556 S
C944 C945 1.367 . S
C945 C944 1.367 . S
C945 C947 1.433 1_556 S
C946 C942 1.350 . S
C946 C943 1.463 . S
C946 N950 1.427 . S
C947 H937 0.929 . S
C947 C945 1.433 1_554 S
C947 N950 1.384 . S
C948 H939 0.929 . S
C948 C940 1.378 . S
C948 C943 1.350 . S
C949 H936 0.929 . S
C949 C941 1.433 . S
C949 N951 1.384 . S
N950 C946 1.427 . S
N950 C947 1.384 . S
N951 C943 1.427 . S
N951 C949 1.384 . S
H952 C958 0.930 . S
H953 C962 0.930 . S
H954 C967 0.929 . S
H955 C965 0.929 . S
H956 C960 0.929 . S
H957 C966 0.929 . S
C958 H952 0.930 . S
C958 C959 1.367 . S
C958 C966 1.378 . S
C959 C958 1.367 . S
C959 C967 1.433 . S
C960 H956 0.929 . S
C960 C962 1.378 . S
C960 C964 1.350 . S
C961 C964 1.463 . S
C961 C966 1.350 . S
C961 N969 1.427 . S
C962 H953 0.930 . S
C962 C960 1.378 . S
C962 C963 1.367 . S
C963 C962 1.367 . S
C963 C965 1.433 . S
C964 C960 1.350 . S
C964 C961 1.463 . S
C964 N968 1.427 . S
C965 H955 0.929 . S
C965 C963 1.433 . S
C965 N968 1.384 . S
C966 H957 0.929 . S
C966 C958 1.378 . S
C966 C961 1.350 . S
C967 H954 0.929 . S
C967 C959 1.433 . S
C967 N969 1.384 . S
N968 C964 1.427 . S
N968 C965 1.384 . S
N969 C961 1.427 . S
N969 C967 1.384 . S
H970 C976 0.930 . S
H971 C980 0.930 . S
H972 C985 0.929 . S
H973 C983 0.929 . S
H974 C978 0.929 . S
H975 C984 0.929 . S
C976 H970 0.930 . S
C976 C977 1.367 . S
C976 C984 1.378 . S
C977 C976 1.367 . S
C977 C985 1.433 . S
C978 H974 0.929 . S
C978 C980 1.378 . S
C978 C982 1.350 . S
C979 C982 1.463 . S
C979 C984 1.350 . S
C979 N987 1.427 . S
C980 H971 0.930 . S
C980 C978 1.378 . S
C980 C981 1.367 . S
C981 C980 1.367 . S
C981 C983 1.433 . S
C982 C978 1.350 . S
C982 C979 1.463 . S
C982 N986 1.427 . S
C983 H973 0.929 . S
C983 C981 1.433 . S
C983 N986 1.384 . S
C984 H975 0.929 . S
C984 C976 1.378 . S
C984 C979 1.350 . S
C985 H972 0.929 . S
C985 C977 1.433 . S
C985 N987 1.384 . S
N986 C982 1.427 . S
N986 C983 1.384 . S
N987 C979 1.427 . S
N987 C985 1.384 . S
H988 C994 0.930 . S
H989 C998 0.930 . S
H990 C1003 0.929 . S
H991 C1001 0.929 . S
H992 C996 0.929 . S
H993 C1002 0.929 . S
C994 H988 0.930 . S
C994 C995 1.367 . S
C994 C1002 1.378 . S
C995 C994 1.367 . S
C995 C1003 1.433 . S
C996 H992 0.929 . S
C996 C998 1.378 . S
C996 C1000 1.350 . S
C997 C1000 1.463 . S
C997 C1002 1.350 . S
C997 N1005 1.427 . S
C998 H989 0.930 . S
C998 C996 1.378 . S
C998 C999 1.367 . S
C999 C998 1.367 . S
C999 C1001 1.433 . S
C1000 C996 1.350 . S
C1000 C997 1.463 . S
C1000 N1004 1.427 . S
C1001 H991 0.929 . S
C1001 C999 1.433 . S
C1001 N1004 1.384 . S
C1002 H993 0.929 . S
C1002 C994 1.378 . S
C1002 C997 1.350 . S
C1003 H990 0.929 . S
C1003 C995 1.433 . S
C1003 N1005 1.384 . S
N1004 C1000 1.427 . S
N1004 C1001 1.384 . S
N1005 C997 1.427 . S
N1005 C1003 1.384 . S
H1006 C1012 0.930 . S
H1007 C1016 0.930 . S
H1008 C1021 0.929 . S
H1009 C1019 0.929 . S
H1010 C1014 0.929 . S
H1011 C1020 0.929 . S
C1012 H1006 0.930 . S
C1012 C1013 1.367 . S
C1012 C1020 1.378 . S
C1013 C1012 1.367 . S
C1013 C1021 1.433 . S
C1014 H1010 0.929 . S
C1014 C1016 1.378 1_554 S
C1014 C1018 1.350 . S
C1015 C1018 1.463 . S
C1015 C1020 1.350 . S
C1015 N1023 1.427 . S
C1016 H1007 0.930 . S
C1016 C1014 1.378 1_556 S
C1016 C1017 1.367 . S
C1017 C1016 1.367 . S
C1017 C1019 1.433 1_556 S
C1018 C1014 1.350 . S
C1018 C1015 1.463 . S
C1018 N1022 1.427 . S
C1019 H1009 0.929 . S
C1019 C1017 1.433 1_554 S
C1019 N1022 1.384 . S
C1020 H1011 0.929 . S
C1020 C1012 1.378 . S
C1020 C1015 1.350 . S
C1021 H1008 0.929 . S
C1021 C1013 1.433 . S
C1021 N1023 1.384 . S
N1022 C1018 1.427 . S
N1022 C1019 1.384 . S
N1023 C1015 1.427 . S
N1023 C1021 1.384 . S
H1024 C1030 0.930 1_556 S
H1025 C1034 0.930 . S
H1026 C1039 0.929 . S
H1027 C1037 0.929 1_556 S
H1028 C1032 0.929 . S
H1029 C1038 0.929 1_556 S
C1030 H1024 0.930 1_554 S
C1030 C1031 1.367 . S
C1030 C1038 1.378 . S
C1031 C1030 1.367 . S
C1031 C1039 1.433 . S
C1032 H1028 0.929 . S
C1032 C1034 1.378 . S
C1032 C1036 1.350 . S
C1033 C1036 1.463 . S
C1033 C1038 1.350 . S
C1033 N1041 1.427 . S
C1034 H1025 0.930 . S
C1034 C1032 1.378 . S
C1034 C1035 1.367 . S
C1035 C1034 1.367 . S
C1035 C1037 1.433 . S
C1036 C1032 1.350 . S
C1036 C1033 1.463 . S
C1036 N1040 1.427 . S
C1037 H1027 0.929 1_554 S
C1037 C1035 1.433 . S
C1037 N1040 1.384 . S
C1038 H1029 0.929 1_554 S
C1038 C1030 1.378 . S
C1038 C1033 1.350 . S
C1039 H1026 0.929 . S
C1039 C1031 1.433 . S
C1039 N1041 1.384 . S
N1040 C1036 1.427 . S
N1040 C1037 1.384 . S
N1041 C1033 1.427 . S
N1041 C1039 1.384 . S
H1042 C1048 0.930 . S
H1043 C1052 0.930 . S
H1044 C1057 0.929 . S
H1045 C1055 0.929 . S
H1046 C1050 0.929 . S
H1047 C1056 0.929 . S
C1048 H1042 0.930 . S
C1048 C1049 1.367 . S
C1048 C1056 1.378 . S
C1049 C1048 1.367 . S
C1049 C1057 1.433 . S
C1050 H1046 0.929 . S
C1050 C1052 1.378 . S
C1050 C1054 1.350 . S
C1051 C1054 1.463 1_455 S
C1051 C1056 1.350 . S
C1051 N1059 1.427 . S
C1052 H1043 0.930 . S
C1052 C1050 1.378 . S
C1052 C1053 1.367 . S
C1053 C1052 1.367 . S
C1053 C1055 1.433 . S
C1054 C1050 1.350 . S
C1054 C1051 1.463 1_655 S
C1054 N1058 1.427 . S
C1055 H1045 0.929 . S
C1055 C1053 1.433 . S
C1055 N1058 1.384 . S
C1056 H1047 0.929 . S
C1056 C1048 1.378 . S
C1056 C1051 1.350 . S
C1057 H1044 0.929 . S
C1057 C1049 1.433 . S
C1057 N1059 1.384 . S
N1058 C1054 1.427 . S
N1058 C1055 1.384 . S
N1059 C1051 1.427 . S
N1059 C1057 1.384 . S
H1060 C1066 0.930 . S
H1061 C1070 0.930 . S
H1062 C1075 0.929 . S
H1063 C1073 0.929 . S
H1064 C1068 0.929 . S
H1065 C1074 0.929 . S
C1066 H1060 0.930 . S
C1066 C1067 1.367 . S
C1066 C1074 1.378 . S
C1067 C1066 1.367 . S
C1067 C1075 1.433 . S
C1068 H1064 0.929 . S
C1068 C1070 1.378 . S
C1068 C1072 1.350 . S
C1069 C1072 1.463 . S
C1069 C1074 1.350 . S
C1069 N1077 1.427 . S
C1070 H1061 0.930 . S
C1070 C1068 1.378 . S
C1070 C1071 1.367 . S
C1071 C1070 1.367 . S
C1071 C1073 1.433 . S
C1072 C1068 1.350 . S
C1072 C1069 1.463 . S
C1072 N1076 1.427 . S
C1073 H1063 0.929 . S
C1073 C1071 1.433 . S
C1073 N1076 1.384 . S
C1074 H1065 0.929 . S
C1074 C1066 1.378 . S
C1074 C1069 1.350 . S
C1075 H1062 0.929 . S
C1075 C1067 1.433 . S
C1075 N1077 1.384 . S
N1076 C1072 1.427 . S
N1076 C1073 1.384 . S
N1077 C1069 1.427 . S
N1077 C1075 1.384 . S
H1078 C1084 0.930 . S
H1079 C1088 0.930 . S
H1080 C1093 0.929 . S
H1081 C1091 0.929 . S
H1082 C1086 0.929 . S
H1083 C1092 0.929 . S
C1084 H1078 0.930 . S
C1084 C1085 1.367 . S
C1084 C1092 1.378 . S
C1085 C1084 1.367 . S
C1085 C1093 1.433 . S
C1086 H1082 0.929 . S
C1086 C1088 1.378 . S
C1086 C1090 1.350 . S
C1087 C1090 1.463 . S
C1087 C1092 1.350 . S
C1087 N1095 1.427 . S
C1088 H1079 0.930 . S
C1088 C1086 1.378 . S
C1088 C1089 1.367 . S
C1089 C1088 1.367 . S
C1089 C1091 1.433 . S
C1090 C1086 1.350 . S
C1090 C1087 1.463 . S
C1090 N1094 1.427 . S
C1091 H1081 0.929 . S
C1091 C1089 1.433 . S
C1091 N1094 1.384 . S
C1092 H1083 0.929 . S
C1092 C1084 1.378 . S
C1092 C1087 1.350 . S
C1093 H1080 0.929 . S
C1093 C1085 1.433 . S
C1093 N1095 1.384 . S
N1094 C1090 1.427 . S
N1094 C1091 1.384 . S
N1095 C1087 1.427 . S
N1095 C1093 1.384 . S
H1096 C1102 0.930 . S
H1097 C1106 0.930 . S
H1098 C1111 0.929 . S
H1099 C1109 0.929 . S
H1100 C1104 0.929 . S
H1101 C1110 0.929 . S
C1102 H1096 0.930 . S
C1102 C1103 1.367 . S
C1102 C1110 1.378 . S
C1103 C1102 1.367 . S
C1103 C1111 1.433 . S
C1104 H1100 0.929 . S
C1104 C1106 1.378 . S
C1104 C1108 1.350 . S
C1105 C1108 1.463 . S
C1105 C1110 1.350 . S
C1105 N1113 1.427 . S
C1106 H1097 0.930 . S
C1106 C1104 1.378 . S
C1106 C1107 1.367 . S
C1107 C1106 1.367 . S
C1107 C1109 1.433 . S
C1108 C1104 1.350 . S
C1108 C1105 1.463 . S
C1108 N1112 1.427 . S
C1109 H1099 0.929 . S
C1109 C1107 1.433 . S
C1109 N1112 1.384 . S
C1110 H1101 0.929 . S
C1110 C1102 1.378 . S
C1110 C1105 1.350 . S
C1111 H1098 0.929 . S
C1111 C1103 1.433 . S
C1111 N1113 1.384 . S
N1112 C1108 1.427 . S
N1112 C1109 1.384 . S
N1113 C1105 1.427 . S
N1113 C1111 1.384 . S
H1114 C1120 0.930 . S
H1115 C1124 0.930 . S
H1116 C1129 0.929 . S
H1117 C1127 0.929 . S
H1118 C1122 0.929 . S
H1119 C1128 0.929 . S
C1120 H1114 0.930 . S
C1120 C1121 1.367 . S
C1120 C1128 1.378 . S
C1121 C1120 1.367 . S
C1121 C1129 1.433 . S
C1122 H1118 0.929 . S
C1122 C1124 1.378 . S
C1122 C1126 1.350 . S
C1123 C1126 1.463 . S
C1123 C1128 1.350 . S
C1123 N1131 1.427 . S
C1124 H1115 0.930 . S
C1124 C1122 1.378 . S
C1124 C1125 1.367 . S
C1125 C1124 1.367 . S
C1125 C1127 1.433 . S
C1126 C1122 1.350 . S
C1126 C1123 1.463 . S
C1126 N1130 1.427 . S
C1127 H1117 0.929 . S
C1127 C1125 1.433 . S
C1127 N1130 1.384 . S
C1128 H1119 0.929 . S
C1128 C1120 1.378 . S
C1128 C1123 1.350 . S
C1129 H1116 0.929 . S
C1129 C1121 1.433 . S
C1129 N1131 1.384 . S
N1130 C1126 1.427 . S
N1130 C1127 1.384 . S
N1131 C1123 1.427 . S
N1131 C1129 1.384 . S
H1132 C1138 0.930 . S
H1133 C1142 0.930 . S
H1134 C1147 0.929 . S
H1135 C1145 0.929 . S
H1136 C1140 0.929 . S
H1137 C1146 0.929 . S
C1138 H1132 0.930 . S
C1138 C1139 1.367 . S
C1138 C1146 1.378 . S
C1139 C1138 1.367 . S
C1139 C1147 1.433 . S
C1140 H1136 0.929 . S
C1140 C1142 1.378 . S
C1140 C1144 1.350 . S
C1141 C1144 1.463 . S
C1141 C1146 1.350 . S
C1141 N1149 1.427 . S
C1142 H1133 0.930 . S
C1142 C1140 1.378 . S
C1142 C1143 1.367 . S
C1143 C1142 1.367 . S
C1143 C1145 1.433 . S
C1144 C1140 1.350 . S
C1144 C1141 1.463 . S
C1144 N1148 1.427 . S
C1145 H1135 0.929 . S
C1145 C1143 1.433 . S
C1145 N1148 1.384 . S
C1146 H1137 0.929 . S
C1146 C1138 1.378 . S
C1146 C1141 1.350 . S
C1147 H1134 0.929 . S
C1147 C1139 1.433 . S
C1147 N1149 1.384 . S
N1148 C1144 1.427 . S
N1148 C1145 1.384 . S
N1149 C1141 1.427 . S
N1149 C1147 1.384 . S
H1150 C1156 0.930 . S
H1151 C1160 0.930 . S
H1152 C1165 0.929 . S
H1153 C1163 0.929 . S
H1154 C1158 0.929 . S
H1155 C1164 0.929 . S
C1156 H1150 0.930 . S
C1156 C1157 1.367 . S
C1156 C1164 1.378 . S
C1157 C1156 1.367 . S
C1157 C1165 1.433 . S
C1158 H1154 0.929 . S
C1158 C1160 1.378 . S
C1158 C1162 1.350 . S
C1159 C1162 1.463 1_655 S
C1159 C1164 1.350 . S
C1159 N1167 1.427 . S
C1160 H1151 0.930 . S
C1160 C1158 1.378 . S
C1160 C1161 1.367 . S
C1161 C1160 1.367 . S
C1161 C1163 1.433 . S
C1162 C1158 1.350 . S
C1162 C1159 1.463 1_455 S
C1162 N1166 1.427 . S
C1163 H1153 0.929 . S
C1163 C1161 1.433 . S
C1163 N1166 1.384 . S
C1164 H1155 0.929 . S
C1164 C1156 1.378 . S
C1164 C1159 1.350 . S
C1165 H1152 0.929 . S
C1165 C1157 1.433 . S
C1165 N1167 1.384 . S
N1166 C1162 1.427 . S
N1166 C1163 1.384 . S
N1167 C1159 1.427 . S
N1167 C1165 1.384 . S
H1168 C1174 0.930 . S
H1169 C1178 0.930 . S
H1170 C1183 0.929 . S
H1171 C1181 0.929 . S
H1172 C1176 0.929 . S
H1173 C1182 0.929 . S
C1174 H1168 0.930 . S
C1174 C1175 1.367 . S
C1174 C1182 1.378 . S
C1175 C1174 1.367 . S
C1175 C1183 1.433 . S
C1176 H1172 0.929 . S
C1176 C1178 1.378 . S
C1176 C1180 1.350 . S
C1177 C1180 1.463 . S
C1177 C1182 1.350 . S
C1177 N1185 1.427 . S
C1178 H1169 0.930 . S
C1178 C1176 1.378 . S
C1178 C1179 1.367 . S
C1179 C1178 1.367 . S
C1179 C1181 1.433 . S
C1180 C1176 1.350 . S
C1180 C1177 1.463 . S
C1180 N1184 1.427 . S
C1181 H1171 0.929 . S
C1181 C1179 1.433 . S
C1181 N1184 1.384 . S
C1182 H1173 0.929 . S
C1182 C1174 1.378 . S
C1182 C1177 1.350 . S
C1183 H1170 0.929 . S
C1183 C1175 1.433 . S
C1183 N1185 1.384 . S
N1184 C1180 1.427 . S
N1184 C1181 1.384 . S
N1185 C1177 1.427 . S
N1185 C1183 1.384 . S
H1186 C1192 0.930 . S
H1187 C1196 0.930 . S
H1188 C1201 0.929 . S
H1189 C1199 0.929 . S
H1190 C1194 0.929 . S
H1191 C1200 0.929 . S
C1192 H1186 0.930 . S
C1192 C1193 1.367 . S
C1192 C1200 1.378 . S
C1193 C1192 1.367 . S
C1193 C1201 1.433 . S
C1194 H1190 0.929 . S
C1194 C1196 1.378 . S
C1194 C1198 1.350 . S
C1195 C1198 1.463 . S
C1195 C1200 1.350 . S
C1195 N1203 1.427 . S
C1196 H1187 0.930 . S
C1196 C1194 1.378 . S
C1196 C1197 1.367 . S
C1197 C1196 1.367 . S
C1197 C1199 1.433 . S
C1198 C1194 1.350 . S
C1198 C1195 1.463 . S
C1198 N1202 1.427 . S
C1199 H1189 0.929 . S
C1199 C1197 1.433 . S
C1199 N1202 1.384 . S
C1200 H1191 0.929 . S
C1200 C1192 1.378 . S
C1200 C1195 1.350 . S
C1201 H1188 0.929 . S
C1201 C1193 1.433 . S
C1201 N1203 1.384 . S
N1202 C1198 1.427 . S
N1202 C1199 1.384 . S
N1203 C1195 1.427 . S
N1203 C1201 1.384 . S
H1204 C1210 0.930 . S
H1205 C1214 0.930 . S
H1206 C1219 0.929 . S
H1207 C1217 0.929 . S
H1208 C1212 0.929 . S
H1209 C1218 0.929 . S
C1210 H1204 0.930 . S
C1210 C1211 1.367 . S
C1210 C1218 1.378 . S
C1211 C1210 1.367 . S
C1211 C1219 1.433 . S
C1212 H1208 0.929 . S
C1212 C1214 1.378 . S
C1212 C1216 1.350 . S
C1213 C1216 1.463 . S
C1213 C1218 1.350 . S
C1213 N1221 1.427 . S
C1214 H1205 0.930 . S
C1214 C1212 1.378 . S
C1214 C1215 1.367 . S
C1215 C1214 1.367 . S
C1215 C1217 1.433 . S
C1216 C1212 1.350 . S
C1216 C1213 1.463 . S
C1216 N1220 1.427 . S
C1217 H1207 0.929 . S
C1217 C1215 1.433 . S
C1217 N1220 1.384 . S
C1218 H1209 0.929 . S
C1218 C1210 1.378 . S
C1218 C1213 1.350 . S
C1219 H1206 0.929 . S
C1219 C1211 1.433 . S
C1219 N1221 1.384 . S
N1220 C1216 1.427 . S
N1220 C1217 1.384 . S
N1221 C1213 1.427 . S
N1221 C1219 1.384 . S
H1222 C1228 0.930 . S
H1223 C1232 0.930 . S
H1224 C1237 0.929 . S
H1225 C1235 0.929 . S
H1226 C1230 0.929 . S
H1227 C1236 0.929 . S
C1228 H1222 0.930 . S
C1228 C1229 1.367 . S
C1228 C1236 1.378 . S
C1229 C1228 1.367 . S
C1229 C1237 1.433 . S
C1230 H1226 0.929 . S
C1230 C1232 1.378 . S
C1230 C1234 1.350 . S
C1231 C1234 1.463 . S
C1231 C1236 1.350 . S
C1231 N1239 1.427 . S
C1232 H1223 0.930 . S
C1232 C1230 1.378 . S
C1232 C1233 1.367 . S
C1233 C1232 1.367 . S
C1233 C1235 1.433 . S
C1234 C1230 1.350 . S
C1234 C1231 1.463 . S
C1234 N1238 1.427 . S
C1235 H1225 0.929 . S
C1235 C1233 1.433 . S
C1235 N1238 1.384 . S
C1236 H1227 0.929 . S
C1236 C1228 1.378 . S
C1236 C1231 1.350 . S
C1237 H1224 0.929 . S
C1237 C1229 1.433 . S
C1237 N1239 1.384 . S
N1238 C1234 1.427 . S
N1238 C1235 1.384 . S
N1239 C1231 1.427 . S
N1239 C1237 1.384 . S
H1240 C1246 0.930 . S
H1241 C1250 0.930 . S
H1242 C1255 0.929 . S
H1243 C1253 0.929 . S
H1244 C1248 0.929 . S
H1245 C1254 0.929 . S
C1246 H1240 0.930 . S
C1246 C1247 1.367 . S
C1246 C1254 1.378 . S
C1247 C1246 1.367 . S
C1247 C1255 1.433 . S
C1248 H1244 0.929 . S
C1248 C1250 1.378 . S
C1248 C1252 1.350 . S
C1249 C1252 1.463 . S
C1249 C1254 1.350 . S
C1249 N1257 1.427 . S
C1250 H1241 0.930 . S
C1250 C1248 1.378 . S
C1250 C1251 1.367 . S
C1251 C1250 1.367 . S
C1251 C1253 1.433 . S
C1252 C1248 1.350 . S
C1252 C1249 1.463 . S
C1252 N1256 1.427 . S
C1253 H1243 0.929 . S
C1253 C1251 1.433 . S
C1253 N1256 1.384 . S
C1254 H1245 0.929 . S
C1254 C1246 1.378 . S
C1254 C1249 1.350 . S
C1255 H1242 0.929 . S
C1255 C1247 1.433 . S
C1255 N1257 1.384 . S
N1256 C1252 1.427 . S
N1256 C1253 1.384 . S
N1257 C1249 1.427 . S
N1257 C1255 1.384 . S
H1258 C1264 0.930 . S
H1259 C1268 0.930 . S
H1260 C1273 0.929 . S
H1261 C1271 0.929 . S
H1262 C1266 0.929 . S
H1263 C1272 0.929 . S
C1264 H1258 0.930 . S
C1264 C1265 1.367 . S
C1264 C1272 1.378 . S
C1265 C1264 1.367 . S
C1265 C1273 1.433 . S
C1266 H1262 0.929 . S
C1266 C1268 1.378 . S
C1266 C1270 1.350 . S
C1267 C1270 1.463 1_655 S
C1267 C1272 1.350 . S
C1267 N1275 1.427 . S
C1268 H1259 0.930 . S
C1268 C1266 1.378 . S
C1268 C1269 1.367 . S
C1269 C1268 1.367 . S
C1269 C1271 1.433 . S
C1270 C1266 1.350 . S
C1270 C1267 1.463 1_455 S
C1270 N1274 1.427 . S
C1271 H1261 0.929 . S
C1271 C1269 1.433 . S
C1271 N1274 1.384 . S
C1272 H1263 0.929 . S
C1272 C1264 1.378 . S
C1272 C1267 1.350 . S
C1273 H1260 0.929 . S
C1273 C1265 1.433 . S
C1273 N1275 1.384 . S
N1274 C1270 1.427 . S
N1274 C1271 1.384 . S
N1275 C1267 1.427 . S
N1275 C1273 1.384 . S
H1276 C1282 0.930 . S
H1277 C1286 0.930 . S
H1278 C1291 0.929 . S
H1279 C1289 0.929 . S
H1280 C1284 0.929 . S
H1281 C1290 0.929 . S
C1282 H1276 0.930 . S
C1282 C1283 1.367 . S
C1282 C1290 1.378 . S
C1283 C1282 1.367 . S
C1283 C1291 1.433 . S
C1284 H1280 0.929 . S
C1284 C1286 1.378 . S
C1284 C1288 1.350 . S
C1285 C1288 1.463 1_655 S
C1285 C1290 1.350 . S
C1285 N1293 1.427 . S
C1286 H1277 0.930 . S
C1286 C1284 1.378 . S
C1286 C1287 1.367 . S
C1287 C1286 1.367 . S
C1287 C1289 1.433 . S
C1288 C1284 1.350 . S
C1288 C1285 1.463 1_455 S
C1288 N1292 1.427 . S
C1289 H1279 0.929 . S
C1289 C1287 1.433 . S
C1289 N1292 1.384 . S
C1290 H1281 0.929 . S
C1290 C1282 1.378 . S
C1290 C1285 1.350 . S
C1291 H1278 0.929 . S
C1291 C1283 1.433 . S
C1291 N1293 1.384 . S
N1292 C1288 1.427 . S
N1292 C1289 1.384 . S
N1293 C1285 1.427 . S
N1293 C1291 1.384 . S
H1294 C1300 0.930 . S
H1295 C1304 0.930 . S
H1296 C1309 0.929 . S
H1297 C1307 0.929 . S
H1298 C1302 0.929 . S
H1299 C1308 0.929 . S
C1300 H1294 0.930 . S
C1300 C1301 1.367 . S
C1300 C1308 1.378 . S
C1301 C1300 1.367 . S
C1301 C1309 1.433 . S
C1302 H1298 0.929 . S
C1302 C1304 1.378 . S
C1302 C1306 1.350 . S
C1303 C1306 1.463 . S
C1303 C1308 1.350 . S
C1303 N1311 1.427 . S
C1304 H1295 0.930 . S
C1304 C1302 1.378 . S
C1304 C1305 1.367 . S
C1305 C1304 1.367 . S
C1305 C1307 1.433 . S
C1306 C1302 1.350 . S
C1306 C1303 1.463 . S
C1306 N1310 1.427 . S
C1307 H1297 0.929 . S
C1307 C1305 1.433 . S
C1307 N1310 1.384 . S
C1308 H1299 0.929 . S
C1308 C1300 1.378 . S
C1308 C1303 1.350 . S
C1309 H1296 0.929 . S
C1309 C1301 1.433 . S
C1309 N1311 1.384 . S
N1310 C1306 1.427 . S
N1310 C1307 1.384 . S
N1311 C1303 1.427 . S
N1311 C1309 1.384 . S
H1312 C1318 0.930 . S
H1313 C1322 0.930 . S
H1314 C1327 0.929 . S
H1315 C1325 0.929 . S
H1316 C1320 0.929 . S
H1317 C1326 0.929 . S
C1318 H1312 0.930 . S
C1318 C1319 1.367 . S
C1318 C1326 1.378 . S
C1319 C1318 1.367 . S
C1319 C1327 1.433 . S
C1320 H1316 0.929 . S
C1320 C1322 1.378 . S
C1320 C1324 1.350 . S
C1321 C1324 1.463 . S
C1321 C1326 1.350 . S
C1321 N1329 1.427 . S
C1322 H1313 0.930 . S
C1322 C1320 1.378 . S
C1322 C1323 1.367 . S
C1323 C1322 1.367 . S
C1323 C1325 1.433 . S
C1324 C1320 1.350 . S
C1324 C1321 1.463 . S
C1324 N1328 1.427 . S
C1325 H1315 0.929 . S
C1325 C1323 1.433 . S
C1325 N1328 1.384 . S
C1326 H1317 0.929 . S
C1326 C1318 1.378 . S
C1326 C1321 1.350 . S
C1327 H1314 0.929 . S
C1327 C1319 1.433 . S
C1327 N1329 1.384 . S
N1328 C1324 1.427 . S
N1328 C1325 1.384 . S
N1329 C1321 1.427 . S
N1329 C1327 1.384 . S
H1330 C1336 0.930 . S
H1331 C1340 0.916 1_565 S
H1332 C1345 0.929 . S
H1333 C1343 0.929 . S
H1334 C1338 0.990 . S
H1335 C1344 0.929 . S
C1336 H1330 0.930 . S
C1336 C1337 1.367 1_545 S
C1336 C1344 1.378 . S
C1337 C1336 1.367 1_565 S
C1337 C1345 1.433 . S
C1338 H1334 0.990 . S
C1338 C1340 1.354 1_565 S
C1338 C1342 1.316 1_565 S
C1339 C1342 1.463 . S
C1339 C1344 1.350 . S
C1339 N1347 1.427 1_545 S
C1340 H1331 0.916 1_545 S
C1340 C1338 1.354 1_545 S
C1340 C1341 1.367 . S
C1341 C1340 1.367 . S
C1341 C1343 1.433 . S
C1342 C1338 1.316 1_545 S
C1342 C1339 1.463 . S
C1342 N1346 1.427 . S
C1343 H1333 0.929 . S
C1343 C1341 1.433 . S
C1343 N1346 1.384 . S
C1344 H1335 0.929 . S
C1344 C1336 1.378 . S
C1344 C1339 1.350 . S
C1345 H1332 0.929 . S
C1345 C1337 1.433 . S
C1345 N1347 1.384 . S
N1346 C1342 1.427 . S
N1346 C1343 1.384 . S
N1347 C1339 1.427 1_565 S
N1347 C1345 1.384 . S
H1348 C1354 0.930 . S
H1349 C1358 0.930 . S
H1350 C1363 0.929 . S
H1351 C1361 0.929 . S
H1352 C1356 0.929 . S
H1353 C1362 0.929 . S
C1354 H1348 0.930 . S
C1354 C1355 1.367 . S
C1354 C1362 1.378 . S
C1355 C1354 1.367 . S
C1355 C1363 1.433 . S
C1356 H1352 0.929 . S
C1356 C1358 1.378 . S
C1356 C1360 1.350 . S
C1357 C1360 1.463 . S
C1357 C1362 1.350 . S
C1357 N1365 1.427 . S
C1358 H1349 0.930 . S
C1358 C1356 1.378 . S
C1358 C1359 1.367 . S
C1359 C1358 1.367 . S
C1359 C1361 1.433 . S
C1360 C1356 1.350 . S
C1360 C1357 1.463 . S
C1360 N1364 1.427 . S
C1361 H1351 0.929 . S
C1361 C1359 1.433 . S
C1361 N1364 1.384 . S
C1362 H1353 0.929 . S
C1362 C1354 1.378 . S
C1362 C1357 1.350 . S
C1363 H1350 0.929 . S
C1363 C1355 1.433 . S
C1363 N1365 1.384 . S
N1364 C1360 1.427 . S
N1364 C1361 1.384 . S
N1365 C1357 1.427 . S
N1365 C1363 1.384 . S
H1366 C1372 0.930 1_565 S
H1367 C1376 0.930 . S
H1368 C1381 0.929 . S
H1369 C1379 0.929 . S
H1370 C1374 0.929 . S
H1371 C1380 0.929 . S
C1372 H1366 0.930 1_545 S
C1372 C1373 1.367 . S
C1372 C1380 1.378 1_546 S
C1373 C1372 1.367 . S
C1373 C1381 1.433 1_556 S
C1374 H1370 0.929 . S
C1374 C1376 1.378 . S
C1374 C1378 1.350 . S
C1375 C1378 1.463 . S
C1375 C1380 1.350 1_545 S
C1375 N1383 1.427 . S
C1376 H1367 0.930 . S
C1376 C1374 1.378 . S
C1376 C1377 1.367 1_545 S
C1377 C1376 1.367 1_565 S
C1377 C1379 1.433 . S
C1378 C1374 1.350 . S
C1378 C1375 1.463 . S
C1378 N1382 1.427 1_545 S
C1379 H1369 0.929 . S
C1379 C1377 1.433 . S
C1379 N1382 1.384 . S
C1380 H1371 0.929 . S
C1380 C1372 1.378 1_564 S
C1380 C1375 1.350 1_565 S
C1381 H1368 0.929 . S
C1381 C1373 1.433 1_554 S
C1381 N1383 1.384 . S
N1382 C1378 1.427 1_565 S
N1382 C1379 1.384 . S
N1383 C1375 1.427 . S
N1383 C1381 1.384 . S
H1384 C1390 0.930 . S
H1385 C1394 0.930 . S
H1386 C1399 0.929 . S
H1387 C1397 0.929 . S
H1388 C1392 0.929 . S
H1389 C1398 0.929 . S
C1390 H1384 0.930 . S
C1390 C1391 1.367 . S
C1390 C1398 1.378 . S
C1391 C1390 1.367 . S
C1391 C1399 1.433 . S
C1392 H1388 0.929 . S
C1392 C1394 1.378 . S
C1392 C1396 1.350 . S
C1393 C1396 1.463 . S
C1393 C1398 1.350 . S
C1393 N1401 1.427 . S
C1394 H1385 0.930 . S
C1394 C1392 1.378 . S
C1394 C1395 1.367 . S
C1395 C1394 1.367 . S
C1395 C1397 1.433 . S
C1396 C1392 1.350 . S
C1396 C1393 1.463 . S
C1396 N1400 1.427 . S
C1397 H1387 0.929 . S
C1397 C1395 1.433 . S
C1397 N1400 1.384 . S
C1398 H1389 0.929 . S
C1398 C1390 1.378 . S
C1398 C1393 1.350 . S
C1399 H1386 0.929 . S
C1399 C1391 1.433 . S
C1399 N1401 1.384 . S
N1400 C1396 1.427 . S
N1400 C1397 1.384 . S
N1401 C1393 1.427 . S
N1401 C1399 1.384 . S
H1402 C1408 0.930 . S
H1403 C1412 0.930 . S
H1404 C1417 0.901 1_565 S
H1405 C1415 0.929 . S
H1406 C1410 0.929 . S
H1407 C1416 0.929 . S
C1408 H1402 0.930 . S
C1408 C1409 1.367 . S
C1408 C1416 1.378 . S
C1409 C1408 1.367 . S
C1409 C1417 1.433 . S
C1410 H1406 0.929 . S
C1410 C1412 1.378 . S
C1410 C1414 1.311 1_565 S
C1411 C1414 1.481 . S
C1411 C1416 1.350 . S
C1411 N1419 1.427 1_545 S
C1412 H1403 0.930 . S
C1412 C1410 1.378 . S
C1412 C1413 1.367 . S
C1413 C1412 1.367 . S
C1413 C1415 1.433 1_565 S
C1414 C1410 1.311 1_545 S
C1414 C1411 1.481 . S
C1414 N1418 1.452 . S
C1415 H1405 0.929 . S
C1415 C1413 1.433 1_545 S
C1415 N1418 1.384 . S
C1416 H1407 0.929 . S
C1416 C1408 1.378 . S
C1416 C1411 1.350 . S
C1417 H1404 0.901 1_545 S
C1417 C1409 1.433 . S
C1417 N1419 1.384 1_545 S
N1418 C1414 1.452 . S
N1418 C1415 1.384 . S
N1419 C1411 1.427 1_565 S
N1419 C1417 1.384 1_565 S
H1420 C1426 0.930 . S
H1421 C1430 0.930 . S
H1422 C1435 0.929 . S
H1423 C1433 0.929 . S
H1424 C1428 0.929 . S
H1425 C1434 0.929 . S
C1426 H1420 0.930 . S
C1426 C1427 1.367 . S
C1426 C1434 1.378 . S
C1427 C1426 1.367 . S
C1427 C1435 1.433 . S
C1428 H1424 0.929 . S
C1428 C1430 1.378 . S
C1428 C1432 1.350 . S
C1429 C1432 1.463 . S
C1429 C1434 1.350 . S
C1429 N1437 1.427 . S
C1430 H1421 0.930 . S
C1430 C1428 1.378 . S
C1430 C1431 1.367 . S
C1431 C1430 1.367 . S
C1431 C1433 1.433 . S
C1432 C1428 1.350 . S
C1432 C1429 1.463 . S
C1432 N1436 1.427 . S
C1433 H1423 0.929 . S
C1433 C1431 1.433 . S
C1433 N1436 1.384 . S
C1434 H1425 0.929 . S
C1434 C1426 1.378 . S
C1434 C1429 1.350 . S
C1435 H1422 0.929 . S
C1435 C1427 1.433 . S
C1435 N1437 1.384 . S
N1436 C1432 1.427 . S
N1436 C1433 1.384 . S
N1437 C1429 1.427 . S
N1437 C1435 1.384 . S
H1438 C1444 0.930 . S
H1439 C1448 0.930 1_565 S
H1440 C1453 0.929 . S
H1441 C1451 0.929 . S
H1442 C1446 0.929 . S
H1443 C1452 0.929 . S
C1444 H1438 0.930 . S
C1444 C1445 1.367 1_545 S
C1444 C1452 1.378 . S
C1445 C1444 1.367 1_565 S
C1445 C1453 1.433 . S
C1446 H1442 0.929 . S
C1446 C1448 1.378 1_564 S
C1446 C1450 1.350 1_565 S
C1447 C1450 1.463 . S
C1447 C1452 1.350 . S
C1447 N1455 1.427 1_545 S
C1448 H1439 0.930 1_545 S
C1448 C1446 1.378 1_546 S
C1448 C1449 1.367 . S
C1449 C1448 1.367 . S
C1449 C1451 1.433 1_556 S
C1450 C1446 1.350 1_545 S
C1450 C1447 1.463 . S
C1450 N1454 1.427 . S
C1451 H1441 0.929 . S
C1451 C1449 1.433 1_554 S
C1451 N1454 1.384 . S
C1452 H1443 0.929 . S
C1452 C1444 1.378 . S
C1452 C1447 1.350 . S
C1453 H1440 0.929 . S
C1453 C1445 1.433 . S
C1453 N1455 1.384 . S
N1454 C1450 1.427 . S
N1454 C1451 1.384 . S
N1455 C1447 1.427 1_565 S
N1455 C1453 1.384 . S
H1456 C1462 0.930 . S
H1457 C1466 0.930 . S
H1458 C1471 0.929 . S
H1459 C1469 0.929 . S
H1460 C1464 0.929 . S
H1461 C1470 0.929 . S
C1462 H1456 0.930 . S
C1462 C1463 1.367 . S
C1462 C1470 1.378 . S
C1463 C1462 1.367 . S
C1463 C1471 1.433 . S
C1464 H1460 0.929 . S
C1464 C1466 1.378 . S
C1464 C1468 1.350 . S
C1465 C1468 1.463 . S
C1465 C1470 1.350 . S
C1465 N1473 1.427 . S
C1466 H1457 0.930 . S
C1466 C1464 1.378 . S
C1466 C1467 1.367 . S
C1467 C1466 1.367 . S
C1467 C1469 1.433 . S
C1468 C1464 1.350 . S
C1468 C1465 1.463 . S
C1468 N1472 1.427 . S
C1469 H1459 0.929 . S
C1469 C1467 1.433 . S
C1469 N1472 1.384 . S
C1470 H1461 0.929 . S
C1470 C1462 1.378 . S
C1470 C1465 1.350 . S
C1471 H1458 0.929 . S
C1471 C1463 1.433 . S
C1471 N1473 1.384 . S
N1472 C1468 1.427 . S
N1472 C1469 1.384 . S
N1473 C1465 1.427 . S
N1473 C1471 1.384 . S
H1474 C1480 0.930 . S
H1475 C1484 0.930 . S
H1476 C1489 0.929 . S
H1477 C1487 0.929 . S
H1478 C1482 0.929 . S
H1479 C1488 0.929 . S
C1480 H1474 0.930 . S
C1480 C1481 1.367 . S
C1480 C1488 1.378 . S
C1481 C1480 1.367 . S
C1481 C1489 1.433 . S
C1482 H1478 0.929 . S
C1482 C1484 1.378 . S
C1482 C1486 1.350 . S
C1483 C1486 1.463 . S
C1483 C1488 1.350 . S
C1483 N1491 1.427 . S
C1484 H1475 0.930 . S
C1484 C1482 1.378 . S
C1484 C1485 1.367 1_554 S
C1485 C1484 1.367 1_556 S
C1485 C1487 1.433 . S
C1486 C1482 1.350 . S
C1486 C1483 1.463 . S
C1486 N1490 1.427 . S
C1487 H1477 0.929 . S
C1487 C1485 1.433 . S
C1487 N1490 1.384 1_556 S
C1488 H1479 0.929 . S
C1488 C1480 1.378 . S
C1488 C1483 1.350 . S
C1489 H1476 0.929 . S
C1489 C1481 1.433 . S
C1489 N1491 1.384 . S
N1490 C1486 1.427 . S
N1490 C1487 1.384 1_554 S
N1491 C1483 1.427 . S
N1491 C1489 1.384 . S
H1492 C1498 0.930 . S
H1493 C1502 0.930 . S
H1494 C1507 0.929 . S
H1495 C1505 0.929 . S
H1496 C1500 0.929 . S
H1497 C1506 0.929 . S
C1498 H1492 0.930 . S
C1498 C1499 1.367 . S
C1498 C1506 1.378 . S
C1499 C1498 1.367 . S
C1499 C1507 1.433 . S
C1500 H1496 0.929 . S
C1500 C1502 1.378 . S
C1500 C1504 1.350 . S
C1501 C1504 1.463 . S
C1501 C1506 1.350 . S
C1501 N1509 1.427 . S
C1502 H1493 0.930 . S
C1502 C1500 1.378 . S
C1502 C1503 1.367 . S
C1503 C1502 1.367 . S
C1503 C1505 1.433 . S
C1504 C1500 1.350 . S
C1504 C1501 1.463 . S
C1504 N1508 1.427 . S
C1505 H1495 0.929 . S
C1505 C1503 1.433 . S
C1505 N1508 1.384 . S
C1506 H1497 0.929 . S
C1506 C1498 1.378 . S
C1506 C1501 1.350 . S
C1507 H1494 0.929 . S
C1507 C1499 1.433 . S
C1507 N1509 1.384 . S
N1508 C1504 1.427 . S
N1508 C1505 1.384 . S
N1509 C1501 1.427 . S
N1509 C1507 1.384 . S
H1510 C1516 0.930 . S
H1511 C1520 0.930 . S
H1512 C1525 0.929 . S
H1513 C1523 0.929 . S
H1514 C1518 0.929 . S
H1515 C1524 0.929 . S
C1516 H1510 0.930 . S
C1516 C1517 1.367 . S
C1516 C1524 1.378 . S
C1517 C1516 1.367 . S
C1517 C1525 1.433 . S
C1518 H1514 0.929 . S
C1518 C1520 1.378 . S
C1518 C1522 1.350 . S
C1519 C1522 1.463 . S
C1519 C1524 1.350 . S
C1519 N1527 1.427 . S
C1520 H1511 0.930 . S
C1520 C1518 1.378 . S
C1520 C1521 1.367 . S
C1521 C1520 1.367 . S
C1521 C1523 1.433 . S
C1522 C1518 1.350 . S
C1522 C1519 1.463 . S
C1522 N1526 1.427 . S
C1523 H1513 0.929 . S
C1523 C1521 1.433 . S
C1523 N1526 1.384 . S
C1524 H1515 0.929 . S
C1524 C1516 1.378 . S
C1524 C1519 1.350 . S
C1525 H1512 0.929 . S
C1525 C1517 1.433 . S
C1525 N1527 1.384 . S
N1526 C1522 1.427 . S
N1526 C1523 1.384 . S
N1527 C1519 1.427 . S
N1527 C1525 1.384 . S
H1528 C1534 0.930 . S
H1529 C1538 0.930 . S
H1530 C1543 0.929 . S
H1531 C1541 0.929 . S
H1532 C1536 0.929 . S
H1533 C1542 0.929 . S
C1534 H1528 0.930 . S
C1534 C1535 1.367 . S
C1534 C1542 1.378 . S
C1535 C1534 1.367 . S
C1535 C1543 1.433 . S
C1536 H1532 0.929 . S
C1536 C1538 1.378 . S
C1536 C1540 1.350 . S
C1537 C1540 1.463 . S
C1537 C1542 1.350 . S
C1537 N1545 1.427 . S
C1538 H1529 0.930 . S
C1538 C1536 1.378 . S
C1538 C1539 1.367 . S
C1539 C1538 1.367 . S
C1539 C1541 1.433 . S
C1540 C1536 1.350 . S
C1540 C1537 1.463 . S
C1540 N1544 1.427 . S
C1541 H1531 0.929 . S
C1541 C1539 1.433 . S
C1541 N1544 1.384 . S
C1542 H1533 0.929 . S
C1542 C1534 1.378 . S
C1542 C1537 1.350 . S
C1543 H1530 0.929 . S
C1543 C1535 1.433 . S
C1543 N1545 1.384 . S
N1544 C1540 1.427 . S
N1544 C1541 1.384 . S
N1545 C1537 1.427 . S
N1545 C1543 1.384 . S
H1546 C1552 0.930 . S
H1547 C1556 0.930 . S
H1548 C1561 0.929 . S
H1549 C1559 0.929 . S
H1550 C1554 0.929 . S
H1551 C1560 0.929 . S
C1552 H1546 0.930 . S
C1552 C1553 1.367 1_554 S
C1552 C1560 1.378 . S
C1553 C1552 1.367 1_556 S
C1553 C1561 1.433 . S
C1554 H1550 0.929 . S
C1554 C1556 1.378 . S
C1554 C1558 1.350 . S
C1555 C1558 1.463 . S
C1555 C1560 1.350 . S
C1555 N1563 1.427 . S
C1556 H1547 0.930 . S
C1556 C1554 1.378 . S
C1556 C1557 1.367 . S
C1557 C1556 1.367 . S
C1557 C1559 1.433 . S
C1558 C1554 1.350 . S
C1558 C1555 1.463 . S
C1558 N1562 1.427 . S
C1559 H1549 0.929 . S
C1559 C1557 1.433 . S
C1559 N1562 1.384 . S
C1560 H1551 0.929 . S
C1560 C1552 1.378 . S
C1560 C1555 1.350 . S
C1561 H1548 0.929 . S
C1561 C1553 1.433 . S
C1561 N1563 1.384 1_556 S
N1562 C1558 1.427 . S
N1562 C1559 1.384 . S
N1563 C1555 1.427 . S
N1563 C1561 1.384 1_554 S
H1564 C1570 0.930 . S
H1565 C1574 0.930 . S
H1566 C1579 0.929 . S
H1567 C1577 0.929 . S
H1568 C1572 0.929 . S
H1569 C1578 0.929 . S
C1570 H1564 0.930 . S
C1570 C1571 1.367 . S
C1570 C1578 1.378 . S
C1571 C1570 1.367 . S
C1571 C1579 1.433 . S
C1572 H1568 0.929 . S
C1572 C1574 1.378 . S
C1572 C1576 1.350 . S
C1573 C1576 1.463 . S
C1573 C1578 1.350 . S
C1573 N1581 1.427 . S
C1574 H1565 0.930 . S
C1574 C1572 1.378 . S
C1574 C1575 1.367 . S
C1575 C1574 1.367 . S
C1575 C1577 1.433 . S
C1576 C1572 1.350 . S
C1576 C1573 1.463 . S
C1576 N1580 1.427 . S
C1577 H1567 0.929 . S
C1577 C1575 1.433 . S
C1577 N1580 1.384 . S
C1578 H1569 0.929 . S
C1578 C1570 1.378 . S
C1578 C1573 1.350 . S
C1579 H1566 0.929 . S
C1579 C1571 1.433 . S
C1579 N1581 1.384 . S
N1580 C1576 1.427 . S
N1580 C1577 1.384 . S
N1581 C1573 1.427 . S
N1581 C1579 1.384 . S
H1582 C1588 0.930 . S
H1583 C1592 0.930 . S
H1584 C1597 0.929 . S
H1585 C1595 0.929 . S
H1586 C1590 0.929 . S
H1587 C1596 0.929 . S
C1588 H1582 0.930 . S
C1588 C1589 1.367 . S
C1588 C1596 1.378 . S
C1589 C1588 1.367 . S
C1589 C1597 1.433 . S
C1590 H1586 0.929 . S
C1590 C1592 1.378 . S
C1590 C1594 1.350 . S
C1591 C1594 1.463 . S
C1591 C1596 1.350 . S
C1591 N1599 1.427 . S
C1592 H1583 0.930 . S
C1592 C1590 1.378 . S
C1592 C1593 1.367 . S
C1593 C1592 1.367 . S
C1593 C1595 1.433 . S
C1594 C1590 1.350 . S
C1594 C1591 1.463 . S
C1594 N1598 1.427 . S
C1595 H1585 0.929 . S
C1595 C1593 1.433 . S
C1595 N1598 1.384 . S
C1596 H1587 0.929 . S
C1596 C1588 1.378 . S
C1596 C1591 1.350 . S
C1597 H1584 0.929 . S
C1597 C1589 1.433 . S
C1597 N1599 1.384 . S
N1598 C1594 1.427 . S
N1598 C1595 1.384 . S
N1599 C1591 1.427 . S
N1599 C1597 1.384 . S
C455 C104 1.510 . S
C459 C6 1.519 . S
C473 C20 1.519 . S
C477 C62 1.521 . S
C491 C76 1.520 . S
C495 C34 1.521 . S
C509 C48 1.516 . S
C513 C90 1.522 . S
C527 C118 1.522 . S
C531 C216 1.515 . S
C545 C132 1.513 . S
C549 C174 1.509 . S
C563 C146 1.521 . S
C567 C188 1.513 . S
C581 C160 1.509 . S
C585 C202 1.511 . S
C599 C230 1.511 . S
C603 C328 1.521 . S
C617 C244 1.512 . S
C621 C286 1.508 . S
C635 C300 1.520 . S
C639 C258 1.511 . S
C653 C314 1.518 . S
C657 C272 1.521 . S
C671 C342 1.519 . S
C675 C440 1.510 . S
C689 C398 1.514 . S
C693 C356 1.508 . S
C707 C412 1.522 . S
C711 C370 1.515 . S
C725 C384 1.510 . S
C729 C426 1.510 . S
C743 C8 0.955 . S
C747 C92 0.956 . S
C761 C22 0.955 . S
C765 C106 0.954 . S
C779 C64 0.967 . S
C783 C36 0.966 . S
C797 C50 0.955 . S
C801 C78 0.955 . S
C815 C120 0.968 . S
C819 C204 0.969 . S
C833 C134 0.968 . S
C837 C218 0.967 . S
C851 C176 0.956 . S
C855 C148 0.955 . S
C869 C190 0.952 . S
C873 C162 0.952 . S
C887 C232 0.954 . S
C891 C316 0.954 . S
C905 C330 0.968 . S
C909 C246 0.969 . S
C923 C288 0.967 . S
C927 C260 0.966 . S
C941 C274 0.967 . S
C945 C302 0.968 . S
C959 C344 0.963 . S
C963 C428 0.964 . S
C977 C358 0.970 . S
C981 C442 0.970 . S
C995 C400 0.965 . S
C999 C372 0.964 . S
C1013 C414 0.970 . S
C1017 C386 0.970 . S
C1031 C9 1.564 . S
C1035 C429 1.557 . S
C1049 C23 1.565 . S
C1053 C219 1.557 . S
C1067 C37 1.556 . S
C1071 C401 1.565 . S
C1085 C51 1.560 . S
C1089 C191 1.560 . S
C1103 C65 1.564 . S
C1107 C373 1.558 . S
C1121 C79 1.557 . S
C1125 C163 1.565 . S
C1139 C93 1.564 . S
C1143 C345 1.557 . S
C1157 C135 1.565 . S
C1161 C107 1.557 . S
C1175 C317 1.557 . S
C1179 C121 1.564 . S
C1193 C149 1.562 . S
C1197 C289 1.559 . S
C1211 C261 1.565 . S
C1215 C177 1.556 . S
C1229 C233 1.565 . S
C1233 C205 1.557 . S
C1247 C247 1.563 . S
C1251 C443 1.558 . S
C1265 C275 1.565 . S
C1269 C415 1.556 . S
C1283 C303 1.559 . S
C1287 C387 1.562 . S
C1301 C359 1.556 . S
C1305 C331 1.565 . S
C1319 C7 1.537 . S
C1323 C91 1.538 . S
C1337 C21 1.537 . S
C1341 C105 1.540 . S
C1355 C63 1.542 1_556 S
C1359 C35 1.546 . S
C1373 C49 1.538 . S
C1377 C77 1.536 . S
C1391 C119 1.537 1_556 S
C1395 C203 1.540 . S
C1409 C133 1.546 . S
C1413 C217 1.548 . S
C1427 C175 1.538 . S
C1431 C147 1.542 . S
C1445 C161 1.537 . S
C1449 C189 1.537 . S
C1463 C315 1.547 1_556 S
C1467 C231 1.548 . S
C1481 C329 1.548 . S
C1485 C245 1.546 . S
C1499 C287 1.543 . S
C1503 C259 1.547 . S
C1517 C301 1.542 . S
C1521 C273 1.538 . S
C1535 C427 1.537 . S
C1539 C343 1.541 . S
C1553 C441 1.545 . S
C1557 C357 1.548 . S
C1571 C371 1.547 1_556 S
C1575 C399 1.543 . S
C1589 C413 1.543 . S
C1593 C385 1.539 . S
