# Generated by pormake.
# Topology smm, (6)-cn, num edge types: 1
# Building blocks:
#     Node 0, Type 0, BuildingBlock: KUMBOL_clean_sbu_0, # of connection points: 6
#     Node 1, Type 0, BuildingBlock: KUMBOL_clean_sbu_0, # of connection points: 6
#     Node 2, Type 0, BuildingBlock: KUMBOL_clean_sbu_0, # of connection points: 6
#     Node 3, Type 0, BuildingBlock: KUMBOL_clean_sbu_0, # of connection points: 6
#     Node 4, Type 0, BuildingBlock: KUMBOL_clean_sbu_0, # of connection points: 6
#     Node 5, Type 0, BuildingBlock: KUMBOL_clean_sbu_0, # of connection points: 6
#     Node 6, Type 0, BuildingBlock: KUMBOL_clean_sbu_0, # of connection points: 6
#     Node 7, Type 0, BuildingBlock: KUMBOL_clean_sbu_0, # of connection points: 6
#     Node 8, Type 0, BuildingBlock: KUMBOL_clean_sbu_0, # of connection points: 6
#     Edge 9, Type (0, 0), BuildingBlock: XUDNAN_clean_linker_2, # of connection points: 2
#     Edge 10, Type (0, 0), BuildingBlock: XUDNAN_clean_linker_2, # of connection points: 2
#     Edge 11, Type (0, 0), BuildingBlock: XUDNAN_clean_linker_2, # of connection points: 2
#     Edge 12, Type (0, 0), BuildingBlock: XUDNAN_clean_linker_2, # of connection points: 2
#     Edge 13, Type (0, 0), BuildingBlock: XUDNAN_clean_linker_2, # of connection points: 2
#     Edge 14, Type (0, 0), BuildingBlock: XUDNAN_clean_linker_2, # of connection points: 2
#     Edge 15, Type (0, 0), BuildingBlock: XUDNAN_clean_linker_2, # of connection points: 2
#     Edge 16, Type (0, 0), BuildingBlock: XUDNAN_clean_linker_2, # of connection points: 2
#     Edge 17, Type (0, 0), BuildingBlock: XUDNAN_clean_linker_2, # of connection points: 2
#     Edge 18, Type (0, 0), BuildingBlock: XUDNAN_clean_linker_2, # of connection points: 2
#     Edge 19, Type (0, 0), BuildingBlock: XUDNAN_clean_linker_2, # of connection points: 2
#     Edge 20, Type (0, 0), BuildingBlock: XUDNAN_clean_linker_2, # of connection points: 2
#     Edge 21, Type (0, 0), BuildingBlock: XUDNAN_clean_linker_2, # of connection points: 2
#     Edge 22, Type (0, 0), BuildingBlock: XUDNAN_clean_linker_2, # of connection points: 2
#     Edge 23, Type (0, 0), BuildingBlock: XUDNAN_clean_linker_2, # of connection points: 2
#     Edge 24, Type (0, 0), BuildingBlock: XUDNAN_clean_linker_2, # of connection points: 2
#     Edge 25, Type (0, 0), BuildingBlock: XUDNAN_clean_linker_2, # of connection points: 2
#     Edge 26, Type (0, 0), BuildingBlock: XUDNAN_clean_linker_2, # of connection points: 2
#     Edge 27, Type (0, 0), BuildingBlock: XUDNAN_clean_linker_2, # of connection points: 2
#     Edge 28, Type (0, 0), BuildingBlock: XUDNAN_clean_linker_2, # of connection points: 2
#     Edge 29, Type (0, 0), BuildingBlock: XUDNAN_clean_linker_2, # of connection points: 2
#     Edge 30, Type (0, 0), BuildingBlock: XUDNAN_clean_linker_2, # of connection points: 2
#     Edge 31, Type (0, 0), BuildingBlock: XUDNAN_clean_linker_2, # of connection points: 2
#     Edge 32, Type (0, 0), BuildingBlock: XUDNAN_clean_linker_2, # of connection points: 2
#     Edge 33, Type (0, 0), BuildingBlock: XUDNAN_clean_linker_2, # of connection points: 2
#     Edge 34, Type (0, 0), BuildingBlock: XUDNAN_clean_linker_2, # of connection points: 2
#     Edge 35, Type (0, 0), BuildingBlock: XUDNAN_clean_linker_2, # of connection points: 2
# Relax obj value: 0.115
# Max RMSD: 0.258
# Mean RMSD: 0.195
data_MOF--net-smm--node1-KUMBOL_clean_sbu_0--edge1-XUDNAN_clean_linker_2
_symmetry_space_group_name_H-M    P1
_symmetry_Int_Tables_number       1
_symmetry_cell_setting            triclinic
loop_
_symmetry_equiv_pos_as_xyz
'x, y, z'
_cell_length_a     57.421429
_cell_length_b     73.40859
_cell_length_c     15.10927
_cell_angle_alpha  98.905208
_cell_angle_beta   98.90232
_cell_angle_gamma 121.81304
loop_
_atom_site_label
_atom_site_type_symbol
_atom_site_fract_x
_atom_site_fract_y
_atom_site_fract_z
_atom_type_partial_charge
Gd0 Gd 1.024 0.17985 0.11259 0.0
Gd1 Gd 0.09575 0.2325 0.1848 0.0
C2 C 0.17122 0.22665 0.26075 0.0
C3 C 0.18965 0.24407 0.4284 0.0
C4 C 0.14904 0.24209 0.33848 0.0
C5 C 0.14989 0.23089 0.258 0.0
C6 C 0.16941 0.24941 0.42415 0.0
C7 C 0.19053 0.23268 0.3468 0.0
C8 C 0.17317 0.21727 0.17657 0.0
C9 C 0.15501 0.21336 0.09237 0.0
N10 N 0.13123 0.22569 0.17599 0.0
C11 C 0.13433 0.21802 0.09329 0.0
H12 H 0.12031 0.21474 0.02769 0.0
C13 C 0.13071 0.26139 0.40542 0.0
N14 N 0.12953 0.2473 0.33136 0.0
C15 C 0.15034 0.2689 0.49219 0.0
C16 C 0.16948 0.26258 0.50201 0.0
H17 H 0.1157 0.26608 0.39813 0.0
H18 H 0.20684 0.2293 0.35051 0.0
H19 H 1.00131 0.19983 0.2726 0.0
H20 H 0.18916 0.21366 0.17564 0.0
H21 H 0.15678 0.20662 0.02673 0.0
H22 H 0.20528 0.2493 0.49379 0.0
H23 H 0.99922 0.14074 0.91353 0.0
H24 H 0.92769 0.19543 0.1286 0.0
H25 H 0.96404 0.20673 0.27497 0.0
H26 H 0.90522 0.15262 0.81702 0.0
H27 H 0.15065 0.27949 0.55143 0.0
H28 H 0.18475 0.26851 0.56917 0.0
H29 H 0.90615 0.17554 0.95686 0.0
H30 H 0.96088 0.12306 0.76498 0.0
N31 N 0.98731 0.18531 0.125 0.0
C32 C 0.94411 0.19233 0.1269 0.0
C33 C 0.96451 0.19864 0.20965 0.0
C34 C 0.94448 0.18125 0.0436 0.0
C35 C 0.9665 0.1778 0.04524 0.0
C36 C 0.98576 0.19464 0.20773 0.0
N37 N 0.98646 0.16096 0.97382 0.0
C38 C 0.96606 0.16515 0.96682 0.0
C39 C 0.96225 0.13507 0.82079 0.0
C40 C 0.94222 0.1405 0.8098 0.0
C41 C 0.984 0.14519 0.90462 0.0
C42 C 0.94353 0.15529 0.88424 0.0
H43 H 0.92525 0.13253 0.74513 0.0
O44 O 1.01846 0.14782 0.10412 0.0
O45 O 0.07115 0.1954 0.15706 0.0
O46 O 0.07964 0.21747 0.02715 0.0
O47 O 1.0301 0.19036 0.98196 0.0
O48 O 0.04715 0.16752 0.0431 0.0
O49 O 0.99986 0.15843 0.19471 0.0
O50 O 0.11497 0.26832 0.21442 0.0
O51 O 0.0487 0.21721 0.13791 0.0
O52 O 1.03943 0.19626 0.26741 0.0
O53 O 0.08909 0.2187 0.30867 0.0
O54 O 0.07273 0.24671 0.24325 0.0
O55 O 0.11784 0.25101 0.09207 0.0
C56 C 0.07247 0.1816 0.09938 0.0
C57 C 0.9225 0.15977 0.88022 0.0
C58 C 0.92301 0.1728 0.95984 0.0
C59 C 1.00326 0.14271 0.16241 0.0
C60 C 0.97876 0.11914 0.1385 0.0
C61 C 0.95081 0.11285 0.10097 0.0
C62 C 0.98348 0.10267 0.15391 0.0
C63 C 0.96032 0.0802 0.13466 0.0
C64 C 0.92785 0.09059 0.08115 0.0
C65 C 0.9325 0.07443 0.09853 0.0
C66 C 0.05452 0.20359 0.96354 0.0
C67 C 0.04727 0.2318 0.18987 0.0
C68 C 0.12588 0.27035 0.14407 0.0
C69 C 0.15644 0.28862 0.16404 0.0
C70 C 0.17724 0.28845 0.22551 0.0
C71 C 0.16518 0.30594 0.12008 0.0
C72 C 0.19457 0.32266 0.13674 0.0
C73 C 0.20614 0.30498 0.24291 0.0
C74 C 0.21479 0.3219 0.19882 0.0
C75 C 0.06469 0.2066 0.32829 0.0
H76 H 0.94673 0.12513 0.08742 0.0
H77 H 1.00504 0.10742 0.18278 0.0
H78 H 0.90631 0.08586 0.05265 0.0
H79 H 0.91431 0.05732 0.08317 0.0
H80 H 0.1712 0.2755 0.25992 0.0
H81 H 0.1493 0.30615 0.07194 0.0
H82 H 0.22194 0.30464 0.29067 0.0
H83 H 0.23742 0.3346 0.2141 0.0
Gd84 Gd 0.94154 0.86274 0.0838 0.0
Gd85 Gd 0.94043 0.81184 0.04288 0.0
C86 C 1.03295 0.83567 0.06786 0.0
C87 C 1.03044 0.8204 0.90936 0.0
C88 C 0.98746 0.81342 0.94862 0.0
C89 C 1.00332 0.82606 0.03975 0.0
C90 C 1.0007 0.80981 0.88316 0.0
C91 C 0.04654 0.83332 0.00157 0.0
C92 C 0.04783 0.84669 0.16233 0.0
C93 C 1.03302 0.84745 0.22636 0.0
N94 N 0.9895 0.82786 0.10217 0.0
C95 C 1.00369 0.8379 0.19491 0.0
H96 H 0.99262 0.83891 0.24493 0.0
C97 C 0.94173 0.78719 0.84262 0.0
N98 N 0.95876 0.80322 0.92598 0.0
C99 C 0.95383 0.78323 0.77492 0.0
C100 C 0.9835 0.79492 0.79463 0.0
H101 H 0.91874 0.77799 0.82751 0.0
H102 H 0.06934 0.84083 0.02159 0.0
H103 H 0.95838 0.89268 0.92798 0.0
H104 H 0.07057 0.85424 0.18678 0.0
H105 H 1.04425 0.85565 0.29978 0.0
H106 H 1.04104 0.81808 0.8597 0.0
H107 H 0.90166 0.84981 0.23888 0.0
H108 H 0.88445 0.88922 0.7933 0.0
H109 H 0.93457 0.90173 0.80993 0.0
H110 H 0.82147 0.85766 0.98052 0.0
H111 H 0.94028 0.7711 0.70786 0.0
H112 H 0.99284 0.79169 0.74239 0.0
H113 H 0.84204 0.87229 0.8564 0.0
H114 H 0.85814 0.84598 0.25695 0.0
N115 N 0.92126 0.87334 0.9722 0.0
C116 C 0.89462 0.88482 0.84418 0.0
C117 C 0.92292 0.89192 0.85332 0.0
C118 C 0.88049 0.8735 0.90524 0.0
C119 C 0.8947 0.86816 0.97034 0.0
C120 C 0.93627 0.88661 0.91998 0.0
N121 N 0.89807 0.85607 0.10538 0.0
C122 C 0.88298 0.85965 0.03982 0.0
C123 C 0.86445 0.84926 0.19429 0.0
C124 C 0.8477 0.85123 0.1244 0.0
C125 C 0.88948 0.85153 0.18342 0.0
C126 C 0.85697 0.85668 0.04637 0.0
H127 H 0.82817 0.84928 0.1328 0.0
O128 O 0.98232 0.89197 0.17509 0.0
O129 O 0.97125 0.85092 0.08297 0.0
O130 O 0.94066 0.82048 0.19094 0.0
O131 O 0.94285 0.85356 0.22072 0.0
O132 O 0.97313 0.87183 0.00142 0.0
O133 O 0.94563 0.89335 0.14933 0.0
O134 O 0.90947 0.77524 -0.00166 0.0
O135 O 0.915 0.82632 0.07135 0.0
O136 O 0.92514 0.8466 0.92775 0.0
O137 O 0.93378 0.81855 0.90432 0.0
O138 O 0.89387 0.79644 0.96761 0.0
O139 O 0.94268 0.78974 0.12371 0.0
C140 C 0.98597 0.8631 0.03247 0.0
C141 C 0.84176 0.86034 0.97752 0.0
C142 C 0.85344 0.86864 0.90676 0.0
C143 C 0.9731 0.90478 0.18323 0.0
C144 C 0.99004 0.92695 0.16474 0.0
C145 C 1.01607 0.93414 0.14417 0.0
C146 C 0.9806 0.94137 0.16981 0.0
C147 C 0.99716 0.96288 0.15604 0.0
C148 C 1.03247 0.95518 0.13037 0.0
C149 C 1.02333 0.96946 0.13691 0.0
C150 C 0.94162 0.8367 0.2464 0.0
C151 C 0.89093 0.81117 0.0128 0.0
C152 C 0.9202 0.77099 0.06799 0.0
C153 C 0.92091 0.75021 0.0468 0.0
C154 C 0.9398 0.75061 -0.00256 0.0
C155 C 0.90267 0.72977 0.0713 0.0
C156 C 0.90333 0.7102 0.04399 0.0
C157 C 0.94078 0.73198 0.97168 0.0
C158 C 0.92296 0.71226 -0.00597 0.0
C159 C 0.92619 0.83113 0.8741 0.0
H160 H 1.02399 0.92362 0.13947 0.0
H161 H 0.96031 0.93569 0.18409 0.0
H162 H 0.05266 0.96059 0.11567 0.0
H163 H 1.03727 0.9859 0.12876 0.0
H164 H 0.95395 0.76548 0.97821 0.0
H165 H 0.88787 0.72899 0.10959 0.0
H166 H 0.95567 0.73285 0.93363 0.0
H167 H 0.9251 0.69854 0.9732 0.0
Gd168 Gd 0.2164 0.04249 0.06706 0.0
Gd169 Gd 0.24173 1.00667 0.07083 0.0
C170 C 0.16336 0.93407 0.97723 0.0
C171 C 0.16374 0.92348 0.1215 0.0
C172 C 0.20097 0.96067 0.1185 0.0
C173 C 0.18828 0.95556 0.02453 0.0
C174 C 0.18905 0.94451 0.16758 0.0
C175 C 0.15094 0.91826 0.02648 0.0
C176 C 0.15169 0.92902 0.88153 0.0
C177 C 0.16507 0.94498 0.83487 0.0
N178 N 0.20034 0.97142 0.97909 0.0
C179 C 0.18962 0.96601 0.88446 0.0
H180 H 0.20002 0.97729 0.84481 0.0
C181 C 0.24027 0.9857 0.25105 0.0
N182 N 0.22537 0.98115 0.16143 0.0
C183 C 0.22913 0.97039 0.30275 0.0
C184 C 0.20316 0.94981 0.26129 0.0
H185 H 0.26104 1.00114 0.28322 0.0
H186 H 0.13161 0.90185 -0.00853 0.0
H187 H 0.23363 0.06818 0.30056 0.0
H188 H 0.13276 0.9127 0.84266 0.0
H189 H 0.15669 0.94101 0.76019 0.0
H190 H 0.15413 0.911 0.15838 0.0
H191 H 0.22205 0.05618 0.86064 0.0
H192 H 0.31175 0.13206 0.37068 0.0
H193 H 0.27256 0.10247 0.41722 0.0
H194 H 0.32894 0.14102 0.07671 0.0
H195 H 0.24077 0.97438 0.37425 0.0
H196 H 0.19463 0.9379 0.30133 0.0
H197 H 0.3325 0.1462 0.2437 0.0
H198 H 0.25744 0.0845 0.80188 0.0
N199 N 0.25205 0.07592 0.18727 0.0
C200 C 0.29503 0.11652 0.31866 0.0
C201 C 0.2731 0.09982 0.34528 0.0
C202 C 0.29442 0.11342 0.2246 0.0
C203 C 0.27225 0.09277 0.15932 0.0
C204 C 0.25135 0.07988 0.27831 0.0
N205 N 0.24795 0.07032 0.0026 0.0
C206 C 0.27033 0.08981 0.0648 0.0
C207 C 0.26185 0.08597 0.87588 0.0
C208 C 0.2864 0.10499 0.93826 0.0
C209 C 0.24227 0.06924 0.90965 0.0
C210 C 0.29039 0.10751 0.03401 0.0
H211 H 0.30124 0.11817 0.91204 0.0
O212 O 0.18746 0.04884 -0.01146 0.0
O213 O 0.20367 1.0082 0.07949 0.0
O214 O 0.23835 1.01382 0.93287 0.0
O215 O 0.20795 0.02562 0.91655 0.0
O216 O 0.17177 1.00957 0.00815 0.0
O217 O 0.19751 0.0578 0.13758 0.0
O218 O 0.26974 0.99541 0.10618 0.0
O219 O 0.25585 0.04173 0.06309 0.0
O220 O 0.21704 0.03347 0.20482 0.0
O221 O 0.25036 1.02437 0.21881 0.0
O222 O 0.28266 0.03862 0.16037 0.0
O223 O 0.26507 1.00328 0.97654 0.0
C224 C 0.17686 0.99594 0.03646 0.0
C225 C 0.31317 0.12749 0.09926 0.0
C226 C 0.31514 0.13046 0.19427 0.0
C227 C 0.18493 0.05899 0.06145 0.0
C228 C 0.18902 0.08098 0.06081 0.0
C229 C 0.21144 0.09621 0.02935 0.0
C230 C 0.17025 0.08669 0.08637 0.0
C231 C 0.17403 0.10714 0.07799 0.0
C232 C 0.21541 0.11629 0.02261 0.0
C233 C 0.19687 0.12167 0.04612 0.0
C234 C 0.22312 1.01914 0.88311 0.0
C235 C 0.28073 0.05273 0.1234 0.0
C236 C 0.27681 0.99608 0.02845 0.0
C237 C 0.2771 0.97708 0.97894 0.0
C238 C 0.25155 0.95762 0.92099 0.0
C239 C 0.30316 0.97893 0.98333 0.0
C240 C 0.30355 0.96169 0.92782 0.0
C241 C 0.25182 0.94056 0.86673 0.0
C242 C 0.27755 0.94262 0.86938 0.0
C243 C 0.23555 0.0308 0.25501 0.0
H244 H 0.22578 0.09251 0.008 0.0
H245 H 0.15263 0.07522 0.11029 0.0
H246 H 0.23287 0.12769 -0.00206 0.0
H247 H 0.20045 0.13739 0.03961 0.0
H248 H 0.23139 0.95575 0.91646 0.0
H249 H 0.32305 0.99389 0.0279 0.0
H250 H 0.23195 0.92567 0.82189 0.0
H251 H 0.27706 0.92904 0.82685 0.0
Gd252 Gd 0.80381 0.50998 0.10501 0.0
Gd253 Gd 0.74407 0.51459 0.08009 0.0
C254 C 0.65842 0.44746 0.02947 0.0
C255 C 0.6365 0.43857 0.86446 0.0
C256 C 0.68258 0.47357 0.94299 0.0
C257 C 0.68239 0.4676 0.02501 0.0
C258 C 0.6591 0.45952 0.86262 0.0
C259 C 0.63612 0.43257 0.94798 0.0
C260 C 0.6569 0.44338 0.11632 0.0
C261 C 0.67805 0.45974 0.19636 0.0
N262 N 0.70429 0.48248 0.10249 0.0
C263 C 0.70138 0.47937 0.1884 0.0
H264 H 0.71639 0.49188 0.25234 0.0
C265 C 0.70189 0.50279 0.87197 0.0
N266 N 0.70422 0.4942 0.94477 0.0
C267 C 0.67944 0.48939 0.79009 0.0
C268 C 0.65825 0.46743 0.78454 0.0
H269 H 0.71805 0.51989 0.87598 0.0
H270 H 0.6179 0.41682 0.94977 0.0
H271 H 0.81468 0.49528 0.89833 0.0
H272 H 0.63886 0.42817 0.12273 0.0
H273 H 0.67635 0.45733 0.26454 0.0
H274 H 0.61854 0.42739 0.80301 0.0
H275 H 0.83876 0.54968 0.31873 0.0
H276 H 0.87467 0.5548 0.83684 0.0
H277 H 0.84065 0.51373 0.79039 0.0
H278 H 0.91219 0.61123 0.12447 0.0
H279 H 0.67843 0.49605 0.73159 0.0
H280 H 0.64065 0.45714 0.72149 0.0
H281 H 0.90129 0.59104 0.96206 0.0
H282 H 0.87719 0.58901 0.38264 0.0
N283 N 0.83049 0.52569 0.00055 0.0
C284 C 0.86268 0.54679 0.88372 0.0
C285 C 0.84346 0.52365 0.85714 0.0
C286 C 0.86756 0.55914 0.97292 0.0
C287 C 0.8513 0.54791 0.03132 0.0
C288 C 0.82825 0.51329 0.918 0.0
N289 N 0.84233 0.5478 0.17895 0.0
C290 C 0.85775 0.55919 0.12342 0.0
C291 C 0.87185 0.58087 0.30944 0.0
C292 C 0.88698 0.59292 0.25241 0.0
C293 C 0.84965 0.55828 0.2718 0.0
C294 C 0.88021 0.58212 0.15848 0.0
H295 H 0.90401 0.61048 0.28178 0.0
O296 O 0.83741 0.50834 0.18629 0.0
O297 O 0.75536 0.48948 0.06775 0.0
O298 O 0.75932 0.51563 0.23026 0.0
O299 O 0.79923 0.51411 0.2485 0.0
O300 O 0.77561 0.4802 0.15602 0.0
O301 O 0.81029 0.48407 0.05325 0.0
O302 O 0.71983 0.52919 0.06344 0.0
O303 O 0.79264 0.53606 0.11875 0.0
O304 O 0.77728 0.49444 0.95409 0.0
O305 O 0.75214 0.51064 0.93923 0.0
O306 O 0.77063 0.54207 0.01824 0.0
O307 O 0.74924 0.53922 0.19685 0.0
C308 C 0.75088 0.47501 0.11257 0.0
C309 C 0.89526 0.59358 0.09902 0.0
C310 C 0.88895 0.58211 0.00644 0.0
C311 C 0.83085 0.49037 0.12645 0.0
C312 C 0.85409 0.48785 0.11125 0.0
C313 C 0.87413 0.50207 0.07002 0.0
C314 C 0.85552 0.47037 0.13465 0.0
C315 C 0.87658 0.46692 0.11534 0.0
C316 C 0.895 0.49889 0.05123 0.0
C317 C 0.89618 0.48151 0.07317 0.0
C318 C 0.77993 0.51525 0.28092 0.0
C319 C 0.79589 0.54945 0.06747 0.0
C320 C 0.72918 0.54035 0.15075 0.0
C321 C 0.70741 0.53802 0.19693 0.0
C322 C 0.6808 0.51755 0.17501 0.0
C323 C 0.7132 0.55662 0.26296 0.0
C324 C 0.69254 0.55491 0.30705 0.0
C325 C 0.6603 0.51569 0.21893 0.0
C326 C 0.66605 0.53422 0.2845 0.0
C327 C 0.76281 0.50023 0.90317 0.0
H328 H 0.87356 0.51557 0.05193 0.0
H329 H 0.83995 0.45925 0.1661 0.0
H330 H 0.91039 0.50998 0.01931 0.0
H331 H 0.91287 0.47974 0.05847 0.0
H332 H 0.67576 0.50304 0.1236 0.0
H333 H 0.73363 0.57247 0.27879 0.0
H334 H 0.63986 0.49984 0.20204 0.0
H335 H 0.64989 0.53229 0.31835 0.0
Gd336 Gd 0.53184 0.22022 0.16068 0.0
Gd337 Gd 0.52496 0.16668 0.12009 0.0
C338 C 0.59776 0.16058 0.07552 0.0
C339 C 0.57894 0.1384 0.91345 0.0
C340 C 0.55094 0.14864 -0.0141 0.0
C341 C 0.57283 0.16039 0.06796 0.0
C342 C 0.55348 0.13711 0.90832 0.0
C343 C 0.60097 0.14996 -0.0028 0.0
C344 C 0.61814 0.17057 0.16255 0.0
C345 C 0.61275 0.17908 0.24004 0.0
N346 N 0.56865 0.1699 0.14283 0.0
C347 C 0.58748 0.17816 0.22919 0.0
H348 H 0.58341 0.18458 0.28985 0.0
C349 C 0.50229 0.13218 0.91136 0.0
N350 N 0.52616 0.14687 -0.01533 0.0
C351 C 0.50393 0.12088 0.83182 0.0
C352 C 0.5298 0.1237 0.82969 0.0
H353 H 0.48202 0.12944 0.91362 0.0
H354 H 0.62008 0.15011 0.00144 0.0
H355 H 0.47147 0.19615 -0.01547 0.0
H356 H 0.63762 0.17114 0.17124 0.0
H357 H 0.628 0.18629 0.30822 0.0
H358 H 0.58136 0.12976 0.85435 0.0
H359 H 0.57088 0.25715 0.37064 0.0
H360 H 0.41105 0.20226 0.09528 0.0
H361 H 0.42354 0.18851 0.96293 0.0
H362 H 0.46457 0.24795 0.40998 0.0
H363 H 0.48519 0.10983 0.77272 0.0
H364 H 0.53088 0.11473 0.7686 0.0
H365 H 0.4265 0.22436 0.26231 0.0
H366 H 0.5637 0.27508 0.50664 0.0
N367 N 0.48622 0.21374 0.12885 0.0
C368 C 0.43223 0.20568 0.10541 0.0
C369 C 0.43923 0.19795 0.03048 0.0
C370 C 0.45286 0.21819 0.19192 0.0
C371 C 0.48005 0.22204 0.20154 0.0
C372 C 0.46657 0.20239 0.04315 0.0
N373 N 0.52739 0.23887 0.29101 0.0
C374 C 0.50135 0.23516 0.28493 0.0
C375 C 0.54596 0.2638 0.4449 0.0
C376 C 0.51889 0.25923 0.44175 0.0
C377 C 0.54997 0.25366 0.36791 0.0
C378 C 0.49626 0.245 0.36064 0.0
H379 H 0.51584 0.2671 0.5015 0.0
O380 O 0.57117 0.25257 0.17523 0.0
O381 O 0.55464 0.20333 0.1371 0.0
O382 O 0.53943 0.18465 0.27421 0.0
O383 O 0.52536 0.20929 0.29053 0.0
O384 O 0.57578 0.23233 0.24606 0.0
O385 O 0.53246 0.24323 0.0812 0.0
O386 O 0.49083 0.1324 0.10771 0.0
O387 O 0.50124 0.18265 0.1448 0.0
O388 O 0.51823 0.20367 0.0059 0.0
O389 O 0.52916 0.17699 -0.01208 0.0
O390 O 0.47959 0.15289 0.04303 0.0
O391 O 0.52836 0.15019 0.22532 0.0
C392 C 0.57818 0.21739 0.19981 0.0
C393 C 0.46898 0.24069 0.35233 0.0
C394 C 0.44731 0.22727 0.26822 0.0
C395 C 0.55969 0.25887 0.11717 0.0
C396 C 0.5693 0.28303 0.14667 0.0
C397 C 0.55756 0.28903 0.21051 0.0
C398 C 0.59097 0.30047 0.11608 0.0
C399 C 0.60095 0.32347 0.15187 0.0
C400 C 0.56705 0.31127 0.24514 0.0
C401 C 0.58846 0.3282 0.21696 0.0
C402 C 0.53226 0.19657 0.32293 0.0
C403 C 0.47635 0.16733 0.0888 0.0
C404 C 0.50472 0.131 0.18034 0.0
C405 C 0.506 0.11106 0.16829 0.0
C406 C 0.50808 0.10198 0.08337 0.0
C407 C 0.50464 0.10066 0.24072 0.0
C408 C 0.50467 0.08112 0.22666 0.0
C409 C 0.50866 0.08303 0.06997 0.0
C410 C 0.50683 0.07261 0.14064 0.0
C411 C 0.52182 0.18948 0.95505 0.0
H412 H 0.54102 0.27645 0.23439 0.0
H413 H 0.6003 0.29623 0.06651 0.0
H414 H 0.5577 0.31548 0.29471 0.0
H415 H 0.59492 0.34518 0.24528 0.0
H416 H 0.50898 0.10931 0.02658 0.0
H417 H 0.50284 0.10737 0.30649 0.0
H418 H 0.51028 0.07627 0.00401 0.0
H419 H 0.50719 0.05784 0.12813 0.0
Gd420 Gd 0.89999 0.30775 0.16422 0.0
Gd421 Gd 0.97267 0.3604 0.24196 0.0
C422 C 0.9833 0.42476 0.20213 0.0
C423 C 1.00302 0.42951 0.06972 0.0
C424 C 0.99173 0.3978 0.1299 0.0
C425 C 0.98175 0.40475 0.19557 0.0
C426 C 1.00292 0.41027 0.0671 0.0
C427 C 0.99349 0.43687 0.13775 0.0
C428 C 0.97597 0.43259 0.276 0.0
C429 C 0.96871 0.42111 0.34337 0.0
N430 N 0.97337 0.3932 0.25923 0.0
C431 C 0.96785 0.40149 0.33442 0.0
H432 H 0.96226 0.39278 0.38698 0.0
C433 C 1.00579 0.37401 0.07741 0.0
N434 N 0.9923 0.37961 0.13208 0.0
C435 C 1.01655 0.38552 0.01239 0.0
C436 C 1.01479 0.40356 0.00634 0.0
H437 H 1.00744 0.36019 0.08159 0.0
H438 H 0.99484 0.45227 0.1416 0.0
H439 H 0.86066 0.30086 0.95705 0.0
H440 H 0.97675 0.44784 0.28332 0.0
H441 H 0.96367 0.42731 0.40212 0.0
H442 H 1.01141 0.43927 0.02181 0.0
H443 H 0.91739 0.28204 0.29929 0.0
H444 H 0.84351 0.24353 0.76093 0.0
H445 H 0.83932 0.27556 0.79679 0.0
H446 H 0.88026 0.21274 0.95123 0.0
H447 H 1.02637 0.38057 0.96741 0.0
H448 H 1.02348 0.41263 0.95673 0.0
H449 H 0.85909 0.22025 0.8191 0.0
H450 H 0.91852 0.24865 0.28101 0.0
N451 N 0.87807 0.28402 0.01003 0.0
C452 C 0.85304 0.25465 0.8312 0.0
C453 C 0.85058 0.27269 0.85119 0.0
C454 C 0.86681 0.25069 0.90293 0.0
C455 C 0.87894 0.26572 -0.00694 0.0
C456 C 0.8627 0.28698 0.94197 0.0
N457 N 0.90074 0.27574 0.15366 0.0
C458 C 0.89057 0.26141 0.06735 0.0
C459 C 0.91061 0.25203 0.22026 0.0
C460 C 0.90133 0.23763 0.13144 0.0
C461 C 0.90992 0.27101 0.23028 0.0
C462 C 0.89075 0.24203 0.05368 0.0
H463 H 0.90202 0.22301 0.12385 0.0
O464 O 0.86719 0.28375 0.21981 0.0
O465 O 0.92589 0.34535 0.2222 0.0
O466 O 0.95217 0.35455 0.35973 0.0
O467 O 0.9194 0.3161 0.31924 0.0
O468 O 0.88937 0.33039 0.11148 0.0
O469 O 0.86137 0.30688 0.1678 0.0
O470 O 1.01503 0.36694 0.29194 0.0
O471 O 0.94698 0.3229 0.22038 0.0
O472 O 0.91767 0.31414 0.03945 0.0
O473 O 0.95201 0.35273 0.09046 0.0
O474 O 0.98455 0.33736 0.18205 0.0
O475 O 1.00196 0.3837 0.37804 0.0
C476 C 0.91033 0.34913 0.16909 0.0
C477 C 0.87999 0.22756 0.9633 0.0
C478 C 0.86801 0.23186 0.88805 0.0
C479 C 0.84971 0.28968 0.19988 0.0
C480 C 0.81903 0.27155 0.15043 0.0
C481 C 0.81247 0.25447 0.07411 0.0
C482 C 0.79613 0.27121 0.17762 0.0
C483 C 0.76702 0.25394 0.12831 0.0
C484 C 0.78417 0.23758 0.02548 0.0
C485 C 0.76175 0.23724 0.05208 0.0
C486 C 0.9355 0.33592 0.38135 0.0
C487 C 0.96291 0.31873 0.18373 0.0
C488 C 1.02328 0.38269 0.36663 0.0
C489 C 0.05094 0.40448 0.38049 0.0
C490 C 0.05096 0.41917 0.33129 0.0
C491 C 0.07732 0.41084 0.44007 0.0
C492 C 0.1031 0.43137 0.44662 0.0
C493 C 0.07609 0.43918 0.3373 0.0
C494 C 0.10195 0.44519 0.39388 0.0
C495 C 0.93407 0.33374 0.024 0.0
H496 H 0.82927 0.25407 0.05215 0.0
H497 H 0.80101 0.28439 0.2363 0.0
H498 H 0.77954 0.22446 0.96701 0.0
H499 H 0.74016 0.22343 0.01378 0.0
H500 H 1.03142 0.41525 0.28818 0.0
H501 H 0.07786 0.39993 0.47988 0.0
H502 H 0.07548 0.45016 0.29812 0.0
H503 H 0.12116 0.461 0.39802 0.0
Gd504 Gd 0.44088 0.88676 0.80086 0.0
Gd505 Gd 0.50289 0.94338 0.8572 0.0
C506 C 0.5749 0.93554 0.81399 0.0
C507 C 0.59789 0.93979 0.97178 0.0
C508 C 0.55841 0.94416 0.94225 0.0
C509 C 0.55592 0.9396 0.84758 0.0
C510 C 0.58021 0.94517 0.00562 0.0
C511 C 0.59519 0.93492 0.87608 0.0
C512 C 0.57338 0.93269 0.71926 0.0
C513 C 0.55455 0.93525 0.66168 0.0
N514 N 0.53575 0.93998 0.78884 0.0
C515 C 0.53643 0.93953 0.6982 0.0
H516 H 0.52379 0.943 0.65297 0.0
C517 C 0.54696 0.95846 0.06644 0.0
N518 N 0.54086 0.94909 0.97307 0.0
C519 C 0.56808 0.95959 0.13183 0.0
C520 C 0.58429 0.95233 0.10136 0.0
H521 H 0.53542 0.96496 0.09168 0.0
H522 H 0.60948 0.93138 0.8511 0.0
H523 H 0.42801 0.89406 0.0078 0.0
H524 H 0.58748 0.92947 0.69082 0.0
H525 H 0.55426 0.9343 0.58926 0.0
H526 H 0.61432 0.94004 0.0193 0.0
H527 H 0.40645 0.86144 0.56969 0.0
H528 H 0.35329 0.89453 0.97112 0.0
H529 H 0.39425 0.89818 0.07448 0.0
H530 H 0.31709 0.87388 0.63944 0.0
H531 H 0.57199 0.96624 0.20567 0.0
H532 H 0.60076 0.95332 0.15214 0.0
H533 H 0.32465 0.88537 0.8087 0.0
H534 H 0.36479 0.85366 0.45515 0.0
N535 N 0.40888 0.89077 0.86877 0.0
C536 C 0.36865 0.89335 0.94166 0.0
C537 C 0.39174 0.89546 0.00017 0.0
C538 C 0.36499 0.88875 0.84537 0.0
C539 C 0.38569 0.88748 0.81046 0.0
C540 C 0.41137 0.89365 0.9621 0.0
N541 N 0.40042 0.87779 0.68506 0.0
C542 C 0.38152 0.88107 0.71547 0.0
C543 C 0.36949 0.86177 0.5279 0.0
C544 C 0.35111 0.86669 0.55738 0.0
C545 C 0.39351 0.86669 0.59327 0.0
C546 C 0.35639 0.87563 0.65251 0.0
H547 H 0.33211 0.86235 0.50692 0.0
O548 O 0.41663 0.85094 0.73681 0.0
O549 O 0.48866 0.90758 0.84106 0.0
O550 O 0.48405 0.93274 0.70213 0.0
O551 O 0.44944 0.89453 0.66655 0.0
O552 O 0.46776 0.87939 0.72873 0.0
O553 O 0.43203 0.86381 0.88621 0.0
O554 O 0.5157 0.97502 0.94941 0.0
O555 O 0.45669 0.92257 0.85417 0.0
O556 O 0.46794 0.89785 0.94756 0.0
O557 O 0.48996 0.93611 -0.01078 0.0
O558 O 0.46835 0.94742 0.78951 0.0
O559 O 0.53166 0.97467 0.82899 0.0
C560 C 0.49255 0.89531 0.78448 0.0
C561 C 0.33642 0.8779 0.68678 0.0
C562 C 0.34069 0.8844 0.7831 0.0
C563 C 0.41653 0.84603 0.81572 0.0
C564 C 0.38878 0.82849 0.82372 0.0
C565 C 0.36527 0.83001 0.80559 0.0
C566 C 0.38579 0.81002 0.85012 0.0
C567 C 0.35937 0.79307 0.85846 0.0
C568 C 0.33912 0.81342 0.81458 0.0
C569 C 0.33611 0.79504 0.84077 0.0
C570 C 0.46536 0.91288 0.64259 0.0
C571 C 0.4475 0.93247 0.81449 0.0
C572 C 0.52976 0.98669 0.89671 0.0
C573 C 0.52513 1.00389 0.87601 0.0
C574 C 0.52676 1.0189 0.95068 0.0
C575 C 0.52099 1.0066 0.78518 0.0
C576 C 0.51907 1.02441 0.7703 0.0
C577 C 0.52448 0.03626 0.93608 0.0
C578 C 0.5208 0.03908 0.84697 0.0
C579 C 0.48149 0.91725 0.01138 0.0
H580 H 0.36703 0.84389 0.7839 0.0
H581 H 0.40403 0.80891 0.86433 0.0
H582 H 0.32104 0.81468 0.80021 0.0
H583 H 0.31537 0.78211 0.84494 0.0
H584 H 0.53014 1.01734 0.02093 0.0
H585 H 0.51992 0.99529 0.72678 0.0
H586 H 0.52581 0.04771 -0.00564 0.0
H587 H 0.51897 0.05267 0.83787 0.0
Gd588 Gd 0.33961 0.57613 0.82509 0.0
Gd589 Gd 0.36647 0.54072 0.81903 0.0
C590 C 0.46206 0.57538 0.85925 0.0
C591 C 0.46328 0.55942 0.70801 0.0
C592 C 0.41774 0.54748 0.73918 0.0
C593 C 0.43192 0.56224 0.82854 0.0
C594 C 0.43333 0.54561 0.67891 0.0
C595 C 0.47758 0.57416 0.79803 0.0
C596 C 0.47576 0.58879 0.95165 0.0
C597 C 0.45953 0.58824 0.01208 0.0
N598 N 0.41637 0.56282 0.88711 0.0
C599 C 0.42975 0.57487 0.97904 0.0
H600 H 0.41797 0.57483 0.02791 0.0
C601 C 0.37419 0.51705 0.63158 0.0
N602 N 0.38877 0.53397 0.71317 0.0
C603 C 0.38871 0.5148 0.5692 0.0
C604 C 0.41839 0.52936 0.59234 0.0
H605 H 0.35119 0.50587 0.61313 0.0
H606 H 0.50066 0.58399 0.82063 0.0
H607 H 0.28111 0.54469 0.64341 0.0
H608 H 0.49881 0.59913 0.97793 0.0
H609 H 0.46997 0.59817 0.08429 0.0
H610 H 0.4756 0.55831 0.66251 0.0
H611 H 0.36888 0.6083 0.04763 0.0
H612 H 0.20919 0.53358 0.73646 0.0
H613 H 0.22938 0.52808 0.60982 0.0
H614 H 0.25115 0.57608 0.05867 0.0
H615 H 0.37702 0.50186 0.50335 0.0
H616 H 0.42962 0.52749 0.54408 0.0
H617 H 0.21752 0.55152 0.90421 0.0
H618 H 0.35308 0.61762 0.17993 0.0
N619 N 0.29 0.55883 0.78802 0.0
C620 C 0.23191 0.54087 0.75163 0.0
C621 C 0.24321 0.53769 0.67997 0.0
C622 C 0.25017 0.55393 0.84146 0.0
C623 C 0.27959 0.56308 0.85736 0.0
C624 C 0.27251 0.54702 0.69938 0.0
N625 N 0.3268 0.58624 0.95557 0.0
C626 C 0.29854 0.57725 0.94372 0.0
C627 C 0.33752 0.60624 0.11386 0.0
C628 C 0.30848 0.59672 0.10344 0.0
C629 C 0.34641 0.60098 0.03855 0.0
C630 C 0.28859 0.58217 0.01743 0.0
H631 H 0.30168 0.60086 0.1619 0.0
O632 O 0.3544 0.6109 0.8435 0.0
O633 O 0.37787 0.57514 0.82601 0.0
O634 O 0.36954 0.55668 0.9659 0.0
O635 O 0.33046 0.55875 0.9367 0.0
O636 O 0.38556 0.60299 0.91214 0.0
O637 O 0.32961 0.58669 0.70716 0.0
O638 O 0.3415 0.51564 0.88776 0.0
O639 O 0.32786 0.54116 0.80184 0.0
O640 O 0.3341 0.56086 0.67545 0.0
O641 O 0.36352 0.54775 0.67823 0.0
O642 O 0.32376 0.51457 0.71201 0.0
O643 O 0.37609 0.51672 0.84497 0.0
C644 C 0.3978 0.59382 0.88229 0.0
C645 C 0.25922 0.57255 0.00282 0.0
C646 C 0.24006 0.55852 0.91494 0.0
C647 C 0.33997 0.60675 0.75863 0.0
C648 C 0.32103 0.61472 0.74927 0.0
C649 C 0.29246 0.60043 0.6938 0.0
C650 C 0.33131 0.63671 0.79736 0.0
C651 C 0.31293 0.64392 0.79302 0.0
C652 C 0.27414 0.60748 0.69066 0.0
C653 C 0.2842 0.62904 0.74059 0.0
C654 C 0.34846 0.55654 -0.00838 0.0
C655 C 0.31025 0.52321 0.73666 0.0
C656 C 0.35439 0.50566 0.87729 0.0
C657 C 0.336 0.48095 0.83872 0.0
C658 C 0.33622 0.47078 0.75232 0.0
C659 C 0.31858 0.46728 0.88919 0.0
C660 C 0.30216 0.44372 0.85435 0.0
C661 C 0.31978 0.44758 0.71726 0.0
C662 C 0.30301 0.43415 0.76784 0.0
C663 C 0.34752 0.55345 0.63474 0.0
H664 H 0.28413 0.58381 0.65243 0.0
H665 H 0.35345 0.64812 0.83853 0.0
H666 H 0.25212 0.59624 0.64864 0.0
H667 H 0.26977 0.63435 0.73607 0.0
H668 H 0.34927 0.48071 0.71195 0.0
H669 H 0.31833 0.47492 0.95612 0.0
H670 H 0.32015 0.43996 0.65065 0.0
H671 H 0.29044 0.41617 0.73878 0.0
Gd672 Gd 0.63948 0.76442 0.94661 0.0
Gd673 Gd 0.64037 0.71446 0.91264 0.0
C674 C 0.56726 0.64349 0.8952 0.0
C675 C 0.58066 0.64018 0.04939 0.0
C676 C 0.61112 0.67435 0.00854 0.0
C677 C 0.59194 0.66552 0.9212 0.0
C678 C 0.6059 0.66165 0.07322 0.0
C679 C 0.56149 0.63107 0.96032 0.0
C680 C 0.54977 0.63425 0.80333 0.0
C681 C 0.55758 0.6466 0.7392 0.0
N682 N 0.59833 0.67788 0.85954 0.0
C683 C 0.58206 0.66843 0.76852 0.0
H684 H 0.58773 0.67771 0.71791 0.0
C685 C 0.65662 0.70323 0.1104 0.0
N686 N 0.63547 0.69514 0.02904 0.0
C687 C 0.6522 0.69134 0.1769 0.0
C688 C 0.62658 0.6706 0.15885 0.0
H689 H 0.67663 0.71918 0.12604 0.0
H690 H 0.54277 0.61415 0.94156 0.0
H691 H 0.62303 0.77853 0.13974 0.0
H692 H 0.53069 0.61741 0.78039 0.0
H693 H 0.54459 0.63942 0.66731 0.0
H694 H 0.57621 0.63021 0.09825 0.0
H695 H 0.68182 0.79285 0.81518 0.0
H696 H 0.70102 0.83072 0.34643 0.0
H697 H 0.64835 0.80453 0.29914 0.0
H698 H 0.76958 0.85332 0.17196 0.0
H699 H 0.66864 0.69817 0.24203 0.0
H700 H 0.6233 0.66137 0.21037 0.0
H701 H 0.74656 0.84829 0.29896 0.0
H702 H 0.73172 0.82326 0.8395 0.0
N703 N 0.66112 0.78961 0.09848 0.0
C704 C 0.69001 0.81942 0.27647 0.0
C705 C 0.66029 0.80472 0.25005 0.0
C706 C 0.70492 0.82044 0.21025 0.0
C707 C 0.68952 0.80544 0.11995 0.0
C708 C 0.64602 0.79016 0.15976 0.0
N709 N 0.68568 0.79554 0.96017 0.0
C710 C 0.7023 0.80843 0.04829 0.0
C711 C 0.72386 0.81906 0.899 0.0
C712 C 0.74202 0.83102 -0.01061 0.0
C713 C 0.69547 0.80155 0.88559 0.0
C714 C 0.73105 0.82631 0.06548 0.0
H715 H 0.76398 0.8446 -0.00046 0.0
O716 O 0.61241 0.76591 0.83267 0.0
O717 O 0.61273 0.72714 0.89305 0.0
O718 O 0.62286 0.71802 0.7765 0.0
O719 O 0.6455 0.75625 0.80475 0.0
O720 O 0.59563 0.74078 0.96725 0.0
O721 O 0.62815 0.78869 0.9674 0.0
O722 O 0.67863 0.71524 0.90955 0.0
O723 O 0.6673 0.75175 0.92569 0.0
O724 O 0.64392 0.75506 0.08316 0.0
O725 O 0.62561 0.71723 0.03853 0.0
O726 O 0.68266 0.74039 0.01833 0.0
O727 O 0.64106 0.69362 0.79418 0.0
C728 C 0.59078 0.72233 0.92004 0.0
C729 C 0.74732 0.8398 0.1572 0.0
C730 C 0.73422 0.83692 0.22955 0.0
C731 C 0.61298 0.78235 0.88225 0.0
C732 C 0.6156 0.80009 0.83912 0.0
C733 C 0.6327 0.807 0.77831 0.0
C734 C 0.6003 0.80984 0.85663 0.0
C735 C 0.60179 0.82607 0.8124 0.0
C736 C 0.63454 0.82306 0.73545 0.0
C737 C 0.6193 0.83245 0.75199 0.0
C738 C 0.63258 0.73608 0.74695 0.0
C739 C 0.68958 0.75742 -0.01243 0.0
C740 C 0.66655 0.69922 0.83279 0.0
C741 C 0.67014 0.68085 0.83643 0.0
C742 C 0.66627 0.67178 0.91248 0.0
C743 C 0.67862 0.67287 0.76612 0.0
C744 C 0.68377 0.65636 0.77363 0.0
C745 C 0.67101 0.65522 0.91921 0.0
C746 C 0.67991 0.64762 0.85045 0.0
C747 C 0.63328 0.73546 0.1005 0.0
H748 H 0.64453 0.79987 0.76343 0.0
H749 H 0.58687 0.80446 0.90302 0.0
H750 H 0.64788 0.82828 0.68881 0.0
H751 H 0.62162 0.84506 0.71817 0.0
H752 H 0.66006 0.67768 0.96763 0.0
H753 H 0.68179 0.67977 0.70717 0.0
H754 H 0.66805 0.64843 0.97836 0.0
H755 H 0.68369 0.63483 0.8569 0.0
H756 H 0.23667 0.33678 0.04842 0.0
H757 H 0.17644 0.35047 0.1233 0.0
H758 H 0.19798 0.38377 0.0633 0.0
H759 H 0.29679 0.39299 0.11193 0.0
H760 H 0.31031 0.3889 0.01609 0.0
H761 H 0.28948 0.36593 0.06188 0.0
H762 H 0.25394 0.34229 0.89734 0.0
H763 H 0.27486 0.36507 0.85078 0.0
H764 H 0.23738 0.35336 0.83415 0.0
H765 H 0.22905 0.41741 0.0026 0.0
H766 H 0.26236 0.44503 0.93096 0.0
H767 H 0.30092 0.40815 0.89403 0.0
C768 C 0.22786 0.34669 0.05162 0.0
C769 C 0.2049 0.34106 0.09082 0.0
C770 C 0.19384 0.35436 0.09291 0.0
C771 C 0.20612 0.3734 0.05968 0.0
C772 C 0.22926 0.37879 0.02365 0.0
C773 C 0.23966 0.36554 0.0182 0.0
C774 C 0.26445 0.37463 0.97584 0.0
C775 C 0.29187 0.38099 0.04561 0.0
C776 C 0.25721 0.35784 0.88407 0.0
C777 C 0.2666 0.39516 0.95843 0.0
C778 C 0.24636 0.39749 -0.01282 0.0
C779 C 0.24481 0.41558 0.97937 0.0
C780 C 0.26394 0.4313 0.93931 0.0
C781 C 0.28414 0.42871 0.90661 0.0
C782 C 0.28555 0.4105 0.91765 0.0
H783 H 0.85485 0.79822 0.12779 0.0
H784 H 0.86037 0.8138 0.86395 0.0
H785 H 0.81088 0.80409 0.8313 0.0
H786 H 0.78172 0.7503 0.03268 0.0
H787 H 0.77136 0.75349 0.13756 0.0
H788 H 0.80793 0.76332 0.14505 0.0
H789 H 0.82595 0.80407 0.23669 0.0
H790 H 0.78921 0.792 0.23504 0.0
H791 H 0.80727 0.81581 0.19195 0.0
H792 H 0.75806 0.78924 0.82132 0.0
H793 H 0.70906 0.77193 0.83786 0.0
H794 H 0.7382 0.76853 0.11266 0.0
C795 C 0.8459 0.80025 0.06454 0.0
C796 C 0.86226 0.80794 0.00048 0.0
C797 C 0.84888 0.80882 0.91568 0.0
C798 C 0.82061 0.80321 0.8964 0.0
C799 C 0.80523 0.79611 0.96145 0.0
C800 C 0.81745 0.79455 0.04401 0.0
C801 C 0.7954 0.78452 0.09818 0.0
C802 C 0.78871 0.76155 0.10368 0.0
C803 C 0.80515 0.80008 0.19624 0.0
C804 C 0.76964 0.78207 0.03657 0.0
C805 C 0.77541 0.78825 0.95672 0.0
C806 C 0.75384 0.78521 0.88543 0.0
C807 C 0.72599 0.77578 0.89619 0.0
C808 C 0.71983 0.77039 0.97952 0.0
C809 C 0.74228 0.77356 0.05001 0.0
H810 H 0.325 0.9563 0.78189 0.0
H811 H 0.3419 0.96792 0.08178 0.0
H812 H 0.3814 0.96284 0.08567 0.0
H813 H 0.33335 0.91564 0.72878 0.0
H814 H 0.35432 0.92293 0.64655 0.0
H815 H 0.33148 0.93249 0.65785 0.0
H816 H 0.37016 0.97367 0.70061 0.0
H817 H 0.39423 0.96615 0.67616 0.0
H818 H 0.4035 0.98527 0.78658 0.0
H819 H 0.4167 0.95361 0.05505 0.0
H820 H 0.44638 0.94264 -0.00571 0.0
H821 H 0.4071 0.93688 0.71324 0.0
C822 C 0.33752 0.95833 0.84866 0.0
C823 C 0.33041 0.96261 0.93183 0.0
C824 C 0.34714 0.96495 0.01758 0.0
C825 C 0.36955 0.96198 0.02026 0.0
C826 C 0.37547 0.95715 0.93676 0.0
C827 C 0.36044 0.95596 0.8528 0.0
C828 C 0.37081 0.9502 0.77289 0.0
C829 C 0.34609 0.92904 0.69703 0.0
C830 C 0.38555 0.97 0.73164 0.0
C831 C 0.39248 0.94663 0.82389 0.0
C832 C 0.39534 0.95133 0.91877 0.0
C833 C 0.41454 0.94986 0.98093 0.0
C834 C 0.43117 0.94341 0.94562 0.0
C835 C 0.4284 0.93814 0.8487 0.0
C836 C 0.40914 0.94023 0.78737 0.0
H837 H 0.42257 0.13549 0.96809 0.0
H838 H 0.46396 0.17411 0.25837 0.0
H839 H 0.41807 0.15076 0.29516 0.0
H840 H 0.35182 0.12651 0.96011 0.0
H841 H 0.33191 0.09852 0.88295 0.0
H842 H 0.36714 0.11919 0.87766 0.0
H843 H 0.38359 0.09339 0.90392 0.0
H844 H 0.34847 0.07249 0.90867 0.0
H845 H 0.37928 0.08268 0.00409 0.0
H846 H 0.36804 0.11875 0.30308 0.0
H847 H 0.31949 0.08554 0.2802 0.0
H848 H 0.30794 0.06834 0.98242 0.0
C849 C 0.42184 0.13957 0.03916 0.0
C850 C 0.44741 0.15727 0.10994 0.0
C851 C 0.44513 0.1613 0.2021 0.0
C852 C 0.41893 0.14781 0.2237 0.0
C853 C 0.39452 0.13017 0.15268 0.0
C854 C 0.39569 0.12635 0.06165 0.0
C855 C 0.36664 0.106 -0.00173 0.0
C856 C 0.35359 0.11296 0.92539 0.0
C857 C 0.36969 0.08755 0.95094 0.0
C858 C 0.3489 0.09852 0.06753 0.0
C859 C 0.36557 0.11267 0.15647 0.0
C860 C 0.35486 0.10814 0.2332 0.0
C861 C 0.32694 0.0891 0.21938 0.0
C862 C 0.30868 0.0746 0.12917 0.0
C863 C 0.32032 0.07948 0.05205 0.0
H864 H 0.98538 0.30551 0.31345 0.0
H865 H 0.94755 0.28887 0.01781 0.0
H866 H 0.96023 0.26149 -0.01337 0.0
H867 H 0.0448 0.30595 0.29306 0.0
H868 H 0.04725 0.29428 0.38784 0.0
H869 H 1.03067 0.30933 0.38825 0.0
H870 H 0.98449 0.27513 0.40287 0.0
H871 H 1.00113 0.26005 0.40366 0.0
H872 H 0.96749 0.24831 0.31908 0.0
H873 H 0.9819 0.23798 -0.01273 0.0
H874 H 1.01127 0.22293 0.01958 0.0
H875 H 1.03704 0.25628 0.31395 0.0
C876 C 0.97857 0.2953 0.24264 0.0
C877 C 0.96377 0.29841 0.16855 0.0
C878 C 0.9574 0.28597 0.07619 0.0
C879 C 0.96481 0.27047 0.05781 0.0
C880 C 0.97944 0.26781 0.13232 0.0
C881 C 0.9862 0.27993 0.22313 0.0
C882 C 1.00444 0.27574 0.29002 0.0
C883 C 1.03351 0.29763 0.34287 0.0
C884 C 0.98844 0.26412 0.35796 0.0
C885 C 1.00782 0.26007 0.22294 0.0
C886 C 0.99276 0.25525 0.1323 0.0
C887 C 0.99347 0.24157 0.05833 0.0
C888 C 1.01015 0.23294 0.07724 0.0
C889 C 1.02617 0.238 0.16948 0.0
C890 C 1.02473 0.25175 0.24278 0.0
H891 H 0.87639 0.6664 0.92974 0.0
H892 H 0.88966 0.70163 0.2102 0.0
H893 H 0.86716 0.66565 0.25135 0.0
H894 H 0.80721 0.61572 0.90836 0.0
H895 H 0.81433 0.59756 0.84151 0.0
H896 H 0.83084 0.62594 0.83576 0.0
H897 H 0.88046 0.63244 0.88379 0.0
H898 H 0.86404 0.60419 0.89135 0.0
H899 H 0.89112 0.62726 -0.00946 0.0
H900 H 0.84371 0.62344 0.2627 0.0
H901 H 0.81824 0.58235 0.2364 0.0
H902 H 0.81954 0.57472 0.94809 0.0
C903 C 0.87451 0.66674 6e-05 0.0
C904 C 0.88525 0.68759 0.06643 0.0
C905 C 0.88166 0.68643 0.15691 0.0
C906 C 0.86904 0.66583 0.18128 0.0
C907 C 0.85951 0.64587 0.1148 0.0
C908 C 0.86175 0.64626 0.02523 0.0
C909 C 0.84946 0.62262 0.96522 0.0
C910 C 0.82394 0.61501 0.88284 0.0
C911 C 0.87265 0.62158 0.93067 0.0
C912 C 0.83986 0.60869 0.03412 0.0
C913 C 0.8461 0.62235 0.1207 0.0
C914 C 0.83902 0.61292 0.19482 0.0
C915 C 0.82478 0.58936 0.1797 0.0
C916 C 0.8175 0.57484 0.09102 0.0
C917 C 0.8254 0.58508 0.01778 0.0
H918 H 0.27248 0.498 0.565 0.0
H919 H 0.27676 0.51688 0.85612 0.0
H920 H 0.22385 0.492 0.81627 0.0
H921 H 0.20989 0.49669 0.47065 0.0
H922 H 0.19666 0.47347 0.37087 0.0
H923 H 0.23445 0.49224 0.42653 0.0
H924 H 0.23542 0.45803 0.44582 0.0
H925 H 0.19737 0.43953 0.39348 0.0
H926 H 0.21288 0.44013 0.50803 0.0
H927 H 0.16941 0.46485 0.74114 0.0
H928 H 0.11964 0.4419 0.63783 0.0
H929 H 0.15148 0.44188 0.39622 0.0
C930 C 0.26219 0.49689 0.6202 0.0
C931 C 0.2786 0.50962 0.71337 0.0
C932 C 0.26452 0.50758 0.78407 0.0
C933 C 0.23449 0.49332 0.76204 0.0
C934 C 0.21882 0.48111 0.669 0.0
C935 C 0.23229 0.48299 0.59919 0.0
C936 C 0.21073 0.46897 0.5042 0.0
C937 C 0.21309 0.48373 0.43931 0.0
C938 C 0.21432 0.45058 0.46032 0.0
C939 C 0.18294 0.45911 0.53078 0.0
C940 C 0.18795 0.46596 0.62628 0.0
C941 C 0.16535 0.45931 0.66641 0.0
C942 C 0.13709 0.44604 0.60738 0.0
C943 C 0.13161 0.43974 0.50917 0.0
C944 C 0.15496 0.44604 0.47114 0.0
H945 H 0.65229 0.62926 0.59731 0.0
H946 H 0.7357 0.66312 0.79455 0.0
H947 H 0.74915 0.6436 0.68686 0.0
H948 H 0.64181 0.5779 0.53901 0.0
H949 H 0.62348 0.56971 0.41717 0.0
H950 H 0.62217 0.58928 0.50036 0.0
H951 H 0.64217 0.61813 0.40602 0.0
H952 H 0.64319 0.5985 0.32154 0.0
H953 H 0.67507 0.62606 0.37802 0.0
H954 H 0.75117 0.61707 0.56839 0.0
H955 H 0.7419 0.58555 0.4468 0.0
H956 H 0.65674 0.56839 0.32678 0.0
C957 C 0.67371 0.63312 0.61565 0.0
C958 C 0.69329 0.64795 0.70259 0.0
C959 C 0.72076 0.65207 0.72705 0.0
C960 C 0.72851 0.64107 0.66649 0.0
C961 C 0.70845 0.62598 0.5821 0.0
C962 C 0.68166 0.62209 0.55628 0.0
C963 C 0.66306 0.60335 0.46664 0.0
C964 C 0.63605 0.58392 0.48178 0.0
C965 C 0.65543 0.61203 0.38842 0.0
C966 C 0.68321 0.59682 0.44791 0.0
C967 C 0.70941 0.61029 0.51449 0.0
C968 C 0.73093 0.60667 0.51483 0.0
C969 C 0.72548 0.58875 0.44541 0.0
C970 C 0.69865 0.57457 0.37709 0.0
C971 C 0.67743 0.57889 0.37821 0.0
H972 H 0.53695 0.09762 0.41088 0.0
H973 H 0.46665 0.03672 0.2041 0.0
H974 H 0.46439 1.01512 0.31664 0.0
H975 H 0.5706 0.07189 0.50694 0.0
H976 H 0.58222 0.08882 0.62512 0.0
H977 H 0.57831 0.09963 0.52871 0.0
H978 H 0.54368 0.10733 0.59001 0.0
H979 H 0.54842 0.09698 0.68703 0.0
H980 H 0.51295 0.08498 0.61356 0.0
H981 H 0.47023 0.99989 0.45244 0.0
H982 H 0.48101 0.99312 0.60442 0.0
H983 H 0.5475 0.06377 0.7227 0.0
C984 C 0.52084 0.0798 0.38999 0.0
C985 C 0.50184 0.06888 0.29887 0.0
C986 C 0.48141 0.04544 0.27355 0.0
C987 C 0.48003 0.033 0.33689 0.0
C988 C 0.4994 0.04416 0.42555 0.0
C989 C 0.51936 0.06704 0.45223 0.0
C990 C 0.53787 0.07488 0.55138 0.0
C991 C 0.5691 0.08436 0.55309 0.0
C992 C 0.53554 0.09206 0.61413 0.0
C993 C 0.52438 0.05308 0.57773 0.0
C994 C 0.50263 0.03543 0.50351 0.0
C995 C 0.48717 1.01363 0.51111 0.0
C996 C 0.49354 1.00989 0.59756 0.0
C997 C 0.51493 0.0279 0.67575 0.0
C998 C 0.53081 0.04968 0.66458 0.0
H999 H 0.13926 0.11302 0.95793 0.0
H1000 H 0.1688 0.12018 0.25054 0.0
H1001 H 0.14747 0.14119 0.29104 0.0
H1002 H 0.15301 0.16642 0.98397 0.0
H1003 H 0.12179 0.15774 0.89376 0.0
H1004 H 0.13732 0.14189 0.88745 0.0
H1005 H 0.08899 0.10595 0.87777 0.0
H1006 H 0.0731 0.12155 0.88156 0.0
H1007 H 0.07112 0.1062 0.96565 0.0
H1008 H 0.12613 0.16512 0.29859 0.0
H1009 H 0.10126 0.18389 0.27051 0.0
H1010 H 0.08462 0.15965 0.97254 0.0
C1011 C 0.14038 0.11835 0.03033 0.0
C1012 C 0.15516 0.11445 0.10097 0.0
C1013 C 0.15693 0.12237 0.19508 0.0
C1014 C 0.14517 0.13461 0.21868 0.0
C1015 C 0.13151 0.13876 0.14737 0.0
C1016 C 0.12855 0.13037 0.05481 0.0
C1017 C 0.11322 0.13718 -0.00913 0.0
C1018 C 0.13249 0.15166 0.93576 0.0
C1019 C 0.08493 0.11649 0.92509 0.0
C1020 C 0.10804 0.1508 0.06134 0.0
C1021 C 0.11903 0.15186 0.15155 0.0
C1022 C 0.11731 0.16415 0.22798 0.0
C1023 C 0.10339 0.17499 0.21156 0.0
C1024 C 0.09129 0.17352 0.11937 0.0
C1025 C 0.09385 0.16126 0.04385 0.0
H1026 H 1.00854 0.99557 0.06397 0.0
H1027 H 0.96512 0.96699 0.2673 0.0
H1028 H 0.9514 0.99369 0.28362 0.0
H1029 H 1.03811 0.05291 0.18581 0.0
H1030 H 1.03441 0.06087 0.08019 0.0
H1031 H 1.03966 0.03875 0.08048 0.0
H1032 H 0.99352 1.01192 0.94388 0.0
H1033 H 0.98816 0.03397 0.94303 0.0
H1034 H 0.9604 1.00778 0.95563 0.0
H1035 H 0.94175 1.02349 0.27683 0.0
H1036 H 0.93798 0.05436 0.24965 0.0
H1037 H 0.99122 0.06593 0.06222 0.0
C1038 C 0.99645 0.99493 0.11303 0.0
C1039 C 0.98796 0.97877 0.16401 0.0
C1040 C 0.97152 0.97862 0.22551 0.0
C1041 C 0.96382 0.99397 0.23615 0.0
C1042 C 0.97292 1.00973 0.18584 0.0
C1043 C 0.98902 1.0104 0.12587 0.0
C1044 C 0.9966 0.02933 0.08132 0.0
C1045 C 1.02913 0.04648 0.1086 0.0
C1046 C 0.98391 1.0202 0.97464 0.0
C1047 C 0.98211 0.03915 0.12524 0.0
C1048 C 0.9684 0.02748 0.1849 0.0
C1049 C 0.95262 0.03283 0.23092 0.0
C1050 C 0.9506 0.05039 0.21513 0.0
C1051 C 0.96455 0.06269 0.15477 0.0
C1052 C 0.98074 0.05707 0.10998 0.0
H1053 H 1.01553 0.88266 0.91002 0.0
H1054 H 1.03049 0.88334 0.1999 0.0
H1055 H 0.08112 0.91479 0.23097 0.0
H1056 H 0.08632 0.89993 0.88272 0.0
H1057 H 0.08747 0.91786 0.81176 0.0
H1058 H 0.05365 0.89366 0.80945 0.0
H1059 H 1.03518 0.91797 0.85382 0.0
H1060 H 0.06849 0.94244 0.855 0.0
H1061 H 0.05551 0.94156 0.95658 0.0
H1062 H 0.13224 0.95001 0.23048 0.0
H1063 H 0.17315 0.98249 0.20014 0.0
H1064 H 0.12372 0.9611 0.91314 0.0
C1065 C 1.02971 0.88874 0.97957 0.0
C1066 C 1.01867 0.87877 0.05084 0.0
C1067 C 1.03813 0.88881 0.14179 0.0
C1068 C 0.06712 0.90734 0.16048 0.0
C1069 C 0.07702 0.9167 0.08854 0.0
C1070 C 0.05853 0.90759 -0.00034 0.0
C1071 C 0.0732 0.92161 0.93547 0.0
C1072 C 0.07529 0.90743 0.85504 0.0
C1073 C 0.05714 0.93148 0.89801 0.0
C1074 C 0.10293 0.94011 0.00107 0.0
C1075 C 0.10494 0.93696 0.08922 0.0
C1076 C 0.13046 0.95222 0.16116 0.0
C1077 C 0.15397 0.97078 0.14312 0.0
C1078 C 0.15263 0.97456 0.05343 0.0
C1079 C 0.1262 0.95882 0.98226 0.0
H1080 H 0.88657 0.43876 0.00949 0.0
H1081 H 0.87254 0.45381 0.27721 0.0
H1082 H 0.88096 0.4263 0.32284 0.0
H1083 H 0.85241 0.37864 0.9814 0.0
H1084 H 0.87759 0.37792 0.92553 0.0
H1085 H 0.86886 0.39785 0.91413 0.0
H1086 H 0.92217 0.42884 0.97366 0.0
H1087 H 0.93228 0.41017 -0.00403 0.0
H1088 H 0.94209 0.43376 0.08901 0.0
H1089 H 0.89202 0.39689 0.33982 0.0
H1090 H 0.9027 0.36804 0.32335 0.0
H1091 H 0.90965 0.37254 0.04554 0.0
C1092 C 0.88511 0.43623 0.07767 0.0
C1093 C 0.87891 0.44866 0.13979 0.0
C1094 C 0.87695 0.44449 0.22785 0.0
C1095 C 0.88191 0.42894 0.25463 0.0
C1096 C 0.88853 0.41735 0.19238 0.0
C1097 C 0.88967 0.4206 0.10504 0.0
C1098 C 0.89714 0.40608 0.05071 0.0
C1099 C 0.87253 0.38912 0.96275 0.0
C1100 C 0.92509 0.42055 0.0258 0.0
C1101 C 0.90066 0.39447 0.12158 0.0
C1102 C 0.89545 0.40106 0.20281 0.0
C1103 C 0.89646 0.3919 0.27681 0.0
C1104 C 0.9028 0.37565 0.26733 0.0
C1105 C 0.90857 0.36889 0.18517 0.0
C1106 C 0.90689 0.37821 0.11102 0.0
H1107 H 0.73294 0.45213 0.24249 0.0
H1108 H 0.71055 0.44388 0.94548 0.0
H1109 H 0.67174 0.40398 0.92049 0.0
H1110 H 0.72049 0.39868 0.23166 0.0
H1111 H 0.70559 0.39501 0.32924 0.0
H1112 H 0.73097 0.42272 0.32304 0.0
H1113 H 0.69502 0.43354 0.33587 0.0
H1114 H 0.67026 0.40609 0.34594 0.0
H1115 H 0.65942 0.41596 0.25687 0.0
H1116 H 0.63538 0.36281 0.93019 0.0
H1117 H 0.60372 0.32833 0.97395 0.0
H1118 H 0.6488 0.36432 0.26549 0.0
C1119 C 0.71961 0.44203 0.17213 0.0
C1120 C 0.72461 0.45159 0.09618 0.0
C1121 C 0.70691 0.43739 0.00526 0.0
C1122 C 0.68487 0.41452 -0.00951 0.0
C1123 C 0.68048 0.4057 0.06717 0.0
C1124 C 0.69724 0.4193 0.15652 0.0
C1125 C 0.68814 0.40616 0.22791 0.0
C1126 C 0.71277 0.40562 0.2811 0.0
C1127 C 0.6776 0.41604 0.29565 0.0
C1128 C 0.66372 0.38296 0.16554 0.0
C1129 C 0.65971 0.38284 0.07276 0.0
C1130 C 0.6385 0.36301 0.0029 0.0
C1131 C 0.62065 0.34326 0.02834 0.0
C1132 C 0.62352 0.34314 0.12328 0.0
C1133 C 0.64582 0.36348 0.19209 0.0
H1134 H 0.6015 0.21275 0.05351 0.0
H1135 H 0.6217 0.23521 0.35456 0.0
H1136 H 0.67165 0.24763 0.36941 0.0
H1137 H 0.65103 0.19464 0.04102 0.0
H1138 H 0.65928 0.20526 0.94276 0.0
H1139 H 0.62507 0.19595 0.96268 0.0
H1140 H 0.637 0.23549 0.95797 0.0
H1141 H 0.67205 0.24447 0.94712 0.0
H1142 H 0.66828 0.25995 0.04207 0.0
H1143 H 0.72006 0.2578 0.35315 0.0
H1144 H 0.76268 0.26462 0.30606 0.0
H1145 H 0.71324 0.23853 0.01505 0.0
C1146 C 0.61636 0.21987 0.12244 0.0
C1147 C 0.60735 0.22244 0.2033 0.0
C1148 C 0.62786 0.23271 0.29188 0.0
C1149 C 0.65638 0.23987 0.30105 0.0
C1150 C 0.66472 0.23728 0.22073 0.0
C1151 C 0.64539 0.22762 0.1329 0.0
C1152 C 0.66069 0.22823 0.05811 0.0
C1153 C 0.6482 0.20459 -0.00247 0.0
C1154 C 0.65943 0.24291 -0.00225 0.0
C1155 C 0.69117 0.23894 0.11771 0.0
C1156 C 0.69302 0.24414 0.21133 0.0
C1157 C 0.71881 0.25384 0.27982 0.0
C1158 C 0.74313 0.25786 0.25229 0.0
C1159 C 0.74183 0.25217 0.15672 0.0
C1160 C 0.71531 0.24291 0.08892 0.0
H1161 H 0.57388 0.83634 0.68339 0.0
H1162 H 0.59353 0.84054 0.97778 0.0
H1163 H 0.57049 0.86067 0.00522 0.0
H1164 H 0.58612 0.89096 0.71207 0.0
H1165 H 0.55721 0.88168 0.6112 0.0
H1166 H 0.57552 0.86792 0.61505 0.0
H1167 H 0.52744 0.82984 0.58484 0.0
H1168 H 0.50903 0.84349 0.57989 0.0
H1169 H 0.50504 0.82701 0.6605 0.0
H1170 H 0.54561 0.88159 4e-05 0.0
H1171 H 0.51738 0.89709 0.95997 0.0
H1172 H 0.51324 0.8785 0.66879 0.0
C1173 C 0.57352 0.84154 0.75395 0.0
C1174 C 0.58583 0.8368 0.82854 0.0
C1175 C 0.58419 0.84368 0.91914 0.0
C1176 C 0.57133 0.85536 0.93554 0.0
C1177 C 0.55991 0.86007 0.86066 0.0
C1178 C 0.56065 0.85311 0.77139 0.0
C1179 C 0.54613 0.85959 0.70215 0.0
C1180 C 0.56753 0.876 0.65747 0.0
C1181 C 0.52038 0.83874 0.62745 0.0
C1182 C 0.53672 0.87101 0.76578 0.0
C1183 C 0.54526 0.87149 0.85735 0.0
C1184 C 0.53892 0.88124 0.92845 0.0
C1185 C 0.523 0.89019 0.90516 0.0
C1186 C 0.51346 0.88941 0.8114 0.0
C1187 C 0.52059 0.87969 0.74126 0.0
H1188 H 0.35359 0.68136 0.7573 0.0
H1189 H 0.29439 0.65832 0.92476 0.0
H1190 H 0.30599 0.69649 0.9799 0.0
H1191 H 0.40661 0.74025 0.91584 0.0
H1192 H 0.41193 0.75155 0.81738 0.0
H1193 H 0.40385 0.72389 0.80769 0.0
H1194 H 0.36071 0.7079 0.66387 0.0
H1195 H 0.36849 0.73537 0.67347 0.0
H1196 H 0.33364 0.713 0.67427 0.0
H1197 H 0.3184 0.73514 -0.00197 0.0
H1198 H 0.32989 0.7713 0.97584 0.0
H1199 H 0.37941 0.76879 0.79039 0.0
C1200 C 0.34406 0.68468 0.80858 0.0
C1201 C 0.32358 0.66721 0.83856 0.0
C1202 C 0.31046 0.67172 0.90245 0.0
C1203 C 0.31698 0.6933 0.93416 0.0
C1204 C 0.33659 0.71011 0.90093 0.0
C1205 C 0.35005 0.70609 0.83982 0.0
C1206 C 0.36726 0.72618 0.80492 0.0
C1207 C 0.39932 0.73605 0.83849 0.0
C1208 C 0.35689 0.72025 0.69783 0.0
C1209 C 0.36033 0.74173 0.85256 0.0
C1210 C 0.34313 0.73234 0.90922 0.0
C1211 C 0.33221 0.74282 0.95498 0.0
C1212 C 0.33864 0.76325 0.9413 0.0
C1213 C 0.35555 0.77287 0.8814 0.0
C1214 C 0.36696 0.76211 0.83816 0.0
H1215 H 0.55924 0.70335 0.03983 0.0
H1216 H 0.55697 0.69275 0.74848 0.0
H1217 H 0.5096 0.65683 0.70899 0.0
H1218 H 0.52181 0.64414 0.04254 0.0
H1219 H 0.5021 0.64681 0.11967 0.0
H1220 H 0.53696 0.67052 0.12684 0.0
H1221 H 0.5163 0.69387 0.10272 0.0
H1222 H 0.48142 0.67047 0.09671 0.0
H1223 H 0.48654 0.68329 0.00251 0.0
H1224 H 0.46223 0.62076 0.7024 0.0
H1225 H 0.41579 0.59278 0.72416 0.0
H1226 H 0.44654 0.6285 0.01771 0.0
C1227 C 0.54924 0.693 0.96827 0.0
C1228 C 0.56297 0.70003 0.89799 0.0
C1229 C 0.54787 0.687 0.80418 0.0
C1230 C 0.52079 0.66661 0.78113 0.0
C1231 C 0.50854 0.65949 0.85254 0.0
C1232 C 0.52207 0.67258 0.94418 0.0
C1233 C 0.503 0.66234 0.00652 0.0
C1234 C 0.51679 0.65555 0.07815 0.0
C1235 C 0.49642 0.67845 0.05494 0.0
C1236 C 0.47636 0.6418 0.93555 0.0
C1237 C 0.48035 0.64003 0.84754 0.0
C1238 C 0.45893 0.62216 0.77106 0.0
C1239 C 0.43259 0.60619 0.78413 0.0
C1240 C 0.42741 0.60827 0.87269 0.0
C1241 C 0.44984 0.62633 0.94925 0.0
H1242 H 0.08251 0.23563 0.87535 0.0
H1243 H 1.02846 0.16412 0.83307 0.0
H1244 H 1.02851 0.1575 0.66887 0.0
H1245 H 0.05012 0.23581 0.6547 0.0
H1246 H 0.08299 0.25734 0.63804 0.0
H1247 H 0.07983 0.25656 0.75429 0.0
H1248 H 0.12465 0.25556 0.79348 0.0
H1249 H 0.12774 0.25612 0.67683 0.0
H1250 H 0.12543 0.234 0.72139 0.0
H1251 H 1.03231 0.15827 0.51051 0.0
H1252 H 1.03815 0.16648 0.36035 0.0
H1253 H 0.09027 0.23749 0.50057 0.0
C1254 C 0.07073 0.21864 0.83104 0.0
C1255 C 0.05459 0.20029 0.86545 0.0
C1256 C 1.0397 0.1783 0.80661 0.0
C1257 C 1.04013 0.1744 0.71378 0.0
C1258 C 0.05585 0.19274 0.68128 0.0
C1259 C 0.07086 0.21445 0.73754 0.0
C1260 C 0.08491 0.23105 0.68284 0.0
C1261 C 0.07378 0.24607 0.68244 0.0
C1262 C 0.11763 0.24501 0.72093 0.0
C1263 C 0.07482 0.2152 0.58689 0.0
C1264 C 0.0584 0.19319 0.58843 0.0
C1265 C 0.04534 0.17539 0.50826 0.0
C1266 C 0.04866 0.1802 0.42352 0.0
C1267 C 0.06485 0.20255 0.4199 0.0
C1268 C 0.0785 0.2203 0.50248 0.0
H1269 H 0.94772 0.86366 0.78526 0.0
H1270 H 0.89252 0.79203 0.73858 0.0
H1271 H 0.88791 0.78633 0.56983 0.0
H1272 H 0.91176 0.86561 0.56047 0.0
H1273 H 0.94525 0.88701 0.54665 0.0
H1274 H 0.94109 0.88586 0.66185 0.0
H1275 H 0.98516 0.88421 0.70481 0.0
H1276 H 0.98954 0.88516 0.58987 0.0
H1277 H 0.98596 0.86257 0.63353 0.0
H1278 H 0.89389 0.78794 0.41456 0.0
H1279 H 0.90775 0.7964 0.2733 0.0
H1280 H 0.95878 0.86748 0.4154 0.0
C1281 C 0.93365 0.8469 0.73871 0.0
C1282 C 0.91994 0.82825 0.77361 0.0
C1283 C 0.90292 0.80643 0.71211 0.0
C1284 C 0.90014 0.80308 0.61653 0.0
C1285 C 0.91452 0.82176 0.58426 0.0
C1286 C 0.93072 0.84328 0.6429 0.0
C1287 C 0.94595 0.86024 0.59081 0.0
C1288 C 0.93536 0.87558 0.58987 0.0
C1289 C 0.97858 0.87384 0.63223 0.0
C1290 C 0.93637 0.84479 0.49434 0.0
C1291 C 0.91815 0.82271 0.49275 0.0
C1292 C 0.9078 0.80513 0.4143 0.0
C1293 C 0.91612 0.81017 0.33477 0.0
C1294 C 0.93458 0.83263 0.33389 0.0
C1295 C 0.9446 0.85021 0.41439 0.0
H1296 H 0.18679 1.01325 0.72008 0.0
H1297 H 0.27307 0.03304 0.84519 0.0
H1298 H 0.28597 0.04132 0.70277 0.0
H1299 H 0.18106 0.98564 0.49061 0.0
H1300 H 0.161 0.9944 0.42882 0.0
H1301 H 0.15838 0.99103 0.5432 0.0
H1302 H 0.17316 0.03183 0.60007 0.0
H1303 H 0.17615 0.0354 0.48604 0.0
H1304 H 0.20612 0.05429 0.58772 0.0
H1305 H 0.29012 0.04659 0.55051 0.0
H1306 H 0.2841 0.0458 0.38506 0.0
H1307 H 0.19527 1.02213 0.35014 0.0
C1308 C 0.20829 1.01926 0.71677 0.0
C1309 C 0.22884 1.02234 0.79323 0.0
C1310 C 0.25682 0.03022 0.78696 0.0
C1311 C 0.26452 0.03523 0.70672 0.0
C1312 C 0.24397 0.03212 0.63275 0.0
C1313 C 0.21634 1.02409 0.63586 0.0
C1314 C 0.19829 1.02119 0.54323 0.0
C1315 C 0.1732 0.9966 0.49886 0.0
C1316 C 0.18781 0.0366 0.555 0.0
C1317 C 0.22011 0.02856 0.48807 0.0
C1318 C 0.24636 0.03505 0.54215 0.0
C1319 C 0.26976 0.04167 0.5072 0.0
C1320 C 0.26611 0.04111 0.4133 0.0
C1321 C 0.23926 0.0339 0.35554 0.0
C1322 C 0.2161 0.02801 0.39361 0.0
H1323 H 0.76462 0.53219 0.42081 0.0
H1324 H 0.78889 0.48637 0.34292 0.0
H1325 H 0.78128 0.47455 0.48478 0.0
H1326 H 0.80199 0.55021 0.66492 0.0
H1327 H 0.77588 0.55304 0.70576 0.0
H1328 H 0.78065 0.55662 0.59324 0.0
H1329 H 0.72669 0.52613 0.51661 0.0
H1330 H 0.7219 0.52218 0.62892 0.0
H1331 H 0.71136 0.49876 0.53403 0.0
H1332 H 0.77128 0.46731 0.63251 0.0
H1333 H 0.76679 0.46943 0.79272 0.0
H1334 H 0.75353 0.5223 0.78621 0.0
C1335 C 0.76833 0.51972 0.43416 0.0
C1336 C 0.77736 0.51022 0.371 0.0
C1337 C 0.78223 0.49405 0.3907 0.0
C1338 C 0.77766 0.487 0.47066 0.0
C1339 C 0.76873 0.49657 0.5315 0.0
C1340 C 0.7647 0.51292 0.51578 0.0
C1341 C 0.75762 0.52178 0.5976 0.0
C1342 C 0.7804 0.5469 0.64306 0.0
C1343 C 0.7276 0.51692 0.56745 0.0
C1344 C 0.75865 0.50799 0.6614 0.0
C1345 C 0.76443 0.49321 0.62059 0.0
C1346 C 0.76691 0.4789 0.66573 0.0
C1347 C 0.76443 0.48028 0.75675 0.0
C1348 C 0.76024 0.49622 0.80233 0.0
C1349 C 0.75651 0.50981 0.75294 0.0
H1350 H 0.55408 0.22671 0.49538 0.0
H1351 H 0.49759 0.15625 0.346 0.0
H1352 H 0.48583 0.14741 0.49057 0.0
H1353 H 0.58268 0.2188 0.70251 0.0
H1354 H 0.58541 0.24135 0.78156 0.0
H1355 H 0.58772 0.24245 0.66479 0.0
H1356 H 0.54616 0.24763 0.63672 0.0
H1357 H 0.54356 0.2464 0.75331 0.0
H1358 H 0.51263 0.22745 0.65448 0.0
H1359 H 0.47963 0.14605 0.64729 0.0
H1360 H 0.48378 0.15164 0.81533 0.0
H1361 H 0.54764 0.22235 0.8696 0.0
C1362 C 0.53917 0.20951 0.49375 0.0
C1363 C 0.52672 0.19207 0.41073 0.0
C1364 C 0.50752 0.16969 0.40996 0.0
C1365 C 0.50051 0.16456 0.49119 0.0
C1366 C 0.51316 0.18204 0.5724 0.0
C1367 C 0.5324 0.20403 0.57506 0.0
C1368 C 0.54442 0.2193 0.67353 0.0
C1369 C 0.57699 0.23117 0.70759 0.0
C1370 C 0.53619 0.23619 0.67986 0.0
C1371 C 0.52915 0.20237 0.72556 0.0
C1372 C 0.51084 0.18108 0.66515 0.0
C1373 C 0.49427 0.16256 0.69568 0.0
C1374 C 0.49715 0.16577 0.79122 0.0
C1375 C 0.51694 0.18712 0.85482 0.0
C1376 C 0.53257 0.2058 0.82173 0.0
H1377 H 0.92062 0.30435 0.47842 0.0
H1378 H 0.94456 0.37209 0.49984 0.0
H1379 H 0.94185 0.37676 0.66132 0.0
H1380 H 0.87167 0.29129 0.62964 0.0
H1381 H 0.88306 0.27591 0.68294 0.0
H1382 H 0.88359 0.27663 0.5645 0.0
H1383 H 0.9373 0.29154 0.60945 0.0
H1384 H 0.93677 0.29094 0.72781 0.0
H1385 H 0.96203 0.31654 0.70448 0.0
H1386 H 0.94034 0.37577 0.81927 0.0
H1387 H 0.94161 0.36969 0.97368 0.0
H1388 H 0.91913 0.30262 0.85893 0.0
C1389 C 0.92484 0.32 0.517 0.0
C1390 C 0.93287 0.3379 0.47696 0.0
C1391 C 0.93867 0.35826 0.52948 0.0
C1392 C 0.93693 0.36101 0.62098 0.0
C1393 C 0.92937 0.34325 0.65897 0.0
C1394 C 0.92346 0.32313 0.60943 0.0
C1395 C 0.91805 0.30753 0.67075 0.0
C1396 C 0.88725 0.2866 0.63478 0.0
C1397 C 0.93984 0.30128 0.67858 0.0
C1398 C 0.92265 0.32236 0.76275 0.0
C1399 C 0.92874 0.34273 0.75309 0.0
C1400 C 0.93532 0.35983 0.82779 0.0
C1401 C 0.93614 0.35621 0.91547 0.0
C1402 C 0.93058 0.33572 0.9283 0.0
C1403 C 0.92318 0.31835 0.85065 0.0
H1404 H 0.47318 0.9421 0.53667 0.0
H1405 H 0.46035 0.87801 0.53023 0.0
H1406 H 0.46838 0.87496 0.37521 0.0
H1407 H 0.43556 0.92557 0.29048 0.0
H1408 H 0.45904 0.95264 0.2745 0.0
H1409 H 0.45331 0.95039 0.38728 0.0
H1410 H 0.50784 0.97213 0.46045 0.0
H1411 H 0.51378 0.97404 0.34756 0.0
H1412 H 0.5274 0.96186 0.41589 0.0
H1413 H 0.4798 0.8791 0.22842 0.0
H1414 H 0.48422 0.88613 0.07673 0.0
H1415 H 0.48609 0.94621 0.16559 0.0
C1416 C 0.47176 0.92735 0.5017 0.0
C1417 C 0.46605 0.91022 0.54489 0.0
C1418 C 0.46431 0.89115 0.49771 0.0
C1419 C 0.46922 0.8894 0.41025 0.0
C1420 C 0.47539 0.90671 0.37031 0.0
C1421 C 0.47591 0.92504 0.41267 0.0
C1422 C 0.48115 0.94038 0.35013 0.0
C1423 C 0.45574 0.94234 0.32404 0.0
C1424 C 0.50922 0.96347 0.3963 0.0
C1425 C 0.48337 0.92763 0.26616 0.0
C1426 C 0.48063 0.90857 0.28116 0.0
C1427 C 0.4817 0.89383 0.21514 0.0
C1428 C 0.48425 0.89802 0.12921 0.0
C1429 C 0.48518 0.91658 0.10919 0.0
C1430 C 0.48565 0.93201 0.17951 0.0
H1431 H 0.38509 0.56056 0.14811 0.0
H1432 H 0.29909 0.54294 0.03678 0.0
H1433 H 0.289 0.53718 0.18515 0.0
H1434 H 0.36603 0.52107 0.29393 0.0
H1435 H 0.39803 0.54044 0.38867 0.0
H1436 H 0.3984 0.54132 0.27023 0.0
H1437 H 0.41685 0.58314 0.31736 0.0
H1438 H 0.41656 0.58237 0.43574 0.0
H1439 H 0.39703 0.59146 0.37325 0.0
H1440 H 0.28843 0.53589 0.34445 0.0
H1441 H 0.29804 0.53994 0.51285 0.0
H1442 H 0.38404 0.55799 0.52802 0.0
C1443 C 0.36405 0.55515 0.15483 0.0
C1444 C 0.34295 0.55227 0.08084 0.0
C1445 C 0.31574 0.54545 0.09247 0.0
C1446 C 0.30965 0.54194 0.17638 0.0
C1447 C 0.33088 0.54518 0.24822 0.0
C1448 C 0.35754 0.55159 0.23898 0.0
C1449 C 0.37688 0.55526 0.3304 0.0
C1450 C 0.38533 0.53852 0.32016 0.0
C1451 C 0.4034 0.5795 0.36629 0.0
C1452 C 0.35706 0.55048 0.39232 0.0
C1453 C 0.33056 0.54446 0.34257 0.0
C1454 C 0.30898 0.54039 0.38426 0.0
C1455 C 0.31471 0.5429 0.48005 0.0
C1456 C 0.34178 0.54939 0.53308 0.0
C1457 C 0.36307 0.55279 0.48848 0.0
H1458 H 0.66174 0.76681 0.65455 0.0
H1459 H 0.5901 0.69859 0.61111 0.0
H1460 H 0.58134 0.69225 0.44144 0.0
H1461 H 0.63039 0.77701 0.45026 0.0
H1462 H 0.66467 0.79334 0.42857 0.0
H1463 H 0.6627 0.79237 0.54557 0.0
H1464 H 0.6974 0.77956 0.55539 0.0
H1465 H 0.69769 0.77956 0.43639 0.0
H1466 H 0.68734 0.75455 0.47129 0.0
H1467 H 0.5825 0.69188 0.28062 0.0
H1468 H 0.59212 0.69784 0.1317 0.0
H1469 H 0.66231 0.76666 0.27345 0.0
C1470 C 0.64396 0.75069 0.60914 0.0
C1471 C 0.62669 0.73313 0.6458 0.0
C1472 C 0.60386 0.71215 0.58451 0.0
C1473 C 0.59855 0.70843 0.488 0.0
C1474 C 0.61622 0.72589 0.45399 0.0
C1475 C 0.6384 0.74664 0.51214 0.0
C1476 C 0.65492 0.76208 0.4565 0.0
C1477 C 0.65301 0.78239 0.47104 0.0
C1478 C 0.68619 0.76936 0.48139 0.0
C1479 C 0.63862 0.74662 0.35812 0.0
C1480 C 0.61642 0.72585 0.35902 0.0
C1481 C 0.59941 0.70817 0.27847 0.0
C1482 C 0.60512 0.71175 0.19422 0.0
C1483 C 0.6275 0.7329 0.1908 0.0
C1484 C 0.64446 0.75059 0.27383 0.0
loop_
_geom_bond_atom_site_label_1
_geom_bond_atom_site_label_2
_geom_bond_distance
_geom_bond_site_symmetry_2
_ccdc_geom_bond_type
Gd0 N31 2.661 1_455 S
Gd0 N37 2.601 1_455 S
Gd0 O44 2.545 1_455 S
Gd0 O45 2.606 . S
Gd0 O47 2.429 . S
Gd0 O48 2.545 . S
Gd0 O49 2.412 1_455 S
Gd0 O51 2.362 . S
Gd0 O52 2.324 . S
Gd0 C59 2.828 1_455 S
Gd1 N10 2.661 . S
Gd1 N14 2.601 . S
Gd1 O45 2.362 . S
Gd1 O46 2.324 . S
Gd1 O50 2.545 . S
Gd1 O51 2.606 . S
Gd1 O53 2.429 . S
Gd1 O54 2.545 . S
Gd1 O55 2.412 . S
Gd1 C68 2.828 . S
C2 C5 1.417 . S
C2 C7 1.431 . S
C2 C8 1.412 . S
C3 C6 1.437 . S
C3 C7 1.317 . S
C3 H22 0.929 . S
C4 C5 1.426 . S
C4 C6 1.413 . S
C4 N14 1.359 . S
C5 C2 1.417 . S
C5 C4 1.426 . S
C5 N10 1.350 . S
C6 C3 1.437 . S
C6 C4 1.413 . S
C6 C16 1.391 . S
C7 C2 1.431 . S
C7 C3 1.317 . S
C7 H18 0.930 . S
C8 C2 1.412 . S
C8 C9 1.355 . S
C8 H20 0.930 . S
C9 C8 1.355 . S
C9 C11 1.402 . S
C9 H21 0.930 . S
N10 Gd1 2.661 . S
N10 C5 1.350 . S
N10 C11 1.307 . S
C11 C9 1.402 . S
C11 N10 1.307 . S
C11 H12 0.930 . S
H12 C11 0.930 . S
C13 N14 1.334 . S
C13 C15 1.394 . S
C13 H17 0.930 . S
N14 Gd1 2.601 . S
N14 C4 1.359 . S
N14 C13 1.334 . S
C15 C13 1.394 . S
C15 C16 1.359 . S
C15 H27 0.930 . S
C16 C6 1.391 . S
C16 C15 1.359 . S
C16 H28 0.929 . S
H17 C13 0.930 . S
H18 C7 0.930 . S
H19 C36 0.930 . S
H20 C8 0.930 . S
H21 C9 0.930 . S
H22 C3 0.929 . S
H23 C41 0.930 . S
H24 C32 0.930 . S
H25 C33 0.930 . S
H26 C57 0.929 1_556 S
H27 C15 0.930 . S
H28 C16 0.929 . S
H29 C58 0.930 . S
H30 C39 0.930 . S
N31 Gd0 2.661 1_655 S
N31 C35 1.350 . S
N31 C36 1.307 . S
C32 H24 0.930 . S
C32 C33 1.355 . S
C32 C34 1.412 . S
C33 H25 0.930 . S
C33 C32 1.355 . S
C33 C36 1.402 . S
C34 C32 1.412 . S
C34 C35 1.417 . S
C34 C58 1.431 . S
C35 N31 1.350 . S
C35 C34 1.417 . S
C35 C38 1.426 . S
C36 H19 0.930 . S
C36 N31 1.307 . S
C36 C33 1.402 . S
N37 Gd0 2.601 1_655 S
N37 C38 1.359 . S
N37 C41 1.334 1_554 S
C38 C35 1.426 . S
C38 N37 1.359 . S
C38 C42 1.413 1_554 S
C39 H30 0.930 . S
C39 C40 1.359 . S
C39 C41 1.394 . S
C40 C39 1.359 . S
C40 C42 1.391 . S
C40 H43 0.929 . S
C41 H23 0.930 . S
C41 N37 1.334 1_556 S
C41 C39 1.394 . S
C42 C38 1.413 1_556 S
C42 C40 1.391 . S
C42 C57 1.437 1_556 S
H43 C40 0.929 . S
O44 Gd0 2.545 1_655 S
O44 C59 1.258 . S
O45 Gd0 2.606 . S
O45 Gd1 2.362 . S
O45 C56 1.284 . S
O46 Gd1 2.324 . S
O46 C66 1.254 . S
O47 Gd0 2.429 . S
O47 C66 1.268 . S
O48 Gd0 2.545 . S
O48 C56 1.250 . S
O49 Gd0 2.412 1_655 S
O49 C59 1.252 . S
O50 Gd1 2.545 . S
O50 C68 1.258 . S
O51 Gd0 2.362 . S
O51 Gd1 2.606 . S
O51 C67 1.284 . S
O52 Gd0 2.324 . S
O52 C75 1.254 . S
O53 Gd1 2.429 . S
O53 C75 1.268 . S
O54 Gd1 2.545 . S
O54 C67 1.250 . S
O55 Gd1 2.412 . S
O55 C68 1.252 . S
C56 O45 1.284 . S
C56 O48 1.250 . S
C57 H26 0.929 1_554 S
C57 C42 1.437 1_554 S
C57 C58 1.317 . S
C58 H29 0.930 . S
C58 C34 1.431 . S
C58 C57 1.317 . S
C59 Gd0 2.828 1_655 S
C59 O44 1.258 . S
C59 O49 1.252 . S
C59 C60 1.497 . S
C60 C59 1.497 . S
C60 C61 1.395 . S
C60 C62 1.380 . S
C61 C60 1.395 . S
C61 C64 1.398 . S
C61 H76 0.930 1_554 S
C62 C60 1.380 . S
C62 C63 1.391 . S
C62 H77 0.930 . S
C63 C62 1.391 . S
C63 C65 1.387 . S
C64 C61 1.398 . S
C64 C65 1.380 . S
C64 H78 0.930 1_554 S
C65 C63 1.387 . S
C65 C64 1.380 . S
C65 H79 0.930 . S
C66 O46 1.254 . S
C66 O47 1.268 . S
C67 O51 1.284 . S
C67 O54 1.250 . S
C68 Gd1 2.828 . S
C68 O50 1.258 . S
C68 O55 1.252 . S
C68 C69 1.497 . S
C69 C68 1.497 . S
C69 C70 1.395 . S
C69 C71 1.380 . S
C70 C69 1.395 . S
C70 C73 1.398 . S
C70 H80 0.930 . S
C71 C69 1.380 . S
C71 C72 1.391 . S
C71 H81 0.930 . S
C72 C71 1.391 . S
C72 C74 1.387 . S
C73 C70 1.398 . S
C73 C74 1.380 . S
C73 H82 0.930 . S
C74 C72 1.387 . S
C74 C73 1.380 . S
C74 H83 0.930 . S
C75 O52 1.254 . S
C75 O53 1.268 . S
H76 C61 0.930 1_556 S
H77 C62 0.930 . S
H78 C64 0.930 1_556 S
H79 C65 0.930 . S
H80 C70 0.930 . S
H81 C71 0.930 . S
H82 C73 0.930 . S
H83 C74 0.930 . S
Gd84 N115 2.661 . S
Gd84 N121 2.601 . S
Gd84 O128 2.545 . S
Gd84 O129 2.606 . S
Gd84 O131 2.429 . S
Gd84 O132 2.545 . S
Gd84 O133 2.412 . S
Gd84 O135 2.362 . S
Gd84 O136 2.324 . S
Gd84 C143 2.828 . S
Gd85 N94 2.661 . S
Gd85 N98 2.601 . S
Gd85 O129 2.362 . S
Gd85 O130 2.324 . S
Gd85 O134 2.545 . S
Gd85 O135 2.606 . S
Gd85 O137 2.429 . S
Gd85 O138 2.545 . S
Gd85 O139 2.412 . S
Gd85 C152 2.828 . S
C86 C89 1.417 . S
C86 C91 1.431 . S
C86 C92 1.412 . S
C87 C90 1.437 . S
C87 C91 1.317 . S
C87 H106 0.929 . S
C88 C89 1.426 . S
C88 C90 1.413 . S
C88 N98 1.359 . S
C89 C86 1.417 . S
C89 C88 1.426 . S
C89 N94 1.350 . S
C90 C87 1.437 . S
C90 C88 1.413 . S
C90 C100 1.391 1_554 S
C91 C86 1.431 . S
C91 C87 1.317 . S
C91 H102 0.930 1_655 S
C92 C86 1.412 . S
C92 C93 1.355 . S
C92 H104 0.930 1_655 S
C93 C92 1.355 . S
C93 C95 1.402 . S
C93 H105 0.930 . S
N94 Gd85 2.661 . S
N94 C89 1.350 . S
N94 C95 1.307 . S
C95 C93 1.402 . S
C95 N94 1.307 . S
C95 H96 0.930 . S
H96 C95 0.930 . S
C97 N98 1.334 1_556 S
C97 C99 1.394 . S
C97 H101 0.930 . S
N98 Gd85 2.601 . S
N98 C88 1.359 . S
N98 C97 1.334 1_554 S
C99 C97 1.394 . S
C99 C100 1.359 . S
C99 H111 0.930 . S
C100 C90 1.391 1_556 S
C100 C99 1.359 . S
C100 H112 0.929 . S
H101 C97 0.930 . S
H102 C91 0.930 1_455 S
H103 C120 0.930 . S
H104 C92 0.930 1_455 S
H105 C93 0.930 . S
H106 C87 0.929 . S
H107 C125 0.930 . S
H108 C116 0.930 . S
H109 C117 0.930 . S
H110 C141 0.929 . S
H111 C99 0.930 . S
H112 C100 0.929 . S
H113 C142 0.930 . S
H114 C123 0.930 . S
N115 Gd84 2.661 . S
N115 C119 1.350 . S
N115 C120 1.307 . S
C116 H108 0.930 . S
C116 C117 1.355 1_554 S
C116 C118 1.412 . S
C117 H109 0.930 . S
C117 C116 1.355 1_556 S
C117 C120 1.402 1_556 S
C118 C116 1.412 . S
C118 C119 1.417 . S
C118 C142 1.431 . S
C119 N115 1.350 . S
C119 C118 1.417 . S
C119 C122 1.426 . S
C120 H103 0.930 . S
C120 N115 1.307 . S
C120 C117 1.402 1_554 S
N121 Gd84 2.601 . S
N121 C122 1.359 . S
N121 C125 1.334 . S
C122 C119 1.426 . S
C122 N121 1.359 . S
C122 C126 1.413 . S
C123 H114 0.930 . S
C123 C124 1.359 . S
C123 C125 1.394 . S
C124 C123 1.359 . S
C124 C126 1.391 . S
C124 H127 0.929 . S
C125 H107 0.930 . S
C125 N121 1.334 . S
C125 C123 1.394 . S
C126 C122 1.413 . S
C126 C124 1.391 . S
C126 C141 1.437 . S
H127 C124 0.929 . S
O128 Gd84 2.545 . S
O128 C143 1.258 . S
O129 Gd84 2.606 . S
O129 Gd85 2.362 . S
O129 C140 1.284 . S
O130 Gd85 2.324 . S
O130 C150 1.254 . S
O131 Gd84 2.429 . S
O131 C150 1.268 . S
O132 Gd84 2.545 . S
O132 C140 1.250 . S
O133 Gd84 2.412 . S
O133 C143 1.252 . S
O134 Gd85 2.545 . S
O134 C152 1.258 . S
O135 Gd84 2.362 . S
O135 Gd85 2.606 . S
O135 C151 1.284 . S
O136 Gd84 2.324 . S
O136 C159 1.254 . S
O137 Gd85 2.429 . S
O137 C159 1.268 . S
O138 Gd85 2.545 . S
O138 C151 1.250 . S
O139 Gd85 2.412 . S
O139 C152 1.252 . S
C140 O129 1.284 . S
C140 O132 1.250 . S
C141 H110 0.929 . S
C141 C126 1.437 . S
C141 C142 1.317 . S
C142 H113 0.930 . S
C142 C118 1.431 . S
C142 C141 1.317 . S
C143 Gd84 2.828 . S
C143 O128 1.258 . S
C143 O133 1.252 . S
C143 C144 1.497 . S
C144 C143 1.497 . S
C144 C145 1.395 . S
C144 C146 1.380 . S
C145 C144 1.395 . S
C145 C148 1.398 . S
C145 H160 0.930 . S
C146 C144 1.380 . S
C146 C147 1.391 . S
C146 H161 0.930 . S
C147 C146 1.391 . S
C147 C149 1.387 . S
C148 C145 1.398 . S
C148 C149 1.380 . S
C148 H162 0.930 . S
C149 C147 1.387 . S
C149 C148 1.380 . S
C149 H163 0.930 . S
C150 O130 1.254 . S
C150 O131 1.268 . S
C151 O135 1.284 . S
C151 O138 1.250 . S
C152 Gd85 2.828 . S
C152 O134 1.258 . S
C152 O139 1.252 . S
C152 C153 1.497 . S
C153 C152 1.497 . S
C153 C154 1.395 . S
C153 C155 1.380 . S
C154 C153 1.395 . S
C154 C157 1.398 . S
C154 H164 0.931 . S
C155 C153 1.380 . S
C155 C156 1.391 . S
C155 H165 0.930 . S
C156 C155 1.391 . S
C156 C158 1.387 . S
C157 C154 1.398 . S
C157 C158 1.380 . S
C157 H166 0.930 1_554 S
C158 C156 1.387 . S
C158 C157 1.380 . S
C158 H167 0.930 . S
C159 O136 1.254 . S
C159 O137 1.268 . S
H160 C145 0.930 . S
H161 C146 0.930 . S
H162 C148 0.930 . S
H163 C149 0.930 . S
H164 C154 0.931 . S
H165 C155 0.930 . S
H166 C157 0.930 1_556 S
H167 C158 0.930 . S
Gd168 N199 2.661 . S
Gd168 N205 2.601 1_554 S
Gd168 O212 2.545 1_554 S
Gd168 O213 2.606 1_545 S
Gd168 O215 2.429 1_554 S
Gd168 O216 2.533 1_545 S
Gd168 O217 2.412 . S
Gd168 O219 2.362 . S
Gd168 O220 2.324 . S
Gd168 C227 2.828 . S
Gd169 N178 2.661 1_554 S
Gd169 N182 2.601 . S
Gd169 O213 2.362 . S
Gd169 O214 2.324 1_554 S
Gd169 O218 2.545 . S
Gd169 O219 2.606 1_565 S
Gd169 O221 2.429 1_565 S
Gd169 O222 2.545 1_565 S
Gd169 O223 2.412 1_554 S
Gd169 C236 2.828 . S
C170 C173 1.417 . S
C170 C175 1.431 . S
C170 C176 1.412 . S
C171 C174 1.437 . S
C171 C175 1.317 1_554 S
C171 H190 0.929 . S
C172 C173 1.426 1_554 S
C172 C174 1.413 . S
C172 N182 1.359 . S
C173 C170 1.417 . S
C173 C172 1.426 1_556 S
C173 N178 1.350 . S
C174 C171 1.437 . S
C174 C172 1.413 . S
C174 C184 1.391 . S
C175 C170 1.431 . S
C175 C171 1.317 1_556 S
C175 H186 0.930 . S
C176 C170 1.412 . S
C176 C177 1.355 . S
C176 H188 0.930 . S
C177 C176 1.355 . S
C177 C179 1.402 . S
C177 H189 0.930 . S
N178 Gd169 2.661 1_556 S
N178 C173 1.350 . S
N178 C179 1.307 . S
C179 C177 1.402 . S
C179 N178 1.307 . S
C179 H180 0.930 . S
H180 C179 0.930 . S
C181 N182 1.334 . S
C181 C183 1.394 . S
C181 H185 0.930 . S
N182 Gd169 2.601 . S
N182 C172 1.359 . S
N182 C181 1.334 . S
C183 C181 1.394 . S
C183 C184 1.359 . S
C183 H195 0.930 . S
C184 C174 1.391 . S
C184 C183 1.359 . S
C184 H196 0.929 . S
H185 C181 0.930 . S
H186 C175 0.930 . S
H187 C204 0.930 . S
H188 C176 0.930 . S
H189 C177 0.930 . S
H190 C171 0.929 . S
H191 C209 0.930 . S
H192 C200 0.930 . S
H193 C201 0.930 . S
H194 C225 0.929 . S
H195 C183 0.930 . S
H196 C184 0.929 . S
H197 C226 0.930 . S
H198 C207 0.930 . S
N199 Gd168 2.661 . S
N199 C203 1.350 . S
N199 C204 1.307 . S
C200 H192 0.930 . S
C200 C201 1.355 . S
C200 C202 1.412 . S
C201 H193 0.930 . S
C201 C200 1.355 . S
C201 C204 1.402 . S
C202 C200 1.412 . S
C202 C203 1.417 . S
C202 C226 1.431 . S
C203 N199 1.350 . S
C203 C202 1.417 . S
C203 C206 1.426 1_554 S
C204 H187 0.930 . S
C204 N199 1.307 . S
C204 C201 1.402 . S
N205 Gd168 2.601 1_556 S
N205 C206 1.359 . S
N205 C209 1.334 . S
C206 C203 1.426 1_556 S
C206 N205 1.359 . S
C206 C210 1.413 . S
C207 H198 0.930 . S
C207 C208 1.359 . S
C207 C209 1.394 . S
C208 C207 1.359 . S
C208 C210 1.391 . S
C208 H211 0.929 . S
C209 H191 0.930 . S
C209 N205 1.334 . S
C209 C207 1.394 . S
C210 C206 1.413 . S
C210 C208 1.391 . S
C210 C225 1.437 . S
H211 C208 0.929 . S
O212 Gd168 2.545 1_556 S
O212 C227 1.258 1_556 S
O213 Gd168 2.606 1_565 S
O213 Gd169 2.362 . S
O213 C224 1.284 . S
O214 Gd169 2.324 1_556 S
O214 C234 1.254 . S
O215 Gd168 2.429 1_556 S
O215 C234 1.268 1_545 S
O216 Gd168 2.533 1_565 S
O216 C224 1.292 . S
O217 Gd168 2.412 . S
O217 C227 1.252 . S
O218 Gd169 2.545 . S
O218 C236 1.258 . S
O219 Gd168 2.362 . S
O219 Gd169 2.606 1_545 S
O219 C235 1.284 . S
O220 Gd168 2.324 . S
O220 C243 1.254 . S
O221 Gd169 2.429 1_545 S
O221 C243 1.268 . S
O222 Gd169 2.545 1_545 S
O222 C235 1.250 . S
O223 Gd169 2.412 1_556 S
O223 C236 1.252 1_556 S
C224 O213 1.284 . S
C224 O216 1.292 . S
C225 H194 0.929 . S
C225 C210 1.437 . S
C225 C226 1.317 1_556 S
C226 H197 0.930 . S
C226 C202 1.431 . S
C226 C225 1.317 1_554 S
C227 Gd168 2.828 . S
C227 O212 1.258 1_554 S
C227 O217 1.252 . S
C227 C228 1.497 . S
C228 C227 1.497 . S
C228 C229 1.395 1_554 S
C228 C230 1.380 . S
C229 C228 1.395 1_556 S
C229 C232 1.398 1_556 S
C229 H244 0.930 . S
C230 C228 1.380 . S
C230 C231 1.391 . S
C230 H245 0.930 . S
C231 C230 1.391 . S
C231 C233 1.387 . S
C232 C229 1.398 1_554 S
C232 C233 1.380 . S
C232 H246 0.930 1_554 S
C233 C231 1.387 . S
C233 C232 1.380 . S
C233 H247 0.930 . S
C234 O214 1.254 . S
C234 O215 1.268 1_565 S
C235 O219 1.284 . S
C235 O222 1.250 . S
C236 Gd169 2.828 . S
C236 O218 1.258 . S
C236 O223 1.252 1_554 S
C236 C237 1.497 1_554 S
C237 C236 1.497 1_556 S
C237 C238 1.395 1_556 S
C237 C239 1.380 . S
C238 C237 1.395 1_554 S
C238 C241 1.398 . S
C238 H248 0.930 . S
C239 C237 1.380 . S
C239 C240 1.391 . S
C239 H249 0.930 . S
C240 C239 1.391 . S
C240 C242 1.387 . S
C241 C238 1.398 . S
C241 C242 1.380 1_554 S
C241 H250 0.930 . S
C242 C240 1.387 . S
C242 C241 1.380 1_556 S
C242 H251 0.930 . S
C243 O220 1.254 . S
C243 O221 1.268 . S
H244 C229 0.930 . S
H245 C230 0.930 . S
H246 C232 0.930 1_556 S
H247 C233 0.930 . S
H248 C238 0.930 . S
H249 C239 0.930 . S
H250 C241 0.930 . S
H251 C242 0.930 . S
Gd252 N283 2.661 . S
Gd252 N289 2.601 . S
Gd252 O296 2.545 . S
Gd252 O297 2.606 . S
Gd252 O299 2.429 . S
Gd252 O300 2.545 . S
Gd252 O301 2.412 . S
Gd252 O303 2.362 . S
Gd252 O304 2.324 1_554 S
Gd252 C311 2.828 . S
Gd253 N262 2.661 . S
Gd253 N266 2.601 1_554 S
Gd253 O297 2.362 . S
Gd253 O298 2.324 . S
Gd253 O302 2.545 . S
Gd253 O303 2.606 . S
Gd253 O305 2.429 1_554 S
Gd253 O306 2.545 . S
Gd253 O307 2.412 . S
Gd253 C320 2.828 . S
C254 C257 1.417 . S
C254 C259 1.431 1_554 S
C254 C260 1.412 . S
C255 C258 1.437 . S
C255 C259 1.317 . S
C255 H274 0.929 . S
C256 C257 1.426 1_556 S
C256 C258 1.413 . S
C256 N266 1.359 . S
C257 C254 1.417 . S
C257 C256 1.426 1_554 S
C257 N262 1.350 . S
C258 C255 1.437 . S
C258 C256 1.413 . S
C258 C268 1.391 . S
C259 C254 1.431 1_556 S
C259 C255 1.317 . S
C259 H270 0.930 . S
C260 C254 1.412 . S
C260 C261 1.355 . S
C260 H272 0.930 . S
C261 C260 1.355 . S
C261 C263 1.402 . S
C261 H273 0.930 . S
N262 Gd253 2.661 . S
N262 C257 1.350 . S
N262 C263 1.307 . S
C263 C261 1.402 . S
C263 N262 1.307 . S
C263 H264 0.930 . S
H264 C263 0.930 . S
C265 N266 1.334 . S
C265 C267 1.394 . S
C265 H269 0.930 . S
N266 Gd253 2.601 1_556 S
N266 C256 1.359 . S
N266 C265 1.334 . S
C267 C265 1.394 . S
C267 C268 1.359 . S
C267 H279 0.930 . S
C268 C258 1.391 . S
C268 C267 1.359 . S
C268 H280 0.929 . S
H269 C265 0.930 . S
H270 C259 0.930 . S
H271 C288 0.930 1_556 S
H272 C260 0.930 . S
H273 C261 0.930 . S
H274 C255 0.929 . S
H275 C293 0.930 . S
H276 C284 0.930 . S
H277 C285 0.930 1_556 S
H278 C309 0.929 . S
H279 C267 0.930 . S
H280 C268 0.929 . S
H281 C310 0.930 . S
H282 C291 0.930 . S
N283 Gd252 2.661 . S
N283 C287 1.350 . S
N283 C288 1.307 . S
C284 H276 0.930 . S
C284 C285 1.355 . S
C284 C286 1.412 . S
C285 H277 0.930 1_554 S
C285 C284 1.355 . S
C285 C288 1.402 . S
C286 C284 1.412 . S
C286 C287 1.417 . S
C286 C310 1.431 . S
C287 N283 1.350 . S
C287 C286 1.417 . S
C287 C290 1.426 . S
C288 H271 0.930 1_554 S
C288 N283 1.307 . S
C288 C285 1.402 . S
N289 Gd252 2.601 . S
N289 C290 1.359 . S
N289 C293 1.334 . S
C290 C287 1.426 . S
C290 N289 1.359 . S
C290 C294 1.413 . S
C291 H282 0.930 . S
C291 C292 1.359 . S
C291 C293 1.394 . S
C292 C291 1.359 . S
C292 C294 1.391 . S
C292 H295 0.929 . S
C293 H275 0.930 . S
C293 N289 1.334 . S
C293 C291 1.394 . S
C294 C290 1.413 . S
C294 C292 1.391 . S
C294 C309 1.437 . S
H295 C292 0.929 . S
O296 Gd252 2.545 . S
O296 C311 1.258 . S
O297 Gd252 2.606 . S
O297 Gd253 2.362 . S
O297 C308 1.284 . S
O298 Gd253 2.324 . S
O298 C318 1.254 . S
O299 Gd252 2.429 . S
O299 C318 1.268 . S
O300 Gd252 2.545 . S
O300 C308 1.250 . S
O301 Gd252 2.412 . S
O301 C311 1.252 . S
O302 Gd253 2.545 . S
O302 C320 1.258 . S
O303 Gd252 2.362 . S
O303 Gd253 2.606 . S
O303 C319 1.284 . S
O304 Gd252 2.324 1_556 S
O304 C327 1.254 . S
O305 Gd253 2.429 1_556 S
O305 C327 1.268 . S
O306 Gd253 2.545 . S
O306 C319 1.250 . S
O307 Gd253 2.412 . S
O307 C320 1.252 . S
C308 O297 1.284 . S
C308 O300 1.250 . S
C309 H278 0.929 . S
C309 C294 1.437 . S
C309 C310 1.317 . S
C310 H281 0.930 . S
C310 C286 1.431 . S
C310 C309 1.317 . S
C311 Gd252 2.828 . S
C311 O296 1.258 . S
C311 O301 1.252 . S
C311 C312 1.497 . S
C312 C311 1.497 . S
C312 C313 1.395 . S
C312 C314 1.380 . S
C313 C312 1.395 . S
C313 C316 1.398 . S
C313 H328 0.930 . S
C314 C312 1.380 . S
C314 C315 1.391 . S
C314 H329 0.930 1_554 S
C315 C314 1.391 . S
C315 C317 1.387 . S
C316 C313 1.398 . S
C316 C317 1.380 . S
C316 H330 0.930 . S
C317 C315 1.387 . S
C317 C316 1.380 . S
C317 H331 0.930 . S
C318 O298 1.254 . S
C318 O299 1.268 . S
C319 O303 1.284 . S
C319 O306 1.250 . S
C320 Gd253 2.828 . S
C320 O302 1.258 . S
C320 O307 1.252 . S
C320 C321 1.497 . S
C321 C320 1.497 . S
C321 C322 1.395 . S
C321 C323 1.380 . S
C322 C321 1.395 . S
C322 C325 1.398 . S
C322 H332 0.930 1_554 S
C323 C321 1.380 . S
C323 C324 1.391 . S
C323 H333 0.930 . S
C324 C323 1.391 . S
C324 C326 1.387 . S
C325 C322 1.398 . S
C325 C326 1.380 . S
C325 H334 0.930 . S
C326 C324 1.387 . S
C326 C325 1.380 . S
C326 H335 0.930 . S
C327 O304 1.254 . S
C327 O305 1.268 . S
H328 C313 0.930 . S
H329 C314 0.930 1_556 S
H330 C316 0.930 . S
H331 C317 0.930 . S
H332 C322 0.930 1_556 S
H333 C323 0.930 . S
H334 C325 0.930 . S
H335 C326 0.930 . S
Gd336 N367 2.661 1_554 S
Gd336 N373 2.601 . S
Gd336 O380 2.545 . S
Gd336 O381 2.606 . S
Gd336 O383 2.429 . S
Gd336 O384 2.545 . S
Gd336 O385 2.412 1_554 S
Gd336 O387 2.362 1_554 S
Gd336 O388 2.324 1_554 S
Gd336 C395 2.828 . S
Gd337 N346 2.661 1_556 S
Gd337 N350 2.601 . S
Gd337 O381 2.362 1_556 S
Gd337 O382 2.324 1_556 S
Gd337 O386 2.545 . S
Gd337 O387 2.606 . S
Gd337 O389 2.429 . S
Gd337 O390 2.545 . S
Gd337 O391 2.412 1_556 S
Gd337 C404 2.828 . S
C338 C341 1.417 . S
C338 C343 1.431 . S
C338 C344 1.412 . S
C339 C342 1.437 . S
C339 C343 1.317 1_556 S
C339 H358 0.929 . S
C340 C341 1.426 1_556 S
C340 C342 1.413 . S
C340 N350 1.359 . S
C341 C338 1.417 . S
C341 C340 1.426 1_554 S
C341 N346 1.350 . S
C342 C339 1.437 . S
C342 C340 1.413 . S
C342 C352 1.391 . S
C343 C338 1.431 . S
C343 C339 1.317 1_554 S
C343 H354 0.930 . S
C344 C338 1.412 . S
C344 C345 1.355 . S
C344 H356 0.930 . S
C345 C344 1.355 . S
C345 C347 1.402 . S
C345 H357 0.930 . S
N346 Gd337 2.661 1_554 S
N346 C341 1.350 . S
N346 C347 1.307 . S
C347 C345 1.402 . S
C347 N346 1.307 . S
C347 H348 0.930 . S
H348 C347 0.930 . S
C349 N350 1.334 . S
C349 C351 1.394 . S
C349 H353 0.930 . S
N350 Gd337 2.601 . S
N350 C340 1.359 . S
N350 C349 1.334 . S
C351 C349 1.394 . S
C351 C352 1.359 . S
C351 H363 0.930 . S
C352 C342 1.391 . S
C352 C351 1.359 . S
C352 H364 0.929 . S
H353 C349 0.930 . S
H354 C343 0.930 . S
H355 C372 0.930 . S
H356 C344 0.930 . S
H357 C345 0.930 . S
H358 C339 0.929 . S
H359 C377 0.930 . S
H360 C368 0.930 . S
H361 C369 0.930 . S
H362 C393 0.929 . S
H363 C351 0.930 . S
H364 C352 0.929 . S
H365 C394 0.930 . S
H366 C375 0.930 . S
N367 Gd336 2.661 1_556 S
N367 C371 1.350 . S
N367 C372 1.307 . S
C368 H360 0.930 . S
C368 C369 1.355 . S
C368 C370 1.412 . S
C369 H361 0.930 . S
C369 C368 1.355 . S
C369 C372 1.402 . S
C370 C368 1.412 . S
C370 C371 1.417 . S
C370 C394 1.431 . S
C371 N367 1.350 . S
C371 C370 1.417 . S
C371 C374 1.426 1_556 S
C372 H355 0.930 . S
C372 N367 1.307 . S
C372 C369 1.402 . S
N373 Gd336 2.601 . S
N373 C374 1.359 . S
N373 C377 1.334 . S
C374 C371 1.426 1_554 S
C374 N373 1.359 . S
C374 C378 1.413 . S
C375 H366 0.930 . S
C375 C376 1.359 . S
C375 C377 1.394 . S
C376 C375 1.359 . S
C376 C378 1.391 . S
C376 H379 0.929 . S
C377 H359 0.930 . S
C377 N373 1.334 . S
C377 C375 1.394 . S
C378 C374 1.413 . S
C378 C376 1.391 . S
C378 C393 1.437 . S
H379 C376 0.929 . S
O380 Gd336 2.545 . S
O380 C395 1.258 . S
O381 Gd336 2.606 . S
O381 Gd337 2.362 1_554 S
O381 C392 1.284 . S
O382 Gd337 2.324 1_554 S
O382 C402 1.254 . S
O383 Gd336 2.429 . S
O383 C402 1.268 . S
O384 Gd336 2.545 . S
O384 C392 1.250 . S
O385 Gd336 2.412 1_556 S
O385 C395 1.252 1_556 S
O386 Gd337 2.545 . S
O386 C404 1.258 . S
O387 Gd336 2.362 1_556 S
O387 Gd337 2.606 . S
O387 C403 1.284 . S
O388 Gd336 2.324 1_556 S
O388 C411 1.254 . S
O389 Gd337 2.429 . S
O389 C411 1.268 . S
O390 Gd337 2.545 . S
O390 C403 1.250 . S
O391 Gd337 2.412 1_554 S
O391 C404 1.252 1_554 S
C392 O381 1.284 . S
C392 O384 1.250 . S
C393 H362 0.929 . S
C393 C378 1.437 . S
C393 C394 1.317 1_554 S
C394 H365 0.930 . S
C394 C370 1.431 . S
C394 C393 1.317 1_556 S
C395 Gd336 2.828 . S
C395 O380 1.258 . S
C395 O385 1.252 1_554 S
C395 C396 1.497 . S
C396 C395 1.497 . S
C396 C397 1.395 . S
C396 C398 1.380 1_554 S
C397 C396 1.395 . S
C397 C400 1.398 . S
C397 H412 0.930 . S
C398 C396 1.380 1_556 S
C398 C399 1.391 . S
C398 H413 0.930 . S
C399 C398 1.391 . S
C399 C401 1.387 . S
C400 C397 1.398 . S
C400 C401 1.380 1_554 S
C400 H414 0.930 . S
C401 C399 1.387 . S
C401 C400 1.380 1_556 S
C401 H415 0.930 . S
C402 O382 1.254 . S
C402 O383 1.268 . S
C403 O387 1.284 . S
C403 O390 1.250 . S
C404 Gd337 2.828 . S
C404 O386 1.258 . S
C404 O391 1.252 1_556 S
C404 C405 1.497 . S
C405 C404 1.497 . S
C405 C406 1.395 . S
C405 C407 1.380 1_556 S
C406 C405 1.395 . S
C406 C409 1.398 . S
C406 H416 0.930 . S
C407 C405 1.380 1_554 S
C407 C408 1.391 . S
C407 H417 0.930 . S
C408 C407 1.391 . S
C408 C410 1.387 . S
C409 C406 1.398 . S
C409 C410 1.380 1_556 S
C409 H418 0.930 . S
C410 C408 1.387 . S
C410 C409 1.380 1_554 S
C410 H419 0.930 . S
C411 O388 1.254 . S
C411 O389 1.268 . S
H412 C397 0.930 . S
H413 C398 0.930 . S
H414 C400 0.930 . S
H415 C401 0.930 . S
H416 C406 0.930 . S
H417 C407 0.930 . S
H418 C409 0.930 . S
H419 C410 0.930 . S
Gd420 N451 2.661 . S
Gd420 N457 2.601 . S
Gd420 O464 2.545 . S
Gd420 O465 2.606 . S
Gd420 O467 2.429 . S
Gd420 O468 2.545 . S
Gd420 O469 2.412 . S
Gd420 O471 2.362 . S
Gd420 O472 2.324 . S
Gd420 C479 2.828 . S
Gd421 N430 2.661 . S
Gd421 N434 2.601 . S
Gd421 O465 2.362 . S
Gd421 O466 2.324 . S
Gd421 O470 2.545 . S
Gd421 O471 2.606 . S
Gd421 O473 2.429 . S
Gd421 O474 2.545 . S
Gd421 O475 2.412 . S
Gd421 C488 2.828 . S
C422 C425 1.417 . S
C422 C427 1.431 . S
C422 C428 1.412 . S
C423 C426 1.437 . S
C423 C427 1.317 . S
C423 H442 0.929 . S
C424 C425 1.426 . S
C424 C426 1.413 . S
C424 N434 1.359 . S
C425 C422 1.417 . S
C425 C424 1.426 . S
C425 N430 1.350 . S
C426 C423 1.437 . S
C426 C424 1.413 . S
C426 C436 1.391 . S
C427 C422 1.431 . S
C427 C423 1.317 . S
C427 H438 0.930 . S
C428 C422 1.412 . S
C428 C429 1.355 . S
C428 H440 0.930 . S
C429 C428 1.355 . S
C429 C431 1.402 . S
C429 H441 0.930 . S
N430 Gd421 2.661 . S
N430 C425 1.350 . S
N430 C431 1.307 . S
C431 C429 1.402 . S
C431 N430 1.307 . S
C431 H432 0.930 . S
H432 C431 0.930 . S
C433 N434 1.334 . S
C433 C435 1.394 . S
C433 H437 0.930 . S
N434 Gd421 2.601 . S
N434 C424 1.359 . S
N434 C433 1.334 . S
C435 C433 1.394 . S
C435 C436 1.359 . S
C435 H447 0.930 1_554 S
C436 C426 1.391 . S
C436 C435 1.359 . S
C436 H448 0.929 . S
H437 C433 0.930 . S
H438 C427 0.930 . S
H439 C456 0.930 . S
H440 C428 0.930 . S
H441 C429 0.930 . S
H442 C423 0.929 . S
H443 C461 0.930 . S
H444 C452 0.930 . S
H445 C453 0.930 . S
H446 C477 0.929 . S
H447 C435 0.930 1_556 S
H448 C436 0.929 . S
H449 C478 0.930 . S
H450 C459 0.930 . S
N451 Gd420 2.661 . S
N451 C455 1.350 . S
N451 C456 1.307 1_554 S
C452 H444 0.930 . S
C452 C453 1.355 . S
C452 C454 1.412 1_556 S
C453 H445 0.930 . S
C453 C452 1.355 . S
C453 C456 1.402 . S
C454 C452 1.412 1_554 S
C454 C455 1.417 . S
C454 C478 1.431 . S
C455 N451 1.350 . S
C455 C454 1.417 . S
C455 C458 1.426 . S
C456 H439 0.930 . S
C456 N451 1.307 1_556 S
C456 C453 1.402 . S
N457 Gd420 2.601 . S
N457 C458 1.359 . S
N457 C461 1.334 . S
C458 C455 1.426 . S
C458 N457 1.359 . S
C458 C462 1.413 . S
C459 H450 0.930 . S
C459 C460 1.359 . S
C459 C461 1.394 . S
C460 C459 1.359 . S
C460 C462 1.391 . S
C460 H463 0.929 . S
C461 H443 0.930 . S
C461 N457 1.334 . S
C461 C459 1.394 . S
C462 C458 1.413 . S
C462 C460 1.391 . S
C462 C477 1.437 . S
H463 C460 0.929 . S
O464 Gd420 2.545 . S
O464 C479 1.258 . S
O465 Gd420 2.606 . S
O465 Gd421 2.362 . S
O465 C476 1.284 . S
O466 Gd421 2.324 . S
O466 C486 1.254 . S
O467 Gd420 2.429 . S
O467 C486 1.268 . S
O468 Gd420 2.545 . S
O468 C476 1.250 . S
O469 Gd420 2.412 . S
O469 C479 1.252 . S
O470 Gd421 2.545 . S
O470 C488 1.258 . S
O471 Gd420 2.362 . S
O471 Gd421 2.606 . S
O471 C487 1.284 . S
O472 Gd420 2.324 . S
O472 C495 1.254 1_554 S
O473 Gd421 2.429 . S
O473 C495 1.268 1_554 S
O474 Gd421 2.545 . S
O474 C487 1.250 . S
O475 Gd421 2.412 . S
O475 C488 1.252 . S
C476 O465 1.284 . S
C476 O468 1.250 . S
C477 H446 0.929 . S
C477 C462 1.437 . S
C477 C478 1.317 . S
C478 H449 0.930 . S
C478 C454 1.431 . S
C478 C477 1.317 . S
C479 Gd420 2.828 . S
C479 O464 1.258 . S
C479 O469 1.252 . S
C479 C480 1.497 . S
C480 C479 1.497 . S
C480 C481 1.395 . S
C480 C482 1.380 1_554 S
C481 C480 1.395 . S
C481 C484 1.398 . S
C481 H496 0.930 . S
C482 C480 1.380 1_556 S
C482 C483 1.391 . S
C482 H497 0.930 . S
C483 C482 1.391 . S
C483 C485 1.387 . S
C484 C481 1.398 . S
C484 C485 1.380 1_554 S
C484 H498 0.930 . S
C485 C483 1.387 . S
C485 C484 1.380 1_556 S
C485 H499 0.930 . S
C486 O466 1.254 . S
C486 O467 1.268 . S
C487 O471 1.284 . S
C487 O474 1.250 . S
C488 Gd421 2.828 . S
C488 O470 1.258 . S
C488 O475 1.252 . S
C488 C489 1.497 1_655 S
C489 C488 1.497 1_455 S
C489 C490 1.395 . S
C489 C491 1.380 . S
C490 C489 1.395 . S
C490 C493 1.398 . S
C490 H500 0.930 . S
C491 C489 1.380 . S
C491 C492 1.391 . S
C491 H501 0.930 . S
C492 C491 1.391 . S
C492 C494 1.387 . S
C493 C490 1.398 . S
C493 C494 1.380 . S
C493 H502 0.930 . S
C494 C492 1.387 . S
C494 C493 1.380 . S
C494 H503 0.930 . S
C495 O472 1.254 1_556 S
C495 O473 1.268 1_556 S
H496 C481 0.930 . S
H497 C482 0.930 . S
H498 C484 0.930 . S
H499 C485 0.930 . S
H500 C490 0.930 . S
H501 C491 0.930 . S
H502 C493 0.930 . S
H503 C494 0.930 . S
Gd504 N535 2.661 . S
Gd504 N541 2.601 . S
Gd504 O548 2.545 . S
Gd504 O549 2.606 . S
Gd504 O551 2.429 . S
Gd504 O552 2.545 . S
Gd504 O553 2.412 . S
Gd504 O555 2.362 . S
Gd504 O556 2.324 . S
Gd504 C563 2.828 . S
Gd505 N514 2.661 . S
Gd505 N518 2.601 . S
Gd505 O549 2.362 . S
Gd505 O550 2.324 . S
Gd505 O554 2.545 . S
Gd505 O555 2.606 . S
Gd505 O557 2.429 . S
Gd505 O558 2.545 . S
Gd505 O559 2.412 . S
Gd505 C572 2.828 . S
C506 C509 1.417 . S
C506 C511 1.431 . S
C506 C512 1.412 . S
C507 C510 1.437 1_556 S
C507 C511 1.317 . S
C507 H526 0.929 1_556 S
C508 C509 1.426 . S
C508 C510 1.413 1_556 S
C508 N518 1.359 . S
C509 C506 1.417 . S
C509 C508 1.426 . S
C509 N514 1.350 . S
C510 C507 1.437 1_554 S
C510 C508 1.413 1_554 S
C510 C520 1.391 . S
C511 C506 1.431 . S
C511 C507 1.317 . S
C511 H522 0.930 . S
C512 C506 1.412 . S
C512 C513 1.355 . S
C512 H524 0.930 . S
C513 C512 1.355 . S
C513 C515 1.402 . S
C513 H525 0.930 . S
N514 Gd505 2.661 . S
N514 C509 1.350 . S
N514 C515 1.307 . S
C515 C513 1.402 . S
C515 N514 1.307 . S
C515 H516 0.930 . S
H516 C515 0.930 . S
C517 N518 1.334 1_554 S
C517 C519 1.394 . S
C517 H521 0.930 . S
N518 Gd505 2.601 . S
N518 C508 1.359 . S
N518 C517 1.334 1_556 S
C519 C517 1.394 . S
C519 C520 1.359 . S
C519 H531 0.930 . S
C520 C510 1.391 . S
C520 C519 1.359 . S
C520 H532 0.929 . S
H521 C517 0.930 . S
H522 C511 0.930 . S
H523 C540 0.930 . S
H524 C512 0.930 . S
H525 C513 0.930 . S
H526 C507 0.929 1_554 S
H527 C545 0.930 . S
H528 C536 0.930 . S
H529 C537 0.930 1_554 S
H530 C561 0.929 . S
H531 C519 0.930 . S
H532 C520 0.929 . S
H533 C562 0.930 . S
H534 C543 0.930 . S
N535 Gd504 2.661 . S
N535 C539 1.350 . S
N535 C540 1.307 . S
C536 H528 0.930 . S
C536 C537 1.355 . S
C536 C538 1.412 . S
C537 H529 0.930 1_556 S
C537 C536 1.355 . S
C537 C540 1.402 . S
C538 C536 1.412 . S
C538 C539 1.417 . S
C538 C562 1.431 . S
C539 N535 1.350 . S
C539 C538 1.417 . S
C539 C542 1.426 . S
C540 H523 0.930 . S
C540 N535 1.307 . S
C540 C537 1.402 . S
N541 Gd504 2.601 . S
N541 C542 1.359 . S
N541 C545 1.334 . S
C542 C539 1.426 . S
C542 N541 1.359 . S
C542 C546 1.413 . S
C543 H534 0.930 . S
C543 C544 1.359 . S
C543 C545 1.394 . S
C544 C543 1.359 . S
C544 C546 1.391 . S
C544 H547 0.929 . S
C545 H527 0.930 . S
C545 N541 1.334 . S
C545 C543 1.394 . S
C546 C542 1.413 . S
C546 C544 1.391 . S
C546 C561 1.437 . S
H547 C544 0.929 . S
O548 Gd504 2.545 . S
O548 C563 1.258 . S
O549 Gd504 2.606 . S
O549 Gd505 2.362 . S
O549 C560 1.284 . S
O550 Gd505 2.324 . S
O550 C570 1.254 . S
O551 Gd504 2.429 . S
O551 C570 1.268 . S
O552 Gd504 2.545 . S
O552 C560 1.250 . S
O553 Gd504 2.412 . S
O553 C563 1.252 . S
O554 Gd505 2.545 . S
O554 C572 1.258 . S
O555 Gd504 2.362 . S
O555 Gd505 2.606 . S
O555 C571 1.284 . S
O556 Gd504 2.324 . S
O556 C579 1.254 . S
O557 Gd505 2.429 . S
O557 C579 1.268 . S
O558 Gd505 2.545 . S
O558 C571 1.250 . S
O559 Gd505 2.412 . S
O559 C572 1.252 . S
C560 O549 1.284 . S
C560 O552 1.250 . S
C561 H530 0.929 . S
C561 C546 1.437 . S
C561 C562 1.317 . S
C562 H533 0.930 . S
C562 C538 1.431 . S
C562 C561 1.317 . S
C563 Gd504 2.828 . S
C563 O548 1.258 . S
C563 O553 1.252 . S
C563 C564 1.497 . S
C564 C563 1.497 . S
C564 C565 1.395 . S
C564 C566 1.380 . S
C565 C564 1.395 . S
C565 C568 1.398 . S
C565 H580 0.930 . S
C566 C564 1.380 . S
C566 C567 1.391 . S
C566 H581 0.930 . S
C567 C566 1.391 . S
C567 C569 1.387 . S
C568 C565 1.398 . S
C568 C569 1.380 . S
C568 H582 0.930 . S
C569 C567 1.387 . S
C569 C568 1.380 . S
C569 H583 0.930 . S
C570 O550 1.254 . S
C570 O551 1.268 . S
C571 O555 1.284 . S
C571 O558 1.250 . S
C572 Gd505 2.828 . S
C572 O554 1.258 . S
C572 O559 1.252 . S
C572 C573 1.497 . S
C573 C572 1.497 . S
C573 C574 1.395 . S
C573 C575 1.380 . S
C574 C573 1.395 . S
C574 C577 1.398 1_565 S
C574 H584 0.930 . S
C575 C573 1.380 . S
C575 C576 1.391 . S
C575 H585 0.930 . S
C576 C575 1.391 . S
C576 C578 1.387 1_565 S
C577 C574 1.398 1_545 S
C577 C578 1.380 . S
C577 H586 0.930 . S
C578 C576 1.387 1_545 S
C578 C577 1.380 . S
C578 H587 0.930 . S
C579 O556 1.254 . S
C579 O557 1.268 . S
H580 C565 0.930 . S
H581 C566 0.930 . S
H582 C568 0.930 . S
H583 C569 0.930 . S
H584 C574 0.930 . S
H585 C575 0.930 . S
H586 C577 0.930 . S
H587 C578 0.930 . S
Gd588 N619 2.661 . S
Gd588 N625 2.601 1_556 S
Gd588 O632 2.545 1_556 S
Gd588 O633 2.606 . S
Gd588 O635 2.429 1_556 S
Gd588 O636 2.545 1_556 S
Gd588 O637 2.412 . S
Gd588 O639 2.362 . S
Gd588 O640 2.324 . S
Gd588 C647 2.828 . S
Gd589 N598 2.661 1_556 S
Gd589 N602 2.601 . S
Gd589 O633 2.362 . S
Gd589 O634 2.324 1_556 S
Gd589 O638 2.545 . S
Gd589 O639 2.606 . S
Gd589 O641 2.429 . S
Gd589 O642 2.545 . S
Gd589 O643 2.417 . S
Gd589 C656 2.828 . S
C590 C593 1.417 . S
C590 C595 1.431 . S
C590 C596 1.412 . S
C591 C594 1.437 . S
C591 C595 1.317 1_556 S
C591 H610 0.929 . S
C592 C593 1.426 1_556 S
C592 C594 1.413 . S
C592 N602 1.359 . S
C593 C590 1.417 . S
C593 C592 1.426 1_554 S
C593 N598 1.350 . S
C594 C591 1.437 . S
C594 C592 1.413 . S
C594 C604 1.391 . S
C595 C590 1.431 . S
C595 C591 1.317 1_554 S
C595 H606 0.930 . S
C596 C590 1.412 . S
C596 C597 1.355 . S
C596 H608 0.930 . S
C597 C596 1.355 . S
C597 C599 1.402 . S
C597 H609 0.930 . S
N598 Gd589 2.661 1_554 S
N598 C593 1.350 . S
N598 C599 1.307 . S
C599 C597 1.402 . S
C599 N598 1.307 . S
C599 H600 0.930 . S
H600 C599 0.930 . S
C601 N602 1.334 . S
C601 C603 1.394 . S
C601 H605 0.930 . S
N602 Gd589 2.601 . S
N602 C592 1.359 . S
N602 C601 1.334 . S
C603 C601 1.394 . S
C603 C604 1.359 . S
C603 H615 0.930 . S
C604 C594 1.391 . S
C604 C603 1.359 . S
C604 H616 0.929 . S
H605 C601 0.930 . S
H606 C595 0.930 . S
H607 C624 0.930 . S
H608 C596 0.930 . S
H609 C597 0.930 . S
H610 C591 0.929 . S
H611 C629 0.930 . S
H612 C620 0.930 . S
H613 C621 0.930 . S
H614 C645 0.929 . S
H615 C603 0.930 . S
H616 C604 0.929 . S
H617 C646 0.930 . S
H618 C627 0.930 . S
N619 Gd588 2.661 . S
N619 C623 1.350 . S
N619 C624 1.307 . S
C620 H612 0.930 . S
C620 C621 1.355 . S
C620 C622 1.412 . S
C621 H613 0.930 . S
C621 C620 1.355 . S
C621 C624 1.402 . S
C622 C620 1.412 . S
C622 C623 1.417 . S
C622 C646 1.431 . S
C623 N619 1.350 . S
C623 C622 1.417 . S
C623 C626 1.426 . S
C624 H607 0.930 . S
C624 N619 1.307 . S
C624 C621 1.402 . S
N625 Gd588 2.601 1_554 S
N625 C626 1.359 1_554 S
N625 C629 1.334 . S
C626 C623 1.426 . S
C626 N625 1.359 1_556 S
C626 C630 1.413 1_556 S
C627 H618 0.930 . S
C627 C628 1.359 . S
C627 C629 1.394 . S
C628 C627 1.359 . S
C628 C630 1.391 . S
C628 H631 0.929 . S
C629 H611 0.930 . S
C629 N625 1.334 . S
C629 C627 1.394 . S
C630 C626 1.413 1_554 S
C630 C628 1.391 . S
C630 C645 1.437 1_554 S
H631 C628 0.929 . S
O632 Gd588 2.545 1_554 S
O632 C647 1.258 1_554 S
O633 Gd588 2.606 . S
O633 Gd589 2.362 . S
O633 C644 1.284 . S
O634 Gd589 2.324 1_554 S
O634 C654 1.254 . S
O635 Gd588 2.429 1_554 S
O635 C654 1.268 . S
O636 Gd588 2.545 1_554 S
O636 C644 1.250 1_554 S
O637 Gd588 2.412 . S
O637 C647 1.252 . S
O638 Gd589 2.545 . S
O638 C656 1.258 . S
O639 Gd588 2.362 . S
O639 Gd589 2.606 . S
O639 C655 1.284 . S
O640 Gd588 2.324 . S
O640 C663 1.254 . S
O641 Gd589 2.429 . S
O641 C663 1.268 . S
O642 Gd589 2.545 . S
O642 C655 1.250 . S
O643 Gd589 2.417 . S
O643 C656 1.257 . S
C644 O633 1.284 . S
C644 O636 1.250 1_556 S
C645 H614 0.929 . S
C645 C630 1.437 1_556 S
C645 C646 1.317 . S
C646 H617 0.930 . S
C646 C622 1.431 . S
C646 C645 1.317 . S
C647 Gd588 2.828 . S
C647 O632 1.258 1_556 S
C647 O637 1.252 . S
C647 C648 1.497 . S
C648 C647 1.497 . S
C648 C649 1.395 1_556 S
C648 C650 1.380 . S
C649 C648 1.395 1_554 S
C649 C652 1.398 . S
C649 H664 0.930 . S
C650 C648 1.380 . S
C650 C651 1.391 . S
C650 H665 0.930 . S
C651 C650 1.391 . S
C651 C653 1.387 . S
C652 C649 1.398 . S
C652 C653 1.380 1_554 S
C652 H666 0.930 . S
C653 C651 1.387 . S
C653 C652 1.380 1_556 S
C653 H667 0.930 . S
C654 O634 1.254 . S
C654 O635 1.268 . S
C655 O639 1.284 . S
C655 O642 1.250 . S
C656 Gd589 2.828 . S
C656 O638 1.258 . S
C656 O643 1.257 . S
C656 C657 1.497 . S
C657 C656 1.497 . S
C657 C658 1.395 . S
C657 C659 1.380 . S
C658 C657 1.395 . S
C658 C661 1.398 . S
C658 H668 0.930 . S
C659 C657 1.380 . S
C659 C660 1.391 . S
C659 H669 0.930 1_556 S
C660 C659 1.391 . S
C660 C662 1.387 . S
C661 C658 1.398 . S
C661 C662 1.380 . S
C661 H670 0.930 . S
C662 C660 1.387 . S
C662 C661 1.380 . S
C662 H671 0.930 . S
C663 O640 1.254 . S
C663 O641 1.268 . S
H664 C649 0.930 . S
H665 C650 0.930 . S
H666 C652 0.930 . S
H667 C653 0.930 . S
H668 C658 0.930 . S
H669 C659 0.930 1_554 S
H670 C661 0.930 . S
H671 C662 0.930 . S
Gd672 N703 2.661 1_556 S
Gd672 N709 2.601 . S
Gd672 O716 2.545 . S
Gd672 O717 2.606 . S
Gd672 O719 2.429 . S
Gd672 O720 2.545 . S
Gd672 O721 2.412 1_556 S
Gd672 O723 2.362 . S
Gd672 O724 2.324 1_556 S
Gd672 C731 2.828 . S
Gd673 N682 2.661 . S
Gd673 N686 2.601 . S
Gd673 O717 2.362 . S
Gd673 O718 2.324 . S
Gd673 O722 2.545 . S
Gd673 O723 2.606 . S
Gd673 O725 2.429 1_556 S
Gd673 O726 2.545 . S
Gd673 O727 2.412 . S
Gd673 C740 2.828 . S
C674 C677 1.417 . S
C674 C679 1.431 . S
C674 C680 1.412 . S
C675 C678 1.437 . S
C675 C679 1.317 . S
C675 H694 0.929 . S
C676 C677 1.426 . S
C676 C678 1.413 . S
C676 N686 1.359 . S
C677 C674 1.417 . S
C677 C676 1.426 . S
C677 N682 1.350 . S
C678 C675 1.437 . S
C678 C676 1.413 . S
C678 C688 1.391 1_556 S
C679 C674 1.431 . S
C679 C675 1.317 . S
C679 H690 0.930 . S
C680 C674 1.412 . S
C680 C681 1.355 . S
C680 H692 0.930 . S
C681 C680 1.355 . S
C681 C683 1.402 . S
C681 H693 0.930 . S
N682 Gd673 2.661 . S
N682 C677 1.350 . S
N682 C683 1.307 . S
C683 C681 1.402 . S
C683 N682 1.307 . S
C683 H684 0.930 . S
H684 C683 0.930 . S
C685 N686 1.334 1_554 S
C685 C687 1.394 . S
C685 H689 0.930 . S
N686 Gd673 2.601 . S
N686 C676 1.359 . S
N686 C685 1.334 1_556 S
C687 C685 1.394 . S
C687 C688 1.359 . S
C687 H699 0.930 . S
C688 C678 1.391 1_554 S
C688 C687 1.359 . S
C688 H700 0.929 . S
H689 C685 0.930 . S
H690 C679 0.930 . S
H691 C708 0.930 . S
H692 C680 0.930 . S
H693 C681 0.930 . S
H694 C675 0.929 . S
H695 C713 0.930 . S
H696 C704 0.930 . S
H697 C705 0.930 . S
H698 C729 0.929 . S
H699 C687 0.930 . S
H700 C688 0.929 . S
H701 C730 0.930 . S
H702 C711 0.930 . S
N703 Gd672 2.661 1_554 S
N703 C707 1.350 . S
N703 C708 1.307 . S
C704 H696 0.930 . S
C704 C705 1.355 . S
C704 C706 1.412 . S
C705 H697 0.930 . S
C705 C704 1.355 . S
C705 C708 1.402 . S
C706 C704 1.412 . S
C706 C707 1.417 . S
C706 C730 1.431 . S
C707 N703 1.350 . S
C707 C706 1.417 . S
C707 C710 1.426 1_554 S
C708 H691 0.930 . S
C708 N703 1.307 . S
C708 C705 1.402 . S
N709 Gd672 2.601 . S
N709 C710 1.359 . S
N709 C713 1.334 . S
C710 C707 1.426 1_556 S
C710 N709 1.359 . S
C710 C714 1.413 . S
C711 H702 0.930 . S
C711 C712 1.359 . S
C711 C713 1.394 . S
C712 C711 1.359 . S
C712 C714 1.391 . S
C712 H715 0.929 . S
C713 H695 0.930 . S
C713 N709 1.334 . S
C713 C711 1.394 . S
C714 C710 1.413 . S
C714 C712 1.391 . S
C714 C729 1.437 . S
H715 C712 0.929 . S
O716 Gd672 2.545 . S
O716 C731 1.258 . S
O717 Gd672 2.606 . S
O717 Gd673 2.362 . S
O717 C728 1.284 . S
O718 Gd673 2.324 . S
O718 C738 1.254 . S
O719 Gd672 2.429 . S
O719 C738 1.268 . S
O720 Gd672 2.545 . S
O720 C728 1.250 . S
O721 Gd672 2.412 1_554 S
O721 C731 1.252 1_554 S
O722 Gd673 2.545 . S
O722 C740 1.258 . S
O723 Gd672 2.362 . S
O723 Gd673 2.606 . S
O723 C739 1.284 . S
O724 Gd672 2.324 1_554 S
O724 C747 1.254 . S
O725 Gd673 2.429 1_554 S
O725 C747 1.268 . S
O726 Gd673 2.545 . S
O726 C739 1.250 . S
O727 Gd673 2.412 . S
O727 C740 1.252 . S
C728 O717 1.284 . S
C728 O720 1.250 . S
C729 H698 0.929 . S
C729 C714 1.437 . S
C729 C730 1.317 1_556 S
C730 H701 0.930 . S
C730 C706 1.431 . S
C730 C729 1.317 1_554 S
C731 Gd672 2.828 . S
C731 O716 1.258 . S
C731 O721 1.252 1_556 S
C731 C732 1.497 . S
C732 C731 1.497 . S
C732 C733 1.395 . S
C732 C734 1.380 1_556 S
C733 C732 1.395 . S
C733 C736 1.398 . S
C733 H748 0.930 . S
C734 C732 1.380 1_554 S
C734 C735 1.391 . S
C734 H749 0.930 . S
C735 C734 1.391 . S
C735 C737 1.387 . S
C736 C733 1.398 . S
C736 C737 1.380 1_556 S
C736 H750 0.930 . S
C737 C735 1.387 . S
C737 C736 1.380 1_554 S
C737 H751 0.930 . S
C738 O718 1.254 . S
C738 O719 1.268 . S
C739 O723 1.284 . S
C739 O726 1.250 . S
C740 Gd673 2.828 . S
C740 O722 1.258 . S
C740 O727 1.252 . S
C740 C741 1.497 . S
C741 C740 1.497 . S
C741 C742 1.395 . S
C741 C743 1.380 . S
C742 C741 1.395 . S
C742 C745 1.398 . S
C742 H752 0.930 . S
C743 C741 1.380 . S
C743 C744 1.391 . S
C743 H753 0.930 . S
C744 C743 1.391 . S
C744 C746 1.387 . S
C745 C742 1.398 . S
C745 C746 1.380 . S
C745 H754 0.930 . S
C746 C744 1.387 . S
C746 C745 1.380 . S
C746 H755 0.930 . S
C747 O724 1.254 . S
C747 O725 1.268 . S
H748 C733 0.930 . S
H749 C734 0.930 . S
H750 C736 0.930 . S
H751 C737 0.930 . S
H752 C742 0.930 . S
H753 C743 0.930 . S
H754 C745 0.930 . S
H755 C746 0.930 . S
H756 C768 0.930 . S
H757 C770 0.930 . S
H758 C771 0.930 . S
H759 C775 0.959 . S
H760 C775 0.959 . S
H761 C775 0.961 . S
H762 C776 0.960 . S
H763 C776 0.961 . S
H764 C776 0.959 . S
H765 C779 0.929 . S
H766 C780 0.931 . S
H767 C782 0.930 . S
C768 H756 0.930 . S
C768 C769 1.399 . S
C768 C773 1.399 . S
C769 C768 1.399 . S
C769 C770 1.376 . S
C770 H757 0.930 . S
C770 C769 1.376 . S
C770 C771 1.388 . S
C771 H758 0.930 . S
C771 C770 1.388 . S
C771 C772 1.390 . S
C772 C771 1.390 . S
C772 C773 1.394 . S
C772 C778 1.465 . S
C773 C768 1.399 . S
C773 C772 1.394 . S
C773 C774 1.516 . S
C774 C773 1.516 . S
C774 C775 1.502 . S
C774 C776 1.561 1_554 S
C774 C777 1.526 . S
C775 H759 0.959 . S
C775 H760 0.959 . S
C775 H761 0.961 . S
C775 C774 1.502 . S
C776 H762 0.960 . S
C776 H763 0.961 . S
C776 H764 0.959 . S
C776 C774 1.561 1_556 S
C777 C774 1.526 . S
C777 C778 1.396 . S
C777 C782 1.390 . S
C778 C772 1.465 . S
C778 C777 1.396 . S
C778 C779 1.399 . S
C779 H765 0.929 . S
C779 C778 1.399 . S
C779 C780 1.385 . S
C780 H766 0.931 . S
C780 C779 1.385 . S
C780 C781 1.389 . S
C781 C780 1.389 . S
C781 C782 1.387 . S
C782 H767 0.930 . S
C782 C777 1.390 . S
C782 C781 1.387 . S
H783 C795 0.930 . S
H784 C797 0.930 . S
H785 C798 0.930 . S
H786 C802 0.959 . S
H787 C802 0.959 . S
H788 C802 0.961 . S
H789 C803 0.960 . S
H790 C803 0.961 . S
H791 C803 0.959 . S
H792 C806 0.929 . S
H793 C807 0.931 . S
H794 C809 0.930 . S
C795 H783 0.930 . S
C795 C796 1.399 . S
C795 C800 1.399 . S
C796 C795 1.399 . S
C796 C797 1.376 . S
C797 H784 0.930 . S
C797 C796 1.376 . S
C797 C798 1.388 1_554 S
C798 H785 0.930 . S
C798 C797 1.388 1_556 S
C798 C799 1.390 1_556 S
C799 C798 1.390 1_554 S
C799 C800 1.394 . S
C799 C805 1.465 1_554 S
C800 C795 1.399 . S
C800 C799 1.394 . S
C800 C801 1.516 . S
C801 C800 1.516 . S
C801 C802 1.502 . S
C801 C803 1.561 . S
C801 C804 1.526 . S
C802 H786 0.959 . S
C802 H787 0.959 . S
C802 H788 0.961 . S
C802 C801 1.502 . S
C803 H789 0.960 . S
C803 H790 0.961 . S
C803 H791 0.959 . S
C803 C801 1.561 . S
C804 C801 1.526 . S
C804 C805 1.396 1_554 S
C804 C809 1.390 . S
C805 C799 1.465 1_556 S
C805 C804 1.396 1_556 S
C805 C806 1.399 . S
C806 H792 0.929 . S
C806 C805 1.399 . S
C806 C807 1.385 . S
C807 H793 0.931 . S
C807 C806 1.385 . S
C807 C808 1.389 . S
C808 C807 1.389 . S
C808 C809 1.387 1_556 S
C809 H794 0.930 . S
C809 C804 1.390 . S
C809 C808 1.387 1_554 S
H810 C822 0.930 . S
H811 C824 0.930 . S
H812 C825 0.930 . S
H813 C829 0.959 . S
H814 C829 0.959 . S
H815 C829 0.961 . S
H816 C830 0.960 . S
H817 C830 0.961 . S
H818 C830 0.959 . S
H819 C833 0.929 . S
H820 C834 0.931 . S
H821 C836 0.930 . S
C822 H810 0.930 . S
C822 C823 1.399 . S
C822 C827 1.399 . S
C823 C822 1.399 . S
C823 C824 1.376 . S
C824 H811 0.930 . S
C824 C823 1.376 . S
C824 C825 1.388 . S
C825 H812 0.930 . S
C825 C824 1.388 . S
C825 C826 1.390 . S
C826 C825 1.390 . S
C826 C827 1.394 . S
C826 C832 1.465 . S
C827 C822 1.399 . S
C827 C826 1.394 . S
C827 C828 1.516 . S
C828 C827 1.516 . S
C828 C829 1.502 . S
C828 C830 1.561 . S
C828 C831 1.526 . S
C829 H813 0.959 . S
C829 H814 0.959 . S
C829 H815 0.961 . S
C829 C828 1.502 . S
C830 H816 0.960 . S
C830 H817 0.961 . S
C830 H818 0.959 . S
C830 C828 1.561 . S
C831 C828 1.526 . S
C831 C832 1.396 . S
C831 C836 1.390 . S
C832 C826 1.465 . S
C832 C831 1.396 . S
C832 C833 1.399 . S
C833 H819 0.929 . S
C833 C832 1.399 . S
C833 C834 1.385 . S
C834 H820 0.931 . S
C834 C833 1.385 . S
C834 C835 1.389 . S
C835 C834 1.389 . S
C835 C836 1.387 . S
C836 H821 0.930 . S
C836 C831 1.390 . S
C836 C835 1.387 . S
H837 C849 0.930 . S
H838 C851 0.930 . S
H839 C852 0.930 . S
H840 C856 0.959 . S
H841 C856 0.959 . S
H842 C856 0.961 . S
H843 C857 0.960 . S
H844 C857 0.961 . S
H845 C857 0.959 1_554 S
H846 C860 0.929 . S
H847 C861 0.931 . S
H848 C863 0.930 . S
C849 H837 0.930 . S
C849 C850 1.399 1_556 S
C849 C854 1.399 . S
C850 C849 1.399 1_554 S
C850 C851 1.376 . S
C851 H838 0.930 . S
C851 C850 1.376 . S
C851 C852 1.388 . S
C852 H839 0.930 . S
C852 C851 1.388 . S
C852 C853 1.390 . S
C853 C852 1.390 . S
C853 C854 1.394 1_554 S
C853 C859 1.465 . S
C854 C849 1.399 . S
C854 C853 1.394 1_556 S
C854 C855 1.516 . S
C855 C854 1.516 . S
C855 C856 1.502 . S
C855 C857 1.561 . S
C855 C858 1.526 . S
C856 H840 0.959 . S
C856 H841 0.959 . S
C856 H842 0.961 . S
C856 C855 1.502 . S
C857 H843 0.960 . S
C857 H844 0.961 . S
C857 H845 0.959 1_556 S
C857 C855 1.561 . S
C858 C855 1.526 . S
C858 C859 1.396 1_556 S
C858 C863 1.390 . S
C859 C853 1.465 . S
C859 C858 1.396 1_554 S
C859 C860 1.399 . S
C860 H846 0.929 . S
C860 C859 1.399 . S
C860 C861 1.385 . S
C861 H847 0.931 . S
C861 C860 1.385 . S
C861 C862 1.389 . S
C862 C861 1.389 . S
C862 C863 1.387 1_554 S
C863 H848 0.930 . S
C863 C858 1.390 . S
C863 C862 1.387 1_556 S
H864 C876 0.930 . S
H865 C878 0.930 . S
H866 C879 0.930 . S
H867 C883 0.959 . S
H868 C883 0.959 . S
H869 C883 0.961 . S
H870 C884 0.960 . S
H871 C884 0.961 . S
H872 C884 0.959 . S
H873 C887 0.929 . S
H874 C888 0.931 . S
H875 C890 0.930 . S
C876 H864 0.930 . S
C876 C877 1.399 . S
C876 C881 1.399 . S
C877 C876 1.399 . S
C877 C878 1.376 . S
C878 H865 0.930 . S
C878 C877 1.376 . S
C878 C879 1.388 . S
C879 H866 0.930 . S
C879 C878 1.388 . S
C879 C880 1.390 . S
C880 C879 1.390 . S
C880 C881 1.394 . S
C880 C886 1.465 . S
C881 C876 1.399 . S
C881 C880 1.394 . S
C881 C882 1.516 . S
C882 C881 1.516 . S
C882 C883 1.502 1_655 S
C882 C884 1.561 . S
C882 C885 1.526 . S
C883 H867 0.959 . S
C883 H868 0.959 . S
C883 H869 0.961 . S
C883 C882 1.502 1_455 S
C884 H870 0.960 . S
C884 H871 0.961 . S
C884 H872 0.959 . S
C884 C882 1.561 . S
C885 C882 1.526 . S
C885 C886 1.396 . S
C885 C890 1.390 1_655 S
C886 C880 1.465 . S
C886 C885 1.396 . S
C886 C887 1.399 . S
C887 H873 0.929 . S
C887 C886 1.399 . S
C887 C888 1.385 . S
C888 H874 0.931 . S
C888 C887 1.385 . S
C888 C889 1.389 . S
C889 C888 1.389 . S
C889 C890 1.387 1_655 S
C890 H875 0.930 . S
C890 C885 1.390 1_455 S
C890 C889 1.387 1_455 S
H891 C903 0.930 . S
H892 C905 0.930 . S
H893 C906 0.930 . S
H894 C910 0.959 . S
H895 C910 0.959 1_556 S
H896 C910 0.961 . S
H897 C911 0.960 1_556 S
H898 C911 0.961 1_556 S
H899 C911 0.959 . S
H900 C914 0.929 . S
H901 C915 0.931 . S
H902 C917 0.930 . S
C903 H891 0.930 . S
C903 C904 1.399 . S
C903 C908 1.399 . S
C904 C903 1.399 . S
C904 C905 1.376 . S
C905 H892 0.930 . S
C905 C904 1.376 . S
C905 C906 1.388 . S
C906 H893 0.930 . S
C906 C905 1.388 . S
C906 C907 1.390 . S
C907 C906 1.390 . S
C907 C908 1.394 . S
C907 C913 1.465 . S
C908 C903 1.399 . S
C908 C907 1.394 . S
C908 C909 1.516 . S
C909 C908 1.516 . S
C909 C910 1.502 . S
C909 C911 1.561 . S
C909 C912 1.526 . S
C910 H894 0.959 . S
C910 H895 0.959 1_554 S
C910 H896 0.961 . S
C910 C909 1.502 . S
C911 H897 0.960 1_554 S
C911 H898 0.961 1_554 S
C911 H899 0.959 . S
C911 C909 1.561 . S
C912 C909 1.526 . S
C912 C913 1.396 . S
C912 C917 1.390 . S
C913 C907 1.465 . S
C913 C912 1.396 . S
C913 C914 1.399 . S
C914 H900 0.929 . S
C914 C913 1.399 . S
C914 C915 1.385 . S
C915 H901 0.931 . S
C915 C914 1.385 . S
C915 C916 1.389 . S
C916 C915 1.389 . S
C916 C917 1.387 . S
C917 H902 0.930 . S
C917 C912 1.390 . S
C917 C916 1.387 . S
H918 C930 0.930 . S
H919 C932 0.930 . S
H920 C933 0.930 . S
H921 C937 0.959 . S
H922 C937 0.959 . S
H923 C937 0.961 . S
H924 C938 0.960 . S
H925 C938 0.961 . S
H926 C938 0.959 . S
H927 C941 0.929 . S
H928 C942 0.931 . S
H929 C944 0.930 . S
C930 H918 0.930 . S
C930 C931 1.399 . S
C930 C935 1.399 . S
C931 C930 1.399 . S
C931 C932 1.376 . S
C932 H919 0.930 . S
C932 C931 1.376 . S
C932 C933 1.388 . S
C933 H920 0.930 . S
C933 C932 1.388 . S
C933 C934 1.390 . S
C934 C933 1.390 . S
C934 C935 1.394 . S
C934 C940 1.465 . S
C935 C930 1.399 . S
C935 C934 1.394 . S
C935 C936 1.516 . S
C936 C935 1.516 . S
C936 C937 1.502 . S
C936 C938 1.561 . S
C936 C939 1.526 . S
C937 H921 0.959 . S
C937 H922 0.959 . S
C937 H923 0.961 . S
C937 C936 1.502 . S
C938 H924 0.960 . S
C938 H925 0.961 . S
C938 H926 0.959 . S
C938 C936 1.561 . S
C939 C936 1.526 . S
C939 C940 1.396 . S
C939 C944 1.390 . S
C940 C934 1.465 . S
C940 C939 1.396 . S
C940 C941 1.399 . S
C941 H927 0.929 . S
C941 C940 1.399 . S
C941 C942 1.385 . S
C942 H928 0.931 . S
C942 C941 1.385 . S
C942 C943 1.389 . S
C943 C942 1.389 . S
C943 C944 1.387 . S
C944 H929 0.930 . S
C944 C939 1.390 . S
C944 C943 1.387 . S
H945 C957 0.930 . S
H946 C959 0.930 . S
H947 C960 0.930 . S
H948 C964 0.959 . S
H949 C964 0.959 . S
H950 C964 0.961 . S
H951 C965 0.960 . S
H952 C965 0.961 . S
H953 C965 0.959 . S
H954 C968 0.929 . S
H955 C969 0.931 . S
H956 C971 0.930 . S
C957 H945 0.930 . S
C957 C958 1.399 . S
C957 C962 1.399 . S
C958 C957 1.399 . S
C958 C959 1.376 . S
C959 H946 0.930 . S
C959 C958 1.376 . S
C959 C960 1.388 . S
C960 H947 0.930 . S
C960 C959 1.388 . S
C960 C961 1.390 . S
C961 C960 1.390 . S
C961 C962 1.394 . S
C961 C967 1.465 . S
C962 C957 1.399 . S
C962 C961 1.394 . S
C962 C963 1.516 . S
C963 C962 1.516 . S
C963 C964 1.502 . S
C963 C965 1.561 . S
C963 C966 1.526 . S
C964 H948 0.959 . S
C964 H949 0.959 . S
C964 H950 0.961 . S
C964 C963 1.502 . S
C965 H951 0.960 . S
C965 H952 0.961 . S
C965 H953 0.959 . S
C965 C963 1.561 . S
C966 C963 1.526 . S
C966 C967 1.396 . S
C966 C971 1.390 . S
C967 C961 1.465 . S
C967 C966 1.396 . S
C967 C968 1.399 . S
C968 H954 0.929 . S
C968 C967 1.399 . S
C968 C969 1.385 . S
C969 H955 0.931 . S
C969 C968 1.385 . S
C969 C970 1.389 . S
C970 C969 1.389 . S
C970 C971 1.387 . S
C971 H956 0.930 . S
C971 C966 1.390 . S
C971 C970 1.387 . S
H972 C984 0.930 . S
H973 C986 0.930 . S
H974 C987 0.930 . S
H975 C991 0.959 . S
H976 C991 0.959 . S
H977 C991 0.961 . S
H978 C992 0.960 . S
H979 C992 0.961 . S
H980 C992 0.959 . S
H981 C995 0.929 . S
H982 C996 0.931 . S
H983 C998 0.930 . S
C984 H972 0.930 . S
C984 C985 1.399 . S
C984 C989 1.399 . S
C985 C984 1.399 . S
C985 C986 1.376 . S
C986 H973 0.930 . S
C986 C985 1.376 . S
C986 C987 1.388 . S
C987 H974 0.930 . S
C987 C986 1.388 . S
C987 C988 1.390 . S
C988 C987 1.390 . S
C988 C989 1.394 . S
C988 C994 1.465 . S
C989 C984 1.399 . S
C989 C988 1.394 . S
C989 C990 1.516 . S
C990 C989 1.516 . S
C990 C991 1.502 . S
C990 C992 1.561 . S
C990 C993 1.526 . S
C991 H975 0.959 . S
C991 H976 0.959 . S
C991 H977 0.961 . S
C991 C990 1.502 . S
C992 H978 0.960 . S
C992 H979 0.961 . S
C992 H980 0.959 . S
C992 C990 1.561 . S
C993 C990 1.526 . S
C993 C994 1.396 . S
C993 C998 1.390 . S
C994 C988 1.465 . S
C994 C993 1.396 . S
C994 C995 1.399 1_545 S
C995 H981 0.929 . S
C995 C994 1.399 1_565 S
C995 C996 1.385 . S
C996 H982 0.931 . S
C996 C995 1.385 . S
C996 C997 1.389 1_565 S
C997 C996 1.389 1_545 S
C997 C998 1.387 . S
C998 H983 0.930 . S
C998 C993 1.390 . S
C998 C997 1.387 . S
H999 C1011 0.930 . S
H1000 C1013 0.930 . S
H1001 C1014 0.930 . S
H1002 C1018 0.959 . S
H1003 C1018 0.959 1_556 S
H1004 C1018 0.961 1_556 S
H1005 C1019 0.960 . S
H1006 C1019 0.961 . S
H1007 C1019 0.959 . S
H1008 C1022 0.929 . S
H1009 C1023 0.931 . S
H1010 C1025 0.930 . S
C1011 H999 0.930 . S
C1011 C1012 1.399 . S
C1011 C1016 1.399 . S
C1012 C1011 1.399 . S
C1012 C1013 1.376 . S
C1013 H1000 0.930 . S
C1013 C1012 1.376 . S
C1013 C1014 1.388 . S
C1014 H1001 0.930 . S
C1014 C1013 1.388 . S
C1014 C1015 1.390 . S
C1015 C1014 1.390 . S
C1015 C1016 1.394 . S
C1015 C1021 1.465 . S
C1016 C1011 1.399 . S
C1016 C1015 1.394 . S
C1016 C1017 1.516 . S
C1017 C1016 1.516 . S
C1017 C1018 1.502 . S
C1017 C1019 1.561 . S
C1017 C1020 1.526 . S
C1018 H1002 0.959 . S
C1018 H1003 0.959 1_554 S
C1018 H1004 0.961 1_554 S
C1018 C1017 1.502 . S
C1019 H1005 0.960 . S
C1019 H1006 0.961 . S
C1019 H1007 0.959 . S
C1019 C1017 1.561 . S
C1020 C1017 1.526 . S
C1020 C1021 1.396 . S
C1020 C1025 1.390 . S
C1021 C1015 1.465 . S
C1021 C1020 1.396 . S
C1021 C1022 1.399 . S
C1022 H1008 0.929 . S
C1022 C1021 1.399 . S
C1022 C1023 1.385 . S
C1023 H1009 0.931 . S
C1023 C1022 1.385 . S
C1023 C1024 1.389 . S
C1024 C1023 1.389 . S
C1024 C1025 1.387 . S
C1025 H1010 0.930 . S
C1025 C1020 1.390 . S
C1025 C1024 1.387 . S
H1026 C1038 0.930 . S
H1027 C1040 0.930 . S
H1028 C1041 0.930 . S
H1029 C1045 0.959 . S
H1030 C1045 0.959 . S
H1031 C1045 0.952 1_565 S
H1032 C1046 0.962 . S
H1033 C1046 0.962 1_545 S
H1034 C1046 0.957 1_554 S
H1035 C1049 0.929 . S
H1036 C1050 0.931 . S
H1037 C1052 0.930 . S
C1038 H1026 0.930 . S
C1038 C1039 1.399 . S
C1038 C1043 1.399 . S
C1039 C1038 1.399 . S
C1039 C1040 1.376 . S
C1040 H1027 0.930 . S
C1040 C1039 1.376 . S
C1040 C1041 1.388 . S
C1041 H1028 0.930 . S
C1041 C1040 1.388 . S
C1041 C1042 1.390 . S
C1042 C1041 1.390 . S
C1042 C1043 1.394 . S
C1042 C1048 1.465 1_565 S
C1043 C1038 1.399 . S
C1043 C1042 1.394 . S
C1043 C1044 1.491 1_565 S
C1044 C1043 1.491 1_545 S
C1044 C1045 1.504 . S
C1044 C1046 1.565 1_544 S
C1044 C1047 1.545 . S
C1045 H1029 0.959 . S
C1045 H1030 0.959 . S
C1045 H1031 0.952 1_545 S
C1045 C1044 1.504 . S
C1046 H1032 0.962 . S
C1046 H1033 0.962 1_565 S
C1046 H1034 0.957 1_556 S
C1046 C1044 1.565 1_566 S
C1047 C1044 1.545 . S
C1047 C1048 1.396 . S
C1047 C1052 1.390 . S
C1048 C1042 1.465 1_545 S
C1048 C1047 1.396 . S
C1048 C1049 1.399 . S
C1049 H1035 0.929 . S
C1049 C1048 1.399 . S
C1049 C1050 1.385 . S
C1050 H1036 0.931 . S
C1050 C1049 1.385 . S
C1050 C1051 1.389 . S
C1051 C1050 1.389 . S
C1051 C1052 1.387 . S
C1052 H1037 0.930 . S
C1052 C1047 1.390 . S
C1052 C1051 1.387 . S
H1053 C1065 0.930 . S
H1054 C1067 0.930 1_655 S
H1055 C1068 0.930 . S
H1056 C1072 0.959 1_554 S
H1057 C1072 0.959 . S
H1058 C1072 0.961 . S
H1059 C1073 0.960 1_655 S
H1060 C1073 0.961 . S
H1061 C1073 0.959 . S
H1062 C1076 0.929 . S
H1063 C1077 0.931 . S
H1064 C1079 0.930 1_556 S
C1065 H1053 0.930 . S
C1065 C1066 1.399 . S
C1065 C1070 1.399 1_655 S
C1066 C1065 1.399 . S
C1066 C1067 1.376 1_655 S
C1067 H1054 0.930 1_455 S
C1067 C1066 1.376 1_455 S
C1067 C1068 1.388 . S
C1068 H1055 0.930 . S
C1068 C1067 1.388 . S
C1068 C1069 1.390 . S
C1069 C1068 1.390 . S
C1069 C1070 1.394 . S
C1069 C1075 1.465 . S
C1070 C1065 1.399 1_455 S
C1070 C1069 1.394 . S
C1070 C1071 1.516 . S
C1071 C1070 1.516 . S
C1071 C1072 1.502 1_554 S
C1071 C1073 1.561 1_554 S
C1071 C1074 1.526 . S
C1072 H1056 0.959 1_556 S
C1072 H1057 0.959 . S
C1072 H1058 0.961 . S
C1072 C1071 1.502 1_556 S
C1073 H1059 0.960 1_455 S
C1073 H1060 0.961 . S
C1073 H1061 0.959 . S
C1073 C1071 1.561 1_556 S
C1074 C1071 1.526 . S
C1074 C1075 1.396 . S
C1074 C1079 1.390 . S
C1075 C1069 1.465 . S
C1075 C1074 1.396 . S
C1075 C1076 1.399 . S
C1076 H1062 0.929 . S
C1076 C1075 1.399 . S
C1076 C1077 1.385 . S
C1077 H1063 0.931 . S
C1077 C1076 1.385 . S
C1077 C1078 1.389 . S
C1078 C1077 1.389 . S
C1078 C1079 1.387 . S
C1079 H1064 0.930 1_554 S
C1079 C1074 1.390 . S
C1079 C1078 1.387 . S
H1080 C1092 0.930 . S
H1081 C1094 0.930 . S
H1082 C1095 0.930 . S
H1083 C1099 0.959 . S
H1084 C1099 0.959 . S
H1085 C1099 0.961 . S
H1086 C1100 0.960 . S
H1087 C1100 0.961 . S
H1088 C1100 0.959 . S
H1089 C1103 0.929 . S
H1090 C1104 0.931 . S
H1091 C1106 0.930 1_556 S
C1092 H1080 0.930 . S
C1092 C1093 1.399 . S
C1092 C1097 1.399 . S
C1093 C1092 1.399 . S
C1093 C1094 1.376 1_556 S
C1094 H1081 0.930 . S
C1094 C1093 1.376 1_554 S
C1094 C1095 1.388 . S
C1095 H1082 0.930 . S
C1095 C1094 1.388 . S
C1095 C1096 1.390 . S
C1096 C1095 1.390 . S
C1096 C1097 1.394 1_554 S
C1096 C1102 1.465 . S
C1097 C1092 1.399 . S
C1097 C1096 1.394 1_556 S
C1097 C1098 1.516 . S
C1098 C1097 1.516 . S
C1098 C1099 1.502 . S
C1098 C1100 1.561 . S
C1098 C1101 1.526 1_556 S
C1099 H1083 0.959 . S
C1099 H1084 0.959 . S
C1099 H1085 0.961 . S
C1099 C1098 1.502 . S
C1100 H1086 0.960 . S
C1100 H1087 0.961 . S
C1100 H1088 0.959 . S
C1100 C1098 1.561 . S
C1101 C1098 1.526 1_554 S
C1101 C1102 1.396 . S
C1101 C1106 1.390 . S
C1102 C1096 1.465 . S
C1102 C1101 1.396 . S
C1102 C1103 1.399 . S
C1103 H1089 0.929 . S
C1103 C1102 1.399 . S
C1103 C1104 1.385 . S
C1104 H1090 0.931 . S
C1104 C1103 1.385 . S
C1104 C1105 1.389 . S
C1105 C1104 1.389 . S
C1105 C1106 1.387 . S
C1106 H1091 0.930 1_554 S
C1106 C1101 1.390 . S
C1106 C1105 1.387 . S
H1107 C1119 0.930 . S
H1108 C1121 0.930 . S
H1109 C1122 0.930 . S
H1110 C1126 0.959 . S
H1111 C1126 0.959 . S
H1112 C1126 0.961 . S
H1113 C1127 0.960 . S
H1114 C1127 0.961 . S
H1115 C1127 0.959 . S
H1116 C1130 0.929 . S
H1117 C1131 0.931 . S
H1118 C1133 0.930 1_554 S
C1119 H1107 0.930 . S
C1119 C1120 1.399 . S
C1119 C1124 1.399 . S
C1120 C1119 1.399 . S
C1120 C1121 1.376 1_554 S
C1121 H1108 0.930 . S
C1121 C1120 1.376 1_556 S
C1121 C1122 1.388 . S
C1122 H1109 0.930 . S
C1122 C1121 1.388 . S
C1122 C1123 1.390 . S
C1123 C1122 1.390 . S
C1123 C1124 1.394 1_556 S
C1123 C1129 1.465 . S
C1124 C1119 1.399 . S
C1124 C1123 1.394 1_554 S
C1124 C1125 1.516 . S
C1125 C1124 1.516 . S
C1125 C1126 1.502 . S
C1125 C1127 1.561 . S
C1125 C1128 1.526 1_554 S
C1126 H1110 0.959 . S
C1126 H1111 0.959 . S
C1126 H1112 0.961 . S
C1126 C1125 1.502 . S
C1127 H1113 0.960 . S
C1127 H1114 0.961 . S
C1127 H1115 0.959 . S
C1127 C1125 1.561 . S
C1128 C1125 1.526 1_556 S
C1128 C1129 1.396 . S
C1128 C1133 1.390 . S
C1129 C1123 1.465 . S
C1129 C1128 1.396 . S
C1129 C1130 1.399 . S
C1130 H1116 0.929 . S
C1130 C1129 1.399 . S
C1130 C1131 1.385 . S
C1131 H1117 0.931 . S
C1131 C1130 1.385 . S
C1131 C1132 1.389 . S
C1132 C1131 1.389 . S
C1132 C1133 1.387 . S
C1133 H1118 0.930 1_556 S
C1133 C1128 1.390 . S
C1133 C1132 1.387 . S
H1134 C1146 0.930 . S
H1135 C1148 0.930 . S
H1136 C1149 0.930 . S
H1137 C1153 0.959 . S
H1138 C1153 0.959 . S
H1139 C1153 0.961 . S
H1140 C1154 0.960 . S
H1141 C1154 0.961 . S
H1142 C1154 0.959 . S
H1143 C1157 0.929 1_554 S
H1144 C1158 0.931 . S
H1145 C1160 0.930 . S
C1146 H1134 0.930 . S
C1146 C1147 1.399 . S
C1146 C1151 1.399 . S
C1147 C1146 1.399 . S
C1147 C1148 1.376 1_556 S
C1148 H1135 0.930 . S
C1148 C1147 1.376 1_554 S
C1148 C1149 1.388 . S
C1149 H1136 0.930 . S
C1149 C1148 1.388 . S
C1149 C1150 1.390 1_554 S
C1150 C1149 1.390 1_556 S
C1150 C1151 1.394 . S
C1150 C1156 1.465 . S
C1151 C1146 1.399 . S
C1151 C1150 1.394 . S
C1151 C1152 1.516 . S
C1152 C1151 1.516 . S
C1152 C1153 1.502 . S
C1152 C1154 1.561 . S
C1152 C1155 1.526 . S
C1153 H1137 0.959 . S
C1153 H1138 0.959 . S
C1153 H1139 0.961 . S
C1153 C1152 1.502 . S
C1154 H1140 0.960 . S
C1154 H1141 0.961 . S
C1154 H1142 0.959 . S
C1154 C1152 1.561 . S
C1155 C1152 1.526 . S
C1155 C1156 1.396 . S
C1155 C1160 1.390 . S
C1156 C1150 1.465 . S
C1156 C1155 1.396 . S
C1156 C1157 1.399 . S
C1157 H1143 0.929 1_556 S
C1157 C1156 1.399 . S
C1157 C1158 1.385 . S
C1158 H1144 0.931 . S
C1158 C1157 1.385 . S
C1158 C1159 1.389 . S
C1159 C1158 1.389 . S
C1159 C1160 1.387 . S
C1160 H1145 0.930 . S
C1160 C1155 1.390 . S
C1160 C1159 1.387 . S
H1161 C1173 0.930 . S
H1162 C1175 0.930 . S
H1163 C1176 0.930 . S
H1164 C1180 0.959 . S
H1165 C1180 0.959 . S
H1166 C1180 0.961 . S
H1167 C1181 0.960 . S
H1168 C1181 0.961 . S
H1169 C1181 0.959 . S
H1170 C1184 0.929 . S
H1171 C1185 0.931 1_554 S
H1172 C1187 0.930 . S
C1173 H1161 0.930 . S
C1173 C1174 1.399 1_556 S
C1173 C1178 1.399 . S
C1174 C1173 1.399 1_554 S
C1174 C1175 1.376 . S
C1175 H1162 0.930 . S
C1175 C1174 1.376 . S
C1175 C1176 1.388 . S
C1176 H1163 0.930 . S
C1176 C1175 1.388 . S
C1176 C1177 1.390 . S
C1177 C1176 1.390 . S
C1177 C1178 1.394 1_554 S
C1177 C1183 1.465 . S
C1178 C1173 1.399 . S
C1178 C1177 1.394 1_556 S
C1178 C1179 1.516 . S
C1179 C1178 1.516 . S
C1179 C1180 1.502 . S
C1179 C1181 1.561 . S
C1179 C1182 1.526 . S
C1180 H1164 0.959 . S
C1180 H1165 0.959 . S
C1180 H1166 0.961 . S
C1180 C1179 1.502 . S
C1181 H1167 0.960 . S
C1181 H1168 0.961 . S
C1181 H1169 0.959 . S
C1181 C1179 1.561 . S
C1182 C1179 1.526 . S
C1182 C1183 1.396 1_556 S
C1182 C1187 1.390 . S
C1183 C1177 1.465 . S
C1183 C1182 1.396 1_554 S
C1183 C1184 1.399 . S
C1184 H1170 0.929 . S
C1184 C1183 1.399 . S
C1184 C1185 1.385 1_554 S
C1185 H1171 0.931 1_556 S
C1185 C1184 1.385 1_556 S
C1185 C1186 1.389 . S
C1186 C1185 1.389 . S
C1186 C1187 1.387 . S
C1187 H1172 0.930 . S
C1187 C1182 1.390 . S
C1187 C1186 1.387 . S
H1188 C1200 0.930 . S
H1189 C1202 0.930 1_554 S
H1190 C1203 0.930 . S
H1191 C1207 0.959 . S
H1192 C1207 0.959 . S
H1193 C1207 0.961 . S
H1194 C1208 0.960 . S
H1195 C1208 0.961 . S
H1196 C1208 0.959 . S
H1197 C1211 0.929 . S
H1198 C1212 0.931 . S
H1199 C1214 0.930 . S
C1200 H1188 0.930 . S
C1200 C1201 1.399 . S
C1200 C1205 1.399 . S
C1201 C1200 1.399 . S
C1201 C1202 1.376 . S
C1202 H1189 0.930 1_556 S
C1202 C1201 1.376 . S
C1202 C1203 1.388 1_556 S
C1203 H1190 0.930 . S
C1203 C1202 1.388 1_554 S
C1203 C1204 1.390 1_554 S
C1204 C1203 1.390 1_556 S
C1204 C1205 1.394 . S
C1204 C1210 1.465 . S
C1205 C1200 1.399 . S
C1205 C1204 1.394 . S
C1205 C1206 1.516 . S
C1206 C1205 1.516 . S
C1206 C1207 1.502 . S
C1206 C1208 1.561 . S
C1206 C1209 1.526 . S
C1207 H1191 0.959 . S
C1207 H1192 0.959 . S
C1207 H1193 0.961 . S
C1207 C1206 1.502 . S
C1208 H1194 0.960 . S
C1208 H1195 0.961 . S
C1208 H1196 0.959 . S
C1208 C1206 1.561 . S
C1209 C1206 1.526 . S
C1209 C1210 1.396 . S
C1209 C1214 1.390 . S
C1210 C1204 1.465 . S
C1210 C1209 1.396 . S
C1210 C1211 1.399 1_556 S
C1211 H1197 0.929 . S
C1211 C1210 1.399 1_554 S
C1211 C1212 1.385 . S
C1212 H1198 0.931 . S
C1212 C1211 1.385 . S
C1212 C1213 1.389 1_554 S
C1213 C1212 1.389 1_556 S
C1213 C1214 1.387 . S
C1214 H1199 0.930 . S
C1214 C1209 1.390 . S
C1214 C1213 1.387 . S
H1215 C1227 0.930 1_554 S
H1216 C1229 0.930 . S
H1217 C1230 0.930 . S
H1218 C1234 0.960 . S
H1219 C1234 0.959 . S
H1220 C1234 0.961 . S
H1221 C1235 0.960 . S
H1222 C1235 0.961 . S
H1223 C1235 0.959 . S
H1224 C1238 0.929 . S
H1225 C1239 0.931 . S
H1226 C1241 0.930 . S
C1227 H1215 0.930 1_556 S
C1227 C1228 1.399 . S
C1227 C1232 1.399 . S
C1228 C1227 1.399 . S
C1228 C1229 1.376 . S
C1229 H1216 0.930 . S
C1229 C1228 1.376 . S
C1229 C1230 1.388 . S
C1230 H1217 0.930 . S
C1230 C1229 1.388 . S
C1230 C1231 1.390 . S
C1231 C1230 1.390 . S
C1231 C1232 1.394 . S
C1231 C1237 1.465 . S
C1232 C1227 1.399 . S
C1232 C1231 1.394 . S
C1232 C1233 1.516 1_556 S
C1233 C1232 1.516 1_554 S
C1233 C1234 1.502 . S
C1233 C1235 1.561 . S
C1233 C1236 1.526 . S
C1234 H1218 0.960 . S
C1234 H1219 0.959 . S
C1234 H1220 0.961 . S
C1234 C1233 1.502 . S
C1235 H1221 0.960 . S
C1235 H1222 0.961 . S
C1235 H1223 0.959 . S
C1235 C1233 1.561 . S
C1236 C1233 1.526 . S
C1236 C1237 1.397 1_554 S
C1236 C1241 1.389 . S
C1237 C1231 1.465 . S
C1237 C1236 1.397 1_556 S
C1237 C1238 1.399 . S
C1238 H1224 0.929 . S
C1238 C1237 1.399 . S
C1238 C1239 1.385 . S
C1239 H1225 0.931 . S
C1239 C1238 1.385 . S
C1239 C1240 1.389 . S
C1240 C1239 1.389 . S
C1240 C1241 1.387 1_556 S
C1241 H1226 0.930 . S
C1241 C1236 1.389 . S
C1241 C1240 1.387 1_554 S
H1242 C1254 0.930 . S
H1243 C1256 0.930 . S
H1244 C1257 0.930 . S
H1245 C1261 0.959 . S
H1246 C1261 0.959 . S
H1247 C1261 0.961 . S
H1248 C1262 0.960 . S
H1249 C1262 0.961 . S
H1250 C1262 0.959 . S
H1251 C1265 0.929 . S
H1252 C1266 0.931 . S
H1253 C1268 0.930 . S
C1254 H1242 0.930 . S
C1254 C1255 1.399 . S
C1254 C1259 1.399 . S
C1255 C1254 1.399 . S
C1255 C1256 1.376 . S
C1256 H1243 0.930 . S
C1256 C1255 1.376 . S
C1256 C1257 1.388 . S
C1257 H1244 0.930 . S
C1257 C1256 1.388 . S
C1257 C1258 1.390 . S
C1258 C1257 1.390 . S
C1258 C1259 1.394 . S
C1258 C1264 1.465 . S
C1259 C1254 1.399 . S
C1259 C1258 1.394 . S
C1259 C1260 1.516 . S
C1260 C1259 1.516 . S
C1260 C1261 1.502 . S
C1260 C1262 1.561 . S
C1260 C1263 1.526 . S
C1261 H1245 0.959 . S
C1261 H1246 0.959 . S
C1261 H1247 0.961 . S
C1261 C1260 1.502 . S
C1262 H1248 0.960 . S
C1262 H1249 0.961 . S
C1262 H1250 0.959 . S
C1262 C1260 1.561 . S
C1263 C1260 1.526 . S
C1263 C1264 1.396 . S
C1263 C1268 1.390 . S
C1264 C1258 1.465 . S
C1264 C1263 1.396 . S
C1264 C1265 1.399 . S
C1265 H1251 0.929 . S
C1265 C1264 1.399 . S
C1265 C1266 1.385 . S
C1266 H1252 0.931 . S
C1266 C1265 1.385 . S
C1266 C1267 1.389 . S
C1267 C1266 1.389 . S
C1267 C1268 1.387 . S
C1268 H1253 0.930 . S
C1268 C1263 1.390 . S
C1268 C1267 1.387 . S
H1269 C1281 0.930 . S
H1270 C1283 0.930 . S
H1271 C1284 0.930 . S
H1272 C1288 0.959 . S
H1273 C1288 0.959 . S
H1274 C1288 0.961 . S
H1275 C1289 0.960 . S
H1276 C1289 0.961 . S
H1277 C1289 0.959 . S
H1278 C1292 0.929 . S
H1279 C1293 0.931 . S
H1280 C1295 0.930 . S
C1281 H1269 0.930 . S
C1281 C1282 1.399 . S
C1281 C1286 1.399 . S
C1282 C1281 1.399 . S
C1282 C1283 1.376 . S
C1283 H1270 0.930 . S
C1283 C1282 1.376 . S
C1283 C1284 1.388 . S
C1284 H1271 0.930 . S
C1284 C1283 1.388 . S
C1284 C1285 1.390 . S
C1285 C1284 1.390 . S
C1285 C1286 1.394 . S
C1285 C1291 1.465 . S
C1286 C1281 1.399 . S
C1286 C1285 1.394 . S
C1286 C1287 1.516 . S
C1287 C1286 1.516 . S
C1287 C1288 1.502 . S
C1287 C1289 1.561 . S
C1287 C1290 1.526 . S
C1288 H1272 0.959 . S
C1288 H1273 0.959 . S
C1288 H1274 0.961 . S
C1288 C1287 1.502 . S
C1289 H1275 0.960 . S
C1289 H1276 0.961 . S
C1289 H1277 0.959 . S
C1289 C1287 1.561 . S
C1290 C1287 1.526 . S
C1290 C1291 1.396 . S
C1290 C1295 1.390 . S
C1291 C1285 1.465 . S
C1291 C1290 1.396 . S
C1291 C1292 1.399 . S
C1292 H1278 0.929 . S
C1292 C1291 1.399 . S
C1292 C1293 1.385 . S
C1293 H1279 0.931 . S
C1293 C1292 1.385 . S
C1293 C1294 1.389 . S
C1294 C1293 1.389 . S
C1294 C1295 1.387 . S
C1295 H1280 0.930 . S
C1295 C1290 1.390 . S
C1295 C1294 1.387 . S
H1296 C1308 0.930 . S
H1297 C1310 0.930 . S
H1298 C1311 0.930 . S
H1299 C1315 0.959 . S
H1300 C1315 0.959 . S
H1301 C1315 0.961 . S
H1302 C1316 0.960 . S
H1303 C1316 0.961 . S
H1304 C1316 0.959 . S
H1305 C1319 0.929 . S
H1306 C1320 0.931 . S
H1307 C1322 0.930 . S
C1308 H1296 0.930 . S
C1308 C1309 1.369 1_545 S
C1308 C1313 1.399 . S
C1309 C1308 1.369 1_565 S
C1309 C1310 1.403 . S
C1310 H1297 0.930 . S
C1310 C1309 1.403 . S
C1310 C1311 1.388 . S
C1311 H1298 0.930 . S
C1311 C1310 1.388 . S
C1311 C1312 1.435 . S
C1312 C1311 1.435 . S
C1312 C1313 1.354 1_565 S
C1312 C1318 1.452 1_565 S
C1313 C1308 1.399 . S
C1313 C1312 1.354 1_545 S
C1313 C1314 1.516 . S
C1314 C1313 1.516 . S
C1314 C1315 1.502 . S
C1314 C1316 1.561 . S
C1314 C1317 1.526 . S
C1315 H1299 0.959 . S
C1315 H1300 0.959 . S
C1315 H1301 0.961 . S
C1315 C1314 1.502 . S
C1316 H1302 0.960 . S
C1316 H1303 0.961 . S
C1316 H1304 0.959 . S
C1316 C1314 1.561 . S
C1317 C1314 1.526 . S
C1317 C1318 1.396 . S
C1317 C1322 1.390 . S
C1318 C1312 1.452 1_545 S
C1318 C1317 1.396 . S
C1318 C1319 1.399 1_545 S
C1319 H1305 0.929 . S
C1319 C1318 1.399 1_565 S
C1319 C1320 1.385 . S
C1320 H1306 0.931 . S
C1320 C1319 1.385 . S
C1320 C1321 1.389 1_565 S
C1321 C1320 1.389 1_545 S
C1321 C1322 1.387 . S
C1322 H1307 0.930 . S
C1322 C1317 1.390 . S
C1322 C1321 1.387 . S
H1323 C1335 0.930 . S
H1324 C1337 0.930 . S
H1325 C1338 0.930 . S
H1326 C1342 0.959 . S
H1327 C1342 0.959 . S
H1328 C1342 0.961 . S
H1329 C1343 0.960 . S
H1330 C1343 0.961 . S
H1331 C1343 0.959 . S
H1332 C1346 0.929 . S
H1333 C1347 0.931 . S
H1334 C1349 0.930 . S
C1335 H1323 0.930 . S
C1335 C1336 1.399 . S
C1335 C1340 1.399 . S
C1336 C1335 1.399 . S
C1336 C1337 1.376 . S
C1337 H1324 0.930 . S
C1337 C1336 1.376 . S
C1337 C1338 1.388 . S
C1338 H1325 0.930 . S
C1338 C1337 1.388 . S
C1338 C1339 1.390 . S
C1339 C1338 1.390 . S
C1339 C1340 1.394 . S
C1339 C1345 1.465 . S
C1340 C1335 1.399 . S
C1340 C1339 1.394 . S
C1340 C1341 1.516 . S
C1341 C1340 1.516 . S
C1341 C1342 1.502 . S
C1341 C1343 1.561 . S
C1341 C1344 1.526 . S
C1342 H1326 0.959 . S
C1342 H1327 0.959 . S
C1342 H1328 0.961 . S
C1342 C1341 1.502 . S
C1343 H1329 0.960 . S
C1343 H1330 0.961 . S
C1343 H1331 0.959 . S
C1343 C1341 1.561 . S
C1344 C1341 1.526 . S
C1344 C1345 1.396 . S
C1344 C1349 1.390 . S
C1345 C1339 1.465 . S
C1345 C1344 1.396 . S
C1345 C1346 1.399 . S
C1346 H1332 0.929 . S
C1346 C1345 1.399 . S
C1346 C1347 1.385 . S
C1347 H1333 0.931 . S
C1347 C1346 1.385 . S
C1347 C1348 1.389 . S
C1348 C1347 1.389 . S
C1348 C1349 1.387 . S
C1349 H1334 0.930 . S
C1349 C1344 1.390 . S
C1349 C1348 1.387 . S
H1350 C1362 0.930 . S
H1351 C1364 0.930 . S
H1352 C1365 0.930 . S
H1353 C1369 0.959 . S
H1354 C1369 0.959 . S
H1355 C1369 0.961 . S
H1356 C1370 0.960 . S
H1357 C1370 0.961 . S
H1358 C1370 0.959 . S
H1359 C1373 0.929 . S
H1360 C1374 0.931 . S
H1361 C1376 0.930 . S
C1362 H1350 0.930 . S
C1362 C1363 1.399 . S
C1362 C1367 1.399 . S
C1363 C1362 1.399 . S
C1363 C1364 1.376 . S
C1364 H1351 0.930 . S
C1364 C1363 1.376 . S
C1364 C1365 1.388 . S
C1365 H1352 0.930 . S
C1365 C1364 1.388 . S
C1365 C1366 1.390 . S
C1366 C1365 1.390 . S
C1366 C1367 1.394 . S
C1366 C1372 1.465 . S
C1367 C1362 1.399 . S
C1367 C1366 1.394 . S
C1367 C1368 1.516 . S
C1368 C1367 1.516 . S
C1368 C1369 1.502 . S
C1368 C1370 1.561 . S
C1368 C1371 1.526 . S
C1369 H1353 0.959 . S
C1369 H1354 0.959 . S
C1369 H1355 0.961 . S
C1369 C1368 1.502 . S
C1370 H1356 0.960 . S
C1370 H1357 0.961 . S
C1370 H1358 0.959 . S
C1370 C1368 1.561 . S
C1371 C1368 1.526 . S
C1371 C1372 1.396 . S
C1371 C1376 1.390 . S
C1372 C1366 1.465 . S
C1372 C1371 1.396 . S
C1372 C1373 1.399 . S
C1373 H1359 0.929 . S
C1373 C1372 1.399 . S
C1373 C1374 1.385 . S
C1374 H1360 0.931 . S
C1374 C1373 1.385 . S
C1374 C1375 1.389 . S
C1375 C1374 1.389 . S
C1375 C1376 1.387 . S
C1376 H1361 0.930 . S
C1376 C1371 1.390 . S
C1376 C1375 1.387 . S
H1377 C1389 0.930 . S
H1378 C1391 0.930 . S
H1379 C1392 0.930 . S
H1380 C1396 0.959 . S
H1381 C1396 0.959 . S
H1382 C1396 0.961 . S
H1383 C1397 0.960 . S
H1384 C1397 0.961 . S
H1385 C1397 0.959 . S
H1386 C1400 0.929 . S
H1387 C1401 0.931 . S
H1388 C1403 0.930 . S
C1389 H1377 0.930 . S
C1389 C1390 1.399 . S
C1389 C1394 1.399 . S
C1390 C1389 1.399 . S
C1390 C1391 1.376 . S
C1391 H1378 0.930 . S
C1391 C1390 1.376 . S
C1391 C1392 1.388 . S
C1392 H1379 0.930 . S
C1392 C1391 1.388 . S
C1392 C1393 1.390 . S
C1393 C1392 1.390 . S
C1393 C1394 1.394 . S
C1393 C1399 1.465 . S
C1394 C1389 1.399 . S
C1394 C1393 1.394 . S
C1394 C1395 1.516 . S
C1395 C1394 1.516 . S
C1395 C1396 1.502 . S
C1395 C1397 1.561 . S
C1395 C1398 1.526 . S
C1396 H1380 0.959 . S
C1396 H1381 0.959 . S
C1396 H1382 0.961 . S
C1396 C1395 1.502 . S
C1397 H1383 0.960 . S
C1397 H1384 0.961 . S
C1397 H1385 0.959 . S
C1397 C1395 1.561 . S
C1398 C1395 1.526 . S
C1398 C1399 1.396 . S
C1398 C1403 1.390 . S
C1399 C1393 1.465 . S
C1399 C1398 1.396 . S
C1399 C1400 1.399 . S
C1400 H1386 0.929 . S
C1400 C1399 1.399 . S
C1400 C1401 1.385 . S
C1401 H1387 0.931 . S
C1401 C1400 1.385 . S
C1401 C1402 1.389 . S
C1402 C1401 1.389 . S
C1402 C1403 1.387 . S
C1403 H1388 0.930 . S
C1403 C1398 1.390 . S
C1403 C1402 1.387 . S
H1404 C1416 0.930 . S
H1405 C1418 0.930 . S
H1406 C1419 0.930 . S
H1407 C1423 0.959 . S
H1408 C1423 0.959 . S
H1409 C1423 0.961 . S
H1410 C1424 0.960 . S
H1411 C1424 0.961 . S
H1412 C1424 0.959 . S
H1413 C1427 0.929 . S
H1414 C1428 0.931 . S
H1415 C1430 0.930 . S
C1416 H1404 0.930 . S
C1416 C1417 1.399 . S
C1416 C1421 1.399 . S
C1417 C1416 1.399 . S
C1417 C1418 1.376 . S
C1418 H1405 0.930 . S
C1418 C1417 1.376 . S
C1418 C1419 1.388 . S
C1419 H1406 0.930 . S
C1419 C1418 1.388 . S
C1419 C1420 1.390 . S
C1420 C1419 1.390 . S
C1420 C1421 1.394 . S
C1420 C1426 1.465 . S
C1421 C1416 1.399 . S
C1421 C1420 1.394 . S
C1421 C1422 1.516 . S
C1422 C1421 1.516 . S
C1422 C1423 1.502 . S
C1422 C1424 1.561 . S
C1422 C1425 1.526 . S
C1423 H1407 0.959 . S
C1423 H1408 0.959 . S
C1423 H1409 0.961 . S
C1423 C1422 1.502 . S
C1424 H1410 0.960 . S
C1424 H1411 0.961 . S
C1424 H1412 0.959 . S
C1424 C1422 1.561 . S
C1425 C1422 1.526 . S
C1425 C1426 1.396 . S
C1425 C1430 1.390 . S
C1426 C1420 1.465 . S
C1426 C1425 1.396 . S
C1426 C1427 1.399 . S
C1427 H1413 0.929 . S
C1427 C1426 1.399 . S
C1427 C1428 1.385 . S
C1428 H1414 0.931 . S
C1428 C1427 1.385 . S
C1428 C1429 1.389 . S
C1429 C1428 1.389 . S
C1429 C1430 1.387 . S
C1430 H1415 0.930 . S
C1430 C1425 1.390 . S
C1430 C1429 1.387 . S
H1431 C1443 0.930 . S
H1432 C1445 0.930 . S
H1433 C1446 0.930 . S
H1434 C1450 0.959 . S
H1435 C1450 0.959 . S
H1436 C1450 0.961 . S
H1437 C1451 0.960 . S
H1438 C1451 0.961 . S
H1439 C1451 0.959 . S
H1440 C1454 0.929 . S
H1441 C1455 0.931 . S
H1442 C1457 0.930 . S
C1443 H1431 0.930 . S
C1443 C1444 1.399 . S
C1443 C1448 1.399 . S
C1444 C1443 1.399 . S
C1444 C1445 1.376 . S
C1445 H1432 0.930 . S
C1445 C1444 1.376 . S
C1445 C1446 1.388 . S
C1446 H1433 0.930 . S
C1446 C1445 1.388 . S
C1446 C1447 1.390 . S
C1447 C1446 1.390 . S
C1447 C1448 1.394 . S
C1447 C1453 1.465 . S
C1448 C1443 1.399 . S
C1448 C1447 1.394 . S
C1448 C1449 1.516 . S
C1449 C1448 1.516 . S
C1449 C1450 1.502 . S
C1449 C1451 1.561 . S
C1449 C1452 1.526 . S
C1450 H1434 0.959 . S
C1450 H1435 0.959 . S
C1450 H1436 0.961 . S
C1450 C1449 1.502 . S
C1451 H1437 0.960 . S
C1451 H1438 0.961 . S
C1451 H1439 0.959 . S
C1451 C1449 1.561 . S
C1452 C1449 1.526 . S
C1452 C1453 1.396 . S
C1452 C1457 1.390 . S
C1453 C1447 1.465 . S
C1453 C1452 1.396 . S
C1453 C1454 1.399 . S
C1454 H1440 0.929 . S
C1454 C1453 1.399 . S
C1454 C1455 1.385 . S
C1455 H1441 0.931 . S
C1455 C1454 1.385 . S
C1455 C1456 1.389 . S
C1456 C1455 1.389 . S
C1456 C1457 1.387 . S
C1457 H1442 0.930 . S
C1457 C1452 1.390 . S
C1457 C1456 1.387 . S
H1458 C1470 0.930 . S
H1459 C1472 0.930 . S
H1460 C1473 0.930 . S
H1461 C1477 0.959 . S
H1462 C1477 0.959 . S
H1463 C1477 0.961 . S
H1464 C1478 0.960 . S
H1465 C1478 0.961 . S
H1466 C1478 0.959 . S
H1467 C1481 0.929 . S
H1468 C1482 0.931 . S
H1469 C1484 0.930 . S
C1470 H1458 0.930 . S
C1470 C1471 1.399 . S
C1470 C1475 1.399 . S
C1471 C1470 1.399 . S
C1471 C1472 1.376 . S
C1472 H1459 0.930 . S
C1472 C1471 1.376 . S
C1472 C1473 1.388 . S
C1473 H1460 0.930 . S
C1473 C1472 1.388 . S
C1473 C1474 1.390 . S
C1474 C1473 1.390 . S
C1474 C1475 1.394 . S
C1474 C1480 1.465 . S
C1475 C1470 1.399 . S
C1475 C1474 1.394 . S
C1475 C1476 1.516 . S
C1476 C1475 1.516 . S
C1476 C1477 1.502 . S
C1476 C1478 1.561 . S
C1476 C1479 1.526 . S
C1477 H1461 0.959 . S
C1477 H1462 0.959 . S
C1477 H1463 0.961 . S
C1477 C1476 1.502 . S
C1478 H1464 0.960 . S
C1478 H1465 0.961 . S
C1478 H1466 0.959 . S
C1478 C1476 1.561 . S
C1479 C1476 1.526 . S
C1479 C1480 1.396 . S
C1479 C1484 1.390 . S
C1480 C1474 1.465 . S
C1480 C1479 1.396 . S
C1480 C1481 1.399 . S
C1481 H1467 0.929 . S
C1481 C1480 1.399 . S
C1481 C1482 1.385 . S
C1482 H1468 0.931 . S
C1482 C1481 1.385 . S
C1482 C1483 1.389 . S
C1483 C1482 1.389 . S
C1483 C1484 1.387 . S
C1484 H1469 0.930 . S
C1484 C1479 1.390 . S
C1484 C1483 1.387 . S
C769 C72 1.271 . S
C781 C660 1.341 1_554 S
C796 C151 2.161 . S
C808 C739 2.081 . S
C823 C240 1.321 . S
C835 C571 1.426 . S
C850 C403 2.267 1_554 S
C862 C235 2.314 . S
C877 C487 2.237 . S
C889 C67 2.207 1_655 S
C904 C156 2.022 . S
C916 C319 2.174 . S
C931 C655 1.595 . S
C943 C492 1.491 . S
C958 C744 1.534 . S
C970 C324 1.658 . S
C985 C408 2.237 . S
C997 C576 2.336 1_545 S
C1012 C231 1.459 . S
C1024 C56 1.672 . S
C1039 C147 1.007 . S
C1051 C63 1.306 . S
C1066 C140 2.906 . S
C1078 C224 3.068 . S
C1093 C315 1.605 1_556 S
C1105 C476 2.113 . S
C1120 C308 2.092 . S
C1132 C399 1.811 . S
C1147 C392 2.014 1_556 S
C1159 C483 1.532 . S
C1174 C735 1.830 . S
C1186 C560 2.326 . S
C1201 C651 0.629 . S
C1213 C567 0.895 . S
C1228 C728 2.029 . S
C1240 C644 1.917 . S
C1255 C66 1.224 1_556 S
C1267 C75 1.330 . S
C1282 C159 1.215 1_556 S
C1294 C150 1.295 . S
C1309 C234 1.333 . S
C1321 C243 1.264 . S
C1336 C318 1.309 . S
C1348 C327 1.409 . S
C1363 C402 1.274 . S
C1375 C411 1.206 . S
C1390 C486 1.323 . S
C1402 C495 1.342 . S
C1417 C570 1.237 . S
C1429 C579 1.332 1_554 S
C1444 C654 1.246 . S
C1456 C663 1.258 . S
C1471 C738 1.288 . S
C1483 C747 1.246 . S
