# Generated by pormake.
# Topology wfa, (4)-cn, num edge types: 1
# Building blocks:
#     Node 0, Type 0, BuildingBlock: ICAMEG_clean_sbu_1, # of connection points: 4
#     Node 1, Type 0, BuildingBlock: ICAMEG_clean_sbu_1, # of connection points: 4
#     Node 2, Type 0, BuildingBlock: ICAMEG_clean_sbu_1, # of connection points: 4
#     Node 3, Type 0, BuildingBlock: ICAMEG_clean_sbu_1, # of connection points: 4
#     Node 4, Type 0, BuildingBlock: ICAMEG_clean_sbu_1, # of connection points: 4
#     Node 5, Type 0, BuildingBlock: ICAMEG_clean_sbu_1, # of connection points: 4
#     Node 6, Type 0, BuildingBlock: ICAMEG_clean_sbu_1, # of connection points: 4
#     Node 7, Type 0, BuildingBlock: ICAMEG_clean_sbu_1, # of connection points: 4
#     Node 8, Type 0, BuildingBlock: ICAMEG_clean_sbu_1, # of connection points: 4
#     Node 9, Type 0, BuildingBlock: ICAMEG_clean_sbu_1, # of connection points: 4
#     Node 10, Type 0, BuildingBlock: ICAMEG_clean_sbu_1, # of connection points: 4
#     Node 11, Type 0, BuildingBlock: ICAMEG_clean_sbu_1, # of connection points: 4
#     Node 12, Type 0, BuildingBlock: ICAMEG_clean_sbu_1, # of connection points: 4
#     Node 13, Type 0, BuildingBlock: ICAMEG_clean_sbu_1, # of connection points: 4
#     Node 14, Type 0, BuildingBlock: ICAMEG_clean_sbu_1, # of connection points: 4
#     Node 15, Type 0, BuildingBlock: ICAMEG_clean_sbu_1, # of connection points: 4
#     Edge 16, Type (0, 0), BuildingBlock: UVAHIK_clean_linker_0, # of connection points: 2
#     Edge 17, Type (0, 0), BuildingBlock: UVAHIK_clean_linker_0, # of connection points: 2
#     Edge 18, Type (0, 0), BuildingBlock: UVAHIK_clean_linker_0, # of connection points: 2
#     Edge 19, Type (0, 0), BuildingBlock: UVAHIK_clean_linker_0, # of connection points: 2
#     Edge 20, Type (0, 0), BuildingBlock: UVAHIK_clean_linker_0, # of connection points: 2
#     Edge 21, Type (0, 0), BuildingBlock: UVAHIK_clean_linker_0, # of connection points: 2
#     Edge 22, Type (0, 0), BuildingBlock: UVAHIK_clean_linker_0, # of connection points: 2
#     Edge 23, Type (0, 0), BuildingBlock: UVAHIK_clean_linker_0, # of connection points: 2
#     Edge 24, Type (0, 0), BuildingBlock: UVAHIK_clean_linker_0, # of connection points: 2
#     Edge 25, Type (0, 0), BuildingBlock: UVAHIK_clean_linker_0, # of connection points: 2
#     Edge 26, Type (0, 0), BuildingBlock: UVAHIK_clean_linker_0, # of connection points: 2
#     Edge 27, Type (0, 0), BuildingBlock: UVAHIK_clean_linker_0, # of connection points: 2
#     Edge 28, Type (0, 0), BuildingBlock: UVAHIK_clean_linker_0, # of connection points: 2
#     Edge 29, Type (0, 0), BuildingBlock: UVAHIK_clean_linker_0, # of connection points: 2
#     Edge 30, Type (0, 0), BuildingBlock: UVAHIK_clean_linker_0, # of connection points: 2
#     Edge 31, Type (0, 0), BuildingBlock: UVAHIK_clean_linker_0, # of connection points: 2
#     Edge 32, Type (0, 0), BuildingBlock: UVAHIK_clean_linker_0, # of connection points: 2
#     Edge 33, Type (0, 0), BuildingBlock: UVAHIK_clean_linker_0, # of connection points: 2
#     Edge 34, Type (0, 0), BuildingBlock: UVAHIK_clean_linker_0, # of connection points: 2
#     Edge 35, Type (0, 0), BuildingBlock: UVAHIK_clean_linker_0, # of connection points: 2
#     Edge 36, Type (0, 0), BuildingBlock: UVAHIK_clean_linker_0, # of connection points: 2
#     Edge 37, Type (0, 0), BuildingBlock: UVAHIK_clean_linker_0, # of connection points: 2
#     Edge 38, Type (0, 0), BuildingBlock: UVAHIK_clean_linker_0, # of connection points: 2
#     Edge 39, Type (0, 0), BuildingBlock: UVAHIK_clean_linker_0, # of connection points: 2
#     Edge 40, Type (0, 0), BuildingBlock: UVAHIK_clean_linker_0, # of connection points: 2
#     Edge 41, Type (0, 0), BuildingBlock: UVAHIK_clean_linker_0, # of connection points: 2
#     Edge 42, Type (0, 0), BuildingBlock: UVAHIK_clean_linker_0, # of connection points: 2
#     Edge 43, Type (0, 0), BuildingBlock: UVAHIK_clean_linker_0, # of connection points: 2
#     Edge 44, Type (0, 0), BuildingBlock: UVAHIK_clean_linker_0, # of connection points: 2
#     Edge 45, Type (0, 0), BuildingBlock: UVAHIK_clean_linker_0, # of connection points: 2
#     Edge 46, Type (0, 0), BuildingBlock: UVAHIK_clean_linker_0, # of connection points: 2
#     Edge 47, Type (0, 0), BuildingBlock: UVAHIK_clean_linker_0, # of connection points: 2
# Relax obj value: 0.088
# Max RMSD: 0.208
# Mean RMSD: 0.183
data_MOF--net-wfa--node1-ICAMEG_clean_sbu_1--edge1-UVAHIK_clean_linker_0
_symmetry_space_group_name_H-M    P1
_symmetry_Int_Tables_number       1
_symmetry_cell_setting            triclinic
loop_
_symmetry_equiv_pos_as_xyz
'x, y, z'
_cell_length_a     61.152906
_cell_length_b     61.119536
_cell_length_c     33.82057
_cell_angle_alpha  89.095973
_cell_angle_beta   89.104648
_cell_angle_gamma 88.994662
loop_
_atom_site_label
_atom_site_type_symbol
_atom_site_fract_x
_atom_site_fract_y
_atom_site_fract_z
_atom_type_partial_charge
Co0 Co 0.65507 0.99508 0.07395 0.0
Co1 Co 0.65303 0.04123 0.01346 0.0
O2 O 0.66745 0.01469 0.03368 0.0
C3 C 0.69598 0.00992 0.10738 0.0
O4 O 0.69006 0.02934 0.09391 0.0
C5 C 0.66241 0.01463 0.94306 0.0
O6 O 0.65514 0.99766 0.96325 0.0
O7 O 0.62533 0.02557 0.00601 0.0
O8 O 0.62578 0.99679 0.04831 0.0
H9 H 0.59187 0.09684 0.00193 0.0
H10 H 0.69583 0.98191 0.03149 0.0
O11 O 0.68403 0.99348 0.10115 0.0
H12 H 0.64234 0.92533 0.0012 0.0
H13 H 0.65657 0.92954 0.16591 0.0
H14 H 0.61342 0.99371 0.12005 0.0
H15 H 0.63214 0.95594 0.04488 0.0
H16 H 0.67138 0.9545 0.11448 0.0
O17 O 0.66262 0.03345 0.95867 0.0
H18 H 0.61033 0.06361 0.02826 0.0
H19 H 0.66531 0.07498 0.95293 0.0
H20 H 0.59789 0.96908 0.17127 0.0
H21 H 0.70678 0.95151 0.98784 0.0
H22 H 0.61953 0.93673 0.19453 0.0
H23 H 0.6799 0.92299 0.97236 0.0
O24 O 0.64636 0.02002 0.10808 0.0
H25 H 0.73433 0.05113 0.00297 0.0
H26 H 0.66451 0.0832 0.0512 0.0
H27 H 0.69891 0.10242 0.06275 0.0
H28 H 0.73414 0.08638 0.03854 0.0
H29 H 0.69958 0.03235 0.9924 0.0
H30 H 0.64739 0.10825 0.92554 0.0
H31 H 0.61044 0.11941 0.95019 0.0
O32 O 0.64297 0.04946 0.06773 0.0
C33 C 0.61632 0.00912 0.02268 0.0
C34 C 0.60802 0.0922 0.99109 0.0
C35 C 0.63916 0.09859 0.94817 0.0
N36 N 0.63897 0.06753 0.9925 0.0
C37 C 0.61858 0.07345 0.00599 0.0
C38 C 0.64922 0.07973 0.96376 0.0
C39 C 0.61843 0.10485 0.96202 0.0
C40 C 0.68413 0.96943 0.02518 0.0
N41 N 0.66343 0.97061 0.04086 0.0
C42 C 0.69039 0.95232 0.00033 0.0
C43 C 0.67529 0.93634 0.99161 0.0
C44 C 0.6542 0.93765 0.00775 0.0
C45 C 0.64851 0.95503 0.03241 0.0
C46 C 0.64696 0.94355 0.15595 0.0
C47 C 0.62286 0.97957 0.12982 0.0
C48 C 0.65528 0.95775 0.12689 0.0
N49 N 0.64318 0.97541 0.11403 0.0
C50 C 0.61402 0.96573 0.15892 0.0
C51 C 0.62617 0.94759 0.17199 0.0
C52 C 0.64152 0.04012 0.10164 0.0
C53 C 0.71907 0.05832 0.01356 0.0
C54 C 0.67978 0.0761 0.04062 0.0
C55 C 0.6992 0.08708 0.04719 0.0
C56 C 0.71896 0.07808 0.03357 0.0
N57 N 0.68003 0.05673 0.02096 0.0
C58 C 0.69934 0.04781 0.00748 0.0
Co59 Co 0.52284 0.65338 0.059 0.0
Co60 Co 0.4786 0.6532 0.99656 0.0
O61 O 0.50428 0.66677 0.01853 0.0
C62 C 0.507 0.69441 0.09361 0.0
O63 O 0.48786 0.68917 0.07994 0.0
C64 C 0.50694 0.66312 0.92748 0.0
O65 O 0.52331 0.65479 0.94771 0.0
O66 O 0.49494 0.6253 0.98807 0.0
O67 O 0.52194 0.6244 0.0325 0.0
H68 H 0.42445 0.5933 0.9795 0.0
H69 H 0.53697 0.69413 0.0182 0.0
O70 O 0.52361 0.68204 0.08706 0.0
H71 H 0.59452 0.63909 0.98809 0.0
H72 H 0.58585 0.65194 0.15302 0.0
H73 H 0.52312 0.61128 0.10388 0.0
H74 H 0.56283 0.62948 0.03051 0.0
H75 H 0.56224 0.66803 0.10129 0.0
O76 O 0.48772 0.66369 0.94256 0.0
H77 H 0.45658 0.61066 0.00807 0.0
H78 H 0.44633 0.66719 0.93564 0.0
H79 H 0.54641 0.59449 0.15538 0.0
H80 H 0.56846 0.70449 0.97584 0.0
H81 H 0.57804 0.61487 0.18029 0.0
H82 H 0.59748 0.67684 0.96046 0.0
O83 O 0.49699 0.6451 0.09199 0.0
H84 H 0.46748 0.73483 0.99059 0.0
H85 H 0.43542 0.66473 0.03357 0.0
H86 H 0.41525 0.69925 0.0465 0.0
H87 H 0.43128 0.73462 0.02492 0.0
H88 H 0.48719 0.69995 0.9786 0.0
H89 H 0.41418 0.65038 0.90605 0.0
H90 H 0.403 0.61321 0.9281 0.0
O91 O 0.46906 0.64226 0.04998 0.0
C92 C 0.51073 0.61559 0.00568 0.0
C93 C 0.42909 0.60955 0.96978 0.0
C94 C 0.42335 0.64157 0.92851 0.0
N95 N 0.45316 0.64001 0.97387 0.0
C96 C 0.44722 0.61949 0.98595 0.0
C97 C 0.44158 0.65099 0.94533 0.0
C98 C 0.41708 0.62072 0.9409 0.0
C99 C 0.54965 0.68208 0.01194 0.0
N100 N 0.54814 0.66127 0.02695 0.0
C101 C 0.56739 0.68801 0.98781 0.0
C102 C 0.58365 0.67248 0.97914 0.0
C103 C 0.58199 0.65129 0.99461 0.0
C104 C 0.56399 0.64593 0.01855 0.0
C105 C 0.57215 0.64288 0.14234 0.0
C106 C 0.53694 0.62018 0.11438 0.0
C107 C 0.55871 0.65192 0.1131 0.0
N108 N 0.54145 0.64051 0.09933 0.0
C109 C 0.55003 0.61062 0.14363 0.0
C110 C 0.56776 0.62207 0.15762 0.0
C111 C 0.47729 0.64038 0.08434 0.0
C112 C 0.46029 0.71952 3e-05 0.0
C113 C 0.44252 0.68006 0.02415 0.0
C114 C 0.431 0.69955 0.03148 0.0
C115 C 0.44 0.71939 0.01935 0.0
N116 N 0.46241 0.68033 0.00516 0.0
C117 C 0.47133 0.69971 0.99314 0.0
Co118 Co 0.84323 0.51819 0.06658 0.0
Co119 Co 0.83943 0.47275 0.008 0.0
O120 O 0.82844 0.50066 0.02792 0.0
C121 C 0.80036 0.50961 0.10248 0.0
O122 O 0.80386 0.48936 0.09137 0.0
C123 C 0.83273 0.49973 0.93587 0.0
O124 O 0.84527 0.51451 0.95118 0.0
O125 O 0.86873 0.48514 0.99656 0.0
O126 O 0.8722 0.51209 0.04047 0.0
H127 H 0.89364 0.41058 0.99288 0.0
H128 H 0.80523 0.53704 0.0238 0.0
O129 O 0.81447 0.52414 0.09415 0.0
H130 H 0.86691 0.58503 0.98951 0.0
H131 H 0.85062 0.5832 0.1546 0.0
H132 H 0.88432 0.51345 0.11166 0.0
H133 H 0.87203 0.55341 0.03486 0.0
H134 H 0.83269 0.56069 0.10503 0.0
O135 O 0.82927 0.48174 0.95422 0.0
H136 H 0.87961 0.44559 0.01927 0.0
H137 H 0.82225 0.44086 0.95096 0.0
H138 H 0.90291 0.53553 0.16103 0.0
H139 H 0.79933 0.56857 0.9785 0.0
H140 H 0.88604 0.57068 0.18281 0.0
H141 H 0.83033 0.59279 0.96104 0.0
O142 O 0.8479 0.49229 0.1019 0.0
H143 H 0.75724 0.47194 0.00803 0.0
H144 H 0.82417 0.43233 0.04968 0.0
H145 H 0.7881 0.41701 0.06652 0.0
H146 H 0.75431 0.43685 0.04562 0.0
H147 H 0.79362 0.4868 0.99219 0.0
H148 H 0.83572 0.40586 0.92359 0.0
H149 H 0.87162 0.39046 0.94469 0.0
O150 O 0.84965 0.46336 0.06156 0.0
C151 C 0.87999 0.49947 0.01378 0.0
C152 C 0.87793 0.41707 0.9836 0.0
C153 C 0.84543 0.41444 0.94466 0.0
N154 N 0.85003 0.44512 0.98701 0.0
C155 C 0.86986 0.43685 0.99855 0.0
C156 C 0.8379 0.43427 0.96021 0.0
C157 C 0.86558 0.40581 0.95652 0.0
C158 C 0.81874 0.54763 0.01659 0.0
N159 N 0.8389 0.54349 0.03212 0.0
C160 C 0.81533 0.5654 0.99082 0.0
C161 C 0.83274 0.57897 0.98099 0.0
C162 C 0.85327 0.57462 0.99694 0.0
C163 C 0.85608 0.55667 0.02255 0.0
C164 C 0.85816 0.56794 0.14528 0.0
C165 C 0.87696 0.5288 0.12079 0.0
C166 C 0.84806 0.55511 0.11728 0.0
N167 N 0.85756 0.53589 0.10522 0.0
C168 C 0.88752 0.5412 0.14885 0.0
C169 C 0.87803 0.56091 0.16109 0.0
C170 C 0.85134 0.47201 0.09544 0.0
C171 C 0.77184 0.46311 0.01719 0.0
C172 C 0.80954 0.44108 0.04055 0.0
C173 C 0.78916 0.4323 0.0501 0.0
C174 C 0.77021 0.44343 0.03834 0.0
N175 N 0.81101 0.46038 0.01978 0.0
C176 C 0.7925 0.47138 0.00812 0.0
Co177 Co 0.98537 0.84618 0.06189 0.0
Co178 Co 0.03334 0.84482 0.00631 0.0
O179 O 0.00596 0.83217 0.0252 0.0
C180 C 0.99835 0.80513 0.10157 0.0
O181 O 0.01836 0.80997 0.09041 0.0
C182 C 0.00853 0.83586 0.93431 0.0
O183 O 0.99133 0.84458 0.95208 0.0
O184 O 0.01875 0.87353 0.99502 0.0
O185 O 0.98834 0.87481 0.03328 0.0
H186 H 0.09114 0.90216 0.99618 0.0
H187 H 0.97304 0.80527 0.02262 0.0
O188 O 0.98246 0.8178 0.09199 0.0
H189 H 0.91837 0.86075 0.98034 0.0
H190 H 0.91714 0.84933 0.14692 0.0
H191 H 0.98309 0.88874 0.10293 0.0
H192 H 0.94759 0.87032 0.02615 0.0
H193 H 0.94343 0.83245 0.09993 0.0
O194 O 0.02691 0.83501 0.95156 0.0
H195 H 0.05671 0.886 0.02064 0.0
H196 H 0.06822 0.83012 0.94968 0.0
H197 H 0.95715 0.9063 0.14968 0.0
H198 H 0.94402 0.79495 0.97695 0.0
H199 H 0.92389 0.88656 0.17199 0.0
H200 H 0.91646 0.82282 0.95544 0.0
O201 O 0.0093 0.85455 0.09756 0.0
H202 H 0.04111 0.76284 0.00434 0.0
H203 H 0.07389 0.83122 0.04867 0.0
H204 H 0.09176 0.79582 0.06512 0.0
H205 H 0.07536 0.76131 0.04288 0.0
H206 H 0.02367 0.79858 0.98886 0.0
H207 H 0.1027 0.84574 0.92422 0.0
H208 H 0.11439 0.88198 0.94761 0.0
O209 O 0.04018 0.85487 0.06057 0.0
C210 C 0.00184 0.88349 0.00879 0.0
C211 C 0.08625 0.88632 0.98586 0.0
C212 C 0.09273 0.85467 0.94543 0.0
N213 N 0.06056 0.85707 0.98683 0.0
C214 C 0.06681 0.87706 -0.00031 0.0
C215 C 0.07317 0.84593 0.95988 0.0
C216 C 0.09928 0.875 0.95858 0.0
C217 C 0.96097 0.81742 0.0137 0.0
N218 N 0.96192 0.83832 0.02719 0.0
C219 C 0.94463 0.81151 0.98771 0.0
C220 C 0.9292 0.82716 0.9756 0.0
C221 C 0.93027 0.84845 0.98954 0.0
C222 C 0.94686 0.85378 0.01542 0.0
C223 C 0.93154 0.85812 0.13735 0.0
C224 C 0.96857 0.88011 0.11229 0.0
C225 C 0.9465 0.84863 0.11081 0.0
N226 N 0.96466 0.85969 0.09845 0.0
C227 C 0.95398 0.89011 0.13886 0.0
C228 C 0.93534 0.87901 0.15139 0.0
C229 C 0.02973 0.85792 0.09303 0.0
C230 C 0.04845 0.77777 0.0141 0.0
C231 C 0.06664 0.81627 0.03895 0.0
C232 C 0.07685 0.79628 0.04828 0.0
C233 C 0.06765 0.77692 0.03577 0.0
N234 N 0.04781 0.81697 0.01766 0.0
C235 C 0.0387 0.79806 0.00526 0.0
Co236 Co 0.15331 0.00946 0.43619 0.0
Co237 Co 0.1532 0.96184 0.49293 0.0
O238 O 0.16671 0.98863 0.47325 0.0
C239 C 0.19338 0.99403 0.3965 0.0
O240 O 0.18778 0.97455 0.40945 0.0
C241 C 0.16291 0.98703 0.56408 0.0
O242 O 0.15488 0.00438 0.54568 0.0
O243 O 0.12504 0.97749 0.50373 0.0
O244 O 0.12488 0.0081 0.46584 0.0
H245 H 0.09394 0.9061 0.50494 0.0
H246 H 0.19518 0.02027 0.4737 0.0
O247 O 0.18148 0.01068 0.40504 0.0
H248 H 0.14274 0.0779 0.51558 0.0
H249 H 0.15248 0.07686 0.34875 0.0
H250 H 0.11045 0.01331 0.39648 0.0
H251 H 0.13133 0.04868 0.47121 0.0
H252 H 0.16861 0.05029 0.39614 0.0
O253 O 0.16318 0.96847 0.54744 0.0
H254 H 0.11123 0.93974 0.47939 0.0
H255 H 0.16675 0.92701 0.55063 0.0
H256 H 0.09362 0.03956 0.34937 0.0
H257 H 0.20732 0.04924 0.51791 0.0
H258 H 0.11469 0.07161 0.32519 0.0
H259 H 0.18098 0.07829 0.53922 0.0
O260 O 0.14345 0.9856 0.40165 0.0
H261 H 0.23487 0.95141 0.49533 0.0
H262 H 0.16545 0.92049 0.45185 0.0
H263 H 0.20025 0.90133 0.43598 0.0
H264 H 0.23528 0.9168 0.45779 0.0
H265 H 0.19971 0.97013 0.51024 0.0
H266 H 0.14998 0.89331 0.57718 0.0
H267 H 0.11335 0.88263 0.5542 0.0
O268 O 0.1429 0.95483 0.43893 0.0
C269 C 0.11576 0.99489 0.49036 0.0
C270 C 0.10994 0.91054 0.51508 0.0
C271 C 0.14138 0.90338 0.55567 0.0
N272 N 0.14004 0.93523 0.51327 0.0
C273 C 0.11984 0.92954 0.50063 0.0
C274 C 0.15077 0.9225 0.54059 0.0
C275 C 0.12083 0.89739 0.54275 0.0
C276 C 0.1837 0.03298 0.48254 0.0
N277 N 0.16262 0.03287 0.46972 0.0
C278 C 0.19063 0.04929 0.5077 0.0
C279 C 0.17583 0.06556 0.5197 0.0
C280 C 0.15437 0.06535 0.50646 0.0
C281 C 0.148 0.04875 0.4814 0.0
C282 C 0.14312 0.06299 0.35915 0.0
C283 C 0.11966 0.0273 0.38631 0.0
C284 C 0.15218 0.04788 0.38592 0.0
N285 N 0.1404 0.03039 0.39932 0.0
C286 C 0.11007 0.04207 0.35953 0.0
C287 C 0.12191 0.06004 0.34594 0.0
C288 C 0.13969 0.96526 0.40651 0.0
C289 C 0.21971 0.94447 0.48577 0.0
C290 C 0.18063 0.92733 0.46139 0.0
C291 C 0.20028 0.91639 0.45239 0.0
C292 C 0.21993 0.92507 0.46465 0.0
N293 N 0.18055 0.94635 0.48212 0.0
C294 C 0.19974 0.95495 0.49429 0.0
Co295 Co 0.48135 0.15681 0.44449 0.0
Co296 Co 0.52483 0.15513 0.50879 0.0
O297 O 0.49875 0.1691 0.48642 0.0
C298 C 0.49618 0.1987 0.4117 0.0
O299 O 0.51511 0.19337 0.4272 0.0
C300 C 0.49524 0.1625 0.57732 0.0
O301 O 0.47925 0.15517 0.55603 0.0
O302 O 0.50985 0.12671 0.51481 0.0
O303 O 0.48303 0.12709 0.47004 0.0
H304 H 0.58178 0.0955 0.52458 0.0
H305 H 0.46501 0.1964 0.48569 0.0
O306 O 0.47991 0.18619 0.4171 0.0
H307 H 0.40925 0.1404 0.5114 0.0
H308 H 0.41981 0.15775 0.34735 0.0
H309 H 0.48341 0.11598 0.39815 0.0
H310 H 0.44195 0.132 0.47034 0.0
H311 H 0.442 0.17247 0.40079 0.0
O312 O 0.51457 0.16348 0.56293 0.0
H313 H 0.54917 0.11341 0.49565 0.0
H314 H 0.5556 0.16737 0.57195 0.0
H315 H 0.46157 0.10056 0.34493 0.0
H316 H 0.4325 0.20555 0.52673 0.0
H317 H 0.42951 0.1215 0.31918 0.0
H318 H 0.40438 0.17741 0.53989 0.0
O319 O 0.50795 0.14952 0.41247 0.0
H320 H 0.53164 0.23659 0.52041 0.0
H321 H 0.56786 0.16866 0.47456 0.0
H322 H 0.5864 0.20389 0.46481 0.0
H323 H 0.56828 0.23817 0.48785 0.0
H324 H 0.51358 0.20103 0.52921 0.0
H325 H 0.58819 0.14998 0.60193 0.0
H326 H 0.60154 0.11382 0.57813 0.0
O327 O 0.53562 0.14634 0.45529 0.0
C328 C 0.49458 0.11745 0.49643 0.0
C329 C 0.57619 0.1113 0.53509 0.0
C330 C 0.57977 0.14186 0.57854 0.0
N331 N 0.55064 0.14152 0.53179 0.0
C332 C 0.55778 0.12156 0.51872 0.0
C333 C 0.56129 0.15162 0.56149 0.0
C334 C 0.58725 0.12158 0.56516 0.0
C335 C 0.45273 0.18415 0.491 0.0
N336 N 0.45529 0.16375 0.4755 0.0
C337 C 0.4344 0.18939 0.51438 0.0
C338 C 0.41865 0.17358 0.5218 0.0
C339 C 0.42138 0.1528 0.50585 0.0
C340 C 0.43994 0.14813 0.48269 0.0
C341 C 0.4337 0.14844 0.35839 0.0
C342 C 0.46939 0.12511 0.3873 0.0
C343 C 0.44634 0.15671 0.3886 0.0
N344 N 0.46384 0.14499 0.40283 0.0
C345 C 0.45713 0.11633 0.35707 0.0
C346 C 0.43915 0.1281 0.34261 0.0
C347 C 0.52785 0.14516 0.42064 0.0
C348 C 0.53973 0.22175 0.51035 0.0
C349 C 0.55985 0.18351 0.4846 0.0
C350 C 0.57045 0.20341 0.47907 0.0
C351 C 0.56028 0.22264 0.49203 0.0
N352 N 0.5397 0.18278 0.50263 0.0
C353 C 0.52963 0.20156 0.51543 0.0
Co354 Co 0.34785 0.48299 0.42358 0.0
Co355 Co 0.3466 0.52818 0.48379 0.0
O356 O 0.33353 0.50215 0.46212 0.0
C357 C 0.30743 0.49785 0.38569 0.0
O358 O 0.31243 0.51736 0.39802 0.0
C359 C 0.33435 0.50133 0.55373 0.0
O360 O 0.34291 0.48434 0.53551 0.0
O361 O 0.37402 0.51178 0.49586 0.0
O362 O 0.37624 0.48458 0.45189 0.0
H363 H 0.40629 0.58227 0.50312 0.0
H364 H 0.30648 0.46918 0.46254 0.0
O365 O 0.3198 0.48146 0.3939 0.0
H366 H 0.36125 0.41257 0.49923 0.0
H367 H 0.35164 0.41833 0.33326 0.0
H368 H 0.39079 0.48229 0.38148 0.0
H369 H 0.37145 0.44367 0.45579 0.0
H370 H 0.33437 0.44272 0.38258 0.0
O371 O 0.33453 0.5202 0.53724 0.0
H372 H 0.38953 0.5497 0.47493 0.0
H373 H 0.33115 0.56174 0.54133 0.0
H374 H 0.40874 0.45823 0.33241 0.0
H375 H 0.29552 0.43828 0.50585 0.0
H376 H 0.38913 0.42598 0.30798 0.0
H377 H 0.32304 0.40974 0.52454 0.0
O378 O 0.35661 0.50837 0.38968 0.0
H379 H 0.26508 0.53988 0.4814 0.0
H380 H 0.33647 0.57077 0.44322 0.0
H381 H 0.30256 0.5909 0.42587 0.0
H382 H 0.26654 0.57545 0.44501 0.0
H383 H 0.29939 0.52019 0.49783 0.0
H384 H 0.34734 0.59435 0.5705 0.0
H385 H 0.38515 0.60485 0.55128 0.0
O386 O 0.35907 0.53667 0.43095 0.0
C387 C 0.38425 0.49595 0.47933 0.0
C388 C 0.38977 0.57792 0.5116 0.0
C389 C 0.35669 0.58468 0.54945 0.0
N390 N 0.35931 0.55398 0.50613 0.0
C391 C 0.38016 0.55955 0.49562 0.0
C392 C 0.34763 0.56619 0.53288 0.0
C393 C 0.37791 0.59056 0.53865 0.0
C394 C 0.31848 0.4567 0.47024 0.0
N395 N 0.33954 0.45816 0.45651 0.0
C396 C 0.31221 0.4393 0.4949 0.0
C397 C 0.32766 0.42331 0.50543 0.0
C398 C 0.34911 0.4249 0.49126 0.0
C399 C 0.3548 0.44256 0.46674 0.0
C400 C 0.36037 0.4323 0.34375 0.0
C401 C 0.38221 0.4682 0.37119 0.0
C402 C 0.35066 0.44618 0.37162 0.0
N403 N 0.36165 0.46378 0.38515 0.0
C404 C 0.39243 0.45468 0.34331 0.0
C405 C 0.38141 0.4366 0.32958 0.0
C406 C 0.36147 0.52809 0.39698 0.0
C407 C 0.28068 0.54681 0.47301 0.0
C408 C 0.32085 0.56392 0.4516 0.0
C409 C 0.30171 0.57542 0.44176 0.0
C410 C 0.28151 0.56675 0.45253 0.0
N411 N 0.3199 0.54438 0.4717 0.0
C412 C 0.30016 0.53579 0.48241 0.0
Co413 Co 0.0058 0.34513 0.42933 0.0
Co414 Co 0.96223 0.34395 0.49565 0.0
O415 O 0.9886 0.33122 0.47147 0.0
C416 C 0.99283 0.30343 0.39562 0.0
O417 O 0.97324 0.30795 0.41004 0.0
C418 C 0.99192 0.33546 0.56218 0.0
O419 O 0.00748 0.34421 0.5403 0.0
O420 O 0.97658 0.37252 0.50239 0.0
O421 O 0.00304 0.37417 0.45558 0.0
H422 H 0.90398 0.40178 0.51688 0.0
H423 H 0.02325 0.30516 0.4693 0.0
O424 O 0.0085 0.3164 0.40154 0.0
H425 H 0.07694 0.36248 0.49383 0.0
H426 H 0.0678 0.34863 0.32989 0.0
H427 H 0.00259 0.38698 0.38397 0.0
H428 H 0.04423 0.37067 0.45409 0.0
H429 H 0.04586 0.33186 0.38383 0.0
O430 O 0.97262 0.3341 0.5489 0.0
H431 H 0.93704 0.38554 0.48564 0.0
H432 H 0.93164 0.32905 0.55963 0.0
H433 H 0.02415 0.40442 0.33029 0.0
H434 H 0.05581 0.29621 0.509 0.0
H435 H 0.05702 0.38521 0.30289 0.0
H436 H 0.08289 0.32501 0.52158 0.0
O437 O 0.9791 0.35226 0.39856 0.0
H438 H 0.95712 0.26203 0.50348 0.0
H439 H 0.91959 0.33063 0.46277 0.0
H440 H 0.9018 0.29533 0.45213 0.0
H441 H 0.92059 0.26071 0.47259 0.0
H442 H 0.9744 0.29767 0.51324 0.0
H443 H 0.89861 0.34474 0.59191 0.0
H444 H 0.88453 0.38133 0.57043 0.0
O445 O 0.95142 0.35424 0.44304 0.0
C446 C 0.99148 0.38272 0.48326 0.0
C447 C 0.9099 0.38578 0.52638 0.0
C448 C 0.9069 0.35378 0.56852 0.0
N449 N 0.9361 0.35627 0.52048 0.0
C450 C 0.92856 0.37647 0.50869 0.0
C451 C 0.92562 0.34499 0.55018 0.0
C452 C 0.89901 0.37431 0.55645 0.0
C453 C 0.03508 0.31771 0.47433 0.0
N454 N 0.03192 0.33837 0.45924 0.0
C455 C 0.05343 0.31258 0.49696 0.0
C456 C 0.0686 0.32875 0.50406 0.0
C457 C 0.06527 0.34978 0.48852 0.0
C458 C 0.0467 0.35434 0.4661 0.0
C459 C 0.05354 0.35718 0.34165 0.0
C460 C 0.01696 0.37859 0.37239 0.0
C461 C 0.04104 0.34776 0.37214 0.0
N462 N 0.02309 0.35853 0.38726 0.0
C463 C 0.02906 0.38851 0.34191 0.0
C464 C 0.04749 0.37771 0.32652 0.0
C465 C 0.95916 0.35625 0.40795 0.0
C466 C 0.94874 0.277 0.49455 0.0
C467 C 0.92788 0.31563 0.47169 0.0
C468 C 0.91771 0.2957 0.46566 0.0
C469 C 0.92826 0.27628 0.47717 0.0
N470 N 0.94796 0.3162 0.48881 0.0
C471 C 0.9584 0.29724 0.50017 0.0
Co472 Co 0.34564 0.00917 0.92904 0.0
Co473 Co 0.34817 0.96339 0.99032 0.0
O474 O 0.33318 0.98925 0.96868 0.0
C475 C 0.30611 0.9927 0.89292 0.0
O476 O 0.3126 0.97349 0.90656 0.0
C477 C 0.33606 0.98982 0.0597 0.0
O478 O 0.34328 0.00698 0.04001 0.0
O479 O 0.37494 0.98024 -0.00025 0.0
O480 O 0.3744 0.00861 0.95658 0.0
H481 H 0.4112 0.9104 0.00737 0.0
H482 H 0.30362 0.021 0.9687 0.0
O483 O 0.31722 0.00961 0.89999 0.0
H484 H 0.35428 0.07963 0.00182 0.0
H485 H 0.3436 0.07436 0.83628 0.0
H486 H 0.38807 0.01192 0.88564 0.0
H487 H 0.36647 0.04925 0.95914 0.0
H488 H 0.32869 0.04901 0.88699 0.0
O489 O 0.33691 0.97096 0.04422 0.0
H490 H 0.39205 0.94275 0.97917 0.0
H491 H 0.33586 0.92933 0.05026 0.0
H492 H 0.40369 0.03696 0.83519 0.0
H493 H 0.2907 0.05114 0.01129 0.0
H494 H 0.3814 0.06845 0.81017 0.0
H495 H 0.31615 0.08069 0.02818 0.0
O496 O 0.35596 0.98442 0.8958 0.0
H497 H 0.2673 0.95012 0.99441 0.0
H498 H 0.33946 0.92081 0.9522 0.0
H499 H 0.30628 0.90011 0.93812 0.0
H500 H 0.26988 0.91475 0.9593 0.0
H501 H 0.30088 0.97039 0.00755 0.0
H502 H 0.35446 0.89693 0.07948 0.0
H503 H 0.39237 0.88723 0.05791 0.0
O504 O 0.3599 0.9554 0.93697 0.0
C505 C 0.38371 0.99687 0.98322 0.0
C506 C 0.39464 0.9144 0.01688 0.0
C507 C 0.36281 0.90685 0.05738 0.0
N508 N 0.36278 0.93776 0.01271 0.0
C509 C 0.38369 0.93264 0.0009 0.0
C510 C 0.35237 0.92523 0.04077 0.0
C511 C 0.38408 0.90142 0.04527 0.0
C512 C 0.31471 0.03392 0.97562 0.0
N513 N 0.33572 0.03345 0.9613 0.0
C514 C 0.30734 0.05089 -0.00013 0.0
C515 C 0.32163 0.06745 0.00939 0.0
C516 C 0.34304 0.06686 0.99463 0.0
C517 C 0.34986 0.0496 0.97054 0.0
C518 C 0.35349 0.06073 0.84702 0.0
C519 C 0.37833 0.02568 0.8751 0.0
C520 C 0.34513 0.04631 0.87567 0.0
N521 N 0.35758 0.02914 0.88952 0.0
C522 C 0.38723 0.03976 0.84644 0.0
C523 C 0.3747 0.05741 0.83239 0.0
C524 C 0.36162 0.9646 0.90298 0.0
C525 C 0.28307 0.94353 0.98514 0.0
C526 C 0.32367 0.9273 0.96146 0.0
C527 C 0.30495 0.91549 0.95347 0.0
C528 C 0.28453 0.92371 0.96539 0.0
N529 N 0.32211 0.94673 0.98086 0.0
C530 C 0.30215 0.95489 0.99268 0.0
Co531 Co 0.49076 0.3452 0.9337 0.0
Co532 Co 0.53634 0.34156 0.9926 0.0
O533 O 0.50896 0.33025 0.97296 0.0
C534 C 0.50049 0.30229 0.89944 0.0
O535 O 0.5208 0.30551 0.90957 0.0
C536 C 0.50942 0.33322 0.06427 0.0
O537 O 0.49297 0.34273 0.04591 0.0
O538 O 0.52251 0.37056 0.00306 0.0
O539 O 0.49574 0.37412 0.9585 0.0
H540 H 0.59566 0.39676 0.00526 0.0
H541 H 0.47323 0.30687 0.97778 0.0
O542 O 0.48574 0.31657 0.90752 0.0
H543 H 0.42317 0.36837 0.01009 0.0
H544 H 0.42533 0.35284 0.84574 0.0
H545 H 0.49393 0.38647 0.88675 0.0
H546 H 0.45458 0.37382 0.96456 0.0
H547 H 0.44856 0.33474 0.89597 0.0
O548 O 0.52807 0.33144 0.04723 0.0
H549 H 0.56134 0.38227 0.97968 0.0
H550 H 0.56927 0.32457 0.04996 0.0
H551 H 0.47111 0.40521 0.83668 0.0
H552 H 0.44193 0.30066 0.02324 0.0
H553 H 0.43654 0.38838 0.81587 0.0
H554 H 0.41668 0.33157 0.03974 0.0
O555 O 0.51645 0.3501 0.89802 0.0
H556 H 0.541 0.25939 0.9963 0.0
H557 H 0.57737 0.32693 0.9513 0.0
H558 H 0.59431 0.29108 0.93595 0.0
H559 H 0.5761 0.25699 0.95853 0.0
H560 H 0.52453 0.29558 0.01069 0.0
H561 H 0.6036 0.3385 0.07656 0.0
H562 H 0.61705 0.37481 0.05407 0.0
O563 O 0.54514 0.3521 0.93854 0.0
C564 C 0.50782 0.38181 0.98522 0.0
C565 C 0.59003 0.38087 0.01515 0.0
C566 C 0.59447 0.34819 0.05521 0.0
N567 N 0.56346 0.35249 0.01295 0.0
C568 C 0.57066 0.37255 0.00065 0.0
C569 C 0.57501 0.3404 0.04008 0.0
C570 C 0.602 0.36856 0.04257 0.0
C571 C 0.46218 0.32034 0.98452 0.0
N572 N 0.46566 0.34065 0.9684 0.0
C573 C 0.44454 0.31675 0.0104 0.0
C574 C 0.4304 0.33411 0.0197 0.0
C575 C 0.43405 0.35477 0.0031 0.0
C576 C 0.45188 0.35777 0.97741 0.0
C577 C 0.44034 0.36036 0.85464 0.0
C578 C 0.47884 0.37911 0.87803 0.0
C579 C 0.45357 0.35018 0.88301 0.0
N580 N 0.47248 0.35965 0.89452 0.0
C581 C 0.46602 0.38977 0.84958 0.0
C582 C 0.44663 0.38031 0.83789 0.0
C583 C 0.53652 0.35387 0.9045 0.0
C584 C 0.54912 0.27413 0.98641 0.0
C585 C 0.56932 0.31217 0.96117 0.0
C586 C 0.57902 0.29192 0.95246 0.0
C587 C 0.5688 0.27279 0.96516 0.0
N588 N 0.55003 0.31334 0.98205 0.0
C589 C 0.53993 0.29467 0.99463 0.0
Co590 Co 0.15217 0.4777 0.93052 0.0
Co591 Co 0.14999 0.52296 0.99066 0.0
O592 O 0.1647 0.49698 0.96944 0.0
C593 C 0.19249 0.49339 0.89296 0.0
O594 O 0.1864 0.51263 0.90631 0.0
C595 C 0.16172 0.49629 0.06111 0.0
O596 O 0.15484 0.479 0.04275 0.0
O597 O 0.12289 0.50644 0.0017 0.0
O598 O 0.12308 0.47884 0.95846 0.0
H599 H 0.0876 0.57676 0.0076 0.0
H600 H 0.19343 0.46442 0.96969 0.0
O601 O 0.18089 0.47672 0.90094 0.0
H602 H 0.14076 0.40699 0.00572 0.0
H603 H 0.15357 0.41318 0.83982 0.0
H604 H 0.11019 0.47643 0.88784 0.0
H605 H 0.12987 0.43802 0.96237 0.0
H606 H 0.16855 0.43773 0.8895 0.0
O607 O 0.1608 0.51511 0.0445 0.0
H608 H 0.10649 0.54429 0.9801 0.0
H609 H 0.1624 0.55661 0.04873 0.0
H610 H 0.0945 0.4522 0.83842 0.0
H611 H 0.20506 0.43361 0.01293 0.0
H612 H 0.11625 0.4203 0.81409 0.0
H613 H 0.1786 0.40465 0.03128 0.0
O614 O 0.14289 0.50296 0.89658 0.0
H615 H 0.23105 0.53504 0.99143 0.0
H616 H 0.15959 0.56562 0.95055 0.0
H617 H 0.19317 0.58592 0.93457 0.0
H618 H 0.22923 0.57064 0.95508 0.0
H619 H 0.19708 0.51517 0.00646 0.0
H620 H 0.14406 0.58913 0.07721 0.0
H621 H 0.10641 0.59944 0.05653 0.0
O622 O 0.13877 0.53142 0.93745 0.0
C623 C 0.11381 0.49037 0.98529 0.0
C624 C 0.10404 0.5725 0.01672 0.0
C625 C 0.13571 0.57942 0.05583 0.0
N626 N 0.1356 0.5487 0.01248 0.0
C627 C 0.11484 0.55417 0.00115 0.0
C628 C 0.146 0.56097 0.03965 0.0
C629 C 0.11459 0.5852 0.04421 0.0
C630 C 0.1819 0.45177 0.97726 0.0
N631 N 0.16105 0.45294 0.96339 0.0
C632 C 0.18855 0.43441 0.00187 0.0
C633 C 0.17368 0.41819 0.01221 0.0
C634 C 0.15244 0.4195 0.9979 0.0
C635 C 0.14636 0.43712 0.97343 0.0
C636 C 0.14391 0.42699 0.85027 0.0
C637 C 0.11969 0.46249 0.8776 0.0
C638 C 0.15232 0.44096 0.87834 0.0
N639 N 0.14017 0.45836 0.89182 0.0
C640 C 0.11075 0.44887 0.84952 0.0
C641 C 0.12297 0.43099 0.83585 0.0
C642 C 0.13737 0.52275 0.90358 0.0
C643 C 0.21543 0.5419 0.98244 0.0
C644 C 0.17522 0.55884 0.95952 0.0
C645 C 0.19418 0.57043 0.95045 0.0
C646 C 0.2144 0.56186 0.96199 0.0
N647 N 0.17637 0.53928 0.9796 0.0
C648 C 0.19613 0.53078 0.99105 0.0
Co649 Co 0.01415 0.15571 0.93558 0.0
Co650 Co 0.96694 0.157 0.99333 0.0
O651 O 0.99424 0.16952 0.97371 0.0
C652 C 0.00095 0.19725 0.89779 0.0
O653 O 0.98109 0.19256 0.91006 0.0
C654 C 0.99297 0.1643 0.06452 0.0
O655 O 0.00973 0.15557 0.0454 0.0
O656 O 0.98126 0.12792 0.00252 0.0
O657 O 0.01137 0.12686 0.96347 0.0
H658 H 0.90838 0.10045 0.00353 0.0
H659 H 0.02743 0.19612 0.97547 0.0
O660 O 0.01686 0.18433 0.90615 0.0
H661 H 0.08227 0.13983 0.01335 0.0
H662 H 0.08107 0.15281 0.84715 0.0
H663 H 0.01544 0.11354 0.89322 0.0
H664 H 0.05228 0.13095 0.96869 0.0
H665 H 0.05564 0.16945 0.8959 0.0
O666 O 0.97436 0.16585 0.04821 0.0
H667 H 0.94271 0.11643 0.97819 0.0
H668 H 0.93314 0.17134 0.05231 0.0
H669 H 0.04052 0.09622 0.8447 0.0
H670 H 0.05722 0.20575 0.02002 0.0
H671 H 0.07361 0.1159 0.82134 0.0
H672 H 0.08487 0.17747 0.03932 0.0
O673 O 0.9896 0.14788 0.90085 0.0
H674 H 0.96047 0.23896 -0.00033 0.0
H675 H 0.92598 0.17184 0.95358 0.0
H676 H 0.90841 0.20771 0.93972 0.0
H677 H 0.92567 0.2416 0.96287 0.0
H678 H 0.97759 0.20276 0.01256 0.0
H679 H 0.89879 0.15587 0.07869 0.0
H680 H 0.88617 0.12021 0.05416 0.0
O681 O 0.95914 0.14788 0.93899 0.0
C682 C 0.99797 0.11799 0.98793 0.0
C683 C 0.91367 0.11603 0.01436 0.0
C684 C 0.90831 0.14712 0.05658 0.0
N685 N 0.93982 0.14487 0.01354 0.0
C686 C 0.93306 0.12519 3e-05 0.0
C687 C 0.92779 0.15578 0.0416 0.0
C688 C 0.90123 0.12712 0.04279 0.0
C689 C 0.03953 0.18379 0.98343 0.0
N690 N 0.0382 0.16304 0.96934 0.0
C691 C 0.05631 0.18931 0.00879 0.0
C692 C 0.0718 0.17343 0.01965 0.0
C693 C 0.07034 0.1523 0.00511 0.0
C694 C 0.05331 0.14736 0.97989 0.0
C695 C 0.06674 0.14406 0.85716 0.0
C696 C 0.02989 0.12214 0.8834 0.0
C697 C 0.05226 0.15341 0.88471 0.0
N698 N 0.03419 0.14239 0.89763 0.0
C699 C 0.04399 0.11228 0.85583 0.0
C700 C 0.06254 0.12334 0.84271 0.0
C701 C 0.96916 0.14488 0.90608 0.0
C702 C 0.95276 0.22431 0.98953 0.0
C703 C 0.93361 0.18651 0.96368 0.0
C704 C 0.92356 0.20678 0.95582 0.0
C705 C 0.93325 0.22578 0.96883 0.0
N706 N 0.95274 0.1852 0.98403 0.0
C707 C 0.96233 0.20376 0.99691 0.0
Co708 Co 0.84357 0.99238 0.56784 0.0
Co709 Co 0.84453 0.0396 0.51005 0.0
O710 O 0.83076 0.0129 0.52954 0.0
C711 C 0.8028 0.00802 0.6049 0.0
O712 O 0.80849 0.02741 0.59162 0.0
C713 C 0.83622 0.01387 0.43889 0.0
O714 O 0.84371 0.9966 0.45824 0.0
O715 O 0.87291 0.02398 0.50135 0.0
O716 O 0.87247 0.99355 0.53969 0.0
H717 H 0.90374 0.0955 0.50043 0.0
H718 H 0.80237 0.9812 0.52838 0.0
O719 O 0.81491 0.99135 0.59751 0.0
H720 H 0.85554 0.92331 0.49076 0.0
H721 H 0.84303 0.92566 0.65698 0.0
H722 H 0.88574 0.98889 0.60992 0.0
H723 H 0.86616 0.95292 0.53496 0.0
H724 H 0.82768 0.95183 0.60806 0.0
O725 O 0.83567 0.03255 0.4551 0.0
H726 H 0.88611 0.06197 0.52566 0.0
H727 H 0.83196 0.07397 0.45075 0.0
H728 H 0.9018 0.96304 0.65859 0.0
H729 H 0.79101 0.95184 0.48428 0.0
H730 H 0.88039 0.93115 0.68244 0.0
H731 H 0.81771 0.92266 0.46512 0.0
O732 O 0.85281 0.01652 0.60234 0.0
H733 H 0.76297 0.0497 0.50228 0.0
H734 H 0.83133 0.08122 0.54942 0.0
H735 H 0.7962 0.10036 0.56265 0.0
H736 H 0.76169 0.08459 0.53899 0.0
H737 H 0.79844 0.031 0.49003 0.0
H738 H 0.84908 0.10755 0.42447 0.0
H739 H 0.88519 0.11855 0.44946 0.0
O740 O 0.85376 0.04706 0.56448 0.0
C741 C 0.88198 0.00667 0.51551 0.0
C742 C 0.88797 0.09092 0.48941 0.0
C743 C 0.8573 0.09767 0.44674 0.0
N744 N 0.85795 0.06613 0.48993 0.0
C745 C 0.87787 0.07199 0.50367 0.0
C746 C 0.84771 0.07862 0.46166 0.0
C747 C 0.87756 0.10383 0.46078 0.0
C748 C 0.81401 0.96844 0.52047 0.0
N749 N 0.83485 0.96868 0.53439 0.0
C750 C 0.80751 0.95191 0.49537 0.0
C751 C 0.82252 0.93556 0.48458 0.0
C752 C 0.84375 0.93592 0.49894 0.0
C753 C 0.84968 0.95274 0.5239 0.0
C754 C 0.85254 0.93946 0.64674 0.0
C755 C 0.87639 0.97497 0.61995 0.0
C756 C 0.84392 0.95435 0.61911 0.0
N757 N 0.85588 0.97175 0.6059 0.0
C758 C 0.88554 0.96043 0.64761 0.0
C759 C 0.87351 0.94255 0.66101 0.0
C760 C 0.85652 0.03685 0.59726 0.0
C761 C 0.7779 0.05677 0.51264 0.0
C762 C 0.81639 0.07424 0.53908 0.0
C763 C 0.79655 0.08517 0.5466 0.0
C764 C 0.77719 0.07633 0.53329 0.0
N765 N 0.81695 0.05507 0.51881 0.0
C766 C 0.79804 0.04631 0.50562 0.0
Co767 Co 0.51996 0.84492 0.55511 0.0
Co768 Co 0.47401 0.84484 0.49693 0.0
O769 O 0.50106 0.83155 0.51662 0.0
C770 C 0.50806 0.80297 0.59185 0.0
O771 O 0.48807 0.80784 0.58075 0.0
C772 C 0.50042 0.83538 0.42519 0.0
O773 O 0.51731 0.84345 0.44309 0.0
O774 O 0.48864 0.87306 0.48581 0.0
O775 O 0.51625 0.87427 0.52882 0.0
H776 H 0.41633 0.90398 0.48383 0.0
H777 H 0.53561 0.80529 0.51315 0.0
O778 O 0.52359 0.81589 0.583 0.0
H779 H 0.58833 0.86267 0.47713 0.0
H780 H 0.58576 0.84703 0.64244 0.0
H781 H 0.51878 0.88627 0.59999 0.0
H782 H 0.55732 0.87059 0.52251 0.0
H783 H 0.56165 0.83098 0.59322 0.0
O784 O 0.48179 0.83484 0.44249 0.0
H785 H 0.45024 0.88695 0.50942 0.0
H786 H 0.44045 0.83072 0.44009 0.0
H787 H 0.54252 0.90301 0.64902 0.0
H788 H 0.56647 0.7966 0.46787 0.0
H789 H 0.57628 0.88335 0.67056 0.0
H790 H 0.59305 0.82543 0.44951 0.0
O791 O 0.49465 0.85185 0.59064 0.0
H792 H 0.46688 0.76308 0.49489 0.0
H793 H 0.43265 0.8324 0.53875 0.0
H794 H 0.41468 0.7975 0.5549 0.0
H795 H 0.4318 0.76252 0.53289 0.0
H796 H 0.48441 0.79834 0.47971 0.0
H797 H 0.40652 0.84721 0.41351 0.0
H798 H 0.39421 0.88406 0.43552 0.0
O799 O 0.46566 0.85525 0.55078 0.0
C800 C 0.50402 0.88307 0.50253 0.0
C801 C 0.42147 0.88787 0.47415 0.0
C802 C 0.41598 0.85602 0.43464 0.0
N803 N 0.44718 0.85777 0.4766 0.0
C804 C 0.44061 0.87811 0.48864 0.0
C805 C 0.43522 0.84678 0.44975 0.0
C806 C 0.40908 0.8767 0.447 0.0
C807 C 0.54724 0.81785 0.50559 0.0
N808 N 0.54474 0.83838 0.52059 0.0
C809 C 0.56462 0.81286 0.47982 0.0
C810 C 0.57951 0.82906 0.46947 0.0
C811 C 0.57686 0.84996 0.48494 0.0
C812 C 0.55925 0.85437 0.51055 0.0
C813 C 0.57112 0.85578 0.63322 0.0
C814 C 0.53353 0.87769 0.609 0.0
C815 C 0.55739 0.84676 0.60541 0.0
N816 N 0.53895 0.85778 0.59347 0.0
C817 C 0.54687 0.88721 0.63687 0.0
C818 C 0.5658 0.87616 0.64897 0.0
C819 C 0.47459 0.85659 0.58447 0.0
C820 C 0.45923 0.77822 0.50454 0.0
C821 C 0.44022 0.81724 0.52913 0.0
C822 C 0.42995 0.79754 0.53829 0.0
C823 C 0.43956 0.77791 0.52591 0.0
N824 N 0.4595 0.81741 0.50813 0.0
C825 C 0.46902 0.79824 0.49586 0.0
Co826 Co 0.65247 0.51807 0.5704 0.0
Co827 Co 0.65886 0.47515 0.50562 0.0
O828 O 0.66849 0.50229 0.52906 0.0
C829 C 0.69572 0.50905 0.6042 0.0
O830 O 0.69425 0.48937 0.58962 0.0
C831 C 0.6648 0.50563 0.43799 0.0
O832 O 0.65466 0.52062 0.45913 0.0
O833 O 0.62896 0.4874 0.49747 0.0
O834 O 0.62409 0.51298 0.54395 0.0
H835 H 0.60773 0.41299 0.48522 0.0
H836 H 0.69024 0.53905 0.53017 0.0
O837 O 0.68048 0.52317 0.59844 0.0
H838 H 0.62691 0.58773 0.50296 0.0
H839 H 0.64103 0.57906 0.66727 0.0
H840 H 0.61109 0.51102 0.6154 0.0
H841 H 0.62254 0.55426 0.54382 0.0
H842 H 0.66057 0.55895 0.6144 0.0
O843 O 0.66793 0.48641 0.45214 0.0
H844 H 0.62006 0.447 0.51549 0.0
H845 H 0.67756 0.44598 0.44341 0.0
H846 H 0.59092 0.53071 0.66803 0.0
H847 H 0.69538 0.57244 0.48937 0.0
H848 H 0.6059 0.56499 0.69431 0.0
H849 H 0.66355 0.59701 0.47545 0.0
O850 O 0.64852 0.49073 0.60222 0.0
H851 H 0.741 0.47602 0.49979 0.0
H852 H 0.67646 0.43354 0.54088 0.0
H853 H 0.71342 0.41836 0.55314 0.0
H854 H 0.74601 0.43965 0.53251 0.0
H855 H 0.70375 0.49067 0.48843 0.0
H856 H 0.66577 0.41205 0.41211 0.0
H857 H 0.63066 0.39528 0.43313 0.0
O858 O 0.64932 0.46339 0.55845 0.0
C859 C 0.61705 0.5012 0.51622 0.0
C860 C 0.62311 0.42008 0.47594 0.0
C861 C 0.65567 0.41957 0.43487 0.0
N862 N 0.64963 0.4483 0.48158 0.0
C863 C 0.63022 0.43928 0.49309 0.0
C864 C 0.66225 0.43879 0.45267 0.0
C865 C 0.63597 0.41017 0.44668 0.0
C866 C 0.67636 0.54978 0.52455 0.0
N867 N 0.65614 0.54478 0.5395 0.0
C868 C 0.67935 0.56861 0.5013 0.0
C869 C 0.66147 0.58237 0.49344 0.0
C870 C 0.64091 0.57717 0.50885 0.0
C871 C 0.63852 0.55817 0.5319 0.0
C872 C 0.63432 0.56417 0.656 0.0
C873 C 0.61764 0.52601 0.62651 0.0
C874 C 0.64532 0.55269 0.62612 0.0
N875 N 0.63688 0.53394 0.61161 0.0
C876 C 0.60618 0.53705 0.65639 0.0
C877 C 0.6146 0.55627 0.67115 0.0
C878 C 0.64649 0.47067 0.59334 0.0
C879 C 0.72693 0.46656 0.50881 0.0
C880 C 0.69057 0.44292 0.53189 0.0
C881 C 0.71145 0.43422 0.53884 0.0
C882 C 0.72973 0.44617 0.52722 0.0
N883 N 0.68796 0.46293 0.51378 0.0
C884 C 0.7058 0.47473 0.50228 0.0
Co885 Co 0.98403 0.65501 0.56661 0.0
Co886 Co 0.02862 0.65299 0.5025 0.0
O887 O 0.00293 0.66761 0.52552 0.0
C888 C 0.00053 0.69499 0.60137 0.0
O889 O 0.01954 0.68888 0.58634 0.0
C890 C 0.00042 0.66374 0.43482 0.0
O891 O 0.98405 0.656 0.45599 0.0
O892 O 0.01224 0.62569 0.49504 0.0
O893 O 0.98457 0.62604 0.53965 0.0
H894 H 0.08263 0.591 0.48345 0.0
H895 H 0.9707 0.69663 0.5271 0.0
O896 O 0.98367 0.68359 0.59527 0.0
H897 H 0.91243 0.64467 0.4985 0.0
H898 H 0.92068 0.65637 0.6634 0.0
H899 H 0.98296 0.61278 0.61104 0.0
H900 H 0.94379 0.63327 0.53947 0.0
H901 H 0.94472 0.67146 0.6108 0.0
O902 O 0.01964 0.66367 0.44885 0.0
H903 H 0.05049 0.60966 0.51337 0.0
H904 H 0.06107 0.66558 0.4399 0.0
H905 H 0.95924 0.59698 0.66339 0.0
H906 H 0.93957 0.70878 0.48618 0.0
H907 H 0.92784 0.61884 0.68992 0.0
H908 H 0.9102 0.68268 0.47156 0.0
O909 O 0.00958 0.6453 0.59828 0.0
H910 H 0.04003 0.73419 0.49519 0.0
H911 H 0.07174 0.663 0.53734 0.0
H912 H 0.09201 0.69678 0.54894 0.0
H913 H 0.07615 0.7327 0.52777 0.0
H914 H 0.02022 0.70003 0.4845 0.0
H915 H 0.09324 0.64748 0.40894 0.0
H916 H 0.10426 0.60995 0.43083 0.0
O917 O 0.03798 0.64186 0.55558 0.0
C918 C 0.9961 0.61669 0.51277 0.0
C919 C 0.07806 0.6074 0.47379 0.0
C920 C 0.084 0.63908 0.43193 0.0
N921 N 0.05408 0.63878 0.47873 0.0
C922 C 0.05993 0.61807 0.49073 0.0
C923 C 0.06576 0.64924 0.44953 0.0
C924 C 0.09017 0.61802 0.44423 0.0
C925 C 0.95786 0.68526 0.52117 0.0
N926 N 0.95898 0.66432 0.5358 0.0
C927 C 0.94033 0.6922 0.49785 0.0
C928 C 0.92387 0.67753 0.48961 0.0
C929 C 0.92512 0.6562 0.5047 0.0
C930 C 0.94292 0.64983 0.52782 0.0
C931 C 0.93428 0.64667 0.65201 0.0
C932 C 0.96923 0.62232 0.62223 0.0
C933 C 0.94795 0.65513 0.62227 0.0
N934 N 0.96508 0.64291 0.6076 0.0
C935 C 0.9559 0.61332 0.65196 0.0
C936 C 0.9383 0.6256 0.66686 0.0
C937 C 0.02939 0.64007 0.59008 0.0
C938 C 0.04713 0.71863 0.50444 0.0
C939 C 0.06472 0.67857 0.5281 0.0
C940 C 0.07629 0.69764 0.53469 0.0
C941 C 0.06739 0.71779 0.52278 0.0
N942 N 0.04487 0.67954 0.51007 0.0
C943 C 0.03604 0.69923 0.49829 0.0
C944 C 0.562 0.12599 0.39723 0.0
C945 C 0.54257 0.13759 0.38843 0.0
C946 C 0.57503 0.11721 0.36696 0.0
C947 C 0.58914 0.12151 0.26228 0.0
H948 H 0.59975 0.05884 0.26896 0.0
C949 C 0.63771 0.04659 0.17428 0.0
C950 C 0.63332 0.05322 0.13522 0.0
C951 C 0.62899 0.05837 0.20604 0.0
C952 C 0.59742 0.07642 0.26688 0.0
H953 H 0.52211 0.14994 0.34089 0.0
H954 H 0.54524 0.13492 0.28792 0.0
H955 H 0.58076 0.07732 0.32301 0.0
H956 H 0.61661 0.07756 0.09878 0.0
H957 H 0.60061 0.09748 0.15394 0.0
H958 H 0.60612 0.12084 0.20659 0.0
C959 C 0.55017 0.13251 0.31833 0.0
C960 C 0.58641 0.08695 0.29781 0.0
C961 C 0.53691 0.14097 0.34863 0.0
C962 C 0.62037 0.07208 0.12855 0.0
C963 C 0.61131 0.08362 0.16029 0.0
C964 C 0.60052 0.11106 0.23159 0.0
C965 C 0.5691 0.12022 0.32732 0.0
C966 C 0.58195 0.10951 0.29554 0.0
C967 C 0.61533 0.07681 0.19949 0.0
C968 C 0.60455 0.0883 0.23324 0.0
H969 H 0.56685 0.1231 0.42755 0.0
H970 H 0.58964 0.10787 0.37452 0.0
H971 H 0.58601 0.13899 0.26011 0.0
H972 H 0.64787 0.03227 0.18034 0.0
H973 H 0.6329 0.05291 0.23575 0.0
C974 C 0.36918 0.53554 0.32497 0.0
C975 C 0.37104 0.54163 0.36469 0.0
C976 C 0.37913 0.54787 0.29476 0.0
C977 C 0.42565 0.58233 0.27559 0.0
H978 H 0.39447 0.6035 0.18328 0.0
C979 C 0.4688 0.63497 0.15647 0.0
C980 C 0.46341 0.63159 0.11685 0.0
C981 C 0.45636 0.62562 0.18713 0.0
C982 C 0.40353 0.59746 0.20855 0.0
H983 H 0.38465 0.56559 0.40372 0.0
H984 H 0.40243 0.58671 0.35097 0.0
H985 H 0.37488 0.58346 0.23541 0.0
H986 H 0.4406 0.61591 0.07831 0.0
H987 H 0.41955 0.59886 0.13147 0.0
H988 H 0.45447 0.59529 0.24849 0.0
C989 C 0.39312 0.5725 0.34335 0.0
C990 C 0.39224 0.58609 0.23845 0.0
C991 C 0.38286 0.56044 0.37347 0.0
C992 C 0.44513 0.61894 0.10854 0.0
C993 C 0.43293 0.60926 0.13915 0.0
C994 C 0.43703 0.59332 0.24543 0.0
C995 C 0.39145 0.56626 0.30379 0.0
C996 C 0.40321 0.57848 0.27222 0.0
C997 C 0.43848 0.61231 0.17889 0.0
C998 C 0.42614 0.60107 0.21147 0.0
H999 H 0.36012 0.52118 0.31722 0.0
H1000 H 0.37772 0.5427 0.26442 0.0
H1001 H 0.4345 0.57636 0.3012 0.0
H1002 H 0.48266 0.64484 0.16385 0.0
H1003 H 0.46085 0.62881 0.2173 0.0
C1004 C 0.87028 0.4384 0.12169 0.0
C1005 C 0.85836 0.45783 0.1288 0.0
C1006 C 0.87835 0.42576 0.15311 0.0
C1007 C 0.89167 0.4301 0.25938 0.0
H1008 H 0.90049 0.36732 0.25112 0.0
C1009 C 0.92515 0.37625 0.38694 0.0
C1010 C 0.94441 0.3646 0.37677 0.0
C1011 C 0.91228 0.386 0.35762 0.0
C1012 C 0.89805 0.38484 0.25373 0.0
H1013 H 0.84459 0.4787 0.17439 0.0
H1014 H 0.85779 0.45616 0.22933 0.0
H1015 H 0.88133 0.38746 0.19881 0.0
H1016 H 0.96467 0.35311 0.32781 0.0
H1017 H 0.94176 0.36978 0.27651 0.0
H1018 H 0.90807 0.42724 0.31476 0.0
C1019 C 0.86168 0.45106 0.19949 0.0
C1020 C 0.88723 0.39644 0.22372 0.0
C1021 C 0.85396 0.46394 0.16801 0.0
C1022 C 0.94999 0.36208 0.33659 0.0
C1023 C 0.93686 0.3715 0.30724 0.0
C1024 C 0.90209 0.41843 0.28968 0.0
C1025 C 0.87434 0.43202 0.19246 0.0
C1026 C 0.88422 0.4193 0.22582 0.0
C1027 C 0.91816 0.3839 0.31759 0.0
C1028 C 0.90565 0.39578 0.28681 0.0
H1029 H 0.87404 0.43331 0.09179 0.0
H1030 H 0.88834 0.41147 0.14635 0.0
H1031 H 0.89012 0.4477 0.26183 0.0
H1032 H 0.92038 0.3785 0.41759 0.0
H1033 H 0.89785 0.39542 0.36621 0.0
C1034 C 0.03053 0.87386 0.16086 0.0
C1035 C 0.04183 0.86655 0.12687 0.0
C1036 C 0.04176 0.88347 0.19155 0.0
C1037 C 0.09601 0.88848 0.23554 0.0
H1038 H 0.07213 0.94298 0.27639 0.0
C1039 C 0.12811 0.9304 0.3753 0.0
C1040 C 0.13049 0.95325 0.37307 0.0
C1041 C 0.11824 0.91927 0.34472 0.0
C1042 C 0.07906 0.92783 0.26513 0.0
H1043 H 0.07397 0.86312 0.09914 0.0
H1044 H 0.09351 0.87976 0.15295 0.0
H1045 H 0.05284 0.92406 0.22475 0.0
H1046 H 0.12466 0.98221 0.33643 0.0
H1047 H 0.10738 0.96275 0.28328 0.0
H1048 H 0.12229 0.89234 0.27594 0.0
C1049 C 0.07596 0.878 0.15573 0.0
C1050 C 0.0679 0.91689 0.23589 0.0
C1051 C 0.06472 0.86855 0.12484 0.0
C1052 C 0.12311 0.96463 0.33921 0.0
C1053 C 0.11307 0.95351 0.30883 0.0
C1054 C 0.10708 0.89933 0.2651 0.0
C1055 C 0.06455 0.88584 0.18913 0.0
C1056 C 0.07628 0.89713 0.22073 0.0
C1057 C 0.11036 0.93076 0.31143 0.0
C1058 C 0.09875 0.91917 0.28005 0.0
H1059 H 0.01292 0.8726 0.16348 0.0
H1060 H 0.03258 0.88915 0.21717 0.0
H1061 H 0.10278 0.87321 0.22451 0.0
H1062 H 0.13359 0.92109 0.40092 0.0
H1063 H 0.11622 0.90174 0.34763 0.0
C1064 C 0.38469 0.93342 0.87805 0.0
C1065 C 0.37103 0.95164 0.8702 0.0
C1066 C 0.39462 0.92191 0.84709 0.0
C1067 C 0.40897 0.92799 0.74034 0.0
H1068 H 0.42122 0.86563 0.74943 0.0
C1069 C 0.44144 0.87652 0.61031 0.0
C1070 C 0.46107 0.86493 0.61774 0.0
C1071 C 0.42945 0.88592 0.64128 0.0
C1072 C 0.41791 0.88306 0.74667 0.0
H1073 H 0.35629 0.97153 0.82379 0.0
H1074 H 0.37279 0.95091 0.76974 0.0
H1075 H 0.40128 0.88422 0.80266 0.0
H1076 H 0.483 0.85337 0.6637 0.0
H1077 H 0.4616 0.86946 0.71803 0.0
H1078 H 0.42514 0.92655 0.68379 0.0
C1079 C 0.37657 0.94596 0.79977 0.0
C1080 C 0.40661 0.89377 0.77717 0.0
C1081 C 0.36696 0.95772 0.83076 0.0
C1082 C 0.46801 0.86228 0.657 0.0
C1083 C 0.45576 0.87137 0.68808 0.0
C1084 C 0.4199 0.9172 0.70962 0.0
C1085 C 0.3908 0.9281 0.80751 0.0
C1086 C 0.40212 0.91642 0.77453 0.0
C1087 C 0.4366 0.88358 0.68033 0.0
C1088 C 0.42457 0.8947 0.71264 0.0
H1089 H 0.38824 0.92841 0.90816 0.0
H1090 H 0.40574 0.90852 0.85433 0.0
H1091 H 0.40632 0.9455 0.73752 0.0
H1092 H 0.43561 0.87888 0.58046 0.0
H1093 H 0.41463 0.89515 0.6347 0.0
C1094 C 0.6291 0.43556 0.6146 0.0
C1095 C 0.63912 0.45521 0.62469 0.0
C1096 C 0.61996 0.42203 0.64387 0.0
C1097 C 0.62109 0.40631 0.74761 0.0
H1098 H 0.55887 0.39678 0.73842 0.0
C1099 C 0.56917 0.37384 0.87855 0.0
C1100 C 0.55036 0.36177 0.87119 0.0
C1101 C 0.58132 0.38297 0.84736 0.0
C1102 C 0.57633 0.39877 0.74118 0.0
H1103 H 0.64837 0.47549 0.67358 0.0
H1104 H 0.63288 0.45139 0.72487 0.0
H1105 H 0.5784 0.41638 0.686 0.0
H1106 H 0.53014 0.34888 0.82524 0.0
H1107 H 0.55192 0.36387 0.77065 0.0
H1108 H 0.61934 0.38831 0.80219 0.0
C1109 C 0.63192 0.44672 0.69418 0.0
C1110 C 0.58746 0.41015 0.71119 0.0
C1111 C 0.64069 0.46051 0.66485 0.0
C1112 C 0.54444 0.35831 0.83187 0.0
C1113 C 0.55686 0.36707 0.80057 0.0
C1114 C 0.61008 0.3945 0.77728 0.0
C1115 C 0.62109 0.42763 0.68383 0.0
C1116 C 0.60984 0.41429 0.71444 0.0
C1117 C 0.57525 0.37989 0.8079 0.0
C1118 C 0.58744 0.39088 0.77482 0.0
H1119 H 0.62759 0.43097 0.58399 0.0
H1120 H 0.61175 0.40731 0.63528 0.0
H1121 H 0.63842 0.40918 0.75051 0.0
H1122 H 0.57412 0.37695 0.90851 0.0
H1123 H 0.59506 0.39304 0.85444 0.0
C1124 C 0.06105 0.61718 0.61364 0.0
C1125 C 0.04291 0.6308 0.62223 0.0
C1126 C 0.07264 0.60686 0.64413 0.0
C1127 C 0.06616 0.59086 0.74995 0.0
H1128 H 0.12834 0.57782 0.74112 0.0
C1129 C 0.11652 0.55567 0.87918 0.0
C1130 C 0.12849 0.53638 0.87091 0.0
C1131 C 0.10717 0.56807 0.84867 0.0
C1132 C 0.11095 0.58133 0.74379 0.0
H1133 H 0.02342 0.64528 0.66945 0.0
H1134 H 0.04418 0.6281 0.72262 0.0
H1135 H 0.11026 0.59892 0.68867 0.0
H1136 H 0.14061 0.51536 0.824 0.0
H1137 H 0.12452 0.53741 0.77049 0.0
H1138 H 0.06708 0.57369 0.80558 0.0
C1139 C 0.04898 0.62463 0.69238 0.0
C1140 C 0.10055 0.59331 0.71374 0.0
C1141 C 0.03715 0.63463 0.6619 0.0
C1142 C 0.13139 0.53008 0.83133 0.0
C1143 C 0.12232 0.54272 0.80073 0.0
C1144 C 0.07663 0.57922 0.7802 0.0
C1145 C 0.06658 0.61023 0.68391 0.0
C1146 C 0.07798 0.59815 0.71636 0.0
C1147 C 0.10989 0.56164 0.80924 0.0
C1148 C 0.09907 0.57427 0.77729 0.0
H1149 H 0.06583 0.61385 0.58334 0.0
H1150 H 0.08589 0.59568 0.63636 0.0
H1151 H 0.04869 0.59375 0.75267 0.0
H1152 H 0.11397 0.56102 0.9093 0.0
H1153 H 0.09776 0.58269 0.85587 0.0
C1154 C 0.96732 0.12912 0.83825 0.0
C1155 C 0.95651 0.13659 0.87262 0.0
C1156 C 0.95561 0.11956 0.80811 0.0
C1157 C 0.90082 0.11468 0.7663 0.0
H1158 H 0.92378 0.05959 0.72635 0.0
C1159 C 0.86777 0.07193 0.62806 0.0
C1160 C 0.86534 0.0491 0.63076 0.0
C1161 C 0.87762 0.08323 0.65845 0.0
C1162 C 0.91711 0.0749 0.73738 0.0
H1163 H 0.92474 0.1405 0.90152 0.0
H1164 H 0.90435 0.12396 0.84865 0.0
H1165 H 0.94377 0.07878 0.77675 0.0
H1166 H 0.87093 0.02037 0.66811 0.0
H1167 H 0.8882 0.04013 0.72091 0.0
H1168 H 0.87412 0.11071 0.72682 0.0
C1169 C 0.92189 0.12553 0.84517 0.0
C1170 C 0.92866 0.08599 0.76589 0.0
C1171 C 0.93361 0.13492 0.87551 0.0
C1172 C 0.87253 0.03793 0.66497 0.0
C1173 C 0.88255 0.04922 0.69515 0.0
C1174 C 0.88935 0.10367 0.73743 0.0
C1175 C 0.93282 0.11743 0.81148 0.0
C1176 C 0.92063 0.10598 0.78068 0.0
C1177 C 0.88544 0.07193 0.69198 0.0
C1178 C 0.89736 0.08363 0.72282 0.0
H1179 H 0.98492 0.13014 0.83495 0.0
H1180 H 0.96441 0.11368 0.78223 0.0
H1181 H 0.89432 0.13011 0.77707 0.0
H1182 H 0.86242 0.08108 0.60218 0.0
H1183 H 0.87976 0.10073 0.65512 0.0
C1184 C 0.67409 0.03024 0.87788 0.0
C1185 C 0.67189 0.01192 0.90307 0.0
C1186 C 0.68499 0.0284 0.84159 0.0
C1187 C 0.70795 0.98907 0.76851 0.0
H1188 H 0.7472 0.03691 0.74537 0.0
C1189 C 0.7799 0.98673 0.65366 0.0
C1190 C 0.78367 0.00612 0.63185 0.0
C1191 C 0.76353 0.98613 0.68302 0.0
C1192 C 0.7361 0.02356 0.75105 0.0
H1193 H 0.67859 0.97711 0.90951 0.0
H1194 H 0.6983 0.97398 0.84633 0.0
H1195 H 0.72381 0.03824 0.80381 0.0
H1196 H 0.7722 0.03951 0.62156 0.0
H1197 H 0.7437 0.03838 0.67251 0.0
H1198 H 0.72101 0.97417 0.71591 0.0
C1199 C 0.69123 0.9897 0.85434 0.0
C1200 C 0.72263 0.02433 0.78456 0.0
C1201 C 0.68003 0.99149 0.89058 0.0
C1202 C 0.76994 0.02442 0.63826 0.0
C1203 C 0.75364 0.02381 0.6675 0.0
C1204 C 0.72162 0.98823 0.73493 0.0
C1205 C 0.69428 0.00827 0.82988 0.0
C1206 C 0.70829 0.00718 0.79366 0.0
C1207 C 0.75072 0.0049 0.691 0.0
C1208 C 0.73574 0.00556 0.72583 0.0
H1209 H 0.66768 0.04613 0.8865 0.0
H1210 H 0.68652 0.04291 0.82302 0.0
H1211 H 0.69701 0.97564 0.77458 0.0
H1212 H 0.79018 0.97234 0.64928 0.0
H1213 H 0.76167 0.97136 0.70077 0.0
C1214 C 0.49461 0.77031 0.62967 0.0
C1215 C 0.51203 0.78378 0.61811 0.0
C1216 C 0.49764 0.75367 0.65786 0.0
C1217 C 0.53276 0.73921 0.74177 0.0
H1218 H 0.49942 0.68581 0.74186 0.0
C1219 C 0.53192 0.67824 0.87464 0.0
C1220 C 0.51074 0.67282 0.88773 0.0
C1221 C 0.53513 0.68878 0.83802 0.0
C1222 C 0.50888 0.70063 0.74216 0.0
H1223 H 0.54662 0.78958 0.62555 0.0
H1224 H 0.55198 0.76025 0.67447 0.0
H1225 H 0.5 0.70944 0.68302 0.0
H1226 H 0.47643 0.67351 0.87223 0.0
H1227 H 0.48206 0.69171 0.80848 0.0
H1228 H 0.54124 0.73056 0.80127 0.0
C1229 C 0.53587 0.76285 0.66222 0.0
C1230 C 0.50917 0.71419 0.70854 0.0
C1231 C 0.53282 0.77957 0.63402 0.0
C1232 C 0.49295 0.67753 0.86304 0.0
C1233 C 0.49619 0.6878 0.82636 0.0
C1234 C 0.53258 0.72555 0.77531 0.0
C1235 C 0.5182 0.75 0.67508 0.0
C1236 C 0.52058 0.73397 0.70835 0.0
C1237 C 0.51725 0.69379 0.81365 0.0
C1238 C 0.52012 0.70645 0.77623 0.0
H1239 H 0.47839 0.77306 0.61794 0.0
H1240 H 0.48359 0.74431 0.66738 0.0
H1241 H 0.54152 0.75442 0.74287 0.0
H1242 H 0.54595 0.67486 0.89309 0.0
H1243 H 0.55156 0.69316 0.82886 0.0
C1244 C 0.82788 0.52113 0.87248 0.0
C1245 C 0.82108 0.50442 0.89872 0.0
C1246 C 0.81633 0.52554 0.83772 0.0
C1247 C 0.76219 0.52232 0.79664 0.0
H1248 H 0.78959 0.51637 0.69304 0.0
C1249 C 0.71225 0.53246 0.65544 0.0
C1250 C 0.71368 0.514 0.63118 0.0
C1251 C 0.72765 0.53552 0.68482 0.0
C1252 C 0.78182 0.5183 0.7218 0.0
H1253 H 0.79678 0.47942 0.90937 0.0
H1254 H 0.77647 0.48753 0.84942 0.0
H1255 H 0.81206 0.51369 0.75257 0.0
H1256 H 0.7332 0.48515 0.61679 0.0
H1257 H 0.76016 0.49062 0.66804 0.0
H1258 H 0.73193 0.52636 0.76637 0.0
C1259 C 0.7908 0.49703 0.85553 0.0
C1260 C 0.79465 0.51689 0.75569 0.0
C1261 C 0.80252 0.49233 0.88969 0.0
C1262 C 0.73157 0.49944 0.63523 0.0
C1263 C 0.7471 0.50265 0.66436 0.0
C1264 C 0.74946 0.52408 0.76287 0.0
C1265 C 0.79757 0.51366 0.8293 0.0
C1266 C 0.7848 0.51831 0.79336 0.0
C1267 C 0.7449 0.52036 0.69018 0.0
C1268 C 0.75906 0.52155 0.72517 0.0
H1269 H 0.84214 0.53068 0.87871 0.0
H1270 H 0.8218 0.53845 0.8178 0.0
H1271 H 0.75429 0.52351 0.82545 0.0
H1272 H 0.69871 0.54404 0.65297 0.0
H1273 H 0.72569 0.5494 0.70418 0.0
C1274 C 0.9859 0.81908 0.88192 0.0
C1275 C 0.00643 0.82533 0.89556 0.0
C1276 C 0.98431 0.80721 0.84704 0.0
C1277 C 0.01821 0.77124 0.78276 0.0
H1278 H 0.97 0.77781 0.71013 0.0
C1279 C 0.01837 0.72524 0.63688 0.0
C1280 C 0.9994 0.71351 0.62904 0.0
C1281 C 0.01827 0.74088 0.66649 0.0
C1282 C 0.98349 0.77577 0.7303 0.0
H1283 H 0.04124 0.82509 0.88236 0.0
H1284 H 0.03845 0.8051 0.82114 0.0
H1285 H 0.9718 0.80175 0.76732 0.0
H1286 H 0.96509 0.70988 0.64468 0.0
H1287 H 0.96495 0.73736 0.69653 0.0
H1288 H 0.02996 0.74541 0.74582 0.0
C1289 C 0.0236 0.80868 0.83787 0.0
C1290 C 0.98451 0.78942 0.76309 0.0
C1291 C 0.02521 0.82028 0.87286 0.0
C1292 C 0.98 0.7186 0.65008 0.0
C1293 C 0.97988 0.73437 0.67967 0.0
C1294 C 0.01728 0.7578 0.74994 0.0
C1295 C 0.00321 0.80153 0.82495 0.0
C1296 C 0.00194 0.78734 0.78969 0.0
C1297 C 0.99918 0.74523 0.68885 0.0
C1298 C -3e-05 0.75992 0.72329 0.0
H1299 H 0.97113 0.82265 0.89892 0.0
H1300 H 0.96836 0.80183 0.83821 0.0
H1301 H 0.03156 0.76872 0.8031 0.0
H1302 H 0.03355 0.72191 0.62098 0.0
H1303 H 0.03329 0.74928 0.67245 0.0
C1304 C 0.17775 0.97034 0.62605 0.0
C1305 C 0.1734 0.98911 0.60284 0.0
C1306 C 0.18944 0.97181 0.66094 0.0
C1307 C 0.21031 0.01052 0.73462 0.0
H1308 H 0.25347 0.96412 0.75083 0.0
C1309 C 0.28217 0.01368 0.84544 0.0
C1310 C 0.2873 0.99412 0.86599 0.0
C1311 C 0.26604 0.01409 0.8165 0.0
C1312 C 0.24131 0.97706 0.74705 0.0
H1313 H 0.17727 0.02427 0.59854 0.0
H1314 H 0.19823 0.02678 0.65917 0.0
H1315 H 0.22959 0.96298 0.6943 0.0
H1316 H 0.27859 0.96004 0.8741 0.0
H1317 H 0.25055 0.96083 0.82385 0.0
H1318 H 0.22268 0.02481 0.7872 0.0
C1319 C 0.19227 0.01097 0.65074 0.0
C1320 C 0.22756 0.97639 0.71465 0.0
C1321 C 0.18033 0.00953 0.61593 0.0
C1322 C 0.27525 0.97532 0.85847 0.0
C1323 C 0.25922 0.97573 0.82959 0.0
C1324 C 0.22425 0.01126 0.76705 0.0
C1325 C 0.19734 0.99204 0.67323 0.0
C1326 C 0.21179 0.99302 0.7081 0.0
C1327 C 0.25484 0.99494 0.80759 0.0
C1328 C 0.23979 0.99444 0.77367 0.0
H1329 H 0.17238 0.95441 0.61698 0.0
H1330 H 0.19256 0.95698 0.67802 0.0
H1331 H 0.19825 0.02351 0.7306 0.0
H1332 H 0.29114 0.02846 0.85063 0.0
H1333 H 0.26305 0.02912 0.79991 0.0
C1334 C 0.46972 0.17766 0.62926 0.0
C1335 C 0.4909 0.17102 0.61731 0.0
C1336 C 0.46629 0.18781 0.66573 0.0
C1337 C 0.49189 0.19758 0.76232 0.0
H1338 H 0.46272 0.25432 0.75588 0.0
C1339 C 0.51156 0.26778 0.86526 0.0
C1340 C 0.49514 0.28307 0.87565 0.0
C1341 C 0.50714 0.25085 0.83951 0.0
C1342 C 0.47048 0.23831 0.75861 0.0
H1343 H 0.52485 0.16876 0.63484 0.0
H1344 H 0.51885 0.18625 0.69821 0.0
H1345 H 0.46156 0.22978 0.69994 0.0
H1346 H 0.46086 0.29192 0.86879 0.0
H1347 H 0.45312 0.26219 0.82404 0.0
H1348 H 0.50142 0.20637 0.82049 0.0
C1349 C 0.50489 0.18365 0.67964 0.0
C1350 C 0.46981 0.22425 0.72649 0.0
C1351 C 0.50836 0.1738 0.64315 0.0
C1352 C 0.47393 0.28049 0.86114 0.0
C1353 C 0.4695 0.26352 0.83536 0.0
C1354 C 0.49248 0.21158 0.7945 0.0
C1355 C 0.48392 0.19114 0.69102 0.0
C1356 C 0.48114 0.20407 0.72754 0.0
C1357 C 0.48618 0.24877 0.82363 0.0
C1358 C 0.48242 0.23242 0.79249 0.0
H1359 H 0.45597 0.17576 0.60988 0.0
H1360 H 0.44994 0.19338 0.67386 0.0
H1361 H 0.50049 0.18195 0.76414 0.0
H1362 H 0.52806 0.26925 0.87602 0.0
H1363 H 0.52046 0.23998 0.83073 0.0
C1364 C 0.3163 0.47808 0.6062 0.0
C1365 C 0.32336 0.49867 0.59265 0.0
C1366 C 0.30424 0.47616 0.64159 0.0
C1367 C 0.26922 0.50996 0.70746 0.0
H1368 H 0.27458 0.46086 0.78093 0.0
C1369 C 0.22355 0.5104 0.85578 0.0
C1370 C 0.21117 0.49178 0.86482 0.0
C1371 C 0.23927 0.50995 0.82548 0.0
C1372 C 0.27289 0.4746 0.76052 0.0
H1373 H 0.32443 0.53317 0.6065 0.0
H1374 H 0.30407 0.52976 0.66842 0.0
H1375 H 0.29844 0.46256 0.72209 0.0
H1376 H 0.2065 0.45767 0.85075 0.0
H1377 H 0.23408 0.45695 0.79758 0.0
H1378 H 0.24381 0.52207 0.74567 0.0
C1379 C 0.30715 0.51517 0.6513 0.0
C1380 C 0.28648 0.47556 0.72682 0.0
C1381 C 0.31895 0.51711 0.61587 0.0
C1382 C 0.21573 0.47231 0.8444 0.0
C1383 C 0.23156 0.47186 0.81405 0.0
C1384 C 0.25583 0.50908 0.74112 0.0
C1385 C 0.2992 0.49478 0.66417 0.0
C1386 C 0.28486 0.49335 0.70001 0.0
C1387 C 0.24301 0.49088 0.80357 0.0
C1388 C 0.25757 0.49149 0.76813 0.0
H1389 H 0.31943 0.46359 0.58882 0.0
H1390 H 0.29824 0.46024 0.6505 0.0
H1391 H 0.26707 0.52359 0.68696 0.0
H1392 H 0.22065 0.52559 0.87125 0.0
H1393 H 0.24815 0.52474 0.81852 0.0
C1394 C 0.01838 0.32115 0.61269 0.0
C1395 C 0.99678 0.32624 0.60175 0.0
C1396 C 0.02261 0.31096 0.6492 0.0
C1397 C 0.99839 0.29966 0.74799 0.0
H1398 H 0.03231 0.24552 0.74436 0.0
C1399 C 0.98662 0.23011 0.86112 0.0
C1400 C 0.00438 0.21636 0.87122 0.0
C1401 C 0.98913 0.24678 0.83287 0.0
C1402 C 0.02322 0.26084 0.74625 0.0
H1403 H 0.96277 0.3254 0.62093 0.0
H1404 H 0.97017 0.30784 0.6845 0.0
H1405 H 0.03068 0.26927 0.68588 0.0
H1406 H 0.03903 0.21006 0.86107 0.0
H1407 H 0.04348 0.23943 0.81194 0.0
H1408 H 0.99048 0.29105 0.80801 0.0
C1409 C 0.98383 0.31172 0.66502 0.0
C1410 C 0.02226 0.27443 0.71267 0.0
C1411 C 0.97959 0.32161 0.62845 0.0
C1412 C 0.02498 0.2203 0.85374 0.0
C1413 C 0.02751 0.23704 0.82545 0.0
C1414 C 0.99946 0.28617 0.78164 0.0
C1415 C 0.00534 0.30601 0.67557 0.0
C1416 C 0.00928 0.29361 0.71286 0.0
C1417 C 0.0095 0.2502 0.81411 0.0
C1418 C 0.0113 0.26624 0.78077 0.0
H1419 H 0.03195 0.32448 0.59264 0.0
H1420 H 0.03934 0.30677 0.65668 0.0
H1421 H 0.98853 0.31454 0.74911 0.0
H1422 H 0.97053 0.22759 0.87411 0.0
H1423 H 0.97483 0.25637 0.82453 0.0
C1424 C 0.22565 0.97778 0.3611 0.0
C1425 C 0.21217 0.99611 0.36882 0.0
C1426 C 0.24169 0.97867 0.33142 0.0
C1427 C 0.27382 0.01495 0.26563 0.0
H1428 H 0.27146 0.96588 0.19461 0.0
C1429 C 0.31722 0.01267 0.11134 0.0
C1430 C 0.32557 0.99229 0.09896 0.0
C1431 C 0.30533 0.0143 0.1469 0.0
C1432 C 0.27265 0.97954 0.21443 0.0
H1433 H 0.20581 0.03018 0.35316 0.0
H1434 H 0.23389 0.03165 0.30091 0.0
H1435 H 0.24773 0.96676 0.2527 0.0
H1436 H 0.32926 0.95795 0.1151 0.0
H1437 H 0.30915 0.96088 0.17734 0.0
H1438 H 0.29882 0.02771 0.22698 0.0
C1439 C 0.23202 0.01664 0.31798 0.0
C1440 C 0.259 0.98005 0.24773 0.0
C1441 C 0.2159 0.01575 0.34777 0.0
C1442 C 0.32274 0.97383 0.12358 0.0
C1443 C 0.31111 0.97549 0.15917 0.0
C1444 C 0.28765 0.01438 0.23225 0.0
C1445 C 0.24461 0.99789 0.30879 0.0
C1446 C 0.25949 0.99767 0.2738 0.0
C1447 C 0.30175 0.9956 0.17077 0.0
C1448 C 0.28728 0.99657 0.2064 0.0
H1449 H 0.22342 0.96249 0.37717 0.0
H1450 H 0.25146 0.9641 0.32548 0.0
H1451 H 0.27453 0.02872 0.28531 0.0
H1452 H 0.31913 0.02717 0.09286 0.0
H1453 H 0.29822 0.03001 0.15488 0.0
C1454 C 0.47582 0.22136 0.36125 0.0
C1455 C 0.4948 0.21736 0.3834 0.0
C1456 C 0.47585 0.23688 0.33036 0.0
C1457 C 0.51427 0.25996 0.25891 0.0
H1458 H 0.46844 0.30242 0.23428 0.0
C1459 C 0.52452 0.31916 0.12792 0.0
C1460 C 0.50631 0.32347 0.10411 0.0
C1461 C 0.52209 0.30847 0.16439 0.0
C1462 C 0.48126 0.29049 0.24054 0.0
H1463 H 0.52815 0.2276 0.39233 0.0
H1464 H 0.52817 0.2545 0.33851 0.0
H1465 H 0.46559 0.27988 0.29466 0.0
H1466 H 0.47115 0.32049 0.10015 0.0
H1467 H 0.46693 0.30108 0.1635 0.0
H1468 H 0.52967 0.26972 0.20466 0.0
C1469 C 0.51339 0.24545 0.34468 0.0
C1470 C 0.47965 0.27767 0.27516 0.0
C1471 C 0.51333 0.23008 0.37559 0.0
C1472 C 0.48547 0.31743 0.118 0.0
C1473 C 0.48306 0.30639 0.15438 0.0
C1474 C 0.51578 0.27252 0.22428 0.0
C1475 C 0.49489 0.24855 0.32102 0.0
C1476 C 0.49626 0.26242 0.28477 0.0
C1477 C 0.50143 0.30143 0.17769 0.0
C1478 C 0.49942 0.28809 0.21474 0.0
H1479 H 0.46124 0.21187 0.36661 0.0
H1480 H 0.46138 0.23893 0.31251 0.0
H1481 H 0.52707 0.24796 0.26509 0.0
H1482 H 0.54076 0.32391 0.11823 0.0
H1483 H 0.53652 0.30551 0.18197 0.0
C1484 C 0.27478 0.51342 0.35116 0.0
C1485 C 0.28863 0.49539 0.35929 0.0
C1486 C 0.25849 0.512 0.32296 0.0
C1487 C 0.22655 0.47416 0.26339 0.0
H1488 H 0.22583 0.523 0.18881 0.0
C1489 C 0.18146 0.4741 0.11289 0.0
C1490 C 0.17217 0.4941 0.10003 0.0
C1491 C 0.19365 0.47302 0.14762 0.0
C1492 C 0.22551 0.50938 0.20968 0.0
H1493 H 0.2955 0.46134 0.34578 0.0
H1494 H 0.26706 0.45894 0.29615 0.0
H1495 H 0.25039 0.52334 0.24437 0.0
H1496 H 0.16698 0.52825 0.11464 0.0
H1497 H 0.18761 0.52625 0.17539 0.0
H1498 H 0.20162 0.46018 0.22819 0.0
C1499 C 0.26879 0.47413 0.31177 0.0
C1500 C 0.23963 0.50958 0.24155 0.0
C1501 C 0.28513 0.47555 0.34006 0.0
C1502 C 0.17424 0.51267 0.1235 0.0
C1503 C 0.18617 0.51155 0.15822 0.0
C1504 C 0.21226 0.474 0.23141 0.0
C1505 C 0.25569 0.49252 0.30223 0.0
C1506 C 0.24027 0.49205 0.26887 0.0
C1507 C 0.19659 0.4919 0.1701 0.0
C1508 C 0.21153 0.49169 0.20432 0.0
H1509 H 0.27685 0.52886 0.36583 0.0
H1510 H 0.24836 0.52632 0.31677 0.0
H1511 H 0.22667 0.46045 0.28407 0.0
H1512 H 0.18014 0.45954 0.09529 0.0
H1513 H 0.20155 0.45766 0.15587 0.0
C1514 C 0.01682 0.17856 0.11763 0.0
C1515 C 0.99586 0.17379 0.10397 0.0
C1516 C 0.01927 0.1892 0.1536 0.0
C1517 C 0.99079 0.20252 0.2475 0.0
H1518 H 0.02564 0.25491 0.24416 0.0
C1519 C 0.97822 0.27188 0.35864 0.0
C1520 C 0.99611 0.28454 0.3692 0.0
C1521 C 0.98072 0.25549 0.33054 0.0
C1522 C 0.01621 0.24009 0.24603 0.0
H1523 H 0.96113 0.1757 0.11788 0.0
H1524 H 0.96545 0.19404 0.18062 0.0
H1525 H 0.02563 0.23104 0.18718 0.0
H1526 H 0.03093 0.28918 0.36001 0.0
H1527 H 0.03538 0.26024 0.3115 0.0
H1528 H 0.98112 0.21165 0.3061 0.0
C1529 C 0.97997 0.18956 0.16364 0.0
C1530 C 0.01619 0.22643 0.21327 0.0
C1531 C 0.97749 0.17919 0.12756 0.0
C1532 C 0.01677 0.27981 0.3523 0.0
C1533 C 0.0193 0.26332 0.32431 0.0
C1534 C 0.99095 0.21607 0.28038 0.0
C1535 C 0.00084 0.19498 0.17678 0.0
C1536 C 0.00306 0.2078 0.21332 0.0
C1537 C 0.00121 0.25124 0.3125 0.0
C1538 C 0.00322 0.23534 0.27969 0.0
H1539 H 0.03128 0.17466 0.10004 0.0
H1540 H 0.03556 0.1931 0.16312 0.0
H1541 H 0.98077 0.18808 0.24855 0.0
H1542 H 0.96207 0.27507 0.37108 0.0
H1543 H 0.96635 0.24677 0.32185 0.0
C1544 C 0.7282 0.02605 0.13974 0.0
C1545 C 0.71504 0.00784 0.13361 0.0
C1546 C 0.74434 0.02528 0.16841 0.0
C1547 C 0.77726 0.98927 0.23377 0.0
H1548 H 0.77361 0.03897 0.30357 0.0
C1549 C 0.81911 0.99132 0.3868 0.0
C1550 C 0.82664 0.01161 0.39943 0.0
C1551 C 0.80781 0.98988 0.35128 0.0
C1552 C 0.7752 0.02514 0.28404 0.0
H1553 H 0.70941 0.97406 0.15103 0.0
H1554 H 0.73769 0.97278 0.20142 0.0
H1555 H 0.75028 0.03804 0.24634 0.0
H1556 H 0.82954 0.04598 0.38374 0.0
H1557 H 0.81055 0.04338 0.32145 0.0
H1558 H 0.80224 0.97637 0.27182 0.0
C1559 C 0.73548 0.98762 0.1839 0.0
C1560 C 0.76176 0.0246 0.25123 0.0
C1561 C 0.71925 0.98839 0.15516 0.0
C1562 C 0.82365 0.03017 0.37503 0.0
C1563 C 0.81264 0.02869 0.33942 0.0
C1564 C 0.7909 0.98988 0.26662 0.0
C1565 C 0.74772 0.00629 0.19158 0.0
C1566 C 0.76263 0.00671 0.2257 0.0
C1567 C 0.80403 0.00868 0.32761 0.0
C1568 C 0.79004 0.00787 0.29211 0.0
H1569 H 0.72559 0.0412 0.12328 0.0
H1570 H 0.75382 0.03979 0.17319 0.0
H1571 H 0.77829 0.9753 0.21449 0.0
H1572 H 0.82112 0.97675 0.40513 0.0
H1573 H 0.80127 0.97424 0.34325 0.0
C1574 C 0.48448 0.8224 0.3627 0.0
C1575 C 0.50298 0.82545 0.38589 0.0
C1576 C 0.48622 0.81111 0.32729 0.0
C1577 C 0.52535 0.78874 0.25237 0.0
H1578 H 0.47822 0.74838 0.23594 0.0
C1579 C 0.52804 0.71718 0.1405 0.0
C1580 C 0.50861 0.71324 0.12026 0.0
C1581 C 0.52854 0.73328 0.16942 0.0
C1582 C 0.49137 0.75977 0.23978 0.0
H1583 H 0.53798 0.81977 0.38961 0.0
H1584 H 0.54096 0.79941 0.32801 0.0
H1585 H 0.477 0.77181 0.29315 0.0
H1586 H 0.47493 0.72408 0.11259 0.0
H1587 H 0.47586 0.75208 0.16286 0.0
H1588 H 0.53993 0.77597 0.19916 0.0
C1589 C 0.52516 0.80611 0.33688 0.0
C1590 C 0.49067 0.77327 0.27257 0.0
C1591 C 0.52346 0.8177 0.37222 0.0
C1592 C 0.49008 0.72649 0.12797 0.0
C1593 C 0.49058 0.7425 0.15686 0.0
C1594 C 0.52613 0.77504 0.21954 0.0
C1595 C 0.50644 0.80227 0.31448 0.0
C1596 C 0.50754 0.78805 0.2792 0.0
C1597 C 0.50961 0.74565 0.17863 0.0
C1598 C 0.50905 0.76053 0.21284 0.0
H1599 H 0.46853 0.82847 0.3722 0.0
H1600 H 0.47157 0.80899 0.31027 0.0
H1601 H 0.53855 0.80002 0.25648 0.0
H1602 H 0.54262 0.70728 0.13513 0.0
H1603 H 0.54341 0.73531 0.18584 0.0
C1604 C 0.67799 0.5327 0.38689 0.0
C1605 C 0.67337 0.511 0.39807 0.0
C1606 C 0.6877 0.53732 0.34999 0.0
C1607 C 0.69769 0.5149 0.25076 0.0
H1608 H 0.75324 0.54441 0.25348 0.0
C1609 C 0.76618 0.49847 0.13803 0.0
C1610 C 0.78122 0.51484 0.12809 0.0
C1611 C 0.74952 0.50238 0.16578 0.0
C1612 C 0.73751 0.53663 0.2518 0.0
H1613 H 0.67439 0.47727 0.37899 0.0
H1614 H 0.69094 0.48537 0.31459 0.0
H1615 H 0.72976 0.54356 0.31238 0.0
H1616 H 0.78982 0.5486 0.13779 0.0
H1617 H 0.76044 0.55554 0.18601 0.0
H1618 H 0.70557 0.50749 0.19057 0.0
C1619 C 0.68716 0.4988 0.33424 0.0
C1620 C 0.72409 0.53611 0.28563 0.0
C1621 C 0.67786 0.49414 0.37124 0.0
C1622 C 0.77857 0.5356 0.14503 0.0
C1623 C 0.76181 0.53954 0.17281 0.0
C1624 C 0.71098 0.5156 0.21683 0.0
C1625 C 0.69247 0.52036 0.32346 0.0
C1626 C 0.70446 0.52456 0.28581 0.0
C1627 C 0.74739 0.52281 0.18416 0.0
C1628 C 0.73145 0.52573 0.21741 0.0
H1629 H 0.67476 0.54599 0.40709 0.0
H1630 H 0.69167 0.55407 0.34232 0.0
H1631 H 0.68245 0.50615 0.25001 0.0
H1632 H 0.76768 0.48232 0.12543 0.0
H1633 H 0.73897 0.48899 0.17414 0.0
C1634 C 0.97378 0.78197 0.14436 0.0
C1635 C 0.99463 0.78603 0.12804 0.0
C1636 C 0.97088 0.76516 0.1724 0.0
C1637 C 0.9982 0.71587 0.21682 0.0
H1638 H 0.96531 0.73214 0.31115 0.0
C1639 C 0.01439 0.678 0.36983 0.0
C1640 C 0.99659 0.67359 0.39533 0.0
C1641 C 0.0111 0.68848 0.33343 0.0
C1642 C 0.9742 0.72716 0.28474 0.0
H1643 H 0.02857 0.77501 0.12698 0.0
H1644 H 0.02359 0.74608 0.1761 0.0
H1645 H 0.96488 0.75638 0.25326 0.0
H1646 H 0.96133 0.67633 0.40237 0.0
H1647 H 0.95563 0.69494 0.33863 0.0
H1648 H 0.00829 0.68711 0.2491 0.0
C1649 C 0.0094 0.75563 0.16705 0.0
C1650 C 0.97394 0.74103 0.2515 0.0
C1651 C 0.0123 0.77238 0.13907 0.0
C1652 C 0.97536 0.67948 0.3833 0.0
C1653 C 0.9721 0.6902 0.34695 0.0
C1654 C 0.99855 0.70207 0.25011 0.0
C1655 C 0.98875 0.75206 0.1846 0.0
C1656 C 0.98642 0.73584 0.21753 0.0
C1657 C 0.98997 0.69495 0.32181 0.0
C1658 C 0.98702 0.70786 0.28475 0.0
H1659 H 0.95981 0.79212 0.1363 0.0
H1660 H 0.95471 0.76264 0.18499 0.0
H1661 H 0.00762 0.71117 0.19084 0.0
H1662 H 0.03094 0.67363 0.3782 0.0
H1663 H 0.02522 0.69218 0.31495 0.0
C1664 C 0.41853 0.01724 0.97115 0.0
C1665 C 0.40679 0.00128 0.99259 0.0
C1666 C 0.44112 0.01891 0.9755 0.0
C1667 C 0.48745 0.00233 0.03931 0.0
H1668 H 0.52132 0.00688 0.94169 0.0
C1669 C 0.58103 0.9898 0.03627 0.0
C1670 C 0.59294 0.0055 0.0145 0.0
C1671 C 0.55834 0.98865 0.03258 0.0
C1672 C 0.5121 0.00578 0.96923 0.0
H1673 H 0.40954 0.97541 0.03716 0.0
H1674 H 0.4488 0.97833 0.04452 0.0
H1675 H 0.48149 0.00806 0.93956 0.0
H1676 H 0.59035 0.03157 0.97027 0.0
H1677 H 0.55095 0.02953 0.96402 0.0
H1678 H 0.51808 1.0 0.06897 0.0
C1679 C 0.44056 0.98958 0.02443 0.0
C1680 C 0.48928 0.00656 0.96804 0.0
C1681 C 0.418 0.98788 0.02007 0.0
C1682 C 0.58176 0.01927 0.98757 0.0
C1683 C 0.55912 0.01808 0.98385 0.0
C1684 C 0.51028 0.00155 0.0405 0.0
C1685 C 0.45245 0.00473 0.00146 0.0
C1686 C 0.4767 0.00483 0.00306 0.0
C1687 C 0.5471 0.00309 0.00694 0.0
C1688 C 0.52285 0.00324 0.00547 0.0
H1689 H 0.41044 0.02792 0.94987 0.0
H1690 H 0.4498 0.03103 0.95793 0.0
H1691 H 0.47822 0.00119 0.06684 0.0
H1692 H 0.58908 0.97887 0.05718 0.0
H1693 H 0.54956 0.97666 0.05026 0.0
C1694 C 0.52134 0.41553 0.01767 0.0
C1695 C 0.50638 0.40562 0.99261 0.0
C1696 C 0.52232 0.4383 0.01967 0.0
C1697 C 0.51009 0.48743 0.95962 0.0
H1698 H 0.51846 0.51842 0.05721 0.0
C1699 C 0.501 0.58109 0.97158 0.0
C1700 C 0.51454 0.59204 0.99777 0.0
C1701 C 0.50188 0.55832 0.96917 0.0
C1702 C 0.51649 0.50997 0.02961 0.0
H1703 H 0.47982 0.41203 0.95185 0.0
H1704 H 0.48145 0.45168 0.95579 0.0
H1705 H 0.51475 0.47875 0.05902 0.0
H1706 H 0.54071 0.58759 0.04001 0.0
H1707 H 0.54244 0.54786 0.03526 0.0
H1708 H 0.51179 0.51862 0.93019 0.0
C1709 C 0.4927 0.44179 0.97322 0.0
C1710 C 0.51426 0.48726 0.0307 0.0
C1711 C 0.49167 0.41904 0.97126 0.0
C1712 C 0.52991 0.57973 0.01972 0.0
C1713 C 0.53079 0.55693 0.01727 0.0
C1714 C 0.51237 0.51012 0.95851 0.0
C1715 C 0.5084 0.45166 0.99667 0.0
C1716 C 0.51085 0.47577 0.99575 0.0
C1717 C 0.51638 0.54594 0.99277 0.0
C1718 C 0.51544 0.52168 0.99352 0.0
H1719 H 0.53293 0.40574 0.03456 0.0
H1720 H 0.53464 0.44543 0.03794 0.0
H1721 H 0.50795 0.47898 0.93207 0.0
H1722 H 0.48896 0.58998 0.95417 0.0
H1723 H 0.49045 0.55038 0.95018 0.0
C1724 C 0.91389 0.48426 0.98073 0.0
C1725 C 0.90387 0.49986 0.00562 0.0
C1726 C 0.93667 0.48234 0.97809 0.0
C1727 C 0.98543 0.49329 0.03623 0.0
H1728 H 0.01716 0.48336 0.93785 0.0
C1729 C 0.07895 0.5005 0.02089 0.0
C1730 C 0.09035 0.48672 0.99443 0.0
C1731 C 0.0562 0.4999 0.02421 0.0
C1732 C 0.00851 0.48573 0.96568 0.0
H1733 H 0.91011 0.52654 0.04539 0.0
H1734 H 0.94975 0.52329 0.04036 0.0
H1735 H 0.97747 0.4881 0.93727 0.0
H1736 H 0.08671 0.4604 0.95274 0.0
H1737 H 0.047 0.45918 0.95908 0.0
H1738 H 0.01641 0.491 0.06468 0.0
C1739 C 0.93995 0.51226 0.02356 0.0
C1740 C 0.98578 0.48856 0.96529 0.0
C1741 C 0.9172 0.51423 0.02615 0.0
C1742 C 0.07851 0.47137 0.97322 0.0
C1743 C 0.0557 0.47079 0.97657 0.0
C1744 C 0.00813 0.4904 0.03665 0.0
C1745 C 0.94993 0.49595 0.00029 0.0
C1746 C 0.97403 0.49261 0.00051 0.0
C1747 C 0.04426 0.48547 0.00127 0.0
C1748 C 0.01997 0.48681 0.00134 0.0
H1749 H 0.90418 0.4729 0.96449 0.0
H1750 H 0.94388 0.46958 0.95997 0.0
H1751 H 0.97678 0.49591 0.06399 0.0
H1752 H 0.08747 0.51253 0.03777 0.0
H1753 H 0.04791 0.51154 0.04333 0.0
C1754 C 0.98449 0.08289 0.01811 0.0
C1755 C 0.00058 0.0942 0.99621 0.0
C1756 C 0.9849 0.06004 0.0202 0.0
C1757 C 0.01978 0.01089 0.00308 0.0
H1758 H 0.96433 0.98293 0.98585 0.0
C1759 C 0.01527 0.91834 0.97752 0.0
C1760 C 0.99914 0.90718 -0.0004 0.0
C1761 C 0.01482 0.94117 0.9748 0.0
C1762 C 0.9799 0.99048 0.99099 0.0
H1763 H 0.03047 0.09024 0.96129 0.0
H1764 H 0.0311 0.05047 0.96493 0.0
H1765 H 0.96568 0.0227 0.98938 0.0
H1766 H 0.96911 0.91136 0.03403 0.0
H1767 H 0.96843 0.95109 0.02934 0.0
H1768 H 0.03399 0.97867 0.00477 0.0
C1769 C 0.01818 0.05928 0.98052 0.0
C1770 C 0.98068 0.01326 0.99318 0.0
C1771 C 0.01777 0.08213 0.97837 0.0
C1772 C 0.98184 0.91936 0.01685 0.0
C1773 C 0.98141 0.94219 0.0141 0.0
C1774 C 0.019 0.98811 0.00091 0.0
C1775 C 0.00143 0.04797 0.00056 0.0
C1776 C 0.00062 0.02372 -0.00069 0.0
C1777 C 0.99821 0.95337 0.99397 0.0
C1778 C 0.99905 0.97764 0.99484 0.0
H1779 H 0.97104 0.0916 0.03239 0.0
H1780 H 0.972 0.0518 0.03655 0.0
H1781 H 0.03535 0.01843 0.00825 0.0
H1782 H 0.02879 0.90954 0.96365 0.0
H1783 H 0.02776 0.9493 0.95837 0.0
C1784 C 0.08086 0.98314 0.52345 0.0
C1785 C 0.09231 0.99857 0.50021 0.0
C1786 C 0.0581 0.98438 0.52686 0.0
C1787 C 0.00977 0.02045 0.51019 0.0
H1788 H 0.98013 0.9656 0.49566 0.0
C1789 C 0.91734 0.01832 0.48406 0.0
C1790 C 0.90558 0.00299 0.50699 0.0
C1791 C 0.94013 0.01708 0.48172 0.0
C1792 C 0.98816 0.98101 0.50007 0.0
H1793 H 0.0888 0.02823 0.46446 0.0
H1794 H 0.04915 0.03026 0.4703 0.0
H1795 H 0.01994 0.96587 0.49843 0.0
H1796 H 0.9086 0.97352 0.5434 0.0
H1797 H 0.94833 0.97146 0.53932 0.0
H1798 H 0.97798 0.0356 0.5117 0.0
C1799 C 0.05778 0.01723 0.48593 0.0
C1800 C 0.01095 0.98117 0.50184 0.0
C1801 C 0.08056 0.01602 0.48252 0.0
C1802 C 0.91709 0.98565 0.52555 0.0
C1803 C 0.9399 0.98442 0.52316 0.0
C1804 C 0.98697 0.0203 0.50839 0.0
C1805 C 0.04627 0.00106 0.50719 0.0
C1806 C 0.02201 0.00089 0.50688 0.0
C1807 C 0.95169 0.00048 0.50214 0.0
C1808 C 0.97592 0.00058 0.5032 0.0
H1809 H 0.08935 0.96955 0.53774 0.0
H1810 H 0.04971 0.97194 0.54415 0.0
H1811 H 0.01779 0.03587 0.51455 0.0
H1812 H 0.90906 0.03182 0.46914 0.0
H1813 H 0.94875 0.02942 0.46459 0.0
C1814 C 0.52065 0.91934 0.51627 0.0
C1815 C 0.50591 0.90691 0.49476 0.0
C1816 C 0.51966 0.94218 0.51456 0.0
C1817 C 0.48031 0.9871 0.49425 0.0
H1818 H 0.53154 0.02337 0.49892 0.0
C1819 C 0.47767 0.08178 0.4791 0.0
C1820 C 0.49212 0.09353 0.50244 0.0
C1821 C 0.47836 0.0589 0.47933 0.0
C1822 C 0.51706 0.01344 0.49812 0.0
H1823 H 0.47958 0.90892 0.45239 0.0
H1824 H 0.47822 0.94872 0.4489 0.0
H1825 H 0.53606 0.98384 0.49321 0.0
H1826 H 0.51752 0.09026 0.54649 0.0
H1827 H 0.51843 0.05048 0.54715 0.0
H1828 H 0.46133 0.01677 0.49906 0.0
C1829 C 0.49015 0.94076 0.46787 0.0
C1830 C 0.51966 0.99079 0.49472 0.0
C1831 C 0.4911 0.91791 0.4696 0.0
C1832 C 0.50625 0.08183 0.52786 0.0
C1833 C 0.50695 0.05899 0.52801 0.0
C1834 C 0.47771 0.00977 0.49754 0.0
C1835 C 0.50399 0.95315 0.4912 0.0
C1836 C 0.50132 0.97734 0.4929 0.0
C1837 C 0.49348 0.04729 0.50289 0.0
C1838 C 0.49606 0.02317 0.49975 0.0
H1839 H 0.53231 0.91148 0.53592 0.0
H1840 H 0.53051 0.95121 0.53306 0.0
H1841 H 0.46582 0.97718 0.49364 0.0
H1842 H 0.46653 0.0902 0.45921 0.0
H1843 H 0.46777 0.05035 0.45961 0.0
C1844 C 0.5841 0.48719 0.48207 0.0
C1845 C 0.5933 0.50204 0.5082 0.0
C1846 C 0.56142 0.4858 0.47888 0.0
C1847 C 0.51092 0.49699 0.5361 0.0
H1848 H 0.4823 0.48905 0.436 0.0
C1849 C 0.4177 0.50587 0.51643 0.0
C1850 C 0.40754 0.49225 0.48933 0.0
C1851 C 0.44036 0.50505 0.52083 0.0
C1852 C 0.49009 0.4909 0.46426 0.0
H1853 H 0.58577 0.5279 0.54986 0.0
H1854 H 0.54629 0.52565 0.54377 0.0
H1855 H 0.52188 0.49308 0.43724 0.0
H1856 H 0.4132 0.46601 0.4476 0.0
H1857 H 0.45271 0.46446 0.45574 0.0
H1858 H 0.47912 0.49497 0.5631 0.0
C1859 C 0.55664 0.51476 0.52643 0.0
C1860 C 0.51275 0.4933 0.46493 0.0
C1861 C 0.5793 0.51617 0.52963 0.0
C1862 C 0.42045 0.47686 0.46853 0.0
C1863 C 0.44313 0.47608 0.47293 0.0
C1864 C 0.48827 0.49459 0.53543 0.0
C1865 C 0.54745 0.49923 0.5017 0.0
C1866 C 0.5234 0.49654 0.50083 0.0
C1867 C 0.45338 0.49058 0.49832 0.0
C1868 C 0.47758 0.49166 0.49948 0.0
H1869 H 0.59435 0.47602 0.46514 0.0
H1870 H 0.55484 0.4736 0.45969 0.0
H1871 H 0.5187 0.49902 0.56433 0.0
H1872 H 0.40832 0.5179 0.53302 0.0
H1873 H 0.44774 0.51653 0.54048 0.0
C1874 C 0.97724 0.58126 0.52793 0.0
C1875 C 0.99223 0.5933 0.50472 0.0
C1876 C 0.97638 0.55849 0.5249 0.0
C1877 C 0.01161 0.51179 0.49624 0.0
H1878 H 0.95796 0.47899 0.50212 0.0
C1879 C 0.00876 0.4189 0.46817 0.0
C1880 C 0.99401 0.40636 0.49094 0.0
C1881 C 0.00894 0.44166 0.47143 0.0
C1882 C 0.97311 0.4879 0.501 0.0
H1883 H 0.01701 0.59085 0.45816 0.0
H1884 H 0.01521 0.55133 0.45259 0.0
H1885 H 0.95623 0.51891 0.50216 0.0
H1886 H 0.9686 0.40797 0.5365 0.0
H1887 H 0.96924 0.44757 0.54255 0.0
H1888 H 0.02852 0.48085 0.49517 0.0
C1889 C 0.00451 0.55944 0.4738 0.0
C1890 C 0.9721 0.51078 0.50089 0.0
C1891 C 0.00539 0.58215 0.47679 0.0
C1892 C 0.98014 0.41706 0.51834 0.0
C1893 C 0.98034 0.43982 0.52158 0.0
C1894 C 0.01263 0.48895 0.49641 0.0
C1895 C 0.99046 0.54729 0.49858 0.0
C1896 C 0.99134 0.52298 0.49833 0.0
C1897 C 0.99442 0.45242 0.49758 0.0
C1898 C 0.9934 0.47672 0.49868 0.0
H1899 H 0.96684 0.58926 0.54973 0.0
H1900 H 0.9654 0.5496 0.54448 0.0
H1901 H 0.02677 0.5207 0.49507 0.0
H1902 H 0.01967 0.41127 0.44673 0.0
H1903 H 0.0199 0.45088 0.45231 0.0
loop_
_geom_bond_atom_site_label_1
_geom_bond_atom_site_label_2
_geom_bond_distance
_geom_bond_site_symmetry_2
_ccdc_geom_bond_type
Co0 O2 2.143 . S
Co0 O8 2.074 . S
Co0 O11 2.093 . S
Co0 O24 2.097 1_565 S
Co0 N41 2.151 . S
Co0 N49 2.214 . S
Co1 O2 2.160 1_545 S
Co1 O7 2.024 1_545 S
Co1 O17 2.057 . S
Co1 O32 2.037 . S
Co1 N36 2.145 . S
Co1 N57 2.257 . S
O2 Co0 2.143 . S
O2 Co1 2.160 1_565 S
C3 O4 1.278 1_565 S
C3 O11 1.224 . S
O4 C3 1.278 1_545 S
C5 O6 1.248 1_545 S
C5 O17 1.229 . S
O6 C5 1.248 1_565 S
O7 Co1 2.024 1_565 S
O7 C33 1.300 . S
O8 Co0 2.074 . S
O8 C33 1.257 . S
H9 C34 0.930 . S
H10 C40 0.930 . S
O11 Co0 2.093 . S
O11 C3 1.224 . S
H12 C44 0.929 . S
H13 C46 0.930 . S
H14 C47 0.930 . S
H15 C45 0.929 . S
H16 C48 0.928 . S
O17 Co1 2.057 . S
O17 C5 1.229 . S
H18 C37 0.929 . S
H19 C38 0.930 . S
H20 C50 0.931 . S
H21 C42 0.929 . S
H22 C51 0.930 . S
H23 C43 0.931 . S
O24 Co0 2.097 1_545 S
O24 C52 1.214 . S
H25 C53 0.929 . S
H26 C54 0.929 . S
H27 C55 0.930 . S
H28 C56 0.929 . S
H29 C58 0.930 . S
H30 C35 0.930 . S
H31 C39 0.930 . S
O32 Co1 2.037 . S
O32 C52 1.234 . S
C33 O7 1.300 . S
C33 O8 1.257 . S
C34 H9 0.930 . S
C34 C37 1.388 . S
C34 C39 1.418 1_554 S
C35 H30 0.930 . S
C35 C38 1.406 . S
C35 C39 1.353 . S
N36 Co1 2.145 . S
N36 C37 1.397 . S
N36 C38 1.331 1_554 S
C37 H18 0.929 . S
C37 C34 1.388 . S
C37 N36 1.397 . S
C38 H19 0.930 . S
C38 C35 1.406 . S
C38 N36 1.331 1_556 S
C39 H31 0.930 . S
C39 C34 1.418 1_556 S
C39 C35 1.353 . S
C40 H10 0.930 . S
C40 N41 1.330 . S
C40 C42 1.446 . S
N41 Co0 2.151 . S
N41 C40 1.330 . S
N41 C45 1.418 . S
C42 H21 0.929 . S
C42 C40 1.446 . S
C42 C43 1.332 . S
C43 H23 0.931 . S
C43 C42 1.332 . S
C43 C44 1.267 . S
C44 H12 0.929 . S
C44 C43 1.267 . S
C44 C45 1.251 . S
C45 H15 0.929 . S
C45 N41 1.418 . S
C45 C44 1.251 . S
C46 H13 0.930 . S
C46 C48 1.406 . S
C46 C51 1.261 . S
C47 H14 0.930 . S
C47 N49 1.325 . S
C47 C50 1.357 . S
C48 H16 0.928 . S
C48 C46 1.406 . S
C48 N49 1.261 . S
N49 Co0 2.214 . S
N49 C47 1.325 . S
N49 C48 1.261 . S
C50 H20 0.931 . S
C50 C47 1.357 . S
C50 C51 1.312 . S
C51 H22 0.930 . S
C51 C46 1.261 . S
C51 C50 1.312 . S
C52 O24 1.214 . S
C52 O32 1.234 . S
C53 H25 0.929 . S
C53 C56 1.391 . S
C53 C58 1.391 . S
C54 H26 0.929 . S
C54 C55 1.390 . S
C54 N57 1.391 . S
C55 H27 0.930 . S
C55 C54 1.390 . S
C55 C56 1.392 . S
C56 H28 0.929 . S
C56 C53 1.391 . S
C56 C55 1.392 . S
N57 Co1 2.257 . S
N57 C54 1.391 . S
N57 C58 1.388 . S
C58 H29 0.930 . S
C58 C53 1.391 . S
C58 N57 1.388 . S
Co59 O61 2.143 . S
Co59 O67 2.074 . S
Co59 O70 2.093 . S
Co59 O83 2.097 . S
Co59 N100 2.151 . S
Co59 N108 2.214 . S
Co60 O61 2.160 . S
Co60 O66 2.058 . S
Co60 O76 2.057 . S
Co60 O91 2.037 . S
Co60 N95 2.145 . S
Co60 N116 2.257 . S
O61 Co59 2.143 . S
O61 Co60 2.160 . S
C62 O63 1.278 . S
C62 O70 1.224 . S
O63 C62 1.278 . S
C64 O65 1.245 . S
C64 O76 1.232 . S
O65 C64 1.245 . S
O66 Co60 2.058 . S
O66 C92 1.269 . S
O67 Co59 2.074 . S
O67 C92 1.257 . S
H68 C93 0.930 . S
H69 C99 0.930 . S
O70 Co59 2.093 . S
O70 C62 1.224 . S
H71 C103 0.929 . S
H72 C105 0.930 . S
H73 C106 0.930 . S
H74 C104 0.929 . S
H75 C107 0.928 . S
O76 Co60 2.057 . S
O76 C64 1.232 . S
H77 C96 0.929 . S
H78 C97 0.929 . S
H79 C109 0.931 . S
H80 C101 0.929 . S
H81 C110 0.930 . S
H82 C102 0.931 . S
O83 Co59 2.097 . S
O83 C111 1.214 . S
H84 C112 0.929 . S
H85 C113 0.929 . S
H86 C114 0.930 . S
H87 C115 0.929 . S
H88 C117 0.930 . S
H89 C94 0.930 . S
H90 C98 0.930 . S
O91 Co60 2.037 . S
O91 C111 1.234 . S
C92 O66 1.269 . S
C92 O67 1.257 . S
C93 H68 0.930 . S
C93 C96 1.388 . S
C93 C98 1.418 1_554 S
C94 H89 0.930 . S
C94 C97 1.404 1_556 S
C94 C98 1.353 . S
N95 Co60 2.145 . S
N95 C96 1.397 . S
N95 C97 1.334 . S
C96 H77 0.929 . S
C96 C93 1.388 . S
C96 N95 1.397 . S
C97 H78 0.929 . S
C97 C94 1.404 1_554 S
C97 N95 1.334 . S
C98 H90 0.930 . S
C98 C93 1.418 1_556 S
C98 C94 1.353 . S
C99 H69 0.930 . S
C99 N100 1.330 . S
C99 C101 1.446 . S
N100 Co59 2.151 . S
N100 C99 1.330 . S
N100 C104 1.418 . S
C101 H80 0.929 . S
C101 C99 1.446 . S
C101 C102 1.332 . S
C102 H82 0.931 . S
C102 C101 1.332 . S
C102 C103 1.267 . S
C103 H71 0.929 . S
C103 C102 1.267 . S
C103 C104 1.251 . S
C104 H74 0.929 . S
C104 N100 1.418 . S
C104 C103 1.251 . S
C105 H72 0.930 . S
C105 C107 1.406 . S
C105 C110 1.261 . S
C106 H73 0.930 . S
C106 N108 1.325 . S
C106 C109 1.357 . S
C107 H75 0.928 . S
C107 C105 1.406 . S
C107 N108 1.261 . S
N108 Co59 2.214 . S
N108 C106 1.325 . S
N108 C107 1.261 . S
C109 H79 0.931 . S
C109 C106 1.357 . S
C109 C110 1.312 . S
C110 H81 0.930 . S
C110 C105 1.261 . S
C110 C109 1.312 . S
C111 O83 1.214 . S
C111 O91 1.234 . S
C112 H84 0.929 . S
C112 C115 1.391 . S
C112 C117 1.391 . S
C113 H85 0.929 . S
C113 C114 1.390 . S
C113 N116 1.391 . S
C114 H86 0.930 . S
C114 C113 1.390 . S
C114 C115 1.392 . S
C115 H87 0.929 . S
C115 C112 1.391 . S
C115 C114 1.392 . S
N116 Co60 2.257 . S
N116 C113 1.391 . S
N116 C117 1.388 . S
C117 H88 0.930 . S
C117 C112 1.391 . S
C117 N116 1.388 . S
Co118 O120 2.143 . S
Co118 O126 2.074 . S
Co118 O129 2.093 . S
Co118 O142 2.097 . S
Co118 N159 2.151 . S
Co118 N167 2.214 . S
Co119 O120 2.160 . S
Co119 O125 2.058 . S
Co119 O135 2.057 . S
Co119 O150 2.037 . S
Co119 N154 2.145 . S
Co119 N175 2.257 . S
O120 Co118 2.143 . S
O120 Co119 2.160 . S
C121 O122 1.278 . S
C121 O129 1.224 . S
O122 C121 1.278 . S
C123 O124 1.245 . S
C123 O135 1.232 . S
O124 C123 1.245 . S
O125 Co119 2.058 . S
O125 C151 1.269 . S
O126 Co118 2.074 . S
O126 C151 1.257 . S
H127 C152 0.930 . S
H128 C158 0.930 . S
O129 Co118 2.093 . S
O129 C121 1.224 . S
H130 C162 0.929 . S
H131 C164 0.930 . S
H132 C165 0.930 . S
H133 C163 0.929 . S
H134 C166 0.928 . S
O135 Co119 2.057 . S
O135 C123 1.232 . S
H136 C155 0.929 . S
H137 C156 0.929 . S
H138 C168 0.931 . S
H139 C160 0.929 . S
H140 C169 0.930 . S
H141 C161 0.931 . S
O142 Co118 2.097 . S
O142 C170 1.214 . S
H143 C171 0.929 . S
H144 C172 0.929 . S
H145 C173 0.930 . S
H146 C174 0.929 . S
H147 C176 0.930 . S
H148 C153 0.930 . S
H149 C157 0.930 . S
O150 Co119 2.037 . S
O150 C170 1.234 . S
C151 O125 1.269 . S
C151 O126 1.257 . S
C152 H127 0.930 . S
C152 C155 1.388 . S
C152 C157 1.418 1_554 S
C153 H148 0.930 . S
C153 C156 1.404 1_556 S
C153 C157 1.353 . S
N154 Co119 2.145 . S
N154 C155 1.397 . S
N154 C156 1.334 . S
C155 H136 0.929 . S
C155 C152 1.388 . S
C155 N154 1.397 . S
C156 H137 0.929 . S
C156 C153 1.404 1_554 S
C156 N154 1.334 . S
C157 H149 0.930 . S
C157 C152 1.418 1_556 S
C157 C153 1.353 . S
C158 H128 0.930 . S
C158 N159 1.330 . S
C158 C160 1.446 . S
N159 Co118 2.151 . S
N159 C158 1.330 . S
N159 C163 1.418 . S
C160 H139 0.929 . S
C160 C158 1.446 . S
C160 C161 1.332 . S
C161 H141 0.931 . S
C161 C160 1.332 . S
C161 C162 1.267 . S
C162 H130 0.929 . S
C162 C161 1.267 . S
C162 C163 1.251 . S
C163 H133 0.929 . S
C163 N159 1.418 . S
C163 C162 1.251 . S
C164 H131 0.930 . S
C164 C166 1.406 . S
C164 C169 1.261 . S
C165 H132 0.930 . S
C165 N167 1.325 . S
C165 C168 1.357 . S
C166 H134 0.928 . S
C166 C164 1.406 . S
C166 N167 1.261 . S
N167 Co118 2.214 . S
N167 C165 1.325 . S
N167 C166 1.261 . S
C168 H138 0.931 . S
C168 C165 1.357 . S
C168 C169 1.312 . S
C169 H140 0.930 . S
C169 C164 1.261 . S
C169 C168 1.312 . S
C170 O142 1.214 . S
C170 O150 1.234 . S
C171 H143 0.929 . S
C171 C174 1.391 . S
C171 C176 1.391 . S
C172 H144 0.929 . S
C172 C173 1.390 . S
C172 N175 1.391 . S
C173 H145 0.930 . S
C173 C172 1.390 . S
C173 C174 1.392 . S
C174 H146 0.929 . S
C174 C171 1.391 . S
C174 C173 1.392 . S
N175 Co119 2.257 . S
N175 C172 1.391 . S
N175 C176 1.388 . S
C176 H147 0.930 . S
C176 C171 1.391 . S
C176 N175 1.388 . S
Co177 O179 2.143 . S
Co177 O185 2.074 . S
Co177 O188 2.093 . S
Co177 O201 2.097 1_655 S
Co177 N218 2.151 . S
Co177 N226 2.214 . S
Co178 O179 2.160 1_455 S
Co178 O184 2.052 1_455 S
Co178 O194 2.057 . S
Co178 O209 2.037 . S
Co178 N213 2.145 . S
Co178 N234 2.257 . S
O179 Co177 2.143 . S
O179 Co178 2.160 1_655 S
C180 O181 1.256 1_655 S
C180 O188 1.224 . S
O181 C180 1.256 1_455 S
C182 O183 1.245 . S
C182 O194 1.232 1_655 S
O183 C182 1.245 . S
O184 Co178 2.052 1_655 S
O184 C210 1.275 . S
O185 Co177 2.074 . S
O185 C210 1.257 . S
H186 C211 0.930 . S
H187 C217 0.930 . S
O188 Co177 2.093 . S
O188 C180 1.224 . S
H189 C221 0.929 . S
H190 C223 0.930 . S
H191 C224 0.930 . S
H192 C222 0.929 . S
H193 C225 0.928 . S
O194 Co178 2.057 . S
O194 C182 1.232 1_455 S
H195 C214 0.929 . S
H196 C215 0.929 . S
H197 C227 0.931 . S
H198 C219 0.929 . S
H199 C228 0.930 . S
H200 C220 0.931 . S
O201 Co177 2.097 1_455 S
O201 C229 1.214 . S
H202 C230 0.929 . S
H203 C231 0.929 . S
H204 C232 0.930 . S
H205 C233 0.929 . S
H206 C235 0.930 . S
H207 C212 0.930 . S
H208 C216 0.930 . S
O209 Co178 2.037 . S
O209 C229 1.234 . S
C210 O184 1.275 . S
C210 O185 1.257 . S
C211 H186 0.930 . S
C211 C214 1.388 . S
C211 C216 1.418 1_554 S
C212 H207 0.930 . S
C212 C215 1.404 . S
C212 C216 1.353 . S
N213 Co178 2.145 . S
N213 C214 1.397 . S
N213 C215 1.334 1_554 S
C214 H195 0.929 . S
C214 C211 1.388 . S
C214 N213 1.397 . S
C215 H196 0.929 . S
C215 C212 1.404 . S
C215 N213 1.334 1_556 S
C216 H208 0.930 . S
C216 C211 1.418 1_556 S
C216 C212 1.353 . S
C217 H187 0.930 . S
C217 N218 1.330 . S
C217 C219 1.446 . S
N218 Co177 2.151 . S
N218 C217 1.330 . S
N218 C222 1.418 . S
C219 H198 0.929 . S
C219 C217 1.446 . S
C219 C220 1.332 . S
C220 H200 0.931 . S
C220 C219 1.332 . S
C220 C221 1.267 . S
C221 H189 0.929 . S
C221 C220 1.267 . S
C221 C222 1.251 . S
C222 H192 0.929 . S
C222 N218 1.418 . S
C222 C221 1.251 . S
C223 H190 0.930 . S
C223 C225 1.406 . S
C223 C228 1.261 . S
C224 H191 0.930 . S
C224 N226 1.325 . S
C224 C227 1.357 . S
C225 H193 0.928 . S
C225 C223 1.406 . S
C225 N226 1.261 . S
N226 Co177 2.214 . S
N226 C224 1.325 . S
N226 C225 1.261 . S
C227 H197 0.931 . S
C227 C224 1.357 . S
C227 C228 1.312 . S
C228 H199 0.930 . S
C228 C223 1.261 . S
C228 C227 1.312 . S
C229 O201 1.214 . S
C229 O209 1.234 . S
C230 H202 0.929 . S
C230 C233 1.391 . S
C230 C235 1.391 . S
C231 H203 0.929 . S
C231 C232 1.390 . S
C231 N234 1.391 . S
C232 H204 0.930 . S
C232 C231 1.390 . S
C232 C233 1.392 . S
C233 H205 0.929 . S
C233 C230 1.391 . S
C233 C232 1.392 . S
N234 Co178 2.257 . S
N234 C231 1.391 . S
N234 C235 1.388 . S
C235 H206 0.930 . S
C235 C230 1.391 . S
C235 N234 1.388 . S
Co236 O238 2.143 . S
Co236 O244 2.074 . S
Co236 O247 2.093 . S
Co236 O260 2.097 1_545 S
Co236 N277 2.151 . S
Co236 N285 2.214 . S
Co237 O238 2.160 1_565 S
Co237 O243 2.052 1_565 S
Co237 O253 2.057 . S
Co237 O268 2.037 . S
Co237 N272 2.145 . S
Co237 N293 2.257 . S
O238 Co236 2.143 . S
O238 Co237 2.160 1_545 S
C239 O240 1.256 1_545 S
C239 O247 1.224 . S
O240 C239 1.256 1_565 S
C241 O242 1.245 . S
C241 O253 1.232 1_545 S
O242 C241 1.245 . S
O243 Co237 2.052 1_545 S
O243 C269 1.275 . S
O244 Co236 2.074 . S
O244 C269 1.257 . S
H245 C270 0.930 . S
H246 C276 0.930 . S
O247 Co236 2.093 . S
O247 C239 1.224 . S
H248 C280 0.929 . S
H249 C282 0.930 . S
H250 C283 0.930 . S
H251 C281 0.929 . S
H252 C284 0.928 . S
O253 Co237 2.057 . S
O253 C241 1.232 1_565 S
H254 C273 0.929 . S
H255 C274 0.929 . S
H256 C286 0.931 . S
H257 C278 0.929 . S
H258 C287 0.930 . S
H259 C279 0.931 . S
O260 Co236 2.097 1_565 S
O260 C288 1.214 . S
H261 C289 0.929 . S
H262 C290 0.929 . S
H263 C291 0.930 . S
H264 C292 0.929 . S
H265 C294 0.930 . S
H266 C271 0.930 . S
H267 C275 0.930 . S
O268 Co237 2.037 . S
O268 C288 1.234 . S
C269 O243 1.275 . S
C269 O244 1.257 . S
C270 H245 0.930 . S
C270 C273 1.388 . S
C270 C275 1.418 . S
C271 H266 0.930 . S
C271 C274 1.404 . S
C271 C275 1.353 . S
N272 Co237 2.145 . S
N272 C273 1.397 . S
N272 C274 1.334 . S
C273 H254 0.929 . S
C273 C270 1.388 . S
C273 N272 1.397 . S
C274 H255 0.929 . S
C274 C271 1.404 . S
C274 N272 1.334 . S
C275 H267 0.930 . S
C275 C270 1.418 . S
C275 C271 1.353 . S
C276 H246 0.930 . S
C276 N277 1.330 . S
C276 C278 1.446 . S
N277 Co236 2.151 . S
N277 C276 1.330 . S
N277 C281 1.418 . S
C278 H257 0.929 . S
C278 C276 1.446 . S
C278 C279 1.332 . S
C279 H259 0.931 . S
C279 C278 1.332 . S
C279 C280 1.267 . S
C280 H248 0.929 . S
C280 C279 1.267 . S
C280 C281 1.251 . S
C281 H251 0.929 . S
C281 N277 1.418 . S
C281 C280 1.251 . S
C282 H249 0.930 . S
C282 C284 1.406 . S
C282 C287 1.261 . S
C283 H250 0.930 . S
C283 N285 1.325 . S
C283 C286 1.357 . S
C284 H252 0.928 . S
C284 C282 1.406 . S
C284 N285 1.261 . S
N285 Co236 2.214 . S
N285 C283 1.325 . S
N285 C284 1.261 . S
C286 H256 0.931 . S
C286 C283 1.357 . S
C286 C287 1.312 . S
C287 H258 0.930 . S
C287 C282 1.261 . S
C287 C286 1.312 . S
C288 O260 1.214 . S
C288 O268 1.234 . S
C289 H261 0.929 . S
C289 C292 1.391 . S
C289 C294 1.391 . S
C290 H262 0.929 . S
C290 C291 1.390 . S
C290 N293 1.391 . S
C291 H263 0.930 . S
C291 C290 1.390 . S
C291 C292 1.392 . S
C292 H264 0.929 . S
C292 C289 1.391 . S
C292 C291 1.392 . S
N293 Co237 2.257 . S
N293 C290 1.391 . S
N293 C294 1.388 . S
C294 H265 0.930 . S
C294 C289 1.391 . S
C294 N293 1.388 . S
Co295 O297 2.143 . S
Co295 O303 2.074 . S
Co295 O306 2.093 . S
Co295 O319 2.097 . S
Co295 N336 2.151 . S
Co295 N344 2.214 . S
Co296 O297 2.160 . S
Co296 O302 2.058 . S
Co296 O312 2.057 . S
Co296 O327 2.037 . S
Co296 N331 2.145 . S
Co296 N352 2.257 . S
O297 Co295 2.143 . S
O297 Co296 2.160 . S
C298 O299 1.278 . S
C298 O306 1.224 . S
O299 C298 1.278 . S
C300 O301 1.245 . S
C300 O312 1.232 . S
O301 C300 1.245 . S
O302 Co296 2.058 . S
O302 C328 1.269 . S
O303 Co295 2.074 . S
O303 C328 1.257 . S
H304 C329 0.930 . S
H305 C335 0.930 . S
O306 Co295 2.093 . S
O306 C298 1.224 . S
H307 C339 0.929 . S
H308 C341 0.930 . S
H309 C342 0.930 . S
H310 C340 0.929 . S
H311 C343 0.928 . S
O312 Co296 2.057 . S
O312 C300 1.232 . S
H313 C332 0.929 . S
H314 C333 0.929 . S
H315 C345 0.931 . S
H316 C337 0.929 . S
H317 C346 0.930 . S
H318 C338 0.931 . S
O319 Co295 2.097 . S
O319 C347 1.214 . S
H320 C348 0.929 . S
H321 C349 0.929 . S
H322 C350 0.930 . S
H323 C351 0.929 . S
H324 C353 0.930 . S
H325 C330 0.930 . S
H326 C334 0.930 . S
O327 Co296 2.037 . S
O327 C347 1.234 . S
C328 O302 1.269 . S
C328 O303 1.257 . S
C329 H304 0.930 . S
C329 C332 1.388 . S
C329 C334 1.418 . S
C330 H325 0.930 . S
C330 C333 1.404 . S
C330 C334 1.353 . S
N331 Co296 2.145 . S
N331 C332 1.397 . S
N331 C333 1.334 . S
C332 H313 0.929 . S
C332 C329 1.388 . S
C332 N331 1.397 . S
C333 H314 0.929 . S
C333 C330 1.404 . S
C333 N331 1.334 . S
C334 H326 0.930 . S
C334 C329 1.418 . S
C334 C330 1.353 . S
C335 H305 0.930 . S
C335 N336 1.330 . S
C335 C337 1.446 . S
N336 Co295 2.151 . S
N336 C335 1.330 . S
N336 C340 1.418 . S
C337 H316 0.929 . S
C337 C335 1.446 . S
C337 C338 1.332 . S
C338 H318 0.931 . S
C338 C337 1.332 . S
C338 C339 1.267 . S
C339 H307 0.929 . S
C339 C338 1.267 . S
C339 C340 1.251 . S
C340 H310 0.929 . S
C340 N336 1.418 . S
C340 C339 1.251 . S
C341 H308 0.930 . S
C341 C343 1.406 . S
C341 C346 1.261 . S
C342 H309 0.930 . S
C342 N344 1.325 . S
C342 C345 1.357 . S
C343 H311 0.928 . S
C343 C341 1.406 . S
C343 N344 1.261 . S
N344 Co295 2.214 . S
N344 C342 1.325 . S
N344 C343 1.261 . S
C345 H315 0.931 . S
C345 C342 1.357 . S
C345 C346 1.312 . S
C346 H317 0.930 . S
C346 C341 1.261 . S
C346 C345 1.312 . S
C347 O319 1.214 . S
C347 O327 1.234 . S
C348 H320 0.929 . S
C348 C351 1.391 . S
C348 C353 1.391 . S
C349 H321 0.929 . S
C349 C350 1.390 . S
C349 N352 1.391 . S
C350 H322 0.930 . S
C350 C349 1.390 . S
C350 C351 1.392 . S
C351 H323 0.929 . S
C351 C348 1.391 . S
C351 C350 1.392 . S
N352 Co296 2.257 . S
N352 C349 1.391 . S
N352 C353 1.388 . S
C353 H324 0.930 . S
C353 C348 1.391 . S
C353 N352 1.388 . S
Co354 O356 2.143 . S
Co354 O362 2.074 . S
Co354 O365 2.093 . S
Co354 O378 2.097 . S
Co354 N395 2.151 . S
Co354 N403 2.214 . S
Co355 O356 2.160 . S
Co355 O361 2.058 . S
Co355 O371 2.057 . S
Co355 O386 2.037 . S
Co355 N390 2.145 . S
Co355 N411 2.257 . S
O356 Co354 2.143 . S
O356 Co355 2.160 . S
C357 O358 1.278 . S
C357 O365 1.224 . S
O358 C357 1.278 . S
C359 O360 1.245 . S
C359 O371 1.232 . S
O360 C359 1.245 . S
O361 Co355 2.058 . S
O361 C387 1.269 . S
O362 Co354 2.074 . S
O362 C387 1.257 . S
H363 C388 0.930 . S
H364 C394 0.930 . S
O365 Co354 2.093 . S
O365 C357 1.224 . S
H366 C398 0.929 . S
H367 C400 0.930 . S
H368 C401 0.930 . S
H369 C399 0.929 . S
H370 C402 0.928 . S
O371 Co355 2.057 . S
O371 C359 1.232 . S
H372 C391 0.929 . S
H373 C392 0.929 . S
H374 C404 0.931 . S
H375 C396 0.929 . S
H376 C405 0.930 . S
H377 C397 0.931 . S
O378 Co354 2.097 . S
O378 C406 1.214 . S
H379 C407 0.929 . S
H380 C408 0.929 . S
H381 C409 0.930 . S
H382 C410 0.929 . S
H383 C412 0.930 . S
H384 C389 0.930 . S
H385 C393 0.930 . S
O386 Co355 2.037 . S
O386 C406 1.234 . S
C387 O361 1.269 . S
C387 O362 1.257 . S
C388 H363 0.930 . S
C388 C391 1.388 . S
C388 C393 1.418 . S
C389 H384 0.930 . S
C389 C392 1.404 . S
C389 C393 1.353 . S
N390 Co355 2.145 . S
N390 C391 1.397 . S
N390 C392 1.334 . S
C391 H372 0.929 . S
C391 C388 1.388 . S
C391 N390 1.397 . S
C392 H373 0.929 . S
C392 C389 1.404 . S
C392 N390 1.334 . S
C393 H385 0.930 . S
C393 C388 1.418 . S
C393 C389 1.353 . S
C394 H364 0.930 . S
C394 N395 1.330 . S
C394 C396 1.446 . S
N395 Co354 2.151 . S
N395 C394 1.330 . S
N395 C399 1.418 . S
C396 H375 0.929 . S
C396 C394 1.446 . S
C396 C397 1.332 . S
C397 H377 0.931 . S
C397 C396 1.332 . S
C397 C398 1.267 . S
C398 H366 0.929 . S
C398 C397 1.267 . S
C398 C399 1.251 . S
C399 H369 0.929 . S
C399 N395 1.418 . S
C399 C398 1.251 . S
C400 H367 0.930 . S
C400 C402 1.406 . S
C400 C405 1.261 . S
C401 H368 0.930 . S
C401 N403 1.325 . S
C401 C404 1.357 . S
C402 H370 0.928 . S
C402 C400 1.406 . S
C402 N403 1.261 . S
N403 Co354 2.214 . S
N403 C401 1.325 . S
N403 C402 1.261 . S
C404 H374 0.931 . S
C404 C401 1.357 . S
C404 C405 1.312 . S
C405 H376 0.930 . S
C405 C400 1.261 . S
C405 C404 1.312 . S
C406 O378 1.214 . S
C406 O386 1.234 . S
C407 H379 0.929 . S
C407 C410 1.391 . S
C407 C412 1.391 . S
C408 H380 0.929 . S
C408 C409 1.390 . S
C408 N411 1.391 . S
C409 H381 0.930 . S
C409 C408 1.390 . S
C409 C410 1.392 . S
C410 H382 0.929 . S
C410 C407 1.391 . S
C410 C409 1.392 . S
N411 Co355 2.257 . S
N411 C408 1.391 . S
N411 C412 1.388 . S
C412 H383 0.930 . S
C412 C407 1.391 . S
C412 N411 1.388 . S
Co413 O415 2.143 . S
Co413 O421 2.074 . S
Co413 O424 2.093 . S
Co413 O437 2.097 1_455 S
Co413 N454 2.151 . S
Co413 N462 2.214 . S
Co414 O415 2.160 1_655 S
Co414 O420 2.024 1_655 S
Co414 O430 2.057 . S
Co414 O445 2.037 . S
Co414 N449 2.145 . S
Co414 N470 2.257 . S
O415 Co413 2.143 . S
O415 Co414 2.160 1_455 S
C416 O417 1.278 1_455 S
C416 O424 1.224 . S
O417 C416 1.278 1_655 S
C418 O419 1.248 1_655 S
C418 O430 1.229 . S
O419 C418 1.248 1_455 S
O420 Co414 2.024 1_455 S
O420 C446 1.300 . S
O421 Co413 2.074 . S
O421 C446 1.257 . S
H422 C447 0.930 . S
H423 C453 0.930 . S
O424 Co413 2.093 . S
O424 C416 1.224 . S
H425 C457 0.929 . S
H426 C459 0.930 . S
H427 C460 0.930 . S
H428 C458 0.929 . S
H429 C461 0.928 . S
O430 Co414 2.057 . S
O430 C418 1.229 . S
H431 C450 0.929 . S
H432 C451 0.929 . S
H433 C463 0.931 . S
H434 C455 0.929 . S
H435 C464 0.930 . S
H436 C456 0.931 . S
O437 Co413 2.097 1_655 S
O437 C465 1.214 . S
H438 C466 0.929 . S
H439 C467 0.929 . S
H440 C468 0.930 . S
H441 C469 0.929 . S
H442 C471 0.930 . S
H443 C448 0.930 . S
H444 C452 0.930 . S
O445 Co414 2.037 . S
O445 C465 1.234 . S
C446 O420 1.300 . S
C446 O421 1.257 . S
C447 H422 0.930 . S
C447 C450 1.388 . S
C447 C452 1.418 . S
C448 H443 0.930 . S
C448 C451 1.404 . S
C448 C452 1.353 . S
N449 Co414 2.145 . S
N449 C450 1.397 . S
N449 C451 1.334 . S
C450 H431 0.929 . S
C450 C447 1.388 . S
C450 N449 1.397 . S
C451 H432 0.929 . S
C451 C448 1.404 . S
C451 N449 1.334 . S
C452 H444 0.930 . S
C452 C447 1.418 . S
C452 C448 1.353 . S
C453 H423 0.930 . S
C453 N454 1.330 . S
C453 C455 1.446 . S
N454 Co413 2.151 . S
N454 C453 1.330 . S
N454 C458 1.418 . S
C455 H434 0.929 . S
C455 C453 1.446 . S
C455 C456 1.332 . S
C456 H436 0.931 . S
C456 C455 1.332 . S
C456 C457 1.267 . S
C457 H425 0.929 . S
C457 C456 1.267 . S
C457 C458 1.251 . S
C458 H428 0.929 . S
C458 N454 1.418 . S
C458 C457 1.251 . S
C459 H426 0.930 . S
C459 C461 1.406 . S
C459 C464 1.261 . S
C460 H427 0.930 . S
C460 N462 1.325 . S
C460 C463 1.357 . S
C461 H429 0.928 . S
C461 C459 1.406 . S
C461 N462 1.261 . S
N462 Co413 2.214 . S
N462 C460 1.325 . S
N462 C461 1.261 . S
C463 H433 0.931 . S
C463 C460 1.357 . S
C463 C464 1.312 . S
C464 H435 0.930 . S
C464 C459 1.261 . S
C464 C463 1.312 . S
C465 O437 1.214 . S
C465 O445 1.234 . S
C466 H438 0.929 . S
C466 C469 1.391 . S
C466 C471 1.391 . S
C467 H439 0.929 . S
C467 C468 1.390 . S
C467 N470 1.391 . S
C468 H440 0.930 . S
C468 C467 1.390 . S
C468 C469 1.392 . S
C469 H441 0.929 . S
C469 C466 1.391 . S
C469 C468 1.392 . S
N470 Co414 2.257 . S
N470 C467 1.391 . S
N470 C471 1.388 . S
C471 H442 0.930 . S
C471 C466 1.391 . S
C471 N470 1.388 . S
Co472 O474 2.143 . S
Co472 O480 2.074 . S
Co472 O483 2.093 . S
Co472 O496 2.097 1_545 S
Co472 N513 2.151 . S
Co472 N521 2.214 . S
Co473 O474 2.160 1_565 S
Co473 O479 2.024 1_565 S
Co473 O489 2.057 . S
Co473 O504 2.037 . S
Co473 N508 2.145 . S
Co473 N529 2.257 . S
O474 Co472 2.143 . S
O474 Co473 2.160 1_545 S
C475 O476 1.278 1_545 S
C475 O483 1.224 . S
O476 C475 1.278 1_565 S
C477 O478 1.248 1_565 S
C477 O489 1.229 . S
O478 C477 1.248 1_545 S
O479 Co473 2.024 1_545 S
O479 C505 1.300 . S
O480 Co472 2.074 . S
O480 C505 1.257 . S
H481 C506 0.930 . S
H482 C512 0.930 . S
O483 Co472 2.093 . S
O483 C475 1.224 . S
H484 C516 0.929 . S
H485 C518 0.930 . S
H486 C519 0.930 . S
H487 C517 0.929 . S
H488 C520 0.928 . S
O489 Co473 2.057 . S
O489 C477 1.229 . S
H490 C509 0.929 . S
H491 C510 0.930 . S
H492 C522 0.931 . S
H493 C514 0.929 . S
H494 C523 0.930 . S
H495 C515 0.931 . S
O496 Co472 2.097 1_565 S
O496 C524 1.214 . S
H497 C525 0.929 . S
H498 C526 0.929 . S
H499 C527 0.930 . S
H500 C528 0.929 . S
H501 C530 0.930 . S
H502 C507 0.930 . S
H503 C511 0.930 . S
O504 Co473 2.037 . S
O504 C524 1.234 . S
C505 O479 1.300 . S
C505 O480 1.257 . S
C506 H481 0.930 . S
C506 C509 1.388 . S
C506 C511 1.418 1_556 S
C507 H502 0.930 . S
C507 C510 1.406 . S
C507 C511 1.353 . S
N508 Co473 2.145 . S
N508 C509 1.397 . S
N508 C510 1.331 1_556 S
C509 H490 0.929 . S
C509 C506 1.388 . S
C509 N508 1.397 . S
C510 H491 0.930 . S
C510 C507 1.406 . S
C510 N508 1.331 1_554 S
C511 H503 0.930 . S
C511 C506 1.418 1_554 S
C511 C507 1.353 . S
C512 H482 0.930 . S
C512 N513 1.330 . S
C512 C514 1.446 . S
N513 Co472 2.151 . S
N513 C512 1.330 . S
N513 C517 1.418 . S
C514 H493 0.929 . S
C514 C512 1.446 . S
C514 C515 1.332 . S
C515 H495 0.931 . S
C515 C514 1.332 . S
C515 C516 1.267 . S
C516 H484 0.929 . S
C516 C515 1.267 . S
C516 C517 1.251 . S
C517 H487 0.929 . S
C517 N513 1.418 . S
C517 C516 1.251 . S
C518 H485 0.930 . S
C518 C520 1.406 . S
C518 C523 1.261 . S
C519 H486 0.930 . S
C519 N521 1.325 . S
C519 C522 1.357 . S
C520 H488 0.928 . S
C520 C518 1.406 . S
C520 N521 1.261 . S
N521 Co472 2.214 . S
N521 C519 1.325 . S
N521 C520 1.261 . S
C522 H492 0.931 . S
C522 C519 1.357 . S
C522 C523 1.312 . S
C523 H494 0.930 . S
C523 C518 1.261 . S
C523 C522 1.312 . S
C524 O496 1.214 . S
C524 O504 1.234 . S
C525 H497 0.929 . S
C525 C528 1.391 . S
C525 C530 1.391 . S
C526 H498 0.929 . S
C526 C527 1.390 . S
C526 N529 1.391 . S
C527 H499 0.930 . S
C527 C526 1.390 . S
C527 C528 1.392 . S
C528 H500 0.929 . S
C528 C525 1.391 . S
C528 C527 1.392 . S
N529 Co473 2.257 . S
N529 C526 1.391 . S
N529 C530 1.388 . S
C530 H501 0.930 . S
C530 C525 1.391 . S
C530 N529 1.388 . S
Co531 O533 2.143 . S
Co531 O539 2.074 . S
Co531 O542 2.093 . S
Co531 O555 2.097 . S
Co531 N572 2.151 . S
Co531 N580 2.214 . S
Co532 O533 2.160 . S
Co532 O538 2.058 . S
Co532 O548 2.057 . S
Co532 O563 2.037 . S
Co532 N567 2.145 . S
Co532 N588 2.257 . S
O533 Co531 2.143 . S
O533 Co532 2.160 . S
C534 O535 1.278 . S
C534 O542 1.224 . S
O535 C534 1.278 . S
C536 O537 1.245 . S
C536 O548 1.232 . S
O537 C536 1.245 . S
O538 Co532 2.058 . S
O538 C564 1.269 . S
O539 Co531 2.074 . S
O539 C564 1.257 . S
H540 C565 0.930 . S
H541 C571 0.930 . S
O542 Co531 2.093 . S
O542 C534 1.224 . S
H543 C575 0.929 . S
H544 C577 0.930 . S
H545 C578 0.930 . S
H546 C576 0.929 . S
H547 C579 0.928 . S
O548 Co532 2.057 . S
O548 C536 1.232 . S
H549 C568 0.929 . S
H550 C569 0.929 . S
H551 C581 0.931 . S
H552 C573 0.929 . S
H553 C582 0.930 . S
H554 C574 0.931 . S
O555 Co531 2.097 . S
O555 C583 1.214 . S
H556 C584 0.929 . S
H557 C585 0.929 . S
H558 C586 0.930 . S
H559 C587 0.929 . S
H560 C589 0.930 . S
H561 C566 0.930 . S
H562 C570 0.930 . S
O563 Co532 2.037 . S
O563 C583 1.234 . S
C564 O538 1.269 . S
C564 O539 1.257 . S
C565 H540 0.930 . S
C565 C568 1.388 . S
C565 C570 1.418 1_556 S
C566 H561 0.930 . S
C566 C569 1.404 1_554 S
C566 C570 1.353 . S
N567 Co532 2.145 . S
N567 C568 1.397 . S
N567 C569 1.334 . S
C568 H549 0.929 . S
C568 C565 1.388 . S
C568 N567 1.397 . S
C569 H550 0.929 . S
C569 C566 1.404 1_556 S
C569 N567 1.334 . S
C570 H562 0.930 . S
C570 C565 1.418 1_554 S
C570 C566 1.353 . S
C571 H541 0.930 . S
C571 N572 1.330 . S
C571 C573 1.446 . S
N572 Co531 2.151 . S
N572 C571 1.330 . S
N572 C576 1.418 . S
C573 H552 0.929 . S
C573 C571 1.446 . S
C573 C574 1.332 . S
C574 H554 0.931 . S
C574 C573 1.332 . S
C574 C575 1.267 . S
C575 H543 0.929 . S
C575 C574 1.267 . S
C575 C576 1.251 . S
C576 H546 0.929 . S
C576 N572 1.418 . S
C576 C575 1.251 . S
C577 H544 0.930 . S
C577 C579 1.406 . S
C577 C582 1.261 . S
C578 H545 0.930 . S
C578 N580 1.325 . S
C578 C581 1.357 . S
C579 H547 0.928 . S
C579 C577 1.406 . S
C579 N580 1.261 . S
N580 Co531 2.214 . S
N580 C578 1.325 . S
N580 C579 1.261 . S
C581 H551 0.931 . S
C581 C578 1.357 . S
C581 C582 1.312 . S
C582 H553 0.930 . S
C582 C577 1.261 . S
C582 C581 1.312 . S
C583 O555 1.214 . S
C583 O563 1.234 . S
C584 H556 0.929 . S
C584 C587 1.391 . S
C584 C589 1.391 . S
C585 H557 0.929 . S
C585 C586 1.390 . S
C585 N588 1.391 . S
C586 H558 0.930 . S
C586 C585 1.390 . S
C586 C587 1.392 . S
C587 H559 0.929 . S
C587 C584 1.391 . S
C587 C586 1.392 . S
N588 Co532 2.257 . S
N588 C585 1.391 . S
N588 C589 1.388 . S
C589 H560 0.930 . S
C589 C584 1.391 . S
C589 N588 1.388 . S
Co590 O592 2.143 . S
Co590 O598 2.074 . S
Co590 O601 2.093 . S
Co590 O614 2.097 . S
Co590 N631 2.151 . S
Co590 N639 2.214 . S
Co591 O592 2.160 . S
Co591 O597 2.058 . S
Co591 O607 2.057 . S
Co591 O622 2.037 . S
Co591 N626 2.145 . S
Co591 N647 2.257 . S
O592 Co590 2.143 . S
O592 Co591 2.160 . S
C593 O594 1.278 . S
C593 O601 1.224 . S
O594 C593 1.278 . S
C595 O596 1.245 . S
C595 O607 1.232 . S
O596 C595 1.245 . S
O597 Co591 2.058 . S
O597 C623 1.269 . S
O598 Co590 2.074 . S
O598 C623 1.257 . S
H599 C624 0.930 . S
H600 C630 0.930 . S
O601 Co590 2.093 . S
O601 C593 1.224 . S
H602 C634 0.929 . S
H603 C636 0.930 . S
H604 C637 0.930 . S
H605 C635 0.929 . S
H606 C638 0.928 . S
O607 Co591 2.057 . S
O607 C595 1.232 . S
H608 C627 0.929 . S
H609 C628 0.929 . S
H610 C640 0.931 . S
H611 C632 0.929 . S
H612 C641 0.930 . S
H613 C633 0.931 . S
O614 Co590 2.097 . S
O614 C642 1.214 . S
H615 C643 0.929 . S
H616 C644 0.929 . S
H617 C645 0.930 . S
H618 C646 0.929 . S
H619 C648 0.930 . S
H620 C625 0.930 . S
H621 C629 0.930 . S
O622 Co591 2.037 . S
O622 C642 1.234 . S
C623 O597 1.269 . S
C623 O598 1.257 . S
C624 H599 0.930 . S
C624 C627 1.388 . S
C624 C629 1.418 1_556 S
C625 H620 0.930 . S
C625 C628 1.404 1_554 S
C625 C629 1.353 . S
N626 Co591 2.145 . S
N626 C627 1.397 . S
N626 C628 1.334 . S
C627 H608 0.929 . S
C627 C624 1.388 . S
C627 N626 1.397 . S
C628 H609 0.929 . S
C628 C625 1.404 1_556 S
C628 N626 1.334 . S
C629 H621 0.930 . S
C629 C624 1.418 1_554 S
C629 C625 1.353 . S
C630 H600 0.930 . S
C630 N631 1.330 . S
C630 C632 1.446 . S
N631 Co590 2.151 . S
N631 C630 1.330 . S
N631 C635 1.418 . S
C632 H611 0.929 . S
C632 C630 1.446 . S
C632 C633 1.332 . S
C633 H613 0.931 . S
C633 C632 1.332 . S
C633 C634 1.267 . S
C634 H602 0.929 . S
C634 C633 1.267 . S
C634 C635 1.251 . S
C635 H605 0.929 . S
C635 N631 1.418 . S
C635 C634 1.251 . S
C636 H603 0.930 . S
C636 C638 1.406 . S
C636 C641 1.261 . S
C637 H604 0.930 . S
C637 N639 1.325 . S
C637 C640 1.357 . S
C638 H606 0.928 . S
C638 C636 1.406 . S
C638 N639 1.261 . S
N639 Co590 2.214 . S
N639 C637 1.325 . S
N639 C638 1.261 . S
C640 H610 0.931 . S
C640 C637 1.357 . S
C640 C641 1.312 . S
C641 H612 0.930 . S
C641 C636 1.261 . S
C641 C640 1.312 . S
C642 O614 1.214 . S
C642 O622 1.234 . S
C643 H615 0.929 . S
C643 C646 1.391 . S
C643 C648 1.391 . S
C644 H616 0.929 . S
C644 C645 1.390 . S
C644 N647 1.391 . S
C645 H617 0.930 . S
C645 C644 1.390 . S
C645 C646 1.392 . S
C646 H618 0.929 . S
C646 C643 1.391 . S
C646 C645 1.392 . S
N647 Co591 2.257 . S
N647 C644 1.391 . S
N647 C648 1.388 . S
C648 H619 0.930 . S
C648 C643 1.391 . S
C648 N647 1.388 . S
Co649 O651 2.143 . S
Co649 O657 2.074 . S
Co649 O660 2.093 . S
Co649 O673 2.097 1_455 S
Co649 N690 2.151 . S
Co649 N698 2.214 . S
Co650 O651 2.160 1_655 S
Co650 O656 2.052 1_655 S
Co650 O666 2.057 . S
Co650 O681 2.037 . S
Co650 N685 2.145 . S
Co650 N706 2.257 . S
O651 Co649 2.143 . S
O651 Co650 2.160 1_455 S
C652 O653 1.256 1_455 S
C652 O660 1.224 . S
O653 C652 1.256 1_655 S
C654 O655 1.245 . S
C654 O666 1.232 1_455 S
O655 C654 1.245 . S
O656 Co650 2.052 1_455 S
O656 C682 1.275 . S
O657 Co649 2.074 . S
O657 C682 1.257 . S
H658 C683 0.930 . S
H659 C689 0.930 . S
O660 Co649 2.093 . S
O660 C652 1.224 . S
H661 C693 0.929 . S
H662 C695 0.930 . S
H663 C696 0.930 . S
H664 C694 0.929 . S
H665 C697 0.928 . S
O666 Co650 2.057 . S
O666 C654 1.232 1_655 S
H667 C686 0.929 . S
H668 C687 0.929 . S
H669 C699 0.931 . S
H670 C691 0.929 . S
H671 C700 0.930 . S
H672 C692 0.931 . S
O673 Co649 2.097 1_655 S
O673 C701 1.214 . S
H674 C702 0.929 . S
H675 C703 0.929 . S
H676 C704 0.930 . S
H677 C705 0.929 . S
H678 C707 0.930 . S
H679 C684 0.930 . S
H680 C688 0.930 . S
O681 Co650 2.037 . S
O681 C701 1.234 . S
C682 O656 1.275 . S
C682 O657 1.257 . S
C683 H658 0.930 . S
C683 C686 1.388 . S
C683 C688 1.418 1_556 S
C684 H679 0.930 . S
C684 C687 1.404 . S
C684 C688 1.353 . S
N685 Co650 2.145 . S
N685 C686 1.397 . S
N685 C687 1.334 1_556 S
C686 H667 0.929 . S
C686 C683 1.388 . S
C686 N685 1.397 . S
C687 H668 0.929 . S
C687 C684 1.404 . S
C687 N685 1.334 1_554 S
C688 H680 0.930 . S
C688 C683 1.418 1_554 S
C688 C684 1.353 . S
C689 H659 0.930 . S
C689 N690 1.330 . S
C689 C691 1.446 . S
N690 Co649 2.151 . S
N690 C689 1.330 . S
N690 C694 1.418 . S
C691 H670 0.929 . S
C691 C689 1.446 . S
C691 C692 1.332 . S
C692 H672 0.931 . S
C692 C691 1.332 . S
C692 C693 1.267 . S
C693 H661 0.929 . S
C693 C692 1.267 . S
C693 C694 1.251 . S
C694 H664 0.929 . S
C694 N690 1.418 . S
C694 C693 1.251 . S
C695 H662 0.930 . S
C695 C697 1.406 . S
C695 C700 1.261 . S
C696 H663 0.930 . S
C696 N698 1.325 . S
C696 C699 1.357 . S
C697 H665 0.928 . S
C697 C695 1.406 . S
C697 N698 1.261 . S
N698 Co649 2.214 . S
N698 C696 1.325 . S
N698 C697 1.261 . S
C699 H669 0.931 . S
C699 C696 1.357 . S
C699 C700 1.312 . S
C700 H671 0.930 . S
C700 C695 1.261 . S
C700 C699 1.312 . S
C701 O673 1.214 . S
C701 O681 1.234 . S
C702 H674 0.929 . S
C702 C705 1.391 . S
C702 C707 1.391 . S
C703 H675 0.929 . S
C703 C704 1.390 . S
C703 N706 1.391 . S
C704 H676 0.930 . S
C704 C703 1.390 . S
C704 C705 1.392 . S
C705 H677 0.929 . S
C705 C702 1.391 . S
C705 C704 1.392 . S
N706 Co650 2.257 . S
N706 C703 1.391 . S
N706 C707 1.388 . S
C707 H678 0.930 . S
C707 C702 1.391 . S
C707 N706 1.388 . S
Co708 O710 2.143 . S
Co708 O716 2.074 . S
Co708 O719 2.093 . S
Co708 O732 2.097 1_565 S
Co708 N749 2.151 . S
Co708 N757 2.214 . S
Co709 O710 2.160 1_545 S
Co709 O715 2.052 1_545 S
Co709 O725 2.057 . S
Co709 O740 2.037 . S
Co709 N744 2.145 . S
Co709 N765 2.257 . S
O710 Co708 2.143 . S
O710 Co709 2.160 1_565 S
C711 O712 1.256 1_565 S
C711 O719 1.224 . S
O712 C711 1.256 1_545 S
C713 O714 1.245 . S
C713 O725 1.232 1_565 S
O714 C713 1.245 . S
O715 Co709 2.052 1_565 S
O715 C741 1.275 . S
O716 Co708 2.074 . S
O716 C741 1.257 . S
H717 C742 0.930 . S
H718 C748 0.930 . S
O719 Co708 2.093 . S
O719 C711 1.224 . S
H720 C752 0.929 . S
H721 C754 0.930 . S
H722 C755 0.930 . S
H723 C753 0.929 . S
H724 C756 0.928 . S
O725 Co709 2.057 . S
O725 C713 1.232 1_545 S
H726 C745 0.929 . S
H727 C746 0.929 . S
H728 C758 0.931 . S
H729 C750 0.929 . S
H730 C759 0.930 . S
H731 C751 0.931 . S
O732 Co708 2.097 1_545 S
O732 C760 1.214 . S
H733 C761 0.929 . S
H734 C762 0.929 . S
H735 C763 0.930 . S
H736 C764 0.929 . S
H737 C766 0.930 . S
H738 C743 0.930 . S
H739 C747 0.930 . S
O740 Co709 2.037 . S
O740 C760 1.234 . S
C741 O715 1.275 . S
C741 O716 1.257 . S
C742 H717 0.930 . S
C742 C745 1.388 . S
C742 C747 1.418 . S
C743 H738 0.930 . S
C743 C746 1.404 . S
C743 C747 1.353 . S
N744 Co709 2.145 . S
N744 C745 1.397 . S
N744 C746 1.334 . S
C745 H726 0.929 . S
C745 C742 1.388 . S
C745 N744 1.397 . S
C746 H727 0.929 . S
C746 C743 1.404 . S
C746 N744 1.334 . S
C747 H739 0.930 . S
C747 C742 1.418 . S
C747 C743 1.353 . S
C748 H718 0.930 . S
C748 N749 1.330 . S
C748 C750 1.446 . S
N749 Co708 2.151 . S
N749 C748 1.330 . S
N749 C753 1.418 . S
C750 H729 0.929 . S
C750 C748 1.446 . S
C750 C751 1.332 . S
C751 H731 0.931 . S
C751 C750 1.332 . S
C751 C752 1.267 . S
C752 H720 0.929 . S
C752 C751 1.267 . S
C752 C753 1.251 . S
C753 H723 0.929 . S
C753 N749 1.418 . S
C753 C752 1.251 . S
C754 H721 0.930 . S
C754 C756 1.406 . S
C754 C759 1.261 . S
C755 H722 0.930 . S
C755 N757 1.325 . S
C755 C758 1.357 . S
C756 H724 0.928 . S
C756 C754 1.406 . S
C756 N757 1.261 . S
N757 Co708 2.214 . S
N757 C755 1.325 . S
N757 C756 1.261 . S
C758 H728 0.931 . S
C758 C755 1.357 . S
C758 C759 1.312 . S
C759 H730 0.930 . S
C759 C754 1.261 . S
C759 C758 1.312 . S
C760 O732 1.214 . S
C760 O740 1.234 . S
C761 H733 0.929 . S
C761 C764 1.391 . S
C761 C766 1.391 . S
C762 H734 0.929 . S
C762 C763 1.390 . S
C762 N765 1.391 . S
C763 H735 0.930 . S
C763 C762 1.390 . S
C763 C764 1.392 . S
C764 H736 0.929 . S
C764 C761 1.391 . S
C764 C763 1.392 . S
N765 Co709 2.257 . S
N765 C762 1.391 . S
N765 C766 1.388 . S
C766 H737 0.930 . S
C766 C761 1.391 . S
C766 N765 1.388 . S
Co767 O769 2.143 . S
Co767 O775 2.074 . S
Co767 O778 2.093 . S
Co767 O791 2.097 . S
Co767 N808 2.151 . S
Co767 N816 2.214 . S
Co768 O769 2.160 . S
Co768 O774 2.058 . S
Co768 O784 2.057 . S
Co768 O799 2.037 . S
Co768 N803 2.145 . S
Co768 N824 2.257 . S
O769 Co767 2.143 . S
O769 Co768 2.160 . S
C770 O771 1.278 . S
C770 O778 1.224 . S
O771 C770 1.278 . S
C772 O773 1.245 . S
C772 O784 1.232 . S
O773 C772 1.245 . S
O774 Co768 2.058 . S
O774 C800 1.269 . S
O775 Co767 2.074 . S
O775 C800 1.257 . S
H776 C801 0.930 . S
H777 C807 0.930 . S
O778 Co767 2.093 . S
O778 C770 1.224 . S
H779 C811 0.929 . S
H780 C813 0.930 . S
H781 C814 0.930 . S
H782 C812 0.929 . S
H783 C815 0.928 . S
O784 Co768 2.057 . S
O784 C772 1.232 . S
H785 C804 0.929 . S
H786 C805 0.929 . S
H787 C817 0.931 . S
H788 C809 0.929 . S
H789 C818 0.930 . S
H790 C810 0.931 . S
O791 Co767 2.097 . S
O791 C819 1.214 . S
H792 C820 0.929 . S
H793 C821 0.929 . S
H794 C822 0.930 . S
H795 C823 0.929 . S
H796 C825 0.930 . S
H797 C802 0.930 . S
H798 C806 0.930 . S
O799 Co768 2.037 . S
O799 C819 1.234 . S
C800 O774 1.269 . S
C800 O775 1.257 . S
C801 H776 0.930 . S
C801 C804 1.388 . S
C801 C806 1.418 . S
C802 H797 0.930 . S
C802 C805 1.404 . S
C802 C806 1.353 . S
N803 Co768 2.145 . S
N803 C804 1.397 . S
N803 C805 1.334 . S
C804 H785 0.929 . S
C804 C801 1.388 . S
C804 N803 1.397 . S
C805 H786 0.929 . S
C805 C802 1.404 . S
C805 N803 1.334 . S
C806 H798 0.930 . S
C806 C801 1.418 . S
C806 C802 1.353 . S
C807 H777 0.930 . S
C807 N808 1.330 . S
C807 C809 1.446 . S
N808 Co767 2.151 . S
N808 C807 1.330 . S
N808 C812 1.418 . S
C809 H788 0.929 . S
C809 C807 1.446 . S
C809 C810 1.332 . S
C810 H790 0.931 . S
C810 C809 1.332 . S
C810 C811 1.267 . S
C811 H779 0.929 . S
C811 C810 1.267 . S
C811 C812 1.251 . S
C812 H782 0.929 . S
C812 N808 1.418 . S
C812 C811 1.251 . S
C813 H780 0.930 . S
C813 C815 1.406 . S
C813 C818 1.261 . S
C814 H781 0.930 . S
C814 N816 1.325 . S
C814 C817 1.357 . S
C815 H783 0.928 . S
C815 C813 1.406 . S
C815 N816 1.261 . S
N816 Co767 2.214 . S
N816 C814 1.325 . S
N816 C815 1.261 . S
C817 H787 0.931 . S
C817 C814 1.357 . S
C817 C818 1.312 . S
C818 H789 0.930 . S
C818 C813 1.261 . S
C818 C817 1.312 . S
C819 O791 1.214 . S
C819 O799 1.234 . S
C820 H792 0.929 . S
C820 C823 1.391 . S
C820 C825 1.391 . S
C821 H793 0.929 . S
C821 C822 1.390 . S
C821 N824 1.391 . S
C822 H794 0.930 . S
C822 C821 1.390 . S
C822 C823 1.392 . S
C823 H795 0.929 . S
C823 C820 1.391 . S
C823 C822 1.392 . S
N824 Co768 2.257 . S
N824 C821 1.391 . S
N824 C825 1.388 . S
C825 H796 0.930 . S
C825 C820 1.391 . S
C825 N824 1.388 . S
Co826 O828 2.143 . S
Co826 O834 2.074 . S
Co826 O837 2.093 . S
Co826 O850 2.097 . S
Co826 N867 2.151 . S
Co826 N875 2.214 . S
Co827 O828 2.160 . S
Co827 O833 2.058 . S
Co827 O843 2.057 . S
Co827 O858 2.037 . S
Co827 N862 2.145 . S
Co827 N883 2.257 . S
O828 Co826 2.143 . S
O828 Co827 2.160 . S
C829 O830 1.278 . S
C829 O837 1.224 . S
O830 C829 1.278 . S
C831 O832 1.245 . S
C831 O843 1.232 . S
O832 C831 1.245 . S
O833 Co827 2.058 . S
O833 C859 1.269 . S
O834 Co826 2.074 . S
O834 C859 1.257 . S
H835 C860 0.930 . S
H836 C866 0.930 . S
O837 Co826 2.093 . S
O837 C829 1.224 . S
H838 C870 0.929 . S
H839 C872 0.930 . S
H840 C873 0.930 . S
H841 C871 0.929 . S
H842 C874 0.928 . S
O843 Co827 2.057 . S
O843 C831 1.232 . S
H844 C863 0.929 . S
H845 C864 0.929 . S
H846 C876 0.931 . S
H847 C868 0.929 . S
H848 C877 0.930 . S
H849 C869 0.931 . S
O850 Co826 2.097 . S
O850 C878 1.214 . S
H851 C879 0.929 . S
H852 C880 0.929 . S
H853 C881 0.930 . S
H854 C882 0.929 . S
H855 C884 0.930 . S
H856 C861 0.930 . S
H857 C865 0.930 . S
O858 Co827 2.037 . S
O858 C878 1.234 . S
C859 O833 1.269 . S
C859 O834 1.257 . S
C860 H835 0.930 . S
C860 C863 1.388 . S
C860 C865 1.418 . S
C861 H856 0.930 . S
C861 C864 1.404 . S
C861 C865 1.353 . S
N862 Co827 2.145 . S
N862 C863 1.397 . S
N862 C864 1.334 . S
C863 H844 0.929 . S
C863 C860 1.388 . S
C863 N862 1.397 . S
C864 H845 0.929 . S
C864 C861 1.404 . S
C864 N862 1.334 . S
C865 H857 0.930 . S
C865 C860 1.418 . S
C865 C861 1.353 . S
C866 H836 0.930 . S
C866 N867 1.330 . S
C866 C868 1.446 . S
N867 Co826 2.151 . S
N867 C866 1.330 . S
N867 C871 1.418 . S
C868 H847 0.929 . S
C868 C866 1.446 . S
C868 C869 1.332 . S
C869 H849 0.931 . S
C869 C868 1.332 . S
C869 C870 1.267 . S
C870 H838 0.929 . S
C870 C869 1.267 . S
C870 C871 1.251 . S
C871 H841 0.929 . S
C871 N867 1.418 . S
C871 C870 1.251 . S
C872 H839 0.930 . S
C872 C874 1.406 . S
C872 C877 1.261 . S
C873 H840 0.930 . S
C873 N875 1.325 . S
C873 C876 1.357 . S
C874 H842 0.928 . S
C874 C872 1.406 . S
C874 N875 1.261 . S
N875 Co826 2.214 . S
N875 C873 1.325 . S
N875 C874 1.261 . S
C876 H846 0.931 . S
C876 C873 1.357 . S
C876 C877 1.312 . S
C877 H848 0.930 . S
C877 C872 1.261 . S
C877 C876 1.312 . S
C878 O850 1.214 . S
C878 O858 1.234 . S
C879 H851 0.929 . S
C879 C882 1.391 . S
C879 C884 1.391 . S
C880 H852 0.929 . S
C880 C881 1.390 . S
C880 N883 1.391 . S
C881 H853 0.930 . S
C881 C880 1.390 . S
C881 C882 1.392 . S
C882 H854 0.929 . S
C882 C879 1.391 . S
C882 C881 1.392 . S
N883 Co827 2.257 . S
N883 C880 1.391 . S
N883 C884 1.388 . S
C884 H855 0.930 . S
C884 C879 1.391 . S
C884 N883 1.388 . S
Co885 O887 2.143 . S
Co885 O893 2.074 . S
Co885 O896 2.093 . S
Co885 O909 2.097 1_655 S
Co885 N926 2.151 . S
Co885 N934 2.214 . S
Co886 O887 2.160 1_455 S
Co886 O892 2.024 1_455 S
Co886 O902 2.057 . S
Co886 O917 2.037 . S
Co886 N921 2.145 . S
Co886 N942 2.257 . S
O887 Co885 2.143 . S
O887 Co886 2.160 1_655 S
C888 O889 1.278 1_655 S
C888 O896 1.224 . S
O889 C888 1.278 1_455 S
C890 O891 1.248 1_455 S
C890 O902 1.229 . S
O891 C890 1.248 1_655 S
O892 Co886 2.024 1_655 S
O892 C918 1.300 . S
O893 Co885 2.074 . S
O893 C918 1.257 . S
H894 C919 0.930 . S
H895 C925 0.930 . S
O896 Co885 2.093 . S
O896 C888 1.224 . S
H897 C929 0.929 . S
H898 C931 0.930 . S
H899 C932 0.930 . S
H900 C930 0.929 . S
H901 C933 0.928 . S
O902 Co886 2.057 . S
O902 C890 1.229 . S
H903 C922 0.929 . S
H904 C923 0.929 . S
H905 C935 0.931 . S
H906 C927 0.929 . S
H907 C936 0.930 . S
H908 C928 0.931 . S
O909 Co885 2.097 1_455 S
O909 C937 1.214 . S
H910 C938 0.929 . S
H911 C939 0.929 . S
H912 C940 0.930 . S
H913 C941 0.929 . S
H914 C943 0.930 . S
H915 C920 0.930 . S
H916 C924 0.930 . S
O917 Co886 2.037 . S
O917 C937 1.234 . S
C918 O892 1.300 . S
C918 O893 1.257 . S
C919 H894 0.930 . S
C919 C922 1.388 . S
C919 C924 1.418 . S
C920 H915 0.930 . S
C920 C923 1.404 . S
C920 C924 1.353 . S
N921 Co886 2.145 . S
N921 C922 1.397 . S
N921 C923 1.334 . S
C922 H903 0.929 . S
C922 C919 1.388 . S
C922 N921 1.397 . S
C923 H904 0.929 . S
C923 C920 1.404 . S
C923 N921 1.334 . S
C924 H916 0.930 . S
C924 C919 1.418 . S
C924 C920 1.353 . S
C925 H895 0.930 . S
C925 N926 1.330 . S
C925 C927 1.446 . S
N926 Co885 2.151 . S
N926 C925 1.330 . S
N926 C930 1.418 . S
C927 H906 0.929 . S
C927 C925 1.446 . S
C927 C928 1.332 . S
C928 H908 0.931 . S
C928 C927 1.332 . S
C928 C929 1.267 . S
C929 H897 0.929 . S
C929 C928 1.267 . S
C929 C930 1.251 . S
C930 H900 0.929 . S
C930 N926 1.418 . S
C930 C929 1.251 . S
C931 H898 0.930 . S
C931 C933 1.406 . S
C931 C936 1.261 . S
C932 H899 0.930 . S
C932 N934 1.325 . S
C932 C935 1.357 . S
C933 H901 0.928 . S
C933 C931 1.406 . S
C933 N934 1.261 . S
N934 Co885 2.214 . S
N934 C932 1.325 . S
N934 C933 1.261 . S
C935 H905 0.931 . S
C935 C932 1.357 . S
C935 C936 1.312 . S
C936 H907 0.930 . S
C936 C931 1.261 . S
C936 C935 1.312 . S
C937 O909 1.214 . S
C937 O917 1.234 . S
C938 H910 0.929 . S
C938 C941 1.391 . S
C938 C943 1.391 . S
C939 H911 0.929 . S
C939 C940 1.390 . S
C939 N942 1.391 . S
C940 H912 0.930 . S
C940 C939 1.390 . S
C940 C941 1.392 . S
C941 H913 0.929 . S
C941 C938 1.391 . S
C941 C940 1.392 . S
N942 Co886 2.257 . S
N942 C939 1.391 . S
N942 C943 1.388 . S
C943 H914 0.930 . S
C943 C938 1.391 . S
C943 N942 1.388 . S
C944 C945 1.349 . S
C944 C946 1.327 . S
C944 H969 0.950 . S
C945 C944 1.349 . S
C945 C961 1.349 . S
C946 C944 1.327 . S
C946 C965 1.429 . S
C946 H970 0.950 . S
C947 C964 1.574 . S
C947 C966 1.368 . S
C947 H971 0.949 . S
H948 C952 0.949 . S
C949 C950 1.349 . S
C949 C951 1.327 . S
C949 H972 0.950 . S
C950 C949 1.349 . S
C950 C962 1.349 . S
C951 C949 1.327 . S
C951 C967 1.429 . S
C951 H973 0.950 . S
C952 H948 0.949 . S
C952 C960 1.574 . S
C952 C968 1.368 . S
H953 C961 0.950 . S
H954 C959 0.950 . S
H955 C960 0.949 . S
H956 C962 0.950 . S
H957 C963 0.950 . S
H958 C964 0.949 . S
C959 H954 0.950 . S
C959 C961 1.327 . S
C959 C965 1.429 . S
C960 C952 1.574 . S
C960 H955 0.949 . S
C960 C966 1.368 . S
C961 C945 1.349 . S
C961 H953 0.950 . S
C961 C959 1.327 . S
C962 C950 1.349 . S
C962 H956 0.950 . S
C962 C963 1.327 . S
C963 H957 0.950 . S
C963 C962 1.327 . S
C963 C967 1.429 . S
C964 C947 1.574 . S
C964 H958 0.949 . S
C964 C968 1.368 . S
C965 C946 1.429 . S
C965 C959 1.429 . S
C965 C966 1.523 . S
C966 C947 1.368 . S
C966 C960 1.368 . S
C966 C965 1.523 . S
C967 C951 1.429 . S
C967 C963 1.429 . S
C967 C968 1.523 . S
C968 C952 1.368 . S
C968 C964 1.368 . S
C968 C967 1.523 . S
H969 C944 0.950 . S
H970 C946 0.950 . S
H971 C947 0.949 . S
H972 C949 0.950 . S
H973 C951 0.950 . S
C974 C975 1.349 . S
C974 C976 1.327 . S
C974 H999 0.950 . S
C975 C974 1.349 . S
C975 C991 1.349 . S
C976 C974 1.327 . S
C976 C995 1.429 . S
C976 H1000 0.950 . S
C977 C994 1.574 . S
C977 C996 1.368 . S
C977 H1001 0.949 . S
H978 C982 0.949 . S
C979 C980 1.349 . S
C979 C981 1.327 . S
C979 H1002 0.950 . S
C980 C979 1.349 . S
C980 C992 1.349 . S
C981 C979 1.327 . S
C981 C997 1.429 . S
C981 H1003 0.950 . S
C982 H978 0.949 . S
C982 C990 1.574 . S
C982 C998 1.368 . S
H983 C991 0.950 . S
H984 C989 0.950 . S
H985 C990 0.949 . S
H986 C992 0.950 . S
H987 C993 0.950 . S
H988 C994 0.949 . S
C989 H984 0.950 . S
C989 C991 1.327 . S
C989 C995 1.429 . S
C990 C982 1.574 . S
C990 H985 0.949 . S
C990 C996 1.368 . S
C991 C975 1.349 . S
C991 H983 0.950 . S
C991 C989 1.327 . S
C992 C980 1.349 . S
C992 H986 0.950 . S
C992 C993 1.327 . S
C993 H987 0.950 . S
C993 C992 1.327 . S
C993 C997 1.429 . S
C994 C977 1.574 . S
C994 H988 0.949 . S
C994 C998 1.368 . S
C995 C976 1.429 . S
C995 C989 1.429 . S
C995 C996 1.523 . S
C996 C977 1.368 . S
C996 C990 1.368 . S
C996 C995 1.523 . S
C997 C981 1.429 . S
C997 C993 1.429 . S
C997 C998 1.523 . S
C998 C982 1.368 . S
C998 C994 1.368 . S
C998 C997 1.523 . S
H999 C974 0.950 . S
H1000 C976 0.950 . S
H1001 C977 0.949 . S
H1002 C979 0.950 . S
H1003 C981 0.950 . S
C1004 C1005 1.349 . S
C1004 C1006 1.327 . S
C1004 H1029 0.950 . S
C1005 C1004 1.349 . S
C1005 C1021 1.349 . S
C1006 C1004 1.327 . S
C1006 C1025 1.429 . S
C1006 H1030 0.950 . S
C1007 C1024 1.574 . S
C1007 C1026 1.368 . S
C1007 H1031 0.949 . S
H1008 C1012 0.949 . S
C1009 C1010 1.349 . S
C1009 C1011 1.327 . S
C1009 H1032 0.950 . S
C1010 C1009 1.349 . S
C1010 C1022 1.349 . S
C1011 C1009 1.327 . S
C1011 C1027 1.429 . S
C1011 H1033 0.950 . S
C1012 H1008 0.949 . S
C1012 C1020 1.574 . S
C1012 C1028 1.368 . S
H1013 C1021 0.950 . S
H1014 C1019 0.950 . S
H1015 C1020 0.949 . S
H1016 C1022 0.950 . S
H1017 C1023 0.950 . S
H1018 C1024 0.949 . S
C1019 H1014 0.950 . S
C1019 C1021 1.327 . S
C1019 C1025 1.429 . S
C1020 C1012 1.574 . S
C1020 H1015 0.949 . S
C1020 C1026 1.368 . S
C1021 C1005 1.349 . S
C1021 H1013 0.950 . S
C1021 C1019 1.327 . S
C1022 C1010 1.349 . S
C1022 H1016 0.950 . S
C1022 C1023 1.327 . S
C1023 H1017 0.950 . S
C1023 C1022 1.327 . S
C1023 C1027 1.429 . S
C1024 C1007 1.574 . S
C1024 H1018 0.949 . S
C1024 C1028 1.368 . S
C1025 C1006 1.429 . S
C1025 C1019 1.429 . S
C1025 C1026 1.523 . S
C1026 C1007 1.368 . S
C1026 C1020 1.368 . S
C1026 C1025 1.523 . S
C1027 C1011 1.429 . S
C1027 C1023 1.429 . S
C1027 C1028 1.523 . S
C1028 C1012 1.368 . S
C1028 C1024 1.368 . S
C1028 C1027 1.523 . S
H1029 C1004 0.950 . S
H1030 C1006 0.950 . S
H1031 C1007 0.949 . S
H1032 C1009 0.950 . S
H1033 C1011 0.950 . S
C1034 C1035 1.349 . S
C1034 C1036 1.327 . S
C1034 H1059 0.950 . S
C1035 C1034 1.349 . S
C1035 C1051 1.349 . S
C1036 C1034 1.327 . S
C1036 C1055 1.429 . S
C1036 H1060 0.950 . S
C1037 C1054 1.574 . S
C1037 C1056 1.368 . S
C1037 H1061 0.949 . S
H1038 C1042 0.949 . S
C1039 C1040 1.349 . S
C1039 C1041 1.327 . S
C1039 H1062 0.950 . S
C1040 C1039 1.349 . S
C1040 C1052 1.349 . S
C1041 C1039 1.327 . S
C1041 C1057 1.429 . S
C1041 H1063 0.950 . S
C1042 H1038 0.949 . S
C1042 C1050 1.574 . S
C1042 C1058 1.368 . S
H1043 C1051 0.950 . S
H1044 C1049 0.950 . S
H1045 C1050 0.949 . S
H1046 C1052 0.950 . S
H1047 C1053 0.950 . S
H1048 C1054 0.949 . S
C1049 H1044 0.950 . S
C1049 C1051 1.327 . S
C1049 C1055 1.429 . S
C1050 C1042 1.574 . S
C1050 H1045 0.949 . S
C1050 C1056 1.368 . S
C1051 C1035 1.349 . S
C1051 H1043 0.950 . S
C1051 C1049 1.327 . S
C1052 C1040 1.349 . S
C1052 H1046 0.950 . S
C1052 C1053 1.327 . S
C1053 H1047 0.950 . S
C1053 C1052 1.327 . S
C1053 C1057 1.429 . S
C1054 C1037 1.574 . S
C1054 H1048 0.949 . S
C1054 C1058 1.368 . S
C1055 C1036 1.429 . S
C1055 C1049 1.429 . S
C1055 C1056 1.523 . S
C1056 C1037 1.368 . S
C1056 C1050 1.368 . S
C1056 C1055 1.523 . S
C1057 C1041 1.429 . S
C1057 C1053 1.429 . S
C1057 C1058 1.523 . S
C1058 C1042 1.368 . S
C1058 C1054 1.368 . S
C1058 C1057 1.523 . S
H1059 C1034 0.950 . S
H1060 C1036 0.950 . S
H1061 C1037 0.949 . S
H1062 C1039 0.950 . S
H1063 C1041 0.950 . S
C1064 C1065 1.349 . S
C1064 C1066 1.327 . S
C1064 H1089 0.950 . S
C1065 C1064 1.349 . S
C1065 C1081 1.349 . S
C1066 C1064 1.327 . S
C1066 C1085 1.429 . S
C1066 H1090 0.950 . S
C1067 C1084 1.574 . S
C1067 C1086 1.368 . S
C1067 H1091 0.949 . S
H1068 C1072 0.949 . S
C1069 C1070 1.349 . S
C1069 C1071 1.327 . S
C1069 H1092 0.950 . S
C1070 C1069 1.349 . S
C1070 C1082 1.349 . S
C1071 C1069 1.327 . S
C1071 C1087 1.429 . S
C1071 H1093 0.950 . S
C1072 H1068 0.949 . S
C1072 C1080 1.574 . S
C1072 C1088 1.368 . S
H1073 C1081 0.950 . S
H1074 C1079 0.950 . S
H1075 C1080 0.949 . S
H1076 C1082 0.950 . S
H1077 C1083 0.950 . S
H1078 C1084 0.949 . S
C1079 H1074 0.950 . S
C1079 C1081 1.327 . S
C1079 C1085 1.429 . S
C1080 C1072 1.574 . S
C1080 H1075 0.949 . S
C1080 C1086 1.368 . S
C1081 C1065 1.349 . S
C1081 H1073 0.950 . S
C1081 C1079 1.327 . S
C1082 C1070 1.349 . S
C1082 H1076 0.950 . S
C1082 C1083 1.327 . S
C1083 H1077 0.950 . S
C1083 C1082 1.327 . S
C1083 C1087 1.429 . S
C1084 C1067 1.574 . S
C1084 H1078 0.949 . S
C1084 C1088 1.368 . S
C1085 C1066 1.429 . S
C1085 C1079 1.429 . S
C1085 C1086 1.523 . S
C1086 C1067 1.368 . S
C1086 C1080 1.368 . S
C1086 C1085 1.523 . S
C1087 C1071 1.429 . S
C1087 C1083 1.429 . S
C1087 C1088 1.523 . S
C1088 C1072 1.368 . S
C1088 C1084 1.368 . S
C1088 C1087 1.523 . S
H1089 C1064 0.950 . S
H1090 C1066 0.950 . S
H1091 C1067 0.949 . S
H1092 C1069 0.950 . S
H1093 C1071 0.950 . S
C1094 C1095 1.349 . S
C1094 C1096 1.327 . S
C1094 H1119 0.950 . S
C1095 C1094 1.349 . S
C1095 C1111 1.349 . S
C1096 C1094 1.327 . S
C1096 C1115 1.429 . S
C1096 H1120 0.950 . S
C1097 C1114 1.574 . S
C1097 C1116 1.368 . S
C1097 H1121 0.949 . S
H1098 C1102 0.949 . S
C1099 C1100 1.349 . S
C1099 C1101 1.327 . S
C1099 H1122 0.950 . S
C1100 C1099 1.349 . S
C1100 C1112 1.349 . S
C1101 C1099 1.327 . S
C1101 C1117 1.429 . S
C1101 H1123 0.950 . S
C1102 H1098 0.949 . S
C1102 C1110 1.574 . S
C1102 C1118 1.368 . S
H1103 C1111 0.950 . S
H1104 C1109 0.950 . S
H1105 C1110 0.949 . S
H1106 C1112 0.950 . S
H1107 C1113 0.950 . S
H1108 C1114 0.949 . S
C1109 H1104 0.950 . S
C1109 C1111 1.327 . S
C1109 C1115 1.429 . S
C1110 C1102 1.574 . S
C1110 H1105 0.949 . S
C1110 C1116 1.368 . S
C1111 C1095 1.349 . S
C1111 H1103 0.950 . S
C1111 C1109 1.327 . S
C1112 C1100 1.349 . S
C1112 H1106 0.950 . S
C1112 C1113 1.327 . S
C1113 H1107 0.950 . S
C1113 C1112 1.327 . S
C1113 C1117 1.429 . S
C1114 C1097 1.574 . S
C1114 H1108 0.949 . S
C1114 C1118 1.368 . S
C1115 C1096 1.429 . S
C1115 C1109 1.429 . S
C1115 C1116 1.523 . S
C1116 C1097 1.368 . S
C1116 C1110 1.368 . S
C1116 C1115 1.523 . S
C1117 C1101 1.429 . S
C1117 C1113 1.429 . S
C1117 C1118 1.523 . S
C1118 C1102 1.368 . S
C1118 C1114 1.368 . S
C1118 C1117 1.523 . S
H1119 C1094 0.950 . S
H1120 C1096 0.950 . S
H1121 C1097 0.949 . S
H1122 C1099 0.950 . S
H1123 C1101 0.950 . S
C1124 C1125 1.349 . S
C1124 C1126 1.327 . S
C1124 H1149 0.950 . S
C1125 C1124 1.349 . S
C1125 C1141 1.349 . S
C1126 C1124 1.327 . S
C1126 C1145 1.429 . S
C1126 H1150 0.950 . S
C1127 C1144 1.574 . S
C1127 C1146 1.368 . S
C1127 H1151 0.949 . S
H1128 C1132 0.949 . S
C1129 C1130 1.349 . S
C1129 C1131 1.327 . S
C1129 H1152 0.950 . S
C1130 C1129 1.349 . S
C1130 C1142 1.349 . S
C1131 C1129 1.327 . S
C1131 C1147 1.429 . S
C1131 H1153 0.950 . S
C1132 H1128 0.949 . S
C1132 C1140 1.574 . S
C1132 C1148 1.368 . S
H1133 C1141 0.950 . S
H1134 C1139 0.950 . S
H1135 C1140 0.949 . S
H1136 C1142 0.950 . S
H1137 C1143 0.950 . S
H1138 C1144 0.949 . S
C1139 H1134 0.950 . S
C1139 C1141 1.327 . S
C1139 C1145 1.429 . S
C1140 C1132 1.574 . S
C1140 H1135 0.949 . S
C1140 C1146 1.368 . S
C1141 C1125 1.349 . S
C1141 H1133 0.950 . S
C1141 C1139 1.327 . S
C1142 C1130 1.349 . S
C1142 H1136 0.950 . S
C1142 C1143 1.327 . S
C1143 H1137 0.950 . S
C1143 C1142 1.327 . S
C1143 C1147 1.429 . S
C1144 C1127 1.574 . S
C1144 H1138 0.949 . S
C1144 C1148 1.368 . S
C1145 C1126 1.429 . S
C1145 C1139 1.429 . S
C1145 C1146 1.523 . S
C1146 C1127 1.368 . S
C1146 C1140 1.368 . S
C1146 C1145 1.523 . S
C1147 C1131 1.429 . S
C1147 C1143 1.429 . S
C1147 C1148 1.523 . S
C1148 C1132 1.368 . S
C1148 C1144 1.368 . S
C1148 C1147 1.523 . S
H1149 C1124 0.950 . S
H1150 C1126 0.950 . S
H1151 C1127 0.949 . S
H1152 C1129 0.950 . S
H1153 C1131 0.950 . S
C1154 C1155 1.349 . S
C1154 C1156 1.327 . S
C1154 H1179 0.950 . S
C1155 C1154 1.349 . S
C1155 C1171 1.349 . S
C1156 C1154 1.327 . S
C1156 C1175 1.429 . S
C1156 H1180 0.950 . S
C1157 C1174 1.574 . S
C1157 C1176 1.368 . S
C1157 H1181 0.949 . S
H1158 C1162 0.949 . S
C1159 C1160 1.349 . S
C1159 C1161 1.327 . S
C1159 H1182 0.950 . S
C1160 C1159 1.349 . S
C1160 C1172 1.349 . S
C1161 C1159 1.327 . S
C1161 C1177 1.429 . S
C1161 H1183 0.950 . S
C1162 H1158 0.949 . S
C1162 C1170 1.574 . S
C1162 C1178 1.368 . S
H1163 C1171 0.950 . S
H1164 C1169 0.950 . S
H1165 C1170 0.949 . S
H1166 C1172 0.950 . S
H1167 C1173 0.950 . S
H1168 C1174 0.949 . S
C1169 H1164 0.950 . S
C1169 C1171 1.327 . S
C1169 C1175 1.429 . S
C1170 C1162 1.574 . S
C1170 H1165 0.949 . S
C1170 C1176 1.368 . S
C1171 C1155 1.349 . S
C1171 H1163 0.950 . S
C1171 C1169 1.327 . S
C1172 C1160 1.349 . S
C1172 H1166 0.950 . S
C1172 C1173 1.327 . S
C1173 H1167 0.950 . S
C1173 C1172 1.327 . S
C1173 C1177 1.429 . S
C1174 C1157 1.574 . S
C1174 H1168 0.949 . S
C1174 C1178 1.368 . S
C1175 C1156 1.429 . S
C1175 C1169 1.429 . S
C1175 C1176 1.523 . S
C1176 C1157 1.368 . S
C1176 C1170 1.368 . S
C1176 C1175 1.523 . S
C1177 C1161 1.429 . S
C1177 C1173 1.429 . S
C1177 C1178 1.523 . S
C1178 C1162 1.368 . S
C1178 C1174 1.368 . S
C1178 C1177 1.523 . S
H1179 C1154 0.950 . S
H1180 C1156 0.950 . S
H1181 C1157 0.949 . S
H1182 C1159 0.950 . S
H1183 C1161 0.950 . S
C1184 C1185 1.332 1_545 S
C1184 C1186 1.327 . S
C1184 H1209 0.950 . S
C1185 C1184 1.332 1_565 S
C1185 C1201 1.369 . S
C1186 C1184 1.327 . S
C1186 C1205 1.429 1_545 S
C1186 H1210 0.950 . S
C1187 C1204 1.574 . S
C1187 C1206 1.368 . S
C1187 H1211 0.949 . S
H1188 C1192 0.949 . S
C1189 C1190 1.349 . S
C1189 C1191 1.327 . S
C1189 H1212 0.950 . S
C1190 C1189 1.349 . S
C1190 C1202 1.356 . S
C1191 C1189 1.327 . S
C1191 C1207 1.429 . S
C1191 H1213 0.950 . S
C1192 H1188 0.949 . S
C1192 C1200 1.574 . S
C1192 C1208 1.368 1_545 S
H1193 C1201 0.950 . S
H1194 C1199 0.950 . S
H1195 C1200 0.949 . S
H1196 C1202 0.944 1_545 S
H1197 C1203 0.950 . S
H1198 C1204 0.949 . S
C1199 H1194 0.950 . S
C1199 C1201 1.327 . S
C1199 C1205 1.429 . S
C1200 C1192 1.574 . S
C1200 H1195 0.949 . S
C1200 C1206 1.368 1_545 S
C1201 C1185 1.369 . S
C1201 H1193 0.950 . S
C1201 C1199 1.327 . S
C1202 C1190 1.356 . S
C1202 H1196 0.944 1_565 S
C1202 C1203 1.326 1_565 S
C1203 H1197 0.950 . S
C1203 C1202 1.326 1_545 S
C1203 C1207 1.429 1_545 S
C1204 C1187 1.574 . S
C1204 H1198 0.949 . S
C1204 C1208 1.368 . S
C1205 C1186 1.429 1_565 S
C1205 C1199 1.429 . S
C1205 C1206 1.523 . S
C1206 C1187 1.368 . S
C1206 C1200 1.368 1_565 S
C1206 C1205 1.523 . S
C1207 C1191 1.429 . S
C1207 C1203 1.429 1_565 S
C1207 C1208 1.523 . S
C1208 C1192 1.368 1_565 S
C1208 C1204 1.368 . S
C1208 C1207 1.523 . S
H1209 C1184 0.950 . S
H1210 C1186 0.950 . S
H1211 C1187 0.949 . S
H1212 C1189 0.950 . S
H1213 C1191 0.950 . S
C1214 C1215 1.349 . S
C1214 C1216 1.327 . S
C1214 H1239 0.950 . S
C1215 C1214 1.349 . S
C1215 C1231 1.349 . S
C1216 C1214 1.327 . S
C1216 C1235 1.429 . S
C1216 H1240 0.950 . S
C1217 C1234 1.574 . S
C1217 C1236 1.368 . S
C1217 H1241 0.949 . S
H1218 C1222 0.949 . S
C1219 C1220 1.349 . S
C1219 C1221 1.327 . S
C1219 H1242 0.950 1_556 S
C1220 C1219 1.349 . S
C1220 C1232 1.349 . S
C1221 C1219 1.327 . S
C1221 C1237 1.429 . S
C1221 H1243 0.950 . S
C1222 H1218 0.949 . S
C1222 C1230 1.574 . S
C1222 C1238 1.368 . S
H1223 C1231 0.950 . S
H1224 C1229 0.950 . S
H1225 C1230 0.949 . S
H1226 C1232 0.950 . S
H1227 C1233 0.950 . S
H1228 C1234 0.949 . S
C1229 H1224 0.950 . S
C1229 C1231 1.327 . S
C1229 C1235 1.429 . S
C1230 C1222 1.574 . S
C1230 H1225 0.949 . S
C1230 C1236 1.368 . S
C1231 C1215 1.349 . S
C1231 H1223 0.950 . S
C1231 C1229 1.327 . S
C1232 C1220 1.349 . S
C1232 H1226 0.950 . S
C1232 C1233 1.327 . S
C1233 H1227 0.950 . S
C1233 C1232 1.327 . S
C1233 C1237 1.429 . S
C1234 C1217 1.574 . S
C1234 H1228 0.949 . S
C1234 C1238 1.368 . S
C1235 C1216 1.429 . S
C1235 C1229 1.429 . S
C1235 C1236 1.523 . S
C1236 C1217 1.368 . S
C1236 C1230 1.368 . S
C1236 C1235 1.523 . S
C1237 C1221 1.429 . S
C1237 C1233 1.429 . S
C1237 C1238 1.523 . S
C1238 C1222 1.368 . S
C1238 C1234 1.368 . S
C1238 C1237 1.523 . S
H1239 C1214 0.950 . S
H1240 C1216 0.950 . S
H1241 C1217 0.949 . S
H1242 C1219 0.950 1_554 S
H1243 C1221 0.950 . S
C1244 C1245 1.349 . S
C1244 C1246 1.327 . S
C1244 H1269 0.950 . S
C1245 C1244 1.349 . S
C1245 C1261 1.349 . S
C1246 C1244 1.327 . S
C1246 C1265 1.429 . S
C1246 H1270 0.950 . S
C1247 C1264 1.574 . S
C1247 C1266 1.368 . S
C1247 H1271 0.949 . S
H1248 C1252 0.949 . S
C1249 C1250 1.349 . S
C1249 C1251 1.327 . S
C1249 H1272 0.950 . S
C1250 C1249 1.349 . S
C1250 C1262 1.349 . S
C1251 C1249 1.327 . S
C1251 C1267 1.429 . S
C1251 H1273 0.950 . S
C1252 H1248 0.949 . S
C1252 C1260 1.574 . S
C1252 C1268 1.368 . S
H1253 C1261 0.950 1_554 S
H1254 C1259 0.950 . S
H1255 C1260 0.949 . S
H1256 C1262 0.950 . S
H1257 C1263 0.950 . S
H1258 C1264 0.949 . S
C1259 H1254 0.950 . S
C1259 C1261 1.327 . S
C1259 C1265 1.429 . S
C1260 C1252 1.574 . S
C1260 H1255 0.949 . S
C1260 C1266 1.368 . S
C1261 C1245 1.349 . S
C1261 H1253 0.950 1_556 S
C1261 C1259 1.327 . S
C1262 C1250 1.349 . S
C1262 H1256 0.950 . S
C1262 C1263 1.327 . S
C1263 H1257 0.950 . S
C1263 C1262 1.327 . S
C1263 C1267 1.429 . S
C1264 C1247 1.574 . S
C1264 H1258 0.949 . S
C1264 C1268 1.368 . S
C1265 C1246 1.429 . S
C1265 C1259 1.429 . S
C1265 C1266 1.523 . S
C1266 C1247 1.368 . S
C1266 C1260 1.368 . S
C1266 C1265 1.523 . S
C1267 C1251 1.429 . S
C1267 C1263 1.429 . S
C1267 C1268 1.523 . S
C1268 C1252 1.368 . S
C1268 C1264 1.368 . S
C1268 C1267 1.523 . S
H1269 C1244 0.950 . S
H1270 C1246 0.950 . S
H1271 C1247 0.949 . S
H1272 C1249 0.950 . S
H1273 C1251 0.950 . S
C1274 C1275 1.349 . S
C1274 C1276 1.327 . S
C1274 H1299 0.950 . S
C1275 C1274 1.349 . S
C1275 C1291 1.349 1_655 S
C1276 C1274 1.327 . S
C1276 C1295 1.429 . S
C1276 H1300 0.950 . S
C1277 C1294 1.574 . S
C1277 C1296 1.368 1_455 S
C1277 H1301 0.949 . S
H1278 C1282 0.949 . S
C1279 C1280 1.349 . S
C1279 C1281 1.323 1_655 S
C1279 H1302 0.950 1_655 S
C1280 C1279 1.349 . S
C1280 C1292 1.349 . S
C1281 C1279 1.323 1_455 S
C1281 C1297 1.405 1_455 S
C1281 H1303 0.980 . S
C1282 H1278 0.949 . S
C1282 C1290 1.574 . S
C1282 C1298 1.368 . S
H1283 C1291 0.950 . S
H1284 C1289 0.950 . S
H1285 C1290 0.949 . S
H1286 C1292 0.950 . S
H1287 C1293 0.950 . S
H1288 C1294 0.949 . S
C1289 H1284 0.950 . S
C1289 C1291 1.327 . S
C1289 C1295 1.429 1_455 S
C1290 C1282 1.574 . S
C1290 H1285 0.949 . S
C1290 C1296 1.368 . S
C1291 C1275 1.349 1_455 S
C1291 H1283 0.950 . S
C1291 C1289 1.327 . S
C1292 C1280 1.349 . S
C1292 H1286 0.950 . S
C1292 C1293 1.327 . S
C1293 H1287 0.950 . S
C1293 C1292 1.327 . S
C1293 C1297 1.429 . S
C1294 C1277 1.574 . S
C1294 H1288 0.949 . S
C1294 C1298 1.368 1_455 S
C1295 C1276 1.429 . S
C1295 C1289 1.429 1_655 S
C1295 C1296 1.523 . S
C1296 C1277 1.368 1_655 S
C1296 C1290 1.368 . S
C1296 C1295 1.523 . S
C1297 C1281 1.405 1_655 S
C1297 C1293 1.429 . S
C1297 C1298 1.523 . S
C1298 C1282 1.368 . S
C1298 C1294 1.368 1_655 S
C1298 C1297 1.523 . S
H1299 C1274 0.950 . S
H1300 C1276 0.950 . S
H1301 C1277 0.949 . S
H1302 C1279 0.950 1_455 S
H1303 C1281 0.980 . S
C1304 C1305 1.349 1_565 S
C1304 C1306 1.327 . S
C1304 H1329 0.950 . S
C1305 C1304 1.349 1_545 S
C1305 C1321 1.349 . S
C1306 C1304 1.327 . S
C1306 C1325 1.429 1_565 S
C1306 H1330 0.950 . S
C1307 C1324 1.574 . S
C1307 C1326 1.368 . S
C1307 H1331 0.949 . S
H1308 C1312 0.949 . S
C1309 C1310 1.349 . S
C1309 C1311 1.327 . S
C1309 H1332 0.950 . S
C1310 C1309 1.349 . S
C1310 C1322 1.327 1_545 S
C1311 C1309 1.327 . S
C1311 C1327 1.429 . S
C1311 H1333 0.950 . S
C1312 H1308 0.949 . S
C1312 C1320 1.574 . S
C1312 C1328 1.368 1_565 S
H1313 C1321 0.950 . S
H1314 C1319 0.950 . S
H1315 C1320 0.949 . S
H1316 C1322 0.969 . S
H1317 C1323 0.950 . S
H1318 C1324 0.949 . S
C1319 H1314 0.950 . S
C1319 C1321 1.327 . S
C1319 C1325 1.429 . S
C1320 C1312 1.574 . S
C1320 H1315 0.949 . S
C1320 C1326 1.368 1_565 S
C1321 C1305 1.349 . S
C1321 H1313 0.950 . S
C1321 C1319 1.327 . S
C1322 C1310 1.327 1_565 S
C1322 H1316 0.969 . S
C1322 C1323 1.331 . S
C1323 H1317 0.950 . S
C1323 C1322 1.331 . S
C1323 C1327 1.429 1_565 S
C1324 C1307 1.574 . S
C1324 H1318 0.949 . S
C1324 C1328 1.368 . S
C1325 C1306 1.429 1_545 S
C1325 C1319 1.429 . S
C1325 C1326 1.523 . S
C1326 C1307 1.368 . S
C1326 C1320 1.368 1_545 S
C1326 C1325 1.523 . S
C1327 C1311 1.429 . S
C1327 C1323 1.429 1_545 S
C1327 C1328 1.523 . S
C1328 C1312 1.368 1_545 S
C1328 C1324 1.368 . S
C1328 C1327 1.523 . S
H1329 C1304 0.950 . S
H1330 C1306 0.950 . S
H1331 C1307 0.949 . S
H1332 C1309 0.950 . S
H1333 C1311 0.950 . S
C1334 C1335 1.349 . S
C1334 C1336 1.327 . S
C1334 H1359 0.950 . S
C1335 C1334 1.349 . S
C1335 C1351 1.349 . S
C1336 C1334 1.327 . S
C1336 C1355 1.429 . S
C1336 H1360 0.950 . S
C1337 C1354 1.574 . S
C1337 C1356 1.368 . S
C1337 H1361 0.949 . S
H1338 C1342 0.949 . S
C1339 C1340 1.349 . S
C1339 C1341 1.327 . S
C1339 H1362 0.950 . S
C1340 C1339 1.349 . S
C1340 C1352 1.349 . S
C1341 C1339 1.327 . S
C1341 C1357 1.429 . S
C1341 H1363 0.950 . S
C1342 H1338 0.949 . S
C1342 C1350 1.574 . S
C1342 C1358 1.368 . S
H1343 C1351 0.950 . S
H1344 C1349 0.950 . S
H1345 C1350 0.949 . S
H1346 C1352 0.950 . S
H1347 C1353 0.950 . S
H1348 C1354 0.949 . S
C1349 H1344 0.950 . S
C1349 C1351 1.327 . S
C1349 C1355 1.429 . S
C1350 C1342 1.574 . S
C1350 H1345 0.949 . S
C1350 C1356 1.368 . S
C1351 C1335 1.349 . S
C1351 H1343 0.950 . S
C1351 C1349 1.327 . S
C1352 C1340 1.349 . S
C1352 H1346 0.950 . S
C1352 C1353 1.327 . S
C1353 H1347 0.950 . S
C1353 C1352 1.327 . S
C1353 C1357 1.429 . S
C1354 C1337 1.574 . S
C1354 H1348 0.949 . S
C1354 C1358 1.368 . S
C1355 C1336 1.429 . S
C1355 C1349 1.429 . S
C1355 C1356 1.523 . S
C1356 C1337 1.368 . S
C1356 C1350 1.368 . S
C1356 C1355 1.523 . S
C1357 C1341 1.429 . S
C1357 C1353 1.429 . S
C1357 C1358 1.523 . S
C1358 C1342 1.368 . S
C1358 C1354 1.368 . S
C1358 C1357 1.523 . S
H1359 C1334 0.950 . S
H1360 C1336 0.950 . S
H1361 C1337 0.949 . S
H1362 C1339 0.950 . S
H1363 C1341 0.950 . S
C1364 C1365 1.349 . S
C1364 C1366 1.327 . S
C1364 H1389 0.950 . S
C1365 C1364 1.349 . S
C1365 C1381 1.349 . S
C1366 C1364 1.327 . S
C1366 C1385 1.429 . S
C1366 H1390 0.950 . S
C1367 C1384 1.574 . S
C1367 C1386 1.368 . S
C1367 H1391 0.949 . S
H1368 C1372 0.949 . S
C1369 C1370 1.349 . S
C1369 C1371 1.327 . S
C1369 H1392 0.950 . S
C1370 C1369 1.349 . S
C1370 C1382 1.349 . S
C1371 C1369 1.327 . S
C1371 C1387 1.429 . S
C1371 H1393 0.950 . S
C1372 H1368 0.949 . S
C1372 C1380 1.574 . S
C1372 C1388 1.368 . S
H1373 C1381 0.950 . S
H1374 C1379 0.950 . S
H1375 C1380 0.949 . S
H1376 C1382 0.950 . S
H1377 C1383 0.950 . S
H1378 C1384 0.949 . S
C1379 H1374 0.950 . S
C1379 C1381 1.327 . S
C1379 C1385 1.429 . S
C1380 C1372 1.574 . S
C1380 H1375 0.949 . S
C1380 C1386 1.368 . S
C1381 C1365 1.349 . S
C1381 H1373 0.950 . S
C1381 C1379 1.327 . S
C1382 C1370 1.349 . S
C1382 H1376 0.950 . S
C1382 C1383 1.327 . S
C1383 H1377 0.950 . S
C1383 C1382 1.327 . S
C1383 C1387 1.429 . S
C1384 C1367 1.574 . S
C1384 H1378 0.949 . S
C1384 C1388 1.368 . S
C1385 C1366 1.429 . S
C1385 C1379 1.429 . S
C1385 C1386 1.523 . S
C1386 C1367 1.368 . S
C1386 C1380 1.368 . S
C1386 C1385 1.523 . S
C1387 C1371 1.429 . S
C1387 C1383 1.429 . S
C1387 C1388 1.523 . S
C1388 C1372 1.368 . S
C1388 C1384 1.368 . S
C1388 C1387 1.523 . S
H1389 C1364 0.950 . S
H1390 C1366 0.950 . S
H1391 C1367 0.949 . S
H1392 C1369 0.950 . S
H1393 C1371 0.950 . S
C1394 C1395 1.361 . S
C1394 C1396 1.327 . S
C1394 H1419 0.950 . S
C1395 C1394 1.361 . S
C1395 C1411 1.340 1_455 S
C1396 C1394 1.327 . S
C1396 C1415 1.429 . S
C1396 H1420 0.950 . S
C1397 C1414 1.576 . S
C1397 C1416 1.368 1_655 S
C1397 H1421 0.949 . S
H1398 C1402 0.949 . S
C1399 C1400 1.349 . S
C1399 C1401 1.327 . S
C1399 H1422 0.957 . S
C1400 C1399 1.349 . S
C1400 C1412 1.349 . S
C1401 C1399 1.327 . S
C1401 C1417 1.429 . S
C1401 H1423 0.950 1_455 S
C1402 H1398 0.949 . S
C1402 C1410 1.574 . S
C1402 C1418 1.368 . S
H1403 C1411 0.950 . S
H1404 C1409 0.950 . S
H1405 C1410 0.949 . S
H1406 C1412 0.950 . S
H1407 C1413 0.950 . S
H1408 C1414 0.958 . S
C1409 H1404 0.950 . S
C1409 C1411 1.327 . S
C1409 C1415 1.429 1_655 S
C1410 C1402 1.574 . S
C1410 H1405 0.949 . S
C1410 C1416 1.368 . S
C1411 C1395 1.340 1_655 S
C1411 H1403 0.950 . S
C1411 C1409 1.327 . S
C1412 C1400 1.349 . S
C1412 H1406 0.950 . S
C1412 C1413 1.327 . S
C1413 H1407 0.950 . S
C1413 C1412 1.327 . S
C1413 C1417 1.429 . S
C1414 C1397 1.576 . S
C1414 H1408 0.958 . S
C1414 C1418 1.357 1_655 S
C1415 C1396 1.429 . S
C1415 C1409 1.429 1_455 S
C1415 C1416 1.523 . S
C1416 C1397 1.368 1_455 S
C1416 C1410 1.368 . S
C1416 C1415 1.523 . S
C1417 C1401 1.429 . S
C1417 C1413 1.429 . S
C1417 C1418 1.523 . S
C1418 C1402 1.368 . S
C1418 C1414 1.357 1_455 S
C1418 C1417 1.523 . S
H1419 C1394 0.950 . S
H1420 C1396 0.950 . S
H1421 C1397 0.949 . S
H1422 C1399 0.957 . S
H1423 C1401 0.950 1_655 S
C1424 C1425 1.346 1_565 S
C1424 C1426 1.327 . S
C1424 H1449 0.952 . S
C1425 C1424 1.346 1_545 S
C1425 C1441 1.349 . S
C1426 C1424 1.327 . S
C1426 C1445 1.429 1_565 S
C1426 H1450 0.950 . S
C1427 C1444 1.574 . S
C1427 C1446 1.368 . S
C1427 H1451 0.949 . S
H1428 C1432 0.949 . S
C1429 C1430 1.369 . S
C1429 C1431 1.327 . S
C1429 H1452 0.950 . S
C1430 C1429 1.369 . S
C1430 C1442 1.331 1_545 S
C1431 C1429 1.327 . S
C1431 C1447 1.429 . S
C1431 H1453 0.950 . S
C1432 H1428 0.949 . S
C1432 C1440 1.574 . S
C1432 C1448 1.368 1_565 S
H1433 C1441 0.950 . S
H1434 C1439 0.950 . S
H1435 C1440 0.949 . S
H1436 C1442 0.950 . S
H1437 C1443 0.950 . S
H1438 C1444 0.949 . S
C1439 H1434 0.950 . S
C1439 C1441 1.327 . S
C1439 C1445 1.429 . S
C1440 C1432 1.574 . S
C1440 H1435 0.949 . S
C1440 C1446 1.368 1_565 S
C1441 C1425 1.349 . S
C1441 H1433 0.950 . S
C1441 C1439 1.327 . S
C1442 C1430 1.331 1_565 S
C1442 H1436 0.950 . S
C1442 C1443 1.327 . S
C1443 H1437 0.950 . S
C1443 C1442 1.327 . S
C1443 C1447 1.429 1_565 S
C1444 C1427 1.574 . S
C1444 H1438 0.949 . S
C1444 C1448 1.368 . S
C1445 C1426 1.429 1_545 S
C1445 C1439 1.429 . S
C1445 C1446 1.523 . S
C1446 C1427 1.368 . S
C1446 C1440 1.368 1_545 S
C1446 C1445 1.523 . S
C1447 C1431 1.429 . S
C1447 C1443 1.429 1_545 S
C1447 C1448 1.523 . S
C1448 C1432 1.368 1_545 S
C1448 C1444 1.368 . S
C1448 C1447 1.523 . S
H1449 C1424 0.952 . S
H1450 C1426 0.950 . S
H1451 C1427 0.949 . S
H1452 C1429 0.950 . S
H1453 C1431 0.950 . S
C1454 C1455 1.349 . S
C1454 C1456 1.327 . S
C1454 H1479 0.950 . S
C1455 C1454 1.349 . S
C1455 C1471 1.349 . S
C1456 C1454 1.327 . S
C1456 C1475 1.429 . S
C1456 H1480 0.950 . S
C1457 C1474 1.574 . S
C1457 C1476 1.368 . S
C1457 H1481 0.949 . S
H1458 C1462 0.949 . S
C1459 C1460 1.349 . S
C1459 C1461 1.327 . S
C1459 H1482 0.950 . S
C1460 C1459 1.349 . S
C1460 C1472 1.349 . S
C1461 C1459 1.327 . S
C1461 C1477 1.429 . S
C1461 H1483 0.950 . S
C1462 H1458 0.949 . S
C1462 C1470 1.574 . S
C1462 C1478 1.368 . S
H1463 C1471 0.950 . S
H1464 C1469 0.950 . S
H1465 C1470 0.949 . S
H1466 C1472 0.950 1_556 S
H1467 C1473 0.950 . S
H1468 C1474 0.949 . S
C1469 H1464 0.950 . S
C1469 C1471 1.327 . S
C1469 C1475 1.429 . S
C1470 C1462 1.574 . S
C1470 H1465 0.949 . S
C1470 C1476 1.368 . S
C1471 C1455 1.349 . S
C1471 H1463 0.950 . S
C1471 C1469 1.327 . S
C1472 C1460 1.349 . S
C1472 H1466 0.950 1_554 S
C1472 C1473 1.327 . S
C1473 H1467 0.950 . S
C1473 C1472 1.327 . S
C1473 C1477 1.429 . S
C1474 C1457 1.574 . S
C1474 H1468 0.949 . S
C1474 C1478 1.368 . S
C1475 C1456 1.429 . S
C1475 C1469 1.429 . S
C1475 C1476 1.523 . S
C1476 C1457 1.368 . S
C1476 C1470 1.368 . S
C1476 C1475 1.523 . S
C1477 C1461 1.429 . S
C1477 C1473 1.429 . S
C1477 C1478 1.523 . S
C1478 C1462 1.368 . S
C1478 C1474 1.368 . S
C1478 C1477 1.523 . S
H1479 C1454 0.950 . S
H1480 C1456 0.950 . S
H1481 C1457 0.949 . S
H1482 C1459 0.950 . S
H1483 C1461 0.950 . S
C1484 C1485 1.349 . S
C1484 C1486 1.327 . S
C1484 H1509 0.950 . S
C1485 C1484 1.349 . S
C1485 C1501 1.349 . S
C1486 C1484 1.327 . S
C1486 C1505 1.429 . S
C1486 H1510 0.950 . S
C1487 C1504 1.574 . S
C1487 C1506 1.368 . S
C1487 H1511 0.949 . S
H1488 C1492 0.949 . S
C1489 C1490 1.349 . S
C1489 C1491 1.327 . S
C1489 H1512 0.950 . S
C1490 C1489 1.349 . S
C1490 C1502 1.349 . S
C1491 C1489 1.327 . S
C1491 C1507 1.429 . S
C1491 H1513 0.950 . S
C1492 H1488 0.949 . S
C1492 C1500 1.574 . S
C1492 C1508 1.368 . S
H1493 C1501 0.950 . S
H1494 C1499 0.950 . S
H1495 C1500 0.949 . S
H1496 C1502 0.950 . S
H1497 C1503 0.950 . S
H1498 C1504 0.949 . S
C1499 H1494 0.950 . S
C1499 C1501 1.327 . S
C1499 C1505 1.429 . S
C1500 C1492 1.574 . S
C1500 H1495 0.949 . S
C1500 C1506 1.368 . S
C1501 C1485 1.349 . S
C1501 H1493 0.950 . S
C1501 C1499 1.327 . S
C1502 C1490 1.349 . S
C1502 H1496 0.950 . S
C1502 C1503 1.327 . S
C1503 H1497 0.950 . S
C1503 C1502 1.327 . S
C1503 C1507 1.429 . S
C1504 C1487 1.574 . S
C1504 H1498 0.949 . S
C1504 C1508 1.368 . S
C1505 C1486 1.429 . S
C1505 C1499 1.429 . S
C1505 C1506 1.523 . S
C1506 C1487 1.368 . S
C1506 C1500 1.368 . S
C1506 C1505 1.523 . S
C1507 C1491 1.429 . S
C1507 C1503 1.429 . S
C1507 C1508 1.523 . S
C1508 C1492 1.368 . S
C1508 C1504 1.368 . S
C1508 C1507 1.523 . S
H1509 C1484 0.950 . S
H1510 C1486 0.950 . S
H1511 C1487 0.949 . S
H1512 C1489 0.950 . S
H1513 C1491 0.950 . S
C1514 C1515 1.349 . S
C1514 C1516 1.327 . S
C1514 H1539 0.950 1_554 S
C1515 C1514 1.349 . S
C1515 C1531 1.349 1_455 S
C1516 C1514 1.327 . S
C1516 C1535 1.429 . S
C1516 H1540 0.950 . S
C1517 C1534 1.577 . S
C1517 C1536 1.377 . S
C1517 H1541 0.940 1_455 S
H1518 C1522 0.949 . S
C1519 C1520 1.349 . S
C1519 C1521 1.327 . S
C1519 H1542 0.950 . S
C1520 C1519 1.349 . S
C1520 C1532 1.349 . S
C1521 C1519 1.327 . S
C1521 C1537 1.429 . S
C1521 H1543 0.950 . S
C1522 H1518 0.949 . S
C1522 C1530 1.574 . S
C1522 C1538 1.368 . S
H1523 C1531 0.950 . S
H1524 C1529 0.950 . S
H1525 C1530 0.949 . S
H1526 C1532 0.950 . S
H1527 C1533 0.950 . S
H1528 C1534 0.949 1_655 S
C1529 H1524 0.950 . S
C1529 C1531 1.327 . S
C1529 C1535 1.429 1_655 S
C1530 C1522 1.574 . S
C1530 H1525 0.949 . S
C1530 C1536 1.368 . S
C1531 C1515 1.349 1_655 S
C1531 H1523 0.950 . S
C1531 C1529 1.327 . S
C1532 C1520 1.349 . S
C1532 H1526 0.950 . S
C1532 C1533 1.327 . S
C1533 H1527 0.950 . S
C1533 C1532 1.327 . S
C1533 C1537 1.429 . S
C1534 C1517 1.577 . S
C1534 H1528 0.949 1_455 S
C1534 C1538 1.368 . S
C1535 C1516 1.429 . S
C1535 C1529 1.429 1_455 S
C1535 C1536 1.523 . S
C1536 C1517 1.377 . S
C1536 C1530 1.368 . S
C1536 C1535 1.523 . S
C1537 C1521 1.429 . S
C1537 C1533 1.429 . S
C1537 C1538 1.523 . S
C1538 C1522 1.368 . S
C1538 C1534 1.368 . S
C1538 C1537 1.523 . S
H1539 C1514 0.950 1_556 S
H1540 C1516 0.950 . S
H1541 C1517 0.940 1_655 S
H1542 C1519 0.950 . S
H1543 C1521 0.950 . S
C1544 C1545 1.387 . S
C1544 C1546 1.322 1_565 S
C1544 H1569 0.919 1_565 S
C1545 C1544 1.387 . S
C1545 C1561 1.349 . S
C1546 C1544 1.322 1_545 S
C1546 C1565 1.429 1_545 S
C1546 H1570 0.950 . S
C1547 C1564 1.574 . S
C1547 C1566 1.368 . S
C1547 H1571 0.949 . S
H1548 C1552 0.949 . S
C1549 C1550 1.349 . S
C1549 C1551 1.327 . S
C1549 H1572 0.950 . S
C1550 C1549 1.349 . S
C1550 C1562 1.349 1_565 S
C1551 C1549 1.327 . S
C1551 C1567 1.429 . S
C1551 H1573 0.950 . S
C1552 H1548 0.949 . S
C1552 C1560 1.574 . S
C1552 C1568 1.368 1_545 S
H1553 C1561 0.950 . S
H1554 C1559 0.950 . S
H1555 C1560 0.949 . S
H1556 C1562 0.950 . S
H1557 C1563 0.950 . S
H1558 C1564 0.949 . S
C1559 H1554 0.950 . S
C1559 C1561 1.327 . S
C1559 C1565 1.429 . S
C1560 C1552 1.574 . S
C1560 H1555 0.949 . S
C1560 C1566 1.368 1_545 S
C1561 C1545 1.349 . S
C1561 H1553 0.950 . S
C1561 C1559 1.327 . S
C1562 C1550 1.349 1_545 S
C1562 H1556 0.950 . S
C1562 C1563 1.327 . S
C1563 H1557 0.950 . S
C1563 C1562 1.327 . S
C1563 C1567 1.429 1_545 S
C1564 C1547 1.574 . S
C1564 H1558 0.949 . S
C1564 C1568 1.368 . S
C1565 C1546 1.429 1_565 S
C1565 C1559 1.429 . S
C1565 C1566 1.523 . S
C1566 C1547 1.368 . S
C1566 C1560 1.368 1_565 S
C1566 C1565 1.523 . S
C1567 C1551 1.429 . S
C1567 C1563 1.429 1_565 S
C1567 C1568 1.523 . S
C1568 C1552 1.368 1_565 S
C1568 C1564 1.368 . S
C1568 C1567 1.523 . S
H1569 C1544 0.919 1_545 S
H1570 C1546 0.950 . S
H1571 C1547 0.949 . S
H1572 C1549 0.950 . S
H1573 C1551 0.950 . S
C1574 C1575 1.349 . S
C1574 C1576 1.327 . S
C1574 H1599 0.950 . S
C1575 C1574 1.349 . S
C1575 C1591 1.349 . S
C1576 C1574 1.327 . S
C1576 C1595 1.429 . S
C1576 H1600 0.950 . S
C1577 C1594 1.574 . S
C1577 C1596 1.368 . S
C1577 H1601 0.949 . S
H1578 C1582 0.949 . S
C1579 C1580 1.349 . S
C1579 C1581 1.327 . S
C1579 H1602 0.950 . S
C1580 C1579 1.349 . S
C1580 C1592 1.349 . S
C1581 C1579 1.327 . S
C1581 C1597 1.429 . S
C1581 H1603 0.950 . S
C1582 H1578 0.949 . S
C1582 C1590 1.574 . S
C1582 C1598 1.368 . S
H1583 C1591 0.950 . S
H1584 C1589 0.950 . S
H1585 C1590 0.949 . S
H1586 C1592 0.950 . S
H1587 C1593 0.950 . S
H1588 C1594 0.949 . S
C1589 H1584 0.950 . S
C1589 C1591 1.327 . S
C1589 C1595 1.429 . S
C1590 C1582 1.574 . S
C1590 H1585 0.949 . S
C1590 C1596 1.368 . S
C1591 C1575 1.349 . S
C1591 H1583 0.950 . S
C1591 C1589 1.327 . S
C1592 C1580 1.349 . S
C1592 H1586 0.950 . S
C1592 C1593 1.327 . S
C1593 H1587 0.950 . S
C1593 C1592 1.327 . S
C1593 C1597 1.429 . S
C1594 C1577 1.574 . S
C1594 H1588 0.949 . S
C1594 C1598 1.368 . S
C1595 C1576 1.429 . S
C1595 C1589 1.429 . S
C1595 C1596 1.523 . S
C1596 C1577 1.368 . S
C1596 C1590 1.368 . S
C1596 C1595 1.523 . S
C1597 C1581 1.429 . S
C1597 C1593 1.429 . S
C1597 C1598 1.523 . S
C1598 C1582 1.368 . S
C1598 C1594 1.368 . S
C1598 C1597 1.523 . S
H1599 C1574 0.950 . S
H1600 C1576 0.950 . S
H1601 C1577 0.949 . S
H1602 C1579 0.950 . S
H1603 C1581 0.950 . S
C1604 C1605 1.349 . S
C1604 C1606 1.327 . S
C1604 H1629 0.950 . S
C1605 C1604 1.349 . S
C1605 C1621 1.349 . S
C1606 C1604 1.327 . S
C1606 C1625 1.429 . S
C1606 H1630 0.950 . S
C1607 C1624 1.574 . S
C1607 C1626 1.368 . S
C1607 H1631 0.949 . S
H1608 C1612 0.949 . S
C1609 C1610 1.349 . S
C1609 C1611 1.327 . S
C1609 H1632 0.950 . S
C1610 C1609 1.349 . S
C1610 C1622 1.349 . S
C1611 C1609 1.327 . S
C1611 C1627 1.429 . S
C1611 H1633 0.950 . S
C1612 H1608 0.949 . S
C1612 C1620 1.574 . S
C1612 C1628 1.368 . S
H1613 C1621 0.950 . S
H1614 C1619 0.950 . S
H1615 C1620 0.949 . S
H1616 C1622 0.950 . S
H1617 C1623 0.950 . S
H1618 C1624 0.949 . S
C1619 H1614 0.950 . S
C1619 C1621 1.327 . S
C1619 C1625 1.429 . S
C1620 C1612 1.574 . S
C1620 H1615 0.949 . S
C1620 C1626 1.368 . S
C1621 C1605 1.349 . S
C1621 H1613 0.950 . S
C1621 C1619 1.327 . S
C1622 C1610 1.349 . S
C1622 H1616 0.950 . S
C1622 C1623 1.327 . S
C1623 H1617 0.950 . S
C1623 C1622 1.327 . S
C1623 C1627 1.429 . S
C1624 C1607 1.574 . S
C1624 H1618 0.949 . S
C1624 C1628 1.368 . S
C1625 C1606 1.429 . S
C1625 C1619 1.429 . S
C1625 C1626 1.523 . S
C1626 C1607 1.368 . S
C1626 C1620 1.368 . S
C1626 C1625 1.523 . S
C1627 C1611 1.429 . S
C1627 C1623 1.429 . S
C1627 C1628 1.523 . S
C1628 C1612 1.368 . S
C1628 C1624 1.368 . S
C1628 C1627 1.523 . S
H1629 C1604 0.950 . S
H1630 C1606 0.950 . S
H1631 C1607 0.949 . S
H1632 C1609 0.950 . S
H1633 C1611 0.950 . S
C1634 C1635 1.349 . S
C1634 C1636 1.327 . S
C1634 H1659 0.950 . S
C1635 C1634 1.349 . S
C1635 C1651 1.349 . S
C1636 C1634 1.327 . S
C1636 C1655 1.429 . S
C1636 H1660 0.950 . S
C1637 C1654 1.574 . S
C1637 C1656 1.368 1_455 S
C1637 H1661 0.949 . S
H1638 C1642 0.949 . S
C1639 C1640 1.339 1_455 S
C1639 C1641 1.327 . S
C1639 H1662 0.950 . S
C1640 C1639 1.339 1_655 S
C1640 C1652 1.362 . S
C1641 C1639 1.327 . S
C1641 C1657 1.429 1_455 S
C1641 H1663 0.950 . S
C1642 H1638 0.949 . S
C1642 C1650 1.574 . S
C1642 C1658 1.368 . S
H1643 C1651 0.950 1_455 S
H1644 C1649 0.950 1_455 S
H1645 C1650 0.949 . S
H1646 C1652 0.950 . S
H1647 C1653 0.950 . S
H1648 C1654 0.949 . S
C1649 H1644 0.950 1_655 S
C1649 C1651 1.327 . S
C1649 C1655 1.429 . S
C1650 C1642 1.574 . S
C1650 H1645 0.949 . S
C1650 C1656 1.368 . S
C1651 C1635 1.349 . S
C1651 H1643 0.950 1_655 S
C1651 C1649 1.327 . S
C1652 C1640 1.362 . S
C1652 H1646 0.950 . S
C1652 C1653 1.327 . S
C1653 H1647 0.950 . S
C1653 C1652 1.327 . S
C1653 C1657 1.429 . S
C1654 C1637 1.574 . S
C1654 H1648 0.949 . S
C1654 C1658 1.368 1_455 S
C1655 C1636 1.429 . S
C1655 C1649 1.429 . S
C1655 C1656 1.523 . S
C1656 C1637 1.368 1_655 S
C1656 C1650 1.368 . S
C1656 C1655 1.523 . S
C1657 C1641 1.429 1_655 S
C1657 C1653 1.429 . S
C1657 C1658 1.523 . S
C1658 C1642 1.368 . S
C1658 C1654 1.368 1_655 S
C1658 C1657 1.523 . S
H1659 C1634 0.950 . S
H1660 C1636 0.950 . S
H1661 C1637 0.949 . S
H1662 C1639 0.950 . S
H1663 C1641 0.950 . S
C1664 C1665 1.349 1_565 S
C1664 C1666 1.327 . S
C1664 H1689 0.950 . S
C1665 C1664 1.349 1_545 S
C1665 C1681 1.349 . S
C1666 C1664 1.327 . S
C1666 C1685 1.429 1_565 S
C1666 H1690 0.950 . S
C1667 C1684 1.574 . S
C1667 C1686 1.368 1_554 S
C1667 H1691 0.949 . S
H1668 C1672 0.949 . S
C1669 C1670 1.349 1_545 S
C1669 C1671 1.327 . S
C1669 H1692 0.950 . S
C1670 C1669 1.349 1_565 S
C1670 C1682 1.349 . S
C1671 C1669 1.327 . S
C1671 C1687 1.429 1_545 S
C1671 H1693 0.950 . S
C1672 H1668 0.949 . S
C1672 C1680 1.574 . S
C1672 C1688 1.368 1_556 S
H1673 C1681 0.950 . S
H1674 C1679 0.951 1_554 S
H1675 C1680 0.949 . S
H1676 C1682 0.950 . S
H1677 C1683 0.951 1_556 S
H1678 C1684 0.949 . S
C1679 H1674 0.951 1_556 S
C1679 C1681 1.327 . S
C1679 C1685 1.429 . S
C1680 C1672 1.574 . S
C1680 H1675 0.949 . S
C1680 C1686 1.368 1_565 S
C1681 C1665 1.349 . S
C1681 H1673 0.950 . S
C1681 C1679 1.327 . S
C1682 C1670 1.349 . S
C1682 H1676 0.950 . S
C1682 C1683 1.327 . S
C1683 H1677 0.951 1_554 S
C1683 C1682 1.327 . S
C1683 C1687 1.429 . S
C1684 C1667 1.574 . S
C1684 H1678 0.949 . S
C1684 C1688 1.368 1_545 S
C1685 C1666 1.429 1_545 S
C1685 C1679 1.429 . S
C1685 C1686 1.523 . S
C1686 C1667 1.368 1_556 S
C1686 C1680 1.368 1_545 S
C1686 C1685 1.523 . S
C1687 C1671 1.429 1_565 S
C1687 C1683 1.429 . S
C1687 C1688 1.523 . S
C1688 C1672 1.368 1_554 S
C1688 C1684 1.368 1_565 S
C1688 C1687 1.523 . S
H1689 C1664 0.950 . S
H1690 C1666 0.950 . S
H1691 C1667 0.949 . S
H1692 C1669 0.950 . S
H1693 C1671 0.950 . S
C1694 C1695 1.349 . S
C1694 C1696 1.327 . S
C1694 H1719 0.950 1_556 S
C1695 C1694 1.349 . S
C1695 C1711 1.349 . S
C1696 C1694 1.327 . S
C1696 C1715 1.429 . S
C1696 H1720 0.950 1_556 S
C1697 C1714 1.574 . S
C1697 C1716 1.368 . S
C1697 H1721 0.949 . S
H1698 C1702 0.949 . S
C1699 C1700 1.349 . S
C1699 C1701 1.327 . S
C1699 H1722 0.950 1_554 S
C1700 C1699 1.349 . S
C1700 C1712 1.349 . S
C1701 C1699 1.327 . S
C1701 C1717 1.429 . S
C1701 H1723 0.950 1_554 S
C1702 H1698 0.949 . S
C1702 C1710 1.574 . S
C1702 C1718 1.368 . S
H1703 C1711 0.950 . S
H1704 C1709 0.950 . S
H1705 C1710 0.949 . S
H1706 C1712 0.950 . S
H1707 C1713 0.950 . S
H1708 C1714 0.949 . S
C1709 H1704 0.950 . S
C1709 C1711 1.327 . S
C1709 C1715 1.429 . S
C1710 C1702 1.574 . S
C1710 H1705 0.949 . S
C1710 C1716 1.368 1_554 S
C1711 C1695 1.349 . S
C1711 H1703 0.950 . S
C1711 C1709 1.327 . S
C1712 C1700 1.349 . S
C1712 H1706 0.950 . S
C1712 C1713 1.327 . S
C1713 H1707 0.950 . S
C1713 C1712 1.327 . S
C1713 C1717 1.429 . S
C1714 C1697 1.574 . S
C1714 H1708 0.949 . S
C1714 C1718 1.368 1_556 S
C1715 C1696 1.429 . S
C1715 C1709 1.429 . S
C1715 C1716 1.523 . S
C1716 C1697 1.368 . S
C1716 C1710 1.368 1_556 S
C1716 C1715 1.523 . S
C1717 C1701 1.429 . S
C1717 C1713 1.429 . S
C1717 C1718 1.523 . S
C1718 C1702 1.368 . S
C1718 C1714 1.368 1_554 S
C1718 C1717 1.523 . S
H1719 C1694 0.950 1_554 S
H1720 C1696 0.950 1_554 S
H1721 C1697 0.949 . S
H1722 C1699 0.950 1_556 S
H1723 C1701 0.950 1_556 S
C1724 C1725 1.349 . S
C1724 C1726 1.327 1_554 S
C1724 H1749 0.950 1_554 S
C1725 C1724 1.349 . S
C1725 C1741 1.349 . S
C1726 C1724 1.327 1_556 S
C1726 C1745 1.429 1_556 S
C1726 H1750 0.950 . S
C1727 C1744 1.574 1_655 S
C1727 C1746 1.368 . S
C1727 H1751 0.949 . S
H1728 C1732 0.949 . S
C1729 C1730 1.349 . S
C1729 C1731 1.327 1_556 S
C1729 H1752 0.950 1_556 S
C1730 C1729 1.349 . S
C1730 C1742 1.349 . S
C1731 C1729 1.327 1_554 S
C1731 C1747 1.429 1_554 S
C1731 H1753 0.950 . S
C1732 H1728 0.949 . S
C1732 C1740 1.574 1_455 S
C1732 C1748 1.368 . S
H1733 C1741 0.950 . S
H1734 C1739 0.950 . S
H1735 C1740 0.949 . S
H1736 C1742 0.950 . S
H1737 C1743 0.950 . S
H1738 C1744 0.949 . S
C1739 H1734 0.950 . S
C1739 C1741 1.327 . S
C1739 C1745 1.429 . S
C1740 C1732 1.574 1_655 S
C1740 H1735 0.949 . S
C1740 C1746 1.368 1_556 S
C1741 C1725 1.349 . S
C1741 H1733 0.950 . S
C1741 C1739 1.327 . S
C1742 C1730 1.349 . S
C1742 H1736 0.950 . S
C1742 C1743 1.327 . S
C1743 H1737 0.950 . S
C1743 C1742 1.327 . S
C1743 C1747 1.429 . S
C1744 C1727 1.574 1_455 S
C1744 H1738 0.949 . S
C1744 C1748 1.368 1_554 S
C1745 C1726 1.429 1_554 S
C1745 C1739 1.429 . S
C1745 C1746 1.523 . S
C1746 C1727 1.368 . S
C1746 C1740 1.368 1_554 S
C1746 C1745 1.523 . S
C1747 C1731 1.429 1_556 S
C1747 C1743 1.429 . S
C1747 C1748 1.523 . S
C1748 C1732 1.368 . S
C1748 C1744 1.368 1_556 S
C1748 C1747 1.523 . S
H1749 C1724 0.950 1_556 S
H1750 C1726 0.950 . S
H1751 C1727 0.949 . S
H1752 C1729 0.950 1_554 S
H1753 C1731 0.950 . S
C1754 C1755 1.323 1_655 S
C1754 C1756 1.335 . S
C1754 H1779 0.970 . S
C1755 C1754 1.323 1_455 S
C1755 C1771 1.349 . S
C1756 C1754 1.335 . S
C1756 C1775 1.429 1_655 S
C1756 H1780 0.950 1_556 S
C1757 C1774 1.574 1_545 S
C1757 C1776 1.368 . S
C1757 H1781 0.949 . S
H1758 C1762 0.949 . S
C1759 C1760 1.331 1_455 S
C1759 C1761 1.332 . S
C1759 H1782 0.963 . S
C1760 C1759 1.331 1_655 S
C1760 C1772 1.349 . S
C1761 C1759 1.332 . S
C1761 C1777 1.429 1_455 S
C1761 H1783 0.950 1_554 S
C1762 H1758 0.949 . S
C1762 C1770 1.574 1_565 S
C1762 C1778 1.368 . S
H1763 C1771 0.950 . S
H1764 C1769 0.950 . S
H1765 C1770 0.949 . S
H1766 C1772 0.950 . S
H1767 C1773 0.950 . S
H1768 C1774 0.949 . S
C1769 H1764 0.950 . S
C1769 C1771 1.327 . S
C1769 C1775 1.429 . S
C1770 C1762 1.574 1_545 S
C1770 H1765 0.949 . S
C1770 C1776 1.368 1_654 S
C1771 C1755 1.349 . S
C1771 H1763 0.950 . S
C1771 C1769 1.327 . S
C1772 C1760 1.349 . S
C1772 H1766 0.950 . S
C1772 C1773 1.327 . S
C1773 H1767 0.950 . S
C1773 C1772 1.327 . S
C1773 C1777 1.429 . S
C1774 C1757 1.574 1_565 S
C1774 H1768 0.949 . S
C1774 C1778 1.368 1_456 S
C1775 C1756 1.429 1_455 S
C1775 C1769 1.429 . S
C1775 C1776 1.523 . S
C1776 C1757 1.368 . S
C1776 C1770 1.368 1_456 S
C1776 C1775 1.523 . S
C1777 C1761 1.429 1_655 S
C1777 C1773 1.429 . S
C1777 C1778 1.523 . S
C1778 C1762 1.368 . S
C1778 C1774 1.368 1_654 S
C1778 C1777 1.523 . S
H1779 C1754 0.970 . S
H1780 C1756 0.950 1_554 S
H1781 C1757 0.949 . S
H1782 C1759 0.963 . S
H1783 C1761 0.950 1_556 S
C1784 C1785 1.349 1_565 S
C1784 C1786 1.327 . S
C1784 H1809 0.950 . S
C1785 C1784 1.349 1_545 S
C1785 C1801 1.349 . S
C1786 C1784 1.327 . S
C1786 C1805 1.429 1_565 S
C1786 H1810 0.950 . S
C1787 C1804 1.574 1_455 S
C1787 C1806 1.368 . S
C1787 H1811 0.949 . S
H1788 C1792 0.949 . S
C1789 C1790 1.349 1_545 S
C1789 C1791 1.327 . S
C1789 H1812 0.950 . S
C1790 C1789 1.349 1_565 S
C1790 C1802 1.349 . S
C1791 C1789 1.327 . S
C1791 C1807 1.429 1_545 S
C1791 H1813 0.950 . S
C1792 H1788 0.949 . S
C1792 C1800 1.574 1_655 S
C1792 C1808 1.368 . S
H1793 C1801 0.950 . S
H1794 C1799 0.950 . S
H1795 C1800 0.949 . S
H1796 C1802 0.950 . S
H1797 C1803 0.950 . S
H1798 C1804 0.949 . S
C1799 H1794 0.950 . S
C1799 C1801 1.327 . S
C1799 C1805 1.429 . S
C1800 C1792 1.574 1_455 S
C1800 H1795 0.949 . S
C1800 C1806 1.368 1_565 S
C1801 C1785 1.349 . S
C1801 H1793 0.950 . S
C1801 C1799 1.327 . S
C1802 C1790 1.349 . S
C1802 H1796 0.950 . S
C1802 C1803 1.327 . S
C1803 H1797 0.950 . S
C1803 C1802 1.327 . S
C1803 C1807 1.429 . S
C1804 C1787 1.574 1_655 S
C1804 H1798 0.949 . S
C1804 C1808 1.368 1_545 S
C1805 C1786 1.429 1_545 S
C1805 C1799 1.429 . S
C1805 C1806 1.523 . S
C1806 C1787 1.368 . S
C1806 C1800 1.368 1_545 S
C1806 C1805 1.523 . S
C1807 C1791 1.429 1_565 S
C1807 C1803 1.429 . S
C1807 C1808 1.523 . S
C1808 C1792 1.368 . S
C1808 C1804 1.368 1_565 S
C1808 C1807 1.523 . S
H1809 C1784 0.950 . S
H1810 C1786 0.950 . S
H1811 C1787 0.949 . S
H1812 C1789 0.950 . S
H1813 C1791 0.950 . S
C1814 C1815 1.349 . S
C1814 C1816 1.327 . S
C1814 H1839 0.950 . S
C1815 C1814 1.349 . S
C1815 C1831 1.349 . S
C1816 C1814 1.327 . S
C1816 C1835 1.429 . S
C1816 H1840 0.950 . S
C1817 C1834 1.574 1_565 S
C1817 C1836 1.368 . S
C1817 H1841 0.949 . S
H1818 C1822 0.949 . S
C1819 C1820 1.349 . S
C1819 C1821 1.327 . S
C1819 H1842 0.950 . S
C1820 C1819 1.349 . S
C1820 C1832 1.349 . S
C1821 C1819 1.327 . S
C1821 C1837 1.429 . S
C1821 H1843 0.950 . S
C1822 H1818 0.949 . S
C1822 C1830 1.574 1_545 S
C1822 C1838 1.368 . S
H1823 C1831 0.950 . S
H1824 C1829 0.950 . S
H1825 C1830 0.949 . S
H1826 C1832 0.950 . S
H1827 C1833 0.950 . S
H1828 C1834 0.949 . S
C1829 H1824 0.950 . S
C1829 C1831 1.327 . S
C1829 C1835 1.429 . S
C1830 C1822 1.574 1_565 S
C1830 H1825 0.949 . S
C1830 C1836 1.368 . S
C1831 C1815 1.349 . S
C1831 H1823 0.950 . S
C1831 C1829 1.327 . S
C1832 C1820 1.349 . S
C1832 H1826 0.950 . S
C1832 C1833 1.327 . S
C1833 H1827 0.950 . S
C1833 C1832 1.327 . S
C1833 C1837 1.429 . S
C1834 C1817 1.574 1_545 S
C1834 H1828 0.949 . S
C1834 C1838 1.368 . S
C1835 C1816 1.429 . S
C1835 C1829 1.429 . S
C1835 C1836 1.523 . S
C1836 C1817 1.368 . S
C1836 C1830 1.368 . S
C1836 C1835 1.523 . S
C1837 C1821 1.429 . S
C1837 C1833 1.429 . S
C1837 C1838 1.523 . S
C1838 C1822 1.368 . S
C1838 C1834 1.368 . S
C1838 C1837 1.523 . S
H1839 C1814 0.950 . S
H1840 C1816 0.950 . S
H1841 C1817 0.949 . S
H1842 C1819 0.950 . S
H1843 C1821 0.950 . S
C1844 C1845 1.349 . S
C1844 C1846 1.327 . S
C1844 H1869 0.950 . S
C1845 C1844 1.349 . S
C1845 C1861 1.349 . S
C1846 C1844 1.327 . S
C1846 C1865 1.429 . S
C1846 H1870 0.950 . S
C1847 C1864 1.574 . S
C1847 C1866 1.368 . S
C1847 H1871 0.949 . S
H1848 C1852 0.949 . S
C1849 C1850 1.349 . S
C1849 C1851 1.327 . S
C1849 H1872 0.950 . S
C1850 C1849 1.349 . S
C1850 C1862 1.349 . S
C1851 C1849 1.327 . S
C1851 C1867 1.429 . S
C1851 H1873 0.950 . S
C1852 H1848 0.949 . S
C1852 C1860 1.574 . S
C1852 C1868 1.368 . S
H1853 C1861 0.950 . S
H1854 C1859 0.950 . S
H1855 C1860 0.949 . S
H1856 C1862 0.950 . S
H1857 C1863 0.950 . S
H1858 C1864 0.949 . S
C1859 H1854 0.950 . S
C1859 C1861 1.327 . S
C1859 C1865 1.429 . S
C1860 C1852 1.574 . S
C1860 H1855 0.949 . S
C1860 C1866 1.368 . S
C1861 C1845 1.349 . S
C1861 H1853 0.950 . S
C1861 C1859 1.327 . S
C1862 C1850 1.349 . S
C1862 H1856 0.950 . S
C1862 C1863 1.327 . S
C1863 H1857 0.950 . S
C1863 C1862 1.327 . S
C1863 C1867 1.429 . S
C1864 C1847 1.574 . S
C1864 H1858 0.949 . S
C1864 C1868 1.368 . S
C1865 C1846 1.429 . S
C1865 C1859 1.429 . S
C1865 C1866 1.523 . S
C1866 C1847 1.368 . S
C1866 C1860 1.368 . S
C1866 C1865 1.523 . S
C1867 C1851 1.429 . S
C1867 C1863 1.429 . S
C1867 C1868 1.523 . S
C1868 C1852 1.368 . S
C1868 C1864 1.368 . S
C1868 C1867 1.523 . S
H1869 C1844 0.950 . S
H1870 C1846 0.950 . S
H1871 C1847 0.949 . S
H1872 C1849 0.950 . S
H1873 C1851 0.950 . S
C1874 C1875 1.349 . S
C1874 C1876 1.327 . S
C1874 H1899 0.950 . S
C1875 C1874 1.349 . S
C1875 C1891 1.346 1_655 S
C1876 C1874 1.327 . S
C1876 C1895 1.429 . S
C1876 H1900 0.950 . S
C1877 C1894 1.574 . S
C1877 C1896 1.368 1_455 S
C1877 H1901 0.949 . S
H1878 C1882 0.949 . S
C1879 C1880 1.349 . S
C1879 C1881 1.327 . S
C1879 H1902 0.950 . S
C1880 C1879 1.349 . S
C1880 C1892 1.346 . S
C1881 C1879 1.327 . S
C1881 C1897 1.429 . S
C1881 H1903 0.950 . S
C1882 H1878 0.949 . S
C1882 C1890 1.574 . S
C1882 C1898 1.368 1_655 S
H1883 C1891 0.952 . S
H1884 C1889 0.950 . S
H1885 C1890 0.949 . S
H1886 C1892 0.952 1_655 S
H1887 C1893 0.950 . S
H1888 C1894 0.949 . S
C1889 H1884 0.950 . S
C1889 C1891 1.328 . S
C1889 C1895 1.429 1_455 S
C1890 C1882 1.574 . S
C1890 H1885 0.949 . S
C1890 C1896 1.368 . S
C1891 C1875 1.346 1_455 S
C1891 H1883 0.952 . S
C1891 C1889 1.328 . S
C1892 C1880 1.346 . S
C1892 H1886 0.952 1_455 S
C1892 C1893 1.328 1_455 S
C1893 H1887 0.950 . S
C1893 C1892 1.328 1_655 S
C1893 C1897 1.429 1_655 S
C1894 C1877 1.574 . S
C1894 H1888 0.949 . S
C1894 C1898 1.368 . S
C1895 C1876 1.429 . S
C1895 C1889 1.429 1_655 S
C1895 C1896 1.523 . S
C1896 C1877 1.368 1_655 S
C1896 C1890 1.368 . S
C1896 C1895 1.523 . S
C1897 C1881 1.429 . S
C1897 C1893 1.429 1_455 S
C1897 C1898 1.523 . S
C1898 C1882 1.368 1_455 S
C1898 C1894 1.368 . S
C1898 C1897 1.523 . S
H1899 C1874 0.950 . S
H1900 C1876 0.950 . S
H1901 C1877 0.949 . S
H1902 C1879 0.950 . S
H1903 C1881 0.950 . S
C945 C347 0.285 . S
C950 C52 0.289 . S
C975 C406 0.528 . S
C980 C111 0.528 . S
C1005 C170 0.285 . S
C1010 C465 0.289 . S
C1035 C229 0.145 . S
C1040 C288 0.140 . S
C1065 C524 0.294 . S
C1070 C819 0.281 . S
C1095 C878 0.528 . S
C1100 C583 0.528 . S
C1125 C937 0.294 . S
C1130 C642 0.281 . S
C1155 C701 0.145 . S
C1160 C760 0.140 . S
C1185 C5 1.527 1_566 S
C1190 C711 1.469 . S
C1215 C770 1.691 . S
C1220 C64 1.780 1_556 S
C1245 C123 1.859 1_556 S
C1250 C829 1.786 . S
C1275 C182 1.607 1_556 S
C1280 C888 1.554 . S
C1305 C241 1.607 . S
C1310 C475 1.554 . S
C1335 C300 1.859 . S
C1340 C534 1.786 . S
C1365 C359 1.780 . S
C1370 C593 1.691 . S
C1395 C418 1.527 1_455 S
C1400 C652 1.469 . S
C1425 C239 1.469 . S
C1430 C477 1.527 1_544 S
C1455 C298 1.691 . S
C1460 C536 1.780 1_554 S
C1485 C357 1.786 . S
C1490 C595 1.859 1_554 S
C1515 C654 1.607 1_554 S
C1520 C416 1.554 . S
C1545 C3 1.554 . S
C1550 C713 1.607 . S
C1575 C772 1.859 . S
C1580 C62 1.786 . S
C1605 C831 1.780 . S
C1610 C121 1.691 . S
C1635 C180 1.469 . S
C1640 C890 1.527 1_655 S
C1665 C505 1.401 . S
C1670 C33 1.402 . S
C1695 C564 1.609 . S
C1700 C92 1.609 . S
C1725 C151 1.939 . S
C1730 C623 1.939 . S
C1755 C682 1.658 . S
C1760 C210 1.659 . S
C1785 C269 1.658 . S
C1790 C741 1.659 . S
C1815 C800 1.939 . S
C1820 C328 1.939 . S
C1845 C859 1.609 . S
C1850 C387 1.609 . S
C1875 C918 1.401 . S
C1880 C446 1.402 . S
