# Generated by pormake.
# Topology smc, (6)-cn, num edge types: 1
# Building blocks:
#     Node 0, Type 0, BuildingBlock: OJICUG_clean_sbu_0, # of connection points: 6
#     Node 1, Type 0, BuildingBlock: OJICUG_clean_sbu_0, # of connection points: 6
#     Node 2, Type 0, BuildingBlock: OJICUG_clean_sbu_0, # of connection points: 6
#     Node 3, Type 0, BuildingBlock: OJICUG_clean_sbu_0, # of connection points: 6
#     Node 4, Type 0, BuildingBlock: OJICUG_clean_sbu_0, # of connection points: 6
#     Node 5, Type 0, BuildingBlock: OJICUG_clean_sbu_0, # of connection points: 6
#     Node 6, Type 0, BuildingBlock: OJICUG_clean_sbu_0, # of connection points: 6
#     Node 7, Type 0, BuildingBlock: OJICUG_clean_sbu_0, # of connection points: 6
#     Node 8, Type 0, BuildingBlock: OJICUG_clean_sbu_0, # of connection points: 6
#     Edge 9, Type (0, 0), BuildingBlock: EZIPEK_clean_linker_0, # of connection points: 2
#     Edge 10, Type (0, 0), BuildingBlock: EZIPEK_clean_linker_0, # of connection points: 2
#     Edge 11, Type (0, 0), BuildingBlock: EZIPEK_clean_linker_0, # of connection points: 2
#     Edge 12, Type (0, 0), BuildingBlock: EZIPEK_clean_linker_0, # of connection points: 2
#     Edge 13, Type (0, 0), BuildingBlock: EZIPEK_clean_linker_0, # of connection points: 2
#     Edge 14, Type (0, 0), BuildingBlock: EZIPEK_clean_linker_0, # of connection points: 2
#     Edge 15, Type (0, 0), BuildingBlock: EZIPEK_clean_linker_0, # of connection points: 2
#     Edge 16, Type (0, 0), BuildingBlock: EZIPEK_clean_linker_0, # of connection points: 2
#     Edge 17, Type (0, 0), BuildingBlock: EZIPEK_clean_linker_0, # of connection points: 2
#     Edge 18, Type (0, 0), BuildingBlock: EZIPEK_clean_linker_0, # of connection points: 2
#     Edge 19, Type (0, 0), BuildingBlock: EZIPEK_clean_linker_0, # of connection points: 2
#     Edge 20, Type (0, 0), BuildingBlock: EZIPEK_clean_linker_0, # of connection points: 2
#     Edge 21, Type (0, 0), BuildingBlock: EZIPEK_clean_linker_0, # of connection points: 2
#     Edge 22, Type (0, 0), BuildingBlock: EZIPEK_clean_linker_0, # of connection points: 2
#     Edge 23, Type (0, 0), BuildingBlock: EZIPEK_clean_linker_0, # of connection points: 2
#     Edge 24, Type (0, 0), BuildingBlock: EZIPEK_clean_linker_0, # of connection points: 2
#     Edge 25, Type (0, 0), BuildingBlock: EZIPEK_clean_linker_0, # of connection points: 2
#     Edge 26, Type (0, 0), BuildingBlock: EZIPEK_clean_linker_0, # of connection points: 2
#     Edge 27, Type (0, 0), BuildingBlock: EZIPEK_clean_linker_0, # of connection points: 2
#     Edge 28, Type (0, 0), BuildingBlock: EZIPEK_clean_linker_0, # of connection points: 2
#     Edge 29, Type (0, 0), BuildingBlock: EZIPEK_clean_linker_0, # of connection points: 2
#     Edge 30, Type (0, 0), BuildingBlock: EZIPEK_clean_linker_0, # of connection points: 2
#     Edge 31, Type (0, 0), BuildingBlock: EZIPEK_clean_linker_0, # of connection points: 2
#     Edge 32, Type (0, 0), BuildingBlock: EZIPEK_clean_linker_0, # of connection points: 2
#     Edge 33, Type (0, 0), BuildingBlock: EZIPEK_clean_linker_0, # of connection points: 2
#     Edge 34, Type (0, 0), BuildingBlock: EZIPEK_clean_linker_0, # of connection points: 2
#     Edge 35, Type (0, 0), BuildingBlock: EZIPEK_clean_linker_0, # of connection points: 2
# Relax obj value: 0.196
# Max RMSD: 0.270
# Mean RMSD: 0.270
data_MOF--net-smc--node1-OJICUG_clean_sbu_0--edge1-EZIPEK_clean_linker_0
_symmetry_space_group_name_H-M    P1
_symmetry_Int_Tables_number       1
_symmetry_cell_setting            triclinic
loop_
_symmetry_equiv_pos_as_xyz
'x, y, z'
_cell_length_a     22.380866
_cell_length_b     22.398286
_cell_length_c     35.113215
_cell_angle_alpha  89.807134
_cell_angle_beta   89.984207
_cell_angle_gamma 120.05921
loop_
_atom_site_label
_atom_site_type_symbol
_atom_site_fract_x
_atom_site_fract_y
_atom_site_fract_z
_atom_type_partial_charge
Sc0 Sc 0.09183 0.5144 0.95626 0.0
Sc1 Sc 0.02837 0.34999 -0.00365 0.0
Sc2 Sc 0.95634 0.45148 0.02073 0.0
O3 O 0.02526 0.43843 -0.0089 0.0
C4 C 0.09541 0.60303 0.02415 0.0
C5 C 0.18569 0.45914 -0.00377 0.0
C6 C 0.99665 0.37643 0.08172 0.0
C7 C 0.05183 0.38577 0.90665 0.0
C8 C 0.95179 0.52378 0.94731 0.0
C9 C 0.86926 0.29216 -0.00958 0.0
O10 O 0.12745 0.58702 0.00048 0.0
O11 O 0.13475 0.40772 0.01172 0.0
O12 O 0.98459 0.42412 0.07276 0.0
O13 O 0.05948 0.44552 0.90976 0.0
O14 O 0.92038 0.47798 0.97223 0.0
O15 O 0.92136 0.28611 0.98305 0.0
O16 O 1.01582 0.54698 0.93968 0.0
O17 O 0.04928 0.34886 0.93521 0.0
O18 O 0.87479 0.34522 0.0077 0.0
O19 O 0.17772 0.49537 0.97044 0.0
O20 O 0.03167 0.56222 0.03284 0.0
O21 O 1.00678 0.34032 0.05734 0.0
Sc22 Sc 0.53647 0.62373 0.95493 0.0
Sc23 Sc 0.7111 0.719 0.9766 0.0
Sc24 Sc 0.60944 0.54997 0.00947 0.0
O25 O 0.61992 0.63161 0.9802 0.0
C26 C 0.46547 0.54801 0.02604 0.0
C27 C 0.614 0.78174 -0.01493 0.0
C28 C 0.70067 0.66962 0.06419 0.0
C29 C 0.64768 0.69502 0.8921 0.0
C30 C 0.51669 0.46967 0.94489 0.0
C31 C 0.75953 0.61019 0.96974 0.0
O32 O 0.48822 0.60436 0.00841 0.0
O33 O 0.66848 0.78165 -0.00501 0.0
O34 O 0.64756 0.61069 0.05946 0.0
O35 O 0.5875 0.6473 0.90128 0.0
O36 O 0.5742 0.48857 0.96035 0.0
O37 O 0.76108 0.66412 0.95723 0.0
O38 O 0.49113 0.50992 0.94381 0.0
O39 O 0.69471 0.73163 0.91626 0.0
O40 O 0.71336 0.56926 -0.00657 0.0
O41 O 0.5664 0.73263 0.96561 0.0
O42 O 0.49992 0.5162 0.02628 0.0
O43 O 0.73379 0.7114 0.03685 0.0
Sc44 Sc 0.44365 0.96634 0.95608 0.0
Sc45 Sc 0.34233 0.03407 -0.01138 0.0
Sc46 Sc 0.51672 0.11604 0.00516 0.0
O47 O 0.43187 0.03653 -0.01472 0.0
C48 C 0.53671 0.98106 0.0187 0.0
C49 C 0.29386 0.87777 -0.00393 0.0
C50 C 0.41452 0.08008 0.07202 0.0
C51 C 0.3536 0.99637 0.90118 0.0
C52 C 0.58463 0.10752 0.94013 0.0
C53 C 0.43767 0.1937 0.97467 0.0
O54 O 0.4767 0.94127 0.00643 0.0
O55 O 0.29356 0.93028 0.00915 0.0
O56 O 0.47517 0.09664 0.06109 0.0
O57 O 0.40752 0.99172 0.90597 0.0
O58 O 0.5455 0.13015 0.94726 0.0
O59 O 0.38293 0.13781 0.96709 0.0
O60 O 0.55646 0.04165 0.9417 0.0
O61 O 0.3187 1.00202 0.92859 0.0
O62 O 0.48602 0.19424 -0.00572 0.0
O63 O 0.33826 0.8824 0.97129 0.0
O64 O 0.56279 0.0472 0.01701 0.0
O65 O 0.36386 0.06486 0.04917 0.0
Sc66 Sc 0.77671 0.84399 0.28282 0.0
Sc67 Sc 0.71932 0.67278 0.31178 0.0
Sc68 Sc 0.65073 0.76972 0.3536 0.0
O69 O 0.71498 0.76183 0.31594 0.0
C70 C 0.77816 0.9248 0.35631 0.0
C71 C 0.87657 0.79167 0.31946 0.0
C72 C 0.69773 0.68113 0.40199 0.0
C73 C 0.74464 0.72292 0.22507 0.0
C74 C 0.63463 0.84499 0.28077 0.0
C75 C 0.55791 0.61744 0.31468 0.0
O76 O 0.79729 0.91826 0.32386 0.0
O77 O 0.83065 0.72806 0.31788 0.0
O78 O 0.67708 0.7242 0.39901 0.0
O79 O 0.7673 0.78523 0.23361 0.0
O80 O 0.61917 0.81673 0.31321 0.0
O81 O 0.60909 0.61089 0.30513 0.0
O82 O 0.68892 0.85581 0.26235 0.0
O83 O 0.72396 0.67514 0.24985 0.0
O84 O 0.56442 0.6691 0.3339 0.0
O85 O 0.86462 0.83862 0.30706 0.0
O86 O 0.72804 0.87463 0.37418 0.0
O87 O 0.71331 0.65659 0.37342 0.0
Sc88 Sc 0.2342 0.92349 0.283 0.0
Sc89 Sc 0.39947 0.03682 0.32152 0.0
Sc90 Sc 0.29138 0.87013 0.35831 0.0
O91 O 0.30927 0.94444 0.32079 0.0
C92 C 0.14502 0.85481 0.35639 0.0
C93 C 0.27981 0.07299 0.32089 0.0
C94 C 0.38365 0.99984 0.40996 0.0
C95 C 0.36482 0.02336 0.23261 0.0
C96 C 0.22107 0.77963 0.28573 0.0
C97 C 0.44085 0.92037 0.31882 0.0
O98 O 0.15228 0.86198 0.32076 0.0
O99 O 0.34353 0.09192 0.32444 0.0
O100 O 0.34501 0.93622 0.40442 0.0
O101 O 0.30184 0.9795 0.23731 0.0
O102 O 0.23346 0.78904 0.32079 0.0
O103 O 0.45831 0.98405 0.31878 0.0
O104 O 0.22846 0.82773 0.26302 0.0
O105 O 0.40776 0.04758 0.25985 0.0
O106 O 0.3832 0.87417 0.33321 0.0
O107 O 0.23565 1.01485 0.30613 0.0
O108 O 0.19492 0.86493 0.37849 0.0
O109 O 0.40597 0.04387 0.38316 0.0
Sc110 Sc 0.11843 0.29818 0.28596 0.0
Sc111 Sc 1.02066 0.35919 0.32956 0.0
Sc112 Sc 0.18382 0.40325 0.36506 0.0
O113 O 0.10831 0.35352 0.32707 0.0
C114 C 0.18218 0.25945 0.35482 0.0
C115 C 0.9668 0.20286 0.32851 0.0
C116 C 0.06141 0.37878 0.41726 0.0
C117 C 0.0302 0.34259 0.24052 0.0
C118 C 0.27535 0.42337 0.29221 0.0
C119 C 0.14044 0.51084 0.32722 0.0
O120 O 0.15699 0.25496 0.32242 0.0
O121 O 0.96349 0.25273 0.34337 0.0
O122 O 0.11475 0.37434 0.41198 0.0
O123 O 0.08529 0.34084 0.24299 0.0
O124 O 0.26383 0.43726 0.32515 0.0
O125 O 0.08145 0.46455 0.31566 0.0
O126 O 0.22785 0.37601 0.2716 0.0
O127 O 0.99392 0.33776 0.26941 0.0
O128 O 0.17876 0.49841 0.34988 0.0
O129 O 1.01245 0.21145 0.30296 0.0
O130 O 0.19478 0.30997 0.37722 0.0
O131 O 0.02641 0.38278 0.39 0.0
Sc132 Sc 0.42622 0.17208 0.62862 0.0
Sc133 Sc 0.35632 1.00062 0.65615 0.0
Sc134 Sc 0.27609 0.09353 0.67872 0.0
O135 O 0.35345 0.08784 0.65499 0.0
C136 C 0.41177 0.2451 0.69441 0.0
C137 C 0.51252 0.10615 0.66634 0.0
C138 C 0.31085 0.01775 0.741 0.0
C139 C 0.39901 0.05896 0.57011 0.0
C140 C 0.28509 0.17546 0.61166 0.0
C141 C 0.19797 0.93866 0.64447 0.0
O142 O 0.44959 0.2237 0.68089 0.0
O143 O 0.45896 0.05246 0.6779 0.0
O144 O 0.29897 0.06613 0.73253 0.0
O145 O 0.40407 0.11711 0.5766 0.0
O146 O 0.25374 0.11465 0.62396 0.0
O147 O 0.25349 0.941 0.63455 0.0
O148 O 0.3514 0.21008 0.61431 0.0
O149 O 0.39074 1.01516 0.59625 0.0
O150 O 0.19766 0.98513 0.66558 0.0
O151 O 0.50948 0.14884 0.64296 0.0
O152 O 0.34545 0.20744 0.69221 0.0
O153 O 0.32281 0.98295 0.7162 0.0
Sc154 Sc 0.86652 0.26106 0.63201 0.0
Sc155 Sc 0.03561 0.3579 0.66261 0.0
Sc156 Sc 0.93501 0.18821 0.69148 0.0
O157 O 0.9457 0.26939 0.66205 0.0
C158 C 0.78404 0.17539 0.69933 0.0
C159 C 0.9335 0.4134 0.67045 0.0
C160 C 1.0146 0.30383 0.7491 0.0
C161 C 0.9864 0.34541 0.5759 0.0
C162 C 0.85816 0.11208 0.62044 0.0
C163 C 0.0878 0.25373 0.65532 0.0
O164 O 0.8042 0.23041 0.68083 0.0
O165 O 0.98626 0.41252 0.68293 0.0
O166 O 0.96109 0.24625 0.74246 0.0
O167 O 0.9272 0.29348 0.58182 0.0
O168 O 0.91013 0.12981 0.64137 0.0
O169 O 0.0867 0.30555 0.64161 0.0
O170 O 0.83047 0.15028 0.61678 0.0
O171 O 0.02749 0.38086 0.60268 0.0
O172 O 0.04419 0.21548 0.68096 0.0
O173 O 0.89158 0.36803 0.6467 0.0
O174 O 0.82233 0.14799 0.70296 0.0
O175 O 0.05362 0.34445 0.72282 0.0
Sc176 Sc 0.77426 0.59777 0.62883 0.0
Sc177 Sc 0.67658 0.67648 0.64548 0.0
Sc178 Sc 0.84316 0.74627 0.68147 0.0
O179 O 0.7642 0.67395 0.65137 0.0
C180 C 0.85143 0.60835 0.69989 0.0
C181 C 0.61571 0.51692 0.65899 0.0
C182 C 0.71889 0.71309 0.73353 0.0
C183 C 0.70546 0.63414 0.56253 0.0
C184 C 0.92571 0.73612 0.61687 0.0
C185 C 0.78155 0.83406 0.6404 0.0
O186 O 0.79457 0.57303 0.68331 0.0
O187 O 0.61442 0.57198 0.66529 0.0
O188 O 0.77835 0.71937 0.73022 0.0
O189 O 0.75062 0.61962 0.57371 0.0
O190 O 0.90644 0.77403 0.63291 0.0
O191 O 0.73073 0.78134 0.62592 0.0
O192 O 0.88726 0.66986 0.61667 0.0
O193 O 0.66885 0.64771 0.58513 0.0
O194 O 0.82075 0.82907 0.66534 0.0
O195 O 0.66595 0.51724 0.64118 0.0
O196 O 0.88155 0.67449 0.69911 0.0
O197 O 0.67989 0.70656 0.70524 0.0
C198 C 0.36504 0.56148 0.04173 0.0
C199 C 0.39064 0.51582 0.03713 0.0
C200 C 0.27583 0.42656 0.01574 0.0
C201 C 0.25641 0.47827 0.01086 0.0
N202 N 0.28337 0.59578 0.02262 0.0
N203 N 0.36124 0.39788 0.03996 0.0
C204 C 0.30097 0.54579 0.02522 0.0
C205 C 0.34296 0.44564 0.03052 0.0
N206 N 0.40259 0.61961 0.06282 0.0
N207 N 0.23173 0.36034 0.00444 0.0
H208 H 0.40837 0.41185 0.0529 0.0
H209 H 0.3275 0.34502 0.03976 0.0
H210 H 0.18725 0.34619 -0.01137 0.0
H211 H 0.24011 0.31927 0.00892 0.0
H212 H 0.3851 0.65317 0.07041 0.0
H213 H 0.44821 0.6291 0.0762 0.0
H214 H 0.31849 0.64787 0.02699 0.0
H215 H 0.23485 0.58607 0.01438 0.0
C216 C 0.63353 0.96127 -0.00128 0.0
C217 C 0.57843 0.94577 0.0241 0.0
C218 C 0.56152 0.8286 0.03187 0.0
C219 C 0.60391 0.83931 -0.00057 0.0
N220 N 0.68313 0.91794 0.95248 0.0
N221 N 0.49779 0.86845 0.07033 0.0
C222 C 0.64151 0.9066 0.98331 0.0
C223 C 0.54593 0.88074 0.0429 0.0
N224 N 0.67977 0.02843 -0.00937 0.0
N225 N 0.53733 0.76917 0.05254 0.0
H226 H 0.48931 0.90752 0.08024 0.0
H227 H 0.46558 0.82023 0.08241 0.0
H228 H 0.54687 0.72976 0.0449 0.0
H229 H 0.51291 0.76124 0.07881 0.0
H230 H 0.72467 0.0438 0.97491 0.0
H231 H 0.67774 0.06856 0.00435 0.0
H232 H 0.70596 0.96391 0.93699 0.0
H233 H 0.69079 0.87954 0.94075 0.0
C234 C 0.25713 0.76832 0.03426 0.0
C235 C 0.23909 0.80894 0.01083 0.0
C236 C 0.11601 0.72292 0.02028 0.0
C237 C 0.13501 0.67684 0.03591 0.0
N238 N 0.21744 0.66257 0.0716 0.0
N239 N 0.15032 0.82675 0.98312 0.0
C240 C 0.20407 0.70239 0.04752 0.0
C241 C 0.16805 0.7875 0.00508 0.0
N242 N 0.32479 0.79234 0.04318 0.0
N243 N 0.04825 0.7052 0.02084 0.0
H244 H 0.18653 0.87252 0.96991 0.0
H245 H 0.09977 0.81199 0.97583 0.0
H246 H 1.01009 0.65845 0.03225 0.0
H247 H 0.03175 0.74015 0.01503 0.0
H248 H 0.3427 0.76381 0.0576 0.0
H249 H 0.36399 0.84154 0.03561 0.0
H250 H 0.26528 0.6776 0.08372 0.0
H251 H 0.17783 0.61491 0.08135 0.0
C252 C 0.50157 0.29868 0.93141 0.0
C253 C 0.44703 0.2601 0.95786 0.0
C254 C 0.4135 0.34954 0.9525 0.0
C255 C 0.47751 0.3943 0.93505 0.0
N256 N 0.56435 0.40284 0.89251 0.0
N257 N 0.34429 0.24483 -0.01063 0.0
C258 C 0.51575 0.36561 0.91952 0.0
C259 C 0.3999 0.28359 0.9664 0.0
N260 N 0.53978 0.27132 0.91788 0.0
N261 N 0.36464 0.36866 0.95377 0.0
H262 H 0.33411 0.19811 0.00146 0.0
H263 H 0.30962 0.2602 -0.00206 0.0
H264 H 0.37346 0.41573 0.94282 0.0
H265 H 0.31327 0.33407 0.96011 0.0
H266 H 0.58501 0.2986 0.90214 0.0
H267 H 0.52534 0.21998 0.92238 0.0
H268 H 0.59159 0.38468 0.87707 0.0
H269 H 0.57302 0.45103 0.88345 0.0
C270 C 0.71464 0.15119 0.93222 0.0
C271 C 0.65989 0.1545 0.95071 0.0
C272 C 0.74166 0.22616 2e-05 0.0
C273 C 0.79859 0.23595 0.97818 0.0
N274 N 0.837 0.21187 0.91799 0.0
N275 N 0.63961 0.23143 -0.00854 0.0
C276 C 0.78487 0.19902 0.94281 0.0
C277 C 0.67781 0.20179 0.98179 0.0
N278 N 0.70037 0.10441 0.90389 0.0
N279 N 0.74839 0.24261 0.03774 0.0
H280 H 0.60643 0.23544 0.97238 0.0
H281 H 0.65306 0.26598 0.01406 0.0
H282 H 0.79395 0.25734 0.05271 0.0
H283 H 0.706 0.23313 0.05455 0.0
H284 H 0.73748 0.0944 0.89251 0.0
H285 H 0.65062 0.07272 0.89349 0.0
H286 H 0.82802 0.19202 0.89046 0.0
H287 H 0.88873 0.24677 0.92292 0.0
C288 C 0.9327 0.62451 0.94067 0.0
C289 C 0.91036 0.55471 0.93261 0.0
C290 C 0.78979 0.52917 0.93562 0.0
C291 C 0.81202 0.59313 0.95433 0.0
N292 N 0.90632 0.7059 0.97116 0.0
N293 N 0.8187 0.44364 0.91372 0.0
C294 C 0.88407 0.64275 0.95505 0.0
C295 C 0.83897 0.50862 0.92645 0.0
N296 N 1.00017 0.67279 0.93462 0.0
N297 N 0.72221 0.48936 0.92542 0.0
H298 H 0.85463 0.42984 0.90469 0.0
H299 H 0.76771 0.40349 0.91326 0.0
H300 H 0.68588 0.50466 0.93 0.0
H301 H 0.70356 0.44479 0.90922 0.0
H302 H 1.01893 0.72559 0.93605 0.0
H303 H 0.03527 0.6599 0.92327 0.0
H304 H 0.95783 0.74425 0.97283 0.0
H305 H 0.87356 0.71929 -0.015 0.0
C306 C 0.95257 0.7633 0.36296 0.0
C307 C 0.94515 0.8112 0.33871 0.0
C308 C 0.0634 0.89614 0.35762 0.0
C309 C 0.07684 0.84374 0.36918 0.0
N310 N 0.03103 0.72366 0.38278 0.0
N311 N 1.00861 0.92352 0.30741 0.0
C312 C 1.02023 0.77604 0.37216 0.0
C313 C 1.00423 0.87851 0.33501 0.0
N314 N 0.89659 0.70846 0.37927 0.0
N315 N 0.11099 0.96309 0.36469 0.0
H316 H 0.97292 0.91069 0.28557 0.0
H317 H 0.05418 0.96986 0.30252 0.0
H318 H 0.15615 0.97641 0.37983 0.0
H319 H 0.10065 1.00276 0.35919 0.0
H320 H 0.90115 0.67508 0.39827 0.0
H321 H 0.84762 0.70299 0.37903 0.0
H322 H 0.99227 0.67199 0.38176 0.0
H323 H 0.07982 0.73276 0.39083 0.0
C324 C 0.26032 0.21154 0.37727 0.0
C325 C 0.19801 0.202 0.36115 0.0
C326 C 0.19635 0.11625 0.31772 0.0
C327 C 0.25479 0.11997 0.33511 0.0
N328 N 0.32822 0.15727 0.39137 0.0
N329 N 0.0926 0.11904 0.32932 0.0
C330 C 0.28305 0.16356 0.36794 0.0
C331 C 0.16059 0.14354 0.33705 0.0
N332 N 0.29823 0.26581 0.40082 0.0
N333 N 0.17695 0.09114 0.28167 0.0
H334 H 0.0654 0.1401 0.34171 0.0
H335 H 0.0632 0.07561 0.31263 0.0
H336 H 0.20692 0.07896 0.26414 0.0
H337 H 0.13638 0.09197 0.26752 0.0
H338 H 0.34799 0.27953 0.40955 0.0
H339 H 0.28066 0.29821 0.41048 0.0
H340 H 0.34533 0.184 0.41696 0.0
H341 H 0.34189 0.11958 0.38796 0.0
C342 C 0.92912 0.09908 0.37223 0.0
C343 C 0.91349 0.13225 0.34231 0.0
C344 C 0.79206 0.03932 0.34701 0.0
C345 C 0.81232 0.99831 0.36802 0.0
N346 N 0.90027 0.99016 0.40252 0.0
N347 N 0.82642 0.13639 0.30386 0.0
C348 C 0.88068 0.02918 0.38191 0.0
C349 C 0.84346 0.1035 0.33089 0.0
N350 N 0.9887 0.13488 0.39248 0.0
N351 N 0.72334 1.01466 0.34132 0.0
H352 H 0.86258 0.18317 0.29151 0.0
H353 H 0.77744 0.11559 0.29204 0.0
H354 H 0.68608 0.96708 0.3525 0.0
H355 H 0.70357 0.04355 0.32911 0.0
H356 H 0.99933 0.11526 0.41688 0.0
H357 H 0.02529 0.18601 0.38623 0.0
H358 H 0.95149 1.00681 0.40956 0.0
H359 H 0.86469 0.93979 0.41095 0.0
C360 C 0.12605 0.6631 0.29079 0.0
C361 C 0.19198 0.70659 0.27515 0.0
C362 C 0.22289 0.61744 0.28866 0.0
C363 C 0.1628 0.58157 0.31196 0.0
N364 N 0.06047 0.57622 0.3384 0.0
N365 N 0.30202 0.72466 0.25571 0.0
C366 C 0.11476 0.60567 0.31349 0.0
C367 C 0.23944 0.68258 0.27229 0.0
N368 N 0.07626 0.68066 0.2862 0.0
N369 N 0.26302 0.58881 0.28136 0.0
H370 H 0.31307 0.7711 0.24266 0.0
H371 H 0.34283 0.71497 0.25585 0.0
H372 H 0.25245 0.54138 0.2925 0.0
H373 H 0.30399 0.60977 0.26218 0.0
H374 H 0.02515 0.64932 0.29476 0.0
H375 H 0.08578 0.72425 0.27044 0.0
H376 H 0.02696 0.59507 0.34298 0.0
H377 H 0.05308 0.53722 0.35745 0.0
C378 C 0.38926 0.44372 0.31226 0.0
C379 C 0.35098 0.45604 0.28422 0.0
C380 C 0.45696 0.56392 0.26819 0.0
C381 C 0.48751 0.56052 0.30316 0.0
N382 N 0.48145 0.49423 0.35867 0.0
N383 N 0.35019 0.5268 0.23313 0.0
C384 C 0.45364 0.49902 0.32501 0.0
C385 C 0.38568 0.51556 0.26106 0.0
N386 N 0.36215 0.37917 0.32746 0.0
N387 N 0.49661 0.61114 0.24123 0.0
H388 H 0.29892 0.49062 0.2269 0.0
H389 H 0.37075 0.5727 0.21764 0.0
H390 H 0.54922 0.64505 0.24525 0.0
H391 H 0.47875 0.61228 0.21399 0.0
H392 H 0.3893 0.36495 0.34596 0.0
H393 H 0.31527 0.33838 0.31789 0.0
H394 H 0.45581 0.45315 0.37763 0.0
H395 H 0.52786 0.53428 0.36901 0.0
C396 C 0.54542 0.94756 0.27546 0.0
C397 C 0.48795 0.89935 0.2987 0.0
C398 C 0.51381 0.81193 0.27521 0.0
C399 C 0.58243 0.86269 0.26683 0.0
N400 N 0.6623 0.98222 0.25497 0.0
N401 N 0.4294 0.78156 0.32452 0.0
C402 C 0.59796 0.93181 0.26549 0.0
C403 C 0.47418 0.82963 0.29921 0.0
N404 N 0.54796 1.00494 0.26025 0.0
N405 N 0.49153 0.74562 0.26498 0.0
H406 H 0.40984 0.7934 0.34833 0.0
H407 H 0.42115 0.73145 0.32563 0.0
H408 H 0.52263 0.73451 0.24775 0.0
H409 H 0.44155 0.70526 0.27016 0.0
H410 H 0.58745 0.03855 0.24204 0.0
H411 H 0.50576 1.01247 0.25989 0.0
H412 H 0.67801 0.03451 0.25648 0.0
H413 H 0.69998 0.97092 0.24597 0.0
C414 C 0.68352 0.18345 0.72147 0.0
C415 C 0.70899 0.14026 0.70946 0.0
C416 C 0.59969 0.06652 0.67647 0.0
C417 C 0.58027 0.11781 0.68168 0.0
N418 N 0.6004 0.22172 0.71334 0.0
N419 N 0.67835 0.02505 0.69371 0.0
C420 C 0.62078 0.17484 0.70594 0.0
C421 C 0.66281 0.07652 0.69264 0.0
N422 N 0.72012 0.23214 0.74832 0.0
N423 N 0.55988 1.01029 0.6543 0.0
H424 H 0.72344 0.03177 0.70639 0.0
H425 H 0.64302 0.97421 0.68691 0.0
H426 H 0.51621 1.00336 0.63981 0.0
H427 H 0.57183 0.97208 0.64834 0.0
H428 H 0.70261 0.26189 0.76175 0.0
H429 H 0.76599 0.23781 0.75946 0.0
H430 H 0.63164 0.26857 0.72677 0.0
H431 H 0.55309 0.21507 0.7045 0.0
C432 C 0.85494 0.44664 0.70532 0.0
C433 C 0.91884 0.46728 0.68656 0.0
C434 C 0.95437 0.58888 0.70155 0.0
C435 C 0.88548 0.56764 0.7113 0.0
N436 N 0.78745 0.48066 0.74442 0.0
N437 N 0.03519 0.55913 0.67288 0.0
C438 C 0.84129 0.49751 0.72023 0.0
C439 C 0.97107 0.53879 0.68734 0.0
N440 N 0.80659 0.37857 0.70859 0.0
N441 N 1.00363 0.65562 0.70804 0.0
H442 H 0.04724 0.52617 0.65825 0.0
H443 H 0.07647 0.60929 0.67403 0.0
H444 H 0.99156 0.69097 0.71983 0.0
H445 H 0.05616 0.673 0.70711 0.0
H446 H 0.75552 0.36142 0.71617 0.0
H447 H 0.81714 0.33946 0.70259 0.0
H448 H 0.75725 0.43156 0.75604 0.0
H449 H 0.77874 0.5186 0.75598 0.0
C450 C 0.48759 0.4287 0.66723 0.0
C451 C 0.55797 0.45074 0.67571 0.0
C452 C 0.51815 0.34913 0.71782 0.0
C453 C 0.45064 0.32124 0.70284 0.0
N454 N 0.36693 0.35112 0.68392 0.0
N455 N 0.63621 0.44486 0.72062 0.0
C456 C 0.43376 0.3662 0.68383 0.0
C457 C 0.57211 0.41488 0.70473 0.0
N458 N 0.47214 0.46594 0.64232 0.0
N459 N 0.52964 0.31103 0.74416 0.0
H460 H 0.67592 0.49323 0.71228 0.0
H461 H 0.64869 0.42488 0.74403 0.0
H462 H 0.48914 0.26472 0.75479 0.0
H463 H 0.57741 0.32462 0.75583 0.0
H464 H 0.42211 0.45258 0.63487 0.0
H465 H 0.50956 0.50896 0.62757 0.0
H466 H 0.35303 0.38746 0.67664 0.0
H467 H 0.32792 0.30666 0.69694 0.0
C468 C 0.74369 0.92277 0.62911 0.0
C469 C 0.7957 0.90371 0.62652 0.0
C470 C 0.87305 1.01614 0.59635 0.0
C471 C 0.82673 0.03923 0.60632 0.0
N472 N 0.70777 1.00571 0.61184 0.0
N473 N 0.90637 0.92861 0.60175 0.0
C474 C 0.75852 0.98966 0.61633 0.0
C475 C 0.85908 0.94908 0.60781 0.0
N476 N 0.68172 0.87881 0.64592 0.0
N477 N 0.92996 0.05927 0.57532 0.0
H478 H 0.89586 0.87852 0.60712 0.0
H479 H 0.95646 0.96134 0.59228 0.0
H480 H 0.9391 0.10784 0.56673 0.0
H481 H 0.96424 0.04556 0.56384 0.0
H482 H 0.64275 0.8905 0.65009 0.0
H483 H 0.67024 0.83163 0.65793 0.0
H484 H 0.65558 0.96899 0.61317 0.0
H485 H 0.71801 0.05363 0.60149 0.0
C486 C 0.02696 0.84096 0.59 0.0
C487 C 1.00035 0.77391 0.60544 0.0
C488 C 0.11079 0.81071 0.63733 0.0
C489 C 0.13167 0.88077 0.62884 0.0
N490 N 0.12389 0.95766 0.58371 0.0
N491 N 0.03065 0.6897 0.62313 0.0
C492 C 0.0941 0.89452 0.60087 0.0
C493 C 0.04669 0.75682 0.62265 0.0
N494 N 0.98624 0.85274 0.56579 0.0
N495 N 0.15095 0.7958 0.66024 0.0
H496 H 0.98471 0.65059 0.61162 0.0
H497 H 0.06682 0.67504 0.6294 0.0
H498 H 0.19612 0.83363 0.67304 0.0
H499 H 0.13862 0.746 0.66767 0.0
H500 H 0.9989 0.90084 0.55483 0.0
H501 H 0.93847 0.81253 0.55672 0.0
H502 H 0.10294 0.96898 0.56026 0.0
H503 H 0.17319 0.99705 0.59078 0.0
C504 C 0.16725 0.15911 0.60381 0.0
C505 C 0.23864 0.20609 0.60671 0.0
C506 C 0.21052 0.29138 0.63192 0.0
C507 C 0.14067 0.23736 0.63908 0.0
N508 N 0.05446 0.11641 0.6305 0.0
N509 N 0.32187 0.32529 0.60157 0.0
C510 C 0.11944 0.1704 0.62444 0.0
C511 C 0.25897 0.27533 0.61427 0.0
N512 N 0.14534 0.10494 0.57946 0.0
N513 N 0.23164 0.35695 0.64396 0.0
H514 H 0.35565 0.31328 0.58759 0.0
H515 H 0.33564 0.37689 0.59958 0.0
H516 H 0.20215 0.36908 0.66186 0.0
H517 H 0.27998 0.39922 0.63826 0.0
H518 H 0.09345 0.0722 0.57293 0.0
H519 H 0.1804 0.09924 0.56238 0.0
H520 H 0.04116 0.06559 0.62479 0.0
H521 H 1.01528 0.12064 0.64356 0.0
C522 C 0.05464 0.41747 0.1841 0.0
C523 C 1.01095 0.35338 0.20209 0.0
C524 C 0.95326 0.30486 0.14136 0.0
C525 C 1.0029 0.36625 0.12275 0.0
N526 N 0.10735 0.47724 0.12525 0.0
N527 N 0.92238 0.23379 0.19835 0.0
C528 C 0.05521 0.42179 0.14384 0.0
C529 C 0.96074 0.29646 0.18094 0.0
N530 N 0.09541 0.47422 0.20575 0.0
N531 N 0.89814 0.2556 0.12148 0.0
H532 H 0.92503 0.22654 0.22753 0.0
H533 H 0.89093 0.18834 0.18364 0.0
H534 H 0.89161 0.2596 0.09236 0.0
H535 H 0.85637 0.21326 0.13429 0.0
H536 H 0.12372 0.52396 0.19464 0.0
H537 H 0.0956 0.47247 0.23545 0.0
H538 H 0.15069 0.51599 0.13892 0.0
H539 H 0.11083 0.48139 0.09562 0.0
C540 C 0.77059 0.68005 0.1643 0.0
C541 C 0.73326 0.70627 0.18395 0.0
C542 C 0.68943 0.72352 0.12332 0.0
C543 C 0.72088 0.69101 0.10406 0.0
N544 N 0.78637 0.63241 0.10555 0.0
N545 N 0.64663 0.7406 0.18311 0.0
C546 C 0.76017 0.66759 0.12438 0.0
C547 C 0.68985 0.72473 0.16367 0.0
N548 N 0.81761 0.66943 0.18348 0.0
N549 N 0.65955 0.75375 0.10293 0.0
H550 H 0.64401 0.74056 0.21275 0.0
H551 H 0.60853 0.74715 0.17004 0.0
H552 H 0.65851 0.75377 0.07325 0.0
H553 H 0.6419 0.78439 0.11514 0.0
H554 H 0.85178 0.65742 0.17012 0.0
H555 H 0.82577 0.67728 0.21273 0.0
H556 H 0.80857 0.60698 0.11924 0.0
H557 H 0.78269 0.62572 0.07607 0.0
C558 C 0.3995 0.11692 0.13736 0.0
C559 C 0.40073 0.06683 0.11332 0.0
C560 C 0.39555 0.99792 0.16906 0.0
C561 C 0.38761 0.04443 0.19283 0.0
N562 N 0.37573 0.14487 0.20035 0.0
N563 N 0.39087 0.95525 0.10515 0.0
C564 C 0.38825 0.10335 0.17721 0.0
C565 C 0.39646 1.00615 0.12889 0.0
N566 N 0.41053 0.17789 0.12215 0.0
N567 N 0.40316 0.94637 0.18509 0.0
H568 H 0.39131 0.95921 0.07552 0.0
H569 H 0.38 0.90669 0.11456 0.0
H570 H 0.40245 0.93893 0.21449 0.0
H571 H 0.41624 0.91492 0.16969 0.0
H572 H 0.41773 0.2197 0.13846 0.0
H573 H 0.41673 0.18824 0.09296 0.0
H574 H 0.36744 0.18389 0.19028 0.0
H575 H 0.36999 0.13788 0.2298 0.0
C576 C 0.38203 0.06326 0.84087 0.0
C577 C 0.3361 1.00271 0.86131 0.0
C578 C 0.27058 0.95117 0.80273 0.0
C579 C 0.32074 1.00914 0.78189 0.0
N580 N 0.43079 0.11477 0.77971 0.0
N581 N 0.2403 0.88624 0.86215 0.0
C582 C 0.3783 0.06371 0.8006 0.0
C583 C 0.28104 0.94584 0.84241 0.0
N584 N 0.42827 0.12103 0.8602 0.0
N585 N 0.21236 0.90236 0.78479 0.0
H586 H 0.24539 0.88162 0.89139 0.0
H587 H 0.20416 0.84035 0.84934 0.0
H588 H 0.20415 0.90413 0.75566 0.0
H589 H 0.17039 0.86264 0.79904 0.0
H590 H 0.45839 0.16898 0.84729 0.0
H591 H 0.4316 0.12265 0.88985 0.0
H592 H 0.47746 0.15177 0.7915 0.0
H593 H 0.43061 0.11656 0.75001 0.0
C594 C 0.09008 0.34608 0.84929 0.0
C595 C 0.04013 0.3575 0.86761 0.0
C596 C 0.98001 0.34264 0.807 0.0
C597 C 0.02707 0.3266 0.78918 0.0
N598 N 0.12077 0.30309 0.79354 0.0
N599 N 0.93078 0.35446 0.86591 0.0
C600 C 0.08049 0.32549 0.81037 0.0
C601 C 0.98302 0.35206 0.847 0.0
N602 N 0.14804 0.35785 0.86856 0.0
N603 N 0.93385 0.35116 0.78542 0.0
H604 H 0.931 0.36137 0.89529 0.0
H605 H 0.88426 0.3432 0.85322 0.0
H606 H 0.93015 0.34497 0.75592 0.0
H607 H 0.90337 0.37031 0.79611 0.0
H608 H 0.19004 0.35812 0.85562 0.0
H609 H 0.15627 0.37197 0.89718 0.0
H610 H 0.15545 0.29372 0.80845 0.0
H611 H 0.11617 0.28935 0.76487 0.0
C612 C 0.67679 0.64664 0.79368 0.0
C613 C 0.69241 0.70684 0.77266 0.0
C614 C 0.67422 0.75876 0.82967 0.0
C615 C 0.66586 0.70146 0.85133 0.0
N616 N 0.67019 0.59603 0.85562 0.0
N617 N 0.71197 0.82278 0.77011 0.0
C618 C 0.66997 0.64666 0.83377 0.0
C619 C 0.6924 0.76363 0.79043 0.0
N620 N 0.66711 0.58892 0.77506 0.0
N621 N 0.6631 0.80737 0.84641 0.0
H622 H 0.72345 0.82708 0.74107 0.0
H623 H 0.72057 0.86871 0.78231 0.0
H624 H 0.65093 0.80575 0.87523 0.0
H625 H 0.66133 0.84659 0.83139 0.0
H626 H 0.64879 0.54117 0.78828 0.0
H627 H 0.67102 0.58709 0.74553 0.0
H628 H 0.68066 0.55898 0.84481 0.0
H629 H 0.66615 0.59451 0.88526 0.0
C630 C 0.75468 0.71825 0.46503 0.0
C631 C 0.70769 0.66364 0.4414 0.0
C632 C 0.66203 0.58709 0.49719 0.0
C633 C 0.7028 0.6443 0.52107 0.0
N634 N 0.78613 0.76517 0.52875 0.0
N635 N 0.61762 0.5456 0.43374 0.0
C636 C 0.74884 0.71013 0.50524 0.0
C637 C 0.66213 0.59756 0.45709 0.0
N638 N 0.80618 0.77722 0.44866 0.0
N639 N 0.62425 0.52274 0.5129 0.0
H640 H 0.62068 0.55004 0.40418 0.0
H641 H 0.57682 0.49895 0.44342 0.0
H642 H 0.621 0.51397 0.54224 0.0
H643 H 0.59911 0.47759 0.49707 0.0
H644 H 0.84635 0.81676 0.46386 0.0
H645 H 0.81255 0.78376 0.4192 0.0
H646 H 0.81479 0.81594 0.51923 0.0
H647 H 0.78492 0.76097 0.55836 0.0
C648 C 0.45351 0.03961 0.47019 0.0
C649 C 0.39204 0.02235 0.45005 0.0
C650 C 0.33333 0.01817 0.50973 0.0
C651 C 0.39587 0.0398 0.52967 0.0
N652 N 0.51765 0.07909 0.52945 0.0
N653 N 0.27729 1.00672 0.449 0.0
C654 C 0.45672 0.05278 0.51006 0.0
C655 C 0.33308 1.01512 0.46941 0.0
N656 N 0.50777 0.0412 0.45138 0.0
N657 N 0.27372 0.99883 0.52958 0.0
H658 H 0.27514 1.00407 0.41933 0.0
H659 H 0.23568 1.00848 0.46103 0.0
H660 H 0.27212 1.00025 0.55923 0.0
H661 H 0.22502 0.97569 0.51714 0.0
H662 H 0.55122 0.04586 0.46498 0.0
H663 H 0.50763 0.03406 0.42202 0.0
H664 H 0.56532 0.09686 0.51629 0.0
H665 H 0.521 0.08666 0.55886 0.0
C666 C 1.01038 0.30408 0.5156 0.0
C667 C 1.01024 0.35861 0.5359 0.0
C668 C 0.04266 0.42845 0.47745 0.0
C669 C 0.03598 0.37101 0.45684 0.0
N670 N 0.99591 0.24939 0.45454 0.0
N671 N 1.0168 0.46942 0.53573 0.0
C672 C 1.01458 0.30738 0.47546 0.0
C673 C 1.02394 0.42018 0.51677 0.0
N674 N 1.00876 0.25004 0.53479 0.0
N675 N 0.06852 0.49102 0.45976 0.0
H676 H 1.00394 0.4652 0.56455 0.0
H677 H 1.01894 0.51201 0.52235 0.0
H678 H 0.08081 0.49812 0.43081 0.0
H679 H 0.08168 0.53652 0.47417 0.0
H680 H 1.01559 0.2124 0.52143 0.0
H681 H 1.0081 0.2468 0.56447 0.0
H682 H 0.9739 0.20015 0.46644 0.0
H683 H 0.99487 0.2499 0.42487 0.0
loop_
_geom_bond_atom_site_label_1
_geom_bond_atom_site_label_2
_geom_bond_distance
_geom_bond_site_symmetry_2
_ccdc_geom_bond_type
Sc0 O3 2.025 1_556 S
Sc0 O10 2.105 . S
Sc0 O13 2.105 . S
Sc0 O16 2.105 1_455 S
Sc0 O19 2.105 . S
Sc1 O3 2.025 . S
Sc1 O11 2.105 1_554 S
Sc1 O15 2.105 1_455 S
Sc1 O17 2.105 1_454 S
Sc1 O21 2.105 . S
Sc2 O3 2.025 1_655 S
Sc2 O12 2.105 1_655 S
Sc2 O14 2.105 . S
Sc2 O18 2.105 . S
Sc2 O20 2.105 1_655 S
O3 Sc0 2.025 1_554 S
O3 Sc1 2.025 . S
O3 Sc2 2.025 1_455 S
C4 O10 1.268 1_554 S
C4 O20 1.268 . S
C5 O11 1.268 . S
C5 O19 1.268 . S
C6 O12 1.268 . S
C6 O21 1.268 . S
C7 O13 1.268 1_655 S
C7 O17 1.268 . S
C8 O14 1.268 1_556 S
C8 O16 1.268 . S
C9 O15 1.268 . S
C9 O18 1.268 . S
O10 Sc0 2.105 . S
O10 C4 1.268 1_556 S
O11 Sc1 2.105 1_556 S
O11 C5 1.268 . S
O12 Sc2 2.105 1_455 S
O12 C6 1.268 . S
O13 Sc0 2.105 . S
O13 C7 1.268 1_455 S
O14 Sc2 2.105 . S
O14 C8 1.268 1_554 S
O15 Sc1 2.105 1_655 S
O15 C9 1.268 . S
O16 Sc0 2.105 1_655 S
O16 C8 1.268 . S
O17 Sc1 2.105 1_656 S
O17 C7 1.268 . S
O18 Sc2 2.105 . S
O18 C9 1.268 . S
O19 Sc0 2.105 . S
O19 C5 1.268 . S
O20 Sc2 2.105 1_455 S
O20 C4 1.268 . S
O21 Sc1 2.105 . S
O21 C6 1.268 . S
Sc22 O25 2.025 1_556 S
Sc22 O32 2.105 . S
Sc22 O35 2.105 . S
Sc22 O38 2.105 . S
Sc22 O41 2.105 . S
Sc23 O25 2.025 . S
Sc23 O33 2.105 1_554 S
Sc23 O37 2.105 . S
Sc23 O39 2.105 1_554 S
Sc23 O43 2.105 . S
Sc24 O25 2.025 . S
Sc24 O34 2.105 . S
Sc24 O36 2.105 . S
Sc24 O40 2.105 . S
Sc24 O42 2.105 . S
O25 Sc22 2.025 1_554 S
O25 Sc23 2.025 . S
O25 Sc24 2.025 . S
C26 O32 1.268 1_554 S
C26 O42 1.268 . S
C27 O33 1.268 . S
C27 O41 1.268 . S
C28 O34 1.268 . S
C28 O43 1.268 . S
C29 O35 1.268 . S
C29 O39 1.268 . S
C30 O36 1.268 1_556 S
C30 O38 1.268 . S
C31 O37 1.268 . S
C31 O40 1.268 . S
O32 Sc22 2.105 . S
O32 C26 1.268 1_556 S
O33 Sc23 2.105 1_556 S
O33 C27 1.268 . S
O34 Sc24 2.105 . S
O34 C28 1.268 . S
O35 Sc22 2.105 . S
O35 C29 1.268 . S
O36 Sc24 2.105 . S
O36 C30 1.268 1_554 S
O37 Sc23 2.105 . S
O37 C31 1.268 . S
O38 Sc22 2.105 . S
O38 C30 1.268 . S
O39 Sc23 2.105 1_556 S
O39 C29 1.268 . S
O40 Sc24 2.105 . S
O40 C31 1.268 . S
O41 Sc22 2.105 . S
O41 C27 1.268 . S
O42 Sc24 2.105 . S
O42 C26 1.268 . S
O43 Sc23 2.105 . S
O43 C28 1.268 . S
Sc44 O47 2.025 1_566 S
Sc44 O54 2.105 . S
Sc44 O57 2.105 1_565 S
Sc44 O60 2.105 1_565 S
Sc44 O63 2.105 . S
Sc45 O47 2.025 . S
Sc45 O55 2.105 1_544 S
Sc45 O59 2.105 . S
Sc45 O61 2.105 1_554 S
Sc45 O65 2.105 1_545 S
Sc46 O47 2.025 . S
Sc46 O56 2.105 . S
Sc46 O58 2.105 . S
Sc46 O62 2.105 . S
Sc46 O64 2.105 1_545 S
O47 Sc44 2.025 1_544 S
O47 Sc45 2.025 . S
O47 Sc46 2.025 . S
C48 O54 1.268 1_554 S
C48 O64 1.268 . S
C49 O55 1.268 . S
C49 O63 1.268 . S
C50 O56 1.268 1_565 S
C50 O65 1.268 . S
C51 O57 1.268 . S
C51 O61 1.268 . S
C52 O58 1.268 1_556 S
C52 O60 1.268 . S
C53 O59 1.268 . S
C53 O62 1.268 . S
O54 Sc44 2.105 . S
O54 C48 1.268 1_556 S
O55 Sc45 2.105 1_566 S
O55 C49 1.268 . S
O56 Sc46 2.105 . S
O56 C50 1.268 1_545 S
O57 Sc44 2.105 1_545 S
O57 C51 1.268 . S
O58 Sc46 2.105 . S
O58 C52 1.268 1_554 S
O59 Sc45 2.105 . S
O59 C53 1.268 . S
O60 Sc44 2.105 1_545 S
O60 C52 1.268 . S
O61 Sc45 2.105 1_556 S
O61 C51 1.268 . S
O62 Sc46 2.105 . S
O62 C53 1.268 . S
O63 Sc44 2.105 . S
O63 C49 1.268 . S
O64 Sc46 2.105 1_565 S
O64 C48 1.268 . S
O65 Sc45 2.105 1_565 S
O65 C50 1.268 . S
Sc66 O69 2.025 . S
Sc66 O76 2.105 . S
Sc66 O79 2.105 . S
Sc66 O82 2.105 . S
Sc66 O85 2.105 . S
Sc67 O69 2.025 . S
Sc67 O77 2.105 . S
Sc67 O81 2.105 . S
Sc67 O83 2.105 . S
Sc67 O87 2.105 . S
Sc68 O69 2.025 . S
Sc68 O78 2.105 . S
Sc68 O80 2.105 . S
Sc68 O84 2.105 . S
Sc68 O86 2.105 . S
O69 Sc66 2.025 . S
O69 Sc67 2.025 . S
O69 Sc68 2.025 . S
C70 O76 1.268 . S
C70 O86 1.268 . S
C71 O77 1.268 . S
C71 O85 1.268 . S
C72 O78 1.268 . S
C72 O87 1.268 . S
C73 O79 1.268 . S
C73 O83 1.268 . S
C74 O80 1.268 . S
C74 O82 1.268 . S
C75 O81 1.268 . S
C75 O84 1.268 . S
O76 Sc66 2.105 . S
O76 C70 1.268 . S
O77 Sc67 2.105 . S
O77 C71 1.268 . S
O78 Sc68 2.105 . S
O78 C72 1.268 . S
O79 Sc66 2.105 . S
O79 C73 1.268 . S
O80 Sc68 2.105 . S
O80 C74 1.268 . S
O81 Sc67 2.105 . S
O81 C75 1.268 . S
O82 Sc66 2.105 . S
O82 C74 1.268 . S
O83 Sc67 2.105 . S
O83 C73 1.268 . S
O84 Sc68 2.105 . S
O84 C75 1.268 . S
O85 Sc66 2.105 . S
O85 C71 1.268 . S
O86 Sc68 2.105 . S
O86 C70 1.268 . S
O87 Sc67 2.105 . S
O87 C72 1.268 . S
Sc88 O91 2.025 . S
Sc88 O98 2.105 . S
Sc88 O101 2.105 . S
Sc88 O104 2.105 . S
Sc88 O107 2.105 . S
Sc89 O91 2.025 . S
Sc89 O99 2.105 1_565 S
Sc89 O103 2.105 . S
Sc89 O105 2.105 . S
Sc89 O109 2.104 . S
Sc90 O91 2.025 . S
Sc90 O100 2.105 . S
Sc90 O102 2.105 . S
Sc90 O106 2.105 . S
Sc90 O108 2.105 . S
O91 Sc88 2.025 . S
O91 Sc89 2.025 . S
O91 Sc90 2.025 . S
C92 O98 1.268 . S
C92 O108 1.268 . S
C93 O99 1.268 . S
C93 O107 1.268 1_545 S
C94 O100 1.268 . S
C94 O109 1.268 . S
C95 O101 1.268 . S
C95 O105 1.268 . S
C96 O102 1.268 . S
C96 O104 1.268 . S
C97 O103 1.268 . S
C97 O106 1.268 . S
O98 Sc88 2.105 . S
O98 C92 1.268 . S
O99 Sc89 2.105 1_545 S
O99 C93 1.268 . S
O100 Sc90 2.105 . S
O100 C94 1.268 . S
O101 Sc88 2.105 . S
O101 C95 1.268 . S
O102 Sc90 2.105 . S
O102 C96 1.268 . S
O103 Sc89 2.105 . S
O103 C97 1.268 . S
O104 Sc88 2.105 . S
O104 C96 1.268 . S
O105 Sc89 2.105 . S
O105 C95 1.268 . S
O106 Sc90 2.105 . S
O106 C97 1.268 . S
O107 Sc88 2.105 . S
O107 C93 1.268 1_565 S
O108 Sc90 2.105 . S
O108 C92 1.268 . S
O109 Sc89 2.104 . S
O109 C94 1.268 . S
Sc110 O113 2.025 . S
Sc110 O120 2.105 . S
Sc110 O123 2.105 . S
Sc110 O126 2.105 . S
Sc110 O129 2.105 . S
Sc111 O113 2.025 . S
Sc111 O121 2.105 1_455 S
Sc111 O125 2.105 . S
Sc111 O127 2.105 . S
Sc111 O131 2.105 . S
Sc112 O113 2.025 . S
Sc112 O122 2.105 . S
Sc112 O124 2.105 . S
Sc112 O128 2.105 . S
Sc112 O130 2.105 . S
O113 Sc110 2.025 . S
O113 Sc111 2.025 . S
O113 Sc112 2.025 . S
C114 O120 1.268 . S
C114 O130 1.268 . S
C115 O121 1.268 . S
C115 O129 1.268 1_655 S
C116 O122 1.268 . S
C116 O131 1.268 . S
C117 O123 1.268 . S
C117 O127 1.268 . S
C118 O124 1.268 . S
C118 O126 1.268 . S
C119 O125 1.268 . S
C119 O128 1.268 . S
O120 Sc110 2.105 . S
O120 C114 1.268 . S
O121 Sc111 2.105 1_655 S
O121 C115 1.268 . S
O122 Sc112 2.105 . S
O122 C116 1.268 . S
O123 Sc110 2.105 . S
O123 C117 1.268 . S
O124 Sc112 2.105 . S
O124 C118 1.268 . S
O125 Sc111 2.105 . S
O125 C119 1.268 . S
O126 Sc110 2.105 . S
O126 C118 1.268 . S
O127 Sc111 2.105 . S
O127 C117 1.268 . S
O128 Sc112 2.105 . S
O128 C119 1.268 . S
O129 Sc110 2.105 . S
O129 C115 1.268 1_455 S
O130 Sc112 2.105 . S
O130 C114 1.268 . S
O131 Sc111 2.105 . S
O131 C116 1.268 . S
Sc132 O135 2.025 . S
Sc132 O142 2.105 . S
Sc132 O145 2.105 . S
Sc132 O148 2.105 . S
Sc132 O151 2.105 . S
Sc133 O135 2.025 . S
Sc133 O143 2.105 . S
Sc133 O147 2.105 1_545 S
Sc133 O149 2.105 . S
Sc133 O153 2.105 . S
Sc134 O135 2.025 . S
Sc134 O144 2.105 . S
Sc134 O146 2.105 . S
Sc134 O150 2.105 . S
Sc134 O152 2.105 . S
O135 Sc132 2.025 . S
O135 Sc133 2.025 . S
O135 Sc134 2.025 . S
C136 O142 1.268 . S
C136 O152 1.268 . S
C137 O143 1.268 . S
C137 O151 1.268 . S
C138 O144 1.268 . S
C138 O153 1.268 . S
C139 O145 1.268 . S
C139 O149 1.268 . S
C140 O146 1.268 . S
C140 O148 1.268 . S
C141 O147 1.268 . S
C141 O150 1.268 1_565 S
O142 Sc132 2.105 . S
O142 C136 1.268 . S
O143 Sc133 2.105 . S
O143 C137 1.268 . S
O144 Sc134 2.105 . S
O144 C138 1.268 . S
O145 Sc132 2.105 . S
O145 C139 1.268 . S
O146 Sc134 2.105 . S
O146 C140 1.268 . S
O147 Sc133 2.105 1_565 S
O147 C141 1.268 . S
O148 Sc132 2.105 . S
O148 C140 1.268 . S
O149 Sc133 2.105 . S
O149 C139 1.268 . S
O150 Sc134 2.105 . S
O150 C141 1.268 1_545 S
O151 Sc132 2.105 . S
O151 C137 1.268 . S
O152 Sc134 2.105 . S
O152 C136 1.268 . S
O153 Sc133 2.105 . S
O153 C138 1.268 . S
Sc154 O157 2.025 . S
Sc154 O164 2.105 . S
Sc154 O167 2.105 . S
Sc154 O170 2.105 . S
Sc154 O173 2.105 . S
Sc155 O157 2.025 . S
Sc155 O165 2.105 . S
Sc155 O169 2.105 1_655 S
Sc155 O171 2.106 . S
Sc155 O175 2.105 . S
Sc156 O157 2.025 . S
Sc156 O166 2.105 . S
Sc156 O168 2.105 . S
Sc156 O172 2.105 . S
Sc156 O174 2.105 . S
O157 Sc154 2.025 . S
O157 Sc155 2.025 . S
O157 Sc156 2.025 . S
C158 O164 1.268 . S
C158 O174 1.268 . S
C159 O165 1.268 . S
C159 O173 1.268 . S
C160 O166 1.268 . S
C160 O175 1.268 . S
C161 O167 1.268 . S
C161 O171 1.270 . S
C162 O168 1.268 . S
C162 O170 1.268 . S
C163 O169 1.268 . S
C163 O172 1.268 1_455 S
O164 Sc154 2.105 . S
O164 C158 1.268 . S
O165 Sc155 2.105 . S
O165 C159 1.268 . S
O166 Sc156 2.105 . S
O166 C160 1.268 . S
O167 Sc154 2.105 . S
O167 C161 1.268 . S
O168 Sc156 2.105 . S
O168 C162 1.268 . S
O169 Sc155 2.105 1_455 S
O169 C163 1.268 . S
O170 Sc154 2.105 . S
O170 C162 1.268 . S
O171 Sc155 2.106 . S
O171 C161 1.270 . S
O172 Sc156 2.105 . S
O172 C163 1.268 1_655 S
O173 Sc154 2.105 . S
O173 C159 1.268 . S
O174 Sc156 2.105 . S
O174 C158 1.268 . S
O175 Sc155 2.105 . S
O175 C160 1.268 . S
Sc176 O179 2.025 . S
Sc176 O186 2.105 . S
Sc176 O189 2.105 . S
Sc176 O192 2.105 . S
Sc176 O195 2.105 . S
Sc177 O179 2.025 . S
Sc177 O187 2.105 . S
Sc177 O191 2.105 . S
Sc177 O193 2.105 . S
Sc177 O197 2.105 . S
Sc178 O179 2.025 . S
Sc178 O188 2.105 . S
Sc178 O190 2.105 . S
Sc178 O194 2.105 . S
Sc178 O196 2.105 . S
O179 Sc176 2.025 . S
O179 Sc177 2.025 . S
O179 Sc178 2.025 . S
C180 O186 1.268 . S
C180 O196 1.268 . S
C181 O187 1.268 . S
C181 O195 1.268 . S
C182 O188 1.268 . S
C182 O197 1.268 . S
C183 O189 1.268 . S
C183 O193 1.268 . S
C184 O190 1.268 . S
C184 O192 1.268 . S
C185 O191 1.268 . S
C185 O194 1.268 . S
O186 Sc176 2.105 . S
O186 C180 1.268 . S
O187 Sc177 2.105 . S
O187 C181 1.268 . S
O188 Sc178 2.105 . S
O188 C182 1.268 . S
O189 Sc176 2.105 . S
O189 C183 1.268 . S
O190 Sc178 2.105 . S
O190 C184 1.268 . S
O191 Sc177 2.105 . S
O191 C185 1.268 . S
O192 Sc176 2.105 . S
O192 C184 1.268 . S
O193 Sc177 2.105 . S
O193 C183 1.268 . S
O194 Sc178 2.105 . S
O194 C185 1.268 . S
O195 Sc176 2.105 . S
O195 C181 1.268 . S
O196 Sc178 2.105 . S
O196 C180 1.268 . S
O197 Sc177 2.105 . S
O197 C182 1.268 . S
C198 C199 1.363 . S
C198 C204 1.379 . S
C198 N206 1.356 . S
C199 C198 1.363 . S
C199 C205 1.363 . S
C200 C201 1.363 . S
C200 C205 1.379 1_556 S
C200 N207 1.356 . S
C201 C200 1.363 . S
C201 C204 1.363 1_556 S
N202 C204 1.356 . S
N202 H214 0.984 . S
N202 H215 0.985 1_554 S
N203 C205 1.356 . S
N203 H208 0.984 . S
N203 H209 0.985 1_554 S
C204 C198 1.379 . S
C204 C201 1.363 1_554 S
C204 N202 1.356 . S
C205 C199 1.363 . S
C205 C200 1.379 1_554 S
C205 N203 1.356 . S
N206 C198 1.356 . S
N206 H212 0.984 . S
N206 H213 0.984 . S
N207 C200 1.356 . S
N207 H210 0.984 . S
N207 H211 0.985 . S
H208 N203 0.984 . S
H209 N203 0.985 1_556 S
H210 N207 0.984 . S
H211 N207 0.985 . S
H212 N206 0.984 . S
H213 N206 0.984 . S
H214 N202 0.984 . S
H215 N202 0.985 1_556 S
C216 C217 1.363 1_556 S
C216 C222 1.379 . S
C216 N224 1.356 . S
C217 C216 1.363 1_554 S
C217 C223 1.363 . S
C218 C219 1.363 1_554 S
C218 C223 1.379 . S
C218 N225 1.356 . S
C219 C218 1.363 1_556 S
C219 C222 1.363 . S
N220 C222 1.356 . S
N220 H232 0.984 . S
N220 H233 0.985 . S
N221 C223 1.356 . S
N221 H226 0.984 . S
N221 H227 0.985 . S
C222 C216 1.379 . S
C222 C219 1.363 . S
C222 N220 1.356 . S
C223 C217 1.363 . S
C223 C218 1.379 . S
C223 N221 1.356 . S
N224 C216 1.356 . S
N224 H230 0.984 . S
N224 H231 0.984 1_556 S
N225 C218 1.356 . S
N225 H228 0.984 . S
N225 H229 0.985 . S
H226 N221 0.984 . S
H227 N221 0.985 . S
H228 N225 0.984 . S
H229 N225 0.985 . S
H230 N224 0.984 . S
H231 N224 0.984 1_554 S
H232 N220 0.984 . S
H233 N220 0.985 . S
C234 C235 1.363 1_554 S
C234 C240 1.379 . S
C234 N242 1.356 . S
C235 C234 1.363 1_556 S
C235 C241 1.363 . S
C236 C237 1.347 1_556 S
C236 C241 1.389 . S
C236 N243 1.358 . S
C237 C236 1.347 1_554 S
C237 C240 1.363 . S
N238 C240 1.356 . S
N238 H250 0.984 . S
N238 H251 0.985 . S
N239 C241 1.356 . S
N239 H244 0.984 . S
N239 H245 0.985 . S
C240 C234 1.379 . S
C240 C237 1.363 . S
C240 N238 1.356 . S
C241 C235 1.363 . S
C241 C236 1.389 . S
C241 N239 1.356 . S
N242 C234 1.356 . S
N242 H248 0.984 . S
N242 H249 0.984 . S
N243 C236 1.358 . S
N243 H246 0.984 1_556 S
N243 H247 0.985 . S
H244 N239 0.984 . S
H245 N239 0.985 . S
H246 N243 0.984 1_554 S
H247 N243 0.985 . S
H248 N242 0.984 . S
H249 N242 0.984 . S
H250 N238 0.984 . S
H251 N238 0.985 . S
C252 C253 1.363 1_556 S
C252 C258 1.379 . S
C252 N260 1.356 . S
C253 C252 1.363 1_554 S
C253 C259 1.363 . S
C254 C255 1.363 1_554 S
C254 C259 1.379 . S
C254 N261 1.356 . S
C255 C254 1.363 1_556 S
C255 C258 1.363 . S
N256 C258 1.356 . S
N256 H268 0.984 . S
N256 H269 0.985 . S
N257 C259 1.356 . S
N257 H262 0.984 . S
N257 H263 0.985 . S
C258 C252 1.379 . S
C258 C255 1.363 . S
C258 N256 1.356 . S
C259 C253 1.363 . S
C259 C254 1.379 . S
C259 N257 1.356 . S
N260 C252 1.356 . S
N260 H266 0.984 . S
N260 H267 0.984 1_556 S
N261 C254 1.356 . S
N261 H264 0.984 1_554 S
N261 H265 0.985 . S
H262 N257 0.984 . S
H263 N257 0.985 . S
H264 N261 0.984 1_556 S
H265 N261 0.985 . S
H266 N260 0.984 . S
H267 N260 0.984 1_554 S
H268 N256 0.984 . S
H269 N256 0.985 . S
C270 C271 1.363 . S
C270 C276 1.379 . S
C270 N278 1.356 . S
C271 C270 1.363 . S
C271 C277 1.363 1_556 S
C272 C273 1.363 . S
C272 C277 1.379 . S
C272 N279 1.356 . S
C273 C272 1.363 . S
C273 C276 1.363 1_554 S
N274 C276 1.356 . S
N274 H286 0.984 . S
N274 H287 0.985 . S
N275 C277 1.356 . S
N275 H280 0.984 . S
N275 H281 0.985 . S
C276 C270 1.379 . S
C276 C273 1.363 1_556 S
C276 N274 1.356 . S
C277 C271 1.363 1_554 S
C277 C272 1.379 . S
C277 N275 1.356 . S
N278 C270 1.356 . S
N278 H284 0.984 . S
N278 H285 0.984 . S
N279 C272 1.356 . S
N279 H282 0.984 . S
N279 H283 0.985 . S
H280 N275 0.984 . S
H281 N275 0.985 . S
H282 N279 0.984 . S
H283 N279 0.985 . S
H284 N278 0.984 . S
H285 N278 0.984 . S
H286 N274 0.984 . S
H287 N274 0.985 . S
C288 C289 1.363 . S
C288 C294 1.379 . S
C288 N296 1.356 . S
C289 C288 1.363 . S
C289 C295 1.363 1_556 S
C290 C291 1.363 . S
C290 C295 1.379 . S
C290 N297 1.356 . S
C291 C290 1.363 . S
C291 C294 1.363 1_554 S
N292 C294 1.356 . S
N292 H304 0.984 . S
N292 H305 0.985 1_556 S
N293 C295 1.356 . S
N293 H298 0.984 1_554 S
N293 H299 0.985 . S
C294 C288 1.379 . S
C294 C291 1.363 1_556 S
C294 N292 1.356 . S
C295 C289 1.363 1_554 S
C295 C290 1.379 . S
C295 N293 1.356 . S
N296 C288 1.356 . S
N296 H302 0.984 . S
N296 H303 0.984 . S
N297 C290 1.356 . S
N297 H300 0.984 . S
N297 H301 0.985 . S
H298 N293 0.984 1_556 S
H299 N293 0.985 . S
H300 N297 0.984 . S
H301 N297 0.985 . S
H302 N296 0.984 . S
H303 N296 0.984 . S
H304 N292 0.984 . S
H305 N292 0.985 1_554 S
C306 C307 1.363 . S
C306 C312 1.379 . S
C306 N314 1.356 . S
C307 C306 1.363 . S
C307 C313 1.363 . S
C308 C309 1.363 . S
C308 C313 1.379 1_455 S
C308 N315 1.356 . S
C309 C308 1.363 . S
C309 C312 1.363 1_455 S
N310 C312 1.356 . S
N310 H322 0.984 . S
N310 H323 0.985 . S
N311 C313 1.356 . S
N311 H316 0.984 . S
N311 H317 0.985 . S
C312 C306 1.379 . S
C312 C309 1.363 1_655 S
C312 N310 1.356 . S
C313 C307 1.363 . S
C313 C308 1.379 1_655 S
C313 N311 1.356 . S
N314 C306 1.356 . S
N314 H320 0.984 . S
N314 H321 0.984 . S
N315 C308 1.356 . S
N315 H318 0.984 . S
N315 H319 0.985 . S
H316 N311 0.984 . S
H317 N311 0.985 . S
H318 N315 0.984 . S
H319 N315 0.985 . S
H320 N314 0.984 . S
H321 N314 0.984 . S
H322 N310 0.984 . S
H323 N310 0.985 . S
C324 C325 1.363 . S
C324 C330 1.379 . S
C324 N332 1.356 . S
C325 C324 1.363 . S
C325 C331 1.363 . S
C326 C327 1.363 . S
C326 C331 1.379 . S
C326 N333 1.356 . S
C327 C326 1.363 . S
C327 C330 1.363 . S
N328 C330 1.356 . S
N328 H340 0.984 . S
N328 H341 0.985 . S
N329 C331 1.356 . S
N329 H334 0.984 . S
N329 H335 0.985 . S
C330 C324 1.379 . S
C330 C327 1.363 . S
C330 N328 1.356 . S
C331 C325 1.363 . S
C331 C326 1.379 . S
C331 N329 1.356 . S
N332 C324 1.356 . S
N332 H338 0.984 . S
N332 H339 0.984 . S
N333 C326 1.356 . S
N333 H336 0.984 . S
N333 H337 0.985 . S
H334 N329 0.984 . S
H335 N329 0.985 . S
H336 N333 0.984 . S
H337 N333 0.985 . S
H338 N332 0.984 . S
H339 N332 0.984 . S
H340 N328 0.984 . S
H341 N328 0.985 . S
C342 C343 1.363 . S
C342 C348 1.379 . S
C342 N350 1.356 . S
C343 C342 1.363 . S
C343 C349 1.363 . S
C344 C345 1.363 . S
C344 C349 1.379 . S
C344 N351 1.356 1_545 S
C345 C344 1.363 . S
C345 C348 1.363 . S
N346 C348 1.356 . S
N346 H358 0.984 . S
N346 H359 0.985 1_545 S
N347 C349 1.356 . S
N347 H352 0.984 . S
N347 H353 0.985 . S
C348 C342 1.379 . S
C348 C345 1.363 . S
C348 N346 1.356 . S
C349 C343 1.363 . S
C349 C344 1.379 . S
C349 N347 1.356 . S
N350 C342 1.356 . S
N350 H356 0.984 1_655 S
N350 H357 0.984 1_655 S
N351 C344 1.356 1_565 S
N351 H354 0.984 . S
N351 H355 0.985 . S
H352 N347 0.984 . S
H353 N347 0.985 . S
H354 N351 0.984 . S
H355 N351 0.985 . S
H356 N350 0.984 1_455 S
H357 N350 0.984 1_455 S
H358 N346 0.984 . S
H359 N346 0.985 1_565 S
C360 C361 1.363 . S
C360 C366 1.379 . S
C360 N368 1.356 . S
C361 C360 1.363 . S
C361 C367 1.363 . S
C362 C363 1.363 . S
C362 C367 1.379 . S
C362 N369 1.356 . S
C363 C362 1.363 . S
C363 C366 1.363 . S
N364 C366 1.356 . S
N364 H376 0.984 . S
N364 H377 0.985 . S
N365 C367 1.356 . S
N365 H370 0.984 . S
N365 H371 0.985 . S
C366 C360 1.379 . S
C366 C363 1.363 . S
C366 N364 1.356 . S
C367 C361 1.363 . S
C367 C362 1.379 . S
C367 N365 1.356 . S
N368 C360 1.356 . S
N368 H374 0.984 . S
N368 H375 0.984 . S
N369 C362 1.356 . S
N369 H372 0.984 . S
N369 H373 0.985 . S
H370 N365 0.984 . S
H371 N365 0.985 . S
H372 N369 0.984 . S
H373 N369 0.985 . S
H374 N368 0.984 . S
H375 N368 0.984 . S
H376 N364 0.984 . S
H377 N364 0.985 . S
C378 C379 1.363 . S
C378 C384 1.379 . S
C378 N386 1.356 . S
C379 C378 1.363 . S
C379 C385 1.363 . S
C380 C381 1.363 . S
C380 C385 1.379 . S
C380 N387 1.356 . S
C381 C380 1.363 . S
C381 C384 1.363 . S
N382 C384 1.356 . S
N382 H394 0.984 . S
N382 H395 0.985 . S
N383 C385 1.356 . S
N383 H388 0.984 . S
N383 H389 0.985 . S
C384 C378 1.379 . S
C384 C381 1.363 . S
C384 N382 1.356 . S
C385 C379 1.363 . S
C385 C380 1.379 . S
C385 N383 1.356 . S
N386 C378 1.356 . S
N386 H392 0.984 . S
N386 H393 0.984 . S
N387 C380 1.356 . S
N387 H390 0.984 . S
N387 H391 0.985 . S
H388 N383 0.984 . S
H389 N383 0.985 . S
H390 N387 0.984 . S
H391 N387 0.985 . S
H392 N386 0.984 . S
H393 N386 0.984 . S
H394 N382 0.984 . S
H395 N382 0.985 . S
C396 C397 1.363 . S
C396 C402 1.379 . S
C396 N404 1.356 . S
C397 C396 1.363 . S
C397 C403 1.363 . S
C398 C399 1.363 . S
C398 C403 1.379 . S
C398 N405 1.356 . S
C399 C398 1.363 . S
C399 C402 1.363 . S
N400 C402 1.356 . S
N400 H412 0.984 . S
N400 H413 0.985 . S
N401 C403 1.356 . S
N401 H406 0.984 . S
N401 H407 0.985 . S
C402 C396 1.379 . S
C402 C399 1.363 . S
C402 N400 1.356 . S
C403 C397 1.363 . S
C403 C398 1.379 . S
C403 N401 1.356 . S
N404 C396 1.356 . S
N404 H410 0.984 . S
N404 H411 0.984 . S
N405 C398 1.356 . S
N405 H408 0.984 . S
N405 H409 0.985 . S
H406 N401 0.984 . S
H407 N401 0.985 . S
H408 N405 0.984 . S
H409 N405 0.985 . S
H410 N404 0.984 . S
H411 N404 0.984 . S
H412 N400 0.984 . S
H413 N400 0.985 . S
C414 C415 1.363 . S
C414 C420 1.379 . S
C414 N422 1.356 . S
C415 C414 1.363 . S
C415 C421 1.363 . S
C416 C417 1.363 . S
C416 C421 1.379 . S
C416 N423 1.356 . S
C417 C416 1.363 . S
C417 C420 1.363 . S
N418 C420 1.356 . S
N418 H430 0.984 . S
N418 H431 0.985 . S
N419 C421 1.356 . S
N419 H424 0.984 . S
N419 H425 0.985 . S
C420 C414 1.379 . S
C420 C417 1.363 . S
C420 N418 1.356 . S
C421 C415 1.363 . S
C421 C416 1.379 . S
C421 N419 1.356 . S
N422 C414 1.356 . S
N422 H428 0.984 . S
N422 H429 0.984 . S
N423 C416 1.356 . S
N423 H426 0.984 . S
N423 H427 0.985 . S
H424 N419 0.984 . S
H425 N419 0.985 . S
H426 N423 0.984 . S
H427 N423 0.985 . S
H428 N422 0.984 . S
H429 N422 0.984 . S
H430 N418 0.984 . S
H431 N418 0.985 . S
C432 C433 1.363 . S
C432 C438 1.379 . S
C432 N440 1.356 . S
C433 C432 1.363 . S
C433 C439 1.363 . S
C434 C435 1.363 . S
C434 C439 1.379 . S
C434 N441 1.356 . S
C435 C434 1.363 . S
C435 C438 1.363 . S
N436 C438 1.356 . S
N436 H448 0.984 . S
N436 H449 0.985 . S
N437 C439 1.356 . S
N437 H442 0.984 . S
N437 H443 0.985 1_655 S
C438 C432 1.379 . S
C438 C435 1.363 . S
C438 N436 1.356 . S
C439 C433 1.363 . S
C439 C434 1.379 . S
C439 N437 1.356 . S
N440 C432 1.356 . S
N440 H446 0.984 . S
N440 H447 0.984 . S
N441 C434 1.356 . S
N441 H444 0.984 . S
N441 H445 0.985 1_655 S
H442 N437 0.984 . S
H443 N437 0.985 1_455 S
H444 N441 0.984 . S
H445 N441 0.985 1_455 S
H446 N440 0.984 . S
H447 N440 0.984 . S
H448 N436 0.984 . S
H449 N436 0.985 . S
C450 C451 1.363 . S
C450 C456 1.379 . S
C450 N458 1.356 . S
C451 C450 1.363 . S
C451 C457 1.363 . S
C452 C453 1.363 . S
C452 C457 1.379 . S
C452 N459 1.356 . S
C453 C452 1.363 . S
C453 C456 1.363 . S
N454 C456 1.356 . S
N454 H466 0.984 . S
N454 H467 0.985 . S
N455 C457 1.356 . S
N455 H460 0.984 . S
N455 H461 0.985 . S
C456 C450 1.379 . S
C456 C453 1.363 . S
C456 N454 1.356 . S
C457 C451 1.363 . S
C457 C452 1.379 . S
C457 N455 1.356 . S
N458 C450 1.356 . S
N458 H464 0.984 . S
N458 H465 0.984 . S
N459 C452 1.356 . S
N459 H462 0.984 . S
N459 H463 0.985 . S
H460 N455 0.984 . S
H461 N455 0.985 . S
H462 N459 0.984 . S
H463 N459 0.985 . S
H464 N458 0.984 . S
H465 N458 0.984 . S
H466 N454 0.984 . S
H467 N454 0.985 . S
C468 C469 1.363 . S
C468 C474 1.379 . S
C468 N476 1.356 . S
C469 C468 1.363 . S
C469 C475 1.363 . S
C470 C471 1.363 1_565 S
C470 C475 1.379 . S
C470 N477 1.356 1_565 S
C471 C470 1.363 1_545 S
C471 C474 1.363 1_545 S
N472 C474 1.356 1_545 S
N472 H484 0.984 . S
N472 H485 0.985 . S
N473 C475 1.356 . S
N473 H478 0.984 . S
N473 H479 0.985 . S
C474 C468 1.379 . S
C474 C471 1.363 1_565 S
C474 N472 1.356 1_565 S
C475 C469 1.363 . S
C475 C470 1.379 . S
C475 N473 1.356 . S
N476 C468 1.356 . S
N476 H482 0.984 . S
N476 H483 0.984 . S
N477 C470 1.356 1_545 S
N477 H480 0.984 . S
N477 H481 0.983 1_545 S
H478 N473 0.984 . S
H479 N473 0.985 . S
H480 N477 0.984 . S
H481 N477 0.983 1_565 S
H482 N476 0.984 . S
H483 N476 0.984 . S
H484 N472 0.984 . S
H485 N472 0.985 . S
C486 C487 1.363 . S
C486 C492 1.379 . S
C486 N494 1.356 1_455 S
C487 C486 1.363 . S
C487 C493 1.363 . S
C488 C489 1.363 . S
C488 C493 1.379 . S
C488 N495 1.356 . S
C489 C488 1.363 . S
C489 C492 1.363 . S
N490 C492 1.356 1_545 S
N490 H502 0.984 . S
N490 H503 0.985 . S
N491 C493 1.356 1_655 S
N491 H496 0.984 . S
N491 H497 0.985 1_655 S
C492 C486 1.379 . S
C492 C489 1.363 . S
C492 N490 1.356 1_565 S
C493 C487 1.363 . S
C493 C488 1.379 . S
C493 N491 1.356 1_455 S
N494 C486 1.356 1_655 S
N494 H500 0.984 1_655 S
N494 H501 0.984 . S
N495 C488 1.356 . S
N495 H498 0.984 . S
N495 H499 0.985 . S
H496 N491 0.984 . S
H497 N491 0.985 1_455 S
H498 N495 0.984 . S
H499 N495 0.985 . S
H500 N494 0.984 1_455 S
H501 N494 0.984 . S
H502 N490 0.984 . S
H503 N490 0.985 . S
C504 C505 1.363 . S
C504 C510 1.379 . S
C504 N512 1.356 . S
C505 C504 1.363 . S
C505 C511 1.363 . S
C506 C507 1.363 . S
C506 C511 1.379 . S
C506 N513 1.356 . S
C507 C506 1.363 . S
C507 C510 1.363 . S
N508 C510 1.356 . S
N508 H520 0.984 1_455 S
N508 H521 0.985 1_455 S
N509 C511 1.356 . S
N509 H514 0.984 . S
N509 H515 0.985 . S
C510 C504 1.379 . S
C510 C507 1.363 . S
C510 N508 1.356 . S
C511 C505 1.363 . S
C511 C506 1.379 . S
C511 N509 1.356 . S
N512 C504 1.356 . S
N512 H518 0.984 . S
N512 H519 0.984 . S
N513 C506 1.356 . S
N513 H516 0.984 . S
N513 H517 0.985 . S
H514 N509 0.984 . S
H515 N509 0.985 . S
H516 N513 0.984 . S
H517 N513 0.985 . S
H518 N512 0.984 . S
H519 N512 0.984 . S
H520 N508 0.984 1_655 S
H521 N508 0.985 1_655 S
C522 C523 1.363 . S
C522 C528 1.379 . S
C522 N530 1.356 . S
C523 C522 1.363 . S
C523 C529 1.363 . S
C524 C525 1.363 . S
C524 C529 1.379 . S
C524 N531 1.356 . S
C525 C524 1.363 . S
C525 C528 1.363 . S
N526 C528 1.356 . S
N526 H538 0.984 . S
N526 H539 0.985 . S
N527 C529 1.356 . S
N527 H532 0.984 . S
N527 H533 0.985 . S
C528 C522 1.379 . S
C528 C525 1.363 . S
C528 N526 1.356 . S
C529 C523 1.363 . S
C529 C524 1.379 . S
C529 N527 1.356 . S
N530 C522 1.356 . S
N530 H536 0.984 . S
N530 H537 0.984 . S
N531 C524 1.356 . S
N531 H534 0.984 . S
N531 H535 0.985 . S
H532 N527 0.984 . S
H533 N527 0.985 . S
H534 N531 0.984 . S
H535 N531 0.985 . S
H536 N530 0.984 . S
H537 N530 0.984 . S
H538 N526 0.984 . S
H539 N526 0.985 . S
C540 C541 1.363 . S
C540 C546 1.379 . S
C540 N548 1.356 . S
C541 C540 1.363 . S
C541 C547 1.363 . S
C542 C543 1.363 . S
C542 C547 1.379 . S
C542 N549 1.356 . S
C543 C542 1.363 . S
C543 C546 1.363 . S
N544 C546 1.356 . S
N544 H556 0.984 . S
N544 H557 0.985 . S
N545 C547 1.356 . S
N545 H550 0.984 . S
N545 H551 0.985 . S
C546 C540 1.379 . S
C546 C543 1.363 . S
C546 N544 1.356 . S
C547 C541 1.363 . S
C547 C542 1.379 . S
C547 N545 1.356 . S
N548 C540 1.356 . S
N548 H554 0.984 . S
N548 H555 0.984 . S
N549 C542 1.356 . S
N549 H552 0.984 . S
N549 H553 0.985 . S
H550 N545 0.984 . S
H551 N545 0.985 . S
H552 N549 0.984 . S
H553 N549 0.985 . S
H554 N548 0.984 . S
H555 N548 0.984 . S
H556 N544 0.984 . S
H557 N544 0.985 . S
C558 C559 1.363 . S
C558 C564 1.379 . S
C558 N566 1.356 1_565 S
C559 C558 1.363 . S
C559 C565 1.363 . S
C560 C561 1.363 . S
C560 C565 1.379 . S
C560 N567 1.356 . S
C561 C560 1.363 . S
C561 C564 1.363 . S
N562 C564 1.356 1_545 S
N562 H574 0.984 . S
N562 H575 0.985 1_545 S
N563 C565 1.356 . S
N563 H568 0.984 . S
N563 H569 0.985 . S
C564 C558 1.379 . S
C564 C561 1.363 . S
C564 N562 1.356 1_565 S
C565 C559 1.363 . S
C565 C560 1.379 . S
C565 N563 1.356 . S
N566 C558 1.356 1_545 S
N566 H572 0.984 . S
N566 H573 0.984 . S
N567 C560 1.356 . S
N567 H570 0.984 . S
N567 H571 0.985 . S
H568 N563 0.984 . S
H569 N563 0.985 . S
H570 N567 0.984 . S
H571 N567 0.985 . S
H572 N566 0.984 . S
H573 N566 0.984 . S
H574 N562 0.984 . S
H575 N562 0.985 1_565 S
C576 C577 1.363 . S
C576 C582 1.379 . S
C576 N584 1.356 . S
C577 C576 1.363 . S
C577 C583 1.363 . S
C578 C579 1.363 . S
C578 C583 1.379 . S
C578 N585 1.356 . S
C579 C578 1.363 . S
C579 C582 1.363 . S
N580 C582 1.356 . S
N580 H592 0.984 . S
N580 H593 0.985 . S
N581 C583 1.356 1_565 S
N581 H586 0.984 . S
N581 H587 0.985 . S
C582 C576 1.379 . S
C582 C579 1.363 . S
C582 N580 1.356 . S
C583 C577 1.363 . S
C583 C578 1.379 . S
C583 N581 1.356 1_545 S
N584 C576 1.356 . S
N584 H590 0.984 . S
N584 H591 0.984 . S
N585 C578 1.356 . S
N585 H588 0.984 . S
N585 H589 0.985 1_545 S
H586 N581 0.984 . S
H587 N581 0.985 . S
H588 N585 0.984 . S
H589 N585 0.985 1_565 S
H590 N584 0.984 . S
H591 N584 0.984 . S
H592 N580 0.984 . S
H593 N580 0.985 . S
C594 C595 1.363 . S
C594 C600 1.379 . S
C594 N602 1.356 . S
C595 C594 1.363 . S
C595 C601 1.363 . S
C596 C597 1.363 . S
C596 C601 1.379 . S
C596 N603 1.356 . S
C597 C596 1.363 . S
C597 C600 1.363 . S
N598 C600 1.356 . S
N598 H610 0.984 . S
N598 H611 0.985 . S
N599 C601 1.356 . S
N599 H604 0.984 . S
N599 H605 0.985 . S
C600 C594 1.379 . S
C600 C597 1.363 . S
C600 N598 1.356 . S
C601 C595 1.363 . S
C601 C596 1.379 . S
C601 N599 1.356 . S
N602 C594 1.356 . S
N602 H608 0.984 . S
N602 H609 0.984 . S
N603 C596 1.356 . S
N603 H606 0.984 . S
N603 H607 0.985 . S
H604 N599 0.984 . S
H605 N599 0.985 . S
H606 N603 0.984 . S
H607 N603 0.985 . S
H608 N602 0.984 . S
H609 N602 0.984 . S
H610 N598 0.984 . S
H611 N598 0.985 . S
C612 C613 1.363 . S
C612 C618 1.379 . S
C612 N620 1.356 . S
C613 C612 1.363 . S
C613 C619 1.363 . S
C614 C615 1.363 . S
C614 C619 1.379 . S
C614 N621 1.356 . S
C615 C614 1.363 . S
C615 C618 1.363 . S
N616 C618 1.356 . S
N616 H628 0.984 . S
N616 H629 0.985 . S
N617 C619 1.356 . S
N617 H622 0.984 . S
N617 H623 0.985 . S
C618 C612 1.379 . S
C618 C615 1.363 . S
C618 N616 1.356 . S
C619 C613 1.363 . S
C619 C614 1.379 . S
C619 N617 1.356 . S
N620 C612 1.356 . S
N620 H626 0.984 . S
N620 H627 0.984 . S
N621 C614 1.356 . S
N621 H624 0.984 . S
N621 H625 0.985 . S
H622 N617 0.984 . S
H623 N617 0.985 . S
H624 N621 0.984 . S
H625 N621 0.985 . S
H626 N620 0.984 . S
H627 N620 0.984 . S
H628 N616 0.984 . S
H629 N616 0.985 . S
C630 C631 1.363 . S
C630 C636 1.379 . S
C630 N638 1.356 . S
C631 C630 1.363 . S
C631 C637 1.363 . S
C632 C633 1.363 . S
C632 C637 1.379 . S
C632 N639 1.356 . S
C633 C632 1.363 . S
C633 C636 1.363 . S
N634 C636 1.356 . S
N634 H646 0.984 . S
N634 H647 0.985 . S
N635 C637 1.356 . S
N635 H640 0.984 . S
N635 H641 0.985 . S
C636 C630 1.379 . S
C636 C633 1.363 . S
C636 N634 1.356 . S
C637 C631 1.363 . S
C637 C632 1.379 . S
C637 N635 1.356 . S
N638 C630 1.356 . S
N638 H644 0.984 . S
N638 H645 0.984 . S
N639 C632 1.356 . S
N639 H642 0.984 . S
N639 H643 0.985 . S
H640 N635 0.984 . S
H641 N635 0.985 . S
H642 N639 0.984 . S
H643 N639 0.985 . S
H644 N638 0.984 . S
H645 N638 0.984 . S
H646 N634 0.984 . S
H647 N634 0.985 . S
C648 C649 1.363 1_545 S
C648 C654 1.379 . S
C648 N656 1.356 . S
C649 C648 1.363 1_565 S
C649 C655 1.363 . S
C650 C651 1.363 1_565 S
C650 C655 1.379 . S
C650 N657 1.356 . S
C651 C650 1.363 1_545 S
C651 C654 1.363 . S
N652 C654 1.356 . S
N652 H664 0.984 . S
N652 H665 0.985 . S
N653 C655 1.356 . S
N653 H658 0.984 . S
N653 H659 0.985 . S
C654 C648 1.379 . S
C654 C651 1.363 . S
C654 N652 1.356 . S
C655 C649 1.363 . S
C655 C650 1.379 . S
C655 N653 1.356 . S
N656 C648 1.356 . S
N656 H662 0.984 . S
N656 H663 0.984 . S
N657 C650 1.356 . S
N657 H660 0.984 . S
N657 H661 0.985 . S
H658 N653 0.984 . S
H659 N653 0.985 . S
H660 N657 0.984 . S
H661 N657 0.985 . S
H662 N656 0.984 . S
H663 N656 0.984 . S
H664 N652 0.984 . S
H665 N652 0.985 . S
C666 C667 1.363 . S
C666 C672 1.379 1_655 S
C666 N674 1.356 . S
C667 C666 1.363 . S
C667 C673 1.363 1_655 S
C668 C669 1.363 . S
C668 C673 1.379 . S
C668 N675 1.356 . S
C669 C668 1.363 . S
C669 C672 1.363 . S
N670 C672 1.356 . S
N670 H682 0.989 1_455 S
N670 H683 0.985 . S
N671 C673 1.356 . S
N671 H676 0.984 1_455 S
N671 H677 0.985 . S
C672 C666 1.379 1_455 S
C672 C669 1.363 . S
C672 N670 1.356 . S
C673 C667 1.363 1_455 S
C673 C668 1.379 . S
C673 N671 1.356 . S
N674 C666 1.356 . S
N674 H680 0.984 . S
N674 H681 0.984 . S
N675 C668 1.356 . S
N675 H678 0.984 . S
N675 H679 0.985 . S
H676 N671 0.984 1_655 S
H677 N671 0.985 . S
H678 N675 0.984 . S
H679 N675 0.985 . S
H680 N674 0.984 . S
H681 N674 0.984 . S
H682 N670 0.989 1_655 S
H683 N670 0.985 . S
C199 C26 1.526 . S
C201 C5 1.669 . S
C217 C48 1.526 . S
C219 C27 1.669 . S
C235 C49 1.669 . S
C237 C4 1.526 . S
C253 C53 1.669 . S
C255 C30 1.526 . S
C271 C52 1.526 . S
C273 C9 1.669 . S
C289 C8 1.526 . S
C291 C31 1.669 . S
C307 C71 1.669 . S
C309 C92 1.526 . S
C325 C114 1.526 . S
C327 C93 1.669 . S
C343 C115 1.669 . S
C345 C70 1.526 1_545 S
C361 C96 1.526 . S
C363 C119 1.669 . S
C379 C118 1.526 . S
C381 C75 1.669 . S
C397 C97 1.669 . S
C399 C74 1.526 . S
C415 C158 1.526 . S
C417 C137 1.669 . S
C433 C159 1.669 . S
C435 C180 1.526 . S
C451 C181 1.669 . S
C453 C136 1.526 . S
C469 C185 1.669 . S
C471 C162 1.526 . S
C487 C184 1.526 1_455 S
C489 C141 1.669 . S
C505 C140 1.526 . S
C507 C163 1.669 . S
C523 C117 1.415 . S
C525 C6 1.415 . S
C541 C73 1.415 . S
C543 C28 1.415 . S
C559 C50 1.415 . S
C561 C95 1.415 . S
C577 C51 1.415 . S
C579 C138 1.415 . S
C595 C7 1.415 . S
C597 C160 1.415 . S
C613 C182 1.415 . S
C615 C29 1.415 . S
C631 C72 1.415 . S
C633 C183 1.415 . S
C649 C94 1.415 . S
C651 C139 1.415 . S
C667 C161 1.415 . S
C669 C116 1.415 . S
