# Generated by pormake.
# Topology xbj, (5)-cn, num edge types: 1
# Building blocks:
#     Node 0, Type 0, BuildingBlock: BEQFEK_clean_sbu_0, # of connection points: 5
#     Node 1, Type 0, BuildingBlock: BEQFEK_clean_sbu_0, # of connection points: 5
#     Node 2, Type 0, BuildingBlock: BEQFEK_clean_sbu_0, # of connection points: 5
#     Node 3, Type 0, BuildingBlock: BEQFEK_clean_sbu_0, # of connection points: 5
#     Node 4, Type 0, BuildingBlock: BEQFEK_clean_sbu_0, # of connection points: 5
#     Node 5, Type 0, BuildingBlock: BEQFEK_clean_sbu_0, # of connection points: 5
#     Node 6, Type 0, BuildingBlock: BEQFEK_clean_sbu_0, # of connection points: 5
#     Node 7, Type 0, BuildingBlock: BEQFEK_clean_sbu_0, # of connection points: 5
#     Edge 8, Type (0, 0), None
#     Edge 9, Type (0, 0), None
#     Edge 10, Type (0, 0), None
#     Edge 11, Type (0, 0), None
#     Edge 12, Type (0, 0), None
#     Edge 13, Type (0, 0), None
#     Edge 14, Type (0, 0), None
#     Edge 15, Type (0, 0), None
#     Edge 16, Type (0, 0), None
#     Edge 17, Type (0, 0), None
#     Edge 18, Type (0, 0), None
#     Edge 19, Type (0, 0), None
#     Edge 20, Type (0, 0), None
#     Edge 21, Type (0, 0), None
#     Edge 22, Type (0, 0), None
#     Edge 23, Type (0, 0), None
#     Edge 24, Type (0, 0), None
#     Edge 25, Type (0, 0), None
#     Edge 26, Type (0, 0), None
#     Edge 27, Type (0, 0), None
# Relax obj value: 0.033
# Max RMSD: 0.130
# Mean RMSD: 0.128
data_MOF--net-xbj--node1-BEQFEK_clean_sbu_0--edge1-none
_symmetry_space_group_name_H-M    P1
_symmetry_Int_Tables_number       1
_symmetry_cell_setting            triclinic
loop_
_symmetry_equiv_pos_as_xyz
'x, y, z'
_cell_length_a     11.400099
_cell_length_b     11.400094
_cell_length_c     49.605808
_cell_angle_alpha  90.814197
_cell_angle_beta   90.814494
_cell_angle_gamma 89.987749
loop_
_atom_site_label
_atom_site_type_symbol
_atom_site_fract_x
_atom_site_fract_y
_atom_site_fract_z
_atom_type_partial_charge
Co0 Co 0.21979 0.7276 0.06284 0.0
Co1 Co 0.94793 0.72981 0.06146 0.0
C2 C 0.08709 0.92147 0.03571 0.0
O3 O 0.18434 0.87424 0.04256 0.0
O4 O 0.98904 0.87397 0.04114 0.0
C5 C 0.4704 0.78062 0.06325 0.0
O6 O 0.44646 0.87726 0.05019 0.0
C7 C 0.6966 0.79593 0.06218 0.0
C8 C 0.62049 0.62709 0.07471 0.0
C9 C 0.59129 0.73987 0.06716 0.0
N10 N 0.78399 0.71871 0.06643 0.0
N11 N 0.73776 0.61837 0.07398 0.0
C12 C 0.71458 0.91978 0.05354 0.0
H13 H 0.79926 0.95371 0.06168 0.0
H14 H 0.64263 0.97739 0.06065 0.0
H15 H 0.71676 0.9222 0.03119 0.0
C16 C 0.17916 0.72938 0.12175 0.0
N17 N 0.14026 0.72908 0.09599 0.0
N18 N 0.02491 0.73271 0.09563 0.0
C19 C 0.98682 0.73719 0.12125 0.0
C20 C 0.08326 0.73437 0.1385 0.0
C21 C 0.30574 0.72617 0.13004 0.0
H22 H 0.35181 0.80211 0.12129 0.0
H23 H 0.31679 0.72868 0.15231 0.0
H24 H 0.3465 0.64503 0.12184 0.0
O25 O 0.18162 0.58251 0.04193 0.0
O26 O 0.98753 0.5827 0.04124 0.0
H27 H 0.81853 0.65858 0.12571 0.0
H28 H 0.85248 0.76983 0.15078 0.0
C29 C 0.86095 0.7451 0.12917 0.0
H30 H 0.81485 0.81073 0.11658 0.0
H31 H 0.78654 0.54329 0.07828 0.0
O32 O 0.38829 0.71288 0.07013 0.0
C33 C 0.08461 0.53452 0.03535 0.0
Co34 Co 0.59452 0.86536 0.31296 0.0
Co35 Co 0.59218 0.59349 0.3114 0.0
C36 C 0.39754 0.73288 0.28572 0.0
O37 O 0.44556 0.83009 0.2926 0.0
O38 O 0.44577 0.63476 0.29107 0.0
C39 C 0.54205 0.11586 0.31308 0.0
O40 O 0.44514 0.09178 0.29951 0.0
C41 C 0.52653 0.34204 0.31187 0.0
C42 C 0.69627 0.2661 0.32495 0.0
C43 C 0.58301 0.23679 0.31707 0.0
N44 N 0.60395 0.4295 0.31634 0.0
N45 N 0.70484 0.38338 0.32421 0.0
C46 C 0.40203 0.35991 0.30289 0.0
H47 H 0.36831 0.44411 0.31112 0.0
H48 H 0.34512 0.28745 0.30965 0.0
H49 H 0.39814 0.36317 0.28055 0.0
C50 C 0.59595 0.82392 0.37187 0.0
N51 N 0.59601 0.78545 0.34608 0.0
N52 N 0.59224 0.67011 0.34559 0.0
C53 C 0.58788 0.63159 0.37114 0.0
C54 C 0.59085 0.72771 0.38851 0.0
C55 C 0.59862 0.95037 0.3803 0.0
H56 H 0.52207 -0.0039 0.37123 0.0
H57 H 0.59681 0.96096 0.40257 0.0
H58 H 0.6792 -0.00819 0.37252 0.0
O59 O 0.73732 0.8274 0.29207 0.0
O60 O 0.73697 0.63333 0.29126 0.0
H61 H 0.66506 0.4624 0.37574 0.0
H62 H 0.55516 0.49681 0.40037 0.0
C63 C 0.5791 0.5056 0.37888 0.0
H64 H 0.51251 0.46045 0.36596 0.0
H65 H 0.78014 0.43224 0.32876 0.0
O66 O 0.60991 0.0338 0.32038 0.0
C67 C 0.78445 0.73043 0.28541 0.0
Co68 Co 0.7198 0.2276 0.56284 0.0
Co69 Co 0.44794 0.22981 0.56146 0.0
C70 C 0.5871 0.42147 0.53571 0.0
O71 O 0.68435 0.37423 0.54256 0.0
O72 O 0.48905 0.37396 0.54114 0.0
C73 C 0.97041 0.28062 0.56325 0.0
O74 O 0.94646 0.37725 0.55019 0.0
C75 C 0.19661 0.29593 0.56218 0.0
C76 C 0.12049 0.12708 0.57471 0.0
C77 C 0.0913 0.23987 0.56716 0.0
N78 N 0.284 0.21871 0.56642 0.0
N79 N 0.23777 0.11837 0.57398 0.0
C80 C 0.21458 0.41977 0.55354 0.0
H81 H 0.29927 0.45371 0.56167 0.0
H82 H 0.14263 0.47739 0.56065 0.0
H83 H 0.21677 0.4222 0.53119 0.0
C84 C 0.67916 0.22938 0.62175 0.0
N85 N 0.64026 0.22908 0.59599 0.0
N86 N 0.52491 0.23271 0.59563 0.0
C87 C 0.48683 0.23719 0.62125 0.0
C88 C 0.58326 0.23437 0.6385 0.0
C89 C 0.80575 0.22616 0.63004 0.0
H90 H 0.85182 0.3021 0.62129 0.0
H91 H 0.8168 0.22868 0.65231 0.0
H92 H 0.84651 0.14503 0.62185 0.0
O93 O 0.68163 0.08251 0.54193 0.0
O94 O 0.48754 0.08269 0.54124 0.0
H95 H 0.31854 0.15858 0.62571 0.0
H96 H 0.35248 0.26983 0.65078 0.0
C97 C 0.36095 0.2451 0.62917 0.0
H98 H 0.31486 0.31072 0.61658 0.0
H99 H 0.28654 0.04328 0.57828 0.0
O100 O 0.8883 0.21287 0.57013 0.0
C101 C 0.58462 0.03452 0.53535 0.0
Co102 Co 0.09452 0.36536 0.81296 0.0
Co103 Co 0.09217 0.09349 0.8114 0.0
C104 C 0.89753 0.23288 0.78572 0.0
O105 O 0.94556 0.33009 0.7926 0.0
O106 O 0.94576 0.13476 0.79107 0.0
C107 C 0.04204 0.61586 0.81308 0.0
O108 O 0.94513 0.59178 0.79951 0.0
C109 C 0.02653 0.84203 0.81187 0.0
C110 C 0.19626 0.7661 0.82495 0.0
C111 C 0.083 0.73679 0.81707 0.0
N112 N 0.10394 0.9295 0.81634 0.0
N113 N 0.20483 0.88338 0.82421 0.0
C114 C 0.90202 0.85991 0.80289 0.0
H115 H 0.86831 0.94411 0.81112 0.0
H116 H 0.84511 0.78745 0.80964 0.0
H117 H 0.89814 0.86317 0.78055 0.0
C118 C 0.09595 0.32392 0.87187 0.0
N119 N 0.09601 0.28545 0.84608 0.0
N120 N 0.09224 0.1701 0.84559 0.0
C121 C 0.08788 0.13159 0.87114 0.0
C122 C 0.09084 0.22771 0.88851 0.0
C123 C 0.09862 0.45037 0.8803 0.0
H124 H 0.02206 0.4961 0.87123 0.0
H125 H 0.0968 0.46097 0.90257 0.0
H126 H 0.17919 0.49181 0.87252 0.0
O127 O 0.23731 0.3274 0.79207 0.0
O128 O 0.23696 0.13333 0.79126 0.0
H129 H 0.16505 0.9624 0.87574 0.0
H130 H 0.05515 -0.00319 0.90037 0.0
C131 C 0.07909 0.0056 0.87888 0.0
H132 H 0.0125 0.96045 0.86596 0.0
H133 H 0.28013 0.93224 0.82876 0.0
O134 O 0.10991 0.5338 0.82038 0.0
C135 C 0.28444 0.23043 0.78541 0.0
Co136 Co 0.95269 0.22354 0.99366 0.0
Co137 Co 0.22456 0.22589 0.99522 0.0
C138 C 0.08518 0.42053 1.0209 0.0
O139 O 0.98796 0.3725 1.01402 0.0
O140 O 0.18329 0.37229 1.01555 0.0
C141 C 0.70219 0.27602 0.99354 0.0
O142 O 0.72626 0.37294 1.0071 0.0
C143 C 0.47601 0.29153 0.99475 0.0
C144 C 0.55195 0.1218 0.98167 0.0
C145 C 0.58126 0.23506 0.98955 0.0
N146 N 0.38855 0.21412 0.99028 0.0
N147 N 0.43467 0.11323 0.98241 0.0
C148 C 0.45814 0.41604 1.00373 0.0
H149 H 0.37394 0.44975 0.99549 0.0
H150 H 0.53059 0.47295 0.99697 0.0
H151 H 0.45489 0.41992 1.02607 0.0
C152 C -0.00588 0.22209 0.93475 0.0
N153 N 0.0326 0.22205 0.96055 0.0
N154 N 0.14794 0.22582 0.96103 0.0
C155 C 0.18645 0.23016 0.93548 0.0
C156 C 0.09033 0.22718 0.91811 0.0
C157 C 0.86767 0.21943 0.92633 0.0
H158 H 0.82194 0.29599 0.9354 0.0
H159 H 0.85706 0.22124 0.90406 0.0
H160 H 0.82623 0.13886 0.93411 0.0
O161 O 0.99066 0.08074 1.01455 0.0
O162 O 0.18472 0.0811 1.01536 0.0
H163 H 0.35563 0.15299 0.93088 0.0
H164 H 0.32122 0.26289 0.90625 0.0
C165 C 0.31243 0.23895 0.92773 0.0
H166 H 0.35759 0.30555 0.94066 0.0
H167 H 0.38581 0.03793 0.97786 0.0
O168 O 0.78425 0.20815 0.98624 0.0
C169 C 0.08762 0.03362 1.02121 0.0
Co170 Co 0.09046 0.59828 0.24378 0.0
Co171 Co 0.08825 0.87013 0.24517 0.0
C172 C 0.89659 0.73097 0.27091 0.0
O173 O 0.94383 0.63373 0.26406 0.0
O174 O 0.9441 0.82902 0.26548 0.0
C175 C 0.03744 0.34767 0.24337 0.0
O176 O 0.94082 0.37161 0.25643 0.0
C177 C 0.02214 0.12146 0.24444 0.0
C178 C 0.19098 0.19758 0.23192 0.0
C179 C 0.07819 0.22678 0.23946 0.0
N180 N 0.09936 0.03407 0.2402 0.0
N181 N 0.1997 0.08031 0.23265 0.0
C182 C 0.89829 0.10349 0.25308 0.0
H183 H 0.86435 0.01881 0.24495 0.0
H184 H 0.84068 0.17544 0.24597 0.0
H185 H 0.89586 0.10131 0.27543 0.0
C186 C 0.0887 0.63892 0.18487 0.0
N187 N 0.08899 0.67782 0.21063 0.0
N188 N 0.08535 0.79317 0.211 0.0
C189 C 0.08089 0.83126 0.18537 0.0
C190 C 0.08372 0.73483 0.16812 0.0
C191 C 0.09191 0.51234 0.17658 0.0
H192 H 0.01597 0.46627 0.18533 0.0
H193 H 0.0894 0.5013 0.15431 0.0
H194 H 0.17305 0.47158 0.18477 0.0
O195 O 0.23555 0.63644 0.26469 0.0
O196 O 0.23537 0.83053 0.26539 0.0
H197 H 0.15949 -0.00045 0.18091 0.0
H198 H 0.04824 0.96561 0.15585 0.0
C199 C 0.07297 0.95713 0.17746 0.0
H200 H 0.00735 0.00323 0.19004 0.0
H201 H 0.27478 0.03153 0.22834 0.0
O202 O 0.10518 0.42978 0.23649 0.0
C203 C 0.28354 0.73344 0.27127 0.0
Co204 Co 0.4527 0.72354 0.49366 0.0
Co205 Co 0.72457 0.72589 0.49522 0.0
C206 C 0.58519 0.92053 0.5209 0.0
O207 O 0.48798 0.8725 0.51402 0.0
O208 O 0.6833 0.87229 0.51555 0.0
C209 C 0.2022 0.77602 0.49354 0.0
O210 O 0.22627 0.87293 0.5071 0.0
C211 C 0.97602 0.79153 0.49475 0.0
C212 C 0.05196 0.6218 0.48167 0.0
C213 C 0.08127 0.73506 0.48955 0.0
N214 N 0.88856 0.71412 0.49028 0.0
N215 N 0.93468 0.61323 0.48241 0.0
C216 C 0.95815 0.91603 0.50373 0.0
H217 H 0.87395 0.94975 0.49549 0.0
H218 H 0.03061 0.97295 0.49697 0.0
H219 H 0.95489 0.91992 0.52607 0.0
C220 C 0.49413 0.72209 0.43475 0.0
N221 N 0.53261 0.72205 0.46055 0.0
N222 N 0.64795 0.72581 0.46103 0.0
C223 C 0.68646 0.73016 0.43548 0.0
C224 C 0.59034 0.72718 0.41811 0.0
C225 C 0.36768 0.71943 0.42633 0.0
H226 H 0.32195 0.79599 0.4354 0.0
H227 H 0.35707 0.72124 0.40406 0.0
H228 H 0.32624 0.63886 0.43411 0.0
O229 O 0.49067 0.58074 0.51455 0.0
O230 O 0.68473 0.58109 0.51536 0.0
H231 H 0.85564 0.65299 0.43088 0.0
H232 H 0.82123 0.76288 0.40625 0.0
C233 C 0.81244 0.73895 0.42773 0.0
H234 H 0.8576 0.80554 0.44066 0.0
H235 H 0.88582 0.53793 0.47786 0.0
O236 O 0.28426 0.70815 0.48624 0.0
C237 C 0.58763 0.53361 0.52121 0.0
Co238 Co 0.59046 0.09828 0.74378 0.0
Co239 Co 0.58824 0.37013 0.74517 0.0
C240 C 0.39659 0.23097 0.77091 0.0
O241 O 0.44382 0.13372 0.76406 0.0
O242 O 0.44409 0.32902 0.76548 0.0
C243 C 0.53744 0.84766 0.74337 0.0
O244 O 0.44081 0.87161 0.75643 0.0
C245 C 0.52213 0.62146 0.74444 0.0
C246 C 0.69097 0.69758 0.73192 0.0
C247 C 0.57819 0.72678 0.73946 0.0
N248 N 0.59935 0.53407 0.7402 0.0
N249 N 0.69969 0.58031 0.73265 0.0
C250 C 0.39828 0.60349 0.75308 0.0
H251 H 0.36435 0.51881 0.74494 0.0
H252 H 0.34067 0.67544 0.74597 0.0
H253 H 0.39585 0.60131 0.77543 0.0
C254 C 0.5887 0.13892 0.68487 0.0
N255 N 0.58898 0.17782 0.71063 0.0
N256 N 0.58535 0.29316 0.711 0.0
C257 C 0.58088 0.33126 0.68537 0.0
C258 C 0.58373 0.23483 0.66812 0.0
C259 C 0.59191 0.01234 0.67658 0.0
H260 H 0.51597 0.96627 0.68533 0.0
H261 H 0.5894 0.00129 0.65431 0.0
H262 H 0.67305 0.97158 0.68477 0.0
O263 O 0.73555 0.13644 0.76469 0.0
O264 O 0.73536 0.33053 0.76539 0.0
H265 H 0.6595 0.49955 0.68092 0.0
H266 H 0.54824 0.46561 0.65585 0.0
C267 C 0.57297 0.45713 0.67746 0.0
H268 H 0.50735 0.50322 0.69004 0.0
H269 H 0.77478 0.53153 0.72834 0.0
O270 O 0.60518 0.92978 0.73649 0.0
C271 C 0.78353 0.23344 0.77127 0.0
loop_
_geom_bond_atom_site_label_1
_geom_bond_atom_site_label_2
_geom_bond_distance
_geom_bond_site_symmetry_2
_ccdc_geom_bond_type
Co0 O3 1.970 . S
Co0 N17 1.989 . S
Co0 O25 1.967 . S
Co0 O32 1.920 . S
Co1 O4 1.964 1_655 S
Co1 N10 2.022 . S
Co1 N18 1.993 1_655 S
Co1 O26 1.941 . S
C2 O3 1.258 . S
C2 O4 1.271 . S
O3 Co0 1.970 . S
O3 C2 1.258 . S
O4 Co1 1.964 1_455 S
O4 C2 1.271 . S
C5 O6 1.235 . S
C5 O32 1.289 . S
O6 C5 1.235 . S
C7 C9 1.400 . S
C7 N10 1.351 . S
C7 C12 1.501 . S
C8 C9 1.387 . S
C8 N11 1.341 . S
C9 C7 1.400 . S
C9 C8 1.387 . S
N10 Co1 2.022 . S
N10 C7 1.351 . S
N10 N11 1.365 . S
N11 C8 1.341 . S
N11 N10 1.365 . S
N11 H31 0.862 . S
C12 C7 1.501 . S
C12 H13 0.961 . S
C12 H14 0.961 1_565 S
C12 H15 0.960 . S
H13 C12 0.961 . S
H14 C12 0.961 1_545 S
H15 C12 0.960 . S
C16 N17 1.342 . S
C16 C20 1.401 . S
C16 C21 1.499 . S
N17 Co0 1.989 . S
N17 C16 1.342 . S
N17 N18 1.388 . S
N18 Co1 1.993 1_455 S
N18 N17 1.388 . S
N18 C19 1.346 1_455 S
C19 N18 1.346 1_655 S
C19 C20 1.396 1_655 S
C19 C29 1.510 . S
C20 C16 1.401 . S
C20 C19 1.396 1_455 S
C21 C16 1.499 . S
C21 H22 0.959 . S
C21 H23 0.960 . S
C21 H24 0.961 . S
H22 C21 0.959 . S
H23 C21 0.960 . S
H24 C21 0.961 . S
O25 Co0 1.967 . S
O25 C33 1.258 . S
O26 Co1 1.941 . S
O26 C33 1.266 1_655 S
H27 C29 0.959 . S
H28 C29 0.961 . S
C29 C19 1.510 . S
C29 H27 0.959 . S
C29 H28 0.961 . S
C29 H30 0.960 . S
H30 C29 0.960 . S
H31 N11 0.862 . S
O32 Co0 1.920 . S
O32 C5 1.289 . S
C33 O25 1.258 . S
C33 O26 1.266 1_455 S
Co34 O37 1.970 . S
Co34 N51 1.989 . S
Co34 O59 1.967 . S
Co34 O66 1.920 1_565 S
Co35 O38 1.966 . S
Co35 N44 2.022 . S
Co35 N52 1.993 . S
Co35 O60 1.941 . S
C36 O37 1.258 . S
C36 O38 1.263 . S
O37 Co34 1.970 . S
O37 C36 1.258 . S
O38 Co35 1.966 . S
O38 C36 1.263 . S
C39 O40 1.235 . S
C39 O66 1.289 . S
O40 C39 1.235 . S
C41 C43 1.400 . S
C41 N44 1.351 . S
C41 C46 1.501 . S
C42 C43 1.387 . S
C42 N45 1.341 . S
C43 C41 1.400 . S
C43 C42 1.387 . S
N44 Co35 2.022 . S
N44 C41 1.351 . S
N44 N45 1.365 . S
N45 C42 1.341 . S
N45 N44 1.365 . S
N45 H65 0.862 . S
C46 C41 1.501 . S
C46 H47 0.961 . S
C46 H48 0.961 . S
C46 H49 0.960 . S
H47 C46 0.961 . S
H48 C46 0.961 . S
H49 C46 0.960 . S
C50 N51 1.342 . S
C50 C54 1.401 . S
C50 C55 1.499 . S
N51 Co34 1.989 . S
N51 C50 1.342 . S
N51 N52 1.388 . S
N52 Co35 1.993 . S
N52 N51 1.388 . S
N52 C53 1.346 . S
C53 N52 1.346 . S
C53 C54 1.396 . S
C53 C63 1.510 . S
C54 C50 1.401 . S
C54 C53 1.396 . S
C55 C50 1.499 . S
C55 H56 0.959 1_565 S
C55 H57 0.960 . S
C55 H58 0.961 . S
H56 C55 0.959 1_545 S
H57 C55 0.960 . S
H58 C55 0.961 . S
O59 Co34 1.967 . S
O59 C67 1.258 . S
O60 Co35 1.941 . S
O60 C67 1.266 . S
H61 C63 0.959 . S
H62 C63 0.961 . S
C63 C53 1.510 . S
C63 H61 0.959 . S
C63 H62 0.961 . S
C63 H64 0.960 . S
H64 C63 0.960 . S
H65 N45 0.862 . S
O66 Co34 1.920 1_545 S
O66 C39 1.289 . S
C67 O59 1.258 . S
C67 O60 1.266 . S
Co68 O71 1.970 . S
Co68 N85 1.989 . S
Co68 O93 1.967 . S
Co68 O100 1.920 . S
Co69 O72 1.966 . S
Co69 N78 2.022 . S
Co69 N86 1.993 . S
Co69 O94 1.941 . S
C70 O71 1.258 . S
C70 O72 1.263 . S
O71 Co68 1.970 . S
O71 C70 1.258 . S
O72 Co69 1.966 . S
O72 C70 1.263 . S
C73 O74 1.235 . S
C73 O100 1.289 . S
O74 C73 1.235 . S
C75 C77 1.400 . S
C75 N78 1.351 . S
C75 C80 1.501 . S
C76 C77 1.387 . S
C76 N79 1.341 . S
C77 C75 1.400 . S
C77 C76 1.387 . S
N78 Co69 2.022 . S
N78 C75 1.351 . S
N78 N79 1.365 . S
N79 C76 1.341 . S
N79 N78 1.365 . S
N79 H99 0.862 . S
C80 C75 1.501 . S
C80 H81 0.961 . S
C80 H82 0.961 . S
C80 H83 0.960 . S
H81 C80 0.961 . S
H82 C80 0.961 . S
H83 C80 0.960 . S
C84 N85 1.342 . S
C84 C88 1.401 . S
C84 C89 1.499 . S
N85 Co68 1.989 . S
N85 C84 1.342 . S
N85 N86 1.388 . S
N86 Co69 1.993 . S
N86 N85 1.388 . S
N86 C87 1.346 . S
C87 N86 1.346 . S
C87 C88 1.396 . S
C87 C97 1.510 . S
C88 C84 1.401 . S
C88 C87 1.396 . S
C89 C84 1.499 . S
C89 H90 0.959 . S
C89 H91 0.960 . S
C89 H92 0.961 . S
H90 C89 0.959 . S
H91 C89 0.960 . S
H92 C89 0.961 . S
O93 Co68 1.967 . S
O93 C101 1.258 . S
O94 Co69 1.941 . S
O94 C101 1.266 . S
H95 C97 0.959 . S
H96 C97 0.961 . S
C97 C87 1.510 . S
C97 H95 0.959 . S
C97 H96 0.961 . S
C97 H98 0.960 . S
H98 C97 0.960 . S
H99 N79 0.862 . S
O100 Co68 1.920 . S
O100 C73 1.289 . S
C101 O93 1.258 . S
C101 O94 1.266 . S
Co102 O105 1.970 1_455 S
Co102 N119 1.989 . S
Co102 O127 1.967 . S
Co102 O134 1.920 . S
Co103 O106 1.966 1_455 S
Co103 N112 2.022 1_545 S
Co103 N120 1.993 . S
Co103 O128 1.941 . S
C104 O105 1.258 . S
C104 O106 1.263 . S
O105 Co102 1.970 1_655 S
O105 C104 1.258 . S
O106 Co103 1.966 1_655 S
O106 C104 1.263 . S
C107 O108 1.235 1_455 S
C107 O134 1.289 . S
O108 C107 1.235 1_655 S
C109 C111 1.400 . S
C109 N112 1.351 . S
C109 C114 1.501 1_455 S
C110 C111 1.387 . S
C110 N113 1.341 . S
C111 C109 1.400 . S
C111 C110 1.387 . S
N112 Co103 2.022 1_565 S
N112 C109 1.351 . S
N112 N113 1.365 . S
N113 C110 1.341 . S
N113 N112 1.365 . S
N113 H133 0.862 . S
C114 C109 1.501 1_655 S
C114 H115 0.961 . S
C114 H116 0.961 . S
C114 H117 0.960 . S
H115 C114 0.961 . S
H116 C114 0.961 . S
H117 C114 0.960 . S
C118 N119 1.342 . S
C118 C122 1.401 . S
C118 C123 1.499 . S
N119 Co102 1.989 . S
N119 C118 1.342 . S
N119 N120 1.388 . S
N120 Co103 1.993 . S
N120 N119 1.388 . S
N120 C121 1.346 . S
C121 N120 1.346 . S
C121 C122 1.396 . S
C121 C131 1.510 1_545 S
C122 C118 1.401 . S
C122 C121 1.396 . S
C123 C118 1.499 . S
C123 H124 0.959 . S
C123 H125 0.960 . S
C123 H126 0.961 . S
H124 C123 0.959 . S
H125 C123 0.960 . S
H126 C123 0.961 . S
O127 Co102 1.967 . S
O127 C135 1.258 . S
O128 Co103 1.941 . S
O128 C135 1.266 . S
H129 C131 0.959 . S
H130 C131 0.961 . S
C131 C121 1.510 1_565 S
C131 H129 0.959 . S
C131 H130 0.961 . S
C131 H132 0.960 . S
H132 C131 0.960 . S
H133 N113 0.862 . S
O134 Co102 1.920 . S
O134 C107 1.289 . S
C135 O127 1.258 . S
C135 O128 1.266 . S
Co136 O139 1.970 1_655 S
Co136 N153 1.989 1_655 S
Co136 O161 1.967 1_655 S
Co136 O168 1.920 . S
Co137 O140 1.966 . S
Co137 N146 2.022 . S
Co137 N154 1.993 . S
Co137 O162 1.941 . S
C138 O139 1.258 . S
C138 O140 1.263 . S
O139 Co136 1.970 1_455 S
O139 C138 1.258 . S
O140 Co137 1.966 . S
O140 C138 1.263 . S
C141 O142 1.235 . S
C141 O168 1.289 . S
O142 C141 1.235 . S
C143 C145 1.400 . S
C143 N146 1.351 . S
C143 C148 1.501 . S
C144 C145 1.387 . S
C144 N147 1.341 . S
C145 C143 1.400 . S
C145 C144 1.387 . S
N146 Co137 2.022 . S
N146 C143 1.351 . S
N146 N147 1.365 . S
N147 C144 1.341 . S
N147 N146 1.365 . S
N147 H167 0.862 . S
C148 C143 1.501 . S
C148 H149 0.961 . S
C148 H150 0.961 . S
C148 H151 0.960 . S
H149 C148 0.961 . S
H150 C148 0.961 . S
H151 C148 0.960 . S
C152 N153 1.342 . S
C152 C156 1.401 . S
C152 C157 1.499 1_455 S
N153 Co136 1.989 1_455 S
N153 C152 1.342 . S
N153 N154 1.388 . S
N154 Co137 1.993 . S
N154 N153 1.388 . S
N154 C155 1.346 . S
C155 N154 1.346 . S
C155 C156 1.396 . S
C155 C165 1.510 . S
C156 C152 1.401 . S
C156 C155 1.396 . S
C157 C152 1.499 1_655 S
C157 H158 0.959 . S
C157 H159 0.960 . S
C157 H160 0.961 . S
H158 C157 0.959 . S
H159 C157 0.960 . S
H160 C157 0.961 . S
O161 Co136 1.967 1_455 S
O161 C169 1.258 . S
O162 Co137 1.941 . S
O162 C169 1.266 . S
H163 C165 0.959 . S
H164 C165 0.961 . S
C165 C155 1.510 . S
C165 H163 0.959 . S
C165 H164 0.961 . S
C165 H166 0.960 . S
H166 C165 0.960 . S
H167 N147 0.862 . S
O168 Co136 1.920 . S
O168 C141 1.289 . S
C169 O161 1.258 . S
C169 O162 1.266 . S
Co170 O173 1.970 1_455 S
Co170 N187 1.989 . S
Co170 O195 1.967 . S
Co170 O202 1.920 . S
Co171 O174 1.966 1_455 S
Co171 N180 2.022 1_565 S
Co171 N188 1.993 . S
Co171 O196 1.941 . S
C172 O173 1.258 . S
C172 O174 1.263 . S
O173 Co170 1.970 1_655 S
O173 C172 1.258 . S
O174 Co171 1.966 1_655 S
O174 C172 1.263 . S
C175 O176 1.235 1_455 S
C175 O202 1.289 . S
O176 C175 1.235 1_655 S
C177 C179 1.400 1_655 S
C177 N180 1.350 1_655 S
C177 C182 1.502 . S
C178 C179 1.387 . S
C178 N181 1.341 . S
C179 C177 1.400 1_455 S
C179 C178 1.387 . S
N180 Co171 2.022 1_545 S
N180 C177 1.350 1_455 S
N180 N181 1.365 . S
N181 C178 1.341 . S
N181 N180 1.365 . S
N181 H201 0.862 . S
C182 C177 1.502 . S
C182 H183 0.961 . S
C182 H184 0.961 . S
C182 H185 0.960 . S
H183 C182 0.961 . S
H184 C182 0.961 . S
H185 C182 0.960 . S
C186 N187 1.342 . S
C186 C190 1.401 . S
C186 C191 1.499 . S
N187 Co170 1.989 . S
N187 C186 1.342 . S
N187 N188 1.388 . S
N188 Co171 1.993 . S
N188 N187 1.388 . S
N188 C189 1.346 . S
C189 N188 1.346 . S
C189 C190 1.396 . S
C189 C199 1.510 . S
C190 C186 1.401 . S
C190 C189 1.396 . S
C191 C186 1.499 . S
C191 H192 0.959 . S
C191 H193 0.960 . S
C191 H194 0.961 . S
H192 C191 0.959 . S
H193 C191 0.960 . S
H194 C191 0.961 . S
O195 Co170 1.967 . S
O195 C203 1.258 . S
O196 Co171 1.941 . S
O196 C203 1.266 . S
H197 C199 0.959 1_545 S
H198 C199 0.961 . S
C199 C189 1.510 . S
C199 H197 0.959 1_565 S
C199 H198 0.961 . S
C199 H200 0.960 1_565 S
H200 C199 0.960 1_545 S
H201 N181 0.862 . S
O202 Co170 1.920 . S
O202 C175 1.289 . S
C203 O195 1.258 . S
C203 O196 1.266 . S
Co204 O207 1.970 . S
Co204 N221 1.989 . S
Co204 O229 1.967 . S
Co204 O236 1.920 . S
Co205 O208 1.966 . S
Co205 N214 2.022 . S
Co205 N222 1.993 . S
Co205 O230 1.941 . S
C206 O207 1.258 . S
C206 O208 1.263 . S
O207 Co204 1.970 . S
O207 C206 1.258 . S
O208 Co205 1.966 . S
O208 C206 1.263 . S
C209 O210 1.235 . S
C209 O236 1.289 . S
O210 C209 1.235 . S
C211 C213 1.400 . S
C211 N214 1.351 1_455 S
C211 C216 1.501 1_455 S
C212 C213 1.387 . S
C212 N215 1.341 1_455 S
C213 C211 1.400 . S
C213 C212 1.387 . S
N214 Co205 2.022 . S
N214 C211 1.351 1_655 S
N214 N215 1.365 . S
N215 C212 1.341 1_655 S
N215 N214 1.365 . S
N215 H235 0.862 . S
C216 C211 1.501 1_655 S
C216 H217 0.961 . S
C216 H218 0.961 1_565 S
C216 H219 0.960 1_655 S
H217 C216 0.961 . S
H218 C216 0.961 1_545 S
H219 C216 0.960 1_455 S
C220 N221 1.342 . S
C220 C224 1.401 . S
C220 C225 1.499 . S
N221 Co204 1.989 . S
N221 C220 1.342 . S
N221 N222 1.388 . S
N222 Co205 1.993 . S
N222 N221 1.388 . S
N222 C223 1.346 . S
C223 N222 1.346 . S
C223 C224 1.396 . S
C223 C233 1.510 . S
C224 C220 1.401 . S
C224 C223 1.396 . S
C225 C220 1.499 . S
C225 H226 0.959 . S
C225 H227 0.960 . S
C225 H228 0.961 . S
H226 C225 0.959 . S
H227 C225 0.960 . S
H228 C225 0.961 . S
O229 Co204 1.967 . S
O229 C237 1.258 . S
O230 Co205 1.941 . S
O230 C237 1.266 . S
H231 C233 0.959 . S
H232 C233 0.961 . S
C233 C223 1.510 . S
C233 H231 0.959 . S
C233 H232 0.961 . S
C233 H234 0.960 . S
H234 C233 0.960 . S
H235 N215 0.862 . S
O236 Co204 1.920 . S
O236 C209 1.289 . S
C237 O229 1.258 . S
C237 O230 1.266 . S
Co238 O241 1.970 . S
Co238 N255 1.989 . S
Co238 O263 1.967 . S
Co238 O270 1.920 1_545 S
Co239 O242 1.966 . S
Co239 N248 2.022 . S
Co239 N256 1.993 . S
Co239 O264 1.941 . S
C240 O241 1.258 . S
C240 O242 1.263 . S
O241 Co238 1.970 . S
O241 C240 1.258 . S
O242 Co239 1.966 . S
O242 C240 1.263 . S
C243 O244 1.235 . S
C243 O270 1.289 . S
O244 C243 1.235 . S
C245 C247 1.400 . S
C245 N248 1.351 . S
C245 C250 1.501 . S
C246 C247 1.387 . S
C246 N249 1.341 . S
C247 C245 1.400 . S
C247 C246 1.387 . S
N248 Co239 2.022 . S
N248 C245 1.351 . S
N248 N249 1.365 . S
N249 C246 1.341 . S
N249 N248 1.365 . S
N249 H269 0.862 . S
C250 C245 1.501 . S
C250 H251 0.961 . S
C250 H252 0.961 . S
C250 H253 0.960 . S
H251 C250 0.961 . S
H252 C250 0.961 . S
H253 C250 0.960 . S
C254 N255 1.342 . S
C254 C258 1.401 . S
C254 C259 1.499 . S
N255 Co238 1.989 . S
N255 C254 1.342 . S
N255 N256 1.388 . S
N256 Co239 1.993 . S
N256 N255 1.388 . S
N256 C257 1.346 . S
C257 N256 1.346 . S
C257 C258 1.396 . S
C257 C267 1.510 . S
C258 C254 1.401 . S
C258 C257 1.396 . S
C259 C254 1.499 . S
C259 H260 0.959 1_545 S
C259 H261 0.960 1_545 S
C259 H262 0.961 . S
H260 C259 0.959 1_565 S
H261 C259 0.960 1_565 S
H262 C259 0.961 . S
O263 Co238 1.967 . S
O263 C271 1.258 . S
O264 Co239 1.941 . S
O264 C271 1.266 . S
H265 C267 0.959 . S
H266 C267 0.961 . S
C267 C257 1.510 . S
C267 H265 0.959 . S
C267 H266 0.961 . S
C267 H268 0.960 . S
H268 C267 0.960 . S
H269 N249 0.862 . S
O270 Co238 1.920 1_565 S
O270 C243 1.289 . S
C271 O263 1.258 . S
C271 O264 1.266 . S
C20 C190 1.613 . S
C224 C54 1.650 . S
C88 C258 1.613 . S
C156 C122 1.651 . S
C33 C138 1.839 1_554 S
C67 C172 1.846 . S
C237 C70 1.846 . S
C104 C271 1.839 . S
C135 C240 1.846 . S
C203 C36 1.839 . S
C206 C101 1.839 1_565 S
C2 C169 1.846 1_564 S
C9 C5 1.332 . S
C43 C39 1.331 . S
C77 C73 1.332 1_455 S
C111 C107 1.331 . S
C141 C145 1.331 . S
C179 C175 1.332 . S
C213 C209 1.331 . S
C243 C247 1.332 . S
