# Generated by pormake.
# Topology ukt, (4)-cn, num edge types: 1
# Building blocks:
#     Node 0, Type 0, BuildingBlock: CEKHIL_clean_sbu_0, # of connection points: 4
#     Node 1, Type 0, BuildingBlock: CEKHIL_clean_sbu_0, # of connection points: 4
#     Node 2, Type 0, BuildingBlock: CEKHIL_clean_sbu_0, # of connection points: 4
#     Node 3, Type 0, BuildingBlock: CEKHIL_clean_sbu_0, # of connection points: 4
#     Node 4, Type 0, BuildingBlock: CEKHIL_clean_sbu_0, # of connection points: 4
#     Node 5, Type 0, BuildingBlock: CEKHIL_clean_sbu_0, # of connection points: 4
#     Node 6, Type 0, BuildingBlock: CEKHIL_clean_sbu_0, # of connection points: 4
#     Node 7, Type 0, BuildingBlock: CEKHIL_clean_sbu_0, # of connection points: 4
#     Node 8, Type 0, BuildingBlock: CEKHIL_clean_sbu_0, # of connection points: 4
#     Node 9, Type 0, BuildingBlock: CEKHIL_clean_sbu_0, # of connection points: 4
#     Node 10, Type 0, BuildingBlock: CEKHIL_clean_sbu_0, # of connection points: 4
#     Node 11, Type 0, BuildingBlock: CEKHIL_clean_sbu_0, # of connection points: 4
#     Node 12, Type 0, BuildingBlock: CEKHIL_clean_sbu_0, # of connection points: 4
#     Node 13, Type 0, BuildingBlock: CEKHIL_clean_sbu_0, # of connection points: 4
#     Node 14, Type 0, BuildingBlock: CEKHIL_clean_sbu_0, # of connection points: 4
#     Node 15, Type 0, BuildingBlock: CEKHIL_clean_sbu_0, # of connection points: 4
#     Edge 16, Type (0, 0), BuildingBlock: EZIPEK_clean_linker_0, # of connection points: 2
#     Edge 17, Type (0, 0), BuildingBlock: EZIPEK_clean_linker_0, # of connection points: 2
#     Edge 18, Type (0, 0), BuildingBlock: EZIPEK_clean_linker_0, # of connection points: 2
#     Edge 19, Type (0, 0), BuildingBlock: EZIPEK_clean_linker_0, # of connection points: 2
#     Edge 20, Type (0, 0), BuildingBlock: EZIPEK_clean_linker_0, # of connection points: 2
#     Edge 21, Type (0, 0), BuildingBlock: EZIPEK_clean_linker_0, # of connection points: 2
#     Edge 22, Type (0, 0), BuildingBlock: EZIPEK_clean_linker_0, # of connection points: 2
#     Edge 23, Type (0, 0), BuildingBlock: EZIPEK_clean_linker_0, # of connection points: 2
#     Edge 24, Type (0, 0), BuildingBlock: EZIPEK_clean_linker_0, # of connection points: 2
#     Edge 25, Type (0, 0), BuildingBlock: EZIPEK_clean_linker_0, # of connection points: 2
#     Edge 26, Type (0, 0), BuildingBlock: EZIPEK_clean_linker_0, # of connection points: 2
#     Edge 27, Type (0, 0), BuildingBlock: EZIPEK_clean_linker_0, # of connection points: 2
#     Edge 28, Type (0, 0), BuildingBlock: EZIPEK_clean_linker_0, # of connection points: 2
#     Edge 29, Type (0, 0), BuildingBlock: EZIPEK_clean_linker_0, # of connection points: 2
#     Edge 30, Type (0, 0), BuildingBlock: EZIPEK_clean_linker_0, # of connection points: 2
#     Edge 31, Type (0, 0), BuildingBlock: EZIPEK_clean_linker_0, # of connection points: 2
#     Edge 32, Type (0, 0), BuildingBlock: EZIPEK_clean_linker_0, # of connection points: 2
#     Edge 33, Type (0, 0), BuildingBlock: EZIPEK_clean_linker_0, # of connection points: 2
#     Edge 34, Type (0, 0), BuildingBlock: EZIPEK_clean_linker_0, # of connection points: 2
#     Edge 35, Type (0, 0), BuildingBlock: EZIPEK_clean_linker_0, # of connection points: 2
#     Edge 36, Type (0, 0), BuildingBlock: EZIPEK_clean_linker_0, # of connection points: 2
#     Edge 37, Type (0, 0), BuildingBlock: EZIPEK_clean_linker_0, # of connection points: 2
#     Edge 38, Type (0, 0), BuildingBlock: EZIPEK_clean_linker_0, # of connection points: 2
#     Edge 39, Type (0, 0), BuildingBlock: EZIPEK_clean_linker_0, # of connection points: 2
#     Edge 40, Type (0, 0), BuildingBlock: EZIPEK_clean_linker_0, # of connection points: 2
#     Edge 41, Type (0, 0), BuildingBlock: EZIPEK_clean_linker_0, # of connection points: 2
#     Edge 42, Type (0, 0), BuildingBlock: EZIPEK_clean_linker_0, # of connection points: 2
#     Edge 43, Type (0, 0), BuildingBlock: EZIPEK_clean_linker_0, # of connection points: 2
#     Edge 44, Type (0, 0), BuildingBlock: EZIPEK_clean_linker_0, # of connection points: 2
#     Edge 45, Type (0, 0), BuildingBlock: EZIPEK_clean_linker_0, # of connection points: 2
#     Edge 46, Type (0, 0), BuildingBlock: EZIPEK_clean_linker_0, # of connection points: 2
#     Edge 47, Type (0, 0), BuildingBlock: EZIPEK_clean_linker_0, # of connection points: 2
# Relax obj value: 0.281
# Max RMSD: 0.165
# Mean RMSD: 0.165
data_MOF--net-ukt--node1-CEKHIL_clean_sbu_0--edge1-EZIPEK_clean_linker_0
_symmetry_space_group_name_H-M    P1
_symmetry_Int_Tables_number       1
_symmetry_cell_setting            triclinic
loop_
_symmetry_equiv_pos_as_xyz
'x, y, z'
_cell_length_a     30.658747
_cell_length_b     30.658989
_cell_length_c     24.818103
_cell_angle_alpha  89.997321
_cell_angle_beta   89.991962
_cell_angle_gamma 90.01091
loop_
_atom_site_label
_atom_site_type_symbol
_atom_site_fract_x
_atom_site_fract_y
_atom_site_fract_z
_atom_type_partial_charge
Co0 Co 0.52876 0.14621 0.09597 0.0
O1 O 0.49857 0.09051 0.10451 0.0
O2 O 0.50545 0.12631 0.02856 0.0
C3 C 0.50405 0.18528 0.16866 0.0
O4 O 0.55634 0.20111 0.06612 0.0
Co5 Co 0.59859 0.18325 0.17323 0.0
O6 O 0.59336 0.2373 0.12952 0.0
C7 C 0.62382 0.11867 0.09035 0.0
C8 C 0.4926 0.09105 0.05231 0.0
C9 C 0.5784 0.23423 0.08182 0.0
O10 O 0.58353 0.11367 0.07833 0.0
O11 O 0.63693 0.14422 0.12785 0.0
O12 O 0.47985 0.18031 0.12592 0.0
O13 O 0.53904 0.16167 0.1691 0.0
Co14 Co 0.36834 0.53955 0.10536 0.0
O15 O 0.42805 0.52264 0.12151 0.0
O16 O 0.39272 0.50651 0.04638 0.0
C17 C 0.33367 0.52591 0.18602 0.0
O18 O 0.3084 0.55039 0.07332 0.0
Co19 Co 0.32906 0.62048 0.16188 0.0
O20 O 0.27937 0.60956 0.11268 0.0
C21 C 0.39158 0.63447 0.07609 0.0
C22 C 0.42951 0.50768 0.07235 0.0
C23 C 0.27803 0.57897 0.07789 0.0
O24 O 0.39162 0.59315 0.06847 0.0
O25 O 0.37113 0.65275 0.11483 0.0
O26 O 0.34223 0.49445 0.15219 0.0
O27 O 0.35246 0.56217 0.17307 0.0
Co28 Co 0.96204 0.3616 0.10562 0.0
O29 O 0.97551 0.42283 0.11701 0.0
O30 O 0.99725 0.38366 0.04708 0.0
C31 C 0.97336 0.331 0.18926 0.0
O32 O 0.95512 0.30008 0.07803 0.0
Co33 Co 0.88002 0.3223 0.15993 0.0
O34 O 0.89564 0.2705 0.11609 0.0
C35 C 0.8675 0.38143 0.07068 0.0
C36 C 0.99292 0.42187 0.06899 0.0
C37 C 0.9277 0.26889 0.08336 0.0
O38 O 0.90895 0.38075 0.06405 0.0
O39 O 0.84841 0.36297 0.11033 0.0
O40 O 0.00597 0.33968 0.15716 0.0
O41 O 0.93712 0.34807 0.17292 0.0
Co42 Co 0.13894 0.95939 0.1141 0.0
O43 O 0.0783 0.9721 0.13042 0.0
O44 O 0.11296 0.99264 0.05639 0.0
C45 C 0.17228 0.9725 0.19556 0.0
O46 O 0.19951 0.9527 0.08243 0.0
Co47 Co 0.18128 0.87863 0.16762 0.0
O48 O 0.23063 0.89356 0.11939 0.0
C49 C 0.12021 0.86445 0.08077 0.0
C50 C 0.07615 0.98818 0.08186 0.0
C51 C 0.23092 0.92521 0.086 0.0
O52 O 0.11939 0.90585 0.07422 0.0
O53 O 0.1403 0.84584 0.11953 0.0
O54 O 0.16204 0.00447 0.16321 0.0
O55 O 0.15556 0.93567 0.18084 0.0
Co56 Co 0.53435 0.35058 0.41387 0.0
O57 O 0.51848 0.41159 0.40404 0.0
O58 O 0.50975 0.37432 0.47951 0.0
C59 C 0.5089 0.31853 0.33707 0.0
O60 O 0.54603 0.28945 0.44145 0.0
Co61 Co 0.60382 0.30622 0.34111 0.0
O62 O 0.58656 0.25309 0.38158 0.0
C63 C 0.63317 0.36603 0.4251 0.0
C64 C 0.5086 0.4118 0.4552 0.0
C65 C 0.5635 0.25399 0.42432 0.0
O66 O 0.59329 0.37017 0.4397 0.0
O67 O 0.6449 0.34356 0.38417 0.0
O68 O 0.48219 0.32832 0.37615 0.0
O69 O 0.54743 0.33527 0.34193 0.0
Co70 Co 0.1412 0.53844 0.39915 0.0
O71 O 0.08089 0.5241 0.38302 0.0
O72 O 0.11553 0.50454 0.45644 0.0
C73 C 0.17466 0.5252 0.31753 0.0
O74 O 0.2015 0.54614 0.43165 0.0
Co75 Co 0.1871 0.61708 0.34491 0.0
O76 O 0.23897 0.59559 0.38434 0.0
C77 C 0.12415 0.6334 0.43097 0.0
C78 C 0.07869 0.5062 0.43061 0.0
C79 C 0.23688 0.56697 0.42155 0.0
O80 O 0.11995 0.59215 0.43744 0.0
O81 O 0.14727 0.65044 0.39363 0.0
O82 O 0.1653 0.4934 0.35053 0.0
O83 O 0.15786 0.56192 0.33224 0.0
Co84 Co 0.95827 0.14574 0.41041 0.0
O85 O 0.96911 0.0839 0.3993 0.0
O86 O 0.99147 0.12194 0.46983 0.0
C87 C 0.97238 0.1747 0.32637 0.0
O88 O 0.95424 0.20786 0.43761 0.0
Co89 Co 0.88135 0.1925 0.35349 0.0
O90 O 0.90893 0.24543 0.38452 0.0
C91 C 0.86226 0.13258 0.44154 0.0
C92 C 0.98626 0.08401 0.44744 0.0
C93 C 0.93738 0.24398 0.422 0.0
O94 O 0.90338 0.12923 0.45004 0.0
O95 O 0.84613 0.15403 0.40212 0.0
O96 O 0.00404 0.16513 0.35952 0.0
O97 O 0.9351 0.16016 0.34261 0.0
Co98 Co 0.36232 0.9644 0.40998 0.0
O99 O 0.4225 0.98057 0.39624 0.0
O100 O 0.3858 0.99786 0.46905 0.0
C101 C 0.3304 0.97836 0.32777 0.0
O102 O 0.30148 0.95481 0.44015 0.0
Co103 Co 0.31894 0.88608 0.35208 0.0
O104 O 0.26546 0.90736 0.38832 0.0
C105 C 0.38082 0.86919 0.43931 0.0
C106 C 0.42317 0.99771 0.4443 0.0
C107 C 0.26626 0.93489 0.42683 0.0
O108 O 0.38418 0.91038 0.44715 0.0
O109 O 0.35842 0.85256 0.40102 0.0
O110 O 0.33819 0.00977 0.36193 0.0
O111 O 0.34776 0.94179 0.342 0.0
Co112 Co 0.45731 0.85975 0.90587 0.0
O113 O 0.46432 0.92149 0.89112 0.0
O114 O 0.49112 0.88743 0.96223 0.0
C115 C 0.47002 0.82878 0.82267 0.0
O116 O 0.45649 0.79845 0.93654 0.0
Co117 Co 0.3804 0.80865 0.85418 0.0
O118 O 0.40845 0.75821 0.89027 0.0
C119 C 0.36193 0.87105 0.93967 0.0
C120 C 0.48219 0.92425 0.93875 0.0
C121 C 0.43832 0.76175 0.92584 0.0
O122 O 0.40307 0.87522 0.94718 0.0
O123 O 0.34553 0.84844 0.90143 0.0
O124 O 0.50232 0.84063 0.85369 0.0
O125 O 0.43276 0.84225 0.84016 0.0
Co126 Co 0.64815 0.45576 0.9013 0.0
O127 O 0.58598 0.46629 0.8917 0.0
O128 O 0.62398 0.48468 0.96391 0.0
C129 C 0.67465 0.47546 0.81779 0.0
O130 O 0.71075 0.45089 0.92718 0.0
Co131 Co 0.69621 0.38415 0.83525 0.0
O132 O 0.74874 0.40767 0.87188 0.0
C133 C 0.63927 0.35821 0.92367 0.0
C134 C 0.58606 0.48101 0.94097 0.0
C135 C 0.74695 0.43381 0.91181 0.0
O136 O 0.63441 0.39841 0.93657 0.0
O137 O 0.66023 0.34519 0.8822 0.0
O138 O 0.66555 0.50485 0.85413 0.0
O139 O 0.66173 0.437 0.83139 0.0
Co140 Co 0.04569 0.64583 0.90978 0.0
O141 O 0.0331 0.58424 0.89939 0.0
O142 O 0.01482 0.62263 0.9714 0.0
C143 C 0.02815 0.67477 0.82674 0.0
O144 O 0.0524 0.70766 0.93715 0.0
Co145 Co 0.12016 0.69211 0.84759 0.0
O146 O 0.09658 0.74524 0.88275 0.0
C147 C 0.14273 0.63232 0.93465 0.0
C148 C 0.01819 0.58464 0.94866 0.0
C149 C 0.06984 0.74369 0.92207 0.0
O150 O 0.10199 0.62835 0.94524 0.0
O151 O 0.15729 0.65425 0.89469 0.0
O152 O 0.998 0.66604 0.86229 0.0
O153 O 0.06593 0.65987 0.84045 0.0
Co154 Co 0.85505 0.03665 0.92076 0.0
O155 O 0.91542 0.02309 0.90381 0.0
O156 O 0.88137 0.00426 0.97896 0.0
C157 C 0.82195 0.02253 0.83916 0.0
O158 O 0.79482 0.04409 0.95383 0.0
Co159 Co 0.80956 0.11512 0.86459 0.0
O160 O 0.76114 0.1008 0.91435 0.0
C161 C 0.87443 0.13208 0.94769 0.0
C162 C 0.91791 0.00783 0.95276 0.0
C163 C 0.76252 0.07055 0.9496 0.0
O164 O 0.87592 0.09111 0.9575 0.0
O165 O 0.85258 0.1485 0.90882 0.0
O166 O 0.83112 0.99097 0.87264 0.0
O167 O 0.83821 0.05938 0.85386 0.0
Co168 Co 0.45708 0.63885 0.6071 0.0
O169 O 0.4689 0.57747 0.62033 0.0
O170 O 0.49131 0.61441 0.549 0.0
C171 C 0.46992 0.67044 0.68983 0.0
O172 O 0.45163 0.70016 0.57759 0.0
Co173 Co 0.37714 0.68244 0.66153 0.0
O174 O 0.39331 0.73249 0.61501 0.0
C175 C 0.3617 0.62109 0.57493 0.0
C176 C 0.4863 0.57682 0.57231 0.0
C177 C 0.42512 0.73231 0.58186 0.0
O178 O 0.40304 0.62023 0.56711 0.0
O179 O 0.34395 0.6413 0.61423 0.0
O180 O 0.50204 0.66051 0.65753 0.0
O181 O 0.4331 0.65432 0.67416 0.0
Co182 Co 0.85941 0.46831 0.59122 0.0
O183 O 0.91801 0.4883 0.6067 0.0
O184 O 0.88231 0.50234 0.53209 0.0
C185 C 0.82513 0.48138 0.67246 0.0
O186 O 0.79993 0.45392 0.55929 0.0
Co187 Co 0.8242 0.38651 0.64964 0.0
O188 O 0.7746 0.3933 0.59928 0.0
C189 C 0.88782 0.37457 0.56458 0.0
C190 C 0.91911 0.50431 0.55808 0.0
C191 C 0.77144 0.42339 0.56402 0.0
O192 O 0.88573 0.41566 0.55552 0.0
O193 O 0.86827 0.35604 0.60382 0.0
O194 O 0.83132 0.51258 0.63753 0.0
O195 O 0.84518 0.44582 0.65959 0.0
Co196 Co 0.04205 0.8595 0.60292 0.0
O197 O 0.02836 0.92069 0.6148 0.0
O198 O 0.00884 0.88252 0.54312 0.0
C199 C 0.02779 0.82856 0.68582 0.0
O200 O 0.04942 0.79822 0.57414 0.0
Co201 Co 0.12125 0.81753 0.66024 0.0
O202 O 0.10871 0.76782 0.61149 0.0
C203 C 0.13781 0.87924 0.57454 0.0
C204 C 0.01233 0.92042 0.56604 0.0
C205 C 0.07725 0.7672 0.57788 0.0
O206 O 0.09672 0.87905 0.56486 0.0
O207 O 0.15486 0.85957 0.61469 0.0
O208 O 0.99638 0.83731 0.65197 0.0
O209 O 0.06471 0.84508 0.67113 0.0
Co210 Co 0.6392 0.03672 0.61277 0.0
O211 O 0.57919 0.01993 0.626 0.0
O212 O 0.61664 0.00228 0.5539 0.0
C213 C 0.67038 0.02395 0.69566 0.0
O214 O 0.70013 0.04728 0.58333 0.0
Co215 Co 0.67709 0.11807 0.66978 0.0
O216 O 0.72739 0.10786 0.62124 0.0
C217 C 0.61672 0.13114 0.58126 0.0
C218 C 0.57905 0.00238 0.57817 0.0
C219 C 0.72983 0.07662 0.58742 0.0
O220 O 0.61703 0.08976 0.57376 0.0
O221 O 0.63621 0.14974 0.62051 0.0
O222 O 0.66339 0.99219 0.66177 0.0
O223 O 0.65258 0.06022 0.68082 0.0
C224 C 0.56455 0.28175 0.99987 0.0
C225 C 0.5935 0.2658 0.04032 0.0
C226 C 0.65187 0.31194 1.00432 0.0
C227 C 0.62386 0.32535 0.96222 0.0
N228 N 0.55751 0.3155 0.91192 0.0
N229 N 0.6689 0.25424 0.06655 0.0
C230 C 0.58138 0.30793 0.95749 0.0
C231 C 0.63838 0.27776 0.03877 0.0
N232 N 0.52089 0.27322 1.00241 0.0
N233 N 0.69151 0.33159 0.01136 0.0
H234 H 0.66165 0.22585 0.08778 0.0
H235 H 0.70234 0.25946 0.06258 0.0
H236 H 0.70348 0.35575 0.98568 0.0
H237 H 0.71095 0.32621 0.04518 0.0
H238 H 0.49801 0.28866 0.97792 0.0
H239 H 0.50681 0.25332 0.03141 0.0
H240 H 0.52817 0.29974 0.90356 0.0
H241 H 0.56889 0.33482 0.88028 0.0
C242 C 0.2087 0.5854 0.94994 0.0
C243 C 0.17436 0.61108 0.97135 0.0
C244 C 0.19966 0.59363 0.06193 0.0
C245 C 0.23982 0.57867 0.0407 0.0
N246 N 0.28233 0.55957 0.96109 0.0
N247 N 0.14151 0.64529 0.04957 0.0
C248 C 0.24423 0.57356 0.98376 0.0
C249 C 0.17051 0.61631 0.02796 0.0
N250 N 0.20684 0.57123 0.89777 0.0
N251 N 0.18971 0.58648 0.1148 0.0
H252 H 0.12164 0.66548 0.02637 0.0
H253 H 0.14065 0.65255 0.0906 0.0
H254 H 0.21001 0.56811 0.13984 0.0
H255 H 0.1594 0.59417 0.13136 0.0
H256 H 0.22888 0.54887 0.88168 0.0
H257 H 0.18053 0.57792 0.87243 0.0
H258 H 0.28867 0.56215 0.91995 0.0
H259 H 0.30848 0.54697 0.98253 0.0
C260 C 0.89613 0.15858 0.04028 0.0
C261 C 0.89902 0.16197 0.98327 0.0
C262 C 0.93569 0.23243 0.99171 0.0
C263 C 0.93102 0.22954 0.04876 0.0
N264 N 0.92668 0.18189 0.12543 0.0
N265 N 0.93762 0.19251 0.90751 0.0
C266 C 0.91841 0.18951 0.07223 0.0
C267 C 0.92416 0.19579 0.95984 0.0
N268 N 0.86938 0.1287 0.06427 0.0
N269 N 0.94846 0.27021 0.96715 0.0
H270 H 0.93109 0.16515 0.88383 0.0
H271 H 0.95934 0.21442 0.88985 0.0
H272 H 0.96031 0.2974 0.98728 0.0
H273 H 0.94559 0.27516 0.92574 0.0
H274 H 0.86351 0.12829 0.10564 0.0
H275 H 0.84937 0.10748 0.04296 0.0
H276 H 0.92078 0.15192 0.14389 0.0
H277 H 0.94411 0.20416 0.14889 0.0
C278 C 0.29777 0.91976 0.95668 0.0
C279 C 0.33208 0.89364 0.97731 0.0
C280 C 0.30924 0.91253 0.06844 0.0
C281 C 0.26871 0.92736 0.0483 0.0
N282 N 0.22522 0.94791 0.97012 0.0
N283 N 0.36748 0.86106 0.05486 0.0
C284 C 0.26331 0.93267 0.99155 0.0
C285 C 0.33764 0.88947 0.03383 0.0
N286 N 0.2987 0.93327 0.90419 0.0
N287 N 0.31997 0.91983 0.12103 0.0
H288 H 0.38699 0.84079 0.03131 0.0
H289 H 0.36958 0.85442 0.09598 0.0
H290 H 0.29984 0.93805 0.14646 0.0
H291 H 0.35054 0.91235 0.13695 0.0
H292 H 0.2768 0.95589 0.88841 0.0
H293 H 0.32425 0.92567 0.87806 0.0
H294 H 0.21779 0.94535 0.92926 0.0
H295 H 0.2002 0.96186 0.99236 0.0
C296 C 0.58761 0.17753 0.44441 0.0
C297 C 0.56256 0.21418 0.45943 0.0
C298 C 0.56195 0.18809 0.55297 0.0
C299 C 0.59583 0.15839 0.53936 0.0
N300 N 0.64456 0.12854 0.47183 0.0
N301 N 0.5075 0.23972 0.52083 0.0
C302 C 0.60914 0.15346 0.48485 0.0
C303 C 0.54413 0.21541 0.51192 0.0
N304 N 0.58916 0.16459 0.39183 0.0
N305 N 0.54729 0.19032 0.60492 0.0
H306 H 0.49039 0.25439 0.48936 0.0
H307 H 0.49092 0.24112 0.55732 0.0
H308 H 0.55716 0.16847 0.63473 0.0
H309 H 0.52636 0.21437 0.6192 0.0
H310 H 0.60448 0.13594 0.37942 0.0
H311 H 0.56976 0.17914 0.36231 0.0
H312 H 0.65772 0.12754 0.43311 0.0
H313 H 0.6638 0.11296 0.50053 0.0
C314 C 0.30186 0.56789 0.55203 0.0
C315 C 0.33348 0.59885 0.53498 0.0
C316 C 0.31453 0.58331 0.44154 0.0
C317 C 0.27535 0.56346 0.45868 0.0
N318 N 0.23753 0.52542 0.53032 0.0
N319 N 0.36638 0.6397 0.46185 0.0
C320 C 0.27082 0.55184 0.51401 0.0
C321 C 0.3395 0.60704 0.47918 0.0
N322 N 0.30281 0.55245 0.60371 0.0
N323 N 0.32742 0.57969 0.38912 0.0
H324 H 0.38259 0.66072 0.48803 0.0
H325 H 0.36866 0.64888 0.4215 0.0
H326 H 0.31024 0.56038 0.36169 0.0
H327 H 0.35738 0.59126 0.37525 0.0
H328 H 0.28325 0.52707 0.61755 0.0
H329 H 0.3261 0.56235 0.6318 0.0
H330 H 0.22765 0.52251 0.57031 0.0
H331 H 0.22098 0.50483 0.50396 0.0
C332 C 0.90376 0.35108 0.46951 0.0
C333 C 0.91198 0.34708 0.52571 0.0
C334 C 0.9586 0.28356 0.50845 0.0
C335 C 0.94484 0.28478 0.45379 0.0
N336 N 0.92956 0.33306 0.38013 0.0
N337 N 0.95884 0.31961 0.59593 0.0
C338 C 0.92631 0.32351 0.43365 0.0
C339 C 0.94319 0.31636 0.5445 0.0
N340 N 0.87179 0.37794 0.45033 0.0
N341 N 0.98652 0.25176 0.52543 0.0
H342 H 0.94939 0.34452 0.62208 0.0
H343 H 0.9836 0.30013 0.61147 0.0
H344 H 0.00514 0.23349 0.49847 0.0
H345 H 0.99266 0.24472 0.56573 0.0
H346 H 0.86253 0.37851 0.40991 0.0
H347 H 0.85115 0.39586 0.47509 0.0
H348 H 0.91883 0.36246 0.36368 0.0
H349 H 0.94786 0.31349 0.35414 0.0
C350 C 0.19693 0.93384 0.5538 0.0
C351 C 0.1667 0.90188 0.5357 0.0
C352 C 0.18827 0.91699 0.44306 0.0
C353 C 0.22642 0.93781 0.46182 0.0
N354 N 0.26023 0.97859 0.53403 0.0
N355 N 0.13715 0.85959 0.46165 0.0
C356 C 0.22865 0.95044 0.51698 0.0
C357 C 0.16267 0.89302 0.47978 0.0
N358 N 0.19399 0.94956 0.60524 0.0
N359 N 0.17678 0.92014 0.39011 0.0
H360 H 0.12076 0.83835 0.48737 0.0
H361 H 0.13635 0.85005 0.42133 0.0
H362 H 0.19414 0.93997 0.36342 0.0
H363 H 0.14754 0.90777 0.37502 0.0
H364 H 0.21255 0.9754 0.61984 0.0
H365 H 0.17013 0.93921 0.63232 0.0
H366 H 0.26857 0.98296 0.57433 0.0
H367 H 0.27684 0.99915 0.50765 0.0
C368 C 0.45861 0.72699 0.01596 0.0
C369 C 0.4464 0.72279 0.96088 0.0
C370 C 0.40704 0.65587 0.98008 0.0
C371 C 0.41446 0.66219 0.03612 0.0
N372 N 0.45975 0.69393 0.10514 0.0
N373 N 0.43305 0.67127 0.89001 0.0
C374 C 0.4442 0.69483 0.05353 0.0
C375 C 0.42923 0.68269 0.94292 0.0
N376 N 0.48386 0.76117 0.03227 0.0
N377 N 0.37607 0.62735 0.96206 0.0
H378 H 0.45055 0.69055 0.86282 0.0
H379 H 0.42343 0.64092 0.87523 0.0
H380 H 0.35558 0.60992 0.9876 0.0
H381 H 0.36728 0.62489 0.9216 0.0
H382 H 0.48763 0.7703 0.0724 0.0
H383 H 0.50256 0.77939 0.0054 0.0
H384 H 0.48406 0.7146 0.11943 0.0
H385 H 0.45108 0.66967 0.1326 0.0
C386 C 0.82369 0.4127 0.93312 0.0
C387 C 0.78641 0.43705 0.94751 0.0
C388 C 0.812 0.43739 0.04145 0.0
C389 C 0.8409 0.40269 0.0283 0.0
N390 N 0.87155 0.35472 0.9605 0.0
N391 N 0.75475 0.48687 0.01158 0.0
C392 C 0.84665 0.3901 0.97368 0.0
C393 C 0.78354 0.45407 1.00073 0.0
N394 N 0.83738 0.41186 0.88083 0.0
N395 N 0.81301 0.45509 0.09201 0.0
H396 H 0.74061 0.50539 0.98095 0.0
H397 H 0.74628 0.49705 0.05015 0.0
H398 H 0.83454 0.44446 0.12177 0.0
H399 H 0.79471 0.48193 0.10398 0.0
H400 H 0.86633 0.39689 0.86881 0.0
H401 H 0.8226 0.43114 0.85132 0.0
H402 H 0.87335 0.34238 0.92141 0.0
H403 H 0.88656 0.33495 0.98915 0.0
C404 C 0.09021 0.8205 0.94322 0.0
C405 C 0.06601 0.78315 0.95746 0.0
C406 C 0.06499 0.80838 0.05145 0.0
C407 C 0.09948 0.83755 0.0385 0.0
N408 N 0.14732 0.86915 0.97118 0.0
N409 N 0.01493 0.75198 0.02034 0.0
C410 C 0.11223 0.84369 0.98399 0.0
C411 C 0.04835 0.78028 0.01036 0.0
N412 N 0.09145 0.83398 0.89085 0.0
N413 N 0.04769 0.80864 0.10225 0.0
H414 H 0.9969 0.73796 0.98918 0.0
H415 H 0.00343 0.7441 0.05851 0.0
H416 H 0.05842 0.82991 0.13225 0.0
H417 H 0.0215 0.78956 0.11453 0.0
H418 H 0.10638 0.86293 0.87876 0.0
H419 H 0.0725 0.81892 0.86122 0.0
H420 H 0.15992 0.87119 0.93224 0.0
H421 H 0.16673 0.88435 1.00006 0.0
C422 C 0.65191 0.09803 0.99816 0.0
C423 C 0.6567 0.09703 0.05527 0.0
C424 C 0.73041 0.06714 0.04453 0.0
C425 C 0.72488 0.06784 0.98745 0.0
N426 N 0.67406 0.06568 0.91363 0.0
N427 N 0.6946 0.06676 0.13172 0.0
C428 C 0.68317 0.07659 0.96579 0.0
C429 C 0.69408 0.07706 0.07817 0.0
N430 N 0.62028 0.12268 0.97403 0.0
N431 N 0.77027 0.05945 0.06711 0.0
H432 H 0.66791 0.07216 0.15693 0.0
H433 H 0.71942 0.04856 0.14954 0.0
H434 H 0.79747 0.04934 0.04557 0.0
H435 H 0.77683 0.06505 0.10773 0.0
H436 H 0.61844 0.12681 0.93239 0.0
H437 H 0.59949 0.14354 0.99486 0.0
H438 H 0.64294 0.06855 0.89705 0.0
H439 H 0.69652 0.0492 0.88937 0.0
C440 C 0.43459 0.76633 0.48878 0.0
C441 C 0.42937 0.77076 0.54565 0.0
C442 C 0.39897 0.84367 0.53362 0.0
C443 C 0.40321 0.83904 0.47686 0.0
N444 N 0.44106 0.80418 0.40348 0.0
N445 N 0.42575 0.82033 0.6207 0.0
C446 C 0.42642 0.80305 0.45546 0.0
C447 C 0.41838 0.81198 0.56743 0.0
N448 N 0.44449 0.72714 0.4656 0.0
N449 N 0.37363 0.87575 0.5556 0.0
H450 H 0.44128 0.79774 0.64569 0.0
H451 H 0.42118 0.851 0.63792 0.0
H452 H 0.35588 0.89815 0.53298 0.0
H453 H 0.36657 0.87724 0.59665 0.0
H454 H 0.44201 0.72172 0.42425 0.0
H455 H 0.45298 0.69921 0.4867 0.0
H456 H 0.4616 0.78046 0.3873 0.0
H457 H 0.43682 0.83134 0.37867 0.0
C458 C 0.69367 0.40483 0.5496 0.0
C459 C 0.7329 0.42113 0.52729 0.0
C460 C 0.70072 0.41225 0.43714 0.0
C461 C 0.66699 0.38638 0.45982 0.0
N462 N 0.63739 0.35091 0.53915 0.0
N463 N 0.77395 0.44007 0.44664 0.0
C464 C 0.66478 0.38097 0.51656 0.0
C465 C 0.73645 0.42539 0.47014 0.0
N466 N 0.68419 0.412 0.60261 0.0
N467 N 0.69805 0.4255 0.38467 0.0
H468 H 0.80002 0.45329 0.4677 0.0
H469 H 0.77994 0.4373 0.40544 0.0
H470 H 0.67173 0.41772 0.35984 0.0
H471 H 0.7195 0.44798 0.36764 0.0
H472 H 0.65446 0.4032 0.61992 0.0
H473 H 0.70404 0.43137 0.62704 0.0
H474 H 0.63771 0.34368 0.58021 0.0
H475 H 0.61802 0.32976 0.51658 0.0
C476 C 0.10678 0.6574 0.52591 0.0
C477 C 0.10203 0.66298 0.46937 0.0
C478 C 0.06958 0.73491 0.48361 0.0
C479 C 0.07489 0.72942 0.54038 0.0
N480 N 0.08022 0.67851 0.61394 0.0
N481 N 0.06374 0.6988 0.39709 0.0
C482 C 0.08707 0.68808 0.56087 0.0
C483 C 0.07833 0.69905 0.44912 0.0
N484 N 0.13274 0.62525 0.54659 0.0
N485 N 0.05907 0.7744 0.4616 0.0
H486 H 0.06857 0.67233 0.37133 0.0
H487 H 0.04274 0.72245 0.3817 0.0
H488 H 0.0505 0.80191 0.48348 0.0
H489 H 0.06139 0.78065 0.42042 0.0
H490 H 0.14024 0.62308 0.58747 0.0
H491 H 0.15051 0.60351 0.52301 0.0
H492 H 0.08561 0.64761 0.63018 0.0
H493 H 0.06432 0.70016 0.63981 0.0
C494 C 0.76385 0.07028 0.49341 0.0
C495 C 0.76812 0.07684 0.55018 0.0
C496 C 0.83632 0.11645 0.53584 0.0
C497 C 0.83209 0.11043 0.47939 0.0
N498 N 0.80089 0.06813 0.40714 0.0
N499 N 0.8179 0.08825 0.62392 0.0
C500 C 0.7987 0.08302 0.45899 0.0
C501 C 0.80779 0.09372 0.57077 0.0
N502 N 0.72639 0.05406 0.47134 0.0
N503 N 0.8652 0.14608 0.55634 0.0
H504 H 0.79807 0.07013 0.64983 0.0
H505 H 0.84797 0.09713 0.64019 0.0
H506 H 0.88496 0.16581 0.53238 0.0
H507 H 0.86626 0.15419 0.59711 0.0
H508 H 0.71983 0.05556 0.43017 0.0
H509 H 0.70079 0.04076 0.49314 0.0
H510 H 0.77984 0.04451 0.39179 0.0
H511 H 0.82669 0.07565 0.38135 0.0
C512 C 0.46467 0.9716 0.02127 0.0
C513 C 0.4837 0.96708 0.96867 0.0
C514 C 0.4927 0.04673 0.96495 0.0
C515 C 0.48063 0.05061 0.02025 0.0
N516 N 0.43829 0.02007 0.0921 0.0
N517 N 0.52316 1.0005 0.89553 0.0
C518 C 0.46227 0.01374 0.04626 0.0
C519 C 0.49964 0.00474 0.94203 0.0
N520 N 0.44873 0.93587 0.04772 0.0
N521 N 0.49353 0.08267 0.93244 0.0
H522 H 0.53028 0.97033 0.8782 0.0
H523 H 0.53967 0.02648 0.87768 0.0
H524 H 0.4805 0.11257 0.94409 0.0
H525 H 0.49947 0.08105 0.89115 0.0
H526 H 0.4411 0.93545 0.08854 0.0
H527 H 0.44423 0.9056 0.02998 0.0
H528 H 0.42055 0.99591 0.11169 0.0
H529 H 0.43146 0.0511 0.10707 0.0
C530 C 0.47824 0.45946 0.01619 0.0
C531 C 0.47159 0.4998 0.04281 0.0
C532 C 0.53749 0.52927 0.99772 0.0
C533 C 0.54493 0.48828 0.97274 0.0
N534 N 0.52092 0.41312 0.96047 0.0
N535 N 0.49856 0.57208 0.06433 0.0
C536 C 0.51506 0.4534 0.98231 0.0
C537 C 0.50239 0.53434 0.03534 0.0
N538 N 0.44992 0.42565 0.02439 0.0
N539 N 0.56254 0.56421 0.98288 0.0
H540 H 0.47293 0.57866 0.09042 0.0
H541 H 0.52259 0.59601 0.06587 0.0
H542 H 0.5878 0.5619 0.95485 0.0
H543 H 0.55599 0.59626 0.99407 0.0
H544 H 0.45334 0.39549 0.00531 0.0
H545 H 0.42367 0.4274 0.05105 0.0
H546 H 0.54684 0.40457 0.93551 0.0
H547 H 0.54684 0.40457 0.93551 0.0
C548 C 0.98189 0.51129 0.96058 0.0
C549 C 0.01132 0.54323 0.98008 0.0
C550 C 0.0297 0.49511 0.05727 0.0
C551 C 0.00068 0.46294 0.03722 0.0
N552 N 0.954 0.43762 0.96462 0.0
N553 N 0.06107 0.56749 0.04972 0.0
C554 C 0.97829 0.4702 0.98737 0.0
C555 C 0.03454 0.53568 0.02928 0.0
N556 N 0.95494 0.52146 0.91843 0.0
N557 N 0.05501 0.48545 0.10116 0.0
H558 H 0.06896 0.59583 0.02911 0.0
H559 H 0.07417 0.56716 0.08835 0.0
H560 H 0.05299 0.45591 0.12183 0.0
H561 H 0.08042 0.50479 0.11521 0.0
H562 H 0.92863 0.50234 0.90642 0.0
H563 H 0.95603 0.5513 0.8983 0.0
H564 H 0.94233 0.43855 0.92526 0.0
H565 H 0.94771 0.40792 0.983 0.0
C566 C 0.02466 0.03446 0.02713 0.0
C567 C 0.03382 0.99388 0.05214 0.0
C568 C 0.96956 0.96135 0.0069 0.0
C569 C 0.96045 0.00193 0.98191 0.0
N570 N 0.98298 0.07591 0.96179 0.0
N571 N 0.01172 0.91959 0.07147 0.0
C572 C 0.98909 0.03812 0.9901 0.0
C573 C 0.00531 0.95759 0.04369 0.0
N574 N 0.04854 0.07032 0.04162 0.0
N575 N 0.94546 0.92558 0.99259 0.0
H576 H 0.03789 0.91407 0.09706 0.0
H577 H 0.98947 0.894 0.07249 0.0
H578 H 0.91987 0.92706 0.96494 0.0
H579 H 0.95284 0.89375 1.00382 0.0
H580 H 0.04097 0.10212 0.03039 0.0
H581 H 0.07401 0.06898 0.06945 0.0
H582 H 0.0053 0.10144 0.96079 0.0
H583 H 0.95719 0.08113 0.93551 0.0
C584 C 0.52077 0.50198 0.5627 0.0
C585 C 0.49292 0.53485 0.54182 0.0
C586 C 0.4712 0.48465 0.46827 0.0
C587 C 0.50213 0.45355 0.48614 0.0
N588 N 0.56229 0.43637 0.54564 0.0
N589 N 0.44572 0.55917 0.46911 0.0
C590 C 0.52828 0.46307 0.53234 0.0
C591 C 0.46957 0.52678 0.49283 0.0
N592 N 0.5406 0.50797 0.61149 0.0
N593 N 0.4416 0.47319 0.42953 0.0
H594 H 0.441 0.58978 0.48588 0.0
H595 H 0.43304 0.55684 0.43029 0.0
H596 H 0.44117 0.44251 0.41139 0.0
H597 H 0.41476 0.49227 0.41926 0.0
H598 H 0.55631 0.48305 0.63239 0.0
H599 H 0.53924 0.53722 0.63282 0.0
H600 H 0.58586 0.44437 0.57418 0.0
H601 H 0.56959 0.40788 0.52497 0.0
C602 C 0.99583 0.51439 0.43815 0.0
C603 C 0.03583 0.49887 0.45996 0.0
C604 C 0.00175 0.49736 0.54998 0.0
C605 C 0.96159 0.51243 0.52827 0.0
N606 N 0.92759 0.55168 0.45552 0.0
N607 N 0.0684 0.45783 0.53238 0.0
C608 C 0.96066 0.52558 0.47332 0.0
C609 C 0.03639 0.48527 0.51473 0.0
N610 N 0.98981 0.51487 0.38366 0.0
N611 N 0.00843 0.49784 0.60434 0.0
H612 H 0.09092 0.4437 0.50615 0.0
H613 H 0.0684 0.444 0.57075 0.0
H614 H 0.98674 0.51276 0.6309 0.0
H615 H 0.03834 0.49018 0.62191 0.0
H616 H 0.96012 0.52259 0.36562 0.0
H617 H 0.01201 0.50077 0.35707 0.0
H618 H 0.92702 0.56554 0.41719 0.0
H619 H 0.90425 0.5646 0.48161 0.0
C620 C 0.97569 0.99382 0.55517 0.0
C621 C 0.00489 0.96192 0.53492 0.0
C622 C 0.02278 0.01057 0.45806 0.0
C623 C 0.99365 0.04247 0.47841 0.0
N624 N 0.94612 0.06697 0.55032 0.0
N625 N 0.0529 0.93768 0.4632 0.0
C626 C 0.97127 0.03481 0.52814 0.0
C627 C 0.0274 0.96965 0.48522 0.0
N628 N 0.94973 0.98363 0.59827 0.0
N629 N 0.04851 0.02074 0.41473 0.0
H630 H 0.06063 0.90876 0.48262 0.0
H631 H 0.06482 0.9384 0.42397 0.0
H632 H 0.04651 0.05041 0.39432 0.0
H633 H 0.07448 0.00177 0.4014 0.0
H634 H 0.92379 0.0027 0.61147 0.0
H635 H 0.95144 0.95385 0.61847 0.0
H636 H 0.93412 0.0662 0.58951 0.0
H637 H 0.93903 0.09614 0.53107 0.0
C638 C 0.49666 0.00968 0.56649 0.0
C639 C 0.53732 0.99398 0.54696 0.0
C640 C 0.5057 0.9902 0.45557 0.0
C641 C 0.46509 0.006 0.47516 0.0
N642 N 0.42999 0.04798 0.54482 0.0
N643 N 0.5728 0.95248 0.47715 0.0
C644 C 0.46287 0.02066 0.52944 0.0
C645 C 0.53966 0.97947 0.4926 0.0
N646 N 0.48867 0.01068 0.62058 0.0
N647 N 0.51349 0.98889 0.40145 0.0
H648 H 0.59505 0.93964 0.50471 0.0
H649 H 0.57424 0.9378 0.43932 0.0
H650 H 0.49228 0.00275 0.37348 0.0
H651 H 0.54374 0.98081 0.38511 0.0
H652 H 0.45835 0.01875 0.63675 0.0
H653 H 0.50971 0.99658 0.64856 0.0
H654 H 0.42874 0.06271 0.58264 0.0
H655 H 0.40784 0.06097 0.51725 0.0
C656 C 0.49008 0.2409 0.30708 0.0
C657 C 0.4989 0.28533 0.2938 0.0
C658 C 0.49666 0.26512 0.19749 0.0
C659 C 0.49623 0.21993 0.21109 0.0
N660 N 0.49327 0.16473 0.28004 0.0
N661 N 0.51216 0.33944 0.22534 0.0
C662 C 0.49309 0.20791 0.26631 0.0
C663 C 0.50263 0.29723 0.23866 0.0
N664 N 0.47816 0.22998 0.35837 0.0
N665 N 0.49021 0.27775 0.14542 0.0
H666 H 0.51316 0.36463 0.25357 0.0
H667 H 0.52138 0.34907 0.18673 0.0
H668 H 0.48345 0.25573 0.11488 0.0
H669 H 0.48631 0.31009 0.13355 0.0
H670 H 0.46727 0.19907 0.36932 0.0
H671 H 0.47507 0.25262 0.38928 0.0
H672 H 0.49701 0.15361 0.31942 0.0
H673 H 0.49182 0.13972 0.25161 0.0
C674 C 0.23134 0.56216 0.25847 0.0
C675 C 0.21205 0.52294 0.27722 0.0
C676 C 0.27601 0.48321 0.24027 0.0
C677 C 0.29609 0.52362 0.22605 0.0
N678 N 0.2996 0.59966 0.25171 0.0
N679 N 0.21025 0.44474 0.26863 0.0
C680 C 0.27587 0.56261 0.24387 0.0
C681 C 0.23297 0.48285 0.26367 0.0
N682 N 0.20678 0.59863 0.25031 0.0
N683 N 0.29956 0.44557 0.23592 0.0
H684 H 0.17734 0.44403 0.27911 0.0
H685 H 0.22176 0.41462 0.25562 0.0
H686 H 0.33243 0.44547 0.22517 0.0
H687 H 0.28876 0.41536 0.24953 0.0
H688 H 0.21986 0.62707 0.23377 0.0
H689 H 0.17279 0.59806 0.25164 0.0
H690 H 0.28579 0.62802 0.26753 0.0
H691 H 0.33359 0.59967 0.25128 0.0
C692 C 0.01518 0.27496 0.24729 0.0
C693 C 0.97496 0.29407 0.23044 0.0
C694 C 0.93648 0.22928 0.26341 0.0
C695 C 0.97543 0.21106 0.28454 0.0
N696 N 0.05382 0.21031 0.27887 0.0
N697 N 0.89809 0.29667 0.25202 0.0
C698 C 0.01554 0.23234 0.27189 0.0
C699 C 0.93576 0.27344 0.24691 0.0
N700 N 0.05253 0.29912 0.24429 0.0
N701 N 0.90052 0.20396 0.25527 0.0
H702 H 0.89753 0.33063 0.25018 0.0
H703 H 0.86945 0.2828 0.267 0.0
H704 H 0.90141 0.17008 0.25885 0.0
H705 H 0.87236 0.21599 0.23689 0.0
H706 H 0.08238 0.2891 0.2599 0.0
H707 H 0.05247 0.3318 0.23272 0.0
H708 H 0.08405 0.22207 0.26656 0.0
H709 H 0.05477 0.17759 0.29015 0.0
C710 C 0.27687 0.94038 0.26572 0.0
C711 C 0.29343 0.98 0.28693 0.0
C712 C 0.22705 0.0168 0.25218 0.0
C713 C 0.20965 0.97572 0.23567 0.0
N714 N 0.21126 0.89874 0.25687 0.0
N715 N 0.29017 0.05837 0.2829 0.0
C716 C 0.23247 0.93751 0.25106 0.0
C717 C 0.26998 0.01911 0.27565 0.0
N718 N 0.30382 0.90593 0.25586 0.0
N719 N 0.20108 0.05293 0.24987 0.0
H720 H 0.32299 0.0608 0.2934 0.0
H721 H 0.27669 0.08816 0.27172 0.0
H722 H 0.16827 0.05128 0.23905 0.0
H723 H 0.2099 0.08328 0.26513 0.0
H724 H 0.29273 0.87734 0.23757 0.0
H725 H 0.33769 0.90861 0.25799 0.0
H726 H 0.22697 0.87075 0.2709 0.0
H727 H 0.17733 0.89657 0.25677 0.0
C728 C 0.5131 0.77079 0.76847 0.0
C729 C 0.47294 0.79165 0.78198 0.0
C730 C 0.43342 0.72791 0.74808 0.0
C731 C 0.47244 0.70775 0.73029 0.0
N732 N 0.55044 0.70418 0.74081 0.0
N733 N 0.39728 0.79691 0.75514 0.0
C734 C 0.51281 0.72776 0.74492 0.0
C735 C 0.43381 0.77236 0.76298 0.0
N736 N 0.55119 0.79349 0.77363 0.0
N737 N 0.39634 0.70412 0.75551 0.0
H738 H 0.39771 0.83088 0.75743 0.0
H739 H 0.36889 0.78395 0.73832 0.0
H740 H 0.39623 0.67013 0.75415 0.0
H741 H 0.36795 0.71778 0.77145 0.0
H742 H 0.58135 0.78195 0.76077 0.0
H743 H 0.55191 0.82642 0.78396 0.0
H744 H 0.5806 0.71496 0.75465 0.0
H745 H 0.55056 0.6713 0.73017 0.0
C746 C 0.76981 0.52304 0.73225 0.0
C747 C 0.78965 0.48305 0.71537 0.0
C748 C 0.72622 0.44371 0.74913 0.0
C749 C 0.70868 0.48153 0.7737 0.0
N750 N 0.71141 0.55991 0.78139 0.0
N751 N 0.79395 0.40635 0.73814 0.0
C752 C 0.72986 0.52219 0.76318 0.0
C753 C 0.77018 0.44361 0.73276 0.0
N754 N 0.78978 0.56166 0.72033 0.0
N755 N 0.70089 0.40808 0.73915 0.0
H756 H 0.82794 0.40645 0.73704 0.0
H757 H 0.78024 0.37751 0.7528 0.0
H758 H 0.66704 0.40879 0.74341 0.0
H759 H 0.71308 0.38061 0.71935 0.0
H760 H 0.77507 0.59204 0.72438 0.0
H761 H 0.82207 0.56332 0.70739 0.0
H762 H 0.72735 0.58985 0.78242 0.0
H763 H 0.67907 0.56149 0.7941 0.0
C764 C 0.98409 0.77332 0.74385 0.0
C765 C 0.02469 0.79254 0.72809 0.0
C766 C 0.06231 0.72765 0.76097 0.0
C767 C 0.02374 0.71027 0.78397 0.0
N768 N 0.94531 0.71433 0.78965 0.0
N769 N 0.10123 0.79479 0.75194 0.0
C770 C 0.98369 0.73256 0.77324 0.0
C771 C 0.06348 0.7719 0.74568 0.0
N772 N 0.94611 0.79458 0.73233 0.0
N773 N 0.09759 0.70184 0.75098 0.0
H774 H 0.10208 0.82877 0.75056 0.0
H775 H 0.12956 0.78035 0.767 0.0
H776 H 0.09617 0.66794 0.75408 0.0
H777 H 0.12554 0.71385 0.73204 0.0
H778 H 0.9153 0.78064 0.7355 0.0
H779 H 0.9454 0.82729 0.72095 0.0
H780 H 0.91562 0.7307 0.79045 0.0
H781 H 0.94291 0.68168 0.80089 0.0
C782 C 0.72347 0.98096 0.75599 0.0
C783 C 0.70531 0.02155 0.73899 0.0
C784 C 0.76907 0.05919 0.77516 0.0
C785 C 0.78635 0.01994 0.79662 0.0
N786 N 0.78647 0.94149 0.79093 0.0
N787 N 0.70224 0.09809 0.76231 0.0
C788 C 0.76513 0.98003 0.78286 0.0
C789 C 0.7254 0.06038 0.75734 0.0
N790 N 0.69921 0.94385 0.75064 0.0
N791 N 0.79492 0.09484 0.7674 0.0
H792 H 0.66833 0.09884 0.75925 0.0
H793 H 0.71594 0.12645 0.77828 0.0
H794 H 0.82878 0.09348 0.77097 0.0
H795 H 0.78333 0.12319 0.74903 0.0
H796 H 0.70842 0.91361 0.76587 0.0
H797 H 0.66705 0.94437 0.73705 0.0
H798 H 0.77473 0.91134 0.7783 0.0
H799 H 0.81879 0.94012 0.80376 0.0
loop_
_geom_bond_atom_site_label_1
_geom_bond_atom_site_label_2
_geom_bond_distance
_geom_bond_site_symmetry_2
_ccdc_geom_bond_type
Co0 O1 2.216 . S
Co0 O2 2.091 . S
Co0 O4 2.004 . S
Co0 O10 2.021 . S
Co0 O12 2.137 . S
Co0 O13 2.244 . S
O1 Co0 2.216 . S
O1 C8 1.247 . S
O2 Co0 2.091 . S
O2 C8 1.261 . S
C3 O12 1.247 . S
C3 O13 1.272 . S
O4 Co0 2.004 . S
O4 C9 1.259 . S
Co5 O6 2.061 . S
Co5 O11 2.052 . S
Co5 O13 2.135 . S
O6 Co5 2.061 . S
O6 C9 1.235 . S
C7 O10 1.238 . S
C7 O11 1.241 . S
C8 O1 1.247 . S
C8 O2 1.261 . S
C9 O4 1.259 . S
C9 O6 1.235 . S
O10 Co0 2.021 . S
O10 C7 1.238 . S
O11 Co5 2.052 . S
O11 C7 1.241 . S
O12 Co0 2.137 . S
O12 C3 1.247 . S
O13 Co0 2.244 . S
O13 C3 1.272 . S
O13 Co5 2.135 . S
Co14 O15 2.216 . S
Co14 O16 2.091 . S
Co14 O18 2.004 . S
Co14 O24 2.021 . S
Co14 O26 2.137 . S
Co14 O27 2.244 . S
O15 Co14 2.216 . S
O15 C22 1.247 . S
O16 Co14 2.091 . S
O16 C22 1.261 . S
C17 O26 1.247 . S
C17 O27 1.272 . S
O18 Co14 2.004 . S
O18 C23 1.259 . S
Co19 O20 2.061 . S
Co19 O25 2.052 . S
Co19 O27 2.135 . S
O20 Co19 2.061 . S
O20 C23 1.235 . S
C21 O24 1.238 . S
C21 O25 1.241 . S
C22 O15 1.247 . S
C22 O16 1.261 . S
C23 O18 1.259 . S
C23 O20 1.235 . S
O24 Co14 2.021 . S
O24 C21 1.238 . S
O25 Co19 2.052 . S
O25 C21 1.241 . S
O26 Co14 2.137 . S
O26 C17 1.247 . S
O27 Co14 2.244 . S
O27 C17 1.272 . S
O27 Co19 2.135 . S
Co28 O29 2.216 . S
Co28 O30 2.091 1_655 S
Co28 O32 2.004 . S
Co28 O38 2.021 . S
Co28 O40 2.137 1_655 S
Co28 O41 2.244 . S
O29 Co28 2.216 . S
O29 C36 1.247 1_655 S
O30 Co28 2.091 1_455 S
O30 C36 1.261 . S
C31 O40 1.247 1_655 S
C31 O41 1.272 . S
O32 Co28 2.004 . S
O32 C37 1.259 . S
Co33 O34 2.061 . S
Co33 O39 2.052 . S
Co33 O41 2.135 . S
O34 Co33 2.061 . S
O34 C37 1.235 . S
C35 O38 1.238 . S
C35 O39 1.241 . S
C36 O29 1.247 1_455 S
C36 O30 1.261 . S
C37 O32 1.259 . S
C37 O34 1.235 . S
O38 Co28 2.021 . S
O38 C35 1.238 . S
O39 Co33 2.052 . S
O39 C35 1.241 . S
O40 Co28 2.137 1_455 S
O40 C31 1.247 1_455 S
O41 Co28 2.244 . S
O41 C31 1.272 . S
O41 Co33 2.135 . S
Co42 O43 2.216 . S
Co42 O44 2.091 1_565 S
Co42 O46 2.004 . S
Co42 O52 2.021 . S
Co42 O54 2.137 1_565 S
Co42 O55 2.244 . S
O43 Co42 2.216 . S
O43 C50 1.247 1_565 S
O44 Co42 2.091 1_545 S
O44 C50 1.261 . S
C45 O54 1.247 1_565 S
C45 O55 1.272 . S
O46 Co42 2.004 . S
O46 C51 1.259 . S
Co47 O48 2.061 . S
Co47 O53 2.052 . S
Co47 O55 2.135 . S
O48 Co47 2.061 . S
O48 C51 1.235 . S
C49 O52 1.238 . S
C49 O53 1.241 . S
C50 O43 1.247 1_545 S
C50 O44 1.261 . S
C51 O46 1.259 . S
C51 O48 1.235 . S
O52 Co42 2.021 . S
O52 C49 1.238 . S
O53 Co47 2.052 . S
O53 C49 1.241 . S
O54 Co42 2.137 1_545 S
O54 C45 1.247 1_545 S
O55 Co42 2.244 . S
O55 C45 1.272 . S
O55 Co47 2.135 . S
Co56 O57 2.216 . S
Co56 O58 2.091 . S
Co56 O60 2.004 . S
Co56 O66 2.021 . S
Co56 O68 2.137 . S
Co56 O69 2.244 . S
O57 Co56 2.216 . S
O57 C64 1.247 . S
O58 Co56 2.091 . S
O58 C64 1.261 . S
C59 O68 1.247 . S
C59 O69 1.272 . S
O60 Co56 2.004 . S
O60 C65 1.259 . S
Co61 O62 2.061 . S
Co61 O67 2.052 . S
Co61 O69 2.135 . S
O62 Co61 2.061 . S
O62 C65 1.235 . S
C63 O66 1.238 . S
C63 O67 1.241 . S
C64 O57 1.247 . S
C64 O58 1.261 . S
C65 O60 1.259 . S
C65 O62 1.235 . S
O66 Co56 2.021 . S
O66 C63 1.238 . S
O67 Co61 2.052 . S
O67 C63 1.241 . S
O68 Co56 2.137 . S
O68 C59 1.247 . S
O69 Co56 2.244 . S
O69 C59 1.272 . S
O69 Co61 2.135 . S
Co70 O71 2.216 . S
Co70 O72 2.091 . S
Co70 O74 2.004 . S
Co70 O80 2.021 . S
Co70 O82 2.137 . S
Co70 O83 2.244 . S
O71 Co70 2.216 . S
O71 C78 1.247 . S
O72 Co70 2.091 . S
O72 C78 1.261 . S
C73 O82 1.247 . S
C73 O83 1.272 . S
O74 Co70 2.004 . S
O74 C79 1.259 . S
Co75 O76 2.061 . S
Co75 O81 2.052 . S
Co75 O83 2.135 . S
O76 Co75 2.061 . S
O76 C79 1.235 . S
C77 O80 1.238 . S
C77 O81 1.241 . S
C78 O71 1.247 . S
C78 O72 1.261 . S
C79 O74 1.259 . S
C79 O76 1.235 . S
O80 Co70 2.021 . S
O80 C77 1.238 . S
O81 Co75 2.052 . S
O81 C77 1.241 . S
O82 Co70 2.137 . S
O82 C73 1.247 . S
O83 Co70 2.244 . S
O83 C73 1.272 . S
O83 Co75 2.135 . S
Co84 O85 2.216 . S
Co84 O86 2.091 1_655 S
Co84 O88 2.004 . S
Co84 O94 2.021 . S
Co84 O96 2.137 1_655 S
Co84 O97 2.244 . S
O85 Co84 2.216 . S
O85 C92 1.247 1_655 S
O86 Co84 2.091 1_455 S
O86 C92 1.261 . S
C87 O96 1.247 1_655 S
C87 O97 1.272 . S
O88 Co84 2.004 . S
O88 C93 1.259 . S
Co89 O90 2.061 . S
Co89 O95 2.052 . S
Co89 O97 2.135 . S
O90 Co89 2.061 . S
O90 C93 1.235 . S
C91 O94 1.238 . S
C91 O95 1.241 . S
C92 O85 1.247 1_455 S
C92 O86 1.261 . S
C93 O88 1.259 . S
C93 O90 1.235 . S
O94 Co84 2.021 . S
O94 C91 1.238 . S
O95 Co89 2.052 . S
O95 C91 1.241 . S
O96 Co84 2.137 1_455 S
O96 C87 1.247 1_455 S
O97 Co84 2.244 . S
O97 C87 1.272 . S
O97 Co89 2.135 . S
Co98 O99 2.216 . S
Co98 O100 2.091 1_565 S
Co98 O102 2.004 . S
Co98 O108 2.021 . S
Co98 O110 2.137 1_565 S
Co98 O111 2.244 . S
O99 Co98 2.216 . S
O99 C106 1.247 1_565 S
O100 Co98 2.091 1_545 S
O100 C106 1.261 . S
C101 O110 1.247 1_565 S
C101 O111 1.272 . S
O102 Co98 2.004 . S
O102 C107 1.259 . S
Co103 O104 2.061 . S
Co103 O109 2.052 . S
Co103 O111 2.135 . S
O104 Co103 2.061 . S
O104 C107 1.235 . S
C105 O108 1.238 . S
C105 O109 1.241 . S
C106 O99 1.247 1_545 S
C106 O100 1.261 . S
C107 O102 1.259 . S
C107 O104 1.235 . S
O108 Co98 2.021 . S
O108 C105 1.238 . S
O109 Co103 2.052 . S
O109 C105 1.241 . S
O110 Co98 2.137 1_545 S
O110 C101 1.247 1_545 S
O111 Co98 2.244 . S
O111 C101 1.272 . S
O111 Co103 2.135 . S
Co112 O113 2.216 . S
Co112 O114 2.091 . S
Co112 O116 2.004 . S
Co112 O122 2.021 . S
Co112 O124 2.137 . S
Co112 O125 2.244 . S
O113 Co112 2.216 . S
O113 C120 1.247 . S
O114 Co112 2.091 . S
O114 C120 1.261 . S
C115 O124 1.247 . S
C115 O125 1.272 . S
O116 Co112 2.004 . S
O116 C121 1.259 . S
Co117 O118 2.061 . S
Co117 O123 2.052 . S
Co117 O125 2.135 . S
O118 Co117 2.061 . S
O118 C121 1.235 . S
C119 O122 1.238 . S
C119 O123 1.241 . S
C120 O113 1.247 . S
C120 O114 1.261 . S
C121 O116 1.259 . S
C121 O118 1.235 . S
O122 Co112 2.021 . S
O122 C119 1.238 . S
O123 Co117 2.052 . S
O123 C119 1.241 . S
O124 Co112 2.137 . S
O124 C115 1.247 . S
O125 Co112 2.244 . S
O125 C115 1.272 . S
O125 Co117 2.135 . S
Co126 O127 2.216 . S
Co126 O128 2.091 . S
Co126 O130 2.004 . S
Co126 O136 2.021 . S
Co126 O138 2.137 . S
Co126 O139 2.244 . S
O127 Co126 2.216 . S
O127 C134 1.247 . S
O128 Co126 2.091 . S
O128 C134 1.261 . S
C129 O138 1.247 . S
C129 O139 1.272 . S
O130 Co126 2.004 . S
O130 C135 1.259 . S
Co131 O132 2.061 . S
Co131 O137 2.052 . S
Co131 O139 2.135 . S
O132 Co131 2.061 . S
O132 C135 1.235 . S
C133 O136 1.238 . S
C133 O137 1.241 . S
C134 O127 1.247 . S
C134 O128 1.261 . S
C135 O130 1.259 . S
C135 O132 1.235 . S
O136 Co126 2.021 . S
O136 C133 1.238 . S
O137 Co131 2.052 . S
O137 C133 1.241 . S
O138 Co126 2.137 . S
O138 C129 1.247 . S
O139 Co126 2.244 . S
O139 C129 1.272 . S
O139 Co131 2.135 . S
Co140 O141 2.216 . S
Co140 O142 2.091 1_455 S
Co140 O144 2.004 . S
Co140 O150 2.021 . S
Co140 O152 2.137 1_455 S
Co140 O153 2.244 . S
O141 Co140 2.216 . S
O141 C148 1.247 1_455 S
O142 Co140 2.091 1_655 S
O142 C148 1.261 . S
C143 O152 1.247 1_455 S
C143 O153 1.272 . S
O144 Co140 2.004 . S
O144 C149 1.259 . S
Co145 O146 2.061 . S
Co145 O151 2.052 . S
Co145 O153 2.135 . S
O146 Co145 2.061 . S
O146 C149 1.235 . S
C147 O150 1.238 . S
C147 O151 1.241 . S
C148 O141 1.247 1_655 S
C148 O142 1.261 . S
C149 O144 1.259 . S
C149 O146 1.235 . S
O150 Co140 2.021 . S
O150 C147 1.238 . S
O151 Co145 2.052 . S
O151 C147 1.241 . S
O152 Co140 2.137 1_655 S
O152 C143 1.247 1_655 S
O153 Co140 2.244 . S
O153 C143 1.272 . S
O153 Co145 2.135 . S
Co154 O155 2.216 . S
Co154 O156 2.091 1_545 S
Co154 O158 2.004 . S
Co154 O164 2.021 . S
Co154 O166 2.137 1_545 S
Co154 O167 2.244 . S
O155 Co154 2.216 . S
O155 C162 1.247 1_545 S
O156 Co154 2.091 1_565 S
O156 C162 1.261 . S
C157 O166 1.247 1_545 S
C157 O167 1.272 . S
O158 Co154 2.004 . S
O158 C163 1.259 . S
Co159 O160 2.061 . S
Co159 O165 2.052 . S
Co159 O167 2.135 . S
O160 Co159 2.061 . S
O160 C163 1.235 . S
C161 O164 1.238 . S
C161 O165 1.241 . S
C162 O155 1.247 1_565 S
C162 O156 1.261 . S
C163 O158 1.259 . S
C163 O160 1.235 . S
O164 Co154 2.021 . S
O164 C161 1.238 . S
O165 Co159 2.052 . S
O165 C161 1.241 . S
O166 Co154 2.137 1_565 S
O166 C157 1.247 1_565 S
O167 Co154 2.244 . S
O167 C157 1.272 . S
O167 Co159 2.135 . S
Co168 O169 2.216 . S
Co168 O170 2.091 . S
Co168 O172 2.004 . S
Co168 O178 2.021 . S
Co168 O180 2.137 . S
Co168 O181 2.244 . S
O169 Co168 2.216 . S
O169 C176 1.247 . S
O170 Co168 2.091 . S
O170 C176 1.261 . S
C171 O180 1.247 . S
C171 O181 1.272 . S
O172 Co168 2.004 . S
O172 C177 1.259 . S
Co173 O174 2.061 . S
Co173 O179 2.052 . S
Co173 O181 2.135 . S
O174 Co173 2.061 . S
O174 C177 1.235 . S
C175 O178 1.238 . S
C175 O179 1.241 . S
C176 O169 1.247 . S
C176 O170 1.261 . S
C177 O172 1.259 . S
C177 O174 1.235 . S
O178 Co168 2.021 . S
O178 C175 1.238 . S
O179 Co173 2.052 . S
O179 C175 1.241 . S
O180 Co168 2.137 . S
O180 C171 1.247 . S
O181 Co168 2.244 . S
O181 C171 1.272 . S
O181 Co173 2.135 . S
Co182 O183 2.216 . S
Co182 O184 2.091 . S
Co182 O186 2.004 . S
Co182 O192 2.021 . S
Co182 O194 2.137 . S
Co182 O195 2.244 . S
O183 Co182 2.216 . S
O183 C190 1.247 . S
O184 Co182 2.091 . S
O184 C190 1.261 . S
C185 O194 1.247 . S
C185 O195 1.272 . S
O186 Co182 2.004 . S
O186 C191 1.259 . S
Co187 O188 2.061 . S
Co187 O193 2.052 . S
Co187 O195 2.135 . S
O188 Co187 2.061 . S
O188 C191 1.235 . S
C189 O192 1.238 . S
C189 O193 1.241 . S
C190 O183 1.247 . S
C190 O184 1.261 . S
C191 O186 1.259 . S
C191 O188 1.235 . S
O192 Co182 2.021 . S
O192 C189 1.238 . S
O193 Co187 2.052 . S
O193 C189 1.241 . S
O194 Co182 2.137 . S
O194 C185 1.247 . S
O195 Co182 2.244 . S
O195 C185 1.272 . S
O195 Co187 2.135 . S
Co196 O197 2.216 . S
Co196 O198 2.091 1_455 S
Co196 O200 2.004 . S
Co196 O206 2.021 . S
Co196 O208 2.137 1_455 S
Co196 O209 2.244 . S
O197 Co196 2.216 . S
O197 C204 1.247 1_455 S
O198 Co196 2.091 1_655 S
O198 C204 1.261 . S
C199 O208 1.247 1_455 S
C199 O209 1.272 . S
O200 Co196 2.004 . S
O200 C205 1.259 . S
Co201 O202 2.061 . S
Co201 O207 2.052 . S
Co201 O209 2.135 . S
O202 Co201 2.061 . S
O202 C205 1.235 . S
C203 O206 1.238 . S
C203 O207 1.241 . S
C204 O197 1.247 1_655 S
C204 O198 1.261 . S
C205 O200 1.259 . S
C205 O202 1.235 . S
O206 Co196 2.021 . S
O206 C203 1.238 . S
O207 Co201 2.052 . S
O207 C203 1.241 . S
O208 Co196 2.137 1_655 S
O208 C199 1.247 1_655 S
O209 Co196 2.244 . S
O209 C199 1.272 . S
O209 Co201 2.135 . S
Co210 O211 2.216 . S
Co210 O212 2.091 1_545 S
Co210 O214 2.004 . S
Co210 O220 2.021 . S
Co210 O222 2.137 1_545 S
Co210 O223 2.244 . S
O211 Co210 2.216 . S
O211 C218 1.247 1_545 S
O212 Co210 2.091 1_565 S
O212 C218 1.261 . S
C213 O222 1.247 1_545 S
C213 O223 1.272 . S
O214 Co210 2.004 . S
O214 C219 1.259 . S
Co215 O216 2.061 . S
Co215 O221 2.052 . S
Co215 O223 2.135 . S
O216 Co215 2.061 . S
O216 C219 1.235 . S
C217 O220 1.238 . S
C217 O221 1.241 . S
C218 O211 1.247 1_565 S
C218 O212 1.261 . S
C219 O214 1.259 . S
C219 O216 1.235 . S
O220 Co210 2.021 . S
O220 C217 1.238 . S
O221 Co215 2.052 . S
O221 C217 1.241 . S
O222 Co210 2.137 1_565 S
O222 C213 1.247 1_565 S
O223 Co210 2.244 . S
O223 C213 1.272 . S
O223 Co215 2.135 . S
C224 C225 1.363 . S
C224 C230 1.379 . S
C224 N232 1.356 . S
C225 C224 1.363 . S
C225 C231 1.363 1_556 S
C226 C227 1.363 1_554 S
C226 C231 1.379 . S
C226 N233 1.356 . S
C227 C226 1.363 1_556 S
C227 C230 1.363 . S
N228 C230 1.356 . S
N228 H240 0.984 . S
N228 H241 0.985 . S
N229 C231 1.356 . S
N229 H234 0.984 . S
N229 H235 0.985 . S
C230 C224 1.379 . S
C230 C227 1.363 . S
C230 N228 1.356 . S
C231 C225 1.363 1_554 S
C231 C226 1.379 . S
C231 N229 1.356 . S
N232 C224 1.356 . S
N232 H238 0.984 . S
N232 H239 0.984 . S
N233 C226 1.356 . S
N233 H236 0.984 . S
N233 H237 0.985 . S
H234 N229 0.984 . S
H235 N229 0.985 . S
H236 N233 0.984 . S
H237 N233 0.985 . S
H238 N232 0.984 . S
H239 N232 0.984 . S
H240 N228 0.984 . S
H241 N228 0.985 . S
C242 C243 1.363 . S
C242 C248 1.379 . S
C242 N250 1.356 . S
C243 C242 1.363 . S
C243 C249 1.363 1_556 S
C244 C245 1.363 1_554 S
C244 C249 1.379 . S
C244 N251 1.356 . S
C245 C244 1.363 1_556 S
C245 C248 1.363 . S
N246 C248 1.356 . S
N246 H258 0.984 . S
N246 H259 0.985 . S
N247 C249 1.356 . S
N247 H252 0.984 . S
N247 H253 0.985 . S
C248 C242 1.379 . S
C248 C245 1.363 . S
C248 N246 1.356 . S
C249 C243 1.363 1_554 S
C249 C244 1.379 . S
C249 N247 1.356 . S
N250 C242 1.356 . S
N250 H256 0.984 . S
N250 H257 0.984 . S
N251 C244 1.356 . S
N251 H254 0.984 . S
N251 H255 0.985 . S
H252 N247 0.984 . S
H253 N247 0.985 . S
H254 N251 0.984 . S
H255 N251 0.985 . S
H256 N250 0.984 . S
H257 N250 0.984 . S
H258 N246 0.984 . S
H259 N246 0.985 . S
C260 C261 1.363 1_554 S
C260 C266 1.379 . S
C260 N268 1.356 . S
C261 C260 1.363 1_556 S
C261 C267 1.363 . S
C262 C263 1.363 . S
C262 C267 1.379 . S
C262 N269 1.356 . S
C263 C262 1.363 . S
C263 C266 1.363 1_556 S
N264 C266 1.356 . S
N264 H276 0.984 . S
N264 H277 0.985 . S
N265 C267 1.356 . S
N265 H270 0.984 . S
N265 H271 0.985 . S
C266 C260 1.379 . S
C266 C263 1.363 1_554 S
C266 N264 1.356 . S
C267 C261 1.363 . S
C267 C262 1.379 . S
C267 N265 1.356 . S
N268 C260 1.356 . S
N268 H274 0.984 . S
N268 H275 0.984 . S
N269 C262 1.356 . S
N269 H272 0.984 . S
N269 H273 0.985 . S
H270 N265 0.984 . S
H271 N265 0.985 . S
H272 N269 0.984 . S
H273 N269 0.985 . S
H274 N268 0.984 . S
H275 N268 0.984 . S
H276 N264 0.984 . S
H277 N264 0.985 . S
C278 C279 1.363 . S
C278 C284 1.379 . S
C278 N286 1.356 . S
C279 C278 1.363 . S
C279 C285 1.363 1_556 S
C280 C281 1.363 1_554 S
C280 C285 1.379 . S
C280 N287 1.356 . S
C281 C280 1.363 1_556 S
C281 C284 1.363 . S
N282 C284 1.356 . S
N282 H294 0.984 . S
N282 H295 0.985 . S
N283 C285 1.356 . S
N283 H288 0.984 . S
N283 H289 0.985 . S
C284 C278 1.379 . S
C284 C281 1.363 . S
C284 N282 1.356 . S
C285 C279 1.363 1_554 S
C285 C280 1.379 . S
C285 N283 1.356 . S
N286 C278 1.356 . S
N286 H292 0.984 . S
N286 H293 0.984 . S
N287 C280 1.356 . S
N287 H290 0.984 . S
N287 H291 0.985 . S
H288 N283 0.984 . S
H289 N283 0.985 . S
H290 N287 0.984 . S
H291 N287 0.985 . S
H292 N286 0.984 . S
H293 N286 0.984 . S
H294 N282 0.984 . S
H295 N282 0.985 . S
C296 C297 1.363 . S
C296 C302 1.379 . S
C296 N304 1.356 . S
C297 C296 1.363 . S
C297 C303 1.363 . S
C298 C299 1.363 . S
C298 C303 1.379 . S
C298 N305 1.356 . S
C299 C298 1.363 . S
C299 C302 1.363 . S
N300 C302 1.356 . S
N300 H312 0.984 . S
N300 H313 0.985 . S
N301 C303 1.356 . S
N301 H306 0.984 . S
N301 H307 0.985 . S
C302 C296 1.379 . S
C302 C299 1.363 . S
C302 N300 1.356 . S
C303 C297 1.363 . S
C303 C298 1.379 . S
C303 N301 1.356 . S
N304 C296 1.356 . S
N304 H310 0.984 . S
N304 H311 0.984 . S
N305 C298 1.356 . S
N305 H308 0.984 . S
N305 H309 0.985 . S
H306 N301 0.984 . S
H307 N301 0.985 . S
H308 N305 0.984 . S
H309 N305 0.985 . S
H310 N304 0.984 . S
H311 N304 0.984 . S
H312 N300 0.984 . S
H313 N300 0.985 . S
C314 C315 1.363 . S
C314 C320 1.379 . S
C314 N322 1.356 . S
C315 C314 1.363 . S
C315 C321 1.363 . S
C316 C317 1.363 . S
C316 C321 1.379 . S
C316 N323 1.356 . S
C317 C316 1.363 . S
C317 C320 1.363 . S
N318 C320 1.356 . S
N318 H330 0.984 . S
N318 H331 0.985 . S
N319 C321 1.356 . S
N319 H324 0.984 . S
N319 H325 0.985 . S
C320 C314 1.379 . S
C320 C317 1.363 . S
C320 N318 1.356 . S
C321 C315 1.363 . S
C321 C316 1.379 . S
C321 N319 1.356 . S
N322 C314 1.356 . S
N322 H328 0.984 . S
N322 H329 0.984 . S
N323 C316 1.356 . S
N323 H326 0.984 . S
N323 H327 0.985 . S
H324 N319 0.984 . S
H325 N319 0.985 . S
H326 N323 0.984 . S
H327 N323 0.985 . S
H328 N322 0.984 . S
H329 N322 0.984 . S
H330 N318 0.984 . S
H331 N318 0.985 . S
C332 C333 1.363 . S
C332 C338 1.379 . S
C332 N340 1.356 . S
C333 C332 1.363 . S
C333 C339 1.363 . S
C334 C335 1.363 . S
C334 C339 1.379 . S
C334 N341 1.356 . S
C335 C334 1.363 . S
C335 C338 1.363 . S
N336 C338 1.356 . S
N336 H348 0.984 . S
N336 H349 0.985 . S
N337 C339 1.356 . S
N337 H342 0.984 . S
N337 H343 0.985 . S
C338 C332 1.379 . S
C338 C335 1.363 . S
C338 N336 1.356 . S
C339 C333 1.363 . S
C339 C334 1.379 . S
C339 N337 1.356 . S
N340 C332 1.356 . S
N340 H346 0.984 . S
N340 H347 0.984 . S
N341 C334 1.356 . S
N341 H344 0.984 . S
N341 H345 0.985 . S
H342 N337 0.984 . S
H343 N337 0.985 . S
H344 N341 0.984 . S
H345 N341 0.985 . S
H346 N340 0.984 . S
H347 N340 0.984 . S
H348 N336 0.984 . S
H349 N336 0.985 . S
C350 C351 1.363 . S
C350 C356 1.379 . S
C350 N358 1.356 . S
C351 C350 1.363 . S
C351 C357 1.363 . S
C352 C353 1.363 . S
C352 C357 1.379 . S
C352 N359 1.356 . S
C353 C352 1.363 . S
C353 C356 1.363 . S
N354 C356 1.356 . S
N354 H366 0.984 . S
N354 H367 0.985 . S
N355 C357 1.356 . S
N355 H360 0.984 . S
N355 H361 0.985 . S
C356 C350 1.379 . S
C356 C353 1.363 . S
C356 N354 1.356 . S
C357 C351 1.363 . S
C357 C352 1.379 . S
C357 N355 1.356 . S
N358 C350 1.356 . S
N358 H364 0.984 . S
N358 H365 0.984 . S
N359 C352 1.356 . S
N359 H362 0.984 . S
N359 H363 0.985 . S
H360 N355 0.984 . S
H361 N355 0.985 . S
H362 N359 0.984 . S
H363 N359 0.985 . S
H364 N358 0.984 . S
H365 N358 0.984 . S
H366 N354 0.984 . S
H367 N354 0.985 . S
C368 C369 1.363 . S
C368 C374 1.379 . S
C368 N376 1.356 . S
C369 C368 1.363 . S
C369 C375 1.363 1_554 S
C370 C371 1.363 1_556 S
C370 C375 1.379 . S
C370 N377 1.356 . S
C371 C370 1.363 1_554 S
C371 C374 1.363 . S
N372 C374 1.356 . S
N372 H384 0.984 . S
N372 H385 0.985 . S
N373 C375 1.356 . S
N373 H378 0.984 . S
N373 H379 0.985 . S
C374 C368 1.379 . S
C374 C371 1.363 . S
C374 N372 1.356 . S
C375 C369 1.363 1_556 S
C375 C370 1.379 . S
C375 N373 1.356 . S
N376 C368 1.356 . S
N376 H382 0.984 . S
N376 H383 0.984 . S
N377 C370 1.356 . S
N377 H380 0.984 . S
N377 H381 0.985 . S
H378 N373 0.984 . S
H379 N373 0.985 . S
H380 N377 0.984 . S
H381 N377 0.985 . S
H382 N376 0.984 . S
H383 N376 0.984 . S
H384 N372 0.984 . S
H385 N372 0.985 . S
C386 C387 1.363 1_556 S
C386 C392 1.379 . S
C386 N394 1.356 . S
C387 C386 1.363 1_554 S
C387 C393 1.363 . S
C388 C389 1.363 . S
C388 C393 1.379 . S
C388 N395 1.356 . S
C389 C388 1.363 . S
C389 C392 1.363 1_554 S
N390 C392 1.356 . S
N390 H402 0.984 . S
N390 H403 0.985 . S
N391 C393 1.356 . S
N391 H396 0.984 . S
N391 H397 0.985 . S
C392 C386 1.379 . S
C392 C389 1.363 1_556 S
C392 N390 1.356 . S
C393 C387 1.363 . S
C393 C388 1.379 . S
C393 N391 1.356 . S
N394 C386 1.356 . S
N394 H400 0.984 . S
N394 H401 0.984 . S
N395 C388 1.356 . S
N395 H398 0.984 . S
N395 H399 0.985 . S
H396 N391 0.984 . S
H397 N391 0.985 . S
H398 N395 0.984 . S
H399 N395 0.985 . S
H400 N394 0.984 . S
H401 N394 0.984 . S
H402 N390 0.984 . S
H403 N390 0.985 . S
C404 C405 1.363 1_556 S
C404 C410 1.379 . S
C404 N412 1.356 . S
C405 C404 1.363 1_554 S
C405 C411 1.363 . S
C406 C407 1.363 . S
C406 C411 1.379 . S
C406 N413 1.356 . S
C407 C406 1.363 . S
C407 C410 1.363 1_554 S
N408 C410 1.356 . S
N408 H420 0.984 . S
N408 H421 0.985 . S
N409 C411 1.356 . S
N409 H414 0.984 . S
N409 H415 0.985 . S
C410 C404 1.379 . S
C410 C407 1.363 1_556 S
C410 N408 1.356 . S
C411 C405 1.363 . S
C411 C406 1.379 . S
C411 N409 1.356 . S
N412 C404 1.356 . S
N412 H418 0.984 . S
N412 H419 0.984 . S
N413 C406 1.356 . S
N413 H416 0.984 . S
N413 H417 0.985 . S
H414 N409 0.984 . S
H415 N409 0.985 . S
H416 N413 0.984 . S
H417 N413 0.985 . S
H418 N412 0.984 . S
H419 N412 0.984 . S
H420 N408 0.984 . S
H421 N408 0.985 . S
C422 C423 1.363 1_556 S
C422 C428 1.379 . S
C422 N430 1.356 . S
C423 C422 1.363 1_554 S
C423 C429 1.363 . S
C424 C425 1.363 . S
C424 C429 1.379 . S
C424 N431 1.356 . S
C425 C424 1.363 . S
C425 C428 1.363 1_554 S
N426 C428 1.356 . S
N426 H438 0.984 . S
N426 H439 0.985 . S
N427 C429 1.356 . S
N427 H432 0.984 . S
N427 H433 0.985 . S
C428 C422 1.379 . S
C428 C425 1.363 1_556 S
C428 N426 1.356 . S
C429 C423 1.363 . S
C429 C424 1.379 . S
C429 N427 1.356 . S
N430 C422 1.356 . S
N430 H436 0.984 . S
N430 H437 0.984 . S
N431 C424 1.356 . S
N431 H434 0.984 . S
N431 H435 0.985 . S
H432 N427 0.984 . S
H433 N427 0.985 . S
H434 N431 0.984 . S
H435 N431 0.985 . S
H436 N430 0.984 . S
H437 N430 0.984 . S
H438 N426 0.984 . S
H439 N426 0.985 . S
C440 C441 1.363 . S
C440 C446 1.379 . S
C440 N448 1.356 . S
C441 C440 1.363 . S
C441 C447 1.363 . S
C442 C443 1.363 . S
C442 C447 1.379 . S
C442 N449 1.356 . S
C443 C442 1.363 . S
C443 C446 1.363 . S
N444 C446 1.356 . S
N444 H456 0.984 . S
N444 H457 0.985 . S
N445 C447 1.356 . S
N445 H450 0.984 . S
N445 H451 0.985 . S
C446 C440 1.379 . S
C446 C443 1.363 . S
C446 N444 1.356 . S
C447 C441 1.363 . S
C447 C442 1.379 . S
C447 N445 1.356 . S
N448 C440 1.356 . S
N448 H454 0.984 . S
N448 H455 0.984 . S
N449 C442 1.356 . S
N449 H452 0.984 . S
N449 H453 0.985 . S
H450 N445 0.984 . S
H451 N445 0.985 . S
H452 N449 0.984 . S
H453 N449 0.985 . S
H454 N448 0.984 . S
H455 N448 0.984 . S
H456 N444 0.984 . S
H457 N444 0.985 . S
C458 C459 1.363 . S
C458 C464 1.379 . S
C458 N466 1.356 . S
C459 C458 1.363 . S
C459 C465 1.363 . S
C460 C461 1.363 . S
C460 C465 1.379 . S
C460 N467 1.356 . S
C461 C460 1.363 . S
C461 C464 1.363 . S
N462 C464 1.356 . S
N462 H474 0.984 . S
N462 H475 0.985 . S
N463 C465 1.356 . S
N463 H468 0.984 . S
N463 H469 0.985 . S
C464 C458 1.379 . S
C464 C461 1.363 . S
C464 N462 1.356 . S
C465 C459 1.363 . S
C465 C460 1.379 . S
C465 N463 1.356 . S
N466 C458 1.356 . S
N466 H472 0.984 . S
N466 H473 0.984 . S
N467 C460 1.356 . S
N467 H470 0.984 . S
N467 H471 0.985 . S
H468 N463 0.984 . S
H469 N463 0.985 . S
H470 N467 0.984 . S
H471 N467 0.985 . S
H472 N466 0.984 . S
H473 N466 0.984 . S
H474 N462 0.984 . S
H475 N462 0.985 . S
C476 C477 1.363 . S
C476 C482 1.379 . S
C476 N484 1.356 . S
C477 C476 1.363 . S
C477 C483 1.363 . S
C478 C479 1.363 . S
C478 C483 1.379 . S
C478 N485 1.356 . S
C479 C478 1.363 . S
C479 C482 1.363 . S
N480 C482 1.356 . S
N480 H492 0.984 . S
N480 H493 0.985 . S
N481 C483 1.356 . S
N481 H486 0.984 . S
N481 H487 0.985 . S
C482 C476 1.379 . S
C482 C479 1.363 . S
C482 N480 1.356 . S
C483 C477 1.363 . S
C483 C478 1.379 . S
C483 N481 1.356 . S
N484 C476 1.356 . S
N484 H490 0.984 . S
N484 H491 0.984 . S
N485 C478 1.356 . S
N485 H488 0.984 . S
N485 H489 0.985 . S
H486 N481 0.984 . S
H487 N481 0.985 . S
H488 N485 0.984 . S
H489 N485 0.985 . S
H490 N484 0.984 . S
H491 N484 0.984 . S
H492 N480 0.984 . S
H493 N480 0.985 . S
C494 C495 1.363 . S
C494 C500 1.379 . S
C494 N502 1.356 . S
C495 C494 1.363 . S
C495 C501 1.363 . S
C496 C497 1.363 . S
C496 C501 1.379 . S
C496 N503 1.356 . S
C497 C496 1.363 . S
C497 C500 1.363 . S
N498 C500 1.356 . S
N498 H510 0.984 . S
N498 H511 0.985 . S
N499 C501 1.356 . S
N499 H504 0.984 . S
N499 H505 0.985 . S
C500 C494 1.379 . S
C500 C497 1.363 . S
C500 N498 1.356 . S
C501 C495 1.363 . S
C501 C496 1.379 . S
C501 N499 1.356 . S
N502 C494 1.356 . S
N502 H508 0.984 . S
N502 H509 0.984 . S
N503 C496 1.356 . S
N503 H506 0.984 . S
N503 H507 0.985 . S
H504 N499 0.984 . S
H505 N499 0.985 . S
H506 N503 0.984 . S
H507 N503 0.985 . S
H508 N502 0.984 . S
H509 N502 0.984 . S
H510 N498 0.984 . S
H511 N498 0.985 . S
C512 C513 1.363 1_554 S
C512 C518 1.379 1_565 S
C512 N520 1.356 . S
C513 C512 1.363 1_556 S
C513 C519 1.363 . S
C514 C515 1.363 1_556 S
C514 C519 1.379 1_545 S
C514 N521 1.356 . S
C515 C514 1.363 1_554 S
C515 C518 1.363 . S
N516 C518 1.356 . S
N516 H528 0.984 . S
N516 H529 0.985 . S
N517 C519 1.356 . S
N517 H522 0.984 . S
N517 H523 0.985 . S
C518 C512 1.379 1_545 S
C518 C515 1.363 . S
C518 N516 1.356 . S
C519 C513 1.363 . S
C519 C514 1.379 1_565 S
C519 N517 1.356 . S
N520 C512 1.356 . S
N520 H526 0.984 . S
N520 H527 0.984 . S
N521 C514 1.356 . S
N521 H524 0.984 . S
N521 H525 0.985 . S
H522 N517 0.984 . S
H523 N517 0.985 . S
H524 N521 0.984 . S
H525 N521 0.985 . S
H526 N520 0.984 . S
H527 N520 0.984 . S
H528 N516 0.984 . S
H529 N516 0.985 . S
C530 C531 1.363 1_556 S
C530 C536 1.379 . S
C530 N538 1.356 . S
C531 C530 1.363 1_554 S
C531 C537 1.363 . S
C532 C533 1.363 1_554 S
C532 C537 1.379 . S
C532 N539 1.356 . S
C533 C532 1.363 1_556 S
C533 C536 1.363 . S
N534 C536 1.356 . S
N534 H546 0.984 . S
N534 H547 0.985 . S
N535 C537 1.356 . S
N535 H540 0.984 . S
N535 H541 0.985 . S
C536 C530 1.379 . S
C536 C533 1.363 . S
C536 N534 1.356 . S
C537 C531 1.363 . S
C537 C532 1.379 . S
C537 N535 1.356 . S
N538 C530 1.356 . S
N538 H544 0.984 . S
N538 H545 0.984 . S
N539 C532 1.356 . S
N539 H542 0.984 . S
N539 H543 0.985 . S
H540 N535 0.984 . S
H541 N535 0.985 . S
H542 N539 0.984 . S
H543 N539 0.985 . S
H544 N538 0.984 . S
H545 N538 0.984 . S
H546 N534 0.984 . S
H547 N534 0.985 . S
C548 C549 1.363 . S
C548 C554 1.379 . S
C548 N556 1.356 . S
C549 C548 1.363 . S
C549 C555 1.363 1_656 S
C550 C551 1.363 . S
C550 C555 1.379 . S
C550 N557 1.356 . S
C551 C550 1.363 . S
C551 C554 1.363 1_454 S
N552 C554 1.356 . S
N552 H564 0.984 . S
N552 H565 0.985 . S
N553 C555 1.356 . S
N553 H558 0.984 . S
N553 H559 0.985 . S
C554 C548 1.379 . S
C554 C551 1.363 1_656 S
C554 N552 1.356 . S
C555 C549 1.363 1_454 S
C555 C550 1.379 . S
C555 N553 1.356 . S
N556 C548 1.356 . S
N556 H562 0.984 . S
N556 H563 0.984 . S
N557 C550 1.356 . S
N557 H560 0.984 . S
N557 H561 0.985 . S
H558 N553 0.984 . S
H559 N553 0.985 . S
H560 N557 0.984 . S
H561 N557 0.985 . S
H562 N556 0.984 . S
H563 N556 0.984 . S
H564 N552 0.984 . S
H565 N552 0.985 . S
C566 C567 1.363 1_556 S
C566 C572 1.379 1_455 S
C566 N574 1.356 . S
C567 C566 1.363 1_554 S
C567 C573 1.363 1_545 S
C568 C569 1.363 1_554 S
C568 C573 1.379 1_655 S
C568 N575 1.356 . S
C569 C568 1.363 1_556 S
C569 C572 1.363 1_565 S
N570 C572 1.356 . S
N570 H582 0.984 . S
N570 H583 0.985 . S
N571 C573 1.356 . S
N571 H576 0.984 . S
N571 H577 0.985 . S
C572 C566 1.379 1_655 S
C572 C569 1.363 1_545 S
C572 N570 1.356 . S
C573 C567 1.363 1_565 S
C573 C568 1.379 1_455 S
C573 N571 1.356 . S
N574 C566 1.356 . S
N574 H580 0.984 . S
N574 H581 0.984 . S
N575 C568 1.356 . S
N575 H578 0.984 . S
N575 H579 0.985 . S
H576 N571 0.984 . S
H577 N571 0.985 . S
H578 N575 0.984 . S
H579 N575 0.985 . S
H580 N574 0.984 . S
H581 N574 0.984 . S
H582 N570 0.984 . S
H583 N570 0.985 . S
C584 C585 1.363 . S
C584 C590 1.379 . S
C584 N592 1.356 . S
C585 C584 1.363 . S
C585 C591 1.363 . S
C586 C587 1.363 . S
C586 C591 1.379 . S
C586 N593 1.356 . S
C587 C586 1.363 . S
C587 C590 1.363 . S
N588 C590 1.356 . S
N588 H600 0.984 . S
N588 H601 0.985 . S
N589 C591 1.356 . S
N589 H594 0.984 . S
N589 H595 0.985 . S
C590 C584 1.379 . S
C590 C587 1.363 . S
C590 N588 1.356 . S
C591 C585 1.363 . S
C591 C586 1.379 . S
C591 N589 1.356 . S
N592 C584 1.356 . S
N592 H598 0.984 . S
N592 H599 0.984 . S
N593 C586 1.356 . S
N593 H596 0.984 . S
N593 H597 0.985 . S
H594 N589 0.984 . S
H595 N589 0.985 . S
H596 N593 0.984 . S
H597 N593 0.985 . S
H598 N592 0.984 . S
H599 N592 0.984 . S
H600 N588 0.984 . S
H601 N588 0.985 . S
C602 C603 1.363 . S
C602 C608 1.379 1_455 S
C602 N610 1.356 . S
C603 C602 1.363 . S
C603 C609 1.363 . S
C604 C605 1.363 . S
C604 C609 1.379 1_655 S
C604 N611 1.356 . S
C605 C604 1.363 . S
C605 C608 1.363 . S
N606 C608 1.356 . S
N606 H618 0.984 . S
N606 H619 0.985 . S
N607 C609 1.356 . S
N607 H612 0.984 . S
N607 H613 0.985 . S
C608 C602 1.379 1_655 S
C608 C605 1.363 . S
C608 N606 1.356 . S
C609 C603 1.363 . S
C609 C604 1.379 1_455 S
C609 N607 1.356 . S
N610 C602 1.356 . S
N610 H616 0.984 . S
N610 H617 0.984 . S
N611 C604 1.356 . S
N611 H614 0.984 . S
N611 H615 0.985 . S
H612 N607 0.984 . S
H613 N607 0.985 . S
H614 N611 0.984 . S
H615 N611 0.985 . S
H616 N610 0.984 . S
H617 N610 0.984 . S
H618 N606 0.984 . S
H619 N606 0.985 . S
C620 C621 1.363 . S
C620 C626 1.379 1_565 S
C620 N628 1.356 . S
C621 C620 1.363 . S
C621 C627 1.363 1_655 S
C622 C623 1.363 . S
C622 C627 1.379 1_545 S
C622 N629 1.356 . S
C623 C622 1.363 . S
C623 C626 1.363 1_455 S
N624 C626 1.356 . S
N624 H636 0.984 . S
N624 H637 0.985 . S
N625 C627 1.356 . S
N625 H630 0.984 . S
N625 H631 0.985 . S
C626 C620 1.379 1_545 S
C626 C623 1.363 1_655 S
C626 N624 1.356 . S
C627 C621 1.363 1_455 S
C627 C622 1.379 1_565 S
C627 N625 1.356 . S
N628 C620 1.356 . S
N628 H634 0.984 . S
N628 H635 0.984 . S
N629 C622 1.356 . S
N629 H632 0.984 . S
N629 H633 0.985 . S
H630 N625 0.984 . S
H631 N625 0.985 . S
H632 N629 0.984 . S
H633 N629 0.985 . S
H634 N628 0.984 . S
H635 N628 0.984 . S
H636 N624 0.984 . S
H637 N624 0.985 . S
C638 C639 1.363 1_545 S
C638 C644 1.379 . S
C638 N646 1.357 . S
C639 C638 1.363 1_565 S
C639 C645 1.363 . S
C640 C641 1.363 1_565 S
C640 C645 1.379 . S
C640 N647 1.357 . S
C641 C640 1.363 1_545 S
C641 C644 1.363 . S
N642 C644 1.356 . S
N642 H654 0.984 . S
N642 H655 0.985 . S
N643 C645 1.356 . S
N643 H648 0.984 . S
N643 H649 0.985 . S
C644 C638 1.379 . S
C644 C641 1.363 . S
C644 N642 1.356 . S
C645 C639 1.363 . S
C645 C640 1.379 . S
C645 N643 1.356 . S
N646 C638 1.357 . S
N646 H652 0.986 . S
N646 H653 0.983 1_545 S
N647 C640 1.357 . S
N647 H650 0.983 1_565 S
N647 H651 0.986 . S
H648 N643 0.984 . S
H649 N643 0.985 . S
H650 N647 0.983 1_545 S
H651 N647 0.986 . S
H652 N646 0.986 . S
H653 N646 0.983 1_565 S
H654 N642 0.984 . S
H655 N642 0.985 . S
C656 C657 1.363 . S
C656 C662 1.379 . S
C656 N664 1.356 . S
C657 C656 1.363 . S
C657 C663 1.363 . S
C658 C659 1.363 . S
C658 C663 1.379 . S
C658 N665 1.356 . S
C659 C658 1.363 . S
C659 C662 1.363 . S
N660 C662 1.356 . S
N660 H672 0.984 . S
N660 H673 0.985 . S
N661 C663 1.356 . S
N661 H666 0.984 . S
N661 H667 0.985 . S
C662 C656 1.379 . S
C662 C659 1.363 . S
C662 N660 1.356 . S
C663 C657 1.363 . S
C663 C658 1.379 . S
C663 N661 1.356 . S
N664 C656 1.356 . S
N664 H670 0.984 . S
N664 H671 0.984 . S
N665 C658 1.356 . S
N665 H668 0.984 . S
N665 H669 0.985 . S
H666 N661 0.984 . S
H667 N661 0.985 . S
H668 N665 0.984 . S
H669 N665 0.985 . S
H670 N664 0.984 . S
H671 N664 0.984 . S
H672 N660 0.984 . S
H673 N660 0.985 . S
C674 C675 1.363 . S
C674 C680 1.379 . S
C674 N682 1.356 . S
C675 C674 1.363 . S
C675 C681 1.363 . S
C676 C677 1.363 . S
C676 C681 1.379 . S
C676 N683 1.356 . S
C677 C676 1.363 . S
C677 C680 1.363 . S
N678 C680 1.356 . S
N678 H690 0.984 . S
N678 H691 0.985 . S
N679 C681 1.356 . S
N679 H684 0.984 . S
N679 H685 0.985 . S
C680 C674 1.379 . S
C680 C677 1.363 . S
C680 N678 1.356 . S
C681 C675 1.363 . S
C681 C676 1.379 . S
C681 N679 1.356 . S
N682 C674 1.356 . S
N682 H688 0.984 . S
N682 H689 0.984 . S
N683 C676 1.356 . S
N683 H686 0.984 . S
N683 H687 0.985 . S
H684 N679 0.984 . S
H685 N679 0.985 . S
H686 N683 0.984 . S
H687 N683 0.985 . S
H688 N682 0.984 . S
H689 N682 0.984 . S
H690 N678 0.984 . S
H691 N678 0.985 . S
C692 C693 1.363 1_455 S
C692 C698 1.379 . S
C692 N700 1.356 . S
C693 C692 1.363 1_655 S
C693 C699 1.363 . S
C694 C695 1.363 . S
C694 C699 1.379 . S
C694 N701 1.356 . S
C695 C694 1.363 . S
C695 C698 1.363 1_655 S
N696 C698 1.356 . S
N696 H708 0.984 . S
N696 H709 0.985 . S
N697 C699 1.356 . S
N697 H702 0.984 . S
N697 H703 0.985 . S
C698 C692 1.379 . S
C698 C695 1.363 1_455 S
C698 N696 1.356 . S
C699 C693 1.363 . S
C699 C694 1.379 . S
C699 N697 1.356 . S
N700 C692 1.356 . S
N700 H706 0.984 . S
N700 H707 0.984 . S
N701 C694 1.356 . S
N701 H704 0.984 . S
N701 H705 0.985 . S
H702 N697 0.984 . S
H703 N697 0.985 . S
H704 N701 0.984 . S
H705 N701 0.985 . S
H706 N700 0.984 . S
H707 N700 0.984 . S
H708 N696 0.984 . S
H709 N696 0.985 . S
C710 C711 1.363 . S
C710 C716 1.379 . S
C710 N718 1.356 . S
C711 C710 1.363 . S
C711 C717 1.363 1_565 S
C712 C713 1.363 1_545 S
C712 C717 1.379 . S
C712 N719 1.356 . S
C713 C712 1.363 1_565 S
C713 C716 1.363 . S
N714 C716 1.356 . S
N714 H726 0.984 . S
N714 H727 0.985 . S
N715 C717 1.356 . S
N715 H720 0.984 . S
N715 H721 0.985 . S
C716 C710 1.379 . S
C716 C713 1.363 . S
C716 N714 1.356 . S
C717 C711 1.363 1_545 S
C717 C712 1.379 . S
C717 N715 1.356 . S
N718 C710 1.356 . S
N718 H724 0.984 . S
N718 H725 0.984 . S
N719 C712 1.356 . S
N719 H722 0.984 . S
N719 H723 0.985 . S
H720 N715 0.984 . S
H721 N715 0.985 . S
H722 N719 0.984 . S
H723 N719 0.985 . S
H724 N718 0.984 . S
H725 N718 0.984 . S
H726 N714 0.984 . S
H727 N714 0.985 . S
C728 C729 1.363 . S
C728 C734 1.379 . S
C728 N736 1.356 . S
C729 C728 1.363 . S
C729 C735 1.363 . S
C730 C731 1.363 . S
C730 C735 1.379 . S
C730 N737 1.356 . S
C731 C730 1.363 . S
C731 C734 1.363 . S
N732 C734 1.356 . S
N732 H744 0.984 . S
N732 H745 0.985 . S
N733 C735 1.356 . S
N733 H738 0.984 . S
N733 H739 0.985 . S
C734 C728 1.379 . S
C734 C731 1.363 . S
C734 N732 1.356 . S
C735 C729 1.363 . S
C735 C730 1.379 . S
C735 N733 1.356 . S
N736 C728 1.356 . S
N736 H742 0.984 . S
N736 H743 0.984 . S
N737 C730 1.356 . S
N737 H740 0.984 . S
N737 H741 0.985 . S
H738 N733 0.984 . S
H739 N733 0.985 . S
H740 N737 0.984 . S
H741 N737 0.985 . S
H742 N736 0.984 . S
H743 N736 0.984 . S
H744 N732 0.984 . S
H745 N732 0.985 . S
C746 C747 1.363 . S
C746 C752 1.379 . S
C746 N754 1.356 . S
C747 C746 1.363 . S
C747 C753 1.363 . S
C748 C749 1.363 . S
C748 C753 1.379 . S
C748 N755 1.356 . S
C749 C748 1.363 . S
C749 C752 1.363 . S
N750 C752 1.356 . S
N750 H762 0.984 . S
N750 H763 0.985 . S
N751 C753 1.356 . S
N751 H756 0.984 . S
N751 H757 0.985 . S
C752 C746 1.379 . S
C752 C749 1.363 . S
C752 N750 1.356 . S
C753 C747 1.363 . S
C753 C748 1.379 . S
C753 N751 1.356 . S
N754 C746 1.356 . S
N754 H760 0.984 . S
N754 H761 0.984 . S
N755 C748 1.356 . S
N755 H758 0.984 . S
N755 H759 0.985 . S
H756 N751 0.984 . S
H757 N751 0.985 . S
H758 N755 0.984 . S
H759 N755 0.985 . S
H760 N754 0.984 . S
H761 N754 0.984 . S
H762 N750 0.984 . S
H763 N750 0.985 . S
C764 C765 1.363 1_655 S
C764 C770 1.379 . S
C764 N772 1.356 . S
C765 C764 1.363 1_455 S
C765 C771 1.363 . S
C766 C767 1.363 . S
C766 C771 1.379 . S
C766 N773 1.356 . S
C767 C766 1.363 . S
C767 C770 1.363 1_455 S
N768 C770 1.356 . S
N768 H780 0.984 . S
N768 H781 0.985 . S
N769 C771 1.356 . S
N769 H774 0.984 . S
N769 H775 0.985 . S
C770 C764 1.379 . S
C770 C767 1.363 1_655 S
C770 N768 1.356 . S
C771 C765 1.363 . S
C771 C766 1.379 . S
C771 N769 1.356 . S
N772 C764 1.356 . S
N772 H778 0.984 . S
N772 H779 0.984 . S
N773 C766 1.356 . S
N773 H776 0.984 . S
N773 H777 0.985 . S
H774 N769 0.984 . S
H775 N769 0.985 . S
H776 N773 0.984 . S
H777 N773 0.985 . S
H778 N772 0.984 . S
H779 N772 0.984 . S
H780 N768 0.984 . S
H781 N768 0.985 . S
C782 C783 1.363 1_565 S
C782 C788 1.379 . S
C782 N790 1.356 . S
C783 C782 1.363 1_545 S
C783 C789 1.363 . S
C784 C785 1.363 . S
C784 C789 1.379 . S
C784 N791 1.356 . S
C785 C784 1.363 . S
C785 C788 1.363 1_545 S
N786 C788 1.356 . S
N786 H798 0.984 . S
N786 H799 0.985 . S
N787 C789 1.356 . S
N787 H792 0.984 . S
N787 H793 0.985 . S
C788 C782 1.379 . S
C788 C785 1.363 1_565 S
C788 N786 1.356 . S
C789 C783 1.363 . S
C789 C784 1.379 . S
C789 N787 1.356 . S
N790 C782 1.356 . S
N790 H796 0.984 . S
N790 H797 0.984 . S
N791 C784 1.356 . S
N791 H794 0.984 . S
N791 H795 0.985 . S
H792 N787 0.984 . S
H793 N787 0.985 . S
H794 N791 0.984 . S
H795 N791 0.985 . S
H796 N790 0.984 . S
H797 N790 0.984 . S
H798 N786 0.984 . S
H799 N786 0.985 . S
C225 C9 1.016 1_556 S
C227 C133 1.095 . S
C243 C147 1.095 . S
C245 C23 1.016 1_556 S
C261 C161 1.095 . S
C263 C37 1.016 1_556 S
C279 C119 1.095 . S
C281 C51 1.016 1_556 S
C297 C65 1.016 . S
C299 C217 1.095 . S
C315 C175 1.095 . S
C317 C79 1.015 . S
C333 C189 1.095 . S
C335 C93 1.016 . S
C351 C203 1.095 . S
C353 C107 1.016 . S
C369 C121 1.016 1_554 S
C371 C21 1.095 . S
C387 C135 1.016 1_554 S
C389 C35 1.095 . S
C405 C149 1.016 1_554 S
C407 C49 1.095 . S
C423 C7 1.095 . S
C425 C163 1.016 1_554 S
C441 C177 1.016 . S
C443 C105 1.095 . S
C459 C191 1.015 . S
C461 C63 1.095 . S
C477 C77 1.095 . S
C479 C205 1.016 . S
C495 C219 1.016 . S
C497 C91 1.095 . S
C513 C120 1.886 . S
C515 C8 1.886 . S
C531 C22 1.886 . S
C533 C134 1.886 . S
C549 C148 1.886 . S
C551 C36 1.886 . S
C567 C50 1.886 . S
C569 C162 1.886 . S
C585 C176 1.886 . S
C587 C64 1.886 . S
C603 C78 1.886 . S
C605 C190 1.886 . S
C621 C204 1.886 . S
C623 C92 1.886 . S
C639 C218 1.886 . S
C641 C106 1.886 . S
C657 C59 1.694 . S
C659 C3 1.694 . S
C675 C73 1.694 . S
C677 C17 1.694 . S
C693 C31 1.694 . S
C695 C87 1.694 . S
C711 C101 1.694 . S
C713 C45 1.694 . S
C729 C115 1.694 . S
C731 C171 1.694 . S
C747 C185 1.694 . S
C749 C129 1.694 . S
C765 C199 1.694 . S
C767 C143 1.694 . S
C783 C213 1.694 . S
C785 C157 1.694 . S
