# Generated by pormake.
# Topology wjf, (4)-cn, num edge types: 1
# Building blocks:
#     Node 0, Type 0, BuildingBlock: ESEHIV_clean_sbu_0, # of connection points: 4
#     Node 1, Type 0, BuildingBlock: ESEHIV_clean_sbu_0, # of connection points: 4
#     Node 2, Type 0, BuildingBlock: ESEHIV_clean_sbu_0, # of connection points: 4
#     Node 3, Type 0, BuildingBlock: ESEHIV_clean_sbu_0, # of connection points: 4
#     Node 4, Type 0, BuildingBlock: ESEHIV_clean_sbu_0, # of connection points: 4
#     Node 5, Type 0, BuildingBlock: ESEHIV_clean_sbu_0, # of connection points: 4
#     Node 6, Type 0, BuildingBlock: ESEHIV_clean_sbu_0, # of connection points: 4
#     Node 7, Type 0, BuildingBlock: ESEHIV_clean_sbu_0, # of connection points: 4
#     Node 8, Type 0, BuildingBlock: ESEHIV_clean_sbu_0, # of connection points: 4
#     Node 9, Type 0, BuildingBlock: ESEHIV_clean_sbu_0, # of connection points: 4
#     Node 10, Type 0, BuildingBlock: ESEHIV_clean_sbu_0, # of connection points: 4
#     Node 11, Type 0, BuildingBlock: ESEHIV_clean_sbu_0, # of connection points: 4
#     Edge 12, Type (0, 0), BuildingBlock: OJICUG_clean_linker_0, # of connection points: 2
#     Edge 13, Type (0, 0), BuildingBlock: OJICUG_clean_linker_0, # of connection points: 2
#     Edge 14, Type (0, 0), BuildingBlock: OJICUG_clean_linker_0, # of connection points: 2
#     Edge 15, Type (0, 0), BuildingBlock: OJICUG_clean_linker_0, # of connection points: 2
#     Edge 16, Type (0, 0), BuildingBlock: OJICUG_clean_linker_0, # of connection points: 2
#     Edge 17, Type (0, 0), BuildingBlock: OJICUG_clean_linker_0, # of connection points: 2
#     Edge 18, Type (0, 0), BuildingBlock: OJICUG_clean_linker_0, # of connection points: 2
#     Edge 19, Type (0, 0), BuildingBlock: OJICUG_clean_linker_0, # of connection points: 2
#     Edge 20, Type (0, 0), BuildingBlock: OJICUG_clean_linker_0, # of connection points: 2
#     Edge 21, Type (0, 0), BuildingBlock: OJICUG_clean_linker_0, # of connection points: 2
#     Edge 22, Type (0, 0), BuildingBlock: OJICUG_clean_linker_0, # of connection points: 2
#     Edge 23, Type (0, 0), BuildingBlock: OJICUG_clean_linker_0, # of connection points: 2
#     Edge 24, Type (0, 0), BuildingBlock: OJICUG_clean_linker_0, # of connection points: 2
#     Edge 25, Type (0, 0), BuildingBlock: OJICUG_clean_linker_0, # of connection points: 2
#     Edge 26, Type (0, 0), BuildingBlock: OJICUG_clean_linker_0, # of connection points: 2
#     Edge 27, Type (0, 0), BuildingBlock: OJICUG_clean_linker_0, # of connection points: 2
#     Edge 28, Type (0, 0), BuildingBlock: OJICUG_clean_linker_0, # of connection points: 2
#     Edge 29, Type (0, 0), BuildingBlock: OJICUG_clean_linker_0, # of connection points: 2
#     Edge 30, Type (0, 0), BuildingBlock: OJICUG_clean_linker_0, # of connection points: 2
#     Edge 31, Type (0, 0), BuildingBlock: OJICUG_clean_linker_0, # of connection points: 2
#     Edge 32, Type (0, 0), BuildingBlock: OJICUG_clean_linker_0, # of connection points: 2
#     Edge 33, Type (0, 0), BuildingBlock: OJICUG_clean_linker_0, # of connection points: 2
#     Edge 34, Type (0, 0), BuildingBlock: OJICUG_clean_linker_0, # of connection points: 2
#     Edge 35, Type (0, 0), BuildingBlock: OJICUG_clean_linker_0, # of connection points: 2
# Relax obj value: 0.113
# Max RMSD: 0.245
# Mean RMSD: 0.245
data_MOF--net-wjf--node1-ESEHIV_clean_sbu_0--edge1-OJICUG_clean_linker_0
_symmetry_space_group_name_H-M    P1
_symmetry_Int_Tables_number       1
_symmetry_cell_setting            triclinic
loop_
_symmetry_equiv_pos_as_xyz
'x, y, z'
_cell_length_a     45.766971
_cell_length_b     45.691699
_cell_length_c     20.330696
_cell_angle_alpha  90.217188
_cell_angle_beta   90.06767
_cell_angle_gamma 120.3359
loop_
_atom_site_label
_atom_site_type_symbol
_atom_site_fract_x
_atom_site_fract_y
_atom_site_fract_z
_atom_type_partial_charge
Cu0 Cu 0.35131 0.38123 0.1083 0.0
N1 N 0.38352 0.42614 0.08955 0.0
N2 N 0.43587 0.46982 0.07451 0.0
C3 C 0.41604 0.44167 0.10974 0.0
C4 C 0.41504 0.47226 1.03076 0.0
C5 C 0.38282 0.44524 0.03997 0.0
O6 O 0.36297 0.37047 0.19343 0.0
C7 C 0.34227 0.35537 0.97974 0.0
O8 O 0.3235 0.36947 0.97468 0.0
H9 H 0.42555 0.43068 0.14481 0.0
H10 H 0.36129 0.43842 1.00846 0.0
N11 N 0.30741 0.3744 0.11432 0.0
N12 N 0.26085 0.37799 0.09945 0.0
C13 C 0.29405 0.39147 0.0852 0.0
C14 C 0.28186 0.34952 0.14861 0.0
C15 C 0.25318 0.35165 0.13963 0.0
C16 C 0.35213 0.34059 0.21478 0.0
O17 O 0.33337 0.31456 0.17623 0.0
H18 H 0.30824 0.41319 0.05399 0.0
H19 H 0.28379 0.33074 0.17741 0.0
O20 O 0.35476 0.3551 1.03572 0.0
H21 H 0.42296 0.49095 0.99209 0.0
H22 H 0.2284 0.33449 0.1596 0.0
Cu23 Cu 0.9725 0.34565 0.47262 0.0
N24 N 0.96257 0.38051 0.47443 0.0
N25 N 0.97173 0.43344 0.4712 0.0
C26 C 0.98571 0.41357 0.46757 0.0
C27 C 0.93834 0.41182 0.48098 0.0
C28 C 0.93277 0.37915 0.48282 0.0
O29 O 0.99938 0.35082 0.55106 0.0
C30 C 0.99371 0.32771 0.3527 0.0
O31 O 0.97418 0.296 0.37046 0.0
H32 H 0.01243 0.42279 0.46111 0.0
H33 H 0.90876 0.35609 0.48982 0.0
N34 N 0.93302 0.30309 0.47484 0.0
N35 N 0.88351 0.25713 0.44871 0.0
C36 C 0.9066 0.28948 0.43263 0.0
C37 C 0.92641 0.27867 0.51893 0.0
C38 C 0.89595 0.25045 0.50322 0.0
C39 C 0.98641 0.34996 0.60706 0.0
O40 O 0.95569 0.34541 0.60923 0.0
H41 H 0.90495 0.3027 0.39002 0.0
H42 H 0.94288 0.28103 0.55928 0.0
O43 O 0.99724 0.35144 0.39098 0.0
H44 H 0.91923 0.41898 0.48574 0.0
H45 H 0.88398 0.22684 0.5301 0.0
Cu46 Cu 0.63505 0.97862 0.79034 0.0
N47 N 0.59025 0.96739 0.77848 0.0
N48 N 0.54605 0.97506 0.76863 0.0
C49 C 0.57657 0.98621 0.79692 0.0
C50 C 0.54027 0.94827 0.73106 0.0
C51 C 0.56756 0.94349 0.73749 0.0
O52 O 0.65023 1.00326 0.87385 0.0
C53 C 0.678 1.00042 0.67406 0.0
O54 O 0.6895 0.98063 0.69297 0.0
H55 H 0.58989 0.00924 0.8259 0.0
H56 H 0.57163 0.9254 0.71061 0.0
N57 N 0.63637 0.93853 0.79712 0.0
N58 N 0.63157 0.88828 0.77463 0.0
C59 C 0.6305 0.91525 0.75018 0.0
C60 C 0.64097 0.92579 0.85309 0.0
C61 C 0.63814 0.89497 0.83947 0.0
C62 C 0.67813 0.01148 0.90255 0.0
O63 O 0.70063 1.00663 0.87199 0.0
H64 H 0.62539 0.91808 0.69936 0.0
H65 H 0.64517 0.93767 0.90096 0.0
O66 O 0.65794 1.00448 0.7114 0.0
H67 H 0.51869 0.93433 0.69875 0.0
H68 H 0.63967 0.87833 0.87526 0.0
Cu69 Cu 0.66675 0.62856 0.1152 0.0
N70 N 0.63294 0.58527 0.08969 0.0
N71 N 0.58015 0.54278 0.07225 0.0
C72 C 0.60049 0.57007 0.10969 0.0
C73 C 0.60058 0.54059 1.02718 0.0
C74 C 0.63314 0.56685 0.03804 0.0
O75 O 0.65196 0.63796 0.19835 0.0
C76 C 0.68092 0.65963 0.9895 0.0
O77 O 0.69789 0.64382 0.98118 0.0
H78 H 0.59153 0.58048 0.14723 0.0
H79 H 0.65482 0.57341 1.00734 0.0
N80 N 0.70837 0.63027 0.127 0.0
N81 N 0.75376 0.6247 0.11037 0.0
C82 C 0.72316 0.61778 0.08739 0.0
C83 C 0.7301 0.64487 0.17757 0.0
C84 C 0.75806 0.64162 0.1674 0.0
C85 C 0.66722 0.66524 0.23193 0.0
O86 O 0.69532 0.69104 0.20951 0.0
H87 H 0.7117 0.60376 0.04273 0.0
H88 H 0.7261 0.65723 0.21906 0.0
O89 O 0.66799 0.65856 0.0456 0.0
H90 H 0.59228 0.52234 0.98728 0.0
H91 H 0.78017 0.65172 0.19887 0.0
Cu92 Cu 0.05291 0.6714 0.46426 0.0
N93 N 0.05696 0.63268 0.46137 0.0
N94 N 0.04395 0.57846 0.45963 0.0
C95 C 0.03188 0.60001 0.46351 0.0
C96 C 0.0779 0.5985 0.45503 0.0
C97 C 0.08581 0.63185 0.4562 0.0
O98 O 0.02725 0.66916 0.54261 0.0
C99 C 0.04076 0.66692 0.32936 0.0
O100 O 0.06631 0.66143 0.33047 0.0
H101 H 1.00536 0.59229 0.46703 0.0
H102 H 0.11085 0.654 0.45346 0.0
N103 N 0.09619 0.7099 0.47056 0.0
N104 N 0.1455 0.75625 0.44547 0.0
C105 C 0.11472 0.73206 0.42303 0.0
C106 C 0.11585 0.72043 0.52469 0.0
C107 C 0.14614 0.74883 0.50948 0.0
C108 C 0.03418 0.65979 0.59653 0.0
O109 O 0.05737 0.65092 0.59672 0.0
H110 H 0.10574 0.73044 0.37318 0.0
H111 H 0.10897 0.70813 0.57195 0.0
O112 O 0.0306 0.67281 0.38345 0.0
H113 H 0.09585 0.58974 0.45201 0.0
H114 H 0.16728 0.76236 0.54287 0.0
Cu115 Cu 0.38641 0.04644 0.78439 0.0
N116 N 0.4305 0.05541 0.77297 0.0
N117 N 0.4735 0.0458 0.7647 0.0
C118 C 0.44325 0.03598 0.79269 0.0
C119 C 0.48006 0.07232 0.72603 0.0
C120 C 0.45352 0.0783 0.73148 0.0
O121 O 0.37014 0.02252 0.86776 0.0
C122 C 0.34183 0.02481 0.66989 0.0
O123 O 0.33042 0.04439 0.69084 0.0
H124 H 0.42949 0.01355 0.82267 0.0
H125 H 0.45017 0.09658 0.70384 0.0
N126 N 0.38754 0.08777 0.79051 0.0
N127 N 0.3941 0.13848 0.76639 0.0
C128 C 0.39288 0.11018 0.74252 0.0
C129 C 0.38564 0.1024 0.84655 0.0
C130 C 0.38957 0.13354 0.83193 0.0
C131 C 0.34286 0.01657 0.89606 0.0
O132 O 0.32183 0.02345 0.86514 0.0
H133 H 0.39596 0.10577 0.69135 0.0
H134 H 0.38248 0.09152 0.89499 0.0
O135 O 0.36256 0.02089 0.70544 0.0
H136 H 0.50172 0.08533 0.69389 0.0
H137 H 0.39011 0.15152 0.8674 0.0
Cu138 Cu 0.61148 0.68167 0.62211 0.0
N139 N 0.57208 0.63955 0.63109 0.0
N140 N 0.53802 0.58324 0.63545 0.0
C141 C 0.57007 0.60918 0.62722 0.0
C142 C 0.5193 0.59817 0.64516 0.0
C143 C 0.54037 0.63284 0.64262 0.0
O144 O 0.63282 0.68229 0.53862 0.0
C145 C 0.62865 0.68783 0.75494 0.0
O146 O 0.59961 0.68702 0.7596 0.0
H147 H 0.59189 0.60641 0.61906 0.0
H148 H 0.53305 0.65178 0.64863 0.0
N149 N 0.60113 0.71631 0.62145 0.0
N150 N 0.60226 0.76474 0.64527 0.0
C151 C 0.61648 0.74544 0.65622 0.0
C152 C 0.57664 0.71726 0.58662 0.0
C153 C 0.57718 0.74698 0.6013 0.0
C154 C 0.61395 0.66897 0.48828 0.0
O155 O 0.58104 0.65531 0.49454 0.0
H156 H 0.63769 0.75222 0.68877 0.0
H157 H 0.55929 0.69746 0.55355 0.0
O158 O 0.63978 0.68692 0.69796 0.0
H159 H 0.49222 0.58514 0.65263 0.0
H160 H 0.55982 0.75441 0.58217 0.0
Cu161 Cu 0.94243 0.60693 0.96324 0.0
N162 N 0.94051 0.56552 0.95455 0.0
N163 N 0.95991 0.52949 0.94862 0.0
C164 C 0.96804 0.5622 0.95388 0.0
C165 C 0.92573 0.51151 0.946 0.0
C166 C 0.91381 0.53386 0.94967 0.0
O167 O 0.97025 0.63336 0.88944 0.0
C168 C 0.96945 0.64898 0.08332 0.0
O169 O 0.95618 0.66746 0.06614 0.0
H170 H 0.99352 0.5835 0.95898 0.0
H171 H 0.8876 0.52741 0.9495 0.0
N172 N 0.89833 0.5997 0.96035 0.0
N173 N 0.85018 0.59888 0.98397 0.0
C174 C 0.88229 0.6093 1.00331 0.0
C175 C 0.87541 0.58217 0.91302 0.0
C176 C 0.84584 0.58178 0.92716 0.0
C177 C 0.96042 0.64187 0.83805 0.0
O178 O 0.92981 0.63751 0.8358 0.0
H179 H 0.89386 0.62373 0.04756 0.0
H180 H 0.87998 0.57045 0.87101 0.0
O181 O 0.96574 0.62467 0.04671 0.0
H182 H 0.91036 0.48421 0.94171 0.0
H183 H 0.82279 0.56942 0.89826 0.0
Cu184 Cu 0.34163 0.9537 0.28493 0.0
N185 N 0.38095 0.9512 0.28316 0.0
N186 N 0.4362 0.96864 0.28243 0.0
C187 C 0.41258 0.97807 0.28241 0.0
C188 C 0.41854 0.93438 0.28328 0.0
C189 C 0.38443 0.9237 0.28368 0.0
O190 O 0.34426 0.9795 0.20648 0.0
C191 C 0.32062 0.97907 0.3974 0.0
O192 O 0.29302 0.97215 0.36486 0.0
H193 H 0.41804 1.00404 0.28318 0.0
H194 H 0.36368 0.89777 0.28458 0.0
N195 N 0.30426 0.90987 0.27912 0.0
N196 N 0.25698 0.86128 0.30329 0.0
C197 C 0.27984 0.89299 0.32399 0.0
C198 C 0.29679 0.88824 0.2284 0.0
C199 C 0.2677 0.85832 0.24305 0.0
C200 C 0.31939 0.97289 0.1687 0.0
O201 O 0.2885 0.95092 0.18761 0.0
H202 H 0.27894 0.90385 0.37074 0.0
H203 H 0.31173 0.89383 0.18412 0.0
O204 O 0.34292 0.97434 0.37003 0.0
H205 H 0.4294 0.91813 0.28308 0.0
H206 H 0.25593 0.8359 0.21218 0.0
Cu207 Cu 0.41567 0.34369 0.60676 0.0
N208 N 0.45584 0.38504 0.61641 0.0
N209 N 0.49078 0.44098 0.62523 0.0
C210 C 0.45831 0.41564 0.61953 0.0
C211 C 0.50943 0.42566 0.62587 0.0
C212 C 0.48777 0.39112 0.6207 0.0
O213 O 0.39569 0.34558 0.52322 0.0
C214 C 0.39942 0.33813 0.7396 0.0
O215 O 0.4289 0.33981 0.74343 0.0
H216 H 0.43671 0.41922 0.61643 0.0
H217 H 0.49485 0.37185 0.62016 0.0
N218 N 0.42477 0.30818 0.60505 0.0
N219 N 0.42297 0.25966 0.6302 0.0
C220 C 0.4101 0.28006 0.64226 0.0
C221 C 0.44735 0.30539 0.56733 0.0
C222 C 0.4464 0.27558 0.58283 0.0
C223 C 0.37994 0.32033 0.48443 0.0
O224 O 0.37366 0.29025 0.50337 0.0
H225 H 0.39029 0.27477 0.67728 0.0
H226 H 0.46365 0.32397 0.53164 0.0
O227 O 0.38775 0.33879 0.68295 0.0
H228 H 0.53671 0.43846 0.63045 0.0
H229 H 0.46238 0.26685 0.56184 0.0
Cu230 Cu 0.07665 0.40833 0.97982 0.0
N231 N 0.07545 0.4483 0.97395 0.0
N232 N 0.05382 0.48226 0.96424 0.0
C233 C 0.04761 0.45011 0.96079 0.0
C234 C 0.08692 0.50139 0.98017 0.0
C235 C 0.10015 0.48032 0.98657 0.0
O236 O 0.05021 0.38049 0.90478 0.0
C237 C 0.04648 0.35982 0.08661 0.0
O238 O 0.04672 0.33693 0.04768 0.0
H239 H 0.02318 0.42814 0.94976 0.0
H240 H 0.12567 0.48772 1.00139 0.0
N241 N 0.12163 0.41829 0.97736 0.0
N242 N 0.16894 0.41689 0.9976 0.0
C243 C 0.13542 0.4025 1.00974 0.0
C244 C 0.14727 0.44359 0.94399 0.0
C245 C 0.1764 0.44273 0.95616 0.0
C246 C 0.06388 0.38277 0.84889 0.0
O247 O 0.09694 0.40083 0.84384 0.0
H248 H 0.12107 0.38078 0.0411 0.0
H249 H 0.14491 0.46142 0.91284 0.0
O250 O 0.0573 0.38972 0.06542 0.0
H251 H 0.10028 0.52847 0.98913 0.0
H252 H 0.20125 0.46019 0.93682 0.0
Cu253 Cu 0.67508 0.07315 0.29274 0.0
N254 N 0.63533 0.07487 0.29041 0.0
N255 N 0.57994 0.05671 0.28737 0.0
C256 C 0.60387 0.04772 0.28802 0.0
C257 C 0.59718 0.09097 0.28939 0.0
C258 C 0.63136 0.10209 0.29143 0.0
O259 O 0.67366 0.04821 0.21316 0.0
C260 C 0.69592 0.04632 0.40261 0.0
O261 O 0.72265 0.05215 0.36837 0.0
H262 H 0.59878 0.02188 0.28615 0.0
H263 H 0.65183 0.12813 0.29396 0.0
N264 N 0.71208 0.11732 0.28986 0.0
N265 N 0.76057 0.16459 0.31515 0.0
C266 C 0.73781 0.13253 0.33322 0.0
C267 C 0.71866 0.14047 0.24286 0.0
C268 C 0.74851 0.16967 0.25833 0.0
C269 C 0.69887 0.0561 0.17568 0.0
O270 O 0.72935 0.07913 0.19534 0.0
H271 H 0.73962 0.12041 0.37738 0.0
H272 H 0.70294 0.13622 0.20002 0.0
O273 O 0.67394 0.05215 0.3771 0.0
H274 H 0.58594 0.10688 0.29055 0.0
H275 H 0.76072 0.19256 0.22923 0.0
C276 C 0.34783 0.30252 0.3079 0.0
C277 C 0.35909 0.33533 0.28386 0.0
H278 H 0.34534 0.27202 0.38985 0.0
C279 C 0.37643 0.36308 0.32701 0.0
H280 H 0.33428 0.28056 0.27619 0.0
C281 C 0.38254 0.35817 0.39239 0.0
C282 C 0.3716 0.32539 0.41625 0.0
H283 H 0.38533 0.38871 0.31035 0.0
H284 H 0.39624 0.38017 0.42397 0.0
C285 C 0.35408 0.29762 0.37324 0.0
C286 C 0.98985 0.35187 0.73038 0.0
C287 C 1.00559 0.35509 0.66919 0.0
H288 H 0.99563 0.35752 0.83508 0.0
C289 C 0.03992 0.36448 0.66834 0.0
H290 H 0.96335 0.34443 0.73297 0.0
C291 C 0.05843 0.37197 0.72707 0.0
C292 C 0.04302 0.37008 0.78808 0.0
H293 H 0.05278 0.36701 0.6222 0.0
H294 H 0.08512 0.38018 0.72442 0.0
C295 C 1.00831 0.35918 0.78911 0.0
C296 C 0.65624 0.01851 1.0114 0.0
C297 C 0.68359 0.02303 0.9724 0.0
H298 H 0.6394 0.02457 0.10608 0.0
C299 C 0.71584 0.03738 1.00167 0.0
H300 H 0.63099 1.00723 0.99075 0.0
C301 C 0.72071 0.04754 0.06791 0.0
C302 C 0.69336 0.04304 0.10686 0.0
H303 H 0.73743 0.04108 0.97322 0.0
H304 H 0.74598 0.05904 0.08856 0.0
C305 C 0.66101 0.02815 0.07784 0.0
C306 C 0.61993 0.64408 0.31315 0.0
C307 C 0.65387 0.66698 0.29734 0.0
H308 H 0.58085 0.62699 0.38537 0.0
C309 C 0.67491 0.69064 0.34519 0.0
H310 H 0.60306 0.62553 0.27745 0.0
C311 C 0.66227 0.69108 0.40783 0.0
C312 C 0.6282 0.66832 0.42322 0.0
H313 H 0.70125 0.70846 0.33461 0.0
H314 H 0.67903 0.70947 0.44384 0.0
C315 C 0.6072 0.64495 0.37506 0.0
C316 C 0.01132 0.6496 0.77714 0.0
C317 C 0.98125 0.65083 0.77747 0.0
H318 H 0.05129 0.6513 0.72015 0.0
C319 C 0.96982 0.65736 0.718 0.0
H320 H 0.02095 0.64466 0.82186 0.0
C321 C 0.9874 0.66126 0.65918 0.0
C322 C 0.01659 0.65843 0.65866 0.0
H323 H 0.94675 0.65849 0.71647 0.0
H324 H 0.97757 0.66544 0.61392 0.0
C325 C 0.02866 0.65322 0.71854 0.0
C326 C 0.35791 0.99891 0.07175 0.0
C327 C 0.32567 0.98584 0.10007 0.0
H328 H 0.38841 0.01809 0.98528 0.0
C329 C 0.29907 0.98296 0.06057 0.0
H330 H 0.37893 1.0012 0.10044 0.0
C331 C 0.30458 0.99289 0.9944 0.0
C332 C 0.33667 1.00534 0.96583 0.0
H333 H 0.2739 0.97289 0.08071 0.0
H334 H 0.28358 0.99046 0.96545 0.0
C335 C 0.36327 1.00827 1.0054 0.0
C336 C 0.22161 0.4145 0.9888 0.0
C337 C 0.1921 0.40707 1.0235 0.0
H338 H 0.26627 0.41075 0.98509 0.0
C339 C 0.18578 0.39015 0.08399 0.0
H340 H 0.22702 0.42699 0.94159 0.0
C341 C 0.20841 0.38088 0.1091 0.0
C342 C 0.23789 0.38826 0.0743 0.0
H343 H 0.1636 0.3845 0.1125 0.0
H344 H 0.20297 0.36827 0.1562 0.0
C345 C 0.2442 0.40522 1.01386 0.0
C346 C 0.83834 0.19867 0.42113 0.0
C347 C 0.85265 0.23394 0.41424 0.0
H348 H 0.79833 0.14915 0.39471 0.0
C349 C 0.83615 0.24598 0.37358 0.0
H350 H 0.8506 0.18835 0.4508 0.0
C351 C 0.80602 0.2233 0.34107 0.0
C352 C 0.79164 0.18806 0.34853 0.0
H353 H 0.84618 0.27291 0.36767 0.0
H354 H 0.7937 0.23342 0.31096 0.0
C355 C 0.80825 0.17608 0.38885 0.0
C356 C 0.63646 0.83679 0.76706 0.0
C357 C 0.62543 0.85792 0.74022 0.0
H358 H 0.63743 0.79076 0.75916 0.0
C359 C 0.60763 0.84834 0.68019 0.0
H360 H 0.65072 0.84346 0.81253 0.0
C361 C 0.60052 0.81816 0.64861 0.0
C362 C 0.61088 0.79666 0.67632 0.0
H363 H 0.59852 0.86372 0.658 0.0
H364 H 0.58681 0.81176 0.60249 0.0
C365 C 0.62918 0.80658 0.73576 0.0
C366 C 0.80303 0.61603 0.1156 0.0
C367 C 0.77766 0.61738 0.07884 0.0
H368 H 0.84576 0.60879 0.11447 0.0
C369 C 0.77657 0.61231 1.01041 0.0
H370 H 0.80442 0.61935 0.16845 0.0
C371 C 0.80023 0.60617 0.97957 0.0
C372 C 0.82569 0.60502 1.01623 0.0
H373 H 0.7579 0.6138 0.98021 0.0
H374 H 0.79895 0.60301 0.92668 0.0
C375 C 0.8268 0.61 0.08465 0.0
C376 C 0.17429 0.78194 0.34011 0.0
C377 C 0.17269 0.78351 0.40901 0.0
H378 H 0.20178 0.80544 0.25252 0.0
C379 C 0.19875 0.81183 0.44206 0.0
H380 H 0.15488 0.76055 0.31281 0.0
C381 C 0.22606 0.83738 0.40752 0.0
C382 C 0.22805 0.83551 0.33877 0.0
H383 H 0.19824 0.81437 0.49488 0.0
H384 H 0.2459 0.85821 0.4352 0.0
C385 C 0.20155 0.80761 0.30547 0.0
C386 C 0.41585 0.17571 0.66847 0.0
C387 C 0.40028 0.16835 0.73059 0.0
H388 H 0.43478 0.21 0.58748 0.0
C389 C 0.39146 0.19115 0.75795 0.0
H390 H 0.42326 0.159 0.64582 0.0
C391 C 0.39864 0.22078 0.72498 0.0
C392 C 0.41462 0.22843 0.66327 0.0
H393 H 0.37896 0.18623 0.80509 0.0
H394 H 0.39213 0.23791 0.74877 0.0
C395 C 0.42287 0.20532 0.63521 0.0
C396 C 0.39422 0.33531 0.8625 0.0
C397 C 0.38179 0.33812 0.80088 0.0
H398 H 0.39123 0.33797 0.96732 0.0
C399 C 0.35386 0.34299 0.79902 0.0
H400 H 0.41553 0.33124 0.8658 0.0
C401 C 0.33991 0.34684 0.85741 0.0
C402 C 0.35347 0.34575 0.91899 0.0
H403 H 0.34355 0.3451 0.75247 0.0
H404 H 0.31922 0.35186 0.85411 0.0
C405 C 0.38018 0.33899 0.92087 0.0
C406 C 0.02546 0.36951 0.26316 0.0
C407 C 1.00895 0.3359 0.28589 0.0
H408 H 0.04995 0.4033 0.18301 0.0
C409 C 1.00564 0.31017 0.24287 0.0
H410 H 0.02843 0.39 0.29472 0.0
C411 C 0.01814 0.31784 0.17842 0.0
C412 C 0.03399 0.35139 0.15538 0.0
H413 H 0.99304 0.28399 0.25867 0.0
H414 H 0.01492 0.29741 0.14642 0.0
C415 C 0.0377 0.37713 0.1988 0.0
C416 C 0.70847 0.01257 0.56524 0.0
C417 C 0.68439 0.01413 0.60587 0.0
H418 H 0.7312 0.0216 0.46952 0.0
C419 C 0.6646 0.02676 0.57909 0.0
H420 H 0.72408 1.00289 0.58411 0.0
C421 C 0.66827 0.0369 0.51327 0.0
C422 C 0.69213 0.03512 0.47241 0.0
H423 H 0.64562 0.02814 0.60856 0.0
H424 H 0.65233 0.04621 0.49447 0.0
C425 C 0.71248 0.02319 0.49944 0.0
C426 C 0.6334 0.68771 0.87783 0.0
C427 C 0.64574 0.68586 0.81547 0.0
H428 H 0.63513 0.68145 0.98186 0.0
C429 C 0.67263 0.67942 0.81188 0.0
H430 H 0.61289 0.69294 0.88248 0.0
C431 C 0.68539 0.67282 0.86901 0.0
C432 C 0.67166 0.67266 0.93105 0.0
H433 H 0.68286 0.67799 0.76474 0.0
H434 H 0.70513 0.66649 0.86417 0.0
C435 C 0.64626 0.68127 0.93497 0.0
C436 C 0.02894 0.64849 0.21195 0.0
C437 C 0.02318 0.66403 0.26622 0.0
H438 H 0.01648 0.63152 0.11241 0.0
C439 C 1.00034 0.67591 0.25928 0.0
H440 H 0.04631 0.63901 0.21544 0.0
C441 C 0.98346 0.67203 0.19926 0.0
C442 C 0.98867 0.65562 0.1457 0.0
H443 H 0.99547 0.6881 0.30015 0.0
H444 H 0.96574 0.68107 0.19533 0.0
C445 C 0.01173 0.6441 0.15276 0.0
C446 C 0.34985 0.98887 0.50657 0.0
C447 C 0.32515 0.9902 0.46749 0.0
H448 H 0.37393 0.99793 0.60066 0.0
C449 C 0.30481 1.00166 0.49653 0.0
H450 H 0.3658 0.97991 0.4862 0.0
C451 C 0.30967 0.01229 0.5626 0.0
C452 C 0.33458 0.01117 0.60141 0.0
H453 H 0.28548 1.0029 0.46796 0.0
H454 H 0.29406 0.02163 0.5831 0.0
C455 C 0.35434 0.99897 0.57261 0.0
C456 C 0.49063 0.49717 0.13355 0.0
C457 C 0.47229 0.4887 0.07428 0.0
H458 H 0.53978 0.52162 0.17921 0.0
C459 C 0.48999 0.49792 1.01447 0.0
H460 H 0.47748 0.49026 0.18018 0.0
C461 C 0.52533 0.51507 1.01388 0.0
C462 C 0.54373 0.52393 0.0731 0.0
H463 H 0.47645 0.49129 0.96809 0.0
H464 H 0.53832 0.52197 0.96709 0.0
C465 C 0.52609 0.51505 0.13299 0.0
C466 C 0.99344 0.52421 0.4924 0.0
C467 C 0.02494 0.54183 0.46059 0.0
H468 H 0.95201 0.47603 0.52157 0.0
C469 C 0.03796 0.52306 0.4306 0.0
H470 H 0.98281 0.53785 0.51656 0.0
C471 C 0.02032 0.48767 0.43333 0.0
C472 C 0.98915 0.46999 0.4663 0.0
H473 H 0.06177 0.53571 0.40448 0.0
H474 H 0.0311 0.4742 0.40912 0.0
C475 C 0.97576 0.48871 0.49527 0.0
C476 C 0.51788 1.00046 0.70807 0.0
C477 C 0.52715 0.99232 0.76809 0.0
H478 H 0.49399 0.02474 0.66028 0.0
C479 C 0.51856 1.00204 0.82723 0.0
H480 H 0.52457 0.99343 0.66197 0.0
C481 C 0.50043 0.01922 0.82627 0.0
C482 C 0.49174 0.02788 0.76614 0.0
H483 H 0.52559 0.99598 0.87392 0.0
H484 H 0.49367 0.02629 0.87223 0.0
C485 C 0.50072 0.01849 0.7071 0.0
C486 C 0.49458 0.52361 0.65998 0.0
C487 C 0.52627 0.54729 0.63359 0.0
H488 H 0.45862 0.47138 0.67843 0.0
C489 C 0.54615 0.53513 0.60503 0.0
H490 H 0.47869 0.5318 0.6834 0.0
C491 C 0.53469 0.50038 0.60292 0.0
C492 C 0.50291 0.47685 0.62869 0.0
H493 H 0.57041 0.55229 0.58321 0.0
H494 H 0.55041 0.49189 0.57979 0.0
C495 C 0.483 0.48886 0.65727 0.0
C496 C 0.97245 0.48353 0.96941 0.0
C497 C 0.98311 0.51681 0.9491 0.0
H498 H 0.98663 0.44657 0.99085 0.0
C499 C 0.01722 0.53798 0.93133 0.0
H500 H 0.94654 0.46663 0.98417 0.0
C501 C 0.04024 0.52652 0.93557 0.0
C502 C 0.02972 0.49352 0.95716 0.0
H503 H 0.02624 0.56349 0.91404 0.0
H504 H 0.0663 0.54347 0.92169 0.0
C505 C 0.99548 0.47201 0.97329 0.0
C506 C 0.52247 0.04548 0.25972 0.0
C507 C 0.54369 0.03439 0.28561 0.0
H508 H 0.47189 0.03319 0.2371 0.0
C509 C 0.52889 1.00111 0.30982 0.0
H510 H 0.53299 0.07072 0.23968 0.0
C511 C 0.49376 0.97953 0.30843 0.0
C512 C 0.47252 0.99068 0.2828 0.0
H513 H 0.54437 0.99186 0.33104 0.0
H514 H 0.48326 0.95434 0.32864 0.0
C515 C 0.48735 0.0239 0.25826 0.0
loop_
_geom_bond_atom_site_label_1
_geom_bond_atom_site_label_2
_geom_bond_distance
_geom_bond_site_symmetry_2
_ccdc_geom_bond_type
Cu0 N1 1.999 . S
Cu0 O6 1.974 . S
Cu0 N11 1.985 . S
Cu0 O20 1.959 1_554 S
N1 Cu0 1.999 . S
N1 C3 1.263 . S
N1 C5 1.389 . S
N2 C3 1.358 . S
N2 C4 1.400 . S
C3 N1 1.263 . S
C3 N2 1.358 . S
C3 H9 0.930 . S
C4 N2 1.400 . S
C4 C5 1.351 . S
C4 H21 0.930 . S
C5 N1 1.389 . S
C5 C4 1.351 . S
C5 H10 0.930 . S
O6 Cu0 1.974 . S
O6 C16 1.282 . S
C7 O8 1.261 . S
C7 O20 1.251 . S
O8 C7 1.261 . S
H9 C3 0.930 . S
H10 C5 0.930 . S
N11 Cu0 1.985 . S
N11 C13 1.335 . S
N11 C14 1.390 . S
N12 C13 1.345 . S
N12 C15 1.336 . S
C13 N11 1.335 . S
C13 N12 1.345 . S
C13 H18 0.930 . S
C14 N11 1.390 . S
C14 C15 1.346 . S
C14 H19 0.930 . S
C15 N12 1.336 . S
C15 C14 1.346 . S
C15 H22 0.929 . S
C16 O6 1.282 . S
C16 O17 1.216 . S
O17 C16 1.216 . S
H18 C13 0.930 . S
H19 C14 0.930 . S
O20 Cu0 1.959 1_556 S
O20 C7 1.251 . S
H21 C4 0.930 . S
H22 C15 0.929 . S
Cu23 N24 1.999 . S
Cu23 O29 1.974 . S
Cu23 N34 1.985 . S
Cu23 O43 1.959 . S
N24 Cu23 1.999 . S
N24 C26 1.263 1_655 S
N24 C28 1.389 . S
N25 C26 1.358 . S
N25 C27 1.400 1_455 S
C26 N24 1.263 1_455 S
C26 N25 1.358 . S
C26 H32 0.930 . S
C27 N25 1.400 1_655 S
C27 C28 1.351 . S
C27 H44 0.929 1_655 S
C28 N24 1.389 . S
C28 C27 1.351 . S
C28 H33 0.930 . S
O29 Cu23 1.974 . S
O29 C39 1.282 . S
C30 O31 1.261 1_655 S
C30 O43 1.251 . S
O31 C30 1.261 1_455 S
H32 C26 0.930 . S
H33 C28 0.930 . S
N34 Cu23 1.985 . S
N34 C36 1.335 . S
N34 C37 1.390 . S
N35 C36 1.345 . S
N35 C38 1.336 . S
C36 N34 1.335 . S
C36 N35 1.345 . S
C36 H41 0.930 . S
C37 N34 1.390 . S
C37 C38 1.346 . S
C37 H42 0.930 . S
C38 N35 1.336 . S
C38 C37 1.346 . S
C38 H45 0.929 . S
C39 O29 1.282 . S
C39 O40 1.216 1_655 S
O40 C39 1.216 1_455 S
H41 C36 0.930 . S
H42 C37 0.930 . S
O43 Cu23 1.959 . S
O43 C30 1.251 . S
H44 C27 0.929 1_455 S
H45 C38 0.929 . S
Cu46 N47 1.999 . S
Cu46 O52 1.974 . S
Cu46 N57 1.985 . S
Cu46 O66 1.959 . S
N47 Cu46 1.999 . S
N47 C49 1.263 1_565 S
N47 C51 1.389 . S
N48 C49 1.358 . S
N48 C50 1.400 1_545 S
C49 N47 1.263 1_545 S
C49 N48 1.358 . S
C49 H55 0.930 . S
C50 N48 1.400 1_565 S
C50 C51 1.351 . S
C50 H67 0.932 1_565 S
C51 N47 1.389 . S
C51 C50 1.351 . S
C51 H56 0.930 . S
O52 Cu46 1.974 . S
O52 C62 1.282 . S
C53 O54 1.261 1_565 S
C53 O66 1.251 . S
O54 C53 1.261 1_545 S
H55 C49 0.930 . S
H56 C51 0.930 . S
N57 Cu46 1.985 . S
N57 C59 1.335 . S
N57 C60 1.390 . S
N58 C59 1.345 . S
N58 C61 1.336 . S
C59 N57 1.335 . S
C59 N58 1.345 . S
C59 H64 0.930 . S
C60 N57 1.390 . S
C60 C61 1.346 . S
C60 H65 0.930 . S
C61 N58 1.336 . S
C61 C60 1.346 . S
C61 H68 0.929 . S
C62 O52 1.282 . S
C62 O63 1.216 1_565 S
O63 C62 1.216 1_545 S
H64 C59 0.930 . S
H65 C60 0.930 . S
O66 Cu46 1.959 . S
O66 C53 1.251 . S
H67 C50 0.932 1_545 S
H68 C61 0.929 . S
Cu69 N70 1.999 . S
Cu69 O75 1.974 . S
Cu69 N80 1.985 . S
Cu69 O89 1.959 1_554 S
N70 Cu69 1.999 . S
N70 C72 1.263 . S
N70 C74 1.389 . S
N71 C72 1.358 . S
N71 C73 1.400 . S
C72 N70 1.263 . S
C72 N71 1.358 . S
C72 H78 0.930 . S
C73 N71 1.400 . S
C73 C74 1.351 . S
C73 H90 0.930 . S
C74 N70 1.389 . S
C74 C73 1.351 . S
C74 H79 0.930 . S
O75 Cu69 1.974 . S
O75 C85 1.282 . S
C76 O77 1.261 . S
C76 O89 1.251 . S
O77 C76 1.261 . S
H78 C72 0.930 . S
H79 C74 0.930 . S
N80 Cu69 1.985 . S
N80 C82 1.335 . S
N80 C83 1.390 . S
N81 C82 1.345 . S
N81 C84 1.336 . S
C82 N80 1.335 . S
C82 N81 1.345 . S
C82 H87 0.930 . S
C83 N80 1.390 . S
C83 C84 1.346 . S
C83 H88 0.930 . S
C84 N81 1.336 . S
C84 C83 1.346 . S
C84 H91 0.929 . S
C85 O75 1.282 . S
C85 O86 1.216 . S
O86 C85 1.216 . S
H87 C82 0.930 . S
H88 C83 0.930 . S
O89 Cu69 1.959 1_556 S
O89 C76 1.251 . S
H90 C73 0.930 . S
H91 C84 0.929 . S
Cu92 N93 1.999 . S
Cu92 O98 1.974 . S
Cu92 N103 1.985 . S
Cu92 O112 1.959 . S
N93 Cu92 1.999 . S
N93 C95 1.263 1_455 S
N93 C97 1.389 . S
N94 C95 1.358 . S
N94 C96 1.400 1_655 S
C95 N93 1.263 1_655 S
C95 N94 1.358 . S
C95 H101 0.930 . S
C96 N94 1.400 1_455 S
C96 C97 1.351 . S
C96 H113 0.929 1_455 S
C97 N93 1.389 . S
C97 C96 1.351 . S
C97 H102 0.930 . S
O98 Cu92 1.974 . S
O98 C108 1.282 . S
C99 O100 1.261 1_455 S
C99 O112 1.251 . S
O100 C99 1.261 1_655 S
H101 C95 0.930 . S
H102 C97 0.930 . S
N103 Cu92 1.985 . S
N103 C105 1.335 . S
N103 C106 1.390 . S
N104 C105 1.345 . S
N104 C107 1.336 . S
C105 N103 1.335 . S
C105 N104 1.345 . S
C105 H110 0.930 . S
C106 N103 1.390 . S
C106 C107 1.346 . S
C106 H111 0.930 . S
C107 N104 1.336 . S
C107 C106 1.346 . S
C107 H114 0.929 . S
C108 O98 1.282 . S
C108 O109 1.216 1_455 S
O109 C108 1.216 1_655 S
H110 C105 0.930 . S
H111 C106 0.930 . S
O112 Cu92 1.959 . S
O112 C99 1.251 . S
H113 C96 0.929 1_655 S
H114 C107 0.929 . S
Cu115 N116 1.999 . S
Cu115 O121 1.974 . S
Cu115 N126 1.985 . S
Cu115 O135 1.959 . S
N116 Cu115 1.999 . S
N116 C118 1.263 1_545 S
N116 C120 1.389 . S
N117 C118 1.358 . S
N117 C119 1.400 1_565 S
C118 N116 1.263 1_565 S
C118 N117 1.358 . S
C118 H124 0.930 . S
C119 N117 1.400 1_545 S
C119 C120 1.351 . S
C119 H136 0.932 1_545 S
C120 N116 1.389 . S
C120 C119 1.351 . S
C120 H125 0.930 . S
O121 Cu115 1.974 . S
O121 C131 1.282 . S
C122 O123 1.261 1_545 S
C122 O135 1.251 . S
O123 C122 1.261 1_565 S
H124 C118 0.930 . S
H125 C120 0.930 . S
N126 Cu115 1.985 . S
N126 C128 1.335 . S
N126 C129 1.390 . S
N127 C128 1.345 . S
N127 C130 1.336 . S
C128 N126 1.335 . S
C128 N127 1.345 . S
C128 H133 0.930 . S
C129 N126 1.390 . S
C129 C130 1.346 . S
C129 H134 0.930 . S
C130 N127 1.336 . S
C130 C129 1.346 . S
C130 H137 0.929 . S
C131 O121 1.282 . S
C131 O132 1.216 1_545 S
O132 C131 1.216 1_565 S
H133 C128 0.930 . S
H134 C129 0.930 . S
O135 Cu115 1.959 . S
O135 C122 1.251 . S
H136 C119 0.932 1_565 S
H137 C130 0.929 . S
Cu138 N139 1.999 . S
Cu138 O144 1.974 . S
Cu138 N149 1.985 . S
Cu138 O158 1.959 . S
N139 Cu138 1.999 . S
N139 C141 1.263 . S
N139 C143 1.389 . S
N140 C141 1.358 . S
N140 C142 1.400 . S
C141 N139 1.263 . S
C141 N140 1.358 . S
C141 H147 0.930 . S
C142 N140 1.400 . S
C142 C143 1.351 . S
C142 H159 0.930 . S
C143 N139 1.389 . S
C143 C142 1.351 . S
C143 H148 0.930 . S
O144 Cu138 1.974 . S
O144 C154 1.282 . S
C145 O146 1.261 . S
C145 O158 1.251 . S
O146 C145 1.261 . S
H147 C141 0.930 . S
H148 C143 0.930 . S
N149 Cu138 1.985 . S
N149 C151 1.335 . S
N149 C152 1.390 . S
N150 C151 1.345 . S
N150 C153 1.336 . S
C151 N149 1.335 . S
C151 N150 1.345 . S
C151 H156 0.930 . S
C152 N149 1.390 . S
C152 C153 1.346 . S
C152 H157 0.930 . S
C153 N150 1.336 . S
C153 C152 1.346 . S
C153 H160 0.929 . S
C154 O144 1.282 . S
C154 O155 1.216 . S
O155 C154 1.216 . S
H156 C151 0.930 . S
H157 C152 0.930 . S
O158 Cu138 1.959 . S
O158 C145 1.251 . S
H159 C142 0.930 . S
H160 C153 0.929 . S
Cu161 N162 1.999 . S
Cu161 O167 1.974 . S
Cu161 N172 1.985 . S
Cu161 O181 1.959 1_556 S
N162 Cu161 1.999 . S
N162 C164 1.263 1_655 S
N162 C166 1.389 . S
N163 C164 1.358 . S
N163 C165 1.400 1_455 S
C164 N162 1.263 1_455 S
C164 N163 1.358 . S
C164 H170 0.930 . S
C165 N163 1.400 1_655 S
C165 C166 1.351 . S
C165 H182 0.932 1_655 S
C166 N162 1.389 . S
C166 C165 1.351 . S
C166 H171 0.930 . S
O167 Cu161 1.974 . S
O167 C177 1.282 . S
C168 O169 1.261 1_655 S
C168 O181 1.251 . S
O169 C168 1.261 1_455 S
H170 C164 0.930 . S
H171 C166 0.930 . S
N172 Cu161 1.985 . S
N172 C174 1.335 . S
N172 C175 1.390 . S
N173 C174 1.345 . S
N173 C176 1.336 . S
C174 N172 1.335 . S
C174 N173 1.345 . S
C174 H179 0.930 . S
C175 N172 1.390 . S
C175 C176 1.346 . S
C175 H180 0.930 . S
C176 N173 1.336 . S
C176 C175 1.346 . S
C176 H183 0.929 . S
C177 O167 1.282 . S
C177 O178 1.216 1_655 S
O178 C177 1.216 1_455 S
H179 C174 0.930 . S
H180 C175 0.930 . S
O181 Cu161 1.959 1_554 S
O181 C168 1.251 . S
H182 C165 0.932 1_455 S
H183 C176 0.929 . S
Cu184 N185 1.999 . S
Cu184 O190 1.974 . S
Cu184 N195 1.985 . S
Cu184 O204 1.959 . S
N185 Cu184 1.999 . S
N185 C187 1.263 1_565 S
N185 C189 1.389 . S
N186 C187 1.358 . S
N186 C188 1.400 1_545 S
C187 N185 1.263 1_545 S
C187 N186 1.358 . S
C187 H193 0.930 . S
C188 N186 1.400 1_565 S
C188 C189 1.351 . S
C188 H205 0.929 1_565 S
C189 N185 1.389 . S
C189 C188 1.351 . S
C189 H194 0.930 . S
O190 Cu184 1.974 . S
O190 C200 1.282 . S
C191 O192 1.261 1_565 S
C191 O204 1.251 . S
O192 C191 1.261 1_545 S
H193 C187 0.930 . S
H194 C189 0.930 . S
N195 Cu184 1.985 . S
N195 C197 1.335 . S
N195 C198 1.390 . S
N196 C197 1.345 . S
N196 C199 1.336 . S
C197 N195 1.335 . S
C197 N196 1.345 . S
C197 H202 0.930 . S
C198 N195 1.390 . S
C198 C199 1.346 . S
C198 H203 0.930 . S
C199 N196 1.336 . S
C199 C198 1.346 . S
C199 H206 0.929 . S
C200 O190 1.282 . S
C200 O201 1.216 1_565 S
O201 C200 1.216 1_545 S
H202 C197 0.930 . S
H203 C198 0.930 . S
O204 Cu184 1.959 . S
O204 C191 1.251 . S
H205 C188 0.929 1_545 S
H206 C199 0.929 . S
Cu207 N208 1.999 . S
Cu207 O213 1.974 . S
Cu207 N218 1.985 . S
Cu207 O227 1.959 . S
N208 Cu207 1.999 . S
N208 C210 1.263 . S
N208 C212 1.389 . S
N209 C210 1.358 . S
N209 C211 1.400 . S
C210 N208 1.263 . S
C210 N209 1.358 . S
C210 H216 0.930 . S
C211 N209 1.400 . S
C211 C212 1.351 . S
C211 H228 0.930 . S
C212 N208 1.389 . S
C212 C211 1.351 . S
C212 H217 0.930 . S
O213 Cu207 1.974 . S
O213 C223 1.282 . S
C214 O215 1.261 . S
C214 O227 1.251 . S
O215 C214 1.261 . S
H216 C210 0.930 . S
H217 C212 0.930 . S
N218 Cu207 1.985 . S
N218 C220 1.335 . S
N218 C221 1.390 . S
N219 C220 1.345 . S
N219 C222 1.336 . S
C220 N218 1.335 . S
C220 N219 1.345 . S
C220 H225 0.930 . S
C221 N218 1.390 . S
C221 C222 1.346 . S
C221 H226 0.930 . S
C222 N219 1.336 . S
C222 C221 1.346 . S
C222 H229 0.929 . S
C223 O213 1.282 . S
C223 O224 1.216 . S
O224 C223 1.216 . S
H225 C220 0.930 . S
H226 C221 0.930 . S
O227 Cu207 1.959 . S
O227 C214 1.251 . S
H228 C211 0.930 . S
H229 C222 0.929 . S
Cu230 N231 1.999 . S
Cu230 O236 1.974 . S
Cu230 N241 1.985 . S
Cu230 O250 1.959 1_556 S
N231 Cu230 1.999 . S
N231 C233 1.263 1_455 S
N231 C235 1.389 . S
N232 C233 1.358 . S
N232 C234 1.400 1_655 S
C233 N231 1.263 1_655 S
C233 N232 1.358 . S
C233 H239 0.930 . S
C234 N232 1.400 1_455 S
C234 C235 1.351 . S
C234 H251 0.932 1_455 S
C235 N231 1.389 . S
C235 C234 1.351 . S
C235 H240 0.930 . S
O236 Cu230 1.974 . S
O236 C246 1.282 . S
C237 O238 1.261 1_455 S
C237 O250 1.251 . S
O238 C237 1.261 1_655 S
H239 C233 0.930 . S
H240 C235 0.930 . S
N241 Cu230 1.985 . S
N241 C243 1.335 . S
N241 C244 1.390 . S
N242 C243 1.345 . S
N242 C245 1.336 . S
C243 N241 1.335 . S
C243 N242 1.345 . S
C243 H248 0.930 . S
C244 N241 1.390 . S
C244 C245 1.346 . S
C244 H249 0.930 . S
C245 N242 1.336 . S
C245 C244 1.346 . S
C245 H252 0.929 . S
C246 O236 1.282 . S
C246 O247 1.216 1_455 S
O247 C246 1.216 1_655 S
H248 C243 0.930 . S
H249 C244 0.930 . S
O250 Cu230 1.959 1_554 S
O250 C237 1.251 . S
H251 C234 0.932 1_655 S
H252 C245 0.929 . S
Cu253 N254 1.999 . S
Cu253 O259 1.974 . S
Cu253 N264 1.985 . S
Cu253 O273 1.959 . S
N254 Cu253 1.999 . S
N254 C256 1.263 1_545 S
N254 C258 1.389 . S
N255 C256 1.358 . S
N255 C257 1.400 1_565 S
C256 N254 1.263 1_565 S
C256 N255 1.358 . S
C256 H262 0.930 . S
C257 N255 1.400 1_545 S
C257 C258 1.351 . S
C257 H274 0.929 1_545 S
C258 N254 1.389 . S
C258 C257 1.351 . S
C258 H263 0.930 . S
O259 Cu253 1.974 . S
O259 C269 1.282 . S
C260 O261 1.261 1_545 S
C260 O273 1.251 . S
O261 C260 1.261 1_565 S
H262 C256 0.930 . S
H263 C258 0.930 . S
N264 Cu253 1.985 . S
N264 C266 1.335 . S
N264 C267 1.390 . S
N265 C266 1.345 . S
N265 C268 1.336 . S
C266 N264 1.335 . S
C266 N265 1.345 . S
C266 H271 0.930 . S
C267 N264 1.390 . S
C267 C268 1.346 . S
C267 H272 0.930 . S
C268 N265 1.336 . S
C268 C267 1.346 . S
C268 H275 0.929 . S
C269 O259 1.282 . S
C269 O270 1.216 1_545 S
O270 C269 1.216 1_565 S
H271 C266 0.930 . S
H272 C267 0.930 . S
O273 Cu253 1.959 . S
O273 C260 1.251 . S
H274 C257 0.929 1_565 S
H275 C268 0.929 . S
C276 C277 1.387 . S
C276 H280 0.950 . S
C276 C285 1.390 . S
C277 C276 1.387 . S
C277 C279 1.387 . S
H278 C285 0.950 . S
C279 C277 1.387 . S
C279 C281 1.390 . S
C279 H283 0.950 . S
H280 C276 0.950 . S
C281 C279 1.390 . S
C281 C282 1.387 . S
C281 H284 0.950 . S
C282 C281 1.387 . S
C282 C285 1.387 . S
H283 C279 0.950 . S
H284 C281 0.950 . S
C285 C276 1.390 . S
C285 H278 0.950 . S
C285 C282 1.387 . S
C286 C287 1.387 1_455 S
C286 H290 0.950 . S
C286 C295 1.390 . S
C287 C286 1.387 1_655 S
C287 C289 1.387 . S
H288 C295 0.950 . S
C289 C287 1.387 . S
C289 C291 1.390 . S
C289 H293 0.950 . S
H290 C286 0.950 . S
C291 C289 1.390 . S
C291 C292 1.387 1_655 S
C291 H294 0.950 . S
C292 C291 1.387 1_455 S
C292 C295 1.387 . S
H293 C289 0.950 . S
H294 C291 0.950 . S
C295 C286 1.390 . S
C295 H288 0.950 . S
C295 C292 1.387 . S
C296 C297 1.387 . S
C296 H300 0.950 . S
C296 C305 1.390 1_566 S
C297 C296 1.387 . S
C297 C299 1.387 . S
H298 C305 0.950 . S
C299 C297 1.387 . S
C299 C301 1.390 1_566 S
C299 H303 0.950 . S
H300 C296 0.950 . S
C301 C299 1.390 1_544 S
C301 C302 1.387 . S
C301 H304 0.950 . S
C302 C301 1.387 . S
C302 C305 1.387 . S
H303 C299 0.950 . S
H304 C301 0.950 . S
C305 C296 1.390 1_544 S
C305 H298 0.950 . S
C305 C302 1.387 . S
C306 C307 1.387 . S
C306 H310 0.950 . S
C306 C315 1.390 . S
C307 C306 1.387 . S
C307 C309 1.387 . S
H308 C315 0.950 . S
C309 C307 1.387 . S
C309 C311 1.390 . S
C309 H313 0.950 . S
H310 C306 0.950 . S
C311 C309 1.390 . S
C311 C312 1.387 . S
C311 H314 0.950 . S
C312 C311 1.387 . S
C312 C315 1.387 . S
H313 C309 0.950 . S
H314 C311 0.950 . S
C315 C306 1.390 . S
C315 H308 0.950 . S
C315 C312 1.387 . S
C316 C317 1.387 . S
C316 H320 0.950 . S
C316 C325 1.390 . S
C317 C316 1.387 . S
C317 C319 1.387 1_655 S
H318 C325 0.950 . S
C319 C317 1.387 1_455 S
C319 C321 1.390 . S
C319 H323 0.950 . S
H320 C316 0.950 . S
C321 C319 1.390 . S
C321 C322 1.387 . S
C321 H324 0.950 . S
C322 C321 1.387 . S
C322 C325 1.387 1_455 S
H323 C319 0.950 . S
H324 C321 0.950 . S
C325 C316 1.390 . S
C325 H318 0.950 . S
C325 C322 1.387 1_655 S
C326 C327 1.387 . S
C326 H330 0.950 . S
C326 C335 1.390 1_564 S
C327 C326 1.387 . S
C327 C329 1.387 . S
H328 C335 0.950 . S
C329 C327 1.387 . S
C329 C331 1.390 1_564 S
C329 H333 0.950 . S
H330 C326 0.950 . S
C331 C329 1.390 1_546 S
C331 C332 1.387 . S
C331 H334 0.950 . S
C332 C331 1.387 . S
C332 C335 1.387 . S
H333 C329 0.950 . S
H334 C331 0.950 . S
C335 C326 1.390 1_546 S
C335 H328 0.950 . S
C335 C332 1.387 . S
C336 C337 1.387 . S
C336 H340 0.950 . S
C336 C345 1.390 1_556 S
C337 C336 1.387 . S
C337 C339 1.387 . S
H338 C345 0.950 . S
C339 C337 1.387 . S
C339 C341 1.390 1_556 S
C339 H343 0.950 . S
H340 C336 0.950 . S
C341 C339 1.390 1_554 S
C341 C342 1.387 . S
C341 H344 0.950 . S
C342 C341 1.387 . S
C342 C345 1.387 . S
H343 C339 0.950 . S
H344 C341 0.950 . S
C345 C336 1.390 1_554 S
C345 H338 0.950 . S
C345 C342 1.387 . S
C346 C347 1.387 . S
C346 H350 0.950 . S
C346 C355 1.390 . S
C347 C346 1.387 . S
C347 C349 1.387 . S
H348 C355 0.950 . S
C349 C347 1.387 . S
C349 C351 1.390 . S
C349 H353 0.950 . S
H350 C346 0.950 . S
C351 C349 1.390 . S
C351 C352 1.387 . S
C351 H354 0.950 . S
C352 C351 1.387 . S
C352 C355 1.387 . S
H353 C349 0.950 . S
H354 C351 0.950 . S
C355 C346 1.390 . S
C355 H348 0.950 . S
C355 C352 1.387 . S
C356 C357 1.387 . S
C356 H360 0.950 . S
C356 C365 1.390 . S
C357 C356 1.387 . S
C357 C359 1.387 . S
H358 C365 0.950 . S
C359 C357 1.387 . S
C359 C361 1.390 . S
C359 H363 0.950 . S
H360 C356 0.950 . S
C361 C359 1.390 . S
C361 C362 1.387 . S
C361 H364 0.950 . S
C362 C361 1.387 . S
C362 C365 1.387 . S
H363 C359 0.950 . S
H364 C361 0.950 . S
C365 C356 1.390 . S
C365 H358 0.950 . S
C365 C362 1.387 . S
C366 C367 1.387 . S
C366 H370 0.950 . S
C366 C375 1.390 1_554 S
C367 C366 1.387 . S
C367 C369 1.387 . S
H368 C375 0.950 . S
C369 C367 1.387 . S
C369 C371 1.390 1_554 S
C369 H373 0.950 . S
H370 C366 0.950 . S
C371 C369 1.390 1_556 S
C371 C372 1.387 . S
C371 H374 0.950 . S
C372 C371 1.387 . S
C372 C375 1.387 . S
H373 C369 0.950 . S
H374 C371 0.950 . S
C375 C366 1.390 1_556 S
C375 H368 0.950 . S
C375 C372 1.387 . S
C376 C377 1.387 . S
C376 H380 0.950 . S
C376 C385 1.390 . S
C377 C376 1.387 . S
C377 C379 1.387 . S
H378 C385 0.950 . S
C379 C377 1.387 . S
C379 C381 1.390 . S
C379 H383 0.950 . S
H380 C376 0.950 . S
C381 C379 1.390 . S
C381 C382 1.387 . S
C381 H384 0.950 . S
C382 C381 1.387 . S
C382 C385 1.387 . S
H383 C379 0.950 . S
H384 C381 0.950 . S
C385 C376 1.390 . S
C385 H378 0.950 . S
C385 C382 1.387 . S
C386 C387 1.387 . S
C386 H390 0.950 . S
C386 C395 1.390 . S
C387 C386 1.387 . S
C387 C389 1.387 . S
H388 C395 0.950 . S
C389 C387 1.387 . S
C389 C391 1.390 . S
C389 H393 0.950 . S
H390 C386 0.950 . S
C391 C389 1.390 . S
C391 C392 1.387 . S
C391 H394 0.950 . S
C392 C391 1.387 . S
C392 C395 1.387 . S
H393 C389 0.950 . S
H394 C391 0.950 . S
C395 C386 1.390 . S
C395 H388 0.950 . S
C395 C392 1.387 . S
C396 C397 1.387 . S
C396 H400 0.950 . S
C396 C405 1.390 . S
C397 C396 1.387 . S
C397 C399 1.387 . S
H398 C405 0.950 . S
C399 C397 1.387 . S
C399 C401 1.390 . S
C399 H403 0.950 . S
H400 C396 0.950 . S
C401 C399 1.390 . S
C401 C402 1.387 . S
C401 H404 0.950 . S
C402 C401 1.387 . S
C402 C405 1.387 . S
H403 C399 0.950 . S
H404 C401 0.950 . S
C405 C396 1.390 . S
C405 H398 0.950 . S
C405 C402 1.387 . S
C406 C407 1.387 1_455 S
C406 H410 0.950 . S
C406 C415 1.390 . S
C407 C406 1.387 1_655 S
C407 C409 1.387 . S
H408 C415 0.950 . S
C409 C407 1.387 . S
C409 C411 1.390 . S
C409 H413 0.950 . S
H410 C406 0.950 . S
C411 C409 1.390 . S
C411 C412 1.387 1_655 S
C411 H414 0.950 . S
C412 C411 1.387 1_455 S
C412 C415 1.387 . S
H413 C409 0.950 . S
H414 C411 0.950 . S
C415 C406 1.390 . S
C415 H408 0.950 . S
C415 C412 1.387 . S
C416 C417 1.387 . S
C416 H420 0.950 . S
C416 C425 1.390 1_565 S
C417 C416 1.387 . S
C417 C419 1.387 . S
H418 C425 0.950 . S
C419 C417 1.387 . S
C419 C421 1.390 1_565 S
C419 H423 0.950 . S
H420 C416 0.950 . S
C421 C419 1.390 1_545 S
C421 C422 1.387 . S
C421 H424 0.950 . S
C422 C421 1.387 . S
C422 C425 1.387 . S
H423 C419 0.950 . S
H424 C421 0.950 . S
C425 C416 1.390 1_545 S
C425 H418 0.950 . S
C425 C422 1.387 . S
C426 C427 1.387 . S
C426 H430 0.950 . S
C426 C435 1.390 . S
C427 C426 1.387 . S
C427 C429 1.387 . S
H428 C435 0.950 . S
C429 C427 1.387 . S
C429 C431 1.390 . S
C429 H433 0.950 . S
H430 C426 0.950 . S
C431 C429 1.390 . S
C431 C432 1.387 . S
C431 H434 0.950 . S
C432 C431 1.387 . S
C432 C435 1.387 . S
H433 C429 0.950 . S
H434 C431 0.950 . S
C435 C426 1.390 . S
C435 H428 0.950 . S
C435 C432 1.387 . S
C436 C437 1.387 1_655 S
C436 H440 0.950 . S
C436 C445 1.390 . S
C437 C436 1.387 1_455 S
C437 C439 1.387 . S
H438 C445 0.950 . S
C439 C437 1.387 . S
C439 C441 1.390 . S
C439 H443 0.950 . S
H440 C436 0.950 . S
C441 C439 1.390 . S
C441 C442 1.387 1_455 S
C441 H444 0.950 . S
C442 C441 1.387 1_655 S
C442 C445 1.387 . S
H443 C439 0.950 . S
H444 C441 0.950 . S
C445 C436 1.390 . S
C445 H438 0.950 . S
C445 C442 1.387 . S
C446 C447 1.387 . S
C446 H450 0.950 . S
C446 C455 1.390 1_565 S
C447 C446 1.387 . S
C447 C449 1.387 . S
H448 C455 0.950 . S
C449 C447 1.387 . S
C449 C451 1.390 1_565 S
C449 H453 0.950 . S
H450 C446 0.950 . S
C451 C449 1.390 1_545 S
C451 C452 1.387 . S
C451 H454 0.950 . S
C452 C451 1.387 . S
C452 C455 1.387 . S
H453 C449 0.950 . S
H454 C451 0.950 . S
C455 C446 1.390 1_545 S
C455 H448 0.950 . S
C455 C452 1.387 . S
C456 C457 1.387 . S
C456 H460 0.950 . S
C456 C465 1.390 . S
C457 C456 1.387 . S
C457 C459 1.387 . S
H458 C465 0.950 . S
C459 C457 1.387 . S
C459 C461 1.390 . S
C459 H463 0.950 . S
H460 C456 0.950 . S
C461 C459 1.390 . S
C461 C462 1.387 . S
C461 H464 0.950 . S
C462 C461 1.387 . S
C462 C465 1.387 . S
H463 C459 0.950 . S
H464 C461 0.950 . S
C465 C456 1.390 . S
C465 H458 0.950 . S
C465 C462 1.387 . S
C466 C467 1.387 . S
C466 H470 0.950 . S
C466 C475 1.390 1_655 S
C467 C466 1.387 . S
C467 C469 1.387 . S
H468 C475 0.950 . S
C469 C467 1.387 . S
C469 C471 1.390 1_655 S
C469 H473 0.950 . S
H470 C466 0.950 . S
C471 C469 1.390 1_455 S
C471 C472 1.387 . S
C471 H474 0.950 . S
C472 C471 1.387 . S
C472 C475 1.387 . S
H473 C469 0.950 . S
H474 C471 0.950 . S
C475 C466 1.390 1_455 S
C475 H468 0.950 . S
C475 C472 1.387 . S
C476 C477 1.387 . S
C476 H480 0.950 . S
C476 C485 1.390 1_545 S
C477 C476 1.387 . S
C477 C479 1.387 . S
H478 C485 0.950 . S
C479 C477 1.387 . S
C479 C481 1.390 1_545 S
C479 H483 0.950 . S
H480 C476 0.950 . S
C481 C479 1.390 1_565 S
C481 C482 1.387 . S
C481 H484 0.950 . S
C482 C481 1.387 . S
C482 C485 1.387 . S
H483 C479 0.950 . S
H484 C481 0.950 . S
C485 C476 1.390 1_565 S
C485 H478 0.950 . S
C485 C482 1.387 . S
C486 C487 1.387 . S
C486 H490 0.950 . S
C486 C495 1.390 . S
C487 C486 1.387 . S
C487 C489 1.387 . S
H488 C495 0.950 . S
C489 C487 1.387 . S
C489 C491 1.390 . S
C489 H493 0.950 . S
H490 C486 0.950 . S
C491 C489 1.390 . S
C491 C492 1.387 . S
C491 H494 0.950 . S
C492 C491 1.387 . S
C492 C495 1.387 . S
H493 C489 0.950 . S
H494 C491 0.950 . S
C495 C486 1.390 . S
C495 H488 0.950 . S
C495 C492 1.387 . S
C496 C497 1.387 . S
C496 H500 0.950 . S
C496 C505 1.390 1_455 S
C497 C496 1.387 . S
C497 C499 1.387 . S
H498 C505 0.950 . S
C499 C497 1.387 . S
C499 C501 1.390 1_455 S
C499 H503 0.950 . S
H500 C496 0.950 . S
C501 C499 1.390 1_655 S
C501 C502 1.387 . S
C501 H504 0.950 . S
C502 C501 1.387 . S
C502 C505 1.387 . S
H503 C499 0.950 . S
H504 C501 0.950 . S
C505 C496 1.390 1_655 S
C505 H498 0.950 . S
C505 C502 1.387 . S
C506 C507 1.387 . S
C506 H510 0.950 . S
C506 C515 1.390 1_565 S
C507 C506 1.387 . S
C507 C509 1.387 . S
H508 C515 0.950 . S
C509 C507 1.387 . S
C509 C511 1.390 1_565 S
C509 H513 0.950 . S
H510 C506 0.950 . S
C511 C509 1.390 1_545 S
C511 C512 1.387 . S
C511 H514 0.950 . S
C512 C511 1.387 . S
C512 C515 1.387 . S
H513 C509 0.950 . S
H514 C511 0.950 . S
C515 C506 1.390 1_545 S
C515 H508 0.950 . S
C515 C512 1.387 . S
C277 C16 1.503 . S
C282 C223 1.503 . S
C287 C39 1.500 . S
C292 C246 1.501 . S
C297 C62 1.500 . S
C302 C269 1.500 . S
C307 C85 1.501 . S
C312 C154 1.500 . S
C317 C177 1.501 . S
C322 C108 1.500 . S
C327 C200 1.500 . S
C332 C131 1.500 . S
C337 N242 2.100 . S
C342 N12 2.100 . S
C347 N35 2.101 . S
C352 N265 2.100 . S
C357 N58 2.100 . S
C362 N150 2.099 . S
C367 N81 2.099 . S
C372 N173 2.099 . S
C377 N104 2.099 . S
C382 N196 2.100 . S
C387 N127 2.100 . S
C392 N219 2.101 . S
C397 C214 1.627 . S
C402 C7 1.627 . S
C407 C30 1.627 . S
C412 C237 1.627 . S
C417 C53 1.625 . S
C422 C260 1.625 . S
C427 C145 1.626 . S
C432 C76 1.627 . S
C437 C99 1.626 . S
C442 C168 1.627 . S
C447 C191 1.627 . S
C452 C122 1.627 . S
C457 N2 2.108 . S
C462 N71 2.108 . S
C467 N94 2.108 . S
C472 N25 2.108 . S
C477 N48 2.111 . S
C482 N117 2.111 . S
C487 N140 2.111 . S
C492 N209 2.111 . S
C497 N163 2.111 . S
C502 N232 2.111 . S
C507 N255 2.108 . S
C512 N186 2.108 . S
