# Generated by pormake.
# Topology can, (4)-cn, num edge types: 1
# Building blocks:
#     Node 0, Type 0, BuildingBlock: KUFVIS_clean_sbu_0, # of connection points: 4
#     Node 1, Type 0, BuildingBlock: KUFVIS_clean_sbu_0, # of connection points: 4
#     Node 2, Type 0, BuildingBlock: KUFVIS_clean_sbu_0, # of connection points: 4
#     Node 3, Type 0, BuildingBlock: KUFVIS_clean_sbu_0, # of connection points: 4
#     Node 4, Type 0, BuildingBlock: KUFVIS_clean_sbu_0, # of connection points: 4
#     Node 5, Type 0, BuildingBlock: KUFVIS_clean_sbu_0, # of connection points: 4
#     Node 6, Type 0, BuildingBlock: KUFVIS_clean_sbu_0, # of connection points: 4
#     Node 7, Type 0, BuildingBlock: KUFVIS_clean_sbu_0, # of connection points: 4
#     Node 8, Type 0, BuildingBlock: KUFVIS_clean_sbu_0, # of connection points: 4
#     Node 9, Type 0, BuildingBlock: KUFVIS_clean_sbu_0, # of connection points: 4
#     Node 10, Type 0, BuildingBlock: KUFVIS_clean_sbu_0, # of connection points: 4
#     Node 11, Type 0, BuildingBlock: KUFVIS_clean_sbu_0, # of connection points: 4
#     Edge 12, Type (0, 0), BuildingBlock: KIFKEQ_clean_linker_1, # of connection points: 2
#     Edge 13, Type (0, 0), BuildingBlock: KIFKEQ_clean_linker_1, # of connection points: 2
#     Edge 14, Type (0, 0), BuildingBlock: KIFKEQ_clean_linker_1, # of connection points: 2
#     Edge 15, Type (0, 0), BuildingBlock: KIFKEQ_clean_linker_1, # of connection points: 2
#     Edge 16, Type (0, 0), BuildingBlock: KIFKEQ_clean_linker_1, # of connection points: 2
#     Edge 17, Type (0, 0), BuildingBlock: KIFKEQ_clean_linker_1, # of connection points: 2
#     Edge 18, Type (0, 0), BuildingBlock: KIFKEQ_clean_linker_1, # of connection points: 2
#     Edge 19, Type (0, 0), BuildingBlock: KIFKEQ_clean_linker_1, # of connection points: 2
#     Edge 20, Type (0, 0), BuildingBlock: KIFKEQ_clean_linker_1, # of connection points: 2
#     Edge 21, Type (0, 0), BuildingBlock: KIFKEQ_clean_linker_1, # of connection points: 2
#     Edge 22, Type (0, 0), BuildingBlock: KIFKEQ_clean_linker_1, # of connection points: 2
#     Edge 23, Type (0, 0), BuildingBlock: KIFKEQ_clean_linker_1, # of connection points: 2
#     Edge 24, Type (0, 0), BuildingBlock: KIFKEQ_clean_linker_1, # of connection points: 2
#     Edge 25, Type (0, 0), BuildingBlock: KIFKEQ_clean_linker_1, # of connection points: 2
#     Edge 26, Type (0, 0), BuildingBlock: KIFKEQ_clean_linker_1, # of connection points: 2
#     Edge 27, Type (0, 0), BuildingBlock: KIFKEQ_clean_linker_1, # of connection points: 2
#     Edge 28, Type (0, 0), BuildingBlock: KIFKEQ_clean_linker_1, # of connection points: 2
#     Edge 29, Type (0, 0), BuildingBlock: KIFKEQ_clean_linker_1, # of connection points: 2
#     Edge 30, Type (0, 0), BuildingBlock: KIFKEQ_clean_linker_1, # of connection points: 2
#     Edge 31, Type (0, 0), BuildingBlock: KIFKEQ_clean_linker_1, # of connection points: 2
#     Edge 32, Type (0, 0), BuildingBlock: KIFKEQ_clean_linker_1, # of connection points: 2
#     Edge 33, Type (0, 0), BuildingBlock: KIFKEQ_clean_linker_1, # of connection points: 2
#     Edge 34, Type (0, 0), BuildingBlock: KIFKEQ_clean_linker_1, # of connection points: 2
#     Edge 35, Type (0, 0), BuildingBlock: KIFKEQ_clean_linker_1, # of connection points: 2
# Relax obj value: 0.068
# Max RMSD: 0.070
# Mean RMSD: 0.065
data_MOF--net-can--node1-KUFVIS_clean_sbu_0--edge1-KIFKEQ_clean_linker_1
_symmetry_space_group_name_H-M    P1
_symmetry_Int_Tables_number       1
_symmetry_cell_setting            triclinic
loop_
_symmetry_equiv_pos_as_xyz
'x, y, z'
_cell_length_a     55.423664
_cell_length_b     56.140549
_cell_length_c     27.348511
_cell_angle_alpha  89.967537
_cell_angle_beta   89.997491
_cell_angle_gamma 119.58577
loop_
_atom_site_label
_atom_site_type_symbol
_atom_site_fract_x
_atom_site_fract_y
_atom_site_fract_z
_atom_type_partial_charge
Mn0 Mn 0.06575 0.40504 0.25946 0.0
Mn1 Mn 0.11427 0.45663 0.32788 0.0
C2 C 0.06511 0.44585 0.26716 0.0
C3 C 0.0497 0.38188 0.18534 0.0
C4 C 0.06472 0.40705 0.37183 0.0
O5 O 0.09583 0.39427 0.26589 0.0
O6 O 0.1267 0.42989 0.31111 0.0
C7 C 0.15811 0.48118 0.25224 0.0
N8 N 0.1412 0.48378 0.28537 0.0
C9 C 0.16078 0.53173 0.26705 0.0
C10 C 0.17852 0.52961 0.23295 0.0
C11 C 0.1771 0.5042 0.22541 0.0
C12 C 0.14222 0.50807 0.2926 0.0
H13 H 0.1571 0.4617 0.24632 0.0
C14 C 0.11905 0.40738 0.28814 0.0
O15 O 0.03958 0.36984 0.22684 0.0
O16 O 0.06986 0.407 0.18687 0.0
N17 N 0.10552 0.48435 0.34662 0.0
C18 C 0.08641 0.48278 0.37972 0.0
C19 C 0.08485 0.50639 0.39096 0.0
C20 C 0.10315 0.53143 0.36851 0.0
C21 C 0.12293 0.53263 0.33514 0.0
C22 C 0.12355 0.50845 0.32547 0.0
H23 H 0.07226 0.46361 0.39705 0.0
O24 O 0.04283 0.42346 0.25516 0.0
O25 O 0.08727 0.44386 0.27411 0.0
O26 O 0.05437 0.3949 0.33141 0.0
O27 O 0.08705 0.43012 0.37454 0.0
C28 C 0.14185 0.55683 0.31068 0.0
C29 C 0.16064 0.55634 0.27643 0.0
H30 H 0.1932 0.54732 0.21219 0.0
H31 H 0.19065 0.50237 0.19901 0.0
H32 H 0.06952 0.50528 0.41675 0.0
H33 H 0.10175 0.54955 0.37699 0.0
H34 H 0.14192 0.57586 0.31756 0.0
H35 H 0.17482 0.575 0.25736 0.0
Mn36 Mn 0.67039 0.06532 0.74806 0.0
Mn37 Mn 0.70903 0.0342 0.73914 0.0
C38 C 0.67768 0.05135 0.6727 0.0
C39 C 0.62774 0.06338 0.7599 0.0
C40 C 0.73398 0.09559 0.7527 0.0
O41 O 0.67141 0.05362 0.81832 0.0
O42 O 0.69562 0.03148 0.80758 0.0
C43 C 0.66457 0.97724 0.75748 0.0
N44 N 0.68493 0.99595 0.72801 0.0
C45 C 0.67553 0.96178 0.66658 0.0
C46 C 0.65459 0.94211 0.69642 0.0
C47 C 0.64908 0.94989 0.74204 0.0
C48 C 0.6904 0.98869 0.68402 0.0
H49 H 0.66011 0.98314 0.79244 0.0
C50 C 0.68195 0.0394 0.83446 0.0
O51 O 0.65101 0.08566 0.76821 0.0
O52 O 0.62929 0.04206 0.74616 0.0
N53 N 0.72284 0.03488 0.67465 0.0
C54 C 0.74304 0.05651 0.64951 0.0
C55 C 0.75081 0.05223 0.60286 0.0
C56 C 0.73782 0.02579 0.58266 0.0
C57 C 0.71725 1.00382 0.60937 0.0
C58 C 0.71062 0.00926 0.65593 0.0
H59 H 0.75307 0.07689 0.66481 0.0
O60 O 0.67074 0.07025 0.67561 0.0
O61 O 0.68001 0.04118 0.71395 0.0
O62 O 0.71101 0.09569 0.7524 0.0
O63 O 0.7356 0.0737 0.74919 0.0
C64 C 0.7028 0.97681 0.59135 0.0
C65 C 0.68191 0.95582 0.61988 0.0
H66 H 0.64249 0.92102 0.68453 0.0
H67 H 0.63286 0.93485 0.76518 0.0
H68 H 0.76669 0.06929 0.58243 0.0
H69 H 0.74376 0.02259 0.5466 0.0
H70 H 0.70736 0.97198 0.55542 0.0
H71 H 0.67072 0.93521 0.60537 0.0
Mn72 Mn 0.60785 0.67059 0.23812 0.0
Mn73 Mn 0.67775 0.70738 0.23455 0.0
C74 C 0.63084 0.67749 0.16441 0.0
C75 C 0.56705 0.62875 0.24815 0.0
C76 C 0.64105 0.73322 0.24466 0.0
O77 O 0.61884 0.67078 0.30908 0.0
O78 O 0.66549 0.69363 0.30258 0.0
C79 C 0.69074 0.66314 0.25507 0.0
N80 N 0.69275 0.6835 0.2253 0.0
C81 C 0.72011 0.67496 0.16698 0.0
C82 C 0.7185 0.65405 0.1972 0.0
C83 C 0.70372 0.6481 0.24141 0.0
C84 C 0.70701 0.68948 0.18276 0.0
H85 H 0.67925 0.65836 0.28894 0.0
C86 C 0.64305 0.68025 0.32742 0.0
O87 O 0.56759 0.65188 0.25533 0.0
O88 O 0.59026 0.62998 0.23603 0.0
N89 N 0.69217 0.72126 0.17081 0.0
C90 C 0.68986 0.74052 0.14405 0.0
C91 C 0.70248 0.74801 0.09785 0.0
C92 C 0.71736 0.73567 0.07968 0.0
C93 C 0.71954 0.71597 0.10794 0.0
C94 C 0.70674 0.70951 0.15393 0.0
H95 H 0.67822 0.74988 0.15758 0.0
O96 O 0.60503 0.67147 0.1654 0.0
O97 O 0.64241 0.67935 0.2067 0.0
O98 O 0.61787 0.71096 0.24287 0.0
O99 O 0.66446 0.734 0.24279 0.0
C100 C 0.73329 0.70198 0.09174 0.0
C101 C 0.73359 0.68151 0.12125 0.0
H102 H 0.72827 0.64222 0.18658 0.0
H103 H 0.70225 0.63187 0.26479 0.0
H104 H 0.70058 0.76313 0.07615 0.0
H105 H 0.72679 0.74126 0.04377 0.0
H106 H 0.74332 0.7065 0.05629 0.0
H107 H 0.74387 0.67061 0.10806 0.0
Mn108 Mn 0.94648 0.60356 0.75486 0.0
Mn109 Mn 0.90063 0.55574 0.83256 0.0
C110 C 0.94822 0.56384 0.76926 0.0
C111 C 0.95959 0.6222 0.67654 0.0
C112 C 0.95047 0.60848 0.86655 0.0
O113 O 0.91594 0.61383 0.76008 0.0
O114 O 0.88609 0.57988 0.80966 0.0
C115 C 0.85468 0.52447 0.76313 0.0
N116 N 0.87317 0.52515 0.79667 0.0
C117 C 0.85504 0.47652 0.78986 0.0
C118 C 0.83567 0.47526 0.75547 0.0
C119 C 0.83555 0.49935 0.74198 0.0
C120 C 0.87349 0.5021 0.80992 0.0
H121 H 0.85456 0.54295 0.75259 0.0
C122 C 0.893 0.60122 0.78338 0.0
O123 O 0.97064 0.63691 0.71536 0.0
O124 O 0.94007 0.59713 0.68335 0.0
N125 N 0.91184 0.5308 0.85731 0.0
C126 C 0.93313 0.53586 0.88823 0.0
C127 C 0.93689 0.51407 0.90379 0.0
C128 C 0.9186 0.48731 0.88779 0.0
C129 C 0.89667 0.48257 0.8564 0.0
C130 C 0.89388 0.50507 0.84229 0.0
H131 H 0.94726 0.55639 0.90062 0.0
O132 O 0.96989 0.58565 0.7532 0.0
O133 O 0.9261 0.56586 0.77657 0.0
O134 O 0.9603 0.61788 0.82426 0.0
O135 O 0.92811 0.58587 0.87336 0.0
C136 C 0.87794 0.45652 0.83749 0.0
C137 C 0.85716 0.4535 0.80422 0.0
H138 H 0.82099 0.45595 0.73885 0.0
H139 H 0.82075 0.49856 0.71528 0.0
H140 H 0.95391 0.51791 0.92791 0.0
H141 H 0.92177 0.4706 0.89942 0.0
H142 H 0.87967 0.43876 0.84758 0.0
H143 H 0.84318 0.43345 0.7893 0.0
Mn144 Mn 0.34407 0.94488 0.24703 0.0
Mn145 Mn 0.30451 0.97512 0.24095 0.0
C146 C 0.33531 0.95835 0.17243 0.0
C147 C 0.38691 0.94695 0.25626 0.0
C148 C 0.28049 0.91396 0.25479 0.0
O149 O 0.34447 0.95716 0.31728 0.0
O150 O 0.31845 0.9777 0.30917 0.0
C151 C 0.34863 0.03226 0.25896 0.0
N152 N 0.32816 0.01346 0.22982 0.0
C153 C 0.33696 0.0476 0.16851 0.0
C154 C 0.358 0.06735 0.19805 0.0
C155 C 0.36386 0.05963 0.24345 0.0
C156 C 0.32233 0.02068 0.18606 0.0
H157 H 0.35339 0.02639 0.29371 0.0
C158 C 0.3332 0.97045 0.33461 0.0
O159 O 0.36382 0.92473 0.26581 0.0
O160 O 0.38513 0.96818 0.24266 0.0
N161 N 0.29008 0.97443 0.17699 0.0
C162 C 0.26989 0.95272 0.15204 0.0
C163 C 0.26189 0.9569 0.10551 0.0
C164 C 0.27465 0.98333 0.0852 0.0
C165 C 0.29516 0.00539 0.11177 0.0
C166 C 0.30203 1.00004 0.15824 0.0
H167 H 0.26012 0.93234 0.16734 0.0
O168 O 0.34234 0.93948 0.17466 0.0
O169 O 0.3336 0.96868 0.21397 0.0
O170 O 0.30366 0.91427 0.25383 0.0
O171 O 0.27841 0.93558 0.25104 0.0
C172 C 0.3094 0.03239 0.09362 0.0
C173 C 0.33031 0.05347 0.12193 0.0
H174 H 0.36994 0.08844 0.18606 0.0
H175 H 0.38017 0.07472 0.26633 0.0
H176 H 0.24605 0.93976 0.08521 0.0
H177 H 0.26864 0.98643 0.04911 0.0
H178 H 0.30468 0.03712 0.05769 0.0
H179 H 0.34135 0.07408 0.10733 0.0
Mn180 Mn 0.40524 0.33983 0.74223 0.0
Mn181 Mn 0.33569 0.30218 0.73178 0.0
C182 C 0.38449 0.33434 0.66646 0.0
C183 C 0.44517 0.38177 0.75673 0.0
C184 C 0.37308 0.27732 0.74616 0.0
O185 O 0.39168 0.33737 0.81249 0.0
O186 O 0.34542 0.31597 0.80006 0.0
C187 C 0.32042 0.34524 0.74746 0.0
N188 N 0.3201 0.32525 0.71882 0.0
C189 C 0.29418 0.33294 0.65624 0.0
C190 C 0.29405 0.35346 0.68524 0.0
C191 C 0.30726 0.35966 0.73102 0.0
C192 C 0.30736 0.31905 0.67477 0.0
H193 H 0.33073 0.35023 0.78251 0.0
C194 C 0.36683 0.32836 0.82767 0.0
O195 O 0.44489 0.35871 0.76317 0.0
O196 O 0.42209 0.3804 0.74318 0.0
N197 N 0.32389 0.28834 0.66703 0.0
C198 C 0.3278 0.26954 0.64195 0.0
C199 C 0.31695 0.26196 0.59455 0.0
C200 C 0.30217 0.27371 0.57346 0.0
C201 C 0.29831 0.29292 0.60004 0.0
C202 C 0.30938 0.2995 0.64733 0.0
H203 H 0.33928 0.26056 0.65782 0.0
O204 O 0.41044 0.34102 0.66964 0.0
O205 O 0.37159 0.33109 0.70771 0.0
O206 O 0.39608 0.29973 0.7441 0.0
O207 O 0.34951 0.27621 0.74398 0.0
C208 C 0.2845 0.30627 0.58103 0.0
C209 C 0.28241 0.32625 0.60911 0.0
H210 H 0.28415 0.36482 0.67249 0.0
H211 H 0.30741 0.3756 0.75347 0.0
H212 H 0.32011 0.24719 0.57419 0.0
H213 H 0.2941 0.26804 0.53667 0.0
H214 H 0.2758 0.30166 0.54452 0.0
H215 H 0.27213 0.33668 0.59379 0.0
Mn216 Mn 0.60997 0.94504 0.27017 0.0
Mn217 Mn 0.67966 0.9762 0.28039 0.0
C218 C 0.63084 0.95822 0.34602 0.0
C219 C 0.56922 0.94693 0.25879 0.0
C220 C 0.64349 0.91494 0.26509 0.0
O221 O 0.62291 0.95767 0.20047 0.0
O222 O 0.66921 0.97888 0.21166 0.0
C223 C 0.69191 0.03307 0.26175 0.0
N224 N 0.6936 0.01443 0.29137 0.0
C225 C 0.71817 0.04872 0.35274 0.0
C226 C 0.71685 0.0683 0.32274 0.0
C227 C 0.70363 0.06042 0.27707 0.0
C228 C 0.70625 0.02179 0.33542 0.0
H229 H 0.68162 0.0271 0.22673 0.0
C230 C 0.64776 0.97155 0.1846 0.0
O231 O 0.57034 0.92482 0.24944 0.0
O232 O 0.59197 0.96811 0.27339 0.0
N233 N 0.69268 0.97566 0.34505 0.0
C234 C 0.69131 0.95411 0.37039 0.0
C235 C 0.70335 0.95851 0.41706 0.0
C236 C 0.71672 0.98499 0.4371 0.0
C237 C 0.71801 0.00686 0.41026 0.0
C238 C 0.70596 1.0013 0.36366 0.0
H239 H 0.68096 0.93371 0.35528 0.0
O240 O 0.6051 0.93914 0.34246 0.0
O241 O 0.64351 0.96893 0.30514 0.0
O242 O 0.62043 0.91487 0.26387 0.0
O243 O 0.66689 0.93674 0.27072 0.0
C244 C 0.73045 0.03389 0.42816 0.0
C245 C 0.73046 0.05478 0.39949 0.0
H246 H 0.72573 0.08939 0.33454 0.0
H247 H 0.7024 0.07539 0.25381 0.0
H248 H 0.70222 0.94152 0.43762 0.0
H249 H 0.72587 0.98829 0.47316 0.0
H250 H 0.7398 0.0388 0.46414 0.0
H251 H 0.73979 0.07541 0.41391 0.0
Mn252 Mn 0.66493 0.60301 0.76102 0.0
Mn253 Mn 0.66163 0.55301 0.68792 0.0
C254 C 0.62311 0.56312 0.74927 0.0
C255 C 0.67119 0.62315 0.8382 0.0
C256 C 0.66364 0.60448 0.64865 0.0
O257 O 0.70556 0.61295 0.75577 0.0
O258 O 0.70079 0.57858 0.70691 0.0
C259 C 0.67899 0.52557 0.76117 0.0
N260 N 0.6601 0.52438 0.72798 0.0
C261 C 0.63031 0.47622 0.74283 0.0
C262 C 0.64953 0.4769 0.77694 0.0
C263 C 0.67393 0.50171 0.78624 0.0
C264 C 0.63646 0.50067 0.71902 0.0
H265 H 0.69776 0.54459 0.76851 0.0
C266 C 0.71562 0.60025 0.7321 0.0
O267 O 0.67463 0.63721 0.7985 0.0
O268 O 0.66531 0.59792 0.83282 0.0
N269 N 0.62513 0.52647 0.66696 0.0
C270 C 0.60825 0.52947 0.6343 0.0
C271 C 0.58278 0.50663 0.6215 0.0
C272 C 0.57504 0.48091 0.64206 0.0
C273 C 0.59291 0.47825 0.6751 0.0
C274 C 0.61808 0.50171 0.6863 0.0
H275 H 0.61401 0.54918 0.61853 0.0
O276 O 0.62355 0.58539 0.76332 0.0
O277 O 0.64712 0.5648 0.74249 0.0
O278 O 0.66531 0.61572 0.69011 0.0
O279 O 0.66225 0.58118 0.64397 0.0
C280 C 0.58657 0.4533 0.69782 0.0
C281 C 0.60518 0.45232 0.73188 0.0
H282 H 0.64569 0.45854 0.79639 0.0
H283 H 0.68881 0.50242 0.81267 0.0
H284 H 0.56909 0.50887 0.59602 0.0
H285 H 0.55528 0.46338 0.63242 0.0
H286 H 0.56728 0.43481 0.6898 0.0
H287 H 0.59988 0.43309 0.74962 0.0
Mn288 Mn 0.07121 0.66944 0.27477 0.0
Mn289 Mn 0.03916 0.70696 0.2854 0.0
C290 C 0.0555 0.67447 0.35046 0.0
C291 C 0.0692 0.62752 0.25961 0.0
C292 C 0.10149 0.73197 0.27192 0.0
O293 O 0.06052 0.67234 0.20442 0.0
O294 O 0.03557 0.69363 0.21691 0.0
C295 C 0.98095 0.66395 0.26848 0.0
N296 N 1.00043 0.68379 0.2976 0.0
C297 C 0.96642 0.67579 0.35958 0.0
C298 C 0.94595 0.65541 0.33008 0.0
C299 C 0.95326 0.64944 0.28436 0.0
C300 C 0.99361 0.68976 0.34159 0.0
H301 H 0.9865 0.65916 0.23344 0.0
C302 C 0.04481 0.68149 0.18918 0.0
O303 O 0.09204 0.6506 0.25375 0.0
O304 O 0.04746 0.62887 0.273 0.0
N305 N 0.0408 0.72045 0.35032 0.0
C306 C 0.06334 0.73917 0.37585 0.0
C307 C 0.05977 0.74656 0.42323 0.0
C308 C 0.0331 0.73469 0.44381 0.0
C309 C 0.0102 0.71557 0.41674 0.0
C310 C 0.015 0.70918 0.36952 0.0
H311 H 0.08391 0.74825 0.36036 0.0
O312 O 0.07478 0.66779 0.3474 0.0
O313 O 0.04609 0.67797 0.30914 0.0
O314 O 0.10215 0.70959 0.27373 0.0
O315 O 0.07899 0.73301 0.27398 0.0
C316 C 0.98291 0.70213 0.43522 0.0
C317 C 0.96103 0.68227 0.40664 0.0
H318 H 0.92462 0.64399 0.34239 0.0
H319 H 0.93761 0.63363 0.26153 0.0
H320 H 0.07755 0.76125 0.44396 0.0
H321 H 0.03047 0.74021 0.48058 0.0
H322 H 0.97859 0.70659 0.47167 0.0
H323 H 0.94021 0.67177 0.42155 0.0
Mn324 Mn 0.40446 0.06532 0.77138 0.0
Mn325 Mn 0.33462 0.03484 0.77751 0.0
C326 C 0.38223 0.05181 0.84601 0.0
C327 C 0.44531 0.06333 0.7622 0.0
C328 C 0.37158 0.09604 0.76365 0.0
O329 O 0.39258 0.05301 0.70113 0.0
O330 O 0.34601 0.03232 0.70931 0.0
C331 C 0.32182 0.97778 0.75952 0.0
N332 N 0.32005 0.99652 0.78865 0.0
C333 C 0.29474 0.96235 0.84992 0.0
C334 C 0.29612 0.94265 0.82039 0.0
C335 C 0.30974 0.95041 0.77502 0.0
C336 C 0.30698 0.98927 0.83238 0.0
H337 H 0.33246 0.98368 0.7248 0.0
C338 C 0.36802 0.03966 0.68383 0.0
O339 O 0.44439 0.08553 0.75262 0.0
O340 O 0.4223 0.04209 0.77579 0.0
N341 N 0.32083 0.03548 0.84145 0.0
C342 C 0.32224 0.05715 0.86638 0.0
C343 C 0.31 0.05292 0.91287 0.0
C344 C 0.29638 0.02649 0.93316 0.0
C345 C 0.29495 1.00447 0.90662 0.0
C346 C 0.30722 0.00986 0.86019 0.0
H347 H 0.3328 0.07754 0.85108 0.0
O348 O 0.40811 0.07072 0.84377 0.0
O349 O 0.3702 0.04145 0.80448 0.0
O350 O 0.39451 0.09585 0.76458 0.0
O351 O 0.34793 0.07435 0.76742 0.0
C352 C 0.28224 0.97746 0.92475 0.0
C353 C 0.28218 0.95643 0.89646 0.0
H354 H 0.28701 0.92155 0.83236 0.0
H355 H 0.31102 0.93535 0.75215 0.0
H356 H 0.31122 0.07003 0.93315 0.0
H357 H 0.28723 0.02335 0.96922 0.0
H358 H 0.27275 0.9727 0.96065 0.0
H359 H 0.27263 0.93582 0.91105 0.0
Mn360 Mn 0.34799 0.40702 0.26188 0.0
Mn361 Mn 0.34881 0.45502 0.18628 0.0
C362 C 0.38917 0.447 0.24671 0.0
C363 C 0.34311 0.38808 0.33981 0.0
C364 C 0.34622 0.40279 0.14998 0.0
O365 O 0.30701 0.39634 0.25812 0.0
O366 O 0.31036 0.4304 0.20975 0.0
C367 C 0.33449 0.48517 0.25886 0.0
N368 N 0.35212 0.48504 0.22431 0.0
C369 C 0.38304 0.53341 0.23429 0.0
C370 C 0.36513 0.5341 0.26976 0.0
C371 C 0.34078 0.50986 0.28217 0.0
C372 C 0.37567 0.50821 0.21229 0.0
H373 H 0.31579 0.46657 0.2686 0.0
C374 C 0.29628 0.40886 0.23571 0.0
O375 O 0.33936 0.37356 0.30067 0.0
O376 O 0.34853 0.41315 0.33355 0.0
N377 N 0.38467 0.48045 0.16101 0.0
C378 C 0.4002 0.47611 0.12728 0.0
C379 C 0.42547 0.49823 0.11149 0.0
C380 C 0.43438 0.52459 0.13013 0.0
C381 C 0.41784 0.52861 0.16423 0.0
C382 C 0.39279 0.50583 0.17842 0.0
H383 H 0.39343 0.45591 0.11272 0.0
O384 O 0.38943 0.4253 0.26227 0.0
O385 O 0.36484 0.4447 0.2407 0.0
O386 O 0.34703 0.39321 0.19193 0.0
O387 O 0.34613 0.42531 0.14399 0.0
C388 C 0.4254 0.55428 0.18515 0.0
C389 C 0.40809 0.55666 0.22034 0.0
H390 H 0.36994 0.55308 0.28791 0.0
H391 H 0.32691 0.5102 0.30967 0.0
H392 H 0.43809 0.49495 0.0851 0.0
H393 H 0.45399 0.54155 0.11817 0.0
H394 H 0.44467 0.57227 0.1749 0.0
H395 H 0.41433 0.57643 0.23668 0.0
Mn396 Mn 0.94176 0.33964 0.78463 0.0
Mn397 Mn 0.97552 0.30354 0.7875 0.0
C398 C 0.95562 0.33044 0.85863 0.0
C399 C 0.9427 0.38141 0.77705 0.0
C400 C 0.91332 0.27733 0.7718 0.0
O401 O 0.95485 0.34182 0.71442 0.0
O402 O 0.97904 0.31938 0.72074 0.0
C403 C 0.03273 0.34965 0.77507 0.0
N404 N 0.01374 0.32803 0.80184 0.0
C405 C 0.0472 0.33673 0.86526 0.0
C406 C 0.06717 0.35896 0.83818 0.0
C407 C 0.05989 0.36545 0.7929 0.0
C408 C 0.02052 0.32161 0.84547 0.0
H409 H 0.02718 0.3549 0.74046 0.0
C410 C 0.97036 0.33319 0.6963 0.0
O411 O 0.92056 0.35853 0.76622 0.0
O412 O 0.96426 0.38006 0.79153 0.0
N413 N 0.97417 0.28762 0.85009 0.0
C414 C 0.95225 0.26611 0.87244 0.0
C415 C 0.956 0.25719 0.91834 0.0
C416 C 0.98221 0.27042 0.94075 0.0
C417 C 1.00451 0.29234 0.91686 0.0
C418 C 0.99963 0.30007 0.87083 0.0
H419 H 0.93202 0.25594 0.85553 0.0
O420 O 0.9358 0.33643 0.85707 0.0
O421 O 0.96655 0.33005 0.81682 0.0
O422 O 0.91211 0.29938 0.77561 0.0
O423 O 0.93604 0.27667 0.77413 0.0
C424 C 0.03127 0.30709 0.93726 0.0
C425 C 0.05259 0.32931 0.91153 0.0
H426 H 0.08808 0.37132 0.85196 0.0
H427 H 0.07514 0.38267 0.77192 0.0
H428 H 0.93868 0.24027 0.93656 0.0
H429 H 0.98493 0.2637 0.97644 0.0
H430 H 0.03561 0.30172 0.97296 0.0
H431 H 0.073 0.34069 0.92784 0.0
H432 H 0.99494 0.34898 0.16701 0.0
H433 H 0.07528 0.38606 0.09798 0.0
H434 H 0.97262 0.33379 0.08807 0.0
H435 H 0.05336 0.36856 0.01895 0.0
H436 H 0.00832 0.36796 0.87999 0.0
H437 H 0.03146 0.37716 0.95853 0.0
H438 H 0.95871 0.30777 0.02055 0.0
H439 H 0.93499 0.30057 0.94221 0.0
C440 C 0.00782 0.35307 0.13485 0.0
C441 C 0.03677 0.36884 0.13842 0.0
C442 C 0.99504 0.34419 0.08927 0.0
C443 C 0.01095 0.35011 0.04612 0.0
C444 C 0.04014 0.36436 0.05059 0.0
C445 C 0.05286 0.37412 0.09604 0.0
C446 C 0.99749 0.35461 0.91054 0.0
C447 C 0.97014 0.3333 0.90514 0.0
C448 C 0.01082 0.35967 0.95577 0.0
C449 C 0.99725 0.34324 0.99682 0.0
C450 C 0.96988 0.32141 0.99064 0.0
C451 C 0.95627 0.31694 0.94558 0.0
H452 H 0.64945 0.01135 0.36692 0.0
H453 H 0.63444 0.93521 0.43153 0.0
H454 H 0.66353 0.03386 0.44607 0.0
H455 H 0.64998 0.95788 0.51094 0.0
H456 H 0.64326 0.99805 0.65264 0.0
H457 H 0.63449 0.9753 0.57362 0.0
H458 H 0.69686 0.05104 0.50794 0.0
H459 H 0.70432 0.07392 0.58714 0.0
C460 C 0.64984 0.99965 0.39815 0.0
C461 C 0.64152 0.9718 0.39328 0.0
C462 C 0.65804 0.01253 0.44353 0.0
C463 C 0.65809 0.99781 0.48517 0.0
C464 C 0.64986 0.96983 0.47994 0.0
C465 C 0.64117 0.95685 0.43454 0.0
C466 C 0.65529 0.00962 0.62126 0.0
C467 C 0.67486 0.03749 0.6258 0.0
C468 C 0.6504 0.99661 0.57596 0.0
C469 C 0.66499 0.01123 0.5341 0.0
C470 C 0.6849 0.03918 0.53908 0.0
C471 C 0.6894 0.05228 0.58438 0.0
H472 H 0.63077 0.699 0.07518 0.0
H473 H 0.65496 0.64637 0.14943 0.0
H474 H 0.64478 0.68841 0.99702 0.0
H475 H 0.67087 0.63718 0.07247 0.0
H476 H 0.68493 0.67579 0.86332 0.0
H477 H 0.68016 0.69223 0.9436 0.0
H478 H 0.65074 0.61114 1.0032 0.0
H479 H 0.65674 0.59533 0.92427 0.0
C480 C 0.63985 0.68577 0.07476 0.0
C481 C 0.64267 0.67419 0.11832 0.0
C482 C 0.6481 0.67983 0.03011 0.0
C483 C 0.65904 0.6619 0.02811 0.0
C484 C 0.6622 0.65075 0.07218 0.0
C485 C 0.65361 0.65641 0.11654 0.0
C486 C 0.6779 0.66168 0.89389 0.0
C487 C 0.67119 0.63425 0.88738 0.0
C488 C 0.67493 0.67102 0.93985 0.0
C489 C 0.66492 0.65305 0.98016 0.0
C490 C 0.659 0.62583 0.97359 0.0
C491 C 0.66226 0.61663 0.92799 0.0
H492 H 1.00039 0.6429 0.36525 0.0
H493 H 0.07712 0.6948 0.44029 0.0
H494 H 0.97509 0.63337 0.44213 0.0
H495 H 0.05222 0.68417 0.51826 0.0
H496 H 0.94624 0.59301 0.59184 0.0
H497 H 0.96863 0.60764 0.51282 0.0
H498 H 0.02032 0.68946 0.56915 0.0
H499 H 0.99852 0.67431 0.64934 0.0
C500 C 0.01174 0.65259 0.39836 0.0
C501 C 0.04047 0.67034 0.39686 0.0
C502 C 0.99734 0.64679 0.44259 0.0
C503 C 0.01152 0.65797 0.48671 0.0
C504 C 0.04046 0.67563 0.48505 0.0
C505 C 0.05481 0.68159 0.44055 0.0
C506 C 0.96213 0.61422 0.5873 0.0
C507 C 0.97068 0.63245 0.62699 0.0
C508 C 0.97494 0.62271 0.54173 0.0
C509 C 0.99647 0.64977 0.53438 0.0
C510 C 1.00421 0.66834 0.57364 0.0
C511 C 0.99154 0.65974 0.6195 0.0
H512 H 0.36282 0.99844 0.86655 0.0
H513 H 0.37778 0.07451 0.93117 0.0
H514 H 0.34835 0.97577 0.94558 0.0
H515 H 0.36185 0.0517 0.0104 0.0
H516 H 0.36918 0.01176 0.15203 0.0
H517 H 0.37749 0.03444 0.073 0.0
H518 H 0.31529 0.95847 1.00792 0.0
H519 H 0.30831 0.93566 0.08717 0.0
C520 C 0.36227 0.01008 0.8977 0.0
C521 C 0.37076 0.03797 0.89287 0.0
C522 C 0.35386 0.99711 0.94304 0.0
C523 C 0.35378 0.0118 0.9847 0.0
C524 C 0.36201 0.03977 0.97943 0.0
C525 C 0.3709 0.05284 0.9341 0.0
C526 C 0.35706 1.00012 0.12082 0.0
C527 C 0.33769 0.9722 0.12558 0.0
C528 C 0.36169 0.0131 0.07548 0.0
C529 C 0.34703 0.9984 0.03375 0.0
C530 C 0.3273 0.9704 0.03895 0.0
C531 C 0.32307 0.95734 0.08429 0.0
H532 H 0.32995 0.33583 0.3661 0.0
H533 H 0.35874 0.41681 0.42496 0.0
H534 H 0.33591 0.32015 0.44629 0.0
H535 H 0.36583 0.40166 0.50397 0.0
H536 H 0.36089 0.3658 0.65111 0.0
H537 H 0.34566 0.37554 0.57388 0.0
H538 H 0.37245 0.32491 0.49846 0.0
H539 H 0.38611 0.314 0.5768 0.0
C540 C 0.33738 0.35023 0.39621 0.0
C541 C 0.3439 0.37757 0.38915 0.0
C542 C 0.34103 0.34131 0.44209 0.0
C543 C 0.35153 0.35963 0.48176 0.0
C544 C 0.35727 0.38677 0.47474 0.0
C545 C 0.35335 0.39556 0.42917 0.0
C546 C 0.36272 0.35615 0.61809 0.0
C547 C 0.37368 0.33839 0.61989 0.0
C548 C 0.35445 0.36208 0.57365 0.0
C549 C 0.35781 0.35109 0.52962 0.0
C550 C 0.36898 0.33333 0.53159 0.0
C551 C 0.37702 0.32722 0.5763 0.0
H552 H 0.9296 0.60721 0.95708 0.0
H553 H 1.0065 0.64348 0.87592 0.0
H554 H 0.95505 0.62865 0.0317 0.0
H555 H 0.03213 0.66483 0.95135 0.0
H556 H 0.06111 0.65955 0.11458 0.0
H557 H 0.04027 0.64575 0.03332 0.0
H558 H 0.98466 0.67665 0.06647 0.0
H559 H 1.00531 0.69057 0.14716 0.0
C560 C 0.95195 0.61996 0.95511 0.0
C561 C 0.96603 0.62368 0.91057 0.0
C562 C 0.96651 0.63234 0.99784 0.0
C563 C 0.99556 0.64842 0.99731 0.0
C564 C 0.00973 0.65246 0.95275 0.0
C565 C 0.99506 0.64042 0.90962 0.0
C566 C 0.04473 0.66378 0.10432 0.0
C567 C 0.03478 0.67598 0.13777 0.0
C568 C 0.0329 0.65599 0.05768 0.0
C569 C 0.01071 0.65995 0.0438 0.0
C570 C 1.00155 0.67311 0.0764 0.0
C571 C 0.01351 0.68116 0.12266 0.0
H572 H 0.29646 0.97099 0.39995 0.0
H573 H 0.38158 0.99 0.38547 0.0
H574 H 0.30504 0.98693 0.4841 0.0
H575 H 0.39118 0.0083 0.46823 0.0
H576 H 0.39676 0.02007 0.63279 0.0
H577 H 0.38796 1.0018 0.55 0.0
H578 H 0.32332 0.02335 0.53444 0.0
H579 H 0.33078 0.03927 0.61861 0.0
C580 C 0.31713 0.97884 0.41488 0.0
C581 C 0.3383 0.97913 0.38638 0.0
C582 C 0.32225 0.98839 0.46309 0.0
C583 C 0.349 0.99941 0.48367 0.0
C584 C 0.37017 0.99958 0.4547 0.0
C585 C 0.36476 0.98921 0.40695 0.0
C586 C 0.38075 0.02091 0.61136 0.0
C587 C 0.36442 0.03103 0.63203 0.0
C588 C 0.37572 0.01055 0.5636 0.0
C589 C 0.35472 0.01078 0.53472 0.0
C590 C 0.33907 0.02186 0.55538 0.0
C591 C 0.34355 0.03139 0.60361 0.0
H592 H 0.4049 0.34985 0.90257 0.0
H593 H 0.31862 0.32107 0.86862 0.0
H594 H 0.39815 0.36448 0.98328 0.0
H595 H 0.31219 0.33585 0.94877 0.0
H596 H 0.32776 0.40542 0.05889 0.0
H597 H 0.33161 0.38399 0.98405 0.0
H598 H 0.37038 0.34576 0.06461 0.0
H599 H 0.36627 0.36705 0.14015 0.0
C600 C 0.38445 0.34631 0.91241 0.0
C601 C 0.36238 0.33443 0.87877 0.0
C602 C 0.38059 0.35459 0.95872 0.0
C603 C 0.35469 0.35148 0.97209 0.0
C604 C 0.33244 0.33875 0.93924 0.0
C605 C 0.33617 0.33017 0.89332 0.0
C606 C 0.33687 0.39224 0.06085 0.0
C607 C 0.34666 0.38791 0.10552 0.0
C608 C 0.33896 0.37988 0.01799 0.0
C609 C 0.35128 0.3632 0.01853 0.0
C610 C 0.36089 0.35861 0.06317 0.0
C611 C 0.35834 0.37063 0.10638 0.0
H612 H 0.99159 0.30949 0.63484 0.0
H613 H 0.97279 0.3755 0.64289 0.0
H614 H 0.01258 0.32575 0.5542 0.0
H615 H 0.99416 0.39184 0.56284 0.0
H616 H 0.07172 0.43184 0.46071 0.0
H617 H 0.04625 0.41218 0.53609 0.0
H618 H 0.99853 0.33405 0.46466 0.0
H619 H 0.02365 0.35386 0.38814 0.0
C620 C 0.99169 0.32728 0.61927 0.0
C621 C 0.98057 0.34123 0.64544 0.0
C622 C 1.0036 0.33649 0.57306 0.0
C623 C 1.00512 0.36012 0.55252 0.0
C624 C 0.99341 0.37366 0.57803 0.0
C625 C 0.98105 0.36419 0.62376 0.0
C626 C 0.05579 0.41048 0.46073 0.0
C627 C 0.04969 0.39449 0.4181 0.0
C628 C 0.04111 0.39928 0.50398 0.0
C629 C 0.02032 0.37168 0.50607 0.0
C630 C 0.01448 0.35542 0.46394 0.0
C631 C 0.02882 0.36679 0.4202 0.0
H632 H 0.70508 0.01346 0.88451 0.0
H633 H 0.64811 0.04457 0.90231 0.0
H634 H 0.69618 0.99672 0.96817 0.0
H635 H 0.63949 0.02794 0.98665 0.0
H636 H 0.60906 0.96688 0.1166 0.0
H637 H 0.61734 0.98382 0.0325 0.0
H638 H 0.70518 0.01478 0.05162 0.0
H639 H 0.69705 0.99771 0.13512 0.0
C640 C 0.69078 0.01692 0.90628 0.0
C641 C 0.67738 0.03048 0.88647 0.0
C642 C 0.68577 0.00737 0.95443 0.0
C643 C 0.66714 0.01099 0.98412 0.0
C644 C 0.65375 0.02459 0.96454 0.0
C645 C 0.65889 0.03432 0.91631 0.0
C646 C 0.63013 0.97715 0.10281 0.0
C647 C 0.65236 0.98079 0.13277 0.0
C648 C 0.63488 0.98707 0.05472 0.0
C649 C 0.66192 1.00067 0.03536 0.0
C650 C 0.68407 1.00413 0.06519 0.0
C651 C 0.67937 0.99439 0.11323 0.0
H652 H 0.68855 0.70419 0.38789 0.0
H653 H 0.6029 0.63966 0.38327 0.0
H654 H 0.6936 0.68821 0.46868 0.0
H655 H 0.60829 0.62364 0.46327 0.0
H656 H 0.64693 0.58175 0.55818 0.0
H657 H 0.64124 0.60273 0.48461 0.0
H658 H 0.67073 0.67931 0.56106 0.0
H659 H 0.67583 0.65808 0.63612 0.0
C660 C 0.67072 0.68688 0.40431 0.0
C661 C 0.64535 0.67315 0.37892 0.0
C662 C 0.67363 0.67785 0.45059 0.0
C663 C 0.65138 0.65463 0.4719 0.0
C664 C 0.62579 0.64153 0.44744 0.0
C665 C 0.62271 0.65082 0.4017 0.0
C666 C 0.6522 0.60305 0.55974 0.0
C667 C 0.66169 0.61815 0.60341 0.0
C668 C 0.6488 0.61501 0.51748 0.0
C669 C 0.65531 0.64252 0.51734 0.0
C670 C 0.66551 0.658 0.56037 0.0
C671 C 0.66838 0.64583 0.60323 0.0
H672 H 0.11272 0.61798 0.24755 0.0
H673 H 0.02345 0.57658 0.26003 0.0
H674 H 0.1113 0.57397 0.24634 0.0
H675 H 0.02183 0.53251 0.25729 0.0
H676 H 0.03027 0.46014 0.31119 0.0
H677 H 0.03099 0.50387 0.30581 0.0
H678 H 0.09997 0.53345 0.20479 0.0
H679 H 0.09982 0.49002 0.21258 0.0
C680 C 0.09275 0.59944 0.2494 0.0
C681 C 0.06822 0.60079 0.25427 0.0
C682 C 0.09189 0.5741 0.24862 0.0
C683 C 0.06647 0.54946 0.25249 0.0
C684 C 0.04188 0.55094 0.25556 0.0
C685 C 0.04276 0.57626 0.25669 0.0
C686 C 0.04562 0.47615 0.28812 0.0
C687 C 0.06561 0.47226 0.26371 0.0
C688 C 0.0459 0.50114 0.2845 0.0
C689 C 0.06565 0.52247 0.25497 0.0
C690 C 0.08488 0.51789 0.2288 0.0
C691 C 0.08483 0.49304 0.23315 0.0
H692 H 0.45401 0.02111 0.78763 0.0
H693 H 0.49628 0.10414 0.73299 0.0
H694 H 0.49786 0.02088 0.78919 0.0
H695 H 0.54006 0.1037 0.73332 0.0
H696 H 0.61787 0.10443 0.78892 0.0
H697 H 0.57363 0.10396 0.78962 0.0
H698 H 0.53244 0.02057 0.73672 0.0
H699 H 0.57652 0.02084 0.73726 0.0
C700 C 0.47263 0.03923 0.77546 0.0
C701 C 0.47166 0.06265 0.76022 0.0
C702 C 0.49778 0.03907 0.7762 0.0
C703 C 0.52257 0.06232 0.76158 0.0
C704 C 0.52148 0.08561 0.74566 0.0
C705 C 0.49633 0.08578 0.74506 0.0
C706 C 0.59933 0.08594 0.7778 0.0
C707 C 0.60072 0.06267 0.76306 0.0
C708 C 0.57398 0.08574 0.77779 0.0
C709 C 0.54944 0.06229 0.76292 0.0
C710 C 0.55083 0.03889 0.74892 0.0
C711 C 0.57615 0.03907 0.74906 0.0
H712 H 0.51398 0.61966 0.25696 0.0
H713 H 0.56134 0.57765 0.24704 0.0
H714 H 0.47113 0.57581 0.25748 0.0
H715 H 0.51866 0.53376 0.24925 0.0
H716 H 0.43746 0.46064 0.19977 0.0
H717 H 0.48043 0.50465 0.20152 0.0
H718 H 0.44234 0.53599 0.30169 0.0
H719 H 0.39915 0.49229 0.2976 0.0
C720 C 0.51524 0.60102 0.25542 0.0
C721 C 0.54104 0.60214 0.25169 0.0
C722 C 0.49063 0.57579 0.25586 0.0
C723 C 0.49124 0.55104 0.25287 0.0
C724 C 0.5172 0.55228 0.25038 0.0
C725 C 0.54176 0.5775 0.24954 0.0
C726 C 0.43841 0.47712 0.22176 0.0
C727 C 0.41493 0.47359 0.24719 0.0
C728 C 0.46306 0.50227 0.22328 0.0
C729 C 0.46499 0.52412 0.25164 0.0
C730 C 0.44157 0.52 0.27854 0.0
C731 C 0.41682 0.49499 0.27632 0.0
H732 H 0.90959 0.51637 0.7278 0.0
H733 H 0.98744 0.5529 0.80484 0.0
H734 H 0.90767 0.47218 0.72918 0.0
H735 H 0.98727 0.50946 0.8027 0.0
H736 H 0.96809 0.42395 0.83982 0.0
H737 H 0.96898 0.46761 0.83725 0.0
H738 H 0.92165 0.44304 0.70261 0.0
H739 H 0.91873 0.39837 0.70849 0.0
C740 C 0.92624 0.51474 0.7453 0.0
C741 C 0.94782 0.53744 0.76875 0.0
C742 C 0.92555 0.48952 0.74517 0.0
C743 C 0.94705 0.48669 0.76702 0.0
C744 C 0.96967 0.51022 0.78739 0.0
C745 C 0.97001 0.53528 0.78826 0.0
C746 C 0.95781 0.42799 0.80987 0.0
C747 C 0.94334 0.40792 0.77438 0.0
C748 C 0.95855 0.4532 0.80794 0.0
C749 C 0.94571 0.45941 0.76933 0.0
C750 C 0.93139 0.43915 0.73352 0.0
C751 C 0.92985 0.41353 0.73651 0.0
H752 H 0.39701 0.90606 0.28509 0.0
H753 H 0.43789 0.98928 0.23137 0.0
H754 H 0.44122 0.9065 0.28481 0.0
H755 H 0.48198 0.98952 0.22991 0.0
H756 H 0.51843 0.90607 0.22886 0.0
H757 H 0.47464 0.90653 0.22813 0.0
H758 H 0.51664 0.98953 0.28293 0.0
H759 H 0.56046 0.98928 0.28248 0.0
C760 C 0.41544 0.92446 0.27325 0.0
C761 C 0.41394 0.94764 0.25831 0.0
C762 C 0.44076 0.92464 0.27268 0.0
C763 C 0.46517 0.94799 0.25704 0.0
C764 C 0.46368 0.97129 0.24267 0.0
C765 C 0.43836 0.97113 0.24335 0.0
C766 C 0.51833 0.92447 0.2404 0.0
C767 C 0.54291 0.94763 0.2557 0.0
C768 C 0.49319 0.92467 0.24038 0.0
C769 C 0.49205 0.94802 0.25577 0.0
C770 C 0.51677 0.97131 0.27034 0.0
C771 C 0.5419 0.97113 0.27025 0.0
H772 H 0.61352 0.51855 0.80227 0.0
H773 H 0.57393 0.54943 0.70566 0.0
H774 H 0.57019 0.47522 0.80964 0.0
H775 H 0.53079 0.50571 0.7105 0.0
H776 H 0.45046 0.43275 0.75652 0.0
H777 H 0.49302 0.47678 0.75877 0.0
H778 H 0.54087 0.43509 0.76787 0.0
H779 H 0.49821 0.39117 0.76734 0.0
C780 C 0.59551 0.51576 0.782 0.0
C781 C 0.59709 0.5368 0.75218 0.0
C782 C 0.57066 0.49095 0.7861 0.0
C783 C 0.54684 0.48665 0.76033 0.0
C784 C 0.54845 0.50822 0.73147 0.0
C785 C 0.57321 0.5332 0.72816 0.0
C786 C 0.4701 0.43303 0.75936 0.0
C787 C 0.47097 0.40847 0.76157 0.0
C788 C 0.49458 0.45832 0.76019 0.0
C789 C 0.52062 0.45971 0.76268 0.0
C790 C 0.52135 0.43503 0.76615 0.0
C791 C 0.49683 0.40974 0.76575 0.0
H792 H 0.12552 0.37823 0.21381 0.0
H793 H 0.15977 0.41597 0.35313 0.0
H794 H 0.16512 0.37086 0.20089 0.0
H795 H 0.19901 0.40846 0.34039 0.0
H796 H 0.26268 0.38212 0.314 0.0
H797 H 0.21547 0.37386 0.32847 0.0
H798 H 0.21537 0.40657 0.18562 0.0
H799 H 0.2623 0.41497 0.17137 0.0
C800 C 0.14106 0.38424 0.24224 0.0
C801 C 0.13964 0.39788 0.2843 0.0
C802 C 0.1638 0.38017 0.23473 0.0
C803 C 0.18525 0.38921 0.26952 0.0
C804 C 0.18275 0.40105 0.31308 0.0
C805 C 0.16032 0.40551 0.32022 0.0
C806 C 0.25229 0.38693 0.28532 0.0
C807 C 0.26629 0.39941 0.24173 0.0
C808 C 0.22534 0.38233 0.29368 0.0
C809 C 0.21173 0.38963 0.25822 0.0
C810 C 0.22513 0.40046 0.21347 0.0
C811 C 0.25214 0.40547 0.20547 0.0
H812 H 0.90625 0.22779 0.74112 0.0
H813 H 0.8606 0.26702 0.79148 0.0
H814 H 0.86316 0.18434 0.73523 0.0
H815 H 0.81771 0.22343 0.78789 0.0
H816 H 0.74143 0.14677 0.7348 0.0
H817 H 0.78442 0.19033 0.73682 0.0
H818 H 0.82881 0.14863 0.78135 0.0
H819 H 0.78593 0.10492 0.77701 0.0
C820 C 0.88702 0.22713 0.75113 0.0
C821 C 0.88694 0.25098 0.76659 0.0
C822 C 0.86225 0.2021 0.74817 0.0
C823 C 0.83674 0.20012 0.76127 0.0
C824 C 0.83674 0.22407 0.7766 0.0
C825 C 0.86145 0.24916 0.77889 0.0
C826 C 0.76035 0.14689 0.74515 0.0
C827 C 0.76016 0.12228 0.75581 0.0
C828 C 0.78509 0.17197 0.74655 0.0
C829 C 0.81032 0.17324 0.75933 0.0
C830 C 0.81002 0.14858 0.77042 0.0
C831 C 0.78532 0.12345 0.76833 0.0
H832 H 0.5979 0.74188 0.26921 0.0
H833 H 0.68428 0.78464 0.22699 0.0
H834 H 0.5984 0.78548 0.27466 0.0
H835 H 0.68449 0.82792 0.23024 0.0
H836 H 0.6852 0.90391 0.28709 0.0
H837 H 0.68407 0.86015 0.28365 0.0
H838 H 0.59998 0.82181 0.22894 0.0
H839 H 0.60073 0.86546 0.23454 0.0
C840 C 0.61694 0.76054 0.26074 0.0
C841 C 0.64106 0.75968 0.24786 0.0
C842 C 0.6172 0.7856 0.26353 0.0
C843 C 0.6415 0.81042 0.25297 0.0
C844 C 0.66552 0.80942 0.23967 0.0
C845 C 0.66535 0.78446 0.23749 0.0
C846 C 0.66645 0.88618 0.27426 0.0
C847 C 0.64306 0.88831 0.26113 0.0
C848 C 0.66584 0.861 0.272 0.0
C849 C 0.64194 0.83724 0.25586 0.0
C850 C 0.6186 0.83945 0.24236 0.0
C851 C 0.6191 0.86459 0.24521 0.0
H852 H 0.85297 0.59449 0.84844 0.0
H853 H 0.88517 0.62741 0.70534 0.0
H854 H 0.81374 0.60187 0.83472 0.0
H855 H 0.84554 0.63466 0.69144 0.0
H856 H 0.7478 0.5914 0.66751 0.0
H857 H 0.7947 0.5993 0.68014 0.0
H858 H 0.79822 0.63684 0.81963 0.0
H859 H 0.75111 0.62905 0.80689 0.0
C860 C 0.85193 0.6038 0.81437 0.0
C861 C 0.87206 0.61017 0.77781 0.0
C862 C 0.82953 0.60821 0.80666 0.0
C863 C 0.82648 0.61874 0.76193 0.0
C864 C 0.84731 0.62638 0.7262 0.0
C865 C 0.87004 0.62237 0.73425 0.0
C866 C 0.75876 0.60184 0.70047 0.0
C867 C 0.74563 0.60938 0.7364 0.0
C868 C 0.78573 0.60655 0.70752 0.0
C869 C 0.80011 0.61858 0.75097 0.0
C870 C 0.78756 0.62739 0.78588 0.0
C871 C 0.76066 0.62306 0.77847 0.0
H872 H 0.27362 0.86289 0.23776 0.0
H873 H 0.22865 0.90412 0.28079 0.0
H874 H 0.23084 0.81907 0.24066 0.0
H875 H 0.18608 0.86024 0.28596 0.0
H876 H 0.10916 0.78182 0.24285 0.0
H877 H 0.15229 0.82513 0.23847 0.0
H878 H 0.19711 0.78537 0.29116 0.0
H879 H 0.15397 0.74174 0.29331 0.0
C880 C 0.25465 0.86258 0.2485 0.0
C881 C 0.25461 0.88709 0.25894 0.0
C882 C 0.23006 0.83736 0.25041 0.0
C883 C 0.20478 0.8359 0.26343 0.0
C884 C 0.20491 0.86045 0.27472 0.0
C885 C 0.22943 0.88569 0.27214 0.0
C886 C 0.12823 0.78228 0.25336 0.0
C887 C 0.12805 0.75824 0.2684 0.0
C888 C 0.15304 0.80725 0.25123 0.0
C889 C 0.17838 0.80902 0.2648 0.0
C890 C 0.17818 0.78488 0.27969 0.0
C891 C 0.15337 0.7598 0.28116 0.0
H892 H 0.33102 0.22731 0.77514 0.0
H893 H 0.41606 0.2679 0.72531 0.0
H894 H 0.3312 0.18417 0.77976 0.0
H895 H 0.41592 0.22447 0.72768 0.0
H896 H 0.41551 0.14726 0.7809 0.0
H897 H 0.41617 0.19091 0.77813 0.0
H898 H 0.33029 0.1492 0.73243 0.0
H899 H 0.32937 0.10551 0.73748 0.0
C900 C 0.34974 0.227 0.76484 0.0
C901 C 0.37354 0.25113 0.74992 0.0
C902 C 0.34979 0.20213 0.7671 0.0
C903 C 0.37351 0.20057 0.75377 0.0
C904 C 0.39737 0.22479 0.73899 0.0
C905 C 0.39743 0.24977 0.7374 0.0
C906 C 0.39679 0.14742 0.7701 0.0
C907 C 0.37237 0.12282 0.75951 0.0
C908 C 0.39719 0.17254 0.76827 0.0
C909 C 0.37326 0.17379 0.75518 0.0
C910 C 0.34898 0.14915 0.74374 0.0
C911 C 0.34849 0.12402 0.74624 0.0
loop_
_geom_bond_atom_site_label_1
_geom_bond_atom_site_label_2
_geom_bond_distance
_geom_bond_site_symmetry_2
_ccdc_geom_bond_type
Mn0 O5 2.095 . S
Mn0 O15 2.162 . S
Mn0 O16 2.297 . S
Mn0 O24 2.385 . S
Mn0 O25 2.209 . S
Mn0 O26 2.094 . S
Mn1 O6 2.121 . S
Mn1 N8 2.257 . S
Mn1 N17 2.282 . S
Mn1 O25 2.215 . S
Mn1 O27 2.117 . S
C2 O24 1.234 . S
C2 O25 1.283 . S
C3 O15 1.281 . S
C3 O16 1.236 . S
C4 O26 1.240 . S
C4 O27 1.264 . S
O5 Mn0 2.095 . S
O5 C14 1.250 . S
O6 Mn1 2.121 . S
O6 C14 1.258 . S
C7 N8 1.326 . S
C7 C11 1.460 . S
C7 H13 0.929 . S
N8 Mn1 2.257 . S
N8 C7 1.326 . S
N8 C12 1.362 . S
C9 C10 1.258 . S
C9 C12 1.431 . S
C9 C29 1.449 . S
C10 C9 1.258 . S
C10 C11 1.477 . S
C10 H30 0.931 . S
C11 C7 1.460 . S
C11 C10 1.477 . S
C11 H31 0.930 . S
C12 N8 1.362 . S
C12 C9 1.431 . S
C12 C22 1.476 . S
H13 C7 0.929 . S
C14 O5 1.250 . S
C14 O6 1.258 . S
O15 Mn0 2.162 . S
O15 C3 1.281 . S
O16 Mn0 2.297 . S
O16 C3 1.236 . S
N17 Mn1 2.282 . S
N17 C18 1.328 . S
N17 C22 1.318 . S
C18 N17 1.328 . S
C18 C19 1.457 . S
C18 H23 0.929 . S
C19 C18 1.457 . S
C19 C20 1.291 . S
C19 H32 0.931 . S
C20 C19 1.291 . S
C20 C21 1.373 . S
C20 H33 0.929 . S
C21 C20 1.373 . S
C21 C22 1.396 . S
C21 C28 1.403 . S
C22 C12 1.476 . S
C22 N17 1.318 . S
C22 C21 1.396 . S
H23 C18 0.929 . S
O24 Mn0 2.385 . S
O24 C2 1.234 . S
O25 Mn0 2.209 . S
O25 Mn1 2.215 . S
O25 C2 1.283 . S
O26 Mn0 2.094 . S
O26 C4 1.240 . S
O27 Mn1 2.117 . S
O27 C4 1.264 . S
C28 C21 1.403 . S
C28 C29 1.399 . S
C28 H34 0.929 . S
C29 C9 1.449 . S
C29 C28 1.399 . S
C29 H35 0.930 . S
H30 C10 0.931 . S
H31 C11 0.930 . S
H32 C19 0.931 . S
H33 C20 0.929 . S
H34 C28 0.929 . S
H35 C29 0.930 . S
Mn36 O41 2.095 . S
Mn36 O51 2.162 . S
Mn36 O52 2.297 . S
Mn36 O60 2.385 . S
Mn36 O61 2.209 . S
Mn36 O62 2.094 . S
Mn37 O42 2.121 . S
Mn37 N44 2.257 1_545 S
Mn37 N53 2.282 . S
Mn37 O61 2.215 . S
Mn37 O63 2.117 . S
C38 O60 1.234 . S
C38 O61 1.283 . S
C39 O51 1.281 . S
C39 O52 1.236 . S
C40 O62 1.240 . S
C40 O63 1.264 . S
O41 Mn36 2.095 . S
O41 C50 1.250 . S
O42 Mn37 2.121 . S
O42 C50 1.258 . S
C43 N44 1.326 . S
C43 C47 1.460 . S
C43 H49 0.929 . S
N44 Mn37 2.257 1_565 S
N44 C43 1.326 . S
N44 C48 1.362 . S
C45 C46 1.258 . S
C45 C48 1.431 . S
C45 C65 1.449 . S
C46 C45 1.258 . S
C46 C47 1.477 . S
C46 H66 0.931 . S
C47 C43 1.460 . S
C47 C46 1.477 . S
C47 H67 0.930 . S
C48 N44 1.362 . S
C48 C45 1.431 . S
C48 C58 1.476 1_565 S
H49 C43 0.929 . S
C50 O41 1.250 . S
C50 O42 1.258 . S
O51 Mn36 2.162 . S
O51 C39 1.281 . S
O52 Mn36 2.297 . S
O52 C39 1.236 . S
N53 Mn37 2.282 . S
N53 C54 1.328 . S
N53 C58 1.318 . S
C54 N53 1.328 . S
C54 C55 1.457 . S
C54 H59 0.929 . S
C55 C54 1.457 . S
C55 C56 1.291 . S
C55 H68 0.931 . S
C56 C55 1.291 . S
C56 C57 1.373 . S
C56 H69 0.929 . S
C57 C56 1.373 . S
C57 C58 1.396 . S
C57 C64 1.403 1_545 S
C58 C48 1.476 1_545 S
C58 N53 1.318 . S
C58 C57 1.396 . S
H59 C54 0.929 . S
O60 Mn36 2.385 . S
O60 C38 1.234 . S
O61 Mn36 2.209 . S
O61 Mn37 2.215 . S
O61 C38 1.283 . S
O62 Mn36 2.094 . S
O62 C40 1.240 . S
O63 Mn37 2.117 . S
O63 C40 1.264 . S
C64 C57 1.403 1_565 S
C64 C65 1.399 . S
C64 H70 0.929 . S
C65 C45 1.449 . S
C65 C64 1.399 . S
C65 H71 0.930 . S
H66 C46 0.931 . S
H67 C47 0.930 . S
H68 C55 0.931 . S
H69 C56 0.929 . S
H70 C64 0.929 . S
H71 C65 0.930 . S
Mn72 O77 2.095 . S
Mn72 O87 2.162 . S
Mn72 O88 2.297 . S
Mn72 O96 2.385 . S
Mn72 O97 2.209 . S
Mn72 O98 2.094 . S
Mn73 O78 2.121 . S
Mn73 N80 2.257 . S
Mn73 N89 2.282 . S
Mn73 O97 2.215 . S
Mn73 O99 2.117 . S
C74 O96 1.234 . S
C74 O97 1.283 . S
C75 O87 1.281 . S
C75 O88 1.236 . S
C76 O98 1.240 . S
C76 O99 1.264 . S
O77 Mn72 2.095 . S
O77 C86 1.250 . S
O78 Mn73 2.121 . S
O78 C86 1.258 . S
C79 N80 1.326 . S
C79 C83 1.460 . S
C79 H85 0.929 . S
N80 Mn73 2.257 . S
N80 C79 1.326 . S
N80 C84 1.362 . S
C81 C82 1.258 . S
C81 C84 1.431 . S
C81 C101 1.449 . S
C82 C81 1.258 . S
C82 C83 1.477 . S
C82 H102 0.931 . S
C83 C79 1.460 . S
C83 C82 1.477 . S
C83 H103 0.930 . S
C84 N80 1.362 . S
C84 C81 1.431 . S
C84 C94 1.476 . S
H85 C79 0.929 . S
C86 O77 1.250 . S
C86 O78 1.258 . S
O87 Mn72 2.162 . S
O87 C75 1.281 . S
O88 Mn72 2.297 . S
O88 C75 1.236 . S
N89 Mn73 2.282 . S
N89 C90 1.328 . S
N89 C94 1.318 . S
C90 N89 1.328 . S
C90 C91 1.457 . S
C90 H95 0.929 . S
C91 C90 1.457 . S
C91 C92 1.291 . S
C91 H104 0.931 . S
C92 C91 1.291 . S
C92 C93 1.373 . S
C92 H105 0.929 . S
C93 C92 1.373 . S
C93 C94 1.396 . S
C93 C100 1.403 . S
C94 C84 1.476 . S
C94 N89 1.318 . S
C94 C93 1.396 . S
H95 C90 0.929 . S
O96 Mn72 2.385 . S
O96 C74 1.234 . S
O97 Mn72 2.209 . S
O97 Mn73 2.215 . S
O97 C74 1.283 . S
O98 Mn72 2.094 . S
O98 C76 1.240 . S
O99 Mn73 2.117 . S
O99 C76 1.264 . S
C100 C93 1.403 . S
C100 C101 1.399 . S
C100 H106 0.929 . S
C101 C81 1.449 . S
C101 C100 1.399 . S
C101 H107 0.930 . S
H102 C82 0.931 . S
H103 C83 0.930 . S
H104 C91 0.931 . S
H105 C92 0.929 . S
H106 C100 0.929 . S
H107 C101 0.930 . S
Mn108 O113 2.095 . S
Mn108 O123 2.162 . S
Mn108 O124 2.297 . S
Mn108 O132 2.385 . S
Mn108 O133 2.209 . S
Mn108 O134 2.094 . S
Mn109 O114 2.121 . S
Mn109 N116 2.257 . S
Mn109 N125 2.282 . S
Mn109 O133 2.215 . S
Mn109 O135 2.117 . S
C110 O132 1.234 . S
C110 O133 1.283 . S
C111 O123 1.281 . S
C111 O124 1.236 . S
C112 O134 1.240 . S
C112 O135 1.264 . S
O113 Mn108 2.095 . S
O113 C122 1.250 . S
O114 Mn109 2.121 . S
O114 C122 1.258 . S
C115 N116 1.326 . S
C115 C119 1.460 . S
C115 H121 0.929 . S
N116 Mn109 2.257 . S
N116 C115 1.326 . S
N116 C120 1.362 . S
C117 C118 1.258 . S
C117 C120 1.431 . S
C117 C137 1.449 . S
C118 C117 1.258 . S
C118 C119 1.477 . S
C118 H138 0.931 . S
C119 C115 1.460 . S
C119 C118 1.477 . S
C119 H139 0.930 . S
C120 N116 1.362 . S
C120 C117 1.431 . S
C120 C130 1.476 . S
H121 C115 0.929 . S
C122 O113 1.250 . S
C122 O114 1.258 . S
O123 Mn108 2.162 . S
O123 C111 1.281 . S
O124 Mn108 2.297 . S
O124 C111 1.236 . S
N125 Mn109 2.282 . S
N125 C126 1.328 . S
N125 C130 1.318 . S
C126 N125 1.328 . S
C126 C127 1.457 . S
C126 H131 0.929 . S
C127 C126 1.457 . S
C127 C128 1.291 . S
C127 H140 0.931 . S
C128 C127 1.291 . S
C128 C129 1.373 . S
C128 H141 0.929 . S
C129 C128 1.373 . S
C129 C130 1.396 . S
C129 C136 1.403 . S
C130 C120 1.476 . S
C130 N125 1.318 . S
C130 C129 1.396 . S
H131 C126 0.929 . S
O132 Mn108 2.385 . S
O132 C110 1.234 . S
O133 Mn108 2.209 . S
O133 Mn109 2.215 . S
O133 C110 1.283 . S
O134 Mn108 2.094 . S
O134 C112 1.240 . S
O135 Mn109 2.117 . S
O135 C112 1.264 . S
C136 C129 1.403 . S
C136 C137 1.399 . S
C136 H142 0.929 . S
C137 C117 1.449 . S
C137 C136 1.399 . S
C137 H143 0.930 . S
H138 C118 0.931 . S
H139 C119 0.930 . S
H140 C127 0.931 . S
H141 C128 0.929 . S
H142 C136 0.929 . S
H143 C137 0.930 . S
Mn144 O149 2.095 . S
Mn144 O159 2.162 . S
Mn144 O160 2.297 . S
Mn144 O168 2.385 . S
Mn144 O169 2.209 . S
Mn144 O170 2.094 . S
Mn145 O150 2.121 . S
Mn145 N152 2.257 1_565 S
Mn145 N161 2.282 . S
Mn145 O169 2.215 . S
Mn145 O171 2.117 . S
C146 O168 1.234 . S
C146 O169 1.283 . S
C147 O159 1.281 . S
C147 O160 1.236 . S
C148 O170 1.240 . S
C148 O171 1.264 . S
O149 Mn144 2.095 . S
O149 C158 1.250 . S
O150 Mn145 2.121 . S
O150 C158 1.258 . S
C151 N152 1.326 . S
C151 C155 1.460 . S
C151 H157 0.929 . S
N152 Mn145 2.257 1_545 S
N152 C151 1.326 . S
N152 C156 1.362 . S
C153 C154 1.258 . S
C153 C156 1.431 . S
C153 C173 1.449 . S
C154 C153 1.258 . S
C154 C155 1.477 . S
C154 H174 0.931 . S
C155 C151 1.460 . S
C155 C154 1.477 . S
C155 H175 0.930 . S
C156 N152 1.362 . S
C156 C153 1.431 . S
C156 C166 1.476 1_545 S
H157 C151 0.929 . S
C158 O149 1.250 . S
C158 O150 1.258 . S
O159 Mn144 2.162 . S
O159 C147 1.281 . S
O160 Mn144 2.297 . S
O160 C147 1.236 . S
N161 Mn145 2.282 . S
N161 C162 1.328 . S
N161 C166 1.318 . S
C162 N161 1.328 . S
C162 C163 1.457 . S
C162 H167 0.929 . S
C163 C162 1.457 . S
C163 C164 1.291 . S
C163 H176 0.931 . S
C164 C163 1.291 . S
C164 C165 1.373 . S
C164 H177 0.929 . S
C165 C164 1.373 . S
C165 C166 1.396 . S
C165 C172 1.403 1_565 S
C166 C156 1.476 1_565 S
C166 N161 1.318 . S
C166 C165 1.396 . S
H167 C162 0.929 . S
O168 Mn144 2.385 . S
O168 C146 1.234 . S
O169 Mn144 2.209 . S
O169 Mn145 2.215 . S
O169 C146 1.283 . S
O170 Mn144 2.094 . S
O170 C148 1.240 . S
O171 Mn145 2.117 . S
O171 C148 1.264 . S
C172 C165 1.403 1_545 S
C172 C173 1.399 . S
C172 H178 0.929 . S
C173 C153 1.449 . S
C173 C172 1.399 . S
C173 H179 0.930 . S
H174 C154 0.931 . S
H175 C155 0.930 . S
H176 C163 0.931 . S
H177 C164 0.929 . S
H178 C172 0.929 . S
H179 C173 0.930 . S
Mn180 O185 2.095 . S
Mn180 O195 2.162 . S
Mn180 O196 2.297 . S
Mn180 O204 2.385 . S
Mn180 O205 2.209 . S
Mn180 O206 2.094 . S
Mn181 O186 2.121 . S
Mn181 N188 2.257 . S
Mn181 N197 2.282 . S
Mn181 O205 2.215 . S
Mn181 O207 2.117 . S
C182 O204 1.234 . S
C182 O205 1.283 . S
C183 O195 1.281 . S
C183 O196 1.236 . S
C184 O206 1.240 . S
C184 O207 1.264 . S
O185 Mn180 2.095 . S
O185 C194 1.250 . S
O186 Mn181 2.121 . S
O186 C194 1.258 . S
C187 N188 1.326 . S
C187 C191 1.460 . S
C187 H193 0.929 . S
N188 Mn181 2.257 . S
N188 C187 1.326 . S
N188 C192 1.362 . S
C189 C190 1.258 . S
C189 C192 1.431 . S
C189 C209 1.449 . S
C190 C189 1.258 . S
C190 C191 1.477 . S
C190 H210 0.931 . S
C191 C187 1.460 . S
C191 C190 1.477 . S
C191 H211 0.930 . S
C192 N188 1.362 . S
C192 C189 1.431 . S
C192 C202 1.476 . S
H193 C187 0.929 . S
C194 O185 1.250 . S
C194 O186 1.258 . S
O195 Mn180 2.162 . S
O195 C183 1.281 . S
O196 Mn180 2.297 . S
O196 C183 1.236 . S
N197 Mn181 2.282 . S
N197 C198 1.328 . S
N197 C202 1.318 . S
C198 N197 1.328 . S
C198 C199 1.457 . S
C198 H203 0.929 . S
C199 C198 1.457 . S
C199 C200 1.291 . S
C199 H212 0.931 . S
C200 C199 1.291 . S
C200 C201 1.373 . S
C200 H213 0.929 . S
C201 C200 1.373 . S
C201 C202 1.396 . S
C201 C208 1.403 . S
C202 C192 1.476 . S
C202 N197 1.318 . S
C202 C201 1.396 . S
H203 C198 0.929 . S
O204 Mn180 2.385 . S
O204 C182 1.234 . S
O205 Mn180 2.209 . S
O205 Mn181 2.215 . S
O205 C182 1.283 . S
O206 Mn180 2.094 . S
O206 C184 1.240 . S
O207 Mn181 2.117 . S
O207 C184 1.264 . S
C208 C201 1.403 . S
C208 C209 1.399 . S
C208 H214 0.929 . S
C209 C189 1.449 . S
C209 C208 1.399 . S
C209 H215 0.930 . S
H210 C190 0.931 . S
H211 C191 0.930 . S
H212 C199 0.931 . S
H213 C200 0.929 . S
H214 C208 0.929 . S
H215 C209 0.930 . S
Mn216 O221 2.095 . S
Mn216 O231 2.162 . S
Mn216 O232 2.297 . S
Mn216 O240 2.385 . S
Mn216 O241 2.209 . S
Mn216 O242 2.094 . S
Mn217 O222 2.121 . S
Mn217 N224 2.257 1_565 S
Mn217 N233 2.282 . S
Mn217 O241 2.215 . S
Mn217 O243 2.117 . S
C218 O240 1.234 . S
C218 O241 1.283 . S
C219 O231 1.281 . S
C219 O232 1.236 . S
C220 O242 1.240 . S
C220 O243 1.264 . S
O221 Mn216 2.095 . S
O221 C230 1.250 . S
O222 Mn217 2.121 . S
O222 C230 1.258 . S
C223 N224 1.326 . S
C223 C227 1.460 . S
C223 H229 0.929 . S
N224 Mn217 2.257 1_545 S
N224 C223 1.326 . S
N224 C228 1.362 . S
C225 C226 1.258 . S
C225 C228 1.431 . S
C225 C245 1.449 . S
C226 C225 1.258 . S
C226 C227 1.477 . S
C226 H246 0.931 . S
C227 C223 1.460 . S
C227 C226 1.477 . S
C227 H247 0.930 . S
C228 N224 1.362 . S
C228 C225 1.431 . S
C228 C238 1.476 1_545 S
H229 C223 0.929 . S
C230 O221 1.250 . S
C230 O222 1.258 . S
O231 Mn216 2.162 . S
O231 C219 1.281 . S
O232 Mn216 2.297 . S
O232 C219 1.236 . S
N233 Mn217 2.282 . S
N233 C234 1.328 . S
N233 C238 1.318 . S
C234 N233 1.328 . S
C234 C235 1.457 . S
C234 H239 0.929 . S
C235 C234 1.457 . S
C235 C236 1.291 . S
C235 H248 0.931 . S
C236 C235 1.291 . S
C236 C237 1.373 . S
C236 H249 0.929 . S
C237 C236 1.373 . S
C237 C238 1.396 . S
C237 C244 1.403 1_565 S
C238 C228 1.476 1_565 S
C238 N233 1.318 . S
C238 C237 1.396 . S
H239 C234 0.929 . S
O240 Mn216 2.385 . S
O240 C218 1.234 . S
O241 Mn216 2.209 . S
O241 Mn217 2.215 . S
O241 C218 1.283 . S
O242 Mn216 2.094 . S
O242 C220 1.240 . S
O243 Mn217 2.117 . S
O243 C220 1.264 . S
C244 C237 1.403 1_545 S
C244 C245 1.399 . S
C244 H250 0.929 . S
C245 C225 1.449 . S
C245 C244 1.399 . S
C245 H251 0.930 . S
H246 C226 0.931 . S
H247 C227 0.930 . S
H248 C235 0.931 . S
H249 C236 0.929 . S
H250 C244 0.929 . S
H251 C245 0.930 . S
Mn252 O257 2.095 . S
Mn252 O267 2.162 . S
Mn252 O268 2.297 . S
Mn252 O276 2.385 . S
Mn252 O277 2.209 . S
Mn252 O278 2.094 . S
Mn253 O258 2.121 . S
Mn253 N260 2.257 . S
Mn253 N269 2.282 . S
Mn253 O277 2.215 . S
Mn253 O279 2.117 . S
C254 O276 1.234 . S
C254 O277 1.283 . S
C255 O267 1.281 . S
C255 O268 1.236 . S
C256 O278 1.240 . S
C256 O279 1.264 . S
O257 Mn252 2.095 . S
O257 C266 1.250 . S
O258 Mn253 2.121 . S
O258 C266 1.258 . S
C259 N260 1.326 . S
C259 C263 1.460 . S
C259 H265 0.929 . S
N260 Mn253 2.257 . S
N260 C259 1.326 . S
N260 C264 1.362 . S
C261 C262 1.258 . S
C261 C264 1.431 . S
C261 C281 1.449 . S
C262 C261 1.258 . S
C262 C263 1.477 . S
C262 H282 0.931 . S
C263 C259 1.460 . S
C263 C262 1.477 . S
C263 H283 0.930 . S
C264 N260 1.362 . S
C264 C261 1.431 . S
C264 C274 1.476 . S
H265 C259 0.929 . S
C266 O257 1.250 . S
C266 O258 1.258 . S
O267 Mn252 2.162 . S
O267 C255 1.281 . S
O268 Mn252 2.297 . S
O268 C255 1.236 . S
N269 Mn253 2.282 . S
N269 C270 1.328 . S
N269 C274 1.318 . S
C270 N269 1.328 . S
C270 C271 1.457 . S
C270 H275 0.929 . S
C271 C270 1.457 . S
C271 C272 1.291 . S
C271 H284 0.931 . S
C272 C271 1.291 . S
C272 C273 1.373 . S
C272 H285 0.929 . S
C273 C272 1.373 . S
C273 C274 1.396 . S
C273 C280 1.403 . S
C274 C264 1.476 . S
C274 N269 1.318 . S
C274 C273 1.396 . S
H275 C270 0.929 . S
O276 Mn252 2.385 . S
O276 C254 1.234 . S
O277 Mn252 2.209 . S
O277 Mn253 2.215 . S
O277 C254 1.283 . S
O278 Mn252 2.094 . S
O278 C256 1.240 . S
O279 Mn253 2.117 . S
O279 C256 1.264 . S
C280 C273 1.403 . S
C280 C281 1.399 . S
C280 H286 0.929 . S
C281 C261 1.449 . S
C281 C280 1.399 . S
C281 H287 0.930 . S
H282 C262 0.931 . S
H283 C263 0.930 . S
H284 C271 0.931 . S
H285 C272 0.929 . S
H286 C280 0.929 . S
H287 C281 0.930 . S
Mn288 O293 2.095 . S
Mn288 O303 2.162 . S
Mn288 O304 2.297 . S
Mn288 O312 2.385 . S
Mn288 O313 2.209 . S
Mn288 O314 2.094 . S
Mn289 O294 2.121 . S
Mn289 N296 2.257 1_455 S
Mn289 N305 2.282 . S
Mn289 O313 2.215 . S
Mn289 O315 2.117 . S
C290 O312 1.234 . S
C290 O313 1.283 . S
C291 O303 1.281 . S
C291 O304 1.236 . S
C292 O314 1.240 . S
C292 O315 1.264 . S
O293 Mn288 2.095 . S
O293 C302 1.250 . S
O294 Mn289 2.121 . S
O294 C302 1.258 . S
C295 N296 1.326 . S
C295 C299 1.460 . S
C295 H301 0.929 . S
N296 Mn289 2.257 1_655 S
N296 C295 1.326 . S
N296 C300 1.362 . S
C297 C298 1.258 . S
C297 C300 1.431 . S
C297 C317 1.449 . S
C298 C297 1.258 . S
C298 C299 1.477 . S
C298 H318 0.931 . S
C299 C295 1.460 . S
C299 C298 1.477 . S
C299 H319 0.930 . S
C300 N296 1.362 . S
C300 C297 1.431 . S
C300 C310 1.476 1_655 S
H301 C295 0.929 . S
C302 O293 1.250 . S
C302 O294 1.258 . S
O303 Mn288 2.162 . S
O303 C291 1.281 . S
O304 Mn288 2.297 . S
O304 C291 1.236 . S
N305 Mn289 2.282 . S
N305 C306 1.328 . S
N305 C310 1.318 . S
C306 N305 1.328 . S
C306 C307 1.457 . S
C306 H311 0.929 . S
C307 C306 1.457 . S
C307 C308 1.291 . S
C307 H320 0.931 . S
C308 C307 1.291 . S
C308 C309 1.373 . S
C308 H321 0.929 . S
C309 C308 1.373 . S
C309 C310 1.396 . S
C309 C316 1.403 1_455 S
C310 C300 1.476 1_455 S
C310 N305 1.318 . S
C310 C309 1.396 . S
H311 C306 0.929 . S
O312 Mn288 2.385 . S
O312 C290 1.234 . S
O313 Mn288 2.209 . S
O313 Mn289 2.215 . S
O313 C290 1.283 . S
O314 Mn288 2.094 . S
O314 C292 1.240 . S
O315 Mn289 2.117 . S
O315 C292 1.264 . S
C316 C309 1.403 1_655 S
C316 C317 1.399 . S
C316 H322 0.929 . S
C317 C297 1.449 . S
C317 C316 1.399 . S
C317 H323 0.930 . S
H318 C298 0.931 . S
H319 C299 0.930 . S
H320 C307 0.931 . S
H321 C308 0.929 . S
H322 C316 0.929 . S
H323 C317 0.930 . S
Mn324 O329 2.095 . S
Mn324 O339 2.162 . S
Mn324 O340 2.297 . S
Mn324 O348 2.385 . S
Mn324 O349 2.209 . S
Mn324 O350 2.094 . S
Mn325 O330 2.121 . S
Mn325 N332 2.257 1_545 S
Mn325 N341 2.282 . S
Mn325 O349 2.215 . S
Mn325 O351 2.117 . S
C326 O348 1.234 . S
C326 O349 1.283 . S
C327 O339 1.281 . S
C327 O340 1.236 . S
C328 O350 1.240 . S
C328 O351 1.264 . S
O329 Mn324 2.095 . S
O329 C338 1.250 . S
O330 Mn325 2.121 . S
O330 C338 1.258 . S
C331 N332 1.326 . S
C331 C335 1.460 . S
C331 H337 0.929 . S
N332 Mn325 2.257 1_565 S
N332 C331 1.326 . S
N332 C336 1.362 . S
C333 C334 1.258 . S
C333 C336 1.431 . S
C333 C353 1.449 . S
C334 C333 1.258 . S
C334 C335 1.477 . S
C334 H354 0.931 . S
C335 C331 1.460 . S
C335 C334 1.477 . S
C335 H355 0.930 . S
C336 N332 1.362 . S
C336 C333 1.431 . S
C336 C346 1.476 1_565 S
H337 C331 0.929 . S
C338 O329 1.250 . S
C338 O330 1.258 . S
O339 Mn324 2.162 . S
O339 C327 1.281 . S
O340 Mn324 2.297 . S
O340 C327 1.236 . S
N341 Mn325 2.282 . S
N341 C342 1.328 . S
N341 C346 1.318 . S
C342 N341 1.328 . S
C342 C343 1.457 . S
C342 H347 0.929 . S
C343 C342 1.457 . S
C343 C344 1.291 . S
C343 H356 0.931 . S
C344 C343 1.291 . S
C344 C345 1.373 . S
C344 H357 0.929 . S
C345 C344 1.373 . S
C345 C346 1.396 . S
C345 C352 1.403 1_545 S
C346 C336 1.476 1_545 S
C346 N341 1.318 . S
C346 C345 1.396 . S
H347 C342 0.929 . S
O348 Mn324 2.385 . S
O348 C326 1.234 . S
O349 Mn324 2.209 . S
O349 Mn325 2.215 . S
O349 C326 1.283 . S
O350 Mn324 2.094 . S
O350 C328 1.240 . S
O351 Mn325 2.117 . S
O351 C328 1.264 . S
C352 C345 1.403 1_565 S
C352 C353 1.399 . S
C352 H358 0.929 . S
C353 C333 1.449 . S
C353 C352 1.399 . S
C353 H359 0.930 . S
H354 C334 0.931 . S
H355 C335 0.930 . S
H356 C343 0.931 . S
H357 C344 0.929 . S
H358 C352 0.929 . S
H359 C353 0.930 . S
Mn360 O365 2.095 . S
Mn360 O375 2.162 . S
Mn360 O376 2.297 . S
Mn360 O384 2.385 . S
Mn360 O385 2.209 . S
Mn360 O386 2.094 . S
Mn361 O366 2.121 . S
Mn361 N368 2.257 . S
Mn361 N377 2.282 . S
Mn361 O385 2.215 . S
Mn361 O387 2.117 . S
C362 O384 1.234 . S
C362 O385 1.283 . S
C363 O375 1.281 . S
C363 O376 1.236 . S
C364 O386 1.240 . S
C364 O387 1.264 . S
O365 Mn360 2.095 . S
O365 C374 1.250 . S
O366 Mn361 2.121 . S
O366 C374 1.258 . S
C367 N368 1.326 . S
C367 C371 1.460 . S
C367 H373 0.929 . S
N368 Mn361 2.257 . S
N368 C367 1.326 . S
N368 C372 1.362 . S
C369 C370 1.258 . S
C369 C372 1.431 . S
C369 C389 1.449 . S
C370 C369 1.258 . S
C370 C371 1.477 . S
C370 H390 0.931 . S
C371 C367 1.460 . S
C371 C370 1.477 . S
C371 H391 0.930 . S
C372 N368 1.362 . S
C372 C369 1.431 . S
C372 C382 1.476 . S
H373 C367 0.929 . S
C374 O365 1.250 . S
C374 O366 1.258 . S
O375 Mn360 2.162 . S
O375 C363 1.281 . S
O376 Mn360 2.297 . S
O376 C363 1.236 . S
N377 Mn361 2.282 . S
N377 C378 1.328 . S
N377 C382 1.318 . S
C378 N377 1.328 . S
C378 C379 1.457 . S
C378 H383 0.929 . S
C379 C378 1.457 . S
C379 C380 1.291 . S
C379 H392 0.931 . S
C380 C379 1.291 . S
C380 C381 1.373 . S
C380 H393 0.929 . S
C381 C380 1.373 . S
C381 C382 1.396 . S
C381 C388 1.403 . S
C382 C372 1.476 . S
C382 N377 1.318 . S
C382 C381 1.396 . S
H383 C378 0.929 . S
O384 Mn360 2.385 . S
O384 C362 1.234 . S
O385 Mn360 2.209 . S
O385 Mn361 2.215 . S
O385 C362 1.283 . S
O386 Mn360 2.094 . S
O386 C364 1.240 . S
O387 Mn361 2.117 . S
O387 C364 1.264 . S
C388 C381 1.403 . S
C388 C389 1.399 . S
C388 H394 0.929 . S
C389 C369 1.449 . S
C389 C388 1.399 . S
C389 H395 0.930 . S
H390 C370 0.931 . S
H391 C371 0.930 . S
H392 C379 0.931 . S
H393 C380 0.929 . S
H394 C388 0.929 . S
H395 C389 0.930 . S
Mn396 O401 2.095 . S
Mn396 O411 2.162 . S
Mn396 O412 2.297 . S
Mn396 O420 2.385 . S
Mn396 O421 2.209 . S
Mn396 O422 2.094 . S
Mn397 O402 2.121 . S
Mn397 N404 2.257 1_655 S
Mn397 N413 2.282 . S
Mn397 O421 2.215 . S
Mn397 O423 2.117 . S
C398 O420 1.234 . S
C398 O421 1.283 . S
C399 O411 1.281 . S
C399 O412 1.236 . S
C400 O422 1.240 . S
C400 O423 1.264 . S
O401 Mn396 2.095 . S
O401 C410 1.250 . S
O402 Mn397 2.121 . S
O402 C410 1.258 . S
C403 N404 1.326 . S
C403 C407 1.460 . S
C403 H409 0.929 . S
N404 Mn397 2.257 1_455 S
N404 C403 1.326 . S
N404 C408 1.362 . S
C405 C406 1.258 . S
C405 C408 1.431 . S
C405 C425 1.449 . S
C406 C405 1.258 . S
C406 C407 1.477 . S
C406 H426 0.931 . S
C407 C403 1.460 . S
C407 C406 1.477 . S
C407 H427 0.930 . S
C408 N404 1.362 . S
C408 C405 1.431 . S
C408 C418 1.476 1_455 S
H409 C403 0.929 . S
C410 O401 1.250 . S
C410 O402 1.258 . S
O411 Mn396 2.162 . S
O411 C399 1.281 . S
O412 Mn396 2.297 . S
O412 C399 1.236 . S
N413 Mn397 2.282 . S
N413 C414 1.328 . S
N413 C418 1.318 . S
C414 N413 1.328 . S
C414 C415 1.457 . S
C414 H419 0.929 . S
C415 C414 1.457 . S
C415 C416 1.291 . S
C415 H428 0.931 . S
C416 C415 1.291 . S
C416 C417 1.373 . S
C416 H429 0.929 . S
C417 C416 1.373 . S
C417 C418 1.396 . S
C417 C424 1.403 1_655 S
C418 C408 1.476 1_655 S
C418 N413 1.318 . S
C418 C417 1.396 . S
H419 C414 0.929 . S
O420 Mn396 2.385 . S
O420 C398 1.234 . S
O421 Mn396 2.209 . S
O421 Mn397 2.215 . S
O421 C398 1.283 . S
O422 Mn396 2.094 . S
O422 C400 1.240 . S
O423 Mn397 2.117 . S
O423 C400 1.264 . S
C424 C417 1.403 1_455 S
C424 C425 1.399 . S
C424 H430 0.929 . S
C425 C405 1.449 . S
C425 C424 1.399 . S
C425 H431 0.930 . S
H426 C406 0.931 . S
H427 C407 0.930 . S
H428 C415 0.931 . S
H429 C416 0.929 . S
H430 C424 0.929 . S
H431 C425 0.930 . S
H432 C440 0.950 1_655 S
H433 C445 0.950 . S
H434 C442 0.950 . S
H435 C444 0.950 . S
H436 C446 0.950 1_455 S
H437 C448 0.950 . S
H438 C450 0.950 . S
H439 C451 0.950 . S
C440 H432 0.950 1_455 S
C440 C441 1.386 . S
C440 C442 1.391 1_455 S
C441 C440 1.386 . S
C441 C445 1.393 . S
C442 H434 0.950 . S
C442 C440 1.391 1_655 S
C442 C443 1.400 1_655 S
C443 C442 1.400 1_455 S
C443 C444 1.398 . S
C443 C449 1.491 1_454 S
C444 H435 0.950 . S
C444 C443 1.398 . S
C444 C445 1.391 . S
C445 H433 0.950 . S
C445 C441 1.393 . S
C445 C444 1.391 . S
C446 H436 0.950 1_655 S
C446 C447 1.386 . S
C446 C448 1.391 1_655 S
C447 C446 1.386 . S
C447 C451 1.393 . S
C448 H437 0.950 . S
C448 C446 1.391 1_455 S
C448 C449 1.400 1_455 S
C449 C443 1.491 1_656 S
C449 C448 1.400 1_655 S
C449 C450 1.398 . S
C450 H438 0.950 . S
C450 C449 1.398 . S
C450 C451 1.391 . S
C451 H439 0.950 . S
C451 C447 1.393 . S
C451 C450 1.391 . S
H452 C460 0.950 . S
H453 C465 0.950 . S
H454 C462 0.950 . S
H455 C464 0.950 . S
H456 C466 0.950 . S
H457 C468 0.950 . S
H458 C470 0.950 . S
H459 C471 0.950 . S
C460 H452 0.950 . S
C460 C461 1.386 1_545 S
C460 C462 1.391 . S
C461 C460 1.386 1_565 S
C461 C465 1.393 . S
C462 H454 0.950 . S
C462 C460 1.391 . S
C462 C463 1.400 1_545 S
C463 C462 1.400 1_565 S
C463 C464 1.398 . S
C463 C469 1.491 1_565 S
C464 H455 0.950 . S
C464 C463 1.398 . S
C464 C465 1.391 . S
C465 H453 0.950 . S
C465 C461 1.393 . S
C465 C464 1.391 . S
C466 H456 0.950 . S
C466 C467 1.386 1_565 S
C466 C468 1.391 . S
C467 C466 1.386 1_545 S
C467 C471 1.393 . S
C468 H457 0.950 . S
C468 C466 1.391 . S
C468 C469 1.400 1_565 S
C469 C463 1.491 1_545 S
C469 C468 1.400 1_545 S
C469 C470 1.398 . S
C470 H458 0.950 . S
C470 C469 1.398 . S
C470 C471 1.391 . S
C471 H459 0.950 . S
C471 C467 1.393 . S
C471 C470 1.391 . S
H472 C480 0.950 . S
H473 C485 0.950 . S
H474 C482 0.950 . S
H475 C484 0.950 . S
H476 C486 0.950 . S
H477 C488 0.950 . S
H478 C490 0.950 . S
H479 C491 0.950 . S
C480 H472 0.950 . S
C480 C481 1.386 . S
C480 C482 1.391 . S
C481 C480 1.386 . S
C481 C485 1.393 . S
C482 H474 0.950 . S
C482 C480 1.391 . S
C482 C483 1.400 . S
C483 C482 1.400 . S
C483 C484 1.398 . S
C483 C489 1.491 1_554 S
C484 H475 0.950 . S
C484 C483 1.398 . S
C484 C485 1.391 . S
C485 H473 0.950 . S
C485 C481 1.393 . S
C485 C484 1.391 . S
C486 H476 0.950 . S
C486 C487 1.386 . S
C486 C488 1.391 . S
C487 C486 1.386 . S
C487 C491 1.393 . S
C488 H477 0.950 . S
C488 C486 1.391 . S
C488 C489 1.400 . S
C489 C483 1.491 1_556 S
C489 C488 1.400 . S
C489 C490 1.398 . S
C490 H478 0.950 . S
C490 C489 1.398 . S
C490 C491 1.391 . S
C491 H479 0.950 . S
C491 C487 1.393 . S
C491 C490 1.391 . S
H492 C500 0.950 . S
H493 C505 0.950 . S
H494 C502 0.945 1_655 S
H495 C504 0.950 . S
H496 C506 0.950 . S
H497 C508 0.950 1_455 S
H498 C510 0.950 . S
H499 C511 0.950 . S
C500 H492 0.950 . S
C500 C501 1.386 . S
C500 C502 1.393 . S
C501 C500 1.386 . S
C501 C505 1.393 . S
C502 H494 0.945 1_455 S
C502 C500 1.393 . S
C502 C503 1.403 . S
C503 C502 1.403 . S
C503 C504 1.398 . S
C503 C509 1.491 1_455 S
C504 H495 0.950 . S
C504 C503 1.398 . S
C504 C505 1.391 . S
C505 H493 0.950 . S
C505 C501 1.393 . S
C505 C504 1.391 . S
C506 H496 0.950 . S
C506 C507 1.386 . S
C506 C508 1.391 . S
C507 C506 1.386 . S
C507 C511 1.393 . S
C508 H497 0.950 1_655 S
C508 C506 1.391 . S
C508 C509 1.400 . S
C509 C503 1.491 1_655 S
C509 C508 1.400 . S
C509 C510 1.398 . S
C510 H498 0.950 . S
C510 C509 1.398 . S
C510 C511 1.391 . S
C511 H499 0.950 . S
C511 C507 1.393 . S
C511 C510 1.391 . S
H512 C520 0.950 1_565 S
H513 C525 0.950 . S
H514 C522 0.950 . S
H515 C524 0.950 . S
H516 C526 0.950 1_545 S
H517 C528 0.950 . S
H518 C530 0.950 . S
H519 C531 0.950 . S
C520 H512 0.950 1_545 S
C520 C521 1.386 . S
C520 C522 1.391 1_545 S
C521 C520 1.386 . S
C521 C525 1.393 . S
C522 H514 0.950 . S
C522 C520 1.391 1_565 S
C522 C523 1.400 1_565 S
C523 C522 1.400 1_545 S
C523 C524 1.398 . S
C523 C529 1.491 1_546 S
C524 H515 0.950 . S
C524 C523 1.398 . S
C524 C525 1.391 . S
C525 H513 0.950 . S
C525 C521 1.393 . S
C525 C524 1.391 . S
C526 H516 0.950 1_565 S
C526 C527 1.386 . S
C526 C528 1.391 1_565 S
C527 C526 1.386 . S
C527 C531 1.393 . S
C528 H517 0.950 . S
C528 C526 1.391 1_545 S
C528 C529 1.400 1_545 S
C529 C523 1.491 1_564 S
C529 C528 1.400 1_565 S
C529 C530 1.398 . S
C530 H518 0.950 . S
C530 C529 1.398 . S
C530 C531 1.391 . S
C531 H519 0.950 . S
C531 C527 1.393 . S
C531 C530 1.391 . S
H532 C540 0.950 . S
H533 C545 0.950 . S
H534 C542 0.950 . S
H535 C544 0.950 . S
H536 C546 0.950 . S
H537 C548 0.950 . S
H538 C550 0.950 . S
H539 C551 0.950 . S
C540 H532 0.950 . S
C540 C541 1.386 . S
C540 C542 1.391 . S
C541 C540 1.386 . S
C541 C545 1.393 . S
C542 H534 0.950 . S
C542 C540 1.391 . S
C542 C543 1.400 . S
C543 C542 1.400 . S
C543 C544 1.398 . S
C543 C549 1.491 . S
C544 H535 0.950 . S
C544 C543 1.398 . S
C544 C545 1.391 . S
C545 H533 0.950 . S
C545 C541 1.393 . S
C545 C544 1.391 . S
C546 H536 0.950 . S
C546 C547 1.386 . S
C546 C548 1.391 . S
C547 C546 1.386 . S
C547 C551 1.393 . S
C548 H537 0.950 . S
C548 C546 1.391 . S
C548 C549 1.400 . S
C549 C543 1.491 . S
C549 C548 1.400 . S
C549 C550 1.398 . S
C550 H538 0.950 . S
C550 C549 1.398 . S
C550 C551 1.391 . S
C551 H539 0.950 . S
C551 C547 1.393 . S
C551 C550 1.391 . S
H552 C560 0.950 . S
H553 C565 0.950 1_455 S
H554 C562 0.950 . S
H555 C564 0.950 . S
H556 C566 0.950 . S
H557 C568 0.950 . S
H558 C570 0.950 . S
H559 C571 0.950 . S
C560 H552 0.950 . S
C560 C561 1.386 . S
C560 C562 1.391 . S
C561 C560 1.386 . S
C561 C565 1.393 . S
C562 H554 0.950 . S
C562 C560 1.391 . S
C562 C563 1.400 . S
C563 C562 1.400 . S
C563 C564 1.398 1_655 S
C563 C569 1.491 1_656 S
C564 H555 0.950 . S
C564 C563 1.398 1_455 S
C564 C565 1.391 1_455 S
C565 H553 0.950 1_655 S
C565 C561 1.393 . S
C565 C564 1.391 1_655 S
C566 H556 0.950 . S
C566 C567 1.386 . S
C566 C568 1.391 . S
C567 C566 1.386 . S
C567 C571 1.393 1_455 S
C568 H557 0.950 . S
C568 C566 1.391 . S
C568 C569 1.400 . S
C569 C563 1.491 1_454 S
C569 C568 1.400 . S
C569 C570 1.398 1_455 S
C570 H558 0.950 . S
C570 C569 1.398 1_655 S
C570 C571 1.391 . S
C571 H559 0.950 . S
C571 C567 1.393 1_655 S
C571 C570 1.391 . S
H572 C580 0.950 . S
H573 C585 0.950 . S
H574 C582 0.950 . S
H575 C584 0.950 . S
H576 C586 0.950 . S
H577 C588 0.950 . S
H578 C590 0.950 . S
H579 C591 0.950 . S
C580 H572 0.950 . S
C580 C581 1.386 1_545 S
C580 C582 1.391 . S
C581 C580 1.386 1_565 S
C581 C585 1.393 . S
C582 H574 0.950 . S
C582 C580 1.391 . S
C582 C583 1.400 1_545 S
C583 C582 1.400 1_565 S
C583 C584 1.398 . S
C583 C589 1.491 1_565 S
C584 H575 0.950 . S
C584 C583 1.398 . S
C584 C585 1.391 . S
C585 H573 0.950 . S
C585 C581 1.393 . S
C585 C584 1.391 . S
C586 H576 0.950 . S
C586 C587 1.386 1_565 S
C586 C588 1.391 . S
C587 C586 1.386 1_545 S
C587 C591 1.393 . S
C588 H577 0.950 . S
C588 C586 1.391 . S
C588 C589 1.400 1_565 S
C589 C583 1.491 1_545 S
C589 C588 1.400 1_545 S
C589 C590 1.398 . S
C590 H578 0.950 . S
C590 C589 1.398 . S
C590 C591 1.391 . S
C591 H579 0.950 . S
C591 C587 1.393 . S
C591 C590 1.391 . S
H592 C600 0.950 . S
H593 C605 0.950 . S
H594 C602 0.950 . S
H595 C604 0.950 . S
H596 C606 0.950 . S
H597 C608 0.950 . S
H598 C610 0.950 . S
H599 C611 0.950 . S
C600 H592 0.950 . S
C600 C601 1.386 . S
C600 C602 1.391 . S
C601 C600 1.386 . S
C601 C605 1.393 . S
C602 H594 0.950 . S
C602 C600 1.391 . S
C602 C603 1.400 . S
C603 C602 1.400 . S
C603 C604 1.398 . S
C603 C609 1.491 1_556 S
C604 H595 0.950 . S
C604 C603 1.398 . S
C604 C605 1.391 . S
C605 H593 0.950 . S
C605 C601 1.393 . S
C605 C604 1.391 . S
C606 H596 0.950 . S
C606 C607 1.386 . S
C606 C608 1.391 . S
C607 C606 1.386 . S
C607 C611 1.393 . S
C608 H597 0.950 . S
C608 C606 1.391 . S
C608 C609 1.400 . S
C609 C603 1.491 1_554 S
C609 C608 1.400 . S
C609 C610 1.398 . S
C610 H598 0.950 . S
C610 C609 1.398 . S
C610 C611 1.391 . S
C611 H599 0.950 . S
C611 C607 1.393 . S
C611 C610 1.391 . S
H612 C620 0.950 . S
H613 C625 0.950 . S
H614 C622 0.950 . S
H615 C624 0.950 . S
H616 C626 0.950 . S
H617 C628 0.950 . S
H618 C630 0.950 . S
H619 C631 0.950 . S
C620 H612 0.950 . S
C620 C621 1.386 . S
C620 C622 1.391 . S
C621 C620 1.386 . S
C621 C625 1.393 1_655 S
C622 H614 0.950 . S
C622 C620 1.391 . S
C622 C623 1.400 . S
C623 C622 1.400 . S
C623 C624 1.398 1_655 S
C623 C629 1.491 1_655 S
C624 H615 0.950 . S
C624 C623 1.398 1_455 S
C624 C625 1.391 . S
C625 H613 0.950 . S
C625 C621 1.393 1_455 S
C625 C624 1.391 . S
C626 H616 0.950 . S
C626 C627 1.386 . S
C626 C628 1.391 . S
C627 C626 1.386 . S
C627 C631 1.393 1_455 S
C628 H617 0.950 . S
C628 C626 1.391 . S
C628 C629 1.400 . S
C629 C623 1.491 1_455 S
C629 C628 1.400 . S
C629 C630 1.398 1_455 S
C630 H618 0.950 . S
C630 C629 1.398 1_655 S
C630 C631 1.391 . S
C631 H619 0.950 . S
C631 C627 1.393 1_655 S
C631 C630 1.391 . S
H632 C640 0.950 . S
H633 C645 0.950 . S
H634 C642 0.950 . S
H635 C644 0.950 . S
H636 C646 0.950 . S
H637 C648 0.950 . S
H638 C650 0.950 . S
H639 C651 0.950 . S
C640 H632 0.950 . S
C640 C641 1.386 . S
C640 C642 1.391 . S
C641 C640 1.386 . S
C641 C645 1.393 . S
C642 H634 0.950 . S
C642 C640 1.391 . S
C642 C643 1.400 . S
C643 C642 1.400 . S
C643 C644 1.398 . S
C643 C649 1.491 1_546 S
C644 H635 0.950 . S
C644 C643 1.398 . S
C644 C645 1.391 . S
C645 H633 0.950 . S
C645 C641 1.393 . S
C645 C644 1.391 . S
C646 H636 0.950 . S
C646 C647 1.386 . S
C646 C648 1.391 . S
C647 C646 1.386 . S
C647 C651 1.393 . S
C648 H637 0.950 . S
C648 C646 1.391 . S
C648 C649 1.400 . S
C649 C643 1.491 1_564 S
C649 C648 1.400 . S
C649 C650 1.398 . S
C650 H638 0.950 . S
C650 C649 1.398 . S
C650 C651 1.391 . S
C651 H639 0.950 . S
C651 C647 1.393 . S
C651 C650 1.391 . S
H652 C660 0.950 . S
H653 C665 0.950 . S
H654 C662 0.950 . S
H655 C664 0.950 . S
H656 C666 0.950 . S
H657 C668 0.950 . S
H658 C670 0.950 . S
H659 C671 0.950 . S
C660 H652 0.950 . S
C660 C661 1.386 . S
C660 C662 1.391 . S
C661 C660 1.386 . S
C661 C665 1.393 . S
C662 H654 0.950 . S
C662 C660 1.391 . S
C662 C663 1.400 . S
C663 C662 1.400 . S
C663 C664 1.398 . S
C663 C669 1.491 . S
C664 H655 0.950 . S
C664 C663 1.398 . S
C664 C665 1.391 . S
C665 H653 0.950 . S
C665 C661 1.393 . S
C665 C664 1.391 . S
C666 H656 0.950 . S
C666 C667 1.386 . S
C666 C668 1.391 . S
C667 C666 1.386 . S
C667 C671 1.393 . S
C668 H657 0.950 . S
C668 C666 1.391 . S
C668 C669 1.400 . S
C669 C663 1.491 . S
C669 C668 1.400 . S
C669 C670 1.398 . S
C670 H658 0.950 . S
C670 C669 1.398 . S
C670 C671 1.391 . S
C671 H659 0.950 . S
C671 C667 1.393 . S
C671 C670 1.391 . S
H672 C680 0.950 . S
H673 C685 0.950 . S
H674 C682 0.950 . S
H675 C684 0.950 . S
H676 C686 0.950 . S
H677 C688 0.950 . S
H678 C690 0.950 . S
H679 C691 0.950 . S
C680 H672 0.950 . S
C680 C681 1.386 . S
C680 C682 1.391 . S
C681 C680 1.386 . S
C681 C685 1.393 . S
C682 H674 0.950 . S
C682 C680 1.391 . S
C682 C683 1.400 . S
C683 C682 1.400 . S
C683 C684 1.398 . S
C683 C689 1.491 . S
C684 H675 0.950 . S
C684 C683 1.398 . S
C684 C685 1.391 . S
C685 H673 0.950 . S
C685 C681 1.393 . S
C685 C684 1.391 . S
C686 H676 0.950 . S
C686 C687 1.386 . S
C686 C688 1.391 . S
C687 C686 1.386 . S
C687 C691 1.393 . S
C688 H677 0.950 . S
C688 C686 1.391 . S
C688 C689 1.400 . S
C689 C683 1.491 . S
C689 C688 1.400 . S
C689 C690 1.398 . S
C690 H678 0.950 . S
C690 C689 1.398 . S
C690 C691 1.391 . S
C691 H679 0.950 . S
C691 C687 1.393 . S
C691 C690 1.391 . S
H692 C700 0.950 . S
H693 C705 0.950 . S
H694 C702 0.950 . S
H695 C704 0.950 . S
H696 C706 0.950 . S
H697 C708 0.950 . S
H698 C710 0.950 . S
H699 C711 0.950 . S
C700 H692 0.950 . S
C700 C701 1.386 . S
C700 C702 1.391 . S
C701 C700 1.386 . S
C701 C705 1.393 . S
C702 H694 0.950 . S
C702 C700 1.391 . S
C702 C703 1.400 . S
C703 C702 1.400 . S
C703 C704 1.398 . S
C703 C709 1.491 . S
C704 H695 0.950 . S
C704 C703 1.398 . S
C704 C705 1.391 . S
C705 H693 0.950 . S
C705 C701 1.393 . S
C705 C704 1.391 . S
C706 H696 0.950 . S
C706 C707 1.386 . S
C706 C708 1.391 . S
C707 C706 1.386 . S
C707 C711 1.393 . S
C708 H697 0.950 . S
C708 C706 1.391 . S
C708 C709 1.400 . S
C709 C703 1.491 . S
C709 C708 1.400 . S
C709 C710 1.398 . S
C710 H698 0.950 . S
C710 C709 1.398 . S
C710 C711 1.391 . S
C711 H699 0.950 . S
C711 C707 1.393 . S
C711 C710 1.391 . S
H712 C720 0.950 . S
H713 C725 0.950 . S
H714 C722 0.950 . S
H715 C724 0.950 . S
H716 C726 0.950 . S
H717 C728 0.950 . S
H718 C730 0.950 . S
H719 C731 0.950 . S
C720 H712 0.950 . S
C720 C721 1.386 . S
C720 C722 1.391 . S
C721 C720 1.386 . S
C721 C725 1.393 . S
C722 H714 0.950 . S
C722 C720 1.391 . S
C722 C723 1.400 . S
C723 C722 1.400 . S
C723 C724 1.398 . S
C723 C729 1.491 . S
C724 H715 0.950 . S
C724 C723 1.398 . S
C724 C725 1.391 . S
C725 H713 0.950 . S
C725 C721 1.393 . S
C725 C724 1.391 . S
C726 H716 0.950 . S
C726 C727 1.386 . S
C726 C728 1.391 . S
C727 C726 1.386 . S
C727 C731 1.393 . S
C728 H717 0.950 . S
C728 C726 1.391 . S
C728 C729 1.400 . S
C729 C723 1.491 . S
C729 C728 1.400 . S
C729 C730 1.398 . S
C730 H718 0.950 . S
C730 C729 1.398 . S
C730 C731 1.391 . S
C731 H719 0.950 . S
C731 C727 1.393 . S
C731 C730 1.391 . S
H732 C740 0.950 . S
H733 C745 0.950 . S
H734 C742 0.950 . S
H735 C744 0.950 . S
H736 C746 0.950 . S
H737 C748 0.950 . S
H738 C750 0.950 . S
H739 C751 0.950 . S
C740 H732 0.950 . S
C740 C741 1.386 . S
C740 C742 1.391 . S
C741 C740 1.386 . S
C741 C745 1.393 . S
C742 H734 0.950 . S
C742 C740 1.391 . S
C742 C743 1.400 . S
C743 C742 1.400 . S
C743 C744 1.398 . S
C743 C749 1.491 . S
C744 H735 0.950 . S
C744 C743 1.398 . S
C744 C745 1.391 . S
C745 H733 0.950 . S
C745 C741 1.393 . S
C745 C744 1.391 . S
C746 H736 0.950 . S
C746 C747 1.386 . S
C746 C748 1.391 . S
C747 C746 1.386 . S
C747 C751 1.393 . S
C748 H737 0.950 . S
C748 C746 1.391 . S
C748 C749 1.400 . S
C749 C743 1.491 . S
C749 C748 1.400 . S
C749 C750 1.398 . S
C750 H738 0.950 . S
C750 C749 1.398 . S
C750 C751 1.391 . S
C751 H739 0.950 . S
C751 C747 1.393 . S
C751 C750 1.391 . S
H752 C760 0.950 . S
H753 C765 0.950 . S
H754 C762 0.950 . S
H755 C764 0.950 . S
H756 C766 0.950 . S
H757 C768 0.950 . S
H758 C770 0.950 . S
H759 C771 0.950 . S
C760 H752 0.950 . S
C760 C761 1.386 . S
C760 C762 1.391 . S
C761 C760 1.386 . S
C761 C765 1.393 . S
C762 H754 0.950 . S
C762 C760 1.391 . S
C762 C763 1.400 . S
C763 C762 1.400 . S
C763 C764 1.398 . S
C763 C769 1.491 . S
C764 H755 0.950 . S
C764 C763 1.398 . S
C764 C765 1.391 . S
C765 H753 0.950 . S
C765 C761 1.393 . S
C765 C764 1.391 . S
C766 H756 0.950 . S
C766 C767 1.386 . S
C766 C768 1.391 . S
C767 C766 1.386 . S
C767 C771 1.393 . S
C768 H757 0.950 . S
C768 C766 1.391 . S
C768 C769 1.400 . S
C769 C763 1.491 . S
C769 C768 1.400 . S
C769 C770 1.398 . S
C770 H758 0.950 . S
C770 C769 1.398 . S
C770 C771 1.391 . S
C771 H759 0.950 . S
C771 C767 1.393 . S
C771 C770 1.391 . S
H772 C780 0.950 . S
H773 C785 0.950 . S
H774 C782 0.950 . S
H775 C784 0.950 . S
H776 C786 0.950 . S
H777 C788 0.950 . S
H778 C790 0.950 . S
H779 C791 0.950 . S
C780 H772 0.950 . S
C780 C781 1.386 . S
C780 C782 1.391 . S
C781 C780 1.386 . S
C781 C785 1.393 . S
C782 H774 0.950 . S
C782 C780 1.391 . S
C782 C783 1.400 . S
C783 C782 1.400 . S
C783 C784 1.398 . S
C783 C789 1.491 . S
C784 H775 0.950 . S
C784 C783 1.398 . S
C784 C785 1.391 . S
C785 H773 0.950 . S
C785 C781 1.393 . S
C785 C784 1.391 . S
C786 H776 0.950 . S
C786 C787 1.386 . S
C786 C788 1.391 . S
C787 C786 1.386 . S
C787 C791 1.393 . S
C788 H777 0.950 . S
C788 C786 1.391 . S
C788 C789 1.400 . S
C789 C783 1.491 . S
C789 C788 1.400 . S
C789 C790 1.398 . S
C790 H778 0.950 . S
C790 C789 1.398 . S
C790 C791 1.391 . S
C791 H779 0.950 . S
C791 C787 1.393 . S
C791 C790 1.391 . S
H792 C800 0.950 . S
H793 C805 0.950 . S
H794 C802 0.950 . S
H795 C804 0.950 . S
H796 C806 0.950 . S
H797 C808 0.950 . S
H798 C810 0.950 . S
H799 C811 0.950 . S
C800 H792 0.950 . S
C800 C801 1.386 . S
C800 C802 1.391 . S
C801 C800 1.386 . S
C801 C805 1.393 . S
C802 H794 0.950 . S
C802 C800 1.391 . S
C802 C803 1.400 . S
C803 C802 1.400 . S
C803 C804 1.398 . S
C803 C809 1.491 . S
C804 H795 0.950 . S
C804 C803 1.398 . S
C804 C805 1.391 . S
C805 H793 0.950 . S
C805 C801 1.393 . S
C805 C804 1.391 . S
C806 H796 0.950 . S
C806 C807 1.386 . S
C806 C808 1.391 . S
C807 C806 1.386 . S
C807 C811 1.393 . S
C808 H797 0.950 . S
C808 C806 1.391 . S
C808 C809 1.400 . S
C809 C803 1.491 . S
C809 C808 1.400 . S
C809 C810 1.398 . S
C810 H798 0.950 . S
C810 C809 1.398 . S
C810 C811 1.391 . S
C811 H799 0.950 . S
C811 C807 1.393 . S
C811 C810 1.391 . S
H812 C820 0.950 . S
H813 C825 0.950 . S
H814 C822 0.950 . S
H815 C824 0.950 . S
H816 C826 0.950 . S
H817 C828 0.950 . S
H818 C830 0.950 . S
H819 C831 0.950 . S
C820 H812 0.950 . S
C820 C821 1.386 . S
C820 C822 1.391 . S
C821 C820 1.386 . S
C821 C825 1.393 . S
C822 H814 0.950 . S
C822 C820 1.391 . S
C822 C823 1.400 . S
C823 C822 1.400 . S
C823 C824 1.398 . S
C823 C829 1.491 . S
C824 H815 0.950 . S
C824 C823 1.398 . S
C824 C825 1.391 . S
C825 H813 0.950 . S
C825 C821 1.393 . S
C825 C824 1.391 . S
C826 H816 0.950 . S
C826 C827 1.386 . S
C826 C828 1.391 . S
C827 C826 1.386 . S
C827 C831 1.393 . S
C828 H817 0.950 . S
C828 C826 1.391 . S
C828 C829 1.400 . S
C829 C823 1.491 . S
C829 C828 1.400 . S
C829 C830 1.398 . S
C830 H818 0.950 . S
C830 C829 1.398 . S
C830 C831 1.391 . S
C831 H819 0.950 . S
C831 C827 1.393 . S
C831 C830 1.391 . S
H832 C840 0.950 . S
H833 C845 0.950 . S
H834 C842 0.950 . S
H835 C844 0.950 . S
H836 C846 0.950 . S
H837 C848 0.950 . S
H838 C850 0.950 . S
H839 C851 0.950 . S
C840 H832 0.950 . S
C840 C841 1.386 . S
C840 C842 1.391 . S
C841 C840 1.386 . S
C841 C845 1.393 . S
C842 H834 0.950 . S
C842 C840 1.391 . S
C842 C843 1.400 . S
C843 C842 1.400 . S
C843 C844 1.398 . S
C843 C849 1.491 . S
C844 H835 0.950 . S
C844 C843 1.398 . S
C844 C845 1.391 . S
C845 H833 0.950 . S
C845 C841 1.393 . S
C845 C844 1.391 . S
C846 H836 0.950 . S
C846 C847 1.386 . S
C846 C848 1.391 . S
C847 C846 1.386 . S
C847 C851 1.393 . S
C848 H837 0.950 . S
C848 C846 1.391 . S
C848 C849 1.400 . S
C849 C843 1.491 . S
C849 C848 1.400 . S
C849 C850 1.398 . S
C850 H838 0.950 . S
C850 C849 1.398 . S
C850 C851 1.391 . S
C851 H839 0.950 . S
C851 C847 1.393 . S
C851 C850 1.391 . S
H852 C860 0.950 . S
H853 C865 0.950 . S
H854 C862 0.950 . S
H855 C864 0.950 . S
H856 C866 0.950 . S
H857 C868 0.950 . S
H858 C870 0.950 . S
H859 C871 0.950 . S
C860 H852 0.950 . S
C860 C861 1.386 . S
C860 C862 1.391 . S
C861 C860 1.386 . S
C861 C865 1.393 . S
C862 H854 0.950 . S
C862 C860 1.391 . S
C862 C863 1.400 . S
C863 C862 1.400 . S
C863 C864 1.398 . S
C863 C869 1.491 . S
C864 H855 0.950 . S
C864 C863 1.398 . S
C864 C865 1.391 . S
C865 H853 0.950 . S
C865 C861 1.393 . S
C865 C864 1.391 . S
C866 H856 0.950 . S
C866 C867 1.386 . S
C866 C868 1.391 . S
C867 C866 1.386 . S
C867 C871 1.393 . S
C868 H857 0.950 . S
C868 C866 1.391 . S
C868 C869 1.400 . S
C869 C863 1.491 . S
C869 C868 1.400 . S
C869 C870 1.398 . S
C870 H858 0.950 . S
C870 C869 1.398 . S
C870 C871 1.391 . S
C871 H859 0.950 . S
C871 C867 1.393 . S
C871 C870 1.391 . S
H872 C880 0.950 . S
H873 C885 0.950 . S
H874 C882 0.950 . S
H875 C884 0.950 . S
H876 C886 0.950 . S
H877 C888 0.950 . S
H878 C890 0.950 . S
H879 C891 0.950 . S
C880 H872 0.950 . S
C880 C881 1.386 . S
C880 C882 1.391 . S
C881 C880 1.386 . S
C881 C885 1.393 . S
C882 H874 0.950 . S
C882 C880 1.391 . S
C882 C883 1.400 . S
C883 C882 1.400 . S
C883 C884 1.398 . S
C883 C889 1.491 . S
C884 H875 0.950 . S
C884 C883 1.398 . S
C884 C885 1.391 . S
C885 H873 0.950 . S
C885 C881 1.393 . S
C885 C884 1.391 . S
C886 H876 0.950 . S
C886 C887 1.386 . S
C886 C888 1.391 . S
C887 C886 1.386 . S
C887 C891 1.393 . S
C888 H877 0.950 . S
C888 C886 1.391 . S
C888 C889 1.400 . S
C889 C883 1.491 . S
C889 C888 1.400 . S
C889 C890 1.398 . S
C890 H878 0.950 . S
C890 C889 1.398 . S
C890 C891 1.391 . S
C891 H879 0.950 . S
C891 C887 1.393 . S
C891 C890 1.391 . S
H892 C900 0.950 . S
H893 C905 0.950 . S
H894 C902 0.950 . S
H895 C904 0.950 . S
H896 C906 0.950 . S
H897 C908 0.950 . S
H898 C910 0.950 . S
H899 C911 0.950 . S
C900 H892 0.950 . S
C900 C901 1.386 . S
C900 C902 1.391 . S
C901 C900 1.386 . S
C901 C905 1.393 . S
C902 H894 0.950 . S
C902 C900 1.391 . S
C902 C903 1.400 . S
C903 C902 1.400 . S
C903 C904 1.398 . S
C903 C909 1.491 . S
C904 H895 0.950 . S
C904 C903 1.398 . S
C904 C905 1.391 . S
C905 H893 0.950 . S
C905 C901 1.393 . S
C905 C904 1.391 . S
C906 H896 0.950 . S
C906 C907 1.386 . S
C906 C908 1.391 . S
C907 C906 1.386 . S
C907 C911 1.393 . S
C908 H897 0.950 . S
C908 C906 1.391 . S
C908 C909 1.400 . S
C909 C903 1.491 . S
C909 C908 1.400 . S
C909 C910 1.398 . S
C910 H898 0.950 . S
C910 C909 1.398 . S
C910 C911 1.391 . S
C911 H899 0.950 . S
C911 C907 1.393 . S
C911 C910 1.391 . S
C441 C3 1.322 . S
C447 C398 1.297 . S
C461 C218 1.448 . S
C467 C38 1.462 . S
C481 C74 1.292 . S
C487 C255 1.323 . S
C501 C290 1.305 . S
C507 C111 1.328 . S
C521 C326 1.446 . S
C527 C146 1.453 . S
C541 C363 1.322 . S
C547 C182 1.308 . S
C561 C112 1.230 . S
C567 C302 1.240 . S
C581 C158 1.376 . S
C587 C338 1.386 . S
C601 C194 1.257 . S
C607 C364 1.252 . S
C621 C410 1.258 . S
C627 C4 1.250 . S
C641 C50 1.380 . S
C647 C230 1.379 . S
C661 C86 1.252 . S
C667 C256 1.241 . S
C681 C291 1.610 . S
C687 C2 1.598 . S
C701 C327 1.587 . S
C707 C39 1.585 . S
C721 C75 1.610 . S
C727 C362 1.598 . S
C741 C110 1.587 . S
C747 C399 1.606 . S
C761 C147 1.586 . S
C767 C219 1.590 . S
C781 C254 1.599 . S
C787 C183 1.610 . S
C801 C14 1.441 . S
C807 C374 1.444 . S
C821 C400 1.536 . S
C827 C40 1.539 . S
C841 C76 1.536 . S
C847 C220 1.540 . S
C861 C122 1.466 . S
C867 C266 1.463 . S
C881 C148 1.541 . S
C887 C292 1.540 . S
C901 C184 1.538 . S
C907 C328 1.538 . S
