# Generated by pormake.
# Topology pcl, (4)-cn, num edge types: 1
# Building blocks:
#     Node 0, Type 0, BuildingBlock: AZAVOO_clean_sbu_0, # of connection points: 4
#     Node 1, Type 0, BuildingBlock: AZAVOO_clean_sbu_0, # of connection points: 4
#     Node 2, Type 0, BuildingBlock: AZAVOO_clean_sbu_0, # of connection points: 4
#     Node 3, Type 0, BuildingBlock: AZAVOO_clean_sbu_0, # of connection points: 4
#     Node 4, Type 0, BuildingBlock: AZAVOO_clean_sbu_0, # of connection points: 4
#     Node 5, Type 0, BuildingBlock: AZAVOO_clean_sbu_0, # of connection points: 4
#     Node 6, Type 0, BuildingBlock: AZAVOO_clean_sbu_0, # of connection points: 4
#     Node 7, Type 0, BuildingBlock: AZAVOO_clean_sbu_0, # of connection points: 4
#     Node 8, Type 0, BuildingBlock: AZAVOO_clean_sbu_0, # of connection points: 4
#     Node 9, Type 0, BuildingBlock: AZAVOO_clean_sbu_0, # of connection points: 4
#     Node 10, Type 0, BuildingBlock: AZAVOO_clean_sbu_0, # of connection points: 4
#     Node 11, Type 0, BuildingBlock: AZAVOO_clean_sbu_0, # of connection points: 4
#     Node 12, Type 0, BuildingBlock: AZAVOO_clean_sbu_0, # of connection points: 4
#     Node 13, Type 0, BuildingBlock: AZAVOO_clean_sbu_0, # of connection points: 4
#     Node 14, Type 0, BuildingBlock: AZAVOO_clean_sbu_0, # of connection points: 4
#     Node 15, Type 0, BuildingBlock: AZAVOO_clean_sbu_0, # of connection points: 4
#     Edge 16, Type (0, 0), BuildingBlock: AJUNOK_clean_linker_0, # of connection points: 2
#     Edge 17, Type (0, 0), BuildingBlock: AJUNOK_clean_linker_0, # of connection points: 2
#     Edge 18, Type (0, 0), BuildingBlock: AJUNOK_clean_linker_0, # of connection points: 2
#     Edge 19, Type (0, 0), BuildingBlock: AJUNOK_clean_linker_0, # of connection points: 2
#     Edge 20, Type (0, 0), BuildingBlock: AJUNOK_clean_linker_0, # of connection points: 2
#     Edge 21, Type (0, 0), BuildingBlock: AJUNOK_clean_linker_0, # of connection points: 2
#     Edge 22, Type (0, 0), BuildingBlock: AJUNOK_clean_linker_0, # of connection points: 2
#     Edge 23, Type (0, 0), BuildingBlock: AJUNOK_clean_linker_0, # of connection points: 2
#     Edge 24, Type (0, 0), BuildingBlock: AJUNOK_clean_linker_0, # of connection points: 2
#     Edge 25, Type (0, 0), BuildingBlock: AJUNOK_clean_linker_0, # of connection points: 2
#     Edge 26, Type (0, 0), BuildingBlock: AJUNOK_clean_linker_0, # of connection points: 2
#     Edge 27, Type (0, 0), BuildingBlock: AJUNOK_clean_linker_0, # of connection points: 2
#     Edge 28, Type (0, 0), BuildingBlock: AJUNOK_clean_linker_0, # of connection points: 2
#     Edge 29, Type (0, 0), BuildingBlock: AJUNOK_clean_linker_0, # of connection points: 2
#     Edge 30, Type (0, 0), BuildingBlock: AJUNOK_clean_linker_0, # of connection points: 2
#     Edge 31, Type (0, 0), BuildingBlock: AJUNOK_clean_linker_0, # of connection points: 2
#     Edge 32, Type (0, 0), BuildingBlock: AJUNOK_clean_linker_0, # of connection points: 2
#     Edge 33, Type (0, 0), BuildingBlock: AJUNOK_clean_linker_0, # of connection points: 2
#     Edge 34, Type (0, 0), BuildingBlock: AJUNOK_clean_linker_0, # of connection points: 2
#     Edge 35, Type (0, 0), BuildingBlock: AJUNOK_clean_linker_0, # of connection points: 2
#     Edge 36, Type (0, 0), BuildingBlock: AJUNOK_clean_linker_0, # of connection points: 2
#     Edge 37, Type (0, 0), BuildingBlock: AJUNOK_clean_linker_0, # of connection points: 2
#     Edge 38, Type (0, 0), BuildingBlock: AJUNOK_clean_linker_0, # of connection points: 2
#     Edge 39, Type (0, 0), BuildingBlock: AJUNOK_clean_linker_0, # of connection points: 2
#     Edge 40, Type (0, 0), BuildingBlock: AJUNOK_clean_linker_0, # of connection points: 2
#     Edge 41, Type (0, 0), BuildingBlock: AJUNOK_clean_linker_0, # of connection points: 2
#     Edge 42, Type (0, 0), BuildingBlock: AJUNOK_clean_linker_0, # of connection points: 2
#     Edge 43, Type (0, 0), BuildingBlock: AJUNOK_clean_linker_0, # of connection points: 2
#     Edge 44, Type (0, 0), BuildingBlock: AJUNOK_clean_linker_0, # of connection points: 2
#     Edge 45, Type (0, 0), BuildingBlock: AJUNOK_clean_linker_0, # of connection points: 2
#     Edge 46, Type (0, 0), BuildingBlock: AJUNOK_clean_linker_0, # of connection points: 2
#     Edge 47, Type (0, 0), BuildingBlock: AJUNOK_clean_linker_0, # of connection points: 2
# Relax obj value: 0.075
# Max RMSD: 0.074
# Mean RMSD: 0.073
data_MOF--net-pcl--node1-AZAVOO_clean_sbu_0--edge1-AJUNOK_clean_linker_0
_symmetry_space_group_name_H-M    P1
_symmetry_Int_Tables_number       1
_symmetry_cell_setting            triclinic
loop_
_symmetry_equiv_pos_as_xyz
'x, y, z'
_cell_length_a     28.526289
_cell_length_b     38.618718
_cell_length_c     34.127672
_cell_angle_alpha  90.03964
_cell_angle_beta   89.927457
_cell_angle_gamma 90.214416
loop_
_atom_site_label
_atom_site_type_symbol
_atom_site_fract_x
_atom_site_fract_y
_atom_site_fract_z
_atom_type_partial_charge
Mg0 Mg 0.1514 0.34454 0.06218 0.0
O1 O 0.0708 0.34144 0.06661 0.0
O2 O 0.0431 0.34834 0.00588 0.0
Mg3 Mg 0.10383 0.35241 0.96281 0.0
C4 C 0.03665 0.34422 0.04259 0.0
C5 C 0.1927 0.35001 0.14073 0.0
O6 O 0.21708 0.36922 0.11624 0.0
O7 O 0.15513 0.28863 0.03956 0.0
O8 O 0.12696 0.2976 0.97924 0.0
O9 O 0.14717 0.40179 0.0659 0.0
O10 O 0.14715 0.37279 0.0101 0.0
C11 C 0.14372 0.2776 0.00551 0.0
C12 C 0.14383 0.40191 0.02815 0.0
O13 O 0.16001 0.33116 0.12681 0.0
Mg14 Mg 0.83644 0.62887 0.56942 0.0
O15 O 0.9171 0.63099 0.57205 0.0
O16 O 0.94367 0.6195 0.51185 0.0
Mg17 Mg 0.88198 0.61232 0.47049 0.0
C18 C 0.95082 0.62621 0.54795 0.0
C19 C 0.80563 0.62763 0.65228 0.0
O20 O 0.78535 0.60152 0.63433 0.0
O21 O 0.83366 0.6827 0.54124 0.0
O22 O 0.85904 0.66797 0.48162 0.0
O23 O 0.83877 0.57194 0.5787 0.0
O24 O 0.83916 0.59623 0.52037 0.0
C25 C 0.84347 0.69047 0.50574 0.0
C26 C 0.84105 0.5685 0.54113 0.0
O27 O 0.83051 0.64861 0.63232 0.0
Mg28 Mg 0.17379 0.59127 0.91982 0.0
O29 O 0.09612 0.60717 0.92064 0.0
O30 O 0.07142 0.60201 0.98268 0.0
Mg31 Mg 0.13234 0.58472 0.02134 0.0
C32 C 0.06387 0.60888 0.94665 0.0
C33 C 0.20198 0.58559 0.83559 0.0
O34 O 0.21416 0.55656 0.85272 0.0
O35 O 0.19549 0.64358 0.9466 0.0
O36 O 0.17294 0.63456 0.00865 0.0
O37 O 0.15313 0.53608 0.91118 0.0
O38 O 0.16251 0.55995 0.96936 0.0
C39 C 0.19253 0.6531 0.98237 0.0
C40 C 0.15083 0.53328 0.94883 0.0
O41 O 0.18392 0.60945 0.85645 0.0
Mg42 Mg 0.82957 0.3779 0.42874 0.0
O43 O 0.90968 0.37417 0.42283 0.0
O44 O 0.94076 0.38111 0.48241 0.0
Mg45 Mg 0.88154 0.38625 0.52662 0.0
C46 C 0.94506 0.37658 0.44558 0.0
C47 C 0.79268 0.3837 0.34759 0.0
O48 O 0.77066 0.40682 0.36897 0.0
O49 O 0.82578 0.32249 0.45195 0.0
O50 O 0.85599 0.33162 0.51159 0.0
O51 O 0.83353 0.43512 0.42483 0.0
O52 O 0.8358 0.40631 0.48057 0.0
C53 C 0.83777 0.31164 0.48587 0.0
C54 C 0.83744 0.43552 0.46256 0.0
O55 O 0.82077 0.36312 0.36464 0.0
Mg56 Mg 0.76133 0.62862 0.8936 0.0
O57 O 0.84064 0.62923 0.90541 0.0
O58 O 0.87255 0.67487 0.87535 0.0
Mg59 Mg 0.81337 0.70477 0.84636 0.0
C60 C 0.87623 0.6477 0.89631 0.0
C61 C 0.77029 0.55754 0.93702 0.0
O62 O 0.79506 0.55107 0.90541 0.0
O63 O 0.7495 0.6716 0.93774 0.0
O64 O 0.78127 0.71706 0.90676 0.0
O65 O 0.77283 0.59963 0.83843 0.0
O66 O 0.77135 0.65669 0.84142 0.0
C67 C 0.76022 0.70363 0.93616 0.0
C68 C 0.77729 0.62913 0.82073 0.0
O69 O 0.75201 0.58734 0.94097 0.0
Mg70 Mg 0.24482 0.37829 0.37926 0.0
O71 O 0.16618 0.37359 0.39173 0.0
O72 O 0.13887 0.32403 0.3667 0.0
Mg73 Mg 0.20102 0.29576 0.33936 0.0
C74 C 0.13264 0.35244 0.38508 0.0
C75 C 0.28527 0.4419 0.42756 0.0
O76 O 0.3241 0.43262 0.40974 0.0
O77 O 0.26089 0.33914 0.42786 0.0
O78 O 0.23377 0.29035 0.40038 0.0
O79 O 0.23038 0.40223 0.32098 0.0
O80 O 0.23655 0.34581 0.33027 0.0
C81 C 0.25304 0.30657 0.42875 0.0
C82 C 0.22758 0.37113 0.30698 0.0
O83 O 0.24815 0.4243 0.42179 0.0
Mg84 Mg 0.74409 0.38541 0.10717 0.0
O85 O 0.81889 0.36792 0.09537 0.0
O86 O 0.83415 0.31967 0.12899 0.0
Mg87 Mg 0.76759 0.30669 0.16429 0.0
C88 C 0.84648 0.34348 0.1051 0.0
C89 C 0.74209 0.45487 0.06052 0.0
O90 O 0.72884 0.46568 0.09532 0.0
O91 O 0.71652 0.34192 0.06777 0.0
O92 O 0.72681 0.29653 0.10768 0.0
O93 O 0.76747 0.41634 0.1592 0.0
O94 O 0.74673 0.36125 0.16198 0.0
C95 C 0.71173 0.30984 0.07587 0.0
C96 C 0.76311 0.38819 0.17942 0.0
O97 O 0.74978 0.42277 0.05553 0.0
Mg98 Mg 0.25502 0.61369 0.59658 0.0
O99 O 0.17576 0.62066 0.58993 0.0
O100 O 0.15072 0.661 0.63174 0.0
Mg101 Mg 0.21491 0.68129 0.66457 0.0
C102 C 0.1429 0.63876 0.60484 0.0
C103 C 0.28948 0.55856 0.53652 0.0
O104 O 0.32603 0.5609 0.55977 0.0
O105 O 0.26766 0.66369 0.56124 0.0
O106 O 0.24494 0.70169 0.6067 0.0
O107 O 0.2432 0.576 0.64509 0.0
O108 O 0.25107 0.63205 0.65474 0.0
C109 C 0.26173 0.69488 0.57282 0.0
C110 C 0.24237 0.6019 0.66911 0.0
O111 O 0.25504 0.57877 0.54222 0.0
Mg112 Mg 0.66683 0.8845 0.07085 0.0
O113 O 0.5881 0.871 0.07406 0.0
O114 O 0.56053 0.87231 0.01282 0.0
Mg115 Mg 0.62079 0.88286 0.97084 0.0
C116 C 0.55435 0.86861 0.04959 0.0
C117 C 0.69489 0.89703 0.15372 0.0
O118 O 0.70761 0.92462 0.13387 0.0
O119 O 0.685 0.83019 0.05018 0.0
O120 O 0.6567 0.83216 0.989 0.0
O121 O 0.64943 0.9401 0.07295 0.0
O122 O 0.65749 0.91083 0.01782 0.0
C123 C 0.67751 0.81633 0.01681 0.0
C124 C 0.64797 0.93962 0.03511 0.0
O125 O 0.67659 0.87168 0.13537 0.0
Mg126 Mg 0.33538 0.12305 0.5614 0.0
O127 O 0.41464 0.13457 0.56662 0.0
O128 O 0.44367 0.13429 0.50577 0.0
Mg129 Mg 0.38436 0.12647 0.46221 0.0
C130 C 0.44911 0.13689 0.54274 0.0
C131 C 0.30197 0.10685 0.64172 0.0
O132 O 0.28722 0.08216 0.61827 0.0
O133 O 0.32056 0.17885 0.54286 0.0
O134 O 0.35097 0.1777 0.48232 0.0
O135 O 0.35063 0.06704 0.56134 0.0
O136 O 0.34524 0.09777 0.50717 0.0
C137 C 0.3302 0.19351 0.51026 0.0
C138 C 0.35329 0.06835 0.5236 0.0
O139 O 0.32358 0.13266 0.62696 0.0
Mg140 Mg 0.64588 0.13225 0.92882 0.0
O141 O 0.56547 0.13336 0.92375 0.0
O142 O 0.53711 0.1222 0.98355 0.0
Mg143 Mg 0.59739 0.11641 0.02651 0.0
C144 C 0.53111 0.12831 0.94717 0.0
C145 C 0.68848 0.13416 0.85128 0.0
O146 O 0.71332 0.11403 0.87426 0.0
O147 O 0.64718 0.18631 0.9562 0.0
O148 O 0.6203 0.17248 0.01564 0.0
O149 O 0.64483 0.07557 0.91904 0.0
O150 O 0.64134 0.09968 0.97754 0.0
C151 C 0.63644 0.19467 0.9913 0.0
C152 C 0.6404 0.072 0.95649 0.0
O153 O 0.65478 0.15104 0.86637 0.0
Mg154 Mg 0.33629 0.87466 0.42028 0.0
O155 O 0.41572 0.86441 0.41728 0.0
O156 O 0.44407 0.87442 0.47725 0.0
Mg157 Mg 0.38492 0.89044 0.51824 0.0
C158 C 0.44989 0.86584 0.44145 0.0
C159 C 0.29898 0.87435 0.33951 0.0
O160 O 0.28097 0.9008 0.35841 0.0
O161 O 0.32347 0.82234 0.45156 0.0
O162 O 0.34938 0.83791 0.51081 0.0
O163 O 0.34854 0.93109 0.40792 0.0
O164 O 0.34628 0.90903 0.46724 0.0
C165 C 0.32992 0.81599 0.48796 0.0
C166 C 0.35231 0.93571 0.44525 0.0
O167 O 0.32471 0.85333 0.35844 0.0
Mg168 Mg 0.23776 0.08918 0.87979 0.0
O169 O 0.31322 0.10532 0.89244 0.0
O170 O 0.3301 0.15479 0.86162 0.0
Mg171 Mg 0.26335 0.17132 0.82972 0.0
C172 C 0.34173 0.12968 0.88382 0.0
C173 C 0.23797 0.01631 0.92063 0.0
O174 O 0.22889 0.00697 0.88441 0.0
O175 O 0.21213 0.12993 0.92329 0.0
O176 O 0.22639 0.17834 0.88905 0.0
O177 O 0.26097 0.06214 0.82549 0.0
O178 O 0.24008 0.11697 0.82672 0.0
C179 C 0.21089 0.16276 0.91944 0.0
C180 C 0.25663 0.09126 0.80711 0.0
O181 O 0.24289 0.04838 0.92828 0.0
Mg182 Mg 0.74929 0.88532 0.39329 0.0
O183 O 0.67192 0.87137 0.40137 0.0
O184 O 0.65434 0.82631 0.36299 0.0
Mg185 Mg 0.72151 0.81082 0.33066 0.0
C186 C 0.64256 0.84935 0.38792 0.0
C187 C 0.75398 0.95298 0.44022 0.0
O188 O 0.76538 0.9628 0.40462 0.0
O189 O 0.77058 0.83939 0.43105 0.0
O190 O 0.75777 0.79635 0.38833 0.0
O191 O 0.73082 0.91929 0.34308 0.0
O192 O 0.74797 0.86402 0.33663 0.0
C193 C 0.77242 0.80753 0.42138 0.0
C194 C 0.73434 0.89243 0.32065 0.0
O195 O 0.74565 0.92108 0.44636 0.0
Mg196 Mg 0.25089 0.85004 0.09936 0.0
O197 O 0.33073 0.85117 0.09234 0.0
O198 O 0.36283 0.81122 0.13103 0.0
Mg199 Mg 0.30261 0.78304 0.16177 0.0
C200 C 0.36656 0.83558 0.10595 0.0
C201 C 0.2607 0.91596 0.04727 0.0
O202 O 0.28216 0.926 0.0794 0.0
O203 O 0.24698 0.8015 0.06137 0.0
O204 O 0.27737 0.76222 0.10198 0.0
O205 O 0.25583 0.8862 0.14978 0.0
O206 O 0.25847 0.8295 0.15619 0.0
C207 C 0.25921 0.77048 0.06905 0.0
C208 C 0.26153 0.85962 0.1723 0.0
O209 O 0.24384 0.88543 0.04581 0.0
Mg210 Mg 0.74514 0.12406 0.61259 0.0
O211 O 0.66815 0.1341 0.59825 0.0
O212 O 0.64478 0.18279 0.6278 0.0
Mg213 Mg 0.70845 0.20454 0.66072 0.0
C214 C 0.63672 0.15653 0.60604 0.0
C215 C 0.74256 0.05165 0.56936 0.0
O216 O 0.73487 0.04023 0.60505 0.0
O217 O 0.76694 0.16587 0.56956 0.0
O218 O 0.7467 0.21384 0.60229 0.0
O219 O 0.72533 0.09533 0.66677 0.0
O220 O 0.73728 0.15191 0.66461 0.0
C221 C 0.76468 0.19867 0.57264 0.0
C222 C 0.72474 0.12505 0.68433 0.0
O223 O 0.74831 0.08392 0.56392 0.0
C224 C 0.97725 0.32733 0.09352 0.0
C225 C 0.98786 0.3437 0.05772 0.0
C226 C 0.9313 0.32678 0.10832 0.0
C227 C 0.89441 0.3431 0.08824 0.0
H228 H 0.00457 0.31466 0.11015 0.0
H229 H 0.92486 0.31399 0.13607 0.0
S230 S 0.90359 0.3897 0.99335 0.0
N231 N 0.95745 0.37662 0.00255 0.0
N232 N 0.87153 0.37577 0.03043 0.0
C233 C 0.90456 0.35954 0.05241 0.0
C234 C 0.95112 0.35977 0.03714 0.0
C235 C 0.0102 0.64573 0.59741 0.0
C236 C -0.0001 0.62834 0.56222 0.0
C237 C 0.05639 0.64882 0.61097 0.0
C238 C 0.09422 0.63432 0.59013 0.0
H239 H 0.98245 0.65755 0.61444 0.0
H240 H 0.06237 0.66274 0.63808 0.0
S241 S 0.0859 0.58477 0.49698 0.0
N242 N 0.03132 0.59544 0.50729 0.0
N243 N 0.11792 0.60115 0.53274 0.0
C244 C 0.08432 0.61631 0.55517 0.0
C245 C 0.0373 0.61339 0.54123 0.0
C246 C 0.96372 0.65008 0.89062 0.0
C247 C 0.92353 0.63722 0.90989 0.0
C248 C 0.0089 0.64058 0.90248 0.0
C249 C 0.01577 0.61836 0.93453 0.0
H250 H 0.96035 0.6674 0.86584 0.0
H251 H 0.03868 0.65109 0.88668 0.0
S252 S 0.92255 0.57693 0.99463 0.0
N253 N 0.89379 0.60049 0.96233 0.0
N254 N 0.97868 0.58306 0.98492 0.0
C255 C 0.976 0.60529 0.95413 0.0
C256 C 0.92994 0.61456 0.94171 0.0
C257 C 0.04554 0.34489 0.3824 0.0
C258 C 0.08502 0.36068 0.39969 0.0
C259 C 0.00022 0.35106 0.39661 0.0
C260 C 0.99273 0.37275 0.42911 0.0
H261 H 0.04963 0.32749 0.35773 0.0
H262 H 0.971 0.33793 0.38273 0.0
S263 S 0.08375 0.42177 0.4838 0.0
N264 N 0.11325 0.40023 0.4501 0.0
N265 N 0.02816 0.41136 0.47709 0.0
C266 C 0.03171 0.38925 0.44622 0.0
C267 C 0.0778 0.38338 0.43141 0.0
C268 C 0.45415 0.83469 0.1123 0.0
C269 C 0.41398 0.84549 0.0917 0.0
C270 C 0.49938 0.84281 0.09894 0.0
C271 C 0.50628 0.86157 0.06411 0.0
H272 H 0.45075 0.8198 0.13904 0.0
H273 H 0.52916 0.83369 0.11563 0.0
S274 S 0.41312 0.89734 0.0 0.0
N275 N 0.38437 0.87713 0.03524 0.0
N276 N 0.46921 0.89204 0.01005 0.0
C277 C 0.46651 0.87296 0.04346 0.0
C278 C 0.42046 0.86506 0.05728 0.0
C279 C 0.54951 0.16287 0.61005 0.0
C280 C 0.58936 0.15184 0.58922 0.0
C281 C 0.50423 0.15771 0.59502 0.0
C282 C 0.49722 0.142 0.55825 0.0
H283 H 0.55327 0.17505 0.63848 0.0
H284 H 0.47455 0.16639 0.61221 0.0
S285 S 0.59041 0.10939 0.49167 0.0
N286 N 0.61908 0.12494 0.52982 0.0
N287 N 0.53436 0.11567 0.50127 0.0
C288 C 0.53696 0.13127 0.53693 0.0
C289 C 0.58291 0.13605 0.55251 0.0
C290 C 0.47191 0.14723 0.89751 0.0
C291 C 0.48267 0.12842 0.93159 0.0
C292 C 0.42621 0.14773 0.88242 0.0
C293 C 0.3897 0.12892 0.90045 0.0
H294 H 0.49888 0.16202 0.88257 0.0
H295 H 0.41961 0.16269 0.85618 0.0
S296 S 0.39979 0.07472 0.98991 0.0
N297 N 0.45315 0.09008 0.98266 0.0
N298 N 0.36757 0.0908 0.95423 0.0
C299 C 0.40012 0.10975 0.93438 0.0
C300 C 0.44647 0.10957 0.94998 0.0
C301 C 0.53653 0.87165 0.44993 0.0
C302 C 0.49845 0.85944 0.42752 0.0
C303 C 0.58278 0.86787 0.43702 0.0
C304 C 0.59316 0.85132 0.40136 0.0
H305 H 0.53069 0.88498 0.47743 0.0
H306 H 0.61065 0.87816 0.45522 0.0
S307 S 0.50654 0.81351 0.33215 0.0
N308 N 0.47438 0.8293 0.36818 0.0
N309 N 0.56152 0.8219 0.34403 0.0
C310 C 0.55559 0.83825 0.37896 0.0
C311 C 0.50826 0.84243 0.39196 0.0
C312 C 0.23412 0.37815 0.1968 0.0
C313 C 0.20096 0.35363 0.18353 0.0
C314 C 0.24159 0.38397 0.23679 0.0
C315 C 0.2168 0.36517 0.26522 0.0
H316 H 0.25442 0.39336 0.17618 0.0
H317 H 0.2676 0.40298 0.24551 0.0
S318 S 0.12415 0.29957 0.24678 0.0
N319 N 0.14174 0.31132 0.2026 0.0
N320 N 0.1561 0.32236 0.27786 0.0
C321 C 0.18333 0.34077 0.2527 0.0
C322 C 0.17533 0.33498 0.21184 0.0
C323 C 0.8011 0.59895 0.71706 0.0
C324 C 0.80232 0.62981 0.69531 0.0
C325 C 0.79461 0.5993 0.75764 0.0
C326 C 0.78821 0.63053 0.77818 0.0
H327 H 0.80492 0.57415 0.70253 0.0
H328 H 0.7936 0.57468 0.77281 0.0
S329 S 0.78783 0.71862 0.73418 0.0
N330 N 0.79745 0.69247 0.69674 0.0
N331 N 0.78316 0.6934 0.77306 0.0
C332 C 0.78982 0.66175 0.75668 0.0
C333 C 0.79746 0.66133 0.71525 0.0
C334 C 0.21808 0.62248 0.77655 0.0
C335 C 0.2095 0.58969 0.79287 0.0
C336 C 0.22854 0.62621 0.73654 0.0
C337 C 0.2299 0.59737 0.71115 0.0
H338 H 0.21807 0.64532 0.795 0.0
H339 H 0.2363 0.65191 0.72572 0.0
S340 S 0.20656 0.50599 0.73925 0.0
N341 N 0.20104 0.52796 0.78048 0.0
N342 N 0.21976 0.53495 0.70543 0.0
C343 C 0.22011 0.56452 0.72708 0.0
C344 C 0.2101 0.5607 0.76785 0.0
C345 C 0.75399 0.41216 0.24632 0.0
C346 C 0.77414 0.38738 0.22154 0.0
C347 C 0.75994 0.41039 0.28696 0.0
C348 C 0.78684 0.38399 0.30439 0.0
H349 H 0.73236 0.43256 0.23428 0.0
H350 H 0.74314 0.42998 0.30477 0.0
S351 S 0.85103 0.31486 0.2513 0.0
N352 N 0.82471 0.33717 0.21648 0.0
N353 N 0.83615 0.33363 0.29298 0.0
C354 C 0.80839 0.35959 0.27964 0.0
C355 C 0.80195 0.36132 0.23817 0.0
C356 C 0.72127 0.86357 0.25564 0.0
C357 C 0.7219 0.89399 0.27849 0.0
C358 C 0.71105 0.86451 0.21549 0.0
C359 C 0.70217 0.89602 0.1965 0.0
H360 H 0.72933 0.83876 0.26852 0.0
H361 H 0.71152 0.84052 0.19901 0.0
S362 S 0.69796 0.98301 0.24269 0.0
N363 N 0.71109 0.95652 0.27894 0.0
N364 N 0.69295 0.9583 0.20344 0.0
C365 C 0.70216 0.9266 0.2189 0.0
C366 C 0.71179 0.9256 0.25987 0.0
C367 C 0.2709 0.12795 0.74725 0.0
C368 C 0.27131 0.09515 0.76548 0.0
C369 C 0.28276 0.13198 0.70754 0.0
C370 C 0.29434 0.10323 0.68437 0.0
H371 H 0.2606 0.15075 0.76342 0.0
H372 H 0.28115 0.15755 0.69459 0.0
S373 S 0.30309 0.01201 0.71766 0.0
N374 N 0.28673 0.03361 0.75708 0.0
N375 N 0.30776 0.04115 0.68251 0.0
C376 C 0.29575 0.07043 0.70221 0.0
C377 C 0.28452 0.06639 0.7427 0.0
C378 C 0.72755 0.10826 0.79297 0.0
C379 C 0.69684 0.13333 0.80844 0.0
C380 C 0.73516 0.1053 0.75265 0.0
C381 C 0.71304 0.12764 0.72622 0.0
H382 H 0.74574 0.09041 0.81207 0.0
H383 H 0.75936 0.08581 0.74213 0.0
S384 S 0.62739 0.1963 0.75071 0.0
N385 N 0.64265 0.18005 0.79358 0.0
N386 N 0.65742 0.17444 0.71758 0.0
C387 C 0.68193 0.15259 0.74092 0.0
C388 C 0.67369 0.15543 0.7821 0.0
C389 C 0.28256 0.83479 0.23821 0.0
C390 C 0.27258 0.86384 0.21465 0.0
C391 C 0.29208 0.83827 0.27844 0.0
C392 C 0.29104 0.87085 0.29677 0.0
H393 H 0.28269 0.80906 0.22572 0.0
H394 H 0.29924 0.81521 0.29543 0.0
S395 S 0.26857 0.95531 0.24837 0.0
N396 N 0.26385 0.92652 0.21286 0.0
N397 N 0.28093 0.93291 0.28815 0.0
C398 C 0.28157 0.90012 0.27356 0.0
C399 C 0.27252 0.89667 0.23263 0.0
C400 C 0.14452 0.19835 0.94176 0.0
C401 C 0.18868 0.1842 0.94964 0.0
C402 C 0.12784 0.2266 0.96323 0.0
C403 C 0.155 0.24188 0.99309 0.0
H404 H 0.12424 0.18913 0.917 0.0
H405 H 0.09495 0.23817 0.95442 0.0
S406 S 0.27093 0.2114 0.02767 0.0
N407 N 0.25742 0.18486 0.99136 0.0
N408 N 0.22624 0.23825 0.03201 0.0
C409 C 0.19745 0.22591 0.00351 0.0
C410 C 0.21441 0.19704 0.98151 0.0
C411 C 0.8486 0.73343 0.45179 0.0
C412 C 0.83194 0.72505 0.48953 0.0
C413 C 0.83049 0.76133 0.43092 0.0
C414 C 0.79581 0.78255 0.44716 0.0
H415 H 0.87413 0.71719 0.43718 0.0
H416 H 0.84256 0.7656 0.40117 0.0
S417 S 0.74482 0.77551 0.54665 0.0
N418 N 0.78175 0.74273 0.54377 0.0
N419 N 0.74868 0.79614 0.50434 0.0
C420 C 0.78157 0.77664 0.48595 0.0
C421 C 0.79954 0.74768 0.50726 0.0
C422 C 0.2109 0.74569 0.01415 0.0
C423 C 0.24863 0.74242 0.0406 0.0
C424 C 0.1948 0.71712 0.99233 0.0
C425 C 0.21637 0.68468 0.99593 0.0
H426 H 0.19179 0.76979 0.01215 0.0
H427 H 0.16361 0.71989 0.97451 0.0
S428 S 0.32038 0.66357 0.05601 0.0
N429 N 0.31031 0.70486 0.06523 0.0
N430 N 0.27969 0.65149 0.02441 0.0
C431 C 0.25602 0.68171 0.01988 0.0
C432 C 0.27232 0.71055 0.04211 0.0
C433 C 0.83219 0.23383 0.55143 0.0
C434 C 0.7876 0.22041 0.54316 0.0
C435 C 0.85055 0.26133 0.52961 0.0
C436 C 0.82469 0.27647 0.499 0.0
H437 H 0.85165 0.22454 0.57655 0.0
H438 H 0.8838 0.27241 0.53861 0.0
S439 S 0.70842 0.24716 0.46306 0.0
N440 N 0.71991 0.22124 0.50031 0.0
N441 N 0.75424 0.27323 0.45891 0.0
C442 C 0.78175 0.2611 0.48828 0.0
C443 C 0.76306 0.23304 0.51069 0.0
C444 C 0.67215 0.75587 0.99248 0.0
C445 C 0.69967 0.7832 0.00705 0.0
C446 C 0.69287 0.72794 0.97284 0.0
C447 C 0.74148 0.72727 0.96603 0.0
H448 H 0.63427 0.75711 0.99428 0.0
H449 H 0.67034 0.70833 0.96002 0.0
S450 S 0.82889 0.79122 0.00112 0.0
N451 N 0.77806 0.80643 0.01658 0.0
N452 N 0.81683 0.75468 0.97795 0.0
C453 C 0.76953 0.75341 0.98243 0.0
C454 C 0.74859 0.78126 0.00344 0.0
C455 C 0.34032 0.25267 0.48275 0.0
C456 C 0.31139 0.22812 0.5014 0.0
C457 C 0.32106 0.28115 0.46307 0.0
C458 C 0.27227 0.28533 0.4606 0.0
H459 H 0.37781 0.2485 0.48102 0.0
H460 H 0.34423 0.298 0.44655 0.0
S461 S 0.18179 0.23037 0.50774 0.0
N462 N 0.23196 0.21193 0.51969 0.0
N463 N 0.19571 0.26467 0.48119 0.0
C464 C 0.24324 0.26248 0.48152 0.0
C465 C 0.26286 0.23403 0.50242 0.0
C466 C 0.64923 0.26678 0.06481 0.0
C467 C 0.68588 0.28678 0.04925 0.0
C468 C 0.63036 0.23899 0.04391 0.0
C469 C 0.64816 0.22955 0.00689 0.0
H470 H 0.63661 0.27161 0.09428 0.0
H471 H 0.60359 0.22346 0.05811 0.0
S472 S 0.74028 0.27695 0.95139 0.0
N473 N 0.73597 0.29828 0.99323 0.0
N474 N 0.70128 0.24526 0.95372 0.0
C475 C 0.68229 0.25123 0.9896 0.0
C476 C 0.70112 0.28001 0.01093 0.0
C477 C 0.27945 0.75767 0.56602 0.0
C478 C 0.27711 0.72478 0.54833 0.0
C479 C 0.29593 0.78653 0.54574 0.0
C480 C 0.31062 0.78427 0.50651 0.0
H481 H 0.2693 0.76138 0.59633 0.0
H482 H 0.29719 0.811 0.56127 0.0
S483 S 0.30964 0.70492 0.4453 0.0
N484 N 0.28963 0.69185 0.48832 0.0
N485 N 0.32028 0.74684 0.44983 0.0
C486 C 0.30732 0.75194 0.48769 0.0
C487 C 0.29083 0.72205 0.50869 0.0
C488 C 0.15749 0.46923 0.94887 0.0
C489 C 0.14086 0.49944 0.96716 0.0
C490 C 0.15604 0.43726 0.9681 0.0
C491 C 0.13808 0.43448 0.00634 0.0
H492 H 0.17407 0.47057 0.92032 0.0
H493 H 0.17136 0.41499 0.95371 0.0
S494 S 0.07978 0.50399 0.06302 0.0
N495 N 0.09788 0.52314 0.02246 0.0
N496 N 0.09654 0.46325 0.05928 0.0
C497 C 0.11799 0.46386 0.02369 0.0
C498 C 0.11904 0.49635 0.00391 0.0
C499 C 0.85028 0.53143 0.48172 0.0
C500 C 0.84484 0.53404 0.52257 0.0
C501 C 0.84962 0.49933 0.46286 0.0
C502 C 0.84291 0.46851 0.48401 0.0
H503 H 0.85386 0.5543 0.46377 0.0
H504 H 0.8532 0.49885 0.43125 0.0
S505 S 0.82698 0.46098 0.59176 0.0
N506 N 0.83365 0.50285 0.58387 0.0
N507 N 0.83074 0.44254 0.54826 0.0
C508 C 0.83823 0.47058 0.52502 0.0
C509 C 0.83956 0.50333 0.54432 0.0
C510 C 0.7347 0.51465 0.03291 0.0
C511 C 0.74917 0.48009 0.02812 0.0
C512 C 0.74158 0.53933 0.00333 0.0
C513 C 0.7635 0.53062 0.9677 0.0
H514 H 0.7178 0.52286 0.05977 0.0
H515 H 0.72975 0.56553 0.00866 0.0
S516 S 0.80819 0.44362 0.94028 0.0
N517 N 0.78656 0.43839 0.98476 0.0
N518 N 0.79964 0.48473 0.92929 0.0
C519 C 0.77822 0.49613 0.96245 0.0
C520 C 0.77098 0.4709 0.99256 0.0
C521 C 0.32766 0.48602 0.46832 0.0
C522 C 0.28503 0.47247 0.45417 0.0
C523 C 0.32867 0.51422 0.49426 0.0
C524 C 0.28716 0.53049 0.5067 0.0
H525 H 0.36066 0.47436 0.45991 0.0
H526 H 0.3624 0.52319 0.50482 0.0
S527 S 0.16621 0.50599 0.47717 0.0
N528 N 0.20007 0.47812 0.45393 0.0
N529 N 0.20205 0.53137 0.50216 0.0
C530 C 0.24426 0.51778 0.49208 0.0
C531 C 0.24318 0.48871 0.46604 0.0
C532 C 0.62798 0.0345 0.0151 0.0
C533 C 0.63585 0.03736 0.97458 0.0
C534 C 0.62926 0.00242 0.0339 0.0
C535 C 0.63907 0.97187 0.01305 0.0
H536 H 0.62235 0.05724 0.03293 0.0
H537 H 0.62436 0.00189 0.06538 0.0
S538 S 0.65892 0.96482 0.90577 0.0
N539 N 0.65045 0.0065 0.91354 0.0
N540 N 0.65426 0.94624 0.94912 0.0
C541 C 0.64494 0.97406 0.97218 0.0
C542 C 0.64303 0.0068 0.95291 0.0
C543 C 0.37129 0.97347 0.5025 0.0
C544 C 0.36064 0.97048 0.46244 0.0
C545 C 0.37195 0.00561 0.52124 0.0
C546 C 0.36149 0.03625 0.50087 0.0
H547 H 0.37747 0.9508 0.52017 0.0
H548 H 0.37865 0.00611 0.55248 0.0
S549 S 0.33631 0.04327 0.39448 0.0
N550 N 0.34371 0.00142 0.40199 0.0
N551 N 0.34407 0.06199 0.4375 0.0
C552 C 0.3537 0.03405 0.46023 0.0
C553 C 0.35345 0.00114 0.44097 0.0
C554 C 0.26608 0.97582 0.01943 0.0
C555 C 0.25502 0.94056 0.01409 0.0
C556 C 0.26027 -2e-05 0.98919 0.0
C557 C 0.24345 0.98994 0.9521 0.0
H558 H 0.27901 0.98508 0.04738 0.0
H559 H 0.26928 0.02676 0.99502 0.0
S560 S 0.21046 0.9005 0.92239 0.0
N561 N 0.22708 0.89669 0.96849 0.0
N562 N 0.21635 0.94195 0.9116 0.0
C563 C 0.23266 0.95467 0.94616 0.0
C564 C 0.23836 0.93005 0.97711 0.0
C565 C 0.74337 0.99119 0.54257 0.0
C566 C 0.74498 0.02714 0.53584 0.0
C567 C 0.74613 0.96745 0.51155 0.0
C568 C 0.75073 0.97867 0.47249 0.0
H569 H 0.7402 0.98115 0.57209 0.0
H570 H 0.74499 0.94007 0.51835 0.0
S571 S 0.75435 0.07011 0.43872 0.0
N572 N 0.7499 0.07281 0.48682 0.0
N573 N 0.75522 0.02832 0.4287 0.0
C574 C 0.75188 0.01457 0.46526 0.0
C575 C 0.74896 0.03874 0.49685 0.0
loop_
_geom_bond_atom_site_label_1
_geom_bond_atom_site_label_2
_geom_bond_distance
_geom_bond_site_symmetry_2
_ccdc_geom_bond_type
Mg0 O1 2.028 . S
Mg0 O7 1.986 . S
Mg0 O9 2.114 . S
Mg0 O10 2.251 . S
Mg0 O13 2.010 . S
O1 Mg0 2.028 . S
O1 C4 1.250 . S
O2 Mg3 2.028 1_554 S
O2 C4 1.248 . S
Mg3 O2 2.028 1_556 S
Mg3 O8 2.032 1_556 S
Mg3 O10 2.079 1_556 S
C4 O1 1.250 . S
C4 O2 1.248 . S
C5 O6 1.264 . S
C5 O13 1.249 . S
O6 C5 1.264 . S
O7 Mg0 1.986 . S
O7 C11 1.246 . S
O8 Mg3 2.032 1_554 S
O8 C11 1.259 . S
O9 Mg0 2.114 . S
O9 C12 1.252 . S
O10 Mg0 2.251 . S
O10 Mg3 2.079 1_554 S
O10 C12 1.273 . S
C11 O7 1.246 . S
C11 O8 1.259 . S
C12 O9 1.252 . S
C12 O10 1.273 . S
O13 Mg0 2.010 . S
O13 C5 1.249 . S
Mg14 O15 2.028 . S
Mg14 O21 1.986 . S
Mg14 O23 2.114 . S
Mg14 O24 2.251 . S
Mg14 O27 2.010 . S
O15 Mg14 2.028 . S
O15 C18 1.250 . S
O16 Mg17 2.028 . S
O16 C18 1.248 . S
Mg17 O16 2.028 . S
Mg17 O22 2.032 . S
Mg17 O24 2.079 . S
C18 O15 1.250 . S
C18 O16 1.248 . S
C19 O20 1.264 . S
C19 O27 1.249 . S
O20 C19 1.264 . S
O21 Mg14 1.986 . S
O21 C25 1.246 . S
O22 Mg17 2.032 . S
O22 C25 1.259 . S
O23 Mg14 2.114 . S
O23 C26 1.252 . S
O24 Mg14 2.251 . S
O24 Mg17 2.079 . S
O24 C26 1.273 . S
C25 O21 1.246 . S
C25 O22 1.259 . S
C26 O23 1.252 . S
C26 O24 1.273 . S
O27 Mg14 2.010 . S
O27 C19 1.249 . S
Mg28 O29 2.028 . S
Mg28 O35 1.986 . S
Mg28 O37 2.114 . S
Mg28 O38 2.251 . S
Mg28 O41 2.010 . S
O29 Mg28 2.028 . S
O29 C32 1.250 . S
O30 Mg31 2.028 1_556 S
O30 C32 1.248 . S
Mg31 O30 2.028 1_554 S
Mg31 O36 2.032 1_554 S
Mg31 O38 2.079 1_554 S
C32 O29 1.250 . S
C32 O30 1.248 . S
C33 O34 1.264 . S
C33 O41 1.249 . S
O34 C33 1.264 . S
O35 Mg28 1.986 . S
O35 C39 1.246 . S
O36 Mg31 2.032 1_556 S
O36 C39 1.259 . S
O37 Mg28 2.114 . S
O37 C40 1.252 . S
O38 Mg28 2.251 . S
O38 Mg31 2.079 1_556 S
O38 C40 1.273 . S
C39 O35 1.246 . S
C39 O36 1.259 . S
C40 O37 1.252 . S
C40 O38 1.273 . S
O41 Mg28 2.010 . S
O41 C33 1.249 . S
Mg42 O43 2.028 . S
Mg42 O49 1.986 . S
Mg42 O51 2.114 . S
Mg42 O52 2.251 . S
Mg42 O55 2.010 . S
O43 Mg42 2.028 . S
O43 C46 1.250 . S
O44 Mg45 2.028 . S
O44 C46 1.248 . S
Mg45 O44 2.028 . S
Mg45 O50 2.032 . S
Mg45 O52 2.079 . S
C46 O43 1.250 . S
C46 O44 1.248 . S
C47 O48 1.264 . S
C47 O55 1.249 . S
O48 C47 1.264 . S
O49 Mg42 1.986 . S
O49 C53 1.246 . S
O50 Mg45 2.032 . S
O50 C53 1.259 . S
O51 Mg42 2.114 . S
O51 C54 1.252 . S
O52 Mg42 2.251 . S
O52 Mg45 2.079 . S
O52 C54 1.273 . S
C53 O49 1.246 . S
C53 O50 1.259 . S
C54 O51 1.252 . S
C54 O52 1.273 . S
O55 Mg42 2.010 . S
O55 C47 1.249 . S
Mg56 O57 2.028 . S
Mg56 O63 1.986 . S
Mg56 O65 2.114 . S
Mg56 O66 2.251 . S
Mg56 O69 2.010 . S
O57 Mg56 2.028 . S
O57 C60 1.250 . S
O58 Mg59 2.028 . S
O58 C60 1.248 . S
Mg59 O58 2.028 . S
Mg59 O64 2.032 . S
Mg59 O66 2.079 . S
C60 O57 1.250 . S
C60 O58 1.248 . S
C61 O62 1.264 . S
C61 O69 1.249 . S
O62 C61 1.264 . S
O63 Mg56 1.986 . S
O63 C67 1.246 . S
O64 Mg59 2.032 . S
O64 C67 1.259 . S
O65 Mg56 2.114 . S
O65 C68 1.252 . S
O66 Mg56 2.251 . S
O66 Mg59 2.079 . S
O66 C68 1.273 . S
C67 O63 1.246 . S
C67 O64 1.259 . S
C68 O65 1.252 . S
C68 O66 1.273 . S
O69 Mg56 2.010 . S
O69 C61 1.249 . S
Mg70 O71 2.028 . S
Mg70 O77 1.986 . S
Mg70 O79 2.114 . S
Mg70 O80 2.251 . S
Mg70 O83 2.010 . S
O71 Mg70 2.028 . S
O71 C74 1.250 . S
O72 Mg73 2.028 . S
O72 C74 1.248 . S
Mg73 O72 2.028 . S
Mg73 O78 2.032 . S
Mg73 O80 2.079 . S
C74 O71 1.250 . S
C74 O72 1.248 . S
C75 O76 1.264 . S
C75 O83 1.249 . S
O76 C75 1.264 . S
O77 Mg70 1.986 . S
O77 C81 1.246 . S
O78 Mg73 2.032 . S
O78 C81 1.259 . S
O79 Mg70 2.114 . S
O79 C82 1.252 . S
O80 Mg70 2.251 . S
O80 Mg73 2.079 . S
O80 C82 1.273 . S
C81 O77 1.246 . S
C81 O78 1.259 . S
C82 O79 1.252 . S
C82 O80 1.273 . S
O83 Mg70 2.010 . S
O83 C75 1.249 . S
Mg84 O85 2.028 . S
Mg84 O91 1.986 . S
Mg84 O93 2.114 . S
Mg84 O94 2.251 . S
Mg84 O97 2.010 . S
O85 Mg84 2.028 . S
O85 C88 1.250 . S
O86 Mg87 2.028 . S
O86 C88 1.248 . S
Mg87 O86 2.028 . S
Mg87 O92 2.032 . S
Mg87 O94 2.079 . S
C88 O85 1.250 . S
C88 O86 1.248 . S
C89 O90 1.264 . S
C89 O97 1.249 . S
O90 C89 1.264 . S
O91 Mg84 1.986 . S
O91 C95 1.246 . S
O92 Mg87 2.032 . S
O92 C95 1.259 . S
O93 Mg84 2.114 . S
O93 C96 1.252 . S
O94 Mg84 2.251 . S
O94 Mg87 2.079 . S
O94 C96 1.273 . S
C95 O91 1.246 . S
C95 O92 1.259 . S
C96 O93 1.252 . S
C96 O94 1.273 . S
O97 Mg84 2.010 . S
O97 C89 1.249 . S
Mg98 O99 2.028 . S
Mg98 O105 1.986 . S
Mg98 O107 2.114 . S
Mg98 O108 2.251 . S
Mg98 O111 2.010 . S
O99 Mg98 2.028 . S
O99 C102 1.250 . S
O100 Mg101 2.028 . S
O100 C102 1.248 . S
Mg101 O100 2.028 . S
Mg101 O106 2.032 . S
Mg101 O108 2.079 . S
C102 O99 1.250 . S
C102 O100 1.248 . S
C103 O104 1.264 . S
C103 O111 1.249 . S
O104 C103 1.264 . S
O105 Mg98 1.986 . S
O105 C109 1.246 . S
O106 Mg101 2.032 . S
O106 C109 1.259 . S
O107 Mg98 2.114 . S
O107 C110 1.252 . S
O108 Mg98 2.251 . S
O108 Mg101 2.079 . S
O108 C110 1.273 . S
C109 O105 1.246 . S
C109 O106 1.259 . S
C110 O107 1.252 . S
C110 O108 1.273 . S
O111 Mg98 2.010 . S
O111 C103 1.249 . S
Mg112 O113 2.028 . S
Mg112 O119 1.986 . S
Mg112 O121 2.114 . S
Mg112 O122 2.251 . S
Mg112 O125 2.010 . S
O113 Mg112 2.028 . S
O113 C116 1.250 . S
O114 Mg115 2.028 1_554 S
O114 C116 1.248 . S
Mg115 O114 2.028 1_556 S
Mg115 O120 2.032 1_556 S
Mg115 O122 2.079 1_556 S
C116 O113 1.250 . S
C116 O114 1.248 . S
C117 O118 1.264 . S
C117 O125 1.249 . S
O118 C117 1.264 . S
O119 Mg112 1.986 . S
O119 C123 1.246 . S
O120 Mg115 2.032 1_554 S
O120 C123 1.259 . S
O121 Mg112 2.114 . S
O121 C124 1.252 . S
O122 Mg112 2.251 . S
O122 Mg115 2.079 1_554 S
O122 C124 1.273 . S
C123 O119 1.246 . S
C123 O120 1.259 . S
C124 O121 1.252 . S
C124 O122 1.273 . S
O125 Mg112 2.010 . S
O125 C117 1.249 . S
Mg126 O127 2.028 . S
Mg126 O133 1.986 . S
Mg126 O135 2.114 . S
Mg126 O136 2.251 . S
Mg126 O139 2.010 . S
O127 Mg126 2.028 . S
O127 C130 1.250 . S
O128 Mg129 2.028 . S
O128 C130 1.248 . S
Mg129 O128 2.028 . S
Mg129 O134 2.032 . S
Mg129 O136 2.079 . S
C130 O127 1.250 . S
C130 O128 1.248 . S
C131 O132 1.264 . S
C131 O139 1.249 . S
O132 C131 1.264 . S
O133 Mg126 1.986 . S
O133 C137 1.246 . S
O134 Mg129 2.032 . S
O134 C137 1.259 . S
O135 Mg126 2.114 . S
O135 C138 1.252 . S
O136 Mg126 2.251 . S
O136 Mg129 2.079 . S
O136 C138 1.273 . S
C137 O133 1.246 . S
C137 O134 1.259 . S
C138 O135 1.252 . S
C138 O136 1.273 . S
O139 Mg126 2.010 . S
O139 C131 1.249 . S
Mg140 O141 2.028 . S
Mg140 O147 1.986 . S
Mg140 O149 2.114 . S
Mg140 O150 2.251 . S
Mg140 O153 2.010 . S
O141 Mg140 2.028 . S
O141 C144 1.250 . S
O142 Mg143 2.028 1_556 S
O142 C144 1.248 . S
Mg143 O142 2.028 1_554 S
Mg143 O148 2.032 1_554 S
Mg143 O150 2.079 1_554 S
C144 O141 1.250 . S
C144 O142 1.248 . S
C145 O146 1.264 . S
C145 O153 1.249 . S
O146 C145 1.264 . S
O147 Mg140 1.986 . S
O147 C151 1.246 . S
O148 Mg143 2.032 1_556 S
O148 C151 1.259 . S
O149 Mg140 2.114 . S
O149 C152 1.252 . S
O150 Mg140 2.251 . S
O150 Mg143 2.079 1_556 S
O150 C152 1.273 . S
C151 O147 1.246 . S
C151 O148 1.259 . S
C152 O149 1.252 . S
C152 O150 1.273 . S
O153 Mg140 2.010 . S
O153 C145 1.249 . S
Mg154 O155 2.028 . S
Mg154 O161 1.986 . S
Mg154 O163 2.114 . S
Mg154 O164 2.251 . S
Mg154 O167 2.010 . S
O155 Mg154 2.028 . S
O155 C158 1.250 . S
O156 Mg157 2.028 . S
O156 C158 1.248 . S
Mg157 O156 2.028 . S
Mg157 O162 2.032 . S
Mg157 O164 2.079 . S
C158 O155 1.250 . S
C158 O156 1.248 . S
C159 O160 1.264 . S
C159 O167 1.249 . S
O160 C159 1.264 . S
O161 Mg154 1.986 . S
O161 C165 1.246 . S
O162 Mg157 2.032 . S
O162 C165 1.259 . S
O163 Mg154 2.114 . S
O163 C166 1.252 . S
O164 Mg154 2.251 . S
O164 Mg157 2.079 . S
O164 C166 1.273 . S
C165 O161 1.246 . S
C165 O162 1.259 . S
C166 O163 1.252 . S
C166 O164 1.273 . S
O167 Mg154 2.010 . S
O167 C159 1.249 . S
Mg168 O169 2.028 . S
Mg168 O175 1.986 . S
Mg168 O177 2.114 . S
Mg168 O178 2.251 . S
Mg168 O181 2.010 . S
O169 Mg168 2.028 . S
O169 C172 1.250 . S
O170 Mg171 2.028 . S
O170 C172 1.248 . S
Mg171 O170 2.028 . S
Mg171 O176 2.032 . S
Mg171 O178 2.079 . S
C172 O169 1.250 . S
C172 O170 1.248 . S
C173 O174 1.264 . S
C173 O181 1.249 . S
O174 C173 1.264 . S
O175 Mg168 1.986 . S
O175 C179 1.246 . S
O176 Mg171 2.032 . S
O176 C179 1.259 . S
O177 Mg168 2.114 . S
O177 C180 1.252 . S
O178 Mg168 2.251 . S
O178 Mg171 2.079 . S
O178 C180 1.273 . S
C179 O175 1.246 . S
C179 O176 1.259 . S
C180 O177 1.252 . S
C180 O178 1.273 . S
O181 Mg168 2.010 . S
O181 C173 1.249 . S
Mg182 O183 2.028 . S
Mg182 O189 1.986 . S
Mg182 O191 2.114 . S
Mg182 O192 2.251 . S
Mg182 O195 2.010 . S
O183 Mg182 2.028 . S
O183 C186 1.250 . S
O184 Mg185 2.028 . S
O184 C186 1.248 . S
Mg185 O184 2.028 . S
Mg185 O190 2.032 . S
Mg185 O192 2.079 . S
C186 O183 1.250 . S
C186 O184 1.248 . S
C187 O188 1.264 . S
C187 O195 1.249 . S
O188 C187 1.264 . S
O189 Mg182 1.986 . S
O189 C193 1.246 . S
O190 Mg185 2.032 . S
O190 C193 1.259 . S
O191 Mg182 2.114 . S
O191 C194 1.252 . S
O192 Mg182 2.251 . S
O192 Mg185 2.079 . S
O192 C194 1.273 . S
C193 O189 1.246 . S
C193 O190 1.259 . S
C194 O191 1.252 . S
C194 O192 1.273 . S
O195 Mg182 2.010 . S
O195 C187 1.249 . S
Mg196 O197 2.028 . S
Mg196 O203 1.986 . S
Mg196 O205 2.114 . S
Mg196 O206 2.251 . S
Mg196 O209 2.010 . S
O197 Mg196 2.028 . S
O197 C200 1.250 . S
O198 Mg199 2.028 . S
O198 C200 1.248 . S
Mg199 O198 2.028 . S
Mg199 O204 2.032 . S
Mg199 O206 2.079 . S
C200 O197 1.250 . S
C200 O198 1.248 . S
C201 O202 1.264 . S
C201 O209 1.249 . S
O202 C201 1.264 . S
O203 Mg196 1.986 . S
O203 C207 1.246 . S
O204 Mg199 2.032 . S
O204 C207 1.259 . S
O205 Mg196 2.114 . S
O205 C208 1.252 . S
O206 Mg196 2.251 . S
O206 Mg199 2.079 . S
O206 C208 1.273 . S
C207 O203 1.246 . S
C207 O204 1.259 . S
C208 O205 1.252 . S
C208 O206 1.273 . S
O209 Mg196 2.010 . S
O209 C201 1.249 . S
Mg210 O211 2.028 . S
Mg210 O217 1.986 . S
Mg210 O219 2.114 . S
Mg210 O220 2.251 . S
Mg210 O223 2.010 . S
O211 Mg210 2.028 . S
O211 C214 1.250 . S
O212 Mg213 2.028 . S
O212 C214 1.248 . S
Mg213 O212 2.028 . S
Mg213 O218 2.032 . S
Mg213 O220 2.079 . S
C214 O211 1.250 . S
C214 O212 1.248 . S
C215 O216 1.264 . S
C215 O223 1.249 . S
O216 C215 1.264 . S
O217 Mg210 1.986 . S
O217 C221 1.246 . S
O218 Mg213 2.032 . S
O218 C221 1.259 . S
O219 Mg210 2.114 . S
O219 C222 1.252 . S
O220 Mg210 2.251 . S
O220 Mg213 2.079 . S
O220 C222 1.273 . S
C221 O217 1.246 . S
C221 O218 1.259 . S
C222 O219 1.252 . S
C222 O220 1.273 . S
O223 Mg210 2.010 . S
O223 C215 1.249 . S
C224 C225 1.369 . S
C224 C226 1.419 1_455 S
C224 H228 0.930 . S
C225 C224 1.369 . S
C225 C234 1.429 . S
C226 C224 1.419 1_655 S
C226 C227 1.363 . S
C226 H229 0.929 . S
C227 C226 1.363 . S
C227 C233 1.428 . S
H228 C224 0.930 . S
H229 C226 0.929 . S
S230 N231 1.613 1_656 S
S230 N232 1.610 1_556 S
N231 S230 1.613 1_454 S
N231 C234 1.350 . S
N232 S230 1.610 1_554 S
N232 C233 1.351 . S
C233 C227 1.428 . S
C233 N232 1.351 . S
C233 C234 1.434 1_655 S
C234 C225 1.429 . S
C234 N231 1.350 . S
C234 C233 1.434 1_455 S
C235 C236 1.369 . S
C235 C237 1.419 1_655 S
C235 H239 0.930 . S
C236 C235 1.369 . S
C236 C245 1.429 . S
C237 C235 1.419 1_455 S
C237 C238 1.363 . S
C237 H240 0.929 . S
C238 C237 1.363 . S
C238 C244 1.428 . S
H239 C235 0.930 . S
H240 C237 0.929 . S
S241 N242 1.627 . S
S241 N243 1.597 1_655 S
N242 S241 1.627 . S
N242 C245 1.350 . S
N243 S241 1.597 1_455 S
N243 C244 1.351 . S
C244 C238 1.428 . S
C244 N243 1.351 . S
C244 C245 1.434 1_455 S
C245 C236 1.429 . S
C245 N242 1.350 . S
C245 C244 1.434 1_655 S
C246 C247 1.369 . S
C246 C248 1.419 1_655 S
C246 H250 0.930 . S
C247 C246 1.369 . S
C247 C256 1.429 . S
C248 C246 1.419 1_455 S
C248 C249 1.363 . S
C248 H251 0.929 . S
C249 C248 1.363 . S
C249 C255 1.428 . S
H250 C246 0.930 . S
H251 C248 0.929 . S
S252 N253 1.613 . S
S252 N254 1.610 1_655 S
N253 S252 1.613 . S
N253 C256 1.350 . S
N254 S252 1.610 1_455 S
N254 C255 1.351 . S
C255 C249 1.428 . S
C255 N254 1.351 . S
C255 C256 1.434 1_455 S
C256 C247 1.429 . S
C256 N253 1.350 . S
C256 C255 1.434 1_655 S
C257 C258 1.369 . S
C257 C259 1.419 1_455 S
C257 H261 0.930 . S
C258 C257 1.369 . S
C258 C267 1.429 . S
C259 C257 1.419 1_655 S
C259 C260 1.363 . S
C259 H262 0.929 . S
C260 C259 1.363 . S
C260 C266 1.428 . S
H261 C257 0.930 . S
H262 C259 0.929 . S
S263 N264 1.613 . S
S263 N265 1.610 1_455 S
N264 S263 1.613 . S
N264 C267 1.350 . S
N265 S263 1.610 1_655 S
N265 C266 1.351 . S
C266 C260 1.428 . S
C266 N265 1.351 . S
C266 C267 1.434 1_655 S
C267 C258 1.429 . S
C267 N264 1.350 . S
C267 C266 1.434 1_455 S
C268 C269 1.369 . S
C268 C270 1.419 . S
C268 H272 0.930 . S
C269 C268 1.369 . S
C269 C278 1.429 . S
C270 C268 1.419 . S
C270 C271 1.363 . S
C270 H273 0.929 . S
C271 C270 1.363 . S
C271 C277 1.428 . S
H272 C268 0.930 . S
H273 C270 0.929 . S
S274 N275 1.613 1_556 S
S274 N276 1.610 1_556 S
N275 S274 1.613 1_554 S
N275 C278 1.350 . S
N276 S274 1.610 1_554 S
N276 C277 1.351 . S
C277 C271 1.428 . S
C277 N276 1.351 . S
C277 C278 1.434 . S
C278 C269 1.429 . S
C278 N275 1.350 . S
C278 C277 1.434 . S
C279 C280 1.369 . S
C279 C281 1.419 . S
C279 H283 0.930 . S
C280 C279 1.369 . S
C280 C289 1.429 . S
C281 C279 1.419 . S
C281 C282 1.363 . S
C281 H284 0.929 . S
C282 C281 1.363 . S
C282 C288 1.428 . S
H283 C279 0.930 . S
H284 C281 0.929 . S
S285 N286 1.613 . S
S285 N287 1.610 . S
N286 S285 1.613 . S
N286 C289 1.350 . S
N287 S285 1.610 . S
N287 C288 1.351 . S
C288 C282 1.428 . S
C288 N287 1.351 . S
C288 C289 1.434 . S
C289 C280 1.429 . S
C289 N286 1.350 . S
C289 C288 1.434 . S
C290 C291 1.369 . S
C290 C292 1.419 . S
C290 H294 0.930 . S
C291 C290 1.369 . S
C291 C300 1.429 . S
C292 C290 1.419 . S
C292 C293 1.363 . S
C292 H295 0.929 . S
C293 C292 1.363 . S
C293 C299 1.428 . S
H294 C290 0.930 . S
H295 C292 0.929 . S
S296 N297 1.613 . S
S296 N298 1.610 . S
N297 S296 1.613 . S
N297 C300 1.350 . S
N298 S296 1.610 . S
N298 C299 1.351 . S
C299 C293 1.428 . S
C299 N298 1.351 . S
C299 C300 1.434 . S
C300 C291 1.429 . S
C300 N297 1.350 . S
C300 C299 1.434 . S
C301 C302 1.369 . S
C301 C303 1.419 . S
C301 H305 0.930 . S
C302 C301 1.369 . S
C302 C311 1.429 . S
C303 C301 1.419 . S
C303 C304 1.363 . S
C303 H306 0.929 . S
C304 C303 1.363 . S
C304 C310 1.428 . S
H305 C301 0.930 . S
H306 C303 0.929 . S
S307 N308 1.613 . S
S307 N309 1.610 . S
N308 S307 1.613 . S
N308 C311 1.350 . S
N309 S307 1.610 . S
N309 C310 1.351 . S
C310 C304 1.428 . S
C310 N309 1.351 . S
C310 C311 1.434 . S
C311 C302 1.429 . S
C311 N308 1.350 . S
C311 C310 1.434 . S
C312 C313 1.369 . S
C312 C314 1.419 . S
C312 H316 0.930 . S
C313 C312 1.369 . S
C313 C322 1.429 . S
C314 C312 1.419 . S
C314 C315 1.363 . S
C314 H317 0.929 . S
C315 C314 1.363 . S
C315 C321 1.428 . S
H316 C312 0.930 . S
H317 C314 0.929 . S
S318 N319 1.613 . S
S318 N320 1.610 . S
N319 S318 1.613 . S
N319 C322 1.350 . S
N320 S318 1.610 . S
N320 C321 1.351 . S
C321 C315 1.428 . S
C321 N320 1.351 . S
C321 C322 1.434 . S
C322 C313 1.429 . S
C322 N319 1.350 . S
C322 C321 1.434 . S
C323 C324 1.369 . S
C323 C325 1.419 . S
C323 H327 0.930 . S
C324 C323 1.369 . S
C324 C333 1.429 . S
C325 C323 1.419 . S
C325 C326 1.363 . S
C325 H328 0.929 . S
C326 C325 1.363 . S
C326 C332 1.428 . S
H327 C323 0.930 . S
H328 C325 0.929 . S
S329 N330 1.613 . S
S329 N331 1.610 . S
N330 S329 1.613 . S
N330 C333 1.350 . S
N331 S329 1.610 . S
N331 C332 1.351 . S
C332 C326 1.428 . S
C332 N331 1.351 . S
C332 C333 1.434 . S
C333 C324 1.429 . S
C333 N330 1.350 . S
C333 C332 1.434 . S
C334 C335 1.369 . S
C334 C336 1.419 . S
C334 H338 0.930 . S
C335 C334 1.369 . S
C335 C344 1.429 . S
C336 C334 1.419 . S
C336 C337 1.363 . S
C336 H339 0.929 . S
C337 C336 1.363 . S
C337 C343 1.428 . S
H338 C334 0.930 . S
H339 C336 0.929 . S
S340 N341 1.613 . S
S340 N342 1.610 . S
N341 S340 1.613 . S
N341 C344 1.350 . S
N342 S340 1.610 . S
N342 C343 1.351 . S
C343 C337 1.428 . S
C343 N342 1.351 . S
C343 C344 1.434 . S
C344 C335 1.429 . S
C344 N341 1.350 . S
C344 C343 1.434 . S
C345 C346 1.369 . S
C345 C347 1.419 . S
C345 H349 0.930 . S
C346 C345 1.369 . S
C346 C355 1.429 . S
C347 C345 1.419 . S
C347 C348 1.363 . S
C347 H350 0.929 . S
C348 C347 1.363 . S
C348 C354 1.428 . S
H349 C345 0.930 . S
H350 C347 0.929 . S
S351 N352 1.613 . S
S351 N353 1.610 . S
N352 S351 1.613 . S
N352 C355 1.350 . S
N353 S351 1.610 . S
N353 C354 1.351 . S
C354 C348 1.428 . S
C354 N353 1.351 . S
C354 C355 1.434 . S
C355 C346 1.429 . S
C355 N352 1.350 . S
C355 C354 1.434 . S
C356 C357 1.369 . S
C356 C358 1.419 . S
C356 H360 0.930 . S
C357 C356 1.369 . S
C357 C366 1.429 . S
C358 C356 1.419 . S
C358 C359 1.363 . S
C358 H361 0.929 . S
C359 C358 1.363 . S
C359 C365 1.428 . S
H360 C356 0.930 . S
H361 C358 0.929 . S
S362 N363 1.613 . S
S362 N364 1.610 . S
N363 S362 1.613 . S
N363 C366 1.350 . S
N364 S362 1.610 . S
N364 C365 1.351 . S
C365 C359 1.428 . S
C365 N364 1.351 . S
C365 C366 1.434 . S
C366 C357 1.429 . S
C366 N363 1.350 . S
C366 C365 1.434 . S
C367 C368 1.369 . S
C367 C369 1.419 . S
C367 H371 0.930 . S
C368 C367 1.369 . S
C368 C377 1.429 . S
C369 C367 1.419 . S
C369 C370 1.363 . S
C369 H372 0.929 . S
C370 C369 1.363 . S
C370 C376 1.428 . S
H371 C367 0.930 . S
H372 C369 0.929 . S
S373 N374 1.613 . S
S373 N375 1.610 . S
N374 S373 1.613 . S
N374 C377 1.350 . S
N375 S373 1.610 . S
N375 C376 1.351 . S
C376 C370 1.428 . S
C376 N375 1.351 . S
C376 C377 1.434 . S
C377 C368 1.429 . S
C377 N374 1.350 . S
C377 C376 1.434 . S
C378 C379 1.369 . S
C378 C380 1.419 . S
C378 H382 0.930 . S
C379 C378 1.369 . S
C379 C388 1.429 . S
C380 C378 1.419 . S
C380 C381 1.363 . S
C380 H383 0.929 . S
C381 C380 1.363 . S
C381 C387 1.428 . S
H382 C378 0.930 . S
H383 C380 0.929 . S
S384 N385 1.613 . S
S384 N386 1.610 . S
N385 S384 1.613 . S
N385 C388 1.350 . S
N386 S384 1.610 . S
N386 C387 1.351 . S
C387 C381 1.428 . S
C387 N386 1.351 . S
C387 C388 1.434 . S
C388 C379 1.429 . S
C388 N385 1.350 . S
C388 C387 1.434 . S
C389 C390 1.369 . S
C389 C391 1.419 . S
C389 H393 0.930 . S
C390 C389 1.369 . S
C390 C399 1.429 . S
C391 C389 1.419 . S
C391 C392 1.363 . S
C391 H394 0.929 . S
C392 C391 1.363 . S
C392 C398 1.428 . S
H393 C389 0.930 . S
H394 C391 0.929 . S
S395 N396 1.613 . S
S395 N397 1.610 . S
N396 S395 1.613 . S
N396 C399 1.350 . S
N397 S395 1.610 . S
N397 C398 1.351 . S
C398 C392 1.428 . S
C398 N397 1.351 . S
C398 C399 1.434 . S
C399 C390 1.429 . S
C399 N396 1.350 . S
C399 C398 1.434 . S
C400 C401 1.369 . S
C400 C402 1.419 . S
C400 H404 0.930 . S
C401 C400 1.369 . S
C401 C410 1.429 1_556 S
C402 C400 1.419 . S
C402 C403 1.363 1_556 S
C402 H405 0.929 . S
C403 C402 1.363 1_554 S
C403 C409 1.428 . S
H404 C400 0.930 . S
H405 C402 0.929 . S
S406 N407 1.613 . S
S406 N408 1.610 . S
N407 S406 1.613 . S
N407 C410 1.350 . S
N408 S406 1.610 . S
N408 C409 1.351 . S
C409 C403 1.428 . S
C409 N408 1.351 . S
C409 C410 1.434 . S
C410 C401 1.429 1_554 S
C410 N407 1.350 . S
C410 C409 1.434 . S
C411 C412 1.369 . S
C411 C413 1.419 . S
C411 H415 0.930 . S
C412 C411 1.369 . S
C412 C421 1.429 . S
C413 C411 1.419 . S
C413 C414 1.363 . S
C413 H416 0.929 . S
C414 C413 1.363 . S
C414 C420 1.428 . S
H415 C411 0.930 . S
H416 C413 0.929 . S
S417 N418 1.613 . S
S417 N419 1.610 . S
N418 S417 1.613 . S
N418 C421 1.350 . S
N419 S417 1.610 . S
N419 C420 1.351 . S
C420 C414 1.428 . S
C420 N419 1.351 . S
C420 C421 1.434 . S
C421 C412 1.429 . S
C421 N418 1.350 . S
C421 C420 1.434 . S
C422 C423 1.369 1_556 S
C422 C424 1.419 . S
C422 H426 0.930 . S
C423 C422 1.369 1_554 S
C423 C432 1.429 . S
C424 C422 1.419 . S
C424 C425 1.363 . S
C424 H427 0.929 . S
C425 C424 1.363 . S
C425 C431 1.428 1_556 S
H426 C422 0.930 . S
H427 C424 0.929 . S
S428 N429 1.613 . S
S428 N430 1.610 . S
N429 S428 1.613 . S
N429 C432 1.350 . S
N430 S428 1.610 . S
N430 C431 1.351 . S
C431 C425 1.428 1_554 S
C431 N430 1.351 . S
C431 C432 1.434 . S
C432 C423 1.429 . S
C432 N429 1.350 . S
C432 C431 1.434 . S
C433 C434 1.369 . S
C433 C435 1.419 . S
C433 H437 0.930 . S
C434 C433 1.369 . S
C434 C443 1.429 . S
C435 C433 1.419 . S
C435 C436 1.363 . S
C435 H438 0.929 . S
C436 C435 1.363 . S
C436 C442 1.428 . S
H437 C433 0.930 . S
H438 C435 0.929 . S
S439 N440 1.613 . S
S439 N441 1.610 . S
N440 S439 1.613 . S
N440 C443 1.350 . S
N441 S439 1.610 . S
N441 C442 1.351 . S
C442 C436 1.428 . S
C442 N441 1.351 . S
C442 C443 1.434 . S
C443 C434 1.429 . S
C443 N440 1.350 . S
C443 C442 1.434 . S
C444 C445 1.369 . S
C444 C446 1.419 . S
C444 H448 0.930 . S
C445 C444 1.369 . S
C445 C454 1.429 1_554 S
C446 C444 1.419 . S
C446 C447 1.363 1_554 S
C446 H449 0.929 . S
C447 C446 1.363 1_556 S
C447 C453 1.428 . S
H448 C444 0.930 . S
H449 C446 0.929 . S
S450 N451 1.613 . S
S450 N452 1.610 . S
N451 S450 1.613 . S
N451 C454 1.350 . S
N452 S450 1.610 . S
N452 C453 1.351 . S
C453 C447 1.428 . S
C453 N452 1.351 . S
C453 C454 1.434 . S
C454 C445 1.429 1_556 S
C454 N451 1.350 . S
C454 C453 1.434 . S
C455 C456 1.369 . S
C455 C457 1.419 . S
C455 H459 0.930 . S
C456 C455 1.369 . S
C456 C465 1.429 . S
C457 C455 1.419 . S
C457 C458 1.363 . S
C457 H460 0.929 . S
C458 C457 1.363 . S
C458 C464 1.428 . S
H459 C455 0.930 . S
H460 C457 0.929 . S
S461 N462 1.613 . S
S461 N463 1.610 . S
N462 S461 1.613 . S
N462 C465 1.350 . S
N463 S461 1.610 . S
N463 C464 1.351 . S
C464 C458 1.428 . S
C464 N463 1.351 . S
C464 C465 1.434 . S
C465 C456 1.429 . S
C465 N462 1.350 . S
C465 C464 1.434 . S
C466 C467 1.369 . S
C466 C468 1.419 . S
C466 H470 0.930 . S
C467 C466 1.369 . S
C467 C476 1.429 1_554 S
C468 C466 1.419 . S
C468 C469 1.363 1_554 S
C468 H471 0.929 . S
C469 C468 1.363 1_556 S
C469 C475 1.428 . S
H470 C466 0.930 . S
H471 C468 0.929 . S
S472 N473 1.613 . S
S472 N474 1.610 . S
N473 S472 1.613 . S
N473 C476 1.350 . S
N474 S472 1.610 . S
N474 C475 1.351 . S
C475 C469 1.428 . S
C475 N474 1.351 . S
C475 C476 1.434 . S
C476 C467 1.429 1_556 S
C476 N473 1.350 . S
C476 C475 1.434 . S
C477 C478 1.369 . S
C477 C479 1.419 . S
C477 H481 0.930 . S
C478 C477 1.369 . S
C478 C487 1.429 . S
C479 C477 1.419 . S
C479 C480 1.363 . S
C479 H482 0.929 . S
C480 C479 1.363 . S
C480 C486 1.428 . S
H481 C477 0.930 . S
H482 C479 0.929 . S
S483 N484 1.613 . S
S483 N485 1.610 . S
N484 S483 1.613 . S
N484 C487 1.350 . S
N485 S483 1.610 . S
N485 C486 1.351 . S
C486 C480 1.428 . S
C486 N485 1.351 . S
C486 C487 1.434 . S
C487 C478 1.429 . S
C487 N484 1.350 . S
C487 C486 1.434 . S
C488 C489 1.369 . S
C488 C490 1.419 1_556 S
C488 H492 0.930 . S
C489 C488 1.369 . S
C489 C498 1.429 . S
C490 C488 1.419 1_554 S
C490 C491 1.363 . S
C490 H493 0.929 . S
C491 C490 1.363 . S
C491 C497 1.428 . S
H492 C488 0.930 . S
H493 C490 0.929 . S
S494 N495 1.613 1_554 S
S494 N496 1.610 . S
N495 S494 1.613 1_556 S
N495 C498 1.350 . S
N496 S494 1.610 . S
N496 C497 1.351 . S
C497 C491 1.428 . S
C497 N496 1.351 . S
C497 C498 1.434 1_554 S
C498 C489 1.429 . S
C498 N495 1.350 . S
C498 C497 1.434 1_556 S
C499 C500 1.369 . S
C499 C501 1.419 . S
C499 H503 0.930 . S
C500 C499 1.369 . S
C500 C509 1.429 . S
C501 C499 1.419 . S
C501 C502 1.363 . S
C501 H504 0.929 . S
C502 C501 1.363 . S
C502 C508 1.428 . S
H503 C499 0.930 . S
H504 C501 0.929 . S
S505 N506 1.613 . S
S505 N507 1.610 . S
N506 S505 1.613 . S
N506 C509 1.350 . S
N507 S505 1.610 . S
N507 C508 1.351 . S
C508 C502 1.428 . S
C508 N507 1.351 . S
C508 C509 1.434 . S
C509 C500 1.429 . S
C509 N506 1.350 . S
C509 C508 1.434 . S
C510 C511 1.369 . S
C510 C512 1.419 . S
C510 H514 0.930 . S
C511 C510 1.369 . S
C511 C520 1.429 1_554 S
C512 C510 1.419 . S
C512 C513 1.363 1_554 S
C512 H515 0.929 . S
C513 C512 1.363 1_556 S
C513 C519 1.428 . S
H514 C510 0.930 . S
H515 C512 0.929 . S
S516 N517 1.613 . S
S516 N518 1.610 . S
N517 S516 1.613 . S
N517 C520 1.350 . S
N518 S516 1.610 . S
N518 C519 1.351 . S
C519 C513 1.428 . S
C519 N518 1.351 . S
C519 C520 1.434 . S
C520 C511 1.429 1_556 S
C520 N517 1.350 . S
C520 C519 1.434 . S
C521 C522 1.369 . S
C521 C523 1.419 . S
C521 H525 0.930 . S
C522 C521 1.369 . S
C522 C531 1.429 . S
C523 C521 1.419 . S
C523 C524 1.363 . S
C523 H526 0.929 . S
C524 C523 1.363 . S
C524 C530 1.428 . S
H525 C521 0.930 . S
H526 C523 0.929 . S
S527 N528 1.613 . S
S527 N529 1.610 . S
N528 S527 1.613 . S
N528 C531 1.350 . S
N529 S527 1.610 . S
N529 C530 1.351 . S
C530 C524 1.428 . S
C530 N529 1.351 . S
C530 C531 1.434 . S
C531 C522 1.429 . S
C531 N528 1.350 . S
C531 C530 1.434 . S
C532 C533 1.369 1_554 S
C532 C534 1.419 1_545 S
C532 H536 0.930 . S
C533 C532 1.369 1_556 S
C533 C542 1.429 . S
C534 C532 1.419 1_565 S
C534 C535 1.363 . S
C534 H537 0.929 . S
C535 C534 1.363 . S
C535 C541 1.428 1_554 S
H536 C532 0.930 . S
H537 C534 0.929 . S
S538 N539 1.613 1_565 S
S538 N540 1.610 . S
N539 S538 1.613 1_545 S
N539 C542 1.350 . S
N540 S538 1.610 . S
N540 C541 1.351 . S
C541 C535 1.428 1_556 S
C541 N540 1.351 . S
C541 C542 1.434 1_565 S
C542 C533 1.429 . S
C542 N539 1.350 . S
C542 C541 1.434 1_545 S
C543 C544 1.369 . S
C543 C545 1.419 1_565 S
C543 H547 0.930 . S
C544 C543 1.369 . S
C544 C553 1.448 . S
C545 C543 1.419 1_545 S
C545 C546 1.363 . S
C545 H548 0.929 . S
C546 C545 1.363 . S
C546 C552 1.428 . S
H547 C543 0.930 . S
H548 C545 0.929 . S
S549 N550 1.613 . S
S549 N551 1.610 . S
N550 S549 1.613 . S
N550 C553 1.348 1_545 S
N551 S549 1.610 . S
N551 C552 1.351 . S
C552 C546 1.428 . S
C552 N551 1.351 . S
C552 C553 1.415 1_545 S
C553 C544 1.448 . S
C553 N550 1.348 1_565 S
C553 C552 1.415 1_565 S
C554 C555 1.369 . S
C554 C556 1.419 1_565 S
C554 H558 0.930 . S
C555 C554 1.369 . S
C555 C564 1.429 1_554 S
C556 C554 1.419 1_545 S
C556 C557 1.363 1_554 S
C556 H559 0.929 . S
C557 C556 1.363 1_556 S
C557 C563 1.440 . S
H558 C554 0.930 . S
H559 C556 0.929 . S
S560 N561 1.613 . S
S560 N562 1.610 . S
N561 S560 1.613 . S
N561 C564 1.350 . S
N562 S560 1.610 . S
N562 C563 1.350 1_565 S
C563 C557 1.440 . S
C563 N562 1.350 1_545 S
C563 C564 1.423 1_545 S
C564 C555 1.429 1_556 S
C564 N561 1.350 . S
C564 C563 1.423 1_565 S
C565 C566 1.369 . S
C565 C567 1.419 1_545 S
C565 H569 0.930 . S
C566 C565 1.369 . S
C566 C575 1.429 . S
C567 C565 1.419 1_565 S
C567 C568 1.363 . S
C567 H570 0.929 . S
C568 C567 1.363 . S
C568 C574 1.428 . S
H569 C565 0.930 . S
H570 C567 0.929 . S
S571 N572 1.613 . S
S571 N573 1.610 . S
N572 S571 1.613 . S
N572 C575 1.350 . S
N573 S571 1.610 . S
N573 C574 1.351 1_545 S
C574 C568 1.428 . S
C574 N573 1.351 1_565 S
C574 C575 1.434 1_565 S
C575 C566 1.429 . S
C575 N572 1.350 . S
C575 C574 1.434 1_545 S
C225 C4 1.475 . S
C227 C88 1.481 . S
C236 C18 1.479 . S
C238 C102 1.479 . S
C247 C60 1.482 . S
C249 C32 1.475 . S
C258 C74 1.482 . S
C260 C46 1.475 . S
C269 C200 1.481 . S
C271 C116 1.475 . S
C280 C214 1.477 . S
C282 C130 1.477 . S
C291 C144 1.477 . S
C293 C172 1.481 . S
C302 C158 1.479 . S
C304 C186 1.477 . S
C313 C5 1.336 . S
C315 C82 1.468 . S
C324 C19 1.327 . S
C326 C68 1.470 . S
C335 C33 1.330 . S
C337 C110 1.468 . S
C346 C96 1.469 . S
C348 C47 1.332 . S
C357 C194 1.468 . S
C359 C117 1.326 . S
C368 C180 1.468 . S
C370 C131 1.327 . S
C379 C145 1.329 . S
C381 C222 1.470 . S
C390 C208 1.468 . S
C392 C159 1.326 . S
C401 C179 1.373 . S
C403 C11 1.371 . S
C412 C25 1.372 . S
C414 C193 1.373 . S
C423 C207 1.370 . S
C425 C39 1.367 . S
C434 C221 1.377 . S
C436 C53 1.370 . S
C445 C123 1.366 . S
C447 C67 1.371 . S
C456 C137 1.368 . S
C458 C81 1.371 . S
C467 C95 1.374 . S
C469 C151 1.371 . S
C478 C109 1.376 . S
C480 C165 1.371 . S
C489 C40 1.562 . S
C491 C12 1.563 . S
C500 C26 1.564 . S
C502 C54 1.564 . S
C511 C89 1.229 . S
C513 C61 1.226 . S
C522 C75 1.235 . S
C524 C103 1.234 . S
C533 C152 1.564 . S
C535 C124 1.565 . S
C544 C166 1.563 . S
C546 C138 1.564 . S
C555 C201 1.229 . S
C557 C173 1.227 . S
C566 C215 1.228 . S
C568 C187 1.226 . S
