# Generated by pormake.
# Topology ukp, (4)-cn, num edge types: 1
# Building blocks:
#     Node 0, Type 0, BuildingBlock: QUQFOY_clean_sbu_1, # of connection points: 4
#     Node 1, Type 0, BuildingBlock: QUQFOY_clean_sbu_1, # of connection points: 4
#     Node 2, Type 0, BuildingBlock: QUQFOY_clean_sbu_1, # of connection points: 4
#     Node 3, Type 0, BuildingBlock: QUQFOY_clean_sbu_1, # of connection points: 4
#     Node 4, Type 0, BuildingBlock: QUQFOY_clean_sbu_1, # of connection points: 4
#     Node 5, Type 0, BuildingBlock: QUQFOY_clean_sbu_1, # of connection points: 4
#     Node 6, Type 0, BuildingBlock: QUQFOY_clean_sbu_1, # of connection points: 4
#     Node 7, Type 0, BuildingBlock: QUQFOY_clean_sbu_1, # of connection points: 4
#     Node 8, Type 0, BuildingBlock: QUQFOY_clean_sbu_1, # of connection points: 4
#     Node 9, Type 0, BuildingBlock: QUQFOY_clean_sbu_1, # of connection points: 4
#     Node 10, Type 0, BuildingBlock: QUQFOY_clean_sbu_1, # of connection points: 4
#     Node 11, Type 0, BuildingBlock: QUQFOY_clean_sbu_1, # of connection points: 4
#     Node 12, Type 0, BuildingBlock: QUQFOY_clean_sbu_1, # of connection points: 4
#     Node 13, Type 0, BuildingBlock: QUQFOY_clean_sbu_1, # of connection points: 4
#     Node 14, Type 0, BuildingBlock: QUQFOY_clean_sbu_1, # of connection points: 4
#     Node 15, Type 0, BuildingBlock: QUQFOY_clean_sbu_1, # of connection points: 4
#     Node 16, Type 0, BuildingBlock: QUQFOY_clean_sbu_1, # of connection points: 4
#     Node 17, Type 0, BuildingBlock: QUQFOY_clean_sbu_1, # of connection points: 4
#     Node 18, Type 0, BuildingBlock: QUQFOY_clean_sbu_1, # of connection points: 4
#     Node 19, Type 0, BuildingBlock: QUQFOY_clean_sbu_1, # of connection points: 4
#     Node 20, Type 0, BuildingBlock: QUQFOY_clean_sbu_1, # of connection points: 4
#     Node 21, Type 0, BuildingBlock: QUQFOY_clean_sbu_1, # of connection points: 4
#     Node 22, Type 0, BuildingBlock: QUQFOY_clean_sbu_1, # of connection points: 4
#     Node 23, Type 0, BuildingBlock: QUQFOY_clean_sbu_1, # of connection points: 4
#     Node 24, Type 0, BuildingBlock: QUQFOY_clean_sbu_1, # of connection points: 4
#     Node 25, Type 0, BuildingBlock: QUQFOY_clean_sbu_1, # of connection points: 4
#     Node 26, Type 0, BuildingBlock: QUQFOY_clean_sbu_1, # of connection points: 4
#     Node 27, Type 0, BuildingBlock: QUQFOY_clean_sbu_1, # of connection points: 4
#     Node 28, Type 0, BuildingBlock: QUQFOY_clean_sbu_1, # of connection points: 4
#     Node 29, Type 0, BuildingBlock: QUQFOY_clean_sbu_1, # of connection points: 4
#     Node 30, Type 0, BuildingBlock: QUQFOY_clean_sbu_1, # of connection points: 4
#     Node 31, Type 0, BuildingBlock: QUQFOY_clean_sbu_1, # of connection points: 4
#     Node 32, Type 0, BuildingBlock: QUQFOY_clean_sbu_1, # of connection points: 4
#     Node 33, Type 0, BuildingBlock: QUQFOY_clean_sbu_1, # of connection points: 4
#     Node 34, Type 0, BuildingBlock: QUQFOY_clean_sbu_1, # of connection points: 4
#     Node 35, Type 0, BuildingBlock: QUQFOY_clean_sbu_1, # of connection points: 4
#     Node 36, Type 0, BuildingBlock: QUQFOY_clean_sbu_1, # of connection points: 4
#     Node 37, Type 0, BuildingBlock: QUQFOY_clean_sbu_1, # of connection points: 4
#     Node 38, Type 0, BuildingBlock: QUQFOY_clean_sbu_1, # of connection points: 4
#     Node 39, Type 0, BuildingBlock: QUQFOY_clean_sbu_1, # of connection points: 4
#     Node 40, Type 0, BuildingBlock: QUQFOY_clean_sbu_1, # of connection points: 4
#     Node 41, Type 0, BuildingBlock: QUQFOY_clean_sbu_1, # of connection points: 4
#     Node 42, Type 0, BuildingBlock: QUQFOY_clean_sbu_1, # of connection points: 4
#     Node 43, Type 0, BuildingBlock: QUQFOY_clean_sbu_1, # of connection points: 4
#     Node 44, Type 0, BuildingBlock: QUQFOY_clean_sbu_1, # of connection points: 4
#     Node 45, Type 0, BuildingBlock: QUQFOY_clean_sbu_1, # of connection points: 4
#     Node 46, Type 0, BuildingBlock: QUQFOY_clean_sbu_1, # of connection points: 4
#     Node 47, Type 0, BuildingBlock: QUQFOY_clean_sbu_1, # of connection points: 4
#     Edge 48, Type (0, 0), BuildingBlock: KIFKEQ_clean_linker_1, # of connection points: 2
#     Edge 49, Type (0, 0), BuildingBlock: KIFKEQ_clean_linker_1, # of connection points: 2
#     Edge 50, Type (0, 0), BuildingBlock: KIFKEQ_clean_linker_1, # of connection points: 2
#     Edge 51, Type (0, 0), BuildingBlock: KIFKEQ_clean_linker_1, # of connection points: 2
#     Edge 52, Type (0, 0), BuildingBlock: KIFKEQ_clean_linker_1, # of connection points: 2
#     Edge 53, Type (0, 0), BuildingBlock: KIFKEQ_clean_linker_1, # of connection points: 2
#     Edge 54, Type (0, 0), BuildingBlock: KIFKEQ_clean_linker_1, # of connection points: 2
#     Edge 55, Type (0, 0), BuildingBlock: KIFKEQ_clean_linker_1, # of connection points: 2
#     Edge 56, Type (0, 0), BuildingBlock: KIFKEQ_clean_linker_1, # of connection points: 2
#     Edge 57, Type (0, 0), BuildingBlock: KIFKEQ_clean_linker_1, # of connection points: 2
#     Edge 58, Type (0, 0), BuildingBlock: KIFKEQ_clean_linker_1, # of connection points: 2
#     Edge 59, Type (0, 0), BuildingBlock: KIFKEQ_clean_linker_1, # of connection points: 2
#     Edge 60, Type (0, 0), BuildingBlock: KIFKEQ_clean_linker_1, # of connection points: 2
#     Edge 61, Type (0, 0), BuildingBlock: KIFKEQ_clean_linker_1, # of connection points: 2
#     Edge 62, Type (0, 0), BuildingBlock: KIFKEQ_clean_linker_1, # of connection points: 2
#     Edge 63, Type (0, 0), BuildingBlock: KIFKEQ_clean_linker_1, # of connection points: 2
#     Edge 64, Type (0, 0), BuildingBlock: KIFKEQ_clean_linker_1, # of connection points: 2
#     Edge 65, Type (0, 0), BuildingBlock: KIFKEQ_clean_linker_1, # of connection points: 2
#     Edge 66, Type (0, 0), BuildingBlock: KIFKEQ_clean_linker_1, # of connection points: 2
#     Edge 67, Type (0, 0), BuildingBlock: KIFKEQ_clean_linker_1, # of connection points: 2
#     Edge 68, Type (0, 0), BuildingBlock: KIFKEQ_clean_linker_1, # of connection points: 2
#     Edge 69, Type (0, 0), BuildingBlock: KIFKEQ_clean_linker_1, # of connection points: 2
#     Edge 70, Type (0, 0), BuildingBlock: KIFKEQ_clean_linker_1, # of connection points: 2
#     Edge 71, Type (0, 0), BuildingBlock: KIFKEQ_clean_linker_1, # of connection points: 2
#     Edge 72, Type (0, 0), BuildingBlock: KIFKEQ_clean_linker_1, # of connection points: 2
#     Edge 73, Type (0, 0), BuildingBlock: KIFKEQ_clean_linker_1, # of connection points: 2
#     Edge 74, Type (0, 0), BuildingBlock: KIFKEQ_clean_linker_1, # of connection points: 2
#     Edge 75, Type (0, 0), BuildingBlock: KIFKEQ_clean_linker_1, # of connection points: 2
#     Edge 76, Type (0, 0), BuildingBlock: KIFKEQ_clean_linker_1, # of connection points: 2
#     Edge 77, Type (0, 0), BuildingBlock: KIFKEQ_clean_linker_1, # of connection points: 2
#     Edge 78, Type (0, 0), BuildingBlock: KIFKEQ_clean_linker_1, # of connection points: 2
#     Edge 79, Type (0, 0), BuildingBlock: KIFKEQ_clean_linker_1, # of connection points: 2
#     Edge 80, Type (0, 0), BuildingBlock: KIFKEQ_clean_linker_1, # of connection points: 2
#     Edge 81, Type (0, 0), BuildingBlock: KIFKEQ_clean_linker_1, # of connection points: 2
#     Edge 82, Type (0, 0), BuildingBlock: KIFKEQ_clean_linker_1, # of connection points: 2
#     Edge 83, Type (0, 0), BuildingBlock: KIFKEQ_clean_linker_1, # of connection points: 2
#     Edge 84, Type (0, 0), BuildingBlock: KIFKEQ_clean_linker_1, # of connection points: 2
#     Edge 85, Type (0, 0), BuildingBlock: KIFKEQ_clean_linker_1, # of connection points: 2
#     Edge 86, Type (0, 0), BuildingBlock: KIFKEQ_clean_linker_1, # of connection points: 2
#     Edge 87, Type (0, 0), BuildingBlock: KIFKEQ_clean_linker_1, # of connection points: 2
#     Edge 88, Type (0, 0), BuildingBlock: KIFKEQ_clean_linker_1, # of connection points: 2
#     Edge 89, Type (0, 0), BuildingBlock: KIFKEQ_clean_linker_1, # of connection points: 2
#     Edge 90, Type (0, 0), BuildingBlock: KIFKEQ_clean_linker_1, # of connection points: 2
#     Edge 91, Type (0, 0), BuildingBlock: KIFKEQ_clean_linker_1, # of connection points: 2
#     Edge 92, Type (0, 0), BuildingBlock: KIFKEQ_clean_linker_1, # of connection points: 2
#     Edge 93, Type (0, 0), BuildingBlock: KIFKEQ_clean_linker_1, # of connection points: 2
#     Edge 94, Type (0, 0), BuildingBlock: KIFKEQ_clean_linker_1, # of connection points: 2
#     Edge 95, Type (0, 0), BuildingBlock: KIFKEQ_clean_linker_1, # of connection points: 2
#     Edge 96, Type (0, 0), BuildingBlock: KIFKEQ_clean_linker_1, # of connection points: 2
#     Edge 97, Type (0, 0), BuildingBlock: KIFKEQ_clean_linker_1, # of connection points: 2
#     Edge 98, Type (0, 0), BuildingBlock: KIFKEQ_clean_linker_1, # of connection points: 2
#     Edge 99, Type (0, 0), BuildingBlock: KIFKEQ_clean_linker_1, # of connection points: 2
#     Edge 100, Type (0, 0), BuildingBlock: KIFKEQ_clean_linker_1, # of connection points: 2
#     Edge 101, Type (0, 0), BuildingBlock: KIFKEQ_clean_linker_1, # of connection points: 2
#     Edge 102, Type (0, 0), BuildingBlock: KIFKEQ_clean_linker_1, # of connection points: 2
#     Edge 103, Type (0, 0), BuildingBlock: KIFKEQ_clean_linker_1, # of connection points: 2
#     Edge 104, Type (0, 0), BuildingBlock: KIFKEQ_clean_linker_1, # of connection points: 2
#     Edge 105, Type (0, 0), BuildingBlock: KIFKEQ_clean_linker_1, # of connection points: 2
#     Edge 106, Type (0, 0), BuildingBlock: KIFKEQ_clean_linker_1, # of connection points: 2
#     Edge 107, Type (0, 0), BuildingBlock: KIFKEQ_clean_linker_1, # of connection points: 2
#     Edge 108, Type (0, 0), BuildingBlock: KIFKEQ_clean_linker_1, # of connection points: 2
#     Edge 109, Type (0, 0), BuildingBlock: KIFKEQ_clean_linker_1, # of connection points: 2
#     Edge 110, Type (0, 0), BuildingBlock: KIFKEQ_clean_linker_1, # of connection points: 2
#     Edge 111, Type (0, 0), BuildingBlock: KIFKEQ_clean_linker_1, # of connection points: 2
#     Edge 112, Type (0, 0), BuildingBlock: KIFKEQ_clean_linker_1, # of connection points: 2
#     Edge 113, Type (0, 0), BuildingBlock: KIFKEQ_clean_linker_1, # of connection points: 2
#     Edge 114, Type (0, 0), BuildingBlock: KIFKEQ_clean_linker_1, # of connection points: 2
#     Edge 115, Type (0, 0), BuildingBlock: KIFKEQ_clean_linker_1, # of connection points: 2
#     Edge 116, Type (0, 0), BuildingBlock: KIFKEQ_clean_linker_1, # of connection points: 2
#     Edge 117, Type (0, 0), BuildingBlock: KIFKEQ_clean_linker_1, # of connection points: 2
#     Edge 118, Type (0, 0), BuildingBlock: KIFKEQ_clean_linker_1, # of connection points: 2
#     Edge 119, Type (0, 0), BuildingBlock: KIFKEQ_clean_linker_1, # of connection points: 2
#     Edge 120, Type (0, 0), BuildingBlock: KIFKEQ_clean_linker_1, # of connection points: 2
#     Edge 121, Type (0, 0), BuildingBlock: KIFKEQ_clean_linker_1, # of connection points: 2
#     Edge 122, Type (0, 0), BuildingBlock: KIFKEQ_clean_linker_1, # of connection points: 2
#     Edge 123, Type (0, 0), BuildingBlock: KIFKEQ_clean_linker_1, # of connection points: 2
#     Edge 124, Type (0, 0), BuildingBlock: KIFKEQ_clean_linker_1, # of connection points: 2
#     Edge 125, Type (0, 0), BuildingBlock: KIFKEQ_clean_linker_1, # of connection points: 2
#     Edge 126, Type (0, 0), BuildingBlock: KIFKEQ_clean_linker_1, # of connection points: 2
#     Edge 127, Type (0, 0), BuildingBlock: KIFKEQ_clean_linker_1, # of connection points: 2
#     Edge 128, Type (0, 0), BuildingBlock: KIFKEQ_clean_linker_1, # of connection points: 2
#     Edge 129, Type (0, 0), BuildingBlock: KIFKEQ_clean_linker_1, # of connection points: 2
#     Edge 130, Type (0, 0), BuildingBlock: KIFKEQ_clean_linker_1, # of connection points: 2
#     Edge 131, Type (0, 0), BuildingBlock: KIFKEQ_clean_linker_1, # of connection points: 2
#     Edge 132, Type (0, 0), BuildingBlock: KIFKEQ_clean_linker_1, # of connection points: 2
#     Edge 133, Type (0, 0), BuildingBlock: KIFKEQ_clean_linker_1, # of connection points: 2
#     Edge 134, Type (0, 0), BuildingBlock: KIFKEQ_clean_linker_1, # of connection points: 2
#     Edge 135, Type (0, 0), BuildingBlock: KIFKEQ_clean_linker_1, # of connection points: 2
#     Edge 136, Type (0, 0), BuildingBlock: KIFKEQ_clean_linker_1, # of connection points: 2
#     Edge 137, Type (0, 0), BuildingBlock: KIFKEQ_clean_linker_1, # of connection points: 2
#     Edge 138, Type (0, 0), BuildingBlock: KIFKEQ_clean_linker_1, # of connection points: 2
#     Edge 139, Type (0, 0), BuildingBlock: KIFKEQ_clean_linker_1, # of connection points: 2
#     Edge 140, Type (0, 0), BuildingBlock: KIFKEQ_clean_linker_1, # of connection points: 2
#     Edge 141, Type (0, 0), BuildingBlock: KIFKEQ_clean_linker_1, # of connection points: 2
#     Edge 142, Type (0, 0), BuildingBlock: KIFKEQ_clean_linker_1, # of connection points: 2
#     Edge 143, Type (0, 0), BuildingBlock: KIFKEQ_clean_linker_1, # of connection points: 2
# Relax obj value: 0.068
# Max RMSD: 0.232
# Mean RMSD: 0.232
data_MOF--net-ukp--node1-QUQFOY_clean_sbu_1--edge1-KIFKEQ_clean_linker_1
_symmetry_space_group_name_H-M    P1
_symmetry_Int_Tables_number       1
_symmetry_cell_setting            triclinic
loop_
_symmetry_equiv_pos_as_xyz
'x, y, z'
_cell_length_a     64.557846
_cell_length_b     64.577924
_cell_length_c     64.570059
_cell_angle_alpha  89.972878
_cell_angle_beta   89.979732
_cell_angle_gamma 90.070233
loop_
_atom_site_label
_atom_site_type_symbol
_atom_site_fract_x
_atom_site_fract_y
_atom_site_fract_z
_atom_type_partial_charge
O0 O 0.22487 0.24503 0.37969 0.0
Cd1 Cd 0.19713 0.26033 0.38345 0.0
Cd2 Cd 0.22352 0.29014 0.39969 0.0
O3 O 0.24559 0.26726 0.3954 0.0
O4 O 0.17581 0.23795 0.38459 0.0
O5 O 0.18216 0.25902 0.41089 0.0
C6 C 0.17226 0.24323 0.40354 0.0
C7 C 0.22606 0.31489 0.42602 0.0
C8 C 0.24284 0.25024 0.38582 0.0
C9 C 0.19945 0.29927 0.35967 0.0
O10 O 0.2126 0.30427 0.37339 0.0
O11 O 0.19022 0.28187 0.36052 0.0
O12 O 0.23921 0.31417 0.41108 0.0
O13 O 0.21242 0.30029 0.42719 0.0
O14 O 0.00738 0.97312 0.62613 0.0
Cd15 Cd 0.99039 0.94691 0.63299 0.0
Cd16 Cd 0.96409 0.97497 0.64967 0.0
O17 O 0.98825 0.99534 0.64368 0.0
O18 O 0.01021 0.92329 0.63546 0.0
O19 O 0.992 0.9353 0.66191 0.0
C20 C 0.00589 0.92264 0.65499 0.0
C21 C 0.94234 0.97677 0.67857 0.0
C22 C 0.00401 0.99146 0.63245 0.0
C23 C 0.95024 0.95105 0.61149 0.0
O24 O 0.94723 0.96549 0.62446 0.0
O25 O 0.96668 0.94023 0.61223 0.0
O26 O 0.94259 0.99121 0.66481 0.0
O27 O 0.95598 0.96223 0.677 0.0
O28 O 0.27832 0.76331 0.87757 0.0
Cd29 Cd 0.30501 0.74659 0.88302 0.0
Cd30 Cd 0.27758 0.71923 0.9002 0.0
O31 O 0.25687 0.74324 0.89514 0.0
O32 O 0.32853 0.76669 0.88448 0.0
O33 O 0.31814 0.74808 0.91133 0.0
C34 C 0.33032 0.76215 0.90388 0.0
C35 C 0.27539 0.69642 0.9283 0.0
C36 C 0.26021 0.75939 0.88428 0.0
C37 C 0.3007 0.70666 0.861 0.0
O38 O 0.28683 0.70308 0.87447 0.0
O39 O 0.31116 0.72336 0.86158 0.0
O40 O 0.2611 0.69726 0.91443 0.0
O41 O 0.29007 0.71 0.92733 0.0
O42 O 0.4979 0.03952 0.11405 0.0
Cd43 Cd 0.50453 0.0709 0.11786 0.0
Cd44 Cd 0.54989 0.04171 0.12746 0.0
O45 O 0.52659 0.02072 0.11981 0.0
O46 O 0.47966 0.08809 0.12403 0.0
O47 O 0.50459 0.08187 0.14687 0.0
C48 C 0.48696 0.09037 0.14256 0.0
C49 C 0.58002 0.03436 0.14543 0.0
C50 C 0.50741 0.02215 0.11491 0.0
C51 C 0.54281 0.07774 0.10159 0.0
O52 O 0.54455 0.07177 0.1202 0.0
O53 O 0.5248 0.08306 0.09605 0.0
O54 O 0.57929 0.03246 0.12549 0.0
O55 O 0.56314 0.03912 0.15515 0.0
O56 O 0.22379 0.76325 0.12787 0.0
Cd57 Cd 0.1973 0.7464 0.1218 0.0
Cd58 Cd 0.22503 0.71931 0.10535 0.0
O59 O 0.24561 0.74344 0.11057 0.0
O60 O 0.1739 0.76646 0.11934 0.0
O61 O 0.18518 0.74758 0.09306 0.0
C62 C 0.17283 0.76177 0.09992 0.0
C63 C 0.22717 0.69667 0.07716 0.0
C64 C 0.24201 0.75953 0.12141 0.0
C65 C 0.2012 0.7066 0.14408 0.0
O66 O 0.21544 0.70314 0.131 0.0
O67 O 0.19061 0.72319 0.14315 0.0
O68 O 0.24145 0.69739 0.09106 0.0
O69 O 0.21255 0.71029 0.07817 0.0
O70 O 0.49507 0.97155 0.37998 0.0
Cd71 Cd 0.51233 0.94538 0.37387 0.0
Cd72 Cd 0.53877 0.97336 0.35725 0.0
O73 O 0.51429 0.99351 0.36214 0.0
O74 O 0.4926 0.92163 0.37148 0.0
O75 O 0.51103 0.93342 0.34507 0.0
C76 C 0.49704 0.92082 0.35198 0.0
C77 C 0.56094 0.97506 0.32869 0.0
C78 C 0.49836 0.98974 0.37317 0.0
C79 C 0.55215 0.95026 0.39604 0.0
O80 O 0.55525 0.96462 0.38298 0.0
O81 O 0.53586 0.93918 0.39504 0.0
O82 O 0.56029 0.98969 0.34222 0.0
O83 O 0.54751 0.96029 0.3303 0.0
O84 O 0.28431 0.24394 0.62811 0.0
Cd85 Cd 0.31068 0.26087 0.62187 0.0
Cd86 Cd 0.28295 0.2874 0.60481 0.0
O87 O 0.26252 0.26316 0.61012 0.0
O88 O 0.33424 0.24097 0.61984 0.0
O89 O 0.32285 0.25927 0.59318 0.0
C90 C 0.33528 0.24529 0.60033 0.0
C91 C 0.28109 0.30975 0.57638 0.0
C92 C 0.26613 0.24734 0.62134 0.0
C93 C 0.30629 0.30086 0.64352 0.0
O94 O 0.29206 0.30396 0.63034 0.0
O95 O 0.31712 0.28442 0.64285 0.0
O96 O 0.26656 0.30901 0.59003 0.0
O97 O 0.29579 0.29626 0.57773 0.0
O98 O 0.00915 0.02237 0.86557 0.0
Cd99 Cd 0.99318 0.04944 0.85999 0.0
Cd100 Cd 0.96486 0.02158 0.84401 0.0
O101 O 0.9883 1.00039 0.8497 0.0
O102 O 0.01501 0.07133 0.8599 0.0
O103 O 0.99576 0.06411 0.83246 0.0
C104 C 0.01075 0.07457 0.84065 0.0
C105 C 0.94195 0.01908 0.81602 0.0
C106 C 0.00478 0.00402 0.85993 0.0
C107 C 0.95339 0.04648 0.88258 0.0
O108 O 0.94932 0.03234 0.86955 0.0
O109 O 0.97035 0.05649 0.88155 0.0
O110 O 0.94231 0.00532 0.83044 0.0
O111 O 0.95597 0.03337 0.81646 0.0
O112 O 0.37497 0.22153 0.24577 0.0
Cd113 Cd 0.38141 0.19555 0.26309 0.0
Cd114 Cd 0.39987 0.22374 0.28798 0.0
O115 O 0.39476 0.2434 0.26309 0.0
O116 O 0.38181 0.17163 0.24355 0.0
O117 O 0.40975 0.18308 0.25984 0.0
C118 C 0.40158 0.1706 0.24647 0.0
C119 C 0.429 0.22456 0.30941 0.0
C120 C 0.38266 0.23952 0.24798 0.0
C121 C 0.36122 0.20178 0.30358 0.0
O122 O 0.37444 0.21621 0.30547 0.0
O123 O 0.36151 0.19 0.28779 0.0
O124 O 0.41618 0.23982 0.30872 0.0
O125 O 0.42645 0.20969 0.29626 0.0
O126 O 0.02667 0.12723 0.49229 0.0
Cd127 Cd 0.05404 0.13174 0.5081 0.0
Cd128 Cd 0.02799 0.14901 0.5364 0.0
O129 O 0.00617 0.14467 0.51332 0.0
O130 O 0.07607 0.13331 0.48648 0.0
O131 O 0.06814 0.15961 0.50703 0.0
C132 C 0.07883 0.15242 0.4917 0.0
C133 C 0.02717 0.17714 0.55916 0.0
C134 C 0.00882 0.13412 0.49687 0.0
C135 C 0.05085 0.1092 0.54775 0.0
O136 O 0.0375 0.12298 0.55199 0.0
O137 O 0.06061 0.10966 0.53062 0.0
O138 O 0.0127 0.16342 0.55902 0.0
O139 O 0.0413 0.17593 0.54503 0.0
O140 O 0.12341 0.78266 0.74623 0.0
Cd141 Cd 0.1176 0.80914 0.76309 0.0
Cd142 Cd 0.10118 0.78123 0.79051 0.0
O143 O 0.10631 0.76083 0.76627 0.0
O144 O 0.11567 0.83249 0.74289 0.0
O145 O 0.08904 0.82165 0.76158 0.0
C146 C 0.09622 0.83382 0.74736 0.0
C147 C 0.07322 0.77808 0.81341 0.0
C148 C 0.11695 0.76445 0.75005 0.0
C149 C 0.14005 0.80517 0.80282 0.0
O150 O 0.1269 0.79101 0.80647 0.0
O151 O 0.1391 0.81568 0.78618 0.0
O152 O 0.0875 0.76422 0.81244 0.0
O153 O 0.07378 0.79292 0.79999 0.0
O154 O 0.4788 0.87539 0.98965 0.0
Cd155 Cd 0.452 0.87093 0.00653 0.0
Cd156 Cd 0.47881 0.85402 0.03381 0.0
O157 O 0.49978 0.85736 0.00972 0.0
O158 O 0.42846 0.86959 0.98647 0.0
O159 O 0.4381 0.84296 0.00577 0.0
C160 C 0.42616 0.85035 0.99149 0.0
C161 C 0.47854 0.82642 0.05731 0.0
C162 C 0.49673 0.86822 0.99353 0.0
C163 C 0.45792 0.89464 0.04516 0.0
O164 O 0.47149 0.88094 0.04889 0.0
O165 O 0.44669 0.89339 0.02901 0.0
O166 O 0.4939 0.83913 0.05632 0.0
O167 O 0.46413 0.82819 0.04354 0.0
O168 O 0.37732 0.78256 0.25971 0.0
Cd169 Cd 0.38362 0.80925 0.2433 0.0
Cd170 Cd 0.39965 0.78164 0.21564 0.0
O171 O 0.39426 0.76079 0.23953 0.0
O172 O 0.38599 0.83227 0.26384 0.0
O173 O 0.41241 0.82132 0.24496 0.0
C174 C 0.40546 0.83338 0.25936 0.0
C175 C 0.42755 0.77949 0.19259 0.0
C176 C 0.38352 0.76431 0.25571 0.0
C177 C 0.36109 0.80602 0.20358 0.0
O178 O 0.37399 0.7917 0.19986 0.0
O179 O 0.36224 0.81643 0.22027 0.0
O180 O 0.41347 0.76537 0.1933 0.0
O181 O 0.42691 0.79391 0.20644 0.0
O182 O 0.47451 0.12489 0.51053 0.0
Cd183 Cd 0.44799 0.13124 0.49391 0.0
Cd184 Cd 0.47585 0.14689 0.46634 0.0
O185 O 0.49661 0.14131 0.49022 0.0
O186 O 0.42483 0.13378 0.51424 0.0
O187 O 0.43607 0.16004 0.49526 0.0
C188 C 0.42383 0.15321 0.50959 0.0
C189 C 0.47825 0.17487 0.44344 0.0
C190 C 0.49287 0.13079 0.5065 0.0
C191 C 0.45107 0.10857 0.45431 0.0
O192 O 0.4655 0.12137 0.45051 0.0
O193 O 0.44072 0.10979 0.47103 0.0
O194 O 0.49225 0.16069 0.44404 0.0
O195 O 0.46384 0.17427 0.45732 0.0
O196 O 0.12862 0.22389 0.7596 0.0
Cd197 Cd 0.12407 0.19693 0.74311 0.0
Cd198 Cd 0.10732 0.2236 0.71509 0.0
O199 O 0.1119 0.24496 0.73856 0.0
O200 O 0.12191 0.17436 0.7641 0.0
O201 O 0.09609 0.18303 0.74322 0.0
C202 C 0.10291 0.17183 0.75835 0.0
C203 C 0.07917 0.22535 0.69238 0.0
C204 C 0.12211 0.24191 0.75515 0.0
C205 C 0.14696 0.20045 0.70371 0.0
O206 O 0.13327 0.21387 0.69945 0.0
O207 O 0.14637 0.19061 0.72078 0.0
O208 O 0.09322 0.2395 0.6927 0.0
O209 O 0.08014 0.21096 0.70625 0.0
O210 O 0.03316 0.88059 0.00967 0.0
Cd211 Cd 0.0584 0.87248 0.99181 0.0
Cd212 Cd 0.02882 0.85439 0.96832 0.0
O213 O 0.00997 0.86148 0.99334 0.0
O214 O 0.08299 0.87076 0.01052 0.0
O215 O 0.06961 0.84351 0.99458 0.0
C216 C 0.08306 0.85099 0.0074 0.0
C217 C 0.02591 0.82469 0.94792 0.0
C218 C 0.01472 0.87384 0.00797 0.0
C219 C 0.05203 0.89148 0.95074 0.0
O220 O 0.03717 0.87866 0.9496 0.0
O221 O 0.06401 0.89151 0.96639 0.0
O222 O 0.01134 0.83828 0.94859 0.0
O223 O 0.04122 0.82683 0.96063 0.0
O224 O 0.24451 0.37302 0.22146 0.0
Cd225 Cd 0.26118 0.37932 0.19494 0.0
Cd226 Cd 0.28834 0.39526 0.22258 0.0
O227 O 0.26419 0.39046 0.24332 0.0
O228 O 0.24098 0.38224 0.17172 0.0
O229 O 0.26013 0.40824 0.18331 0.0
C230 C 0.2458 0.40165 0.17095 0.0
C231 C 0.31165 0.42295 0.22333 0.0
C232 C 0.24815 0.37952 0.23969 0.0
C233 C 0.30055 0.35662 0.19859 0.0
O234 O 0.304 0.36934 0.21314 0.0
O235 O 0.28413 0.35795 0.18779 0.0
O236 O 0.31086 0.40961 0.23815 0.0
O237 O 0.29758 0.42188 0.20914 0.0
O238 O 0.7467 0.12327 0.77707 0.0
Cd239 Cd 0.76479 0.11489 0.80217 0.0
Cd240 Cd 0.78867 0.09909 0.77099 0.0
O241 O 0.76383 0.10709 0.75228 0.0
O242 O 0.74595 0.11442 0.82683 0.0
O243 O 0.76127 0.08637 0.81467 0.0
C244 C 0.74869 0.09465 0.82786 0.0
C245 C 0.80874 0.06924 0.76795 0.0
C246 C 0.74868 0.1183 0.7581 0.0
C247 C 0.80581 0.13497 0.79612 0.0
O248 O 0.80719 0.12301 0.7806 0.0
O249 O 0.79013 0.1341 0.80806 0.0
O250 O 0.80858 0.08313 0.75361 0.0
O251 O 0.7957 0.07123 0.78302 0.0
O252 O 0.1276 0.49544 0.03337 0.0
Cd253 Cd 0.13402 0.51196 0.05991 0.0
Cd254 Cd 0.15064 0.53917 0.03224 0.0
O255 O 0.14508 0.5152 0.01159 0.0
O256 O 0.13603 0.4916 0.08308 0.0
O257 O 0.16274 0.51004 0.07197 0.0
C258 C 0.15556 0.49584 0.08415 0.0
C259 C 0.17891 0.56174 0.02978 0.0
C260 C 0.13407 0.4992 0.01515 0.0
C261 C 0.11219 0.55195 0.05647 0.0
O262 O 0.1252 0.55542 0.04215 0.0
O263 O 0.11301 0.53528 0.06694 0.0
O264 O 0.16483 0.56111 0.01569 0.0
O265 O 0.17803 0.54808 0.04439 0.0
O266 O 0.76093 0.87521 0.2828 0.0
Cd267 Cd 0.74371 0.88113 0.30903 0.0
Cd268 Cd 0.71699 0.8977 0.28132 0.0
O269 O 0.74125 0.89259 0.26092 0.0
O270 O 0.76333 0.88374 0.33273 0.0
O271 O 0.74449 0.90987 0.32103 0.0
C272 C 0.75849 0.90312 0.33366 0.0
C273 C 0.69474 0.92615 0.27935 0.0
C274 C 0.75736 0.88181 0.26459 0.0
C275 C 0.70393 0.85898 0.30489 0.0
O276 O 0.70055 0.87212 0.29068 0.0
O277 O 0.72051 0.85979 0.3155 0.0
O278 O 0.69529 0.91237 0.26496 0.0
O279 O 0.7083 0.92485 0.29401 0.0
O280 O 0.88112 0.01389 0.02448 0.0
Cd281 Cd 0.87682 1.00068 0.05316 0.0
Cd282 Cd 0.85945 0.96945 0.02878 0.0
O283 O 0.86398 0.99118 0.00551 0.0
O284 O 0.87667 0.02454 0.0728 0.0
O285 O 0.84948 0.00417 0.06787 0.0
C286 C 0.85749 0.02033 0.07659 0.0
C287 C 0.83227 0.94532 0.02767 0.0
C288 C 0.87437 0.0079 0.00701 0.0
C289 C 0.89924 0.96082 0.05333 0.0
O290 O 0.88551 0.95538 0.04035 0.0
O291 O 0.8988 0.97872 0.06154 0.0
O292 O 0.84681 0.94536 0.01404 0.0
O293 O 0.83214 0.96017 0.04107 0.0
O294 O 0.25617 0.63053 0.72451 0.0
Cd295 Cd 0.23926 0.62445 0.69812 0.0
Cd296 Cd 0.21252 0.60747 0.72578 0.0
O297 O 0.23664 0.61284 0.74634 0.0
O298 O 0.25924 0.62279 0.67458 0.0
O299 O 0.24101 0.59591 0.68564 0.0
C300 C 0.25498 0.60328 0.6733 0.0
C301 C 0.19043 0.57879 0.72728 0.0
C302 C 0.2526 0.62389 0.74271 0.0
C303 C 0.19926 0.64617 0.70237 0.0
O304 O 0.19598 0.63298 0.71657 0.0
O305 O 0.2158 0.64549 0.69168 0.0
O306 O 0.19082 0.59239 0.74185 0.0
O307 O 0.20409 0.58038 0.71273 0.0
O308 O 0.12093 0.51515 0.47219 0.0
Cd309 Cd 0.1265 0.49903 0.44518 0.0
Cd310 Cd 0.14278 0.47051 0.47224 0.0
O311 O 0.13725 0.49393 0.49347 0.0
O312 O 0.12955 0.51967 0.42231 0.0
O313 O 0.15531 0.49983 0.43311 0.0
C314 C 0.14885 0.51452 0.42112 0.0
C315 C 0.1699 0.44682 0.47619 0.0
C316 C 0.127 0.51048 0.49034 0.0
C317 C 0.1038 0.45937 0.44756 0.0
O318 O 0.11723 0.45507 0.46123 0.0
O319 O 0.10452 0.47656 0.43794 0.0
O320 O 0.15462 0.44744 0.48896 0.0
O321 O 0.17087 0.46099 0.4621 0.0
O322 O 0.37427 0.496 0.96941 0.0
Cd323 Cd 0.3678 0.51429 0.94407 0.0
Cd324 Cd 0.35142 0.5392 0.97353 0.0
O325 O 0.35669 0.51389 0.99262 0.0
O326 O 0.36626 0.49537 0.91971 0.0
O327 O 0.33919 0.51261 0.93173 0.0
C328 C 0.34667 0.49926 0.91881 0.0
C329 C 0.32284 0.56122 0.97567 0.0
C330 C 0.36775 0.49827 0.98784 0.0
C331 C 0.38974 0.55391 0.95038 0.0
O332 O 0.37699 0.55614 0.96517 0.0
O333 O 0.38863 0.53822 0.93853 0.0
O334 O 0.33622 0.56011 0.99043 0.0
O335 O 0.32452 0.5482 0.96057 0.0
O336 O 0.73028 0.74617 0.88694 0.0
Cd337 Cd 0.70259 0.76136 0.89143 0.0
Cd338 Cd 0.72893 0.79102 0.90753 0.0
O339 O 0.75104 0.76823 0.9028 0.0
O340 O 0.68133 0.73893 0.89168 0.0
O341 O 0.68746 0.75911 0.91872 0.0
C342 C 0.67758 0.74361 0.91074 0.0
C343 C 0.73041 0.81458 0.93507 0.0
C344 C 0.7483 0.75137 0.89293 0.0
C345 C 0.70458 0.80072 0.8681 0.0
O346 O 0.7181 0.80567 0.88148 0.0
O347 O 0.69533 0.78334 0.86911 0.0
O348 O 0.74433 0.81433 0.92079 0.0
O349 O 0.7165 0.80018 0.93473 0.0
O350 O 0.51138 0.46287 0.11387 0.0
Cd351 Cd 0.4947 0.43614 0.11907 0.0
Cd352 Cd 0.46843 0.46304 0.13919 0.0
O353 O 0.49281 0.48338 0.134 0.0
O354 O 0.51424 0.41213 0.11925 0.0
O355 O 0.49743 0.42298 0.14713 0.0
C356 C 0.5108 0.41053 0.13889 0.0
C357 C 0.44651 0.46517 0.16807 0.0
C358 C 0.50823 0.48053 0.122 0.0
C359 C 0.45364 0.44179 0.09962 0.0
O360 O 0.45104 0.45511 0.11382 0.0
O361 O 0.47014 0.43107 0.09887 0.0
O362 O 0.44741 0.47976 0.15452 0.0
O363 O 0.45956 0.45012 0.16632 0.0
O364 O 0.77358 0.25847 0.37557 0.0
Cd365 Cd 0.80076 0.24367 0.38381 0.0
Cd366 Cd 0.77306 0.21451 0.39756 0.0
O367 O 0.75132 0.23689 0.39007 0.0
O368 O 0.82269 0.26553 0.38582 0.0
O369 O 0.81244 0.24695 0.4127 0.0
C370 C 0.82402 0.26158 0.40537 0.0
C371 C 0.76999 0.19194 0.42573 0.0
C372 C 0.75501 0.2533 0.37974 0.0
C373 C 0.80095 0.20373 0.36113 0.0
O374 O 0.78591 0.19913 0.37293 0.0
O375 O 0.81032 0.22097 0.36309 0.0
O376 O 0.75701 0.19154 0.41061 0.0
O377 O 0.78369 0.20655 0.42583 0.0
O378 O 0.98988 0.53205 0.62774 0.0
Cd379 Cd 0.00689 0.55837 0.63408 0.0
Cd380 Cd 0.03407 0.53049 0.64966 0.0
O381 O 0.01 0.50987 0.64421 0.0
O382 O 0.98702 0.58182 0.63732 0.0
O383 O 0.00631 0.56995 0.66304 0.0
C384 C 0.99211 0.58253 0.65665 0.0
C385 C 0.05668 0.52854 0.67788 0.0
C386 C 0.99374 0.51368 0.63368 0.0
C387 C 0.04638 0.55492 0.61125 0.0
O388 O 0.05005 0.54049 0.62406 0.0
O389 O 0.02978 0.56543 0.61253 0.0
O390 O 0.05619 0.5143 0.66394 0.0
O391 O 0.04285 0.54296 0.6769 0.0
O392 O 0.71727 0.25904 0.6478 0.0
Cd393 Cd 0.68579 0.25304 0.64384 0.0
Cd394 Cd 0.71548 0.20812 0.63092 0.0
O395 O 0.73635 0.23115 0.63953 0.0
O396 O 0.66899 0.27864 0.64011 0.0
O397 O 0.6748 0.25583 0.61504 0.0
C398 C 0.66667 0.27316 0.62097 0.0
C399 C 0.72315 0.17902 0.61141 0.0
C400 C 0.73474 0.24988 0.64587 0.0
C401 C 0.67927 0.21363 0.6571 0.0
O402 O 0.68546 0.21332 0.63849 0.0
O403 O 0.67345 0.23108 0.6638 0.0
O404 O 0.725 0.17874 0.63137 0.0
O405 O 0.71807 0.19628 0.60258 0.0
O406 O 0.99524 0.47649 0.87851 0.0
Cd407 Cd 0.01143 0.44936 0.87388 0.0
Cd408 Cd 0.0396 0.47606 0.85675 0.0
O409 O 0.01631 0.49755 0.86173 0.0
O410 O 0.99016 0.42693 0.87283 0.0
O411 O 0.01034 0.43486 0.84622 0.0
C412 C 0.99533 0.42391 0.85375 0.0
C413 C 0.06216 0.47775 0.82841 0.0
C414 C 0.99979 0.49454 0.87209 0.0
C415 C 0.05119 0.45278 0.89627 0.0
O416 O 0.0554 0.46617 0.88251 0.0
O417 O 0.03405 0.44304 0.89588 0.0
O418 O 0.062 0.49188 0.84246 0.0
O419 O 0.04819 0.46344 0.82947 0.0
O420 O 0.78245 0.74473 0.12867 0.0
Cd421 Cd 0.80922 0.76129 0.12304 0.0
Cd422 Cd 0.78216 0.78879 0.10648 0.0
O423 O 0.76104 0.76504 0.11144 0.0
O424 O 0.83245 0.741 0.12095 0.0
O425 O 0.82184 0.76008 0.09452 0.0
C426 C 0.83394 0.74577 0.10157 0.0
C427 C 0.78146 0.81132 0.07812 0.0
C428 C 0.76432 0.7488 0.12217 0.0
C429 C 0.80555 0.80094 0.14554 0.0
O430 O 0.79154 0.80473 0.1323 0.0
O431 O 0.8159 0.78421 0.14463 0.0
O432 O 0.76674 0.81106 0.09159 0.0
O433 O 0.79566 0.79732 0.07963 0.0
O434 O 0.5088 0.53455 0.38001 0.0
Cd435 Cd 0.49175 0.56063 0.37308 0.0
Cd436 Cd 0.46528 0.53204 0.3573 0.0
O437 O 0.48953 0.51183 0.36322 0.0
O438 O 0.51179 0.58411 0.3707 0.0
O439 O 0.49364 0.57226 0.34415 0.0
C440 C 0.50766 0.58476 0.35114 0.0
C441 C 0.44298 0.52982 0.32888 0.0
C442 C 0.50544 0.51607 0.3741 0.0
C443 C 0.45192 0.55652 0.39527 0.0
O444 O 0.44884 0.54179 0.38265 0.0
O445 O 0.46825 0.56752 0.39404 0.0
O446 O 0.44354 0.51553 0.34279 0.0
O447 O 0.45665 0.54442 0.32998 0.0
O448 O 0.87964 0.72445 0.74964 0.0
Cd449 Cd 0.88627 0.69873 0.76738 0.0
Cd450 Cd 0.90436 0.72752 0.79204 0.0
O451 O 0.89852 0.74694 0.76717 0.0
O452 O 0.88698 0.67446 0.74824 0.0
O453 O 0.91467 0.68607 0.7648 0.0
C454 C 0.90667 0.6733 0.7516 0.0
C455 C 0.93365 0.72958 0.81317 0.0
C456 C 0.88671 0.74269 0.75195 0.0
C457 C 0.86605 0.70508 0.80794 0.0
O458 O 0.87929 0.71949 0.80985 0.0
O459 O 0.86623 0.69341 0.79207 0.0
O460 O 0.92029 0.74436 0.81246 0.0
O461 O 0.93148 0.71447 0.80023 0.0
O462 O 0.52845 0.62661 0.99284 0.0
Cd463 Cd 0.55586 0.63014 0.0088 0.0
Cd464 Cd 0.5299 0.64527 0.03859 0.0
O465 O 0.5079 0.64182 0.01549 0.0
O466 O 0.57776 0.63254 0.98715 0.0
O467 O 0.5704 0.6578 0.00916 0.0
C468 C 0.58091 0.65126 0.99342 0.0
C469 C 0.52853 0.67237 0.06261 0.0
C470 C 0.51053 0.6327 0.99821 0.0
C471 C 0.55337 0.6051 0.04704 0.0
O472 O 0.54015 0.61857 0.05254 0.0
O473 O 0.56262 0.60665 0.02971 0.0
O474 O 0.51452 0.65818 0.06207 0.0
O475 O 0.54259 0.67211 0.04837 0.0
O476 O 0.61201 0.27153 0.2611 0.0
Cd477 Cd 0.62464 0.29721 0.24666 0.0
Cd478 Cd 0.61316 0.27129 0.30284 0.0
O479 O 0.61424 0.24607 0.2827 0.0
O480 O 0.61809 0.30721 0.2177 0.0
O481 O 0.60154 0.31788 0.24567 0.0
C482 C 0.60368 0.31845 0.22583 0.0
C483 C 0.597 0.27221 0.33479 0.0
C484 C 0.61677 0.25268 0.26426 0.0
C485 C 0.64273 0.30348 0.28494 0.0
O486 O 0.62408 0.29788 0.28814 0.0
O487 O 0.64748 0.30862 0.26645 0.0
O488 O 0.61637 0.26724 0.33328 0.0
O489 O 0.58677 0.27591 0.31794 0.0
O490 O 0.96705 0.38197 0.49139 0.0
Cd491 Cd 0.94084 0.37542 0.50859 0.0
Cd492 Cd 0.96927 0.35858 0.53498 0.0
O493 O 0.98937 0.36459 0.51059 0.0
O494 O 0.91691 0.37326 0.48901 0.0
O495 O 0.92866 0.34666 0.50711 0.0
C496 C 0.91591 0.35376 0.49339 0.0
C497 C 0.97215 0.3301 0.55725 0.0
C498 C 0.98542 0.3757 0.49476 0.0
C499 C 0.94553 0.39694 0.54877 0.0
O500 O 0.95983 0.38382 0.55175 0.0
O501 O 0.93464 0.39632 0.53235 0.0
O502 O 0.98628 0.34416 0.55641 0.0
O503 O 0.95726 0.33111 0.54393 0.0
O504 O 0.88792 0.27047 0.76452 0.0
Cd505 Cd 0.8907 0.29881 0.75002 0.0
Cd506 Cd 0.90586 0.27414 0.71892 0.0
O507 O 0.90345 0.25103 0.74109 0.0
O508 O 0.89189 0.3195 0.77295 0.0
O509 O 0.91757 0.31486 0.75069 0.0
C510 C 0.9104 0.32411 0.76694 0.0
C511 C 0.9316 0.27499 0.69332 0.0
C512 C 0.89417 0.25284 0.75841 0.0
C513 C 0.8646 0.2964 0.71261 0.0
O514 O 0.87822 0.28361 0.70655 0.0
O515 O 0.86659 0.30567 0.72989 0.0
O516 O 0.91818 0.26027 0.69418 0.0
O517 O 0.93162 0.28838 0.70818 0.0
O518 O 0.97642 0.62891 0.0126 0.0
Cd519 Cd 0.95027 0.6352 0.99536 0.0
Cd520 Cd 0.97854 0.6522 0.96902 0.0
O521 O 0.99859 0.64657 0.99344 0.0
O522 O 0.92646 0.63693 0.01503 0.0
O523 O 0.93794 0.6638 0.99706 0.0
C524 C 0.92535 0.65646 0.01083 0.0
C525 C 0.98141 0.68078 0.94693 0.0
C526 C 0.9947 0.63549 0.00931 0.0
C527 C 0.95491 0.61374 0.95521 0.0
O528 O 0.96921 0.62689 0.95221 0.0
O529 O 0.94404 0.61434 0.97164 0.0
O530 O 0.99555 0.66675 0.94768 0.0
O531 O 0.96648 0.67963 0.96022 0.0
O532 O 0.62892 0.72213 0.26167 0.0
Cd533 Cd 0.62321 0.69581 0.24452 0.0
Cd534 Cd 0.60593 0.72317 0.21822 0.0
O535 O 0.61054 0.74362 0.24249 0.0
O536 O 0.62073 0.67209 0.26426 0.0
O537 O 0.59446 0.68374 0.24556 0.0
C538 C 0.60127 0.67122 0.25964 0.0
C539 C 0.57719 0.72372 0.19628 0.0
C540 C 0.62175 0.74016 0.25835 0.0
C541 C 0.64517 0.70095 0.2047 0.0
O542 O 0.63177 0.71499 0.20164 0.0
O543 O 0.64449 0.6899 0.22102 0.0
O544 O 0.59027 0.73879 0.19667 0.0
O545 O 0.57933 0.70917 0.20986 0.0
O546 O 0.53615 0.39238 0.52283 0.0
Cd547 Cd 0.56343 0.38776 0.50705 0.0
Cd548 Cd 0.53901 0.36498 0.48189 0.0
O549 O 0.51742 0.36974 0.50529 0.0
O550 O 0.58712 0.38711 0.52716 0.0
O551 O 0.57598 0.3597 0.50983 0.0
C552 C 0.58823 0.36744 0.52361 0.0
C553 C 0.54491 0.33377 0.46457 0.0
C554 C 0.51914 0.38286 0.51993 0.0
C555 C 0.55733 0.40478 0.46488 0.0
O556 O 0.54468 0.38985 0.46287 0.0
O557 O 0.568 0.4067 0.48137 0.0
O558 O 0.52772 0.34368 0.46235 0.0
O559 O 0.55795 0.34063 0.47805 0.0
O560 O 0.74428 0.87274 0.72804 0.0
Cd561 Cd 0.76011 0.87872 0.70103 0.0
Cd562 Cd 0.78765 0.89671 0.72765 0.0
O563 O 0.76408 0.8913 0.74885 0.0
O564 O 0.73922 0.88002 0.6783 0.0
O565 O 0.7575 0.90716 0.68863 0.0
C566 C 0.74311 0.8996 0.67691 0.0
C567 C 0.80974 0.92545 0.72919 0.0
C568 C 0.74822 0.8799 0.74594 0.0
C569 C 0.80065 0.85789 0.70406 0.0
O570 O 0.80417 0.87134 0.71795 0.0
O571 O 0.78372 0.85808 0.69399 0.0
O572 O 0.80963 0.9116 0.74352 0.0
O573 O 0.79587 0.92403 0.71483 0.0
O574 O 0.24302 0.63042 0.28127 0.0
Cd575 Cd 0.25961 0.62447 0.30793 0.0
Cd576 Cd 0.28648 0.60717 0.28052 0.0
O577 O 0.26248 0.61229 0.2598 0.0
O578 O 0.23932 0.62295 0.33128 0.0
O579 O 0.2575 0.59597 0.32055 0.0
C580 C 0.24339 0.60342 0.33267 0.0
C581 C 0.30882 0.5787 0.2792 0.0
C582 C 0.24663 0.62354 0.26318 0.0
C583 C 0.29974 0.64616 0.30348 0.0
O584 O 0.30294 0.63284 0.28941 0.0
O585 O 0.28323 0.64554 0.31425 0.0
O586 O 0.30829 0.5922 0.26454 0.0
O587 O 0.29514 0.58022 0.29374 0.0
O588 O 0.62463 0.98851 0.53559 0.0
Cd589 Cd 0.62856 0.00421 0.56307 0.0
Cd590 Cd 0.6494 0.03092 0.53828 0.0
O591 O 0.64543 0.00772 0.5163 0.0
O592 O 0.6296 0.98382 0.5866 0.0
O593 O 0.65646 1.00249 0.57637 0.0
C594 C 0.64904 0.98833 0.58837 0.0
C595 C 0.67959 0.04938 0.54588 0.0
C596 C 0.63327 0.99225 0.51828 0.0
C597 C 0.60899 0.0454 0.55722 0.0
O598 O 0.62361 0.04839 0.5444 0.0
O599 O 0.60818 0.02876 0.56781 0.0
O600 O 0.67017 0.0519 0.52844 0.0
O601 O 0.67304 0.0349 0.55799 0.0
O602 O 0.26055 0.3777 0.7788 0.0
Cd603 Cd 0.24326 0.38391 0.80492 0.0
Cd604 Cd 0.21691 0.40035 0.77702 0.0
O605 O 0.24121 0.39513 0.75668 0.0
O606 O 0.26287 0.38665 0.82864 0.0
O607 O 0.24417 0.41276 0.81666 0.0
C608 C 0.25814 0.40607 0.82936 0.0
C609 C 0.19498 0.42905 0.77582 0.0
C610 C 0.25718 0.38422 0.76053 0.0
C611 C 0.20348 0.36182 0.80058 0.0
O612 O 0.20033 0.3748 0.78618 0.0
O613 O 0.21989 0.36275 0.81144 0.0
O614 O 0.19528 0.4156 0.7611 0.0
O615 O 0.20867 0.42731 0.79031 0.0
O616 O 0.37587 0.51473 0.53297 0.0
Cd617 Cd 0.36995 0.49854 0.55988 0.0
Cd618 Cd 0.35535 0.46954 0.53266 0.0
O619 O 0.3603 0.49319 0.51146 0.0
O620 O 0.36708 0.51935 0.58254 0.0
O621 O 0.34119 0.49947 0.57202 0.0
C622 C 0.34779 0.5142 0.58389 0.0
C623 C 0.32819 0.44567 0.52984 0.0
C624 C 0.37018 0.50996 0.51474 0.0
C625 C 0.39382 0.45952 0.55809 0.0
O626 O 0.38125 0.45481 0.54374 0.0
O627 O 0.392 0.47654 0.56782 0.0
O628 O 0.34275 0.44657 0.51625 0.0
O629 O 0.32799 0.45966 0.54415 0.0
O630 O 0.77111 0.13925 0.21781 0.0
Cd631 Cd 0.75568 0.13781 0.18998 0.0
Cd632 Cd 0.72906 0.11432 0.21234 0.0
O633 O 0.75178 0.11684 0.23499 0.0
O634 O 0.77683 0.13743 0.16719 0.0
O635 O 0.75625 0.11096 0.17457 0.0
C636 C 0.77139 0.11844 0.16385 0.0
C637 C 0.71054 0.08414 0.20451 0.0
C638 C 0.76722 0.12914 0.23425 0.0
C639 C 0.71449 0.15651 0.19669 0.0
O640 O 0.71142 0.14038 0.20756 0.0
O641 O 0.73144 0.15891 0.18684 0.0
O642 O 0.70815 0.09343 0.22201 0.0
O643 O 0.72472 0.09098 0.1922 0.0
O644 O 0.62858 0.01317 0.97597 0.0
Cd645 Cd 0.63627 0.99565 0.95024 0.0
Cd646 Cd 0.65097 0.9698 0.98027 0.0
O647 O 0.6437 0.9941 0.99999 0.0
O648 O 0.63853 0.01514 0.92619 0.0
O649 O 0.6652 0.99752 0.93837 0.0
C650 C 0.65807 0.01097 0.92537 0.0
C651 C 0.67998 0.94846 0.98318 0.0
C652 C 0.63326 0.01002 0.99486 0.0
C653 C 0.61446 0.95536 0.95427 0.0
O654 O 0.6265 0.95262 0.96955 0.0
O655 O 0.6158 0.97167 0.94326 0.0
O656 O 0.66575 0.9486 0.99718 0.0
O657 O 0.67881 0.9621 0.96856 0.0
O658 O 0.87313 0.995 0.47577 0.0
Cd659 Cd 0.86695 0.01191 0.44938 0.0
Cd660 Cd 0.84986 0.03837 0.47696 0.0
O661 O 0.85532 0.01435 0.49759 0.0
O662 O 0.8656 0.99194 0.42586 0.0
O663 O 0.8385 0.00986 0.43678 0.0
C664 C 0.84606 0.996 0.42447 0.0
C665 C 0.82072 0.05976 0.47772 0.0
C666 C 0.86645 0.99848 0.49396 0.0
C667 C 0.88838 0.05214 0.45362 0.0
O668 O 0.87524 0.05526 0.46789 0.0
O669 O 0.88775 0.03561 0.44292 0.0
O670 O 0.83406 0.05982 0.49256 0.0
O671 O 0.82288 0.04603 0.46333 0.0
H672 H 0.08901 0.14832 0.45119 0.0
H673 H 0.09982 0.1872 0.50438 0.0
H674 H 0.11028 0.17089 0.4301 0.0
H675 H 0.12271 0.20917 0.48372 0.0
H676 H 0.14957 0.2554 0.43741 0.0
H677 H 0.1267 0.23406 0.45874 0.0
H678 H 0.14259 0.18062 0.42154 0.0
H679 H 0.16386 0.20232 0.39955 0.0
C680 C 0.09635 0.16154 0.45848 0.0
C681 C 0.09285 0.1659 0.47947 0.0
C682 C 0.10877 0.17451 0.44638 0.0
C683 C 0.11866 0.19195 0.45505 0.0
C684 C 0.11522 0.19619 0.47623 0.0
C685 C 0.10225 0.18347 0.48821 0.0
C686 C 0.14792 0.23911 0.43378 0.0
C687 C 0.15827 0.23059 0.41666 0.0
C688 C 0.13495 0.22675 0.44613 0.0
C689 C 0.13248 0.20541 0.442 0.0
C690 C 0.14334 0.19698 0.42504 0.0
C691 C 0.15576 0.20943 0.41241 0.0
H692 H 0.10699 0.85986 0.71584 0.0
H693 H 0.05424 0.83964 0.75175 0.0
H694 H 0.08437 0.88095 0.69434 0.0
H695 H 0.03146 0.86071 0.72996 0.0
H696 H 1.00145 0.91794 0.6971 0.0
H697 H 0.02276 0.89696 0.72039 0.0
H698 H 0.05793 0.87478 0.66803 0.0
H699 H 0.0369 0.89578 0.64488 0.0
C700 C 0.09057 0.85999 0.71924 0.0
C701 C 0.08245 0.84797 0.73551 0.0
C702 C 0.07755 0.87198 0.70678 0.0
C703 C 0.05604 0.87234 0.71024 0.0
C704 C 0.04796 0.86084 0.72691 0.0
C705 C 0.06101 0.84873 0.73937 0.0
C706 C 0.01363 0.90845 0.69056 0.0
C707 C 0.0175 0.90864 0.66911 0.0
C708 C 0.02581 0.89639 0.70391 0.0
C709 C 0.04222 0.88436 0.69612 0.0
C710 C 0.04569 0.88417 0.67462 0.0
C711 C 0.0335 0.89611 0.6613 0.0
H712 H 0.41878 0.80871 0.99657 0.0
H713 H 0.3995 0.86179 0.96074 0.0
H714 H 0.39597 0.78656 0.97591 0.0
H715 H 0.3766 0.83982 0.94042 0.0
H716 H 0.35731 0.79261 0.89232 0.0
H717 H 0.38001 0.81317 0.91426 0.0
H718 H 0.35947 0.7788 0.96787 0.0
H719 H 0.33685 0.75789 0.94576 0.0
C720 C 0.40953 0.8157 0.98445 0.0
C721 C 0.41107 0.83703 0.98027 0.0
C722 C 0.39641 0.803 0.97264 0.0
C723 C 0.3846 0.81134 0.95633 0.0
C724 C 0.38577 0.83277 0.95257 0.0
C725 C 0.39881 0.84542 0.96436 0.0
C726 C 0.35769 0.7893 0.90876 0.0
C727 C 0.34517 0.77361 0.91726 0.0
C728 C 0.37061 0.80123 0.9214 0.0
C729 C 0.37142 0.79784 0.94291 0.0
C730 C 0.35932 0.78178 0.95137 0.0
C731 C 0.34631 0.76983 0.93869 0.0
H732 H 0.44399 0.16838 0.24475 0.0
H733 H 0.38852 0.14166 0.21855 0.0
H734 H 0.46502 0.14864 0.22027 0.0
H735 H 0.40948 0.12165 0.19447 0.0
H736 H 0.44996 0.11032 0.1379 0.0
H737 H 0.42992 0.12852 0.1641 0.0
H738 H 0.47668 0.11444 0.20982 0.0
H739 H 0.49701 0.09654 0.1834 0.0
C740 C 0.4363 0.15803 0.23401 0.0
C741 C 0.41455 0.15671 0.23354 0.0
C742 C 0.44836 0.14668 0.21999 0.0
C743 C 0.43896 0.13373 0.20519 0.0
C744 C 0.41725 0.13181 0.20533 0.0
C745 C 0.40521 0.14317 0.21928 0.0
C746 C 0.45603 0.11113 0.15352 0.0
C747 C 0.4751 0.10194 0.15852 0.0
C748 C 0.44443 0.12144 0.16862 0.0
C749 C 0.45156 0.12282 0.18917 0.0
C750 C 0.47078 0.11383 0.19413 0.0
C751 C 0.4824 0.10349 0.17899 0.0
H752 H 0.14731 0.79397 0.10972 0.0
H753 H 0.16655 0.75593 0.05819 0.0
H754 H 0.12611 0.81474 0.08651 0.0
H755 H 0.14531 0.77694 0.03483 0.0
H756 H 0.08728 0.8087 0.00479 0.0
H757 H 0.10864 0.78622 0.0266 0.0
H758 H 0.13226 0.83993 0.05869 0.0
H759 H 0.11093 0.86229 0.03712 0.0
C760 C 0.14694 0.78994 0.09344 0.0
C761 C 0.15871 0.77329 0.08584 0.0
C762 C 0.13488 0.80198 0.08009 0.0
C763 C 0.13417 0.79767 0.05875 0.0
C764 C 0.14545 0.78064 0.05119 0.0
C765 C 0.15766 0.76863 0.06458 0.0
C766 C 0.09718 0.81571 0.01638 0.0
C767 C 0.09731 0.83732 0.01924 0.0
C768 C 0.10945 0.80282 0.02885 0.0
C769 C 0.12199 0.81125 0.04456 0.0
C770 C 0.1225 0.83288 0.047 0.0
C771 C 0.11036 0.84573 0.0345 0.0
H772 H 0.50142 0.91615 0.30987 0.0
H773 H 0.46598 0.89395 0.36213 0.0
H774 H 0.47986 0.89541 0.28657 0.0
H775 H 0.44471 0.87317 0.33898 0.0
H776 H 0.3952 0.8591 0.29127 0.0
H777 H 0.4182 0.87971 0.31287 0.0
H778 H 0.47066 0.85936 0.27674 0.0
H779 H 0.4475 0.83878 0.25486 0.0
C780 C 0.4892 0.90669 0.31642 0.0
C781 C 0.48539 0.90682 0.33789 0.0
C782 C 0.47687 0.89476 0.30306 0.0
C783 C 0.46037 0.8828 0.31085 0.0
C784 C 0.457 0.88251 0.33238 0.0
C785 C 0.46933 0.89432 0.3457 0.0
C786 C 0.41161 0.85909 0.28779 0.0
C787 C 0.41948 0.8472 0.27134 0.0
C788 C 0.42485 0.87081 0.3003 0.0
C789 C 0.44634 0.87101 0.29673 0.0
C790 C 0.45419 0.85962 0.27989 0.0
C791 C 0.44091 0.84779 0.26738 0.0
H792 H 0.34044 0.24934 0.55824 0.0
H793 H 0.36198 0.21436 0.61104 0.0
H794 H 0.36148 0.22765 0.53536 0.0
H795 H 0.38305 0.19297 0.58831 0.0
H796 H 0.39761 0.14315 0.54119 0.0
H797 H 0.37671 0.16628 0.56231 0.0
H798 H 0.39774 0.21849 0.52613 0.0
H799 H 0.41862 0.1952 0.50472 0.0
C800 C 0.34982 0.2372 0.565 0.0
C801 C 0.34942 0.23354 0.58648 0.0
C802 C 0.36192 0.2248 0.55188 0.0
C803 C 0.37378 0.2084 0.55996 0.0
C804 C 0.3738 0.20519 0.5815 0.0
C805 C 0.36181 0.21759 0.59458 0.0
C806 C 0.39771 0.15953 0.53759 0.0
C807 C 0.40988 0.1673 0.52127 0.0
C808 C 0.38583 0.17284 0.54983 0.0
C809 C 0.38573 0.1943 0.5461 0.0
C810 C 0.3974 0.20204 0.52939 0.0
C811 C 0.40941 0.18869 0.51714 0.0
H812 H 0.10552 0.16089 0.79877 0.0
H813 H 0.06906 0.1506 0.74379 0.0
H814 H 0.08258 0.13863 0.81841 0.0
H815 H 0.0468 0.12671 0.76295 0.0
H816 H 0.99945 0.09748 0.80664 0.0
H817 H 0.02106 0.12135 0.78672 0.0
H818 H 0.07334 0.10594 0.82577 0.0
H819 H 0.05128 0.0837 0.8464 0.0
C820 C 0.09276 0.15346 0.79078 0.0
C821 C 0.08917 0.15738 0.76972 0.0
C822 C 0.07959 0.14047 0.80203 0.0
C823 C 0.06276 0.1304 0.7924 0.0
C824 C 0.05929 0.1343 0.77116 0.0
C825 C 0.07217 0.14786 0.76004 0.0
C826 C 0.01554 0.09945 0.81097 0.0
C827 C 0.02361 0.08896 0.82822 0.0
C828 C 0.02807 0.11299 0.79943 0.0
C829 C 0.04914 0.11591 0.80453 0.0
C830 C 0.05715 0.10487 0.82158 0.0
C831 C 0.04451 0.09188 0.83341 0.0
H832 H 0.25101 0.44367 0.16631 0.0
H833 H 0.21417 0.3922 0.14455 0.0
H834 H 0.22975 0.46744 0.14582 0.0
H835 H 0.19321 0.41581 0.12403 0.0
H836 H 0.14473 0.46447 0.11034 0.0
H837 H 0.16739 0.44254 0.13092 0.0
H838 H 0.22051 0.47731 0.10975 0.0
H839 H 0.1977 0.49954 0.0892 0.0
C840 C 0.23854 0.43739 0.15701 0.0
C841 C 0.23425 0.41602 0.15717 0.0
C842 C 0.22639 0.45101 0.14523 0.0
C843 C 0.20961 0.44357 0.13346 0.0
C844 C 0.20574 0.42214 0.13322 0.0
C845 C 0.21789 0.40856 0.14489 0.0
C846 C 0.16122 0.4676 0.11016 0.0
C847 C 0.16938 0.48375 0.09802 0.0
C848 C 0.17425 0.45489 0.12186 0.0
C849 C 0.19582 0.45797 0.1218 0.0
C850 C 0.20397 0.47455 0.1102 0.0
C851 C 0.19089 0.48726 0.09839 0.0
H852 H 0.75104 0.05264 0.8347 0.0
H853 H 0.71931 0.10776 0.85531 0.0
H854 H 0.72969 0.03171 0.85809 0.0
H855 H 0.69821 0.08695 0.87865 0.0
H856 H 0.69975 0.00516 0.91859 0.0
H857 H 0.72249 0.02488 0.89545 0.0
H858 H 0.67025 0.06148 0.8755 0.0
H859 H 0.64766 0.04199 0.89859 0.0
C860 C 0.73966 0.06032 0.84433 0.0
C861 C 0.73687 0.0819 0.84304 0.0
C862 C 0.72746 0.04832 0.85778 0.0
C863 C 0.71208 0.0576 0.87013 0.0
C864 C 0.70964 0.07922 0.86912 0.0
C865 C 0.72188 0.09119 0.85581 0.0
C866 C 0.69312 0.01735 0.90918 0.0
C867 C 0.67186 0.02201 0.91053 0.0
C868 C 0.70614 0.02861 0.89586 0.0
C869 C 0.69825 0.04491 0.88372 0.0
C870 C 0.67694 0.04929 0.88486 0.0
C871 C 0.66394 0.03798 0.89803 0.0
H872 H 0.75306 0.94502 0.33884 0.0
H873 H 0.7894 0.89331 0.36072 0.0
H874 H 0.77368 0.96849 0.36033 0.0
H875 H 0.80973 0.91663 0.38221 0.0
H876 H 0.85769 0.96527 0.39794 0.0
H877 H 0.83565 0.94366 0.37635 0.0
H878 H 0.78186 0.97761 0.39691 0.0
H879 H 0.80405 0.99953 0.4185 0.0
C880 C 0.76528 0.93862 0.34837 0.0
C881 C 0.76963 0.91728 0.34796 0.0
C882 C 0.77707 0.95208 0.36072 0.0
C883 C 0.79353 0.94448 0.37281 0.0
C884 C 0.79745 0.92307 0.37279 0.0
C885 C 0.78566 0.90965 0.36056 0.0
C886 C 0.84119 0.96829 0.39778 0.0
C887 C 0.83265 0.9841 0.41005 0.0
C888 C 0.82852 0.95576 0.3855 0.0
C889 C 0.80695 0.95871 0.38509 0.0
C890 C 0.79843 0.97496 0.39683 0.0
C891 C 0.81114 0.98749 0.40922 0.0
H892 H 0.86324 0.06158 0.08214 0.0
H893 H 0.82294 0.01122 0.09961 0.0
H894 H 0.84178 0.08566 0.10129 0.0
H895 H 0.80216 0.03496 0.12034 0.0
H896 H 0.75789 0.08399 0.14323 0.0
H897 H 0.77811 0.06071 0.1215 0.0
H898 H 0.83255 0.09838 0.13242 0.0
H899 H 0.81183 0.12229 0.15264 0.0
C900 C 0.84995 0.0556 0.09048 0.0
C901 C 0.84483 0.0345 0.08945 0.0
C902 C 0.83762 0.06944 0.10166 0.0
C903 C 0.82008 0.06249 0.11268 0.0
C904 C 0.81518 0.04119 0.11181 0.0
C905 C 0.82723 0.02743 0.1001 0.0
C906 C 0.77413 0.08739 0.14065 0.0
C907 C 0.78323 0.10506 0.14946 0.0
C908 C 0.78587 0.07387 0.12838 0.0
C909 C 0.8072 0.07736 0.12509 0.0
C910 C 0.81617 0.0952 0.13399 0.0
C911 C 0.80429 0.10898 0.14575 0.0
H912 H 0.28543 0.6146 0.64625 0.0
H913 H 0.25152 0.56116 0.66807 0.0
H914 H 0.30696 0.59231 0.62487 0.0
H915 H 0.27337 0.53872 0.64674 0.0
H916 H 0.30592 0.50857 0.5895 0.0
H917 H 0.28241 0.5296 0.61052 0.0
H918 H 0.33414 0.56688 0.63081 0.0
H919 H 0.35746 0.54616 0.60974 0.0
C920 C 0.28248 0.59809 0.64642 0.0
C921 C 0.26678 0.58969 0.65898 0.0
C922 C 0.29495 0.58527 0.63425 0.0
C923 C 0.29209 0.56367 0.63427 0.0
C924 C 0.27595 0.55528 0.6463 0.0
C925 C 0.26345 0.56815 0.65856 0.0
C926 C 0.31227 0.52117 0.59857 0.0
C927 C 0.33358 0.52572 0.59784 0.0
C928 C 0.2988 0.53319 0.61066 0.0
C929 C 0.30634 0.55009 0.62217 0.0
C930 C 0.32772 0.55426 0.62181 0.0
C931 C 0.34115 0.54224 0.60983 0.0
H932 H 0.24654 0.56129 0.33814 0.0
H933 H 0.21242 0.61483 0.35908 0.0
H934 H 0.22422 0.53894 0.35915 0.0
H935 H 0.19041 0.59263 0.38017 0.0
H936 H 0.13959 0.54657 0.39515 0.0
H937 H 0.16323 0.56725 0.3743 0.0
H938 H 0.21456 0.5298 0.39507 0.0
H939 H 0.19074 0.50881 0.41585 0.0
C940 C 0.23445 0.56832 0.34739 0.0
C941 C 0.23124 0.58987 0.34682 0.0
C942 C 0.22168 0.55551 0.35948 0.0
C943 C 0.20534 0.56393 0.37119 0.0
C944 C 0.20256 0.58554 0.37103 0.0
C945 C 0.21532 0.59831 0.35904 0.0
C946 C 0.15589 0.5426 0.3952 0.0
C947 C 0.16324 0.52603 0.40726 0.0
C948 C 0.1695 0.5546 0.38335 0.0
C949 C 0.19087 0.55039 0.38317 0.0
C950 C 0.19819 0.53344 0.39477 0.0
C951 C 0.18454 0.52143 0.40672 0.0
H952 H 0.30451 0.50255 0.91368 0.0
H953 H 0.35806 0.4692 0.89145 0.0
H954 H 0.28208 0.48062 0.89235 0.0
H955 H 0.33576 0.44754 0.87015 0.0
H956 H 0.28962 0.39657 0.85586 0.0
H957 H 0.3102 0.42011 0.87689 0.0
H958 H 0.27328 0.47162 0.85564 0.0
H959 H 0.25245 0.44793 0.83458 0.0
C960 C 0.31152 0.49073 0.90408 0.0
C961 C 0.33309 0.48758 0.90437 0.0
C962 C 0.29867 0.47819 0.89183 0.0
C963 C 0.3071 0.46215 0.87975 0.0
C964 C 0.32871 0.45948 0.87958 0.0
C965 C 0.34153 0.47203 0.8917 0.0
C966 C 0.28574 0.41288 0.85575 0.0
C967 C 0.26941 0.42035 0.84344 0.0
C968 C 0.29766 0.42642 0.8677 0.0
C969 C 0.29356 0.4478 0.86776 0.0
C970 C 0.27681 0.45523 0.85599 0.0
C971 C 0.2649 0.44166 0.84389 0.0
H972 H 0.60248 0.6849 0.00803 0.0
H973 H 0.59138 0.64896 0.95285 0.0
H974 H 0.62619 0.70725 0.98873 0.0
H975 H 0.61355 0.67195 0.93316 0.0
H976 H 0.66863 0.70302 0.90514 0.0
H977 H 0.64649 0.68094 0.92586 0.0
H978 H 0.63096 0.73322 0.96482 0.0
H979 H 0.65465 0.75491 0.94474 0.0
C980 C 0.60501 0.68191 0.99171 0.0
C981 C 0.5953 0.66504 0.98201 0.0
C982 C 0.61847 0.69485 0.98053 0.0
C983 C 0.6221 0.69152 0.95923 0.0
C984 C 0.61187 0.67481 0.94958 0.0
C985 C 0.59895 0.66162 0.96087 0.0
C986 C 0.66044 0.7098 0.91812 0.0
C987 C 0.66327 0.73072 0.92322 0.0
C988 C 0.64753 0.69714 0.93001 0.0
C989 C 0.6365 0.70515 0.94705 0.0
C990 C 0.63932 0.72624 0.95208 0.0
C991 C 0.65276 0.7388 0.94046 0.0
H992 H 0.60895 0.33063 0.18547 0.0
H993 H 0.56665 0.33537 0.23701 0.0
H994 H 0.5861 0.35234 0.16469 0.0
H995 H 0.54325 0.35608 0.21606 0.0
H996 H 0.51571 0.41059 0.18094 0.0
H997 H 0.53805 0.38845 0.20164 0.0
H998 H 0.55502 0.35431 0.14658 0.0
H999 H 0.53347 0.37726 0.12582 0.0
C1000 C 0.59466 0.33615 0.19229 0.0
C1001 C 0.5897 0.33136 0.21293 0.0
C1002 C 0.58141 0.3485 0.18032 0.0
C1003 C 0.56267 0.3561 0.18858 0.0
C1004 C 0.55767 0.35099 0.20919 0.0
C1005 C 0.57106 0.33895 0.22123 0.0
C1006 C 0.5241 0.39825 0.17329 0.0
C1007 C 0.52282 0.39572 0.15173 0.0
C1008 C 0.53691 0.38543 0.18519 0.0
C1009 C 0.54855 0.36947 0.17589 0.0
C1010 C 0.54675 0.36664 0.15433 0.0
C1011 C 0.53419 0.3797 0.1424 0.0
H1012 H 0.88828 0.36439 0.46319 0.0
H1013 H 0.91059 0.31172 0.49783 0.0
H1014 H 0.86609 0.34169 0.44286 0.0
H1015 H 0.88847 0.28886 0.47719 0.0
H1016 H 0.83058 0.25763 0.44732 0.0
H1017 H 0.85213 0.27955 0.46955 0.0
H1018 H 0.87043 0.31556 0.41622 0.0
H1019 H 0.84884 0.29395 0.39416 0.0
C1020 C 0.88841 0.34796 0.46655 0.0
C1021 C 0.90132 0.33991 0.48213 0.0
C1022 C 0.87576 0.33489 0.45476 0.0
C1023 C 0.87562 0.31337 0.4582 0.0
C1024 C 0.88809 0.30535 0.47418 0.0
C1025 C 0.90083 0.31846 0.48597 0.0
C1026 C 0.83928 0.27018 0.44034 0.0
C1027 C 0.83789 0.27405 0.41894 0.0
C1028 C 0.85169 0.28271 0.45309 0.0
C1029 C 0.8629 0.29947 0.44474 0.0
C1030 C 0.86173 0.30306 0.42328 0.0
C1031 C 0.84943 0.29053 0.41057 0.0
H1032 H 0.89412 0.6461 0.72178 0.0
H1033 H 0.94881 0.66757 0.75382 0.0
H1034 H 0.91554 0.62437 0.6997 0.0
H1035 H 0.97036 0.64583 0.73146 0.0
H1036 H 0.9987 0.58789 0.69839 0.0
H1037 H 0.97855 0.60919 0.72243 0.0
H1038 H 0.94044 0.63018 0.67167 0.0
H1039 H 0.96031 0.60889 0.64779 0.0
C1040 C 0.91072 0.6461 0.72423 0.0
C1041 C 0.91973 0.65868 0.73955 0.0
C1042 C 0.92303 0.63373 0.71143 0.0
C1043 C 0.94471 0.63354 0.71361 0.0
C1044 C 0.95371 0.64556 0.7294 0.0
C1045 C 0.94136 0.65806 0.74219 0.0
C1046 C 0.9861 0.59717 0.69236 0.0
C1047 C 0.98108 0.5966 0.67116 0.0
C1048 C 0.9746 0.60942 0.70613 0.0
C1049 C 0.95773 0.62123 0.69902 0.0
C1050 C 0.95307 0.62098 0.67775 0.0
C1051 C 0.96459 0.60887 0.66401 0.0
H1052 H 0.59158 0.3253 0.52164 0.0
H1053 H 0.61553 0.37869 0.55409 0.0
H1054 H 0.61092 0.30258 0.54467 0.0
H1055 H 0.63536 0.35595 0.57681 0.0
H1056 H 0.64652 0.30948 0.62911 0.0
H1057 H 0.62892 0.33221 0.60471 0.0
H1058 H 0.64467 0.29074 0.55464 0.0
H1059 H 0.66182 0.26771 0.57917 0.0
C1060 C 0.60124 0.33222 0.53349 0.0
C1061 C 0.60192 0.35383 0.53607 0.0
C1062 C 0.61241 0.31916 0.54667 0.0
C1063 C 0.62461 0.32738 0.56275 0.0
C1064 C 0.62582 0.34905 0.56487 0.0
C1065 C 0.6146 0.36211 0.55171 0.0
C1066 C 0.64618 0.30516 0.6129 0.0
C1067 C 0.65554 0.28673 0.60612 0.0
C1068 C 0.63624 0.31831 0.59886 0.0
C1069 C 0.63545 0.31342 0.57764 0.0
C1070 C 0.64476 0.29492 0.57088 0.0
C1071 C 0.65467 0.28173 0.58495 0.0
H1072 H 0.94267 0.34841 0.7535 0.0
H1073 H 0.90728 0.33262 0.80793 0.0
H1074 H 0.96321 0.37281 0.77386 0.0
H1075 H 0.92856 0.35554 0.82863 0.0
H1076 H 0.95544 0.41174 0.85884 0.0
H1077 H 0.93515 0.38875 0.83725 0.0
H1078 H 0.98863 0.37853 0.79812 0.0
H1079 H 0.00842 0.40301 0.81912 0.0
C1080 C 0.93943 0.35004 0.76988 0.0
C1081 C 0.92322 0.3388 0.77906 0.0
C1082 C 0.95134 0.36391 0.78167 0.0
C1083 C 0.94764 0.36647 0.80306 0.0
C1084 C 0.93164 0.35471 0.81219 0.0
C1085 C 0.91944 0.34134 0.80031 0.0
C1086 C 0.96287 0.40454 0.84564 0.0
C1087 C 0.98356 0.40909 0.84076 0.0
C1088 C 0.95125 0.39114 0.83325 0.0
C1089 C 0.96013 0.38134 0.81588 0.0
C1090 C 0.98099 0.38589 0.81108 0.0
C1091 C 0.99247 0.3998 0.82324 0.0
H1092 H 0.84019 0.75093 0.05976 0.0
H1093 H 0.86005 0.71426 0.11206 0.0
H1094 H 0.86182 0.72986 0.03684 0.0
H1095 H 0.88171 0.69349 0.08931 0.0
H1096 H 0.89815 0.64528 0.04122 0.0
H1097 H 0.87642 0.66764 0.06233 0.0
H1098 H 0.89827 0.72104 0.02844 0.0
H1099 H 0.91997 0.69853 0.00702 0.0
C1100 C 0.84931 0.73853 0.06641 0.0
C1101 C 0.84829 0.73425 0.08775 0.0
C1102 C 0.86174 0.72649 0.05327 0.0
C1103 C 0.87333 0.70982 0.06119 0.0
C1104 C 0.87269 0.70593 0.08261 0.0
C1105 C 0.86036 0.71798 0.09571 0.0
C1106 C 0.89825 0.66176 0.03811 0.0
C1107 C 0.9109 0.67009 0.02245 0.0
C1108 C 0.88588 0.67463 0.05035 0.0
C1109 C 0.88577 0.69619 0.04728 0.0
C1110 C 0.89792 0.7045 0.03118 0.0
C1111 C 0.9104 0.69159 0.01894 0.0
H1112 H 0.53909 0.61109 0.36146 0.0
H1113 H 0.50381 0.58931 0.30896 0.0
H1114 H 0.56095 0.63142 0.33843 0.0
H1115 H 0.52595 0.60964 0.28578 0.0
H1116 H 0.55926 0.66624 0.25466 0.0
H1117 H 0.53568 0.64572 0.27617 0.0
H1118 H 0.5876 0.6243 0.31244 0.0
H1119 H 0.61104 0.64484 0.29119 0.0
C1120 C 0.5359 0.61072 0.345 0.0
C1121 C 0.5197 0.59848 0.33708 0.0
C1122 C 0.54857 0.62227 0.33176 0.0
C1123 C 0.5454 0.62197 0.31021 0.0
C1124 C 0.52878 0.61027 0.3023 0.0
C1125 C 0.51612 0.59859 0.31558 0.0
C1126 C 0.56565 0.65699 0.2671 0.0
C1127 C 0.58706 0.65728 0.27124 0.0
C1128 C 0.55213 0.6452 0.27941 0.0
C1129 C 0.55971 0.63355 0.2962 0.0
C1130 C 0.58118 0.6334 0.2999 0.0
C1131 C 0.59466 0.64507 0.28758 0.0
H1132 H 0.7456 0.94175 0.67199 0.0
H1133 H 0.71169 0.88798 0.65107 0.0
H1134 H 0.72281 0.96399 0.65155 0.0
H1135 H 0.68922 0.9101 0.63045 0.0
H1136 H 0.63874 0.95613 0.61402 0.0
H1137 H 0.66189 0.93535 0.63544 0.0
H1138 H 0.71372 0.97304 0.61608 0.0
H1139 H 0.69052 0.99406 0.59497 0.0
C1140 C 0.73344 0.93465 0.66287 0.0
C1141 C 0.73047 0.91307 0.66321 0.0
C1142 C 0.72039 0.9474 0.65112 0.0
C1143 C 0.70403 0.93888 0.63948 0.0
C1144 C 0.70138 0.91726 0.63953 0.0
C1145 C 0.71442 0.90453 0.65123 0.0
C1146 C 0.65504 0.96012 0.61449 0.0
C1147 C 0.66276 0.97675 0.60273 0.0
C1148 C 0.66836 0.94808 0.62663 0.0
C1149 C 0.68973 0.95237 0.62735 0.0
C1150 C 0.69735 0.96937 0.61603 0.0
C1151 C 0.68403 0.98139 0.60385 0.0
H1152 H 0.25427 0.38532 0.28122 0.0
H1153 H 0.21261 0.35628 0.23763 0.0
H1154 H 0.23667 0.36797 0.30954 0.0
H1155 H 0.19454 0.33929 0.26614 0.0
H1156 H 0.20054 0.3412 0.35986 0.0
H1157 H 0.2068 0.36382 0.33033 0.0
H1158 H 0.20192 0.3112 0.28925 0.0
H1159 H 0.19478 0.28877 0.31888 0.0
C1160 C 0.24101 0.37565 0.27769 0.0
C1161 C 0.23504 0.37207 0.25709 0.0
C1162 C 0.23078 0.36573 0.29401 0.0
C1163 C 0.21419 0.35205 0.29019 0.0
C1164 C 0.20745 0.34942 0.26965 0.0
C1165 C 0.21775 0.3593 0.25331 0.0
C1166 C 0.20013 0.33461 0.34442 0.0
C1167 C 0.19733 0.31322 0.34164 0.0
C1168 C 0.20395 0.34754 0.32751 0.0
C1169 C 0.20545 0.33931 0.30741 0.0
C1170 C 0.20084 0.31815 0.30446 0.0
C1171 C 0.1967 0.30524 0.32144 0.0
H1172 H 0.86207 0.00565 0.53543 0.0
H1173 H 0.88832 0.96214 0.49195 0.0
H1174 H 0.87987 0.98838 0.56355 0.0
H1175 H 0.90563 0.94423 0.52034 0.0
H1176 H 0.9085 0.95431 0.61394 0.0
H1177 H 0.88451 0.95992 0.58539 0.0
H1178 H 0.93459 0.95078 0.54185 0.0
H1179 H 0.95823 0.94406 0.57055 0.0
C1180 C 0.87118 0.99202 0.53192 0.0
C1181 C 0.87393 0.98547 0.51137 0.0
C1182 C 0.88136 0.98196 0.54814 0.0
C1183 C 0.89441 0.9649 0.5443 0.0
C1184 C 0.89607 0.95753 0.52387 0.0
C1185 C 0.886 0.96772 0.50759 0.0
C1186 C 0.91417 0.95283 0.59821 0.0
C1187 C 0.93521 0.94889 0.59441 0.0
C1188 C 0.90049 0.95628 0.58183 0.0
C1189 C 0.90766 0.95641 0.56125 0.0
C1190 C 0.92841 0.95075 0.55743 0.0
C1191 C 0.94203 0.94687 0.57388 0.0
H1192 H 0.2976 0.66487 0.86282 0.0
H1193 H 0.30695 0.71533 0.82004 0.0
H1194 H 0.2917 0.64129 0.83401 0.0
H1195 H 0.29999 0.69205 0.79108 0.0
H1196 H 0.24561 0.61912 0.78419 0.0
H1197 H 0.26293 0.6368 0.81238 0.0
H1198 H 0.30673 0.66332 0.76917 0.0
H1199 H 0.28881 0.64611 0.74072 0.0
C1200 C 0.29881 0.6708 0.84716 0.0
C1201 C 0.30257 0.69193 0.84362 0.0
C1202 C 0.2952 0.65735 0.83063 0.0
C1203 C 0.29478 0.6648 0.81017 0.0
C1204 C 0.30025 0.68566 0.80658 0.0
C1205 C 0.30426 0.69907 0.82317 0.0
C1206 C 0.25917 0.62838 0.78069 0.0
C1207 C 0.26563 0.63135 0.76013 0.0
C1208 C 0.26926 0.63849 0.79695 0.0
C1209 C 0.28623 0.6517 0.79313 0.0
C1210 C 0.2935 0.65361 0.77268 0.0
C1211 C 0.28329 0.6436 0.75637 0.0
H1212 H 0.61175 0.04612 0.98944 0.0
H1213 H 0.63377 0.00456 0.03703 0.0
H1214 H 0.59213 0.0653 0.01529 0.0
H1215 H 0.61377 0.02351 0.06282 0.0
H1216 H 0.5838 0.06914 0.10733 0.0
H1217 H 0.60841 0.05543 0.08201 0.0
H1218 H 0.56111 0.05839 0.03477 0.0
H1219 H 0.5367 0.07206 0.05999 0.0
C1220 C 0.61263 0.0412 0.00546 0.0
C1221 C 0.62422 0.02364 0.01109 0.0
C1222 C 0.60124 0.05214 0.02028 0.0
C1223 C 0.60107 0.04579 0.04112 0.0
C1224 C 0.6136 0.02894 0.04695 0.0
C1225 C 0.62505 0.01801 0.03212 0.0
C1226 C 0.57871 0.06681 0.09153 0.0
C1227 C 0.5582 0.0713 0.08578 0.0
C1228 C 0.5928 0.05898 0.07701 0.0
C1229 C 0.58676 0.05567 0.05633 0.0
C1230 C 0.56643 0.06095 0.05046 0.0
C1231 C 0.55236 0.06872 0.06498 0.0
H1232 H 0.20406 0.66481 0.1423 0.0
H1233 H 0.19429 0.71526 0.18493 0.0
H1234 H 0.20921 0.64115 0.17121 0.0
H1235 H 0.20054 0.69191 0.214 0.0
H1236 H 0.25409 0.61852 0.22183 0.0
H1237 H 0.2374 0.6363 0.19334 0.0
H1238 H 0.19329 0.66332 0.23584 0.0
H1239 H 0.21061 0.64601 0.26459 0.0
C1240 C 0.20261 0.67072 0.15794 0.0
C1241 C 0.19893 0.69186 0.16142 0.0
C1242 C 0.20579 0.65723 0.17453 0.0
C1243 C 0.20588 0.66465 0.195 0.0
C1244 C 0.20052 0.68553 0.1985 0.0
C1245 C 0.19692 0.69898 0.18184 0.0
C1246 C 0.24058 0.6279 0.2251 0.0
C1247 C 0.23388 0.63099 0.24556 0.0
C1248 C 0.23086 0.63808 0.20867 0.0
C1249 C 0.214 0.65147 0.2122 0.0
C1250 C 0.20645 0.65348 0.23254 0.0
C1251 C 0.2163 0.64341 0.24903 0.0
H1252 H 0.61205 0.9555 0.5172 0.0
H1253 H 0.63879 1.00229 0.47752 0.0
H1254 H 0.59545 0.93953 0.4873 0.0
H1255 H 0.62161 0.98697 0.44786 0.0
H1256 H 0.59376 0.95583 0.39463 0.0
H1257 H 0.61717 0.96052 0.42379 0.0
H1258 H 0.56687 0.94699 0.46597 0.0
H1259 H 0.54383 0.94121 0.43658 0.0
C1260 C 0.61464 0.96221 0.50204 0.0
C1261 C 0.62664 0.98029 0.49979 0.0
C1262 C 0.60495 0.95315 0.48489 0.0
C1263 C 0.60685 0.96205 0.46509 0.0
C1264 C 0.6199 0.97941 0.46273 0.0
C1265 C 0.62976 0.98832 0.47983 0.0
C1266 C 0.5879 0.95328 0.41015 0.0
C1267 C 0.56696 0.94829 0.41338 0.0
C1268 C 0.60126 0.95619 0.42691 0.0
C1269 C 0.59389 0.95468 0.44736 0.0
C1270 C 0.57324 0.94819 0.45051 0.0
C1271 C 0.55995 0.94487 0.43366 0.0
H1272 H 0.31267 0.2927 0.68453 0.0
H1273 H 0.3032 0.3426 0.64115 0.0
H1274 H 0.30558 0.31627 0.71321 0.0
H1275 H 0.29721 0.36649 0.66969 0.0
H1276 H 0.25059 0.38867 0.71898 0.0
H1277 H 0.26832 0.37098 0.69108 0.0
H1278 H 0.31191 0.34522 0.73488 0.0
H1279 H 0.29356 0.36243 0.76303 0.0
C1280 C 0.30995 0.30892 0.68121 0.0
C1281 C 0.30824 0.31581 0.66068 0.0
C1282 C 0.30586 0.32249 0.69764 0.0
C1283 C 0.30031 0.34327 0.6938 0.0
C1284 C 0.30076 0.3505 0.67325 0.0
C1285 C 0.30443 0.33687 0.65688 0.0
C1286 C 0.2642 0.37958 0.72267 0.0
C1287 C 0.27046 0.3768 0.7433 0.0
C1288 C 0.27452 0.36947 0.70658 0.0
C1289 C 0.29155 0.35646 0.71064 0.0
C1290 C 0.29864 0.35477 0.73117 0.0
C1291 C 0.28819 0.36478 0.74732 0.0
H1292 H 0.86947 0.99596 0.96667 0.0
H1293 H 0.89477 0.04505 0.00448 0.0
H1294 H 0.88604 0.0108 0.93638 0.0
H1295 H 0.91091 0.06033 0.97394 0.0
H1296 H 0.91167 0.04167 0.88199 0.0
H1297 H 0.8888 0.03769 0.91172 0.0
H1298 H 0.93992 0.05177 0.95263 0.0
H1299 H 0.96253 0.0566 0.9227 0.0
C1300 C 0.8781 0.01025 0.96844 0.0
C1301 C 0.88097 0.01914 0.98807 0.0
C1302 C 0.88757 0.01888 0.95099 0.0
C1303 C 0.90002 0.03674 0.95268 0.0
C1304 C 0.90177 0.04638 0.97211 0.0
C1305 C 0.89238 0.03767 0.98961 0.0
C1306 C 0.91785 0.04449 0.89734 0.0
C1307 C 0.93891 0.04923 0.90008 0.0
C1308 C 0.90479 0.04202 0.9144 0.0
C1309 C 0.91258 0.04387 0.93464 0.0
C1310 C 0.9333 0.05029 0.93729 0.0
C1311 C 0.94632 0.05308 0.92014 0.0
H1312 H 0.36433 0.20934 0.34472 0.0
H1313 H 0.32039 0.19238 0.29734 0.0
H1314 H 0.33608 0.21573 0.36886 0.0
H1315 H 0.29193 0.19973 0.32111 0.0
H1316 H 0.28385 0.26046 0.38837 0.0
H1317 H 0.31263 0.24335 0.37143 0.0
H1318 H 0.27178 0.19418 0.35141 0.0
H1319 H 0.24273 0.2118 0.36784 0.0
C1320 C 0.34858 0.20661 0.33962 0.0
C1321 C 0.3445 0.20055 0.31913 0.0
C1322 C 0.33236 0.21046 0.35338 0.0
C1323 C 0.31166 0.20879 0.34684 0.0
C1324 C 0.30765 0.20111 0.32679 0.0
C1325 C 0.32395 0.19689 0.3131 0.0
C1326 C 0.28105 0.24579 0.38075 0.0
C1327 C 0.26091 0.23768 0.37927 0.0
C1328 C 0.29763 0.23584 0.37106 0.0
C1329 C 0.29458 0.2174 0.35981 0.0
C1330 C 0.27466 0.20855 0.35955 0.0
C1331 C 0.25802 0.2186 0.36912 0.0
H1332 H 0.99777 0.03303 0.63727 0.0
H1333 H 0.03927 0.98897 0.60883 0.0
H1334 H 0.01478 0.06097 0.61883 0.0
H1335 H 0.05686 0.01714 0.59078 0.0
H1336 H 0.05581 0.06813 0.53872 0.0
H1337 H 0.0492 0.03921 0.56222 0.0
H1338 H 0.04389 0.08209 0.61335 0.0
H1339 H 0.04948 0.11087 0.58963 0.0
C1340 C 0.0109 0.02934 0.62751 0.0
C1341 C 0.01696 0.0087 0.6244 0.0
C1342 C 0.02081 0.04544 0.61695 0.0
C1343 C 0.03719 0.04138 0.60311 0.0
C1344 C 0.04408 0.02084 0.60099 0.0
C1345 C 0.03407 0.00469 0.61148 0.0
C1346 C 0.05385 0.07125 0.55509 0.0
C1347 C 0.05292 0.0917 0.56233 0.0
C1348 C 0.05004 0.05468 0.56862 0.0
C1349 C 0.04551 0.0583 0.58969 0.0
C1350 C 0.04667 0.07872 0.59716 0.0
C1351 C 0.05009 0.09522 0.58361 0.0
H1352 H 0.1388 0.80198 0.84464 0.0
H1353 H 0.18081 0.81219 0.7937 0.0
H1354 H 0.168 0.79672 0.8679 0.0
H1355 H 0.21017 0.80583 0.81663 0.0
H1356 H 0.21891 0.75182 0.88967 0.0
H1357 H 0.19022 0.76854 0.8723 0.0
H1358 H 0.23237 0.8129 0.845 0.0
H1359 H 0.26134 0.79555 0.86191 0.0
C1360 C 0.15436 0.80351 0.83853 0.0
C1361 C 0.15757 0.80735 0.81737 0.0
C1362 C 0.17112 0.80026 0.8518 0.0
C1363 C 0.19151 0.80026 0.84411 0.0
C1364 C 0.19475 0.80578 0.82321 0.0
C1365 C 0.17792 0.80944 0.81 0.0
C1366 C 0.22208 0.76538 0.88031 0.0
C1367 C 0.2425 0.77215 0.87704 0.0
C1368 C 0.20552 0.77513 0.87037 0.0
C1369 C 0.20888 0.79208 0.85703 0.0
C1370 C 0.2292 0.79968 0.85482 0.0
C1371 C 0.24581 0.7898 0.86466 0.0
H1372 H 0.46807 0.01904 0.09895 0.0
H1373 H 0.52134 0.98215 0.11572 0.0
H1374 H 0.45118 0.98826 0.08492 0.0
H1375 H 0.50463 0.95164 0.10145 0.0
H1376 H 0.44751 0.93451 0.03488 0.0
H1377 H 0.4561 0.96563 0.05471 0.0
H1378 H 0.47639 0.92744 0.10576 0.0
H1379 H 0.46832 0.89652 0.0858 0.0
C1380 C 0.47611 0.00436 0.09988 0.0
C1381 C 0.49616 1.00314 0.10841 0.0
C1382 C 0.46644 0.98674 0.09171 0.0
C1383 C 0.47652 0.96747 0.09203 0.0
C1384 C 0.49624 0.96615 0.10122 0.0
C1385 C 0.50593 0.98373 0.1093 0.0
C1386 C 0.4532 0.93282 0.05057 0.0
C1387 C 0.45752 0.91311 0.05868 0.0
C1388 C 0.45816 0.95065 0.06195 0.0
C1389 C 0.46739 0.94901 0.08166 0.0
C1390 C 0.46984 0.92925 0.09042 0.0
C1391 C 0.46506 0.91153 0.07904 0.0
H1392 H 0.32029 0.81254 0.21273 0.0
H1393 H 0.36256 0.80392 0.16174 0.0
H1394 H 0.29107 0.80614 0.1896 0.0
H1395 H 0.33349 0.79858 0.13832 0.0
H1396 H 0.24024 0.79549 0.14399 0.0
H1397 H 0.26886 0.81325 0.16112 0.0
H1398 H 0.31182 0.76983 0.13376 0.0
H1399 H 0.28345 0.75267 0.1162 0.0
C1400 C 0.32326 0.81017 0.19639 0.0
C1401 C 0.34364 0.80851 0.18904 0.0
C1402 C 0.30651 0.80647 0.18306 0.0
C1403 C 0.30989 0.80133 0.1621 0.0
C1404 C 0.33028 0.80183 0.15445 0.0
C1405 C 0.34696 0.80513 0.16781 0.0
C1406 C 0.25586 0.79003 0.14128 0.0
C1407 C 0.2595 0.77251 0.12884 0.0
C1408 C 0.27228 0.80014 0.15124 0.0
C1409 C 0.29271 0.79293 0.14906 0.0
C1410 C 0.29639 0.77611 0.13566 0.0
C1411 C 0.28004 0.76612 0.12561 0.0
H1412 H 0.50448 0.03119 0.36733 0.0
H1413 H 0.46242 0.98754 0.39579 0.0
H1414 H 0.48688 0.05943 0.38454 0.0
H1415 H 0.44418 0.01604 0.41255 0.0
H1416 H 0.45272 0.10988 0.41243 0.0
H1417 H 0.45797 0.08072 0.38912 0.0
H1418 H 0.45104 0.03856 0.44073 0.0
H1419 H 0.44466 0.06785 0.46372 0.0
C1420 C 0.4911 0.02764 0.37681 0.0
C1421 C 0.48507 0.00704 0.38035 0.0
C1422 C 0.48083 0.04393 0.38665 0.0
C1423 C 0.4641 0.0401 0.40014 0.0
C1424 C 0.45721 0.01957 0.4026 0.0
C1425 C 0.4676 1.00323 0.39285 0.0
C1426 C 0.4516 0.09431 0.4186 0.0
C1427 C 0.44843 0.09107 0.43986 0.0
C1428 C 0.45486 0.07759 0.4053 0.0
C1429 C 0.45555 0.05725 0.41308 0.0
C1430 C 0.45056 0.05395 0.43409 0.0
C1431 C 0.44688 0.07073 0.44734 0.0
H1432 H 0.14574 0.20238 0.66182 0.0
H1433 H 0.18787 0.19489 0.7131 0.0
H1434 H 0.17486 0.20788 0.63848 0.0
H1435 H 0.21712 0.20143 0.69002 0.0
H1436 H 0.26804 0.2117 0.64442 0.0
H1437 H 0.23946 0.194 0.66171 0.0
H1438 H 0.19634 0.23676 0.63357 0.0
H1439 H 0.22468 0.25385 0.61584 0.0
C1440 C 0.16133 0.2015 0.668 0.0
C1441 C 0.16458 0.19838 0.68927 0.0
C1442 C 0.17802 0.20487 0.65467 0.0
C1443 C 0.19838 0.20568 0.66239 0.0
C1444 C 0.20171 0.20086 0.68343 0.0
C1445 C 0.18495 0.19709 0.69673 0.0
C1446 C 0.25239 0.21702 0.64157 0.0
C1447 C 0.24869 0.23434 0.62886 0.0
C1448 C 0.236 0.20695 0.65163 0.0
C1449 C 0.21554 0.21401 0.64929 0.0
C1450 C 0.2118 0.23061 0.63561 0.0
C1451 C 0.22813 0.24056 0.62547 0.0
H1452 H 0.06073 0.93271 0.95492 0.0
H1453 H 0.04594 0.88588 0.90967 0.0
H1454 H 0.05376 0.95964 0.9293 0.0
H1455 H 0.04004 0.91256 0.88369 0.0
H1456 H 0.04242 0.00595 0.87948 0.0
H1457 H 0.05986 0.97825 0.89827 0.0
H1458 H 0.01241 0.93531 0.87845 0.0
H1459 H 0.99555 0.96271 0.85915 0.0
C1460 C 0.05681 0.92819 0.93924 0.0
C1461 C 0.05365 0.90728 0.9343 0.0
C1462 C 0.0528 0.94362 0.92449 0.0
C1463 C 0.04586 0.93835 0.90445 0.0
C1464 C 0.04471 0.91727 0.89909 0.0
C1465 C 0.04831 0.90195 0.91391 0.0
C1466 C 0.03599 0.99047 0.87875 0.0
C1467 C 0.01746 0.98661 0.86793 0.0
C1468 C 0.04592 0.9746 0.88969 0.0
C1469 C 0.03749 0.95452 0.89018 0.0
C1470 C 0.01962 0.95045 0.8783 0.0
C1471 C 0.00982 0.96625 0.86724 0.0
H1472 H 0.34238 0.35841 0.19997 0.0
H1473 H 0.29144 0.31574 0.19301 0.0
H1474 H 0.36599 0.3296 0.20573 0.0
H1475 H 0.31472 0.28681 0.19993 0.0
H1476 H 0.35997 0.23647 0.21225 0.0
H1477 H 0.34301 0.26446 0.19343 0.0
H1478 H 0.37095 0.30891 0.23502 0.0
H1479 H 0.38839 0.28112 0.25318 0.0
C1480 C 0.33637 0.34276 0.1992 0.0
C1481 C 0.31512 0.33924 0.19618 0.0
C1482 C 0.34983 0.32624 0.20275 0.0
C1483 C 0.34224 0.30585 0.20391 0.0
C1484 C 0.32123 0.30224 0.19908 0.0
C1485 C 0.30781 0.31881 0.19509 0.0
C1486 C 0.36283 0.25228 0.21706 0.0
C1487 C 0.37539 0.25653 0.23437 0.0
C1488 C 0.35299 0.26833 0.20635 0.0
C1489 C 0.35535 0.28901 0.21277 0.0
C1490 C 0.36891 0.29327 0.22933 0.0
C1491 C 0.37888 0.27726 0.23991 0.0
H1492 H 0.84687 0.13049 0.78891 0.0
H1493 H 0.80137 0.17528 0.80839 0.0
H1494 H 0.87261 0.15784 0.78539 0.0
H1495 H 0.82676 0.20298 0.80387 0.0
H1496 H 0.87582 0.25071 0.79667 0.0
H1497 H 0.85773 0.22112 0.81165 0.0
H1498 H 0.87765 0.18328 0.76016 0.0
H1499 H 0.89623 0.21252 0.7457 0.0
C1500 C 0.84251 0.14622 0.79278 0.0
C1501 C 0.82211 0.15083 0.79876 0.0
C1502 C 0.8572 0.16195 0.79058 0.0
C1503 C 0.85173 0.18276 0.79382 0.0
C1504 C 0.83167 0.18716 0.80133 0.0
C1505 C 0.81704 0.1713 0.80392 0.0
C1506 C 0.87678 0.23591 0.78884 0.0
C1507 C 0.88733 0.23407 0.76984 0.0
C1508 C 0.86623 0.21897 0.79736 0.0
C1509 C 0.86587 0.1998 0.78702 0.0
C1510 C 0.87766 0.19766 0.76877 0.0
C1511 C 0.88834 0.21453 0.76037 0.0
H1512 H 0.99226 0.61288 0.04524 0.0
H1513 H 0.03623 0.64049 1.00296 0.0
H1514 H 0.02052 0.59553 0.06329 0.0
H1515 H 0.06423 0.62267 0.02036 0.0
H1516 H 0.11433 0.59378 0.05438 0.0
H1517 H 0.08563 0.61763 0.04907 0.0
H1518 H 0.04242 0.56692 0.05642 0.0
H1519 H 0.07126 0.54339 0.06286 0.0
C1520 C 0.00798 0.6155 0.03996 0.0
C1521 C 0.01194 0.62795 0.0225 0.0
C1522 C 0.02418 0.60541 0.05024 0.0
C1523 C 0.04472 0.60744 0.04323 0.0
C1524 C 0.04872 0.62087 0.0265 0.0
C1525 C 0.03258 0.63107 0.01635 0.0
C1526 C 0.09863 0.58793 0.05555 0.0
C1527 C 0.09497 0.56675 0.05888 0.0
C1528 C 0.08217 0.60153 0.05227 0.0
C1529 C 0.06166 0.59417 0.0517 0.0
C1530 C 0.05795 0.57325 0.0568 0.0
C1531 C 0.07447 0.55969 0.06051 0.0
H1532 H 0.61631 0.7815 0.25137 0.0
H1533 H 0.64374 0.73851 0.29466 0.0
H1534 H 0.63368 0.80995 0.26853 0.0
H1535 H 0.66061 0.76723 0.31249 0.0
H1536 H 0.66213 0.86083 0.30191 0.0
H1537 H 0.63842 0.83193 0.29677 0.0
H1538 H 0.68914 0.78913 0.30558 0.0
H1539 H 0.71251 0.81818 0.31186 0.0
C1540 C 0.62557 0.77817 0.26494 0.0
C1541 C 0.62882 0.75767 0.27143 0.0
C1542 C 0.63551 0.79457 0.27494 0.0
C1543 C 0.64878 0.79097 0.29188 0.0
C1544 C 0.65087 0.77058 0.29927 0.0
C1545 C 0.64105 0.75411 0.28912 0.0
C1546 C 0.66801 0.84519 0.3034 0.0
C1547 C 0.68914 0.84169 0.30711 0.0
C1548 C 0.65449 0.82861 0.30023 0.0
C1549 C 0.6619 0.80814 0.30016 0.0
C1550 C 0.68277 0.80463 0.30558 0.0
C1551 C 0.69623 0.82127 0.30919 0.0
H1552 H 0.9729 0.86795 0.00489 0.0
H1553 H 0.01912 0.90002 0.04115 0.0
H1554 H 0.94584 0.88728 0.02222 0.0
H1555 H 0.99186 0.91899 0.05911 0.0
H1556 H 0.89771 0.91903 0.05653 0.0
H1557 H 0.9264 0.89502 0.05193 0.0
H1558 H 0.9691 0.94664 0.05044 0.0
H1559 H 0.94035 0.97049 0.05611 0.0
C1560 C 0.97729 0.87872 0.01698 0.0
C1561 C 0.99823 0.88257 0.02141 0.0
C1562 C 0.96169 0.88979 0.02708 0.0
C1563 C 0.96659 0.9049 0.04204 0.0
C1564 C 0.9875 0.90778 0.04743 0.0
C1565 C 1.00314 0.89677 0.03721 0.0
C1566 C 0.91334 0.92514 0.05595 0.0
C1567 C 0.91684 0.9466 0.05653 0.0
C1568 C 0.92978 0.91141 0.05306 0.0
C1569 C 0.95006 0.91886 0.0502 0.0
C1570 C 0.95374 0.94026 0.05264 0.0
C1571 C 0.93727 0.954 0.05592 0.0
H1572 H 0.15749 0.64413 0.70576 0.0
H1573 H 0.20768 0.68704 0.69538 0.0
H1574 H 0.13381 0.67291 0.71135 0.0
H1575 H 0.18433 0.71597 0.70207 0.0
H1576 H 0.11217 0.72304 0.75727 0.0
H1577 H 0.12956 0.69476 0.73989 0.0
H1578 H 0.1555 0.73772 0.69549 0.0
H1579 H 0.13858 0.76627 0.71349 0.0
C1580 C 0.16333 0.6598 0.70426 0.0
C1581 C 0.18442 0.66341 0.70031 0.0
C1582 C 0.14982 0.67631 0.70769 0.0
C1583 C 0.1572 0.69681 0.70776 0.0
C1584 C 0.17799 0.70044 0.70208 0.0
C1585 C 0.19144 0.68386 0.69823 0.0
C1586 C 0.12123 0.72647 0.74357 0.0
C1587 C 0.12416 0.74699 0.73697 0.0
C1588 C 0.13117 0.71016 0.73344 0.0
C1589 C 0.14415 0.71388 0.71629 0.0
C1590 C 0.14597 0.73428 0.70886 0.0
C1591 C 0.13613 0.75065 0.71911 0.0
H1592 H 0.98293 0.39949 0.45958 0.0
H1593 H 0.02703 0.37054 0.5007 0.0
H1594 H 0.01117 0.41728 0.44181 0.0
H1595 H 0.05503 0.38873 0.48352 0.0
H1596 H 0.06283 0.46875 0.44238 0.0
H1597 H 0.03368 0.44556 0.44909 0.0
H1598 H 0.07605 0.39402 0.45437 0.0
H1599 H 0.10507 0.41745 0.44868 0.0
C1600 C 0.99866 0.39667 0.46465 0.0
C1601 C 1.00266 0.38367 0.48171 0.0
C1602 C 0.01486 0.40702 0.45454 0.0
C1603 C 0.03545 0.40467 0.46126 0.0
C1604 C 0.03948 0.39078 0.47761 0.0
C1605 C 0.02333 0.38037 0.48762 0.0
C1606 C 0.06579 0.45235 0.44431 0.0
C1607 C 0.08618 0.44492 0.44521 0.0
C1608 C 0.04908 0.43899 0.4482 0.0
C1609 C 0.05249 0.4179 0.45279 0.0
C1610 C 0.07283 0.41023 0.45156 0.0
C1611 C 0.08948 0.42361 0.44805 0.0
H1612 H 0.38792 0.59522 0.95731 0.0
H1613 H 0.43026 0.54631 0.94083 0.0
H1614 H 0.41694 0.61856 0.96331 0.0
H1615 H 0.4595 0.56926 0.94783 0.0
H1616 H 0.46958 0.63666 0.00812 0.0
H1617 H 0.44035 0.62057 0.99097 0.0
H1618 H 0.48073 0.59882 0.94219 0.0
H1619 H 0.51026 0.6144 0.95988 0.0
C1620 C 0.4035 0.58961 0.95458 0.0
C1621 C 0.4069 0.56894 0.94879 0.0
C1622 C 0.42015 0.60291 0.95822 0.0
C1623 C 0.44064 0.5957 0.95662 0.0
C1624 C 0.44398 0.57545 0.94916 0.0
C1625 C 0.42723 0.56223 0.94513 0.0
C1626 C 0.47222 0.62883 0.99352 0.0
C1627 C 0.49233 0.62662 0.98555 0.0
C1628 C 0.45536 0.61964 0.98354 0.0
C1629 C 0.45812 0.60817 0.9652 0.0
C1630 C 0.47806 0.60717 0.95648 0.0
C1631 C 0.49498 0.61625 0.96656 0.0
H1632 H 0.698 0.79023 0.82763 0.0
H1633 H 0.70599 0.84267 0.86823 0.0
H1634 H 0.70363 0.81259 0.79768 0.0
H1635 H 0.71064 0.86527 0.83839 0.0
H1636 H 0.7125 0.85687 0.74544 0.0
H1637 H 0.69541 0.84039 0.77484 0.0
H1638 H 0.73929 0.86947 0.81624 0.0
H1639 H 0.75583 0.88636 0.78707 0.0
C1640 C 0.7001 0.80669 0.83008 0.0
C1641 C 0.70184 0.81469 0.85021 0.0
C1642 C 0.70334 0.81957 0.81291 0.0
C1643 C 0.70809 0.84072 0.8156 0.0
C1644 C 0.70767 0.84898 0.83574 0.0
C1645 C 0.70479 0.83607 0.85284 0.0
C1646 C 0.71822 0.86009 0.76088 0.0
C1647 C 0.73569 0.8728 0.76387 0.0
C1648 C 0.70848 0.85051 0.77774 0.0
C1649 C 0.71603 0.85337 0.79796 0.0
C1650 C 0.73278 0.86705 0.80098 0.0
C1651 C 0.74241 0.87671 0.78417 0.0
H1652 H 0.41204 0.44563 0.10354 0.0
H1653 H 0.46028 0.43731 0.05809 0.0
H1654 H 0.38737 0.45359 0.07616 0.0
H1655 H 0.43596 0.44632 0.03062 0.0
H1656 H 0.38858 0.46164 0.983 0.0
H1657 H 0.4062 0.4416 0.0097 0.0
H1658 H 0.38277 0.48356 0.05629 0.0
H1659 H 0.36464 0.50298 0.02979 0.0
C1660 C 0.41723 0.44508 0.08759 0.0
C1661 C 0.43807 0.44101 0.0829 0.0
C1662 C 0.40316 0.44987 0.07189 0.0
C1663 C 0.40972 0.45119 0.05116 0.0
C1664 C 0.43023 0.4454 0.04635 0.0
C1665 C 0.44424 0.4402 0.06209 0.0
C1666 C 0.38683 0.4663 0.99901 0.0
C1667 C 0.37533 0.48406 0.00422 0.0
C1668 C 0.39708 0.45488 0.01432 0.0
C1669 C 0.39618 0.46101 0.0352 0.0
C1670 C 0.38367 0.47809 0.04047 0.0
C1671 C 0.3733 0.48938 0.02521 0.0
H1672 H 0.79841 0.16178 0.36084 0.0
H1673 H 0.81237 0.21417 0.32177 0.0
H1674 H 0.79664 0.13944 0.33052 0.0
H1675 H 0.80953 0.19219 0.29125 0.0
H1676 H 0.75663 0.12017 0.27423 0.0
H1677 H 0.77103 0.13543 0.30535 0.0
H1678 H 0.81891 0.16496 0.26892 0.0
H1679 H 0.80386 0.15028 0.23758 0.0
C1680 C 0.80153 0.16841 0.34574 0.0
C1681 C 0.80535 0.18972 0.34361 0.0
C1682 C 0.8003 0.15566 0.32832 0.0
C1683 C 0.80236 0.16402 0.3083 0.0
C1684 C 0.80794 0.18507 0.30635 0.0
C1685 C 0.80957 0.19775 0.32386 0.0
C1686 C 0.77053 0.12949 0.27288 0.0
C1687 C 0.77888 0.13423 0.25337 0.0
C1688 C 0.77891 0.13824 0.29082 0.0
C1689 C 0.79605 0.15175 0.28973 0.0
C1690 C 0.80543 0.15507 0.27035 0.0
C1691 C 0.79689 0.1465 0.25237 0.0
H1692 H 0.03711 0.56268 0.5707 0.0
H1693 H 0.0882 0.55187 0.61232 0.0
H1694 H 0.05993 0.55676 0.54115 0.0
H1695 H 0.11133 0.54699 0.58294 0.0
H1696 H 0.10512 0.54691 0.48974 0.0
H1697 H 0.08848 0.56409 0.51898 0.0
H1698 H 0.11508 0.51877 0.56044 0.0
H1699 H 0.13215 0.50217 0.5315 0.0
C1700 C 0.05342 0.5599 0.57347 0.0
C1701 C 0.06086 0.55748 0.59374 0.0
C1702 C 0.06657 0.55649 0.55654 0.0
C1703 C 0.08745 0.55088 0.55962 0.0
C1704 C 0.09523 0.55062 0.57996 0.0
C1705 C 0.08204 0.55363 0.59681 0.0
C1706 C 0.10777 0.5409 0.50518 0.0
C1707 C 0.11984 0.52302 0.50823 0.0
C1708 C 0.09809 0.55069 0.52194 0.0
C1709 C 0.10021 0.54278 0.54213 0.0
C1710 C 0.11325 0.52558 0.54523 0.0
C1711 C 0.123 0.5159 0.52854 0.0
H1712 H 0.68531 0.21741 0.69889 0.0
H1713 H 0.68806 0.17311 0.64894 0.0
H1714 H 0.69931 0.19174 0.72257 0.0
H1715 H 0.70201 0.14715 0.67275 0.0
H1716 H 0.75324 0.11939 0.71585 0.0
H1717 H 0.73383 0.14048 0.6913 0.0
H1718 H 0.69292 0.16 0.74051 0.0
H1719 H 0.71264 0.13937 0.76512 0.0
C1720 C 0.68867 0.20207 0.693 0.0
C1721 C 0.68594 0.1974 0.67193 0.0
C1722 C 0.69662 0.18726 0.70664 0.0
C1723 C 0.7019 0.16732 0.69961 0.0
C1724 C 0.69846 0.16243 0.67865 0.0
C1725 C 0.69049 0.17729 0.665 0.0
C1726 C 0.73987 0.12786 0.72137 0.0
C1727 C 0.73468 0.12785 0.74253 0.0
C1728 C 0.72868 0.13995 0.70725 0.0
C1729 C 0.71197 0.15224 0.71395 0.0
C1730 C 0.70599 0.15115 0.73488 0.0
C1731 C 0.71723 0.13917 0.74898 0.0
H1732 H 0.04209 0.44683 0.9372 0.0
H1733 H 0.09308 0.45498 0.89477 0.0
H1734 H 0.06533 0.45329 0.96632 0.0
H1735 H 0.11657 0.46044 0.92375 0.0
H1736 H 0.13911 0.50626 0.97372 0.0
H1737 H 0.1213 0.48928 0.94539 0.0
H1738 H 0.09391 0.44579 0.98836 0.0
H1739 H 0.11129 0.46334 0.01694 0.0
C1740 C 0.05844 0.44916 0.93418 0.0
C1741 C 0.06576 0.45067 0.91377 0.0
C1742 C 0.07182 0.45288 0.95086 0.0
C1743 C 0.09282 0.45788 0.94741 0.0
C1744 C 0.10041 0.45729 0.927 0.0
C1745 C 0.087 0.45394 0.91038 0.0
C1746 C 0.12963 0.49283 0.97714 0.0
C1747 C 0.12647 0.48636 0.99766 0.0
C1748 C 0.11945 0.48295 0.96081 0.0
C1749 C 0.10597 0.46617 0.96452 0.0
C1750 C 0.10385 0.45887 0.98494 0.0
C1751 C 0.11395 0.46886 1.00132 0.0
H1752 H 0.75082 0.88728 0.22316 0.0
H1753 H 0.79353 0.85962 0.26659 0.0
H1754 H 0.76842 0.87014 0.19484 0.0
H1755 H 0.81175 0.84293 0.23802 0.0
H1756 H 0.8031 0.84278 0.14427 0.0
H1757 H 0.79741 0.866 0.17342 0.0
H1758 H 0.80501 0.81454 0.21561 0.0
H1759 H 0.81178 0.79163 0.18633 0.0
C1760 C 0.76434 0.87798 0.22663 0.0
C1761 C 0.77057 0.87465 0.2472 0.0
C1762 C 0.77459 0.86819 0.21031 0.0
C1763 C 0.79151 0.85495 0.21407 0.0
C1764 C 0.79857 0.85269 0.23455 0.0
C1765 C 0.78819 0.86239 0.25093 0.0
C1766 C 0.80422 0.83662 0.15984 0.0
C1767 C 0.80771 0.81541 0.16309 0.0
C1768 C 0.80074 0.84987 0.17656 0.0
C1769 C 0.80015 0.8421 0.1969 0.0
C1770 C 0.8054 0.82116 0.20021 0.0
C1771 C 0.8093 0.80796 0.18343 0.0
H1772 H 0.39129 0.54688 0.51574 0.0
H1773 H 0.36598 0.5016 0.47347 0.0
H1774 H 0.4081 0.56451 0.48683 0.0
H1775 H 0.38323 0.51867 0.44484 0.0
H1776 H 0.41021 0.55267 0.39349 0.0
H1777 H 0.38671 0.54711 0.42248 0.0
H1778 H 0.43721 0.5579 0.46513 0.0
H1779 H 0.46039 0.56447 0.43596 0.0
C1780 C 0.38905 0.54084 0.50026 0.0
C1781 C 0.3774 0.52269 0.49697 0.0
C1782 C 0.39883 0.55088 0.48369 0.0
C1783 C 0.39725 0.54298 0.46345 0.0
C1784 C 0.38464 0.52548 0.4601 0.0
C1785 C 0.37478 0.51554 0.47661 0.0
C1786 C 0.41608 0.55452 0.40911 0.0
C1787 C 0.43712 0.55885 0.41253 0.0
C1788 C 0.40268 0.55111 0.42574 0.0
C1789 C 0.41013 0.55146 0.4462 0.0
C1790 C 0.43084 0.55755 0.44963 0.0
C1791 C 0.44418 0.56135 0.43292 0.0
H1792 H 0.74825 0.71337 0.87402 0.0
H1793 H 0.78927 0.76191 0.89504 0.0
H1794 H 0.77719 0.69644 0.85668 0.0
H1795 H 0.81792 0.74549 0.87721 0.0
H1796 H 0.82514 0.69571 0.80206 0.0
H1797 H 0.79692 0.70262 0.82626 0.0
H1798 H 0.84158 0.71823 0.87368 0.0
H1799 H 0.86956 0.71229 0.84912 0.0
C1800 C 0.7635 0.72028 0.87521 0.0
C1801 C 0.76638 0.73913 0.88579 0.0
C1802 C 0.78008 0.71064 0.86512 0.0
C1803 C 0.79992 0.71965 0.86526 0.0
C1804 C 0.80298 0.73786 0.8769 0.0
C1805 C 0.78647 0.7474 0.88712 0.0
C1806 C 0.82886 0.70005 0.81783 0.0
C1807 C 0.84947 0.70371 0.82366 0.0
C1808 C 0.8127 0.70403 0.83177 0.0
C1809 C 0.8169 0.71145 0.85189 0.0
C1810 C 0.83769 0.71316 0.85818 0.0
C1811 C 0.85375 0.70956 0.84417 0.0
H1812 H 0.5433 0.48025 0.09796 0.0
H1813 H 0.50188 0.52147 0.13049 0.0
H1814 H 0.56068 0.50998 0.08237 0.0
H1815 H 0.51861 0.55097 0.11445 0.0
H1816 H 0.55883 0.56498 0.03481 0.0
H1817 H 0.5528 0.53423 0.05594 0.0
H1818 H 0.54728 0.57281 0.11038 0.0
H1819 H 0.55223 0.60347 0.08898 0.0
C1820 C 0.53807 0.49565 0.10202 0.0
C1821 C 0.52105 0.49844 0.11535 0.0
C1822 C 0.54796 0.51271 0.09295 0.0
C1823 C 0.54099 0.53296 0.09691 0.0
C1824 C 0.5247 0.53571 0.11117 0.0
C1825 C 0.51495 0.5187 0.12034 0.0
C1826 C 0.55694 0.56678 0.05138 0.0
C1827 C 0.55573 0.58658 0.06023 0.0
C1828 C 0.55347 0.54914 0.06356 0.0
C1829 C 0.54905 0.551 0.08488 0.0
C1830 C 0.54997 0.57078 0.09396 0.0
C1831 C 0.55303 0.58836 0.08174 0.0
H1832 H 0.68426 0.2983 0.27824 0.0
H1833 H 0.63835 0.29988 0.32677 0.0
H1834 H 0.71074 0.28916 0.30354 0.0
H1835 H 0.6648 0.29039 0.35219 0.0
H1836 H 0.7574 0.28747 0.35475 0.0
H1837 H 0.73 0.30228 0.33351 0.0
H1838 H 0.686 0.2596 0.36036 0.0
H1839 H 0.71336 0.24486 0.38181 0.0
C1840 C 0.67984 0.29681 0.29435 0.0
C1841 C 0.65911 0.2993 0.30046 0.0
C1842 C 0.69504 0.29166 0.3089 0.0
C1843 C 0.68988 0.28892 0.3299 0.0
C1844 C 0.66923 0.29202 0.33609 0.0
C1845 C 0.65406 0.29731 0.32154 0.0
C1846 C 0.74182 0.28147 0.35646 0.0
C1847 C 0.73767 0.2648 0.36989 0.0
C1848 C 0.72614 0.28988 0.34413 0.0
C1849 C 0.70588 0.28191 0.34498 0.0
C1850 C 0.70142 0.26615 0.35936 0.0
C1851 C 0.71714 0.25767 0.37166 0.0
H1852 H 1.00095 0.47215 0.6374 0.0
H1853 H 0.95734 0.51595 0.61186 0.0
H1854 H 0.98361 0.44427 0.61924 0.0
H1855 H 0.93941 0.48781 0.59414 0.0
H1856 H 0.93891 0.43802 0.54102 0.0
H1857 H 0.94594 0.46653 0.56485 0.0
H1858 H 0.95488 0.4226 0.61461 0.0
H1859 H 0.9489 0.39425 0.59047 0.0
C1860 C 0.98729 0.47578 0.62836 0.0
C1861 C 0.98072 0.49636 0.62595 0.0
C1862 C 0.9772 0.4597 0.61797 0.0
C1863 C 0.9601 0.46371 0.60502 0.0
C1864 C 0.95273 0.48415 0.60365 0.0
C1865 C 0.96294 0.50029 0.61395 0.0
C1866 C 0.94174 0.43457 0.5572 0.0
C1867 C 0.94358 0.41398 0.56389 0.0
C1868 C 0.9458 0.4509 0.57092 0.0
C1869 C 0.95149 0.4469 0.59164 0.0
C1870 C 0.95121 0.42629 0.59866 0.0
C1871 C 0.94755 0.41003 0.5849 0.0
H1872 H 0.82524 0.30449 0.72637 0.0
H1873 H 0.86048 0.29077 0.67122 0.0
H1874 H 0.79317 0.29696 0.70764 0.0
H1875 H 0.82857 0.28369 0.65245 0.0
H1876 H 0.73754 0.28759 0.66531 0.0
H1877 H 0.76855 0.30424 0.67915 0.0
H1878 H 0.80579 0.25381 0.65592 0.0
H1879 H 0.77501 0.23731 0.64192 0.0
C1880 C 0.82608 0.30064 0.71006 0.0
C1881 C 0.84535 0.29791 0.70033 0.0
C1882 C 0.80772 0.29627 0.69932 0.0
C1883 C 0.80838 0.28925 0.67868 0.0
C1884 C 0.82758 0.28854 0.66848 0.0
C1885 C 0.84584 0.29275 0.6792 0.0
C1886 C 0.75238 0.28018 0.66289 0.0
C1887 C 0.75373 0.26102 0.65255 0.0
C1888 C 0.77013 0.2897 0.67093 0.0
C1889 C 0.78964 0.28039 0.66863 0.0
C1890 C 0.79105 0.26159 0.6577 0.0
C1891 C 0.77334 0.25203 0.64978 0.0
H1892 H 0.9466 0.57294 0.96294 0.0
H1893 H 0.95954 0.61607 0.91357 0.0
H1894 H 0.95279 0.54408 0.93934 0.0
H1895 H 0.96469 0.58741 0.88964 0.0
H1896 H 0.00879 0.53568 0.86791 0.0
H1897 H 0.99236 0.56444 0.88547 0.0
H1898 H 0.94576 0.52304 0.91007 0.0
H1899 H 0.96278 0.494 0.89298 0.0
C1900 C 0.94994 0.57621 0.94682 0.0
C1901 C 0.95284 0.59668 0.94012 0.0
C1902 C 0.9535 0.55968 0.93323 0.0
C1903 C 0.95973 0.56335 0.9126 0.0
C1904 C 0.96057 0.58394 0.90552 0.0
C1905 C 0.95741 0.60039 0.91918 0.0
C1906 C 0.9948 0.53272 0.87669 0.0
C1907 C 0.98729 0.51246 0.8792 0.0
C1908 C 0.98524 0.54931 0.88674 0.0
C1909 C 0.96775 0.54613 0.89942 0.0
C1910 C 0.95941 0.52604 0.90079 0.0
C1911 C 0.9691 0.50939 0.89085 0.0
H1912 H 0.6861 0.6939 0.21295 0.0
H1913 H 0.64329 0.70563 0.16306 0.0
H1914 H 0.71511 0.70104 0.18973 0.0
H1915 H 0.67212 0.71172 0.13951 0.0
H1916 H 0.76549 0.71213 0.14362 0.0
H1917 H 0.73671 0.69459 0.16072 0.0
H1918 H 0.69447 0.73997 0.1355 0.0
H1919 H 0.72299 0.75691 0.11792 0.0
C1920 C 0.68295 0.69718 0.1968 0.0
C1921 C 0.6625 0.69944 0.18984 0.0
C1922 C 0.69957 0.70129 0.18342 0.0
C1923 C 0.69601 0.70745 0.16276 0.0
C1924 C 0.67549 0.70769 0.15543 0.0
C1925 C 0.65895 0.70397 0.16886 0.0
C1926 C 0.74998 0.71808 0.14137 0.0
C1927 C 0.7466 0.73606 0.1295 0.0
C1928 C 0.73347 0.70809 0.15133 0.0
C1929 C 0.7132 0.7159 0.14975 0.0
C1930 C 0.70975 0.73322 0.13692 0.0
C1931 C 0.7262 0.74309 0.12686 0.0
H1932 H 0.49785 0.47445 0.37301 0.0
H1933 H 0.54254 0.51942 0.39447 0.0
H1934 H 0.51548 0.44761 0.39243 0.0
H1935 H 0.56078 0.49231 0.41336 0.0
H1936 H 0.55115 0.39935 0.42367 0.0
H1937 H 0.54392 0.42596 0.39796 0.0
H1938 H 0.55507 0.47322 0.44407 0.0
H1939 H 0.56333 0.44647 0.46943 0.0
C1940 C 0.51181 0.47851 0.38139 0.0
C1941 C 0.51861 0.49915 0.38235 0.0
C1942 C 0.52206 0.46304 0.39252 0.0
C1943 C 0.53954 0.46773 0.40472 0.0
C1944 C 0.54714 0.48816 0.40453 0.0
C1945 C 0.53676 0.50369 0.39354 0.0
C1946 C 0.5526 0.41547 0.42811 0.0
C1947 C 0.55762 0.42086 0.44858 0.0
C1948 C 0.54825 0.43074 0.41343 0.0
C1949 C 0.54838 0.4518 0.41897 0.0
C1950 C 0.55491 0.45721 0.43911 0.0
C1951 C 0.55963 0.44188 0.45372 0.0
H1952 H 0.84249 0.86082 0.70539 0.0
H1953 H 0.79273 0.81673 0.69859 0.0
H1954 H 0.86696 0.83265 0.71072 0.0
H1955 H 0.81689 0.78845 0.70508 0.0
H1956 H 0.89155 0.78438 0.75719 0.0
H1957 H 0.87308 0.8118 0.73955 0.0
H1958 H 0.8456 0.76691 0.69813 0.0
H1959 H 0.86359 0.73924 0.71647 0.0
C1960 C 0.8369 0.845 0.70461 0.0
C1961 C 0.81573 0.84091 0.70174 0.0
C1962 C 0.85087 0.82885 0.7079 0.0
C1963 C 0.84389 0.80822 0.70894 0.0
C1964 C 0.82294 0.80407 0.70432 0.0
C1965 C 0.80901 0.82028 0.70059 0.0
C1966 C 0.88192 0.78035 0.74406 0.0
C1967 C 0.87887 0.75956 0.73846 0.0
C1968 C 0.87135 0.79616 0.73378 0.0
C1969 C 0.85761 0.79166 0.71743 0.0
C1970 C 0.85569 0.77096 0.7109 0.0
C1971 C 0.86614 0.75509 0.72133 0.0
H1972 H 0.29158 0.68716 0.31019 0.0
H1973 H 0.34146 0.64404 0.29971 0.0
H1974 H 0.31507 0.71598 0.30314 0.0
H1975 H 0.36524 0.67271 0.29369 0.0
H1976 H 0.36167 0.76601 0.29213 0.0
H1977 H 0.34419 0.73753 0.30979 0.0
H1978 H 0.36956 0.69465 0.2651 0.0
H1979 H 0.38749 0.72288 0.24801 0.0
C1980 C 0.30777 0.68391 0.30723 0.0
C1981 C 0.31467 0.66341 0.30528 0.0
C1982 C 0.3213 0.70043 0.30316 0.0
C1983 C 0.34203 0.69671 0.29735 0.0
C1984 C 0.34928 0.67618 0.29746 0.0
C1985 C 0.33571 0.65974 0.30114 0.0
C1986 C 0.36387 0.75042 0.28635 0.0
C1987 C 0.37588 0.74678 0.26852 0.0
C1988 C 0.3537 0.73409 0.29641 0.0
C1989 C 0.35522 0.71373 0.28883 0.0
C1990 C 0.36817 0.71001 0.27166 0.0
C1991 C 0.37843 0.72629 0.26171 0.0
H1992 H 0.53437 0.13361 0.49857 0.0
H1993 H 0.4907 0.1098 0.54339 0.0
H1994 H 0.56218 0.11536 0.51593 0.0
H1995 H 0.51877 0.09202 0.56131 0.0
H1996 H 0.56761 0.03837 0.56323 0.0
H1997 H 0.53946 0.06226 0.55522 0.0
H1998 H 0.58409 0.11111 0.54456 0.0
H1999 H 0.6121 0.08691 0.5516 0.0
C2000 C 0.53077 0.12494 0.51248 0.0
C2001 C 0.51024 0.12303 0.51941 0.0
C2002 C 0.5468 0.11449 0.52257 0.0
C2003 C 0.54278 0.102 0.54002 0.0
C2004 C 0.52241 0.10114 0.54771 0.0
C2005 C 0.50633 0.11149 0.53751 0.0
C2006 C 0.57131 0.05436 0.55972 0.0
C2007 C 0.59201 0.06073 0.55778 0.0
C2008 C 0.55518 0.06812 0.55512 0.0
C2009 C 0.55946 0.08859 0.54878 0.0
C2010 C 0.58018 0.09534 0.54875 0.0
C2011 C 0.59626 0.08153 0.55299 0.0
H2012 H 0.21178 0.32115 0.80876 0.0
H2013 H 0.16178 0.36364 0.79643 0.0
H2014 H 0.18849 0.292 0.80262 0.0
H2015 H 0.13815 0.33467 0.79137 0.0
H2016 H 0.14292 0.2413 0.79219 0.0
H2017 H 0.15949 0.27046 0.80958 0.0
H2018 H 0.13431 0.31192 0.76344 0.0
H2019 H 0.11726 0.28305 0.74664 0.0
C2020 C 0.19559 0.32421 0.80558 0.0
C2021 C 0.18861 0.34458 0.8028 0.0
C2022 C 0.18217 0.30751 0.80206 0.0
C2023 C 0.16146 0.31093 0.79601 0.0
C2024 C 0.15411 0.33141 0.79535 0.0
C2025 C 0.16759 0.34803 0.79846 0.0
C2026 C 0.14054 0.25673 0.78606 0.0
C2027 C 0.12891 0.2598 0.76788 0.0
C2028 C 0.15019 0.27344 0.79596 0.0
C2029 C 0.14851 0.29359 0.78785 0.0
C2030 C 0.13581 0.29674 0.77039 0.0
C2031 C 0.12606 0.28009 0.76061 0.0
H2032 H 0.43378 0.47054 0.56646 0.0
H2033 H 0.39433 0.41758 0.55627 0.0
H2034 H 0.46426 0.4487 0.56223 0.0
H2035 H 0.42464 0.3954 0.55322 0.0
H2036 H 0.47858 0.37441 0.51138 0.0
H2037 H 0.44834 0.39064 0.52649 0.0
H2038 H 0.48727 0.42194 0.57112 0.0
H2039 H 0.51774 0.40626 0.55529 0.0
C2040 C 0.43166 0.45406 0.56417 0.0
C2041 C 0.41176 0.44578 0.56143 0.0
C2042 C 0.44915 0.44145 0.56175 0.0
C2043 C 0.44701 0.42026 0.55689 0.0
C2044 C 0.42696 0.41172 0.55626 0.0
C2045 C 0.40955 0.42438 0.55824 0.0
C2046 C 0.48069 0.38439 0.5247 0.0
C2047 C 0.50062 0.38923 0.53193 0.0
C2048 C 0.46326 0.39369 0.5335 0.0
C2049 C 0.46526 0.40786 0.54998 0.0
C2050 C 0.48512 0.4115 0.55818 0.0
C2051 C 0.5026 0.40237 0.54919 0.0
H2052 H 0.6229 0.21138 0.26574 0.0
H2053 H 0.63876 0.26541 0.22961 0.0
H2054 H 0.64493 0.19024 0.24401 0.0
H2055 H 0.66107 0.24394 0.20749 0.0
H2056 H 0.72035 0.19854 0.19934 0.0
H2057 H 0.69467 0.22375 0.21155 0.0
H2058 H 0.64731 0.17654 0.20892 0.0
H2059 H 0.67294 0.15144 0.19741 0.0
C2060 C 0.63097 0.21874 0.25299 0.0
C2061 C 0.62911 0.24012 0.2495 0.0
C2062 C 0.6435 0.20655 0.24037 0.0
C2063 C 0.65466 0.21533 0.22386 0.0
C2064 C 0.65267 0.23672 0.22009 0.0
C2065 C 0.63983 0.24899 0.2327 0.0
C2066 C 0.7043 0.19382 0.20069 0.0
C2067 C 0.69865 0.17301 0.19768 0.0
C2068 C 0.68959 0.20823 0.20772 0.0
C2069 C 0.66904 0.202 0.21169 0.0
C2070 C 0.6631 0.1817 0.20653 0.0
C2071 C 0.67775 0.16735 0.19978 0.0
H2072 H 0.49616 0.8902 0.95714 0.0
H2073 H 0.5379 0.86343 1.00204 0.0
H2074 H 0.52512 0.90837 0.94103 0.0
H2075 H 0.56653 0.88209 0.98661 0.0
H2076 H 0.57371 0.96231 0.94525 0.0
H2077 H 0.54539 0.93759 0.94955 0.0
H2078 H 0.58987 0.88864 0.95995 0.0
H2079 H 0.61793 0.91369 0.95683 0.0
C2080 C 0.51156 0.88788 0.96336 0.0
C2081 C 0.51464 0.8755 0.98104 0.0
C2082 C 0.52817 0.89848 0.95422 0.0
C2083 C 0.54822 0.89705 0.96263 0.0
C2084 C 0.55145 0.8835 0.97944 0.0
C2085 C 0.53492 0.87278 0.98843 0.0
C2086 C 0.57736 0.94615 0.94785 0.0
C2087 C 0.59793 0.93992 0.95093 0.0
C2088 C 0.56114 0.9319 0.95032 0.0
C2089 C 0.56525 0.91109 0.95559 0.0
C2090 C 0.58602 0.90461 0.95657 0.0
C2091 C 0.60214 0.9189 0.95456 0.0
H2092 H 0.00863 0.11355 0.45973 0.0
H2093 H 0.96786 0.13882 0.50636 0.0
H2094 H 0.97915 0.0969 0.44298 0.0
H2095 H 0.93867 0.12167 0.49021 0.0
H2096 H 0.92899 0.04428 0.44468 0.0
H2097 H 0.95806 0.06777 0.45033 0.0
H2098 H 0.9152 0.11762 0.46294 0.0
H2099 H 0.88632 0.09378 0.45835 0.0
C2100 C 0.99334 0.11582 0.46624 0.0
C2101 C 0.99065 0.12736 0.48453 0.0
C2102 C 0.97644 0.10613 0.45671 0.0
C2103 C 0.95648 0.10765 0.46532 0.0
C2104 C 0.95369 0.12028 0.48288 0.0
C2105 C 0.97052 0.13009 0.49228 0.0
C2106 C 0.92585 0.0604 0.44808 0.0
C2107 C 0.90547 0.06717 0.45136 0.0
C2108 C 0.94251 0.07394 0.45132 0.0
C2109 C 0.93905 0.09457 0.45758 0.0
C2110 C 0.91851 0.10173 0.45879 0.0
C2111 C 0.90194 0.08812 0.45596 0.0
H2112 H 0.16073 0.40832 0.48984 0.0
H2113 H 0.20939 0.44362 0.46061 0.0
H2114 H 0.17861 0.3766 0.48203 0.0
H2115 H 0.22873 0.41182 0.45448 0.0
H2116 H 0.23853 0.35351 0.41572 0.0
H2117 H 0.22918 0.38556 0.43223 0.0
H2118 H 0.20182 0.35121 0.48305 0.0
H2119 H 0.20953 0.31896 0.46504 0.0
C2120 C 0.17576 0.40932 0.48242 0.0
C2121 C 0.18352 0.42844 0.47557 0.0
C2122 C 0.18623 0.39096 0.47801 0.0
C2123 C 0.20517 0.3912 0.46715 0.0
C2124 C 0.21385 0.41067 0.46209 0.0
C2125 C 0.20293 0.42904 0.46585 0.0
C2126 C 0.23081 0.35279 0.43061 0.0
C2127 C 0.22449 0.33372 0.43894 0.0
C2128 C 0.22551 0.37135 0.4403 0.0
C2129 C 0.21424 0.3714 0.459 0.0
C2130 C 0.20971 0.35209 0.46829 0.0
C2131 C 0.21437 0.33348 0.45815 0.0
H2132 H 0.93452 0.94594 0.70663 0.0
H2133 H 0.90989 0.00354 0.68319 0.0
H2134 H 0.90161 0.93882 0.72366 0.0
H2135 H 0.87701 0.99648 0.70041 0.0
H2136 H 0.81763 0.95336 0.69821 0.0
H2137 H 0.85046 0.97063 0.69128 0.0
H2138 H 0.87483 0.94781 0.74923 0.0
H2139 H 0.84204 0.93035 0.7561 0.0
C2140 C 0.92233 0.95741 0.70565 0.0
C2141 C 0.92476 0.97515 0.69329 0.0
C2142 C 0.90342 0.95336 0.71548 0.0
C2143 C 0.88655 0.96695 0.71312 0.0
C2144 C 0.88958 0.98554 0.70222 0.0
C2145 C 0.9085 0.98963 0.69247 0.0
C2146 C 0.82975 0.95252 0.70977 0.0
C2147 C 0.82729 0.94021 0.72755 0.0
C2148 C 0.84861 0.96249 0.70583 0.0
C2149 C 0.8654 0.96033 0.71957 0.0
C2150 C 0.86232 0.94947 0.73818 0.0
C2151 C 0.84346 0.93957 0.74215 0.0
H2152 H 0.24785 0.66445 0.93191 0.0
H2153 H 0.30603 0.68705 0.95609 0.0
H2154 H 0.25401 0.63097 0.94821 0.0
H2155 H 0.31223 0.65353 0.97224 0.0
H2156 H 0.31859 0.5929 1.00341 0.0
H2157 H 0.30225 0.62635 0.99718 0.0
H2158 H 0.27921 0.60406 0.93849 0.0
H2159 H 0.2954 0.5706 0.94474 0.0
C2160 C 0.26171 0.66248 0.94115 0.0
C2161 C 0.27661 0.67837 0.94245 0.0
C2162 C 0.26527 0.64322 0.95038 0.0
C2163 C 0.28374 0.63945 0.96124 0.0
C2164 C 0.29778 0.65591 0.96407 0.0
C2165 C 0.29426 0.67517 0.95476 0.0
C2166 C 0.30954 0.59492 0.98943 0.0
C2167 C 0.30854 0.57914 0.97443 0.0
C2168 C 0.30029 0.61416 0.98582 0.0
C2169 C 0.28971 0.618 0.96721 0.0
C2170 C 0.28716 0.60162 0.95305 0.0
C2171 C 0.29649 0.5824 0.95661 0.0
H2172 H 0.70344 0.07127 0.16499 0.0
H2173 H 0.68272 0.06229 0.22793 0.0
H2174 H 0.67306 0.05325 0.15232 0.0
H2175 H 0.65274 0.04306 0.21537 0.0
H2176 H 0.58814 0.04716 0.18479 0.0
H2177 H 0.62177 0.053 0.2003 0.0
H2178 H 0.65126 0.02523 0.14694 0.0
H2179 H 0.61739 0.02047 0.13092 0.0
C2180 C 0.69276 0.06475 0.17618 0.0
C2181 C 0.6953 0.06852 0.19745 0.0
C2182 C 0.67526 0.05426 0.16891 0.0
C2183 C 0.66004 0.04697 0.18276 0.0
C2184 C 0.66372 0.049 0.20417 0.0
C2185 C 0.68105 0.05984 0.21142 0.0
C2186 C 0.60177 0.04191 0.17652 0.0
C2187 C 0.60009 0.03363 0.15649 0.0
C2188 C 0.62118 0.04514 0.18551 0.0
C2189 C 0.63946 0.03987 0.17483 0.0
C2190 C 0.63763 0.03001 0.15545 0.0
C2191 C 0.61818 0.0271 0.14631 0.0
H2192 H 0.25459 0.6647 0.07329 0.0
H2193 H 0.19638 0.6875 0.04948 0.0
H2194 H 0.24822 0.6313 0.05689 0.0
H2195 H 0.18995 0.65406 0.03328 0.0
H2196 H 0.20686 0.57089 0.06033 0.0
H2197 H 0.22324 0.6043 0.06654 0.0
H2198 H 0.19934 0.627 0.00835 0.0
H2199 H 0.18276 0.59363 1.00221 0.0
C2200 C 0.24068 0.66279 0.06411 0.0
C2201 C 0.22584 0.6787 0.06294 0.0
C2202 C 0.23699 0.64357 0.05483 0.0
C2203 C 0.21844 0.63987 0.04407 0.0
C2204 C 0.20446 0.65638 0.04137 0.0
C2205 C 0.20812 0.67559 0.05071 0.0
C2206 C 0.20561 0.58278 0.04856 0.0
C2207 C 0.19324 0.57966 0.03094 0.0
C2208 C 0.21506 0.60197 0.05209 0.0
C2209 C 0.21233 0.61846 0.03807 0.0
C2210 C 0.20143 0.61475 0.01961 0.0
C2211 C 0.19204 0.59555 0.01606 0.0
H2212 H 0.66256 0.93023 0.25218 0.0
H2213 H 0.68621 0.95409 0.31005 0.0
H2214 H 0.62939 0.94696 0.25879 0.0
H2215 H 0.65301 0.97066 0.3167 0.0
H2216 H 0.59293 1.00241 0.32408 0.0
H2217 H 0.62606 0.99588 0.30718 0.0
H2218 H 0.60269 0.9375 0.28435 0.0
H2219 H 0.56954 0.94408 0.30109 0.0
C2220 C 0.66089 0.9395 0.26606 0.0
C2221 C 0.67696 0.94058 0.28075 0.0
C2222 C 0.64181 0.94898 0.26988 0.0
C2223 C 0.63843 0.95986 0.2884 0.0
C2224 C 0.6551 0.96248 0.30221 0.0
C2225 C 0.67417 0.95293 0.29843 0.0
C2226 C 0.59464 0.98844 0.31497 0.0
C2227 C 0.57867 0.97361 0.31418 0.0
C2228 C 0.6137 0.98466 0.30539 0.0
C2229 C 0.61714 0.96604 0.2947 0.0
C2230 C 0.60055 0.95207 0.29238 0.0
C2231 C 0.58151 0.95581 0.30203 0.0
H2232 H 0.32626 0.4134 0.50257 0.0
H2233 H 0.29957 0.43594 0.55962 0.0
H2234 H 0.31024 0.3797 0.50837 0.0
H2235 H 0.28377 0.40219 0.56553 0.0
H2236 H 0.2533 0.34127 0.57152 0.0
H2237 H 0.2597 0.37475 0.55527 0.0
H2238 H 0.31905 0.35283 0.53358 0.0
H2239 H 0.31257 0.31931 0.5496 0.0
C2240 C 0.31656 0.41134 0.5161 0.0
C2241 C 0.31442 0.4273 0.53078 0.0
C2242 C 0.30748 0.39196 0.51948 0.0
C2243 C 0.29599 0.38812 0.53756 0.0
C2244 C 0.29242 0.40461 0.55136 0.0
C2245 C 0.30154 0.424 0.54801 0.0
C2246 C 0.26747 0.34338 0.56278 0.0
C2247 C 0.28256 0.32769 0.56211 0.0
C2248 C 0.27118 0.36265 0.55359 0.0
C2249 C 0.29002 0.36661 0.54343 0.0
C2250 C 0.30431 0.35031 0.54119 0.0
C2251 C 0.30062 0.33105 0.55043 0.0
H2252 H 0.90952 0.99201 0.81283 0.0
H2253 H 0.93339 0.04912 0.78733 0.0
H2254 H 0.8763 0.99832 0.79604 0.0
H2255 H 0.90014 0.05551 0.77076 0.0
H2256 H 0.83995 0.06345 0.73991 0.0
H2257 H 0.87281 0.04595 0.74612 0.0
H2258 H 0.84981 0.02396 0.80498 0.0
H2259 H 0.81693 0.04124 0.7987 0.0
C2260 C 0.90788 0.00566 0.80321 0.0
C2261 C 0.92404 0.02024 0.80168 0.0
C2262 C 0.88877 0.00931 0.79369 0.0
C2263 C 0.88542 0.02757 0.78234 0.0
C2264 C 0.90218 0.04122 0.77929 0.0
C2265 C 0.92128 0.03759 0.78886 0.0
C2266 C 0.84166 0.05435 0.7539 0.0
C2267 C 0.8259 0.05402 0.76897 0.0
C2268 C 0.86057 0.04444 0.7575 0.0
C2269 C 0.8641 0.03389 0.7762 0.0
C2270 C 0.84763 0.03189 0.79036 0.0
C2271 C 0.82873 0.04185 0.78678 0.0
H2272 H 0.50489 0.17746 0.41064 0.0
H2273 H 0.4483 0.20363 0.43489 0.0
H2274 H 0.49833 0.19397 0.37733 0.0
H2275 H 0.44169 0.22 0.40154 0.0
H2276 H 0.45535 0.19249 0.31798 0.0
H2277 H 0.47205 0.18535 0.35103 0.0
H2278 H 0.45187 0.2447 0.37424 0.0
H2279 H 0.43503 0.25182 0.34121 0.0
C2280 C 0.49131 0.18717 0.40906 0.0
C2281 C 0.47697 0.18901 0.42538 0.0
C2282 C 0.48751 0.19652 0.3899 0.0
C2283 C 0.46935 0.20804 0.38666 0.0
C2284 C 0.4559 0.21133 0.40352 0.0
C2285 C 0.45966 0.20189 0.42267 0.0
C2286 C 0.455 0.20429 0.32989 0.0
C2287 C 0.44361 0.22259 0.32702 0.0
C2288 C 0.46462 0.20022 0.34887 0.0
C2289 C 0.46303 0.21435 0.3654 0.0
C2290 C 0.45309 0.23337 0.36194 0.0
C2291 C 0.44355 0.23749 0.34293 0.0
H2292 H 1.00061 0.18174 0.59176 0.0
H2293 H 0.05865 0.2044 0.56723 0.0
H2294 H 0.00806 0.19838 0.62481 0.0
H2295 H 0.06616 0.22085 0.60032 0.0
H2296 H 0.07505 0.25254 0.66024 0.0
H2297 H 0.05764 0.24625 0.62734 0.0
H2298 H 0.03369 0.18848 0.65115 0.0
H2299 H 0.05091 0.19483 0.6841 0.0
C2300 C 0.01472 0.19071 0.59322 0.0
C2301 C 0.0292 0.19149 0.57694 0.0
C2302 C 0.01902 0.20014 0.61223 0.0
C2303 C 0.03783 0.21064 0.61532 0.0
C2304 C 0.05146 0.21296 0.59845 0.0
C2305 C 0.04719 0.20348 0.57945 0.0
C2306 C 0.06561 0.23875 0.65866 0.0
C2307 C 0.06461 0.22402 0.67471 0.0
C2308 C 0.05573 0.23512 0.63974 0.0
C2309 C 0.04455 0.21674 0.6365 0.0
C2310 C 0.04208 0.20287 0.65315 0.0
C2311 C 0.05202 0.20647 0.67206 0.0
H2312 H 0.9975 0.81905 0.91704 0.0
H2313 H 0.05686 0.79721 0.93883 0.0
H2314 H 1.00352 0.80232 0.88375 0.0
H2315 H 0.06292 0.78066 0.90552 0.0
H2316 H 0.07029 0.75008 0.84502 0.0
H2317 H 0.05369 0.75538 0.87852 0.0
H2318 H 0.02803 0.81306 0.8565 0.0
H2319 H 0.04446 0.8077 0.82297 0.0
C2320 C 0.01157 0.81017 0.91498 0.0
C2321 C 0.02686 0.80976 0.93051 0.0
C2322 C 0.01506 0.8007 0.89581 0.0
C2323 C 0.03384 0.79049 0.89183 0.0
C2324 C 0.04823 0.78834 0.90807 0.0
C2325 C 0.04478 0.79788 0.92721 0.0
C2326 C 0.06062 0.76362 0.84711 0.0
C2327 C 0.05896 0.77864 0.8314 0.0
C2328 C 0.05121 0.76668 0.86637 0.0
C2329 C 0.03982 0.78478 0.87031 0.0
C2330 C 0.03661 0.79888 0.85398 0.0
C2331 C 0.04609 0.79585 0.83473 0.0
H2332 H 0.50499 0.8219 0.09003 0.0
H2333 H 0.44614 0.80053 0.06638 0.0
H2334 H 0.49735 0.806 0.12343 0.0
H2335 H 0.43845 0.78479 0.09982 0.0
H2336 H 0.43037 0.75267 0.16 0.0
H2337 H 0.44692 0.75908 0.12667 0.0
H2338 H 0.47232 0.81627 0.15031 0.0
H2339 H 0.45592 0.8098 0.18369 0.0
C2340 C 0.49063 0.81338 0.09177 0.0
C2341 C 0.47606 0.8127 0.07558 0.0
C2342 C 0.48621 0.80439 0.11099 0.0
C2343 C 0.46718 0.79438 0.11441 0.0
C2344 C 0.45333 0.79228 0.0977 0.0
C2345 C 0.4577 0.80135 0.0785 0.0
C2346 C 0.43993 0.76635 0.15829 0.0
C2347 C 0.44161 0.78086 0.17447 0.0
C2348 C 0.4493 0.77008 0.13911 0.0
C2349 C 0.46067 0.78833 0.1357 0.0
C2350 C 0.46376 0.80199 0.15241 0.0
C2351 C 0.45431 0.79831 0.17158 0.0
H2352 H 0.43716 0.43435 0.19574 0.0
H2353 H 0.41559 0.49355 0.17327 0.0
H2354 H 0.40425 0.42915 0.21352 0.0
H2355 H 0.38274 0.48838 0.19118 0.0
H2356 H 0.32035 0.44992 0.19174 0.0
H2357 H 0.35413 0.46441 0.18316 0.0
H2358 H 0.37917 0.4401 0.2402 0.0
H2359 H 0.3454 0.42547 0.24876 0.0
C2360 C 0.42566 0.44653 0.1951 0.0
C2361 C 0.42894 0.46423 0.18287 0.0
C2362 C 0.40676 0.44358 0.20534 0.0
C2363 C 0.39074 0.45824 0.20353 0.0
C2364 C 0.39464 0.47665 0.1926 0.0
C2365 C 0.41355 0.47964 0.18245 0.0
C2366 C 0.33287 0.44819 0.20276 0.0
C2367 C 0.3302 0.43631 0.2208 0.0
C2368 C 0.35228 0.45653 0.19786 0.0
C2369 C 0.36945 0.45313 0.21086 0.0
C2370 C 0.36635 0.44268 0.2297 0.0
C2371 C 0.34692 0.43444 0.23466 0.0
H2372 H 0.82956 0.91199 1.00178 0.0
H2373 H 0.80401 0.93712 0.05826 0.0
H2374 H 0.81285 0.87889 0.00892 0.0
H2375 H 0.78753 0.90394 0.06553 0.0
H2376 H 0.75501 0.84396 0.07314 0.0
H2377 H 0.76257 0.87693 0.05633 0.0
H2378 H 0.82097 0.8525 0.03476 0.0
H2379 H 0.81332 0.81949 0.05133 0.0
C2380 C 0.82 0.91061 0.0155 0.0
C2381 C 0.81833 0.92715 0.02959 0.0
C2382 C 0.81052 0.89157 0.01964 0.0
C2383 C 0.79911 0.88863 0.03794 0.0
C2384 C 0.7961 0.90567 0.05121 0.0
C2385 C 0.8056 0.92472 0.04708 0.0
C2386 C 0.76922 0.84543 0.06434 0.0
C2387 C 0.78369 0.82914 0.06379 0.0
C2388 C 0.77361 0.8644 0.05483 0.0
C2389 C 0.79251 0.8675 0.04448 0.0
C2390 C 0.8062 0.85065 0.0425 0.0
C2391 C 0.80184 0.83168 0.05205 0.0
H2392 H 0.18206 0.55141 0.69601 0.0
H2393 H 0.1583 0.57379 0.75441 0.0
H2394 H 0.14903 0.53452 0.68913 0.0
H2395 H 0.12531 0.55671 0.74759 0.0
H2396 H 0.06505 0.5591 0.70606 0.0
H2397 H 0.09825 0.56603 0.72255 0.0
H2398 H 0.1225 0.50873 0.69809 0.0
H2399 H 0.08933 0.50187 0.6814 0.0
C2400 C 0.17003 0.55218 0.70768 0.0
C2401 C 0.17275 0.5642 0.72561 0.0
C2402 C 0.15106 0.54244 0.70377 0.0
C2403 C 0.13439 0.54453 0.71768 0.0
C2404 C 0.13771 0.55511 0.7364 0.0
C2405 C 0.15669 0.56478 0.74035 0.0
C2406 C 0.07724 0.54767 0.70469 0.0
C2407 C 0.0746 0.53008 0.69217 0.0
C2408 C 0.09632 0.55161 0.7142 0.0
C2409 C 0.11316 0.53807 0.71138 0.0
C2410 C 0.10995 0.51964 0.70027 0.0
C2411 C 0.09087 0.51566 0.69082 0.0
H2412 H 0.68445 0.9165 0.01058 0.0
H2413 H 0.70822 0.9402 0.95267 0.0
H2414 H 0.70156 0.88349 0.00413 0.0
H2415 H 0.72506 0.90716 0.94611 0.0
H2416 H 0.75707 0.84729 0.93851 0.0
H2417 H 0.75026 0.88049 0.9551 0.0
H2418 H 0.69264 0.85642 0.97923 0.0
H2419 H 0.69958 0.82317 0.96289 0.0
C2420 C 0.69378 0.91488 0.99673 0.0
C2421 C 0.69472 0.93092 0.98199 0.0
C2422 C 0.70345 0.89588 0.99297 0.0
C2423 C 0.71437 0.89252 0.97445 0.0
C2424 C 0.71687 0.9092 0.9606 0.0
C2425 C 0.70715 0.92819 0.96434 0.0
C2426 C 0.74321 0.84889 0.94781 0.0
C2427 C 0.72872 0.83264 0.94914 0.0
C2428 C 0.73926 0.86799 0.95722 0.0
C2429 C 0.72077 0.87125 0.96822 0.0
C2430 C 0.70712 0.85445 0.97098 0.0
C2431 C 0.71106 0.83534 0.96155 0.0
H2432 H 0.79933 0.18454 0.45541 0.0
H2433 H 0.74376 0.15882 0.42841 0.0
H2434 H 0.80618 0.15162 0.47247 0.0
H2435 H 0.75048 0.12596 0.44571 0.0
H2436 H 0.79405 0.06735 0.44568 0.0
H2437 H 0.77679 0.09996 0.43809 0.0
H2438 H 0.79678 0.12442 0.49705 0.0
H2439 H 0.8143 0.09185 0.50455 0.0
C2440 C 0.78821 0.17209 0.45365 0.0
C2441 C 0.77118 0.17423 0.4403 0.0
C2442 C 0.7921 0.15318 0.46349 0.0
C2443 C 0.77904 0.13602 0.46019 0.0
C2444 C 0.76104 0.13874 0.44826 0.0
C2445 C 0.75714 0.15765 0.43845 0.0
C2446 C 0.79426 0.07944 0.45731 0.0
C2447 C 0.80582 0.07708 0.47558 0.0
C2448 C 0.7843 0.09818 0.45298 0.0
C2449 C 0.78567 0.11496 0.46684 0.0
C2450 C 0.79574 0.11195 0.48589 0.0
C2451 C 0.80567 0.0932 0.49024 0.0
H2452 H 0.70978 0.17233 0.57197 0.0
H2453 H 0.73923 0.14171 0.62358 0.0
H2454 H 0.70564 0.13936 0.5546 0.0
H2455 H 0.73624 0.10862 0.60566 0.0
H2456 H 0.69338 0.05476 0.58536 0.0
H2457 H 0.70977 0.08537 0.59941 0.0
H2458 H 0.71702 0.11001 0.53751 0.0
H2459 H 0.69936 0.07967 0.52358 0.0
C2460 C 0.71597 0.15859 0.57933 0.0
C2461 C 0.72456 0.15961 0.59928 0.0
C2462 C 0.71374 0.13957 0.56927 0.0
C2463 C 0.72035 0.12106 0.57874 0.0
C2464 C 0.73044 0.12238 0.59805 0.0
C2465 C 0.73233 0.1414 0.60829 0.0
C2466 C 0.69893 0.06645 0.57467 0.0
C2467 C 0.69472 0.06494 0.55338 0.0
C2468 C 0.70848 0.08411 0.58275 0.0
C2469 C 0.71441 0.10057 0.5697 0.0
C2470 C 0.71209 0.09802 0.54815 0.0
C2471 C 0.70217 0.08049 0.5401 0.0
H2472 H 0.0944 0.50483 0.824 0.0
H2473 H 0.07021 0.44716 0.80019 0.0
H2474 H 0.12718 0.49845 0.80639 0.0
H2475 H 0.10304 0.4407 0.78276 0.0
H2476 H 0.1623 0.43377 0.74934 0.0
H2477 H 0.12932 0.45048 0.75693 0.0
H2478 H 0.15418 0.47302 0.81478 0.0
H2479 H 0.18718 0.4565 0.80715 0.0
C2480 C 0.09587 0.49103 0.81459 0.0
C2481 C 0.07977 0.47635 0.81374 0.0
C2482 C 0.11472 0.48734 0.8046 0.0
C2483 C 0.11786 0.46894 0.79344 0.0
C2484 C 0.10114 0.45511 0.79113 0.0
C2485 C 0.08229 0.45877 0.80118 0.0
C2486 C 0.16094 0.44279 0.76342 0.0
C2487 C 0.1773 0.44355 0.7778 0.0
C2488 C 0.14197 0.45225 0.7678 0.0
C2489 C 0.13899 0.46279 0.78659 0.0
C2490 C 0.15595 0.46511 0.8001 0.0
C2491 C 0.17491 0.45558 0.79575 0.0
H2492 H 0.34108 0.57408 0.25219 0.0
H2493 H 0.31742 0.55151 0.3106 0.0
H2494 H 0.37423 0.55743 0.25913 0.0
H2495 H 0.3506 0.53504 0.3176 0.0
H2496 H 0.41054 0.50284 0.32526 0.0
H2497 H 0.37732 0.50946 0.3086 0.0
H2498 H 0.40118 0.56704 0.28424 0.0
H2499 H 0.43444 0.56036 0.30072 0.0
C2500 C 0.34274 0.56513 0.26628 0.0
C2501 C 0.32665 0.56436 0.28098 0.0
C2502 C 0.36182 0.5557 0.2703 0.0
C2503 C 0.36519 0.54518 0.28904 0.0
C2504 C 0.34852 0.54292 0.30294 0.0
C2505 C 0.32946 0.55242 0.29895 0.0
C2506 C 0.40891 0.51664 0.31587 0.0
C2507 C 0.42509 0.53122 0.31455 0.0
C2508 C 0.38979 0.52049 0.30644 0.0
C2509 C 0.38647 0.53892 0.29537 0.0
C2510 C 0.40322 0.55262 0.29256 0.0
C2511 C 0.42232 0.54882 0.30206 0.0
H2512 H 0.95144 0.70939 0.93802 0.0
H2513 H 0.0092 0.68451 0.91521 0.0
H2514 H 0.94562 0.72615 0.90473 0.0
H2515 H 1.00341 0.70141 0.88195 0.0
H2516 H 0.93917 0.7575 0.84449 0.0
H2517 H 0.95606 0.75115 0.87765 0.0
H2518 H 0.97776 0.69207 0.85513 0.0
H2519 H 0.96101 0.69844 0.82196 0.0
C2520 C 0.96322 0.70804 0.92615 0.0
C2521 C 0.98061 0.69534 0.92919 0.0
C2522 C 0.95992 0.71771 0.90704 0.0
C2523 C 0.97392 0.71484 0.89056 0.0
C2524 C 0.99219 0.70363 0.89422 0.0
C2525 C 0.99554 0.69405 0.91335 0.0
C2526 C 0.94806 0.74342 0.84637 0.0
C2527 C 0.94847 0.72831 0.83066 0.0
C2528 C 0.95764 0.73974 0.86545 0.0
C2529 C 0.96795 0.72097 0.86916 0.0
C2530 C 0.97002 0.70675 0.85278 0.0
C2531 C 0.96036 0.71037 0.83373 0.0
H2532 H 0.50192 0.67505 0.09539 0.0
H2533 H 0.55872 0.70093 0.07113 0.0
H2534 H 0.50827 0.69205 0.12848 0.0
H2535 H 0.56514 0.71775 0.10428 0.0
H2536 H 0.57153 0.75048 0.16399 0.0
H2537 H 0.55483 0.74287 0.131 0.0
H2538 H 0.53417 0.68398 0.15515 0.0
H2539 H 0.55067 0.69164 0.18817 0.0
C2540 C 0.51553 0.68476 0.09694 0.0
C2541 C 0.52997 0.68642 0.08069 0.0
C2542 C 0.5192 0.6944 0.11597 0.0
C2543 C 0.53734 0.70601 0.11914 0.0
C2544 C 0.55093 0.70903 0.10235 0.0
C2545 C 0.54729 0.69932 0.08332 0.0
C2546 C 0.56292 0.73616 0.16248 0.0
C2547 C 0.56268 0.72152 0.17864 0.0
C2548 C 0.55348 0.73175 0.1435 0.0
C2549 C 0.54347 0.71269 0.14032 0.0
C2550 C 0.54166 0.69886 0.15709 0.0
C2551 C 0.55118 0.70323 0.17605 0.0
H2552 H 0.55988 0.29041 0.34319 0.0
H2553 H 0.61205 0.2609 0.3728 0.0
H2554 H 0.54605 0.29987 0.37676 0.0
H2555 H 0.59768 0.26946 0.40667 0.0
H2556 H 0.58358 0.31867 0.45713 0.0
H2557 H 0.59466 0.29902 0.42714 0.0
H2558 H 0.53077 0.29161 0.40838 0.0
H2559 H 0.51983 0.31235 0.43795 0.0
C2560 C 0.56815 0.28547 0.35692 0.0
C2561 C 0.58719 0.27512 0.35531 0.0
C2562 C 0.56011 0.29076 0.3763 0.0
C2563 C 0.57076 0.28558 0.39461 0.0
C2564 C 0.58923 0.27412 0.39296 0.0
C2565 C 0.59743 0.26908 0.37353 0.0
C2566 C 0.57185 0.31242 0.44689 0.0
C2567 C 0.55085 0.31735 0.44974 0.0
C2568 C 0.57821 0.30103 0.42963 0.0
C2569 C 0.56367 0.29401 0.41496 0.0
C2570 C 0.54248 0.29729 0.41895 0.0
C2571 C 0.53616 0.309 0.43605 0.0
H2572 H 0.95757 0.30727 0.68402 0.0
H2573 H 0.93345 0.24999 0.65924 0.0
H2574 H 0.97151 0.31606 0.65006 0.0
H2575 H 0.9476 0.25869 0.62533 0.0
H2576 H 0.94184 0.30195 0.56679 0.0
H2577 H 0.9367 0.28464 0.59992 0.0
H2578 H 0.99536 0.30847 0.62155 0.0
H2579 H 1.00042 0.32598 0.58848 0.0
C2580 C 0.95576 0.29627 0.6715 0.0
C2581 C 0.94418 0.27805 0.67432 0.0
C2582 C 0.9638 0.30128 0.65198 0.0
C2583 C 0.96042 0.28819 0.63487 0.0
C2584 C 0.95016 0.26926 0.63809 0.0
C2585 C 0.94218 0.26423 0.65759 0.0
C2586 C 0.95391 0.30304 0.57838 0.0
C2587 C 0.97141 0.31557 0.57504 0.0
C2588 C 0.951 0.29306 0.59741 0.0
C2589 C 0.9655 0.29541 0.61353 0.0
C2590 C 0.98373 0.30665 0.6096 0.0
C2591 C 0.98668 0.31657 0.59056 0.0
loop_
_geom_bond_atom_site_label_1
_geom_bond_atom_site_label_2
_geom_bond_distance
_geom_bond_site_symmetry_2
_ccdc_geom_bond_type
O0 Cd1 2.223 . S
O0 C8 1.315 . S
Cd1 O0 2.223 . S
Cd1 O4 2.297 . S
Cd1 O5 2.439 . S
Cd1 O11 2.240 . S
Cd2 O3 2.240 . S
Cd2 O10 2.223 . S
Cd2 O12 2.297 . S
Cd2 O13 2.439 . S
O3 Cd2 2.240 . S
O3 C8 1.279 . S
O4 Cd1 2.297 . S
O4 C6 1.247 . S
O5 Cd1 2.439 . S
O5 C6 1.208 . S
C6 O4 1.247 . S
C6 O5 1.208 . S
C7 O12 1.247 . S
C7 O13 1.208 . S
C8 O0 1.315 . S
C8 O3 1.279 . S
C9 O10 1.315 . S
C9 O11 1.279 . S
O10 Cd2 2.223 . S
O10 C9 1.315 . S
O11 Cd1 2.240 . S
O11 C9 1.279 . S
O12 Cd2 2.297 . S
O12 C7 1.247 . S
O13 Cd2 2.439 . S
O13 C7 1.208 . S
O14 Cd15 2.223 . S
O14 C22 1.315 . S
Cd15 O14 2.223 . S
Cd15 O18 2.297 . S
Cd15 O19 2.439 . S
Cd15 O25 2.240 1_455 S
Cd16 O17 2.240 1_655 S
Cd16 O24 2.223 . S
Cd16 O26 2.297 . S
Cd16 O27 2.439 . S
O17 Cd16 2.240 1_455 S
O17 C22 1.279 . S
O18 Cd15 2.297 . S
O18 C20 1.247 . S
O19 Cd15 2.439 . S
O19 C20 1.208 . S
C20 O18 1.247 . S
C20 O19 1.208 . S
C21 O26 1.247 . S
C21 O27 1.208 . S
C22 O14 1.315 . S
C22 O17 1.279 . S
C23 O24 1.315 . S
C23 O25 1.279 . S
O24 Cd16 2.223 . S
O24 C23 1.315 . S
O25 Cd15 2.240 1_655 S
O25 C23 1.279 . S
O26 Cd16 2.297 . S
O26 C21 1.247 . S
O27 Cd16 2.439 . S
O27 C21 1.208 . S
O28 Cd29 2.223 . S
O28 C36 1.315 . S
Cd29 O28 2.223 . S
Cd29 O32 2.297 . S
Cd29 O33 2.439 . S
Cd29 O39 2.240 . S
Cd30 O31 2.240 . S
Cd30 O38 2.223 . S
Cd30 O40 2.297 . S
Cd30 O41 2.439 . S
O31 Cd30 2.240 . S
O31 C36 1.279 . S
O32 Cd29 2.297 . S
O32 C34 1.247 . S
O33 Cd29 2.439 . S
O33 C34 1.208 . S
C34 O32 1.247 . S
C34 O33 1.208 . S
C35 O40 1.247 . S
C35 O41 1.208 . S
C36 O28 1.315 . S
C36 O31 1.279 . S
C37 O38 1.315 . S
C37 O39 1.279 . S
O38 Cd30 2.223 . S
O38 C37 1.315 . S
O39 Cd29 2.240 . S
O39 C37 1.279 . S
O40 Cd30 2.297 . S
O40 C35 1.247 . S
O41 Cd30 2.439 . S
O41 C35 1.208 . S
O42 Cd43 2.223 . S
O42 C50 1.315 . S
Cd43 O42 2.223 . S
Cd43 O46 2.297 . S
Cd43 O47 2.439 . S
Cd43 O53 2.240 . S
Cd44 O45 2.240 . S
Cd44 O52 2.223 . S
Cd44 O54 2.297 . S
Cd44 O55 2.439 . S
O45 Cd44 2.240 . S
O45 C50 1.279 . S
O46 Cd43 2.297 . S
O46 C48 1.247 . S
O47 Cd43 2.439 . S
O47 C48 1.208 . S
C48 O46 1.247 . S
C48 O47 1.208 . S
C49 O54 1.247 . S
C49 O55 1.208 . S
C50 O42 1.315 . S
C50 O45 1.279 . S
C51 O52 1.315 . S
C51 O53 1.279 . S
O52 Cd44 2.223 . S
O52 C51 1.315 . S
O53 Cd43 2.240 . S
O53 C51 1.279 . S
O54 Cd44 2.297 . S
O54 C49 1.247 . S
O55 Cd44 2.439 . S
O55 C49 1.208 . S
O56 Cd57 2.223 . S
O56 C64 1.315 . S
Cd57 O56 2.223 . S
Cd57 O60 2.297 . S
Cd57 O61 2.439 . S
Cd57 O67 2.240 . S
Cd58 O59 2.240 . S
Cd58 O66 2.223 . S
Cd58 O68 2.297 . S
Cd58 O69 2.439 . S
O59 Cd58 2.240 . S
O59 C64 1.279 . S
O60 Cd57 2.297 . S
O60 C62 1.247 . S
O61 Cd57 2.439 . S
O61 C62 1.208 . S
C62 O60 1.247 . S
C62 O61 1.208 . S
C63 O68 1.247 . S
C63 O69 1.208 . S
C64 O56 1.315 . S
C64 O59 1.279 . S
C65 O66 1.315 . S
C65 O67 1.279 . S
O66 Cd58 2.223 . S
O66 C65 1.315 . S
O67 Cd57 2.240 . S
O67 C65 1.279 . S
O68 Cd58 2.297 . S
O68 C63 1.247 . S
O69 Cd58 2.439 . S
O69 C63 1.208 . S
O70 Cd71 2.223 . S
O70 C78 1.315 . S
Cd71 O70 2.223 . S
Cd71 O74 2.297 . S
Cd71 O75 2.439 . S
Cd71 O81 2.240 . S
Cd72 O73 2.240 . S
Cd72 O80 2.223 . S
Cd72 O82 2.297 . S
Cd72 O83 2.439 . S
O73 Cd72 2.240 . S
O73 C78 1.279 . S
O74 Cd71 2.297 . S
O74 C76 1.247 . S
O75 Cd71 2.439 . S
O75 C76 1.208 . S
C76 O74 1.247 . S
C76 O75 1.208 . S
C77 O82 1.247 . S
C77 O83 1.208 . S
C78 O70 1.315 . S
C78 O73 1.279 . S
C79 O80 1.315 . S
C79 O81 1.279 . S
O80 Cd72 2.223 . S
O80 C79 1.315 . S
O81 Cd71 2.240 . S
O81 C79 1.279 . S
O82 Cd72 2.297 . S
O82 C77 1.247 . S
O83 Cd72 2.439 . S
O83 C77 1.208 . S
O84 Cd85 2.223 . S
O84 C92 1.315 . S
Cd85 O84 2.223 . S
Cd85 O88 2.297 . S
Cd85 O89 2.439 . S
Cd85 O95 2.240 . S
Cd86 O87 2.240 . S
Cd86 O94 2.223 . S
Cd86 O96 2.297 . S
Cd86 O97 2.439 . S
O87 Cd86 2.240 . S
O87 C92 1.279 . S
O88 Cd85 2.297 . S
O88 C90 1.247 . S
O89 Cd85 2.439 . S
O89 C90 1.208 . S
C90 O88 1.247 . S
C90 O89 1.208 . S
C91 O96 1.247 . S
C91 O97 1.208 . S
C92 O84 1.315 . S
C92 O87 1.279 . S
C93 O94 1.315 . S
C93 O95 1.279 . S
O94 Cd86 2.223 . S
O94 C93 1.315 . S
O95 Cd85 2.240 . S
O95 C93 1.279 . S
O96 Cd86 2.297 . S
O96 C91 1.247 . S
O97 Cd86 2.439 . S
O97 C91 1.208 . S
O98 Cd99 2.223 . S
O98 C106 1.315 . S
Cd99 O98 2.223 . S
Cd99 O102 2.297 . S
Cd99 O103 2.439 . S
Cd99 O109 2.240 1_455 S
Cd100 O101 2.240 1_655 S
Cd100 O108 2.223 . S
Cd100 O110 2.297 . S
Cd100 O111 2.439 . S
O101 Cd100 2.240 1_455 S
O101 C106 1.279 . S
O102 Cd99 2.297 . S
O102 C104 1.247 . S
O103 Cd99 2.439 . S
O103 C104 1.208 . S
C104 O102 1.247 . S
C104 O103 1.208 . S
C105 O110 1.247 . S
C105 O111 1.208 . S
C106 O98 1.315 . S
C106 O101 1.279 . S
C107 O108 1.315 . S
C107 O109 1.279 . S
O108 Cd100 2.223 . S
O108 C107 1.315 . S
O109 Cd99 2.240 1_655 S
O109 C107 1.279 . S
O110 Cd100 2.297 . S
O110 C105 1.247 . S
O111 Cd100 2.439 . S
O111 C105 1.208 . S
O112 Cd113 2.223 . S
O112 C120 1.315 . S
Cd113 O112 2.223 . S
Cd113 O116 2.297 . S
Cd113 O117 2.439 . S
Cd113 O123 2.240 . S
Cd114 O115 2.240 . S
Cd114 O122 2.223 . S
Cd114 O124 2.297 . S
Cd114 O125 2.439 . S
O115 Cd114 2.240 . S
O115 C120 1.279 . S
O116 Cd113 2.297 . S
O116 C118 1.247 . S
O117 Cd113 2.439 . S
O117 C118 1.208 . S
C118 O116 1.247 . S
C118 O117 1.208 . S
C119 O124 1.247 . S
C119 O125 1.208 . S
C120 O112 1.315 . S
C120 O115 1.279 . S
C121 O122 1.315 . S
C121 O123 1.279 . S
O122 Cd114 2.223 . S
O122 C121 1.315 . S
O123 Cd113 2.240 . S
O123 C121 1.279 . S
O124 Cd114 2.297 . S
O124 C119 1.247 . S
O125 Cd114 2.439 . S
O125 C119 1.208 . S
O126 Cd127 2.223 . S
O126 C134 1.315 . S
Cd127 O126 2.223 . S
Cd127 O130 2.297 . S
Cd127 O131 2.439 . S
Cd127 O137 2.240 . S
Cd128 O129 2.240 . S
Cd128 O136 2.223 . S
Cd128 O138 2.297 . S
Cd128 O139 2.439 . S
O129 Cd128 2.240 . S
O129 C134 1.279 . S
O130 Cd127 2.297 . S
O130 C132 1.247 . S
O131 Cd127 2.439 . S
O131 C132 1.208 . S
C132 O130 1.247 . S
C132 O131 1.208 . S
C133 O138 1.247 . S
C133 O139 1.208 . S
C134 O126 1.315 . S
C134 O129 1.279 . S
C135 O136 1.315 . S
C135 O137 1.279 . S
O136 Cd128 2.223 . S
O136 C135 1.315 . S
O137 Cd127 2.240 . S
O137 C135 1.279 . S
O138 Cd128 2.297 . S
O138 C133 1.247 . S
O139 Cd128 2.439 . S
O139 C133 1.208 . S
O140 Cd141 2.223 . S
O140 C148 1.315 . S
Cd141 O140 2.223 . S
Cd141 O144 2.297 . S
Cd141 O145 2.439 . S
Cd141 O151 2.240 . S
Cd142 O143 2.240 . S
Cd142 O150 2.223 . S
Cd142 O152 2.297 . S
Cd142 O153 2.439 . S
O143 Cd142 2.240 . S
O143 C148 1.279 . S
O144 Cd141 2.297 . S
O144 C146 1.247 . S
O145 Cd141 2.439 . S
O145 C146 1.208 . S
C146 O144 1.247 . S
C146 O145 1.208 . S
C147 O152 1.247 . S
C147 O153 1.208 . S
C148 O140 1.315 . S
C148 O143 1.279 . S
C149 O150 1.315 . S
C149 O151 1.279 . S
O150 Cd142 2.223 . S
O150 C149 1.315 . S
O151 Cd141 2.240 . S
O151 C149 1.279 . S
O152 Cd142 2.297 . S
O152 C147 1.247 . S
O153 Cd142 2.439 . S
O153 C147 1.208 . S
O154 Cd155 2.223 . S
O154 C162 1.315 . S
Cd155 O154 2.223 . S
Cd155 O158 2.297 . S
Cd155 O159 2.439 . S
Cd155 O165 2.240 1_556 S
Cd156 O157 2.240 1_554 S
Cd156 O164 2.223 . S
Cd156 O166 2.297 . S
Cd156 O167 2.439 . S
O157 Cd156 2.240 1_556 S
O157 C162 1.279 . S
O158 Cd155 2.297 . S
O158 C160 1.247 . S
O159 Cd155 2.439 . S
O159 C160 1.208 . S
C160 O158 1.247 . S
C160 O159 1.208 . S
C161 O166 1.247 . S
C161 O167 1.208 . S
C162 O154 1.315 . S
C162 O157 1.279 . S
C163 O164 1.315 . S
C163 O165 1.279 . S
O164 Cd156 2.223 . S
O164 C163 1.315 . S
O165 Cd155 2.240 1_554 S
O165 C163 1.279 . S
O166 Cd156 2.297 . S
O166 C161 1.247 . S
O167 Cd156 2.439 . S
O167 C161 1.208 . S
O168 Cd169 2.223 . S
O168 C176 1.315 . S
Cd169 O168 2.223 . S
Cd169 O172 2.297 . S
Cd169 O173 2.439 . S
Cd169 O179 2.240 . S
Cd170 O171 2.240 . S
Cd170 O178 2.223 . S
Cd170 O180 2.297 . S
Cd170 O181 2.439 . S
O171 Cd170 2.240 . S
O171 C176 1.279 . S
O172 Cd169 2.297 . S
O172 C174 1.247 . S
O173 Cd169 2.439 . S
O173 C174 1.208 . S
C174 O172 1.247 . S
C174 O173 1.208 . S
C175 O180 1.247 . S
C175 O181 1.208 . S
C176 O168 1.315 . S
C176 O171 1.279 . S
C177 O178 1.315 . S
C177 O179 1.279 . S
O178 Cd170 2.223 . S
O178 C177 1.315 . S
O179 Cd169 2.240 . S
O179 C177 1.279 . S
O180 Cd170 2.297 . S
O180 C175 1.247 . S
O181 Cd170 2.439 . S
O181 C175 1.208 . S
O182 Cd183 2.223 . S
O182 C190 1.315 . S
Cd183 O182 2.223 . S
Cd183 O186 2.297 . S
Cd183 O187 2.439 . S
Cd183 O193 2.240 . S
Cd184 O185 2.240 . S
Cd184 O192 2.223 . S
Cd184 O194 2.297 . S
Cd184 O195 2.439 . S
O185 Cd184 2.240 . S
O185 C190 1.279 . S
O186 Cd183 2.297 . S
O186 C188 1.247 . S
O187 Cd183 2.439 . S
O187 C188 1.208 . S
C188 O186 1.247 . S
C188 O187 1.208 . S
C189 O194 1.247 . S
C189 O195 1.208 . S
C190 O182 1.315 . S
C190 O185 1.279 . S
C191 O192 1.315 . S
C191 O193 1.279 . S
O192 Cd184 2.223 . S
O192 C191 1.315 . S
O193 Cd183 2.240 . S
O193 C191 1.279 . S
O194 Cd184 2.297 . S
O194 C189 1.247 . S
O195 Cd184 2.439 . S
O195 C189 1.208 . S
O196 Cd197 2.223 . S
O196 C204 1.315 . S
Cd197 O196 2.223 . S
Cd197 O200 2.297 . S
Cd197 O201 2.439 . S
Cd197 O207 2.240 . S
Cd198 O199 2.240 . S
Cd198 O206 2.223 . S
Cd198 O208 2.297 . S
Cd198 O209 2.439 . S
O199 Cd198 2.240 . S
O199 C204 1.279 . S
O200 Cd197 2.297 . S
O200 C202 1.247 . S
O201 Cd197 2.439 . S
O201 C202 1.208 . S
C202 O200 1.247 . S
C202 O201 1.208 . S
C203 O208 1.247 . S
C203 O209 1.208 . S
C204 O196 1.315 . S
C204 O199 1.279 . S
C205 O206 1.315 . S
C205 O207 1.279 . S
O206 Cd198 2.223 . S
O206 C205 1.315 . S
O207 Cd197 2.240 . S
O207 C205 1.279 . S
O208 Cd198 2.297 . S
O208 C203 1.247 . S
O209 Cd198 2.439 . S
O209 C203 1.208 . S
O210 Cd211 2.223 . S
O210 C218 1.315 . S
Cd211 O210 2.223 . S
Cd211 O214 2.297 . S
Cd211 O215 2.439 . S
Cd211 O221 2.240 1_554 S
Cd212 O213 2.240 1_556 S
Cd212 O220 2.223 . S
Cd212 O222 2.297 . S
Cd212 O223 2.439 . S
O213 Cd212 2.240 1_554 S
O213 C218 1.279 . S
O214 Cd211 2.297 . S
O214 C216 1.247 . S
O215 Cd211 2.439 . S
O215 C216 1.208 . S
C216 O214 1.247 . S
C216 O215 1.208 . S
C217 O222 1.247 . S
C217 O223 1.208 . S
C218 O210 1.315 . S
C218 O213 1.279 . S
C219 O220 1.315 . S
C219 O221 1.279 . S
O220 Cd212 2.223 . S
O220 C219 1.315 . S
O221 Cd211 2.240 1_556 S
O221 C219 1.279 . S
O222 Cd212 2.297 . S
O222 C217 1.247 . S
O223 Cd212 2.439 . S
O223 C217 1.208 . S
O224 Cd225 2.223 . S
O224 C232 1.315 . S
Cd225 O224 2.223 . S
Cd225 O228 2.297 . S
Cd225 O229 2.439 . S
Cd225 O235 2.240 . S
Cd226 O227 2.240 . S
Cd226 O234 2.223 . S
Cd226 O236 2.297 . S
Cd226 O237 2.439 . S
O227 Cd226 2.240 . S
O227 C232 1.279 . S
O228 Cd225 2.297 . S
O228 C230 1.247 . S
O229 Cd225 2.439 . S
O229 C230 1.208 . S
C230 O228 1.247 . S
C230 O229 1.208 . S
C231 O236 1.247 . S
C231 O237 1.208 . S
C232 O224 1.315 . S
C232 O227 1.279 . S
C233 O234 1.315 . S
C233 O235 1.279 . S
O234 Cd226 2.223 . S
O234 C233 1.315 . S
O235 Cd225 2.240 . S
O235 C233 1.279 . S
O236 Cd226 2.297 . S
O236 C231 1.247 . S
O237 Cd226 2.439 . S
O237 C231 1.208 . S
O238 Cd239 2.223 . S
O238 C246 1.315 . S
Cd239 O238 2.223 . S
Cd239 O242 2.297 . S
Cd239 O243 2.439 . S
Cd239 O249 2.240 . S
Cd240 O241 2.240 . S
Cd240 O248 2.223 . S
Cd240 O250 2.297 . S
Cd240 O251 2.439 . S
O241 Cd240 2.240 . S
O241 C246 1.279 . S
O242 Cd239 2.297 . S
O242 C244 1.247 . S
O243 Cd239 2.439 . S
O243 C244 1.208 . S
C244 O242 1.247 . S
C244 O243 1.208 . S
C245 O250 1.247 . S
C245 O251 1.208 . S
C246 O238 1.315 . S
C246 O241 1.279 . S
C247 O248 1.315 . S
C247 O249 1.279 . S
O248 Cd240 2.223 . S
O248 C247 1.315 . S
O249 Cd239 2.240 . S
O249 C247 1.279 . S
O250 Cd240 2.297 . S
O250 C245 1.247 . S
O251 Cd240 2.439 . S
O251 C245 1.208 . S
O252 Cd253 2.223 . S
O252 C260 1.315 . S
Cd253 O252 2.223 . S
Cd253 O256 2.297 . S
Cd253 O257 2.439 . S
Cd253 O263 2.240 . S
Cd254 O255 2.240 . S
Cd254 O262 2.223 . S
Cd254 O264 2.297 . S
Cd254 O265 2.439 . S
O255 Cd254 2.240 . S
O255 C260 1.279 . S
O256 Cd253 2.297 . S
O256 C258 1.247 . S
O257 Cd253 2.439 . S
O257 C258 1.208 . S
C258 O256 1.247 . S
C258 O257 1.208 . S
C259 O264 1.247 . S
C259 O265 1.208 . S
C260 O252 1.315 . S
C260 O255 1.279 . S
C261 O262 1.315 . S
C261 O263 1.279 . S
O262 Cd254 2.223 . S
O262 C261 1.315 . S
O263 Cd253 2.240 . S
O263 C261 1.279 . S
O264 Cd254 2.297 . S
O264 C259 1.247 . S
O265 Cd254 2.439 . S
O265 C259 1.208 . S
O266 Cd267 2.223 . S
O266 C274 1.315 . S
Cd267 O266 2.223 . S
Cd267 O270 2.297 . S
Cd267 O271 2.439 . S
Cd267 O277 2.240 . S
Cd268 O269 2.240 . S
Cd268 O276 2.223 . S
Cd268 O278 2.297 . S
Cd268 O279 2.439 . S
O269 Cd268 2.240 . S
O269 C274 1.279 . S
O270 Cd267 2.297 . S
O270 C272 1.247 . S
O271 Cd267 2.439 . S
O271 C272 1.208 . S
C272 O270 1.247 . S
C272 O271 1.208 . S
C273 O278 1.247 . S
C273 O279 1.208 . S
C274 O266 1.315 . S
C274 O269 1.279 . S
C275 O276 1.315 . S
C275 O277 1.279 . S
O276 Cd268 2.223 . S
O276 C275 1.315 . S
O277 Cd267 2.240 . S
O277 C275 1.279 . S
O278 Cd268 2.297 . S
O278 C273 1.247 . S
O279 Cd268 2.439 . S
O279 C273 1.208 . S
O280 Cd281 2.223 . S
O280 C288 1.315 . S
Cd281 O280 2.223 . S
Cd281 O284 2.297 . S
Cd281 O285 2.439 . S
Cd281 O291 2.240 1_545 S
Cd282 O283 2.240 1_565 S
Cd282 O290 2.223 . S
Cd282 O292 2.297 . S
Cd282 O293 2.439 . S
O283 Cd282 2.240 1_545 S
O283 C288 1.279 . S
O284 Cd281 2.297 . S
O284 C286 1.247 . S
O285 Cd281 2.439 . S
O285 C286 1.208 . S
C286 O284 1.247 . S
C286 O285 1.208 . S
C287 O292 1.247 . S
C287 O293 1.208 . S
C288 O280 1.315 . S
C288 O283 1.279 . S
C289 O290 1.315 . S
C289 O291 1.279 . S
O290 Cd282 2.223 . S
O290 C289 1.315 . S
O291 Cd281 2.240 1_565 S
O291 C289 1.279 . S
O292 Cd282 2.297 . S
O292 C287 1.247 . S
O293 Cd282 2.439 . S
O293 C287 1.208 . S
O294 Cd295 2.223 . S
O294 C302 1.315 . S
Cd295 O294 2.223 . S
Cd295 O298 2.297 . S
Cd295 O299 2.439 . S
Cd295 O305 2.240 . S
Cd296 O297 2.240 . S
Cd296 O304 2.223 . S
Cd296 O306 2.297 . S
Cd296 O307 2.439 . S
O297 Cd296 2.240 . S
O297 C302 1.279 . S
O298 Cd295 2.297 . S
O298 C300 1.247 . S
O299 Cd295 2.439 . S
O299 C300 1.208 . S
C300 O298 1.247 . S
C300 O299 1.208 . S
C301 O306 1.247 . S
C301 O307 1.208 . S
C302 O294 1.315 . S
C302 O297 1.279 . S
C303 O304 1.315 . S
C303 O305 1.279 . S
O304 Cd296 2.223 . S
O304 C303 1.315 . S
O305 Cd295 2.240 . S
O305 C303 1.279 . S
O306 Cd296 2.297 . S
O306 C301 1.247 . S
O307 Cd296 2.439 . S
O307 C301 1.208 . S
O308 Cd309 2.223 . S
O308 C316 1.315 . S
Cd309 O308 2.223 . S
Cd309 O312 2.297 . S
Cd309 O313 2.439 . S
Cd309 O319 2.240 . S
Cd310 O311 2.240 . S
Cd310 O318 2.223 . S
Cd310 O320 2.297 . S
Cd310 O321 2.439 . S
O311 Cd310 2.240 . S
O311 C316 1.279 . S
O312 Cd309 2.297 . S
O312 C314 1.247 . S
O313 Cd309 2.439 . S
O313 C314 1.208 . S
C314 O312 1.247 . S
C314 O313 1.208 . S
C315 O320 1.247 . S
C315 O321 1.208 . S
C316 O308 1.315 . S
C316 O311 1.279 . S
C317 O318 1.315 . S
C317 O319 1.279 . S
O318 Cd310 2.223 . S
O318 C317 1.315 . S
O319 Cd309 2.240 . S
O319 C317 1.279 . S
O320 Cd310 2.297 . S
O320 C315 1.247 . S
O321 Cd310 2.439 . S
O321 C315 1.208 . S
O322 Cd323 2.223 . S
O322 C330 1.315 . S
Cd323 O322 2.223 . S
Cd323 O326 2.297 . S
Cd323 O327 2.439 . S
Cd323 O333 2.240 . S
Cd324 O325 2.240 . S
Cd324 O332 2.223 . S
Cd324 O334 2.297 . S
Cd324 O335 2.439 . S
O325 Cd324 2.240 . S
O325 C330 1.279 . S
O326 Cd323 2.297 . S
O326 C328 1.247 . S
O327 Cd323 2.439 . S
O327 C328 1.208 . S
C328 O326 1.247 . S
C328 O327 1.208 . S
C329 O334 1.247 . S
C329 O335 1.208 . S
C330 O322 1.315 . S
C330 O325 1.279 . S
C331 O332 1.315 . S
C331 O333 1.279 . S
O332 Cd324 2.223 . S
O332 C331 1.315 . S
O333 Cd323 2.240 . S
O333 C331 1.279 . S
O334 Cd324 2.297 . S
O334 C329 1.247 . S
O335 Cd324 2.439 . S
O335 C329 1.208 . S
O336 Cd337 2.223 . S
O336 C344 1.315 . S
Cd337 O336 2.223 . S
Cd337 O340 2.297 . S
Cd337 O341 2.439 . S
Cd337 O347 2.240 . S
Cd338 O339 2.240 . S
Cd338 O346 2.223 . S
Cd338 O348 2.297 . S
Cd338 O349 2.439 . S
O339 Cd338 2.240 . S
O339 C344 1.279 . S
O340 Cd337 2.297 . S
O340 C342 1.247 . S
O341 Cd337 2.439 . S
O341 C342 1.208 . S
C342 O340 1.247 . S
C342 O341 1.208 . S
C343 O348 1.247 . S
C343 O349 1.208 . S
C344 O336 1.315 . S
C344 O339 1.279 . S
C345 O346 1.315 . S
C345 O347 1.279 . S
O346 Cd338 2.223 . S
O346 C345 1.315 . S
O347 Cd337 2.240 . S
O347 C345 1.279 . S
O348 Cd338 2.297 . S
O348 C343 1.247 . S
O349 Cd338 2.439 . S
O349 C343 1.208 . S
O350 Cd351 2.223 . S
O350 C358 1.315 . S
Cd351 O350 2.223 . S
Cd351 O354 2.297 . S
Cd351 O355 2.439 . S
Cd351 O361 2.240 . S
Cd352 O353 2.240 . S
Cd352 O360 2.223 . S
Cd352 O362 2.297 . S
Cd352 O363 2.439 . S
O353 Cd352 2.240 . S
O353 C358 1.279 . S
O354 Cd351 2.297 . S
O354 C356 1.247 . S
O355 Cd351 2.439 . S
O355 C356 1.208 . S
C356 O354 1.247 . S
C356 O355 1.208 . S
C357 O362 1.247 . S
C357 O363 1.208 . S
C358 O350 1.315 . S
C358 O353 1.279 . S
C359 O360 1.315 . S
C359 O361 1.279 . S
O360 Cd352 2.223 . S
O360 C359 1.315 . S
O361 Cd351 2.240 . S
O361 C359 1.279 . S
O362 Cd352 2.297 . S
O362 C357 1.247 . S
O363 Cd352 2.439 . S
O363 C357 1.208 . S
O364 Cd365 2.223 . S
O364 C372 1.315 . S
Cd365 O364 2.223 . S
Cd365 O368 2.297 . S
Cd365 O369 2.439 . S
Cd365 O375 2.240 . S
Cd366 O367 2.240 . S
Cd366 O374 2.223 . S
Cd366 O376 2.297 . S
Cd366 O377 2.439 . S
O367 Cd366 2.240 . S
O367 C372 1.279 . S
O368 Cd365 2.297 . S
O368 C370 1.247 . S
O369 Cd365 2.439 . S
O369 C370 1.208 . S
C370 O368 1.247 . S
C370 O369 1.208 . S
C371 O376 1.247 . S
C371 O377 1.208 . S
C372 O364 1.315 . S
C372 O367 1.279 . S
C373 O374 1.315 . S
C373 O375 1.279 . S
O374 Cd366 2.223 . S
O374 C373 1.315 . S
O375 Cd365 2.240 . S
O375 C373 1.279 . S
O376 Cd366 2.297 . S
O376 C371 1.247 . S
O377 Cd366 2.439 . S
O377 C371 1.208 . S
O378 Cd379 2.223 . S
O378 C386 1.315 . S
Cd379 O378 2.223 . S
Cd379 O382 2.297 . S
Cd379 O383 2.439 . S
Cd379 O389 2.240 1_655 S
Cd380 O381 2.240 1_455 S
Cd380 O388 2.223 . S
Cd380 O390 2.297 . S
Cd380 O391 2.439 . S
O381 Cd380 2.240 1_655 S
O381 C386 1.279 . S
O382 Cd379 2.297 . S
O382 C384 1.247 . S
O383 Cd379 2.439 . S
O383 C384 1.208 . S
C384 O382 1.247 . S
C384 O383 1.208 . S
C385 O390 1.247 . S
C385 O391 1.208 . S
C386 O378 1.315 . S
C386 O381 1.279 . S
C387 O388 1.315 . S
C387 O389 1.279 . S
O388 Cd380 2.223 . S
O388 C387 1.315 . S
O389 Cd379 2.240 1_455 S
O389 C387 1.279 . S
O390 Cd380 2.297 . S
O390 C385 1.247 . S
O391 Cd380 2.439 . S
O391 C385 1.208 . S
O392 Cd393 2.223 . S
O392 C400 1.315 . S
Cd393 O392 2.223 . S
Cd393 O396 2.297 . S
Cd393 O397 2.439 . S
Cd393 O403 2.240 . S
Cd394 O395 2.240 . S
Cd394 O402 2.223 . S
Cd394 O404 2.297 . S
Cd394 O405 2.439 . S
O395 Cd394 2.240 . S
O395 C400 1.279 . S
O396 Cd393 2.297 . S
O396 C398 1.247 . S
O397 Cd393 2.439 . S
O397 C398 1.208 . S
C398 O396 1.247 . S
C398 O397 1.208 . S
C399 O404 1.247 . S
C399 O405 1.208 . S
C400 O392 1.315 . S
C400 O395 1.279 . S
C401 O402 1.315 . S
C401 O403 1.279 . S
O402 Cd394 2.223 . S
O402 C401 1.315 . S
O403 Cd393 2.240 . S
O403 C401 1.279 . S
O404 Cd394 2.297 . S
O404 C399 1.247 . S
O405 Cd394 2.439 . S
O405 C399 1.208 . S
O406 Cd407 2.223 . S
O406 C414 1.315 . S
Cd407 O406 2.223 . S
Cd407 O410 2.297 . S
Cd407 O411 2.439 . S
Cd407 O417 2.240 1_655 S
Cd408 O409 2.240 1_455 S
Cd408 O416 2.223 . S
Cd408 O418 2.297 . S
Cd408 O419 2.439 . S
O409 Cd408 2.240 1_655 S
O409 C414 1.279 . S
O410 Cd407 2.297 . S
O410 C412 1.247 . S
O411 Cd407 2.439 . S
O411 C412 1.208 . S
C412 O410 1.247 . S
C412 O411 1.208 . S
C413 O418 1.247 . S
C413 O419 1.208 . S
C414 O406 1.315 . S
C414 O409 1.279 . S
C415 O416 1.315 . S
C415 O417 1.279 . S
O416 Cd408 2.223 . S
O416 C415 1.315 . S
O417 Cd407 2.240 1_455 S
O417 C415 1.279 . S
O418 Cd408 2.297 . S
O418 C413 1.247 . S
O419 Cd408 2.439 . S
O419 C413 1.208 . S
O420 Cd421 2.223 . S
O420 C428 1.315 . S
Cd421 O420 2.223 . S
Cd421 O424 2.297 . S
Cd421 O425 2.439 . S
Cd421 O431 2.240 . S
Cd422 O423 2.240 . S
Cd422 O430 2.223 . S
Cd422 O432 2.297 . S
Cd422 O433 2.439 . S
O423 Cd422 2.240 . S
O423 C428 1.279 . S
O424 Cd421 2.297 . S
O424 C426 1.247 . S
O425 Cd421 2.439 . S
O425 C426 1.208 . S
C426 O424 1.247 . S
C426 O425 1.208 . S
C427 O432 1.247 . S
C427 O433 1.208 . S
C428 O420 1.315 . S
C428 O423 1.279 . S
C429 O430 1.315 . S
C429 O431 1.279 . S
O430 Cd422 2.223 . S
O430 C429 1.315 . S
O431 Cd421 2.240 . S
O431 C429 1.279 . S
O432 Cd422 2.297 . S
O432 C427 1.247 . S
O433 Cd422 2.439 . S
O433 C427 1.208 . S
O434 Cd435 2.223 . S
O434 C442 1.315 . S
Cd435 O434 2.223 . S
Cd435 O438 2.297 . S
Cd435 O439 2.439 . S
Cd435 O445 2.240 . S
Cd436 O437 2.240 . S
Cd436 O444 2.223 . S
Cd436 O446 2.297 . S
Cd436 O447 2.439 . S
O437 Cd436 2.240 . S
O437 C442 1.279 . S
O438 Cd435 2.297 . S
O438 C440 1.247 . S
O439 Cd435 2.439 . S
O439 C440 1.208 . S
C440 O438 1.247 . S
C440 O439 1.208 . S
C441 O446 1.247 . S
C441 O447 1.208 . S
C442 O434 1.315 . S
C442 O437 1.279 . S
C443 O444 1.315 . S
C443 O445 1.279 . S
O444 Cd436 2.223 . S
O444 C443 1.315 . S
O445 Cd435 2.240 . S
O445 C443 1.279 . S
O446 Cd436 2.297 . S
O446 C441 1.247 . S
O447 Cd436 2.439 . S
O447 C441 1.208 . S
O448 Cd449 2.223 . S
O448 C456 1.315 . S
Cd449 O448 2.223 . S
Cd449 O452 2.297 . S
Cd449 O453 2.439 . S
Cd449 O459 2.240 . S
Cd450 O451 2.240 . S
Cd450 O458 2.223 . S
Cd450 O460 2.297 . S
Cd450 O461 2.439 . S
O451 Cd450 2.240 . S
O451 C456 1.279 . S
O452 Cd449 2.297 . S
O452 C454 1.247 . S
O453 Cd449 2.439 . S
O453 C454 1.208 . S
C454 O452 1.247 . S
C454 O453 1.208 . S
C455 O460 1.247 . S
C455 O461 1.208 . S
C456 O448 1.315 . S
C456 O451 1.279 . S
C457 O458 1.315 . S
C457 O459 1.279 . S
O458 Cd450 2.223 . S
O458 C457 1.315 . S
O459 Cd449 2.240 . S
O459 C457 1.279 . S
O460 Cd450 2.297 . S
O460 C455 1.247 . S
O461 Cd450 2.439 . S
O461 C455 1.208 . S
O462 Cd463 2.223 . S
O462 C470 1.315 . S
Cd463 O462 2.223 . S
Cd463 O466 2.297 . S
Cd463 O467 2.439 . S
Cd463 O473 2.240 1_556 S
Cd464 O465 2.240 1_554 S
Cd464 O472 2.223 . S
Cd464 O474 2.297 . S
Cd464 O475 2.439 . S
O465 Cd464 2.240 1_556 S
O465 C470 1.279 . S
O466 Cd463 2.297 . S
O466 C468 1.247 . S
O467 Cd463 2.439 . S
O467 C468 1.208 . S
C468 O466 1.247 . S
C468 O467 1.208 . S
C469 O474 1.247 . S
C469 O475 1.208 . S
C470 O462 1.315 . S
C470 O465 1.279 . S
C471 O472 1.315 . S
C471 O473 1.279 . S
O472 Cd464 2.223 . S
O472 C471 1.315 . S
O473 Cd463 2.240 1_554 S
O473 C471 1.279 . S
O474 Cd464 2.297 . S
O474 C469 1.247 . S
O475 Cd464 2.439 . S
O475 C469 1.208 . S
O476 Cd477 2.223 . S
O476 C484 1.315 . S
Cd477 O476 2.223 . S
Cd477 O480 2.297 . S
Cd477 O481 2.439 . S
Cd477 O487 2.240 . S
Cd478 O479 2.240 . S
Cd478 O486 2.223 . S
Cd478 O488 2.297 . S
Cd478 O489 2.439 . S
O479 Cd478 2.240 . S
O479 C484 1.279 . S
O480 Cd477 2.297 . S
O480 C482 1.247 . S
O481 Cd477 2.439 . S
O481 C482 1.208 . S
C482 O480 1.247 . S
C482 O481 1.208 . S
C483 O488 1.247 . S
C483 O489 1.208 . S
C484 O476 1.315 . S
C484 O479 1.279 . S
C485 O486 1.315 . S
C485 O487 1.279 . S
O486 Cd478 2.223 . S
O486 C485 1.315 . S
O487 Cd477 2.240 . S
O487 C485 1.279 . S
O488 Cd478 2.297 . S
O488 C483 1.247 . S
O489 Cd478 2.439 . S
O489 C483 1.208 . S
O490 Cd491 2.223 . S
O490 C498 1.315 . S
Cd491 O490 2.223 . S
Cd491 O494 2.297 . S
Cd491 O495 2.439 . S
Cd491 O501 2.240 . S
Cd492 O493 2.240 . S
Cd492 O500 2.223 . S
Cd492 O502 2.297 . S
Cd492 O503 2.439 . S
O493 Cd492 2.240 . S
O493 C498 1.279 . S
O494 Cd491 2.297 . S
O494 C496 1.247 . S
O495 Cd491 2.439 . S
O495 C496 1.208 . S
C496 O494 1.247 . S
C496 O495 1.208 . S
C497 O502 1.247 . S
C497 O503 1.208 . S
C498 O490 1.315 . S
C498 O493 1.279 . S
C499 O500 1.315 . S
C499 O501 1.279 . S
O500 Cd492 2.223 . S
O500 C499 1.315 . S
O501 Cd491 2.240 . S
O501 C499 1.279 . S
O502 Cd492 2.297 . S
O502 C497 1.247 . S
O503 Cd492 2.439 . S
O503 C497 1.208 . S
O504 Cd505 2.223 . S
O504 C512 1.315 . S
Cd505 O504 2.223 . S
Cd505 O508 2.297 . S
Cd505 O509 2.439 . S
Cd505 O515 2.240 . S
Cd506 O507 2.240 . S
Cd506 O514 2.223 . S
Cd506 O516 2.297 . S
Cd506 O517 2.439 . S
O507 Cd506 2.240 . S
O507 C512 1.279 . S
O508 Cd505 2.297 . S
O508 C510 1.247 . S
O509 Cd505 2.439 . S
O509 C510 1.208 . S
C510 O508 1.247 . S
C510 O509 1.208 . S
C511 O516 1.247 . S
C511 O517 1.208 . S
C512 O504 1.315 . S
C512 O507 1.279 . S
C513 O514 1.315 . S
C513 O515 1.279 . S
O514 Cd506 2.223 . S
O514 C513 1.315 . S
O515 Cd505 2.240 . S
O515 C513 1.279 . S
O516 Cd506 2.297 . S
O516 C511 1.247 . S
O517 Cd506 2.439 . S
O517 C511 1.208 . S
O518 Cd519 2.223 . S
O518 C526 1.315 . S
Cd519 O518 2.223 . S
Cd519 O522 2.297 . S
Cd519 O523 2.439 . S
Cd519 O529 2.240 1_554 S
Cd520 O521 2.240 1_556 S
Cd520 O528 2.223 . S
Cd520 O530 2.297 . S
Cd520 O531 2.439 . S
O521 Cd520 2.240 1_554 S
O521 C526 1.279 . S
O522 Cd519 2.297 . S
O522 C524 1.247 . S
O523 Cd519 2.439 . S
O523 C524 1.208 . S
C524 O522 1.247 . S
C524 O523 1.208 . S
C525 O530 1.247 . S
C525 O531 1.208 . S
C526 O518 1.315 . S
C526 O521 1.279 . S
C527 O528 1.315 . S
C527 O529 1.279 . S
O528 Cd520 2.223 . S
O528 C527 1.315 . S
O529 Cd519 2.240 1_556 S
O529 C527 1.279 . S
O530 Cd520 2.297 . S
O530 C525 1.247 . S
O531 Cd520 2.439 . S
O531 C525 1.208 . S
O532 Cd533 2.223 . S
O532 C540 1.315 . S
Cd533 O532 2.223 . S
Cd533 O536 2.297 . S
Cd533 O537 2.439 . S
Cd533 O543 2.240 . S
Cd534 O535 2.240 . S
Cd534 O542 2.223 . S
Cd534 O544 2.297 . S
Cd534 O545 2.439 . S
O535 Cd534 2.240 . S
O535 C540 1.279 . S
O536 Cd533 2.297 . S
O536 C538 1.247 . S
O537 Cd533 2.439 . S
O537 C538 1.208 . S
C538 O536 1.247 . S
C538 O537 1.208 . S
C539 O544 1.247 . S
C539 O545 1.208 . S
C540 O532 1.315 . S
C540 O535 1.279 . S
C541 O542 1.315 . S
C541 O543 1.279 . S
O542 Cd534 2.223 . S
O542 C541 1.315 . S
O543 Cd533 2.240 . S
O543 C541 1.279 . S
O544 Cd534 2.297 . S
O544 C539 1.247 . S
O545 Cd534 2.439 . S
O545 C539 1.208 . S
O546 Cd547 2.223 . S
O546 C554 1.315 . S
Cd547 O546 2.223 . S
Cd547 O550 2.297 . S
Cd547 O551 2.439 . S
Cd547 O557 2.240 . S
Cd548 O549 2.240 . S
Cd548 O556 2.223 . S
Cd548 O558 2.297 . S
Cd548 O559 2.439 . S
O549 Cd548 2.240 . S
O549 C554 1.279 . S
O550 Cd547 2.297 . S
O550 C552 1.247 . S
O551 Cd547 2.439 . S
O551 C552 1.208 . S
C552 O550 1.247 . S
C552 O551 1.208 . S
C553 O558 1.247 . S
C553 O559 1.208 . S
C554 O546 1.315 . S
C554 O549 1.279 . S
C555 O556 1.315 . S
C555 O557 1.279 . S
O556 Cd548 2.223 . S
O556 C555 1.315 . S
O557 Cd547 2.240 . S
O557 C555 1.279 . S
O558 Cd548 2.297 . S
O558 C553 1.247 . S
O559 Cd548 2.439 . S
O559 C553 1.208 . S
O560 Cd561 2.223 . S
O560 C568 1.315 . S
Cd561 O560 2.223 . S
Cd561 O564 2.297 . S
Cd561 O565 2.439 . S
Cd561 O571 2.240 . S
Cd562 O563 2.240 . S
Cd562 O570 2.223 . S
Cd562 O572 2.297 . S
Cd562 O573 2.439 . S
O563 Cd562 2.240 . S
O563 C568 1.279 . S
O564 Cd561 2.297 . S
O564 C566 1.247 . S
O565 Cd561 2.439 . S
O565 C566 1.208 . S
C566 O564 1.247 . S
C566 O565 1.208 . S
C567 O572 1.247 . S
C567 O573 1.208 . S
C568 O560 1.315 . S
C568 O563 1.279 . S
C569 O570 1.315 . S
C569 O571 1.279 . S
O570 Cd562 2.223 . S
O570 C569 1.315 . S
O571 Cd561 2.240 . S
O571 C569 1.279 . S
O572 Cd562 2.297 . S
O572 C567 1.247 . S
O573 Cd562 2.439 . S
O573 C567 1.208 . S
O574 Cd575 2.223 . S
O574 C582 1.315 . S
Cd575 O574 2.223 . S
Cd575 O578 2.297 . S
Cd575 O579 2.439 . S
Cd575 O585 2.240 . S
Cd576 O577 2.240 . S
Cd576 O584 2.223 . S
Cd576 O586 2.297 . S
Cd576 O587 2.439 . S
O577 Cd576 2.240 . S
O577 C582 1.279 . S
O578 Cd575 2.297 . S
O578 C580 1.247 . S
O579 Cd575 2.439 . S
O579 C580 1.208 . S
C580 O578 1.247 . S
C580 O579 1.208 . S
C581 O586 1.247 . S
C581 O587 1.208 . S
C582 O574 1.315 . S
C582 O577 1.279 . S
C583 O584 1.315 . S
C583 O585 1.279 . S
O584 Cd576 2.223 . S
O584 C583 1.315 . S
O585 Cd575 2.240 . S
O585 C583 1.279 . S
O586 Cd576 2.297 . S
O586 C581 1.247 . S
O587 Cd576 2.439 . S
O587 C581 1.208 . S
O588 Cd589 2.223 . S
O588 C596 1.315 . S
Cd589 O588 2.223 . S
Cd589 O592 2.297 . S
Cd589 O593 2.439 . S
Cd589 O599 2.240 1_565 S
Cd590 O591 2.240 1_545 S
Cd590 O598 2.223 . S
Cd590 O600 2.297 . S
Cd590 O601 2.439 . S
O591 Cd590 2.240 1_565 S
O591 C596 1.279 . S
O592 Cd589 2.297 . S
O592 C594 1.247 . S
O593 Cd589 2.439 . S
O593 C594 1.208 . S
C594 O592 1.247 . S
C594 O593 1.208 . S
C595 O600 1.247 . S
C595 O601 1.208 . S
C596 O588 1.315 . S
C596 O591 1.279 . S
C597 O598 1.315 . S
C597 O599 1.279 . S
O598 Cd590 2.223 . S
O598 C597 1.315 . S
O599 Cd589 2.240 1_545 S
O599 C597 1.279 . S
O600 Cd590 2.297 . S
O600 C595 1.247 . S
O601 Cd590 2.439 . S
O601 C595 1.208 . S
O602 Cd603 2.223 . S
O602 C610 1.315 . S
Cd603 O602 2.223 . S
Cd603 O606 2.297 . S
Cd603 O607 2.439 . S
Cd603 O613 2.240 . S
Cd604 O605 2.240 . S
Cd604 O612 2.223 . S
Cd604 O614 2.297 . S
Cd604 O615 2.439 . S
O605 Cd604 2.240 . S
O605 C610 1.279 . S
O606 Cd603 2.297 . S
O606 C608 1.247 . S
O607 Cd603 2.439 . S
O607 C608 1.208 . S
C608 O606 1.247 . S
C608 O607 1.208 . S
C609 O614 1.247 . S
C609 O615 1.208 . S
C610 O602 1.315 . S
C610 O605 1.279 . S
C611 O612 1.315 . S
C611 O613 1.279 . S
O612 Cd604 2.223 . S
O612 C611 1.315 . S
O613 Cd603 2.240 . S
O613 C611 1.279 . S
O614 Cd604 2.297 . S
O614 C609 1.247 . S
O615 Cd604 2.439 . S
O615 C609 1.208 . S
O616 Cd617 2.223 . S
O616 C624 1.315 . S
Cd617 O616 2.223 . S
Cd617 O620 2.297 . S
Cd617 O621 2.439 . S
Cd617 O627 2.240 . S
Cd618 O619 2.240 . S
Cd618 O626 2.223 . S
Cd618 O628 2.297 . S
Cd618 O629 2.439 . S
O619 Cd618 2.240 . S
O619 C624 1.279 . S
O620 Cd617 2.297 . S
O620 C622 1.247 . S
O621 Cd617 2.439 . S
O621 C622 1.208 . S
C622 O620 1.247 . S
C622 O621 1.208 . S
C623 O628 1.247 . S
C623 O629 1.208 . S
C624 O616 1.315 . S
C624 O619 1.279 . S
C625 O626 1.315 . S
C625 O627 1.279 . S
O626 Cd618 2.223 . S
O626 C625 1.315 . S
O627 Cd617 2.240 . S
O627 C625 1.279 . S
O628 Cd618 2.297 . S
O628 C623 1.247 . S
O629 Cd618 2.439 . S
O629 C623 1.208 . S
O630 Cd631 2.223 . S
O630 C638 1.315 . S
Cd631 O630 2.223 . S
Cd631 O634 2.297 . S
Cd631 O635 2.439 . S
Cd631 O641 2.240 . S
Cd632 O633 2.240 . S
Cd632 O640 2.223 . S
Cd632 O642 2.297 . S
Cd632 O643 2.439 . S
O633 Cd632 2.240 . S
O633 C638 1.279 . S
O634 Cd631 2.297 . S
O634 C636 1.247 . S
O635 Cd631 2.439 . S
O635 C636 1.208 . S
C636 O634 1.247 . S
C636 O635 1.208 . S
C637 O642 1.247 . S
C637 O643 1.208 . S
C638 O630 1.315 . S
C638 O633 1.279 . S
C639 O640 1.315 . S
C639 O641 1.279 . S
O640 Cd632 2.223 . S
O640 C639 1.315 . S
O641 Cd631 2.240 . S
O641 C639 1.279 . S
O642 Cd632 2.297 . S
O642 C637 1.247 . S
O643 Cd632 2.439 . S
O643 C637 1.208 . S
O644 Cd645 2.223 . S
O644 C652 1.315 . S
Cd645 O644 2.223 . S
Cd645 O648 2.297 . S
Cd645 O649 2.439 . S
Cd645 O655 2.240 1_545 S
Cd646 O647 2.240 1_565 S
Cd646 O654 2.223 . S
Cd646 O656 2.297 . S
Cd646 O657 2.439 . S
O647 Cd646 2.240 1_545 S
O647 C652 1.279 . S
O648 Cd645 2.297 . S
O648 C650 1.247 . S
O649 Cd645 2.439 . S
O649 C650 1.208 . S
C650 O648 1.247 . S
C650 O649 1.208 . S
C651 O656 1.247 . S
C651 O657 1.208 . S
C652 O644 1.315 . S
C652 O647 1.279 . S
C653 O654 1.315 . S
C653 O655 1.279 . S
O654 Cd646 2.223 . S
O654 C653 1.315 . S
O655 Cd645 2.240 1_565 S
O655 C653 1.279 . S
O656 Cd646 2.297 . S
O656 C651 1.247 . S
O657 Cd646 2.439 . S
O657 C651 1.208 . S
O658 Cd659 2.223 . S
O658 C666 1.315 . S
Cd659 O658 2.223 . S
Cd659 O662 2.297 . S
Cd659 O663 2.439 . S
Cd659 O669 2.240 1_565 S
Cd660 O661 2.240 1_545 S
Cd660 O668 2.223 . S
Cd660 O670 2.297 . S
Cd660 O671 2.439 . S
O661 Cd660 2.240 1_565 S
O661 C666 1.279 . S
O662 Cd659 2.297 . S
O662 C664 1.247 . S
O663 Cd659 2.439 . S
O663 C664 1.208 . S
C664 O662 1.247 . S
C664 O663 1.208 . S
C665 O670 1.247 . S
C665 O671 1.208 . S
C666 O658 1.315 . S
C666 O661 1.279 . S
C667 O668 1.315 . S
C667 O669 1.279 . S
O668 Cd660 2.223 . S
O668 C667 1.315 . S
O669 Cd659 2.240 1_545 S
O669 C667 1.279 . S
O670 Cd660 2.297 . S
O670 C665 1.247 . S
O671 Cd660 2.439 . S
O671 C665 1.208 . S
H672 C680 0.950 . S
H673 C685 0.950 . S
H674 C682 0.950 . S
H675 C684 0.950 . S
H676 C686 0.950 . S
H677 C688 0.950 . S
H678 C690 0.950 . S
H679 C691 0.950 . S
C680 H672 0.950 . S
C680 C681 1.386 . S
C680 C682 1.391 . S
C681 C680 1.386 . S
C681 C685 1.393 . S
C682 H674 0.950 . S
C682 C680 1.391 . S
C682 C683 1.400 . S
C683 C682 1.400 . S
C683 C684 1.398 . S
C683 C689 1.491 . S
C684 H675 0.950 . S
C684 C683 1.398 . S
C684 C685 1.391 . S
C685 H673 0.950 . S
C685 C681 1.393 . S
C685 C684 1.391 . S
C686 H676 0.950 . S
C686 C687 1.386 . S
C686 C688 1.391 . S
C687 C686 1.386 . S
C687 C691 1.393 . S
C688 H677 0.950 . S
C688 C686 1.391 . S
C688 C689 1.400 . S
C689 C683 1.491 . S
C689 C688 1.400 . S
C689 C690 1.398 . S
C690 H678 0.950 . S
C690 C689 1.398 . S
C690 C691 1.391 . S
C691 H679 0.950 . S
C691 C687 1.393 . S
C691 C690 1.391 . S
H692 C700 0.950 . S
H693 C705 0.950 . S
H694 C702 0.950 . S
H695 C704 0.950 . S
H696 C706 0.950 . S
H697 C708 0.950 . S
H698 C710 0.950 . S
H699 C711 0.950 . S
C700 H692 0.950 . S
C700 C701 1.386 . S
C700 C702 1.391 . S
C701 C700 1.386 . S
C701 C705 1.393 . S
C702 H694 0.950 . S
C702 C700 1.391 . S
C702 C703 1.400 . S
C703 C702 1.400 . S
C703 C704 1.398 . S
C703 C709 1.491 . S
C704 H695 0.950 . S
C704 C703 1.398 . S
C704 C705 1.391 . S
C705 H693 0.950 . S
C705 C701 1.393 . S
C705 C704 1.391 . S
C706 H696 0.950 . S
C706 C707 1.386 . S
C706 C708 1.391 . S
C707 C706 1.386 . S
C707 C711 1.393 . S
C708 H697 0.950 . S
C708 C706 1.391 . S
C708 C709 1.400 . S
C709 C703 1.491 . S
C709 C708 1.400 . S
C709 C710 1.398 . S
C710 H698 0.950 . S
C710 C709 1.398 . S
C710 C711 1.391 . S
C711 H699 0.950 . S
C711 C707 1.393 . S
C711 C710 1.391 . S
H712 C720 0.950 . S
H713 C725 0.950 . S
H714 C722 0.950 . S
H715 C724 0.950 . S
H716 C726 0.950 . S
H717 C728 0.950 . S
H718 C730 0.950 . S
H719 C731 0.950 . S
C720 H712 0.950 . S
C720 C721 1.386 . S
C720 C722 1.391 . S
C721 C720 1.386 . S
C721 C725 1.393 . S
C722 H714 0.950 . S
C722 C720 1.391 . S
C722 C723 1.400 . S
C723 C722 1.400 . S
C723 C724 1.398 . S
C723 C729 1.491 . S
C724 H715 0.950 . S
C724 C723 1.398 . S
C724 C725 1.391 . S
C725 H713 0.950 . S
C725 C721 1.393 . S
C725 C724 1.391 . S
C726 H716 0.950 . S
C726 C727 1.386 . S
C726 C728 1.391 . S
C727 C726 1.386 . S
C727 C731 1.393 . S
C728 H717 0.950 . S
C728 C726 1.391 . S
C728 C729 1.400 . S
C729 C723 1.491 . S
C729 C728 1.400 . S
C729 C730 1.398 . S
C730 H718 0.950 . S
C730 C729 1.398 . S
C730 C731 1.391 . S
C731 H719 0.950 . S
C731 C727 1.393 . S
C731 C730 1.391 . S
H732 C740 0.950 . S
H733 C745 0.950 . S
H734 C742 0.950 . S
H735 C744 0.950 . S
H736 C746 0.950 . S
H737 C748 0.950 . S
H738 C750 0.950 . S
H739 C751 0.950 . S
C740 H732 0.950 . S
C740 C741 1.386 . S
C740 C742 1.391 . S
C741 C740 1.386 . S
C741 C745 1.393 . S
C742 H734 0.950 . S
C742 C740 1.391 . S
C742 C743 1.400 . S
C743 C742 1.400 . S
C743 C744 1.398 . S
C743 C749 1.491 . S
C744 H735 0.950 . S
C744 C743 1.398 . S
C744 C745 1.391 . S
C745 H733 0.950 . S
C745 C741 1.393 . S
C745 C744 1.391 . S
C746 H736 0.950 . S
C746 C747 1.386 . S
C746 C748 1.391 . S
C747 C746 1.386 . S
C747 C751 1.393 . S
C748 H737 0.950 . S
C748 C746 1.391 . S
C748 C749 1.400 . S
C749 C743 1.491 . S
C749 C748 1.400 . S
C749 C750 1.398 . S
C750 H738 0.950 . S
C750 C749 1.398 . S
C750 C751 1.391 . S
C751 H739 0.950 . S
C751 C747 1.393 . S
C751 C750 1.391 . S
H752 C760 0.950 . S
H753 C765 0.950 . S
H754 C762 0.950 . S
H755 C764 0.950 . S
H756 C766 0.950 . S
H757 C768 0.950 . S
H758 C770 0.950 . S
H759 C771 0.950 . S
C760 H752 0.950 . S
C760 C761 1.386 . S
C760 C762 1.391 . S
C761 C760 1.386 . S
C761 C765 1.393 . S
C762 H754 0.950 . S
C762 C760 1.391 . S
C762 C763 1.400 . S
C763 C762 1.400 . S
C763 C764 1.398 . S
C763 C769 1.491 . S
C764 H755 0.950 . S
C764 C763 1.398 . S
C764 C765 1.391 . S
C765 H753 0.950 . S
C765 C761 1.393 . S
C765 C764 1.391 . S
C766 H756 0.950 . S
C766 C767 1.386 . S
C766 C768 1.391 . S
C767 C766 1.386 . S
C767 C771 1.393 . S
C768 H757 0.950 . S
C768 C766 1.391 . S
C768 C769 1.400 . S
C769 C763 1.491 . S
C769 C768 1.400 . S
C769 C770 1.398 . S
C770 H758 0.950 . S
C770 C769 1.398 . S
C770 C771 1.391 . S
C771 H759 0.950 . S
C771 C767 1.393 . S
C771 C770 1.391 . S
H772 C780 0.950 . S
H773 C785 0.950 . S
H774 C782 0.950 . S
H775 C784 0.950 . S
H776 C786 0.950 . S
H777 C788 0.950 . S
H778 C790 0.950 . S
H779 C791 0.950 . S
C780 H772 0.950 . S
C780 C781 1.386 . S
C780 C782 1.391 . S
C781 C780 1.386 . S
C781 C785 1.393 . S
C782 H774 0.950 . S
C782 C780 1.391 . S
C782 C783 1.400 . S
C783 C782 1.400 . S
C783 C784 1.398 . S
C783 C789 1.491 . S
C784 H775 0.950 . S
C784 C783 1.398 . S
C784 C785 1.391 . S
C785 H773 0.950 . S
C785 C781 1.393 . S
C785 C784 1.391 . S
C786 H776 0.950 . S
C786 C787 1.386 . S
C786 C788 1.391 . S
C787 C786 1.386 . S
C787 C791 1.393 . S
C788 H777 0.950 . S
C788 C786 1.391 . S
C788 C789 1.400 . S
C789 C783 1.491 . S
C789 C788 1.400 . S
C789 C790 1.398 . S
C790 H778 0.950 . S
C790 C789 1.398 . S
C790 C791 1.391 . S
C791 H779 0.950 . S
C791 C787 1.393 . S
C791 C790 1.391 . S
H792 C800 0.950 . S
H793 C805 0.950 . S
H794 C802 0.950 . S
H795 C804 0.950 . S
H796 C806 0.950 . S
H797 C808 0.950 . S
H798 C810 0.950 . S
H799 C811 0.950 . S
C800 H792 0.950 . S
C800 C801 1.386 . S
C800 C802 1.391 . S
C801 C800 1.386 . S
C801 C805 1.393 . S
C802 H794 0.950 . S
C802 C800 1.391 . S
C802 C803 1.400 . S
C803 C802 1.400 . S
C803 C804 1.398 . S
C803 C809 1.491 . S
C804 H795 0.950 . S
C804 C803 1.398 . S
C804 C805 1.391 . S
C805 H793 0.950 . S
C805 C801 1.393 . S
C805 C804 1.391 . S
C806 H796 0.950 . S
C806 C807 1.386 . S
C806 C808 1.391 . S
C807 C806 1.386 . S
C807 C811 1.393 . S
C808 H797 0.950 . S
C808 C806 1.391 . S
C808 C809 1.400 . S
C809 C803 1.491 . S
C809 C808 1.400 . S
C809 C810 1.398 . S
C810 H798 0.950 . S
C810 C809 1.398 . S
C810 C811 1.391 . S
C811 H799 0.950 . S
C811 C807 1.393 . S
C811 C810 1.391 . S
H812 C820 0.950 . S
H813 C825 0.950 . S
H814 C822 0.950 . S
H815 C824 0.950 . S
H816 C826 0.950 . S
H817 C828 0.950 . S
H818 C830 0.950 . S
H819 C831 0.950 . S
C820 H812 0.950 . S
C820 C821 1.386 . S
C820 C822 1.391 . S
C821 C820 1.386 . S
C821 C825 1.393 . S
C822 H814 0.950 . S
C822 C820 1.391 . S
C822 C823 1.400 . S
C823 C822 1.400 . S
C823 C824 1.398 . S
C823 C829 1.491 . S
C824 H815 0.950 . S
C824 C823 1.398 . S
C824 C825 1.391 . S
C825 H813 0.950 . S
C825 C821 1.393 . S
C825 C824 1.391 . S
C826 H816 0.950 . S
C826 C827 1.386 . S
C826 C828 1.391 . S
C827 C826 1.386 . S
C827 C831 1.393 . S
C828 H817 0.950 . S
C828 C826 1.391 . S
C828 C829 1.400 . S
C829 C823 1.491 . S
C829 C828 1.400 . S
C829 C830 1.398 . S
C830 H818 0.950 . S
C830 C829 1.398 . S
C830 C831 1.391 . S
C831 H819 0.950 . S
C831 C827 1.393 . S
C831 C830 1.391 . S
H832 C840 0.950 . S
H833 C845 0.950 . S
H834 C842 0.950 . S
H835 C844 0.950 . S
H836 C846 0.950 . S
H837 C848 0.950 . S
H838 C850 0.950 . S
H839 C851 0.950 . S
C840 H832 0.950 . S
C840 C841 1.386 . S
C840 C842 1.391 . S
C841 C840 1.386 . S
C841 C845 1.393 . S
C842 H834 0.950 . S
C842 C840 1.391 . S
C842 C843 1.400 . S
C843 C842 1.400 . S
C843 C844 1.398 . S
C843 C849 1.491 . S
C844 H835 0.950 . S
C844 C843 1.398 . S
C844 C845 1.391 . S
C845 H833 0.950 . S
C845 C841 1.393 . S
C845 C844 1.391 . S
C846 H836 0.950 . S
C846 C847 1.386 . S
C846 C848 1.391 . S
C847 C846 1.386 . S
C847 C851 1.393 . S
C848 H837 0.950 . S
C848 C846 1.391 . S
C848 C849 1.400 . S
C849 C843 1.491 . S
C849 C848 1.400 . S
C849 C850 1.398 . S
C850 H838 0.950 . S
C850 C849 1.398 . S
C850 C851 1.391 . S
C851 H839 0.950 . S
C851 C847 1.393 . S
C851 C850 1.391 . S
H852 C860 0.950 . S
H853 C865 0.950 . S
H854 C862 0.950 . S
H855 C864 0.950 . S
H856 C866 0.950 . S
H857 C868 0.950 . S
H858 C870 0.950 . S
H859 C871 0.950 . S
C860 H852 0.950 . S
C860 C861 1.386 . S
C860 C862 1.391 . S
C861 C860 1.386 . S
C861 C865 1.393 . S
C862 H854 0.950 . S
C862 C860 1.391 . S
C862 C863 1.400 . S
C863 C862 1.400 . S
C863 C864 1.398 . S
C863 C869 1.491 . S
C864 H855 0.950 . S
C864 C863 1.398 . S
C864 C865 1.391 . S
C865 H853 0.950 . S
C865 C861 1.393 . S
C865 C864 1.391 . S
C866 H856 0.950 . S
C866 C867 1.386 . S
C866 C868 1.391 . S
C867 C866 1.386 . S
C867 C871 1.393 . S
C868 H857 0.950 . S
C868 C866 1.391 . S
C868 C869 1.400 . S
C869 C863 1.491 . S
C869 C868 1.400 . S
C869 C870 1.398 . S
C870 H858 0.950 . S
C870 C869 1.398 . S
C870 C871 1.391 . S
C871 H859 0.950 . S
C871 C867 1.393 . S
C871 C870 1.391 . S
H872 C880 0.950 . S
H873 C885 0.950 . S
H874 C882 0.950 . S
H875 C884 0.950 . S
H876 C886 0.950 . S
H877 C888 0.950 . S
H878 C890 0.950 . S
H879 C891 0.950 . S
C880 H872 0.950 . S
C880 C881 1.386 . S
C880 C882 1.391 . S
C881 C880 1.386 . S
C881 C885 1.393 . S
C882 H874 0.950 . S
C882 C880 1.391 . S
C882 C883 1.400 . S
C883 C882 1.400 . S
C883 C884 1.398 . S
C883 C889 1.491 . S
C884 H875 0.950 . S
C884 C883 1.398 . S
C884 C885 1.391 . S
C885 H873 0.950 . S
C885 C881 1.393 . S
C885 C884 1.391 . S
C886 H876 0.950 . S
C886 C887 1.386 . S
C886 C888 1.391 . S
C887 C886 1.386 . S
C887 C891 1.393 . S
C888 H877 0.950 . S
C888 C886 1.391 . S
C888 C889 1.400 . S
C889 C883 1.491 . S
C889 C888 1.400 . S
C889 C890 1.398 . S
C890 H878 0.950 . S
C890 C889 1.398 . S
C890 C891 1.391 . S
C891 H879 0.950 . S
C891 C887 1.393 . S
C891 C890 1.391 . S
H892 C900 0.950 . S
H893 C905 0.950 . S
H894 C902 0.950 . S
H895 C904 0.950 . S
H896 C906 0.950 . S
H897 C908 0.950 . S
H898 C910 0.950 . S
H899 C911 0.950 . S
C900 H892 0.950 . S
C900 C901 1.386 . S
C900 C902 1.391 . S
C901 C900 1.386 . S
C901 C905 1.393 . S
C902 H894 0.950 . S
C902 C900 1.391 . S
C902 C903 1.400 . S
C903 C902 1.400 . S
C903 C904 1.398 . S
C903 C909 1.491 . S
C904 H895 0.950 . S
C904 C903 1.398 . S
C904 C905 1.391 . S
C905 H893 0.950 . S
C905 C901 1.393 . S
C905 C904 1.391 . S
C906 H896 0.950 . S
C906 C907 1.386 . S
C906 C908 1.391 . S
C907 C906 1.386 . S
C907 C911 1.393 . S
C908 H897 0.950 . S
C908 C906 1.391 . S
C908 C909 1.400 . S
C909 C903 1.491 . S
C909 C908 1.400 . S
C909 C910 1.398 . S
C910 H898 0.950 . S
C910 C909 1.398 . S
C910 C911 1.391 . S
C911 H899 0.950 . S
C911 C907 1.393 . S
C911 C910 1.391 . S
H912 C920 0.950 . S
H913 C925 0.950 . S
H914 C922 0.950 . S
H915 C924 0.950 . S
H916 C926 0.950 . S
H917 C928 0.950 . S
H918 C930 0.950 . S
H919 C931 0.950 . S
C920 H912 0.950 . S
C920 C921 1.386 . S
C920 C922 1.391 . S
C921 C920 1.386 . S
C921 C925 1.393 . S
C922 H914 0.950 . S
C922 C920 1.391 . S
C922 C923 1.400 . S
C923 C922 1.400 . S
C923 C924 1.398 . S
C923 C929 1.491 . S
C924 H915 0.950 . S
C924 C923 1.398 . S
C924 C925 1.391 . S
C925 H913 0.950 . S
C925 C921 1.393 . S
C925 C924 1.391 . S
C926 H916 0.950 . S
C926 C927 1.386 . S
C926 C928 1.391 . S
C927 C926 1.386 . S
C927 C931 1.393 . S
C928 H917 0.950 . S
C928 C926 1.391 . S
C928 C929 1.400 . S
C929 C923 1.491 . S
C929 C928 1.400 . S
C929 C930 1.398 . S
C930 H918 0.950 . S
C930 C929 1.398 . S
C930 C931 1.391 . S
C931 H919 0.950 . S
C931 C927 1.393 . S
C931 C930 1.391 . S
H932 C940 0.950 . S
H933 C945 0.950 . S
H934 C942 0.950 . S
H935 C944 0.950 . S
H936 C946 0.950 . S
H937 C948 0.950 . S
H938 C950 0.950 . S
H939 C951 0.950 . S
C940 H932 0.950 . S
C940 C941 1.386 . S
C940 C942 1.391 . S
C941 C940 1.386 . S
C941 C945 1.393 . S
C942 H934 0.950 . S
C942 C940 1.391 . S
C942 C943 1.400 . S
C943 C942 1.400 . S
C943 C944 1.398 . S
C943 C949 1.491 . S
C944 H935 0.950 . S
C944 C943 1.398 . S
C944 C945 1.391 . S
C945 H933 0.950 . S
C945 C941 1.393 . S
C945 C944 1.391 . S
C946 H936 0.950 . S
C946 C947 1.386 . S
C946 C948 1.391 . S
C947 C946 1.386 . S
C947 C951 1.393 . S
C948 H937 0.950 . S
C948 C946 1.391 . S
C948 C949 1.400 . S
C949 C943 1.491 . S
C949 C948 1.400 . S
C949 C950 1.398 . S
C950 H938 0.950 . S
C950 C949 1.398 . S
C950 C951 1.391 . S
C951 H939 0.950 . S
C951 C947 1.393 . S
C951 C950 1.391 . S
H952 C960 0.950 . S
H953 C965 0.950 . S
H954 C962 0.950 . S
H955 C964 0.950 . S
H956 C966 0.950 . S
H957 C968 0.950 . S
H958 C970 0.950 . S
H959 C971 0.950 . S
C960 H952 0.950 . S
C960 C961 1.386 . S
C960 C962 1.391 . S
C961 C960 1.386 . S
C961 C965 1.393 . S
C962 H954 0.950 . S
C962 C960 1.391 . S
C962 C963 1.400 . S
C963 C962 1.400 . S
C963 C964 1.398 . S
C963 C969 1.491 . S
C964 H955 0.950 . S
C964 C963 1.398 . S
C964 C965 1.391 . S
C965 H953 0.950 . S
C965 C961 1.393 . S
C965 C964 1.391 . S
C966 H956 0.950 . S
C966 C967 1.386 . S
C966 C968 1.391 . S
C967 C966 1.386 . S
C967 C971 1.393 . S
C968 H957 0.950 . S
C968 C966 1.391 . S
C968 C969 1.400 . S
C969 C963 1.491 . S
C969 C968 1.400 . S
C969 C970 1.398 . S
C970 H958 0.950 . S
C970 C969 1.398 . S
C970 C971 1.391 . S
C971 H959 0.950 . S
C971 C967 1.393 . S
C971 C970 1.391 . S
H972 C980 0.950 . S
H973 C985 0.950 . S
H974 C982 0.950 . S
H975 C984 0.950 . S
H976 C986 0.950 . S
H977 C988 0.950 . S
H978 C990 0.950 . S
H979 C991 0.950 . S
C980 H972 0.950 . S
C980 C981 1.386 . S
C980 C982 1.391 . S
C981 C980 1.386 . S
C981 C985 1.393 . S
C982 H974 0.950 . S
C982 C980 1.391 . S
C982 C983 1.400 . S
C983 C982 1.400 . S
C983 C984 1.398 . S
C983 C989 1.491 . S
C984 H975 0.950 . S
C984 C983 1.398 . S
C984 C985 1.391 . S
C985 H973 0.950 . S
C985 C981 1.393 . S
C985 C984 1.391 . S
C986 H976 0.950 . S
C986 C987 1.386 . S
C986 C988 1.391 . S
C987 C986 1.386 . S
C987 C991 1.393 . S
C988 H977 0.950 . S
C988 C986 1.391 . S
C988 C989 1.400 . S
C989 C983 1.491 . S
C989 C988 1.400 . S
C989 C990 1.398 . S
C990 H978 0.950 . S
C990 C989 1.398 . S
C990 C991 1.391 . S
C991 H979 0.950 . S
C991 C987 1.393 . S
C991 C990 1.391 . S
H992 C1000 0.950 . S
H993 C1005 0.950 . S
H994 C1002 0.950 . S
H995 C1004 0.950 . S
H996 C1006 0.950 . S
H997 C1008 0.950 . S
H998 C1010 0.950 . S
H999 C1011 0.950 . S
C1000 H992 0.950 . S
C1000 C1001 1.386 . S
C1000 C1002 1.391 . S
C1001 C1000 1.386 . S
C1001 C1005 1.393 . S
C1002 H994 0.950 . S
C1002 C1000 1.391 . S
C1002 C1003 1.400 . S
C1003 C1002 1.400 . S
C1003 C1004 1.398 . S
C1003 C1009 1.491 . S
C1004 H995 0.950 . S
C1004 C1003 1.398 . S
C1004 C1005 1.391 . S
C1005 H993 0.950 . S
C1005 C1001 1.393 . S
C1005 C1004 1.391 . S
C1006 H996 0.950 . S
C1006 C1007 1.386 . S
C1006 C1008 1.391 . S
C1007 C1006 1.386 . S
C1007 C1011 1.393 . S
C1008 H997 0.950 . S
C1008 C1006 1.391 . S
C1008 C1009 1.400 . S
C1009 C1003 1.491 . S
C1009 C1008 1.400 . S
C1009 C1010 1.398 . S
C1010 H998 0.950 . S
C1010 C1009 1.398 . S
C1010 C1011 1.391 . S
C1011 H999 0.950 . S
C1011 C1007 1.393 . S
C1011 C1010 1.391 . S
H1012 C1020 0.950 . S
H1013 C1025 0.950 . S
H1014 C1022 0.950 . S
H1015 C1024 0.950 . S
H1016 C1026 0.950 . S
H1017 C1028 0.950 . S
H1018 C1030 0.950 . S
H1019 C1031 0.950 . S
C1020 H1012 0.950 . S
C1020 C1021 1.386 . S
C1020 C1022 1.391 . S
C1021 C1020 1.386 . S
C1021 C1025 1.393 . S
C1022 H1014 0.950 . S
C1022 C1020 1.391 . S
C1022 C1023 1.400 . S
C1023 C1022 1.400 . S
C1023 C1024 1.398 . S
C1023 C1029 1.491 . S
C1024 H1015 0.950 . S
C1024 C1023 1.398 . S
C1024 C1025 1.391 . S
C1025 H1013 0.950 . S
C1025 C1021 1.393 . S
C1025 C1024 1.391 . S
C1026 H1016 0.950 . S
C1026 C1027 1.386 . S
C1026 C1028 1.391 . S
C1027 C1026 1.386 . S
C1027 C1031 1.393 . S
C1028 H1017 0.950 . S
C1028 C1026 1.391 . S
C1028 C1029 1.400 . S
C1029 C1023 1.491 . S
C1029 C1028 1.400 . S
C1029 C1030 1.398 . S
C1030 H1018 0.950 . S
C1030 C1029 1.398 . S
C1030 C1031 1.391 . S
C1031 H1019 0.950 . S
C1031 C1027 1.393 . S
C1031 C1030 1.391 . S
H1032 C1040 0.950 . S
H1033 C1045 0.950 . S
H1034 C1042 0.950 . S
H1035 C1044 0.950 . S
H1036 C1046 0.950 . S
H1037 C1048 0.950 . S
H1038 C1050 0.950 . S
H1039 C1051 0.950 . S
C1040 H1032 0.950 . S
C1040 C1041 1.386 . S
C1040 C1042 1.391 . S
C1041 C1040 1.386 . S
C1041 C1045 1.393 . S
C1042 H1034 0.950 . S
C1042 C1040 1.391 . S
C1042 C1043 1.400 . S
C1043 C1042 1.400 . S
C1043 C1044 1.398 . S
C1043 C1049 1.491 . S
C1044 H1035 0.950 . S
C1044 C1043 1.398 . S
C1044 C1045 1.391 . S
C1045 H1033 0.950 . S
C1045 C1041 1.393 . S
C1045 C1044 1.391 . S
C1046 H1036 0.950 . S
C1046 C1047 1.386 . S
C1046 C1048 1.391 . S
C1047 C1046 1.386 . S
C1047 C1051 1.393 . S
C1048 H1037 0.950 . S
C1048 C1046 1.391 . S
C1048 C1049 1.400 . S
C1049 C1043 1.491 . S
C1049 C1048 1.400 . S
C1049 C1050 1.398 . S
C1050 H1038 0.950 . S
C1050 C1049 1.398 . S
C1050 C1051 1.391 . S
C1051 H1039 0.950 . S
C1051 C1047 1.393 . S
C1051 C1050 1.391 . S
H1052 C1060 0.950 . S
H1053 C1065 0.950 . S
H1054 C1062 0.950 . S
H1055 C1064 0.950 . S
H1056 C1066 0.950 . S
H1057 C1068 0.950 . S
H1058 C1070 0.950 . S
H1059 C1071 0.950 . S
C1060 H1052 0.950 . S
C1060 C1061 1.386 . S
C1060 C1062 1.391 . S
C1061 C1060 1.386 . S
C1061 C1065 1.393 . S
C1062 H1054 0.950 . S
C1062 C1060 1.391 . S
C1062 C1063 1.400 . S
C1063 C1062 1.400 . S
C1063 C1064 1.398 . S
C1063 C1069 1.491 . S
C1064 H1055 0.950 . S
C1064 C1063 1.398 . S
C1064 C1065 1.391 . S
C1065 H1053 0.950 . S
C1065 C1061 1.393 . S
C1065 C1064 1.391 . S
C1066 H1056 0.950 . S
C1066 C1067 1.386 . S
C1066 C1068 1.391 . S
C1067 C1066 1.386 . S
C1067 C1071 1.393 . S
C1068 H1057 0.950 . S
C1068 C1066 1.391 . S
C1068 C1069 1.400 . S
C1069 C1063 1.491 . S
C1069 C1068 1.400 . S
C1069 C1070 1.398 . S
C1070 H1058 0.950 . S
C1070 C1069 1.398 . S
C1070 C1071 1.391 . S
C1071 H1059 0.950 . S
C1071 C1067 1.393 . S
C1071 C1070 1.391 . S
H1072 C1080 0.950 . S
H1073 C1085 0.950 . S
H1074 C1082 0.950 . S
H1075 C1084 0.950 . S
H1076 C1086 0.950 . S
H1077 C1088 0.950 . S
H1078 C1090 0.950 . S
H1079 C1091 0.950 . S
C1080 H1072 0.950 . S
C1080 C1081 1.386 . S
C1080 C1082 1.391 . S
C1081 C1080 1.386 . S
C1081 C1085 1.393 . S
C1082 H1074 0.950 . S
C1082 C1080 1.391 . S
C1082 C1083 1.400 . S
C1083 C1082 1.400 . S
C1083 C1084 1.398 . S
C1083 C1089 1.491 . S
C1084 H1075 0.950 . S
C1084 C1083 1.398 . S
C1084 C1085 1.391 . S
C1085 H1073 0.950 . S
C1085 C1081 1.393 . S
C1085 C1084 1.391 . S
C1086 H1076 0.950 . S
C1086 C1087 1.386 . S
C1086 C1088 1.391 . S
C1087 C1086 1.386 . S
C1087 C1091 1.393 . S
C1088 H1077 0.950 . S
C1088 C1086 1.391 . S
C1088 C1089 1.400 . S
C1089 C1083 1.491 . S
C1089 C1088 1.400 . S
C1089 C1090 1.398 . S
C1090 H1078 0.950 . S
C1090 C1089 1.398 . S
C1090 C1091 1.391 . S
C1091 H1079 0.950 . S
C1091 C1087 1.393 . S
C1091 C1090 1.391 . S
H1092 C1100 0.950 . S
H1093 C1105 0.950 . S
H1094 C1102 0.950 . S
H1095 C1104 0.950 . S
H1096 C1106 0.950 . S
H1097 C1108 0.950 . S
H1098 C1110 0.950 . S
H1099 C1111 0.950 . S
C1100 H1092 0.950 . S
C1100 C1101 1.386 . S
C1100 C1102 1.391 . S
C1101 C1100 1.386 . S
C1101 C1105 1.393 . S
C1102 H1094 0.950 . S
C1102 C1100 1.391 . S
C1102 C1103 1.400 . S
C1103 C1102 1.400 . S
C1103 C1104 1.398 . S
C1103 C1109 1.491 . S
C1104 H1095 0.950 . S
C1104 C1103 1.398 . S
C1104 C1105 1.391 . S
C1105 H1093 0.950 . S
C1105 C1101 1.393 . S
C1105 C1104 1.391 . S
C1106 H1096 0.950 . S
C1106 C1107 1.386 . S
C1106 C1108 1.391 . S
C1107 C1106 1.386 . S
C1107 C1111 1.393 . S
C1108 H1097 0.950 . S
C1108 C1106 1.391 . S
C1108 C1109 1.400 . S
C1109 C1103 1.491 . S
C1109 C1108 1.400 . S
C1109 C1110 1.398 . S
C1110 H1098 0.950 . S
C1110 C1109 1.398 . S
C1110 C1111 1.391 . S
C1111 H1099 0.950 . S
C1111 C1107 1.393 . S
C1111 C1110 1.391 . S
H1112 C1120 0.950 . S
H1113 C1125 0.950 . S
H1114 C1122 0.950 . S
H1115 C1124 0.950 . S
H1116 C1126 0.950 . S
H1117 C1128 0.950 . S
H1118 C1130 0.950 . S
H1119 C1131 0.950 . S
C1120 H1112 0.950 . S
C1120 C1121 1.386 . S
C1120 C1122 1.391 . S
C1121 C1120 1.386 . S
C1121 C1125 1.393 . S
C1122 H1114 0.950 . S
C1122 C1120 1.391 . S
C1122 C1123 1.400 . S
C1123 C1122 1.400 . S
C1123 C1124 1.398 . S
C1123 C1129 1.491 . S
C1124 H1115 0.950 . S
C1124 C1123 1.398 . S
C1124 C1125 1.391 . S
C1125 H1113 0.950 . S
C1125 C1121 1.393 . S
C1125 C1124 1.391 . S
C1126 H1116 0.950 . S
C1126 C1127 1.386 . S
C1126 C1128 1.391 . S
C1127 C1126 1.386 . S
C1127 C1131 1.393 . S
C1128 H1117 0.950 . S
C1128 C1126 1.391 . S
C1128 C1129 1.400 . S
C1129 C1123 1.491 . S
C1129 C1128 1.400 . S
C1129 C1130 1.398 . S
C1130 H1118 0.950 . S
C1130 C1129 1.398 . S
C1130 C1131 1.391 . S
C1131 H1119 0.950 . S
C1131 C1127 1.393 . S
C1131 C1130 1.391 . S
H1132 C1140 0.950 . S
H1133 C1145 0.950 . S
H1134 C1142 0.950 . S
H1135 C1144 0.950 . S
H1136 C1146 0.950 . S
H1137 C1148 0.950 . S
H1138 C1150 0.950 . S
H1139 C1151 0.950 . S
C1140 H1132 0.950 . S
C1140 C1141 1.386 . S
C1140 C1142 1.391 . S
C1141 C1140 1.386 . S
C1141 C1145 1.393 . S
C1142 H1134 0.950 . S
C1142 C1140 1.391 . S
C1142 C1143 1.400 . S
C1143 C1142 1.400 . S
C1143 C1144 1.398 . S
C1143 C1149 1.491 . S
C1144 H1135 0.950 . S
C1144 C1143 1.398 . S
C1144 C1145 1.391 . S
C1145 H1133 0.950 . S
C1145 C1141 1.393 . S
C1145 C1144 1.391 . S
C1146 H1136 0.950 . S
C1146 C1147 1.386 . S
C1146 C1148 1.391 . S
C1147 C1146 1.386 . S
C1147 C1151 1.393 . S
C1148 H1137 0.950 . S
C1148 C1146 1.391 . S
C1148 C1149 1.400 . S
C1149 C1143 1.491 . S
C1149 C1148 1.400 . S
C1149 C1150 1.398 . S
C1150 H1138 0.950 . S
C1150 C1149 1.398 . S
C1150 C1151 1.391 . S
C1151 H1139 0.950 . S
C1151 C1147 1.393 . S
C1151 C1150 1.391 . S
H1152 C1160 0.950 . S
H1153 C1165 0.950 . S
H1154 C1162 0.950 . S
H1155 C1164 0.950 . S
H1156 C1166 0.950 . S
H1157 C1168 0.950 . S
H1158 C1170 0.950 . S
H1159 C1171 0.950 . S
C1160 H1152 0.950 . S
C1160 C1161 1.386 . S
C1160 C1162 1.391 . S
C1161 C1160 1.386 . S
C1161 C1165 1.393 . S
C1162 H1154 0.950 . S
C1162 C1160 1.391 . S
C1162 C1163 1.400 . S
C1163 C1162 1.400 . S
C1163 C1164 1.398 . S
C1163 C1169 1.491 . S
C1164 H1155 0.950 . S
C1164 C1163 1.398 . S
C1164 C1165 1.391 . S
C1165 H1153 0.950 . S
C1165 C1161 1.393 . S
C1165 C1164 1.391 . S
C1166 H1156 0.950 . S
C1166 C1167 1.386 . S
C1166 C1168 1.391 . S
C1167 C1166 1.386 . S
C1167 C1171 1.393 . S
C1168 H1157 0.950 . S
C1168 C1166 1.391 . S
C1168 C1169 1.400 . S
C1169 C1163 1.491 . S
C1169 C1168 1.400 . S
C1169 C1170 1.398 . S
C1170 H1158 0.950 . S
C1170 C1169 1.398 . S
C1170 C1171 1.391 . S
C1171 H1159 0.950 . S
C1171 C1167 1.393 . S
C1171 C1170 1.391 . S
H1172 C1180 0.950 . S
H1173 C1185 0.950 . S
H1174 C1182 0.950 . S
H1175 C1184 0.950 . S
H1176 C1186 0.950 . S
H1177 C1188 0.950 . S
H1178 C1190 0.950 . S
H1179 C1191 0.950 . S
C1180 H1172 0.950 . S
C1180 C1181 1.386 . S
C1180 C1182 1.391 . S
C1181 C1180 1.386 . S
C1181 C1185 1.393 . S
C1182 H1174 0.950 . S
C1182 C1180 1.391 . S
C1182 C1183 1.400 . S
C1183 C1182 1.400 . S
C1183 C1184 1.398 . S
C1183 C1189 1.491 . S
C1184 H1175 0.950 . S
C1184 C1183 1.398 . S
C1184 C1185 1.391 . S
C1185 H1173 0.950 . S
C1185 C1181 1.393 . S
C1185 C1184 1.391 . S
C1186 H1176 0.950 . S
C1186 C1187 1.386 . S
C1186 C1188 1.391 . S
C1187 C1186 1.386 . S
C1187 C1191 1.393 . S
C1188 H1177 0.950 . S
C1188 C1186 1.391 . S
C1188 C1189 1.400 . S
C1189 C1183 1.491 . S
C1189 C1188 1.400 . S
C1189 C1190 1.398 . S
C1190 H1178 0.950 . S
C1190 C1189 1.398 . S
C1190 C1191 1.391 . S
C1191 H1179 0.950 . S
C1191 C1187 1.393 . S
C1191 C1190 1.391 . S
H1192 C1200 0.950 . S
H1193 C1205 0.950 . S
H1194 C1202 0.950 . S
H1195 C1204 0.950 . S
H1196 C1206 0.950 . S
H1197 C1208 0.950 . S
H1198 C1210 0.950 . S
H1199 C1211 0.950 . S
C1200 H1192 0.950 . S
C1200 C1201 1.386 . S
C1200 C1202 1.391 . S
C1201 C1200 1.386 . S
C1201 C1205 1.393 . S
C1202 H1194 0.950 . S
C1202 C1200 1.391 . S
C1202 C1203 1.400 . S
C1203 C1202 1.400 . S
C1203 C1204 1.398 . S
C1203 C1209 1.491 . S
C1204 H1195 0.950 . S
C1204 C1203 1.398 . S
C1204 C1205 1.391 . S
C1205 H1193 0.950 . S
C1205 C1201 1.393 . S
C1205 C1204 1.391 . S
C1206 H1196 0.950 . S
C1206 C1207 1.386 . S
C1206 C1208 1.391 . S
C1207 C1206 1.386 . S
C1207 C1211 1.393 . S
C1208 H1197 0.950 . S
C1208 C1206 1.391 . S
C1208 C1209 1.400 . S
C1209 C1203 1.491 . S
C1209 C1208 1.400 . S
C1209 C1210 1.398 . S
C1210 H1198 0.950 . S
C1210 C1209 1.398 . S
C1210 C1211 1.391 . S
C1211 H1199 0.950 . S
C1211 C1207 1.393 . S
C1211 C1210 1.391 . S
H1212 C1220 0.950 . S
H1213 C1225 0.950 . S
H1214 C1222 0.950 . S
H1215 C1224 0.950 . S
H1216 C1226 0.950 . S
H1217 C1228 0.950 . S
H1218 C1230 0.950 . S
H1219 C1231 0.942 1_556 S
C1220 H1212 0.950 . S
C1220 C1221 1.386 . S
C1220 C1222 1.391 . S
C1221 C1220 1.386 . S
C1221 C1225 1.393 . S
C1222 H1214 0.950 . S
C1222 C1220 1.391 . S
C1222 C1223 1.400 . S
C1223 C1222 1.400 . S
C1223 C1224 1.398 . S
C1223 C1229 1.491 . S
C1224 H1215 0.950 . S
C1224 C1223 1.398 . S
C1224 C1225 1.391 . S
C1225 H1213 0.950 . S
C1225 C1221 1.393 . S
C1225 C1224 1.391 . S
C1226 H1216 0.950 . S
C1226 C1227 1.386 . S
C1226 C1228 1.391 . S
C1227 C1226 1.386 . S
C1227 C1231 1.393 . S
C1228 H1217 0.950 . S
C1228 C1226 1.391 . S
C1228 C1229 1.400 1_554 S
C1229 C1223 1.491 . S
C1229 C1228 1.400 1_556 S
C1229 C1230 1.398 . S
C1230 H1218 0.950 . S
C1230 C1229 1.398 . S
C1230 C1231 1.391 1_556 S
C1231 H1219 0.942 1_554 S
C1231 C1227 1.393 . S
C1231 C1230 1.391 1_554 S
H1232 C1240 0.950 . S
H1233 C1245 0.950 . S
H1234 C1242 0.950 . S
H1235 C1244 0.950 . S
H1236 C1246 0.950 . S
H1237 C1248 0.950 . S
H1238 C1250 0.950 . S
H1239 C1251 0.950 . S
C1240 H1232 0.950 . S
C1240 C1241 1.386 . S
C1240 C1242 1.391 . S
C1241 C1240 1.386 . S
C1241 C1245 1.393 . S
C1242 H1234 0.950 . S
C1242 C1240 1.391 . S
C1242 C1243 1.400 . S
C1243 C1242 1.400 . S
C1243 C1244 1.398 . S
C1243 C1249 1.491 . S
C1244 H1235 0.950 . S
C1244 C1243 1.398 . S
C1244 C1245 1.391 . S
C1245 H1233 0.950 . S
C1245 C1241 1.393 . S
C1245 C1244 1.391 . S
C1246 H1236 0.950 . S
C1246 C1247 1.386 . S
C1246 C1248 1.391 . S
C1247 C1246 1.386 . S
C1247 C1251 1.393 . S
C1248 H1237 0.950 . S
C1248 C1246 1.391 . S
C1248 C1249 1.400 . S
C1249 C1243 1.491 . S
C1249 C1248 1.400 . S
C1249 C1250 1.398 . S
C1250 H1238 0.950 . S
C1250 C1249 1.398 . S
C1250 C1251 1.391 . S
C1251 H1239 0.950 . S
C1251 C1247 1.393 . S
C1251 C1250 1.391 . S
H1252 C1260 0.950 . S
H1253 C1265 0.950 . S
H1254 C1262 0.950 . S
H1255 C1264 0.950 . S
H1256 C1266 0.950 . S
H1257 C1268 0.950 . S
H1258 C1270 0.950 . S
H1259 C1271 0.950 . S
C1260 H1252 0.950 . S
C1260 C1261 1.386 . S
C1260 C1262 1.391 . S
C1261 C1260 1.386 . S
C1261 C1265 1.393 . S
C1262 H1254 0.950 . S
C1262 C1260 1.391 . S
C1262 C1263 1.400 . S
C1263 C1262 1.400 . S
C1263 C1264 1.398 . S
C1263 C1269 1.491 . S
C1264 H1255 0.950 . S
C1264 C1263 1.398 . S
C1264 C1265 1.391 . S
C1265 H1253 0.950 . S
C1265 C1261 1.393 . S
C1265 C1264 1.391 . S
C1266 H1256 0.950 . S
C1266 C1267 1.386 . S
C1266 C1268 1.391 . S
C1267 C1266 1.386 . S
C1267 C1271 1.393 . S
C1268 H1257 0.950 . S
C1268 C1266 1.391 . S
C1268 C1269 1.400 . S
C1269 C1263 1.491 . S
C1269 C1268 1.400 . S
C1269 C1270 1.398 . S
C1270 H1258 0.950 . S
C1270 C1269 1.398 . S
C1270 C1271 1.391 . S
C1271 H1259 0.950 . S
C1271 C1267 1.393 . S
C1271 C1270 1.391 . S
H1272 C1280 0.950 . S
H1273 C1285 0.950 . S
H1274 C1282 0.950 . S
H1275 C1284 0.950 . S
H1276 C1286 0.950 . S
H1277 C1288 0.950 . S
H1278 C1290 0.950 . S
H1279 C1291 0.950 . S
C1280 H1272 0.950 . S
C1280 C1281 1.386 . S
C1280 C1282 1.391 . S
C1281 C1280 1.386 . S
C1281 C1285 1.393 . S
C1282 H1274 0.950 . S
C1282 C1280 1.391 . S
C1282 C1283 1.400 . S
C1283 C1282 1.400 . S
C1283 C1284 1.398 . S
C1283 C1289 1.491 . S
C1284 H1275 0.950 . S
C1284 C1283 1.398 . S
C1284 C1285 1.391 . S
C1285 H1273 0.950 . S
C1285 C1281 1.393 . S
C1285 C1284 1.391 . S
C1286 H1276 0.950 . S
C1286 C1287 1.386 . S
C1286 C1288 1.391 . S
C1287 C1286 1.386 . S
C1287 C1291 1.393 . S
C1288 H1277 0.950 . S
C1288 C1286 1.391 . S
C1288 C1289 1.400 . S
C1289 C1283 1.491 . S
C1289 C1288 1.400 . S
C1289 C1290 1.398 . S
C1290 H1278 0.950 . S
C1290 C1289 1.398 . S
C1290 C1291 1.391 . S
C1291 H1279 0.950 . S
C1291 C1287 1.393 . S
C1291 C1290 1.391 . S
H1292 C1300 0.950 . S
H1293 C1305 0.950 . S
H1294 C1302 0.950 . S
H1295 C1304 0.950 . S
H1296 C1306 0.950 . S
H1297 C1308 0.950 . S
H1298 C1310 0.950 . S
H1299 C1311 0.950 . S
C1300 H1292 0.950 . S
C1300 C1301 1.386 . S
C1300 C1302 1.391 . S
C1301 C1300 1.386 . S
C1301 C1305 1.393 . S
C1302 H1294 0.950 . S
C1302 C1300 1.391 . S
C1302 C1303 1.400 . S
C1303 C1302 1.400 . S
C1303 C1304 1.398 . S
C1303 C1309 1.491 . S
C1304 H1295 0.950 . S
C1304 C1303 1.398 . S
C1304 C1305 1.391 . S
C1305 H1293 0.950 . S
C1305 C1301 1.393 . S
C1305 C1304 1.391 . S
C1306 H1296 0.950 . S
C1306 C1307 1.386 . S
C1306 C1308 1.391 1_556 S
C1307 C1306 1.386 . S
C1307 C1311 1.393 . S
C1308 H1297 0.950 . S
C1308 C1306 1.391 1_554 S
C1308 C1309 1.400 . S
C1309 C1303 1.491 . S
C1309 C1308 1.400 . S
C1309 C1310 1.398 1_554 S
C1310 H1298 0.950 . S
C1310 C1309 1.398 1_556 S
C1310 C1311 1.391 . S
C1311 H1299 0.950 . S
C1311 C1307 1.393 . S
C1311 C1310 1.391 . S
H1312 C1320 0.950 . S
H1313 C1325 0.950 . S
H1314 C1322 0.950 . S
H1315 C1324 0.950 . S
H1316 C1326 0.950 . S
H1317 C1328 0.950 . S
H1318 C1330 0.950 . S
H1319 C1331 0.950 . S
C1320 H1312 0.950 . S
C1320 C1321 1.386 . S
C1320 C1322 1.391 . S
C1321 C1320 1.386 . S
C1321 C1325 1.393 . S
C1322 H1314 0.950 . S
C1322 C1320 1.391 . S
C1322 C1323 1.400 . S
C1323 C1322 1.400 . S
C1323 C1324 1.398 . S
C1323 C1329 1.491 . S
C1324 H1315 0.950 . S
C1324 C1323 1.398 . S
C1324 C1325 1.391 . S
C1325 H1313 0.950 . S
C1325 C1321 1.393 . S
C1325 C1324 1.391 . S
C1326 H1316 0.950 . S
C1326 C1327 1.386 . S
C1326 C1328 1.391 . S
C1327 C1326 1.386 . S
C1327 C1331 1.393 . S
C1328 H1317 0.950 . S
C1328 C1326 1.391 . S
C1328 C1329 1.400 . S
C1329 C1323 1.491 . S
C1329 C1328 1.400 . S
C1329 C1330 1.398 . S
C1330 H1318 0.950 . S
C1330 C1329 1.398 . S
C1330 C1331 1.391 . S
C1331 H1319 0.950 . S
C1331 C1327 1.393 . S
C1331 C1330 1.391 . S
H1332 C1340 0.950 . S
H1333 C1345 0.950 . S
H1334 C1342 0.950 . S
H1335 C1344 0.950 . S
H1336 C1346 0.950 . S
H1337 C1348 0.950 . S
H1338 C1350 0.950 . S
H1339 C1351 0.950 . S
C1340 H1332 0.950 . S
C1340 C1341 1.386 . S
C1340 C1342 1.391 . S
C1341 C1340 1.386 . S
C1341 C1345 1.393 . S
C1342 H1334 0.950 . S
C1342 C1340 1.391 . S
C1342 C1343 1.400 . S
C1343 C1342 1.400 . S
C1343 C1344 1.398 . S
C1343 C1349 1.491 . S
C1344 H1335 0.950 . S
C1344 C1343 1.398 . S
C1344 C1345 1.391 . S
C1345 H1333 0.950 . S
C1345 C1341 1.393 . S
C1345 C1344 1.391 . S
C1346 H1336 0.950 . S
C1346 C1347 1.386 . S
C1346 C1348 1.391 1_545 S
C1347 C1346 1.386 . S
C1347 C1351 1.393 . S
C1348 H1337 0.950 . S
C1348 C1346 1.391 1_565 S
C1348 C1349 1.400 . S
C1349 C1343 1.491 . S
C1349 C1348 1.400 . S
C1349 C1350 1.398 1_565 S
C1350 H1338 0.950 . S
C1350 C1349 1.398 1_545 S
C1350 C1351 1.391 . S
C1351 H1339 0.950 . S
C1351 C1347 1.393 . S
C1351 C1350 1.391 . S
H1352 C1360 0.950 . S
H1353 C1365 0.950 . S
H1354 C1362 0.950 . S
H1355 C1364 0.950 . S
H1356 C1366 0.950 . S
H1357 C1368 0.950 . S
H1358 C1370 0.950 . S
H1359 C1371 0.950 . S
C1360 H1352 0.950 . S
C1360 C1361 1.386 . S
C1360 C1362 1.391 . S
C1361 C1360 1.386 . S
C1361 C1365 1.393 . S
C1362 H1354 0.950 . S
C1362 C1360 1.391 . S
C1362 C1363 1.400 . S
C1363 C1362 1.400 . S
C1363 C1364 1.398 . S
C1363 C1369 1.491 . S
C1364 H1355 0.950 . S
C1364 C1363 1.398 . S
C1364 C1365 1.391 . S
C1365 H1353 0.950 . S
C1365 C1361 1.393 . S
C1365 C1364 1.391 . S
C1366 H1356 0.950 . S
C1366 C1367 1.386 . S
C1366 C1368 1.391 . S
C1367 C1366 1.386 . S
C1367 C1371 1.393 . S
C1368 H1357 0.950 . S
C1368 C1366 1.391 . S
C1368 C1369 1.400 . S
C1369 C1363 1.491 . S
C1369 C1368 1.400 . S
C1369 C1370 1.398 . S
C1370 H1358 0.950 . S
C1370 C1369 1.398 . S
C1370 C1371 1.391 . S
C1371 H1359 0.950 . S
C1371 C1367 1.393 . S
C1371 C1370 1.391 . S
H1372 C1380 0.950 . S
H1373 C1385 0.950 . S
H1374 C1382 0.950 . S
H1375 C1384 0.950 . S
H1376 C1386 0.950 1_556 S
H1377 C1388 0.950 1_545 S
H1378 C1390 0.950 1_545 S
H1379 C1391 0.950 . S
C1380 H1372 0.950 . S
C1380 C1381 1.386 . S
C1380 C1382 1.391 . S
C1381 C1380 1.386 . S
C1381 C1385 1.393 . S
C1382 H1374 0.950 . S
C1382 C1380 1.391 . S
C1382 C1383 1.400 . S
C1383 C1382 1.400 . S
C1383 C1384 1.398 . S
C1383 C1389 1.491 . S
C1384 H1375 0.950 . S
C1384 C1383 1.398 . S
C1384 C1385 1.391 . S
C1385 H1373 0.950 . S
C1385 C1381 1.393 . S
C1385 C1384 1.391 . S
C1386 H1376 0.950 1_554 S
C1386 C1387 1.386 . S
C1386 C1388 1.391 . S
C1387 C1386 1.386 . S
C1387 C1391 1.393 . S
C1388 H1377 0.950 1_565 S
C1388 C1386 1.391 . S
C1388 C1389 1.400 1_565 S
C1389 C1383 1.491 . S
C1389 C1388 1.400 1_545 S
C1389 C1390 1.398 1_545 S
C1390 H1378 0.950 1_565 S
C1390 C1389 1.398 1_565 S
C1390 C1391 1.391 . S
C1391 H1379 0.950 . S
C1391 C1387 1.393 . S
C1391 C1390 1.391 . S
H1392 C1400 0.950 . S
H1393 C1405 0.950 . S
H1394 C1402 0.950 . S
H1395 C1404 0.950 . S
H1396 C1406 0.950 . S
H1397 C1408 0.950 . S
H1398 C1410 0.950 . S
H1399 C1411 0.950 . S
C1400 H1392 0.950 . S
C1400 C1401 1.386 . S
C1400 C1402 1.391 . S
C1401 C1400 1.386 . S
C1401 C1405 1.393 . S
C1402 H1394 0.950 . S
C1402 C1400 1.391 . S
C1402 C1403 1.400 . S
C1403 C1402 1.400 . S
C1403 C1404 1.398 . S
C1403 C1409 1.491 . S
C1404 H1395 0.950 . S
C1404 C1403 1.398 . S
C1404 C1405 1.391 . S
C1405 H1393 0.950 . S
C1405 C1401 1.393 . S
C1405 C1404 1.391 . S
C1406 H1396 0.950 . S
C1406 C1407 1.386 . S
C1406 C1408 1.391 . S
C1407 C1406 1.386 . S
C1407 C1411 1.393 . S
C1408 H1397 0.950 . S
C1408 C1406 1.391 . S
C1408 C1409 1.400 . S
C1409 C1403 1.491 . S
C1409 C1408 1.400 . S
C1409 C1410 1.398 . S
C1410 H1398 0.950 . S
C1410 C1409 1.398 . S
C1410 C1411 1.391 . S
C1411 H1399 0.950 . S
C1411 C1407 1.393 . S
C1411 C1410 1.391 . S
H1412 C1420 0.950 . S
H1413 C1425 0.950 . S
H1414 C1422 0.950 . S
H1415 C1424 0.950 . S
H1416 C1426 0.950 . S
H1417 C1428 0.950 . S
H1418 C1430 0.945 1_565 S
H1419 C1431 0.950 . S
C1420 H1412 0.950 . S
C1420 C1421 1.386 . S
C1420 C1422 1.391 . S
C1421 C1420 1.386 . S
C1421 C1425 1.393 . S
C1422 H1414 0.950 . S
C1422 C1420 1.391 . S
C1422 C1423 1.400 . S
C1423 C1422 1.400 . S
C1423 C1424 1.398 . S
C1423 C1429 1.491 . S
C1424 H1415 0.950 . S
C1424 C1423 1.398 . S
C1424 C1425 1.391 . S
C1425 H1413 0.950 . S
C1425 C1421 1.393 . S
C1425 C1424 1.391 . S
C1426 H1416 0.950 . S
C1426 C1427 1.386 . S
C1426 C1428 1.391 1_545 S
C1427 C1426 1.386 . S
C1427 C1431 1.393 . S
C1428 H1417 0.950 . S
C1428 C1426 1.391 1_565 S
C1428 C1429 1.400 . S
C1429 C1423 1.491 . S
C1429 C1428 1.400 . S
C1429 C1430 1.391 1_565 S
C1430 H1418 0.945 1_545 S
C1430 C1429 1.391 1_545 S
C1430 C1431 1.404 . S
C1431 H1419 0.950 . S
C1431 C1427 1.393 . S
C1431 C1430 1.404 . S
H1432 C1440 0.950 . S
H1433 C1445 0.950 . S
H1434 C1442 0.950 . S
H1435 C1444 0.950 . S
H1436 C1446 0.950 . S
H1437 C1448 0.950 . S
H1438 C1450 0.950 . S
H1439 C1451 0.950 . S
C1440 H1432 0.950 . S
C1440 C1441 1.386 . S
C1440 C1442 1.391 . S
C1441 C1440 1.386 . S
C1441 C1445 1.393 . S
C1442 H1434 0.950 . S
C1442 C1440 1.391 . S
C1442 C1443 1.400 . S
C1443 C1442 1.400 . S
C1443 C1444 1.398 . S
C1443 C1449 1.491 . S
C1444 H1435 0.950 . S
C1444 C1443 1.398 . S
C1444 C1445 1.391 . S
C1445 H1433 0.950 . S
C1445 C1441 1.393 . S
C1445 C1444 1.391 . S
C1446 H1436 0.950 . S
C1446 C1447 1.386 . S
C1446 C1448 1.391 . S
C1447 C1446 1.386 . S
C1447 C1451 1.393 . S
C1448 H1437 0.950 . S
C1448 C1446 1.391 . S
C1448 C1449 1.400 . S
C1449 C1443 1.491 . S
C1449 C1448 1.400 . S
C1449 C1450 1.398 . S
C1450 H1438 0.950 . S
C1450 C1449 1.398 . S
C1450 C1451 1.391 . S
C1451 H1439 0.950 . S
C1451 C1447 1.393 . S
C1451 C1450 1.391 . S
H1452 C1460 0.950 . S
H1453 C1465 0.949 1_545 S
H1454 C1462 0.950 . S
H1455 C1464 0.950 . S
H1456 C1466 0.950 . S
H1457 C1468 0.950 . S
H1458 C1470 0.950 . S
H1459 C1471 0.950 . S
C1460 H1452 0.950 . S
C1460 C1461 1.386 . S
C1460 C1462 1.391 . S
C1461 C1460 1.386 . S
C1461 C1465 1.393 . S
C1462 H1454 0.950 . S
C1462 C1460 1.391 . S
C1462 C1463 1.400 1_565 S
C1463 C1462 1.400 1_545 S
C1463 C1464 1.398 . S
C1463 C1469 1.491 . S
C1464 H1455 0.950 . S
C1464 C1463 1.398 . S
C1464 C1465 1.391 1_545 S
C1465 H1453 0.949 1_565 S
C1465 C1461 1.393 . S
C1465 C1464 1.391 1_565 S
C1466 H1456 0.950 . S
C1466 C1467 1.386 . S
C1466 C1468 1.391 . S
C1467 C1466 1.386 . S
C1467 C1471 1.393 . S
C1468 H1457 0.950 . S
C1468 C1466 1.391 . S
C1468 C1469 1.400 . S
C1469 C1463 1.491 . S
C1469 C1468 1.400 . S
C1469 C1470 1.398 . S
C1470 H1458 0.950 . S
C1470 C1469 1.398 . S
C1470 C1471 1.391 . S
C1471 H1459 0.950 . S
C1471 C1467 1.393 . S
C1471 C1470 1.391 . S
H1472 C1480 0.950 . S
H1473 C1485 0.950 . S
H1474 C1482 0.950 . S
H1475 C1484 0.950 . S
H1476 C1486 0.950 . S
H1477 C1488 0.950 . S
H1478 C1490 0.950 . S
H1479 C1491 0.950 . S
C1480 H1472 0.950 . S
C1480 C1481 1.386 . S
C1480 C1482 1.391 . S
C1481 C1480 1.386 . S
C1481 C1485 1.393 . S
C1482 H1474 0.950 . S
C1482 C1480 1.391 . S
C1482 C1483 1.400 . S
C1483 C1482 1.400 . S
C1483 C1484 1.398 . S
C1483 C1489 1.491 . S
C1484 H1475 0.950 . S
C1484 C1483 1.398 . S
C1484 C1485 1.391 . S
C1485 H1473 0.950 . S
C1485 C1481 1.393 . S
C1485 C1484 1.391 . S
C1486 H1476 0.950 . S
C1486 C1487 1.386 . S
C1486 C1488 1.391 . S
C1487 C1486 1.386 . S
C1487 C1491 1.393 . S
C1488 H1477 0.950 . S
C1488 C1486 1.391 . S
C1488 C1489 1.400 . S
C1489 C1483 1.491 . S
C1489 C1488 1.400 . S
C1489 C1490 1.398 . S
C1490 H1478 0.950 . S
C1490 C1489 1.398 . S
C1490 C1491 1.391 . S
C1491 H1479 0.950 . S
C1491 C1487 1.393 . S
C1491 C1490 1.391 . S
H1492 C1500 0.950 . S
H1493 C1505 0.950 . S
H1494 C1502 0.950 . S
H1495 C1504 0.950 . S
H1496 C1506 0.950 . S
H1497 C1508 0.950 . S
H1498 C1510 0.950 . S
H1499 C1511 0.950 . S
C1500 H1492 0.950 . S
C1500 C1501 1.386 . S
C1500 C1502 1.391 . S
C1501 C1500 1.386 . S
C1501 C1505 1.393 . S
C1502 H1494 0.950 . S
C1502 C1500 1.391 . S
C1502 C1503 1.400 . S
C1503 C1502 1.400 . S
C1503 C1504 1.398 . S
C1503 C1509 1.491 . S
C1504 H1495 0.950 . S
C1504 C1503 1.398 . S
C1504 C1505 1.391 . S
C1505 H1493 0.950 . S
C1505 C1501 1.393 . S
C1505 C1504 1.391 . S
C1506 H1496 0.950 . S
C1506 C1507 1.386 . S
C1506 C1508 1.391 . S
C1507 C1506 1.386 . S
C1507 C1511 1.393 . S
C1508 H1497 0.950 . S
C1508 C1506 1.391 . S
C1508 C1509 1.400 . S
C1509 C1503 1.491 . S
C1509 C1508 1.400 . S
C1509 C1510 1.398 . S
C1510 H1498 0.950 . S
C1510 C1509 1.398 . S
C1510 C1511 1.391 . S
C1511 H1499 0.950 . S
C1511 C1507 1.393 . S
C1511 C1510 1.391 . S
H1512 C1520 0.950 . S
H1513 C1525 0.950 . S
H1514 C1522 0.950 . S
H1515 C1524 0.950 . S
H1516 C1526 0.950 . S
H1517 C1528 0.950 . S
H1518 C1530 0.950 . S
H1519 C1531 0.950 . S
C1520 H1512 0.950 . S
C1520 C1521 1.386 . S
C1520 C1522 1.391 . S
C1521 C1520 1.386 . S
C1521 C1525 1.393 . S
C1522 H1514 0.950 . S
C1522 C1520 1.391 . S
C1522 C1523 1.400 . S
C1523 C1522 1.400 . S
C1523 C1524 1.398 . S
C1523 C1529 1.491 . S
C1524 H1515 0.950 . S
C1524 C1523 1.398 . S
C1524 C1525 1.391 . S
C1525 H1513 0.950 . S
C1525 C1521 1.393 . S
C1525 C1524 1.391 . S
C1526 H1516 0.950 . S
C1526 C1527 1.386 . S
C1526 C1528 1.391 . S
C1527 C1526 1.386 . S
C1527 C1531 1.393 . S
C1528 H1517 0.950 . S
C1528 C1526 1.391 . S
C1528 C1529 1.400 1_455 S
C1529 C1523 1.491 . S
C1529 C1528 1.400 1_655 S
C1529 C1530 1.398 . S
C1530 H1518 0.950 . S
C1530 C1529 1.398 . S
C1530 C1531 1.391 1_655 S
C1531 H1519 0.950 . S
C1531 C1527 1.393 . S
C1531 C1530 1.391 1_455 S
H1532 C1540 0.950 . S
H1533 C1545 0.950 . S
H1534 C1542 0.950 . S
H1535 C1544 0.950 . S
H1536 C1546 0.950 . S
H1537 C1548 0.950 . S
H1538 C1550 0.950 . S
H1539 C1551 0.950 . S
C1540 H1532 0.950 . S
C1540 C1541 1.386 . S
C1540 C1542 1.391 . S
C1541 C1540 1.386 . S
C1541 C1545 1.393 . S
C1542 H1534 0.950 . S
C1542 C1540 1.391 . S
C1542 C1543 1.400 . S
C1543 C1542 1.400 . S
C1543 C1544 1.398 . S
C1543 C1549 1.491 . S
C1544 H1535 0.950 . S
C1544 C1543 1.398 . S
C1544 C1545 1.391 . S
C1545 H1533 0.950 . S
C1545 C1541 1.393 . S
C1545 C1544 1.391 . S
C1546 H1536 0.950 . S
C1546 C1547 1.386 . S
C1546 C1548 1.391 . S
C1547 C1546 1.386 . S
C1547 C1551 1.393 . S
C1548 H1537 0.950 . S
C1548 C1546 1.391 . S
C1548 C1549 1.400 . S
C1549 C1543 1.491 . S
C1549 C1548 1.400 . S
C1549 C1550 1.398 . S
C1550 H1538 0.950 . S
C1550 C1549 1.398 . S
C1550 C1551 1.391 . S
C1551 H1539 0.950 . S
C1551 C1547 1.393 . S
C1551 C1550 1.391 . S
H1552 C1560 0.950 . S
H1553 C1565 0.950 . S
H1554 C1562 0.950 . S
H1555 C1564 0.950 . S
H1556 C1566 0.939 1_455 S
H1557 C1568 0.950 . S
H1558 C1570 0.950 . S
H1559 C1571 0.950 . S
C1560 H1552 0.950 . S
C1560 C1561 1.386 . S
C1560 C1562 1.391 . S
C1561 C1560 1.386 . S
C1561 C1565 1.393 . S
C1562 H1554 0.950 . S
C1562 C1560 1.391 . S
C1562 C1563 1.400 . S
C1563 C1562 1.400 . S
C1563 C1564 1.398 . S
C1563 C1569 1.491 . S
C1564 H1555 0.950 . S
C1564 C1563 1.398 . S
C1564 C1565 1.391 . S
C1565 H1553 0.950 . S
C1565 C1561 1.393 . S
C1565 C1564 1.391 . S
C1566 H1556 0.939 1_655 S
C1566 C1567 1.386 . S
C1566 C1568 1.391 1_655 S
C1567 C1566 1.386 . S
C1567 C1571 1.393 . S
C1568 H1557 0.950 . S
C1568 C1566 1.391 1_455 S
C1568 C1569 1.400 . S
C1569 C1563 1.491 . S
C1569 C1568 1.400 . S
C1569 C1570 1.398 1_455 S
C1570 H1558 0.950 . S
C1570 C1569 1.398 1_655 S
C1570 C1571 1.391 . S
C1571 H1559 0.950 . S
C1571 C1567 1.393 . S
C1571 C1570 1.391 . S
H1572 C1580 0.950 . S
H1573 C1585 0.950 . S
H1574 C1582 0.950 . S
H1575 C1584 0.950 . S
H1576 C1586 0.950 . S
H1577 C1588 0.950 . S
H1578 C1590 0.950 . S
H1579 C1591 0.950 . S
C1580 H1572 0.950 . S
C1580 C1581 1.386 . S
C1580 C1582 1.391 . S
C1581 C1580 1.386 . S
C1581 C1585 1.393 . S
C1582 H1574 0.950 . S
C1582 C1580 1.391 . S
C1582 C1583 1.400 . S
C1583 C1582 1.400 . S
C1583 C1584 1.398 . S
C1583 C1589 1.491 . S
C1584 H1575 0.950 . S
C1584 C1583 1.398 . S
C1584 C1585 1.391 . S
C1585 H1573 0.950 . S
C1585 C1581 1.393 . S
C1585 C1584 1.391 . S
C1586 H1576 0.950 . S
C1586 C1587 1.386 . S
C1586 C1588 1.391 . S
C1587 C1586 1.386 . S
C1587 C1591 1.393 . S
C1588 H1577 0.950 . S
C1588 C1586 1.391 . S
C1588 C1589 1.400 . S
C1589 C1583 1.491 . S
C1589 C1588 1.400 . S
C1589 C1590 1.398 . S
C1590 H1578 0.950 . S
C1590 C1589 1.398 . S
C1590 C1591 1.391 . S
C1591 H1579 0.950 . S
C1591 C1587 1.393 . S
C1591 C1590 1.391 . S
H1592 C1600 0.950 . S
H1593 C1605 0.950 . S
H1594 C1602 0.950 . S
H1595 C1604 0.950 . S
H1596 C1606 0.950 . S
H1597 C1608 0.950 . S
H1598 C1610 0.950 . S
H1599 C1611 0.950 1_655 S
C1600 H1592 0.950 . S
C1600 C1601 1.386 . S
C1600 C1602 1.391 . S
C1601 C1600 1.386 . S
C1601 C1605 1.393 . S
C1602 H1594 0.950 . S
C1602 C1600 1.391 . S
C1602 C1603 1.400 . S
C1603 C1602 1.400 . S
C1603 C1604 1.398 . S
C1603 C1609 1.491 . S
C1604 H1595 0.950 . S
C1604 C1603 1.398 . S
C1604 C1605 1.391 . S
C1605 H1593 0.950 . S
C1605 C1601 1.393 . S
C1605 C1604 1.391 . S
C1606 H1596 0.950 . S
C1606 C1607 1.386 . S
C1606 C1608 1.391 . S
C1607 C1606 1.386 . S
C1607 C1611 1.393 . S
C1608 H1597 0.950 . S
C1608 C1606 1.391 . S
C1608 C1609 1.400 1_455 S
C1609 C1603 1.491 . S
C1609 C1608 1.400 1_655 S
C1609 C1610 1.398 . S
C1610 H1598 0.950 . S
C1610 C1609 1.398 . S
C1610 C1611 1.391 1_655 S
C1611 H1599 0.950 1_455 S
C1611 C1607 1.393 . S
C1611 C1610 1.391 1_455 S
H1612 C1620 0.950 . S
H1613 C1625 0.950 . S
H1614 C1622 0.950 . S
H1615 C1624 0.950 . S
H1616 C1626 0.950 . S
H1617 C1628 0.950 . S
H1618 C1630 0.950 . S
H1619 C1631 0.950 . S
C1620 H1612 0.950 . S
C1620 C1621 1.386 . S
C1620 C1622 1.391 . S
C1621 C1620 1.386 . S
C1621 C1625 1.393 . S
C1622 H1614 0.950 . S
C1622 C1620 1.391 . S
C1622 C1623 1.400 . S
C1623 C1622 1.400 . S
C1623 C1624 1.398 . S
C1623 C1629 1.491 . S
C1624 H1615 0.950 . S
C1624 C1623 1.398 . S
C1624 C1625 1.391 . S
C1625 H1613 0.950 . S
C1625 C1621 1.393 . S
C1625 C1624 1.391 . S
C1626 H1616 0.950 . S
C1626 C1627 1.386 . S
C1626 C1628 1.391 . S
C1627 C1626 1.386 . S
C1627 C1631 1.393 . S
C1628 H1617 0.950 . S
C1628 C1626 1.391 . S
C1628 C1629 1.400 . S
C1629 C1623 1.491 . S
C1629 C1628 1.400 . S
C1629 C1630 1.398 . S
C1630 H1618 0.950 . S
C1630 C1629 1.398 . S
C1630 C1631 1.391 . S
C1631 H1619 0.950 . S
C1631 C1627 1.393 . S
C1631 C1630 1.391 . S
H1632 C1640 0.950 . S
H1633 C1645 0.950 . S
H1634 C1642 0.950 . S
H1635 C1644 0.950 . S
H1636 C1646 0.950 . S
H1637 C1648 0.950 . S
H1638 C1650 0.950 . S
H1639 C1651 0.950 . S
C1640 H1632 0.950 . S
C1640 C1641 1.386 . S
C1640 C1642 1.391 . S
C1641 C1640 1.386 . S
C1641 C1645 1.393 . S
C1642 H1634 0.950 . S
C1642 C1640 1.391 . S
C1642 C1643 1.400 . S
C1643 C1642 1.400 . S
C1643 C1644 1.398 . S
C1643 C1649 1.491 . S
C1644 H1635 0.950 . S
C1644 C1643 1.398 . S
C1644 C1645 1.391 . S
C1645 H1633 0.950 . S
C1645 C1641 1.393 . S
C1645 C1644 1.391 . S
C1646 H1636 0.950 . S
C1646 C1647 1.386 . S
C1646 C1648 1.391 . S
C1647 C1646 1.386 . S
C1647 C1651 1.393 . S
C1648 H1637 0.950 . S
C1648 C1646 1.391 . S
C1648 C1649 1.400 . S
C1649 C1643 1.491 . S
C1649 C1648 1.400 . S
C1649 C1650 1.398 . S
C1650 H1638 0.950 . S
C1650 C1649 1.398 . S
C1650 C1651 1.391 . S
C1651 H1639 0.950 . S
C1651 C1647 1.393 . S
C1651 C1650 1.391 . S
H1652 C1660 0.950 . S
H1653 C1665 0.950 . S
H1654 C1662 0.950 . S
H1655 C1664 0.950 . S
H1656 C1666 0.950 . S
H1657 C1668 0.950 . S
H1658 C1670 0.950 . S
H1659 C1671 0.950 . S
C1660 H1652 0.950 . S
C1660 C1661 1.386 . S
C1660 C1662 1.391 . S
C1661 C1660 1.386 . S
C1661 C1665 1.393 . S
C1662 H1654 0.950 . S
C1662 C1660 1.391 . S
C1662 C1663 1.400 1_554 S
C1663 C1662 1.400 1_556 S
C1663 C1664 1.398 . S
C1663 C1669 1.491 . S
C1664 H1655 0.950 . S
C1664 C1663 1.398 . S
C1664 C1665 1.391 1_556 S
C1665 H1653 0.950 . S
C1665 C1661 1.393 . S
C1665 C1664 1.391 1_554 S
C1666 H1656 0.950 . S
C1666 C1667 1.386 . S
C1666 C1668 1.391 . S
C1667 C1666 1.386 . S
C1667 C1671 1.393 . S
C1668 H1657 0.950 . S
C1668 C1666 1.391 . S
C1668 C1669 1.400 . S
C1669 C1663 1.491 . S
C1669 C1668 1.400 . S
C1669 C1670 1.398 . S
C1670 H1658 0.950 . S
C1670 C1669 1.398 . S
C1670 C1671 1.391 . S
C1671 H1659 0.950 . S
C1671 C1667 1.393 . S
C1671 C1670 1.391 . S
H1672 C1680 0.950 . S
H1673 C1685 0.950 . S
H1674 C1682 0.950 . S
H1675 C1684 0.950 . S
H1676 C1686 0.950 . S
H1677 C1688 0.950 . S
H1678 C1690 0.950 . S
H1679 C1691 0.950 . S
C1680 H1672 0.950 . S
C1680 C1681 1.386 . S
C1680 C1682 1.391 . S
C1681 C1680 1.386 . S
C1681 C1685 1.393 . S
C1682 H1674 0.950 . S
C1682 C1680 1.391 . S
C1682 C1683 1.400 . S
C1683 C1682 1.400 . S
C1683 C1684 1.398 . S
C1683 C1689 1.491 . S
C1684 H1675 0.950 . S
C1684 C1683 1.398 . S
C1684 C1685 1.391 . S
C1685 H1673 0.950 . S
C1685 C1681 1.393 . S
C1685 C1684 1.391 . S
C1686 H1676 0.950 . S
C1686 C1687 1.386 . S
C1686 C1688 1.391 . S
C1687 C1686 1.386 . S
C1687 C1691 1.393 . S
C1688 H1677 0.950 . S
C1688 C1686 1.391 . S
C1688 C1689 1.400 . S
C1689 C1683 1.491 . S
C1689 C1688 1.400 . S
C1689 C1690 1.398 . S
C1690 H1678 0.950 . S
C1690 C1689 1.398 . S
C1690 C1691 1.391 . S
C1691 H1679 0.950 . S
C1691 C1687 1.393 . S
C1691 C1690 1.391 . S
H1692 C1700 0.950 . S
H1693 C1705 0.950 . S
H1694 C1702 0.950 . S
H1695 C1704 0.950 . S
H1696 C1706 0.950 . S
H1697 C1708 0.950 . S
H1698 C1710 0.950 . S
H1699 C1711 0.950 . S
C1700 H1692 0.950 . S
C1700 C1701 1.386 . S
C1700 C1702 1.391 . S
C1701 C1700 1.386 . S
C1701 C1705 1.393 . S
C1702 H1694 0.950 . S
C1702 C1700 1.391 . S
C1702 C1703 1.400 . S
C1703 C1702 1.400 . S
C1703 C1704 1.398 . S
C1703 C1709 1.491 . S
C1704 H1695 0.950 . S
C1704 C1703 1.398 . S
C1704 C1705 1.391 . S
C1705 H1693 0.950 . S
C1705 C1701 1.393 . S
C1705 C1704 1.391 . S
C1706 H1696 0.950 . S
C1706 C1707 1.386 . S
C1706 C1708 1.391 . S
C1707 C1706 1.386 . S
C1707 C1711 1.393 . S
C1708 H1697 0.950 . S
C1708 C1706 1.391 . S
C1708 C1709 1.400 . S
C1709 C1703 1.491 . S
C1709 C1708 1.400 . S
C1709 C1710 1.398 . S
C1710 H1698 0.950 . S
C1710 C1709 1.398 . S
C1710 C1711 1.391 . S
C1711 H1699 0.950 . S
C1711 C1707 1.393 . S
C1711 C1710 1.391 . S
H1712 C1720 0.950 . S
H1713 C1725 0.950 . S
H1714 C1722 0.950 . S
H1715 C1724 0.950 . S
H1716 C1726 0.950 . S
H1717 C1728 0.950 . S
H1718 C1730 0.950 . S
H1719 C1731 0.950 . S
C1720 H1712 0.950 . S
C1720 C1721 1.386 . S
C1720 C1722 1.391 . S
C1721 C1720 1.386 . S
C1721 C1725 1.393 . S
C1722 H1714 0.950 . S
C1722 C1720 1.391 . S
C1722 C1723 1.400 . S
C1723 C1722 1.400 . S
C1723 C1724 1.398 . S
C1723 C1729 1.491 . S
C1724 H1715 0.950 . S
C1724 C1723 1.398 . S
C1724 C1725 1.391 . S
C1725 H1713 0.950 . S
C1725 C1721 1.393 . S
C1725 C1724 1.391 . S
C1726 H1716 0.950 . S
C1726 C1727 1.386 . S
C1726 C1728 1.391 . S
C1727 C1726 1.386 . S
C1727 C1731 1.393 . S
C1728 H1717 0.950 . S
C1728 C1726 1.391 . S
C1728 C1729 1.400 . S
C1729 C1723 1.491 . S
C1729 C1728 1.400 . S
C1729 C1730 1.398 . S
C1730 H1718 0.950 . S
C1730 C1729 1.398 . S
C1730 C1731 1.391 . S
C1731 H1719 0.950 . S
C1731 C1727 1.393 . S
C1731 C1730 1.391 . S
H1732 C1740 0.950 1_655 S
H1733 C1745 0.950 . S
H1734 C1742 0.950 . S
H1735 C1744 0.950 . S
H1736 C1746 0.950 . S
H1737 C1748 0.950 . S
H1738 C1750 0.950 . S
H1739 C1751 0.950 . S
C1740 H1732 0.950 1_455 S
C1740 C1741 1.386 . S
C1740 C1742 1.391 1_556 S
C1741 C1740 1.386 . S
C1741 C1745 1.393 . S
C1742 H1734 0.950 . S
C1742 C1740 1.391 1_554 S
C1742 C1743 1.400 . S
C1743 C1742 1.400 . S
C1743 C1744 1.398 1_554 S
C1743 C1749 1.491 . S
C1744 H1735 0.950 . S
C1744 C1743 1.398 1_556 S
C1744 C1745 1.391 . S
C1745 H1733 0.950 . S
C1745 C1741 1.393 . S
C1745 C1744 1.391 . S
C1746 H1736 0.950 . S
C1746 C1747 1.386 . S
C1746 C1748 1.391 . S
C1747 C1746 1.386 . S
C1747 C1751 1.393 . S
C1748 H1737 0.950 . S
C1748 C1746 1.391 . S
C1748 C1749 1.400 . S
C1749 C1743 1.491 . S
C1749 C1748 1.400 . S
C1749 C1750 1.398 . S
C1750 H1738 0.950 . S
C1750 C1749 1.398 . S
C1750 C1751 1.391 . S
C1751 H1739 0.950 . S
C1751 C1747 1.393 . S
C1751 C1750 1.391 . S
H1752 C1760 0.950 . S
H1753 C1765 0.950 . S
H1754 C1762 0.950 . S
H1755 C1764 0.950 . S
H1756 C1766 0.950 . S
H1757 C1768 0.950 . S
H1758 C1770 0.950 . S
H1759 C1771 0.950 . S
C1760 H1752 0.950 . S
C1760 C1761 1.386 . S
C1760 C1762 1.391 . S
C1761 C1760 1.386 . S
C1761 C1765 1.393 . S
C1762 H1754 0.950 . S
C1762 C1760 1.391 . S
C1762 C1763 1.400 . S
C1763 C1762 1.400 . S
C1763 C1764 1.398 . S
C1763 C1769 1.491 . S
C1764 H1755 0.950 . S
C1764 C1763 1.398 . S
C1764 C1765 1.391 . S
C1765 H1753 0.950 . S
C1765 C1761 1.393 . S
C1765 C1764 1.391 . S
C1766 H1756 0.950 . S
C1766 C1767 1.386 . S
C1766 C1768 1.391 . S
C1767 C1766 1.386 . S
C1767 C1771 1.393 . S
C1768 H1757 0.950 . S
C1768 C1766 1.391 . S
C1768 C1769 1.400 . S
C1769 C1763 1.491 . S
C1769 C1768 1.400 . S
C1769 C1770 1.398 . S
C1770 H1758 0.950 . S
C1770 C1769 1.398 . S
C1770 C1771 1.391 . S
C1771 H1759 0.950 . S
C1771 C1767 1.393 . S
C1771 C1770 1.391 . S
H1772 C1780 0.950 . S
H1773 C1785 0.950 . S
H1774 C1782 0.950 . S
H1775 C1784 0.950 . S
H1776 C1786 0.950 . S
H1777 C1788 0.950 . S
H1778 C1790 0.950 . S
H1779 C1791 0.950 . S
C1780 H1772 0.950 . S
C1780 C1781 1.386 . S
C1780 C1782 1.391 . S
C1781 C1780 1.386 . S
C1781 C1785 1.393 . S
C1782 H1774 0.950 . S
C1782 C1780 1.391 . S
C1782 C1783 1.400 . S
C1783 C1782 1.400 . S
C1783 C1784 1.398 . S
C1783 C1789 1.491 . S
C1784 H1775 0.950 . S
C1784 C1783 1.398 . S
C1784 C1785 1.391 . S
C1785 H1773 0.950 . S
C1785 C1781 1.393 . S
C1785 C1784 1.391 . S
C1786 H1776 0.950 . S
C1786 C1787 1.386 . S
C1786 C1788 1.391 . S
C1787 C1786 1.386 . S
C1787 C1791 1.393 . S
C1788 H1777 0.950 . S
C1788 C1786 1.391 . S
C1788 C1789 1.400 . S
C1789 C1783 1.491 . S
C1789 C1788 1.400 . S
C1789 C1790 1.398 . S
C1790 H1778 0.950 . S
C1790 C1789 1.398 . S
C1790 C1791 1.391 . S
C1791 H1779 0.950 . S
C1791 C1787 1.393 . S
C1791 C1790 1.391 . S
H1792 C1800 0.950 . S
H1793 C1805 0.950 . S
H1794 C1802 0.950 . S
H1795 C1804 0.950 . S
H1796 C1806 0.950 . S
H1797 C1808 0.950 . S
H1798 C1810 0.950 . S
H1799 C1811 0.950 . S
C1800 H1792 0.950 . S
C1800 C1801 1.386 . S
C1800 C1802 1.391 . S
C1801 C1800 1.386 . S
C1801 C1805 1.393 . S
C1802 H1794 0.950 . S
C1802 C1800 1.391 . S
C1802 C1803 1.400 . S
C1803 C1802 1.400 . S
C1803 C1804 1.398 . S
C1803 C1809 1.491 . S
C1804 H1795 0.950 . S
C1804 C1803 1.398 . S
C1804 C1805 1.391 . S
C1805 H1793 0.950 . S
C1805 C1801 1.393 . S
C1805 C1804 1.391 . S
C1806 H1796 0.950 . S
C1806 C1807 1.386 . S
C1806 C1808 1.391 . S
C1807 C1806 1.386 . S
C1807 C1811 1.393 . S
C1808 H1797 0.950 . S
C1808 C1806 1.391 . S
C1808 C1809 1.400 . S
C1809 C1803 1.491 . S
C1809 C1808 1.400 . S
C1809 C1810 1.398 . S
C1810 H1798 0.950 . S
C1810 C1809 1.398 . S
C1810 C1811 1.391 . S
C1811 H1799 0.950 . S
C1811 C1807 1.393 . S
C1811 C1810 1.391 . S
H1812 C1820 0.950 . S
H1813 C1825 0.950 . S
H1814 C1822 0.950 . S
H1815 C1824 0.950 . S
H1816 C1826 0.950 . S
H1817 C1828 0.950 . S
H1818 C1830 0.950 . S
H1819 C1831 0.950 . S
C1820 H1812 0.950 . S
C1820 C1821 1.386 . S
C1820 C1822 1.391 . S
C1821 C1820 1.386 . S
C1821 C1825 1.393 . S
C1822 H1814 0.950 . S
C1822 C1820 1.391 . S
C1822 C1823 1.400 . S
C1823 C1822 1.400 . S
C1823 C1824 1.398 . S
C1823 C1829 1.491 . S
C1824 H1815 0.950 . S
C1824 C1823 1.398 . S
C1824 C1825 1.391 . S
C1825 H1813 0.950 . S
C1825 C1821 1.393 . S
C1825 C1824 1.391 . S
C1826 H1816 0.950 . S
C1826 C1827 1.386 . S
C1826 C1828 1.391 . S
C1827 C1826 1.386 . S
C1827 C1831 1.393 . S
C1828 H1817 0.950 . S
C1828 C1826 1.391 . S
C1828 C1829 1.400 . S
C1829 C1823 1.491 . S
C1829 C1828 1.400 . S
C1829 C1830 1.398 . S
C1830 H1818 0.950 . S
C1830 C1829 1.398 . S
C1830 C1831 1.391 . S
C1831 H1819 0.950 . S
C1831 C1827 1.393 . S
C1831 C1830 1.391 . S
H1832 C1840 0.950 . S
H1833 C1845 0.950 . S
H1834 C1842 0.950 . S
H1835 C1844 0.950 . S
H1836 C1846 0.950 . S
H1837 C1848 0.950 . S
H1838 C1850 0.950 . S
H1839 C1851 0.950 . S
C1840 H1832 0.950 . S
C1840 C1841 1.386 . S
C1840 C1842 1.391 . S
C1841 C1840 1.386 . S
C1841 C1845 1.393 . S
C1842 H1834 0.950 . S
C1842 C1840 1.391 . S
C1842 C1843 1.400 . S
C1843 C1842 1.400 . S
C1843 C1844 1.398 . S
C1843 C1849 1.491 . S
C1844 H1835 0.950 . S
C1844 C1843 1.398 . S
C1844 C1845 1.391 . S
C1845 H1833 0.950 . S
C1845 C1841 1.393 . S
C1845 C1844 1.391 . S
C1846 H1836 0.950 . S
C1846 C1847 1.386 . S
C1846 C1848 1.391 . S
C1847 C1846 1.386 . S
C1847 C1851 1.393 . S
C1848 H1837 0.950 . S
C1848 C1846 1.391 . S
C1848 C1849 1.400 . S
C1849 C1843 1.491 . S
C1849 C1848 1.400 . S
C1849 C1850 1.398 . S
C1850 H1838 0.950 . S
C1850 C1849 1.398 . S
C1850 C1851 1.391 . S
C1851 H1839 0.950 . S
C1851 C1847 1.393 . S
C1851 C1850 1.391 . S
H1852 C1860 0.950 . S
H1853 C1865 0.950 . S
H1854 C1862 0.950 . S
H1855 C1864 0.950 . S
H1856 C1866 0.950 . S
H1857 C1868 0.950 . S
H1858 C1870 0.950 . S
H1859 C1871 0.950 . S
C1860 H1852 0.950 . S
C1860 C1861 1.386 . S
C1860 C1862 1.391 . S
C1861 C1860 1.386 . S
C1861 C1865 1.393 . S
C1862 H1854 0.950 . S
C1862 C1860 1.391 . S
C1862 C1863 1.400 . S
C1863 C1862 1.400 . S
C1863 C1864 1.398 . S
C1863 C1869 1.491 . S
C1864 H1855 0.950 . S
C1864 C1863 1.398 . S
C1864 C1865 1.391 . S
C1865 H1853 0.950 . S
C1865 C1861 1.393 . S
C1865 C1864 1.391 . S
C1866 H1856 0.950 . S
C1866 C1867 1.386 . S
C1866 C1868 1.391 . S
C1867 C1866 1.386 . S
C1867 C1871 1.393 . S
C1868 H1857 0.950 . S
C1868 C1866 1.391 . S
C1868 C1869 1.400 . S
C1869 C1863 1.491 . S
C1869 C1868 1.400 . S
C1869 C1870 1.398 . S
C1870 H1858 0.950 . S
C1870 C1869 1.398 . S
C1870 C1871 1.391 . S
C1871 H1859 0.950 . S
C1871 C1867 1.393 . S
C1871 C1870 1.391 . S
H1872 C1880 0.950 . S
H1873 C1885 0.950 . S
H1874 C1882 0.950 . S
H1875 C1884 0.950 . S
H1876 C1886 0.950 . S
H1877 C1888 0.950 . S
H1878 C1890 0.950 . S
H1879 C1891 0.950 . S
C1880 H1872 0.950 . S
C1880 C1881 1.386 . S
C1880 C1882 1.391 . S
C1881 C1880 1.386 . S
C1881 C1885 1.393 . S
C1882 H1874 0.950 . S
C1882 C1880 1.391 . S
C1882 C1883 1.400 . S
C1883 C1882 1.400 . S
C1883 C1884 1.398 . S
C1883 C1889 1.491 . S
C1884 H1875 0.950 . S
C1884 C1883 1.398 . S
C1884 C1885 1.391 . S
C1885 H1873 0.950 . S
C1885 C1881 1.393 . S
C1885 C1884 1.391 . S
C1886 H1876 0.950 . S
C1886 C1887 1.386 . S
C1886 C1888 1.391 . S
C1887 C1886 1.386 . S
C1887 C1891 1.393 . S
C1888 H1877 0.950 . S
C1888 C1886 1.391 . S
C1888 C1889 1.400 . S
C1889 C1883 1.491 . S
C1889 C1888 1.400 . S
C1889 C1890 1.398 . S
C1890 H1878 0.950 . S
C1890 C1889 1.398 . S
C1890 C1891 1.391 . S
C1891 H1879 0.950 . S
C1891 C1887 1.393 . S
C1891 C1890 1.391 . S
H1892 C1900 0.950 1_554 S
H1893 C1905 0.950 . S
H1894 C1902 0.950 . S
H1895 C1904 0.950 . S
H1896 C1906 0.950 . S
H1897 C1908 0.950 . S
H1898 C1910 0.950 . S
H1899 C1911 0.950 . S
C1900 H1892 0.950 1_556 S
C1900 C1901 1.386 . S
C1900 C1902 1.391 . S
C1901 C1900 1.386 . S
C1901 C1905 1.393 . S
C1902 H1894 0.950 . S
C1902 C1900 1.391 . S
C1902 C1903 1.400 . S
C1903 C1902 1.400 . S
C1903 C1904 1.398 . S
C1903 C1909 1.491 . S
C1904 H1895 0.950 . S
C1904 C1903 1.398 . S
C1904 C1905 1.391 . S
C1905 H1893 0.950 . S
C1905 C1901 1.393 . S
C1905 C1904 1.391 . S
C1906 H1896 0.950 . S
C1906 C1907 1.386 . S
C1906 C1908 1.391 . S
C1907 C1906 1.386 . S
C1907 C1911 1.393 . S
C1908 H1897 0.950 . S
C1908 C1906 1.391 . S
C1908 C1909 1.400 . S
C1909 C1903 1.491 . S
C1909 C1908 1.400 . S
C1909 C1910 1.398 . S
C1910 H1898 0.950 . S
C1910 C1909 1.398 . S
C1910 C1911 1.391 . S
C1911 H1899 0.950 . S
C1911 C1907 1.393 . S
C1911 C1910 1.391 . S
H1912 C1920 0.950 . S
H1913 C1925 0.950 . S
H1914 C1922 0.950 . S
H1915 C1924 0.950 . S
H1916 C1926 0.950 . S
H1917 C1928 0.950 . S
H1918 C1930 0.950 . S
H1919 C1931 0.950 . S
C1920 H1912 0.950 . S
C1920 C1921 1.386 . S
C1920 C1922 1.391 . S
C1921 C1920 1.386 . S
C1921 C1925 1.393 . S
C1922 H1914 0.950 . S
C1922 C1920 1.391 . S
C1922 C1923 1.400 . S
C1923 C1922 1.400 . S
C1923 C1924 1.398 . S
C1923 C1929 1.491 . S
C1924 H1915 0.950 . S
C1924 C1923 1.398 . S
C1924 C1925 1.391 . S
C1925 H1913 0.950 . S
C1925 C1921 1.393 . S
C1925 C1924 1.391 . S
C1926 H1916 0.950 . S
C1926 C1927 1.386 . S
C1926 C1928 1.391 . S
C1927 C1926 1.386 . S
C1927 C1931 1.393 . S
C1928 H1917 0.950 . S
C1928 C1926 1.391 . S
C1928 C1929 1.400 . S
C1929 C1923 1.491 . S
C1929 C1928 1.400 . S
C1929 C1930 1.398 . S
C1930 H1918 0.950 . S
C1930 C1929 1.398 . S
C1930 C1931 1.391 . S
C1931 H1919 0.950 . S
C1931 C1927 1.393 . S
C1931 C1930 1.391 . S
H1932 C1940 0.950 . S
H1933 C1945 0.950 . S
H1934 C1942 0.950 . S
H1935 C1944 0.950 . S
H1936 C1946 0.950 . S
H1937 C1948 0.950 . S
H1938 C1950 0.950 . S
H1939 C1951 0.950 . S
C1940 H1932 0.950 . S
C1940 C1941 1.386 . S
C1940 C1942 1.391 . S
C1941 C1940 1.386 . S
C1941 C1945 1.393 . S
C1942 H1934 0.950 . S
C1942 C1940 1.391 . S
C1942 C1943 1.400 . S
C1943 C1942 1.400 . S
C1943 C1944 1.398 . S
C1943 C1949 1.491 . S
C1944 H1935 0.950 . S
C1944 C1943 1.398 . S
C1944 C1945 1.391 . S
C1945 H1933 0.950 . S
C1945 C1941 1.393 . S
C1945 C1944 1.391 . S
C1946 H1936 0.950 . S
C1946 C1947 1.386 . S
C1946 C1948 1.391 . S
C1947 C1946 1.386 . S
C1947 C1951 1.393 . S
C1948 H1937 0.950 . S
C1948 C1946 1.391 . S
C1948 C1949 1.400 . S
C1949 C1943 1.491 . S
C1949 C1948 1.400 . S
C1949 C1950 1.398 . S
C1950 H1938 0.950 . S
C1950 C1949 1.398 . S
C1950 C1951 1.391 . S
C1951 H1939 0.950 . S
C1951 C1947 1.393 . S
C1951 C1950 1.391 . S
H1952 C1960 0.950 . S
H1953 C1965 0.950 . S
H1954 C1962 0.950 . S
H1955 C1964 0.950 . S
H1956 C1966 0.950 . S
H1957 C1968 0.950 . S
H1958 C1970 0.950 . S
H1959 C1971 0.950 . S
C1960 H1952 0.950 . S
C1960 C1961 1.386 . S
C1960 C1962 1.391 . S
C1961 C1960 1.386 . S
C1961 C1965 1.393 . S
C1962 H1954 0.950 . S
C1962 C1960 1.391 . S
C1962 C1963 1.400 . S
C1963 C1962 1.400 . S
C1963 C1964 1.398 . S
C1963 C1969 1.491 . S
C1964 H1955 0.950 . S
C1964 C1963 1.398 . S
C1964 C1965 1.391 . S
C1965 H1953 0.950 . S
C1965 C1961 1.393 . S
C1965 C1964 1.391 . S
C1966 H1956 0.950 . S
C1966 C1967 1.386 . S
C1966 C1968 1.391 . S
C1967 C1966 1.386 . S
C1967 C1971 1.393 . S
C1968 H1957 0.950 . S
C1968 C1966 1.391 . S
C1968 C1969 1.400 . S
C1969 C1963 1.491 . S
C1969 C1968 1.400 . S
C1969 C1970 1.398 . S
C1970 H1958 0.950 . S
C1970 C1969 1.398 . S
C1970 C1971 1.391 . S
C1971 H1959 0.950 . S
C1971 C1967 1.393 . S
C1971 C1970 1.391 . S
H1972 C1980 0.950 . S
H1973 C1985 0.950 . S
H1974 C1982 0.950 . S
H1975 C1984 0.950 . S
H1976 C1986 0.950 . S
H1977 C1988 0.950 . S
H1978 C1990 0.950 . S
H1979 C1991 0.950 . S
C1980 H1972 0.950 . S
C1980 C1981 1.386 . S
C1980 C1982 1.391 . S
C1981 C1980 1.386 . S
C1981 C1985 1.393 . S
C1982 H1974 0.950 . S
C1982 C1980 1.391 . S
C1982 C1983 1.400 . S
C1983 C1982 1.400 . S
C1983 C1984 1.398 . S
C1983 C1989 1.491 . S
C1984 H1975 0.950 . S
C1984 C1983 1.398 . S
C1984 C1985 1.391 . S
C1985 H1973 0.950 . S
C1985 C1981 1.393 . S
C1985 C1984 1.391 . S
C1986 H1976 0.950 . S
C1986 C1987 1.386 . S
C1986 C1988 1.391 . S
C1987 C1986 1.386 . S
C1987 C1991 1.393 . S
C1988 H1977 0.950 . S
C1988 C1986 1.391 . S
C1988 C1989 1.400 . S
C1989 C1983 1.491 . S
C1989 C1988 1.400 . S
C1989 C1990 1.398 . S
C1990 H1978 0.950 . S
C1990 C1989 1.398 . S
C1990 C1991 1.391 . S
C1991 H1979 0.950 . S
C1991 C1987 1.393 . S
C1991 C1990 1.391 . S
H1992 C2000 0.950 . S
H1993 C2005 0.950 . S
H1994 C2002 0.950 . S
H1995 C2004 0.950 . S
H1996 C2006 0.950 1_565 S
H1997 C2008 0.950 . S
H1998 C2010 0.950 . S
H1999 C2011 0.950 . S
C2000 H1992 0.950 . S
C2000 C2001 1.386 . S
C2000 C2002 1.391 . S
C2001 C2000 1.386 . S
C2001 C2005 1.393 . S
C2002 H1994 0.950 . S
C2002 C2000 1.391 . S
C2002 C2003 1.400 . S
C2003 C2002 1.400 . S
C2003 C2004 1.398 . S
C2003 C2009 1.491 . S
C2004 H1995 0.950 . S
C2004 C2003 1.398 . S
C2004 C2005 1.391 . S
C2005 H1993 0.950 . S
C2005 C2001 1.393 . S
C2005 C2004 1.391 . S
C2006 H1996 0.950 1_545 S
C2006 C2007 1.386 . S
C2006 C2008 1.391 . S
C2007 C2006 1.386 . S
C2007 C2011 1.393 . S
C2008 H1997 0.950 . S
C2008 C2006 1.391 . S
C2008 C2009 1.400 . S
C2009 C2003 1.491 . S
C2009 C2008 1.400 . S
C2009 C2010 1.398 . S
C2010 H1998 0.950 . S
C2010 C2009 1.398 . S
C2010 C2011 1.391 . S
C2011 H1999 0.950 . S
C2011 C2007 1.393 . S
C2011 C2010 1.391 . S
H2012 C2020 0.950 . S
H2013 C2025 0.950 . S
H2014 C2022 0.950 . S
H2015 C2024 0.950 . S
H2016 C2026 0.950 . S
H2017 C2028 0.950 . S
H2018 C2030 0.950 . S
H2019 C2031 0.950 . S
C2020 H2012 0.950 . S
C2020 C2021 1.386 . S
C2020 C2022 1.391 . S
C2021 C2020 1.386 . S
C2021 C2025 1.393 . S
C2022 H2014 0.950 . S
C2022 C2020 1.391 . S
C2022 C2023 1.400 . S
C2023 C2022 1.400 . S
C2023 C2024 1.398 . S
C2023 C2029 1.491 . S
C2024 H2015 0.950 . S
C2024 C2023 1.398 . S
C2024 C2025 1.391 . S
C2025 H2013 0.950 . S
C2025 C2021 1.393 . S
C2025 C2024 1.391 . S
C2026 H2016 0.950 . S
C2026 C2027 1.386 . S
C2026 C2028 1.391 . S
C2027 C2026 1.386 . S
C2027 C2031 1.393 . S
C2028 H2017 0.950 . S
C2028 C2026 1.391 . S
C2028 C2029 1.400 . S
C2029 C2023 1.491 . S
C2029 C2028 1.400 . S
C2029 C2030 1.398 . S
C2030 H2018 0.950 . S
C2030 C2029 1.398 . S
C2030 C2031 1.391 . S
C2031 H2019 0.950 . S
C2031 C2027 1.393 . S
C2031 C2030 1.391 . S
H2032 C2040 0.950 . S
H2033 C2045 0.950 . S
H2034 C2042 0.950 . S
H2035 C2044 0.950 . S
H2036 C2046 0.950 . S
H2037 C2048 0.950 . S
H2038 C2050 0.950 . S
H2039 C2051 0.950 . S
C2040 H2032 0.950 . S
C2040 C2041 1.386 . S
C2040 C2042 1.391 . S
C2041 C2040 1.386 . S
C2041 C2045 1.393 . S
C2042 H2034 0.950 . S
C2042 C2040 1.391 . S
C2042 C2043 1.400 . S
C2043 C2042 1.400 . S
C2043 C2044 1.398 . S
C2043 C2049 1.491 . S
C2044 H2035 0.950 . S
C2044 C2043 1.398 . S
C2044 C2045 1.391 . S
C2045 H2033 0.950 . S
C2045 C2041 1.393 . S
C2045 C2044 1.391 . S
C2046 H2036 0.950 . S
C2046 C2047 1.386 . S
C2046 C2048 1.391 . S
C2047 C2046 1.386 . S
C2047 C2051 1.393 . S
C2048 H2037 0.950 . S
C2048 C2046 1.391 . S
C2048 C2049 1.400 . S
C2049 C2043 1.491 . S
C2049 C2048 1.400 . S
C2049 C2050 1.398 . S
C2050 H2038 0.950 . S
C2050 C2049 1.398 . S
C2050 C2051 1.391 . S
C2051 H2039 0.950 . S
C2051 C2047 1.393 . S
C2051 C2050 1.391 . S
H2052 C2060 0.950 . S
H2053 C2065 0.950 . S
H2054 C2062 0.950 . S
H2055 C2064 0.950 . S
H2056 C2066 0.950 . S
H2057 C2068 0.950 . S
H2058 C2070 0.950 . S
H2059 C2071 0.950 . S
C2060 H2052 0.950 . S
C2060 C2061 1.386 . S
C2060 C2062 1.391 . S
C2061 C2060 1.386 . S
C2061 C2065 1.393 . S
C2062 H2054 0.950 . S
C2062 C2060 1.391 . S
C2062 C2063 1.400 . S
C2063 C2062 1.400 . S
C2063 C2064 1.398 . S
C2063 C2069 1.491 . S
C2064 H2055 0.950 . S
C2064 C2063 1.398 . S
C2064 C2065 1.391 . S
C2065 H2053 0.950 . S
C2065 C2061 1.393 . S
C2065 C2064 1.391 . S
C2066 H2056 0.950 . S
C2066 C2067 1.386 . S
C2066 C2068 1.391 . S
C2067 C2066 1.386 . S
C2067 C2071 1.393 . S
C2068 H2057 0.950 . S
C2068 C2066 1.391 . S
C2068 C2069 1.400 . S
C2069 C2063 1.491 . S
C2069 C2068 1.400 . S
C2069 C2070 1.398 . S
C2070 H2058 0.950 . S
C2070 C2069 1.398 . S
C2070 C2071 1.391 . S
C2071 H2059 0.950 . S
C2071 C2067 1.393 . S
C2071 C2070 1.391 . S
H2072 C2080 0.950 . S
H2073 C2085 0.950 . S
H2074 C2082 0.950 . S
H2075 C2084 0.950 . S
H2076 C2086 0.950 . S
H2077 C2088 0.950 . S
H2078 C2090 0.950 . S
H2079 C2091 0.950 . S
C2080 H2072 0.950 . S
C2080 C2081 1.386 . S
C2080 C2082 1.391 . S
C2081 C2080 1.386 . S
C2081 C2085 1.393 . S
C2082 H2074 0.950 . S
C2082 C2080 1.391 . S
C2082 C2083 1.400 . S
C2083 C2082 1.400 . S
C2083 C2084 1.398 . S
C2083 C2089 1.491 . S
C2084 H2075 0.950 . S
C2084 C2083 1.398 . S
C2084 C2085 1.391 . S
C2085 H2073 0.950 . S
C2085 C2081 1.393 . S
C2085 C2084 1.391 . S
C2086 H2076 0.950 . S
C2086 C2087 1.386 . S
C2086 C2088 1.391 . S
C2087 C2086 1.386 . S
C2087 C2091 1.393 . S
C2088 H2077 0.950 . S
C2088 C2086 1.391 . S
C2088 C2089 1.400 . S
C2089 C2083 1.491 . S
C2089 C2088 1.400 . S
C2089 C2090 1.398 . S
C2090 H2078 0.950 . S
C2090 C2089 1.398 . S
C2090 C2091 1.391 . S
C2091 H2079 0.950 . S
C2091 C2087 1.393 . S
C2091 C2090 1.391 . S
H2092 C2100 0.950 . S
H2093 C2105 0.950 . S
H2094 C2102 0.950 . S
H2095 C2104 0.950 . S
H2096 C2106 0.950 . S
H2097 C2108 0.950 . S
H2098 C2110 0.950 . S
H2099 C2111 0.950 . S
C2100 H2092 0.950 . S
C2100 C2101 1.386 . S
C2100 C2102 1.391 . S
C2101 C2100 1.386 . S
C2101 C2105 1.393 . S
C2102 H2094 0.950 . S
C2102 C2100 1.391 . S
C2102 C2103 1.400 . S
C2103 C2102 1.400 . S
C2103 C2104 1.398 . S
C2103 C2109 1.491 . S
C2104 H2095 0.950 . S
C2104 C2103 1.398 . S
C2104 C2105 1.391 . S
C2105 H2093 0.950 . S
C2105 C2101 1.393 . S
C2105 C2104 1.391 . S
C2106 H2096 0.950 . S
C2106 C2107 1.386 . S
C2106 C2108 1.391 . S
C2107 C2106 1.386 . S
C2107 C2111 1.393 . S
C2108 H2097 0.950 . S
C2108 C2106 1.391 . S
C2108 C2109 1.400 1_655 S
C2109 C2103 1.491 . S
C2109 C2108 1.400 1_455 S
C2109 C2110 1.398 . S
C2110 H2098 0.950 . S
C2110 C2109 1.398 . S
C2110 C2111 1.391 1_455 S
C2111 H2099 0.950 . S
C2111 C2107 1.393 . S
C2111 C2110 1.391 1_655 S
H2112 C2120 0.950 . S
H2113 C2125 0.950 . S
H2114 C2122 0.950 . S
H2115 C2124 0.950 . S
H2116 C2126 0.950 . S
H2117 C2128 0.950 . S
H2118 C2130 0.950 . S
H2119 C2131 0.950 . S
C2120 H2112 0.950 . S
C2120 C2121 1.386 . S
C2120 C2122 1.391 . S
C2121 C2120 1.386 . S
C2121 C2125 1.393 . S
C2122 H2114 0.950 . S
C2122 C2120 1.391 . S
C2122 C2123 1.400 . S
C2123 C2122 1.400 . S
C2123 C2124 1.398 . S
C2123 C2129 1.491 . S
C2124 H2115 0.950 . S
C2124 C2123 1.398 . S
C2124 C2125 1.391 . S
C2125 H2113 0.950 . S
C2125 C2121 1.393 . S
C2125 C2124 1.391 . S
C2126 H2116 0.950 . S
C2126 C2127 1.386 . S
C2126 C2128 1.391 . S
C2127 C2126 1.386 . S
C2127 C2131 1.393 . S
C2128 H2117 0.950 . S
C2128 C2126 1.391 . S
C2128 C2129 1.400 . S
C2129 C2123 1.491 . S
C2129 C2128 1.400 . S
C2129 C2130 1.398 . S
C2130 H2118 0.950 . S
C2130 C2129 1.398 . S
C2130 C2131 1.391 . S
C2131 H2119 0.950 . S
C2131 C2127 1.393 . S
C2131 C2130 1.391 . S
H2132 C2140 0.950 . S
H2133 C2145 0.950 . S
H2134 C2142 0.950 . S
H2135 C2144 0.950 . S
H2136 C2146 0.950 . S
H2137 C2148 0.950 . S
H2138 C2150 0.950 . S
H2139 C2151 0.950 . S
C2140 H2132 0.950 . S
C2140 C2141 1.386 . S
C2140 C2142 1.391 . S
C2141 C2140 1.386 . S
C2141 C2145 1.393 . S
C2142 H2134 0.950 . S
C2142 C2140 1.391 . S
C2142 C2143 1.400 . S
C2143 C2142 1.400 . S
C2143 C2144 1.398 . S
C2143 C2149 1.491 . S
C2144 H2135 0.950 . S
C2144 C2143 1.398 . S
C2144 C2145 1.391 . S
C2145 H2133 0.950 . S
C2145 C2141 1.393 . S
C2145 C2144 1.391 . S
C2146 H2136 0.950 . S
C2146 C2147 1.386 . S
C2146 C2148 1.391 . S
C2147 C2146 1.386 . S
C2147 C2151 1.393 . S
C2148 H2137 0.950 . S
C2148 C2146 1.391 . S
C2148 C2149 1.400 . S
C2149 C2143 1.491 . S
C2149 C2148 1.400 . S
C2149 C2150 1.398 . S
C2150 H2138 0.950 . S
C2150 C2149 1.398 . S
C2150 C2151 1.391 . S
C2151 H2139 0.950 . S
C2151 C2147 1.393 . S
C2151 C2150 1.391 . S
H2152 C2160 0.950 . S
H2153 C2165 0.950 . S
H2154 C2162 0.950 . S
H2155 C2164 0.950 . S
H2156 C2166 0.950 . S
H2157 C2168 0.950 . S
H2158 C2170 0.950 . S
H2159 C2171 0.950 . S
C2160 H2152 0.950 . S
C2160 C2161 1.386 . S
C2160 C2162 1.391 . S
C2161 C2160 1.386 . S
C2161 C2165 1.393 . S
C2162 H2154 0.950 . S
C2162 C2160 1.391 . S
C2162 C2163 1.400 . S
C2163 C2162 1.400 . S
C2163 C2164 1.398 . S
C2163 C2169 1.491 . S
C2164 H2155 0.950 . S
C2164 C2163 1.398 . S
C2164 C2165 1.391 . S
C2165 H2153 0.950 . S
C2165 C2161 1.393 . S
C2165 C2164 1.391 . S
C2166 H2156 0.950 . S
C2166 C2167 1.386 . S
C2166 C2168 1.391 . S
C2167 C2166 1.386 . S
C2167 C2171 1.393 . S
C2168 H2157 0.950 . S
C2168 C2166 1.391 . S
C2168 C2169 1.400 . S
C2169 C2163 1.491 . S
C2169 C2168 1.400 . S
C2169 C2170 1.398 . S
C2170 H2158 0.950 . S
C2170 C2169 1.398 . S
C2170 C2171 1.391 . S
C2171 H2159 0.950 . S
C2171 C2167 1.393 . S
C2171 C2170 1.391 . S
H2172 C2180 0.950 . S
H2173 C2185 0.950 . S
H2174 C2182 0.950 . S
H2175 C2184 0.950 . S
H2176 C2186 0.950 . S
H2177 C2188 0.950 . S
H2178 C2190 0.950 . S
H2179 C2191 0.950 . S
C2180 H2172 0.950 . S
C2180 C2181 1.386 . S
C2180 C2182 1.391 . S
C2181 C2180 1.386 . S
C2181 C2185 1.393 . S
C2182 H2174 0.950 . S
C2182 C2180 1.391 . S
C2182 C2183 1.400 . S
C2183 C2182 1.400 . S
C2183 C2184 1.398 . S
C2183 C2189 1.491 . S
C2184 H2175 0.950 . S
C2184 C2183 1.398 . S
C2184 C2185 1.391 . S
C2185 H2173 0.950 . S
C2185 C2181 1.393 . S
C2185 C2184 1.391 . S
C2186 H2176 0.950 . S
C2186 C2187 1.386 . S
C2186 C2188 1.391 . S
C2187 C2186 1.386 . S
C2187 C2191 1.393 . S
C2188 H2177 0.950 . S
C2188 C2186 1.391 . S
C2188 C2189 1.400 . S
C2189 C2183 1.491 . S
C2189 C2188 1.400 . S
C2189 C2190 1.398 . S
C2190 H2178 0.950 . S
C2190 C2189 1.398 . S
C2190 C2191 1.391 . S
C2191 H2179 0.950 . S
C2191 C2187 1.393 . S
C2191 C2190 1.391 . S
H2192 C2200 0.950 . S
H2193 C2205 0.950 . S
H2194 C2202 0.950 . S
H2195 C2204 0.950 . S
H2196 C2206 0.950 . S
H2197 C2208 0.950 . S
H2198 C2210 0.950 . S
H2199 C2211 0.950 . S
C2200 H2192 0.950 . S
C2200 C2201 1.386 . S
C2200 C2202 1.391 . S
C2201 C2200 1.386 . S
C2201 C2205 1.393 . S
C2202 H2194 0.950 . S
C2202 C2200 1.391 . S
C2202 C2203 1.400 . S
C2203 C2202 1.400 . S
C2203 C2204 1.398 . S
C2203 C2209 1.491 . S
C2204 H2195 0.950 . S
C2204 C2203 1.398 . S
C2204 C2205 1.391 . S
C2205 H2193 0.950 . S
C2205 C2201 1.393 . S
C2205 C2204 1.391 . S
C2206 H2196 0.950 . S
C2206 C2207 1.386 . S
C2206 C2208 1.391 . S
C2207 C2206 1.386 . S
C2207 C2211 1.393 . S
C2208 H2197 0.950 . S
C2208 C2206 1.391 . S
C2208 C2209 1.400 . S
C2209 C2203 1.491 . S
C2209 C2208 1.400 . S
C2209 C2210 1.398 . S
C2210 H2198 0.950 . S
C2210 C2209 1.398 . S
C2210 C2211 1.391 . S
C2211 H2199 0.950 . S
C2211 C2207 1.393 . S
C2211 C2210 1.391 . S
H2212 C2220 0.950 . S
H2213 C2225 0.950 . S
H2214 C2222 0.950 . S
H2215 C2224 0.950 . S
H2216 C2226 0.950 . S
H2217 C2228 0.950 . S
H2218 C2230 0.950 . S
H2219 C2231 0.950 . S
C2220 H2212 0.950 . S
C2220 C2221 1.386 . S
C2220 C2222 1.391 . S
C2221 C2220 1.386 . S
C2221 C2225 1.393 . S
C2222 H2214 0.950 . S
C2222 C2220 1.391 . S
C2222 C2223 1.400 . S
C2223 C2222 1.400 . S
C2223 C2224 1.398 . S
C2223 C2229 1.491 . S
C2224 H2215 0.950 . S
C2224 C2223 1.398 . S
C2224 C2225 1.391 . S
C2225 H2213 0.950 . S
C2225 C2221 1.393 . S
C2225 C2224 1.391 . S
C2226 H2216 0.950 . S
C2226 C2227 1.386 . S
C2226 C2228 1.391 . S
C2227 C2226 1.386 . S
C2227 C2231 1.393 . S
C2228 H2217 0.950 . S
C2228 C2226 1.391 . S
C2228 C2229 1.400 . S
C2229 C2223 1.491 . S
C2229 C2228 1.400 . S
C2229 C2230 1.398 . S
C2230 H2218 0.950 . S
C2230 C2229 1.398 . S
C2230 C2231 1.391 . S
C2231 H2219 0.950 . S
C2231 C2227 1.393 . S
C2231 C2230 1.391 . S
H2232 C2240 0.950 . S
H2233 C2245 0.950 . S
H2234 C2242 0.950 . S
H2235 C2244 0.950 . S
H2236 C2246 0.950 . S
H2237 C2248 0.950 . S
H2238 C2250 0.950 . S
H2239 C2251 0.950 . S
C2240 H2232 0.950 . S
C2240 C2241 1.386 . S
C2240 C2242 1.391 . S
C2241 C2240 1.386 . S
C2241 C2245 1.393 . S
C2242 H2234 0.950 . S
C2242 C2240 1.391 . S
C2242 C2243 1.400 . S
C2243 C2242 1.400 . S
C2243 C2244 1.398 . S
C2243 C2249 1.491 . S
C2244 H2235 0.950 . S
C2244 C2243 1.398 . S
C2244 C2245 1.391 . S
C2245 H2233 0.950 . S
C2245 C2241 1.393 . S
C2245 C2244 1.391 . S
C2246 H2236 0.950 . S
C2246 C2247 1.386 . S
C2246 C2248 1.391 . S
C2247 C2246 1.386 . S
C2247 C2251 1.393 . S
C2248 H2237 0.950 . S
C2248 C2246 1.391 . S
C2248 C2249 1.400 . S
C2249 C2243 1.491 . S
C2249 C2248 1.400 . S
C2249 C2250 1.398 . S
C2250 H2238 0.950 . S
C2250 C2249 1.398 . S
C2250 C2251 1.391 . S
C2251 H2239 0.950 . S
C2251 C2247 1.393 . S
C2251 C2250 1.391 . S
H2252 C2260 0.950 . S
H2253 C2265 0.950 . S
H2254 C2262 0.950 . S
H2255 C2264 0.950 . S
H2256 C2266 0.950 . S
H2257 C2268 0.950 . S
H2258 C2270 0.950 . S
H2259 C2271 0.950 . S
C2260 H2252 0.950 . S
C2260 C2261 1.386 . S
C2260 C2262 1.391 . S
C2261 C2260 1.386 . S
C2261 C2265 1.393 . S
C2262 H2254 0.950 . S
C2262 C2260 1.391 . S
C2262 C2263 1.400 . S
C2263 C2262 1.400 . S
C2263 C2264 1.398 . S
C2263 C2269 1.491 . S
C2264 H2255 0.950 . S
C2264 C2263 1.398 . S
C2264 C2265 1.391 . S
C2265 H2253 0.950 . S
C2265 C2261 1.393 . S
C2265 C2264 1.391 . S
C2266 H2256 0.950 . S
C2266 C2267 1.386 . S
C2266 C2268 1.391 . S
C2267 C2266 1.386 . S
C2267 C2271 1.393 . S
C2268 H2257 0.950 . S
C2268 C2266 1.391 . S
C2268 C2269 1.400 . S
C2269 C2263 1.491 . S
C2269 C2268 1.400 . S
C2269 C2270 1.398 . S
C2270 H2258 0.950 . S
C2270 C2269 1.398 . S
C2270 C2271 1.391 . S
C2271 H2259 0.950 . S
C2271 C2267 1.393 . S
C2271 C2270 1.391 . S
H2272 C2280 0.950 . S
H2273 C2285 0.950 . S
H2274 C2282 0.950 . S
H2275 C2284 0.950 . S
H2276 C2286 0.950 . S
H2277 C2288 0.950 . S
H2278 C2290 0.950 . S
H2279 C2291 0.950 . S
C2280 H2272 0.950 . S
C2280 C2281 1.386 . S
C2280 C2282 1.391 . S
C2281 C2280 1.386 . S
C2281 C2285 1.393 . S
C2282 H2274 0.950 . S
C2282 C2280 1.391 . S
C2282 C2283 1.400 . S
C2283 C2282 1.400 . S
C2283 C2284 1.398 . S
C2283 C2289 1.491 . S
C2284 H2275 0.950 . S
C2284 C2283 1.398 . S
C2284 C2285 1.391 . S
C2285 H2273 0.950 . S
C2285 C2281 1.393 . S
C2285 C2284 1.391 . S
C2286 H2276 0.950 . S
C2286 C2287 1.386 . S
C2286 C2288 1.391 . S
C2287 C2286 1.386 . S
C2287 C2291 1.393 . S
C2288 H2277 0.950 . S
C2288 C2286 1.391 . S
C2288 C2289 1.400 . S
C2289 C2283 1.491 . S
C2289 C2288 1.400 . S
C2289 C2290 1.398 . S
C2290 H2278 0.950 . S
C2290 C2289 1.398 . S
C2290 C2291 1.391 . S
C2291 H2279 0.950 . S
C2291 C2287 1.393 . S
C2291 C2290 1.391 . S
H2292 C2300 0.950 . S
H2293 C2305 0.950 . S
H2294 C2302 0.950 . S
H2295 C2304 0.950 . S
H2296 C2306 0.950 . S
H2297 C2308 0.950 . S
H2298 C2310 0.950 . S
H2299 C2311 0.950 . S
C2300 H2292 0.950 . S
C2300 C2301 1.386 . S
C2300 C2302 1.391 . S
C2301 C2300 1.386 . S
C2301 C2305 1.393 . S
C2302 H2294 0.950 . S
C2302 C2300 1.391 . S
C2302 C2303 1.400 . S
C2303 C2302 1.400 . S
C2303 C2304 1.398 . S
C2303 C2309 1.491 . S
C2304 H2295 0.950 . S
C2304 C2303 1.398 . S
C2304 C2305 1.391 . S
C2305 H2293 0.950 . S
C2305 C2301 1.393 . S
C2305 C2304 1.391 . S
C2306 H2296 0.950 . S
C2306 C2307 1.386 . S
C2306 C2308 1.391 . S
C2307 C2306 1.386 . S
C2307 C2311 1.393 . S
C2308 H2297 0.950 . S
C2308 C2306 1.391 . S
C2308 C2309 1.400 . S
C2309 C2303 1.491 . S
C2309 C2308 1.400 . S
C2309 C2310 1.398 . S
C2310 H2298 0.950 . S
C2310 C2309 1.398 . S
C2310 C2311 1.391 . S
C2311 H2299 0.950 . S
C2311 C2307 1.393 . S
C2311 C2310 1.391 . S
H2312 C2320 0.950 . S
H2313 C2325 0.950 . S
H2314 C2322 0.950 . S
H2315 C2324 0.950 . S
H2316 C2326 0.950 . S
H2317 C2328 0.950 . S
H2318 C2330 0.950 . S
H2319 C2331 0.950 . S
C2320 H2312 0.950 . S
C2320 C2321 1.386 . S
C2320 C2322 1.391 . S
C2321 C2320 1.386 . S
C2321 C2325 1.393 . S
C2322 H2314 0.950 . S
C2322 C2320 1.391 . S
C2322 C2323 1.400 . S
C2323 C2322 1.400 . S
C2323 C2324 1.398 . S
C2323 C2329 1.491 . S
C2324 H2315 0.950 . S
C2324 C2323 1.398 . S
C2324 C2325 1.391 . S
C2325 H2313 0.950 . S
C2325 C2321 1.393 . S
C2325 C2324 1.391 . S
C2326 H2316 0.950 . S
C2326 C2327 1.386 . S
C2326 C2328 1.391 . S
C2327 C2326 1.386 . S
C2327 C2331 1.393 . S
C2328 H2317 0.950 . S
C2328 C2326 1.391 . S
C2328 C2329 1.400 . S
C2329 C2323 1.491 . S
C2329 C2328 1.400 . S
C2329 C2330 1.398 . S
C2330 H2318 0.950 . S
C2330 C2329 1.398 . S
C2330 C2331 1.391 . S
C2331 H2319 0.950 . S
C2331 C2327 1.393 . S
C2331 C2330 1.391 . S
H2332 C2340 0.950 . S
H2333 C2345 0.950 . S
H2334 C2342 0.950 . S
H2335 C2344 0.950 . S
H2336 C2346 0.950 . S
H2337 C2348 0.950 . S
H2338 C2350 0.950 . S
H2339 C2351 0.950 . S
C2340 H2332 0.950 . S
C2340 C2341 1.386 . S
C2340 C2342 1.391 . S
C2341 C2340 1.386 . S
C2341 C2345 1.393 . S
C2342 H2334 0.950 . S
C2342 C2340 1.391 . S
C2342 C2343 1.400 . S
C2343 C2342 1.400 . S
C2343 C2344 1.398 . S
C2343 C2349 1.491 . S
C2344 H2335 0.950 . S
C2344 C2343 1.398 . S
C2344 C2345 1.391 . S
C2345 H2333 0.950 . S
C2345 C2341 1.393 . S
C2345 C2344 1.391 . S
C2346 H2336 0.950 . S
C2346 C2347 1.386 . S
C2346 C2348 1.391 . S
C2347 C2346 1.386 . S
C2347 C2351 1.393 . S
C2348 H2337 0.950 . S
C2348 C2346 1.391 . S
C2348 C2349 1.400 . S
C2349 C2343 1.491 . S
C2349 C2348 1.400 . S
C2349 C2350 1.398 . S
C2350 H2338 0.950 . S
C2350 C2349 1.398 . S
C2350 C2351 1.391 . S
C2351 H2339 0.950 . S
C2351 C2347 1.393 . S
C2351 C2350 1.391 . S
H2352 C2360 0.950 . S
H2353 C2365 0.950 . S
H2354 C2362 0.950 . S
H2355 C2364 0.950 . S
H2356 C2366 0.950 . S
H2357 C2368 0.950 . S
H2358 C2370 0.950 . S
H2359 C2371 0.950 . S
C2360 H2352 0.950 . S
C2360 C2361 1.386 . S
C2360 C2362 1.391 . S
C2361 C2360 1.386 . S
C2361 C2365 1.393 . S
C2362 H2354 0.950 . S
C2362 C2360 1.391 . S
C2362 C2363 1.400 . S
C2363 C2362 1.400 . S
C2363 C2364 1.398 . S
C2363 C2369 1.491 . S
C2364 H2355 0.950 . S
C2364 C2363 1.398 . S
C2364 C2365 1.391 . S
C2365 H2353 0.950 . S
C2365 C2361 1.393 . S
C2365 C2364 1.391 . S
C2366 H2356 0.950 . S
C2366 C2367 1.386 . S
C2366 C2368 1.391 . S
C2367 C2366 1.386 . S
C2367 C2371 1.393 . S
C2368 H2357 0.950 . S
C2368 C2366 1.391 . S
C2368 C2369 1.400 . S
C2369 C2363 1.491 . S
C2369 C2368 1.400 . S
C2369 C2370 1.398 . S
C2370 H2358 0.950 . S
C2370 C2369 1.398 . S
C2370 C2371 1.391 . S
C2371 H2359 0.950 . S
C2371 C2367 1.393 . S
C2371 C2370 1.391 . S
H2372 C2380 0.950 . S
H2373 C2385 0.950 . S
H2374 C2382 0.950 . S
H2375 C2384 0.950 . S
H2376 C2386 0.950 . S
H2377 C2388 0.950 . S
H2378 C2390 0.950 . S
H2379 C2391 0.950 . S
C2380 H2372 0.950 . S
C2380 C2381 1.386 . S
C2380 C2382 1.391 . S
C2381 C2380 1.386 . S
C2381 C2385 1.393 . S
C2382 H2374 0.950 . S
C2382 C2380 1.391 . S
C2382 C2383 1.400 . S
C2383 C2382 1.400 . S
C2383 C2384 1.398 . S
C2383 C2389 1.491 . S
C2384 H2375 0.950 . S
C2384 C2383 1.398 . S
C2384 C2385 1.391 . S
C2385 H2373 0.950 . S
C2385 C2381 1.393 . S
C2385 C2384 1.391 . S
C2386 H2376 0.950 . S
C2386 C2387 1.386 . S
C2386 C2388 1.391 . S
C2387 C2386 1.386 . S
C2387 C2391 1.393 . S
C2388 H2377 0.950 . S
C2388 C2386 1.391 . S
C2388 C2389 1.400 . S
C2389 C2383 1.491 . S
C2389 C2388 1.400 . S
C2389 C2390 1.398 . S
C2390 H2378 0.950 . S
C2390 C2389 1.398 . S
C2390 C2391 1.391 . S
C2391 H2379 0.950 . S
C2391 C2387 1.393 . S
C2391 C2390 1.391 . S
H2392 C2400 0.950 . S
H2393 C2405 0.950 . S
H2394 C2402 0.950 . S
H2395 C2404 0.950 . S
H2396 C2406 0.950 . S
H2397 C2408 0.950 . S
H2398 C2410 0.950 . S
H2399 C2411 0.950 . S
C2400 H2392 0.950 . S
C2400 C2401 1.386 . S
C2400 C2402 1.391 . S
C2401 C2400 1.386 . S
C2401 C2405 1.393 . S
C2402 H2394 0.950 . S
C2402 C2400 1.391 . S
C2402 C2403 1.400 . S
C2403 C2402 1.400 . S
C2403 C2404 1.398 . S
C2403 C2409 1.491 . S
C2404 H2395 0.950 . S
C2404 C2403 1.398 . S
C2404 C2405 1.391 . S
C2405 H2393 0.950 . S
C2405 C2401 1.393 . S
C2405 C2404 1.391 . S
C2406 H2396 0.950 . S
C2406 C2407 1.386 . S
C2406 C2408 1.391 . S
C2407 C2406 1.386 . S
C2407 C2411 1.393 . S
C2408 H2397 0.950 . S
C2408 C2406 1.391 . S
C2408 C2409 1.400 . S
C2409 C2403 1.491 . S
C2409 C2408 1.400 . S
C2409 C2410 1.398 . S
C2410 H2398 0.950 . S
C2410 C2409 1.398 . S
C2410 C2411 1.391 . S
C2411 H2399 0.950 . S
C2411 C2407 1.393 . S
C2411 C2410 1.391 . S
H2412 C2420 0.950 . S
H2413 C2425 0.950 . S
H2414 C2422 0.950 . S
H2415 C2424 0.950 . S
H2416 C2426 0.950 . S
H2417 C2428 0.950 . S
H2418 C2430 0.950 . S
H2419 C2431 0.950 . S
C2420 H2412 0.950 . S
C2420 C2421 1.386 . S
C2420 C2422 1.391 . S
C2421 C2420 1.386 . S
C2421 C2425 1.393 . S
C2422 H2414 0.950 . S
C2422 C2420 1.391 . S
C2422 C2423 1.400 . S
C2423 C2422 1.400 . S
C2423 C2424 1.398 . S
C2423 C2429 1.491 . S
C2424 H2415 0.950 . S
C2424 C2423 1.398 . S
C2424 C2425 1.391 . S
C2425 H2413 0.950 . S
C2425 C2421 1.393 . S
C2425 C2424 1.391 . S
C2426 H2416 0.950 . S
C2426 C2427 1.386 . S
C2426 C2428 1.391 . S
C2427 C2426 1.386 . S
C2427 C2431 1.393 . S
C2428 H2417 0.950 . S
C2428 C2426 1.391 . S
C2428 C2429 1.400 . S
C2429 C2423 1.491 . S
C2429 C2428 1.400 . S
C2429 C2430 1.398 . S
C2430 H2418 0.950 . S
C2430 C2429 1.398 . S
C2430 C2431 1.391 . S
C2431 H2419 0.950 . S
C2431 C2427 1.393 . S
C2431 C2430 1.391 . S
H2432 C2440 0.950 . S
H2433 C2445 0.950 . S
H2434 C2442 0.950 . S
H2435 C2444 0.950 . S
H2436 C2446 0.950 . S
H2437 C2448 0.950 . S
H2438 C2450 0.950 . S
H2439 C2451 0.950 . S
C2440 H2432 0.950 . S
C2440 C2441 1.386 . S
C2440 C2442 1.391 . S
C2441 C2440 1.386 . S
C2441 C2445 1.393 . S
C2442 H2434 0.950 . S
C2442 C2440 1.391 . S
C2442 C2443 1.400 . S
C2443 C2442 1.400 . S
C2443 C2444 1.398 . S
C2443 C2449 1.491 . S
C2444 H2435 0.950 . S
C2444 C2443 1.398 . S
C2444 C2445 1.391 . S
C2445 H2433 0.950 . S
C2445 C2441 1.393 . S
C2445 C2444 1.391 . S
C2446 H2436 0.950 . S
C2446 C2447 1.386 . S
C2446 C2448 1.391 . S
C2447 C2446 1.386 . S
C2447 C2451 1.393 . S
C2448 H2437 0.950 . S
C2448 C2446 1.391 . S
C2448 C2449 1.400 . S
C2449 C2443 1.491 . S
C2449 C2448 1.400 . S
C2449 C2450 1.398 . S
C2450 H2438 0.950 . S
C2450 C2449 1.398 . S
C2450 C2451 1.391 . S
C2451 H2439 0.950 . S
C2451 C2447 1.393 . S
C2451 C2450 1.391 . S
H2452 C2460 0.950 . S
H2453 C2465 0.950 . S
H2454 C2462 0.950 . S
H2455 C2464 0.950 . S
H2456 C2466 0.950 . S
H2457 C2468 0.950 . S
H2458 C2470 0.950 . S
H2459 C2471 0.950 . S
C2460 H2452 0.950 . S
C2460 C2461 1.386 . S
C2460 C2462 1.391 . S
C2461 C2460 1.386 . S
C2461 C2465 1.393 . S
C2462 H2454 0.950 . S
C2462 C2460 1.391 . S
C2462 C2463 1.400 . S
C2463 C2462 1.400 . S
C2463 C2464 1.398 . S
C2463 C2469 1.491 . S
C2464 H2455 0.950 . S
C2464 C2463 1.398 . S
C2464 C2465 1.391 . S
C2465 H2453 0.950 . S
C2465 C2461 1.393 . S
C2465 C2464 1.391 . S
C2466 H2456 0.950 . S
C2466 C2467 1.386 . S
C2466 C2468 1.391 . S
C2467 C2466 1.386 . S
C2467 C2471 1.393 . S
C2468 H2457 0.950 . S
C2468 C2466 1.391 . S
C2468 C2469 1.400 . S
C2469 C2463 1.491 . S
C2469 C2468 1.400 . S
C2469 C2470 1.398 . S
C2470 H2458 0.950 . S
C2470 C2469 1.398 . S
C2470 C2471 1.391 . S
C2471 H2459 0.950 . S
C2471 C2467 1.393 . S
C2471 C2470 1.391 . S
H2472 C2480 0.950 . S
H2473 C2485 0.950 . S
H2474 C2482 0.950 . S
H2475 C2484 0.950 . S
H2476 C2486 0.950 . S
H2477 C2488 0.950 . S
H2478 C2490 0.950 . S
H2479 C2491 0.950 . S
C2480 H2472 0.950 . S
C2480 C2481 1.386 . S
C2480 C2482 1.391 . S
C2481 C2480 1.386 . S
C2481 C2485 1.393 . S
C2482 H2474 0.950 . S
C2482 C2480 1.391 . S
C2482 C2483 1.400 . S
C2483 C2482 1.400 . S
C2483 C2484 1.398 . S
C2483 C2489 1.491 . S
C2484 H2475 0.950 . S
C2484 C2483 1.398 . S
C2484 C2485 1.391 . S
C2485 H2473 0.950 . S
C2485 C2481 1.393 . S
C2485 C2484 1.391 . S
C2486 H2476 0.950 . S
C2486 C2487 1.386 . S
C2486 C2488 1.391 . S
C2487 C2486 1.386 . S
C2487 C2491 1.393 . S
C2488 H2477 0.950 . S
C2488 C2486 1.391 . S
C2488 C2489 1.400 . S
C2489 C2483 1.491 . S
C2489 C2488 1.400 . S
C2489 C2490 1.398 . S
C2490 H2478 0.950 . S
C2490 C2489 1.398 . S
C2490 C2491 1.391 . S
C2491 H2479 0.950 . S
C2491 C2487 1.393 . S
C2491 C2490 1.391 . S
H2492 C2500 0.950 . S
H2493 C2505 0.950 . S
H2494 C2502 0.950 . S
H2495 C2504 0.950 . S
H2496 C2506 0.950 . S
H2497 C2508 0.950 . S
H2498 C2510 0.950 . S
H2499 C2511 0.950 . S
C2500 H2492 0.950 . S
C2500 C2501 1.386 . S
C2500 C2502 1.391 . S
C2501 C2500 1.386 . S
C2501 C2505 1.393 . S
C2502 H2494 0.950 . S
C2502 C2500 1.391 . S
C2502 C2503 1.400 . S
C2503 C2502 1.400 . S
C2503 C2504 1.398 . S
C2503 C2509 1.491 . S
C2504 H2495 0.950 . S
C2504 C2503 1.398 . S
C2504 C2505 1.391 . S
C2505 H2493 0.950 . S
C2505 C2501 1.393 . S
C2505 C2504 1.391 . S
C2506 H2496 0.950 . S
C2506 C2507 1.386 . S
C2506 C2508 1.391 . S
C2507 C2506 1.386 . S
C2507 C2511 1.393 . S
C2508 H2497 0.950 . S
C2508 C2506 1.391 . S
C2508 C2509 1.400 . S
C2509 C2503 1.491 . S
C2509 C2508 1.400 . S
C2509 C2510 1.398 . S
C2510 H2498 0.950 . S
C2510 C2509 1.398 . S
C2510 C2511 1.391 . S
C2511 H2499 0.950 . S
C2511 C2507 1.393 . S
C2511 C2510 1.391 . S
H2512 C2520 0.950 . S
H2513 C2525 0.950 . S
H2514 C2522 0.950 . S
H2515 C2524 0.950 . S
H2516 C2526 0.950 . S
H2517 C2528 0.950 . S
H2518 C2530 0.950 . S
H2519 C2531 0.950 . S
C2520 H2512 0.950 . S
C2520 C2521 1.386 . S
C2520 C2522 1.391 . S
C2521 C2520 1.386 . S
C2521 C2525 1.393 . S
C2522 H2514 0.950 . S
C2522 C2520 1.391 . S
C2522 C2523 1.400 . S
C2523 C2522 1.400 . S
C2523 C2524 1.398 . S
C2523 C2529 1.491 . S
C2524 H2515 0.950 . S
C2524 C2523 1.398 . S
C2524 C2525 1.391 . S
C2525 H2513 0.950 . S
C2525 C2521 1.393 . S
C2525 C2524 1.391 . S
C2526 H2516 0.950 . S
C2526 C2527 1.386 . S
C2526 C2528 1.391 . S
C2527 C2526 1.386 . S
C2527 C2531 1.393 . S
C2528 H2517 0.950 . S
C2528 C2526 1.391 . S
C2528 C2529 1.400 . S
C2529 C2523 1.491 . S
C2529 C2528 1.400 . S
C2529 C2530 1.398 . S
C2530 H2518 0.950 . S
C2530 C2529 1.398 . S
C2530 C2531 1.391 . S
C2531 H2519 0.950 . S
C2531 C2527 1.393 . S
C2531 C2530 1.391 . S
H2532 C2540 0.950 . S
H2533 C2545 0.950 . S
H2534 C2542 0.950 . S
H2535 C2544 0.950 . S
H2536 C2546 0.950 . S
H2537 C2548 0.950 . S
H2538 C2550 0.950 . S
H2539 C2551 0.950 . S
C2540 H2532 0.950 . S
C2540 C2541 1.386 . S
C2540 C2542 1.391 . S
C2541 C2540 1.386 . S
C2541 C2545 1.393 . S
C2542 H2534 0.950 . S
C2542 C2540 1.391 . S
C2542 C2543 1.400 . S
C2543 C2542 1.400 . S
C2543 C2544 1.398 . S
C2543 C2549 1.491 . S
C2544 H2535 0.950 . S
C2544 C2543 1.398 . S
C2544 C2545 1.391 . S
C2545 H2533 0.950 . S
C2545 C2541 1.393 . S
C2545 C2544 1.391 . S
C2546 H2536 0.950 . S
C2546 C2547 1.386 . S
C2546 C2548 1.391 . S
C2547 C2546 1.386 . S
C2547 C2551 1.393 . S
C2548 H2537 0.950 . S
C2548 C2546 1.391 . S
C2548 C2549 1.400 . S
C2549 C2543 1.491 . S
C2549 C2548 1.400 . S
C2549 C2550 1.398 . S
C2550 H2538 0.950 . S
C2550 C2549 1.398 . S
C2550 C2551 1.391 . S
C2551 H2539 0.950 . S
C2551 C2547 1.393 . S
C2551 C2550 1.391 . S
H2552 C2560 0.950 . S
H2553 C2565 0.950 . S
H2554 C2562 0.950 . S
H2555 C2564 0.950 . S
H2556 C2566 0.950 . S
H2557 C2568 0.950 . S
H2558 C2570 0.950 . S
H2559 C2571 0.950 . S
C2560 H2552 0.950 . S
C2560 C2561 1.386 . S
C2560 C2562 1.391 . S
C2561 C2560 1.386 . S
C2561 C2565 1.393 . S
C2562 H2554 0.950 . S
C2562 C2560 1.391 . S
C2562 C2563 1.400 . S
C2563 C2562 1.400 . S
C2563 C2564 1.398 . S
C2563 C2569 1.491 . S
C2564 H2555 0.950 . S
C2564 C2563 1.398 . S
C2564 C2565 1.391 . S
C2565 H2553 0.950 . S
C2565 C2561 1.393 . S
C2565 C2564 1.391 . S
C2566 H2556 0.950 . S
C2566 C2567 1.386 . S
C2566 C2568 1.391 . S
C2567 C2566 1.386 . S
C2567 C2571 1.393 . S
C2568 H2557 0.950 . S
C2568 C2566 1.391 . S
C2568 C2569 1.400 . S
C2569 C2563 1.491 . S
C2569 C2568 1.400 . S
C2569 C2570 1.398 . S
C2570 H2558 0.950 . S
C2570 C2569 1.398 . S
C2570 C2571 1.391 . S
C2571 H2559 0.950 . S
C2571 C2567 1.393 . S
C2571 C2570 1.391 . S
H2572 C2580 0.950 . S
H2573 C2585 0.950 . S
H2574 C2582 0.950 . S
H2575 C2584 0.950 . S
H2576 C2586 0.950 . S
H2577 C2588 0.950 . S
H2578 C2590 0.950 . S
H2579 C2591 0.950 . S
C2580 H2572 0.950 . S
C2580 C2581 1.386 . S
C2580 C2582 1.391 . S
C2581 C2580 1.386 . S
C2581 C2585 1.393 . S
C2582 H2574 0.950 . S
C2582 C2580 1.391 . S
C2582 C2583 1.400 . S
C2583 C2582 1.400 . S
C2583 C2584 1.398 . S
C2583 C2589 1.491 . S
C2584 H2575 0.950 . S
C2584 C2583 1.398 . S
C2584 C2585 1.391 . S
C2585 H2573 0.950 . S
C2585 C2581 1.393 . S
C2585 C2584 1.391 . S
C2586 H2576 0.950 . S
C2586 C2587 1.386 . S
C2586 C2588 1.391 . S
C2587 C2586 1.386 . S
C2587 C2591 1.393 . S
C2588 H2577 0.950 . S
C2588 C2586 1.391 . S
C2588 C2589 1.400 . S
C2589 C2583 1.491 . S
C2589 C2588 1.400 . S
C2589 C2590 1.398 . S
C2590 H2578 0.950 . S
C2590 C2589 1.398 . S
C2590 C2591 1.391 . S
C2591 H2579 0.950 . S
C2591 C2587 1.393 . S
C2591 C2590 1.391 . S
C681 C132 1.671 . S
C687 C6 1.679 . S
C701 C146 1.672 . S
C707 C20 1.669 . S
C721 C160 1.683 . S
C727 C34 1.689 . S
C741 C118 1.682 . S
C747 C48 1.689 . S
C761 C62 1.671 . S
C767 C216 1.670 . S
C781 C76 1.688 . S
C787 C174 1.689 . S
C801 C90 1.689 . S
C807 C188 1.688 . S
C821 C202 1.672 . S
C827 C104 1.681 . S
C841 C230 1.684 . S
C847 C258 1.689 . S
C861 C244 1.683 . S
C867 C650 1.673 . S
C881 C272 1.685 . S
C887 C664 1.690 . S
C901 C286 1.683 . S
C907 C636 1.673 . S
C921 C300 1.679 . S
C927 C622 1.671 . S
C941 C580 1.683 . S
C947 C314 1.689 . S
C961 C328 1.685 . S
C967 C608 1.689 . S
C981 C468 1.688 . S
C987 C342 1.680 . S
C1001 C482 1.673 . S
C1007 C356 1.669 . S
C1021 C496 1.670 . S
C1027 C370 1.677 . S
C1041 C454 1.678 . S
C1047 C384 1.670 . S
C1061 C552 1.684 . S
C1067 C398 1.689 . S
C1081 C510 1.678 . S
C1087 C412 1.687 . S
C1101 C426 1.689 . S
C1107 C524 1.683 . S
C1121 C440 1.669 . S
C1127 C538 1.674 . S
C1141 C566 1.684 . S
C1147 C594 1.689 . S
C1161 C232 1.248 . S
C1167 C9 1.183 . S
C1181 C666 1.245 . S
C1187 C23 1.178 . S
C1201 C37 1.133 . S
C1207 C302 1.213 . S
C1221 C652 1.223 . S
C1227 C51 1.151 . S
C1241 C65 1.134 . S
C1247 C582 1.215 . S
C1261 C596 1.247 . S
C1267 C79 1.183 . S
C1281 C93 1.159 . S
C1287 C610 1.229 . S
C1301 C288 1.243 . S
C1307 C107 1.173 . S
C1321 C121 1.135 . S
C1327 C8 1.214 . S
C1341 C22 1.213 . S
C1347 C135 1.133 . S
C1361 C149 1.138 . S
C1367 C36 1.215 . S
C1381 C50 1.213 . S
C1387 C163 1.133 . S
C1401 C177 1.183 . S
C1407 C64 1.248 . S
C1421 C78 1.248 . S
C1427 C191 1.183 . S
C1441 C205 1.138 . S
C1447 C92 1.218 . S
C1461 C219 1.171 . S
C1467 C106 1.241 . S
C1481 C233 1.136 . S
C1487 C120 1.216 . S
C1501 C247 1.139 . S
C1507 C512 1.218 . S
C1521 C526 1.248 . S
C1527 C261 1.184 . S
C1541 C540 1.238 . S
C1547 C275 1.166 . S
C1561 C218 1.235 . S
C1567 C289 1.161 . S
C1581 C303 1.136 . S
C1587 C148 1.214 . S
C1601 C498 1.225 . S
C1607 C317 1.154 . S
C1621 C331 1.143 . S
C1627 C470 1.218 . S
C1641 C345 1.182 . S
C1647 C568 1.248 . S
C1661 C359 1.135 . S
C1667 C330 1.215 . S
C1681 C373 1.146 . S
C1687 C638 1.220 . S
C1701 C387 1.173 . S
C1707 C316 1.242 . S
C1721 C401 1.155 . S
C1727 C246 1.226 . S
C1741 C415 1.179 . S
C1747 C260 1.243 . S
C1761 C274 1.241 . S
C1767 C429 1.171 . S
C1781 C624 1.246 . S
C1787 C443 1.182 . S
C1801 C344 1.226 . S
C1807 C457 1.155 . S
C1821 C358 1.218 . S
C1827 C471 1.142 . S
C1841 C485 1.166 . S
C1847 C372 1.238 . S
C1861 C386 1.222 . S
C1867 C499 1.143 . S
C1881 C513 1.182 . S
C1887 C400 1.248 . S
C1901 C527 1.182 . S
C1907 C414 1.246 . S
C1921 C541 1.180 . S
C1927 C428 1.247 . S
C1941 C442 1.242 . S
C1947 C555 1.173 . S
C1961 C569 1.135 . S
C1967 C456 1.214 . S
C1981 C583 1.184 . S
C1987 C176 1.248 . S
C2001 C190 1.215 . S
C2007 C597 1.135 . S
C2021 C611 1.167 . S
C2027 C204 1.238 . S
C2041 C625 1.172 . S
C2047 C554 1.238 . S
C2061 C484 1.214 . S
C2067 C639 1.134 . S
C2081 C162 1.224 . S
C2087 C653 1.152 . S
C2101 C134 1.216 . S
C2107 C667 1.140 . S
C2121 C315 1.473 . S
C2127 C7 1.469 . S
C2141 C21 1.469 . S
C2147 C567 1.473 . S
C2161 C35 1.485 . S
C2167 C329 1.477 . S
C2181 C637 1.476 . S
C2187 C49 1.484 . S
C2201 C63 1.470 . S
C2207 C259 1.469 . S
C2221 C273 1.477 . S
C2227 C77 1.470 . S
C2241 C623 1.480 . S
C2247 C91 1.472 . S
C2261 C105 1.487 . S
C2267 C245 1.486 . S
C2281 C189 1.470 . S
C2287 C119 1.469 . S
C2301 C133 1.482 . S
C2307 C203 1.474 . S
C2321 C217 1.480 . S
C2327 C147 1.472 . S
C2341 C161 1.477 . S
C2347 C175 1.470 . S
C2361 C357 1.473 . S
C2367 C231 1.481 . S
C2381 C287 1.487 . S
C2387 C427 1.486 . S
C2401 C301 1.469 . S
C2407 C385 1.473 . S
C2421 C651 1.479 . S
C2427 C343 1.471 . S
C2441 C371 1.468 . S
C2447 C665 1.473 . S
C2461 C399 1.473 . S
C2467 C595 1.480 . S
C2481 C413 1.484 . S
C2487 C609 1.477 . S
C2501 C581 1.487 . S
C2507 C441 1.480 . S
C2521 C525 1.485 . S
C2527 C455 1.488 . S
C2541 C469 1.485 . S
C2547 C539 1.477 . S
C2561 C483 1.469 . S
C2567 C553 1.473 . S
C2581 C511 1.468 . S
C2587 C497 1.472 . S
