# Generated by pormake.
# Topology wjg, (4)-cn, num edge types: 1
# Building blocks:
#     Node 0, Type 0, BuildingBlock: KUFVIS_clean_sbu_0, # of connection points: 4
#     Node 1, Type 0, BuildingBlock: KUFVIS_clean_sbu_0, # of connection points: 4
#     Node 2, Type 0, BuildingBlock: KUFVIS_clean_sbu_0, # of connection points: 4
#     Node 3, Type 0, BuildingBlock: KUFVIS_clean_sbu_0, # of connection points: 4
#     Node 4, Type 0, BuildingBlock: KUFVIS_clean_sbu_0, # of connection points: 4
#     Node 5, Type 0, BuildingBlock: KUFVIS_clean_sbu_0, # of connection points: 4
#     Node 6, Type 0, BuildingBlock: KUFVIS_clean_sbu_0, # of connection points: 4
#     Node 7, Type 0, BuildingBlock: KUFVIS_clean_sbu_0, # of connection points: 4
#     Node 8, Type 0, BuildingBlock: KUFVIS_clean_sbu_0, # of connection points: 4
#     Node 9, Type 0, BuildingBlock: KUFVIS_clean_sbu_0, # of connection points: 4
#     Node 10, Type 0, BuildingBlock: KUFVIS_clean_sbu_0, # of connection points: 4
#     Node 11, Type 0, BuildingBlock: KUFVIS_clean_sbu_0, # of connection points: 4
#     Edge 12, Type (0, 0), BuildingBlock: CIFDUS_clean_linker_0, # of connection points: 2
#     Edge 13, Type (0, 0), BuildingBlock: CIFDUS_clean_linker_0, # of connection points: 2
#     Edge 14, Type (0, 0), BuildingBlock: CIFDUS_clean_linker_0, # of connection points: 2
#     Edge 15, Type (0, 0), BuildingBlock: CIFDUS_clean_linker_0, # of connection points: 2
#     Edge 16, Type (0, 0), BuildingBlock: CIFDUS_clean_linker_0, # of connection points: 2
#     Edge 17, Type (0, 0), BuildingBlock: CIFDUS_clean_linker_0, # of connection points: 2
#     Edge 18, Type (0, 0), BuildingBlock: CIFDUS_clean_linker_0, # of connection points: 2
#     Edge 19, Type (0, 0), BuildingBlock: CIFDUS_clean_linker_0, # of connection points: 2
#     Edge 20, Type (0, 0), BuildingBlock: CIFDUS_clean_linker_0, # of connection points: 2
#     Edge 21, Type (0, 0), BuildingBlock: CIFDUS_clean_linker_0, # of connection points: 2
#     Edge 22, Type (0, 0), BuildingBlock: CIFDUS_clean_linker_0, # of connection points: 2
#     Edge 23, Type (0, 0), BuildingBlock: CIFDUS_clean_linker_0, # of connection points: 2
#     Edge 24, Type (0, 0), BuildingBlock: CIFDUS_clean_linker_0, # of connection points: 2
#     Edge 25, Type (0, 0), BuildingBlock: CIFDUS_clean_linker_0, # of connection points: 2
#     Edge 26, Type (0, 0), BuildingBlock: CIFDUS_clean_linker_0, # of connection points: 2
#     Edge 27, Type (0, 0), BuildingBlock: CIFDUS_clean_linker_0, # of connection points: 2
#     Edge 28, Type (0, 0), BuildingBlock: CIFDUS_clean_linker_0, # of connection points: 2
#     Edge 29, Type (0, 0), BuildingBlock: CIFDUS_clean_linker_0, # of connection points: 2
#     Edge 30, Type (0, 0), BuildingBlock: CIFDUS_clean_linker_0, # of connection points: 2
#     Edge 31, Type (0, 0), BuildingBlock: CIFDUS_clean_linker_0, # of connection points: 2
#     Edge 32, Type (0, 0), BuildingBlock: CIFDUS_clean_linker_0, # of connection points: 2
#     Edge 33, Type (0, 0), BuildingBlock: CIFDUS_clean_linker_0, # of connection points: 2
#     Edge 34, Type (0, 0), BuildingBlock: CIFDUS_clean_linker_0, # of connection points: 2
#     Edge 35, Type (0, 0), BuildingBlock: CIFDUS_clean_linker_0, # of connection points: 2
# Relax obj value: 0.314
# Max RMSD: 0.127
# Mean RMSD: 0.118
data_MOF--net-wjg--node1-KUFVIS_clean_sbu_0--edge1-CIFDUS_clean_linker_0
_symmetry_space_group_name_H-M    P1
_symmetry_Int_Tables_number       1
_symmetry_cell_setting            triclinic
loop_
_symmetry_equiv_pos_as_xyz
'x, y, z'
_cell_length_a     27.363525
_cell_length_b     27.359105
_cell_length_c     34.969867
_cell_angle_alpha  90.703471
_cell_angle_beta   89.436302
_cell_angle_gamma 120.07323
loop_
_atom_site_label
_atom_site_type_symbol
_atom_site_fract_x
_atom_site_fract_y
_atom_site_fract_z
_atom_type_partial_charge
Mn0 Mn 0.1511 0.4049 0.33387 0.0
Mn1 Mn 0.2828 0.46095 0.37142 0.0
C2 C 0.18242 0.34377 0.35318 0.0
C3 C 0.09626 0.38265 0.27755 0.0
C4 C 0.18125 0.44665 0.4163 0.0
O5 O 0.18834 0.48979 0.3219 0.0
O6 O 0.27681 0.51635 0.33986 0.0
C7 C 0.34406 0.47159 0.299 0.0
N8 N 0.33529 0.45837 0.33672 0.0
C9 C 0.41446 0.44337 0.33928 0.0
C10 C 0.42401 0.45594 0.30021 0.0
C11 C 0.38833 0.46953 0.27988 0.0
C12 C 0.36805 0.44337 0.35618 0.0
H13 H 0.31722 0.48325 0.28384 0.0
C14 C 0.24077 0.52618 0.32447 0.0
O15 O 0.07781 0.39048 0.31013 0.0
O16 O 0.14575 0.38734 0.27786 0.0
N17 N 0.29974 0.41573 0.40376 0.0
C18 C 0.27598 0.39088 0.43761 0.0
C19 C 0.30368 0.37104 0.46097 0.0
C20 C 0.35619 0.37803 0.44956 0.0
C21 C 0.37978 0.40355 0.41444 0.0
C22 C 0.34983 0.42192 0.39228 0.0
H23 H 0.23643 0.38644 0.44656 0.0
O24 O 0.12948 0.3254 0.34651 0.0
O25 O 0.21686 0.39716 0.34581 0.0
O26 O 0.14254 0.41981 0.39135 0.0
O27 O 0.23366 0.466 0.41005 0.0
C28 C 0.43012 0.40857 0.39948 0.0
C29 C 0.4466 0.42697 0.36154 0.0
H30 H 0.45868 0.45538 0.28556 0.0
H31 H 0.39565 0.47934 0.24975 0.0
H32 H 0.28489 0.35096 0.48787 0.0
H33 H 0.37736 0.36247 0.46755 0.0
H34 H 0.4541 0.39444 0.41581 0.0
H35 H 0.48194 0.42498 0.34911 0.0
Mn36 Mn 0.7298 0.1529 0.68087 0.0
Mn37 Mn 0.80991 0.24862 0.74365 0.0
C38 C 0.82793 0.1915 0.67922 0.0
C39 C 0.68697 0.10072 0.62432 0.0
C40 C 0.74157 0.14463 0.76394 0.0
O41 O 0.68374 0.18986 0.68321 0.0
O42 O 0.73003 0.23806 0.73607 0.0
C43 C 0.81075 0.35614 0.73553 0.0
N44 N 0.83993 0.32853 0.74099 0.0
C45 C 0.90675 0.40511 0.78074 0.0
C46 C 0.8789 0.43513 0.77348 0.0
C47 C 0.83112 0.41084 0.75016 0.0
C48 C 0.88803 0.35312 0.76182 0.0
H49 H 0.77039 0.3355 0.72227 0.0
C50 C 0.68987 0.22261 0.71115 0.0
O51 O 0.66782 0.08148 0.65807 0.0
O52 O 0.73003 0.15162 0.62294 0.0
N53 N 0.88583 0.26701 0.75586 0.0
C54 C 0.90414 0.23096 0.76646 0.0
C55 C 0.95408 0.25084 0.78737 0.0
C56 C 0.98203 0.30635 0.80109 0.0
C57 C 0.95949 0.34115 0.79372 0.0
C58 C 0.91312 0.3211 0.76885 0.0
H59 H 0.87931 0.18626 0.76106 0.0
O60 O 0.79308 0.13714 0.67807 0.0
O61 O 0.80777 0.22444 0.68939 0.0
O62 O 0.70339 0.13083 0.73962 0.0
O63 O 0.78781 0.1702 0.7489 0.0
C64 C 0.97762 0.39232 0.81351 0.0
C65 C 0.95044 0.4236 0.80773 0.0
H66 H 0.89264 0.47594 0.78676 0.0
H67 H 0.80779 0.43259 0.74565 0.0
H68 H 0.96851 0.22214 0.79546 0.0
H69 H 0.01825 0.32039 0.8196 0.0
H70 H 0.01148 0.40723 0.83417 0.0
H71 H 0.96442 0.46267 0.82352 0.0
Mn72 Mn 0.61054 0.73892 0.02049 0.0
Mn73 Mn 0.57282 0.82781 0.06259 0.0
C74 C 0.68089 0.83105 0.03545 0.0
C75 C 0.62657 0.69705 0.96488 0.0
C76 C 0.56618 0.72695 0.10169 0.0
O77 O 0.52494 0.70256 1.01123 0.0
O78 O 0.51129 0.77525 0.02879 0.0
C79 C 0.53859 0.88821 1.00456 0.0
N80 N 0.58323 0.89316 0.03556 0.0
C81 C 0.64813 0.01162 0.05039 0.0
C82 C 0.57756 0.01004 0.99764 0.0
C83 C 0.53336 0.94169 0.98434 0.0
C84 C 0.63159 0.94428 0.05782 0.0
H85 H 0.50706 0.8468 0.99484 0.0
C86 C 0.49447 0.72597 1.0145 0.0
O87 O 0.61419 0.67239 0.99788 0.0
O88 O 0.62712 0.74472 0.96373 0.0
N89 N 0.63191 0.87823 0.09711 0.0
C90 C 0.65303 0.86327 0.12693 0.0
C91 C 0.69211 0.90432 0.15191 0.0
C92 C 0.70925 0.96096 0.14625 0.0
C93 C 0.69007 0.97643 0.11417 0.0
C94 C 0.65201 0.93313 0.08956 0.0
H95 H 0.64336 0.82087 0.13003 0.0
O96 O 0.69275 0.79107 0.03033 0.0
O97 O 0.62786 0.81672 0.03105 0.0
O98 O 0.59629 0.71689 0.07824 0.0
O99 O 0.55275 0.76384 0.09489 0.0
C100 C 0.71032 0.03364 0.10627 0.0
C101 C 0.69192 0.05167 0.07515 0.0
H102 H 0.57311 0.04351 0.98423 0.0
H103 H 0.50101 0.9321 0.96329 0.0
H104 H 0.71091 0.89268 0.17445 0.0
H105 H 0.73959 0.99258 0.16564 0.0
H106 H 0.7415 0.06577 0.12502 0.0
H107 H 0.71111 0.09698 0.07272 0.0
Mn108 Mn 0.85371 0.61575 0.33612 0.0
Mn109 Mn 0.72933 0.55633 0.38045 0.0
C110 C 0.8094 0.66927 0.3418 0.0
C111 C 0.90214 0.62221 0.27734 0.0
C112 C 0.83513 0.59792 0.42006 0.0
O113 O 0.82351 0.5288 0.33961 0.0
O114 O 0.73037 0.49858 0.34707 0.0
C115 C 0.63805 0.52157 0.32447 0.0
N116 N 0.6626 0.54729 0.35804 0.0
C117 C 0.58496 0.56098 0.37478 0.0
C118 C 0.55987 0.53636 0.33994 0.0
C119 C 0.58614 0.51638 0.31469 0.0
C120 C 0.6371 0.56585 0.38292 0.0
H121 H 0.65884 0.5066 0.30515 0.0
C122 C 0.7711 0.48968 0.33922 0.0
O123 O 0.92752 0.63187 0.31016 0.0
O124 O 0.84958 0.60834 0.27895 0.0
N125 N 0.72374 0.61089 0.41337 0.0
C126 C 0.76402 0.66067 0.42917 0.0
C127 C 0.74816 0.69205 0.453 0.0
C128 C 0.69095 0.67509 0.45746 0.0
C129 C 0.65101 0.63014 0.4352 0.0
C130 C 0.66948 0.59928 0.41293 0.0
H131 H 0.80799 0.67785 0.4224 0.0
O132 O 0.86262 0.69314 0.33296 0.0
O133 O 0.78264 0.61432 0.34443 0.0
O134 O 0.87162 0.63089 0.39565 0.0
O135 O 0.79157 0.55585 0.40728 0.0
C136 C 0.59579 0.62025 0.43021 0.0
C137 C 0.5627 0.58567 0.39982 0.0
H138 H 0.52108 0.53427 0.33199 0.0
H139 H 0.56673 0.49811 0.28759 0.0
H140 H 0.7801 0.73038 0.46671 0.0
H141 H 0.67897 0.70056 0.47474 0.0
H142 H 0.58028 0.64291 0.44734 0.0
H143 H 0.52199 0.58177 0.39429 0.0
Mn144 Mn 0.27076 0.8336 0.65883 0.0
Mn145 Mn 0.20606 0.69407 0.65876 0.0
C146 C 0.17331 0.78827 0.64789 0.0
C147 C 0.33084 0.90984 0.61944 0.0
C148 C 0.23662 0.76701 0.73058 0.0
O149 O 0.33174 0.81224 0.66876 0.0
O150 O 0.2836 0.73228 0.63779 0.0
C151 C 0.20564 0.67016 0.57589 0.0
N152 N 0.17775 0.66012 0.60998 0.0
C153 C 0.0964 0.57848 0.58424 0.0
C154 C 0.12428 0.58749 0.54896 0.0
C155 C 0.17901 0.63387 0.54468 0.0
C156 C 0.12489 0.61618 0.61423 0.0
H157 H 0.24817 0.70512 0.57266 0.0
C158 C 0.32771 0.76706 0.65554 0.0
O159 O 0.33039 0.91642 0.65634 0.0
O160 O 0.29838 0.85951 0.60622 0.0
N161 N 0.12978 0.64997 0.67638 0.0
C162 C 0.10736 0.64797 0.71165 0.0
C163 C 0.05177 0.60609 0.71987 0.0
C164 C 0.02019 0.56531 0.69209 0.0
C165 C 0.04465 0.56677 0.65639 0.0
C166 C 0.09977 0.61031 0.64956 0.0
H167 H 0.13151 0.67748 0.7335 0.0
O168 O 0.20433 0.84264 0.64957 0.0
O169 O 0.20191 0.76168 0.64653 0.0
O170 O 0.24742 0.81408 0.71548 0.0
O171 O 0.23295 0.72511 0.71114 0.0
C172 C 0.01534 0.52822 0.62671 0.0
C173 C 0.0415 0.5335 0.59085 0.0
H174 H 0.10398 0.55926 0.52494 0.0
H175 H 0.20087 0.64119 0.51755 0.0
H176 H 0.03352 0.6049 0.74769 0.0
H177 H 0.97692 0.53348 0.69829 0.0
H178 H 0.97266 0.49424 0.63142 0.0
H179 H 0.01929 0.50253 0.56861 0.0
Mn180 Mn 0.35366 0.22839 0.01575 0.0
Mn181 Mn 0.39236 0.14132 0.05543 0.0
C182 C 0.28218 0.13666 0.02726 0.0
C183 C 0.35319 0.27381 0.95908 0.0
C184 C 0.38304 0.23368 0.09779 0.0
O185 O 0.43997 0.27056 0.01651 0.0
O186 O 0.45158 0.19522 0.02074 0.0
C187 C 0.42057 0.08415 0.98897 0.0
N188 N 0.38014 0.0775 0.02401 0.0
C189 C 0.30984 0.95797 0.03065 0.0
C190 C 0.37368 0.96288 0.97104 0.0
C191 C 0.42005 0.03199 0.96171 0.0
C192 C 0.33124 0.02508 0.04457 0.0
H193 H 0.45285 0.12599 0.9809 0.0
C194 C 0.47083 0.24796 0.01602 0.0
O195 O 0.35453 0.29539 0.99265 0.0
O196 O 0.35269 0.22617 0.95844 0.0
N197 N 0.33836 0.08789 0.09124 0.0
C198 C 0.33458 0.09899 0.12885 0.0
C199 C 0.29815 0.05603 0.15356 0.0
C200 C 0.26896 0.00045 0.14026 0.0
C201 C 0.27847 0.98812 0.10289 0.0
C202 C 0.314 0.03372 0.07909 0.0
H203 H 0.36214 0.13965 0.1405 0.0
O204 O 0.27068 0.17526 0.01732 0.0
O205 O 0.33574 0.15149 0.0267 0.0
O206 O 0.35356 0.24232 0.07359 0.0
O207 O 0.40795 0.20577 0.08975 0.0
C208 C 0.25345 0.93178 0.08999 0.0
C209 C 0.26663 0.91633 0.05475 0.0
H210 H 0.37453 0.93032 0.95305 0.0
H211 H 0.45003 0.04283 0.9385 0.0
H212 H 0.29428 0.06531 0.1832 0.0
H213 H 0.24154 0.96711 0.15966 0.0
H214 H 0.22364 0.89819 0.10837 0.0
H215 H 0.24469 0.87147 0.04874 0.0
Mn216 Mn 0.60619 0.89036 0.36518 0.0
Mn217 Mn 0.60854 0.7988 0.30562 0.0
C218 C 0.67204 0.85887 0.37098 0.0
C219 C 0.60689 0.94067 0.42097 0.0
C220 C 0.63017 0.89602 0.28153 0.0
O221 O 0.52225 0.84484 0.35983 0.0
O222 O 0.53338 0.79796 0.31002 0.0
C223 C 0.51165 0.68464 0.32009 0.0
N224 N 0.56732 0.71896 0.31153 0.0
C225 C 0.57214 0.6429 0.28002 0.0
C226 C 0.51431 0.6078 0.28667 0.0
C227 C 0.48425 0.62804 0.30791 0.0
C228 C 0.59731 0.6987 0.29317 0.0
H229 H 0.48782 0.70069 0.33491 0.0
C230 C 0.50216 0.80952 0.33208 0.0
O231 O 0.60704 0.95889 0.38695 0.0
O232 O 0.60277 0.89142 0.42284 0.0
N233 N 0.67339 0.79053 0.29707 0.0
C234 C 0.72851 0.83065 0.29082 0.0
C235 C 0.76546 0.81511 0.27381 0.0
C236 C 0.7449 0.75927 0.26134 0.0
C237 C 0.68776 0.7192 0.26676 0.0
C238 C 0.65357 0.73642 0.28584 0.0
H239 H 0.744 0.87448 0.298 0.0
O240 O 0.68817 0.91253 0.37178 0.0
O241 O 0.62106 0.82473 0.35905 0.0
O242 O 0.60362 0.90881 0.3054 0.0
O243 O 0.65745 0.87879 0.29806 0.0
C244 C 0.66322 0.66301 0.25353 0.0
C245 C 0.60528 0.62515 0.25966 0.0
H246 H 0.49289 0.56514 0.27563 0.0
H247 H 0.43968 0.6007 0.31367 0.0
H248 H 0.80932 0.84655 0.2692 0.0
H249 H 0.77318 0.74775 0.24728 0.0
H250 H 0.6884 0.64863 0.23829 0.0
H251 H 0.58659 0.58244 0.24854 0.0
Mn252 Mn 0.7469 0.59784 0.70203 0.0
Mn253 Mn 0.77294 0.52148 0.63405 0.0
C254 C 0.84067 0.62462 0.68771 0.0
C255 C 0.72171 0.62004 0.76306 0.0
C256 C 0.7363 0.60534 0.61594 0.0
O257 O 0.67292 0.52153 0.69962 0.0
O258 O 0.70132 0.47375 0.66115 0.0
C259 C 0.7685 0.41964 0.66306 0.0
N260 N 0.79985 0.47104 0.64629 0.0
C261 C 0.85015 0.43535 0.60839 0.0
C262 C 0.81901 0.38295 0.62603 0.0
C263 C 0.77658 0.37455 0.65219 0.0
C264 C 0.83816 0.47801 0.6186 0.0
H265 H 0.73462 0.41179 0.6825 0.0
C266 C 0.66679 0.47553 0.6852 0.0
O267 O 0.71013 0.63402 0.73083 0.0
O268 O 0.74762 0.59102 0.76067 0.0
N269 N 0.84122 0.56233 0.60552 0.0
C270 C 0.8664 0.61517 0.59064 0.0
C271 C 0.91165 0.63188 0.56485 0.0
C272 C 0.9279 0.59285 0.55297 0.0
C273 C 0.90189 0.53912 0.56947 0.0
C274 C 0.86077 0.52694 0.59757 0.0
H275 H 0.85346 0.64465 0.59981 0.0
O276 O 0.82606 0.65907 0.70291 0.0
O277 O 0.79992 0.57248 0.68135 0.0
O278 O 0.73813 0.62586 0.64892 0.0
O279 O 0.74381 0.56418 0.61036 0.0
C280 C 0.91488 0.49713 0.55915 0.0
C281 C 0.88855 0.44496 0.5783 0.0
H282 H 0.82488 0.34786 0.61795 0.0
H283 H 0.74839 0.3325 0.66252 0.0
H284 H 0.93359 0.6744 0.55385 0.0
H285 H 0.96129 0.60503 0.53196 0.0
H286 H 0.94457 0.50433 0.53622 0.0
H287 H 0.89798 0.41244 0.56955 0.0
Mn288 Mn 0.11441 0.73366 1.01561 0.0
Mn289 Mn 0.22351 0.82197 0.95673 0.0
C290 C 0.12159 0.81799 0.9957 0.0
C291 C 0.07964 0.70561 0.07933 0.0
C292 C 0.12089 0.71469 0.92968 0.0
O293 O 0.16979 0.70436 0.01949 0.0
O294 O 0.24118 0.76931 0.98313 0.0
C295 C 0.32554 0.88184 1.01076 0.0
N296 N 0.28226 0.88671 0.98316 0.0
C297 C 0.32605 0.00567 0.9786 0.0
C298 C 0.40074 0.00364 0.0261 0.0
C299 C 0.38266 0.9352 0.03299 0.0
C300 C 0.27875 0.93791 0.96699 0.0
H301 H 0.31928 0.84055 0.0167 0.0
C302 C 0.21878 0.72533 1.0042 0.0
O303 O 0.0567 0.67202 0.05015 0.0
O304 O 0.12331 0.7541 0.07161 0.0
N305 N 0.2095 0.87299 0.92743 0.0
C306 C 0.17779 0.85925 0.89496 0.0
C307 C 0.17721 0.90145 0.87313 0.0
C308 C 0.21023 0.95798 0.88424 0.0
C309 C 0.24428 0.97207 0.91685 0.0
C310 C 0.2427 0.92765 0.93771 0.0
H311 H 0.15333 0.81633 0.88529 0.0
O312 O 0.07446 0.77678 1.0085 0.0
O313 O 0.16478 0.80977 0.99559 0.0
O314 O 0.09148 0.69858 0.96057 0.0
O315 O 0.16905 0.75864 0.92728 0.0
C316 C 0.27864 0.0289 0.92822 0.0
C317 C 0.31686 0.04594 0.95874 0.0
H318 H 0.43795 0.03699 0.0407 0.0
H319 H 0.4083 0.9256 0.05131 0.0
H320 H 0.15163 0.89037 0.8476 0.0
H321 H 0.20962 0.99047 0.86719 0.0
H322 H 0.27635 0.06163 0.91254 0.0
H323 H 0.34032 0.09092 0.96428 0.0
Mn324 Mn 0.39927 0.12796 0.37344 0.0
Mn325 Mn 0.44439 0.25845 0.32229 0.0
C326 C 0.34822 0.17905 0.38165 0.0
C327 C 0.4099 0.08667 0.42919 0.0
C328 C 0.39045 0.14246 0.30202 0.0
O329 O 0.48556 0.16523 0.35853 0.0
O330 O 0.50936 0.25688 0.34511 0.0
C331 C 0.54901 0.3544 0.29226 0.0
N332 N 0.49153 0.32502 0.2938 0.0
C333 C 0.48549 0.38041 0.2432 0.0
C334 C 0.54457 0.41059 0.24069 0.0
C335 C 0.57646 0.39757 0.26539 0.0
C336 C 0.46036 0.3372 0.27024 0.0
H337 H 0.57374 0.3443 0.31096 0.0
C338 C 0.52177 0.21811 0.35204 0.0
O339 O 0.39507 0.06031 0.39673 0.0
O340 O 0.42013 0.13849 0.4296 0.0
N341 N 0.38212 0.25812 0.29599 0.0
C342 C 0.32573 0.219 0.29617 0.0
C343 C 0.28809 0.22799 0.27453 0.0
C344 C 0.30881 0.27516 0.25076 0.0
C345 C 0.36711 0.31229 0.24834 0.0
C346 C 0.40253 0.30284 0.27211 0.0
H347 H 0.30934 0.18074 0.31245 0.0
O348 O 0.32503 0.12607 0.39101 0.0
O349 O 0.39496 0.19668 0.36193 0.0
O350 O 0.37317 0.09537 0.31693 0.0
O351 O 0.40472 0.18047 0.32695 0.0
C352 C 0.39146 0.35705 0.22211 0.0
C353 C 0.45062 0.39059 0.21917 0.0
H354 H 0.56591 0.44396 0.21996 0.0
H355 H 0.62209 0.42049 0.26357 0.0
H356 H 0.24331 0.19773 0.2754 0.0
H357 H 0.27978 0.28109 0.23326 0.0
H358 H 0.36507 0.3651 0.20333 0.0
H359 H 0.46889 0.42398 0.19821 0.0
Mn360 Mn 0.25695 0.38289 0.70311 0.0
Mn361 Mn 0.20322 0.4657 0.69174 0.0
C362 C 0.1572 0.33499 0.7046 0.0
C363 C 0.30173 0.36325 0.75327 0.0
C364 C 0.24634 0.42191 0.62685 0.0
O365 O 0.32403 0.46407 0.69723 0.0
O366 O 0.27254 0.49576 0.72249 0.0
C367 C 0.18392 0.48942 0.77128 0.0
N368 N 0.16305 0.46909 0.73569 0.0
C369 C 0.07916 0.47328 0.74931 0.0
C370 C 0.10043 0.49571 0.78561 0.0
C371 C 0.15243 0.5025 0.79699 0.0
C372 C 0.1116 0.45944 0.72522 0.0
H373 H 0.22519 0.49755 0.77971 0.0
C374 C 0.31962 0.50539 0.70943 0.0
O375 O 0.31121 0.35594 0.71769 0.0
O376 O 0.26811 0.38274 0.75909 0.0
N377 N 0.13451 0.44163 0.66431 0.0
C378 C 0.12684 0.4383 0.62568 0.0
C379 C 0.0754 0.42793 0.61042 0.0
C380 C 0.03322 0.42474 0.63489 0.0
C381 C 0.04432 0.43523 0.67397 0.0
C382 C 0.09572 0.44305 0.6878 0.0
H383 H 0.15926 0.44316 0.60656 0.0
O384 O 0.18511 0.30868 0.70754 0.0
O385 O 0.18876 0.38987 0.70342 0.0
O386 O 0.24984 0.38277 0.64468 0.0
O387 O 0.24297 0.46213 0.64414 0.0
C388 C 0.00906 0.44436 0.69874 0.0
C389 C 0.02861 0.4674 0.73525 0.0
H390 H 0.07735 0.50819 0.80492 0.0
H391 H 0.1691 0.51962 0.82502 0.0
H392 H 0.06859 0.42316 0.57984 0.0
H393 H 0.9934 0.41668 0.62307 0.0
H394 H 0.96942 0.43925 0.68874 0.0
H395 H 0.00607 0.4837 0.75134 0.0
Mn396 Mn 0.8428 0.24229 0.03654 0.0
Mn397 Mn 0.72316 0.15749 0.98671 0.0
C398 C 0.82841 0.15503 1.01479 0.0
C399 C 0.8879 0.27531 0.09637 0.0
C400 C 0.82102 0.26679 0.95684 0.0
O401 O 0.79155 0.2758 0.04531 0.0
O402 O 0.70836 0.20349 0.02384 0.0
C403 C 0.62575 0.08588 0.04218 0.0
N404 N 0.66828 0.08785 1.00997 0.0
C405 C 0.62974 0.97158 0.99456 0.0
C406 C 0.55714 0.96172 0.0495 0.0
C407 C 0.57219 0.0277 0.06325 0.0
C408 C 0.67297 0.04113 0.9868 0.0
H409 H 0.63028 0.12518 0.05255 0.0
C410 C 0.73827 0.2517 0.04017 0.0
O411 O 0.90678 0.30556 0.06568 0.0
O412 O 0.84227 0.22665 0.09254 0.0
N413 N 0.73616 0.11302 0.94888 0.0
C414 C 0.77013 0.13281 0.91756 0.0
C415 C 0.772 0.09536 0.89071 0.0
C416 C 0.7384 0.03732 0.89602 0.0
C417 C 0.70466 0.01709 0.92884 0.0
C418 C 0.70529 0.05703 0.95492 0.0
H419 H 0.79732 0.17679 0.914 0.0
O420 O 0.87797 0.19516 0.02503 0.0
O421 O 0.78714 0.16607 0.01881 0.0
O422 O 0.85838 0.27384 0.9814 0.0
O423 O 0.77033 0.22688 0.95921 0.0
C424 C 0.67385 0.9588 0.93632 0.0
C425 C 0.63927 0.93608 0.96858 0.0
H426 H 0.52225 0.92512 0.06345 0.0
H427 H 0.54686 0.03263 0.08521 0.0
H428 H 0.80071 0.11094 0.8667 0.0
H429 H 0.7405 0.00857 0.87536 0.0
H430 H 0.677 0.92965 0.91656 0.0
H431 H 0.61884 0.89064 0.97096 0.0
H432 H 0.25807 0.61795 0.36425 0.0
H433 H 0.28359 0.56265 0.254 0.0
H434 H 0.36621 0.65554 0.24284 0.0
H435 H 0.44317 0.74158 0.27187 0.0
H436 H 0.42052 0.79455 0.3842 0.0
H437 H 0.32448 0.71453 0.3868 0.0
C438 C 0.2797 0.62755 0.33683 0.0
C439 C 0.26456 0.58384 0.30981 0.0
C440 C 0.32895 0.6802 0.33159 0.0
C441 C 0.29378 0.59603 0.27483 0.0
C442 C 0.34182 0.64884 0.26884 0.0
C443 C 0.41666 0.73688 0.29637 0.0
C444 C 0.4398 0.77344 0.32818 0.0
C445 C 0.36181 0.68979 0.29813 0.0
C446 C 0.40435 0.76687 0.35946 0.0
C447 C 0.34935 0.72074 0.36111 0.0
H448 H 0.6842 0.29508 0.76483 0.0
H449 H 0.61321 0.21093 0.65728 0.0
H450 H 0.57985 0.27611 0.64484 0.0
H451 H 0.59589 0.37177 0.65538 0.0
H452 H 0.66919 0.45873 0.76111 0.0
H453 H 0.67433 0.37748 0.78378 0.0
C454 C 0.65995 0.2899 0.73923 0.0
C455 C 0.65391 0.2496 0.71127 0.0
C456 C 0.64147 0.32868 0.73162 0.0
C457 C 0.6205 0.24251 0.67892 0.0
C458 C 0.60125 0.28001 0.67159 0.0
C459 C 0.60941 0.37143 0.6844 0.0
C460 C 0.63347 0.42182 0.70601 0.0
C461 C 0.61492 0.3255 0.69644 0.0
C462 C 0.65061 0.42067 0.74367 0.0
C463 C 0.65494 0.37452 0.75634 0.0
H464 H 0.40651 0.68199 0.06222 0.0
H465 H 0.45144 0.70826 0.94289 0.0
H466 H 0.35976 0.69866 0.92793 0.0
H467 H 0.27894 0.7062 0.95134 0.0
H468 H 0.23733 0.68743 0.07145 0.0
H469 H 0.3151 0.66963 0.0839 0.0
C470 C 0.39475 0.68262 0.03274 0.0
C471 C 0.43494 0.69536 1.00354 0.0
C472 C 0.34337 0.68003 0.02486 0.0
C473 C 0.42049 0.69746 0.96554 0.0
C474 C 0.36855 0.69299 0.95719 0.0
C475 C 0.28605 0.69657 0.98007 0.0
C476 C 0.25355 0.6991 1.01063 0.0
C477 C 0.33144 0.68788 0.98695 0.0
C478 C 0.26214 0.68584 0.04763 0.0
C479 C 0.30679 0.67611 0.05471 0.0
H480 H 0.59414 0.25433 0.293 0.0
H481 H 0.58569 0.23705 0.41532 0.0
H482 H 0.68001 0.31991 0.42114 0.0
H483 H 0.74765 0.41173 0.39288 0.0
H484 H 0.74859 0.43422 0.27129 0.0
H485 H 0.67572 0.33518 0.26322 0.0
C486 C 0.61464 0.26667 0.32067 0.0
C487 C 0.58306 0.23988 0.35371 0.0
C488 C 0.66712 0.31678 0.32381 0.0
C489 C 0.60936 0.25663 0.3895 0.0
C490 C 0.66289 0.3049 0.39282 0.0
C491 C 0.73431 0.39381 0.36445 0.0
C492 C 0.75377 0.4299 0.33264 0.0
C493 C 0.68997 0.33764 0.36043 0.0
C494 C 0.73507 0.40695 0.29602 0.0
C495 C 0.69263 0.35047 0.29154 0.0
H496 H 0.36832 0.70918 0.61658 0.0
H497 H 0.36082 0.77143 0.72897 0.0
H498 H 0.37377 0.69806 0.75798 0.0
H499 H 0.35775 0.60149 0.7504 0.0
H500 H 0.36322 0.53814 0.63801 0.0
H501 H 0.38241 0.62728 0.60984 0.0
C502 C 0.37267 0.70844 0.64735 0.0
C503 C 0.3626 0.74473 0.67069 0.0
C504 C 0.37856 0.66511 0.66377 0.0
C505 C 0.36843 0.74385 0.71047 0.0
C506 C 0.37499 0.70129 0.72708 0.0
C507 C 0.36633 0.60854 0.71999 0.0
C508 C 0.35804 0.56325 0.69618 0.0
C509 C 0.37584 0.65938 0.70398 0.0
C510 C 0.36928 0.57245 0.65686 0.0
C511 C 0.37944 0.6232 0.64068 0.0
H512 H 0.7119 0.30279 0.98738 0.0
H513 H 0.69586 0.26541 0.10757 0.0
H514 H 0.61455 0.27987 0.11206 0.0
H515 H 0.53447 0.2748 0.07781 0.0
H516 H 0.54231 0.29474 0.95562 0.0
H517 H 0.64101 0.31719 0.95537 0.0
C518 C 0.69209 0.30073 1.01485 0.0
C519 C 0.70914 0.28329 0.04716 0.0
C520 C 0.64321 0.30485 0.01635 0.0
C521 C 0.68334 0.27946 0.0826 0.0
C522 C 0.63649 0.28691 0.08493 0.0
C523 C 0.55899 0.28682 0.0515 0.0
C524 C 0.53212 0.28336 0.01678 0.0
C525 C 0.61388 0.29552 0.05146 0.0
C526 C 0.56294 0.29786 0.98256 0.0
C527 C 0.61895 0.3099 0.98247 0.0
H528 H 0.27809 0.34852 0.33221 0.0
H529 H 0.12479 0.24419 0.39384 0.0
H530 H 0.15912 0.17879 0.4099 0.0
H531 H 0.23796 0.15354 0.40442 0.0
H532 H 0.40201 0.28908 0.36988 0.0
H533 H 0.35733 0.33542 0.3407 0.0
C534 C 0.2536 0.31381 0.35132 0.0
C535 C 0.20124 0.30375 0.36394 0.0
C536 C 0.27583 0.28128 0.36458 0.0
C537 C 0.1668 0.25423 0.38493 0.0
C538 C 0.18653 0.21711 0.39441 0.0
C539 C 0.26483 0.1957 0.39346 0.0
C540 C 0.32262 0.21538 0.38576 0.0
C541 C 0.24208 0.23099 0.38492 0.0
C542 C 0.35695 0.27124 0.37401 0.0
C543 C 0.33241 0.29986 0.35864 0.0
H544 H 0.89672 0.15488 0.70658 0.0
H545 H 0.89399 0.27509 0.62987 0.0
H546 H -0.00352 0.31885 0.62152 0.0
H547 H 0.08866 0.33896 0.6496 0.0
H548 H 0.08819 0.24357 0.74586 0.0
H549 H 0.98752 0.17745 0.73652 0.0
C550 C 0.91896 0.19304 0.68985 0.0
C551 C 0.88855 0.21466 0.67147 0.0
C552 C 0.9781 0.22591 0.69169 0.0
C553 C 0.91707 0.26019 0.64651 0.0
C554 C 0.97571 0.28649 0.64265 0.0
C555 C 0.06579 0.308 0.671 0.0
C556 C 0.09503 0.30072 0.70101 0.0
C557 C 0.00689 0.2735 0.66797 0.0
C558 C 0.06604 0.2524 0.72393 0.0
C559 C 0.00861 0.21423 0.71839 0.0
H560 H 0.82057 0.08571 0.0724 0.0
H561 H 0.83589 0.09987 0.95087 0.0
H562 H 0.79566 -0.00335 0.94436 0.0
H563 H 0.72741 0.9023 0.97531 0.0
H564 H 0.75192 0.89004 0.0947 0.0
H565 H 0.8069 0.99411 0.10043 0.0
C566 C 0.81362 0.06579 0.04445 0.0
C567 C 0.8192 0.09706 1.01141 0.0
C568 C 0.79538 0.0078 0.04119 0.0
C569 C 0.82116 0.07377 0.97596 0.0
C570 C 0.7997 0.01541 0.97244 0.0
C571 C 0.74418 0.9226 1.00267 0.0
C572 C 0.72725 0.89051 0.03631 0.0
C573 C 0.7802 0.98149 1.00499 0.0
C574 C 0.75702 0.91559 0.07004 0.0
C575 C 0.7894 0.97461 0.07302 0.0
H576 H 0.63961 0.75062 0.37842 0.0
H577 H 0.78923 0.91514 0.38157 0.0
H578 H 0.84835 0.87033 0.37775 0.0
H579 H 0.85473 0.78212 0.36352 0.0
H580 H 0.70277 0.63659 0.32489 0.0
H581 H 0.64611 0.67376 0.35222 0.0
C582 C 0.68526 0.77721 0.37833 0.0
C583 C 0.70989 0.83602 0.37865 0.0
C584 C 0.71794 0.75275 0.36969 0.0
C585 C 0.76912 0.86954 0.3803 0.0
C586 C 0.8028 0.84397 0.37745 0.0
C587 C 0.80918 0.75912 0.36071 0.0
C588 C 0.78108 0.70257 0.34731 0.0
C589 C 0.77742 0.78555 0.36996 0.0
C590 C 0.72337 0.6756 0.34078 0.0
C591 C 0.69147 0.69786 0.35526 0.0
H592 H 0.08131 0.68731 0.62402 0.0
H593 H 0.12727 0.83905 0.68875 0.0
H594 H 0.02884 0.80539 0.70377 0.0
H595 H 0.92905 0.73086 0.70013 0.0
H596 H 0.89283 0.56495 0.66694 0.0
H597 H 0.98312 0.60571 0.63244 0.0
C598 C 0.07035 0.71113 0.6435 0.0
C599 C 0.1124 0.76399 0.65676 0.0
C600 C 0.01409 0.68924 0.65587 0.0
C601 C 0.09617 0.79744 0.6785 0.0
C602 C 0.03977 0.77824 0.68746 0.0
C603 C 0.94159 0.70279 0.68683 0.0
C604 C 0.9014 0.64557 0.68034 0.0
C605 C -0.00155 0.7237 0.6769 0.0
C606 C 0.92034 0.60994 0.66659 0.0
C607 C 0.97354 0.6327 0.64956 0.0
H608 H 0.21639 0.07113 0.96992 0.0
H609 H 0.2324 0.07603 0.09195 0.0
H610 H 0.169 0.9728 0.09457 0.0
H611 H 0.14106 0.88245 0.05843 0.0
H612 H 0.10528 0.87677 0.93883 0.0
H613 H 0.14403 0.97993 0.93895 0.0
C614 C 0.20668 0.0492 0.997 0.0
C615 C 0.23562 0.07824 0.03021 0.0
C616 C 0.16971 0.9907 0.99826 0.0
C617 C 0.21625 0.05216 0.06567 0.0
C618 C 0.17972 0.99371 0.06715 0.0
C619 C 0.1422 0.90408 0.03237 0.0
C620 C 0.12906 0.87497 0.99726 0.0
C621 C 0.16228 0.96231 0.03306 0.0
C622 C 0.12256 0.90073 0.9649 0.0
C623 C 0.14373 0.95913 0.96519 0.0
H624 H 0.00055 0.3458 0.10866 0.0
H625 H 0.84289 0.2455 0.16813 0.0
H626 H 0.8921 0.27263 0.22961 0.0
H627 H 0.9812 0.32256 0.26681 0.0
H628 H 0.13929 0.41468 0.2062 0.0
H629 H 0.0892 0.39347 0.1454 0.0
C630 C 0.97692 0.33031 0.13511 0.0
C631 C 0.91797 0.29404 0.13372 0.0
C632 C 0.00584 0.34455 0.17037 0.0
C633 C 0.88822 0.27354 0.1683 0.0
C634 C 0.9164 0.28906 0.20353 0.0
C635 C 0.00452 0.33828 0.24028 0.0
C636 C 0.06399 0.37049 0.24117 0.0
C637 C 0.97535 0.32421 0.205 0.0
C638 C 0.09359 0.38976 0.20642 0.0
C639 C 0.06493 0.37767 0.17155 0.0
H640 H 0.69481 0.13185 0.54903 0.0
H641 H 0.62649 0.98611 0.62206 0.0
H642 H 0.59381 0.92358 0.56629 0.0
H643 H 0.58887 0.90976 0.49626 0.0
H644 H 0.65138 0.05487 0.42309 0.0
H645 H 0.68121 0.11753 0.47894 0.0
C646 C 0.67243 0.08642 0.55268 0.0
C647 C 0.66364 0.06388 0.58978 0.0
C648 C 0.6526 0.05031 0.5203 0.0
C649 C 0.63394 0.00479 0.59394 0.0
C650 C 0.61529 0.96884 0.56199 0.0
C651 C 0.60844 0.95504 0.49256 0.0
C652 C 0.61812 0.97741 0.45541 0.0
C653 C 0.62496 0.99103 0.52496 0.0
C654 C 0.64321 0.03629 0.45126 0.0
C655 C 0.66063 0.07232 0.48326 0.0
H656 H 0.65457 0.74048 0.89272 0.0
H657 H 0.636 0.60141 0.9602 0.0
H658 H 0.66619 0.5659 0.90548 0.0
H659 H 0.69793 0.57405 0.83695 0.0
H660 H 0.71335 0.71341 0.77094 0.0
H661 H 0.68526 0.74855 0.82595 0.0
C662 C 0.65686 0.70225 0.89556 0.0
C663 C 0.64266 0.67381 0.93082 0.0
C664 C 0.6743 0.68195 0.86388 0.0
C665 C 0.64628 0.62433 0.93356 0.0
C666 C 0.66383 0.60399 0.90216 0.0
C667 C 0.69564 0.61233 0.83479 0.0
C668 C 0.70804 0.64083 0.79941 0.0
C669 C 0.67818 0.63246 0.86698 0.0
C670 C 0.704 0.69013 0.7974 0.0
C671 C 0.6878 0.71051 0.82901 0.0
H672 H 0.97298 0.62525 0.10302 0.0
H673 H 0.13345 0.75563 0.1461 0.0
H674 H 0.0953 0.73899 0.21117 0.0
H675 H 0.01426 0.69066 0.25632 0.0
H676 H 0.85232 0.56524 0.21199 0.0
H677 H 0.89273 0.57627 0.14799 0.0
C678 C -0.00018 0.64957 0.12668 0.0
C679 C 0.0563 0.69152 0.11933 0.0
C680 C 0.97705 0.64077 0.16427 0.0
C681 C 0.08993 0.72304 0.15059 0.0
C682 C 0.06805 0.71357 0.18801 0.0
C683 C 0.98806 0.66524 0.23275 0.0
C684 C 0.93016 0.6269 0.23932 0.0
C685 C 0.0114 0.673 0.1953 0.0
C686 C 0.89688 0.59509 0.20804 0.0
C687 C 0.92 0.60141 0.17123 0.0
H688 H 0.40422 0.11179 0.50541 0.0
H689 H 0.41691 0.9918 0.43066 0.0
H690 H 0.40144 0.93024 0.48441 0.0
H691 H 0.37164 0.90396 0.55046 0.0
H692 H 0.35688 0.02066 0.6268 0.0
H693 H 0.38679 0.09021 0.57516 0.0
C694 C 0.40479 0.07277 0.50113 0.0
C695 C 0.41086 0.05614 0.46383 0.0
C696 C 0.395 0.03662 0.53246 0.0
C697 C 0.41154 0.00539 0.45884 0.0
C698 C 0.40266 0.96998 0.48962 0.0
C699 C 0.37615 0.94513 0.55606 0.0
C700 C 0.36164 0.95699 0.59226 0.0
C701 C 0.39238 0.98418 0.52622 0.0
C702 C 0.36809 0.01062 0.5992 0.0
C703 C 0.38464 0.05015 0.56952 0.0
H704 H 0.36232 0.2456 0.88473 0.0
H705 H 0.33646 0.36343 0.95291 0.0
H706 H 0.32328 0.4042 0.89504 0.0
H707 H 0.31235 0.40237 0.82564 0.0
H708 H 0.33895 0.28649 0.75612 0.0
H709 H 0.3596 0.24971 0.81378 0.0
C710 C 0.3542 0.28048 0.88689 0.0
C711 C 0.34982 0.30098 0.92331 0.0
C712 C 0.34687 0.30413 0.85324 0.0
C713 C 0.33984 0.34657 0.92546 0.0
C714 C 0.33222 0.36994 0.8923 0.0
C715 C 0.32335 0.36949 0.82297 0.0
C716 C 0.3237 0.34692 0.78659 0.0
C717 C 0.33471 0.34848 0.85614 0.0
C718 C 0.33859 0.30477 0.78369 0.0
C719 C 0.34994 0.28345 0.81674 0.0
H720 H 0.13636 0.35792 0.46365 0.0
H721 H 0.20513 0.53787 0.46026 0.0
H722 H 0.24209 0.54743 0.52489 0.0
H723 H 0.26706 0.50646 0.57796 0.0
H724 H 0.19785 0.32606 0.58248 0.0
H725 H 0.15451 0.31548 0.51974 0.0
C726 C 0.15686 0.3988 0.47793 0.0
C727 C 0.16827 0.44716 0.45713 0.0
C728 C 0.18231 0.4044 0.51379 0.0
C729 C 0.1954 0.49996 0.47577 0.0
C730 C 0.21839 0.50565 0.51217 0.0
C731 C 0.24339 0.46485 0.56491 0.0
C732 C 0.23596 0.41713 0.58497 0.0
C733 C 0.21497 0.4586 0.53036 0.0
C734 C 0.20495 0.36359 0.56762 0.0
C735 C 0.17874 0.35735 0.53223 0.0
H736 H 0.75828 0.29198 0.90846 0.0
H737 H 0.91613 0.29367 0.91518 0.0
H738 H 0.89541 0.24137 0.85548 0.0
H739 H 0.82095 0.17179 0.81492 0.0
H740 H 0.6672 0.1758 0.79886 0.0
H741 H 0.69283 0.24185 0.85385 0.0
C742 C 0.78977 0.28393 0.89545 0.0
C743 C 0.83593 0.29099 0.91797 0.0
C744 C 0.77508 0.2498 0.8623 0.0
C745 C 0.87872 0.2856 0.89964 0.0
C746 C 0.86607 0.25415 0.86578 0.0
C747 C 0.7935 0.1883 0.82242 0.0
C748 C 0.74236 0.16871 0.80248 0.0
C749 C 0.81218 0.23166 0.84938 0.0
C750 C 0.70613 0.18869 0.81407 0.0
C751 C 0.72189 0.22807 0.8445 0.0
H752 H 0.67597 0.85109 0.23579 0.0
H753 H 0.52422 0.86099 0.247 0.0
H754 H 0.47831 0.78386 0.19934 0.0
H755 H 0.48548 0.71799 0.15283 0.0
H756 H 0.63848 0.7098 0.14645 0.0
H757 H 0.67557 0.77329 0.20127 0.0
C758 C 0.63203 0.83536 0.2292 0.0
C759 C 0.60364 0.86162 0.24602 0.0
C760 C 0.60466 0.78775 0.2056 0.0
C761 C 0.54785 0.84272 0.23448 0.0
C762 C 0.52108 0.79732 0.20821 0.0
C763 C 0.52588 0.72782 0.1648 0.0
C764 C 0.56177 0.71387 0.14325 0.0
C765 C 0.5492 0.76938 0.19382 0.0
C766 C 0.61118 0.72226 0.16092 0.0
C767 C 0.63325 0.76028 0.19168 0.0
H768 H 0.7472 0.53957 0.46757 0.0
H769 H 0.9097 0.6929 0.46404 0.0
H770 H 0.88502 0.72475 0.5239 0.0
H771 H 0.81673 0.70316 0.57922 0.0
H772 H 0.64757 0.56379 0.56756 0.0
H773 H 0.67299 0.53613 0.5076 0.0
C774 C 0.77828 0.58002 0.47956 0.0
C775 C 0.831 0.61335 0.46095 0.0
C776 C 0.76121 0.60141 0.51016 0.0
C777 C 0.86946 0.6657 0.47771 0.0
C778 C 0.85452 0.68465 0.51126 0.0
C779 C 0.78468 0.66828 0.5626 0.0
C780 C 0.73217 0.6308 0.58005 0.0
C781 C 0.80028 0.65263 0.52776 0.0
C782 C 0.68961 0.59079 0.55614 0.0
C783 C 0.70477 0.57326 0.52263 0.0
H784 H 0.16144 0.65671 0.89225 0.0
H785 H 0.04334 0.71565 0.88146 0.0
H786 H 0.07772 0.74839 0.81662 0.0
H787 H 0.15506 0.77767 0.76851 0.0
H788 H 0.27536 0.72116 0.78142 0.0
H789 H 0.23061 0.6753 0.84155 0.0
C790 C 0.14108 0.67394 0.87486 0.0
C791 C 0.10176 0.68615 0.89238 0.0
C792 C 0.16569 0.69844 0.83954 0.0
C793 C 0.07444 0.70661 0.86909 0.0
C794 C 0.09592 0.72768 0.83253 0.0
C795 C 0.17255 0.757 0.78527 0.0
C796 C 0.22001 0.75483 0.77132 0.0
C797 C 0.14449 0.72782 0.81884 0.0
C798 C 0.24021 0.72508 0.79222 0.0
C799 C 0.21372 0.69761 0.82607 0.0
H800 H 0.30918 0.12497 0.25146 0.0
H801 H 0.48885 0.19912 0.2645 0.0
H802 H 0.50513 0.25296 0.20579 0.0
H803 H 0.46732 0.27515 0.14945 0.0
H804 H 0.28793 0.20627 0.13865 0.0
H805 H 0.27251 0.15973 0.20034 0.0
C806 C 0.35173 0.1519 0.24076 0.0
C807 C 0.39772 0.15663 0.26131 0.0
C808 C 0.36083 0.18677 0.2091 0.0
C809 C 0.4528 0.19317 0.24815 0.0
C810 C 0.46214 0.22527 0.21534 0.0
C811 C 0.42514 0.25243 0.16165 0.0
C812 C 0.37869 0.24247 0.13905 0.0
C813 C 0.41647 0.22286 0.19585 0.0
C814 C 0.32437 0.21423 0.15535 0.0
C815 C 0.31538 0.18586 0.19005 0.0
loop_
_geom_bond_atom_site_label_1
_geom_bond_atom_site_label_2
_geom_bond_distance
_geom_bond_site_symmetry_2
_ccdc_geom_bond_type
Mn0 O5 2.095 . S
Mn0 O15 2.162 . S
Mn0 O16 2.297 . S
Mn0 O24 2.385 . S
Mn0 O25 2.209 . S
Mn0 O26 2.094 . S
Mn1 O6 2.121 . S
Mn1 N8 2.257 . S
Mn1 N17 2.282 . S
Mn1 O25 2.215 . S
Mn1 O27 2.117 . S
C2 O24 1.234 . S
C2 O25 1.283 . S
C3 O15 1.281 . S
C3 O16 1.236 . S
C4 O26 1.240 . S
C4 O27 1.264 . S
O5 Mn0 2.095 . S
O5 C14 1.250 . S
O6 Mn1 2.121 . S
O6 C14 1.258 . S
C7 N8 1.326 . S
C7 C11 1.460 . S
C7 H13 0.929 . S
N8 Mn1 2.257 . S
N8 C7 1.326 . S
N8 C12 1.362 . S
C9 C10 1.258 . S
C9 C12 1.431 . S
C9 C29 1.449 . S
C10 C9 1.258 . S
C10 C11 1.477 . S
C10 H30 0.931 . S
C11 C7 1.460 . S
C11 C10 1.477 . S
C11 H31 0.930 . S
C12 N8 1.362 . S
C12 C9 1.431 . S
C12 C22 1.476 . S
H13 C7 0.929 . S
C14 O5 1.250 . S
C14 O6 1.258 . S
O15 Mn0 2.162 . S
O15 C3 1.281 . S
O16 Mn0 2.297 . S
O16 C3 1.236 . S
N17 Mn1 2.282 . S
N17 C18 1.328 . S
N17 C22 1.318 . S
C18 N17 1.328 . S
C18 C19 1.457 . S
C18 H23 0.929 . S
C19 C18 1.457 . S
C19 C20 1.291 . S
C19 H32 0.931 . S
C20 C19 1.291 . S
C20 C21 1.373 . S
C20 H33 0.929 . S
C21 C20 1.373 . S
C21 C22 1.396 . S
C21 C28 1.403 . S
C22 C12 1.476 . S
C22 N17 1.318 . S
C22 C21 1.396 . S
H23 C18 0.929 . S
O24 Mn0 2.385 . S
O24 C2 1.234 . S
O25 Mn0 2.209 . S
O25 Mn1 2.215 . S
O25 C2 1.283 . S
O26 Mn0 2.094 . S
O26 C4 1.240 . S
O27 Mn1 2.117 . S
O27 C4 1.264 . S
C28 C21 1.403 . S
C28 C29 1.399 . S
C28 H34 0.929 . S
C29 C9 1.449 . S
C29 C28 1.399 . S
C29 H35 0.930 . S
H30 C10 0.931 . S
H31 C11 0.930 . S
H32 C19 0.931 . S
H33 C20 0.929 . S
H34 C28 0.929 . S
H35 C29 0.930 . S
Mn36 O41 2.095 . S
Mn36 O51 2.162 . S
Mn36 O52 2.297 . S
Mn36 O60 2.385 . S
Mn36 O61 2.209 . S
Mn36 O62 2.094 . S
Mn37 O42 2.121 . S
Mn37 N44 2.257 . S
Mn37 N53 2.282 . S
Mn37 O61 2.215 . S
Mn37 O63 2.117 . S
C38 O60 1.234 . S
C38 O61 1.283 . S
C39 O51 1.281 . S
C39 O52 1.236 . S
C40 O62 1.240 . S
C40 O63 1.264 . S
O41 Mn36 2.095 . S
O41 C50 1.250 . S
O42 Mn37 2.121 . S
O42 C50 1.258 . S
C43 N44 1.326 . S
C43 C47 1.460 . S
C43 H49 0.929 . S
N44 Mn37 2.257 . S
N44 C43 1.326 . S
N44 C48 1.362 . S
C45 C46 1.258 . S
C45 C48 1.431 1_455 S
C45 C65 1.449 . S
C46 C45 1.258 . S
C46 C47 1.477 1_455 S
C46 H66 0.931 . S
C47 C43 1.460 . S
C47 C46 1.477 1_655 S
C47 H67 0.930 . S
C48 N44 1.362 . S
C48 C45 1.431 1_655 S
C48 C58 1.476 . S
H49 C43 0.929 . S
C50 O41 1.250 . S
C50 O42 1.258 . S
O51 Mn36 2.162 . S
O51 C39 1.281 . S
O52 Mn36 2.297 . S
O52 C39 1.236 . S
N53 Mn37 2.282 . S
N53 C54 1.328 . S
N53 C58 1.318 . S
C54 N53 1.328 . S
C54 C55 1.457 . S
C54 H59 0.929 . S
C55 C54 1.457 . S
C55 C56 1.291 1_655 S
C55 H68 0.931 . S
C56 C55 1.291 1_455 S
C56 C57 1.373 . S
C56 H69 0.929 . S
C57 C56 1.373 . S
C57 C58 1.396 1_455 S
C57 C64 1.403 . S
C58 C48 1.476 . S
C58 N53 1.318 . S
C58 C57 1.396 1_655 S
H59 C54 0.929 . S
O60 Mn36 2.385 . S
O60 C38 1.234 . S
O61 Mn36 2.209 . S
O61 Mn37 2.215 . S
O61 C38 1.283 . S
O62 Mn36 2.094 . S
O62 C40 1.240 . S
O63 Mn37 2.117 . S
O63 C40 1.264 . S
C64 C57 1.403 . S
C64 C65 1.399 . S
C64 H70 0.929 . S
C65 C45 1.449 . S
C65 C64 1.399 . S
C65 H71 0.930 . S
H66 C46 0.931 . S
H67 C47 0.930 . S
H68 C55 0.931 . S
H69 C56 0.929 . S
H70 C64 0.929 . S
H71 C65 0.930 . S
Mn72 O77 2.095 1_556 S
Mn72 O87 2.162 . S
Mn72 O88 2.297 . S
Mn72 O96 2.385 . S
Mn72 O97 2.209 . S
Mn72 O98 2.094 1_556 S
Mn73 O78 2.121 . S
Mn73 N80 2.257 . S
Mn73 N89 2.282 . S
Mn73 O97 2.215 1_554 S
Mn73 O99 2.117 . S
C74 O96 1.234 . S
C74 O97 1.283 . S
C75 O87 1.281 . S
C75 O88 1.236 . S
C76 O98 1.240 . S
C76 O99 1.264 . S
O77 Mn72 2.095 1_554 S
O77 C86 1.250 1_554 S
O78 Mn73 2.121 . S
O78 C86 1.257 1_554 S
C79 N80 1.326 1_556 S
C79 C83 1.460 . S
C79 H85 0.929 . S
N80 Mn73 2.257 . S
N80 C79 1.326 1_554 S
N80 C84 1.362 . S
C81 C82 1.258 . S
C81 C84 1.431 1_545 S
C81 C101 1.449 . S
C82 C81 1.258 . S
C82 C83 1.477 1_544 S
C82 H102 0.931 1_554 S
C83 C79 1.460 . S
C83 C82 1.477 1_566 S
C83 H103 0.930 . S
C84 N80 1.362 . S
C84 C81 1.431 1_565 S
C84 C94 1.476 . S
H85 C79 0.929 . S
C86 O77 1.250 1_556 S
C86 O78 1.257 1_556 S
O87 Mn72 2.162 . S
O87 C75 1.281 . S
O88 Mn72 2.297 . S
O88 C75 1.236 . S
N89 Mn73 2.282 . S
N89 C90 1.328 . S
N89 C94 1.318 . S
C90 N89 1.328 . S
C90 C91 1.457 . S
C90 H95 0.929 . S
C91 C90 1.457 . S
C91 C92 1.291 1_565 S
C91 H104 0.931 . S
C92 C91 1.291 1_545 S
C92 C93 1.373 . S
C92 H105 0.929 . S
C93 C92 1.373 . S
C93 C94 1.396 1_545 S
C93 C100 1.403 . S
C94 C84 1.476 . S
C94 N89 1.318 . S
C94 C93 1.396 1_565 S
H95 C90 0.929 . S
O96 Mn72 2.385 . S
O96 C74 1.234 . S
O97 Mn72 2.209 . S
O97 Mn73 2.215 1_556 S
O97 C74 1.283 . S
O98 Mn72 2.094 1_554 S
O98 C76 1.240 . S
O99 Mn73 2.117 . S
O99 C76 1.264 . S
C100 C93 1.403 . S
C100 C101 1.399 . S
C100 H106 0.929 . S
C101 C81 1.449 . S
C101 C100 1.399 . S
C101 H107 0.930 . S
H102 C82 0.931 1_556 S
H103 C83 0.930 . S
H104 C91 0.931 . S
H105 C92 0.929 . S
H106 C100 0.929 . S
H107 C101 0.930 . S
Mn108 O113 2.095 . S
Mn108 O123 2.162 . S
Mn108 O124 2.297 . S
Mn108 O132 2.385 . S
Mn108 O133 2.209 . S
Mn108 O134 2.094 . S
Mn109 O114 2.121 . S
Mn109 N116 2.257 . S
Mn109 N125 2.282 . S
Mn109 O133 2.215 . S
Mn109 O135 2.117 . S
C110 O132 1.234 . S
C110 O133 1.283 . S
C111 O123 1.281 . S
C111 O124 1.236 . S
C112 O134 1.240 . S
C112 O135 1.264 . S
O113 Mn108 2.095 . S
O113 C122 1.250 . S
O114 Mn109 2.121 . S
O114 C122 1.258 . S
C115 N116 1.326 . S
C115 C119 1.460 . S
C115 H121 0.929 . S
N116 Mn109 2.257 . S
N116 C115 1.326 . S
N116 C120 1.362 . S
C117 C118 1.258 . S
C117 C120 1.431 . S
C117 C137 1.449 . S
C118 C117 1.258 . S
C118 C119 1.477 . S
C118 H138 0.931 . S
C119 C115 1.460 . S
C119 C118 1.477 . S
C119 H139 0.930 . S
C120 N116 1.362 . S
C120 C117 1.431 . S
C120 C130 1.476 . S
H121 C115 0.929 . S
C122 O113 1.250 . S
C122 O114 1.258 . S
O123 Mn108 2.162 . S
O123 C111 1.281 . S
O124 Mn108 2.297 . S
O124 C111 1.236 . S
N125 Mn109 2.282 . S
N125 C126 1.328 . S
N125 C130 1.318 . S
C126 N125 1.328 . S
C126 C127 1.457 . S
C126 H131 0.929 . S
C127 C126 1.457 . S
C127 C128 1.291 . S
C127 H140 0.931 . S
C128 C127 1.291 . S
C128 C129 1.373 . S
C128 H141 0.929 . S
C129 C128 1.373 . S
C129 C130 1.396 . S
C129 C136 1.403 . S
C130 C120 1.476 . S
C130 N125 1.318 . S
C130 C129 1.396 . S
H131 C126 0.929 . S
O132 Mn108 2.385 . S
O132 C110 1.234 . S
O133 Mn108 2.209 . S
O133 Mn109 2.215 . S
O133 C110 1.283 . S
O134 Mn108 2.094 . S
O134 C112 1.240 . S
O135 Mn109 2.117 . S
O135 C112 1.264 . S
C136 C129 1.403 . S
C136 C137 1.399 . S
C136 H142 0.929 . S
C137 C117 1.449 . S
C137 C136 1.399 . S
C137 H143 0.930 . S
H138 C118 0.931 . S
H139 C119 0.930 . S
H140 C127 0.931 . S
H141 C128 0.929 . S
H142 C136 0.929 . S
H143 C137 0.930 . S
Mn144 O149 2.095 . S
Mn144 O159 2.162 . S
Mn144 O160 2.297 . S
Mn144 O168 2.385 . S
Mn144 O169 2.209 . S
Mn144 O170 2.094 . S
Mn145 O150 2.121 . S
Mn145 N152 2.257 . S
Mn145 N161 2.282 . S
Mn145 O169 2.215 . S
Mn145 O171 2.117 . S
C146 O168 1.234 . S
C146 O169 1.283 . S
C147 O159 1.281 . S
C147 O160 1.236 . S
C148 O170 1.240 . S
C148 O171 1.264 . S
O149 Mn144 2.095 . S
O149 C158 1.250 . S
O150 Mn145 2.121 . S
O150 C158 1.258 . S
C151 N152 1.326 . S
C151 C155 1.460 . S
C151 H157 0.929 . S
N152 Mn145 2.257 . S
N152 C151 1.326 . S
N152 C156 1.362 . S
C153 C154 1.258 . S
C153 C156 1.431 1_655 S
C153 C173 1.449 . S
C154 C153 1.258 . S
C154 C155 1.477 1_655 S
C154 H174 0.931 . S
C155 C151 1.460 . S
C155 C154 1.477 1_455 S
C155 H175 0.930 . S
C156 N152 1.362 . S
C156 C153 1.431 1_455 S
C156 C166 1.476 . S
H157 C151 0.929 . S
C158 O149 1.250 . S
C158 O150 1.258 . S
O159 Mn144 2.162 . S
O159 C147 1.281 . S
O160 Mn144 2.297 . S
O160 C147 1.236 . S
N161 Mn145 2.282 . S
N161 C162 1.328 . S
N161 C166 1.318 . S
C162 N161 1.328 . S
C162 C163 1.457 . S
C162 H167 0.929 . S
C163 C162 1.457 . S
C163 C164 1.291 1_455 S
C163 H176 0.931 . S
C164 C163 1.291 1_655 S
C164 C165 1.373 . S
C164 H177 0.929 . S
C165 C164 1.373 . S
C165 C166 1.396 1_655 S
C165 C172 1.403 . S
C166 C156 1.476 . S
C166 N161 1.318 . S
C166 C165 1.396 1_455 S
H167 C162 0.929 . S
O168 Mn144 2.385 . S
O168 C146 1.234 . S
O169 Mn144 2.209 . S
O169 Mn145 2.215 . S
O169 C146 1.283 . S
O170 Mn144 2.094 . S
O170 C148 1.240 . S
O171 Mn145 2.117 . S
O171 C148 1.264 . S
C172 C165 1.403 . S
C172 C173 1.399 . S
C172 H178 0.929 . S
C173 C153 1.449 . S
C173 C172 1.399 . S
C173 H179 0.930 . S
H174 C154 0.931 . S
H175 C155 0.930 . S
H176 C163 0.931 . S
H177 C164 0.929 . S
H178 C172 0.929 . S
H179 C173 0.930 . S
Mn180 O185 2.095 1_556 S
Mn180 O195 2.162 . S
Mn180 O196 2.297 . S
Mn180 O204 2.385 . S
Mn180 O205 2.209 . S
Mn180 O206 2.094 1_556 S
Mn181 O186 2.121 . S
Mn181 N188 2.257 . S
Mn181 N197 2.282 . S
Mn181 O205 2.215 1_554 S
Mn181 O207 2.117 . S
C182 O204 1.234 . S
C182 O205 1.283 . S
C183 O195 1.281 . S
C183 O196 1.236 . S
C184 O206 1.240 . S
C184 O207 1.264 . S
O185 Mn180 2.095 1_554 S
O185 C194 1.250 1_554 S
O186 Mn181 2.121 . S
O186 C194 1.257 1_554 S
C187 N188 1.326 1_556 S
C187 C191 1.460 . S
C187 H193 0.929 . S
N188 Mn181 2.257 . S
N188 C187 1.326 1_554 S
N188 C192 1.362 . S
C189 C190 1.258 . S
C189 C192 1.431 1_565 S
C189 C209 1.449 . S
C190 C189 1.258 . S
C190 C191 1.477 1_564 S
C190 H210 0.931 1_554 S
C191 C187 1.460 . S
C191 C190 1.477 1_546 S
C191 H211 0.930 . S
C192 N188 1.362 . S
C192 C189 1.431 1_545 S
C192 C202 1.476 . S
H193 C187 0.929 . S
C194 O185 1.250 1_556 S
C194 O186 1.257 1_556 S
O195 Mn180 2.162 . S
O195 C183 1.281 . S
O196 Mn180 2.297 . S
O196 C183 1.236 . S
N197 Mn181 2.282 . S
N197 C198 1.328 . S
N197 C202 1.318 . S
C198 N197 1.328 . S
C198 C199 1.457 . S
C198 H203 0.929 . S
C199 C198 1.457 . S
C199 C200 1.291 1_545 S
C199 H212 0.931 . S
C200 C199 1.291 1_565 S
C200 C201 1.373 . S
C200 H213 0.929 . S
C201 C200 1.373 . S
C201 C202 1.396 1_565 S
C201 C208 1.403 . S
C202 C192 1.476 . S
C202 N197 1.318 . S
C202 C201 1.396 1_545 S
H203 C198 0.929 . S
O204 Mn180 2.385 . S
O204 C182 1.234 . S
O205 Mn180 2.209 . S
O205 Mn181 2.215 1_556 S
O205 C182 1.283 . S
O206 Mn180 2.094 1_554 S
O206 C184 1.240 . S
O207 Mn181 2.117 . S
O207 C184 1.264 . S
C208 C201 1.403 . S
C208 C209 1.399 . S
C208 H214 0.929 . S
C209 C189 1.449 . S
C209 C208 1.399 . S
C209 H215 0.930 . S
H210 C190 0.931 1_556 S
H211 C191 0.930 . S
H212 C199 0.931 . S
H213 C200 0.929 . S
H214 C208 0.929 . S
H215 C209 0.930 . S
Mn216 O221 2.095 . S
Mn216 O231 2.162 . S
Mn216 O232 2.297 . S
Mn216 O240 2.385 . S
Mn216 O241 2.209 . S
Mn216 O242 2.094 . S
Mn217 O222 2.121 . S
Mn217 N224 2.257 . S
Mn217 N233 2.282 . S
Mn217 O241 2.215 . S
Mn217 O243 2.117 . S
C218 O240 1.234 . S
C218 O241 1.283 . S
C219 O231 1.281 . S
C219 O232 1.236 . S
C220 O242 1.240 . S
C220 O243 1.264 . S
O221 Mn216 2.095 . S
O221 C230 1.250 . S
O222 Mn217 2.121 . S
O222 C230 1.258 . S
C223 N224 1.326 . S
C223 C227 1.460 . S
C223 H229 0.929 . S
N224 Mn217 2.257 . S
N224 C223 1.326 . S
N224 C228 1.362 . S
C225 C226 1.258 . S
C225 C228 1.431 . S
C225 C245 1.449 . S
C226 C225 1.258 . S
C226 C227 1.477 . S
C226 H246 0.931 . S
C227 C223 1.460 . S
C227 C226 1.477 . S
C227 H247 0.930 . S
C228 N224 1.362 . S
C228 C225 1.431 . S
C228 C238 1.476 . S
H229 C223 0.929 . S
C230 O221 1.250 . S
C230 O222 1.258 . S
O231 Mn216 2.162 . S
O231 C219 1.281 . S
O232 Mn216 2.297 . S
O232 C219 1.236 . S
N233 Mn217 2.282 . S
N233 C234 1.328 . S
N233 C238 1.318 . S
C234 N233 1.328 . S
C234 C235 1.457 . S
C234 H239 0.929 . S
C235 C234 1.457 . S
C235 C236 1.291 . S
C235 H248 0.931 . S
C236 C235 1.291 . S
C236 C237 1.373 . S
C236 H249 0.929 . S
C237 C236 1.373 . S
C237 C238 1.396 . S
C237 C244 1.403 . S
C238 C228 1.476 . S
C238 N233 1.318 . S
C238 C237 1.396 . S
H239 C234 0.929 . S
O240 Mn216 2.385 . S
O240 C218 1.234 . S
O241 Mn216 2.209 . S
O241 Mn217 2.215 . S
O241 C218 1.283 . S
O242 Mn216 2.094 . S
O242 C220 1.240 . S
O243 Mn217 2.117 . S
O243 C220 1.264 . S
C244 C237 1.403 . S
C244 C245 1.399 . S
C244 H250 0.929 . S
C245 C225 1.449 . S
C245 C244 1.399 . S
C245 H251 0.930 . S
H246 C226 0.931 . S
H247 C227 0.930 . S
H248 C235 0.931 . S
H249 C236 0.929 . S
H250 C244 0.929 . S
H251 C245 0.930 . S
Mn252 O257 2.095 . S
Mn252 O267 2.162 . S
Mn252 O268 2.297 . S
Mn252 O276 2.385 . S
Mn252 O277 2.209 . S
Mn252 O278 2.094 . S
Mn253 O258 2.121 . S
Mn253 N260 2.257 . S
Mn253 N269 2.282 . S
Mn253 O277 2.215 . S
Mn253 O279 2.117 . S
C254 O276 1.234 . S
C254 O277 1.283 . S
C255 O267 1.281 . S
C255 O268 1.236 . S
C256 O278 1.240 . S
C256 O279 1.264 . S
O257 Mn252 2.095 . S
O257 C266 1.250 . S
O258 Mn253 2.121 . S
O258 C266 1.258 . S
C259 N260 1.326 . S
C259 C263 1.460 . S
C259 H265 0.929 . S
N260 Mn253 2.257 . S
N260 C259 1.326 . S
N260 C264 1.362 . S
C261 C262 1.258 . S
C261 C264 1.431 1_455 S
C261 C281 1.449 . S
C262 C261 1.258 . S
C262 C263 1.477 1_455 S
C262 H282 0.931 . S
C263 C259 1.460 . S
C263 C262 1.477 1_655 S
C263 H283 0.930 . S
C264 N260 1.362 . S
C264 C261 1.431 1_655 S
C264 C274 1.476 . S
H265 C259 0.929 . S
C266 O257 1.250 . S
C266 O258 1.258 . S
O267 Mn252 2.162 . S
O267 C255 1.281 . S
O268 Mn252 2.297 . S
O268 C255 1.236 . S
N269 Mn253 2.282 . S
N269 C270 1.328 . S
N269 C274 1.318 . S
C270 N269 1.328 . S
C270 C271 1.457 . S
C270 H275 0.929 . S
C271 C270 1.457 . S
C271 C272 1.291 1_655 S
C271 H284 0.931 . S
C272 C271 1.291 1_455 S
C272 C273 1.373 . S
C272 H285 0.929 . S
C273 C272 1.373 . S
C273 C274 1.396 1_455 S
C273 C280 1.403 . S
C274 C264 1.476 . S
C274 N269 1.318 . S
C274 C273 1.396 1_655 S
H275 C270 0.929 . S
O276 Mn252 2.385 . S
O276 C254 1.234 . S
O277 Mn252 2.209 . S
O277 Mn253 2.215 . S
O277 C254 1.283 . S
O278 Mn252 2.094 . S
O278 C256 1.240 . S
O279 Mn253 2.117 . S
O279 C256 1.264 . S
C280 C273 1.403 . S
C280 C281 1.399 . S
C280 H286 0.929 . S
C281 C261 1.449 . S
C281 C280 1.399 . S
C281 H287 0.930 . S
H282 C262 0.931 . S
H283 C263 0.930 . S
H284 C271 0.931 . S
H285 C272 0.929 . S
H286 C280 0.929 . S
H287 C281 0.930 . S
Mn288 O293 2.095 1_554 S
Mn288 O303 2.162 . S
Mn288 O304 2.297 . S
Mn288 O312 2.385 . S
Mn288 O313 2.209 . S
Mn288 O314 2.094 1_554 S
Mn289 O294 2.121 . S
Mn289 N296 2.257 . S
Mn289 N305 2.282 . S
Mn289 O313 2.215 1_556 S
Mn289 O315 2.117 . S
C290 O312 1.234 . S
C290 O313 1.283 . S
C291 O303 1.281 . S
C291 O304 1.236 . S
C292 O314 1.240 . S
C292 O315 1.264 . S
O293 Mn288 2.095 1_556 S
O293 C302 1.250 1_556 S
O294 Mn289 2.121 . S
O294 C302 1.257 1_556 S
C295 N296 1.326 1_554 S
C295 C299 1.460 . S
C295 H301 0.929 . S
N296 Mn289 2.257 . S
N296 C295 1.326 1_556 S
N296 C300 1.362 . S
C297 C298 1.258 . S
C297 C300 1.431 1_545 S
C297 C317 1.449 . S
C298 C297 1.258 . S
C298 C299 1.477 1_546 S
C298 H318 0.931 1_556 S
C299 C295 1.460 . S
C299 C298 1.477 1_564 S
C299 H319 0.930 . S
C300 N296 1.362 . S
C300 C297 1.431 1_565 S
C300 C310 1.476 . S
H301 C295 0.929 . S
C302 O293 1.250 1_554 S
C302 O294 1.257 1_554 S
O303 Mn288 2.162 . S
O303 C291 1.281 . S
O304 Mn288 2.297 . S
O304 C291 1.236 . S
N305 Mn289 2.282 . S
N305 C306 1.328 . S
N305 C310 1.318 . S
C306 N305 1.328 . S
C306 C307 1.457 . S
C306 H311 0.929 . S
C307 C306 1.457 . S
C307 C308 1.291 1_565 S
C307 H320 0.931 . S
C308 C307 1.291 1_545 S
C308 C309 1.373 . S
C308 H321 0.929 . S
C309 C308 1.373 . S
C309 C310 1.396 1_545 S
C309 C316 1.403 . S
C310 C300 1.476 . S
C310 N305 1.318 . S
C310 C309 1.396 1_565 S
H311 C306 0.929 . S
O312 Mn288 2.385 . S
O312 C290 1.234 . S
O313 Mn288 2.209 . S
O313 Mn289 2.215 1_554 S
O313 C290 1.283 . S
O314 Mn288 2.094 1_556 S
O314 C292 1.240 . S
O315 Mn289 2.117 . S
O315 C292 1.264 . S
C316 C309 1.403 . S
C316 C317 1.399 . S
C316 H322 0.929 . S
C317 C297 1.449 . S
C317 C316 1.399 . S
C317 H323 0.930 . S
H318 C298 0.931 1_554 S
H319 C299 0.930 . S
H320 C307 0.931 . S
H321 C308 0.929 . S
H322 C316 0.929 . S
H323 C317 0.930 . S
Mn324 O329 2.095 . S
Mn324 O339 2.162 . S
Mn324 O340 2.297 . S
Mn324 O348 2.385 . S
Mn324 O349 2.209 . S
Mn324 O350 2.094 . S
Mn325 O330 2.121 . S
Mn325 N332 2.257 . S
Mn325 N341 2.282 . S
Mn325 O349 2.215 . S
Mn325 O351 2.117 . S
C326 O348 1.234 . S
C326 O349 1.283 . S
C327 O339 1.281 . S
C327 O340 1.236 . S
C328 O350 1.240 . S
C328 O351 1.264 . S
O329 Mn324 2.095 . S
O329 C338 1.250 . S
O330 Mn325 2.121 . S
O330 C338 1.258 . S
C331 N332 1.326 . S
C331 C335 1.460 . S
C331 H337 0.929 . S
N332 Mn325 2.257 . S
N332 C331 1.326 . S
N332 C336 1.362 . S
C333 C334 1.258 . S
C333 C336 1.431 . S
C333 C353 1.449 . S
C334 C333 1.258 . S
C334 C335 1.477 . S
C334 H354 0.931 . S
C335 C331 1.460 . S
C335 C334 1.477 . S
C335 H355 0.930 . S
C336 N332 1.362 . S
C336 C333 1.431 . S
C336 C346 1.476 . S
H337 C331 0.929 . S
C338 O329 1.250 . S
C338 O330 1.258 . S
O339 Mn324 2.162 . S
O339 C327 1.281 . S
O340 Mn324 2.297 . S
O340 C327 1.236 . S
N341 Mn325 2.282 . S
N341 C342 1.328 . S
N341 C346 1.318 . S
C342 N341 1.328 . S
C342 C343 1.457 . S
C342 H347 0.929 . S
C343 C342 1.457 . S
C343 C344 1.291 . S
C343 H356 0.931 . S
C344 C343 1.291 . S
C344 C345 1.373 . S
C344 H357 0.929 . S
C345 C344 1.373 . S
C345 C346 1.396 . S
C345 C352 1.403 . S
C346 C336 1.476 . S
C346 N341 1.318 . S
C346 C345 1.396 . S
H347 C342 0.929 . S
O348 Mn324 2.385 . S
O348 C326 1.234 . S
O349 Mn324 2.209 . S
O349 Mn325 2.215 . S
O349 C326 1.283 . S
O350 Mn324 2.094 . S
O350 C328 1.240 . S
O351 Mn325 2.117 . S
O351 C328 1.264 . S
C352 C345 1.403 . S
C352 C353 1.399 . S
C352 H358 0.929 . S
C353 C333 1.449 . S
C353 C352 1.399 . S
C353 H359 0.930 . S
H354 C334 0.931 . S
H355 C335 0.930 . S
H356 C343 0.931 . S
H357 C344 0.929 . S
H358 C352 0.929 . S
H359 C353 0.930 . S
Mn360 O365 2.095 . S
Mn360 O375 2.162 . S
Mn360 O376 2.297 . S
Mn360 O384 2.385 . S
Mn360 O385 2.209 . S
Mn360 O386 2.094 . S
Mn361 O366 2.121 . S
Mn361 N368 2.257 . S
Mn361 N377 2.282 . S
Mn361 O385 2.215 . S
Mn361 O387 2.117 . S
C362 O384 1.234 . S
C362 O385 1.283 . S
C363 O375 1.281 . S
C363 O376 1.236 . S
C364 O386 1.240 . S
C364 O387 1.264 . S
O365 Mn360 2.095 . S
O365 C374 1.250 . S
O366 Mn361 2.121 . S
O366 C374 1.258 . S
C367 N368 1.326 . S
C367 C371 1.460 . S
C367 H373 0.929 . S
N368 Mn361 2.257 . S
N368 C367 1.326 . S
N368 C372 1.362 . S
C369 C370 1.258 . S
C369 C372 1.431 1_655 S
C369 C389 1.449 . S
C370 C369 1.258 . S
C370 C371 1.477 1_655 S
C370 H390 0.931 . S
C371 C367 1.460 . S
C371 C370 1.477 1_455 S
C371 H391 0.930 . S
C372 N368 1.362 . S
C372 C369 1.431 1_455 S
C372 C382 1.476 . S
H373 C367 0.929 . S
C374 O365 1.250 . S
C374 O366 1.258 . S
O375 Mn360 2.162 . S
O375 C363 1.281 . S
O376 Mn360 2.297 . S
O376 C363 1.236 . S
N377 Mn361 2.282 . S
N377 C378 1.328 . S
N377 C382 1.318 . S
C378 N377 1.328 . S
C378 C379 1.457 . S
C378 H383 0.929 . S
C379 C378 1.457 . S
C379 C380 1.291 1_455 S
C379 H392 0.931 . S
C380 C379 1.291 1_655 S
C380 C381 1.373 . S
C380 H393 0.929 . S
C381 C380 1.373 . S
C381 C382 1.396 1_655 S
C381 C388 1.403 . S
C382 C372 1.476 . S
C382 N377 1.318 . S
C382 C381 1.396 1_455 S
H383 C378 0.929 . S
O384 Mn360 2.385 . S
O384 C362 1.234 . S
O385 Mn360 2.209 . S
O385 Mn361 2.215 . S
O385 C362 1.283 . S
O386 Mn360 2.094 . S
O386 C364 1.240 . S
O387 Mn361 2.117 . S
O387 C364 1.264 . S
C388 C381 1.403 . S
C388 C389 1.399 . S
C388 H394 0.929 . S
C389 C369 1.449 . S
C389 C388 1.399 . S
C389 H395 0.930 . S
H390 C370 0.931 . S
H391 C371 0.930 . S
H392 C379 0.931 . S
H393 C380 0.929 . S
H394 C388 0.929 . S
H395 C389 0.930 . S
Mn396 O401 2.095 1_554 S
Mn396 O411 2.162 . S
Mn396 O412 2.297 . S
Mn396 O420 2.385 . S
Mn396 O421 2.209 . S
Mn396 O422 2.094 1_554 S
Mn397 O402 2.121 . S
Mn397 N404 2.257 . S
Mn397 N413 2.282 . S
Mn397 O421 2.215 1_556 S
Mn397 O423 2.117 . S
C398 O420 1.234 . S
C398 O421 1.283 . S
C399 O411 1.281 . S
C399 O412 1.236 . S
C400 O422 1.240 . S
C400 O423 1.264 . S
O401 Mn396 2.095 1_556 S
O401 C410 1.250 1_556 S
O402 Mn397 2.121 . S
O402 C410 1.257 1_556 S
C403 N404 1.326 1_554 S
C403 C407 1.460 . S
C403 H409 0.929 . S
N404 Mn397 2.257 . S
N404 C403 1.326 1_556 S
N404 C408 1.362 . S
C405 C406 1.258 . S
C405 C408 1.431 1_565 S
C405 C425 1.449 . S
C406 C405 1.258 . S
C406 C407 1.477 1_566 S
C406 H426 0.931 1_556 S
C407 C403 1.460 . S
C407 C406 1.477 1_544 S
C407 H427 0.930 . S
C408 N404 1.362 . S
C408 C405 1.431 1_545 S
C408 C418 1.476 . S
H409 C403 0.929 . S
C410 O401 1.250 1_554 S
C410 O402 1.257 1_554 S
O411 Mn396 2.162 . S
O411 C399 1.281 . S
O412 Mn396 2.297 . S
O412 C399 1.236 . S
N413 Mn397 2.282 . S
N413 C414 1.328 . S
N413 C418 1.318 . S
C414 N413 1.328 . S
C414 C415 1.457 . S
C414 H419 0.929 . S
C415 C414 1.457 . S
C415 C416 1.291 1_545 S
C415 H428 0.931 . S
C416 C415 1.291 1_565 S
C416 C417 1.373 . S
C416 H429 0.929 . S
C417 C416 1.373 . S
C417 C418 1.396 1_565 S
C417 C424 1.403 . S
C418 C408 1.476 . S
C418 N413 1.318 . S
C418 C417 1.396 1_545 S
H419 C414 0.929 . S
O420 Mn396 2.385 . S
O420 C398 1.234 . S
O421 Mn396 2.209 . S
O421 Mn397 2.215 1_554 S
O421 C398 1.283 . S
O422 Mn396 2.094 1_556 S
O422 C400 1.240 . S
O423 Mn397 2.117 . S
O423 C400 1.264 . S
C424 C417 1.403 . S
C424 C425 1.399 . S
C424 H430 0.929 . S
C425 C405 1.449 . S
C425 C424 1.399 . S
C425 H431 0.930 . S
H426 C406 0.931 1_554 S
H427 C407 0.930 . S
H428 C415 0.931 . S
H429 C416 0.929 . S
H430 C424 0.929 . S
H431 C425 0.930 . S
H432 C438 0.930 . S
H433 C441 0.930 . S
H434 C442 0.930 . S
H435 C443 0.930 . S
H436 C446 0.930 . S
H437 C447 0.930 . S
C438 H432 0.930 . S
C438 C439 1.355 . S
C438 C440 1.415 . S
C439 C438 1.355 . S
C439 C441 1.419 . S
C440 C438 1.415 . S
C440 C445 1.425 . S
C440 C447 1.409 . S
C441 H433 0.930 . S
C441 C439 1.419 . S
C441 C442 1.362 . S
C442 H434 0.930 . S
C442 C441 1.362 . S
C442 C445 1.409 . S
C443 H435 0.930 . S
C443 C444 1.355 . S
C443 C445 1.415 . S
C444 C443 1.355 . S
C444 C446 1.419 . S
C445 C440 1.425 . S
C445 C442 1.409 . S
C445 C443 1.415 . S
C446 H436 0.930 . S
C446 C444 1.419 . S
C446 C447 1.362 . S
C447 H437 0.930 . S
C447 C440 1.409 . S
C447 C446 1.362 . S
H448 C454 0.930 . S
H449 C457 0.930 . S
H450 C458 0.930 . S
H451 C459 0.930 . S
H452 C462 0.930 . S
H453 C463 0.930 . S
C454 H448 0.930 . S
C454 C455 1.355 . S
C454 C456 1.415 . S
C455 C454 1.355 . S
C455 C457 1.419 . S
C456 C454 1.415 . S
C456 C461 1.425 . S
C456 C463 1.409 . S
C457 H449 0.930 . S
C457 C455 1.419 . S
C457 C458 1.362 . S
C458 H450 0.930 . S
C458 C457 1.362 . S
C458 C461 1.409 . S
C459 H451 0.930 . S
C459 C460 1.355 . S
C459 C461 1.415 . S
C460 C459 1.355 . S
C460 C462 1.419 . S
C461 C456 1.425 . S
C461 C458 1.409 . S
C461 C459 1.415 . S
C462 H452 0.930 . S
C462 C460 1.419 . S
C462 C463 1.362 . S
C463 H453 0.930 . S
C463 C456 1.409 . S
C463 C462 1.362 . S
H464 C470 0.930 . S
H465 C473 0.930 . S
H466 C474 0.930 . S
H467 C475 0.930 . S
H468 C478 0.930 . S
H469 C479 0.930 . S
C470 H464 0.930 . S
C470 C471 1.355 1_554 S
C470 C472 1.415 . S
C471 C470 1.355 1_556 S
C471 C473 1.419 . S
C472 C470 1.415 . S
C472 C477 1.425 1_554 S
C472 C479 1.409 . S
C473 H465 0.930 . S
C473 C471 1.419 . S
C473 C474 1.362 . S
C474 H466 0.930 . S
C474 C473 1.362 . S
C474 C477 1.409 . S
C475 H467 0.930 . S
C475 C476 1.355 1_556 S
C475 C477 1.415 . S
C476 C475 1.355 1_554 S
C476 C478 1.419 . S
C477 C472 1.425 1_556 S
C477 C474 1.409 . S
C477 C475 1.415 . S
C478 H468 0.930 . S
C478 C476 1.419 . S
C478 C479 1.362 . S
C479 H469 0.930 . S
C479 C472 1.409 . S
C479 C478 1.362 . S
H480 C486 0.930 . S
H481 C489 0.930 . S
H482 C490 0.930 . S
H483 C491 0.930 . S
H484 C494 0.930 . S
H485 C495 0.930 . S
C486 H480 0.930 . S
C486 C487 1.355 . S
C486 C488 1.415 . S
C487 C486 1.355 . S
C487 C489 1.419 . S
C488 C486 1.415 . S
C488 C493 1.425 . S
C488 C495 1.409 . S
C489 H481 0.930 . S
C489 C487 1.419 . S
C489 C490 1.362 . S
C490 H482 0.930 . S
C490 C489 1.362 . S
C490 C493 1.409 . S
C491 H483 0.930 . S
C491 C492 1.355 . S
C491 C493 1.415 . S
C492 C491 1.355 . S
C492 C494 1.419 . S
C493 C488 1.425 . S
C493 C490 1.409 . S
C493 C491 1.415 . S
C494 H484 0.930 . S
C494 C492 1.419 . S
C494 C495 1.362 . S
C495 H485 0.930 . S
C495 C488 1.409 . S
C495 C494 1.362 . S
H496 C502 0.930 . S
H497 C505 0.930 . S
H498 C506 0.930 . S
H499 C507 0.930 . S
H500 C510 0.930 . S
H501 C511 0.930 . S
C502 H496 0.930 . S
C502 C503 1.355 . S
C502 C504 1.415 . S
C503 C502 1.355 . S
C503 C505 1.419 . S
C504 C502 1.415 . S
C504 C509 1.425 . S
C504 C511 1.409 . S
C505 H497 0.930 . S
C505 C503 1.419 . S
C505 C506 1.362 . S
C506 H498 0.930 . S
C506 C505 1.362 . S
C506 C509 1.409 . S
C507 H499 0.930 . S
C507 C508 1.355 . S
C507 C509 1.415 . S
C508 C507 1.355 . S
C508 C510 1.419 . S
C509 C504 1.425 . S
C509 C506 1.409 . S
C509 C507 1.415 . S
C510 H500 0.930 . S
C510 C508 1.419 . S
C510 C511 1.362 . S
C511 H501 0.930 . S
C511 C504 1.409 . S
C511 C510 1.362 . S
H512 C518 0.930 . S
H513 C521 0.930 . S
H514 C522 0.930 . S
H515 C523 0.930 . S
H516 C526 0.930 . S
H517 C527 0.930 . S
C518 H512 0.930 . S
C518 C519 1.355 1_556 S
C518 C520 1.415 . S
C519 C518 1.355 1_554 S
C519 C521 1.419 . S
C520 C518 1.415 . S
C520 C525 1.425 1_556 S
C520 C527 1.409 . S
C521 H513 0.930 . S
C521 C519 1.419 . S
C521 C522 1.362 . S
C522 H514 0.930 . S
C522 C521 1.362 . S
C522 C525 1.409 . S
C523 H515 0.930 . S
C523 C524 1.355 1_554 S
C523 C525 1.415 . S
C524 C523 1.355 1_556 S
C524 C526 1.419 . S
C525 C520 1.425 1_554 S
C525 C522 1.409 . S
C525 C523 1.415 . S
C526 H516 0.930 . S
C526 C524 1.419 . S
C526 C527 1.362 . S
C527 H517 0.930 . S
C527 C520 1.409 . S
C527 C526 1.362 . S
H528 C534 0.930 . S
H529 C537 0.930 . S
H530 C538 0.930 . S
H531 C539 0.930 . S
H532 C542 0.930 . S
H533 C543 0.930 . S
C534 H528 0.930 . S
C534 C535 1.355 . S
C534 C536 1.415 . S
C535 C534 1.355 . S
C535 C537 1.419 . S
C536 C534 1.415 . S
C536 C541 1.425 . S
C536 C543 1.409 . S
C537 H529 0.930 . S
C537 C535 1.419 . S
C537 C538 1.362 . S
C538 H530 0.930 . S
C538 C537 1.362 . S
C538 C541 1.409 . S
C539 H531 0.930 . S
C539 C540 1.355 . S
C539 C541 1.415 . S
C540 C539 1.355 . S
C540 C542 1.419 . S
C541 C536 1.425 . S
C541 C538 1.409 . S
C541 C539 1.415 . S
C542 H532 0.930 . S
C542 C540 1.419 . S
C542 C543 1.362 . S
C543 H533 0.930 . S
C543 C536 1.409 . S
C543 C542 1.362 . S
H544 C550 0.930 . S
H545 C553 0.930 . S
H546 C554 0.930 . S
H547 C555 0.930 . S
H548 C558 0.930 . S
H549 C559 0.930 . S
C550 H544 0.930 . S
C550 C551 1.355 . S
C550 C552 1.415 . S
C551 C550 1.355 . S
C551 C553 1.419 . S
C552 C550 1.415 . S
C552 C557 1.425 1_655 S
C552 C559 1.409 1_655 S
C553 H545 0.930 . S
C553 C551 1.419 . S
C553 C554 1.362 . S
C554 H546 0.930 . S
C554 C553 1.362 . S
C554 C557 1.409 1_655 S
C555 H547 0.930 . S
C555 C556 1.355 . S
C555 C557 1.415 . S
C556 C555 1.355 . S
C556 C558 1.419 . S
C557 C552 1.425 1_455 S
C557 C554 1.409 1_455 S
C557 C555 1.415 . S
C558 H548 0.930 . S
C558 C556 1.419 . S
C558 C559 1.362 . S
C559 H549 0.930 . S
C559 C552 1.409 1_455 S
C559 C558 1.362 . S
H560 C566 0.930 . S
H561 C569 0.930 . S
H562 C570 0.930 . S
H563 C571 0.930 . S
H564 C574 0.930 . S
H565 C575 0.930 . S
C566 H560 0.930 . S
C566 C567 1.355 . S
C566 C568 1.415 . S
C567 C566 1.355 . S
C567 C569 1.419 1_554 S
C568 C566 1.415 . S
C568 C573 1.425 1_544 S
C568 C575 1.409 1_545 S
C569 H561 0.930 . S
C569 C567 1.419 1_556 S
C569 C570 1.362 . S
C570 H562 0.930 . S
C570 C569 1.362 . S
C570 C573 1.409 1_545 S
C571 H563 0.930 . S
C571 C572 1.355 . S
C571 C573 1.415 . S
C572 C571 1.355 . S
C572 C574 1.419 1_556 S
C573 C568 1.425 1_566 S
C573 C570 1.409 1_565 S
C573 C571 1.415 . S
C574 H564 0.930 . S
C574 C572 1.419 1_554 S
C574 C575 1.362 . S
C575 H565 0.930 . S
C575 C568 1.409 1_565 S
C575 C574 1.362 . S
H576 C582 0.930 . S
H577 C585 0.930 . S
H578 C586 0.930 . S
H579 C587 0.930 . S
H580 C590 0.930 . S
H581 C591 0.930 . S
C582 H576 0.930 . S
C582 C583 1.355 . S
C582 C584 1.415 . S
C583 C582 1.355 . S
C583 C585 1.419 . S
C584 C582 1.415 . S
C584 C589 1.425 . S
C584 C591 1.409 . S
C585 H577 0.930 . S
C585 C583 1.419 . S
C585 C586 1.362 . S
C586 H578 0.930 . S
C586 C585 1.362 . S
C586 C589 1.409 . S
C587 H579 0.930 . S
C587 C588 1.355 . S
C587 C589 1.415 . S
C588 C587 1.355 . S
C588 C590 1.419 . S
C589 C584 1.425 . S
C589 C586 1.409 . S
C589 C587 1.415 . S
C590 H580 0.930 . S
C590 C588 1.419 . S
C590 C591 1.362 . S
C591 H581 0.930 . S
C591 C584 1.409 . S
C591 C590 1.362 . S
H592 C598 0.930 . S
H593 C601 0.930 . S
H594 C602 0.930 . S
H595 C603 0.930 . S
H596 C606 0.930 . S
H597 C607 0.930 . S
C598 H592 0.930 . S
C598 C599 1.355 . S
C598 C600 1.415 . S
C599 C598 1.355 . S
C599 C601 1.419 . S
C600 C598 1.415 . S
C600 C605 1.425 1_455 S
C600 C607 1.409 1_455 S
C601 H593 0.930 . S
C601 C599 1.419 . S
C601 C602 1.362 . S
C602 H594 0.930 . S
C602 C601 1.362 . S
C602 C605 1.409 1_455 S
C603 H595 0.930 . S
C603 C604 1.355 . S
C603 C605 1.415 . S
C604 C603 1.355 . S
C604 C606 1.419 . S
C605 C600 1.425 1_655 S
C605 C602 1.409 1_655 S
C605 C603 1.415 . S
C606 H596 0.930 . S
C606 C604 1.419 . S
C606 C607 1.362 . S
C607 H597 0.930 . S
C607 C600 1.409 1_655 S
C607 C606 1.362 . S
H608 C614 0.930 . S
H609 C617 0.930 . S
H610 C618 0.930 . S
H611 C619 0.930 . S
H612 C622 0.930 . S
H613 C623 0.930 . S
C614 H608 0.930 . S
C614 C615 1.355 . S
C614 C616 1.415 . S
C615 C614 1.355 . S
C615 C617 1.419 1_556 S
C616 C614 1.415 . S
C616 C621 1.425 1_546 S
C616 C623 1.409 1_545 S
C617 H609 0.930 . S
C617 C615 1.419 1_554 S
C617 C618 1.362 . S
C618 H610 0.930 . S
C618 C617 1.362 . S
C618 C621 1.409 1_545 S
C619 H611 0.930 . S
C619 C620 1.355 . S
C619 C621 1.415 . S
C620 C619 1.355 . S
C620 C622 1.419 1_554 S
C621 C616 1.425 1_564 S
C621 C618 1.409 1_565 S
C621 C619 1.415 . S
C622 H612 0.930 . S
C622 C620 1.419 1_556 S
C622 C623 1.362 . S
C623 H613 0.930 . S
C623 C616 1.409 1_565 S
C623 C622 1.362 . S
H624 C630 0.930 . S
H625 C633 0.930 . S
H626 C634 0.930 . S
H627 C635 0.930 . S
H628 C638 0.930 . S
H629 C639 0.930 . S
C630 H624 0.930 . S
C630 C631 1.355 1_455 S
C630 C632 1.415 . S
C631 C630 1.355 1_655 S
C631 C633 1.419 . S
C632 C630 1.415 . S
C632 C637 1.425 1_455 S
C632 C639 1.409 . S
C633 H625 0.930 . S
C633 C631 1.419 . S
C633 C634 1.362 . S
C634 H626 0.930 . S
C634 C633 1.362 . S
C634 C637 1.409 . S
C635 H627 0.930 . S
C635 C636 1.355 1_655 S
C635 C637 1.415 . S
C636 C635 1.355 1_455 S
C636 C638 1.419 . S
C637 C632 1.425 1_655 S
C637 C634 1.409 . S
C637 C635 1.415 . S
C638 H628 0.930 . S
C638 C636 1.419 . S
C638 C639 1.362 . S
C639 H629 0.930 . S
C639 C632 1.409 . S
C639 C638 1.362 . S
H640 C646 0.930 . S
H641 C649 0.930 . S
H642 C650 0.930 . S
H643 C651 0.930 . S
H644 C654 0.930 . S
H645 C655 0.930 . S
C646 H640 0.930 . S
C646 C647 1.355 . S
C646 C648 1.415 . S
C647 C646 1.355 . S
C647 C649 1.419 1_545 S
C648 C646 1.415 . S
C648 C653 1.425 1_545 S
C648 C655 1.409 . S
C649 H641 0.930 . S
C649 C647 1.419 1_565 S
C649 C650 1.362 . S
C650 H642 0.930 . S
C650 C649 1.362 . S
C650 C653 1.409 . S
C651 H643 0.930 . S
C651 C652 1.355 . S
C651 C653 1.415 . S
C652 C651 1.355 . S
C652 C654 1.419 1_565 S
C653 C648 1.425 1_565 S
C653 C650 1.409 . S
C653 C651 1.415 . S
C654 H644 0.930 . S
C654 C652 1.419 1_545 S
C654 C655 1.362 . S
C655 H645 0.930 . S
C655 C648 1.409 . S
C655 C654 1.362 . S
H656 C662 0.930 . S
H657 C665 0.930 . S
H658 C666 0.930 . S
H659 C667 0.930 . S
H660 C670 0.930 . S
H661 C671 0.930 . S
C662 H656 0.930 . S
C662 C663 1.355 . S
C662 C664 1.415 . S
C663 C662 1.355 . S
C663 C665 1.419 . S
C664 C662 1.415 . S
C664 C669 1.425 . S
C664 C671 1.409 . S
C665 H657 0.930 . S
C665 C663 1.419 . S
C665 C666 1.362 . S
C666 H658 0.930 . S
C666 C665 1.362 . S
C666 C669 1.409 . S
C667 H659 0.930 . S
C667 C668 1.355 . S
C667 C669 1.415 . S
C668 C667 1.355 . S
C668 C670 1.419 . S
C669 C664 1.425 . S
C669 C666 1.409 . S
C669 C667 1.415 . S
C670 H660 0.930 . S
C670 C668 1.419 . S
C670 C671 1.362 . S
C671 H661 0.930 . S
C671 C664 1.409 . S
C671 C670 1.362 . S
H672 C678 0.930 . S
H673 C681 0.930 . S
H674 C682 0.930 . S
H675 C683 0.930 . S
H676 C686 0.930 . S
H677 C687 0.930 . S
C678 H672 0.930 . S
C678 C679 1.355 1_655 S
C678 C680 1.415 . S
C679 C678 1.355 1_455 S
C679 C681 1.419 . S
C680 C678 1.415 . S
C680 C685 1.425 1_655 S
C680 C687 1.409 . S
C681 H673 0.930 . S
C681 C679 1.419 . S
C681 C682 1.362 . S
C682 H674 0.930 . S
C682 C681 1.362 . S
C682 C685 1.409 . S
C683 H675 0.930 . S
C683 C684 1.355 1_455 S
C683 C685 1.415 . S
C684 C683 1.355 1_655 S
C684 C686 1.419 . S
C685 C680 1.425 1_455 S
C685 C682 1.409 . S
C685 C683 1.415 . S
C686 H676 0.930 . S
C686 C684 1.419 . S
C686 C687 1.362 . S
C687 H677 0.930 . S
C687 C680 1.409 . S
C687 C686 1.362 . S
H688 C694 0.930 . S
H689 C697 0.930 . S
H690 C698 0.930 . S
H691 C699 0.930 . S
H692 C702 0.930 . S
H693 C703 0.930 . S
C694 H688 0.930 . S
C694 C695 1.355 . S
C694 C696 1.415 . S
C695 C694 1.355 . S
C695 C697 1.419 1_545 S
C696 C694 1.415 . S
C696 C701 1.425 1_545 S
C696 C703 1.409 . S
C697 H689 0.930 . S
C697 C695 1.419 1_565 S
C697 C698 1.362 . S
C698 H690 0.930 . S
C698 C697 1.362 . S
C698 C701 1.409 . S
C699 H691 0.930 . S
C699 C700 1.355 . S
C699 C701 1.415 . S
C700 C699 1.355 . S
C700 C702 1.419 1_565 S
C701 C696 1.425 1_565 S
C701 C698 1.409 . S
C701 C699 1.415 . S
C702 H692 0.930 . S
C702 C700 1.419 1_545 S
C702 C703 1.362 . S
C703 H693 0.930 . S
C703 C696 1.409 . S
C703 C702 1.362 . S
H704 C710 0.930 . S
H705 C713 0.930 . S
H706 C714 0.930 . S
H707 C715 0.930 . S
H708 C718 0.930 . S
H709 C719 0.930 . S
C710 H704 0.930 . S
C710 C711 1.355 . S
C710 C712 1.415 . S
C711 C710 1.355 . S
C711 C713 1.419 . S
C712 C710 1.415 . S
C712 C717 1.425 . S
C712 C719 1.409 . S
C713 H705 0.930 . S
C713 C711 1.419 . S
C713 C714 1.362 . S
C714 H706 0.930 . S
C714 C713 1.362 . S
C714 C717 1.409 . S
C715 H707 0.930 . S
C715 C716 1.355 . S
C715 C717 1.415 . S
C716 C715 1.355 . S
C716 C718 1.419 . S
C717 C712 1.425 . S
C717 C714 1.409 . S
C717 C715 1.415 . S
C718 H708 0.930 . S
C718 C716 1.419 . S
C718 C719 1.362 . S
C719 H709 0.930 . S
C719 C712 1.409 . S
C719 C718 1.362 . S
H720 C726 0.930 . S
H721 C729 0.930 . S
H722 C730 0.930 . S
H723 C731 0.930 . S
H724 C734 0.930 . S
H725 C735 0.930 . S
C726 H720 0.930 . S
C726 C727 1.355 . S
C726 C728 1.415 . S
C727 C726 1.355 . S
C727 C729 1.419 . S
C728 C726 1.415 . S
C728 C733 1.425 . S
C728 C735 1.409 . S
C729 H721 0.930 . S
C729 C727 1.419 . S
C729 C730 1.362 . S
C730 H722 0.930 . S
C730 C729 1.362 . S
C730 C733 1.409 . S
C731 H723 0.930 . S
C731 C732 1.355 . S
C731 C733 1.415 . S
C732 C731 1.355 . S
C732 C734 1.419 . S
C733 C728 1.425 . S
C733 C730 1.409 . S
C733 C731 1.415 . S
C734 H724 0.930 . S
C734 C732 1.419 . S
C734 C735 1.362 . S
C735 H725 0.930 . S
C735 C728 1.409 . S
C735 C734 1.362 . S
H736 C742 0.930 . S
H737 C745 0.930 . S
H738 C746 0.930 . S
H739 C747 0.930 . S
H740 C750 0.930 . S
H741 C751 0.930 . S
C742 H736 0.930 . S
C742 C743 1.355 . S
C742 C744 1.415 . S
C743 C742 1.355 . S
C743 C745 1.419 . S
C744 C742 1.415 . S
C744 C749 1.425 . S
C744 C751 1.409 . S
C745 H737 0.930 . S
C745 C743 1.419 . S
C745 C746 1.362 . S
C746 H738 0.930 . S
C746 C745 1.362 . S
C746 C749 1.409 . S
C747 H739 0.930 . S
C747 C748 1.355 . S
C747 C749 1.415 . S
C748 C747 1.355 . S
C748 C750 1.419 . S
C749 C744 1.425 . S
C749 C746 1.409 . S
C749 C747 1.415 . S
C750 H740 0.930 . S
C750 C748 1.419 . S
C750 C751 1.362 . S
C751 H741 0.930 . S
C751 C744 1.409 . S
C751 C750 1.362 . S
H752 C758 0.930 . S
H753 C761 0.930 . S
H754 C762 0.930 . S
H755 C763 0.930 . S
H756 C766 0.930 . S
H757 C767 0.930 . S
C758 H752 0.930 . S
C758 C759 1.355 . S
C758 C760 1.415 . S
C759 C758 1.355 . S
C759 C761 1.419 . S
C760 C758 1.415 . S
C760 C765 1.425 . S
C760 C767 1.409 . S
C761 H753 0.930 . S
C761 C759 1.419 . S
C761 C762 1.362 . S
C762 H754 0.930 . S
C762 C761 1.362 . S
C762 C765 1.409 . S
C763 H755 0.930 . S
C763 C764 1.355 . S
C763 C765 1.415 . S
C764 C763 1.355 . S
C764 C766 1.419 . S
C765 C760 1.425 . S
C765 C762 1.409 . S
C765 C763 1.415 . S
C766 H756 0.930 . S
C766 C764 1.419 . S
C766 C767 1.362 . S
C767 H757 0.930 . S
C767 C760 1.409 . S
C767 C766 1.362 . S
H768 C774 0.930 . S
H769 C777 0.930 . S
H770 C778 0.930 . S
H771 C779 0.930 . S
H772 C782 0.930 . S
H773 C783 0.930 . S
C774 H768 0.930 . S
C774 C775 1.355 . S
C774 C776 1.415 . S
C775 C774 1.355 . S
C775 C777 1.419 . S
C776 C774 1.415 . S
C776 C781 1.425 . S
C776 C783 1.409 . S
C777 H769 0.930 . S
C777 C775 1.419 . S
C777 C778 1.362 . S
C778 H770 0.930 . S
C778 C777 1.362 . S
C778 C781 1.409 . S
C779 H771 0.930 . S
C779 C780 1.355 . S
C779 C781 1.415 . S
C780 C779 1.355 . S
C780 C782 1.419 . S
C781 C776 1.425 . S
C781 C778 1.409 . S
C781 C779 1.415 . S
C782 H772 0.930 . S
C782 C780 1.419 . S
C782 C783 1.362 . S
C783 H773 0.930 . S
C783 C776 1.409 . S
C783 C782 1.362 . S
H784 C790 0.930 . S
H785 C793 0.930 . S
H786 C794 0.930 . S
H787 C795 0.930 . S
H788 C798 0.930 . S
H789 C799 0.930 . S
C790 H784 0.930 . S
C790 C791 1.355 . S
C790 C792 1.415 . S
C791 C790 1.355 . S
C791 C793 1.419 . S
C792 C790 1.415 . S
C792 C797 1.425 . S
C792 C799 1.409 . S
C793 H785 0.930 . S
C793 C791 1.419 . S
C793 C794 1.362 . S
C794 H786 0.930 . S
C794 C793 1.362 . S
C794 C797 1.409 . S
C795 H787 0.930 . S
C795 C796 1.355 . S
C795 C797 1.415 . S
C796 C795 1.355 . S
C796 C798 1.419 . S
C797 C792 1.425 . S
C797 C794 1.409 . S
C797 C795 1.415 . S
C798 H788 0.930 . S
C798 C796 1.419 . S
C798 C799 1.362 . S
C799 H789 0.930 . S
C799 C792 1.409 . S
C799 C798 1.362 . S
H800 C806 0.930 . S
H801 C809 0.930 . S
H802 C810 0.930 . S
H803 C811 0.930 . S
H804 C814 0.930 . S
H805 C815 0.930 . S
C806 H800 0.930 . S
C806 C807 1.355 . S
C806 C808 1.415 . S
C807 C806 1.355 . S
C807 C809 1.419 . S
C808 C806 1.415 . S
C808 C813 1.425 . S
C808 C815 1.409 . S
C809 H801 0.930 . S
C809 C807 1.419 . S
C809 C810 1.362 . S
C810 H802 0.930 . S
C810 C809 1.362 . S
C810 C813 1.409 . S
C811 H803 0.930 . S
C811 C812 1.355 . S
C811 C813 1.415 . S
C812 C811 1.355 . S
C812 C814 1.419 . S
C813 C808 1.425 . S
C813 C810 1.409 . S
C813 C811 1.415 . S
C814 H804 0.930 . S
C814 C812 1.419 . S
C814 C815 1.362 . S
C815 H805 0.930 . S
C815 C808 1.409 . S
C815 C814 1.362 . S
C439 C14 1.414 . S
C444 C230 1.472 . S
C455 C50 1.393 . S
C460 C266 1.460 . S
C471 C86 1.395 . S
C476 C302 1.311 . S
C487 C338 1.458 . S
C492 C122 1.445 . S
C503 C158 1.368 . S
C508 C374 1.422 . S
C519 C410 1.378 . S
C524 C194 1.406 . S
C535 C2 1.074 . S
C540 C326 1.063 . S
C551 C38 1.078 . S
C556 C362 1.084 . S
C567 C398 1.002 . S
C572 C74 1.003 . S
C583 C218 1.084 . S
C588 C110 1.080 . S
C599 C146 1.077 . S
C604 C254 1.066 . S
C615 C182 1.023 . S
C620 C290 1.013 . S
C631 C399 1.729 . S
C636 C3 1.721 . S
C647 C39 1.896 . S
C652 C219 1.892 . S
C663 C75 1.768 . S
C668 C255 1.763 . S
C679 C291 1.733 . S
C684 C111 1.729 . S
C695 C327 1.884 . S
C700 C147 1.879 . S
C711 C183 1.759 . S
C716 C363 1.758 . S
C727 C4 1.038 . S
C732 C364 1.045 . S
C743 C400 1.051 . S
C748 C40 1.054 . S
C759 C220 1.065 . S
C764 C76 1.070 . S
C775 C112 1.068 . S
C780 C256 1.062 . S
C791 C292 1.173 . S
C796 C148 1.174 . S
C807 C328 1.197 . S
C812 C184 1.194 . S
