# Generated by pormake.
# Topology ull, (4)-cn, num edge types: 1
# Building blocks:
#     Node 0, Type 0, BuildingBlock: ESEHIV_clean_sbu_0, # of connection points: 4
#     Node 1, Type 0, BuildingBlock: ESEHIV_clean_sbu_0, # of connection points: 4
#     Node 2, Type 0, BuildingBlock: ESEHIV_clean_sbu_0, # of connection points: 4
#     Node 3, Type 0, BuildingBlock: ESEHIV_clean_sbu_0, # of connection points: 4
#     Node 4, Type 0, BuildingBlock: ESEHIV_clean_sbu_0, # of connection points: 4
#     Node 5, Type 0, BuildingBlock: ESEHIV_clean_sbu_0, # of connection points: 4
#     Node 6, Type 0, BuildingBlock: ESEHIV_clean_sbu_0, # of connection points: 4
#     Node 7, Type 0, BuildingBlock: ESEHIV_clean_sbu_0, # of connection points: 4
#     Node 8, Type 0, BuildingBlock: ESEHIV_clean_sbu_0, # of connection points: 4
#     Node 9, Type 0, BuildingBlock: ESEHIV_clean_sbu_0, # of connection points: 4
#     Node 10, Type 0, BuildingBlock: ESEHIV_clean_sbu_0, # of connection points: 4
#     Node 11, Type 0, BuildingBlock: ESEHIV_clean_sbu_0, # of connection points: 4
#     Node 12, Type 0, BuildingBlock: ESEHIV_clean_sbu_0, # of connection points: 4
#     Node 13, Type 0, BuildingBlock: ESEHIV_clean_sbu_0, # of connection points: 4
#     Node 14, Type 0, BuildingBlock: ESEHIV_clean_sbu_0, # of connection points: 4
#     Node 15, Type 0, BuildingBlock: ESEHIV_clean_sbu_0, # of connection points: 4
#     Node 16, Type 0, BuildingBlock: ESEHIV_clean_sbu_0, # of connection points: 4
#     Node 17, Type 0, BuildingBlock: ESEHIV_clean_sbu_0, # of connection points: 4
#     Node 18, Type 0, BuildingBlock: ESEHIV_clean_sbu_0, # of connection points: 4
#     Node 19, Type 0, BuildingBlock: ESEHIV_clean_sbu_0, # of connection points: 4
#     Node 20, Type 0, BuildingBlock: ESEHIV_clean_sbu_0, # of connection points: 4
#     Node 21, Type 0, BuildingBlock: ESEHIV_clean_sbu_0, # of connection points: 4
#     Node 22, Type 0, BuildingBlock: ESEHIV_clean_sbu_0, # of connection points: 4
#     Node 23, Type 0, BuildingBlock: ESEHIV_clean_sbu_0, # of connection points: 4
#     Node 24, Type 0, BuildingBlock: ESEHIV_clean_sbu_0, # of connection points: 4
#     Node 25, Type 0, BuildingBlock: ESEHIV_clean_sbu_0, # of connection points: 4
#     Node 26, Type 0, BuildingBlock: ESEHIV_clean_sbu_0, # of connection points: 4
#     Node 27, Type 0, BuildingBlock: ESEHIV_clean_sbu_0, # of connection points: 4
#     Node 28, Type 0, BuildingBlock: ESEHIV_clean_sbu_0, # of connection points: 4
#     Node 29, Type 0, BuildingBlock: ESEHIV_clean_sbu_0, # of connection points: 4
#     Node 30, Type 0, BuildingBlock: ESEHIV_clean_sbu_0, # of connection points: 4
#     Node 31, Type 0, BuildingBlock: ESEHIV_clean_sbu_0, # of connection points: 4
#     Node 32, Type 0, BuildingBlock: ESEHIV_clean_sbu_0, # of connection points: 4
#     Node 33, Type 0, BuildingBlock: ESEHIV_clean_sbu_0, # of connection points: 4
#     Node 34, Type 0, BuildingBlock: ESEHIV_clean_sbu_0, # of connection points: 4
#     Node 35, Type 0, BuildingBlock: ESEHIV_clean_sbu_0, # of connection points: 4
#     Node 36, Type 0, BuildingBlock: ESEHIV_clean_sbu_0, # of connection points: 4
#     Node 37, Type 0, BuildingBlock: ESEHIV_clean_sbu_0, # of connection points: 4
#     Node 38, Type 0, BuildingBlock: ESEHIV_clean_sbu_0, # of connection points: 4
#     Node 39, Type 0, BuildingBlock: ESEHIV_clean_sbu_0, # of connection points: 4
#     Node 40, Type 0, BuildingBlock: ESEHIV_clean_sbu_0, # of connection points: 4
#     Node 41, Type 0, BuildingBlock: ESEHIV_clean_sbu_0, # of connection points: 4
#     Node 42, Type 0, BuildingBlock: ESEHIV_clean_sbu_0, # of connection points: 4
#     Node 43, Type 0, BuildingBlock: ESEHIV_clean_sbu_0, # of connection points: 4
#     Node 44, Type 0, BuildingBlock: ESEHIV_clean_sbu_0, # of connection points: 4
#     Node 45, Type 0, BuildingBlock: ESEHIV_clean_sbu_0, # of connection points: 4
#     Node 46, Type 0, BuildingBlock: ESEHIV_clean_sbu_0, # of connection points: 4
#     Node 47, Type 0, BuildingBlock: ESEHIV_clean_sbu_0, # of connection points: 4
#     Edge 48, Type (0, 0), None
#     Edge 49, Type (0, 0), None
#     Edge 50, Type (0, 0), None
#     Edge 51, Type (0, 0), None
#     Edge 52, Type (0, 0), None
#     Edge 53, Type (0, 0), None
#     Edge 54, Type (0, 0), None
#     Edge 55, Type (0, 0), None
#     Edge 56, Type (0, 0), None
#     Edge 57, Type (0, 0), None
#     Edge 58, Type (0, 0), None
#     Edge 59, Type (0, 0), None
#     Edge 60, Type (0, 0), None
#     Edge 61, Type (0, 0), None
#     Edge 62, Type (0, 0), None
#     Edge 63, Type (0, 0), None
#     Edge 64, Type (0, 0), None
#     Edge 65, Type (0, 0), None
#     Edge 66, Type (0, 0), None
#     Edge 67, Type (0, 0), None
#     Edge 68, Type (0, 0), None
#     Edge 69, Type (0, 0), None
#     Edge 70, Type (0, 0), None
#     Edge 71, Type (0, 0), None
#     Edge 72, Type (0, 0), None
#     Edge 73, Type (0, 0), None
#     Edge 74, Type (0, 0), None
#     Edge 75, Type (0, 0), None
#     Edge 76, Type (0, 0), None
#     Edge 77, Type (0, 0), None
#     Edge 78, Type (0, 0), None
#     Edge 79, Type (0, 0), None
#     Edge 80, Type (0, 0), None
#     Edge 81, Type (0, 0), None
#     Edge 82, Type (0, 0), None
#     Edge 83, Type (0, 0), None
#     Edge 84, Type (0, 0), None
#     Edge 85, Type (0, 0), None
#     Edge 86, Type (0, 0), None
#     Edge 87, Type (0, 0), None
#     Edge 88, Type (0, 0), None
#     Edge 89, Type (0, 0), None
#     Edge 90, Type (0, 0), None
#     Edge 91, Type (0, 0), None
#     Edge 92, Type (0, 0), None
#     Edge 93, Type (0, 0), None
#     Edge 94, Type (0, 0), None
#     Edge 95, Type (0, 0), None
#     Edge 96, Type (0, 0), None
#     Edge 97, Type (0, 0), None
#     Edge 98, Type (0, 0), None
#     Edge 99, Type (0, 0), None
#     Edge 100, Type (0, 0), None
#     Edge 101, Type (0, 0), None
#     Edge 102, Type (0, 0), None
#     Edge 103, Type (0, 0), None
#     Edge 104, Type (0, 0), None
#     Edge 105, Type (0, 0), None
#     Edge 106, Type (0, 0), None
#     Edge 107, Type (0, 0), None
#     Edge 108, Type (0, 0), None
#     Edge 109, Type (0, 0), None
#     Edge 110, Type (0, 0), None
#     Edge 111, Type (0, 0), None
#     Edge 112, Type (0, 0), None
#     Edge 113, Type (0, 0), None
#     Edge 114, Type (0, 0), None
#     Edge 115, Type (0, 0), None
#     Edge 116, Type (0, 0), None
#     Edge 117, Type (0, 0), None
#     Edge 118, Type (0, 0), None
#     Edge 119, Type (0, 0), None
#     Edge 120, Type (0, 0), None
#     Edge 121, Type (0, 0), None
#     Edge 122, Type (0, 0), None
#     Edge 123, Type (0, 0), None
#     Edge 124, Type (0, 0), None
#     Edge 125, Type (0, 0), None
#     Edge 126, Type (0, 0), None
#     Edge 127, Type (0, 0), None
#     Edge 128, Type (0, 0), None
#     Edge 129, Type (0, 0), None
#     Edge 130, Type (0, 0), None
#     Edge 131, Type (0, 0), None
#     Edge 132, Type (0, 0), None
#     Edge 133, Type (0, 0), None
#     Edge 134, Type (0, 0), None
#     Edge 135, Type (0, 0), None
#     Edge 136, Type (0, 0), None
#     Edge 137, Type (0, 0), None
#     Edge 138, Type (0, 0), None
#     Edge 139, Type (0, 0), None
#     Edge 140, Type (0, 0), None
#     Edge 141, Type (0, 0), None
#     Edge 142, Type (0, 0), None
#     Edge 143, Type (0, 0), None
# Relax obj value: 0.149
# Max RMSD: 0.303
# Mean RMSD: 0.271
data_MOF--net-ull--node1-ESEHIV_clean_sbu_0--edge1-none
_symmetry_space_group_name_H-M    P1
_symmetry_Int_Tables_number       1
_symmetry_cell_setting            triclinic
loop_
_symmetry_equiv_pos_as_xyz
'x, y, z'
_cell_length_a     29.992396
_cell_length_b     32.880556
_cell_length_c     33.2572
_cell_angle_alpha  89.93572
_cell_angle_beta   90.222085
_cell_angle_gamma 90.329958
loop_
_atom_site_label
_atom_site_type_symbol
_atom_site_fract_x
_atom_site_fract_y
_atom_site_fract_z
_atom_type_partial_charge
Cu0 Cu 1.05411 0.39586 0.20024 0.0
N1 N 0.1021 0.37514 0.17139 0.0
N2 N 0.14027 0.34818 0.12087 0.0
C3 C 0.09959 0.35758 0.13495 0.0
C4 C 0.16971 0.36019 0.14921 0.0
C5 C 0.14591 0.37674 0.18058 0.0
O6 O 1.0041 0.39878 0.16223 0.0
C7 C 0.09971 0.44308 0.25697 0.0
O8 O 0.10869 0.40638 0.27026 0.0
H9 H 0.06884 0.35351 0.11836 0.0
H10 H 0.15976 0.39005 0.2076 0.0
N11 N 1.03889 0.35877 0.23995 0.0
N12 N 1.04377 0.30533 0.28042 0.0
C13 C 0.0614 0.32472 0.24856 0.0
C14 C 1.00571 0.3609 0.26703 0.0
C15 C 1.0087 0.32772 0.29236 0.0
C16 C 0.9834 0.36599 0.15263 0.0
O17 O 0.99384 0.33174 0.17056 0.0
H18 H 0.09094 0.31531 0.23263 0.0
H19 H 0.98188 0.3854 0.26881 0.0
O20 O 0.07419 0.44677 0.22624 0.0
H21 H 0.20561 0.35817 0.14698 0.0
H22 H 0.98777 0.32139 0.31806 0.0
Cu23 Cu 0.69474 0.0509 0.20742 0.0
N24 N 0.69043 1.00051 0.18122 0.0
N25 N 0.69198 0.95221 0.13402 0.0
C26 C 0.69051 0.9926 0.14141 0.0
C27 C 0.69189 0.93402 0.17038 0.0
C28 C 0.69036 0.96385 0.19937 0.0
O29 O 0.691 0.09674 0.16958 0.0
C30 C 0.7768 1.02574 0.24754 0.0
O31 O 0.77715 0.99379 0.22399 0.0
H32 H 0.69066 1.01584 0.11837 0.0
H33 H 0.69081 0.95921 0.23156 0.0
N34 N 0.64612 0.05744 0.24191 0.0
N35 N 0.5971 0.09185 0.2791 0.0
C36 C 0.62397 0.09257 0.24659 0.0
C37 C 0.63244 0.03334 0.27231 0.0
C38 C 0.6021 0.05455 0.29538 0.0
C39 C 0.71177 0.10397 0.13687 0.0
O40 O 0.74327 0.07919 0.12494 0.0
H41 H 0.63011 0.11924 0.22824 0.0
H42 H 0.64596 1.00366 0.27899 0.0
O43 O 0.74744 0.05332 0.24268 0.0
H44 H 0.6929 0.90152 0.17565 0.0
H45 H 0.5877 0.04444 0.32349 0.0
Cu46 Cu 0.07006 0.65997 0.20423 0.0
N47 N 1.01901 0.67634 0.17658 0.0
N48 N 0.97379 0.70504 0.13182 0.0
C49 C 1.01575 0.70359 0.14642 0.0
C50 C 0.94977 0.67801 0.15325 0.0
C51 C 0.97781 0.66042 0.181 0.0
O52 O 0.11809 0.65682 0.16459 0.0
C53 C 1.02839 0.61478 0.26416 0.0
O54 O 1.02035 0.65201 0.27632 0.0
H55 H 1.04369 0.72057 0.1344 0.0
H56 H 0.96896 0.63673 0.2021 0.0
N57 N 0.08486 0.69981 0.2416 0.0
N58 N 0.07751 0.75483 0.27954 0.0
C59 C 0.06116 0.73358 0.24821 0.0
C60 C 0.11762 0.6998 0.26944 0.0
C61 C 0.11309 0.73397 0.29319 0.0
C62 C 0.13964 0.68911 0.15507 0.0
O63 O 0.13141 0.72331 0.17385 0.0
H64 H 1.03133 0.74117 0.23154 0.0
H65 H 0.14192 0.67588 0.27309 0.0
O66 O 1.05296 0.60982 0.23317 0.0
H67 H 0.91485 0.6709 0.14861 0.0
H68 H 0.13309 0.74182 0.31922 0.0
Cu69 Cu 0.39551 1.02 0.19992 0.0
N70 N 0.39215 0.06944 0.17111 0.0
N71 N 0.3992 0.11985 0.126 0.0
C72 C 0.41753 0.08546 0.14137 0.0
C73 C 0.36136 0.12564 0.14681 0.0
C74 C 0.35706 0.09466 0.17421 0.0
O75 O 0.40023 0.9725 0.16435 0.0
C76 C 0.33602 0.04243 0.26206 0.0
O77 O 0.36634 0.0705 0.26907 0.0
H78 H 0.44774 0.07153 0.13037 0.0
H79 H 0.32908 0.09011 0.19408 0.0
N80 N 0.44493 1.01477 0.23452 0.0
N81 N 0.49175 0.97915 0.27362 0.0
C82 C 0.46256 0.97808 0.24263 0.0
C83 C 0.4641 0.04037 0.26122 0.0
C84 C 0.493 1.01836 0.28554 0.0
C85 C 0.39395 0.96921 0.12652 0.0
O86 O 0.37835 1.00026 0.10605 0.0
H87 H 0.45209 0.95051 0.22742 0.0
H88 H 0.45589 0.07219 0.26438 0.0
O89 O 0.34198 1.01691 0.23363 0.0
H90 H 0.33785 0.15006 0.14193 0.0
H91 H 0.51129 1.02985 0.31122 0.0
Cu92 Cu 1.04003 0.67319 0.85596 0.0
N93 N 0.09163 0.68885 0.88294 0.0
N94 N 0.13725 0.71336 0.9298 0.0
C95 C 0.09466 0.71047 0.91716 0.0
C96 C 0.16204 0.69304 0.90288 0.0
C97 C 0.13366 0.67808 0.87373 0.0
O98 O 0.99276 0.6697 0.89606 0.0
C99 C 0.07598 0.62463 0.79504 0.0
O100 O 0.08124 0.6604 0.77806 0.0
H101 H 0.06624 0.72214 0.93332 0.0
H102 H 0.14287 0.65962 0.84823 0.0
N103 N 1.02676 0.71342 0.81857 0.0
N104 N 1.03891 0.76527 0.77712 0.0
C105 C 1.05463 0.74379 0.80849 0.0
C106 C 0.9919 0.71601 0.79306 0.0
C107 C 0.99937 0.74822 0.76717 0.0
C108 C 0.97243 0.70182 0.90708 0.0
O109 O 0.98118 0.7366 0.88929 0.0
H110 H 0.08689 0.74837 0.82243 0.0
H111 H 0.96418 0.69484 0.79217 0.0
O112 O 1.05507 0.6223 0.82839 0.0
H113 H 0.19772 0.68863 0.90466 0.0
H114 H 0.97857 0.75698 0.742 0.0
Cu115 Cu 0.40389 0.05028 0.85227 0.0
N116 N 0.39648 1.00255 0.88267 0.0
N117 N 0.40262 0.95115 0.92646 0.0
C118 C 0.4234 0.98351 0.90932 0.0
C119 C 0.36152 0.94984 0.91002 0.0
C120 C 0.35781 0.98154 0.88339 0.0
O121 O 0.40754 0.09875 0.8866 0.0
C122 C 0.34527 1.02486 0.79028 0.0
O123 O 0.37272 0.99398 0.78836 0.0
H124 H 0.45688 0.99366 0.91661 0.0
H125 H 0.32829 0.98937 0.8664 0.0
N126 N 0.45573 0.0518 0.82071 0.0
N127 N 0.50673 0.08319 0.78229 0.0
C128 C 0.47699 0.08695 0.81245 0.0
C129 C 0.47316 1.02436 0.79519 0.0
C130 C 0.50463 0.04373 0.77129 0.0
C131 C 0.39879 0.10194 0.924 0.0
O132 O 0.38231 0.07055 0.94352 0.0
H133 H 0.46819 0.11558 0.82633 0.0
H134 H 0.46169 0.99328 0.79211 0.0
O135 O 0.35267 0.05326 0.81565 0.0
H136 H 0.33561 0.92802 0.91739 0.0
H137 H 0.52167 1.03053 0.74592 0.0
Cu138 Cu 0.06166 0.3976 0.8428 0.0
N139 N 1.01629 0.37094 0.8709 0.0
N140 N 0.9815 0.33759 0.92004 0.0
C141 C 1.02055 0.35321 0.90719 0.0
C142 C 0.95132 0.34575 0.89108 0.0
C143 C 0.97305 0.36618 0.86055 0.0
O144 O 0.11208 0.40253 0.88017 0.0
C145 C 1.01208 0.44606 0.79011 0.0
O146 O 1.0039 0.40985 0.77502 0.0
H147 H 1.05114 0.35323 0.92448 0.0
H148 H 0.95805 0.37751 0.83319 0.0
N149 N 0.0785 0.36458 0.80034 0.0
N150 N 0.08141 0.3105 0.7609 0.0
C151 C 0.06907 0.32476 0.79693 0.0
C152 C 0.09763 0.37566 0.76534 0.0
C153 C 0.09905 0.34208 0.7405 0.0
C154 C 0.13557 0.37128 0.8887 0.0
O155 O 0.12776 0.33679 0.8701 0.0
H156 H 1.05173 0.30712 0.81955 0.0
H157 H 0.10801 0.40631 0.75787 0.0
O158 O 1.03796 0.4489 0.82066 0.0
H159 H 0.91615 0.33837 0.89231 0.0
H160 H 0.11115 0.34103 0.7099 0.0
Cu161 Cu 0.7103 1.01783 0.85493 0.0
N162 N 0.709 0.0685 0.88129 0.0
N163 N 0.70654 0.11641 0.92912 0.0
C164 C 0.69414 0.07818 0.91843 0.0
C165 C 0.72959 0.13128 0.89763 0.0
C166 C 0.73099 0.10188 0.8684 0.0
O167 O 0.70154 0.97273 0.89291 0.0
C168 C 0.77332 0.03618 0.7944 0.0
O169 O 0.74032 0.05791 0.78008 0.0
H170 H 0.67644 0.05713 0.93779 0.0
H171 H 0.74863 0.10437 0.84031 0.0
N172 N 0.66411 1.01093 0.81692 0.0
N173 N 0.61911 0.9758 0.77538 0.0
C174 C 0.64797 0.97407 0.80663 0.0
C175 C 0.64429 0.03724 0.79145 0.0
C176 C 0.61679 1.01553 0.76545 0.0
C177 C 0.71905 0.96564 0.92723 0.0
O178 O 0.74992 0.9903 0.94145 0.0
H179 H 0.65871 0.94616 0.82094 0.0
H180 H 0.65086 0.06962 0.79056 0.0
O181 O 0.76744 1.01504 0.82625 0.0
H182 H 0.74488 0.16116 0.89603 0.0
H183 H 0.59841 1.02781 0.74023 0.0
Cu184 Cu 0.24697 0.0596 0.36021 0.0
N185 N 0.2191 1.00924 0.35862 0.0
N186 N 0.1668 0.96287 0.37001 0.0
C187 C 0.17672 1.00274 0.36968 0.0
C188 C 0.20405 0.94316 0.35911 0.0
C189 C 0.23671 0.97212 0.35244 0.0
O190 O 0.19988 0.10117 0.35658 0.0
C191 C 0.29581 0.04073 0.28739 0.0
O192 O 0.26355 1.0151 0.2786 0.0
H193 H 0.15431 1.02661 0.37893 0.0
H194 H 0.2713 0.96649 0.34536 0.0
N195 N 0.27378 0.06365 0.41035 0.0
N196 N 0.30342 0.09444 0.46352 0.0
C197 C 0.29919 0.09479 0.42319 0.0
C198 C 0.26248 0.04244 0.44351 0.0
C199 C 0.28061 0.06161 0.47661 0.0
C200 C 0.18691 0.12419 0.38532 0.0
O201 O 0.20773 0.12391 0.42004 0.0
H202 H 0.30989 0.11945 0.40387 0.0
H203 H 0.23943 1.01702 0.44391 0.0
O204 O 0.29316 0.0632 0.31862 0.0
H205 H 0.20799 0.91047 0.35845 0.0
H206 H 0.2746 0.05388 0.50772 0.0
Cu207 Cu 0.07767 0.20285 0.39924 0.0
N208 N 1.03497 0.16193 0.40009 0.0
N209 N 0.9831 0.11751 0.38123 0.0
C210 C 1.00899 0.14895 0.36964 0.0
C211 C 0.99296 0.11034 0.42016 0.0
C212 C 1.02519 0.13796 0.43173 0.0
O213 O 0.13511 0.17548 0.40648 0.0
C214 C 1.01941 0.25296 0.44397 0.0
O215 O 0.98915 0.23023 0.42608 0.0
H216 H 1.00969 0.16183 0.3397 0.0
H217 H 1.04079 0.14029 0.46102 0.0
N218 N 0.07833 0.22787 0.34915 0.0
N219 N 0.06236 0.27161 0.30033 0.0
C220 C 1.0491 0.25562 0.33563 0.0
C221 C 0.11106 0.22662 0.32153 0.0
C222 C 0.10114 0.25342 0.29114 0.0
C223 C 0.14557 0.14784 0.38113 0.0
O224 O 0.11771 0.1387 0.3519 0.0
H225 H 1.02022 0.26534 0.35236 0.0
H226 H 0.14142 0.20933 0.32424 0.0
O227 O 0.06078 0.24515 0.43839 0.0
H228 H 0.97831 0.08684 0.43877 0.0
H229 H 0.12204 0.26048 0.26562 0.0
Cu230 Cu 0.87172 1.00002 0.33818 0.0
N231 N 0.90544 0.04741 0.33722 0.0
N232 N 0.95287 0.09543 0.35709 0.0
C233 C 0.93089 0.06129 0.36759 0.0
C234 C 0.9413 0.1034 0.3187 0.0
C235 C 0.91192 0.07342 0.30642 0.0
O236 O 0.91442 0.95509 0.34093 0.0
C237 C 0.80767 1.02787 0.28212 0.0
O238 O 0.80613 0.0592 0.30652 0.0
H239 H 0.93367 0.04619 0.3964 0.0
H240 H 0.89687 0.07043 0.27696 0.0
N241 N 0.83652 0.99993 0.38409 0.0
N242 N 0.80031 0.97483 0.43677 0.0
C243 C 0.81645 0.96705 0.39988 0.0
C244 C 0.83185 1.02978 0.41151 0.0
C245 C 0.80947 1.01425 0.44436 0.0
C246 C 0.92664 0.93601 0.37265 0.0
O247 O 0.90842 0.94415 0.40748 0.0
H248 H 0.81657 0.93748 0.38568 0.0
H249 H 0.84564 0.0601 0.4087 0.0
O250 O 0.83369 0.99836 0.29026 0.0
H251 H 0.95341 0.1286 0.30079 0.0
H252 H 0.80226 1.03014 0.47204 0.0
Cu253 Cu 1.0336 0.85805 0.39491 0.0
N254 N 0.07296 0.90159 0.39734 0.0
N255 N 0.12766 0.94535 0.38544 0.0
C256 C 0.1104 0.90866 0.37626 0.0
C257 C 0.10052 0.96212 0.41287 0.0
C258 C 0.06671 0.9348 0.42027 0.0
O259 O 0.97503 0.88384 0.39847 0.0
C260 C 0.09104 0.81262 0.44577 0.0
O261 O 0.12105 0.83789 0.4314 0.0
H262 H 0.12421 0.88782 0.3545 0.0
H263 H 1.03901 0.93894 0.44057 0.0
N264 N 1.03679 0.83211 0.34533 0.0
N265 N 1.05676 0.78823 0.298 0.0
C266 C 0.0681 0.80566 0.33329 0.0
C267 C 1.00468 0.83084 0.31688 0.0
C268 C 1.0171 0.8041 0.28741 0.0
C269 C 0.96653 0.91033 0.37128 0.0
O270 O 0.99614 0.91754 0.34313 0.0
H271 H 0.09701 0.79773 0.35112 0.0
H272 H 0.97301 0.84618 0.31847 0.0
O273 O 1.05001 0.8174 0.436 0.0
H274 H 0.10507 0.99162 0.42673 0.0
H275 H 0.99719 0.79531 0.26164 0.0
Cu276 Cu 0.25853 1.00014 0.69108 0.0
N277 N 0.22872 0.04914 0.68813 0.0
N278 N 0.17445 0.09244 0.67455 0.0
C279 C 0.18551 0.05312 0.67835 0.0
C280 C 0.21173 0.11428 0.68181 0.0
C281 C 0.24557 0.08721 0.68979 0.0
O282 O 0.2133 0.95698 0.69632 0.0
C283 C 0.30658 1.02628 0.7629 0.0
O284 O 0.2767 0.05494 0.76701 0.0
H285 H 0.16307 1.02776 0.67316 0.0
H286 H 0.2803 0.09461 0.69502 0.0
N287 N 0.28844 0.99419 0.64286 0.0
N288 N 0.32155 0.96461 0.59122 0.0
C289 C 0.30593 0.95962 0.62877 0.0
C290 C 0.29389 1.02208 0.61351 0.0
C291 C 0.31462 1.0038 0.58138 0.0
C292 C 0.19638 0.93677 0.66707 0.0
O293 O 0.21057 0.94277 0.63028 0.0
H294 H 0.30559 0.93125 0.64526 0.0
H295 H 0.28265 0.05323 0.61498 0.0
O296 O 0.30286 1.00019 0.73465 0.0
H297 H 0.21465 0.14703 0.67976 0.0
H298 H 0.32327 1.01792 0.55308 0.0
Cu299 Cu 1.04064 0.19515 0.65661 0.0
N300 N 0.07681 0.14996 0.65236 0.0
N301 N 0.13295 0.10763 0.66214 0.0
C302 C 0.11753 0.14529 0.6686 0.0
C303 C 0.10101 0.08746 0.64155 0.0
C304 C 0.06616 0.11395 0.63547 0.0
O305 O 0.97914 0.17436 0.65692 0.0
C306 C 0.09559 0.24296 0.60578 0.0
O307 O 0.12712 0.22077 0.62203 0.0
H308 H 0.13498 0.16861 0.68548 0.0
H309 H 1.0349 0.10729 0.62046 0.0
N310 N 1.05416 0.22133 0.70459 0.0
N311 N 0.07278 0.27128 0.74612 0.0
C312 C 0.06153 0.26151 0.70824 0.0
C313 C 0.06182 0.20536 0.74135 0.0
C314 C 0.07272 0.23649 0.76742 0.0
C315 C 0.96592 0.15047 0.68492 0.0
O316 O 0.99268 0.14239 0.71511 0.0
H317 H 0.05849 0.28308 0.68379 0.0
H318 H 0.06074 0.17332 0.74857 0.0
O319 O 1.05483 0.23491 0.61412 0.0
H320 H 0.10281 0.05618 0.63162 0.0
H321 H 0.08086 0.23382 0.79904 0.0
Cu322 Cu 0.86868 0.05704 0.70171 0.0
N323 N 0.89946 1.00843 0.704 0.0
N324 N 0.95306 0.96441 0.69048 0.0
C325 C 0.94114 1.00374 0.69037 0.0
C326 C 0.91782 0.94325 0.70452 0.0
C327 C 0.88437 0.97071 0.71256 0.0
O328 O 0.91273 0.10143 0.70798 0.0
C329 C 0.81615 0.03653 0.77281 0.0
O330 O 0.84963 1.01448 0.78572 0.0
H331 H 0.96136 1.02844 0.67879 0.0
H332 H 0.85073 0.96348 0.72186 0.0
N333 N 0.84378 0.06008 0.65064 0.0
N334 N 0.81142 0.08825 0.59742 0.0
C335 C 0.81651 0.08952 0.63765 0.0
C336 C 0.85542 0.03885 0.6177 0.0
C337 C 0.83548 0.05636 0.58453 0.0
C338 C 0.92461 0.12638 0.68033 0.0
O339 O 0.90426 0.12611 0.64539 0.0
H340 H 0.80438 0.11352 0.65686 0.0
H341 H 0.87909 1.01416 0.61749 0.0
O342 O 0.81974 0.05738 0.74055 0.0
H343 H 0.91549 0.91045 0.70638 0.0
H344 H 0.84038 0.04785 0.55344 0.0
Cu345 Cu 0.08377 0.86144 0.65537 0.0
N346 N 1.04526 0.90535 0.65647 0.0
N347 N 0.99171 0.94829 0.67301 0.0
C348 C 1.00895 0.91113 0.67934 0.0
C349 C 1.01785 0.96674 0.64558 0.0
C350 C 1.05097 0.93996 0.63536 0.0
O351 O 0.14262 0.88613 0.64716 0.0
C352 C 1.02191 0.81523 0.60883 0.0
O353 O 0.99284 0.83884 0.62656 0.0
H354 H 0.99583 0.88894 0.7003 0.0
H355 H 0.07778 0.94541 0.61433 0.0
N356 N 0.08364 0.83509 0.70484 0.0
N357 N 0.06294 0.79468 0.75511 0.0
C358 C 1.05018 0.81289 0.72065 0.0
C359 C 0.11859 0.8303 0.72994 0.0
C360 C 0.10582 0.80558 0.76123 0.0
C361 C 0.15641 0.91152 0.67364 0.0
O362 O 0.13188 0.91845 0.70551 0.0
H363 H 1.01804 0.80885 0.7063 0.0
H364 H 0.15171 0.84234 0.72496 0.0
O365 O 0.06359 0.82131 0.61511 0.0
H366 H 1.01311 0.997 0.63354 0.0
H367 H 0.12709 0.795 0.78535 0.0
Cu368 Cu 0.40719 0.21241 0.04116 0.0
N369 N 0.41375 0.18452 0.99221 0.0
N370 N 0.40779 0.13747 0.94371 0.0
C371 C 0.40001 0.14645 0.98278 0.0
C372 C 0.42721 0.17106 0.92809 0.0
C373 C 0.43089 0.19992 0.95804 0.0
O374 O 0.39102 0.17419 0.08371 0.0
C375 C 0.33115 0.25692 1.00841 0.0
O376 O 0.33024 0.23015 0.97916 0.0
H377 H 0.3841 0.12604 1.00398 0.0
H378 H 0.44452 0.2303 0.95504 0.0
N379 N 0.46055 0.23883 0.05639 0.0
N380 N 0.50718 0.28348 0.08584 0.0
C381 C 0.46419 0.27384 0.07733 0.0
C382 C 0.5027 0.22576 0.05176 0.0
C383 C 0.53156 0.25332 0.06978 0.0
C384 C 0.41402 0.14365 0.09518 0.0
O385 O 0.45176 0.1354 0.07707 0.0
H386 H 0.43572 0.29138 0.08698 0.0
H387 H 0.51174 0.19767 0.03707 0.0
O388 O 0.3603 0.25398 0.03639 0.0
H389 H 0.43803 0.17454 0.89723 0.0
H390 H 0.56743 0.25068 0.07212 0.0
Cu391 Cu 0.40881 0.85848 1.01057 0.0
N392 N 0.41437 0.88676 0.05952 0.0
N393 N 0.40492 0.93392 0.10739 0.0
C394 C 0.39928 0.92446 0.06807 0.0
C395 C 0.42447 0.90102 0.12407 0.0
C396 C 0.43033 0.87211 0.0945 0.0
O397 O 0.3932 0.89701 0.96854 0.0
C398 C 0.33335 0.81224 0.04241 0.0
O399 O 0.33557 0.83516 0.07464 0.0
H400 H 0.38361 0.94413 0.04611 0.0
H401 H 0.44427 0.84208 0.09838 0.0
N402 N 0.46152 0.83129 0.99578 0.0
N403 N 0.50615 0.78548 0.96647 0.0
C404 C 0.46366 0.79608 0.97504 0.0
C405 C 0.5042 0.84354 1.00018 0.0
C406 C 0.53181 0.81531 0.98213 0.0
C407 C 0.41821 0.92556 0.95539 0.0
O408 O 0.45848 0.93043 0.97039 0.0
H409 H 0.43443 0.77901 0.96566 0.0
H410 H 0.51445 0.87154 1.01462 0.0
O411 O 0.3607 0.81783 1.01358 0.0
H412 H 0.4338 0.89801 0.15542 0.0
H413 H 0.56769 0.81727 0.97943 0.0
Cu414 Cu 0.22483 0.33777 0.98138 0.0
N415 N 0.18457 0.32941 1.02304 0.0
N416 N 0.15004 0.33424 0.08186 0.0
C417 C 0.18895 0.33899 0.0622 0.0
C418 C 0.12031 0.32055 0.0545 0.0
C419 C 0.14186 0.31746 1.01818 0.0
O420 O 0.18947 0.34012 0.93182 0.0
C421 C 0.29835 0.2904 1.00898 0.0
O422 O 0.2989 0.31664 0.03872 0.0
H423 H 0.21909 0.35135 0.0754 0.0
H424 H 0.12693 0.30907 0.9897 0.0
N425 N 0.25257 0.38832 0.98617 0.0
N426 N 0.28239 0.44599 0.96364 0.0
C427 C 0.27353 0.40669 0.95547 0.0
C428 C 0.24822 0.41708 1.01479 0.0
C429 C 0.26694 0.45289 1.00097 0.0
C430 C 0.16691 0.37181 0.92288 0.0
O431 O 0.16809 0.40354 0.94678 0.0
H432 H 0.27933 0.3921 0.92685 0.0
H433 H 0.23017 0.41336 0.04256 0.0
O434 O 0.26937 0.29413 0.98098 0.0
H435 H 0.08527 0.31493 0.05989 0.0
H436 H 0.26722 0.48189 1.0163 0.0
Cu437 Cu 0.70288 0.20884 1.01381 0.0
N438 N 0.69516 0.18135 0.06306 0.0
N439 N 0.70008 0.13675 0.11397 0.0
C440 C 0.71585 0.1478 0.07738 0.0
C441 C 0.66855 0.16439 0.12293 0.0
C442 C 0.66572 0.19178 0.09163 0.0
O443 O 0.71577 0.17156 0.96994 0.0
C444 C 0.78519 0.24894 0.04031 0.0
O445 O 0.79049 0.21877 0.06573 0.0
H446 H 0.74136 0.13158 0.06107 0.0
H447 H 0.64342 0.21744 0.08965 0.0
N448 N 0.65002 0.23572 0.9988 0.0
N449 N 0.60459 0.28037 0.96849 0.0
C450 C 0.64697 0.2719 0.97985 0.0
C451 C 0.60813 0.22069 0.99914 0.0
C452 C 0.57998 0.24825 0.98061 0.0
C453 C 0.69837 0.13652 0.96408 0.0
O454 O 0.6715 0.1208 0.99114 0.0
H455 H 0.67563 0.29085 0.97305 0.0
H456 H 0.59895 0.19106 1.01073 0.0
O457 O 0.7511 0.24961 1.01716 0.0
H458 H 0.64869 0.16465 0.15006 0.0
H459 H 0.54468 0.24414 0.97486 0.0
Cu460 Cu 0.88206 0.73488 0.99847 0.0
N461 N 0.92045 0.74125 0.04234 0.0
N462 N 0.95888 0.72657 0.09776 0.0
C463 C 0.92455 0.71584 0.07384 0.0
C464 C 0.97768 0.75971 0.08095 0.0
C465 C 0.95362 0.76881 0.04658 0.0
O466 O 0.91868 0.73212 0.95014 0.0
C467 C 0.81462 0.78864 1.02491 0.0
O468 O 0.82018 0.76983 0.0594 0.0
H469 H 0.90462 0.68877 0.07805 0.0
H470 H 0.96074 0.79292 1.02536 0.0
N471 N 0.85021 0.6863 1.00353 0.0
N472 N 0.81951 0.62691 0.9872 0.0
C473 C 0.84326 0.65906 0.97407 0.0
C474 C 0.82908 0.67117 0.03607 0.0
C475 C 0.81026 0.63414 0.02613 0.0
C476 C 0.94268 0.70126 0.94211 0.0
O477 O 0.94324 0.67009 0.96681 0.0
H478 H 0.85497 0.66297 0.9436 0.0
H479 H 0.82697 0.68621 0.06488 0.0
O480 O 0.83906 0.77923 0.99509 0.0
H481 H 1.00688 0.77555 0.09221 0.0
H482 H 0.79034 0.61486 0.04549 0.0
Cu483 Cu 0.69925 0.85983 0.04887 0.0
N484 N 0.69436 0.88877 0.99991 0.0
N485 N 0.70439 0.93326 0.94942 0.0
C486 C 0.71807 0.92121 0.98643 0.0
C487 C 0.67143 0.90714 0.93908 0.0
C488 C 0.66541 0.87989 0.97013 0.0
O489 O 0.70032 0.89523 0.09589 0.0
C490 C 0.77806 0.81811 1.02023 0.0
O491 O 0.77001 0.83457 0.98499 0.0
H492 H 0.74456 0.93572 1.00346 0.0
H493 H 0.64149 0.85518 0.97094 0.0
N494 N 0.64923 0.82607 0.05709 0.0
N495 N 0.60706 0.77627 0.08356 0.0
C496 C 0.64893 0.78918 0.07493 0.0
C497 C 0.60608 0.83694 0.05474 0.0
C498 C 0.57993 0.80613 0.07066 0.0
C499 C 0.69364 0.93342 0.09764 0.0
O500 O 0.68769 0.95436 0.06444 0.0
H501 H 0.67901 0.77332 0.08367 0.0
H502 H 0.59463 0.86622 0.04419 0.0
O503 O 0.75256 0.82562 0.04988 0.0
H504 H 0.65266 0.9079 0.9112 0.0
H505 H 0.54413 0.80679 0.0747 0.0
Cu506 Cu 0.23056 0.72662 0.06527 0.0
N507 N 0.19082 0.73635 1.0233 0.0
N508 N 0.15219 0.72965 0.96657 0.0
C509 C 0.18832 0.71766 0.98741 0.0
C510 C 0.13079 0.75666 0.98984 0.0
C511 C 0.15501 0.76089 1.02495 0.0
O512 O 0.19459 0.72112 0.11392 0.0
C513 C 0.29948 0.7796 0.0395 0.0
O514 O 0.29616 0.75827 1.00627 0.0
H515 H 0.21078 0.69423 0.9776 0.0
H516 H 0.14632 0.7794 0.05058 0.0
N517 N 0.26108 0.67799 0.05765 0.0
N518 N 0.29291 0.61922 0.07359 0.0
C519 C 0.26965 0.6512 0.08713 0.0
C520 C 0.28046 0.66264 1.02444 0.0
C521 C 0.30007 0.62603 0.0342 0.0
C522 C 0.17014 0.68984 0.12053 0.0
O523 O 0.16926 0.65988 0.09447 0.0
H524 H 0.25983 0.65565 0.11805 0.0
H525 H 0.28174 0.67749 0.99549 0.0
O526 O 0.27378 0.77138 0.06894 0.0
H527 H 0.09964 0.77138 0.98242 0.0
H528 H 0.31954 0.60703 1.01445 0.0
Cu529 Cu 0.89814 0.3259 0.05856 0.0
N530 N 0.93861 0.31551 1.01759 0.0
N531 N 0.97283 0.3218 0.95866 0.0
C532 C 0.93352 0.32324 0.97809 0.0
C533 C 1.00363 0.31182 0.98654 0.0
C534 C 0.98229 0.30782 1.02294 0.0
O535 O 0.93262 0.33165 0.10852 0.0
C536 C 0.8189 0.28193 0.03798 0.0
O537 O 0.81419 0.31089 1.01111 0.0
H538 H 0.90255 0.33326 0.96469 0.0
H539 H 0.99802 0.3028 0.05183 0.0
N540 N 0.87107 0.37576 0.04942 0.0
N541 N 0.83987 0.4342 0.06662 0.0
C542 C 0.84747 0.39541 0.07741 0.0
C543 C 0.87837 0.4031 1.01982 0.0
C544 C 0.8588 0.43936 0.03033 0.0
C545 C 0.95272 0.36477 0.11796 0.0
O546 O 0.94992 0.39656 0.0942 0.0
H547 H 0.83914 0.38227 0.10626 0.0
H548 H 0.89924 0.39832 0.99392 0.0
O549 O 0.85273 0.28255 0.06146 0.0
H550 H 1.03919 0.3102 0.98155 0.0
H551 H 0.86074 0.4677 1.01384 0.0
Cu552 Cu 0.55406 0.89583 0.70033 0.0
N553 N 0.60205 0.87513 0.67147 0.0
N554 N 0.64023 0.8482 0.62093 0.0
C555 C 0.59955 0.85759 0.63501 0.0
C556 C 0.66966 0.86019 0.64928 0.0
C557 C 0.64586 0.87672 0.68066 0.0
O558 O 0.50405 0.89874 0.66231 0.0
C559 C 0.59964 0.94306 0.75705 0.0
O560 O 0.60863 0.90636 0.77034 0.0
H561 H 0.5688 0.85353 0.61842 0.0
H562 H 0.65971 0.89001 0.70769 0.0
N563 N 0.53886 0.85872 0.74003 0.0
N564 N 0.54378 0.8053 0.78051 0.0
C565 C 0.56141 0.8247 0.74866 0.0
C566 C 0.50565 0.86082 0.76708 0.0
C567 C 0.50867 0.82765 0.79242 0.0
C568 C 0.48335 0.86595 0.65272 0.0
O569 O 0.49378 0.8317 0.67065 0.0
H570 H 0.59098 0.81533 0.73275 0.0
H571 H 0.48179 0.88528 0.76884 0.0
O572 O 0.57411 0.94674 0.72633 0.0
H573 H 0.70556 0.85818 0.64705 0.0
H574 H 0.48773 0.8213 0.81811 0.0
Cu575 Cu 0.19475 0.55088 0.70742 0.0
N576 N 0.19042 0.50049 0.68123 0.0
N577 N 0.19195 0.45221 0.63402 0.0
C578 C 0.19048 0.49259 0.64141 0.0
C579 C 0.19189 0.43401 0.67038 0.0
C580 C 0.19037 0.46384 0.69937 0.0
O581 O 0.191 0.59672 0.66957 0.0
C582 C 0.27684 0.52572 0.74751 0.0
O583 O 0.27717 0.49377 0.72396 0.0
H584 H 0.19061 0.51583 0.61838 0.0
H585 H 0.19085 0.45919 0.73157 0.0
N586 N 0.14616 0.55745 0.74193 0.0
N587 N 0.09726 0.5919 0.77922 0.0
C588 C 0.12413 0.59263 0.74672 0.0
C589 C 0.13238 0.5333 0.77227 0.0
C590 C 0.10209 0.55453 0.79538 0.0
C591 C 0.21176 0.60395 0.63687 0.0
O592 O 0.24325 0.57917 0.62492 0.0
H593 H 0.13036 0.61934 0.72843 0.0
H594 H 0.14577 0.50355 0.77885 0.0
O595 O 0.24747 0.5533 0.74266 0.0
H596 H 0.19292 0.40151 0.67565 0.0
H597 H 0.08762 0.54437 0.82344 0.0
Cu598 Cu 0.56998 0.16003 0.70415 0.0
N599 N 0.51895 0.17647 0.67652 0.0
N600 N 0.47377 0.20518 0.63173 0.0
C601 C 0.51575 0.2036 0.64624 0.0
C602 C 0.44965 0.17837 0.65334 0.0
C603 C 0.47766 0.16077 0.68111 0.0
O604 O 0.618 0.15686 0.6645 0.0
C605 C 0.52836 0.1148 0.76409 0.0
O606 O 0.52038 0.15202 0.77632 0.0
H607 H 0.54376 0.22039 0.63409 0.0
H608 H 0.46874 0.13723 0.70235 0.0
N609 N 0.58483 0.19984 0.74154 0.0
N610 N 0.57752 0.25484 0.7795 0.0
C611 C 0.56115 0.23362 0.74815 0.0
C612 C 0.61758 0.19979 0.76938 0.0
C613 C 0.61308 0.23395 0.79315 0.0
C614 C 0.63957 0.18914 0.65498 0.0
O615 O 0.63136 0.22334 0.67377 0.0
H616 H 0.53134 0.24124 0.73148 0.0
H617 H 0.64186 0.17585 0.77303 0.0
O618 O 0.55286 0.10987 0.73305 0.0
H619 H 0.41468 0.17142 0.64881 0.0
H620 H 0.63308 0.24177 0.81918 0.0
Cu621 Cu 0.89541 0.51989 0.69988 0.0
N622 N 0.89195 0.56929 0.67102 0.0
N623 N 0.89905 0.61977 0.62599 0.0
C624 C 0.91748 0.58547 0.64147 0.0
C625 C 0.86099 0.62533 0.64654 0.0
C626 C 0.85667 0.5943 0.67389 0.0
O627 O 0.90008 0.47235 0.66435 0.0
C628 C 0.83593 0.54244 0.76199 0.0
O629 O 0.86618 0.57062 0.76884 0.0
H630 H 0.94789 0.57173 0.63068 0.0
H631 H 0.82855 0.58958 0.69357 0.0
N632 N 0.94488 0.51473 0.73443 0.0
N633 N 0.99174 0.47915 0.77353 0.0
C634 C 0.96256 0.47806 0.74254 0.0
C635 C 0.96401 0.54034 0.76114 0.0
C636 C 0.99295 0.51835 0.78545 0.0
C637 C 0.89397 0.46911 0.62649 0.0
O638 O 0.87859 0.50023 0.60599 0.0
H639 H 0.95212 0.45047 0.72732 0.0
H640 H 0.95575 0.57214 0.76432 0.0
O641 O 0.84194 0.51681 0.73366 0.0
H642 H 0.83736 0.64962 0.64151 0.0
H643 H 1.01122 0.52986 0.81114 0.0
Cu644 Cu 0.53992 0.17319 0.35583 0.0
N645 N 0.59152 0.18883 0.38283 0.0
N646 N 0.63713 0.21332 0.4297 0.0
C647 C 0.59454 0.21044 0.41706 0.0
C648 C 0.66192 0.19301 0.40278 0.0
C649 C 0.63355 0.17806 0.37362 0.0
O650 O 0.49264 0.16971 0.39592 0.0
C651 C 0.57581 0.12459 0.29489 0.0
O652 O 0.58099 0.16034 0.27784 0.0
H653 H 0.56612 0.22211 0.43322 0.0
H654 H 0.64276 0.15962 0.34811 0.0
N655 N 0.52669 0.21343 0.31844 0.0
N656 N 0.53891 0.26526 0.27697 0.0
C657 C 0.55461 0.24376 0.30835 0.0
C658 C 0.49183 0.21607 0.29294 0.0
C659 C 0.49934 0.24826 0.26704 0.0
C660 C 0.47228 0.20181 0.40693 0.0
O661 O 0.48099 0.23659 0.38912 0.0
H662 H 0.58688 0.24831 0.32227 0.0
H663 H 0.46407 0.19493 0.29206 0.0
O664 O 0.55496 0.12229 0.32828 0.0
H665 H 0.6976 0.1886 0.40456 0.0
H666 H 0.47855 0.25704 0.24187 0.0
Cu667 Cu 0.90388 0.55029 0.35233 0.0
N668 N 0.89644 0.50257 0.38273 0.0
N669 N 0.90259 0.45114 0.42648 0.0
C670 C 0.92339 0.48349 0.40933 0.0
C671 C 0.86146 0.44988 0.41009 0.0
C672 C 0.85775 0.48161 0.38349 0.0
O673 O 0.90749 0.59878 0.38664 0.0
C674 C 0.8453 0.52484 0.29031 0.0
O675 O 0.87276 0.49396 0.28842 0.0
H676 H 0.95689 0.49358 0.41657 0.0
H677 H 0.82822 0.48948 0.36654 0.0
N678 N 0.95573 0.55181 0.3208 0.0
N679 N 1.00671 0.58319 0.28235 0.0
C680 C 0.97695 0.58697 0.31249 0.0
C681 C 0.97323 0.52434 0.29534 0.0
C682 C 1.0047 0.5437 0.27144 0.0
C683 C 0.89883 0.60194 0.42406 0.0
O684 O 0.88248 0.57051 0.44361 0.0
H685 H 0.96811 0.61562 0.32631 0.0
H686 H 0.96181 0.49324 0.29231 0.0
O687 O 0.85268 0.55325 0.31568 0.0
H688 H 0.83553 0.42809 0.41748 0.0
H689 H 1.0218 0.53047 0.24612 0.0
Cu690 Cu 0.56163 0.89756 0.34287 0.0
N691 N 0.51627 0.87088 0.37097 0.0
N692 N 0.4815 0.83754 0.42012 0.0
C693 C 0.52053 0.85319 0.40728 0.0
C694 C 0.45132 0.84564 0.39114 0.0
C695 C 0.47305 0.86606 0.3606 0.0
O696 O 0.61205 0.90249 0.38025 0.0
C697 C 0.51204 0.94605 0.29021 0.0
O698 O 0.50383 0.90984 0.27513 0.0
H699 H 0.55111 0.85326 0.42458 0.0
H700 H 0.45805 0.87734 0.33322 0.0
N701 N 0.57847 0.86457 0.3004 0.0
N702 N 0.58143 0.8105 0.26095 0.0
C703 C 0.56909 0.82474 0.29698 0.0
C704 C 0.59759 0.87567 0.2654 0.0
C705 C 0.59903 0.8421 0.24055 0.0
C706 C 0.63555 0.87125 0.38877 0.0
O707 O 0.62775 0.83675 0.37017 0.0
H708 H 0.55178 0.80708 0.31961 0.0
H709 H 0.60793 0.90633 0.25794 0.0
O710 O 0.53793 0.94887 0.32076 0.0
H711 H 0.41616 0.83821 0.39236 0.0
H712 H 0.61112 0.84107 0.20995 0.0
Cu713 Cu 0.21031 0.51783 0.35492 0.0
N714 N 0.20897 0.56851 0.38127 0.0
N715 N 0.20651 0.61641 0.4291 0.0
C716 C 0.19414 0.57817 0.41843 0.0
C717 C 0.22952 0.6313 0.3976 0.0
C718 C 0.23092 0.6019 0.36837 0.0
O719 O 0.20152 0.47274 0.3929 0.0
C720 C 0.27338 0.53618 0.29443 0.0
O721 O 0.24038 0.5579 0.28008 0.0
H722 H 0.17648 0.55711 0.4378 0.0
H723 H 0.24854 0.60441 0.34027 0.0
N724 N 0.16415 0.51094 0.31688 0.0
N725 N 0.1192 0.47582 0.27529 0.0
C726 C 0.14803 0.47408 0.30657 0.0
C727 C 0.14435 0.53726 0.2914 0.0
C728 C 0.11687 0.51555 0.26538 0.0
C729 C 0.21903 0.46565 0.42722 0.0
O730 O 0.2499 0.4903 0.44145 0.0
H731 H 0.15876 0.44617 0.32088 0.0
H732 H 0.15091 0.56963 0.29053 0.0
O733 O 0.26747 0.51505 0.32628 0.0
H734 H 0.24478 0.6612 0.396 0.0
H735 H 0.0985 0.52783 0.24015 0.0
Cu736 Cu 0.74699 0.55965 0.86021 0.0
N737 N 0.71914 0.50928 0.85867 0.0
N738 N 0.66686 0.4629 0.87005 0.0
C739 C 0.67676 0.50277 0.86968 0.0
C740 C 0.70414 0.4432 0.85922 0.0
C741 C 0.73679 0.47217 0.85256 0.0
O742 O 0.69989 0.60122 0.85662 0.0
C743 C 0.79577 0.54073 0.78737 0.0
O744 O 0.76355 0.51502 0.77867 0.0
H745 H 0.65431 0.52664 0.87888 0.0
H746 H 0.77139 0.46654 0.84552 0.0
N747 N 0.77386 0.56373 0.91031 0.0
N748 N 0.80342 0.59456 0.96349 0.0
C749 C 0.79914 0.59496 0.92317 0.0
C750 C 0.76275 0.54241 0.94346 0.0
C751 C 0.78085 0.5616 0.97656 0.0
C752 C 0.68682 0.62412 0.88541 0.0
O753 O 0.70751 0.62366 0.92019 0.0
H754 H 0.80971 0.61968 0.90388 0.0
H755 H 0.73985 0.51688 0.94384 0.0
O756 O 0.79313 0.56325 0.81857 0.0
H757 H 0.70811 0.41051 0.85861 0.0
H758 H 0.775 0.55375 1.00767 0.0
Cu759 Cu 0.57764 0.70283 0.89935 0.0
N760 N 0.5349 0.66194 0.90017 0.0
N761 N 0.48304 0.61753 0.88126 0.0
C762 C 0.50897 0.64895 0.86968 0.0
C763 C 0.49283 0.61039 0.92022 0.0
C764 C 0.52505 0.638 0.93181 0.0
O765 O 0.63504 0.6754 0.90661 0.0
C766 C 0.51939 0.75296 0.94408 0.0
O767 O 0.48913 0.73025 0.92618 0.0
H768 H 0.50973 0.66181 0.83974 0.0
H769 H 0.5406 0.64035 0.96112 0.0
N770 N 0.57837 0.72789 0.84928 0.0
N771 N 0.56242 0.77162 0.80045 0.0
C772 C 0.54908 0.75556 0.8357 0.0
C773 C 0.61121 0.72676 0.82177 0.0
C774 C 0.6013 0.75356 0.79137 0.0
C775 C 0.64553 0.64782 0.8812 0.0
O776 O 0.61773 0.63879 0.8519 0.0
H777 H 0.52011 0.76518 0.85235 0.0
H778 H 0.64162 0.70956 0.82455 0.0
O779 O 0.56076 0.74512 0.93851 0.0
H780 H 0.47813 0.58691 0.93882 0.0
H781 H 0.62228 0.76071 0.76592 0.0
Cu782 Cu 0.37175 0.50001 0.83814 0.0
N783 N 0.40546 0.5474 0.8372 0.0
N784 N 0.45284 0.59544 0.85711 0.0
C785 C 0.43085 0.5613 0.8676 0.0
C786 C 0.44134 0.60338 0.81869 0.0
C787 C 0.41199 0.57339 0.80639 0.0
O788 O 0.41445 0.45507 0.8409 0.0
C789 C 0.30772 0.52786 0.78207 0.0
O790 O 0.30619 0.55919 0.80648 0.0
H791 H 0.43359 0.54623 0.89642 0.0
H792 H 0.39699 0.57037 0.77691 0.0
N793 N 0.33655 0.4999 0.88405 0.0
N794 N 0.30042 0.47479 0.93677 0.0
C795 C 0.31657 0.46699 0.89989 0.0
C796 C 0.33177 0.52978 0.91142 0.0
C797 C 0.30942 0.51425 0.94429 0.0
C798 C 0.42672 0.43604 0.87264 0.0
O799 O 0.40855 0.44424 0.90747 0.0
H800 H 0.31675 0.43741 0.88572 0.0
H801 H 0.34545 0.56013 0.90856 0.0
O802 O 0.33372 0.49835 0.79023 0.0
H803 H 0.45348 0.62856 0.80078 0.0
H804 H 0.30214 0.53017 0.97193 0.0
Cu805 Cu 0.53365 0.35806 0.8949 0.0
N806 N 0.57301 0.4016 0.89733 0.0
N807 N 0.62772 0.44537 0.88547 0.0
C808 C 0.61047 0.40867 0.87628 0.0
C809 C 0.60054 0.46214 0.91287 0.0
C810 C 0.56673 0.43482 0.92025 0.0
O811 O 0.47509 0.38385 0.89845 0.0
C812 C 0.59107 0.31266 0.94581 0.0
O813 O 0.62108 0.33797 0.93152 0.0
H814 H 0.62431 0.38783 0.85454 0.0
H815 H 0.53901 0.43896 0.94052 0.0
N816 N 0.53684 0.33213 0.84531 0.0
N817 N 0.55679 0.28825 0.79796 0.0
C818 C 0.56815 0.30567 0.83326 0.0
C819 C 0.50474 0.33088 0.81685 0.0
C820 C 0.51714 0.30414 0.78738 0.0
C821 C 0.4666 0.41036 0.87126 0.0
O822 O 0.49621 0.41756 0.84312 0.0
H823 H 0.59705 0.29772 0.8511 0.0
H824 H 0.47307 0.34622 0.81845 0.0
O825 O 0.55005 0.3174 0.93598 0.0
H826 H 0.60507 0.49165 0.92672 0.0
H827 H 0.49723 0.29537 0.76161 0.0
Cu828 Cu 0.75863 0.50009 0.19108 0.0
N829 N 0.72882 0.5491 0.18812 0.0
N830 N 0.67455 0.59241 0.17455 0.0
C831 C 0.6856 0.55308 0.17835 0.0
C832 C 0.71184 0.61424 0.18181 0.0
C833 C 0.74567 0.58717 0.18979 0.0
O834 O 0.71341 0.45692 0.19629 0.0
C835 C 0.80663 0.52625 0.26292 0.0
O836 O 0.77673 0.55489 0.26702 0.0
H837 H 0.66316 0.52773 0.17316 0.0
H838 H 0.7804 0.59456 0.19502 0.0
N839 N 0.78857 0.49416 0.14287 0.0
N840 N 0.8216 0.46459 0.09118 0.0
C841 C 0.8059 0.45955 0.1287 0.0
C842 C 0.79421 0.52212 0.11361 0.0
C843 C 0.81489 0.50385 0.08145 0.0
C844 C 0.69643 0.43679 0.16702 0.0
O845 O 0.71053 0.44291 0.13021 0.0
H846 H 0.80541 0.43114 0.1451 0.0
H847 H 0.78313 0.55331 0.11516 0.0
O848 O 0.80293 0.50015 0.23466 0.0
H849 H 0.71476 0.64699 0.17978 0.0
H850 H 0.82366 0.51802 0.05321 0.0
Cu851 Cu 0.54075 0.69513 0.15665 0.0
N852 N 0.57692 0.64994 0.15239 0.0
N853 N 0.63305 0.6076 0.16215 0.0
C854 C 0.61764 0.64526 0.16862 0.0
C855 C 0.6011 0.58743 0.14158 0.0
C856 C 0.56624 0.61392 0.13551 0.0
O857 O 0.47925 0.67433 0.15697 0.0
C858 C 0.59567 0.74294 0.10579 0.0
O859 O 0.62721 0.72073 0.12201 0.0
H860 H 0.6351 0.66859 0.18548 0.0
H861 H 0.53498 0.60727 0.12052 0.0
N862 N 0.55427 0.72131 0.20463 0.0
N863 N 0.57285 0.77127 0.24616 0.0
C864 C 0.56159 0.7615 0.20828 0.0
C865 C 0.56197 0.70534 0.24139 0.0
C866 C 0.57283 0.73647 0.26745 0.0
C867 C 0.46602 0.65047 0.18499 0.0
O868 O 0.49275 0.64243 0.2152 0.0
H869 H 0.55852 0.78307 0.18384 0.0
H870 H 0.56092 0.6733 0.2486 0.0
O871 O 0.55491 0.73489 0.11416 0.0
H872 H 0.60288 0.55615 0.13166 0.0
H873 H 0.58099 0.7338 0.29907 0.0
Cu874 Cu 0.36877 0.55704 0.20178 0.0
N875 N 0.39956 0.50844 0.20406 0.0
N876 N 0.45316 0.46442 0.19051 0.0
C877 C 0.44124 0.50375 0.19041 0.0
C878 C 0.41792 0.44326 0.20456 0.0
C879 C 0.38447 0.47071 0.21262 0.0
O880 O 0.41281 0.60144 0.20805 0.0
C881 C 0.31622 0.53653 0.27287 0.0
O882 O 0.34969 0.51449 0.28579 0.0
H883 H 0.46144 0.52846 0.17883 0.0
H884 H 0.35084 0.46348 0.22193 0.0
N885 N 0.34389 0.56009 0.15071 0.0
N886 N 0.31159 0.58829 0.09748 0.0
C887 C 0.31666 0.58956 0.13771 0.0
C888 C 0.35548 0.53882 0.11777 0.0
C889 C 0.33556 0.55634 0.08459 0.0
C890 C 0.42473 0.62636 0.18039 0.0
O891 O 0.40442 0.62604 0.14542 0.0
H892 H 0.30452 0.61356 0.15691 0.0
H893 H 0.3791 0.51409 0.11757 0.0
O894 O 0.31983 0.55738 0.2406 0.0
H895 H 0.41559 0.41046 0.20641 0.0
H896 H 0.34039 0.54779 0.0535 0.0
Cu897 Cu 0.58382 0.36146 0.15526 0.0
N898 N 0.54531 0.40537 0.15641 0.0
N899 N 0.49179 0.44831 0.17301 0.0
C900 C 0.50902 0.41114 0.1793 0.0
C901 C 0.51792 0.46677 0.14558 0.0
C902 C 0.55102 0.44 0.13532 0.0
O903 O 0.64267 0.38616 0.14707 0.0
C904 C 0.52196 0.31531 0.10866 0.0
O905 O 0.4929 0.33892 0.12639 0.0
H906 H 0.49591 0.38893 0.20025 0.0
H907 H 0.57782 0.44546 0.11429 0.0
N908 N 0.58371 0.33505 0.2047 0.0
N909 N 0.56299 0.29463 0.25495 0.0
C910 C 0.55022 0.31289 0.22053 0.0
C911 C 0.61867 0.33019 0.22976 0.0
C912 C 0.6059 0.30546 0.26104 0.0
C913 C 0.65648 0.41151 0.17359 0.0
O914 O 0.63199 0.41837 0.20549 0.0
H915 H 0.51805 0.30892 0.20621 0.0
H916 H 0.65181 0.34218 0.22476 0.0
O917 O 0.56364 0.32136 0.11497 0.0
H918 H 0.51318 0.49704 0.13357 0.0
H919 H 0.62717 0.29482 0.28513 0.0
Cu920 Cu 0.90715 0.71239 0.54123 0.0
N921 N 0.91372 0.68454 0.49226 0.0
N922 N 0.90779 0.63748 0.44376 0.0
C923 C 0.90007 0.64644 0.48285 0.0
C924 C 0.92708 0.67112 0.42812 0.0
C925 C 0.93075 0.69998 0.45807 0.0
O926 O 0.89089 0.67411 0.58371 0.0
C927 C 0.83111 0.7569 0.50851 0.0
O928 O 0.83013 0.73007 0.47931 0.0
H929 H 0.88426 0.62599 0.50407 0.0
H930 H 0.94428 0.73039 0.45506 0.0
N931 N 0.96051 0.73876 0.55653 0.0
N932 N 1.00713 0.78338 0.58602 0.0
C933 C 0.96414 0.77375 0.57751 0.0
C934 C 1.00266 0.72572 0.55187 0.0
C935 C 1.03152 0.75326 0.56992 0.0
C936 C 0.91398 0.64367 0.59529 0.0
O937 O 0.95189 0.63561 0.5774 0.0
H938 H 0.93567 0.79129 0.58716 0.0
H939 H 1.01171 0.69766 0.53713 0.0
O940 O 0.86029 0.75398 0.53646 0.0
H941 H 0.93783 0.67463 0.39724 0.0
H942 H 0.06739 0.75064 0.57223 0.0
Cu943 Cu 0.9088 0.35842 0.51052 0.0
N944 N 0.91435 0.38665 0.5595 0.0
N945 N 0.90489 0.4338 0.60738 0.0
C946 C 0.89937 0.42439 0.56804 0.0
C947 C 0.92425 0.40084 0.62409 0.0
C948 C 0.93012 0.37193 0.59451 0.0
O949 O 0.89316 0.39698 0.46853 0.0
C950 C 0.83326 0.31224 0.54229 0.0
O951 O 0.83534 0.33529 0.57444 0.0
H952 H 0.88384 0.44412 0.54604 0.0
H953 H 0.94393 0.34185 0.59841 0.0
N954 N 0.96151 0.33126 0.49571 0.0
N955 N 1.00616 0.28549 0.46635 0.0
C956 C 0.96367 0.29606 0.47494 0.0
C957 C 1.00419 0.34351 0.50011 0.0
C958 C 1.03181 0.3153 0.48204 0.0
C959 C 0.91819 0.42551 0.45537 0.0
O960 O 0.95848 0.43033 0.47032 0.0
H961 H 0.93444 0.27899 0.46556 0.0
H962 H 1.01444 0.37151 0.51457 0.0
O963 O 0.86072 0.31774 0.51352 0.0
H964 H 0.93344 0.39777 0.65547 0.0
H965 H 0.06769 0.31727 0.47935 0.0
Cu966 Cu 0.72482 0.83777 0.48144 0.0
N967 N 0.68454 0.82945 0.5231 0.0
N968 N 0.65 0.83428 0.58191 0.0
C969 C 0.68891 0.83901 0.56227 0.0
C970 C 0.62026 0.82063 0.55454 0.0
C971 C 0.64182 0.81754 0.51823 0.0
O972 O 0.68946 0.8401 0.43188 0.0
C973 C 0.79833 0.7904 0.50906 0.0
O974 O 0.79894 0.81668 0.53876 0.0
H975 H 0.71908 0.85131 0.57549 0.0
H976 H 0.62689 0.80917 0.48974 0.0
N977 N 0.75259 0.88832 0.48619 0.0
N978 N 0.78231 0.94602 0.46364 0.0
C979 C 0.77338 0.90674 0.45543 0.0
C980 C 0.74843 0.91703 0.51489 0.0
C981 C 0.7671 0.95284 0.50106 0.0
C982 C 0.66688 0.87178 0.42295 0.0
O983 O 0.66804 0.9035 0.44687 0.0
H984 H 0.77903 0.89219 0.42677 0.0
H985 H 0.73057 0.91326 0.54276 0.0
O986 O 0.76933 0.79411 0.48107 0.0
H987 H 0.58521 0.81504 0.55992 0.0
H988 H 0.76753 0.98181 0.51646 0.0
Cu989 Cu 0.20285 0.70883 0.51381 0.0
N990 N 0.19513 0.68133 0.56306 0.0
N991 N 0.20006 0.63673 0.61396 0.0
C992 C 0.21582 0.64778 0.57737 0.0
C993 C 0.16854 0.66438 0.62293 0.0
C994 C 0.1657 0.69176 0.59164 0.0
O995 O 0.21573 0.67156 0.46993 0.0
C996 C 0.28515 0.74892 0.54033 0.0
O997 O 0.29044 0.71875 0.56575 0.0
H998 H 0.24132 0.63156 0.56105 0.0
H999 H 0.14341 0.71743 0.58966 0.0
N1000 N 0.15 0.73572 0.49881 0.0
N1001 N 0.10457 0.78034 0.46845 0.0
C1002 C 0.14696 0.77186 0.47978 0.0
C1003 C 0.10808 0.72073 0.49925 0.0
C1004 C 0.07994 0.74829 0.4807 0.0
C1005 C 0.19835 0.63652 0.46408 0.0
O1006 O 0.17152 0.62078 0.49115 0.0
H1007 H 0.17563 0.79077 0.4729 0.0
H1008 H 0.09889 0.69115 0.51093 0.0
O1009 O 0.25108 0.7496 0.51718 0.0
H1010 H 0.14869 0.66464 0.65007 0.0
H1011 H 1.04462 0.74421 0.47502 0.0
Cu1012 Cu 0.38196 0.23484 0.49837 0.0
N1013 N 0.42043 0.24124 0.54218 0.0
N1014 N 0.45888 0.22665 0.59762 0.0
C1015 C 0.42441 0.21599 0.57382 0.0
C1016 C 0.47791 0.25955 0.58057 0.0
C1017 C 0.45383 0.26861 0.54619 0.0
O1018 O 0.41852 0.23209 0.45 0.0
C1019 C 0.31456 0.28862 0.52485 0.0
O1020 O 0.32016 0.26984 0.55935 0.0
H1021 H 0.40428 0.18908 0.57824 0.0
H1022 H 0.4611 0.29253 0.5248 0.0
N1023 N 0.35013 0.18627 0.50348 0.0
N1024 N 0.3194 0.12687 0.48719 0.0
C1025 C 0.3432 0.15898 0.47405 0.0
C1026 C 0.32895 0.17118 0.53601 0.0
C1027 C 0.31012 0.13414 0.5261 0.0
C1028 C 0.44256 0.20125 0.44198 0.0
O1029 O 0.44319 0.1701 0.46671 0.0
H1030 H 0.35497 0.16284 0.44358 0.0
H1031 H 0.32679 0.18626 0.5648 0.0
O1032 O 0.33896 0.27919 0.49502 0.0
H1033 H 0.50728 0.27525 0.59166 0.0
H1034 H 0.29019 0.11489 0.54547 0.0
Cu1035 Cu 0.19921 0.35983 0.54885 0.0
N1036 N 0.19432 0.38878 0.4999 0.0
N1037 N 0.20436 0.43328 0.44941 0.0
C1038 C 0.21803 0.42122 0.48643 0.0
C1039 C 0.1714 0.40716 0.43907 0.0
C1040 C 0.16537 0.3799 0.47012 0.0
O1041 O 0.20029 0.39522 0.59588 0.0
C1042 C 0.27799 0.31809 0.52019 0.0
O1043 O 0.2699 0.33452 0.48494 0.0
H1044 H 0.24452 0.43574 0.50345 0.0
H1045 H 0.14146 0.35519 0.47092 0.0
N1046 N 0.14919 0.32608 0.55708 0.0
N1047 N 0.107 0.27632 0.58359 0.0
C1048 C 0.14888 0.28921 0.57496 0.0
C1049 C 0.10604 0.33694 0.55468 0.0
C1050 C 0.07987 0.30615 0.57061 0.0
C1051 C 0.1936 0.43342 0.59764 0.0
O1052 O 0.18762 0.45436 0.56444 0.0
H1053 H 0.17895 0.27336 0.58374 0.0
H1054 H 0.09459 0.3662 0.54408 0.0
O1055 O 0.25252 0.32562 0.54986 0.0
H1056 H 0.15264 0.40791 0.41118 0.0
H1057 H 1.04407 0.30679 0.57461 0.0
Cu1058 Cu 0.73047 0.22662 0.56516 0.0
N1059 N 0.69071 0.23632 0.52319 0.0
N1060 N 0.65207 0.2296 0.46648 0.0
C1061 C 0.68821 0.21763 0.48731 0.0
C1062 C 0.63066 0.2566 0.48975 0.0
C1063 C 0.65489 0.26084 0.52485 0.0
O1064 O 0.69451 0.22114 0.61382 0.0
C1065 C 0.79943 0.27957 0.53939 0.0
O1066 O 0.79621 0.25816 0.50621 0.0
H1067 H 0.71069 0.19422 0.47748 0.0
H1068 H 0.64619 0.27934 0.55049 0.0
N1069 N 0.76103 0.17801 0.55757 0.0
N1070 N 0.7929 0.11927 0.57355 0.0
C1071 C 0.76963 0.15125 0.58707 0.0
C1072 C 0.78037 0.16261 0.52436 0.0
C1073 C 0.79999 0.12602 0.53414 0.0
C1074 C 0.67008 0.18986 0.62044 0.0
O1075 O 0.6692 0.15989 0.59439 0.0
H1076 H 0.7598 0.15571 0.61799 0.0
H1077 H 0.78158 0.17742 0.49538 0.0
O1078 O 0.77366 0.27141 0.5688 0.0
H1079 H 0.5995 0.27131 0.48234 0.0
H1080 H 0.81938 0.10696 0.51437 0.0
Cu1081 Cu 0.39809 0.82588 0.55864 0.0
N1082 N 0.43859 0.8155 0.51768 0.0
N1083 N 0.47283 0.82178 0.45876 0.0
C1084 C 0.4335 0.82319 0.47817 0.0
C1085 C 0.50363 0.81186 0.48665 0.0
C1086 C 0.48228 0.80787 0.52305 0.0
O1087 O 0.43255 0.83162 0.6086 0.0
C1088 C 0.31887 0.78191 0.53802 0.0
O1089 O 0.31417 0.81088 0.51115 0.0
H1090 H 0.40253 0.83316 0.46475 0.0
H1091 H 0.49799 0.80289 0.55195 0.0
N1092 N 0.37103 0.87575 0.54951 0.0
N1093 N 0.3399 0.93421 0.56672 0.0
C1094 C 0.34754 0.89544 0.57755 0.0
C1095 C 0.37817 0.90302 0.51983 0.0
C1096 C 0.35864 0.93931 0.53033 0.0
C1097 C 0.45268 0.86473 0.61804 0.0
O1098 O 0.44992 0.8965 0.59425 0.0
H1099 H 0.3393 0.88234 0.60644 0.0
H1100 H 0.3989 0.8982 0.49385 0.0
O1101 O 0.35268 0.78253 0.5615 0.0
H1102 H 0.53919 0.81026 0.48168 0.0
H1103 H 0.36045 0.9676 0.51377 0.0
loop_
_geom_bond_atom_site_label_1
_geom_bond_atom_site_label_2
_geom_bond_distance
_geom_bond_site_symmetry_2
_ccdc_geom_bond_type
Cu0 N1 1.999 . S
Cu0 O6 1.974 1_455 S
Cu0 N11 1.985 1_455 S
Cu0 O20 1.959 . S
N1 Cu0 1.999 . S
N1 C3 1.263 . S
N1 C5 1.389 . S
N2 C3 1.358 . S
N2 C4 1.400 . S
C3 N1 1.263 . S
C3 N2 1.358 . S
C3 H9 0.930 . S
C4 N2 1.400 . S
C4 C5 1.351 . S
C4 H21 0.930 . S
C5 N1 1.389 . S
C5 C4 1.351 . S
C5 H10 0.930 . S
O6 Cu0 1.974 1_655 S
O6 C16 1.282 . S
C7 O8 1.261 . S
C7 O20 1.251 . S
O8 C7 1.261 . S
H9 C3 0.930 . S
H10 C5 0.930 . S
N11 Cu0 1.985 1_655 S
N11 C13 1.335 1_655 S
N11 C14 1.390 . S
N12 C13 1.345 1_655 S
N12 C15 1.336 . S
C13 N11 1.335 1_455 S
C13 N12 1.345 1_455 S
C13 H18 0.930 . S
C14 N11 1.390 . S
C14 C15 1.346 . S
C14 H19 0.930 . S
C15 N12 1.336 . S
C15 C14 1.346 . S
C15 H22 0.929 . S
C16 O6 1.282 . S
C16 O17 1.216 . S
O17 C16 1.216 . S
H18 C13 0.930 . S
H19 C14 0.930 . S
O20 Cu0 1.959 . S
O20 C7 1.251 . S
H21 C4 0.930 . S
H22 C15 0.929 . S
Cu23 N24 1.999 1_545 S
Cu23 O29 1.974 . S
Cu23 N34 1.985 . S
Cu23 O43 1.959 1_545 S
N24 Cu23 1.999 1_565 S
N24 C26 1.263 . S
N24 C28 1.389 . S
N25 C26 1.358 . S
N25 C27 1.400 . S
C26 N24 1.263 . S
C26 N25 1.358 . S
C26 H32 0.930 . S
C27 N25 1.400 . S
C27 C28 1.351 . S
C27 H44 0.930 . S
C28 N24 1.389 . S
C28 C27 1.351 . S
C28 H33 0.930 . S
O29 Cu23 1.974 . S
O29 C39 1.282 . S
C30 O31 1.261 1_565 S
C30 O43 1.251 . S
O31 C30 1.261 1_545 S
H32 C26 0.930 . S
H33 C28 0.930 . S
N34 Cu23 1.985 . S
N34 C36 1.335 . S
N34 C37 1.390 . S
N35 C36 1.345 . S
N35 C38 1.336 . S
C36 N34 1.335 . S
C36 N35 1.345 . S
C36 H41 0.930 . S
C37 N34 1.390 . S
C37 C38 1.346 . S
C37 H42 0.930 . S
C38 N35 1.336 . S
C38 C37 1.346 . S
C38 H45 0.929 . S
C39 O29 1.282 . S
C39 O40 1.216 . S
O40 C39 1.216 . S
H41 C36 0.930 . S
H42 C37 0.930 . S
O43 Cu23 1.959 1_565 S
O43 C30 1.251 . S
H44 C27 0.930 . S
H45 C38 0.929 . S
Cu46 N47 1.999 . S
Cu46 O52 1.974 1_655 S
Cu46 N57 1.985 1_655 S
Cu46 O66 1.959 . S
N47 Cu46 1.999 . S
N47 C49 1.263 . S
N47 C51 1.389 . S
N48 C49 1.358 . S
N48 C50 1.400 . S
C49 N47 1.263 . S
C49 N48 1.358 . S
C49 H55 0.930 . S
C50 N48 1.400 . S
C50 C51 1.351 . S
C50 H67 0.930 . S
C51 N47 1.389 . S
C51 C50 1.351 . S
C51 H56 0.930 . S
O52 Cu46 1.974 1_455 S
O52 C62 1.282 . S
C53 O54 1.261 . S
C53 O66 1.251 . S
O54 C53 1.261 . S
H55 C49 0.930 . S
H56 C51 0.930 . S
N57 Cu46 1.985 1_455 S
N57 C59 1.335 1_455 S
N57 C60 1.390 . S
N58 C59 1.345 1_455 S
N58 C61 1.336 . S
C59 N57 1.335 1_655 S
C59 N58 1.345 1_655 S
C59 H64 0.930 . S
C60 N57 1.390 . S
C60 C61 1.346 . S
C60 H65 0.930 . S
C61 N58 1.336 . S
C61 C60 1.346 . S
C61 H68 0.929 . S
C62 O52 1.282 . S
C62 O63 1.216 . S
O63 C62 1.216 . S
H64 C59 0.930 . S
H65 C60 0.930 . S
O66 Cu46 1.959 . S
O66 C53 1.251 . S
H67 C50 0.930 . S
H68 C61 0.929 . S
Cu69 N70 1.999 1_565 S
Cu69 O75 1.974 . S
Cu69 N80 1.985 . S
Cu69 O89 1.959 1_565 S
N70 Cu69 1.999 1_545 S
N70 C72 1.263 . S
N70 C74 1.389 . S
N71 C72 1.358 . S
N71 C73 1.400 . S
C72 N70 1.263 . S
C72 N71 1.358 . S
C72 H78 0.930 . S
C73 N71 1.400 . S
C73 C74 1.351 . S
C73 H90 0.930 . S
C74 N70 1.389 . S
C74 C73 1.351 . S
C74 H79 0.930 . S
O75 Cu69 1.974 . S
O75 C85 1.282 . S
C76 O77 1.261 1_545 S
C76 O89 1.251 . S
O77 C76 1.261 1_565 S
H78 C72 0.930 . S
H79 C74 0.930 . S
N80 Cu69 1.985 . S
N80 C82 1.335 . S
N80 C83 1.390 . S
N81 C82 1.345 . S
N81 C84 1.336 . S
C82 N80 1.335 . S
C82 N81 1.345 . S
C82 H87 0.930 . S
C83 N80 1.390 . S
C83 C84 1.346 . S
C83 H88 0.930 . S
C84 N81 1.336 . S
C84 C83 1.346 . S
C84 H91 0.929 . S
C85 O75 1.282 . S
C85 O86 1.216 . S
O86 C85 1.216 . S
H87 C82 0.930 . S
H88 C83 0.930 . S
O89 Cu69 1.959 1_545 S
O89 C76 1.251 . S
H90 C73 0.930 . S
H91 C84 0.929 . S
Cu92 N93 1.999 . S
Cu92 O98 1.974 1_455 S
Cu92 N103 1.985 1_455 S
Cu92 O112 1.959 . S
N93 Cu92 1.999 . S
N93 C95 1.263 . S
N93 C97 1.389 . S
N94 C95 1.358 . S
N94 C96 1.400 . S
C95 N93 1.263 . S
C95 N94 1.358 . S
C95 H101 0.930 . S
C96 N94 1.400 . S
C96 C97 1.351 . S
C96 H113 0.930 . S
C97 N93 1.389 . S
C97 C96 1.351 . S
C97 H102 0.930 . S
O98 Cu92 1.974 1_655 S
O98 C108 1.282 . S
C99 O100 1.261 . S
C99 O112 1.251 . S
O100 C99 1.261 . S
H101 C95 0.930 . S
H102 C97 0.930 . S
N103 Cu92 1.985 1_655 S
N103 C105 1.335 1_655 S
N103 C106 1.390 . S
N104 C105 1.345 1_655 S
N104 C107 1.336 . S
C105 N103 1.335 1_455 S
C105 N104 1.345 1_455 S
C105 H110 0.930 . S
C106 N103 1.390 . S
C106 C107 1.346 . S
C106 H111 0.930 . S
C107 N104 1.336 . S
C107 C106 1.346 . S
C107 H114 0.929 . S
C108 O98 1.282 . S
C108 O109 1.216 . S
O109 C108 1.216 . S
H110 C105 0.930 . S
H111 C106 0.930 . S
O112 Cu92 1.959 . S
O112 C99 1.251 . S
H113 C96 0.930 . S
H114 C107 0.929 . S
Cu115 N116 1.999 1_545 S
Cu115 O121 1.974 . S
Cu115 N126 1.985 . S
Cu115 O135 1.959 1_545 S
N116 Cu115 1.999 1_565 S
N116 C118 1.263 . S
N116 C120 1.389 . S
N117 C118 1.358 . S
N117 C119 1.400 . S
C118 N116 1.263 . S
C118 N117 1.358 . S
C118 H124 0.930 . S
C119 N117 1.400 . S
C119 C120 1.351 . S
C119 H136 0.930 . S
C120 N116 1.389 . S
C120 C119 1.351 . S
C120 H125 0.930 . S
O121 Cu115 1.974 . S
O121 C131 1.282 . S
C122 O123 1.261 1_565 S
C122 O135 1.251 . S
O123 C122 1.261 1_545 S
H124 C118 0.930 . S
H125 C120 0.930 . S
N126 Cu115 1.985 . S
N126 C128 1.335 . S
N126 C129 1.390 . S
N127 C128 1.345 . S
N127 C130 1.336 . S
C128 N126 1.335 . S
C128 N127 1.345 . S
C128 H133 0.930 . S
C129 N126 1.390 . S
C129 C130 1.346 . S
C129 H134 0.930 . S
C130 N127 1.336 . S
C130 C129 1.346 . S
C130 H137 0.929 . S
C131 O121 1.282 . S
C131 O132 1.216 . S
O132 C131 1.216 . S
H133 C128 0.930 . S
H134 C129 0.930 . S
O135 Cu115 1.959 1_565 S
O135 C122 1.251 . S
H136 C119 0.930 . S
H137 C130 0.929 . S
Cu138 N139 1.999 . S
Cu138 O144 1.974 1_655 S
Cu138 N149 1.985 1_655 S
Cu138 O158 1.959 . S
N139 Cu138 1.999 . S
N139 C141 1.263 . S
N139 C143 1.389 . S
N140 C141 1.358 . S
N140 C142 1.400 . S
C141 N139 1.263 . S
C141 N140 1.358 . S
C141 H147 0.930 . S
C142 N140 1.400 . S
C142 C143 1.351 . S
C142 H159 0.930 . S
C143 N139 1.389 . S
C143 C142 1.351 . S
C143 H148 0.930 . S
O144 Cu138 1.974 1_455 S
O144 C154 1.282 . S
C145 O146 1.261 . S
C145 O158 1.251 . S
O146 C145 1.261 . S
H147 C141 0.930 . S
H148 C143 0.930 . S
N149 Cu138 1.985 1_455 S
N149 C151 1.335 1_455 S
N149 C152 1.390 . S
N150 C151 1.345 1_455 S
N150 C153 1.336 . S
C151 N149 1.335 1_655 S
C151 N150 1.345 1_655 S
C151 H156 0.930 . S
C152 N149 1.390 . S
C152 C153 1.346 . S
C152 H157 0.930 . S
C153 N150 1.336 . S
C153 C152 1.346 . S
C153 H160 0.929 . S
C154 O144 1.282 . S
C154 O155 1.216 . S
O155 C154 1.216 . S
H156 C151 0.930 . S
H157 C152 0.930 . S
O158 Cu138 1.959 . S
O158 C145 1.251 . S
H159 C142 0.930 . S
H160 C153 0.929 . S
Cu161 N162 1.999 1_565 S
Cu161 O167 1.974 . S
Cu161 N172 1.985 . S
Cu161 O181 1.959 1_565 S
N162 Cu161 1.999 1_545 S
N162 C164 1.263 . S
N162 C166 1.389 . S
N163 C164 1.358 . S
N163 C165 1.400 . S
C164 N162 1.263 . S
C164 N163 1.358 . S
C164 H170 0.930 . S
C165 N163 1.400 . S
C165 C166 1.351 . S
C165 H182 0.930 . S
C166 N162 1.389 . S
C166 C165 1.351 . S
C166 H171 0.930 . S
O167 Cu161 1.974 . S
O167 C177 1.282 . S
C168 O169 1.261 1_545 S
C168 O181 1.251 . S
O169 C168 1.261 1_565 S
H170 C164 0.930 . S
H171 C166 0.930 . S
N172 Cu161 1.985 . S
N172 C174 1.335 . S
N172 C175 1.390 . S
N173 C174 1.345 . S
N173 C176 1.336 . S
C174 N172 1.335 . S
C174 N173 1.345 . S
C174 H179 0.930 . S
C175 N172 1.390 . S
C175 C176 1.346 . S
C175 H180 0.930 . S
C176 N173 1.336 . S
C176 C175 1.346 . S
C176 H183 0.929 . S
C177 O167 1.282 . S
C177 O178 1.216 . S
O178 C177 1.216 . S
H179 C174 0.930 . S
H180 C175 0.930 . S
O181 Cu161 1.959 1_545 S
O181 C168 1.251 . S
H182 C165 0.930 . S
H183 C176 0.929 . S
Cu184 N185 1.999 . S
Cu184 O190 1.974 . S
Cu184 N195 1.985 . S
Cu184 O204 1.959 . S
N185 Cu184 1.999 . S
N185 C187 1.263 . S
N185 C189 1.389 1_545 S
N186 C187 1.358 1_565 S
N186 C188 1.400 . S
C187 N185 1.263 . S
C187 N186 1.358 1_545 S
C187 H193 0.930 . S
C188 N186 1.400 . S
C188 C189 1.351 . S
C188 H205 0.930 . S
C189 N185 1.389 1_565 S
C189 C188 1.351 . S
C189 H194 0.930 . S
O190 Cu184 1.974 . S
O190 C200 1.282 . S
C191 O192 1.261 . S
C191 O204 1.251 . S
O192 C191 1.261 . S
H193 C187 0.930 . S
H194 C189 0.930 . S
N195 Cu184 1.985 . S
N195 C197 1.335 . S
N195 C198 1.390 . S
N196 C197 1.345 . S
N196 C199 1.336 . S
C197 N195 1.335 . S
C197 N196 1.345 . S
C197 H202 0.930 . S
C198 N195 1.390 . S
C198 C199 1.346 . S
C198 H203 0.930 . S
C199 N196 1.336 . S
C199 C198 1.346 . S
C199 H206 0.929 . S
C200 O190 1.282 . S
C200 O201 1.216 . S
O201 C200 1.216 . S
H202 C197 0.930 . S
H203 C198 0.930 . S
O204 Cu184 1.959 . S
O204 C191 1.251 . S
H205 C188 0.930 . S
H206 C199 0.929 . S
Cu207 N208 1.999 . S
Cu207 O213 1.974 1_655 S
Cu207 N218 1.985 1_655 S
Cu207 O227 1.959 . S
N208 Cu207 1.999 . S
N208 C210 1.263 . S
N208 C212 1.389 . S
N209 C210 1.358 . S
N209 C211 1.400 . S
C210 N208 1.263 . S
C210 N209 1.358 . S
C210 H216 0.930 . S
C211 N209 1.400 . S
C211 C212 1.351 . S
C211 H228 0.930 . S
C212 N208 1.389 . S
C212 C211 1.351 . S
C212 H217 0.930 . S
O213 Cu207 1.974 1_455 S
O213 C223 1.282 . S
C214 O215 1.261 . S
C214 O227 1.251 . S
O215 C214 1.261 . S
H216 C210 0.930 . S
H217 C212 0.930 . S
N218 Cu207 1.985 1_455 S
N218 C220 1.335 1_455 S
N218 C221 1.390 . S
N219 C220 1.345 1_455 S
N219 C222 1.336 . S
C220 N218 1.335 1_655 S
C220 N219 1.345 1_655 S
C220 H225 0.930 . S
C221 N218 1.390 . S
C221 C222 1.346 . S
C221 H226 0.930 . S
C222 N219 1.336 . S
C222 C221 1.346 . S
C222 H229 0.929 . S
C223 O213 1.282 . S
C223 O224 1.216 . S
O224 C223 1.216 . S
H225 C220 0.930 . S
H226 C221 0.930 . S
O227 Cu207 1.959 . S
O227 C214 1.251 . S
H228 C211 0.930 . S
H229 C222 0.929 . S
Cu230 N231 1.999 . S
Cu230 O236 1.974 . S
Cu230 N241 1.985 . S
Cu230 O250 1.959 . S
N231 Cu230 1.999 . S
N231 C233 1.263 . S
N231 C235 1.389 1_565 S
N232 C233 1.358 1_545 S
N232 C234 1.400 . S
C233 N231 1.263 . S
C233 N232 1.358 1_565 S
C233 H239 0.930 . S
C234 N232 1.400 . S
C234 C235 1.351 . S
C234 H251 0.930 . S
C235 N231 1.389 1_545 S
C235 C234 1.351 . S
C235 H240 0.930 . S
O236 Cu230 1.974 . S
O236 C246 1.282 . S
C237 O238 1.261 . S
C237 O250 1.251 . S
O238 C237 1.261 . S
H239 C233 0.930 . S
H240 C235 0.930 . S
N241 Cu230 1.985 . S
N241 C243 1.335 . S
N241 C244 1.390 . S
N242 C243 1.345 . S
N242 C245 1.336 . S
C243 N241 1.335 . S
C243 N242 1.345 . S
C243 H248 0.930 . S
C244 N241 1.390 . S
C244 C245 1.346 . S
C244 H249 0.930 . S
C245 N242 1.336 . S
C245 C244 1.346 . S
C245 H252 0.929 . S
C246 O236 1.282 . S
C246 O247 1.216 . S
O247 C246 1.216 . S
H248 C243 0.930 . S
H249 C244 0.930 . S
O250 Cu230 1.959 . S
O250 C237 1.251 . S
H251 C234 0.930 . S
H252 C245 0.929 . S
Cu253 N254 1.999 . S
Cu253 O259 1.974 1_455 S
Cu253 N264 1.985 1_455 S
Cu253 O273 1.959 . S
N254 Cu253 1.999 . S
N254 C256 1.263 . S
N254 C258 1.389 . S
N255 C256 1.358 . S
N255 C257 1.400 . S
C256 N254 1.263 . S
C256 N255 1.358 . S
C256 H262 0.930 . S
C257 N255 1.400 . S
C257 C258 1.351 . S
C257 H274 0.930 . S
C258 N254 1.389 . S
C258 C257 1.351 . S
C258 H263 0.930 . S
O259 Cu253 1.974 1_655 S
O259 C269 1.282 . S
C260 O261 1.261 . S
C260 O273 1.251 . S
O261 C260 1.261 . S
H262 C256 0.930 . S
H263 C258 0.930 . S
N264 Cu253 1.985 1_655 S
N264 C266 1.335 1_655 S
N264 C267 1.390 . S
N265 C266 1.345 1_655 S
N265 C268 1.336 . S
C266 N264 1.335 1_455 S
C266 N265 1.345 1_455 S
C266 H271 0.930 . S
C267 N264 1.390 . S
C267 C268 1.346 . S
C267 H272 0.930 . S
C268 N265 1.336 . S
C268 C267 1.346 . S
C268 H275 0.929 . S
C269 O259 1.282 . S
C269 O270 1.216 . S
O270 C269 1.216 . S
H271 C266 0.930 . S
H272 C267 0.930 . S
O273 Cu253 1.959 . S
O273 C260 1.251 . S
H274 C257 0.930 . S
H275 C268 0.929 . S
Cu276 N277 1.999 . S
Cu276 O282 1.974 . S
Cu276 N287 1.985 . S
Cu276 O296 1.959 . S
N277 Cu276 1.999 . S
N277 C279 1.263 . S
N277 C281 1.389 1_565 S
N278 C279 1.358 1_545 S
N278 C280 1.400 . S
C279 N277 1.263 . S
C279 N278 1.358 1_565 S
C279 H285 0.930 . S
C280 N278 1.400 . S
C280 C281 1.351 . S
C280 H297 0.930 . S
C281 N277 1.389 1_545 S
C281 C280 1.351 . S
C281 H286 0.930 . S
O282 Cu276 1.974 . S
O282 C292 1.282 . S
C283 O284 1.261 . S
C283 O296 1.251 . S
O284 C283 1.261 . S
H285 C279 0.930 . S
H286 C281 0.930 . S
N287 Cu276 1.985 . S
N287 C289 1.335 . S
N287 C290 1.390 . S
N288 C289 1.345 . S
N288 C291 1.336 . S
C289 N287 1.335 . S
C289 N288 1.345 . S
C289 H294 0.930 . S
C290 N287 1.390 . S
C290 C291 1.346 . S
C290 H295 0.930 . S
C291 N288 1.336 . S
C291 C290 1.346 . S
C291 H298 0.929 . S
C292 O282 1.282 . S
C292 O293 1.216 . S
O293 C292 1.216 . S
H294 C289 0.930 . S
H295 C290 0.930 . S
O296 Cu276 1.959 . S
O296 C283 1.251 . S
H297 C280 0.930 . S
H298 C291 0.929 . S
Cu299 N300 1.999 . S
Cu299 O305 1.974 1_455 S
Cu299 N310 1.985 1_455 S
Cu299 O319 1.959 . S
N300 Cu299 1.999 . S
N300 C302 1.263 . S
N300 C304 1.389 . S
N301 C302 1.358 . S
N301 C303 1.400 . S
C302 N300 1.263 . S
C302 N301 1.358 . S
C302 H308 0.930 . S
C303 N301 1.400 . S
C303 C304 1.351 . S
C303 H320 0.930 . S
C304 N300 1.389 . S
C304 C303 1.351 . S
C304 H309 0.930 . S
O305 Cu299 1.974 1_655 S
O305 C315 1.282 . S
C306 O307 1.261 . S
C306 O319 1.251 . S
O307 C306 1.261 . S
H308 C302 0.930 . S
H309 C304 0.930 . S
N310 Cu299 1.985 1_655 S
N310 C312 1.335 1_655 S
N310 C313 1.390 . S
N311 C312 1.345 1_655 S
N311 C314 1.336 . S
C312 N310 1.335 1_455 S
C312 N311 1.345 1_455 S
C312 H317 0.930 . S
C313 N310 1.390 . S
C313 C314 1.346 . S
C313 H318 0.930 . S
C314 N311 1.336 . S
C314 C313 1.346 . S
C314 H321 0.929 . S
C315 O305 1.282 . S
C315 O316 1.216 . S
O316 C315 1.216 . S
H317 C312 0.930 . S
H318 C313 0.930 . S
O319 Cu299 1.959 . S
O319 C306 1.251 . S
H320 C303 0.930 . S
H321 C314 0.929 . S
Cu322 N323 1.999 . S
Cu322 O328 1.974 . S
Cu322 N333 1.985 . S
Cu322 O342 1.959 . S
N323 Cu322 1.999 . S
N323 C325 1.263 . S
N323 C327 1.389 1_545 S
N324 C325 1.358 1_565 S
N324 C326 1.400 . S
C325 N323 1.263 . S
C325 N324 1.358 1_545 S
C325 H331 0.930 . S
C326 N324 1.400 . S
C326 C327 1.351 . S
C326 H343 0.930 . S
C327 N323 1.389 1_565 S
C327 C326 1.351 . S
C327 H332 0.930 . S
O328 Cu322 1.974 . S
O328 C338 1.282 . S
C329 O330 1.261 . S
C329 O342 1.251 . S
O330 C329 1.261 . S
H331 C325 0.930 . S
H332 C327 0.930 . S
N333 Cu322 1.985 . S
N333 C335 1.335 . S
N333 C336 1.390 . S
N334 C335 1.345 . S
N334 C337 1.336 . S
C335 N333 1.335 . S
C335 N334 1.345 . S
C335 H340 0.930 . S
C336 N333 1.390 . S
C336 C337 1.346 . S
C336 H341 0.930 . S
C337 N334 1.336 . S
C337 C336 1.346 . S
C337 H344 0.929 . S
C338 O328 1.282 . S
C338 O339 1.216 . S
O339 C338 1.216 . S
H340 C335 0.930 . S
H341 C336 0.930 . S
O342 Cu322 1.959 . S
O342 C329 1.251 . S
H343 C326 0.930 . S
H344 C337 0.929 . S
Cu345 N346 1.999 . S
Cu345 O351 1.974 1_655 S
Cu345 N356 1.985 1_655 S
Cu345 O365 1.959 . S
N346 Cu345 1.999 . S
N346 C348 1.263 . S
N346 C350 1.389 . S
N347 C348 1.358 . S
N347 C349 1.400 . S
C348 N346 1.263 . S
C348 N347 1.358 . S
C348 H354 0.930 . S
C349 N347 1.400 . S
C349 C350 1.351 . S
C349 H366 0.930 . S
C350 N346 1.389 . S
C350 C349 1.351 . S
C350 H355 0.930 . S
O351 Cu345 1.974 1_455 S
O351 C361 1.282 . S
C352 O353 1.261 . S
C352 O365 1.251 . S
O353 C352 1.261 . S
H354 C348 0.930 . S
H355 C350 0.930 . S
N356 Cu345 1.985 1_455 S
N356 C358 1.335 1_455 S
N356 C359 1.390 . S
N357 C358 1.345 1_455 S
N357 C360 1.336 . S
C358 N356 1.335 1_655 S
C358 N357 1.345 1_655 S
C358 H363 0.930 . S
C359 N356 1.390 . S
C359 C360 1.346 . S
C359 H364 0.930 . S
C360 N357 1.336 . S
C360 C359 1.346 . S
C360 H367 0.929 . S
C361 O351 1.282 . S
C361 O362 1.216 . S
O362 C361 1.216 . S
H363 C358 0.930 . S
H364 C359 0.930 . S
O365 Cu345 1.959 . S
O365 C352 1.251 . S
H366 C349 0.930 . S
H367 C360 0.929 . S
Cu368 N369 1.999 1_554 S
Cu368 O374 1.974 . S
Cu368 N379 1.985 . S
Cu368 O388 1.959 1_554 S
N369 Cu368 1.999 1_556 S
N369 C371 1.263 . S
N369 C373 1.389 . S
N370 C371 1.358 . S
N370 C372 1.400 . S
C371 N369 1.263 . S
C371 N370 1.358 . S
C371 H377 0.930 . S
C372 N370 1.400 . S
C372 C373 1.351 . S
C372 H389 0.930 . S
C373 N369 1.389 . S
C373 C372 1.351 . S
C373 H378 0.930 . S
O374 Cu368 1.974 . S
O374 C384 1.282 . S
C375 O376 1.261 1_556 S
C375 O388 1.251 . S
O376 C375 1.261 1_554 S
H377 C371 0.930 . S
H378 C373 0.930 . S
N379 Cu368 1.985 . S
N379 C381 1.335 . S
N379 C382 1.390 . S
N380 C381 1.345 . S
N380 C383 1.336 . S
C381 N379 1.335 . S
C381 N380 1.345 . S
C381 H386 0.930 . S
C382 N379 1.390 . S
C382 C383 1.346 . S
C382 H387 0.930 . S
C383 N380 1.336 . S
C383 C382 1.346 . S
C383 H390 0.929 . S
C384 O374 1.282 . S
C384 O385 1.216 . S
O385 C384 1.216 . S
H386 C381 0.930 . S
H387 C382 0.930 . S
O388 Cu368 1.959 1_556 S
O388 C375 1.251 . S
H389 C372 0.930 . S
H390 C383 0.929 . S
Cu391 N392 1.999 1_556 S
Cu391 O397 1.974 . S
Cu391 N402 1.985 . S
Cu391 O411 1.959 1_556 S
N392 Cu391 1.999 1_554 S
N392 C394 1.263 . S
N392 C396 1.389 . S
N393 C394 1.358 . S
N393 C395 1.400 . S
C394 N392 1.263 . S
C394 N393 1.358 . S
C394 H400 0.930 . S
C395 N393 1.400 . S
C395 C396 1.351 . S
C395 H412 0.930 . S
C396 N392 1.389 . S
C396 C395 1.351 . S
C396 H401 0.930 . S
O397 Cu391 1.974 . S
O397 C407 1.282 . S
C398 O399 1.261 1_554 S
C398 O411 1.251 . S
O399 C398 1.261 1_556 S
H400 C394 0.930 . S
H401 C396 0.930 . S
N402 Cu391 1.985 . S
N402 C404 1.335 . S
N402 C405 1.390 . S
N403 C404 1.345 . S
N403 C406 1.336 . S
C404 N402 1.335 . S
C404 N403 1.345 . S
C404 H409 0.930 . S
C405 N402 1.390 . S
C405 C406 1.346 . S
C405 H410 0.930 . S
C406 N403 1.336 . S
C406 C405 1.346 . S
C406 H413 0.929 . S
C407 O397 1.282 . S
C407 O408 1.216 . S
O408 C407 1.216 . S
H409 C404 0.930 . S
H410 C405 0.930 . S
O411 Cu391 1.959 1_554 S
O411 C398 1.251 . S
H412 C395 0.930 . S
H413 C406 0.929 . S
Cu414 N415 1.999 . S
Cu414 O420 1.974 . S
Cu414 N425 1.985 . S
Cu414 O434 1.959 . S
N415 Cu414 1.999 . S
N415 C417 1.263 . S
N415 C419 1.389 1_556 S
N416 C417 1.358 1_554 S
N416 C418 1.400 . S
C417 N415 1.263 . S
C417 N416 1.358 1_556 S
C417 H423 0.930 . S
C418 N416 1.400 . S
C418 C419 1.351 . S
C418 H435 0.930 . S
C419 N415 1.389 1_554 S
C419 C418 1.351 . S
C419 H424 0.930 . S
O420 Cu414 1.974 . S
O420 C430 1.282 . S
C421 O422 1.261 . S
C421 O434 1.251 . S
O422 C421 1.261 . S
H423 C417 0.930 . S
H424 C419 0.930 . S
N425 Cu414 1.985 . S
N425 C427 1.335 . S
N425 C428 1.390 . S
N426 C427 1.345 . S
N426 C429 1.336 . S
C427 N425 1.335 . S
C427 N426 1.345 . S
C427 H432 0.930 . S
C428 N425 1.390 . S
C428 C429 1.346 . S
C428 H433 0.930 . S
C429 N426 1.336 . S
C429 C428 1.346 . S
C429 H436 0.929 . S
C430 O420 1.282 . S
C430 O431 1.216 . S
O431 C430 1.216 . S
H432 C427 0.930 . S
H433 C428 0.930 . S
O434 Cu414 1.959 . S
O434 C421 1.251 . S
H435 C418 0.930 . S
H436 C429 0.929 . S
Cu437 N438 1.999 1_556 S
Cu437 O443 1.974 . S
Cu437 N448 1.985 . S
Cu437 O457 1.959 1_556 S
N438 Cu437 1.999 1_554 S
N438 C440 1.263 . S
N438 C442 1.389 . S
N439 C440 1.358 . S
N439 C441 1.400 . S
C440 N438 1.263 . S
C440 N439 1.358 . S
C440 H446 0.930 . S
C441 N439 1.400 . S
C441 C442 1.351 . S
C441 H458 0.930 . S
C442 N438 1.389 . S
C442 C441 1.351 . S
C442 H447 0.930 . S
O443 Cu437 1.974 . S
O443 C453 1.282 . S
C444 O445 1.261 1_554 S
C444 O457 1.251 . S
O445 C444 1.261 1_556 S
H446 C440 0.930 . S
H447 C442 0.930 . S
N448 Cu437 1.985 . S
N448 C450 1.335 . S
N448 C451 1.390 . S
N449 C450 1.345 . S
N449 C452 1.336 . S
C450 N448 1.335 . S
C450 N449 1.345 . S
C450 H455 0.930 . S
C451 N448 1.390 . S
C451 C452 1.346 . S
C451 H456 0.930 . S
C452 N449 1.336 . S
C452 C451 1.346 . S
C452 H459 0.929 . S
C453 O443 1.282 . S
C453 O454 1.216 . S
O454 C453 1.216 . S
H455 C450 0.930 . S
H456 C451 0.930 . S
O457 Cu437 1.959 1_554 S
O457 C444 1.251 . S
H458 C441 0.930 . S
H459 C452 0.929 . S
Cu460 N461 1.999 . S
Cu460 O466 1.974 . S
Cu460 N471 1.985 . S
Cu460 O480 1.959 . S
N461 Cu460 1.999 . S
N461 C463 1.263 . S
N461 C465 1.389 1_556 S
N462 C463 1.358 1_554 S
N462 C464 1.400 . S
C463 N461 1.263 . S
C463 N462 1.358 1_556 S
C463 H469 0.930 . S
C464 N462 1.400 . S
C464 C465 1.351 . S
C464 H481 0.930 . S
C465 N461 1.389 1_554 S
C465 C464 1.351 . S
C465 H470 0.930 . S
O466 Cu460 1.974 . S
O466 C476 1.282 . S
C467 O468 1.261 . S
C467 O480 1.251 . S
O468 C467 1.261 . S
H469 C463 0.930 . S
H470 C465 0.930 . S
N471 Cu460 1.985 . S
N471 C473 1.335 . S
N471 C474 1.390 . S
N472 C473 1.345 . S
N472 C475 1.336 . S
C473 N471 1.335 . S
C473 N472 1.345 . S
C473 H478 0.930 . S
C474 N471 1.390 . S
C474 C475 1.346 . S
C474 H479 0.930 . S
C475 N472 1.336 . S
C475 C474 1.346 . S
C475 H482 0.929 . S
C476 O466 1.282 . S
C476 O477 1.216 . S
O477 C476 1.216 . S
H478 C473 0.930 . S
H479 C474 0.930 . S
O480 Cu460 1.959 . S
O480 C467 1.251 . S
H481 C464 0.930 . S
H482 C475 0.929 . S
Cu483 N484 1.999 1_554 S
Cu483 O489 1.974 . S
Cu483 N494 1.985 . S
Cu483 O503 1.959 1_554 S
N484 Cu483 1.999 1_556 S
N484 C486 1.263 . S
N484 C488 1.389 . S
N485 C486 1.358 . S
N485 C487 1.400 . S
C486 N484 1.263 . S
C486 N485 1.358 . S
C486 H492 0.930 . S
C487 N485 1.400 . S
C487 C488 1.351 . S
C487 H504 0.930 . S
C488 N484 1.389 . S
C488 C487 1.351 . S
C488 H493 0.930 . S
O489 Cu483 1.974 . S
O489 C499 1.282 . S
C490 O491 1.261 1_556 S
C490 O503 1.251 . S
O491 C490 1.261 1_554 S
H492 C486 0.930 . S
H493 C488 0.930 . S
N494 Cu483 1.985 . S
N494 C496 1.335 . S
N494 C497 1.390 . S
N495 C496 1.345 . S
N495 C498 1.336 . S
C496 N494 1.335 . S
C496 N495 1.345 . S
C496 H501 0.930 . S
C497 N494 1.390 . S
C497 C498 1.346 . S
C497 H502 0.930 . S
C498 N495 1.336 . S
C498 C497 1.346 . S
C498 H505 0.929 . S
C499 O489 1.282 . S
C499 O500 1.216 . S
O500 C499 1.216 . S
H501 C496 0.930 . S
H502 C497 0.930 . S
O503 Cu483 1.959 1_556 S
O503 C490 1.251 . S
H504 C487 0.930 . S
H505 C498 0.929 . S
Cu506 N507 1.999 . S
Cu506 O512 1.974 . S
Cu506 N517 1.985 . S
Cu506 O526 1.959 . S
N507 Cu506 1.999 . S
N507 C509 1.263 . S
N507 C511 1.389 1_554 S
N508 C509 1.358 1_556 S
N508 C510 1.400 . S
C509 N507 1.263 . S
C509 N508 1.358 1_554 S
C509 H515 0.930 . S
C510 N508 1.400 . S
C510 C511 1.351 . S
C510 H527 0.930 . S
C511 N507 1.389 1_556 S
C511 C510 1.351 . S
C511 H516 0.930 . S
O512 Cu506 1.974 . S
O512 C522 1.282 . S
C513 O514 1.261 . S
C513 O526 1.251 . S
O514 C513 1.261 . S
H515 C509 0.930 . S
H516 C511 0.930 . S
N517 Cu506 1.985 . S
N517 C519 1.335 . S
N517 C520 1.390 . S
N518 C519 1.345 . S
N518 C521 1.336 . S
C519 N517 1.335 . S
C519 N518 1.345 . S
C519 H524 0.930 . S
C520 N517 1.390 . S
C520 C521 1.346 . S
C520 H525 0.930 . S
C521 N518 1.336 . S
C521 C520 1.346 . S
C521 H528 0.929 . S
C522 O512 1.282 . S
C522 O523 1.216 . S
O523 C522 1.216 . S
H524 C519 0.930 . S
H525 C520 0.930 . S
O526 Cu506 1.959 . S
O526 C513 1.251 . S
H527 C510 0.930 . S
H528 C521 0.929 . S
Cu529 N530 1.999 . S
Cu529 O535 1.974 . S
Cu529 N540 1.985 . S
Cu529 O549 1.959 . S
N530 Cu529 1.999 . S
N530 C532 1.263 . S
N530 C534 1.389 1_554 S
N531 C532 1.358 1_556 S
N531 C533 1.400 . S
C532 N530 1.263 . S
C532 N531 1.358 1_554 S
C532 H538 0.930 . S
C533 N531 1.400 . S
C533 C534 1.351 . S
C533 H550 0.930 . S
C534 N530 1.389 1_556 S
C534 C533 1.351 . S
C534 H539 0.930 . S
O535 Cu529 1.974 . S
O535 C545 1.282 . S
C536 O537 1.261 . S
C536 O549 1.251 . S
O537 C536 1.261 . S
H538 C532 0.930 . S
H539 C534 0.930 . S
N540 Cu529 1.985 . S
N540 C542 1.335 . S
N540 C543 1.390 . S
N541 C542 1.345 . S
N541 C544 1.336 . S
C542 N540 1.335 . S
C542 N541 1.345 . S
C542 H547 0.930 . S
C543 N540 1.390 . S
C543 C544 1.346 . S
C543 H548 0.930 . S
C544 N541 1.336 . S
C544 C543 1.346 . S
C544 H551 0.929 . S
C545 O535 1.282 . S
C545 O546 1.216 . S
O546 C545 1.216 . S
H547 C542 0.930 . S
H548 C543 0.930 . S
O549 Cu529 1.959 . S
O549 C536 1.251 . S
H550 C533 0.930 . S
H551 C544 0.929 . S
Cu552 N553 1.999 . S
Cu552 O558 1.974 . S
Cu552 N563 1.985 . S
Cu552 O572 1.959 . S
N553 Cu552 1.999 . S
N553 C555 1.263 . S
N553 C557 1.389 . S
N554 C555 1.358 . S
N554 C556 1.400 . S
C555 N553 1.263 . S
C555 N554 1.358 . S
C555 H561 0.930 . S
C556 N554 1.400 . S
C556 C557 1.351 . S
C556 H573 0.930 . S
C557 N553 1.389 . S
C557 C556 1.351 . S
C557 H562 0.930 . S
O558 Cu552 1.974 . S
O558 C568 1.282 . S
C559 O560 1.261 . S
C559 O572 1.251 . S
O560 C559 1.261 . S
H561 C555 0.930 . S
H562 C557 0.930 . S
N563 Cu552 1.985 . S
N563 C565 1.335 . S
N563 C566 1.390 . S
N564 C565 1.345 . S
N564 C567 1.336 . S
C565 N563 1.335 . S
C565 N564 1.345 . S
C565 H570 0.930 . S
C566 N563 1.390 . S
C566 C567 1.346 . S
C566 H571 0.930 . S
C567 N564 1.336 . S
C567 C566 1.346 . S
C567 H574 0.929 . S
C568 O558 1.282 . S
C568 O569 1.216 . S
O569 C568 1.216 . S
H570 C565 0.930 . S
H571 C566 0.930 . S
O572 Cu552 1.959 . S
O572 C559 1.251 . S
H573 C556 0.930 . S
H574 C567 0.929 . S
Cu575 N576 1.999 . S
Cu575 O581 1.974 . S
Cu575 N586 1.985 . S
Cu575 O595 1.959 . S
N576 Cu575 1.999 . S
N576 C578 1.263 . S
N576 C580 1.389 . S
N577 C578 1.358 . S
N577 C579 1.400 . S
C578 N576 1.263 . S
C578 N577 1.358 . S
C578 H584 0.930 . S
C579 N577 1.400 . S
C579 C580 1.351 . S
C579 H596 0.930 . S
C580 N576 1.389 . S
C580 C579 1.351 . S
C580 H585 0.930 . S
O581 Cu575 1.974 . S
O581 C591 1.282 . S
C582 O583 1.261 . S
C582 O595 1.251 . S
O583 C582 1.261 . S
H584 C578 0.930 . S
H585 C580 0.930 . S
N586 Cu575 1.985 . S
N586 C588 1.335 . S
N586 C589 1.390 . S
N587 C588 1.345 . S
N587 C590 1.336 . S
C588 N586 1.335 . S
C588 N587 1.345 . S
C588 H593 0.930 . S
C589 N586 1.390 . S
C589 C590 1.346 . S
C589 H594 0.930 . S
C590 N587 1.336 . S
C590 C589 1.346 . S
C590 H597 0.929 . S
C591 O581 1.282 . S
C591 O592 1.216 . S
O592 C591 1.216 . S
H593 C588 0.930 . S
H594 C589 0.930 . S
O595 Cu575 1.959 . S
O595 C582 1.251 . S
H596 C579 0.930 . S
H597 C590 0.929 . S
Cu598 N599 1.999 . S
Cu598 O604 1.974 . S
Cu598 N609 1.985 . S
Cu598 O618 1.959 . S
N599 Cu598 1.999 . S
N599 C601 1.263 . S
N599 C603 1.389 . S
N600 C601 1.358 . S
N600 C602 1.400 . S
C601 N599 1.263 . S
C601 N600 1.358 . S
C601 H607 0.930 . S
C602 N600 1.400 . S
C602 C603 1.351 . S
C602 H619 0.930 . S
C603 N599 1.389 . S
C603 C602 1.351 . S
C603 H608 0.930 . S
O604 Cu598 1.974 . S
O604 C614 1.282 . S
C605 O606 1.261 . S
C605 O618 1.251 . S
O606 C605 1.261 . S
H607 C601 0.930 . S
H608 C603 0.930 . S
N609 Cu598 1.985 . S
N609 C611 1.335 . S
N609 C612 1.390 . S
N610 C611 1.345 . S
N610 C613 1.336 . S
C611 N609 1.335 . S
C611 N610 1.345 . S
C611 H616 0.930 . S
C612 N609 1.390 . S
C612 C613 1.346 . S
C612 H617 0.930 . S
C613 N610 1.336 . S
C613 C612 1.346 . S
C613 H620 0.929 . S
C614 O604 1.282 . S
C614 O615 1.216 . S
O615 C614 1.216 . S
H616 C611 0.930 . S
H617 C612 0.930 . S
O618 Cu598 1.959 . S
O618 C605 1.251 . S
H619 C602 0.930 . S
H620 C613 0.929 . S
Cu621 N622 1.999 . S
Cu621 O627 1.974 . S
Cu621 N632 1.985 . S
Cu621 O641 1.959 . S
N622 Cu621 1.999 . S
N622 C624 1.263 . S
N622 C626 1.389 . S
N623 C624 1.358 . S
N623 C625 1.400 . S
C624 N622 1.263 . S
C624 N623 1.358 . S
C624 H630 0.930 . S
C625 N623 1.400 . S
C625 C626 1.351 . S
C625 H642 0.930 . S
C626 N622 1.389 . S
C626 C625 1.351 . S
C626 H631 0.930 . S
O627 Cu621 1.974 . S
O627 C637 1.282 . S
C628 O629 1.261 . S
C628 O641 1.251 . S
O629 C628 1.261 . S
H630 C624 0.930 . S
H631 C626 0.930 . S
N632 Cu621 1.985 . S
N632 C634 1.335 . S
N632 C635 1.390 . S
N633 C634 1.345 . S
N633 C636 1.336 . S
C634 N632 1.335 . S
C634 N633 1.345 . S
C634 H639 0.930 . S
C635 N632 1.390 . S
C635 C636 1.346 . S
C635 H640 0.930 . S
C636 N633 1.336 . S
C636 C635 1.346 . S
C636 H643 0.929 . S
C637 O627 1.282 . S
C637 O638 1.216 . S
O638 C637 1.216 . S
H639 C634 0.930 . S
H640 C635 0.930 . S
O641 Cu621 1.959 . S
O641 C628 1.251 . S
H642 C625 0.930 . S
H643 C636 0.929 . S
Cu644 N645 1.999 . S
Cu644 O650 1.974 . S
Cu644 N655 1.985 . S
Cu644 O664 1.959 . S
N645 Cu644 1.999 . S
N645 C647 1.263 . S
N645 C649 1.389 . S
N646 C647 1.358 . S
N646 C648 1.400 . S
C647 N645 1.263 . S
C647 N646 1.358 . S
C647 H653 0.930 . S
C648 N646 1.400 . S
C648 C649 1.351 . S
C648 H665 0.930 . S
C649 N645 1.389 . S
C649 C648 1.351 . S
C649 H654 0.930 . S
O650 Cu644 1.974 . S
O650 C660 1.282 . S
C651 O652 1.261 . S
C651 O664 1.251 . S
O652 C651 1.261 . S
H653 C647 0.930 . S
H654 C649 0.930 . S
N655 Cu644 1.985 . S
N655 C657 1.335 . S
N655 C658 1.390 . S
N656 C657 1.345 . S
N656 C659 1.336 . S
C657 N655 1.335 . S
C657 N656 1.345 . S
C657 H662 0.930 . S
C658 N655 1.390 . S
C658 C659 1.346 . S
C658 H663 0.930 . S
C659 N656 1.336 . S
C659 C658 1.346 . S
C659 H666 0.929 . S
C660 O650 1.282 . S
C660 O661 1.216 . S
O661 C660 1.216 . S
H662 C657 0.930 . S
H663 C658 0.930 . S
O664 Cu644 1.959 . S
O664 C651 1.251 . S
H665 C648 0.930 . S
H666 C659 0.929 . S
Cu667 N668 1.999 . S
Cu667 O673 1.974 . S
Cu667 N678 1.985 . S
Cu667 O687 1.959 . S
N668 Cu667 1.999 . S
N668 C670 1.263 . S
N668 C672 1.389 . S
N669 C670 1.358 . S
N669 C671 1.400 . S
C670 N668 1.263 . S
C670 N669 1.358 . S
C670 H676 0.930 . S
C671 N669 1.400 . S
C671 C672 1.351 . S
C671 H688 0.930 . S
C672 N668 1.389 . S
C672 C671 1.351 . S
C672 H677 0.930 . S
O673 Cu667 1.974 . S
O673 C683 1.282 . S
C674 O675 1.261 . S
C674 O687 1.251 . S
O675 C674 1.261 . S
H676 C670 0.930 . S
H677 C672 0.930 . S
N678 Cu667 1.985 . S
N678 C680 1.335 . S
N678 C681 1.390 . S
N679 C680 1.345 . S
N679 C682 1.336 . S
C680 N678 1.335 . S
C680 N679 1.345 . S
C680 H685 0.930 . S
C681 N678 1.390 . S
C681 C682 1.346 . S
C681 H686 0.930 . S
C682 N679 1.336 . S
C682 C681 1.346 . S
C682 H689 0.929 . S
C683 O673 1.282 . S
C683 O684 1.216 . S
O684 C683 1.216 . S
H685 C680 0.930 . S
H686 C681 0.930 . S
O687 Cu667 1.959 . S
O687 C674 1.251 . S
H688 C671 0.930 . S
H689 C682 0.929 . S
Cu690 N691 1.999 . S
Cu690 O696 1.974 . S
Cu690 N701 1.985 . S
Cu690 O710 1.959 . S
N691 Cu690 1.999 . S
N691 C693 1.263 . S
N691 C695 1.389 . S
N692 C693 1.358 . S
N692 C694 1.400 . S
C693 N691 1.263 . S
C693 N692 1.358 . S
C693 H699 0.930 . S
C694 N692 1.400 . S
C694 C695 1.351 . S
C694 H711 0.930 . S
C695 N691 1.389 . S
C695 C694 1.351 . S
C695 H700 0.930 . S
O696 Cu690 1.974 . S
O696 C706 1.282 . S
C697 O698 1.261 . S
C697 O710 1.251 . S
O698 C697 1.261 . S
H699 C693 0.930 . S
H700 C695 0.930 . S
N701 Cu690 1.985 . S
N701 C703 1.335 . S
N701 C704 1.390 . S
N702 C703 1.345 . S
N702 C705 1.336 . S
C703 N701 1.335 . S
C703 N702 1.345 . S
C703 H708 0.930 . S
C704 N701 1.390 . S
C704 C705 1.346 . S
C704 H709 0.930 . S
C705 N702 1.336 . S
C705 C704 1.346 . S
C705 H712 0.929 . S
C706 O696 1.282 . S
C706 O707 1.216 . S
O707 C706 1.216 . S
H708 C703 0.930 . S
H709 C704 0.930 . S
O710 Cu690 1.959 . S
O710 C697 1.251 . S
H711 C694 0.930 . S
H712 C705 0.929 . S
Cu713 N714 1.999 . S
Cu713 O719 1.974 . S
Cu713 N724 1.985 . S
Cu713 O733 1.959 . S
N714 Cu713 1.999 . S
N714 C716 1.263 . S
N714 C718 1.389 . S
N715 C716 1.358 . S
N715 C717 1.400 . S
C716 N714 1.263 . S
C716 N715 1.358 . S
C716 H722 0.930 . S
C717 N715 1.400 . S
C717 C718 1.351 . S
C717 H734 0.930 . S
C718 N714 1.389 . S
C718 C717 1.351 . S
C718 H723 0.930 . S
O719 Cu713 1.974 . S
O719 C729 1.282 . S
C720 O721 1.261 . S
C720 O733 1.251 . S
O721 C720 1.261 . S
H722 C716 0.930 . S
H723 C718 0.930 . S
N724 Cu713 1.985 . S
N724 C726 1.335 . S
N724 C727 1.390 . S
N725 C726 1.345 . S
N725 C728 1.336 . S
C726 N724 1.335 . S
C726 N725 1.345 . S
C726 H731 0.930 . S
C727 N724 1.390 . S
C727 C728 1.346 . S
C727 H732 0.930 . S
C728 N725 1.336 . S
C728 C727 1.346 . S
C728 H735 0.929 . S
C729 O719 1.282 . S
C729 O730 1.216 . S
O730 C729 1.216 . S
H731 C726 0.930 . S
H732 C727 0.930 . S
O733 Cu713 1.959 . S
O733 C720 1.251 . S
H734 C717 0.930 . S
H735 C728 0.929 . S
Cu736 N737 1.999 . S
Cu736 O742 1.974 . S
Cu736 N747 1.985 . S
Cu736 O756 1.959 . S
N737 Cu736 1.999 . S
N737 C739 1.263 . S
N737 C741 1.389 . S
N738 C739 1.358 . S
N738 C740 1.400 . S
C739 N737 1.263 . S
C739 N738 1.358 . S
C739 H745 0.930 . S
C740 N738 1.400 . S
C740 C741 1.351 . S
C740 H757 0.930 . S
C741 N737 1.389 . S
C741 C740 1.351 . S
C741 H746 0.930 . S
O742 Cu736 1.974 . S
O742 C752 1.282 . S
C743 O744 1.261 . S
C743 O756 1.251 . S
O744 C743 1.261 . S
H745 C739 0.930 . S
H746 C741 0.930 . S
N747 Cu736 1.985 . S
N747 C749 1.335 . S
N747 C750 1.390 . S
N748 C749 1.345 . S
N748 C751 1.336 . S
C749 N747 1.335 . S
C749 N748 1.345 . S
C749 H754 0.930 . S
C750 N747 1.390 . S
C750 C751 1.346 . S
C750 H755 0.930 . S
C751 N748 1.336 . S
C751 C750 1.346 . S
C751 H758 0.929 . S
C752 O742 1.282 . S
C752 O753 1.216 . S
O753 C752 1.216 . S
H754 C749 0.930 . S
H755 C750 0.930 . S
O756 Cu736 1.959 . S
O756 C743 1.251 . S
H757 C740 0.930 . S
H758 C751 0.929 . S
Cu759 N760 1.999 . S
Cu759 O765 1.974 . S
Cu759 N770 1.985 . S
Cu759 O779 1.959 . S
N760 Cu759 1.999 . S
N760 C762 1.263 . S
N760 C764 1.389 . S
N761 C762 1.358 . S
N761 C763 1.400 . S
C762 N760 1.263 . S
C762 N761 1.358 . S
C762 H768 0.930 . S
C763 N761 1.400 . S
C763 C764 1.351 . S
C763 H780 0.930 . S
C764 N760 1.389 . S
C764 C763 1.351 . S
C764 H769 0.930 . S
O765 Cu759 1.974 . S
O765 C775 1.282 . S
C766 O767 1.261 . S
C766 O779 1.251 . S
O767 C766 1.261 . S
H768 C762 0.930 . S
H769 C764 0.930 . S
N770 Cu759 1.985 . S
N770 C772 1.335 . S
N770 C773 1.390 . S
N771 C772 1.345 . S
N771 C774 1.336 . S
C772 N770 1.335 . S
C772 N771 1.345 . S
C772 H777 0.930 . S
C773 N770 1.390 . S
C773 C774 1.346 . S
C773 H778 0.930 . S
C774 N771 1.336 . S
C774 C773 1.346 . S
C774 H781 0.929 . S
C775 O765 1.282 . S
C775 O776 1.216 . S
O776 C775 1.216 . S
H777 C772 0.930 . S
H778 C773 0.930 . S
O779 Cu759 1.959 . S
O779 C766 1.251 . S
H780 C763 0.930 . S
H781 C774 0.929 . S
Cu782 N783 1.999 . S
Cu782 O788 1.974 . S
Cu782 N793 1.985 . S
Cu782 O802 1.959 . S
N783 Cu782 1.999 . S
N783 C785 1.263 . S
N783 C787 1.389 . S
N784 C785 1.358 . S
N784 C786 1.400 . S
C785 N783 1.263 . S
C785 N784 1.358 . S
C785 H791 0.930 . S
C786 N784 1.400 . S
C786 C787 1.351 . S
C786 H803 0.930 . S
C787 N783 1.389 . S
C787 C786 1.351 . S
C787 H792 0.930 . S
O788 Cu782 1.974 . S
O788 C798 1.282 . S
C789 O790 1.261 . S
C789 O802 1.251 . S
O790 C789 1.261 . S
H791 C785 0.930 . S
H792 C787 0.930 . S
N793 Cu782 1.985 . S
N793 C795 1.335 . S
N793 C796 1.390 . S
N794 C795 1.345 . S
N794 C797 1.336 . S
C795 N793 1.335 . S
C795 N794 1.345 . S
C795 H800 0.930 . S
C796 N793 1.390 . S
C796 C797 1.346 . S
C796 H801 0.930 . S
C797 N794 1.336 . S
C797 C796 1.346 . S
C797 H804 0.929 . S
C798 O788 1.282 . S
C798 O799 1.216 . S
O799 C798 1.216 . S
H800 C795 0.930 . S
H801 C796 0.930 . S
O802 Cu782 1.959 . S
O802 C789 1.251 . S
H803 C786 0.930 . S
H804 C797 0.929 . S
Cu805 N806 1.999 . S
Cu805 O811 1.974 . S
Cu805 N816 1.985 . S
Cu805 O825 1.959 . S
N806 Cu805 1.999 . S
N806 C808 1.263 . S
N806 C810 1.389 . S
N807 C808 1.358 . S
N807 C809 1.400 . S
C808 N806 1.263 . S
C808 N807 1.358 . S
C808 H814 0.930 . S
C809 N807 1.400 . S
C809 C810 1.351 . S
C809 H826 0.930 . S
C810 N806 1.389 . S
C810 C809 1.351 . S
C810 H815 0.930 . S
O811 Cu805 1.974 . S
O811 C821 1.282 . S
C812 O813 1.261 . S
C812 O825 1.251 . S
O813 C812 1.261 . S
H814 C808 0.930 . S
H815 C810 0.930 . S
N816 Cu805 1.985 . S
N816 C818 1.335 . S
N816 C819 1.390 . S
N817 C818 1.345 . S
N817 C820 1.336 . S
C818 N816 1.335 . S
C818 N817 1.345 . S
C818 H823 0.930 . S
C819 N816 1.390 . S
C819 C820 1.346 . S
C819 H824 0.930 . S
C820 N817 1.336 . S
C820 C819 1.346 . S
C820 H827 0.929 . S
C821 O811 1.282 . S
C821 O822 1.216 . S
O822 C821 1.216 . S
H823 C818 0.930 . S
H824 C819 0.930 . S
O825 Cu805 1.959 . S
O825 C812 1.251 . S
H826 C809 0.930 . S
H827 C820 0.929 . S
Cu828 N829 1.999 . S
Cu828 O834 1.974 . S
Cu828 N839 1.985 . S
Cu828 O848 1.959 . S
N829 Cu828 1.999 . S
N829 C831 1.263 . S
N829 C833 1.389 . S
N830 C831 1.358 . S
N830 C832 1.400 . S
C831 N829 1.263 . S
C831 N830 1.358 . S
C831 H837 0.930 . S
C832 N830 1.400 . S
C832 C833 1.351 . S
C832 H849 0.930 . S
C833 N829 1.389 . S
C833 C832 1.351 . S
C833 H838 0.930 . S
O834 Cu828 1.974 . S
O834 C844 1.282 . S
C835 O836 1.261 . S
C835 O848 1.251 . S
O836 C835 1.261 . S
H837 C831 0.930 . S
H838 C833 0.930 . S
N839 Cu828 1.985 . S
N839 C841 1.335 . S
N839 C842 1.390 . S
N840 C841 1.345 . S
N840 C843 1.336 . S
C841 N839 1.335 . S
C841 N840 1.345 . S
C841 H846 0.930 . S
C842 N839 1.390 . S
C842 C843 1.346 . S
C842 H847 0.930 . S
C843 N840 1.336 . S
C843 C842 1.346 . S
C843 H850 0.929 . S
C844 O834 1.282 . S
C844 O845 1.216 . S
O845 C844 1.216 . S
H846 C841 0.930 . S
H847 C842 0.930 . S
O848 Cu828 1.959 . S
O848 C835 1.251 . S
H849 C832 0.930 . S
H850 C843 0.929 . S
Cu851 N852 1.999 . S
Cu851 O857 1.974 . S
Cu851 N862 1.985 . S
Cu851 O871 1.959 . S
N852 Cu851 1.999 . S
N852 C854 1.263 . S
N852 C856 1.389 . S
N853 C854 1.358 . S
N853 C855 1.400 . S
C854 N852 1.263 . S
C854 N853 1.358 . S
C854 H860 0.930 . S
C855 N853 1.400 . S
C855 C856 1.351 . S
C855 H872 0.930 . S
C856 N852 1.389 . S
C856 C855 1.351 . S
C856 H861 0.930 . S
O857 Cu851 1.974 . S
O857 C867 1.282 . S
C858 O859 1.261 . S
C858 O871 1.251 . S
O859 C858 1.261 . S
H860 C854 0.930 . S
H861 C856 0.930 . S
N862 Cu851 1.985 . S
N862 C864 1.335 . S
N862 C865 1.390 . S
N863 C864 1.345 . S
N863 C866 1.336 . S
C864 N862 1.335 . S
C864 N863 1.345 . S
C864 H869 0.930 . S
C865 N862 1.390 . S
C865 C866 1.346 . S
C865 H870 0.930 . S
C866 N863 1.336 . S
C866 C865 1.346 . S
C866 H873 0.929 . S
C867 O857 1.282 . S
C867 O868 1.216 . S
O868 C867 1.216 . S
H869 C864 0.930 . S
H870 C865 0.930 . S
O871 Cu851 1.959 . S
O871 C858 1.251 . S
H872 C855 0.930 . S
H873 C866 0.929 . S
Cu874 N875 1.999 . S
Cu874 O880 1.974 . S
Cu874 N885 1.985 . S
Cu874 O894 1.959 . S
N875 Cu874 1.999 . S
N875 C877 1.263 . S
N875 C879 1.389 . S
N876 C877 1.358 . S
N876 C878 1.400 . S
C877 N875 1.263 . S
C877 N876 1.358 . S
C877 H883 0.930 . S
C878 N876 1.400 . S
C878 C879 1.351 . S
C878 H895 0.930 . S
C879 N875 1.389 . S
C879 C878 1.351 . S
C879 H884 0.930 . S
O880 Cu874 1.974 . S
O880 C890 1.282 . S
C881 O882 1.261 . S
C881 O894 1.251 . S
O882 C881 1.261 . S
H883 C877 0.930 . S
H884 C879 0.930 . S
N885 Cu874 1.985 . S
N885 C887 1.335 . S
N885 C888 1.390 . S
N886 C887 1.345 . S
N886 C889 1.336 . S
C887 N885 1.335 . S
C887 N886 1.345 . S
C887 H892 0.930 . S
C888 N885 1.390 . S
C888 C889 1.346 . S
C888 H893 0.930 . S
C889 N886 1.336 . S
C889 C888 1.346 . S
C889 H896 0.929 . S
C890 O880 1.282 . S
C890 O891 1.216 . S
O891 C890 1.216 . S
H892 C887 0.930 . S
H893 C888 0.930 . S
O894 Cu874 1.959 . S
O894 C881 1.251 . S
H895 C878 0.930 . S
H896 C889 0.929 . S
Cu897 N898 1.999 . S
Cu897 O903 1.974 . S
Cu897 N908 1.985 . S
Cu897 O917 1.959 . S
N898 Cu897 1.999 . S
N898 C900 1.263 . S
N898 C902 1.389 . S
N899 C900 1.358 . S
N899 C901 1.400 . S
C900 N898 1.263 . S
C900 N899 1.358 . S
C900 H906 0.930 . S
C901 N899 1.400 . S
C901 C902 1.351 . S
C901 H918 0.930 . S
C902 N898 1.389 . S
C902 C901 1.351 . S
C902 H907 0.930 . S
O903 Cu897 1.974 . S
O903 C913 1.282 . S
C904 O905 1.261 . S
C904 O917 1.251 . S
O905 C904 1.261 . S
H906 C900 0.930 . S
H907 C902 0.930 . S
N908 Cu897 1.985 . S
N908 C910 1.335 . S
N908 C911 1.390 . S
N909 C910 1.345 . S
N909 C912 1.336 . S
C910 N908 1.335 . S
C910 N909 1.345 . S
C910 H915 0.930 . S
C911 N908 1.390 . S
C911 C912 1.346 . S
C911 H916 0.930 . S
C912 N909 1.336 . S
C912 C911 1.346 . S
C912 H919 0.929 . S
C913 O903 1.282 . S
C913 O914 1.216 . S
O914 C913 1.216 . S
H915 C910 0.930 . S
H916 C911 0.930 . S
O917 Cu897 1.959 . S
O917 C904 1.251 . S
H918 C901 0.930 . S
H919 C912 0.929 . S
Cu920 N921 1.999 . S
Cu920 O926 1.974 . S
Cu920 N931 1.985 . S
Cu920 O940 1.959 . S
N921 Cu920 1.999 . S
N921 C923 1.263 . S
N921 C925 1.389 . S
N922 C923 1.358 . S
N922 C924 1.400 . S
C923 N921 1.263 . S
C923 N922 1.358 . S
C923 H929 0.930 . S
C924 N922 1.400 . S
C924 C925 1.351 . S
C924 H941 0.930 . S
C925 N921 1.389 . S
C925 C924 1.351 . S
C925 H930 0.930 . S
O926 Cu920 1.974 . S
O926 C936 1.282 . S
C927 O928 1.261 . S
C927 O940 1.251 . S
O928 C927 1.261 . S
H929 C923 0.930 . S
H930 C925 0.930 . S
N931 Cu920 1.985 . S
N931 C933 1.335 . S
N931 C934 1.390 . S
N932 C933 1.345 . S
N932 C935 1.336 . S
C933 N931 1.335 . S
C933 N932 1.345 . S
C933 H938 0.930 . S
C934 N931 1.390 . S
C934 C935 1.346 . S
C934 H939 0.930 . S
C935 N932 1.336 . S
C935 C934 1.346 . S
C935 H942 0.929 . S
C936 O926 1.282 . S
C936 O937 1.216 . S
O937 C936 1.216 . S
H938 C933 0.930 . S
H939 C934 0.930 . S
O940 Cu920 1.959 . S
O940 C927 1.251 . S
H941 C924 0.930 . S
H942 C935 0.929 . S
Cu943 N944 1.999 . S
Cu943 O949 1.974 . S
Cu943 N954 1.985 . S
Cu943 O963 1.959 . S
N944 Cu943 1.999 . S
N944 C946 1.263 . S
N944 C948 1.389 . S
N945 C946 1.358 . S
N945 C947 1.400 . S
C946 N944 1.263 . S
C946 N945 1.358 . S
C946 H952 0.930 . S
C947 N945 1.400 . S
C947 C948 1.351 . S
C947 H964 0.930 . S
C948 N944 1.389 . S
C948 C947 1.351 . S
C948 H953 0.930 . S
O949 Cu943 1.974 . S
O949 C959 1.282 . S
C950 O951 1.261 . S
C950 O963 1.251 . S
O951 C950 1.261 . S
H952 C946 0.930 . S
H953 C948 0.930 . S
N954 Cu943 1.985 . S
N954 C956 1.335 . S
N954 C957 1.390 . S
N955 C956 1.345 . S
N955 C958 1.336 . S
C956 N954 1.335 . S
C956 N955 1.345 . S
C956 H961 0.930 . S
C957 N954 1.390 . S
C957 C958 1.346 . S
C957 H962 0.930 . S
C958 N955 1.336 . S
C958 C957 1.346 . S
C958 H965 0.929 . S
C959 O949 1.282 . S
C959 O960 1.216 . S
O960 C959 1.216 . S
H961 C956 0.930 . S
H962 C957 0.930 . S
O963 Cu943 1.959 . S
O963 C950 1.251 . S
H964 C947 0.930 . S
H965 C958 0.929 . S
Cu966 N967 1.999 . S
Cu966 O972 1.974 . S
Cu966 N977 1.985 . S
Cu966 O986 1.959 . S
N967 Cu966 1.999 . S
N967 C969 1.263 . S
N967 C971 1.389 . S
N968 C969 1.358 . S
N968 C970 1.400 . S
C969 N967 1.263 . S
C969 N968 1.358 . S
C969 H975 0.930 . S
C970 N968 1.400 . S
C970 C971 1.351 . S
C970 H987 0.930 . S
C971 N967 1.389 . S
C971 C970 1.351 . S
C971 H976 0.930 . S
O972 Cu966 1.974 . S
O972 C982 1.282 . S
C973 O974 1.261 . S
C973 O986 1.251 . S
O974 C973 1.261 . S
H975 C969 0.930 . S
H976 C971 0.930 . S
N977 Cu966 1.985 . S
N977 C979 1.335 . S
N977 C980 1.390 . S
N978 C979 1.345 . S
N978 C981 1.336 . S
C979 N977 1.335 . S
C979 N978 1.345 . S
C979 H984 0.930 . S
C980 N977 1.390 . S
C980 C981 1.346 . S
C980 H985 0.930 . S
C981 N978 1.336 . S
C981 C980 1.346 . S
C981 H988 0.929 . S
C982 O972 1.282 . S
C982 O983 1.216 . S
O983 C982 1.216 . S
H984 C979 0.930 . S
H985 C980 0.930 . S
O986 Cu966 1.959 . S
O986 C973 1.251 . S
H987 C970 0.930 . S
H988 C981 0.929 . S
Cu989 N990 1.999 . S
Cu989 O995 1.974 . S
Cu989 N1000 1.985 . S
Cu989 O1009 1.959 . S
N990 Cu989 1.999 . S
N990 C992 1.263 . S
N990 C994 1.389 . S
N991 C992 1.358 . S
N991 C993 1.400 . S
C992 N990 1.263 . S
C992 N991 1.358 . S
C992 H998 0.930 . S
C993 N991 1.400 . S
C993 C994 1.351 . S
C993 H1010 0.930 . S
C994 N990 1.389 . S
C994 C993 1.351 . S
C994 H999 0.930 . S
O995 Cu989 1.974 . S
O995 C1005 1.282 . S
C996 O997 1.261 . S
C996 O1009 1.251 . S
O997 C996 1.261 . S
H998 C992 0.930 . S
H999 C994 0.930 . S
N1000 Cu989 1.985 . S
N1000 C1002 1.335 . S
N1000 C1003 1.390 . S
N1001 C1002 1.345 . S
N1001 C1004 1.336 . S
C1002 N1000 1.335 . S
C1002 N1001 1.345 . S
C1002 H1007 0.930 . S
C1003 N1000 1.390 . S
C1003 C1004 1.346 . S
C1003 H1008 0.930 . S
C1004 N1001 1.336 . S
C1004 C1003 1.346 . S
C1004 H1011 0.929 . S
C1005 O995 1.282 . S
C1005 O1006 1.216 . S
O1006 C1005 1.216 . S
H1007 C1002 0.930 . S
H1008 C1003 0.930 . S
O1009 Cu989 1.959 . S
O1009 C996 1.251 . S
H1010 C993 0.930 . S
H1011 C1004 0.929 . S
Cu1012 N1013 1.999 . S
Cu1012 O1018 1.974 . S
Cu1012 N1023 1.985 . S
Cu1012 O1032 1.959 . S
N1013 Cu1012 1.999 . S
N1013 C1015 1.263 . S
N1013 C1017 1.389 . S
N1014 C1015 1.358 . S
N1014 C1016 1.400 . S
C1015 N1013 1.263 . S
C1015 N1014 1.358 . S
C1015 H1021 0.930 . S
C1016 N1014 1.400 . S
C1016 C1017 1.351 . S
C1016 H1033 0.930 . S
C1017 N1013 1.389 . S
C1017 C1016 1.351 . S
C1017 H1022 0.930 . S
O1018 Cu1012 1.974 . S
O1018 C1028 1.282 . S
C1019 O1020 1.261 . S
C1019 O1032 1.251 . S
O1020 C1019 1.261 . S
H1021 C1015 0.930 . S
H1022 C1017 0.930 . S
N1023 Cu1012 1.985 . S
N1023 C1025 1.335 . S
N1023 C1026 1.390 . S
N1024 C1025 1.345 . S
N1024 C1027 1.336 . S
C1025 N1023 1.335 . S
C1025 N1024 1.345 . S
C1025 H1030 0.930 . S
C1026 N1023 1.390 . S
C1026 C1027 1.346 . S
C1026 H1031 0.930 . S
C1027 N1024 1.336 . S
C1027 C1026 1.346 . S
C1027 H1034 0.929 . S
C1028 O1018 1.282 . S
C1028 O1029 1.216 . S
O1029 C1028 1.216 . S
H1030 C1025 0.930 . S
H1031 C1026 0.930 . S
O1032 Cu1012 1.959 . S
O1032 C1019 1.251 . S
H1033 C1016 0.930 . S
H1034 C1027 0.929 . S
Cu1035 N1036 1.999 . S
Cu1035 O1041 1.974 . S
Cu1035 N1046 1.985 . S
Cu1035 O1055 1.959 . S
N1036 Cu1035 1.999 . S
N1036 C1038 1.263 . S
N1036 C1040 1.389 . S
N1037 C1038 1.358 . S
N1037 C1039 1.400 . S
C1038 N1036 1.263 . S
C1038 N1037 1.358 . S
C1038 H1044 0.930 . S
C1039 N1037 1.400 . S
C1039 C1040 1.351 . S
C1039 H1056 0.930 . S
C1040 N1036 1.389 . S
C1040 C1039 1.351 . S
C1040 H1045 0.930 . S
O1041 Cu1035 1.974 . S
O1041 C1051 1.282 . S
C1042 O1043 1.261 . S
C1042 O1055 1.251 . S
O1043 C1042 1.261 . S
H1044 C1038 0.930 . S
H1045 C1040 0.930 . S
N1046 Cu1035 1.985 . S
N1046 C1048 1.335 . S
N1046 C1049 1.390 . S
N1047 C1048 1.345 . S
N1047 C1050 1.336 . S
C1048 N1046 1.335 . S
C1048 N1047 1.345 . S
C1048 H1053 0.930 . S
C1049 N1046 1.390 . S
C1049 C1050 1.346 . S
C1049 H1054 0.930 . S
C1050 N1047 1.336 . S
C1050 C1049 1.346 . S
C1050 H1057 0.929 . S
C1051 O1041 1.282 . S
C1051 O1052 1.216 . S
O1052 C1051 1.216 . S
H1053 C1048 0.930 . S
H1054 C1049 0.930 . S
O1055 Cu1035 1.959 . S
O1055 C1042 1.251 . S
H1056 C1039 0.930 . S
H1057 C1050 0.929 . S
Cu1058 N1059 1.999 . S
Cu1058 O1064 1.974 . S
Cu1058 N1069 1.985 . S
Cu1058 O1078 1.959 . S
N1059 Cu1058 1.999 . S
N1059 C1061 1.263 . S
N1059 C1063 1.389 . S
N1060 C1061 1.358 . S
N1060 C1062 1.400 . S
C1061 N1059 1.263 . S
C1061 N1060 1.358 . S
C1061 H1067 0.930 . S
C1062 N1060 1.400 . S
C1062 C1063 1.351 . S
C1062 H1079 0.930 . S
C1063 N1059 1.389 . S
C1063 C1062 1.351 . S
C1063 H1068 0.930 . S
O1064 Cu1058 1.974 . S
O1064 C1074 1.282 . S
C1065 O1066 1.261 . S
C1065 O1078 1.251 . S
O1066 C1065 1.261 . S
H1067 C1061 0.930 . S
H1068 C1063 0.930 . S
N1069 Cu1058 1.985 . S
N1069 C1071 1.335 . S
N1069 C1072 1.390 . S
N1070 C1071 1.345 . S
N1070 C1073 1.336 . S
C1071 N1069 1.335 . S
C1071 N1070 1.345 . S
C1071 H1076 0.930 . S
C1072 N1069 1.390 . S
C1072 C1073 1.346 . S
C1072 H1077 0.930 . S
C1073 N1070 1.336 . S
C1073 C1072 1.346 . S
C1073 H1080 0.929 . S
C1074 O1064 1.282 . S
C1074 O1075 1.216 . S
O1075 C1074 1.216 . S
H1076 C1071 0.930 . S
H1077 C1072 0.930 . S
O1078 Cu1058 1.959 . S
O1078 C1065 1.251 . S
H1079 C1062 0.930 . S
H1080 C1073 0.929 . S
Cu1081 N1082 1.999 . S
Cu1081 O1087 1.974 . S
Cu1081 N1092 1.985 . S
Cu1081 O1101 1.959 . S
N1082 Cu1081 1.999 . S
N1082 C1084 1.263 . S
N1082 C1086 1.389 . S
N1083 C1084 1.358 . S
N1083 C1085 1.400 . S
C1084 N1082 1.263 . S
C1084 N1083 1.358 . S
C1084 H1090 0.930 . S
C1085 N1083 1.400 . S
C1085 C1086 1.351 . S
C1085 H1102 0.930 . S
C1086 N1082 1.389 . S
C1086 C1085 1.351 . S
C1086 H1091 0.930 . S
O1087 Cu1081 1.974 . S
O1087 C1097 1.282 . S
C1088 O1089 1.261 . S
C1088 O1101 1.251 . S
O1089 C1088 1.261 . S
H1090 C1084 0.930 . S
H1091 C1086 0.930 . S
N1092 Cu1081 1.985 . S
N1092 C1094 1.335 . S
N1092 C1095 1.390 . S
N1093 C1094 1.345 . S
N1093 C1096 1.336 . S
C1094 N1092 1.335 . S
C1094 N1093 1.345 . S
C1094 H1099 0.930 . S
C1095 N1092 1.390 . S
C1095 C1096 1.346 . S
C1095 H1100 0.930 . S
C1096 N1093 1.336 . S
C1096 C1095 1.346 . S
C1096 H1103 0.929 . S
C1097 O1087 1.282 . S
C1097 O1098 1.216 . S
O1098 C1097 1.216 . S
H1099 C1094 0.930 . S
H1100 C1095 0.930 . S
O1101 Cu1081 1.959 . S
O1101 C1088 1.251 . S
H1102 C1085 0.930 . S
H1103 C1096 0.929 . S
N725 C7 2.650 . S
N35 C651 2.650 . S
C53 N679 2.650 . S
C697 N81 2.650 . S
N587 C99 2.650 . S
N127 C605 2.650 . S
N633 C145 2.650 . S
N173 C559 2.650 . S
N196 N1024 1.195 . S
N955 C214 2.650 . S
N978 N242 1.194 . S
C260 N1001 2.650 . S
N288 N1093 1.194 . S
C306 N1047 2.650 . S
N334 N1070 1.194 . S
N932 C352 2.650 . S
C904 N380 2.650 . S
N403 C766 2.650 . S
N794 N426 1.194 . S
N449 C812 2.650 . S
N748 N472 1.195 . S
C858 N495 2.650 . S
N518 N886 1.194 . S
N840 N541 1.194 . S
N219 N12 2.989 1_455 S
C237 C30 2.809 . S
N58 N265 2.989 1_455 S
C191 C76 2.809 . S
N104 N357 2.989 1_655 S
C283 C122 2.809 . S
N311 N150 2.989 1_655 S
C329 C168 2.809 . S
C421 C375 2.809 . S
C513 C398 2.809 . S
C536 C444 2.809 . S
C467 C490 2.809 . S
N771 N564 2.989 . S
C789 C582 2.809 . S
N817 N610 2.989 . S
C628 C743 2.809 . S
N656 N909 2.989 . S
C674 C835 2.809 . S
N863 N702 2.989 . S
C881 C720 2.809 . S
C927 C973 2.809 . S
C1065 C950 2.809 . S
C1088 C996 2.809 . S
C1042 C1019 2.809 . S
N2 N416 2.944 . S
C39 N439 2.277 . S
N48 N462 2.944 . S
N393 C85 2.277 . S
N94 N508 2.944 . S
C131 N370 2.277 . S
N531 N140 2.944 . S
N485 C177 2.277 . S
C200 C223 1.748 . S
N209 N232 2.944 . S
C246 C269 1.748 . S
N186 N255 2.944 . S
C361 C292 1.748 . S
N278 N301 2.944 . S
C315 C338 1.748 . S
N347 N324 2.944 . S
N71 C384 2.277 . S
N117 C407 2.277 . S
C154 C430 1.748 . S
C453 N163 2.277 . S
C108 C476 1.748 . S
N25 C499 2.277 . S
C62 C522 1.748 . S
C16 C545 1.748 . S
N968 N554 2.944 . S
C591 N991 2.277 . S
N1014 N600 2.944 . S
N945 C637 2.277 . S
N646 N1060 2.944 . S
C683 N922 2.277 . S
N1083 N692 2.944 . S
C729 N1037 2.277 . S
C752 C775 1.748 . S
N761 N784 2.944 . S
C798 C821 1.748 . S
N807 N738 2.944 . S
C913 C844 1.748 . S
N830 N853 2.944 . S
C867 C890 1.748 . S
N899 N876 2.944 . S
N623 C936 2.277 . S
N669 C959 2.277 . S
C706 C982 1.748 . S
C1005 N715 2.277 . S
C660 C1028 1.748 . S
N577 C1051 2.277 . S
C1074 C614 1.748 . S
C568 C1097 1.748 . S
