# Generated by pormake.
# Topology unl, (4)-cn, num edge types: 1
# Building blocks:
#     Node 0, Type 0, BuildingBlock: ESEHIV_clean_sbu_0, # of connection points: 4
#     Node 1, Type 0, BuildingBlock: ESEHIV_clean_sbu_0, # of connection points: 4
#     Node 2, Type 0, BuildingBlock: ESEHIV_clean_sbu_0, # of connection points: 4
#     Node 3, Type 0, BuildingBlock: ESEHIV_clean_sbu_0, # of connection points: 4
#     Node 4, Type 0, BuildingBlock: ESEHIV_clean_sbu_0, # of connection points: 4
#     Node 5, Type 0, BuildingBlock: ESEHIV_clean_sbu_0, # of connection points: 4
#     Node 6, Type 0, BuildingBlock: ESEHIV_clean_sbu_0, # of connection points: 4
#     Node 7, Type 0, BuildingBlock: ESEHIV_clean_sbu_0, # of connection points: 4
#     Node 8, Type 0, BuildingBlock: ESEHIV_clean_sbu_0, # of connection points: 4
#     Node 9, Type 0, BuildingBlock: ESEHIV_clean_sbu_0, # of connection points: 4
#     Node 10, Type 0, BuildingBlock: ESEHIV_clean_sbu_0, # of connection points: 4
#     Node 11, Type 0, BuildingBlock: ESEHIV_clean_sbu_0, # of connection points: 4
#     Node 12, Type 0, BuildingBlock: ESEHIV_clean_sbu_0, # of connection points: 4
#     Node 13, Type 0, BuildingBlock: ESEHIV_clean_sbu_0, # of connection points: 4
#     Node 14, Type 0, BuildingBlock: ESEHIV_clean_sbu_0, # of connection points: 4
#     Node 15, Type 0, BuildingBlock: ESEHIV_clean_sbu_0, # of connection points: 4
#     Node 16, Type 0, BuildingBlock: ESEHIV_clean_sbu_0, # of connection points: 4
#     Node 17, Type 0, BuildingBlock: ESEHIV_clean_sbu_0, # of connection points: 4
#     Node 18, Type 0, BuildingBlock: ESEHIV_clean_sbu_0, # of connection points: 4
#     Node 19, Type 0, BuildingBlock: ESEHIV_clean_sbu_0, # of connection points: 4
#     Node 20, Type 0, BuildingBlock: ESEHIV_clean_sbu_0, # of connection points: 4
#     Node 21, Type 0, BuildingBlock: ESEHIV_clean_sbu_0, # of connection points: 4
#     Node 22, Type 0, BuildingBlock: ESEHIV_clean_sbu_0, # of connection points: 4
#     Node 23, Type 0, BuildingBlock: ESEHIV_clean_sbu_0, # of connection points: 4
#     Node 24, Type 0, BuildingBlock: ESEHIV_clean_sbu_0, # of connection points: 4
#     Node 25, Type 0, BuildingBlock: ESEHIV_clean_sbu_0, # of connection points: 4
#     Node 26, Type 0, BuildingBlock: ESEHIV_clean_sbu_0, # of connection points: 4
#     Node 27, Type 0, BuildingBlock: ESEHIV_clean_sbu_0, # of connection points: 4
#     Node 28, Type 0, BuildingBlock: ESEHIV_clean_sbu_0, # of connection points: 4
#     Node 29, Type 0, BuildingBlock: ESEHIV_clean_sbu_0, # of connection points: 4
#     Node 30, Type 0, BuildingBlock: ESEHIV_clean_sbu_0, # of connection points: 4
#     Node 31, Type 0, BuildingBlock: ESEHIV_clean_sbu_0, # of connection points: 4
#     Node 32, Type 0, BuildingBlock: ESEHIV_clean_sbu_0, # of connection points: 4
#     Node 33, Type 0, BuildingBlock: ESEHIV_clean_sbu_0, # of connection points: 4
#     Node 34, Type 0, BuildingBlock: ESEHIV_clean_sbu_0, # of connection points: 4
#     Node 35, Type 0, BuildingBlock: ESEHIV_clean_sbu_0, # of connection points: 4
#     Edge 36, Type (0, 0), BuildingBlock: AJUNOK_clean_linker_0, # of connection points: 2
#     Edge 37, Type (0, 0), BuildingBlock: AJUNOK_clean_linker_0, # of connection points: 2
#     Edge 38, Type (0, 0), BuildingBlock: AJUNOK_clean_linker_0, # of connection points: 2
#     Edge 39, Type (0, 0), BuildingBlock: AJUNOK_clean_linker_0, # of connection points: 2
#     Edge 40, Type (0, 0), BuildingBlock: AJUNOK_clean_linker_0, # of connection points: 2
#     Edge 41, Type (0, 0), BuildingBlock: AJUNOK_clean_linker_0, # of connection points: 2
#     Edge 42, Type (0, 0), BuildingBlock: AJUNOK_clean_linker_0, # of connection points: 2
#     Edge 43, Type (0, 0), BuildingBlock: AJUNOK_clean_linker_0, # of connection points: 2
#     Edge 44, Type (0, 0), BuildingBlock: AJUNOK_clean_linker_0, # of connection points: 2
#     Edge 45, Type (0, 0), BuildingBlock: AJUNOK_clean_linker_0, # of connection points: 2
#     Edge 46, Type (0, 0), BuildingBlock: AJUNOK_clean_linker_0, # of connection points: 2
#     Edge 47, Type (0, 0), BuildingBlock: AJUNOK_clean_linker_0, # of connection points: 2
#     Edge 48, Type (0, 0), BuildingBlock: AJUNOK_clean_linker_0, # of connection points: 2
#     Edge 49, Type (0, 0), BuildingBlock: AJUNOK_clean_linker_0, # of connection points: 2
#     Edge 50, Type (0, 0), BuildingBlock: AJUNOK_clean_linker_0, # of connection points: 2
#     Edge 51, Type (0, 0), BuildingBlock: AJUNOK_clean_linker_0, # of connection points: 2
#     Edge 52, Type (0, 0), BuildingBlock: AJUNOK_clean_linker_0, # of connection points: 2
#     Edge 53, Type (0, 0), BuildingBlock: AJUNOK_clean_linker_0, # of connection points: 2
#     Edge 54, Type (0, 0), BuildingBlock: AJUNOK_clean_linker_0, # of connection points: 2
#     Edge 55, Type (0, 0), BuildingBlock: AJUNOK_clean_linker_0, # of connection points: 2
#     Edge 56, Type (0, 0), BuildingBlock: AJUNOK_clean_linker_0, # of connection points: 2
#     Edge 57, Type (0, 0), BuildingBlock: AJUNOK_clean_linker_0, # of connection points: 2
#     Edge 58, Type (0, 0), BuildingBlock: AJUNOK_clean_linker_0, # of connection points: 2
#     Edge 59, Type (0, 0), BuildingBlock: AJUNOK_clean_linker_0, # of connection points: 2
#     Edge 60, Type (0, 0), BuildingBlock: AJUNOK_clean_linker_0, # of connection points: 2
#     Edge 61, Type (0, 0), BuildingBlock: AJUNOK_clean_linker_0, # of connection points: 2
#     Edge 62, Type (0, 0), BuildingBlock: AJUNOK_clean_linker_0, # of connection points: 2
#     Edge 63, Type (0, 0), BuildingBlock: AJUNOK_clean_linker_0, # of connection points: 2
#     Edge 64, Type (0, 0), BuildingBlock: AJUNOK_clean_linker_0, # of connection points: 2
#     Edge 65, Type (0, 0), BuildingBlock: AJUNOK_clean_linker_0, # of connection points: 2
#     Edge 66, Type (0, 0), BuildingBlock: AJUNOK_clean_linker_0, # of connection points: 2
#     Edge 67, Type (0, 0), BuildingBlock: AJUNOK_clean_linker_0, # of connection points: 2
#     Edge 68, Type (0, 0), BuildingBlock: AJUNOK_clean_linker_0, # of connection points: 2
#     Edge 69, Type (0, 0), BuildingBlock: AJUNOK_clean_linker_0, # of connection points: 2
#     Edge 70, Type (0, 0), BuildingBlock: AJUNOK_clean_linker_0, # of connection points: 2
#     Edge 71, Type (0, 0), BuildingBlock: AJUNOK_clean_linker_0, # of connection points: 2
#     Edge 72, Type (0, 0), BuildingBlock: AJUNOK_clean_linker_0, # of connection points: 2
#     Edge 73, Type (0, 0), BuildingBlock: AJUNOK_clean_linker_0, # of connection points: 2
#     Edge 74, Type (0, 0), BuildingBlock: AJUNOK_clean_linker_0, # of connection points: 2
#     Edge 75, Type (0, 0), BuildingBlock: AJUNOK_clean_linker_0, # of connection points: 2
#     Edge 76, Type (0, 0), BuildingBlock: AJUNOK_clean_linker_0, # of connection points: 2
#     Edge 77, Type (0, 0), BuildingBlock: AJUNOK_clean_linker_0, # of connection points: 2
#     Edge 78, Type (0, 0), BuildingBlock: AJUNOK_clean_linker_0, # of connection points: 2
#     Edge 79, Type (0, 0), BuildingBlock: AJUNOK_clean_linker_0, # of connection points: 2
#     Edge 80, Type (0, 0), BuildingBlock: AJUNOK_clean_linker_0, # of connection points: 2
#     Edge 81, Type (0, 0), BuildingBlock: AJUNOK_clean_linker_0, # of connection points: 2
#     Edge 82, Type (0, 0), BuildingBlock: AJUNOK_clean_linker_0, # of connection points: 2
#     Edge 83, Type (0, 0), BuildingBlock: AJUNOK_clean_linker_0, # of connection points: 2
#     Edge 84, Type (0, 0), BuildingBlock: AJUNOK_clean_linker_0, # of connection points: 2
#     Edge 85, Type (0, 0), BuildingBlock: AJUNOK_clean_linker_0, # of connection points: 2
#     Edge 86, Type (0, 0), BuildingBlock: AJUNOK_clean_linker_0, # of connection points: 2
#     Edge 87, Type (0, 0), BuildingBlock: AJUNOK_clean_linker_0, # of connection points: 2
#     Edge 88, Type (0, 0), BuildingBlock: AJUNOK_clean_linker_0, # of connection points: 2
#     Edge 89, Type (0, 0), BuildingBlock: AJUNOK_clean_linker_0, # of connection points: 2
#     Edge 90, Type (0, 0), BuildingBlock: AJUNOK_clean_linker_0, # of connection points: 2
#     Edge 91, Type (0, 0), BuildingBlock: AJUNOK_clean_linker_0, # of connection points: 2
#     Edge 92, Type (0, 0), BuildingBlock: AJUNOK_clean_linker_0, # of connection points: 2
#     Edge 93, Type (0, 0), BuildingBlock: AJUNOK_clean_linker_0, # of connection points: 2
#     Edge 94, Type (0, 0), BuildingBlock: AJUNOK_clean_linker_0, # of connection points: 2
#     Edge 95, Type (0, 0), BuildingBlock: AJUNOK_clean_linker_0, # of connection points: 2
#     Edge 96, Type (0, 0), BuildingBlock: AJUNOK_clean_linker_0, # of connection points: 2
#     Edge 97, Type (0, 0), BuildingBlock: AJUNOK_clean_linker_0, # of connection points: 2
#     Edge 98, Type (0, 0), BuildingBlock: AJUNOK_clean_linker_0, # of connection points: 2
#     Edge 99, Type (0, 0), BuildingBlock: AJUNOK_clean_linker_0, # of connection points: 2
#     Edge 100, Type (0, 0), BuildingBlock: AJUNOK_clean_linker_0, # of connection points: 2
#     Edge 101, Type (0, 0), BuildingBlock: AJUNOK_clean_linker_0, # of connection points: 2
#     Edge 102, Type (0, 0), BuildingBlock: AJUNOK_clean_linker_0, # of connection points: 2
#     Edge 103, Type (0, 0), BuildingBlock: AJUNOK_clean_linker_0, # of connection points: 2
#     Edge 104, Type (0, 0), BuildingBlock: AJUNOK_clean_linker_0, # of connection points: 2
#     Edge 105, Type (0, 0), BuildingBlock: AJUNOK_clean_linker_0, # of connection points: 2
#     Edge 106, Type (0, 0), BuildingBlock: AJUNOK_clean_linker_0, # of connection points: 2
#     Edge 107, Type (0, 0), BuildingBlock: AJUNOK_clean_linker_0, # of connection points: 2
# Relax obj value: 0.044
# Max RMSD: 0.203
# Mean RMSD: 0.186
data_MOF--net-unl--node1-ESEHIV_clean_sbu_0--edge1-AJUNOK_clean_linker_0
_symmetry_space_group_name_H-M    P1
_symmetry_Int_Tables_number       1
_symmetry_cell_setting            triclinic
loop_
_symmetry_equiv_pos_as_xyz
'x, y, z'
_cell_length_a     47.779689
_cell_length_b     51.702426
_cell_length_c     37.226854
_cell_angle_alpha  87.644156
_cell_angle_beta   90.095861
_cell_angle_gamma 117.77053
loop_
_atom_site_label
_atom_site_type_symbol
_atom_site_fract_x
_atom_site_fract_y
_atom_site_fract_z
_atom_type_partial_charge
Cu0 Cu 0.21055 0.14042 0.14298 0.0
N1 N 0.1847 0.14352 0.17888 0.0
N2 N 0.16813 0.15431 0.2299 0.0
C3 C 0.1932 0.15598 0.21099 0.0
C4 C 0.14303 0.1405 0.20855 0.0
C5 C 0.15327 0.13378 0.17735 0.0
O6 O 0.25456 0.15862 0.15858 0.0
C7 C 0.19152 0.17194 0.0906 0.0
O8 O 0.18794 0.18567 0.11773 0.0
H9 H 0.21729 0.16601 0.22032 0.0
H10 H 0.1389 0.12294 0.15478 0.0
N11 N 0.19811 0.10107 0.1358 0.0
N12 N 0.19076 0.06193 0.10579 0.0
C13 C 0.2059 0.09135 0.1064 0.0
C14 C 0.17698 0.07693 0.15438 0.0
C15 C 0.17227 0.05265 0.13576 0.0
C16 C 0.27755 0.15932 0.14043 0.0
O17 O 0.27251 0.15003 0.10759 0.0
H18 H 0.22095 0.10564 0.08475 0.0
H19 H 0.16493 0.07704 0.17891 0.0
O20 O 0.20344 0.15468 0.09609 0.0
H21 H 0.11908 0.13632 0.21443 0.0
H22 H 0.15609 0.03006 0.1432 0.0
Cu23 Cu 0.87766 0.04348 0.14767 0.0
N24 N 0.85518 0.01506 0.11444 0.0
N25 N 0.84319 0.98743 0.06631 0.0
C26 C 0.86435 0.01239 0.08109 0.0
C27 C 0.81965 0.97421 0.09114 0.0
C28 C 0.82716 0.99118 0.12074 0.0
O29 O 0.91689 0.07296 0.12538 0.0
C30 C 0.88958 0.03612 0.22116 0.0
O31 O 0.89651 0.06384 0.22193 0.0
H32 H 0.88617 0.02827 0.06804 0.0
H33 H 0.81366 0.986 0.14567 0.0
N34 N 0.85468 0.06281 0.1604 0.0
N35 N 0.84457 0.09873 0.17706 0.0
C36 C 0.86638 0.09188 0.1636 0.0
C37 C 0.82437 0.05088 0.17192 0.0
C38 C 0.81802 0.07301 0.18213 0.0
C39 C 0.93769 0.0682 0.11001 0.0
O40 O 0.935 0.04171 0.1121 0.0
H41 H 0.89078 0.10758 0.15759 0.0
H42 H 0.80826 0.02768 0.17365 0.0
O43 O 0.88293 0.02385 0.19113 0.0
H44 H 0.79909 0.95311 0.08868 0.0
H45 H 0.79567 0.07035 0.1926 0.0
Cu46 Cu 0.95335 0.81105 0.15068 0.0
N47 N 0.98896 0.82416 0.1203 0.0
N48 N 0.02285 0.84528 0.074 0.0
C49 C 0.99355 0.83736 0.08725 0.0
C50 C 0.03707 0.83643 0.09939 0.0
C51 C 1.01621 0.82356 0.12792 0.0
O52 O 0.92144 0.818 0.12574 0.0
C53 C 0.98219 0.82192 0.2177 0.0
O54 O 0.98537 0.79894 0.20967 0.0
H55 H 0.97583 0.84103 0.07315 0.0
H56 H 1.02084 0.81475 0.1527 0.0
N57 N 0.93627 0.77061 0.15921 0.0
N58 N 0.90329 0.72459 0.17811 0.0
C59 C 0.90763 0.75236 0.17378 0.0
C60 C 0.95038 0.75387 0.15353 0.0
C61 C 0.93019 0.72558 0.16521 0.0
C62 C 0.92585 0.84268 0.11227 0.0
O63 O 0.95226 0.86616 0.11901 0.0
H64 H 0.8904 0.75947 0.1806 0.0
H65 H 0.97398 0.76178 0.14238 0.0
O66 O 0.96712 0.83064 0.19624 0.0
H67 H 0.06117 0.83981 0.09784 0.0
H68 H 0.93533 0.70728 0.16504 0.0
Cu69 Cu 0.15437 0.21334 0.43702 0.0
N70 N 0.17808 0.2002 0.46524 0.0
N71 N 0.19098 0.17744 0.50953 0.0
C72 C 0.16724 0.17985 0.49259 0.0
C73 C 0.21774 0.19687 0.49206 0.0
C74 C 0.2097 0.21075 0.46463 0.0
O75 O 0.11488 0.203 0.46349 0.0
C76 C 0.17202 0.20476 0.36809 0.0
O77 O 0.19929 0.22598 0.37764 0.0
H78 H 0.14258 0.168 0.50087 0.0
H79 H 0.22585 0.22795 0.4462 0.0
N80 N 0.17633 0.2542 0.43139 0.0
N81 N 0.19087 0.30025 0.41177 0.0
C82 C 0.17135 0.27159 0.40706 0.0
C83 C 0.19949 0.27246 0.45238 0.0
C84 C 0.20849 0.30084 0.44038 0.0
C85 C 0.11727 0.21104 0.49582 0.0
O86 O 0.14562 0.22594 0.50901 0.0
H87 H 0.15364 0.2634 0.38649 0.0
H88 H 0.20864 0.26565 0.47543 0.0
O89 O 0.14841 0.19594 0.38989 0.0
H90 H 0.24143 0.20093 0.49889 0.0
H91 H 0.22583 0.32038 0.45264 0.0
Cu92 Cu 0.84204 0.9655 0.43377 0.0
N93 N 0.85427 0.99592 0.46556 0.0
N94 N 0.87308 0.02378 0.51303 0.0
C95 C 0.86073 0.99637 0.50098 0.0
C96 C 0.87416 0.04101 0.48432 0.0
C97 C 0.86248 0.0238 0.45521 0.0
O98 O 0.85229 0.93577 0.4535 0.0
C99 C 0.8596 0.96926 0.35874 0.0
O100 O 0.84472 0.94053 0.36064 0.0
H101 H 0.85796 0.97738 0.51708 0.0
H102 H 0.86115 0.03121 0.42797 0.0
N103 N 0.79815 0.94659 0.42886 0.0
N104 N 0.74988 0.91125 0.41626 0.0
C105 C 0.78141 0.92089 0.41331 0.0
C106 C 0.77656 0.9535 0.44247 0.0
C107 C 0.74674 0.93174 0.43475 0.0
C108 C 0.87721 0.94026 0.47027 0.0
O109 O 0.90059 0.96703 0.47097 0.0
H110 H 0.79222 0.90924 0.40053 0.0
H111 H 0.7821 0.97253 0.45788 0.0
O112 O 0.86192 0.98303 0.3871 0.0
H113 H 0.88334 0.06452 0.48428 0.0
H114 H 0.72459 0.93062 0.44343 0.0
Cu115 Cu 0.08634 0.89312 0.44089 0.0
N116 N 0.06525 0.89465 0.39904 0.0
N117 N 0.04031 0.88301 0.34654 0.0
C118 C 0.05357 0.87456 0.37373 0.0
C119 C 0.04349 0.90927 0.3555 0.0
C120 C 0.0589 0.91639 0.38779 0.0
O121 O 0.10772 0.86952 0.43172 0.0
C122 C 0.05821 0.87177 0.51259 0.0
O123 O 0.08221 0.86689 0.5203 0.0
H124 H 0.05448 0.85403 0.37559 0.0
H125 H 0.06529 0.93616 0.40198 0.0
N126 N 0.11737 0.93091 0.4494 0.0
N127 N 0.15115 0.96986 0.47854 0.0
C128 C 0.12639 0.94273 0.48162 0.0
C129 C 0.13705 0.95117 0.42508 0.0
C130 C 0.15798 0.97525 0.44298 0.0
C131 C 0.1338 0.8741 0.44615 0.0
O132 O 0.14437 0.89213 0.47255 0.0
H133 H 0.11544 0.9314 0.50687 0.0
H134 H 0.13679 0.9482 0.39646 0.0
O135 O 0.0557 0.88057 0.48086 0.0
H136 H 0.03577 0.92264 0.33952 0.0
H137 H 0.17755 0.99462 0.4309 0.0
Cu138 Cu 0.81448 0.8702 0.90908 0.0
N139 N 0.82607 0.84902 0.94317 0.0
N140 N 0.84785 0.83858 0.99141 0.0
C141 C 0.84089 0.8585 0.97456 0.0
C142 C 0.83658 0.81555 0.97008 0.0
C143 C 0.82334 0.82205 0.94045 0.0
O144 O 0.8205 0.90569 0.93179 0.0
C145 C 0.83549 0.85538 0.84639 0.0
O146 O 0.81261 0.82953 0.85655 0.0
H147 H 0.84643 0.87952 0.98493 0.0
H148 H 0.81298 0.8081 0.91823 0.0
N149 N 0.77121 0.8489 0.8986 0.0
N150 N 0.72218 0.83724 0.88023 0.0
C151 C 0.75191 0.85904 0.88439 0.0
C152 C 0.75284 0.81987 0.90406 0.0
C153 C 0.72275 0.81265 0.89278 0.0
C154 C 0.84711 0.92502 0.94253 0.0
O155 O 0.87278 0.92338 0.93348 0.0
H156 H 0.75954 0.88184 0.87696 0.0
H157 H 0.76066 0.80491 0.91566 0.0
O158 O 0.84023 0.87727 0.86492 0.0
H159 H 0.83871 0.79576 0.97497 0.0
H160 H 0.70263 0.79101 0.89436 0.0
Cu161 Cu 0.15313 0.93659 0.91066 0.0
N162 N 0.17747 0.96891 0.93788 0.0
N163 N 0.19332 1.00065 0.9819 0.0
C164 C 0.17213 0.97371 0.97193 0.0
C165 C 0.21257 0.01319 0.95287 0.0
C166 C 0.20285 0.99355 0.92593 0.0
O167 O 0.11528 0.90996 0.93759 0.0
C168 C 0.14342 0.97335 0.85779 0.0
O169 O 0.14227 0.98815 0.88511 0.0
H170 H 0.15276 0.958 0.98881 0.0
H171 H 0.21279 0.99732 0.89896 0.0
N172 N 0.17564 0.91612 0.90192 0.0
N173 N 0.18618 0.88068 0.88449 0.0
C174 C 0.16346 0.8886 0.8907 0.0
C175 C 0.2071 0.92591 0.90313 0.0
C176 C 0.21368 0.90404 0.89246 0.0
C177 C 0.09547 0.91676 0.95153 0.0
O178 O 0.09854 0.94312 0.94488 0.0
H179 H 0.1385 0.87491 0.88633 0.0
H180 H 0.22406 0.94751 0.91086 0.0
O181 O 0.14545 0.94989 0.86388 0.0
H182 H 0.23135 0.03549 0.95048 0.0
H183 H 0.23685 0.90516 0.89096 0.0
Cu184 Cu 0.08511 0.199 0.92785 0.0
N185 N 0.05024 0.18443 0.95981 0.0
N186 N 1.0155 0.15726 1.00341 0.0
C187 C 0.04246 0.16288 0.98549 0.0
C188 C 1.00612 0.17613 0.98859 0.0
C189 C 0.02746 0.19274 0.96171 0.0
O190 O 0.11903 0.19525 0.95321 0.0
C191 C 0.05052 0.18516 0.86536 0.0
O192 O 0.04206 0.20331 0.87967 0.0
H193 H 0.05648 0.15183 0.99123 0.0
H194 H 0.02628 0.20963 0.94468 0.0
N195 N 0.10063 0.23928 0.91889 0.0
N196 N 0.13062 0.2848 0.89626 0.0
C197 C 0.12319 0.25628 0.89444 0.0
C198 C 0.09392 0.25773 0.93712 0.0
C199 C 0.11228 0.28579 0.92313 0.0
C200 C 0.12075 0.17208 0.96257 0.0
O201 O 0.09989 0.14692 0.9505 0.0
H202 H 0.1343 0.24796 0.87609 0.0
H203 H 0.0777 0.25143 0.95985 0.0
O204 O 0.0708 0.17967 0.88189 0.0
H205 H 0.98498 0.17745 0.99621 0.0
H206 H 0.1131 0.30552 0.93305 0.0
Cu207 Cu 0.90604 0.82194 0.65731 0.0
N208 N 0.88356 0.8346 0.62632 0.0
N209 N 0.87067 0.85622 0.58074 0.0
C210 C 0.89326 0.85042 0.59493 0.0
C211 C 0.84582 0.84355 0.60398 0.0
C212 C 0.85383 0.83018 0.63199 0.0
O213 O 0.94811 0.83392 0.6365 0.0
C214 C 0.90079 0.85678 0.71306 0.0
O215 O 0.90367 0.87569 0.68683 0.0
H216 H 0.91635 0.8577 0.58266 0.0
H217 H 0.83928 0.81859 0.65537 0.0
N218 N 0.88522 0.78108 0.65976 0.0
N219 N 0.87217 0.7347 0.67611 0.0
C220 C 0.89234 0.7632 0.68079 0.0
C221 C 0.8597 0.76334 0.64123 0.0
C222 C 0.85151 0.73473 0.65138 0.0
C223 C 0.96647 0.85977 0.62432 0.0
O224 O 0.95957 0.88093 0.63099 0.0
H225 H 0.91152 0.77099 0.69964 0.0
H226 H 0.84784 0.7707 0.62174 0.0
O227 O 0.90395 0.83432 0.70593 0.0
H228 H 0.82394 0.84488 0.60162 0.0
H229 H 0.83204 0.71541 0.64115 0.0
Cu230 Cu 0.22451 0.08704 0.67779 0.0
N231 N 0.23163 0.06677 0.64168 0.0
N232 N 0.22188 0.03991 0.59355 0.0
C233 C 0.2095 0.04489 0.6233 0.0
C234 C 0.25286 0.05931 0.59293 0.0
C235 C 0.25888 0.0758 0.62287 0.0
O236 O 0.21308 0.11423 0.65253 0.0
C237 C 0.19079 0.03555 0.7206 0.0
O238 O 0.20927 0.02761 0.70331 0.0
H239 H 0.18448 0.03438 0.62999 0.0
H240 H 0.28097 0.09454 0.62903 0.0
N241 N 0.26197 0.10769 0.70234 0.0
N242 N 0.30725 0.14354 0.72144 0.0
C243 C 0.28302 0.13628 0.69851 0.0
C244 C 0.27335 0.09647 0.72823 0.0
C245 C 0.30132 0.11849 0.74 0.0
C246 C 0.18885 0.10462 0.63276 0.0
O247 O 0.1688 0.07658 0.63523 0.0
H248 H 0.28051 0.15147 0.67953 0.0
H249 H 0.26216 0.07377 0.73771 0.0
O250 O 0.19261 0.06052 0.71272 0.0
H251 H 0.26939 0.0625 0.57125 0.0
H252 H 0.31646 0.11605 0.76004 0.0
Cu253 Cu 0.949 0.13731 0.67052 0.0
N254 N 0.97649 0.16633 0.63754 0.0
N255 N 1.01223 0.18634 0.59259 0.0
C256 C 1.00124 0.16623 0.62027 0.0
C257 C 0.99392 0.19982 0.59257 0.0
C258 C 0.97183 0.18736 0.62027 0.0
O259 O 0.94159 0.10121 0.64828 0.0
C260 C 0.99313 0.1417 0.72648 0.0
O261 O 1.00757 0.13456 0.70179 0.0
H262 H 1.00982 0.15055 0.62647 0.0
H263 H 0.9527 0.19227 0.62626 0.0
N264 N 0.91041 0.1389 0.67183 0.0
N265 N 0.86921 0.1461 0.68737 0.0
C266 C 0.89835 0.14977 0.69641 0.0
C267 C 0.88824 0.1281 0.64657 0.0
C268 C 0.86282 0.13208 0.65622 0.0
C269 C 0.91533 0.0778 0.64844 0.0
O270 O 0.89338 0.07396 0.67234 0.0
H271 H 0.91076 0.1603 0.72022 0.0
H272 H 0.89024 0.11754 0.62293 0.0
O273 O 0.96781 0.143 0.71839 0.0
H274 H 0.996 0.21704 0.57351 0.0
H275 H 0.84096 0.12435 0.64171 0.0
Cu276 Cu 0.87455 0.47468 0.46925 0.0
N277 N 0.84987 0.47244 0.50962 0.0
N278 N 0.83445 0.48298 0.56154 0.0
C279 C 0.85639 0.49267 0.53447 0.0
C280 C 0.81353 0.45548 0.55334 0.0
C281 C 0.82301 0.44913 0.52139 0.0
O282 O 0.91908 0.49917 0.48079 0.0
C283 C 0.83194 0.47009 0.41543 0.0
O284 O 0.81557 0.44519 0.43378 0.0
H285 H 0.87716 0.51388 0.53303 0.0
H286 H 0.81172 0.42853 0.50828 0.0
N287 N 0.86975 0.43739 0.46133 0.0
N288 N 0.86787 0.39947 0.4328 0.0
C289 C 0.86936 0.42617 0.42922 0.0
C290 C 0.86868 0.41724 0.48608 0.0
C291 C 0.8676 0.39381 0.46854 0.0
C292 C 0.9415 0.49605 0.4664 0.0
O293 O 0.9351 0.47899 0.43913 0.0
H294 H 0.87156 0.43795 0.4038 0.0
H295 H 0.86939 0.41974 0.51483 0.0
O296 O 0.85941 0.48764 0.42647 0.0
H297 H 0.79364 0.44036 0.57003 0.0
H298 H 0.867 0.37427 0.48104 0.0
Cu299 Cu 0.55027 0.3772 0.48191 0.0
N300 N 0.52848 0.34727 0.45017 0.0
N301 N 0.51751 0.31902 0.40269 0.0
C302 C 0.5385 0.34404 0.41754 0.0
C303 C 0.49341 0.3062 0.42695 0.0
C304 C 0.50033 0.32352 0.45619 0.0
O305 O 0.58837 0.40607 0.45668 0.0
C306 C 0.56764 0.37392 0.5547 0.0
O307 O 0.57649 0.4021 0.5534 0.0
H308 H 0.56072 0.35974 0.40502 0.0
H309 H 0.48613 0.31881 0.48052 0.0
N310 N 0.52595 0.39546 0.49456 0.0
N311 N 0.51387 0.42933 0.51477 0.0
C312 C 0.53728 0.42299 0.50561 0.0
C313 C 0.49426 0.38406 0.49637 0.0
C314 C 0.48674 0.40493 0.50869 0.0
C315 C 0.58406 0.42172 0.43217 0.0
O316 O 0.55521 0.41773 0.42647 0.0
H317 H 0.56228 0.43805 0.50667 0.0
H318 H 0.47774 0.362 0.48979 0.0
O319 O 0.55788 0.35987 0.52609 0.0
H320 H 0.47265 0.2853 0.42419 0.0
H321 H 0.46315 0.40208 0.51376 0.0
Cu322 Cu 0.62566 0.13363 0.4707 0.0
N323 N 0.6622 0.14466 0.44239 0.0
N324 N 0.70045 0.16718 0.40035 0.0
C325 C 0.67479 0.16641 0.41673 0.0
C326 C 0.70375 0.14478 0.41614 0.0
C327 C 0.68042 0.13119 0.44213 0.0
O328 O 0.59539 0.13966 0.44116 0.0
C329 C 0.65577 0.14923 0.53623 0.0
O330 O 0.66602 0.13116 0.52562 0.0
H331 H 0.6653 0.18133 0.41017 0.0
H332 H 0.67661 0.11235 0.45918 0.0
N333 N 0.60646 0.09326 0.48123 0.0
N334 N 0.5728 0.04892 0.50463 0.0
C335 C 0.58466 0.07816 0.50729 0.0
C336 C 0.60832 0.0729 0.46142 0.0
C337 C 0.58787 0.04559 0.47598 0.0
C338 C 0.59569 0.16342 0.43023 0.0
O339 O 0.61683 0.18836 0.44253 0.0
H340 H 0.57729 0.08846 0.5273 0.0
H341 H 0.62253 0.07752 0.43714 0.0
O342 O 0.63701 0.15405 0.51587 0.0
H343 H 0.72111 0.13795 0.40876 0.0
H344 H 0.58333 0.02485 0.46533 0.0
Cu345 Cu 0.82615 0.54443 0.76736 0.0
N346 N 0.84772 0.52729 0.79271 0.0
N347 N 0.86212 0.50444 0.8354 0.0
C348 C 0.84307 0.51645 0.82705 0.0
C349 C 0.87918 0.50754 0.80529 0.0
C350 C 0.87035 0.52172 0.77908 0.0
O351 O 0.78744 0.53594 0.79412 0.0
C352 C 0.84109 0.53872 0.696 0.0
O353 O 0.86859 0.56 0.70482 0.0
H354 H 0.82545 0.5164 0.84526 0.0
H355 H 0.87953 0.52715 0.7518 0.0
N356 N 0.85116 0.58502 0.76355 0.0
N357 N 0.86849 0.63205 0.74649 0.0
C358 C 0.84595 0.60418 0.74265 0.0
C359 C 0.87772 0.60124 0.78144 0.0
C360 C 0.88842 0.63028 0.77107 0.0
C361 C 0.79016 0.54652 0.82505 0.0
O362 O 0.81859 0.56307 0.83714 0.0
H363 H 0.82613 0.59775 0.7248 0.0
H364 H 0.88828 0.59256 0.801 0.0
O365 O 0.81833 0.52901 0.71906 0.0
H366 H 0.89678 0.50009 0.8025 0.0
H367 H 0.90879 0.64865 0.78158 0.0
Cu368 Cu 0.50751 0.3052 0.76303 0.0
N369 N 0.50946 0.33208 0.7965 0.0
N370 N 0.52058 0.35923 0.84492 0.0
C371 C 0.52801 0.34166 0.82548 0.0
C372 C 0.49653 0.36069 0.82756 0.0
C373 C 0.48981 0.34404 0.79776 0.0
O374 O 0.51276 0.27395 0.7877 0.0
C375 C 0.53475 0.31107 0.69437 0.0
O376 O 0.51606 0.28269 0.69535 0.0
H377 H 0.54578 0.33515 0.83287 0.0
H378 H 0.47139 0.34041 0.77869 0.0
N379 N 0.46704 0.28795 0.74398 0.0
N380 N 0.41834 0.25443 0.73036 0.0
C381 C 0.44388 0.26049 0.75077 0.0
C382 C 0.45592 0.29962 0.71831 0.0
C383 C 0.42588 0.27896 0.70978 0.0
C384 C 0.53771 0.27619 0.80256 0.0
O385 O 0.56386 0.30115 0.79929 0.0
H386 H 0.44626 0.24493 0.76923 0.0
H387 H 0.46908 0.32142 0.70612 0.0
O388 O 0.53663 0.32496 0.72254 0.0
H389 H 0.48461 0.37291 0.83592 0.0
H390 H 0.41085 0.28164 0.68978 0.0
Cu391 Cu 0.74561 0.20595 0.7677 0.0
N392 N 0.72368 0.2098 0.72757 0.0
N393 N 0.69999 0.2015 0.67405 0.0
C394 C 0.7129 0.19159 0.70011 0.0
C395 C 0.70305 0.2271 0.6856 0.0
C396 C 0.71758 0.23212 0.71852 0.0
O397 O 0.76437 0.18132 0.7535 0.0
C398 C 0.70936 0.21019 0.82353 0.0
O399 O 0.71948 0.23596 0.80689 0.0
H400 H 0.71497 0.17166 0.69904 0.0
H401 H 0.72423 0.25121 0.73416 0.0
N402 N 0.77912 0.24232 0.77766 0.0
N403 N 0.81589 0.27814 0.80872 0.0
C404 C 0.79129 0.25088 0.81029 0.0
C405 C 0.7965 0.26493 0.75458 0.0
C406 C 0.81911 0.28718 0.77374 0.0
C407 C 0.78931 0.18201 0.76682 0.0
O408 O 0.80076 0.19614 0.79625 0.0
H409 H 0.78181 0.2375 0.83475 0.0
H410 H 0.79298 0.26516 0.72588 0.0
O411 O 0.71735 0.19204 0.81047 0.0
H412 H 0.69664 0.24189 0.67067 0.0
H413 H 0.83672 0.30826 0.76278 0.0
Cu414 Cu 0.48353 0.20425 0.24009 0.0
N415 N 0.49213 0.17957 0.27162 0.0
N416 N 0.5131 0.16331 0.3154 0.0
C417 C 0.51466 0.18699 0.2968 0.0
C418 C 0.48828 0.14016 0.30168 0.0
C419 C 0.47562 0.15022 0.27465 0.0
O420 O 0.49397 0.24002 0.2651 0.0
C421 C 0.52537 0.20047 0.18731 0.0
O422 O 0.53525 0.19059 0.21493 0.0
H423 H 0.53202 0.20923 0.30131 0.0
H424 H 0.45538 0.13708 0.25867 0.0
N425 N 0.43941 0.18693 0.23469 0.0
N426 N 0.39068 0.17645 0.21625 0.0
C427 C 0.422 0.18978 0.20757 0.0
C428 C 0.4184 0.17148 0.26118 0.0
C429 C 0.38851 0.16495 0.24994 0.0
C430 C 0.5208 0.25855 0.27632 0.0
O431 O 0.54631 0.25714 0.26601 0.0
H432 H 0.43217 0.20242 0.18277 0.0
H433 H 0.42455 0.16614 0.28743 0.0
O434 O 0.50456 0.20898 0.19274 0.0
H435 H 0.47923 0.11756 0.31104 0.0
H436 H 0.36679 0.15293 0.26556 0.0
Cu437 Cu 0.83633 0.27131 0.24312 0.0
N438 N 0.86142 0.29816 0.27648 0.0
N439 N 0.87479 0.32967 0.3205 0.0
C440 C 0.85145 0.31195 0.29913 0.0
C441 C 0.90035 0.3266 0.31127 0.0
C442 C 0.89204 0.30718 0.28403 0.0
O443 O 0.79978 0.24247 0.27044 0.0
C444 C 0.84431 0.31858 0.19522 0.0
O445 O 0.86589 0.33407 0.21822 0.0
H446 H 0.82734 0.30851 0.30038 0.0
H447 H 0.90722 0.30002 0.27091 0.0
N448 N 0.85698 0.25126 0.22553 0.0
N449 N 0.86506 0.21419 0.20857 0.0
C450 C 0.84486 0.22199 0.22448 0.0
C451 C 0.88566 0.26246 0.20941 0.0
C452 C 0.89073 0.23966 0.19895 0.0
C453 C 0.77628 0.24497 0.28239 0.0
O454 O 0.7721 0.26741 0.27162 0.0
H455 H 0.82121 0.20683 0.234 0.0
H456 H 0.90152 0.28558 0.20506 0.0
O457 O 0.82754 0.29112 0.20191 0.0
H458 H 0.9234 0.33768 0.32325 0.0
H459 H 0.91163 0.24167 0.18518 0.0
Cu460 Cu 0.74927 0.533 0.25625 0.0
N461 N 0.71103 0.51944 0.28162 0.0
N462 N 0.67196 0.49748 0.32259 0.0
C463 C 0.70231 0.50491 0.3139 0.0
C464 C 0.66155 0.50827 0.29499 0.0
C465 C 0.68568 0.52182 0.26989 0.0
O466 O 0.77645 0.51923 0.28079 0.0
C467 C 0.71528 0.502 0.19491 0.0
O468 O 0.69728 0.48161 0.21885 0.0
H469 H 0.71794 0.50013 0.33072 0.0
H470 H 0.68467 0.53218 0.24442 0.0
N471 N 0.77043 0.57351 0.259 0.0
N472 N 0.80291 0.62091 0.24616 0.0
C473 C 0.7876 0.59379 0.23319 0.0
C474 C 0.77499 0.5881 0.28929 0.0
C475 C 0.79508 0.61725 0.28156 0.0
C476 C 0.76757 0.4934 0.29383 0.0
O477 O 0.73931 0.47272 0.28612 0.0
H478 H 0.78961 0.58857 0.20576 0.0
H479 H 0.76561 0.57794 0.31552 0.0
O480 O 0.74005 0.52404 0.20546 0.0
H481 H 0.63786 0.5058 0.29263 0.0
H482 H 0.8047 0.63399 0.3011 0.0
Cu483 Cu 0.56528 0.15358 0.98402 0.0
N484 N 0.54108 0.16473 0.9535 0.0
N485 N 0.52799 0.18792 0.90979 0.0
C486 C 0.55134 0.18345 0.92446 0.0
C487 C 0.50203 0.17139 0.93047 0.0
C488 C 0.51015 0.15706 0.95728 0.0
O489 O 0.60485 0.16302 0.95827 0.0
C490 C 0.55855 0.18832 1.03918 0.0
O491 O 0.54912 0.19996 1.01292 0.0
H492 H 0.5755 0.19391 0.91443 0.0
H493 H 0.49486 0.14283 0.97881 0.0
N494 N 0.54461 0.11285 0.99156 0.0
N495 N 0.53431 0.06782 1.01157 0.0
C496 C 0.55425 0.0968 1.01266 0.0
C497 C 0.51771 0.09339 0.97664 0.0
C498 C 0.5112 0.06564 0.9891 0.0
C499 C 0.62566 0.18874 0.94847 0.0
O500 O 0.62301 0.21112 0.9603 0.0
H501 H 0.57528 0.10626 1.02874 0.0
H502 H 0.50394 0.09892 0.95771 0.0
O503 O 0.56877 0.17024 1.03169 0.0
H504 H 0.47917 0.17072 0.92754 0.0
H505 H 0.49132 0.04537 0.9817 0.0
Cu506 Cu 0.90013 0.40977 0.99502 0.0
N507 N 0.89806 0.37856 0.96974 0.0
N508 N 0.8835 0.34483 0.92833 0.0
C509 C 0.87935 0.36673 0.94161 0.0
C510 C 0.90592 0.34299 0.94882 0.0
C511 C 0.91483 0.36384 0.97442 0.0
O512 O 0.87762 0.42574 0.966 0.0
C513 C 0.86002 0.37013 0.05012 0.0
O514 O 0.84662 0.35318 1.02325 0.0
H515 H 0.86287 0.37396 0.9312 0.0
H516 H 0.93257 0.36828 0.99466 0.0
N517 N 0.94252 0.43808 0.99699 0.0
N518 N 0.98762 0.4762 1.01274 0.0
C519 C 0.95674 0.45871 1.0213 0.0
C520 C 0.96503 0.44283 0.97219 0.0
C521 C 0.99282 0.4663 0.98177 0.0
C522 C 0.88228 0.45205 0.96588 0.0
O523 O 0.90028 0.4694 0.99041 0.0
H524 H 0.94465 0.461 0.04457 0.0
H525 H 0.96125 0.43044 0.94834 0.0
O526 O 0.88249 0.39584 0.0434 0.0
H527 H 0.91581 0.32823 0.94504 0.0
H528 H 1.01484 0.47594 0.96643 0.0
Cu529 Cu 0.61832 0.48184 0.99583 0.0
N530 N 0.64877 0.50906 0.96338 0.0
N531 N 0.68614 0.52687 0.92007 0.0
C532 C 0.67146 0.50563 0.94591 0.0
C533 C 0.6725 0.5445 0.92143 0.0
C534 C 0.64948 0.53349 0.94824 0.0
O535 O 0.602 0.4453 0.97085 0.0
C536 C 0.66204 0.50278 0.05287 0.0
O537 O 0.67329 0.52715 1.03287 0.0
H538 H 0.67618 0.48727 0.95096 0.0
H539 H 0.6337 0.54219 0.95539 0.0
N540 N 0.58511 0.49152 1.00076 0.0
N541 N 0.54508 0.49853 1.02128 0.0
C542 C 0.56926 0.49276 1.03021 0.0
C543 C 0.57036 0.49651 0.97258 0.0
C544 C 0.54591 0.50088 0.98503 0.0
C545 C 0.57283 0.42667 0.9704 0.0
O546 O 0.55303 0.42924 0.99263 0.0
H547 H 0.5747 0.48855 0.05736 0.0
H548 H 0.57672 0.49645 0.94472 0.0
O549 O 0.63772 0.48038 0.04214 0.0
H550 H 0.6786 0.56376 0.90407 0.0
H551 H 0.52995 0.50554 0.96857 0.0
Cu552 Cu 0.53919 0.80226 0.81568 0.0
N553 N 0.51629 0.80353 0.85614 0.0
N554 N 0.5023 0.81492 0.90842 0.0
C555 C 0.52658 0.81853 0.88642 0.0
C556 C 0.47585 0.79718 0.89109 0.0
C557 C 0.48453 0.79018 0.85912 0.0
O558 O 0.58397 0.8154 0.82512 0.0
C559 C 0.50558 0.80833 0.7567 0.0
O560 O 0.48585 0.78145 0.76774 0.0
H561 H 0.55129 0.83198 0.89213 0.0
H562 H 0.4687 0.77679 0.83894 0.0
N563 N 0.52522 0.76351 0.80369 0.0
N564 N 0.52197 0.72606 0.77281 0.0
C565 C 0.53401 0.75539 0.77362 0.0
C566 C 0.50687 0.73851 0.82267 0.0
C567 C 0.50463 0.71532 0.80352 0.0
C568 C 0.60589 0.83848 0.83775 0.0
O569 O 0.59999 0.85988 0.84627 0.0
H570 H 0.54867 0.77085 0.7526 0.0
H571 H 0.49626 0.73727 0.84875 0.0
O572 O 0.53095 0.82238 0.77419 0.0
H573 H 0.45185 0.79065 0.90004 0.0
H574 H 0.49178 0.69238 0.81186 0.0
Cu575 Cu 0.20308 0.71346 0.81827 0.0
N576 N 0.18121 0.6824 0.78807 0.0
N577 N 0.16746 0.65284 0.74183 0.0
C578 C 0.18626 0.6801 0.75287 0.0
C579 C 0.14962 0.6377 0.77086 0.0
C580 C 0.15814 0.65594 0.79924 0.0
O581 O 0.24232 0.74216 0.79503 0.0
C582 C 0.21501 0.71179 0.89329 0.0
O583 O 0.22194 0.73954 0.89055 0.0
H584 H 0.20414 0.69756 0.7361 0.0
H585 H 0.1488 0.65015 0.82649 0.0
N586 N 0.17942 0.73308 0.82586 0.0
N587 N 0.16857 0.76941 0.83854 0.0
C588 C 0.19145 0.76169 0.83229 0.0
C589 C 0.14781 0.72219 0.8281 0.0
C590 C 0.14104 0.74456 0.83606 0.0
C591 C 0.2616 0.73657 0.77763 0.0
O592 O 0.25723 0.70953 0.77796 0.0
H593 H 0.21656 0.7762 0.83385 0.0
H594 H 0.13096 0.6995 0.82483 0.0
O595 O 0.20828 0.6973 0.86484 0.0
H596 H 0.13199 0.6149 0.7716 0.0
H597 H 0.1177 0.74265 0.83999 0.0
Cu598 Cu 0.28226 0.4721 0.80444 0.0
N599 N 0.32087 0.48918 0.77885 0.0
N600 N 0.35722 0.51047 0.73485 0.0
C601 C 0.32628 0.49294 0.74293 0.0
C602 C 0.37172 0.51777 0.76664 0.0
C603 C 0.34935 0.50466 0.79363 0.0
O604 O 0.25199 0.48063 0.77809 0.0
C605 C 0.30624 0.47708 0.87331 0.0
O606 O 0.31277 0.45699 0.86105 0.0
H607 H 0.30779 0.48452 0.72326 0.0
H608 H 0.35347 0.50746 0.82207 0.0
N609 N 0.26491 0.43139 0.80755 0.0
N610 N 0.23133 0.38479 0.82305 0.0
C611 C 0.23891 0.41314 0.82698 0.0
C612 C 0.27435 0.41412 0.79086 0.0
C613 C 0.25375 0.38531 0.80055 0.0
C614 C 0.25914 0.50452 0.76027 0.0
O615 O 0.28779 0.52638 0.76267 0.0
H616 H 0.22616 0.42067 0.84409 0.0
H617 H 0.29464 0.42193 0.77279 0.0
O618 O 0.29095 0.48654 0.85325 0.0
H619 H 0.39666 0.53226 0.77004 0.0
H620 H 0.25491 0.36623 0.79138 0.0
Cu621 Cu 0.50103 0.88384 0.11215 0.0
N622 N 0.5235 0.86813 0.13823 0.0
N623 N 0.53762 0.84524 0.18112 0.0
C624 C 0.52016 0.85902 0.17323 0.0
C625 C 0.55247 0.84577 0.15015 0.0
C626 C 0.54383 0.85997 0.12384 0.0
O627 O 0.46504 0.87936 0.1413 0.0
C628 C 0.51198 0.87395 0.04106 0.0
O629 O 0.53929 0.89678 0.04677 0.0
H630 H 0.50414 0.86112 0.19201 0.0
H631 H 0.55095 0.8631 0.0958 0.0
N632 N 0.52597 0.92417 0.10376 0.0
N633 N 0.5408 0.97022 0.08374 0.0
C634 C 0.51835 0.94196 0.08325 0.0
C635 C 0.55407 0.94171 0.118 0.0
C636 C 0.56328 0.97014 0.10574 0.0
C637 C 0.44369 0.85596 0.1565 0.0
O638 O 0.44251 0.83073 0.14979 0.0
H639 H 0.49669 0.93428 0.0683 0.0
H640 H 0.56664 0.93438 0.13656 0.0
O641 O 0.49062 0.86489 0.06585 0.0
H642 H 0.56791 0.83596 0.14668 0.0
H643 H 0.58435 0.9893 0.11345 0.0
Cu644 Cu 0.16434 0.63992 0.10771 0.0
N645 N 0.16897 0.66839 0.1401 0.0
N646 N 0.18682 0.69991 0.18444 0.0
C647 C 0.19175 0.68097 0.1646 0.0
C648 C 0.15967 0.69877 0.17211 0.0
C649 C 0.14894 0.6796 0.1447 0.0
O650 O 0.18331 0.6172 0.13002 0.0
C651 C 0.18701 0.64833 1.03347 0.0
O652 O 0.17952 0.62044 1.03514 0.0
H653 H 0.21155 0.67637 0.16772 0.0
H654 H 0.12763 0.67376 0.1296 0.0
N655 N 0.12092 0.61456 0.10311 0.0
N656 N 0.07578 0.57753 0.08521 0.0
C657 C 0.10641 0.59602 0.07671 0.0
C658 C 0.09849 0.60779 0.12882 0.0
C659 C 0.07061 0.58515 0.11776 0.0
C660 C 0.17427 0.59061 0.12295 0.0
O661 O 0.15604 0.57984 0.09532 0.0
H662 H 0.11836 0.59523 0.05247 0.0
H663 H 0.10256 0.61756 0.1547 0.0
O664 O 0.1831 0.6599 0.06134 0.0
H665 H 0.14777 0.71029 0.18272 0.0
H666 H 0.04877 0.57397 0.13334 0.0
Cu667 Cu 0.40734 0.5392 0.10097 0.0
N668 N 0.38372 0.54041 0.06119 0.0
N669 N 0.3583 0.52977 1.00881 0.0
C670 C 0.37355 0.52177 1.03416 0.0
C671 C 0.35861 0.55419 1.02081 0.0
C672 C 0.37431 0.56071 0.05297 0.0
O673 O 0.43115 0.51861 0.08744 0.0
C674 C 0.36796 0.53683 0.1583 0.0
O675 O 0.37653 0.56359 0.14558 0.0
H676 H 0.37713 0.50263 1.0334 0.0
H677 H 0.379 0.57924 0.06898 0.0
N678 N 0.43689 0.57736 0.1113 0.0
N679 N 0.47096 0.61552 0.14156 0.0
C680 C 0.44907 0.58706 0.14364 0.0
C681 C 0.4517 0.6004 0.08791 0.0
C682 C 0.47276 0.624 0.10649 0.0
C683 C 0.45679 0.52253 0.10245 0.0
O684 O 0.46565 0.53808 0.13119 0.0
H685 H 0.4422 0.5734 0.16817 0.0
H686 H 0.44794 0.59986 0.05923 0.0
O687 O 0.37854 0.52152 0.14265 0.0
H688 H 0.3489 0.5669 1.00687 0.0
H689 H 0.48894 0.64536 0.09486 0.0
Cu690 Cu 0.1464 0.54693 0.57296 0.0
N691 N 0.15139 0.52084 0.60555 0.0
N692 N 0.17299 0.50709 0.65122 0.0
C693 C 0.17791 0.52706 0.62403 0.0
C694 C 0.14215 0.48723 0.64903 0.0
C695 C 0.12891 0.49581 0.62105 0.0
O696 O 0.16674 0.5832 0.59854 0.0
C697 C 0.16809 0.52559 0.51589 0.0
O698 O 0.15624 0.50185 0.53707 0.0
H699 H 0.20007 0.54639 0.61795 0.0
H700 H 0.10427 0.48537 0.61378 0.0
N701 N 0.10311 0.53601 0.56877 0.0
N702 N 0.05533 0.52678 0.5481 0.0
C703 C 0.08575 0.53407 0.5393 0.0
C704 C 0.08308 0.52989 0.59692 0.0
C705 C 0.05377 0.52419 0.58436 0.0
C706 C 0.15473 0.59999 0.60505 0.0
O707 O 0.1306 0.59818 0.58636 0.0
H708 H 0.09547 0.53866 0.51218 0.0
H709 H 0.08955 0.52991 0.62479 0.0
O710 O 0.16617 0.54805 0.52603 0.0
H711 H 0.12954 0.46856 0.66747 0.0
H712 H 0.03279 0.51833 0.60072 0.0
Cu713 Cu 0.49823 0.59816 0.58649 0.0
N714 N 0.52318 0.62751 0.61714 0.0
N715 N 0.53634 0.65968 0.66046 0.0
C716 C 0.51299 0.64132 0.63949 0.0
C717 C 0.56217 0.65706 0.65098 0.0
C718 C 0.55398 0.63729 0.62418 0.0
O719 O 0.4553 0.58239 0.60555 0.0
C720 C 0.50379 0.63872 0.52936 0.0
O721 O 0.49544 0.65124 0.55422 0.0
H722 H 0.48876 0.63762 0.64066 0.0
H723 H 0.56909 0.62976 0.61162 0.0
N724 N 0.51081 0.56888 0.59 0.0
N725 N 0.51951 0.53105 0.57852 0.0
C726 C 0.5106 0.55071 0.56487 0.0
C727 C 0.51988 0.5603 0.62046 0.0
C728 C 0.52518 0.537 0.61354 0.0
C729 C 0.43556 0.55526 0.60755 0.0
O730 O 0.44175 0.53691 0.59005 0.0
H731 H 0.50346 0.5515 0.5374 0.0
H732 H 0.52151 0.5698 0.64623 0.0
O733 O 0.50459 0.6149 0.53754 0.0
H734 H 0.585 0.66756 0.66352 0.0
H735 H 0.53131 0.52458 0.63323 0.0
Cu736 Cu 0.41515 0.86567 0.60036 0.0
N737 N 0.3795 0.85236 0.63048 0.0
N738 N 0.34286 0.82561 0.67248 0.0
C739 C 0.37063 0.83111 0.65665 0.0
C740 C 0.3342 0.84438 0.65577 0.0
C741 C 0.35677 0.86075 0.62978 0.0
O742 O 0.44199 0.85014 0.62211 0.0
C743 C 0.37476 0.83355 0.54274 0.0
O744 O 0.35573 0.81623 0.56854 0.0
H745 H 0.38439 0.82004 0.66393 0.0
H746 H 0.35645 0.8773 0.61129 0.0
N747 N 0.43678 0.90661 0.5989 0.0
N748 N 0.47126 0.95277 0.58249 0.0
C749 C 0.46085 0.92417 0.57641 0.0
C750 C 0.43188 0.92467 0.62005 0.0
C751 C 0.45317 0.95315 0.61007 0.0
C752 C 0.45946 0.86306 0.64843 0.0
O753 O 0.46131 0.88801 0.65778 0.0
H754 H 0.47039 0.91612 0.55584 0.0
H755 H 0.41438 0.9176 0.64159 0.0
O756 O 0.40167 0.85417 0.551 0.0
H757 H 0.31264 0.84564 0.66131 0.0
H758 H 0.45561 0.97255 0.62274 0.0
Cu759 Cu 0.21937 0.48549 0.31441 0.0
N760 N 0.19461 0.49605 0.28456 0.0
N761 N 0.17982 0.51624 0.23924 0.0
C762 C 0.20439 0.51525 0.25599 0.0
C763 C 0.15373 0.49731 0.25818 0.0
C764 C 0.16294 0.48493 0.2862 0.0
O765 O 0.26122 0.50113 0.29089 0.0
C766 C 0.21112 0.51826 0.37098 0.0
O767 O 0.20626 0.53341 0.34477 0.0
H768 H 0.22887 0.52777 0.24722 0.0
H769 H 0.14765 0.46872 0.30618 0.0
N770 N 0.20084 0.44455 0.31798 0.0
N771 N 0.19021 0.39899 0.33577 0.0
C772 C 0.20808 0.42785 0.34102 0.0
C773 C 0.17756 0.42563 0.29763 0.0
C774 C 0.17088 0.39755 0.30862 0.0
C775 C 0.26504 0.48747 0.26503 0.0
O776 O 0.24138 0.46238 0.25667 0.0
H777 H 0.22578 0.43673 0.36149 0.0
H778 H 0.16647 0.4318 0.27597 0.0
O779 O 0.21907 0.49871 0.36316 0.0
H780 H 0.12976 0.49294 0.25229 0.0
H781 H 0.15351 0.37761 0.29713 0.0
Cu782 Cu 0.5697 0.74111 0.33307 0.0
N783 N 0.56578 0.712 0.30215 0.0
N784 N 0.54704 0.6811 0.25748 0.0
C785 C 0.54423 0.70166 0.2761 0.0
C786 C 0.57107 0.67812 0.27271 0.0
C787 C 0.58269 0.6973 0.30015 0.0
O788 O 0.54966 0.76132 0.30704 0.0
C789 C 0.55921 0.70593 0.39506 0.0
O790 O 0.58448 0.70554 0.38192 0.0
H791 H 0.52648 0.70878 0.27138 0.0
H792 H 0.60226 0.70039 0.31719 0.0
N793 N 0.6126 0.76705 0.33957 0.0
N794 N 0.65714 0.80436 0.35806 0.0
C795 C 0.62534 0.78925 0.36217 0.0
C796 C 0.63724 0.76821 0.32077 0.0
C797 C 0.66472 0.79103 0.33229 0.0
C798 C 0.55586 0.78801 0.30843 0.0
O799 O 0.5747 0.8041 0.3333 0.0
H800 H 0.61161 0.79439 0.381 0.0
H801 H 0.63536 0.75397 0.29943 0.0
O802 O 0.54884 0.72182 0.37878 0.0
H803 H 0.57987 0.6634 0.26429 0.0
H804 H 0.68835 0.79799 0.32166 0.0
Cu805 Cu 0.28662 0.82325 0.33878 0.0
N806 N 0.32078 0.84676 0.30742 0.0
N807 N 0.35921 0.86076 0.26521 0.0
C808 C 0.33787 0.83834 0.28644 0.0
C809 C 0.35509 0.88406 0.27303 0.0
C810 C 0.33165 0.87543 0.29908 0.0
O811 O 0.25888 0.78918 0.31231 0.0
C812 C 0.32618 0.83655 0.39871 0.0
O813 O 0.33943 0.86213 0.3812 0.0
H814 H 0.33463 0.81621 0.28655 0.0
H815 H 0.32265 0.88903 0.31058 0.0
N816 N 0.26182 0.84217 0.34613 0.0
N817 N 0.22456 0.85291 0.36686 0.0
C818 C 0.24332 0.84031 0.37465 0.0
C819 C 0.25427 0.85619 0.31967 0.0
C820 C 0.23154 0.86292 0.33233 0.0
C821 C 0.26359 0.7688 0.30032 0.0
O822 O 0.28834 0.76597 0.31068 0.0
H823 H 0.24232 0.82855 0.39975 0.0
H824 H 0.26357 0.85999 0.29241 0.0
O825 O 0.30224 0.8156 0.38492 0.0
H826 H 0.36723 0.90564 0.25999 0.0
H827 H 0.22042 0.87378 0.31703 0.0
C828 C 0.16387 0.02262 0.06326 0.0
C829 C 0.19189 0.04474 0.07688 0.0
C830 C 0.16453 1.00776 1.03275 0.0
C831 C 0.19327 0.01437 1.01495 0.0
H832 H 0.14124 0.0176 0.07542 0.0
H833 H 0.14228 0.99173 1.02233 0.0
S834 S 0.27345 0.06757 0.0436 0.0
N835 N 0.24918 0.07068 0.07258 0.0
N836 N 0.25066 0.04241 1.01591 0.0
C837 C 0.22153 0.03548 1.02954 0.0
C838 C 0.22078 0.05073 0.06033 0.0
C839 C 0.96489 0.12004 0.08559 0.0
C840 C 0.96136 0.09143 0.08528 0.0
C841 C 0.9834 0.14156 0.05948 0.0
C842 C 0.99929 0.13551 1.03194 0.0
H843 H 0.95255 0.12576 0.10563 0.0
H844 H 0.98488 0.16306 0.06051 0.0
S845 S 0.99897 0.06454 1.0194 0.0
N846 N 0.97649 0.05858 0.05559 0.0
N847 N 1.01102 0.09906 1.00636 0.0
C848 C 0.99703 0.10738 1.03197 0.0
C849 C 0.97815 0.08536 0.05866 0.0
C850 C 0.85771 0.81671 0.04706 0.0
C851 C 0.86545 0.84139 1.02393 0.0
C852 C 0.87645 0.81782 0.07658 0.0
C853 C 0.90396 0.84366 0.08421 0.0
H854 H 0.83724 0.79614 0.04186 0.0
H855 H 0.86976 0.79789 0.09286 0.0
S856 S 0.93397 0.91492 1.03266 0.0
N857 N 0.90192 0.8928 1.01128 0.0
N858 N 0.9371 0.89509 0.06681 0.0
C859 C 0.91128 0.86891 0.0621 0.0
C860 C 0.89207 0.86774 1.03199 0.0
C861 C 0.06646 0.1944 0.58055 0.0
C862 C 0.03756 0.1915 0.56766 0.0
C863 C 0.09186 0.20046 0.55696 0.0
C864 C 0.08914 0.20317 0.51944 0.0
H865 H 0.06963 0.19262 0.60919 0.0
H866 H 0.11385 0.20301 0.56831 0.0
S867 S 1.01756 0.19553 0.47199 0.0
N868 N 1.0071 0.19067 0.51502 0.0
N869 N 0.05463 0.2014 0.47051 0.0
C870 C 0.06 0.19943 0.50611 0.0
C871 C 0.03429 0.19383 0.53026 0.0
C872 C 0.90282 0.9224 0.51718 0.0
C873 C 0.87711 0.91653 0.49445 0.0
C874 C 0.90119 0.90199 0.54426 0.0
C875 C 0.87369 0.8751 0.54985 0.0
H876 H 0.92395 0.94335 0.51504 0.0
H877 H 0.92096 0.90788 0.56211 0.0
S878 S 0.80167 0.84698 0.49477 0.0
N879 N 0.82459 0.88007 0.47707 0.0
N880 N 0.82172 0.8422 0.52827 0.0
C881 C 0.84862 0.86819 0.52614 0.0
C882 C 0.8503 0.88875 0.49832 0.0
C883 C 0.17291 0.97489 0.53962 0.0
C884 C 0.16857 0.98786 0.50748 0.0
C885 C 0.19041 0.99203 0.56779 0.0
C886 C 0.20429 0.02262 0.56455 0.0
H887 H 0.16314 0.95135 0.54279 0.0
H888 H 0.19344 0.98144 0.59211 0.0
S889 S 0.19737 0.0673 0.48828 0.0
N890 N 0.17768 0.03324 0.47562 0.0
N891 N 0.21105 0.06529 0.52852 0.0
C892 C 0.1997 0.03589 0.53313 0.0
C893 C 0.18175 0.01854 0.50454 0.0
C894 C 0.81849 0.95902 1.01304 0.0
C895 C 0.84578 0.97545 1.03278 0.0
C896 C 0.81954 0.9442 0.98274 0.0
C897 C 0.84794 0.94495 0.97093 0.0
H898 H 0.79593 0.95711 1.02158 0.0
H899 H 0.79757 0.93121 0.96926 0.0
S900 S 0.92656 0.98606 1.01239 0.0
N901 N 0.90235 0.99252 1.03765 0.0
N902 N 0.90454 0.96495 0.98066 0.0
C903 C 0.87575 0.96237 0.98958 0.0
C904 C 0.87463 0.97753 1.02047 0.0
C905 C 0.05764 0.85413 1.02135 0.0
C906 C 0.03726 0.86129 0.04081 0.0
C907 C 0.07496 0.87134 0.99137 0.0
C908 C 0.07297 0.89674 0.97982 0.0
H909 H 0.0607 0.83535 1.02991 0.0
H910 H 0.09097 0.86517 0.97806 0.0
S911 S 1.0212 0.92391 1.02043 0.0
N912 N 1.01459 0.89447 0.04554 0.0
N913 N 0.04721 0.92704 0.98915 0.0
C914 C 0.05154 0.90343 0.99816 0.0
C915 C 0.03366 0.88566 1.02864 0.0
C916 C 0.15407 0.19665 1.01532 0.0
C917 C 0.14237 0.17308 0.99216 0.0
C918 C 0.1709 0.19657 0.04628 0.0
C919 C 0.17736 0.1732 0.0552 0.0
H920 H 0.14906 0.21487 1.01043 0.0
H921 H 0.17828 0.21473 0.06382 0.0
S922 S 0.15444 0.10723 1.00201 0.0
N923 N 0.14009 0.12642 0.97937 0.0
N924 N 0.17222 0.1265 1.03701 0.0
C925 C 0.1672 0.15014 1.03134 0.0
C926 C 0.14958 0.15001 1.00006 0.0
C927 C 1.00656 0.8467 0.59806 0.0
C928 C 0.99146 0.86451 0.59715 0.0
C929 C 0.02848 0.84943 0.571 0.0
C930 C 0.03539 0.86943 0.54137 0.0
H931 H 1.00136 0.83047 0.61983 0.0
H932 H 0.03954 0.8353 0.57289 0.0
S933 S 1.00227 0.92118 0.52615 0.0
N934 N 0.98543 0.90318 0.56426 0.0
N935 N 0.02573 0.90776 0.51322 0.0
C936 C 1.0205 0.88741 0.54022 0.0
C937 C 0.9988 0.8851 0.56813 0.0
C938 C 0.21108 0.17056 0.56836 0.0
C939 C 0.18868 0.15941 0.54111 0.0
C940 C 0.21006 0.15309 0.59868 0.0
C941 C 0.18672 0.12363 0.60286 0.0
H942 H 0.22964 0.193 0.56613 0.0
H943 H 0.22824 0.16264 0.61854 0.0
S944 S 0.12266 0.08398 0.53856 0.0
N945 N 0.14252 0.11729 0.52001 0.0
N946 N 0.14033 0.08428 0.5768 0.0
C947 C 0.16376 0.1124 0.57597 0.0
C948 C 0.1648 0.13031 0.54518 0.0
C949 C 0.92509 0.07181 0.58396 0.0
C950 C 0.90666 0.06009 0.61575 0.0
C951 C 0.91447 0.0591 0.55083 0.0
C952 C 0.88531 0.03382 0.54805 0.0
H953 H 0.94715 0.09195 0.58412 0.0
H954 H 0.92879 0.06962 0.52691 0.0
S955 S 0.82966 0.99232 0.6232 0.0
N956 N 0.85878 0.02008 0.64246 0.0
N957 N 0.83929 0.99604 0.58 0.0
C958 C 0.8676 0.02065 0.57973 0.0
C959 C 0.87816 0.03382 0.61358 0.0
C960 C 0.88887 0.34991 0.38068 0.0
C961 C 0.87268 0.34731 0.34835 0.0
C962 C 0.88687 0.36666 0.40831 0.0
C963 C 0.86892 0.38175 0.40445 0.0
H964 H 0.90291 0.33861 0.38482 0.0
H965 H 0.89987 0.3682 0.43266 0.0
S966 S 0.82223 0.38234 0.32502 0.0
N967 N 0.8384 0.3616 0.3139 0.0
N968 N 0.83429 0.39271 0.36602 0.0
C969 C 0.85264 0.37938 0.37227 0.0
C970 C 0.85454 0.36221 0.3442 0.0
C971 C 0.60799 0.46751 0.39383 0.0
C972 C 0.61008 0.44299 0.40846 0.0
C973 C 0.62927 0.48593 0.36709 0.0
C974 C 0.65334 0.48044 0.35352 0.0
H975 H 0.5892 0.47213 0.40249 0.0
H976 H 0.62634 0.50426 0.35627 0.0
S977 S 0.66937 0.41925 0.38345 0.0
N978 N 0.63877 0.41462 0.40856 0.0
N979 N 0.67848 0.44889 0.3575 0.0
C980 C 0.6565 0.45657 0.36889 0.0
C981 C 0.63491 0.43792 0.39655 0.0
C982 C 0.56693 0.18628 0.39534 0.0
C983 C 0.57396 0.16286 0.40116 0.0
C984 C 0.54702 0.18626 0.36743 0.0
C985 C 0.53352 0.16295 0.34401 0.0
H986 H 0.57669 0.20468 0.41263 0.0
H987 H 0.54191 0.20454 0.36442 0.0
S988 S 0.54712 0.0978 0.34538 0.0
N989 N 0.56712 0.11644 0.37979 0.0
N990 N 0.53068 0.11689 0.32707 0.0
C991 C 0.54094 0.13972 0.34911 0.0
C992 C 0.56088 0.13957 0.37769 0.0
C993 C 0.73936 0.53209 0.90923 0.0
C994 C 0.71098 0.53 0.89575 0.0
C995 C 0.7647 0.53718 0.88601 0.0
C996 C 0.76222 0.53954 0.84841 0.0
H997 H 0.74223 0.53063 0.93799 0.0
H998 H 0.78644 0.5393 0.89763 0.0
S999 S 0.69191 0.53382 0.79981 0.0
N1000 N 0.68128 0.52976 0.84274 0.0
N1001 N 0.72849 0.53831 0.79885 0.0
C1002 C 0.73349 0.53646 0.83458 0.0
C1003 C 0.70798 0.53199 0.85833 0.0
C1004 C 0.56102 0.25694 0.85061 0.0
C1005 C 0.536 0.25203 0.8272 0.0
C1006 C 0.55859 0.23563 0.87682 0.0
C1007 C 0.53103 0.20855 0.88076 0.0
H1008 H 0.58234 0.27777 0.84954 0.0
H1009 H 0.57802 0.24084 0.89499 0.0
S1010 S 0.4603 0.18313 0.82348 0.0
N1011 N 0.48374 0.21678 0.80782 0.0
N1012 N 0.47945 0.17688 0.85687 0.0
C1013 C 0.50642 0.2028 0.85656 0.0
C1014 C 0.50885 0.22446 0.82984 0.0
C1015 C 0.8599 0.34102 0.86844 0.0
C1016 C 0.8676 0.32781 0.89799 0.0
C1017 C 0.84356 0.32479 0.83912 0.0
C1018 C 0.83398 0.29465 0.83837 0.0
H1019 H 0.86665 0.36413 0.86794 0.0
H1020 H 0.83777 0.33578 0.81722 0.0
S1021 S 0.84896 0.24973 0.90851 0.0
N1022 N 0.86461 0.28281 0.92446 0.0
N1023 N 0.83446 0.25245 0.86907 0.0
C1024 C 0.8419 0.28124 0.86748 0.0
C1025 C 0.85863 0.29779 0.8973 0.0
C1026 C 0.4927 0.29136 0.34894 0.0
C1027 C 0.52001 0.30726 0.36891 0.0
C1028 C 0.49363 0.27709 0.31806 0.0
C1029 C 0.52192 0.27784 0.30577 0.0
H1030 H 0.47021 0.2895 0.35765 0.0
H1031 H 0.47163 0.26455 0.30443 0.0
S1032 S 0.60058 0.31776 0.34754 0.0
N1033 N 0.57652 0.32393 0.37346 0.0
N1034 N 0.57846 0.29728 0.3154 0.0
C1035 C 0.54975 0.29471 0.32469 0.0
C1036 C 0.54876 0.30935 0.35621 0.0
C1037 C 0.72469 0.21741 0.31683 0.0
C1038 C 0.75686 0.22495 0.3125 0.0
C1039 C 0.70638 0.19862 0.34562 0.0
C1040 C 0.71971 0.18706 0.37141 0.0
H1041 H 0.71348 0.22571 0.29757 0.0
H1042 H 0.68152 0.19279 0.34736 0.0
S1043 S 0.80412 0.20365 0.37485 0.0
N1044 N 0.80186 0.22127 0.33791 0.0
N1045 N 0.76798 0.18712 0.39241 0.0
C1046 C 0.75218 0.19538 0.36797 0.0
C1047 C 0.7706 0.21403 0.33846 0.0
C1048 C 0.789 0.45478 0.36999 0.0
C1049 C 0.81784 0.47668 0.38263 0.0
C1050 C 0.77376 0.46013 0.34054 0.0
C1051 C 0.78652 0.48768 0.32218 0.0
H1052 H 0.77763 0.43322 0.38325 0.0
H1053 H 0.75128 0.44256 0.33279 0.0
S1054 S 0.86257 0.55224 0.34283 0.0
N1055 N 0.85938 0.52677 0.37321 0.0
N1056 N 0.83081 0.53694 0.3179 0.0
C1057 C 0.81591 0.50961 0.33374 0.0
C1058 C 0.83151 0.5041 0.36386 0.0
C1059 C 0.66734 0.22165 0.90345 0.0
C1060 C 0.64919 0.19339 0.91916 0.0
C1061 C 0.68692 0.2266 0.87319 0.0
C1062 C 0.68959 0.2036 0.85709 0.0
H1063 H 0.66584 0.24021 0.91393 0.0
H1064 H 0.69981 0.24883 0.86208 0.0
S1065 S 0.64901 0.12559 0.88912 0.0
N1066 N 0.63651 0.14205 0.91727 0.0
N1067 N 0.67354 0.15151 0.86049 0.0
C1068 C 0.67256 0.17532 0.87324 0.0
C1069 C 0.65235 0.1702 0.90415 0.0
C1070 C 0.86884 0.45064 0.90089 0.0
C1071 C 0.87307 0.46428 0.93392 0.0
C1072 C 0.86459 0.46361 0.869 0.0
C1073 C 0.86367 0.49036 0.86894 0.0
H1074 H 0.87018 0.43037 0.89925 0.0
H1075 H 0.86244 0.45287 0.84401 0.0
S1076 S 0.8711 0.53403 0.94819 0.0
N1077 N 0.87455 0.5055 0.96468 0.0
N1078 N 0.86576 0.52945 0.90459 0.0
C1079 C 0.86637 0.50361 0.90184 0.0
C1080 C 0.87131 0.49069 0.93434 0.0
C1081 C 0.5274 0.3901 0.93609 0.0
C1082 C 0.56035 0.40605 0.94056 0.0
C1083 C 0.51468 0.37416 0.90535 0.0
C1084 C 0.53427 0.3731 0.87793 0.0
H1085 H 0.51114 0.39079 0.95579 0.0
H1086 H 0.48923 0.36297 0.90265 0.0
S1087 S 0.62193 0.4091 0.87709 0.0
N1088 N 0.61232 0.41832 0.91535 0.0
N1089 N 0.58814 0.38814 0.85777 0.0
C1090 C 0.56714 0.38766 0.88268 0.0
C1091 C 0.58023 0.40417 0.9139 0.0
C1092 C 0.50485 0.66631 0.70856 0.0
C1093 C 0.53341 0.67671 0.6887 0.0
C1094 C 0.50142 0.68238 0.73614 0.0
C1095 C 0.52633 0.70959 0.74489 0.0
H1096 H 0.48504 0.6454 0.70304 0.0
H1097 H 0.47891 0.67361 0.75041 0.0
S1098 S 0.60623 0.74647 0.70167 0.0
N1099 N 0.58706 0.71616 0.67976 0.0
N1100 N 0.58097 0.74577 0.73236 0.0
C1101 C 0.55513 0.72015 0.72553 0.0
C1102 C 0.5586 0.70385 0.69733 0.0
C1103 C 0.30765 0.80963 0.72618 0.0
C1104 C 0.32523 0.8038 0.70046 0.0
C1105 C 0.28834 0.78817 0.75195 0.0
C1106 C 0.28558 0.75978 0.75303 0.0
H1107 H 0.30856 0.83096 0.72613 0.0
H1108 H 0.27484 0.79378 0.77057 0.0
S1109 S 0.32755 0.7335 0.69215 0.0
N1110 N 0.33925 0.76775 0.67807 0.0
N1111 N 0.30326 0.72743 0.72664 0.0
C1112 C 0.30389 0.75391 0.72816 0.0
C1113 C 0.32361 0.77588 0.70187 0.0
C1114 C 0.1906 0.48086 0.69553 0.0
C1115 C 0.19486 0.50734 0.67852 0.0
C1116 C 0.21093 0.48027 0.72244 0.0
C1117 C 0.23666 0.50615 0.73355 0.0
H1118 H 0.17162 0.46023 0.68761 0.0
H1119 H 0.20673 0.45919 0.73407 0.0
S1120 S 0.25746 0.58161 0.69969 0.0
N1121 N 0.22626 0.56045 0.67644 0.0
N1122 N 0.26457 0.55921 0.7265 0.0
C1123 C 0.24108 0.53286 0.71721 0.0
C1124 C 0.22026 0.5335 0.68984 0.0
C1125 C 0.3928 0.83318 0.19295 0.0
C1126 C 0.4221 0.85762 0.18413 0.0
C1127 C 0.37246 0.83428 0.21948 0.0
C1128 C 0.38073 0.85977 0.23855 0.0
H1129 H 0.38533 0.81311 0.17898 0.0
H1130 H 0.34989 0.81512 0.22472 0.0
S1131 S 0.45644 0.92867 0.22859 0.0
N1132 N 0.45916 0.90751 0.19827 0.0
N1133 N 0.42157 0.90923 0.24858 0.0
C1134 C 0.41035 0.88409 0.23062 0.0
C1135 C 0.43085 0.88309 0.20336 0.0
C1136 C 0.20023 0.58235 0.17789 0.0
C1137 C 0.17872 0.57074 0.14972 0.0
C1138 C 0.20151 0.56424 0.20635 0.0
C1139 C 0.18094 0.53401 0.20799 0.0
H1140 H 0.21558 0.60571 0.17852 0.0
H1141 H 0.21767 0.57407 0.22805 0.0
S1142 S 0.12244 0.49207 0.13993 0.0
N1143 N 0.13811 0.52637 0.12426 0.0
N1144 N 0.14036 0.49282 0.17812 0.0
C1145 C 0.16034 0.52193 0.17946 0.0
C1146 C 0.15932 0.54017 0.1502 0.0
C1147 C 0.51957 0.63536 0.22519 0.0
C1148 C 0.52799 0.66513 0.22805 0.0
C1149 C 0.50076 0.61929 0.19706 0.0
C1150 C 0.48996 0.63245 0.17046 0.0
H1151 H 0.52725 0.62431 0.24513 0.0
H1152 H 0.49498 0.59646 0.19585 0.0
S1153 S 0.50574 0.7099 0.16537 0.0
N1154 N 0.52455 0.70729 0.20147 0.0
N1155 N 0.4888 0.67696 0.14896 0.0
C1156 C 0.4983 0.66223 0.1729 0.0
C1157 C 0.51734 0.67857 0.20164 0.0
C1158 C 0.16175 0.64232 0.64194 0.0
C1159 C 0.1621 0.61536 0.63937 0.0
C1160 C 0.16503 0.65529 0.67532 0.0
C1161 C 0.16775 0.64124 0.70733 0.0
H1162 H 0.1584 0.65321 0.61808 0.0
H1163 H 0.16408 0.67576 0.67638 0.0
S1164 S 0.16966 0.57042 0.7155 0.0
N1165 N 0.16583 0.57535 0.67203 0.0
N1166 N 0.17137 0.59945 0.73434 0.0
C1167 C 0.16863 0.6146 0.70503 0.0
C1168 C 0.16596 0.60172 0.67117 0.0
C1169 C 0.39359 0.55167 0.6952 0.0
C1170 C 0.37212 0.52179 0.70016 0.0
C1171 C 0.41225 0.56267 0.66382 0.0
C1172 C 0.41062 0.54409 0.63634 0.0
H1173 H 0.3967 0.56648 0.71637 0.0
H1174 H 0.42936 0.58566 0.66218 0.0
S1175 S 0.35552 0.46445 0.635 0.0
N1176 N 0.34807 0.4742 0.6741 0.0
N1177 N 0.38343 0.49457 0.615 0.0
C1178 C 0.38777 0.51438 0.64012 0.0
C1179 C 0.36845 0.5033 0.67204 0.0
C1180 C 0.50927 0.85271 0.72206 0.0
C1181 C 0.49677 0.82214 0.72577 0.0
C1182 C 0.49803 0.86575 0.69584 0.0
C1183 C 0.47416 0.84883 0.67187 0.0
H1184 H 0.52688 0.86663 0.74054 0.0
H1185 H 0.50757 0.88933 0.69504 0.0
S1186 S 0.43589 0.76799 0.66786 0.0
N1187 N 0.46084 0.77537 0.70128 0.0
N1188 N 0.44002 0.79991 0.65211 0.0
C1189 C 0.46274 0.81836 0.67399 0.0
C1190 C 0.47393 0.80503 0.70091 0.0
C1191 C 0.30012 0.48239 0.21882 0.0
C1192 C 0.29414 0.50044 0.24169 0.0
C1193 C 0.32493 0.49411 0.19309 0.0
C1194 C 0.34455 0.52446 0.18874 0.0
H1195 H 0.28501 0.45894 0.22016 0.0
H1196 H 0.32787 0.47934 0.17549 0.0
S1197 S 0.34085 0.5812 0.24383 0.0
N1198 N 0.3115 0.55015 0.25985 0.0
N1199 N 0.35783 0.57224 0.21144 0.0
C1200 C 0.33971 0.54269 0.21245 0.0
C1201 C 0.31466 0.5307 0.23894 0.0
C1202 C 0.53849 0.78765 0.24496 0.0
C1203 C 0.54695 0.80188 0.27775 0.0
C1204 C 0.53458 0.80169 0.21383 0.0
C1205 C 0.53828 0.83026 0.2143 0.0
H1206 H 0.53622 0.76593 0.24275 0.0
H1207 H 0.5292 0.79034 0.18893 0.0
S1208 S 0.55761 0.87639 0.2933 0.0
N1209 N 0.55713 0.84581 0.30894 0.0
N1210 N 0.54899 0.8718 0.25026 0.0
C1211 C 0.54505 0.84424 0.24706 0.0
C1212 C 0.54961 0.83016 0.2788 0.0
C1213 C 0.24095 0.72345 0.26418 0.0
C1214 C 0.24327 0.75095 0.27109 0.0
C1215 C 0.22259 0.70691 0.23584 0.0
C1216 C 0.20607 0.71734 0.2131 0.0
H1217 H 0.25322 0.71452 0.28093 0.0
H1218 H 0.22104 0.68565 0.232 0.0
S1219 S 0.20741 0.78958 0.21707 0.0
N1220 N 0.229 0.78864 0.25122 0.0
N1221 N 0.19555 0.75811 0.19775 0.0
C1222 C 0.20891 0.74515 0.21919 0.0
C1223 C 0.22722 0.76179 0.24819 0.0
C1224 C 0.19523 0.20445 0.30768 0.0
C1225 C 0.16973 0.19129 0.33267 0.0
C1226 C 0.19459 0.1922 0.27449 0.0
C1227 C 0.1684 0.16621 0.26461 0.0
H1228 H 0.21603 0.22455 0.31366 0.0
H1229 H 0.21464 0.20346 0.25618 0.0
S1230 S 0.09618 0.12192 0.32091 0.0
N1231 N 0.11781 0.15011 0.34541 0.0
N1232 N 0.1168 0.12691 0.28339 0.0
C1233 C 0.14281 0.15261 0.2894 0.0
C1234 C 0.14342 0.16516 0.32325 0.0
C1235 C 0.88326 0.0165 0.32158 0.0
C1236 C 0.87046 0.98579 0.32332 0.0
C1237 C 0.89052 0.03254 0.28855 0.0
C1238 C 0.88539 0.01869 0.25559 0.0
H1239 H 0.8869 0.02834 0.34594 0.0
H1240 H 0.89941 0.05599 0.28899 0.0
S1241 S 0.85523 0.93899 0.245 0.0
N1242 N 0.85513 0.94233 0.2889 0.0
N1243 N 0.86876 0.97244 0.22694 0.0
C1244 C 0.874 0.98813 0.25688 0.0
C1245 C 0.86655 0.97173 0.29063 0.0
C1246 C 0.98652 0.85549 0.26707 0.0
C1247 C 0.99747 0.83786 0.25044 0.0
C1248 C 1.00052 0.87006 0.29847 0.0
C1249 C 0.02613 0.86773 0.31435 0.0
H1250 H 0.96671 0.85772 0.25608 0.0
H1251 H 0.99094 0.88297 0.31068 0.0
S1252 S 0.06605 0.82704 0.27896 0.0
N1253 N 0.03691 0.82051 0.25099 0.0
N1254 N 0.06341 0.84831 0.30917 0.0
C1255 C 0.03779 0.85079 0.29741 0.0
C1256 C 0.02345 0.83581 0.26569 0.0
C1257 C 0.87304 0.83314 0.77169 0.0
C1258 C 0.88805 0.85853 0.74904 0.0
C1259 C 0.85688 0.83278 0.8033 0.0
C1260 C 0.85532 0.85787 0.81419 0.0
H1261 H 0.87262 0.81292 0.7643 0.0
H1262 H 0.84507 0.81236 0.8191 0.0
S1263 S 0.89294 0.9308 0.7664 0.0
N1264 N 0.90183 0.91008 0.741 0.0
N1265 N 0.87191 0.90941 0.80085 0.0
C1266 C 0.87148 0.88383 0.79283 0.0
C1267 C 0.88765 0.88413 0.7602 0.0
C1268 C 0.16649 0.0313 0.78167 0.0
C1269 C 0.17255 0.0178 0.75277 0.0
C1270 C 0.15503 0.01614 0.81498 0.0
C1271 C 0.14907 0.98687 0.82063 0.0
H1272 H 0.17241 0.05424 0.77929 0.0
H1273 H 0.15247 0.02804 0.83694 0.0
S1274 S 0.15533 0.94005 0.75125 0.0
N1275 N 0.16764 0.9724 0.73038 0.0
N1276 N 0.14591 0.94385 0.79263 0.0
C1277 C 0.15249 0.97245 0.79094 0.0
C1278 C 0.16431 0.98793 0.75714 0.0
C1279 C 0.99475 0.16323 0.78618 0.0
C1280 C 1.0074 0.15054 0.76268 0.0
C1281 C 1.00866 0.1737 0.81925 0.0
C1282 C 0.03583 0.17185 0.83082 0.0
H1283 H 0.97419 0.16574 0.77873 0.0
H1284 H 0.99797 0.1836 0.83579 0.0
S1285 S 0.07757 0.1391 0.78058 0.0
N1286 N 0.04834 0.13569 0.75415 0.0
N1287 N 0.07423 0.15522 0.81654 0.0
C1288 C 0.0483 0.15843 0.80821 0.0
C1289 C 0.03421 0.14789 0.77417 0.0
C1290 C 0.86576 0.5303 0.64134 0.0
C1291 C 0.83815 0.52491 0.66084 0.0
C1292 C 0.86431 0.51693 0.60886 0.0
C1293 C 0.83518 0.49763 0.59419 0.0
H1294 H 0.8889 0.54456 0.65156 0.0
H1295 H 0.8863 0.52123 0.59564 0.0
S1296 S 0.75575 0.47831 0.63259 0.0
N1297 N 0.78066 0.50012 0.66193 0.0
N1298 N 0.77787 0.47556 0.60045 0.0
C1299 C 0.8073 0.49267 0.61282 0.0
C1300 C 0.8088 0.50615 0.64617 0.0
C1301 C 0.55971 0.35773 0.65599 0.0
C1302 C 0.54819 0.3272 0.65926 0.0
C1303 C 0.5675 0.37281 0.62225 0.0
C1304 C 0.56411 0.35806 0.59022 0.0
H1305 H 0.56139 0.37001 0.6795 0.0
H1306 H 0.57492 0.39607 0.6213 0.0
S1307 S 0.53966 0.27886 0.58431 0.0
N1308 N 0.53732 0.28329 0.62767 0.0
N1309 N 0.55183 0.31156 0.56446 0.0
C1310 C 0.55464 0.32785 0.59329 0.0
C1311 C 0.54673 0.31248 0.62768 0.0
C1312 C 0.69125 0.16101 0.58937 0.0
C1313 C 0.66649 0.16337 0.57134 0.0
C1314 C 0.70188 0.17338 0.62271 0.0
C1315 C 0.68826 0.18872 0.63975 0.0
H1316 H 0.70281 0.14958 0.57759 0.0
H1317 H 0.72129 0.17123 0.63499 0.0
S1318 S 0.62164 0.20009 0.60515 0.0
N1319 N 0.6281 0.18177 0.57371 0.0
N1320 N 0.64773 0.20463 0.63664 0.0
C1321 C 0.66333 0.19116 0.62225 0.0
C1322 C 0.65254 0.1786 0.58807 0.0
C1323 C 0.53509 0.20786 0.08476 0.0
C1324 C 0.55316 0.19343 0.07734 0.0
C1325 C 0.52683 0.2106 0.12017 0.0
C1326 C 0.53645 0.19928 0.14999 0.0
H1327 H 0.52638 0.2165 0.06297 0.0
H1328 H 0.5123 0.2213 0.12408 0.0
S1329 S 0.58593 0.16116 0.14569 0.0
N1330 N 0.5816 0.16881 0.10322 0.0
N1331 N 0.56654 0.17413 0.16949 0.0
C1332 C 0.55547 0.18565 0.14304 0.0
C1333 C 0.56368 0.18268 0.10691 0.0
C1334 C 0.83506 0.32733 0.09462 0.0
C1335 C 0.8521 0.35787 0.08783 0.0
C1336 C 0.83096 0.31478 0.12967 0.0
C1337 C 0.8437 0.33226 0.15942 0.0
H1338 H 0.82596 0.31279 0.07257 0.0
H1339 H 0.81905 0.29115 0.13319 0.0
S1340 S 0.88558 0.41356 0.15698 0.0
N1341 N 0.87846 0.40538 0.11442 0.0
N1342 N 0.87065 0.38193 0.18013 0.0
C1343 C 0.85886 0.3629 0.15326 0.0
C1344 C 0.8631 0.37566 0.11757 0.0
C1345 C 0.66189 0.47842 0.11315 0.0
C1346 C 0.67724 0.50194 0.08784 0.0
C1347 C 0.67492 0.47817 0.14705 0.0
C1348 C 0.70401 0.50136 0.1572 0.0
H1349 H 0.63918 0.46031 0.10716 0.0
H1350 H 0.66159 0.45985 0.16576 0.0
S1351 S 0.75527 0.56707 0.09958 0.0
N1352 N 0.72436 0.54829 0.07459 0.0
N1353 N 0.74866 0.54775 0.13789 0.0
C1354 C 0.7202 0.5245 0.13159 0.0
C1355 C 0.70688 0.52482 0.09713 0.0
C1356 C 0.52998 0.87191 0.97848 0.0
C1357 C 0.50777 0.8584 1.00698 0.0
C1358 C 0.52817 0.85756 0.94669 0.0
C1359 C 0.50405 0.829 0.94183 0.0
H1360 H 0.54911 0.8939 0.98065 0.0
H1361 H 0.54561 0.86912 0.92553 0.0
S1362 S 0.44089 0.78303 1.00872 0.0
N1363 N 0.46127 0.81429 1.02843 0.0
N1364 N 0.45812 0.78717 0.96897 0.0
C1365 C 0.48172 0.81508 0.97012 0.0
C1366 C 0.48351 0.82979 1.00254 0.0
C1367 C 0.20051 0.66626 0.93247 0.0
C1368 C 0.21125 0.6967 0.92947 0.0
C1369 C 0.19373 0.65104 0.96614 0.0
C1370 C 0.19721 0.66552 0.9984 0.0
H1371 H 0.19652 0.65383 0.90857 0.0
H1372 H 0.18481 0.62755 0.9667 0.0
S1373 S 0.22726 0.7455 1.00592 0.0
N1374 N 0.22707 0.74106 0.96225 0.0
N1375 N 0.21418 0.71251 1.02519 0.0
C1376 C 0.20902 0.69611 0.99592 0.0
C1377 C 0.21608 0.71165 0.96162 0.0
C1378 C 0.31863 0.5172 0.96056 0.0
C1379 C 0.34529 0.51607 0.97531 0.0
C1380 C 0.30607 0.50466 0.92763 0.0
C1381 C 0.31952 0.49027 0.90823 0.0
H1382 H 0.30719 0.52769 0.97472 0.0
H1383 H 0.28551 0.50603 0.91748 0.0
S1384 S 0.39131 0.48354 0.93326 0.0
N1385 N 0.38598 0.50116 0.96636 0.0
N1386 N 0.36214 0.47705 0.90536 0.0
C1387 C 0.34638 0.48925 0.9225 0.0
C1388 C 0.35929 0.50223 0.95578 0.0
C1389 C 0.18439 0.5452 0.45189 0.0
C1390 C 0.18206 0.52526 0.48007 0.0
C1391 C 0.19476 0.54334 0.41713 0.0
C1392 C 0.20357 0.52164 0.40903 0.0
H1393 H 0.17717 0.56182 0.45635 0.0
H1394 H 0.19517 0.55874 0.39624 0.0
S1395 S 0.20481 0.46585 0.47428 0.0
N1396 N 0.19164 0.48432 0.49806 0.0
N1397 N 0.21117 0.48097 0.43321 0.0
C1398 C 0.20266 0.50237 0.43743 0.0
C1399 C 0.19188 0.50412 0.47272 0.0
C1400 C 0.51253 0.67923 0.48368 0.0
C1401 C 0.51553 0.65398 0.49345 0.0
C1402 C 0.52583 0.69551 0.45136 0.0
C1403 C 0.5431 0.68745 0.42779 0.0
H1404 H 0.50022 0.68683 0.5014 0.0
H1405 H 0.52339 0.71503 0.44536 0.0
S1406 S 0.55584 0.62198 0.43901 0.0
N1407 N 0.5355 0.6208 0.47536 0.0
N1408 N 0.56067 0.65146 0.41521 0.0
C1409 C 0.54546 0.66179 0.43664 0.0
C1410 C 0.53163 0.64504 0.46925 0.0
C1411 C 0.38021 0.85482 0.47957 0.0
C1412 C 0.36323 0.83179 0.50501 0.0
C1413 C 0.36829 0.8556 0.44524 0.0
C1414 C 0.33889 0.83331 0.43445 0.0
H1415 H 0.40256 0.87299 0.4865 0.0
H1416 H 0.38219 0.87425 0.42721 0.0
S1417 S 0.28595 0.76681 0.48968 0.0
N1418 N 0.316 0.78511 0.51606 0.0
N1419 N 0.29383 0.78661 0.45155 0.0
C1420 C 0.32218 0.80952 0.45901 0.0
C1421 C 0.33425 0.80878 0.4942 0.0
C1422 C 0.31212 0.1733 0.19465 0.0
C1423 C 0.30849 0.16701 0.15795 0.0
C1424 C 0.33941 0.17728 0.21305 0.0
C1425 C 0.36451 0.17542 0.19562 0.0
H1426 H 0.29333 0.17434 0.20973 0.0
H1427 H 0.3407 0.18146 0.24142 0.0
S1428 S 0.36805 0.16097 0.09947 0.0
N1429 N 0.33343 0.1604 0.10447 0.0
N1430 N 0.38455 0.16789 0.13931 0.0
C1431 C 0.3619 0.17031 0.15869 0.0
C1432 C 0.33397 0.16608 0.13985 0.0
C1433 C 0.87247 0.17993 0.16989 0.0
C1434 C 0.85975 0.185 0.20135 0.0
C1435 C 0.86744 0.15175 0.16218 0.0
C1436 C 0.84931 0.12747 0.18547 0.0
H1437 H 0.88606 0.19783 0.15079 0.0
H1438 H 0.87742 0.14882 0.13753 0.0
S1439 S 0.8135 0.12919 0.27307 0.0
N1440 N 0.83016 0.16348 0.25721 0.0
N1441 N 0.82039 0.11056 0.2424 0.0
C1442 C 0.83686 0.13222 0.21725 0.0
C1443 C 0.84214 0.16094 0.22525 0.0
C1444 C 0.84508 0.64566 0.19963 0.0
C1445 C 0.8262 0.64731 0.22751 0.0
C1446 C 0.86955 0.67095 0.18318 0.0
C1447 C 0.87641 0.69907 0.19392 0.0
H1448 H 0.84161 0.62464 0.19109 0.0
H1449 H 0.88343 0.66837 0.16201 0.0
S1450 S 0.83259 0.71553 0.26419 0.0
N1451 N 0.81446 0.67951 0.26327 0.0
N1452 N 0.86151 0.72693 0.23387 0.0
C1453 C 0.85717 0.7011 0.22117 0.0
C1454 C 0.83192 0.67528 0.23762 0.0
C1455 C 0.16276 0.34848 0.36215 0.0
C1456 C 0.19099 0.37451 0.35495 0.0
C1457 C 0.16291 0.32424 0.38036 0.0
C1458 C 0.19131 0.32508 0.3921 0.0
H1459 H 0.1403 0.34698 0.35406 0.0
H1460 H 0.14057 0.30487 0.38589 0.0
S1461 S 0.27195 0.38687 0.37669 0.0
N1462 N 0.24829 0.39891 0.35883 0.0
N1463 N 0.2486 0.35341 0.39305 0.0
C1464 C 0.21976 0.35077 0.38449 0.0
C1465 C 0.2196 0.37546 0.36595 0.0
C1466 C 0.70792 0.83339 0.38742 0.0
C1467 C 0.67881 0.83052 0.37527 0.0
C1468 C 0.73058 0.85951 0.40154 0.0
C1469 C 0.72525 0.88404 0.40361 0.0
H1470 H 0.71322 0.81525 0.3858 0.0
H1471 H 0.75252 0.86049 0.41079 0.0
S1472 S 0.65316 0.88802 0.37338 0.0
N1473 N 0.64586 0.85428 0.36551 0.0
N1474 N 0.68864 0.90372 0.39115 0.0
C1475 C 0.69603 0.88133 0.39166 0.0
C1476 C 0.67279 0.85451 0.37768 0.0
C1477 C 0.17175 0.85017 0.37366 0.0
C1478 C 0.20039 0.85417 0.38899 0.0
C1479 C 0.14947 0.85484 0.3931 0.0
C1480 C 0.15503 0.86415 0.42864 0.0
H1481 H 0.16685 0.84399 0.34602 0.0
H1482 H 0.1284 0.85244 0.37945 0.0
S1483 S 0.22537 0.8756 0.48207 0.0
N1484 N 0.23224 0.86612 0.44251 0.0
N1485 N 0.19064 0.87514 0.47919 0.0
C1486 C 0.18298 0.8669 0.44486 0.0
C1487 C 0.20554 0.86183 0.42506 0.0
C1488 C 0.68771 0.86128 0.87728 0.0
C1489 C 0.69492 0.83927 0.86643 0.0
C1490 C 0.65937 0.86147 0.86706 0.0
C1491 C 0.63725 0.83975 0.84542 0.0
H1492 H 0.70349 0.87777 0.89491 0.0
H1493 H 0.65438 0.87829 0.87712 0.0
S1494 S 0.64757 0.77978 0.80572 0.0
N1495 N 0.6794 0.79705 0.83002 0.0
N1496 N 0.62652 0.79727 0.81065 0.0
C1497 C 0.64517 0.81852 0.83294 0.0
C1498 C 0.67385 0.8183 0.84349 0.0
C1499 C 0.15179 0.79956 0.87372 0.0
C1500 C 0.17276 0.79764 0.84873 0.0
C1501 C 0.15617 0.82674 0.88506 0.0
C1502 C 0.18178 0.85302 0.87199 0.0
H1503 H 0.13223 0.77988 0.88522 0.0
H1504 H 0.13979 0.8272 0.90477 0.0
S1505 S 0.24124 0.86028 0.80305 0.0
N1506 N 0.21852 0.82464 0.80901 0.0
N1507 N 0.22692 0.87559 0.83067 0.0
C1508 C 0.20246 0.85149 0.84636 0.0
C1509 C 0.19791 0.82385 0.83465 0.0
C1510 C 0.20902 0.33477 0.8511 0.0
C1511 C 0.20528 0.35932 0.83997 0.0
C1512 C 0.18436 0.31025 0.86884 0.0
C1513 C 0.15506 0.3094 0.87619 0.0
H1514 H 0.23145 0.33481 0.84686 0.0
H1515 H 0.18853 0.29216 0.87775 0.0
S1516 S 0.13167 0.36621 0.84854 0.0
N1517 N 0.16885 0.37993 0.83462 0.0
N1518 N 0.12277 0.33405 0.86828 0.0
C1519 C 0.15066 0.33335 0.86422 0.0
C1520 C 0.17568 0.35825 0.84605 0.0
C1521 C 0.84299 0.68491 0.70415 0.0
C1522 C 0.8719 0.70934 0.69414 0.0
C1523 C 0.84208 0.65983 0.72125 0.0
C1524 C 0.87006 0.65814 0.72893 0.0
H1525 H 0.82089 0.68533 0.6991 0.0
H1526 H 0.8193 0.64175 0.72893 0.0
S1527 S 0.95174 0.71512 0.70516 0.0
N1528 N 0.92909 0.72965 0.69127 0.0
N1529 N 0.92744 0.68249 0.72314 0.0
C1530 C 0.89913 0.68228 0.71859 0.0
C1531 C 0.90004 0.70786 0.70128 0.0
C1532 C 0.34833 0.18993 0.69348 0.0
C1533 C 0.33445 0.1718 0.72441 0.0
C1534 C 0.37555 0.21699 0.69566 0.0
C1535 C 0.38989 0.22692 0.72884 0.0
H1536 H 0.3385 0.18282 0.66731 0.0
H1537 H 0.38585 0.22995 0.67108 0.0
S1538 S 0.36071 0.18933 0.8182 0.0
N1539 N 0.33563 0.16681 0.78955 0.0
N1540 N 0.3868 0.21758 0.79356 0.0
C1541 C 0.37579 0.20938 0.76006 0.0
C1542 C 0.34806 0.18186 0.75787 0.0
C1543 C 0.84989 0.15601 0.7446 0.0
C1544 C 0.84883 0.15477 0.70684 0.0
C1545 C 0.83011 0.16416 0.76389 0.0
C1546 C 0.80813 0.17106 0.7463 0.0
H1547 H 0.866 0.15047 0.75945 0.0
H1548 H 0.83209 0.16509 0.79285 0.0
S1549 S 0.79756 0.17365 0.6476 0.0
N1550 N 0.82528 0.16333 0.65252 0.0
N1551 N 0.78751 0.17735 0.6887 0.0
C1552 C 0.80682 0.16995 0.70859 0.0
C1553 C 0.82729 0.16216 0.68891 0.0
C1554 C 1.00563 0.52932 0.53624 0.0
C1555 C 0.02925 0.52226 0.5248 0.0
C1556 C 0.97817 0.52212 0.51633 0.0
C1557 C 0.97297 0.5074 0.48402 0.0
H1558 H 1.0081 0.54006 0.56127 0.0
H1559 H 0.96043 0.52731 0.52708 0.0
S1560 S 0.02848 0.48551 0.44101 0.0
N1561 N 0.04623 0.50083 0.4782 0.0
N1562 N 0.99505 0.48762 0.44044 0.0
C1563 C 0.99712 0.5014 0.4714 0.0
C1564 C 0.02512 0.50875 0.4918 0.0
C1565 C 0.49636 0.49109 0.536 0.0
C1566 C 0.51985 0.50686 0.56077 0.0
C1567 C 0.49479 0.46602 0.52081 0.0
C1568 C 0.51682 0.45591 0.52949 0.0
H1569 H 0.4785 0.49767 0.52913 0.0
H1570 H 0.47609 0.45438 0.50218 0.0
S1571 S 0.58374 0.49012 0.59186 0.0
N1572 N 0.56648 0.51133 0.59203 0.0
N1573 N 0.56305 0.46393 0.56434 0.0
C1574 C 0.54081 0.47185 0.55367 0.0
C1575 C 0.54241 0.49735 0.56911 0.0
C1576 C 0.54879 0.99931 0.53366 0.0
C1577 C 0.54768 0.02567 0.52575 0.0
C1578 C 0.52388 0.97572 0.55236 0.0
C1579 C 0.49685 0.97753 0.56389 0.0
H1580 H 0.56914 0.99694 0.52533 0.0
H1581 H 0.52587 0.95594 0.55804 0.0
S1582 S 0.48114 0.04083 0.54751 0.0
N1583 N 0.51658 0.05164 0.52939 0.0
N1584 N 0.46982 1.00737 0.56452 0.0
C1585 C 0.49537 1.00372 0.55605 0.0
C1586 C 0.52075 0.02776 0.537 0.0
C1587 C 0.5093 0.01953 0.04409 0.0
C1588 C 0.53671 0.04392 1.03028 0.0
C1589 C 0.51086 0.99568 0.06159 0.0
C1590 C 0.5399 0.99519 0.0659 0.0
H1591 H 0.48647 0.019 0.04162 0.0
H1592 H 0.48917 0.97761 0.07218 0.0
S1593 S 0.61824 0.05257 1.03183 0.0
N1594 N 0.59354 0.06548 1.02044 0.0
N1595 N 0.59651 0.02064 0.05307 0.0
C1596 C 0.56747 0.01934 0.05188 0.0
C1597 C 0.56587 0.04369 1.03415 0.0
C1598 C 1.00025 0.52012 0.04721 0.0
C1599 C 1.00997 0.5013 1.03136 0.0
C1600 C 1.02193 0.54513 0.06445 0.0
C1601 C 0.05413 0.55231 0.06633 0.0
H1602 H 0.9758 0.51573 0.04579 0.0
H1603 H 1.01355 0.55915 0.07615 0.0
S1604 S 0.09088 0.50832 1.03298 0.0
N1605 N 0.0535 0.49033 1.02128 0.0
N1606 N 0.09412 0.53729 0.05346 0.0
C1607 C 0.06402 0.53335 0.05127 0.0
C1608 C 0.04197 0.50787 1.03385 0.0
C1609 C 0.4914 0.49285 1.03267 0.0
C1610 C 0.52248 0.50155 0.04438 0.0
C1611 C 0.46997 0.49855 0.05234 0.0
C1612 C 0.47859 0.51328 0.08471 0.0
H1613 H 0.48369 0.48194 1.00762 0.0
H1614 H 0.44673 0.49206 0.04142 0.0
S1615 S 0.55671 0.53937 0.12828 0.0
N1616 N 0.56039 0.52469 0.09119 0.0
N1617 N 0.52024 0.53509 0.12854 0.0
C1618 C 0.50922 0.52101 0.09756 0.0
C1619 C 0.53108 0.51521 0.07738 0.0
loop_
_geom_bond_atom_site_label_1
_geom_bond_atom_site_label_2
_geom_bond_distance
_geom_bond_site_symmetry_2
_ccdc_geom_bond_type
Cu0 N1 1.999 . S
Cu0 O6 1.974 . S
Cu0 N11 1.985 . S
Cu0 O20 1.959 . S
N1 Cu0 1.999 . S
N1 C3 1.263 . S
N1 C5 1.389 . S
N2 C3 1.358 . S
N2 C4 1.400 . S
C3 N1 1.263 . S
C3 N2 1.358 . S
C3 H9 0.930 . S
C4 N2 1.400 . S
C4 C5 1.351 . S
C4 H21 0.930 . S
C5 N1 1.389 . S
C5 C4 1.351 . S
C5 H10 0.930 . S
O6 Cu0 1.974 . S
O6 C16 1.282 . S
C7 O8 1.261 . S
C7 O20 1.251 . S
O8 C7 1.261 . S
H9 C3 0.930 . S
H10 C5 0.930 . S
N11 Cu0 1.985 . S
N11 C13 1.335 . S
N11 C14 1.390 . S
N12 C13 1.345 . S
N12 C15 1.336 . S
C13 N11 1.335 . S
C13 N12 1.345 . S
C13 H18 0.930 . S
C14 N11 1.390 . S
C14 C15 1.346 . S
C14 H19 0.930 . S
C15 N12 1.336 . S
C15 C14 1.346 . S
C15 H22 0.929 . S
C16 O6 1.282 . S
C16 O17 1.216 . S
O17 C16 1.216 . S
H18 C13 0.930 . S
H19 C14 0.930 . S
O20 Cu0 1.959 . S
O20 C7 1.251 . S
H21 C4 0.930 . S
H22 C15 0.929 . S
Cu23 N24 1.999 . S
Cu23 O29 1.974 . S
Cu23 N34 1.985 . S
Cu23 O43 1.959 . S
N24 Cu23 1.999 . S
N24 C26 1.263 . S
N24 C28 1.389 1_545 S
N25 C26 1.358 1_565 S
N25 C27 1.400 . S
C26 N24 1.263 . S
C26 N25 1.358 1_545 S
C26 H32 0.930 . S
C27 N25 1.400 . S
C27 C28 1.351 . S
C27 H44 0.930 . S
C28 N24 1.389 1_565 S
C28 C27 1.351 . S
C28 H33 0.930 . S
O29 Cu23 1.974 . S
O29 C39 1.282 . S
C30 O31 1.261 . S
C30 O43 1.251 . S
O31 C30 1.261 . S
H32 C26 0.930 . S
H33 C28 0.930 . S
N34 Cu23 1.985 . S
N34 C36 1.335 . S
N34 C37 1.390 . S
N35 C36 1.345 . S
N35 C38 1.336 . S
C36 N34 1.335 . S
C36 N35 1.345 . S
C36 H41 0.930 . S
C37 N34 1.390 . S
C37 C38 1.346 . S
C37 H42 0.930 . S
C38 N35 1.336 . S
C38 C37 1.346 . S
C38 H45 0.929 . S
C39 O29 1.282 . S
C39 O40 1.216 . S
O40 C39 1.216 . S
H41 C36 0.930 . S
H42 C37 0.930 . S
O43 Cu23 1.959 . S
O43 C30 1.251 . S
H44 C27 0.930 . S
H45 C38 0.929 . S
Cu46 N47 1.999 . S
Cu46 O52 1.974 . S
Cu46 N57 1.985 . S
Cu46 O66 1.959 . S
N47 Cu46 1.999 . S
N47 C49 1.263 . S
N47 C51 1.389 1_655 S
N48 C49 1.358 1_455 S
N48 C50 1.400 . S
C49 N47 1.263 . S
C49 N48 1.358 1_655 S
C49 H55 0.930 . S
C50 N48 1.400 . S
C50 C51 1.351 . S
C50 H67 0.930 . S
C51 N47 1.389 1_455 S
C51 C50 1.351 . S
C51 H56 0.930 . S
O52 Cu46 1.974 . S
O52 C62 1.282 . S
C53 O54 1.261 . S
C53 O66 1.251 . S
O54 C53 1.261 . S
H55 C49 0.930 . S
H56 C51 0.930 . S
N57 Cu46 1.985 . S
N57 C59 1.335 . S
N57 C60 1.390 . S
N58 C59 1.345 . S
N58 C61 1.336 . S
C59 N57 1.335 . S
C59 N58 1.345 . S
C59 H64 0.930 . S
C60 N57 1.390 . S
C60 C61 1.346 . S
C60 H65 0.930 . S
C61 N58 1.336 . S
C61 C60 1.346 . S
C61 H68 0.929 . S
C62 O52 1.282 . S
C62 O63 1.216 . S
O63 C62 1.216 . S
H64 C59 0.930 . S
H65 C60 0.930 . S
O66 Cu46 1.959 . S
O66 C53 1.251 . S
H67 C50 0.930 . S
H68 C61 0.929 . S
Cu69 N70 1.999 . S
Cu69 O75 1.974 . S
Cu69 N80 1.985 . S
Cu69 O89 1.959 . S
N70 Cu69 1.999 . S
N70 C72 1.263 . S
N70 C74 1.389 . S
N71 C72 1.358 . S
N71 C73 1.400 . S
C72 N70 1.263 . S
C72 N71 1.358 . S
C72 H78 0.930 . S
C73 N71 1.400 . S
C73 C74 1.351 . S
C73 H90 0.930 . S
C74 N70 1.389 . S
C74 C73 1.351 . S
C74 H79 0.930 . S
O75 Cu69 1.974 . S
O75 C85 1.282 . S
C76 O77 1.261 . S
C76 O89 1.251 . S
O77 C76 1.261 . S
H78 C72 0.930 . S
H79 C74 0.930 . S
N80 Cu69 1.985 . S
N80 C82 1.335 . S
N80 C83 1.390 . S
N81 C82 1.345 . S
N81 C84 1.336 . S
C82 N80 1.335 . S
C82 N81 1.345 . S
C82 H87 0.930 . S
C83 N80 1.390 . S
C83 C84 1.346 . S
C83 H88 0.930 . S
C84 N81 1.336 . S
C84 C83 1.346 . S
C84 H91 0.929 . S
C85 O75 1.282 . S
C85 O86 1.216 . S
O86 C85 1.216 . S
H87 C82 0.930 . S
H88 C83 0.930 . S
O89 Cu69 1.959 . S
O89 C76 1.251 . S
H90 C73 0.930 . S
H91 C84 0.929 . S
Cu92 N93 1.999 . S
Cu92 O98 1.974 . S
Cu92 N103 1.985 . S
Cu92 O112 1.959 . S
N93 Cu92 1.999 . S
N93 C95 1.263 . S
N93 C97 1.389 1_565 S
N94 C95 1.358 1_545 S
N94 C96 1.400 . S
C95 N93 1.263 . S
C95 N94 1.358 1_565 S
C95 H101 0.930 . S
C96 N94 1.400 . S
C96 C97 1.351 . S
C96 H113 0.930 . S
C97 N93 1.389 1_545 S
C97 C96 1.351 . S
C97 H102 0.930 . S
O98 Cu92 1.974 . S
O98 C108 1.282 . S
C99 O100 1.261 . S
C99 O112 1.251 . S
O100 C99 1.261 . S
H101 C95 0.930 . S
H102 C97 0.930 . S
N103 Cu92 1.985 . S
N103 C105 1.335 . S
N103 C106 1.390 . S
N104 C105 1.345 . S
N104 C107 1.336 . S
C105 N103 1.335 . S
C105 N104 1.345 . S
C105 H110 0.930 . S
C106 N103 1.390 . S
C106 C107 1.346 . S
C106 H111 0.930 . S
C107 N104 1.336 . S
C107 C106 1.346 . S
C107 H114 0.929 . S
C108 O98 1.282 . S
C108 O109 1.216 . S
O109 C108 1.216 . S
H110 C105 0.930 . S
H111 C106 0.930 . S
O112 Cu92 1.959 . S
O112 C99 1.251 . S
H113 C96 0.930 . S
H114 C107 0.929 . S
Cu115 N116 1.999 . S
Cu115 O121 1.974 . S
Cu115 N126 1.985 . S
Cu115 O135 1.959 . S
N116 Cu115 1.999 . S
N116 C118 1.263 . S
N116 C120 1.389 1_455 S
N117 C118 1.360 1_655 S
N117 C119 1.398 . S
C118 N116 1.263 . S
C118 N117 1.360 1_455 S
C118 H124 0.930 . S
C119 N117 1.398 . S
C119 C120 1.351 . S
C119 H136 0.930 . S
C120 N116 1.389 1_655 S
C120 C119 1.351 . S
C120 H125 0.930 . S
O121 Cu115 1.974 . S
O121 C131 1.282 . S
C122 O123 1.257 1_655 S
C122 O135 1.250 1_655 S
O123 C122 1.257 1_455 S
H124 C118 0.930 . S
H125 C120 0.930 . S
N126 Cu115 1.985 . S
N126 C128 1.335 . S
N126 C129 1.390 . S
N127 C128 1.345 . S
N127 C130 1.336 . S
C128 N126 1.335 . S
C128 N127 1.345 . S
C128 H133 0.930 . S
C129 N126 1.390 . S
C129 C130 1.346 . S
C129 H134 0.930 . S
C130 N127 1.336 . S
C130 C129 1.346 . S
C130 H137 0.929 . S
C131 O121 1.282 . S
C131 O132 1.216 . S
O132 C131 1.216 . S
H133 C128 0.930 . S
H134 C129 0.930 . S
O135 Cu115 1.959 . S
O135 C122 1.250 1_455 S
H136 C119 0.930 . S
H137 C130 0.929 . S
Cu138 N139 1.999 . S
Cu138 O144 1.974 . S
Cu138 N149 1.985 . S
Cu138 O158 1.959 . S
N139 Cu138 1.999 . S
N139 C141 1.263 . S
N139 C143 1.389 . S
N140 C141 1.358 . S
N140 C142 1.400 . S
C141 N139 1.263 . S
C141 N140 1.358 . S
C141 H147 0.930 . S
C142 N140 1.400 . S
C142 C143 1.351 . S
C142 H159 0.930 . S
C143 N139 1.389 . S
C143 C142 1.351 . S
C143 H148 0.930 . S
O144 Cu138 1.974 . S
O144 C154 1.282 . S
C145 O146 1.261 . S
C145 O158 1.251 . S
O146 C145 1.261 . S
H147 C141 0.930 . S
H148 C143 0.930 . S
N149 Cu138 1.985 . S
N149 C151 1.335 . S
N149 C152 1.390 . S
N150 C151 1.345 . S
N150 C153 1.336 . S
C151 N149 1.335 . S
C151 N150 1.345 . S
C151 H156 0.930 . S
C152 N149 1.390 . S
C152 C153 1.346 . S
C152 H157 0.930 . S
C153 N150 1.336 . S
C153 C152 1.346 . S
C153 H160 0.929 . S
C154 O144 1.282 . S
C154 O155 1.216 . S
O155 C154 1.216 . S
H156 C151 0.930 . S
H157 C152 0.930 . S
O158 Cu138 1.959 . S
O158 C145 1.251 . S
H159 C142 0.930 . S
H160 C153 0.929 . S
Cu161 N162 1.999 . S
Cu161 O167 1.974 . S
Cu161 N172 1.985 . S
Cu161 O181 1.959 . S
N162 Cu161 1.999 . S
N162 C164 1.263 . S
N162 C166 1.389 1_565 S
N163 C164 1.358 1_545 S
N163 C165 1.400 . S
C164 N162 1.263 . S
C164 N163 1.358 1_565 S
C164 H170 0.930 . S
C165 N163 1.400 . S
C165 C166 1.351 . S
C165 H182 0.930 . S
C166 N162 1.389 1_545 S
C166 C165 1.351 . S
C166 H171 0.930 . S
O167 Cu161 1.974 . S
O167 C177 1.282 . S
C168 O169 1.261 . S
C168 O181 1.251 . S
O169 C168 1.261 . S
H170 C164 0.930 . S
H171 C166 0.930 . S
N172 Cu161 1.985 . S
N172 C174 1.335 . S
N172 C175 1.390 . S
N173 C174 1.345 . S
N173 C176 1.336 . S
C174 N172 1.335 . S
C174 N173 1.345 . S
C174 H179 0.930 . S
C175 N172 1.390 . S
C175 C176 1.346 . S
C175 H180 0.930 . S
C176 N173 1.336 . S
C176 C175 1.346 . S
C176 H183 0.929 . S
C177 O167 1.282 . S
C177 O178 1.216 . S
O178 C177 1.216 . S
H179 C174 0.930 . S
H180 C175 0.930 . S
O181 Cu161 1.959 . S
O181 C168 1.251 . S
H182 C165 0.930 . S
H183 C176 0.929 . S
Cu184 N185 1.999 . S
Cu184 O190 1.974 . S
Cu184 N195 1.985 . S
Cu184 O204 1.959 . S
N185 Cu184 1.999 . S
N185 C187 1.263 . S
N185 C189 1.389 1_455 S
N186 C187 1.358 1_655 S
N186 C188 1.400 . S
C187 N185 1.263 . S
C187 N186 1.358 1_455 S
C187 H193 0.930 . S
C188 N186 1.400 . S
C188 C189 1.351 . S
C188 H205 0.930 . S
C189 N185 1.389 1_655 S
C189 C188 1.351 . S
C189 H194 0.930 . S
O190 Cu184 1.974 . S
O190 C200 1.282 . S
C191 O192 1.261 . S
C191 O204 1.251 . S
O192 C191 1.261 . S
H193 C187 0.930 . S
H194 C189 0.930 . S
N195 Cu184 1.985 . S
N195 C197 1.335 . S
N195 C198 1.390 . S
N196 C197 1.345 . S
N196 C199 1.336 . S
C197 N195 1.335 . S
C197 N196 1.345 . S
C197 H202 0.930 . S
C198 N195 1.390 . S
C198 C199 1.346 . S
C198 H203 0.930 . S
C199 N196 1.336 . S
C199 C198 1.346 . S
C199 H206 0.929 . S
C200 O190 1.282 . S
C200 O201 1.216 . S
O201 C200 1.216 . S
H202 C197 0.930 . S
H203 C198 0.930 . S
O204 Cu184 1.959 . S
O204 C191 1.251 . S
H205 C188 0.930 . S
H206 C199 0.929 . S
Cu207 N208 1.999 . S
Cu207 O213 1.974 . S
Cu207 N218 1.985 . S
Cu207 O227 1.959 . S
N208 Cu207 1.999 . S
N208 C210 1.263 . S
N208 C212 1.389 . S
N209 C210 1.358 . S
N209 C211 1.400 . S
C210 N208 1.263 . S
C210 N209 1.358 . S
C210 H216 0.930 . S
C211 N209 1.400 . S
C211 C212 1.351 . S
C211 H228 0.930 . S
C212 N208 1.389 . S
C212 C211 1.351 . S
C212 H217 0.930 . S
O213 Cu207 1.974 . S
O213 C223 1.282 . S
C214 O215 1.261 . S
C214 O227 1.251 . S
O215 C214 1.261 . S
H216 C210 0.930 . S
H217 C212 0.930 . S
N218 Cu207 1.985 . S
N218 C220 1.335 . S
N218 C221 1.390 . S
N219 C220 1.345 . S
N219 C222 1.336 . S
C220 N218 1.335 . S
C220 N219 1.345 . S
C220 H225 0.930 . S
C221 N218 1.390 . S
C221 C222 1.346 . S
C221 H226 0.930 . S
C222 N219 1.336 . S
C222 C221 1.346 . S
C222 H229 0.929 . S
C223 O213 1.282 . S
C223 O224 1.216 . S
O224 C223 1.216 . S
H225 C220 0.930 . S
H226 C221 0.930 . S
O227 Cu207 1.959 . S
O227 C214 1.251 . S
H228 C211 0.930 . S
H229 C222 0.929 . S
Cu230 N231 1.999 . S
Cu230 O236 1.974 . S
Cu230 N241 1.985 . S
Cu230 O250 1.959 . S
N231 Cu230 1.999 . S
N231 C233 1.263 . S
N231 C235 1.389 1_545 S
N232 C233 1.358 1_565 S
N232 C234 1.400 . S
C233 N231 1.263 . S
C233 N232 1.358 1_545 S
C233 H239 0.930 . S
C234 N232 1.400 . S
C234 C235 1.351 . S
C234 H251 0.930 . S
C235 N231 1.389 1_565 S
C235 C234 1.351 . S
C235 H240 0.930 . S
O236 Cu230 1.974 . S
O236 C246 1.282 . S
C237 O238 1.261 . S
C237 O250 1.251 . S
O238 C237 1.261 . S
H239 C233 0.930 . S
H240 C235 0.930 . S
N241 Cu230 1.985 . S
N241 C243 1.335 . S
N241 C244 1.390 . S
N242 C243 1.345 . S
N242 C245 1.336 . S
C243 N241 1.335 . S
C243 N242 1.345 . S
C243 H248 0.930 . S
C244 N241 1.390 . S
C244 C245 1.346 . S
C244 H249 0.930 . S
C245 N242 1.336 . S
C245 C244 1.346 . S
C245 H252 0.929 . S
C246 O236 1.282 . S
C246 O247 1.216 . S
O247 C246 1.216 . S
H248 C243 0.930 . S
H249 C244 0.930 . S
O250 Cu230 1.959 . S
O250 C237 1.251 . S
H251 C234 0.930 . S
H252 C245 0.929 . S
Cu253 N254 1.999 . S
Cu253 O259 1.974 . S
Cu253 N264 1.985 . S
Cu253 O273 1.959 . S
N254 Cu253 1.999 . S
N254 C256 1.263 . S
N254 C258 1.389 1_655 S
N255 C256 1.358 1_455 S
N255 C257 1.400 . S
C256 N254 1.263 . S
C256 N255 1.358 1_655 S
C256 H262 0.930 . S
C257 N255 1.400 . S
C257 C258 1.351 . S
C257 H274 0.930 . S
C258 N254 1.389 1_455 S
C258 C257 1.351 . S
C258 H263 0.930 . S
O259 Cu253 1.974 . S
O259 C269 1.282 . S
C260 O261 1.261 . S
C260 O273 1.251 . S
O261 C260 1.261 . S
H262 C256 0.930 . S
H263 C258 0.930 . S
N264 Cu253 1.985 . S
N264 C266 1.335 . S
N264 C267 1.390 . S
N265 C266 1.345 . S
N265 C268 1.336 . S
C266 N264 1.335 . S
C266 N265 1.345 . S
C266 H271 0.930 . S
C267 N264 1.390 . S
C267 C268 1.346 . S
C267 H272 0.930 . S
C268 N265 1.336 . S
C268 C267 1.346 . S
C268 H275 0.929 . S
C269 O259 1.282 . S
C269 O270 1.216 . S
O270 C269 1.216 . S
H271 C266 0.930 . S
H272 C267 0.930 . S
O273 Cu253 1.959 . S
O273 C260 1.251 . S
H274 C257 0.930 . S
H275 C268 0.929 . S
Cu276 N277 1.999 . S
Cu276 O282 1.974 . S
Cu276 N287 1.985 . S
Cu276 O296 1.959 . S
N277 Cu276 1.999 . S
N277 C279 1.263 . S
N277 C281 1.389 . S
N278 C279 1.358 . S
N278 C280 1.400 . S
C279 N277 1.263 . S
C279 N278 1.358 . S
C279 H285 0.930 . S
C280 N278 1.400 . S
C280 C281 1.351 . S
C280 H297 0.930 . S
C281 N277 1.389 . S
C281 C280 1.351 . S
C281 H286 0.930 . S
O282 Cu276 1.974 . S
O282 C292 1.282 . S
C283 O284 1.261 . S
C283 O296 1.251 . S
O284 C283 1.261 . S
H285 C279 0.930 . S
H286 C281 0.930 . S
N287 Cu276 1.985 . S
N287 C289 1.335 . S
N287 C290 1.390 . S
N288 C289 1.345 . S
N288 C291 1.336 . S
C289 N287 1.335 . S
C289 N288 1.345 . S
C289 H294 0.930 . S
C290 N287 1.390 . S
C290 C291 1.346 . S
C290 H295 0.930 . S
C291 N288 1.336 . S
C291 C290 1.346 . S
C291 H298 0.929 . S
C292 O282 1.282 . S
C292 O293 1.216 . S
O293 C292 1.216 . S
H294 C289 0.930 . S
H295 C290 0.930 . S
O296 Cu276 1.959 . S
O296 C283 1.251 . S
H297 C280 0.930 . S
H298 C291 0.929 . S
Cu299 N300 1.999 . S
Cu299 O305 1.974 . S
Cu299 N310 1.985 . S
Cu299 O319 1.959 . S
N300 Cu299 1.999 . S
N300 C302 1.263 . S
N300 C304 1.389 . S
N301 C302 1.358 . S
N301 C303 1.400 . S
C302 N300 1.263 . S
C302 N301 1.358 . S
C302 H308 0.930 . S
C303 N301 1.400 . S
C303 C304 1.351 . S
C303 H320 0.930 . S
C304 N300 1.389 . S
C304 C303 1.351 . S
C304 H309 0.930 . S
O305 Cu299 1.974 . S
O305 C315 1.282 . S
C306 O307 1.261 . S
C306 O319 1.251 . S
O307 C306 1.261 . S
H308 C302 0.930 . S
H309 C304 0.930 . S
N310 Cu299 1.985 . S
N310 C312 1.335 . S
N310 C313 1.390 . S
N311 C312 1.345 . S
N311 C314 1.336 . S
C312 N310 1.335 . S
C312 N311 1.345 . S
C312 H317 0.930 . S
C313 N310 1.390 . S
C313 C314 1.346 . S
C313 H318 0.930 . S
C314 N311 1.336 . S
C314 C313 1.346 . S
C314 H321 0.929 . S
C315 O305 1.282 . S
C315 O316 1.216 . S
O316 C315 1.216 . S
H317 C312 0.930 . S
H318 C313 0.930 . S
O319 Cu299 1.959 . S
O319 C306 1.251 . S
H320 C303 0.930 . S
H321 C314 0.929 . S
Cu322 N323 1.999 . S
Cu322 O328 1.974 . S
Cu322 N333 1.985 . S
Cu322 O342 1.959 . S
N323 Cu322 1.999 . S
N323 C325 1.263 . S
N323 C327 1.389 . S
N324 C325 1.358 . S
N324 C326 1.400 . S
C325 N323 1.263 . S
C325 N324 1.358 . S
C325 H331 0.930 . S
C326 N324 1.400 . S
C326 C327 1.351 . S
C326 H343 0.930 . S
C327 N323 1.389 . S
C327 C326 1.351 . S
C327 H332 0.930 . S
O328 Cu322 1.974 . S
O328 C338 1.282 . S
C329 O330 1.261 . S
C329 O342 1.251 . S
O330 C329 1.261 . S
H331 C325 0.930 . S
H332 C327 0.930 . S
N333 Cu322 1.985 . S
N333 C335 1.335 . S
N333 C336 1.390 . S
N334 C335 1.345 . S
N334 C337 1.336 . S
C335 N333 1.335 . S
C335 N334 1.345 . S
C335 H340 0.930 . S
C336 N333 1.390 . S
C336 C337 1.346 . S
C336 H341 0.930 . S
C337 N334 1.336 . S
C337 C336 1.346 . S
C337 H344 0.929 . S
C338 O328 1.282 . S
C338 O339 1.216 . S
O339 C338 1.216 . S
H340 C335 0.930 . S
H341 C336 0.930 . S
O342 Cu322 1.959 . S
O342 C329 1.251 . S
H343 C326 0.930 . S
H344 C337 0.929 . S
Cu345 N346 1.999 . S
Cu345 O351 1.974 . S
Cu345 N356 1.985 . S
Cu345 O365 1.959 . S
N346 Cu345 1.999 . S
N346 C348 1.263 . S
N346 C350 1.389 . S
N347 C348 1.358 . S
N347 C349 1.400 . S
C348 N346 1.263 . S
C348 N347 1.358 . S
C348 H354 0.930 . S
C349 N347 1.400 . S
C349 C350 1.351 . S
C349 H366 0.930 . S
C350 N346 1.389 . S
C350 C349 1.351 . S
C350 H355 0.930 . S
O351 Cu345 1.974 . S
O351 C361 1.282 . S
C352 O353 1.261 . S
C352 O365 1.251 . S
O353 C352 1.261 . S
H354 C348 0.930 . S
H355 C350 0.930 . S
N356 Cu345 1.985 . S
N356 C358 1.335 . S
N356 C359 1.390 . S
N357 C358 1.345 . S
N357 C360 1.336 . S
C358 N356 1.335 . S
C358 N357 1.345 . S
C358 H363 0.930 . S
C359 N356 1.390 . S
C359 C360 1.346 . S
C359 H364 0.930 . S
C360 N357 1.336 . S
C360 C359 1.346 . S
C360 H367 0.929 . S
C361 O351 1.282 . S
C361 O362 1.216 . S
O362 C361 1.216 . S
H363 C358 0.930 . S
H364 C359 0.930 . S
O365 Cu345 1.959 . S
O365 C352 1.251 . S
H366 C349 0.930 . S
H367 C360 0.929 . S
Cu368 N369 1.999 . S
Cu368 O374 1.974 . S
Cu368 N379 1.985 . S
Cu368 O388 1.959 . S
N369 Cu368 1.999 . S
N369 C371 1.263 . S
N369 C373 1.389 . S
N370 C371 1.358 . S
N370 C372 1.400 . S
C371 N369 1.263 . S
C371 N370 1.358 . S
C371 H377 0.930 . S
C372 N370 1.400 . S
C372 C373 1.351 . S
C372 H389 0.930 . S
C373 N369 1.389 . S
C373 C372 1.351 . S
C373 H378 0.930 . S
O374 Cu368 1.974 . S
O374 C384 1.282 . S
C375 O376 1.261 . S
C375 O388 1.251 . S
O376 C375 1.261 . S
H377 C371 0.930 . S
H378 C373 0.930 . S
N379 Cu368 1.985 . S
N379 C381 1.335 . S
N379 C382 1.390 . S
N380 C381 1.345 . S
N380 C383 1.336 . S
C381 N379 1.335 . S
C381 N380 1.345 . S
C381 H386 0.930 . S
C382 N379 1.390 . S
C382 C383 1.346 . S
C382 H387 0.930 . S
C383 N380 1.336 . S
C383 C382 1.346 . S
C383 H390 0.929 . S
C384 O374 1.282 . S
C384 O385 1.216 . S
O385 C384 1.216 . S
H386 C381 0.930 . S
H387 C382 0.930 . S
O388 Cu368 1.959 . S
O388 C375 1.251 . S
H389 C372 0.930 . S
H390 C383 0.929 . S
Cu391 N392 1.999 . S
Cu391 O397 1.974 . S
Cu391 N402 1.985 . S
Cu391 O411 1.959 . S
N392 Cu391 1.999 . S
N392 C394 1.263 . S
N392 C396 1.389 . S
N393 C394 1.358 . S
N393 C395 1.400 . S
C394 N392 1.263 . S
C394 N393 1.358 . S
C394 H400 0.930 . S
C395 N393 1.400 . S
C395 C396 1.351 . S
C395 H412 0.930 . S
C396 N392 1.389 . S
C396 C395 1.351 . S
C396 H401 0.930 . S
O397 Cu391 1.974 . S
O397 C407 1.282 . S
C398 O399 1.261 . S
C398 O411 1.251 . S
O399 C398 1.261 . S
H400 C394 0.930 . S
H401 C396 0.930 . S
N402 Cu391 1.985 . S
N402 C404 1.335 . S
N402 C405 1.390 . S
N403 C404 1.345 . S
N403 C406 1.336 . S
C404 N402 1.335 . S
C404 N403 1.345 . S
C404 H409 0.930 . S
C405 N402 1.390 . S
C405 C406 1.346 . S
C405 H410 0.930 . S
C406 N403 1.336 . S
C406 C405 1.346 . S
C406 H413 0.929 . S
C407 O397 1.282 . S
C407 O408 1.216 . S
O408 C407 1.216 . S
H409 C404 0.930 . S
H410 C405 0.930 . S
O411 Cu391 1.959 . S
O411 C398 1.251 . S
H412 C395 0.930 . S
H413 C406 0.929 . S
Cu414 N415 1.999 . S
Cu414 O420 1.974 . S
Cu414 N425 1.985 . S
Cu414 O434 1.959 . S
N415 Cu414 1.999 . S
N415 C417 1.263 . S
N415 C419 1.389 . S
N416 C417 1.358 . S
N416 C418 1.400 . S
C417 N415 1.263 . S
C417 N416 1.358 . S
C417 H423 0.930 . S
C418 N416 1.400 . S
C418 C419 1.351 . S
C418 H435 0.930 . S
C419 N415 1.389 . S
C419 C418 1.351 . S
C419 H424 0.930 . S
O420 Cu414 1.974 . S
O420 C430 1.282 . S
C421 O422 1.261 . S
C421 O434 1.251 . S
O422 C421 1.261 . S
H423 C417 0.930 . S
H424 C419 0.930 . S
N425 Cu414 1.985 . S
N425 C427 1.335 . S
N425 C428 1.390 . S
N426 C427 1.345 . S
N426 C429 1.336 . S
C427 N425 1.335 . S
C427 N426 1.345 . S
C427 H432 0.930 . S
C428 N425 1.390 . S
C428 C429 1.346 . S
C428 H433 0.930 . S
C429 N426 1.336 . S
C429 C428 1.346 . S
C429 H436 0.929 . S
C430 O420 1.282 . S
C430 O431 1.216 . S
O431 C430 1.216 . S
H432 C427 0.930 . S
H433 C428 0.930 . S
O434 Cu414 1.959 . S
O434 C421 1.251 . S
H435 C418 0.930 . S
H436 C429 0.929 . S
Cu437 N438 1.999 . S
Cu437 O443 1.974 . S
Cu437 N448 1.985 . S
Cu437 O457 1.959 . S
N438 Cu437 1.999 . S
N438 C440 1.263 . S
N438 C442 1.389 . S
N439 C440 1.358 . S
N439 C441 1.400 . S
C440 N438 1.263 . S
C440 N439 1.358 . S
C440 H446 0.930 . S
C441 N439 1.400 . S
C441 C442 1.351 . S
C441 H458 0.930 . S
C442 N438 1.389 . S
C442 C441 1.351 . S
C442 H447 0.930 . S
O443 Cu437 1.974 . S
O443 C453 1.282 . S
C444 O445 1.261 . S
C444 O457 1.251 . S
O445 C444 1.261 . S
H446 C440 0.930 . S
H447 C442 0.930 . S
N448 Cu437 1.985 . S
N448 C450 1.335 . S
N448 C451 1.390 . S
N449 C450 1.345 . S
N449 C452 1.336 . S
C450 N448 1.335 . S
C450 N449 1.345 . S
C450 H455 0.930 . S
C451 N448 1.390 . S
C451 C452 1.346 . S
C451 H456 0.930 . S
C452 N449 1.336 . S
C452 C451 1.346 . S
C452 H459 0.929 . S
C453 O443 1.282 . S
C453 O454 1.216 . S
O454 C453 1.216 . S
H455 C450 0.930 . S
H456 C451 0.930 . S
O457 Cu437 1.959 . S
O457 C444 1.251 . S
H458 C441 0.930 . S
H459 C452 0.929 . S
Cu460 N461 1.999 . S
Cu460 O466 1.974 . S
Cu460 N471 1.985 . S
Cu460 O480 1.959 . S
N461 Cu460 1.999 . S
N461 C463 1.263 . S
N461 C465 1.389 . S
N462 C463 1.358 . S
N462 C464 1.400 . S
C463 N461 1.263 . S
C463 N462 1.358 . S
C463 H469 0.930 . S
C464 N462 1.400 . S
C464 C465 1.351 . S
C464 H481 0.930 . S
C465 N461 1.389 . S
C465 C464 1.351 . S
C465 H470 0.930 . S
O466 Cu460 1.974 . S
O466 C476 1.282 . S
C467 O468 1.261 . S
C467 O480 1.251 . S
O468 C467 1.261 . S
H469 C463 0.930 . S
H470 C465 0.930 . S
N471 Cu460 1.985 . S
N471 C473 1.335 . S
N471 C474 1.390 . S
N472 C473 1.345 . S
N472 C475 1.336 . S
C473 N471 1.335 . S
C473 N472 1.345 . S
C473 H478 0.930 . S
C474 N471 1.390 . S
C474 C475 1.346 . S
C474 H479 0.930 . S
C475 N472 1.336 . S
C475 C474 1.346 . S
C475 H482 0.929 . S
C476 O466 1.282 . S
C476 O477 1.216 . S
O477 C476 1.216 . S
H478 C473 0.930 . S
H479 C474 0.930 . S
O480 Cu460 1.959 . S
O480 C467 1.251 . S
H481 C464 0.930 . S
H482 C475 0.929 . S
Cu483 N484 1.999 . S
Cu483 O489 1.974 . S
Cu483 N494 1.985 . S
Cu483 O503 1.959 . S
N484 Cu483 1.999 . S
N484 C486 1.263 . S
N484 C488 1.389 . S
N485 C486 1.358 . S
N485 C487 1.400 . S
C486 N484 1.263 . S
C486 N485 1.358 . S
C486 H492 0.930 . S
C487 N485 1.400 . S
C487 C488 1.351 . S
C487 H504 0.930 . S
C488 N484 1.389 . S
C488 C487 1.351 . S
C488 H493 0.930 . S
O489 Cu483 1.974 . S
O489 C499 1.282 . S
C490 O491 1.261 . S
C490 O503 1.251 . S
O491 C490 1.261 . S
H492 C486 0.930 . S
H493 C488 0.930 . S
N494 Cu483 1.985 . S
N494 C496 1.335 . S
N494 C497 1.390 . S
N495 C496 1.345 . S
N495 C498 1.336 . S
C496 N494 1.335 . S
C496 N495 1.345 . S
C496 H501 0.930 . S
C497 N494 1.390 . S
C497 C498 1.346 . S
C497 H502 0.930 . S
C498 N495 1.336 . S
C498 C497 1.346 . S
C498 H505 0.929 . S
C499 O489 1.282 . S
C499 O500 1.216 . S
O500 C499 1.216 . S
H501 C496 0.930 . S
H502 C497 0.930 . S
O503 Cu483 1.959 . S
O503 C490 1.251 . S
H504 C487 0.930 . S
H505 C498 0.929 . S
Cu506 N507 1.999 . S
Cu506 O512 1.974 . S
Cu506 N517 1.985 . S
Cu506 O526 1.959 . S
N507 Cu506 1.999 . S
N507 C509 1.263 . S
N507 C511 1.389 . S
N508 C509 1.358 . S
N508 C510 1.400 . S
C509 N507 1.263 . S
C509 N508 1.358 . S
C509 H515 0.930 . S
C510 N508 1.400 . S
C510 C511 1.351 . S
C510 H527 0.930 . S
C511 N507 1.389 . S
C511 C510 1.351 . S
C511 H516 0.930 . S
O512 Cu506 1.974 . S
O512 C522 1.282 . S
C513 O514 1.261 . S
C513 O526 1.251 1_554 S
O514 C513 1.261 . S
H515 C509 0.930 . S
H516 C511 0.930 . S
N517 Cu506 1.985 . S
N517 C519 1.335 . S
N517 C520 1.390 . S
N518 C519 1.345 . S
N518 C521 1.336 . S
C519 N517 1.335 . S
C519 N518 1.345 . S
C519 H524 0.930 . S
C520 N517 1.390 . S
C520 C521 1.346 . S
C520 H525 0.930 . S
C521 N518 1.336 . S
C521 C520 1.346 . S
C521 H528 0.929 . S
C522 O512 1.282 . S
C522 O523 1.216 . S
O523 C522 1.216 . S
H524 C519 0.930 . S
H525 C520 0.930 . S
O526 Cu506 1.959 . S
O526 C513 1.251 1_556 S
H527 C510 0.930 . S
H528 C521 0.929 . S
Cu529 N530 1.999 . S
Cu529 O535 1.974 . S
Cu529 N540 1.985 . S
Cu529 O549 1.959 . S
N530 Cu529 1.999 . S
N530 C532 1.263 . S
N530 C534 1.389 . S
N531 C532 1.358 . S
N531 C533 1.400 . S
C532 N530 1.263 . S
C532 N531 1.358 . S
C532 H538 0.930 . S
C533 N531 1.400 . S
C533 C534 1.351 . S
C533 H550 0.930 . S
C534 N530 1.389 . S
C534 C533 1.351 . S
C534 H539 0.930 . S
O535 Cu529 1.974 . S
O535 C545 1.282 . S
C536 O537 1.261 . S
C536 O549 1.251 1_554 S
O537 C536 1.261 . S
H538 C532 0.930 . S
H539 C534 0.930 . S
N540 Cu529 1.985 . S
N540 C542 1.335 . S
N540 C543 1.390 . S
N541 C542 1.345 1_554 S
N541 C544 1.336 1_554 S
C542 N540 1.335 . S
C542 N541 1.345 1_556 S
C542 H547 0.930 1_556 S
C543 N540 1.390 . S
C543 C544 1.346 . S
C543 H548 0.930 . S
C544 N541 1.336 1_556 S
C544 C543 1.346 . S
C544 H551 0.929 . S
C545 O535 1.282 . S
C545 O546 1.216 . S
O546 C545 1.216 . S
H547 C542 0.930 1_554 S
H548 C543 0.930 . S
O549 Cu529 1.959 . S
O549 C536 1.251 1_556 S
H550 C533 0.930 . S
H551 C544 0.929 . S
Cu552 N553 1.999 . S
Cu552 O558 1.974 . S
Cu552 N563 1.985 . S
Cu552 O572 1.959 . S
N553 Cu552 1.999 . S
N553 C555 1.263 . S
N553 C557 1.389 . S
N554 C555 1.358 . S
N554 C556 1.400 . S
C555 N553 1.263 . S
C555 N554 1.358 . S
C555 H561 0.930 . S
C556 N554 1.400 . S
C556 C557 1.351 . S
C556 H573 0.930 . S
C557 N553 1.389 . S
C557 C556 1.351 . S
C557 H562 0.930 . S
O558 Cu552 1.974 . S
O558 C568 1.282 . S
C559 O560 1.261 . S
C559 O572 1.251 . S
O560 C559 1.261 . S
H561 C555 0.930 . S
H562 C557 0.930 . S
N563 Cu552 1.985 . S
N563 C565 1.335 . S
N563 C566 1.390 . S
N564 C565 1.345 . S
N564 C567 1.336 . S
C565 N563 1.335 . S
C565 N564 1.345 . S
C565 H570 0.930 . S
C566 N563 1.390 . S
C566 C567 1.346 . S
C566 H571 0.930 . S
C567 N564 1.336 . S
C567 C566 1.346 . S
C567 H574 0.929 . S
C568 O558 1.282 . S
C568 O569 1.216 . S
O569 C568 1.216 . S
H570 C565 0.930 . S
H571 C566 0.930 . S
O572 Cu552 1.959 . S
O572 C559 1.251 . S
H573 C556 0.930 . S
H574 C567 0.929 . S
Cu575 N576 1.999 . S
Cu575 O581 1.974 . S
Cu575 N586 1.985 . S
Cu575 O595 1.959 . S
N576 Cu575 1.999 . S
N576 C578 1.263 . S
N576 C580 1.389 . S
N577 C578 1.358 . S
N577 C579 1.400 . S
C578 N576 1.263 . S
C578 N577 1.358 . S
C578 H584 0.930 . S
C579 N577 1.400 . S
C579 C580 1.351 . S
C579 H596 0.930 . S
C580 N576 1.389 . S
C580 C579 1.351 . S
C580 H585 0.930 . S
O581 Cu575 1.974 . S
O581 C591 1.282 . S
C582 O583 1.261 . S
C582 O595 1.251 . S
O583 C582 1.261 . S
H584 C578 0.930 . S
H585 C580 0.930 . S
N586 Cu575 1.985 . S
N586 C588 1.335 . S
N586 C589 1.390 . S
N587 C588 1.345 . S
N587 C590 1.336 . S
C588 N586 1.335 . S
C588 N587 1.345 . S
C588 H593 0.930 . S
C589 N586 1.390 . S
C589 C590 1.346 . S
C589 H594 0.930 . S
C590 N587 1.336 . S
C590 C589 1.346 . S
C590 H597 0.929 . S
C591 O581 1.282 . S
C591 O592 1.216 . S
O592 C591 1.216 . S
H593 C588 0.930 . S
H594 C589 0.930 . S
O595 Cu575 1.959 . S
O595 C582 1.251 . S
H596 C579 0.930 . S
H597 C590 0.929 . S
Cu598 N599 1.999 . S
Cu598 O604 1.974 . S
Cu598 N609 1.985 . S
Cu598 O618 1.959 . S
N599 Cu598 1.999 . S
N599 C601 1.263 . S
N599 C603 1.389 . S
N600 C601 1.358 . S
N600 C602 1.400 . S
C601 N599 1.263 . S
C601 N600 1.358 . S
C601 H607 0.930 . S
C602 N600 1.400 . S
C602 C603 1.351 . S
C602 H619 0.930 . S
C603 N599 1.389 . S
C603 C602 1.351 . S
C603 H608 0.930 . S
O604 Cu598 1.974 . S
O604 C614 1.282 . S
C605 O606 1.261 . S
C605 O618 1.251 . S
O606 C605 1.261 . S
H607 C601 0.930 . S
H608 C603 0.930 . S
N609 Cu598 1.985 . S
N609 C611 1.335 . S
N609 C612 1.390 . S
N610 C611 1.345 . S
N610 C613 1.336 . S
C611 N609 1.335 . S
C611 N610 1.345 . S
C611 H616 0.930 . S
C612 N609 1.390 . S
C612 C613 1.346 . S
C612 H617 0.930 . S
C613 N610 1.336 . S
C613 C612 1.346 . S
C613 H620 0.929 . S
C614 O604 1.282 . S
C614 O615 1.216 . S
O615 C614 1.216 . S
H616 C611 0.930 . S
H617 C612 0.930 . S
O618 Cu598 1.959 . S
O618 C605 1.251 . S
H619 C602 0.930 . S
H620 C613 0.929 . S
Cu621 N622 1.999 . S
Cu621 O627 1.974 . S
Cu621 N632 1.985 . S
Cu621 O641 1.959 . S
N622 Cu621 1.999 . S
N622 C624 1.263 . S
N622 C626 1.389 . S
N623 C624 1.358 . S
N623 C625 1.400 . S
C624 N622 1.263 . S
C624 N623 1.358 . S
C624 H630 0.930 . S
C625 N623 1.400 . S
C625 C626 1.351 . S
C625 H642 0.930 . S
C626 N622 1.389 . S
C626 C625 1.351 . S
C626 H631 0.930 . S
O627 Cu621 1.974 . S
O627 C637 1.282 . S
C628 O629 1.261 . S
C628 O641 1.251 . S
O629 C628 1.261 . S
H630 C624 0.930 . S
H631 C626 0.930 . S
N632 Cu621 1.985 . S
N632 C634 1.335 . S
N632 C635 1.390 . S
N633 C634 1.345 . S
N633 C636 1.336 . S
C634 N632 1.335 . S
C634 N633 1.345 . S
C634 H639 0.930 . S
C635 N632 1.390 . S
C635 C636 1.346 . S
C635 H640 0.930 . S
C636 N633 1.336 . S
C636 C635 1.346 . S
C636 H643 0.929 . S
C637 O627 1.282 . S
C637 O638 1.216 . S
O638 C637 1.216 . S
H639 C634 0.930 . S
H640 C635 0.930 . S
O641 Cu621 1.959 . S
O641 C628 1.251 . S
H642 C625 0.930 . S
H643 C636 0.929 . S
Cu644 N645 1.999 . S
Cu644 O650 1.974 . S
Cu644 N655 1.985 . S
Cu644 O664 1.959 . S
N645 Cu644 1.999 . S
N645 C647 1.263 . S
N645 C649 1.389 . S
N646 C647 1.358 . S
N646 C648 1.400 . S
C647 N645 1.263 . S
C647 N646 1.358 . S
C647 H653 0.930 . S
C648 N646 1.400 . S
C648 C649 1.351 . S
C648 H665 0.930 . S
C649 N645 1.389 . S
C649 C648 1.351 . S
C649 H654 0.930 . S
O650 Cu644 1.974 . S
O650 C660 1.282 . S
C651 O652 1.261 . S
C651 O664 1.251 . S
O652 C651 1.261 . S
H653 C647 0.930 . S
H654 C649 0.930 . S
N655 Cu644 1.985 . S
N655 C657 1.335 . S
N655 C658 1.390 . S
N656 C657 1.345 . S
N656 C659 1.336 . S
C657 N655 1.335 . S
C657 N656 1.345 . S
C657 H662 0.930 . S
C658 N655 1.390 . S
C658 C659 1.346 . S
C658 H663 0.930 . S
C659 N656 1.336 . S
C659 C658 1.346 . S
C659 H666 0.929 . S
C660 O650 1.282 . S
C660 O661 1.216 . S
O661 C660 1.216 . S
H662 C657 0.930 . S
H663 C658 0.930 . S
O664 Cu644 1.959 . S
O664 C651 1.251 . S
H665 C648 0.930 . S
H666 C659 0.929 . S
Cu667 N668 1.999 . S
Cu667 O673 1.974 . S
Cu667 N678 1.985 . S
Cu667 O687 1.959 . S
N668 Cu667 1.999 . S
N668 C670 1.263 . S
N668 C672 1.389 . S
N669 C670 1.358 1_556 S
N669 C671 1.400 . S
C670 N668 1.263 . S
C670 N669 1.358 1_554 S
C670 H676 0.930 . S
C671 N669 1.400 . S
C671 C672 1.351 1_556 S
C671 H688 0.930 . S
C672 N668 1.389 . S
C672 C671 1.351 1_554 S
C672 H677 0.930 . S
O673 Cu667 1.974 . S
O673 C683 1.282 . S
C674 O675 1.261 . S
C674 O687 1.251 . S
O675 C674 1.261 . S
H676 C670 0.930 . S
H677 C672 0.930 . S
N678 Cu667 1.985 . S
N678 C680 1.335 . S
N678 C681 1.390 . S
N679 C680 1.345 . S
N679 C682 1.336 . S
C680 N678 1.335 . S
C680 N679 1.345 . S
C680 H685 0.930 . S
C681 N678 1.390 . S
C681 C682 1.346 . S
C681 H686 0.930 . S
C682 N679 1.336 . S
C682 C681 1.346 . S
C682 H689 0.929 . S
C683 O673 1.282 . S
C683 O684 1.216 . S
O684 C683 1.216 . S
H685 C680 0.930 . S
H686 C681 0.930 . S
O687 Cu667 1.959 . S
O687 C674 1.251 . S
H688 C671 0.930 . S
H689 C682 0.929 . S
Cu690 N691 1.999 . S
Cu690 O696 1.974 . S
Cu690 N701 1.985 . S
Cu690 O710 1.959 . S
N691 Cu690 1.999 . S
N691 C693 1.263 . S
N691 C695 1.389 . S
N692 C693 1.358 . S
N692 C694 1.400 . S
C693 N691 1.263 . S
C693 N692 1.358 . S
C693 H699 0.930 . S
C694 N692 1.400 . S
C694 C695 1.351 . S
C694 H711 0.930 . S
C695 N691 1.389 . S
C695 C694 1.351 . S
C695 H700 0.930 . S
O696 Cu690 1.974 . S
O696 C706 1.282 . S
C697 O698 1.261 . S
C697 O710 1.251 . S
O698 C697 1.261 . S
H699 C693 0.930 . S
H700 C695 0.930 . S
N701 Cu690 1.985 . S
N701 C703 1.335 . S
N701 C704 1.390 . S
N702 C703 1.345 . S
N702 C705 1.336 . S
C703 N701 1.335 . S
C703 N702 1.345 . S
C703 H708 0.930 . S
C704 N701 1.390 . S
C704 C705 1.346 . S
C704 H709 0.930 . S
C705 N702 1.336 . S
C705 C704 1.346 . S
C705 H712 0.929 . S
C706 O696 1.282 . S
C706 O707 1.216 . S
O707 C706 1.216 . S
H708 C703 0.930 . S
H709 C704 0.930 . S
O710 Cu690 1.959 . S
O710 C697 1.251 . S
H711 C694 0.930 . S
H712 C705 0.929 . S
Cu713 N714 1.999 . S
Cu713 O719 1.974 . S
Cu713 N724 1.985 . S
Cu713 O733 1.959 . S
N714 Cu713 1.999 . S
N714 C716 1.263 . S
N714 C718 1.389 . S
N715 C716 1.358 . S
N715 C717 1.400 . S
C716 N714 1.263 . S
C716 N715 1.358 . S
C716 H722 0.930 . S
C717 N715 1.400 . S
C717 C718 1.351 . S
C717 H734 0.930 . S
C718 N714 1.389 . S
C718 C717 1.351 . S
C718 H723 0.930 . S
O719 Cu713 1.974 . S
O719 C729 1.282 . S
C720 O721 1.261 . S
C720 O733 1.251 . S
O721 C720 1.261 . S
H722 C716 0.930 . S
H723 C718 0.930 . S
N724 Cu713 1.985 . S
N724 C726 1.335 . S
N724 C727 1.390 . S
N725 C726 1.345 . S
N725 C728 1.336 . S
C726 N724 1.335 . S
C726 N725 1.345 . S
C726 H731 0.930 . S
C727 N724 1.390 . S
C727 C728 1.346 . S
C727 H732 0.930 . S
C728 N725 1.336 . S
C728 C727 1.346 . S
C728 H735 0.929 . S
C729 O719 1.282 . S
C729 O730 1.216 . S
O730 C729 1.216 . S
H731 C726 0.930 . S
H732 C727 0.930 . S
O733 Cu713 1.959 . S
O733 C720 1.251 . S
H734 C717 0.930 . S
H735 C728 0.929 . S
Cu736 N737 1.999 . S
Cu736 O742 1.974 . S
Cu736 N747 1.985 . S
Cu736 O756 1.959 . S
N737 Cu736 1.999 . S
N737 C739 1.263 . S
N737 C741 1.389 . S
N738 C739 1.358 . S
N738 C740 1.400 . S
C739 N737 1.263 . S
C739 N738 1.358 . S
C739 H745 0.930 . S
C740 N738 1.400 . S
C740 C741 1.351 . S
C740 H757 0.930 . S
C741 N737 1.389 . S
C741 C740 1.351 . S
C741 H746 0.930 . S
O742 Cu736 1.974 . S
O742 C752 1.282 . S
C743 O744 1.261 . S
C743 O756 1.251 . S
O744 C743 1.261 . S
H745 C739 0.930 . S
H746 C741 0.930 . S
N747 Cu736 1.985 . S
N747 C749 1.335 . S
N747 C750 1.390 . S
N748 C749 1.345 . S
N748 C751 1.336 . S
C749 N747 1.335 . S
C749 N748 1.345 . S
C749 H754 0.930 . S
C750 N747 1.390 . S
C750 C751 1.346 . S
C750 H755 0.930 . S
C751 N748 1.336 . S
C751 C750 1.346 . S
C751 H758 0.929 . S
C752 O742 1.282 . S
C752 O753 1.216 . S
O753 C752 1.216 . S
H754 C749 0.930 . S
H755 C750 0.930 . S
O756 Cu736 1.959 . S
O756 C743 1.251 . S
H757 C740 0.930 . S
H758 C751 0.929 . S
Cu759 N760 1.999 . S
Cu759 O765 1.974 . S
Cu759 N770 1.985 . S
Cu759 O779 1.959 . S
N760 Cu759 1.999 . S
N760 C762 1.263 . S
N760 C764 1.389 . S
N761 C762 1.358 . S
N761 C763 1.400 . S
C762 N760 1.263 . S
C762 N761 1.358 . S
C762 H768 0.930 . S
C763 N761 1.400 . S
C763 C764 1.351 . S
C763 H780 0.930 . S
C764 N760 1.389 . S
C764 C763 1.351 . S
C764 H769 0.930 . S
O765 Cu759 1.974 . S
O765 C775 1.282 . S
C766 O767 1.261 . S
C766 O779 1.251 . S
O767 C766 1.261 . S
H768 C762 0.930 . S
H769 C764 0.930 . S
N770 Cu759 1.985 . S
N770 C772 1.335 . S
N770 C773 1.390 . S
N771 C772 1.345 . S
N771 C774 1.336 . S
C772 N770 1.335 . S
C772 N771 1.345 . S
C772 H777 0.930 . S
C773 N770 1.390 . S
C773 C774 1.346 . S
C773 H778 0.930 . S
C774 N771 1.336 . S
C774 C773 1.346 . S
C774 H781 0.929 . S
C775 O765 1.282 . S
C775 O776 1.216 . S
O776 C775 1.216 . S
H777 C772 0.930 . S
H778 C773 0.930 . S
O779 Cu759 1.959 . S
O779 C766 1.251 . S
H780 C763 0.930 . S
H781 C774 0.929 . S
Cu782 N783 1.999 . S
Cu782 O788 1.974 . S
Cu782 N793 1.985 . S
Cu782 O802 1.959 . S
N783 Cu782 1.999 . S
N783 C785 1.263 . S
N783 C787 1.389 . S
N784 C785 1.358 . S
N784 C786 1.400 . S
C785 N783 1.263 . S
C785 N784 1.358 . S
C785 H791 0.930 . S
C786 N784 1.400 . S
C786 C787 1.351 . S
C786 H803 0.930 . S
C787 N783 1.389 . S
C787 C786 1.351 . S
C787 H792 0.930 . S
O788 Cu782 1.974 . S
O788 C798 1.282 . S
C789 O790 1.261 . S
C789 O802 1.251 . S
O790 C789 1.261 . S
H791 C785 0.930 . S
H792 C787 0.930 . S
N793 Cu782 1.985 . S
N793 C795 1.335 . S
N793 C796 1.390 . S
N794 C795 1.345 . S
N794 C797 1.336 . S
C795 N793 1.335 . S
C795 N794 1.345 . S
C795 H800 0.930 . S
C796 N793 1.390 . S
C796 C797 1.346 . S
C796 H801 0.930 . S
C797 N794 1.336 . S
C797 C796 1.346 . S
C797 H804 0.929 . S
C798 O788 1.282 . S
C798 O799 1.216 . S
O799 C798 1.216 . S
H800 C795 0.930 . S
H801 C796 0.930 . S
O802 Cu782 1.959 . S
O802 C789 1.251 . S
H803 C786 0.930 . S
H804 C797 0.929 . S
Cu805 N806 1.999 . S
Cu805 O811 1.974 . S
Cu805 N816 1.985 . S
Cu805 O825 1.959 . S
N806 Cu805 1.999 . S
N806 C808 1.263 . S
N806 C810 1.389 . S
N807 C808 1.358 . S
N807 C809 1.400 . S
C808 N806 1.263 . S
C808 N807 1.358 . S
C808 H814 0.930 . S
C809 N807 1.400 . S
C809 C810 1.351 . S
C809 H826 0.930 . S
C810 N806 1.389 . S
C810 C809 1.351 . S
C810 H815 0.930 . S
O811 Cu805 1.974 . S
O811 C821 1.282 . S
C812 O813 1.261 . S
C812 O825 1.251 . S
O813 C812 1.261 . S
H814 C808 0.930 . S
H815 C810 0.930 . S
N816 Cu805 1.985 . S
N816 C818 1.335 . S
N816 C819 1.390 . S
N817 C818 1.345 . S
N817 C820 1.336 . S
C818 N816 1.335 . S
C818 N817 1.345 . S
C818 H823 0.930 . S
C819 N816 1.390 . S
C819 C820 1.346 . S
C819 H824 0.930 . S
C820 N817 1.336 . S
C820 C819 1.346 . S
C820 H827 0.929 . S
C821 O811 1.282 . S
C821 O822 1.216 . S
O822 C821 1.216 . S
H823 C818 0.930 . S
H824 C819 0.930 . S
O825 Cu805 1.959 . S
O825 C812 1.251 . S
H826 C809 0.930 . S
H827 C820 0.929 . S
C828 C829 1.369 . S
C828 C830 1.419 . S
C828 H832 0.930 1_556 S
C829 C828 1.369 . S
C829 C838 1.429 . S
C830 C828 1.419 . S
C830 C831 1.363 . S
C830 H833 0.929 . S
C831 C830 1.363 . S
C831 C837 1.428 . S
H832 C828 0.930 1_554 S
H833 C830 0.929 . S
S834 N835 1.613 . S
S834 N836 1.610 . S
N835 S834 1.613 . S
N835 C838 1.350 . S
N836 S834 1.610 . S
N836 C837 1.351 . S
C837 C831 1.428 . S
C837 N836 1.351 . S
C837 C838 1.434 . S
C838 C829 1.429 . S
C838 N835 1.350 . S
C838 C837 1.434 . S
C839 C840 1.369 1_556 S
C839 C841 1.419 . S
C839 H843 0.930 . S
C840 C839 1.369 1_554 S
C840 C849 1.429 . S
C841 C839 1.419 . S
C841 C842 1.363 . S
C841 H844 0.929 . S
C842 C841 1.363 . S
C842 C848 1.428 1_556 S
H843 C839 0.930 . S
H844 C841 0.929 . S
S845 N846 1.613 . S
S845 N847 1.610 . S
N846 S845 1.613 . S
N846 C849 1.350 . S
N847 S845 1.610 . S
N847 C848 1.351 . S
C848 C842 1.428 1_554 S
C848 N847 1.351 . S
C848 C849 1.434 . S
C849 C840 1.429 . S
C849 N846 1.350 . S
C849 C848 1.434 . S
C850 C851 1.369 . S
C850 C852 1.419 . S
C850 H854 0.930 . S
C851 C850 1.369 . S
C851 C860 1.429 . S
C852 C850 1.419 . S
C852 C853 1.363 1_556 S
C852 H855 0.929 . S
C853 C852 1.363 1_554 S
C853 C859 1.428 . S
H854 C850 0.930 . S
H855 C852 0.929 . S
S856 N857 1.613 1_554 S
S856 N858 1.610 . S
N857 S856 1.613 1_556 S
N857 C860 1.350 . S
N858 S856 1.610 . S
N858 C859 1.351 . S
C859 C853 1.428 . S
C859 N858 1.351 . S
C859 C860 1.434 1_554 S
C860 C851 1.429 . S
C860 N857 1.350 . S
C860 C859 1.434 1_556 S
C861 C862 1.369 . S
C861 C863 1.419 . S
C861 H865 0.930 . S
C862 C861 1.369 . S
C862 C871 1.429 . S
C863 C861 1.419 . S
C863 C864 1.363 . S
C863 H866 0.929 . S
C864 C863 1.363 . S
C864 C870 1.428 . S
H865 C861 0.930 . S
H866 C863 0.929 . S
S867 N868 1.613 . S
S867 N869 1.610 . S
N868 S867 1.613 . S
N868 C871 1.350 . S
N869 S867 1.610 . S
N869 C870 1.351 . S
C870 C864 1.428 . S
C870 N869 1.351 . S
C870 C871 1.434 . S
C871 C862 1.429 . S
C871 N868 1.350 . S
C871 C870 1.434 . S
C872 C873 1.369 . S
C872 C874 1.419 . S
C872 H876 0.930 . S
C873 C872 1.369 . S
C873 C882 1.429 . S
C874 C872 1.419 . S
C874 C875 1.363 . S
C874 H877 0.929 . S
C875 C874 1.363 . S
C875 C881 1.428 . S
H876 C872 0.930 . S
H877 C874 0.929 . S
S878 N879 1.613 . S
S878 N880 1.610 . S
N879 S878 1.613 . S
N879 C882 1.350 . S
N880 S878 1.610 . S
N880 C881 1.351 . S
C881 C875 1.428 . S
C881 N880 1.351 . S
C881 C882 1.434 . S
C882 C873 1.429 . S
C882 N879 1.350 . S
C882 C881 1.434 . S
C883 C884 1.369 . S
C883 C885 1.419 . S
C883 H887 0.930 . S
C884 C883 1.369 . S
C884 C893 1.429 . S
C885 C883 1.419 . S
C885 C886 1.363 . S
C885 H888 0.929 . S
C886 C885 1.363 . S
C886 C892 1.428 . S
H887 C883 0.930 . S
H888 C885 0.929 . S
S889 N890 1.613 . S
S889 N891 1.610 . S
N890 S889 1.613 . S
N890 C893 1.350 . S
N891 S889 1.610 . S
N891 C892 1.351 . S
C892 C886 1.428 . S
C892 N891 1.351 . S
C892 C893 1.434 . S
C893 C884 1.429 . S
C893 N890 1.350 . S
C893 C892 1.434 . S
C894 C895 1.369 . S
C894 C896 1.419 1_554 S
C894 H898 0.930 . S
C895 C894 1.369 . S
C895 C904 1.429 1_554 S
C896 C894 1.419 1_556 S
C896 C897 1.363 . S
C896 H899 0.925 1_556 S
C897 C896 1.363 . S
C897 C903 1.428 . S
H898 C894 0.930 . S
H899 C896 0.925 1_554 S
S900 N901 1.613 . S
S900 N902 1.610 . S
N901 S900 1.613 . S
N901 C904 1.350 . S
N902 S900 1.610 . S
N902 C903 1.351 . S
C903 C897 1.428 . S
C903 N902 1.351 . S
C903 C904 1.434 . S
C904 C895 1.429 1_556 S
C904 N901 1.350 . S
C904 C903 1.434 . S
C905 C906 1.369 . S
C905 C907 1.419 1_554 S
C905 H909 0.930 . S
C906 C905 1.369 . S
C906 C915 1.429 1_554 S
C907 C905 1.419 1_556 S
C907 C908 1.363 . S
C907 H910 0.929 . S
C908 C907 1.363 . S
C908 C914 1.428 . S
H909 C905 0.930 . S
H910 C907 0.929 . S
S911 N912 1.613 . S
S911 N913 1.610 . S
N912 S911 1.613 . S
N912 C915 1.350 . S
N913 S911 1.610 . S
N913 C914 1.351 . S
C914 C908 1.428 . S
C914 N913 1.351 . S
C914 C915 1.434 . S
C915 C906 1.429 1_556 S
C915 N912 1.350 . S
C915 C914 1.434 . S
C916 C917 1.369 . S
C916 C918 1.419 1_556 S
C916 H920 0.930 . S
C917 C916 1.369 . S
C917 C926 1.429 . S
C918 C916 1.419 1_554 S
C918 C919 1.363 . S
C918 H921 0.929 . S
C919 C918 1.363 . S
C919 C925 1.428 . S
H920 C916 0.930 . S
H921 C918 0.929 . S
S922 N923 1.613 . S
S922 N924 1.610 1_556 S
N923 S922 1.613 . S
N923 C926 1.350 . S
N924 S922 1.610 1_554 S
N924 C925 1.351 . S
C925 C919 1.428 . S
C925 N924 1.351 . S
C925 C926 1.434 1_554 S
C926 C917 1.429 . S
C926 N923 1.350 . S
C926 C925 1.434 1_556 S
C927 C928 1.369 . S
C927 C929 1.419 . S
C927 H931 0.930 . S
C928 C927 1.369 . S
C928 C937 1.429 . S
C929 C927 1.419 . S
C929 C930 1.363 . S
C929 H932 0.929 . S
C930 C929 1.363 . S
C930 C936 1.428 . S
H931 C927 0.930 . S
H932 C929 0.929 . S
S933 N934 1.613 . S
S933 N935 1.610 . S
N934 S933 1.613 . S
N934 C937 1.350 . S
N935 S933 1.610 . S
N935 C936 1.351 . S
C936 C930 1.428 . S
C936 N935 1.351 . S
C936 C937 1.434 . S
C937 C928 1.429 . S
C937 N934 1.350 . S
C937 C936 1.434 . S
C938 C939 1.369 . S
C938 C940 1.419 . S
C938 H942 0.930 . S
C939 C938 1.369 . S
C939 C948 1.429 . S
C940 C938 1.419 . S
C940 C941 1.363 . S
C940 H943 0.929 . S
C941 C940 1.363 . S
C941 C947 1.428 . S
H942 C938 0.930 . S
H943 C940 0.929 . S
S944 N945 1.613 . S
S944 N946 1.610 . S
N945 S944 1.613 . S
N945 C948 1.350 . S
N946 S944 1.610 . S
N946 C947 1.351 . S
C947 C941 1.428 . S
C947 N946 1.351 . S
C947 C948 1.434 . S
C948 C939 1.429 . S
C948 N945 1.350 . S
C948 C947 1.434 . S
C949 C950 1.369 . S
C949 C951 1.419 . S
C949 H953 0.930 . S
C950 C949 1.369 . S
C950 C959 1.429 . S
C951 C949 1.419 . S
C951 C952 1.363 . S
C951 H954 0.929 . S
C952 C951 1.363 . S
C952 C958 1.428 . S
H953 C949 0.930 . S
H954 C951 0.929 . S
S955 N956 1.613 . S
S955 N957 1.610 . S
N956 S955 1.613 . S
N956 C959 1.350 . S
N957 S955 1.610 . S
N957 C958 1.351 . S
C958 C952 1.428 . S
C958 N957 1.351 . S
C958 C959 1.434 . S
C959 C950 1.429 . S
C959 N956 1.350 . S
C959 C958 1.434 . S
C960 C961 1.369 . S
C960 C962 1.419 . S
C960 H964 0.930 . S
C961 C960 1.369 . S
C961 C970 1.429 . S
C962 C960 1.419 . S
C962 C963 1.363 . S
C962 H965 0.929 . S
C963 C962 1.363 . S
C963 C969 1.428 . S
H964 C960 0.930 . S
H965 C962 0.929 . S
S966 N967 1.613 . S
S966 N968 1.610 . S
N967 S966 1.613 . S
N967 C970 1.350 . S
N968 S966 1.610 . S
N968 C969 1.351 . S
C969 C963 1.428 . S
C969 N968 1.351 . S
C969 C970 1.434 . S
C970 C961 1.429 . S
C970 N967 1.350 . S
C970 C969 1.434 . S
C971 C972 1.369 . S
C971 C973 1.419 . S
C971 H975 0.930 . S
C972 C971 1.369 . S
C972 C981 1.429 . S
C973 C971 1.419 . S
C973 C974 1.363 . S
C973 H976 0.929 . S
C974 C973 1.363 . S
C974 C980 1.428 . S
H975 C971 0.930 . S
H976 C973 0.929 . S
S977 N978 1.613 . S
S977 N979 1.610 . S
N978 S977 1.613 . S
N978 C981 1.350 . S
N979 S977 1.610 . S
N979 C980 1.351 . S
C980 C974 1.428 . S
C980 N979 1.351 . S
C980 C981 1.434 . S
C981 C972 1.429 . S
C981 N978 1.350 . S
C981 C980 1.434 . S
C982 C983 1.369 . S
C982 C984 1.419 . S
C982 H986 0.930 . S
C983 C982 1.369 . S
C983 C992 1.429 . S
C984 C982 1.419 . S
C984 C985 1.363 . S
C984 H987 0.929 . S
C985 C984 1.363 . S
C985 C991 1.428 . S
H986 C982 0.930 . S
H987 C984 0.929 . S
S988 N989 1.613 . S
S988 N990 1.610 . S
N989 S988 1.613 . S
N989 C992 1.350 . S
N990 S988 1.610 . S
N990 C991 1.351 . S
C991 C985 1.428 . S
C991 N990 1.351 . S
C991 C992 1.434 . S
C992 C983 1.429 . S
C992 N989 1.350 . S
C992 C991 1.434 . S
C993 C994 1.369 . S
C993 C995 1.419 . S
C993 H997 0.930 . S
C994 C993 1.369 . S
C994 C1003 1.429 . S
C995 C993 1.419 . S
C995 C996 1.363 . S
C995 H998 0.929 . S
C996 C995 1.363 . S
C996 C1002 1.428 . S
H997 C993 0.930 . S
H998 C995 0.929 . S
S999 N1000 1.613 . S
S999 N1001 1.610 . S
N1000 S999 1.613 . S
N1000 C1003 1.350 . S
N1001 S999 1.610 . S
N1001 C1002 1.351 . S
C1002 C996 1.428 . S
C1002 N1001 1.351 . S
C1002 C1003 1.434 . S
C1003 C994 1.429 . S
C1003 N1000 1.350 . S
C1003 C1002 1.434 . S
C1004 C1005 1.369 . S
C1004 C1006 1.419 . S
C1004 H1008 0.930 . S
C1005 C1004 1.369 . S
C1005 C1014 1.429 . S
C1006 C1004 1.419 . S
C1006 C1007 1.363 . S
C1006 H1009 0.929 . S
C1007 C1006 1.363 . S
C1007 C1013 1.428 . S
H1008 C1004 0.930 . S
H1009 C1006 0.929 . S
S1010 N1011 1.613 . S
S1010 N1012 1.610 . S
N1011 S1010 1.613 . S
N1011 C1014 1.350 . S
N1012 S1010 1.610 . S
N1012 C1013 1.351 . S
C1013 C1007 1.428 . S
C1013 N1012 1.351 . S
C1013 C1014 1.434 . S
C1014 C1005 1.429 . S
C1014 N1011 1.350 . S
C1014 C1013 1.434 . S
C1015 C1016 1.369 . S
C1015 C1017 1.419 . S
C1015 H1019 0.930 . S
C1016 C1015 1.369 . S
C1016 C1025 1.429 . S
C1017 C1015 1.419 . S
C1017 C1018 1.363 . S
C1017 H1020 0.929 . S
C1018 C1017 1.363 . S
C1018 C1024 1.428 . S
H1019 C1015 0.930 . S
H1020 C1017 0.929 . S
S1021 N1022 1.613 . S
S1021 N1023 1.610 . S
N1022 S1021 1.613 . S
N1022 C1025 1.350 . S
N1023 S1021 1.610 . S
N1023 C1024 1.351 . S
C1024 C1018 1.428 . S
C1024 N1023 1.351 . S
C1024 C1025 1.434 . S
C1025 C1016 1.429 . S
C1025 N1022 1.350 . S
C1025 C1024 1.434 . S
C1026 C1027 1.369 . S
C1026 C1028 1.419 . S
C1026 H1030 0.930 . S
C1027 C1026 1.369 . S
C1027 C1036 1.429 . S
C1028 C1026 1.419 . S
C1028 C1029 1.363 . S
C1028 H1031 0.929 . S
C1029 C1028 1.363 . S
C1029 C1035 1.428 . S
H1030 C1026 0.930 . S
H1031 C1028 0.929 . S
S1032 N1033 1.613 . S
S1032 N1034 1.610 . S
N1033 S1032 1.613 . S
N1033 C1036 1.350 . S
N1034 S1032 1.610 . S
N1034 C1035 1.351 . S
C1035 C1029 1.428 . S
C1035 N1034 1.351 . S
C1035 C1036 1.434 . S
C1036 C1027 1.429 . S
C1036 N1033 1.350 . S
C1036 C1035 1.434 . S
C1037 C1038 1.369 . S
C1037 C1039 1.419 . S
C1037 H1041 0.930 . S
C1038 C1037 1.369 . S
C1038 C1047 1.429 . S
C1039 C1037 1.419 . S
C1039 C1040 1.363 . S
C1039 H1042 0.929 . S
C1040 C1039 1.363 . S
C1040 C1046 1.428 . S
H1041 C1037 0.930 . S
H1042 C1039 0.929 . S
S1043 N1044 1.613 . S
S1043 N1045 1.610 . S
N1044 S1043 1.613 . S
N1044 C1047 1.350 . S
N1045 S1043 1.610 . S
N1045 C1046 1.351 . S
C1046 C1040 1.428 . S
C1046 N1045 1.351 . S
C1046 C1047 1.434 . S
C1047 C1038 1.429 . S
C1047 N1044 1.350 . S
C1047 C1046 1.434 . S
C1048 C1049 1.369 . S
C1048 C1050 1.419 . S
C1048 H1052 0.930 . S
C1049 C1048 1.369 . S
C1049 C1058 1.429 . S
C1050 C1048 1.419 . S
C1050 C1051 1.363 . S
C1050 H1053 0.929 . S
C1051 C1050 1.363 . S
C1051 C1057 1.428 . S
H1052 C1048 0.930 . S
H1053 C1050 0.929 . S
S1054 N1055 1.613 . S
S1054 N1056 1.610 . S
N1055 S1054 1.613 . S
N1055 C1058 1.350 . S
N1056 S1054 1.610 . S
N1056 C1057 1.351 . S
C1057 C1051 1.428 . S
C1057 N1056 1.351 . S
C1057 C1058 1.434 . S
C1058 C1049 1.429 . S
C1058 N1055 1.350 . S
C1058 C1057 1.434 . S
C1059 C1060 1.369 . S
C1059 C1061 1.419 . S
C1059 H1063 0.930 . S
C1060 C1059 1.369 . S
C1060 C1069 1.429 . S
C1061 C1059 1.419 . S
C1061 C1062 1.363 . S
C1061 H1064 0.929 . S
C1062 C1061 1.363 . S
C1062 C1068 1.428 . S
H1063 C1059 0.930 . S
H1064 C1061 0.929 . S
S1065 N1066 1.613 . S
S1065 N1067 1.610 . S
N1066 S1065 1.613 . S
N1066 C1069 1.350 . S
N1067 S1065 1.610 . S
N1067 C1068 1.351 . S
C1068 C1062 1.428 . S
C1068 N1067 1.351 . S
C1068 C1069 1.434 . S
C1069 C1060 1.429 . S
C1069 N1066 1.350 . S
C1069 C1068 1.434 . S
C1070 C1071 1.369 . S
C1070 C1072 1.419 . S
C1070 H1074 0.930 . S
C1071 C1070 1.369 . S
C1071 C1080 1.429 . S
C1072 C1070 1.419 . S
C1072 C1073 1.363 . S
C1072 H1075 0.929 . S
C1073 C1072 1.363 . S
C1073 C1079 1.428 . S
H1074 C1070 0.930 . S
H1075 C1072 0.929 . S
S1076 N1077 1.613 . S
S1076 N1078 1.610 . S
N1077 S1076 1.613 . S
N1077 C1080 1.350 . S
N1078 S1076 1.610 . S
N1078 C1079 1.351 . S
C1079 C1073 1.428 . S
C1079 N1078 1.351 . S
C1079 C1080 1.434 . S
C1080 C1071 1.429 . S
C1080 N1077 1.350 . S
C1080 C1079 1.434 . S
C1081 C1082 1.369 . S
C1081 C1083 1.419 . S
C1081 H1085 0.930 . S
C1082 C1081 1.369 . S
C1082 C1091 1.429 . S
C1083 C1081 1.419 . S
C1083 C1084 1.363 . S
C1083 H1086 0.929 . S
C1084 C1083 1.363 . S
C1084 C1090 1.428 . S
H1085 C1081 0.930 . S
H1086 C1083 0.929 . S
S1087 N1088 1.613 . S
S1087 N1089 1.610 . S
N1088 S1087 1.613 . S
N1088 C1091 1.350 . S
N1089 S1087 1.610 . S
N1089 C1090 1.351 . S
C1090 C1084 1.428 . S
C1090 N1089 1.351 . S
C1090 C1091 1.434 . S
C1091 C1082 1.429 . S
C1091 N1088 1.350 . S
C1091 C1090 1.434 . S
C1092 C1093 1.369 . S
C1092 C1094 1.419 . S
C1092 H1096 0.930 . S
C1093 C1092 1.369 . S
C1093 C1102 1.429 . S
C1094 C1092 1.419 . S
C1094 C1095 1.363 . S
C1094 H1097 0.929 . S
C1095 C1094 1.363 . S
C1095 C1101 1.428 . S
H1096 C1092 0.930 . S
H1097 C1094 0.929 . S
S1098 N1099 1.613 . S
S1098 N1100 1.610 . S
N1099 S1098 1.613 . S
N1099 C1102 1.350 . S
N1100 S1098 1.610 . S
N1100 C1101 1.351 . S
C1101 C1095 1.428 . S
C1101 N1100 1.351 . S
C1101 C1102 1.434 . S
C1102 C1093 1.429 . S
C1102 N1099 1.350 . S
C1102 C1101 1.434 . S
C1103 C1104 1.369 . S
C1103 C1105 1.419 . S
C1103 H1107 0.930 . S
C1104 C1103 1.369 . S
C1104 C1113 1.429 . S
C1105 C1103 1.419 . S
C1105 C1106 1.363 . S
C1105 H1108 0.929 . S
C1106 C1105 1.363 . S
C1106 C1112 1.428 . S
H1107 C1103 0.930 . S
H1108 C1105 0.929 . S
S1109 N1110 1.613 . S
S1109 N1111 1.610 . S
N1110 S1109 1.613 . S
N1110 C1113 1.350 . S
N1111 S1109 1.610 . S
N1111 C1112 1.351 . S
C1112 C1106 1.428 . S
C1112 N1111 1.351 . S
C1112 C1113 1.434 . S
C1113 C1104 1.429 . S
C1113 N1110 1.350 . S
C1113 C1112 1.434 . S
C1114 C1115 1.369 . S
C1114 C1116 1.419 . S
C1114 H1118 0.930 . S
C1115 C1114 1.369 . S
C1115 C1124 1.429 . S
C1116 C1114 1.419 . S
C1116 C1117 1.363 . S
C1116 H1119 0.929 . S
C1117 C1116 1.363 . S
C1117 C1123 1.428 . S
H1118 C1114 0.930 . S
H1119 C1116 0.929 . S
S1120 N1121 1.613 . S
S1120 N1122 1.610 . S
N1121 S1120 1.613 . S
N1121 C1124 1.350 . S
N1122 S1120 1.610 . S
N1122 C1123 1.351 . S
C1123 C1117 1.428 . S
C1123 N1122 1.351 . S
C1123 C1124 1.434 . S
C1124 C1115 1.429 . S
C1124 N1121 1.350 . S
C1124 C1123 1.434 . S
C1125 C1126 1.369 . S
C1125 C1127 1.419 . S
C1125 H1129 0.930 . S
C1126 C1125 1.369 . S
C1126 C1135 1.429 . S
C1127 C1125 1.419 . S
C1127 C1128 1.363 . S
C1127 H1130 0.929 . S
C1128 C1127 1.363 . S
C1128 C1134 1.428 . S
H1129 C1125 0.930 . S
H1130 C1127 0.929 . S
S1131 N1132 1.613 . S
S1131 N1133 1.610 . S
N1132 S1131 1.613 . S
N1132 C1135 1.350 . S
N1133 S1131 1.610 . S
N1133 C1134 1.351 . S
C1134 C1128 1.428 . S
C1134 N1133 1.351 . S
C1134 C1135 1.434 . S
C1135 C1126 1.429 . S
C1135 N1132 1.350 . S
C1135 C1134 1.434 . S
C1136 C1137 1.369 . S
C1136 C1138 1.419 . S
C1136 H1140 0.930 . S
C1137 C1136 1.369 . S
C1137 C1146 1.429 . S
C1138 C1136 1.419 . S
C1138 C1139 1.363 . S
C1138 H1141 0.929 . S
C1139 C1138 1.363 . S
C1139 C1145 1.428 . S
H1140 C1136 0.930 . S
H1141 C1138 0.929 . S
S1142 N1143 1.613 . S
S1142 N1144 1.610 . S
N1143 S1142 1.613 . S
N1143 C1146 1.350 . S
N1144 S1142 1.610 . S
N1144 C1145 1.351 . S
C1145 C1139 1.428 . S
C1145 N1144 1.351 . S
C1145 C1146 1.434 . S
C1146 C1137 1.429 . S
C1146 N1143 1.350 . S
C1146 C1145 1.434 . S
C1147 C1148 1.369 . S
C1147 C1149 1.419 . S
C1147 H1151 0.930 . S
C1148 C1147 1.369 . S
C1148 C1157 1.429 . S
C1149 C1147 1.419 . S
C1149 C1150 1.363 . S
C1149 H1152 0.929 . S
C1150 C1149 1.363 . S
C1150 C1156 1.428 . S
H1151 C1147 0.930 . S
H1152 C1149 0.929 . S
S1153 N1154 1.613 . S
S1153 N1155 1.610 . S
N1154 S1153 1.613 . S
N1154 C1157 1.350 . S
N1155 S1153 1.610 . S
N1155 C1156 1.351 . S
C1156 C1150 1.428 . S
C1156 N1155 1.351 . S
C1156 C1157 1.434 . S
C1157 C1148 1.429 . S
C1157 N1154 1.350 . S
C1157 C1156 1.434 . S
C1158 C1159 1.369 . S
C1158 C1160 1.419 . S
C1158 H1162 0.930 . S
C1159 C1158 1.369 . S
C1159 C1168 1.429 . S
C1160 C1158 1.419 . S
C1160 C1161 1.363 . S
C1160 H1163 0.929 . S
C1161 C1160 1.363 . S
C1161 C1167 1.428 . S
H1162 C1158 0.930 . S
H1163 C1160 0.929 . S
S1164 N1165 1.613 . S
S1164 N1166 1.610 . S
N1165 S1164 1.613 . S
N1165 C1168 1.350 . S
N1166 S1164 1.610 . S
N1166 C1167 1.351 . S
C1167 C1161 1.428 . S
C1167 N1166 1.351 . S
C1167 C1168 1.434 . S
C1168 C1159 1.429 . S
C1168 N1165 1.350 . S
C1168 C1167 1.434 . S
C1169 C1170 1.369 . S
C1169 C1171 1.419 . S
C1169 H1173 0.930 . S
C1170 C1169 1.369 . S
C1170 C1179 1.429 . S
C1171 C1169 1.419 . S
C1171 C1172 1.363 . S
C1171 H1174 0.929 . S
C1172 C1171 1.363 . S
C1172 C1178 1.428 . S
H1173 C1169 0.930 . S
H1174 C1171 0.929 . S
S1175 N1176 1.613 . S
S1175 N1177 1.610 . S
N1176 S1175 1.613 . S
N1176 C1179 1.350 . S
N1177 S1175 1.610 . S
N1177 C1178 1.351 . S
C1178 C1172 1.428 . S
C1178 N1177 1.351 . S
C1178 C1179 1.434 . S
C1179 C1170 1.429 . S
C1179 N1176 1.350 . S
C1179 C1178 1.434 . S
C1180 C1181 1.369 . S
C1180 C1182 1.419 . S
C1180 H1184 0.930 . S
C1181 C1180 1.369 . S
C1181 C1190 1.429 . S
C1182 C1180 1.419 . S
C1182 C1183 1.363 . S
C1182 H1185 0.929 . S
C1183 C1182 1.363 . S
C1183 C1189 1.428 . S
H1184 C1180 0.930 . S
H1185 C1182 0.929 . S
S1186 N1187 1.613 . S
S1186 N1188 1.610 . S
N1187 S1186 1.613 . S
N1187 C1190 1.350 . S
N1188 S1186 1.610 . S
N1188 C1189 1.351 . S
C1189 C1183 1.428 . S
C1189 N1188 1.351 . S
C1189 C1190 1.434 . S
C1190 C1181 1.429 . S
C1190 N1187 1.350 . S
C1190 C1189 1.434 . S
C1191 C1192 1.369 . S
C1191 C1193 1.419 . S
C1191 H1195 0.930 . S
C1192 C1191 1.369 . S
C1192 C1201 1.429 . S
C1193 C1191 1.419 . S
C1193 C1194 1.363 . S
C1193 H1196 0.929 . S
C1194 C1193 1.363 . S
C1194 C1200 1.428 . S
H1195 C1191 0.930 . S
H1196 C1193 0.929 . S
S1197 N1198 1.613 . S
S1197 N1199 1.610 . S
N1198 S1197 1.613 . S
N1198 C1201 1.350 . S
N1199 S1197 1.610 . S
N1199 C1200 1.351 . S
C1200 C1194 1.428 . S
C1200 N1199 1.351 . S
C1200 C1201 1.434 . S
C1201 C1192 1.429 . S
C1201 N1198 1.350 . S
C1201 C1200 1.434 . S
C1202 C1203 1.369 . S
C1202 C1204 1.419 . S
C1202 H1206 0.930 . S
C1203 C1202 1.369 . S
C1203 C1212 1.429 . S
C1204 C1202 1.419 . S
C1204 C1205 1.363 . S
C1204 H1207 0.929 . S
C1205 C1204 1.363 . S
C1205 C1211 1.428 . S
H1206 C1202 0.930 . S
H1207 C1204 0.929 . S
S1208 N1209 1.613 . S
S1208 N1210 1.610 . S
N1209 S1208 1.613 . S
N1209 C1212 1.350 . S
N1210 S1208 1.610 . S
N1210 C1211 1.351 . S
C1211 C1205 1.428 . S
C1211 N1210 1.351 . S
C1211 C1212 1.434 . S
C1212 C1203 1.429 . S
C1212 N1209 1.350 . S
C1212 C1211 1.434 . S
C1213 C1214 1.369 . S
C1213 C1215 1.419 . S
C1213 H1217 0.930 . S
C1214 C1213 1.369 . S
C1214 C1223 1.429 . S
C1215 C1213 1.419 . S
C1215 C1216 1.363 . S
C1215 H1218 0.929 . S
C1216 C1215 1.363 . S
C1216 C1222 1.428 . S
H1217 C1213 0.930 . S
H1218 C1215 0.929 . S
S1219 N1220 1.613 . S
S1219 N1221 1.610 . S
N1220 S1219 1.613 . S
N1220 C1223 1.350 . S
N1221 S1219 1.610 . S
N1221 C1222 1.351 . S
C1222 C1216 1.428 . S
C1222 N1221 1.351 . S
C1222 C1223 1.434 . S
C1223 C1214 1.429 . S
C1223 N1220 1.350 . S
C1223 C1222 1.434 . S
C1224 C1225 1.369 . S
C1224 C1226 1.419 . S
C1224 H1228 0.930 . S
C1225 C1224 1.369 . S
C1225 C1234 1.429 . S
C1226 C1224 1.419 . S
C1226 C1227 1.363 . S
C1226 H1229 0.929 . S
C1227 C1226 1.363 . S
C1227 C1233 1.428 . S
H1228 C1224 0.930 . S
H1229 C1226 0.929 . S
S1230 N1231 1.613 . S
S1230 N1232 1.610 . S
N1231 S1230 1.613 . S
N1231 C1234 1.350 . S
N1232 S1230 1.610 . S
N1232 C1233 1.351 . S
C1233 C1227 1.428 . S
C1233 N1232 1.351 . S
C1233 C1234 1.434 . S
C1234 C1225 1.429 . S
C1234 N1231 1.350 . S
C1234 C1233 1.434 . S
C1235 C1236 1.369 1_545 S
C1235 C1237 1.419 . S
C1235 H1239 0.930 . S
C1236 C1235 1.369 1_565 S
C1236 C1245 1.429 . S
C1237 C1235 1.419 . S
C1237 C1238 1.363 . S
C1237 H1240 0.929 . S
C1238 C1237 1.363 . S
C1238 C1244 1.428 1_545 S
H1239 C1235 0.930 . S
H1240 C1237 0.929 . S
S1241 N1242 1.613 . S
S1241 N1243 1.610 . S
N1242 S1241 1.613 . S
N1242 C1245 1.350 . S
N1243 S1241 1.610 . S
N1243 C1244 1.351 . S
C1244 C1238 1.428 1_565 S
C1244 N1243 1.351 . S
C1244 C1245 1.434 . S
C1245 C1236 1.429 . S
C1245 N1242 1.350 . S
C1245 C1244 1.434 . S
C1246 C1247 1.369 . S
C1246 C1248 1.419 . S
C1246 H1250 0.930 . S
C1247 C1246 1.369 . S
C1247 C1256 1.429 1_655 S
C1248 C1246 1.419 . S
C1248 C1249 1.363 . S
C1248 H1251 0.929 . S
C1249 C1248 1.363 . S
C1249 C1255 1.428 1_655 S
H1250 C1246 0.930 . S
H1251 C1248 0.929 . S
S1252 N1253 1.613 . S
S1252 N1254 1.610 . S
N1253 S1252 1.613 . S
N1253 C1256 1.350 . S
N1254 S1252 1.610 . S
N1254 C1255 1.351 . S
C1255 C1249 1.428 1_455 S
C1255 N1254 1.351 . S
C1255 C1256 1.434 . S
C1256 C1247 1.429 1_455 S
C1256 N1253 1.350 . S
C1256 C1255 1.434 . S
C1257 C1258 1.369 . S
C1257 C1259 1.419 . S
C1257 H1261 0.930 . S
C1258 C1257 1.369 . S
C1258 C1267 1.429 . S
C1259 C1257 1.419 . S
C1259 C1260 1.363 . S
C1259 H1262 0.929 . S
C1260 C1259 1.363 . S
C1260 C1266 1.428 . S
H1261 C1257 0.930 . S
H1262 C1259 0.929 . S
S1263 N1264 1.613 . S
S1263 N1265 1.610 . S
N1264 S1263 1.613 . S
N1264 C1267 1.350 . S
N1265 S1263 1.610 . S
N1265 C1266 1.351 . S
C1266 C1260 1.428 . S
C1266 N1265 1.351 . S
C1266 C1267 1.434 . S
C1267 C1258 1.429 . S
C1267 N1264 1.350 . S
C1267 C1266 1.434 . S
C1268 C1269 1.369 . S
C1268 C1270 1.419 . S
C1268 H1272 0.930 . S
C1269 C1268 1.369 . S
C1269 C1278 1.429 1_545 S
C1270 C1268 1.419 . S
C1270 C1271 1.363 1_545 S
C1270 H1273 0.929 . S
C1271 C1270 1.363 1_565 S
C1271 C1277 1.428 . S
H1272 C1268 0.930 . S
H1273 C1270 0.929 . S
S1274 N1275 1.613 . S
S1274 N1276 1.610 . S
N1275 S1274 1.613 . S
N1275 C1278 1.350 . S
N1276 S1274 1.610 . S
N1276 C1277 1.351 . S
C1277 C1271 1.428 . S
C1277 N1276 1.351 . S
C1277 C1278 1.434 . S
C1278 C1269 1.429 1_565 S
C1278 N1275 1.350 . S
C1278 C1277 1.434 . S
C1279 C1280 1.369 1_455 S
C1279 C1281 1.419 . S
C1279 H1283 0.930 . S
C1280 C1279 1.369 1_655 S
C1280 C1289 1.429 . S
C1281 C1279 1.419 . S
C1281 C1282 1.363 . S
C1281 H1284 0.929 . S
C1282 C1281 1.363 . S
C1282 C1288 1.428 1_455 S
H1283 C1279 0.930 . S
H1284 C1281 0.929 . S
S1285 N1286 1.613 . S
S1285 N1287 1.610 . S
N1286 S1285 1.613 . S
N1286 C1289 1.350 . S
N1287 S1285 1.610 . S
N1287 C1288 1.351 . S
C1288 C1282 1.428 1_655 S
C1288 N1287 1.351 . S
C1288 C1289 1.434 . S
C1289 C1280 1.429 . S
C1289 N1286 1.350 . S
C1289 C1288 1.434 . S
C1290 C1291 1.369 . S
C1290 C1292 1.419 . S
C1290 H1294 0.930 . S
C1291 C1290 1.369 . S
C1291 C1300 1.429 . S
C1292 C1290 1.419 . S
C1292 C1293 1.363 . S
C1292 H1295 0.929 . S
C1293 C1292 1.363 . S
C1293 C1299 1.428 . S
H1294 C1290 0.930 . S
H1295 C1292 0.929 . S
S1296 N1297 1.613 . S
S1296 N1298 1.610 . S
N1297 S1296 1.613 . S
N1297 C1300 1.350 . S
N1298 S1296 1.610 . S
N1298 C1299 1.351 . S
C1299 C1293 1.428 . S
C1299 N1298 1.351 . S
C1299 C1300 1.434 . S
C1300 C1291 1.429 . S
C1300 N1297 1.350 . S
C1300 C1299 1.434 . S
C1301 C1302 1.369 . S
C1301 C1303 1.419 . S
C1301 H1305 0.930 . S
C1302 C1301 1.369 . S
C1302 C1311 1.429 . S
C1303 C1301 1.419 . S
C1303 C1304 1.363 . S
C1303 H1306 0.929 . S
C1304 C1303 1.363 . S
C1304 C1310 1.428 . S
H1305 C1301 0.930 . S
H1306 C1303 0.929 . S
S1307 N1308 1.613 . S
S1307 N1309 1.610 . S
N1308 S1307 1.613 . S
N1308 C1311 1.350 . S
N1309 S1307 1.610 . S
N1309 C1310 1.351 . S
C1310 C1304 1.428 . S
C1310 N1309 1.351 . S
C1310 C1311 1.434 . S
C1311 C1302 1.429 . S
C1311 N1308 1.350 . S
C1311 C1310 1.434 . S
C1312 C1313 1.369 . S
C1312 C1314 1.419 . S
C1312 H1316 0.930 . S
C1313 C1312 1.369 . S
C1313 C1322 1.429 . S
C1314 C1312 1.419 . S
C1314 C1315 1.363 . S
C1314 H1317 0.929 . S
C1315 C1314 1.363 . S
C1315 C1321 1.428 . S
H1316 C1312 0.930 . S
H1317 C1314 0.929 . S
S1318 N1319 1.613 . S
S1318 N1320 1.610 . S
N1319 S1318 1.613 . S
N1319 C1322 1.350 . S
N1320 S1318 1.610 . S
N1320 C1321 1.351 . S
C1321 C1315 1.428 . S
C1321 N1320 1.351 . S
C1321 C1322 1.434 . S
C1322 C1313 1.429 . S
C1322 N1319 1.350 . S
C1322 C1321 1.434 . S
C1323 C1324 1.369 . S
C1323 C1325 1.419 . S
C1323 H1327 0.930 . S
C1324 C1323 1.369 . S
C1324 C1333 1.429 . S
C1325 C1323 1.419 . S
C1325 C1326 1.363 . S
C1325 H1328 0.929 . S
C1326 C1325 1.363 . S
C1326 C1332 1.428 . S
H1327 C1323 0.930 . S
H1328 C1325 0.929 . S
S1329 N1330 1.613 . S
S1329 N1331 1.610 . S
N1330 S1329 1.613 . S
N1330 C1333 1.350 . S
N1331 S1329 1.610 . S
N1331 C1332 1.351 . S
C1332 C1326 1.428 . S
C1332 N1331 1.351 . S
C1332 C1333 1.434 . S
C1333 C1324 1.429 . S
C1333 N1330 1.350 . S
C1333 C1332 1.434 . S
C1334 C1335 1.369 . S
C1334 C1336 1.419 . S
C1334 H1338 0.930 . S
C1335 C1334 1.369 . S
C1335 C1344 1.429 . S
C1336 C1334 1.419 . S
C1336 C1337 1.363 . S
C1336 H1339 0.929 . S
C1337 C1336 1.363 . S
C1337 C1343 1.428 . S
H1338 C1334 0.930 . S
H1339 C1336 0.929 . S
S1340 N1341 1.613 . S
S1340 N1342 1.610 . S
N1341 S1340 1.613 . S
N1341 C1344 1.350 . S
N1342 S1340 1.610 . S
N1342 C1343 1.351 . S
C1343 C1337 1.428 . S
C1343 N1342 1.351 . S
C1343 C1344 1.434 . S
C1344 C1335 1.429 . S
C1344 N1341 1.350 . S
C1344 C1343 1.434 . S
C1345 C1346 1.369 . S
C1345 C1347 1.419 . S
C1345 H1349 0.930 . S
C1346 C1345 1.369 . S
C1346 C1355 1.429 . S
C1347 C1345 1.419 . S
C1347 C1348 1.363 . S
C1347 H1350 0.929 . S
C1348 C1347 1.363 . S
C1348 C1354 1.428 . S
H1349 C1345 0.930 . S
H1350 C1347 0.929 . S
S1351 N1352 1.613 . S
S1351 N1353 1.610 . S
N1352 S1351 1.613 . S
N1352 C1355 1.350 . S
N1353 S1351 1.610 . S
N1353 C1354 1.351 . S
C1354 C1348 1.428 . S
C1354 N1353 1.351 . S
C1354 C1355 1.434 . S
C1355 C1346 1.429 . S
C1355 N1352 1.350 . S
C1355 C1354 1.434 . S
C1356 C1357 1.369 . S
C1356 C1358 1.419 . S
C1356 H1360 0.930 . S
C1357 C1356 1.369 . S
C1357 C1366 1.429 . S
C1358 C1356 1.419 . S
C1358 C1359 1.363 . S
C1358 H1361 0.929 . S
C1359 C1358 1.363 . S
C1359 C1365 1.428 . S
H1360 C1356 0.930 . S
H1361 C1358 0.929 . S
S1362 N1363 1.613 . S
S1362 N1364 1.610 . S
N1363 S1362 1.613 . S
N1363 C1366 1.350 . S
N1364 S1362 1.610 . S
N1364 C1365 1.351 . S
C1365 C1359 1.428 . S
C1365 N1364 1.351 . S
C1365 C1366 1.434 . S
C1366 C1357 1.429 . S
C1366 N1363 1.350 . S
C1366 C1365 1.434 . S
C1367 C1368 1.369 . S
C1367 C1369 1.419 . S
C1367 H1371 0.930 . S
C1368 C1367 1.369 . S
C1368 C1377 1.429 . S
C1369 C1367 1.419 . S
C1369 C1370 1.363 . S
C1369 H1372 0.929 . S
C1370 C1369 1.363 . S
C1370 C1376 1.428 . S
H1371 C1367 0.930 . S
H1372 C1369 0.929 . S
S1373 N1374 1.613 . S
S1373 N1375 1.610 . S
N1374 S1373 1.613 . S
N1374 C1377 1.350 . S
N1375 S1373 1.610 . S
N1375 C1376 1.351 . S
C1376 C1370 1.428 . S
C1376 N1375 1.351 . S
C1376 C1377 1.434 . S
C1377 C1368 1.429 . S
C1377 N1374 1.350 . S
C1377 C1376 1.434 . S
C1378 C1379 1.369 . S
C1378 C1380 1.419 . S
C1378 H1382 0.930 . S
C1379 C1378 1.369 . S
C1379 C1388 1.429 . S
C1380 C1378 1.419 . S
C1380 C1381 1.363 . S
C1380 H1383 0.929 . S
C1381 C1380 1.363 . S
C1381 C1387 1.428 . S
H1382 C1378 0.930 . S
H1383 C1380 0.929 . S
S1384 N1385 1.613 . S
S1384 N1386 1.610 . S
N1385 S1384 1.613 . S
N1385 C1388 1.350 . S
N1386 S1384 1.610 . S
N1386 C1387 1.351 . S
C1387 C1381 1.428 . S
C1387 N1386 1.351 . S
C1387 C1388 1.434 . S
C1388 C1379 1.429 . S
C1388 N1385 1.350 . S
C1388 C1387 1.434 . S
C1389 C1390 1.369 . S
C1389 C1391 1.419 . S
C1389 H1393 0.930 . S
C1390 C1389 1.369 . S
C1390 C1399 1.429 . S
C1391 C1389 1.419 . S
C1391 C1392 1.363 . S
C1391 H1394 0.929 . S
C1392 C1391 1.363 . S
C1392 C1398 1.428 . S
H1393 C1389 0.930 . S
H1394 C1391 0.929 . S
S1395 N1396 1.613 . S
S1395 N1397 1.610 . S
N1396 S1395 1.613 . S
N1396 C1399 1.350 . S
N1397 S1395 1.610 . S
N1397 C1398 1.351 . S
C1398 C1392 1.428 . S
C1398 N1397 1.351 . S
C1398 C1399 1.434 . S
C1399 C1390 1.429 . S
C1399 N1396 1.350 . S
C1399 C1398 1.434 . S
C1400 C1401 1.369 . S
C1400 C1402 1.419 . S
C1400 H1404 0.930 . S
C1401 C1400 1.369 . S
C1401 C1410 1.429 . S
C1402 C1400 1.419 . S
C1402 C1403 1.363 . S
C1402 H1405 0.929 . S
C1403 C1402 1.363 . S
C1403 C1409 1.428 . S
H1404 C1400 0.930 . S
H1405 C1402 0.929 . S
S1406 N1407 1.613 . S
S1406 N1408 1.610 . S
N1407 S1406 1.613 . S
N1407 C1410 1.350 . S
N1408 S1406 1.610 . S
N1408 C1409 1.351 . S
C1409 C1403 1.428 . S
C1409 N1408 1.351 . S
C1409 C1410 1.434 . S
C1410 C1401 1.429 . S
C1410 N1407 1.350 . S
C1410 C1409 1.434 . S
C1411 C1412 1.369 . S
C1411 C1413 1.419 . S
C1411 H1415 0.930 . S
C1412 C1411 1.369 . S
C1412 C1421 1.429 . S
C1413 C1411 1.419 . S
C1413 C1414 1.363 . S
C1413 H1416 0.929 . S
C1414 C1413 1.363 . S
C1414 C1420 1.428 . S
H1415 C1411 0.930 . S
H1416 C1413 0.929 . S
S1417 N1418 1.613 . S
S1417 N1419 1.610 . S
N1418 S1417 1.613 . S
N1418 C1421 1.350 . S
N1419 S1417 1.610 . S
N1419 C1420 1.351 . S
C1420 C1414 1.428 . S
C1420 N1419 1.351 . S
C1420 C1421 1.434 . S
C1421 C1412 1.429 . S
C1421 N1418 1.350 . S
C1421 C1420 1.434 . S
C1422 C1423 1.369 . S
C1422 C1424 1.419 . S
C1422 H1426 0.930 . S
C1423 C1422 1.369 . S
C1423 C1432 1.429 . S
C1424 C1422 1.419 . S
C1424 C1425 1.363 . S
C1424 H1427 0.929 . S
C1425 C1424 1.363 . S
C1425 C1431 1.428 . S
H1426 C1422 0.930 . S
H1427 C1424 0.929 . S
S1428 N1429 1.613 . S
S1428 N1430 1.610 . S
N1429 S1428 1.613 . S
N1429 C1432 1.350 . S
N1430 S1428 1.610 . S
N1430 C1431 1.351 . S
C1431 C1425 1.428 . S
C1431 N1430 1.351 . S
C1431 C1432 1.434 . S
C1432 C1423 1.429 . S
C1432 N1429 1.350 . S
C1432 C1431 1.434 . S
C1433 C1434 1.369 . S
C1433 C1435 1.419 . S
C1433 H1437 0.930 . S
C1434 C1433 1.369 . S
C1434 C1443 1.429 . S
C1435 C1433 1.419 . S
C1435 C1436 1.363 . S
C1435 H1438 0.929 . S
C1436 C1435 1.363 . S
C1436 C1442 1.428 . S
H1437 C1433 0.930 . S
H1438 C1435 0.929 . S
S1439 N1440 1.613 . S
S1439 N1441 1.610 . S
N1440 S1439 1.613 . S
N1440 C1443 1.350 . S
N1441 S1439 1.610 . S
N1441 C1442 1.351 . S
C1442 C1436 1.428 . S
C1442 N1441 1.351 . S
C1442 C1443 1.434 . S
C1443 C1434 1.429 . S
C1443 N1440 1.350 . S
C1443 C1442 1.434 . S
C1444 C1445 1.369 . S
C1444 C1446 1.419 . S
C1444 H1448 0.930 . S
C1445 C1444 1.369 . S
C1445 C1454 1.429 . S
C1446 C1444 1.419 . S
C1446 C1447 1.363 . S
C1446 H1449 0.929 . S
C1447 C1446 1.363 . S
C1447 C1453 1.428 . S
H1448 C1444 0.930 . S
H1449 C1446 0.929 . S
S1450 N1451 1.613 . S
S1450 N1452 1.610 . S
N1451 S1450 1.613 . S
N1451 C1454 1.350 . S
N1452 S1450 1.610 . S
N1452 C1453 1.351 . S
C1453 C1447 1.428 . S
C1453 N1452 1.351 . S
C1453 C1454 1.434 . S
C1454 C1445 1.429 . S
C1454 N1451 1.350 . S
C1454 C1453 1.434 . S
C1455 C1456 1.369 . S
C1455 C1457 1.419 . S
C1455 H1459 0.930 . S
C1456 C1455 1.369 . S
C1456 C1465 1.429 . S
C1457 C1455 1.419 . S
C1457 C1458 1.363 . S
C1457 H1460 0.929 . S
C1458 C1457 1.363 . S
C1458 C1464 1.428 . S
H1459 C1455 0.930 . S
H1460 C1457 0.929 . S
S1461 N1462 1.613 . S
S1461 N1463 1.610 . S
N1462 S1461 1.613 . S
N1462 C1465 1.350 . S
N1463 S1461 1.610 . S
N1463 C1464 1.351 . S
C1464 C1458 1.428 . S
C1464 N1463 1.351 . S
C1464 C1465 1.434 . S
C1465 C1456 1.429 . S
C1465 N1462 1.350 . S
C1465 C1464 1.434 . S
C1466 C1467 1.369 . S
C1466 C1468 1.419 . S
C1466 H1470 0.930 . S
C1467 C1466 1.369 . S
C1467 C1476 1.429 . S
C1468 C1466 1.419 . S
C1468 C1469 1.363 . S
C1468 H1471 0.929 . S
C1469 C1468 1.363 . S
C1469 C1475 1.428 . S
H1470 C1466 0.930 . S
H1471 C1468 0.929 . S
S1472 N1473 1.613 . S
S1472 N1474 1.610 . S
N1473 S1472 1.613 . S
N1473 C1476 1.350 . S
N1474 S1472 1.610 . S
N1474 C1475 1.351 . S
C1475 C1469 1.428 . S
C1475 N1474 1.351 . S
C1475 C1476 1.434 . S
C1476 C1467 1.429 . S
C1476 N1473 1.350 . S
C1476 C1475 1.434 . S
C1477 C1478 1.369 . S
C1477 C1479 1.419 . S
C1477 H1481 0.930 . S
C1478 C1477 1.369 . S
C1478 C1487 1.429 . S
C1479 C1477 1.419 . S
C1479 C1480 1.363 . S
C1479 H1482 0.929 . S
C1480 C1479 1.363 . S
C1480 C1486 1.428 . S
H1481 C1477 0.930 . S
H1482 C1479 0.929 . S
S1483 N1484 1.613 . S
S1483 N1485 1.610 . S
N1484 S1483 1.613 . S
N1484 C1487 1.350 . S
N1485 S1483 1.610 . S
N1485 C1486 1.351 . S
C1486 C1480 1.428 . S
C1486 N1485 1.351 . S
C1486 C1487 1.434 . S
C1487 C1478 1.429 . S
C1487 N1484 1.350 . S
C1487 C1486 1.434 . S
C1488 C1489 1.369 . S
C1488 C1490 1.419 . S
C1488 H1492 0.930 . S
C1489 C1488 1.369 . S
C1489 C1498 1.429 . S
C1490 C1488 1.419 . S
C1490 C1491 1.363 . S
C1490 H1493 0.929 . S
C1491 C1490 1.363 . S
C1491 C1497 1.428 . S
H1492 C1488 0.930 . S
H1493 C1490 0.929 . S
S1494 N1495 1.613 . S
S1494 N1496 1.610 . S
N1495 S1494 1.613 . S
N1495 C1498 1.350 . S
N1496 S1494 1.610 . S
N1496 C1497 1.351 . S
C1497 C1491 1.428 . S
C1497 N1496 1.351 . S
C1497 C1498 1.434 . S
C1498 C1489 1.429 . S
C1498 N1495 1.350 . S
C1498 C1497 1.434 . S
C1499 C1500 1.369 . S
C1499 C1501 1.419 . S
C1499 H1503 0.930 . S
C1500 C1499 1.369 . S
C1500 C1509 1.429 . S
C1501 C1499 1.419 . S
C1501 C1502 1.363 . S
C1501 H1504 0.929 . S
C1502 C1501 1.363 . S
C1502 C1508 1.428 . S
H1503 C1499 0.930 . S
H1504 C1501 0.929 . S
S1505 N1506 1.613 . S
S1505 N1507 1.610 . S
N1506 S1505 1.613 . S
N1506 C1509 1.350 . S
N1507 S1505 1.610 . S
N1507 C1508 1.351 . S
C1508 C1502 1.428 . S
C1508 N1507 1.351 . S
C1508 C1509 1.434 . S
C1509 C1500 1.429 . S
C1509 N1506 1.350 . S
C1509 C1508 1.434 . S
C1510 C1511 1.369 . S
C1510 C1512 1.419 . S
C1510 H1514 0.930 . S
C1511 C1510 1.369 . S
C1511 C1520 1.429 . S
C1512 C1510 1.419 . S
C1512 C1513 1.363 . S
C1512 H1515 0.929 . S
C1513 C1512 1.363 . S
C1513 C1519 1.428 . S
H1514 C1510 0.930 . S
H1515 C1512 0.929 . S
S1516 N1517 1.613 . S
S1516 N1518 1.610 . S
N1517 S1516 1.613 . S
N1517 C1520 1.350 . S
N1518 S1516 1.610 . S
N1518 C1519 1.351 . S
C1519 C1513 1.428 . S
C1519 N1518 1.351 . S
C1519 C1520 1.434 . S
C1520 C1511 1.429 . S
C1520 N1517 1.350 . S
C1520 C1519 1.434 . S
C1521 C1522 1.369 . S
C1521 C1523 1.419 . S
C1521 H1525 0.930 . S
C1522 C1521 1.369 . S
C1522 C1531 1.429 . S
C1523 C1521 1.419 . S
C1523 C1524 1.363 . S
C1523 H1526 0.929 . S
C1524 C1523 1.363 . S
C1524 C1530 1.428 . S
H1525 C1521 0.930 . S
H1526 C1523 0.929 . S
S1527 N1528 1.613 . S
S1527 N1529 1.610 . S
N1528 S1527 1.613 . S
N1528 C1531 1.350 . S
N1529 S1527 1.610 . S
N1529 C1530 1.351 . S
C1530 C1524 1.428 . S
C1530 N1529 1.351 . S
C1530 C1531 1.434 . S
C1531 C1522 1.429 . S
C1531 N1528 1.350 . S
C1531 C1530 1.434 . S
C1532 C1533 1.369 . S
C1532 C1534 1.419 . S
C1532 H1536 0.930 . S
C1533 C1532 1.369 . S
C1533 C1542 1.429 . S
C1534 C1532 1.419 . S
C1534 C1535 1.363 . S
C1534 H1537 0.929 . S
C1535 C1534 1.363 . S
C1535 C1541 1.428 . S
H1536 C1532 0.930 . S
H1537 C1534 0.929 . S
S1538 N1539 1.613 . S
S1538 N1540 1.610 . S
N1539 S1538 1.613 . S
N1539 C1542 1.350 . S
N1540 S1538 1.610 . S
N1540 C1541 1.351 . S
C1541 C1535 1.428 . S
C1541 N1540 1.351 . S
C1541 C1542 1.434 . S
C1542 C1533 1.429 . S
C1542 N1539 1.350 . S
C1542 C1541 1.434 . S
C1543 C1544 1.369 . S
C1543 C1545 1.419 . S
C1543 H1547 0.930 . S
C1544 C1543 1.369 . S
C1544 C1553 1.429 . S
C1545 C1543 1.419 . S
C1545 C1546 1.363 . S
C1545 H1548 0.929 . S
C1546 C1545 1.363 . S
C1546 C1552 1.428 . S
H1547 C1543 0.930 . S
H1548 C1545 0.929 . S
S1549 N1550 1.613 . S
S1549 N1551 1.610 . S
N1550 S1549 1.613 . S
N1550 C1553 1.350 . S
N1551 S1549 1.610 . S
N1551 C1552 1.351 . S
C1552 C1546 1.428 . S
C1552 N1551 1.351 . S
C1552 C1553 1.434 . S
C1553 C1544 1.429 . S
C1553 N1550 1.350 . S
C1553 C1552 1.434 . S
C1554 C1555 1.369 . S
C1554 C1556 1.419 1_455 S
C1554 H1558 0.930 . S
C1555 C1554 1.369 . S
C1555 C1564 1.434 . S
C1556 C1554 1.419 1_655 S
C1556 C1557 1.363 . S
C1556 H1559 0.929 . S
C1557 C1556 1.363 . S
C1557 C1563 1.428 . S
H1558 C1554 0.930 . S
H1559 C1556 0.929 . S
S1560 N1561 1.613 1_655 S
S1560 N1562 1.610 . S
N1561 S1560 1.613 1_455 S
N1561 C1564 1.360 . S
N1562 S1560 1.610 . S
N1562 C1563 1.351 . S
C1563 C1557 1.428 . S
C1563 N1562 1.351 . S
C1563 C1564 1.416 1_655 S
C1564 C1555 1.434 . S
C1564 N1561 1.360 . S
C1564 C1563 1.416 1_455 S
C1565 C1566 1.369 . S
C1565 C1567 1.419 . S
C1565 H1569 0.930 . S
C1566 C1565 1.369 . S
C1566 C1575 1.429 . S
C1567 C1565 1.419 . S
C1567 C1568 1.363 . S
C1567 H1570 0.929 . S
C1568 C1567 1.363 . S
C1568 C1574 1.428 . S
H1569 C1565 0.930 . S
H1570 C1567 0.929 . S
S1571 N1572 1.613 . S
S1571 N1573 1.610 . S
N1572 S1571 1.613 . S
N1572 C1575 1.350 . S
N1573 S1571 1.610 . S
N1573 C1574 1.351 . S
C1574 C1568 1.428 . S
C1574 N1573 1.351 . S
C1574 C1575 1.434 . S
C1575 C1566 1.429 . S
C1575 N1572 1.350 . S
C1575 C1574 1.434 . S
C1576 C1577 1.369 . S
C1576 C1578 1.419 1_545 S
C1576 H1580 0.930 . S
C1577 C1576 1.369 . S
C1577 C1586 1.429 . S
C1578 C1576 1.419 1_565 S
C1578 C1579 1.363 . S
C1578 H1581 0.929 . S
C1579 C1578 1.363 . S
C1579 C1585 1.428 . S
H1580 C1576 0.930 . S
H1581 C1578 0.929 . S
S1582 N1583 1.613 1_565 S
S1582 N1584 1.610 . S
N1583 S1582 1.613 1_545 S
N1583 C1586 1.350 . S
N1584 S1582 1.610 . S
N1584 C1585 1.351 . S
C1585 C1579 1.428 . S
C1585 N1584 1.351 . S
C1585 C1586 1.434 1_565 S
C1586 C1577 1.429 . S
C1586 N1583 1.350 . S
C1586 C1585 1.434 1_545 S
C1587 C1588 1.369 1_556 S
C1587 C1589 1.419 1_545 S
C1587 H1591 0.930 . S
C1588 C1587 1.369 1_554 S
C1588 C1597 1.429 . S
C1589 C1587 1.419 1_565 S
C1589 C1590 1.363 1_556 S
C1589 H1592 0.929 . S
C1590 C1589 1.363 1_554 S
C1590 C1596 1.428 . S
H1591 C1587 0.930 . S
H1592 C1589 0.929 . S
S1593 N1594 1.613 1_565 S
S1593 N1595 1.610 . S
N1594 S1593 1.613 1_545 S
N1594 C1597 1.350 . S
N1595 S1593 1.610 . S
N1595 C1596 1.351 . S
C1596 C1590 1.428 . S
C1596 N1595 1.351 . S
C1596 C1597 1.434 1_565 S
C1597 C1588 1.429 . S
C1597 N1594 1.350 . S
C1597 C1596 1.434 1_545 S
C1598 C1599 1.369 1_455 S
C1598 C1600 1.419 . S
C1598 H1602 0.930 1_455 S
C1599 C1598 1.369 1_655 S
C1599 C1608 1.429 1_554 S
C1600 C1598 1.419 . S
C1600 C1601 1.363 . S
C1600 H1603 0.929 . S
C1601 C1600 1.363 . S
C1601 C1607 1.428 1_554 S
H1602 C1598 0.930 1_655 S
H1603 C1600 0.929 . S
S1604 N1605 1.613 . S
S1604 N1606 1.610 1_655 S
N1605 S1604 1.613 . S
N1605 C1608 1.350 . S
N1606 S1604 1.610 1_455 S
N1606 C1607 1.351 . S
C1607 C1601 1.428 1_556 S
C1607 N1606 1.351 . S
C1607 C1608 1.434 1_455 S
C1608 C1599 1.429 1_556 S
C1608 N1605 1.350 . S
C1608 C1607 1.434 1_655 S
C1609 C1610 1.369 1_556 S
C1609 C1611 1.419 . S
C1609 H1613 0.930 . S
C1610 C1609 1.369 1_554 S
C1610 C1619 1.429 . S
C1611 C1609 1.419 . S
C1611 C1612 1.363 1_556 S
C1611 H1614 0.929 . S
C1612 C1611 1.363 1_554 S
C1612 C1618 1.428 . S
H1613 C1609 0.930 . S
H1614 C1611 0.929 . S
S1615 N1616 1.613 . S
S1615 N1617 1.610 . S
N1616 S1615 1.613 . S
N1616 C1619 1.350 . S
N1617 S1615 1.610 . S
N1617 C1618 1.351 . S
C1618 C1612 1.428 . S
C1618 N1617 1.351 . S
C1618 C1619 1.434 . S
C1619 C1610 1.429 . S
C1619 N1616 1.350 . S
C1619 C1618 1.434 . S
C829 N12 1.462 1_556 S
C831 N163 1.381 . S
C840 C39 1.469 . S
C842 N186 1.400 . S
C851 N140 1.404 . S
C853 C62 1.460 . S
C862 N255 1.397 . S
C864 C85 1.460 . S
C873 C108 1.474 . S
C875 N209 1.394 . S
C884 N127 1.459 . S
C886 N232 1.380 . S
C895 N25 1.665 . S
C897 C154 1.742 . S
C906 N48 1.526 . S
C908 C177 1.601 . S
C917 C200 1.678 . S
C919 C7 1.704 . S
C928 C223 1.680 . S
C930 C122 1.710 . S
C939 N71 1.524 . S
C941 C246 1.600 . S
C950 C269 1.742 . S
C952 N94 1.662 . S
C961 N439 1.389 . S
C963 N288 1.463 . S
C972 C315 1.475 . S
C974 N462 1.401 . S
C983 C338 1.467 . S
C985 N416 1.396 . S
C994 N531 1.397 . S
C996 C361 1.460 . S
C1005 C384 1.476 . S
C1007 N485 1.393 . S
C1016 N508 1.379 . S
C1018 N403 1.460 . S
C1027 N301 1.667 . S
C1029 C430 1.742 . S
C1038 C453 1.606 . S
C1040 N324 1.515 . S
C1049 C283 1.702 . S
C1051 C476 1.680 . S
C1060 C499 1.679 . S
C1062 C398 1.702 . S
C1071 C522 1.599 . S
C1073 N347 1.521 . S
C1082 C545 1.746 . S
C1084 N370 1.666 . S
C1093 N715 1.386 . S
C1095 N564 1.463 . S
C1104 N738 1.406 . S
C1106 C591 1.471 . S
C1115 N692 1.403 . S
C1117 C614 1.459 . S
C1126 C637 1.467 . S
C1128 N807 1.396 . S
C1137 C660 1.474 . S
C1139 N761 1.394 . S
C1148 N784 1.384 . S
C1150 N679 1.456 . S
C1159 C706 1.748 . S
C1161 N577 1.664 . S
C1170 N600 1.520 . S
C1172 C729 1.601 . S
C1181 C559 1.703 . S
C1183 C752 1.681 . S
C1192 C775 1.681 . S
C1194 C674 1.702 . S
C1203 C798 1.599 . S
C1205 N623 1.522 . S
C1214 C821 1.748 . S
C1216 N646 1.660 . S
C1225 C76 1.980 . S
C1227 N2 1.838 . S
C1236 C99 2.173 . S
C1238 C30 2.175 . S
C1247 C53 1.982 . S
C1249 N117 1.844 . S
C1258 C214 2.148 . S
C1260 C145 2.128 . S
C1269 C237 1.972 . S
C1271 C168 1.972 . S
C1280 C260 2.131 . S
C1282 C191 2.150 . S
C1291 C352 1.980 . S
C1293 N278 1.845 . S
C1302 C375 2.172 . S
C1304 C306 2.175 . S
C1313 C329 1.979 . S
C1315 N393 1.839 . S
C1324 C490 2.150 1_554 S
C1326 C421 2.131 . S
C1335 C513 1.969 . S
C1337 C444 1.969 . S
C1346 C536 2.132 . S
C1348 C467 2.150 . S
C1357 C628 1.979 1_556 S
C1359 N554 1.838 . S
C1368 C582 2.172 . S
C1370 C651 2.175 1_556 S
C1379 N669 1.837 . S
C1381 C605 1.980 . S
C1390 C697 2.132 . S
C1392 C766 2.150 . S
C1401 C720 1.973 . S
C1403 C789 1.973 . S
C1412 C743 2.150 . S
C1414 C812 2.131 . S
C1423 C16 1.727 . S
C1425 N426 1.723 . S
C1434 N449 1.620 . S
C1436 N35 1.608 . S
C1445 N472 1.757 . S
C1447 N58 1.777 . S
C1456 N771 1.768 . S
C1458 N81 1.769 . S
C1467 N794 1.620 . S
C1469 N104 1.607 . S
C1478 N817 1.720 . S
C1480 C131 1.727 . S
C1489 N150 1.715 . S
C1491 C568 1.733 . S
C1500 N587 1.618 . S
C1502 N173 1.610 . S
C1511 N610 1.778 . S
C1513 N196 1.758 . S
C1522 N219 1.765 . S
C1524 N357 1.771 . S
C1533 N242 1.608 . S
C1535 N380 1.616 . S
C1544 N265 1.716 . S
C1546 C407 1.733 . S
C1555 N702 1.724 . S
C1557 C292 1.727 . S
C1566 N725 1.609 . S
C1568 N311 1.617 . S
C1577 N334 1.777 . S
C1579 N748 1.758 . S
C1588 N495 1.767 1_554 S
C1590 N633 1.770 . S
C1599 N518 1.608 1_554 S
C1601 N656 1.616 . S
C1610 N541 1.723 . S
C1612 C683 1.725 . S
