# Generated by pormake.
# Topology rob, (6)-cn, num edge types: 1
# Building blocks:
#     Node 0, Type 0, BuildingBlock: BETDIP_clean_sbu_0, # of connection points: 6
#     Node 1, Type 0, BuildingBlock: BETDIP_clean_sbu_0, # of connection points: 6
#     Node 2, Type 0, BuildingBlock: BETDIP_clean_sbu_0, # of connection points: 6
#     Node 3, Type 0, BuildingBlock: BETDIP_clean_sbu_0, # of connection points: 6
#     Edge 4, Type (0, 0), BuildingBlock: ZUJKAS_clean_linker_0, # of connection points: 2
#     Edge 5, Type (0, 0), BuildingBlock: ZUJKAS_clean_linker_0, # of connection points: 2
#     Edge 6, Type (0, 0), BuildingBlock: ZUJKAS_clean_linker_0, # of connection points: 2
#     Edge 7, Type (0, 0), BuildingBlock: ZUJKAS_clean_linker_0, # of connection points: 2
#     Edge 8, Type (0, 0), BuildingBlock: ZUJKAS_clean_linker_0, # of connection points: 2
#     Edge 9, Type (0, 0), BuildingBlock: ZUJKAS_clean_linker_0, # of connection points: 2
#     Edge 10, Type (0, 0), BuildingBlock: ZUJKAS_clean_linker_0, # of connection points: 2
#     Edge 11, Type (0, 0), BuildingBlock: ZUJKAS_clean_linker_0, # of connection points: 2
#     Edge 12, Type (0, 0), BuildingBlock: ZUJKAS_clean_linker_0, # of connection points: 2
#     Edge 13, Type (0, 0), BuildingBlock: ZUJKAS_clean_linker_0, # of connection points: 2
#     Edge 14, Type (0, 0), BuildingBlock: ZUJKAS_clean_linker_0, # of connection points: 2
#     Edge 15, Type (0, 0), BuildingBlock: ZUJKAS_clean_linker_0, # of connection points: 2
# Relax obj value: 0.033
# Max RMSD: 0.130
# Mean RMSD: 0.130
data_MOF--net-rob--node1-BETDIP_clean_sbu_0--edge1-ZUJKAS_clean_linker_0
_symmetry_space_group_name_H-M    P1
_symmetry_Int_Tables_number       1
_symmetry_cell_setting            triclinic
loop_
_symmetry_equiv_pos_as_xyz
'x, y, z'
_cell_length_a     18.336979
_cell_length_b     32.559699
_cell_length_c     45.011214
_cell_angle_alpha  95.043481
_cell_angle_beta   90.037093
_cell_angle_gamma 89.864046
loop_
_atom_site_label
_atom_site_type_symbol
_atom_site_fract_x
_atom_site_fract_y
_atom_site_fract_z
_atom_type_partial_charge
Tb0 Tb 0.17583 0.28185 0.03065 0.0
Tb1 Tb 0.32304 0.25662 1.00568 0.0
C2 C 0.05934 0.28537 0.06023 0.0
C3 C 0.04145 0.28399 0.09211 0.0
C4 C 0.07267 0.25432 0.10914 0.0
C5 C 0.05801 0.25491 0.13967 0.0
C6 C 0.01129 0.28493 0.15373 0.0
C7 C 0.97939 0.31424 0.13651 0.0
C8 C 0.99447 0.31379 0.10603 0.0
C9 C 0.26377 0.34288 0.02083 0.0
C10 C 0.30742 0.26009 0.07419 0.0
C11 C 0.43973 0.25344 0.97621 0.0
C12 C 0.45822 0.25558 0.94446 0.0
C13 C 0.425 0.28457 0.92741 0.0
C14 C 0.44123 0.28508 0.89708 0.0
C15 C 0.49139 0.25679 0.88321 0.0
C16 C 0.52495 0.22803 0.90045 0.0
C17 C 0.50841 0.22743 0.93074 0.0
C18 C 0.23516 0.19563 0.0157 0.0
C19 C 0.19106 0.2784 0.96219 0.0
O20 O 0.08468 0.25139 0.04615 0.0
O21 O 0.09514 0.31798 0.05348 0.0
O22 O 0.28131 0.30948 0.03102 0.0
O23 O 0.19361 0.34416 0.01741 0.0
O24 O 0.23619 0.26309 0.0696 0.0
O25 O 0.35497 0.26188 0.05227 0.0
O26 O 0.41442 0.28721 0.99057 0.0
O27 O 0.40357 0.22072 0.98249 0.0
O28 O 0.2177 0.22895 1.00536 0.0
O29 O 0.30536 0.1944 0.01913 0.0
O30 O 0.26232 0.27509 0.96669 0.0
O31 O 0.14367 0.27687 0.98418 0.0
H32 H 0.10879 0.2308 0.09893 0.0
H33 H 0.08273 0.2316 0.1522 0.0
H34 H 0.94377 0.33803 0.14671 0.0
H35 H 0.97001 0.33705 0.09336 0.0
H36 H 0.38616 0.30675 0.93744 0.0
H37 H 0.41505 0.30793 0.88456 0.0
H38 H 0.56316 0.2055 0.89041 0.0
H39 H 0.53442 0.2047 0.94344 0.0
Tb40 Tb 0.67863 0.78171 0.03109 0.0
Tb41 Tb 0.82473 0.75514 1.00612 0.0
C42 C 0.5621 0.78595 0.06062 0.0
C43 C 0.54377 0.78407 0.0924 0.0
C44 C 0.57436 0.75394 0.10919 0.0
C45 C 0.5584 0.75367 0.13955 0.0
C46 C 0.51136 0.78344 0.15374 0.0
C47 C 0.48055 0.8134 0.13678 0.0
C48 C 0.49663 0.81367 0.10644 0.0
C49 C 0.76743 0.84207 0.02076 0.0
C50 C 0.81038 0.7595 0.07458 0.0
C51 C 0.94002 0.74994 0.97591 0.0
C52 C 0.95629 0.75148 0.94385 0.0
C53 C 0.93604 0.78556 0.92849 0.0
C54 C 0.94974 0.7857 0.89794 0.0
C55 C 0.9835 0.7517 0.88209 0.0
C56 C 0.00377 0.71771 0.89749 0.0
C57 C 0.99055 0.71769 0.92807 0.0
C58 C 0.73519 0.695 0.01644 0.0
C59 C 0.69418 0.77815 0.96261 0.0
O60 O 0.5864 0.75193 0.04625 0.0
O61 O 0.59908 0.81833 0.05425 0.0
O62 O 0.78463 0.80873 0.03117 0.0
O63 O 0.69725 0.84364 0.01742 0.0
O64 O 0.73912 0.76312 0.07017 0.0
O65 O 0.85759 0.76056 0.05248 0.0
O66 O 0.91738 0.78414 0.99055 0.0
O67 O 0.903 0.71783 0.98281 0.0
O68 O 0.71871 0.72832 1.0059 0.0
O69 O 0.80528 0.69331 0.02002 0.0
O70 O 0.76526 0.77466 0.96725 0.0
O71 O 0.64652 0.77667 0.98452 0.0
H72 H 0.61094 0.73068 0.09893 0.0
H73 H 0.58238 0.72986 0.15183 0.0
H74 H 0.44488 0.8371 0.14706 0.0
H75 H 0.47274 0.83732 0.09395 0.0
H76 H 0.90892 0.81198 0.93995 0.0
H77 H 0.93286 0.81215 0.88661 0.0
H78 H 0.03066 0.69128 0.88594 0.0
H79 H 0.00669 0.69109 0.9394 0.0
Tb80 Tb 0.17814 0.75704 0.50617 0.0
Tb81 Tb 0.32616 0.7801 0.53092 0.0
C82 C 0.06224 0.7563 0.4763 0.0
C83 C 0.04713 0.75443 0.44408 0.0
C84 C 0.98281 0.77176 0.43392 0.0
C85 C 0.96855 0.77098 0.40334 0.0
C86 C 0.01847 0.7528 0.3823 0.0
C87 C 0.08332 0.73574 0.39267 0.0
C88 C 0.09751 0.73659 0.42325 0.0
C89 C 0.26556 0.69467 0.51388 0.0
C90 C 0.30951 0.77801 0.46252 0.0
C91 C 0.44284 0.7805 0.56032 0.0
C92 C 0.45966 0.78321 0.59243 0.0
C93 C 0.52308 0.76462 0.60234 0.0
C94 C 0.53837 0.76557 0.63284 0.0
C95 C 0.49032 0.78509 0.65405 0.0
C96 C 0.42667 0.80372 0.64395 0.0
C97 C 0.41153 0.8028 0.61344 0.0
C98 C 0.23885 0.84248 0.52306 0.0
C99 C 0.19389 0.75945 0.57461 0.0
O100 O 0.09351 0.79016 0.48772 0.0
O101 O 0.09148 0.72328 0.48598 0.0
O102 O 0.28327 0.72855 0.50457 0.0
O103 O 0.19543 0.69359 0.5173 0.0
O104 O 0.2384 0.77583 0.46736 0.0
O105 O 0.35734 0.77468 0.48419 0.0
O106 O 0.40981 0.74673 0.54978 0.0
O107 O 0.4144 0.81347 0.55022 0.0
O108 O 0.2212 0.80865 0.53247 0.0
O109 O 0.30903 0.84353 0.51971 0.0
O110 O 0.26511 0.76258 0.57006 0.0
O111 O 0.14633 0.76174 0.55272 0.0
H112 H 0.94371 0.7861 0.44965 0.0
H113 H 0.91874 0.7851 0.3962 0.0
H114 H 0.12271 0.72118 0.37719 0.0
H115 H 0.14787 0.72326 0.43061 0.0
H116 H 0.56048 0.74899 0.58648 0.0
H117 H 0.58726 0.75035 0.63983 0.0
H118 H 0.3888 0.81932 0.65961 0.0
H119 H 0.36196 0.81718 0.60626 0.0
Tb120 Tb 0.67831 0.25646 0.50571 0.0
Tb121 Tb 0.82606 0.28043 0.53036 0.0
C122 C 0.56163 0.25411 0.47624 0.0
C123 C 0.54347 0.25612 0.44443 0.0
C124 C 0.5737 0.2864 0.42775 0.0
C125 C 0.55813 0.28666 0.39733 0.0
C126 C 0.51182 0.25675 0.38298 0.0
C127 C 0.48128 0.22669 0.39984 0.0
C128 C 0.49697 0.22641 0.43022 0.0
C129 C 0.76548 0.19468 0.51506 0.0
C130 C 0.81008 0.27705 0.462 0.0
C131 C 0.94202 0.28159 0.56016 0.0
C132 C 0.95734 0.28399 0.59239 0.0
C133 C 0.01749 0.26289 0.60282 0.0
C134 C 0.03121 0.26353 0.63342 0.0
C135 C 0.98505 0.28545 0.65425 0.0
C136 C 0.92452 0.30646 0.64362 0.0
C137 C 0.91067 0.30562 0.61301 0.0
C138 C 0.7386 0.3423 0.52132 0.0
C139 C 0.69437 0.26018 0.57433 0.0
O140 O 0.58741 0.28774 0.49056 0.0
O141 O 0.59707 0.22114 0.4827 0.0
O142 O 0.78341 0.228 0.5049 0.0
O143 O 0.69537 0.19396 0.51874 0.0
O144 O 0.73876 0.2752 0.46676 0.0
O145 O 0.8576 0.27405 0.48381 0.0
O146 O 0.91051 0.24759 0.54914 0.0
O147 O 0.91312 0.31443 0.55004 0.0
O148 O 0.72107 0.30878 0.53124 0.0
O149 O 0.80882 0.34339 0.51808 0.0
O150 O 0.76541 0.26381 0.56974 0.0
O151 O 0.64664 0.26125 0.55236 0.0
H152 H 0.60978 0.30976 0.43811 0.0
H153 H 0.58187 0.31055 0.38514 0.0
H154 H 0.44615 0.20288 0.38944 0.0
H155 H 0.47334 0.20266 0.44261 0.0
H156 H 0.05351 0.24555 0.58727 0.0
H157 H 0.07746 0.24631 0.64074 0.0
H158 H 0.88816 0.32397 0.6589 0.0
H159 H 0.8633 0.32175 0.60548 0.0
H160 H 0.76541 0.62064 0.03704 0.0
H161 H 0.6844 0.56088 0.03738 0.0
H162 H 0.51123 0.63033 1.0003 0.0
H163 H 0.59241 0.68984 0.99935 0.0
H164 H 0.55024 0.55279 0.06565 0.0
H165 H 0.52169 0.52611 0.94266 0.0
H166 H 0.59089 0.55933 0.9602 0.0
H167 H 0.49856 0.5774 0.9577 0.0
C168 C 0.71004 0.62311 0.02898 0.0
C169 C 0.6852 0.65978 0.01809 0.0
C170 C 0.66384 0.58901 0.02921 0.0
C171 C 0.59218 0.59091 0.0184 0.0
C172 C 0.56677 0.62788 1.00817 0.0
H173 H 0.23203 0.41728 1.00051 0.0
H174 H 0.31215 0.47745 1.00017 0.0
C175 C 0.61297 0.66197 1.0079 0.0
C176 C 0.54402 0.55427 0.018 0.0
H177 H 0.44645 0.48606 0.9717 0.0
C178 C 0.52775 0.53808 0.04511 0.0
C179 C 0.51472 0.53516 0.99116 0.0
C180 C 0.53275 0.55008 0.96123 0.0
C181 C 0.48196 0.50371 0.04618 0.0
C182 C 0.45271 0.48457 0.01934 0.0
C183 C 0.4689 0.50079 0.99223 0.0
C184 C 0.40503 0.44774 0.01894 0.0
C185 C 0.46402 0.48873 0.07611 0.0
C186 C 0.43111 0.41084 0.02904 0.0
C187 C 0.38545 0.37653 0.0293 0.0
C188 C 0.31307 0.37842 0.01922 0.0
C189 C 0.28753 0.41503 1.00848 0.0
C190 C 0.33321 0.44937 1.00825 0.0
H191 H 0.47493 0.51272 0.09468 0.0
H192 H 0.40595 0.47936 0.07712 0.0
H193 H 0.4984 0.46149 0.07963 0.0
H194 H 0.48677 0.40862 0.03682 0.0
H195 H 0.40656 0.34871 0.03774 0.0
H196 H 0.23342 0.61967 0.53294 0.0
H197 H 0.31486 0.56005 0.53453 0.0
H198 H 0.49012 0.62951 0.49946 0.0
H199 H 0.40915 0.68925 0.49806 0.0
H200 H 0.38856 0.51709 0.48732 0.0
H201 H 0.58377 0.58442 0.57234 0.0
H202 H 0.49586 0.6073 0.56622 0.0
H203 H 0.57046 0.61489 0.54141 0.0
C204 C 0.28947 0.62226 0.52577 0.0
C205 C 0.31516 0.65913 0.51557 0.0
C206 C 0.33588 0.58821 0.52665 0.0
C207 C 0.40885 0.59049 0.51751 0.0
C208 C 0.43449 0.62731 0.50722 0.0
H209 H 0.77048 0.41655 0.50097 0.0
H210 H 0.68934 0.47626 0.49906 0.0
C211 C 0.38812 0.66136 0.50634 0.0
C212 C 0.4574 0.55394 0.51784 0.0
H213 H 0.61629 0.51993 0.54701 0.0
C214 C 0.43818 0.51762 0.50048 0.0
C215 C 0.52222 0.55474 0.53497 0.0
C216 C 0.54416 0.59227 0.55501 0.0
C217 C 0.4826 0.48229 0.49939 0.0
C218 C 0.5474 0.48311 0.51651 0.0
C219 C 0.56668 0.51942 0.53385 0.0
C220 C 0.59571 0.44649 0.51695 0.0
C221 C 0.4606 0.44468 0.47945 0.0
C222 C 0.57014 0.41005 0.52782 0.0
C223 C 0.61637 0.37598 0.52894 0.0
C224 C 0.68906 0.3778 0.51929 0.0
C225 C 0.71463 0.41427 0.50846 0.0
C226 C 0.6684 0.44838 0.50739 0.0
H227 H 0.4205 0.45237 0.46226 0.0
H228 H 0.50883 0.4298 0.46809 0.0
H229 H 0.43494 0.42199 0.49318 0.0
H230 H 0.51472 0.40819 0.53589 0.0
H231 H 0.59549 0.34845 0.53779 0.0
H232 H 0.26747 0.12131 0.03593 0.0
H233 H 0.1878 0.06099 0.03633 0.0
H234 H 0.01232 0.12954 1.00004 0.0
H235 H 0.09214 0.18963 0.99904 0.0
H236 H 0.05447 0.05179 0.06497 0.0
H237 H 0.02382 0.02573 0.94205 0.0
H238 H 0.09266 0.0593 0.95948 0.0
H239 H 0.99991 0.0768 0.95729 0.0
C240 C 0.21188 0.12347 0.02806 0.0
C241 C 0.186 0.16005 0.01737 0.0
C242 C 0.16645 0.08904 0.02832 0.0
C243 C 0.09452 0.09054 0.01774 0.0
C244 C 0.06808 0.12741 1.00772 0.0
H245 H 0.73574 0.91652 1.00062 0.0
H246 H 0.81605 0.97654 1.00009 0.0
C247 C 0.11351 0.16183 1.00742 0.0
C248 C 0.04716 0.05357 0.01737 0.0
H249 H 0.9496 0.98521 0.97118 0.0
C250 C 0.03178 0.0371 0.04447 0.0
C251 C 0.01762 0.03447 0.99058 0.0
C252 C 0.03475 0.04968 0.96065 0.0
C253 C 0.98651 1.00251 0.04557 0.0
C254 C 0.95691 0.98344 0.01878 0.0
C255 C 0.97233 0.99989 0.99168 0.0
C256 C 0.90924 0.94661 0.01843 0.0
C257 C 0.9694 0.98727 0.07549 0.0
C258 C 0.93543 0.90961 0.02834 0.0
C259 C 0.88964 0.87535 0.02871 0.0
C260 C 0.81702 0.87743 0.01895 0.0
C261 C 0.79142 0.91413 1.00836 0.0
C262 C 0.83721 0.94838 1.00802 0.0
H263 H 0.98073 1.01111 0.09412 0.0
H264 H 0.91137 0.97788 0.07671 0.0
H265 H 0.0039 0.95998 0.07875 0.0
H266 H 0.99125 0.90728 0.0359 0.0
H267 H 0.91081 0.84745 0.037 0.0
H268 H 0.90899 0.18822 0.49918 0.0
H269 H 0.98874 0.12792 0.50076 0.0
H270 H 0.81252 0.06035 0.53691 0.0
H271 H 0.73245 0.1205 0.53526 0.0
H272 H 0.02938 0.08428 0.54966 0.0
H273 H 0.87877 0.98419 0.46428 0.0
H274 H 0.86489 0.03926 0.46958 0.0
H275 H 0.8237 1.0061 0.49467 0.0
C276 C 0.88739 0.16055 0.50758 0.0
C277 C 0.81451 0.15895 0.51703 0.0
C278 C 0.93294 0.12613 0.50842 0.0
C279 C 0.90624 0.08943 0.5185 0.0
C280 C 0.83382 0.08807 0.52848 0.0
H281 H 0.09517 0.84817 0.53887 0.0
H282 H 0.01493 0.9084 0.53794 0.0
C283 C 0.78828 0.12249 0.52768 0.0
C284 C 0.95437 0.05273 0.51878 0.0
H285 H 0.97377 0.95267 0.48993 0.0
C286 C 0.01743 0.05554 0.53652 0.0
C287 C 0.93856 1.01526 0.50164 0.0
C288 C 0.87318 1.01093 0.48124 0.0
C289 C 0.06452 0.02166 0.53799 0.0
C290 C 0.0488 0.9842 0.52081 0.0
C291 C 0.98567 0.98139 0.5031 0.0
C292 C 0.09728 0.9476 0.52086 0.0
C293 C 0.12982 0.026 0.55843 0.0
C294 C 0.16979 0.94941 0.51104 0.0
C295 C 0.2156 0.91505 0.51151 0.0
C296 C 0.18957 0.87821 0.52161 0.0
C297 C 0.11662 0.87616 0.5309 0.0
C298 C 0.07081 0.91054 0.53043 0.0
H299 H 0.12369 0.05244 0.57562 0.0
H300 H 0.13868 0.9975 0.56982 0.0
H301 H 0.17919 0.03142 0.54509 0.0
H302 H 0.19093 0.97739 0.50296 0.0
H303 H 0.27147 0.91738 0.50404 0.0
H304 H 0.38047 0.24248 0.35505 0.0
H305 H 0.35328 0.24207 0.30186 0.0
H306 H 0.57704 0.27254 0.28446 0.0
H307 H 0.60539 0.27167 0.33756 0.0
H308 H 0.36802 0.30671 0.2658 0.0
H309 H 0.54014 0.17321 0.2241 0.0
H310 H 0.51732 0.18386 0.26304 0.0
H311 H 0.58707 0.21317 0.24655 0.0
C312 C 0.42422 0.24851 0.33989 0.0
C313 C 0.49522 0.25688 0.35059 0.0
C314 C 0.40845 0.24853 0.30951 0.0
C315 C 0.46331 0.2567 0.28914 0.0
C316 C 0.53414 0.26541 0.2997 0.0
H317 H 0.44714 0.26971 0.09574 0.0
H318 H 0.48734 0.26974 0.14772 0.0
C319 C 0.55002 0.26539 0.33012 0.0
C320 C 0.44538 0.25732 0.25702 0.0
H321 H 0.4815 0.20998 0.18778 0.0
C322 C 0.39279 0.28555 0.24874 0.0
C323 C 0.47816 0.22987 0.23478 0.0
C324 C 0.53339 0.19804 0.24247 0.0
C325 C 0.37201 0.28712 0.21885 0.0
C326 C 0.40366 0.25912 0.19665 0.0
C327 C 0.45724 0.23136 0.20483 0.0
C328 C 0.3802 0.25747 0.16499 0.0
C329 C 0.31693 0.31916 0.21133 0.0
C330 C 0.30713 0.24943 0.15734 0.0
C331 C 0.28405 0.24958 0.12779 0.0
C332 C 0.33364 0.25726 0.10512 0.0
C333 C 0.40746 0.26376 0.11264 0.0
C334 C 0.43052 0.26384 0.14234 0.0
H335 H 0.31494 0.34548 0.22879 0.0
H336 H 0.32951 0.33122 0.18959 0.0
H337 H 0.26191 0.305 0.20985 0.0
H338 H 0.26769 0.24327 0.17428 0.0
H339 H 0.22713 0.24385 0.1228 0.0
H340 H 0.37939 0.79734 0.18129 0.0
H341 H 0.3515 0.79761 0.2344 0.0
H342 H 0.57552 0.76769 0.2524 0.0
H343 H 0.60456 0.76876 0.1994 0.0
H344 H 0.36645 0.73321 0.27053 0.0
H345 H 0.53673 0.86683 0.31258 0.0
H346 H 0.51462 0.85605 0.27359 0.0
H347 H 0.58467 0.827 0.29032 0.0
C348 C 0.42304 0.79141 0.19657 0.0
C349 C 0.49432 0.78326 0.18607 0.0
C350 C 0.40687 0.7913 0.2269 0.0
C351 C 0.46161 0.78325 0.24741 0.0
C352 C 0.5327 0.77474 0.23704 0.0
H353 H 0.44867 0.76858 0.44036 0.0
H354 H 0.48727 0.76907 0.38824 0.0
C355 C 0.54899 0.77486 0.20668 0.0
C356 C 0.4434 0.78258 0.27948 0.0
H357 H 0.47946 0.82944 0.34884 0.0
C358 C 0.39107 0.75428 0.28766 0.0
C359 C 0.47592 0.80996 0.30179 0.0
C360 C 0.53067 0.84195 0.29422 0.0
C361 C 0.37049 0.75246 0.31754 0.0
C362 C 0.40215 0.78027 0.33982 0.0
C363 C 0.45526 0.80819 0.33172 0.0
C364 C 0.37945 0.78144 0.37153 0.0
C365 C 0.31575 0.72034 0.32496 0.0
C366 C 0.30649 0.78931 0.37952 0.0
C367 C 0.2843 0.78891 0.40915 0.0
C368 C 0.33479 0.78107 0.43153 0.0
C369 C 0.40841 0.77464 0.42367 0.0
C370 C 0.43054 0.77486 0.39391 0.0
H371 H 0.3136 0.69423 0.30735 0.0
H372 H 0.3288 0.70798 0.34657 0.0
H373 H 0.26067 0.73455 0.32669 0.0
H374 H 0.26648 0.79558 0.36278 0.0
H375 H 0.22734 0.79455 0.41443 0.0
H376 H 0.55344 0.77427 0.94154 0.0
H377 H 0.51307 0.77547 0.88968 0.0
H378 H 0.73562 0.79151 0.86212 0.0
H379 H 0.77646 0.78969 0.91351 0.0
H380 H 0.52769 0.8347 0.84921 0.0
H381 H 0.67232 0.69107 0.80842 0.0
H382 H 0.65964 0.70631 0.8476 0.0
H383 H 0.73136 0.72884 0.82716 0.0
C384 C 0.59376 0.77816 0.92445 0.0
C385 C 0.66831 0.78146 0.93168 0.0
C386 C 0.57059 0.77882 0.89482 0.0
C387 C 0.62149 0.78268 0.87194 0.0
C388 C 0.69555 0.7874 0.87928 0.0
H389 H 0.62232 0.79738 0.68189 0.0
H390 H 0.64959 0.79699 0.73502 0.0
C391 C 0.71877 0.78658 0.90877 0.0
C392 C 0.59762 0.78184 0.84036 0.0
H393 H 0.62543 0.73192 0.77132 0.0
C394 C 0.54848 0.81203 0.8322 0.0
C395 C 0.62462 0.75211 0.81822 0.0
C396 C 0.67433 0.7175 0.82578 0.0
C397 C 0.52766 0.81417 0.80229 0.0
C398 C 0.55608 0.78502 0.7801 0.0
C399 C 0.6041 0.7544 0.78836 0.0
C400 C 0.53821 0.78618 0.74802 0.0
C401 C 0.47729 0.84835 0.79455 0.0
C402 C 0.46654 0.77993 0.73765 0.0
C403 C 0.45079 0.77988 0.70721 0.0
C404 C 0.50654 0.78587 0.68653 0.0
C405 C 0.57824 0.79214 0.69709 0.0
C406 C 0.59389 0.79216 0.72748 0.0
H407 H 0.47336 0.87334 0.81295 0.0
H408 H 0.49605 0.86183 0.77407 0.0
H409 H 0.42183 0.83563 0.79023 0.0
H410 H 0.42298 0.7744 0.75303 0.0
H411 H 0.39519 0.77428 0.69981 0.0
H412 H 0.77726 0.25179 0.62389 0.0
H413 H 0.73635 0.25053 0.67531 0.0
H414 H 0.51307 0.2623 0.64702 0.0
H415 H 0.5535 0.26305 0.59522 0.0
H416 H 0.66221 0.31076 0.70927 0.0
H417 H 0.50095 0.16601 0.69857 0.0
H418 H 0.56336 0.1796 0.67005 0.0
H419 H 0.47459 0.2031 0.6733 0.0
C420 C 0.71933 0.25383 0.62846 0.0
C421 C 0.66863 0.25748 0.60534 0.0
C422 C 0.69606 0.2531 0.65794 0.0
C423 C 0.6216 0.25581 0.66501 0.0
C424 C 0.57069 0.25928 0.64202 0.0
H425 H 0.3972 0.26652 0.83695 0.0
H426 H 0.42683 0.26794 0.78395 0.0
C427 C 0.59394 0.25991 0.61242 0.0
C428 C 0.59811 0.25668 0.69664 0.0
H429 H 0.49593 0.20584 0.7452 0.0
C430 C 0.62591 0.28778 0.71712 0.0
C431 C 0.55047 0.22678 0.70684 0.0
C432 C 0.52102 0.19175 0.68614 0.0
C433 C 0.6074 0.28985 0.74747 0.0
C434 C 0.56063 0.25966 0.75774 0.0
C435 C 0.5318 0.22893 0.73724 0.0
C436 C 0.54266 0.25886 0.78982 0.0
C437 C 0.63753 0.32462 0.76825 0.0
C438 C 0.59785 0.2528 0.81061 0.0
C439 C 0.58121 0.25213 0.84087 0.0
C440 C 0.5089 0.25734 0.85096 0.0
C441 C 0.45357 0.26301 0.82999 0.0
C442 C 0.4703 0.26356 0.79968 0.0
H443 H 0.65589 0.35084 0.75592 0.0
H444 H 0.59618 0.33606 0.78501 0.0
H445 H 0.68527 0.31325 0.7803 0.0
H446 H 0.65391 0.24846 0.80341 0.0
H447 H 0.62517 0.24801 0.85641 0.0
H448 H 0.72991 0.75299 0.12512 0.0
H449 H 0.77412 0.74949 0.17599 0.0
H450 H 0.99603 0.75481 0.14502 0.0
H451 H 0.95234 0.7584 0.09388 0.0
H452 H 0.87446 0.68924 0.19782 0.0
H453 H 0.97846 0.85021 0.21311 0.0
H454 H 0.91422 0.83346 0.18413 0.0
H455 H 0.00857 0.81923 0.18033 0.0
C456 C 0.78812 0.75334 0.129 0.0
C457 C 0.83749 0.75609 0.10533 0.0
C458 C 0.81329 0.75131 0.15814 0.0
C459 C 0.88827 0.75234 0.16429 0.0
C460 C 0.93788 0.75454 0.14076 0.0
H461 H 0.1135 0.76383 0.33644 0.0
H462 H 0.08646 0.76076 0.28302 0.0
C463 C 0.91275 0.75639 0.11153 0.0
C464 C 0.91411 0.751 0.1954 0.0
H465 H 0.99462 0.80912 0.25315 0.0
C466 C 0.90095 0.71537 0.20993 0.0
C467 C 0.94911 0.78504 0.211 0.0
C468 C 0.96319 0.82435 0.19653 0.0
C469 C 0.92158 0.71289 0.23977 0.0
C470 C 0.95455 0.74742 0.25572 0.0
C471 C 0.96919 0.78273 0.24094 0.0
C472 C 0.97151 0.74814 0.28803 0.0
C473 C 0.90851 0.67314 0.2538 0.0
C474 C 0.91581 0.7425 0.30864 0.0
C475 C 0.93116 0.7438 0.33911 0.0
C476 C 0.00251 0.75129 0.34975 0.0
C477 C 0.05817 0.75736 0.32904 0.0
C478 C 0.04274 0.7559 0.2985 0.0
H479 H 0.90504 0.64647 0.23667 0.0
H480 H 0.95249 0.66706 0.26982 0.0
H481 H 0.85593 0.67529 0.26603 0.0
H482 H 0.86015 0.7374 0.30118 0.0
H483 H 0.88707 0.73856 0.35431 0.0
H484 H 0.72871 0.28607 0.41204 0.0
H485 H 0.77156 0.28934 0.361 0.0
H486 H 0.99396 0.27908 0.39065 0.0
H487 H 0.95154 0.27558 0.44196 0.0
H488 H 0.87199 0.34731 0.33866 0.0
H489 H 0.97172 0.18533 0.32235 0.0
H490 H 0.90992 0.20282 0.35205 0.0
H491 H 0.00493 0.21573 0.35482 0.0
C492 C 0.78674 0.28455 0.40783 0.0
C493 C 0.83659 0.2804 0.43117 0.0
C494 C 0.81115 0.28647 0.3786 0.0
C495 C 0.88584 0.28397 0.372 0.0
C496 C 0.93598 0.28044 0.39522 0.0
H497 H 0.10734 0.27411 0.19917 0.0
H498 H 0.08087 0.27572 0.25263 0.0
C499 C 0.9116 0.27866 0.42456 0.0
C500 C 0.91076 0.28519 0.34077 0.0
H501 H 0.98856 0.22665 0.28247 0.0
C502 C 0.89767 0.321 0.32636 0.0
C503 C 0.94463 0.25089 0.32489 0.0
C504 C 0.95834 0.21133 0.33913 0.0
C505 C 0.91732 0.3234 0.29642 0.0
C506 C 0.94933 0.28869 0.28025 0.0
C507 C 0.96386 0.25318 0.29487 0.0
C508 C 0.96562 0.28806 0.2479 0.0
C509 C 0.90424 0.36326 0.28248 0.0
C510 C 0.90947 0.29381 0.22746 0.0
C511 C 0.92436 0.29286 0.19696 0.0
C512 C 0.99566 0.28571 0.18621 0.0
C513 C 0.05172 0.27936 0.2067 0.0
C514 C 0.03677 0.28045 0.23726 0.0
H515 H 0.9007 0.38989 0.29964 0.0
H516 H 0.94828 0.36928 0.26651 0.0
H517 H 0.85174 0.36126 0.27017 0.0
H518 H 0.85382 0.2986 0.23506 0.0
H519 H 0.87974 0.29709 0.18174 0.0
H520 H 0.11789 0.29038 0.68227 0.0
H521 H 0.14333 0.29061 0.73547 0.0
H522 H 0.91279 0.28588 0.75372 0.0
H523 H 0.88683 0.28336 0.70031 0.0
H524 H 0.1041 0.34596 0.78113 0.0
H525 H 0.98788 0.19257 0.79879 0.0
H526 H 0.00346 0.209 0.76208 0.0
H527 H 0.92502 0.22726 0.78332 0.0
C528 C 0.0725 0.28863 0.69748 0.0
C529 C 1.00029 0.28646 0.68685 0.0
C530 C 0.08717 0.28917 0.72796 0.0
C531 C 0.03009 0.28762 0.74859 0.0
C532 C 0.95784 0.2862 0.7382 0.0
H533 H 0.04954 0.28561 0.94324 0.0
H534 H 0.00651 0.29043 0.89209 0.0
C535 C 0.94308 0.28535 0.70763 0.0
C536 C 0.04683 0.28825 0.78092 0.0
H537 H 0.03059 0.2327 0.84158 0.0
C538 C 0.08791 0.3212 0.79434 0.0
C539 C 0.02538 0.25603 0.79821 0.0
C540 C 0.98356 0.21901 0.78487 0.0
C541 C 0.1087 0.32266 0.82443 0.0
C542 C 0.08853 0.29008 0.84151 0.0
C543 C 0.04588 0.25764 0.82839 0.0
C544 C 0.11436 0.28806 0.87257 0.0
C545 C 0.15202 0.35912 0.83772 0.0
C546 C 0.18914 0.28466 0.87845 0.0
C547 C 0.21386 0.28182 0.90755 0.0
C548 C 0.16432 0.28219 0.93143 0.0
C549 C 0.08926 0.2854 0.92543 0.0
C550 C 0.06453 0.28813 0.89623 0.0
H551 H 0.14584 0.38621 0.82453 0.0
H552 H 0.13498 0.36811 0.86106 0.0
H553 H 0.2107 0.35071 0.83787 0.0
H554 H 0.22846 0.28367 0.86045 0.0
H555 H 0.27185 0.2789 0.9112 0.0
H556 H 0.05293 0.75086 0.59363 0.0
H557 H 0.01042 0.74731 0.64488 0.0
H558 H 0.23224 0.75794 0.67656 0.0
H559 H 0.27527 0.76002 0.62553 0.0
H560 H 0.15959 0.6995 0.70278 0.0
H561 H 0.99362 0.84272 0.70825 0.0
H562 H 0.9681 0.80517 0.6785 0.0
H563 H 0.05658 0.82887 0.67823 0.0
C564 C 0.09268 0.7524 0.6115 0.0
C565 C 0.16751 0.75614 0.60544 0.0
C566 C 0.06821 0.75068 0.64082 0.0
C567 C 0.11798 0.75323 0.66465 0.0
C568 C 0.19273 0.75618 0.65857 0.0
H569 H 0.041 0.81407 0.8527 0.0
H570 H 0.07026 0.81315 0.79959 0.0
C571 C 0.21725 0.75752 0.62932 0.0
C572 C 0.09286 0.75235 0.69596 0.0
H573 H 0.98621 0.80285 0.74971 0.0
C574 C 0.1216 0.72207 0.71304 0.0
C575 C 0.04398 0.78214 0.70942 0.0
C576 C 0.01425 0.81682 0.69279 0.0
C577 C 0.10312 0.7208 0.74321 0.0
C578 C 0.053 0.75002 0.7565 0.0
C579 C 0.02408 0.78025 0.73941 0.0
C580 C 0.03229 0.7508 0.78843 0.0
C581 C 0.13935 0.68899 0.76076 0.0
C582 C 0.99987 0.71636 0.79971 0.0
C583 C 0.98357 0.71674 0.83008 0.0
C584 C 0.99837 0.75179 0.84966 0.0
C585 C 0.02865 0.7867 0.83814 0.0
C586 C 0.04552 0.78617 0.80782 0.0
H587 H 0.18989 0.67652 0.7497 0.0
H588 H 0.1534 0.70217 0.78364 0.0
H589 H 0.10136 0.66286 0.7626 0.0
H590 H 0.98735 0.68914 0.78504 0.0
H591 H 0.95899 0.68967 0.83823 0.0
loop_
_geom_bond_atom_site_label_1
_geom_bond_atom_site_label_2
_geom_bond_distance
_geom_bond_site_symmetry_2
_ccdc_geom_bond_type
Tb0 C2 2.809 . S
Tb0 O20 2.484 . S
Tb0 O21 2.440 . S
Tb0 O22 2.658 1_554 S
Tb0 O23 2.409 . S
Tb0 O24 2.378 . S
Tb0 O28 2.325 . S
Tb0 O31 2.341 1_554 S
Tb1 C11 2.809 . S
Tb1 O22 2.325 . S
Tb1 O25 2.341 1_556 S
Tb1 O26 2.484 . S
Tb1 O27 2.440 . S
Tb1 O28 2.658 1_556 S
Tb1 O29 2.409 . S
Tb1 O30 2.378 . S
C2 Tb0 2.809 . S
C2 C3 1.514 . S
C2 O20 1.248 . S
C2 O21 1.266 . S
C3 C2 1.514 . S
C3 C4 1.359 . S
C3 C8 1.348 . S
C4 C3 1.359 . S
C4 C5 1.380 . S
C4 H32 0.929 . S
C5 C4 1.380 . S
C5 C6 1.347 . S
C5 H33 0.931 . S
C6 C5 1.347 . S
C6 C7 1.369 . S
C7 C6 1.369 . S
C7 C8 1.408 . S
C7 H34 0.930 . S
C8 C3 1.348 . S
C8 C7 1.408 . S
C8 H35 0.930 . S
C9 O22 1.281 1_554 S
C9 O23 1.254 . S
C10 O24 1.236 . S
C10 O25 1.266 . S
C11 Tb1 2.809 . S
C11 C12 1.514 . S
C11 O26 1.248 . S
C11 O27 1.266 . S
C12 C11 1.514 . S
C12 C13 1.359 . S
C12 C17 1.348 . S
C13 C12 1.359 . S
C13 C14 1.380 . S
C13 H36 0.929 . S
C14 C13 1.380 . S
C14 C15 1.347 . S
C14 H37 0.931 . S
C15 C14 1.347 . S
C15 C16 1.369 . S
C16 C15 1.369 . S
C16 C17 1.408 . S
C16 H38 0.930 . S
C17 C12 1.348 . S
C17 C16 1.408 . S
C17 H39 0.930 . S
C18 O28 1.281 . S
C18 O29 1.254 1_554 S
C19 O30 1.236 . S
C19 O31 1.266 . S
O20 Tb0 2.484 . S
O20 C2 1.248 . S
O21 Tb0 2.440 . S
O21 C2 1.266 . S
O22 Tb0 2.658 1_556 S
O22 Tb1 2.325 . S
O22 C9 1.281 1_556 S
O23 Tb0 2.409 . S
O23 C9 1.254 . S
O24 Tb0 2.378 . S
O24 C10 1.236 . S
O25 Tb1 2.341 1_554 S
O25 C10 1.266 . S
O26 Tb1 2.484 . S
O26 C11 1.248 . S
O27 Tb1 2.440 . S
O27 C11 1.266 . S
O28 Tb0 2.325 . S
O28 Tb1 2.658 1_554 S
O28 C18 1.281 . S
O29 Tb1 2.409 . S
O29 C18 1.254 1_556 S
O30 Tb1 2.378 . S
O30 C19 1.236 . S
O31 Tb0 2.341 1_556 S
O31 C19 1.266 . S
H32 C4 0.929 . S
H33 C5 0.931 . S
H34 C7 0.930 . S
H35 C8 0.930 . S
H36 C13 0.929 . S
H37 C14 0.931 . S
H38 C16 0.930 . S
H39 C17 0.930 . S
Tb40 C42 2.809 . S
Tb40 O60 2.484 . S
Tb40 O61 2.440 . S
Tb40 O62 2.658 1_554 S
Tb40 O63 2.409 . S
Tb40 O64 2.378 . S
Tb40 O68 2.325 . S
Tb40 O71 2.341 1_554 S
Tb41 C51 2.809 . S
Tb41 O62 2.325 . S
Tb41 O65 2.341 1_556 S
Tb41 O66 2.484 . S
Tb41 O67 2.440 . S
Tb41 O68 2.658 1_556 S
Tb41 O69 2.409 . S
Tb41 O70 2.378 . S
C42 Tb40 2.809 . S
C42 C43 1.514 . S
C42 O60 1.248 . S
C42 O61 1.266 . S
C43 C42 1.514 . S
C43 C44 1.359 . S
C43 C48 1.348 . S
C44 C43 1.359 . S
C44 C45 1.380 . S
C44 H72 0.929 . S
C45 C44 1.380 . S
C45 C46 1.347 . S
C45 H73 0.931 . S
C46 C45 1.347 . S
C46 C47 1.369 . S
C47 C46 1.369 . S
C47 C48 1.408 . S
C47 H74 0.930 . S
C48 C43 1.348 . S
C48 C47 1.408 . S
C48 H75 0.930 . S
C49 O62 1.281 1_554 S
C49 O63 1.254 . S
C50 O64 1.236 . S
C50 O65 1.266 . S
C51 Tb41 2.809 . S
C51 C52 1.514 . S
C51 O66 1.248 . S
C51 O67 1.266 . S
C52 C51 1.514 . S
C52 C53 1.359 . S
C52 C57 1.348 . S
C53 C52 1.359 . S
C53 C54 1.380 . S
C53 H76 0.929 . S
C54 C53 1.380 . S
C54 C55 1.347 . S
C54 H77 0.931 . S
C55 C54 1.347 . S
C55 C56 1.369 . S
C56 C55 1.369 . S
C56 C57 1.408 . S
C56 H78 0.930 . S
C57 C52 1.348 . S
C57 C56 1.408 . S
C57 H79 0.930 . S
C58 O68 1.281 . S
C58 O69 1.254 1_554 S
C59 O70 1.236 . S
C59 O71 1.266 . S
O60 Tb40 2.484 . S
O60 C42 1.248 . S
O61 Tb40 2.440 . S
O61 C42 1.266 . S
O62 Tb40 2.658 1_556 S
O62 Tb41 2.325 . S
O62 C49 1.281 1_556 S
O63 Tb40 2.409 . S
O63 C49 1.254 . S
O64 Tb40 2.378 . S
O64 C50 1.236 . S
O65 Tb41 2.341 1_554 S
O65 C50 1.266 . S
O66 Tb41 2.484 . S
O66 C51 1.248 . S
O67 Tb41 2.440 . S
O67 C51 1.266 . S
O68 Tb40 2.325 . S
O68 Tb41 2.658 1_554 S
O68 C58 1.281 . S
O69 Tb41 2.409 . S
O69 C58 1.254 1_556 S
O70 Tb41 2.378 . S
O70 C59 1.236 . S
O71 Tb40 2.341 1_556 S
O71 C59 1.266 . S
H72 C44 0.929 . S
H73 C45 0.931 . S
H74 C47 0.930 . S
H75 C48 0.930 . S
H76 C53 0.929 . S
H77 C54 0.931 . S
H78 C56 0.930 . S
H79 C57 0.930 . S
Tb80 C82 2.809 . S
Tb80 O100 2.484 . S
Tb80 O101 2.440 . S
Tb80 O102 2.658 . S
Tb80 O103 2.409 . S
Tb80 O104 2.378 . S
Tb80 O108 2.325 . S
Tb80 O111 2.341 . S
Tb81 C91 2.809 . S
Tb81 O102 2.325 . S
Tb81 O105 2.341 . S
Tb81 O106 2.484 . S
Tb81 O107 2.440 . S
Tb81 O108 2.658 . S
Tb81 O109 2.409 . S
Tb81 O110 2.378 . S
C82 Tb80 2.809 . S
C82 C83 1.514 . S
C82 O100 1.248 . S
C82 O101 1.266 . S
C83 C82 1.514 . S
C83 C84 1.359 . S
C83 C88 1.348 . S
C84 C83 1.359 . S
C84 C85 1.380 . S
C84 H112 0.929 . S
C85 C84 1.380 . S
C85 C86 1.347 . S
C85 H113 0.931 . S
C86 C85 1.347 . S
C86 C87 1.369 . S
C87 C86 1.369 . S
C87 C88 1.408 . S
C87 H114 0.930 . S
C88 C83 1.348 . S
C88 C87 1.408 . S
C88 H115 0.930 . S
C89 O102 1.281 . S
C89 O103 1.254 . S
C90 O104 1.236 . S
C90 O105 1.266 . S
C91 Tb81 2.809 . S
C91 C92 1.514 . S
C91 O106 1.248 . S
C91 O107 1.266 . S
C92 C91 1.514 . S
C92 C93 1.359 . S
C92 C97 1.348 . S
C93 C92 1.359 . S
C93 C94 1.380 . S
C93 H116 0.929 . S
C94 C93 1.380 . S
C94 C95 1.347 . S
C94 H117 0.931 . S
C95 C94 1.347 . S
C95 C96 1.369 . S
C96 C95 1.369 . S
C96 C97 1.408 . S
C96 H118 0.930 . S
C97 C92 1.348 . S
C97 C96 1.408 . S
C97 H119 0.930 . S
C98 O108 1.281 . S
C98 O109 1.254 . S
C99 O110 1.236 . S
C99 O111 1.266 . S
O100 Tb80 2.484 . S
O100 C82 1.248 . S
O101 Tb80 2.440 . S
O101 C82 1.266 . S
O102 Tb80 2.658 . S
O102 Tb81 2.325 . S
O102 C89 1.281 . S
O103 Tb80 2.409 . S
O103 C89 1.254 . S
O104 Tb80 2.378 . S
O104 C90 1.236 . S
O105 Tb81 2.341 . S
O105 C90 1.266 . S
O106 Tb81 2.484 . S
O106 C91 1.248 . S
O107 Tb81 2.440 . S
O107 C91 1.266 . S
O108 Tb80 2.325 . S
O108 Tb81 2.658 . S
O108 C98 1.281 . S
O109 Tb81 2.409 . S
O109 C98 1.254 . S
O110 Tb81 2.378 . S
O110 C99 1.236 . S
O111 Tb80 2.341 . S
O111 C99 1.266 . S
H112 C84 0.929 . S
H113 C85 0.931 . S
H114 C87 0.930 . S
H115 C88 0.930 . S
H116 C93 0.929 . S
H117 C94 0.931 . S
H118 C96 0.930 . S
H119 C97 0.930 . S
Tb120 C122 2.809 . S
Tb120 O140 2.484 . S
Tb120 O141 2.440 . S
Tb120 O142 2.658 . S
Tb120 O143 2.409 . S
Tb120 O144 2.378 . S
Tb120 O148 2.325 . S
Tb120 O151 2.341 . S
Tb121 C131 2.809 . S
Tb121 O142 2.325 . S
Tb121 O145 2.341 . S
Tb121 O146 2.484 . S
Tb121 O147 2.440 . S
Tb121 O148 2.658 . S
Tb121 O149 2.409 . S
Tb121 O150 2.378 . S
C122 Tb120 2.809 . S
C122 C123 1.514 . S
C122 O140 1.248 . S
C122 O141 1.266 . S
C123 C122 1.514 . S
C123 C124 1.359 . S
C123 C128 1.348 . S
C124 C123 1.359 . S
C124 C125 1.380 . S
C124 H152 0.929 . S
C125 C124 1.380 . S
C125 C126 1.347 . S
C125 H153 0.931 . S
C126 C125 1.347 . S
C126 C127 1.369 . S
C127 C126 1.369 . S
C127 C128 1.408 . S
C127 H154 0.930 . S
C128 C123 1.348 . S
C128 C127 1.408 . S
C128 H155 0.930 . S
C129 O142 1.281 . S
C129 O143 1.254 . S
C130 O144 1.236 . S
C130 O145 1.266 . S
C131 Tb121 2.809 . S
C131 C132 1.514 . S
C131 O146 1.248 . S
C131 O147 1.266 . S
C132 C131 1.514 . S
C132 C133 1.359 . S
C132 C137 1.348 . S
C133 C132 1.359 . S
C133 C134 1.380 . S
C133 H156 0.929 . S
C134 C133 1.380 . S
C134 C135 1.347 . S
C134 H157 0.931 . S
C135 C134 1.347 . S
C135 C136 1.369 . S
C136 C135 1.369 . S
C136 C137 1.408 . S
C136 H158 0.930 . S
C137 C132 1.348 . S
C137 C136 1.408 . S
C137 H159 0.930 . S
C138 O148 1.281 . S
C138 O149 1.254 . S
C139 O150 1.236 . S
C139 O151 1.266 . S
O140 Tb120 2.484 . S
O140 C122 1.248 . S
O141 Tb120 2.440 . S
O141 C122 1.266 . S
O142 Tb120 2.658 . S
O142 Tb121 2.325 . S
O142 C129 1.281 . S
O143 Tb120 2.409 . S
O143 C129 1.254 . S
O144 Tb120 2.378 . S
O144 C130 1.236 . S
O145 Tb121 2.341 . S
O145 C130 1.266 . S
O146 Tb121 2.484 . S
O146 C131 1.248 . S
O147 Tb121 2.440 . S
O147 C131 1.266 . S
O148 Tb120 2.325 . S
O148 Tb121 2.658 . S
O148 C138 1.281 . S
O149 Tb121 2.409 . S
O149 C138 1.254 . S
O150 Tb121 2.378 . S
O150 C139 1.236 . S
O151 Tb120 2.341 . S
O151 C139 1.266 . S
H152 C124 0.929 . S
H153 C125 0.931 . S
H154 C127 0.930 . S
H155 C128 0.930 . S
H156 C133 0.929 . S
H157 C134 0.931 . S
H158 C136 0.930 . S
H159 C137 0.930 . S
H160 C168 0.929 . S
H161 C170 0.930 . S
H162 C172 0.930 . S
H163 C175 0.929 . S
H164 C178 0.930 . S
H165 C180 0.960 . S
H166 C180 0.960 1_556 S
H167 C180 0.960 . S
C168 H160 0.929 . S
C168 C169 1.377 1_556 S
C168 C170 1.384 . S
C169 C168 1.377 1_554 S
C169 C175 1.390 . S
C170 H161 0.930 . S
C170 C168 1.384 . S
C170 C171 1.372 1_556 S
C171 C170 1.372 1_554 S
C171 C172 1.400 . S
C171 C176 1.490 . S
C172 H162 0.930 . S
C172 C171 1.400 . S
C172 C175 1.386 . S
H173 C189 0.930 . S
H174 C190 0.931 . S
C175 H163 0.929 . S
C175 C169 1.390 . S
C175 C172 1.386 . S
C176 C171 1.490 . S
C176 C178 1.395 1_554 S
C176 C179 1.403 . S
H177 C183 0.930 . S
C178 H164 0.930 . S
C178 C176 1.395 1_556 S
C178 C181 1.403 . S
C179 C176 1.403 . S
C179 C180 1.524 . S
C179 C183 1.400 . S
C180 H165 0.960 . S
C180 H166 0.960 1_554 S
C180 H167 0.960 . S
C180 C179 1.524 . S
C181 C178 1.403 . S
C181 C182 1.392 1_556 S
C181 C185 1.495 . S
C182 C181 1.392 1_554 S
C182 C183 1.385 . S
C182 C184 1.478 . S
C183 H177 0.930 . S
C183 C179 1.400 . S
C183 C182 1.385 . S
C184 C182 1.478 . S
C184 C186 1.381 1_554 S
C184 C190 1.383 . S
C185 C181 1.495 . S
C185 H191 0.959 . S
C185 H192 0.961 1_556 S
C185 H193 0.960 . S
C186 C184 1.381 1_556 S
C186 C187 1.394 . S
C186 H194 0.930 . S
C187 C186 1.394 . S
C187 C188 1.383 1_556 S
C187 H195 0.929 . S
C188 C187 1.383 1_554 S
C188 C189 1.377 . S
C189 H173 0.930 . S
C189 C188 1.377 . S
C189 C190 1.379 . S
C190 H174 0.931 . S
C190 C184 1.383 . S
C190 C189 1.379 . S
H191 C185 0.959 . S
H192 C185 0.961 1_554 S
H193 C185 0.960 . S
H194 C186 0.930 . S
H195 C187 0.929 . S
H196 C204 0.929 . S
H197 C206 0.930 . S
H198 C208 0.930 . S
H199 C211 0.929 . S
H200 C214 0.930 . S
H201 C216 0.960 . S
H202 C216 0.960 . S
H203 C216 0.960 . S
C204 H196 0.929 . S
C204 C205 1.377 . S
C204 C206 1.384 . S
C205 C204 1.377 . S
C205 C211 1.390 . S
C206 H197 0.930 . S
C206 C204 1.384 . S
C206 C207 1.372 . S
C207 C206 1.372 . S
C207 C208 1.400 . S
C207 C212 1.490 . S
C208 H198 0.930 . S
C208 C207 1.400 . S
C208 C211 1.386 . S
H209 C225 0.930 . S
H210 C226 0.931 . S
C211 H199 0.929 . S
C211 C205 1.390 . S
C211 C208 1.386 . S
C212 C207 1.490 . S
C212 C214 1.395 . S
C212 C215 1.403 . S
H213 C219 0.930 . S
C214 H200 0.930 . S
C214 C212 1.395 . S
C214 C217 1.403 . S
C215 C212 1.403 . S
C215 C216 1.524 . S
C215 C219 1.400 . S
C216 H201 0.960 . S
C216 H202 0.960 . S
C216 H203 0.960 . S
C216 C215 1.524 . S
C217 C214 1.403 . S
C217 C218 1.392 . S
C217 C221 1.495 . S
C218 C217 1.392 . S
C218 C219 1.385 . S
C218 C220 1.478 . S
C219 H213 0.930 . S
C219 C215 1.400 . S
C219 C218 1.385 . S
C220 C218 1.478 . S
C220 C222 1.381 . S
C220 C226 1.383 . S
C221 C217 1.495 . S
C221 H227 0.959 . S
C221 H228 0.961 . S
C221 H229 0.960 . S
C222 C220 1.381 . S
C222 C223 1.394 . S
C222 H230 0.930 . S
C223 C222 1.394 . S
C223 C224 1.383 . S
C223 H231 0.929 . S
C224 C223 1.383 . S
C224 C225 1.377 . S
C225 H209 0.930 . S
C225 C224 1.377 . S
C225 C226 1.379 . S
C226 H210 0.931 . S
C226 C220 1.383 . S
C226 C225 1.379 . S
H227 C221 0.959 . S
H228 C221 0.961 . S
H229 C221 0.960 . S
H230 C222 0.930 . S
H231 C223 0.929 . S
H232 C240 0.929 . S
H233 C242 0.930 . S
H234 C244 0.930 . S
H235 C247 0.929 . S
H236 C250 0.930 . S
H237 C252 0.960 . S
H238 C252 0.960 1_556 S
H239 C252 0.960 . S
C240 H232 0.929 . S
C240 C241 1.377 1_556 S
C240 C242 1.384 . S
C241 C240 1.377 1_554 S
C241 C247 1.390 . S
C242 H233 0.930 . S
C242 C240 1.384 . S
C242 C243 1.372 1_556 S
C243 C242 1.372 1_554 S
C243 C244 1.400 . S
C243 C248 1.490 . S
C244 H234 0.930 . S
C244 C243 1.400 . S
C244 C247 1.386 . S
H245 C261 0.930 . S
H246 C262 0.931 . S
C247 H235 0.929 . S
C247 C241 1.390 . S
C247 C244 1.386 . S
C248 C243 1.490 . S
C248 C250 1.395 1_544 S
C248 C251 1.403 1_455 S
H249 C255 0.930 . S
C250 H236 0.930 . S
C250 C248 1.395 1_566 S
C250 C253 1.403 . S
C251 C248 1.403 1_655 S
C251 C252 1.524 . S
C251 C255 1.400 1_545 S
C252 H237 0.960 . S
C252 H238 0.960 1_554 S
C252 H239 0.960 . S
C252 C251 1.524 . S
C253 C250 1.403 . S
C253 C254 1.392 1_456 S
C253 C257 1.495 . S
C254 C253 1.392 1_654 S
C254 C255 1.385 . S
C254 C256 1.478 . S
C255 H249 0.930 . S
C255 C251 1.400 1_565 S
C255 C254 1.385 . S
C256 C254 1.478 . S
C256 C258 1.381 1_554 S
C256 C262 1.383 . S
C257 C253 1.495 . S
C257 H263 0.959 . S
C257 H264 0.961 1_556 S
C257 H265 0.960 . S
C258 C256 1.381 1_556 S
C258 C259 1.394 . S
C258 H266 0.930 . S
C259 C258 1.394 . S
C259 C260 1.383 1_556 S
C259 H267 0.929 . S
C260 C259 1.383 1_554 S
C260 C261 1.377 . S
C261 H245 0.930 . S
C261 C260 1.377 . S
C261 C262 1.379 . S
C262 H246 0.931 . S
C262 C256 1.383 . S
C262 C261 1.379 . S
H263 C257 0.959 . S
H264 C257 0.961 1_554 S
H265 C257 0.960 . S
H266 C258 0.930 . S
H267 C259 0.929 . S
H268 C276 0.929 . S
H269 C278 0.930 . S
H270 C280 0.930 . S
H271 C283 0.929 . S
H272 C286 0.930 . S
H273 C288 0.960 . S
H274 C288 0.960 1_545 S
H275 C288 0.960 1_545 S
C276 H268 0.929 . S
C276 C277 1.377 . S
C276 C278 1.384 . S
C277 C276 1.377 . S
C277 C283 1.390 . S
C278 H269 0.930 . S
C278 C276 1.384 . S
C278 C279 1.372 . S
C279 C278 1.372 . S
C279 C280 1.400 . S
C279 C284 1.490 . S
C280 H270 0.930 . S
C280 C279 1.400 . S
C280 C283 1.386 . S
H281 C297 0.930 . S
H282 C298 0.931 . S
C283 H271 0.929 . S
C283 C277 1.390 . S
C283 C280 1.386 . S
C284 C279 1.490 . S
C284 C286 1.395 1_655 S
C284 C287 1.409 . S
H285 C291 0.930 . S
C286 H272 0.930 . S
C286 C284 1.395 1_455 S
C286 C289 1.403 . S
C287 C284 1.409 . S
C287 C288 1.523 1_545 S
C287 C291 1.394 1_545 S
C288 H273 0.960 . S
C288 H274 0.960 1_565 S
C288 H275 0.960 1_565 S
C288 C287 1.523 1_565 S
C289 C286 1.403 . S
C289 C290 1.392 1_545 S
C289 C293 1.495 . S
C290 C289 1.392 1_565 S
C290 C291 1.385 1_455 S
C290 C292 1.478 . S
C291 H285 0.930 . S
C291 C287 1.394 1_565 S
C291 C290 1.385 1_655 S
C292 C290 1.478 . S
C292 C294 1.381 . S
C292 C298 1.383 . S
C293 C289 1.495 . S
C293 H299 0.959 . S
C293 H300 0.955 1_545 S
C293 H301 0.960 1_545 S
C294 C292 1.381 . S
C294 C295 1.394 . S
C294 H302 0.930 . S
C295 C294 1.394 . S
C295 C296 1.383 . S
C295 H303 0.929 . S
C296 C295 1.383 . S
C296 C297 1.377 . S
C297 H281 0.930 . S
C297 C296 1.377 . S
C297 C298 1.379 . S
C298 H282 0.931 . S
C298 C292 1.383 . S
C298 C297 1.379 . S
H299 C293 0.959 . S
H300 C293 0.955 1_565 S
H301 C293 0.960 1_565 S
H302 C294 0.930 . S
H303 C295 0.929 . S
H304 C312 0.929 . S
H305 C314 0.930 . S
H306 C316 0.930 . S
H307 C319 0.929 . S
H308 C322 0.930 . S
H309 C324 0.960 . S
H310 C324 0.960 . S
H311 C324 0.960 . S
C312 H304 0.929 . S
C312 C313 1.377 . S
C312 C314 1.384 . S
C313 C312 1.377 . S
C313 C319 1.390 . S
C314 H305 0.930 . S
C314 C312 1.384 . S
C314 C315 1.372 . S
C315 C314 1.372 . S
C315 C316 1.400 . S
C315 C320 1.490 . S
C316 H306 0.930 . S
C316 C315 1.400 . S
C316 C319 1.386 . S
H317 C333 0.930 . S
H318 C334 0.931 . S
C319 H307 0.929 . S
C319 C313 1.390 . S
C319 C316 1.386 . S
C320 C315 1.490 . S
C320 C322 1.395 . S
C320 C323 1.403 . S
H321 C327 0.930 . S
C322 H308 0.930 . S
C322 C320 1.395 . S
C322 C325 1.403 . S
C323 C320 1.403 . S
C323 C324 1.524 . S
C323 C327 1.400 . S
C324 H309 0.960 . S
C324 H310 0.960 . S
C324 H311 0.960 . S
C324 C323 1.524 . S
C325 C322 1.403 . S
C325 C326 1.392 . S
C325 C329 1.495 . S
C326 C325 1.392 . S
C326 C327 1.385 . S
C326 C328 1.478 . S
C327 H321 0.930 . S
C327 C323 1.400 . S
C327 C326 1.385 . S
C328 C326 1.478 . S
C328 C330 1.381 . S
C328 C334 1.383 . S
C329 C325 1.495 . S
C329 H335 0.959 . S
C329 H336 0.961 . S
C329 H337 0.960 . S
C330 C328 1.381 . S
C330 C331 1.394 . S
C330 H338 0.930 . S
C331 C330 1.394 . S
C331 C332 1.383 . S
C331 H339 0.929 . S
C332 C331 1.383 . S
C332 C333 1.377 . S
C333 H317 0.930 . S
C333 C332 1.377 . S
C333 C334 1.379 . S
C334 H318 0.931 . S
C334 C328 1.383 . S
C334 C333 1.379 . S
H335 C329 0.959 . S
H336 C329 0.961 . S
H337 C329 0.960 . S
H338 C330 0.930 . S
H339 C331 0.929 . S
H340 C348 0.929 . S
H341 C350 0.930 . S
H342 C352 0.930 . S
H343 C355 0.929 . S
H344 C358 0.930 . S
H345 C360 0.960 . S
H346 C360 0.960 . S
H347 C360 0.960 . S
C348 H340 0.929 . S
C348 C349 1.377 . S
C348 C350 1.384 . S
C349 C348 1.377 . S
C349 C355 1.390 . S
C350 H341 0.930 . S
C350 C348 1.384 . S
C350 C351 1.372 . S
C351 C350 1.372 . S
C351 C352 1.400 . S
C351 C356 1.490 . S
C352 H342 0.930 . S
C352 C351 1.400 . S
C352 C355 1.386 . S
H353 C369 0.930 . S
H354 C370 0.931 . S
C355 H343 0.929 . S
C355 C349 1.390 . S
C355 C352 1.386 . S
C356 C351 1.490 . S
C356 C358 1.395 . S
C356 C359 1.403 . S
H357 C363 0.930 . S
C358 H344 0.930 . S
C358 C356 1.395 . S
C358 C361 1.403 . S
C359 C356 1.403 . S
C359 C360 1.524 . S
C359 C363 1.400 . S
C360 H345 0.960 . S
C360 H346 0.960 . S
C360 H347 0.960 . S
C360 C359 1.524 . S
C361 C358 1.403 . S
C361 C362 1.392 . S
C361 C365 1.495 . S
C362 C361 1.392 . S
C362 C363 1.385 . S
C362 C364 1.478 . S
C363 H357 0.930 . S
C363 C359 1.400 . S
C363 C362 1.385 . S
C364 C362 1.478 . S
C364 C366 1.381 . S
C364 C370 1.383 . S
C365 C361 1.495 . S
C365 H371 0.959 . S
C365 H372 0.961 . S
C365 H373 0.960 . S
C366 C364 1.381 . S
C366 C367 1.394 . S
C366 H374 0.930 . S
C367 C366 1.394 . S
C367 C368 1.383 . S
C367 H375 0.929 . S
C368 C367 1.383 . S
C368 C369 1.377 . S
C369 H353 0.930 . S
C369 C368 1.377 . S
C369 C370 1.379 . S
C370 H354 0.931 . S
C370 C364 1.383 . S
C370 C369 1.379 . S
H371 C365 0.959 . S
H372 C365 0.961 . S
H373 C365 0.960 . S
H374 C366 0.930 . S
H375 C367 0.929 . S
H376 C384 0.929 . S
H377 C386 0.930 . S
H378 C388 0.930 . S
H379 C391 0.929 . S
H380 C394 0.930 . S
H381 C396 0.960 . S
H382 C396 0.960 . S
H383 C396 0.960 . S
C384 H376 0.929 . S
C384 C385 1.377 . S
C384 C386 1.384 . S
C385 C384 1.377 . S
C385 C391 1.390 . S
C386 H377 0.930 . S
C386 C384 1.384 . S
C386 C387 1.372 . S
C387 C386 1.372 . S
C387 C388 1.400 . S
C387 C392 1.490 . S
C388 H378 0.930 . S
C388 C387 1.400 . S
C388 C391 1.386 . S
H389 C405 0.930 . S
H390 C406 0.931 . S
C391 H379 0.929 . S
C391 C385 1.390 . S
C391 C388 1.386 . S
C392 C387 1.490 . S
C392 C394 1.395 . S
C392 C395 1.403 . S
H393 C399 0.930 . S
C394 H380 0.930 . S
C394 C392 1.395 . S
C394 C397 1.403 . S
C395 C392 1.403 . S
C395 C396 1.524 . S
C395 C399 1.400 . S
C396 H381 0.960 . S
C396 H382 0.960 . S
C396 H383 0.960 . S
C396 C395 1.524 . S
C397 C394 1.403 . S
C397 C398 1.392 . S
C397 C401 1.495 . S
C398 C397 1.392 . S
C398 C399 1.385 . S
C398 C400 1.478 . S
C399 H393 0.930 . S
C399 C395 1.400 . S
C399 C398 1.385 . S
C400 C398 1.478 . S
C400 C402 1.381 . S
C400 C406 1.383 . S
C401 C397 1.495 . S
C401 H407 0.959 . S
C401 H408 0.961 . S
C401 H409 0.960 . S
C402 C400 1.381 . S
C402 C403 1.394 . S
C402 H410 0.930 . S
C403 C402 1.394 . S
C403 C404 1.383 . S
C403 H411 0.929 . S
C404 C403 1.383 . S
C404 C405 1.377 . S
C405 H389 0.930 . S
C405 C404 1.377 . S
C405 C406 1.379 . S
C406 H390 0.931 . S
C406 C400 1.383 . S
C406 C405 1.379 . S
H407 C401 0.959 . S
H408 C401 0.961 . S
H409 C401 0.960 . S
H410 C402 0.930 . S
H411 C403 0.929 . S
H412 C420 0.929 . S
H413 C422 0.930 . S
H414 C424 0.930 . S
H415 C427 0.929 . S
H416 C430 0.930 . S
H417 C432 0.960 . S
H418 C432 0.960 . S
H419 C432 0.960 . S
C420 H412 0.929 . S
C420 C421 1.377 . S
C420 C422 1.384 . S
C421 C420 1.377 . S
C421 C427 1.390 . S
C422 H413 0.930 . S
C422 C420 1.384 . S
C422 C423 1.372 . S
C423 C422 1.372 . S
C423 C424 1.400 . S
C423 C428 1.490 . S
C424 H414 0.930 . S
C424 C423 1.400 . S
C424 C427 1.386 . S
H425 C441 0.930 . S
H426 C442 0.931 . S
C427 H415 0.929 . S
C427 C421 1.390 . S
C427 C424 1.386 . S
C428 C423 1.490 . S
C428 C430 1.395 . S
C428 C431 1.403 . S
H429 C435 0.930 . S
C430 H416 0.930 . S
C430 C428 1.395 . S
C430 C433 1.403 . S
C431 C428 1.403 . S
C431 C432 1.524 . S
C431 C435 1.400 . S
C432 H417 0.960 . S
C432 H418 0.960 . S
C432 H419 0.960 . S
C432 C431 1.524 . S
C433 C430 1.403 . S
C433 C434 1.392 . S
C433 C437 1.495 . S
C434 C433 1.392 . S
C434 C435 1.385 . S
C434 C436 1.478 . S
C435 H429 0.930 . S
C435 C431 1.400 . S
C435 C434 1.385 . S
C436 C434 1.478 . S
C436 C438 1.381 . S
C436 C442 1.383 . S
C437 C433 1.495 . S
C437 H443 0.959 . S
C437 H444 0.961 . S
C437 H445 0.960 . S
C438 C436 1.381 . S
C438 C439 1.394 . S
C438 H446 0.930 . S
C439 C438 1.394 . S
C439 C440 1.383 . S
C439 H447 0.929 . S
C440 C439 1.383 . S
C440 C441 1.377 . S
C441 H425 0.930 . S
C441 C440 1.377 . S
C441 C442 1.379 . S
C442 H426 0.931 . S
C442 C436 1.383 . S
C442 C441 1.379 . S
H443 C437 0.959 . S
H444 C437 0.961 . S
H445 C437 0.960 . S
H446 C438 0.930 . S
H447 C439 0.929 . S
H448 C456 0.929 . S
H449 C458 0.930 . S
H450 C460 0.930 . S
H451 C463 0.929 . S
H452 C466 0.930 . S
H453 C468 0.960 . S
H454 C468 0.960 1_655 S
H455 C468 0.960 . S
C456 H448 0.929 . S
C456 C457 1.377 . S
C456 C458 1.384 . S
C457 C456 1.377 . S
C457 C463 1.390 . S
C458 H449 0.930 . S
C458 C456 1.384 . S
C458 C459 1.372 . S
C459 C458 1.372 . S
C459 C460 1.400 . S
C459 C464 1.490 . S
C460 H450 0.930 . S
C460 C459 1.400 . S
C460 C463 1.386 . S
H461 C477 0.930 . S
H462 C478 0.931 . S
C463 H451 0.929 . S
C463 C457 1.390 . S
C463 C460 1.386 . S
C464 C459 1.490 . S
C464 C466 1.395 . S
C464 C467 1.403 . S
H465 C471 0.930 1_455 S
C466 H452 0.930 . S
C466 C464 1.395 . S
C466 C469 1.403 . S
C467 C464 1.403 . S
C467 C468 1.524 1_655 S
C467 C471 1.400 . S
C468 H453 0.960 . S
C468 H454 0.960 1_455 S
C468 H455 0.960 . S
C468 C467 1.524 1_455 S
C469 C466 1.403 . S
C469 C470 1.392 . S
C469 C473 1.495 . S
C470 C469 1.392 . S
C470 C471 1.385 . S
C470 C472 1.478 . S
C471 H465 0.930 1_655 S
C471 C467 1.400 . S
C471 C470 1.385 . S
C472 C470 1.478 . S
C472 C474 1.381 . S
C472 C478 1.383 1_655 S
C473 C469 1.495 . S
C473 H479 0.959 . S
C473 H480 0.961 . S
C473 H481 0.960 . S
C474 C472 1.381 . S
C474 C475 1.394 . S
C474 H482 0.930 . S
C475 C474 1.394 . S
C475 C476 1.383 1_655 S
C475 H483 0.929 . S
C476 C475 1.383 1_455 S
C476 C477 1.377 . S
C477 H461 0.930 . S
C477 C476 1.377 . S
C477 C478 1.379 . S
C478 H462 0.931 . S
C478 C472 1.383 1_455 S
C478 C477 1.379 . S
H479 C473 0.959 . S
H480 C473 0.961 . S
H481 C473 0.960 . S
H482 C474 0.930 . S
H483 C475 0.929 . S
H484 C492 0.929 . S
H485 C494 0.930 . S
H486 C496 0.930 . S
H487 C499 0.929 . S
H488 C502 0.930 . S
H489 C504 0.960 . S
H490 C504 0.960 . S
H491 C504 0.960 . S
C492 H484 0.929 . S
C492 C493 1.377 . S
C492 C494 1.384 . S
C493 C492 1.377 . S
C493 C499 1.390 . S
C494 H485 0.930 . S
C494 C492 1.384 . S
C494 C495 1.372 . S
C495 C494 1.372 . S
C495 C496 1.400 . S
C495 C500 1.490 . S
C496 H486 0.930 . S
C496 C495 1.400 . S
C496 C499 1.386 . S
H497 C513 0.930 . S
H498 C514 0.931 . S
C499 H487 0.929 . S
C499 C493 1.390 . S
C499 C496 1.386 . S
C500 C495 1.490 . S
C500 C502 1.395 . S
C500 C503 1.403 . S
H501 C507 0.930 . S
C502 H488 0.930 . S
C502 C500 1.395 . S
C502 C505 1.403 . S
C503 C500 1.403 . S
C503 C504 1.524 . S
C503 C507 1.400 . S
C504 H489 0.960 . S
C504 H490 0.960 . S
C504 H491 0.960 . S
C504 C503 1.524 . S
C505 C502 1.403 . S
C505 C506 1.392 . S
C505 C509 1.495 . S
C506 C505 1.392 . S
C506 C507 1.385 . S
C506 C508 1.478 . S
C507 H501 0.930 . S
C507 C503 1.400 . S
C507 C506 1.385 . S
C508 C506 1.478 . S
C508 C510 1.381 . S
C508 C514 1.383 1_655 S
C509 C505 1.495 . S
C509 H515 0.959 . S
C509 H516 0.961 1_655 S
C509 H517 0.960 . S
C510 C508 1.381 . S
C510 C511 1.394 . S
C510 H518 0.930 . S
C511 C510 1.394 . S
C511 C512 1.383 1_655 S
C511 H519 0.929 . S
C512 C511 1.383 1_455 S
C512 C513 1.377 . S
C513 H497 0.930 . S
C513 C512 1.377 . S
C513 C514 1.379 . S
C514 H498 0.931 . S
C514 C508 1.383 1_455 S
C514 C513 1.379 . S
H515 C509 0.959 . S
H516 C509 0.961 1_455 S
H517 C509 0.960 . S
H518 C510 0.930 . S
H519 C511 0.929 . S
H520 C528 0.929 . S
H521 C530 0.930 . S
H522 C532 0.930 . S
H523 C535 0.929 . S
H524 C538 0.930 . S
H525 C540 0.960 . S
H526 C540 0.960 . S
H527 C540 0.960 . S
C528 H520 0.929 . S
C528 C529 1.377 1_455 S
C528 C530 1.384 . S
C529 C528 1.377 1_655 S
C529 C535 1.390 . S
C530 H521 0.930 . S
C530 C528 1.384 . S
C530 C531 1.372 . S
C531 C530 1.372 . S
C531 C532 1.400 1_455 S
C531 C536 1.490 . S
C532 H522 0.930 . S
C532 C531 1.400 1_655 S
C532 C535 1.386 . S
H533 C549 0.930 . S
H534 C550 0.931 . S
C535 H523 0.929 . S
C535 C529 1.390 . S
C535 C532 1.386 . S
C536 C531 1.490 . S
C536 C538 1.395 . S
C536 C539 1.403 . S
H537 C543 0.930 . S
C538 H524 0.930 . S
C538 C536 1.395 . S
C538 C541 1.403 . S
C539 C536 1.403 . S
C539 C540 1.524 1_455 S
C539 C543 1.400 . S
C540 H525 0.960 . S
C540 H526 0.960 . S
C540 H527 0.960 . S
C540 C539 1.524 1_655 S
C541 C538 1.403 . S
C541 C542 1.392 . S
C541 C545 1.495 . S
C542 C541 1.392 . S
C542 C543 1.385 . S
C542 C544 1.478 . S
C543 H537 0.930 . S
C543 C539 1.400 . S
C543 C542 1.385 . S
C544 C542 1.478 . S
C544 C546 1.381 . S
C544 C550 1.383 . S
C545 C541 1.495 . S
C545 H551 0.959 . S
C545 H552 0.961 . S
C545 H553 0.960 . S
C546 C544 1.381 . S
C546 C547 1.394 . S
C546 H554 0.930 . S
C547 C546 1.394 . S
C547 C548 1.383 . S
C547 H555 0.929 . S
C548 C547 1.383 . S
C548 C549 1.377 . S
C549 H533 0.930 . S
C549 C548 1.377 . S
C549 C550 1.379 . S
C550 H534 0.931 . S
C550 C544 1.383 . S
C550 C549 1.379 . S
H551 C545 0.959 . S
H552 C545 0.961 . S
H553 C545 0.960 . S
H554 C546 0.930 . S
H555 C547 0.929 . S
H556 C564 0.929 . S
H557 C566 0.930 . S
H558 C568 0.930 . S
H559 C571 0.929 . S
H560 C574 0.930 . S
H561 C576 0.968 . S
H562 C576 0.960 1_655 S
H563 C576 0.960 . S
C564 H556 0.929 . S
C564 C565 1.377 . S
C564 C566 1.384 . S
C565 C564 1.377 . S
C565 C571 1.390 . S
C566 H557 0.930 . S
C566 C564 1.384 . S
C566 C567 1.372 . S
C567 C566 1.372 . S
C567 C568 1.400 . S
C567 C572 1.490 . S
C568 H558 0.930 . S
C568 C567 1.400 . S
C568 C571 1.386 . S
H569 C585 0.930 . S
H570 C586 0.931 . S
C571 H559 0.929 . S
C571 C565 1.390 . S
C571 C568 1.386 . S
C572 C567 1.490 . S
C572 C574 1.395 . S
C572 C575 1.403 . S
H573 C579 0.930 . S
C574 H560 0.930 . S
C574 C572 1.395 . S
C574 C577 1.403 . S
C575 C572 1.403 . S
C575 C576 1.524 . S
C575 C579 1.400 . S
C576 H561 0.968 . S
C576 H562 0.960 1_455 S
C576 H563 0.960 . S
C576 C575 1.524 . S
C577 C574 1.403 . S
C577 C578 1.392 . S
C577 C581 1.495 . S
C578 C577 1.392 . S
C578 C579 1.385 . S
C578 C580 1.478 . S
C579 H573 0.930 . S
C579 C575 1.400 . S
C579 C578 1.385 . S
C580 C578 1.478 . S
C580 C582 1.381 1_455 S
C580 C586 1.383 . S
C581 C577 1.495 . S
C581 H587 0.959 . S
C581 H588 0.961 . S
C581 H589 0.960 . S
C582 C580 1.381 1_655 S
C582 C583 1.394 . S
C582 H590 0.930 . S
C583 C582 1.394 . S
C583 C584 1.383 . S
C583 H591 0.929 . S
C584 C583 1.383 . S
C584 C585 1.377 1_655 S
C585 H569 0.930 . S
C585 C584 1.377 1_455 S
C585 C586 1.379 . S
C586 H570 0.931 . S
C586 C580 1.383 . S
C586 C585 1.379 . S
H587 C581 0.959 . S
H588 C581 0.961 . S
H589 C581 0.960 . S
H590 C582 0.930 . S
H591 C583 0.929 . S
C169 C58 1.494 . S
C188 C9 1.507 . S
C205 C89 1.495 . S
C224 C138 1.509 . S
C241 C18 1.493 . S
C260 C49 1.507 . S
C277 C129 1.489 . S
C296 C98 1.477 . S
C313 C126 1.213 . S
C332 C10 1.192 . S
C349 C46 1.213 . S
C368 C90 1.194 . S
C385 C59 1.205 . S
C404 C95 1.219 . S
C421 C139 1.210 . S
C440 C15 1.212 . S
C457 C50 1.203 . S
C476 C86 1.218 . S
C493 C130 1.206 . S
C512 C6 1.215 . S
C529 C135 1.208 . S
C548 C19 1.204 . S
C565 C99 1.207 . S
C584 C55 1.219 . S
