# Generated by pormake.
# Topology lcs, (4)-cn, num edge types: 1
# Building blocks:
#     Node 0, Type 0, BuildingBlock: QUQFOY_clean_sbu_3, # of connection points: 4
#     Node 1, Type 0, BuildingBlock: QUQFOY_clean_sbu_3, # of connection points: 4
#     Node 2, Type 0, BuildingBlock: QUQFOY_clean_sbu_3, # of connection points: 4
#     Node 3, Type 0, BuildingBlock: QUQFOY_clean_sbu_3, # of connection points: 4
#     Node 4, Type 0, BuildingBlock: QUQFOY_clean_sbu_3, # of connection points: 4
#     Node 5, Type 0, BuildingBlock: QUQFOY_clean_sbu_3, # of connection points: 4
#     Node 6, Type 0, BuildingBlock: QUQFOY_clean_sbu_3, # of connection points: 4
#     Node 7, Type 0, BuildingBlock: QUQFOY_clean_sbu_3, # of connection points: 4
#     Node 8, Type 0, BuildingBlock: QUQFOY_clean_sbu_3, # of connection points: 4
#     Node 9, Type 0, BuildingBlock: QUQFOY_clean_sbu_3, # of connection points: 4
#     Node 10, Type 0, BuildingBlock: QUQFOY_clean_sbu_3, # of connection points: 4
#     Node 11, Type 0, BuildingBlock: QUQFOY_clean_sbu_3, # of connection points: 4
#     Node 12, Type 0, BuildingBlock: QUQFOY_clean_sbu_3, # of connection points: 4
#     Node 13, Type 0, BuildingBlock: QUQFOY_clean_sbu_3, # of connection points: 4
#     Node 14, Type 0, BuildingBlock: QUQFOY_clean_sbu_3, # of connection points: 4
#     Node 15, Type 0, BuildingBlock: QUQFOY_clean_sbu_3, # of connection points: 4
#     Node 16, Type 0, BuildingBlock: QUQFOY_clean_sbu_3, # of connection points: 4
#     Node 17, Type 0, BuildingBlock: QUQFOY_clean_sbu_3, # of connection points: 4
#     Node 18, Type 0, BuildingBlock: QUQFOY_clean_sbu_3, # of connection points: 4
#     Node 19, Type 0, BuildingBlock: QUQFOY_clean_sbu_3, # of connection points: 4
#     Node 20, Type 0, BuildingBlock: QUQFOY_clean_sbu_3, # of connection points: 4
#     Node 21, Type 0, BuildingBlock: QUQFOY_clean_sbu_3, # of connection points: 4
#     Node 22, Type 0, BuildingBlock: QUQFOY_clean_sbu_3, # of connection points: 4
#     Node 23, Type 0, BuildingBlock: QUQFOY_clean_sbu_3, # of connection points: 4
#     Edge 24, Type (0, 0), BuildingBlock: OJICUG_clean_linker_0, # of connection points: 2
#     Edge 25, Type (0, 0), BuildingBlock: OJICUG_clean_linker_0, # of connection points: 2
#     Edge 26, Type (0, 0), BuildingBlock: OJICUG_clean_linker_0, # of connection points: 2
#     Edge 27, Type (0, 0), BuildingBlock: OJICUG_clean_linker_0, # of connection points: 2
#     Edge 28, Type (0, 0), BuildingBlock: OJICUG_clean_linker_0, # of connection points: 2
#     Edge 29, Type (0, 0), BuildingBlock: OJICUG_clean_linker_0, # of connection points: 2
#     Edge 30, Type (0, 0), BuildingBlock: OJICUG_clean_linker_0, # of connection points: 2
#     Edge 31, Type (0, 0), BuildingBlock: OJICUG_clean_linker_0, # of connection points: 2
#     Edge 32, Type (0, 0), BuildingBlock: OJICUG_clean_linker_0, # of connection points: 2
#     Edge 33, Type (0, 0), BuildingBlock: OJICUG_clean_linker_0, # of connection points: 2
#     Edge 34, Type (0, 0), BuildingBlock: OJICUG_clean_linker_0, # of connection points: 2
#     Edge 35, Type (0, 0), BuildingBlock: OJICUG_clean_linker_0, # of connection points: 2
#     Edge 36, Type (0, 0), BuildingBlock: OJICUG_clean_linker_0, # of connection points: 2
#     Edge 37, Type (0, 0), BuildingBlock: OJICUG_clean_linker_0, # of connection points: 2
#     Edge 38, Type (0, 0), BuildingBlock: OJICUG_clean_linker_0, # of connection points: 2
#     Edge 39, Type (0, 0), BuildingBlock: OJICUG_clean_linker_0, # of connection points: 2
#     Edge 40, Type (0, 0), BuildingBlock: OJICUG_clean_linker_0, # of connection points: 2
#     Edge 41, Type (0, 0), BuildingBlock: OJICUG_clean_linker_0, # of connection points: 2
#     Edge 42, Type (0, 0), BuildingBlock: OJICUG_clean_linker_0, # of connection points: 2
#     Edge 43, Type (0, 0), BuildingBlock: OJICUG_clean_linker_0, # of connection points: 2
#     Edge 44, Type (0, 0), BuildingBlock: OJICUG_clean_linker_0, # of connection points: 2
#     Edge 45, Type (0, 0), BuildingBlock: OJICUG_clean_linker_0, # of connection points: 2
#     Edge 46, Type (0, 0), BuildingBlock: OJICUG_clean_linker_0, # of connection points: 2
#     Edge 47, Type (0, 0), BuildingBlock: OJICUG_clean_linker_0, # of connection points: 2
#     Edge 48, Type (0, 0), BuildingBlock: OJICUG_clean_linker_0, # of connection points: 2
#     Edge 49, Type (0, 0), BuildingBlock: OJICUG_clean_linker_0, # of connection points: 2
#     Edge 50, Type (0, 0), BuildingBlock: OJICUG_clean_linker_0, # of connection points: 2
#     Edge 51, Type (0, 0), BuildingBlock: OJICUG_clean_linker_0, # of connection points: 2
#     Edge 52, Type (0, 0), BuildingBlock: OJICUG_clean_linker_0, # of connection points: 2
#     Edge 53, Type (0, 0), BuildingBlock: OJICUG_clean_linker_0, # of connection points: 2
#     Edge 54, Type (0, 0), BuildingBlock: OJICUG_clean_linker_0, # of connection points: 2
#     Edge 55, Type (0, 0), BuildingBlock: OJICUG_clean_linker_0, # of connection points: 2
#     Edge 56, Type (0, 0), BuildingBlock: OJICUG_clean_linker_0, # of connection points: 2
#     Edge 57, Type (0, 0), BuildingBlock: OJICUG_clean_linker_0, # of connection points: 2
#     Edge 58, Type (0, 0), BuildingBlock: OJICUG_clean_linker_0, # of connection points: 2
#     Edge 59, Type (0, 0), BuildingBlock: OJICUG_clean_linker_0, # of connection points: 2
#     Edge 60, Type (0, 0), BuildingBlock: OJICUG_clean_linker_0, # of connection points: 2
#     Edge 61, Type (0, 0), BuildingBlock: OJICUG_clean_linker_0, # of connection points: 2
#     Edge 62, Type (0, 0), BuildingBlock: OJICUG_clean_linker_0, # of connection points: 2
#     Edge 63, Type (0, 0), BuildingBlock: OJICUG_clean_linker_0, # of connection points: 2
#     Edge 64, Type (0, 0), BuildingBlock: OJICUG_clean_linker_0, # of connection points: 2
#     Edge 65, Type (0, 0), BuildingBlock: OJICUG_clean_linker_0, # of connection points: 2
#     Edge 66, Type (0, 0), BuildingBlock: OJICUG_clean_linker_0, # of connection points: 2
#     Edge 67, Type (0, 0), BuildingBlock: OJICUG_clean_linker_0, # of connection points: 2
#     Edge 68, Type (0, 0), BuildingBlock: OJICUG_clean_linker_0, # of connection points: 2
#     Edge 69, Type (0, 0), BuildingBlock: OJICUG_clean_linker_0, # of connection points: 2
#     Edge 70, Type (0, 0), BuildingBlock: OJICUG_clean_linker_0, # of connection points: 2
#     Edge 71, Type (0, 0), BuildingBlock: OJICUG_clean_linker_0, # of connection points: 2
# Relax obj value: 0.005
# Max RMSD: 0.039
# Mean RMSD: 0.027
data_MOF--net-lcs--node1-QUQFOY_clean_sbu_3--edge1-OJICUG_clean_linker_0
_symmetry_space_group_name_H-M    P1
_symmetry_Int_Tables_number       1
_symmetry_cell_setting            triclinic
loop_
_symmetry_equiv_pos_as_xyz
'x, y, z'
_cell_length_a     38.025583
_cell_length_b     38.437648
_cell_length_c     38.497835
_cell_angle_alpha  91.570651
_cell_angle_beta   90.119496
_cell_angle_gamma 91.447589
loop_
_atom_site_label
_atom_site_type_symbol
_atom_site_fract_x
_atom_site_fract_y
_atom_site_fract_z
_atom_type_partial_charge
C0 C 0.91833 0.24508 0.42798 0.0
O1 O 0.93043 0.21922 0.44352 0.0
Cd2 Cd -0.01716 0.18962 0.4296 0.0
O3 O 0.93447 0.25785 0.40207 0.0
Cd4 Cd -0.01104 0.24365 0.36972 0.0
C5 C 0.95759 0.16314 0.34805 0.0
O6 O 0.02493 0.23532 0.42051 0.0
O7 O 0.04673 0.21608 0.37245 0.0
O8 O -0.00191 0.30568 0.35866 0.0
C9 C 0.05099 0.22297 0.40457 0.0
O10 O 0.96757 0.15397 0.37796 0.0
C11 C 0.00753 0.30073 0.32733 0.0
O12 O 0.95972 0.19484 0.33948 0.0
O13 O 0.00665 0.26955 0.31556 0.0
C14 C 0.9193 0.76169 0.54957 0.0
O15 O 0.94528 0.77069 0.53082 0.0
Cd16 Cd 0.00549 0.757 0.54372 0.0
O17 O 0.92398 0.7448 0.57711 0.0
Cd18 Cd 0.97143 0.72039 0.61161 0.0
C19 C 0.01324 0.79859 0.62354 0.0
O20 O 0.00432 0.69812 0.5617 0.0
O21 O 0.02703 0.69084 0.61246 0.0
O22 O 0.92577 0.6773 0.62323 0.0
C23 C 0.02903 0.68646 0.57984 0.0
O24 O 0.0232 0.79554 0.59207 0.0
C25 C 0.93375 0.67394 0.65497 0.0
O26 O -0.00797 0.77641 0.63668 0.0
O27 O 0.95895 0.69296 0.66706 0.0
C28 C 0.41574 0.74691 0.92583 0.0
O29 O 0.42865 0.72107 0.94076 0.0
Cd30 Cd 0.4818 0.69318 0.92618 0.0
O31 O 0.43135 0.76064 0.9001 0.0
Cd32 Cd 0.48614 0.7485 0.86726 0.0
C33 C 0.4572 0.66739 0.84419 0.0
O34 O 0.5223 0.74038 0.91788 0.0
O35 O 0.54475 0.72226 0.86973 0.0
O36 O 0.4945 0.81095 0.8573 0.0
C37 C 0.54875 0.72889 0.90194 0.0
O38 O 0.46751 0.65805 0.87393 0.0
C39 C 0.50351 0.80667 0.82575 0.0
O40 O 0.45832 0.69928 0.83615 0.0
O41 O 0.50259 0.77571 0.8134 0.0
C42 C 0.42272 0.26084 0.04779 0.0
O43 O 0.4489 0.27146 0.03017 0.0
Cd44 Cd 0.50954 0.26025 0.04327 0.0
O45 O 0.42723 0.24323 0.07489 0.0
Cd46 Cd 0.47588 0.22128 0.10957 0.0
C47 C 0.51613 0.30029 0.12371 0.0
O48 O 0.51267 0.20186 0.06162 0.0
O49 O 0.535 0.19984 0.11344 0.0
O50 O 0.44943 0.16461 0.11932 0.0
C51 C 0.53795 0.19363 0.08108 0.0
O52 O 0.5258 0.29842 0.09209 0.0
C53 C 0.44351 0.16978 0.15141 0.0
O54 O 0.4957 0.27713 0.13642 0.0
O55 O 0.45168 0.19963 0.16443 0.0
C56 C 0.91701 0.72275 0.05654 0.0
O57 O 0.9276 0.74874 0.03943 0.0
Cd58 Cd -0.02061 0.78249 0.05355 0.0
O59 O 0.9337 0.71344 0.08329 0.0
Cd60 Cd -0.01342 0.73136 0.11704 0.0
C61 C 0.95664 0.81056 0.13601 0.0
O62 O 0.02308 0.74192 0.06687 0.0
O63 O 0.04317 0.76348 0.11531 0.0
O64 O -0.00861 0.66905 0.12364 0.0
C65 C 0.04783 0.75779 0.08311 0.0
O66 O 0.9657 0.81768 0.10512 0.0
C67 C 0.00282 0.67091 0.15461 0.0
O68 O 0.95755 0.77958 0.14686 0.0
O69 O 0.00602 0.70108 0.16875 0.0
C70 C 0.41275 0.71057 0.42028 0.0
O71 O 0.4383 0.70011 0.43821 0.0
Cd72 Cd 0.49905 0.70634 0.42242 0.0
O73 O 0.4182 0.72638 0.39207 0.0
Cd74 Cd 0.46788 0.74676 0.35604 0.0
C75 C 0.4941 0.6638 0.34251 0.0
O76 O 0.5071 0.76444 0.40384 0.0
O77 O 0.52882 0.76673 0.35201 0.0
O78 O 0.43344 0.79833 0.34833 0.0
C79 C 0.5329 0.7719 0.38439 0.0
O80 O 0.50543 0.66559 0.37368 0.0
C81 C 0.43832 0.79997 0.3158 0.0
O82 O 0.47745 0.68886 0.32971 0.0
O83 O 0.45594 0.77587 0.30149 0.0
C84 C 0.41978 0.22309 0.55165 0.0
O85 O 0.42829 0.25017 0.53517 0.0
Cd86 Cd 0.47824 0.28703 0.54825 0.0
O87 O 0.43769 0.21404 0.57771 0.0
Cd88 Cd 0.48993 0.23518 0.61052 0.0
C89 C 0.45826 0.31365 0.63178 0.0
O90 O 0.52508 0.25014 0.56103 0.0
O91 O 0.54344 0.27245 0.61004 0.0
O92 O 0.51602 0.17891 0.61209 0.0
C93 C 0.54862 0.26737 0.57775 0.0
O94 O 0.46493 0.32108 0.60041 0.0
C95 C 0.5136 0.1751 0.64457 0.0
O96 O 0.46139 0.28279 0.64253 0.0
O97 O 0.49928 0.19932 0.66218 0.0
C98 C 0.92041 0.21149 0.9196 0.0
O99 O 0.94616 0.2009 0.93716 0.0
Cd100 Cd 0.00644 0.20729 0.92001 0.0
O101 O 0.92554 0.22743 0.89141 0.0
Cd102 Cd -0.02566 0.2483 0.85464 0.0
C103 C -0.00031 0.16538 0.83975 0.0
O104 O 0.014 0.26565 0.90208 0.0
O105 O 0.03518 0.26848 0.85005 0.0
O106 O 0.93882 0.29941 0.849 0.0
C107 C 0.03953 0.27346 0.88243 0.0
O108 O 0.01145 0.16694 0.87077 0.0
C109 C 0.94356 0.30237 0.81659 0.0
O110 O -0.01692 0.19066 0.82732 0.0
O111 O 0.9616 0.27916 0.80131 0.0
C112 C 0.39861 0.92343 0.24464 0.0
O113 O 0.41659 0.93363 0.21886 0.0
Cd114 Cd 0.40657 -0.01331 0.18835 0.0
O115 O 0.37318 0.94128 0.25624 0.0
Cd116 Cd 0.34193 -0.00483 0.24421 0.0
C117 C 0.32245 0.96647 0.1616 0.0
O118 O 0.39451 0.02965 0.23222 0.0
O119 O 0.34561 0.05603 0.22645 0.0
O120 O 0.33365 -0.00245 0.3068 0.0
C121 C 0.37886 0.05716 0.22471 0.0
O122 O 0.35427 0.97341 0.15354 0.0
C123 C 0.30185 0.00679 0.30552 0.0
O124 O 0.31183 0.96973 0.19289 0.0
O125 O 0.28829 0.00959 0.27556 0.0
C126 C 0.16756 0.17306 0.4831 0.0
O127 O 0.17761 0.18949 0.51058 0.0
Cd128 Cd 0.22711 0.17302 0.54395 0.0
O129 O 0.1829 0.14559 0.47271 0.0
Cd130 Cd 0.23165 0.10865 0.49051 0.0
C131 C 0.19592 0.09348 0.56908 0.0
O132 O 0.26916 0.15929 0.49991 0.0
O133 O 0.29113 0.11136 0.51646 0.0
O134 O 0.23289 0.0969 0.42821 0.0
C135 C 0.29548 0.14355 0.51105 0.0
O136 O 0.20658 0.12401 0.57831 0.0
C137 C 0.24393 0.06616 0.43011 0.0
O138 O 0.19935 0.08231 0.53787 0.0
O139 O 0.2484 0.05456 0.46033 0.0
C140 C 0.02972 0.0432 0.75529 0.0
O141 O 0.01259 0.03539 0.72772 0.0
Cd142 Cd 0.02919 -0.01165 0.6888 0.0
O143 O 0.05654 0.02603 0.76347 0.0
Cd144 Cd 0.09145 0.97759 0.74098 0.0
C145 C 0.1117 0.0178 0.66693 0.0
O146 O 0.04454 0.93783 0.72005 0.0
O147 O 0.09702 0.92851 0.70082 0.0
O148 O 0.09689 0.94814 0.79525 0.0
C149 C 0.06517 0.9182 0.70316 0.0
O150 O 0.08055 0.00935 0.65716 0.0
C151 C 0.12968 0.95375 0.7991 0.0
O152 O 0.12216 0.01221 0.69769 0.0
O153 O 0.14527 0.97159 0.7762 0.0
C154 C 0.28532 0.8002 0.97927 0.0
O155 O 0.272 0.78584 0.00565 0.0
Cd156 Cd 0.2204 0.80255 0.0357 0.0
O157 O 0.27074 0.82614 0.96578 0.0
Cd158 Cd 0.21729 0.86017 0.97808 0.0
C159 C 0.24605 0.88666 0.05735 0.0
O160 O 0.17824 0.81245 -0.00779 0.0
O161 O 0.16193 0.86262 0.01126 0.0
O162 O 0.19736 0.85988 0.91852 0.0
C163 C 0.15481 0.83039 0.00672 0.0
O164 O 0.23617 0.85658 0.06712 0.0
C165 C 0.19773 0.89264 0.91547 0.0
O166 O 0.24515 0.89448 0.0254 0.0
O167 O 0.20897 0.91102 0.9413 0.0
C168 C 0.2819 0.3006 0.01215 0.0
O169 O 0.25553 0.28247 0.02196 0.0
Cd170 Cd 0.19515 0.29488 0.00935 0.0
O171 O 0.27769 0.32801 -0.00507 0.0
Cd172 Cd 0.22901 0.36155 0.97164 0.0
C173 C 0.18916 0.37565 0.04888 0.0
O174 O 0.19341 0.31142 0.95035 0.0
O175 O 0.17101 0.36228 0.94567 0.0
O176 O 0.26735 0.37229 0.92257 0.0
C177 C 0.16844 0.32975 0.93996 0.0
O178 O 0.17864 0.34398 0.04611 0.0
C179 C 0.26124 0.40454 0.92123 0.0
O180 O 0.21078 0.38853 0.02717 0.0
O181 O 0.24153 0.41729 0.94467 0.0
C182 C 0.77823 0.17324 0.95726 0.0
O183 O 0.75224 0.18997 0.94631 0.0
Cd184 Cd 0.69245 0.171 0.9555 0.0
O185 O 0.77343 0.14554 0.9742 0.0
Cd186 Cd 0.72647 0.10759 -0.00275 0.0
C187 C 0.69627 0.08951 0.91595 0.0
O188 O 0.68939 0.15551 0.01499 0.0
O189 O 0.66776 0.10372 0.02247 0.0
O190 O 0.76937 0.10302 0.04341 0.0
C191 C 0.66434 0.13632 0.02565 0.0
O192 O 0.68483 0.12038 0.91678 0.0
C193 C 0.76295 0.0711 0.04896 0.0
O194 O 0.71409 0.07823 0.94115 0.0
O195 O 0.73997 0.05558 0.02974 0.0
C196 C 0.16164 0.49902 0.2921 0.0
O197 O 0.18091 0.47386 0.28308 0.0
Cd198 Cd 0.16546 0.43735 0.23284 0.0
O199 O 0.13451 0.50575 0.2744 0.0
Cd200 Cd 0.10079 0.48701 0.2229 0.0
C201 C 0.08263 0.41001 0.25814 0.0
O202 O 0.15022 0.47239 0.18467 0.0
O203 O 0.09838 0.45414 0.16858 0.0
O204 O 0.09504 0.5491 0.21572 0.0
C205 C 0.13091 0.45693 0.16183 0.0
O206 O 0.11402 0.40254 0.24983 0.0
C207 C 0.06264 0.54757 0.20776 0.0
O208 O 0.07118 0.44056 0.25452 0.0
O209 O 0.04759 0.51766 0.207 0.0
C210 C 0.77791 0.79915 0.51314 0.0
O211 O 0.75182 0.78079 0.52324 0.0
Cd212 Cd 0.69109 0.79243 0.51104 0.0
O213 O 0.77321 0.82625 0.49559 0.0
Cd214 Cd 0.72362 0.8586 0.47243 0.0
C215 C 0.68538 0.87296 0.55053 0.0
O216 O 0.68752 0.80838 0.45185 0.0
O217 O 0.6651 0.85935 0.44789 0.0
O218 O 0.76109 0.86897 0.42267 0.0
C219 C 0.66237 0.82685 0.44205 0.0
O220 O 0.67475 0.84132 0.54817 0.0
C221 C 0.75516 0.90125 0.42131 0.0
O222 O 0.70645 0.88567 0.52822 0.0
O223 O 0.73577 0.91419 0.44493 0.0
C224 C 0.79725 0.97685 0.30022 0.0
O225 O 0.77965 0.00257 0.29073 0.0
Cd226 Cd 0.79524 0.03519 0.24032 0.0
O227 O 0.82361 0.96697 0.28258 0.0
Cd228 Cd 0.85562 -0.01583 0.23006 0.0
C229 C 0.87738 0.06161 0.26686 0.0
O230 O 0.80638 -0.00339 0.19158 0.0
O231 O 0.85748 0.01697 0.17691 0.0
O232 O 0.8624 0.92218 0.21803 0.0
C233 C 0.82551 0.01108 0.1689 0.0
O234 O 0.84677 0.07062 0.25781 0.0
C235 C 0.8947 0.92484 0.21007 0.0
O236 O 0.88688 0.03026 0.26275 0.0
O237 O 0.90908 0.955 0.21249 0.0
C238 C 0.27035 0.67111 0.45631 0.0
O239 O 0.24423 0.68748 0.44511 0.0
Cd240 Cd 0.1846 0.6672 0.45361 0.0
O241 O 0.26573 0.64333 0.47317 0.0
Cd242 Cd 0.21949 0.60434 0.49601 0.0
C243 C 0.19069 0.58552 0.41445 0.0
O244 O 0.18049 0.65117 0.51289 0.0
O245 O 0.16048 0.59863 0.51988 0.0
O246 O 0.2622 0.60177 0.54257 0.0
C247 C 0.15579 0.63107 0.52285 0.0
O248 O 0.17863 0.61615 0.41517 0.0
C249 C 0.25719 0.56967 0.54822 0.0
O250 O 0.20858 0.57459 0.43978 0.0
O251 O 0.23483 0.55313 0.52907 0.0
C252 C 0.30097 0.47945 0.79907 0.0
O253 O 0.28276 0.50477 0.78962 0.0
Cd254 Cd 0.29641 0.53685 0.73841 0.0
O255 O 0.327 0.46959 0.78093 0.0
Cd256 Cd 0.35742 0.48635 0.72733 0.0
C257 C 0.37882 0.56466 0.76282 0.0
O258 O 0.30682 0.49751 0.69013 0.0
O259 O 0.35708 0.51831 0.67352 0.0
O260 O 0.3648 0.42423 0.71599 0.0
C261 C 0.32492 0.51191 0.66664 0.0
O262 O 0.34786 0.57313 0.75438 0.0
C263 C 0.39689 0.42719 0.7073 0.0
O264 O 0.38872 0.53344 0.75874 0.0
O265 O 0.41086 0.45756 0.70899 0.0
C266 C 0.66518 0.00317 0.79393 0.0
O267 O 0.68276 0.97646 0.78608 0.0
Cd268 Cd 0.66652 0.93893 0.73682 0.0
O269 O 0.63888 0.01106 0.77558 0.0
Cd270 Cd 0.60524 -0.00868 0.72435 0.0
C271 C 0.58189 0.91552 0.75975 0.0
O272 O 0.65292 0.97157 0.68667 0.0
O273 O 0.60004 0.95394 0.67301 0.0
O274 O 0.60545 0.04827 0.69978 0.0
C275 C 0.63243 0.95556 0.6652 0.0
O276 O 0.61328 0.90683 0.7529 0.0
C277 C 0.57269 0.05297 0.70244 0.0
O278 O 0.57177 0.94645 0.75528 0.0
O279 O 0.55425 0.0289 0.71601 0.0
C280 C 0.66429 0.67869 -0.01828 0.0
O281 O 0.67403 0.695 0.00936 0.0
Cd282 Cd 0.72262 0.678 0.04378 0.0
O283 O 0.67938 0.65097 0.97169 0.0
Cd284 Cd 0.72713 0.61347 -0.00911 0.0
C285 C 0.69018 0.599 0.06906 0.0
O286 O 0.76569 0.66348 0.00096 0.0
O287 O 0.78588 0.61507 0.01829 0.0
O288 O 0.72958 0.60081 0.92868 0.0
C289 C 0.79123 0.64714 0.01293 0.0
O290 O 0.70122 0.62941 0.0783 0.0
C291 C 0.7399 0.56987 0.9313 0.0
O292 O 0.69365 0.58774 0.03789 0.0
O293 O 0.7435 0.55869 0.9618 0.0
C294 C 0.90042 0.42732 0.75024 0.0
O295 O 0.91906 0.43996 0.72609 0.0
Cd296 Cd 0.90474 0.4924 0.69676 0.0
O297 O 0.87296 0.44267 0.76072 0.0
Cd298 Cd 0.83949 0.49502 0.74792 0.0
C299 C 0.82386 0.4649 0.66621 0.0
O300 O 0.88819 0.53642 0.73839 0.0
O301 O 0.83681 0.55121 0.72111 0.0
O302 O 0.83104 0.50047 0.81031 0.0
C303 C 0.86898 0.55943 0.72567 0.0
O304 O 0.85506 0.47538 0.65936 0.0
C305 C 0.79864 0.50739 0.80869 0.0
O306 O 0.81216 0.46608 0.69721 0.0
O307 O 0.78472 0.50748 0.77865 0.0
C308 C 0.78825 0.30196 0.47824 0.0
O309 O 0.77323 0.28715 0.50349 0.0
Cd310 Cd 0.72179 0.30521 0.53286 0.0
O311 O 0.77546 0.32911 0.4653 0.0
Cd312 Cd 0.72299 0.36504 0.47663 0.0
C313 C 0.75108 0.38788 0.55697 0.0
O314 O 0.68143 0.31907 0.48917 0.0
O315 O 0.66744 0.36965 0.50918 0.0
O316 O 0.70521 0.36484 0.4166 0.0
C317 C 0.65878 0.33787 0.50386 0.0
O318 O 0.73972 0.35783 0.56541 0.0
C319 C 0.70496 0.3976 0.41364 0.0
O320 O 0.75126 0.39698 0.52535 0.0
O321 O 0.71537 0.41609 0.43974 0.0
C322 C 0.52762 0.54281 0.25785 0.0
O323 O 0.51045 0.5345 0.23043 0.0
Cd324 Cd 0.5279 0.48837 0.19091 0.0
O325 O 0.55524 0.52668 0.26565 0.0
Cd326 Cd 0.59175 0.47983 0.24209 0.0
C327 C 0.6087 0.52112 0.16764 0.0
O328 O 0.5457 0.4386 0.22201 0.0
O329 O 0.59808 0.43083 0.20189 0.0
O330 O 0.60007 0.4504 0.29598 0.0
C331 C 0.56659 0.41959 0.20475 0.0
O332 O 0.57771 0.51152 0.15836 0.0
C333 C 0.63271 0.45736 0.29904 0.0
O334 O 0.61999 0.5157 0.19816 0.0
O335 O 0.64687 0.47601 0.27593 0.0
C336 C 0.03568 0.39086 0.29942 0.0
C337 C 0.0599 0.38274 0.27312 0.0
H338 H 0.00014 0.37094 0.33774 0.0
C339 C 0.06409 0.34783 0.26268 0.0
H340 H 0.03207 0.41763 0.30794 0.0
C341 C 0.04533 0.32134 0.27904 0.0
C342 C 0.02267 0.3292 0.30676 0.0
H343 H 0.08242 0.34095 0.24225 0.0
H344 H 0.04992 0.2946 0.27105 0.0
C345 C 0.01751 0.36421 0.31646 0.0
C346 C 0.85403 0.75522 0.55597 0.0
C347 C 0.88319 0.77091 0.53965 0.0
H348 H 0.798 0.75159 0.56023 0.0
C349 C 0.87743 0.79566 0.5142 0.0
H350 H 0.85755 0.73593 0.5756 0.0
C351 C 0.84323 0.80486 0.50561 0.0
C352 C 0.81409 0.78919 0.52199 0.0
H353 H 0.89933 0.80826 0.5012 0.0
H354 H 0.83966 0.82419 0.48604 0.0
C355 C 0.81986 0.76411 0.54709 0.0
C356 C 0.39703 0.62653 0.77562 0.0
C357 C 0.40228 0.59091 0.78015 0.0
H358 H 0.41094 0.67874 0.79185 0.0
C359 C 0.4282 0.58069 0.80357 0.0
H360 H 0.37737 0.63512 0.75756 0.0
C361 C 0.44701 0.60565 0.82364 0.0
C362 C 0.44075 0.64124 0.82009 0.0
H363 H 0.43275 0.55339 0.80761 0.0
H364 H 0.46583 0.59704 0.84253 0.0
C365 C 0.41635 0.65149 0.79514 0.0
C366 C 0.58575 0.15096 0.08293 0.0
C367 C 0.57007 0.17888 0.06668 0.0
H368 H 0.62782 0.11481 0.08176 0.0
C369 C 0.58554 0.19288 0.03695 0.0
H370 H 0.57407 0.13984 0.10589 0.0
C371 C 0.61683 0.17948 0.02398 0.0
C372 C 0.63214 0.15112 0.03986 0.0
H373 H 0.57383 0.21457 0.02422 0.0
H374 H 0.62869 0.19078 0.0012 0.0
C375 C 0.61627 0.1367 0.06917 0.0
C376 C 0.01572 0.57645 0.17448 0.0
C377 C 0.04415 0.57901 0.19778 0.0
H378 H -0.01953 0.60388 0.14217 0.0
C379 C 0.05653 0.61206 0.2094 0.0
H380 H 0.00573 0.55127 0.16509 0.0
C381 C 0.04156 0.64212 0.19693 0.0
C382 C 0.01459 0.63956 0.17198 0.0
H383 H 0.07833 0.61469 0.22753 0.0
H384 H 0.05232 0.66729 0.20546 0.0
C385 C 0.00135 0.60651 0.16132 0.0
C386 C 0.58468 0.81236 0.38244 0.0
C387 C 0.56648 0.78518 0.39874 0.0
H388 H 0.62937 0.84751 0.38425 0.0
C389 C 0.58059 0.77084 0.4287 0.0
H390 H 0.57412 0.82374 0.35931 0.0
C391 C 0.61276 0.78348 0.44211 0.0
C392 C 0.63035 0.81139 0.42639 0.0
H393 H 0.56693 0.74969 0.44147 0.0
H394 H 0.62332 0.77225 0.46532 0.0
C395 C 0.6161 0.82587 0.39661 0.0
C396 C 0.45907 0.37568 0.65148 0.0
C397 C 0.44586 0.34156 0.65524 0.0
H398 H 0.45449 0.42945 0.66588 0.0
C399 C 0.41883 0.33522 0.67917 0.0
H400 H 0.48011 0.38113 0.63332 0.0
C401 C 0.4036 0.36304 0.69732 0.0
C402 C 0.41588 0.39737 0.6924 0.0
H403 H 0.4082 0.30909 0.68239 0.0
H404 H 0.3816 0.35781 0.71439 0.0
C405 C 0.44452 0.40328 0.67022 0.0
C406 C 0.87757 0.17984 0.95733 0.0
C407 C 0.88406 0.2038 0.93104 0.0
H408 H 0.83906 0.15138 -0.01385 0.0
C409 C 0.8554 0.21911 0.91475 0.0
H410 H 0.89906 0.1676 0.97041 0.0
C411 C 0.82095 0.20998 0.92395 0.0
C412 C 0.8145 0.18509 0.94937 0.0
H413 H 0.85954 0.23781 0.89452 0.0
H414 H 0.79941 0.22173 0.91049 0.0
C415 C 0.84316 0.17046 0.96627 0.0
C416 C 0.28025 0.02113 0.40042 0.0
C417 C 0.25434 0.04641 0.39859 0.0
H418 H 0.31592 -0.01118 0.37207 0.0
C419 C 0.24129 0.05535 0.36596 0.0
H420 H 0.29081 0.01382 0.42526 0.0
C421 C 0.25518 0.04058 0.33559 0.0
C422 C 0.2829 0.01723 0.33735 0.0
H423 H 0.22119 0.07467 0.36387 0.0
H424 H 0.2456 0.049 0.31074 0.0
C425 C 0.29469 0.00693 0.37002 0.0
C426 C 0.16162 0.05899 0.654 0.0
C427 C 0.13546 0.03506 0.64221 0.0
H428 H 0.20117 0.0967 0.63989 0.0
C429 C 0.131 0.02882 0.60634 0.0
H430 H 0.16553 0.06428 0.68154 0.0
C431 C 0.1518 0.04675 0.58261 0.0
C432 C 0.17689 0.07185 0.5943 0.0
H433 H 0.11117 0.01029 0.59659 0.0
H434 H 0.14728 0.0419 0.55509 0.0
C435 C 0.1819 0.07757 0.63021 0.0
C436 C 0.17673 0.95612 0.84502 0.0
C437 C 0.14866 0.93831 0.82799 0.0
H438 H 0.21406 0.95585 0.88707 0.0
C439 C 0.13802 0.90524 0.83904 0.0
H440 H 0.18529 -0.01828 0.83687 0.0
C441 C 0.15502 0.89013 0.8667 0.0
C442 C 0.18232 0.90824 0.88458 0.0
H443 H 0.11659 0.89091 0.82615 0.0
H444 H 0.14601 0.86464 0.87476 0.0
C445 C 0.19308 0.94141 0.87362 0.0
C446 C 0.28739 0.93593 0.07383 0.0
C447 C 0.26144 0.91144 0.08341 0.0
H448 H 0.32731 0.97264 0.09132 0.0
C449 C 0.25278 0.90845 0.1187 0.0
H450 H 0.29457 0.93877 0.04682 0.0
C451 C 0.27107 0.92822 0.14411 0.0
C452 C 0.29883 0.95079 0.13471 0.0
H453 H 0.23263 0.88995 0.12676 0.0
H454 H 0.26482 0.92428 0.17118 0.0
C455 C 0.30618 0.9552 0.0993 0.0
C456 C 0.34721 0.30555 0.00469 0.0
C457 C 0.31789 0.28981 0.02066 0.0
H458 H 0.40329 0.30849 0.0004 0.0
C459 C 0.32331 0.26377 0.04488 0.0
H460 H 0.34393 0.32557 -0.01423 0.0
C461 C 0.35735 0.25413 0.05341 0.0
C462 C 0.38669 0.27006 0.03763 0.0
H463 H 0.30127 0.25112 0.05763 0.0
H464 H 0.36064 0.23425 0.07247 0.0
C465 C 0.38125 0.29565 0.01295 0.0
C466 C 0.91626 0.83278 0.18222 0.0
C467 C 0.94374 0.83886 0.1587 0.0
H468 H 0.87871 0.85566 0.21688 0.0
C469 C 0.95719 0.8729 0.15497 0.0
H470 H 0.90544 0.80673 0.18546 0.0
C471 C 0.94253 0.90065 0.17342 0.0
C472 C 0.91358 0.89494 0.19528 0.0
H473 H -0.02142 0.87817 0.13716 0.0
H474 H 0.95273 0.92676 0.16919 0.0
C475 C 0.90096 0.86072 0.20007 0.0
C476 C 0.10625 0.62863 0.56477 0.0
C477 C 0.12283 0.64471 0.53669 0.0
H478 H 0.06355 0.63005 0.60103 0.0
C479 C 0.10772 0.67383 0.52201 0.0
H480 H 0.11756 0.60616 0.57644 0.0
C481 C 0.07623 0.68665 0.53518 0.0
C482 C 0.06027 0.67121 0.56395 0.0
H483 H 0.12008 0.68645 0.50017 0.0
H484 H 0.06497 0.70924 0.52365 0.0
C485 C 0.07551 0.64223 0.57875 0.0
C486 C 0.88181 0.63549 0.6668 0.0
C487 C 0.91583 0.64745 0.67593 0.0
H488 H 0.84004 0.59871 0.67598 0.0
C489 C 0.93348 0.63193 0.70337 0.0
H490 H 0.86762 0.64712 0.64582 0.0
C491 C 0.91799 0.60365 0.72021 0.0
C492 C 0.88432 0.59108 0.71037 0.0
H493 H 0.95983 0.64063 0.71077 0.0
H494 H 0.93255 0.59126 0.74046 0.0
C495 C 0.86603 0.60784 0.68413 0.0
C496 C 0.11564 0.21098 0.4774 0.0
C497 C 0.13814 0.18625 0.46267 0.0
H498 H 0.07035 0.24192 0.47045 0.0
C499 C 0.13248 0.17449 0.42816 0.0
H500 H 0.11936 0.22056 0.50392 0.0
C501 C 0.10468 0.18712 0.40882 0.0
C502 C 0.08179 0.2113 0.42386 0.0
H503 H 0.14958 0.15563 0.41602 0.0
H504 H 0.10071 0.17743 0.38238 0.0
C505 C 0.08759 0.22321 0.45825 0.0
C506 C 0.52213 0.37131 0.19379 0.0
C507 C 0.55396 0.38828 0.18511 0.0
H508 H 0.48536 0.3295 0.18143 0.0
C509 C 0.57354 0.37547 0.1569 0.0
H510 H 0.50662 0.38063 0.21554 0.0
C511 C 0.56116 0.3468 0.13717 0.0
C512 C 0.52928 0.32988 0.14563 0.0
H513 H 0.59814 0.38805 0.14958 0.0
H514 H 0.57665 0.33782 0.11526 0.0
C515 C 0.51006 0.34205 0.17442 0.0
C516 C 0.3351 0.80241 0.93643 0.0
C517 C 0.31837 0.78668 0.96473 0.0
H518 H 0.37919 0.80224 0.9018 0.0
C519 C 0.33378 0.75781 0.9797 0.0
H520 H 0.32387 0.82471 0.92434 0.0
C521 C 0.36525 0.74506 0.9669 0.0
C522 C 0.3822 0.76081 0.93878 0.0
H523 H 0.32164 0.74499 0.0015 0.0
H524 H 0.37628 0.72281 0.97925 0.0
C525 C 0.36678 0.78958 0.92355 0.0
C526 C 0.89564 0.38487 0.79821 0.0
C527 C 0.9105 0.39452 0.76638 0.0
H528 H 0.89448 0.34815 0.839 0.0
C529 C 0.935 0.37259 0.75028 0.0
H530 H 0.87665 0.40115 0.81127 0.0
C531 C 0.9448 0.34188 0.76595 0.0
C532 C 0.93067 0.33281 0.79825 0.0
H533 H 0.9467 0.37917 0.72561 0.0
H534 H 0.96416 0.32576 0.75322 0.0
C535 C 0.90582 0.35448 0.8141 0.0
C536 C 0.33375 0.19672 0.5084 0.0
C537 C 0.32807 0.16293 0.52054 0.0
H538 H 0.3673 0.2421 0.50853 0.0
C539 C 0.35313 0.1486 0.54242 0.0
H540 H 0.31489 0.20834 0.49137 0.0
C541 C 0.38304 0.16815 0.55261 0.0
C542 C 0.38856 0.20209 0.54065 0.0
H543 H 0.34931 0.12261 0.55216 0.0
H544 H 0.40183 0.15667 0.56981 0.0
C545 C 0.3638 0.21602 0.51817 0.0
C546 C 0.48543 0.62664 0.28823 0.0
C547 C 0.50109 0.63219 0.3211 0.0
H548 H 0.48113 0.59367 0.24252 0.0
C549 C 0.52411 0.60727 0.33347 0.0
H550 H 0.46743 0.64526 0.27805 0.0
C551 C 0.53203 0.57796 0.31318 0.0
C552 C 0.5169 0.57263 0.2801 0.0
H553 H 0.5366 0.61063 0.3587 0.0
H554 H 0.55034 0.55962 0.32334 0.0
C555 C 0.49313 0.59701 0.26798 0.0
C556 C 0.08967 0.80817 0.07682 0.0
C557 C 0.07564 0.77619 0.06401 0.0
H558 H 0.12517 0.85117 0.06796 0.0
C559 C 0.08682 0.76289 0.03171 0.0
H560 H 0.08106 0.81916 0.10151 0.0
C561 C 0.11226 0.78093 0.01281 0.0
C562 C 0.12613 0.81299 0.02548 0.0
H563 H 0.07616 0.73836 0.02127 0.0
H564 H 0.12109 0.76984 -0.01175 0.0
C565 C 0.11446 0.82668 0.05747 0.0
C566 C 0.69185 0.92366 0.59276 0.0
C567 C 0.67199 0.89509 0.5792 0.0
H568 H 0.69506 0.96506 0.63134 0.0
C569 C 0.63893 0.88721 0.59358 0.0
H570 H 0.71745 0.93022 0.58214 0.0
C571 C 0.62592 0.90741 0.62102 0.0
C572 C 0.64601 0.93547 0.63519 0.0
H573 H 0.62294 0.86549 0.58348 0.0
H574 H 0.60036 0.90056 0.63158 0.0
C575 C 0.67912 0.94347 0.62089 0.0
C576 C 0.80241 0.92618 0.33911 0.0
C577 C 0.78744 0.9583 0.33204 0.0
H578 H 0.80403 0.88305 0.37297 0.0
C579 C 0.76321 0.97245 0.3557 0.0
H580 H 0.82125 0.91461 0.32148 0.0
C581 C 0.7537 0.95453 0.3855 0.0
C582 C 0.76795 0.92196 0.39198 0.0
H583 H 0.75144 -0.00271 0.35114 0.0
H584 H 0.73448 0.96576 0.40294 0.0
C585 C 0.79262 0.90811 0.36866 0.0
C586 C 0.76346 0.02545 0.09396 0.0
C587 C 0.78019 0.05366 0.07777 0.0
H588 H 0.76451 -0.00985 0.13614 0.0
C589 C 0.81257 0.06666 0.0908 0.0
H590 H 0.73836 0.0151 0.0845 0.0
C591 C 0.82775 0.05206 0.11983 0.0
C592 C 0.81042 0.02473 0.13687 0.0
H593 H 0.82602 0.08836 0.07873 0.0
H594 H 0.85257 0.06289 0.12954 0.0
C595 C 0.77828 0.01135 0.12356 0.0
C596 C 0.69819 0.0142 0.85003 0.0
C597 C 0.67432 0.02518 0.82489 0.0
H598 H 0.7237 0.02576 0.89889 0.0
C599 C 0.65806 0.05733 0.82998 0.0
H600 H 0.71104 -0.01052 0.84688 0.0
C601 C 0.66531 0.078 0.8595 0.0
C602 C 0.68887 0.06701 0.88488 0.0
H603 H 0.63959 0.06666 0.81113 0.0
H604 H 0.65218 0.10258 0.86246 0.0
C605 C 0.7053 0.03488 0.87987 0.0
C606 C 0.60256 0.69322 0.90655 0.0
C607 C 0.57957 0.71744 0.92135 0.0
H608 H 0.64723 0.66152 0.91431 0.0
C609 C 0.58509 0.72942 0.95576 0.0
H610 H 0.5988 0.68348 0.8801 0.0
C611 C 0.61287 0.71711 0.97522 0.0
C612 C 0.63538 0.69221 0.9608 0.0
H613 H 0.56777 0.74818 0.96776 0.0
H614 H 0.61631 0.72668 0.00177 0.0
C615 C 0.63009 0.6805 0.92622 0.0
C616 C -0.00306 0.09856 0.76517 0.0
C617 C 0.01995 0.07351 0.77735 0.0
H618 H 0.97265 0.14757 0.77518 0.0
C619 C 0.03524 0.07852 0.81039 0.0
H620 H -0.01516 0.09547 0.73974 0.0
C621 C 0.02822 0.10812 0.83061 0.0
C622 C 0.00591 0.13365 0.81823 0.0
H623 H 0.05299 0.05968 0.82062 0.0
H624 H 0.04081 0.11115 0.85581 0.0
C625 C -0.00989 0.12847 0.78538 0.0
C626 C 0.8709 0.2893 0.42473 0.0
C627 C 0.88498 0.25999 0.44021 0.0
H628 H 0.8291 0.32571 0.42455 0.0
C629 C 0.86679 0.2446 0.46779 0.0
H630 H 0.88429 0.30172 0.40339 0.0
C631 C 0.83537 0.25818 0.47976 0.0
C632 C 0.82127 0.28758 0.46453 0.0
H633 H 0.87678 0.22194 0.48029 0.0
H634 H 0.82224 0.24559 0.50116 0.0
C635 C 0.83929 0.30301 0.43682 0.0
C636 C 0.55981 0.85433 0.76139 0.0
C637 C 0.55755 0.88894 0.77352 0.0
H638 H 0.54356 0.80134 0.76776 0.0
C639 C 0.5342 0.89703 0.80059 0.0
H640 H 0.57745 0.84754 0.74033 0.0
C641 C 0.51522 0.87039 0.81689 0.0
C642 C 0.51872 0.83552 0.80566 0.0
H643 H 0.53212 0.92359 0.81038 0.0
H644 H 0.49873 0.87693 0.83891 0.0
C645 C 0.54026 0.82794 0.777 0.0
C646 C 0.91644 0.14778 0.29915 0.0
C647 C 0.94042 0.13715 0.32431 0.0
H648 H 0.87741 0.13206 0.26138 0.0
C649 C 0.94568 0.10143 0.32828 0.0
H650 H 0.91179 0.17514 0.29554 0.0
C651 C 0.9264 0.07677 0.30829 0.0
C652 C 0.90101 0.08744 0.28454 0.0
H653 H 0.96415 0.09253 0.34737 0.0
H654 H 0.93026 0.04939 0.31256 0.0
C655 C 0.89665 0.12314 0.2797 0.0
C656 C 0.52674 0.09885 0.70326 0.0
C657 C 0.55707 0.0844 0.68857 0.0
H658 H 0.48951 0.14001 0.70135 0.0
C659 C 0.57296 0.10028 0.66002 0.0
H660 H 0.51415 0.08706 0.72541 0.0
C661 C 0.55852 0.12966 0.64589 0.0
C662 C 0.52846 0.14441 0.66062 0.0
H663 H 0.59628 0.08959 0.64813 0.0
H664 H 0.57112 0.14108 0.62354 0.0
C665 C 0.51283 0.1291 0.68969 0.0
C666 C 0.11947 0.28573 0.93981 0.0
C667 C 0.13656 0.31405 0.92428 0.0
H668 H 0.07419 0.25125 0.93903 0.0
C669 C 0.122 0.32853 0.89465 0.0
H670 H 0.13028 0.27447 0.96289 0.0
C671 C 0.09076 0.31463 0.88045 0.0
C672 C 0.07305 0.28703 0.89659 0.0
H673 H 0.13489 0.35047 0.88244 0.0
H674 H 0.07991 0.32603 0.85747 0.0
C675 C 0.08749 0.27269 0.92639 0.0
C676 C 0.34766 0.71754 0.41444 0.0
C677 C 0.37626 0.70272 0.43131 0.0
H678 H 0.29166 0.71947 0.40935 0.0
C679 C 0.36964 0.679 0.45778 0.0
H680 H 0.3519 0.73604 0.39405 0.0
C681 C 0.3352 0.66934 0.46633 0.0
C682 C 0.3066 0.68343 0.44885 0.0
H683 H 0.39106 0.66714 0.47132 0.0
H684 H 0.33103 0.65043 0.48637 0.0
C685 C 0.31315 0.70813 0.42326 0.0
C686 C 0.75153 0.54164 0.83747 0.0
C687 C 0.77932 0.51847 0.84006 0.0
H688 H 0.71739 0.57649 0.86466 0.0
C689 C 0.79107 0.50923 0.87308 0.0
H690 H 0.74206 0.54928 0.81231 0.0
C691 C 0.77645 0.52422 0.90302 0.0
C692 C 0.75049 0.54935 0.90034 0.0
H693 H 0.81239 0.49131 0.87575 0.0
H694 H 0.78695 0.51769 0.92813 0.0
C695 C 0.73753 0.5573 0.86738 0.0
C696 C 0.65729 0.5637 0.15419 0.0
C697 C 0.63135 0.53941 0.14264 0.0
H698 H 0.69606 0.60207 0.13981 0.0
C699 C 0.62622 0.5336 0.10678 0.0
H700 H 0.66171 0.56871 0.18171 0.0
C701 C 0.64629 0.55211 0.08288 0.0
C702 C 0.6713 0.57737 0.09439 0.0
H703 H 0.60654 0.51483 0.09718 0.0
H704 H 0.6414 0.54743 0.0554 0.0
C705 C 0.67682 0.58284 0.13026 0.0
C706 C 0.66292 0.39359 0.36435 0.0
C707 C 0.68905 0.41288 0.38278 0.0
H708 H 0.62425 0.39307 0.32397 0.0
C709 C 0.69765 0.44692 0.3727 0.0
H710 H 0.65551 0.3674 0.37169 0.0
C711 C 0.68021 0.46135 0.34455 0.0
C712 C 0.65317 0.44231 0.32714 0.0
H713 H 0.71766 0.46231 0.38659 0.0
H714 H 0.68699 0.48766 0.33716 0.0
C715 C 0.64483 0.40833 0.33719 0.0
C716 C 0.8106 0.45441 0.60306 0.0
C717 C 0.80213 0.44876 0.63804 0.0
H718 H 0.8005 0.43996 0.54975 0.0
C719 C 0.77437 0.42553 0.64582 0.0
H720 H 0.83171 0.47241 0.59629 0.0
C721 C 0.75688 0.4067 0.61924 0.0
C722 C 0.76639 0.41119 0.58436 0.0
H723 H 0.7672 0.42068 0.6725 0.0
H724 H 0.73648 0.38794 0.62608 0.0
C725 C 0.79265 0.43599 0.57641 0.0
C726 C 0.42523 0.08036 0.18563 0.0
C727 C 0.39743 0.08658 0.20866 0.0
H728 H 0.46101 0.10213 0.14871 0.0
C729 C 0.38594 0.12074 0.21418 0.0
H730 H 0.43433 0.05419 0.18078 0.0
C731 C 0.40193 0.14831 0.19663 0.0
C732 C 0.42863 0.14175 0.17242 0.0
H733 H 0.36445 0.12603 0.23184 0.0
H734 H 0.39254 0.17445 0.20092 0.0
C735 C 0.4403 0.10766 0.16719 0.0
C736 C 0.0075 0.84143 0.6733 0.0
C737 C 0.02671 0.82848 0.64484 0.0
H738 H 0.00443 0.88059 0.71389 0.0
C739 C 0.05887 0.8448 0.63626 0.0
H740 H -0.01743 0.82936 0.68038 0.0
C741 C 0.07159 0.87357 0.65569 0.0
C742 C 0.05206 0.88703 0.68364 0.0
H743 H 0.07434 0.83525 0.61458 0.0
H744 H 0.09644 0.88564 0.64837 0.0
C745 C 0.0199 0.87075 0.69233 0.0
C746 C 0.43964 0.83685 0.26313 0.0
C747 C 0.42606 0.82991 0.29621 0.0
H748 H 0.44194 0.87207 0.22096 0.0
C749 C 0.40241 0.85321 0.31153 0.0
H750 H 0.45804 0.81942 0.25074 0.0
C751 C 0.39303 0.88318 0.29444 0.0
C752 C 0.40744 0.89077 0.26183 0.0
H753 H 0.39147 0.84854 0.33699 0.0
H754 H 0.37506 0.9008 0.30721 0.0
C755 C 0.43059 0.86711 0.24618 0.0
C756 C 0.83112 0.69931 0.01144 0.0
C757 C 0.82398 0.66572 0.02348 0.0
H758 H 0.86625 0.74358 0.0123 0.0
C759 C 0.84781 0.65073 0.0462 0.0
H760 H 0.81321 0.71145 -0.00619 0.0
C761 C 0.87803 0.66935 0.05719 0.0
C762 C 0.88512 0.70301 0.04516 0.0
H763 H 0.84285 0.62488 0.05592 0.0
H764 H 0.8959 0.6573 0.07492 0.0
C765 C 0.86151 0.71769 0.02198 0.0
C766 C 0.5915 0.31721 0.57257 0.0
C767 C 0.57677 0.28577 0.55915 0.0
H768 H 0.62859 0.35919 0.56479 0.0
C769 C 0.58805 0.27257 0.52684 0.0
H770 H 0.58289 0.32806 0.59729 0.0
C771 C 0.61429 0.29006 0.50855 0.0
C772 C 0.62904 0.32146 0.52188 0.0
H773 H 0.57694 0.24842 0.51594 0.0
H774 H 0.62316 0.27896 0.48402 0.0
C775 C 0.61723 0.33518 0.55383 0.0
C776 C 0.14072 0.38986 0.08955 0.0
C777 C 0.17455 0.39767 0.07701 0.0
H778 H 0.1003 0.40289 0.12561 0.0
C779 C 0.19384 0.42604 0.0918 0.0
H780 H 0.12512 0.36834 0.07842 0.0
C781 C 0.17977 0.44561 0.11947 0.0
C782 C 0.1459 0.43758 0.132 0.0
H783 H 0.22001 0.43255 0.08256 0.0
H784 H 0.19528 0.46695 0.13102 0.0
C785 C 0.12641 0.4098 0.11646 0.0
C786 C 0.30766 0.42946 0.83859 0.0
C787 C 0.29212 0.46128 0.83137 0.0
H788 H 0.3102 0.38668 0.8728 0.0
C789 C 0.2681 0.47541 0.85524 0.0
H790 H 0.32639 0.41793 0.8208 0.0
C791 C 0.2592 0.45768 0.88532 0.0
C792 C 0.27386 0.42532 0.89188 0.0
H793 H 0.25592 0.50003 0.85058 0.0
H794 H 0.24002 0.46883 0.90286 0.0
C795 C 0.29847 0.41158 0.86843 0.0
C796 C 0.26023 0.52436 0.59345 0.0
C797 C 0.2756 0.55302 0.57682 0.0
H798 H 0.26361 0.48919 0.63559 0.0
C799 C 0.3079 0.56703 0.58902 0.0
H800 H 0.23522 0.51322 0.58461 0.0
C801 C 0.3244 0.55293 0.61761 0.0
C802 C 0.30845 0.5251 0.63507 0.0
H803 H 0.32033 0.58908 0.57657 0.0
H804 H 0.34914 0.56451 0.62665 0.0
C805 C 0.27633 0.51078 0.62265 0.0
C806 C 0.19491 0.51082 0.34797 0.0
C807 C 0.17006 0.5209 0.32333 0.0
H808 H 0.22076 0.5232 0.39651 0.0
C809 C 0.15232 0.55215 0.32902 0.0
H810 H 0.2089 0.4868 0.34434 0.0
C811 C 0.15916 0.57289 0.35856 0.0
C812 C 0.18374 0.56285 0.38341 0.0
H813 H 0.13307 0.56078 0.31055 0.0
H814 H 0.1449 0.59679 0.36195 0.0
C815 C 0.20156 0.53156 0.37789 0.0
loop_
_geom_bond_atom_site_label_1
_geom_bond_atom_site_label_2
_geom_bond_distance
_geom_bond_site_symmetry_2
_ccdc_geom_bond_type
C0 O1 1.306 . S
C0 O3 1.160 . S
O1 C0 1.306 . S
O1 Cd2 2.228 . S
Cd2 O1 2.228 . S
Cd2 O6 2.273 1_655 S
Cd2 O10 2.277 . S
O3 C0 1.160 . S
O3 Cd4 2.203 1_655 S
Cd4 O3 2.203 1_455 S
Cd4 O6 2.411 . S
Cd4 O7 2.333 . S
Cd4 O8 2.352 . S
Cd4 O12 2.277 1_455 S
Cd4 O13 2.356 . S
C5 O10 1.209 . S
C5 O12 1.226 . S
O6 Cd2 2.273 1_455 S
O6 Cd4 2.411 . S
O6 C9 1.320 . S
O7 Cd4 2.333 . S
O7 C9 1.214 . S
O8 Cd4 2.352 . S
O8 C11 1.258 . S
C9 O6 1.320 . S
C9 O7 1.214 . S
O10 Cd2 2.277 . S
O10 C5 1.209 . S
C11 O8 1.258 . S
C11 O13 1.282 . S
O12 Cd4 2.277 1_655 S
O12 C5 1.226 . S
O13 Cd4 2.356 . S
O13 C11 1.282 . S
C14 O15 1.306 . S
C14 O17 1.160 . S
O15 C14 1.306 . S
O15 Cd16 2.228 1_655 S
Cd16 O15 2.228 1_455 S
Cd16 O20 2.273 . S
Cd16 O24 2.277 . S
O17 C14 1.160 . S
O17 Cd18 2.225 . S
Cd18 O17 2.225 . S
Cd18 O20 2.398 1_655 S
Cd18 O21 2.310 1_655 S
Cd18 O22 2.363 . S
Cd18 O26 2.270 1_655 S
Cd18 O27 2.361 . S
C19 O24 1.209 . S
C19 O26 1.226 . S
O20 Cd16 2.273 . S
O20 Cd18 2.398 1_455 S
O20 C23 1.320 . S
O21 Cd18 2.310 1_455 S
O21 C23 1.214 . S
O22 Cd18 2.363 . S
O22 C25 1.258 . S
C23 O20 1.320 . S
C23 O21 1.214 . S
O24 Cd16 2.277 . S
O24 C19 1.209 . S
C25 O22 1.258 . S
C25 O27 1.282 . S
O26 Cd18 2.270 1_455 S
O26 C19 1.226 . S
O27 Cd18 2.361 . S
O27 C25 1.282 . S
C28 O29 1.306 . S
C28 O31 1.160 . S
O29 C28 1.306 . S
O29 Cd30 2.228 . S
Cd30 O29 2.228 . S
Cd30 O34 2.273 . S
Cd30 O38 2.277 . S
O31 C28 1.160 . S
O31 Cd32 2.203 . S
Cd32 O31 2.203 . S
Cd32 O34 2.411 . S
Cd32 O35 2.333 . S
Cd32 O36 2.352 . S
Cd32 O40 2.277 . S
Cd32 O41 2.356 . S
C33 O38 1.209 . S
C33 O40 1.226 . S
O34 Cd30 2.273 . S
O34 Cd32 2.411 . S
O34 C37 1.320 . S
O35 Cd32 2.333 . S
O35 C37 1.214 . S
O36 Cd32 2.352 . S
O36 C39 1.258 . S
C37 O34 1.320 . S
C37 O35 1.214 . S
O38 Cd30 2.277 . S
O38 C33 1.209 . S
C39 O36 1.258 . S
C39 O41 1.282 . S
O40 Cd32 2.277 . S
O40 C33 1.226 . S
O41 Cd32 2.356 . S
O41 C39 1.282 . S
C42 O43 1.306 . S
C42 O45 1.160 . S
O43 C42 1.306 . S
O43 Cd44 2.228 . S
Cd44 O43 2.228 . S
Cd44 O48 2.273 . S
Cd44 O52 2.277 . S
O45 C42 1.160 . S
O45 Cd46 2.203 . S
Cd46 O45 2.203 . S
Cd46 O48 2.411 . S
Cd46 O49 2.333 . S
Cd46 O50 2.352 . S
Cd46 O54 2.277 . S
Cd46 O55 2.356 . S
C47 O52 1.209 . S
C47 O54 1.226 . S
O48 Cd44 2.273 . S
O48 Cd46 2.411 . S
O48 C51 1.320 . S
O49 Cd46 2.333 . S
O49 C51 1.214 . S
O50 Cd46 2.352 . S
O50 C53 1.258 . S
C51 O48 1.320 . S
C51 O49 1.214 . S
O52 Cd44 2.277 . S
O52 C47 1.209 . S
C53 O50 1.258 . S
C53 O55 1.282 . S
O54 Cd46 2.277 . S
O54 C47 1.226 . S
O55 Cd46 2.356 . S
O55 C53 1.282 . S
C56 O57 1.306 . S
C56 O59 1.160 . S
O57 C56 1.306 . S
O57 Cd58 2.228 . S
Cd58 O57 2.228 . S
Cd58 O62 2.273 1_655 S
Cd58 O66 2.277 . S
O59 C56 1.160 . S
O59 Cd60 2.203 1_655 S
Cd60 O59 2.203 1_455 S
Cd60 O62 2.411 . S
Cd60 O63 2.333 . S
Cd60 O64 2.352 . S
Cd60 O68 2.277 1_455 S
Cd60 O69 2.356 . S
C61 O66 1.209 . S
C61 O68 1.226 . S
O62 Cd58 2.273 1_455 S
O62 Cd60 2.411 . S
O62 C65 1.320 . S
O63 Cd60 2.333 . S
O63 C65 1.214 . S
O64 Cd60 2.352 . S
O64 C67 1.258 . S
C65 O62 1.320 . S
C65 O63 1.214 . S
O66 Cd58 2.277 . S
O66 C61 1.209 . S
C67 O64 1.258 . S
C67 O69 1.282 . S
O68 Cd60 2.277 1_655 S
O68 C61 1.226 . S
O69 Cd60 2.356 . S
O69 C67 1.282 . S
C70 O71 1.306 . S
C70 O73 1.160 . S
O71 C70 1.306 . S
O71 Cd72 2.228 . S
Cd72 O71 2.228 . S
Cd72 O76 2.273 . S
Cd72 O80 2.277 . S
O73 C70 1.160 . S
O73 Cd74 2.203 . S
Cd74 O73 2.203 . S
Cd74 O76 2.411 . S
Cd74 O77 2.333 . S
Cd74 O78 2.352 . S
Cd74 O82 2.277 . S
Cd74 O83 2.356 . S
C75 O80 1.209 . S
C75 O82 1.226 . S
O76 Cd72 2.273 . S
O76 Cd74 2.411 . S
O76 C79 1.320 . S
O77 Cd74 2.333 . S
O77 C79 1.214 . S
O78 Cd74 2.352 . S
O78 C81 1.258 . S
C79 O76 1.320 . S
C79 O77 1.214 . S
O80 Cd72 2.277 . S
O80 C75 1.209 . S
C81 O78 1.258 . S
C81 O83 1.282 . S
O82 Cd74 2.277 . S
O82 C75 1.226 . S
O83 Cd74 2.356 . S
O83 C81 1.282 . S
C84 O85 1.306 . S
C84 O87 1.160 . S
O85 C84 1.306 . S
O85 Cd86 2.228 . S
Cd86 O85 2.228 . S
Cd86 O90 2.273 . S
Cd86 O94 2.277 . S
O87 C84 1.160 . S
O87 Cd88 2.203 . S
Cd88 O87 2.203 . S
Cd88 O90 2.411 . S
Cd88 O91 2.333 . S
Cd88 O92 2.352 . S
Cd88 O96 2.277 . S
Cd88 O97 2.356 . S
C89 O94 1.209 . S
C89 O96 1.226 . S
O90 Cd86 2.273 . S
O90 Cd88 2.411 . S
O90 C93 1.320 . S
O91 Cd88 2.333 . S
O91 C93 1.214 . S
O92 Cd88 2.352 . S
O92 C95 1.258 . S
C93 O90 1.320 . S
C93 O91 1.214 . S
O94 Cd86 2.277 . S
O94 C89 1.209 . S
C95 O92 1.258 . S
C95 O97 1.282 . S
O96 Cd88 2.277 . S
O96 C89 1.226 . S
O97 Cd88 2.356 . S
O97 C95 1.282 . S
C98 O99 1.306 . S
C98 O101 1.160 . S
O99 C98 1.306 . S
O99 Cd100 2.228 1_655 S
Cd100 O99 2.228 1_455 S
Cd100 O104 2.273 . S
Cd100 O108 2.277 . S
O101 C98 1.160 . S
O101 Cd102 2.220 . S
Cd102 O101 2.220 . S
Cd102 O104 2.401 1_655 S
Cd102 O105 2.316 1_655 S
Cd102 O106 2.361 . S
Cd102 O110 2.271 1_655 S
Cd102 O111 2.360 . S
C103 O108 1.209 . S
C103 O110 1.226 . S
O104 Cd100 2.273 . S
O104 Cd102 2.401 1_455 S
O104 C107 1.320 . S
O105 Cd102 2.316 1_455 S
O105 C107 1.214 . S
O106 Cd102 2.361 . S
O106 C109 1.258 . S
C107 O104 1.320 . S
C107 O105 1.214 . S
O108 Cd100 2.277 . S
O108 C103 1.209 . S
C109 O106 1.258 . S
C109 O111 1.282 . S
O110 Cd102 2.271 1_455 S
O110 C103 1.226 . S
O111 Cd102 2.360 . S
O111 C109 1.282 . S
C112 O113 1.306 . S
C112 O115 1.160 . S
O113 C112 1.306 . S
O113 Cd114 2.228 . S
Cd114 O113 2.228 . S
Cd114 O118 2.273 1_565 S
Cd114 O122 2.277 . S
O115 C112 1.160 . S
O115 Cd116 2.203 1_565 S
Cd116 O115 2.203 1_545 S
Cd116 O118 2.411 . S
Cd116 O119 2.333 . S
Cd116 O120 2.352 . S
Cd116 O124 2.277 1_545 S
Cd116 O125 2.356 . S
C117 O122 1.209 . S
C117 O124 1.226 . S
O118 Cd114 2.273 1_545 S
O118 Cd116 2.411 . S
O118 C121 1.320 . S
O119 Cd116 2.333 . S
O119 C121 1.214 . S
O120 Cd116 2.352 . S
O120 C123 1.258 . S
C121 O118 1.320 . S
C121 O119 1.214 . S
O122 Cd114 2.277 . S
O122 C117 1.209 . S
C123 O120 1.258 . S
C123 O125 1.282 . S
O124 Cd116 2.277 1_565 S
O124 C117 1.226 . S
O125 Cd116 2.356 . S
O125 C123 1.282 . S
C126 O127 1.306 . S
C126 O129 1.160 . S
O127 C126 1.306 . S
O127 Cd128 2.228 . S
Cd128 O127 2.228 . S
Cd128 O132 2.273 . S
Cd128 O136 2.277 . S
O129 C126 1.160 . S
O129 Cd130 2.203 . S
Cd130 O129 2.203 . S
Cd130 O132 2.411 . S
Cd130 O133 2.333 . S
Cd130 O134 2.352 . S
Cd130 O138 2.277 . S
Cd130 O139 2.356 . S
C131 O136 1.209 . S
C131 O138 1.226 . S
O132 Cd128 2.273 . S
O132 Cd130 2.411 . S
O132 C135 1.320 . S
O133 Cd130 2.333 . S
O133 C135 1.214 . S
O134 Cd130 2.352 . S
O134 C137 1.258 . S
C135 O132 1.320 . S
C135 O133 1.214 . S
O136 Cd128 2.277 . S
O136 C131 1.209 . S
C137 O134 1.258 . S
C137 O139 1.282 . S
O138 Cd130 2.277 . S
O138 C131 1.226 . S
O139 Cd130 2.356 . S
O139 C137 1.282 . S
C140 O141 1.306 . S
C140 O143 1.160 . S
O141 C140 1.306 . S
O141 Cd142 2.228 . S
Cd142 O141 2.228 . S
Cd142 O146 2.273 1_545 S
Cd142 O150 2.277 . S
O143 C140 1.160 . S
O143 Cd144 2.203 . S
Cd144 O143 2.203 . S
Cd144 O146 2.411 1_545 S
Cd144 O147 2.333 1_545 S
Cd144 O148 2.352 1_545 S
Cd144 O152 2.277 . S
Cd144 O153 2.356 1_545 S
C145 O150 1.209 . S
C145 O152 1.226 . S
O146 Cd142 2.273 1_565 S
O146 Cd144 2.411 1_565 S
O146 C149 1.320 . S
O147 Cd144 2.333 1_565 S
O147 C149 1.214 . S
O148 Cd144 2.352 1_565 S
O148 C151 1.258 . S
C149 O146 1.320 . S
C149 O147 1.214 . S
O150 Cd142 2.277 . S
O150 C145 1.209 . S
C151 O148 1.258 . S
C151 O153 1.282 . S
O152 Cd144 2.277 . S
O152 C145 1.226 . S
O153 Cd144 2.356 1_565 S
O153 C151 1.282 . S
C154 O155 1.306 1_556 S
C154 O157 1.160 . S
O155 C154 1.306 1_554 S
O155 Cd156 2.228 . S
Cd156 O155 2.228 . S
Cd156 O160 2.273 . S
Cd156 O164 2.277 . S
O157 C154 1.160 . S
O157 Cd158 2.200 1_556 S
Cd158 O157 2.200 1_554 S
Cd158 O160 2.414 . S
Cd158 O161 2.337 . S
Cd158 O162 2.343 1_554 S
Cd158 O166 2.283 . S
Cd158 O167 2.351 1_554 S
C159 O164 1.209 . S
C159 O166 1.226 . S
O160 Cd156 2.273 . S
O160 Cd158 2.414 . S
O160 C163 1.320 . S
O161 Cd158 2.337 . S
O161 C163 1.214 . S
O162 Cd158 2.343 1_556 S
O162 C165 1.258 . S
C163 O160 1.320 . S
C163 O161 1.214 . S
O164 Cd156 2.277 . S
O164 C159 1.209 . S
C165 O162 1.258 . S
C165 O167 1.282 . S
O166 Cd158 2.283 . S
O166 C159 1.226 . S
O167 Cd158 2.351 1_556 S
O167 C165 1.282 . S
C168 O169 1.306 . S
C168 O171 1.160 . S
O169 C168 1.306 . S
O169 Cd170 2.228 . S
Cd170 O169 2.228 . S
Cd170 O174 2.273 1_554 S
Cd170 O178 2.277 . S
O171 C168 1.160 . S
O171 Cd172 2.203 1_554 S
Cd172 O171 2.203 1_556 S
Cd172 O174 2.411 . S
Cd172 O175 2.333 . S
Cd172 O176 2.352 . S
Cd172 O180 2.276 1_556 S
Cd172 O181 2.357 . S
C173 O178 1.209 . S
C173 O180 1.226 . S
O174 Cd170 2.273 1_556 S
O174 Cd172 2.411 . S
O174 C177 1.320 . S
O175 Cd172 2.333 . S
O175 C177 1.214 . S
O176 Cd172 2.352 . S
O176 C179 1.258 . S
C177 O174 1.320 . S
C177 O175 1.214 . S
O178 Cd170 2.277 . S
O178 C173 1.209 . S
C179 O176 1.258 . S
C179 O181 1.282 . S
O180 Cd172 2.276 1_554 S
O180 C173 1.226 . S
O181 Cd172 2.357 . S
O181 C179 1.282 . S
C182 O183 1.306 . S
C182 O185 1.160 . S
O183 C182 1.306 . S
O183 Cd184 2.228 . S
Cd184 O183 2.228 . S
Cd184 O188 2.273 1_556 S
Cd184 O192 2.277 . S
O185 C182 1.160 . S
O185 Cd186 2.203 1_556 S
Cd186 O185 2.203 1_554 S
Cd186 O188 2.411 . S
Cd186 O189 2.333 . S
Cd186 O190 2.352 . S
Cd186 O194 2.277 1_554 S
Cd186 O195 2.356 . S
C187 O192 1.209 . S
C187 O194 1.226 . S
O188 Cd184 2.273 1_554 S
O188 Cd186 2.411 . S
O188 C191 1.320 . S
O189 Cd186 2.333 . S
O189 C191 1.214 . S
O190 Cd186 2.352 . S
O190 C193 1.258 . S
C191 O188 1.320 . S
C191 O189 1.214 . S
O192 Cd184 2.277 . S
O192 C187 1.209 . S
C193 O190 1.258 . S
C193 O195 1.282 . S
O194 Cd186 2.277 1_556 S
O194 C187 1.226 . S
O195 Cd186 2.356 . S
O195 C193 1.282 . S
C196 O197 1.306 . S
C196 O199 1.160 . S
O197 C196 1.306 . S
O197 Cd198 2.228 . S
Cd198 O197 2.228 . S
Cd198 O202 2.273 . S
Cd198 O206 2.277 . S
O199 C196 1.160 . S
O199 Cd200 2.203 . S
Cd200 O199 2.203 . S
Cd200 O202 2.411 . S
Cd200 O203 2.333 . S
Cd200 O204 2.352 . S
Cd200 O208 2.277 . S
Cd200 O209 2.356 . S
C201 O206 1.209 . S
C201 O208 1.226 . S
O202 Cd198 2.273 . S
O202 Cd200 2.411 . S
O202 C205 1.320 . S
O203 Cd200 2.333 . S
O203 C205 1.214 . S
O204 Cd200 2.352 . S
O204 C207 1.258 . S
C205 O202 1.320 . S
C205 O203 1.214 . S
O206 Cd198 2.277 . S
O206 C201 1.209 . S
C207 O204 1.258 . S
C207 O209 1.282 . S
O208 Cd200 2.277 . S
O208 C201 1.226 . S
O209 Cd200 2.356 . S
O209 C207 1.282 . S
C210 O211 1.306 . S
C210 O213 1.160 . S
O211 C210 1.306 . S
O211 Cd212 2.228 . S
Cd212 O211 2.228 . S
Cd212 O216 2.273 . S
Cd212 O220 2.277 . S
O213 C210 1.160 . S
O213 Cd214 2.203 . S
Cd214 O213 2.203 . S
Cd214 O216 2.411 . S
Cd214 O217 2.333 . S
Cd214 O218 2.352 . S
Cd214 O222 2.277 . S
Cd214 O223 2.356 . S
C215 O220 1.209 . S
C215 O222 1.226 . S
O216 Cd212 2.273 . S
O216 Cd214 2.411 . S
O216 C219 1.320 . S
O217 Cd214 2.333 . S
O217 C219 1.214 . S
O218 Cd214 2.352 . S
O218 C221 1.258 . S
C219 O216 1.320 . S
C219 O217 1.214 . S
O220 Cd212 2.277 . S
O220 C215 1.209 . S
C221 O218 1.258 . S
C221 O223 1.282 . S
O222 Cd214 2.277 . S
O222 C215 1.226 . S
O223 Cd214 2.356 . S
O223 C221 1.282 . S
C224 O225 1.306 1_565 S
C224 O227 1.160 . S
O225 C224 1.306 1_545 S
O225 Cd226 2.228 . S
Cd226 O225 2.228 . S
Cd226 O230 2.273 . S
Cd226 O234 2.277 . S
O227 C224 1.160 . S
O227 Cd228 2.203 1_565 S
Cd228 O227 2.203 1_545 S
Cd228 O230 2.411 . S
Cd228 O231 2.333 . S
Cd228 O232 2.352 1_545 S
Cd228 O236 2.277 . S
Cd228 O237 2.356 1_545 S
C229 O234 1.209 . S
C229 O236 1.226 . S
O230 Cd226 2.273 . S
O230 Cd228 2.411 . S
O230 C233 1.320 . S
O231 Cd228 2.333 . S
O231 C233 1.214 . S
O232 Cd228 2.352 1_565 S
O232 C235 1.258 . S
C233 O230 1.320 . S
C233 O231 1.214 . S
O234 Cd226 2.277 . S
O234 C229 1.209 . S
C235 O232 1.258 . S
C235 O237 1.282 . S
O236 Cd228 2.277 . S
O236 C229 1.226 . S
O237 Cd228 2.356 1_565 S
O237 C235 1.282 . S
C238 O239 1.306 . S
C238 O241 1.160 . S
O239 C238 1.306 . S
O239 Cd240 2.228 . S
Cd240 O239 2.228 . S
Cd240 O244 2.273 . S
Cd240 O248 2.277 . S
O241 C238 1.160 . S
O241 Cd242 2.203 . S
Cd242 O241 2.203 . S
Cd242 O244 2.411 . S
Cd242 O245 2.333 . S
Cd242 O246 2.352 . S
Cd242 O250 2.277 . S
Cd242 O251 2.356 . S
C243 O248 1.209 . S
C243 O250 1.226 . S
O244 Cd240 2.273 . S
O244 Cd242 2.411 . S
O244 C247 1.320 . S
O245 Cd242 2.333 . S
O245 C247 1.214 . S
O246 Cd242 2.352 . S
O246 C249 1.258 . S
C247 O244 1.320 . S
C247 O245 1.214 . S
O248 Cd240 2.277 . S
O248 C243 1.209 . S
C249 O246 1.258 . S
C249 O251 1.282 . S
O250 Cd242 2.277 . S
O250 C243 1.226 . S
O251 Cd242 2.356 . S
O251 C249 1.282 . S
C252 O253 1.306 . S
C252 O255 1.160 . S
O253 C252 1.306 . S
O253 Cd254 2.228 . S
Cd254 O253 2.228 . S
Cd254 O258 2.273 . S
Cd254 O262 2.277 . S
O255 C252 1.160 . S
O255 Cd256 2.203 . S
Cd256 O255 2.203 . S
Cd256 O258 2.411 . S
Cd256 O259 2.333 . S
Cd256 O260 2.352 . S
Cd256 O264 2.277 . S
Cd256 O265 2.356 . S
C257 O262 1.209 . S
C257 O264 1.226 . S
O258 Cd254 2.273 . S
O258 Cd256 2.411 . S
O258 C261 1.320 . S
O259 Cd256 2.333 . S
O259 C261 1.214 . S
O260 Cd256 2.352 . S
O260 C263 1.258 . S
C261 O258 1.320 . S
C261 O259 1.214 . S
O262 Cd254 2.277 . S
O262 C257 1.209 . S
C263 O260 1.258 . S
C263 O265 1.282 . S
O264 Cd256 2.277 . S
O264 C257 1.226 . S
O265 Cd256 2.356 . S
O265 C263 1.282 . S
C266 O267 1.306 . S
C266 O269 1.160 . S
O267 C266 1.306 . S
O267 Cd268 2.228 1_545 S
Cd268 O267 2.228 1_565 S
Cd268 O272 2.273 . S
Cd268 O276 2.277 . S
O269 C266 1.160 . S
O269 Cd270 2.203 . S
Cd270 O269 2.203 . S
Cd270 O272 2.411 1_545 S
Cd270 O273 2.333 1_545 S
Cd270 O274 2.352 . S
Cd270 O278 2.277 1_545 S
Cd270 O279 2.356 . S
C271 O276 1.209 . S
C271 O278 1.226 . S
O272 Cd268 2.273 . S
O272 Cd270 2.411 1_565 S
O272 C275 1.320 . S
O273 Cd270 2.333 1_565 S
O273 C275 1.214 . S
O274 Cd270 2.352 . S
O274 C277 1.258 . S
C275 O272 1.320 . S
C275 O273 1.214 . S
O276 Cd268 2.277 . S
O276 C271 1.209 . S
C277 O274 1.258 . S
C277 O279 1.282 . S
O278 Cd270 2.277 1_565 S
O278 C271 1.226 . S
O279 Cd270 2.356 . S
O279 C277 1.282 . S
C280 O281 1.306 1_556 S
C280 O283 1.160 . S
O281 C280 1.306 1_554 S
O281 Cd282 2.228 . S
Cd282 O281 2.228 . S
Cd282 O286 2.273 . S
Cd282 O290 2.277 . S
O283 C280 1.160 . S
O283 Cd284 2.203 1_556 S
Cd284 O283 2.203 1_554 S
Cd284 O286 2.411 . S
Cd284 O287 2.333 . S
Cd284 O288 2.352 1_554 S
Cd284 O292 2.277 . S
Cd284 O293 2.356 1_554 S
C285 O290 1.209 . S
C285 O292 1.226 . S
O286 Cd282 2.273 . S
O286 Cd284 2.411 . S
O286 C289 1.320 . S
O287 Cd284 2.333 . S
O287 C289 1.214 . S
O288 Cd284 2.352 1_556 S
O288 C291 1.258 . S
C289 O286 1.320 . S
C289 O287 1.214 . S
O290 Cd282 2.277 . S
O290 C285 1.209 . S
C291 O288 1.258 . S
C291 O293 1.282 . S
O292 Cd284 2.277 . S
O292 C285 1.226 . S
O293 Cd284 2.356 1_556 S
O293 C291 1.282 . S
C294 O295 1.306 . S
C294 O297 1.160 . S
O295 C294 1.306 . S
O295 Cd296 2.228 . S
Cd296 O295 2.228 . S
Cd296 O300 2.273 . S
Cd296 O304 2.277 . S
O297 C294 1.160 . S
O297 Cd298 2.203 . S
Cd298 O297 2.203 . S
Cd298 O300 2.411 . S
Cd298 O301 2.333 . S
Cd298 O302 2.352 . S
Cd298 O306 2.277 . S
Cd298 O307 2.356 . S
C299 O304 1.209 . S
C299 O306 1.226 . S
O300 Cd296 2.273 . S
O300 Cd298 2.411 . S
O300 C303 1.320 . S
O301 Cd298 2.333 . S
O301 C303 1.214 . S
O302 Cd298 2.352 . S
O302 C305 1.258 . S
C303 O300 1.320 . S
C303 O301 1.214 . S
O304 Cd296 2.277 . S
O304 C299 1.209 . S
C305 O302 1.258 . S
C305 O307 1.282 . S
O306 Cd298 2.277 . S
O306 C299 1.226 . S
O307 Cd298 2.356 . S
O307 C305 1.282 . S
C308 O309 1.306 . S
C308 O311 1.160 . S
O309 C308 1.306 . S
O309 Cd310 2.228 . S
Cd310 O309 2.228 . S
Cd310 O314 2.273 . S
Cd310 O318 2.277 . S
O311 C308 1.160 . S
O311 Cd312 2.203 . S
Cd312 O311 2.203 . S
Cd312 O314 2.411 . S
Cd312 O315 2.333 . S
Cd312 O316 2.352 . S
Cd312 O320 2.277 . S
Cd312 O321 2.356 . S
C313 O318 1.209 . S
C313 O320 1.226 . S
O314 Cd310 2.273 . S
O314 Cd312 2.411 . S
O314 C317 1.320 . S
O315 Cd312 2.333 . S
O315 C317 1.214 . S
O316 Cd312 2.352 . S
O316 C319 1.258 . S
C317 O314 1.320 . S
C317 O315 1.214 . S
O318 Cd310 2.277 . S
O318 C313 1.209 . S
C319 O316 1.258 . S
C319 O321 1.282 . S
O320 Cd312 2.277 . S
O320 C313 1.226 . S
O321 Cd312 2.356 . S
O321 C319 1.282 . S
C322 O323 1.306 . S
C322 O325 1.160 . S
O323 C322 1.306 . S
O323 Cd324 2.228 . S
Cd324 O323 2.228 . S
Cd324 O328 2.273 . S
Cd324 O332 2.277 . S
O325 C322 1.160 . S
O325 Cd326 2.203 . S
Cd326 O325 2.203 . S
Cd326 O328 2.411 . S
Cd326 O329 2.333 . S
Cd326 O330 2.352 . S
Cd326 O334 2.277 . S
Cd326 O335 2.356 . S
C327 O332 1.209 . S
C327 O334 1.226 . S
O328 Cd324 2.273 . S
O328 Cd326 2.411 . S
O328 C331 1.320 . S
O329 Cd326 2.333 . S
O329 C331 1.214 . S
O330 Cd326 2.352 . S
O330 C333 1.258 . S
C331 O328 1.320 . S
C331 O329 1.214 . S
O332 Cd324 2.277 . S
O332 C327 1.209 . S
C333 O330 1.258 . S
C333 O335 1.282 . S
O334 Cd326 2.277 . S
O334 C327 1.226 . S
O335 Cd326 2.356 . S
O335 C333 1.282 . S
C336 C337 1.387 . S
C336 H340 0.950 . S
C336 C345 1.390 . S
C337 C336 1.387 . S
C337 C339 1.387 . S
H338 C345 0.950 . S
C339 C337 1.387 . S
C339 C341 1.390 . S
C339 H343 0.950 . S
H340 C336 0.950 . S
C341 C339 1.390 . S
C341 C342 1.387 . S
C341 H344 0.950 . S
C342 C341 1.387 . S
C342 C345 1.387 . S
H343 C339 0.950 . S
H344 C341 0.950 . S
C345 C336 1.390 . S
C345 H338 0.950 . S
C345 C342 1.387 . S
C346 C347 1.387 . S
C346 H350 0.950 . S
C346 C355 1.390 . S
C347 C346 1.387 . S
C347 C349 1.387 . S
H348 C355 0.950 . S
C349 C347 1.387 . S
C349 C351 1.390 . S
C349 H353 0.950 . S
H350 C346 0.950 . S
C351 C349 1.390 . S
C351 C352 1.387 . S
C351 H354 0.950 . S
C352 C351 1.387 . S
C352 C355 1.387 . S
H353 C349 0.950 . S
H354 C351 0.950 . S
C355 C346 1.390 . S
C355 H348 0.950 . S
C355 C352 1.387 . S
C356 C357 1.387 . S
C356 H360 0.950 . S
C356 C365 1.390 . S
C357 C356 1.387 . S
C357 C359 1.387 . S
H358 C365 0.950 . S
C359 C357 1.387 . S
C359 C361 1.390 . S
C359 H363 0.950 . S
H360 C356 0.950 . S
C361 C359 1.390 . S
C361 C362 1.387 . S
C361 H364 0.950 . S
C362 C361 1.387 . S
C362 C365 1.387 . S
H363 C359 0.950 . S
H364 C361 0.950 . S
C365 C356 1.390 . S
C365 H358 0.950 . S
C365 C362 1.387 . S
C366 C367 1.387 . S
C366 H370 0.950 . S
C366 C375 1.390 . S
C367 C366 1.387 . S
C367 C369 1.387 . S
H368 C375 0.950 . S
C369 C367 1.387 . S
C369 C371 1.390 . S
C369 H373 0.950 . S
H370 C366 0.950 . S
C371 C369 1.390 . S
C371 C372 1.387 . S
C371 H374 0.950 . S
C372 C371 1.387 . S
C372 C375 1.387 . S
H373 C369 0.950 . S
H374 C371 0.950 . S
C375 C366 1.390 . S
C375 H368 0.950 . S
C375 C372 1.387 . S
C376 C377 1.387 . S
C376 H380 0.950 . S
C376 C385 1.390 . S
C377 C376 1.387 . S
C377 C379 1.387 . S
H378 C385 0.950 . S
C379 C377 1.387 . S
C379 C381 1.390 . S
C379 H383 0.950 . S
H380 C376 0.950 . S
C381 C379 1.390 . S
C381 C382 1.387 . S
C381 H384 0.950 . S
C382 C381 1.387 . S
C382 C385 1.387 . S
H383 C379 0.950 . S
H384 C381 0.950 . S
C385 C376 1.390 . S
C385 H378 0.950 . S
C385 C382 1.387 . S
C386 C387 1.387 . S
C386 H390 0.950 . S
C386 C395 1.390 . S
C387 C386 1.387 . S
C387 C389 1.387 . S
H388 C395 0.950 . S
C389 C387 1.387 . S
C389 C391 1.390 . S
C389 H393 0.950 . S
H390 C386 0.950 . S
C391 C389 1.390 . S
C391 C392 1.387 . S
C391 H394 0.950 . S
C392 C391 1.387 . S
C392 C395 1.387 . S
H393 C389 0.950 . S
H394 C391 0.950 . S
C395 C386 1.390 . S
C395 H388 0.950 . S
C395 C392 1.387 . S
C396 C397 1.387 . S
C396 H400 0.950 . S
C396 C405 1.390 . S
C397 C396 1.387 . S
C397 C399 1.387 . S
H398 C405 0.950 . S
C399 C397 1.387 . S
C399 C401 1.390 . S
C399 H403 0.950 . S
H400 C396 0.950 . S
C401 C399 1.390 . S
C401 C402 1.387 . S
C401 H404 0.950 . S
C402 C401 1.387 . S
C402 C405 1.387 . S
H403 C399 0.950 . S
H404 C401 0.950 . S
C405 C396 1.390 . S
C405 H398 0.950 . S
C405 C402 1.387 . S
C406 C407 1.387 . S
C406 H410 0.950 . S
C406 C415 1.390 . S
C407 C406 1.387 . S
C407 C409 1.387 . S
H408 C415 0.950 . S
C409 C407 1.387 . S
C409 C411 1.390 . S
C409 H413 0.950 . S
H410 C406 0.950 . S
C411 C409 1.390 . S
C411 C412 1.387 . S
C411 H414 0.950 . S
C412 C411 1.387 . S
C412 C415 1.387 . S
H413 C409 0.950 . S
H414 C411 0.950 . S
C415 C406 1.390 . S
C415 H408 0.950 . S
C415 C412 1.387 . S
C416 C417 1.387 . S
C416 H420 0.950 . S
C416 C425 1.390 . S
C417 C416 1.387 . S
C417 C419 1.387 . S
H418 C425 0.950 . S
C419 C417 1.387 . S
C419 C421 1.390 . S
C419 H423 0.950 . S
H420 C416 0.950 . S
C421 C419 1.390 . S
C421 C422 1.387 . S
C421 H424 0.950 . S
C422 C421 1.387 . S
C422 C425 1.387 . S
H423 C419 0.950 . S
H424 C421 0.950 . S
C425 C416 1.390 . S
C425 H418 0.950 . S
C425 C422 1.387 . S
C426 C427 1.387 . S
C426 H430 0.950 . S
C426 C435 1.390 . S
C427 C426 1.387 . S
C427 C429 1.387 . S
H428 C435 0.950 . S
C429 C427 1.387 . S
C429 C431 1.390 . S
C429 H433 0.950 . S
H430 C426 0.950 . S
C431 C429 1.390 . S
C431 C432 1.387 . S
C431 H434 0.950 . S
C432 C431 1.387 . S
C432 C435 1.387 . S
H433 C429 0.950 . S
H434 C431 0.950 . S
C435 C426 1.390 . S
C435 H428 0.950 . S
C435 C432 1.387 . S
C436 C437 1.387 . S
C436 H440 0.953 . S
C436 C445 1.390 . S
C437 C436 1.387 . S
C437 C439 1.387 . S
H438 C445 0.950 . S
C439 C437 1.387 . S
C439 C441 1.390 . S
C439 H443 0.950 . S
H440 C436 0.953 . S
C441 C439 1.390 . S
C441 C442 1.387 . S
C441 H444 0.950 . S
C442 C441 1.387 . S
C442 C445 1.387 . S
H443 C439 0.950 . S
H444 C441 0.950 . S
C445 C436 1.390 . S
C445 H438 0.950 . S
C445 C442 1.387 . S
C446 C447 1.387 . S
C446 H450 0.950 . S
C446 C455 1.390 . S
C447 C446 1.387 . S
C447 C449 1.387 . S
H448 C455 0.950 . S
C449 C447 1.387 . S
C449 C451 1.390 . S
C449 H453 0.950 . S
H450 C446 0.950 . S
C451 C449 1.390 . S
C451 C452 1.387 . S
C451 H454 0.950 . S
C452 C451 1.387 . S
C452 C455 1.387 . S
H453 C449 0.950 . S
H454 C451 0.950 . S
C455 C446 1.390 . S
C455 H448 0.950 . S
C455 C452 1.387 . S
C456 C457 1.387 . S
C456 H460 0.950 . S
C456 C465 1.390 . S
C457 C456 1.387 . S
C457 C459 1.387 . S
H458 C465 0.950 . S
C459 C457 1.387 . S
C459 C461 1.390 . S
C459 H463 0.950 . S
H460 C456 0.950 . S
C461 C459 1.390 . S
C461 C462 1.387 . S
C461 H464 0.950 . S
C462 C461 1.387 . S
C462 C465 1.387 . S
H463 C459 0.950 . S
H464 C461 0.950 . S
C465 C456 1.390 . S
C465 H458 0.950 . S
C465 C462 1.387 . S
C466 C467 1.387 . S
C466 H470 0.950 . S
C466 C475 1.390 . S
C467 C466 1.387 . S
C467 C469 1.387 . S
H468 C475 0.950 . S
C469 C467 1.387 . S
C469 C471 1.390 . S
C469 H473 0.950 . S
H470 C466 0.950 . S
C471 C469 1.390 . S
C471 C472 1.387 . S
C471 H474 0.950 . S
C472 C471 1.387 . S
C472 C475 1.387 . S
H473 C469 0.950 . S
H474 C471 0.950 . S
C475 C466 1.390 . S
C475 H468 0.950 . S
C475 C472 1.387 . S
C476 C477 1.387 . S
C476 H480 0.950 . S
C476 C485 1.390 . S
C477 C476 1.387 . S
C477 C479 1.387 . S
H478 C485 0.950 . S
C479 C477 1.387 . S
C479 C481 1.390 . S
C479 H483 0.950 . S
H480 C476 0.950 . S
C481 C479 1.390 . S
C481 C482 1.387 . S
C481 H484 0.950 . S
C482 C481 1.387 . S
C482 C485 1.387 . S
H483 C479 0.950 . S
H484 C481 0.950 . S
C485 C476 1.390 . S
C485 H478 0.950 . S
C485 C482 1.387 . S
C486 C487 1.387 . S
C486 H490 0.950 . S
C486 C495 1.390 . S
C487 C486 1.387 . S
C487 C489 1.387 . S
H488 C495 0.950 . S
C489 C487 1.387 . S
C489 C491 1.390 . S
C489 H493 0.950 . S
H490 C486 0.950 . S
C491 C489 1.390 . S
C491 C492 1.387 . S
C491 H494 0.950 . S
C492 C491 1.387 . S
C492 C495 1.387 . S
H493 C489 0.950 . S
H494 C491 0.950 . S
C495 C486 1.390 . S
C495 H488 0.950 . S
C495 C492 1.387 . S
C496 C497 1.387 . S
C496 H500 0.950 . S
C496 C505 1.390 . S
C497 C496 1.387 . S
C497 C499 1.387 . S
H498 C505 0.950 . S
C499 C497 1.387 . S
C499 C501 1.390 . S
C499 H503 0.950 . S
H500 C496 0.950 . S
C501 C499 1.390 . S
C501 C502 1.387 . S
C501 H504 0.950 . S
C502 C501 1.387 . S
C502 C505 1.387 . S
H503 C499 0.950 . S
H504 C501 0.950 . S
C505 C496 1.390 . S
C505 H498 0.950 . S
C505 C502 1.387 . S
C506 C507 1.387 . S
C506 H510 0.950 . S
C506 C515 1.390 . S
C507 C506 1.387 . S
C507 C509 1.387 . S
H508 C515 0.950 . S
C509 C507 1.387 . S
C509 C511 1.390 . S
C509 H513 0.950 . S
H510 C506 0.950 . S
C511 C509 1.390 . S
C511 C512 1.387 . S
C511 H514 0.950 . S
C512 C511 1.387 . S
C512 C515 1.387 . S
H513 C509 0.950 . S
H514 C511 0.950 . S
C515 C506 1.390 . S
C515 H508 0.950 . S
C515 C512 1.387 . S
C516 C517 1.387 . S
C516 H520 0.950 . S
C516 C525 1.390 . S
C517 C516 1.387 . S
C517 C519 1.387 . S
H518 C525 0.950 . S
C519 C517 1.387 . S
C519 C521 1.390 . S
C519 H523 0.950 . S
H520 C516 0.950 . S
C521 C519 1.390 . S
C521 C522 1.387 . S
C521 H524 0.950 . S
C522 C521 1.387 . S
C522 C525 1.387 . S
H523 C519 0.950 . S
H524 C521 0.950 . S
C525 C516 1.390 . S
C525 H518 0.950 . S
C525 C522 1.387 . S
C526 C527 1.387 . S
C526 H530 0.950 . S
C526 C535 1.390 . S
C527 C526 1.387 . S
C527 C529 1.387 . S
H528 C535 0.950 . S
C529 C527 1.387 . S
C529 C531 1.390 . S
C529 H533 0.950 . S
H530 C526 0.950 . S
C531 C529 1.390 . S
C531 C532 1.387 . S
C531 H534 0.950 . S
C532 C531 1.387 . S
C532 C535 1.387 . S
H533 C529 0.950 . S
H534 C531 0.950 . S
C535 C526 1.390 . S
C535 H528 0.950 . S
C535 C532 1.387 . S
C536 C537 1.387 . S
C536 H540 0.950 . S
C536 C545 1.390 . S
C537 C536 1.387 . S
C537 C539 1.387 . S
H538 C545 0.950 . S
C539 C537 1.387 . S
C539 C541 1.390 . S
C539 H543 0.950 . S
H540 C536 0.950 . S
C541 C539 1.390 . S
C541 C542 1.387 . S
C541 H544 0.950 . S
C542 C541 1.387 . S
C542 C545 1.387 . S
H543 C539 0.950 . S
H544 C541 0.950 . S
C545 C536 1.390 . S
C545 H538 0.950 . S
C545 C542 1.387 . S
C546 C547 1.387 . S
C546 H550 0.950 . S
C546 C555 1.390 . S
C547 C546 1.387 . S
C547 C549 1.387 . S
H548 C555 0.950 . S
C549 C547 1.387 . S
C549 C551 1.390 . S
C549 H553 0.950 . S
H550 C546 0.950 . S
C551 C549 1.390 . S
C551 C552 1.387 . S
C551 H554 0.950 . S
C552 C551 1.387 . S
C552 C555 1.387 . S
H553 C549 0.950 . S
H554 C551 0.950 . S
C555 C546 1.390 . S
C555 H548 0.950 . S
C555 C552 1.387 . S
C556 C557 1.387 . S
C556 H560 0.950 . S
C556 C565 1.390 . S
C557 C556 1.387 . S
C557 C559 1.387 . S
H558 C565 0.950 . S
C559 C557 1.387 . S
C559 C561 1.390 . S
C559 H563 0.950 . S
H560 C556 0.950 . S
C561 C559 1.390 . S
C561 C562 1.387 . S
C561 H564 0.950 . S
C562 C561 1.387 . S
C562 C565 1.387 . S
H563 C559 0.950 . S
H564 C561 0.950 . S
C565 C556 1.390 . S
C565 H558 0.950 . S
C565 C562 1.387 . S
C566 C567 1.387 . S
C566 H570 0.950 . S
C566 C575 1.390 . S
C567 C566 1.387 . S
C567 C569 1.387 . S
H568 C575 0.950 . S
C569 C567 1.387 . S
C569 C571 1.390 . S
C569 H573 0.950 . S
H570 C566 0.950 . S
C571 C569 1.390 . S
C571 C572 1.387 . S
C571 H574 0.950 . S
C572 C571 1.387 . S
C572 C575 1.387 . S
H573 C569 0.950 . S
H574 C571 0.950 . S
C575 C566 1.390 . S
C575 H568 0.950 . S
C575 C572 1.387 . S
C576 C577 1.387 . S
C576 H580 0.950 . S
C576 C585 1.390 . S
C577 C576 1.387 . S
C577 C579 1.387 . S
H578 C585 0.950 . S
C579 C577 1.387 . S
C579 C581 1.390 . S
C579 H583 0.950 . S
H580 C576 0.950 . S
C581 C579 1.390 . S
C581 C582 1.387 . S
C581 H584 0.950 . S
C582 C581 1.387 . S
C582 C585 1.387 . S
H583 C579 0.950 . S
H584 C581 0.950 . S
C585 C576 1.390 . S
C585 H578 0.950 . S
C585 C582 1.387 . S
C586 C587 1.387 . S
C586 H590 0.950 . S
C586 C595 1.390 . S
C587 C586 1.387 . S
C587 C589 1.387 . S
H588 C595 0.950 . S
C589 C587 1.387 . S
C589 C591 1.390 . S
C589 H593 0.950 . S
H590 C586 0.950 . S
C591 C589 1.390 . S
C591 C592 1.387 . S
C591 H594 0.950 . S
C592 C591 1.387 . S
C592 C595 1.387 . S
H593 C589 0.950 . S
H594 C591 0.950 . S
C595 C586 1.390 . S
C595 H588 0.950 . S
C595 C592 1.387 . S
C596 C597 1.387 . S
C596 H600 0.950 . S
C596 C605 1.390 . S
C597 C596 1.387 . S
C597 C599 1.387 . S
H598 C605 0.950 . S
C599 C597 1.387 . S
C599 C601 1.390 . S
C599 H603 0.950 . S
H600 C596 0.950 . S
C601 C599 1.390 . S
C601 C602 1.387 . S
C601 H604 0.950 . S
C602 C601 1.387 . S
C602 C605 1.387 . S
H603 C599 0.950 . S
H604 C601 0.950 . S
C605 C596 1.390 . S
C605 H598 0.950 . S
C605 C602 1.387 . S
C606 C607 1.387 . S
C606 H610 0.950 . S
C606 C615 1.390 . S
C607 C606 1.387 . S
C607 C609 1.387 . S
H608 C615 0.950 . S
C609 C607 1.387 . S
C609 C611 1.390 . S
C609 H613 0.950 . S
H610 C606 0.950 . S
C611 C609 1.390 . S
C611 C612 1.387 . S
C611 H614 0.950 1_556 S
C612 C611 1.387 . S
C612 C615 1.387 . S
H613 C609 0.950 . S
H614 C611 0.950 1_554 S
C615 C606 1.390 . S
C615 H608 0.950 . S
C615 C612 1.387 . S
C616 C617 1.387 . S
C616 H620 0.950 . S
C616 C625 1.390 . S
C617 C616 1.387 . S
C617 C619 1.387 . S
H618 C625 0.956 . S
C619 C617 1.387 . S
C619 C621 1.390 . S
C619 H623 0.950 . S
H620 C616 0.950 . S
C621 C619 1.390 . S
C621 C622 1.387 . S
C621 H624 0.950 . S
C622 C621 1.387 . S
C622 C625 1.387 . S
H623 C619 0.950 . S
H624 C621 0.950 . S
C625 C616 1.390 . S
C625 H618 0.956 . S
C625 C622 1.387 . S
C626 C627 1.387 . S
C626 H630 0.950 . S
C626 C635 1.390 . S
C627 C626 1.387 . S
C627 C629 1.387 . S
H628 C635 0.950 . S
C629 C627 1.387 . S
C629 C631 1.390 . S
C629 H633 0.950 . S
H630 C626 0.950 . S
C631 C629 1.390 . S
C631 C632 1.387 . S
C631 H634 0.950 . S
C632 C631 1.387 . S
C632 C635 1.387 . S
H633 C629 0.950 . S
H634 C631 0.950 . S
C635 C626 1.390 . S
C635 H628 0.950 . S
C635 C632 1.387 . S
C636 C637 1.387 . S
C636 H640 0.950 . S
C636 C645 1.390 . S
C637 C636 1.387 . S
C637 C639 1.387 . S
H638 C645 0.950 . S
C639 C637 1.387 . S
C639 C641 1.390 . S
C639 H643 0.950 . S
H640 C636 0.950 . S
C641 C639 1.390 . S
C641 C642 1.387 . S
C641 H644 0.950 . S
C642 C641 1.387 . S
C642 C645 1.387 . S
H643 C639 0.950 . S
H644 C641 0.950 . S
C645 C636 1.390 . S
C645 H638 0.950 . S
C645 C642 1.387 . S
C646 C647 1.387 . S
C646 H650 0.950 . S
C646 C655 1.390 . S
C647 C646 1.387 . S
C647 C649 1.387 . S
H648 C655 0.950 . S
C649 C647 1.387 . S
C649 C651 1.390 . S
C649 H653 0.950 1_655 S
H650 C646 0.950 . S
C651 C649 1.390 . S
C651 C652 1.387 . S
C651 H654 0.950 . S
C652 C651 1.387 . S
C652 C655 1.387 . S
H653 C649 0.950 1_455 S
H654 C651 0.950 . S
C655 C646 1.390 . S
C655 H648 0.950 . S
C655 C652 1.387 . S
C656 C657 1.387 . S
C656 H660 0.950 . S
C656 C665 1.390 . S
C657 C656 1.387 . S
C657 C659 1.387 . S
H658 C665 0.950 . S
C659 C657 1.387 . S
C659 C661 1.390 . S
C659 H663 0.950 . S
H660 C656 0.950 . S
C661 C659 1.390 . S
C661 C662 1.387 . S
C661 H664 0.950 . S
C662 C661 1.387 . S
C662 C665 1.387 . S
H663 C659 0.950 . S
H664 C661 0.950 . S
C665 C656 1.390 . S
C665 H658 0.950 . S
C665 C662 1.387 . S
C666 C667 1.387 . S
C666 H670 0.950 1_556 S
C666 C675 1.390 . S
C667 C666 1.387 . S
C667 C669 1.387 . S
H668 C675 0.950 . S
C669 C667 1.387 . S
C669 C671 1.390 . S
C669 H673 0.950 . S
H670 C666 0.950 1_554 S
C671 C669 1.390 . S
C671 C672 1.387 . S
C671 H674 0.950 . S
C672 C671 1.387 . S
C672 C675 1.387 . S
H673 C669 0.950 . S
H674 C671 0.950 . S
C675 C666 1.390 . S
C675 H668 0.950 . S
C675 C672 1.387 . S
C676 C677 1.387 . S
C676 H680 0.950 . S
C676 C685 1.390 . S
C677 C676 1.387 . S
C677 C679 1.387 . S
H678 C685 0.950 . S
C679 C677 1.387 . S
C679 C681 1.390 . S
C679 H683 0.950 . S
H680 C676 0.950 . S
C681 C679 1.390 . S
C681 C682 1.387 . S
C681 H684 0.950 . S
C682 C681 1.387 . S
C682 C685 1.387 . S
H683 C679 0.950 . S
H684 C681 0.950 . S
C685 C676 1.390 . S
C685 H678 0.950 . S
C685 C682 1.387 . S
C686 C687 1.387 . S
C686 H690 0.950 . S
C686 C695 1.390 . S
C687 C686 1.387 . S
C687 C689 1.387 . S
H688 C695 0.950 . S
C689 C687 1.387 . S
C689 C691 1.390 . S
C689 H693 0.950 . S
H690 C686 0.950 . S
C691 C689 1.390 . S
C691 C692 1.387 . S
C691 H694 0.950 . S
C692 C691 1.387 . S
C692 C695 1.387 . S
H693 C689 0.950 . S
H694 C691 0.950 . S
C695 C686 1.390 . S
C695 H688 0.950 . S
C695 C692 1.387 . S
C696 C697 1.387 . S
C696 H700 0.950 . S
C696 C705 1.390 . S
C697 C696 1.387 . S
C697 C699 1.387 . S
H698 C705 0.950 . S
C699 C697 1.387 . S
C699 C701 1.390 . S
C699 H703 0.950 . S
H700 C696 0.950 . S
C701 C699 1.390 . S
C701 C702 1.387 . S
C701 H704 0.950 . S
C702 C701 1.387 . S
C702 C705 1.387 . S
H703 C699 0.950 . S
H704 C701 0.950 . S
C705 C696 1.390 . S
C705 H698 0.950 . S
C705 C702 1.387 . S
C706 C707 1.387 . S
C706 H710 0.950 . S
C706 C715 1.390 . S
C707 C706 1.387 . S
C707 C709 1.387 . S
H708 C715 0.950 . S
C709 C707 1.387 . S
C709 C711 1.390 . S
C709 H713 0.950 . S
H710 C706 0.950 . S
C711 C709 1.390 . S
C711 C712 1.387 . S
C711 H714 0.950 . S
C712 C711 1.387 . S
C712 C715 1.387 . S
H713 C709 0.950 . S
H714 C711 0.950 . S
C715 C706 1.390 . S
C715 H708 0.950 . S
C715 C712 1.387 . S
C716 C717 1.387 . S
C716 H720 0.950 . S
C716 C725 1.390 . S
C717 C716 1.387 . S
C717 C719 1.387 . S
H718 C725 0.950 . S
C719 C717 1.387 . S
C719 C721 1.390 . S
C719 H723 0.950 . S
H720 C716 0.950 . S
C721 C719 1.390 . S
C721 C722 1.387 . S
C721 H724 0.950 . S
C722 C721 1.387 . S
C722 C725 1.387 . S
H723 C719 0.950 . S
H724 C721 0.950 . S
C725 C716 1.390 . S
C725 H718 0.950 . S
C725 C722 1.387 . S
C726 C727 1.387 . S
C726 H730 0.950 . S
C726 C735 1.390 . S
C727 C726 1.387 . S
C727 C729 1.387 . S
H728 C735 0.950 . S
C729 C727 1.387 . S
C729 C731 1.390 . S
C729 H733 0.950 . S
H730 C726 0.950 . S
C731 C729 1.390 . S
C731 C732 1.387 . S
C731 H734 0.950 . S
C732 C731 1.387 . S
C732 C735 1.387 . S
H733 C729 0.950 . S
H734 C731 0.950 . S
C735 C726 1.390 . S
C735 H728 0.950 . S
C735 C732 1.387 . S
C736 C737 1.387 . S
C736 H740 0.950 . S
C736 C745 1.390 . S
C737 C736 1.387 . S
C737 C739 1.387 . S
H738 C745 0.950 . S
C739 C737 1.387 . S
C739 C741 1.390 . S
C739 H743 0.950 . S
H740 C736 0.950 . S
C741 C739 1.390 . S
C741 C742 1.387 . S
C741 H744 0.950 . S
C742 C741 1.387 . S
C742 C745 1.387 . S
H743 C739 0.950 . S
H744 C741 0.950 . S
C745 C736 1.390 . S
C745 H738 0.950 . S
C745 C742 1.387 . S
C746 C747 1.387 . S
C746 H750 0.950 . S
C746 C755 1.390 . S
C747 C746 1.387 . S
C747 C749 1.387 . S
H748 C755 0.950 . S
C749 C747 1.387 . S
C749 C751 1.390 . S
C749 H753 0.950 . S
H750 C746 0.950 . S
C751 C749 1.390 . S
C751 C752 1.387 . S
C751 H754 0.950 . S
C752 C751 1.387 . S
C752 C755 1.387 . S
H753 C749 0.950 . S
H754 C751 0.950 . S
C755 C746 1.390 . S
C755 H748 0.950 . S
C755 C752 1.387 . S
C756 C757 1.387 . S
C756 H760 0.950 . S
C756 C765 1.390 . S
C757 C756 1.387 . S
C757 C759 1.387 . S
H758 C765 0.950 . S
C759 C757 1.387 . S
C759 C761 1.390 . S
C759 H763 0.950 . S
H760 C756 0.950 . S
C761 C759 1.390 . S
C761 C762 1.387 . S
C761 H764 0.950 . S
C762 C761 1.387 . S
C762 C765 1.387 . S
H763 C759 0.950 . S
H764 C761 0.950 . S
C765 C756 1.390 . S
C765 H758 0.950 . S
C765 C762 1.387 . S
C766 C767 1.387 . S
C766 H770 0.950 . S
C766 C775 1.390 . S
C767 C766 1.387 . S
C767 C769 1.387 . S
H768 C775 0.950 . S
C769 C767 1.387 . S
C769 C771 1.390 . S
C769 H773 0.950 . S
H770 C766 0.950 . S
C771 C769 1.390 . S
C771 C772 1.387 . S
C771 H774 0.950 . S
C772 C771 1.387 . S
C772 C775 1.387 . S
H773 C769 0.950 . S
H774 C771 0.950 . S
C775 C766 1.390 . S
C775 H768 0.950 . S
C775 C772 1.387 . S
C776 C777 1.387 . S
C776 H780 0.950 . S
C776 C785 1.390 . S
C777 C776 1.387 . S
C777 C779 1.387 . S
H778 C785 0.950 . S
C779 C777 1.387 . S
C779 C781 1.390 . S
C779 H783 0.950 . S
H780 C776 0.950 . S
C781 C779 1.390 . S
C781 C782 1.387 . S
C781 H784 0.950 . S
C782 C781 1.387 . S
C782 C785 1.387 . S
H783 C779 0.950 . S
H784 C781 0.950 . S
C785 C776 1.390 . S
C785 H778 0.950 . S
C785 C782 1.387 . S
C786 C787 1.387 . S
C786 H790 0.950 . S
C786 C795 1.390 . S
C787 C786 1.387 . S
C787 C789 1.387 . S
H788 C795 0.950 . S
C789 C787 1.387 . S
C789 C791 1.390 . S
C789 H793 0.950 . S
H790 C786 0.950 . S
C791 C789 1.390 . S
C791 C792 1.387 . S
C791 H794 0.950 . S
C792 C791 1.387 . S
C792 C795 1.387 . S
H793 C789 0.950 . S
H794 C791 0.950 . S
C795 C786 1.390 . S
C795 H788 0.950 . S
C795 C792 1.387 . S
C796 C797 1.387 . S
C796 H800 0.950 . S
C796 C805 1.390 . S
C797 C796 1.387 . S
C797 C799 1.387 . S
H798 C805 0.950 . S
C799 C797 1.387 . S
C799 C801 1.390 . S
C799 H803 0.950 . S
H800 C796 0.950 . S
C801 C799 1.390 . S
C801 C802 1.387 . S
C801 H804 0.950 . S
C802 C801 1.387 . S
C802 C805 1.387 . S
H803 C799 0.950 . S
H804 C801 0.950 . S
C805 C796 1.390 . S
C805 H798 0.950 . S
C805 C802 1.387 . S
C806 C807 1.387 . S
C806 H810 0.950 . S
C806 C815 1.390 . S
C807 C806 1.387 . S
C807 C809 1.387 . S
H808 C815 0.950 . S
C809 C807 1.387 . S
C809 C811 1.390 . S
C809 H813 0.950 . S
H810 C806 0.950 . S
C811 C809 1.390 . S
C811 C812 1.387 . S
C811 H814 0.950 . S
C812 C811 1.387 . S
C812 C815 1.387 . S
H813 C809 0.950 . S
H814 C811 0.950 . S
C815 C806 1.390 . S
C815 H808 0.950 . S
C815 C812 1.387 . S
C337 C201 1.489 . S
C342 C11 1.486 . S
C347 C14 1.529 . S
C352 C210 1.531 . S
C357 C257 1.490 . S
C362 C33 1.490 . S
C367 C51 1.576 . S
C372 C191 1.582 . S
C377 C207 1.448 . S
C382 C67 1.447 . S
C387 C79 1.566 . S
C392 C219 1.560 . S
C397 C89 1.451 . S
C402 C263 1.450 . S
C407 C98 1.509 . S
C412 C182 1.507 . S
C417 C137 1.406 . S
C422 C123 1.406 . S
C427 C145 1.533 . S
C432 C131 1.533 . S
C437 C151 1.459 . S
C442 C165 1.457 . S
C447 C159 1.477 . S
C452 C117 1.477 . S
C457 C168 1.531 . S
C462 C42 1.529 . S
C467 C61 1.451 . S
C472 C235 1.450 . S
C477 C247 1.582 . S
C482 C23 1.576 . S
C487 C25 1.489 . S
C492 C303 1.482 . S
C497 C126 1.454 . S
C502 C9 1.450 . S
C507 C331 1.521 . S
C512 C47 1.534 . S
C517 C154 1.443 . S
C522 C28 1.444 . S
C527 C294 1.466 . S
C532 C109 1.464 . S
C537 C135 1.461 . S
C542 C84 1.467 . S
C547 C75 1.506 . S
C552 C322 1.503 . S
C557 C65 1.470 . S
C562 C163 1.469 . S
C567 C215 1.539 . S
C572 C275 1.527 . S
C577 C224 1.459 . S
C582 C221 1.457 . S
C587 C193 1.497 . S
C592 C233 1.491 . S
C597 C266 1.496 . S
C602 C187 1.498 . S
C607 C37 1.451 . S
C612 C280 1.455 . S
C617 C140 1.503 . S
C622 C103 1.506 . S
C627 C0 1.445 . S
C632 C308 1.443 . S
C637 C271 1.489 . S
C642 C39 1.485 . S
C647 C5 1.490 . S
C652 C229 1.490 . S
C657 C277 1.448 . S
C662 C95 1.447 . S
C667 C177 1.560 . S
C672 C107 1.565 . S
C677 C70 1.509 . S
C682 C238 1.507 . S
C687 C305 1.406 . S
C692 C291 1.406 . S
C697 C327 1.532 . S
C702 C285 1.533 . S
C707 C319 1.458 . S
C712 C333 1.459 . S
C717 C299 1.477 . S
C722 C313 1.477 . S
C727 C121 1.482 . S
C732 C53 1.489 . S
C737 C19 1.534 . S
C742 C149 1.521 . S
C747 C81 1.464 . S
C752 C112 1.465 . S
C757 C289 1.461 . S
C762 C56 1.468 . S
C767 C93 1.470 . S
C772 C317 1.470 . S
C777 C173 1.540 . S
C782 C205 1.529 . S
C787 C252 1.459 . S
C792 C179 1.457 . S
C797 C249 1.497 . S
C802 C261 1.491 . S
C807 C196 1.496 . S
C812 C243 1.498 . S
