# Generated by pormake.
# Topology pcl, (4)-cn, num edge types: 1
# Building blocks:
#     Node 0, Type 0, BuildingBlock: QUQFOY_clean_sbu_3, # of connection points: 4
#     Node 1, Type 0, BuildingBlock: QUQFOY_clean_sbu_3, # of connection points: 4
#     Node 2, Type 0, BuildingBlock: QUQFOY_clean_sbu_3, # of connection points: 4
#     Node 3, Type 0, BuildingBlock: QUQFOY_clean_sbu_3, # of connection points: 4
#     Node 4, Type 0, BuildingBlock: QUQFOY_clean_sbu_3, # of connection points: 4
#     Node 5, Type 0, BuildingBlock: QUQFOY_clean_sbu_3, # of connection points: 4
#     Node 6, Type 0, BuildingBlock: QUQFOY_clean_sbu_3, # of connection points: 4
#     Node 7, Type 0, BuildingBlock: QUQFOY_clean_sbu_3, # of connection points: 4
#     Node 8, Type 0, BuildingBlock: QUQFOY_clean_sbu_3, # of connection points: 4
#     Node 9, Type 0, BuildingBlock: QUQFOY_clean_sbu_3, # of connection points: 4
#     Node 10, Type 0, BuildingBlock: QUQFOY_clean_sbu_3, # of connection points: 4
#     Node 11, Type 0, BuildingBlock: QUQFOY_clean_sbu_3, # of connection points: 4
#     Node 12, Type 0, BuildingBlock: QUQFOY_clean_sbu_3, # of connection points: 4
#     Node 13, Type 0, BuildingBlock: QUQFOY_clean_sbu_3, # of connection points: 4
#     Node 14, Type 0, BuildingBlock: QUQFOY_clean_sbu_3, # of connection points: 4
#     Node 15, Type 0, BuildingBlock: QUQFOY_clean_sbu_3, # of connection points: 4
#     Edge 16, Type (0, 0), BuildingBlock: ZUJKAS_clean_linker_0, # of connection points: 2
#     Edge 17, Type (0, 0), BuildingBlock: ZUJKAS_clean_linker_0, # of connection points: 2
#     Edge 18, Type (0, 0), BuildingBlock: ZUJKAS_clean_linker_0, # of connection points: 2
#     Edge 19, Type (0, 0), BuildingBlock: ZUJKAS_clean_linker_0, # of connection points: 2
#     Edge 20, Type (0, 0), BuildingBlock: ZUJKAS_clean_linker_0, # of connection points: 2
#     Edge 21, Type (0, 0), BuildingBlock: ZUJKAS_clean_linker_0, # of connection points: 2
#     Edge 22, Type (0, 0), BuildingBlock: ZUJKAS_clean_linker_0, # of connection points: 2
#     Edge 23, Type (0, 0), BuildingBlock: ZUJKAS_clean_linker_0, # of connection points: 2
#     Edge 24, Type (0, 0), BuildingBlock: ZUJKAS_clean_linker_0, # of connection points: 2
#     Edge 25, Type (0, 0), BuildingBlock: ZUJKAS_clean_linker_0, # of connection points: 2
#     Edge 26, Type (0, 0), BuildingBlock: ZUJKAS_clean_linker_0, # of connection points: 2
#     Edge 27, Type (0, 0), BuildingBlock: ZUJKAS_clean_linker_0, # of connection points: 2
#     Edge 28, Type (0, 0), BuildingBlock: ZUJKAS_clean_linker_0, # of connection points: 2
#     Edge 29, Type (0, 0), BuildingBlock: ZUJKAS_clean_linker_0, # of connection points: 2
#     Edge 30, Type (0, 0), BuildingBlock: ZUJKAS_clean_linker_0, # of connection points: 2
#     Edge 31, Type (0, 0), BuildingBlock: ZUJKAS_clean_linker_0, # of connection points: 2
#     Edge 32, Type (0, 0), BuildingBlock: ZUJKAS_clean_linker_0, # of connection points: 2
#     Edge 33, Type (0, 0), BuildingBlock: ZUJKAS_clean_linker_0, # of connection points: 2
#     Edge 34, Type (0, 0), BuildingBlock: ZUJKAS_clean_linker_0, # of connection points: 2
#     Edge 35, Type (0, 0), BuildingBlock: ZUJKAS_clean_linker_0, # of connection points: 2
#     Edge 36, Type (0, 0), BuildingBlock: ZUJKAS_clean_linker_0, # of connection points: 2
#     Edge 37, Type (0, 0), BuildingBlock: ZUJKAS_clean_linker_0, # of connection points: 2
#     Edge 38, Type (0, 0), BuildingBlock: ZUJKAS_clean_linker_0, # of connection points: 2
#     Edge 39, Type (0, 0), BuildingBlock: ZUJKAS_clean_linker_0, # of connection points: 2
#     Edge 40, Type (0, 0), BuildingBlock: ZUJKAS_clean_linker_0, # of connection points: 2
#     Edge 41, Type (0, 0), BuildingBlock: ZUJKAS_clean_linker_0, # of connection points: 2
#     Edge 42, Type (0, 0), BuildingBlock: ZUJKAS_clean_linker_0, # of connection points: 2
#     Edge 43, Type (0, 0), BuildingBlock: ZUJKAS_clean_linker_0, # of connection points: 2
#     Edge 44, Type (0, 0), BuildingBlock: ZUJKAS_clean_linker_0, # of connection points: 2
#     Edge 45, Type (0, 0), BuildingBlock: ZUJKAS_clean_linker_0, # of connection points: 2
#     Edge 46, Type (0, 0), BuildingBlock: ZUJKAS_clean_linker_0, # of connection points: 2
#     Edge 47, Type (0, 0), BuildingBlock: ZUJKAS_clean_linker_0, # of connection points: 2
# Relax obj value: 0.064
# Max RMSD: 0.050
# Mean RMSD: 0.046
data_MOF--net-pcl--node1-QUQFOY_clean_sbu_3--edge1-ZUJKAS_clean_linker_0
_symmetry_space_group_name_H-M    P1
_symmetry_Int_Tables_number       1
_symmetry_cell_setting            triclinic
loop_
_symmetry_equiv_pos_as_xyz
'x, y, z'
_cell_length_a     69.478521
_cell_length_b     55.652522
_cell_length_c     57.66843
_cell_angle_alpha  89.97151
_cell_angle_beta   90.097155
_cell_angle_gamma 89.932755
loop_
_atom_site_label
_atom_site_type_symbol
_atom_site_fract_x
_atom_site_fract_y
_atom_site_fract_z
_atom_type_partial_charge
C0 C 0.13335 0.3901 0.06651 0.0
O1 O 0.12997 0.3921 0.08805 0.0
Cd2 Cd 0.12709 0.35753 0.11233 0.0
O3 O 0.13672 0.36958 0.0576 0.0
Cd4 Cd 0.14083 0.32683 0.06879 0.0
C5 C 0.0936 0.32558 0.07994 0.0
O6 O 0.15542 0.33407 0.1061 0.0
O7 O 0.14452 0.29829 0.10127 0.0
O8 O 0.16807 0.32908 0.04279 0.0
C9 C 0.15354 0.31301 0.11404 0.0
O10 O 0.09792 0.33756 0.09806 0.0
C11 C 0.16547 0.30859 0.03369 0.0
O12 O 0.10644 0.31999 0.06518 0.0
O13 O 0.15118 0.29643 0.04081 0.0
C14 C 0.8565 0.59843 0.56558 0.0
O15 O 0.86014 0.59588 0.58702 0.0
Cd16 Cd 0.86323 0.62986 0.61209 0.0
O17 O 0.85325 0.61921 0.55714 0.0
Cd18 Cd 0.84972 0.66175 0.56902 0.0
C19 C 0.89693 0.66254 0.5808 0.0
O20 O 0.83484 0.65335 0.6059 0.0
O21 O 0.84553 0.68942 0.6019 0.0
O22 O 0.82275 0.65953 0.54262 0.0
C23 C 0.83633 0.67436 0.61407 0.0
O24 O 0.89251 0.65018 0.59863 0.0
C25 C 0.82499 0.68031 0.53404 0.0
O26 O 0.88417 0.66844 0.56598 0.0
O27 O 0.83902 0.69271 0.54159 0.0
C28 C 0.12558 0.59848 0.92001 0.0
O29 O 0.12016 0.59626 0.89908 0.0
Cd30 Cd 0.11769 0.62982 0.8733 0.0
O31 O 0.1308 0.61886 0.92785 0.0
Cd32 Cd 0.1358 0.66077 0.91471 0.0
C33 C 0.0882 0.66699 0.90577 0.0
O34 O 0.14758 0.65051 0.87673 0.0
O35 O 0.14088 0.68794 0.88137 0.0
O36 O 0.16537 0.65811 0.93671 0.0
C37 C 0.14752 0.67153 0.86839 0.0
O38 O 0.09085 0.65378 0.88801 0.0
C39 C 0.16345 0.6781 0.94699 0.0
O40 O 0.10199 0.67156 0.91965 0.0
O41 O 0.14831 0.69011 0.94255 0.0
C42 C 0.85177 0.39201 0.4167 0.0
O43 O 0.85658 0.39406 0.39556 0.0
Cd44 Cd 0.86132 0.35984 0.37104 0.0
O45 O 0.84808 0.37144 0.42531 0.0
Cd46 Cd 0.84559 0.32876 0.41378 0.0
C47 C 0.89345 0.32773 0.40505 0.0
O48 O 0.83349 0.33517 0.37511 0.0
O49 O 0.84344 0.29921 0.38206 0.0
O50 O 0.81511 0.32721 0.43381 0.0
C51 C 0.83562 0.31381 0.368 0.0
O52 O 0.88989 0.33999 0.38686 0.0
C53 C 0.81947 0.30959 0.44677 0.0
O54 O 0.88 0.32193 0.41894 0.0
O55 O 0.83629 0.30087 0.44459 0.0
C56 C 0.85187 0.64129 0.85532 0.0
O57 O 0.86043 0.62155 0.85939 0.0
Cd58 Cd 0.86525 0.60546 0.89755 0.0
O59 O 0.84555 0.65421 0.87187 0.0
Cd60 Cd 0.84464 0.65361 0.91463 0.0
C61 C 0.89308 0.65055 0.92038 0.0
O62 O 0.8355 0.61153 0.91743 0.0
O63 O 0.84147 0.62932 0.94985 0.0
O64 O 0.81363 0.67291 0.90944 0.0
C65 C 0.83583 0.6106 0.93936 0.0
O66 O 0.89142 0.62868 0.91423 0.0
C67 C 0.81633 0.68906 0.92461 0.0
O68 O 0.87851 0.66446 0.92054 0.0
O69 O 0.83254 0.68912 0.93485 0.0
C70 C 0.13153 0.34923 0.3549 0.0
O71 O 0.12366 0.36959 0.35792 0.0
Cd72 Cd 0.12049 0.38852 0.39493 0.0
O73 O 0.13791 0.33716 0.37204 0.0
Cd74 Cd 0.1396 0.34079 0.41475 0.0
C75 C 0.09144 0.34633 0.42051 0.0
O76 O 0.15059 0.38229 0.41415 0.0
O77 O 0.14366 0.36799 0.44781 0.0
O78 O 0.16888 0.31767 0.40902 0.0
C79 C 0.15034 0.38519 0.43591 0.0
O80 O 0.09378 0.36774 0.41325 0.0
C81 C 0.16686 0.3048 0.427 0.0
O82 O 0.10555 0.33172 0.42135 0.0
O83 O 0.15183 0.30823 0.43906 0.0
C84 C 0.85363 0.34615 0.1308 0.0
O85 O 0.85984 0.36748 0.12853 0.0
Cd86 Cd 0.86356 0.38677 0.09166 0.0
O87 O 0.84861 0.33396 0.11312 0.0
Cd88 Cd 0.84598 0.3379 0.0706 0.0
C89 C 0.89402 0.34546 0.0662 0.0
O90 O 0.83426 0.37901 0.07141 0.0
O91 O 0.8408 0.36486 0.03756 0.0
O92 O 0.81745 0.31404 0.07747 0.0
C93 C 0.83441 0.38211 0.04965 0.0
O94 O 0.89107 0.36646 0.07423 0.0
C95 C 0.81954 0.30066 0.05985 0.0
O96 O 0.88024 0.33053 0.06416 0.0
O97 O 0.83422 0.30434 0.04724 0.0
C98 C 0.14002 0.64165 0.62668 0.0
O99 O 0.13441 0.62036 0.62253 0.0
Cd100 Cd 0.12984 0.6049 0.58418 0.0
O101 O 0.14394 0.65598 0.61013 0.0
Cd102 Cd 0.14506 0.65666 0.56734 0.0
C103 C 0.09717 0.647 0.56434 0.0
O104 O 0.15809 0.61636 0.56347 0.0
O105 O 0.14934 0.63344 0.53163 0.0
O106 O 0.17302 0.6815 0.57485 0.0
C107 C 0.15694 0.61547 0.54157 0.0
O108 O 0.10101 0.62538 0.57001 0.0
C109 C 0.16977 0.69623 0.55851 0.0
O110 O 0.11042 0.66276 0.56331 0.0
O111 O 0.15473 0.69283 0.54639 0.0
C112 C 0.63165 0.89306 0.0683 0.0
O113 O 0.62771 0.89507 0.08971 0.0
Cd114 Cd 0.6248 0.86113 0.11499 0.0
O115 O 0.63525 0.87254 0.05949 0.0
Cd116 Cd 0.63873 0.82981 0.07069 0.0
C117 C 0.5914 0.82837 0.08348 0.0
O118 O 0.65278 0.83747 0.10802 0.0
O119 O 0.64411 0.80084 0.10258 0.0
O120 O 0.66696 0.83021 0.04626 0.0
C121 C 0.6519 0.81624 0.11579 0.0
O122 O 0.59577 0.84058 0.10143 0.0
C123 C 0.6629 0.81109 0.03533 0.0
O124 O 0.60414 0.82288 0.06852 0.0
O125 O 0.64726 0.80064 0.04067 0.0
C126 C 0.35678 0.10343 0.56392 0.0
O127 O 0.3601 0.10078 0.58542 0.0
Cd128 Cd 0.36255 0.13435 0.611 0.0
O129 O 0.35351 0.12423 0.55553 0.0
Cd130 Cd 0.34971 0.16658 0.56808 0.0
C131 C 0.39663 0.16778 0.58118 0.0
O132 O 0.33426 0.15783 0.60456 0.0
O133 O 0.34533 0.19373 0.60146 0.0
O134 O 0.32294 0.16531 0.54123 0.0
C135 C 0.33591 0.17858 0.61327 0.0
O136 O 0.39186 0.15524 0.59877 0.0
C137 C 0.32531 0.18637 0.53336 0.0
O138 O 0.3842 0.17359 0.56592 0.0
O139 O 0.33939 0.19836 0.54136 0.0
C140 C 0.63105 0.10179 0.92202 0.0
O141 O 0.62794 0.09974 0.90042 0.0
Cd142 Cd 0.62612 0.13419 0.8758 0.0
O143 O 0.63444 0.12232 0.93092 0.0
Cd144 Cd 0.6389 0.16494 0.91972 0.0
C145 C 0.59206 0.1671 0.9063 0.0
O146 O 0.65476 0.15667 0.88345 0.0
O147 O 0.64418 0.19284 0.88717 0.0
O148 O 0.66522 0.16209 0.94705 0.0
C149 C 0.65375 0.17778 0.8754 0.0
O150 O 0.59675 0.15496 0.88843 0.0
C151 C 0.6629 0.18283 0.95569 0.0
O152 O 0.60453 0.17243 0.92164 0.0
O153 O 0.64911 0.19543 0.94778 0.0
C154 C 0.35586 0.89524 0.41711 0.0
O155 O 0.35951 0.89705 0.39561 0.0
Cd156 Cd 0.36119 0.86269 0.37076 0.0
O157 O 0.35188 0.8749 0.42606 0.0
Cd158 Cd 0.34695 0.83217 0.41566 0.0
C159 C 0.39406 0.82883 0.40243 0.0
O160 O 0.33251 0.84077 0.37871 0.0
O161 O 0.33953 0.80358 0.38408 0.0
O162 O 0.32068 0.83619 0.44292 0.0
C163 C 0.3323 0.81951 0.37097 0.0
O164 O 0.38979 0.84121 0.38453 0.0
C165 C 0.32289 0.81565 0.45209 0.0
O166 O 0.38132 0.82369 0.41749 0.0
O167 O 0.33655 0.80268 0.44447 0.0
C168 C 0.3513 0.13821 0.85475 0.0
O169 O 0.35877 0.11774 0.85848 0.0
Cd170 Cd 0.36249 0.10142 0.89656 0.0
O171 O 0.34572 0.15134 0.87151 0.0
Cd172 Cd 0.34512 0.14981 0.91432 0.0
C173 C 0.3932 0.14392 0.91835 0.0
O174 O 0.33286 0.10895 0.91667 0.0
O175 O 0.34314 0.12408 0.94877 0.0
O176 O 0.31613 0.17347 0.90855 0.0
C177 C 0.33452 0.10711 0.93846 0.0
O178 O 0.39039 0.12208 0.91269 0.0
C179 C 0.31892 0.18728 0.9257 0.0
O180 O 0.37929 0.15882 0.91869 0.0
O181 O 0.33413 0.18392 0.9375 0.0
C182 C 0.63856 0.84744 0.35574 0.0
O183 O 0.63305 0.86892 0.35901 0.0
Cd184 Cd 0.62747 0.88484 0.39686 0.0
O185 O 0.642 0.83367 0.37289 0.0
Cd186 Cd 0.64238 0.83516 0.41573 0.0
C187 C 0.5946 0.84306 0.4166 0.0
O188 O 0.65546 0.87554 0.41939 0.0
O189 O 0.64328 0.86037 0.45048 0.0
O190 O 0.6713 0.81157 0.41029 0.0
C191 C 0.65263 0.87725 0.44101 0.0
O192 O 0.59842 0.86452 0.41045 0.0
C193 C 0.66831 0.7974 0.42712 0.0
O194 O 0.60796 0.82751 0.41861 0.0
O195 O 0.65292 0.80046 0.43863 0.0
C196 C 0.34634 0.84863 0.13081 0.0
O197 O 0.3522 0.86993 0.12741 0.0
Cd198 Cd 0.35811 0.88586 0.0896 0.0
O199 O 0.34288 0.83478 0.11374 0.0
Cd200 Cd 0.3434 0.83646 0.07092 0.0
C201 C 0.39126 0.84456 0.07021 0.0
O202 O 0.33035 0.87677 0.06657 0.0
O203 O 0.34335 0.86158 0.03596 0.0
O204 O 0.3135 0.81439 0.07304 0.0
C205 C 0.33356 0.87834 0.04502 0.0
O206 O 0.38744 0.86611 0.07605 0.0
C207 C 0.318 0.79869 0.05806 0.0
O208 O 0.3779 0.82901 0.06851 0.0
O209 O 0.33469 0.80022 0.04921 0.0
C210 C 0.63977 0.13615 0.63682 0.0
O211 O 0.63183 0.1159 0.63361 0.0
Cd212 Cd 0.62574 0.1 0.59577 0.0
O213 O 0.64472 0.14912 0.61966 0.0
Cd214 Cd 0.64363 0.14732 0.57695 0.0
C215 C 0.59536 0.14353 0.57497 0.0
O216 O 0.6543 0.10591 0.57315 0.0
O217 O 0.64266 0.12207 0.5421 0.0
O218 O 0.67508 0.16572 0.57837 0.0
C219 C 0.65142 0.1046 0.55151 0.0
O220 O 0.59785 0.12172 0.58094 0.0
C221 C 0.67131 0.18255 0.56424 0.0
O222 O 0.60957 0.15789 0.57376 0.0
O223 O 0.65432 0.18335 0.5561 0.0
H224 H 0.07827 0.30202 0.04235 0.0
H225 H 0.04411 0.29565 0.03366 0.0
H226 H 0.02876 0.32948 0.09832 0.0
H227 H 0.06264 0.33552 0.10735 0.0
H228 H 0.00695 0.28846 0.08832 0.0
H229 H 0.00966 0.35204 0.01368 0.0
H230 H 0.02579 0.32676 0.01299 0.0
H231 H 0.02901 0.34976 0.03447 0.0
C232 C 0.06762 0.30787 0.05483 0.0
C233 C 0.07319 0.31953 0.07544 0.0
C234 C 0.04812 0.30429 0.04978 0.0
C235 C 0.03394 0.31243 0.06519 0.0
C236 C 0.0395 0.3231 0.08618 0.0
H237 H 0.92612 0.3735 0.06673 0.0
H238 H 0.9594 0.36087 0.06204 0.0
C239 C 0.0589 0.32662 0.09127 0.0
C240 C 0.01324 0.31137 0.05926 0.0
H241 H 0.9793 0.33877 0.02552 0.0
C242 C 0.00085 0.29902 0.0743 0.0
C243 C 0.00543 0.32527 0.04097 0.0
C244 C 0.01807 0.33937 0.02462 0.0
C245 C 0.9808 0.30142 0.07247 0.0
C246 C 0.97302 0.31626 0.05486 0.0
C247 C 0.98538 0.32734 0.03891 0.0
C248 C 0.95256 0.32364 0.0551 0.0
C249 C 0.9682 0.28951 0.0904 0.0
C250 C 0.93762 0.30697 0.05216 0.0
C251 C 0.91844 0.31413 0.05497 0.0
C252 C 0.91397 0.33809 0.0607 0.0
C253 C 0.929 0.35488 0.06252 0.0
C254 C 0.94807 0.34772 0.05974 0.0
H255 H 0.97671 0.28138 0.10472 0.0
H256 H 0.95797 0.30272 0.09792 0.0
H257 H 0.95966 0.27507 0.08204 0.0
H258 H 0.94081 0.28836 0.04822 0.0
H259 H 0.90719 0.30079 0.0533 0.0
H260 H 0.92756 0.65378 0.60926 0.0
H261 H 0.96148 0.66071 0.60122 0.0
H262 H 0.94676 0.69251 0.53531 0.0
H263 H 0.91259 0.68533 0.54306 0.0
H264 H 0.97416 0.65773 0.5314 0.0
H265 H -0.00531 0.72052 0.60124 0.0
H266 H 0.98217 0.69499 0.61269 0.0
H267 H 0.9699 0.71522 0.59322 0.0
C268 C 0.93145 0.66257 0.59318 0.0
C269 C 0.91733 0.66893 0.57678 0.0
C270 C 0.95087 0.66672 0.5887 0.0
C271 C 0.95662 0.6775 0.56784 0.0
C272 C 0.94259 0.68437 0.55161 0.0
H273 H 0.08241 0.69216 0.55686 0.0
H274 H 0.04842 0.70337 0.55296 0.0
C275 C 0.92308 0.68024 0.55608 0.0
C276 C 0.97736 0.67921 0.56226 0.0
H277 H 0.02044 0.69571 0.58573 0.0
C278 C 0.98427 0.66651 0.54297 0.0
C279 C 0.99053 0.69104 0.57708 0.0
C280 C 0.98391 0.70643 0.59706 0.0
C281 C 0.00408 0.66372 0.53919 0.0
C282 C 0.01723 0.67353 0.55534 0.0
C283 C 0.01034 0.68788 0.57354 0.0
C284 C 0.03785 0.66689 0.55526 0.0
C285 C 0.01072 0.64963 0.51833 0.0
C286 C 0.04312 0.64271 0.55786 0.0
C287 C 0.06242 0.63626 0.56013 0.0
C288 C 0.07689 0.6539 0.56003 0.0
C289 C 0.07162 0.67812 0.55695 0.0
C290 C 0.05223 0.68457 0.55472 0.0
H291 H 7e-05 0.65079 0.50397 0.0
H292 H 0.02485 0.65616 0.51196 0.0
H293 H 0.01221 0.63042 0.52317 0.0
H294 H 0.03224 0.62883 0.5589 0.0
H295 H 0.06593 0.61745 0.5625 0.0
H296 H 0.92601 0.62467 0.92595 0.0
H297 H 0.9584 0.63967 0.93207 0.0
H298 H 0.93683 0.71233 0.93461 0.0
H299 H 0.90404 0.69739 0.92807 0.0
H300 H 0.96661 0.70772 0.90471 0.0
H301 H 0.98712 0.66555 0.98745 0.0
H302 H 0.97693 0.64333 0.96862 0.0
H303 H 0.96231 0.66817 0.9783 0.0
C304 C 0.92801 0.64384 0.92812 0.0
C305 C 0.91241 0.65983 0.92641 0.0
C306 C 0.94658 0.65238 0.93191 0.0
C307 C 0.95001 0.67708 0.93428 0.0
C308 C 0.93445 0.69316 0.93311 0.0
H309 H 0.0755 0.69136 0.9443 0.0
H310 H 0.04221 0.70228 0.95368 0.0
C311 C 0.91575 0.68459 0.92935 0.0
C312 C 0.97014 0.68575 0.93523 0.0
H313 H 0.01338 0.67109 0.95938 0.0
C314 C 0.97679 0.70033 0.91708 0.0
C315 C 0.98341 0.67671 0.95169 0.0
C316 C 0.977 0.66281 0.97275 0.0
C317 C -0.00344 0.70383 0.91351 0.0
C318 C 0.0099 0.69202 0.92817 0.0
C319 C 0.00318 0.67974 0.94781 0.0
C320 C 0.03033 0.68886 0.9215 0.0
C321 C 0.00293 0.71921 0.89341 0.0
C322 C 0.03468 0.67777 0.9003 0.0
C323 C 0.05357 0.6715 0.89492 0.0
C324 C 0.06856 0.67595 0.91074 0.0
C325 C 0.06429 0.6877 0.93173 0.0
C326 C 0.04529 0.69399 0.93711 0.0
H327 H 0.99248 0.73397 0.89018 0.0
H328 H 0.01738 0.72712 0.8965 0.0
H329 H 0.00353 0.70804 0.87748 0.0
H330 H 0.02334 0.67296 0.88826 0.0
H331 H 0.05629 0.66248 0.87861 0.0
H332 H 0.07937 0.30085 0.43236 0.0
H333 H 0.04609 0.28743 0.4382 0.0
H334 H 0.026 0.35997 0.42761 0.0
H335 H 0.05891 0.37357 0.42227 0.0
H336 H 0.00692 0.33626 0.46339 0.0
H337 H 0.00956 0.28139 0.38256 0.0
H338 H 0.02676 0.27464 0.40498 0.0
H339 H 0.02817 0.30271 0.38972 0.0
C340 C 0.06786 0.31397 0.43159 0.0
C341 C 0.07178 0.33823 0.42654 0.0
C342 C 0.04887 0.30625 0.43483 0.0
C343 C 0.03359 0.32266 0.43299 0.0
C344 C 0.03759 0.347 0.42908 0.0
H345 H 0.92538 0.33798 0.37952 0.0
H346 H 0.95884 0.33061 0.38969 0.0
C347 C 0.05645 0.35472 0.42591 0.0
C348 C 0.01324 0.31482 0.43333 0.0
H349 H 0.97934 0.28847 0.39887 0.0
C350 C 0.00086 0.32532 0.44965 0.0
C351 C 0.00547 0.30057 0.41529 0.0
C352 C 0.01808 0.28923 0.39701 0.0
C353 C 0.9808 0.32353 0.44739 0.0
C354 C 0.97302 0.31049 0.42854 0.0
C355 C 0.98542 0.29842 0.41329 0.0
C356 C 0.95247 0.3126 0.42205 0.0
C357 C 0.96814 0.33719 0.46408 0.0
C358 C 0.93773 0.30448 0.43668 0.0
C359 C 0.91844 0.30884 0.43097 0.0
C360 C 0.91365 0.32128 0.41048 0.0
C361 C 0.92849 0.32848 0.39549 0.0
C362 C 0.94767 0.32419 0.40123 0.0
H363 H 0.97659 0.34901 0.4758 0.0
H364 H 0.95759 0.34841 0.45446 0.0
H365 H 0.95998 0.32427 0.47492 0.0
H366 H 0.94114 0.29516 0.45266 0.0
H367 H 0.90733 0.30289 0.44281 0.0
H368 H 0.4228 0.87368 0.07012 0.0
H369 H 0.45637 0.86206 0.0658 0.0
H370 H 0.43954 0.7881 0.05666 0.0
H371 H 0.40567 0.79954 0.06124 0.0
H372 H 0.46822 0.79386 0.08921 0.0
H373 H 0.48729 0.84248 0.00902 0.0
H374 H 0.47557 0.86197 0.02934 0.0
H375 H 0.46264 0.83684 0.01732 0.0
C376 C 0.42614 0.85496 0.06695 0.0
C377 C 0.41152 0.83753 0.06606 0.0
C378 C 0.44537 0.84838 0.06426 0.0
C379 C 0.45041 0.8243 0.06047 0.0
C380 C 0.4359 0.80683 0.05933 0.0
H381 H 0.5755 0.80685 0.04513 0.0
H382 H 0.5413 0.79943 0.03761 0.0
C383 C 0.41658 0.81341 0.06197 0.0
C384 C 0.47099 0.81745 0.05976 0.0
H385 H 0.51366 0.83411 0.03553 0.0
C386 C 0.47814 0.8022 0.07714 0.0
C387 C 0.48387 0.82791 0.04372 0.0
C388 C 0.47691 0.843 0.02365 0.0
C389 C 0.49799 0.79876 0.08009 0.0
C390 C 0.51094 0.81123 0.06552 0.0
C391 C 0.50373 0.82483 0.04693 0.0
C392 C 0.53173 0.81283 0.07087 0.0
C393 C 0.50491 0.78242 0.09925 0.0
C394 C 0.53766 0.82276 0.09206 0.0
C395 C 0.55709 0.82705 0.09639 0.0
C396 C 0.57104 0.82168 0.07953 0.0
C397 C 0.56513 0.81116 0.0585 0.0
C398 C 0.54561 0.80689 0.05417 0.0
H399 H 0.49421 0.7681 0.10294 0.0
H400 H 0.51888 0.77388 0.0948 0.0
H401 H 0.50684 0.79307 0.11535 0.0
H402 H 0.52717 0.82805 0.10496 0.0
H403 H 0.5611 0.83519 0.11276 0.0
H404 H 0.5626 0.1168 0.57253 0.0
H405 H 0.52979 0.1309 0.56688 0.0
H406 H 0.55017 0.20378 0.56066 0.0
H407 H 0.58333 0.18981 0.56658 0.0
H408 H 0.52013 0.19899 0.59166 0.0
H409 H 0.50165 0.15431 0.50919 0.0
H410 H 0.51203 0.13338 0.52929 0.0
H411 H 0.52623 0.15816 0.51878 0.0
C412 C 0.56022 0.13582 0.56973 0.0
C413 C 0.57562 0.15218 0.57004 0.0
C414 C 0.54143 0.14382 0.56627 0.0
C415 C 0.53759 0.16831 0.5629 0.0
C416 C 0.55289 0.18476 0.56297 0.0
H417 H 0.41332 0.19021 0.54387 0.0
H418 H 0.4477 0.19744 0.53752 0.0
C419 C 0.57179 0.17674 0.56637 0.0
C420 C 0.51737 0.17655 0.56139 0.0
H421 H 0.47484 0.16266 0.5351 0.0
C422 C 0.51027 0.19156 0.57895 0.0
C423 C 0.50458 0.16731 0.54452 0.0
C424 C 0.51157 0.15261 0.52424 0.0
C425 C 0.49046 0.19577 0.58129 0.0
C426 C 0.4775 0.18431 0.56593 0.0
C427 C 0.48475 0.17114 0.54712 0.0
C428 C 0.4566 0.18306 0.57072 0.0
C429 C 0.48357 0.21174 0.60071 0.0
C430 C 0.45023 0.17266 0.59149 0.0
C431 C 0.4307 0.16848 0.59515 0.0
C432 C 0.41709 0.17441 0.57801 0.0
C433 C 0.42343 0.18545 0.55743 0.0
C434 C 0.44305 0.18961 0.55377 0.0
H435 H 0.49446 0.22566 0.60497 0.0
H436 H 0.46979 0.22076 0.59621 0.0
H437 H 0.48131 0.2007 0.6165 0.0
H438 H 0.46045 0.16685 0.60455 0.0
H439 H 0.42636 0.15994 0.61119 0.0
H440 H 0.56185 0.15875 0.87709 0.0
H441 H 0.52782 0.16533 0.88464 0.0
H442 H 0.5416 0.19673 0.95098 0.0
H443 H 0.57588 0.18984 0.94374 0.0
H444 H 0.51488 0.16176 0.95463 0.0
H445 H 0.49331 0.22376 0.88461 0.0
H446 H 0.50632 0.19867 0.87302 0.0
H447 H 0.51819 0.2191 0.89261 0.0
C448 C 0.55774 0.16742 0.89315 0.0
C449 C 0.57162 0.17366 0.90985 0.0
C450 C 0.53824 0.17139 0.89734 0.0
C451 C 0.53218 0.1819 0.91821 0.0
C452 C 0.546 0.1888 0.93468 0.0
H453 H 0.40583 0.18997 0.9261 0.0
H454 H 0.4392 0.20333 0.93111 0.0
C455 C 0.56557 0.18482 0.9305 0.0
C456 C 0.51138 0.183 0.92362 0.0
H457 H 0.46809 0.19746 0.8994 0.0
C458 C 0.50465 0.17008 0.94288 0.0
C459 C 0.49802 0.19425 0.9086 0.0
C460 C 0.50437 0.20995 0.88871 0.0
C461 C 0.48491 0.16638 0.94634 0.0
C462 C 0.47165 0.17547 0.92989 0.0
C463 C 0.47829 0.19016 0.91181 0.0
C464 C 0.45133 0.16756 0.92943 0.0
C465 C 0.47848 0.15206 0.96715 0.0
C466 C 0.44715 0.14306 0.92684 0.0
C467 C 0.42821 0.13539 0.92394 0.0
C468 C 0.41303 0.1521 0.92339 0.0
C469 C 0.41719 0.17663 0.9265 0.0
C470 C 0.43622 0.18431 0.92936 0.0
H471 H 0.48881 0.154 0.98176 0.0
H472 H 0.46398 0.15774 0.9731 0.0
H473 H 0.4779 0.13274 0.96245 0.0
H474 H 0.45862 0.12987 0.92625 0.0
H475 H 0.42556 0.11637 0.92157 0.0
H476 H 0.40953 0.80479 0.43972 0.0
H477 H 0.4437 0.79736 0.44761 0.0
H478 H 0.45857 0.83013 0.38228 0.0
H479 H 0.42468 0.8372 0.37404 0.0
H480 H 0.48012 0.78892 0.39223 0.0
H481 H 0.47898 0.85318 0.46633 0.0
H482 H 0.46264 0.82819 0.46766 0.0
H483 H 0.45932 0.851 0.44598 0.0
C484 C 0.42007 0.81014 0.42691 0.0
C485 C 0.41437 0.82187 0.40637 0.0
C486 C 0.43957 0.80596 0.4315 0.0
C487 C 0.45364 0.81355 0.41569 0.0
C488 C 0.44793 0.82418 0.39473 0.0
H489 H 0.56294 0.87188 0.41396 0.0
H490 H 0.52932 0.86027 0.41748 0.0
C491 C 0.42851 0.8283 0.3901 0.0
C492 C 0.47441 0.81214 0.42124 0.0
H493 H 0.50903 0.83903 0.45424 0.0
C494 C 0.48649 0.79946 0.40607 0.0
C495 C 0.48258 0.82604 0.43927 0.0
C496 C 0.4703 0.84053 0.45571 0.0
C497 C 0.50659 0.80144 0.40758 0.0
C498 C 0.51473 0.81619 0.42497 0.0
C499 C 0.50267 0.82768 0.44101 0.0
C500 C 0.53533 0.82283 0.42465 0.0
C501 C 0.51888 0.78909 0.3896 0.0
C502 C 0.54989 0.80567 0.42793 0.0
C503 C 0.56926 0.81224 0.4258 0.0
C504 C 0.5743 0.83611 0.42045 0.0
C505 C 0.55962 0.85333 0.41797 0.0
C506 C 0.54036 0.84675 0.42005 0.0
H507 H 0.51013 0.78119 0.37538 0.0
H508 H 0.5293 0.80195 0.38195 0.0
H509 H 0.5272 0.77441 0.39795 0.0
H510 H 0.54628 0.78718 0.43183 0.0
H511 H 0.58022 0.79857 0.42797 0.0
H512 H 0.1321 0.28394 0.14187 0.0
H513 H 0.13131 0.28471 0.18426 0.0
H514 H 0.18025 0.33236 0.18491 0.0
H515 H 0.18038 0.33273 0.14246 0.0
H516 H 0.15374 0.27587 0.22119 0.0
H517 H 0.13976 0.37376 0.21403 0.0
H518 H 0.14057 0.35439 0.18906 0.0
H519 H 0.16253 0.36515 0.20204 0.0
C520 C 0.14295 0.29414 0.15108 0.0
C521 C 0.1561 0.30862 0.139 0.0
C522 C 0.14248 0.29458 0.17529 0.0
C523 C 0.15533 0.30921 0.18768 0.0
C524 C 0.1698 0.3216 0.17564 0.0
H525 H 0.15942 0.31892 0.33897 0.0
H526 H 0.16528 0.30715 0.29873 0.0
C527 C 0.16996 0.32166 0.15144 0.0
C528 C 0.15225 0.31353 0.21274 0.0
H529 H 0.14326 0.35812 0.25175 0.0
C530 C 0.15144 0.29383 0.22794 0.0
C531 C 0.14878 0.33695 0.22137 0.0
C532 C 0.14774 0.35873 0.20576 0.0
C533 C 0.14732 0.29695 0.2516 0.0
C534 C 0.14453 0.32047 0.26032 0.0
C535 C 0.14546 0.3401 0.24509 0.0
C536 C 0.14019 0.32549 0.28501 0.0
C537 C 0.14538 0.27499 0.26676 0.0
C538 C 0.12433 0.33999 0.29069 0.0
C539 C 0.12131 0.34732 0.31351 0.0
C540 C 0.13392 0.33995 0.33116 0.0
C541 C 0.14938 0.32468 0.32568 0.0
C542 C 0.15265 0.31778 0.30272 0.0
H543 H 0.14194 0.25873 0.25637 0.0
H544 H 0.15925 0.27165 0.27579 0.0
H545 H 0.13399 0.27745 0.28002 0.0
H546 H 0.1145 0.34615 0.27733 0.0
H547 H 0.10921 0.35897 0.31729 0.0
H548 H 0.80719 0.65565 0.63947 0.0
H549 H 0.80379 0.6568 0.68166 0.0
H550 H 0.85421 0.70187 0.68632 0.0
H551 H 0.85678 0.70204 0.64413 0.0
H552 H 0.82751 0.63713 0.70856 0.0
H553 H 0.82379 0.73177 0.7361 0.0
H554 H 0.8204 0.723 0.70625 0.0
H555 H 0.84429 0.72757 0.71777 0.0
C556 C 0.8171 0.66647 0.64954 0.0
C557 C 0.83222 0.67876 0.63869 0.0
C558 C 0.8152 0.66709 0.67362 0.0
C559 C 0.82867 0.67953 0.68727 0.0
C560 C 0.84328 0.69273 0.67627 0.0
H561 H 0.87141 0.62696 0.81679 0.0
H562 H 0.86466 0.63771 0.77654 0.0
C563 C 0.84484 0.69267 0.65212 0.0
C564 C 0.82926 0.67561 0.71273 0.0
H565 H 0.83677 0.70369 0.76457 0.0
C566 C 0.82914 0.65179 0.72079 0.0
C567 C 0.83117 0.69462 0.72887 0.0
C568 C 0.82969 0.72065 0.72177 0.0
C569 C 0.83164 0.6464 0.7443 0.0
C570 C 0.83526 0.66528 0.76011 0.0
C571 C 0.83447 0.68918 0.75233 0.0
C572 C 0.84024 0.66042 0.78464 0.0
C573 C 0.83034 0.62047 0.75187 0.0
C574 C 0.82945 0.67071 0.80263 0.0
C575 C 0.83359 0.66504 0.82572 0.0
C576 C 0.84848 0.64882 0.83113 0.0
C577 C 0.85966 0.63919 0.81312 0.0
C578 C 0.85573 0.64521 0.79011 0.0
H579 H 0.8212 0.60985 0.73982 0.0
H580 H 0.84493 0.61237 0.75175 0.0
H581 H 0.8243 0.61886 0.76962 0.0
H582 H 0.81754 0.68266 0.7988 0.0
H583 H 0.82475 0.67277 0.83926 0.0
H584 H 0.14042 0.71214 0.84282 0.0
H585 H 0.14218 0.71604 0.80049 0.0
H586 H 0.16432 0.64379 0.79566 0.0
H587 H 0.16275 0.63978 0.83773 0.0
H588 H 0.18201 0.67835 0.76467 0.0
H589 H 0.10177 0.67773 0.76172 0.0
H590 H 0.11319 0.70024 0.77937 0.0
H591 H 0.11499 0.66916 0.78739 0.0
C592 C 0.14599 0.69727 0.83275 0.0
C593 C 0.15118 0.67552 0.84351 0.0
C594 C 0.14693 0.69952 0.80862 0.0
C595 C 0.15313 0.68008 0.79505 0.0
C596 C 0.15947 0.65896 0.80589 0.0
H597 H 0.13054 0.61723 0.66611 0.0
H598 H 0.13431 0.63062 0.70617 0.0
C599 C 0.15848 0.65667 0.82991 0.0
C600 C 0.15136 0.68049 0.76956 0.0
H601 H 0.11808 0.67486 0.72634 0.0
C602 C 0.16808 0.67808 0.75616 0.0
C603 C 0.1331 0.67987 0.75869 0.0
C604 C 0.11468 0.68174 0.77243 0.0
C605 C 0.16699 0.67412 0.73217 0.0
C606 C 0.14872 0.67266 0.72149 0.0
C607 C 0.13204 0.67607 0.73472 0.0
C608 C 0.1465 0.66511 0.69713 0.0
C609 C 0.18527 0.67021 0.71859 0.0
C610 C 0.15201 0.68023 0.67889 0.0
C611 C 0.14985 0.67266 0.65593 0.0
C612 C 0.14215 0.64984 0.65092 0.0
C613 C 0.13656 0.63486 0.66934 0.0
C614 C 0.13867 0.64248 0.69223 0.0
H615 H 0.19816 0.66925 0.72998 0.0
H616 H 0.18429 0.65333 0.7084 0.0
H617 H 0.18725 0.68524 0.70618 0.0
H618 H 0.15792 0.69786 0.68242 0.0
H619 H 0.15427 0.68465 0.64214 0.0
H620 H 0.86547 0.36535 0.17198 0.0
H621 H 0.86116 0.34862 0.21072 0.0
H622 H 0.83323 0.2864 0.18158 0.0
H623 H 0.83736 0.30304 0.14259 0.0
H624 H 0.81289 0.30809 0.21826 0.0
H625 H 0.88896 0.29187 0.24203 0.0
H626 H 0.88517 0.32157 0.23075 0.0
H627 H 0.88118 0.29592 0.21237 0.0
C628 C 0.85855 0.34802 0.17373 0.0
C629 C 0.85177 0.33554 0.15419 0.0
C630 C 0.85623 0.3384 0.19588 0.0
C631 C 0.84717 0.31612 0.19891 0.0
C632 C 0.84042 0.30353 0.17951 0.0
H633 H 0.84727 0.27323 0.34508 0.0
H634 H 0.84733 0.26681 0.30302 0.0
C635 C 0.84281 0.31308 0.15728 0.0
C636 C 0.84369 0.30701 0.22258 0.0
H637 H 0.86672 0.29687 0.27385 0.0
C638 C 0.82463 0.30508 0.23034 0.0
C639 C 0.85902 0.30258 0.23814 0.0
C640 C 0.87974 0.30283 0.23034 0.0
C641 C 0.82053 0.30083 0.25378 0.0
C642 C 0.83591 0.2988 0.26975 0.0
C643 C 0.85493 0.29868 0.26161 0.0
C644 C 0.83283 0.30025 0.29506 0.0
C645 C 0.7998 0.29944 0.26137 0.0
C646 C 0.82441 0.32098 0.30445 0.0
C647 C 0.82443 0.32473 0.32833 0.0
C648 C 0.833 0.30788 0.34327 0.0
C649 C 0.84057 0.28653 0.33397 0.0
C650 C 0.8406 0.28282 0.30999 0.0
H651 H 0.79049 0.2926 0.24715 0.0
H652 H 0.7981 0.28764 0.27676 0.0
H653 H 0.79467 0.31772 0.26594 0.0
H654 H 0.81874 0.33493 0.29324 0.0
H655 H 0.81847 0.34134 0.335 0.0
H656 H 0.65246 0.80354 0.34213 0.0
H657 H 0.65706 0.78906 0.3024 0.0
H658 H 0.63535 0.85626 0.2758 0.0
H659 H 0.63061 0.87089 0.31526 0.0
H660 H 0.61907 0.81248 0.25576 0.0
H661 H 0.69929 0.81473 0.25638 0.0
H662 H 0.68719 0.79951 0.27973 0.0
H663 H 0.68512 0.8315 0.27703 0.0
C664 C 0.64865 0.81524 0.32782 0.0
C665 C 0.64121 0.83841 0.33185 0.0
C666 C 0.65136 0.80695 0.30518 0.0
C667 C 0.64667 0.82169 0.2863 0.0
C668 C 0.63907 0.84467 0.29024 0.0
H669 H 0.66827 0.84614 0.14735 0.0
H670 H 0.66888 0.84127 0.18936 0.0
C671 C 0.63641 0.853 0.3128 0.0
C672 C 0.64954 0.81348 0.26224 0.0
H673 H 0.68412 0.80609 0.22092 0.0
C674 C 0.63326 0.81059 0.24815 0.0
C675 C 0.66811 0.81114 0.25257 0.0
C676 C 0.68601 0.81446 0.26707 0.0
C677 C 0.63503 0.80663 0.22427 0.0
C678 C 0.65362 0.80523 0.21438 0.0
C679 C 0.66992 0.80697 0.22867 0.0
C680 C 0.65626 0.80575 0.18899 0.0
C681 C 0.61704 0.80556 0.20959 0.0
C682 C 0.64966 0.78695 0.17488 0.0
C683 C 0.64923 0.78971 0.15078 0.0
C684 C 0.65539 0.81133 0.14057 0.0
C685 C 0.66325 0.82938 0.15472 0.0
C686 C 0.66369 0.82659 0.17872 0.0
H687 H 0.60391 0.81025 0.21959 0.0
H688 H 0.6182 0.81802 0.19461 0.0
H689 H 0.61524 0.78709 0.20268 0.0
H690 H 0.64409 0.77061 0.18256 0.0
H691 H 0.64322 0.77542 0.14028 0.0
H692 H 0.37264 0.12598 0.8171 0.0
H693 H 0.36768 0.13859 0.77697 0.0
H694 H 0.31843 0.18067 0.79787 0.0
H695 H 0.32402 0.16913 0.83827 0.0
H696 H 0.33888 0.12897 0.75057 0.0
H697 H 0.34425 0.22808 0.75681 0.0
H698 H 0.35105 0.20848 0.78035 0.0
H699 H 0.32613 0.2159 0.77552 0.0
C700 C 0.36091 0.13817 0.81315 0.0
C701 C 0.34873 0.14662 0.83073 0.0
C702 C 0.35808 0.14538 0.79024 0.0
C703 C 0.34282 0.16083 0.7844 0.0
C704 C 0.33063 0.16933 0.80199 0.0
H705 H 0.30744 0.159 0.63928 0.0
H706 H 0.30573 0.15804 0.68169 0.0
C707 C 0.33374 0.16256 0.82503 0.0
C708 C 0.33901 0.16649 0.75969 0.0
H709 H 0.33282 0.21232 0.72097 0.0
C710 C 0.33762 0.14722 0.74411 0.0
C711 C 0.33746 0.19032 0.75125 0.0
C712 C 0.34 0.21188 0.76682 0.0
C713 C 0.33516 0.15101 0.72031 0.0
C714 C 0.33301 0.17478 0.71191 0.0
C715 C 0.33413 0.19411 0.7275 0.0
C716 C 0.33119 0.17984 0.68678 0.0
C717 C 0.33581 0.12945 0.70439 0.0
C718 C 0.34498 0.19423 0.67569 0.0
C719 C 0.34553 0.19551 0.65152 0.0
C720 C 0.33249 0.18209 0.63818 0.0
C721 C 0.31778 0.16926 0.64928 0.0
C722 C 0.31691 0.16854 0.67344 0.0
H723 H 0.34282 0.11376 0.71282 0.0
H724 H 0.32091 0.12411 0.69977 0.0
H725 H 0.34374 0.13358 0.68818 0.0
H726 H 0.35604 0.20328 0.68565 0.0
H727 H 0.35703 0.20551 0.64333 0.0
H728 H 0.68461 0.16078 0.85191 0.0
H729 H 0.68927 0.1612 0.80988 0.0
H730 H 0.63705 0.20262 0.80197 0.0
H731 H 0.63323 0.20366 0.84398 0.0
H732 H 0.6675 0.13903 0.78296 0.0
H733 H 0.6668 0.23248 0.75186 0.0
H734 H 0.66995 0.22528 0.78214 0.0
H735 H 0.64614 0.22773 0.76976 0.0
C736 C 0.67459 0.17074 0.84115 0.0
C737 C 0.65861 0.18222 0.85102 0.0
C738 C 0.6772 0.17094 0.81717 0.0
C739 C 0.66358 0.18204 0.80263 0.0
C740 C 0.64811 0.19455 0.81268 0.0
H741 H 0.62249 0.12142 0.67671 0.0
H742 H 0.62999 0.13395 0.71624 0.0
C743 C 0.64583 0.19499 0.83673 0.0
C744 C 0.66371 0.17711 0.77733 0.0
H745 H 0.65478 0.20241 0.72446 0.0
C746 C 0.66516 0.15304 0.77018 0.0
C747 C 0.66093 0.19527 0.76044 0.0
C748 C 0.6611 0.22163 0.76649 0.0
C749 C 0.66293 0.14652 0.74692 0.0
C750 C 0.65823 0.1644 0.73042 0.0
C751 C 0.65788 0.18862 0.73723 0.0
C752 C 0.65298 0.1581 0.7063 0.0
C753 C 0.66557 0.12045 0.74036 0.0
C754 C 0.66269 0.16851 0.6875 0.0
C755 C 0.65809 0.16179 0.66482 0.0
C756 C 0.64382 0.14441 0.66062 0.0
C757 C 0.63377 0.13455 0.67944 0.0
C758 C 0.63813 0.14158 0.70204 0.0
H759 H 0.67552 0.1112 0.75255 0.0
H760 H 0.65148 0.11114 0.7413 0.0
H761 H 0.67133 0.11856 0.72251 0.0
H762 H 0.67407 0.18145 0.6904 0.0
H763 H 0.66605 0.16973 0.65062 0.0
H764 H 0.33113 0.80552 0.14471 0.0
H765 H 0.3259 0.79165 0.18455 0.0
H766 H 0.34938 0.85802 0.21068 0.0
H767 H 0.35473 0.87205 0.17112 0.0
H768 H 0.36437 0.813 0.23094 0.0
H769 H 0.28432 0.82047 0.23038 0.0
H770 H 0.29594 0.80475 0.20695 0.0
H771 H 0.29912 0.83656 0.20987 0.0
C772 C 0.3352 0.81717 0.15894 0.0
C773 C 0.34331 0.83994 0.15475 0.0
C774 C 0.33213 0.80922 0.18163 0.0
C775 C 0.33714 0.82392 0.20041 0.0
C776 C 0.3454 0.84648 0.19632 0.0
H777 H 0.31725 0.85061 0.33943 0.0
H778 H 0.31622 0.84571 0.29743 0.0
C779 C 0.34841 0.85447 0.17371 0.0
C780 C 0.33397 0.81605 0.22452 0.0
H781 H 0.29919 0.81142 0.26597 0.0
C782 C 0.35013 0.81215 0.2386 0.0
C783 C 0.31534 0.81509 0.23424 0.0
C784 C 0.29761 0.81952 0.21972 0.0
C785 C 0.34822 0.80847 0.26251 0.0
C786 C 0.32962 0.80846 0.27245 0.0
C787 C 0.31339 0.81124 0.25818 0.0
C788 C 0.32706 0.80924 0.29784 0.0
C789 C 0.36616 0.80621 0.27717 0.0
C790 C 0.33277 0.78998 0.31197 0.0
C791 C 0.33343 0.79275 0.33606 0.0
C792 C 0.3284 0.81484 0.34623 0.0
C793 C 0.32139 0.83346 0.33208 0.0
C794 C 0.32071 0.83066 0.30808 0.0
H795 H 0.37946 0.80987 0.2671 0.0
H796 H 0.36558 0.81885 0.29205 0.0
H797 H 0.36715 0.7877 0.28423 0.0
H798 H 0.33749 0.77322 0.30431 0.0
H799 H 0.33876 0.77803 0.34656 0.0
H800 H 0.29153 0.20777 0.89821 0.0
H801 H 0.26569 0.23495 0.91018 0.0
H802 H 0.28705 0.23291 0.98051 0.0
H803 H 0.31345 0.20692 0.96834 0.0
H804 H 0.23771 0.22606 0.93726 0.0
H805 H 0.27671 0.3024 0.97559 0.0
H806 H 0.28879 0.27984 0.95851 0.0
H807 H 0.28469 0.27518 0.98908 0.0
C808 C 0.29091 0.21359 0.91612 0.0
C809 C 0.30449 0.20537 0.93236 0.0
C810 C 0.27614 0.22908 0.92294 0.0
C811 C 0.27456 0.23632 0.94618 0.0
C812 C 0.2883 0.2283 0.96234 0.0
H813 H 0.17306 0.26167 0.02417 0.0
H814 H 0.19852 0.24592 -0.00068 0.0
C815 C 0.30331 0.21326 0.95542 0.0
C816 C 0.25758 0.25025 0.95405 0.0
H817 H 0.24427 0.29583 0.99006 0.0
C818 C 0.23915 0.24163 0.94843 0.0
C819 C 0.25933 0.27094 0.96815 0.0
C820 C 0.27847 0.28275 0.97291 0.0
C821 C 0.22253 0.25225 0.9576 0.0
C822 C 0.22442 0.27135 0.97362 0.0
C823 C 0.24276 0.28088 0.97814 0.0
C824 C 0.20784 0.28082 0.98697 0.0
C825 C 0.20318 0.24278 0.95 0.0
C826 C 0.20482 0.3057 0.98877 0.0
C827 C 0.19067 0.31473 0.00356 0.0
C828 C 0.17911 0.29902 0.01653 0.0
C829 C 0.18164 0.27414 0.01412 0.0
C830 C 0.19609 0.26513 -0.00025 0.0
H831 H 0.20383 0.2357 0.932 0.0
H832 H 0.19894 0.22767 0.96146 0.0
H833 H 0.19188 0.25688 0.95078 0.0
H834 H 0.21372 0.31817 0.97915 0.0
H835 H 0.18896 0.33402 0.0051 0.0
H836 H 0.80213 0.65487 0.50471 0.0
H837 H 0.77677 0.67045 0.47939 0.0
H838 H 0.79024 0.74267 0.50135 0.0
H839 H 0.81629 0.72723 0.52565 0.0
H840 H 0.74573 0.69133 0.49152 0.0
H841 H 0.78403 0.75438 0.43421 0.0
H842 H 0.79668 0.73319 0.45237 0.0
H843 H 0.78893 0.76176 0.46385 0.0
C844 C 0.79992 0.67412 0.5037 0.0
C845 C 0.81116 0.6899 0.51704 0.0
C846 C 0.78543 0.68299 0.48927 0.0
C847 C 0.78172 0.70777 0.48818 0.0
C848 C 0.79319 0.72357 0.50127 0.0
H849 H 0.6738 0.77757 0.46975 0.0
H850 H 0.70078 0.75255 0.48218 0.0
C851 C 0.80798 0.71473 0.5153 0.0
C852 C 0.76475 0.71689 0.47525 0.0
H853 H 0.74993 0.76199 0.43944 0.0
C854 C 0.74672 0.7065 0.47978 0.0
C855 C 0.76599 0.73632 0.45951 0.0
C856 C 0.78501 0.74683 0.45202 0.0
C857 C 0.72982 0.71579 0.46994 0.0
C858 C 0.73089 0.73664 0.45598 0.0
C859 C 0.74901 0.74624 0.45047 0.0
C860 C 0.71347 0.74967 0.44796 0.0
C861 C 0.71105 0.70308 0.47469 0.0
C862 C 0.71173 0.75676 0.42469 0.0
C863 C 0.69662 0.77165 0.41772 0.0
C864 C 0.68284 0.77943 0.43386 0.0
C865 C 0.6841 0.77155 0.45692 0.0
C866 C 0.69946 0.75709 0.46399 0.0
H867 H 0.7134 0.68353 0.47744 0.0
H868 H 0.7046 0.71041 0.4908 0.0
H869 H 0.70065 0.70546 0.46023 0.0
H870 H 0.72238 0.75131 0.41202 0.0
H871 H 0.69593 0.77748 0.39981 0.0
H872 H 0.28228 0.79045 0.0757 0.0
H873 H 0.25726 0.76462 0.05957 0.0
H874 H 0.29646 0.74063 0.00647 0.0
H875 H 0.32163 0.76663 0.02241 0.0
H876 H 0.2618 0.75952 0.98974 0.0
H877 H 0.2486 0.69154 0.05826 0.0
H878 H 0.24872 0.72197 0.06864 0.0
H879 H 0.2704 0.70917 0.05695 0.0
C880 C 0.28571 0.77934 0.06084 0.0
C881 C 0.30388 0.78066 0.05022 0.0
C882 C 0.27143 0.76446 0.05176 0.0
C883 C 0.2751 0.75057 0.03199 0.0
C884 C 0.29344 0.75113 0.02185 0.0
H885 H 0.19594 0.65484 0.96119 0.0
H886 H 0.22296 0.67166 0.98301 0.0
C887 C 0.30778 0.76598 0.03097 0.0
C888 C 0.25917 0.73774 0.02044 0.0
H889 H 0.22447 0.69526 0.0288 0.0
C890 C 0.25375 0.74531 -0.00183 0.0
C891 C 0.24877 0.7192 0.03153 0.0
C892 C 0.2545 0.7098 0.05509 0.0
C893 C 0.23784 0.73523 0.98687 0.0
C894 C 0.227 0.71735 -0.0017 0.0
C895 C 0.23271 0.70925 0.0203 0.0
C896 C 0.20987 0.70663 0.98731 0.0
C897 C 0.23277 0.74375 0.96277 0.0
C898 C 0.19342 0.72063 0.98314 0.0
C899 C 0.17794 0.7111 0.97071 0.0
C900 C 0.17875 0.68744 0.96226 0.0
C901 C 0.19495 0.67318 0.96735 0.0
C902 C 0.21037 0.6827 0.97985 0.0
H903 H 0.24478 0.75383 0.95461 0.0
H904 H 0.22894 0.72833 0.95146 0.0
H905 H 0.22009 0.75586 0.96371 0.0
H906 H 0.19277 0.73909 0.98903 0.0
H907 H 0.16563 0.72248 0.96714 0.0
H908 H 0.7091 0.18228 0.57678 0.0
H909 H 0.73491 0.20726 0.56121 0.0
H910 H 0.69383 0.2456 0.51898 0.0
H911 H 0.6678 0.22059 0.5344 0.0
H912 H 0.74161 0.20886 0.51061 0.0
H913 H 0.72907 0.29853 0.55055 0.0
H914 H 0.72051 0.27097 0.56353 0.0
H915 H 0.70841 0.28331 0.53874 0.0
C916 C 0.70547 0.19626 0.56444 0.0
C917 C 0.68643 0.19941 0.5567 0.0
C918 C 0.72024 0.21051 0.55562 0.0
C919 C 0.71618 0.22829 0.53914 0.0
C920 C 0.69713 0.23212 0.53195 0.0
H921 H 0.78141 0.32069 0.45003 0.0
H922 H 0.7572 0.3012 0.47419 0.0
C923 C 0.68232 0.21777 0.54068 0.0
C924 C 0.73213 0.2411 0.52773 0.0
H925 H 0.75269 0.29625 0.52105 0.0
C926 C 0.74418 0.22793 0.51299 0.0
C927 C 0.73521 0.26594 0.53085 0.0
C928 C 0.72273 0.28061 0.54688 0.0
C929 C 0.75905 0.23911 0.5007 0.0
C930 C 0.76225 0.26401 0.50385 0.0
C931 C 0.75027 0.27714 0.51882 0.0
C932 C 0.77731 0.27692 0.49076 0.0
C933 C 0.77069 0.22432 0.48383 0.0
C934 C 0.79672 0.27011 0.49253 0.0
C935 C 0.81058 0.28101 0.47852 0.0
C936 C 0.80525 0.29916 0.46282 0.0
C937 C 0.78594 0.30669 0.4619 0.0
C938 C 0.7721 0.29563 0.47573 0.0
H939 H 0.76326 0.20733 0.47913 0.0
H940 H 0.77361 0.23456 0.46768 0.0
H941 H 0.78469 0.21954 0.4919 0.0
H942 H 0.8011 0.25608 0.50446 0.0
H943 H 0.82539 0.27504 0.47978 0.0
H944 H 0.69616 0.83104 0.01946 0.0
H945 H 0.72043 0.81223 -0.00514 0.0
H946 H 0.68473 0.74926 0.98815 0.0
H947 H 0.66034 0.76791 0.01296 0.0
H948 H 0.72211 0.74026 0.0043 0.0
H949 H 0.72326 0.79687 0.92507 0.0
H950 H 0.7245 0.81355 0.95169 0.0
H951 H 0.7032 0.79661 0.94498 0.0
C952 C 0.6933 0.81335 0.01243 0.0
C953 C 0.67639 0.80087 0.01824 0.0
C954 C 0.70712 0.80272 -0.00177 0.0
C955 C 0.70424 0.7795 0.98951 0.0
C956 C 0.6871 0.7673 -0.00538 0.0
H957 H 0.78107 0.69399 0.90424 0.0
H958 H 0.75375 0.71747 0.91853 0.0
C959 C 0.67322 0.77795 0.00878 0.0
C960 C 0.72005 0.767 0.97739 0.0
H961 H 0.75007 0.77044 0.9307 0.0
C962 C 0.72811 0.74671 0.98809 0.0
C963 C 0.72777 0.7755 0.95626 0.0
C964 C 0.71915 0.79671 0.94368 0.0
C965 C 0.74405 0.735 0.97851 0.0
C966 C 0.75221 0.744 0.95784 0.0
C967 C 0.74386 0.76387 0.94673 0.0
C968 C 0.76932 0.73258 0.94753 0.0
C969 C 0.75212 0.7131 0.99056 0.0
C970 C 0.78718 0.73402 0.95879 0.0
C971 C 0.80281 0.7207 0.9507 0.0
C972 C 0.80075 0.70569 0.93126 0.0
C973 C 0.78307 0.70528 0.91935 0.0
C974 C 0.76747 0.7187 0.92741 0.0
H975 H 0.74206 0.70587 0.00379 0.0
H976 H 0.75535 0.69871 0.9778 0.0
H977 H 0.76578 0.71797 -0.00062 0.0
H978 H 0.78882 0.74482 0.9743 0.0
H979 H 0.81627 0.72144 0.96018 0.0
H980 H 0.31676 0.2337 0.52733 0.0
H981 H 0.29014 0.25047 0.50471 0.0
H982 H 0.27638 0.17964 0.47916 0.0
H983 H 0.3023 0.16264 0.50282 0.0
H984 H 0.28042 0.25287 0.46101 0.0
H985 H 0.22607 0.1977 0.50701 0.0
H986 H 0.25092 0.19869 0.5159 0.0
H987 H 0.24362 0.17998 0.49198 0.0
C988 C 0.30815 0.22177 0.51671 0.0
C989 C 0.31135 0.19688 0.51703 0.0
C990 C 0.29295 0.23134 0.5038 0.0
C991 C 0.28092 0.21621 0.49076 0.0
C992 C 0.28502 0.19154 0.48975 0.0
H993 H 0.19476 0.28425 0.40034 0.0
H994 H 0.22201 0.25993 0.41365 0.0
C995 C 0.29993 0.18188 0.50309 0.0
C996 C 0.26369 0.22627 0.47906 0.0
H997 H 0.21474 0.22195 0.47632 0.0
C998 C 0.26605 0.2461 0.46431 0.0
C999 C 0.24492 0.21759 0.48366 0.0
C1000 C 0.24117 0.19749 0.50067 0.0
C1001 C 0.25017 0.25785 0.45441 0.0
C1002 C 0.23143 0.24884 0.45861 0.0
C1003 C 0.22911 0.22867 0.47294 0.0
C1004 C 0.21394 0.26117 0.44989 0.0
C1005 C 0.25364 0.28044 0.44053 0.0
C1006 C 0.1997 0.26857 0.46561 0.0
C1007 C 0.18383 0.28177 0.45795 0.0
C1008 C 0.1821 0.28809 0.43448 0.0
C1009 C 0.19591 0.27984 0.41859 0.0
C1010 C 0.21156 0.26616 0.4262 0.0
H1011 H 0.26796 0.2884 0.44438 0.0
H1012 H 0.25325 0.27606 0.42177 0.0
H1013 H 0.24244 0.29419 0.44411 0.0
H1014 H 0.20116 0.2648 0.48396 0.0
H1015 H 0.1734 0.28793 0.47056 0.0
H1016 H 0.79279 0.28039 0.08822 0.0
H1017 H 0.76628 0.25392 0.07702 0.0
H1018 H 0.78575 0.25587 0.00599 0.0
H1019 H 0.81277 0.28126 0.01732 0.0
H1020 H 0.73773 0.2641 0.0506 0.0
H1021 H 0.77452 0.18645 0.01136 0.0
H1022 H 0.78733 0.20861 0.02818 0.0
H1023 H 0.78265 0.2135 -0.00226 0.0
C1024 C 0.79162 0.2747 0.07031 0.0
C1025 C 0.80482 0.28277 0.05362 0.0
C1026 C 0.77647 0.25962 0.06393 0.0
C1027 C 0.77415 0.25259 0.04072 0.0
C1028 C 0.78756 0.26037 0.02412 0.0
H1029 H 0.6711 0.22967 0.96494 0.0
H1030 H 0.69699 0.24494 0.98949 0.0
C1031 C 0.80292 0.27505 0.03058 0.0
C1032 C 0.75676 0.23917 0.0334 0.0
H1033 H 0.74182 0.19377 -0.00188 0.0
C1034 C 0.73863 0.24841 0.03949 0.0
C1035 C 0.75782 0.21837 0.01937 0.0
C1036 C 0.77666 0.20604 0.01405 0.0
C1037 C 0.72161 0.23826 0.03086 0.0
C1038 C 0.7228 0.21897 0.01497 0.0
C1039 C 0.74086 0.20885 0.00997 0.0
C1040 C 0.70577 0.20991 0.00217 0.0
C1041 C 0.70261 0.24845 0.03884 0.0
C1042 C 0.70223 0.18512 0.00078 0.0
C1043 C 0.68781 0.17635 0.98621 0.0
C1044 C 0.6765 0.19224 0.97303 0.0
C1045 C 0.67947 0.21707 0.97515 0.0
C1046 C 0.69418 0.22581 0.98934 0.0
H1047 H 0.70377 0.25577 0.05671 0.0
H1048 H 0.6984 0.26352 0.02727 0.0
H1049 H 0.69105 0.2347 0.03854 0.0
H1050 H 0.711 0.1725 0.01047 0.0
H1051 H 0.68576 0.1571 0.98491 0.0
H1052 H 0.19628 0.71656 0.58727 0.0
H1053 H 0.22191 0.74457 0.57663 0.0
H1054 H 0.20126 0.74484 0.50596 0.0
H1055 H 0.17505 0.71806 0.51685 0.0
H1056 H 0.25009 0.7363 0.55002 0.0
H1057 H 0.21218 0.81388 0.5124 0.0
H1058 H 0.19966 0.79112 0.52875 0.0
H1059 H 0.20404 0.78721 0.49813 0.0
C1060 C 0.19697 0.72313 0.5696 0.0
C1061 C 0.1837 0.71525 0.55287 0.0
C1062 C 0.21162 0.73909 0.56353 0.0
C1063 C 0.21341 0.74714 0.54055 0.0
C1064 C 0.19985 0.73961 0.52396 0.0
H1065 H 0.3145 0.76919 0.46256 0.0
H1066 H 0.28908 0.75474 0.48812 0.0
C1067 C 0.18495 0.72412 0.53015 0.0
C1068 C 0.23056 0.76104 0.53326 0.0
H1069 H 0.24456 0.80652 0.49752 0.0
C1070 C 0.24886 0.752 0.53897 0.0
C1071 C 0.22913 0.7819 0.51933 0.0
C1072 C 0.21016 0.7942 0.51458 0.0
C1073 C 0.26564 0.76226 0.52988 0.0
C1074 C 0.26404 0.78141 0.51385 0.0
C1075 C 0.24585 0.79149 0.50941 0.0
C1076 C 0.2807 0.79013 0.50019 0.0
C1077 C 0.28485 0.75227 0.53747 0.0
C1078 C 0.28424 0.81486 0.49799 0.0
C1079 C 0.29837 0.82316 0.4828 0.0
C1080 C 0.30939 0.80685 0.4698 0.0
C1081 C 0.30637 0.78211 0.47262 0.0
C1082 C 0.29194 0.77384 0.4874 0.0
H1083 H 0.28412 0.74543 0.55556 0.0
H1084 H 0.28875 0.73688 0.52619 0.0
H1085 H 0.2964 0.76599 0.53646 0.0
H1086 H 0.27573 0.82778 0.5076 0.0
H1087 H 0.30047 0.84235 0.48095 0.0
H1088 H 0.13187 0.59737 0.96681 0.0
H1089 H 0.13339 0.56208 0.99194 0.0
H1090 H 0.12275 0.51615 0.93309 0.0
H1091 H 0.12071 0.55137 0.90787 0.0
H1092 H 0.10102 0.50388 0.97046 0.0
H1093 H 0.17738 0.51459 -0.00324 0.0
H1094 H 0.1629 0.54061 0.0026 0.0
H1095 H 0.16685 0.53132 0.97311 0.0
C1096 C 0.12989 0.57976 0.95918 0.0
C1097 C 0.12626 0.57717 0.93531 0.0
C1098 C 0.13089 0.55961 0.97355 0.0
C1099 C 0.12858 0.53649 0.96428 0.0
C1100 C 0.1247 0.53385 0.94054 0.0
H1101 H 0.13507 0.39189 0.01919 0.0
H1102 H 0.13378 0.42758 -0.00554 0.0
C1103 C 0.12354 0.554 0.92617 0.0
C1104 C 0.12976 0.51506 0.97941 0.0
H1105 H 0.15922 0.48513 0.01711 0.0
C1106 C 0.11377 0.49971 0.98056 0.0
C1107 C 0.14646 0.50967 0.99253 0.0
C1108 C 0.16444 0.52477 0.99106 0.0
C1109 C 0.11394 0.47925 -0.00525 0.0
C1110 C 0.13053 0.47406 0.00801 0.0
C1111 C 0.14651 0.48935 0.00693 0.0
C1112 C 0.13158 0.45263 0.02298 0.0
C1113 C 0.09634 0.46344 -0.00424 0.0
C1114 C 0.13103 0.4551 0.04715 0.0
C1115 C 0.13168 0.43478 0.06135 0.0
C1116 C 0.1331 0.41169 0.05156 0.0
C1117 C 0.13397 0.40939 0.02729 0.0
C1118 C 0.13318 0.42972 0.01312 0.0
H1119 H 0.08367 0.47196 0.98732 0.0
H1120 H 0.0994 0.44623 0.98677 0.0
H1121 H 0.09267 0.45919 0.01404 0.0
H1122 H 0.12988 0.47273 0.05498 0.0
H1123 H 0.13105 0.43717 0.07997 0.0
H1124 H 0.85767 0.55104 0.57815 0.0
H1125 H 0.8563 0.51601 0.55268 0.0
H1126 H 0.85283 0.56255 0.49298 0.0
H1127 H 0.85371 0.5977 0.51831 0.0
H1128 H 0.82674 0.52605 0.49112 0.0
H1129 H 0.89924 0.49027 0.5123 0.0
H1130 H 0.88427 0.49446 0.5373 0.0
H1131 H 0.89165 0.52009 0.52051 0.0
C1132 C 0.85669 0.55384 0.5596 0.0
C1133 C 0.85589 0.57716 0.55025 0.0
C1134 C 0.85602 0.5338 0.54506 0.0
C1135 C 0.85482 0.53671 0.52094 0.0
C1136 C 0.85386 0.55994 0.51157 0.0
H1137 H 0.8551 0.43915 0.40368 0.0
H1138 H 0.85495 0.47453 0.42888 0.0
C1139 C 0.85438 0.57999 0.52608 0.0
C1140 C 0.85415 0.51554 0.50545 0.0
H1141 H 0.87878 0.46492 0.49004 0.0
C1142 C 0.83816 0.51275 0.49078 0.0
C1143 C 0.86911 0.49828 0.50503 0.0
C1144 C 0.88713 0.50099 0.51946 0.0
C1145 C 0.83659 0.49288 0.47594 0.0
C1146 C 0.85142 0.47553 0.47578 0.0
C1147 C 0.86741 0.4783 0.49038 0.0
C1148 C 0.85067 0.45433 0.46049 0.0
C1149 C 0.81899 0.49032 0.4608 0.0
C1150 C 0.84839 0.43137 0.47005 0.0
C1151 C 0.84839 0.41114 0.45576 0.0
C1152 C 0.85091 0.41355 0.43166 0.0
C1153 C 0.85312 0.43667 0.42215 0.0
C1154 C 0.85297 0.4569 0.43648 0.0
H1155 H 0.80738 0.50304 0.46583 0.0
H1156 H 0.82297 0.49397 0.4425 0.0
H1157 H 0.81331 0.4717 0.46172 0.0
H1158 H 0.84667 0.42912 0.4886 0.0
H1159 H 0.84672 0.39361 0.46366 0.0
H1160 H 0.83389 0.39401 0.0037 0.0
H1161 H 0.82977 0.43412 0.98691 0.0
H1162 H 0.82118 0.46367 0.05521 0.0
H1163 H 0.82528 0.42368 0.07221 0.0
H1164 H 0.79761 0.47019 -0.00683 0.0
H1165 H 0.86948 0.49878 0.02607 0.0
H1166 H 0.86284 0.46755 0.02336 0.0
H1167 H 0.85328 0.48531 0.0466 0.0
C1168 C 0.83093 0.409 0.01513 0.0
C1169 C 0.8301 0.40576 0.03929 0.0
C1170 C 0.82853 0.43184 0.00551 0.0
C1171 C 0.82537 0.45174 0.0199 0.0
C1172 C 0.82377 0.44847 0.04391 0.0
H1173 H 0.83366 0.6039 0.98621 0.0
H1174 H 0.82845 0.56603 0.00686 0.0
C1175 C 0.8261 0.42563 0.05355 0.0
C1176 C 0.82493 0.4761 0.00985 0.0
H1177 H 0.85163 0.52718 0.00494 0.0
C1178 C 0.80933 0.48276 -0.00421 0.0
C1179 C 0.84025 0.49235 0.01346 0.0
C1180 C 0.85751 0.48573 0.02806 0.0
C1181 C 0.80868 0.50541 0.98511 0.0
C1182 C 0.82428 0.52144 0.9882 0.0
C1183 C 0.83968 0.51488 0.00265 0.0
C1184 C 0.82551 0.54463 0.97573 0.0
C1185 C 0.79127 0.512 0.97078 0.0
C1186 C 0.82556 0.54511 0.9514 0.0
C1187 C 0.82843 0.56669 0.93958 0.0
C1188 C 0.83159 0.58812 0.9519 0.0
C1189 C 0.8313 0.58766 0.97626 0.0
C1190 C 0.8283 0.56607 0.98807 0.0
H1191 H 0.77841 0.50156 0.97617 0.0
H1192 H 0.78792 0.53146 0.97219 0.0
H1193 H 0.79416 0.50778 0.95231 0.0
H1194 H 0.82395 0.52868 0.94154 0.0
H1195 H 0.82868 0.56645 0.92081 0.0
H1196 H 0.14602 0.39854 0.48116 0.0
H1197 H 0.15117 0.43851 0.49779 0.0
H1198 H 0.17041 0.46461 0.43139 0.0
H1199 H 0.16522 0.42475 0.41449 0.0
H1200 H 0.19304 0.47727 0.47913 0.0
H1201 H 0.1147 0.49779 0.47173 0.0
H1202 H 0.12173 0.46873 0.48268 0.0
H1203 H 0.12647 0.4763 0.45303 0.0
C1204 C 0.15155 0.4127 0.47015 0.0
C1205 C 0.15506 0.40859 0.44648 0.0
C1206 C 0.1545 0.43545 0.47968 0.0
C1207 C 0.16111 0.45433 0.46573 0.0
C1208 C 0.16534 0.45013 0.44235 0.0
H1209 H 0.15116 0.60646 0.49554 0.0
H1210 H 0.15466 0.56795 0.47554 0.0
C1211 C 0.1623 0.42742 0.43275 0.0
C1212 C 0.16226 0.47884 0.47519 0.0
H1213 H 0.13421 0.52662 0.49016 0.0
C1214 C 0.18025 0.48817 0.48151 0.0
C1215 C 0.14551 0.4929 0.47796 0.0
C1216 C 0.12595 0.48361 0.47093 0.0
C1217 C 0.18184 0.51129 0.49107 0.0
C1218 C 0.165 0.52514 0.49438 0.0
C1219 C 0.14708 0.51591 0.48757 0.0
C1220 C 0.16537 0.54894 0.50565 0.0
C1221 C 0.20147 0.52078 0.49745 0.0
C1222 C 0.17044 0.55096 0.52911 0.0
C1223 C 0.16838 0.57288 0.54061 0.0
C1224 C 0.16114 0.59309 0.52882 0.0
C1225 C 0.15675 0.59121 0.50509 0.0
C1226 C 0.15875 0.56925 0.49364 0.0
H1227 H 0.21314 0.5106 0.48869 0.0
H1228 H 0.20278 0.54009 0.49284 0.0
H1229 H 0.20357 0.51905 0.51646 0.0
H1230 H 0.17525 0.53536 0.53876 0.0
H1231 H 0.17188 0.57378 0.5589 0.0
H1232 H 0.6288 0.05471 0.90864 0.0
H1233 H 0.62891 0.01918 0.93354 0.0
H1234 H 0.63278 0.06443 -0.00594 0.0
H1235 H 0.63313 0.10007 0.96932 0.0
H1236 H 0.65814 0.02689 -0.00456 0.0
H1237 H 0.58498 0.99432 0.97302 0.0
H1238 H 0.60025 -0.0015 0.94828 0.0
H1239 H 0.59328 0.02402 0.96548 0.0
C1240 C 0.62959 0.05713 0.92725 0.0
C1241 C 0.63087 0.08023 0.93701 0.0
C1242 C 0.62954 0.0368 0.94145 0.0
C1243 C 0.6305 0.03922 0.96564 0.0
C1244 C 0.63192 0.06221 0.97542 0.0
H1245 H 0.62861 0.9401 0.08165 0.0
H1246 H 0.62884 0.9757 0.05674 0.0
C1247 C 0.6321 0.08255 0.96125 0.0
C1248 C 0.63057 0.01775 0.98076 0.0
H1249 H 0.60466 0.96787 -0.00479 0.0
C1250 C 0.64641 0.01405 -0.0045 0.0
C1251 C 0.61521 0.00107 0.98079 0.0
C1252 C 0.59738 0.00474 0.96622 0.0
C1253 C 0.64743 0.99387 0.01002 0.0
C1254 C 0.63218 0.97714 0.00984 0.0
C1255 C 0.61635 0.98079 -0.00485 0.0
C1256 C 0.63235 0.95571 0.02488 0.0
C1257 C 0.66493 0.99034 0.02519 0.0
C1258 C 0.63406 0.93278 0.01507 0.0
C1259 C 0.63398 0.91242 0.02921 0.0
C1260 C 0.63199 0.91467 0.05339 0.0
C1261 C 0.63018 0.93774 0.06311 0.0
C1262 C 0.63038 0.9581 0.04895 0.0
H1263 H 0.67692 0.00245 0.02019 0.0
H1264 H 0.66104 0.99417 0.04348 0.0
H1265 H 0.67002 0.97144 0.02425 0.0
H1266 H 0.63551 0.93068 -0.00352 0.0
H1267 H 0.63534 0.89492 0.02115 0.0
H1268 H 0.35955 0.94216 0.40354 0.0
H1269 H 0.35995 0.97786 0.42833 0.0
H1270 H 0.35321 0.93314 0.48882 0.0
H1271 H 0.35274 0.89733 0.4643 0.0
H1272 H 0.3294 0.99137 0.46249 0.0
H1273 H 0.40196 0.97675 0.50105 0.0
H1274 H 0.39463 0.96312 0.47402 0.0
H1275 H 0.38593 0.95138 0.50102 0.0
C1276 C 0.3582 0.93989 0.42212 0.0
C1277 C 0.35616 0.91689 0.43195 0.0
C1278 C 0.35841 0.96029 0.43621 0.0
C1279 C 0.35679 0.958 0.46033 0.0
C1280 C 0.35469 0.93516 0.47022 0.0
H1281 H 0.35888 0.05607 0.57634 0.0
H1282 H 0.35828 0.02107 0.55079 0.0
C1283 C 0.35436 0.91476 0.45616 0.0
C1284 C 0.35696 0.97954 0.4752 0.0
H1285 H 0.38339 0.00856 0.51641 0.0
C1286 C 0.34121 0.99527 0.47422 0.0
C1287 C 0.37238 0.98433 0.49049 0.0
C1288 C 0.38979 0.96815 0.49171 0.0
C1289 C 0.34028 0.01557 0.48858 0.0
C1290 C 0.35577 0.02048 0.50383 0.0
C1291 C 0.37155 0.00474 0.50469 0.0
C1292 C 0.35586 0.04178 0.51915 0.0
C1293 C 0.32251 0.03117 0.48773 0.0
C1294 C 0.35491 0.06502 0.50978 0.0
C1295 C 0.35512 0.08506 0.52433 0.0
C1296 C 0.35654 0.08221 0.54851 0.0
C1297 C 0.35776 0.05889 0.5578 0.0
C1298 C 0.35743 0.03887 0.54324 0.0
H1299 H 0.31003 0.02142 0.48019 0.0
H1300 H 0.31853 0.03761 0.5053 0.0
H1301 H 0.32538 0.04707 0.47665 0.0
H1302 H 0.35417 0.06766 0.49119 0.0
H1303 H 0.35432 0.10277 0.51659 0.0
H1304 H 0.3041 0.90932 0.05337 0.0
H1305 H 0.29737 0.94732 0.03354 0.0
H1306 H 0.34669 0.93586 0.9894 0.0
H1307 H 0.3526 0.89723 0.00813 0.0
H1308 H 0.31666 0.98548 0.03292 0.0
H1309 H 0.31022 0.95759 0.94175 0.0
H1310 H 0.31058 0.93601 0.96508 0.0
H1311 H 0.33277 0.94713 0.95288 0.0
C1312 C 0.31323 0.91477 0.0391 0.0
C1313 C 0.32878 0.90037 0.03213 0.0
C1314 C 0.30941 0.93647 0.0278 0.0
C1315 C 0.32129 0.94433 0.00963 0.0
C1316 C 0.33685 0.92985 0.00272 0.0
H1317 H 0.35097 0.08873 0.97743 0.0
H1318 H 0.34473 0.04973 -0.00484 0.0
C1319 C 0.34034 0.90786 0.01358 0.0
C1320 C 0.31856 0.96856 -0.00066 0.0
H1321 H 0.32015 -0.00102 0.94807 0.0
C1322 C 0.31703 0.98836 0.01432 0.0
C1323 C 0.31849 0.97247 0.97508 0.0
C1324 C 0.31787 0.95209 0.95784 0.0
C1325 C 0.31654 0.01194 0.00579 0.0
C1326 C 0.3186 0.0159 0.98168 0.0
C1327 C 0.31899 -0.00393 0.96661 0.0
C1328 C 0.32148 0.04026 0.97177 0.0
C1329 C 0.31378 0.03225 0.02281 0.0
C1330 C 0.31097 0.0477 0.9522 0.0
C1331 C 0.31503 0.06965 0.94153 0.0
C1332 C 0.32942 0.08471 0.9505 0.0
C1333 C 0.3396 0.07758 0.97038 0.0
C1334 C 0.3359 0.05537 0.98067 0.0
H1335 H 0.30495 0.02637 0.03783 0.0
H1336 H 0.32801 0.03787 0.02968 0.0
H1337 H 0.30667 0.04799 0.01463 0.0
H1338 H 0.29984 0.03634 0.94493 0.0
H1339 H 0.30699 0.0748 0.9262 0.0
H1340 H 0.68001 0.07261 0.5606 0.0
H1341 H 0.68663 0.03484 0.54041 0.0
H1342 H 0.63853 0.04825 0.49463 0.0
H1343 H 0.63277 0.0867 0.51378 0.0
H1344 H 0.6669 -0.00289 0.5383 0.0
H1345 H 0.67595 0.02699 0.44798 0.0
H1346 H 0.67521 0.04801 0.47175 0.0
H1347 H 0.65322 0.03745 0.45851 0.0
C1348 C 0.67111 0.06762 0.54593 0.0
C1349 C 0.65597 0.08253 0.53861 0.0
C1350 C 0.67487 0.04606 0.53442 0.0
C1351 C 0.66332 0.03882 0.51567 0.0
C1352 C 0.64813 0.05377 0.50844 0.0
H1353 H 0.63457 0.89503 0.4791 0.0
H1354 H 0.63996 0.93377 0.49772 0.0
C1355 C 0.6447 0.07565 0.51953 0.0
C1356 C 0.66606 0.0148 0.505 0.0
H1357 H 0.66599 0.98552 0.45309 0.0
C1358 C 0.66708 0.99465 0.51964 0.0
C1359 C 0.66682 0.01143 0.48068 0.0
C1360 C 0.66798 0.0322 0.4639 0.0
C1361 C 0.6678 0.97127 0.51067 0.0
C1362 C 0.66652 0.96786 0.4864 0.0
C1363 C 0.66657 0.98802 0.47173 0.0
C1364 C 0.66405 0.94372 0.47589 0.0
C1365 C 0.67001 0.95058 0.52741 0.0
C1366 C 0.67533 0.93666 0.45687 0.0
C1367 C 0.6718 0.91484 0.44569 0.0
C1368 C 0.65714 0.89955 0.45359 0.0
C1369 C 0.64615 0.90634 0.4729 0.0
C1370 C 0.64935 0.9284 0.48368 0.0
H1371 H 0.67827 0.95612 0.54303 0.0
H1372 H 0.65556 0.94474 0.53333 0.0
H1373 H 0.67745 0.93505 0.5193 0.0
H1374 H 0.68668 0.9482 0.45044 0.0
H1375 H 0.68046 0.90997 0.43081 0.0
loop_
_geom_bond_atom_site_label_1
_geom_bond_atom_site_label_2
_geom_bond_distance
_geom_bond_site_symmetry_2
_ccdc_geom_bond_type
C0 O1 1.306 . S
C0 O3 1.160 . S
O1 C0 1.306 . S
O1 Cd2 2.228 . S
Cd2 O1 2.228 . S
Cd2 O6 2.273 . S
Cd2 O10 2.277 . S
O3 C0 1.160 . S
O3 Cd4 2.203 . S
Cd4 O3 2.203 . S
Cd4 O6 2.411 . S
Cd4 O7 2.333 . S
Cd4 O8 2.352 . S
Cd4 O12 2.277 . S
Cd4 O13 2.356 . S
C5 O10 1.209 . S
C5 O12 1.226 . S
O6 Cd2 2.273 . S
O6 Cd4 2.411 . S
O6 C9 1.320 . S
O7 Cd4 2.333 . S
O7 C9 1.214 . S
O8 Cd4 2.352 . S
O8 C11 1.258 . S
C9 O6 1.320 . S
C9 O7 1.214 . S
O10 Cd2 2.277 . S
O10 C5 1.209 . S
C11 O8 1.258 . S
C11 O13 1.282 . S
O12 Cd4 2.277 . S
O12 C5 1.226 . S
O13 Cd4 2.356 . S
O13 C11 1.282 . S
C14 O15 1.306 . S
C14 O17 1.160 . S
O15 C14 1.306 . S
O15 Cd16 2.228 . S
Cd16 O15 2.228 . S
Cd16 O20 2.273 . S
Cd16 O24 2.277 . S
O17 C14 1.160 . S
O17 Cd18 2.203 . S
Cd18 O17 2.203 . S
Cd18 O20 2.411 . S
Cd18 O21 2.333 . S
Cd18 O22 2.352 . S
Cd18 O26 2.277 . S
Cd18 O27 2.356 . S
C19 O24 1.209 . S
C19 O26 1.226 . S
O20 Cd16 2.273 . S
O20 Cd18 2.411 . S
O20 C23 1.320 . S
O21 Cd18 2.333 . S
O21 C23 1.214 . S
O22 Cd18 2.352 . S
O22 C25 1.258 . S
C23 O20 1.320 . S
C23 O21 1.214 . S
O24 Cd16 2.277 . S
O24 C19 1.209 . S
C25 O22 1.258 . S
C25 O27 1.282 . S
O26 Cd18 2.277 . S
O26 C19 1.226 . S
O27 Cd18 2.356 . S
O27 C25 1.282 . S
C28 O29 1.306 . S
C28 O31 1.160 . S
O29 C28 1.306 . S
O29 Cd30 2.228 . S
Cd30 O29 2.228 . S
Cd30 O34 2.273 . S
Cd30 O38 2.277 . S
O31 C28 1.160 . S
O31 Cd32 2.203 . S
Cd32 O31 2.203 . S
Cd32 O34 2.411 . S
Cd32 O35 2.333 . S
Cd32 O36 2.352 . S
Cd32 O40 2.277 . S
Cd32 O41 2.356 . S
C33 O38 1.209 . S
C33 O40 1.226 . S
O34 Cd30 2.273 . S
O34 Cd32 2.411 . S
O34 C37 1.320 . S
O35 Cd32 2.333 . S
O35 C37 1.214 . S
O36 Cd32 2.352 . S
O36 C39 1.258 . S
C37 O34 1.320 . S
C37 O35 1.214 . S
O38 Cd30 2.277 . S
O38 C33 1.209 . S
C39 O36 1.258 . S
C39 O41 1.282 . S
O40 Cd32 2.277 . S
O40 C33 1.226 . S
O41 Cd32 2.356 . S
O41 C39 1.282 . S
C42 O43 1.306 . S
C42 O45 1.160 . S
O43 C42 1.306 . S
O43 Cd44 2.228 . S
Cd44 O43 2.228 . S
Cd44 O48 2.273 . S
Cd44 O52 2.277 . S
O45 C42 1.160 . S
O45 Cd46 2.203 . S
Cd46 O45 2.203 . S
Cd46 O48 2.411 . S
Cd46 O49 2.333 . S
Cd46 O50 2.352 . S
Cd46 O54 2.277 . S
Cd46 O55 2.356 . S
C47 O52 1.209 . S
C47 O54 1.226 . S
O48 Cd44 2.273 . S
O48 Cd46 2.411 . S
O48 C51 1.320 . S
O49 Cd46 2.333 . S
O49 C51 1.214 . S
O50 Cd46 2.352 . S
O50 C53 1.258 . S
C51 O48 1.320 . S
C51 O49 1.214 . S
O52 Cd44 2.277 . S
O52 C47 1.209 . S
C53 O50 1.258 . S
C53 O55 1.282 . S
O54 Cd46 2.277 . S
O54 C47 1.226 . S
O55 Cd46 2.356 . S
O55 C53 1.282 . S
C56 O57 1.306 . S
C56 O59 1.160 . S
O57 C56 1.306 . S
O57 Cd58 2.228 . S
Cd58 O57 2.228 . S
Cd58 O62 2.273 . S
Cd58 O66 2.277 . S
O59 C56 1.160 . S
O59 Cd60 2.203 . S
Cd60 O59 2.203 . S
Cd60 O62 2.411 . S
Cd60 O63 2.333 . S
Cd60 O64 2.352 . S
Cd60 O68 2.277 . S
Cd60 O69 2.356 . S
C61 O66 1.209 . S
C61 O68 1.226 . S
O62 Cd58 2.273 . S
O62 Cd60 2.411 . S
O62 C65 1.320 . S
O63 Cd60 2.333 . S
O63 C65 1.214 . S
O64 Cd60 2.352 . S
O64 C67 1.258 . S
C65 O62 1.320 . S
C65 O63 1.214 . S
O66 Cd58 2.277 . S
O66 C61 1.209 . S
C67 O64 1.258 . S
C67 O69 1.282 . S
O68 Cd60 2.277 . S
O68 C61 1.226 . S
O69 Cd60 2.356 . S
O69 C67 1.282 . S
C70 O71 1.306 . S
C70 O73 1.160 . S
O71 C70 1.306 . S
O71 Cd72 2.228 . S
Cd72 O71 2.228 . S
Cd72 O76 2.273 . S
Cd72 O80 2.277 . S
O73 C70 1.160 . S
O73 Cd74 2.203 . S
Cd74 O73 2.203 . S
Cd74 O76 2.411 . S
Cd74 O77 2.333 . S
Cd74 O78 2.352 . S
Cd74 O82 2.277 . S
Cd74 O83 2.356 . S
C75 O80 1.209 . S
C75 O82 1.226 . S
O76 Cd72 2.273 . S
O76 Cd74 2.411 . S
O76 C79 1.320 . S
O77 Cd74 2.333 . S
O77 C79 1.214 . S
O78 Cd74 2.352 . S
O78 C81 1.258 . S
C79 O76 1.320 . S
C79 O77 1.214 . S
O80 Cd72 2.277 . S
O80 C75 1.209 . S
C81 O78 1.258 . S
C81 O83 1.282 . S
O82 Cd74 2.277 . S
O82 C75 1.226 . S
O83 Cd74 2.356 . S
O83 C81 1.282 . S
C84 O85 1.306 . S
C84 O87 1.160 . S
O85 C84 1.306 . S
O85 Cd86 2.228 . S
Cd86 O85 2.228 . S
Cd86 O90 2.273 . S
Cd86 O94 2.277 . S
O87 C84 1.160 . S
O87 Cd88 2.203 . S
Cd88 O87 2.203 . S
Cd88 O90 2.411 . S
Cd88 O91 2.333 . S
Cd88 O92 2.352 . S
Cd88 O96 2.277 . S
Cd88 O97 2.356 . S
C89 O94 1.209 . S
C89 O96 1.226 . S
O90 Cd86 2.273 . S
O90 Cd88 2.411 . S
O90 C93 1.320 . S
O91 Cd88 2.333 . S
O91 C93 1.214 . S
O92 Cd88 2.352 . S
O92 C95 1.258 . S
C93 O90 1.320 . S
C93 O91 1.214 . S
O94 Cd86 2.277 . S
O94 C89 1.209 . S
C95 O92 1.258 . S
C95 O97 1.282 . S
O96 Cd88 2.277 . S
O96 C89 1.226 . S
O97 Cd88 2.356 . S
O97 C95 1.282 . S
C98 O99 1.306 . S
C98 O101 1.160 . S
O99 C98 1.306 . S
O99 Cd100 2.228 . S
Cd100 O99 2.228 . S
Cd100 O104 2.273 . S
Cd100 O108 2.277 . S
O101 C98 1.160 . S
O101 Cd102 2.203 . S
Cd102 O101 2.203 . S
Cd102 O104 2.411 . S
Cd102 O105 2.333 . S
Cd102 O106 2.352 . S
Cd102 O110 2.277 . S
Cd102 O111 2.356 . S
C103 O108 1.209 . S
C103 O110 1.226 . S
O104 Cd100 2.273 . S
O104 Cd102 2.411 . S
O104 C107 1.320 . S
O105 Cd102 2.333 . S
O105 C107 1.214 . S
O106 Cd102 2.352 . S
O106 C109 1.258 . S
C107 O104 1.320 . S
C107 O105 1.214 . S
O108 Cd100 2.277 . S
O108 C103 1.209 . S
C109 O106 1.258 . S
C109 O111 1.282 . S
O110 Cd102 2.277 . S
O110 C103 1.226 . S
O111 Cd102 2.356 . S
O111 C109 1.282 . S
C112 O113 1.306 . S
C112 O115 1.160 . S
O113 C112 1.306 . S
O113 Cd114 2.228 . S
Cd114 O113 2.228 . S
Cd114 O118 2.273 . S
Cd114 O122 2.277 . S
O115 C112 1.160 . S
O115 Cd116 2.203 . S
Cd116 O115 2.203 . S
Cd116 O118 2.411 . S
Cd116 O119 2.333 . S
Cd116 O120 2.352 . S
Cd116 O124 2.277 . S
Cd116 O125 2.356 . S
C117 O122 1.209 . S
C117 O124 1.226 . S
O118 Cd114 2.273 . S
O118 Cd116 2.411 . S
O118 C121 1.320 . S
O119 Cd116 2.333 . S
O119 C121 1.214 . S
O120 Cd116 2.352 . S
O120 C123 1.258 . S
C121 O118 1.320 . S
C121 O119 1.214 . S
O122 Cd114 2.277 . S
O122 C117 1.209 . S
C123 O120 1.258 . S
C123 O125 1.282 . S
O124 Cd116 2.277 . S
O124 C117 1.226 . S
O125 Cd116 2.356 . S
O125 C123 1.282 . S
C126 O127 1.306 . S
C126 O129 1.160 . S
O127 C126 1.306 . S
O127 Cd128 2.228 . S
Cd128 O127 2.228 . S
Cd128 O132 2.273 . S
Cd128 O136 2.277 . S
O129 C126 1.160 . S
O129 Cd130 2.203 . S
Cd130 O129 2.203 . S
Cd130 O132 2.411 . S
Cd130 O133 2.333 . S
Cd130 O134 2.352 . S
Cd130 O138 2.277 . S
Cd130 O139 2.356 . S
C131 O136 1.209 . S
C131 O138 1.226 . S
O132 Cd128 2.273 . S
O132 Cd130 2.411 . S
O132 C135 1.320 . S
O133 Cd130 2.333 . S
O133 C135 1.214 . S
O134 Cd130 2.352 . S
O134 C137 1.258 . S
C135 O132 1.320 . S
C135 O133 1.214 . S
O136 Cd128 2.277 . S
O136 C131 1.209 . S
C137 O134 1.258 . S
C137 O139 1.282 . S
O138 Cd130 2.277 . S
O138 C131 1.226 . S
O139 Cd130 2.356 . S
O139 C137 1.282 . S
C140 O141 1.306 . S
C140 O143 1.160 . S
O141 C140 1.306 . S
O141 Cd142 2.228 . S
Cd142 O141 2.228 . S
Cd142 O146 2.273 . S
Cd142 O150 2.277 . S
O143 C140 1.160 . S
O143 Cd144 2.203 . S
Cd144 O143 2.203 . S
Cd144 O146 2.411 . S
Cd144 O147 2.333 . S
Cd144 O148 2.352 . S
Cd144 O152 2.277 . S
Cd144 O153 2.356 . S
C145 O150 1.209 . S
C145 O152 1.226 . S
O146 Cd142 2.273 . S
O146 Cd144 2.411 . S
O146 C149 1.320 . S
O147 Cd144 2.333 . S
O147 C149 1.214 . S
O148 Cd144 2.352 . S
O148 C151 1.258 . S
C149 O146 1.320 . S
C149 O147 1.214 . S
O150 Cd142 2.277 . S
O150 C145 1.209 . S
C151 O148 1.258 . S
C151 O153 1.282 . S
O152 Cd144 2.277 . S
O152 C145 1.226 . S
O153 Cd144 2.356 . S
O153 C151 1.282 . S
C154 O155 1.306 . S
C154 O157 1.160 . S
O155 C154 1.306 . S
O155 Cd156 2.228 . S
Cd156 O155 2.228 . S
Cd156 O160 2.273 . S
Cd156 O164 2.277 . S
O157 C154 1.160 . S
O157 Cd158 2.203 . S
Cd158 O157 2.203 . S
Cd158 O160 2.411 . S
Cd158 O161 2.333 . S
Cd158 O162 2.352 . S
Cd158 O166 2.277 . S
Cd158 O167 2.356 . S
C159 O164 1.209 . S
C159 O166 1.226 . S
O160 Cd156 2.273 . S
O160 Cd158 2.411 . S
O160 C163 1.320 . S
O161 Cd158 2.333 . S
O161 C163 1.214 . S
O162 Cd158 2.352 . S
O162 C165 1.258 . S
C163 O160 1.320 . S
C163 O161 1.214 . S
O164 Cd156 2.277 . S
O164 C159 1.209 . S
C165 O162 1.258 . S
C165 O167 1.282 . S
O166 Cd158 2.277 . S
O166 C159 1.226 . S
O167 Cd158 2.356 . S
O167 C165 1.282 . S
C168 O169 1.306 . S
C168 O171 1.160 . S
O169 C168 1.306 . S
O169 Cd170 2.228 . S
Cd170 O169 2.228 . S
Cd170 O174 2.273 . S
Cd170 O178 2.277 . S
O171 C168 1.160 . S
O171 Cd172 2.203 . S
Cd172 O171 2.203 . S
Cd172 O174 2.411 . S
Cd172 O175 2.333 . S
Cd172 O176 2.352 . S
Cd172 O180 2.277 . S
Cd172 O181 2.356 . S
C173 O178 1.209 . S
C173 O180 1.226 . S
O174 Cd170 2.273 . S
O174 Cd172 2.411 . S
O174 C177 1.320 . S
O175 Cd172 2.333 . S
O175 C177 1.214 . S
O176 Cd172 2.352 . S
O176 C179 1.258 . S
C177 O174 1.320 . S
C177 O175 1.214 . S
O178 Cd170 2.277 . S
O178 C173 1.209 . S
C179 O176 1.258 . S
C179 O181 1.282 . S
O180 Cd172 2.277 . S
O180 C173 1.226 . S
O181 Cd172 2.356 . S
O181 C179 1.282 . S
C182 O183 1.306 . S
C182 O185 1.160 . S
O183 C182 1.306 . S
O183 Cd184 2.228 . S
Cd184 O183 2.228 . S
Cd184 O188 2.273 . S
Cd184 O192 2.277 . S
O185 C182 1.160 . S
O185 Cd186 2.203 . S
Cd186 O185 2.203 . S
Cd186 O188 2.411 . S
Cd186 O189 2.333 . S
Cd186 O190 2.352 . S
Cd186 O194 2.277 . S
Cd186 O195 2.356 . S
C187 O192 1.209 . S
C187 O194 1.226 . S
O188 Cd184 2.273 . S
O188 Cd186 2.411 . S
O188 C191 1.320 . S
O189 Cd186 2.333 . S
O189 C191 1.214 . S
O190 Cd186 2.352 . S
O190 C193 1.258 . S
C191 O188 1.320 . S
C191 O189 1.214 . S
O192 Cd184 2.277 . S
O192 C187 1.209 . S
C193 O190 1.258 . S
C193 O195 1.282 . S
O194 Cd186 2.277 . S
O194 C187 1.226 . S
O195 Cd186 2.356 . S
O195 C193 1.282 . S
C196 O197 1.306 . S
C196 O199 1.160 . S
O197 C196 1.306 . S
O197 Cd198 2.228 . S
Cd198 O197 2.228 . S
Cd198 O202 2.273 . S
Cd198 O206 2.277 . S
O199 C196 1.160 . S
O199 Cd200 2.203 . S
Cd200 O199 2.203 . S
Cd200 O202 2.411 . S
Cd200 O203 2.333 . S
Cd200 O204 2.352 . S
Cd200 O208 2.277 . S
Cd200 O209 2.356 . S
C201 O206 1.209 . S
C201 O208 1.226 . S
O202 Cd198 2.273 . S
O202 Cd200 2.411 . S
O202 C205 1.320 . S
O203 Cd200 2.333 . S
O203 C205 1.214 . S
O204 Cd200 2.352 . S
O204 C207 1.258 . S
C205 O202 1.320 . S
C205 O203 1.214 . S
O206 Cd198 2.277 . S
O206 C201 1.209 . S
C207 O204 1.258 . S
C207 O209 1.282 . S
O208 Cd200 2.277 . S
O208 C201 1.226 . S
O209 Cd200 2.356 . S
O209 C207 1.282 . S
C210 O211 1.306 . S
C210 O213 1.160 . S
O211 C210 1.306 . S
O211 Cd212 2.228 . S
Cd212 O211 2.228 . S
Cd212 O216 2.273 . S
Cd212 O220 2.277 . S
O213 C210 1.160 . S
O213 Cd214 2.203 . S
Cd214 O213 2.203 . S
Cd214 O216 2.411 . S
Cd214 O217 2.333 . S
Cd214 O218 2.352 . S
Cd214 O222 2.277 . S
Cd214 O223 2.356 . S
C215 O220 1.209 . S
C215 O222 1.226 . S
O216 Cd212 2.273 . S
O216 Cd214 2.411 . S
O216 C219 1.320 . S
O217 Cd214 2.333 . S
O217 C219 1.214 . S
O218 Cd214 2.352 . S
O218 C221 1.258 . S
C219 O216 1.320 . S
C219 O217 1.214 . S
O220 Cd212 2.277 . S
O220 C215 1.209 . S
C221 O218 1.258 . S
C221 O223 1.282 . S
O222 Cd214 2.277 . S
O222 C215 1.226 . S
O223 Cd214 2.356 . S
O223 C221 1.282 . S
H224 C232 0.929 . S
H225 C234 0.930 . S
H226 C236 0.930 . S
H227 C239 0.929 . S
H228 C242 0.930 . S
H229 C244 0.960 . S
H230 C244 0.960 . S
H231 C244 0.960 . S
C232 H224 0.929 . S
C232 C233 1.377 . S
C232 C234 1.384 . S
C233 C232 1.377 . S
C233 C239 1.390 . S
C234 H225 0.930 . S
C234 C232 1.384 . S
C234 C235 1.372 . S
C235 C234 1.372 . S
C235 C236 1.400 . S
C235 C240 1.490 . S
C236 H226 0.930 . S
C236 C235 1.400 . S
C236 C239 1.386 . S
H237 C253 0.930 . S
H238 C254 0.931 . S
C239 H227 0.929 . S
C239 C233 1.390 . S
C239 C236 1.386 . S
C240 C235 1.490 . S
C240 C242 1.395 . S
C240 C243 1.403 . S
H241 C247 0.930 . S
C242 H228 0.930 . S
C242 C240 1.395 . S
C242 C245 1.403 1_455 S
C243 C240 1.403 . S
C243 C244 1.524 . S
C243 C247 1.400 1_455 S
C244 H229 0.960 . S
C244 H230 0.960 . S
C244 H231 0.960 . S
C244 C243 1.524 . S
C245 C242 1.403 1_655 S
C245 C246 1.392 . S
C245 C249 1.495 . S
C246 C245 1.392 . S
C246 C247 1.385 . S
C246 C248 1.478 . S
C247 H241 0.930 . S
C247 C243 1.400 1_655 S
C247 C246 1.385 . S
C248 C246 1.478 . S
C248 C250 1.381 . S
C248 C254 1.383 . S
C249 C245 1.495 . S
C249 H255 0.959 . S
C249 H256 0.961 . S
C249 H257 0.960 . S
C250 C248 1.381 . S
C250 C251 1.394 . S
C250 H258 0.930 . S
C251 C250 1.394 . S
C251 C252 1.383 . S
C251 H259 0.929 . S
C252 C251 1.383 . S
C252 C253 1.377 . S
C253 H237 0.930 . S
C253 C252 1.377 . S
C253 C254 1.379 . S
C254 H238 0.931 . S
C254 C248 1.383 . S
C254 C253 1.379 . S
H255 C249 0.959 . S
H256 C249 0.961 . S
H257 C249 0.960 . S
H258 C250 0.930 . S
H259 C251 0.929 . S
H260 C268 0.929 . S
H261 C270 0.930 . S
H262 C272 0.930 . S
H263 C275 0.929 . S
H264 C278 0.930 . S
H265 C280 0.960 . S
H266 C280 0.960 . S
H267 C280 0.960 . S
C268 H260 0.929 . S
C268 C269 1.377 . S
C268 C270 1.384 . S
C269 C268 1.377 . S
C269 C275 1.390 . S
C270 H261 0.930 . S
C270 C268 1.384 . S
C270 C271 1.372 . S
C271 C270 1.372 . S
C271 C272 1.400 . S
C271 C276 1.490 . S
C272 H262 0.930 . S
C272 C271 1.400 . S
C272 C275 1.386 . S
H273 C289 0.930 . S
H274 C290 0.931 . S
C275 H263 0.929 . S
C275 C269 1.390 . S
C275 C272 1.386 . S
C276 C271 1.490 . S
C276 C278 1.395 . S
C276 C279 1.403 . S
H277 C283 0.930 . S
C278 H264 0.930 . S
C278 C276 1.395 . S
C278 C281 1.403 1_655 S
C279 C276 1.403 . S
C279 C280 1.524 . S
C279 C283 1.400 1_655 S
C280 H265 0.960 . S
C280 H266 0.960 . S
C280 H267 0.960 . S
C280 C279 1.524 . S
C281 C278 1.403 1_455 S
C281 C282 1.392 . S
C281 C285 1.495 . S
C282 C281 1.392 . S
C282 C283 1.385 . S
C282 C284 1.478 . S
C283 H277 0.930 . S
C283 C279 1.400 1_455 S
C283 C282 1.385 . S
C284 C282 1.478 . S
C284 C286 1.381 . S
C284 C290 1.383 . S
C285 C281 1.495 . S
C285 H291 0.959 . S
C285 H292 0.961 . S
C285 H293 0.960 . S
C286 C284 1.381 . S
C286 C287 1.394 . S
C286 H294 0.930 . S
C287 C286 1.394 . S
C287 C288 1.383 . S
C287 H295 0.929 . S
C288 C287 1.383 . S
C288 C289 1.377 . S
C289 H273 0.930 . S
C289 C288 1.377 . S
C289 C290 1.379 . S
C290 H274 0.931 . S
C290 C284 1.383 . S
C290 C289 1.379 . S
H291 C285 0.959 . S
H292 C285 0.961 . S
H293 C285 0.960 . S
H294 C286 0.930 . S
H295 C287 0.929 . S
H296 C304 0.929 . S
H297 C306 0.930 . S
H298 C308 0.930 . S
H299 C311 0.929 . S
H300 C314 0.930 . S
H301 C316 0.960 . S
H302 C316 0.960 . S
H303 C316 0.960 . S
C304 H296 0.929 . S
C304 C305 1.377 . S
C304 C306 1.384 . S
C305 C304 1.377 . S
C305 C311 1.390 . S
C306 H297 0.930 . S
C306 C304 1.384 . S
C306 C307 1.372 . S
C307 C306 1.372 . S
C307 C308 1.400 . S
C307 C312 1.490 . S
C308 H298 0.930 . S
C308 C307 1.400 . S
C308 C311 1.386 . S
H309 C325 0.930 . S
H310 C326 0.931 . S
C311 H299 0.929 . S
C311 C305 1.390 . S
C311 C308 1.386 . S
C312 C307 1.490 . S
C312 C314 1.395 . S
C312 C315 1.403 . S
H313 C319 0.930 . S
C314 H300 0.930 . S
C314 C312 1.395 . S
C314 C317 1.403 1_655 S
C315 C312 1.403 . S
C315 C316 1.524 . S
C315 C319 1.400 1_655 S
C316 H301 0.960 . S
C316 H302 0.960 . S
C316 H303 0.960 . S
C316 C315 1.524 . S
C317 C314 1.403 1_455 S
C317 C318 1.392 . S
C317 C321 1.495 . S
C318 C317 1.392 . S
C318 C319 1.385 . S
C318 C320 1.478 . S
C319 H313 0.930 . S
C319 C315 1.400 1_455 S
C319 C318 1.385 . S
C320 C318 1.478 . S
C320 C322 1.381 . S
C320 C326 1.383 . S
C321 C317 1.495 . S
C321 H327 0.959 . S
C321 H328 0.961 . S
C321 H329 0.960 . S
C322 C320 1.381 . S
C322 C323 1.394 . S
C322 H330 0.930 . S
C323 C322 1.394 . S
C323 C324 1.383 . S
C323 H331 0.929 . S
C324 C323 1.383 . S
C324 C325 1.377 . S
C325 H309 0.930 . S
C325 C324 1.377 . S
C325 C326 1.379 . S
C326 H310 0.931 . S
C326 C320 1.383 . S
C326 C325 1.379 . S
H327 C321 0.959 . S
H328 C321 0.961 . S
H329 C321 0.960 . S
H330 C322 0.930 . S
H331 C323 0.929 . S
H332 C340 0.929 . S
H333 C342 0.930 . S
H334 C344 0.930 . S
H335 C347 0.929 . S
H336 C350 0.930 . S
H337 C352 0.960 . S
H338 C352 0.960 . S
H339 C352 0.960 . S
C340 H332 0.929 . S
C340 C341 1.377 . S
C340 C342 1.384 . S
C341 C340 1.377 . S
C341 C347 1.390 . S
C342 H333 0.930 . S
C342 C340 1.384 . S
C342 C343 1.372 . S
C343 C342 1.372 . S
C343 C344 1.400 . S
C343 C348 1.490 . S
C344 H334 0.930 . S
C344 C343 1.400 . S
C344 C347 1.386 . S
H345 C361 0.930 . S
H346 C362 0.931 . S
C347 H335 0.929 . S
C347 C341 1.390 . S
C347 C344 1.386 . S
C348 C343 1.490 . S
C348 C350 1.395 . S
C348 C351 1.403 . S
H349 C355 0.930 . S
C350 H336 0.930 . S
C350 C348 1.395 . S
C350 C353 1.403 1_455 S
C351 C348 1.403 . S
C351 C352 1.524 . S
C351 C355 1.400 1_455 S
C352 H337 0.960 . S
C352 H338 0.960 . S
C352 H339 0.960 . S
C352 C351 1.524 . S
C353 C350 1.403 1_655 S
C353 C354 1.392 . S
C353 C357 1.495 . S
C354 C353 1.392 . S
C354 C355 1.385 . S
C354 C356 1.478 . S
C355 H349 0.930 . S
C355 C351 1.400 1_655 S
C355 C354 1.385 . S
C356 C354 1.478 . S
C356 C358 1.381 . S
C356 C362 1.383 . S
C357 C353 1.495 . S
C357 H363 0.959 . S
C357 H364 0.961 . S
C357 H365 0.960 . S
C358 C356 1.381 . S
C358 C359 1.394 . S
C358 H366 0.930 . S
C359 C358 1.394 . S
C359 C360 1.383 . S
C359 H367 0.929 . S
C360 C359 1.383 . S
C360 C361 1.377 . S
C361 H345 0.930 . S
C361 C360 1.377 . S
C361 C362 1.379 . S
C362 H346 0.931 . S
C362 C356 1.383 . S
C362 C361 1.379 . S
H363 C357 0.959 . S
H364 C357 0.961 . S
H365 C357 0.960 . S
H366 C358 0.930 . S
H367 C359 0.929 . S
H368 C376 0.929 . S
H369 C378 0.930 . S
H370 C380 0.930 . S
H371 C383 0.929 . S
H372 C386 0.930 . S
H373 C388 0.960 . S
H374 C388 0.960 . S
H375 C388 0.960 . S
C376 H368 0.929 . S
C376 C377 1.377 . S
C376 C378 1.384 . S
C377 C376 1.377 . S
C377 C383 1.390 . S
C378 H369 0.930 . S
C378 C376 1.384 . S
C378 C379 1.372 . S
C379 C378 1.372 . S
C379 C380 1.400 . S
C379 C384 1.490 . S
C380 H370 0.930 . S
C380 C379 1.400 . S
C380 C383 1.386 . S
H381 C397 0.930 . S
H382 C398 0.931 . S
C383 H371 0.929 . S
C383 C377 1.390 . S
C383 C380 1.386 . S
C384 C379 1.490 . S
C384 C386 1.395 . S
C384 C387 1.403 . S
H385 C391 0.930 . S
C386 H372 0.930 . S
C386 C384 1.395 . S
C386 C389 1.403 . S
C387 C384 1.403 . S
C387 C388 1.524 . S
C387 C391 1.400 . S
C388 H373 0.960 . S
C388 H374 0.960 . S
C388 H375 0.960 . S
C388 C387 1.524 . S
C389 C386 1.403 . S
C389 C390 1.392 . S
C389 C393 1.495 . S
C390 C389 1.392 . S
C390 C391 1.385 . S
C390 C392 1.478 . S
C391 H385 0.930 . S
C391 C387 1.400 . S
C391 C390 1.385 . S
C392 C390 1.478 . S
C392 C394 1.381 . S
C392 C398 1.383 . S
C393 C389 1.495 . S
C393 H399 0.959 . S
C393 H400 0.961 . S
C393 H401 0.960 . S
C394 C392 1.381 . S
C394 C395 1.394 . S
C394 H402 0.930 . S
C395 C394 1.394 . S
C395 C396 1.383 . S
C395 H403 0.929 . S
C396 C395 1.383 . S
C396 C397 1.377 . S
C397 H381 0.930 . S
C397 C396 1.377 . S
C397 C398 1.379 . S
C398 H382 0.931 . S
C398 C392 1.383 . S
C398 C397 1.379 . S
H399 C393 0.959 . S
H400 C393 0.961 . S
H401 C393 0.960 . S
H402 C394 0.930 . S
H403 C395 0.929 . S
H404 C412 0.929 . S
H405 C414 0.930 . S
H406 C416 0.930 . S
H407 C419 0.929 . S
H408 C422 0.930 . S
H409 C424 0.960 . S
H410 C424 0.960 . S
H411 C424 0.960 . S
C412 H404 0.929 . S
C412 C413 1.377 . S
C412 C414 1.384 . S
C413 C412 1.377 . S
C413 C419 1.390 . S
C414 H405 0.930 . S
C414 C412 1.384 . S
C414 C415 1.372 . S
C415 C414 1.372 . S
C415 C416 1.400 . S
C415 C420 1.490 . S
C416 H406 0.930 . S
C416 C415 1.400 . S
C416 C419 1.386 . S
H417 C433 0.930 . S
H418 C434 0.931 . S
C419 H407 0.929 . S
C419 C413 1.390 . S
C419 C416 1.386 . S
C420 C415 1.490 . S
C420 C422 1.395 . S
C420 C423 1.403 . S
H421 C427 0.930 . S
C422 H408 0.930 . S
C422 C420 1.395 . S
C422 C425 1.403 . S
C423 C420 1.403 . S
C423 C424 1.524 . S
C423 C427 1.400 . S
C424 H409 0.960 . S
C424 H410 0.960 . S
C424 H411 0.960 . S
C424 C423 1.524 . S
C425 C422 1.403 . S
C425 C426 1.392 . S
C425 C429 1.495 . S
C426 C425 1.392 . S
C426 C427 1.385 . S
C426 C428 1.478 . S
C427 H421 0.930 . S
C427 C423 1.400 . S
C427 C426 1.385 . S
C428 C426 1.478 . S
C428 C430 1.381 . S
C428 C434 1.383 . S
C429 C425 1.495 . S
C429 H435 0.959 . S
C429 H436 0.961 . S
C429 H437 0.960 . S
C430 C428 1.381 . S
C430 C431 1.394 . S
C430 H438 0.930 . S
C431 C430 1.394 . S
C431 C432 1.383 . S
C431 H439 0.929 . S
C432 C431 1.383 . S
C432 C433 1.377 . S
C433 H417 0.930 . S
C433 C432 1.377 . S
C433 C434 1.379 . S
C434 H418 0.931 . S
C434 C428 1.383 . S
C434 C433 1.379 . S
H435 C429 0.959 . S
H436 C429 0.961 . S
H437 C429 0.960 . S
H438 C430 0.930 . S
H439 C431 0.929 . S
H440 C448 0.929 . S
H441 C450 0.930 . S
H442 C452 0.930 . S
H443 C455 0.929 . S
H444 C458 0.930 . S
H445 C460 0.960 . S
H446 C460 0.960 . S
H447 C460 0.960 . S
C448 H440 0.929 . S
C448 C449 1.377 . S
C448 C450 1.384 . S
C449 C448 1.377 . S
C449 C455 1.390 . S
C450 H441 0.930 . S
C450 C448 1.384 . S
C450 C451 1.372 . S
C451 C450 1.372 . S
C451 C452 1.400 . S
C451 C456 1.490 . S
C452 H442 0.930 . S
C452 C451 1.400 . S
C452 C455 1.386 . S
H453 C469 0.930 . S
H454 C470 0.931 . S
C455 H443 0.929 . S
C455 C449 1.390 . S
C455 C452 1.386 . S
C456 C451 1.490 . S
C456 C458 1.395 . S
C456 C459 1.403 . S
H457 C463 0.930 . S
C458 H444 0.930 . S
C458 C456 1.395 . S
C458 C461 1.403 . S
C459 C456 1.403 . S
C459 C460 1.524 . S
C459 C463 1.400 . S
C460 H445 0.960 . S
C460 H446 0.960 . S
C460 H447 0.960 . S
C460 C459 1.524 . S
C461 C458 1.403 . S
C461 C462 1.392 . S
C461 C465 1.495 . S
C462 C461 1.392 . S
C462 C463 1.385 . S
C462 C464 1.478 . S
C463 H457 0.930 . S
C463 C459 1.400 . S
C463 C462 1.385 . S
C464 C462 1.478 . S
C464 C466 1.381 . S
C464 C470 1.383 . S
C465 C461 1.495 . S
C465 H471 0.959 . S
C465 H472 0.961 . S
C465 H473 0.960 . S
C466 C464 1.381 . S
C466 C467 1.394 . S
C466 H474 0.930 . S
C467 C466 1.394 . S
C467 C468 1.383 . S
C467 H475 0.929 . S
C468 C467 1.383 . S
C468 C469 1.377 . S
C469 H453 0.930 . S
C469 C468 1.377 . S
C469 C470 1.379 . S
C470 H454 0.931 . S
C470 C464 1.383 . S
C470 C469 1.379 . S
H471 C465 0.959 . S
H472 C465 0.961 . S
H473 C465 0.960 . S
H474 C466 0.930 . S
H475 C467 0.929 . S
H476 C484 0.929 . S
H477 C486 0.930 . S
H478 C488 0.930 . S
H479 C491 0.929 . S
H480 C494 0.930 . S
H481 C496 0.960 . S
H482 C496 0.960 . S
H483 C496 0.960 . S
C484 H476 0.929 . S
C484 C485 1.377 . S
C484 C486 1.384 . S
C485 C484 1.377 . S
C485 C491 1.390 . S
C486 H477 0.930 . S
C486 C484 1.384 . S
C486 C487 1.372 . S
C487 C486 1.372 . S
C487 C488 1.400 . S
C487 C492 1.490 . S
C488 H478 0.930 . S
C488 C487 1.400 . S
C488 C491 1.386 . S
H489 C505 0.930 . S
H490 C506 0.931 . S
C491 H479 0.929 . S
C491 C485 1.390 . S
C491 C488 1.386 . S
C492 C487 1.490 . S
C492 C494 1.395 . S
C492 C495 1.403 . S
H493 C499 0.930 . S
C494 H480 0.930 . S
C494 C492 1.395 . S
C494 C497 1.403 . S
C495 C492 1.403 . S
C495 C496 1.524 . S
C495 C499 1.400 . S
C496 H481 0.960 . S
C496 H482 0.960 . S
C496 H483 0.960 . S
C496 C495 1.524 . S
C497 C494 1.403 . S
C497 C498 1.392 . S
C497 C501 1.495 . S
C498 C497 1.392 . S
C498 C499 1.385 . S
C498 C500 1.478 . S
C499 H493 0.930 . S
C499 C495 1.400 . S
C499 C498 1.385 . S
C500 C498 1.478 . S
C500 C502 1.381 . S
C500 C506 1.383 . S
C501 C497 1.495 . S
C501 H507 0.959 . S
C501 H508 0.961 . S
C501 H509 0.960 . S
C502 C500 1.381 . S
C502 C503 1.394 . S
C502 H510 0.930 . S
C503 C502 1.394 . S
C503 C504 1.383 . S
C503 H511 0.929 . S
C504 C503 1.383 . S
C504 C505 1.377 . S
C505 H489 0.930 . S
C505 C504 1.377 . S
C505 C506 1.379 . S
C506 H490 0.931 . S
C506 C500 1.383 . S
C506 C505 1.379 . S
H507 C501 0.959 . S
H508 C501 0.961 . S
H509 C501 0.960 . S
H510 C502 0.930 . S
H511 C503 0.929 . S
H512 C520 0.929 . S
H513 C522 0.930 . S
H514 C524 0.930 . S
H515 C527 0.929 . S
H516 C530 0.930 . S
H517 C532 0.960 . S
H518 C532 0.960 . S
H519 C532 0.960 . S
C520 H512 0.929 . S
C520 C521 1.377 . S
C520 C522 1.384 . S
C521 C520 1.377 . S
C521 C527 1.390 . S
C522 H513 0.930 . S
C522 C520 1.384 . S
C522 C523 1.372 . S
C523 C522 1.372 . S
C523 C524 1.400 . S
C523 C528 1.490 . S
C524 H514 0.930 . S
C524 C523 1.400 . S
C524 C527 1.386 . S
H525 C541 0.930 . S
H526 C542 0.931 . S
C527 H515 0.929 . S
C527 C521 1.390 . S
C527 C524 1.386 . S
C528 C523 1.490 . S
C528 C530 1.395 . S
C528 C531 1.403 . S
H529 C535 0.930 . S
C530 H516 0.930 . S
C530 C528 1.395 . S
C530 C533 1.403 . S
C531 C528 1.403 . S
C531 C532 1.524 . S
C531 C535 1.400 . S
C532 H517 0.960 . S
C532 H518 0.960 . S
C532 H519 0.960 . S
C532 C531 1.524 . S
C533 C530 1.403 . S
C533 C534 1.392 . S
C533 C537 1.495 . S
C534 C533 1.392 . S
C534 C535 1.385 . S
C534 C536 1.478 . S
C535 H529 0.930 . S
C535 C531 1.400 . S
C535 C534 1.385 . S
C536 C534 1.478 . S
C536 C538 1.381 . S
C536 C542 1.383 . S
C537 C533 1.495 . S
C537 H543 0.959 . S
C537 H544 0.961 . S
C537 H545 0.960 . S
C538 C536 1.381 . S
C538 C539 1.394 . S
C538 H546 0.930 . S
C539 C538 1.394 . S
C539 C540 1.383 . S
C539 H547 0.929 . S
C540 C539 1.383 . S
C540 C541 1.377 . S
C541 H525 0.930 . S
C541 C540 1.377 . S
C541 C542 1.379 . S
C542 H526 0.931 . S
C542 C536 1.383 . S
C542 C541 1.379 . S
H543 C537 0.959 . S
H544 C537 0.961 . S
H545 C537 0.960 . S
H546 C538 0.930 . S
H547 C539 0.929 . S
H548 C556 0.929 . S
H549 C558 0.930 . S
H550 C560 0.930 . S
H551 C563 0.929 . S
H552 C566 0.930 . S
H553 C568 0.960 . S
H554 C568 0.960 . S
H555 C568 0.960 . S
C556 H548 0.929 . S
C556 C557 1.377 . S
C556 C558 1.384 . S
C557 C556 1.377 . S
C557 C563 1.390 . S
C558 H549 0.930 . S
C558 C556 1.384 . S
C558 C559 1.372 . S
C559 C558 1.372 . S
C559 C560 1.400 . S
C559 C564 1.490 . S
C560 H550 0.930 . S
C560 C559 1.400 . S
C560 C563 1.386 . S
H561 C577 0.930 . S
H562 C578 0.931 . S
C563 H551 0.929 . S
C563 C557 1.390 . S
C563 C560 1.386 . S
C564 C559 1.490 . S
C564 C566 1.395 . S
C564 C567 1.403 . S
H565 C571 0.930 . S
C566 H552 0.930 . S
C566 C564 1.395 . S
C566 C569 1.403 . S
C567 C564 1.403 . S
C567 C568 1.524 . S
C567 C571 1.400 . S
C568 H553 0.960 . S
C568 H554 0.960 . S
C568 H555 0.960 . S
C568 C567 1.524 . S
C569 C566 1.403 . S
C569 C570 1.392 . S
C569 C573 1.495 . S
C570 C569 1.392 . S
C570 C571 1.385 . S
C570 C572 1.478 . S
C571 H565 0.930 . S
C571 C567 1.400 . S
C571 C570 1.385 . S
C572 C570 1.478 . S
C572 C574 1.381 . S
C572 C578 1.383 . S
C573 C569 1.495 . S
C573 H579 0.959 . S
C573 H580 0.961 . S
C573 H581 0.960 . S
C574 C572 1.381 . S
C574 C575 1.394 . S
C574 H582 0.930 . S
C575 C574 1.394 . S
C575 C576 1.383 . S
C575 H583 0.929 . S
C576 C575 1.383 . S
C576 C577 1.377 . S
C577 H561 0.930 . S
C577 C576 1.377 . S
C577 C578 1.379 . S
C578 H562 0.931 . S
C578 C572 1.383 . S
C578 C577 1.379 . S
H579 C573 0.959 . S
H580 C573 0.961 . S
H581 C573 0.960 . S
H582 C574 0.930 . S
H583 C575 0.929 . S
H584 C592 0.929 . S
H585 C594 0.930 . S
H586 C596 0.930 . S
H587 C599 0.929 . S
H588 C602 0.930 . S
H589 C604 0.960 . S
H590 C604 0.960 . S
H591 C604 0.960 . S
C592 H584 0.929 . S
C592 C593 1.377 . S
C592 C594 1.384 . S
C593 C592 1.377 . S
C593 C599 1.390 . S
C594 H585 0.930 . S
C594 C592 1.384 . S
C594 C595 1.372 . S
C595 C594 1.372 . S
C595 C596 1.400 . S
C595 C600 1.490 . S
C596 H586 0.930 . S
C596 C595 1.400 . S
C596 C599 1.386 . S
H597 C613 0.930 . S
H598 C614 0.931 . S
C599 H587 0.929 . S
C599 C593 1.390 . S
C599 C596 1.386 . S
C600 C595 1.490 . S
C600 C602 1.395 . S
C600 C603 1.403 . S
H601 C607 0.930 . S
C602 H588 0.930 . S
C602 C600 1.395 . S
C602 C605 1.403 . S
C603 C600 1.403 . S
C603 C604 1.524 . S
C603 C607 1.400 . S
C604 H589 0.960 . S
C604 H590 0.960 . S
C604 H591 0.960 . S
C604 C603 1.524 . S
C605 C602 1.403 . S
C605 C606 1.392 . S
C605 C609 1.495 . S
C606 C605 1.392 . S
C606 C607 1.385 . S
C606 C608 1.478 . S
C607 H601 0.930 . S
C607 C603 1.400 . S
C607 C606 1.385 . S
C608 C606 1.478 . S
C608 C610 1.381 . S
C608 C614 1.383 . S
C609 C605 1.495 . S
C609 H615 0.959 . S
C609 H616 0.961 . S
C609 H617 0.960 . S
C610 C608 1.381 . S
C610 C611 1.394 . S
C610 H618 0.930 . S
C611 C610 1.394 . S
C611 C612 1.383 . S
C611 H619 0.929 . S
C612 C611 1.383 . S
C612 C613 1.377 . S
C613 H597 0.930 . S
C613 C612 1.377 . S
C613 C614 1.379 . S
C614 H598 0.931 . S
C614 C608 1.383 . S
C614 C613 1.379 . S
H615 C609 0.959 . S
H616 C609 0.961 . S
H617 C609 0.960 . S
H618 C610 0.930 . S
H619 C611 0.929 . S
H620 C628 0.929 . S
H621 C630 0.930 . S
H622 C632 0.930 . S
H623 C635 0.929 . S
H624 C638 0.930 . S
H625 C640 0.960 . S
H626 C640 0.960 . S
H627 C640 0.960 . S
C628 H620 0.929 . S
C628 C629 1.377 . S
C628 C630 1.384 . S
C629 C628 1.377 . S
C629 C635 1.390 . S
C630 H621 0.930 . S
C630 C628 1.384 . S
C630 C631 1.372 . S
C631 C630 1.372 . S
C631 C632 1.400 . S
C631 C636 1.490 . S
C632 H622 0.930 . S
C632 C631 1.400 . S
C632 C635 1.386 . S
H633 C649 0.930 . S
H634 C650 0.931 . S
C635 H623 0.929 . S
C635 C629 1.390 . S
C635 C632 1.386 . S
C636 C631 1.490 . S
C636 C638 1.395 . S
C636 C639 1.403 . S
H637 C643 0.930 . S
C638 H624 0.930 . S
C638 C636 1.395 . S
C638 C641 1.403 . S
C639 C636 1.403 . S
C639 C640 1.524 . S
C639 C643 1.400 . S
C640 H625 0.960 . S
C640 H626 0.960 . S
C640 H627 0.960 . S
C640 C639 1.524 . S
C641 C638 1.403 . S
C641 C642 1.392 . S
C641 C645 1.495 . S
C642 C641 1.392 . S
C642 C643 1.385 . S
C642 C644 1.478 . S
C643 H637 0.930 . S
C643 C639 1.400 . S
C643 C642 1.385 . S
C644 C642 1.478 . S
C644 C646 1.381 . S
C644 C650 1.383 . S
C645 C641 1.495 . S
C645 H651 0.959 . S
C645 H652 0.961 . S
C645 H653 0.960 . S
C646 C644 1.381 . S
C646 C647 1.394 . S
C646 H654 0.930 . S
C647 C646 1.394 . S
C647 C648 1.383 . S
C647 H655 0.929 . S
C648 C647 1.383 . S
C648 C649 1.377 . S
C649 H633 0.930 . S
C649 C648 1.377 . S
C649 C650 1.379 . S
C650 H634 0.931 . S
C650 C644 1.383 . S
C650 C649 1.379 . S
H651 C645 0.959 . S
H652 C645 0.961 . S
H653 C645 0.960 . S
H654 C646 0.930 . S
H655 C647 0.929 . S
H656 C664 0.929 . S
H657 C666 0.930 . S
H658 C668 0.930 . S
H659 C671 0.929 . S
H660 C674 0.930 . S
H661 C676 0.960 . S
H662 C676 0.960 . S
H663 C676 0.960 . S
C664 H656 0.929 . S
C664 C665 1.377 . S
C664 C666 1.384 . S
C665 C664 1.377 . S
C665 C671 1.390 . S
C666 H657 0.930 . S
C666 C664 1.384 . S
C666 C667 1.372 . S
C667 C666 1.372 . S
C667 C668 1.400 . S
C667 C672 1.490 . S
C668 H658 0.930 . S
C668 C667 1.400 . S
C668 C671 1.386 . S
H669 C685 0.930 . S
H670 C686 0.931 . S
C671 H659 0.929 . S
C671 C665 1.390 . S
C671 C668 1.386 . S
C672 C667 1.490 . S
C672 C674 1.395 . S
C672 C675 1.403 . S
H673 C679 0.930 . S
C674 H660 0.930 . S
C674 C672 1.395 . S
C674 C677 1.403 . S
C675 C672 1.403 . S
C675 C676 1.524 . S
C675 C679 1.400 . S
C676 H661 0.960 . S
C676 H662 0.960 . S
C676 H663 0.960 . S
C676 C675 1.524 . S
C677 C674 1.403 . S
C677 C678 1.392 . S
C677 C681 1.495 . S
C678 C677 1.392 . S
C678 C679 1.385 . S
C678 C680 1.478 . S
C679 H673 0.930 . S
C679 C675 1.400 . S
C679 C678 1.385 . S
C680 C678 1.478 . S
C680 C682 1.381 . S
C680 C686 1.383 . S
C681 C677 1.495 . S
C681 H687 0.959 . S
C681 H688 0.961 . S
C681 H689 0.960 . S
C682 C680 1.381 . S
C682 C683 1.394 . S
C682 H690 0.930 . S
C683 C682 1.394 . S
C683 C684 1.383 . S
C683 H691 0.929 . S
C684 C683 1.383 . S
C684 C685 1.377 . S
C685 H669 0.930 . S
C685 C684 1.377 . S
C685 C686 1.379 . S
C686 H670 0.931 . S
C686 C680 1.383 . S
C686 C685 1.379 . S
H687 C681 0.959 . S
H688 C681 0.961 . S
H689 C681 0.960 . S
H690 C682 0.930 . S
H691 C683 0.929 . S
H692 C700 0.929 . S
H693 C702 0.930 . S
H694 C704 0.930 . S
H695 C707 0.929 . S
H696 C710 0.930 . S
H697 C712 0.960 . S
H698 C712 0.960 . S
H699 C712 0.960 . S
C700 H692 0.929 . S
C700 C701 1.377 . S
C700 C702 1.384 . S
C701 C700 1.377 . S
C701 C707 1.390 . S
C702 H693 0.930 . S
C702 C700 1.384 . S
C702 C703 1.372 . S
C703 C702 1.372 . S
C703 C704 1.400 . S
C703 C708 1.490 . S
C704 H694 0.930 . S
C704 C703 1.400 . S
C704 C707 1.386 . S
H705 C721 0.930 . S
H706 C722 0.931 . S
C707 H695 0.929 . S
C707 C701 1.390 . S
C707 C704 1.386 . S
C708 C703 1.490 . S
C708 C710 1.395 . S
C708 C711 1.403 . S
H709 C715 0.930 . S
C710 H696 0.930 . S
C710 C708 1.395 . S
C710 C713 1.403 . S
C711 C708 1.403 . S
C711 C712 1.524 . S
C711 C715 1.400 . S
C712 H697 0.960 . S
C712 H698 0.960 . S
C712 H699 0.960 . S
C712 C711 1.524 . S
C713 C710 1.403 . S
C713 C714 1.392 . S
C713 C717 1.495 . S
C714 C713 1.392 . S
C714 C715 1.385 . S
C714 C716 1.478 . S
C715 H709 0.930 . S
C715 C711 1.400 . S
C715 C714 1.385 . S
C716 C714 1.478 . S
C716 C718 1.381 . S
C716 C722 1.383 . S
C717 C713 1.495 . S
C717 H723 0.959 . S
C717 H724 0.961 . S
C717 H725 0.960 . S
C718 C716 1.381 . S
C718 C719 1.394 . S
C718 H726 0.930 . S
C719 C718 1.394 . S
C719 C720 1.383 . S
C719 H727 0.929 . S
C720 C719 1.383 . S
C720 C721 1.377 . S
C721 H705 0.930 . S
C721 C720 1.377 . S
C721 C722 1.379 . S
C722 H706 0.931 . S
C722 C716 1.383 . S
C722 C721 1.379 . S
H723 C717 0.959 . S
H724 C717 0.961 . S
H725 C717 0.960 . S
H726 C718 0.930 . S
H727 C719 0.929 . S
H728 C736 0.929 . S
H729 C738 0.930 . S
H730 C740 0.930 . S
H731 C743 0.929 . S
H732 C746 0.930 . S
H733 C748 0.960 . S
H734 C748 0.960 . S
H735 C748 0.960 . S
C736 H728 0.929 . S
C736 C737 1.377 . S
C736 C738 1.384 . S
C737 C736 1.377 . S
C737 C743 1.390 . S
C738 H729 0.930 . S
C738 C736 1.384 . S
C738 C739 1.372 . S
C739 C738 1.372 . S
C739 C740 1.400 . S
C739 C744 1.490 . S
C740 H730 0.930 . S
C740 C739 1.400 . S
C740 C743 1.386 . S
H741 C757 0.930 . S
H742 C758 0.931 . S
C743 H731 0.929 . S
C743 C737 1.390 . S
C743 C740 1.386 . S
C744 C739 1.490 . S
C744 C746 1.395 . S
C744 C747 1.403 . S
H745 C751 0.930 . S
C746 H732 0.930 . S
C746 C744 1.395 . S
C746 C749 1.403 . S
C747 C744 1.403 . S
C747 C748 1.524 . S
C747 C751 1.400 . S
C748 H733 0.960 . S
C748 H734 0.960 . S
C748 H735 0.960 . S
C748 C747 1.524 . S
C749 C746 1.403 . S
C749 C750 1.392 . S
C749 C753 1.495 . S
C750 C749 1.392 . S
C750 C751 1.385 . S
C750 C752 1.478 . S
C751 H745 0.930 . S
C751 C747 1.400 . S
C751 C750 1.385 . S
C752 C750 1.478 . S
C752 C754 1.381 . S
C752 C758 1.383 . S
C753 C749 1.495 . S
C753 H759 0.959 . S
C753 H760 0.961 . S
C753 H761 0.960 . S
C754 C752 1.381 . S
C754 C755 1.394 . S
C754 H762 0.930 . S
C755 C754 1.394 . S
C755 C756 1.383 . S
C755 H763 0.929 . S
C756 C755 1.383 . S
C756 C757 1.377 . S
C757 H741 0.930 . S
C757 C756 1.377 . S
C757 C758 1.379 . S
C758 H742 0.931 . S
C758 C752 1.383 . S
C758 C757 1.379 . S
H759 C753 0.959 . S
H760 C753 0.961 . S
H761 C753 0.960 . S
H762 C754 0.930 . S
H763 C755 0.929 . S
H764 C772 0.929 . S
H765 C774 0.930 . S
H766 C776 0.930 . S
H767 C779 0.929 . S
H768 C782 0.930 . S
H769 C784 0.960 . S
H770 C784 0.960 . S
H771 C784 0.960 . S
C772 H764 0.929 . S
C772 C773 1.377 . S
C772 C774 1.384 . S
C773 C772 1.377 . S
C773 C779 1.390 . S
C774 H765 0.930 . S
C774 C772 1.384 . S
C774 C775 1.372 . S
C775 C774 1.372 . S
C775 C776 1.400 . S
C775 C780 1.490 . S
C776 H766 0.930 . S
C776 C775 1.400 . S
C776 C779 1.386 . S
H777 C793 0.930 . S
H778 C794 0.931 . S
C779 H767 0.929 . S
C779 C773 1.390 . S
C779 C776 1.386 . S
C780 C775 1.490 . S
C780 C782 1.395 . S
C780 C783 1.403 . S
H781 C787 0.930 . S
C782 H768 0.930 . S
C782 C780 1.395 . S
C782 C785 1.403 . S
C783 C780 1.403 . S
C783 C784 1.524 . S
C783 C787 1.400 . S
C784 H769 0.960 . S
C784 H770 0.960 . S
C784 H771 0.960 . S
C784 C783 1.524 . S
C785 C782 1.403 . S
C785 C786 1.392 . S
C785 C789 1.495 . S
C786 C785 1.392 . S
C786 C787 1.385 . S
C786 C788 1.478 . S
C787 H781 0.930 . S
C787 C783 1.400 . S
C787 C786 1.385 . S
C788 C786 1.478 . S
C788 C790 1.381 . S
C788 C794 1.383 . S
C789 C785 1.495 . S
C789 H795 0.959 . S
C789 H796 0.961 . S
C789 H797 0.960 . S
C790 C788 1.381 . S
C790 C791 1.394 . S
C790 H798 0.930 . S
C791 C790 1.394 . S
C791 C792 1.383 . S
C791 H799 0.929 . S
C792 C791 1.383 . S
C792 C793 1.377 . S
C793 H777 0.930 . S
C793 C792 1.377 . S
C793 C794 1.379 . S
C794 H778 0.931 . S
C794 C788 1.383 . S
C794 C793 1.379 . S
H795 C789 0.959 . S
H796 C789 0.961 . S
H797 C789 0.960 . S
H798 C790 0.930 . S
H799 C791 0.929 . S
H800 C808 0.929 . S
H801 C810 0.930 . S
H802 C812 0.930 1_554 S
H803 C815 0.929 . S
H804 C818 0.930 . S
H805 C820 0.960 . S
H806 C820 0.977 . S
H807 C820 0.960 . S
C808 H800 0.929 . S
C808 C809 1.377 . S
C808 C810 1.384 . S
C809 C808 1.377 . S
C809 C815 1.390 . S
C810 H801 0.930 . S
C810 C808 1.384 . S
C810 C811 1.372 . S
C811 C810 1.372 . S
C811 C812 1.400 . S
C811 C816 1.490 . S
C812 H802 0.930 1_556 S
C812 C811 1.400 . S
C812 C815 1.386 . S
H813 C829 0.930 . S
H814 C830 0.931 . S
C815 H803 0.929 . S
C815 C809 1.390 . S
C815 C812 1.386 . S
C816 C811 1.490 . S
C816 C818 1.395 . S
C816 C819 1.403 1_556 S
H817 C823 0.930 . S
C818 H804 0.930 . S
C818 C816 1.395 . S
C818 C821 1.403 . S
C819 C816 1.403 1_554 S
C819 C820 1.524 . S
C819 C823 1.400 . S
C820 H805 0.960 . S
C820 H806 0.977 . S
C820 H807 0.960 . S
C820 C819 1.524 . S
C821 C818 1.403 . S
C821 C822 1.392 1_556 S
C821 C825 1.495 . S
C822 C821 1.392 1_554 S
C822 C823 1.385 . S
C822 C824 1.478 . S
C823 H817 0.930 . S
C823 C819 1.400 . S
C823 C822 1.385 . S
C824 C822 1.478 . S
C824 C826 1.381 . S
C824 C830 1.383 . S
C825 C821 1.495 . S
C825 H831 0.959 . S
C825 H832 0.961 . S
C825 H833 0.960 . S
C826 C824 1.381 . S
C826 C827 1.394 . S
C826 H834 0.930 1_554 S
C827 C826 1.394 . S
C827 C828 1.383 . S
C827 H835 0.929 . S
C828 C827 1.383 . S
C828 C829 1.377 . S
C829 H813 0.930 . S
C829 C828 1.377 . S
C829 C830 1.379 . S
C830 H814 0.931 . S
C830 C824 1.383 . S
C830 C829 1.379 . S
H831 C825 0.959 . S
H832 C825 0.961 . S
H833 C825 0.960 . S
H834 C826 0.930 1_556 S
H835 C827 0.929 . S
H836 C844 0.929 . S
H837 C846 0.930 . S
H838 C848 0.930 . S
H839 C851 0.929 . S
H840 C854 0.930 . S
H841 C856 0.960 . S
H842 C856 0.960 . S
H843 C856 0.960 . S
C844 H836 0.929 . S
C844 C845 1.377 . S
C844 C846 1.384 . S
C845 C844 1.377 . S
C845 C851 1.390 . S
C846 H837 0.930 . S
C846 C844 1.384 . S
C846 C847 1.372 . S
C847 C846 1.372 . S
C847 C848 1.400 . S
C847 C852 1.490 . S
C848 H838 0.930 . S
C848 C847 1.400 . S
C848 C851 1.386 . S
H849 C865 0.930 . S
H850 C866 0.931 . S
C851 H839 0.929 . S
C851 C845 1.390 . S
C851 C848 1.386 . S
C852 C847 1.490 . S
C852 C854 1.395 . S
C852 C855 1.403 . S
H853 C859 0.930 . S
C854 H840 0.930 . S
C854 C852 1.395 . S
C854 C857 1.403 . S
C855 C852 1.403 . S
C855 C856 1.524 . S
C855 C859 1.400 . S
C856 H841 0.960 . S
C856 H842 0.960 . S
C856 H843 0.960 . S
C856 C855 1.524 . S
C857 C854 1.403 . S
C857 C858 1.392 . S
C857 C861 1.495 . S
C858 C857 1.392 . S
C858 C859 1.385 . S
C858 C860 1.478 . S
C859 H853 0.930 . S
C859 C855 1.400 . S
C859 C858 1.385 . S
C860 C858 1.478 . S
C860 C862 1.381 . S
C860 C866 1.383 . S
C861 C857 1.495 . S
C861 H867 0.959 . S
C861 H868 0.961 . S
C861 H869 0.960 . S
C862 C860 1.381 . S
C862 C863 1.394 . S
C862 H870 0.930 . S
C863 C862 1.394 . S
C863 C864 1.383 . S
C863 H871 0.929 . S
C864 C863 1.383 . S
C864 C865 1.377 . S
C865 H849 0.930 . S
C865 C864 1.377 . S
C865 C866 1.379 . S
C866 H850 0.931 . S
C866 C860 1.383 . S
C866 C865 1.379 . S
H867 C861 0.959 . S
H868 C861 0.961 . S
H869 C861 0.960 . S
H870 C862 0.930 . S
H871 C863 0.929 . S
H872 C880 0.929 . S
H873 C882 0.930 . S
H874 C884 0.930 . S
H875 C887 0.929 . S
H876 C890 0.930 . S
H877 C892 0.960 . S
H878 C892 0.960 . S
H879 C892 0.960 . S
C880 H872 0.929 . S
C880 C881 1.377 . S
C880 C882 1.384 . S
C881 C880 1.377 . S
C881 C887 1.390 . S
C882 H873 0.930 . S
C882 C880 1.384 . S
C882 C883 1.372 . S
C883 C882 1.372 . S
C883 C884 1.400 . S
C883 C888 1.490 . S
C884 H874 0.930 . S
C884 C883 1.400 . S
C884 C887 1.386 . S
H885 C901 0.930 . S
H886 C902 0.931 . S
C887 H875 0.929 . S
C887 C881 1.390 . S
C887 C884 1.386 . S
C888 C883 1.490 . S
C888 C890 1.395 1_554 S
C888 C891 1.403 . S
H889 C895 0.930 . S
C890 H876 0.930 . S
C890 C888 1.395 1_556 S
C890 C893 1.403 . S
C891 C888 1.403 . S
C891 C892 1.524 . S
C891 C895 1.400 . S
C892 H877 0.960 . S
C892 H878 0.960 . S
C892 H879 0.960 . S
C892 C891 1.524 . S
C893 C890 1.403 . S
C893 C894 1.392 . S
C893 C897 1.495 . S
C894 C893 1.392 . S
C894 C895 1.385 1_556 S
C894 C896 1.478 . S
C895 H889 0.930 . S
C895 C891 1.400 . S
C895 C894 1.385 1_554 S
C896 C894 1.478 . S
C896 C898 1.381 . S
C896 C902 1.383 . S
C897 C893 1.495 . S
C897 H903 0.959 . S
C897 H904 0.961 . S
C897 H905 0.960 . S
C898 C896 1.381 . S
C898 C899 1.394 . S
C898 H906 0.930 . S
C899 C898 1.394 . S
C899 C900 1.383 . S
C899 H907 0.929 . S
C900 C899 1.383 . S
C900 C901 1.377 . S
C901 H885 0.930 . S
C901 C900 1.377 . S
C901 C902 1.379 . S
C902 H886 0.931 . S
C902 C896 1.383 . S
C902 C901 1.379 . S
H903 C897 0.959 . S
H904 C897 0.961 . S
H905 C897 0.960 . S
H906 C898 0.930 . S
H907 C899 0.929 . S
H908 C916 0.929 . S
H909 C918 0.930 . S
H910 C920 0.930 . S
H911 C923 0.929 . S
H912 C926 0.930 . S
H913 C928 0.960 . S
H914 C928 0.960 . S
H915 C928 0.960 . S
C916 H908 0.929 . S
C916 C917 1.377 . S
C916 C918 1.384 . S
C917 C916 1.377 . S
C917 C923 1.390 . S
C918 H909 0.930 . S
C918 C916 1.384 . S
C918 C919 1.372 . S
C919 C918 1.372 . S
C919 C920 1.400 . S
C919 C924 1.490 . S
C920 H910 0.930 . S
C920 C919 1.400 . S
C920 C923 1.386 . S
H921 C937 0.930 . S
H922 C938 0.931 . S
C923 H911 0.929 . S
C923 C917 1.390 . S
C923 C920 1.386 . S
C924 C919 1.490 . S
C924 C926 1.395 . S
C924 C927 1.403 . S
H925 C931 0.930 . S
C926 H912 0.930 . S
C926 C924 1.395 . S
C926 C929 1.403 . S
C927 C924 1.403 . S
C927 C928 1.524 . S
C927 C931 1.400 . S
C928 H913 0.960 . S
C928 H914 0.960 . S
C928 H915 0.960 . S
C928 C927 1.524 . S
C929 C926 1.403 . S
C929 C930 1.392 . S
C929 C933 1.495 . S
C930 C929 1.392 . S
C930 C931 1.385 . S
C930 C932 1.478 . S
C931 H925 0.930 . S
C931 C927 1.400 . S
C931 C930 1.385 . S
C932 C930 1.478 . S
C932 C934 1.381 . S
C932 C938 1.383 . S
C933 C929 1.495 . S
C933 H939 0.959 . S
C933 H940 0.961 . S
C933 H941 0.960 . S
C934 C932 1.381 . S
C934 C935 1.394 . S
C934 H942 0.930 . S
C935 C934 1.394 . S
C935 C936 1.383 . S
C935 H943 0.929 . S
C936 C935 1.383 . S
C936 C937 1.377 . S
C937 H921 0.930 . S
C937 C936 1.377 . S
C937 C938 1.379 . S
C938 H922 0.931 . S
C938 C932 1.383 . S
C938 C937 1.379 . S
H939 C933 0.959 . S
H940 C933 0.961 . S
H941 C933 0.960 . S
H942 C934 0.930 . S
H943 C935 0.929 . S
H944 C952 0.929 . S
H945 C954 0.930 . S
H946 C956 0.930 . S
H947 C959 0.929 . S
H948 C962 0.930 . S
H949 C964 0.960 . S
H950 C964 0.960 . S
H951 C964 0.960 . S
C952 H944 0.929 . S
C952 C953 1.377 . S
C952 C954 1.384 . S
C953 C952 1.377 . S
C953 C959 1.390 . S
C954 H945 0.930 . S
C954 C952 1.384 . S
C954 C955 1.372 . S
C955 C954 1.372 . S
C955 C956 1.400 . S
C955 C960 1.490 . S
C956 H946 0.930 . S
C956 C955 1.400 . S
C956 C959 1.386 . S
H957 C973 0.930 . S
H958 C974 0.931 . S
C959 H947 0.929 . S
C959 C953 1.390 . S
C959 C956 1.386 . S
C960 C955 1.490 . S
C960 C962 1.395 . S
C960 C963 1.403 1_554 S
H961 C967 0.930 . S
C962 H948 0.930 . S
C962 C960 1.395 . S
C962 C965 1.403 . S
C963 C960 1.403 1_556 S
C963 C964 1.524 . S
C963 C967 1.400 . S
C964 H949 0.960 . S
C964 H950 0.960 . S
C964 H951 0.960 . S
C964 C963 1.524 . S
C965 C962 1.403 . S
C965 C966 1.392 1_554 S
C965 C969 1.495 . S
C966 C965 1.392 1_556 S
C966 C967 1.385 . S
C966 C968 1.478 . S
C967 H961 0.930 . S
C967 C963 1.400 . S
C967 C966 1.385 . S
C968 C966 1.478 . S
C968 C970 1.381 . S
C968 C974 1.383 . S
C969 C965 1.495 . S
C969 H975 0.959 . S
C969 H976 0.961 . S
C969 H977 0.960 . S
C970 C968 1.381 . S
C970 C971 1.394 . S
C970 H978 0.930 . S
C971 C970 1.394 . S
C971 C972 1.383 . S
C971 H979 0.929 . S
C972 C971 1.383 . S
C972 C973 1.377 . S
C973 H957 0.930 . S
C973 C972 1.377 . S
C973 C974 1.379 . S
C974 H958 0.931 . S
C974 C968 1.383 . S
C974 C973 1.379 . S
H975 C969 0.959 . S
H976 C969 0.961 . S
H977 C969 0.960 . S
H978 C970 0.930 . S
H979 C971 0.929 . S
H980 C988 0.929 . S
H981 C990 0.930 . S
H982 C992 0.930 . S
H983 C995 0.929 . S
H984 C998 0.930 . S
H985 C1000 0.960 . S
H986 C1000 0.960 . S
H987 C1000 0.960 . S
C988 H980 0.929 . S
C988 C989 1.377 . S
C988 C990 1.384 . S
C989 C988 1.377 . S
C989 C995 1.390 . S
C990 H981 0.930 . S
C990 C988 1.384 . S
C990 C991 1.372 . S
C991 C990 1.372 . S
C991 C992 1.400 . S
C991 C996 1.490 . S
C992 H982 0.930 . S
C992 C991 1.400 . S
C992 C995 1.386 . S
H993 C1009 0.930 . S
H994 C1010 0.931 . S
C995 H983 0.929 . S
C995 C989 1.390 . S
C995 C992 1.386 . S
C996 C991 1.490 . S
C996 C998 1.395 . S
C996 C999 1.403 . S
H997 C1003 0.930 . S
C998 H984 0.930 . S
C998 C996 1.395 . S
C998 C1001 1.403 . S
C999 C996 1.403 . S
C999 C1000 1.524 . S
C999 C1003 1.400 . S
C1000 H985 0.960 . S
C1000 H986 0.960 . S
C1000 H987 0.960 . S
C1000 C999 1.524 . S
C1001 C998 1.403 . S
C1001 C1002 1.392 . S
C1001 C1005 1.495 . S
C1002 C1001 1.392 . S
C1002 C1003 1.385 . S
C1002 C1004 1.478 . S
C1003 H997 0.930 . S
C1003 C999 1.400 . S
C1003 C1002 1.385 . S
C1004 C1002 1.478 . S
C1004 C1006 1.381 . S
C1004 C1010 1.383 . S
C1005 C1001 1.495 . S
C1005 H1011 0.959 . S
C1005 H1012 0.961 . S
C1005 H1013 0.960 . S
C1006 C1004 1.381 . S
C1006 C1007 1.394 . S
C1006 H1014 0.930 . S
C1007 C1006 1.394 . S
C1007 C1008 1.383 . S
C1007 H1015 0.929 . S
C1008 C1007 1.383 . S
C1008 C1009 1.377 . S
C1009 H993 0.930 . S
C1009 C1008 1.377 . S
C1009 C1010 1.379 . S
C1010 H994 0.931 . S
C1010 C1004 1.383 . S
C1010 C1009 1.379 . S
H1011 C1005 0.959 . S
H1012 C1005 0.961 . S
H1013 C1005 0.960 . S
H1014 C1006 0.930 . S
H1015 C1007 0.929 . S
H1016 C1024 0.929 . S
H1017 C1026 0.930 . S
H1018 C1028 0.930 . S
H1019 C1031 0.929 . S
H1020 C1034 0.930 . S
H1021 C1036 0.960 . S
H1022 C1036 0.960 . S
H1023 C1036 0.960 . S
C1024 H1016 0.929 . S
C1024 C1025 1.377 . S
C1024 C1026 1.384 . S
C1025 C1024 1.377 . S
C1025 C1031 1.390 . S
C1026 H1017 0.930 . S
C1026 C1024 1.384 . S
C1026 C1027 1.372 . S
C1027 C1026 1.372 . S
C1027 C1028 1.400 . S
C1027 C1032 1.490 . S
C1028 H1018 0.930 . S
C1028 C1027 1.400 . S
C1028 C1031 1.386 . S
H1029 C1045 0.930 . S
H1030 C1046 0.931 . S
C1031 H1019 0.929 . S
C1031 C1025 1.390 . S
C1031 C1028 1.386 . S
C1032 C1027 1.490 . S
C1032 C1034 1.395 . S
C1032 C1035 1.403 1_554 S
H1033 C1039 0.930 . S
C1034 H1020 0.930 . S
C1034 C1032 1.395 . S
C1034 C1037 1.403 . S
C1035 C1032 1.403 1_556 S
C1035 C1036 1.524 . S
C1035 C1039 1.400 . S
C1036 H1021 0.960 . S
C1036 H1022 0.960 . S
C1036 H1023 0.960 . S
C1036 C1035 1.524 . S
C1037 C1034 1.403 . S
C1037 C1038 1.392 1_554 S
C1037 C1041 1.495 . S
C1038 C1037 1.392 1_556 S
C1038 C1039 1.385 . S
C1038 C1040 1.478 . S
C1039 H1033 0.930 . S
C1039 C1035 1.400 . S
C1039 C1038 1.385 . S
C1040 C1038 1.478 . S
C1040 C1042 1.381 . S
C1040 C1046 1.383 . S
C1041 C1037 1.495 . S
C1041 H1047 0.959 . S
C1041 H1048 0.961 . S
C1041 H1049 0.960 . S
C1042 C1040 1.381 . S
C1042 C1043 1.394 . S
C1042 H1050 0.930 . S
C1043 C1042 1.394 . S
C1043 C1044 1.383 . S
C1043 H1051 0.929 . S
C1044 C1043 1.383 . S
C1044 C1045 1.377 . S
C1045 H1029 0.930 . S
C1045 C1044 1.377 . S
C1045 C1046 1.379 . S
C1046 H1030 0.931 . S
C1046 C1040 1.383 . S
C1046 C1045 1.379 . S
H1047 C1041 0.959 . S
H1048 C1041 0.961 . S
H1049 C1041 0.960 . S
H1050 C1042 0.930 . S
H1051 C1043 0.929 . S
H1052 C1060 0.929 . S
H1053 C1062 0.930 . S
H1054 C1064 0.930 . S
H1055 C1067 0.929 . S
H1056 C1070 0.930 . S
H1057 C1072 0.960 . S
H1058 C1072 0.960 . S
H1059 C1072 0.960 . S
C1060 H1052 0.929 . S
C1060 C1061 1.377 . S
C1060 C1062 1.384 . S
C1061 C1060 1.377 . S
C1061 C1067 1.390 . S
C1062 H1053 0.930 . S
C1062 C1060 1.384 . S
C1062 C1063 1.372 . S
C1063 C1062 1.372 . S
C1063 C1064 1.400 . S
C1063 C1068 1.490 . S
C1064 H1054 0.930 . S
C1064 C1063 1.400 . S
C1064 C1067 1.386 . S
H1065 C1081 0.930 . S
H1066 C1082 0.931 . S
C1067 H1055 0.929 . S
C1067 C1061 1.390 . S
C1067 C1064 1.386 . S
C1068 C1063 1.490 . S
C1068 C1070 1.395 . S
C1068 C1071 1.403 . S
H1069 C1075 0.930 . S
C1070 H1056 0.930 . S
C1070 C1068 1.395 . S
C1070 C1073 1.403 . S
C1071 C1068 1.403 . S
C1071 C1072 1.524 . S
C1071 C1075 1.400 . S
C1072 H1057 0.960 . S
C1072 H1058 0.960 . S
C1072 H1059 0.960 . S
C1072 C1071 1.524 . S
C1073 C1070 1.403 . S
C1073 C1074 1.392 . S
C1073 C1077 1.495 . S
C1074 C1073 1.392 . S
C1074 C1075 1.385 . S
C1074 C1076 1.478 . S
C1075 H1069 0.930 . S
C1075 C1071 1.400 . S
C1075 C1074 1.385 . S
C1076 C1074 1.478 . S
C1076 C1078 1.381 . S
C1076 C1082 1.383 . S
C1077 C1073 1.495 . S
C1077 H1083 0.959 . S
C1077 H1084 0.961 . S
C1077 H1085 0.960 . S
C1078 C1076 1.381 . S
C1078 C1079 1.394 . S
C1078 H1086 0.930 . S
C1079 C1078 1.394 . S
C1079 C1080 1.383 . S
C1079 H1087 0.929 . S
C1080 C1079 1.383 . S
C1080 C1081 1.377 . S
C1081 H1065 0.930 . S
C1081 C1080 1.377 . S
C1081 C1082 1.379 . S
C1082 H1066 0.931 . S
C1082 C1076 1.383 . S
C1082 C1081 1.379 . S
H1083 C1077 0.959 . S
H1084 C1077 0.961 . S
H1085 C1077 0.960 . S
H1086 C1078 0.930 . S
H1087 C1079 0.929 . S
H1088 C1096 0.929 . S
H1089 C1098 0.930 . S
H1090 C1100 0.930 . S
H1091 C1103 0.929 . S
H1092 C1106 0.930 . S
H1093 C1108 0.960 . S
H1094 C1108 0.960 . S
H1095 C1108 0.960 . S
C1096 H1088 0.929 . S
C1096 C1097 1.377 . S
C1096 C1098 1.384 . S
C1097 C1096 1.377 . S
C1097 C1103 1.390 . S
C1098 H1089 0.930 . S
C1098 C1096 1.384 . S
C1098 C1099 1.372 . S
C1099 C1098 1.372 . S
C1099 C1100 1.400 . S
C1099 C1104 1.490 . S
C1100 H1090 0.930 . S
C1100 C1099 1.400 . S
C1100 C1103 1.386 . S
H1101 C1117 0.930 . S
H1102 C1118 0.931 . S
C1103 H1091 0.929 . S
C1103 C1097 1.390 . S
C1103 C1100 1.386 . S
C1104 C1099 1.490 . S
C1104 C1106 1.395 . S
C1104 C1107 1.403 1_556 S
H1105 C1111 0.930 . S
C1106 H1092 0.930 . S
C1106 C1104 1.395 . S
C1106 C1109 1.403 . S
C1107 C1104 1.403 1_554 S
C1107 C1108 1.524 . S
C1107 C1111 1.400 . S
C1108 H1093 0.960 . S
C1108 H1094 0.960 . S
C1108 H1095 0.960 . S
C1108 C1107 1.524 . S
C1109 C1106 1.403 . S
C1109 C1110 1.392 1_556 S
C1109 C1113 1.495 . S
C1110 C1109 1.392 1_554 S
C1110 C1111 1.385 . S
C1110 C1112 1.478 . S
C1111 H1105 0.930 . S
C1111 C1107 1.400 . S
C1111 C1110 1.385 . S
C1112 C1110 1.478 . S
C1112 C1114 1.381 . S
C1112 C1118 1.383 . S
C1113 C1109 1.495 . S
C1113 H1119 0.959 . S
C1113 H1120 0.961 . S
C1113 H1121 0.960 . S
C1114 C1112 1.381 . S
C1114 C1115 1.394 . S
C1114 H1122 0.930 . S
C1115 C1114 1.394 . S
C1115 C1116 1.383 . S
C1115 H1123 0.929 . S
C1116 C1115 1.383 . S
C1116 C1117 1.377 . S
C1117 H1101 0.930 . S
C1117 C1116 1.377 . S
C1117 C1118 1.379 . S
C1118 H1102 0.931 . S
C1118 C1112 1.383 . S
C1118 C1117 1.379 . S
H1119 C1113 0.959 . S
H1120 C1113 0.961 . S
H1121 C1113 0.960 . S
H1122 C1114 0.930 . S
H1123 C1115 0.929 . S
H1124 C1132 0.929 . S
H1125 C1134 0.930 . S
H1126 C1136 0.930 . S
H1127 C1139 0.929 . S
H1128 C1142 0.930 . S
H1129 C1144 0.960 . S
H1130 C1144 0.960 . S
H1131 C1144 0.960 . S
C1132 H1124 0.929 . S
C1132 C1133 1.377 . S
C1132 C1134 1.384 . S
C1133 C1132 1.377 . S
C1133 C1139 1.390 . S
C1134 H1125 0.930 . S
C1134 C1132 1.384 . S
C1134 C1135 1.372 . S
C1135 C1134 1.372 . S
C1135 C1136 1.400 . S
C1135 C1140 1.490 . S
C1136 H1126 0.930 . S
C1136 C1135 1.400 . S
C1136 C1139 1.386 . S
H1137 C1153 0.930 . S
H1138 C1154 0.931 . S
C1139 H1127 0.929 . S
C1139 C1133 1.390 . S
C1139 C1136 1.386 . S
C1140 C1135 1.490 . S
C1140 C1142 1.395 . S
C1140 C1143 1.403 . S
H1141 C1147 0.930 . S
C1142 H1128 0.930 . S
C1142 C1140 1.395 . S
C1142 C1145 1.403 . S
C1143 C1140 1.403 . S
C1143 C1144 1.524 . S
C1143 C1147 1.400 . S
C1144 H1129 0.960 . S
C1144 H1130 0.960 . S
C1144 H1131 0.960 . S
C1144 C1143 1.524 . S
C1145 C1142 1.403 . S
C1145 C1146 1.392 . S
C1145 C1149 1.495 . S
C1146 C1145 1.392 . S
C1146 C1147 1.385 . S
C1146 C1148 1.478 . S
C1147 H1141 0.930 . S
C1147 C1143 1.400 . S
C1147 C1146 1.385 . S
C1148 C1146 1.478 . S
C1148 C1150 1.381 . S
C1148 C1154 1.383 . S
C1149 C1145 1.495 . S
C1149 H1155 0.959 . S
C1149 H1156 0.961 . S
C1149 H1157 0.960 . S
C1150 C1148 1.381 . S
C1150 C1151 1.394 . S
C1150 H1158 0.930 . S
C1151 C1150 1.394 . S
C1151 C1152 1.383 . S
C1151 H1159 0.929 . S
C1152 C1151 1.383 . S
C1152 C1153 1.377 . S
C1153 H1137 0.930 . S
C1153 C1152 1.377 . S
C1153 C1154 1.379 . S
C1154 H1138 0.931 . S
C1154 C1148 1.383 . S
C1154 C1153 1.379 . S
H1155 C1149 0.959 . S
H1156 C1149 0.961 . S
H1157 C1149 0.960 . S
H1158 C1150 0.930 . S
H1159 C1151 0.929 . S
H1160 C1168 0.929 . S
H1161 C1170 0.930 1_556 S
H1162 C1172 0.930 . S
H1163 C1175 0.929 . S
H1164 C1178 0.930 . S
H1165 C1180 0.960 . S
H1166 C1180 0.960 . S
H1167 C1180 0.960 . S
C1168 H1160 0.929 . S
C1168 C1169 1.377 . S
C1168 C1170 1.384 . S
C1169 C1168 1.377 . S
C1169 C1175 1.390 . S
C1170 H1161 0.930 1_554 S
C1170 C1168 1.384 . S
C1170 C1171 1.372 . S
C1171 C1170 1.372 . S
C1171 C1172 1.400 . S
C1171 C1176 1.490 . S
C1172 H1162 0.930 . S
C1172 C1171 1.400 . S
C1172 C1175 1.386 . S
H1173 C1189 0.930 . S
H1174 C1190 0.931 1_554 S
C1175 H1163 0.929 . S
C1175 C1169 1.390 . S
C1175 C1172 1.386 . S
C1176 C1171 1.490 . S
C1176 C1178 1.395 1_554 S
C1176 C1179 1.403 . S
H1177 C1183 0.930 . S
C1178 H1164 0.930 . S
C1178 C1176 1.395 1_556 S
C1178 C1181 1.403 . S
C1179 C1176 1.403 . S
C1179 C1180 1.524 . S
C1179 C1183 1.400 . S
C1180 H1165 0.960 . S
C1180 H1166 0.960 . S
C1180 H1167 0.960 . S
C1180 C1179 1.524 . S
C1181 C1178 1.403 . S
C1181 C1182 1.392 . S
C1181 C1185 1.495 . S
C1182 C1181 1.392 . S
C1182 C1183 1.385 1_556 S
C1182 C1184 1.478 . S
C1183 H1177 0.930 . S
C1183 C1179 1.400 . S
C1183 C1182 1.385 1_554 S
C1184 C1182 1.478 . S
C1184 C1186 1.381 . S
C1184 C1190 1.383 . S
C1185 C1181 1.495 . S
C1185 H1191 0.959 . S
C1185 H1192 0.961 . S
C1185 H1193 0.960 . S
C1186 C1184 1.381 . S
C1186 C1187 1.394 . S
C1186 H1194 0.930 . S
C1187 C1186 1.394 . S
C1187 C1188 1.383 . S
C1187 H1195 0.929 . S
C1188 C1187 1.383 . S
C1188 C1189 1.377 . S
C1189 H1173 0.930 . S
C1189 C1188 1.377 . S
C1189 C1190 1.379 . S
C1190 H1174 0.931 1_556 S
C1190 C1184 1.383 . S
C1190 C1189 1.379 . S
H1191 C1185 0.959 . S
H1192 C1185 0.961 . S
H1193 C1185 0.960 . S
H1194 C1186 0.930 . S
H1195 C1187 0.929 . S
H1196 C1204 0.929 . S
H1197 C1206 0.930 . S
H1198 C1208 0.930 . S
H1199 C1211 0.929 . S
H1200 C1214 0.930 . S
H1201 C1216 0.960 . S
H1202 C1216 0.960 . S
H1203 C1216 0.960 . S
C1204 H1196 0.929 . S
C1204 C1205 1.377 . S
C1204 C1206 1.384 . S
C1205 C1204 1.377 . S
C1205 C1211 1.390 . S
C1206 H1197 0.930 . S
C1206 C1204 1.384 . S
C1206 C1207 1.372 . S
C1207 C1206 1.372 . S
C1207 C1208 1.400 . S
C1207 C1212 1.490 . S
C1208 H1198 0.930 . S
C1208 C1207 1.400 . S
C1208 C1211 1.386 . S
H1209 C1225 0.930 . S
H1210 C1226 0.931 . S
C1211 H1199 0.929 . S
C1211 C1205 1.390 . S
C1211 C1208 1.386 . S
C1212 C1207 1.490 . S
C1212 C1214 1.395 . S
C1212 C1215 1.403 . S
H1213 C1219 0.930 . S
C1214 H1200 0.930 . S
C1214 C1212 1.395 . S
C1214 C1217 1.403 . S
C1215 C1212 1.403 . S
C1215 C1216 1.524 . S
C1215 C1219 1.400 . S
C1216 H1201 0.960 . S
C1216 H1202 0.960 . S
C1216 H1203 0.960 . S
C1216 C1215 1.524 . S
C1217 C1214 1.403 . S
C1217 C1218 1.392 . S
C1217 C1221 1.495 . S
C1218 C1217 1.392 . S
C1218 C1219 1.385 . S
C1218 C1220 1.478 . S
C1219 H1213 0.930 . S
C1219 C1215 1.400 . S
C1219 C1218 1.385 . S
C1220 C1218 1.478 . S
C1220 C1222 1.381 . S
C1220 C1226 1.383 . S
C1221 C1217 1.495 . S
C1221 H1227 0.959 . S
C1221 H1228 0.961 . S
C1221 H1229 0.960 . S
C1222 C1220 1.381 . S
C1222 C1223 1.394 . S
C1222 H1230 0.930 . S
C1223 C1222 1.394 . S
C1223 C1224 1.383 . S
C1223 H1231 0.929 . S
C1224 C1223 1.383 . S
C1224 C1225 1.377 . S
C1225 H1209 0.930 . S
C1225 C1224 1.377 . S
C1225 C1226 1.379 . S
C1226 H1210 0.931 . S
C1226 C1220 1.383 . S
C1226 C1225 1.379 . S
H1227 C1221 0.959 . S
H1228 C1221 0.961 . S
H1229 C1221 0.960 . S
H1230 C1222 0.930 . S
H1231 C1223 0.929 . S
H1232 C1240 0.929 . S
H1233 C1242 0.930 . S
H1234 C1244 0.930 . S
H1235 C1247 0.929 . S
H1236 C1250 0.930 . S
H1237 C1252 0.960 1_565 S
H1238 C1252 0.960 . S
H1239 C1252 0.960 . S
C1240 H1232 0.929 . S
C1240 C1241 1.377 . S
C1240 C1242 1.384 . S
C1241 C1240 1.377 . S
C1241 C1247 1.390 . S
C1242 H1233 0.930 . S
C1242 C1240 1.384 . S
C1242 C1243 1.372 . S
C1243 C1242 1.372 . S
C1243 C1244 1.400 . S
C1243 C1248 1.490 . S
C1244 H1234 0.930 . S
C1244 C1243 1.400 . S
C1244 C1247 1.386 . S
H1245 C1261 0.930 . S
H1246 C1262 0.931 . S
C1247 H1235 0.929 . S
C1247 C1241 1.390 . S
C1247 C1244 1.386 . S
C1248 C1243 1.490 . S
C1248 C1250 1.395 1_556 S
C1248 C1251 1.403 . S
H1249 C1255 0.930 . S
C1250 H1236 0.930 . S
C1250 C1248 1.395 1_554 S
C1250 C1253 1.403 1_545 S
C1251 C1248 1.403 . S
C1251 C1252 1.524 . S
C1251 C1255 1.400 1_545 S
C1252 H1237 0.960 1_545 S
C1252 H1238 0.960 . S
C1252 H1239 0.960 . S
C1252 C1251 1.524 . S
C1253 C1250 1.403 1_565 S
C1253 C1254 1.392 . S
C1253 C1257 1.495 . S
C1254 C1253 1.392 . S
C1254 C1255 1.385 1_554 S
C1254 C1256 1.478 . S
C1255 H1249 0.930 . S
C1255 C1251 1.400 1_565 S
C1255 C1254 1.385 1_556 S
C1256 C1254 1.478 . S
C1256 C1258 1.381 . S
C1256 C1262 1.383 . S
C1257 C1253 1.495 . S
C1257 H1263 0.959 1_565 S
C1257 H1264 0.961 . S
C1257 H1265 0.960 . S
C1258 C1256 1.381 . S
C1258 C1259 1.394 . S
C1258 H1266 0.930 . S
C1259 C1258 1.394 . S
C1259 C1260 1.383 . S
C1259 H1267 0.929 . S
C1260 C1259 1.383 . S
C1260 C1261 1.377 . S
C1261 H1245 0.930 . S
C1261 C1260 1.377 . S
C1261 C1262 1.379 . S
C1262 H1246 0.931 . S
C1262 C1256 1.383 . S
C1262 C1261 1.379 . S
H1263 C1257 0.959 1_545 S
H1264 C1257 0.961 . S
H1265 C1257 0.960 . S
H1266 C1258 0.930 . S
H1267 C1259 0.929 . S
H1268 C1276 0.929 . S
H1269 C1278 0.930 . S
H1270 C1280 0.930 . S
H1271 C1283 0.929 . S
H1272 C1286 0.930 . S
H1273 C1288 0.960 . S
H1274 C1288 0.960 . S
H1275 C1288 0.960 . S
C1276 H1268 0.929 . S
C1276 C1277 1.377 . S
C1276 C1278 1.384 . S
C1277 C1276 1.377 . S
C1277 C1283 1.390 . S
C1278 H1269 0.930 . S
C1278 C1276 1.384 . S
C1278 C1279 1.372 . S
C1279 C1278 1.372 . S
C1279 C1280 1.400 . S
C1279 C1284 1.490 . S
C1280 H1270 0.930 . S
C1280 C1279 1.400 . S
C1280 C1283 1.386 . S
H1281 C1297 0.930 . S
H1282 C1298 0.931 . S
C1283 H1271 0.929 . S
C1283 C1277 1.390 . S
C1283 C1280 1.386 . S
C1284 C1279 1.490 . S
C1284 C1286 1.395 . S
C1284 C1287 1.403 . S
H1285 C1291 0.930 . S
C1286 H1272 0.930 . S
C1286 C1284 1.395 . S
C1286 C1289 1.403 1_565 S
C1287 C1284 1.403 . S
C1287 C1288 1.524 . S
C1287 C1291 1.400 1_565 S
C1288 H1273 0.960 . S
C1288 H1274 0.960 . S
C1288 H1275 0.960 . S
C1288 C1287 1.524 . S
C1289 C1286 1.403 1_545 S
C1289 C1290 1.392 . S
C1289 C1293 1.495 . S
C1290 C1289 1.392 . S
C1290 C1291 1.385 . S
C1290 C1292 1.478 . S
C1291 H1285 0.930 . S
C1291 C1287 1.400 1_545 S
C1291 C1290 1.385 . S
C1292 C1290 1.478 . S
C1292 C1294 1.381 . S
C1292 C1298 1.383 . S
C1293 C1289 1.495 . S
C1293 H1299 0.959 . S
C1293 H1300 0.961 . S
C1293 H1301 0.960 . S
C1294 C1292 1.381 . S
C1294 C1295 1.394 . S
C1294 H1302 0.930 . S
C1295 C1294 1.394 . S
C1295 C1296 1.383 . S
C1295 H1303 0.929 . S
C1296 C1295 1.383 . S
C1296 C1297 1.377 . S
C1297 H1281 0.930 . S
C1297 C1296 1.377 . S
C1297 C1298 1.379 . S
C1298 H1282 0.931 . S
C1298 C1292 1.383 . S
C1298 C1297 1.379 . S
H1299 C1293 0.959 . S
H1300 C1293 0.961 . S
H1301 C1293 0.960 . S
H1302 C1294 0.930 . S
H1303 C1295 0.929 . S
H1304 C1312 0.929 . S
H1305 C1314 0.930 . S
H1306 C1316 0.930 . S
H1307 C1319 0.929 . S
H1308 C1322 0.930 . S
H1309 C1324 0.960 . S
H1310 C1324 0.960 . S
H1311 C1324 0.960 . S
C1312 H1304 0.929 . S
C1312 C1313 1.377 . S
C1312 C1314 1.384 . S
C1313 C1312 1.377 . S
C1313 C1319 1.390 . S
C1314 H1305 0.930 . S
C1314 C1312 1.384 . S
C1314 C1315 1.372 . S
C1315 C1314 1.372 . S
C1315 C1316 1.400 . S
C1315 C1320 1.490 . S
C1316 H1306 0.930 . S
C1316 C1315 1.400 . S
C1316 C1319 1.386 . S
H1317 C1333 0.930 . S
H1318 C1334 0.931 . S
C1319 H1307 0.929 . S
C1319 C1313 1.390 . S
C1319 C1316 1.386 . S
C1320 C1315 1.490 . S
C1320 C1322 1.395 . S
C1320 C1323 1.403 1_554 S
H1321 C1327 0.930 . S
C1322 H1308 0.930 . S
C1322 C1320 1.395 . S
C1322 C1325 1.403 1_565 S
C1323 C1320 1.403 1_556 S
C1323 C1324 1.524 . S
C1323 C1327 1.400 1_565 S
C1324 H1309 0.960 . S
C1324 H1310 0.960 . S
C1324 H1311 0.960 . S
C1324 C1323 1.524 . S
C1325 C1322 1.403 1_545 S
C1325 C1326 1.392 1_554 S
C1325 C1329 1.495 . S
C1326 C1325 1.392 1_556 S
C1326 C1327 1.385 . S
C1326 C1328 1.478 . S
C1327 H1321 0.930 . S
C1327 C1323 1.400 1_545 S
C1327 C1326 1.385 . S
C1328 C1326 1.478 . S
C1328 C1330 1.381 . S
C1328 C1334 1.383 . S
C1329 C1325 1.495 . S
C1329 H1335 0.959 . S
C1329 H1336 0.961 . S
C1329 H1337 0.960 . S
C1330 C1328 1.381 . S
C1330 C1331 1.394 . S
C1330 H1338 0.930 . S
C1331 C1330 1.394 . S
C1331 C1332 1.383 . S
C1331 H1339 0.929 . S
C1332 C1331 1.383 . S
C1332 C1333 1.377 . S
C1333 H1317 0.930 . S
C1333 C1332 1.377 . S
C1333 C1334 1.379 . S
C1334 H1318 0.931 . S
C1334 C1328 1.383 . S
C1334 C1333 1.379 . S
H1335 C1329 0.959 . S
H1336 C1329 0.961 . S
H1337 C1329 0.960 . S
H1338 C1330 0.930 . S
H1339 C1331 0.929 . S
H1340 C1348 0.929 . S
H1341 C1350 0.930 . S
H1342 C1352 0.930 . S
H1343 C1355 0.929 . S
H1344 C1358 0.930 . S
H1345 C1360 0.960 . S
H1346 C1360 0.960 . S
H1347 C1360 0.960 . S
C1348 H1340 0.929 . S
C1348 C1349 1.377 . S
C1348 C1350 1.384 . S
C1349 C1348 1.377 . S
C1349 C1355 1.390 . S
C1350 H1341 0.930 . S
C1350 C1348 1.384 . S
C1350 C1351 1.372 . S
C1351 C1350 1.372 . S
C1351 C1352 1.400 . S
C1351 C1356 1.490 . S
C1352 H1342 0.930 . S
C1352 C1351 1.400 . S
C1352 C1355 1.386 . S
H1353 C1369 0.930 . S
H1354 C1370 0.931 . S
C1355 H1343 0.929 . S
C1355 C1349 1.390 . S
C1355 C1352 1.386 . S
C1356 C1351 1.490 . S
C1356 C1358 1.395 . S
C1356 C1359 1.403 . S
H1357 C1363 0.930 . S
C1358 H1344 0.930 . S
C1358 C1356 1.395 . S
C1358 C1361 1.403 1_545 S
C1359 C1356 1.403 . S
C1359 C1360 1.524 . S
C1359 C1363 1.400 1_545 S
C1360 H1345 0.960 . S
C1360 H1346 0.960 . S
C1360 H1347 0.960 . S
C1360 C1359 1.524 . S
C1361 C1358 1.403 1_565 S
C1361 C1362 1.392 . S
C1361 C1365 1.495 . S
C1362 C1361 1.392 . S
C1362 C1363 1.385 . S
C1362 C1364 1.478 . S
C1363 H1357 0.930 . S
C1363 C1359 1.400 1_565 S
C1363 C1362 1.385 . S
C1364 C1362 1.478 . S
C1364 C1366 1.381 . S
C1364 C1370 1.383 . S
C1365 C1361 1.495 . S
C1365 H1371 0.959 . S
C1365 H1372 0.961 . S
C1365 H1373 0.960 . S
C1366 C1364 1.381 . S
C1366 C1367 1.394 . S
C1366 H1374 0.930 . S
C1367 C1366 1.394 . S
C1367 C1368 1.383 . S
C1367 H1375 0.929 . S
C1368 C1367 1.383 . S
C1368 C1369 1.377 . S
C1369 H1353 0.930 . S
C1369 C1368 1.377 . S
C1369 C1370 1.379 . S
C1370 H1354 0.931 . S
C1370 C1364 1.383 . S
C1370 C1369 1.379 . S
H1371 C1365 0.959 . S
H1372 C1365 0.961 . S
H1373 C1365 0.960 . S
H1374 C1366 0.930 . S
H1375 C1367 0.929 . S
C233 C5 1.428 . S
C252 C89 1.434 . S
C269 C19 1.429 . S
C288 C103 1.419 . S
C305 C61 1.428 . S
C324 C33 1.431 . S
C341 C75 1.430 . S
C360 C47 1.431 . S
C377 C201 1.428 . S
C396 C117 1.427 . S
C413 C215 1.428 . S
C432 C131 1.428 . S
C449 C145 1.428 . S
C468 C173 1.425 . S
C485 C159 1.431 . S
C504 C187 1.426 . S
C521 C9 1.472 . S
C540 C70 1.450 . S
C557 C23 1.472 . S
C576 C56 1.446 . S
C593 C37 1.472 . S
C612 C98 1.461 . S
C629 C84 1.447 . S
C648 C51 1.472 . S
C665 C182 1.451 . S
C684 C121 1.466 . S
C701 C168 1.446 . S
C720 C135 1.470 . S
C737 C149 1.473 . S
C756 C210 1.444 . S
C773 C196 1.449 . S
C792 C163 1.468 . S
C809 C179 1.364 . S
C828 C11 1.359 . S
C845 C25 1.367 . S
C864 C193 1.359 . S
C881 C207 1.365 . S
C900 C39 1.370 . S
C917 C221 1.365 . S
C936 C53 1.361 . S
C953 C123 1.369 . S
C972 C67 1.351 . S
C989 C137 1.370 . S
C1008 C81 1.362 . S
C1025 C95 1.363 . S
C1044 C151 1.358 . S
C1061 C109 1.364 . S
C1080 C165 1.359 . S
C1097 C28 1.437 . S
C1116 C0 1.438 . S
C1133 C14 1.433 . S
C1152 C42 1.434 . S
C1169 C93 1.489 . S
C1188 C65 1.489 . S
C1205 C79 1.489 . S
C1224 C107 1.489 . S
C1241 C140 1.433 . S
C1260 C112 1.434 . S
C1277 C154 1.433 . S
C1296 C126 1.449 . S
C1313 C205 1.490 . S
C1332 C177 1.487 . S
C1349 C219 1.490 . S
C1368 C191 1.487 . S
