# Generated by pormake.
# Topology zfi, (5)-cn, num edge types: 1
# Building blocks:
#     Node 0, Type 0, BuildingBlock: XOMCOT_clean_sbu_1, # of connection points: 5
#     Node 1, Type 0, BuildingBlock: XOMCOT_clean_sbu_1, # of connection points: 5
#     Node 2, Type 0, BuildingBlock: XOMCOT_clean_sbu_1, # of connection points: 5
#     Node 3, Type 0, BuildingBlock: XOMCOT_clean_sbu_1, # of connection points: 5
#     Node 4, Type 0, BuildingBlock: XOMCOT_clean_sbu_1, # of connection points: 5
#     Node 5, Type 0, BuildingBlock: XOMCOT_clean_sbu_1, # of connection points: 5
#     Node 6, Type 0, BuildingBlock: XOMCOT_clean_sbu_1, # of connection points: 5
#     Node 7, Type 0, BuildingBlock: XOMCOT_clean_sbu_1, # of connection points: 5
#     Node 8, Type 0, BuildingBlock: XOMCOT_clean_sbu_1, # of connection points: 5
#     Node 9, Type 0, BuildingBlock: XOMCOT_clean_sbu_1, # of connection points: 5
#     Node 10, Type 0, BuildingBlock: XOMCOT_clean_sbu_1, # of connection points: 5
#     Node 11, Type 0, BuildingBlock: XOMCOT_clean_sbu_1, # of connection points: 5
#     Node 12, Type 0, BuildingBlock: XOMCOT_clean_sbu_1, # of connection points: 5
#     Node 13, Type 0, BuildingBlock: XOMCOT_clean_sbu_1, # of connection points: 5
#     Node 14, Type 0, BuildingBlock: XOMCOT_clean_sbu_1, # of connection points: 5
#     Node 15, Type 0, BuildingBlock: XOMCOT_clean_sbu_1, # of connection points: 5
#     Edge 16, Type (0, 0), BuildingBlock: AJUNOK_clean_linker_0, # of connection points: 2
#     Edge 17, Type (0, 0), BuildingBlock: AJUNOK_clean_linker_0, # of connection points: 2
#     Edge 18, Type (0, 0), BuildingBlock: AJUNOK_clean_linker_0, # of connection points: 2
#     Edge 19, Type (0, 0), BuildingBlock: AJUNOK_clean_linker_0, # of connection points: 2
#     Edge 20, Type (0, 0), BuildingBlock: AJUNOK_clean_linker_0, # of connection points: 2
#     Edge 21, Type (0, 0), BuildingBlock: AJUNOK_clean_linker_0, # of connection points: 2
#     Edge 22, Type (0, 0), BuildingBlock: AJUNOK_clean_linker_0, # of connection points: 2
#     Edge 23, Type (0, 0), BuildingBlock: AJUNOK_clean_linker_0, # of connection points: 2
#     Edge 24, Type (0, 0), BuildingBlock: AJUNOK_clean_linker_0, # of connection points: 2
#     Edge 25, Type (0, 0), BuildingBlock: AJUNOK_clean_linker_0, # of connection points: 2
#     Edge 26, Type (0, 0), BuildingBlock: AJUNOK_clean_linker_0, # of connection points: 2
#     Edge 27, Type (0, 0), BuildingBlock: AJUNOK_clean_linker_0, # of connection points: 2
#     Edge 28, Type (0, 0), BuildingBlock: AJUNOK_clean_linker_0, # of connection points: 2
#     Edge 29, Type (0, 0), BuildingBlock: AJUNOK_clean_linker_0, # of connection points: 2
#     Edge 30, Type (0, 0), BuildingBlock: AJUNOK_clean_linker_0, # of connection points: 2
#     Edge 31, Type (0, 0), BuildingBlock: AJUNOK_clean_linker_0, # of connection points: 2
#     Edge 32, Type (0, 0), BuildingBlock: AJUNOK_clean_linker_0, # of connection points: 2
#     Edge 33, Type (0, 0), BuildingBlock: AJUNOK_clean_linker_0, # of connection points: 2
#     Edge 34, Type (0, 0), BuildingBlock: AJUNOK_clean_linker_0, # of connection points: 2
#     Edge 35, Type (0, 0), BuildingBlock: AJUNOK_clean_linker_0, # of connection points: 2
#     Edge 36, Type (0, 0), BuildingBlock: AJUNOK_clean_linker_0, # of connection points: 2
#     Edge 37, Type (0, 0), BuildingBlock: AJUNOK_clean_linker_0, # of connection points: 2
#     Edge 38, Type (0, 0), BuildingBlock: AJUNOK_clean_linker_0, # of connection points: 2
#     Edge 39, Type (0, 0), BuildingBlock: AJUNOK_clean_linker_0, # of connection points: 2
#     Edge 40, Type (0, 0), BuildingBlock: AJUNOK_clean_linker_0, # of connection points: 2
#     Edge 41, Type (0, 0), BuildingBlock: AJUNOK_clean_linker_0, # of connection points: 2
#     Edge 42, Type (0, 0), BuildingBlock: AJUNOK_clean_linker_0, # of connection points: 2
#     Edge 43, Type (0, 0), BuildingBlock: AJUNOK_clean_linker_0, # of connection points: 2
#     Edge 44, Type (0, 0), BuildingBlock: AJUNOK_clean_linker_0, # of connection points: 2
#     Edge 45, Type (0, 0), BuildingBlock: AJUNOK_clean_linker_0, # of connection points: 2
#     Edge 46, Type (0, 0), BuildingBlock: AJUNOK_clean_linker_0, # of connection points: 2
#     Edge 47, Type (0, 0), BuildingBlock: AJUNOK_clean_linker_0, # of connection points: 2
#     Edge 48, Type (0, 0), BuildingBlock: AJUNOK_clean_linker_0, # of connection points: 2
#     Edge 49, Type (0, 0), BuildingBlock: AJUNOK_clean_linker_0, # of connection points: 2
#     Edge 50, Type (0, 0), BuildingBlock: AJUNOK_clean_linker_0, # of connection points: 2
#     Edge 51, Type (0, 0), BuildingBlock: AJUNOK_clean_linker_0, # of connection points: 2
#     Edge 52, Type (0, 0), BuildingBlock: AJUNOK_clean_linker_0, # of connection points: 2
#     Edge 53, Type (0, 0), BuildingBlock: AJUNOK_clean_linker_0, # of connection points: 2
#     Edge 54, Type (0, 0), BuildingBlock: AJUNOK_clean_linker_0, # of connection points: 2
#     Edge 55, Type (0, 0), BuildingBlock: AJUNOK_clean_linker_0, # of connection points: 2
# Relax obj value: 0.117
# Max RMSD: 0.131
# Mean RMSD: 0.131
data_MOF--net-zfi--node1-XOMCOT_clean_sbu_1--edge1-AJUNOK_clean_linker_0
_symmetry_space_group_name_H-M    P1
_symmetry_Int_Tables_number       1
_symmetry_cell_setting            triclinic
loop_
_symmetry_equiv_pos_as_xyz
'x, y, z'
_cell_length_a     30.005208
_cell_length_b     30.073173
_cell_length_c     34.16916
_cell_angle_alpha  89.622307
_cell_angle_beta   90.062848
_cell_angle_gamma 90.078635
loop_
_atom_site_label
_atom_site_type_symbol
_atom_site_fract_x
_atom_site_fract_y
_atom_site_fract_z
_atom_type_partial_charge
C0 C 0.69246 0.11457 0.09386 0.0
C1 C 0.71872 0.15098 0.0861 0.0
N2 N 0.72132 0.17559 0.1187 0.0
N3 N 0.67836 0.11589 0.13132 0.0
C4 C 0.69622 0.15398 0.14565 0.0
H5 H 0.68639 0.08757 0.07388 0.0
Co6 Co 0.64907 0.06806 0.15614 0.0
C7 C 0.64723 0.08958 0.23989 0.0
O8 O 0.66462 0.04983 0.24468 0.0
N9 N 0.61747 0.02072 0.18045 0.0
C10 C 0.55657 0.99121 0.20769 0.0
C11 C 0.58037 0.02924 0.2018 0.0
C12 C 0.61417 0.97676 0.17252 0.0
N13 N 0.57768 0.95844 0.18907 0.0
O14 O 0.59305 0.08334 0.13131 0.0
H15 H 0.56825 0.06194 0.20902 0.0
H16 H 0.63445 0.95948 0.15146 0.0
O17 O 0.6385 0.10388 0.20499 0.0
C18 C 0.59203 0.0557 0.1027 0.0
O19 O 0.62866 0.03347 0.09524 0.0
N20 N 0.70486 0.04795 0.17404 0.0
C21 C 0.78814 1.01021 0.18665 0.0
C22 C 0.77785 0.05139 0.20316 0.0
C23 C 0.73589 0.07019 0.19598 0.0
C24 C 0.71637 1.00983 0.15541 0.0
C25 C 0.75726 0.98978 0.16205 0.0
H26 H 0.72853 0.10241 0.20809 0.0
H27 H 0.69437 0.99566 0.13395 0.0
H28 H 0.69361 0.16411 0.17588 0.0
H29 H 0.73615 0.15791 0.05907 0.0
H30 H 0.524 0.98857 0.22115 0.0
H31 H 0.80185 0.06868 0.22125 0.0
H32 H 0.76517 0.95901 0.14727 0.0
C33 C 0.36547 0.63015 0.11667 0.0
C34 C 0.32469 0.65114 0.11416 0.0
N35 N 0.32651 0.68844 0.1356 0.0
N36 N 0.39328 0.65402 0.1396 0.0
C37 C 0.36796 0.6891 0.15097 0.0
H38 H 0.37461 0.60055 0.10086 0.0
Co39 Co 0.45587 0.64558 0.14669 0.0
C40 C 0.46909 0.62104 0.2319 0.0
O41 O 0.5102 0.6361 0.23136 0.0
N42 N 0.51798 0.63768 0.1524 0.0
C43 C 0.59143 0.64651 0.14828 0.0
C44 C 0.55097 0.66743 0.14568 0.0
C45 C 0.53965 0.59886 0.15905 0.0
N46 N 0.58423 0.60332 0.15651 0.0
O47 O 0.45274 0.58591 0.12672 0.0
H48 H 0.54656 0.70189 0.13779 0.0
H49 H 0.52295 0.56754 0.16413 0.0
O50 O 0.4449 0.62383 0.20091 0.0
C51 C 0.46677 0.58482 0.09139 0.0
O52 O 0.47163 0.6229 0.07276 0.0
N53 N 0.46151 0.70467 0.16166 0.0
C54 C 0.48974 0.7917 0.16871 0.0
C55 C 0.48104 0.76608 0.20219 0.0
C56 C 0.46611 0.72251 0.19807 0.0
C57 C 0.46538 0.73068 0.12902 0.0
C58 C 0.47978 0.77448 0.13184 0.0
H59 H 0.4594 0.70361 0.22412 0.0
H60 H 0.46066 0.71606 0.10047 0.0
H61 H 0.37979 0.71595 0.16908 0.0
H62 H 0.29689 0.64117 0.09598 0.0
H63 H 0.62369 0.66164 0.14319 0.0
H64 H 0.48705 0.77924 0.23117 0.0
H65 H 0.48592 0.79359 0.10539 0.0
C66 C 0.8927 0.3697 0.10246 0.0
C67 C 0.87534 0.32758 0.09876 0.0
N68 N 0.84478 0.32119 0.12707 0.0
N69 N 0.87362 0.39007 0.13327 0.0
C70 C 0.84524 0.35913 0.14815 0.0
H71 H 0.91535 0.38526 0.082 0.0
Co72 Co 0.87538 0.45175 0.14366 0.0
C73 C 0.89616 0.46163 0.22999 0.0
O74 O 0.87858 0.50159 0.23045 0.0
N75 N 0.87683 0.51363 0.15243 0.0
C76 C 0.86071 0.58581 0.15145 0.0
C77 C 0.84376 0.54362 0.14749 0.0
C78 C 0.91353 0.53868 0.15933 0.0
N79 N 0.90477 0.58257 0.15831 0.0
O80 O 0.93617 0.4559 0.12468 0.0
H81 H 0.80972 0.53587 0.13988 0.0
H82 H 0.94661 0.52513 0.16335 0.0
O83 O 0.89608 0.43906 0.19813 0.0
C84 C 0.93595 0.47295 0.0902 0.0
O85 O 0.89713 0.47821 0.07294 0.0
N86 N 0.81477 0.44983 0.15691 0.0
C87 C 0.72574 0.47429 0.15793 0.0
C88 C 0.74939 0.4691 0.19313 0.0
C89 C 0.79412 0.45606 0.19205 0.0
C90 C 0.79053 0.44873 0.1232 0.0
C91 C 0.74572 0.4604 0.12308 0.0
H92 H 0.81214 0.45425 0.21913 0.0
H93 H 0.80722 0.44292 0.09566 0.0
H94 H 0.82352 0.36523 0.17275 0.0
H95 H 0.88228 0.30469 0.07521 0.0
H96 H 0.84217 0.61649 0.14846 0.0
H97 H 0.73501 0.47908 0.22076 0.0
H98 H 0.72825 0.46309 0.09539 0.0
C99 C 0.15455 0.88224 0.10839 0.0
C100 C 0.19508 0.86093 0.10502 0.0
N101 N 0.19848 0.83087 0.13421 0.0
N102 N 0.13248 0.86594 0.13979 0.0
C103 C 0.16079 0.83549 0.15539 0.0
H104 H 0.14072 0.90525 0.08724 0.0
Co105 Co 0.07089 0.87115 0.15049 0.0
C106 C 0.06451 0.89006 0.2381 0.0
O107 O 0.02388 0.87388 0.24015 0.0
N108 N 1.00956 0.87567 0.15985 0.0
C109 C 0.93688 0.86159 0.1615 0.0
C110 C 0.97794 0.84492 0.15208 0.0
C111 C 0.98655 0.91139 0.17264 0.0
N112 N 0.94248 0.90322 0.17478 0.0
O113 O 0.06988 0.93274 0.13226 0.0
H114 H 0.9838 0.81274 0.13937 0.0
H115 H 1.00186 0.94261 0.18074 0.0
O116 O 0.0855 0.88995 0.20525 0.0
C117 C 0.05281 0.9354 0.09785 0.0
O118 O 0.04546 0.8981 0.07905 0.0
N119 N 0.06896 0.81008 0.16298 0.0
C120 C 0.03453 0.72453 0.16251 0.0
C121 C 0.04178 0.74641 0.19808 0.0
C122 C 0.05988 0.78932 0.19775 0.0
C123 C 0.06864 0.78653 0.12904 0.0
C124 C 0.05206 0.74331 0.12821 0.0
H125 H 0.06348 0.80615 0.22511 0.0
H126 H 0.07689 0.80305 0.10177 0.0
H127 H 0.15252 0.81448 0.18016 0.0
H128 H 0.21838 0.86444 0.08101 0.0
H129 H 0.90516 0.84503 0.15746 0.0
H130 H 0.03004 0.73226 0.22542 0.0
H131 H 0.0488 0.72659 0.10036 0.0
C132 C 0.14404 0.86892 0.51096 0.0
C133 C 0.16559 0.82852 0.51403 0.0
N134 N 0.19815 0.82764 0.48706 0.0
N135 N 0.16284 0.89338 0.48203 0.0
C136 C 0.1952 0.86668 0.46762 0.0
H137 H 0.11842 0.88063 0.53054 0.0
Co138 Co 0.15507 0.95477 0.47171 0.0
C139 C 0.13454 0.9622 0.38459 0.0
O140 O 0.14816 1.0037 0.38352 0.0
N141 N 0.14759 0.01597 0.46264 0.0
C142 C 0.15694 0.0893 0.46116 0.0
C143 C 0.17713 0.04919 0.4687 0.0
C144 C 0.10941 0.03692 0.45236 0.0
N145 N 0.11434 0.08142 0.45108 0.0
O146 O 0.0942 0.95289 0.49096 0.0
H147 H 0.21089 0.04501 0.47899 0.0
H148 H 0.07864 0.01978 0.44562 0.0
O149 O 0.13571 0.94019 0.41701 0.0
C150 C 0.09326 0.97017 0.5252 0.0
O151 O 0.1316 0.97887 0.54218 0.0
N152 N 0.21572 0.95948 0.45863 0.0
C153 C 0.30134 0.99425 0.459 0.0
C154 C 0.2788 0.98784 0.42348 0.0
C155 C 0.23587 0.96957 0.42384 0.0
C156 C 0.23971 0.95972 0.49252 0.0
C157 C 0.28299 0.97622 0.49326 0.0
H158 H 0.21861 0.96654 0.39652 0.0
H159 H 0.22364 0.95074 0.51978 0.0
H160 H 0.21831 0.8766 0.4449 0.0
H161 H 0.16005 0.80328 0.53625 0.0
H162 H 0.17191 0.12187 0.46427 0.0
H163 H 0.29254 1.00015 0.39618 0.0
H164 H 0.30022 0.97877 0.52104 0.0
C165 C 0.66122 0.13866 0.51186 0.0
C166 C 0.70333 0.15701 0.51325 0.0
N167 N 0.7057 0.18963 0.48618 0.0
N168 N 0.63701 0.15949 0.48391 0.0
C169 C 0.66557 0.18972 0.46833 0.0
H170 H 0.64848 0.11379 0.53189 0.0
Co171 Co 0.57493 0.15575 0.47493 0.0
C172 C 0.56595 0.13502 0.38809 0.0
O173 O 0.52294 0.14294 0.38775 0.0
N174 N 0.51273 0.15226 0.46709 0.0
C175 C 0.44012 0.16687 0.46981 0.0
C176 C 0.48214 0.18452 0.47293 0.0
C177 C 0.48811 0.11516 0.4609 0.0
N178 N 0.444 0.12308 0.46286 0.0
O179 O 0.57361 0.09441 0.49313 0.0
H180 H 0.48938 0.21844 0.48084 0.0
H181 H 0.50218 0.08243 0.4567 0.0
O182 O 0.58795 0.13841 0.42018 0.0
C183 C 0.55839 0.09395 0.5282 0.0
O184 O 0.55372 0.13244 0.54571 0.0
N185 N 0.57386 0.2165 0.46221 0.0
C186 C 0.54384 0.3035 0.4613 0.0
C187 C 0.54673 0.27949 0.42639 0.0
C188 C 0.56233 0.23584 0.42737 0.0
C189 C 0.57723 0.24149 0.49521 0.0
C190 C 0.56309 0.28554 0.49526 0.0
H191 H 0.56096 0.21722 0.4008 0.0
H192 H 0.587 0.22587 0.52251 0.0
H193 H 0.65641 0.21347 0.44582 0.0
H194 H 0.7289 0.14936 0.53462 0.0
H195 H 0.40915 0.18474 0.47355 0.0
H196 H 0.53292 0.29254 0.39936 0.0
H197 H 0.56308 0.30378 0.52249 0.0
C198 C 0.39303 0.65552 0.50633 0.0
C199 C 0.37337 0.69659 0.51062 0.0
N200 N 0.34074 0.7005 0.4838 0.0
N201 N 0.37307 0.63336 0.4768 0.0
C202 C 0.34185 0.66227 0.46332 0.0
H203 H 0.41771 0.6416 0.5259 0.0
Co204 Co 0.37711 0.57139 0.46747 0.0
C205 C 0.40086 0.55889 0.3828 0.0
O206 O 0.38111 0.5199 0.38338 0.0
N207 N 0.38067 0.50945 0.46023 0.0
C208 C 0.36844 0.43664 0.46513 0.0
C209 C 0.34919 0.47799 0.46658 0.0
C210 C 0.41861 0.4861 0.45453 0.0
N211 N 0.41219 0.44205 0.45813 0.0
O212 O 0.43665 0.5692 0.48957 0.0
H213 H 0.31483 0.48408 0.47393 0.0
H214 H 0.45102 0.50117 0.45017 0.0
O215 O 0.40146 0.58288 0.41385 0.0
C216 C 0.43612 0.55034 0.5233 0.0
O217 O 0.39721 0.54387 0.54003 0.0
N218 N 0.31776 0.57118 0.45019 0.0
C219 C 0.22978 0.54717 0.43828 0.0
C220 C 0.25685 0.55839 0.40639 0.0
C221 C 0.30082 0.57142 0.41303 0.0
C222 C 0.2901 0.56642 0.48151 0.0
C223 C 0.24583 0.55406 0.47626 0.0
H224 H 0.3208 0.58027 0.38816 0.0
H225 H 0.30377 0.56787 0.51079 0.0
H226 H 0.318 0.65459 0.44066 0.0
H227 H 0.37994 0.71996 0.5339 0.0
H228 H 0.35189 0.40517 0.47042 0.0
H229 H 0.24487 0.55474 0.37666 0.0
H230 H 0.22584 0.54575 0.50167 0.0
C231 C 0.87642 0.38642 0.50266 0.0
C232 C 0.83635 0.36445 0.507 0.0
N233 N 0.8363 0.32936 0.48288 0.0
N234 N 0.90161 0.36549 0.47564 0.0
C235 C 0.87551 0.33125 0.46372 0.0
H236 H 0.88713 0.41442 0.51995 0.0
Co237 Co 0.96291 0.37528 0.46475 0.0
C238 C 0.96943 0.39788 0.37881 0.0
O239 O 1.00999 0.38155 0.37802 0.0
N240 N 0.02386 0.38491 0.45535 0.0
C241 C 0.0976 0.37891 0.45222 0.0
C242 C 0.0585 0.35658 0.45954 0.0
C243 C 0.04299 0.42434 0.44602 0.0
N244 N 0.08769 0.42154 0.44394 0.0
O245 O 0.96023 0.43464 0.48644 0.0
H246 H 0.05612 0.32212 0.46824 0.0
H247 H 0.02433 0.4545 0.44047 0.0
O248 O 0.94721 0.39745 0.41102 0.0
C249 C 0.97811 0.43491 0.52055 0.0
O250 O 0.98882 0.39645 0.53644 0.0
N251 N 0.96834 0.31601 0.44866 0.0
C252 C 0.99533 0.22851 0.44028 0.0
C253 C 0.98346 0.25377 0.40735 0.0
C254 C 0.96888 0.29746 0.41223 0.0
C255 C 0.9754 0.2903 0.48104 0.0
C256 C 0.98903 0.24636 0.47755 0.0
H257 H 0.95893 0.31575 0.38664 0.0
H258 H 0.97357 0.30518 0.50972 0.0
H259 H 0.88541 0.30675 0.44248 0.0
H260 H 0.81049 0.372 0.52801 0.0
H261 H 0.1309 0.36524 0.45422 0.0
H262 H 0.98695 0.24036 0.37817 0.0
H263 H 0.99793 0.22775 0.50367 0.0
C264 C 0.37787 0.88206 1.02311 0.0
C265 C 0.35542 0.8424 1.02785 0.0
N266 N 0.33113 0.83483 0.99539 0.0
N267 N 0.36822 0.89948 0.98762 0.0
C268 C 0.34069 0.86923 0.97103 0.0
H269 H 0.39643 0.89897 1.04568 0.0
Co270 Co 0.37431 0.95977 0.97351 0.0
C271 C 0.3934 0.96351 0.88668 0.0
O272 O 0.37479 1.00296 0.88473 0.0
N273 N 0.38005 0.02034 0.96094 0.0
C274 C 0.37104 0.09355 0.9567 0.0
C275 C 0.35058 0.05378 0.96559 0.0
C276 C 0.41815 0.0407 0.94961 0.0
N277 N 0.41364 0.08512 0.94695 0.0
O278 O 0.43442 0.9618 0.99448 0.0
H279 H 0.31692 0.04997 0.97616 0.0
H280 H 0.44873 0.02305 0.9435 0.0
O281 O 0.39549 0.94268 0.91973 0.0
C282 C 0.43257 0.98309 1.02691 0.0
O283 O 0.39296 0.99177 1.04131 0.0
N284 N 0.31408 0.96068 0.95919 0.0
C285 C 0.22795 0.99254 0.95634 0.0
C286 C 0.24989 0.98108 0.92165 0.0
C287 C 0.29317 0.964 0.92376 0.0
C288 C 0.29032 0.96454 0.99292 0.0
C289 C 0.24668 0.9797 0.99215 0.0
H290 H 0.3099 0.95624 0.89694 0.0
H291 H 0.30686 0.96011 1.0208 0.0
H292 H 0.32529 0.87422 0.94273 0.0
H293 H 0.35391 0.82279 1.05452 0.0
H294 H 0.35636 0.12629 0.95903 0.0
H295 H 0.23551 0.98887 0.89334 0.0
H296 H 0.22978 0.98626 1.01952 0.0
C297 C 0.65628 0.38822 1.00286 0.0
C298 C 0.69701 0.36784 1.00781 0.0
N299 N 0.69872 0.33251 0.98394 0.0
N300 N 0.63199 0.36594 0.97597 0.0
C301 C 0.65935 0.33241 0.96476 0.0
H302 H 0.64461 0.41608 1.01975 0.0
Co303 Co 0.57032 0.37377 0.96459 0.0
C304 C 0.5631 0.39884 0.87938 0.0
O305 O 0.52312 0.38109 0.87829 0.0
N306 N 0.50898 0.38142 0.95483 0.0
C307 C 0.43569 0.37262 0.94815 0.0
C308 C 0.47524 0.35158 0.95651 0.0
C309 C 0.48873 0.42047 0.94622 0.0
N310 N 0.44448 0.41586 0.9415 0.0
O311 O 0.57072 0.43254 0.98698 0.0
H312 H 0.47849 0.31682 0.96391 0.0
H313 H 0.50617 0.45177 0.94281 0.0
O314 O 0.5856 0.39787 0.91147 0.0
C315 C 0.55392 0.4306 1.02139 0.0
O316 O 0.5471 0.39103 1.0368 0.0
N317 N 0.56695 0.31489 0.94742 0.0
C318 C 0.53789 0.22839 0.93713 0.0
C319 C 0.55032 0.25426 0.90473 0.0
C320 C 0.56606 0.29745 0.91058 0.0
C321 C 0.55988 0.28834 0.97925 0.0
C322 C 0.5452 0.24484 0.9748 0.0
H323 H 0.57594 0.31654 0.8854 0.0
H324 H 0.56187 0.30242 1.00825 0.0
H325 H 0.65024 0.30697 0.94404 0.0
H326 H 0.72211 0.37665 1.02919 0.0
H327 H 0.40286 0.35765 0.94841 0.0
H328 H 0.54612 0.24188 0.87525 0.0
H329 H 0.53593 0.22571 1.00052 0.0
C330 C 0.13038 0.66391 0.97617 0.0
C331 C 0.14874 0.70551 0.98154 0.0
N332 N 0.19342 0.7013 0.98347 0.0
N333 N 0.16311 0.6332 0.97509 0.0
C334 C 0.20103 0.65725 0.97992 0.0
H335 H 0.09527 0.65675 0.97281 0.0
Co336 Co 0.1561 0.57137 0.96638 0.0
C337 C 0.13577 0.56357 0.8804 0.0
O338 O 0.15681 0.52533 0.8789 0.0
N339 N 0.1484 0.5097 0.95808 0.0
C340 C 0.15533 0.43604 0.95547 0.0
C341 C 0.17685 0.47528 0.96339 0.0
C342 C 0.10961 0.49004 0.94743 0.0
N343 N 0.11311 0.44551 0.94536 0.0
O344 O 0.09639 0.57248 0.98734 0.0
H345 H 0.21078 0.47753 0.97342 0.0
H346 H 0.07923 0.50805 0.94116 0.0
O347 O 0.1338 0.58468 0.91292 0.0
C348 C 0.09451 0.55767 1.02247 0.0
O349 O 0.13223 0.55167 1.04135 0.0
N350 N 0.21554 0.5679 0.9503 0.0
C351 C 0.30285 0.54153 0.93878 0.0
C352 C 0.27829 0.55995 0.90773 0.0
C353 C 0.23459 0.57418 0.91439 0.0
C354 C 0.24104 0.55578 0.98158 0.0
C355 C 0.28486 0.54225 0.9765 0.0
H356 H 0.21621 0.58862 0.89043 0.0
H357 H 0.2259 0.55315 1.01023 0.0
H358 H 0.23412 0.64327 0.97972 0.0
H359 H 0.13034 0.73624 0.98414 0.0
H360 H 0.16912 0.40295 0.95857 0.0
H361 H 0.29199 0.56139 0.87844 0.0
H362 H 0.30301 0.52878 1.0013 0.0
C363 C 0.87517 0.14217 1.00955 0.0
C364 C 0.83387 0.16173 1.01336 0.0
N365 N 0.83013 0.19367 0.98589 0.0
N366 N 0.89744 0.16152 0.97958 0.0
C367 C 0.86837 0.19208 0.9653 0.0
H368 H 0.88896 0.11775 1.02943 0.0
Co369 Co 0.95908 0.15722 0.96852 0.0
C370 C 0.96722 0.1344 0.88285 0.0
O371 O 1.00677 0.15307 0.88174 0.0
N372 N 0.02082 0.15352 0.95868 0.0
C373 C 0.09319 0.1683 0.95252 0.0
C374 C 0.05169 0.18637 0.95747 0.0
C375 C 0.04477 0.11581 0.95413 0.0
N376 N 0.08873 0.12388 0.95106 0.0
O377 O 0.96151 0.09712 0.99077 0.0
H378 H 0.04535 0.22141 0.96064 0.0
H379 H 0.03058 0.08274 0.95429 0.0
O380 O 0.94499 0.13385 0.91505 0.0
C381 C 0.97818 0.09692 1.02541 0.0
O382 O 0.98569 0.13552 1.04198 0.0
N383 N 0.95906 0.21707 0.95197 0.0
C384 C 0.98499 0.30477 0.94095 0.0
C385 C 0.9716 0.27901 0.90896 0.0
C386 C 0.95822 0.23501 0.91512 0.0
C387 C 0.96517 0.24377 0.98362 0.0
C388 C 0.97841 0.28789 0.9788 0.0
H389 H 0.94893 0.21564 0.89012 0.0
H390 H 0.96421 0.22938 1.01271 0.0
H391 H 0.87581 0.21506 0.94178 0.0
H392 H 0.81012 0.15543 1.03646 0.0
H393 H 0.12432 0.18645 0.95098 0.0
H394 H 0.9744 0.29176 0.87933 0.0
H395 H 0.98778 0.30695 1.00432 0.0
C396 C 0.89062 0.15485 0.60697 0.0
C397 C 0.87146 0.19627 0.60234 0.0
N398 N 0.84023 0.20107 0.63015 0.0
N399 N 0.87164 0.13361 0.63772 0.0
C400 C 0.84174 0.16332 0.65165 0.0
H401 H 0.91404 0.13999 0.58695 0.0
Co402 Co 0.87405 0.07193 0.64917 0.0
C403 C 0.89805 0.06348 0.73548 0.0
O404 O 0.88301 0.02248 0.73698 0.0
N405 N 0.87592 1.01024 0.65905 0.0
C406 C 0.85969 0.93805 0.65866 0.0
C407 C 0.84274 0.98019 0.65482 0.0
C408 C 0.91274 0.98523 0.66535 0.0
N409 N 0.90389 0.94138 0.66459 0.0
O410 O 0.93451 0.06798 0.62898 0.0
H411 H 0.80867 0.98782 0.64739 0.0
H412 H 0.94599 0.99879 0.66833 0.0
O413 O 0.89584 0.08566 0.70318 0.0
C414 C 0.93354 0.04902 0.59545 0.0
O415 O 0.89441 0.0434 0.57887 0.0
N416 N 0.81376 0.07314 0.66361 0.0
C417 C 0.72653 0.04337 0.66596 0.0
C418 C 0.75074 0.0485 0.70077 0.0
C419 C 0.7946 0.06419 0.69904 0.0
C420 C 0.78834 0.0748 0.63055 0.0
C421 C 0.74414 0.06092 0.63122 0.0
H422 H 0.81351 0.06518 0.72566 0.0
H423 H 0.8038 0.08267 0.60275 0.0
H424 H 0.81855 0.15615 0.67508 0.0
H425 H 0.8771 0.21926 0.57833 0.0
H426 H 0.84113 0.90736 0.65581 0.0
H427 H 0.73772 0.03627 0.72838 0.0
H428 H 0.72574 0.05902 0.60397 0.0
C429 C 0.37327 0.88893 0.61577 0.0
C430 C 0.33242 0.86851 0.61099 0.0
N431 N 0.33076 0.83313 0.63515 0.0
N432 N 0.39736 0.86667 0.64305 0.0
C433 C 0.36977 0.83334 0.65476 0.0
H434 H 0.38535 0.91652 0.59837 0.0
Co435 Co 0.45928 0.87281 0.6539 0.0
C436 C 0.46706 0.89777 0.73951 0.0
O437 O 0.5082 0.88298 0.74098 0.0
N438 N 0.52098 0.87842 0.66315 0.0
C439 C 0.59414 0.86641 0.66357 0.0
C440 C 0.55295 0.84695 0.66021 0.0
C441 C 0.54393 0.91669 0.66856 0.0
N442 N 0.58829 0.91038 0.6682 0.0
O443 O 0.45985 0.93293 0.63263 0.0
H444 H 0.54739 0.8122 0.65436 0.0
H445 H 0.52858 0.94901 0.67107 0.0
O446 O 0.44483 0.89504 0.70739 0.0
C447 C 0.47633 0.93472 0.59805 0.0
O448 O 0.48328 0.897 0.57984 0.0
N449 N 0.46135 0.81313 0.67009 0.0
C450 C 0.48735 0.72524 0.67912 0.0
C451 C 0.47862 0.75137 0.712 0.0
C452 C 0.46479 0.79535 0.70687 0.0
C453 C 0.46483 0.78663 0.63805 0.0
C454 C 0.4778 0.74241 0.64187 0.0
H455 H 0.45896 0.81484 0.73252 0.0
H456 H 0.46128 0.8011 0.60914 0.0
H457 H 0.37865 0.80792 0.67584 0.0
H458 H 0.30729 0.87705 0.58945 0.0
H459 H 0.62596 0.8497 0.6614 0.0
H460 H 0.48494 0.73872 0.74123 0.0
H461 H 0.4844 0.7233 0.61574 0.0
C462 C 0.63783 0.3645 0.65457 0.0
C463 C 0.65835 0.3238 0.65114 0.0
N464 N 0.69876 0.32991 0.63466 0.0
N465 N 0.66526 0.39655 0.64098 0.0
C466 C 0.70168 0.37427 0.62834 0.0
H467 H 0.60594 0.37055 0.66817 0.0
Co468 Co 0.65732 0.45808 0.64714 0.0
C469 C 0.63628 0.46916 0.73284 0.0
O470 O 0.65818 0.507 0.73401 0.0
N471 N 0.64865 0.51985 0.65331 0.0
C472 C 0.65401 0.59366 0.65425 0.0
C473 C 0.67616 0.55476 0.64662 0.0
C474 C 0.60974 0.53878 0.66434 0.0
N475 N 0.61222 0.58347 0.66522 0.0
O476 O 0.59808 0.4547 0.62539 0.0
H477 H 0.70993 0.55302 0.63615 0.0
H478 H 0.5802 0.52 0.67207 0.0
O479 O 0.63433 0.4473 0.70073 0.0
C480 C 0.59715 0.47068 0.59061 0.0
O481 O 0.63539 0.47965 0.57354 0.0
N482 N 0.71645 0.4629 0.66392 0.0
C483 C 0.80338 0.49023 0.67623 0.0
C484 C 0.77859 0.47189 0.70716 0.0
C485 C 0.73514 0.45697 0.70005 0.0
C486 C 0.74222 0.47513 0.63289 0.0
C487 C 0.78584 0.4891 0.63836 0.0
H488 H 0.71656 0.44239 0.72383 0.0
H489 H 0.72743 0.4774 0.60405 0.0
H490 H 0.73073 0.39033 0.61609 0.0
H491 H 0.6455 0.29272 0.66257 0.0
H492 H 0.66722 0.62699 0.65091 0.0
H493 H 0.79196 0.47091 0.73661 0.0
H494 H 0.80422 0.50253 0.61368 0.0
C495 C 0.15393 0.64391 0.60419 0.0
C496 C 0.19514 0.6639 0.60063 0.0
N497 N 0.19924 0.6943 0.62914 0.0
N498 N 0.13201 0.66152 0.63491 0.0
C499 C 0.16093 0.69175 0.64973 0.0
H500 H 0.13987 0.6204 0.58383 0.0
Co501 Co 0.07081 0.65524 0.6467 0.0
C502 C 0.06469 0.63499 0.73343 0.0
O503 O 0.02431 0.65168 0.73461 0.0
N504 N 1.00969 0.6492 0.65731 0.0
C505 C 0.93645 0.65891 0.66235 0.0
C506 C 0.97636 0.67908 0.65332 0.0
C507 C 0.98902 0.61104 0.66796 0.0
N508 N 0.94477 0.61619 0.67167 0.0
O509 O 0.07008 0.59479 0.62706 0.0
H510 H 0.98026 0.71301 0.64341 0.0
H511 H 1.00611 0.57985 0.67304 0.0
O512 O 0.08643 0.63471 0.70096 0.0
C513 C 0.05029 0.59557 0.59376 0.0
O514 O 0.04273 0.63466 0.57769 0.0
N515 N 0.06857 0.71549 0.66021 0.0
C516 C 0.03417 0.80072 0.66177 0.0
C517 C 0.04397 0.77834 0.69687 0.0
C518 C 0.06222 0.73562 0.69548 0.0
C519 C 0.06586 0.73957 0.6264 0.0
C520 C 0.04945 0.78275 0.62656 0.0
H521 H 0.06837 0.71856 0.7226 0.0
H522 H 0.07237 0.72359 0.59872 0.0
H523 H 0.15311 0.71363 0.67377 0.0
H524 H 0.21869 0.65895 0.57707 0.0
H525 H 0.90373 0.67388 0.66041 0.0
H526 H 0.03422 0.79197 0.72484 0.0
H527 H 0.04453 0.80003 0.59898 0.0
C528 C 0.57626 0.8775 0.19566 0.0
C529 C 0.55802 0.91658 0.18009 0.0
C530 C 0.55371 0.83701 0.19188 0.0
C531 C 0.51259 0.83472 0.17212 0.0
H532 H 0.60725 0.87868 0.21189 0.0
H533 H 0.56839 0.80734 0.20458 0.0
S534 S 0.45234 0.92811 0.12494 0.0
N535 N 0.4978 0.95096 0.14336 0.0
N536 N 0.45531 0.87462 0.13591 0.0
C537 C 0.49479 0.8735 0.15543 0.0
C538 C 0.51758 0.91462 0.15954 0.0
C539 C 0.68639 0.5394 0.12958 0.0
C540 C 0.68596 0.50336 0.15605 0.0
C541 C 0.65269 0.57124 0.12962 0.0
C542 C 0.61709 0.56855 0.15614 0.0
H543 H 0.71393 0.54406 0.10948 0.0
H544 H 0.65474 0.59849 0.10883 0.0
S545 S 0.59878 0.47954 0.23006 0.0
N546 N 0.64586 0.46555 0.20834 0.0
N547 N 0.58224 0.52613 0.20869 0.0
C548 C 0.61528 0.53202 0.18203 0.0
C549 C 0.6499 0.49939 0.18206 0.0
C550 C 1.00557 0.65032 0.18575 0.0
C551 C 1.00246 0.68703 0.16019 0.0
C552 C 0.97361 0.61613 0.18491 0.0
C553 C 0.93712 0.61796 0.159 0.0
H554 H 0.03284 0.64804 0.20647 0.0
H555 H 0.97702 0.58838 0.20504 0.0
S556 S 0.9139 0.70687 0.08606 0.0
N557 N 0.95966 0.72332 0.10854 0.0
N558 N 0.90068 0.6587 0.10635 0.0
C559 C 0.93388 0.65433 0.13318 0.0
C560 C 0.96628 0.68894 0.13394 0.0
C561 C 0.90757 0.97725 0.17047 0.0
C562 C 0.9077 0.93351 0.18535 0.0
C563 C 0.86966 1.00421 0.17411 0.0
C564 C 0.83124 0.98809 0.19297 0.0
H565 H 0.93561 0.98945 0.15359 0.0
H566 H 0.86923 0.03641 0.15971 0.0
S567 S 0.81793 0.87916 0.24268 0.0
N568 N 0.86871 0.87781 0.22411 0.0
N569 N 0.79739 0.9283 0.23061 0.0
C570 C 0.83247 0.94597 0.21072 0.0
C571 C 0.8708 0.91866 0.20699 0.0
C572 C 0.06242 0.18814 0.41774 0.0
C573 C 0.02069 0.18689 0.43632 0.0
C574 C 0.09215 0.15256 0.42133 0.0
C575 C 0.08093 0.11444 0.44319 0.0
H576 H 0.07326 0.21791 0.40243 0.0
H577 H 0.12479 0.15543 0.40805 0.0
S578 S 0.97366 0.09357 0.49392 0.0
N579 N 0.96805 0.14368 0.47462 0.0
N580 N 0.02388 0.07634 0.48132 0.0
C581 C 0.03815 0.11169 0.45981 0.0
C582 C 1.00805 0.14814 0.45642 0.0
C583 C 0.37542 0.02314 0.43537 0.0
C584 C 0.33926 0.0258 0.46141 0.0
C585 C 0.40992 0.05477 0.43625 0.0
C586 C 0.40893 0.0904 0.46274 0.0
H587 H 0.37695 0.99657 0.41417 0.0
H588 H 0.4371 0.05191 0.41562 0.0
S589 S 0.32207 0.11191 0.53737 0.0
N590 N 0.30458 0.06715 0.51429 0.0
N591 N 0.36993 0.12531 0.51668 0.0
C592 C 0.3733 0.09301 0.48921 0.0
C593 C 0.33834 0.06103 0.48835 0.0
C594 C 0.51416 0.37547 0.43449 0.0
C595 C 0.51343 0.34215 0.46359 0.0
C596 C 0.48133 0.40859 0.43322 0.0
C597 C 0.44644 0.40895 0.4606 0.0
H598 H 0.53974 0.37538 0.41214 0.0
H599 H 0.48242 0.43333 0.41007 0.0
S600 S 0.43083 0.3313 0.54409 0.0
N601 N 0.47545 0.31273 0.52127 0.0
N602 N 0.41489 0.37579 0.5193 0.0
C603 C 0.44621 0.37695 0.49061 0.0
C604 C 0.47947 0.34335 0.49201 0.0
C605 C 0.15803 0.44821 0.41558 0.0
C606 C 0.11915 0.45679 0.43709 0.0
C607 C 0.19235 0.47959 0.41327 0.0
C608 C 0.18905 0.5205 0.4327 0.0
H609 H 0.16256 0.41629 0.40166 0.0
H610 H 0.22284 0.47054 0.39836 0.0
S611 S 0.09265 0.56125 0.48927 0.0
N612 N 0.07792 0.51073 0.47558 0.0
N613 N 0.14279 0.56983 0.47095 0.0
C614 C 0.14936 0.53069 0.45221 0.0
C615 C 0.11422 0.49882 0.45444 0.0
C616 C 0.43768 0.15649 0.91834 0.0
C617 C 0.44793 0.1175 0.93938 0.0
C618 C 0.46875 0.19104 0.91478 0.0
C619 C 0.51093 0.18782 0.93249 0.0
H620 H 0.40488 0.16081 0.90564 0.0
H621 H 0.4587 0.22155 0.90023 0.0
S622 S 0.55572 0.09181 0.98789 0.0
N623 N 0.50452 0.07678 0.97605 0.0
N624 N 0.56281 0.14198 0.96908 0.0
C625 C 0.52252 0.14825 0.95173 0.0
C626 C 0.49104 0.11294 0.95522 0.0
C627 C 0.4157 0.49032 0.95661 0.0
C628 C 0.41266 0.45072 0.93514 0.0
C629 C 0.38141 0.52183 0.95532 0.0
C630 C 0.34341 0.515 0.93198 0.0
H631 H 0.44339 0.49561 0.97635 0.0
H632 H 0.38349 0.55056 0.97422 0.0
S633 S 0.32235 0.4191 0.8668 0.0
N634 N 0.37109 0.40825 0.88723 0.0
N635 N 0.30639 0.4674 0.8847 0.0
C636 C 0.34154 0.47699 0.90832 0.0
C637 C 0.37622 0.44476 0.91 0.0
C638 C 1.00538 0.38354 0.95695 0.0
C639 C 1.01342 0.34462 0.93542 0.0
C640 C 0.03709 0.41787 0.95822 0.0
C641 C 0.07804 0.41395 0.93856 0.0
H642 H 0.97528 0.38659 0.97422 0.0
H643 H 0.03075 0.44638 0.97653 0.0
S644 S 0.11403 0.32056 0.87609 0.0
N645 N 0.06443 0.30549 0.89233 0.0
N646 N 0.12358 0.37017 0.89476 0.0
C647 C 0.08547 0.37637 0.91546 0.0
C648 C 0.05322 0.34167 0.91382 0.0
C649 C 0.15356 0.01939 0.93207 0.0
C650 C 0.19136 0.02536 0.95578 0.0
C651 C 0.11992 0.05177 0.93063 0.0
C652 C 0.12361 0.0913 0.95223 0.0
H653 H 0.14995 0.98956 0.91475 0.0
H654 H 0.09109 0.04621 0.91219 0.0
S655 S 0.21614 0.12273 1.01856 0.0
N656 N 0.23082 0.07406 1.00079 0.0
N657 N 0.16725 0.13393 0.99873 0.0
C658 C 0.16119 0.09748 0.97601 0.0
C659 C 0.19518 0.06473 0.97759 0.0
C660 C 1.00589 0.87356 0.68741 0.0
C661 C 1.00189 0.83795 0.66117 0.0
C662 C 0.97373 0.90738 0.68837 0.0
C663 C 0.93628 0.90627 0.66358 0.0
H664 H 0.034 0.87525 0.70727 0.0
H665 H 0.97778 0.93429 0.70898 0.0
S666 S 0.91057 0.82062 0.58928 0.0
N667 N 0.95716 0.80348 0.61009 0.0
N668 N 0.89803 0.86778 0.61102 0.0
C669 C 0.93219 0.87114 0.63699 0.0
C670 C 0.96468 0.8368 0.63602 0.0
C671 C 0.65332 0.01399 0.69105 0.0
C672 C 0.68888 1.01154 0.66437 0.0
C673 C 0.61999 0.98114 0.69181 0.0
C674 C 0.62184 0.94443 0.66654 0.0
H675 H 0.65154 0.04118 0.71162 0.0
H676 H 0.59319 0.98378 0.71286 0.0
S677 S 0.70714 0.92324 0.59055 0.0
N678 N 0.72345 0.96963 0.61175 0.0
N679 N 0.66053 0.90882 0.61285 0.0
C680 C 0.65667 0.94214 0.6393 0.0
C681 C 0.69029 0.97547 0.63832 0.0
C682 C 0.58793 0.6531 0.69558 0.0
C683 C 0.57756 0.6147 0.67421 0.0
C684 C 0.55685 0.6873 0.69988 0.0
C685 C 0.51443 0.68445 0.68258 0.0
H686 H 0.62095 0.65734 0.70785 0.0
H687 H 0.56714 0.7174 0.71466 0.0
S688 S 0.46913 0.58927 0.62717 0.0
N689 N 0.52062 0.57427 0.63822 0.0
N690 N 0.46211 0.63902 0.64629 0.0
C691 C 0.50266 0.64523 0.66313 0.0
C692 C 0.53423 0.61014 0.659 0.0
C693 C 0.91647 0.5409 0.65894 0.0
C694 C 0.91269 0.58166 0.67859 0.0
C695 C 0.8823 0.50923 0.66089 0.0
C696 C 0.84374 0.51707 0.68311 0.0
H697 H 0.94473 0.53468 0.64006 0.0
H698 H 0.88491 0.47953 0.64326 0.0
S699 S 0.82048 0.61642 0.74338 0.0
N700 N 0.86966 0.62656 0.72354 0.0
N701 N 0.80524 0.56696 0.72739 0.0
C702 C 0.84106 0.55636 0.705 0.0
C703 C 0.87557 0.58879 0.7026 0.0
C704 C 0.79753 0.20593 0.11613 0.0
C705 C 0.75214 0.21165 0.12487 0.0
C706 C 0.82771 0.24148 0.11832 0.0
C707 C 0.81375 0.28433 0.12925 0.0
H708 H 0.80961 0.17367 0.10715 0.0
H709 H 0.86224 0.23555 0.11085 0.0
S710 S 0.69754 0.31676 0.15344 0.0
N711 N 0.69429 0.26292 0.14446 0.0
N712 N 0.75054 0.33035 0.14786 0.0
C713 C 0.76831 0.2903 0.13854 0.0
C714 C 0.73765 0.25381 0.13654 0.0
C715 C 0.30745 0.76857 0.13252 0.0
C716 C 0.29398 0.72385 0.1367 0.0
C717 C 0.27616 0.80338 0.13193 0.0
C718 C 0.23033 0.79491 0.13641 0.0
H719 H 0.34238 0.77659 0.12874 0.0
H720 H 0.2878 0.83721 0.12798 0.0
S721 S 0.17771 0.68373 0.1474 0.0
N722 N 0.23163 0.67312 0.14474 0.0
N723 N 0.17298 0.73832 0.14398 0.0
C724 C 0.21646 0.75037 0.14069 0.0
C725 C 0.24823 0.71494 0.14069 0.0
C726 C 0.26066 0.71975 0.47931 0.0
C727 C 0.30549 0.73317 0.48342 0.0
C728 C 0.22567 0.75072 0.48068 0.0
C729 C 0.2343 0.79627 0.48535 0.0
H730 H 0.25252 0.68489 0.47593 0.0
H731 H 0.19164 0.73914 0.47786 0.0
S732 S 0.34516 0.84854 0.49894 0.0
N733 N 0.35616 0.79509 0.4936 0.0
N734 N 0.29044 0.85324 0.49557 0.0
C735 C 0.27879 0.81015 0.48965 0.0
C736 C 0.31434 0.77861 0.48889 0.0
C737 C 0.75839 0.30322 0.48026 0.0
C738 C 0.80415 0.29371 0.48225 0.0
C739 C 0.72651 0.26899 0.48053 0.0
C740 C 0.73922 0.22399 0.4836 0.0
H741 H 0.74727 0.33741 0.47837 0.0
H742 H 0.69158 0.27787 0.47936 0.0
S743 S 0.85489 0.18168 0.49139 0.0
N744 N 0.86066 0.23623 0.48834 0.0
N745 N 0.80073 0.17196 0.4893 0.0
C746 C 0.78489 0.21411 0.48605 0.0
C747 C 0.81736 0.24893 0.48519 0.0
C748 C 0.26763 0.72705 1.00607 0.0
C749 C 0.22693 0.73588 0.98689 0.0
C750 C 0.30144 0.75931 1.00842 0.0
C751 C 0.29622 0.80181 0.99153 0.0
H752 H 0.27338 0.69496 1.01968 0.0
H753 H 0.33211 0.75082 1.02341 0.0
S754 S 0.19517 0.84308 0.93993 0.0
N755 N 0.18324 0.79098 0.95126 0.0
N756 N 0.24578 0.85194 0.95716 0.0
C757 C 0.25534 0.81149 0.97298 0.0
C758 C 0.22097 0.77855 0.97039 0.0
C759 C 0.71971 0.25287 0.98241 0.0
C760 C 0.73224 0.29806 0.98364 0.0
C761 C 0.75179 0.21882 0.98345 0.0
C762 C 0.7975 0.22878 0.98488 0.0
H763 H 0.6848 0.24378 0.98143 0.0
H764 H 0.74091 0.18448 0.98279 0.0
S765 S 0.84785 0.34133 0.98964 0.0
N766 N 0.79365 0.35062 0.98722 0.0
N767 N 0.85374 0.28675 0.98881 0.0
C768 C 0.81047 0.2737 0.98627 0.0
C769 C 0.7779 0.30829 0.98578 0.0
C770 C 0.81393 0.27878 0.63339 0.0
C771 C 0.8047 0.23324 0.62987 0.0
C772 C 0.7793 0.31026 0.63421 0.0
C773 C 0.73414 0.29737 0.63081 0.0
H774 H 0.84808 0.2899 0.63653 0.0
H775 H 0.78807 0.34476 0.63862 0.0
S776 S 0.69359 0.18204 0.61522 0.0
N777 N 0.74813 0.17686 0.61967 0.0
N778 N 0.68318 0.23568 0.61956 0.0
C779 C 0.72494 0.25186 0.62534 0.0
C780 C 0.76015 0.21992 0.62522 0.0
C781 C 0.25257 0.80741 0.63791 0.0
C782 C 0.29821 0.79783 0.63449 0.0
C783 C 0.22047 0.77332 0.63705 0.0
C784 C 0.23286 0.72855 0.6318 0.0
H785 H 0.24178 0.84148 0.64155 0.0
H786 H 0.18562 0.78211 0.63962 0.0
S787 S 0.34798 0.68644 0.61929 0.0
N788 N 0.35414 0.74068 0.62452 0.0
N789 N 0.29385 0.6768 0.62223 0.0
C790 C 0.27836 0.71873 0.62764 0.0
C791 C 0.31103 0.75329 0.6292 0.0
C792 C 0.55343 1.00646 1.05435 0.0
C793 C 0.55046 0.04071 0.08252 0.0
C794 C 0.51553 0.98823 1.0364 0.0
C795 C 0.47268 1.00302 1.04596 0.0
H796 H 0.5855 0.99307 1.04601 0.0
H797 H 0.51992 0.962 1.01518 0.0
S798 S 0.44594 0.09269 0.11693 0.0
N799 N 0.5008 0.0891 0.11838 0.0
N800 N 0.42939 0.05526 0.0849 0.0
C801 C 0.46905 0.03764 0.07376 0.0
C802 C 0.50786 0.05634 0.09194 0.0
C803 C 0.50422 0.54584 1.03572 0.0
C804 C 0.48677 0.54401 0.07407 0.0
C805 C 0.52738 0.50988 1.01943 0.0
C806 C 0.53405 0.47028 1.04067 0.0
H807 H 0.50024 0.57552 1.01794 0.0
H808 H 0.53932 0.51294 0.98963 0.0
S809 S 0.49673 0.44848 0.14285 0.0
N810 N 0.47851 0.49908 0.13302 0.0
N811 N 0.52255 0.43193 0.1029 0.0
C812 C 0.51722 0.46807 0.07925 0.0
C813 C 0.49336 0.50465 0.09575 0.0
C814 C 0.01563 0.49942 0.09398 0.0
C815 C 0.97649 0.49332 0.07201 0.0
C816 C 0.05283 0.52157 0.07807 0.0
C817 C 0.05262 0.5388 1.03949 0.0
H818 H 0.01752 0.48739 0.12388 0.0
H819 H 0.08221 0.52485 0.09627 0.0
S820 S 0.95844 0.53147 0.96933 0.0
N821 N 0.94008 0.50605 1.00911 0.0
N822 N 1.00939 0.54826 0.97986 0.0
C823 C 1.01353 0.53331 1.01732 0.0
C824 C 0.97577 0.51038 1.03334 0.0
C825 C 1.00289 0.01668 1.02324 0.0
C826 C 0.99523 0.05548 1.04494 0.0
C827 C 0.02263 0.97885 1.04048 0.0
C828 C 0.0357 0.97787 0.08026 0.0
H829 H 0.99426 0.01564 0.99248 0.0
H830 H 0.02759 0.94996 1.02225 0.0
S831 S 0.02088 0.06991 0.15075 0.0
N832 N 1.00097 0.08987 0.10914 0.0
N833 N 0.03805 0.01904 0.14108 0.0
C834 C 0.02796 0.0163 0.1024 0.0
C835 C 1.00771 0.05486 0.08491 0.0
C836 C 0.01664 0.03704 0.59187 0.0
C837 C 0.97372 0.02761 0.57775 0.0
C838 C 0.05461 0.01745 0.57517 0.0
C839 C 0.05155 0.98748 0.54353 0.0
H840 H 0.02108 0.06018 0.61572 0.0
H841 H 0.08683 0.02672 0.58689 0.0
S842 S 0.9468 0.94874 0.49741 0.0
N843 N 0.9303 0.98375 0.53143 0.0
N844 N 1.00171 0.94785 0.50006 0.0
C845 C 1.00883 0.9769 0.52971 0.0
C846 C 0.97002 0.99661 0.54684 0.0
C847 C 0.53298 0.01388 0.52546 0.0
C848 C 0.53895 0.05315 0.54695 0.0
C849 C 0.51154 0.97652 0.54193 0.0
C850 C 0.49482 0.97666 0.5806 0.0
H851 H 0.54453 1.01202 0.49549 0.0
H852 H 0.5083 0.94709 0.52405 0.0
S853 S 0.50219 0.07101 0.64974 0.0
N854 N 0.52679 0.08947 0.60963 0.0
N855 N 0.48583 0.01992 0.63981 0.0
C856 C 0.50028 0.01581 0.60233 0.0
C857 C 0.52255 0.05371 0.58577 0.0
C858 C 0.51931 0.54014 0.52657 0.0
C859 C 0.47666 0.52884 0.54032 0.0
C860 C 0.55773 0.5202 0.54236 0.0
C861 C 0.55528 0.48806 0.57263 0.0
H862 H 0.52317 0.56502 0.50375 0.0
H863 H 0.58975 0.53097 0.53117 0.0
S864 S 0.45151 0.44351 0.61669 0.0
N865 N 0.43418 0.48068 0.58435 0.0
N866 N 0.50643 0.44411 0.61415 0.0
C867 C 0.51284 0.47555 0.58596 0.0
C868 C 0.47361 0.49561 0.56975 0.0
C869 C 0.04162 0.5123 0.58917 0.0
C870 C 0.03039 0.555 0.57558 0.0
C871 C 0.02358 0.47401 0.57177 0.0
C872 C 0.9935 0.47659 0.53994 0.0
H873 H 0.065 0.50831 0.61311 0.0
H874 H 0.0342 0.44199 0.58303 0.0
S875 S 0.9504 0.58043 0.49498 0.0
N876 N 0.98466 0.59753 0.52958 0.0
N877 N 0.95175 0.52561 0.49689 0.0
C878 C 0.98103 0.51904 0.52673 0.0
C879 C 0.99912 0.55812 0.54457 0.0
C880 C 0.566 0.13432 0.31432 0.0
C881 C 0.58937 0.12848 0.34997 0.0
C882 C 0.58624 0.12618 0.27793 0.0
C883 C 0.63052 0.11142 0.27577 0.0
H884 H 0.53131 0.14419 0.31442 0.0
H885 H 0.5662 0.12872 0.25164 0.0
S886 S 0.70824 0.09603 0.35935 0.0
N887 N 0.66093 0.11122 0.37991 0.0
N888 N 0.69846 0.09521 0.31179 0.0
C889 C 0.65502 0.10796 0.31084 0.0
C890 C 0.63462 0.1166 0.34783 0.0
C891 C 0.45424 0.60393 0.34196 0.0
C892 C 0.41629 0.57673 0.34444 0.0
C893 C 0.47094 0.61799 0.30547 0.0
C894 C 0.44985 0.60616 0.27001 0.0
H895 H 0.47186 0.61342 0.36831 0.0
H896 H 0.50072 0.63839 0.30515 0.0
S897 S 0.34724 0.53813 0.26083 0.0
N898 N 0.35672 0.54015 0.30839 0.0
N899 N 0.38769 0.56716 0.24017 0.0
C900 C 0.41104 0.58013 0.27225 0.0
C901 C 0.39442 0.56526 0.30932 0.0
C902 C 0.90025 0.4616 0.30354 0.0
C903 C 0.91318 0.44257 0.26757 0.0
C904 C 0.91723 0.4461 0.33953 0.0
C905 C 0.94853 0.41148 0.34102 0.0
H906 H 0.87689 0.48902 0.30401 0.0
H907 H 0.9068 0.46227 0.36623 0.0
S908 S 0.99138 0.34823 0.25582 0.0
N909 N 0.95751 0.38546 0.23626 0.0
N910 N 0.98994 0.35678 0.30348 0.0
C911 C 0.96096 0.3914 0.30541 0.0
C912 C 0.94316 0.40676 0.26885 0.0
C913 C 0.08621 0.90878 0.34703 0.0
C914 C 0.12003 0.94112 0.34725 0.0
C915 C 0.06914 0.89208 0.31163 0.0
C916 C 0.08578 0.90631 0.27492 0.0
H917 H 0.07169 0.89741 0.37434 0.0
H918 H 0.0423 0.86802 0.31313 0.0
S919 S 0.17721 0.98761 0.25955 0.0
N920 N 0.1714 0.98494 0.30756 0.0
N921 N 0.13993 0.95294 0.24142 0.0
C922 C 0.12092 0.93722 0.27484 0.0
C923 C 0.13781 0.95478 0.31084 0.0
C924 C 0.4473 0.91626 0.84877 0.0
C925 C 0.40925 0.94336 0.84947 0.0
C926 C 0.46537 0.90153 0.81313 0.0
C927 C 0.44574 0.91263 0.77669 0.0
H928 H 0.46415 0.90766 0.87583 0.0
H929 H 0.49528 0.88145 0.81424 0.0
S930 S 0.34323 0.97966 0.7628 0.0
N931 N 0.35091 0.97863 0.81065 0.0
N932 N 0.3845 0.95046 0.7441 0.0
C933 C 0.40665 0.93825 0.77717 0.0
C934 C 0.38858 0.95373 0.81338 0.0
C935 C 0.63303 0.46551 0.80644 0.0
C936 C 0.61777 0.45015 0.7698 0.0
C937 C 0.61619 0.44813 0.84183 0.0
C938 C 0.58291 0.41519 0.842 0.0
H939 H 0.6584 0.4911 0.8079 0.0
H940 H 0.62868 0.46124 0.86919 0.0
S941 S 0.53238 0.36272 0.75413 0.0
N942 N 0.56795 0.3994 0.7362 0.0
N943 N 0.53639 0.36676 0.80215 0.0
C944 C 0.56773 0.39922 0.80555 0.0
C945 C 0.58512 0.41665 0.76965 0.0
C946 C 0.11562 0.58396 0.77127 0.0
C947 C 0.08503 0.61927 0.7708 0.0
C948 C 0.13176 0.56631 0.8068 0.0
C949 C 0.11854 0.5837 0.84332 0.0
H950 H 0.1262 0.569 0.74407 0.0
H951 H 0.15476 0.53864 0.80551 0.0
S952 S 0.04164 0.67866 0.85792 0.0
N953 N 0.04384 0.6726 0.80998 0.0
N954 N 0.07449 0.63982 0.87635 0.0
C955 C 0.08905 0.61996 0.84312 0.0
C956 C 0.07223 0.63759 0.80702 0.0
C957 C 0.91844 0.082 0.84466 0.0
C958 C 0.94726 0.11881 0.84535 0.0
C959 C 0.90255 0.0648 0.80905 0.0
C960 C 0.91406 0.08418 0.7726 0.0
H961 H 0.90916 0.06551 0.87174 0.0
H962 H 0.88112 0.03581 0.81021 0.0
S963 S 0.9855 0.18373 0.75863 0.0
N964 N 0.98475 0.17576 0.80649 0.0
N965 N 0.95426 0.1439 0.73996 0.0
C966 C 0.94149 0.12206 0.77304 0.0
C967 C 0.95825 0.13918 0.80925 0.0
loop_
_geom_bond_atom_site_label_1
_geom_bond_atom_site_label_2
_geom_bond_distance
_geom_bond_site_symmetry_2
_ccdc_geom_bond_type
C0 C1 1.351 . S
C0 N3 1.368 . S
C0 H5 0.931 . S
C1 C0 1.351 . S
C1 N2 1.373 . S
C1 H29 0.930 . S
N2 C1 1.373 . S
N2 C4 1.340 . S
N3 C0 1.368 . S
N3 C4 1.321 . S
N3 Co6 2.135 . S
C4 N2 1.340 . S
C4 N3 1.321 . S
C4 H28 0.930 . S
H5 C0 0.931 . S
Co6 N3 2.135 . S
Co6 N9 2.121 1_545 S
Co6 O14 2.055 . S
Co6 O17 2.039 . S
Co6 N20 2.140 . S
C7 O8 1.227 . S
C7 O17 1.265 . S
O8 C7 1.227 . S
N9 Co6 2.121 1_565 S
N9 C11 1.375 . S
N9 C12 1.313 . S
C10 C11 1.338 . S
C10 N13 1.377 . S
C10 H30 0.930 . S
C11 N9 1.375 . S
C11 C10 1.338 . S
C11 H15 0.931 . S
C12 N9 1.313 . S
C12 N13 1.344 . S
C12 H16 0.930 . S
N13 C10 1.377 . S
N13 C12 1.344 . S
O14 Co6 2.055 . S
O14 C18 1.253 . S
H15 C11 0.931 . S
H16 C12 0.930 . S
O17 Co6 2.039 . S
O17 C7 1.265 . S
C18 O14 1.253 . S
C18 O19 1.227 . S
O19 C18 1.227 . S
N20 Co6 2.140 . S
N20 C23 1.346 . S
N20 C24 1.345 1_545 S
C21 C22 1.387 1_565 S
C21 C25 1.391 . S
C22 C21 1.387 1_545 S
C22 C23 1.369 . S
C22 H31 0.929 . S
C23 N20 1.346 . S
C23 C22 1.369 . S
C23 H26 0.928 . S
C24 N20 1.345 1_565 S
C24 C25 1.371 . S
C24 H27 0.931 . S
C25 C21 1.391 . S
C25 C24 1.371 . S
C25 H32 0.930 . S
H26 C23 0.928 . S
H27 C24 0.931 . S
H28 C4 0.930 . S
H29 C1 0.930 . S
H30 C10 0.930 . S
H31 C22 0.929 . S
H32 C25 0.930 . S
C33 C34 1.351 . S
C33 N36 1.368 . S
C33 H38 0.931 . S
C34 C33 1.351 . S
C34 N35 1.373 . S
C34 H62 0.930 . S
N35 C34 1.373 . S
N35 C37 1.340 . S
N36 C33 1.368 . S
N36 C37 1.321 . S
N36 Co39 2.135 . S
C37 N35 1.340 . S
C37 N36 1.321 . S
C37 H61 0.930 . S
H38 C33 0.931 . S
Co39 N36 2.135 . S
Co39 N42 2.121 . S
Co39 O47 2.055 . S
Co39 O50 2.039 . S
Co39 N53 2.140 . S
C40 O41 1.227 . S
C40 O50 1.265 . S
O41 C40 1.227 . S
N42 Co39 2.121 . S
N42 C44 1.375 . S
N42 C45 1.313 . S
C43 C44 1.338 . S
C43 N46 1.377 . S
C43 H63 0.930 . S
C44 N42 1.375 . S
C44 C43 1.338 . S
C44 H48 0.931 . S
C45 N42 1.313 . S
C45 N46 1.344 . S
C45 H49 0.930 . S
N46 C43 1.377 . S
N46 C45 1.344 . S
O47 Co39 2.055 . S
O47 C51 1.253 . S
H48 C44 0.931 . S
H49 C45 0.930 . S
O50 Co39 2.039 . S
O50 C40 1.265 . S
C51 O47 1.253 . S
C51 O52 1.227 . S
O52 C51 1.227 . S
N53 Co39 2.140 . S
N53 C56 1.346 . S
N53 C57 1.345 . S
C54 C55 1.387 . S
C54 C58 1.391 . S
C55 C54 1.387 . S
C55 C56 1.369 . S
C55 H64 0.929 . S
C56 N53 1.346 . S
C56 C55 1.369 . S
C56 H59 0.928 . S
C57 N53 1.345 . S
C57 C58 1.371 . S
C57 H60 0.931 . S
C58 C54 1.391 . S
C58 C57 1.371 . S
C58 H65 0.930 . S
H59 C56 0.928 . S
H60 C57 0.931 . S
H61 C37 0.930 . S
H62 C34 0.930 . S
H63 C43 0.930 . S
H64 C55 0.929 . S
H65 C58 0.930 . S
C66 C67 1.351 . S
C66 N69 1.368 . S
C66 H71 0.931 . S
C67 C66 1.351 . S
C67 N68 1.373 . S
C67 H95 0.930 . S
N68 C67 1.373 . S
N68 C70 1.340 . S
N69 C66 1.368 . S
N69 C70 1.321 . S
N69 Co72 2.135 . S
C70 N68 1.340 . S
C70 N69 1.321 . S
C70 H94 0.930 . S
H71 C66 0.931 . S
Co72 N69 2.135 . S
Co72 N75 2.121 . S
Co72 O80 2.055 . S
Co72 O83 2.039 . S
Co72 N86 2.140 . S
C73 O74 1.227 . S
C73 O83 1.265 . S
O74 C73 1.227 . S
N75 Co72 2.121 . S
N75 C77 1.375 . S
N75 C78 1.313 . S
C76 C77 1.338 . S
C76 N79 1.377 . S
C76 H96 0.930 . S
C77 N75 1.375 . S
C77 C76 1.338 . S
C77 H81 0.931 . S
C78 N75 1.313 . S
C78 N79 1.344 . S
C78 H82 0.930 . S
N79 C76 1.377 . S
N79 C78 1.344 . S
O80 Co72 2.055 . S
O80 C84 1.253 . S
H81 C77 0.931 . S
H82 C78 0.930 . S
O83 Co72 2.039 . S
O83 C73 1.265 . S
C84 O80 1.253 . S
C84 O85 1.227 . S
O85 C84 1.227 . S
N86 Co72 2.140 . S
N86 C89 1.346 . S
N86 C90 1.345 . S
C87 C88 1.387 . S
C87 C91 1.391 . S
C88 C87 1.387 . S
C88 C89 1.369 . S
C88 H97 0.929 . S
C89 N86 1.346 . S
C89 C88 1.369 . S
C89 H92 0.928 . S
C90 N86 1.345 . S
C90 C91 1.371 . S
C90 H93 0.931 . S
C91 C87 1.391 . S
C91 C90 1.371 . S
C91 H98 0.930 . S
H92 C89 0.928 . S
H93 C90 0.931 . S
H94 C70 0.930 . S
H95 C67 0.930 . S
H96 C76 0.930 . S
H97 C88 0.929 . S
H98 C91 0.930 . S
C99 C100 1.351 . S
C99 N102 1.368 . S
C99 H104 0.931 . S
C100 C99 1.351 . S
C100 N101 1.373 . S
C100 H128 0.930 . S
N101 C100 1.373 . S
N101 C103 1.340 . S
N102 C99 1.368 . S
N102 C103 1.321 . S
N102 Co105 2.135 . S
C103 N101 1.340 . S
C103 N102 1.321 . S
C103 H127 0.930 . S
H104 C99 0.931 . S
Co105 N102 2.135 . S
Co105 N108 2.121 1_455 S
Co105 O113 2.055 . S
Co105 O116 2.039 . S
Co105 N119 2.140 . S
C106 O107 1.227 . S
C106 O116 1.265 . S
O107 C106 1.227 . S
N108 Co105 2.121 1_655 S
N108 C110 1.375 . S
N108 C111 1.313 . S
C109 C110 1.338 . S
C109 N112 1.377 . S
C109 H129 0.930 . S
C110 N108 1.375 . S
C110 C109 1.338 . S
C110 H114 0.931 . S
C111 N108 1.313 . S
C111 N112 1.344 . S
C111 H115 0.930 . S
N112 C109 1.377 . S
N112 C111 1.344 . S
O113 Co105 2.055 . S
O113 C117 1.253 . S
H114 C110 0.931 . S
H115 C111 0.930 . S
O116 Co105 2.039 . S
O116 C106 1.265 . S
C117 O113 1.253 . S
C117 O118 1.227 . S
O118 C117 1.227 . S
N119 Co105 2.140 . S
N119 C122 1.346 . S
N119 C123 1.345 1_455 S
C120 C121 1.387 1_655 S
C120 C124 1.391 . S
C121 C120 1.387 1_455 S
C121 C122 1.369 . S
C121 H130 0.929 . S
C122 N119 1.346 . S
C122 C121 1.369 . S
C122 H125 0.928 . S
C123 N119 1.345 1_655 S
C123 C124 1.371 . S
C123 H126 0.931 . S
C124 C120 1.391 . S
C124 C123 1.371 . S
C124 H131 0.930 . S
H125 C122 0.928 . S
H126 C123 0.931 . S
H127 C103 0.930 . S
H128 C100 0.930 . S
H129 C109 0.930 . S
H130 C121 0.929 . S
H131 C124 0.930 . S
C132 C133 1.351 . S
C132 N135 1.368 . S
C132 H137 0.931 . S
C133 C132 1.351 . S
C133 N134 1.373 . S
C133 H161 0.930 . S
N134 C133 1.373 . S
N134 C136 1.340 . S
N135 C132 1.368 . S
N135 C136 1.321 . S
N135 Co138 2.135 . S
C136 N134 1.340 . S
C136 N135 1.321 . S
C136 H160 0.930 . S
H137 C132 0.931 . S
Co138 N135 2.135 . S
Co138 N141 2.121 1_565 S
Co138 O146 2.055 . S
Co138 O149 2.039 . S
Co138 N152 2.140 . S
C139 O140 1.227 . S
C139 O149 1.265 . S
O140 C139 1.227 . S
N141 Co138 2.121 1_545 S
N141 C143 1.375 . S
N141 C144 1.313 . S
C142 C143 1.338 . S
C142 N145 1.377 . S
C142 H162 0.930 . S
C143 N141 1.375 . S
C143 C142 1.338 . S
C143 H147 0.931 . S
C144 N141 1.313 . S
C144 N145 1.344 . S
C144 H148 0.930 . S
N145 C142 1.377 . S
N145 C144 1.344 . S
O146 Co138 2.055 . S
O146 C150 1.253 . S
H147 C143 0.931 . S
H148 C144 0.930 . S
O149 Co138 2.039 . S
O149 C139 1.265 . S
C150 O146 1.253 . S
C150 O151 1.227 . S
O151 C150 1.227 . S
N152 Co138 2.140 . S
N152 C155 1.346 . S
N152 C156 1.345 1_565 S
C153 C154 1.387 1_545 S
C153 C157 1.391 . S
C154 C153 1.387 1_565 S
C154 C155 1.369 . S
C154 H163 0.929 . S
C155 N152 1.346 . S
C155 C154 1.369 . S
C155 H158 0.928 . S
C156 N152 1.345 1_545 S
C156 C157 1.371 . S
C156 H159 0.931 . S
C157 C153 1.391 . S
C157 C156 1.371 . S
C157 H164 0.930 . S
H158 C155 0.928 . S
H159 C156 0.931 . S
H160 C136 0.930 . S
H161 C133 0.930 . S
H162 C142 0.930 . S
H163 C154 0.929 . S
H164 C157 0.930 . S
C165 C166 1.351 . S
C165 N168 1.368 . S
C165 H170 0.931 . S
C166 C165 1.351 . S
C166 N167 1.373 . S
C166 H194 0.930 . S
N167 C166 1.373 . S
N167 C169 1.340 . S
N168 C165 1.368 . S
N168 C169 1.321 . S
N168 Co171 2.135 . S
C169 N167 1.340 . S
C169 N168 1.321 . S
C169 H193 0.930 . S
H170 C165 0.931 . S
Co171 N168 2.135 . S
Co171 N174 2.121 . S
Co171 O179 2.055 . S
Co171 O182 2.039 . S
Co171 N185 2.140 . S
C172 O173 1.227 . S
C172 O182 1.265 . S
O173 C172 1.227 . S
N174 Co171 2.121 . S
N174 C176 1.375 . S
N174 C177 1.313 . S
C175 C176 1.338 . S
C175 N178 1.377 . S
C175 H195 0.930 . S
C176 N174 1.375 . S
C176 C175 1.338 . S
C176 H180 0.931 . S
C177 N174 1.313 . S
C177 N178 1.344 . S
C177 H181 0.930 . S
N178 C175 1.377 . S
N178 C177 1.344 . S
O179 Co171 2.055 . S
O179 C183 1.253 . S
H180 C176 0.931 . S
H181 C177 0.930 . S
O182 Co171 2.039 . S
O182 C172 1.265 . S
C183 O179 1.253 . S
C183 O184 1.227 . S
O184 C183 1.227 . S
N185 Co171 2.140 . S
N185 C188 1.346 . S
N185 C189 1.345 . S
C186 C187 1.387 . S
C186 C190 1.391 . S
C187 C186 1.387 . S
C187 C188 1.369 . S
C187 H196 0.929 . S
C188 N185 1.346 . S
C188 C187 1.369 . S
C188 H191 0.928 . S
C189 N185 1.345 . S
C189 C190 1.371 . S
C189 H192 0.931 . S
C190 C186 1.391 . S
C190 C189 1.371 . S
C190 H197 0.930 . S
H191 C188 0.928 . S
H192 C189 0.931 . S
H193 C169 0.930 . S
H194 C166 0.930 . S
H195 C175 0.930 . S
H196 C187 0.929 . S
H197 C190 0.930 . S
C198 C199 1.351 . S
C198 N201 1.368 . S
C198 H203 0.931 . S
C199 C198 1.351 . S
C199 N200 1.373 . S
C199 H227 0.930 . S
N200 C199 1.373 . S
N200 C202 1.340 . S
N201 C198 1.368 . S
N201 C202 1.321 . S
N201 Co204 2.135 . S
C202 N200 1.340 . S
C202 N201 1.321 . S
C202 H226 0.930 . S
H203 C198 0.931 . S
Co204 N201 2.135 . S
Co204 N207 2.121 . S
Co204 O212 2.055 . S
Co204 O215 2.039 . S
Co204 N218 2.140 . S
C205 O206 1.227 . S
C205 O215 1.265 . S
O206 C205 1.227 . S
N207 Co204 2.121 . S
N207 C209 1.375 . S
N207 C210 1.313 . S
C208 C209 1.338 . S
C208 N211 1.377 . S
C208 H228 0.930 . S
C209 N207 1.375 . S
C209 C208 1.338 . S
C209 H213 0.931 . S
C210 N207 1.313 . S
C210 N211 1.344 . S
C210 H214 0.930 . S
N211 C208 1.377 . S
N211 C210 1.344 . S
O212 Co204 2.055 . S
O212 C216 1.253 . S
H213 C209 0.931 . S
H214 C210 0.930 . S
O215 Co204 2.039 . S
O215 C205 1.265 . S
C216 O212 1.253 . S
C216 O217 1.227 . S
O217 C216 1.227 . S
N218 Co204 2.140 . S
N218 C221 1.346 . S
N218 C222 1.345 . S
C219 C220 1.387 . S
C219 C223 1.391 . S
C220 C219 1.387 . S
C220 C221 1.369 . S
C220 H229 0.929 . S
C221 N218 1.346 . S
C221 C220 1.369 . S
C221 H224 0.928 . S
C222 N218 1.345 . S
C222 C223 1.371 . S
C222 H225 0.931 . S
C223 C219 1.391 . S
C223 C222 1.371 . S
C223 H230 0.930 . S
H224 C221 0.928 . S
H225 C222 0.931 . S
H226 C202 0.930 . S
H227 C199 0.930 . S
H228 C208 0.930 . S
H229 C220 0.929 . S
H230 C223 0.930 . S
C231 C232 1.351 . S
C231 N234 1.368 . S
C231 H236 0.931 . S
C232 C231 1.351 . S
C232 N233 1.373 . S
C232 H260 0.930 . S
N233 C232 1.373 . S
N233 C235 1.340 . S
N234 C231 1.368 . S
N234 C235 1.321 . S
N234 Co237 2.135 . S
C235 N233 1.340 . S
C235 N234 1.321 . S
C235 H259 0.930 . S
H236 C231 0.931 . S
Co237 N234 2.135 . S
Co237 N240 2.121 1_655 S
Co237 O245 2.055 . S
Co237 O248 2.039 . S
Co237 N251 2.140 . S
C238 O239 1.227 . S
C238 O248 1.265 . S
O239 C238 1.227 . S
N240 Co237 2.121 1_455 S
N240 C242 1.375 . S
N240 C243 1.313 . S
C241 C242 1.338 . S
C241 N244 1.377 . S
C241 H261 0.930 . S
C242 N240 1.375 . S
C242 C241 1.338 . S
C242 H246 0.931 . S
C243 N240 1.313 . S
C243 N244 1.344 . S
C243 H247 0.930 . S
N244 C241 1.377 . S
N244 C243 1.344 . S
O245 Co237 2.055 . S
O245 C249 1.253 . S
H246 C242 0.931 . S
H247 C243 0.930 . S
O248 Co237 2.039 . S
O248 C238 1.265 . S
C249 O245 1.253 . S
C249 O250 1.227 . S
O250 C249 1.227 . S
N251 Co237 2.140 . S
N251 C254 1.346 . S
N251 C255 1.345 1_655 S
C252 C253 1.387 1_455 S
C252 C256 1.391 . S
C253 C252 1.387 1_655 S
C253 C254 1.369 . S
C253 H262 0.929 . S
C254 N251 1.346 . S
C254 C253 1.369 . S
C254 H257 0.928 . S
C255 N251 1.345 1_455 S
C255 C256 1.371 . S
C255 H258 0.931 . S
C256 C252 1.391 . S
C256 C255 1.371 . S
C256 H263 0.930 . S
H257 C254 0.928 . S
H258 C255 0.931 . S
H259 C235 0.930 . S
H260 C232 0.930 . S
H261 C241 0.930 . S
H262 C253 0.929 . S
H263 C256 0.930 . S
C264 C265 1.351 . S
C264 N267 1.368 . S
C264 H269 0.931 . S
C265 C264 1.351 . S
C265 N266 1.373 . S
C265 H293 0.930 . S
N266 C265 1.373 . S
N266 C268 1.340 . S
N267 C264 1.368 . S
N267 C268 1.321 . S
N267 Co270 2.135 . S
C268 N266 1.340 . S
C268 N267 1.321 . S
C268 H292 0.930 . S
H269 C264 0.931 . S
Co270 N267 2.135 . S
Co270 N273 2.121 1_565 S
Co270 O278 2.055 . S
Co270 O281 2.039 . S
Co270 N284 2.140 . S
C271 O272 1.227 . S
C271 O281 1.265 . S
O272 C271 1.227 . S
N273 Co270 2.121 1_545 S
N273 C275 1.375 . S
N273 C276 1.313 . S
C274 C275 1.338 . S
C274 N277 1.377 . S
C274 H294 0.930 . S
C275 N273 1.375 . S
C275 C274 1.338 . S
C275 H279 0.931 . S
C276 N273 1.313 . S
C276 N277 1.344 . S
C276 H280 0.930 . S
N277 C274 1.377 . S
N277 C276 1.344 . S
O278 Co270 2.055 . S
O278 C282 1.253 . S
H279 C275 0.931 . S
H280 C276 0.930 . S
O281 Co270 2.039 . S
O281 C271 1.265 . S
C282 O278 1.253 . S
C282 O283 1.227 . S
O283 C282 1.227 . S
N284 Co270 2.140 . S
N284 C287 1.346 . S
N284 C288 1.345 1_565 S
C285 C286 1.387 1_545 S
C285 C289 1.391 . S
C286 C285 1.387 1_565 S
C286 C287 1.369 . S
C286 H295 0.929 . S
C287 N284 1.346 . S
C287 C286 1.369 . S
C287 H290 0.928 . S
C288 N284 1.345 1_545 S
C288 C289 1.371 . S
C288 H291 0.931 . S
C289 C285 1.391 . S
C289 C288 1.371 . S
C289 H296 0.930 . S
H290 C287 0.928 . S
H291 C288 0.931 . S
H292 C268 0.930 . S
H293 C265 0.930 . S
H294 C274 0.930 . S
H295 C286 0.929 . S
H296 C289 0.930 . S
C297 C298 1.351 . S
C297 N300 1.368 . S
C297 H302 0.931 . S
C298 C297 1.351 . S
C298 N299 1.373 . S
C298 H326 0.930 . S
N299 C298 1.373 . S
N299 C301 1.340 . S
N300 C297 1.368 . S
N300 C301 1.321 . S
N300 Co303 2.135 . S
C301 N299 1.340 . S
C301 N300 1.321 . S
C301 H325 0.930 . S
H302 C297 0.931 . S
Co303 N300 2.135 . S
Co303 N306 2.121 . S
Co303 O311 2.055 . S
Co303 O314 2.039 . S
Co303 N317 2.140 . S
C304 O305 1.227 . S
C304 O314 1.265 . S
O305 C304 1.227 . S
N306 Co303 2.121 . S
N306 C308 1.375 . S
N306 C309 1.313 . S
C307 C308 1.338 . S
C307 N310 1.377 . S
C307 H327 0.930 . S
C308 N306 1.375 . S
C308 C307 1.338 . S
C308 H312 0.931 . S
C309 N306 1.313 . S
C309 N310 1.344 . S
C309 H313 0.930 . S
N310 C307 1.377 . S
N310 C309 1.344 . S
O311 Co303 2.055 . S
O311 C315 1.253 . S
H312 C308 0.931 . S
H313 C309 0.930 . S
O314 Co303 2.039 . S
O314 C304 1.265 . S
C315 O311 1.253 . S
C315 O316 1.227 . S
O316 C315 1.227 . S
N317 Co303 2.140 . S
N317 C320 1.346 . S
N317 C321 1.345 . S
C318 C319 1.387 . S
C318 C322 1.391 . S
C319 C318 1.387 . S
C319 C320 1.369 . S
C319 H328 0.929 . S
C320 N317 1.346 . S
C320 C319 1.369 . S
C320 H323 0.928 . S
C321 N317 1.345 . S
C321 C322 1.371 . S
C321 H324 0.931 . S
C322 C318 1.391 . S
C322 C321 1.371 . S
C322 H329 0.930 . S
H323 C320 0.928 . S
H324 C321 0.931 . S
H325 C301 0.930 . S
H326 C298 0.930 . S
H327 C307 0.930 . S
H328 C319 0.929 . S
H329 C322 0.930 . S
C330 C331 1.351 . S
C330 N333 1.368 . S
C330 H335 0.931 . S
C331 C330 1.351 . S
C331 N332 1.373 . S
C331 H359 0.930 . S
N332 C331 1.373 . S
N332 C334 1.340 . S
N333 C330 1.368 . S
N333 C334 1.321 . S
N333 Co336 2.135 . S
C334 N332 1.340 . S
C334 N333 1.321 . S
C334 H358 0.930 . S
H335 C330 0.931 . S
Co336 N333 2.135 . S
Co336 N339 2.121 . S
Co336 O344 2.055 . S
Co336 O347 2.039 . S
Co336 N350 2.140 . S
C337 O338 1.227 . S
C337 O347 1.265 . S
O338 C337 1.227 . S
N339 Co336 2.121 . S
N339 C341 1.375 . S
N339 C342 1.313 . S
C340 C341 1.338 . S
C340 N343 1.377 . S
C340 H360 0.930 . S
C341 N339 1.375 . S
C341 C340 1.338 . S
C341 H345 0.931 . S
C342 N339 1.313 . S
C342 N343 1.344 . S
C342 H346 0.930 . S
N343 C340 1.377 . S
N343 C342 1.344 . S
O344 Co336 2.055 . S
O344 C348 1.253 . S
H345 C341 0.931 . S
H346 C342 0.930 . S
O347 Co336 2.039 . S
O347 C337 1.265 . S
C348 O344 1.253 . S
C348 O349 1.227 . S
O349 C348 1.227 . S
N350 Co336 2.140 . S
N350 C353 1.346 . S
N350 C354 1.345 . S
C351 C352 1.387 . S
C351 C355 1.391 . S
C352 C351 1.387 . S
C352 C353 1.369 . S
C352 H361 0.929 . S
C353 N350 1.346 . S
C353 C352 1.369 . S
C353 H356 0.928 . S
C354 N350 1.345 . S
C354 C355 1.371 . S
C354 H357 0.931 . S
C355 C351 1.391 . S
C355 C354 1.371 . S
C355 H362 0.930 . S
H356 C353 0.928 . S
H357 C354 0.931 . S
H358 C334 0.930 . S
H359 C331 0.930 . S
H360 C340 0.930 . S
H361 C352 0.929 . S
H362 C355 0.930 . S
C363 C364 1.351 . S
C363 N366 1.368 . S
C363 H368 0.931 . S
C364 C363 1.351 . S
C364 N365 1.373 . S
C364 H392 0.930 . S
N365 C364 1.373 . S
N365 C367 1.340 . S
N366 C363 1.368 . S
N366 C367 1.321 . S
N366 Co369 2.135 . S
C367 N365 1.340 . S
C367 N366 1.321 . S
C367 H391 0.930 . S
H368 C363 0.931 . S
Co369 N366 2.135 . S
Co369 N372 2.121 1_655 S
Co369 O377 2.055 . S
Co369 O380 2.039 . S
Co369 N383 2.140 . S
C370 O371 1.227 . S
C370 O380 1.265 . S
O371 C370 1.227 . S
N372 Co369 2.121 1_455 S
N372 C374 1.375 . S
N372 C375 1.313 . S
C373 C374 1.338 . S
C373 N376 1.377 . S
C373 H393 0.930 . S
C374 N372 1.375 . S
C374 C373 1.338 . S
C374 H378 0.931 . S
C375 N372 1.313 . S
C375 N376 1.344 . S
C375 H379 0.930 . S
N376 C373 1.377 . S
N376 C375 1.344 . S
O377 Co369 2.055 . S
O377 C381 1.253 . S
H378 C374 0.931 . S
H379 C375 0.930 . S
O380 Co369 2.039 . S
O380 C370 1.265 . S
C381 O377 1.253 . S
C381 O382 1.227 . S
O382 C381 1.227 . S
N383 Co369 2.140 . S
N383 C386 1.346 . S
N383 C387 1.345 1_655 S
C384 C385 1.387 1_455 S
C384 C388 1.391 . S
C385 C384 1.387 1_655 S
C385 C386 1.369 . S
C385 H394 0.929 . S
C386 N383 1.346 . S
C386 C385 1.369 . S
C386 H389 0.928 . S
C387 N383 1.345 1_455 S
C387 C388 1.371 . S
C387 H390 0.931 . S
C388 C384 1.391 . S
C388 C387 1.371 . S
C388 H395 0.930 . S
H389 C386 0.928 . S
H390 C387 0.931 . S
H391 C367 0.930 . S
H392 C364 0.930 . S
H393 C373 0.930 . S
H394 C385 0.929 . S
H395 C388 0.930 . S
C396 C397 1.351 . S
C396 N399 1.368 . S
C396 H401 0.931 . S
C397 C396 1.351 . S
C397 N398 1.373 . S
C397 H425 0.930 . S
N398 C397 1.373 . S
N398 C400 1.340 . S
N399 C396 1.368 . S
N399 C400 1.321 . S
N399 Co402 2.135 . S
C400 N398 1.340 . S
C400 N399 1.321 . S
C400 H424 0.930 . S
H401 C396 0.931 . S
Co402 N399 2.135 . S
Co402 N405 2.121 1_545 S
Co402 O410 2.055 . S
Co402 O413 2.039 . S
Co402 N416 2.140 . S
C403 O404 1.227 . S
C403 O413 1.265 . S
O404 C403 1.227 . S
N405 Co402 2.121 1_565 S
N405 C407 1.375 . S
N405 C408 1.313 . S
C406 C407 1.338 . S
C406 N409 1.377 . S
C406 H426 0.930 . S
C407 N405 1.375 . S
C407 C406 1.338 . S
C407 H411 0.931 . S
C408 N405 1.313 . S
C408 N409 1.344 . S
C408 H412 0.930 . S
N409 C406 1.377 . S
N409 C408 1.344 . S
O410 Co402 2.055 . S
O410 C414 1.253 . S
H411 C407 0.931 . S
H412 C408 0.930 . S
O413 Co402 2.039 . S
O413 C403 1.265 . S
C414 O410 1.253 . S
C414 O415 1.227 . S
O415 C414 1.227 . S
N416 Co402 2.140 . S
N416 C419 1.346 . S
N416 C420 1.345 1_545 S
C417 C418 1.387 1_565 S
C417 C421 1.391 . S
C418 C417 1.387 1_545 S
C418 C419 1.369 . S
C418 H427 0.929 . S
C419 N416 1.346 . S
C419 C418 1.369 . S
C419 H422 0.928 . S
C420 N416 1.345 1_565 S
C420 C421 1.371 . S
C420 H423 0.931 . S
C421 C417 1.391 . S
C421 C420 1.371 . S
C421 H428 0.930 . S
H422 C419 0.928 . S
H423 C420 0.931 . S
H424 C400 0.930 . S
H425 C397 0.930 . S
H426 C406 0.930 . S
H427 C418 0.929 . S
H428 C421 0.930 . S
C429 C430 1.351 . S
C429 N432 1.368 . S
C429 H434 0.931 . S
C430 C429 1.351 . S
C430 N431 1.373 . S
C430 H458 0.930 . S
N431 C430 1.373 . S
N431 C433 1.340 . S
N432 C429 1.368 . S
N432 C433 1.321 . S
N432 Co435 2.135 . S
C433 N431 1.340 . S
C433 N432 1.321 . S
C433 H457 0.930 . S
H434 C429 0.931 . S
Co435 N432 2.135 . S
Co435 N438 2.121 . S
Co435 O443 2.055 . S
Co435 O446 2.039 . S
Co435 N449 2.140 . S
C436 O437 1.227 . S
C436 O446 1.265 . S
O437 C436 1.227 . S
N438 Co435 2.121 . S
N438 C440 1.375 . S
N438 C441 1.313 . S
C439 C440 1.338 . S
C439 N442 1.377 . S
C439 H459 0.930 . S
C440 N438 1.375 . S
C440 C439 1.338 . S
C440 H444 0.931 . S
C441 N438 1.313 . S
C441 N442 1.344 . S
C441 H445 0.930 . S
N442 C439 1.377 . S
N442 C441 1.344 . S
O443 Co435 2.055 . S
O443 C447 1.253 . S
H444 C440 0.931 . S
H445 C441 0.930 . S
O446 Co435 2.039 . S
O446 C436 1.265 . S
C447 O443 1.253 . S
C447 O448 1.227 . S
O448 C447 1.227 . S
N449 Co435 2.140 . S
N449 C452 1.346 . S
N449 C453 1.345 . S
C450 C451 1.387 . S
C450 C454 1.391 . S
C451 C450 1.387 . S
C451 C452 1.369 . S
C451 H460 0.929 . S
C452 N449 1.346 . S
C452 C451 1.369 . S
C452 H455 0.928 . S
C453 N449 1.345 . S
C453 C454 1.371 . S
C453 H456 0.931 . S
C454 C450 1.391 . S
C454 C453 1.371 . S
C454 H461 0.930 . S
H455 C452 0.928 . S
H456 C453 0.931 . S
H457 C433 0.930 . S
H458 C430 0.930 . S
H459 C439 0.930 . S
H460 C451 0.929 . S
H461 C454 0.930 . S
C462 C463 1.351 . S
C462 N465 1.368 . S
C462 H467 0.931 . S
C463 C462 1.351 . S
C463 N464 1.373 . S
C463 H491 0.930 . S
N464 C463 1.373 . S
N464 C466 1.340 . S
N465 C462 1.368 . S
N465 C466 1.321 . S
N465 Co468 2.135 . S
C466 N464 1.340 . S
C466 N465 1.321 . S
C466 H490 0.930 . S
H467 C462 0.931 . S
Co468 N465 2.135 . S
Co468 N471 2.121 . S
Co468 O476 2.055 . S
Co468 O479 2.039 . S
Co468 N482 2.140 . S
C469 O470 1.227 . S
C469 O479 1.265 . S
O470 C469 1.227 . S
N471 Co468 2.121 . S
N471 C473 1.375 . S
N471 C474 1.313 . S
C472 C473 1.338 . S
C472 N475 1.377 . S
C472 H492 0.930 . S
C473 N471 1.375 . S
C473 C472 1.338 . S
C473 H477 0.931 . S
C474 N471 1.313 . S
C474 N475 1.344 . S
C474 H478 0.930 . S
N475 C472 1.377 . S
N475 C474 1.344 . S
O476 Co468 2.055 . S
O476 C480 1.253 . S
H477 C473 0.931 . S
H478 C474 0.930 . S
O479 Co468 2.039 . S
O479 C469 1.265 . S
C480 O476 1.253 . S
C480 O481 1.227 . S
O481 C480 1.227 . S
N482 Co468 2.140 . S
N482 C485 1.346 . S
N482 C486 1.345 . S
C483 C484 1.387 . S
C483 C487 1.391 . S
C484 C483 1.387 . S
C484 C485 1.369 . S
C484 H493 0.929 . S
C485 N482 1.346 . S
C485 C484 1.369 . S
C485 H488 0.928 . S
C486 N482 1.345 . S
C486 C487 1.371 . S
C486 H489 0.931 . S
C487 C483 1.391 . S
C487 C486 1.371 . S
C487 H494 0.930 . S
H488 C485 0.928 . S
H489 C486 0.931 . S
H490 C466 0.930 . S
H491 C463 0.930 . S
H492 C472 0.930 . S
H493 C484 0.929 . S
H494 C487 0.930 . S
C495 C496 1.351 . S
C495 N498 1.368 . S
C495 H500 0.931 . S
C496 C495 1.351 . S
C496 N497 1.373 . S
C496 H524 0.930 . S
N497 C496 1.373 . S
N497 C499 1.340 . S
N498 C495 1.368 . S
N498 C499 1.321 . S
N498 Co501 2.135 . S
C499 N497 1.340 . S
C499 N498 1.321 . S
C499 H523 0.930 . S
H500 C495 0.931 . S
Co501 N498 2.135 . S
Co501 N504 2.121 1_455 S
Co501 O509 2.055 . S
Co501 O512 2.039 . S
Co501 N515 2.140 . S
C502 O503 1.227 . S
C502 O512 1.265 . S
O503 C502 1.227 . S
N504 Co501 2.121 1_655 S
N504 C506 1.375 . S
N504 C507 1.313 . S
C505 C506 1.338 . S
C505 N508 1.377 . S
C505 H525 0.930 . S
C506 N504 1.375 . S
C506 C505 1.338 . S
C506 H510 0.931 . S
C507 N504 1.313 . S
C507 N508 1.344 . S
C507 H511 0.930 . S
N508 C505 1.377 . S
N508 C507 1.344 . S
O509 Co501 2.055 . S
O509 C513 1.253 . S
H510 C506 0.931 . S
H511 C507 0.930 . S
O512 Co501 2.039 . S
O512 C502 1.265 . S
C513 O509 1.253 . S
C513 O514 1.227 . S
O514 C513 1.227 . S
N515 Co501 2.140 . S
N515 C518 1.346 . S
N515 C519 1.345 1_455 S
C516 C517 1.387 1_655 S
C516 C520 1.391 . S
C517 C516 1.387 1_455 S
C517 C518 1.369 . S
C517 H526 0.929 . S
C518 N515 1.346 . S
C518 C517 1.369 . S
C518 H521 0.928 . S
C519 N515 1.345 1_655 S
C519 C520 1.371 . S
C519 H522 0.931 . S
C520 C516 1.391 . S
C520 C519 1.371 . S
C520 H527 0.930 . S
H521 C518 0.928 . S
H522 C519 0.931 . S
H523 C499 0.930 . S
H524 C496 0.930 . S
H525 C505 0.930 . S
H526 C517 0.929 . S
H527 C520 0.930 . S
C528 C529 1.369 . S
C528 C530 1.419 . S
C528 H532 0.930 . S
C529 C528 1.369 . S
C529 C538 1.429 . S
C530 C528 1.419 . S
C530 C531 1.363 . S
C530 H533 0.929 . S
C531 C530 1.363 . S
C531 C537 1.428 . S
H532 C528 0.930 . S
H533 C530 0.929 . S
S534 N535 1.613 . S
S534 N536 1.610 . S
N535 S534 1.613 . S
N535 C538 1.350 . S
N536 S534 1.610 . S
N536 C537 1.351 . S
C537 C531 1.428 . S
C537 N536 1.351 . S
C537 C538 1.434 . S
C538 C529 1.429 . S
C538 N535 1.350 . S
C538 C537 1.434 . S
C539 C540 1.369 . S
C539 C541 1.419 . S
C539 H543 0.930 . S
C540 C539 1.369 . S
C540 C549 1.429 . S
C541 C539 1.419 . S
C541 C542 1.363 . S
C541 H544 0.929 . S
C542 C541 1.363 . S
C542 C548 1.428 . S
H543 C539 0.930 . S
H544 C541 0.929 . S
S545 N546 1.613 . S
S545 N547 1.610 . S
N546 S545 1.613 . S
N546 C549 1.350 . S
N547 S545 1.610 . S
N547 C548 1.351 . S
C548 C542 1.428 . S
C548 N547 1.351 . S
C548 C549 1.434 . S
C549 C540 1.429 . S
C549 N546 1.350 . S
C549 C548 1.434 . S
C550 C551 1.369 . S
C550 C552 1.419 . S
C550 H554 0.930 1_655 S
C551 C550 1.369 . S
C551 C560 1.429 . S
C552 C550 1.419 . S
C552 C553 1.363 . S
C552 H555 0.932 . S
C553 C552 1.363 . S
C553 C559 1.428 . S
H554 C550 0.930 1_455 S
H555 C552 0.932 . S
S556 N557 1.613 . S
S556 N558 1.610 . S
N557 S556 1.613 . S
N557 C560 1.350 . S
N558 S556 1.610 . S
N558 C559 1.351 . S
C559 C553 1.428 . S
C559 N558 1.351 . S
C559 C560 1.434 . S
C560 C551 1.429 . S
C560 N557 1.350 . S
C560 C559 1.434 . S
C561 C562 1.369 . S
C561 C563 1.419 . S
C561 H565 0.930 1_565 S
C562 C561 1.369 . S
C562 C571 1.429 . S
C563 C561 1.419 . S
C563 C564 1.363 . S
C563 H566 0.929 1_565 S
C564 C563 1.363 . S
C564 C570 1.428 . S
H565 C561 0.930 1_545 S
H566 C563 0.929 1_545 S
S567 N568 1.613 . S
S567 N569 1.610 . S
N568 S567 1.613 . S
N568 C571 1.350 . S
N569 S567 1.610 . S
N569 C570 1.351 . S
C570 C564 1.428 . S
C570 N569 1.351 . S
C570 C571 1.434 . S
C571 C562 1.429 . S
C571 N568 1.350 . S
C571 C570 1.434 . S
C572 C573 1.369 . S
C572 C574 1.419 . S
C572 H576 0.930 . S
C573 C572 1.369 . S
C573 C582 1.429 . S
C574 C572 1.419 . S
C574 C575 1.363 . S
C574 H577 0.929 . S
C575 C574 1.363 . S
C575 C581 1.428 . S
H576 C572 0.930 . S
H577 C574 0.929 . S
S578 N579 1.613 . S
S578 N580 1.610 . S
N579 S578 1.613 . S
N579 C582 1.350 . S
N580 S578 1.610 . S
N580 C581 1.351 . S
C581 C575 1.428 . S
C581 N580 1.351 . S
C581 C582 1.434 . S
C582 C573 1.429 . S
C582 N579 1.350 . S
C582 C581 1.434 . S
C583 C584 1.369 . S
C583 C585 1.419 . S
C583 H587 0.930 1_545 S
C584 C583 1.369 . S
C584 C593 1.429 . S
C585 C583 1.419 . S
C585 C586 1.363 . S
C585 H588 0.929 . S
C586 C585 1.363 . S
C586 C592 1.428 . S
H587 C583 0.930 1_565 S
H588 C585 0.929 . S
S589 N590 1.613 . S
S589 N591 1.610 . S
N590 S589 1.613 . S
N590 C593 1.350 . S
N591 S589 1.610 . S
N591 C592 1.351 . S
C592 C586 1.428 . S
C592 N591 1.351 . S
C592 C593 1.434 . S
C593 C584 1.429 . S
C593 N590 1.350 . S
C593 C592 1.434 . S
C594 C595 1.369 . S
C594 C596 1.419 . S
C594 H598 0.930 . S
C595 C594 1.369 . S
C595 C604 1.429 . S
C596 C594 1.419 . S
C596 C597 1.363 . S
C596 H599 0.929 . S
C597 C596 1.363 . S
C597 C603 1.428 . S
H598 C594 0.930 . S
H599 C596 0.929 . S
S600 N601 1.613 . S
S600 N602 1.610 . S
N601 S600 1.613 . S
N601 C604 1.350 . S
N602 S600 1.610 . S
N602 C603 1.351 . S
C603 C597 1.428 . S
C603 N602 1.351 . S
C603 C604 1.434 . S
C604 C595 1.429 . S
C604 N601 1.350 . S
C604 C603 1.434 . S
C605 C606 1.369 . S
C605 C607 1.419 . S
C605 H609 0.930 . S
C606 C605 1.369 . S
C606 C615 1.429 . S
C607 C605 1.419 . S
C607 C608 1.363 . S
C607 H610 0.929 . S
C608 C607 1.363 . S
C608 C614 1.428 . S
H609 C605 0.930 . S
H610 C607 0.929 . S
S611 N612 1.613 . S
S611 N613 1.610 . S
N612 S611 1.613 . S
N612 C615 1.350 . S
N613 S611 1.610 . S
N613 C614 1.351 . S
C614 C608 1.428 . S
C614 N613 1.351 . S
C614 C615 1.434 . S
C615 C606 1.429 . S
C615 N612 1.350 . S
C615 C614 1.434 . S
C616 C617 1.369 . S
C616 C618 1.419 . S
C616 H620 0.930 . S
C617 C616 1.369 . S
C617 C626 1.429 . S
C618 C616 1.419 . S
C618 C619 1.363 . S
C618 H621 0.929 . S
C619 C618 1.363 . S
C619 C625 1.428 . S
H620 C616 0.930 . S
H621 C618 0.929 . S
S622 N623 1.613 . S
S622 N624 1.610 . S
N623 S622 1.613 . S
N623 C626 1.350 . S
N624 S622 1.610 . S
N624 C625 1.351 . S
C625 C619 1.428 . S
C625 N624 1.351 . S
C625 C626 1.434 . S
C626 C617 1.429 . S
C626 N623 1.350 . S
C626 C625 1.434 . S
C627 C628 1.369 . S
C627 C629 1.419 . S
C627 H631 0.930 . S
C628 C627 1.369 . S
C628 C637 1.429 . S
C629 C627 1.419 . S
C629 C630 1.363 . S
C629 H632 0.929 . S
C630 C629 1.363 . S
C630 C636 1.428 . S
H631 C627 0.930 . S
H632 C629 0.929 . S
S633 N634 1.613 . S
S633 N635 1.610 . S
N634 S633 1.613 . S
N634 C637 1.350 . S
N635 S633 1.610 . S
N635 C636 1.351 . S
C636 C630 1.428 . S
C636 N635 1.351 . S
C636 C637 1.434 . S
C637 C628 1.429 . S
C637 N634 1.350 . S
C637 C636 1.434 . S
C638 C639 1.369 . S
C638 C640 1.419 . S
C638 H642 0.930 . S
C639 C638 1.369 . S
C639 C648 1.429 . S
C640 C638 1.419 . S
C640 C641 1.363 . S
C640 H643 0.929 . S
C641 C640 1.363 . S
C641 C647 1.428 . S
H642 C638 0.930 . S
H643 C640 0.929 . S
S644 N645 1.613 . S
S644 N646 1.610 . S
N645 S644 1.613 . S
N645 C648 1.350 . S
N646 S644 1.610 . S
N646 C647 1.351 . S
C647 C641 1.428 . S
C647 N646 1.351 . S
C647 C648 1.434 . S
C648 C639 1.429 . S
C648 N645 1.350 . S
C648 C647 1.434 . S
C649 C650 1.369 . S
C649 C651 1.419 . S
C649 H653 0.930 1_545 S
C650 C649 1.369 . S
C650 C659 1.429 . S
C651 C649 1.419 . S
C651 C652 1.363 . S
C651 H654 0.929 . S
C652 C651 1.363 . S
C652 C658 1.428 . S
H653 C649 0.930 1_565 S
H654 C651 0.929 . S
S655 N656 1.613 . S
S655 N657 1.610 . S
N656 S655 1.613 . S
N656 C659 1.350 . S
N657 S655 1.610 . S
N657 C658 1.351 . S
C658 C652 1.428 . S
C658 N657 1.351 . S
C658 C659 1.434 . S
C659 C650 1.429 . S
C659 N656 1.350 . S
C659 C658 1.434 . S
C660 C661 1.369 . S
C660 C662 1.419 . S
C660 H664 0.930 1_655 S
C661 C660 1.369 . S
C661 C670 1.429 . S
C662 C660 1.419 . S
C662 C663 1.363 . S
C662 H665 0.929 1_655 S
C663 C662 1.363 . S
C663 C669 1.428 . S
H664 C660 0.930 1_455 S
H665 C662 0.929 1_455 S
S666 N667 1.613 . S
S666 N668 1.610 . S
N667 S666 1.613 . S
N667 C670 1.350 . S
N668 S666 1.610 . S
N668 C669 1.351 . S
C669 C663 1.428 . S
C669 N668 1.351 . S
C669 C670 1.434 . S
C670 C661 1.429 . S
C670 N667 1.350 . S
C670 C669 1.434 . S
C671 C672 1.369 . S
C671 C673 1.419 . S
C671 H675 0.930 1_565 S
C672 C671 1.369 . S
C672 C681 1.429 . S
C673 C671 1.419 . S
C673 C674 1.363 . S
C673 H676 0.929 . S
C674 C673 1.363 . S
C674 C680 1.428 . S
H675 C671 0.930 1_545 S
H676 C673 0.929 . S
S677 N678 1.613 . S
S677 N679 1.610 . S
N678 S677 1.613 . S
N678 C681 1.350 . S
N679 S677 1.610 . S
N679 C680 1.351 . S
C680 C674 1.428 . S
C680 N679 1.351 . S
C680 C681 1.434 . S
C681 C672 1.429 . S
C681 N678 1.350 . S
C681 C680 1.434 . S
C682 C683 1.369 . S
C682 C684 1.419 . S
C682 H686 0.930 . S
C683 C682 1.369 . S
C683 C692 1.429 . S
C684 C682 1.419 . S
C684 C685 1.363 . S
C684 H687 0.929 . S
C685 C684 1.363 . S
C685 C691 1.428 . S
H686 C682 0.930 . S
H687 C684 0.929 . S
S688 N689 1.613 . S
S688 N690 1.610 . S
N689 S688 1.613 . S
N689 C692 1.350 . S
N690 S688 1.610 . S
N690 C691 1.351 . S
C691 C685 1.428 . S
C691 N690 1.351 . S
C691 C692 1.434 . S
C692 C683 1.429 . S
C692 N689 1.350 . S
C692 C691 1.434 . S
C693 C694 1.369 . S
C693 C695 1.419 . S
C693 H697 0.930 . S
C694 C693 1.369 . S
C694 C703 1.429 . S
C695 C693 1.419 . S
C695 C696 1.363 . S
C695 H698 0.929 . S
C696 C695 1.363 . S
C696 C702 1.428 . S
H697 C693 0.930 . S
H698 C695 0.929 . S
S699 N700 1.613 . S
S699 N701 1.610 . S
N700 S699 1.613 . S
N700 C703 1.350 . S
N701 S699 1.610 . S
N701 C702 1.351 . S
C702 C696 1.428 . S
C702 N701 1.351 . S
C702 C703 1.434 . S
C703 C694 1.429 . S
C703 N700 1.350 . S
C703 C702 1.434 . S
C704 C705 1.369 . S
C704 C706 1.419 . S
C704 H708 0.930 . S
C705 C704 1.369 . S
C705 C714 1.429 . S
C706 C704 1.419 . S
C706 C707 1.363 . S
C706 H709 0.929 . S
C707 C706 1.363 . S
C707 C713 1.428 . S
H708 C704 0.930 . S
H709 C706 0.929 . S
S710 N711 1.613 . S
S710 N712 1.610 . S
N711 S710 1.613 . S
N711 C714 1.350 . S
N712 S710 1.610 . S
N712 C713 1.351 . S
C713 C707 1.428 . S
C713 N712 1.351 . S
C713 C714 1.434 . S
C714 C705 1.429 . S
C714 N711 1.350 . S
C714 C713 1.434 . S
C715 C716 1.369 . S
C715 C717 1.419 . S
C715 H719 0.930 . S
C716 C715 1.369 . S
C716 C725 1.429 . S
C717 C715 1.419 . S
C717 C718 1.363 . S
C717 H720 0.929 . S
C718 C717 1.363 . S
C718 C724 1.428 . S
H719 C715 0.930 . S
H720 C717 0.929 . S
S721 N722 1.613 . S
S721 N723 1.610 . S
N722 S721 1.613 . S
N722 C725 1.350 . S
N723 S721 1.610 . S
N723 C724 1.351 . S
C724 C718 1.428 . S
C724 N723 1.351 . S
C724 C725 1.434 . S
C725 C716 1.429 . S
C725 N722 1.350 . S
C725 C724 1.434 . S
C726 C727 1.369 . S
C726 C728 1.419 . S
C726 H730 0.930 . S
C727 C726 1.369 . S
C727 C736 1.429 . S
C728 C726 1.419 . S
C728 C729 1.363 . S
C728 H731 0.929 . S
C729 C728 1.363 . S
C729 C735 1.428 . S
H730 C726 0.930 . S
H731 C728 0.929 . S
S732 N733 1.613 . S
S732 N734 1.610 . S
N733 S732 1.613 . S
N733 C736 1.350 . S
N734 S732 1.610 . S
N734 C735 1.351 . S
C735 C729 1.428 . S
C735 N734 1.351 . S
C735 C736 1.434 . S
C736 C727 1.429 . S
C736 N733 1.350 . S
C736 C735 1.434 . S
C737 C738 1.369 . S
C737 C739 1.419 . S
C737 H741 0.930 . S
C738 C737 1.369 . S
C738 C747 1.429 . S
C739 C737 1.419 . S
C739 C740 1.363 . S
C739 H742 0.929 . S
C740 C739 1.363 . S
C740 C746 1.428 . S
H741 C737 0.930 . S
H742 C739 0.929 . S
S743 N744 1.613 . S
S743 N745 1.610 . S
N744 S743 1.613 . S
N744 C747 1.350 . S
N745 S743 1.610 . S
N745 C746 1.351 . S
C746 C740 1.428 . S
C746 N745 1.351 . S
C746 C747 1.434 . S
C747 C738 1.429 . S
C747 N744 1.350 . S
C747 C746 1.434 . S
C748 C749 1.369 . S
C748 C750 1.419 . S
C748 H752 0.930 . S
C749 C748 1.369 . S
C749 C758 1.429 . S
C750 C748 1.419 . S
C750 C751 1.363 . S
C750 H753 0.929 . S
C751 C750 1.363 . S
C751 C757 1.428 . S
H752 C748 0.930 . S
H753 C750 0.929 . S
S754 N755 1.613 . S
S754 N756 1.610 . S
N755 S754 1.613 . S
N755 C758 1.350 . S
N756 S754 1.610 . S
N756 C757 1.351 . S
C757 C751 1.428 . S
C757 N756 1.351 . S
C757 C758 1.434 . S
C758 C749 1.429 . S
C758 N755 1.350 . S
C758 C757 1.434 . S
C759 C760 1.369 . S
C759 C761 1.419 . S
C759 H763 0.930 . S
C760 C759 1.369 . S
C760 C769 1.429 . S
C761 C759 1.419 . S
C761 C762 1.363 . S
C761 H764 0.929 . S
C762 C761 1.363 . S
C762 C768 1.428 . S
H763 C759 0.930 . S
H764 C761 0.929 . S
S765 N766 1.613 . S
S765 N767 1.610 . S
N766 S765 1.613 . S
N766 C769 1.350 . S
N767 S765 1.610 . S
N767 C768 1.351 . S
C768 C762 1.428 . S
C768 N767 1.351 . S
C768 C769 1.434 . S
C769 C760 1.429 . S
C769 N766 1.350 . S
C769 C768 1.434 . S
C770 C771 1.369 . S
C770 C772 1.419 . S
C770 H774 0.930 . S
C771 C770 1.369 . S
C771 C780 1.429 . S
C772 C770 1.419 . S
C772 C773 1.363 . S
C772 H775 0.929 . S
C773 C772 1.363 . S
C773 C779 1.428 . S
H774 C770 0.930 . S
H775 C772 0.929 . S
S776 N777 1.613 . S
S776 N778 1.610 . S
N777 S776 1.613 . S
N777 C780 1.350 . S
N778 S776 1.610 . S
N778 C779 1.351 . S
C779 C773 1.428 . S
C779 N778 1.351 . S
C779 C780 1.434 . S
C780 C771 1.429 . S
C780 N777 1.350 . S
C780 C779 1.434 . S
C781 C782 1.369 . S
C781 C783 1.419 . S
C781 H785 0.930 . S
C782 C781 1.369 . S
C782 C791 1.429 . S
C783 C781 1.419 . S
C783 C784 1.363 . S
C783 H786 0.929 . S
C784 C783 1.363 . S
C784 C790 1.428 . S
H785 C781 0.930 . S
H786 C783 0.929 . S
S787 N788 1.613 . S
S787 N789 1.610 . S
N788 S787 1.613 . S
N788 C791 1.350 . S
N789 S787 1.610 . S
N789 C790 1.351 . S
C790 C784 1.428 . S
C790 N789 1.351 . S
C790 C791 1.434 . S
C791 C782 1.429 . S
C791 N788 1.350 . S
C791 C790 1.434 . S
C792 C793 1.369 1_556 S
C792 C794 1.419 . S
C792 H796 0.930 . S
C793 C792 1.369 1_554 S
C793 C802 1.429 1_545 S
C794 C792 1.419 . S
C794 C795 1.363 1_545 S
C794 H797 0.929 . S
C795 C794 1.363 1_565 S
C795 C801 1.428 1_556 S
H796 C792 0.930 . S
H797 C794 0.929 . S
S798 N799 1.613 . S
S798 N800 1.610 . S
N799 S798 1.613 . S
N799 C802 1.350 . S
N800 S798 1.610 . S
N800 C801 1.351 . S
C801 C795 1.428 1_554 S
C801 N800 1.351 . S
C801 C802 1.434 . S
C802 C793 1.429 1_565 S
C802 N799 1.350 . S
C802 C801 1.434 . S
C803 C804 1.369 . S
C803 C805 1.419 1_554 S
C803 H807 0.930 . S
C804 C803 1.369 . S
C804 C813 1.429 . S
C805 C803 1.419 1_556 S
C805 C806 1.363 . S
C805 H808 0.929 . S
C806 C805 1.363 . S
C806 C812 1.428 . S
H807 C803 0.930 . S
H808 C805 0.929 . S
S809 N810 1.613 1_556 S
S809 N811 1.610 . S
N810 S809 1.613 1_554 S
N810 C813 1.350 . S
N811 S809 1.610 . S
N811 C812 1.351 . S
C812 C806 1.428 . S
C812 N811 1.351 . S
C812 C813 1.434 1_556 S
C813 C804 1.429 . S
C813 N810 1.350 . S
C813 C812 1.434 1_554 S
C814 C815 1.369 1_455 S
C814 C816 1.420 . S
C814 H818 0.930 . S
C815 C814 1.369 1_655 S
C815 C824 1.429 1_554 S
C816 C814 1.420 . S
C816 C817 1.361 1_554 S
C816 H819 0.929 . S
C817 C816 1.361 1_556 S
C817 C823 1.428 1_455 S
H818 C814 0.930 . S
H819 C816 0.929 . S
S820 N821 1.613 . S
S820 N822 1.610 . S
N821 S820 1.613 . S
N821 C824 1.350 . S
N822 S820 1.610 . S
N822 C823 1.351 . S
C823 C817 1.428 1_655 S
C823 N822 1.351 . S
C823 C824 1.434 . S
C824 C815 1.429 1_556 S
C824 N821 1.350 . S
C824 C823 1.434 . S
C825 C826 1.369 1_455 S
C825 C827 1.419 1_545 S
C825 H829 0.930 . S
C826 C825 1.369 1_655 S
C826 C835 1.429 1_556 S
C827 C825 1.419 1_565 S
C827 C828 1.363 1_556 S
C827 H830 0.929 . S
C828 C827 1.363 1_554 S
C828 C834 1.428 1_455 S
H829 C825 0.930 . S
H830 C827 0.929 . S
S831 N832 1.613 1_565 S
S831 N833 1.610 . S
N832 S831 1.613 1_545 S
N832 C835 1.350 . S
N833 S831 1.610 . S
N833 C834 1.351 . S
C834 C828 1.428 1_655 S
C834 N833 1.351 . S
C834 C835 1.434 1_565 S
C835 C826 1.429 1_554 S
C835 N832 1.350 . S
C835 C834 1.434 1_545 S
C836 C837 1.369 . S
C836 C838 1.419 1_655 S
C836 H840 0.931 . S
C837 C836 1.369 . S
C837 C846 1.429 1_545 S
C838 C836 1.419 1_455 S
C838 C839 1.363 1_545 S
C838 H841 0.929 . S
C839 C838 1.363 1_565 S
C839 C845 1.431 . S
H840 C836 0.931 . S
H841 C838 0.929 . S
S842 N843 1.613 . S
S842 N844 1.610 . S
N843 S842 1.613 . S
N843 C846 1.350 . S
N844 S842 1.610 . S
N844 C845 1.351 1_655 S
C845 C839 1.431 . S
C845 N844 1.351 1_455 S
C845 C846 1.431 1_455 S
C846 C837 1.429 1_565 S
C846 N843 1.350 . S
C846 C845 1.431 1_655 S
C847 C848 1.369 . S
C847 C849 1.419 1_545 S
C847 H851 0.931 . S
C848 C847 1.369 . S
C848 C857 1.429 . S
C849 C847 1.419 1_565 S
C849 C850 1.363 . S
C849 H852 0.929 . S
C850 C849 1.363 . S
C850 C856 1.426 . S
H851 C847 0.931 . S
H852 C849 0.929 . S
S853 N854 1.613 . S
S853 N855 1.610 . S
N854 S853 1.613 . S
N854 C857 1.350 . S
N855 S853 1.610 . S
N855 C856 1.351 1_545 S
C856 C850 1.426 . S
C856 N855 1.351 1_565 S
C856 C857 1.436 1_565 S
C857 C848 1.429 . S
C857 N854 1.350 . S
C857 C856 1.436 1_545 S
C858 C859 1.369 . S
C858 C860 1.419 . S
C858 H862 0.930 . S
C859 C858 1.369 . S
C859 C868 1.429 . S
C860 C858 1.419 . S
C860 C861 1.363 . S
C860 H863 0.929 . S
C861 C860 1.363 . S
C861 C867 1.428 . S
H862 C858 0.930 . S
H863 C860 0.929 . S
S864 N865 1.613 . S
S864 N866 1.610 . S
N865 S864 1.613 . S
N865 C868 1.350 . S
N866 S864 1.610 . S
N866 C867 1.351 . S
C867 C861 1.428 . S
C867 N866 1.351 . S
C867 C868 1.434 . S
C868 C859 1.429 . S
C868 N865 1.350 . S
C868 C867 1.434 . S
C869 C870 1.369 . S
C869 C871 1.419 . S
C869 H873 0.930 . S
C870 C869 1.369 . S
C870 C879 1.429 1_455 S
C871 C869 1.419 . S
C871 C872 1.363 1_455 S
C871 H874 0.929 . S
C872 C871 1.363 1_655 S
C872 C878 1.428 . S
H873 C869 0.930 . S
H874 C871 0.929 . S
S875 N876 1.613 . S
S875 N877 1.610 . S
N876 S875 1.613 . S
N876 C879 1.350 . S
N877 S875 1.610 . S
N877 C878 1.351 . S
C878 C872 1.428 . S
C878 N877 1.351 . S
C878 C879 1.434 . S
C879 C870 1.429 1_655 S
C879 N876 1.350 . S
C879 C878 1.434 . S
C880 C881 1.369 . S
C880 C882 1.419 . S
C880 H884 0.930 . S
C881 C880 1.369 . S
C881 C890 1.429 . S
C882 C880 1.419 . S
C882 C883 1.363 . S
C882 H885 0.929 . S
C883 C882 1.363 . S
C883 C889 1.428 . S
H884 C880 0.930 . S
H885 C882 0.929 . S
S886 N887 1.613 . S
S886 N888 1.610 . S
N887 S886 1.613 . S
N887 C890 1.350 . S
N888 S886 1.610 . S
N888 C889 1.351 . S
C889 C883 1.428 . S
C889 N888 1.351 . S
C889 C890 1.434 . S
C890 C881 1.429 . S
C890 N887 1.350 . S
C890 C889 1.434 . S
C891 C892 1.369 . S
C891 C893 1.419 . S
C891 H895 0.930 . S
C892 C891 1.369 . S
C892 C901 1.429 . S
C893 C891 1.419 . S
C893 C894 1.363 . S
C893 H896 0.929 . S
C894 C893 1.363 . S
C894 C900 1.428 . S
H895 C891 0.930 . S
H896 C893 0.929 . S
S897 N898 1.613 . S
S897 N899 1.610 . S
N898 S897 1.613 . S
N898 C901 1.350 . S
N899 S897 1.610 . S
N899 C900 1.351 . S
C900 C894 1.428 . S
C900 N899 1.351 . S
C900 C901 1.434 . S
C901 C892 1.429 . S
C901 N898 1.350 . S
C901 C900 1.434 . S
C902 C903 1.369 . S
C902 C904 1.419 . S
C902 H906 0.930 . S
C903 C902 1.369 . S
C903 C912 1.429 . S
C904 C902 1.419 . S
C904 C905 1.363 . S
C904 H907 0.929 . S
C905 C904 1.363 . S
C905 C911 1.428 . S
H906 C902 0.930 . S
H907 C904 0.929 . S
S908 N909 1.633 . S
S908 N910 1.619 . S
N909 S908 1.633 . S
N909 C912 1.350 . S
N910 S908 1.619 . S
N910 C911 1.351 . S
C911 C905 1.428 . S
C911 N910 1.351 . S
C911 C912 1.434 . S
C912 C903 1.429 . S
C912 N909 1.350 . S
C912 C911 1.434 . S
C913 C914 1.369 . S
C913 C915 1.419 . S
C913 H917 0.930 . S
C914 C913 1.369 . S
C914 C923 1.429 . S
C915 C913 1.419 . S
C915 C916 1.363 . S
C915 H918 0.929 . S
C916 C915 1.363 . S
C916 C922 1.428 . S
H917 C913 0.930 . S
H918 C915 0.929 . S
S919 N920 1.613 . S
S919 N921 1.610 . S
N920 S919 1.613 . S
N920 C923 1.350 . S
N921 S919 1.610 . S
N921 C922 1.351 . S
C922 C916 1.428 . S
C922 N921 1.351 . S
C922 C923 1.434 . S
C923 C914 1.429 . S
C923 N920 1.350 . S
C923 C922 1.434 . S
C924 C925 1.369 . S
C924 C926 1.419 . S
C924 H928 0.930 . S
C925 C924 1.369 . S
C925 C934 1.429 . S
C926 C924 1.419 . S
C926 C927 1.363 . S
C926 H929 0.929 . S
C927 C926 1.363 . S
C927 C933 1.428 . S
H928 C924 0.930 . S
H929 C926 0.929 . S
S930 N931 1.613 1_545 S
S930 N932 1.610 1_545 S
N931 S930 1.613 1_565 S
N931 C934 1.350 . S
N932 S930 1.610 1_565 S
N932 C933 1.351 . S
C933 C927 1.428 . S
C933 N932 1.351 . S
C933 C934 1.434 . S
C934 C925 1.429 . S
C934 N931 1.350 . S
C934 C933 1.434 . S
C935 C936 1.369 . S
C935 C937 1.419 . S
C935 H939 0.930 . S
C936 C935 1.369 . S
C936 C945 1.429 . S
C937 C935 1.419 . S
C937 C938 1.363 . S
C937 H940 0.929 . S
C938 C937 1.363 . S
C938 C944 1.428 . S
H939 C935 0.930 . S
H940 C937 0.929 . S
S941 N942 1.613 . S
S941 N943 1.610 . S
N942 S941 1.613 . S
N942 C945 1.350 . S
N943 S941 1.610 . S
N943 C944 1.351 . S
C944 C938 1.428 . S
C944 N943 1.351 . S
C944 C945 1.434 . S
C945 C936 1.429 . S
C945 N942 1.350 . S
C945 C944 1.434 . S
C946 C947 1.369 . S
C946 C948 1.419 . S
C946 H950 0.930 . S
C947 C946 1.369 . S
C947 C956 1.429 . S
C948 C946 1.419 . S
C948 C949 1.363 . S
C948 H951 0.929 . S
C949 C948 1.363 . S
C949 C955 1.428 . S
H950 C946 0.930 . S
H951 C948 0.929 . S
S952 N953 1.613 . S
S952 N954 1.610 . S
N953 S952 1.613 . S
N953 C956 1.350 . S
N954 S952 1.610 . S
N954 C955 1.351 . S
C955 C949 1.428 . S
C955 N954 1.351 . S
C955 C956 1.434 . S
C956 C947 1.429 . S
C956 N953 1.350 . S
C956 C955 1.434 . S
C957 C958 1.369 . S
C957 C959 1.419 . S
C957 H961 0.930 . S
C958 C957 1.369 . S
C958 C967 1.429 . S
C959 C957 1.419 . S
C959 C960 1.363 . S
C959 H962 0.929 . S
C960 C959 1.363 . S
C960 C966 1.428 . S
H961 C957 0.930 . S
H962 C959 0.929 . S
S963 N964 1.613 . S
S963 N965 1.610 . S
N964 S963 1.613 . S
N964 C967 1.350 . S
N965 S963 1.610 . S
N965 C966 1.351 . S
C966 C960 1.428 . S
C966 N965 1.351 . S
C966 C967 1.434 . S
C967 C958 1.429 . S
C967 N964 1.350 . S
C967 C966 1.434 . S
C529 N13 0.994 . S
C531 C54 0.989 . S
C540 C87 0.990 . S
C542 N46 0.994 . S
C551 C120 0.986 . S
C553 N79 0.990 . S
C562 N112 0.991 . S
C564 C21 0.989 . S
C573 C252 0.991 . S
C575 N145 0.993 . S
C584 C153 0.985 . S
C586 N178 0.990 . S
C595 C186 0.988 . S
C597 N211 0.990 . S
C606 N244 0.994 . S
C608 C219 0.990 . S
C617 N277 0.991 . S
C619 C318 0.990 . S
C628 N310 0.991 . S
C630 C351 0.985 . S
C639 C384 0.984 . S
C641 N343 0.990 . S
C650 C285 0.988 . S
C652 N376 0.990 . S
C661 C516 0.990 . S
C663 N409 0.991 . S
C672 C417 0.987 . S
C674 N442 0.990 . S
C683 N475 0.991 . S
C685 C450 0.989 . S
C694 N508 0.990 . S
C696 C483 0.985 . S
C705 N2 1.903 . S
C707 N68 1.900 . S
C716 N35 1.903 . S
C718 N101 1.900 . S
C727 N200 1.900 . S
C729 N134 1.900 . S
C738 N233 1.901 . S
C740 N167 1.904 . S
C749 N332 1.905 . S
C751 N266 1.902 . S
C760 N299 1.902 . S
C762 N365 1.900 . S
C771 N398 1.901 . S
C773 N464 1.900 . S
C782 N431 1.899 . S
C784 N497 1.901 . S
C793 C18 1.843 . S
C795 C282 1.851 . S
C804 C51 1.849 . S
C806 C315 1.846 . S
C815 C84 1.848 . S
C817 C348 1.847 . S
C826 C381 1.851 . S
C828 C117 1.844 . S
C837 C414 1.844 . S
C839 C150 1.850 . S
C848 C183 1.846 . S
C850 C447 1.848 . S
C859 C216 1.845 . S
C861 C480 1.849 . S
C870 C513 1.843 . S
C872 C249 1.851 . S
C881 C172 1.587 . S
C883 C7 1.587 . S
C892 C205 1.588 . S
C894 C40 1.589 . S
C903 C73 1.589 . S
C905 C238 1.589 . S
C914 C139 1.587 . S
C916 C106 1.588 . S
C925 C271 1.588 . S
C927 C436 1.589 . S
C936 C469 1.589 . S
C938 C304 1.589 . S
C947 C502 1.587 . S
C949 C337 1.588 . S
C958 C370 1.587 . S
C960 C403 1.588 . S
