# Generated by pormake.
# Topology pcb, (4)-cn, num edge types: 1
# Building blocks:
#     Node 0, Type 0, BuildingBlock: QUQFOY_clean_sbu_1, # of connection points: 4
#     Node 1, Type 0, BuildingBlock: QUQFOY_clean_sbu_1, # of connection points: 4
#     Node 2, Type 0, BuildingBlock: QUQFOY_clean_sbu_1, # of connection points: 4
#     Node 3, Type 0, BuildingBlock: QUQFOY_clean_sbu_1, # of connection points: 4
#     Node 4, Type 0, BuildingBlock: QUQFOY_clean_sbu_1, # of connection points: 4
#     Node 5, Type 0, BuildingBlock: QUQFOY_clean_sbu_1, # of connection points: 4
#     Node 6, Type 0, BuildingBlock: QUQFOY_clean_sbu_1, # of connection points: 4
#     Node 7, Type 0, BuildingBlock: QUQFOY_clean_sbu_1, # of connection points: 4
#     Node 8, Type 0, BuildingBlock: QUQFOY_clean_sbu_1, # of connection points: 4
#     Node 9, Type 0, BuildingBlock: QUQFOY_clean_sbu_1, # of connection points: 4
#     Node 10, Type 0, BuildingBlock: QUQFOY_clean_sbu_1, # of connection points: 4
#     Node 11, Type 0, BuildingBlock: QUQFOY_clean_sbu_1, # of connection points: 4
#     Node 12, Type 0, BuildingBlock: QUQFOY_clean_sbu_1, # of connection points: 4
#     Node 13, Type 0, BuildingBlock: QUQFOY_clean_sbu_1, # of connection points: 4
#     Node 14, Type 0, BuildingBlock: QUQFOY_clean_sbu_1, # of connection points: 4
#     Node 15, Type 0, BuildingBlock: QUQFOY_clean_sbu_1, # of connection points: 4
#     Edge 16, Type (0, 0), BuildingBlock: MIFKUJ_clean_linker_0, # of connection points: 2
#     Edge 17, Type (0, 0), BuildingBlock: MIFKUJ_clean_linker_0, # of connection points: 2
#     Edge 18, Type (0, 0), BuildingBlock: MIFKUJ_clean_linker_0, # of connection points: 2
#     Edge 19, Type (0, 0), BuildingBlock: MIFKUJ_clean_linker_0, # of connection points: 2
#     Edge 20, Type (0, 0), BuildingBlock: MIFKUJ_clean_linker_0, # of connection points: 2
#     Edge 21, Type (0, 0), BuildingBlock: MIFKUJ_clean_linker_0, # of connection points: 2
#     Edge 22, Type (0, 0), BuildingBlock: MIFKUJ_clean_linker_0, # of connection points: 2
#     Edge 23, Type (0, 0), BuildingBlock: MIFKUJ_clean_linker_0, # of connection points: 2
#     Edge 24, Type (0, 0), BuildingBlock: MIFKUJ_clean_linker_0, # of connection points: 2
#     Edge 25, Type (0, 0), BuildingBlock: MIFKUJ_clean_linker_0, # of connection points: 2
#     Edge 26, Type (0, 0), BuildingBlock: MIFKUJ_clean_linker_0, # of connection points: 2
#     Edge 27, Type (0, 0), BuildingBlock: MIFKUJ_clean_linker_0, # of connection points: 2
#     Edge 28, Type (0, 0), BuildingBlock: MIFKUJ_clean_linker_0, # of connection points: 2
#     Edge 29, Type (0, 0), BuildingBlock: MIFKUJ_clean_linker_0, # of connection points: 2
#     Edge 30, Type (0, 0), BuildingBlock: MIFKUJ_clean_linker_0, # of connection points: 2
#     Edge 31, Type (0, 0), BuildingBlock: MIFKUJ_clean_linker_0, # of connection points: 2
#     Edge 32, Type (0, 0), BuildingBlock: MIFKUJ_clean_linker_0, # of connection points: 2
#     Edge 33, Type (0, 0), BuildingBlock: MIFKUJ_clean_linker_0, # of connection points: 2
#     Edge 34, Type (0, 0), BuildingBlock: MIFKUJ_clean_linker_0, # of connection points: 2
#     Edge 35, Type (0, 0), BuildingBlock: MIFKUJ_clean_linker_0, # of connection points: 2
#     Edge 36, Type (0, 0), BuildingBlock: MIFKUJ_clean_linker_0, # of connection points: 2
#     Edge 37, Type (0, 0), BuildingBlock: MIFKUJ_clean_linker_0, # of connection points: 2
#     Edge 38, Type (0, 0), BuildingBlock: MIFKUJ_clean_linker_0, # of connection points: 2
#     Edge 39, Type (0, 0), BuildingBlock: MIFKUJ_clean_linker_0, # of connection points: 2
#     Edge 40, Type (0, 0), BuildingBlock: MIFKUJ_clean_linker_0, # of connection points: 2
#     Edge 41, Type (0, 0), BuildingBlock: MIFKUJ_clean_linker_0, # of connection points: 2
#     Edge 42, Type (0, 0), BuildingBlock: MIFKUJ_clean_linker_0, # of connection points: 2
#     Edge 43, Type (0, 0), BuildingBlock: MIFKUJ_clean_linker_0, # of connection points: 2
#     Edge 44, Type (0, 0), BuildingBlock: MIFKUJ_clean_linker_0, # of connection points: 2
#     Edge 45, Type (0, 0), BuildingBlock: MIFKUJ_clean_linker_0, # of connection points: 2
#     Edge 46, Type (0, 0), BuildingBlock: MIFKUJ_clean_linker_0, # of connection points: 2
#     Edge 47, Type (0, 0), BuildingBlock: MIFKUJ_clean_linker_0, # of connection points: 2
# Relax obj value: 0.298
# Max RMSD: 0.245
# Mean RMSD: 0.193
data_MOF--net-pcb--node1-QUQFOY_clean_sbu_1--edge1-MIFKUJ_clean_linker_0
_symmetry_space_group_name_H-M    P1
_symmetry_Int_Tables_number       1
_symmetry_cell_setting            triclinic
loop_
_symmetry_equiv_pos_as_xyz
'x, y, z'
_cell_length_a     58.446156
_cell_length_b     62.506202
_cell_length_c     62.834734
_cell_angle_alpha  94.399101
_cell_angle_beta   93.741144
_cell_angle_gamma 97.734101
loop_
_atom_site_label
_atom_site_type_symbol
_atom_site_fract_x
_atom_site_fract_y
_atom_site_fract_z
_atom_type_partial_charge
O0 O 0.1421 0.15157 0.15725 0.0
Cd1 Cd 0.17469 0.14617 0.14972 0.0
Cd2 Cd 0.15572 0.13891 0.10975 0.0
O3 O 0.12916 0.15206 0.12363 0.0
O4 O 0.1961 0.16068 0.1737 0.0
O5 O 0.19548 0.17177 0.14099 0.0
C6 C 0.20375 0.17453 0.16075 0.0
C7 C 0.16394 0.14816 0.07557 0.0
C8 C 0.12635 0.15482 0.14348 0.0
C9 C 0.17276 0.10137 0.13023 0.0
O10 O 0.1608 0.10766 0.11493 0.0
O11 O 0.18149 0.11474 0.1458 0.0
O12 O 0.14524 0.1359 0.07895 0.0
O13 O 0.17799 0.15589 0.0919 0.0
O14 O 0.84304 0.15439 0.20224 0.0
Cd15 Cd 0.85376 0.1865 0.19889 0.0
Cd16 Cd 0.85046 0.17468 0.15683 0.0
O17 O 0.83533 0.14603 0.16758 0.0
O18 O 0.84335 0.20385 0.22311 0.0
O19 O 0.82954 0.20415 0.18936 0.0
C20 C 0.82901 0.21047 0.2094 0.0
C21 C 0.83674 0.18359 0.12323 0.0
C22 C 0.83524 0.14062 0.18669 0.0
C23 C 0.89804 0.19123 0.17906 0.0
O24 O 0.8859 0.18266 0.16228 0.0
O25 O 0.88849 0.19539 0.19617 0.0
O26 O 0.84737 0.16708 0.1254 0.0
O27 O 0.83307 0.19497 0.14037 0.0
O28 O 0.86085 0.86712 0.20742 0.0
Cd29 Cd 0.82641 0.87059 0.2064 0.0
Cd30 Cd 0.82933 0.87394 0.1642 0.0
O31 O 0.86057 0.8634 0.17227 0.0
O32 O 0.81131 0.85125 0.22638 0.0
O33 O 0.80524 0.84576 0.19098 0.0
C34 C 0.80191 0.83909 0.20966 0.0
C35 C 0.8145 0.86384 0.12884 0.0
C36 C 0.87083 0.86271 0.19062 0.0
C37 C 0.8183 0.91266 0.19302 0.0
O38 O 0.82323 0.90457 0.17499 0.0
O39 O 0.81743 0.90131 0.20893 0.0
O40 O 0.83215 0.87846 0.13358 0.0
O41 O 0.8051 0.85441 0.14431 0.0
O42 O 0.16157 0.86906 0.17047 0.0
Cd43 Cd 0.15125 0.83911 0.18079 0.0
Cd44 Cd 0.13616 0.82823 0.13997 0.0
O45 O 0.1458 0.86089 0.13754 0.0
O46 O 0.16971 0.83714 0.208 0.0
O47 O 0.17139 0.81577 0.17846 0.0
C48 C 0.17819 0.82138 0.19834 0.0
C49 C 0.14809 0.80565 0.11285 0.0
C50 C 0.15667 0.87465 0.15189 0.0
C51 C 0.10094 0.82292 0.17257 0.0
O52 O 0.1053 0.81913 0.1532 0.0
O53 O 0.11699 0.8315 0.18644 0.0
O54 O 0.13025 0.8154 0.10986 0.0
O55 O 0.15898 0.80813 0.13162 0.0
O56 O 0.15225 0.77225 0.88685 0.0
Cd57 Cd 0.13968 0.77874 0.85706 0.0
Cd58 Cd 0.15497 0.82041 0.87139 0.0
O59 O 0.17091 0.80527 0.89534 0.0
O60 O 0.14461 0.75646 0.83391 0.0
O61 O 0.1626 0.79028 0.83756 0.0
C62 C 0.1594 0.77132 0.82727 0.0
C63 C 0.17422 0.8512 0.85787 0.0
C64 C 0.1659 0.78568 0.8996 0.0
C65 C 0.1031 0.80621 0.86261 0.0
O66 O 0.1195 0.82049 0.87087 0.0
O67 O 0.10736 0.78799 0.85467 0.0
O68 O 0.16776 0.8518 0.87709 0.0
O69 O 0.17083 0.8328 0.84658 0.0
O70 O 0.14881 0.14308 0.80521 0.0
Cd71 Cd 0.1819 0.13559 0.81057 0.0
Cd72 Cd 0.15756 0.09636 0.81359 0.0
O73 O 0.13047 0.10976 0.80006 0.0
O74 O 0.20039 0.16353 0.80614 0.0
O75 O 0.20119 0.13375 0.78503 0.0
C76 C 0.20779 0.15424 0.78949 0.0
C77 C 0.16288 0.06107 0.80254 0.0
C78 C 0.13034 0.13005 0.80006 0.0
C79 C 0.18212 0.11969 0.85375 0.0
O80 O 0.16595 0.10512 0.84571 0.0
O81 O 0.19303 0.13228 0.84178 0.0
O82 O 0.14514 0.06513 0.81243 0.0
O83 O 0.17751 0.07722 0.79815 0.0
O84 O 0.89859 0.18753 0.83275 0.0
Cd85 Cd 0.86409 0.18033 0.83754 0.0
Cd86 Cd 0.8803 0.17953 0.87871 0.0
O87 O 0.91187 0.18807 0.86645 0.0
O88 O 0.84796 0.1878 0.81104 0.0
O89 O 0.84436 0.20379 0.8431 0.0
C90 C 0.83901 0.20189 0.82269 0.0
C91 C 0.87263 0.19654 0.9114 0.0
C92 C 0.91546 0.18997 0.8469 0.0
C93 C 0.85434 0.13806 0.85637 0.0
O94 O 0.86556 0.14752 0.87325 0.0
O95 O 0.85134 0.14841 0.84005 0.0
O96 O 0.88767 0.1833 0.91019 0.0
O97 O 0.86221 0.20078 0.89376 0.0
O98 O 0.8515 0.83233 0.86785 0.0
Cd99 Cd 0.81666 0.8343 0.86531 0.0
Cd100 Cd 0.83131 0.87673 0.87854 0.0
O101 O 0.86344 0.86723 0.87502 0.0
O102 O 0.80348 0.80806 0.84669 0.0
O103 O 0.80281 0.84129 0.83693 0.0
C104 C 0.79855 0.82058 0.83218 0.0
C105 C 0.82731 0.91175 0.8698 0.0
C106 C 0.86785 0.84803 0.87121 0.0
C107 C 0.80136 0.84922 0.90705 0.0
O108 O 0.81339 0.86711 0.90417 0.0
O109 O 0.79939 0.83338 0.89284 0.0
O110 O 0.83929 0.90823 0.88676 0.0
O111 O 0.81761 0.89519 0.85733 0.0
O112 O 0.64628 0.65699 0.65341 0.0
Cd113 Cd 0.67943 0.64987 0.65038 0.0
Cd114 Cd 0.65992 0.63207 0.61 0.0
O115 O 0.63282 0.64704 0.62003 0.0
O116 O 0.69707 0.66552 0.67614 0.0
O117 O 0.70346 0.67414 0.64331 0.0
C118 C 0.70827 0.67787 0.66372 0.0
C119 C 0.66572 0.63224 0.57361 0.0
C120 C 0.63017 0.65548 0.63858 0.0
C121 C 0.6782 0.6021 0.64036 0.0
O122 O 0.66653 0.60417 0.62307 0.0
O123 O 0.68612 0.6186 0.65305 0.0
O124 O 0.64828 0.62064 0.58043 0.0
O125 O 0.68007 0.6442 0.58759 0.0
O126 O 0.34599 0.64976 0.68784 0.0
Cd127 Cd 0.35475 0.68205 0.68381 0.0
Cd128 Cd 0.34897 0.66878 0.6422 0.0
O129 O 0.33158 0.64188 0.65445 0.0
O130 O 0.34642 0.69873 0.70945 0.0
O131 O 0.32896 0.69906 0.67703 0.0
C132 C 0.33052 0.70518 0.69727 0.0
C133 C 0.33567 0.67705 0.60824 0.0
C134 C 0.33465 0.63648 0.67341 0.0
C135 C 0.3975 0.68578 0.66231 0.0
O136 O 0.38479 0.67504 0.64686 0.0
O137 O 0.38855 0.69234 0.67901 0.0
O138 O 0.34513 0.65995 0.611 0.0
O139 O 0.33283 0.68936 0.62504 0.0
O140 O 0.36142 0.36242 0.6916 0.0
Cd141 Cd 0.32714 0.36721 0.6902 0.0
Cd142 Cd 0.33101 0.37049 0.64883 0.0
O143 O 0.36116 0.35828 0.65648 0.0
O144 O 0.3111 0.3504 0.71167 0.0
O145 O 0.30487 0.34221 0.67656 0.0
C146 C 0.30085 0.33756 0.69577 0.0
C147 C 0.312 0.35723 0.61565 0.0
C148 C 0.37127 0.35745 0.67484 0.0
C149 C 0.3225 0.41023 0.67592 0.0
O150 O 0.32877 0.40242 0.65832 0.0
O151 O 0.31894 0.39831 0.69119 0.0
O152 O 0.30329 0.35163 0.63308 0.0
O153 O 0.33116 0.37027 0.61725 0.0
O154 O 0.66988 0.37264 0.69352 0.0
Cd155 Cd 0.65725 0.34063 0.69498 0.0
Cd156 Cd 0.65241 0.339 0.65042 0.0
O157 O 0.66911 0.37017 0.6583 0.0
O158 O 0.66878 0.33259 0.72316 0.0
O159 O 0.67849 0.31824 0.6922 0.0
C160 C 0.68036 0.31952 0.7129 0.0
C161 C 0.66162 0.32453 0.61701 0.0
C162 C 0.67399 0.38118 0.67625 0.0
C163 C 0.60924 0.32974 0.67487 0.0
O164 O 0.61808 0.33175 0.65703 0.0
O165 O 0.62205 0.33224 0.69224 0.0
O166 O 0.6494 0.34009 0.61886 0.0
O167 O 0.66839 0.31649 0.63425 0.0
O168 O 0.64321 0.28428 0.38543 0.0
Cd169 Cd 0.62871 0.28629 0.35495 0.0
Cd170 Cd 0.63842 0.32945 0.36473 0.0
O171 O 0.65555 0.31935 0.39117 0.0
O172 O 0.63607 0.26293 0.33411 0.0
O173 O 0.65025 0.29769 0.33407 0.0
C174 C 0.64923 0.27797 0.32589 0.0
C175 C 0.65383 0.36022 0.34858 0.0
C176 C 0.65416 0.3003 0.39729 0.0
C177 C 0.588 0.30928 0.35702 0.0
O178 O 0.60281 0.32568 0.36339 0.0
O179 O 0.59456 0.2912 0.35157 0.0
O180 O 0.64652 0.36164 0.36746 0.0
O181 O 0.65365 0.34111 0.3392 0.0
O182 O 0.64824 0.65015 0.30412 0.0
Cd183 Cd 0.67781 0.63566 0.30695 0.0
Cd184 Cd 0.64753 0.60107 0.30273 0.0
O185 O 0.62591 0.6209 0.28959 0.0
O186 O 0.70276 0.65972 0.30418 0.0
O187 O 0.69462 0.63133 0.28028 0.0
C188 C 0.70656 0.65 0.28621 0.0
C189 C 0.65144 0.56708 0.28698 0.0
C190 C 0.62906 0.64118 0.29476 0.0
C191 C 0.6715 0.61367 0.346 0.0
O192 O 0.65311 0.60393 0.33572 0.0
O193 O 0.68618 0.62543 0.33637 0.0
O194 O 0.63244 0.57086 0.2949 0.0
O195 O 0.66798 0.58303 0.28688 0.0
O196 O 0.39307 0.68447 0.31499 0.0
Cd197 Cd 0.35907 0.67846 0.322 0.0
Cd198 Cd 0.37793 0.68305 0.36237 0.0
O199 O 0.40728 0.69505 0.34803 0.0
O200 O 0.34061 0.684 0.29598 0.0
O201 O 0.34084 0.70306 0.32725 0.0
C202 C 0.33349 0.69955 0.30726 0.0
C203 C 0.36957 0.69944 0.39506 0.0
C204 C 0.41005 0.69234 0.32816 0.0
C205 C 0.35373 0.63886 0.34493 0.0
O206 O 0.36753 0.64991 0.35942 0.0
O207 O 0.34665 0.64765 0.32868 0.0
O208 O 0.38705 0.68905 0.39348 0.0
O209 O 0.35723 0.70151 0.37772 0.0
O210 O 0.33489 0.33124 0.36336 0.0
Cd211 Cd 0.30038 0.33463 0.36049 0.0
Cd212 Cd 0.31711 0.37633 0.37755 0.0
O213 O 0.34842 0.36542 0.37317 0.0
O214 O 0.28712 0.30858 0.34163 0.0
O215 O 0.28739 0.34183 0.33179 0.0
C216 C 0.28288 0.32115 0.32699 0.0
C217 C 0.31564 0.4124 0.37099 0.0
C218 C 0.35188 0.34616 0.36788 0.0
C219 C 0.28441 0.34783 0.40282 0.0
O220 O 0.29775 0.36549 0.40186 0.0
O221 O 0.2821 0.33315 0.3874 0.0
O222 O 0.32693 0.40726 0.38767 0.0
O223 O 0.305 0.39688 0.35772 0.0
H224 H 0.27417 0.34241 0.29108 0.0
H225 H 0.2658 0.32595 0.25402 0.0
H226 H 0.26679 0.26253 0.27637 0.0
H227 H 0.27469 0.27852 0.313 0.0
H228 H 0.29607 0.27268 0.24175 0.0
H229 H 0.21724 0.27722 0.26453 0.0
H230 H 0.18649 0.29798 0.276 0.0
H231 H 0.19108 0.33257 0.21961 0.0
H232 H 0.22208 0.31216 0.20796 0.0
H233 H 0.23345 0.1787 0.19616 0.0
H234 H 0.25371 0.21217 0.21461 0.0
H235 H 0.23009 0.24817 0.16355 0.0
H236 H 0.20958 0.21434 0.14484 0.0
H237 H 0.21881 0.26413 0.20199 0.0
H238 H 0.28802 0.2497 0.17403 0.0
H239 H 0.31815 0.22843 0.16217 0.0
H240 H 0.33289 0.21333 0.22671 0.0
H241 H 0.30263 0.23421 0.23896 0.0
C242 C 0.27228 0.32495 0.28806 0.0
C243 C 0.27517 0.31177 0.30496 0.0
C244 C 0.26763 0.31563 0.26692 0.0
C245 C 0.26605 0.2931 0.26254 0.0
C246 C 0.26827 0.27999 0.27945 0.0
C247 C 0.27264 0.28918 0.30042 0.0
C248 C 0.26217 0.28254 0.24051 0.0
C249 C 0.2793 0.27092 0.23283 0.0
C250 C 0.2407 0.28119 0.22846 0.0
C251 C 0.22217 0.29343 0.23555 0.0
C252 C 0.21185 0.28941 0.2547 0.0
C253 C 0.19434 0.30107 0.26121 0.0
C254 C 0.1869 0.31665 0.24859 0.0
C255 C 0.19691 0.32055 0.22941 0.0
C256 C 0.21444 0.30895 0.22284 0.0
C257 C 0.23308 0.19364 0.18854 0.0
C258 C 0.21987 0.19397 0.16915 0.0
C259 C 0.24482 0.21279 0.19903 0.0
C260 C 0.24356 0.23269 0.19039 0.0
C261 C 0.2314 0.23297 0.17041 0.0
C262 C 0.2198 0.21365 0.15972 0.0
C263 C 0.25219 0.25297 0.20399 0.0
C264 C 0.23601 0.26652 0.21016 0.0
C265 C 0.27464 0.25619 0.21459 0.0
C266 C 0.29301 0.2436 0.20742 0.0
C267 C 0.2976 0.24176 0.1857 0.0
C268 C 0.31472 0.22977 0.1789 0.0
C269 C 0.32744 0.21955 0.19368 0.0
C270 C 0.32306 0.2213 0.21529 0.0
C271 C 0.30596 0.23327 0.22218 0.0
H272 H 0.34068 0.21026 0.18838 0.0
H273 H 0.17334 0.32565 0.25365 0.0
H274 H 0.68406 0.3046 0.31053 0.0
H275 H 0.71117 0.29469 0.28484 0.0
H276 H 0.67424 0.22965 0.27567 0.0
H277 H 0.6475 0.23929 0.30198 0.0
H278 H 0.71733 0.22779 0.28324 0.0
H279 H 0.67492 0.26574 0.23536 0.0
H280 H 0.65579 0.2959 0.22307 0.0
H281 H 0.72105 0.33749 0.22962 0.0
H282 H 0.74054 0.30766 0.24223 0.0
H283 H 0.7899 0.21853 0.18672 0.0
H284 H 0.75652 0.23258 0.20148 0.0
H285 H 0.79393 0.24456 0.26366 0.0
H286 H 0.8271 0.23032 0.2492 0.0
H287 H 0.74659 0.27001 0.22446 0.0
H288 H 0.75935 0.22331 0.29952 0.0
H289 H 0.77655 0.19123 0.30964 0.0
H290 H 0.76552 0.16337 0.24455 0.0
H291 H 0.74793 0.1951 0.23412 0.0
C292 C 0.68149 0.28826 0.30281 0.0
C293 C 0.66377 0.27266 0.30841 0.0
C294 C 0.69693 0.28266 0.28798 0.0
C295 C 0.69468 0.26145 0.27817 0.0
C296 C 0.67635 0.2461 0.28306 0.0
C297 C 0.66107 0.25163 0.29809 0.0
C298 C 0.71282 0.25474 0.26467 0.0
C299 C 0.72352 0.23697 0.27029 0.0
C300 C 0.7208 0.26649 0.24754 0.0
C301 C 0.70917 0.28448 0.23989 0.0
C302 C 0.68517 0.28136 0.23433 0.0
C303 C 0.67427 0.29839 0.22727 0.0
C304 C 0.68719 0.31861 0.2256 0.0
C305 C 0.71106 0.32182 0.23093 0.0
C306 C 0.72205 0.30484 0.238 0.0
C307 C 0.7912 0.22464 0.20342 0.0
C308 C 0.81095 0.22299 0.2169 0.0
C309 C 0.77214 0.23269 0.2118 0.0
C310 C 0.77265 0.23918 0.23372 0.0
C311 C 0.79309 0.23927 0.24676 0.0
C312 C 0.81203 0.23114 0.23846 0.0
C313 C 0.75127 0.24358 0.24358 0.0
C314 C 0.74008 0.26082 0.23729 0.0
C315 C 0.74241 0.23106 0.2598 0.0
C316 C 0.75251 0.21168 0.26602 0.0
C317 C 0.76048 0.21028 0.2874 0.0
C318 C 0.77032 0.19217 0.29318 0.0
C319 C 0.77218 0.1753 0.27774 0.0
C320 C 0.76413 0.17647 0.25649 0.0
C321 C 0.75424 0.19452 0.25063 0.0
H322 H 0.77984 0.16131 0.28224 0.0
H323 H 0.67871 0.33178 0.22014 0.0
H324 H 0.79705 0.81919 0.24641 0.0
H325 H 0.78266 0.78129 0.24986 0.0
H326 H 0.76545 0.77095 0.18175 0.0
H327 H 0.78017 0.80909 0.178 0.0
H328 H 0.7306 0.7515 0.21029 0.0
H329 H 0.80959 0.75241 0.19511 0.0
H330 H 0.85123 0.76656 0.19852 0.0
H331 H 0.85507 0.75439 0.26491 0.0
H332 H 0.81335 0.7405 0.26199 0.0
H333 H 0.70488 0.64526 0.24245 0.0
H334 H 0.72414 0.67113 0.21954 0.0
H335 H 0.76185 0.70685 0.27539 0.0
H336 H 0.74281 0.68123 0.29815 0.0
H337 H 0.78772 0.70795 0.24086 0.0
H338 H 0.70915 0.71831 0.25838 0.0
H339 H 0.66704 0.70665 0.25779 0.0
H340 H 0.66241 0.69919 0.18907 0.0
H341 H 0.70459 0.71055 0.1893 0.0
C342 C 0.78993 0.80902 0.23215 0.0
C343 C 0.78987 0.81713 0.21191 0.0
C344 C 0.78183 0.78733 0.23416 0.0
C345 C 0.7734 0.77335 0.21601 0.0
C346 C 0.77208 0.78155 0.19589 0.0
C347 C 0.78043 0.8033 0.19381 0.0
C348 C 0.76667 0.7501 0.2185 0.0
C349 C 0.74312 0.74165 0.21631 0.0
C350 C 0.78307 0.73746 0.22654 0.0
C351 C 0.80829 0.74547 0.22833 0.0
C352 C 0.81927 0.75286 0.21047 0.0
C353 C 0.84291 0.76083 0.21231 0.0
C354 C 0.85579 0.7614 0.23193 0.0
C355 C 0.84507 0.75393 0.24972 0.0
C356 C 0.82144 0.74598 0.24797 0.0
C357 C 0.71791 0.6582 0.24969 0.0
C358 C 0.72219 0.66147 0.27205 0.0
C359 C 0.72878 0.673 0.23662 0.0
C360 C 0.74412 0.69108 0.24583 0.0
C361 C 0.75004 0.69305 0.26795 0.0
C362 C 0.73909 0.67845 0.28096 0.0
C363 C 0.75157 0.70966 0.23344 0.0
C364 C 0.77528 0.71734 0.23389 0.0
C365 C 0.7353 0.72169 0.224 0.0
C366 C 0.71 0.71498 0.22386 0.0
C367 C 0.69916 0.71403 0.24316 0.0
C368 C 0.67529 0.7075 0.24289 0.0
C369 C 0.66207 0.70211 0.22341 0.0
C370 C 0.67269 0.70331 0.20415 0.0
C371 C 0.69656 0.70978 0.20434 0.0
H372 H 0.6436 0.69708 0.22323 0.0
H373 H 0.87407 0.7676 0.23336 0.0
H374 H 0.31527 0.69522 0.26595 0.0
H375 H 0.28977 0.71771 0.24891 0.0
H376 H 0.2903 0.75696 0.30853 0.0
H377 H 0.31576 0.73425 0.32591 0.0
H378 H 0.24686 0.74695 0.28851 0.0
H379 H 0.32192 0.77605 0.26966 0.0
H380 H 0.36035 0.77491 0.25594 0.0
H381 H 0.32829 0.74865 0.19434 0.0
H382 H 0.28965 0.74934 0.20778 0.0
H383 H 0.19537 0.82961 0.24001 0.0
H384 H 0.22245 0.81025 0.25948 0.0
H385 H 0.22592 0.76785 0.20263 0.0
H386 H 0.19899 0.78732 0.18289 0.0
H387 H 0.26849 0.78161 0.22284 0.0
H388 H 0.19352 0.75087 0.24235 0.0
H389 H 0.15511 0.75186 0.25615 0.0
H390 H 0.18718 0.78138 0.31667 0.0
H391 H 0.2258 0.78083 0.30311 0.0
C392 C 0.30999 0.70862 0.2755 0.0
C393 C 0.31762 0.71303 0.29727 0.0
C394 C 0.29549 0.72152 0.26569 0.0
C395 C 0.28846 0.73919 0.27738 0.0
C396 C 0.29565 0.74344 0.29923 0.0
C397 C 0.3102 0.73049 0.3091 0.0
C398 C 0.27342 0.753 0.26666 0.0
C399 C 0.25173 0.75486 0.27437 0.0
C400 C 0.27965 0.76293 0.24797 0.0
C401 C 0.30288 0.76258 0.23979 0.0
C402 C 0.32306 0.76988 0.25323 0.0
C403 C 0.34488 0.76934 0.2455 0.0
C404 C 0.34676 0.76167 0.22429 0.0
C405 C 0.32681 0.75457 0.21076 0.0
C406 C 0.30494 0.75506 0.21843 0.0
C407 C 0.20191 0.81619 0.23161 0.0
C408 C 0.19497 0.80993 0.20992 0.0
C409 C 0.21732 0.80511 0.2428 0.0
C410 C 0.22595 0.78748 0.23256 0.0
C411 C 0.21939 0.78141 0.21082 0.0
C412 C 0.20397 0.7925 0.19959 0.0
C413 C 0.24182 0.77533 0.24453 0.0
C414 C 0.26368 0.77382 0.23706 0.0
C415 C 0.23575 0.76575 0.26345 0.0
C416 C 0.21254 0.76602 0.27164 0.0
C417 C 0.19238 0.75773 0.25854 0.0
C418 C 0.17057 0.75818 0.26633 0.0
C419 C 0.1687 0.76673 0.28725 0.0
C420 C 0.18865 0.77479 0.30045 0.0
C421 C 0.2105 0.7744 0.29273 0.0
H422 H 0.1518 0.76706 0.29325 0.0
H423 H 0.36367 0.76127 0.21833 0.0
H424 H 0.28824 0.71148 0.67935 0.0
H425 H 0.25742 0.72626 0.69783 0.0
H426 H 0.30341 0.74148 0.75515 0.0
H427 H 0.33398 0.72638 0.73699 0.0
H428 H 0.26473 0.71804 0.76335 0.0
H429 H 0.28528 0.78127 0.72602 0.0
H430 H 0.29269 0.80155 0.69445 0.0
H431 H 0.22267 0.78085 0.66865 0.0
H432 H 0.21492 0.7602 0.69995 0.0
H433 H 0.19197 0.79918 0.81038 0.0
H434 H 0.21853 0.79028 0.7837 0.0
H435 H 0.18476 0.72411 0.7762 0.0
H436 H 0.15829 0.73277 0.80316 0.0
H437 H 0.21627 0.77332 0.74194 0.0
H438 H 0.22684 0.69167 0.77519 0.0
H439 H 0.22171 0.67364 0.8085 0.0
H440 H 0.23427 0.73544 0.84526 0.0
H441 H 0.23978 0.75378 0.81221 0.0
C442 C 0.2919 0.71842 0.69574 0.0
C443 C 0.31341 0.71758 0.70681 0.0
C444 C 0.2743 0.72688 0.70627 0.0
C445 C 0.2781 0.73486 0.72791 0.0
C446 C 0.30005 0.73523 0.73851 0.0
C447 C 0.31752 0.72664 0.72809 0.0
C448 C 0.2588 0.74085 0.74021 0.0
C449 C 0.25414 0.73012 0.75859 0.0
C450 C 0.24498 0.75659 0.73405 0.0
C451 C 0.2496 0.769 0.71523 0.0
C452 C 0.27152 0.78089 0.71353 0.0
C453 C 0.27576 0.79248 0.6957 0.0
C454 C 0.25818 0.79244 0.67952 0.0
C455 C 0.23628 0.78085 0.68117 0.0
C456 C 0.23195 0.76921 0.69896 0.0
C457 C 0.18996 0.78278 0.80285 0.0
C458 C 0.17329 0.76657 0.80913 0.0
C459 C 0.20506 0.77778 0.78749 0.0
C460 C 0.20378 0.7565 0.7782 0.0
C461 C 0.18617 0.74059 0.7834 0.0
C462 C 0.17109 0.74556 0.79881 0.0
C463 C 0.22237 0.75053 0.76499 0.0
C464 C 0.22681 0.76114 0.74648 0.0
C465 C 0.23636 0.73496 0.77121 0.0
C466 C 0.23345 0.72408 0.79122 0.0
C467 C 0.22857 0.70138 0.7904 0.0
C468 C 0.2256 0.69112 0.80923 0.0
C469 C 0.22758 0.70339 0.82898 0.0
C470 C 0.23265 0.72595 0.82995 0.0
C471 C 0.23568 0.73629 0.81118 0.0
H472 H 0.22523 0.69541 0.84353 0.0
H473 H 0.2615 0.80143 0.66573 0.0
H474 H 0.2338 0.19314 0.80015 0.0
H475 H 0.24788 0.21947 0.77574 0.0
H476 H 0.22583 0.17262 0.72186 0.0
H477 H 0.21157 0.14587 0.74642 0.0
H478 H 0.27163 0.20463 0.72073 0.0
H479 H 0.18996 0.20114 0.72742 0.0
H480 H 0.15501 0.19774 0.74755 0.0
H481 H 0.18138 0.25678 0.78595 0.0
H482 H 0.21671 0.26032 0.76631 0.0
H483 H 0.28523 0.30263 0.66705 0.0
H484 H 0.26604 0.2671 0.67504 0.0
H485 H 0.26527 0.29099 0.74122 0.0
H486 H 0.2843 0.32635 0.73342 0.0
H487 H 0.22479 0.26522 0.72623 0.0
H488 H 0.30833 0.26436 0.72505 0.0
H489 H 0.34497 0.26763 0.7074 0.0
H490 H 0.31561 0.21694 0.6595 0.0
H491 H 0.27868 0.21358 0.67676 0.0
C492 C 0.23249 0.1882 0.78315 0.0
C493 C 0.22132 0.16759 0.77513 0.0
C494 C 0.24055 0.20325 0.76924 0.0
C495 C 0.23749 0.19802 0.74707 0.0
C496 C 0.22825 0.17686 0.73897 0.0
C497 C 0.22019 0.16164 0.75299 0.0
C498 C 0.24133 0.21572 0.73291 0.0
C499 C 0.26105 0.21762 0.72132 0.0
C500 C 0.22754 0.23266 0.73393 0.0
C501 C 0.20604 0.23094 0.74544 0.0
C502 C 0.18837 0.21333 0.74024 0.0
C503 C 0.16849 0.21138 0.75156 0.0
C504 C 0.16599 0.22702 0.76804 0.0
C505 C 0.18334 0.24468 0.77318 0.0
C506 C 0.20328 0.24669 0.76193 0.0
C507 C 0.28057 0.30039 0.68321 0.0
C508 C 0.28641 0.3172 0.69967 0.0
C509 C 0.26971 0.28008 0.68775 0.0
C510 C 0.26447 0.2764 0.70875 0.0
C511 C 0.26918 0.29352 0.7249 0.0
C512 C 0.28013 0.3137 0.72044 0.0
C513 C 0.25557 0.25453 0.71461 0.0
C514 C 0.23488 0.25189 0.72481 0.0
C515 C 0.26848 0.23697 0.71226 0.0
C516 C 0.29069 0.23892 0.70201 0.0
C517 C 0.30965 0.25404 0.71066 0.0
C518 C 0.33047 0.25589 0.70075 0.0
C519 C 0.33259 0.24255 0.68229 0.0
C520 C 0.31392 0.22729 0.67376 0.0
C521 C 0.29305 0.2254 0.6836 0.0
H522 H 0.34873 0.24401 0.67464 0.0
H523 H 0.15059 0.22547 0.7768 0.0
H524 H 0.82813 0.20341 0.78017 0.0
H525 H 0.80136 0.2248 0.76325 0.0
H526 H 0.78688 0.25201 0.8253 0.0
H527 H 0.81374 0.23044 0.84252 0.0
H528 H 0.74729 0.2381 0.79852 0.0
H529 H 0.81987 0.28271 0.79544 0.0
H530 H 0.86084 0.29104 0.7879 0.0
H531 H 0.84282 0.27226 0.7211 0.0
H532 H 0.80177 0.26351 0.72829 0.0
H533 H 0.6876 0.31923 0.75616 0.0
H534 H 0.71434 0.29975 0.77585 0.0
H535 H 0.73472 0.27179 0.7163 0.0
H536 H 0.70816 0.29152 0.69639 0.0
H537 H 0.77176 0.28772 0.74366 0.0
H538 H 0.69952 0.24166 0.74694 0.0
H539 H 0.65857 0.233 0.75443 0.0
H540 H 0.67596 0.25438 0.8208 0.0
H541 H 0.71699 0.26345 0.81365 0.0
C542 C 0.81933 0.21397 0.79028 0.0
C543 C 0.82306 0.21527 0.81269 0.0
C544 C 0.80411 0.22626 0.78056 0.0
C545 C 0.79236 0.24013 0.79303 0.0
C546 C 0.79589 0.24142 0.81543 0.0
C547 C 0.81125 0.22916 0.82521 0.0
C548 C 0.77605 0.25286 0.78247 0.0
C549 C 0.75267 0.24926 0.7868 0.0
C550 C 0.78307 0.26698 0.76685 0.0
C551 C 0.80776 0.27228 0.76244 0.0
C552 C 0.82466 0.28018 0.77917 0.0
C553 C 0.8479 0.28502 0.77495 0.0
C554 C 0.85443 0.28214 0.75404 0.0
C555 C 0.83773 0.27446 0.7373 0.0
C556 C 0.81447 0.26959 0.74143 0.0
C557 C 0.69766 0.30885 0.74722 0.0
C558 C 0.69577 0.30689 0.7247 0.0
C559 C 0.71288 0.29767 0.75852 0.0
C560 C 0.72635 0.2842 0.74753 0.0
C561 C 0.72444 0.28211 0.72506 0.0
C562 C 0.70922 0.29332 0.71372 0.0
C563 C 0.74293 0.27278 0.7595 0.0
C564 C 0.76638 0.27665 0.75546 0.0
C565 C 0.73595 0.2589 0.77538 0.0
C566 C 0.71129 0.25344 0.77972 0.0
C567 C 0.69458 0.24469 0.7631 0.0
C568 C 0.67136 0.23967 0.76729 0.0
C569 C 0.66465 0.24319 0.78807 0.0
C570 C 0.68117 0.25169 0.80471 0.0
C571 C 0.70442 0.25675 0.8006 0.0
H572 H 0.64667 0.23929 0.79128 0.0
H573 H 0.87243 0.28589 0.75081 0.0
H574 H 0.78939 0.84179 0.79639 0.0
H575 H 0.77947 0.82525 0.75956 0.0
H576 H 0.77947 0.76177 0.78204 0.0
H577 H 0.78911 0.7779 0.81848 0.0
H578 H 0.80638 0.76895 0.74694 0.0
H579 H 0.72981 0.77985 0.77087 0.0
H580 H 0.70128 0.80291 0.78303 0.0
H581 H 0.70752 0.83727 0.72661 0.0
H582 H 0.73631 0.81454 0.71425 0.0
H583 H 0.7348 0.67986 0.70076 0.0
H584 H 0.7572 0.71189 0.72013 0.0
H585 H 0.74129 0.75009 0.66817 0.0
H586 H 0.71884 0.71761 0.64839 0.0
H587 H 0.72955 0.76687 0.70776 0.0
H588 H 0.79658 0.74672 0.67923 0.0
H589 H 0.824 0.72252 0.66707 0.0
H590 H 0.83617 0.70547 0.73132 0.0
H591 H 0.80857 0.72928 0.74386 0.0
C592 C 0.78699 0.8243 0.79346 0.0
C593 C 0.7901 0.81115 0.81033 0.0
C594 C 0.78144 0.81492 0.77244 0.0
C595 C 0.77906 0.79233 0.76812 0.0
C596 C 0.78156 0.77926 0.78503 0.0
C597 C 0.78692 0.78853 0.80589 0.0
C598 C 0.77395 0.7817 0.74616 0.0
C599 C 0.78969 0.7686 0.73819 0.0
C600 C 0.75265 0.78211 0.73432 0.0
C601 C 0.73543 0.79575 0.74181 0.0
C602 C 0.72526 0.79247 0.76117 0.0
C603 C 0.709 0.80544 0.76807 0.0
C604 C 0.70266 0.82161 0.75564 0.0
C605 C 0.7125 0.82479 0.73625 0.0
C606 C 0.72878 0.81187 0.72929 0.0
C607 C 0.73655 0.69495 0.6932 0.0
C608 C 0.7251 0.69633 0.67315 0.0
C609 C 0.74946 0.71323 0.70423 0.0
C610 C 0.75104 0.73334 0.69552 0.0
C611 C 0.7404 0.73466 0.67505 0.0
C612 C 0.72772 0.71614 0.66378 0.0
C613 C 0.76137 0.75296 0.70933 0.0
C614 C 0.74669 0.76785 0.71583 0.0
C615 C 0.7837 0.7542 0.71984 0.0
C616 C 0.80047 0.73985 0.71249 0.0
C617 C 0.80501 0.73773 0.69077 0.0
C618 C 0.8206 0.72408 0.68381 0.0
C619 C 0.83183 0.71248 0.69842 0.0
C620 C 0.8275 0.71451 0.72003 0.0
C621 C 0.81191 0.72813 0.72708 0.0
H622 H 0.84389 0.70191 0.69299 0.0
H623 H 0.69006 0.83162 0.761 0.0
H624 H 0.21819 0.14589 0.87684 0.0
H625 H 0.22167 0.15618 0.91555 0.0
H626 H 0.15853 0.11368 0.92219 0.0
H627 H 0.15509 0.10298 0.88385 0.0
H628 H 0.16181 0.1609 0.93826 0.0
H629 H 0.20205 0.09703 0.93973 0.0
H630 H 0.23343 0.07626 0.93012 0.0
H631 H 0.28409 0.12855 0.9585 0.0
H632 H 0.25296 0.14976 0.96802 0.0
H633 H 0.13559 0.1366 0.03949 0.0
H634 H 0.14511 0.13879 0.00266 0.0
H635 H 0.21392 0.17029 0.02411 0.0
H636 H 0.20455 0.16775 0.0615 0.0
H637 H 0.21544 0.13799 0.99384 0.0
H638 H 0.17594 0.19884 0.99907 0.0
H639 H 0.14554 0.22077 0.00874 0.0
H640 H 0.09523 0.17755 0.96757 0.0
H641 H 0.12524 0.15515 0.95788 0.0
C642 C 0.20528 0.13845 0.88662 0.0
C643 C 0.1863 0.12369 0.87726 0.0
C644 C 0.2073 0.14437 0.90867 0.0
C645 C 0.19025 0.13577 0.92154 0.0
C646 C 0.17179 0.12051 0.9124 0.0
C647 C 0.16993 0.11435 0.8905 0.0
C648 C 0.19056 0.14349 0.94435 0.0
C649 C 0.17349 0.15595 0.95048 0.0
C650 C 0.20657 0.13786 0.96002 0.0
C651 C 0.22521 0.12509 0.9543 0.0
C652 C 0.21988 0.10419 0.9437 0.0
C653 C 0.23762 0.09231 0.93833 0.0
C654 C 0.26075 0.10111 0.94362 0.0
C655 C 0.26617 0.12178 0.95436 0.0
C656 C 0.24849 0.13373 0.95975 0.0
C657 C 0.15268 0.14427 0.03648 0.0
C658 C 0.16933 0.15199 0.05342 0.0
C659 C 0.15806 0.14564 0.01535 0.0
C660 C 0.18013 0.15498 0.0106 0.0
C661 C 0.19674 0.16314 0.02745 0.0
C662 C 0.19134 0.16176 0.04875 0.0
C663 C 0.18585 0.15456 0.98795 0.0
C664 C 0.20409 0.14354 0.98172 0.0
C665 C 0.17108 0.16181 0.97211 0.0
C666 C 0.15288 0.17526 0.97779 0.0
C667 C 0.15837 0.19392 0.99217 0.0
C668 C 0.1412 0.20645 0.99764 0.0
C669 C 0.11847 0.20055 0.98878 0.0
C670 C 0.11286 0.18211 0.9744 0.0
C671 C 0.12996 0.16951 0.96888 0.0
H672 H 0.1052 0.21027 0.99305 0.0
H673 H 0.27445 0.09188 0.93945 0.0
H674 H 0.89674 0.19603 0.94972 0.0
H675 H 0.8839 0.20387 0.98517 0.0
H676 H 0.82185 0.224 0.95692 0.0
H677 H 0.8346 0.21589 0.92106 0.0
H678 H 0.872 0.23736 0.00931 0.0
H679 H 0.77746 0.20343 0.9868 0.0
H680 H 0.75295 0.18051 0.95795 0.0
H681 H 0.80945 0.14537 0.94475 0.0
H682 H 0.83416 0.16792 0.97366 0.0
H683 H 0.82833 0.22343 0.11147 0.0
H684 H 0.8261 0.23475 0.07486 0.0
H685 H 0.83039 0.16929 0.04983 0.0
H686 H 0.83248 0.15798 0.08601 0.0
H687 H 0.80197 0.18798 0.02377 0.0
H688 H 0.87912 0.20598 0.06151 0.0
H689 H 0.90659 0.22481 0.09064 0.0
H690 H 0.88923 0.28621 0.07358 0.0
H691 H 0.86145 0.26767 0.04448 0.0
C692 C 0.88054 0.20249 0.95099 0.0
C693 C 0.86653 0.20506 0.93259 0.0
C694 C 0.87329 0.20713 0.97131 0.0
C695 C 0.85181 0.21431 0.97372 0.0
C696 C 0.83842 0.2183 0.95541 0.0
C697 C 0.84575 0.21371 0.93496 0.0
C698 C 0.8427 0.21496 0.99524 0.0
C699 C 0.85637 0.22698 0.01243 0.0
C700 C 0.8224 0.20132 0.99939 0.0
C701 C 0.80769 0.18754 0.98215 0.0
C702 C 0.7846 0.19079 0.97773 0.0
C703 C 0.77069 0.17786 0.96139 0.0
C704 C 0.77967 0.16156 0.94947 0.0
C705 C 0.80254 0.15806 0.95393 0.0
C706 C 0.81651 0.17091 0.97028 0.0
C707 C 0.82816 0.21139 0.09809 0.0
C708 C 0.83085 0.18988 0.10157 0.0
C709 C 0.82696 0.21788 0.07722 0.0
C710 C 0.82833 0.2029 0.05963 0.0
C711 C 0.82926 0.18113 0.06312 0.0
C712 C 0.83061 0.17471 0.08385 0.0
C713 C 0.83167 0.20984 0.03785 0.0
C714 C 0.81695 0.19921 0.02061 0.0
C715 C 0.85131 0.22435 0.03367 0.0
C716 C 0.86804 0.23546 0.05105 0.0
C717 C 0.88107 0.22349 0.06408 0.0
C718 C 0.8967 0.2341 0.08056 0.0
C719 C 0.89959 0.25669 0.084 0.0
C720 C 0.88692 0.26871 0.07093 0.0
C721 C 0.87123 0.25817 0.05445 0.0
H722 H 0.9117 0.26488 0.09677 0.0
H723 H 0.76888 0.15159 0.93681 0.0
H724 H 0.78378 0.81138 0.92343 0.0
H725 H 0.77641 0.80679 0.96098 0.0
H726 H 0.79112 0.87593 0.97581 0.0
H727 H 0.79828 0.88077 0.93862 0.0
H728 H 0.82172 0.84074 0.995 0.0
H729 H 0.74529 0.86541 0.98296 0.0
H730 H 0.70562 0.86078 0.96568 0.0
H731 H 0.69132 0.79829 0.98977 0.0
H732 H 0.73107 0.80245 0.00693 0.0
H733 H 0.82307 0.88829 0.09587 0.0
H734 H 0.81245 0.8786 0.05799 0.0
H735 H 0.77597 0.8173 0.07225 0.0
H736 H 0.78628 0.82719 0.11076 0.0
H737 H 0.75334 0.83725 0.03814 0.0
H738 H 0.82664 0.81551 0.05616 0.0
H739 H 0.86617 0.81937 0.07362 0.0
H740 H 0.8869 0.8735 0.03771 0.0
H741 H 0.8474 0.8702 0.02027 0.0
C742 C 0.78472 0.82565 0.93455 0.0
C743 C 0.79196 0.84643 0.92812 0.0
C744 C 0.78045 0.82297 0.95595 0.0
C745 C 0.78318 0.84104 0.971 0.0
C746 C 0.78876 0.86184 0.9643 0.0
C747 C 0.79297 0.86454 0.94305 0.0
C748 C 0.78462 0.83846 0.99414 0.0
C749 C 0.80679 0.83983 0.00446 0.0
C750 C 0.76503 0.8365 0.00624 0.0
C751 C 0.74123 0.83409 0.99592 0.0
C752 C 0.73379 0.85057 0.98433 0.0
C753 C 0.71126 0.84806 0.97462 0.0
C754 C 0.69599 0.82921 0.97654 0.0
C755 C 0.70319 0.81285 0.98824 0.0
C756 C 0.7257 0.81528 0.99796 0.0
C757 C 0.81263 0.8728 0.09106 0.0
C758 C 0.80582 0.85833 0.10624 0.0
C759 C 0.80653 0.8673 0.06939 0.0
C760 C 0.79383 0.84708 0.06233 0.0
C761 C 0.78589 0.83295 0.07744 0.0
C762 C 0.79184 0.83858 0.09935 0.0
C763 C 0.79061 0.84064 0.03906 0.0
C764 C 0.76824 0.8375 0.02869 0.0
C765 C 0.81006 0.84077 0.02677 0.0
C766 C 0.834 0.84263 0.03694 0.0
C767 C 0.83959 0.8283 0.05206 0.0
C768 C 0.862 0.83039 0.06195 0.0
C769 C 0.87903 0.84667 0.05679 0.0
C770 C 0.87369 0.86088 0.04168 0.0
C771 C 0.8513 0.85888 0.03175 0.0
H772 H 0.89636 0.84828 0.06448 0.0
H773 H 0.67855 0.8273 0.96902 0.0
H774 H 0.12259 0.78208 0.07935 0.0
H775 H 0.13657 0.76967 0.04533 0.0
H776 H 0.20694 0.79192 0.07025 0.0
H777 H 0.19305 0.80368 0.10473 0.0
H778 H 0.18737 0.81214 0.03273 0.0
H779 H 0.19936 0.74345 0.05604 0.0
H780 H 0.1891 0.70933 0.07265 0.0
H781 H 0.13225 0.69049 0.02519 0.0
H782 H 0.14193 0.72465 0.00847 0.0
H783 H 0.20581 0.80108 0.92432 0.0
H784 H 0.21401 0.79603 0.96219 0.0
H785 H 0.14954 0.75299 0.96116 0.0
H786 H 0.14226 0.75674 0.9231 0.0
H787 H 0.17697 0.74128 0.98943 0.0
H788 H 0.15547 0.81093 0.97387 0.0
H789 H 0.15965 0.84584 0.95767 0.0
H790 H 0.22686 0.86378 0.99096 0.0
H791 H 0.22316 0.82883 0.00716 0.0
C792 C 0.14109 0.7836 0.07782 0.0
C793 C 0.15677 0.79386 0.09456 0.0
C794 C 0.14905 0.77644 0.05843 0.0
C795 C 0.17277 0.77985 0.05535 0.0
C796 C 0.1886 0.78897 0.07246 0.0
C797 C 0.18065 0.79563 0.0921 0.0
C798 C 0.18012 0.77754 0.03333 0.0
C799 C 0.18584 0.79661 0.02335 0.0
C800 C 0.17722 0.75732 0.02109 0.0
C801 C 0.17133 0.7367 0.03106 0.0
C802 C 0.18456 0.73212 0.04924 0.0
C803 C 0.17886 0.71275 0.05866 0.0
C804 C 0.16002 0.69776 0.05 0.0
C805 C 0.14685 0.70211 0.03188 0.0
C806 C 0.15246 0.72147 0.0224 0.0
C807 C 0.19378 0.79005 0.9321 0.0
C808 C 0.17327 0.77951 0.92091 0.0
C809 C 0.19838 0.78727 0.95375 0.0
C810 C 0.18201 0.77472 0.96479 0.0
C811 C 0.16243 0.76286 0.95314 0.0
C812 C 0.15822 0.76506 0.93134 0.0
C813 C 0.18355 0.77598 0.98861 0.0
C814 C 0.17931 0.75678 0.99889 0.0
C815 C 0.18695 0.79618 0.00114 0.0
C816 C 0.18918 0.81719 0.99148 0.0
C817 C 0.17119 0.82228 0.97762 0.0
C818 C 0.17347 0.84207 0.96845 0.0
C819 C 0.19354 0.85699 0.97322 0.0
C820 C 0.21135 0.85218 0.98723 0.0
C821 C 0.20918 0.83239 0.99641 0.0
H822 H 0.19528 0.8723 0.96611 0.0
H823 H 0.15565 0.68278 0.05731 0.0
H824 H 0.0911 0.16664 0.11837 0.0
H825 H 0.05525 0.17822 0.12962 0.0
H826 H 0.07651 0.17106 0.19542 0.0
H827 H 0.11258 0.15928 0.1843 0.0
H828 H 0.03184 0.15239 0.18413 0.0
H829 H 0.07709 0.22084 0.17974 0.0
H830 H 0.10315 0.24836 0.16358 0.0
H831 H 0.05203 0.24857 0.11134 0.0
H832 H 0.02578 0.2208 0.12703 0.0
H833 H 0.93017 0.19497 0.2133 0.0
H834 H 0.97193 0.19436 0.21214 0.0
H835 H 0.96502 0.19388 0.14334 0.0
H836 H 0.92338 0.19431 0.14432 0.0
H837 H 0.0052 0.22024 0.1625 0.0
H838 H 0.96364 0.14774 0.16359 0.0
H839 H 0.9375 0.11944 0.17868 0.0
H840 H 0.98202 0.12673 0.23666 0.0
H841 H 0.00827 0.15532 0.22199 0.0
C842 C 0.08825 0.16757 0.13526 0.0
C843 C 0.10472 0.16203 0.15044 0.0
C844 C 0.06779 0.17434 0.14167 0.0
C845 C 0.06339 0.17578 0.16338 0.0
C846 C 0.07968 0.17016 0.1786 0.0
C847 C 0.10026 0.16346 0.17221 0.0
C848 C 0.04123 0.18228 0.16984 0.0
C849 C 0.02624 0.16748 0.1799 0.0
C850 C 0.03383 0.20181 0.16398 0.0
C851 C 0.04951 0.21862 0.15452 0.0
C852 C 0.07146 0.22663 0.16473 0.0
C853 C 0.08626 0.2423 0.15566 0.0
C854 C 0.07927 0.25019 0.13643 0.0
C855 C 0.05743 0.24245 0.12624 0.0
C856 C 0.04256 0.22676 0.13523 0.0
C857 C 0.93764 0.1952 0.19798 0.0
C858 C 0.92351 0.19448 0.17887 0.0
C859 C 0.96145 0.19478 0.19735 0.0
C860 C 0.97143 0.19387 0.17764 0.0
C861 C 0.9576 0.19458 0.1587 0.0
C862 C 0.93381 0.19472 0.15928 0.0
C863 C 0.99577 0.19018 0.17638 0.0
C864 C 0.01109 0.20544 0.16722 0.0
C865 C 0.00348 0.17106 0.183 0.0
C866 C 0.98774 0.15386 0.19182 0.0
C867 C 0.96774 0.14345 0.17963 0.0
C868 C 0.95292 0.12733 0.18809 0.0
C869 C 0.95805 0.12134 0.20865 0.0
C870 C 0.97804 0.13143 0.22076 0.0
C871 C 0.99289 0.14759 0.21239 0.0
H872 H 0.94658 0.10885 0.21517 0.0
H873 H 0.09075 0.26232 0.12943 0.0
H874 H 0.81465 0.93832 0.22995 0.0
H875 H 0.81394 0.97763 0.2333 0.0
H876 H 0.8141 0.97834 0.16473 0.0
H877 H 0.8149 0.93945 0.16122 0.0
H878 H 0.8484 0.00758 0.18598 0.0
H879 H 0.76613 0.98506 0.18976 0.0
H880 H 0.73198 0.96631 0.20511 0.0
H881 H 0.75126 0.00372 0.26534 0.0
H882 H 0.78572 0.0225 0.25042 0.0
H883 H 0.82236 0.10636 0.15682 0.0
H884 H 0.81602 0.06804 0.16285 0.0
H885 H 0.82544 0.0843 0.23107 0.0
H886 H 0.83199 0.12293 0.22525 0.0
H887 H 0.78851 0.04775 0.21609 0.0
H888 H 0.86921 0.07174 0.21221 0.0
H889 H 0.9033 0.09097 0.19719 0.0
H890 H 0.88762 0.05065 0.13819 0.0
H891 H 0.85319 0.03141 0.15274 0.0
C892 C 0.81419 0.94683 0.21559 0.0
C893 C 0.81507 0.93578 0.19534 0.0
C894 C 0.81376 0.96926 0.21753 0.0
C895 C 0.8141 0.98087 0.19926 0.0
C896 C 0.81402 0.9697 0.17904 0.0
C897 C 0.81445 0.94743 0.17708 0.0
C898 C 0.81609 0.00482 0.20092 0.0
C899 C 0.83522 0.01631 0.19247 0.0
C900 C 0.79934 0.01627 0.21011 0.0
C901 C 0.77865 0.00499 0.21906 0.0
C902 C 0.76321 0.98914 0.20634 0.0
C903 C 0.74377 0.97854 0.21495 0.0
C904 C 0.7395 0.98377 0.23621 0.0
C905 C 0.75462 -0.00035 0.24889 0.0
C906 C 0.7741 0.01029 0.24036 0.0
C907 C 0.82271 0.1019 0.17314 0.0
C908 C 0.82799 0.11772 0.19055 0.0
C909 C 0.81907 0.07998 0.17655 0.0
C910 C 0.82052 0.07343 0.19738 0.0
C911 C 0.82428 0.08911 0.21488 0.0
C912 C 0.82811 0.11114 0.21149 0.0
C913 C 0.82035 0.05021 0.20046 0.0
C914 C 0.80176 0.03894 0.20987 0.0
C915 C 0.83768 0.03887 0.19229 0.0
C916 C 0.8585 0.05025 0.18351 0.0
C917 C 0.87292 0.06709 0.19597 0.0
C918 C 0.89232 0.07798 0.18755 0.0
C919 C 0.8976 0.07207 0.16674 0.0
C920 C 0.8835 0.05523 0.15431 0.0
C921 C 0.86405 0.04431 0.16264 0.0
H922 H 0.91263 0.08051 0.16025 0.0
H923 H 0.72444 0.97555 0.24284 0.0
H924 H 0.8941 0.84657 0.15819 0.0
H925 H 0.93219 0.83479 0.16063 0.0
H926 H 0.93856 0.85145 0.22885 0.0
H927 H 0.90023 0.86333 0.22661 0.0
H928 H 0.97736 0.86726 0.20862 0.0
H929 H 0.92961 0.79957 0.2116 0.0
H930 H 0.89706 0.77073 0.20036 0.0
H931 H 0.92444 0.76064 0.13921 0.0
H932 H 0.95705 0.78961 0.14996 0.0
H933 H 0.08508 0.82876 0.21239 0.0
H934 H 0.045 0.82993 0.22078 0.0
H935 H 0.02193 0.81199 0.1544 0.0
H936 H 0.0618 0.81029 0.14595 0.0
H937 H 0.99102 0.79421 0.17994 0.0
H938 H 0.03375 0.86517 0.17396 0.0
H939 H 0.06577 0.89507 0.18329 0.0
H940 H 0.04701 0.89992 0.24826 0.0
H941 H 0.01505 0.86983 0.23935 0.0
C942 C 0.90353 0.84775 0.17375 0.0
C943 C 0.89413 0.85593 0.19222 0.0
C944 C 0.92524 0.84084 0.17513 0.0
C945 C 0.93801 0.84197 0.19496 0.0
C946 C 0.92885 0.85031 0.21343 0.0
C947 C 0.90699 0.8571 0.2121 0.0
C948 C 0.96139 0.83536 0.19603 0.0
C949 C 0.98035 0.85113 0.20286 0.0
C950 C 0.96522 0.81444 0.18806 0.0
C951 C 0.94572 0.79687 0.18156 0.0
C952 C 0.92862 0.79131 0.1957 0.0
C953 C 0.91016 0.77492 0.18942 0.0
C954 C 0.90864 0.76389 0.16907 0.0
C955 C 0.92563 0.7692 0.15497 0.0
C956 C 0.94414 0.78557 0.16116 0.0
C957 C 0.07144 0.82461 0.19965 0.0
C958 C 0.07668 0.81978 0.17842 0.0
C959 C 0.04855 0.82535 0.20447 0.0
C960 C 0.03056 0.82152 0.18813 0.0
C961 C 0.03556 0.8151 0.16725 0.0
C962 C 0.05841 0.81421 0.16243 0.0
C963 C 0.00698 0.82625 0.19216 0.0
C964 C 0.988 0.81017 0.1862 0.0
C965 C 0.00309 0.84697 0.20072 0.0
C966 C 0.02222 0.8651 0.20607 0.0
C967 C 0.03657 0.87251 0.19027 0.0
C968 C 0.05469 0.8895 0.19547 0.0
C969 C 0.05847 0.89934 0.21637 0.0
C970 C 0.0441 0.89224 0.23209 0.0
C971 C 0.02598 0.87523 0.22698 0.0
H972 H 0.0725 0.91249 0.22037 0.0
H973 H 0.89432 0.75122 0.16424 0.0
H974 H 0.15991 0.06938 0.09793 0.0
H975 H 0.16159 0.03068 0.09898 0.0
H976 H 0.19323 0.04207 0.16354 0.0
H977 H 0.19204 0.08095 0.16253 0.0
H978 H 0.21234 0.01139 0.14024 0.0
H979 H 0.13577 0.02603 0.15478 0.0
H980 H 0.09905 0.04047 0.14757 0.0
H981 H 0.08554 -0.00033 0.0887 0.0
H982 H 0.12235 0.9852 0.09543 0.0
H983 H 0.17977 0.90832 0.17869 0.0
H984 H 0.18684 0.94649 0.17191 0.0
H985 H 0.15449 0.93091 0.10791 0.0
H986 H 0.1471 0.8927 0.11459 0.0
H987 H 0.13696 0.96338 0.1287 0.0
H988 H 0.21246 0.94641 0.11594 0.0
H989 H 0.24896 0.93186 0.12383 0.0
H990 H 0.26439 0.97655 0.17992 0.0
H991 H 0.22781 0.99117 0.17255 0.0
C992 C 0.16743 0.06371 0.11231 0.0
C993 C 0.17558 0.07822 0.13026 0.0
C994 C 0.16835 0.04158 0.11287 0.0
C995 C 0.17718 0.03349 0.13146 0.0
C996 C 0.1863 0.048 0.14906 0.0
C997 C 0.18551 0.07019 0.14848 0.0
C998 C 0.17559 0.00983 0.133 0.0
C999 C 0.19586 0.00088 0.1379 0.0
C1000 C 0.15412 0.99612 0.12951 0.0
C1001 C 0.13192 0.00471 0.1255 0.0
C1002 C 0.12504 0.02026 0.14022 0.0
C1003 C 0.10421 0.02843 0.13624 0.0
C1004 C 0.09 0.02104 0.11766 0.0
C1005 C 0.09658 0.00541 0.10307 0.0
C1006 C 0.11742 0.99721 0.10696 0.0
C1007 C 0.17437 0.91295 0.16308 0.0
C1008 C 0.16274 0.89747 0.14722 0.0
C1009 C 0.17856 0.93477 0.1592 0.0
C1010 C 0.17132 0.9415 0.13936 0.0
C1011 C 0.16023 0.92603 0.12332 0.0
C1012 C 0.15604 0.9042 0.12717 0.0
C1013 C 0.17371 0.96484 0.13596 0.0
C1014 C 0.15352 0.97379 0.13081 0.0
C1015 C 0.19523 0.97849 0.13931 0.0
C1016 C 0.21728 0.96976 0.14378 0.0
C1017 C 0.22354 0.95302 0.13006 0.0
C1018 C 0.24427 0.94478 0.13442 0.0
C1019 C 0.25896 0.95324 0.15239 0.0
C1020 C 0.25298 0.96999 0.16601 0.0
C1021 C 0.23226 0.97829 0.16174 0.0
H1022 H 0.275 0.94683 0.15573 0.0
H1023 H 0.07387 0.02738 0.1146 0.0
H1024 H 0.9074 0.87704 0.88029 0.0
H1025 H 0.9474 0.87008 0.87834 0.0
H1026 H 0.92323 0.80294 0.85776 0.0
H1027 H 0.88324 0.80962 0.86007 0.0
H1028 H 0.95832 0.80625 0.88725 0.0
H1029 H 0.94286 0.839 0.82225 0.0
H1030 H 0.93052 0.86695 0.80016 0.0
H1031 H 0.98437 0.91415 0.83225 0.0
H1032 H 0.99685 0.88653 0.85475 0.0
H1033 H 0.06339 0.77835 0.85022 0.0
H1034 H 0.02348 0.78583 0.85125 0.0
H1035 H 0.0481 0.85178 0.87598 0.0
H1036 H 0.08807 0.84454 0.87488 0.0
H1037 H 0.01297 0.84917 0.84426 0.0
H1038 H 0.02816 0.81586 0.90928 0.0
H1039 H 0.04042 0.78747 0.93084 0.0
H1040 H 0.98674 0.74072 0.89783 0.0
H1041 H 0.97436 0.76878 0.87585 0.0
C1042 C 0.91058 0.86079 0.87535 0.0
C1043 C 0.89212 0.8439 0.87029 0.0
C1044 C 0.93345 0.85686 0.87415 0.0
C1045 C 0.93827 0.83605 0.86764 0.0
C1046 C 0.91989 0.81912 0.8628 0.0
C1047 C 0.89704 0.823 0.8641 0.0
C1048 C 0.96247 0.83181 0.86609 0.0
C1049 C 0.97017 0.81544 0.87761 0.0
C1050 C 0.97806 0.84411 0.85387 0.0
C1051 C 0.97063 0.86074 0.84033 0.0
C1052 C 0.95195 0.85538 0.82471 0.0
C1053 C 0.94495 0.87116 0.8121 0.0
C1054 C 0.95661 0.89233 0.81484 0.0
C1055 C 0.97534 0.89775 0.83016 0.0
C1056 C 0.98239 0.88204 0.84284 0.0
C1057 C 0.06034 0.79447 0.85582 0.0
C1058 C 0.07892 0.81081 0.86259 0.0
C1059 C 0.03752 0.79869 0.85646 0.0
C1060 C 0.03288 0.81929 0.86392 0.0
C1061 C 0.05135 0.83576 0.87023 0.0
C1062 C 0.07417 0.83155 0.86966 0.0
C1063 C 0.00872 0.8236 0.86537 0.0
C1064 C 0.00107 0.83999 0.85386 0.0
C1065 C 0.99313 0.81125 0.87752 0.0
C1066 C 0.00049 0.79437 0.89077 0.0
C1067 C 0.01909 0.79949 0.90649 0.0
C1068 C 0.02604 0.78346 0.91881 0.0
C1069 C 0.01441 0.7623 0.91567 0.0
C1070 C 0.99576 0.75712 0.90023 0.0
C1071 C 0.98876 0.77308 0.88785 0.0
H1072 H 0.01981 0.74991 0.92522 0.0
H1073 H 0.95117 0.90452 0.80505 0.0
H1074 H 0.19124 0.89045 0.87883 0.0
H1075 H 0.19571 0.92536 0.86348 0.0
H1076 H 0.1788 0.89291 0.80022 0.0
H1077 H 0.17501 0.85781 0.81542 0.0
H1078 H 0.2086 0.93103 0.79918 0.0
H1079 H 0.13606 0.90712 0.82731 0.0
H1080 H 0.11098 0.8931 0.85466 0.0
H1081 H 0.13624 0.94943 0.89747 0.0
H1082 H 0.16175 0.96361 0.87047 0.0
H1083 H 0.13065 0.02548 0.79425 0.0
H1084 H 0.13681 0.98778 0.79586 0.0
H1085 H 0.21062 0.00797 0.80538 0.0
H1086 H 0.20448 0.04571 0.80276 0.0
H1087 H 0.15161 0.97411 0.83027 0.0
H1088 H 0.23996 0.96462 0.79531 0.0
H1089 H 0.26186 0.97638 0.765 0.0
H1090 H 0.19854 0.98407 0.72963 0.0
H1091 H 0.17624 0.97207 0.75958 0.0
C1092 C 0.18917 0.8907 0.86159 0.0
C1093 C 0.18236 0.87146 0.84835 0.0
C1094 C 0.19174 0.91066 0.85284 0.0
C1095 C 0.18702 0.91172 0.83077 0.0
C1096 C 0.18242 0.89244 0.81729 0.0
C1097 C 0.18019 0.8724 0.82603 0.0
C1098 C 0.18329 0.93264 0.82244 0.0
C1099 C 0.19622 0.94056 0.80594 0.0
C1100 C 0.16654 0.94464 0.83078 0.0
C1101 C 0.15095 0.93633 0.84694 0.0
C1102 C 0.13636 0.91645 0.8426 0.0
C1103 C 0.12206 0.90848 0.85803 0.0
C1104 C 0.12205 0.92034 0.8778 0.0
C1105 C 0.13629 0.94024 0.88215 0.0
C1106 C 0.15066 0.94826 0.86679 0.0
C1107 C 0.14823 0.02178 0.79598 0.0
C1108 C 0.16709 0.03844 0.79853 0.0
C1109 C 0.15175 0.00025 0.79698 0.0
C1110 C 0.17416 0.99499 0.80097 0.0
C1111 C 0.19318 0.01152 0.80204 0.0
C1112 C 0.18967 0.0331 0.80058 0.0
C1113 C 0.17715 0.97296 0.80706 0.0
C1114 C 0.16403 0.96474 0.82331 0.0
C1115 C 0.19321 0.96053 0.79797 0.0
C1116 C 0.20646 0.96765 0.77981 0.0
C1117 C 0.2307 0.96875 0.78104 0.0
C1118 C 0.24319 0.97547 0.76392 0.0
C1119 C 0.2316 0.98104 0.74543 0.0
C1120 C 0.2075 0.97984 0.74399 0.0
C1121 C 0.19494 0.97312 0.76106 0.0
H1122 H 0.2413 0.98624 0.7322 0.0
H1123 H 0.11098 0.91415 0.88974 0.0
H1124 H 0.12369 0.1713 0.79205 0.0
H1125 H 0.08756 0.18689 0.79363 0.0
H1126 H 0.05112 0.12421 0.80396 0.0
H1127 H 0.08683 0.10842 0.80151 0.0
H1128 H 0.02362 0.14427 0.78192 0.0
H1129 H 0.07475 0.1629 0.84629 0.0
H1130 H 0.11126 0.17873 0.86691 0.0
H1131 H 0.10361 0.24122 0.84561 0.0
H1132 H 0.06716 0.22568 0.82466 0.0
H1133 H 0.95515 0.18632 0.87103 0.0
H1134 H 0.99286 0.18229 0.85802 0.0
H1135 H 0.96793 0.19477 0.79464 0.0
H1136 H 0.92988 0.19823 0.8074 0.0
H1137 H 0.02662 0.20389 0.8394 0.0
H1138 H 0.98772 0.15991 0.75851 0.0
H1139 H 0.95075 0.13951 0.74236 0.0
H1140 H 0.93308 0.12049 0.80413 0.0
H1141 H 0.97004 0.14057 0.82057 0.0
C1142 C 0.10785 0.16076 0.79417 0.0
C1143 C 0.10815 0.13868 0.79695 0.0
C1144 C 0.08724 0.16972 0.79517 0.0
C1145 C 0.06674 0.15684 0.79947 0.0
C1146 C 0.06672 0.13451 0.80071 0.0
C1147 C 0.0872 0.12548 0.79934 0.0
C1148 C 0.0458 0.16668 0.80464 0.0
C1149 C 0.02434 0.15751 0.79428 0.0
C1150 C 0.04661 0.1837 0.82105 0.0
C1151 C 0.06841 0.19309 0.83373 0.0
C1152 C 0.08094 0.17999 0.84592 0.0
C1153 C 0.10161 0.18891 0.85767 0.0
C1154 C 0.10979 0.21095 0.85752 0.0
C1155 C 0.09728 0.22414 0.84567 0.0
C1156 C 0.07661 0.21529 0.83386 0.0
C1157 C 0.95779 0.18866 0.85442 0.0
C1158 C 0.93939 0.1922 0.84016 0.0
C1159 C 0.97941 0.18641 0.847 0.0
C1160 C 0.98306 0.18777 0.82526 0.0
C1161 C 0.96533 0.19321 0.81139 0.0
C1162 C 0.94362 0.19524 0.81874 0.0
C1163 C 0.00447 0.18126 0.81689 0.0
C1164 C 0.02599 0.19106 0.82664 0.0
C1165 C 0.00365 0.16422 0.80051 0.0
C1166 C 0.98148 0.15197 0.79077 0.0
C1167 C 0.97594 0.15134 0.76861 0.0
C1168 C 0.955 0.13984 0.75942 0.0
C1169 C 0.93954 0.12879 0.77223 0.0
C1170 C 0.94503 0.12914 0.79424 0.0
C1171 C 0.96595 0.14059 0.8035 0.0
H1172 H 0.92333 0.1199 0.76509 0.0
H1173 H 0.1258 0.21783 0.86662 0.0
H1174 H 0.84002 0.94813 0.89659 0.0
H1175 H 0.83677 0.98538 0.88969 0.0
H1176 H 0.80593 0.96398 0.82609 0.0
H1177 H 0.80909 0.92619 0.83292 0.0
H1178 H 0.84202 -0.00063 0.82782 0.0
H1179 H 0.77175 0.98107 0.86051 0.0
H1180 H 0.74675 0.96558 0.88722 0.0
H1181 H 0.78473 0.00996 0.93677 0.0
H1182 H 0.8102 0.02552 0.91043 0.0
H1183 H 0.83231 0.11174 0.82213 0.0
H1184 H 0.82027 0.07256 0.82029 0.0
H1185 H 0.84472 0.07229 0.88653 0.0
H1186 H 0.85653 0.11135 0.88862 0.0
H1187 H 0.80361 0.04643 0.87728 0.0
H1188 H 0.87788 0.0591 0.84658 0.0
H1189 H 0.90438 0.07452 0.82093 0.0
H1190 H 0.85986 0.04054 0.76853 0.0
H1191 H 0.83293 0.02517 0.79389 0.0
C1192 C 0.83246 0.95123 0.88112 0.0
C1193 C 0.8248 0.9342 0.86528 0.0
C1194 C 0.8305 0.97256 0.87726 0.0
C1195 C 0.82085 0.97738 0.85749 0.0
C1196 C 0.81329 0.9605 0.8415 0.0
C1197 C 0.81507 0.93899 0.84543 0.0
C1198 C 0.81966 0.00029 0.8537 0.0
C1199 C 0.8331 0.0096 0.83821 0.0
C1200 C 0.80833 0.01361 0.86754 0.0
C1201 C 0.79296 0.00441 0.88347 0.0
C1202 C 0.77488 0.98744 0.87712 0.0
C1203 C 0.7606 0.97866 0.8922 0.0
C1204 C 0.76416 0.98677 0.91368 0.0
C1205 C 0.78198 0.0037 0.92012 0.0
C1206 C 0.79632 0.01254 0.90512 0.0
C1207 C 0.83493 0.10337 0.83636 0.0
C1208 C 0.84555 0.11465 0.85549 0.0
C1209 C 0.82808 0.08098 0.83525 0.0
C1210 C 0.83181 0.06952 0.85321 0.0
C1211 C 0.84166 0.08085 0.87249 0.0
C1212 C 0.84851 0.10318 0.87362 0.0
C1213 C 0.82659 0.04559 0.8519 0.0
C1214 C 0.81198 0.03612 0.86646 0.0
C1215 C 0.83697 0.03215 0.83732 0.0
C1216 C 0.85326 0.04121 0.8221 0.0
C1217 C 0.87366 0.05505 0.82958 0.0
C1218 C 0.88877 0.06376 0.8151 0.0
C1219 C 0.88377 0.05857 0.79311 0.0
C1220 C 0.86369 0.04459 0.78557 0.0
C1221 C 0.8485 0.03587 0.79998 0.0
H1222 H 0.89548 0.06534 0.78193 0.0
H1223 H 0.75309 0.97994 0.92533 0.0
H1224 H 0.70775 0.63411 0.37316 0.0
H1225 H 0.71023 0.63728 0.41227 0.0
H1226 H 0.64499 0.59556 0.41117 0.0
H1227 H 0.64222 0.59243 0.37209 0.0
H1228 H 0.64549 0.63323 0.43574 0.0
H1229 H 0.69522 0.57813 0.42711 0.0
H1230 H 0.72853 0.56221 0.41385 0.0
H1231 H 0.77521 0.61519 0.4466 0.0
H1232 H 0.74214 0.63159 0.45982 0.0
H1233 H 0.63729 0.60917 0.54156 0.0
H1234 H 0.64203 0.60727 0.50334 0.0
H1235 H 0.7059 0.65132 0.51458 0.0
H1236 H 0.70139 0.6532 0.55328 0.0
H1237 H 0.70891 0.61615 0.48523 0.0
H1238 H 0.65954 0.67028 0.49545 0.0
H1239 H 0.62636 0.6863 0.50886 0.0
H1240 H 0.57925 0.63571 0.47289 0.0
H1241 H 0.61216 0.61919 0.4595 0.0
C1242 C 0.69409 0.62532 0.38122 0.0
C1243 C 0.67468 0.61314 0.36949 0.0
C1244 C 0.69559 0.62711 0.40359 0.0
C1245 C 0.67778 0.61668 0.41459 0.0
C1246 C 0.65887 0.60381 0.40294 0.0
C1247 C 0.65736 0.60198 0.38061 0.0
C1248 C 0.67789 0.62042 0.43815 0.0
C1249 C 0.65922 0.62925 0.44656 0.0
C1250 C 0.6963 0.61605 0.45219 0.0
C1251 C 0.71619 0.60621 0.44425 0.0
C1252 C 0.71257 0.58649 0.43132 0.0
C1253 C 0.73141 0.57735 0.42385 0.0
C1254 C 0.75397 0.58771 0.42933 0.0
C1255 C 0.75773 0.6072 0.44234 0.0
C1256 C 0.73895 0.61642 0.44984 0.0
C1257 C 0.65237 0.61852 0.536 0.0
C1258 C 0.66892 0.63146 0.55045 0.0
C1259 C 0.65501 0.61743 0.51411 0.0
C1260 C 0.67415 0.62936 0.50614 0.0
C1261 C 0.69096 0.64206 0.52047 0.0
C1262 C 0.68831 0.64318 0.54251 0.0
C1263 C 0.67621 0.62842 0.48275 0.0
C1264 C 0.69529 0.62026 0.47437 0.0
C1265 C 0.65821 0.63347 0.46866 0.0
C1266 C 0.63834 0.64341 0.47659 0.0
C1267 C 0.64211 0.66247 0.49052 0.0
C1268 C 0.62335 0.67166 0.4981 0.0
C1269 C 0.60072 0.66201 0.49176 0.0
C1270 C 0.5968 0.64317 0.47779 0.0
C1271 C 0.6155 0.6339 0.47018 0.0
H1272 H 0.58622 0.66915 0.49765 0.0
H1273 H 0.76853 0.58061 0.42353 0.0
H1274 H 0.33591 0.65188 0.57114 0.0
H1275 H 0.33369 0.66288 0.53492 0.0
H1276 H 0.32076 0.72635 0.55892 0.0
H1277 H 0.32353 0.71549 0.59565 0.0
H1278 H 0.30411 0.67653 0.50806 0.0
H1279 H 0.34991 0.76321 0.52854 0.0
H1280 H 0.37513 0.78518 0.55754 0.0
H1281 H 0.40289 0.72836 0.57549 0.0
H1282 H 0.37801 0.70614 0.54646 0.0
H1283 H 0.32779 0.71086 0.40581 0.0
H1284 H 0.31482 0.71536 0.44205 0.0
H1285 H 0.38293 0.70783 0.46863 0.0
H1286 H 0.39597 0.70357 0.43274 0.0
H1287 H 0.36459 0.73629 0.49384 0.0
H1288 H 0.34137 0.66416 0.45826 0.0
H1289 H 0.32145 0.63749 0.42975 0.0
H1290 H 0.25633 0.65846 0.44265 0.0
H1291 H 0.27595 0.6854 0.47112 0.0
C1292 C 0.33224 0.6681 0.56877 0.0
C1293 C 0.3302 0.68291 0.5863 0.0
C1294 C 0.33083 0.67434 0.54798 0.0
C1295 C 0.32734 0.69553 0.54417 0.0
C1296 C 0.32376 0.70999 0.56151 0.0
C1297 C 0.32524 0.70374 0.58246 0.0
C1298 C 0.32977 0.70258 0.52228 0.0
C1299 C 0.31698 0.68991 0.50496 0.0
C1300 C 0.34678 0.71983 0.51816 0.0
C1301 C 0.36188 0.73302 0.53556 0.0
C1302 C 0.36142 0.75544 0.53868 0.0
C1303 C 0.37565 0.76792 0.55511 0.0
C1304 C 0.39053 0.75815 0.56841 0.0
C1305 C 0.39128 0.73589 0.56524 0.0
C1306 C 0.37711 0.72335 0.54882 0.0
C1307 C 0.34014 0.71077 0.41942 0.0
C1308 C 0.36282 0.7066 0.41645 0.0
C1309 C 0.33268 0.71325 0.4401 0.0
C1310 C 0.34782 0.71163 0.45804 0.0
C1311 C 0.37093 0.70915 0.45506 0.0
C1312 C 0.37834 0.7066 0.43449 0.0
C1313 C 0.33937 0.70987 0.47969 0.0
C1314 C 0.35102 0.72352 0.49693 0.0
C1315 C 0.32192 0.69299 0.48378 0.0
C1316 C 0.31014 0.67698 0.46657 0.0
C1317 C 0.32283 0.6632 0.45487 0.0
C1318 C 0.3116 0.64802 0.43876 0.0
C1319 C 0.28766 0.64635 0.43433 0.0
C1320 C 0.27489 0.65982 0.44605 0.0
C1321 C 0.28605 0.67505 0.46217 0.0
H1322 H 0.27899 0.63457 0.42187 0.0
H1323 H 0.40152 0.76784 0.58112 0.0
H1324 H 0.26284 0.3093 0.4148 0.0
H1325 H 0.25153 0.3018 0.45063 0.0
H1326 H 0.27067 0.36946 0.47219 0.0
H1327 H 0.28155 0.37709 0.43662 0.0
H1328 H 0.28151 0.30599 0.48356 0.0
H1329 H 0.24512 0.38512 0.51399 0.0
H1330 H 0.21693 0.40799 0.50095 0.0
H1331 H 0.18279 0.35472 0.45818 0.0
H1332 H 0.21055 0.33138 0.47117 0.0
H1333 H 0.33144 0.35847 0.57776 0.0
H1334 H 0.31307 0.34686 0.54216 0.0
H1335 H 0.24858 0.32635 0.56922 0.0
H1336 H 0.26711 0.3379 0.60537 0.0
H1337 H 0.2446 0.35271 0.53456 0.0
H1338 H 0.27265 0.28756 0.54788 0.0
H1339 H 0.30036 0.26425 0.56107 0.0
H1340 H 0.34822 0.28739 0.5162 0.0
H1341 H 0.32099 0.3111 0.50296 0.0
C1342 C 0.26398 0.32267 0.42703 0.0
C1343 C 0.2734 0.34375 0.42295 0.0
C1344 C 0.25751 0.31834 0.4475 0.0
C1345 C 0.26012 0.33505 0.46411 0.0
C1346 C 0.26803 0.35633 0.4596 0.0
C1347 C 0.27452 0.36064 0.43925 0.0
C1348 C 0.25862 0.33016 0.48675 0.0
C1349 C 0.273 0.31585 0.49466 0.0
C1350 C 0.24695 0.34252 0.50125 0.0
C1351 C 0.22998 0.35646 0.49358 0.0
C1352 C 0.23149 0.37819 0.50195 0.0
C1353 C 0.21561 0.39127 0.49452 0.0
C1354 C 0.19809 0.38282 0.47874 0.0
C1355 C 0.1964 0.36126 0.47037 0.0
C1356 C 0.21223 0.3481 0.47775 0.0
C1357 C 0.31338 0.35136 0.57624 0.0
C1358 C 0.30069 0.34912 0.59434 0.0
C1359 C 0.30295 0.34461 0.55588 0.0
C1360 C 0.27956 0.33553 0.55311 0.0
C1361 C 0.26671 0.33318 0.5711 0.0
C1362 C 0.2773 0.33974 0.59166 0.0
C1363 C 0.26882 0.32986 0.53109 0.0
C1364 C 0.25226 0.34221 0.52335 0.0
C1365 C 0.27826 0.31553 0.51671 0.0
C1366 C 0.29471 0.30112 0.5244 0.0
C1367 C 0.28912 0.28776 0.54088 0.0
C1368 C 0.30475 0.27446 0.54837 0.0
C1369 C 0.32603 0.27433 0.53947 0.0
C1370 C 0.33171 0.28748 0.52305 0.0
C1371 C 0.31615 0.30081 0.5155 0.0
H1372 H 0.33811 0.26404 0.5453 0.0
H1373 H 0.18582 0.39298 0.473 0.0
H1374 H 0.67397 0.33154 0.42815 0.0
H1375 H 0.68383 0.32737 0.46556 0.0
H1376 H 0.66559 0.25802 0.45392 0.0
H1377 H 0.65485 0.26218 0.41628 0.0
H1378 H 0.64574 0.27109 0.48682 0.0
H1379 H 0.72304 0.28201 0.4692 0.0
H1380 H 0.75754 0.2981 0.45246 0.0
H1381 H 0.7563 0.35881 0.48898 0.0
H1382 H 0.72159 0.34323 0.50571 0.0
H1383 H 0.67023 0.28385 0.60272 0.0
H1384 H 0.67737 0.27143 0.56583 0.0
H1385 H 0.67472 0.33596 0.54684 0.0
H1386 H 0.66703 0.34819 0.5831 0.0
H1387 H 0.71235 0.31413 0.53059 0.0
H1388 H 0.62805 0.30304 0.5387 0.0
H1389 H 0.5937 0.28604 0.55511 0.0
H1390 H 0.61063 0.22291 0.5362 0.0
H1391 H 0.64527 0.2396 0.51992 0.0
C1392 C 0.67243 0.31533 0.43336 0.0
C1393 C 0.66348 0.29721 0.41918 0.0
C1394 C 0.67829 0.31293 0.45483 0.0
C1395 C 0.67579 0.29233 0.46261 0.0
C1396 C 0.66775 0.27408 0.44831 0.0
C1397 C 0.66167 0.27648 0.42678 0.0
C1398 C 0.67912 0.29047 0.48604 0.0
C1399 C 0.6607 0.27993 0.49632 0.0
C1400 C 0.69862 0.30189 0.4986 0.0
C1401 C 0.71964 0.31142 0.4887 0.0
C1402 C 0.73004 0.29883 0.47359 0.0
C1403 C 0.74965 0.30786 0.4641 0.0
C1404 C 0.7591 0.32946 0.46965 0.0
C1405 C 0.74898 0.34207 0.48472 0.0
C1406 C 0.72936 0.33312 0.49425 0.0
C1407 C 0.67145 0.29535 0.59066 0.0
C1408 C 0.66791 0.31691 0.59566 0.0
C1409 C 0.67552 0.28827 0.56968 0.0
C1410 C 0.67663 0.30284 0.5537 0.0
C1411 C 0.67406 0.32452 0.55898 0.0
C1412 C 0.66951 0.33144 0.57967 0.0
C1413 C 0.6786 0.29567 0.53099 0.0
C1414 C 0.69795 0.30457 0.52093 0.0
C1415 C 0.66017 0.28249 0.51864 0.0
C1416 C 0.63938 0.27254 0.52839 0.0
C1417 C 0.62455 0.28554 0.53824 0.0
C1418 C 0.60502 0.27596 0.54747 0.0
C1419 C 0.60003 0.25341 0.54677 0.0
C1420 C 0.61455 0.24038 0.53679 0.0
C1421 C 0.63413 0.24988 0.52756 0.0
H1422 H 0.58489 0.24602 0.55392 0.0
H1423 H 0.77428 0.33643 0.46228 0.0
H1424 H 0.61807 0.6749 0.67606 0.0
H1425 H 0.58091 0.68702 0.68296 0.0
H1426 H 0.55516 0.666 0.61776 0.0
H1427 H 0.59217 0.65419 0.61062 0.0
H1428 H 0.54253 0.70465 0.63015 0.0
H1429 H 0.54233 0.63462 0.65866 0.0
H1430 H 0.55735 0.60869 0.68177 0.0
H1431 H 0.55018 0.65067 0.7376 0.0
H1432 H 0.53538 0.67698 0.71477 0.0
H1433 H 0.42188 0.67749 0.62777 0.0
H1434 H 0.46375 0.67984 0.62686 0.0
H1435 H 0.4727 0.70431 0.6934 0.0
H1436 H 0.43063 0.70187 0.69453 0.0
H1437 H 0.49636 0.67049 0.68522 0.0
H1438 H 0.48965 0.73745 0.65604 0.0
H1439 H 0.47338 0.76218 0.63233 0.0
H1440 H 0.49262 0.72557 0.57732 0.0
H1441 H 0.50872 0.70041 0.60067 0.0
C1442 C 0.60453 0.67295 0.66317 0.0
C1443 C 0.60804 0.66343 0.64283 0.0
C1444 C 0.58332 0.67987 0.66715 0.0
C1445 C 0.56524 0.67725 0.65091 0.0
C1446 C 0.5689 0.66823 0.6305 0.0
C1447 C 0.59006 0.66137 0.62649 0.0
C1448 C 0.5421 0.68296 0.65519 0.0
C1449 C 0.53238 0.69717 0.64215 0.0
C1450 C 0.52918 0.67369 0.6713 0.0
C1451 C 0.53804 0.65788 0.68501 0.0
C1452 C 0.54414 0.63839 0.67586 0.0
C1453 C 0.55258 0.62361 0.6889 0.0
C1454 C 0.5548 0.62806 0.71113 0.0
C1455 C 0.54851 0.64727 0.72037 0.0
C1456 C 0.54009 0.66212 0.70739 0.0
C1457 C 0.43272 0.68364 0.64216 0.0
C1458 C 0.42291 0.68939 0.66125 0.0
C1459 C 0.45668 0.6851 0.64157 0.0
C1460 C 0.47132 0.69241 0.66002 0.0
C1461 C 0.46166 0.6987 0.67898 0.0
C1462 C 0.43764 0.69733 0.67956 0.0
C1463 C 0.49651 0.6917 0.65975 0.0
C1464 C 0.50664 0.67841 0.67354 0.0
C1465 C 0.50975 0.70174 0.64427 0.0
C1466 C 0.50029 0.71696 0.63013 0.0
C1467 C 0.49029 0.73458 0.63888 0.0
C1468 C 0.48111 0.74869 0.6255 0.0
C1469 C 0.48193 0.74543 0.60333 0.0
C1470 C 0.49199 0.72808 0.5945 0.0
C1471 C 0.50119 0.7139 0.6078 0.0
H1472 H 0.4748 0.75636 0.593 0.0
H1473 H 0.56133 0.6166 0.72121 0.0
H1474 H 0.29624 0.60992 0.65568 0.0
H1475 H 0.28519 0.57161 0.66078 0.0
H1476 H 0.34525 0.57402 0.70528 0.0
H1477 H 0.35521 0.61256 0.70137 0.0
H1478 H 0.30421 0.54087 0.64946 0.0
H1479 H 0.34297 0.5345 0.73704 0.0
H1480 H 0.34485 0.55478 0.77249 0.0
H1481 H 0.28519 0.58373 0.75288 0.0
H1482 H 0.28272 0.5634 0.71741 0.0
H1483 H 0.34379 0.44263 0.65488 0.0
H1484 H 0.33884 0.48074 0.65802 0.0
H1485 H 0.28924 0.46832 0.70514 0.0
H1486 H 0.29512 0.43007 0.70282 0.0
H1487 H 0.31394 0.50491 0.71649 0.0
H1488 H 0.2717 0.47589 0.65211 0.0
H1489 H 0.26346 0.45476 0.61703 0.0
H1490 H 0.31797 0.49573 0.59129 0.0
H1491 H 0.32677 0.51693 0.62629 0.0
C1492 C 0.3067 0.60231 0.66693 0.0
C1493 C 0.32655 0.61412 0.67814 0.0
C1494 C 0.30044 0.58041 0.66982 0.0
C1495 C 0.31426 0.56977 0.68354 0.0
C1496 C 0.33383 0.58181 0.6951 0.0
C1497 C 0.33967 0.60386 0.69271 0.0
C1498 C 0.30987 0.54578 0.68388 0.0
C1499 C 0.30605 0.53309 0.6642 0.0
C1500 C 0.31149 0.53534 0.70307 0.0
C1501 C 0.31276 0.54749 0.72448 0.0
C1502 C 0.33016 0.54508 0.74031 0.0
C1503 C 0.33135 0.55662 0.76041 0.0
C1504 C 0.31518 0.57057 0.76492 0.0
C1505 C 0.29775 0.57297 0.74935 0.0
C1506 C 0.29647 0.56147 0.72923 0.0
C1507 C 0.33183 0.44799 0.66593 0.0
C1508 C 0.31965 0.43336 0.67845 0.0
C1509 C 0.32889 0.46978 0.66763 0.0
C1510 C 0.31315 0.47733 0.68137 0.0
C1511 C 0.30134 0.46285 0.69431 0.0
C1512 C 0.30468 0.44103 0.69295 0.0
C1513 C 0.30935 0.5004 0.68207 0.0
C1514 C 0.31162 0.51281 0.70188 0.0
C1515 C 0.30524 0.51054 0.66308 0.0
C1516 C 0.29995 0.49795 0.64188 0.0
C1517 C 0.28201 0.48033 0.639 0.0
C1518 C 0.27724 0.46834 0.61912 0.0
C1519 C 0.2902 0.47388 0.60195 0.0
C1520 C 0.30793 0.49146 0.6046 0.0
C1521 C 0.3128 0.5035 0.62445 0.0
H1522 H 0.28648 0.46457 0.58657 0.0
H1523 H 0.31614 0.57949 0.78048 0.0
H1524 H 0.5843 0.32977 0.71026 0.0
H1525 H 0.54263 0.32974 0.71121 0.0
H1526 H 0.53476 0.32217 0.64218 0.0
H1527 H 0.57649 0.32258 0.64104 0.0
H1528 H 0.51551 0.35559 0.65741 0.0
H1529 H 0.5137 0.28141 0.67258 0.0
H1530 H 0.525 0.25102 0.69173 0.0
H1531 H 0.50258 0.27892 0.75002 0.0
H1532 H 0.49144 0.30965 0.73129 0.0
H1533 H 0.3951 0.34313 0.64207 0.0
H1534 H 0.43446 0.33435 0.64382 0.0
H1535 H 0.44017 0.34812 0.71242 0.0
H1536 H 0.4004 0.3568 0.7109 0.0
H1537 H 0.46021 0.31131 0.69871 0.0
H1538 H 0.463 0.38572 0.68367 0.0
H1539 H 0.45149 0.41602 0.66449 0.0
H1540 H 0.47247 0.3874 0.60588 0.0
H1541 H 0.4838 0.35674 0.62466 0.0
C1542 C 0.57368 0.32771 0.69526 0.0
C1543 C 0.58376 0.3264 0.67555 0.0
C1544 C 0.54981 0.32759 0.69585 0.0
C1545 C 0.53559 0.32593 0.67676 0.0
C1546 C 0.54546 0.32354 0.6571 0.0
C1547 C 0.56931 0.32375 0.65648 0.0
C1548 C 0.51089 0.32888 0.6772 0.0
C1549 C 0.50335 0.34563 0.66615 0.0
C1550 C 0.49524 0.31642 0.68925 0.0
C1551 C 0.50195 0.29796 0.70056 0.0
C1552 C 0.51137 0.28117 0.68952 0.0
C1553 C 0.51771 0.26386 0.7003 0.0
C1554 C 0.51457 0.26307 0.72209 0.0
C1555 C 0.50503 0.27957 0.73315 0.0
C1556 C 0.49868 0.29693 0.72245 0.0
C1557 C 0.4046 0.34421 0.6576 0.0
C1558 C 0.3947 0.35095 0.67635 0.0
C1559 C 0.42711 0.33915 0.65854 0.0
C1560 C 0.44028 0.34088 0.6782 0.0
C1561 C 0.43024 0.34675 0.69709 0.0
C1562 C 0.40759 0.35179 0.69617 0.0
C1563 C 0.46493 0.33773 0.67865 0.0
C1564 C 0.47245 0.32113 0.68994 0.0
C1565 C 0.48067 0.35033 0.66685 0.0
C1566 C 0.47405 0.36884 0.65554 0.0
C1567 C 0.465 0.38581 0.66666 0.0
C1568 C 0.45854 0.40306 0.65587 0.0
C1569 C 0.4612 0.40361 0.63397 0.0
C1570 C 0.4704 0.38694 0.62283 0.0
C1571 C 0.47686 0.36963 0.63355 0.0
H1572 H 0.45618 0.41698 0.62564 0.0
H1573 H 0.51949 0.24964 0.7304 0.0
H1574 H 0.70725 0.59126 0.67266 0.0
H1575 H 0.71196 0.55472 0.68232 0.0
H1576 H 0.66204 0.52717 0.63059 0.0
H1577 H 0.65732 0.56338 0.62073 0.0
H1578 H 0.65339 0.51055 0.66969 0.0
H1579 H 0.71656 0.52548 0.62448 0.0
H1580 H 0.7523 0.54628 0.61387 0.0
H1581 H 0.78785 0.53707 0.67376 0.0
H1582 H 0.75219 0.51645 0.68484 0.0
H1583 H 0.69184 0.40304 0.64379 0.0
H1584 H 0.69911 0.44226 0.64232 0.0
H1585 H 0.68215 0.45159 0.70785 0.0
H1586 H 0.67488 0.41228 0.70954 0.0
H1587 H 0.72644 0.47857 0.66577 0.0
H1588 H 0.64382 0.48913 0.70703 0.0
H1589 H 0.60736 0.46745 0.71503 0.0
H1590 H 0.60963 0.4247 0.65858 0.0
H1591 H 0.64589 0.44631 0.65012 0.0
C1592 C 0.69735 0.5774 0.6633 0.0
C1593 C 0.68188 0.58021 0.64595 0.0
C1594 C 0.70011 0.55659 0.66882 0.0
C1595 C 0.68731 0.53834 0.65717 0.0
C1596 C 0.67199 0.5411 0.63981 0.0
C1597 C 0.6694 0.56181 0.63416 0.0
C1598 C 0.68933 0.51624 0.66315 0.0
C1599 C 0.66943 0.50365 0.66907 0.0
C1600 C 0.71024 0.50727 0.66224 0.0
C1601 C 0.73164 0.51967 0.6556 0.0
C1602 C 0.73193 0.52808 0.63547 0.0
C1603 C 0.75219 0.53979 0.62935 0.0
C1604 C 0.77231 0.54306 0.64316 0.0
C1605 C 0.77223 0.53457 0.6631 0.0
C1606 C 0.75201 0.52286 0.6693 0.0
C1607 C 0.69013 0.41341 0.65805 0.0
C1608 C 0.68244 0.40458 0.67668 0.0
C1609 C 0.69446 0.43581 0.65722 0.0
C1610 C 0.69094 0.44973 0.6749 0.0
C1611 C 0.68486 0.44103 0.69402 0.0
C1612 C 0.68072 0.41859 0.69494 0.0
C1613 C 0.69048 0.47295 0.67223 0.0
C1614 C 0.71059 0.4857 0.6669 0.0
C1615 C 0.66968 0.48207 0.67342 0.0
C1616 C 0.64769 0.46917 0.67812 0.0
C1617 C 0.63648 0.47513 0.69632 0.0
C1618 C 0.61586 0.46286 0.70093 0.0
C1619 C 0.60624 0.44466 0.68737 0.0
C1620 C 0.61715 0.43875 0.66912 0.0
C1621 C 0.63774 0.45099 0.66442 0.0
H1622 H 0.59029 0.43516 0.69098 0.0
H1623 H 0.78798 0.55212 0.63839 0.0
H1624 H 0.36545 0.30724 0.35522 0.0
H1625 H 0.40483 0.29934 0.35138 0.0
H1626 H 0.4318 0.36567 0.37297 0.0
H1627 H 0.39244 0.37384 0.37654 0.0
H1628 H 0.45246 0.35203 0.33849 0.0
H1629 H 0.43441 0.32522 0.40606 0.0
H1630 H 0.41145 0.30351 0.43042 0.0
H1631 H 0.42047 0.24503 0.39334 0.0
H1632 H 0.44324 0.26644 0.36859 0.0
H1633 H 0.56891 0.34565 0.36778 0.0
H1634 H 0.52809 0.34966 0.3673 0.0
H1635 H 0.50956 0.28243 0.34392 0.0
H1636 H 0.55069 0.27809 0.34469 0.0
H1637 H 0.48372 0.2941 0.37633 0.0
H1638 H 0.50453 0.32161 0.3101 0.0
H1639 H 0.52901 0.34396 0.28733 0.0
H1640 H 0.51586 0.40179 0.32309 0.0
H1641 H 0.49146 0.37978 0.34622 0.0
C1642 C 0.37974 0.32015 0.35924 0.0
C1643 C 0.37579 0.34117 0.36627 0.0
C1644 C 0.40225 0.31558 0.35707 0.0
C1645 C 0.42125 0.33187 0.36205 0.0
C1646 C 0.41737 0.35286 0.36901 0.0
C1647 C 0.39486 0.35747 0.37114 0.0
C1648 C 0.44519 0.3271 0.35995 0.0
C1649 C 0.45936 0.33949 0.3469 0.0
C1650 C 0.45397 0.31034 0.37047 0.0
C1651 C 0.4403 0.29744 0.38534 0.0
C1652 C 0.43133 0.30775 0.403 0.0
C1653 C 0.41839 0.2955 0.4169 0.0
C1654 C 0.41444 0.27291 0.41339 0.0
C1655 C 0.4235 0.26253 0.39601 0.0
C1656 C 0.43644 0.27471 0.38205 0.0
C1657 C 0.55624 0.33167 0.36246 0.0
C1658 C 0.5631 0.31153 0.35622 0.0
C1659 C 0.53287 0.33404 0.3621 0.0
C1660 C 0.51582 0.31643 0.35527 0.0
C1661 C 0.5225 0.29625 0.34914 0.0
C1662 C 0.54598 0.29382 0.34955 0.0
C1663 C 0.49105 0.31921 0.35511 0.0
C1664 C 0.47672 0.30646 0.36771 0.0
C1665 C 0.48215 0.33569 0.34425 0.0
C1666 C 0.49626 0.34902 0.32997 0.0
C1667 C 0.50691 0.33909 0.31315 0.0
C1668 C 0.52076 0.3517 0.30017 0.0
C1669 C 0.52401 0.37428 0.30378 0.0
C1670 C 0.51331 0.3843 0.32031 0.0
C1671 C 0.49942 0.37176 0.33332 0.0
H1672 H 0.5348 0.38401 0.29376 0.0
H1673 H 0.40442 0.26345 0.42417 0.0
H1674 H 0.65852 0.40211 0.36543 0.0
H1675 H 0.66091 0.43449 0.34596 0.0
H1676 H 0.66414 0.39563 0.28677 0.0
H1677 H 0.6619 0.36293 0.30625 0.0
H1678 H 0.69203 0.43654 0.28885 0.0
H1679 H 0.61424 0.40746 0.29546 0.0
H1680 H 0.58043 0.3915 0.31327 0.0
H1681 H 0.58517 0.44933 0.35579 0.0
H1682 H 0.61923 0.46553 0.33844 0.0
H1683 H 0.61962 0.53406 0.26845 0.0
H1684 H 0.62267 0.49539 0.26753 0.0
H1685 H 0.69345 0.51069 0.29447 0.0
H1686 H 0.69083 0.54923 0.29385 0.0
H1687 H 0.62502 0.4761 0.29969 0.0
H1688 H 0.72347 0.4693 0.29198 0.0
H1689 H 0.75451 0.48265 0.26956 0.0
H1690 H 0.70376 0.49253 0.22006 0.0
H1691 H 0.67241 0.47895 0.24203 0.0
C1692 C 0.6602 0.40043 0.34834 0.0
C1693 C 0.65972 0.37993 0.33734 0.0
C1694 C 0.66153 0.41896 0.33722 0.0
C1695 C 0.66227 0.41737 0.31489 0.0
C1696 C 0.66349 0.39715 0.304 0.0
C1697 C 0.66219 0.37851 0.31516 0.0
C1698 C 0.65956 0.4366 0.30309 0.0
C1699 C 0.67738 0.44524 0.29102 0.0
C1700 C 0.63989 0.44729 0.30514 0.0
C1701 C 0.6194 0.43766 0.31573 0.0
C1702 C 0.60819 0.41672 0.30872 0.0
C1703 C 0.58896 0.40763 0.31871 0.0
C1704 C 0.58067 0.41938 0.33566 0.0
C1705 C 0.59161 0.44024 0.34265 0.0
C1706 C 0.61087 0.4494 0.33273 0.0
C1707 C 0.63609 0.52908 0.27331 0.0
C1708 C 0.65498 0.54453 0.28123 0.0
C1709 C 0.63781 0.50698 0.27292 0.0
C1710 C 0.65824 0.49992 0.28108 0.0
C1711 C 0.67762 0.51549 0.28765 0.0
C1712 C 0.6761 0.5376 0.28739 0.0
C1713 C 0.65807 0.47694 0.286 0.0
C1714 C 0.6396 0.46746 0.29696 0.0
C1715 C 0.67674 0.46519 0.28214 0.0
C1716 C 0.69556 0.47321 0.26875 0.0
C1717 C 0.71891 0.47419 0.27627 0.0
C1718 C 0.73657 0.48184 0.26364 0.0
C1719 C 0.73111 0.48848 0.24342 0.0
C1720 C 0.70797 0.48745 0.23576 0.0
C1721 C 0.69024 0.47981 0.24831 0.0
H1722 H 0.74481 0.4944 0.23368 0.0
H1723 H 0.56576 0.41232 0.34335 0.0
H1724 H 0.58736 0.62911 0.27159 0.0
H1725 H 0.55308 0.64761 0.27289 0.0
H1726 H 0.59208 0.69994 0.31433 0.0
H1727 H 0.62652 0.6818 0.31289 0.0
H1728 H 0.55216 0.67814 0.33118 0.0
H1729 H 0.5736 0.71221 0.26866 0.0
H1730 H 0.58576 0.71369 0.23191 0.0
H1731 H 0.52287 0.67318 0.20753 0.0
H1732 H 0.51048 0.67114 0.24419 0.0
H1733 H 0.4482 0.71846 0.34765 0.0
H1734 H 0.48819 0.71974 0.33788 0.0
H1735 H 0.46504 0.67448 0.28288 0.0
H1736 H 0.42509 0.67413 0.29187 0.0
H1737 H 0.50055 0.69978 0.27322 0.0
H1738 H 0.48328 0.65843 0.33364 0.0
H1739 H 0.47068 0.65277 0.36976 0.0
H1740 H 0.5251 0.70217 0.39716 0.0
H1741 H 0.53784 0.70829 0.36115 0.0
C1742 C 0.5888 0.6448 0.28056 0.0
C1743 C 0.60958 0.65387 0.29233 0.0
C1744 C 0.56924 0.65539 0.2812 0.0
C1745 C 0.57012 0.67511 0.29372 0.0
C1746 C 0.59113 0.68476 0.30454 0.0
C1747 C 0.61078 0.67435 0.30367 0.0
C1748 C 0.54846 0.68392 0.29788 0.0
C1749 C 0.5411 0.68341 0.31864 0.0
C1750 C 0.53387 0.69013 0.28133 0.0
C1751 C 0.54119 0.6914 0.25922 0.0
C1752 C 0.56244 0.70346 0.25549 0.0
C1753 C 0.56936 0.70443 0.23467 0.0
C1754 C 0.55511 0.69351 0.2174 0.0
C1755 C 0.53389 0.68163 0.22093 0.0
C1756 C 0.5269 0.68058 0.24173 0.0
C1757 C 0.45164 0.70917 0.33322 0.0
C1758 C 0.43359 0.69595 0.32069 0.0
C1759 C 0.47449 0.70984 0.32769 0.0
C1760 C 0.47972 0.69671 0.30998 0.0
C1761 C 0.46151 0.68469 0.29666 0.0
C1762 C 0.43864 0.68443 0.30188 0.0
C1763 C 0.504 0.69359 0.30649 0.0
C1764 C 0.51183 0.69503 0.28589 0.0
C1765 C 0.51892 0.68769 0.32307 0.0
C1766 C 0.51131 0.684 0.34471 0.0
C1767 C 0.49245 0.66817 0.34737 0.0
C1768 C 0.4853 0.66488 0.36781 0.0
C1769 C 0.49704 0.67716 0.38573 0.0
C1770 C 0.51599 0.69272 0.38326 0.0
C1771 C 0.52319 0.69611 0.36284 0.0
H1772 H 0.49148 0.67458 0.40155 0.0
H1773 H 0.5605 0.69429 0.20129 0.0
H1774 H 0.29296 0.42947 0.338 0.0
H1775 H 0.2936 0.46792 0.33225 0.0
H1776 H 0.33847 0.48558 0.38998 0.0
H1777 H 0.33758 0.44751 0.39602 0.0
H1778 H 0.30599 0.51151 0.38754 0.0
H1779 H 0.35961 0.484 0.3401 0.0
H1780 H 0.37074 0.45975 0.31088 0.0
H1781 H 0.32074 0.48104 0.2671 0.0
H1782 H 0.30911 0.50523 0.29614 0.0
H1783 H 0.3666 0.61454 0.3768 0.0
H1784 H 0.35456 0.57605 0.37974 0.0
H1785 H 0.31127 0.57202 0.32087 0.0
H1786 H 0.32355 0.61053 0.31756 0.0
H1787 H 0.33643 0.53914 0.32148 0.0
H1788 H 0.28721 0.57103 0.36862 0.0
H1789 H 0.2781 0.59627 0.39795 0.0
H1790 H 0.32078 0.56743 0.44265 0.0
H1791 H 0.33045 0.54222 0.41352 0.0
C1792 C 0.30286 0.44158 0.34949 0.0
C1793 C 0.31531 0.43545 0.36739 0.0
C1794 C 0.30325 0.46352 0.34617 0.0
C1795 C 0.31623 0.4796 0.36062 0.0
C1796 C 0.32827 0.47347 0.37867 0.0
C1797 C 0.32783 0.45165 0.38203 0.0
C1798 C 0.31813 0.50287 0.35682 0.0
C1799 C 0.31271 0.51758 0.37313 0.0
C1800 C 0.32631 0.51072 0.33777 0.0
C1801 C 0.3333 0.4962 0.32033 0.0
C1802 C 0.35086 0.48337 0.32428 0.0
C1803 C 0.35728 0.46967 0.30775 0.0
C1804 C 0.3464 0.4688 0.28716 0.0
C1805 C 0.32912 0.48169 0.28306 0.0
C1806 C 0.32261 0.4954 0.29954 0.0
C1807 C 0.35445 0.60552 0.3645 0.0
C1808 C 0.34603 0.61562 0.34695 0.0
C1809 C 0.34748 0.58354 0.36627 0.0
C1810 C 0.33177 0.57126 0.35067 0.0
C1811 C 0.32335 0.58125 0.33311 0.0
C1812 C 0.33036 0.60325 0.33128 0.0
C1813 C 0.32485 0.54782 0.35242 0.0
C1814 C 0.3293 0.53308 0.33573 0.0
C1815 C 0.31586 0.53997 0.37115 0.0
C1816 C 0.30967 0.5548 0.38883 0.0
C1817 C 0.29475 0.57013 0.38468 0.0
C1818 C 0.28948 0.58444 0.40127 0.0
C1819 C 0.29888 0.58348 0.42214 0.0
C1820 C 0.31351 0.56816 0.42647 0.0
C1821 C 0.31887 0.55383 0.40993 0.0
H1822 H 0.29481 0.59459 0.43496 0.0
H1823 H 0.3514 0.45819 0.27438 0.0
loop_
_geom_bond_atom_site_label_1
_geom_bond_atom_site_label_2
_geom_bond_distance
_geom_bond_site_symmetry_2
_ccdc_geom_bond_type
O0 Cd1 2.223 . S
O0 C8 1.315 . S
Cd1 O0 2.223 . S
Cd1 O4 2.297 . S
Cd1 O5 2.439 . S
Cd1 O11 2.240 . S
Cd2 O3 2.240 . S
Cd2 O10 2.223 . S
Cd2 O12 2.297 . S
Cd2 O13 2.439 . S
O3 Cd2 2.240 . S
O3 C8 1.279 . S
O4 Cd1 2.297 . S
O4 C6 1.247 . S
O5 Cd1 2.439 . S
O5 C6 1.208 . S
C6 O4 1.247 . S
C6 O5 1.208 . S
C7 O12 1.247 . S
C7 O13 1.208 . S
C8 O0 1.315 . S
C8 O3 1.279 . S
C9 O10 1.315 . S
C9 O11 1.279 . S
O10 Cd2 2.223 . S
O10 C9 1.315 . S
O11 Cd1 2.240 . S
O11 C9 1.279 . S
O12 Cd2 2.297 . S
O12 C7 1.247 . S
O13 Cd2 2.439 . S
O13 C7 1.208 . S
O14 Cd15 2.223 . S
O14 C22 1.315 . S
Cd15 O14 2.223 . S
Cd15 O18 2.297 . S
Cd15 O19 2.439 . S
Cd15 O25 2.240 . S
Cd16 O17 2.240 . S
Cd16 O24 2.223 . S
Cd16 O26 2.297 . S
Cd16 O27 2.439 . S
O17 Cd16 2.240 . S
O17 C22 1.279 . S
O18 Cd15 2.297 . S
O18 C20 1.247 . S
O19 Cd15 2.439 . S
O19 C20 1.208 . S
C20 O18 1.247 . S
C20 O19 1.208 . S
C21 O26 1.247 . S
C21 O27 1.208 . S
C22 O14 1.315 . S
C22 O17 1.279 . S
C23 O24 1.315 . S
C23 O25 1.279 . S
O24 Cd16 2.223 . S
O24 C23 1.315 . S
O25 Cd15 2.240 . S
O25 C23 1.279 . S
O26 Cd16 2.297 . S
O26 C21 1.247 . S
O27 Cd16 2.439 . S
O27 C21 1.208 . S
O28 Cd29 2.223 . S
O28 C36 1.315 . S
Cd29 O28 2.223 . S
Cd29 O32 2.297 . S
Cd29 O33 2.439 . S
Cd29 O39 2.240 . S
Cd30 O31 2.240 . S
Cd30 O38 2.223 . S
Cd30 O40 2.297 . S
Cd30 O41 2.439 . S
O31 Cd30 2.240 . S
O31 C36 1.279 . S
O32 Cd29 2.297 . S
O32 C34 1.247 . S
O33 Cd29 2.439 . S
O33 C34 1.208 . S
C34 O32 1.247 . S
C34 O33 1.208 . S
C35 O40 1.247 . S
C35 O41 1.208 . S
C36 O28 1.315 . S
C36 O31 1.279 . S
C37 O38 1.315 . S
C37 O39 1.279 . S
O38 Cd30 2.223 . S
O38 C37 1.315 . S
O39 Cd29 2.240 . S
O39 C37 1.279 . S
O40 Cd30 2.297 . S
O40 C35 1.247 . S
O41 Cd30 2.439 . S
O41 C35 1.208 . S
O42 Cd43 2.223 . S
O42 C50 1.315 . S
Cd43 O42 2.223 . S
Cd43 O46 2.297 . S
Cd43 O47 2.439 . S
Cd43 O53 2.240 . S
Cd44 O45 2.240 . S
Cd44 O52 2.223 . S
Cd44 O54 2.297 . S
Cd44 O55 2.439 . S
O45 Cd44 2.240 . S
O45 C50 1.279 . S
O46 Cd43 2.297 . S
O46 C48 1.247 . S
O47 Cd43 2.439 . S
O47 C48 1.208 . S
C48 O46 1.247 . S
C48 O47 1.208 . S
C49 O54 1.247 . S
C49 O55 1.208 . S
C50 O42 1.315 . S
C50 O45 1.279 . S
C51 O52 1.315 . S
C51 O53 1.279 . S
O52 Cd44 2.223 . S
O52 C51 1.315 . S
O53 Cd43 2.240 . S
O53 C51 1.279 . S
O54 Cd44 2.297 . S
O54 C49 1.247 . S
O55 Cd44 2.439 . S
O55 C49 1.208 . S
O56 Cd57 2.223 . S
O56 C64 1.315 . S
Cd57 O56 2.223 . S
Cd57 O60 2.297 . S
Cd57 O61 2.439 . S
Cd57 O67 2.240 . S
Cd58 O59 2.240 . S
Cd58 O66 2.223 . S
Cd58 O68 2.297 . S
Cd58 O69 2.439 . S
O59 Cd58 2.240 . S
O59 C64 1.279 . S
O60 Cd57 2.297 . S
O60 C62 1.247 . S
O61 Cd57 2.439 . S
O61 C62 1.208 . S
C62 O60 1.247 . S
C62 O61 1.208 . S
C63 O68 1.247 . S
C63 O69 1.208 . S
C64 O56 1.315 . S
C64 O59 1.279 . S
C65 O66 1.315 . S
C65 O67 1.279 . S
O66 Cd58 2.223 . S
O66 C65 1.315 . S
O67 Cd57 2.240 . S
O67 C65 1.279 . S
O68 Cd58 2.297 . S
O68 C63 1.247 . S
O69 Cd58 2.439 . S
O69 C63 1.208 . S
O70 Cd71 2.223 . S
O70 C78 1.315 . S
Cd71 O70 2.223 . S
Cd71 O74 2.297 . S
Cd71 O75 2.439 . S
Cd71 O81 2.240 . S
Cd72 O73 2.240 . S
Cd72 O80 2.223 . S
Cd72 O82 2.297 . S
Cd72 O83 2.439 . S
O73 Cd72 2.240 . S
O73 C78 1.279 . S
O74 Cd71 2.297 . S
O74 C76 1.247 . S
O75 Cd71 2.439 . S
O75 C76 1.208 . S
C76 O74 1.247 . S
C76 O75 1.208 . S
C77 O82 1.247 . S
C77 O83 1.208 . S
C78 O70 1.315 . S
C78 O73 1.279 . S
C79 O80 1.315 . S
C79 O81 1.279 . S
O80 Cd72 2.223 . S
O80 C79 1.315 . S
O81 Cd71 2.240 . S
O81 C79 1.279 . S
O82 Cd72 2.297 . S
O82 C77 1.247 . S
O83 Cd72 2.439 . S
O83 C77 1.208 . S
O84 Cd85 2.223 . S
O84 C92 1.315 . S
Cd85 O84 2.223 . S
Cd85 O88 2.297 . S
Cd85 O89 2.439 . S
Cd85 O95 2.240 . S
Cd86 O87 2.240 . S
Cd86 O94 2.223 . S
Cd86 O96 2.297 . S
Cd86 O97 2.439 . S
O87 Cd86 2.240 . S
O87 C92 1.279 . S
O88 Cd85 2.297 . S
O88 C90 1.247 . S
O89 Cd85 2.439 . S
O89 C90 1.208 . S
C90 O88 1.247 . S
C90 O89 1.208 . S
C91 O96 1.247 . S
C91 O97 1.208 . S
C92 O84 1.315 . S
C92 O87 1.279 . S
C93 O94 1.315 . S
C93 O95 1.279 . S
O94 Cd86 2.223 . S
O94 C93 1.315 . S
O95 Cd85 2.240 . S
O95 C93 1.279 . S
O96 Cd86 2.297 . S
O96 C91 1.247 . S
O97 Cd86 2.439 . S
O97 C91 1.208 . S
O98 Cd99 2.223 . S
O98 C106 1.315 . S
Cd99 O98 2.223 . S
Cd99 O102 2.297 . S
Cd99 O103 2.439 . S
Cd99 O109 2.240 . S
Cd100 O101 2.240 . S
Cd100 O108 2.223 . S
Cd100 O110 2.297 . S
Cd100 O111 2.439 . S
O101 Cd100 2.240 . S
O101 C106 1.279 . S
O102 Cd99 2.297 . S
O102 C104 1.247 . S
O103 Cd99 2.439 . S
O103 C104 1.208 . S
C104 O102 1.247 . S
C104 O103 1.208 . S
C105 O110 1.247 . S
C105 O111 1.208 . S
C106 O98 1.315 . S
C106 O101 1.279 . S
C107 O108 1.315 . S
C107 O109 1.279 . S
O108 Cd100 2.223 . S
O108 C107 1.315 . S
O109 Cd99 2.240 . S
O109 C107 1.279 . S
O110 Cd100 2.297 . S
O110 C105 1.247 . S
O111 Cd100 2.439 . S
O111 C105 1.208 . S
O112 Cd113 2.223 . S
O112 C120 1.315 . S
Cd113 O112 2.223 . S
Cd113 O116 2.297 . S
Cd113 O117 2.439 . S
Cd113 O123 2.240 . S
Cd114 O115 2.240 . S
Cd114 O122 2.223 . S
Cd114 O124 2.297 . S
Cd114 O125 2.439 . S
O115 Cd114 2.240 . S
O115 C120 1.279 . S
O116 Cd113 2.297 . S
O116 C118 1.247 . S
O117 Cd113 2.439 . S
O117 C118 1.208 . S
C118 O116 1.247 . S
C118 O117 1.208 . S
C119 O124 1.247 . S
C119 O125 1.208 . S
C120 O112 1.315 . S
C120 O115 1.279 . S
C121 O122 1.315 . S
C121 O123 1.279 . S
O122 Cd114 2.223 . S
O122 C121 1.315 . S
O123 Cd113 2.240 . S
O123 C121 1.279 . S
O124 Cd114 2.297 . S
O124 C119 1.247 . S
O125 Cd114 2.439 . S
O125 C119 1.208 . S
O126 Cd127 2.223 . S
O126 C134 1.315 . S
Cd127 O126 2.223 . S
Cd127 O130 2.297 . S
Cd127 O131 2.439 . S
Cd127 O137 2.240 . S
Cd128 O129 2.240 . S
Cd128 O136 2.223 . S
Cd128 O138 2.297 . S
Cd128 O139 2.439 . S
O129 Cd128 2.240 . S
O129 C134 1.279 . S
O130 Cd127 2.297 . S
O130 C132 1.247 . S
O131 Cd127 2.439 . S
O131 C132 1.208 . S
C132 O130 1.247 . S
C132 O131 1.208 . S
C133 O138 1.247 . S
C133 O139 1.208 . S
C134 O126 1.315 . S
C134 O129 1.279 . S
C135 O136 1.315 . S
C135 O137 1.279 . S
O136 Cd128 2.223 . S
O136 C135 1.315 . S
O137 Cd127 2.240 . S
O137 C135 1.279 . S
O138 Cd128 2.297 . S
O138 C133 1.247 . S
O139 Cd128 2.439 . S
O139 C133 1.208 . S
O140 Cd141 2.223 . S
O140 C148 1.315 . S
Cd141 O140 2.223 . S
Cd141 O144 2.297 . S
Cd141 O145 2.439 . S
Cd141 O151 2.240 . S
Cd142 O143 2.240 . S
Cd142 O150 2.223 . S
Cd142 O152 2.297 . S
Cd142 O153 2.439 . S
O143 Cd142 2.240 . S
O143 C148 1.279 . S
O144 Cd141 2.297 . S
O144 C146 1.247 . S
O145 Cd141 2.439 . S
O145 C146 1.208 . S
C146 O144 1.247 . S
C146 O145 1.208 . S
C147 O152 1.247 . S
C147 O153 1.208 . S
C148 O140 1.315 . S
C148 O143 1.279 . S
C149 O150 1.315 . S
C149 O151 1.279 . S
O150 Cd142 2.223 . S
O150 C149 1.315 . S
O151 Cd141 2.240 . S
O151 C149 1.279 . S
O152 Cd142 2.297 . S
O152 C147 1.247 . S
O153 Cd142 2.439 . S
O153 C147 1.208 . S
O154 Cd155 2.223 . S
O154 C162 1.315 . S
Cd155 O154 2.223 . S
Cd155 O158 2.297 . S
Cd155 O159 2.439 . S
Cd155 O165 2.240 . S
Cd156 O157 2.240 . S
Cd156 O164 2.223 . S
Cd156 O166 2.297 . S
Cd156 O167 2.439 . S
O157 Cd156 2.240 . S
O157 C162 1.279 . S
O158 Cd155 2.297 . S
O158 C160 1.247 . S
O159 Cd155 2.439 . S
O159 C160 1.208 . S
C160 O158 1.247 . S
C160 O159 1.208 . S
C161 O166 1.247 . S
C161 O167 1.208 . S
C162 O154 1.315 . S
C162 O157 1.279 . S
C163 O164 1.315 . S
C163 O165 1.279 . S
O164 Cd156 2.223 . S
O164 C163 1.315 . S
O165 Cd155 2.240 . S
O165 C163 1.279 . S
O166 Cd156 2.297 . S
O166 C161 1.247 . S
O167 Cd156 2.439 . S
O167 C161 1.208 . S
O168 Cd169 2.223 . S
O168 C176 1.315 . S
Cd169 O168 2.223 . S
Cd169 O172 2.297 . S
Cd169 O173 2.439 . S
Cd169 O179 2.240 . S
Cd170 O171 2.240 . S
Cd170 O178 2.223 . S
Cd170 O180 2.297 . S
Cd170 O181 2.439 . S
O171 Cd170 2.240 . S
O171 C176 1.279 . S
O172 Cd169 2.297 . S
O172 C174 1.247 . S
O173 Cd169 2.439 . S
O173 C174 1.208 . S
C174 O172 1.247 . S
C174 O173 1.208 . S
C175 O180 1.247 . S
C175 O181 1.208 . S
C176 O168 1.315 . S
C176 O171 1.279 . S
C177 O178 1.315 . S
C177 O179 1.279 . S
O178 Cd170 2.223 . S
O178 C177 1.315 . S
O179 Cd169 2.240 . S
O179 C177 1.279 . S
O180 Cd170 2.297 . S
O180 C175 1.247 . S
O181 Cd170 2.439 . S
O181 C175 1.208 . S
O182 Cd183 2.223 . S
O182 C190 1.315 . S
Cd183 O182 2.223 . S
Cd183 O186 2.297 . S
Cd183 O187 2.439 . S
Cd183 O193 2.240 . S
Cd184 O185 2.240 . S
Cd184 O192 2.223 . S
Cd184 O194 2.297 . S
Cd184 O195 2.439 . S
O185 Cd184 2.240 . S
O185 C190 1.279 . S
O186 Cd183 2.297 . S
O186 C188 1.247 . S
O187 Cd183 2.439 . S
O187 C188 1.208 . S
C188 O186 1.247 . S
C188 O187 1.208 . S
C189 O194 1.247 . S
C189 O195 1.208 . S
C190 O182 1.315 . S
C190 O185 1.279 . S
C191 O192 1.315 . S
C191 O193 1.279 . S
O192 Cd184 2.223 . S
O192 C191 1.315 . S
O193 Cd183 2.240 . S
O193 C191 1.279 . S
O194 Cd184 2.297 . S
O194 C189 1.247 . S
O195 Cd184 2.439 . S
O195 C189 1.208 . S
O196 Cd197 2.223 . S
O196 C204 1.315 . S
Cd197 O196 2.223 . S
Cd197 O200 2.297 . S
Cd197 O201 2.439 . S
Cd197 O207 2.240 . S
Cd198 O199 2.240 . S
Cd198 O206 2.223 . S
Cd198 O208 2.297 . S
Cd198 O209 2.439 . S
O199 Cd198 2.240 . S
O199 C204 1.279 . S
O200 Cd197 2.297 . S
O200 C202 1.247 . S
O201 Cd197 2.439 . S
O201 C202 1.208 . S
C202 O200 1.247 . S
C202 O201 1.208 . S
C203 O208 1.247 . S
C203 O209 1.208 . S
C204 O196 1.315 . S
C204 O199 1.279 . S
C205 O206 1.315 . S
C205 O207 1.279 . S
O206 Cd198 2.223 . S
O206 C205 1.315 . S
O207 Cd197 2.240 . S
O207 C205 1.279 . S
O208 Cd198 2.297 . S
O208 C203 1.247 . S
O209 Cd198 2.439 . S
O209 C203 1.208 . S
O210 Cd211 2.223 . S
O210 C218 1.315 . S
Cd211 O210 2.223 . S
Cd211 O214 2.297 . S
Cd211 O215 2.439 . S
Cd211 O221 2.240 . S
Cd212 O213 2.240 . S
Cd212 O220 2.223 . S
Cd212 O222 2.297 . S
Cd212 O223 2.439 . S
O213 Cd212 2.240 . S
O213 C218 1.279 . S
O214 Cd211 2.297 . S
O214 C216 1.247 . S
O215 Cd211 2.439 . S
O215 C216 1.208 . S
C216 O214 1.247 . S
C216 O215 1.208 . S
C217 O222 1.247 . S
C217 O223 1.208 . S
C218 O210 1.315 . S
C218 O213 1.279 . S
C219 O220 1.315 . S
C219 O221 1.279 . S
O220 Cd212 2.223 . S
O220 C219 1.315 . S
O221 Cd211 2.240 . S
O221 C219 1.279 . S
O222 Cd212 2.297 . S
O222 C217 1.247 . S
O223 Cd212 2.439 . S
O223 C217 1.208 . S
H224 C242 0.951 . S
H225 C244 0.951 . S
H226 C246 0.950 . S
H227 C247 0.950 . S
H228 C249 0.950 . S
H229 C252 0.950 . S
H230 C253 0.950 . S
H231 C255 0.950 . S
H232 C256 0.950 . S
H233 C257 0.951 . S
H234 C259 0.951 . S
H235 C261 0.950 . S
H236 C262 0.950 . S
H237 C264 0.950 . S
H238 C267 0.950 . S
H239 C268 0.950 . S
H240 C270 0.950 . S
H241 C271 0.950 . S
C242 H224 0.951 . S
C242 C243 1.366 . S
C242 C244 1.388 . S
C243 C242 1.366 . S
C243 C247 1.385 . S
C244 H225 0.951 . S
C244 C242 1.388 . S
C244 C245 1.366 . S
C245 C244 1.366 . S
C245 C246 1.414 . S
C245 C248 1.499 . S
C246 H226 0.950 . S
C246 C245 1.414 . S
C246 C247 1.374 . S
C247 H227 0.950 . S
C247 C243 1.385 . S
C247 C246 1.374 . S
C248 C245 1.499 . S
C248 C249 1.373 . S
C248 C250 1.389 . S
C249 H228 0.950 . S
C249 C248 1.373 . S
C249 C265 1.377 . S
C250 C248 1.389 . S
C250 C251 1.524 . S
C250 C264 1.377 . S
C251 C250 1.524 . S
C251 C252 1.397 . S
C251 C256 1.363 . S
C252 H229 0.950 . S
C252 C251 1.397 . S
C252 C253 1.334 . S
C253 H230 0.950 . S
C253 C252 1.334 . S
C253 C254 1.287 . S
C254 C253 1.287 . S
C254 C255 1.524 . S
C254 H273 0.913 . S
C255 H231 0.950 . S
C255 C254 1.524 . S
C255 C256 1.415 . S
C256 H232 0.950 . S
C256 C251 1.363 . S
C256 C255 1.415 . S
C257 H233 0.951 . S
C257 C258 1.366 . S
C257 C259 1.388 . S
C258 C257 1.366 . S
C258 C262 1.385 . S
C259 H234 0.951 . S
C259 C257 1.388 . S
C259 C260 1.366 . S
C260 C259 1.366 . S
C260 C261 1.414 . S
C260 C263 1.499 . S
C261 H235 0.950 . S
C261 C260 1.414 . S
C261 C262 1.374 . S
C262 H236 0.950 . S
C262 C258 1.385 . S
C262 C261 1.374 . S
C263 C260 1.499 . S
C263 C264 1.373 . S
C263 C265 1.389 . S
C264 H237 0.950 . S
C264 C250 1.377 . S
C264 C263 1.373 . S
C265 C249 1.377 . S
C265 C263 1.389 . S
C265 C266 1.524 . S
C266 C265 1.524 . S
C266 C267 1.397 . S
C266 C271 1.363 . S
C267 H238 0.950 . S
C267 C266 1.397 . S
C267 C268 1.334 . S
C268 H239 0.950 . S
C268 C267 1.334 . S
C268 C269 1.287 . S
C269 C268 1.287 . S
C269 C270 1.524 . S
C269 H272 0.999 . S
C270 H240 0.950 . S
C270 C269 1.524 . S
C270 C271 1.415 . S
C271 H241 0.950 . S
C271 C266 1.363 . S
C271 C270 1.415 . S
H272 C269 0.999 . S
H273 C254 0.913 . S
H274 C292 0.951 . S
H275 C294 0.951 . S
H276 C296 0.950 . S
H277 C297 0.950 . S
H278 C299 0.950 . S
H279 C302 0.950 . S
H280 C303 0.950 . S
H281 C305 0.950 . S
H282 C306 0.950 . S
H283 C307 0.951 . S
H284 C309 0.951 . S
H285 C311 0.950 . S
H286 C312 0.950 . S
H287 C314 0.950 . S
H288 C317 0.950 . S
H289 C318 0.950 . S
H290 C320 0.950 . S
H291 C321 0.950 . S
C292 H274 0.951 . S
C292 C293 1.366 . S
C292 C294 1.388 . S
C293 C292 1.366 . S
C293 C297 1.385 . S
C294 H275 0.951 . S
C294 C292 1.388 . S
C294 C295 1.366 . S
C295 C294 1.366 . S
C295 C296 1.414 . S
C295 C298 1.499 . S
C296 H276 0.950 . S
C296 C295 1.414 . S
C296 C297 1.374 . S
C297 H277 0.950 . S
C297 C293 1.385 . S
C297 C296 1.374 . S
C298 C295 1.499 . S
C298 C299 1.373 . S
C298 C300 1.389 . S
C299 H278 0.950 . S
C299 C298 1.373 . S
C299 C315 1.377 . S
C300 C298 1.389 . S
C300 C301 1.524 . S
C300 C314 1.377 . S
C301 C300 1.524 . S
C301 C302 1.397 . S
C301 C306 1.363 . S
C302 H279 0.950 . S
C302 C301 1.397 . S
C302 C303 1.334 . S
C303 H280 0.950 . S
C303 C302 1.334 . S
C303 C304 1.287 . S
C304 C303 1.287 . S
C304 C305 1.524 . S
C304 H323 0.913 . S
C305 H281 0.950 . S
C305 C304 1.524 . S
C305 C306 1.415 . S
C306 H282 0.950 . S
C306 C301 1.363 . S
C306 C305 1.415 . S
C307 H283 0.951 . S
C307 C308 1.366 . S
C307 C309 1.388 . S
C308 C307 1.366 . S
C308 C312 1.385 . S
C309 H284 0.951 . S
C309 C307 1.388 . S
C309 C310 1.366 . S
C310 C309 1.366 . S
C310 C311 1.414 . S
C310 C313 1.499 . S
C311 H285 0.950 . S
C311 C310 1.414 . S
C311 C312 1.374 . S
C312 H286 0.950 . S
C312 C308 1.385 . S
C312 C311 1.374 . S
C313 C310 1.499 . S
C313 C314 1.373 . S
C313 C315 1.389 . S
C314 H287 0.950 . S
C314 C300 1.377 . S
C314 C313 1.373 . S
C315 C299 1.377 . S
C315 C313 1.389 . S
C315 C316 1.524 . S
C316 C315 1.524 . S
C316 C317 1.397 . S
C316 C321 1.363 . S
C317 H288 0.950 . S
C317 C316 1.397 . S
C317 C318 1.334 . S
C318 H289 0.950 . S
C318 C317 1.334 . S
C318 C319 1.287 . S
C319 C318 1.287 . S
C319 C320 1.524 . S
C319 H322 0.999 . S
C320 H290 0.950 . S
C320 C319 1.524 . S
C320 C321 1.415 . S
C321 H291 0.950 . S
C321 C316 1.363 . S
C321 C320 1.415 . S
H322 C319 0.999 . S
H323 C304 0.913 . S
H324 C342 0.951 . S
H325 C344 0.951 . S
H326 C346 0.950 . S
H327 C347 0.950 . S
H328 C349 0.950 . S
H329 C352 0.950 . S
H330 C353 0.950 . S
H331 C355 0.950 . S
H332 C356 0.950 . S
H333 C357 0.951 . S
H334 C359 0.951 . S
H335 C361 0.950 . S
H336 C362 0.950 . S
H337 C364 0.950 . S
H338 C367 0.950 . S
H339 C368 0.950 . S
H340 C370 0.950 . S
H341 C371 0.950 . S
C342 H324 0.951 . S
C342 C343 1.366 . S
C342 C344 1.388 . S
C343 C342 1.366 . S
C343 C347 1.385 . S
C344 H325 0.951 . S
C344 C342 1.388 . S
C344 C345 1.366 . S
C345 C344 1.366 . S
C345 C346 1.414 . S
C345 C348 1.499 . S
C346 H326 0.950 . S
C346 C345 1.414 . S
C346 C347 1.374 . S
C347 H327 0.950 . S
C347 C343 1.385 . S
C347 C346 1.374 . S
C348 C345 1.499 . S
C348 C349 1.373 . S
C348 C350 1.389 . S
C349 H328 0.950 . S
C349 C348 1.373 . S
C349 C365 1.377 . S
C350 C348 1.389 . S
C350 C351 1.524 . S
C350 C364 1.377 . S
C351 C350 1.524 . S
C351 C352 1.397 . S
C351 C356 1.363 . S
C352 H329 0.950 . S
C352 C351 1.397 . S
C352 C353 1.334 . S
C353 H330 0.950 . S
C353 C352 1.334 . S
C353 C354 1.287 . S
C354 C353 1.287 . S
C354 C355 1.524 . S
C354 H373 0.913 . S
C355 H331 0.950 . S
C355 C354 1.524 . S
C355 C356 1.415 . S
C356 H332 0.950 . S
C356 C351 1.363 . S
C356 C355 1.415 . S
C357 H333 0.951 . S
C357 C358 1.366 . S
C357 C359 1.388 . S
C358 C357 1.366 . S
C358 C362 1.385 . S
C359 H334 0.951 . S
C359 C357 1.388 . S
C359 C360 1.366 . S
C360 C359 1.366 . S
C360 C361 1.414 . S
C360 C363 1.499 . S
C361 H335 0.950 . S
C361 C360 1.414 . S
C361 C362 1.374 . S
C362 H336 0.950 . S
C362 C358 1.385 . S
C362 C361 1.374 . S
C363 C360 1.499 . S
C363 C364 1.373 . S
C363 C365 1.389 . S
C364 H337 0.950 . S
C364 C350 1.377 . S
C364 C363 1.373 . S
C365 C349 1.377 . S
C365 C363 1.389 . S
C365 C366 1.524 . S
C366 C365 1.524 . S
C366 C367 1.397 . S
C366 C371 1.363 . S
C367 H338 0.950 . S
C367 C366 1.397 . S
C367 C368 1.334 . S
C368 H339 0.950 . S
C368 C367 1.334 . S
C368 C369 1.287 . S
C369 C368 1.287 . S
C369 C370 1.524 . S
C369 H372 0.999 . S
C370 H340 0.950 . S
C370 C369 1.524 . S
C370 C371 1.415 . S
C371 H341 0.950 . S
C371 C366 1.363 . S
C371 C370 1.415 . S
H372 C369 0.999 . S
H373 C354 0.913 . S
H374 C392 0.951 . S
H375 C394 0.951 . S
H376 C396 0.950 . S
H377 C397 0.950 . S
H378 C399 0.950 . S
H379 C402 0.950 . S
H380 C403 0.950 . S
H381 C405 0.950 . S
H382 C406 0.950 . S
H383 C407 0.951 . S
H384 C409 0.951 . S
H385 C411 0.950 . S
H386 C412 0.950 . S
H387 C414 0.950 . S
H388 C417 0.950 . S
H389 C418 0.950 . S
H390 C420 0.950 . S
H391 C421 0.950 . S
C392 H374 0.951 . S
C392 C393 1.366 . S
C392 C394 1.388 . S
C393 C392 1.366 . S
C393 C397 1.385 . S
C394 H375 0.951 . S
C394 C392 1.388 . S
C394 C395 1.366 . S
C395 C394 1.366 . S
C395 C396 1.414 . S
C395 C398 1.499 . S
C396 H376 0.950 . S
C396 C395 1.414 . S
C396 C397 1.374 . S
C397 H377 0.950 . S
C397 C393 1.385 . S
C397 C396 1.374 . S
C398 C395 1.499 . S
C398 C399 1.373 . S
C398 C400 1.389 . S
C399 H378 0.950 . S
C399 C398 1.373 . S
C399 C415 1.377 . S
C400 C398 1.389 . S
C400 C401 1.524 . S
C400 C414 1.377 . S
C401 C400 1.524 . S
C401 C402 1.397 . S
C401 C406 1.363 . S
C402 H379 0.950 . S
C402 C401 1.397 . S
C402 C403 1.334 . S
C403 H380 0.950 . S
C403 C402 1.334 . S
C403 C404 1.287 . S
C404 C403 1.287 . S
C404 C405 1.524 . S
C404 H423 0.913 . S
C405 H381 0.950 . S
C405 C404 1.524 . S
C405 C406 1.415 . S
C406 H382 0.950 . S
C406 C401 1.363 . S
C406 C405 1.415 . S
C407 H383 0.951 . S
C407 C408 1.366 . S
C407 C409 1.388 . S
C408 C407 1.366 . S
C408 C412 1.385 . S
C409 H384 0.951 . S
C409 C407 1.388 . S
C409 C410 1.366 . S
C410 C409 1.366 . S
C410 C411 1.414 . S
C410 C413 1.499 . S
C411 H385 0.950 . S
C411 C410 1.414 . S
C411 C412 1.374 . S
C412 H386 0.950 . S
C412 C408 1.385 . S
C412 C411 1.374 . S
C413 C410 1.499 . S
C413 C414 1.373 . S
C413 C415 1.389 . S
C414 H387 0.950 . S
C414 C400 1.377 . S
C414 C413 1.373 . S
C415 C399 1.377 . S
C415 C413 1.389 . S
C415 C416 1.524 . S
C416 C415 1.524 . S
C416 C417 1.397 . S
C416 C421 1.363 . S
C417 H388 0.950 . S
C417 C416 1.397 . S
C417 C418 1.334 . S
C418 H389 0.950 . S
C418 C417 1.334 . S
C418 C419 1.287 . S
C419 C418 1.287 . S
C419 C420 1.524 . S
C419 H422 0.999 . S
C420 H390 0.950 . S
C420 C419 1.524 . S
C420 C421 1.415 . S
C421 H391 0.950 . S
C421 C416 1.363 . S
C421 C420 1.415 . S
H422 C419 0.999 . S
H423 C404 0.913 . S
H424 C442 0.951 . S
H425 C444 0.951 . S
H426 C446 0.950 . S
H427 C447 0.950 . S
H428 C449 0.950 . S
H429 C452 0.950 . S
H430 C453 0.950 . S
H431 C455 0.950 . S
H432 C456 0.950 . S
H433 C457 0.951 . S
H434 C459 0.951 . S
H435 C461 0.950 . S
H436 C462 0.950 . S
H437 C464 0.950 . S
H438 C467 0.950 . S
H439 C468 0.950 . S
H440 C470 0.950 . S
H441 C471 0.950 . S
C442 H424 0.951 . S
C442 C443 1.366 . S
C442 C444 1.388 . S
C443 C442 1.366 . S
C443 C447 1.385 . S
C444 H425 0.951 . S
C444 C442 1.388 . S
C444 C445 1.366 . S
C445 C444 1.366 . S
C445 C446 1.414 . S
C445 C448 1.499 . S
C446 H426 0.950 . S
C446 C445 1.414 . S
C446 C447 1.374 . S
C447 H427 0.950 . S
C447 C443 1.385 . S
C447 C446 1.374 . S
C448 C445 1.499 . S
C448 C449 1.373 . S
C448 C450 1.389 . S
C449 H428 0.950 . S
C449 C448 1.373 . S
C449 C465 1.377 . S
C450 C448 1.389 . S
C450 C451 1.524 . S
C450 C464 1.377 . S
C451 C450 1.524 . S
C451 C452 1.397 . S
C451 C456 1.363 . S
C452 H429 0.950 . S
C452 C451 1.397 . S
C452 C453 1.334 . S
C453 H430 0.950 . S
C453 C452 1.334 . S
C453 C454 1.287 . S
C454 C453 1.287 . S
C454 C455 1.524 . S
C454 H473 0.913 . S
C455 H431 0.950 . S
C455 C454 1.524 . S
C455 C456 1.415 . S
C456 H432 0.950 . S
C456 C451 1.363 . S
C456 C455 1.415 . S
C457 H433 0.951 . S
C457 C458 1.366 . S
C457 C459 1.388 . S
C458 C457 1.366 . S
C458 C462 1.385 . S
C459 H434 0.951 . S
C459 C457 1.388 . S
C459 C460 1.366 . S
C460 C459 1.366 . S
C460 C461 1.414 . S
C460 C463 1.499 . S
C461 H435 0.950 . S
C461 C460 1.414 . S
C461 C462 1.374 . S
C462 H436 0.950 . S
C462 C458 1.385 . S
C462 C461 1.374 . S
C463 C460 1.499 . S
C463 C464 1.373 . S
C463 C465 1.389 . S
C464 H437 0.950 . S
C464 C450 1.377 . S
C464 C463 1.373 . S
C465 C449 1.377 . S
C465 C463 1.389 . S
C465 C466 1.524 . S
C466 C465 1.524 . S
C466 C467 1.397 . S
C466 C471 1.363 . S
C467 H438 0.950 . S
C467 C466 1.397 . S
C467 C468 1.334 . S
C468 H439 0.950 . S
C468 C467 1.334 . S
C468 C469 1.287 . S
C469 C468 1.287 . S
C469 C470 1.524 . S
C469 H472 0.999 . S
C470 H440 0.950 . S
C470 C469 1.524 . S
C470 C471 1.415 . S
C471 H441 0.950 . S
C471 C466 1.363 . S
C471 C470 1.415 . S
H472 C469 0.999 . S
H473 C454 0.913 . S
H474 C492 0.951 . S
H475 C494 0.951 . S
H476 C496 0.950 . S
H477 C497 0.950 . S
H478 C499 0.950 . S
H479 C502 0.950 . S
H480 C503 0.950 . S
H481 C505 0.950 . S
H482 C506 0.950 . S
H483 C507 0.951 . S
H484 C509 0.951 . S
H485 C511 0.950 . S
H486 C512 0.950 . S
H487 C514 0.950 . S
H488 C517 0.950 . S
H489 C518 0.950 . S
H490 C520 0.950 . S
H491 C521 0.950 . S
C492 H474 0.951 . S
C492 C493 1.366 . S
C492 C494 1.388 . S
C493 C492 1.366 . S
C493 C497 1.385 . S
C494 H475 0.951 . S
C494 C492 1.388 . S
C494 C495 1.366 . S
C495 C494 1.366 . S
C495 C496 1.414 . S
C495 C498 1.499 . S
C496 H476 0.950 . S
C496 C495 1.414 . S
C496 C497 1.374 . S
C497 H477 0.950 . S
C497 C493 1.385 . S
C497 C496 1.374 . S
C498 C495 1.499 . S
C498 C499 1.373 . S
C498 C500 1.389 . S
C499 H478 0.950 . S
C499 C498 1.373 . S
C499 C515 1.377 . S
C500 C498 1.389 . S
C500 C501 1.524 . S
C500 C514 1.377 . S
C501 C500 1.524 . S
C501 C502 1.397 . S
C501 C506 1.363 . S
C502 H479 0.950 . S
C502 C501 1.397 . S
C502 C503 1.334 . S
C503 H480 0.950 . S
C503 C502 1.334 . S
C503 C504 1.287 . S
C504 C503 1.287 . S
C504 C505 1.524 . S
C504 H523 0.913 . S
C505 H481 0.950 . S
C505 C504 1.524 . S
C505 C506 1.415 . S
C506 H482 0.950 . S
C506 C501 1.363 . S
C506 C505 1.415 . S
C507 H483 0.951 . S
C507 C508 1.366 . S
C507 C509 1.388 . S
C508 C507 1.366 . S
C508 C512 1.385 . S
C509 H484 0.951 . S
C509 C507 1.388 . S
C509 C510 1.366 . S
C510 C509 1.366 . S
C510 C511 1.414 . S
C510 C513 1.499 . S
C511 H485 0.950 . S
C511 C510 1.414 . S
C511 C512 1.374 . S
C512 H486 0.950 . S
C512 C508 1.385 . S
C512 C511 1.374 . S
C513 C510 1.499 . S
C513 C514 1.373 . S
C513 C515 1.389 . S
C514 H487 0.950 . S
C514 C500 1.377 . S
C514 C513 1.373 . S
C515 C499 1.377 . S
C515 C513 1.389 . S
C515 C516 1.524 . S
C516 C515 1.524 . S
C516 C517 1.397 . S
C516 C521 1.363 . S
C517 H488 0.950 . S
C517 C516 1.397 . S
C517 C518 1.334 . S
C518 H489 0.950 . S
C518 C517 1.334 . S
C518 C519 1.287 . S
C519 C518 1.287 . S
C519 C520 1.524 . S
C519 H522 0.999 . S
C520 H490 0.950 . S
C520 C519 1.524 . S
C520 C521 1.415 . S
C521 H491 0.950 . S
C521 C516 1.363 . S
C521 C520 1.415 . S
H522 C519 0.999 . S
H523 C504 0.913 . S
H524 C542 0.951 . S
H525 C544 0.951 . S
H526 C546 0.950 . S
H527 C547 0.950 . S
H528 C549 0.950 . S
H529 C552 0.950 . S
H530 C553 0.950 . S
H531 C555 0.950 . S
H532 C556 0.950 . S
H533 C557 0.951 . S
H534 C559 0.951 . S
H535 C561 0.950 . S
H536 C562 0.950 . S
H537 C564 0.950 . S
H538 C567 0.950 . S
H539 C568 0.950 . S
H540 C570 0.950 . S
H541 C571 0.950 . S
C542 H524 0.951 . S
C542 C543 1.366 . S
C542 C544 1.388 . S
C543 C542 1.366 . S
C543 C547 1.385 . S
C544 H525 0.951 . S
C544 C542 1.388 . S
C544 C545 1.366 . S
C545 C544 1.366 . S
C545 C546 1.414 . S
C545 C548 1.499 . S
C546 H526 0.950 . S
C546 C545 1.414 . S
C546 C547 1.374 . S
C547 H527 0.950 . S
C547 C543 1.385 . S
C547 C546 1.374 . S
C548 C545 1.499 . S
C548 C549 1.373 . S
C548 C550 1.389 . S
C549 H528 0.950 . S
C549 C548 1.373 . S
C549 C565 1.377 . S
C550 C548 1.389 . S
C550 C551 1.524 . S
C550 C564 1.377 . S
C551 C550 1.524 . S
C551 C552 1.397 . S
C551 C556 1.363 . S
C552 H529 0.950 . S
C552 C551 1.397 . S
C552 C553 1.334 . S
C553 H530 0.950 . S
C553 C552 1.334 . S
C553 C554 1.287 . S
C554 C553 1.287 . S
C554 C555 1.524 . S
C554 H573 0.913 . S
C555 H531 0.950 . S
C555 C554 1.524 . S
C555 C556 1.415 . S
C556 H532 0.950 . S
C556 C551 1.363 . S
C556 C555 1.415 . S
C557 H533 0.951 . S
C557 C558 1.366 . S
C557 C559 1.388 . S
C558 C557 1.366 . S
C558 C562 1.385 . S
C559 H534 0.951 . S
C559 C557 1.388 . S
C559 C560 1.366 . S
C560 C559 1.366 . S
C560 C561 1.414 . S
C560 C563 1.499 . S
C561 H535 0.950 . S
C561 C560 1.414 . S
C561 C562 1.374 . S
C562 H536 0.950 . S
C562 C558 1.385 . S
C562 C561 1.374 . S
C563 C560 1.499 . S
C563 C564 1.373 . S
C563 C565 1.389 . S
C564 H537 0.950 . S
C564 C550 1.377 . S
C564 C563 1.373 . S
C565 C549 1.377 . S
C565 C563 1.389 . S
C565 C566 1.524 . S
C566 C565 1.524 . S
C566 C567 1.397 . S
C566 C571 1.363 . S
C567 H538 0.950 . S
C567 C566 1.397 . S
C567 C568 1.334 . S
C568 H539 0.950 . S
C568 C567 1.334 . S
C568 C569 1.287 . S
C569 C568 1.287 . S
C569 C570 1.524 . S
C569 H572 0.999 . S
C570 H540 0.950 . S
C570 C569 1.524 . S
C570 C571 1.415 . S
C571 H541 0.950 . S
C571 C566 1.363 . S
C571 C570 1.415 . S
H572 C569 0.999 . S
H573 C554 0.913 . S
H574 C592 0.951 . S
H575 C594 0.951 . S
H576 C596 0.950 . S
H577 C597 0.950 . S
H578 C599 0.950 . S
H579 C602 0.950 . S
H580 C603 0.950 . S
H581 C605 0.950 . S
H582 C606 0.950 . S
H583 C607 0.951 . S
H584 C609 0.951 . S
H585 C611 0.950 . S
H586 C612 0.950 . S
H587 C614 0.950 . S
H588 C617 0.950 . S
H589 C618 0.950 . S
H590 C620 0.950 . S
H591 C621 0.950 . S
C592 H574 0.951 . S
C592 C593 1.366 . S
C592 C594 1.388 . S
C593 C592 1.366 . S
C593 C597 1.385 . S
C594 H575 0.951 . S
C594 C592 1.388 . S
C594 C595 1.366 . S
C595 C594 1.366 . S
C595 C596 1.414 . S
C595 C598 1.499 . S
C596 H576 0.950 . S
C596 C595 1.414 . S
C596 C597 1.374 . S
C597 H577 0.950 . S
C597 C593 1.385 . S
C597 C596 1.374 . S
C598 C595 1.499 . S
C598 C599 1.373 . S
C598 C600 1.389 . S
C599 H578 0.950 . S
C599 C598 1.373 . S
C599 C615 1.377 . S
C600 C598 1.389 . S
C600 C601 1.524 . S
C600 C614 1.377 . S
C601 C600 1.524 . S
C601 C602 1.397 . S
C601 C606 1.363 . S
C602 H579 0.950 . S
C602 C601 1.397 . S
C602 C603 1.334 . S
C603 H580 0.950 . S
C603 C602 1.334 . S
C603 C604 1.287 . S
C604 C603 1.287 . S
C604 C605 1.524 . S
C604 H623 0.913 . S
C605 H581 0.950 . S
C605 C604 1.524 . S
C605 C606 1.415 . S
C606 H582 0.950 . S
C606 C601 1.363 . S
C606 C605 1.415 . S
C607 H583 0.951 . S
C607 C608 1.366 . S
C607 C609 1.388 . S
C608 C607 1.366 . S
C608 C612 1.385 . S
C609 H584 0.951 . S
C609 C607 1.388 . S
C609 C610 1.366 . S
C610 C609 1.366 . S
C610 C611 1.414 . S
C610 C613 1.499 . S
C611 H585 0.950 . S
C611 C610 1.414 . S
C611 C612 1.374 . S
C612 H586 0.950 . S
C612 C608 1.385 . S
C612 C611 1.374 . S
C613 C610 1.499 . S
C613 C614 1.373 . S
C613 C615 1.389 . S
C614 H587 0.950 . S
C614 C600 1.377 . S
C614 C613 1.373 . S
C615 C599 1.377 . S
C615 C613 1.389 . S
C615 C616 1.524 . S
C616 C615 1.524 . S
C616 C617 1.397 . S
C616 C621 1.363 . S
C617 H588 0.950 . S
C617 C616 1.397 . S
C617 C618 1.334 . S
C618 H589 0.950 . S
C618 C617 1.334 . S
C618 C619 1.287 . S
C619 C618 1.287 . S
C619 C620 1.524 . S
C619 H622 0.999 . S
C620 H590 0.950 . S
C620 C619 1.524 . S
C620 C621 1.415 . S
C621 H591 0.950 . S
C621 C616 1.363 . S
C621 C620 1.415 . S
H622 C619 0.999 . S
H623 C604 0.913 . S
H624 C642 0.951 . S
H625 C644 0.951 . S
H626 C646 0.950 . S
H627 C647 0.950 . S
H628 C649 0.950 . S
H629 C652 0.950 . S
H630 C653 0.950 . S
H631 C655 0.950 . S
H632 C656 0.950 . S
H633 C657 0.951 . S
H634 C659 0.951 . S
H635 C661 0.950 . S
H636 C662 0.950 . S
H637 C664 0.950 . S
H638 C667 0.950 . S
H639 C668 0.950 . S
H640 C670 0.950 . S
H641 C671 0.950 . S
C642 H624 0.951 . S
C642 C643 1.366 . S
C642 C644 1.388 . S
C643 C642 1.366 . S
C643 C647 1.385 . S
C644 H625 0.951 . S
C644 C642 1.388 . S
C644 C645 1.366 . S
C645 C644 1.366 . S
C645 C646 1.414 . S
C645 C648 1.499 . S
C646 H626 0.950 . S
C646 C645 1.414 . S
C646 C647 1.374 . S
C647 H627 0.950 . S
C647 C643 1.385 . S
C647 C646 1.374 . S
C648 C645 1.499 . S
C648 C649 1.373 . S
C648 C650 1.389 . S
C649 H628 0.950 . S
C649 C648 1.373 . S
C649 C665 1.377 . S
C650 C648 1.389 . S
C650 C651 1.524 . S
C650 C664 1.377 . S
C651 C650 1.524 . S
C651 C652 1.397 . S
C651 C656 1.363 . S
C652 H629 0.950 . S
C652 C651 1.397 . S
C652 C653 1.334 . S
C653 H630 0.950 . S
C653 C652 1.334 . S
C653 C654 1.287 . S
C654 C653 1.287 . S
C654 C655 1.524 . S
C654 H673 0.913 . S
C655 H631 0.950 . S
C655 C654 1.524 . S
C655 C656 1.415 . S
C656 H632 0.950 . S
C656 C651 1.363 . S
C656 C655 1.415 . S
C657 H633 0.951 . S
C657 C658 1.366 . S
C657 C659 1.388 . S
C658 C657 1.366 . S
C658 C662 1.385 . S
C659 H634 0.951 . S
C659 C657 1.388 . S
C659 C660 1.366 . S
C660 C659 1.366 . S
C660 C661 1.414 . S
C660 C663 1.499 1_554 S
C661 H635 0.950 . S
C661 C660 1.414 . S
C661 C662 1.374 . S
C662 H636 0.950 . S
C662 C658 1.385 . S
C662 C661 1.374 . S
C663 C660 1.499 1_556 S
C663 C664 1.373 . S
C663 C665 1.389 . S
C664 H637 0.950 . S
C664 C650 1.377 . S
C664 C663 1.373 . S
C665 C649 1.377 . S
C665 C663 1.389 . S
C665 C666 1.524 . S
C666 C665 1.524 . S
C666 C667 1.397 1_556 S
C666 C671 1.363 . S
C667 H638 0.950 . S
C667 C666 1.397 1_554 S
C667 C668 1.334 . S
C668 H639 0.950 . S
C668 C667 1.334 . S
C668 C669 1.287 . S
C669 C668 1.287 . S
C669 C670 1.524 1_554 S
C669 H672 0.999 . S
C670 H640 0.950 . S
C670 C669 1.524 1_556 S
C670 C671 1.415 . S
C671 H641 0.950 . S
C671 C666 1.363 . S
C671 C670 1.415 . S
H672 C669 0.999 . S
H673 C654 0.913 . S
H674 C692 0.951 . S
H675 C694 0.951 . S
H676 C696 0.950 . S
H677 C697 0.950 . S
H678 C699 0.950 . S
H679 C702 0.950 . S
H680 C703 0.950 . S
H681 C705 0.950 . S
H682 C706 0.950 . S
H683 C707 0.951 . S
H684 C709 0.951 . S
H685 C711 0.950 . S
H686 C712 0.950 . S
H687 C714 0.950 . S
H688 C717 0.950 . S
H689 C718 0.950 . S
H690 C720 0.950 . S
H691 C721 0.950 . S
C692 H674 0.951 . S
C692 C693 1.366 . S
C692 C694 1.388 . S
C693 C692 1.366 . S
C693 C697 1.385 . S
C694 H675 0.951 . S
C694 C692 1.388 . S
C694 C695 1.366 . S
C695 C694 1.366 . S
C695 C696 1.414 . S
C695 C698 1.499 1_556 S
C696 H676 0.950 . S
C696 C695 1.414 . S
C696 C697 1.374 . S
C697 H677 0.950 . S
C697 C693 1.385 . S
C697 C696 1.374 . S
C698 C695 1.499 1_554 S
C698 C699 1.373 . S
C698 C700 1.389 . S
C699 H678 0.950 . S
C699 C698 1.373 . S
C699 C715 1.377 . S
C700 C698 1.389 . S
C700 C701 1.544 . S
C700 C714 1.377 . S
C701 C700 1.544 . S
C701 C702 1.378 1_554 S
C701 C706 1.367 . S
C702 H679 0.950 . S
C702 C701 1.378 1_556 S
C702 C703 1.334 . S
C703 H680 0.950 . S
C703 C702 1.334 . S
C703 C704 1.287 . S
C704 C703 1.287 . S
C704 C705 1.524 . S
C704 H723 0.913 . S
C705 H681 0.950 . S
C705 C704 1.524 . S
C705 C706 1.415 1_556 S
C706 H682 0.950 . S
C706 C701 1.367 . S
C706 C705 1.415 1_554 S
C707 H683 0.951 . S
C707 C708 1.366 . S
C707 C709 1.388 . S
C708 C707 1.366 . S
C708 C712 1.385 . S
C709 H684 0.951 . S
C709 C707 1.388 . S
C709 C710 1.366 . S
C710 C709 1.366 . S
C710 C711 1.414 . S
C710 C713 1.499 . S
C711 H685 0.950 . S
C711 C710 1.414 . S
C711 C712 1.374 . S
C712 H686 0.950 . S
C712 C708 1.385 . S
C712 C711 1.374 . S
C713 C710 1.499 . S
C713 C714 1.373 . S
C713 C715 1.389 . S
C714 H687 0.950 . S
C714 C700 1.377 . S
C714 C713 1.373 . S
C715 C699 1.377 . S
C715 C713 1.389 . S
C715 C716 1.524 . S
C716 C715 1.524 . S
C716 C717 1.397 . S
C716 C721 1.363 . S
C717 H688 0.950 . S
C717 C716 1.397 . S
C717 C718 1.334 . S
C718 H689 0.950 . S
C718 C717 1.334 . S
C718 C719 1.287 . S
C719 C718 1.287 . S
C719 C720 1.524 . S
C719 H722 0.999 . S
C720 H690 0.950 . S
C720 C719 1.524 . S
C720 C721 1.415 . S
C721 H691 0.950 . S
C721 C716 1.363 . S
C721 C720 1.415 . S
H722 C719 0.999 . S
H723 C704 0.913 . S
H724 C742 0.951 . S
H725 C744 0.951 . S
H726 C746 0.950 . S
H727 C747 0.950 . S
H728 C749 0.950 . S
H729 C752 0.950 . S
H730 C753 0.950 . S
H731 C755 0.950 . S
H732 C756 0.950 . S
H733 C757 0.951 . S
H734 C759 0.951 . S
H735 C761 0.950 . S
H736 C762 0.950 . S
H737 C764 0.950 . S
H738 C767 0.950 . S
H739 C768 0.950 . S
H740 C770 0.950 . S
H741 C771 0.950 . S
C742 H724 0.951 . S
C742 C743 1.366 . S
C742 C744 1.388 . S
C743 C742 1.366 . S
C743 C747 1.385 . S
C744 H725 0.951 . S
C744 C742 1.388 . S
C744 C745 1.366 . S
C745 C744 1.366 . S
C745 C746 1.414 . S
C745 C748 1.499 . S
C746 H726 0.950 . S
C746 C745 1.414 . S
C746 C747 1.374 . S
C747 H727 0.950 . S
C747 C743 1.385 . S
C747 C746 1.374 . S
C748 C745 1.499 . S
C748 C749 1.373 . S
C748 C750 1.389 . S
C749 H728 0.950 . S
C749 C748 1.373 . S
C749 C765 1.377 1_556 S
C750 C748 1.389 . S
C750 C751 1.524 . S
C750 C764 1.377 1_556 S
C751 C750 1.524 . S
C751 C752 1.397 . S
C751 C756 1.363 . S
C752 H729 0.950 . S
C752 C751 1.397 . S
C752 C753 1.334 . S
C753 H730 0.950 . S
C753 C752 1.334 . S
C753 C754 1.287 . S
C754 C753 1.287 . S
C754 C755 1.524 . S
C754 H773 0.913 . S
C755 H731 0.950 . S
C755 C754 1.524 . S
C755 C756 1.415 . S
C756 H732 0.950 . S
C756 C751 1.363 . S
C756 C755 1.415 . S
C757 H733 0.951 . S
C757 C758 1.366 . S
C757 C759 1.388 . S
C758 C757 1.366 . S
C758 C762 1.385 . S
C759 H734 0.951 . S
C759 C757 1.388 . S
C759 C760 1.366 . S
C760 C759 1.366 . S
C760 C761 1.414 . S
C760 C763 1.499 . S
C761 H735 0.950 . S
C761 C760 1.414 . S
C761 C762 1.374 . S
C762 H736 0.950 . S
C762 C758 1.385 . S
C762 C761 1.374 . S
C763 C760 1.499 . S
C763 C764 1.373 . S
C763 C765 1.389 . S
C764 H737 0.950 . S
C764 C750 1.377 1_554 S
C764 C763 1.373 . S
C765 C749 1.377 1_554 S
C765 C763 1.389 . S
C765 C766 1.524 . S
C766 C765 1.524 . S
C766 C767 1.397 . S
C766 C771 1.363 . S
C767 H738 0.950 . S
C767 C766 1.397 . S
C767 C768 1.334 . S
C768 H739 0.950 . S
C768 C767 1.334 . S
C768 C769 1.287 . S
C769 C768 1.287 . S
C769 C770 1.524 . S
C769 H772 0.999 . S
C770 H740 0.950 . S
C770 C769 1.524 . S
C770 C771 1.415 . S
C771 H741 0.950 . S
C771 C766 1.363 . S
C771 C770 1.415 . S
H772 C769 0.999 . S
H773 C754 0.913 . S
H774 C792 0.951 . S
H775 C794 0.951 . S
H776 C796 0.950 . S
H777 C797 0.950 . S
H778 C799 0.950 . S
H779 C802 0.950 . S
H780 C803 0.950 . S
H781 C805 0.950 . S
H782 C806 0.950 1_556 S
H783 C807 0.951 . S
H784 C809 0.951 . S
H785 C811 0.950 . S
H786 C812 0.950 . S
H787 C814 0.950 . S
H788 C817 0.950 . S
H789 C818 0.950 . S
H790 C820 0.950 . S
H791 C821 0.950 . S
C792 H774 0.951 . S
C792 C793 1.366 . S
C792 C794 1.388 . S
C793 C792 1.366 . S
C793 C797 1.385 . S
C794 H775 0.951 . S
C794 C792 1.388 . S
C794 C795 1.366 . S
C795 C794 1.366 . S
C795 C796 1.414 . S
C795 C798 1.499 . S
C796 H776 0.950 . S
C796 C795 1.414 . S
C796 C797 1.374 . S
C797 H777 0.950 . S
C797 C793 1.385 . S
C797 C796 1.374 . S
C798 C795 1.499 . S
C798 C799 1.373 . S
C798 C800 1.386 1_554 S
C799 H778 0.950 . S
C799 C798 1.373 . S
C799 C815 1.377 1_554 S
C800 C798 1.386 1_556 S
C800 C801 1.521 1_556 S
C800 C814 1.384 . S
C801 C800 1.521 1_554 S
C801 C802 1.397 . S
C801 C806 1.363 . S
C802 H779 0.950 . S
C802 C801 1.397 . S
C802 C803 1.334 . S
C803 H780 0.950 . S
C803 C802 1.334 . S
C803 C804 1.287 . S
C804 C803 1.287 . S
C804 C805 1.524 . S
C804 H823 0.913 . S
C805 H781 0.950 . S
C805 C804 1.524 . S
C805 C806 1.415 . S
C806 H782 0.950 1_554 S
C806 C801 1.363 . S
C806 C805 1.415 . S
C807 H783 0.951 . S
C807 C808 1.366 . S
C807 C809 1.388 . S
C808 C807 1.366 . S
C808 C812 1.385 . S
C809 H784 0.951 . S
C809 C807 1.388 . S
C809 C810 1.366 . S
C810 C809 1.366 . S
C810 C811 1.414 . S
C810 C813 1.499 . S
C811 H785 0.950 . S
C811 C810 1.414 . S
C811 C812 1.374 . S
C812 H786 0.950 . S
C812 C808 1.385 . S
C812 C811 1.374 . S
C813 C810 1.499 . S
C813 C814 1.373 . S
C813 C815 1.389 . S
C814 H787 0.950 . S
C814 C800 1.384 . S
C814 C813 1.373 . S
C815 C799 1.377 1_556 S
C815 C813 1.389 . S
C815 C816 1.524 . S
C816 C815 1.524 . S
C816 C817 1.397 . S
C816 C821 1.363 . S
C817 H788 0.950 . S
C817 C816 1.397 . S
C817 C818 1.334 . S
C818 H789 0.950 . S
C818 C817 1.334 . S
C818 C819 1.287 . S
C819 C818 1.287 . S
C819 C820 1.524 . S
C819 H822 0.999 . S
C820 H790 0.950 . S
C820 C819 1.524 . S
C820 C821 1.415 . S
C821 H791 0.950 . S
C821 C816 1.363 . S
C821 C820 1.415 . S
H822 C819 0.999 . S
H823 C804 0.913 . S
H824 C842 0.951 . S
H825 C844 0.951 . S
H826 C846 0.950 . S
H827 C847 0.950 . S
H828 C849 0.950 . S
H829 C852 0.950 . S
H830 C853 0.950 . S
H831 C855 0.950 . S
H832 C856 0.950 . S
H833 C857 0.951 . S
H834 C859 0.951 . S
H835 C861 0.950 . S
H836 C862 0.950 . S
H837 C864 0.950 . S
H838 C867 0.950 . S
H839 C868 0.950 . S
H840 C870 0.950 . S
H841 C871 0.982 . S
C842 H824 0.951 . S
C842 C843 1.366 . S
C842 C844 1.388 . S
C843 C842 1.366 . S
C843 C847 1.385 . S
C844 H825 0.951 . S
C844 C842 1.388 . S
C844 C845 1.366 . S
C845 C844 1.366 . S
C845 C846 1.414 . S
C845 C848 1.499 . S
C846 H826 0.950 . S
C846 C845 1.414 . S
C846 C847 1.374 . S
C847 H827 0.950 . S
C847 C843 1.385 . S
C847 C846 1.374 . S
C848 C845 1.499 . S
C848 C849 1.373 . S
C848 C850 1.389 . S
C849 H828 0.950 . S
C849 C848 1.373 . S
C849 C865 1.377 . S
C850 C848 1.389 . S
C850 C851 1.524 . S
C850 C864 1.377 . S
C851 C850 1.524 . S
C851 C852 1.397 . S
C851 C856 1.363 . S
C852 H829 0.950 . S
C852 C851 1.397 . S
C852 C853 1.334 . S
C853 H830 0.950 . S
C853 C852 1.334 . S
C853 C854 1.287 . S
C854 C853 1.287 . S
C854 C855 1.524 . S
C854 H873 0.913 . S
C855 H831 0.950 . S
C855 C854 1.524 . S
C855 C856 1.415 . S
C856 H832 0.950 . S
C856 C851 1.363 . S
C856 C855 1.415 . S
C857 H833 0.951 . S
C857 C858 1.366 . S
C857 C859 1.388 . S
C858 C857 1.366 . S
C858 C862 1.385 . S
C859 H834 0.951 . S
C859 C857 1.388 . S
C859 C860 1.366 . S
C860 C859 1.366 . S
C860 C861 1.414 . S
C860 C863 1.499 1_655 S
C861 H835 0.950 . S
C861 C860 1.414 . S
C861 C862 1.374 . S
C862 H836 0.950 . S
C862 C858 1.385 . S
C862 C861 1.374 . S
C863 C860 1.499 1_455 S
C863 C864 1.373 . S
C863 C865 1.389 . S
C864 H837 0.950 . S
C864 C850 1.377 . S
C864 C863 1.373 . S
C865 C849 1.377 . S
C865 C863 1.389 . S
C865 C866 1.524 1_455 S
C866 C865 1.524 1_655 S
C866 C867 1.397 . S
C866 C871 1.353 1_655 S
C867 H838 0.950 . S
C867 C866 1.397 . S
C867 C868 1.334 . S
C868 H839 0.950 . S
C868 C867 1.334 . S
C868 C869 1.287 . S
C869 C868 1.287 . S
C869 C870 1.524 . S
C869 H872 0.999 . S
C870 H840 0.950 . S
C870 C869 1.524 . S
C870 C871 1.395 1_655 S
C871 H841 0.982 . S
C871 C866 1.353 1_455 S
C871 C870 1.395 1_455 S
H872 C869 0.999 . S
H873 C854 0.913 . S
H874 C892 0.951 . S
H875 C894 0.951 . S
H876 C896 0.950 . S
H877 C897 0.950 . S
H878 C899 0.950 . S
H879 C902 0.950 . S
H880 C903 0.950 . S
H881 C905 0.950 . S
H882 C906 0.942 1_545 S
H883 C907 0.951 . S
H884 C909 0.951 . S
H885 C911 0.950 . S
H886 C912 0.950 . S
H887 C914 0.950 . S
H888 C917 0.950 . S
H889 C918 0.950 . S
H890 C920 0.950 . S
H891 C921 0.950 . S
C892 H874 0.951 . S
C892 C893 1.366 . S
C892 C894 1.388 . S
C893 C892 1.366 . S
C893 C897 1.385 . S
C894 H875 0.951 . S
C894 C892 1.388 . S
C894 C895 1.366 . S
C895 C894 1.366 . S
C895 C896 1.414 . S
C895 C898 1.499 . S
C896 H876 0.950 . S
C896 C895 1.414 . S
C896 C897 1.374 . S
C897 H877 0.950 . S
C897 C893 1.385 . S
C897 C896 1.374 . S
C898 C895 1.499 . S
C898 C899 1.373 1_565 S
C898 C900 1.389 1_565 S
C899 H878 0.950 . S
C899 C898 1.373 1_545 S
C899 C915 1.377 . S
C900 C898 1.389 1_545 S
C900 C901 1.524 1_545 S
C900 C914 1.377 . S
C901 C900 1.524 1_565 S
C901 C902 1.397 . S
C901 C906 1.364 . S
C902 H879 0.950 . S
C902 C901 1.397 . S
C902 C903 1.334 . S
C903 H880 0.950 . S
C903 C902 1.334 . S
C903 C904 1.287 . S
C904 C903 1.287 . S
C904 C905 1.524 . S
C904 H923 0.913 . S
C905 H881 0.950 . S
C905 C904 1.524 . S
C905 C906 1.421 . S
C906 H882 0.942 1_565 S
C906 C901 1.364 . S
C906 C905 1.421 . S
C907 H883 0.951 . S
C907 C908 1.366 . S
C907 C909 1.388 . S
C908 C907 1.366 . S
C908 C912 1.385 . S
C909 H884 0.951 . S
C909 C907 1.388 . S
C909 C910 1.366 . S
C910 C909 1.366 . S
C910 C911 1.414 . S
C910 C913 1.499 . S
C911 H885 0.950 . S
C911 C910 1.414 . S
C911 C912 1.374 . S
C912 H886 0.950 . S
C912 C908 1.385 . S
C912 C911 1.374 . S
C913 C910 1.499 . S
C913 C914 1.373 . S
C913 C915 1.389 . S
C914 H887 0.950 . S
C914 C900 1.377 . S
C914 C913 1.373 . S
C915 C899 1.377 . S
C915 C913 1.389 . S
C915 C916 1.524 . S
C916 C915 1.524 . S
C916 C917 1.397 . S
C916 C921 1.363 . S
C917 H888 0.950 . S
C917 C916 1.397 . S
C917 C918 1.334 . S
C918 H889 0.950 . S
C918 C917 1.334 . S
C918 C919 1.287 . S
C919 C918 1.287 . S
C919 C920 1.524 . S
C919 H922 0.999 . S
C920 H890 0.950 . S
C920 C919 1.524 . S
C920 C921 1.415 . S
C921 H891 0.950 . S
C921 C916 1.363 . S
C921 C920 1.415 . S
H922 C919 0.999 . S
H923 C904 0.913 . S
H924 C942 0.951 . S
H925 C944 0.951 . S
H926 C946 0.950 . S
H927 C947 0.950 . S
H928 C949 0.950 . S
H929 C952 0.950 . S
H930 C953 0.950 . S
H931 C955 0.950 . S
H932 C956 0.950 . S
H933 C957 0.951 . S
H934 C959 0.951 . S
H935 C961 0.950 . S
H936 C962 0.950 . S
H937 C964 0.950 . S
H938 C967 0.950 . S
H939 C968 0.950 . S
H940 C970 0.950 . S
H941 C971 0.950 . S
C942 H924 0.951 . S
C942 C943 1.366 . S
C942 C944 1.388 . S
C943 C942 1.366 . S
C943 C947 1.385 . S
C944 H925 0.951 . S
C944 C942 1.388 . S
C944 C945 1.366 . S
C945 C944 1.366 . S
C945 C946 1.414 . S
C945 C948 1.499 . S
C946 H926 0.950 . S
C946 C945 1.414 . S
C946 C947 1.374 . S
C947 H927 0.950 . S
C947 C943 1.385 . S
C947 C946 1.374 . S
C948 C945 1.499 . S
C948 C949 1.373 . S
C948 C950 1.389 . S
C949 H928 0.950 . S
C949 C948 1.373 . S
C949 C965 1.377 . S
C950 C948 1.389 . S
C950 C951 1.524 . S
C950 C964 1.377 . S
C951 C950 1.524 . S
C951 C952 1.397 . S
C951 C956 1.363 . S
C952 H929 0.950 . S
C952 C951 1.397 . S
C952 C953 1.334 . S
C953 H930 0.950 . S
C953 C952 1.334 . S
C953 C954 1.287 . S
C954 C953 1.287 . S
C954 C955 1.524 . S
C954 H973 0.913 . S
C955 H931 0.950 . S
C955 C954 1.524 . S
C955 C956 1.415 . S
C956 H932 0.950 . S
C956 C951 1.363 . S
C956 C955 1.415 . S
C957 H933 0.951 . S
C957 C958 1.366 . S
C957 C959 1.388 . S
C958 C957 1.366 . S
C958 C962 1.385 . S
C959 H934 0.951 . S
C959 C957 1.388 . S
C959 C960 1.366 . S
C960 C959 1.366 . S
C960 C961 1.414 . S
C960 C963 1.499 . S
C961 H935 0.950 . S
C961 C960 1.414 . S
C961 C962 1.374 . S
C962 H936 0.950 . S
C962 C958 1.385 . S
C962 C961 1.374 . S
C963 C960 1.499 . S
C963 C964 1.373 1_455 S
C963 C965 1.389 1_455 S
C964 H937 0.950 . S
C964 C950 1.377 . S
C964 C963 1.373 1_655 S
C965 C949 1.377 . S
C965 C963 1.389 1_655 S
C965 C966 1.524 1_655 S
C966 C965 1.524 1_455 S
C966 C967 1.397 . S
C966 C971 1.363 . S
C967 H938 0.950 . S
C967 C966 1.397 . S
C967 C968 1.334 . S
C968 H939 0.950 . S
C968 C967 1.334 . S
C968 C969 1.287 . S
C969 C968 1.287 . S
C969 C970 1.524 . S
C969 H972 0.999 . S
C970 H940 0.950 . S
C970 C969 1.524 . S
C970 C971 1.415 . S
C971 H941 0.950 . S
C971 C966 1.363 . S
C971 C970 1.415 . S
H972 C969 0.999 . S
H973 C954 0.913 . S
H974 C992 0.951 . S
H975 C994 0.951 . S
H976 C996 0.950 . S
H977 C997 0.950 . S
H978 C999 0.950 . S
H979 C1002 0.950 . S
H980 C1003 0.950 . S
H981 C1005 0.950 . S
H982 C1006 0.950 . S
H983 C1007 0.951 . S
H984 C1009 0.951 . S
H985 C1011 0.950 . S
H986 C1012 0.950 . S
H987 C1014 0.950 . S
H988 C1017 0.950 . S
H989 C1018 0.950 . S
H990 C1020 0.950 . S
H991 C1021 0.950 . S
C992 H974 0.951 . S
C992 C993 1.366 . S
C992 C994 1.388 . S
C993 C992 1.366 . S
C993 C997 1.385 . S
C994 H975 0.951 . S
C994 C992 1.388 . S
C994 C995 1.366 . S
C995 C994 1.366 . S
C995 C996 1.414 . S
C995 C998 1.495 . S
C996 H976 0.950 . S
C996 C995 1.414 . S
C996 C997 1.374 . S
C997 H977 0.950 . S
C997 C993 1.385 . S
C997 C996 1.374 . S
C998 C995 1.495 . S
C998 C999 1.375 1_545 S
C998 C1000 1.391 1_545 S
C999 H978 0.950 . S
C999 C998 1.375 1_565 S
C999 C1015 1.377 . S
C1000 C998 1.391 1_565 S
C1000 C1001 1.524 . S
C1000 C1014 1.377 . S
C1001 C1000 1.524 . S
C1001 C1002 1.397 1_565 S
C1001 C1006 1.363 . S
C1002 H979 0.950 . S
C1002 C1001 1.397 1_545 S
C1002 C1003 1.334 . S
C1003 H980 0.950 . S
C1003 C1002 1.334 . S
C1003 C1004 1.287 . S
C1004 C1003 1.287 . S
C1004 C1005 1.524 1_545 S
C1004 H1023 0.913 . S
C1005 H981 0.950 . S
C1005 C1004 1.524 1_565 S
C1005 C1006 1.415 . S
C1006 H982 0.950 . S
C1006 C1001 1.363 . S
C1006 C1005 1.415 . S
C1007 H983 0.951 . S
C1007 C1008 1.366 . S
C1007 C1009 1.388 . S
C1008 C1007 1.366 . S
C1008 C1012 1.385 . S
C1009 H984 0.951 . S
C1009 C1007 1.388 . S
C1009 C1010 1.366 . S
C1010 C1009 1.366 . S
C1010 C1011 1.414 . S
C1010 C1013 1.499 . S
C1011 H985 0.950 . S
C1011 C1010 1.414 . S
C1011 C1012 1.374 . S
C1012 H986 0.950 . S
C1012 C1008 1.385 . S
C1012 C1011 1.374 . S
C1013 C1010 1.499 . S
C1013 C1014 1.373 . S
C1013 C1015 1.389 . S
C1014 H987 0.950 . S
C1014 C1000 1.377 . S
C1014 C1013 1.373 . S
C1015 C999 1.377 . S
C1015 C1013 1.389 . S
C1015 C1016 1.524 . S
C1016 C1015 1.524 . S
C1016 C1017 1.397 . S
C1016 C1021 1.363 . S
C1017 H988 0.950 . S
C1017 C1016 1.397 . S
C1017 C1018 1.334 . S
C1018 H989 0.950 . S
C1018 C1017 1.334 . S
C1018 C1019 1.287 . S
C1019 C1018 1.287 . S
C1019 C1020 1.524 . S
C1019 H1022 0.999 . S
C1020 H990 0.950 . S
C1020 C1019 1.524 . S
C1020 C1021 1.415 . S
C1021 H991 0.950 . S
C1021 C1016 1.363 . S
C1021 C1020 1.415 . S
H1022 C1019 0.999 . S
H1023 C1004 0.913 . S
H1024 C1042 0.951 . S
H1025 C1044 0.951 . S
H1026 C1046 0.950 . S
H1027 C1047 0.950 . S
H1028 C1049 0.950 . S
H1029 C1052 0.950 . S
H1030 C1053 0.950 . S
H1031 C1055 0.950 . S
H1032 C1056 0.950 . S
H1033 C1057 0.951 . S
H1034 C1059 0.923 1_655 S
H1035 C1061 0.950 . S
H1036 C1062 0.950 . S
H1037 C1064 0.950 . S
H1038 C1067 0.950 . S
H1039 C1068 0.950 . S
H1040 C1070 0.950 . S
H1041 C1071 0.950 . S
C1042 H1024 0.951 . S
C1042 C1043 1.366 . S
C1042 C1044 1.388 . S
C1043 C1042 1.366 . S
C1043 C1047 1.385 . S
C1044 H1025 0.951 . S
C1044 C1042 1.388 . S
C1044 C1045 1.366 . S
C1045 C1044 1.366 . S
C1045 C1046 1.414 . S
C1045 C1048 1.499 . S
C1046 H1026 0.950 . S
C1046 C1045 1.414 . S
C1046 C1047 1.374 . S
C1047 H1027 0.950 . S
C1047 C1043 1.385 . S
C1047 C1046 1.374 . S
C1048 C1045 1.499 . S
C1048 C1049 1.373 . S
C1048 C1050 1.389 . S
C1049 H1028 0.950 . S
C1049 C1048 1.373 . S
C1049 C1065 1.377 . S
C1050 C1048 1.389 . S
C1050 C1051 1.524 . S
C1050 C1064 1.377 . S
C1051 C1050 1.524 . S
C1051 C1052 1.397 . S
C1051 C1056 1.363 . S
C1052 H1029 0.950 . S
C1052 C1051 1.397 . S
C1052 C1053 1.334 . S
C1053 H1030 0.950 . S
C1053 C1052 1.334 . S
C1053 C1054 1.287 . S
C1054 C1053 1.287 . S
C1054 C1055 1.524 . S
C1054 H1073 0.913 . S
C1055 H1031 0.950 . S
C1055 C1054 1.524 . S
C1055 C1056 1.415 . S
C1056 H1032 0.950 . S
C1056 C1051 1.363 . S
C1056 C1055 1.415 . S
C1057 H1033 0.951 . S
C1057 C1058 1.366 . S
C1057 C1059 1.388 . S
C1058 C1057 1.366 . S
C1058 C1062 1.385 . S
C1059 H1034 0.923 1_455 S
C1059 C1057 1.388 . S
C1059 C1060 1.366 . S
C1060 C1059 1.366 . S
C1060 C1061 1.414 . S
C1060 C1063 1.499 1_455 S
C1061 H1035 0.950 . S
C1061 C1060 1.414 . S
C1061 C1062 1.374 . S
C1062 H1036 0.950 . S
C1062 C1058 1.385 . S
C1062 C1061 1.374 . S
C1063 C1060 1.499 1_655 S
C1063 C1064 1.373 . S
C1063 C1065 1.389 . S
C1064 H1037 0.950 . S
C1064 C1050 1.377 . S
C1064 C1063 1.373 . S
C1065 C1049 1.377 . S
C1065 C1063 1.389 . S
C1065 C1066 1.524 . S
C1066 C1065 1.524 . S
C1066 C1067 1.397 . S
C1066 C1071 1.363 . S
C1067 H1038 0.950 . S
C1067 C1066 1.397 . S
C1067 C1068 1.334 . S
C1068 H1039 0.950 . S
C1068 C1067 1.334 . S
C1068 C1069 1.287 . S
C1069 C1068 1.287 . S
C1069 C1070 1.524 . S
C1069 H1072 0.999 . S
C1070 H1040 0.950 . S
C1070 C1069 1.524 . S
C1070 C1071 1.415 . S
C1071 H1041 0.950 . S
C1071 C1066 1.363 . S
C1071 C1070 1.415 . S
H1072 C1069 0.999 . S
H1073 C1054 0.913 . S
H1074 C1092 0.951 . S
H1075 C1094 0.951 . S
H1076 C1096 0.950 . S
H1077 C1097 0.950 . S
H1078 C1099 0.950 . S
H1079 C1102 0.950 . S
H1080 C1103 0.950 . S
H1081 C1105 0.950 . S
H1082 C1106 0.950 . S
H1083 C1107 0.951 . S
H1084 C1109 0.951 . S
H1085 C1111 0.950 . S
H1086 C1112 0.950 . S
H1087 C1114 0.950 . S
H1088 C1117 0.950 . S
H1089 C1118 0.950 . S
H1090 C1120 0.950 . S
H1091 C1121 0.950 . S
C1092 H1074 0.951 . S
C1092 C1093 1.366 . S
C1092 C1094 1.388 . S
C1093 C1092 1.366 . S
C1093 C1097 1.385 . S
C1094 H1075 0.951 . S
C1094 C1092 1.388 . S
C1094 C1095 1.366 . S
C1095 C1094 1.366 . S
C1095 C1096 1.414 . S
C1095 C1098 1.499 . S
C1096 H1076 0.950 . S
C1096 C1095 1.414 . S
C1096 C1097 1.374 . S
C1097 H1077 0.950 . S
C1097 C1093 1.385 . S
C1097 C1096 1.374 . S
C1098 C1095 1.499 . S
C1098 C1099 1.373 . S
C1098 C1100 1.389 . S
C1099 H1078 0.950 . S
C1099 C1098 1.373 . S
C1099 C1115 1.377 . S
C1100 C1098 1.389 . S
C1100 C1101 1.524 . S
C1100 C1114 1.377 . S
C1101 C1100 1.524 . S
C1101 C1102 1.397 . S
C1101 C1106 1.363 . S
C1102 H1079 0.950 . S
C1102 C1101 1.397 . S
C1102 C1103 1.334 . S
C1103 H1080 0.950 . S
C1103 C1102 1.334 . S
C1103 C1104 1.287 . S
C1104 C1103 1.287 . S
C1104 C1105 1.524 . S
C1104 H1123 0.913 . S
C1105 H1081 0.950 . S
C1105 C1104 1.524 . S
C1105 C1106 1.415 . S
C1106 H1082 0.950 . S
C1106 C1101 1.363 . S
C1106 C1105 1.415 . S
C1107 H1083 0.951 . S
C1107 C1108 1.366 . S
C1107 C1109 1.388 . S
C1108 C1107 1.366 . S
C1108 C1112 1.385 . S
C1109 H1084 0.951 . S
C1109 C1107 1.388 . S
C1109 C1110 1.334 1_545 S
C1110 C1109 1.334 1_565 S
C1110 C1111 1.395 1_565 S
C1110 C1113 1.549 . S
C1111 H1085 0.950 . S
C1111 C1110 1.395 1_545 S
C1111 C1112 1.374 . S
C1112 H1086 0.950 . S
C1112 C1108 1.385 . S
C1112 C1111 1.374 . S
C1113 C1110 1.549 . S
C1113 C1114 1.373 . S
C1113 C1115 1.389 . S
C1114 H1087 0.950 . S
C1114 C1100 1.377 . S
C1114 C1113 1.373 . S
C1115 C1099 1.377 . S
C1115 C1113 1.389 . S
C1115 C1116 1.524 . S
C1116 C1115 1.524 . S
C1116 C1117 1.397 . S
C1116 C1121 1.363 . S
C1117 H1088 0.950 . S
C1117 C1116 1.397 . S
C1117 C1118 1.334 . S
C1118 H1089 0.950 . S
C1118 C1117 1.334 . S
C1118 C1119 1.287 . S
C1119 C1118 1.287 . S
C1119 C1120 1.524 . S
C1119 H1122 0.999 . S
C1120 H1090 0.950 . S
C1120 C1119 1.524 . S
C1120 C1121 1.415 . S
C1121 H1091 0.950 . S
C1121 C1116 1.363 . S
C1121 C1120 1.415 . S
H1122 C1119 0.999 . S
H1123 C1104 0.913 . S
H1124 C1142 0.951 . S
H1125 C1144 0.951 . S
H1126 C1146 0.950 . S
H1127 C1147 0.950 . S
H1128 C1149 0.950 . S
H1129 C1152 0.950 . S
H1130 C1153 0.950 . S
H1131 C1155 0.950 . S
H1132 C1156 0.950 . S
H1133 C1157 0.951 . S
H1134 C1159 0.951 . S
H1135 C1161 0.950 . S
H1136 C1162 0.950 . S
H1137 C1164 0.950 . S
H1138 C1167 0.950 . S
H1139 C1168 0.950 . S
H1140 C1170 0.950 . S
H1141 C1171 0.950 . S
C1142 H1124 0.951 . S
C1142 C1143 1.366 . S
C1142 C1144 1.388 . S
C1143 C1142 1.366 . S
C1143 C1147 1.385 . S
C1144 H1125 0.951 . S
C1144 C1142 1.388 . S
C1144 C1145 1.366 . S
C1145 C1144 1.366 . S
C1145 C1146 1.414 . S
C1145 C1148 1.499 . S
C1146 H1126 0.950 . S
C1146 C1145 1.414 . S
C1146 C1147 1.374 . S
C1147 H1127 0.950 . S
C1147 C1143 1.385 . S
C1147 C1146 1.374 . S
C1148 C1145 1.499 . S
C1148 C1149 1.373 . S
C1148 C1150 1.389 . S
C1149 H1128 0.950 . S
C1149 C1148 1.373 . S
C1149 C1165 1.377 1_455 S
C1150 C1148 1.389 . S
C1150 C1151 1.524 . S
C1150 C1164 1.377 . S
C1151 C1150 1.524 . S
C1151 C1152 1.397 . S
C1151 C1156 1.363 . S
C1152 H1129 0.950 . S
C1152 C1151 1.397 . S
C1152 C1153 1.334 . S
C1153 H1130 0.950 . S
C1153 C1152 1.334 . S
C1153 C1154 1.287 . S
C1154 C1153 1.287 . S
C1154 C1155 1.524 . S
C1154 H1173 0.913 . S
C1155 H1131 0.950 . S
C1155 C1154 1.524 . S
C1155 C1156 1.415 . S
C1156 H1132 0.950 . S
C1156 C1151 1.363 . S
C1156 C1155 1.415 . S
C1157 H1133 0.951 . S
C1157 C1158 1.366 . S
C1157 C1159 1.388 . S
C1158 C1157 1.366 . S
C1158 C1162 1.385 . S
C1159 H1134 0.951 . S
C1159 C1157 1.388 . S
C1159 C1160 1.366 . S
C1160 C1159 1.366 . S
C1160 C1161 1.414 . S
C1160 C1163 1.499 . S
C1161 H1135 0.950 . S
C1161 C1160 1.414 . S
C1161 C1162 1.374 . S
C1162 H1136 0.950 . S
C1162 C1158 1.385 . S
C1162 C1161 1.374 . S
C1163 C1160 1.499 . S
C1163 C1164 1.373 1_655 S
C1163 C1165 1.389 . S
C1164 H1137 0.950 . S
C1164 C1150 1.377 . S
C1164 C1163 1.373 1_455 S
C1165 C1149 1.377 1_655 S
C1165 C1163 1.389 . S
C1165 C1166 1.524 . S
C1166 C1165 1.524 . S
C1166 C1167 1.397 . S
C1166 C1171 1.363 . S
C1167 H1138 0.950 . S
C1167 C1166 1.397 . S
C1167 C1168 1.334 . S
C1168 H1139 0.950 . S
C1168 C1167 1.334 . S
C1168 C1169 1.287 . S
C1169 C1168 1.287 . S
C1169 C1170 1.524 . S
C1169 H1172 0.999 . S
C1170 H1140 0.950 . S
C1170 C1169 1.524 . S
C1170 C1171 1.415 . S
C1171 H1141 0.950 . S
C1171 C1166 1.363 . S
C1171 C1170 1.415 . S
H1172 C1169 0.999 . S
H1173 C1154 0.913 . S
H1174 C1192 0.951 . S
H1175 C1194 0.959 . S
H1176 C1196 0.950 1_545 S
H1177 C1197 0.950 . S
H1178 C1199 0.950 . S
H1179 C1202 0.950 . S
H1180 C1203 0.961 . S
H1181 C1205 0.950 . S
H1182 C1206 0.950 . S
H1183 C1207 0.951 . S
H1184 C1209 0.951 . S
H1185 C1211 0.950 . S
H1186 C1212 0.950 . S
H1187 C1214 0.950 . S
H1188 C1217 0.950 . S
H1189 C1218 0.950 . S
H1190 C1220 0.950 . S
H1191 C1221 0.950 . S
C1192 H1174 0.951 . S
C1192 C1193 1.366 . S
C1192 C1194 1.388 . S
C1193 C1192 1.366 . S
C1193 C1197 1.385 . S
C1194 H1175 0.959 . S
C1194 C1192 1.388 . S
C1194 C1195 1.366 1_565 S
C1195 C1194 1.366 1_545 S
C1195 C1196 1.414 1_545 S
C1195 C1198 1.499 . S
C1196 H1176 0.950 1_565 S
C1196 C1195 1.414 1_565 S
C1196 C1197 1.374 . S
C1197 H1177 0.950 . S
C1197 C1193 1.385 . S
C1197 C1196 1.374 . S
C1198 C1195 1.499 . S
C1198 C1199 1.373 . S
C1198 C1200 1.389 . S
C1199 H1178 0.950 . S
C1199 C1198 1.373 . S
C1199 C1215 1.377 . S
C1200 C1198 1.389 . S
C1200 C1201 1.524 . S
C1200 C1214 1.377 . S
C1201 C1200 1.524 . S
C1201 C1202 1.397 . S
C1201 C1206 1.363 . S
C1202 H1179 0.950 . S
C1202 C1201 1.397 . S
C1202 C1203 1.334 . S
C1203 H1180 0.961 . S
C1203 C1202 1.334 . S
C1203 C1204 1.287 . S
C1204 C1203 1.287 . S
C1204 C1205 1.524 . S
C1204 H1223 0.913 . S
C1205 H1181 0.950 . S
C1205 C1204 1.524 . S
C1205 C1206 1.415 . S
C1206 H1182 0.950 . S
C1206 C1201 1.363 . S
C1206 C1205 1.415 . S
C1207 H1183 0.951 . S
C1207 C1208 1.366 . S
C1207 C1209 1.388 . S
C1208 C1207 1.366 . S
C1208 C1212 1.385 . S
C1209 H1184 0.951 . S
C1209 C1207 1.388 . S
C1209 C1210 1.366 . S
C1210 C1209 1.366 . S
C1210 C1211 1.414 . S
C1210 C1213 1.499 . S
C1211 H1185 0.950 . S
C1211 C1210 1.414 . S
C1211 C1212 1.374 . S
C1212 H1186 0.950 . S
C1212 C1208 1.385 . S
C1212 C1211 1.374 . S
C1213 C1210 1.499 . S
C1213 C1214 1.373 . S
C1213 C1215 1.389 . S
C1214 H1187 0.950 . S
C1214 C1200 1.377 . S
C1214 C1213 1.373 . S
C1215 C1199 1.377 . S
C1215 C1213 1.389 . S
C1215 C1216 1.524 . S
C1216 C1215 1.524 . S
C1216 C1217 1.397 . S
C1216 C1221 1.363 . S
C1217 H1188 0.950 . S
C1217 C1216 1.397 . S
C1217 C1218 1.334 . S
C1218 H1189 0.950 . S
C1218 C1217 1.334 . S
C1218 C1219 1.287 . S
C1219 C1218 1.287 . S
C1219 C1220 1.524 . S
C1219 H1222 0.999 . S
C1220 H1190 0.950 . S
C1220 C1219 1.524 . S
C1220 C1221 1.415 . S
C1221 H1191 0.950 . S
C1221 C1216 1.363 . S
C1221 C1220 1.415 . S
H1222 C1219 0.999 . S
H1223 C1204 0.913 . S
H1224 C1242 0.951 . S
H1225 C1244 0.951 . S
H1226 C1246 0.950 . S
H1227 C1247 0.950 . S
H1228 C1249 0.950 . S
H1229 C1252 0.950 . S
H1230 C1253 0.950 . S
H1231 C1255 0.950 . S
H1232 C1256 0.950 . S
H1233 C1257 0.951 . S
H1234 C1259 0.951 . S
H1235 C1261 0.950 . S
H1236 C1262 0.950 . S
H1237 C1264 0.950 . S
H1238 C1267 0.950 . S
H1239 C1268 0.950 . S
H1240 C1270 0.950 . S
H1241 C1271 0.950 . S
C1242 H1224 0.951 . S
C1242 C1243 1.366 . S
C1242 C1244 1.388 . S
C1243 C1242 1.366 . S
C1243 C1247 1.385 . S
C1244 H1225 0.951 . S
C1244 C1242 1.388 . S
C1244 C1245 1.366 . S
C1245 C1244 1.366 . S
C1245 C1246 1.414 . S
C1245 C1248 1.499 . S
C1246 H1226 0.950 . S
C1246 C1245 1.414 . S
C1246 C1247 1.374 . S
C1247 H1227 0.950 . S
C1247 C1243 1.385 . S
C1247 C1246 1.374 . S
C1248 C1245 1.499 . S
C1248 C1249 1.373 . S
C1248 C1250 1.389 . S
C1249 H1228 0.950 . S
C1249 C1248 1.373 . S
C1249 C1265 1.377 . S
C1250 C1248 1.389 . S
C1250 C1251 1.524 . S
C1250 C1264 1.377 . S
C1251 C1250 1.524 . S
C1251 C1252 1.397 . S
C1251 C1256 1.363 . S
C1252 H1229 0.950 . S
C1252 C1251 1.397 . S
C1252 C1253 1.334 . S
C1253 H1230 0.950 . S
C1253 C1252 1.334 . S
C1253 C1254 1.287 . S
C1254 C1253 1.287 . S
C1254 C1255 1.524 . S
C1254 H1273 0.913 . S
C1255 H1231 0.950 . S
C1255 C1254 1.524 . S
C1255 C1256 1.415 . S
C1256 H1232 0.950 . S
C1256 C1251 1.363 . S
C1256 C1255 1.415 . S
C1257 H1233 0.951 . S
C1257 C1258 1.366 . S
C1257 C1259 1.388 . S
C1258 C1257 1.366 . S
C1258 C1262 1.385 . S
C1259 H1234 0.951 . S
C1259 C1257 1.388 . S
C1259 C1260 1.366 . S
C1260 C1259 1.366 . S
C1260 C1261 1.414 . S
C1260 C1263 1.499 . S
C1261 H1235 0.950 . S
C1261 C1260 1.414 . S
C1261 C1262 1.374 . S
C1262 H1236 0.950 . S
C1262 C1258 1.385 . S
C1262 C1261 1.374 . S
C1263 C1260 1.499 . S
C1263 C1264 1.373 . S
C1263 C1265 1.389 . S
C1264 H1237 0.950 . S
C1264 C1250 1.377 . S
C1264 C1263 1.373 . S
C1265 C1249 1.377 . S
C1265 C1263 1.389 . S
C1265 C1266 1.524 . S
C1266 C1265 1.524 . S
C1266 C1267 1.397 . S
C1266 C1271 1.363 . S
C1267 H1238 0.950 . S
C1267 C1266 1.397 . S
C1267 C1268 1.334 . S
C1268 H1239 0.950 . S
C1268 C1267 1.334 . S
C1268 C1269 1.287 . S
C1269 C1268 1.287 . S
C1269 C1270 1.524 . S
C1269 H1272 0.999 . S
C1270 H1240 0.950 . S
C1270 C1269 1.524 . S
C1270 C1271 1.415 . S
C1271 H1241 0.950 . S
C1271 C1266 1.363 . S
C1271 C1270 1.415 . S
H1272 C1269 0.999 . S
H1273 C1254 0.913 . S
H1274 C1292 0.951 . S
H1275 C1294 0.951 . S
H1276 C1296 0.950 . S
H1277 C1297 0.950 . S
H1278 C1299 0.950 . S
H1279 C1302 0.950 . S
H1280 C1303 0.950 . S
H1281 C1305 0.950 . S
H1282 C1306 0.950 . S
H1283 C1307 0.951 . S
H1284 C1309 0.951 . S
H1285 C1311 0.950 . S
H1286 C1312 0.950 . S
H1287 C1314 0.950 . S
H1288 C1317 0.950 . S
H1289 C1318 0.950 . S
H1290 C1320 0.950 . S
H1291 C1321 0.950 . S
C1292 H1274 0.951 . S
C1292 C1293 1.366 . S
C1292 C1294 1.388 . S
C1293 C1292 1.366 . S
C1293 C1297 1.385 . S
C1294 H1275 0.951 . S
C1294 C1292 1.388 . S
C1294 C1295 1.366 . S
C1295 C1294 1.366 . S
C1295 C1296 1.414 . S
C1295 C1298 1.499 . S
C1296 H1276 0.950 . S
C1296 C1295 1.414 . S
C1296 C1297 1.374 . S
C1297 H1277 0.950 . S
C1297 C1293 1.385 . S
C1297 C1296 1.374 . S
C1298 C1295 1.499 . S
C1298 C1299 1.373 . S
C1298 C1300 1.389 . S
C1299 H1278 0.950 . S
C1299 C1298 1.373 . S
C1299 C1315 1.377 . S
C1300 C1298 1.389 . S
C1300 C1301 1.524 . S
C1300 C1314 1.377 . S
C1301 C1300 1.524 . S
C1301 C1302 1.397 . S
C1301 C1306 1.363 . S
C1302 H1279 0.950 . S
C1302 C1301 1.397 . S
C1302 C1303 1.334 . S
C1303 H1280 0.950 . S
C1303 C1302 1.334 . S
C1303 C1304 1.287 . S
C1304 C1303 1.287 . S
C1304 C1305 1.524 . S
C1304 H1323 0.913 . S
C1305 H1281 0.950 . S
C1305 C1304 1.524 . S
C1305 C1306 1.415 . S
C1306 H1282 0.950 . S
C1306 C1301 1.363 . S
C1306 C1305 1.415 . S
C1307 H1283 0.951 . S
C1307 C1308 1.366 . S
C1307 C1309 1.388 . S
C1308 C1307 1.366 . S
C1308 C1312 1.385 . S
C1309 H1284 0.951 . S
C1309 C1307 1.388 . S
C1309 C1310 1.366 . S
C1310 C1309 1.366 . S
C1310 C1311 1.414 . S
C1310 C1313 1.499 . S
C1311 H1285 0.950 . S
C1311 C1310 1.414 . S
C1311 C1312 1.374 . S
C1312 H1286 0.950 . S
C1312 C1308 1.385 . S
C1312 C1311 1.374 . S
C1313 C1310 1.499 . S
C1313 C1314 1.373 . S
C1313 C1315 1.389 . S
C1314 H1287 0.950 . S
C1314 C1300 1.377 . S
C1314 C1313 1.373 . S
C1315 C1299 1.377 . S
C1315 C1313 1.389 . S
C1315 C1316 1.524 . S
C1316 C1315 1.524 . S
C1316 C1317 1.397 . S
C1316 C1321 1.363 . S
C1317 H1288 0.950 . S
C1317 C1316 1.397 . S
C1317 C1318 1.334 . S
C1318 H1289 0.950 . S
C1318 C1317 1.334 . S
C1318 C1319 1.287 . S
C1319 C1318 1.287 . S
C1319 C1320 1.524 . S
C1319 H1322 0.999 . S
C1320 H1290 0.950 . S
C1320 C1319 1.524 . S
C1320 C1321 1.415 . S
C1321 H1291 0.950 . S
C1321 C1316 1.363 . S
C1321 C1320 1.415 . S
H1322 C1319 0.999 . S
H1323 C1304 0.913 . S
H1324 C1342 0.951 . S
H1325 C1344 0.951 . S
H1326 C1346 0.950 . S
H1327 C1347 0.950 . S
H1328 C1349 0.950 . S
H1329 C1352 0.950 . S
H1330 C1353 0.950 . S
H1331 C1355 0.950 . S
H1332 C1356 0.950 . S
H1333 C1357 0.951 . S
H1334 C1359 0.951 . S
H1335 C1361 0.950 . S
H1336 C1362 0.950 . S
H1337 C1364 0.950 . S
H1338 C1367 0.950 . S
H1339 C1368 0.950 . S
H1340 C1370 0.950 . S
H1341 C1371 0.950 . S
C1342 H1324 0.951 . S
C1342 C1343 1.366 . S
C1342 C1344 1.388 . S
C1343 C1342 1.366 . S
C1343 C1347 1.385 . S
C1344 H1325 0.951 . S
C1344 C1342 1.388 . S
C1344 C1345 1.366 . S
C1345 C1344 1.366 . S
C1345 C1346 1.414 . S
C1345 C1348 1.499 . S
C1346 H1326 0.950 . S
C1346 C1345 1.414 . S
C1346 C1347 1.374 . S
C1347 H1327 0.950 . S
C1347 C1343 1.385 . S
C1347 C1346 1.374 . S
C1348 C1345 1.499 . S
C1348 C1349 1.373 . S
C1348 C1350 1.389 . S
C1349 H1328 0.950 . S
C1349 C1348 1.373 . S
C1349 C1365 1.377 . S
C1350 C1348 1.389 . S
C1350 C1351 1.524 . S
C1350 C1364 1.377 . S
C1351 C1350 1.524 . S
C1351 C1352 1.397 . S
C1351 C1356 1.363 . S
C1352 H1329 0.950 . S
C1352 C1351 1.397 . S
C1352 C1353 1.334 . S
C1353 H1330 0.950 . S
C1353 C1352 1.334 . S
C1353 C1354 1.287 . S
C1354 C1353 1.287 . S
C1354 C1355 1.524 . S
C1354 H1373 0.913 . S
C1355 H1331 0.950 . S
C1355 C1354 1.524 . S
C1355 C1356 1.415 . S
C1356 H1332 0.950 . S
C1356 C1351 1.363 . S
C1356 C1355 1.415 . S
C1357 H1333 0.951 . S
C1357 C1358 1.366 . S
C1357 C1359 1.388 . S
C1358 C1357 1.366 . S
C1358 C1362 1.385 . S
C1359 H1334 0.951 . S
C1359 C1357 1.388 . S
C1359 C1360 1.366 . S
C1360 C1359 1.366 . S
C1360 C1361 1.414 . S
C1360 C1363 1.499 . S
C1361 H1335 0.950 . S
C1361 C1360 1.414 . S
C1361 C1362 1.374 . S
C1362 H1336 0.950 . S
C1362 C1358 1.385 . S
C1362 C1361 1.374 . S
C1363 C1360 1.499 . S
C1363 C1364 1.373 . S
C1363 C1365 1.389 . S
C1364 H1337 0.950 . S
C1364 C1350 1.377 . S
C1364 C1363 1.373 . S
C1365 C1349 1.377 . S
C1365 C1363 1.389 . S
C1365 C1366 1.524 . S
C1366 C1365 1.524 . S
C1366 C1367 1.397 . S
C1366 C1371 1.363 . S
C1367 H1338 0.950 . S
C1367 C1366 1.397 . S
C1367 C1368 1.334 . S
C1368 H1339 0.950 . S
C1368 C1367 1.334 . S
C1368 C1369 1.287 . S
C1369 C1368 1.287 . S
C1369 C1370 1.524 . S
C1369 H1372 0.999 . S
C1370 H1340 0.950 . S
C1370 C1369 1.524 . S
C1370 C1371 1.415 . S
C1371 H1341 0.950 . S
C1371 C1366 1.363 . S
C1371 C1370 1.415 . S
H1372 C1369 0.999 . S
H1373 C1354 0.913 . S
H1374 C1392 0.951 . S
H1375 C1394 0.951 . S
H1376 C1396 0.950 . S
H1377 C1397 0.950 . S
H1378 C1399 0.950 . S
H1379 C1402 0.950 . S
H1380 C1403 0.950 . S
H1381 C1405 0.950 . S
H1382 C1406 0.950 . S
H1383 C1407 0.951 . S
H1384 C1409 0.951 . S
H1385 C1411 0.950 . S
H1386 C1412 0.950 . S
H1387 C1414 0.950 . S
H1388 C1417 0.950 . S
H1389 C1418 0.950 . S
H1390 C1420 0.950 . S
H1391 C1421 0.950 . S
C1392 H1374 0.951 . S
C1392 C1393 1.366 . S
C1392 C1394 1.388 . S
C1393 C1392 1.366 . S
C1393 C1397 1.385 . S
C1394 H1375 0.951 . S
C1394 C1392 1.388 . S
C1394 C1395 1.366 . S
C1395 C1394 1.366 . S
C1395 C1396 1.414 . S
C1395 C1398 1.499 . S
C1396 H1376 0.950 . S
C1396 C1395 1.414 . S
C1396 C1397 1.374 . S
C1397 H1377 0.950 . S
C1397 C1393 1.385 . S
C1397 C1396 1.374 . S
C1398 C1395 1.499 . S
C1398 C1399 1.373 . S
C1398 C1400 1.389 . S
C1399 H1378 0.950 . S
C1399 C1398 1.373 . S
C1399 C1415 1.377 . S
C1400 C1398 1.389 . S
C1400 C1401 1.524 . S
C1400 C1414 1.377 . S
C1401 C1400 1.524 . S
C1401 C1402 1.397 . S
C1401 C1406 1.363 . S
C1402 H1379 0.950 . S
C1402 C1401 1.397 . S
C1402 C1403 1.334 . S
C1403 H1380 0.950 . S
C1403 C1402 1.334 . S
C1403 C1404 1.287 . S
C1404 C1403 1.287 . S
C1404 C1405 1.524 . S
C1404 H1423 0.913 . S
C1405 H1381 0.950 . S
C1405 C1404 1.524 . S
C1405 C1406 1.415 . S
C1406 H1382 0.950 . S
C1406 C1401 1.363 . S
C1406 C1405 1.415 . S
C1407 H1383 0.951 . S
C1407 C1408 1.366 . S
C1407 C1409 1.388 . S
C1408 C1407 1.366 . S
C1408 C1412 1.385 . S
C1409 H1384 0.951 . S
C1409 C1407 1.388 . S
C1409 C1410 1.366 . S
C1410 C1409 1.366 . S
C1410 C1411 1.414 . S
C1410 C1413 1.499 . S
C1411 H1385 0.950 . S
C1411 C1410 1.414 . S
C1411 C1412 1.374 . S
C1412 H1386 0.950 . S
C1412 C1408 1.385 . S
C1412 C1411 1.374 . S
C1413 C1410 1.499 . S
C1413 C1414 1.373 . S
C1413 C1415 1.389 . S
C1414 H1387 0.950 . S
C1414 C1400 1.377 . S
C1414 C1413 1.373 . S
C1415 C1399 1.377 . S
C1415 C1413 1.389 . S
C1415 C1416 1.524 . S
C1416 C1415 1.524 . S
C1416 C1417 1.397 . S
C1416 C1421 1.363 . S
C1417 H1388 0.950 . S
C1417 C1416 1.397 . S
C1417 C1418 1.334 . S
C1418 H1389 0.950 . S
C1418 C1417 1.334 . S
C1418 C1419 1.287 . S
C1419 C1418 1.287 . S
C1419 C1420 1.524 . S
C1419 H1422 0.999 . S
C1420 H1390 0.950 . S
C1420 C1419 1.524 . S
C1420 C1421 1.415 . S
C1421 H1391 0.950 . S
C1421 C1416 1.363 . S
C1421 C1420 1.415 . S
H1422 C1419 0.999 . S
H1423 C1404 0.913 . S
H1424 C1442 0.951 . S
H1425 C1444 0.951 . S
H1426 C1446 0.950 . S
H1427 C1447 0.950 . S
H1428 C1449 0.950 . S
H1429 C1452 0.950 . S
H1430 C1453 0.950 . S
H1431 C1455 0.950 . S
H1432 C1456 0.950 . S
H1433 C1457 0.951 . S
H1434 C1459 0.951 . S
H1435 C1461 0.950 . S
H1436 C1462 0.950 . S
H1437 C1464 0.950 . S
H1438 C1467 0.950 . S
H1439 C1468 0.950 . S
H1440 C1470 0.950 . S
H1441 C1471 0.950 . S
C1442 H1424 0.951 . S
C1442 C1443 1.366 . S
C1442 C1444 1.388 . S
C1443 C1442 1.366 . S
C1443 C1447 1.385 . S
C1444 H1425 0.951 . S
C1444 C1442 1.388 . S
C1444 C1445 1.366 . S
C1445 C1444 1.366 . S
C1445 C1446 1.414 . S
C1445 C1448 1.499 . S
C1446 H1426 0.950 . S
C1446 C1445 1.414 . S
C1446 C1447 1.374 . S
C1447 H1427 0.950 . S
C1447 C1443 1.385 . S
C1447 C1446 1.374 . S
C1448 C1445 1.499 . S
C1448 C1449 1.373 . S
C1448 C1450 1.389 . S
C1449 H1428 0.950 . S
C1449 C1448 1.373 . S
C1449 C1465 1.377 . S
C1450 C1448 1.389 . S
C1450 C1451 1.524 . S
C1450 C1464 1.377 . S
C1451 C1450 1.524 . S
C1451 C1452 1.397 . S
C1451 C1456 1.363 . S
C1452 H1429 0.950 . S
C1452 C1451 1.397 . S
C1452 C1453 1.334 . S
C1453 H1430 0.950 . S
C1453 C1452 1.334 . S
C1453 C1454 1.287 . S
C1454 C1453 1.287 . S
C1454 C1455 1.524 . S
C1454 H1473 0.913 . S
C1455 H1431 0.950 . S
C1455 C1454 1.524 . S
C1455 C1456 1.415 . S
C1456 H1432 0.950 . S
C1456 C1451 1.363 . S
C1456 C1455 1.415 . S
C1457 H1433 0.951 . S
C1457 C1458 1.366 . S
C1457 C1459 1.388 . S
C1458 C1457 1.366 . S
C1458 C1462 1.385 . S
C1459 H1434 0.951 . S
C1459 C1457 1.388 . S
C1459 C1460 1.366 . S
C1460 C1459 1.366 . S
C1460 C1461 1.414 . S
C1460 C1463 1.499 . S
C1461 H1435 0.950 . S
C1461 C1460 1.414 . S
C1461 C1462 1.374 . S
C1462 H1436 0.950 . S
C1462 C1458 1.385 . S
C1462 C1461 1.374 . S
C1463 C1460 1.499 . S
C1463 C1464 1.373 . S
C1463 C1465 1.389 . S
C1464 H1437 0.950 . S
C1464 C1450 1.377 . S
C1464 C1463 1.373 . S
C1465 C1449 1.377 . S
C1465 C1463 1.389 . S
C1465 C1466 1.524 . S
C1466 C1465 1.524 . S
C1466 C1467 1.397 . S
C1466 C1471 1.363 . S
C1467 H1438 0.950 . S
C1467 C1466 1.397 . S
C1467 C1468 1.334 . S
C1468 H1439 0.950 . S
C1468 C1467 1.334 . S
C1468 C1469 1.287 . S
C1469 C1468 1.287 . S
C1469 C1470 1.524 . S
C1469 H1472 0.999 . S
C1470 H1440 0.950 . S
C1470 C1469 1.524 . S
C1470 C1471 1.415 . S
C1471 H1441 0.950 . S
C1471 C1466 1.363 . S
C1471 C1470 1.415 . S
H1472 C1469 0.999 . S
H1473 C1454 0.913 . S
H1474 C1492 0.951 . S
H1475 C1494 0.951 . S
H1476 C1496 0.950 . S
H1477 C1497 0.950 . S
H1478 C1499 0.950 . S
H1479 C1502 0.950 . S
H1480 C1503 0.950 . S
H1481 C1505 0.950 . S
H1482 C1506 0.950 . S
H1483 C1507 0.951 . S
H1484 C1509 0.951 . S
H1485 C1511 0.950 . S
H1486 C1512 0.950 . S
H1487 C1514 0.950 . S
H1488 C1517 0.950 . S
H1489 C1518 0.950 . S
H1490 C1520 0.950 . S
H1491 C1521 0.950 . S
C1492 H1474 0.951 . S
C1492 C1493 1.366 . S
C1492 C1494 1.388 . S
C1493 C1492 1.366 . S
C1493 C1497 1.385 . S
C1494 H1475 0.951 . S
C1494 C1492 1.388 . S
C1494 C1495 1.366 . S
C1495 C1494 1.366 . S
C1495 C1496 1.414 . S
C1495 C1498 1.499 . S
C1496 H1476 0.950 . S
C1496 C1495 1.414 . S
C1496 C1497 1.374 . S
C1497 H1477 0.950 . S
C1497 C1493 1.385 . S
C1497 C1496 1.374 . S
C1498 C1495 1.499 . S
C1498 C1499 1.373 . S
C1498 C1500 1.389 . S
C1499 H1478 0.950 . S
C1499 C1498 1.373 . S
C1499 C1515 1.377 . S
C1500 C1498 1.389 . S
C1500 C1501 1.524 . S
C1500 C1514 1.377 . S
C1501 C1500 1.524 . S
C1501 C1502 1.397 . S
C1501 C1506 1.363 . S
C1502 H1479 0.950 . S
C1502 C1501 1.397 . S
C1502 C1503 1.334 . S
C1503 H1480 0.950 . S
C1503 C1502 1.334 . S
C1503 C1504 1.287 . S
C1504 C1503 1.287 . S
C1504 C1505 1.524 . S
C1504 H1523 0.913 . S
C1505 H1481 0.950 . S
C1505 C1504 1.524 . S
C1505 C1506 1.415 . S
C1506 H1482 0.950 . S
C1506 C1501 1.363 . S
C1506 C1505 1.415 . S
C1507 H1483 0.951 . S
C1507 C1508 1.366 . S
C1507 C1509 1.388 . S
C1508 C1507 1.366 . S
C1508 C1512 1.385 . S
C1509 H1484 0.951 . S
C1509 C1507 1.388 . S
C1509 C1510 1.366 . S
C1510 C1509 1.366 . S
C1510 C1511 1.414 . S
C1510 C1513 1.499 . S
C1511 H1485 0.950 . S
C1511 C1510 1.414 . S
C1511 C1512 1.374 . S
C1512 H1486 0.950 . S
C1512 C1508 1.385 . S
C1512 C1511 1.374 . S
C1513 C1510 1.499 . S
C1513 C1514 1.373 . S
C1513 C1515 1.389 . S
C1514 H1487 0.950 . S
C1514 C1500 1.377 . S
C1514 C1513 1.373 . S
C1515 C1499 1.377 . S
C1515 C1513 1.389 . S
C1515 C1516 1.524 . S
C1516 C1515 1.524 . S
C1516 C1517 1.397 . S
C1516 C1521 1.363 . S
C1517 H1488 0.950 . S
C1517 C1516 1.397 . S
C1517 C1518 1.334 . S
C1518 H1489 0.950 . S
C1518 C1517 1.334 . S
C1518 C1519 1.287 . S
C1519 C1518 1.287 . S
C1519 C1520 1.524 . S
C1519 H1522 0.999 . S
C1520 H1490 0.950 . S
C1520 C1519 1.524 . S
C1520 C1521 1.415 . S
C1521 H1491 0.950 . S
C1521 C1516 1.363 . S
C1521 C1520 1.415 . S
H1522 C1519 0.999 . S
H1523 C1504 0.913 . S
H1524 C1542 0.951 . S
H1525 C1544 0.951 . S
H1526 C1546 0.950 . S
H1527 C1547 0.950 . S
H1528 C1549 0.950 . S
H1529 C1552 0.950 . S
H1530 C1553 0.950 . S
H1531 C1555 0.950 . S
H1532 C1556 0.950 . S
H1533 C1557 0.951 . S
H1534 C1559 0.951 . S
H1535 C1561 0.950 . S
H1536 C1562 0.950 . S
H1537 C1564 0.950 . S
H1538 C1567 0.950 . S
H1539 C1568 0.950 . S
H1540 C1570 0.950 . S
H1541 C1571 0.950 . S
C1542 H1524 0.951 . S
C1542 C1543 1.366 . S
C1542 C1544 1.388 . S
C1543 C1542 1.366 . S
C1543 C1547 1.385 . S
C1544 H1525 0.951 . S
C1544 C1542 1.388 . S
C1544 C1545 1.366 . S
C1545 C1544 1.366 . S
C1545 C1546 1.414 . S
C1545 C1548 1.499 . S
C1546 H1526 0.950 . S
C1546 C1545 1.414 . S
C1546 C1547 1.374 . S
C1547 H1527 0.950 . S
C1547 C1543 1.385 . S
C1547 C1546 1.374 . S
C1548 C1545 1.499 . S
C1548 C1549 1.373 . S
C1548 C1550 1.389 . S
C1549 H1528 0.950 . S
C1549 C1548 1.373 . S
C1549 C1565 1.377 . S
C1550 C1548 1.389 . S
C1550 C1551 1.524 . S
C1550 C1564 1.377 . S
C1551 C1550 1.524 . S
C1551 C1552 1.397 . S
C1551 C1556 1.363 . S
C1552 H1529 0.950 . S
C1552 C1551 1.397 . S
C1552 C1553 1.334 . S
C1553 H1530 0.950 . S
C1553 C1552 1.334 . S
C1553 C1554 1.287 . S
C1554 C1553 1.287 . S
C1554 C1555 1.524 . S
C1554 H1573 0.913 . S
C1555 H1531 0.950 . S
C1555 C1554 1.524 . S
C1555 C1556 1.415 . S
C1556 H1532 0.950 . S
C1556 C1551 1.363 . S
C1556 C1555 1.415 . S
C1557 H1533 0.951 . S
C1557 C1558 1.366 . S
C1557 C1559 1.388 . S
C1558 C1557 1.366 . S
C1558 C1562 1.385 . S
C1559 H1534 0.951 . S
C1559 C1557 1.388 . S
C1559 C1560 1.366 . S
C1560 C1559 1.366 . S
C1560 C1561 1.414 . S
C1560 C1563 1.499 . S
C1561 H1535 0.950 . S
C1561 C1560 1.414 . S
C1561 C1562 1.374 . S
C1562 H1536 0.950 . S
C1562 C1558 1.385 . S
C1562 C1561 1.374 . S
C1563 C1560 1.499 . S
C1563 C1564 1.373 . S
C1563 C1565 1.389 . S
C1564 H1537 0.950 . S
C1564 C1550 1.377 . S
C1564 C1563 1.373 . S
C1565 C1549 1.377 . S
C1565 C1563 1.389 . S
C1565 C1566 1.524 . S
C1566 C1565 1.524 . S
C1566 C1567 1.397 . S
C1566 C1571 1.363 . S
C1567 H1538 0.950 . S
C1567 C1566 1.397 . S
C1567 C1568 1.334 . S
C1568 H1539 0.950 . S
C1568 C1567 1.334 . S
C1568 C1569 1.287 . S
C1569 C1568 1.287 . S
C1569 C1570 1.524 . S
C1569 H1572 0.999 . S
C1570 H1540 0.950 . S
C1570 C1569 1.524 . S
C1570 C1571 1.415 . S
C1571 H1541 0.950 . S
C1571 C1566 1.363 . S
C1571 C1570 1.415 . S
H1572 C1569 0.999 . S
H1573 C1554 0.913 . S
H1574 C1592 0.951 . S
H1575 C1594 0.951 . S
H1576 C1596 0.950 . S
H1577 C1597 0.950 . S
H1578 C1599 0.950 . S
H1579 C1602 0.950 . S
H1580 C1603 0.950 . S
H1581 C1605 0.950 . S
H1582 C1606 0.950 . S
H1583 C1607 0.951 . S
H1584 C1609 0.951 . S
H1585 C1611 0.950 . S
H1586 C1612 0.950 . S
H1587 C1614 0.950 . S
H1588 C1617 0.950 . S
H1589 C1618 0.950 . S
H1590 C1620 0.950 . S
H1591 C1621 0.950 . S
C1592 H1574 0.951 . S
C1592 C1593 1.366 . S
C1592 C1594 1.388 . S
C1593 C1592 1.366 . S
C1593 C1597 1.385 . S
C1594 H1575 0.951 . S
C1594 C1592 1.388 . S
C1594 C1595 1.366 . S
C1595 C1594 1.366 . S
C1595 C1596 1.414 . S
C1595 C1598 1.499 . S
C1596 H1576 0.950 . S
C1596 C1595 1.414 . S
C1596 C1597 1.374 . S
C1597 H1577 0.950 . S
C1597 C1593 1.385 . S
C1597 C1596 1.374 . S
C1598 C1595 1.499 . S
C1598 C1599 1.373 . S
C1598 C1600 1.389 . S
C1599 H1578 0.950 . S
C1599 C1598 1.373 . S
C1599 C1615 1.377 . S
C1600 C1598 1.389 . S
C1600 C1601 1.524 . S
C1600 C1614 1.377 . S
C1601 C1600 1.524 . S
C1601 C1602 1.397 . S
C1601 C1606 1.363 . S
C1602 H1579 0.950 . S
C1602 C1601 1.397 . S
C1602 C1603 1.334 . S
C1603 H1580 0.950 . S
C1603 C1602 1.334 . S
C1603 C1604 1.287 . S
C1604 C1603 1.287 . S
C1604 C1605 1.524 . S
C1604 H1623 0.913 . S
C1605 H1581 0.950 . S
C1605 C1604 1.524 . S
C1605 C1606 1.415 . S
C1606 H1582 0.950 . S
C1606 C1601 1.363 . S
C1606 C1605 1.415 . S
C1607 H1583 0.951 . S
C1607 C1608 1.366 . S
C1607 C1609 1.388 . S
C1608 C1607 1.366 . S
C1608 C1612 1.385 . S
C1609 H1584 0.951 . S
C1609 C1607 1.388 . S
C1609 C1610 1.366 . S
C1610 C1609 1.366 . S
C1610 C1611 1.414 . S
C1610 C1613 1.499 . S
C1611 H1585 0.950 . S
C1611 C1610 1.414 . S
C1611 C1612 1.374 . S
C1612 H1586 0.950 . S
C1612 C1608 1.385 . S
C1612 C1611 1.374 . S
C1613 C1610 1.499 . S
C1613 C1614 1.373 . S
C1613 C1615 1.389 . S
C1614 H1587 0.950 . S
C1614 C1600 1.377 . S
C1614 C1613 1.373 . S
C1615 C1599 1.377 . S
C1615 C1613 1.389 . S
C1615 C1616 1.524 . S
C1616 C1615 1.524 . S
C1616 C1617 1.397 . S
C1616 C1621 1.363 . S
C1617 H1588 0.950 . S
C1617 C1616 1.397 . S
C1617 C1618 1.334 . S
C1618 H1589 0.950 . S
C1618 C1617 1.334 . S
C1618 C1619 1.287 . S
C1619 C1618 1.287 . S
C1619 C1620 1.524 . S
C1619 H1622 0.999 . S
C1620 H1590 0.950 . S
C1620 C1619 1.524 . S
C1620 C1621 1.415 . S
C1621 H1591 0.950 . S
C1621 C1616 1.363 . S
C1621 C1620 1.415 . S
H1622 C1619 0.999 . S
H1623 C1604 0.913 . S
H1624 C1642 0.951 . S
H1625 C1644 0.951 . S
H1626 C1646 0.950 . S
H1627 C1647 0.950 . S
H1628 C1649 0.950 . S
H1629 C1652 0.950 . S
H1630 C1653 0.950 . S
H1631 C1655 0.950 . S
H1632 C1656 0.950 . S
H1633 C1657 0.951 . S
H1634 C1659 0.951 . S
H1635 C1661 0.950 . S
H1636 C1662 0.950 . S
H1637 C1664 0.950 . S
H1638 C1667 0.950 . S
H1639 C1668 0.950 . S
H1640 C1670 0.950 . S
H1641 C1671 0.950 . S
C1642 H1624 0.951 . S
C1642 C1643 1.366 . S
C1642 C1644 1.388 . S
C1643 C1642 1.366 . S
C1643 C1647 1.385 . S
C1644 H1625 0.951 . S
C1644 C1642 1.388 . S
C1644 C1645 1.366 . S
C1645 C1644 1.366 . S
C1645 C1646 1.414 . S
C1645 C1648 1.499 . S
C1646 H1626 0.950 . S
C1646 C1645 1.414 . S
C1646 C1647 1.374 . S
C1647 H1627 0.950 . S
C1647 C1643 1.385 . S
C1647 C1646 1.374 . S
C1648 C1645 1.499 . S
C1648 C1649 1.373 . S
C1648 C1650 1.389 . S
C1649 H1628 0.950 . S
C1649 C1648 1.373 . S
C1649 C1665 1.377 . S
C1650 C1648 1.389 . S
C1650 C1651 1.524 . S
C1650 C1664 1.377 . S
C1651 C1650 1.524 . S
C1651 C1652 1.397 . S
C1651 C1656 1.363 . S
C1652 H1629 0.950 . S
C1652 C1651 1.397 . S
C1652 C1653 1.334 . S
C1653 H1630 0.950 . S
C1653 C1652 1.334 . S
C1653 C1654 1.287 . S
C1654 C1653 1.287 . S
C1654 C1655 1.524 . S
C1654 H1673 0.913 . S
C1655 H1631 0.950 . S
C1655 C1654 1.524 . S
C1655 C1656 1.415 . S
C1656 H1632 0.950 . S
C1656 C1651 1.363 . S
C1656 C1655 1.415 . S
C1657 H1633 0.951 . S
C1657 C1658 1.366 . S
C1657 C1659 1.388 . S
C1658 C1657 1.366 . S
C1658 C1662 1.385 . S
C1659 H1634 0.951 . S
C1659 C1657 1.388 . S
C1659 C1660 1.366 . S
C1660 C1659 1.366 . S
C1660 C1661 1.414 . S
C1660 C1663 1.499 . S
C1661 H1635 0.950 . S
C1661 C1660 1.414 . S
C1661 C1662 1.374 . S
C1662 H1636 0.950 . S
C1662 C1658 1.385 . S
C1662 C1661 1.374 . S
C1663 C1660 1.499 . S
C1663 C1664 1.373 . S
C1663 C1665 1.389 . S
C1664 H1637 0.950 . S
C1664 C1650 1.377 . S
C1664 C1663 1.373 . S
C1665 C1649 1.377 . S
C1665 C1663 1.389 . S
C1665 C1666 1.524 . S
C1666 C1665 1.524 . S
C1666 C1667 1.397 . S
C1666 C1671 1.363 . S
C1667 H1638 0.950 . S
C1667 C1666 1.397 . S
C1667 C1668 1.334 . S
C1668 H1639 0.950 . S
C1668 C1667 1.334 . S
C1668 C1669 1.287 . S
C1669 C1668 1.287 . S
C1669 C1670 1.524 . S
C1669 H1672 0.999 . S
C1670 H1640 0.950 . S
C1670 C1669 1.524 . S
C1670 C1671 1.415 . S
C1671 H1641 0.950 . S
C1671 C1666 1.363 . S
C1671 C1670 1.415 . S
H1672 C1669 0.999 . S
H1673 C1654 0.913 . S
H1674 C1692 0.951 . S
H1675 C1694 0.951 . S
H1676 C1696 0.950 . S
H1677 C1697 0.950 . S
H1678 C1699 0.950 . S
H1679 C1702 0.950 . S
H1680 C1703 0.950 . S
H1681 C1705 0.950 . S
H1682 C1706 0.950 . S
H1683 C1707 0.951 . S
H1684 C1709 0.951 . S
H1685 C1711 0.950 . S
H1686 C1712 0.950 . S
H1687 C1714 0.950 . S
H1688 C1717 0.950 . S
H1689 C1718 0.950 . S
H1690 C1720 0.950 . S
H1691 C1721 0.950 . S
C1692 H1674 0.951 . S
C1692 C1693 1.366 . S
C1692 C1694 1.388 . S
C1693 C1692 1.366 . S
C1693 C1697 1.385 . S
C1694 H1675 0.951 . S
C1694 C1692 1.388 . S
C1694 C1695 1.366 . S
C1695 C1694 1.366 . S
C1695 C1696 1.414 . S
C1695 C1698 1.499 . S
C1696 H1676 0.950 . S
C1696 C1695 1.414 . S
C1696 C1697 1.374 . S
C1697 H1677 0.950 . S
C1697 C1693 1.385 . S
C1697 C1696 1.374 . S
C1698 C1695 1.499 . S
C1698 C1699 1.373 . S
C1698 C1700 1.389 . S
C1699 H1678 0.950 . S
C1699 C1698 1.373 . S
C1699 C1715 1.377 . S
C1700 C1698 1.389 . S
C1700 C1701 1.524 . S
C1700 C1714 1.377 . S
C1701 C1700 1.524 . S
C1701 C1702 1.397 . S
C1701 C1706 1.363 . S
C1702 H1679 0.950 . S
C1702 C1701 1.397 . S
C1702 C1703 1.334 . S
C1703 H1680 0.950 . S
C1703 C1702 1.334 . S
C1703 C1704 1.287 . S
C1704 C1703 1.287 . S
C1704 C1705 1.524 . S
C1704 H1723 0.913 . S
C1705 H1681 0.950 . S
C1705 C1704 1.524 . S
C1705 C1706 1.415 . S
C1706 H1682 0.950 . S
C1706 C1701 1.363 . S
C1706 C1705 1.415 . S
C1707 H1683 0.951 . S
C1707 C1708 1.366 . S
C1707 C1709 1.388 . S
C1708 C1707 1.366 . S
C1708 C1712 1.385 . S
C1709 H1684 0.951 . S
C1709 C1707 1.388 . S
C1709 C1710 1.366 . S
C1710 C1709 1.366 . S
C1710 C1711 1.414 . S
C1710 C1713 1.499 . S
C1711 H1685 0.950 . S
C1711 C1710 1.414 . S
C1711 C1712 1.374 . S
C1712 H1686 0.950 . S
C1712 C1708 1.385 . S
C1712 C1711 1.374 . S
C1713 C1710 1.499 . S
C1713 C1714 1.373 . S
C1713 C1715 1.389 . S
C1714 H1687 0.950 . S
C1714 C1700 1.377 . S
C1714 C1713 1.373 . S
C1715 C1699 1.377 . S
C1715 C1713 1.389 . S
C1715 C1716 1.524 . S
C1716 C1715 1.524 . S
C1716 C1717 1.397 . S
C1716 C1721 1.363 . S
C1717 H1688 0.950 . S
C1717 C1716 1.397 . S
C1717 C1718 1.334 . S
C1718 H1689 0.950 . S
C1718 C1717 1.334 . S
C1718 C1719 1.287 . S
C1719 C1718 1.287 . S
C1719 C1720 1.524 . S
C1719 H1722 0.999 . S
C1720 H1690 0.950 . S
C1720 C1719 1.524 . S
C1720 C1721 1.415 . S
C1721 H1691 0.950 . S
C1721 C1716 1.363 . S
C1721 C1720 1.415 . S
H1722 C1719 0.999 . S
H1723 C1704 0.913 . S
H1724 C1742 0.951 . S
H1725 C1744 0.951 . S
H1726 C1746 0.950 . S
H1727 C1747 0.950 . S
H1728 C1749 0.950 . S
H1729 C1752 0.950 . S
H1730 C1753 0.950 . S
H1731 C1755 0.950 . S
H1732 C1756 0.950 . S
H1733 C1757 0.951 . S
H1734 C1759 0.951 . S
H1735 C1761 0.950 . S
H1736 C1762 0.950 . S
H1737 C1764 0.950 . S
H1738 C1767 0.950 . S
H1739 C1768 0.950 . S
H1740 C1770 0.950 . S
H1741 C1771 0.950 . S
C1742 H1724 0.951 . S
C1742 C1743 1.366 . S
C1742 C1744 1.388 . S
C1743 C1742 1.366 . S
C1743 C1747 1.385 . S
C1744 H1725 0.951 . S
C1744 C1742 1.388 . S
C1744 C1745 1.366 . S
C1745 C1744 1.366 . S
C1745 C1746 1.414 . S
C1745 C1748 1.499 . S
C1746 H1726 0.950 . S
C1746 C1745 1.414 . S
C1746 C1747 1.374 . S
C1747 H1727 0.950 . S
C1747 C1743 1.385 . S
C1747 C1746 1.374 . S
C1748 C1745 1.499 . S
C1748 C1749 1.373 . S
C1748 C1750 1.389 . S
C1749 H1728 0.950 . S
C1749 C1748 1.373 . S
C1749 C1765 1.377 . S
C1750 C1748 1.389 . S
C1750 C1751 1.524 . S
C1750 C1764 1.377 . S
C1751 C1750 1.524 . S
C1751 C1752 1.397 . S
C1751 C1756 1.363 . S
C1752 H1729 0.950 . S
C1752 C1751 1.397 . S
C1752 C1753 1.334 . S
C1753 H1730 0.950 . S
C1753 C1752 1.334 . S
C1753 C1754 1.287 . S
C1754 C1753 1.287 . S
C1754 C1755 1.524 . S
C1754 H1773 0.913 . S
C1755 H1731 0.950 . S
C1755 C1754 1.524 . S
C1755 C1756 1.415 . S
C1756 H1732 0.950 . S
C1756 C1751 1.363 . S
C1756 C1755 1.415 . S
C1757 H1733 0.951 . S
C1757 C1758 1.366 . S
C1757 C1759 1.388 . S
C1758 C1757 1.366 . S
C1758 C1762 1.385 . S
C1759 H1734 0.951 . S
C1759 C1757 1.388 . S
C1759 C1760 1.366 . S
C1760 C1759 1.366 . S
C1760 C1761 1.414 . S
C1760 C1763 1.499 . S
C1761 H1735 0.950 . S
C1761 C1760 1.414 . S
C1761 C1762 1.374 . S
C1762 H1736 0.950 . S
C1762 C1758 1.385 . S
C1762 C1761 1.374 . S
C1763 C1760 1.499 . S
C1763 C1764 1.373 . S
C1763 C1765 1.389 . S
C1764 H1737 0.950 . S
C1764 C1750 1.377 . S
C1764 C1763 1.373 . S
C1765 C1749 1.377 . S
C1765 C1763 1.389 . S
C1765 C1766 1.524 . S
C1766 C1765 1.524 . S
C1766 C1767 1.397 . S
C1766 C1771 1.363 . S
C1767 H1738 0.950 . S
C1767 C1766 1.397 . S
C1767 C1768 1.334 . S
C1768 H1739 0.950 . S
C1768 C1767 1.334 . S
C1768 C1769 1.287 . S
C1769 C1768 1.287 . S
C1769 C1770 1.524 . S
C1769 H1772 0.999 . S
C1770 H1740 0.950 . S
C1770 C1769 1.524 . S
C1770 C1771 1.415 . S
C1771 H1741 0.950 . S
C1771 C1766 1.363 . S
C1771 C1770 1.415 . S
H1772 C1769 0.999 . S
H1773 C1754 0.913 . S
H1774 C1792 0.951 . S
H1775 C1794 0.951 . S
H1776 C1796 0.950 . S
H1777 C1797 0.950 . S
H1778 C1799 0.950 . S
H1779 C1802 0.950 . S
H1780 C1803 0.950 . S
H1781 C1805 0.950 . S
H1782 C1806 0.950 . S
H1783 C1807 0.951 . S
H1784 C1809 0.951 . S
H1785 C1811 0.950 . S
H1786 C1812 0.950 . S
H1787 C1814 0.950 . S
H1788 C1817 0.950 . S
H1789 C1818 0.950 . S
H1790 C1820 0.950 . S
H1791 C1821 0.950 . S
C1792 H1774 0.951 . S
C1792 C1793 1.366 . S
C1792 C1794 1.388 . S
C1793 C1792 1.366 . S
C1793 C1797 1.385 . S
C1794 H1775 0.951 . S
C1794 C1792 1.388 . S
C1794 C1795 1.366 . S
C1795 C1794 1.366 . S
C1795 C1796 1.414 . S
C1795 C1798 1.499 . S
C1796 H1776 0.950 . S
C1796 C1795 1.414 . S
C1796 C1797 1.374 . S
C1797 H1777 0.950 . S
C1797 C1793 1.385 . S
C1797 C1796 1.374 . S
C1798 C1795 1.499 . S
C1798 C1799 1.373 . S
C1798 C1800 1.389 . S
C1799 H1778 0.950 . S
C1799 C1798 1.373 . S
C1799 C1815 1.377 . S
C1800 C1798 1.389 . S
C1800 C1801 1.524 . S
C1800 C1814 1.377 . S
C1801 C1800 1.524 . S
C1801 C1802 1.397 . S
C1801 C1806 1.363 . S
C1802 H1779 0.950 . S
C1802 C1801 1.397 . S
C1802 C1803 1.334 . S
C1803 H1780 0.950 . S
C1803 C1802 1.334 . S
C1803 C1804 1.287 . S
C1804 C1803 1.287 . S
C1804 C1805 1.524 . S
C1804 H1823 0.913 . S
C1805 H1781 0.950 . S
C1805 C1804 1.524 . S
C1805 C1806 1.415 . S
C1806 H1782 0.950 . S
C1806 C1801 1.363 . S
C1806 C1805 1.415 . S
C1807 H1783 0.951 . S
C1807 C1808 1.366 . S
C1807 C1809 1.388 . S
C1808 C1807 1.366 . S
C1808 C1812 1.385 . S
C1809 H1784 0.951 . S
C1809 C1807 1.388 . S
C1809 C1810 1.366 . S
C1810 C1809 1.366 . S
C1810 C1811 1.414 . S
C1810 C1813 1.499 . S
C1811 H1785 0.950 . S
C1811 C1810 1.414 . S
C1811 C1812 1.374 . S
C1812 H1786 0.950 . S
C1812 C1808 1.385 . S
C1812 C1811 1.374 . S
C1813 C1810 1.499 . S
C1813 C1814 1.373 . S
C1813 C1815 1.389 . S
C1814 H1787 0.950 . S
C1814 C1800 1.377 . S
C1814 C1813 1.373 . S
C1815 C1799 1.377 . S
C1815 C1813 1.389 . S
C1815 C1816 1.524 . S
C1816 C1815 1.524 . S
C1816 C1817 1.397 . S
C1816 C1821 1.363 . S
C1817 H1788 0.950 . S
C1817 C1816 1.397 . S
C1817 C1818 1.334 . S
C1818 H1789 0.950 . S
C1818 C1817 1.334 . S
C1818 C1819 1.287 . S
C1819 C1818 1.287 . S
C1819 C1820 1.524 . S
C1819 H1822 0.999 . S
C1820 H1790 0.950 . S
C1820 C1819 1.524 . S
C1820 C1821 1.415 . S
C1821 H1791 0.950 . S
C1821 C1816 1.363 . S
C1821 C1820 1.415 . S
H1822 C1819 0.999 . S
H1823 C1804 0.913 . S
C243 C216 0.999 . S
C258 C6 1.021 . S
C293 C174 1.070 . S
C308 C20 1.067 . S
C343 C34 1.137 . S
C358 C188 1.072 . S
C393 C202 1.238 . S
C408 C48 1.318 . S
C443 C132 1.067 . S
C458 C62 1.070 . S
C493 C76 1.073 . S
C508 C146 1.137 . S
C543 C90 1.236 . S
C558 C160 1.317 . S
C593 C104 0.999 . S
C608 C118 1.021 . S
C643 C79 2.115 . S
C658 C7 1.977 . S
C693 C91 1.326 . S
C708 C21 1.347 . S
C743 C107 1.303 . S
C758 C35 1.189 . S
C793 C49 1.432 . S
C808 C64 1.564 . S
C843 C8 1.218 . S
C858 C23 1.175 . S
C893 C37 1.300 . S
C908 C22 1.320 . S
C943 C36 1.359 . S
C958 C51 1.355 . S
C993 C9 1.652 . S
C1008 C50 1.658 . S
C1043 C106 1.590 . S
C1058 C65 1.502 . S
C1093 C63 1.337 . S
C1108 C77 1.288 . S
C1143 C78 1.596 . S
C1158 C92 1.584 . S
C1193 C105 1.652 . S
C1208 C93 1.792 . S
C1243 C191 2.115 . S
C1258 C119 1.978 . S
C1293 C133 1.347 . S
C1308 C203 1.326 . S
C1343 C219 1.304 . S
C1358 C147 1.188 . S
C1393 C176 1.564 . S
C1408 C161 1.433 . S
C1443 C120 1.217 . S
C1458 C135 1.174 . S
C1493 C134 1.320 . S
C1508 C149 1.301 . S
C1543 C163 1.354 . S
C1558 C148 1.359 . S
C1593 C121 1.653 . S
C1608 C162 1.658 . S
C1643 C218 1.591 . S
C1658 C177 1.502 . S
C1693 C175 1.337 . S
C1708 C189 1.288 . S
C1743 C190 1.596 . S
C1758 C204 1.584 . S
C1793 C217 1.651 . S
C1808 C205 1.793 . S
