# Generated by pormake.
# Topology upa, (4)-cn, num edge types: 1
# Building blocks:
#     Node 0, Type 0, BuildingBlock: QUQFOY_clean_sbu_1, # of connection points: 4
#     Node 1, Type 0, BuildingBlock: QUQFOY_clean_sbu_1, # of connection points: 4
#     Node 2, Type 0, BuildingBlock: QUQFOY_clean_sbu_1, # of connection points: 4
#     Node 3, Type 0, BuildingBlock: QUQFOY_clean_sbu_1, # of connection points: 4
#     Node 4, Type 0, BuildingBlock: QUQFOY_clean_sbu_1, # of connection points: 4
#     Node 5, Type 0, BuildingBlock: QUQFOY_clean_sbu_1, # of connection points: 4
#     Node 6, Type 0, BuildingBlock: QUQFOY_clean_sbu_1, # of connection points: 4
#     Node 7, Type 0, BuildingBlock: QUQFOY_clean_sbu_1, # of connection points: 4
#     Edge 8, Type (0, 0), BuildingBlock: CIFDUS_clean_linker_0, # of connection points: 2
#     Edge 9, Type (0, 0), BuildingBlock: CIFDUS_clean_linker_0, # of connection points: 2
#     Edge 10, Type (0, 0), BuildingBlock: CIFDUS_clean_linker_0, # of connection points: 2
#     Edge 11, Type (0, 0), BuildingBlock: CIFDUS_clean_linker_0, # of connection points: 2
#     Edge 12, Type (0, 0), BuildingBlock: CIFDUS_clean_linker_0, # of connection points: 2
#     Edge 13, Type (0, 0), BuildingBlock: CIFDUS_clean_linker_0, # of connection points: 2
#     Edge 14, Type (0, 0), BuildingBlock: CIFDUS_clean_linker_0, # of connection points: 2
#     Edge 15, Type (0, 0), BuildingBlock: CIFDUS_clean_linker_0, # of connection points: 2
#     Edge 16, Type (0, 0), BuildingBlock: CIFDUS_clean_linker_0, # of connection points: 2
#     Edge 17, Type (0, 0), BuildingBlock: CIFDUS_clean_linker_0, # of connection points: 2
#     Edge 18, Type (0, 0), BuildingBlock: CIFDUS_clean_linker_0, # of connection points: 2
#     Edge 19, Type (0, 0), BuildingBlock: CIFDUS_clean_linker_0, # of connection points: 2
#     Edge 20, Type (0, 0), BuildingBlock: CIFDUS_clean_linker_0, # of connection points: 2
#     Edge 21, Type (0, 0), BuildingBlock: CIFDUS_clean_linker_0, # of connection points: 2
#     Edge 22, Type (0, 0), BuildingBlock: CIFDUS_clean_linker_0, # of connection points: 2
#     Edge 23, Type (0, 0), BuildingBlock: CIFDUS_clean_linker_0, # of connection points: 2
# Relax obj value: 0.113
# Max RMSD: 0.086
# Mean RMSD: 0.086
data_MOF--net-upa--node1-QUQFOY_clean_sbu_1--edge1-CIFDUS_clean_linker_0
_symmetry_space_group_name_H-M    P1
_symmetry_Int_Tables_number       1
_symmetry_cell_setting            triclinic
loop_
_symmetry_equiv_pos_as_xyz
'x, y, z'
_cell_length_a     26.142586
_cell_length_b     26.153555
_cell_length_c     36.888113
_cell_angle_alpha  89.783522
_cell_angle_beta   90.113788
_cell_angle_gamma 89.468188
loop_
_atom_site_label
_atom_site_type_symbol
_atom_site_fract_x
_atom_site_fract_y
_atom_site_fract_z
_atom_type_partial_charge
O0 O 0.21922 0.17253 0.38311 0.0
Cd1 Cd 0.21161 0.15593 0.32858 0.0
Cd2 Cd 0.11028 0.21572 0.3474 0.0
O3 O 0.15217 0.22241 0.39505 0.0
O4 O 0.28091 0.13145 0.31273 0.0
O5 O 0.2428 0.20028 0.29 0.0
C6 C 0.28188 0.16962 0.29055 0.0
C7 C 0.03546 0.26503 0.33794 0.0
C8 C 0.1934 0.19999 0.40503 0.0
C9 C 0.11241 0.10387 0.31718 0.0
O10 O 0.09188 0.14426 0.32953 0.0
O11 O 0.16064 0.09991 0.31403 0.0
O12 O 0.03984 0.23342 0.36452 0.0
O13 O 0.07576 0.27314 0.31867 0.0
O14 O 0.3274 0.71243 0.87785 0.0
Cd15 Cd 0.33896 0.70158 0.82296 0.0
Cd16 Cd 0.27304 0.61261 0.84338 0.0
O17 O 0.27069 0.65303 0.89173 0.0
O18 O 0.36455 0.76871 0.80435 0.0
O19 O 0.29182 0.73436 0.78636 0.0
C20 C 0.32375 0.77176 0.78472 0.0
C21 C 0.21391 0.54957 0.82796 0.0
C22 C 0.29824 0.6909 0.90079 0.0
C23 C 0.38268 0.59774 0.81289 0.0
O24 O 0.34156 0.58242 0.8272 0.0
O25 O 0.39024 0.64508 0.80748 0.0
O26 O 0.24234 0.54552 0.85632 0.0
O27 O 0.2139 0.59273 0.81083 0.0
O28 O 0.79578 0.81972 0.38686 0.0
Cd29 Cd 0.79449 0.84626 0.33388 0.0
Cd30 Cd 0.89764 0.78222 0.33937 0.0
O31 O 0.8646 0.76942 0.38967 0.0
O32 O 0.72441 0.87713 0.32854 0.0
O33 O 0.7524 0.81336 0.29455 0.0
C34 C 0.71613 0.84512 0.30278 0.0
C35 C 0.9677 0.73165 0.32056 0.0
C36 C 0.82523 0.78947 0.40445 0.0
C37 C 0.89315 0.89807 0.31778 0.0
O38 O 0.91484 0.85556 0.3246 0.0
O39 O 0.84488 0.90316 0.3199 0.0
O40 O 0.97022 0.7609 0.34838 0.0
O41 O 0.92368 0.727 0.30509 0.0
O42 O 0.67934 0.3 0.8824 0.0
Cd43 Cd 0.66895 0.31186 0.8274 0.0
Cd44 Cd 0.73478 0.40077 0.84953 0.0
O45 O 0.73789 0.35729 0.89676 0.0
O46 O 0.64306 0.24519 0.80845 0.0
O47 O 0.71664 0.27881 0.79157 0.0
C48 C 0.68437 0.24176 0.78953 0.0
C49 C 0.79198 0.46692 0.8366 0.0
C50 C 0.70937 0.31993 0.90548 0.0
C51 C 0.62555 0.41612 0.81803 0.0
O52 O 0.66586 0.43081 0.8338 0.0
O53 O 0.61866 0.3691 0.81113 0.0
O54 O 0.7644 0.46705 0.8654 0.0
O55 O 0.79248 0.42569 0.81743 0.0
O56 O 0.71227 0.3263 0.14279 0.0
Cd57 Cd 0.70398 0.34143 0.1975 0.0
Cd58 Cd 0.61359 0.27184 0.17846 0.0
O59 O 0.65348 0.26853 0.12989 0.0
O60 O 0.76968 0.37646 0.20949 0.0
O61 O 0.74672 0.30351 0.23477 0.0
C62 C 0.78021 0.33921 0.23127 0.0
C63 C 0.55071 0.2131 0.19516 0.0
C64 C 0.69099 0.29631 0.12035 0.0
C65 C 0.59835 0.38222 0.20782 0.0
O66 O 0.58359 0.34065 0.19397 0.0
O67 O 0.64561 0.39067 0.213 0.0
O68 O 0.54629 0.24083 0.16646 0.0
O69 O 0.59412 0.21347 0.21193 0.0
O70 O 0.17291 0.21833 0.64218 0.0
Cd71 Cd 0.15627 0.20992 0.69666 0.0
Cd72 Cd 0.2169 0.11317 0.67957 0.0
O73 O 0.22441 0.15244 0.63087 0.0
O74 O 0.13126 0.27885 0.71271 0.0
O75 O 0.20033 0.24103 0.73533 0.0
C76 C 0.16946 0.27994 0.73484 0.0
C77 C 0.27206 0.04549 0.69601 0.0
C78 C 0.20112 0.19298 0.62046 0.0
C79 C 0.1045 0.11033 0.70677 0.0
O80 O 0.14535 0.09041 0.69462 0.0
O81 O 0.10037 0.15841 0.71071 0.0
O82 O 0.24298 0.04311 0.66794 0.0
O83 O 0.27428 0.08868 0.71276 0.0
O84 O 0.30065 0.6794 0.13868 0.0
Cd85 Cd 0.31179 0.66815 0.19366 0.0
Cd86 Cd 0.402 0.73395 0.17201 0.0
O87 O 0.35915 0.73693 0.12453 0.0
O88 O 0.24473 0.64252 0.21222 0.0
O89 O 0.2788 0.71555 0.22966 0.0
C90 C 0.24148 0.68353 0.23141 0.0
C91 C 0.46884 0.79057 0.18436 0.0
C92 C 0.32137 0.70909 0.11568 0.0
C93 C 0.41575 0.62442 0.20393 0.0
O94 O 0.43094 0.66501 0.18872 0.0
O95 O 0.36849 0.61729 0.20993 0.0
O96 O 0.4689 0.76217 0.156 0.0
O97 O 0.42744 0.7921 0.20338 0.0
O98 O 0.8186 0.79535 0.63422 0.0
Cd99 Cd 0.84549 0.79332 0.68708 0.0
Cd100 Cd 0.78201 0.89741 0.68191 0.0
O101 O 0.76917 0.86481 0.63153 0.0
O102 O 0.87618 0.72308 0.69188 0.0
O103 O 0.81288 0.75087 0.72644 0.0
C104 C 0.84445 0.71463 0.71783 0.0
C105 C 0.73205 0.96796 0.70065 0.0
C106 C 0.78874 0.82528 0.61669 0.0
C107 C 0.89792 0.89151 0.70345 0.0
O108 O 0.85551 0.91354 0.69689 0.0
O109 O 0.90276 0.84327 0.70098 0.0
O110 O 0.76166 0.9703 0.67298 0.0
O111 O 0.72675 0.92393 0.71604 0.0
H112 H 0.0093 0.10655 0.31091 0.0
H113 H 0.13928 1.00379 0.30467 0.0
H114 H 0.08157 0.931 0.29996 0.0
H115 H 0.99512 0.89656 0.30463 0.0
H116 H 0.86541 0.99931 0.31358 0.0
H117 H 0.92256 0.07257 0.30979 0.0
C118 C 0.02518 0.06828 0.3082 0.0
C119 C 0.07859 0.06048 0.3088 0.0
C120 C 0.9919 0.02678 0.30622 0.0
C121 C 0.09838 0.01079 0.30453 0.0
C122 C 0.0654 0.96919 0.302 0.0
C123 C 0.97913 0.93496 0.30541 0.0
C124 C 0.92606 0.94245 0.31003 0.0
C125 C 0.0122 0.97672 0.30393 0.0
C126 C 0.90606 0.99246 0.31032 0.0
C127 C 0.93874 0.03433 0.3083 0.0
H128 H 0.48532 0.61161 0.8057 0.0
H129 H 0.36856 0.49616 0.80221 0.0
H130 H 0.4337 0.42917 0.79907 0.0
H131 H 0.52378 0.4027 0.80491 0.0
H132 H 0.64025 0.51827 0.81106 0.0
H133 H 0.57565 0.58536 0.80517 0.0
C134 C 0.47422 0.57188 0.80352 0.0
C135 C 0.42233 0.55891 0.80471 0.0
C136 C 0.5119 0.53328 0.80262 0.0
C137 C 0.40842 0.50717 0.80188 0.0
C138 C 0.44561 0.46872 0.80011 0.0
C139 C 0.535 0.44252 0.80431 0.0
C140 C 0.58654 0.45539 0.80901 0.0
C141 C 0.49749 0.4812 0.80167 0.0
C142 C 0.60061 0.50726 0.80811 0.0
C143 C 0.56372 0.54578 0.8047 0.0
H144 H 0.61134 0.48464 0.21714 0.0
H145 H 0.49625 0.36736 0.21607 0.0
H146 H 0.42887 0.43203 0.21926 0.0
H147 H 0.4022 0.52218 0.21484 0.0
H148 H 0.51745 0.63928 0.2135 0.0
H149 H 0.58463 0.57473 0.21924 0.0
C150 C 0.57157 0.47327 0.2183 0.0
C151 C 0.55892 0.42142 0.21579 0.0
C152 C 0.53275 0.51072 0.21934 0.0
C153 C 0.50711 0.4072 0.21738 0.0
C154 C 0.46841 0.44413 0.21921 0.0
C155 C 0.44194 0.53352 0.21648 0.0
C156 C 0.45477 0.58527 0.21316 0.0
C157 C 0.4807 0.49608 0.21901 0.0
C158 C 0.50652 0.59949 0.21539 0.0
C159 C 0.54509 0.56264 0.21869 0.0
H160 H 0.10691 0.00696 0.71068 0.0
H161 H 0.00441 0.1368 0.71964 0.0
H162 H 0.9315 0.07912 0.72361 0.0
H163 H 0.89683 0.99298 0.71795 0.0
H164 H 0.99921 0.86342 0.70652 0.0
H165 H 0.07269 0.92028 0.71059 0.0
C166 C 0.06867 0.0228 0.7138 0.0
C167 C 0.06099 0.0762 0.71423 0.0
C168 C 0.02708 0.98956 0.71544 0.0
C169 C 0.01133 0.09591 0.71898 0.0
C170 C 0.96966 0.06296 0.72112 0.0
C171 C 0.93521 0.97695 0.71668 0.0
C172 C 0.94252 0.92405 0.71132 0.0
C173 C 0.97706 0.00986 0.71833 0.0
C174 C 0.9925 0.90397 0.71038 0.0
C175 C 0.03449 0.93648 0.71255 0.0
H176 H 0.15269 0.25815 0.4594 0.0
H177 H 0.26819 0.14299 0.43836 0.0
H178 H 0.28422 0.1339 0.50315 0.0
H179 H 0.25921 0.15194 0.56606 0.0
H180 H 0.14404 0.26749 0.58701 0.0
H181 H 0.13479 0.28328 0.52222 0.0
C182 C 0.18189 0.23157 0.4689 0.0
C183 C 0.2086 0.20087 0.44388 0.0
C184 C 0.19083 0.2262 0.50635 0.0
C185 C 0.24672 0.16702 0.45684 0.0
C186 C 0.25585 0.16157 0.494 0.0
C187 C 0.2326 0.1811 0.55653 0.0
C188 C 0.20192 0.20789 0.58153 0.0
C189 C 0.22715 0.18993 0.51906 0.0
C190 C 0.16802 0.24594 0.56854 0.0
C191 C 0.1625 0.25495 0.53138 0.0
H192 H 0.24577 0.65206 0.95862 0.0
H193 H 0.357 0.76631 0.92996 0.0
H194 H 0.3708 0.78521 0.99381 0.0
H195 H 0.35754 0.76377 0.05796 0.0
H196 H 0.24663 0.64922 0.08665 0.0
H197 H 0.22634 0.63664 0.02286 0.0
C198 C 0.27252 0.6816 0.96626 0.0
C199 C 0.30067 0.70718 0.93934 0.0
C200 C 0.28073 0.6921 1.00319 0.0
C201 C 0.33495 0.74561 0.94994 0.0
C202 C 0.34304 0.75644 0.98655 0.0
C203 C 0.32843 0.73653 0.05036 0.0
C204 C 0.30421 0.70712 0.07724 0.0
C205 C 0.31712 0.72905 0.01345 0.0
C206 C 0.26629 0.67225 0.06669 0.0
C207 C 0.25466 0.66485 0.0301 0.0
H208 H 0.83815 0.75649 0.57346 0.0
H209 H 0.7234 0.87631 0.57066 0.0
H210 H 0.72057 0.87152 0.50461 0.0
H211 H 0.75702 0.83982 0.44764 0.0
H212 H 0.8749 0.72308 0.45047 0.0
H213 H 0.86962 0.71992 0.51649 0.0
C214 C 0.81187 0.78106 0.55853 0.0
C215 C 0.78134 0.81703 0.57717 0.0
C216 C 0.81127 0.77897 0.52045 0.0
C217 C 0.74759 0.84848 0.55716 0.0
C218 C 0.74602 0.84586 0.51931 0.0
C219 C 0.78104 0.81305 0.46257 0.0
C220 C 0.81664 0.78204 0.44395 0.0
C221 C 0.77868 0.81223 0.50064 0.0
C222 C 0.84738 0.74765 0.46396 0.0
C223 C 0.84449 0.74589 0.50179 0.0
H224 H 0.76546 0.35374 0.96311 0.0
H225 H 0.64723 0.24688 0.93448 0.0
H226 H 0.6342 0.22654 0.99828 0.0
H227 H 0.65035 0.24514 0.06257 0.0
H228 H 0.76836 0.35238 0.09102 0.0
H229 H 0.78755 0.36582 0.02718 0.0
C230 C 0.7373 0.32549 0.97072 0.0
C231 C 0.70702 0.30246 0.94386 0.0
C232 C 0.72957 0.31415 1.00762 0.0
C233 C 0.67097 0.26561 0.95443 0.0
C234 C 0.66331 0.25396 0.99102 0.0
C235 C 0.68078 0.27088 0.05488 0.0
C236 C 0.70731 0.29811 0.08176 0.0
C237 C 0.69148 0.27894 0.01792 0.0
C238 C 0.74686 0.33112 0.07109 0.0
C239 C 0.75789 0.339 0.03447 0.0
H240 H 0.45236 0.23761 0.18035 0.0
H241 H 0.54542 0.14024 0.24891 0.0
H242 H 0.46921 0.11538 0.28314 0.0
H243 H 0.37734 0.12741 0.2967 0.0
H244 H 0.287 0.2311 0.23089 0.0
H245 H 0.36112 0.24772 0.19261 0.0
C246 C 0.45598 0.21006 0.20228 0.0
C247 C 0.50456 0.19044 0.21185 0.0
C248 C 0.41254 0.19785 0.22275 0.0
C249 C 0.50849 0.1556 0.24082 0.0
C250 C 0.46496 0.14171 0.26055 0.0
C251 C 0.3738 0.15334 0.2738 0.0
C252 C 0.32667 0.17813 0.26674 0.0
C253 C 0.41699 0.16359 0.2523 0.0
C254 C 0.32282 0.21182 0.2371 0.0
C255 C 0.36517 0.22121 0.21511 0.0
H256 H 0.36697 0.86587 0.78999 0.0
H257 H 0.25645 0.78043 0.72846 0.0
H258 H 0.23563 0.85665 0.6927 0.0
H259 H 0.24445 0.94838 0.68167 0.0
H260 H 0.34917 0.03629 0.74637 0.0
H261 H 0.37732 0.95813 0.77777 0.0
C262 C 0.33869 0.86384 0.76851 0.0
C263 C 0.31325 0.81748 0.76191 0.0
C264 C 0.32598 0.90824 0.74861 0.0
C265 C 0.27638 0.81561 0.73421 0.0
C266 C 0.26454 0.85918 0.71371 0.0
C267 C 0.27417 0.95044 0.70217 0.0
C268 C 0.29501 0.99812 0.71146 0.0
C269 C 0.28856 0.90581 0.721 0.0
C270 C 0.33274 1.00008 0.73858 0.0
C271 C 0.34861 0.95543 0.75665 0.0
H272 H 0.69699 0.81747 0.23317 0.0
H273 H 0.62325 0.87227 0.33013 0.0
H274 H 0.53961 0.86646 0.30064 0.0
H275 H 0.48697 0.83856 0.24889 0.0
H276 H 0.56171 0.78725 0.15112 0.0
H277 H 0.64506 0.8003 0.17891 0.0
C278 C 0.66258 0.82834 0.24772 0.0
C279 C 0.66613 0.84442 0.28392 0.0
C280 C 0.6147 0.82591 0.23035 0.0
C281 C 0.62141 0.85944 0.30227 0.0
C282 C 0.57357 0.85616 0.28542 0.0
C283 C 0.52145 0.83147 0.23333 0.0
C284 C 0.51783 0.8114 0.19807 0.0
C285 C 0.56964 0.83863 0.24963 0.0
C286 C 0.56311 0.8025 0.17836 0.0
C287 C 0.61099 0.80954 0.19434 0.0
H288 H 0.63945 0.14835 0.79413 0.0
H289 H 0.75376 0.23214 0.73484 0.0
H290 H 0.77447 0.15579 0.69966 0.0
H291 H 0.76377 0.06446 0.68815 0.0
H292 H 0.65462 0.97821 0.7504 0.0
H293 H 0.62768 0.05646 0.78172 0.0
C294 C 0.66857 0.15 0.77327 0.0
C295 C 0.69503 0.19595 0.76711 0.0
C296 C 0.68114 0.10553 0.75369 0.0
C297 C 0.73298 0.19729 0.74024 0.0
C298 C 0.74479 0.15365 0.72006 0.0
C299 C 0.73346 0.0628 0.70815 0.0
C300 C 0.71092 0.01556 0.71673 0.0
C301 C 0.71956 0.10746 0.72686 0.0
C302 C 0.67239 0.01407 0.74319 0.0
C303 C 0.65717 0.05878 0.76119 0.0
H304 H 0.01082 0.33081 0.28243 0.0
H305 H 0.94391 0.24048 0.36797 0.0
H306 H 0.85887 0.2565 0.34328 0.0
H307 H 0.80374 0.28939 0.29416 0.0
H308 H 0.86936 0.38301 0.21013 0.0
H309 H 0.95413 0.37259 0.23738 0.0
C310 C 0.97756 0.3155 0.29607 0.0
C311 C 0.98404 0.28408 0.32683 0.0
C312 C 0.92835 0.32482 0.28169 0.0
C313 C 0.94034 0.26472 0.34421 0.0
C314 C 0.89151 0.27355 0.32997 0.0
C315 C 0.83657 0.3078 0.28202 0.0
C316 C 0.83039 0.33635 0.24995 0.0
C317 C 0.88515 0.30234 0.29816 0.0
C318 C 0.87312 0.36068 0.2348 0.0
C319 C 0.92168 0.35467 0.25033 0.0
H320 H 0.12672 0.37508 0.72858 0.0
H321 H 0.23139 0.28557 0.79418 0.0
H322 H 0.24833 0.36007 0.83188 0.0
H323 H 0.23844 0.45144 0.84349 0.0
H324 H 0.14009 0.54361 0.77503 0.0
H325 H 0.11469 0.46699 0.74164 0.0
C326 C 0.15291 0.37179 0.75133 0.0
C327 C 0.17791 0.3248 0.75848 0.0
C328 C 0.16337 0.41519 0.77246 0.0
C329 C 0.21193 0.32129 0.78791 0.0
C330 C 0.22152 0.36385 0.80956 0.0
C331 C 0.21056 0.45479 0.82178 0.0
C332 C 0.19085 0.50322 0.81196 0.0
C333 C 0.19803 0.4111 0.80177 0.0
C334 C 0.15554 0.50679 0.78328 0.0
C335 C 0.14134 0.46303 0.76403 0.0
H336 H 0.14771 0.6394 0.22642 0.0
H337 H 0.2322 0.75196 0.28663 0.0
H338 H 0.15589 0.77253 0.32199 0.0
H339 H 0.06445 0.76227 0.3334 0.0
H340 H 0.97749 0.65499 0.27027 0.0
H341 H 0.05565 0.62806 0.23875 0.0
C342 C 0.14951 0.66811 0.24751 0.0
C343 C 0.19565 0.69412 0.25388 0.0
C344 C 0.10507 0.6806 0.26721 0.0
C345 C 0.1972 0.73154 0.28106 0.0
C346 C 0.15358 0.74326 0.30134 0.0
C347 C 0.0626 0.73236 0.31317 0.0
C348 C 0.01519 0.71036 0.3044 0.0
C349 C 0.10722 0.71849 0.29435 0.0
C350 C 0.01349 0.67234 0.27764 0.0
C351 C 0.05814 0.65712 0.25952 0.0
H352 H 0.83781 0.48516 0.7712 0.0
H353 H 0.79088 0.55945 0.87019 0.0
H354 H 0.8036 0.64289 0.84236 0.0
H355 H 0.8191 0.69512 0.7879 0.0
H356 H 0.86968 0.62181 0.68968 0.0
H357 H 0.86423 0.53799 0.71904 0.0
C358 C 0.83163 0.51955 0.78699 0.0
C359 C 0.81285 0.5158 0.82264 0.0
C360 C 0.83858 0.56779 0.77068 0.0
C361 C 0.80512 0.56096 0.84265 0.0
C362 C 0.81195 0.60889 0.82666 0.0
C363 C 0.82912 0.66075 0.77304 0.0
C364 C 0.8439 0.66449 0.73654 0.0
C365 C 0.82696 0.61278 0.79033 0.0
C366 C 0.85785 0.61983 0.71777 0.0
C367 C 0.85478 0.57189 0.73455 0.0
loop_
_geom_bond_atom_site_label_1
_geom_bond_atom_site_label_2
_geom_bond_distance
_geom_bond_site_symmetry_2
_ccdc_geom_bond_type
O0 Cd1 2.223 . S
O0 C8 1.315 . S
Cd1 O0 2.223 . S
Cd1 O4 2.297 . S
Cd1 O5 2.439 . S
Cd1 O11 2.240 . S
Cd2 O3 2.240 . S
Cd2 O10 2.223 . S
Cd2 O12 2.297 1_455 S
Cd2 O13 2.439 . S
O3 Cd2 2.240 . S
O3 C8 1.279 . S
O4 Cd1 2.297 . S
O4 C6 1.247 . S
O5 Cd1 2.439 . S
O5 C6 1.208 . S
C6 O4 1.247 . S
C6 O5 1.208 . S
C7 O12 1.247 . S
C7 O13 1.208 1_655 S
C8 O0 1.315 . S
C8 O3 1.279 . S
C9 O10 1.315 . S
C9 O11 1.279 . S
O10 Cd2 2.223 . S
O10 C9 1.315 . S
O11 Cd1 2.240 . S
O11 C9 1.279 . S
O12 Cd2 2.297 1_655 S
O12 C7 1.247 . S
O13 Cd2 2.439 . S
O13 C7 1.208 1_455 S
O14 Cd15 2.223 . S
O14 C22 1.315 . S
Cd15 O14 2.223 . S
Cd15 O18 2.297 . S
Cd15 O19 2.439 . S
Cd15 O25 2.240 . S
Cd16 O17 2.240 . S
Cd16 O24 2.223 . S
Cd16 O26 2.297 . S
Cd16 O27 2.439 . S
O17 Cd16 2.240 . S
O17 C22 1.279 . S
O18 Cd15 2.297 . S
O18 C20 1.247 . S
O19 Cd15 2.439 . S
O19 C20 1.208 . S
C20 O18 1.247 . S
C20 O19 1.208 . S
C21 O26 1.247 . S
C21 O27 1.208 . S
C22 O14 1.315 . S
C22 O17 1.279 . S
C23 O24 1.315 . S
C23 O25 1.279 . S
O24 Cd16 2.223 . S
O24 C23 1.315 . S
O25 Cd15 2.240 . S
O25 C23 1.279 . S
O26 Cd16 2.297 . S
O26 C21 1.247 . S
O27 Cd16 2.439 . S
O27 C21 1.208 . S
O28 Cd29 2.223 . S
O28 C36 1.315 . S
Cd29 O28 2.223 . S
Cd29 O32 2.297 . S
Cd29 O33 2.439 . S
Cd29 O39 2.240 . S
Cd30 O31 2.240 . S
Cd30 O38 2.223 . S
Cd30 O40 2.297 1_655 S
Cd30 O41 2.439 . S
O31 Cd30 2.240 . S
O31 C36 1.279 . S
O32 Cd29 2.297 . S
O32 C34 1.247 . S
O33 Cd29 2.439 . S
O33 C34 1.208 . S
C34 O32 1.247 . S
C34 O33 1.208 . S
C35 O40 1.247 . S
C35 O41 1.208 1_455 S
C36 O28 1.315 . S
C36 O31 1.279 . S
C37 O38 1.315 . S
C37 O39 1.279 . S
O38 Cd30 2.223 . S
O38 C37 1.315 . S
O39 Cd29 2.240 . S
O39 C37 1.279 . S
O40 Cd30 2.297 1_455 S
O40 C35 1.247 . S
O41 Cd30 2.439 . S
O41 C35 1.208 1_655 S
O42 Cd43 2.223 . S
O42 C50 1.315 . S
Cd43 O42 2.223 . S
Cd43 O46 2.297 . S
Cd43 O47 2.439 . S
Cd43 O53 2.240 . S
Cd44 O45 2.240 . S
Cd44 O52 2.223 . S
Cd44 O54 2.297 . S
Cd44 O55 2.439 . S
O45 Cd44 2.240 . S
O45 C50 1.279 . S
O46 Cd43 2.297 . S
O46 C48 1.247 . S
O47 Cd43 2.439 . S
O47 C48 1.208 . S
C48 O46 1.247 . S
C48 O47 1.208 . S
C49 O54 1.247 . S
C49 O55 1.208 . S
C50 O42 1.315 . S
C50 O45 1.279 . S
C51 O52 1.315 . S
C51 O53 1.279 . S
O52 Cd44 2.223 . S
O52 C51 1.315 . S
O53 Cd43 2.240 . S
O53 C51 1.279 . S
O54 Cd44 2.297 . S
O54 C49 1.247 . S
O55 Cd44 2.439 . S
O55 C49 1.208 . S
O56 Cd57 2.223 . S
O56 C64 1.315 . S
Cd57 O56 2.223 . S
Cd57 O60 2.297 . S
Cd57 O61 2.439 . S
Cd57 O67 2.240 . S
Cd58 O59 2.240 . S
Cd58 O66 2.223 . S
Cd58 O68 2.297 . S
Cd58 O69 2.439 . S
O59 Cd58 2.240 . S
O59 C64 1.279 . S
O60 Cd57 2.297 . S
O60 C62 1.247 . S
O61 Cd57 2.439 . S
O61 C62 1.208 . S
C62 O60 1.247 . S
C62 O61 1.208 . S
C63 O68 1.247 . S
C63 O69 1.208 . S
C64 O56 1.315 . S
C64 O59 1.279 . S
C65 O66 1.315 . S
C65 O67 1.279 . S
O66 Cd58 2.223 . S
O66 C65 1.315 . S
O67 Cd57 2.240 . S
O67 C65 1.279 . S
O68 Cd58 2.297 . S
O68 C63 1.247 . S
O69 Cd58 2.439 . S
O69 C63 1.208 . S
O70 Cd71 2.223 . S
O70 C78 1.315 . S
Cd71 O70 2.223 . S
Cd71 O74 2.297 . S
Cd71 O75 2.439 . S
Cd71 O81 2.240 . S
Cd72 O73 2.240 . S
Cd72 O80 2.223 . S
Cd72 O82 2.297 1_545 S
Cd72 O83 2.439 . S
O73 Cd72 2.240 . S
O73 C78 1.279 . S
O74 Cd71 2.297 . S
O74 C76 1.247 . S
O75 Cd71 2.439 . S
O75 C76 1.208 . S
C76 O74 1.247 . S
C76 O75 1.208 . S
C77 O82 1.247 . S
C77 O83 1.208 1_565 S
C78 O70 1.315 . S
C78 O73 1.279 . S
C79 O80 1.315 . S
C79 O81 1.279 . S
O80 Cd72 2.223 . S
O80 C79 1.315 . S
O81 Cd71 2.240 . S
O81 C79 1.279 . S
O82 Cd72 2.297 1_565 S
O82 C77 1.247 . S
O83 Cd72 2.439 . S
O83 C77 1.208 1_545 S
O84 Cd85 2.223 . S
O84 C92 1.315 . S
Cd85 O84 2.223 . S
Cd85 O88 2.297 . S
Cd85 O89 2.439 . S
Cd85 O95 2.240 . S
Cd86 O87 2.240 . S
Cd86 O94 2.223 . S
Cd86 O96 2.297 . S
Cd86 O97 2.439 . S
O87 Cd86 2.240 . S
O87 C92 1.279 . S
O88 Cd85 2.297 . S
O88 C90 1.247 . S
O89 Cd85 2.439 . S
O89 C90 1.208 . S
C90 O88 1.247 . S
C90 O89 1.208 . S
C91 O96 1.247 . S
C91 O97 1.208 . S
C92 O84 1.315 . S
C92 O87 1.279 . S
C93 O94 1.315 . S
C93 O95 1.279 . S
O94 Cd86 2.223 . S
O94 C93 1.315 . S
O95 Cd85 2.240 . S
O95 C93 1.279 . S
O96 Cd86 2.297 . S
O96 C91 1.247 . S
O97 Cd86 2.439 . S
O97 C91 1.208 . S
O98 Cd99 2.223 . S
O98 C106 1.315 . S
Cd99 O98 2.223 . S
Cd99 O102 2.297 . S
Cd99 O103 2.439 . S
Cd99 O109 2.240 . S
Cd100 O101 2.240 . S
Cd100 O108 2.223 . S
Cd100 O110 2.297 1_565 S
Cd100 O111 2.439 . S
O101 Cd100 2.240 . S
O101 C106 1.279 . S
O102 Cd99 2.297 . S
O102 C104 1.247 . S
O103 Cd99 2.439 . S
O103 C104 1.208 . S
C104 O102 1.247 . S
C104 O103 1.208 . S
C105 O110 1.247 . S
C105 O111 1.208 1_545 S
C106 O98 1.315 . S
C106 O101 1.279 . S
C107 O108 1.315 . S
C107 O109 1.279 . S
O108 Cd100 2.223 . S
O108 C107 1.315 . S
O109 Cd99 2.240 . S
O109 C107 1.279 . S
O110 Cd100 2.297 1_545 S
O110 C105 1.247 . S
O111 Cd100 2.439 . S
O111 C105 1.208 1_565 S
H112 C118 0.929 . S
H113 C121 0.930 . S
H114 C122 0.930 1_565 S
H115 C123 0.929 . S
H116 C126 0.930 . S
H117 C127 0.930 1_545 S
C118 H112 0.929 . S
C118 C119 1.356 1_655 S
C118 C120 1.414 . S
C119 C118 1.356 1_455 S
C119 C121 1.419 . S
C120 C118 1.414 . S
C120 C125 1.425 1_645 S
C120 C127 1.409 1_545 S
C121 H113 0.930 . S
C121 C119 1.419 . S
C121 C122 1.362 . S
C122 H114 0.930 1_545 S
C122 C121 1.362 . S
C122 C125 1.409 1_545 S
C123 H115 0.929 . S
C123 C124 1.356 1_455 S
C123 C125 1.414 . S
C124 C123 1.356 1_655 S
C124 C126 1.419 . S
C125 C120 1.425 1_465 S
C125 C122 1.409 1_565 S
C125 C123 1.414 . S
C126 H116 0.930 . S
C126 C124 1.419 . S
C126 C127 1.362 . S
C127 H117 0.930 1_565 S
C127 C120 1.409 1_565 S
C127 C126 1.362 . S
H128 C134 0.930 . S
H129 C137 0.930 . S
H130 C138 0.930 . S
H131 C139 0.930 . S
H132 C142 0.930 . S
H133 C143 0.930 . S
C134 H128 0.930 . S
C134 C135 1.355 . S
C134 C136 1.415 . S
C135 C134 1.355 . S
C135 C137 1.419 . S
C136 C134 1.415 . S
C136 C141 1.425 . S
C136 C143 1.409 . S
C137 H129 0.930 . S
C137 C135 1.419 . S
C137 C138 1.362 . S
C138 H130 0.930 . S
C138 C137 1.362 . S
C138 C141 1.409 . S
C139 H131 0.930 . S
C139 C140 1.355 . S
C139 C141 1.415 . S
C140 C139 1.355 . S
C140 C142 1.419 . S
C141 C136 1.425 . S
C141 C138 1.409 . S
C141 C139 1.415 . S
C142 H132 0.930 . S
C142 C140 1.419 . S
C142 C143 1.362 . S
C143 H133 0.930 . S
C143 C136 1.409 . S
C143 C142 1.362 . S
H144 C150 0.930 . S
H145 C153 0.930 . S
H146 C154 0.930 . S
H147 C155 0.930 . S
H148 C158 0.930 . S
H149 C159 0.930 . S
C150 H144 0.930 . S
C150 C151 1.355 . S
C150 C152 1.415 . S
C151 C150 1.355 . S
C151 C153 1.419 . S
C152 C150 1.415 . S
C152 C157 1.425 . S
C152 C159 1.409 . S
C153 H145 0.930 . S
C153 C151 1.419 . S
C153 C154 1.362 . S
C154 H146 0.930 . S
C154 C153 1.362 . S
C154 C157 1.409 . S
C155 H147 0.930 . S
C155 C156 1.355 . S
C155 C157 1.415 . S
C156 C155 1.355 . S
C156 C158 1.419 . S
C157 C152 1.425 . S
C157 C154 1.409 . S
C157 C155 1.415 . S
C158 H148 0.930 . S
C158 C156 1.419 . S
C158 C159 1.362 . S
C159 H149 0.930 . S
C159 C152 1.409 . S
C159 C158 1.362 . S
H160 C166 0.930 1_565 S
H161 C169 0.930 . S
H162 C170 0.930 1_655 S
H163 C171 0.930 1_545 S
H164 C174 0.930 . S
H165 C175 0.930 1_455 S
C166 H160 0.930 1_545 S
C166 C167 1.355 . S
C166 C168 1.415 1_545 S
C167 C166 1.355 . S
C167 C169 1.419 . S
C168 C166 1.415 1_565 S
C168 C173 1.425 1_465 S
C168 C175 1.409 1_455 S
C169 H161 0.930 . S
C169 C167 1.419 . S
C169 C170 1.362 . S
C170 H162 0.930 1_455 S
C170 C169 1.362 . S
C170 C173 1.409 1_455 S
C171 H163 0.930 1_565 S
C171 C172 1.355 . S
C171 C173 1.415 1_565 S
C172 C171 1.355 . S
C172 C174 1.419 . S
C173 C168 1.425 1_645 S
C173 C170 1.409 1_655 S
C173 C171 1.415 1_545 S
C174 H164 0.930 . S
C174 C172 1.419 . S
C174 C175 1.362 . S
C175 H165 0.930 1_655 S
C175 C168 1.409 1_655 S
C175 C174 1.362 . S
H176 C182 0.930 . S
H177 C185 0.930 . S
H178 C186 0.930 . S
H179 C187 0.930 . S
H180 C190 0.930 . S
H181 C191 0.930 . S
C182 H176 0.930 . S
C182 C183 1.355 . S
C182 C184 1.415 . S
C183 C182 1.355 . S
C183 C185 1.419 . S
C184 C182 1.415 . S
C184 C189 1.425 . S
C184 C191 1.409 . S
C185 H177 0.930 . S
C185 C183 1.419 . S
C185 C186 1.362 . S
C186 H178 0.930 . S
C186 C185 1.362 . S
C186 C189 1.409 . S
C187 H179 0.930 . S
C187 C188 1.355 . S
C187 C189 1.415 . S
C188 C187 1.355 . S
C188 C190 1.419 . S
C189 C184 1.425 . S
C189 C186 1.409 . S
C189 C187 1.415 . S
C190 H180 0.930 . S
C190 C188 1.419 . S
C190 C191 1.362 . S
C191 H181 0.930 . S
C191 C184 1.409 . S
C191 C190 1.362 . S
H192 C198 0.930 . S
H193 C201 0.930 . S
H194 C202 0.930 . S
H195 C203 0.930 . S
H196 C206 0.930 . S
H197 C207 0.930 . S
C198 H192 0.930 . S
C198 C199 1.355 . S
C198 C200 1.437 . S
C199 C198 1.355 . S
C199 C201 1.419 . S
C200 C198 1.437 . S
C200 C205 1.424 1_556 S
C200 C207 1.388 1_556 S
C201 H193 0.930 . S
C201 C199 1.419 . S
C201 C202 1.362 . S
C202 H194 0.930 . S
C202 C201 1.362 . S
C202 C205 1.388 1_556 S
C203 H195 0.930 . S
C203 C204 1.355 . S
C203 C205 1.437 . S
C204 C203 1.355 . S
C204 C206 1.419 . S
C205 C200 1.424 1_554 S
C205 C202 1.388 1_554 S
C205 C203 1.437 . S
C206 H196 0.930 . S
C206 C204 1.419 . S
C206 C207 1.362 . S
C207 H197 0.930 . S
C207 C200 1.388 1_554 S
C207 C206 1.362 . S
H208 C214 0.930 . S
H209 C217 0.930 . S
H210 C218 0.930 . S
H211 C219 0.930 . S
H212 C222 0.930 . S
H213 C223 0.930 . S
C214 H208 0.930 . S
C214 C215 1.355 . S
C214 C216 1.415 . S
C215 C214 1.355 . S
C215 C217 1.419 . S
C216 C214 1.415 . S
C216 C221 1.425 . S
C216 C223 1.409 . S
C217 H209 0.930 . S
C217 C215 1.419 . S
C217 C218 1.362 . S
C218 H210 0.930 . S
C218 C217 1.362 . S
C218 C221 1.409 . S
C219 H211 0.930 . S
C219 C220 1.355 . S
C219 C221 1.415 . S
C220 C219 1.355 . S
C220 C222 1.419 . S
C221 C216 1.425 . S
C221 C218 1.409 . S
C221 C219 1.415 . S
C222 H212 0.930 . S
C222 C220 1.419 . S
C222 C223 1.362 . S
C223 H213 0.930 . S
C223 C216 1.409 . S
C223 C222 1.362 . S
H224 C230 0.930 . S
H225 C233 0.930 . S
H226 C234 0.930 . S
H227 C235 0.930 . S
H228 C238 0.930 . S
H229 C239 0.930 . S
C230 H224 0.930 . S
C230 C231 1.355 . S
C230 C232 1.415 . S
C231 C230 1.355 . S
C231 C233 1.419 . S
C232 C230 1.415 . S
C232 C237 1.425 1_556 S
C232 C239 1.409 1_556 S
C233 H225 0.930 . S
C233 C231 1.419 . S
C233 C234 1.362 . S
C234 H226 0.930 . S
C234 C233 1.362 . S
C234 C237 1.409 1_556 S
C235 H227 0.930 . S
C235 C236 1.355 . S
C235 C237 1.415 . S
C236 C235 1.355 . S
C236 C238 1.419 . S
C237 C232 1.425 1_554 S
C237 C234 1.409 1_554 S
C237 C235 1.415 . S
C238 H228 0.930 . S
C238 C236 1.419 . S
C238 C239 1.362 . S
C239 H229 0.930 . S
C239 C232 1.409 1_554 S
C239 C238 1.362 . S
H240 C246 0.930 . S
H241 C249 0.930 . S
H242 C250 0.930 . S
H243 C251 0.930 . S
H244 C254 0.930 . S
H245 C255 0.930 . S
C246 H240 0.930 . S
C246 C247 1.355 . S
C246 C248 1.415 . S
C247 C246 1.355 . S
C247 C249 1.419 . S
C248 C246 1.415 . S
C248 C253 1.425 . S
C248 C255 1.409 . S
C249 H241 0.930 . S
C249 C247 1.419 . S
C249 C250 1.362 . S
C250 H242 0.930 . S
C250 C249 1.362 . S
C250 C253 1.409 . S
C251 H243 0.930 . S
C251 C252 1.355 . S
C251 C253 1.415 . S
C252 C251 1.355 . S
C252 C254 1.419 . S
C253 C248 1.425 . S
C253 C250 1.409 . S
C253 C251 1.415 . S
C254 H244 0.930 . S
C254 C252 1.419 . S
C254 C255 1.362 . S
C255 H245 0.930 . S
C255 C248 1.409 . S
C255 C254 1.362 . S
H256 C262 0.930 . S
H257 C265 0.930 . S
H258 C266 0.930 . S
H259 C267 0.930 . S
H260 C270 0.930 . S
H261 C271 0.930 . S
C262 H256 0.930 . S
C262 C263 1.355 . S
C262 C264 1.415 . S
C263 C262 1.355 . S
C263 C265 1.419 . S
C264 C262 1.415 . S
C264 C269 1.425 . S
C264 C271 1.409 . S
C265 H257 0.930 . S
C265 C263 1.419 . S
C265 C266 1.362 . S
C266 H258 0.930 . S
C266 C265 1.362 . S
C266 C269 1.409 . S
C267 H259 0.930 . S
C267 C268 1.355 . S
C267 C269 1.415 . S
C268 C267 1.355 . S
C268 C270 1.419 . S
C269 C264 1.425 . S
C269 C266 1.409 . S
C269 C267 1.415 . S
C270 H260 0.930 . S
C270 C268 1.419 . S
C270 C271 1.362 . S
C271 H261 0.930 . S
C271 C264 1.409 . S
C271 C270 1.362 . S
H272 C278 0.930 . S
H273 C281 0.930 . S
H274 C282 0.930 . S
H275 C283 0.930 . S
H276 C286 0.930 . S
H277 C287 0.930 . S
C278 H272 0.930 . S
C278 C279 1.355 . S
C278 C280 1.415 . S
C279 C278 1.355 . S
C279 C281 1.419 . S
C280 C278 1.415 . S
C280 C285 1.425 . S
C280 C287 1.409 . S
C281 H273 0.930 . S
C281 C279 1.419 . S
C281 C282 1.362 . S
C282 H274 0.930 . S
C282 C281 1.362 . S
C282 C285 1.409 . S
C283 H275 0.930 . S
C283 C284 1.355 . S
C283 C285 1.415 . S
C284 C283 1.355 . S
C284 C286 1.419 . S
C285 C280 1.425 . S
C285 C282 1.409 . S
C285 C283 1.415 . S
C286 H276 0.930 . S
C286 C284 1.419 . S
C286 C287 1.362 . S
C287 H277 0.930 . S
C287 C280 1.409 . S
C287 C286 1.362 . S
H288 C294 0.930 . S
H289 C297 0.930 . S
H290 C298 0.930 . S
H291 C299 0.930 . S
H292 C302 0.930 . S
H293 C303 0.930 . S
C294 H288 0.930 . S
C294 C295 1.355 . S
C294 C296 1.415 . S
C295 C294 1.355 . S
C295 C297 1.419 . S
C296 C294 1.415 . S
C296 C301 1.425 . S
C296 C303 1.409 . S
C297 H289 0.930 . S
C297 C295 1.419 . S
C297 C298 1.362 . S
C298 H290 0.930 . S
C298 C297 1.362 . S
C298 C301 1.409 . S
C299 H291 0.930 . S
C299 C300 1.355 . S
C299 C301 1.415 . S
C300 C299 1.355 . S
C300 C302 1.419 . S
C301 C296 1.425 . S
C301 C298 1.409 . S
C301 C299 1.415 . S
C302 H292 0.930 . S
C302 C300 1.419 . S
C302 C303 1.362 . S
C303 H293 0.930 . S
C303 C296 1.409 . S
C303 C302 1.362 . S
H304 C310 0.930 . S
H305 C313 0.930 . S
H306 C314 0.930 . S
H307 C315 0.930 . S
H308 C318 0.930 . S
H309 C319 0.930 . S
C310 H304 0.930 . S
C310 C311 1.355 . S
C310 C312 1.415 . S
C311 C310 1.355 . S
C311 C313 1.419 . S
C312 C310 1.415 . S
C312 C317 1.425 . S
C312 C319 1.409 . S
C313 H305 0.930 . S
C313 C311 1.419 . S
C313 C314 1.362 . S
C314 H306 0.930 . S
C314 C313 1.362 . S
C314 C317 1.409 . S
C315 H307 0.930 . S
C315 C316 1.355 . S
C315 C317 1.415 . S
C316 C315 1.355 . S
C316 C318 1.419 . S
C317 C312 1.425 . S
C317 C314 1.409 . S
C317 C315 1.415 . S
C318 H308 0.930 . S
C318 C316 1.419 . S
C318 C319 1.362 . S
C319 H309 0.930 . S
C319 C312 1.409 . S
C319 C318 1.362 . S
H320 C326 0.930 . S
H321 C329 0.930 . S
H322 C330 0.930 . S
H323 C331 0.930 . S
H324 C334 0.930 . S
H325 C335 0.930 . S
C326 H320 0.930 . S
C326 C327 1.355 . S
C326 C328 1.415 . S
C327 C326 1.355 . S
C327 C329 1.419 . S
C328 C326 1.415 . S
C328 C333 1.425 . S
C328 C335 1.409 . S
C329 H321 0.930 . S
C329 C327 1.419 . S
C329 C330 1.362 . S
C330 H322 0.930 . S
C330 C329 1.362 . S
C330 C333 1.409 . S
C331 H323 0.930 . S
C331 C332 1.355 . S
C331 C333 1.415 . S
C332 C331 1.355 . S
C332 C334 1.419 . S
C333 C328 1.425 . S
C333 C330 1.409 . S
C333 C331 1.415 . S
C334 H324 0.930 . S
C334 C332 1.419 . S
C334 C335 1.362 . S
C335 H325 0.930 . S
C335 C328 1.409 . S
C335 C334 1.362 . S
H336 C342 0.930 . S
H337 C345 0.930 . S
H338 C346 0.930 . S
H339 C347 0.930 . S
H340 C350 0.930 . S
H341 C351 0.930 . S
C342 H336 0.930 . S
C342 C343 1.355 . S
C342 C344 1.415 . S
C343 C342 1.355 . S
C343 C345 1.419 . S
C344 C342 1.415 . S
C344 C349 1.425 . S
C344 C351 1.409 . S
C345 H337 0.930 . S
C345 C343 1.419 . S
C345 C346 1.362 . S
C346 H338 0.930 . S
C346 C345 1.362 . S
C346 C349 1.409 . S
C347 H339 0.930 . S
C347 C348 1.355 . S
C347 C349 1.415 . S
C348 C347 1.355 . S
C348 C350 1.419 . S
C349 C344 1.425 . S
C349 C346 1.409 . S
C349 C347 1.415 . S
C350 H340 0.930 . S
C350 C348 1.419 . S
C350 C351 1.362 . S
C351 H341 0.930 . S
C351 C344 1.409 . S
C351 C350 1.362 . S
H352 C358 0.930 . S
H353 C361 0.930 . S
H354 C362 0.930 . S
H355 C363 0.930 . S
H356 C366 0.930 . S
H357 C367 0.930 . S
C358 H352 0.930 . S
C358 C359 1.355 . S
C358 C360 1.415 . S
C359 C358 1.355 . S
C359 C361 1.419 . S
C360 C358 1.415 . S
C360 C365 1.425 . S
C360 C367 1.409 . S
C361 H353 0.930 . S
C361 C359 1.419 . S
C361 C362 1.362 . S
C362 H354 0.930 . S
C362 C361 1.362 . S
C362 C365 1.409 . S
C363 H355 0.930 . S
C363 C364 1.355 . S
C363 C365 1.415 . S
C364 C363 1.355 . S
C364 C366 1.419 . S
C365 C360 1.425 . S
C365 C362 1.409 . S
C365 C363 1.415 . S
C366 H356 0.930 . S
C366 C364 1.419 . S
C366 C367 1.362 . S
C367 H357 0.930 . S
C367 C360 1.409 . S
C367 C366 1.362 . S
C119 C9 0.960 . S
C124 C37 0.956 . S
C135 C23 0.912 . S
C140 C51 0.911 . S
C151 C65 0.911 . S
C156 C93 0.913 . S
C167 C79 0.968 . S
C172 C107 0.971 . S
C183 C8 1.344 . S
C188 C78 1.346 . S
C199 C22 1.364 . S
C204 C92 1.357 . S
C215 C106 1.382 . S
C220 C36 1.389 . S
C231 C50 1.348 . S
C236 C64 1.354 . S
C247 C63 1.721 . S
C252 C6 1.644 . S
C263 C20 1.728 . S
C268 C77 1.765 . S
C279 C34 1.649 . S
C284 C91 1.717 . S
C295 C48 1.724 . S
C300 C105 1.759 . S
C311 C7 1.746 . S
C316 C62 1.713 . S
C327 C76 1.707 . S
C332 C21 1.741 . S
C343 C90 1.679 . S
C348 C35 1.767 . S
C359 C49 1.752 . S
C364 C104 1.718 . S
