# Generated by pormake.
# Topology und, (4)-cn, num edge types: 1
# Building blocks:
#     Node 0, Type 0, BuildingBlock: CEKHIL_clean_sbu_0, # of connection points: 4
#     Node 1, Type 0, BuildingBlock: CEKHIL_clean_sbu_0, # of connection points: 4
#     Node 2, Type 0, BuildingBlock: CEKHIL_clean_sbu_0, # of connection points: 4
#     Node 3, Type 0, BuildingBlock: CEKHIL_clean_sbu_0, # of connection points: 4
#     Node 4, Type 0, BuildingBlock: CEKHIL_clean_sbu_0, # of connection points: 4
#     Node 5, Type 0, BuildingBlock: CEKHIL_clean_sbu_0, # of connection points: 4
#     Node 6, Type 0, BuildingBlock: CEKHIL_clean_sbu_0, # of connection points: 4
#     Node 7, Type 0, BuildingBlock: CEKHIL_clean_sbu_0, # of connection points: 4
#     Node 8, Type 0, BuildingBlock: CEKHIL_clean_sbu_0, # of connection points: 4
#     Node 9, Type 0, BuildingBlock: CEKHIL_clean_sbu_0, # of connection points: 4
#     Node 10, Type 0, BuildingBlock: CEKHIL_clean_sbu_0, # of connection points: 4
#     Node 11, Type 0, BuildingBlock: CEKHIL_clean_sbu_0, # of connection points: 4
#     Node 12, Type 0, BuildingBlock: CEKHIL_clean_sbu_0, # of connection points: 4
#     Node 13, Type 0, BuildingBlock: CEKHIL_clean_sbu_0, # of connection points: 4
#     Node 14, Type 0, BuildingBlock: CEKHIL_clean_sbu_0, # of connection points: 4
#     Node 15, Type 0, BuildingBlock: CEKHIL_clean_sbu_0, # of connection points: 4
#     Edge 16, Type (0, 0), BuildingBlock: ZUJKAS_clean_linker_0, # of connection points: 2
#     Edge 17, Type (0, 0), BuildingBlock: ZUJKAS_clean_linker_0, # of connection points: 2
#     Edge 18, Type (0, 0), BuildingBlock: ZUJKAS_clean_linker_0, # of connection points: 2
#     Edge 19, Type (0, 0), BuildingBlock: ZUJKAS_clean_linker_0, # of connection points: 2
#     Edge 20, Type (0, 0), BuildingBlock: ZUJKAS_clean_linker_0, # of connection points: 2
#     Edge 21, Type (0, 0), BuildingBlock: ZUJKAS_clean_linker_0, # of connection points: 2
#     Edge 22, Type (0, 0), BuildingBlock: ZUJKAS_clean_linker_0, # of connection points: 2
#     Edge 23, Type (0, 0), BuildingBlock: ZUJKAS_clean_linker_0, # of connection points: 2
#     Edge 24, Type (0, 0), BuildingBlock: ZUJKAS_clean_linker_0, # of connection points: 2
#     Edge 25, Type (0, 0), BuildingBlock: ZUJKAS_clean_linker_0, # of connection points: 2
#     Edge 26, Type (0, 0), BuildingBlock: ZUJKAS_clean_linker_0, # of connection points: 2
#     Edge 27, Type (0, 0), BuildingBlock: ZUJKAS_clean_linker_0, # of connection points: 2
#     Edge 28, Type (0, 0), BuildingBlock: ZUJKAS_clean_linker_0, # of connection points: 2
#     Edge 29, Type (0, 0), BuildingBlock: ZUJKAS_clean_linker_0, # of connection points: 2
#     Edge 30, Type (0, 0), BuildingBlock: ZUJKAS_clean_linker_0, # of connection points: 2
#     Edge 31, Type (0, 0), BuildingBlock: ZUJKAS_clean_linker_0, # of connection points: 2
#     Edge 32, Type (0, 0), BuildingBlock: ZUJKAS_clean_linker_0, # of connection points: 2
#     Edge 33, Type (0, 0), BuildingBlock: ZUJKAS_clean_linker_0, # of connection points: 2
#     Edge 34, Type (0, 0), BuildingBlock: ZUJKAS_clean_linker_0, # of connection points: 2
#     Edge 35, Type (0, 0), BuildingBlock: ZUJKAS_clean_linker_0, # of connection points: 2
#     Edge 36, Type (0, 0), BuildingBlock: ZUJKAS_clean_linker_0, # of connection points: 2
#     Edge 37, Type (0, 0), BuildingBlock: ZUJKAS_clean_linker_0, # of connection points: 2
#     Edge 38, Type (0, 0), BuildingBlock: ZUJKAS_clean_linker_0, # of connection points: 2
#     Edge 39, Type (0, 0), BuildingBlock: ZUJKAS_clean_linker_0, # of connection points: 2
#     Edge 40, Type (0, 0), BuildingBlock: ZUJKAS_clean_linker_0, # of connection points: 2
#     Edge 41, Type (0, 0), BuildingBlock: ZUJKAS_clean_linker_0, # of connection points: 2
#     Edge 42, Type (0, 0), BuildingBlock: ZUJKAS_clean_linker_0, # of connection points: 2
#     Edge 43, Type (0, 0), BuildingBlock: ZUJKAS_clean_linker_0, # of connection points: 2
#     Edge 44, Type (0, 0), BuildingBlock: ZUJKAS_clean_linker_0, # of connection points: 2
#     Edge 45, Type (0, 0), BuildingBlock: ZUJKAS_clean_linker_0, # of connection points: 2
#     Edge 46, Type (0, 0), BuildingBlock: ZUJKAS_clean_linker_0, # of connection points: 2
#     Edge 47, Type (0, 0), BuildingBlock: ZUJKAS_clean_linker_0, # of connection points: 2
# Relax obj value: 0.005
# Max RMSD: 0.041
# Mean RMSD: 0.041
data_MOF--net-und--node1-CEKHIL_clean_sbu_0--edge1-ZUJKAS_clean_linker_0
_symmetry_space_group_name_H-M    P1
_symmetry_Int_Tables_number       1
_symmetry_cell_setting            triclinic
loop_
_symmetry_equiv_pos_as_xyz
'x, y, z'
_cell_length_a     77.146544
_cell_length_b     77.144564
_cell_length_c     28.643749
_cell_angle_alpha  90.024023
_cell_angle_beta   90.014166
_cell_angle_gamma 93.201723
loop_
_atom_site_label
_atom_site_type_symbol
_atom_site_fract_x
_atom_site_fract_y
_atom_site_fract_z
_atom_type_partial_charge
Co0 Co 0.24494 0.35002 0.03398 0.0
O1 O 0.23828 0.36661 0.07936 0.0
O2 O 0.22529 0.36258 0.01123 0.0
C3 C 0.24655 0.32816 0.08567 0.0
O4 O 0.24853 0.33313 0.97965 0.0
Co5 Co 0.28121 0.33492 0.04534 0.0
O6 O 0.27224 0.31856 0.99669 0.0
C7 C 0.27864 0.37044 0.00918 0.0
C8 C 0.22608 0.3707 0.0512 0.0
C9 C 0.25904 0.32101 0.9712 0.0
O10 O 0.26204 0.36791 0.00604 0.0
O11 O 0.28839 0.35944 0.02771 0.0
O12 O 0.23176 0.33158 0.0672 0.0
O13 O 0.25942 0.33887 0.07536 0.0
Co14 Co 0.91673 0.02152 0.25397 0.0
O15 O 0.89988 0.02785 0.20896 0.0
O16 O 0.90368 0.04071 0.27736 0.0
C17 C 0.93861 0.02067 0.20206 0.0
O18 O 0.9338 0.01827 0.30795 0.0
Co19 Co 0.93296 0.9858 0.24168 0.0
O20 O 0.94947 0.99546 0.2893 0.0
C21 C 0.8972 0.98727 0.27678 0.0
C22 C 0.89556 0.03987 0.23741 0.0
C23 C 0.94654 0.00841 0.31529 0.0
O24 O 0.8994 0.00383 0.28179 0.0
O25 O 0.90838 0.97799 0.25721 0.0
O26 O 0.93479 0.03529 0.2208 0.0
O27 O 0.92825 0.0075 0.21225 0.0
Co28 Co 0.25856 0.68092 0.53637 0.0
O29 O 0.26525 0.66457 0.58231 0.0
O30 O 0.27809 0.66814 0.5138 0.0
C31 C 0.25711 0.70301 0.58746 0.0
O32 O 0.25508 0.69762 0.48169 0.0
Co33 Co 0.22246 0.69652 0.54722 0.0
O34 O 0.23223 0.71325 0.50035 0.0
C35 C 0.22471 0.6607 0.51284 0.0
C36 C 0.27749 0.66043 0.55434 0.0
C37 C 0.2452 0.71037 0.47443 0.0
O38 O 0.24129 0.66309 0.50885 0.0
O39 O 0.21512 0.67184 0.53145 0.0
O40 O 0.27188 0.69943 0.56916 0.0
O41 O 0.24418 0.69235 0.5773 0.0
Co42 Co 0.58644 0.01126 0.75435 0.0
O43 O 0.60283 0.00456 0.70855 0.0
O44 O 0.59943 0.99194 0.77735 0.0
C45 C 0.56423 0.01225 0.70351 0.0
O46 O 0.56978 0.01488 0.80915 0.0
Co47 Co 0.57056 0.04715 0.74243 0.0
O48 O 0.55415 0.03769 0.79032 0.0
C49 C 0.60632 0.04543 0.77786 0.0
C50 C 0.60722 0.99254 0.73691 0.0
C51 C 0.55712 0.02486 0.81663 0.0
O52 O 0.60424 0.02879 0.78093 0.0
O53 O 0.59494 0.0549 0.75991 0.0
O54 O 0.56799 0.99763 0.72231 0.0
O55 O 0.5748 0.02533 0.71298 0.0
Co56 Co 0.75913 0.68116 0.00462 0.0
O57 O 0.76466 0.66421 0.95886 0.0
O58 O 0.77848 0.66792 0.02595 0.0
C59 C 0.75774 0.70294 0.95261 0.0
O60 O 0.75696 0.69829 0.05909 0.0
Co61 Co 0.72376 0.69833 0.99725 0.0
O62 O 0.7352 0.71537 0.04069 0.0
C63 C 0.72498 0.66259 0.0337 0.0
C64 C 0.77708 0.65984 0.986 0.0
C65 C 0.74812 0.71181 0.06604 0.0
O66 O 0.74169 0.66406 0.03429 0.0
O67 O 0.71558 0.67426 0.01686 0.0
O68 O 0.77258 0.69901 0.96985 0.0
O69 O 0.74459 0.69284 0.96456 0.0
Co70 Co 0.08633 0.00961 0.78483 0.0
O71 O 0.10338 0.00371 0.82984 0.0
O72 O 0.09924 0.99019 0.76242 0.0
C73 C 0.06471 0.01099 0.83733 0.0
O74 O 0.06905 0.01224 0.73094 0.0
Co75 Co 0.06987 0.04526 0.79416 0.0
O76 O 0.05296 0.0348 0.74884 0.0
C77 C 0.10537 0.04368 0.75662 0.0
C78 C 0.10756 0.99141 0.80204 0.0
C79 C 0.05602 0.02173 0.7235 0.0
O80 O 0.10359 0.02698 0.75541 0.0
O81 O 0.09394 0.05318 0.77419 0.0
O82 O 0.06844 0.9962 0.81941 0.0
O83 O 0.07497 0.02409 0.82585 0.0
Co84 Co 0.7446 0.35111 0.5034 0.0
O85 O 0.73856 0.36807 0.45835 0.0
O86 O 0.72514 0.36399 0.52586 0.0
C87 C 0.74601 0.32943 0.45108 0.0
O88 O 0.7475 0.3339 0.55732 0.0
Co89 Co 0.78041 0.33493 0.49336 0.0
O90 O 0.77001 0.31787 0.53835 0.0
C91 C 0.77861 0.37045 0.53065 0.0
C92 C 0.7263 0.37228 0.4862 0.0
C93 C 0.75704 0.32086 0.56414 0.0
O94 O 0.76194 0.36848 0.53251 0.0
O95 O 0.78817 0.35914 0.51273 0.0
O96 O 0.73121 0.33311 0.46904 0.0
O97 O 0.75905 0.33979 0.46232 0.0
Co98 Co 0.41687 0.02121 0.28522 0.0
O99 O 0.3996 0.02682 0.32995 0.0
O100 O 0.40359 0.04036 0.2626 0.0
C101 C 0.4384 0.02038 0.33824 0.0
O102 O 0.43437 0.01889 0.23157 0.0
Co103 Co 0.43444 0.98609 0.29533 0.0
O104 O 0.45119 0.99702 0.25059 0.0
C105 C 0.39917 0.98666 0.2551 0.0
C106 C 0.39529 0.03908 0.30222 0.0
C107 C 0.44775 0.00981 0.22468 0.0
O108 O 0.40003 0.00339 0.25567 0.0
O109 O 0.41102 0.97752 0.27204 0.0
O110 O 0.43441 0.03505 0.3201 0.0
O111 O 0.42849 0.00707 0.32655 0.0
Co112 Co 0.74412 0.85061 0.53649 0.0
O113 O 0.73841 0.86771 0.58163 0.0
O114 O 0.72497 0.86389 0.51399 0.0
C115 C 0.74505 0.82887 0.58878 0.0
O116 O 0.74666 0.8334 0.48246 0.0
Co117 Co 0.77948 0.83346 0.54659 0.0
O118 O 0.76863 0.81664 0.50146 0.0
C119 C 0.7785 0.86939 0.51184 0.0
C120 C 0.72624 0.87213 0.55372 0.0
C121 C 0.75579 0.82006 0.47566 0.0
O122 O 0.76188 0.8676 0.50762 0.0
O123 O 0.78765 0.85793 0.53067 0.0
O124 O 0.73034 0.83285 0.57083 0.0
O125 O 0.75828 0.83894 0.57742 0.0
Co126 Co 0.41681 0.52045 0.75311 0.0
O127 O 0.40068 0.52734 0.70675 0.0
O128 O 0.40396 0.53989 0.77572 0.0
C129 C 0.4392 0.51916 0.7029 0.0
O130 O 0.43318 0.51673 0.80853 0.0
Co131 Co 0.43234 0.48434 0.74195 0.0
O132 O 0.4479 0.49299 0.7927 0.0
C133 C 0.39653 0.48649 0.77664 0.0
C134 C 0.39634 0.53942 0.73504 0.0
C135 C 0.44511 0.50613 0.81807 0.0
O136 O 0.39874 0.50314 0.77932 0.0
O137 O 0.40786 0.47687 0.75907 0.0
O138 O 0.43552 0.53385 0.72153 0.0
O139 O 0.42846 0.50619 0.71216 0.0
Co140 Co 0.75905 0.18174 0.03447 0.0
O141 O 0.76474 0.16481 0.07996 0.0
O142 O 0.77843 0.16858 0.01274 0.0
C143 C 0.75777 0.20351 0.08659 0.0
O144 O 0.75656 0.19891 0.98024 0.0
Co145 Co 0.72349 0.19848 0.04337 0.0
O146 O 0.73435 0.2154 0.99873 0.0
C147 C 0.72489 0.16285 0.00642 0.0
C148 C 0.77708 0.16044 0.0526 0.0
C149 C 0.74731 0.21215 0.9732 0.0
O150 O 0.74159 0.16453 0.00519 0.0
O151 O 0.71546 0.17438 0.02381 0.0
O152 O 0.77255 0.19965 0.06892 0.0
O153 O 0.74463 0.19331 0.07509 0.0
Co154 Co 0.08648 0.51005 0.2525 0.0
O155 O 0.10263 0.50319 0.20628 0.0
O156 O 0.09912 0.49035 0.27473 0.0
C157 C 0.06421 0.51169 0.20199 0.0
O158 O 0.07003 0.51389 0.30756 0.0
Co159 Co 0.07173 0.54652 0.24092 0.0
O160 O 0.05606 0.53814 0.29186 0.0
C161 C 0.10763 0.54357 0.27314 0.0
C162 C 0.10686 0.49098 0.23421 0.0
C163 C 0.05837 0.52481 0.317 0.0
O164 O 0.10466 0.52714 0.27927 0.0
O165 O 0.09679 0.55324 0.25361 0.0
O166 O 0.06769 0.4969 0.22039 0.0
O167 O 0.07511 0.52448 0.21159 0.0
Co168 Co 0.25774 0.18062 0.50269 0.0
O169 O 0.26435 0.16416 0.45691 0.0
O170 O 0.27707 0.16761 0.52558 0.0
C171 C 0.25671 0.20281 0.45177 0.0
O172 O 0.25418 0.19732 0.55752 0.0
Co173 Co 0.2218 0.1964 0.49075 0.0
O174 O 0.23082 0.21239 0.54018 0.0
C175 C 0.22361 0.16065 0.52597 0.0
C176 C 0.27635 0.15972 0.48528 0.0
C177 C 0.24384 0.20959 0.56602 0.0
O178 O 0.24024 0.16285 0.52944 0.0
O179 O 0.21414 0.17195 0.50767 0.0
O180 O 0.27135 0.19905 0.47052 0.0
O181 O 0.24365 0.19223 0.46132 0.0
Co182 Co 0.58624 0.51099 0.28455 0.0
O183 O 0.60256 0.5046 0.33097 0.0
O184 O 0.59971 0.49195 0.26203 0.0
C185 C 0.56374 0.51155 0.33464 0.0
O186 O 0.56981 0.51427 0.22898 0.0
Co187 Co 0.56958 0.54654 0.29592 0.0
O188 O 0.5544 0.53757 0.24474 0.0
C189 C 0.60553 0.54552 0.26145 0.0
C190 C 0.60732 0.49269 0.30272 0.0
C191 C 0.55762 0.52456 0.2193 0.0
O192 O 0.60385 0.52885 0.25863 0.0
O193 O 0.59387 0.55475 0.27897 0.0
O194 O 0.56787 0.49703 0.31593 0.0
O195 O 0.57411 0.52482 0.3255 0.0
Co196 Co 0.24466 0.85013 0.00504 0.0
O197 O 0.23887 0.86702 0.95953 0.0
O198 O 0.22531 0.86328 0.02696 0.0
C199 C 0.24592 0.82828 0.95314 0.0
O200 O 0.24723 0.83301 0.05931 0.0
Co201 Co 0.28029 0.83353 0.99591 0.0
O202 O 0.26964 0.81673 0.04124 0.0
C203 C 0.27882 0.86923 0.03208 0.0
C204 C 0.22656 0.87138 0.98703 0.0
C205 C 0.25662 0.8199 0.06664 0.0
O206 O 0.26214 0.8674 0.0341 0.0
O207 O 0.28826 0.85778 0.01432 0.0
O208 O 0.23114 0.83218 0.97082 0.0
O209 O 0.25905 0.83853 0.96441 0.0
Co210 Co 0.91719 0.52136 0.78335 0.0
O211 O 0.90116 0.52833 0.82979 0.0
O212 O 0.90423 0.54074 0.76062 0.0
C213 C 0.9396 0.52022 0.83359 0.0
O214 O 0.93353 0.51755 0.72791 0.0
Co215 Co 0.93277 0.48532 0.79494 0.0
O216 O 0.94847 0.49404 0.74459 0.0
C217 C 0.8969 0.48732 0.76066 0.0
C218 C 0.89677 0.54037 0.80149 0.0
C219 C 0.94562 0.50707 0.71888 0.0
O220 O 0.8991 0.50396 0.75753 0.0
O221 O 0.90827 0.47778 0.77834 0.0
O222 O 0.93592 0.53485 0.81465 0.0
O223 O 0.92888 0.50722 0.82448 0.0
H224 H 0.22106 0.30494 0.1158 0.0
H225 H 0.22299 0.28361 0.17849 0.0
H226 H 0.27724 0.29872 0.19688 0.0
H227 H 0.27549 0.31995 0.1338 0.0
H228 H 0.26954 0.26245 0.19768 0.0
H229 H 0.22665 0.2972 0.31732 0.0
H230 H 0.21744 0.29227 0.26094 0.0
H231 H 0.23612 0.30717 0.26558 0.0
C232 C 0.23343 0.30362 0.13295 0.0
C233 C 0.24809 0.31419 0.12023 0.0
C234 C 0.23448 0.29153 0.16892 0.0
C235 C 0.25016 0.28989 0.19285 0.0
C236 C 0.26499 0.29993 0.179 0.0
H237 H 0.28261 0.22589 0.42325 0.0
H238 H 0.28118 0.24766 0.36145 0.0
C239 C 0.26396 0.31202 0.14299 0.0
C240 C 0.25107 0.27783 0.23268 0.0
H241 H 0.23491 0.26948 0.34178 0.0
C242 C 0.26205 0.264 0.2293 0.0
C243 C 0.24127 0.27997 0.2738 0.0
C244 C 0.22981 0.29504 0.28 0.0
C245 C 0.26321 0.25197 0.2657 0.0
C246 C 0.25336 0.25408 0.30676 0.0
C247 C 0.24243 0.26795 0.3102 0.0
C248 C 0.254 0.24182 0.34623 0.0
C249 C 0.27464 0.23689 0.25946 0.0
C250 C 0.23901 0.23189 0.35933 0.0
C251 C 0.23975 0.21956 0.39483 0.0
C252 C 0.25549 0.21703 0.41782 0.0
C253 C 0.27033 0.22748 0.4059 0.0
C254 C 0.26957 0.23983 0.37044 0.0
H255 H 0.27794 0.23483 0.22218 0.0
H256 H 0.28694 0.23954 0.27892 0.0
H257 H 0.26823 0.22472 0.27342 0.0
H258 H 0.22684 0.23337 0.34123 0.0
H259 H 0.2281 0.21173 0.40342 0.0
H260 H 0.97744 0.99403 0.33174 0.0
H261 H 0.99547 0.9964 0.40129 0.0
H262 H 0.96056 0.03183 0.46216 0.0
H263 H 0.94207 0.02933 0.3923 0.0
H264 H 0.01272 0.02474 0.44301 0.0
H265 H 0.96324 0.99392 0.56219 0.0
H266 H 0.96104 0.99315 0.49948 0.0
H267 H 0.95644 0.01254 0.53085 0.0
C268 C 0.9735 0.00238 0.35976 0.0
C269 C 0.95812 0.01135 0.35647 0.0
C270 C 0.98391 0.00374 0.39956 0.0
C271 C 0.97924 0.01403 0.43731 0.0
C272 C 0.96424 0.02352 0.43378 0.0
H273 H 0.0247 0.03525 0.7074 0.0
H274 H 0.00665 0.03244 0.63799 0.0
C275 C 0.95375 0.0222 0.39368 0.0
C276 C 0.99015 0.01455 0.48019 0.0
H277 H 0.98976 0.00423 0.59622 0.0
C278 C 0.00771 0.02025 0.47653 0.0
C279 C 0.98364 0.00854 0.52381 0.0
C280 C 0.9651 0.00154 0.5295 0.0
C281 C 0.01885 0.02044 0.51543 0.0
C282 C 0.01233 0.01445 0.55906 0.0
C283 C 0.99477 0.00872 0.5627 0.0
C284 C 0.0232 0.01509 0.60203 0.0
C285 C 0.03736 0.02751 0.50973 0.0
C286 C 0.03839 0.00588 0.60563 0.0
C287 C 0.0489 0.00747 0.64565 0.0
C288 C 0.04436 0.01831 0.68272 0.0
C289 C 0.02877 0.02693 0.67947 0.0
C290 C 0.01835 0.02532 0.63974 0.0
H291 H 0.03919 0.03515 0.47707 0.0
H292 H 0.04142 0.03589 0.53977 0.0
H293 H 0.04606 0.01654 0.50826 0.0
H294 H 0.04221 0.99761 0.57732 0.0
H295 H 0.06075 1.0006 0.64701 0.0
H296 H 0.22784 0.71246 0.63185 0.0
H297 H 0.22577 0.7344 0.69302 0.0
H298 H 0.28073 0.74725 0.68128 0.0
H299 H 0.28288 0.72551 0.6197 0.0
H300 H 0.24348 0.73434 0.7781 0.0
H301 H 0.25977 0.79482 0.67866 0.0
H302 H 0.25355 0.77447 0.65049 0.0
H303 H 0.27526 0.77846 0.67225 0.0
C304 C 0.23943 0.72014 0.64182 0.0
C305 C 0.25553 0.7173 0.62106 0.0
C306 C 0.23823 0.73262 0.67679 0.0
C307 C 0.25306 0.74252 0.6913 0.0
C308 C 0.26908 0.73996 0.66995 0.0
H309 H 0.27506 0.81857 0.90861 0.0
H310 H 0.27686 0.79679 0.84688 0.0
C311 C 0.27029 0.72749 0.63493 0.0
C312 C 0.25198 0.75476 0.73074 0.0
H313 H 0.25891 0.79731 0.76133 0.0
C314 C 0.24675 0.74813 0.77445 0.0
C315 C 0.25633 0.7727 0.72575 0.0
C316 C 0.2614 0.7806 0.67918 0.0
C317 C 0.24603 0.75895 0.81365 0.0
C318 C 0.25042 0.77688 0.80868 0.0
C319 C 0.25563 0.78352 0.76496 0.0
C320 C 0.24947 0.78909 0.84821 0.0
C321 C 0.24092 0.75107 0.8602 0.0
C322 C 0.23348 0.79184 0.86948 0.0
C323 C 0.23242 0.80422 0.90478 0.0
C324 C 0.24732 0.81412 0.91907 0.0
C325 C 0.26337 0.8111 0.89833 0.0
C326 C 0.26442 0.79872 0.86304 0.0
H327 H 0.24232 0.73682 0.86062 0.0
H328 H 0.2489 0.75707 0.88883 0.0
H329 H 0.22711 0.75344 0.86734 0.0
H330 H 0.22174 0.78474 0.85793 0.0
H331 H 0.21986 0.80633 0.91999 0.0
H332 H 0.44375 0.03216 0.15014 0.0
H333 H 0.46218 0.03511 0.08008 0.0
H334 H 0.49627 0.99807 0.13683 0.0
H335 H 0.4783 0.99507 0.2062 0.0
H336 H 0.50033 0.04374 0.07302 0.0
H337 H 0.48076 0.97782 0.007 0.0
H338 H 0.46817 0.98897 0.04958 0.0
H339 H 0.48747 0.97872 0.06709 0.0
C340 C 0.45524 0.02476 0.14783 0.0
C341 C 0.45936 0.01324 0.18375 0.0
C342 C 0.46573 0.02643 0.10776 0.0
C343 C 0.48039 0.01652 0.10293 0.0
C344 C 0.48484 0.00556 0.1394 0.0
H345 H 0.56 0.002 0.89051 0.0
H346 H 0.54165 0.99976 0.96079 0.0
C347 C 0.4745 0.00393 0.17922 0.0
C348 C 0.49116 0.01735 0.05994 0.0
H349 H 0.50464 0.99261 0.96921 0.0
C350 C 0.50117 0.03264 0.05008 0.0
C351 C 0.49239 0.00275 0.0304 0.0
C352 C 0.48153 0.98616 0.03867 0.0
C353 C 0.51262 0.03361 0.01183 0.0
C354 C 0.51383 0.01901 0.98221 0.0
C355 C 0.50379 0.00373 0.9921 0.0
C356 C 0.52471 0.01974 0.93937 0.0
C357 C 0.52358 0.05017 0.00398 0.0
C358 C 0.52097 0.03131 0.9036 0.0
C359 C 0.5313 0.03257 0.86369 0.0
C360 C 0.54568 0.02223 0.85825 0.0
C361 C 0.54911 0.01019 0.89353 0.0
C362 C 0.53866 0.00893 0.93372 0.0
H363 H 0.52473 0.05817 0.03621 0.0
H364 H 0.53682 0.04735 0.99194 0.0
H365 H 0.51745 0.05797 0.97665 0.0
H366 H 0.51004 0.03947 0.90664 0.0
H367 H 0.52803 0.04186 0.83722 0.0
H368 H 0.26827 0.78761 0.07959 0.0
H369 H 0.26565 0.76938 0.14873 0.0
H370 H 0.23503 0.80723 0.21603 0.0
H371 H 0.23745 0.82568 0.14612 0.0
H372 H 0.27775 0.77817 0.23663 0.0
H373 H 0.20676 0.76159 0.24019 0.0
H374 H 0.21767 0.77066 0.18927 0.0
H375 H 0.21275 0.78441 0.23758 0.0
C376 C 0.26081 0.79207 0.10882 0.0
C377 C 0.25313 0.80822 0.10727 0.0
C378 C 0.25935 0.78158 0.14843 0.0
C379 C 0.25013 0.78686 0.18758 0.0
C380 C 0.24201 0.80275 0.18595 0.0
H381 H 0.23239 0.74216 0.46112 0.0
H382 H 0.23467 0.76053 0.39219 0.0
C383 C 0.24342 0.81331 0.146 0.0
C384 C 0.24989 0.776 0.23053 0.0
H385 H 0.22312 0.7524 0.30458 0.0
C386 C 0.2658 0.7725 0.25147 0.0
C387 C 0.23431 0.7686 0.24982 0.0
C388 C 0.21689 0.77134 0.22793 0.0
C389 C 0.26656 0.76202 0.29148 0.0
C390 C 0.25099 0.75455 0.31069 0.0
C391 C 0.23507 0.75808 0.28978 0.0
C392 C 0.25077 0.74355 0.35341 0.0
C393 C 0.284 0.75937 0.31344 0.0
C394 C 0.25928 0.72788 0.355 0.0
C395 C 0.25809 0.71727 0.39486 0.0
C396 C 0.24819 0.72205 0.43354 0.0
C397 C 0.24002 0.73793 0.43194 0.0
C398 C 0.24128 0.7485 0.39244 0.0
H399 H 0.294 0.76937 0.30184 0.0
H400 H 0.28316 0.75974 0.35212 0.0
H401 H 0.28839 0.74647 0.30304 0.0
H402 H 0.26645 0.72363 0.32501 0.0
H403 H 0.26444 0.70509 0.39477 0.0
H404 H 0.46025 0.04667 0.37074 0.0
H405 H 0.48196 0.04508 0.4327 0.0
H406 H 0.4695 0.99012 0.4467 0.0
H407 H 0.44797 0.99154 0.38438 0.0
H408 H 0.47526 0.03434 0.52454 0.0
H409 H 0.52253 0.99295 0.43869 0.0
H410 H 0.50611 0.00371 0.40649 0.0
H411 H 0.50053 0.98403 0.43795 0.0
C412 C 0.46231 0.03421 0.38658 0.0
C413 C 0.45245 0.01922 0.37274 0.0
C414 C 0.47467 0.03334 0.422 0.0
C415 C 0.47742 0.01746 0.44388 0.0
C416 C 0.46778 0.00243 0.42962 0.0
H417 H 0.54168 0.98614 0.67348 0.0
H418 H 0.51958 0.98769 0.61254 0.0
C419 C 0.45544 0.00329 0.39418 0.0
C420 C 0.48972 0.0168 0.48329 0.0
H421 H 0.52646 0.99824 0.51978 0.0
C422 C 0.48652 0.02653 0.52348 0.0
C423 C 0.50431 0.00652 0.48173 0.0
C424 C 0.50871 0.99632 0.43877 0.0
C425 C 0.49742 0.02606 0.56257 0.0
C426 C 0.51201 0.01579 0.56099 0.0
C427 C 0.5152 0.00604 0.52084 0.0
C428 C 0.52438 0.01521 0.60023 0.0
C429 C 0.49309 0.0363 0.60551 0.0
C430 C 0.53426 0.03021 0.61358 0.0
C431 C 0.54686 0.02937 0.64838 0.0
C432 C 0.54983 0.01349 0.6701 0.0
C433 C 0.53965 0.99856 0.65738 0.0
C434 C 0.52706 0.99941 0.62256 0.0
H435 H 0.47931 0.03981 0.60551 0.0
H436 H 0.49559 0.02886 0.63777 0.0
H437 H 0.5014 0.04851 0.60643 0.0
H438 H 0.53257 0.04246 0.59617 0.0
H439 H 0.55456 0.04107 0.65737 0.0
H440 H 0.22257 0.23421 0.59698 0.0
H441 H 0.22574 0.2526 0.66547 0.0
H442 H 0.2735 0.22924 0.7006 0.0
H443 H 0.27052 0.21056 0.63106 0.0
H444 H 0.22751 0.24256 0.75911 0.0
H445 H 0.28647 0.28203 0.70396 0.0
H446 H 0.27356 0.26876 0.66361 0.0
H447 H 0.28824 0.25889 0.70287 0.0
C448 C 0.23387 0.23291 0.61887 0.0
C449 C 0.24635 0.22084 0.6081 0.0
C450 C 0.2356 0.24348 0.65827 0.0
C451 C 0.2499 0.24243 0.688 0.0
C452 C 0.26246 0.23043 0.67773 0.0
H453 H 0.28032 0.29624 0.94107 0.0
H454 H 0.27719 0.27763 0.87298 0.0
C455 C 0.2607 0.21971 0.63809 0.0
C456 C 0.25126 0.25383 0.72989 0.0
H457 H 0.27546 0.28748 0.77919 0.0
C458 C 0.238 0.25239 0.76354 0.0
C459 C 0.26486 0.26673 0.73542 0.0
C460 C 0.27905 0.26937 0.69945 0.0
C461 C 0.23812 0.2633 0.8029 0.0
C462 C 0.25171 0.27621 0.80841 0.0
C463 C 0.26498 0.27764 0.77478 0.0
C464 C 0.25302 0.28768 0.85016 0.0
C465 C 0.22393 0.26066 0.83885 0.0
C466 C 0.24043 0.29967 0.86015 0.0
C467 C 0.24215 0.31052 0.89953 0.0
C468 C 0.25652 0.30954 0.92955 0.0
C469 C 0.26902 0.29744 0.91912 0.0
C470 C 0.26731 0.28675 0.87996 0.0
H471 H 0.21655 0.24798 0.83445 0.0
H472 H 0.2294 0.26135 0.87471 0.0
H473 H 0.2147 0.27111 0.83527 0.0
H474 H 0.22938 0.30078 0.83722 0.0
H475 H 0.23232 0.31969 0.9063 0.0
H476 H 0.05664 0.03973 0.88645 0.0
H477 H 0.03532 0.04134 0.94935 0.0
H478 H 0.0199 0.98725 0.92902 0.0
H479 H 0.04139 0.98545 0.86666 0.0
H480 H 0.99942 0.0344 0.94972 0.0
H481 H 0.03249 0.98966 0.06776 0.0
H482 H 0.04282 0.99905 0.01643 0.0
H483 H 0.02741 0.98079 0.01111 0.0
C484 C 0.04864 0.02821 0.89522 0.0
C485 C 0.05077 0.01242 0.87201 0.0
C486 C 0.03649 0.02915 0.93114 0.0
C487 C 0.02633 0.01432 0.9444 0.0
C488 C 0.02794 0.99873 0.92001 0.0
H489 H 0.94714 0.99225 0.15231 0.0
H490 H 0.96887 0.99107 0.09034 0.0
C491 C 0.04012 0.99775 0.88421 0.0
C492 C 0.01412 0.01518 0.98394 0.0
H493 H 0.00482 0.99827 0.09174 0.0
C494 C 1.00062 0.02657 0.98089 0.0
C495 C 0.01579 0.00495 0.02451 0.0
C496 C 0.0305 0.99303 0.03051 0.0
C497 C 0.98848 0.02775 0.017 0.0
C498 C 0.99012 0.01747 0.05749 0.0
C499 C 0.00365 0.00612 0.06061 0.0
C500 C 0.97771 0.01808 0.09665 0.0
C501 C 0.97377 0.03967 0.01103 0.0
C502 C 0.97588 0.03354 0.12151 0.0
C503 C 0.96346 0.03427 0.1568 0.0
C504 C 0.95279 0.0195 0.16798 0.0
C505 C 0.95515 0.00385 0.14432 0.0
C506 C 0.96753 0.00315 0.10894 0.0
H507 H 0.97192 0.04326 0.97386 0.0
H508 H 0.96141 0.03354 0.0245 0.0
H509 H 0.97673 0.0518 0.03103 0.0
H510 H 0.98391 0.04509 0.11322 0.0
H511 H 0.96201 0.04647 0.17472 0.0
H512 H 0.72837 0.71283 0.90959 0.0
H513 H 0.7263 0.73427 0.84718 0.0
H514 H 0.7815 0.74622 0.85583 0.0
H515 H 0.78372 0.72466 0.91791 0.0
H516 H 0.73607 0.77018 0.84567 0.0
H517 H 0.77348 0.73306 0.71769 0.0
H518 H 0.7648 0.72352 0.7709 0.0
H519 H 0.78431 0.73736 0.77233 0.0
C520 C 0.74005 0.7201 0.8984 0.0
C521 C 0.75623 0.71699 0.91828 0.0
C522 C 0.73884 0.73232 0.86277 0.0
C523 C 0.7538 0.74154 0.8464 0.0
C524 C 0.76987 0.73894 0.8674 0.0
H525 H 0.77421 0.81874 0.63232 0.0
H526 H 0.77598 0.79713 0.69436 0.0
C527 C 0.77109 0.72673 0.90302 0.0
C528 C 0.75257 0.75375 0.80701 0.0
H529 H 0.76603 0.76123 0.69496 0.0
C530 C 0.74255 0.76822 0.81263 0.0
C531 C 0.76104 0.75107 0.76403 0.0
C532 C 0.7714 0.73534 0.75553 0.0
C533 C 0.74104 0.78033 0.77657 0.0
C534 C 0.74953 0.77766 0.73363 0.0
C535 C 0.75953 0.76318 0.72798 0.0
C536 C 0.74846 0.78998 0.69441 0.0
C537 C 0.7307 0.79607 0.78508 0.0
C538 C 0.73246 0.79271 0.67313 0.0
C539 C 0.73141 0.80503 0.6377 0.0
C540 C 0.74636 0.81474 0.62295 0.0
C541 C 0.76246 0.8115 0.64313 0.0
C542 C 0.7635 0.79918 0.67854 0.0
H543 H 0.7285 0.79827 0.8229 0.0
H544 H 0.73738 0.8079 0.77003 0.0
H545 H 0.71783 0.79413 0.76793 0.0
H546 H 0.72077 0.78545 0.68433 0.0
H547 H 0.71884 0.8072 0.62258 0.0
H548 H 0.77503 0.3207 0.40428 0.0
H549 H 0.77686 0.29914 0.34202 0.0
H550 H 0.72237 0.28477 0.35855 0.0
H551 H 0.72036 0.30646 0.4204 0.0
H552 H 0.76885 0.26303 0.34207 0.0
H553 H 0.72685 0.29756 0.21957 0.0
H554 H 0.73607 0.30769 0.27142 0.0
H555 H 0.71731 0.29288 0.27568 0.0
C556 C 0.76346 0.31287 0.39484 0.0
C557 C 0.74751 0.31535 0.41682 0.0
C558 C 0.76454 0.30059 0.3593 0.0
C559 C 0.74968 0.29066 0.34517 0.0
C560 C 0.73389 0.29261 0.36833 0.0
H561 H 0.7288 0.21244 0.1333 0.0
H562 H 0.7271 0.2339 0.19583 0.0
C563 C 0.7328 0.30491 0.40381 0.0
C564 C 0.75068 0.27838 0.30582 0.0
H565 H 0.73522 0.26979 0.1961 0.0
C566 C 0.76156 0.26451 0.31006 0.0
C567 C 0.74114 0.28043 0.26419 0.0
C568 C 0.72979 0.29552 0.25708 0.0
C569 C 0.76293 0.25238 0.27397 0.0
C570 C 0.75339 0.25442 0.23234 0.0
C571 C 0.74251 0.26831 0.2281 0.0
C572 C 0.75435 0.24214 0.19298 0.0
C573 C 0.77426 0.23727 0.28112 0.0
C574 C 0.77014 0.24008 0.16991 0.0
C575 C 0.77116 0.22783 0.13428 0.0
C576 C 0.75636 0.21755 0.12101 0.0
C577 C 0.74042 0.22014 0.14292 0.0
C578 C 0.73943 0.23236 0.17863 0.0
H579 H 0.77715 0.23521 0.31865 0.0
H580 H 0.768 0.22511 0.26668 0.0
H581 H 0.78677 0.23992 0.26267 0.0
H582 H 0.78171 0.24781 0.17984 0.0
H583 H 0.78359 0.22619 0.11776 0.0
H584 H 0.73699 0.24502 0.96227 0.0
H585 H 0.73889 0.26311 0.8927 0.0
H586 H 0.76691 0.22416 0.82154 0.0
H587 H 0.76518 0.2058 0.89185 0.0
H588 H 0.78016 0.25922 0.8065 0.0
H589 H 0.70907 0.25237 0.77638 0.0
H590 H 0.71502 0.2598 0.83389 0.0
H591 H 0.72014 0.23838 0.8156 0.0
C592 C 0.74366 0.24025 0.93199 0.0
C593 C 0.75073 0.2238 0.9325 0.0
C594 C 0.74465 0.25062 0.89211 0.0
C595 C 0.7526 0.2448 0.85151 0.0
C596 C 0.76051 0.22881 0.8524 0.0
H597 H 0.76816 0.28826 0.57498 0.0
H598 H 0.76654 0.27005 0.64434 0.0
C599 C 0.75959 0.21836 0.89263 0.0
C600 C 0.75234 0.25544 0.80826 0.0
H601 H 0.72489 0.27348 0.73052 0.0
C602 C 0.7681 0.26224 0.78967 0.0
C603 C 0.73656 0.25947 0.78651 0.0
C604 C 0.71923 0.25201 0.8038 0.0
C605 C 0.7685 0.27323 0.75048 0.0
C606 C 0.75271 0.27727 0.72873 0.0
C607 C 0.73696 0.27046 0.74731 0.0
C608 C 0.75241 0.28801 0.68564 0.0
C609 C 0.78583 0.28073 0.73332 0.0
C610 C 0.74418 0.30383 0.68483 0.0
C611 C 0.74492 0.31432 0.6447 0.0
C612 C 0.75392 0.30912 0.60482 0.0
C613 C 0.76136 0.29285 0.60526 0.0
C614 C 0.76055 0.28242 0.64505 0.0
H615 H 0.79595 0.28046 0.76087 0.0
H616 H 0.79012 0.27291 0.70339 0.0
H617 H 0.78489 0.29434 0.72136 0.0
H618 H 0.73763 0.30829 0.71567 0.0
H619 H 0.73905 0.32675 0.64554 0.0
H620 H 0.76162 0.70359 0.15177 0.0
H621 H 0.76287 0.72205 0.22192 0.0
H622 H 0.74442 0.76455 0.14162 0.0
H623 H 0.74276 0.7462 0.07223 0.0
H624 H 0.7797 0.75383 0.24402 0.0
H625 H 0.70843 0.75996 0.24449 0.0
H626 H 0.71879 0.74445 0.20822 0.0
H627 H 0.71863 0.76685 0.19085 0.0
C628 C 0.75809 0.71695 0.14904 0.0
C629 C 0.75188 0.72337 0.10664 0.0
C630 C 0.75871 0.72745 0.18914 0.0
C631 C 0.75321 0.74453 0.18736 0.0
C632 C 0.74815 0.75126 0.1443 0.0
H633 H 0.74228 0.82813 0.38983 0.0
H634 H 0.74129 0.80971 0.31963 0.0
C635 C 0.74735 0.74077 0.10454 0.0
C636 C 0.75241 0.7553 0.23039 0.0
H637 H 0.72482 0.77806 0.2974 0.0
C638 C 0.76769 0.75904 0.25586 0.0
C639 C 0.73672 0.76217 0.24577 0.0
C640 C 0.71968 0.75804 0.22119 0.0
C641 C 0.76781 0.76974 0.29565 0.0
C642 C 0.75212 0.7766 0.31106 0.0
C643 C 0.73684 0.77286 0.28557 0.0
C644 C 0.7513 0.78737 0.35409 0.0
C645 C 0.78487 0.7739 0.32013 0.0
C646 C 0.75649 0.78071 0.39712 0.0
C647 C 0.75716 0.79119 0.4369 0.0
C648 C 0.75235 0.80851 0.43488 0.0
C649 C 0.74604 0.81485 0.3925 0.0
C650 C 0.74556 0.80436 0.35237 0.0
H651 H 0.79609 0.77207 0.29669 0.0
H652 H 0.78572 0.78747 0.33326 0.0
H653 H 0.786 0.76503 0.35033 0.0
H654 H 0.76039 0.76748 0.39977 0.0
H655 H 0.76183 0.78582 0.4692 0.0
H656 H 0.55316 0.49538 0.16318 0.0
H657 H 0.53445 0.49191 0.09363 0.0
H658 H 0.51933 0.54454 0.10934 0.0
H659 H 0.53772 0.54815 0.17781 0.0
H660 H 0.49705 0.49704 0.0893 0.0
H661 H 0.53499 0.54182 0.97139 0.0
H662 H 0.5442 0.53259 0.02312 0.0
H663 H 0.53067 0.55073 0.02788 0.0
C664 C 0.54595 0.50623 0.15153 0.0
C665 C 0.54697 0.52202 0.17625 0.0
C666 C 0.53524 0.50422 0.11191 0.0
C667 C 0.52567 0.51806 0.09602 0.0
C668 C 0.52678 0.53378 0.12049 0.0
H669 H 0.45004 0.53519 0.87439 0.0
H670 H 0.46901 0.53842 0.94346 0.0
C671 C 0.53727 0.53575 0.15998 0.0
C672 C 0.51395 0.51616 0.05496 0.0
H673 H 0.50633 0.53308 0.94703 0.0
C674 C 0.49915 0.50478 0.058 0.0
C675 C 0.51659 0.52646 0.01441 0.0
C676 C 0.53254 0.53849 0.00864 0.0
C677 C 0.48679 0.50364 0.02188 0.0
C678 C 0.48942 0.51397 0.98137 0.0
C679 C 0.50423 0.52532 0.97829 0.0
C680 C 0.47759 0.51221 0.94049 0.0
C681 C 0.47083 0.49162 0.02768 0.0
C682 C 0.47629 0.49653 0.91583 0.0
C683 C 0.46565 0.49469 0.8766 0.0
C684 C 0.45598 0.50852 0.86079 0.0
C685 C 0.45722 0.52427 0.88568 0.0
C686 C 0.46807 0.52614 0.92503 0.0
H687 H 0.46844 0.48822 0.0649 0.0
H688 H 0.45917 0.49757 0.01344 0.0
H689 H 0.47265 0.47942 0.00821 0.0
H690 H 0.48371 0.4857 0.92664 0.0
H691 H 0.46505 0.48232 0.85861 0.0
H692 H 0.05432 0.4964 0.37598 0.0
H693 H 0.0348 0.49313 0.44378 0.0
H694 H 0.01795 0.5448 0.42128 0.0
H695 H 0.03692 0.54812 0.354 0.0
H696 H 0.03359 0.51316 0.52568 0.0
H697 H 0.97202 0.51648 0.42716 0.0
H698 H 0.99244 0.51292 0.39896 0.0
H699 H 0.98719 0.53447 0.41583 0.0
C700 C 0.04642 0.50703 0.38545 0.0
C701 C 0.04711 0.52243 0.35902 0.0
C702 C 0.03526 0.50514 0.42415 0.0
C703 C 0.0246 0.51859 0.43695 0.0
C704 C 0.02563 0.53406 0.41135 0.0
H705 H 0.94925 0.53549 0.65979 0.0
H706 H 0.96868 0.53897 0.59182 0.0
C707 C 0.03663 0.53594 0.37284 0.0
C708 C 0.01266 0.51683 0.47768 0.0
H709 H 0.97014 0.51916 0.50981 0.0
C710 C 0.01971 0.51433 0.52217 0.0
C711 C 0.99453 0.51855 0.47318 0.0
C712 C 0.98605 0.52059 0.42616 0.0
C713 C 0.0092 0.5138 0.56231 0.0
C714 C 0.99107 0.51549 0.5578 0.0
C715 C 0.98402 0.51801 0.51332 0.0
C716 C 0.97912 0.51361 0.5985 0.0
C717 C 0.01769 0.51179 0.60932 0.0
C718 C 0.97823 0.49811 0.62403 0.0
C719 C 0.96729 0.49614 0.66261 0.0
C720 C 0.95672 0.50954 0.67659 0.0
C721 C 0.95723 0.52494 0.65018 0.0
C722 C 0.96834 0.52694 0.6114 0.0
H723 H 0.03169 0.51602 0.60835 0.0
H724 H 0.01123 0.51937 0.63659 0.0
H725 H 0.0167 0.49789 0.61954 0.0
H726 H 0.986 0.48745 0.61401 0.0
H727 H 0.96712 0.48395 0.68142 0.0
H728 H 0.04133 0.48606 0.17084 0.0
H729 H 0.02005 0.48803 0.10795 0.0
H730 H 0.03388 0.54271 0.09342 0.0
H731 H 0.05534 0.54083 0.1559 0.0
H732 H 0.99141 0.5091 0.09809 0.0
H733 H 0.04154 0.523 0.96178 0.0
H734 H 0.04675 0.51491 0.01894 0.0
H735 H 0.04271 0.53744 0.01104 0.0
C736 C 0.03974 0.49854 0.15451 0.0
C737 C 0.05009 0.51326 0.1679 0.0
C738 C 0.0276 0.49963 0.11862 0.0
C739 C 0.02569 0.51543 0.09553 0.0
C740 C 0.03546 0.53032 0.11021 0.0
H741 H 0.96207 0.54631 0.86428 0.0
H742 H 0.98325 0.54493 0.92763 0.0
C743 C 0.04762 0.52924 0.14606 0.0
C744 C 0.01367 0.51623 0.05555 0.0
H745 H 0.01219 0.52419 0.93844 0.0
C746 C 0.99593 0.51235 0.06315 0.0
C747 C 0.01968 0.52046 0.01009 0.0
C748 C 0.03872 0.52405 0.99968 0.0
C749 C 0.98393 0.51285 0.02647 0.0
C750 C 0.98995 0.51704 0.98098 0.0
C751 C 0.00768 0.52097 0.97341 0.0
C752 C 0.97796 0.51753 0.94086 0.0
C753 C 0.96489 0.50923 0.03684 0.0
C754 C 0.96843 0.50245 0.92651 0.0
C755 C 0.95634 0.50319 0.89039 0.0
C756 C 0.95369 0.51902 0.86795 0.0
C757 C 0.9638 0.53395 0.88106 0.0
C758 C 0.97588 0.53319 0.91722 0.0
H759 H 0.96204 0.51042 0.0747 0.0
H760 H 0.95684 0.51825 0.01727 0.0
H761 H 0.96097 0.49578 0.02587 0.0
H762 H 0.97015 0.49017 0.94374 0.0
H763 H 0.94881 0.49146 0.88081 0.0
H764 H 0.44934 0.49003 0.65902 0.0
H765 H 0.47115 0.48836 0.59737 0.0
H766 H 0.48251 0.54362 0.60771 0.0
H767 H 0.46097 0.54535 0.66985 0.0
H768 H 0.4703 0.50533 0.51226 0.0
H769 H 0.5307 0.52462 0.6088 0.0
H770 H 0.51065 0.51808 0.638 0.0
H771 H 0.51394 0.53969 0.61486 0.0
C772 C 0.45668 0.50178 0.64866 0.0
C773 C 0.45349 0.51782 0.66921 0.0
C774 C 0.46909 0.50081 0.61341 0.0
C775 C 0.47854 0.51584 0.59835 0.0
C776 C 0.47561 0.53182 0.61949 0.0
H777 H 0.55289 0.54027 0.37905 0.0
H778 H 0.53114 0.54124 0.44101 0.0
C779 C 0.46325 0.53279 0.65484 0.0
C780 C 0.49063 0.515 0.55852 0.0
H781 H 0.53273 0.52375 0.52595 0.0
C782 C 0.48398 0.50924 0.51525 0.0
C783 C 0.50843 0.52019 0.56263 0.0
C784 C 0.51642 0.52584 0.60866 0.0
C785 C 0.49461 0.50884 0.47561 0.0
C786 C 0.51239 0.51412 0.47968 0.0
C787 C 0.51905 0.51981 0.52298 0.0
C788 C 0.52442 0.51363 0.43964 0.0
C789 C 0.48666 0.50315 0.42958 0.0
C790 C 0.52769 0.49781 0.41814 0.0
C791 C 0.54003 0.49722 0.38262 0.0
C792 C 0.54942 0.51244 0.36841 0.0
C793 C 0.54584 0.52833 0.38928 0.0
C794 C 0.53347 0.52891 0.42471 0.0
H795 H 0.47233 0.504 0.42966 0.0
H796 H 0.49218 0.51116 0.40038 0.0
H797 H 0.4895 0.48943 0.42293 0.0
H798 H 0.52107 0.48583 0.42978 0.0
H799 H 0.5426 0.48478 0.36735 0.0
H800 H 0.12423 0.49145 0.1521 0.0
H801 H 0.14343 0.47034 0.12159 0.0
H802 H 0.1374 0.44044 0.24831 0.0
H803 H 0.11757 0.46163 0.2792 0.0
H804 H 0.17423 0.46105 0.15458 0.0
H805 H 0.12741 0.40371 0.14712 0.0
H806 H 0.12065 0.42549 0.15616 0.0
H807 H 0.12976 0.41376 0.20356 0.0
C808 C 0.1269 0.48041 0.17376 0.0
C809 C 0.1193 0.47823 0.21819 0.0
C810 C 0.13793 0.46831 0.1561 0.0
C811 C 0.14171 0.45366 0.18225 0.0
C812 C 0.1344 0.45148 0.22706 0.0
H813 H 0.22804 0.39053 0.12923 0.0
H814 H 0.20721 0.41035 0.15855 0.0
C815 C 0.12321 0.46367 0.24489 0.0
C816 C 0.15372 0.44115 0.16232 0.0
H817 H 0.15661 0.39909 0.12664 0.0
C818 C 0.17035 0.4475 0.14853 0.0
C819 C 0.14856 0.42355 0.15354 0.0
C820 C 0.13058 0.41619 0.16543 0.0
C821 C 0.182 0.43675 0.12673 0.0
C822 C 0.17706 0.41903 0.11925 0.0
C823 C 0.16037 0.41268 0.13244 0.0
C824 C 0.18951 0.40678 0.10039 0.0
C825 C 0.19946 0.44454 0.11139 0.0
C826 C 0.18637 0.39789 0.05806 0.0
C827 C 0.19837 0.38638 0.04094 0.0
C828 C 0.21357 0.38351 0.06624 0.0
C829 C 0.21654 0.39246 0.1086 0.0
C830 C 0.20465 0.40388 0.12548 0.0
H831 H 0.1993 0.45884 0.10709 0.0
H832 H 0.20931 0.44189 0.13833 0.0
H833 H 0.20358 0.43878 0.07791 0.0
H834 H 0.17469 0.3999 0.03825 0.0
H835 H 0.19564 0.37958 0.00845 0.0
H836 H 0.80915 0.88469 0.5414 0.0
H837 H 0.82635 0.90827 0.50405 0.0
H838 H 0.78674 0.91219 0.39873 0.0
H839 H 0.76908 0.88905 0.43737 0.0
H840 H 0.83998 0.90645 0.42201 0.0
H841 H 0.79832 0.96259 0.42247 0.0
H842 H 0.79343 0.94343 0.45725 0.0
H843 H 0.78777 0.94369 0.39628 0.0
C844 C 0.80395 0.89081 0.51079 0.0
C845 C 0.78781 0.88499 0.49216 0.0
C846 C 0.81378 0.9043 0.48947 0.0
C847 C 0.80784 0.91213 0.44867 0.0
C848 C 0.79146 0.90669 0.43076 0.0
H849 H 0.88126 0.95676 0.24797 0.0
H850 H 0.85806 0.93967 0.28748 0.0
C851 C 0.78142 0.89337 0.45269 0.0
C852 C 0.81966 0.92452 0.42255 0.0
H853 H 0.82307 0.96465 0.37172 0.0
C854 C 0.83628 0.91923 0.4114 0.0
C855 C 0.81494 0.94126 0.40896 0.0
C856 C 0.79771 0.94816 0.42227 0.0
C857 C 0.84825 0.93008 0.38694 0.0
C858 C 0.84327 0.94648 0.37136 0.0
C859 C 0.82676 0.95195 0.383 0.0
C860 C 0.85527 0.95811 0.3436 0.0
C861 C 0.86627 0.92393 0.37901 0.0
C862 C 0.86057 0.97469 0.36025 0.0
C863 C 0.87361 0.98469 0.33707 0.0
C864 C 0.88163 0.97815 0.29719 0.0
C865 C 0.87554 0.962 0.27911 0.0
C866 C 0.86233 0.95219 0.30175 0.0
H867 H 0.86952 0.91381 0.40468 0.0
H868 H 0.86697 0.91814 0.34365 0.0
H869 H 0.87625 0.93484 0.38152 0.0
H870 H 0.85519 0.97957 0.39229 0.0
H871 H 0.87801 0.99711 0.35174 0.0
H872 H 0.28385 0.65157 0.64367 0.0
H873 H 0.30491 0.6321 0.67327 0.0
H874 H 0.32145 0.62182 0.53252 0.0
H875 H 0.30063 0.64215 0.50249 0.0
H876 H 0.30687 0.5989 0.66216 0.0
H877 H 0.36758 0.63137 0.59356 0.0
H878 H 0.34705 0.64145 0.59156 0.0
H879 H 0.35212 0.6254 0.54879 0.0
C880 C 0.29199 0.64525 0.6188 0.0
C881 C 0.29055 0.6484 0.57062 0.0
C882 C 0.30407 0.63408 0.6359 0.0
C883 C 0.31497 0.62557 0.60536 0.0
C884 C 0.31351 0.62855 0.557 0.0
H885 H 0.38244 0.54211 0.64857 0.0
H886 H 0.36303 0.56351 0.61981 0.0
C887 C 0.30152 0.64005 0.53978 0.0
C888 C 0.32728 0.61322 0.62486 0.0
H889 H 0.37005 0.60375 0.62924 0.0
C890 C 0.3207 0.60008 0.65515 0.0
C891 C 0.34538 0.61475 0.61603 0.0
C892 C 0.3535 0.6291 0.58609 0.0
C893 C 0.33161 0.58841 0.67631 0.0
C894 C 0.34958 0.5898 0.66686 0.0
C895 C 0.35623 0.60283 0.63659 0.0
C896 C 0.36145 0.57704 0.68555 0.0
C897 C 0.32389 0.57441 0.70801 0.0
C898 C 0.367 0.57756 0.73232 0.0
C899 C 0.37827 0.5653 0.74911 0.0
C900 C 0.38401 0.55231 0.71933 0.0
C901 C 0.37826 0.55187 0.67264 0.0
C902 C 0.36719 0.56414 0.65594 0.0
H903 H 0.30949 0.57426 0.70912 0.0
H904 H 0.32783 0.56149 0.69619 0.0
H905 H 0.32896 0.5765 0.74396 0.0
H906 H 0.36268 0.5875 0.75567 0.0
H907 H 0.38251 0.56601 0.78514 0.0
H908 H 0.73928 0.13636 0.95788 0.0
H909 H 0.72388 0.11168 0.9191 0.0
H910 H 0.67505 0.12943 0.96783 0.0
H911 H 0.69016 0.15384 0.00698 0.0
H912 H 0.67804 0.09339 0.97717 0.0
H913 H 0.69532 0.11716 0.79859 0.0
H914 H 0.71296 0.11409 0.83828 0.0
H915 H 0.69818 0.13076 0.84959 0.0
C916 C 0.72527 0.13495 0.96063 0.0
C917 C 0.71596 0.14722 0.98525 0.0
C918 C 0.7165 0.12087 0.93827 0.0
C919 C 0.69832 0.11887 0.94015 0.0
C920 C 0.68909 0.13075 0.9659 0.0
H921 H 0.61533 0.08018 0.77749 0.0
H922 H 0.64006 0.09518 0.81541 0.0
C923 C 0.69778 0.14477 0.98814 0.0
C924 C 0.68856 0.10489 0.91413 0.0
H925 H 0.67575 0.0929 0.80413 0.0
C926 C 0.67773 0.09303 0.93931 0.0
C927 C 0.68816 0.1046 0.86476 0.0
C928 C 0.69916 0.11736 0.83598 0.0
C929 C 0.66588 0.08143 0.91652 0.0
C930 C 0.66507 0.08154 0.86717 0.0
C931 C 0.6765 0.09281 0.84194 0.0
C932 C 0.65095 0.07183 0.84149 0.0
C933 C 0.65359 0.06995 0.94548 0.0
C934 C 0.64903 0.05364 0.84277 0.0
C935 C 0.63475 0.04493 0.82119 0.0
C936 C 0.62221 0.0543 0.79785 0.0
C937 C 0.62461 0.07249 0.79532 0.0
C938 C 0.63881 0.08113 0.81688 0.0
H939 H 0.65403 0.07353 0.98305 0.0
H940 H 0.64005 0.07071 0.93281 0.0
H941 H 0.65718 0.05627 0.94225 0.0
H942 H 0.65843 0.0462 0.86095 0.0
H943 H 0.6334 0.0309 0.82355 0.0
H944 H 0.12508 0.57265 0.24044 0.0
H945 H 0.14909 0.58927 0.27785 0.0
H946 H 0.14972 0.55121 0.38815 0.0
H947 H 0.12617 0.53411 0.34957 0.0
H948 H 0.14638 0.60423 0.35808 0.0
H949 H 0.20078 0.56063 0.3699 0.0
H950 H 0.18213 0.55588 0.33308 0.0
H951 H 0.18114 0.55106 0.39455 0.0
C952 C 0.13062 0.56762 0.2721 0.0
C953 C 0.12372 0.55213 0.29223 0.0
C954 C 0.14434 0.57712 0.29346 0.0
C955 C 0.15132 0.57149 0.33576 0.0
C956 C 0.14489 0.55565 0.355 0.0
H957 H 0.19364 0.64505 0.53824 0.0
H958 H 0.17707 0.62186 0.49716 0.0
C959 C 0.13134 0.54593 0.33308 0.0
C960 C 0.16366 0.58327 0.36217 0.0
H961 H 0.20268 0.58591 0.4191 0.0
C962 C 0.15876 0.60022 0.37097 0.0
C963 C 0.17989 0.57814 0.3788 0.0
C964 C 0.18639 0.56049 0.36819 0.0
C965 C 0.16945 0.6121 0.39623 0.0
C966 C 0.18527 0.60673 0.4149 0.0
C967 C 0.19041 0.5899 0.40543 0.0
C968 C 0.19654 0.6186 0.44396 0.0
C969 C 0.16378 0.63041 0.40196 0.0
C970 C 0.21346 0.62364 0.42948 0.0
C971 C 0.22313 0.63671 0.4535 0.0
C972 C 0.21592 0.645 0.49208 0.0
C973 C 0.19942 0.63912 0.50816 0.0
C974 C 0.18991 0.62591 0.48463 0.0
H975 H 0.1543 0.63374 0.3746 0.0
H976 H 0.15735 0.63163 0.43636 0.0
H977 H 0.17503 0.64001 0.4004 0.0
H978 H 0.21886 0.61806 0.39836 0.0
H979 H 0.23584 0.64095 0.44037 0.0
H980 H 0.6233 0.99177 0.65301 0.0
H981 H 0.64284 0.97075 0.6237 0.0
H982 H 0.6398 0.94354 0.75521 0.0
H983 H 0.6196 0.9646 0.78489 0.0
H984 H 0.67444 0.96327 0.65425 0.0
H985 H 0.62967 0.90435 0.66167 0.0
H986 H 0.62222 0.92598 0.66845 0.0
H987 H 0.63276 0.91569 0.71611 0.0
C988 C 0.62671 0.98135 0.67599 0.0
C989 C 0.61983 0.97988 0.72141 0.0
C990 C 0.63793 0.9693 0.65902 0.0
C991 C 0.64265 0.95541 0.6869 0.0
C992 C 0.63606 0.95396 0.73267 0.0
H993 H 0.7299 0.89344 0.62871 0.0
H994 H 0.70941 0.91343 0.65928 0.0
C995 C 0.62466 0.96607 0.74976 0.0
C996 C 0.65481 0.94293 0.66754 0.0
H997 H 0.65855 0.90039 0.63734 0.0
C998 C 0.67095 0.94952 0.65065 0.0
C999 C 0.65015 0.92502 0.66209 0.0
C1000 C 0.6327 0.9173 0.67762 0.0
C1001 C 0.68257 0.93876 0.62872 0.0
C1002 C 0.6781 0.92081 0.62423 0.0
C1003 C 0.66193 0.91417 0.6408 0.0
C1004 C 0.69046 0.90867 0.60448 0.0
C1005 C 0.69944 0.94677 0.60987 0.0
C1006 C 0.68657 0.89916 0.56353 0.0
C1007 C 0.69837 0.88761 0.54568 0.0
C1008 C 0.71413 0.8853 0.56892 0.0
C1009 C 0.71793 0.89494 0.60975 0.0
C1010 C 0.70623 0.90643 0.62733 0.0
H1011 H 0.69882 0.96099 0.60453 0.0
H1012 H 0.70999 0.94466 0.63522 0.0
H1013 H 0.70288 0.9407 0.57621 0.0
H1014 H 0.67441 0.90066 0.54547 0.0
H1015 H 0.69501 0.88025 0.51445 0.0
H1016 H 0.36856 0.50148 0.81685 0.0
H1017 H 0.34336 0.48658 0.85451 0.0
H1018 H 0.36353 0.43709 0.82068 0.0
H1019 H 0.38837 0.45167 0.78241 0.0
H1020 H 0.32834 0.43786 0.8047 0.0
H1021 H 0.34588 0.46294 0.9819 0.0
H1022 H 0.3428 0.47886 0.93728 0.0
H1023 H 0.3607 0.46502 0.93326 0.0
C1024 C 0.36757 0.48742 0.81715 0.0
C1025 C 0.38061 0.4778 0.79685 0.0
C1026 C 0.3532 0.47894 0.8389 0.0
C1027 C 0.35172 0.46073 0.84097 0.0
C1028 C 0.36442 0.45115 0.81952 0.0
H1029 H 0.31275 0.38169 0.01552 0.0
H1030 H 0.32744 0.40612 0.97543 0.0
C1031 C 0.37867 0.45956 0.7977 0.0
C1032 C 0.33739 0.45133 0.86661 0.0
H1033 H 0.32272 0.44204 0.97675 0.0
C1034 C 0.32686 0.43897 0.84222 0.0
C1035 C 0.3356 0.45278 0.9156 0.0
C1036 C 0.34689 0.46551 0.9438 0.0
C1037 C 0.31524 0.42737 0.86573 0.0
C1038 C 0.31389 0.42841 0.91489 0.0
C1039 C 0.32375 0.44137 0.93903 0.0
C1040 C 0.30424 0.41474 0.94225 0.0
C1041 C 0.30536 0.41336 0.83815 0.0
C1042 C 0.28621 0.41171 0.93778 0.0
C1043 C 0.2777 0.39762 0.96065 0.0
C1044 C 0.28712 0.38635 0.98835 0.0
C1045 C 0.30507 0.38995 0.99417 0.0
C1046 C 0.31351 0.40398 0.97142 0.0
H1047 H 0.30995 0.4127 0.80146 0.0
H1048 H 0.30663 0.40048 0.85469 0.0
H1049 H 0.29138 0.41604 0.83762 0.0
H1050 H 0.27878 0.42003 0.91593 0.0
H1051 H 0.26385 0.39531 0.95561 0.0
H1052 H 0.77472 0.14148 0.1321 0.0
H1053 H 0.79527 0.12183 0.16352 0.0
H1054 H 0.82773 0.12998 0.04207 0.0
H1055 H 0.80714 0.15024 0.0104 0.0
H1056 H 0.80571 0.09168 0.12962 0.0
H1057 H 0.86216 0.13906 0.14902 0.0
H1058 H 0.84049 0.14563 0.13731 0.0
H1059 H 0.85338 0.13736 0.09097 0.0
C1060 C 0.7862 0.13915 0.11179 0.0
C1061 C 0.7893 0.14751 0.06868 0.0
C1062 C 0.79797 0.12787 0.12995 0.0
C1063 C 0.81319 0.1246 0.10562 0.0
C1064 C 0.81624 0.13259 0.06197 0.0
H1065 H 0.87624 0.03824 0.15843 0.0
H1066 H 0.85643 0.05908 0.12922 0.0
C1067 C 0.80439 0.14401 0.04366 0.0
C1068 C 0.82546 0.1125 0.12621 0.0
H1069 H 0.86692 0.10963 0.16665 0.0
C1070 C 0.8191 0.09563 0.13769 0.0
C1071 C 0.84283 0.11775 0.13768 0.0
C1072 C 0.85013 0.13598 0.12857 0.0
C1073 C 0.82962 0.08382 0.15967 0.0
C1074 C 0.84715 0.08884 0.16965 0.0
C1075 C 0.85349 0.10579 0.15888 0.0
C1076 C 0.85928 0.0763 0.18862 0.0
C1077 C 0.82177 0.0661 0.17252 0.0
C1078 C 0.86781 0.07918 0.2316 0.0
C1079 C 0.87934 0.06719 0.2486 0.0
C1080 C 0.8826 0.05226 0.22258 0.0
C1081 C 0.87399 0.04953 0.17964 0.0
C1082 C 0.86256 0.06142 0.16283 0.0
H1083 H 0.80742 0.06614 0.1758 0.0
H1084 H 0.82475 0.05671 0.14468 0.0
H1085 H 0.82718 0.06147 0.20592 0.0
H1086 H 0.86551 0.09067 0.25195 0.0
H1087 H 0.88588 0.06974 0.28156 0.0
H1088 H 0.77751 0.64431 0.90103 0.0
H1089 H 0.79835 0.62458 0.87065 0.0
H1090 H 0.82566 0.62659 1.00193 0.0
H1091 H 0.80478 0.64673 0.03299 0.0
H1092 H 0.84008 0.63281 0.87717 0.0
H1093 H 0.81056 0.5722 0.9568 0.0
H1094 H 0.79758 0.59025 0.94254 0.0
H1095 H 0.81239 0.59195 0.99069 0.0
C1096 C 0.78788 0.64055 0.92378 0.0
C1097 C 0.78945 0.6471 0.96961 0.0
C1098 C 0.79981 0.62931 0.90614 0.0
C1099 C 0.81352 0.62419 0.93397 0.0
C1100 C 0.81512 0.63045 0.97996 0.0
H1101 H 0.8878 0.54677 0.89075 0.0
H1102 H 0.86817 0.56772 0.9201 0.0
C1103 C 0.80319 0.64189 0.99766 0.0
C1104 C 0.82604 0.61228 0.91431 0.0
H1105 H 0.83481 0.56951 0.90835 0.0
C1106 C 0.83907 0.61897 0.88408 0.0
C1107 C 0.8245 0.59429 0.92319 0.0
C1108 C 0.81051 0.58658 0.95496 0.0
C1109 C 0.85088 0.60809 0.86308 0.0
C1110 C 0.84925 0.58997 0.87153 0.0
C1111 C 0.83607 0.58336 0.90165 0.0
C1112 C 0.86164 0.57768 0.8521 0.0
C1113 C 0.86523 0.61621 0.83317 0.0
C1114 C 0.86465 0.5762 0.80377 0.0
C1115 C 0.87624 0.56426 0.78667 0.0
C1116 C 0.88465 0.55337 0.81763 0.0
C1117 C 0.88145 0.55484 0.86579 0.0
C1118 C 0.87019 0.56686 0.88275 0.0
H1119 H 0.86748 0.6303 0.84051 0.0
H1120 H 0.87759 0.60978 0.83877 0.0
H1121 H 0.86157 0.61476 0.79586 0.0
H1122 H 0.8579 0.58409 0.77922 0.0
H1123 H 0.87836 0.56334 0.7494 0.0
H1124 H 0.18906 0.15091 0.52234 0.0
H1125 H 0.17396 0.12641 0.56099 0.0
H1126 H 0.22264 0.10956 0.61338 0.0
H1127 H 0.23802 0.13436 0.57522 0.0
H1128 H 0.177 0.09053 0.55414 0.0
H1129 H 0.19358 0.11556 0.73204 0.0
H1130 H 0.19679 0.12874 0.68042 0.0
H1131 H 0.21143 0.11211 0.69342 0.0
C1132 C 0.19666 0.142 0.54182 0.0
C1133 C 0.21477 0.14478 0.54608 0.0
C1134 C 0.18797 0.12793 0.56377 0.0
C1135 C 0.19714 0.1163 0.59055 0.0
C1136 C 0.21529 0.11856 0.59347 0.0
H1137 H 0.13242 0.02897 0.71127 0.0
H1138 H 0.15725 0.0441 0.67257 0.0
C1139 C 0.22405 0.1327 0.57146 0.0
C1140 C 0.18732 0.10246 0.61692 0.0
H1141 H 0.17418 0.09117 0.72711 0.0
C1142 C 0.17658 0.09043 0.592 0.0
C1143 C 0.18676 0.10249 0.66628 0.0
C1144 C 0.19764 0.11545 0.69483 0.0
C1145 C 0.16467 0.07897 0.61503 0.0
C1146 C 0.1637 0.0794 0.66432 0.0
C1147 C 0.17504 0.09084 0.68932 0.0
C1148 C 0.14953 0.06984 0.69014 0.0
C1149 C 0.15248 0.06726 0.58634 0.0
C1150 C 0.13728 0.07928 0.71393 0.0
C1151 C 0.12319 0.07073 0.73619 0.0
C1152 C 0.12101 0.0525 0.73524 0.0
C1153 C 0.13361 0.04302 0.71246 0.0
C1154 C 0.14778 0.05163 0.69015 0.0
H1155 H 0.15308 0.07053 0.54857 0.0
H1156 H 0.15602 0.05361 0.59053 0.0
H1157 H 0.13889 0.06815 0.59851 0.0
H1158 H 0.1384 0.09334 0.71439 0.0
H1159 H 0.11385 0.07851 0.7535 0.0
H1160 H 0.69536 0.38077 0.52677 0.0
H1161 H 0.67462 0.40107 0.49594 0.0
H1162 H 0.70882 0.41292 0.37981 0.0
H1163 H 0.72946 0.39314 0.41035 0.0
H1164 H 0.69647 0.44202 0.41854 0.0
H1165 H 0.64266 0.39298 0.38204 0.0
H1166 H 0.65047 0.39338 0.44119 0.0
H1167 H 0.66448 0.38709 0.39483 0.0
C1168 C 0.69846 0.38783 0.4949 0.0
C1169 C 0.71403 0.3853 0.471 0.0
C1170 C 0.68654 0.39927 0.47705 0.0
C1171 C 0.69004 0.4083 0.43508 0.0
C1172 C 0.70577 0.40605 0.41204 0.0
H1173 H 0.61912 0.46411 0.25658 0.0
H1174 H 0.63955 0.44337 0.28679 0.0
C1175 C 0.71758 0.3947 0.42966 0.0
C1176 C 0.67766 0.42036 0.4149 0.0
H1177 H 0.63704 0.42244 0.36811 0.0
C1178 C 0.68347 0.43772 0.40759 0.0
C1179 C 0.66083 0.41468 0.39968 0.0
C1180 C 0.65422 0.39599 0.40436 0.0
C1181 C 0.67288 0.44959 0.38606 0.0
C1182 C 0.65584 0.44408 0.3722 0.0
C1183 C 0.65008 0.42666 0.37886 0.0
C1184 C 0.64358 0.45647 0.35308 0.0
C1185 C 0.68016 0.46791 0.3778 0.0
C1186 C 0.63899 0.47057 0.38037 0.0
C1187 C 0.62753 0.48238 0.36322 0.0
C1188 C 0.62018 0.48033 0.31843 0.0
C1189 C 0.62466 0.46613 0.29102 0.0
C1190 C 0.63625 0.45425 0.30833 0.0
H1191 H 0.69458 0.4686 0.37705 0.0
H1192 H 0.67534 0.47316 0.34443 0.0
H1193 H 0.67604 0.47635 0.40666 0.0
H1194 H 0.64416 0.47237 0.41531 0.0
H1195 H 0.62429 0.49305 0.38557 0.0
H1196 H 0.36689 0.99861 0.2364 0.0
H1197 H 0.3418 0.98209 0.20228 0.0
H1198 H 0.37252 0.93736 0.18843 0.0
H1199 H 0.39729 0.95344 0.22307 0.0
H1200 H 0.33768 0.96556 0.11611 0.0
H1201 H 0.33048 0.91738 0.25871 0.0
H1202 H 0.34352 0.93744 0.26484 0.0
H1203 H 0.35221 0.91899 0.23638 0.0
C1204 C 0.36824 0.98524 0.22614 0.0
C1205 C 0.38401 0.97726 0.23312 0.0
C1206 C 0.35391 0.97583 0.20673 0.0
C1207 C 0.35518 0.95836 0.194 0.0
C1208 C 0.37107 0.95064 0.19945 0.0
H1209 H 0.31293 0.88017 0.02309 0.0
H1210 H 0.32836 0.90434 0.06293 0.0
C1211 C 0.38526 0.9599 0.21912 0.0
C1212 C 0.34017 0.94804 0.17402 0.0
H1213 H 0.3179 0.90872 0.18436 0.0
C1214 C 0.33306 0.95332 0.13152 0.0
C1215 C 0.334 0.93216 0.19445 0.0
C1216 C 0.34033 0.92625 0.24137 0.0
C1217 C 0.32086 0.94248 0.10733 0.0
C1218 C 0.31575 0.92609 0.12619 0.0
C1219 C 0.32197 0.92131 0.16999 0.0
C1220 C 0.30569 0.91286 0.09868 0.0
C1221 C 0.31401 0.94818 0.06086 0.0
C1222 C 0.28778 0.90983 0.10544 0.0
C1223 C 0.27882 0.896 0.08251 0.0
C1224 C 0.28774 0.88489 0.05306 0.0
C1225 C 0.30563 0.88836 0.04566 0.0
C1226 C 0.31449 0.90221 0.06822 0.0
H1227 H 0.31757 0.96206 0.05356 0.0
H1228 H 0.31938 0.94015 0.03272 0.0
H1229 H 0.29965 0.94608 0.05991 0.0
H1230 H 0.28084 0.91791 0.12914 0.0
H1231 H 0.26505 0.89371 0.089 0.0
H1232 H 0.81311 0.38046 0.52749 0.0
H1233 H 0.82802 0.4049 0.56713 0.0
H1234 H 0.77922 0.42082 0.62109 0.0
H1235 H 0.76404 0.39613 0.58182 0.0
H1236 H 0.824 0.44101 0.56152 0.0
H1237 H 0.80919 0.41437 0.73874 0.0
H1238 H 0.80619 0.40143 0.68659 0.0
H1239 H 0.79105 0.41746 0.70077 0.0
C1240 C 0.80545 0.38915 0.54757 0.0
C1241 C 0.78736 0.38617 0.55184 0.0
C1242 C 0.81402 0.40318 0.57007 0.0
C1243 C 0.80475 0.41453 0.59746 0.0
C1244 C 0.78663 0.41204 0.60061 0.0
H1245 H 0.86928 0.50209 0.71805 0.0
H1246 H 0.84412 0.48696 0.68076 0.0
C1247 C 0.77799 0.39796 0.57798 0.0
C1248 C 0.81443 0.42839 0.6241 0.0
H1249 H 0.82809 0.43915 0.73423 0.0
C1250 C 0.8247 0.44085 0.59934 0.0
C1251 C 0.81534 0.42801 0.6734 0.0
C1252 C 0.80497 0.41457 0.70166 0.0
C1253 C 0.83652 0.45241 0.62242 0.0
C1254 C 0.83786 0.45163 0.67163 0.0
C1255 C 0.82694 0.43976 0.69653 0.0
C1256 C 0.85208 0.46121 0.69723 0.0
C1257 C 0.84822 0.46458 0.59373 0.0
C1258 C 0.86454 0.45177 0.72021 0.0
C1259 C 0.87878 0.46031 0.74177 0.0
C1260 C 0.88094 0.47854 0.74086 0.0
C1261 C 0.86811 0.48804 0.71913 0.0
C1262 C 0.85376 0.47942 0.6976 0.0
H1263 H 0.84748 0.46151 0.55586 0.0
H1264 H 0.84432 0.47808 0.59866 0.0
H1265 H 0.86193 0.46401 0.60524 0.0
H1266 H 0.86349 0.4377 0.72039 0.0
H1267 H 0.8883 0.45252 0.75826 0.0
H1268 H 0.27497 0.14098 0.40526 0.0
H1269 H 0.29555 0.12087 0.3762 0.0
H1270 H 0.32661 0.1288 0.50031 0.0
H1271 H 0.30592 0.14945 0.52986 0.0
H1272 H 0.346 0.12999 0.41481 0.0
H1273 H 0.3011 0.07146 0.42313 0.0
H1274 H 0.29222 0.08915 0.39221 0.0
H1275 H 0.29693 0.09131 0.45352 0.0
C1276 C 0.28609 0.13844 0.42678 0.0
C1277 C 0.28872 0.14677 0.47016 0.0
C1278 C 0.29784 0.12685 0.41004 0.0
C1279 C 0.31248 0.12313 0.43629 0.0
C1280 C 0.3153 0.13143 0.4796 0.0
H1281 H 0.37586 0.03692 0.38101 0.0
H1282 H 0.35651 0.05787 0.41202 0.0
C1283 C 0.30345 0.14313 0.49656 0.0
C1284 C 0.32478 0.11069 0.41758 0.0
H1285 H 0.32674 0.0691 0.37785 0.0
C1286 C 0.34187 0.11663 0.40706 0.0
C1287 C 0.31938 0.09325 0.4076 0.0
C1288 C 0.30146 0.08584 0.42009 0.0
C1289 C 0.35362 0.10565 0.38611 0.0
C1290 C 0.34801 0.08837 0.37469 0.0
C1291 C 0.33098 0.08241 0.38592 0.0
C1292 C 0.35985 0.07579 0.35427 0.0
C1293 C 0.372 0.11255 0.37722 0.0
C1294 C 0.36802 0.07868 0.31078 0.0
C1295 C 0.37925 0.0666 0.29272 0.0
C1296 C 0.38239 0.05143 0.31781 0.0
C1297 C 0.37381 0.04846 0.36067 0.0
C1298 C 0.36271 0.06046 0.37859 0.0
H1299 H 0.37531 0.12451 0.39774 0.0
H1300 H 0.3814 0.10267 0.38605 0.0
H1301 H 0.37352 0.11579 0.33966 0.0
H1302 H 0.36572 0.09025 0.29085 0.0
H1303 H 0.38566 0.06927 0.25966 0.0
H1304 H 0.61197 0.58051 0.25256 0.0
H1305 H 0.63672 0.59583 0.21577 0.0
H1306 H 0.65985 0.54719 0.18908 0.0
H1307 H 0.63477 0.53152 0.22529 0.0
H1308 H 0.6717 0.59688 0.2367 0.0
H1309 H 0.65864 0.56937 0.05949 0.0
H1310 H 0.64298 0.56711 0.10616 0.0
H1311 H 0.66154 0.55407 0.10577 0.0
C1312 C 0.6223 0.57297 0.23915 0.0
C1313 C 0.62127 0.55472 0.24164 0.0
C1314 C 0.63649 0.5818 0.21815 0.0
C1315 C 0.65002 0.57266 0.19919 0.0
C1316 C 0.64938 0.55448 0.20275 0.0
H1317 H 0.73892 0.63761 0.08853 0.0
H1318 H 0.72325 0.61336 0.12852 0.0
C1319 C 0.63507 0.54556 0.22364 0.0
C1320 C 0.6644 0.58244 0.17477 0.0
H1321 H 0.68098 0.59115 0.06617 0.0
C1322 C 0.67398 0.59544 0.19957 0.0
C1323 C 0.66723 0.58058 0.12624 0.0
C1324 C 0.65702 0.56713 0.09759 0.0
C1325 C 0.68573 0.60713 0.17682 0.0
C1326 C 0.68812 0.60561 0.12811 0.0
C1327 C 0.67915 0.59215 0.10361 0.0
C1328 C 0.69808 0.61918 0.10127 0.0
C1329 C 0.69469 0.62169 0.20446 0.0
C1330 C 0.68915 0.63014 0.07191 0.0
C1331 C 0.69798 0.64396 0.04919 0.0
C1332 C 0.716 0.64706 0.05512 0.0
C1333 C 0.72505 0.63563 0.08327 0.0
C1334 C 0.71613 0.62181 0.10627 0.0
H1335 H 0.68983 0.62223 0.24091 0.0
H1336 H 0.70884 0.61985 0.20555 0.0
H1337 H 0.69278 0.63436 0.18737 0.0
H1338 H 0.67521 0.62829 0.06761 0.0
H1339 H 0.6906 0.65239 0.02754 0.0
H1340 H 0.19727 0.88246 0.03129 0.0
H1341 H 0.17657 0.90274 1.00024 0.0
H1342 H 0.20728 0.90896 0.87494 0.0
H1343 H 0.22795 0.88931 0.90572 0.0
H1344 H 0.19793 0.93966 0.90732 0.0
H1345 H 0.14038 0.89318 0.8982 0.0
H1346 H 0.15005 0.89548 0.95509 0.0
H1347 H 0.16204 0.88629 0.90827 0.0
C1348 C 0.1996 0.88826 0.99729 0.0
C1349 C 0.21425 0.88424 0.97104 0.0
C1350 C 0.1877 0.8997 0.97936 0.0
C1351 C 0.19022 0.90716 0.93485 0.0
C1352 C 0.20499 0.90334 0.90921 0.0
H1353 H 0.11644 0.96084 0.76028 0.0
H1354 H 0.13683 0.94007 0.79054 0.0
C1355 C 0.21683 0.89206 0.92701 0.0
C1356 C 0.17788 0.91927 0.91463 0.0
H1357 H 0.13595 0.92245 0.8782 0.0
C1358 C 0.18437 0.93587 0.901 0.0
C1359 C 0.16027 0.91423 0.9055 0.0
C1360 C 0.15275 0.89628 0.91709 0.0
C1361 C 0.17377 0.94761 0.87901 0.0
C1362 C 0.15604 0.94279 0.87122 0.0
C1363 C 0.14954 0.92613 0.88427 0.0
C1364 C 0.14392 0.95527 0.85189 0.0
C1365 C 0.18173 0.96501 0.86372 0.0
C1366 C 0.14113 0.97058 0.87634 0.0
C1367 C 0.12967 0.98239 0.85916 0.0
C1368 C 0.12057 0.97913 0.81718 0.0
C1369 C 0.12337 0.96379 0.79246 0.0
C1370 C 0.13491 0.95189 0.80985 0.0
H1371 H 0.19603 0.96469 0.85944 0.0
H1372 H 0.17604 0.96919 0.83024 0.0
H1373 H 0.17918 0.97487 0.8907 0.0
H1374 H 0.14767 0.97333 0.90921 0.0
H1375 H 0.12779 0.99401 0.87934 0.0
loop_
_geom_bond_atom_site_label_1
_geom_bond_atom_site_label_2
_geom_bond_distance
_geom_bond_site_symmetry_2
_ccdc_geom_bond_type
Co0 O1 2.216 . S
Co0 O2 2.091 . S
Co0 O4 2.004 1_554 S
Co0 O10 2.021 1_554 S
Co0 O12 2.137 . S
Co0 O13 2.244 . S
O1 Co0 2.216 . S
O1 C8 1.247 . S
O2 Co0 2.091 . S
O2 C8 1.261 . S
C3 O12 1.247 . S
C3 O13 1.272 . S
O4 Co0 2.004 1_556 S
O4 C9 1.259 . S
Co5 O6 2.061 1_554 S
Co5 O11 2.052 . S
Co5 O13 2.135 . S
O6 Co5 2.061 1_556 S
O6 C9 1.235 . S
C7 O10 1.238 . S
C7 O11 1.241 1_556 S
C8 O1 1.247 . S
C8 O2 1.261 . S
C9 O4 1.259 . S
C9 O6 1.235 . S
O10 Co0 2.021 1_556 S
O10 C7 1.238 . S
O11 Co5 2.052 . S
O11 C7 1.241 1_554 S
O12 Co0 2.137 . S
O12 C3 1.247 . S
O13 Co0 2.244 . S
O13 C3 1.272 . S
O13 Co5 2.135 . S
Co14 O15 2.216 . S
Co14 O16 2.091 . S
Co14 O18 2.004 . S
Co14 O24 2.021 . S
Co14 O26 2.137 . S
Co14 O27 2.244 . S
O15 Co14 2.216 . S
O15 C22 1.247 . S
O16 Co14 2.091 . S
O16 C22 1.261 . S
C17 O26 1.247 . S
C17 O27 1.272 . S
O18 Co14 2.004 . S
O18 C23 1.259 . S
Co19 O20 2.086 . S
Co19 O25 2.052 . S
Co19 O27 2.135 1_565 S
O20 Co19 2.086 . S
O20 C23 1.198 1_565 S
C21 O24 1.238 1_565 S
C21 O25 1.241 . S
C22 O15 1.247 . S
C22 O16 1.261 . S
C23 O18 1.259 . S
C23 O20 1.198 1_545 S
O24 Co14 2.021 . S
O24 C21 1.238 1_545 S
O25 Co19 2.052 . S
O25 C21 1.241 . S
O26 Co14 2.137 . S
O26 C17 1.247 . S
O27 Co14 2.244 . S
O27 C17 1.272 . S
O27 Co19 2.135 1_545 S
Co28 O29 2.216 . S
Co28 O30 2.091 . S
Co28 O32 2.004 . S
Co28 O38 2.021 . S
Co28 O40 2.137 . S
Co28 O41 2.244 . S
O29 Co28 2.216 . S
O29 C36 1.247 . S
O30 Co28 2.091 . S
O30 C36 1.261 . S
C31 O40 1.247 . S
C31 O41 1.272 . S
O32 Co28 2.004 . S
O32 C37 1.259 . S
Co33 O34 2.061 . S
Co33 O39 2.052 . S
Co33 O41 2.135 . S
O34 Co33 2.061 . S
O34 C37 1.235 . S
C35 O38 1.238 . S
C35 O39 1.241 . S
C36 O29 1.247 . S
C36 O30 1.261 . S
C37 O32 1.259 . S
C37 O34 1.235 . S
O38 Co28 2.021 . S
O38 C35 1.238 . S
O39 Co33 2.052 . S
O39 C35 1.241 . S
O40 Co28 2.137 . S
O40 C31 1.247 . S
O41 Co28 2.244 . S
O41 C31 1.272 . S
O41 Co33 2.135 . S
Co42 O43 2.216 . S
Co42 O44 2.091 1_545 S
Co42 O46 2.004 . S
Co42 O52 2.021 . S
Co42 O54 2.137 1_545 S
Co42 O55 2.244 . S
O43 Co42 2.216 . S
O43 C50 1.247 1_545 S
O44 Co42 2.091 1_565 S
O44 C50 1.261 . S
C45 O54 1.247 1_545 S
C45 O55 1.272 . S
O46 Co42 2.004 . S
O46 C51 1.259 . S
Co47 O48 2.061 . S
Co47 O53 2.052 . S
Co47 O55 2.135 . S
O48 Co47 2.061 . S
O48 C51 1.235 . S
C49 O52 1.238 . S
C49 O53 1.241 . S
C50 O43 1.247 1_565 S
C50 O44 1.261 . S
C51 O46 1.259 . S
C51 O48 1.235 . S
O52 Co42 2.021 . S
O52 C49 1.238 . S
O53 Co47 2.052 . S
O53 C49 1.241 . S
O54 Co42 2.137 1_565 S
O54 C45 1.247 1_565 S
O55 Co42 2.244 . S
O55 C45 1.272 . S
O55 Co47 2.135 . S
Co56 O57 2.216 1_554 S
Co56 O58 2.091 . S
Co56 O60 2.004 . S
Co56 O66 2.021 . S
Co56 O68 2.137 1_554 S
Co56 O69 2.244 1_554 S
O57 Co56 2.216 1_556 S
O57 C64 1.247 . S
O58 Co56 2.091 . S
O58 C64 1.261 1_554 S
C59 O68 1.247 . S
C59 O69 1.272 . S
O60 Co56 2.004 . S
O60 C65 1.259 . S
Co61 O62 2.061 . S
Co61 O67 2.052 . S
Co61 O69 2.135 1_554 S
O62 Co61 2.061 . S
O62 C65 1.235 . S
C63 O66 1.238 . S
C63 O67 1.241 . S
C64 O57 1.247 . S
C64 O58 1.261 1_556 S
C65 O60 1.259 . S
C65 O62 1.235 . S
O66 Co56 2.021 . S
O66 C63 1.238 . S
O67 Co61 2.052 . S
O67 C63 1.241 . S
O68 Co56 2.137 1_556 S
O68 C59 1.247 . S
O69 Co56 2.244 1_556 S
O69 C59 1.272 . S
O69 Co61 2.135 1_556 S
Co70 O71 2.216 . S
Co70 O72 2.091 1_545 S
Co70 O74 2.004 . S
Co70 O80 2.021 . S
Co70 O82 2.137 1_545 S
Co70 O83 2.244 . S
O71 Co70 2.216 . S
O71 C78 1.247 1_545 S
O72 Co70 2.091 1_565 S
O72 C78 1.261 . S
C73 O82 1.247 1_545 S
C73 O83 1.272 . S
O74 Co70 2.004 . S
O74 C79 1.259 . S
Co75 O76 2.061 . S
Co75 O81 2.052 . S
Co75 O83 2.135 . S
O76 Co75 2.061 . S
O76 C79 1.235 . S
C77 O80 1.238 . S
C77 O81 1.241 . S
C78 O71 1.247 1_565 S
C78 O72 1.261 . S
C79 O74 1.259 . S
C79 O76 1.235 . S
O80 Co70 2.021 . S
O80 C77 1.238 . S
O81 Co75 2.052 . S
O81 C77 1.241 . S
O82 Co70 2.137 1_565 S
O82 C73 1.247 1_565 S
O83 Co70 2.244 . S
O83 C73 1.272 . S
O83 Co75 2.135 . S
Co84 O85 2.216 . S
Co84 O86 2.091 . S
Co84 O88 2.004 . S
Co84 O94 2.021 . S
Co84 O96 2.137 . S
Co84 O97 2.244 . S
O85 Co84 2.216 . S
O85 C92 1.247 . S
O86 Co84 2.091 . S
O86 C92 1.261 . S
C87 O96 1.247 . S
C87 O97 1.272 . S
O88 Co84 2.004 . S
O88 C93 1.259 . S
Co89 O90 2.061 . S
Co89 O95 2.052 . S
Co89 O97 2.135 . S
O90 Co89 2.061 . S
O90 C93 1.235 . S
C91 O94 1.238 . S
C91 O95 1.241 . S
C92 O85 1.247 . S
C92 O86 1.261 . S
C93 O88 1.259 . S
C93 O90 1.235 . S
O94 Co84 2.021 . S
O94 C91 1.238 . S
O95 Co89 2.052 . S
O95 C91 1.241 . S
O96 Co84 2.137 . S
O96 C87 1.247 . S
O97 Co84 2.244 . S
O97 C87 1.272 . S
O97 Co89 2.135 . S
Co98 O99 2.216 . S
Co98 O100 2.091 . S
Co98 O102 2.004 . S
Co98 O108 2.021 . S
Co98 O110 2.137 . S
Co98 O111 2.244 . S
O99 Co98 2.216 . S
O99 C106 1.247 . S
O100 Co98 2.091 . S
O100 C106 1.261 . S
C101 O110 1.247 . S
C101 O111 1.272 . S
O102 Co98 2.004 . S
O102 C107 1.259 . S
Co103 O104 2.086 . S
Co103 O109 2.052 . S
Co103 O111 2.135 1_565 S
O104 Co103 2.086 . S
O104 C107 1.198 1_565 S
C105 O108 1.238 1_565 S
C105 O109 1.241 . S
C106 O99 1.247 . S
C106 O100 1.261 . S
C107 O102 1.259 . S
C107 O104 1.198 1_545 S
O108 Co98 2.021 . S
O108 C105 1.238 1_545 S
O109 Co103 2.052 . S
O109 C105 1.241 . S
O110 Co98 2.137 . S
O110 C101 1.247 . S
O111 Co98 2.244 . S
O111 C101 1.272 . S
O111 Co103 2.135 1_545 S
Co112 O113 2.216 . S
Co112 O114 2.091 . S
Co112 O116 2.004 . S
Co112 O122 2.021 . S
Co112 O124 2.137 . S
Co112 O125 2.244 . S
O113 Co112 2.216 . S
O113 C120 1.247 . S
O114 Co112 2.091 . S
O114 C120 1.261 . S
C115 O124 1.247 . S
C115 O125 1.272 . S
O116 Co112 2.004 . S
O116 C121 1.259 . S
Co117 O118 2.061 . S
Co117 O123 2.052 . S
Co117 O125 2.135 . S
O118 Co117 2.061 . S
O118 C121 1.235 . S
C119 O122 1.238 . S
C119 O123 1.241 . S
C120 O113 1.247 . S
C120 O114 1.261 . S
C121 O116 1.259 . S
C121 O118 1.235 . S
O122 Co112 2.021 . S
O122 C119 1.238 . S
O123 Co117 2.052 . S
O123 C119 1.241 . S
O124 Co112 2.137 . S
O124 C115 1.247 . S
O125 Co112 2.244 . S
O125 C115 1.272 . S
O125 Co117 2.135 . S
Co126 O127 2.216 . S
Co126 O128 2.091 . S
Co126 O130 2.004 . S
Co126 O136 2.021 . S
Co126 O138 2.137 . S
Co126 O139 2.244 . S
O127 Co126 2.216 . S
O127 C134 1.247 . S
O128 Co126 2.091 . S
O128 C134 1.261 . S
C129 O138 1.247 . S
C129 O139 1.272 . S
O130 Co126 2.004 . S
O130 C135 1.259 . S
Co131 O132 2.061 . S
Co131 O137 2.052 . S
Co131 O139 2.135 . S
O132 Co131 2.061 . S
O132 C135 1.235 . S
C133 O136 1.238 . S
C133 O137 1.241 . S
C134 O127 1.247 . S
C134 O128 1.261 . S
C135 O130 1.259 . S
C135 O132 1.235 . S
O136 Co126 2.021 . S
O136 C133 1.238 . S
O137 Co131 2.052 . S
O137 C133 1.241 . S
O138 Co126 2.137 . S
O138 C129 1.247 . S
O139 Co126 2.244 . S
O139 C129 1.272 . S
O139 Co131 2.135 . S
Co140 O141 2.216 . S
Co140 O142 2.091 . S
Co140 O144 2.004 1_554 S
Co140 O150 2.021 1_554 S
Co140 O152 2.137 . S
Co140 O153 2.244 . S
O141 Co140 2.216 . S
O141 C148 1.247 . S
O142 Co140 2.091 . S
O142 C148 1.261 . S
C143 O152 1.247 . S
C143 O153 1.272 . S
O144 Co140 2.004 1_556 S
O144 C149 1.259 . S
Co145 O146 2.061 1_554 S
Co145 O151 2.052 . S
Co145 O153 2.135 . S
O146 Co145 2.061 1_556 S
O146 C149 1.235 . S
C147 O150 1.238 . S
C147 O151 1.241 1_556 S
C148 O141 1.247 . S
C148 O142 1.261 . S
C149 O144 1.259 . S
C149 O146 1.235 . S
O150 Co140 2.021 1_556 S
O150 C147 1.238 . S
O151 Co145 2.052 . S
O151 C147 1.241 1_554 S
O152 Co140 2.137 . S
O152 C143 1.247 . S
O153 Co140 2.244 . S
O153 C143 1.272 . S
O153 Co145 2.135 . S
Co154 O155 2.216 . S
Co154 O156 2.091 . S
Co154 O158 2.004 . S
Co154 O164 2.021 . S
Co154 O166 2.137 . S
Co154 O167 2.244 . S
O155 Co154 2.216 . S
O155 C162 1.247 . S
O156 Co154 2.091 . S
O156 C162 1.261 . S
C157 O166 1.247 . S
C157 O167 1.272 . S
O158 Co154 2.004 . S
O158 C163 1.259 . S
Co159 O160 2.061 . S
Co159 O165 2.052 . S
Co159 O167 2.135 . S
O160 Co159 2.061 . S
O160 C163 1.235 . S
C161 O164 1.238 . S
C161 O165 1.241 . S
C162 O155 1.247 . S
C162 O156 1.261 . S
C163 O158 1.259 . S
C163 O160 1.235 . S
O164 Co154 2.021 . S
O164 C161 1.238 . S
O165 Co159 2.052 . S
O165 C161 1.241 . S
O166 Co154 2.137 . S
O166 C157 1.247 . S
O167 Co154 2.244 . S
O167 C157 1.272 . S
O167 Co159 2.135 . S
Co168 O169 2.216 . S
Co168 O170 2.091 . S
Co168 O172 2.004 . S
Co168 O178 2.021 . S
Co168 O180 2.137 . S
Co168 O181 2.244 . S
O169 Co168 2.216 . S
O169 C176 1.247 . S
O170 Co168 2.091 . S
O170 C176 1.261 . S
C171 O180 1.247 . S
C171 O181 1.272 . S
O172 Co168 2.004 . S
O172 C177 1.259 . S
Co173 O174 2.061 . S
Co173 O179 2.052 . S
Co173 O181 2.135 . S
O174 Co173 2.061 . S
O174 C177 1.235 . S
C175 O178 1.238 . S
C175 O179 1.241 . S
C176 O169 1.247 . S
C176 O170 1.261 . S
C177 O172 1.259 . S
C177 O174 1.235 . S
O178 Co168 2.021 . S
O178 C175 1.238 . S
O179 Co173 2.052 . S
O179 C175 1.241 . S
O180 Co168 2.137 . S
O180 C171 1.247 . S
O181 Co168 2.244 . S
O181 C171 1.272 . S
O181 Co173 2.135 . S
Co182 O183 2.216 . S
Co182 O184 2.091 . S
Co182 O186 2.004 . S
Co182 O192 2.021 . S
Co182 O194 2.137 . S
Co182 O195 2.244 . S
O183 Co182 2.216 . S
O183 C190 1.247 . S
O184 Co182 2.091 . S
O184 C190 1.261 . S
C185 O194 1.247 . S
C185 O195 1.272 . S
O186 Co182 2.004 . S
O186 C191 1.259 . S
Co187 O188 2.061 . S
Co187 O193 2.052 . S
Co187 O195 2.135 . S
O188 Co187 2.061 . S
O188 C191 1.235 . S
C189 O192 1.238 . S
C189 O193 1.241 . S
C190 O183 1.247 . S
C190 O184 1.261 . S
C191 O186 1.259 . S
C191 O188 1.235 . S
O192 Co182 2.021 . S
O192 C189 1.238 . S
O193 Co187 2.052 . S
O193 C189 1.241 . S
O194 Co182 2.137 . S
O194 C185 1.247 . S
O195 Co182 2.244 . S
O195 C185 1.272 . S
O195 Co187 2.135 . S
Co196 O197 2.216 1_554 S
Co196 O198 2.091 . S
Co196 O200 2.004 . S
Co196 O206 2.021 . S
Co196 O208 2.137 1_554 S
Co196 O209 2.244 1_554 S
O197 Co196 2.216 1_556 S
O197 C204 1.247 . S
O198 Co196 2.091 . S
O198 C204 1.261 1_554 S
C199 O208 1.247 . S
C199 O209 1.272 . S
O200 Co196 2.004 . S
O200 C205 1.259 . S
Co201 O202 2.061 . S
Co201 O207 2.052 . S
Co201 O209 2.135 1_554 S
O202 Co201 2.061 . S
O202 C205 1.235 . S
C203 O206 1.238 . S
C203 O207 1.241 . S
C204 O197 1.247 . S
C204 O198 1.261 1_556 S
C205 O200 1.259 . S
C205 O202 1.235 . S
O206 Co196 2.021 . S
O206 C203 1.238 . S
O207 Co201 2.052 . S
O207 C203 1.241 . S
O208 Co196 2.137 1_556 S
O208 C199 1.247 . S
O209 Co196 2.244 1_556 S
O209 C199 1.272 . S
O209 Co201 2.135 1_556 S
Co210 O211 2.216 . S
Co210 O212 2.091 . S
Co210 O214 2.004 . S
Co210 O220 2.021 . S
Co210 O222 2.137 . S
Co210 O223 2.244 . S
O211 Co210 2.216 . S
O211 C218 1.247 . S
O212 Co210 2.091 . S
O212 C218 1.261 . S
C213 O222 1.247 . S
C213 O223 1.272 . S
O214 Co210 2.004 . S
O214 C219 1.259 . S
Co215 O216 2.061 . S
Co215 O221 2.052 . S
Co215 O223 2.135 . S
O216 Co215 2.061 . S
O216 C219 1.235 . S
C217 O220 1.238 . S
C217 O221 1.241 . S
C218 O211 1.247 . S
C218 O212 1.261 . S
C219 O214 1.259 . S
C219 O216 1.235 . S
O220 Co210 2.021 . S
O220 C217 1.238 . S
O221 Co215 2.052 . S
O221 C217 1.241 . S
O222 Co210 2.137 . S
O222 C213 1.247 . S
O223 Co210 2.244 . S
O223 C213 1.272 . S
O223 Co215 2.135 . S
H224 C232 0.929 . S
H225 C234 0.930 . S
H226 C236 0.930 . S
H227 C239 0.929 . S
H228 C242 0.930 . S
H229 C244 0.960 . S
H230 C244 0.960 . S
H231 C244 0.960 . S
C232 H224 0.929 . S
C232 C233 1.377 . S
C232 C234 1.384 . S
C233 C232 1.377 . S
C233 C239 1.390 . S
C234 H225 0.930 . S
C234 C232 1.384 . S
C234 C235 1.372 . S
C235 C234 1.372 . S
C235 C236 1.400 . S
C235 C240 1.490 . S
C236 H226 0.930 . S
C236 C235 1.400 . S
C236 C239 1.386 . S
H237 C253 0.930 . S
H238 C254 0.931 . S
C239 H227 0.929 . S
C239 C233 1.390 . S
C239 C236 1.386 . S
C240 C235 1.490 . S
C240 C242 1.395 . S
C240 C243 1.403 . S
H241 C247 0.930 . S
C242 H228 0.930 . S
C242 C240 1.395 . S
C242 C245 1.403 . S
C243 C240 1.403 . S
C243 C244 1.524 . S
C243 C247 1.400 . S
C244 H229 0.960 . S
C244 H230 0.960 . S
C244 H231 0.960 . S
C244 C243 1.524 . S
C245 C242 1.403 . S
C245 C246 1.392 . S
C245 C249 1.495 . S
C246 C245 1.392 . S
C246 C247 1.385 . S
C246 C248 1.478 . S
C247 H241 0.930 . S
C247 C243 1.400 . S
C247 C246 1.385 . S
C248 C246 1.478 . S
C248 C250 1.381 . S
C248 C254 1.383 . S
C249 C245 1.495 . S
C249 H255 0.959 . S
C249 H256 0.961 . S
C249 H257 0.960 . S
C250 C248 1.381 . S
C250 C251 1.394 . S
C250 H258 0.930 . S
C251 C250 1.394 . S
C251 C252 1.383 . S
C251 H259 0.929 . S
C252 C251 1.383 . S
C252 C253 1.377 . S
C253 H237 0.930 . S
C253 C252 1.377 . S
C253 C254 1.379 . S
C254 H238 0.931 . S
C254 C248 1.383 . S
C254 C253 1.379 . S
H255 C249 0.959 . S
H256 C249 0.961 . S
H257 C249 0.960 . S
H258 C250 0.930 . S
H259 C251 0.929 . S
H260 C268 0.963 . S
H261 C270 0.931 1_565 S
H262 C272 0.930 . S
H263 C275 0.929 . S
H264 C278 0.930 . S
H265 C280 0.961 1_565 S
H266 C280 0.961 1_565 S
H267 C280 0.959 . S
C268 H260 0.963 . S
C268 C269 1.377 . S
C268 C270 1.384 . S
C269 C268 1.377 . S
C269 C275 1.390 . S
C270 H261 0.931 1_545 S
C270 C268 1.384 . S
C270 C271 1.372 . S
C271 C270 1.372 . S
C271 C272 1.400 . S
C271 C276 1.490 . S
C272 H262 0.930 . S
C272 C271 1.400 . S
C272 C275 1.386 . S
H273 C289 0.930 . S
H274 C290 0.931 . S
C275 H263 0.929 . S
C275 C269 1.390 . S
C275 C272 1.386 . S
C276 C271 1.490 . S
C276 C278 1.395 1_655 S
C276 C279 1.403 . S
H277 C283 0.930 . S
C278 H264 0.930 . S
C278 C276 1.395 1_455 S
C278 C281 1.403 . S
C279 C276 1.403 . S
C279 C280 1.523 . S
C279 C283 1.400 . S
C280 H265 0.961 1_545 S
C280 H266 0.961 1_545 S
C280 H267 0.959 . S
C280 C279 1.523 . S
C281 C278 1.403 . S
C281 C282 1.392 . S
C281 C285 1.495 . S
C282 C281 1.392 . S
C282 C283 1.385 1_455 S
C282 C284 1.478 . S
C283 H277 0.930 . S
C283 C279 1.400 . S
C283 C282 1.385 1_655 S
C284 C282 1.478 . S
C284 C286 1.381 . S
C284 C290 1.383 . S
C285 C281 1.495 . S
C285 H291 0.959 . S
C285 H292 0.961 . S
C285 H293 0.960 . S
C286 C284 1.381 . S
C286 C287 1.394 . S
C286 H294 0.930 1_545 S
C287 C286 1.394 . S
C287 C288 1.383 . S
C287 H295 0.929 1_545 S
C288 C287 1.383 . S
C288 C289 1.377 . S
C289 H273 0.930 . S
C289 C288 1.377 . S
C289 C290 1.379 . S
C290 H274 0.931 . S
C290 C284 1.383 . S
C290 C289 1.379 . S
H291 C285 0.959 . S
H292 C285 0.961 . S
H293 C285 0.960 . S
H294 C286 0.930 1_565 S
H295 C287 0.929 1_565 S
H296 C304 0.929 . S
H297 C306 0.930 . S
H298 C308 0.930 . S
H299 C311 0.929 . S
H300 C314 0.930 . S
H301 C316 0.960 . S
H302 C316 0.960 . S
H303 C316 0.960 . S
C304 H296 0.929 . S
C304 C305 1.377 . S
C304 C306 1.384 . S
C305 C304 1.377 . S
C305 C311 1.390 . S
C306 H297 0.930 . S
C306 C304 1.384 . S
C306 C307 1.372 . S
C307 C306 1.372 . S
C307 C308 1.400 . S
C307 C312 1.490 . S
C308 H298 0.930 . S
C308 C307 1.400 . S
C308 C311 1.386 . S
H309 C325 0.930 . S
H310 C326 0.931 . S
C311 H299 0.929 . S
C311 C305 1.390 . S
C311 C308 1.386 . S
C312 C307 1.490 . S
C312 C314 1.395 . S
C312 C315 1.403 . S
H313 C319 0.930 . S
C314 H300 0.930 . S
C314 C312 1.395 . S
C314 C317 1.403 . S
C315 C312 1.403 . S
C315 C316 1.524 . S
C315 C319 1.400 . S
C316 H301 0.960 . S
C316 H302 0.960 . S
C316 H303 0.960 . S
C316 C315 1.524 . S
C317 C314 1.403 . S
C317 C318 1.392 . S
C317 C321 1.495 . S
C318 C317 1.392 . S
C318 C319 1.385 . S
C318 C320 1.478 . S
C319 H313 0.930 . S
C319 C315 1.400 . S
C319 C318 1.385 . S
C320 C318 1.478 . S
C320 C322 1.381 . S
C320 C326 1.383 . S
C321 C317 1.495 . S
C321 H327 0.959 . S
C321 H328 0.961 . S
C321 H329 0.960 . S
C322 C320 1.381 . S
C322 C323 1.394 . S
C322 H330 0.930 . S
C323 C322 1.394 . S
C323 C324 1.383 . S
C323 H331 0.929 . S
C324 C323 1.383 . S
C324 C325 1.377 . S
C325 H309 0.930 . S
C325 C324 1.377 . S
C325 C326 1.379 . S
C326 H310 0.931 . S
C326 C320 1.383 . S
C326 C325 1.379 . S
H327 C321 0.959 . S
H328 C321 0.961 . S
H329 C321 0.960 . S
H330 C322 0.930 . S
H331 C323 0.929 . S
H332 C340 0.929 . S
H333 C342 0.930 . S
H334 C344 0.930 1_565 S
H335 C347 0.929 1_565 S
H336 C350 0.930 . S
H337 C352 0.960 1_556 S
H338 C352 0.960 . S
H339 C352 0.960 . S
C340 H332 0.929 . S
C340 C341 1.377 . S
C340 C342 1.384 . S
C341 C340 1.377 . S
C341 C347 1.390 . S
C342 H333 0.930 . S
C342 C340 1.384 . S
C342 C343 1.372 . S
C343 C342 1.372 . S
C343 C344 1.400 . S
C343 C348 1.490 . S
C344 H334 0.930 1_545 S
C344 C343 1.400 . S
C344 C347 1.386 . S
H345 C361 0.899 1_565 S
H346 C362 0.931 1_565 S
C347 H335 0.929 1_545 S
C347 C341 1.390 . S
C347 C344 1.386 . S
C348 C343 1.490 . S
C348 C350 1.395 . S
C348 C351 1.403 . S
H349 C355 0.930 1_565 S
C350 H336 0.930 . S
C350 C348 1.395 . S
C350 C353 1.403 . S
C351 C348 1.403 . S
C351 C352 1.524 1_545 S
C351 C355 1.400 1_554 S
C352 H337 0.960 1_554 S
C352 H338 0.960 . S
C352 H339 0.960 . S
C352 C351 1.524 1_565 S
C353 C350 1.403 . S
C353 C354 1.392 1_554 S
C353 C357 1.495 . S
C354 C353 1.392 1_556 S
C354 C355 1.385 . S
C354 C356 1.478 . S
C355 H349 0.930 1_545 S
C355 C351 1.400 1_556 S
C355 C354 1.385 . S
C356 C354 1.478 . S
C356 C358 1.381 . S
C356 C362 1.383 . S
C357 C353 1.495 . S
C357 H363 0.959 . S
C357 H364 0.961 . S
C357 H365 0.960 1_554 S
C358 C356 1.381 . S
C358 C359 1.394 . S
C358 H366 0.930 . S
C359 C358 1.394 . S
C359 C360 1.383 . S
C359 H367 0.929 . S
C360 C359 1.383 . S
C360 C361 1.403 . S
C361 H345 0.899 1_545 S
C361 C360 1.403 . S
C361 C362 1.385 . S
C362 H346 0.931 1_545 S
C362 C356 1.383 . S
C362 C361 1.385 . S
H363 C357 0.959 . S
H364 C357 0.961 . S
H365 C357 0.960 1_556 S
H366 C358 0.930 . S
H367 C359 0.929 . S
H368 C376 0.929 . S
H369 C378 0.930 . S
H370 C380 0.930 . S
H371 C383 0.929 . S
H372 C386 0.930 . S
H373 C388 0.960 . S
H374 C388 0.960 . S
H375 C388 0.960 . S
C376 H368 0.929 . S
C376 C377 1.377 . S
C376 C378 1.384 . S
C377 C376 1.377 . S
C377 C383 1.390 . S
C378 H369 0.930 . S
C378 C376 1.384 . S
C378 C379 1.372 . S
C379 C378 1.372 . S
C379 C380 1.400 . S
C379 C384 1.490 . S
C380 H370 0.930 . S
C380 C379 1.400 . S
C380 C383 1.386 . S
H381 C397 0.930 . S
H382 C398 0.931 . S
C383 H371 0.929 . S
C383 C377 1.390 . S
C383 C380 1.386 . S
C384 C379 1.490 . S
C384 C386 1.395 . S
C384 C387 1.403 . S
H385 C391 0.930 . S
C386 H372 0.930 . S
C386 C384 1.395 . S
C386 C389 1.403 . S
C387 C384 1.403 . S
C387 C388 1.524 . S
C387 C391 1.400 . S
C388 H373 0.960 . S
C388 H374 0.960 . S
C388 H375 0.960 . S
C388 C387 1.524 . S
C389 C386 1.403 . S
C389 C390 1.392 . S
C389 C393 1.495 . S
C390 C389 1.392 . S
C390 C391 1.385 . S
C390 C392 1.478 . S
C391 H385 0.930 . S
C391 C387 1.400 . S
C391 C390 1.385 . S
C392 C390 1.478 . S
C392 C394 1.381 . S
C392 C398 1.383 . S
C393 C389 1.495 . S
C393 H399 0.959 . S
C393 H400 0.961 . S
C393 H401 0.960 . S
C394 C392 1.381 . S
C394 C395 1.394 . S
C394 H402 0.930 . S
C395 C394 1.394 . S
C395 C396 1.383 . S
C395 H403 0.929 . S
C396 C395 1.383 . S
C396 C397 1.377 . S
C397 H381 0.930 . S
C397 C396 1.377 . S
C397 C398 1.379 . S
C398 H382 0.931 . S
C398 C392 1.383 . S
C398 C397 1.379 . S
H399 C393 0.959 . S
H400 C393 0.961 . S
H401 C393 0.960 . S
H402 C394 0.930 . S
H403 C395 0.929 . S
H404 C412 0.929 . S
H405 C414 0.930 . S
H406 C416 0.954 . S
H407 C419 0.985 . S
H408 C422 0.930 . S
H409 C424 0.960 . S
H410 C424 0.960 1_545 S
H411 C424 0.960 . S
C412 H404 0.929 . S
C412 C413 1.377 . S
C412 C414 1.384 . S
C413 C412 1.377 . S
C413 C419 1.334 1_545 S
C414 H405 0.930 . S
C414 C412 1.384 . S
C414 C415 1.372 . S
C415 C414 1.372 . S
C415 C416 1.377 1_545 S
C415 C420 1.490 . S
C416 H406 0.954 . S
C416 C415 1.377 1_565 S
C416 C419 1.387 . S
H417 C433 0.930 1_565 S
H418 C434 0.931 1_565 S
C419 H407 0.985 . S
C419 C413 1.334 1_565 S
C419 C416 1.387 . S
C420 C415 1.490 . S
C420 C422 1.395 . S
C420 C423 1.403 . S
H421 C427 0.959 . S
C422 H408 0.930 . S
C422 C420 1.395 . S
C422 C425 1.403 . S
C423 C420 1.403 . S
C423 C424 1.524 1_545 S
C423 C427 1.400 . S
C424 H409 0.960 . S
C424 H410 0.960 1_565 S
C424 H411 0.960 . S
C424 C423 1.524 1_565 S
C425 C422 1.403 . S
C425 C426 1.392 . S
C425 C429 1.495 . S
C426 C425 1.392 . S
C426 C427 1.385 . S
C426 C428 1.478 . S
C427 H421 0.959 . S
C427 C423 1.400 . S
C427 C426 1.385 . S
C428 C426 1.478 . S
C428 C430 1.381 . S
C428 C434 1.383 . S
C429 C425 1.495 . S
C429 H435 0.959 . S
C429 H436 0.961 . S
C429 H437 0.960 . S
C430 C428 1.381 . S
C430 C431 1.394 . S
C430 H438 0.930 . S
C431 C430 1.394 . S
C431 C432 1.383 . S
C431 H439 0.929 . S
C432 C431 1.383 . S
C432 C433 1.377 . S
C433 H417 0.930 1_545 S
C433 C432 1.377 . S
C433 C434 1.379 . S
C434 H418 0.931 1_545 S
C434 C428 1.383 . S
C434 C433 1.379 . S
H435 C429 0.959 . S
H436 C429 0.961 . S
H437 C429 0.960 . S
H438 C430 0.930 . S
H439 C431 0.929 . S
H440 C448 0.929 . S
H441 C450 0.930 . S
H442 C452 0.930 . S
H443 C455 0.929 . S
H444 C458 0.930 . S
H445 C460 0.960 . S
H446 C460 0.960 . S
H447 C460 0.960 . S
C448 H440 0.929 . S
C448 C449 1.377 . S
C448 C450 1.384 . S
C449 C448 1.377 . S
C449 C455 1.390 . S
C450 H441 0.930 . S
C450 C448 1.384 . S
C450 C451 1.372 . S
C451 C450 1.372 . S
C451 C452 1.400 . S
C451 C456 1.490 . S
C452 H442 0.930 . S
C452 C451 1.400 . S
C452 C455 1.386 . S
H453 C469 0.930 . S
H454 C470 0.931 . S
C455 H443 0.929 . S
C455 C449 1.390 . S
C455 C452 1.386 . S
C456 C451 1.490 . S
C456 C458 1.395 . S
C456 C459 1.403 . S
H457 C463 0.930 . S
C458 H444 0.930 . S
C458 C456 1.395 . S
C458 C461 1.403 . S
C459 C456 1.403 . S
C459 C460 1.524 . S
C459 C463 1.400 . S
C460 H445 0.960 . S
C460 H446 0.960 . S
C460 H447 0.960 . S
C460 C459 1.524 . S
C461 C458 1.403 . S
C461 C462 1.392 . S
C461 C465 1.495 . S
C462 C461 1.392 . S
C462 C463 1.385 . S
C462 C464 1.478 . S
C463 H457 0.930 . S
C463 C459 1.400 . S
C463 C462 1.385 . S
C464 C462 1.478 . S
C464 C466 1.381 . S
C464 C470 1.383 . S
C465 C461 1.495 . S
C465 H471 0.959 . S
C465 H472 0.961 . S
C465 H473 0.960 . S
C466 C464 1.381 . S
C466 C467 1.394 . S
C466 H474 0.930 . S
C467 C466 1.394 . S
C467 C468 1.383 . S
C467 H475 0.929 . S
C468 C467 1.383 . S
C468 C469 1.377 . S
C469 H453 0.930 . S
C469 C468 1.377 . S
C469 C470 1.379 . S
C470 H454 0.931 . S
C470 C464 1.383 . S
C470 C469 1.379 . S
H471 C465 0.959 . S
H472 C465 0.961 . S
H473 C465 0.960 . S
H474 C466 0.930 . S
H475 C467 0.929 . S
H476 C484 0.929 . S
H477 C486 0.930 . S
H478 C488 0.930 . S
H479 C491 0.929 . S
H480 C494 0.933 . S
H481 C496 0.960 1_655 S
H482 C496 0.960 . S
H483 C496 0.960 . S
C484 H476 0.929 . S
C484 C485 1.377 . S
C484 C486 1.384 . S
C485 C484 1.377 . S
C485 C491 1.390 . S
C486 H477 0.930 . S
C486 C484 1.384 . S
C486 C487 1.372 . S
C487 C486 1.372 . S
C487 C488 1.400 . S
C487 C492 1.490 . S
C488 H478 0.930 . S
C488 C487 1.400 . S
C488 C491 1.386 . S
H489 C505 0.930 . S
H490 C506 0.931 . S
C491 H479 0.929 . S
C491 C485 1.390 . S
C491 C488 1.386 . S
C492 C487 1.490 . S
C492 C494 1.395 1_556 S
C492 C495 1.431 . S
H493 C499 0.930 1_565 S
C494 H480 0.933 . S
C494 C492 1.395 1_554 S
C494 C497 1.405 1_455 S
C495 C492 1.431 . S
C495 C496 1.491 1_545 S
C495 C499 1.405 1_456 S
C496 H481 0.960 1_455 S
C496 H482 0.960 . S
C496 H483 0.960 . S
C496 C495 1.491 1_565 S
C497 C494 1.405 1_655 S
C497 C498 1.391 . S
C497 C501 1.491 . S
C498 C497 1.391 . S
C498 C499 1.385 . S
C498 C500 1.478 . S
C499 H493 0.930 1_545 S
C499 C495 1.405 1_654 S
C499 C498 1.385 . S
C500 C498 1.478 . S
C500 C502 1.381 . S
C500 C506 1.383 . S
C501 C497 1.491 . S
C501 H507 0.923 1_655 S
C501 H508 1.014 . S
C501 H509 0.951 1_655 S
C502 C500 1.381 . S
C502 C503 1.394 . S
C502 H510 0.930 . S
C503 C502 1.394 . S
C503 C504 1.383 . S
C503 H511 0.929 . S
C504 C503 1.383 . S
C504 C505 1.377 . S
C505 H489 0.930 . S
C505 C504 1.377 . S
C505 C506 1.379 . S
C506 H490 0.931 . S
C506 C500 1.383 . S
C506 C505 1.379 . S
H507 C501 0.923 1_455 S
H508 C501 1.014 . S
H509 C501 0.951 1_455 S
H510 C502 0.930 . S
H511 C503 0.929 . S
H512 C520 0.929 . S
H513 C522 0.930 . S
H514 C524 0.930 . S
H515 C527 0.929 . S
H516 C530 0.930 . S
H517 C532 0.960 . S
H518 C532 0.960 . S
H519 C532 0.960 . S
C520 H512 0.929 . S
C520 C521 1.377 . S
C520 C522 1.384 . S
C521 C520 1.377 . S
C521 C527 1.390 . S
C522 H513 0.930 . S
C522 C520 1.384 . S
C522 C523 1.372 . S
C523 C522 1.372 . S
C523 C524 1.400 . S
C523 C528 1.490 . S
C524 H514 0.930 . S
C524 C523 1.400 . S
C524 C527 1.386 . S
H525 C541 0.930 . S
H526 C542 0.931 . S
C527 H515 0.929 . S
C527 C521 1.390 . S
C527 C524 1.386 . S
C528 C523 1.490 . S
C528 C530 1.395 . S
C528 C531 1.403 . S
H529 C535 0.930 . S
C530 H516 0.930 . S
C530 C528 1.395 . S
C530 C533 1.403 . S
C531 C528 1.403 . S
C531 C532 1.524 . S
C531 C535 1.400 . S
C532 H517 0.960 . S
C532 H518 0.960 . S
C532 H519 0.960 . S
C532 C531 1.524 . S
C533 C530 1.403 . S
C533 C534 1.392 . S
C533 C537 1.495 . S
C534 C533 1.392 . S
C534 C535 1.385 . S
C534 C536 1.478 . S
C535 H529 0.930 . S
C535 C531 1.400 . S
C535 C534 1.385 . S
C536 C534 1.478 . S
C536 C538 1.381 . S
C536 C542 1.383 . S
C537 C533 1.495 . S
C537 H543 0.959 . S
C537 H544 0.961 . S
C537 H545 0.960 . S
C538 C536 1.381 . S
C538 C539 1.394 . S
C538 H546 0.930 . S
C539 C538 1.394 . S
C539 C540 1.383 . S
C539 H547 0.929 . S
C540 C539 1.383 . S
C540 C541 1.377 . S
C541 H525 0.930 . S
C541 C540 1.377 . S
C541 C542 1.379 . S
C542 H526 0.931 . S
C542 C536 1.383 . S
C542 C541 1.379 . S
H543 C537 0.959 . S
H544 C537 0.961 . S
H545 C537 0.960 . S
H546 C538 0.930 . S
H547 C539 0.929 . S
H548 C556 0.929 . S
H549 C558 0.930 . S
H550 C560 0.930 . S
H551 C563 0.929 . S
H552 C566 0.930 . S
H553 C568 0.960 . S
H554 C568 0.960 . S
H555 C568 0.960 . S
C556 H548 0.929 . S
C556 C557 1.377 . S
C556 C558 1.384 . S
C557 C556 1.377 . S
C557 C563 1.390 . S
C558 H549 0.930 . S
C558 C556 1.384 . S
C558 C559 1.372 . S
C559 C558 1.372 . S
C559 C560 1.400 . S
C559 C564 1.490 . S
C560 H550 0.930 . S
C560 C559 1.400 . S
C560 C563 1.386 . S
H561 C577 0.930 . S
H562 C578 0.931 . S
C563 H551 0.929 . S
C563 C557 1.390 . S
C563 C560 1.386 . S
C564 C559 1.490 . S
C564 C566 1.395 . S
C564 C567 1.403 . S
H565 C571 0.930 . S
C566 H552 0.930 . S
C566 C564 1.395 . S
C566 C569 1.403 . S
C567 C564 1.403 . S
C567 C568 1.524 . S
C567 C571 1.400 . S
C568 H553 0.960 . S
C568 H554 0.960 . S
C568 H555 0.960 . S
C568 C567 1.524 . S
C569 C566 1.403 . S
C569 C570 1.392 . S
C569 C573 1.495 . S
C570 C569 1.392 . S
C570 C571 1.385 . S
C570 C572 1.478 . S
C571 H565 0.930 . S
C571 C567 1.400 . S
C571 C570 1.385 . S
C572 C570 1.478 . S
C572 C574 1.381 . S
C572 C578 1.383 . S
C573 C569 1.495 . S
C573 H579 0.959 . S
C573 H580 0.961 . S
C573 H581 0.960 . S
C574 C572 1.381 . S
C574 C575 1.394 . S
C574 H582 0.930 . S
C575 C574 1.394 . S
C575 C576 1.383 . S
C575 H583 0.929 . S
C576 C575 1.383 . S
C576 C577 1.377 . S
C577 H561 0.930 . S
C577 C576 1.377 . S
C577 C578 1.379 . S
C578 H562 0.931 . S
C578 C572 1.383 . S
C578 C577 1.379 . S
H579 C573 0.959 . S
H580 C573 0.961 . S
H581 C573 0.960 . S
H582 C574 0.930 . S
H583 C575 0.929 . S
H584 C592 0.929 . S
H585 C594 0.930 . S
H586 C596 0.930 . S
H587 C599 0.929 . S
H588 C602 0.930 . S
H589 C604 0.960 . S
H590 C604 0.960 . S
H591 C604 0.960 . S
C592 H584 0.929 . S
C592 C593 1.377 . S
C592 C594 1.384 . S
C593 C592 1.377 . S
C593 C599 1.390 . S
C594 H585 0.930 . S
C594 C592 1.384 . S
C594 C595 1.372 . S
C595 C594 1.372 . S
C595 C596 1.400 . S
C595 C600 1.490 . S
C596 H586 0.930 . S
C596 C595 1.400 . S
C596 C599 1.386 . S
H597 C613 0.930 . S
H598 C614 0.931 . S
C599 H587 0.929 . S
C599 C593 1.390 . S
C599 C596 1.386 . S
C600 C595 1.490 . S
C600 C602 1.395 . S
C600 C603 1.403 . S
H601 C607 0.930 . S
C602 H588 0.930 . S
C602 C600 1.395 . S
C602 C605 1.403 . S
C603 C600 1.403 . S
C603 C604 1.524 . S
C603 C607 1.400 . S
C604 H589 0.960 . S
C604 H590 0.960 . S
C604 H591 0.960 . S
C604 C603 1.524 . S
C605 C602 1.403 . S
C605 C606 1.392 . S
C605 C609 1.495 . S
C606 C605 1.392 . S
C606 C607 1.385 . S
C606 C608 1.478 . S
C607 H601 0.930 . S
C607 C603 1.400 . S
C607 C606 1.385 . S
C608 C606 1.478 . S
C608 C610 1.381 . S
C608 C614 1.383 . S
C609 C605 1.495 . S
C609 H615 0.959 . S
C609 H616 0.961 . S
C609 H617 0.960 . S
C610 C608 1.381 . S
C610 C611 1.394 . S
C610 H618 0.930 . S
C611 C610 1.394 . S
C611 C612 1.383 . S
C611 H619 0.929 . S
C612 C611 1.383 . S
C612 C613 1.377 . S
C613 H597 0.930 . S
C613 C612 1.377 . S
C613 C614 1.379 . S
C614 H598 0.931 . S
C614 C608 1.383 . S
C614 C613 1.379 . S
H615 C609 0.959 . S
H616 C609 0.961 . S
H617 C609 0.960 . S
H618 C610 0.930 . S
H619 C611 0.929 . S
H620 C628 0.929 . S
H621 C630 0.930 . S
H622 C632 0.930 . S
H623 C635 0.929 . S
H624 C638 0.930 . S
H625 C640 0.960 . S
H626 C640 0.960 . S
H627 C640 0.960 . S
C628 H620 0.929 . S
C628 C629 1.377 . S
C628 C630 1.384 . S
C629 C628 1.377 . S
C629 C635 1.390 . S
C630 H621 0.930 . S
C630 C628 1.384 . S
C630 C631 1.372 . S
C631 C630 1.372 . S
C631 C632 1.400 . S
C631 C636 1.490 . S
C632 H622 0.930 . S
C632 C631 1.400 . S
C632 C635 1.386 . S
H633 C649 0.930 . S
H634 C650 0.931 . S
C635 H623 0.929 . S
C635 C629 1.390 . S
C635 C632 1.386 . S
C636 C631 1.490 . S
C636 C638 1.395 . S
C636 C639 1.403 . S
H637 C643 0.930 . S
C638 H624 0.930 . S
C638 C636 1.395 . S
C638 C641 1.403 . S
C639 C636 1.403 . S
C639 C640 1.524 . S
C639 C643 1.400 . S
C640 H625 0.960 . S
C640 H626 0.960 . S
C640 H627 0.960 . S
C640 C639 1.524 . S
C641 C638 1.403 . S
C641 C642 1.392 . S
C641 C645 1.495 . S
C642 C641 1.392 . S
C642 C643 1.385 . S
C642 C644 1.478 . S
C643 H637 0.930 . S
C643 C639 1.400 . S
C643 C642 1.385 . S
C644 C642 1.478 . S
C644 C646 1.381 . S
C644 C650 1.383 . S
C645 C641 1.495 . S
C645 H651 0.959 . S
C645 H652 0.961 . S
C645 H653 0.960 . S
C646 C644 1.381 . S
C646 C647 1.394 . S
C646 H654 0.930 . S
C647 C646 1.394 . S
C647 C648 1.383 . S
C647 H655 0.929 . S
C648 C647 1.383 . S
C648 C649 1.377 . S
C649 H633 0.930 . S
C649 C648 1.377 . S
C649 C650 1.379 . S
C650 H634 0.931 . S
C650 C644 1.383 . S
C650 C649 1.379 . S
H651 C645 0.959 . S
H652 C645 0.961 . S
H653 C645 0.960 . S
H654 C646 0.930 . S
H655 C647 0.929 . S
H656 C664 0.929 . S
H657 C666 0.930 . S
H658 C668 0.930 . S
H659 C671 0.929 . S
H660 C674 0.930 . S
H661 C676 0.960 . S
H662 C676 0.960 . S
H663 C676 0.960 1_554 S
C664 H656 0.929 . S
C664 C665 1.377 . S
C664 C666 1.384 . S
C665 C664 1.377 . S
C665 C671 1.390 . S
C666 H657 0.930 . S
C666 C664 1.384 . S
C666 C667 1.372 . S
C667 C666 1.372 . S
C667 C668 1.400 . S
C667 C672 1.490 . S
C668 H658 0.930 . S
C668 C667 1.400 . S
C668 C671 1.386 . S
H669 C685 0.930 . S
H670 C686 0.931 . S
C671 H659 0.929 . S
C671 C665 1.390 . S
C671 C668 1.386 . S
C672 C667 1.490 . S
C672 C674 1.395 . S
C672 C675 1.403 . S
H673 C679 0.930 . S
C674 H660 0.930 . S
C674 C672 1.395 . S
C674 C677 1.403 . S
C675 C672 1.403 . S
C675 C676 1.524 1_554 S
C675 C679 1.400 1_554 S
C676 H661 0.960 . S
C676 H662 0.960 . S
C676 H663 0.960 1_556 S
C676 C675 1.524 1_556 S
C677 C674 1.403 . S
C677 C678 1.392 1_554 S
C677 C681 1.495 . S
C678 C677 1.392 1_556 S
C678 C679 1.385 . S
C678 C680 1.478 . S
C679 H673 0.930 . S
C679 C675 1.400 1_556 S
C679 C678 1.385 . S
C680 C678 1.478 . S
C680 C682 1.381 . S
C680 C686 1.383 . S
C681 C677 1.495 . S
C681 H687 0.959 . S
C681 H688 0.961 . S
C681 H689 0.960 . S
C682 C680 1.381 . S
C682 C683 1.394 . S
C682 H690 0.930 . S
C683 C682 1.394 . S
C683 C684 1.383 . S
C683 H691 0.929 . S
C684 C683 1.383 . S
C684 C685 1.377 . S
C685 H669 0.930 . S
C685 C684 1.377 . S
C685 C686 1.379 . S
C686 H670 0.931 . S
C686 C680 1.383 . S
C686 C685 1.379 . S
H687 C681 0.959 . S
H688 C681 0.961 . S
H689 C681 0.960 . S
H690 C682 0.930 . S
H691 C683 0.929 . S
H692 C700 0.929 . S
H693 C702 0.930 . S
H694 C704 0.930 . S
H695 C707 0.929 . S
H696 C710 0.930 . S
H697 C712 0.960 . S
H698 C712 0.960 . S
H699 C712 0.960 1_455 S
C700 H692 0.929 . S
C700 C701 1.377 . S
C700 C702 1.384 . S
C701 C700 1.377 . S
C701 C707 1.390 . S
C702 H693 0.930 . S
C702 C700 1.384 . S
C702 C703 1.372 . S
C703 C702 1.372 . S
C703 C704 1.400 . S
C703 C708 1.490 . S
C704 H694 0.930 . S
C704 C703 1.400 . S
C704 C707 1.386 . S
H705 C721 0.930 . S
H706 C722 0.931 . S
C707 H695 0.929 . S
C707 C701 1.390 . S
C707 C704 1.386 . S
C708 C703 1.490 . S
C708 C710 1.395 . S
C708 C711 1.403 1_455 S
H709 C715 0.930 . S
C710 H696 0.930 . S
C710 C708 1.395 . S
C710 C713 1.403 . S
C711 C708 1.403 1_655 S
C711 C712 1.524 . S
C711 C715 1.400 . S
C712 H697 0.960 . S
C712 H698 0.960 . S
C712 H699 0.960 1_655 S
C712 C711 1.524 . S
C713 C710 1.403 . S
C713 C714 1.392 1_455 S
C713 C717 1.495 . S
C714 C713 1.392 1_655 S
C714 C715 1.385 . S
C714 C716 1.478 . S
C715 H709 0.930 . S
C715 C711 1.400 . S
C715 C714 1.385 . S
C716 C714 1.478 . S
C716 C718 1.381 . S
C716 C722 1.383 . S
C717 C713 1.495 . S
C717 H723 0.959 . S
C717 H724 0.961 . S
C717 H725 0.960 1_455 S
C718 C716 1.381 . S
C718 C719 1.394 . S
C718 H726 0.930 . S
C719 C718 1.394 . S
C719 C720 1.383 . S
C719 H727 0.929 . S
C720 C719 1.383 . S
C720 C721 1.377 . S
C721 H705 0.930 . S
C721 C720 1.377 . S
C721 C722 1.379 . S
C722 H706 0.931 . S
C722 C716 1.383 . S
C722 C721 1.379 . S
H723 C717 0.959 . S
H724 C717 0.961 . S
H725 C717 0.960 1_655 S
H726 C718 0.930 . S
H727 C719 0.929 . S
H728 C736 0.929 . S
H729 C738 0.930 . S
H730 C740 0.930 . S
H731 C743 0.929 . S
H732 C746 0.930 . S
H733 C748 0.960 . S
H734 C748 0.960 . S
H735 C748 0.960 1_554 S
C736 H728 0.929 . S
C736 C737 1.377 . S
C736 C738 1.384 . S
C737 C736 1.377 . S
C737 C743 1.390 . S
C738 H729 0.930 . S
C738 C736 1.384 . S
C738 C739 1.372 . S
C739 C738 1.372 . S
C739 C740 1.400 . S
C739 C744 1.490 . S
C740 H730 0.930 . S
C740 C739 1.400 . S
C740 C743 1.386 . S
H741 C757 0.930 . S
H742 C758 0.931 . S
C743 H731 0.929 . S
C743 C737 1.390 . S
C743 C740 1.386 . S
C744 C739 1.490 . S
C744 C746 1.395 1_455 S
C744 C747 1.403 . S
H745 C751 0.930 . S
C746 H732 0.930 . S
C746 C744 1.395 1_655 S
C746 C749 1.403 . S
C747 C744 1.403 . S
C747 C748 1.524 1_554 S
C747 C751 1.400 1_554 S
C748 H733 0.960 . S
C748 H734 0.960 . S
C748 H735 0.960 1_556 S
C748 C747 1.524 1_556 S
C749 C746 1.403 . S
C749 C750 1.392 1_554 S
C749 C753 1.495 . S
C750 C749 1.392 1_556 S
C750 C751 1.385 1_655 S
C750 C752 1.478 . S
C751 H745 0.930 . S
C751 C747 1.400 1_556 S
C751 C750 1.385 1_455 S
C752 C750 1.478 . S
C752 C754 1.381 . S
C752 C758 1.383 . S
C753 C749 1.495 . S
C753 H759 0.959 . S
C753 H760 0.961 . S
C753 H761 0.960 . S
C754 C752 1.381 . S
C754 C755 1.394 . S
C754 H762 0.930 . S
C755 C754 1.394 . S
C755 C756 1.383 . S
C755 H763 0.929 . S
C756 C755 1.383 . S
C756 C757 1.377 . S
C757 H741 0.930 . S
C757 C756 1.377 . S
C757 C758 1.379 . S
C758 H742 0.931 . S
C758 C752 1.383 . S
C758 C757 1.379 . S
H759 C753 0.959 . S
H760 C753 0.961 . S
H761 C753 0.960 . S
H762 C754 0.930 . S
H763 C755 0.929 . S
H764 C772 0.929 . S
H765 C774 0.930 . S
H766 C776 0.930 . S
H767 C779 0.929 . S
H768 C782 0.930 . S
H769 C784 0.960 . S
H770 C784 0.960 . S
H771 C784 0.960 . S
C772 H764 0.929 . S
C772 C773 1.377 . S
C772 C774 1.384 . S
C773 C772 1.377 . S
C773 C779 1.390 . S
C774 H765 0.930 . S
C774 C772 1.384 . S
C774 C775 1.372 . S
C775 C774 1.372 . S
C775 C776 1.400 . S
C775 C780 1.490 . S
C776 H766 0.930 . S
C776 C775 1.400 . S
C776 C779 1.386 . S
H777 C793 0.930 . S
H778 C794 0.931 . S
C779 H767 0.929 . S
C779 C773 1.390 . S
C779 C776 1.386 . S
C780 C775 1.490 . S
C780 C782 1.395 . S
C780 C783 1.403 . S
H781 C787 0.930 . S
C782 H768 0.930 . S
C782 C780 1.395 . S
C782 C785 1.403 . S
C783 C780 1.403 . S
C783 C784 1.524 . S
C783 C787 1.400 . S
C784 H769 0.960 . S
C784 H770 0.960 . S
C784 H771 0.960 . S
C784 C783 1.524 . S
C785 C782 1.403 . S
C785 C786 1.392 . S
C785 C789 1.495 . S
C786 C785 1.392 . S
C786 C787 1.385 . S
C786 C788 1.478 . S
C787 H781 0.930 . S
C787 C783 1.400 . S
C787 C786 1.385 . S
C788 C786 1.478 . S
C788 C790 1.381 . S
C788 C794 1.383 . S
C789 C785 1.495 . S
C789 H795 0.959 . S
C789 H796 0.961 . S
C789 H797 0.960 . S
C790 C788 1.381 . S
C790 C791 1.394 . S
C790 H798 0.930 . S
C791 C790 1.394 . S
C791 C792 1.383 . S
C791 H799 0.929 . S
C792 C791 1.383 . S
C792 C793 1.377 . S
C793 H777 0.930 . S
C793 C792 1.377 . S
C793 C794 1.379 . S
C794 H778 0.931 . S
C794 C788 1.383 . S
C794 C793 1.379 . S
H795 C789 0.959 . S
H796 C789 0.961 . S
H797 C789 0.960 . S
H798 C790 0.930 . S
H799 C791 0.929 . S
H800 C808 0.929 . S
H801 C810 0.930 . S
H802 C812 0.930 . S
H803 C815 0.929 . S
H804 C818 0.930 . S
H805 C820 0.960 . S
H806 C820 0.960 . S
H807 C820 0.960 . S
C808 H800 0.929 . S
C808 C809 1.377 . S
C808 C810 1.384 . S
C809 C808 1.377 . S
C809 C815 1.390 . S
C810 H801 0.930 . S
C810 C808 1.384 . S
C810 C811 1.372 . S
C811 C810 1.372 . S
C811 C812 1.400 . S
C811 C816 1.490 . S
C812 H802 0.930 . S
C812 C811 1.400 . S
C812 C815 1.386 . S
H813 C829 0.930 . S
H814 C830 0.931 . S
C815 H803 0.929 . S
C815 C809 1.390 . S
C815 C812 1.386 . S
C816 C811 1.490 . S
C816 C818 1.395 . S
C816 C819 1.403 . S
H817 C823 0.930 . S
C818 H804 0.930 . S
C818 C816 1.395 . S
C818 C821 1.403 . S
C819 C816 1.403 . S
C819 C820 1.524 . S
C819 C823 1.400 . S
C820 H805 0.960 . S
C820 H806 0.960 . S
C820 H807 0.960 . S
C820 C819 1.524 . S
C821 C818 1.403 . S
C821 C822 1.392 . S
C821 C825 1.495 . S
C822 C821 1.392 . S
C822 C823 1.385 . S
C822 C824 1.478 . S
C823 H817 0.930 . S
C823 C819 1.400 . S
C823 C822 1.385 . S
C824 C822 1.478 . S
C824 C826 1.381 . S
C824 C830 1.383 . S
C825 C821 1.495 . S
C825 H831 0.959 . S
C825 H832 0.961 . S
C825 H833 0.960 . S
C826 C824 1.381 . S
C826 C827 1.394 . S
C826 H834 0.930 . S
C827 C826 1.394 . S
C827 C828 1.383 . S
C827 H835 0.929 . S
C828 C827 1.383 . S
C828 C829 1.377 . S
C829 H813 0.930 . S
C829 C828 1.377 . S
C829 C830 1.379 . S
C830 H814 0.931 . S
C830 C824 1.383 . S
C830 C829 1.379 . S
H831 C825 0.959 . S
H832 C825 0.961 . S
H833 C825 0.960 . S
H834 C826 0.930 . S
H835 C827 0.929 . S
H836 C844 0.929 . S
H837 C846 0.930 . S
H838 C848 0.930 . S
H839 C851 0.929 . S
H840 C854 0.930 . S
H841 C856 0.960 . S
H842 C856 0.960 . S
H843 C856 0.960 . S
C844 H836 0.929 . S
C844 C845 1.377 . S
C844 C846 1.384 . S
C845 C844 1.377 . S
C845 C851 1.390 . S
C846 H837 0.930 . S
C846 C844 1.384 . S
C846 C847 1.372 . S
C847 C846 1.372 . S
C847 C848 1.400 . S
C847 C852 1.490 . S
C848 H838 0.930 . S
C848 C847 1.400 . S
C848 C851 1.386 . S
H849 C865 0.930 . S
H850 C866 0.931 . S
C851 H839 0.929 . S
C851 C845 1.390 . S
C851 C848 1.386 . S
C852 C847 1.490 . S
C852 C854 1.395 . S
C852 C855 1.403 . S
H853 C859 0.930 . S
C854 H840 0.930 . S
C854 C852 1.395 . S
C854 C857 1.403 . S
C855 C852 1.403 . S
C855 C856 1.524 . S
C855 C859 1.400 . S
C856 H841 0.960 . S
C856 H842 0.960 . S
C856 H843 0.960 . S
C856 C855 1.524 . S
C857 C854 1.403 . S
C857 C858 1.392 . S
C857 C861 1.495 . S
C858 C857 1.392 . S
C858 C859 1.385 . S
C858 C860 1.478 . S
C859 H853 0.930 . S
C859 C855 1.400 . S
C859 C858 1.385 . S
C860 C858 1.478 . S
C860 C862 1.381 . S
C860 C866 1.383 . S
C861 C857 1.495 . S
C861 H867 0.959 . S
C861 H868 0.961 . S
C861 H869 0.960 . S
C862 C860 1.381 . S
C862 C863 1.394 . S
C862 H870 0.930 . S
C863 C862 1.394 . S
C863 C864 1.383 . S
C863 H871 0.929 . S
C864 C863 1.383 . S
C864 C865 1.377 . S
C865 H849 0.930 . S
C865 C864 1.377 . S
C865 C866 1.379 . S
C866 H850 0.931 . S
C866 C860 1.383 . S
C866 C865 1.379 . S
H867 C861 0.959 . S
H868 C861 0.961 . S
H869 C861 0.960 . S
H870 C862 0.930 . S
H871 C863 0.929 . S
H872 C880 0.929 . S
H873 C882 0.930 . S
H874 C884 0.930 . S
H875 C887 0.929 . S
H876 C890 0.930 . S
H877 C892 0.960 . S
H878 C892 0.960 . S
H879 C892 0.960 . S
C880 H872 0.929 . S
C880 C881 1.377 . S
C880 C882 1.384 . S
C881 C880 1.377 . S
C881 C887 1.390 . S
C882 H873 0.930 . S
C882 C880 1.384 . S
C882 C883 1.372 . S
C883 C882 1.372 . S
C883 C884 1.400 . S
C883 C888 1.490 . S
C884 H874 0.930 . S
C884 C883 1.400 . S
C884 C887 1.386 . S
H885 C901 0.930 . S
H886 C902 0.931 . S
C887 H875 0.929 . S
C887 C881 1.390 . S
C887 C884 1.386 . S
C888 C883 1.490 . S
C888 C890 1.395 . S
C888 C891 1.403 . S
H889 C895 0.930 . S
C890 H876 0.930 . S
C890 C888 1.395 . S
C890 C893 1.403 . S
C891 C888 1.403 . S
C891 C892 1.524 . S
C891 C895 1.400 . S
C892 H877 0.960 . S
C892 H878 0.960 . S
C892 H879 0.960 . S
C892 C891 1.524 . S
C893 C890 1.403 . S
C893 C894 1.392 . S
C893 C897 1.495 . S
C894 C893 1.392 . S
C894 C895 1.385 . S
C894 C896 1.478 . S
C895 H889 0.930 . S
C895 C891 1.400 . S
C895 C894 1.385 . S
C896 C894 1.478 . S
C896 C898 1.381 . S
C896 C902 1.383 . S
C897 C893 1.495 . S
C897 H903 0.959 . S
C897 H904 0.961 . S
C897 H905 0.960 . S
C898 C896 1.381 . S
C898 C899 1.394 . S
C898 H906 0.930 . S
C899 C898 1.394 . S
C899 C900 1.383 . S
C899 H907 0.929 . S
C900 C899 1.383 . S
C900 C901 1.377 . S
C901 H885 0.930 . S
C901 C900 1.377 . S
C901 C902 1.379 . S
C902 H886 0.931 . S
C902 C896 1.383 . S
C902 C901 1.379 . S
H903 C897 0.959 . S
H904 C897 0.961 . S
H905 C897 0.960 . S
H906 C898 0.930 . S
H907 C899 0.929 . S
H908 C916 0.929 . S
H909 C918 0.930 . S
H910 C920 0.930 . S
H911 C923 0.929 . S
H912 C926 0.930 . S
H913 C928 0.960 . S
H914 C928 0.960 . S
H915 C928 0.960 . S
C916 H908 0.929 . S
C916 C917 1.377 . S
C916 C918 1.384 . S
C917 C916 1.377 . S
C917 C923 1.390 . S
C918 H909 0.930 . S
C918 C916 1.384 . S
C918 C919 1.372 . S
C919 C918 1.372 . S
C919 C920 1.400 . S
C919 C924 1.490 . S
C920 H910 0.930 . S
C920 C919 1.400 . S
C920 C923 1.386 . S
H921 C937 0.930 . S
H922 C938 0.931 . S
C923 H911 0.929 . S
C923 C917 1.390 . S
C923 C920 1.386 . S
C924 C919 1.490 . S
C924 C926 1.395 . S
C924 C927 1.403 . S
H925 C931 0.930 . S
C926 H912 0.930 . S
C926 C924 1.395 . S
C926 C929 1.403 . S
C927 C924 1.403 . S
C927 C928 1.524 . S
C927 C931 1.400 . S
C928 H913 0.960 . S
C928 H914 0.960 . S
C928 H915 0.960 . S
C928 C927 1.524 . S
C929 C926 1.403 . S
C929 C930 1.392 . S
C929 C933 1.495 . S
C930 C929 1.392 . S
C930 C931 1.385 . S
C930 C932 1.478 . S
C931 H925 0.930 . S
C931 C927 1.400 . S
C931 C930 1.385 . S
C932 C930 1.478 . S
C932 C934 1.381 . S
C932 C938 1.383 . S
C933 C929 1.495 . S
C933 H939 0.959 . S
C933 H940 0.961 . S
C933 H941 0.960 . S
C934 C932 1.381 . S
C934 C935 1.394 . S
C934 H942 0.930 . S
C935 C934 1.394 . S
C935 C936 1.383 . S
C935 H943 0.929 . S
C936 C935 1.383 . S
C936 C937 1.377 . S
C937 H921 0.930 . S
C937 C936 1.377 . S
C937 C938 1.379 . S
C938 H922 0.931 . S
C938 C932 1.383 . S
C938 C937 1.379 . S
H939 C933 0.959 . S
H940 C933 0.961 . S
H941 C933 0.960 . S
H942 C934 0.930 . S
H943 C935 0.929 . S
H944 C952 0.929 . S
H945 C954 0.930 . S
H946 C956 0.930 . S
H947 C959 0.929 . S
H948 C962 0.930 . S
H949 C964 0.960 . S
H950 C964 0.960 . S
H951 C964 0.960 . S
C952 H944 0.929 . S
C952 C953 1.377 . S
C952 C954 1.384 . S
C953 C952 1.377 . S
C953 C959 1.390 . S
C954 H945 0.930 . S
C954 C952 1.384 . S
C954 C955 1.372 . S
C955 C954 1.372 . S
C955 C956 1.400 . S
C955 C960 1.490 . S
C956 H946 0.930 . S
C956 C955 1.400 . S
C956 C959 1.386 . S
H957 C973 0.930 . S
H958 C974 0.931 . S
C959 H947 0.929 . S
C959 C953 1.390 . S
C959 C956 1.386 . S
C960 C955 1.490 . S
C960 C962 1.395 . S
C960 C963 1.403 . S
H961 C967 0.930 . S
C962 H948 0.930 . S
C962 C960 1.395 . S
C962 C965 1.403 . S
C963 C960 1.403 . S
C963 C964 1.524 . S
C963 C967 1.400 . S
C964 H949 0.960 . S
C964 H950 0.960 . S
C964 H951 0.960 . S
C964 C963 1.524 . S
C965 C962 1.403 . S
C965 C966 1.392 . S
C965 C969 1.495 . S
C966 C965 1.392 . S
C966 C967 1.385 . S
C966 C968 1.478 . S
C967 H961 0.930 . S
C967 C963 1.400 . S
C967 C966 1.385 . S
C968 C966 1.478 . S
C968 C970 1.381 . S
C968 C974 1.383 . S
C969 C965 1.495 . S
C969 H975 0.959 . S
C969 H976 0.961 . S
C969 H977 0.960 . S
C970 C968 1.381 . S
C970 C971 1.394 . S
C970 H978 0.930 . S
C971 C970 1.394 . S
C971 C972 1.383 . S
C971 H979 0.929 . S
C972 C971 1.383 . S
C972 C973 1.377 . S
C973 H957 0.930 . S
C973 C972 1.377 . S
C973 C974 1.379 . S
C974 H958 0.931 . S
C974 C968 1.383 . S
C974 C973 1.379 . S
H975 C969 0.959 . S
H976 C969 0.961 . S
H977 C969 0.960 . S
H978 C970 0.930 . S
H979 C971 0.929 . S
H980 C988 0.929 . S
H981 C990 0.930 . S
H982 C992 0.930 . S
H983 C995 0.929 . S
H984 C998 0.930 . S
H985 C1000 0.960 . S
H986 C1000 0.960 . S
H987 C1000 0.960 . S
C988 H980 0.929 . S
C988 C989 1.377 . S
C988 C990 1.384 . S
C989 C988 1.377 . S
C989 C995 1.390 . S
C990 H981 0.930 . S
C990 C988 1.384 . S
C990 C991 1.372 . S
C991 C990 1.372 . S
C991 C992 1.400 . S
C991 C996 1.490 . S
C992 H982 0.930 . S
C992 C991 1.400 . S
C992 C995 1.386 . S
H993 C1009 0.930 . S
H994 C1010 0.931 . S
C995 H983 0.929 . S
C995 C989 1.390 . S
C995 C992 1.386 . S
C996 C991 1.490 . S
C996 C998 1.395 . S
C996 C999 1.403 . S
H997 C1003 0.930 . S
C998 H984 0.930 . S
C998 C996 1.395 . S
C998 C1001 1.403 . S
C999 C996 1.403 . S
C999 C1000 1.524 . S
C999 C1003 1.400 . S
C1000 H985 0.960 . S
C1000 H986 0.960 . S
C1000 H987 0.960 . S
C1000 C999 1.524 . S
C1001 C998 1.403 . S
C1001 C1002 1.392 . S
C1001 C1005 1.495 . S
C1002 C1001 1.392 . S
C1002 C1003 1.385 . S
C1002 C1004 1.478 . S
C1003 H997 0.930 . S
C1003 C999 1.400 . S
C1003 C1002 1.385 . S
C1004 C1002 1.478 . S
C1004 C1006 1.381 . S
C1004 C1010 1.383 . S
C1005 C1001 1.495 . S
C1005 H1011 0.959 . S
C1005 H1012 0.961 . S
C1005 H1013 0.960 . S
C1006 C1004 1.381 . S
C1006 C1007 1.394 . S
C1006 H1014 0.930 . S
C1007 C1006 1.394 . S
C1007 C1008 1.383 . S
C1007 H1015 0.929 . S
C1008 C1007 1.383 . S
C1008 C1009 1.377 . S
C1009 H993 0.930 . S
C1009 C1008 1.377 . S
C1009 C1010 1.379 . S
C1010 H994 0.931 . S
C1010 C1004 1.383 . S
C1010 C1009 1.379 . S
H1011 C1005 0.959 . S
H1012 C1005 0.961 . S
H1013 C1005 0.960 . S
H1014 C1006 0.930 . S
H1015 C1007 0.929 . S
H1016 C1024 0.929 . S
H1017 C1026 0.930 . S
H1018 C1028 0.930 . S
H1019 C1031 0.929 . S
H1020 C1034 0.930 . S
H1021 C1036 0.960 . S
H1022 C1036 0.960 . S
H1023 C1036 0.960 . S
C1024 H1016 0.929 . S
C1024 C1025 1.377 . S
C1024 C1026 1.384 . S
C1025 C1024 1.377 . S
C1025 C1031 1.390 . S
C1026 H1017 0.930 . S
C1026 C1024 1.384 . S
C1026 C1027 1.372 . S
C1027 C1026 1.372 . S
C1027 C1028 1.400 . S
C1027 C1032 1.490 . S
C1028 H1018 0.930 . S
C1028 C1027 1.400 . S
C1028 C1031 1.386 . S
H1029 C1045 0.930 1_554 S
H1030 C1046 0.931 . S
C1031 H1019 0.929 . S
C1031 C1025 1.390 . S
C1031 C1028 1.386 . S
C1032 C1027 1.490 . S
C1032 C1034 1.395 . S
C1032 C1035 1.403 . S
H1033 C1039 0.930 . S
C1034 H1020 0.930 . S
C1034 C1032 1.395 . S
C1034 C1037 1.403 . S
C1035 C1032 1.403 . S
C1035 C1036 1.524 . S
C1035 C1039 1.400 . S
C1036 H1021 0.960 . S
C1036 H1022 0.960 . S
C1036 H1023 0.960 . S
C1036 C1035 1.524 . S
C1037 C1034 1.403 . S
C1037 C1038 1.392 . S
C1037 C1041 1.495 . S
C1038 C1037 1.392 . S
C1038 C1039 1.385 . S
C1038 C1040 1.478 . S
C1039 H1033 0.930 . S
C1039 C1035 1.400 . S
C1039 C1038 1.385 . S
C1040 C1038 1.478 . S
C1040 C1042 1.381 . S
C1040 C1046 1.383 . S
C1041 C1037 1.495 . S
C1041 H1047 0.959 . S
C1041 H1048 0.961 . S
C1041 H1049 0.960 . S
C1042 C1040 1.381 . S
C1042 C1043 1.394 . S
C1042 H1050 0.930 . S
C1043 C1042 1.394 . S
C1043 C1044 1.383 . S
C1043 H1051 0.929 . S
C1044 C1043 1.383 . S
C1044 C1045 1.377 . S
C1045 H1029 0.930 1_556 S
C1045 C1044 1.377 . S
C1045 C1046 1.379 . S
C1046 H1030 0.931 . S
C1046 C1040 1.383 . S
C1046 C1045 1.379 . S
H1047 C1041 0.959 . S
H1048 C1041 0.961 . S
H1049 C1041 0.960 . S
H1050 C1042 0.930 . S
H1051 C1043 0.929 . S
H1052 C1060 0.929 . S
H1053 C1062 0.930 . S
H1054 C1064 0.930 . S
H1055 C1067 0.929 . S
H1056 C1070 0.930 . S
H1057 C1072 0.960 . S
H1058 C1072 0.960 . S
H1059 C1072 0.960 . S
C1060 H1052 0.929 . S
C1060 C1061 1.377 . S
C1060 C1062 1.384 . S
C1061 C1060 1.377 . S
C1061 C1067 1.390 . S
C1062 H1053 0.930 . S
C1062 C1060 1.384 . S
C1062 C1063 1.372 . S
C1063 C1062 1.372 . S
C1063 C1064 1.400 . S
C1063 C1068 1.490 . S
C1064 H1054 0.930 . S
C1064 C1063 1.400 . S
C1064 C1067 1.386 . S
H1065 C1081 0.930 . S
H1066 C1082 0.931 . S
C1067 H1055 0.929 . S
C1067 C1061 1.390 . S
C1067 C1064 1.386 . S
C1068 C1063 1.490 . S
C1068 C1070 1.395 . S
C1068 C1071 1.403 . S
H1069 C1075 0.930 . S
C1070 H1056 0.930 . S
C1070 C1068 1.395 . S
C1070 C1073 1.403 . S
C1071 C1068 1.403 . S
C1071 C1072 1.524 . S
C1071 C1075 1.400 . S
C1072 H1057 0.960 . S
C1072 H1058 0.960 . S
C1072 H1059 0.960 . S
C1072 C1071 1.524 . S
C1073 C1070 1.403 . S
C1073 C1074 1.392 . S
C1073 C1077 1.495 . S
C1074 C1073 1.392 . S
C1074 C1075 1.385 . S
C1074 C1076 1.478 . S
C1075 H1069 0.930 . S
C1075 C1071 1.400 . S
C1075 C1074 1.385 . S
C1076 C1074 1.478 . S
C1076 C1078 1.381 . S
C1076 C1082 1.383 . S
C1077 C1073 1.495 . S
C1077 H1083 0.959 . S
C1077 H1084 0.961 . S
C1077 H1085 0.960 . S
C1078 C1076 1.381 . S
C1078 C1079 1.394 . S
C1078 H1086 0.930 . S
C1079 C1078 1.394 . S
C1079 C1080 1.383 . S
C1079 H1087 0.929 . S
C1080 C1079 1.383 . S
C1080 C1081 1.377 . S
C1081 H1065 0.930 . S
C1081 C1080 1.377 . S
C1081 C1082 1.379 . S
C1082 H1066 0.931 . S
C1082 C1076 1.383 . S
C1082 C1081 1.379 . S
H1083 C1077 0.959 . S
H1084 C1077 0.961 . S
H1085 C1077 0.960 . S
H1086 C1078 0.930 . S
H1087 C1079 0.929 . S
H1088 C1096 0.929 . S
H1089 C1098 0.930 . S
H1090 C1100 0.930 . S
H1091 C1103 0.929 1_554 S
H1092 C1106 0.930 . S
H1093 C1108 0.960 . S
H1094 C1108 0.960 . S
H1095 C1108 0.960 . S
C1096 H1088 0.929 . S
C1096 C1097 1.377 . S
C1096 C1098 1.384 . S
C1097 C1096 1.377 . S
C1097 C1103 1.390 . S
C1098 H1089 0.930 . S
C1098 C1096 1.384 . S
C1098 C1099 1.372 . S
C1099 C1098 1.372 . S
C1099 C1100 1.400 . S
C1099 C1104 1.490 . S
C1100 H1090 0.930 . S
C1100 C1099 1.400 . S
C1100 C1103 1.386 . S
H1101 C1117 0.930 . S
H1102 C1118 0.931 . S
C1103 H1091 0.929 1_556 S
C1103 C1097 1.390 . S
C1103 C1100 1.386 . S
C1104 C1099 1.490 . S
C1104 C1106 1.395 . S
C1104 C1107 1.403 . S
H1105 C1111 0.930 . S
C1106 H1092 0.930 . S
C1106 C1104 1.395 . S
C1106 C1109 1.403 . S
C1107 C1104 1.403 . S
C1107 C1108 1.524 . S
C1107 C1111 1.400 . S
C1108 H1093 0.960 . S
C1108 H1094 0.960 . S
C1108 H1095 0.960 . S
C1108 C1107 1.524 . S
C1109 C1106 1.403 . S
C1109 C1110 1.392 . S
C1109 C1113 1.495 . S
C1110 C1109 1.392 . S
C1110 C1111 1.385 . S
C1110 C1112 1.478 . S
C1111 H1105 0.930 . S
C1111 C1107 1.400 . S
C1111 C1110 1.385 . S
C1112 C1110 1.478 . S
C1112 C1114 1.381 . S
C1112 C1118 1.383 . S
C1113 C1109 1.495 . S
C1113 H1119 0.959 . S
C1113 H1120 0.961 . S
C1113 H1121 0.960 . S
C1114 C1112 1.381 . S
C1114 C1115 1.394 . S
C1114 H1122 0.930 . S
C1115 C1114 1.394 . S
C1115 C1116 1.383 . S
C1115 H1123 0.929 . S
C1116 C1115 1.383 . S
C1116 C1117 1.377 . S
C1117 H1101 0.930 . S
C1117 C1116 1.377 . S
C1117 C1118 1.379 . S
C1118 H1102 0.931 . S
C1118 C1112 1.383 . S
C1118 C1117 1.379 . S
H1119 C1113 0.959 . S
H1120 C1113 0.961 . S
H1121 C1113 0.960 . S
H1122 C1114 0.930 . S
H1123 C1115 0.929 . S
H1124 C1132 0.929 . S
H1125 C1134 0.930 . S
H1126 C1136 0.930 . S
H1127 C1139 0.929 . S
H1128 C1142 0.930 . S
H1129 C1144 0.960 . S
H1130 C1144 0.960 . S
H1131 C1144 0.960 . S
C1132 H1124 0.929 . S
C1132 C1133 1.377 . S
C1132 C1134 1.384 . S
C1133 C1132 1.377 . S
C1133 C1139 1.390 . S
C1134 H1125 0.930 . S
C1134 C1132 1.384 . S
C1134 C1135 1.372 . S
C1135 C1134 1.372 . S
C1135 C1136 1.400 . S
C1135 C1140 1.490 . S
C1136 H1126 0.930 . S
C1136 C1135 1.400 . S
C1136 C1139 1.386 . S
H1137 C1153 0.930 . S
H1138 C1154 0.931 . S
C1139 H1127 0.929 . S
C1139 C1133 1.390 . S
C1139 C1136 1.386 . S
C1140 C1135 1.490 . S
C1140 C1142 1.395 . S
C1140 C1143 1.403 . S
H1141 C1147 0.930 . S
C1142 H1128 0.930 . S
C1142 C1140 1.395 . S
C1142 C1145 1.403 . S
C1143 C1140 1.403 . S
C1143 C1144 1.524 . S
C1143 C1147 1.400 . S
C1144 H1129 0.960 . S
C1144 H1130 0.960 . S
C1144 H1131 0.960 . S
C1144 C1143 1.524 . S
C1145 C1142 1.403 . S
C1145 C1146 1.392 . S
C1145 C1149 1.495 . S
C1146 C1145 1.392 . S
C1146 C1147 1.385 . S
C1146 C1148 1.478 . S
C1147 H1141 0.930 . S
C1147 C1143 1.400 . S
C1147 C1146 1.385 . S
C1148 C1146 1.478 . S
C1148 C1150 1.381 . S
C1148 C1154 1.383 . S
C1149 C1145 1.495 . S
C1149 H1155 0.959 . S
C1149 H1156 0.961 . S
C1149 H1157 0.960 . S
C1150 C1148 1.381 . S
C1150 C1151 1.394 . S
C1150 H1158 0.930 . S
C1151 C1150 1.394 . S
C1151 C1152 1.383 . S
C1151 H1159 0.929 . S
C1152 C1151 1.383 . S
C1152 C1153 1.377 . S
C1153 H1137 0.930 . S
C1153 C1152 1.377 . S
C1153 C1154 1.379 . S
C1154 H1138 0.931 . S
C1154 C1148 1.383 . S
C1154 C1153 1.379 . S
H1155 C1149 0.959 . S
H1156 C1149 0.961 . S
H1157 C1149 0.960 . S
H1158 C1150 0.930 . S
H1159 C1151 0.929 . S
H1160 C1168 0.929 . S
H1161 C1170 0.930 . S
H1162 C1172 0.930 . S
H1163 C1175 0.929 . S
H1164 C1178 0.930 . S
H1165 C1180 0.960 . S
H1166 C1180 0.960 . S
H1167 C1180 0.960 . S
C1168 H1160 0.929 . S
C1168 C1169 1.377 . S
C1168 C1170 1.384 . S
C1169 C1168 1.377 . S
C1169 C1175 1.390 . S
C1170 H1161 0.930 . S
C1170 C1168 1.384 . S
C1170 C1171 1.372 . S
C1171 C1170 1.372 . S
C1171 C1172 1.400 . S
C1171 C1176 1.490 . S
C1172 H1162 0.930 . S
C1172 C1171 1.400 . S
C1172 C1175 1.386 . S
H1173 C1189 0.930 . S
H1174 C1190 0.931 . S
C1175 H1163 0.929 . S
C1175 C1169 1.390 . S
C1175 C1172 1.386 . S
C1176 C1171 1.490 . S
C1176 C1178 1.395 . S
C1176 C1179 1.403 . S
H1177 C1183 0.930 . S
C1178 H1164 0.930 . S
C1178 C1176 1.395 . S
C1178 C1181 1.403 . S
C1179 C1176 1.403 . S
C1179 C1180 1.524 . S
C1179 C1183 1.400 . S
C1180 H1165 0.960 . S
C1180 H1166 0.960 . S
C1180 H1167 0.960 . S
C1180 C1179 1.524 . S
C1181 C1178 1.403 . S
C1181 C1182 1.392 . S
C1181 C1185 1.495 . S
C1182 C1181 1.392 . S
C1182 C1183 1.385 . S
C1182 C1184 1.478 . S
C1183 H1177 0.930 . S
C1183 C1179 1.400 . S
C1183 C1182 1.385 . S
C1184 C1182 1.478 . S
C1184 C1186 1.381 . S
C1184 C1190 1.383 . S
C1185 C1181 1.495 . S
C1185 H1191 0.959 . S
C1185 H1192 0.961 . S
C1185 H1193 0.960 . S
C1186 C1184 1.381 . S
C1186 C1187 1.394 . S
C1186 H1194 0.930 . S
C1187 C1186 1.394 . S
C1187 C1188 1.383 . S
C1187 H1195 0.929 . S
C1188 C1187 1.383 . S
C1188 C1189 1.377 . S
C1189 H1173 0.930 . S
C1189 C1188 1.377 . S
C1189 C1190 1.379 . S
C1190 H1174 0.931 . S
C1190 C1184 1.383 . S
C1190 C1189 1.379 . S
H1191 C1185 0.959 . S
H1192 C1185 0.961 . S
H1193 C1185 0.960 . S
H1194 C1186 0.930 . S
H1195 C1187 0.929 . S
H1196 C1204 0.929 . S
H1197 C1206 0.930 . S
H1198 C1208 0.930 . S
H1199 C1211 0.929 . S
H1200 C1214 0.930 . S
H1201 C1216 0.960 . S
H1202 C1216 0.960 . S
H1203 C1216 0.960 . S
C1204 H1196 0.929 . S
C1204 C1205 1.377 . S
C1204 C1206 1.384 . S
C1205 C1204 1.377 . S
C1205 C1211 1.390 . S
C1206 H1197 0.930 . S
C1206 C1204 1.384 . S
C1206 C1207 1.372 . S
C1207 C1206 1.372 . S
C1207 C1208 1.400 . S
C1207 C1212 1.490 . S
C1208 H1198 0.930 . S
C1208 C1207 1.400 . S
C1208 C1211 1.386 . S
H1209 C1225 0.930 . S
H1210 C1226 0.931 . S
C1211 H1199 0.929 . S
C1211 C1205 1.390 . S
C1211 C1208 1.386 . S
C1212 C1207 1.490 . S
C1212 C1214 1.395 . S
C1212 C1215 1.403 . S
H1213 C1219 0.930 . S
C1214 H1200 0.930 . S
C1214 C1212 1.395 . S
C1214 C1217 1.403 . S
C1215 C1212 1.403 . S
C1215 C1216 1.524 . S
C1215 C1219 1.400 . S
C1216 H1201 0.960 . S
C1216 H1202 0.960 . S
C1216 H1203 0.960 . S
C1216 C1215 1.524 . S
C1217 C1214 1.403 . S
C1217 C1218 1.392 . S
C1217 C1221 1.495 . S
C1218 C1217 1.392 . S
C1218 C1219 1.385 . S
C1218 C1220 1.478 . S
C1219 H1213 0.930 . S
C1219 C1215 1.400 . S
C1219 C1218 1.385 . S
C1220 C1218 1.478 . S
C1220 C1222 1.381 . S
C1220 C1226 1.383 . S
C1221 C1217 1.495 . S
C1221 H1227 0.959 . S
C1221 H1228 0.961 . S
C1221 H1229 0.960 . S
C1222 C1220 1.381 . S
C1222 C1223 1.394 . S
C1222 H1230 0.930 . S
C1223 C1222 1.394 . S
C1223 C1224 1.383 . S
C1223 H1231 0.929 . S
C1224 C1223 1.383 . S
C1224 C1225 1.377 . S
C1225 H1209 0.930 . S
C1225 C1224 1.377 . S
C1225 C1226 1.379 . S
C1226 H1210 0.931 . S
C1226 C1220 1.383 . S
C1226 C1225 1.379 . S
H1227 C1221 0.959 . S
H1228 C1221 0.961 . S
H1229 C1221 0.960 . S
H1230 C1222 0.930 . S
H1231 C1223 0.929 . S
H1232 C1240 0.929 . S
H1233 C1242 0.930 . S
H1234 C1244 0.930 . S
H1235 C1247 0.929 . S
H1236 C1250 0.930 . S
H1237 C1252 0.960 . S
H1238 C1252 0.960 . S
H1239 C1252 0.960 . S
C1240 H1232 0.929 . S
C1240 C1241 1.377 . S
C1240 C1242 1.384 . S
C1241 C1240 1.377 . S
C1241 C1247 1.390 . S
C1242 H1233 0.930 . S
C1242 C1240 1.384 . S
C1242 C1243 1.372 . S
C1243 C1242 1.372 . S
C1243 C1244 1.400 . S
C1243 C1248 1.490 . S
C1244 H1234 0.930 . S
C1244 C1243 1.400 . S
C1244 C1247 1.386 . S
H1245 C1261 0.930 . S
H1246 C1262 0.931 . S
C1247 H1235 0.929 . S
C1247 C1241 1.390 . S
C1247 C1244 1.386 . S
C1248 C1243 1.490 . S
C1248 C1250 1.395 . S
C1248 C1251 1.403 . S
H1249 C1255 0.930 . S
C1250 H1236 0.930 . S
C1250 C1248 1.395 . S
C1250 C1253 1.403 . S
C1251 C1248 1.403 . S
C1251 C1252 1.524 . S
C1251 C1255 1.400 . S
C1252 H1237 0.960 . S
C1252 H1238 0.960 . S
C1252 H1239 0.960 . S
C1252 C1251 1.524 . S
C1253 C1250 1.403 . S
C1253 C1254 1.392 . S
C1253 C1257 1.495 . S
C1254 C1253 1.392 . S
C1254 C1255 1.385 . S
C1254 C1256 1.478 . S
C1255 H1249 0.930 . S
C1255 C1251 1.400 . S
C1255 C1254 1.385 . S
C1256 C1254 1.478 . S
C1256 C1258 1.381 . S
C1256 C1262 1.383 . S
C1257 C1253 1.495 . S
C1257 H1263 0.959 . S
C1257 H1264 0.961 . S
C1257 H1265 0.960 . S
C1258 C1256 1.381 . S
C1258 C1259 1.394 . S
C1258 H1266 0.930 . S
C1259 C1258 1.394 . S
C1259 C1260 1.383 . S
C1259 H1267 0.929 . S
C1260 C1259 1.383 . S
C1260 C1261 1.377 . S
C1261 H1245 0.930 . S
C1261 C1260 1.377 . S
C1261 C1262 1.379 . S
C1262 H1246 0.931 . S
C1262 C1256 1.383 . S
C1262 C1261 1.379 . S
H1263 C1257 0.959 . S
H1264 C1257 0.961 . S
H1265 C1257 0.960 . S
H1266 C1258 0.930 . S
H1267 C1259 0.929 . S
H1268 C1276 0.929 . S
H1269 C1278 0.930 . S
H1270 C1280 0.930 . S
H1271 C1283 0.929 . S
H1272 C1286 0.930 . S
H1273 C1288 0.960 . S
H1274 C1288 0.960 . S
H1275 C1288 0.960 . S
C1276 H1268 0.929 . S
C1276 C1277 1.377 . S
C1276 C1278 1.384 . S
C1277 C1276 1.377 . S
C1277 C1283 1.390 . S
C1278 H1269 0.930 . S
C1278 C1276 1.384 . S
C1278 C1279 1.372 . S
C1279 C1278 1.372 . S
C1279 C1280 1.400 . S
C1279 C1284 1.490 . S
C1280 H1270 0.930 . S
C1280 C1279 1.400 . S
C1280 C1283 1.386 . S
H1281 C1297 0.930 . S
H1282 C1298 0.931 . S
C1283 H1271 0.929 . S
C1283 C1277 1.390 . S
C1283 C1280 1.386 . S
C1284 C1279 1.490 . S
C1284 C1286 1.395 . S
C1284 C1287 1.403 . S
H1285 C1291 0.930 . S
C1286 H1272 0.930 . S
C1286 C1284 1.395 . S
C1286 C1289 1.403 . S
C1287 C1284 1.403 . S
C1287 C1288 1.524 . S
C1287 C1291 1.400 . S
C1288 H1273 0.960 . S
C1288 H1274 0.960 . S
C1288 H1275 0.960 . S
C1288 C1287 1.524 . S
C1289 C1286 1.403 . S
C1289 C1290 1.392 . S
C1289 C1293 1.495 . S
C1290 C1289 1.392 . S
C1290 C1291 1.385 . S
C1290 C1292 1.478 . S
C1291 H1285 0.930 . S
C1291 C1287 1.400 . S
C1291 C1290 1.385 . S
C1292 C1290 1.478 . S
C1292 C1294 1.381 . S
C1292 C1298 1.383 . S
C1293 C1289 1.495 . S
C1293 H1299 0.959 . S
C1293 H1300 0.961 . S
C1293 H1301 0.960 . S
C1294 C1292 1.381 . S
C1294 C1295 1.394 . S
C1294 H1302 0.930 . S
C1295 C1294 1.394 . S
C1295 C1296 1.383 . S
C1295 H1303 0.929 . S
C1296 C1295 1.383 . S
C1296 C1297 1.377 . S
C1297 H1281 0.930 . S
C1297 C1296 1.377 . S
C1297 C1298 1.379 . S
C1298 H1282 0.931 . S
C1298 C1292 1.383 . S
C1298 C1297 1.379 . S
H1299 C1293 0.959 . S
H1300 C1293 0.961 . S
H1301 C1293 0.960 . S
H1302 C1294 0.930 . S
H1303 C1295 0.929 . S
H1304 C1312 0.929 . S
H1305 C1314 0.930 . S
H1306 C1316 0.930 . S
H1307 C1319 0.929 . S
H1308 C1322 0.930 . S
H1309 C1324 0.960 . S
H1310 C1324 0.960 . S
H1311 C1324 0.960 . S
C1312 H1304 0.929 . S
C1312 C1313 1.377 . S
C1312 C1314 1.384 . S
C1313 C1312 1.377 . S
C1313 C1319 1.390 . S
C1314 H1305 0.930 . S
C1314 C1312 1.384 . S
C1314 C1315 1.372 . S
C1315 C1314 1.372 . S
C1315 C1316 1.400 . S
C1315 C1320 1.490 . S
C1316 H1306 0.930 . S
C1316 C1315 1.400 . S
C1316 C1319 1.386 . S
H1317 C1333 0.930 . S
H1318 C1334 0.931 . S
C1319 H1307 0.929 . S
C1319 C1313 1.390 . S
C1319 C1316 1.386 . S
C1320 C1315 1.490 . S
C1320 C1322 1.395 . S
C1320 C1323 1.403 . S
H1321 C1327 0.930 . S
C1322 H1308 0.930 . S
C1322 C1320 1.395 . S
C1322 C1325 1.403 . S
C1323 C1320 1.403 . S
C1323 C1324 1.524 . S
C1323 C1327 1.400 . S
C1324 H1309 0.960 . S
C1324 H1310 0.960 . S
C1324 H1311 0.960 . S
C1324 C1323 1.524 . S
C1325 C1322 1.403 . S
C1325 C1326 1.392 . S
C1325 C1329 1.495 . S
C1326 C1325 1.392 . S
C1326 C1327 1.385 . S
C1326 C1328 1.478 . S
C1327 H1321 0.930 . S
C1327 C1323 1.400 . S
C1327 C1326 1.385 . S
C1328 C1326 1.478 . S
C1328 C1330 1.381 . S
C1328 C1334 1.383 . S
C1329 C1325 1.495 . S
C1329 H1335 0.959 . S
C1329 H1336 0.961 . S
C1329 H1337 0.960 . S
C1330 C1328 1.381 . S
C1330 C1331 1.394 . S
C1330 H1338 0.930 . S
C1331 C1330 1.394 . S
C1331 C1332 1.383 . S
C1331 H1339 0.929 . S
C1332 C1331 1.383 . S
C1332 C1333 1.377 . S
C1333 H1317 0.930 . S
C1333 C1332 1.377 . S
C1333 C1334 1.379 . S
C1334 H1318 0.931 . S
C1334 C1328 1.383 . S
C1334 C1333 1.379 . S
H1335 C1329 0.959 . S
H1336 C1329 0.961 . S
H1337 C1329 0.960 . S
H1338 C1330 0.930 . S
H1339 C1331 0.929 . S
H1340 C1348 0.929 1_554 S
H1341 C1350 0.930 . S
H1342 C1352 0.930 . S
H1343 C1355 0.929 . S
H1344 C1358 0.930 . S
H1345 C1360 0.960 . S
H1346 C1360 0.960 . S
H1347 C1360 0.960 . S
C1348 H1340 0.929 1_556 S
C1348 C1349 1.377 . S
C1348 C1350 1.384 . S
C1349 C1348 1.377 . S
C1349 C1355 1.390 . S
C1350 H1341 0.930 . S
C1350 C1348 1.384 . S
C1350 C1351 1.372 . S
C1351 C1350 1.372 . S
C1351 C1352 1.400 . S
C1351 C1356 1.490 . S
C1352 H1342 0.930 . S
C1352 C1351 1.400 . S
C1352 C1355 1.386 . S
H1353 C1369 0.930 . S
H1354 C1370 0.931 . S
C1355 H1343 0.929 . S
C1355 C1349 1.390 . S
C1355 C1352 1.386 . S
C1356 C1351 1.490 . S
C1356 C1358 1.395 . S
C1356 C1359 1.403 . S
H1357 C1363 0.930 . S
C1358 H1344 0.930 . S
C1358 C1356 1.395 . S
C1358 C1361 1.403 . S
C1359 C1356 1.403 . S
C1359 C1360 1.524 . S
C1359 C1363 1.400 . S
C1360 H1345 0.960 . S
C1360 H1346 0.960 . S
C1360 H1347 0.960 . S
C1360 C1359 1.524 . S
C1361 C1358 1.403 . S
C1361 C1362 1.392 . S
C1361 C1365 1.495 . S
C1362 C1361 1.392 . S
C1362 C1363 1.385 . S
C1362 C1364 1.478 . S
C1363 H1357 0.930 . S
C1363 C1359 1.400 . S
C1363 C1362 1.385 . S
C1364 C1362 1.478 . S
C1364 C1366 1.381 . S
C1364 C1370 1.383 . S
C1365 C1361 1.495 . S
C1365 H1371 0.959 . S
C1365 H1372 0.961 . S
C1365 H1373 0.960 . S
C1366 C1364 1.381 . S
C1366 C1367 1.394 . S
C1366 H1374 0.930 . S
C1367 C1366 1.394 . S
C1367 C1368 1.383 . S
C1367 H1375 0.929 . S
C1368 C1367 1.383 . S
C1368 C1369 1.377 . S
C1369 H1353 0.930 . S
C1369 C1368 1.377 . S
C1369 C1370 1.379 . S
C1370 H1354 0.931 . S
C1370 C1364 1.383 . S
C1370 C1369 1.379 . S
H1371 C1365 0.959 . S
H1372 C1365 0.961 . S
H1373 C1365 0.960 . S
H1374 C1366 0.930 . S
H1375 C1367 0.929 . S
C233 C3 1.480 . S
C252 C171 1.472 . S
C269 C23 1.291 . S
C288 C79 1.291 . S
C305 C31 1.483 . S
C324 C199 1.475 . S
C341 C107 1.297 . S
C360 C51 1.285 . S
C377 C205 1.294 . S
C396 C37 1.308 . S
C413 C101 1.481 . S
C432 C45 1.482 . S
C449 C177 1.291 . S
C468 C9 1.291 . S
C485 C73 1.482 . S
C504 C17 1.470 . S
C521 C59 1.483 . S
C540 C115 1.475 . S
C557 C87 1.481 . S
C576 C143 1.470 . S
C593 C149 1.292 . S
C612 C93 1.273 . S
C629 C65 1.291 . S
C648 C121 1.275 . S
C665 C191 1.299 . S
C684 C135 1.297 . S
C701 C163 1.295 . S
C720 C219 1.275 . S
C737 C157 1.480 . S
C756 C213 1.481 . S
C773 C129 1.481 . S
C792 C185 1.470 . S
C809 C162 1.482 . S
C828 C8 1.483 . S
C845 C119 1.466 . S
C864 C21 1.443 . S
C881 C36 1.482 . S
C900 C134 1.482 . S
C917 C147 1.466 . S
C936 C49 1.461 . S
C953 C161 1.467 . S
C972 C35 1.442 . S
C989 C50 1.482 . S
C1008 C120 1.483 . S
C1025 C133 1.468 . S
C1044 C7 1.446 . S
C1061 C148 1.482 . S
C1080 C22 1.482 . S
C1097 C64 1.483 . S
C1116 C218 1.479 . S
C1133 C175 1.460 . S
C1152 C77 1.457 . S
C1169 C92 1.482 . S
C1188 C190 1.481 . S
C1205 C105 1.463 . S
C1224 C203 1.479 . S
C1241 C91 1.460 . S
C1260 C217 1.469 . S
C1277 C176 1.483 . S
C1296 C106 1.476 . S
C1313 C189 1.462 . S
C1332 C63 1.444 . S
C1349 C204 1.483 . S
C1368 C78 1.483 . S
