# Generated by pormake.
# Topology afw, (4)-cn, num edge types: 1
# Building blocks:
#     Node 0, Type 0, BuildingBlock: GALJAG_clean_sbu_0, # of connection points: 4
#     Node 1, Type 0, BuildingBlock: GALJAG_clean_sbu_0, # of connection points: 4
#     Node 2, Type 0, BuildingBlock: GALJAG_clean_sbu_0, # of connection points: 4
#     Node 3, Type 0, BuildingBlock: GALJAG_clean_sbu_0, # of connection points: 4
#     Node 4, Type 0, BuildingBlock: GALJAG_clean_sbu_0, # of connection points: 4
#     Node 5, Type 0, BuildingBlock: GALJAG_clean_sbu_0, # of connection points: 4
#     Node 6, Type 0, BuildingBlock: GALJAG_clean_sbu_0, # of connection points: 4
#     Node 7, Type 0, BuildingBlock: GALJAG_clean_sbu_0, # of connection points: 4
#     Node 8, Type 0, BuildingBlock: GALJAG_clean_sbu_0, # of connection points: 4
#     Edge 9, Type (0, 0), BuildingBlock: FUNLAD_clean_linker_0, # of connection points: 2
#     Edge 10, Type (0, 0), BuildingBlock: FUNLAD_clean_linker_0, # of connection points: 2
#     Edge 11, Type (0, 0), BuildingBlock: FUNLAD_clean_linker_0, # of connection points: 2
#     Edge 12, Type (0, 0), BuildingBlock: FUNLAD_clean_linker_0, # of connection points: 2
#     Edge 13, Type (0, 0), BuildingBlock: FUNLAD_clean_linker_0, # of connection points: 2
#     Edge 14, Type (0, 0), BuildingBlock: FUNLAD_clean_linker_0, # of connection points: 2
#     Edge 15, Type (0, 0), BuildingBlock: FUNLAD_clean_linker_0, # of connection points: 2
#     Edge 16, Type (0, 0), BuildingBlock: FUNLAD_clean_linker_0, # of connection points: 2
#     Edge 17, Type (0, 0), BuildingBlock: FUNLAD_clean_linker_0, # of connection points: 2
#     Edge 18, Type (0, 0), BuildingBlock: FUNLAD_clean_linker_0, # of connection points: 2
#     Edge 19, Type (0, 0), BuildingBlock: FUNLAD_clean_linker_0, # of connection points: 2
#     Edge 20, Type (0, 0), BuildingBlock: FUNLAD_clean_linker_0, # of connection points: 2
#     Edge 21, Type (0, 0), BuildingBlock: FUNLAD_clean_linker_0, # of connection points: 2
#     Edge 22, Type (0, 0), BuildingBlock: FUNLAD_clean_linker_0, # of connection points: 2
#     Edge 23, Type (0, 0), BuildingBlock: FUNLAD_clean_linker_0, # of connection points: 2
#     Edge 24, Type (0, 0), BuildingBlock: FUNLAD_clean_linker_0, # of connection points: 2
#     Edge 25, Type (0, 0), BuildingBlock: FUNLAD_clean_linker_0, # of connection points: 2
#     Edge 26, Type (0, 0), BuildingBlock: FUNLAD_clean_linker_0, # of connection points: 2
# Relax obj value: 0.092
# Max RMSD: 0.157
# Mean RMSD: 0.157
data_MOF--net-afw--node1-GALJAG_clean_sbu_0--edge1-FUNLAD_clean_linker_0
_symmetry_space_group_name_H-M    P1
_symmetry_Int_Tables_number       1
_symmetry_cell_setting            triclinic
loop_
_symmetry_equiv_pos_as_xyz
'x, y, z'
_cell_length_a     53.601818
_cell_length_b     53.658727
_cell_length_c     31.525282
_cell_angle_alpha  90.038758
_cell_angle_beta   90.203215
_cell_angle_gamma 120.42135
loop_
_atom_site_label
_atom_site_type_symbol
_atom_site_fract_x
_atom_site_fract_y
_atom_site_fract_z
_atom_type_partial_charge
In0 In 0.02177 0.20979 0.0108 0.0
O1 O 0.01707 0.22528 0.94564 0.0
O2 O 0.04895 0.25585 -0.01183 0.0
C3 C 0.98004 0.15366 0.00763 0.0
C4 C 8e-05 0.23168 0.06644 0.0
C5 C 0.06989 0.20588 0.01307 0.0
O6 O 0.98693 0.16998 0.97568 0.0
O7 O -0.00566 0.16561 0.04083 0.0
O8 O 0.05908 0.2096 0.04636 0.0
O9 O 0.05633 0.20399 0.97936 0.0
C10 C 0.03688 0.25111 0.95224 0.0
O11 O 0.02336 0.23178 0.07377 0.0
O12 O 0.9879 0.22021 0.03173 0.0
In13 In 0.82049 0.83438 -0.00213 0.0
O14 O 0.7952 0.80693 0.94038 0.0
O15 O 0.77448 0.82184 0.98238 0.0
C16 C 0.87536 0.84943 0.98098 0.0
C17 C 0.80389 0.79209 0.05519 0.0
C18 C 0.83258 0.88902 0.00933 0.0
O19 O 0.85689 0.8431 0.95162 0.0
O20 O 0.86579 0.84744 0.01807 0.0
O21 O 0.82804 0.87216 0.04012 0.0
O22 O 0.82995 0.87789 0.97311 0.0
C23 C 0.7724 0.8071 0.95 0.0
O24 O 0.79998 0.81319 0.06096 0.0
O25 O 0.8165 0.79276 0.02116 0.0
In26 In 0.19773 0.02848 0.97108 0.0
O27 O 0.21691 0.02552 0.03429 0.0
O28 O 0.24557 0.05252 0.98589 0.0
C29 C 0.14089 0.99005 0.97587 0.0
C30 C 0.21101 0.00066 0.9132 0.0
C31 C 0.19598 0.07761 0.97217 0.0
O32 O 0.15791 0.9945 0.00663 0.0
O33 O 0.15259 0.00527 0.94344 0.0
O34 O 0.2007 0.06795 0.93836 0.0
O35 O 0.19254 0.06264 0.00481 0.0
C36 C 0.24274 0.04259 0.02296 0.0
O37 O 0.21486 0.0256 0.90604 0.0
O38 O 0.2005 0.99023 0.94901 0.0
In39 In 0.67092 0.54034 0.35191 0.0
O40 O 0.66736 0.55715 0.28689 0.0
O41 O 0.70398 0.58366 0.32613 0.0
C42 C 0.62699 0.48546 0.35438 0.0
C43 C 0.65239 0.56772 0.40256 0.0
C44 C 0.71402 0.52878 0.35619 0.0
O45 O 0.63391 0.50012 0.32053 0.0
O46 O 0.6421 0.49864 0.38648 0.0
O47 O 0.70547 0.53613 0.38874 0.0
O48 O 0.70096 0.52756 0.32218 0.0
C49 C 0.6908 0.58093 0.29165 0.0
O50 O 0.67601 0.56847 0.40976 0.0
O51 O 0.63826 0.55264 0.37103 0.0
In52 In 0.48139 0.16726 0.34577 0.0
O53 O 0.46294 0.14503 0.2822 0.0
O54 O 0.43765 0.15659 0.32077 0.0
C55 C 0.53437 0.17354 0.35139 0.0
C56 C 0.45364 0.12535 0.40307 0.0
C57 C 0.49549 0.22283 0.34027 0.0
O58 O 0.51925 0.1643 0.31794 0.0
O59 O 0.5226 0.17925 0.38146 0.0
O60 O 0.48219 0.20744 0.37203 0.0
O61 O 0.50144 0.21008 0.31188 0.0
C62 C 0.43943 0.14492 0.287 0.0
O63 O 0.46291 0.15159 0.41226 0.0
O64 O 0.45866 0.12072 0.36574 0.0
In65 In 0.84775 0.34583 0.33066 0.0
O66 O 0.8696 0.34518 0.39281 0.0
O67 O 0.88973 0.38315 0.35453 0.0
C68 C 0.79428 0.29906 0.33057 0.0
C69 C 0.87557 0.33 0.27625 0.0
C70 C 0.83251 0.38631 0.32828 0.0
O71 O 0.80957 0.30773 0.36395 0.0
O72 O 0.80619 0.31377 0.29784 0.0
O73 O 0.84338 0.38092 0.29646 0.0
O74 O 0.82932 0.37119 0.36072 0.0
C75 C 0.89075 0.37056 0.3877 0.0
O76 O 0.86959 0.34934 0.26696 0.0
O77 O 0.86716 0.31873 0.31232 0.0
In78 In 0.36308 0.87354 0.68905 0.0
O79 O 0.36756 0.89643 0.62642 0.0
O80 O 0.39122 0.92186 0.67997 0.0
C81 C 0.32651 0.81776 0.66904 0.0
C82 C 0.3291 0.88612 0.73536 0.0
C83 C 0.41009 0.87059 0.71058 0.0
O84 O 0.33905 0.83686 0.64088 0.0
O85 O 0.33252 0.82692 0.70667 0.0
O86 O 0.39341 0.87136 0.7381 0.0
O87 O 0.40321 0.87178 0.67265 0.0
C88 C 0.38451 0.92133 0.64143 0.0
O89 O 0.35117 0.88674 0.75105 0.0
O90 O 0.32413 0.87868 0.6969 0.0
In91 In 0.16435 0.49711 0.64374 0.0
O92 O 0.13976 0.47119 0.58474 0.0
O93 O 0.12066 0.48949 0.62359 0.0
C94 C 0.21709 0.50282 0.63856 0.0
C95 C 0.1398 0.45696 0.70434 0.0
C96 C 0.181 0.55351 0.64639 0.0
O97 O 0.2018 0.49905 0.60586 0.0
O98 O 0.20552 0.50324 0.67308 0.0
O99 O 0.17074 0.53724 0.67835 0.0
O100 O 0.18255 0.5412 0.6132 0.0
C101 C 0.11826 0.47434 0.59157 0.0
O102 O 0.14579 0.48276 0.71005 0.0
O103 O 0.1464 0.45174 0.66835 0.0
In104 In 0.53074 0.69067 0.67665 0.0
O105 O 0.55511 0.66985 0.70473 0.0
O106 O 0.5413 0.69131 0.74676 0.0
C107 C 0.47578 0.64956 0.65753 0.0
C108 C 0.56572 0.69677 0.61163 0.0
C109 C 0.53209 0.74048 0.69471 0.0
O110 O 0.49152 0.6447 0.68197 0.0
O111 O 0.48762 0.67498 0.64354 0.0
O112 O 0.5437 0.73746 0.66186 0.0
O113 O 0.51992 0.71849 0.7181 0.0
C114 C 0.55515 0.67826 0.74208 0.0
O115 O 0.53852 0.68161 0.60924 0.0
O116 O 0.57534 0.70997 0.64638 0.0
C117 C 0.18733 0.11246 0.01238 0.0
C118 C 0.19213 0.10294 0.9734 0.0
C119 C 0.17944 0.13354 0.01372 0.0
C120 C 0.17631 0.14571 0.97596 0.0
C121 C 0.18267 0.13724 0.93716 0.0
C122 C 0.19061 0.11613 0.93586 0.0
C123 C 0.16282 0.16404 0.97516 0.0
C124 C 0.15981 0.17725 0.00958 0.0
C125 C 0.13988 0.18891 0.01044 0.0
C126 C 0.12754 0.18973 0.04932 0.0
C127 C 0.10553 0.19647 0.05068 0.0
C128 C 0.09551 0.20249 0.01309 0.0
H129 H 0.14114 0.19819 0.943 0.0
C130 C 0.10916 0.20361 0.97464 0.0
C131 C 0.13131 0.19717 0.97332 0.0
H132 H 0.10231 0.20887 0.94528 0.0
H133 H 0.18842 0.10271 0.04189 0.0
H134 H 0.17424 0.13879 0.0443 0.0
H135 H 0.18034 0.14614 0.90756 0.0
H136 H 0.19424 0.10923 0.90536 0.0
H137 H 0.15283 0.16438 0.94535 0.0
H138 H 0.1698 0.177 0.03942 0.0
H139 H 0.13397 0.18382 0.07849 0.0
H140 H 0.09553 0.19572 0.08082 0.0
C141 C 0.8496 0.938 0.97925 0.0
C142 C 0.8434 0.92018 0.01492 0.0
C143 C 0.86368 0.96799 0.98377 0.0
C144 C 0.87171 0.98083 0.02425 0.0
C145 C 0.86445 0.96286 0.05999 0.0
C146 C 0.85034 0.93283 0.05543 0.0
C147 C 0.89007 0.01263 0.03022 0.0
C148 C 0.89294 0.03222 0.00092 0.0
C149 C 0.91437 0.06368 0.00425 0.0
C150 C 0.92229 0.08037 0.96707 0.0
C151 C 0.94344 0.10967 0.96811 0.0
C152 C 0.95709 0.12293 0.00646 0.0
H153 H 0.92143 0.06572 0.07262 0.0
C154 C 0.9487 0.10655 0.04388 0.0
C155 C 0.92746 0.0773 0.04291 0.0
H156 H 0.95856 0.11633 0.07405 0.0
H157 H 0.84465 0.92886 0.94756 0.0
H158 H 0.86943 0.98083 0.95522 0.0
H159 H 0.87047 0.97213 0.09153 0.0
H160 H 0.84591 0.91963 0.0835 0.0
H161 H 0.90254 0.01975 0.05939 0.0
H162 H 0.88017 0.02495 0.972 0.0
H163 H 0.91246 0.07057 0.93689 0.0
H164 H 0.94934 0.12182 0.9388 0.0
C165 C 0.92508 0.86616 0.0078 0.0
C166 C 0.90638 0.86065 0.97324 0.0
C167 C 0.9549 0.87995 0.0019 0.0
C168 C 0.96675 0.88839 0.96107 0.0
C169 C 0.94794 0.88212 0.92634 0.0
C170 C 0.91799 0.86823 0.93229 0.0
C171 C -0.00152 0.90611 0.95423 0.0
C172 C 0.01825 0.90696 0.98175 0.0
C173 C 0.04989 0.92762 0.9786 0.0
C174 C 0.06714 0.93285 0.01496 0.0
C175 C 0.09676 0.95306 0.01423 0.0
C176 C 0.10974 0.96841 0.97699 0.0
H177 H 0.05111 0.93861 0.91178 0.0
C178 C 0.09271 0.96278 0.94033 0.0
C179 C 0.06317 0.94251 0.94098 0.0
H180 H 0.10224 0.97399 0.91095 0.0
H181 H 0.91676 0.8607 0.03981 0.0
H182 H 0.96844 0.88509 0.02978 0.0
H183 H 0.95649 0.88858 0.89459 0.0
H184 H 0.90408 0.86437 0.9051 0.0
H185 H 0.00539 0.91967 0.92627 0.0
H186 H 0.01102 0.89289 0.00922 0.0
H187 H 0.05759 0.9216 0.04432 0.0
H188 H 0.1094 0.95682 0.04289 0.0
C189 C 0.81374 0.41452 0.36531 0.0
C190 C 0.82378 0.40834 0.32793 0.0
C191 C 0.80424 0.43439 0.36509 0.0
C192 C 0.80467 0.44861 0.32739 0.0
C193 C 0.81497 0.4426 0.29011 0.0
C194 C 0.82462 0.42279 0.2904 0.0
C195 C 0.79213 0.4677 0.32497 0.0
C196 C 0.78988 0.48196 0.35866 0.0
C197 C 0.77334 0.49737 0.35761 0.0
C198 C 0.76278 0.50184 0.39591 0.0
C199 C 0.74441 0.51327 0.39589 0.0
C200 C 0.73629 0.52041 0.35748 0.0
H201 H 0.77541 0.50476 0.28943 0.0
C202 C 0.7482 0.51759 0.31945 0.0
C203 C 0.76673 0.50647 0.31948 0.0
H204 H 0.74276 0.5235 0.28942 0.0
H205 H 0.81274 0.40362 0.39471 0.0
H206 H 0.79561 0.43763 0.39418 0.0
H207 H 0.81522 0.45301 0.26055 0.0
H208 H 0.8322 0.41839 0.2611 0.0
H209 H 0.78352 0.46888 0.29436 0.0
H210 H 0.79879 0.48078 0.38906 0.0
H211 H 0.76781 0.4954 0.42582 0.0
H212 H 0.73565 0.51539 0.4257 0.0
C213 C 0.49864 0.26792 0.36914 0.0
C214 C 0.50442 0.25366 0.33666 0.0
C215 C 0.5088 0.29757 0.36633 0.0
C216 C 0.52518 0.31352 0.33103 0.0
C217 C 0.52981 0.29888 0.2979 0.0
C218 C 0.51965 0.26934 0.3007 0.0
C219 C 0.53877 0.34544 0.32783 0.0
C220 C 0.54497 0.36297 0.3617 0.0
C221 C 0.56367 0.39494 0.35929 0.0
C222 C 0.57858 0.40996 0.39601 0.0
C223 C 0.59858 0.43952 0.39454 0.0
C224 C 0.604 0.45478 0.35629 0.0
H225 H 0.55615 0.40005 0.29275 0.0
C226 C 0.58809 0.44018 0.31993 0.0
C227 C 0.56798 0.41054 0.32141 0.0
H228 H 0.59153 0.45152 0.29016 0.0
H229 H 0.4866 0.25626 0.39697 0.0
H230 H 0.50384 0.30777 0.39191 0.0
H231 H 0.54209 0.31049 0.27018 0.0
H232 H 0.52425 0.25892 0.27494 0.0
H233 H 0.54675 0.35483 0.29683 0.0
H234 H 0.53904 0.35367 0.39317 0.0
H235 H 0.57551 0.39861 0.42571 0.0
H236 H 0.61032 0.45024 0.42323 0.0
C237 C 0.57753 0.17376 0.32051 0.0
C238 C 0.56426 0.17914 0.35477 0.0
C239 C 0.60675 0.18178 0.32278 0.0
C240 C 0.6233 0.19568 0.35931 0.0
C241 C 0.60942 0.19949 0.39428 0.0
C242 C 0.58029 0.19137 0.39205 0.0
C243 C 0.65521 0.2082 0.36179 0.0
C244 C 0.67231 0.21459 0.32748 0.0
C245 C 0.70438 0.23338 0.32901 0.0
C246 C 0.71868 0.24714 0.29145 0.0
C247 C 0.74811 0.26771 0.29184 0.0
C248 C 0.76403 0.27492 0.32985 0.0
H249 H 0.71094 0.22845 0.39607 0.0
C250 C 0.75028 0.26002 0.36708 0.0
C251 C 0.72074 0.2393 0.36668 0.0
H252 H 0.76215 0.26486 0.39671 0.0
H253 H 0.56554 0.16393 0.2916 0.0
H254 H 0.61616 0.17735 0.29562 0.0
H255 H 0.62143 0.20981 0.423 0.0
H256 H 0.57058 0.19553 0.4192 0.0
H257 H 0.66503 0.2155 0.39284 0.0
H258 H 0.66256 0.20891 0.29617 0.0
H259 H 0.70681 0.24285 0.26187 0.0
H260 H 0.75816 0.27861 0.26249 0.0
C261 C 0.45271 0.86683 0.68919 0.0
C262 C 0.43406 0.86568 0.72123 0.0
C263 C 0.47241 0.85764 0.69709 0.0
C264 C 0.47389 0.84714 0.73738 0.0
C265 C 0.4563 0.84753 0.77001 0.0
C266 C 0.43668 0.8569 0.76212 0.0
C267 C 0.48983 0.83153 0.74439 0.0
C268 C 0.51173 0.83482 0.71955 0.0
C269 C 0.52123 0.81319 0.71729 0.0
C270 C 0.53425 0.81136 0.67971 0.0
C271 C 0.53906 0.78839 0.673 0.0
C272 C 0.53095 0.76683 0.70384 0.0
H273 H 0.50647 0.794 0.77972 0.0
C274 C 0.51991 0.76973 0.74267 0.0
C275 C 0.51531 0.79279 0.74954 0.0
H276 H 0.51407 0.75372 0.76741 0.0
H277 H 0.45117 0.87353 0.65735 0.0
H278 H 0.4849 0.85706 0.67067 0.0
H279 H 0.45683 0.83936 0.80123 0.0
H280 H 0.42253 0.85578 0.78741 0.0
H281 H 0.48098 0.81475 0.76832 0.0
H282 H 0.52073 0.85207 0.69628 0.0
H283 H 0.53935 0.82691 0.6545 0.0
H284 H 0.5479 0.78684 0.64292 0.0
C285 C 0.29243 0.76742 0.69249 0.0
C286 C 0.30662 0.78695 0.65932 0.0
C287 C 0.27436 0.73805 0.68414 0.0
C288 C 0.26991 0.72752 0.64225 0.0
C289 C 0.28409 0.74708 0.60905 0.0
C290 C 0.30215 0.77658 0.61743 0.0
C291 C 0.25247 0.69612 0.63274 0.0
C292 C 0.23096 0.67718 0.65803 0.0
C293 C 0.21629 0.6453 0.65285 0.0
C294 C 0.20298 0.62786 0.68842 0.0
C295 C 0.1909 0.59793 0.68615 0.0
C296 C 0.1917 0.5848 0.64808 0.0
H297 H 0.225 0.64441 0.58562 0.0
C298 C 0.20384 0.60202 0.61194 0.0
C299 C 0.21595 0.63197 0.6142 0.0
H300 H 0.20442 0.59242 0.58198 0.0
H301 H 0.29561 0.77474 0.72516 0.0
H302 H 0.26477 0.72366 0.71082 0.0
H303 H 0.28132 0.73948 0.57656 0.0
H304 H 0.31293 0.79115 0.59127 0.0
H305 H 0.25848 0.68859 0.6048 0.0
H306 H 0.22493 0.68514 0.68551 0.0
H307 H 0.20268 0.6375 0.7185 0.0
H308 H 0.1815 0.58518 0.71445 0.0
C309 C 0.26288 0.51697 0.59909 0.0
C310 C 0.24719 0.50898 0.63712 0.0
C311 C 0.29265 0.52723 0.59949 0.0
C312 C 0.30713 0.5296 0.63801 0.0
C313 C 0.29091 0.51945 0.67534 0.0
C314 C 0.26131 0.50945 0.67499 0.0
C315 C 0.33914 0.54438 0.64138 0.0
C316 C 0.35677 0.56646 0.61591 0.0
C317 C 0.388 0.58635 0.62509 0.0
C318 C 0.40126 0.61432 0.60807 0.0
C319 C 0.42982 0.63468 0.61841 0.0
C320 C 0.44588 0.62748 0.64585 0.0
H321 H 0.39538 0.5572 0.66412 0.0
C322 C 0.43309 0.59922 0.66177 0.0
C323 C 0.40444 0.57877 0.6514 0.0
H324 H 0.44514 0.59297 0.6825 0.0
H325 H 0.25244 0.51653 0.56938 0.0
H326 H 0.30431 0.53391 0.56983 0.0
H327 H 0.30142 0.52068 0.70534 0.0
H328 H 0.24968 0.50308 0.70475 0.0
H329 H 0.34795 0.53969 0.66928 0.0
H330 H 0.34741 0.57255 0.5902 0.0
H331 H 0.38926 0.62074 0.58752 0.0
H332 H 0.43916 0.65622 0.60528 0.0
C333 C 0.06807 0.30229 0.92964 0.0
C334 C 0.04567 0.27412 0.9204 0.0
C335 C 0.07706 0.32409 0.8994 0.0
C336 C 0.06361 0.31819 0.85928 0.0
C337 C 0.04121 0.29 0.85011 0.0
C338 C 0.03221 0.26815 0.88042 0.0
C339 C 0.07365 0.34038 0.82548 0.0
C340 C 0.08839 0.36901 0.83331 0.0
C341 C 0.10061 0.39102 0.79927 0.0
C342 C 0.10649 0.41919 0.80778 0.0
C343 C 0.11907 0.44071 0.7769 0.0
C344 C 0.12622 0.43444 0.73706 0.0
H345 H 0.10486 0.3638 0.75205 0.0
C346 C 0.12054 0.40635 0.72862 0.0
C347 C 0.108 0.38489 0.7594 0.0
H348 H 0.12607 0.40095 0.69828 0.0
H349 H 0.07899 0.30746 0.96013 0.0
H350 H 0.09505 0.34522 0.90732 0.0
H351 H 0.03071 0.2848 0.8193 0.0
H352 H 0.01494 0.2466 0.87242 0.0
H353 H 0.06825 0.33265 0.79301 0.0
H354 H 0.09127 0.37684 0.86575 0.0
H355 H 0.10133 0.42456 0.83842 0.0
H356 H 0.12332 0.46223 0.78429 0.0
C357 C 0.74077 0.76872 0.89757 0.0
C358 C 0.74462 0.78979 0.92752 0.0
C359 C 0.7136 0.75094 0.87899 0.0
C360 C 0.68988 0.75404 0.8901 0.0
C361 C 0.69406 0.77557 0.91928 0.0
C362 C 0.72104 0.79312 0.93799 0.0
C363 C 0.66083 0.73659 0.87051 0.0
C364 C 0.65087 0.71052 0.85218 0.0
C365 C 0.62283 0.69598 0.82915 0.0
C366 C 0.62047 0.68109 0.79138 0.0
C367 C 0.59675 0.67264 0.76438 0.0
C368 C 0.57502 0.67886 0.77503 0.0
H369 H 0.59997 0.70924 0.87194 0.0
C370 C 0.57578 0.6907 0.81505 0.0
C371 C 0.59943 0.69906 0.84201 0.0
H372 H 0.55907 0.69527 0.8244 0.0
H373 H 0.75862 0.76572 0.88894 0.0
H374 H 0.71149 0.73521 0.85562 0.0
H375 H 0.67628 0.77868 0.928 0.0
H376 H 0.72335 0.80921 0.96093 0.0
H377 H 0.64718 0.74617 0.87079 0.0
H378 H 0.66437 0.70082 0.85073 0.0
H379 H 0.63799 0.67797 0.78119 0.0
H380 H 0.59661 0.66332 0.73383 0.0
C381 C 0.28983 0.89797 0.73794 0.0
C382 C 0.31129 0.89501 0.75911 0.0
C383 C 0.27413 0.90823 0.75943 0.0
C384 C 0.27961 0.91569 0.80257 0.0
C385 C 0.30029 0.91169 0.8241 0.0
C386 C 0.3162 0.90166 0.80249 0.0
C387 C 0.26401 0.92746 0.82607 0.0
C388 C 0.25448 0.94376 0.80766 0.0
C389 C 0.24087 0.95706 0.83257 0.0
C390 C 0.24548 0.98433 0.82098 0.0
C391 C 0.23502 -0.0016 0.84641 0.0
C392 C 0.21957 0.98516 0.88351 0.0
H393 H 0.2191 0.92172 0.87726 0.0
C394 C 0.21355 0.95717 0.89364 0.0
C395 C 0.224 0.94321 0.86838 0.0
H396 H 0.20125 0.94622 0.92168 0.0
H397 H 0.28544 0.89279 0.70453 0.0
H398 H 0.25769 0.91018 0.74223 0.0
H399 H 0.30462 0.91699 0.8575 0.0
H400 H 0.33251 0.89942 0.8196 0.0
H401 H 0.26233 0.9244 0.86023 0.0
H402 H 0.25891 0.94954 0.77439 0.0
H403 H 0.2581 0.99522 0.79314 0.0
H404 H 0.23976 0.01989 0.83774 0.0
C405 C 0.41658 0.11634 0.22083 0.0
C406 C 0.41503 0.13088 0.25685 0.0
C407 C 0.39277 0.10202 0.19355 0.0
C408 C 0.36703 0.10217 0.20181 0.0
C409 C 0.36558 0.11663 0.23795 0.0
C410 C 0.38932 0.13093 0.26508 0.0
C411 C 0.34105 0.08726 0.17416 0.0
C412 C 0.34207 0.08165 0.1328 0.0
C413 C 0.31621 0.06972 0.10485 0.0
C414 C 0.31996 0.07751 0.06191 0.0
C415 C 0.29605 0.06838 0.03524 0.0
C416 C 0.26788 0.05093 0.0509 0.0
H417 H 0.2844 0.04409 0.15281 0.0
C418 C 0.2641 0.04207 0.09342 0.0
C419 C 0.28805 0.05134 0.1202 0.0
H420 H 0.24264 0.02832 0.10617 0.0
H421 H 0.43603 0.11568 0.21402 0.0
H422 H 0.3945 0.09046 0.16667 0.0
H423 H 0.34601 0.11698 0.24519 0.0
H424 H 0.3874 0.14182 0.29275 0.0
H425 H 0.32063 0.08286 0.18777 0.0
H426 H 0.36277 0.08852 0.11789 0.0
H427 H 0.34143 0.09138 0.04921 0.0
H428 H 0.29964 0.0753 0.00244 0.0
C429 C 0.96308 0.24506 0.08348 0.0
C430 C 0.98815 0.24463 0.09526 0.0
C431 C 0.95172 0.25764 0.10992 0.0
C432 C 0.96529 0.27023 0.14872 0.0
C433 C 0.99011 0.26942 0.16082 0.0
C434 C 0.00159 0.25689 0.1342 0.0
C435 C 0.95302 0.28277 0.17814 0.0
C436 C 0.93669 0.29383 0.16488 0.0
C437 C 0.92201 0.30376 0.1944 0.0
C438 C 0.91459 0.32402 0.18035 0.0
C439 C 0.89961 0.33282 0.20692 0.0
C440 C 0.89151 0.32118 0.2478 0.0
H441 H 0.91811 0.27565 0.24678 0.0
C442 C 0.89872 0.30075 0.26169 0.0
C443 C 0.91373 0.29207 0.2353 0.0
H444 H 0.8926 0.29125 0.29297 0.0
H445 H 0.95212 0.23559 0.05378 0.0
H446 H 0.93196 0.25686 0.10016 0.0
H447 H 0.00072 0.27862 0.19084 0.0
H448 H 0.0209 0.25676 0.1441 0.0
H449 H 0.95806 0.28326 0.21163 0.0
H450 H 0.93418 0.2961 0.13115 0.0
H451 H 0.9204 0.33307 0.14877 0.0
H452 H 0.89424 0.34855 0.19537 0.0
C453 C 0.72997 0.62823 0.26512 0.0
C454 C 0.70182 0.60453 0.26046 0.0
C455 C 0.74029 0.65159 0.23751 0.0
C456 C 0.72263 0.65177 0.20459 0.0
C457 C 0.69444 0.62812 0.19993 0.0
C458 C 0.68417 0.6045 0.22741 0.0
C459 C 0.73289 0.67696 0.17607 0.0
C460 C 0.76083 0.69316 0.1649 0.0
C461 C 0.7716 0.71881 0.13738 0.0
C462 C 0.7943 0.72521 0.10937 0.0
C463 C 0.80493 0.74923 0.08289 0.0
C464 C 0.79354 0.7677 0.0848 0.0
H465 H 0.74336 0.73344 0.16189 0.0
C466 C 0.77143 0.76186 0.11378 0.0
C467 C 0.76038 0.73747 0.13972 0.0
H468 H 0.76231 0.7758 0.1158 0.0
H469 H 0.74398 0.62893 0.29051 0.0
H470 H 0.76183 0.66982 0.24279 0.0
H471 H 0.68038 0.62792 0.17499 0.0
H472 H 0.66229 0.58658 0.22339 0.0
H473 H 0.71695 0.68163 0.16285 0.0
H474 H 0.7762 0.68664 0.17443 0.0
H475 H 0.80348 0.71131 0.10744 0.0
H476 H 0.8221 0.75336 0.06092 0.0
C477 C 0.06903 0.46558 0.57522 0.0
C478 C 0.09143 0.46008 0.56612 0.0
C479 C 0.04281 0.45106 0.55337 0.0
C480 C 0.03844 0.43079 0.52165 0.0
C481 C 0.06077 0.42515 0.51266 0.0
C482 C 0.08715 0.43982 0.53452 0.0
C483 C 0.01059 0.41486 0.49831 0.0
C484 C -0.00618 0.4264 0.49077 0.0
C485 C 0.96659 0.41137 0.46607 0.0
C486 C 0.95885 0.42792 0.44087 0.0
C487 C 0.93385 0.41456 0.41604 0.0
C488 C 0.91571 0.38441 0.41675 0.0
H489 H 0.95317 0.36796 0.48768 0.0
C490 C 0.92272 0.36783 0.4433 0.0
C491 C 0.94811 0.3812 0.46763 0.0
H492 H 0.90903 0.34454 0.44437 0.0
H493 H 0.07156 0.48084 0.59976 0.0
H494 H 0.02582 0.45533 0.56215 0.0
H495 H 0.05783 0.40946 0.48858 0.0
H496 H 0.10397 0.43496 0.52717 0.0
H497 H 0.00461 0.39386 0.48499 0.0
H498 H 0.00131 0.44858 0.50017 0.0
H499 H 0.97258 0.45122 0.43956 0.0
H500 H 0.92883 0.42785 0.39599 0.0
C501 C 0.66097 0.60652 0.45496 0.0
C502 C 0.6424 0.58441 0.42699 0.0
C503 C 0.65166 0.62361 0.47523 0.0
C504 C 0.62357 0.61866 0.46783 0.0
C505 C 0.60494 0.59605 0.44071 0.0
C506 C 0.61428 0.57924 0.42032 0.0
C507 C 0.61208 0.63548 0.48873 0.0
C508 C 0.62839 0.66225 0.50497 0.0
C509 C 0.61482 0.67668 0.52729 0.0
C510 C 0.62798 0.69299 0.56395 0.0
C511 C 0.61287 0.70189 0.59004 0.0
C512 C 0.58445 0.69462 0.57958 0.0
H513 H 0.57753 0.66096 0.4854 0.0
C514 C 0.57255 0.68099 0.54068 0.0
C515 C 0.58769 0.67229 0.51457 0.0
H516 H 0.55089 0.67561 0.53149 0.0
H517 H 0.68278 0.61091 0.46063 0.0
H518 H 0.66637 0.6403 0.49687 0.0
H519 H 0.58311 0.59156 0.43481 0.0
H520 H 0.59944 0.56228 0.39902 0.0
H521 H 0.58866 0.625 0.49065 0.0
H522 H 0.65183 0.67295 0.50459 0.0
H523 H 0.6491 0.69709 0.57396 0.0
H524 H 0.62262 0.71255 0.6198 0.0
C525 C 0.38488 0.94656 0.57476 0.0
C526 C 0.39424 0.94798 0.61676 0.0
C527 C 0.39264 0.97183 0.55227 0.0
C528 C 0.40976 -0.00092 0.57153 0.0
C529 C 0.41977 0.00045 0.61311 0.0
C530 C 0.41197 0.97515 0.63564 0.0
C531 C 0.41866 0.0264 0.54845 0.0
C532 C 0.40328 0.02818 0.516 0.0
C533 C 0.41434 0.05408 0.48885 0.0
C534 C 0.40797 0.05 0.4454 0.0
C535 C 0.42027 0.07343 0.4178 0.0
C536 C 0.43859 0.10149 0.4333 0.0
H537 H 0.43642 0.08617 0.53836 0.0
C538 C 0.44363 0.10594 0.47711 0.0
C539 C 0.43176 0.08232 0.50477 0.0
H540 H 0.4576 0.12745 0.48974 0.0
H541 H 0.37139 0.9259 0.55931 0.0
H542 H 0.3855 0.9698 0.51967 0.0
H543 H 0.43335 0.02115 0.62843 0.0
H544 H 0.41958 0.9769 0.66798 0.0
H545 H 0.43886 0.04537 0.558 0.0
H546 H 0.38304 0.00931 0.50642 0.0
H547 H 0.3944 0.02848 0.4325 0.0
H548 H 0.41581 0.0695 0.38414 0.0
loop_
_geom_bond_atom_site_label_1
_geom_bond_atom_site_label_2
_geom_bond_distance
_geom_bond_site_symmetry_2
_ccdc_geom_bond_type
In0 O1 2.294 1_554 S
In0 O2 2.326 . S
In0 O6 2.266 1_454 S
In0 O7 2.326 1_455 S
In0 O8 2.266 . S
In0 O9 2.326 1_554 S
In0 O11 2.294 . S
In0 O12 2.326 1_455 S
O1 In0 2.294 1_556 S
O1 C10 1.240 . S
O2 In0 2.326 . S
O2 C10 1.252 1_554 S
C3 O6 1.252 1_554 S
C3 O7 1.260 . S
C4 O11 1.240 1_655 S
C4 O12 1.252 . S
C5 O8 1.252 . S
C5 O9 1.260 1_554 S
O6 In0 2.266 1_656 S
O6 C3 1.252 1_556 S
O7 In0 2.326 1_655 S
O7 C3 1.260 . S
O8 In0 2.266 . S
O8 C5 1.252 . S
O9 In0 2.326 1_556 S
O9 C5 1.260 1_556 S
C10 O1 1.240 . S
C10 O2 1.252 1_556 S
O11 In0 2.294 . S
O11 C4 1.240 1_455 S
O12 In0 2.326 1_655 S
O12 C4 1.252 . S
In13 O14 2.294 1_554 S
In13 O15 2.326 . S
In13 O19 2.266 1_554 S
In13 O20 2.326 . S
In13 O21 2.266 . S
In13 O22 2.326 1_554 S
In13 O24 2.294 . S
In13 O25 2.326 . S
O14 In13 2.294 1_556 S
O14 C23 1.240 . S
O15 In13 2.326 . S
O15 C23 1.252 1_554 S
C16 O19 1.252 1_554 S
C16 O20 1.260 . S
C17 O24 1.240 . S
C17 O25 1.252 . S
C18 O21 1.252 . S
C18 O22 1.260 1_554 S
O19 In13 2.266 1_556 S
O19 C16 1.252 1_556 S
O20 In13 2.326 . S
O20 C16 1.260 . S
O21 In13 2.266 . S
O21 C18 1.252 . S
O22 In13 2.326 1_556 S
O22 C18 1.260 1_556 S
C23 O14 1.240 . S
C23 O15 1.252 1_556 S
O24 In13 2.294 . S
O24 C17 1.240 . S
O25 In13 2.326 . S
O25 C17 1.252 . S
In26 O27 2.294 . S
In26 O28 2.326 . S
In26 O32 2.266 1_545 S
In26 O33 2.326 1_544 S
In26 O34 2.266 1_554 S
In26 O35 2.326 . S
In26 O37 2.294 1_554 S
In26 O38 2.326 1_545 S
O27 In26 2.294 . S
O27 C36 1.240 . S
O28 In26 2.326 . S
O28 C36 1.252 . S
C29 O32 1.252 . S
C29 O33 1.260 1_554 S
C30 O37 1.240 . S
C30 O38 1.252 1_546 S
C31 O34 1.252 1_554 S
C31 O35 1.260 . S
O32 In26 2.266 1_565 S
O32 C29 1.252 . S
O33 In26 2.326 1_566 S
O33 C29 1.260 1_556 S
O34 In26 2.266 1_556 S
O34 C31 1.252 1_556 S
O35 In26 2.326 . S
O35 C31 1.260 . S
C36 O27 1.240 . S
C36 O28 1.252 . S
O37 In26 2.294 1_556 S
O37 C30 1.240 . S
O38 In26 2.326 1_565 S
O38 C30 1.252 1_564 S
In39 O40 2.294 . S
In39 O41 2.326 . S
In39 O45 2.266 . S
In39 O46 2.326 . S
In39 O47 2.266 . S
In39 O48 2.326 . S
In39 O50 2.294 . S
In39 O51 2.326 . S
O40 In39 2.294 . S
O40 C49 1.240 . S
O41 In39 2.326 . S
O41 C49 1.252 . S
C42 O45 1.252 . S
C42 O46 1.260 . S
C43 O50 1.240 . S
C43 O51 1.252 . S
C44 O47 1.252 . S
C44 O48 1.260 . S
O45 In39 2.266 . S
O45 C42 1.252 . S
O46 In39 2.326 . S
O46 C42 1.260 . S
O47 In39 2.266 . S
O47 C44 1.252 . S
O48 In39 2.326 . S
O48 C44 1.260 . S
C49 O40 1.240 . S
C49 O41 1.252 . S
O50 In39 2.294 . S
O50 C43 1.240 . S
O51 In39 2.326 . S
O51 C43 1.252 . S
In52 O53 2.294 . S
In52 O54 2.326 . S
In52 O58 2.266 . S
In52 O59 2.326 . S
In52 O60 2.266 . S
In52 O61 2.326 . S
In52 O63 2.294 . S
In52 O64 2.326 . S
O53 In52 2.294 . S
O53 C62 1.240 . S
O54 In52 2.326 . S
O54 C62 1.252 . S
C55 O58 1.252 . S
C55 O59 1.260 . S
C56 O63 1.240 . S
C56 O64 1.252 . S
C57 O60 1.252 . S
C57 O61 1.260 . S
O58 In52 2.266 . S
O58 C55 1.252 . S
O59 In52 2.326 . S
O59 C55 1.260 . S
O60 In52 2.266 . S
O60 C57 1.252 . S
O61 In52 2.326 . S
O61 C57 1.260 . S
C62 O53 1.240 . S
C62 O54 1.252 . S
O63 In52 2.294 . S
O63 C56 1.240 . S
O64 In52 2.326 . S
O64 C56 1.252 . S
In65 O66 2.294 . S
In65 O67 2.326 . S
In65 O71 2.266 . S
In65 O72 2.326 . S
In65 O73 2.266 . S
In65 O74 2.326 . S
In65 O76 2.294 . S
In65 O77 2.326 . S
O66 In65 2.294 . S
O66 C75 1.240 . S
O67 In65 2.326 . S
O67 C75 1.252 . S
C68 O71 1.252 . S
C68 O72 1.260 . S
C69 O76 1.240 . S
C69 O77 1.252 . S
C70 O73 1.252 . S
C70 O74 1.260 . S
O71 In65 2.266 . S
O71 C68 1.252 . S
O72 In65 2.326 . S
O72 C68 1.260 . S
O73 In65 2.266 . S
O73 C70 1.252 . S
O74 In65 2.326 . S
O74 C70 1.260 . S
C75 O66 1.240 . S
C75 O67 1.252 . S
O76 In65 2.294 . S
O76 C69 1.240 . S
O77 In65 2.326 . S
O77 C69 1.252 . S
In78 O79 2.294 . S
In78 O80 2.326 . S
In78 O84 2.266 . S
In78 O85 2.326 . S
In78 O86 2.266 . S
In78 O87 2.326 . S
In78 O89 2.294 . S
In78 O90 2.326 . S
O79 In78 2.294 . S
O79 C88 1.240 . S
O80 In78 2.326 . S
O80 C88 1.252 . S
C81 O84 1.252 . S
C81 O85 1.260 . S
C82 O89 1.240 . S
C82 O90 1.252 . S
C83 O86 1.252 . S
C83 O87 1.260 . S
O84 In78 2.266 . S
O84 C81 1.252 . S
O85 In78 2.326 . S
O85 C81 1.260 . S
O86 In78 2.266 . S
O86 C83 1.252 . S
O87 In78 2.326 . S
O87 C83 1.260 . S
C88 O79 1.240 . S
C88 O80 1.252 . S
O89 In78 2.294 . S
O89 C82 1.240 . S
O90 In78 2.326 . S
O90 C82 1.252 . S
In91 O92 2.294 . S
In91 O93 2.326 . S
In91 O97 2.266 . S
In91 O98 2.326 . S
In91 O99 2.266 . S
In91 O100 2.326 . S
In91 O102 2.294 . S
In91 O103 2.326 . S
O92 In91 2.294 . S
O92 C101 1.240 . S
O93 In91 2.326 . S
O93 C101 1.252 . S
C94 O97 1.252 . S
C94 O98 1.260 . S
C95 O102 1.240 . S
C95 O103 1.252 . S
C96 O99 1.252 . S
C96 O100 1.260 . S
O97 In91 2.266 . S
O97 C94 1.252 . S
O98 In91 2.326 . S
O98 C94 1.260 . S
O99 In91 2.266 . S
O99 C96 1.252 . S
O100 In91 2.326 . S
O100 C96 1.260 . S
C101 O92 1.240 . S
C101 O93 1.252 . S
O102 In91 2.294 . S
O102 C95 1.240 . S
O103 In91 2.326 . S
O103 C95 1.252 . S
In104 O105 2.294 . S
In104 O106 2.326 . S
In104 O110 2.266 . S
In104 O111 2.326 . S
In104 O112 2.266 . S
In104 O113 2.326 . S
In104 O115 2.294 . S
In104 O116 2.326 . S
O105 In104 2.294 . S
O105 C114 1.240 . S
O106 In104 2.326 . S
O106 C114 1.252 . S
C107 O110 1.252 . S
C107 O111 1.260 . S
C108 O115 1.240 . S
C108 O116 1.252 . S
C109 O112 1.252 . S
C109 O113 1.260 . S
O110 In104 2.266 . S
O110 C107 1.252 . S
O111 In104 2.326 . S
O111 C107 1.260 . S
O112 In104 2.266 . S
O112 C109 1.252 . S
O113 In104 2.326 . S
O113 C109 1.260 . S
C114 O105 1.240 . S
C114 O106 1.252 . S
O115 In104 2.294 . S
O115 C108 1.240 . S
O116 In104 2.326 . S
O116 C108 1.252 . S
C117 C118 1.386 . S
C117 C119 1.383 . S
C117 H133 0.951 . S
C118 C117 1.386 . S
C118 C122 1.383 1_554 S
C119 C117 1.383 . S
C119 C120 1.402 . S
C119 H134 0.951 . S
C120 C119 1.402 . S
C120 C121 1.375 1_554 S
C120 C123 1.481 . S
C121 C120 1.375 1_556 S
C121 C122 1.367 . S
C121 H135 0.951 . S
C122 C118 1.383 1_556 S
C122 C121 1.367 . S
C122 H136 0.950 . S
C123 C120 1.481 . S
C123 C124 1.297 . S
C123 H137 0.950 1_554 S
C124 C123 1.297 . S
C124 C125 1.479 . S
C124 H138 0.950 . S
C125 C124 1.479 . S
C125 C126 1.375 . S
C125 C131 1.404 1_554 S
C126 C125 1.375 . S
C126 C127 1.369 . S
C126 H139 0.950 . S
C127 C126 1.369 . S
C127 C128 1.392 . S
C127 H140 0.951 . S
C128 C127 1.392 . S
C128 C130 1.384 1_554 S
H129 C131 0.949 . S
C130 C128 1.384 1_556 S
C130 C131 1.385 . S
C130 H132 0.950 . S
C131 C125 1.404 1_556 S
C131 H129 0.949 . S
C131 C130 1.385 . S
H132 C130 0.950 . S
H133 C117 0.951 . S
H134 C119 0.951 . S
H135 C121 0.951 . S
H136 C122 0.950 . S
H137 C123 0.950 1_556 S
H138 C124 0.950 . S
H139 C126 0.950 . S
H140 C127 0.951 . S
C141 C142 1.386 . S
C141 C143 1.383 . S
C141 H157 0.951 1_554 S
C142 C141 1.386 . S
C142 C146 1.383 . S
C143 C141 1.383 . S
C143 C144 1.402 . S
C143 H158 0.951 1_554 S
C144 C143 1.402 . S
C144 C145 1.375 . S
C144 C147 1.481 1_565 S
C145 C144 1.375 . S
C145 C146 1.367 . S
C145 H159 0.951 . S
C146 C142 1.383 . S
C146 C145 1.367 . S
C146 H160 0.950 . S
C147 C144 1.481 1_545 S
C147 C148 1.297 . S
C147 H161 0.950 . S
C148 C147 1.297 . S
C148 C149 1.479 . S
C148 H162 0.950 . S
C149 C148 1.479 . S
C149 C150 1.375 1_554 S
C149 C155 1.404 . S
C150 C149 1.375 1_556 S
C150 C151 1.369 . S
C150 H163 0.950 . S
C151 C150 1.369 . S
C151 C152 1.392 1_556 S
C151 H164 0.951 . S
C152 C151 1.392 1_554 S
C152 C154 1.384 . S
H153 C155 0.949 . S
C154 C152 1.384 . S
C154 C155 1.385 . S
C154 H156 0.950 . S
C155 C149 1.404 . S
C155 H153 0.949 . S
C155 C154 1.385 . S
H156 C154 0.950 . S
H157 C141 0.951 1_556 S
H158 C143 0.951 1_556 S
H159 C145 0.951 . S
H160 C146 0.950 . S
H161 C147 0.950 . S
H162 C148 0.950 . S
H163 C150 0.950 . S
H164 C151 0.951 . S
C165 C166 1.386 . S
C165 C167 1.383 . S
C165 H181 0.951 . S
C166 C165 1.386 . S
C166 C170 1.383 . S
C167 C165 1.383 . S
C167 C168 1.402 . S
C167 H182 0.951 . S
C168 C167 1.402 . S
C168 C169 1.375 . S
C168 C171 1.481 1_655 S
C169 C168 1.375 . S
C169 C170 1.367 . S
C169 H183 0.951 . S
C170 C166 1.383 . S
C170 C169 1.367 . S
C170 H184 0.950 . S
C171 C168 1.481 1_455 S
C171 C172 1.297 1_554 S
C171 H185 0.950 . S
C172 C171 1.297 1_556 S
C172 C173 1.479 1_556 S
C172 H186 0.950 . S
C173 C172 1.479 1_554 S
C173 C174 1.375 . S
C173 C179 1.404 . S
C174 C173 1.375 . S
C174 C175 1.369 . S
C174 H187 0.950 . S
C175 C174 1.369 . S
C175 C176 1.392 . S
C175 H188 0.951 . S
C176 C175 1.392 . S
C176 C178 1.384 . S
H177 C179 0.949 1_556 S
C178 C176 1.384 . S
C178 C179 1.385 . S
C178 H180 0.950 1_565 S
C179 C173 1.404 . S
C179 H177 0.949 1_554 S
C179 C178 1.385 . S
H180 C178 0.950 1_545 S
H181 C165 0.951 . S
H182 C167 0.951 . S
H183 C169 0.951 . S
H184 C170 0.950 . S
H185 C171 0.950 . S
H186 C172 0.950 . S
H187 C174 0.950 . S
H188 C175 0.951 . S
C189 C190 1.386 . S
C189 C191 1.383 . S
C189 H205 0.951 . S
C190 C189 1.386 . S
C190 C194 1.383 . S
C191 C189 1.383 . S
C191 C192 1.402 . S
C191 H206 0.951 . S
C192 C191 1.402 . S
C192 C193 1.375 . S
C192 C195 1.481 . S
C193 C192 1.375 . S
C193 C194 1.367 . S
C193 H207 0.951 . S
C194 C190 1.383 . S
C194 C193 1.367 . S
C194 H208 0.950 . S
C195 C192 1.481 . S
C195 C196 1.297 . S
C195 H209 0.950 . S
C196 C195 1.297 . S
C196 C197 1.479 . S
C196 H210 0.950 . S
C197 C196 1.479 . S
C197 C198 1.375 . S
C197 C203 1.404 . S
C198 C197 1.375 . S
C198 C199 1.369 . S
C198 H211 0.950 . S
C199 C198 1.369 . S
C199 C200 1.392 . S
C199 H212 0.951 . S
C200 C199 1.392 . S
C200 C202 1.384 . S
H201 C203 0.949 . S
C202 C200 1.384 . S
C202 C203 1.385 . S
C202 H204 0.950 . S
C203 C197 1.404 . S
C203 H201 0.949 . S
C203 C202 1.385 . S
H204 C202 0.950 . S
H205 C189 0.951 . S
H206 C191 0.951 . S
H207 C193 0.951 . S
H208 C194 0.950 . S
H209 C195 0.950 . S
H210 C196 0.950 . S
H211 C198 0.950 . S
H212 C199 0.951 . S
C213 C214 1.386 . S
C213 C215 1.383 . S
C213 H229 0.951 . S
C214 C213 1.386 . S
C214 C218 1.383 . S
C215 C213 1.383 . S
C215 C216 1.402 . S
C215 H230 0.951 . S
C216 C215 1.402 . S
C216 C217 1.375 . S
C216 C219 1.481 . S
C217 C216 1.375 . S
C217 C218 1.367 . S
C217 H231 0.951 . S
C218 C214 1.383 . S
C218 C217 1.367 . S
C218 H232 0.950 . S
C219 C216 1.481 . S
C219 C220 1.297 . S
C219 H233 0.950 . S
C220 C219 1.297 . S
C220 C221 1.479 . S
C220 H234 0.950 . S
C221 C220 1.479 . S
C221 C222 1.375 . S
C221 C227 1.404 . S
C222 C221 1.375 . S
C222 C223 1.369 . S
C222 H235 0.950 . S
C223 C222 1.369 . S
C223 C224 1.392 . S
C223 H236 0.951 . S
C224 C223 1.392 . S
C224 C226 1.384 . S
H225 C227 0.949 . S
C226 C224 1.384 . S
C226 C227 1.385 . S
C226 H228 0.950 . S
C227 C221 1.404 . S
C227 H225 0.949 . S
C227 C226 1.385 . S
H228 C226 0.950 . S
H229 C213 0.951 . S
H230 C215 0.951 . S
H231 C217 0.951 . S
H232 C218 0.950 . S
H233 C219 0.950 . S
H234 C220 0.950 . S
H235 C222 0.950 . S
H236 C223 0.951 . S
C237 C238 1.386 . S
C237 C239 1.383 . S
C237 H253 0.951 . S
C238 C237 1.386 . S
C238 C242 1.383 . S
C239 C237 1.383 . S
C239 C240 1.402 . S
C239 H254 0.951 . S
C240 C239 1.402 . S
C240 C241 1.375 . S
C240 C243 1.481 . S
C241 C240 1.375 . S
C241 C242 1.367 . S
C241 H255 0.951 . S
C242 C238 1.383 . S
C242 C241 1.367 . S
C242 H256 0.950 . S
C243 C240 1.481 . S
C243 C244 1.297 . S
C243 H257 0.950 . S
C244 C243 1.297 . S
C244 C245 1.479 . S
C244 H258 0.950 . S
C245 C244 1.479 . S
C245 C246 1.375 . S
C245 C251 1.404 . S
C246 C245 1.375 . S
C246 C247 1.369 . S
C246 H259 0.950 . S
C247 C246 1.369 . S
C247 C248 1.392 . S
C247 H260 0.951 . S
C248 C247 1.392 . S
C248 C250 1.384 . S
H249 C251 0.949 . S
C250 C248 1.384 . S
C250 C251 1.385 . S
C250 H252 0.950 . S
C251 C245 1.404 . S
C251 H249 0.949 . S
C251 C250 1.385 . S
H252 C250 0.950 . S
H253 C237 0.951 . S
H254 C239 0.951 . S
H255 C241 0.951 . S
H256 C242 0.950 . S
H257 C243 0.950 . S
H258 C244 0.950 . S
H259 C246 0.950 . S
H260 C247 0.951 . S
C261 C262 1.386 . S
C261 C263 1.383 . S
C261 H277 0.951 . S
C262 C261 1.386 . S
C262 C266 1.383 . S
C263 C261 1.383 . S
C263 C264 1.402 . S
C263 H278 0.951 . S
C264 C263 1.402 . S
C264 C265 1.375 . S
C264 C267 1.481 . S
C265 C264 1.375 . S
C265 C266 1.367 . S
C265 H279 0.951 . S
C266 C262 1.383 . S
C266 C265 1.367 . S
C266 H280 0.950 . S
C267 C264 1.481 . S
C267 C268 1.297 . S
C267 H281 0.950 . S
C268 C267 1.297 . S
C268 C269 1.479 . S
C268 H282 0.950 . S
C269 C268 1.479 . S
C269 C270 1.375 . S
C269 C275 1.404 . S
C270 C269 1.375 . S
C270 C271 1.369 . S
C270 H283 0.950 . S
C271 C270 1.369 . S
C271 C272 1.392 . S
C271 H284 0.951 . S
C272 C271 1.392 . S
C272 C274 1.384 . S
H273 C275 0.949 . S
C274 C272 1.384 . S
C274 C275 1.385 . S
C274 H276 0.950 . S
C275 C269 1.404 . S
C275 H273 0.949 . S
C275 C274 1.385 . S
H276 C274 0.950 . S
H277 C261 0.951 . S
H278 C263 0.951 . S
H279 C265 0.951 . S
H280 C266 0.950 . S
H281 C267 0.950 . S
H282 C268 0.950 . S
H283 C270 0.950 . S
H284 C271 0.951 . S
C285 C286 1.386 . S
C285 C287 1.383 . S
C285 H301 0.951 . S
C286 C285 1.386 . S
C286 C290 1.383 . S
C287 C285 1.383 . S
C287 C288 1.402 . S
C287 H302 0.951 . S
C288 C287 1.402 . S
C288 C289 1.375 . S
C288 C291 1.481 . S
C289 C288 1.375 . S
C289 C290 1.367 . S
C289 H303 0.951 . S
C290 C286 1.383 . S
C290 C289 1.367 . S
C290 H304 0.950 . S
C291 C288 1.481 . S
C291 C292 1.297 . S
C291 H305 0.950 . S
C292 C291 1.297 . S
C292 C293 1.479 . S
C292 H306 0.950 . S
C293 C292 1.479 . S
C293 C294 1.375 . S
C293 C299 1.404 . S
C294 C293 1.375 . S
C294 C295 1.369 . S
C294 H307 0.950 . S
C295 C294 1.369 . S
C295 C296 1.392 . S
C295 H308 0.951 . S
C296 C295 1.392 . S
C296 C298 1.384 . S
H297 C299 0.949 . S
C298 C296 1.384 . S
C298 C299 1.385 . S
C298 H300 0.950 . S
C299 C293 1.404 . S
C299 H297 0.949 . S
C299 C298 1.385 . S
H300 C298 0.950 . S
H301 C285 0.951 . S
H302 C287 0.951 . S
H303 C289 0.951 . S
H304 C290 0.950 . S
H305 C291 0.950 . S
H306 C292 0.950 . S
H307 C294 0.950 . S
H308 C295 0.951 . S
C309 C310 1.386 . S
C309 C311 1.383 . S
C309 H325 0.951 . S
C310 C309 1.386 . S
C310 C314 1.383 . S
C311 C309 1.383 . S
C311 C312 1.402 . S
C311 H326 0.951 . S
C312 C311 1.402 . S
C312 C313 1.375 . S
C312 C315 1.481 . S
C313 C312 1.375 . S
C313 C314 1.367 . S
C313 H327 0.951 . S
C314 C310 1.383 . S
C314 C313 1.367 . S
C314 H328 0.950 . S
C315 C312 1.481 . S
C315 C316 1.297 . S
C315 H329 0.950 . S
C316 C315 1.297 . S
C316 C317 1.479 . S
C316 H330 0.950 . S
C317 C316 1.479 . S
C317 C318 1.375 . S
C317 C323 1.404 . S
C318 C317 1.375 . S
C318 C319 1.369 . S
C318 H331 0.950 . S
C319 C318 1.369 . S
C319 C320 1.392 . S
C319 H332 0.951 . S
C320 C319 1.392 . S
C320 C322 1.384 . S
H321 C323 0.949 . S
C322 C320 1.384 . S
C322 C323 1.385 . S
C322 H324 0.950 . S
C323 C317 1.404 . S
C323 H321 0.949 . S
C323 C322 1.385 . S
H324 C322 0.950 . S
H325 C309 0.951 . S
H326 C311 0.951 . S
H327 C313 0.951 . S
H328 C314 0.950 . S
H329 C315 0.950 . S
H330 C316 0.950 . S
H331 C318 0.950 . S
H332 C319 0.951 . S
C333 C334 1.386 . S
C333 C335 1.383 . S
C333 H349 0.951 . S
C334 C333 1.386 . S
C334 C338 1.383 . S
C335 C333 1.383 . S
C335 C336 1.402 . S
C335 H350 0.951 . S
C336 C335 1.402 . S
C336 C337 1.375 . S
C336 C339 1.481 . S
C337 C336 1.375 . S
C337 C338 1.367 . S
C337 H351 0.951 . S
C338 C334 1.383 . S
C338 C337 1.367 . S
C338 H352 0.950 . S
C339 C336 1.481 . S
C339 C340 1.297 . S
C339 H353 0.950 . S
C340 C339 1.297 . S
C340 C341 1.479 . S
C340 H354 0.950 . S
C341 C340 1.479 . S
C341 C342 1.375 . S
C341 C347 1.404 . S
C342 C341 1.375 . S
C342 C343 1.369 . S
C342 H355 0.950 . S
C343 C342 1.369 . S
C343 C344 1.392 . S
C343 H356 0.951 . S
C344 C343 1.392 . S
C344 C346 1.384 . S
H345 C347 0.949 . S
C346 C344 1.384 . S
C346 C347 1.385 . S
C346 H348 0.950 . S
C347 C341 1.404 . S
C347 H345 0.949 . S
C347 C346 1.385 . S
H348 C346 0.950 . S
H349 C333 0.951 . S
H350 C335 0.951 . S
H351 C337 0.951 . S
H352 C338 0.950 . S
H353 C339 0.950 . S
H354 C340 0.950 . S
H355 C342 0.950 . S
H356 C343 0.951 . S
C357 C358 1.386 . S
C357 C359 1.383 . S
C357 H373 0.951 . S
C358 C357 1.386 . S
C358 C362 1.383 . S
C359 C357 1.383 . S
C359 C360 1.402 . S
C359 H374 0.951 . S
C360 C359 1.402 . S
C360 C361 1.375 . S
C360 C363 1.481 . S
C361 C360 1.375 . S
C361 C362 1.367 . S
C361 H375 0.951 . S
C362 C358 1.383 . S
C362 C361 1.367 . S
C362 H376 0.950 . S
C363 C360 1.481 . S
C363 C364 1.297 . S
C363 H377 0.950 . S
C364 C363 1.297 . S
C364 C365 1.479 . S
C364 H378 0.950 . S
C365 C364 1.479 . S
C365 C366 1.375 . S
C365 C371 1.404 . S
C366 C365 1.375 . S
C366 C367 1.369 . S
C366 H379 0.950 . S
C367 C366 1.369 . S
C367 C368 1.392 . S
C367 H380 0.951 . S
C368 C367 1.392 . S
C368 C370 1.384 . S
H369 C371 0.949 . S
C370 C368 1.384 . S
C370 C371 1.385 . S
C370 H372 0.950 . S
C371 C365 1.404 . S
C371 H369 0.949 . S
C371 C370 1.385 . S
H372 C370 0.950 . S
H373 C357 0.951 . S
H374 C359 0.951 . S
H375 C361 0.951 . S
H376 C362 0.950 . S
H377 C363 0.950 . S
H378 C364 0.950 . S
H379 C366 0.950 . S
H380 C367 0.951 . S
C381 C382 1.386 . S
C381 C383 1.383 . S
C381 H397 0.951 . S
C382 C381 1.386 . S
C382 C386 1.383 . S
C383 C381 1.383 . S
C383 C384 1.402 . S
C383 H398 0.951 . S
C384 C383 1.402 . S
C384 C385 1.375 . S
C384 C387 1.481 . S
C385 C384 1.375 . S
C385 C386 1.367 . S
C385 H399 0.951 . S
C386 C382 1.383 . S
C386 C385 1.367 . S
C386 H400 0.950 . S
C387 C384 1.481 . S
C387 C388 1.297 . S
C387 H401 0.950 . S
C388 C387 1.297 . S
C388 C389 1.479 . S
C388 H402 0.950 . S
C389 C388 1.479 . S
C389 C390 1.375 . S
C389 C395 1.404 . S
C390 C389 1.375 . S
C390 C391 1.369 . S
C390 H403 0.950 . S
C391 C390 1.369 . S
C391 C392 1.392 . S
C391 H404 0.951 1_565 S
C392 C391 1.392 . S
C392 C394 1.384 . S
H393 C395 0.949 . S
C394 C392 1.384 . S
C394 C395 1.385 . S
C394 H396 0.950 . S
C395 C389 1.404 . S
C395 H393 0.949 . S
C395 C394 1.385 . S
H396 C394 0.950 . S
H397 C381 0.951 . S
H398 C383 0.951 . S
H399 C385 0.951 . S
H400 C386 0.950 . S
H401 C387 0.950 . S
H402 C388 0.950 . S
H403 C390 0.950 . S
H404 C391 0.951 1_545 S
C405 C406 1.386 . S
C405 C407 1.383 . S
C405 H421 0.951 . S
C406 C405 1.386 . S
C406 C410 1.383 . S
C407 C405 1.383 . S
C407 C408 1.402 . S
C407 H422 0.951 . S
C408 C407 1.402 . S
C408 C409 1.375 . S
C408 C411 1.481 . S
C409 C408 1.375 . S
C409 C410 1.367 . S
C409 H423 0.951 . S
C410 C406 1.383 . S
C410 C409 1.367 . S
C410 H424 0.950 . S
C411 C408 1.481 . S
C411 C412 1.297 . S
C411 H425 0.950 . S
C412 C411 1.297 . S
C412 C413 1.479 . S
C412 H426 0.950 . S
C413 C412 1.479 . S
C413 C414 1.375 . S
C413 C419 1.404 . S
C414 C413 1.375 . S
C414 C415 1.369 . S
C414 H427 0.950 . S
C415 C414 1.369 . S
C415 C416 1.392 . S
C415 H428 0.951 . S
C416 C415 1.392 . S
C416 C418 1.384 . S
H417 C419 0.949 . S
C418 C416 1.384 . S
C418 C419 1.385 . S
C418 H420 0.950 . S
C419 C413 1.404 . S
C419 H417 0.949 . S
C419 C418 1.385 . S
H420 C418 0.950 . S
H421 C405 0.951 . S
H422 C407 0.951 . S
H423 C409 0.951 . S
H424 C410 0.950 . S
H425 C411 0.950 . S
H426 C412 0.950 . S
H427 C414 0.950 . S
H428 C415 0.951 . S
C429 C430 1.386 . S
C429 C431 1.383 . S
C429 H445 0.951 . S
C430 C429 1.386 . S
C430 C434 1.383 . S
C431 C429 1.383 . S
C431 C432 1.402 . S
C431 H446 0.951 . S
C432 C431 1.402 . S
C432 C433 1.375 . S
C432 C435 1.481 . S
C433 C432 1.375 . S
C433 C434 1.367 . S
C433 H447 0.951 . S
C434 C430 1.383 . S
C434 C433 1.367 . S
C434 H448 0.950 . S
C435 C432 1.481 . S
C435 C436 1.297 . S
C435 H449 0.950 . S
C436 C435 1.297 . S
C436 C437 1.479 . S
C436 H450 0.950 . S
C437 C436 1.479 . S
C437 C438 1.375 . S
C437 C443 1.404 . S
C438 C437 1.375 . S
C438 C439 1.369 . S
C438 H451 0.950 . S
C439 C438 1.369 . S
C439 C440 1.392 . S
C439 H452 0.951 . S
C440 C439 1.392 . S
C440 C442 1.384 . S
H441 C443 0.949 . S
C442 C440 1.384 . S
C442 C443 1.385 . S
C442 H444 0.950 . S
C443 C437 1.404 . S
C443 H441 0.949 . S
C443 C442 1.385 . S
H444 C442 0.950 . S
H445 C429 0.951 . S
H446 C431 0.951 . S
H447 C433 0.951 . S
H448 C434 0.950 . S
H449 C435 0.950 . S
H450 C436 0.950 . S
H451 C438 0.950 . S
H452 C439 0.951 . S
C453 C454 1.386 . S
C453 C455 1.383 . S
C453 H469 0.951 . S
C454 C453 1.386 . S
C454 C458 1.383 . S
C455 C453 1.383 . S
C455 C456 1.402 . S
C455 H470 0.951 . S
C456 C455 1.402 . S
C456 C457 1.375 . S
C456 C459 1.481 . S
C457 C456 1.375 . S
C457 C458 1.367 . S
C457 H471 0.951 . S
C458 C454 1.383 . S
C458 C457 1.367 . S
C458 H472 0.950 . S
C459 C456 1.481 . S
C459 C460 1.297 . S
C459 H473 0.950 . S
C460 C459 1.297 . S
C460 C461 1.479 . S
C460 H474 0.950 . S
C461 C460 1.479 . S
C461 C462 1.375 . S
C461 C467 1.404 . S
C462 C461 1.375 . S
C462 C463 1.369 . S
C462 H475 0.950 . S
C463 C462 1.369 . S
C463 C464 1.392 . S
C463 H476 0.951 . S
C464 C463 1.392 . S
C464 C466 1.384 . S
H465 C467 0.949 . S
C466 C464 1.384 . S
C466 C467 1.385 . S
C466 H468 0.950 . S
C467 C461 1.404 . S
C467 H465 0.949 . S
C467 C466 1.385 . S
H468 C466 0.950 . S
H469 C453 0.951 . S
H470 C455 0.951 . S
H471 C457 0.951 . S
H472 C458 0.950 . S
H473 C459 0.950 . S
H474 C460 0.950 . S
H475 C462 0.950 . S
H476 C463 0.951 . S
C477 C478 1.386 . S
C477 C479 1.383 . S
C477 H493 0.951 . S
C478 C477 1.386 . S
C478 C482 1.383 . S
C479 C477 1.383 . S
C479 C480 1.402 . S
C479 H494 0.951 . S
C480 C479 1.402 . S
C480 C481 1.375 . S
C480 C483 1.481 . S
C481 C480 1.375 . S
C481 C482 1.367 . S
C481 H495 0.951 . S
C482 C478 1.383 . S
C482 C481 1.367 . S
C482 H496 0.950 . S
C483 C480 1.481 . S
C483 C484 1.297 . S
C483 H497 0.950 . S
C484 C483 1.297 . S
C484 C485 1.479 1_455 S
C484 H498 0.950 . S
C485 C484 1.479 1_655 S
C485 C486 1.375 . S
C485 C491 1.404 . S
C486 C485 1.375 . S
C486 C487 1.369 . S
C486 H499 0.950 . S
C487 C486 1.369 . S
C487 C488 1.392 . S
C487 H500 0.951 . S
C488 C487 1.392 . S
C488 C490 1.384 . S
H489 C491 0.949 . S
C490 C488 1.384 . S
C490 C491 1.385 . S
C490 H492 0.950 . S
C491 C485 1.404 . S
C491 H489 0.949 . S
C491 C490 1.385 . S
H492 C490 0.950 . S
H493 C477 0.951 . S
H494 C479 0.951 . S
H495 C481 0.951 . S
H496 C482 0.950 . S
H497 C483 0.950 . S
H498 C484 0.950 . S
H499 C486 0.950 . S
H500 C487 0.951 . S
C501 C502 1.386 . S
C501 C503 1.383 . S
C501 H517 0.951 . S
C502 C501 1.386 . S
C502 C506 1.383 . S
C503 C501 1.383 . S
C503 C504 1.402 . S
C503 H518 0.951 . S
C504 C503 1.402 . S
C504 C505 1.375 . S
C504 C507 1.481 . S
C505 C504 1.375 . S
C505 C506 1.367 . S
C505 H519 0.951 . S
C506 C502 1.383 . S
C506 C505 1.367 . S
C506 H520 0.950 . S
C507 C504 1.481 . S
C507 C508 1.297 . S
C507 H521 0.950 . S
C508 C507 1.297 . S
C508 C509 1.479 . S
C508 H522 0.950 . S
C509 C508 1.479 . S
C509 C510 1.375 . S
C509 C515 1.404 . S
C510 C509 1.375 . S
C510 C511 1.369 . S
C510 H523 0.950 . S
C511 C510 1.369 . S
C511 C512 1.392 . S
C511 H524 0.951 . S
C512 C511 1.392 . S
C512 C514 1.384 . S
H513 C515 0.949 . S
C514 C512 1.384 . S
C514 C515 1.385 . S
C514 H516 0.950 . S
C515 C509 1.404 . S
C515 H513 0.949 . S
C515 C514 1.385 . S
H516 C514 0.950 . S
H517 C501 0.951 . S
H518 C503 0.951 . S
H519 C505 0.951 . S
H520 C506 0.950 . S
H521 C507 0.950 . S
H522 C508 0.950 . S
H523 C510 0.950 . S
H524 C511 0.951 . S
C525 C526 1.386 . S
C525 C527 1.383 . S
C525 H541 0.951 . S
C526 C525 1.386 . S
C526 C530 1.383 . S
C527 C525 1.383 . S
C527 C528 1.402 . S
C527 H542 0.951 . S
C528 C527 1.402 . S
C528 C529 1.375 . S
C528 C531 1.481 1_565 S
C529 C528 1.375 . S
C529 C530 1.367 . S
C529 H543 0.951 1_565 S
C530 C526 1.383 . S
C530 C529 1.367 . S
C530 H544 0.950 . S
C531 C528 1.481 1_545 S
C531 C532 1.297 . S
C531 H545 0.950 . S
C532 C531 1.297 . S
C532 C533 1.479 . S
C532 H546 0.950 . S
C533 C532 1.479 . S
C533 C534 1.375 . S
C533 C539 1.404 . S
C534 C533 1.375 . S
C534 C535 1.369 . S
C534 H547 0.950 . S
C535 C534 1.369 . S
C535 C536 1.392 . S
C535 H548 0.951 . S
C536 C535 1.392 . S
C536 C538 1.384 . S
H537 C539 0.949 . S
C538 C536 1.384 . S
C538 C539 1.385 . S
C538 H540 0.950 . S
C539 C533 1.404 . S
C539 H537 0.949 . S
C539 C538 1.385 . S
H540 C538 0.950 . S
H541 C525 0.951 . S
H542 C527 0.951 . S
H543 C529 0.951 1_545 S
H544 C530 0.950 . S
H545 C531 0.950 . S
H546 C532 0.950 . S
H547 C534 0.950 . S
H548 C535 0.951 . S
C118 C31 1.057 . S
C128 C5 1.069 . S
C142 C18 1.042 . S
C152 C3 1.044 . S
C166 C16 1.023 . S
C176 C29 1.012 . S
C190 C70 1.053 . S
C200 C44 1.064 . S
C214 C57 1.015 . S
C224 C42 0.997 . S
C238 C55 1.016 . S
C248 C68 1.000 . S
C262 C83 1.046 . S
C272 C109 1.051 . S
C286 C81 1.043 . S
C296 C96 1.045 . S
C310 C94 1.011 . S
C320 C107 0.992 . S
C334 C10 1.405 . S
C344 C95 1.388 . S
C358 C23 1.398 . S
C368 C114 1.401 . S
C382 C82 1.402 . S
C392 C30 1.395 1_565 S
C406 C62 1.401 . S
C416 C36 1.388 . S
C430 C4 1.401 . S
C440 C69 1.397 . S
C454 C49 1.405 . S
C464 C17 1.387 . S
C478 C101 1.403 . S
C488 C75 1.387 . S
C502 C43 1.398 . S
C512 C108 1.393 . S
C526 C88 1.397 . S
C536 C56 1.398 . S
