# Generated by pormake.
# Topology umm, (4)-cn, num edge types: 1
# Building blocks:
#     Node 0, Type 0, BuildingBlock: NAWXER_clean_sbu_0, # of connection points: 4
#     Node 1, Type 0, BuildingBlock: NAWXER_clean_sbu_0, # of connection points: 4
#     Node 2, Type 0, BuildingBlock: NAWXER_clean_sbu_0, # of connection points: 4
#     Node 3, Type 0, BuildingBlock: NAWXER_clean_sbu_0, # of connection points: 4
#     Node 4, Type 0, BuildingBlock: NAWXER_clean_sbu_0, # of connection points: 4
#     Node 5, Type 0, BuildingBlock: NAWXER_clean_sbu_0, # of connection points: 4
#     Node 6, Type 0, BuildingBlock: NAWXER_clean_sbu_0, # of connection points: 4
#     Node 7, Type 0, BuildingBlock: NAWXER_clean_sbu_0, # of connection points: 4
#     Node 8, Type 0, BuildingBlock: NAWXER_clean_sbu_0, # of connection points: 4
#     Node 9, Type 0, BuildingBlock: NAWXER_clean_sbu_0, # of connection points: 4
#     Node 10, Type 0, BuildingBlock: NAWXER_clean_sbu_0, # of connection points: 4
#     Node 11, Type 0, BuildingBlock: NAWXER_clean_sbu_0, # of connection points: 4
#     Edge 12, Type (0, 0), BuildingBlock: UVAHIK_clean_linker_0, # of connection points: 2
#     Edge 13, Type (0, 0), BuildingBlock: UVAHIK_clean_linker_0, # of connection points: 2
#     Edge 14, Type (0, 0), BuildingBlock: UVAHIK_clean_linker_0, # of connection points: 2
#     Edge 15, Type (0, 0), BuildingBlock: UVAHIK_clean_linker_0, # of connection points: 2
#     Edge 16, Type (0, 0), BuildingBlock: UVAHIK_clean_linker_0, # of connection points: 2
#     Edge 17, Type (0, 0), BuildingBlock: UVAHIK_clean_linker_0, # of connection points: 2
#     Edge 18, Type (0, 0), BuildingBlock: UVAHIK_clean_linker_0, # of connection points: 2
#     Edge 19, Type (0, 0), BuildingBlock: UVAHIK_clean_linker_0, # of connection points: 2
#     Edge 20, Type (0, 0), BuildingBlock: UVAHIK_clean_linker_0, # of connection points: 2
#     Edge 21, Type (0, 0), BuildingBlock: UVAHIK_clean_linker_0, # of connection points: 2
#     Edge 22, Type (0, 0), BuildingBlock: UVAHIK_clean_linker_0, # of connection points: 2
#     Edge 23, Type (0, 0), BuildingBlock: UVAHIK_clean_linker_0, # of connection points: 2
#     Edge 24, Type (0, 0), BuildingBlock: UVAHIK_clean_linker_0, # of connection points: 2
#     Edge 25, Type (0, 0), BuildingBlock: UVAHIK_clean_linker_0, # of connection points: 2
#     Edge 26, Type (0, 0), BuildingBlock: UVAHIK_clean_linker_0, # of connection points: 2
#     Edge 27, Type (0, 0), BuildingBlock: UVAHIK_clean_linker_0, # of connection points: 2
#     Edge 28, Type (0, 0), BuildingBlock: UVAHIK_clean_linker_0, # of connection points: 2
#     Edge 29, Type (0, 0), BuildingBlock: UVAHIK_clean_linker_0, # of connection points: 2
#     Edge 30, Type (0, 0), BuildingBlock: UVAHIK_clean_linker_0, # of connection points: 2
#     Edge 31, Type (0, 0), BuildingBlock: UVAHIK_clean_linker_0, # of connection points: 2
#     Edge 32, Type (0, 0), BuildingBlock: UVAHIK_clean_linker_0, # of connection points: 2
#     Edge 33, Type (0, 0), BuildingBlock: UVAHIK_clean_linker_0, # of connection points: 2
#     Edge 34, Type (0, 0), BuildingBlock: UVAHIK_clean_linker_0, # of connection points: 2
#     Edge 35, Type (0, 0), BuildingBlock: UVAHIK_clean_linker_0, # of connection points: 2
# Relax obj value: 0.044
# Max RMSD: 0.161
# Mean RMSD: 0.161
data_MOF--net-umm--node1-NAWXER_clean_sbu_0--edge1-UVAHIK_clean_linker_0
_symmetry_space_group_name_H-M    P1
_symmetry_Int_Tables_number       1
_symmetry_cell_setting            triclinic
loop_
_symmetry_equiv_pos_as_xyz
'x, y, z'
_cell_length_a     73.149926
_cell_length_b     73.220616
_cell_length_c     38.010413
_cell_angle_alpha  89.997308
_cell_angle_beta   90.028343
_cell_angle_gamma 119.96954
loop_
_atom_site_label
_atom_site_type_symbol
_atom_site_fract_x
_atom_site_fract_y
_atom_site_fract_z
_atom_type_partial_charge
C0 C 0.36187 0.55325 0.06337 0.0
C1 C 0.41895 0.53783 0.084 0.0
O2 O 0.38011 0.56994 0.06489 0.0
Zn3 Zn 0.4124 0.57782 0.07353 0.0
O4 O 0.3603 0.53535 0.0685 0.0
Zn5 Zn 0.39 0.5452 0.07533 0.0
O6 O 0.39675 0.56117 0.12519 0.0
O7 O 0.42048 0.59451 0.11569 0.0
O8 O 0.39927 0.52476 0.08217 0.0
O9 O 0.42548 0.55761 0.08132 0.0
O10 O 0.42565 0.5916 0.03016 0.0
O11 O 0.4025 0.55771 0.02408 0.0
C12 C 0.40874 0.57992 0.13688 0.0
C13 C 0.4159 0.57549 0.01053 0.0
C14 C 0.85739 0.40535 0.34982 0.0
C15 C 0.84883 0.39885 0.47686 0.0
O16 O 0.86223 0.39191 0.36193 0.0
Zn17 Zn 0.86274 0.37905 0.41368 0.0
O18 O 0.85133 0.41472 0.37088 0.0
Zn19 Zn 0.85311 0.4014 0.41292 0.0
O20 O 0.88693 0.41399 0.41794 0.0
O21 O 0.89184 0.38664 0.41826 0.0
O22 O 0.84557 0.41012 0.4553 0.0
O23 O 0.85511 0.38644 0.46517 0.0
O24 O 0.84304 0.34958 0.4076 0.0
O25 O 0.82807 0.36919 0.4042 0.0
C26 C 0.89945 0.40645 0.41948 0.0
C27 C 0.82666 0.35101 0.40253 0.0
C28 C 0.44353 0.83733 0.81867 0.0
C29 C 0.44768 0.85162 0.69347 0.0
O30 O 0.46269 0.84662 0.80778 0.0
Zn31 Zn 0.47887 0.85883 0.75859 0.0
O32 O 0.42875 0.83337 0.79711 0.0
Zn33 Zn 0.4458 0.84494 0.75599 0.0
O34 O 0.45789 0.82401 0.74555 0.0
O35 O 0.49256 0.84253 0.7503 0.0
O36 O 0.43137 0.84284 0.71285 0.0
O37 O 0.46599 0.85831 0.70714 0.0
O38 O 0.4964 0.88855 0.76757 0.0
O39 O 0.46252 0.87839 0.76561 0.0
C40 C 0.47594 0.82512 0.74384 0.0
C41 C 0.48177 0.89307 0.76936 0.0
C42 C 0.58029 0.43594 0.01418 0.0
C43 C 0.58939 0.43293 0.14028 0.0
O44 O 0.59317 0.45411 0.02716 0.0
Zn45 Zn 0.60566 0.46734 0.07833 0.0
O46 O 0.57123 0.42002 0.03435 0.0
Zn47 Zn 0.58449 0.43461 0.0771 0.0
O48 O 0.56989 0.45356 0.08477 0.0
O49 O 0.59529 0.48675 0.08535 0.0
O50 O 0.57773 0.41815 0.11935 0.0
O51 O 0.60054 0.45177 0.12842 0.0
O52 O 0.63546 0.47881 0.07048 0.0
O53 O 0.6172 0.4441 0.067 0.0
C54 C 0.57577 0.4732 0.08727 0.0
C55 C 0.6349 0.46141 0.0649 0.0
C56 C 0.15235 0.61202 0.48724 0.0
C57 C 0.13851 0.61176 0.36049 0.0
O58 O 0.14584 0.62314 0.47179 0.0
Zn59 Zn 0.14563 0.61342 0.42388 0.0
O60 O 0.15665 0.59992 0.46898 0.0
Zn61 Zn 0.15634 0.59092 0.41546 0.0
O62 O 0.18629 0.60213 0.40374 0.0
O63 O 0.17798 0.62689 0.41204 0.0
O64 O 0.14555 0.59962 0.36986 0.0
O65 O 0.1363 0.62327 0.3833 0.0
O66 O 0.12186 0.58099 0.42623 0.0
O67 O 0.13579 0.56071 0.417 0.0
C68 C 0.19174 0.62159 0.40451 0.0
C69 C 0.11967 0.56256 0.42319 0.0
C70 C 0.56775 0.16329 0.82187 0.0
C71 C 0.56501 0.15028 0.69596 0.0
O72 O 0.54879 0.15455 0.81007 0.0
Zn73 Zn 0.53329 0.14355 0.76004 0.0
O74 O 0.58283 0.16765 0.8008 0.0
Zn75 Zn 0.56638 0.15693 0.75861 0.0
O76 O 0.55503 0.17846 0.74736 0.0
O77 O 0.52032 0.16045 0.75168 0.0
O78 O 0.58112 0.15838 0.7159 0.0
O79 O 0.54668 0.14426 0.70902 0.0
O80 O 0.51508 0.11368 0.76773 0.0
O81 O 0.54889 0.12348 0.76758 0.0
C82 C 0.53713 0.17769 0.74525 0.0
C83 C 0.52953 0.10893 0.77032 0.0
C84 C 0.44376 0.59114 0.6354 0.0
C85 C 0.43926 0.60027 0.50988 0.0
O86 O 0.46203 0.60287 0.62171 0.0
Zn87 Zn 0.47481 0.61444 0.56979 0.0
O88 O 0.42747 0.58306 0.61591 0.0
Zn89 Zn 0.44178 0.59546 0.57275 0.0
O90 O 0.45829 0.57854 0.56332 0.0
O91 O 0.49222 0.60195 0.5615 0.0
O92 O 0.42459 0.58985 0.53176 0.0
O93 O 0.45849 0.61013 0.52053 0.0
O94 O 0.48873 0.64444 0.57721 0.0
O95 O 0.45413 0.62861 0.58316 0.0
C96 C 0.47748 0.58288 0.55976 0.0
C97 C 0.47228 0.64544 0.58435 0.0
C98 C 0.83766 0.43056 0.84921 0.0
C99 C 0.84725 0.43445 0.97621 0.0
O100 O 0.84431 0.44942 0.86025 0.0
Zn101 Zn 0.85171 0.46495 0.91106 0.0
O102 O 0.83358 0.41609 0.87137 0.0
Zn103 Zn 0.84156 0.43294 0.91335 0.0
O104 O 0.81693 0.44076 0.92232 0.0
O105 O 0.8324 0.47521 0.91657 0.0
O106 O 0.84026 0.41852 0.95607 0.0
O107 O 0.85213 0.45254 0.96321 0.0
O108 O 0.88059 0.48611 0.90543 0.0
O109 O 0.87555 0.4538 0.90728 0.0
C110 C 0.81592 0.45778 0.92301 0.0
C111 C 0.8881 0.4738 0.90473 0.0
C112 C 0.42616 0.87862 0.24325 0.0
C113 C 0.37094 0.80585 0.26624 0.0
O114 O 0.43333 0.86587 0.24619 0.0
Zn115 Zn 0.42119 0.83269 0.25482 0.0
O116 O 0.40639 0.87149 0.24531 0.0
Zn117 Zn 0.3982 0.84224 0.25326 0.0
O118 O 0.41195 0.8439 0.30386 0.0
O119 O 0.4348 0.8327 0.29825 0.0
O120 O 0.36884 0.8219 0.26153 0.0
O121 O 0.38935 0.80784 0.26406 0.0
O122 O 0.42923 0.82407 0.21258 0.0
O123 O 0.40471 0.83272 0.2036 0.0
C124 C 0.42557 0.83984 0.31748 0.0
C125 C 0.4169 0.82627 0.19172 0.0
C126 C 0.53584 0.35545 0.58633 0.0
C127 C 0.52681 0.41588 0.56243 0.0
O128 O 0.55351 0.37284 0.58575 0.0
Zn129 Zn 0.56425 0.40576 0.57616 0.0
O130 O 0.51893 0.35553 0.57899 0.0
Zn131 Zn 0.53138 0.38546 0.57227 0.0
O132 O 0.54825 0.39136 0.52334 0.0
O133 O 0.58189 0.41271 0.53528 0.0
O134 O 0.51273 0.39652 0.56376 0.0
O135 O 0.54625 0.42117 0.56647 0.0
O136 O 0.57772 0.41836 0.61997 0.0
O137 O 0.54327 0.39723 0.62439 0.0
C138 C 0.56747 0.40217 0.513 0.0
C139 C 0.56116 0.40959 0.63879 0.0
C140 C 0.16384 0.59644 0.86445 0.0
C141 C 0.15346 0.5968 0.99102 0.0
O142 O 0.15632 0.57786 0.87743 0.0
Zn143 Zn 0.1482 0.56395 0.92949 0.0
O144 O 0.16875 0.61185 0.88501 0.0
Zn145 Zn 0.15999 0.59628 0.92847 0.0
O146 O 0.18354 0.58705 0.93959 0.0
O147 O 0.16613 0.5524 0.93734 0.0
O148 O 0.16143 0.61217 0.96965 0.0
O149 O 0.14801 0.5782 0.9798 0.0
O150 O 0.11911 0.54362 0.92386 0.0
O151 O 0.12581 0.57651 0.92135 0.0
C152 C 0.18331 0.56943 0.94221 0.0
C153 C 0.11253 0.5566 0.92025 0.0
C154 C 0.58527 0.14233 0.3209 0.0
C155 C 0.59134 0.15476 0.19479 0.0
O156 O 0.59782 0.13698 0.30665 0.0
Zn157 Zn 0.60903 0.13635 0.25414 0.0
O158 O 0.57585 0.14931 0.30178 0.0
Zn159 Zn 0.58816 0.14806 0.25799 0.0
O160 O 0.57318 0.11447 0.24955 0.0
O161 O 0.59862 0.10675 0.24638 0.0
O162 O 0.58044 0.15805 0.21714 0.0
O163 O 0.60267 0.14689 0.20501 0.0
O164 O 0.63895 0.15424 0.25995 0.0
O165 O 0.62121 0.17108 0.26651 0.0
C166 C 0.57907 0.10076 0.24571 0.0
C167 C 0.63881 0.17116 0.26678 0.0
C168 C 0.39366 0.56948 0.19735 0.0
C169 C 0.40953 0.5841 0.17504 0.0
C170 C 0.39513 0.57255 0.23372 0.0
C171 C 0.42438 0.61237 0.30373 0.0
H172 H 0.40734 0.56253 0.36083 0.0
C173 C 0.44995 0.61409 0.44857 0.0
C174 C 0.43433 0.60033 0.47217 0.0
C175 C 0.44558 0.61329 0.41262 0.0
C176 C 0.41193 0.57656 0.34527 0.0
H177 H 0.43916 0.61365 0.17324 0.0
H178 H 0.44211 0.6187 0.23676 0.0
H179 H 0.4022 0.55895 0.29747 0.0
H180 H 0.40173 0.57527 0.47666 0.0
H181 H 0.39423 0.57374 0.41382 0.0
H182 H 0.43484 0.62997 0.35182 0.0
C183 C 0.42825 0.60509 0.22622 0.0
C184 C 0.40892 0.57453 0.30892 0.0
C185 C 0.42663 0.60215 0.18977 0.0
C186 C 0.41413 0.58607 0.45917 0.0
C187 C 0.40984 0.58511 0.4232 0.0
C188 C 0.42762 0.61441 0.34012 0.0
C189 C 0.41266 0.59016 0.24871 0.0
C190 C 0.41515 0.59241 0.28762 0.0
C191 C 0.42558 0.59857 0.39955 0.0
C192 C 0.42147 0.59652 0.36119 0.0
H193 H 0.38016 0.55552 0.18675 0.0
H194 H 0.38257 0.56098 0.25011 0.0
H195 H 0.42907 0.62645 0.28827 0.0
H196 H 0.46565 0.6253 0.45778 0.0
H197 H 0.45805 0.62373 0.39491 0.0
C198 C 0.84618 0.38615 0.53921 0.0
C199 C 0.84598 0.40061 0.51513 0.0
C200 C 0.84381 0.38822 0.57534 0.0
C201 C 0.82659 0.41547 0.63938 0.0
H202 H 0.85865 0.40234 0.70569 0.0
C203 C 0.83827 0.44109 0.78604 0.0
C204 C 0.83609 0.42593 0.81095 0.0
C205 C 0.83808 0.43708 0.74996 0.0
C206 C 0.84945 0.40589 0.6875 0.0
H207 H 0.8433 0.42871 0.51024 0.0
H208 H 0.83986 0.43269 0.57288 0.0
H209 H 0.86117 0.39708 0.64296 0.0
H210 H 0.83172 0.39453 0.81735 0.0
H211 H 0.83161 0.38769 0.75451 0.0
H212 H 0.8154 0.42487 0.68412 0.0
C213 C 0.84123 0.41937 0.56404 0.0
C214 C 0.85081 0.4028 0.65149 0.0
C215 C 0.84336 0.41717 0.528 0.0
C216 C 0.83342 0.40656 0.79892 0.0
C217 C 0.83348 0.40267 0.76291 0.0
C218 C 0.82543 0.4188 0.67537 0.0
C219 C 0.84141 0.40494 0.58829 0.0
C220 C 0.83945 0.40761 0.62685 0.0
C221 C 0.83597 0.41793 0.73803 0.0
C222 C 0.83687 0.41408 0.69982 0.0
H223 H 0.84807 0.37316 0.53016 0.0
H224 H 0.84371 0.37659 0.59305 0.0
H225 H 0.81725 0.41897 0.62141 0.0
H226 H 0.84037 0.45616 0.79439 0.0
H227 H 0.84015 0.4492 0.73141 0.0
C228 C 0.41858 0.8256 0.86969 0.0
C229 C 0.4388 0.83196 0.85629 0.0
C230 C 0.41449 0.82183 0.90563 0.0
C231 C 0.43343 0.81027 0.98767 0.0
H232 H 0.40717 0.839 0.03228 0.0
C233 C 0.43438 0.82203 0.13816 0.0
C234 C 0.41715 0.82243 0.15363 0.0
C235 C 0.43545 0.82045 0.10165 0.0
C236 C 0.41413 0.83049 0.02028 0.0
H237 H 0.47036 0.8386 0.86988 0.0
H238 H 0.46312 0.83188 0.93266 0.0
H239 H 0.41164 0.84084 0.96879 0.0
H240 H 0.38696 0.82025 0.1433 0.0
H241 H 0.38846 0.81679 0.07988 0.0
H242 H 0.4359 0.79987 0.03917 0.0
C243 C 0.45048 0.82983 0.91531 0.0
C244 C 0.41675 0.83162 0.98385 0.0
C245 C 0.45464 0.83381 0.87941 0.0
C246 C 0.40059 0.82027 0.13208 0.0
C247 C 0.40151 0.81841 0.09569 0.0
C248 C 0.43062 0.80894 0.02415 0.0
C249 C 0.43046 0.82412 0.92882 0.0
C250 C 0.4266 0.82171 0.96722 0.0
C251 C 0.41918 0.81898 0.07991 0.0
C252 C 0.42112 0.81922 0.04095 0.0
H253 H 0.40602 0.82399 0.85256 0.0
H254 H 0.39887 0.81726 0.91535 0.0
H255 H 0.44091 0.80232 0.97542 0.0
H256 H 0.44742 0.82375 0.15411 0.0
H257 H 0.4494 0.82118 0.09043 0.0
C258 C 0.57408 0.40964 0.19301 0.0
C259 C 0.58975 0.42865 0.17823 0.0
C260 C 0.57377 0.40607 0.22918 0.0
C261 C 0.59372 0.43495 0.31336 0.0
H262 H 0.57334 0.3788 0.35093 0.0
C263 C 0.59213 0.41917 0.4623 0.0
C264 C 0.57253 0.40334 0.4751 0.0
C265 C 0.59613 0.42152 0.42614 0.0
C266 C 0.57905 0.39455 0.34075 0.0
H267 H 0.61787 0.4585 0.18959 0.0
H268 H 0.61776 0.45203 0.25245 0.0
H269 H 0.57724 0.38445 0.28742 0.0
H270 H 0.54209 0.37702 0.46012 0.0
H271 H 0.54921 0.381 0.39702 0.0
H272 H 0.59562 0.445 0.36678 0.0
C273 C 0.6053 0.4401 0.23634 0.0
C274 C 0.5812 0.3978 0.30438 0.0
C275 C 0.60545 0.44377 0.20024 0.0
C276 C 0.55733 0.38941 0.45109 0.0
C277 C 0.56144 0.39161 0.41497 0.0
C278 C 0.59181 0.43173 0.34969 0.0
C279 C 0.58929 0.42133 0.25139 0.0
C280 C 0.58829 0.41801 0.29017 0.0
C281 C 0.58072 0.40793 0.40212 0.0
C282 C 0.58421 0.41146 0.36373 0.0
H283 H 0.56169 0.39771 0.17678 0.0
H284 H 0.561 0.39158 0.2398 0.0
H285 H 0.59886 0.45065 0.30348 0.0
H286 H 0.60417 0.43016 0.48011 0.0
H287 H 0.6112 0.43413 0.41692 0.0
C288 C 0.15357 0.62744 0.54728 0.0
C289 C 0.15431 0.61205 0.52614 0.0
C290 C 0.15525 0.62689 0.58403 0.0
C291 C 0.14628 0.59019 0.65657 0.0
H292 H 0.18542 0.63955 0.70988 0.0
C293 C 0.16237 0.5833 0.8029 0.0
C294 C 0.16518 0.59959 0.82574 0.0
C295 C 0.16191 0.58567 0.76643 0.0
C296 C 0.17418 0.62565 0.69554 0.0
H297 H 0.15733 0.58401 0.52719 0.0
H298 H 0.15994 0.58298 0.5908 0.0
H299 H 0.18209 0.64235 0.64639 0.0
H300 H 0.17004 0.63131 0.82802 0.0
H301 H 0.16866 0.63523 0.76464 0.0
H302 H 0.13793 0.57349 0.70535 0.0
C303 C 0.1581 0.59546 0.57909 0.0
C304 C 0.17232 0.6273 0.65912 0.0
C305 C 0.15673 0.59616 0.54255 0.0
C306 C 0.16797 0.61848 0.81119 0.0
C307 C 0.16726 0.62076 0.77472 0.0
C308 C 0.14794 0.58859 0.69294 0.0
C309 C 0.15733 0.61075 0.60029 0.0
C310 C 0.15852 0.60951 0.63921 0.0
C311 C 0.16396 0.60428 0.7518 0.0
C312 C 0.16208 0.60623 0.71296 0.0
H313 H 0.15175 0.6399 0.53546 0.0
H314 H 0.15453 0.63885 0.59977 0.0
H315 H 0.13528 0.57627 0.64199 0.0
H316 H 0.16032 0.5686 0.81321 0.0
H317 H 0.15986 0.5728 0.74972 0.0
C318 C 0.60495 0.15906 0.13305 0.0
C319 C 0.59044 0.15928 0.15707 0.0
C320 C 0.60347 0.16238 0.09718 0.0
C321 C 0.56497 0.15577 0.03035 0.0
H322 H 0.61368 0.19264 0.97359 0.0
C323 C 0.55606 0.16609 0.88252 0.0
C324 C 0.57173 0.16696 0.86009 0.0
C325 C 0.55909 0.16777 0.91893 0.0
C326 C 0.59994 0.1821 0.98895 0.0
H327 H 0.56322 0.16346 0.16232 0.0
H328 H 0.5605 0.16892 0.09959 0.0
H329 H 0.61773 0.19043 0.03697 0.0
H330 H 0.60306 0.17074 0.85819 0.0
H331 H 0.60808 0.17296 0.92166 0.0
H332 H 0.54726 0.14671 0.98258 0.0
C333 C 0.57301 0.16623 0.10861 0.0
C334 C 0.60228 0.18091 0.02527 0.0
C335 C 0.57464 0.16319 0.14451 0.0
C336 C 0.59072 0.17012 0.87477 0.0
C337 C 0.59364 0.1715 0.91123 0.0
C338 C 0.56267 0.15673 0.99404 0.0
C339 C 0.58731 0.1657 0.08456 0.0
C340 C 0.58483 0.16768 0.04628 0.0
C341 C 0.57773 0.17004 0.93385 0.0
C342 C 0.58013 0.16984 0.97278 0.0
H343 H 0.61734 0.15616 0.1419 0.0
H344 H 0.61461 0.16173 0.07918 0.0
H345 H 0.5513 0.1452 0.04585 0.0
H346 H 0.54133 0.16388 0.87197 0.0
H347 H 0.54668 0.16708 0.93539 0.0
C348 C 0.32355 0.5369 0.04679 0.0
C349 C 0.34313 0.55498 0.05364 0.0
C350 C 0.30639 0.53875 0.03509 0.0
C351 C 0.28586 0.57584 0.0301 0.0
H352 H 0.25208 0.53976 0.95352 0.0
C353 C 0.22153 0.58708 0.96049 0.0
C354 C 0.2025 0.56863 0.95249 0.0
C355 C 0.23913 0.58592 0.97206 0.0
C356 C 0.2612 0.54983 0.97516 0.0
H357 H 0.35981 0.5892 0.05435 0.0
H358 H 0.32995 0.59237 0.03401 0.0
H359 H 0.28125 0.53632 0.97679 0.0
H360 H 0.18719 0.53449 0.95003 0.0
H361 H 0.21757 0.53249 0.97044 0.0
H362 H 0.26571 0.58926 0.02864 0.0
C363 C 0.32781 0.57676 0.03783 0.0
C364 C 0.27792 0.54782 0.98854 0.0
C365 C 0.34497 0.57492 0.04935 0.0
C366 C 0.20159 0.54906 0.95582 0.0
C367 C 0.21911 0.5479 0.96737 0.0
C368 C 0.26907 0.57781 0.01678 0.0
C369 C 0.30837 0.55871 0.03015 0.0
C370 C 0.29043 0.56075 0.01624 0.0
C371 C 0.23808 0.56628 0.97585 0.0
C372 C 0.25647 0.56477 0.98922 0.0
H373 H 0.32157 0.5213 0.04983 0.0
H374 H 0.29155 0.52452 0.02988 0.0
H375 H 0.29504 0.58591 0.05169 0.0
H376 H 0.22279 0.60241 0.9582 0.0
H377 H 0.25358 0.60041 0.97795 0.0
C378 C 0.80565 0.31275 0.38632 0.0
C379 C 0.80656 0.33217 0.39194 0.0
C380 C 0.78734 0.29546 0.3731 0.0
C381 C 0.73005 0.27375 0.36093 0.0
H382 H 0.73674 0.24135 0.28645 0.0
C383 C 0.65844 0.2092 0.28495 0.0
C384 C 0.65851 0.19041 0.27753 0.0
C385 C 0.67657 0.22686 0.29784 0.0
C386 C 0.73457 0.25006 0.30748 0.0
H387 H 0.78862 0.34842 0.38902 0.0
H388 H 0.75663 0.3182 0.36605 0.0
H389 H 0.76784 0.27095 0.31265 0.0
H390 H 0.67787 0.17564 0.27729 0.0
H391 H 0.70934 0.20628 0.30014 0.0
H392 H 0.6968 0.25275 0.35605 0.0
C393 C 0.7701 0.31635 0.37198 0.0
C394 C 0.75242 0.26704 0.32252 0.0
C395 C 0.78847 0.33369 0.38506 0.0
C396 C 0.67727 0.18987 0.28255 0.0
C397 C 0.69538 0.2075 0.29556 0.0
C398 C 0.71219 0.2567 0.346 0.0
C399 C 0.76944 0.29714 0.36532 0.0
C400 C 0.75038 0.27906 0.34947 0.0
C401 C 0.6952 0.22616 0.30374 0.0
C402 C 0.71421 0.24461 0.31911 0.0
H403 H 0.81926 0.31098 0.39139 0.0
H404 H 0.78723 0.28078 0.36881 0.0
H405 H 0.72796 0.28255 0.38191 0.0
H406 H 0.64429 0.2102 0.28127 0.0
H407 H 0.67596 0.24106 0.30324 0.0
C408 C 0.4586 0.78734 0.72546 0.0
C409 C 0.4772 0.80654 0.7318 0.0
C410 C 0.45945 0.77026 0.71106 0.0
C411 C 0.49322 0.75745 0.65698 0.0
H412 H 0.45416 0.70039 0.68739 0.0
C413 C 0.4938 0.68328 0.60333 0.0
C414 C 0.47399 0.66532 0.5973 0.0
C415 C 0.49526 0.70116 0.61944 0.0
C416 C 0.46503 0.71622 0.67836 0.0
H417 H 0.51137 0.82268 0.72878 0.0
H418 H 0.51285 0.79266 0.70384 0.0
H419 H 0.45517 0.73001 0.71829 0.0
H420 H 0.44016 0.65243 0.60204 0.0
H421 H 0.44273 0.68358 0.62966 0.0
H422 H 0.50298 0.74354 0.61688 0.0
C423 C 0.49759 0.79096 0.70969 0.0
C424 C 0.46564 0.7332 0.69613 0.0
C425 C 0.49674 0.80809 0.72423 0.0
C426 C 0.45569 0.66592 0.60648 0.0
C427 C 0.45715 0.68373 0.62258 0.0
C428 C 0.49263 0.74043 0.63921 0.0
C429 C 0.47893 0.77192 0.7026 0.0
C430 C 0.47953 0.75401 0.68537 0.0
C431 C 0.47694 0.70139 0.62991 0.0
C432 C 0.47831 0.71961 0.64941 0.0
H433 H 0.44326 0.78558 0.7309 0.0
H434 H 0.44476 0.75593 0.70554 0.0
H435 H 0.50393 0.77328 0.64777 0.0
H436 H 0.50821 0.68333 0.59663 0.0
H437 H 0.51074 0.7145 0.62483 0.0
C438 C 0.67278 0.47984 0.0454 0.0
C439 C 0.6541 0.46104 0.05346 0.0
C440 C 0.69023 0.47929 0.03154 0.0
C441 C 0.71405 0.44532 0.02165 0.0
H442 H 0.7429 0.48174 0.94234 0.0
C443 C 0.77822 0.43842 0.94362 0.0
C444 C 0.79628 0.45741 0.93403 0.0
C445 C 0.76041 0.43846 0.95704 0.0
C446 C 0.73519 0.47162 0.9647 0.0
H447 H 0.63938 0.42693 0.05422 0.0
H448 H 0.66979 0.42602 0.03019 0.0
H449 H 0.71349 0.48304 0.96985 0.0
H450 H 0.80955 0.49129 0.93034 0.0
H451 H 0.77874 0.49137 0.95402 0.0
H452 H 0.73585 0.43402 0.01674 0.0
C453 C 0.67098 0.44119 0.03467 0.0
C454 C 0.71832 0.47239 0.9805 0.0
C455 C 0.65351 0.44172 0.04833 0.0
C456 C 0.7959 0.47635 0.93733 0.0
C457 C 0.77815 0.47639 0.9508 0.0
C458 C 0.73098 0.44461 0.00594 0.0
C459 C 0.68944 0.45994 0.02563 0.0
C460 C 0.70757 0.45928 0.0092 0.0
C461 C 0.76025 0.45749 0.96123 0.0
C462 C 0.7418 0.45777 0.97728 0.0
H463 H 0.6738 0.49499 0.04903 0.0
H464 H 0.70433 0.49404 0.02532 0.0
H465 H 0.70625 0.43517 0.04395 0.0
H466 H 0.77795 0.42354 0.94138 0.0
H467 H 0.74678 0.42356 0.96427 0.0
C468 C 0.21834 0.65963 0.39857 0.0
C469 C 0.213 0.63849 0.39357 0.0
C470 C 0.23638 0.67598 0.38328 0.0
C471 C 0.28832 0.69396 0.34849 0.0
H472 H 0.27614 0.73025 0.29059 0.0
C473 C 0.3544 0.76692 0.27638 0.0
C474 C 0.35262 0.78519 0.27602 0.0
C475 C 0.3376 0.74763 0.28772 0.0
C476 C 0.27991 0.72046 0.30692 0.0
H477 H 0.22334 0.61811 0.37046 0.0
H478 H 0.25557 0.64715 0.34412 0.0
H479 H 0.24732 0.69905 0.31784 0.0
H480 H 0.33171 0.79744 0.2871 0.0
H481 H 0.30265 0.76407 0.3077 0.0
H482 H 0.32099 0.71586 0.339 0.0
C483 C 0.24537 0.65077 0.35966 0.0
C484 C 0.26336 0.70249 0.32228 0.0
C485 C 0.22702 0.63421 0.3748 0.0
C486 C 0.33355 0.78366 0.28677 0.0
C487 C 0.31682 0.76443 0.29844 0.0
C488 C 0.30498 0.71216 0.33345 0.0
C489 C 0.24976 0.67172 0.36288 0.0
C490 C 0.26741 0.68928 0.3437 0.0
C491 C 0.31864 0.74615 0.29927 0.0
C492 C 0.301 0.72587 0.31298 0.0
H493 H 0.20811 0.66361 0.41324 0.0
H494 H 0.23963 0.69203 0.38668 0.0
H495 H 0.29181 0.68405 0.36507 0.0
H496 H 0.36886 0.76753 0.26808 0.0
H497 H 0.33949 0.73388 0.28741 0.0
C498 C 0.51667 0.19489 0.72479 0.0
C499 C 0.53615 0.19627 0.73226 0.0
C500 C 0.51593 0.21176 0.70891 0.0
C501 C 0.5484 0.25856 0.65384 0.0
H502 H 0.50761 0.27513 0.68056 0.0
C503 C 0.55394 0.33598 0.60664 0.0
C504 C 0.53515 0.33586 0.59838 0.0
C505 C 0.55337 0.3182 0.62125 0.0
C506 C 0.5189 0.2705 0.67246 0.0
H507 H 0.57013 0.21682 0.73024 0.0
H508 H 0.56881 0.24625 0.70315 0.0
H509 H 0.508 0.24603 0.71122 0.0
H510 H 0.501 0.3167 0.59811 0.0
H511 H 0.50003 0.28556 0.62335 0.0
H512 H 0.55939 0.28306 0.61525 0.0
C513 C 0.5541 0.23198 0.70885 0.0
C514 C 0.51915 0.25385 0.69009 0.0
C515 C 0.55484 0.21515 0.72467 0.0
C516 C 0.51577 0.31733 0.60417 0.0
C517 C 0.5152 0.29954 0.61891 0.0
C518 C 0.54815 0.27518 0.63626 0.0
C519 C 0.53466 0.23036 0.70017 0.0
C520 C 0.53403 0.2478 0.68118 0.0
C521 C 0.534 0.29987 0.62801 0.0
C522 C 0.53351 0.28146 0.64552 0.0
H523 H 0.50197 0.18055 0.73021 0.0
H524 H 0.50069 0.20994 0.70241 0.0
H525 H 0.55977 0.25401 0.64579 0.0
H526 H 0.56915 0.34999 0.60262 0.0
H527 H 0.56814 0.31907 0.62828 0.0
C528 C 0.42829 0.50908 0.08838 0.0
C529 C 0.43455 0.53063 0.08807 0.0
C530 C 0.44337 0.50264 0.09053 0.0
C531 C 0.49995 0.52211 0.07329 0.0
H532 H 0.49121 0.47451 0.13028 0.0
C533 C 0.56573 0.50131 0.09262 0.0
C534 C 0.55973 0.47986 0.09094 0.0
C535 C 0.55045 0.50747 0.09426 0.0
C536 C 0.49382 0.48773 0.11397 0.0
H537 H 0.46162 0.56228 0.09074 0.0
H538 H 0.4877 0.55108 0.0948 0.0
H539 H 0.46432 0.48498 0.12916 0.0
H540 H 0.5329 0.44804 0.09032 0.0
H541 H 0.50636 0.45878 0.09281 0.0
H542 H 0.52931 0.52482 0.05785 0.0
C543 C 0.4712 0.53913 0.09277 0.0
C544 C 0.47838 0.49371 0.11332 0.0
C545 C 0.45618 0.54554 0.09065 0.0
C546 C 0.53811 0.46472 0.09163 0.0
C547 C 0.52285 0.47087 0.09326 0.0
C548 C 0.51534 0.51613 0.07391 0.0
C549 C 0.46504 0.51762 0.09234 0.0
C550 C 0.48128 0.51102 0.09301 0.0
C551 C 0.52881 0.49233 0.09426 0.0
C552 C 0.5125 0.49887 0.09427 0.0
H553 H 0.41177 0.49719 0.0864 0.0
H554 H 0.4381 0.48595 0.08988 0.0
H555 H 0.50254 0.53527 0.05684 0.0
H556 H 0.58223 0.51339 0.09229 0.0
H557 H 0.55561 0.52413 0.09555 0.0
C558 C 0.93096 0.44269 0.42408 0.0
C559 C 0.9226 0.42081 0.42132 0.0
C560 C 0.95275 0.45637 0.42409 0.0
C561 C 0.00431 0.45921 0.43763 0.0
H562 H 0.02488 0.51167 0.38647 0.0
C563 C 0.09373 0.52342 0.41811 0.0
C564 C 0.09804 0.54406 0.42518 0.0
C565 C 0.0728 0.50662 0.41737 0.0
C566 C 0.01937 0.49709 0.4009 0.0
H567 H 0.93069 0.39613 0.41707 0.0
H568 H 0.9688 0.4201 0.41667 0.0
H569 H 0.98741 0.48582 0.38558 0.0
H570 H 0.0837 0.56298 0.43853 0.0
H571 H 0.04773 0.53404 0.43701 0.0
H572 H 0.03657 0.47079 0.45289 0.0
C573 C 0.95846 0.42664 0.41917 0.0
C574 C 0.99788 0.48232 0.40057 0.0
C575 C 0.9366 0.41291 0.41925 0.0
C576 C 0.08108 0.54739 0.43258 0.0
C577 C 0.06037 0.53079 0.43159 0.0
C578 C 0.02595 0.47404 0.4378 0.0
C579 C 0.96679 0.44856 0.42116 0.0
C580 C 0.98997 0.46341 0.4196 0.0
C581 C 0.05593 0.51031 0.42334 0.0
C582 C 0.03358 0.49333 0.4201 0.0
H583 H 0.92066 0.44932 0.42598 0.0
H584 H 0.95861 0.47314 0.42645 0.0
H585 H 0.99873 0.44482 0.45263 0.0
H586 H 0.10644 0.52032 0.41238 0.0
H587 H 0.06976 0.49093 0.41103 0.0
C588 C 0.50326 0.07019 0.77506 0.0
C589 C 0.52431 0.08676 0.77513 0.0
C590 C 0.49863 0.04923 0.77755 0.0
C591 C 0.52266 0.01615 0.76111 0.0
H592 H 0.47585 0.97445 0.81643 0.0
C593 C 0.5078 0.93156 0.7775 0.0
C594 C 0.48678 0.91516 0.77435 0.0
C595 C 0.51248 0.9525 0.78029 0.0
C596 C 0.48888 0.98589 0.80064 0.0
H597 H 0.55697 0.09431 0.77902 0.0
H598 H 0.54888 0.05791 0.78371 0.0
H599 H 0.48362 0.01101 0.81628 0.0
H600 H 0.45417 0.90791 0.77238 0.0
H601 H 0.46236 0.94439 0.77685 0.0
H602 H 0.52783 0.9911 0.74513 0.0
C603 C 0.53595 0.06105 0.78111 0.0
C604 C 0.49331 0.00682 0.80054 0.0
C605 C 0.54057 0.08194 0.77861 0.0
C606 C 0.47054 0.92014 0.7748 0.0
C607 C 0.47522 0.94107 0.77757 0.0
C608 C 0.51823 0.99527 0.76118 0.0
C609 C 0.51496 0.04442 0.78014 0.0
C610 C 0.51025 0.02219 0.78074 0.0
C611 C 0.49626 0.95752 0.77997 0.0
C612 C 0.50127 0.97986 0.78089 0.0
H613 H 0.49037 0.07337 0.77239 0.0
H614 H 0.48229 0.03677 0.77646 0.0
H615 H 0.53559 0.02752 0.74505 0.0
H616 H 0.52068 0.92827 0.77741 0.0
H617 H 0.52884 0.96478 0.78263 0.0
C618 C 0.46571 0.54457 0.55289 0.0
C619 C 0.48222 0.5656 0.55499 0.0
C620 C 0.47002 0.52807 0.55031 0.0
C621 C 0.51197 0.51577 0.52824 0.0
H622 H 0.47889 0.46648 0.58639 0.0
C623 C 0.53682 0.45376 0.55588 0.0
C624 C 0.52102 0.43241 0.55736 0.0
C625 C 0.53153 0.46955 0.55267 0.0
C626 C 0.48807 0.47997 0.56957 0.0
H627 H 0.51625 0.58577 0.55533 0.0
H628 H 0.52378 0.55691 0.55115 0.0
H629 H 0.47087 0.495 0.58612 0.0
H630 H 0.48722 0.41091 0.55589 0.0
H631 H 0.47797 0.43854 0.55002 0.0
H632 H 0.52933 0.5008 0.51203 0.0
C633 C 0.50748 0.55322 0.55114 0.0
C634 C 0.48348 0.49634 0.56944 0.0
C635 C 0.50317 0.56976 0.55371 0.0
C636 C 0.49978 0.4272 0.55494 0.0
C637 C 0.49447 0.44304 0.55178 0.0
C638 C 0.51656 0.49938 0.52838 0.0
C639 C 0.49094 0.53216 0.5498 0.0
C640 C 0.49546 0.5145 0.54894 0.0
C641 C 0.5103 0.46441 0.55087 0.0
C642 C 0.50476 0.48135 0.54925 0.0
H643 H 0.44938 0.54079 0.5536 0.0
H644 H 0.45692 0.51206 0.54876 0.0
H645 H 0.52129 0.52939 0.51176 0.0
H646 H 0.55335 0.45836 0.5577 0.0
H647 H 0.5441 0.48585 0.55252 0.0
C648 C 0.07533 0.52694 0.91439 0.0
C649 C 0.0897 0.54873 0.91532 0.0
C650 C 0.05373 0.51936 0.91057 0.0
C651 C 0.01333 0.53474 0.92354 0.0
H652 H 0.97889 0.48562 0.86578 0.0
C653 C 0.92488 0.50446 0.89997 0.0
C654 C 0.91121 0.48256 0.9022 0.0
C655 C 0.94673 0.51288 0.89923 0.0
C656 C 0.98827 0.49924 0.88224 0.0
H657 H 0.09264 0.57967 0.91247 0.0
H658 H 0.05488 0.56642 0.90551 0.0
H659 H 0.01698 0.49992 0.8685 0.0
H660 H 0.90982 0.45229 0.90483 0.0
H661 H 0.94799 0.467 0.90382 0.0
H662 H 0.98463 0.53397 0.93751 0.0
C663 C 0.06034 0.5552 0.90817 0.0
C664 C 0.01009 0.50744 0.8838 0.0
C665 C 0.08198 0.56279 0.91198 0.0
C666 C 0.91989 0.46923 0.90305 0.0
C667 C 0.94177 0.47766 0.90229 0.0
C668 C 0.99152 0.52655 0.92196 0.0
C669 C 0.04595 0.53339 0.90756 0.0
C670 C 0.02287 0.52521 0.90466 0.0
C671 C 0.95545 0.4996 0.9007 0.0
C672 C 0.97872 0.50863 0.90146 0.0
H673 H 0.08071 0.51564 0.91696 0.0
H674 H 0.04307 0.50248 0.91071 0.0
H675 H 0.02266 0.54823 0.94029 0.0
H676 H 0.91874 0.51519 0.8991 0.0
H677 H 0.95681 0.52982 0.89747 0.0
C678 C 0.43424 0.91631 0.24006 0.0
C679 C 0.44116 0.90152 0.23907 0.0
C680 C 0.4488 0.93796 0.23845 0.0
C681 C 0.50514 0.97586 0.25541 0.0
H682 H 0.4946 0.01493 0.20246 0.0
C683 C 0.56936 0.0629 0.23814 0.0
C684 C 0.56312 0.07811 0.2417 0.0
C685 C 0.55429 0.04146 0.23598 0.0
C686 C 0.49769 0.00424 0.21764 0.0
H687 H 0.46878 0.89793 0.23434 0.0
H688 H 0.49396 0.93546 0.23112 0.0
H689 H 0.46845 0.97734 0.20199 0.0
H690 H 0.53606 0.08268 0.24515 0.0
H691 H 0.50981 0.04531 0.24171 0.0
H692 H 0.53426 0.00265 0.27126 0.0
C693 C 0.47736 0.93042 0.23385 0.0
C694 C 0.4827 0.9827 0.21738 0.0
C695 C 0.46287 0.90885 0.23548 0.0
C696 C 0.54144 0.0714 0.24239 0.0
C697 C 0.52636 0.04996 0.24022 0.0
C698 C 0.52009 0.99734 0.25567 0.0
C699 C 0.47057 0.94527 0.23583 0.0
C700 C 0.48629 0.96824 0.23616 0.0
C701 C 0.5326 0.0347 0.23734 0.0
C702 C 0.51661 0.01181 0.23672 0.0
H703 H 0.41763 0.91119 0.24285 0.0
H704 H 0.44304 0.94898 0.24027 0.0
H705 H 0.50824 0.96525 0.27077 0.0
H706 H 0.58592 0.0675 0.23734 0.0
H707 H 0.55965 0.03017 0.23321 0.0
C708 C 0.42274 0.57242 0.68884 0.0
C709 C 0.44168 0.58808 0.67389 0.0
C710 C 0.42046 0.57039 0.72535 0.0
C711 C 0.45098 0.58668 0.80912 0.0
H712 H 0.39682 0.57341 0.84851 0.0
C713 C 0.43708 0.59459 0.95727 0.0
C714 C 0.41951 0.57703 0.97217 0.0
C715 C 0.44029 0.59579 0.92087 0.0
C716 C 0.41199 0.57701 0.83782 0.0
H717 H 0.47316 0.61379 0.68541 0.0
H718 H 0.469 0.6107 0.74894 0.0
H719 H 0.40149 0.57547 0.78493 0.0
H720 H 0.3915 0.54705 0.96068 0.0
H721 H 0.39699 0.54935 0.89726 0.0
H722 H 0.46151 0.58874 0.86238 0.0
C723 C 0.45605 0.59961 0.73262 0.0
C724 C 0.41465 0.57807 0.8014 0.0
C725 C 0.45841 0.60146 0.69614 0.0
C726 C 0.40521 0.56077 0.95002 0.0
C727 C 0.40827 0.56211 0.91371 0.0
C728 C 0.44837 0.58588 0.8456 0.0
C729 C 0.43699 0.58417 0.74771 0.0
C730 C 0.43416 0.58283 0.78655 0.0
C731 C 0.42582 0.57961 0.8988 0.0
C732 C 0.42882 0.58095 0.86024 0.0
H733 H 0.40963 0.56177 0.67235 0.0
H734 H 0.40572 0.55803 0.73602 0.0
H735 H 0.46612 0.59007 0.79864 0.0
H736 H 0.44838 0.60733 0.9737 0.0
H737 H 0.45389 0.6095 0.90992 0.0
C738 C 0.86892 0.40294 0.28863 0.0
C739 C 0.85825 0.40949 0.31155 0.0
C740 C 0.8693 0.40655 0.2524 0.0
C741 C 0.85748 0.40467 0.1755 0.0
H742 H 0.85698 0.45419 0.14077 0.0
C743 C 0.83957 0.41211 0.0301 0.0
C744 C 0.84969 0.43214 0.01435 0.0
C745 C 0.84165 0.40987 0.06617 0.0
C746 C 0.85741 0.44039 0.14986 0.0
H747 H 0.83945 0.42482 0.31438 0.0
H748 H 0.83945 0.43043 0.2514 0.0
H749 H 0.85982 0.45002 0.20353 0.0
H750 H 0.87025 0.46553 0.02398 0.0
H751 H 0.87451 0.46162 0.08662 0.0
H752 H 0.85592 0.39546 0.12174 0.0
C753 C 0.84811 0.42308 0.26127 0.0
C754 C 0.85869 0.43782 0.18606 0.0
C755 C 0.84799 0.41974 0.29748 0.0
C756 C 0.86211 0.44989 0.0354 0.0
C757 C 0.86444 0.44763 0.07141 0.0
C758 C 0.85647 0.40737 0.13927 0.0
C759 C 0.85877 0.41655 0.23817 0.0
C760 C 0.85849 0.4198 0.19944 0.0
C761 C 0.85415 0.42759 0.08736 0.0
C762 C 0.85617 0.42516 0.12593 0.0
H763 H 0.8771 0.39513 0.29869 0.0
H764 H 0.87799 0.40161 0.23561 0.0
H765 H 0.85704 0.39046 0.18468 0.0
H766 H 0.82976 0.39813 0.01466 0.0
H767 H 0.83312 0.39423 0.07747 0.0
C768 C 0.46362 0.86547 0.63446 0.0
C769 C 0.44567 0.85305 0.65507 0.0
C770 C 0.46207 0.86562 0.59788 0.0
C771 C 0.42351 0.8512 0.52498 0.0
H772 H 0.46824 0.85134 0.47004 0.0
C773 C 0.4239 0.85584 0.37435 0.0
C774 C 0.43001 0.84326 0.35551 0.0
C775 C 0.42691 0.85832 0.41061 0.0
C776 C 0.45553 0.85111 0.48498 0.0
H777 H 0.41193 0.83128 0.65358 0.0
H778 H 0.40927 0.83112 0.58974 0.0
H779 H 0.47075 0.85292 0.53391 0.0
H780 H 0.4444 0.82367 0.35972 0.0
H781 H 0.44915 0.8275 0.42341 0.0
H782 H 0.40783 0.84843 0.47623 0.0
C783 C 0.42451 0.8411 0.6018 0.0
C784 C 0.45711 0.85234 0.52162 0.0
C785 C 0.42604 0.84112 0.63842 0.0
C786 C 0.4396 0.83352 0.37357 0.0
C787 C 0.4424 0.83581 0.41003 0.0
C788 C 0.42184 0.84978 0.48841 0.0
C789 C 0.44255 0.85318 0.58107 0.0
C790 C 0.4411 0.85237 0.54207 0.0
C791 C 0.43587 0.84806 0.42902 0.0
C792 C 0.43783 0.84974 0.46794 0.0
H793 H 0.47896 0.87497 0.64656 0.0
H794 H 0.4762 0.87544 0.58278 0.0
H795 H 0.411 0.85143 0.53985 0.0
H796 H 0.4167 0.86377 0.36108 0.0
H797 H 0.42217 0.86827 0.42422 0.0
C798 C 0.54541 0.39937 0.69882 0.0
C799 C 0.56239 0.41301 0.67721 0.0
C800 C 0.54665 0.40208 0.73525 0.0
C801 C 0.57269 0.44101 0.80464 0.0
H802 H 0.55913 0.39276 0.86392 0.0
C803 C 0.59072 0.44972 0.95307 0.0
C804 C 0.57682 0.43361 0.97577 0.0
C805 C 0.58817 0.44732 0.91668 0.0
C806 C 0.56261 0.40633 0.84785 0.0
H807 H 0.59384 0.44039 0.67676 0.0
H808 H 0.59584 0.44531 0.74062 0.0
H809 H 0.55612 0.3885 0.80022 0.0
H810 H 0.549 0.40254 0.97821 0.0
H811 H 0.54407 0.3986 0.91464 0.0
H812 H 0.57877 0.45881 0.85206 0.0
C813 C 0.58164 0.43249 0.72921 0.0
C814 C 0.56099 0.40388 0.81136 0.0
C815 C 0.58053 0.42961 0.69275 0.0
C816 C 0.56005 0.41518 0.96135 0.0
C817 C 0.55733 0.41288 0.9249 0.0
C818 C 0.57404 0.44341 0.84116 0.0
C819 C 0.56477 0.41864 0.75077 0.0
C820 C 0.56615 0.42122 0.78943 0.0
C821 C 0.57147 0.42885 0.90208 0.0
C822 C 0.56918 0.42613 0.86325 0.0
H823 H 0.53123 0.38639 0.68765 0.0
H824 H 0.53337 0.39128 0.7513 0.0
H825 H 0.5765 0.45456 0.78827 0.0
H826 H 0.60392 0.46405 0.96335 0.0
H827 H 0.59961 0.45979 0.90002 0.0
C828 C 0.15585 0.62047 0.04089 0.0
C829 C 0.14994 0.60017 0.02835 0.0
C830 C 0.15212 0.62354 0.07594 0.0
C831 C 0.11973 0.59485 0.1536 0.0
H832 H 0.16377 0.64096 0.20709 0.0
C833 C 0.12613 0.59342 0.30329 0.0
C834 C 0.13366 0.61209 0.32286 0.0
C835 C 0.1249 0.59369 0.26674 0.0
C836 C 0.15112 0.62827 0.19237 0.0
H837 H 0.13553 0.56721 0.04299 0.0
H838 H 0.12927 0.57258 0.10402 0.0
H839 H 0.16863 0.63805 0.1442 0.0
H840 H 0.14505 0.64559 0.31971 0.0
H841 H 0.14308 0.64616 0.2551 0.0
H842 H 0.10252 0.5847 0.20195 0.0
C843 C 0.1365 0.58611 0.08667 0.0
C844 C 0.15394 0.62655 0.15631 0.0
C845 C 0.14026 0.58305 0.0517 0.0
C846 C 0.13902 0.63096 0.30522 0.0
C847 C 0.13808 0.63129 0.26831 0.0
C848 C 0.11694 0.59657 0.18957 0.0
C849 C 0.14232 0.60638 0.09924 0.0
C850 C 0.1385 0.6095 0.13669 0.0
C851 C 0.1314 0.61269 0.24867 0.0
C852 C 0.13283 0.61297 0.20959 0.0
H853 H 0.16329 0.63402 0.02361 0.0
H854 H 0.15667 0.63933 0.08467 0.0
H855 H 0.10731 0.58181 0.13912 0.0
H856 H 0.1219 0.57864 0.31624 0.0
H857 H 0.11992 0.57912 0.25253 0.0
C858 C 0.58579 0.14999 0.6437 0.0
C859 C 0.56719 0.14814 0.65776 0.0
C860 C 0.58768 0.14804 0.60746 0.0
C861 C 0.55566 0.12898 0.52534 0.0
H862 H 0.60943 0.16492 0.47997 0.0
C863 C 0.56584 0.14258 0.37499 0.0
C864 C 0.58251 0.14113 0.35949 0.0
C865 C 0.56374 0.14216 0.41157 0.0
C866 C 0.59437 0.15467 0.49238 0.0
H867 H 0.5361 0.14309 0.64488 0.0
H868 H 0.53965 0.14043 0.58187 0.0
H869 H 0.60637 0.16684 0.54356 0.0
H870 H 0.61 0.13806 0.37013 0.0
H871 H 0.60647 0.13768 0.43405 0.0
H872 H 0.54359 0.11738 0.47376 0.0
C873 C 0.55257 0.14272 0.59871 0.0
C874 C 0.59261 0.15568 0.52883 0.0
C875 C 0.55058 0.14439 0.6349 0.0
C876 C 0.59695 0.13914 0.38128 0.0
C877 C 0.59502 0.13904 0.41784 0.0
C878 C 0.55737 0.12819 0.48885 0.0
C879 C 0.57112 0.14447 0.58448 0.0
C880 C 0.57321 0.1429 0.54579 0.0
C881 C 0.57844 0.14061 0.43331 0.0
C882 C 0.57672 0.14107 0.47204 0.0
H883 H 0.59882 0.15275 0.6607 0.0
H884 H 0.60208 0.14915 0.59754 0.0
H885 H 0.54057 0.11858 0.5375 0.0
H886 H 0.55445 0.1441 0.35888 0.0
H887 H 0.55089 0.14353 0.42289 0.0
loop_
_geom_bond_atom_site_label_1
_geom_bond_atom_site_label_2
_geom_bond_distance
_geom_bond_site_symmetry_2
_ccdc_geom_bond_type
C0 O2 1.247 . S
C0 O4 1.258 . S
C1 O8 1.247 . S
C1 O9 1.258 . S
O2 C0 1.247 . S
O2 Zn3 2.028 . S
Zn3 O2 2.028 . S
Zn3 O7 2.035 . S
Zn3 O9 2.035 . S
Zn3 O10 2.028 . S
O4 C0 1.258 . S
O4 Zn5 2.035 . S
Zn5 O4 2.035 . S
Zn5 O6 2.028 . S
Zn5 O8 2.028 . S
Zn5 O11 2.035 . S
O6 Zn5 2.028 . S
O6 C12 1.247 . S
O7 Zn3 2.035 . S
O7 C12 1.258 . S
O8 C1 1.247 . S
O8 Zn5 2.028 . S
O9 C1 1.258 . S
O9 Zn3 2.035 . S
O10 Zn3 2.028 . S
O10 C13 1.247 . S
O11 Zn5 2.035 . S
O11 C13 1.258 . S
C12 O6 1.247 . S
C12 O7 1.258 . S
C13 O10 1.247 . S
C13 O11 1.258 . S
C14 O16 1.247 . S
C14 O18 1.258 . S
C15 O22 1.247 . S
C15 O23 1.258 . S
O16 C14 1.247 . S
O16 Zn17 2.028 . S
Zn17 O16 2.028 . S
Zn17 O21 2.035 . S
Zn17 O23 2.035 . S
Zn17 O24 2.028 . S
O18 C14 1.258 . S
O18 Zn19 2.035 . S
Zn19 O18 2.035 . S
Zn19 O20 2.028 . S
Zn19 O22 2.028 . S
Zn19 O25 2.035 . S
O20 Zn19 2.028 . S
O20 C26 1.247 . S
O21 Zn17 2.035 . S
O21 C26 1.258 . S
O22 C15 1.247 . S
O22 Zn19 2.028 . S
O23 C15 1.258 . S
O23 Zn17 2.035 . S
O24 Zn17 2.028 . S
O24 C27 1.247 . S
O25 Zn19 2.035 . S
O25 C27 1.258 . S
C26 O20 1.247 . S
C26 O21 1.258 . S
C27 O24 1.247 . S
C27 O25 1.258 . S
C28 O30 1.247 . S
C28 O32 1.258 . S
C29 O36 1.247 . S
C29 O37 1.258 . S
O30 C28 1.247 . S
O30 Zn31 2.028 . S
Zn31 O30 2.028 . S
Zn31 O35 2.035 . S
Zn31 O37 2.035 . S
Zn31 O38 2.028 . S
O32 C28 1.258 . S
O32 Zn33 2.035 . S
Zn33 O32 2.035 . S
Zn33 O34 2.028 . S
Zn33 O36 2.028 . S
Zn33 O39 2.035 . S
O34 Zn33 2.028 . S
O34 C40 1.247 . S
O35 Zn31 2.035 . S
O35 C40 1.258 . S
O36 C29 1.247 . S
O36 Zn33 2.028 . S
O37 C29 1.258 . S
O37 Zn31 2.035 . S
O38 Zn31 2.028 . S
O38 C41 1.247 . S
O39 Zn33 2.035 . S
O39 C41 1.258 . S
C40 O34 1.247 . S
C40 O35 1.258 . S
C41 O38 1.247 . S
C41 O39 1.258 . S
C42 O44 1.247 . S
C42 O46 1.258 . S
C43 O50 1.247 . S
C43 O51 1.258 . S
O44 C42 1.247 . S
O44 Zn45 2.028 . S
Zn45 O44 2.028 . S
Zn45 O49 2.035 . S
Zn45 O51 2.035 . S
Zn45 O52 2.028 . S
O46 C42 1.258 . S
O46 Zn47 2.035 . S
Zn47 O46 2.035 . S
Zn47 O48 2.028 . S
Zn47 O50 2.028 . S
Zn47 O53 2.035 . S
O48 Zn47 2.028 . S
O48 C54 1.247 . S
O49 Zn45 2.035 . S
O49 C54 1.258 . S
O50 C43 1.247 . S
O50 Zn47 2.028 . S
O51 C43 1.258 . S
O51 Zn45 2.035 . S
O52 Zn45 2.028 . S
O52 C55 1.247 . S
O53 Zn47 2.035 . S
O53 C55 1.258 . S
C54 O48 1.247 . S
C54 O49 1.258 . S
C55 O52 1.247 . S
C55 O53 1.258 . S
C56 O58 1.247 . S
C56 O60 1.258 . S
C57 O64 1.247 . S
C57 O65 1.258 . S
O58 C56 1.247 . S
O58 Zn59 2.028 . S
Zn59 O58 2.028 . S
Zn59 O63 2.035 . S
Zn59 O65 2.035 . S
Zn59 O66 2.028 . S
O60 C56 1.258 . S
O60 Zn61 2.035 . S
Zn61 O60 2.035 . S
Zn61 O62 2.028 . S
Zn61 O64 2.028 . S
Zn61 O67 2.035 . S
O62 Zn61 2.028 . S
O62 C68 1.247 . S
O63 Zn59 2.035 . S
O63 C68 1.258 . S
O64 C57 1.247 . S
O64 Zn61 2.028 . S
O65 C57 1.258 . S
O65 Zn59 2.035 . S
O66 Zn59 2.028 . S
O66 C69 1.247 . S
O67 Zn61 2.035 . S
O67 C69 1.258 . S
C68 O62 1.247 . S
C68 O63 1.258 . S
C69 O66 1.247 . S
C69 O67 1.258 . S
C70 O72 1.247 . S
C70 O74 1.258 . S
C71 O78 1.247 . S
C71 O79 1.258 . S
O72 C70 1.247 . S
O72 Zn73 2.028 . S
Zn73 O72 2.028 . S
Zn73 O77 2.035 . S
Zn73 O79 2.035 . S
Zn73 O80 2.028 . S
O74 C70 1.258 . S
O74 Zn75 2.035 . S
Zn75 O74 2.035 . S
Zn75 O76 2.028 . S
Zn75 O78 2.028 . S
Zn75 O81 2.035 . S
O76 Zn75 2.028 . S
O76 C82 1.247 . S
O77 Zn73 2.035 . S
O77 C82 1.258 . S
O78 C71 1.247 . S
O78 Zn75 2.028 . S
O79 C71 1.258 . S
O79 Zn73 2.035 . S
O80 Zn73 2.028 . S
O80 C83 1.247 . S
O81 Zn75 2.035 . S
O81 C83 1.258 . S
C82 O76 1.247 . S
C82 O77 1.258 . S
C83 O80 1.247 . S
C83 O81 1.258 . S
C84 O86 1.247 . S
C84 O88 1.258 . S
C85 O92 1.247 . S
C85 O93 1.258 . S
O86 C84 1.247 . S
O86 Zn87 2.028 . S
Zn87 O86 2.028 . S
Zn87 O91 2.035 . S
Zn87 O93 2.035 . S
Zn87 O94 2.028 . S
O88 C84 1.258 . S
O88 Zn89 2.035 . S
Zn89 O88 2.035 . S
Zn89 O90 2.028 . S
Zn89 O92 2.028 . S
Zn89 O95 2.035 . S
O90 Zn89 2.028 . S
O90 C96 1.247 . S
O91 Zn87 2.035 . S
O91 C96 1.258 . S
O92 C85 1.247 . S
O92 Zn89 2.028 . S
O93 C85 1.258 . S
O93 Zn87 2.035 . S
O94 Zn87 2.028 . S
O94 C97 1.247 . S
O95 Zn89 2.035 . S
O95 C97 1.258 . S
C96 O90 1.247 . S
C96 O91 1.258 . S
C97 O94 1.247 . S
C97 O95 1.258 . S
C98 O100 1.247 . S
C98 O102 1.258 . S
C99 O106 1.247 . S
C99 O107 1.258 . S
O100 C98 1.247 . S
O100 Zn101 2.028 . S
Zn101 O100 2.028 . S
Zn101 O105 2.035 . S
Zn101 O107 2.035 . S
Zn101 O108 2.028 . S
O102 C98 1.258 . S
O102 Zn103 2.035 . S
Zn103 O102 2.035 . S
Zn103 O104 2.028 . S
Zn103 O106 2.028 . S
Zn103 O109 2.035 . S
O104 Zn103 2.028 . S
O104 C110 1.247 . S
O105 Zn101 2.035 . S
O105 C110 1.258 . S
O106 C99 1.247 . S
O106 Zn103 2.028 . S
O107 C99 1.258 . S
O107 Zn101 2.035 . S
O108 Zn101 2.028 . S
O108 C111 1.247 . S
O109 Zn103 2.035 . S
O109 C111 1.258 . S
C110 O104 1.247 . S
C110 O105 1.258 . S
C111 O108 1.247 . S
C111 O109 1.258 . S
C112 O114 1.247 . S
C112 O116 1.258 . S
C113 O120 1.247 . S
C113 O121 1.258 . S
O114 C112 1.247 . S
O114 Zn115 2.028 . S
Zn115 O114 2.028 . S
Zn115 O119 2.035 . S
Zn115 O121 2.035 . S
Zn115 O122 2.028 . S
O116 C112 1.258 . S
O116 Zn117 2.035 . S
Zn117 O116 2.035 . S
Zn117 O118 2.028 . S
Zn117 O120 2.028 . S
Zn117 O123 2.035 . S
O118 Zn117 2.028 . S
O118 C124 1.247 . S
O119 Zn115 2.035 . S
O119 C124 1.258 . S
O120 C113 1.247 . S
O120 Zn117 2.028 . S
O121 C113 1.258 . S
O121 Zn115 2.035 . S
O122 Zn115 2.028 . S
O122 C125 1.247 . S
O123 Zn117 2.035 . S
O123 C125 1.258 . S
C124 O118 1.247 . S
C124 O119 1.258 . S
C125 O122 1.247 . S
C125 O123 1.258 . S
C126 O128 1.247 . S
C126 O130 1.258 . S
C127 O134 1.247 . S
C127 O135 1.258 . S
O128 C126 1.247 . S
O128 Zn129 2.028 . S
Zn129 O128 2.028 . S
Zn129 O133 2.035 . S
Zn129 O135 2.035 . S
Zn129 O136 2.028 . S
O130 C126 1.258 . S
O130 Zn131 2.035 . S
Zn131 O130 2.035 . S
Zn131 O132 2.028 . S
Zn131 O134 2.028 . S
Zn131 O137 2.035 . S
O132 Zn131 2.028 . S
O132 C138 1.247 . S
O133 Zn129 2.035 . S
O133 C138 1.258 . S
O134 C127 1.247 . S
O134 Zn131 2.028 . S
O135 C127 1.258 . S
O135 Zn129 2.035 . S
O136 Zn129 2.028 . S
O136 C139 1.247 . S
O137 Zn131 2.035 . S
O137 C139 1.258 . S
C138 O132 1.247 . S
C138 O133 1.258 . S
C139 O136 1.247 . S
C139 O137 1.258 . S
C140 O142 1.247 . S
C140 O144 1.258 . S
C141 O148 1.247 . S
C141 O149 1.258 . S
O142 C140 1.247 . S
O142 Zn143 2.028 . S
Zn143 O142 2.028 . S
Zn143 O147 2.035 . S
Zn143 O149 2.035 . S
Zn143 O150 2.028 . S
O144 C140 1.258 . S
O144 Zn145 2.035 . S
Zn145 O144 2.035 . S
Zn145 O146 2.028 . S
Zn145 O148 2.028 . S
Zn145 O151 2.035 . S
O146 Zn145 2.028 . S
O146 C152 1.247 . S
O147 Zn143 2.035 . S
O147 C152 1.258 . S
O148 C141 1.247 . S
O148 Zn145 2.028 . S
O149 C141 1.258 . S
O149 Zn143 2.035 . S
O150 Zn143 2.028 . S
O150 C153 1.247 . S
O151 Zn145 2.035 . S
O151 C153 1.258 . S
C152 O146 1.247 . S
C152 O147 1.258 . S
C153 O150 1.247 . S
C153 O151 1.258 . S
C154 O156 1.247 . S
C154 O158 1.258 . S
C155 O162 1.247 . S
C155 O163 1.258 . S
O156 C154 1.247 . S
O156 Zn157 2.028 . S
Zn157 O156 2.028 . S
Zn157 O161 2.035 . S
Zn157 O163 2.035 . S
Zn157 O164 2.028 . S
O158 C154 1.258 . S
O158 Zn159 2.035 . S
Zn159 O158 2.035 . S
Zn159 O160 2.028 . S
Zn159 O162 2.028 . S
Zn159 O165 2.035 . S
O160 Zn159 2.028 . S
O160 C166 1.247 . S
O161 Zn157 2.035 . S
O161 C166 1.258 . S
O162 C155 1.247 . S
O162 Zn159 2.028 . S
O163 C155 1.258 . S
O163 Zn157 2.035 . S
O164 Zn157 2.028 . S
O164 C167 1.247 . S
O165 Zn159 2.035 . S
O165 C167 1.258 . S
C166 O160 1.247 . S
C166 O161 1.258 . S
C167 O164 1.247 . S
C167 O165 1.258 . S
C168 C169 1.349 . S
C168 C170 1.327 . S
C168 H193 0.950 . S
C169 C168 1.349 . S
C169 C185 1.349 . S
C170 C168 1.327 . S
C170 C189 1.429 . S
C170 H194 0.950 . S
C171 C188 1.574 . S
C171 C190 1.368 . S
C171 H195 0.949 . S
H172 C176 0.949 . S
C173 C174 1.349 . S
C173 C175 1.327 . S
C173 H196 0.950 . S
C174 C173 1.349 . S
C174 C186 1.349 . S
C175 C173 1.327 . S
C175 C191 1.429 . S
C175 H197 0.950 . S
C176 H172 0.949 . S
C176 C184 1.574 . S
C176 C192 1.368 . S
H177 C185 0.950 . S
H178 C183 0.950 . S
H179 C184 0.949 . S
H180 C186 0.950 . S
H181 C187 0.950 . S
H182 C188 0.949 . S
C183 H178 0.950 . S
C183 C185 1.327 . S
C183 C189 1.429 . S
C184 C176 1.574 . S
C184 H179 0.949 . S
C184 C190 1.368 . S
C185 C169 1.349 . S
C185 H177 0.950 . S
C185 C183 1.327 . S
C186 C174 1.349 . S
C186 H180 0.950 . S
C186 C187 1.327 . S
C187 H181 0.950 . S
C187 C186 1.327 . S
C187 C191 1.429 . S
C188 C171 1.574 . S
C188 H182 0.949 . S
C188 C192 1.368 . S
C189 C170 1.429 . S
C189 C183 1.429 . S
C189 C190 1.523 . S
C190 C171 1.368 . S
C190 C184 1.368 . S
C190 C189 1.523 . S
C191 C175 1.429 . S
C191 C187 1.429 . S
C191 C192 1.523 . S
C192 C176 1.368 . S
C192 C188 1.368 . S
C192 C191 1.523 . S
H193 C168 0.950 . S
H194 C170 0.950 . S
H195 C171 0.949 . S
H196 C173 0.950 . S
H197 C175 0.950 . S
C198 C199 1.349 . S
C198 C200 1.327 . S
C198 H223 0.950 . S
C199 C198 1.349 . S
C199 C215 1.349 . S
C200 C198 1.327 . S
C200 C219 1.429 . S
C200 H224 0.950 . S
C201 C218 1.574 . S
C201 C220 1.368 . S
C201 H225 0.949 . S
H202 C206 0.949 . S
C203 C204 1.349 . S
C203 C205 1.327 . S
C203 H226 0.950 . S
C204 C203 1.349 . S
C204 C216 1.349 . S
C205 C203 1.327 . S
C205 C221 1.429 . S
C205 H227 0.950 . S
C206 H202 0.949 . S
C206 C214 1.574 . S
C206 C222 1.368 . S
H207 C215 0.950 . S
H208 C213 0.950 . S
H209 C214 0.949 . S
H210 C216 0.950 . S
H211 C217 0.950 . S
H212 C218 0.949 . S
C213 H208 0.950 . S
C213 C215 1.327 . S
C213 C219 1.429 . S
C214 C206 1.574 . S
C214 H209 0.949 . S
C214 C220 1.368 . S
C215 C199 1.349 . S
C215 H207 0.950 . S
C215 C213 1.327 . S
C216 C204 1.349 . S
C216 H210 0.950 . S
C216 C217 1.327 . S
C217 H211 0.950 . S
C217 C216 1.327 . S
C217 C221 1.429 . S
C218 C201 1.574 . S
C218 H212 0.949 . S
C218 C222 1.368 . S
C219 C200 1.429 . S
C219 C213 1.429 . S
C219 C220 1.523 . S
C220 C201 1.368 . S
C220 C214 1.368 . S
C220 C219 1.523 . S
C221 C205 1.429 . S
C221 C217 1.429 . S
C221 C222 1.523 . S
C222 C206 1.368 . S
C222 C218 1.368 . S
C222 C221 1.523 . S
H223 C198 0.950 . S
H224 C200 0.950 . S
H225 C201 0.949 . S
H226 C203 0.950 . S
H227 C205 0.950 . S
C228 C229 1.349 . S
C228 C230 1.327 . S
C228 H253 0.950 . S
C229 C228 1.349 . S
C229 C245 1.349 . S
C230 C228 1.327 . S
C230 C249 1.429 . S
C230 H254 0.950 . S
C231 C248 1.574 1_556 S
C231 C250 1.368 . S
C231 H255 0.949 . S
H232 C236 0.949 . S
C233 C234 1.349 . S
C233 C235 1.327 . S
C233 H256 0.950 . S
C234 C233 1.349 . S
C234 C246 1.349 . S
C235 C233 1.327 . S
C235 C251 1.429 . S
C235 H257 0.950 . S
C236 H232 0.949 . S
C236 C244 1.574 1_554 S
C236 C252 1.368 . S
H237 C245 0.950 . S
H238 C243 0.950 . S
H239 C244 0.949 . S
H240 C246 0.950 . S
H241 C247 0.950 . S
H242 C248 0.949 . S
C243 H238 0.950 . S
C243 C245 1.327 . S
C243 C249 1.429 . S
C244 C236 1.574 1_556 S
C244 H239 0.949 . S
C244 C250 1.368 . S
C245 C229 1.349 . S
C245 H237 0.950 . S
C245 C243 1.327 . S
C246 C234 1.349 . S
C246 H240 0.950 . S
C246 C247 1.327 . S
C247 H241 0.950 . S
C247 C246 1.327 . S
C247 C251 1.429 . S
C248 C231 1.574 1_554 S
C248 H242 0.949 . S
C248 C252 1.368 . S
C249 C230 1.429 . S
C249 C243 1.429 . S
C249 C250 1.523 . S
C250 C231 1.368 . S
C250 C244 1.368 . S
C250 C249 1.523 . S
C251 C235 1.429 . S
C251 C247 1.429 . S
C251 C252 1.523 . S
C252 C236 1.368 . S
C252 C248 1.368 . S
C252 C251 1.523 . S
H253 C228 0.950 . S
H254 C230 0.950 . S
H255 C231 0.949 . S
H256 C233 0.950 . S
H257 C235 0.950 . S
C258 C259 1.349 . S
C258 C260 1.327 . S
C258 H283 0.950 . S
C259 C258 1.349 . S
C259 C275 1.349 . S
C260 C258 1.327 . S
C260 C279 1.429 . S
C260 H284 0.950 . S
C261 C278 1.574 . S
C261 C280 1.368 . S
C261 H285 0.949 . S
H262 C266 0.949 . S
C263 C264 1.349 . S
C263 C265 1.327 . S
C263 H286 0.950 . S
C264 C263 1.349 . S
C264 C276 1.349 . S
C265 C263 1.327 . S
C265 C281 1.429 . S
C265 H287 0.950 . S
C266 H262 0.949 . S
C266 C274 1.574 . S
C266 C282 1.368 . S
H267 C275 0.950 . S
H268 C273 0.950 . S
H269 C274 0.949 . S
H270 C276 0.950 . S
H271 C277 0.950 . S
H272 C278 0.949 . S
C273 H268 0.950 . S
C273 C275 1.327 . S
C273 C279 1.429 . S
C274 C266 1.574 . S
C274 H269 0.949 . S
C274 C280 1.368 . S
C275 C259 1.349 . S
C275 H267 0.950 . S
C275 C273 1.327 . S
C276 C264 1.349 . S
C276 H270 0.950 . S
C276 C277 1.327 . S
C277 H271 0.950 . S
C277 C276 1.327 . S
C277 C281 1.429 . S
C278 C261 1.574 . S
C278 H272 0.949 . S
C278 C282 1.368 . S
C279 C260 1.429 . S
C279 C273 1.429 . S
C279 C280 1.523 . S
C280 C261 1.368 . S
C280 C274 1.368 . S
C280 C279 1.523 . S
C281 C265 1.429 . S
C281 C277 1.429 . S
C281 C282 1.523 . S
C282 C266 1.368 . S
C282 C278 1.368 . S
C282 C281 1.523 . S
H283 C258 0.950 . S
H284 C260 0.950 . S
H285 C261 0.949 . S
H286 C263 0.950 . S
H287 C265 0.950 . S
C288 C289 1.349 . S
C288 C290 1.327 . S
C288 H313 0.950 . S
C289 C288 1.349 . S
C289 C305 1.349 . S
C290 C288 1.327 . S
C290 C309 1.429 . S
C290 H314 0.950 . S
C291 C308 1.574 . S
C291 C310 1.368 . S
C291 H315 0.949 . S
H292 C296 0.949 . S
C293 C294 1.349 . S
C293 C295 1.327 . S
C293 H316 0.950 . S
C294 C293 1.349 . S
C294 C306 1.349 . S
C295 C293 1.327 . S
C295 C311 1.429 . S
C295 H317 0.950 . S
C296 H292 0.949 . S
C296 C304 1.574 . S
C296 C312 1.368 . S
H297 C305 0.950 . S
H298 C303 0.950 . S
H299 C304 0.949 . S
H300 C306 0.950 . S
H301 C307 0.950 . S
H302 C308 0.949 . S
C303 H298 0.950 . S
C303 C305 1.327 . S
C303 C309 1.429 . S
C304 C296 1.574 . S
C304 H299 0.949 . S
C304 C310 1.368 . S
C305 C289 1.349 . S
C305 H297 0.950 . S
C305 C303 1.327 . S
C306 C294 1.349 . S
C306 H300 0.950 . S
C306 C307 1.327 . S
C307 H301 0.950 . S
C307 C306 1.327 . S
C307 C311 1.429 . S
C308 C291 1.574 . S
C308 H302 0.949 . S
C308 C312 1.368 . S
C309 C290 1.429 . S
C309 C303 1.429 . S
C309 C310 1.523 . S
C310 C291 1.368 . S
C310 C304 1.368 . S
C310 C309 1.523 . S
C311 C295 1.429 . S
C311 C307 1.429 . S
C311 C312 1.523 . S
C312 C296 1.368 . S
C312 C308 1.368 . S
C312 C311 1.523 . S
H313 C288 0.950 . S
H314 C290 0.950 . S
H315 C291 0.949 . S
H316 C293 0.950 . S
H317 C295 0.950 . S
C318 C319 1.349 . S
C318 C320 1.327 . S
C318 H343 0.950 . S
C319 C318 1.349 . S
C319 C335 1.349 . S
C320 C318 1.327 . S
C320 C339 1.429 . S
C320 H344 0.950 . S
C321 C338 1.574 1_554 S
C321 C340 1.368 . S
C321 H345 0.949 . S
H322 C326 0.949 . S
C323 C324 1.349 . S
C323 C325 1.327 . S
C323 H346 0.950 . S
C324 C323 1.349 . S
C324 C336 1.349 . S
C325 C323 1.327 . S
C325 C341 1.429 . S
C325 H347 0.950 . S
C326 H322 0.949 . S
C326 C334 1.574 1_556 S
C326 C342 1.368 . S
H327 C335 0.950 . S
H328 C333 0.950 . S
H329 C334 0.949 . S
H330 C336 0.950 . S
H331 C337 0.950 . S
H332 C338 0.949 . S
C333 H328 0.950 . S
C333 C335 1.327 . S
C333 C339 1.429 . S
C334 C326 1.574 1_554 S
C334 H329 0.949 . S
C334 C340 1.368 . S
C335 C319 1.349 . S
C335 H327 0.950 . S
C335 C333 1.327 . S
C336 C324 1.349 . S
C336 H330 0.950 . S
C336 C337 1.327 . S
C337 H331 0.950 . S
C337 C336 1.327 . S
C337 C341 1.429 . S
C338 C321 1.574 1_556 S
C338 H332 0.949 . S
C338 C342 1.368 . S
C339 C320 1.429 . S
C339 C333 1.429 . S
C339 C340 1.523 . S
C340 C321 1.368 . S
C340 C334 1.368 . S
C340 C339 1.523 . S
C341 C325 1.429 . S
C341 C337 1.429 . S
C341 C342 1.523 . S
C342 C326 1.368 . S
C342 C338 1.368 . S
C342 C341 1.523 . S
H343 C318 0.950 . S
H344 C320 0.950 . S
H345 C321 0.949 . S
H346 C323 0.950 . S
H347 C325 0.950 . S
C348 C349 1.349 . S
C348 C350 1.327 . S
C348 H373 0.950 . S
C349 C348 1.349 . S
C349 C365 1.349 . S
C350 C348 1.327 . S
C350 C369 1.429 . S
C350 H374 0.950 . S
C351 C368 1.574 . S
C351 C370 1.368 1_556 S
C351 H375 0.949 . S
H352 C356 0.949 . S
C353 C354 1.349 . S
C353 C355 1.327 . S
C353 H376 0.950 . S
C354 C353 1.349 . S
C354 C366 1.349 . S
C355 C353 1.327 . S
C355 C371 1.429 . S
C355 H377 0.950 . S
C356 H352 0.949 . S
C356 C364 1.574 . S
C356 C372 1.368 1_554 S
H357 C365 0.950 . S
H358 C363 0.949 1_556 S
H359 C364 0.949 . S
H360 C366 0.950 . S
H361 C367 0.949 1_554 S
H362 C368 0.949 . S
C363 H358 0.949 1_554 S
C363 C365 1.327 . S
C363 C369 1.429 . S
C364 C356 1.574 . S
C364 H359 0.949 . S
C364 C370 1.368 . S
C365 C349 1.349 . S
C365 H357 0.950 . S
C365 C363 1.327 . S
C366 C354 1.349 . S
C366 H360 0.950 . S
C366 C367 1.327 . S
C367 H361 0.949 1_556 S
C367 C366 1.327 . S
C367 C371 1.429 . S
C368 C351 1.574 . S
C368 H362 0.949 . S
C368 C372 1.368 . S
C369 C350 1.429 . S
C369 C363 1.429 . S
C369 C370 1.523 . S
C370 C351 1.368 1_554 S
C370 C364 1.368 . S
C370 C369 1.523 . S
C371 C355 1.429 . S
C371 C367 1.429 . S
C371 C372 1.523 . S
C372 C356 1.368 1_556 S
C372 C368 1.368 . S
C372 C371 1.523 . S
H373 C348 0.950 . S
H374 C350 0.950 . S
H375 C351 0.949 . S
H376 C353 0.950 . S
H377 C355 0.950 . S
C378 C379 1.349 . S
C378 C380 1.327 . S
C378 H403 0.950 . S
C379 C378 1.349 . S
C379 C395 1.349 . S
C380 C378 1.327 . S
C380 C399 1.429 . S
C380 H404 0.950 . S
C381 C398 1.574 . S
C381 C400 1.368 . S
C381 H405 0.949 . S
H382 C386 0.949 . S
C383 C384 1.349 . S
C383 C385 1.327 . S
C383 H406 0.950 . S
C384 C383 1.349 . S
C384 C396 1.349 . S
C385 C383 1.327 . S
C385 C401 1.429 . S
C385 H407 0.950 . S
C386 H382 0.949 . S
C386 C394 1.574 . S
C386 C402 1.368 . S
H387 C395 0.950 . S
H388 C393 0.950 . S
H389 C394 0.949 . S
H390 C396 0.950 . S
H391 C397 0.950 . S
H392 C398 0.949 . S
C393 H388 0.950 . S
C393 C395 1.327 . S
C393 C399 1.429 . S
C394 C386 1.574 . S
C394 H389 0.949 . S
C394 C400 1.368 . S
C395 C379 1.349 . S
C395 H387 0.950 . S
C395 C393 1.327 . S
C396 C384 1.349 . S
C396 H390 0.950 . S
C396 C397 1.327 . S
C397 H391 0.950 . S
C397 C396 1.327 . S
C397 C401 1.429 . S
C398 C381 1.574 . S
C398 H392 0.949 . S
C398 C402 1.368 . S
C399 C380 1.429 . S
C399 C393 1.429 . S
C399 C400 1.523 . S
C400 C381 1.368 . S
C400 C394 1.368 . S
C400 C399 1.523 . S
C401 C385 1.429 . S
C401 C397 1.429 . S
C401 C402 1.523 . S
C402 C386 1.368 . S
C402 C398 1.368 . S
C402 C401 1.523 . S
H403 C378 0.950 . S
H404 C380 0.950 . S
H405 C381 0.949 . S
H406 C383 0.950 . S
H407 C385 0.950 . S
C408 C409 1.349 . S
C408 C410 1.327 . S
C408 H433 0.950 . S
C409 C408 1.349 . S
C409 C425 1.349 . S
C410 C408 1.327 . S
C410 C429 1.429 . S
C410 H434 0.950 . S
C411 C428 1.574 . S
C411 C430 1.368 . S
C411 H435 0.949 . S
H412 C416 0.949 . S
C413 C414 1.349 . S
C413 C415 1.327 . S
C413 H436 0.950 . S
C414 C413 1.349 . S
C414 C426 1.349 . S
C415 C413 1.327 . S
C415 C431 1.429 . S
C415 H437 0.950 . S
C416 H412 0.949 . S
C416 C424 1.574 . S
C416 C432 1.368 . S
H417 C425 0.950 . S
H418 C423 0.950 . S
H419 C424 0.949 . S
H420 C426 0.950 . S
H421 C427 0.950 . S
H422 C428 0.949 . S
C423 H418 0.950 . S
C423 C425 1.327 . S
C423 C429 1.429 . S
C424 C416 1.574 . S
C424 H419 0.949 . S
C424 C430 1.368 . S
C425 C409 1.349 . S
C425 H417 0.950 . S
C425 C423 1.327 . S
C426 C414 1.349 . S
C426 H420 0.950 . S
C426 C427 1.327 . S
C427 H421 0.950 . S
C427 C426 1.327 . S
C427 C431 1.429 . S
C428 C411 1.574 . S
C428 H422 0.949 . S
C428 C432 1.368 . S
C429 C410 1.429 . S
C429 C423 1.429 . S
C429 C430 1.523 . S
C430 C411 1.368 . S
C430 C424 1.368 . S
C430 C429 1.523 . S
C431 C415 1.429 . S
C431 C427 1.429 . S
C431 C432 1.523 . S
C432 C416 1.368 . S
C432 C428 1.368 . S
C432 C431 1.523 . S
H433 C408 0.950 . S
H434 C410 0.950 . S
H435 C411 0.949 . S
H436 C413 0.950 . S
H437 C415 0.950 . S
C438 C439 1.349 . S
C438 C440 1.327 . S
C438 H463 0.950 . S
C439 C438 1.349 . S
C439 C455 1.349 . S
C440 C438 1.327 . S
C440 C459 1.429 . S
C440 H464 0.950 . S
C441 C458 1.574 . S
C441 C460 1.368 1_556 S
C441 H465 0.949 . S
H442 C446 0.949 . S
C443 C444 1.349 . S
C443 C445 1.327 . S
C443 H466 0.950 . S
C444 C443 1.349 . S
C444 C456 1.349 . S
C445 C443 1.327 . S
C445 C461 1.429 . S
C445 H467 0.950 . S
C446 H442 0.949 . S
C446 C454 1.574 . S
C446 C462 1.368 1_554 S
H447 C455 0.950 . S
H448 C453 0.949 1_556 S
H449 C454 0.949 . S
H450 C456 0.950 . S
H451 C457 0.948 1_554 S
H452 C458 0.949 . S
C453 H448 0.949 1_554 S
C453 C455 1.327 . S
C453 C459 1.429 . S
C454 C446 1.574 . S
C454 H449 0.949 . S
C454 C460 1.368 . S
C455 C439 1.349 . S
C455 H447 0.950 . S
C455 C453 1.327 . S
C456 C444 1.349 . S
C456 H450 0.950 . S
C456 C457 1.327 . S
C457 H451 0.948 1_556 S
C457 C456 1.327 . S
C457 C461 1.429 . S
C458 C441 1.574 . S
C458 H452 0.949 . S
C458 C462 1.368 . S
C459 C440 1.429 . S
C459 C453 1.429 . S
C459 C460 1.523 . S
C460 C441 1.368 1_554 S
C460 C454 1.368 . S
C460 C459 1.523 . S
C461 C445 1.429 . S
C461 C457 1.429 . S
C461 C462 1.523 . S
C462 C446 1.368 1_556 S
C462 C458 1.368 . S
C462 C461 1.523 . S
H463 C438 0.950 . S
H464 C440 0.950 . S
H465 C441 0.949 . S
H466 C443 0.950 . S
H467 C445 0.950 . S
C468 C469 1.349 . S
C468 C470 1.327 . S
C468 H493 0.950 . S
C469 C468 1.349 . S
C469 C485 1.349 . S
C470 C468 1.327 . S
C470 C489 1.429 . S
C470 H494 0.950 . S
C471 C488 1.574 . S
C471 C490 1.368 . S
C471 H495 0.949 . S
H472 C476 0.949 . S
C473 C474 1.349 . S
C473 C475 1.327 . S
C473 H496 0.950 . S
C474 C473 1.349 . S
C474 C486 1.349 . S
C475 C473 1.327 . S
C475 C491 1.429 . S
C475 H497 0.950 . S
C476 H472 0.949 . S
C476 C484 1.574 . S
C476 C492 1.368 . S
H477 C485 0.950 . S
H478 C483 0.950 . S
H479 C484 0.949 . S
H480 C486 0.950 . S
H481 C487 0.950 . S
H482 C488 0.949 . S
C483 H478 0.950 . S
C483 C485 1.327 . S
C483 C489 1.429 . S
C484 C476 1.574 . S
C484 H479 0.949 . S
C484 C490 1.368 . S
C485 C469 1.349 . S
C485 H477 0.950 . S
C485 C483 1.327 . S
C486 C474 1.349 . S
C486 H480 0.950 . S
C486 C487 1.327 . S
C487 H481 0.950 . S
C487 C486 1.327 . S
C487 C491 1.429 . S
C488 C471 1.574 . S
C488 H482 0.949 . S
C488 C492 1.368 . S
C489 C470 1.429 . S
C489 C483 1.429 . S
C489 C490 1.523 . S
C490 C471 1.368 . S
C490 C484 1.368 . S
C490 C489 1.523 . S
C491 C475 1.429 . S
C491 C487 1.429 . S
C491 C492 1.523 . S
C492 C476 1.368 . S
C492 C488 1.368 . S
C492 C491 1.523 . S
H493 C468 0.950 . S
H494 C470 0.950 . S
H495 C471 0.949 . S
H496 C473 0.950 . S
H497 C475 0.950 . S
C498 C499 1.349 . S
C498 C500 1.327 . S
C498 H523 0.950 . S
C499 C498 1.349 . S
C499 C515 1.349 . S
C500 C498 1.327 . S
C500 C519 1.429 . S
C500 H524 0.950 . S
C501 C518 1.574 . S
C501 C520 1.368 . S
C501 H525 0.949 . S
H502 C506 0.949 . S
C503 C504 1.349 . S
C503 C505 1.327 . S
C503 H526 0.950 . S
C504 C503 1.349 . S
C504 C516 1.349 . S
C505 C503 1.327 . S
C505 C521 1.429 . S
C505 H527 0.950 . S
C506 H502 0.949 . S
C506 C514 1.574 . S
C506 C522 1.368 . S
H507 C515 0.950 . S
H508 C513 0.950 . S
H509 C514 0.949 . S
H510 C516 0.950 . S
H511 C517 0.950 . S
H512 C518 0.949 . S
C513 H508 0.950 . S
C513 C515 1.327 . S
C513 C519 1.429 . S
C514 C506 1.574 . S
C514 H509 0.949 . S
C514 C520 1.368 . S
C515 C499 1.349 . S
C515 H507 0.950 . S
C515 C513 1.327 . S
C516 C504 1.349 . S
C516 H510 0.950 . S
C516 C517 1.327 . S
C517 H511 0.950 . S
C517 C516 1.327 . S
C517 C521 1.429 . S
C518 C501 1.574 . S
C518 H512 0.949 . S
C518 C522 1.368 . S
C519 C500 1.429 . S
C519 C513 1.429 . S
C519 C520 1.523 . S
C520 C501 1.368 . S
C520 C514 1.368 . S
C520 C519 1.523 . S
C521 C505 1.429 . S
C521 C517 1.429 . S
C521 C522 1.523 . S
C522 C506 1.368 . S
C522 C518 1.368 . S
C522 C521 1.523 . S
H523 C498 0.950 . S
H524 C500 0.950 . S
H525 C501 0.949 . S
H526 C503 0.950 . S
H527 C505 0.950 . S
C528 C529 1.349 . S
C528 C530 1.327 . S
C528 H553 0.950 . S
C529 C528 1.349 . S
C529 C545 1.349 . S
C530 C528 1.327 . S
C530 C549 1.429 . S
C530 H554 0.950 . S
C531 C548 1.574 . S
C531 C550 1.368 . S
C531 H555 0.949 . S
H532 C536 0.949 . S
C533 C534 1.349 . S
C533 C535 1.327 . S
C533 H556 0.950 . S
C534 C533 1.349 . S
C534 C546 1.349 . S
C535 C533 1.327 . S
C535 C551 1.429 . S
C535 H557 0.950 . S
C536 H532 0.949 . S
C536 C544 1.574 . S
C536 C552 1.368 . S
H537 C545 0.950 . S
H538 C543 0.950 . S
H539 C544 0.949 . S
H540 C546 0.950 . S
H541 C547 0.950 . S
H542 C548 0.949 . S
C543 H538 0.950 . S
C543 C545 1.327 . S
C543 C549 1.429 . S
C544 C536 1.574 . S
C544 H539 0.949 . S
C544 C550 1.368 . S
C545 C529 1.349 . S
C545 H537 0.950 . S
C545 C543 1.327 . S
C546 C534 1.349 . S
C546 H540 0.950 . S
C546 C547 1.327 . S
C547 H541 0.950 . S
C547 C546 1.327 . S
C547 C551 1.429 . S
C548 C531 1.574 . S
C548 H542 0.949 . S
C548 C552 1.368 . S
C549 C530 1.429 . S
C549 C543 1.429 . S
C549 C550 1.523 . S
C550 C531 1.368 . S
C550 C544 1.368 . S
C550 C549 1.523 . S
C551 C535 1.429 . S
C551 C547 1.429 . S
C551 C552 1.523 . S
C552 C536 1.368 . S
C552 C548 1.368 . S
C552 C551 1.523 . S
H553 C528 0.950 . S
H554 C530 0.950 . S
H555 C531 0.949 . S
H556 C533 0.950 . S
H557 C535 0.950 . S
C558 C559 1.349 . S
C558 C560 1.327 . S
C558 H583 0.950 . S
C559 C558 1.349 . S
C559 C575 1.349 . S
C560 C558 1.327 . S
C560 C579 1.429 . S
C560 H584 0.950 . S
C561 C578 1.574 1_655 S
C561 C580 1.368 . S
C561 H585 0.949 . S
H562 C566 0.949 . S
C563 C564 1.349 . S
C563 C565 1.327 . S
C563 H586 0.950 . S
C564 C563 1.349 . S
C564 C576 1.349 . S
C565 C563 1.327 . S
C565 C581 1.429 . S
C565 H587 0.950 . S
C566 H562 0.949 . S
C566 C574 1.574 1_455 S
C566 C582 1.368 . S
H567 C575 0.950 . S
H568 C573 0.950 . S
H569 C574 0.949 . S
H570 C576 0.950 . S
H571 C577 0.950 . S
H572 C578 0.949 . S
C573 H568 0.950 . S
C573 C575 1.327 . S
C573 C579 1.429 . S
C574 C566 1.574 1_655 S
C574 H569 0.949 . S
C574 C580 1.368 . S
C575 C559 1.349 . S
C575 H567 0.950 . S
C575 C573 1.327 . S
C576 C564 1.349 . S
C576 H570 0.950 . S
C576 C577 1.327 . S
C577 H571 0.950 . S
C577 C576 1.327 . S
C577 C581 1.429 . S
C578 C561 1.574 1_455 S
C578 H572 0.949 . S
C578 C582 1.368 . S
C579 C560 1.429 . S
C579 C573 1.429 . S
C579 C580 1.523 . S
C580 C561 1.368 . S
C580 C574 1.368 . S
C580 C579 1.523 . S
C581 C565 1.429 . S
C581 C577 1.429 . S
C581 C582 1.523 . S
C582 C566 1.368 . S
C582 C578 1.368 . S
C582 C581 1.523 . S
H583 C558 0.950 . S
H584 C560 0.950 . S
H585 C561 0.949 . S
H586 C563 0.950 . S
H587 C565 0.950 . S
C588 C589 1.349 . S
C588 C590 1.327 . S
C588 H613 0.950 . S
C589 C588 1.349 . S
C589 C605 1.349 . S
C590 C588 1.327 . S
C590 C609 1.429 . S
C590 H614 0.950 . S
C591 C608 1.574 1_545 S
C591 C610 1.368 . S
C591 H615 0.949 . S
H592 C596 0.949 . S
C593 C594 1.349 . S
C593 C595 1.327 . S
C593 H616 0.950 . S
C594 C593 1.349 . S
C594 C606 1.349 . S
C595 C593 1.327 . S
C595 C611 1.429 . S
C595 H617 0.950 . S
C596 H592 0.949 . S
C596 C604 1.574 1_565 S
C596 C612 1.368 . S
H597 C605 0.950 . S
H598 C603 0.950 . S
H599 C604 0.949 . S
H600 C606 0.950 . S
H601 C607 0.950 . S
H602 C608 0.949 . S
C603 H598 0.950 . S
C603 C605 1.327 . S
C603 C609 1.429 . S
C604 C596 1.574 1_545 S
C604 H599 0.949 . S
C604 C610 1.368 . S
C605 C589 1.349 . S
C605 H597 0.950 . S
C605 C603 1.327 . S
C606 C594 1.349 . S
C606 H600 0.950 . S
C606 C607 1.327 . S
C607 H601 0.950 . S
C607 C606 1.327 . S
C607 C611 1.429 . S
C608 C591 1.574 1_565 S
C608 H602 0.949 . S
C608 C612 1.368 . S
C609 C590 1.429 . S
C609 C603 1.429 . S
C609 C610 1.523 . S
C610 C591 1.368 . S
C610 C604 1.368 . S
C610 C609 1.523 . S
C611 C595 1.429 . S
C611 C607 1.429 . S
C611 C612 1.523 . S
C612 C596 1.368 . S
C612 C608 1.368 . S
C612 C611 1.523 . S
H613 C588 0.950 . S
H614 C590 0.950 . S
H615 C591 0.949 . S
H616 C593 0.950 . S
H617 C595 0.950 . S
C618 C619 1.349 . S
C618 C620 1.327 . S
C618 H643 0.950 . S
C619 C618 1.349 . S
C619 C635 1.349 . S
C620 C618 1.327 . S
C620 C639 1.429 . S
C620 H644 0.950 . S
C621 C638 1.574 . S
C621 C640 1.368 . S
C621 H645 0.949 . S
H622 C626 0.949 . S
C623 C624 1.349 . S
C623 C625 1.327 . S
C623 H646 0.950 . S
C624 C623 1.349 . S
C624 C636 1.349 . S
C625 C623 1.327 . S
C625 C641 1.429 . S
C625 H647 0.950 . S
C626 H622 0.949 . S
C626 C634 1.574 . S
C626 C642 1.368 . S
H627 C635 0.950 . S
H628 C633 0.950 . S
H629 C634 0.949 . S
H630 C636 0.950 . S
H631 C637 0.950 . S
H632 C638 0.949 . S
C633 H628 0.950 . S
C633 C635 1.327 . S
C633 C639 1.429 . S
C634 C626 1.574 . S
C634 H629 0.949 . S
C634 C640 1.368 . S
C635 C619 1.349 . S
C635 H627 0.950 . S
C635 C633 1.327 . S
C636 C624 1.349 . S
C636 H630 0.950 . S
C636 C637 1.327 . S
C637 H631 0.950 . S
C637 C636 1.327 . S
C637 C641 1.429 . S
C638 C621 1.574 . S
C638 H632 0.949 . S
C638 C642 1.368 . S
C639 C620 1.429 . S
C639 C633 1.429 . S
C639 C640 1.523 . S
C640 C621 1.368 . S
C640 C634 1.368 . S
C640 C639 1.523 . S
C641 C625 1.429 . S
C641 C637 1.429 . S
C641 C642 1.523 . S
C642 C626 1.368 . S
C642 C638 1.368 . S
C642 C641 1.523 . S
H643 C618 0.950 . S
H644 C620 0.950 . S
H645 C621 0.949 . S
H646 C623 0.950 . S
H647 C625 0.950 . S
C648 C649 1.349 . S
C648 C650 1.327 . S
C648 H673 0.950 . S
C649 C648 1.349 . S
C649 C665 1.349 . S
C650 C648 1.327 . S
C650 C669 1.429 . S
C650 H674 0.950 . S
C651 C668 1.574 1_455 S
C651 C670 1.368 . S
C651 H675 0.949 . S
H652 C656 0.949 . S
C653 C654 1.349 . S
C653 C655 1.327 . S
C653 H676 0.950 . S
C654 C653 1.349 . S
C654 C666 1.349 . S
C655 C653 1.327 . S
C655 C671 1.429 . S
C655 H677 0.950 . S
C656 H652 0.949 . S
C656 C664 1.574 1_655 S
C656 C672 1.368 . S
H657 C665 0.950 . S
H658 C663 0.950 . S
H659 C664 0.949 . S
H660 C666 0.950 . S
H661 C667 0.950 . S
H662 C668 0.949 . S
C663 H658 0.950 . S
C663 C665 1.327 . S
C663 C669 1.429 . S
C664 C656 1.574 1_455 S
C664 H659 0.949 . S
C664 C670 1.368 . S
C665 C649 1.349 . S
C665 H657 0.950 . S
C665 C663 1.327 . S
C666 C654 1.349 . S
C666 H660 0.950 . S
C666 C667 1.327 . S
C667 H661 0.950 . S
C667 C666 1.327 . S
C667 C671 1.429 . S
C668 C651 1.574 1_655 S
C668 H662 0.949 . S
C668 C672 1.368 . S
C669 C650 1.429 . S
C669 C663 1.429 . S
C669 C670 1.523 . S
C670 C651 1.368 . S
C670 C664 1.368 . S
C670 C669 1.523 . S
C671 C655 1.429 . S
C671 C667 1.429 . S
C671 C672 1.523 . S
C672 C656 1.368 . S
C672 C668 1.368 . S
C672 C671 1.523 . S
H673 C648 0.950 . S
H674 C650 0.950 . S
H675 C651 0.949 . S
H676 C653 0.950 . S
H677 C655 0.950 . S
C678 C679 1.349 . S
C678 C680 1.327 . S
C678 H703 0.950 . S
C679 C678 1.349 . S
C679 C695 1.349 . S
C680 C678 1.327 . S
C680 C699 1.429 . S
C680 H704 0.950 . S
C681 C698 1.574 1_565 S
C681 C700 1.368 . S
C681 H705 0.949 . S
H682 C686 0.949 . S
C683 C684 1.349 . S
C683 C685 1.327 . S
C683 H706 0.950 . S
C684 C683 1.349 . S
C684 C696 1.349 . S
C685 C683 1.327 . S
C685 C701 1.429 . S
C685 H707 0.950 . S
C686 H682 0.949 . S
C686 C694 1.574 1_545 S
C686 C702 1.368 . S
H687 C695 0.950 . S
H688 C693 0.950 . S
H689 C694 0.949 . S
H690 C696 0.950 . S
H691 C697 0.950 . S
H692 C698 0.949 . S
C693 H688 0.950 . S
C693 C695 1.327 . S
C693 C699 1.429 . S
C694 C686 1.574 1_565 S
C694 H689 0.949 . S
C694 C700 1.368 . S
C695 C679 1.349 . S
C695 H687 0.950 . S
C695 C693 1.327 . S
C696 C684 1.349 . S
C696 H690 0.950 . S
C696 C697 1.327 . S
C697 H691 0.950 . S
C697 C696 1.327 . S
C697 C701 1.429 . S
C698 C681 1.574 1_545 S
C698 H692 0.949 . S
C698 C702 1.368 . S
C699 C680 1.429 . S
C699 C693 1.429 . S
C699 C700 1.523 . S
C700 C681 1.368 . S
C700 C694 1.368 . S
C700 C699 1.523 . S
C701 C685 1.429 . S
C701 C697 1.429 . S
C701 C702 1.523 . S
C702 C686 1.368 . S
C702 C698 1.368 . S
C702 C701 1.523 . S
H703 C678 0.950 . S
H704 C680 0.950 . S
H705 C681 0.949 . S
H706 C683 0.950 . S
H707 C685 0.950 . S
C708 C709 1.349 . S
C708 C710 1.327 . S
C708 H733 0.950 . S
C709 C708 1.349 . S
C709 C725 1.349 . S
C710 C708 1.327 . S
C710 C729 1.429 . S
C710 H734 0.950 . S
C711 C728 1.574 . S
C711 C730 1.368 . S
C711 H735 0.949 . S
H712 C716 0.949 . S
C713 C714 1.349 . S
C713 C715 1.327 . S
C713 H736 0.950 . S
C714 C713 1.349 . S
C714 C726 1.349 . S
C715 C713 1.327 . S
C715 C731 1.429 . S
C715 H737 0.950 . S
C716 H712 0.949 . S
C716 C724 1.574 . S
C716 C732 1.368 . S
H717 C725 0.950 . S
H718 C723 0.950 . S
H719 C724 0.949 . S
H720 C726 0.950 . S
H721 C727 0.950 . S
H722 C728 0.949 . S
C723 H718 0.950 . S
C723 C725 1.327 . S
C723 C729 1.429 . S
C724 C716 1.574 . S
C724 H719 0.949 . S
C724 C730 1.368 . S
C725 C709 1.349 . S
C725 H717 0.950 . S
C725 C723 1.327 . S
C726 C714 1.349 . S
C726 H720 0.950 . S
C726 C727 1.327 . S
C727 H721 0.950 . S
C727 C726 1.327 . S
C727 C731 1.429 . S
C728 C711 1.574 . S
C728 H722 0.949 . S
C728 C732 1.368 . S
C729 C710 1.429 . S
C729 C723 1.429 . S
C729 C730 1.523 . S
C730 C711 1.368 . S
C730 C724 1.368 . S
C730 C729 1.523 . S
C731 C715 1.429 . S
C731 C727 1.429 . S
C731 C732 1.523 . S
C732 C716 1.368 . S
C732 C728 1.368 . S
C732 C731 1.523 . S
H733 C708 0.950 . S
H734 C710 0.950 . S
H735 C711 0.949 . S
H736 C713 0.950 . S
H737 C715 0.950 . S
C738 C739 1.349 . S
C738 C740 1.327 . S
C738 H763 0.950 . S
C739 C738 1.349 . S
C739 C755 1.349 . S
C740 C738 1.327 . S
C740 C759 1.429 . S
C740 H764 0.950 . S
C741 C758 1.574 . S
C741 C760 1.368 . S
C741 H765 0.949 . S
H742 C746 0.949 . S
C743 C744 1.349 . S
C743 C745 1.327 . S
C743 H766 0.950 . S
C744 C743 1.349 . S
C744 C756 1.349 . S
C745 C743 1.327 . S
C745 C761 1.429 . S
C745 H767 0.950 . S
C746 H742 0.949 . S
C746 C754 1.574 . S
C746 C762 1.368 . S
H747 C755 0.950 . S
H748 C753 0.950 . S
H749 C754 0.949 . S
H750 C756 0.950 . S
H751 C757 0.950 . S
H752 C758 0.949 . S
C753 H748 0.950 . S
C753 C755 1.327 . S
C753 C759 1.429 . S
C754 C746 1.574 . S
C754 H749 0.949 . S
C754 C760 1.368 . S
C755 C739 1.349 . S
C755 H747 0.950 . S
C755 C753 1.327 . S
C756 C744 1.349 . S
C756 H750 0.950 . S
C756 C757 1.327 . S
C757 H751 0.950 . S
C757 C756 1.327 . S
C757 C761 1.429 . S
C758 C741 1.574 . S
C758 H752 0.949 . S
C758 C762 1.368 . S
C759 C740 1.429 . S
C759 C753 1.429 . S
C759 C760 1.523 . S
C760 C741 1.368 . S
C760 C754 1.368 . S
C760 C759 1.523 . S
C761 C745 1.429 . S
C761 C757 1.429 . S
C761 C762 1.523 . S
C762 C746 1.368 . S
C762 C758 1.368 . S
C762 C761 1.523 . S
H763 C738 0.950 . S
H764 C740 0.950 . S
H765 C741 0.949 . S
H766 C743 0.950 . S
H767 C745 0.950 . S
C768 C769 1.349 . S
C768 C770 1.327 . S
C768 H793 0.950 . S
C769 C768 1.349 . S
C769 C785 1.349 . S
C770 C768 1.327 . S
C770 C789 1.429 . S
C770 H794 0.950 . S
C771 C788 1.574 . S
C771 C790 1.368 . S
C771 H795 0.949 . S
H772 C776 0.949 . S
C773 C774 1.349 . S
C773 C775 1.327 . S
C773 H796 0.950 . S
C774 C773 1.349 . S
C774 C786 1.349 . S
C775 C773 1.327 . S
C775 C791 1.429 . S
C775 H797 0.950 . S
C776 H772 0.949 . S
C776 C784 1.574 . S
C776 C792 1.368 . S
H777 C785 0.950 . S
H778 C783 0.950 . S
H779 C784 0.949 . S
H780 C786 0.950 . S
H781 C787 0.950 . S
H782 C788 0.949 . S
C783 H778 0.950 . S
C783 C785 1.327 . S
C783 C789 1.429 . S
C784 C776 1.574 . S
C784 H779 0.949 . S
C784 C790 1.368 . S
C785 C769 1.349 . S
C785 H777 0.950 . S
C785 C783 1.327 . S
C786 C774 1.349 . S
C786 H780 0.950 . S
C786 C787 1.327 . S
C787 H781 0.950 . S
C787 C786 1.327 . S
C787 C791 1.429 . S
C788 C771 1.574 . S
C788 H782 0.949 . S
C788 C792 1.368 . S
C789 C770 1.429 . S
C789 C783 1.429 . S
C789 C790 1.523 . S
C790 C771 1.368 . S
C790 C784 1.368 . S
C790 C789 1.523 . S
C791 C775 1.429 . S
C791 C787 1.429 . S
C791 C792 1.523 . S
C792 C776 1.368 . S
C792 C788 1.368 . S
C792 C791 1.523 . S
H793 C768 0.950 . S
H794 C770 0.950 . S
H795 C771 0.949 . S
H796 C773 0.950 . S
H797 C775 0.950 . S
C798 C799 1.349 . S
C798 C800 1.327 . S
C798 H823 0.950 . S
C799 C798 1.349 . S
C799 C815 1.349 . S
C800 C798 1.327 . S
C800 C819 1.429 . S
C800 H824 0.950 . S
C801 C818 1.574 . S
C801 C820 1.368 . S
C801 H825 0.949 . S
H802 C806 0.949 . S
C803 C804 1.349 . S
C803 C805 1.327 . S
C803 H826 0.950 . S
C804 C803 1.349 . S
C804 C816 1.349 . S
C805 C803 1.327 . S
C805 C821 1.429 . S
C805 H827 0.950 . S
C806 H802 0.949 . S
C806 C814 1.574 . S
C806 C822 1.368 . S
H807 C815 0.950 . S
H808 C813 0.950 . S
H809 C814 0.949 . S
H810 C816 0.950 . S
H811 C817 0.950 . S
H812 C818 0.949 . S
C813 H808 0.950 . S
C813 C815 1.327 . S
C813 C819 1.429 . S
C814 C806 1.574 . S
C814 H809 0.949 . S
C814 C820 1.368 . S
C815 C799 1.349 . S
C815 H807 0.950 . S
C815 C813 1.327 . S
C816 C804 1.349 . S
C816 H810 0.950 . S
C816 C817 1.327 . S
C817 H811 0.950 . S
C817 C816 1.327 . S
C817 C821 1.429 . S
C818 C801 1.574 . S
C818 H812 0.949 . S
C818 C822 1.368 . S
C819 C800 1.429 . S
C819 C813 1.429 . S
C819 C820 1.523 . S
C820 C801 1.368 . S
C820 C814 1.368 . S
C820 C819 1.523 . S
C821 C805 1.429 . S
C821 C817 1.429 . S
C821 C822 1.523 . S
C822 C806 1.368 . S
C822 C818 1.368 . S
C822 C821 1.523 . S
H823 C798 0.950 . S
H824 C800 0.950 . S
H825 C801 0.949 . S
H826 C803 0.950 . S
H827 C805 0.950 . S
C828 C829 1.349 . S
C828 C830 1.327 . S
C828 H853 0.950 . S
C829 C828 1.349 . S
C829 C845 1.349 . S
C830 C828 1.327 . S
C830 C849 1.429 . S
C830 H854 0.950 . S
C831 C848 1.574 . S
C831 C850 1.368 . S
C831 H855 0.949 . S
H832 C836 0.949 . S
C833 C834 1.349 . S
C833 C835 1.327 . S
C833 H856 0.950 . S
C834 C833 1.349 . S
C834 C846 1.349 . S
C835 C833 1.327 . S
C835 C851 1.429 . S
C835 H857 0.950 . S
C836 H832 0.949 . S
C836 C844 1.574 . S
C836 C852 1.368 . S
H837 C845 0.950 . S
H838 C843 0.950 . S
H839 C844 0.949 . S
H840 C846 0.950 . S
H841 C847 0.950 . S
H842 C848 0.949 . S
C843 H838 0.950 . S
C843 C845 1.327 . S
C843 C849 1.429 . S
C844 C836 1.574 . S
C844 H839 0.949 . S
C844 C850 1.368 . S
C845 C829 1.349 . S
C845 H837 0.950 . S
C845 C843 1.327 . S
C846 C834 1.349 . S
C846 H840 0.950 . S
C846 C847 1.327 . S
C847 H841 0.950 . S
C847 C846 1.327 . S
C847 C851 1.429 . S
C848 C831 1.574 . S
C848 H842 0.949 . S
C848 C852 1.368 . S
C849 C830 1.429 . S
C849 C843 1.429 . S
C849 C850 1.523 . S
C850 C831 1.368 . S
C850 C844 1.368 . S
C850 C849 1.523 . S
C851 C835 1.429 . S
C851 C847 1.429 . S
C851 C852 1.523 . S
C852 C836 1.368 . S
C852 C848 1.368 . S
C852 C851 1.523 . S
H853 C828 0.950 . S
H854 C830 0.950 . S
H855 C831 0.949 . S
H856 C833 0.950 . S
H857 C835 0.950 . S
C858 C859 1.349 . S
C858 C860 1.327 . S
C858 H883 0.950 . S
C859 C858 1.349 . S
C859 C875 1.349 . S
C860 C858 1.327 . S
C860 C879 1.429 . S
C860 H884 0.950 . S
C861 C878 1.574 . S
C861 C880 1.368 . S
C861 H885 0.949 . S
H862 C866 0.949 . S
C863 C864 1.349 . S
C863 C865 1.327 . S
C863 H886 0.950 . S
C864 C863 1.349 . S
C864 C876 1.349 . S
C865 C863 1.327 . S
C865 C881 1.429 . S
C865 H887 0.950 . S
C866 H862 0.949 . S
C866 C874 1.574 . S
C866 C882 1.368 . S
H867 C875 0.950 . S
H868 C873 0.950 . S
H869 C874 0.949 . S
H870 C876 0.950 . S
H871 C877 0.950 . S
H872 C878 0.949 . S
C873 H868 0.950 . S
C873 C875 1.327 . S
C873 C879 1.429 . S
C874 C866 1.574 . S
C874 H869 0.949 . S
C874 C880 1.368 . S
C875 C859 1.349 . S
C875 H867 0.950 . S
C875 C873 1.327 . S
C876 C864 1.349 . S
C876 H870 0.950 . S
C876 C877 1.327 . S
C877 H871 0.950 . S
C877 C876 1.327 . S
C877 C881 1.429 . S
C878 C861 1.574 . S
C878 H872 0.949 . S
C878 C882 1.368 . S
C879 C860 1.429 . S
C879 C873 1.429 . S
C879 C880 1.523 . S
C880 C861 1.368 . S
C880 C874 1.368 . S
C880 C879 1.523 . S
C881 C865 1.429 . S
C881 C877 1.429 . S
C881 C882 1.523 . S
C882 C866 1.368 . S
C882 C878 1.368 . S
C882 C881 1.523 . S
H883 C858 0.950 . S
H884 C860 0.950 . S
H885 C861 0.949 . S
H886 C863 0.950 . S
H887 C865 0.950 . S
C169 C12 1.731 . S
C174 C85 1.730 . S
C199 C15 1.730 . S
C204 C98 1.731 . S
C229 C28 1.731 . S
C234 C125 1.730 . S
C259 C43 1.730 . S
C264 C138 1.731 . S
C289 C56 1.731 . S
C294 C140 1.731 . S
C319 C155 1.730 . S
C324 C70 1.731 . S
C349 C0 1.840 . S
C354 C152 1.840 . S
C379 C27 1.838 . S
C384 C167 1.838 . S
C409 C40 1.840 . S
C414 C97 1.839 . S
C439 C55 1.839 . S
C444 C110 1.840 . S
C469 C68 1.840 . S
C474 C113 1.838 . S
C499 C82 1.840 . S
C504 C126 1.840 . S
C529 C1 1.816 . S
C534 C54 1.817 . S
C559 C26 1.817 . S
C564 C69 1.815 . S
C589 C83 1.815 . S
C594 C41 1.815 . S
C619 C96 1.817 . S
C624 C127 1.816 . S
C649 C153 1.816 . S
C654 C111 1.816 . S
C679 C112 1.817 . S
C684 C166 1.817 . S
C709 C84 0.976 . S
C714 C13 0.976 1_556 S
C739 C14 0.976 . S
C744 C99 0.976 1_554 S
C769 C29 0.976 . S
C774 C124 0.976 . S
C799 C139 0.976 . S
C804 C42 0.976 1_556 S
C829 C141 0.976 1_554 S
C834 C57 0.976 . S
C859 C71 0.976 . S
C864 C154 0.976 . S
