# Generated by pormake.
# Topology smb, (6)-cn, num edge types: 1
# Building blocks:
#     Node 0, Type 0, BuildingBlock: IZENUY_clean_sbu_0, # of connection points: 6
#     Node 1, Type 0, BuildingBlock: IZENUY_clean_sbu_0, # of connection points: 6
#     Node 2, Type 0, BuildingBlock: IZENUY_clean_sbu_0, # of connection points: 6
#     Node 3, Type 0, BuildingBlock: IZENUY_clean_sbu_0, # of connection points: 6
#     Node 4, Type 0, BuildingBlock: IZENUY_clean_sbu_0, # of connection points: 6
#     Node 5, Type 0, BuildingBlock: IZENUY_clean_sbu_0, # of connection points: 6
#     Node 6, Type 0, BuildingBlock: IZENUY_clean_sbu_0, # of connection points: 6
#     Node 7, Type 0, BuildingBlock: IZENUY_clean_sbu_0, # of connection points: 6
#     Node 8, Type 0, BuildingBlock: IZENUY_clean_sbu_0, # of connection points: 6
#     Edge 9, Type (0, 0), BuildingBlock: ZUJKAS_clean_linker_0, # of connection points: 2
#     Edge 10, Type (0, 0), BuildingBlock: ZUJKAS_clean_linker_0, # of connection points: 2
#     Edge 11, Type (0, 0), BuildingBlock: ZUJKAS_clean_linker_0, # of connection points: 2
#     Edge 12, Type (0, 0), BuildingBlock: ZUJKAS_clean_linker_0, # of connection points: 2
#     Edge 13, Type (0, 0), BuildingBlock: ZUJKAS_clean_linker_0, # of connection points: 2
#     Edge 14, Type (0, 0), BuildingBlock: ZUJKAS_clean_linker_0, # of connection points: 2
#     Edge 15, Type (0, 0), BuildingBlock: ZUJKAS_clean_linker_0, # of connection points: 2
#     Edge 16, Type (0, 0), BuildingBlock: ZUJKAS_clean_linker_0, # of connection points: 2
#     Edge 17, Type (0, 0), BuildingBlock: ZUJKAS_clean_linker_0, # of connection points: 2
#     Edge 18, Type (0, 0), BuildingBlock: ZUJKAS_clean_linker_0, # of connection points: 2
#     Edge 19, Type (0, 0), BuildingBlock: ZUJKAS_clean_linker_0, # of connection points: 2
#     Edge 20, Type (0, 0), BuildingBlock: ZUJKAS_clean_linker_0, # of connection points: 2
#     Edge 21, Type (0, 0), BuildingBlock: ZUJKAS_clean_linker_0, # of connection points: 2
#     Edge 22, Type (0, 0), BuildingBlock: ZUJKAS_clean_linker_0, # of connection points: 2
#     Edge 23, Type (0, 0), BuildingBlock: ZUJKAS_clean_linker_0, # of connection points: 2
#     Edge 24, Type (0, 0), BuildingBlock: ZUJKAS_clean_linker_0, # of connection points: 2
#     Edge 25, Type (0, 0), BuildingBlock: ZUJKAS_clean_linker_0, # of connection points: 2
#     Edge 26, Type (0, 0), BuildingBlock: ZUJKAS_clean_linker_0, # of connection points: 2
#     Edge 27, Type (0, 0), BuildingBlock: ZUJKAS_clean_linker_0, # of connection points: 2
#     Edge 28, Type (0, 0), BuildingBlock: ZUJKAS_clean_linker_0, # of connection points: 2
#     Edge 29, Type (0, 0), BuildingBlock: ZUJKAS_clean_linker_0, # of connection points: 2
#     Edge 30, Type (0, 0), BuildingBlock: ZUJKAS_clean_linker_0, # of connection points: 2
#     Edge 31, Type (0, 0), BuildingBlock: ZUJKAS_clean_linker_0, # of connection points: 2
#     Edge 32, Type (0, 0), BuildingBlock: ZUJKAS_clean_linker_0, # of connection points: 2
#     Edge 33, Type (0, 0), BuildingBlock: ZUJKAS_clean_linker_0, # of connection points: 2
#     Edge 34, Type (0, 0), BuildingBlock: ZUJKAS_clean_linker_0, # of connection points: 2
#     Edge 35, Type (0, 0), BuildingBlock: ZUJKAS_clean_linker_0, # of connection points: 2
# Relax obj value: 0.326
# Max RMSD: 0.238
# Mean RMSD: 0.238
data_MOF--net-smb--node1-IZENUY_clean_sbu_0--edge1-ZUJKAS_clean_linker_0
_symmetry_space_group_name_H-M    P1
_symmetry_Int_Tables_number       1
_symmetry_cell_setting            triclinic
loop_
_symmetry_equiv_pos_as_xyz
'x, y, z'
_cell_length_a     49.298976
_cell_length_b     49.285301
_cell_length_c     38.217073
_cell_angle_alpha  90.074006
_cell_angle_beta   89.870788
_cell_angle_gamma 120.06026
loop_
_atom_site_label
_atom_site_type_symbol
_atom_site_fract_x
_atom_site_fract_y
_atom_site_fract_z
_atom_type_partial_charge
Fe0 Fe 0.41962 0.20213 0.96028 0.0
Fe1 Fe 0.37201 0.17926 0.02079 0.0
O2 O 0.41127 0.19902 0.00562 0.0
Fe3 Fe 0.44235 0.21577 0.03591 0.0
O4 O 0.46898 0.24799 0.00731 0.0
O5 O 0.44033 0.24464 0.96193 0.0
O6 O 0.38472 0.20395 0.94761 0.0
C7 C 0.36796 0.2119 0.9651 0.0
C8 C 0.46469 0.18954 0.98962 0.0
O9 O 0.36356 0.20619 0.99744 0.0
C10 C 0.39892 0.15888 0.06839 0.0
O11 O 0.39959 0.16005 0.95572 0.0
O12 O 0.35712 0.15054 0.98464 0.0
O13 O 0.45719 0.19085 0.02089 0.0
O14 O 0.45594 0.20062 0.96503 0.0
C15 C 0.40248 0.2321 0.06563 0.0
O16 O 0.37819 0.15113 0.04515 0.0
O17 O 0.42149 0.18676 0.0703 0.0
C18 C 0.37145 0.14171 0.96404 0.0
O19 O 0.38003 0.20458 0.05967 0.0
O20 O 0.42914 0.2415 0.05239 0.0
C21 C 0.46307 0.26073 0.98201 0.0
Fe22 Fe 0.82176 0.17095 0.02905 0.0
Fe23 Fe 0.7818 0.19966 0.05088 0.0
O24 O 0.8007 0.19016 0.01786 0.0
Fe25 Fe 0.79842 0.19987 0.97388 0.0
O26 O 0.7986 0.16559 0.95561 0.0
O27 O 0.79689 0.13769 0.00138 0.0
O28 O 0.7957 0.14865 0.06598 0.0
C29 C 0.76741 0.14125 0.07162 0.0
C30 C 0.85957 0.21448 0.97668 0.0
O31 O 0.7572 0.15883 0.06176 0.0
C32 C 0.80687 0.25299 0.01178 0.0
O33 O 0.84798 0.20327 0.05729 0.0
O34 O 0.81013 0.20539 0.0851 0.0
O35 O 0.8405 0.22389 0.9709 0.0
O36 O 0.85132 0.18966 0.99416 0.0
C37 C 0.7386 0.18 0.99526 0.0
O38 O 0.80538 0.24115 0.04147 0.0
O39 O 0.79787 0.23594 0.9846 0.0
C40 C 0.83865 0.213 0.08255 0.0
O41 O 0.74985 0.1956 0.02302 0.0
O42 O 0.75598 0.17643 0.97381 0.0
C43 C 0.79148 0.13951 0.96944 0.0
Fe44 Fe 0.79699 0.58508 0.97337 0.0
Fe45 Fe 0.81767 0.63536 0.03074 0.0
O46 O 0.79843 0.59547 0.01792 0.0
Fe47 Fe 0.78043 0.56593 0.04995 0.0
O48 O 0.8056 0.55025 0.0393 0.0
O49 O 0.79869 0.54924 0.98236 0.0
O50 O 0.83923 0.60541 0.97025 0.0
C51 C 0.85699 0.634 0.97717 0.0
C52 C 0.73768 0.54197 0.99373 0.0
O53 O 0.84741 0.64884 0.9958 0.0
C54 C 0.7633 0.60726 0.07314 0.0
O55 O 0.79507 0.61909 0.95696 0.0
O56 O 0.79142 0.64248 0.00437 0.0
O57 O 0.74921 0.53775 0.02131 0.0
O58 O 0.7545 0.56402 0.97315 0.0
C59 C 0.83649 0.61056 0.08233 0.0
O60 O 0.79126 0.62913 0.0681 0.0
O61 O 0.75424 0.57998 0.06204 0.0
C62 C 0.78643 0.6364 0.97216 0.0
O63 O 0.84496 0.63021 0.05776 0.0
O64 O 0.80833 0.58859 0.08472 0.0
C65 C 0.80785 0.54098 0.00924 0.0
Fe66 Fe 0.07088 0.52704 0.30676 0.0
Fe67 Fe 0.02127 0.50585 0.36516 0.0
O68 O 0.061 0.52561 0.35149 0.0
Fe69 Fe 0.09105 0.544 0.38282 0.0
O70 O 0.11843 0.57516 0.35366 0.0
O71 O 0.09126 0.56955 0.30619 0.0
O72 O 0.0364 0.52813 0.29096 0.0
C73 C 0.01862 0.53605 0.30629 0.0
C74 C 0.11548 0.51656 0.34131 0.0
O75 O 0.01281 0.53116 0.33858 0.0
C76 C 0.04748 0.48829 0.41667 0.0
O77 O 0.05123 0.48482 0.30415 0.0
O78 O 0.00785 0.47578 0.33058 0.0
O79 O 0.10687 0.51897 0.37169 0.0
O80 O 0.10713 0.52614 0.31491 0.0
C81 C 0.04972 0.5607 0.40722 0.0
O82 O 0.02737 0.47918 0.39254 0.0
O83 O 0.06932 0.5165 0.41808 0.0
C84 C 0.02284 0.46661 0.31155 0.0
O85 O 0.02773 0.53275 0.40214 0.0
O86 O 0.07682 0.56987 0.39538 0.0
C87 C 0.11325 0.58663 0.32666 0.0
Fe88 Fe 0.45369 0.52383 0.30495 0.0
Fe89 Fe 0.4843 0.50682 0.36446 0.0
O90 O 0.46185 0.52358 0.34992 0.0
Fe91 Fe 0.44746 0.54017 0.38051 0.0
O92 O 0.40741 0.51262 0.36879 0.0
O93 O 0.41491 0.51986 0.31209 0.0
O94 O 0.43385 0.48164 0.3028 0.0
C95 C 0.44596 0.46528 0.31087 0.0
C96 C 0.46541 0.58208 0.32331 0.0
O97 O 0.47007 0.47632 0.33024 0.0
C98 C 0.50615 0.56163 0.40596 0.0
O99 O 0.49083 0.52764 0.28996 0.0
O100 O 0.51761 0.53399 0.3382 0.0
O101 O 0.44909 0.57005 0.35055 0.0
O102 O 0.47317 0.5663 0.3041 0.0
C103 C 0.43905 0.48606 0.41495 0.0
O104 O 0.50267 0.53455 0.40118 0.0
O105 O 0.48664 0.56852 0.3938 0.0
C106 C 0.51673 0.53779 0.30568 0.0
O107 O 0.45218 0.4786 0.39153 0.0
O108 O 0.44317 0.51351 0.41622 0.0
C109 C 0.39663 0.50965 0.33828 0.0
Fe110 Fe 0.44544 0.88282 0.36545 0.0
Fe111 Fe 0.45456 0.90711 0.29033 0.0
O112 O 0.46025 0.9145 0.33584 0.0
Fe113 Fe 0.48078 0.95346 0.35187 0.0
O114 O 0.49782 0.94418 0.38982 0.0
O115 O 0.48434 0.89491 0.38116 0.0
O116 O 0.45007 0.85627 0.33581 0.0
C117 C 0.4683 0.86214 0.31003 0.0
C118 C 0.43357 0.92655 0.39994 0.0
O119 O 0.47527 0.88528 0.29043 0.0
C120 C 0.44448 0.95652 0.29596 0.0
O121 O 0.40568 0.86894 0.35112 0.0
O122 O 0.41618 0.87131 0.2949 0.0
O123 O 0.44693 0.9477 0.37711 0.0
O124 O 0.43815 0.90349 0.40083 0.0
C125 C 0.51675 0.95775 0.29515 0.0
O126 O 0.43358 0.92832 0.28708 0.0
O127 O 0.46755 0.96968 0.31676 0.0
C128 C 0.39659 0.86207 0.31987 0.0
O129 O 0.49181 0.94166 0.27782 0.0
O130 O 0.51581 0.96149 0.32772 0.0
C131 C 0.50243 0.92132 0.39444 0.0
Fe132 Fe 0.74917 0.87059 0.63305 0.0
Fe133 Fe 0.69858 0.8414 0.69045 0.0
O134 O 0.73845 0.86342 0.67772 0.0
Fe135 Fe 0.768 0.87863 0.70997 0.0
O136 O 0.78048 0.9184 0.69652 0.0
O137 O 0.7836 0.90954 0.64064 0.0
O138 O 0.72689 0.89019 0.62694 0.0
C139 C 0.69821 0.87863 0.63396 0.0
C140 C 0.79443 0.85924 0.65701 0.0
O141 O 0.68416 0.8552 0.65417 0.0
C142 C 0.72972 0.82026 0.73583 0.0
O143 O 0.71681 0.83311 0.61783 0.0
O144 O 0.69289 0.80747 0.6658 0.0
O145 O 0.79778 0.87683 0.68274 0.0
O146 O 0.77205 0.8512 0.63604 0.0
C147 C 0.72077 0.88702 0.7404 0.0
O148 O 0.70634 0.8236 0.72897 0.0
O149 O 0.75672 0.83973 0.72478 0.0
C150 C 0.69975 0.80767 0.63395 0.0
O151 O 0.70156 0.87408 0.71577 0.0
O152 O 0.74405 0.8831 0.74363 0.0
C153 C 0.78924 0.92835 0.66586 0.0
Fe154 Fe 0.13124 0.8688 0.63477 0.0
Fe155 Fe 0.15265 0.84177 0.69411 0.0
O156 O 0.13448 0.863 0.67987 0.0
Fe157 Fe 0.11938 0.87853 0.71081 0.0
O158 O 0.08754 0.87475 0.68283 0.0
O159 O 0.08878 0.84844 0.63716 0.0
O160 O 0.12757 0.83141 0.62123 0.0
C161 C 0.11849 0.8063 0.63831 0.0
C162 C 0.14644 0.92709 0.66496 0.0
O163 O 0.12438 0.80707 0.67052 0.0
C164 C 0.17545 0.88889 0.74236 0.0
O165 O 0.17329 0.88937 0.62962 0.0
O166 O 0.18106 0.85484 0.65755 0.0
O167 O 0.14586 0.91814 0.69598 0.0
O168 O 0.13436 0.90734 0.64035 0.0
C169 C 0.10019 0.82117 0.73925 0.0
O170 O 0.18205 0.87525 0.7187 0.0
O171 O 0.14812 0.88495 0.74476 0.0
C172 C 0.1906 0.87817 0.63705 0.0
O173 O 0.1272 0.8249 0.73309 0.0
O174 O 0.09227 0.83988 0.72698 0.0
C175 C 0.07379 0.85623 0.65763 0.0
Fe176 Fe 0.1539 0.30192 0.69939 0.0
Fe177 Fe 0.11664 0.23273 0.7203 0.0
O178 O 0.1306 0.26193 0.68756 0.0
Fe179 Fe 0.12124 0.25085 0.64329 0.0
O180 O 0.15836 0.28259 0.626 0.0
O181 O 0.18633 0.30647 0.67263 0.0
O182 O 0.17303 0.29415 0.73661 0.0
C183 C 0.17626 0.27057 0.74273 0.0
C184 C 0.11449 0.30254 0.64558 0.0
O185 O 0.15611 0.24363 0.73228 0.0
C186 C 0.0648 0.21143 0.67972 0.0
O187 O 0.12278 0.29996 0.7269 0.0
O188 O 0.11433 0.2575 0.75455 0.0
O189 O 0.10214 0.27371 0.63915 0.0
O190 O 0.13903 0.31653 0.66418 0.0
C191 C 0.13203 0.20472 0.66547 0.0
O192 O 0.07642 0.2203 0.70978 0.0
O193 O 0.08215 0.2173 0.65295 0.0
C194 C 0.11063 0.28101 0.75199 0.0
O195 O 0.11614 0.20226 0.69247 0.0
O196 O 0.13996 0.22712 0.64449 0.0
C197 C 0.18462 0.29962 0.64058 0.0
H198 H 0.39584 0.11425 0.92212 0.0
H199 H 0.36733 0.06626 0.88781 0.0
H200 H 0.27988 0.05194 0.92983 0.0
H201 H 0.30821 0.09986 0.96469 0.0
H202 H 0.28503 0.99628 0.92546 0.0
H203 H 0.31674 0.0636 0.8007 0.0
H204 H 0.34893 0.0706 0.82856 0.0
H205 H 0.32137 0.08207 0.84278 0.0
C206 C 0.37054 0.10085 0.92428 0.0
C207 C 0.35425 0.11116 0.94579 0.0
C208 C 0.35432 0.07345 0.90458 0.0
C209 C 0.32152 0.05594 0.90583 0.0
C210 C 0.30523 0.0653 0.92841 0.0
H211 H 0.1649 0.91061 0.80333 0.0
H212 H 0.2034 0.94771 0.8441 0.0
C213 C 0.32144 0.0927 0.94825 0.0
C214 C 0.30406 0.02867 0.88241 0.0
H215 H 0.28577 0.00883 0.79658 0.0
C216 C 0.28534 -0.00107 0.89727 0.0
C217 C 0.30475 0.03223 0.84563 0.0
C218 C 0.32381 0.06384 0.82834 0.0
C219 C 0.26674 0.97267 0.87628 0.0
C220 C 0.2665 0.97647 0.83961 0.0
C221 C 0.28614 0.00598 0.82469 0.0
C222 C 0.24348 0.95122 0.81667 0.0
C223 C 0.24727 0.94118 0.89358 0.0
C224 C 0.25323 0.94102 0.78738 0.0
C225 C 0.23113 0.91975 0.76369 0.0
C226 C 0.19901 0.90877 0.76875 0.0
C227 C 0.18943 0.91858 0.79857 0.0
C228 C 0.21142 0.9396 0.82218 0.0
H229 H 0.25772 0.93998 0.91886 0.0
H230 H 0.22354 0.93744 0.89914 0.0
H231 H 0.24479 0.92186 0.87643 0.0
H232 H 0.27794 0.95003 0.7825 0.0
H233 H 0.23923 0.91277 0.74088 0.0
H234 H 0.88443 0.26793 0.93722 0.0
H235 H 0.93269 0.2912 0.90275 0.0
H236 H 0.95261 0.22061 0.94044 0.0
H237 H 0.90445 0.19717 0.9753 0.0
H238 H 0.00609 0.28453 0.9375 0.0
H239 H 0.93787 0.24571 0.81344 0.0
H240 H 0.92881 0.26857 0.84287 0.0
H241 H 0.92032 0.23003 0.8555 0.0
C242 C 0.89916 0.25744 0.93846 0.0
C243 C 0.89033 0.23038 0.95867 0.0
C244 C 0.92671 0.27079 0.91869 0.0
C245 C 0.94588 0.25731 0.91869 0.0
C246 C 0.93799 0.23125 0.94006 0.0
H247 H 0.09316 0.25246 0.81543 0.0
H248 H 0.05693 0.25443 0.85714 0.0
C249 C 0.91043 0.21786 0.95989 0.0
C250 C 0.97316 0.26911 0.89491 0.0
H251 H 0.99257 0.27095 0.80886 0.0
C252 C 0.00324 0.28192 0.90934 0.0
C253 C 0.96931 0.26589 0.85819 0.0
C254 C 0.93737 0.25164 0.84141 0.0
C255 C 0.02958 0.29077 0.88799 0.0
C256 C 0.02552 0.28607 0.85141 0.0
C257 C 0.99563 0.27464 0.8369 0.0
C258 C 0.05089 0.28878 0.82826 0.0
C259 C 0.06141 0.30462 0.90486 0.0
C260 C 0.05951 0.30738 0.79793 0.0
C261 C 0.08024 0.30617 0.77369 0.0
C262 C 0.09225 0.28598 0.77927 0.0
C263 C 0.08433 0.26825 0.81027 0.0
C264 C 0.06382 0.26958 0.8344 0.0
H265 H 0.06233 0.31689 0.92962 0.0
H266 H 0.06621 0.28548 0.91133 0.0
H267 H 0.08019 0.32139 0.88709 0.0
H268 H 0.04948 0.3221 0.79254 0.0
H269 H 0.08577 0.31996 0.74997 0.0
H270 H 0.67918 0.78157 0.77726 0.0
H271 H 0.67748 0.74575 0.82308 0.0
H272 H 0.77184 0.76911 0.79691 0.0
H273 H 0.77387 0.80457 0.75145 0.0
H274 H 0.69164 0.69277 0.81822 0.0
H275 H 0.77196 0.79132 0.90384 0.0
H276 H 0.74973 0.7957 0.86897 0.0
H277 H 0.78526 0.79532 0.85932 0.0
C278 C 0.69942 0.7788 0.78108 0.0
C279 C 0.72681 0.79625 0.76107 0.0
C280 C 0.6984 0.75841 0.80723 0.0
C281 C 0.72475 0.75537 0.81362 0.0
C282 C 0.75149 0.77163 0.79266 0.0
H283 H 0.78002 0.63564 0.90116 0.0
H284 H 0.75807 0.66155 0.86667 0.0
C285 C 0.75255 0.79187 0.76668 0.0
C286 C 0.72535 0.73604 0.84267 0.0
H287 H 0.76818 0.74166 0.91492 0.0
C288 C 0.70783 0.70331 0.83985 0.0
C289 C 0.74604 0.74995 0.87112 0.0
C290 C 0.76412 0.78502 0.87629 0.0
C291 C 0.71226 0.68411 0.86351 0.0
C292 C 0.73519 0.6982 0.89004 0.0
C293 C 0.75088 0.73086 0.89434 0.0
C294 C 0.74561 0.6801 0.91141 0.0
C295 C 0.69292 0.64902 0.85932 0.0
C296 C 0.74663 0.68255 0.94802 0.0
C297 C 0.75973 0.6682 0.96786 0.0
C298 C 0.77213 0.65124 0.95136 0.0
C299 C 0.77064 0.64847 0.91471 0.0
C300 C 0.75772 0.66295 0.89494 0.0
H301 H 0.66981 0.64206 0.84735 0.0
H302 H 0.70536 0.64098 0.84162 0.0
H303 H 0.689 0.63682 0.88483 0.0
H304 H 0.73769 0.69594 0.96121 0.0
H305 H 0.76031 0.67059 0.99607 0.0
H306 H 0.03695 0.79308 0.74117 0.0
H307 H 0.00178 0.75985 0.78731 0.0
H308 H 0.08007 0.76398 0.84235 0.0
H309 H 0.11551 0.79665 0.79532 0.0
H310 H 0.02753 0.70572 0.84664 0.0
H311 H -0.00238 0.79663 0.88032 0.0
H312 H 0.98993 0.78593 0.83508 0.0
H313 H 0.02953 0.80416 0.85126 0.0
C314 C 0.04666 0.78664 0.76292 0.0
C315 C 0.07899 0.79775 0.76494 0.0
C316 C 0.02657 0.76783 0.78937 0.0
C317 C 0.03846 0.76032 0.8188 0.0
C318 C 0.0705 0.76986 0.82003 0.0
H319 H 0.90713 0.69088 0.99476 0.0
H320 H 0.95603 0.72115 0.96199 0.0
C321 C 0.09067 0.78841 0.79316 0.0
C322 C 0.01727 0.74335 0.84847 0.0
H323 H 0.96197 0.74462 0.90106 0.0
C324 C 0.01348 0.71437 0.85896 0.0
C325 C -0.00034 0.75509 0.86534 0.0
C326 C 0.00465 0.78733 0.8577 0.0
C327 C 0.99111 0.69594 0.88434 0.0
C328 C 0.97145 0.70642 0.89878 0.0
C329 C 0.97664 0.73625 0.88974 0.0
C330 C 0.944 0.68629 0.92134 0.0
C331 C 0.98883 0.66547 0.89529 0.0
C332 C 0.92107 0.65646 0.90973 0.0
C333 C 0.89339 0.63896 0.9287 0.0
C334 C 0.88766 0.65126 0.95923 0.0
C335 C 0.91082 0.68086 0.97123 0.0
C336 C 0.93878 0.69814 0.95255 0.0
H337 H 0.01193 0.66677 0.89301 0.0
H338 H 0.98033 0.65918 0.92264 0.0
H339 H 0.97231 0.64645 0.87767 0.0
H340 H 0.92392 0.64715 0.8852 0.0
H341 H 0.87591 0.61634 0.91856 0.0
H342 H 0.19308 0.22666 0.75457 0.0
H343 H 0.22907 0.22757 0.79863 0.0
H344 H 0.25137 0.32059 0.82982 0.0
H345 H 0.21507 0.32 0.78538 0.0
H346 H 0.30467 0.30906 0.8232 0.0
H347 H 0.20762 0.22147 0.90541 0.0
H348 H 0.20435 0.21001 0.86029 0.0
H349 H 0.20193 0.24409 0.87205 0.0
C350 C 0.20567 0.24745 0.77061 0.0
C351 C 0.20085 0.2731 0.76681 0.0
C352 C 0.22618 0.24786 0.79583 0.0
C353 C 0.24225 0.27384 0.81788 0.0
C354 C 0.23884 0.30021 0.81318 0.0
H355 H 0.33137 0.23388 0.99337 0.0
H356 H 0.30375 0.25614 0.96201 0.0
C357 C 0.21819 0.29984 0.78778 0.0
C358 C 0.26197 0.27255 0.84609 0.0
H359 H 0.25824 0.22674 0.91474 0.0
C360 C 0.29461 0.29155 0.84372 0.0
C361 C 0.2487 0.25017 0.87323 0.0
C362 C 0.2137 0.23047 0.8782 0.0
C363 C 0.31443 0.28702 0.86628 0.0
C364 C 0.30112 0.26252 0.89125 0.0
C365 C 0.26846 0.24525 0.89532 0.0
C366 C 0.32021 0.25212 0.91078 0.0
C367 C 0.3494 0.30798 0.86254 0.0
C368 C 0.33837 0.24224 0.89235 0.0
C369 C 0.35409 0.22953 0.91009 0.0
C370 C 0.35166 0.22602 0.94667 0.0
C371 C 0.33362 0.23612 0.96517 0.0
C372 C 0.31795 0.24898 0.94734 0.0
H373 H 0.35532 0.33146 0.85247 0.0
H374 H 0.36159 0.31097 0.88787 0.0
H375 H 0.35842 0.29742 0.84343 0.0
H376 H 0.33969 0.24352 0.86406 0.0
H377 H 0.36772 0.22196 0.89497 0.0
H378 H 0.74062 0.89738 0.80776 0.0
H379 H 0.74187 0.93662 0.84776 0.0
H380 H 0.69412 0.96184 0.77132 0.0
H381 H 0.69244 0.9221 0.731 0.0
H382 H 0.75596 0.01154 0.79665 0.0
H383 H 0.67371 0.94547 0.90471 0.0
H384 H 0.69885 0.93078 0.89087 0.0
H385 H 0.66997 0.92942 0.86124 0.0
C386 C 0.72971 0.91076 0.79975 0.0
C387 C 0.71651 0.90681 0.76626 0.0
C388 C 0.73027 0.93301 0.82272 0.0
C389 C 0.71785 0.95187 0.81256 0.0
C390 C 0.70351 0.9472 0.77968 0.0
H391 H 0.76254 0.13122 0.90664 0.0
H392 H 0.74139 0.08534 0.86858 0.0
C393 C 0.70251 0.92451 0.75678 0.0
C394 C 0.72385 0.979 0.83452 0.0
H395 H 0.71139 -0.00097 0.916 0.0
C396 C 0.74585 0.00898 0.82252 0.0
C397 C 0.71095 0.97531 0.86838 0.0
C398 C 0.68686 0.94354 0.8821 0.0
C399 C 0.75636 0.03538 0.84409 0.0
C400 C 0.74372 0.03175 0.87823 0.0
C401 C 0.72106 0.00178 0.88987 0.0
C402 C 0.75447 0.05867 0.90251 0.0
C403 C 0.78202 0.06661 0.83066 0.0
C404 C 0.76757 0.05837 0.93502 0.0
C405 C 0.77926 0.08443 0.95719 0.0
C406 C 0.77823 0.11129 0.94701 0.0
C407 C 0.76428 0.11113 0.91489 0.0
C408 C 0.75224 0.08495 0.89304 0.0
H409 H 0.79499 0.06376 0.80846 0.0
H410 H 0.77149 0.08053 0.82115 0.0
H411 H 0.79904 0.08012 0.85164 0.0
H412 H 0.76934 0.03821 0.94293 0.0
H413 H 0.78967 0.0838 0.98187 0.0
H414 H 0.82383 0.22658 0.14627 0.0
H415 H 0.85893 0.26599 0.18789 0.0
H416 H 0.93821 0.28571 0.12273 0.0
H417 H 0.90306 0.24595 0.08051 0.0
H418 H 0.94357 0.2825 0.20422 0.0
H419 H 0.9024 0.36146 0.15366 0.0
H420 H 0.87228 0.32214 0.16407 0.0
H421 H 0.89898 0.3287 0.12879 0.0
C422 C 0.84877 0.23891 0.14089 0.0
C423 C 0.86065 0.2334 0.10986 0.0
C424 C 0.86876 0.26137 0.16478 0.0
C425 C 0.90098 0.27886 0.15809 0.0
C426 C 0.91331 0.27234 0.12821 0.0
H427 H 0.04748 0.44013 0.26829 0.0
H428 H 0.01898 0.3928 0.23296 0.0
C429 C 0.89324 0.24967 0.10419 0.0
C430 C 0.92097 0.30572 0.1809 0.0
H431 H 0.93328 0.37766 0.20493 0.0
C432 C 0.94163 0.30347 0.2043 0.0
C433 C 0.91819 0.33288 0.18078 0.0
C434 C 0.89697 0.33673 0.15533 0.0
C435 C 0.95901 0.32754 0.22847 0.0
C436 C 0.95575 0.35448 0.22875 0.0
C437 C 0.93547 0.35683 0.20486 0.0
C438 C 0.97333 0.3809 0.25319 0.0
C439 C 0.98 0.32362 0.25411 0.0
C440 C 0.95708 0.38988 0.27633 0.0
C441 C 0.97325 0.41708 0.29643 0.0
C442 C 0.00598 0.43594 0.29348 0.0
C443 C 0.02227 0.42621 0.27116 0.0
C444 C 0.00606 0.39901 0.2511 0.0
H445 H 0.97412 0.29877 0.2562 0.0
H446 H 0.00468 0.33768 0.24516 0.0
H447 H 0.9783 0.33212 0.2805 0.0
H448 H 0.93176 0.37623 0.27816 0.0
H449 H 0.95999 0.42382 0.31338 0.0
H450 H 0.52278 0.53505 0.2351 0.0
H451 H 0.57094 0.55844 0.20077 0.0
H452 H 0.62517 0.59811 0.2946 0.0
H453 H 0.5769 0.57376 0.32948 0.0
H454 H 0.61597 0.61875 0.19103 0.0
H455 H 0.66665 0.5524 0.25428 0.0
H456 H 0.62664 0.54274 0.26144 0.0
H457 H 0.65811 0.57585 0.28325 0.0
C458 C 0.54493 0.54865 0.24852 0.0
C459 C 0.54606 0.55225 0.28506 0.0
C460 C 0.57245 0.56213 0.22883 0.0
C461 C 0.60168 0.5797 0.24515 0.0
C462 C 0.60292 0.58404 0.28156 0.0
H463 H 0.77919 0.64803 0.12828 0.0
H464 H 0.74328 0.64921 0.17229 0.0
C465 C 0.57533 0.57018 0.30142 0.0
C466 C 0.63057 0.59273 0.22364 0.0
H467 H 0.69487 0.58556 0.20766 0.0
C468 C 0.63347 0.61186 0.19498 0.0
C469 C 0.65345 0.58379 0.22889 0.0
C470 C 0.65108 0.56238 0.25842 0.0
C471 C 0.65774 0.62096 0.17051 0.0
C472 C 0.67966 0.61084 0.17497 0.0
C473 C 0.67799 0.59339 0.20464 0.0
C474 C 0.70132 0.61375 0.14666 0.0
C475 C 0.65912 0.6402 0.1392 0.0
C476 C 0.68939 0.59366 0.11776 0.0
C477 C 0.70967 0.59259 0.0931 0.0
C478 C 0.74225 0.61183 0.09673 0.0
C479 C 0.75416 0.63312 0.12479 0.0
C480 C 0.73376 0.63378 0.1499 0.0
H481 H 0.64485 0.65166 0.14318 0.0
H482 H 0.68372 0.65846 0.13351 0.0
H483 H 0.64994 0.62468 0.11595 0.0
H484 H 0.6644 0.57784 0.1151 0.0
H485 H 0.6999 0.57606 0.07164 0.0
H486 H 0.36112 0.09474 0.06786 0.0
H487 H 0.36215 0.05734 0.10949 0.0
H488 H 0.43256 0.13412 0.17015 0.0
H489 H 0.43201 0.17138 0.12888 0.0
H490 H 0.4489 0.08954 0.14983 0.0
H491 H 0.33081 0.03363 0.21174 0.0
H492 H 0.3318 0.03461 0.16468 0.0
H493 H 0.34736 0.0706 0.18881 0.0
C494 C 0.37642 0.1036 0.0904 0.0
C495 C 0.39662 0.136 0.09493 0.0
C496 C 0.37687 0.08224 0.11421 0.0
C497 C 0.39729 0.09304 0.14298 0.0
C498 C 0.41661 0.12534 0.14813 0.0
H499 H 0.46578 0.01932 0.30307 0.0
H500 H 0.4517 0.05153 0.26734 0.0
C501 C 0.41629 0.1466 0.12441 0.0
C502 C 0.40098 0.07106 0.1661 0.0
H503 H 0.36398 0.01374 0.22759 0.0
C504 C 0.43034 0.07299 0.16687 0.0
C505 C 0.37663 0.04939 0.18804 0.0
C506 C 0.34489 0.04693 0.18863 0.0
C507 C 0.43613 0.05393 0.18912 0.0
C508 C 0.41205 0.03274 0.21166 0.0
C509 C 0.38243 0.03027 0.21046 0.0
C510 C 0.41743 0.01279 0.23627 0.0
C511 C 0.4679 0.05636 0.18799 0.0
C512 C 0.40179 0.98023 0.23157 0.0
C513 C 0.40968 0.96173 0.25199 0.0
C514 C 0.43336 0.97552 0.2775 0.0
C515 C 0.4477 0.00798 0.28343 0.0
C516 C 0.43975 0.02644 0.263 0.0
H517 H 0.48098 0.06806 0.16373 0.0
H518 H 0.48199 0.0704 0.21066 0.0
H519 H 0.46561 0.03281 0.18966 0.0
H520 H 0.38438 0.9693 0.21116 0.0
H521 H 0.39794 0.93676 0.24693 0.0
H522 H 0.78444 0.11967 0.12874 0.0
H523 H 0.74881 0.082 0.17259 0.0
H524 H 0.6694 0.06645 0.11042 0.0
H525 H 0.70458 0.10431 0.06721 0.0
H526 H 0.697 0.09332 0.20391 0.0
H527 H 0.6545 0.97642 0.14341 0.0
H528 H 0.69257 0.00987 0.13382 0.0
H529 H 0.658 0.00676 0.11441 0.0
C530 C 0.75941 0.10755 0.12411 0.0
C531 C 0.74715 0.11483 0.09472 0.0
C532 C 0.73916 0.08621 0.14915 0.0
C533 C 0.70659 0.07142 0.14449 0.0
C534 C 0.6945 0.07743 0.11422 0.0
H535 H 0.52594 0.96673 0.22484 0.0
H536 H 0.57553 0.9931 0.19327 0.0
C537 C 0.71458 0.09908 0.08965 0.0
C538 C 0.68467 0.05249 0.17259 0.0
H539 H 0.62249 0.9797 0.18834 0.0
C540 C 0.68112 0.0683 0.20118 0.0
C541 C 0.66404 0.02003 0.16855 0.0
C542 C 0.66748 0.0021 0.13854 0.0
C543 C 0.65587 0.05288 0.22453 0.0
C544 C 0.63417 0.02062 0.21948 0.0
C545 C 0.63905 0.00444 0.19212 0.0
C546 C 0.60444 0.00411 0.23953 0.0
C547 C 0.65141 0.07178 0.25273 0.0
C548 C 0.60415 0.0014 0.27613 0.0
C549 C 0.57568 0.98666 0.29442 0.0
C550 C 0.54706 0.97397 0.27631 0.0
C551 C 0.54752 0.97626 0.23963 0.0
C552 C 0.57588 0.99124 0.2215 0.0
H553 H 0.66652 0.09742 0.2485 0.0
H554 H 0.62661 0.06614 0.25392 0.0
H555 H 0.65759 0.06599 0.27846 0.0
H556 H 0.62589 0.01058 0.29053 0.0
H557 H 0.57608 0.98489 0.32264 0.0
H558 H 0.96513 0.53763 0.32191 0.0
H559 H 0.93843 0.55755 0.28485 0.0
H560 H 0.01141 0.58612 0.20723 0.0
H561 H 0.03754 0.56533 0.24341 0.0
H562 H 0.95555 0.61508 0.25797 0.0
H563 H 0.93457 0.53113 0.15029 0.0
H564 H 0.94835 0.52764 0.19277 0.0
H565 H 0.97522 0.55505 0.16119 0.0
C566 C 0.97543 0.54815 0.29693 0.0
C567 C 0.00308 0.5494 0.28523 0.0
C568 C 0.96023 0.55958 0.27585 0.0
C569 C 0.97259 0.57266 0.24295 0.0
C570 C 0.00097 0.57526 0.23203 0.0
H571 H 0.90022 0.63966 0.07613 0.0
H572 H 0.93667 0.63597 0.11687 0.0
C573 C 0.0159 0.56343 0.25278 0.0
C574 C 0.95544 0.58287 0.21968 0.0
H575 H 0.92151 0.57038 0.13907 0.0
C576 C 0.94813 0.60534 0.23197 0.0
C577 C 0.94569 0.57003 0.18578 0.0
C578 C 0.95106 0.54441 0.17182 0.0
C579 C 0.93128 0.61526 0.21119 0.0
C580 C 0.9217 0.60245 0.17741 0.0
C581 C 0.92938 0.58042 0.1649 0.0
C582 C 0.90117 0.60923 0.15565 0.0
C583 C 0.92358 0.63917 0.2254 0.0
C584 C 0.8694 0.59572 0.16437 0.0
C585 C 0.84857 0.59741 0.1411 0.0
C586 C 0.85924 0.61285 0.10881 0.0
C587 C 0.89141 0.6278 0.10093 0.0
C588 C 0.9122 0.6257 0.12408 0.0
H589 H 0.93744 0.651 0.24917 0.0
H590 H 0.928 0.65715 0.20524 0.0
H591 H 0.89832 0.62732 0.23233 0.0
H592 H 0.86048 0.58257 0.18845 0.0
H593 H 0.82393 0.58577 0.14792 0.0
H594 H 0.43549 0.29548 0.07007 0.0
H595 H 0.43625 0.32811 0.11854 0.0
H596 H 0.36501 0.24601 0.1719 0.0
H597 H 0.36334 0.21319 0.1226 0.0
H598 H 0.35565 0.29493 0.18045 0.0
H599 H 0.47927 0.33312 0.2095 0.0
H600 H 0.47512 0.34192 0.16504 0.0
H601 H 0.45629 0.30168 0.17936 0.0
C602 C 0.41974 0.28441 0.09197 0.0
C603 C 0.3996 0.25179 0.0928 0.0
C604 C 0.42038 0.30303 0.11978 0.0
C605 C 0.40149 0.28936 0.14936 0.0
C606 C 0.3801 0.25697 0.1495 0.0
H607 H 0.45827 0.4184 0.32757 0.0
H608 H 0.44266 0.37005 0.29472 0.0
C609 C 0.37907 0.23829 0.12131 0.0
C610 C 0.40469 0.30909 0.18013 0.0
H611 H 0.45982 0.36563 0.23276 0.0
C612 C 0.37832 0.31007 0.1923 0.0
C613 C 0.43404 0.32804 0.19648 0.0
C614 C 0.46267 0.32587 0.18718 0.0
C615 C 0.38097 0.33108 0.21874 0.0
C616 C 0.41095 0.35232 0.23249 0.0
C617 C 0.43688 0.34978 0.22193 0.0
C618 C 0.41666 0.37909 0.2553 0.0
C619 C 0.35161 0.33035 0.23142 0.0
C620 C 0.40704 0.40013 0.24434 0.0
C621 C 0.41552 0.42741 0.26329 0.0
C622 C 0.43452 0.43475 0.29318 0.0
C623 C 0.44373 0.41346 0.30457 0.0
C624 C 0.43477 0.38581 0.28585 0.0
H625 H 0.33105 0.30628 0.22962 0.0
H626 H 0.35393 0.33854 0.25891 0.0
H627 H 0.34677 0.34572 0.21451 0.0
H628 H 0.39404 0.39617 0.22027 0.0
H629 H 0.40822 0.4434 0.25357 0.0
H630 H 0.64287 0.75493 0.64426 0.0
H631 H 0.61764 0.70879 0.60635 0.0
H632 H 0.70059 0.74738 0.54156 0.0
H633 H 0.72515 0.79419 0.57835 0.0
H634 H 0.65313 0.73103 0.50274 0.0
H635 H 0.62262 0.63177 0.5916 0.0
H636 H 0.60718 0.65525 0.60835 0.0
H637 H 0.64902 0.67183 0.60441 0.0
C638 C 0.65583 0.75325 0.62225 0.0
C639 C 0.68577 0.77816 0.61397 0.0
C640 C 0.64155 0.72673 0.60078 0.0
C641 C 0.65737 0.72431 0.57132 0.0
C642 C 0.68791 0.74865 0.56411 0.0
H643 H 0.55449 0.5574 0.4363 0.0
H644 H 0.59561 0.59609 0.47475 0.0
C645 C 0.70188 0.77541 0.58507 0.0
C646 C 0.64073 0.69851 0.54571 0.0
H647 H 0.59092 0.61959 0.53879 0.0
C648 C 0.6401 0.70662 0.51062 0.0
C649 C 0.62415 0.66652 0.55557 0.0
C650 C 0.6261 0.65585 0.59198 0.0
C651 C 0.62187 0.68394 0.4857 0.0
C652 C 0.6029 0.65243 0.49637 0.0
C653 C 0.60505 0.64389 0.53082 0.0
C654 C 0.57858 0.62888 0.47303 0.0
C655 C 0.62266 0.69414 0.4483 0.0
C656 C 0.55523 0.63435 0.45988 0.0
C657 C 0.53203 0.61261 0.43792 0.0
C658 C 0.53131 0.58456 0.429 0.0
C659 C 0.55446 0.57881 0.44262 0.0
C660 C 0.57791 0.60083 0.46458 0.0
H661 H 0.64549 0.71527 0.44201 0.0
H662 H 0.61859 0.67522 0.42958 0.0
H663 H 0.60408 0.7003 0.44453 0.0
H664 H 0.55481 0.65546 0.46683 0.0
H665 H 0.51446 0.61776 0.42822 0.0
H666 H 0.41132 0.96775 0.40363 0.0
H667 H 0.37536 0.96858 0.44768 0.0
H668 H 0.37446 0.8913 0.50153 0.0
H669 H 0.41024 0.89042 0.45827 0.0
H670 H 0.31528 0.91843 0.46206 0.0
H671 H 0.38856 0.9521 0.58135 0.0
H672 H 0.40496 0.9582 0.53781 0.0
H673 H 0.38825 0.92026 0.55818 0.0
C674 C 0.40382 0.95128 0.42517 0.0
C675 C 0.41368 0.92905 0.42741 0.0
C676 C 0.38329 0.95178 0.45027 0.0
C677 C 0.37269 0.93035 0.47819 0.0
C678 C 0.38291 0.90853 0.48071 0.0
H679 H 0.22893 0.85267 0.63429 0.0
H680 H 0.27489 0.86908 0.59672 0.0
C681 C 0.40321 0.90792 0.45569 0.0
C682 C 0.34884 0.92863 0.50314 0.0
H683 H 0.33286 0.92697 0.59039 0.0
C684 C 0.31924 0.92086 0.49008 0.0
C685 C 0.35407 0.93162 0.53969 0.0
C686 C 0.38579 0.9413 0.5551 0.0
C687 C 0.29427 0.91451 0.51268 0.0
C688 C 0.29925 0.91657 0.54928 0.0
C689 C 0.3291 0.92528 0.56232 0.0
C690 C 0.27335 0.90859 0.57433 0.0
C691 C 0.26241 0.90426 0.49722 0.0
C692 C 0.25794 0.92597 0.57497 0.0
C693 C 0.23166 0.91662 0.59624 0.0
C694 C 0.22039 0.88978 0.6175 0.0
C695 C 0.23688 0.87334 0.61813 0.0
C696 C 0.26315 0.88269 0.5967 0.0
H697 H 0.26096 0.89719 0.46936 0.0
H698 H 0.24375 0.8843 0.51216 0.0
H699 H 0.25769 0.92401 0.49855 0.0
H700 H 0.26585 0.94642 0.55844 0.0
H701 H 0.21981 0.9301 0.59544 0.0
H702 H 0.13932 0.36631 0.64407 0.0
H703 H 0.12117 0.39573 0.60915 0.0
H704 H 0.04423 0.30911 0.57038 0.0
H705 H 0.06176 0.27952 0.60542 0.0
H706 H 0.11673 0.39201 0.53644 0.0
H707 H 0.00146 0.35931 0.59607 0.0
H708 H 0.03051 0.35352 0.61821 0.0
H709 H 0.00641 0.32667 0.58471 0.0
C710 C 0.11825 0.35351 0.62857 0.0
C711 C 0.10214 0.32058 0.62738 0.0
C712 C 0.10792 0.37034 0.60865 0.0
C713 C 0.0812 0.35456 0.58748 0.0
C714 C 0.06455 0.32173 0.58704 0.0
H715 H 0.01477 0.42382 0.41608 0.0
H716 H 0.01953 0.38894 0.45852 0.0
C717 C 0.07482 0.30488 0.6069 0.0
C718 C 0.07246 0.37239 0.56341 0.0
H719 H 0.01371 0.38703 0.54202 0.0
C720 C 0.09425 0.391 0.53776 0.0
C721 C 0.04296 0.37071 0.565 0.0
C722 C 0.01904 0.35169 0.59265 0.0
C723 C 0.08738 0.40805 0.51363 0.0
C724 C 0.0581 0.40667 0.51546 0.0
C725 C 0.03606 0.38779 0.54074 0.0
C726 C 0.05126 0.42656 0.4926 0.0
C727 C 0.11151 0.42757 0.48633 0.0
C728 C 0.06676 0.45891 0.49854 0.0
C729 C 0.0642 0.47872 0.47455 0.0
C730 C 0.04597 0.46653 0.44416 0.0
C731 C 0.02894 0.43386 0.43926 0.0
C732 C 0.03163 0.41395 0.4634 0.0
H733 H 0.13034 0.4215 0.4842 0.0
H734 H 0.10031 0.42443 0.46032 0.0
H735 H 0.12247 0.45272 0.49347 0.0
H736 H 0.08185 0.46894 0.5211 0.0
H737 H 0.07737 0.50375 0.47932 0.0
H738 H 0.19097 0.28381 0.57386 0.0
H739 H 0.23753 0.30861 0.53671 0.0
H740 H 0.2896 0.37236 0.62034 0.0
H741 H 0.24331 0.34719 0.65803 0.0
H742 H 0.2665 0.36817 0.51531 0.0
H743 H 0.35138 0.34671 0.58713 0.0
H744 H 0.30994 0.32584 0.59689 0.0
H745 H 0.33486 0.3646 0.61411 0.0
C746 C 0.21241 0.30291 0.58452 0.0
C747 C 0.21337 0.31365 0.61886 0.0
C748 C 0.23903 0.31697 0.56327 0.0
C749 C 0.26717 0.34205 0.57587 0.0
C750 C 0.26838 0.35252 0.61033 0.0
H751 H 0.41648 0.49746 0.47488 0.0
H752 H 0.37645 0.45912 0.5139 0.0
C753 C 0.2418 0.33829 0.63175 0.0
C754 C 0.29423 0.35912 0.55192 0.0
H755 H 0.37296 0.38744 0.54341 0.0
C756 C 0.28963 0.3719 0.52121 0.0
C757 C 0.32441 0.36388 0.55953 0.0
C758 C 0.33042 0.34925 0.59104 0.0
C759 C 0.31463 0.39038 0.4987 0.0
C760 C 0.34498 0.39637 0.50722 0.0
C761 C 0.34956 0.38278 0.53716 0.0
C762 C 0.37231 0.41884 0.48651 0.0
C763 C 0.30877 0.40429 0.46642 0.0
C764 C 0.38366 0.40867 0.45877 0.0
C765 C 0.40665 0.43057 0.43626 0.0
C766 C 0.41836 0.46285 0.44123 0.0
C767 C 0.40786 0.47279 0.47016 0.0
C768 C 0.38506 0.45096 0.49258 0.0
H769 H 0.28336 0.39462 0.46144 0.0
H770 H 0.31998 0.43008 0.46959 0.0
H771 H 0.31949 0.39978 0.44316 0.0
H772 H 0.37384 0.38386 0.45371 0.0
H773 H 0.41419 0.42219 0.41416 0.0
H774 H 0.52615 0.96022 0.45117 0.0
H775 H 0.56097 0.95915 0.49618 0.0
H776 H 0.56775 0.88754 0.43822 0.0
H777 H 0.53207 0.8876 0.39415 0.0
H778 H 0.55315 0.871 0.5041 0.0
H779 H 0.65388 0.99267 0.4995 0.0
H780 H 0.61679 0.99023 0.50716 0.0
H781 H 0.62403 0.97704 0.46614 0.0
C782 C 0.53553 0.94465 0.44785 0.0
C783 C 0.52636 0.92388 0.41934 0.0
C784 C 0.55552 0.94416 0.47347 0.0
C785 C 0.56717 0.92344 0.47043 0.0
C786 C 0.55896 0.90364 0.44117 0.0
H787 H 0.7144 0.91208 0.57316 0.0
H788 H 0.68172 0.92525 0.5374 0.0
C789 C 0.53861 0.90371 0.416 0.0
C790 C 0.58599 0.92037 0.49869 0.0
H791 H 0.65426 0.95991 0.54463 0.0
C792 C 0.57526 0.89046 0.51299 0.0
C793 C 0.61482 0.94579 0.5102 0.0
C794 C 0.62826 0.97819 0.49476 0.0
C795 C 0.59295 0.88497 0.53761 0.0
C796 C 0.62167 0.91041 0.5494 0.0
C797 C 0.63207 0.94053 0.5358 0.0
C798 C 0.64247 0.90562 0.57339 0.0
C799 C 0.58133 0.85166 0.54934 0.0
C800 C 0.63167 0.89112 0.60607 0.0
C801 C 0.65008 0.88294 0.62628 0.0
C802 C 0.6799 0.88987 0.61451 0.0
C803 C 0.69147 0.90629 0.5829 0.0
C804 C 0.67284 0.91393 0.56245 0.0
H805 H 0.5634 0.83432 0.53123 0.0
H806 H 0.6009 0.84669 0.55113 0.0
H807 H 0.57036 0.84809 0.57557 0.0
H808 H 0.60866 0.88534 0.61549 0.0
H809 H 0.6408 0.87079 0.65084 0.0
H810 H 0.08788 0.62345 0.41465 0.0
H811 H 0.08672 0.65692 0.46088 0.0
H812 H 0.00221 0.57922 0.50269 0.0
H813 H 0.00313 0.54508 0.45618 0.0
H814 H 0.01097 0.64871 0.49533 0.0
H815 H 0.10105 0.63565 0.56843 0.0
H816 H 0.10751 0.64168 0.52202 0.0
H817 H 0.07422 0.60645 0.53799 0.0
C818 C 0.06878 0.61344 0.43336 0.0
C819 C 0.0458 0.5815 0.43205 0.0
C820 C 0.06817 0.63263 0.45971 0.0
C821 C 0.04463 0.62034 0.48525 0.0
C822 C 0.0206 0.58896 0.48312 0.0
H823 H 0.09499 0.74709 0.66542 0.0
H824 H 0.06953 0.69731 0.63336 0.0
C825 C 0.02114 0.56959 0.45656 0.0
C826 C 0.04696 0.64035 0.51511 0.0
H827 H 0.09575 0.67988 0.58287 0.0
C828 C 0.02894 0.65507 0.51507 0.0
C829 C 0.07011 0.64814 0.54101 0.0
C830 C 0.08923 0.63201 0.54272 0.0
C831 C 0.03513 0.6792 0.5389 0.0
C832 C 0.06034 0.68906 0.56269 0.0
C833 C 0.07662 0.67253 0.56444 0.0
C834 C 0.07274 0.71858 0.58288 0.0
C835 C 0.01525 0.69452 0.53763 0.0
C836 C 0.08327 0.747 0.56507 0.0
C837 C 0.09785 0.77535 0.58319 0.0
C838 C 0.10258 0.77597 0.61952 0.0
C839 C 0.09183 0.74744 0.63742 0.0
C840 C 0.07714 0.71898 0.6192 0.0
H841 H 0.99119 0.67777 0.52834 0.0
H842 H 0.01367 0.70363 0.5637 0.0
H843 H 0.0258 0.71438 0.5189 0.0
H844 H 0.08103 0.74736 0.53691 0.0
H845 H 0.10583 0.79683 0.56852 0.0
H846 H 0.48524 0.18215 0.92564 0.0
H847 H 0.52419 0.16638 0.91375 0.0
H848 H 0.53304 0.15594 0.02451 0.0
H849 H 0.49383 0.17095 0.0366 0.0
H850 H 0.58381 0.19816 0.93456 0.0
H851 H 0.53055 0.07828 0.9876 0.0
H852 H 0.50782 0.09704 0.97875 0.0
H853 H 0.52886 0.10416 0.01938 0.0
C854 C 0.49517 0.17607 0.94744 0.0
C855 C 0.48662 0.17804 0.9821 0.0
C856 C 0.5173 0.16692 0.94056 0.0
C857 C 0.53109 0.15943 0.96817 0.0
C858 C 0.52205 0.16071 0.00271 0.0
H859 H 0.69292 0.17383 0.03969 0.0
H860 H 0.64007 0.16207 0.02506 0.0
C861 C 0.49987 0.16969 0.00961 0.0
C862 C 0.55767 0.15413 0.96164 0.0
H863 H 0.58792 0.10858 0.98785 0.0
C864 C 0.58446 0.1781 0.9452 0.0
C865 C 0.55836 0.12782 0.9753 0.0
C866 C 0.52968 0.10024 0.99088 0.0
C867 C 0.61279 0.17791 0.94502 0.0
C868 C 0.61413 0.15294 0.96145 0.0
C869 C 0.58676 0.12774 0.97541 0.0
C870 C 0.64451 0.15548 0.96981 0.0
C871 C 0.64168 0.20561 0.92985 0.0
C872 C 0.66415 0.15484 0.9436 0.0
C873 C 0.69457 0.16162 0.95189 0.0
C874 C 0.70564 0.16935 0.98644 0.0
C875 C 0.68524 0.16843 0.01276 0.0
C876 C 0.65496 0.16148 0.00451 0.0
H877 H 0.63704 0.22419 0.92037 0.0
H878 H 0.66053 0.21591 0.94982 0.0
H879 H 0.65045 0.19772 0.90754 0.0
H880 H 0.65629 0.15004 0.91669 0.0
H881 H 0.70972 0.16196 0.93112 0.0
H882 H 0.82547 0.51541 0.06173 0.0
H883 H 0.83416 0.47099 0.05769 0.0
H884 H 0.81972 0.46693 0.94611 0.0
H885 H 0.8104 0.51113 0.94989 0.0
H886 H 0.78226 0.41107 0.97901 0.0
H887 H 0.90525 0.45924 0.02181 0.0
H888 H 0.88239 0.46774 0.05175 0.0
H889 H 0.88976 0.48392 0.00829 0.0
C890 C 0.82459 0.50543 0.0362 0.0
C891 C 0.8169 0.51663 0.00616 0.0
C892 C 0.82989 0.4802 0.03393 0.0
C893 C 0.82796 0.46592 0.00155 0.0
C894 C 0.82149 0.47778 0.97131 0.0
H895 H 0.81328 0.28636 0.95232 0.0
H896 H 0.82189 0.33953 0.94797 0.0
C897 C 0.81612 0.503 0.97355 0.0
C898 C 0.82901 0.43647 -3e-05 0.0
H899 H 0.87281 0.40317 0.02252 0.0
C900 C 0.80224 0.40942 0.988 0.0
C901 C 0.85502 0.43441 0.01204 0.0
C902 C 0.88485 0.46295 0.02389 0.0
C903 C 0.80031 0.3801 0.98884 0.0
C904 C 0.8261 0.37792 0.00143 0.0
C905 C 0.85312 0.40502 0.01289 0.0
C906 C 0.82478 0.34737 0.00387 0.0
C907 C 0.77023 0.35151 0.97747 0.0
C908 C 0.82489 0.33478 0.03672 0.0
C909 C 0.82008 0.3044 0.03935 0.0
C910 C 0.81507 0.28618 0.00911 0.0
C911 C 0.81658 0.29957 0.97616 0.0
C912 C 0.82148 0.32993 0.97358 0.0
H913 H 0.75048 0.35625 0.97591 0.0
H914 H 0.77359 0.34413 0.95114 0.0
H915 H 0.76365 0.3317 0.9958 0.0
H916 H 0.82757 0.34803 0.06038 0.0
H917 H 0.81935 0.29491 0.06511 0.0
H918 H 0.69403 0.49546 0.03469 0.0
H919 H 0.64106 0.45541 0.01883 0.0
H920 H 0.65361 0.49587 0.91594 0.0
H921 H 0.70719 0.53634 0.93155 0.0
H922 H 0.58913 0.46261 0.9923 0.0
H923 H 0.62943 0.40197 0.90017 0.0
H924 H 0.65558 0.42949 0.93228 0.0
H925 H 0.644 0.44334 0.89504 0.0
C926 C 0.68563 0.49601 0.00868 0.0
C927 C 0.70499 0.51889 0.98424 0.0
C928 C 0.65526 0.47318 -0.00026 0.0
C929 C 0.64359 0.47261 0.96619 0.0
C930 C 0.66239 0.49583 0.94189 0.0
H931 H 0.472 0.29302 0.92037 0.0
H932 H 0.51107 0.34829 0.90904 0.0
C933 C 0.69292 0.51891 0.95088 0.0
C934 C 0.61219 0.4465 0.95698 0.0
H935 H 0.57729 0.37407 0.9192 0.0
C936 C 0.58627 0.44357 0.97552 0.0
C937 C 0.60853 0.42189 0.93483 0.0
C938 C 0.63576 0.42403 0.9144 0.0
C939 C 0.55737 0.4156 0.97472 0.0
C940 C 0.55461 0.38991 0.95533 0.0
C941 C 0.5796 0.39385 0.93414 0.0
C942 C 0.5288 0.35767 0.96203 0.0
C943 C 0.53057 0.41313 0.99629 0.0
C944 C 0.52612 0.34481 0.99541 0.0
C945 C 0.50435 0.31348 0.00179 0.0
C946 C 0.48474 0.29427 0.97489 0.0
C947 C 0.48682 0.30732 0.94158 0.0
C948 C 0.50902 0.3388 0.93509 0.0
H949 H 0.53234 0.43639 0.99935 0.0
H950 H 0.5076 0.39657 0.98429 0.0
H951 H 0.53139 0.40441 0.02281 0.0
H952 H 0.54161 0.35881 0.01637 0.0
H953 H 0.50316 0.3042 0.02779 0.0
H954 H 0.3648 0.50213 0.2771 0.0
H955 H 0.31122 0.49219 0.27067 0.0
H956 H 0.29919 0.48436 0.38271 0.0
H957 H 0.35232 0.49354 0.38946 0.0
H958 H 0.24517 0.4415 0.34536 0.0
H959 H 0.29553 0.56388 0.2967 0.0
H960 H 0.306 0.53941 0.27209 0.0
H961 H 0.31932 0.54977 0.31642 0.0
C962 C 0.35061 0.49784 0.30035 0.0
C963 C 0.36305 0.4993 0.33384 0.0
C964 C 0.32005 0.49223 0.29661 0.0
C965 C 0.30161 0.48826 0.32627 0.0
C966 C 0.31318 0.48757 0.35952 0.0
H967 H 0.14247 0.49889 0.39226 0.0
H968 H 0.18445 0.48673 0.38506 0.0
C969 C 0.34362 0.49297 0.3633 0.0
C970 C 0.27152 0.48778 0.32321 0.0
H971 H 0.24095 0.53433 0.30267 0.0
C972 C 0.2441 0.46162 0.3357 0.0
C973 C 0.27036 0.5142 0.31075 0.0
C974 C 0.29935 0.54354 0.29848 0.0
C975 C 0.2155 0.46136 0.33646 0.0
C976 C 0.21458 0.4881 0.32485 0.0
C977 C 0.24178 0.51382 0.31139 0.0
C978 C 0.18639 0.49114 0.32863 0.0
C979 C 0.18663 0.43262 0.34988 0.0
C980 C 0.17369 0.49778 0.2993 0.0
C981 C 0.14995 0.5051 0.30333 0.0
C982 C 0.13867 0.50616 0.33685 0.0
C983 C 0.1507 0.4984 0.36609 0.0
C984 C 0.17448 0.49111 0.36201 0.0
H985 H 0.18891 0.41137 0.34763 0.0
H986 H 0.1833 0.43598 0.37796 0.0
H987 H 0.16539 0.42855 0.33543 0.0
H988 H 0.18276 0.49811 0.27335 0.0
H989 H 0.14105 0.51074 0.28023 0.0
H990 H 0.47676 0.82534 0.35578 0.0
H991 H 0.48912 0.78433 0.34286 0.0
H992 H 0.49597 0.80664 0.23294 0.0
H993 H 0.48378 0.84837 0.24585 0.0
H994 H 0.45317 0.74222 0.25134 0.0
H995 H 0.56956 0.78456 0.31122 0.0
H996 H 0.54359 0.7902 0.33935 0.0
H997 H 0.55558 0.81068 0.29823 0.0
C998 C 0.48134 0.82187 0.32888 0.0
C999 C 0.47906 0.83982 0.30176 0.0
C1000 C 0.48873 0.79865 0.32158 0.0
C1001 C 0.49388 0.79277 0.28702 0.0
C1002 C 0.49245 0.81116 0.25983 0.0
H1003 H 0.50663 0.61978 0.27254 0.0
H1004 H 0.51763 0.67232 0.25483 0.0
C1005 C 0.48547 0.83488 0.26721 0.0
C1006 C 0.49671 0.76483 0.27977 0.0
H1007 H 0.53511 0.72787 0.3093 0.0
C1008 C 0.47163 0.73932 0.26292 0.0
C1009 C 0.52088 0.76116 0.29476 0.0
C1010 C 0.5491 0.78824 0.31161 0.0
C1011 C 0.46857 0.70947 0.26373 0.0
C1012 C 0.49114 0.70523 0.28176 0.0
C1013 C 0.51773 0.73125 0.29569 0.0
C1014 C 0.48479 0.67361 0.29142 0.0
C1015 C 0.44014 0.68218 0.24746 0.0
C1016 C 0.46303 0.6574 0.31803 0.0
C1017 C 0.45694 0.62779 0.3284 0.0
C1018 C 0.47238 0.61366 0.31216 0.0
C1019 C 0.49425 0.63 0.2854 0.0
C1020 C 0.50059 0.65993 0.27527 0.0
H1021 H 0.42887 0.69009 0.22797 0.0
H1022 H 0.44655 0.66597 0.23451 0.0
H1023 H 0.42276 0.66891 0.26828 0.0
H1024 H 0.45084 0.66781 0.33094 0.0
H1025 H 0.43995 0.6159 0.34903 0.0
H1026 H 0.34997 0.82915 0.36737 0.0
H1027 H 0.29601 0.78882 0.35538 0.0
H1028 H 0.31299 0.80476 0.2445 0.0
H1029 H 0.36745 0.84475 0.25619 0.0
H1030 H 0.24658 0.78844 0.31971 0.0
H1031 H 0.28508 0.71212 0.25432 0.0
H1032 H 0.31181 0.74649 0.27886 0.0
H1033 H 0.29934 0.75046 0.23599 0.0
C1034 C 0.34226 0.82427 0.34041 0.0
C1035 C 0.36317 0.83976 0.31271 0.0
C1036 C 0.31135 0.8013 0.33361 0.0
C1037 C 0.3007 0.79348 0.29905 0.0
C1038 C 0.32098 0.81001 0.27134 0.0
H1039 H 0.12637 0.61465 0.26196 0.0
H1040 H 0.16755 0.66847 0.24788 0.0
C1041 C 0.35204 0.83287 0.27809 0.0
C1042 C 0.269 0.76657 0.2926 0.0
H1043 H 0.23161 0.69031 0.26567 0.0
C1044 C 0.24317 0.76716 0.30727 0.0
C1045 C 0.2646 0.73891 0.2761 0.0
C1046 C 0.29162 0.73668 0.26057 0.0
C1047 C 0.21341 0.7402 0.30785 0.0
C1048 C 0.20957 0.71203 0.29362 0.0
C1049 C 0.23475 0.71206 0.27649 0.0
C1050 C 0.18176 0.68141 0.30169 0.0
C1051 C 0.18664 0.74167 0.3251 0.0
C1052 C 0.17624 0.67111 0.3365 0.0
C1053 C 0.15328 0.64053 0.34449 0.0
C1054 C 0.13532 0.61964 0.31781 0.0
C1055 C 0.1399 0.63032 0.28301 0.0
C1056 C 0.1633 0.66097 0.27495 0.0
H1057 H 0.1902 0.76578 0.32408 0.0
H1058 H 0.16395 0.72525 0.31248 0.0
H1059 H 0.18529 0.73498 0.35303 0.0
H1060 H 0.19066 0.68633 0.35742 0.0
H1061 H 0.15007 0.63303 0.37157 0.0
H1062 H 0.03249 0.85826 0.70293 0.0
H1063 H 0.97868 0.84499 0.69173 0.0
H1064 H 0.98565 0.81822 0.58605 0.0
H1065 H 0.0401 0.8316 0.5971 0.0
H1066 H 0.96347 0.86144 0.59238 0.0
H1067 H 0.89799 0.75998 0.68015 0.0
H1068 H 0.93092 0.79158 0.70185 0.0
H1069 H 0.93735 0.77243 0.66524 0.0
C1070 C 0.0226 0.84932 0.67735 0.0
C1071 C 0.0406 0.84618 0.65081 0.0
C1072 C 0.9917 0.84142 0.67111 0.0
C1073 C 0.97807 0.83014 0.63827 0.0
C1074 C 0.99573 0.82656 0.6117 0.0
H1075 H 0.80055 0.82956 0.59912 0.0
H1076 H 0.84165 0.81635 0.5879 0.0
C1077 C 0.02676 0.83423 0.61804 0.0
C1078 C 0.9464 0.82517 0.6315 0.0
H1079 H 0.87391 0.79189 0.66897 0.0
C1080 C 0.94347 0.84552 0.6082 0.0
C1081 C 0.92042 0.80426 0.65209 0.0
C1082 C 0.92171 0.7806 0.67597 0.0
C1083 C 0.91613 0.84764 0.60749 0.0
C1084 C 0.89125 0.82872 0.63048 0.0
C1085 C 0.8932 0.80651 0.65157 0.0
C1086 C 0.86547 0.83511 0.63702 0.0
C1087 C 0.91492 0.8718 0.58438 0.0
C1088 C 0.86523 0.84963 0.66847 0.0
C1089 C 0.84207 0.85731 0.6749 0.0
C1090 C 0.81854 0.85046 0.65002 0.0
C1091 C 0.81846 0.8353 0.61872 0.0
C1092 C 0.84186 0.82775 0.61223 0.0
H1093 H 0.93692 0.88572 0.56925 0.0
H1094 H 0.89517 0.85997 0.56569 0.0
H1095 H 0.91065 0.88805 0.60052 0.0
H1096 H 0.88334 0.85546 0.68788 0.0
H1097 H 0.84269 0.86871 0.69938 0.0
H1098 H 0.19021 0.97875 0.70005 0.0
H1099 H 0.20048 0.03261 0.69406 0.0
H1100 H 0.13202 0.00286 0.61126 0.0
H1101 H 0.12318 0.94965 0.61569 0.0
H1102 H 0.1782 0.06029 0.59873 0.0
H1103 H 0.13919 0.05286 0.73679 0.0
H1104 H 0.17385 0.05004 0.73174 0.0
H1105 H 0.13712 0.0198 0.71428 0.0
C1106 C 0.1778 0.98394 0.68021 0.0
C1107 C 0.15558 0.96006 0.65869 0.0
C1108 C 0.18354 0.01461 0.67692 0.0
C1109 C 0.16629 0.02156 0.65297 0.0
C1110 C 0.1455 -0.00195 0.63006 0.0
H1111 H 0.09435 0.14307 0.67847 0.0
H1112 H 0.10669 0.10128 0.6718 0.0
C1113 C 0.14038 0.96761 0.63269 0.0
C1114 C 0.1674 0.05218 0.6537 0.0
H1115 H 0.1516 0.09862 0.70613 0.0
C1116 C 0.17259 0.06885 0.62224 0.0
C1117 C 0.15981 0.06314 0.68439 0.0
C1118 C 0.15189 0.04543 0.71862 0.0
C1119 C 0.16908 0.0954 0.62029 0.0
C1120 C 0.16113 0.10603 0.65091 0.0
C1121 C 0.1576 0.09032 0.68267 0.0
C1122 C 0.15314 0.13128 0.65053 0.0
C1123 C 0.17226 0.11075 0.58522 0.0
C1124 C 0.17481 0.16195 0.6398 0.0
C1125 C 0.16742 0.18585 0.64286 0.0
C1126 C 0.13864 0.17942 0.6575 0.0
C1127 C 0.11679 0.14864 0.66733 0.0
C1128 C 0.12386 0.12478 0.66358 0.0
H1129 H 0.17134 0.09552 0.56325 0.0
H1130 H 0.15346 0.11661 0.58146 0.0
H1131 H 0.19516 0.13284 0.58396 0.0
H1132 H 0.19777 0.16764 0.63029 0.0
H1133 H 0.18472 0.20956 0.63544 0.0
H1134 H 0.782 0.97666 0.6882 0.0
H1135 H 0.8196 0.03285 0.6821 0.0
H1136 H 0.88384 0.01074 0.62947 0.0
H1137 H 0.84519 0.9551 0.63279 0.0
H1138 H 0.87033 0.06551 0.70941 0.0
H1139 H 0.89829 0.08027 0.56979 0.0
H1140 H 0.86538 0.04475 0.58639 0.0
H1141 H 0.90396 0.04894 0.58398 0.0
C1142 C 0.80392 0.9841 0.67457 0.0
C1143 C 0.81082 0.96191 0.66064 0.0
C1144 C 0.82539 0.01611 0.67111 0.0
C1145 C 0.85445 0.02633 0.65456 0.0
C1146 C 0.86117 0.00383 0.64085 0.0
H1147 H 0.02876 0.16403 0.72388 0.0
H1148 H 0.97409 0.12404 0.71643 0.0
C1149 C 0.83927 0.97196 0.64316 0.0
C1150 C 0.87925 0.05994 0.65523 0.0
H1151 H 0.94281 0.11351 0.60909 0.0
C1152 C 0.88562 0.07629 0.68708 0.0
C1153 C 0.89871 0.07502 0.62598 0.0
C1154 C 0.89085 0.06134 0.58959 0.0
C1155 C 0.91248 0.10575 0.69131 0.0
C1156 C 0.93456 0.11832 0.66369 0.0
C1157 C 0.9266 0.10354 0.63084 0.0
C1158 C 0.96713 0.14435 0.66932 0.0
C1159 C 0.91697 0.12268 0.72562 0.0
C1160 C 0.98216 0.16852 0.64456 0.0
C1161 C 0.014 0.19066 0.64801 0.0
C1162 C 0.03103 0.18937 0.6767 0.0
C1163 C 0.0159 0.1658 0.70187 0.0
C1164 C 0.98448 0.14315 0.69783 0.0
H1165 H 0.8941 0.11852 0.73594 0.0
H1166 H 0.92669 0.11328 0.74525 0.0
H1167 H 0.93296 0.14834 0.72298 0.0
H1168 H 0.96946 0.16989 0.62218 0.0
H1169 H 0.02534 0.20873 0.6283 0.0
loop_
_geom_bond_atom_site_label_1
_geom_bond_atom_site_label_2
_geom_bond_distance
_geom_bond_site_symmetry_2
_ccdc_geom_bond_type
Fe0 O2 1.918 1_556 S
Fe0 O5 1.997 . S
Fe0 O6 2.002 . S
Fe0 O11 1.976 . S
Fe0 O14 1.996 . S
Fe1 O2 1.918 . S
Fe1 O9 1.997 1_554 S
Fe1 O12 1.996 1_554 S
Fe1 O16 1.976 . S
Fe1 O19 2.002 . S
O2 Fe0 1.918 1_554 S
O2 Fe1 1.918 . S
O2 Fe3 1.918 . S
Fe3 O2 1.918 . S
Fe3 O4 2.002 . S
Fe3 O13 1.976 . S
Fe3 O17 1.996 . S
Fe3 O20 1.997 . S
O4 Fe3 2.002 . S
O4 C21 1.295 1_554 S
O5 Fe0 1.997 . S
O5 C21 1.235 . S
O6 Fe0 2.002 . S
O6 C7 1.295 . S
C7 O6 1.295 . S
C7 O9 1.235 . S
C8 O13 1.287 1_556 S
C8 O14 1.255 . S
O9 Fe1 1.997 1_556 S
O9 C7 1.235 . S
C10 O16 1.287 . S
C10 O17 1.255 . S
O11 Fe0 1.976 . S
O11 C18 1.287 . S
O12 Fe1 1.996 1_556 S
O12 C18 1.255 . S
O13 Fe3 1.976 . S
O13 C8 1.287 1_554 S
O14 Fe0 1.996 . S
O14 C8 1.255 . S
C15 O19 1.295 . S
C15 O20 1.235 . S
O16 Fe1 1.976 . S
O16 C10 1.287 . S
O17 Fe3 1.996 . S
O17 C10 1.255 . S
C18 O11 1.287 . S
C18 O12 1.255 . S
O19 Fe1 2.002 . S
O19 C15 1.295 . S
O20 Fe3 1.997 . S
O20 C15 1.235 . S
C21 O4 1.295 1_556 S
C21 O5 1.235 . S
Fe22 O24 1.918 . S
Fe22 O27 1.997 1_554 S
Fe22 O28 2.002 . S
Fe22 O33 1.976 . S
Fe22 O36 1.996 1_554 S
Fe23 O24 1.918 . S
Fe23 O31 1.997 . S
Fe23 O34 1.996 . S
Fe23 O38 1.976 . S
Fe23 O41 2.002 . S
O24 Fe22 1.918 . S
O24 Fe23 1.918 . S
O24 Fe25 1.918 1_554 S
Fe25 O24 1.918 1_556 S
Fe25 O26 2.002 . S
Fe25 O35 1.976 . S
Fe25 O39 1.996 . S
Fe25 O42 1.997 . S
O26 Fe25 2.002 . S
O26 C43 1.295 . S
O27 Fe22 1.997 1_556 S
O27 C43 1.235 . S
O28 Fe22 2.002 . S
O28 C29 1.295 . S
C29 O28 1.295 . S
C29 O31 1.235 . S
C30 O35 1.287 . S
C30 O36 1.255 . S
O31 Fe23 1.997 . S
O31 C29 1.235 . S
C32 O38 1.287 1_556 S
C32 O39 1.255 . S
O33 Fe22 1.976 . S
O33 C40 1.287 . S
O34 Fe23 1.996 . S
O34 C40 1.255 . S
O35 Fe25 1.976 . S
O35 C30 1.287 . S
O36 Fe22 1.996 1_556 S
O36 C30 1.255 . S
C37 O41 1.295 1_556 S
C37 O42 1.235 . S
O38 Fe23 1.976 . S
O38 C32 1.287 1_554 S
O39 Fe25 1.996 . S
O39 C32 1.255 . S
C40 O33 1.287 . S
C40 O34 1.255 . S
O41 Fe23 2.002 . S
O41 C37 1.295 1_554 S
O42 Fe25 1.997 . S
O42 C37 1.235 . S
C43 O26 1.295 . S
C43 O27 1.235 . S
Fe44 O46 1.918 1_556 S
Fe44 O49 1.997 . S
Fe44 O50 2.002 . S
Fe44 O55 1.976 . S
Fe44 O58 1.996 . S
Fe45 O46 1.918 . S
Fe45 O53 1.997 1_554 S
Fe45 O56 1.996 1_554 S
Fe45 O60 1.976 . S
Fe45 O63 2.002 . S
O46 Fe44 1.918 1_554 S
O46 Fe45 1.918 . S
O46 Fe47 1.918 . S
Fe47 O46 1.918 . S
Fe47 O48 2.002 . S
Fe47 O57 1.976 . S
Fe47 O61 1.996 . S
Fe47 O64 1.997 . S
O48 Fe47 2.002 . S
O48 C65 1.295 1_554 S
O49 Fe44 1.997 . S
O49 C65 1.235 . S
O50 Fe44 2.002 . S
O50 C51 1.295 . S
C51 O50 1.295 . S
C51 O53 1.235 . S
C52 O57 1.287 1_556 S
C52 O58 1.255 . S
O53 Fe45 1.997 1_556 S
O53 C51 1.235 . S
C54 O60 1.287 . S
C54 O61 1.255 . S
O55 Fe44 1.976 . S
O55 C62 1.287 . S
O56 Fe45 1.996 1_556 S
O56 C62 1.255 . S
O57 Fe47 1.976 . S
O57 C52 1.287 1_554 S
O58 Fe44 1.996 . S
O58 C52 1.255 . S
C59 O63 1.295 . S
C59 O64 1.235 . S
O60 Fe45 1.976 . S
O60 C54 1.287 . S
O61 Fe47 1.996 . S
O61 C54 1.255 . S
C62 O55 1.287 . S
C62 O56 1.255 . S
O63 Fe45 2.002 . S
O63 C59 1.295 . S
O64 Fe47 1.997 . S
O64 C59 1.235 . S
C65 O48 1.295 1_556 S
C65 O49 1.235 . S
Fe66 O68 1.918 . S
Fe66 O71 1.997 . S
Fe66 O72 2.002 . S
Fe66 O77 1.976 . S
Fe66 O80 1.996 . S
Fe67 O68 1.918 . S
Fe67 O75 1.997 . S
Fe67 O78 1.996 . S
Fe67 O82 1.976 . S
Fe67 O85 2.002 . S
O68 Fe66 1.918 . S
O68 Fe67 1.918 . S
O68 Fe69 1.918 . S
Fe69 O68 1.918 . S
Fe69 O70 2.002 . S
Fe69 O79 1.976 . S
Fe69 O83 1.996 . S
Fe69 O86 1.997 . S
O70 Fe69 2.002 . S
O70 C87 1.295 . S
O71 Fe66 1.997 . S
O71 C87 1.235 . S
O72 Fe66 2.002 . S
O72 C73 1.295 . S
C73 O72 1.295 . S
C73 O75 1.235 . S
C74 O79 1.287 . S
C74 O80 1.255 . S
O75 Fe67 1.997 . S
O75 C73 1.235 . S
C76 O82 1.287 . S
C76 O83 1.255 . S
O77 Fe66 1.976 . S
O77 C84 1.287 . S
O78 Fe67 1.996 . S
O78 C84 1.255 . S
O79 Fe69 1.976 . S
O79 C74 1.287 . S
O80 Fe66 1.996 . S
O80 C74 1.255 . S
C81 O85 1.295 . S
C81 O86 1.235 . S
O82 Fe67 1.976 . S
O82 C76 1.287 . S
O83 Fe69 1.996 . S
O83 C76 1.255 . S
C84 O77 1.287 . S
C84 O78 1.255 . S
O85 Fe67 2.002 . S
O85 C81 1.295 . S
O86 Fe69 1.997 . S
O86 C81 1.235 . S
C87 O70 1.295 . S
C87 O71 1.235 . S
Fe88 O90 1.918 . S
Fe88 O93 1.997 . S
Fe88 O94 2.002 . S
Fe88 O99 1.976 . S
Fe88 O102 1.996 . S
Fe89 O90 1.918 . S
Fe89 O97 1.997 . S
Fe89 O100 1.996 . S
Fe89 O104 1.976 . S
Fe89 O107 2.002 . S
O90 Fe88 1.918 . S
O90 Fe89 1.918 . S
O90 Fe91 1.918 . S
Fe91 O90 1.918 . S
Fe91 O92 2.002 . S
Fe91 O101 1.976 . S
Fe91 O105 1.996 . S
Fe91 O108 1.997 . S
O92 Fe91 2.002 . S
O92 C109 1.295 . S
O93 Fe88 1.997 . S
O93 C109 1.235 . S
O94 Fe88 2.002 . S
O94 C95 1.295 . S
C95 O94 1.295 . S
C95 O97 1.235 . S
C96 O101 1.287 . S
C96 O102 1.255 . S
O97 Fe89 1.997 . S
O97 C95 1.235 . S
C98 O104 1.287 . S
C98 O105 1.255 . S
O99 Fe88 1.976 . S
O99 C106 1.287 . S
O100 Fe89 1.996 . S
O100 C106 1.255 . S
O101 Fe91 1.976 . S
O101 C96 1.287 . S
O102 Fe88 1.996 . S
O102 C96 1.255 . S
C103 O107 1.295 . S
C103 O108 1.235 . S
O104 Fe89 1.976 . S
O104 C98 1.287 . S
O105 Fe91 1.996 . S
O105 C98 1.255 . S
C106 O99 1.287 . S
C106 O100 1.255 . S
O107 Fe89 2.002 . S
O107 C103 1.295 . S
O108 Fe91 1.997 . S
O108 C103 1.235 . S
C109 O92 1.295 . S
C109 O93 1.235 . S
Fe110 O112 1.918 . S
Fe110 O115 1.997 . S
Fe110 O116 2.002 . S
Fe110 O121 1.976 . S
Fe110 O124 1.996 . S
Fe111 O112 1.918 . S
Fe111 O119 1.997 . S
Fe111 O122 1.996 . S
Fe111 O126 1.976 . S
Fe111 O129 2.002 . S
O112 Fe110 1.918 . S
O112 Fe111 1.918 . S
O112 Fe113 1.918 . S
Fe113 O112 1.918 . S
Fe113 O114 2.002 . S
Fe113 O123 1.976 . S
Fe113 O127 1.996 . S
Fe113 O130 1.997 . S
O114 Fe113 2.002 . S
O114 C131 1.295 . S
O115 Fe110 1.997 . S
O115 C131 1.235 . S
O116 Fe110 2.002 . S
O116 C117 1.295 . S
C117 O116 1.295 . S
C117 O119 1.235 . S
C118 O123 1.287 . S
C118 O124 1.255 . S
O119 Fe111 1.997 . S
O119 C117 1.235 . S
C120 O126 1.287 . S
C120 O127 1.255 . S
O121 Fe110 1.976 . S
O121 C128 1.287 . S
O122 Fe111 1.996 . S
O122 C128 1.255 . S
O123 Fe113 1.976 . S
O123 C118 1.287 . S
O124 Fe110 1.996 . S
O124 C118 1.255 . S
C125 O129 1.295 . S
C125 O130 1.235 . S
O126 Fe111 1.976 . S
O126 C120 1.287 . S
O127 Fe113 1.996 . S
O127 C120 1.255 . S
C128 O121 1.287 . S
C128 O122 1.255 . S
O129 Fe111 2.002 . S
O129 C125 1.295 . S
O130 Fe113 1.997 . S
O130 C125 1.235 . S
C131 O114 1.295 . S
C131 O115 1.235 . S
Fe132 O134 1.918 . S
Fe132 O137 1.997 . S
Fe132 O138 2.002 . S
Fe132 O143 1.976 . S
Fe132 O146 1.996 . S
Fe133 O134 1.918 . S
Fe133 O141 1.997 . S
Fe133 O144 1.996 . S
Fe133 O148 1.976 . S
Fe133 O151 2.002 . S
O134 Fe132 1.918 . S
O134 Fe133 1.918 . S
O134 Fe135 1.918 . S
Fe135 O134 1.918 . S
Fe135 O136 2.002 . S
Fe135 O145 1.976 . S
Fe135 O149 1.996 . S
Fe135 O152 1.997 . S
O136 Fe135 2.002 . S
O136 C153 1.295 . S
O137 Fe132 1.997 . S
O137 C153 1.235 . S
O138 Fe132 2.002 . S
O138 C139 1.295 . S
C139 O138 1.295 . S
C139 O141 1.235 . S
C140 O145 1.287 . S
C140 O146 1.255 . S
O141 Fe133 1.997 . S
O141 C139 1.235 . S
C142 O148 1.287 . S
C142 O149 1.255 . S
O143 Fe132 1.976 . S
O143 C150 1.287 . S
O144 Fe133 1.996 . S
O144 C150 1.255 . S
O145 Fe135 1.976 . S
O145 C140 1.287 . S
O146 Fe132 1.996 . S
O146 C140 1.255 . S
C147 O151 1.295 . S
C147 O152 1.235 . S
O148 Fe133 1.976 . S
O148 C142 1.287 . S
O149 Fe135 1.996 . S
O149 C142 1.255 . S
C150 O143 1.287 . S
C150 O144 1.255 . S
O151 Fe133 2.002 . S
O151 C147 1.295 . S
O152 Fe135 1.997 . S
O152 C147 1.235 . S
C153 O136 1.295 . S
C153 O137 1.235 . S
Fe154 O156 1.918 . S
Fe154 O159 1.997 . S
Fe154 O160 2.002 . S
Fe154 O165 1.976 . S
Fe154 O168 1.996 . S
Fe155 O156 1.918 . S
Fe155 O163 1.997 . S
Fe155 O166 1.996 . S
Fe155 O170 1.976 . S
Fe155 O173 2.002 . S
O156 Fe154 1.918 . S
O156 Fe155 1.918 . S
O156 Fe157 1.918 . S
Fe157 O156 1.918 . S
Fe157 O158 2.002 . S
Fe157 O167 1.976 . S
Fe157 O171 1.996 . S
Fe157 O174 1.997 . S
O158 Fe157 2.002 . S
O158 C175 1.295 . S
O159 Fe154 1.997 . S
O159 C175 1.235 . S
O160 Fe154 2.002 . S
O160 C161 1.295 . S
C161 O160 1.295 . S
C161 O163 1.235 . S
C162 O167 1.287 . S
C162 O168 1.255 . S
O163 Fe155 1.997 . S
O163 C161 1.235 . S
C164 O170 1.287 . S
C164 O171 1.255 . S
O165 Fe154 1.976 . S
O165 C172 1.287 . S
O166 Fe155 1.996 . S
O166 C172 1.255 . S
O167 Fe157 1.976 . S
O167 C162 1.287 . S
O168 Fe154 1.996 . S
O168 C162 1.255 . S
C169 O173 1.295 . S
C169 O174 1.235 . S
O170 Fe155 1.976 . S
O170 C164 1.287 . S
O171 Fe157 1.996 . S
O171 C164 1.255 . S
C172 O165 1.287 . S
C172 O166 1.255 . S
O173 Fe155 2.002 . S
O173 C169 1.295 . S
O174 Fe157 1.997 . S
O174 C169 1.235 . S
C175 O158 1.295 . S
C175 O159 1.235 . S
Fe176 O178 1.918 . S
Fe176 O181 1.997 . S
Fe176 O182 2.002 . S
Fe176 O187 1.976 . S
Fe176 O190 1.996 . S
Fe177 O178 1.918 . S
Fe177 O185 1.997 . S
Fe177 O188 1.996 . S
Fe177 O192 1.976 . S
Fe177 O195 2.002 . S
O178 Fe176 1.918 . S
O178 Fe177 1.918 . S
O178 Fe179 1.918 . S
Fe179 O178 1.918 . S
Fe179 O180 2.002 . S
Fe179 O189 1.976 . S
Fe179 O193 1.996 . S
Fe179 O196 1.997 . S
O180 Fe179 2.002 . S
O180 C197 1.295 . S
O181 Fe176 1.997 . S
O181 C197 1.235 . S
O182 Fe176 2.002 . S
O182 C183 1.295 . S
C183 O182 1.295 . S
C183 O185 1.235 . S
C184 O189 1.287 . S
C184 O190 1.255 . S
O185 Fe177 1.997 . S
O185 C183 1.235 . S
C186 O192 1.287 . S
C186 O193 1.255 . S
O187 Fe176 1.976 . S
O187 C194 1.287 . S
O188 Fe177 1.996 . S
O188 C194 1.255 . S
O189 Fe179 1.976 . S
O189 C184 1.287 . S
O190 Fe176 1.996 . S
O190 C184 1.255 . S
C191 O195 1.295 . S
C191 O196 1.235 . S
O192 Fe177 1.976 . S
O192 C186 1.287 . S
O193 Fe179 1.996 . S
O193 C186 1.255 . S
C194 O187 1.287 . S
C194 O188 1.255 . S
O195 Fe177 2.002 . S
O195 C191 1.295 . S
O196 Fe179 1.997 . S
O196 C191 1.235 . S
C197 O180 1.295 . S
C197 O181 1.235 . S
H198 C206 0.929 . S
H199 C208 0.930 . S
H200 C210 0.930 . S
H201 C213 0.929 . S
H202 C216 0.930 . S
H203 C218 0.960 . S
H204 C218 0.960 . S
H205 C218 0.960 . S
C206 H198 0.929 . S
C206 C207 1.377 . S
C206 C208 1.384 . S
C207 C206 1.377 . S
C207 C213 1.390 . S
C208 H199 0.930 . S
C208 C206 1.384 . S
C208 C209 1.372 . S
C209 C208 1.372 . S
C209 C210 1.400 . S
C209 C214 1.490 . S
C210 H200 0.930 . S
C210 C209 1.400 . S
C210 C213 1.386 . S
H211 C227 0.930 . S
H212 C228 0.931 . S
C213 H201 0.929 . S
C213 C207 1.390 . S
C213 C210 1.386 . S
C214 C209 1.490 . S
C214 C216 1.395 . S
C214 C217 1.403 . S
H215 C221 0.930 . S
C216 H202 0.930 . S
C216 C214 1.395 . S
C216 C219 1.403 1_545 S
C217 C214 1.403 . S
C217 C218 1.524 . S
C217 C221 1.400 . S
C218 H203 0.960 . S
C218 H204 0.960 . S
C218 H205 0.960 . S
C218 C217 1.524 . S
C219 C216 1.403 1_565 S
C219 C220 1.392 . S
C219 C223 1.495 . S
C220 C219 1.392 . S
C220 C221 1.385 1_565 S
C220 C222 1.478 . S
C221 H215 0.930 . S
C221 C217 1.400 . S
C221 C220 1.385 1_545 S
C222 C220 1.478 . S
C222 C224 1.381 . S
C222 C228 1.383 . S
C223 C219 1.495 . S
C223 H229 0.959 . S
C223 H230 0.961 . S
C223 H231 0.960 . S
C224 C222 1.381 . S
C224 C225 1.394 . S
C224 H232 0.930 . S
C225 C224 1.394 . S
C225 C226 1.383 . S
C225 H233 0.929 . S
C226 C225 1.383 . S
C226 C227 1.377 . S
C227 H211 0.930 . S
C227 C226 1.377 . S
C227 C228 1.379 . S
C228 H212 0.931 . S
C228 C222 1.383 . S
C228 C227 1.379 . S
H229 C223 0.959 . S
H230 C223 0.961 . S
H231 C223 0.960 . S
H232 C224 0.930 . S
H233 C225 0.929 . S
H234 C242 0.929 . S
H235 C244 0.930 . S
H236 C246 0.930 . S
H237 C249 0.929 . S
H238 C252 0.930 . S
H239 C254 0.960 . S
H240 C254 0.960 . S
H241 C254 0.960 . S
C242 H234 0.929 . S
C242 C243 1.377 . S
C242 C244 1.384 . S
C243 C242 1.377 . S
C243 C249 1.390 . S
C244 H235 0.930 . S
C244 C242 1.384 . S
C244 C245 1.372 . S
C245 C244 1.372 . S
C245 C246 1.400 . S
C245 C250 1.490 . S
C246 H236 0.930 . S
C246 C245 1.400 . S
C246 C249 1.386 . S
H247 C263 0.930 . S
H248 C264 0.931 . S
C249 H237 0.929 . S
C249 C243 1.390 . S
C249 C246 1.386 . S
C250 C245 1.490 . S
C250 C252 1.395 . S
C250 C253 1.403 . S
H251 C257 0.930 . S
C252 H238 0.930 . S
C252 C250 1.395 . S
C252 C255 1.403 1_655 S
C253 C250 1.403 . S
C253 C254 1.524 . S
C253 C257 1.400 . S
C254 H239 0.960 . S
C254 H240 0.960 . S
C254 H241 0.960 . S
C254 C253 1.524 . S
C255 C252 1.403 1_455 S
C255 C256 1.392 . S
C255 C259 1.495 . S
C256 C255 1.392 . S
C256 C257 1.385 1_455 S
C256 C258 1.478 . S
C257 H251 0.930 . S
C257 C253 1.400 . S
C257 C256 1.385 1_655 S
C258 C256 1.478 . S
C258 C260 1.381 . S
C258 C264 1.383 . S
C259 C255 1.495 . S
C259 H265 0.959 . S
C259 H266 0.961 . S
C259 H267 0.960 . S
C260 C258 1.381 . S
C260 C261 1.394 . S
C260 H268 0.930 . S
C261 C260 1.394 . S
C261 C262 1.383 . S
C261 H269 0.929 . S
C262 C261 1.383 . S
C262 C263 1.377 . S
C263 H247 0.930 . S
C263 C262 1.377 . S
C263 C264 1.379 . S
C264 H248 0.931 . S
C264 C258 1.383 . S
C264 C263 1.379 . S
H265 C259 0.959 . S
H266 C259 0.961 . S
H267 C259 0.960 . S
H268 C260 0.930 . S
H269 C261 0.929 . S
H270 C278 0.929 . S
H271 C280 0.930 . S
H272 C282 0.930 . S
H273 C285 0.929 . S
H274 C288 0.930 . S
H275 C290 0.960 . S
H276 C290 0.960 . S
H277 C290 0.960 . S
C278 H270 0.929 . S
C278 C279 1.377 . S
C278 C280 1.384 . S
C279 C278 1.377 . S
C279 C285 1.390 . S
C280 H271 0.930 . S
C280 C278 1.384 . S
C280 C281 1.372 . S
C281 C280 1.372 . S
C281 C282 1.400 . S
C281 C286 1.490 . S
C282 H272 0.930 . S
C282 C281 1.400 . S
C282 C285 1.386 . S
H283 C299 0.930 . S
H284 C300 0.931 . S
C285 H273 0.929 . S
C285 C279 1.390 . S
C285 C282 1.386 . S
C286 C281 1.490 . S
C286 C288 1.395 . S
C286 C289 1.403 . S
H287 C293 0.930 . S
C288 H274 0.930 . S
C288 C286 1.395 . S
C288 C291 1.403 . S
C289 C286 1.403 . S
C289 C290 1.524 . S
C289 C293 1.400 . S
C290 H275 0.960 . S
C290 H276 0.960 . S
C290 H277 0.960 . S
C290 C289 1.524 . S
C291 C288 1.403 . S
C291 C292 1.392 . S
C291 C295 1.495 . S
C292 C291 1.392 . S
C292 C293 1.385 . S
C292 C294 1.478 . S
C293 H287 0.930 . S
C293 C289 1.400 . S
C293 C292 1.385 . S
C294 C292 1.478 . S
C294 C296 1.381 . S
C294 C300 1.383 . S
C295 C291 1.495 . S
C295 H301 0.959 . S
C295 H302 0.961 . S
C295 H303 0.960 . S
C296 C294 1.381 . S
C296 C297 1.394 . S
C296 H304 0.930 . S
C297 C296 1.394 . S
C297 C298 1.383 . S
C297 H305 0.929 . S
C298 C297 1.383 . S
C298 C299 1.377 . S
C299 H283 0.930 . S
C299 C298 1.377 . S
C299 C300 1.379 . S
C300 H284 0.931 . S
C300 C294 1.383 . S
C300 C299 1.379 . S
H301 C295 0.959 . S
H302 C295 0.961 . S
H303 C295 0.960 . S
H304 C296 0.930 . S
H305 C297 0.929 . S
H306 C314 0.929 . S
H307 C316 0.930 . S
H308 C318 0.930 . S
H309 C321 0.929 . S
H310 C324 0.930 . S
H311 C326 0.960 . S
H312 C326 0.960 . S
H313 C326 0.960 . S
C314 H306 0.929 . S
C314 C315 1.377 . S
C314 C316 1.384 . S
C315 C314 1.377 . S
C315 C321 1.390 . S
C316 H307 0.930 . S
C316 C314 1.384 . S
C316 C317 1.372 . S
C317 C316 1.372 . S
C317 C318 1.400 . S
C317 C322 1.490 . S
C318 H308 0.930 . S
C318 C317 1.400 . S
C318 C321 1.386 . S
H319 C335 0.930 . S
H320 C336 0.931 . S
C321 H309 0.929 . S
C321 C315 1.390 . S
C321 C318 1.386 . S
C322 C317 1.490 . S
C322 C324 1.395 1_455 S
C322 C325 1.403 1_455 S
H323 C329 0.930 . S
C324 H310 0.930 . S
C324 C322 1.395 1_655 S
C324 C327 1.403 . S
C325 C322 1.403 1_655 S
C325 C326 1.524 1_655 S
C325 C329 1.400 . S
C326 H311 0.960 . S
C326 H312 0.960 . S
C326 H313 0.960 . S
C326 C325 1.524 1_455 S
C327 C324 1.403 . S
C327 C328 1.392 . S
C327 C331 1.495 . S
C328 C327 1.392 . S
C328 C329 1.385 . S
C328 C330 1.478 . S
C329 H323 0.930 . S
C329 C325 1.400 . S
C329 C328 1.385 . S
C330 C328 1.478 . S
C330 C332 1.381 . S
C330 C336 1.383 . S
C331 C327 1.495 . S
C331 H337 0.959 . S
C331 H338 0.961 . S
C331 H339 0.960 . S
C332 C330 1.381 . S
C332 C333 1.394 . S
C332 H340 0.930 . S
C333 C332 1.394 . S
C333 C334 1.383 . S
C333 H341 0.929 . S
C334 C333 1.383 . S
C334 C335 1.377 . S
C335 H319 0.930 . S
C335 C334 1.377 . S
C335 C336 1.379 . S
C336 H320 0.931 . S
C336 C330 1.383 . S
C336 C335 1.379 . S
H337 C331 0.959 . S
H338 C331 0.961 . S
H339 C331 0.960 . S
H340 C332 0.930 . S
H341 C333 0.929 . S
H342 C350 0.929 . S
H343 C352 0.930 . S
H344 C354 0.930 . S
H345 C357 0.929 . S
H346 C360 0.930 . S
H347 C362 0.960 . S
H348 C362 0.960 . S
H349 C362 0.960 . S
C350 H342 0.929 . S
C350 C351 1.377 . S
C350 C352 1.384 . S
C351 C350 1.377 . S
C351 C357 1.390 . S
C352 H343 0.930 . S
C352 C350 1.384 . S
C352 C353 1.372 . S
C353 C352 1.372 . S
C353 C354 1.400 . S
C353 C358 1.490 . S
C354 H344 0.930 . S
C354 C353 1.400 . S
C354 C357 1.386 . S
H355 C371 0.930 . S
H356 C372 0.931 . S
C357 H345 0.929 . S
C357 C351 1.390 . S
C357 C354 1.386 . S
C358 C353 1.490 . S
C358 C360 1.395 . S
C358 C361 1.403 . S
H359 C365 0.930 . S
C360 H346 0.930 . S
C360 C358 1.395 . S
C360 C363 1.403 . S
C361 C358 1.403 . S
C361 C362 1.524 . S
C361 C365 1.400 . S
C362 H347 0.960 . S
C362 H348 0.960 . S
C362 H349 0.960 . S
C362 C361 1.524 . S
C363 C360 1.403 . S
C363 C364 1.392 . S
C363 C367 1.495 . S
C364 C363 1.392 . S
C364 C365 1.385 . S
C364 C366 1.478 . S
C365 H359 0.930 . S
C365 C361 1.400 . S
C365 C364 1.385 . S
C366 C364 1.478 . S
C366 C368 1.381 . S
C366 C372 1.383 . S
C367 C363 1.495 . S
C367 H373 0.959 . S
C367 H374 0.961 . S
C367 H375 0.960 . S
C368 C366 1.381 . S
C368 C369 1.394 . S
C368 H376 0.930 . S
C369 C368 1.394 . S
C369 C370 1.383 . S
C369 H377 0.929 . S
C370 C369 1.383 . S
C370 C371 1.377 . S
C371 H355 0.930 . S
C371 C370 1.377 . S
C371 C372 1.379 . S
C372 H356 0.931 . S
C372 C366 1.383 . S
C372 C371 1.379 . S
H373 C367 0.959 . S
H374 C367 0.961 . S
H375 C367 0.960 . S
H376 C368 0.930 . S
H377 C369 0.929 . S
H378 C386 0.929 . S
H379 C388 0.930 . S
H380 C390 0.930 . S
H381 C393 0.929 . S
H382 C396 0.930 . S
H383 C398 0.960 . S
H384 C398 0.960 . S
H385 C398 0.960 . S
C386 H378 0.929 . S
C386 C387 1.377 . S
C386 C388 1.384 . S
C387 C386 1.377 . S
C387 C393 1.390 . S
C388 H379 0.930 . S
C388 C386 1.384 . S
C388 C389 1.372 . S
C389 C388 1.372 . S
C389 C390 1.400 . S
C389 C394 1.490 . S
C390 H380 0.930 . S
C390 C389 1.400 . S
C390 C393 1.386 . S
H391 C407 0.930 . S
H392 C408 0.931 . S
C393 H381 0.929 . S
C393 C387 1.390 . S
C393 C390 1.386 . S
C394 C389 1.490 . S
C394 C396 1.395 1_565 S
C394 C397 1.403 . S
H395 C401 0.930 . S
C396 H382 0.930 . S
C396 C394 1.395 1_545 S
C396 C399 1.403 . S
C397 C394 1.403 . S
C397 C398 1.524 . S
C397 C401 1.400 1_565 S
C398 H383 0.960 . S
C398 H384 0.960 . S
C398 H385 0.960 . S
C398 C397 1.524 . S
C399 C396 1.403 . S
C399 C400 1.392 . S
C399 C403 1.495 . S
C400 C399 1.392 . S
C400 C401 1.385 . S
C400 C402 1.478 . S
C401 H395 0.930 . S
C401 C397 1.400 1_545 S
C401 C400 1.385 . S
C402 C400 1.478 . S
C402 C404 1.381 . S
C402 C408 1.383 . S
C403 C399 1.495 . S
C403 H409 0.959 . S
C403 H410 0.961 . S
C403 H411 0.960 . S
C404 C402 1.381 . S
C404 C405 1.394 . S
C404 H412 0.930 . S
C405 C404 1.394 . S
C405 C406 1.383 . S
C405 H413 0.929 . S
C406 C405 1.383 . S
C406 C407 1.377 . S
C407 H391 0.930 . S
C407 C406 1.377 . S
C407 C408 1.379 . S
C408 H392 0.931 . S
C408 C402 1.383 . S
C408 C407 1.379 . S
H409 C403 0.959 . S
H410 C403 0.961 . S
H411 C403 0.960 . S
H412 C404 0.930 . S
H413 C405 0.929 . S
H414 C422 0.929 . S
H415 C424 0.930 . S
H416 C426 0.930 . S
H417 C429 0.929 . S
H418 C432 0.930 . S
H419 C434 0.960 . S
H420 C434 0.960 . S
H421 C434 0.960 . S
C422 H414 0.929 . S
C422 C423 1.377 . S
C422 C424 1.384 . S
C423 C422 1.377 . S
C423 C429 1.390 . S
C424 H415 0.930 . S
C424 C422 1.384 . S
C424 C425 1.372 . S
C425 C424 1.372 . S
C425 C426 1.400 . S
C425 C430 1.490 . S
C426 H416 0.930 . S
C426 C425 1.400 . S
C426 C429 1.386 . S
H427 C443 0.930 . S
H428 C444 0.925 1_655 S
C429 H417 0.929 . S
C429 C423 1.390 . S
C429 C426 1.386 . S
C430 C425 1.490 . S
C430 C432 1.395 . S
C430 C433 1.403 . S
H431 C437 0.930 . S
C432 H418 0.930 . S
C432 C430 1.395 . S
C432 C435 1.403 . S
C433 C430 1.403 . S
C433 C434 1.524 . S
C433 C437 1.400 . S
C434 H419 0.960 . S
C434 H420 0.960 . S
C434 H421 0.960 . S
C434 C433 1.524 . S
C435 C432 1.403 . S
C435 C436 1.392 . S
C435 C439 1.495 1_655 S
C436 C435 1.392 . S
C436 C437 1.385 . S
C436 C438 1.478 . S
C437 H431 0.930 . S
C437 C433 1.400 . S
C437 C436 1.385 . S
C438 C436 1.478 . S
C438 C440 1.381 . S
C438 C444 1.384 1_655 S
C439 C435 1.495 1_455 S
C439 H445 0.959 . S
C439 H446 0.961 . S
C439 H447 0.960 . S
C440 C438 1.381 . S
C440 C441 1.394 1_655 S
C440 H448 0.930 . S
C441 C440 1.394 1_455 S
C441 C442 1.383 . S
C441 H449 0.929 . S
C442 C441 1.383 . S
C442 C443 1.377 . S
C443 H427 0.930 . S
C443 C442 1.377 . S
C443 C444 1.385 . S
C444 H428 0.925 1_455 S
C444 C438 1.384 1_455 S
C444 C443 1.385 . S
H445 C439 0.959 . S
H446 C439 0.961 . S
H447 C439 0.960 . S
H448 C440 0.930 . S
H449 C441 0.929 . S
H450 C458 0.929 . S
H451 C460 0.930 . S
H452 C462 0.930 . S
H453 C465 0.929 . S
H454 C468 0.930 . S
H455 C470 0.960 . S
H456 C470 0.960 . S
H457 C470 0.960 . S
C458 H450 0.929 . S
C458 C459 1.377 . S
C458 C460 1.384 . S
C459 C458 1.377 . S
C459 C465 1.390 . S
C460 H451 0.930 . S
C460 C458 1.384 . S
C460 C461 1.372 . S
C461 C460 1.372 . S
C461 C462 1.400 . S
C461 C466 1.490 . S
C462 H452 0.930 . S
C462 C461 1.400 . S
C462 C465 1.386 . S
H463 C479 0.930 . S
H464 C480 0.931 . S
C465 H453 0.929 . S
C465 C459 1.390 . S
C465 C462 1.386 . S
C466 C461 1.490 . S
C466 C468 1.395 . S
C466 C469 1.403 . S
H467 C473 0.930 . S
C468 H454 0.930 . S
C468 C466 1.395 . S
C468 C471 1.403 . S
C469 C466 1.403 . S
C469 C470 1.524 . S
C469 C473 1.400 . S
C470 H455 0.960 . S
C470 H456 0.960 . S
C470 H457 0.960 . S
C470 C469 1.524 . S
C471 C468 1.403 . S
C471 C472 1.392 . S
C471 C475 1.495 . S
C472 C471 1.392 . S
C472 C473 1.385 . S
C472 C474 1.478 . S
C473 H467 0.930 . S
C473 C469 1.400 . S
C473 C472 1.385 . S
C474 C472 1.478 . S
C474 C476 1.381 . S
C474 C480 1.383 . S
C475 C471 1.495 . S
C475 H481 0.959 . S
C475 H482 0.961 . S
C475 H483 0.960 . S
C476 C474 1.381 . S
C476 C477 1.394 . S
C476 H484 0.930 . S
C477 C476 1.394 . S
C477 C478 1.383 . S
C477 H485 0.929 . S
C478 C477 1.383 . S
C478 C479 1.377 . S
C479 H463 0.930 . S
C479 C478 1.377 . S
C479 C480 1.379 . S
C480 H464 0.931 . S
C480 C474 1.383 . S
C480 C479 1.379 . S
H481 C475 0.959 . S
H482 C475 0.961 . S
H483 C475 0.960 . S
H484 C476 0.930 . S
H485 C477 0.929 . S
H486 C494 0.929 . S
H487 C496 0.930 . S
H488 C498 0.930 . S
H489 C501 0.929 . S
H490 C504 0.930 . S
H491 C506 0.960 . S
H492 C506 0.960 . S
H493 C506 0.960 . S
C494 H486 0.929 . S
C494 C495 1.377 . S
C494 C496 1.384 . S
C495 C494 1.377 . S
C495 C501 1.390 . S
C496 H487 0.930 . S
C496 C494 1.384 . S
C496 C497 1.372 . S
C497 C496 1.372 . S
C497 C498 1.400 . S
C497 C502 1.490 . S
C498 H488 0.930 . S
C498 C497 1.400 . S
C498 C501 1.386 . S
H499 C515 0.930 . S
H500 C516 0.931 . S
C501 H489 0.929 . S
C501 C495 1.390 . S
C501 C498 1.386 . S
C502 C497 1.490 . S
C502 C504 1.395 . S
C502 C505 1.403 . S
H503 C509 0.930 . S
C504 H490 0.930 . S
C504 C502 1.395 . S
C504 C507 1.403 . S
C505 C502 1.403 . S
C505 C506 1.524 . S
C505 C509 1.400 . S
C506 H491 0.960 . S
C506 H492 0.960 . S
C506 H493 0.960 . S
C506 C505 1.524 . S
C507 C504 1.403 . S
C507 C508 1.392 . S
C507 C511 1.495 . S
C508 C507 1.392 . S
C508 C509 1.385 . S
C508 C510 1.478 . S
C509 H503 0.930 . S
C509 C505 1.400 . S
C509 C508 1.385 . S
C510 C508 1.478 . S
C510 C512 1.381 . S
C510 C516 1.383 . S
C511 C507 1.495 . S
C511 H517 0.959 . S
C511 H518 0.961 . S
C511 H519 0.960 . S
C512 C510 1.381 . S
C512 C513 1.394 1_545 S
C512 H520 0.930 . S
C513 C512 1.394 1_565 S
C513 C514 1.383 . S
C513 H521 0.929 . S
C514 C513 1.383 . S
C514 C515 1.377 . S
C515 H499 0.930 . S
C515 C514 1.377 . S
C515 C516 1.379 1_565 S
C516 H500 0.931 . S
C516 C510 1.383 . S
C516 C515 1.379 1_545 S
H517 C511 0.959 . S
H518 C511 0.961 . S
H519 C511 0.960 . S
H520 C512 0.930 . S
H521 C513 0.929 . S
H522 C530 0.929 . S
H523 C532 0.930 . S
H524 C534 0.930 . S
H525 C537 0.929 . S
H526 C540 0.930 . S
H527 C542 0.960 . S
H528 C542 0.960 . S
H529 C542 0.960 . S
C530 H522 0.929 . S
C530 C531 1.377 . S
C530 C532 1.384 . S
C531 C530 1.377 . S
C531 C537 1.390 . S
C532 H523 0.930 . S
C532 C530 1.384 . S
C532 C533 1.372 . S
C533 C532 1.372 . S
C533 C534 1.400 . S
C533 C538 1.490 . S
C534 H524 0.930 . S
C534 C533 1.400 . S
C534 C537 1.386 . S
H535 C551 0.930 . S
H536 C552 0.931 . S
C537 H525 0.929 . S
C537 C531 1.390 . S
C537 C534 1.386 . S
C538 C533 1.490 . S
C538 C540 1.395 . S
C538 C541 1.403 . S
H539 C545 0.930 . S
C540 H526 0.930 . S
C540 C538 1.395 . S
C540 C543 1.403 . S
C541 C538 1.403 . S
C541 C542 1.524 . S
C541 C545 1.400 . S
C542 H527 0.960 . S
C542 H528 0.960 . S
C542 H529 0.960 . S
C542 C541 1.524 . S
C543 C540 1.403 . S
C543 C544 1.392 . S
C543 C547 1.495 . S
C544 C543 1.392 . S
C544 C545 1.385 . S
C544 C546 1.478 . S
C545 H539 0.930 . S
C545 C541 1.400 . S
C545 C544 1.385 . S
C546 C544 1.478 . S
C546 C548 1.381 . S
C546 C552 1.383 1_545 S
C547 C543 1.495 . S
C547 H553 0.959 . S
C547 H554 0.961 . S
C547 H555 0.960 . S
C548 C546 1.381 . S
C548 C549 1.394 . S
C548 H556 0.930 . S
C549 C548 1.394 . S
C549 C550 1.383 1_545 S
C549 H557 0.929 . S
C550 C549 1.383 1_565 S
C550 C551 1.377 . S
C551 H535 0.930 . S
C551 C550 1.377 . S
C551 C552 1.379 . S
C552 H536 0.931 . S
C552 C546 1.383 1_565 S
C552 C551 1.379 . S
H553 C547 0.959 . S
H554 C547 0.961 . S
H555 C547 0.960 . S
H556 C548 0.930 . S
H557 C549 0.929 . S
H558 C566 0.929 . S
H559 C568 0.930 . S
H560 C570 0.930 . S
H561 C573 0.929 . S
H562 C576 0.930 . S
H563 C578 0.960 . S
H564 C578 0.960 . S
H565 C578 0.960 1_455 S
C566 H558 0.929 . S
C566 C567 1.377 1_655 S
C566 C568 1.384 . S
C567 C566 1.377 1_455 S
C567 C573 1.390 . S
C568 H559 0.930 . S
C568 C566 1.384 . S
C568 C569 1.372 . S
C569 C568 1.372 . S
C569 C570 1.400 1_655 S
C569 C574 1.490 . S
C570 H560 0.930 . S
C570 C569 1.400 1_455 S
C570 C573 1.386 . S
H571 C587 0.930 . S
H572 C588 0.931 . S
C573 H561 0.929 . S
C573 C567 1.390 . S
C573 C570 1.386 . S
C574 C569 1.490 . S
C574 C576 1.395 . S
C574 C577 1.403 . S
H575 C581 0.930 . S
C576 H562 0.930 . S
C576 C574 1.395 . S
C576 C579 1.403 . S
C577 C574 1.403 . S
C577 C578 1.524 . S
C577 C581 1.400 . S
C578 H563 0.960 . S
C578 H564 0.960 . S
C578 H565 0.960 1_655 S
C578 C577 1.524 . S
C579 C576 1.403 . S
C579 C580 1.392 . S
C579 C583 1.495 . S
C580 C579 1.392 . S
C580 C581 1.385 . S
C580 C582 1.478 . S
C581 H575 0.930 . S
C581 C577 1.400 . S
C581 C580 1.385 . S
C582 C580 1.478 . S
C582 C584 1.381 . S
C582 C588 1.383 . S
C583 C579 1.495 . S
C583 H589 0.959 . S
C583 H590 0.961 . S
C583 H591 0.960 . S
C584 C582 1.381 . S
C584 C585 1.394 . S
C584 H592 0.930 . S
C585 C584 1.394 . S
C585 C586 1.383 . S
C585 H593 0.929 . S
C586 C585 1.383 . S
C586 C587 1.377 . S
C587 H571 0.930 . S
C587 C586 1.377 . S
C587 C588 1.379 . S
C588 H572 0.931 . S
C588 C582 1.383 . S
C588 C587 1.379 . S
H589 C583 0.959 . S
H590 C583 0.961 . S
H591 C583 0.960 . S
H592 C584 0.930 . S
H593 C585 0.929 . S
H594 C602 0.929 . S
H595 C604 0.930 . S
H596 C606 0.930 . S
H597 C609 0.929 . S
H598 C612 0.930 . S
H599 C614 0.960 . S
H600 C614 0.960 . S
H601 C614 0.960 . S
C602 H594 0.929 . S
C602 C603 1.377 . S
C602 C604 1.384 . S
C603 C602 1.377 . S
C603 C609 1.390 . S
C604 H595 0.930 . S
C604 C602 1.384 . S
C604 C605 1.372 . S
C605 C604 1.372 . S
C605 C606 1.400 . S
C605 C610 1.490 . S
C606 H596 0.930 . S
C606 C605 1.400 . S
C606 C609 1.386 . S
H607 C623 0.930 . S
H608 C624 0.931 . S
C609 H597 0.929 . S
C609 C603 1.390 . S
C609 C606 1.386 . S
C610 C605 1.490 . S
C610 C612 1.395 . S
C610 C613 1.403 . S
H611 C617 0.930 . S
C612 H598 0.930 . S
C612 C610 1.395 . S
C612 C615 1.403 . S
C613 C610 1.403 . S
C613 C614 1.524 . S
C613 C617 1.400 . S
C614 H599 0.960 . S
C614 H600 0.960 . S
C614 H601 0.960 . S
C614 C613 1.524 . S
C615 C612 1.403 . S
C615 C616 1.392 . S
C615 C619 1.495 . S
C616 C615 1.392 . S
C616 C617 1.385 . S
C616 C618 1.478 . S
C617 H611 0.930 . S
C617 C613 1.400 . S
C617 C616 1.385 . S
C618 C616 1.478 . S
C618 C620 1.381 . S
C618 C624 1.383 . S
C619 C615 1.495 . S
C619 H625 0.959 . S
C619 H626 0.961 . S
C619 H627 0.960 . S
C620 C618 1.381 . S
C620 C621 1.394 . S
C620 H628 0.930 . S
C621 C620 1.394 . S
C621 C622 1.383 . S
C621 H629 0.929 . S
C622 C621 1.383 . S
C622 C623 1.377 . S
C623 H607 0.930 . S
C623 C622 1.377 . S
C623 C624 1.379 . S
C624 H608 0.931 . S
C624 C618 1.383 . S
C624 C623 1.379 . S
H625 C619 0.959 . S
H626 C619 0.961 . S
H627 C619 0.960 . S
H628 C620 0.930 . S
H629 C621 0.929 . S
H630 C638 0.929 . S
H631 C640 0.930 . S
H632 C642 0.930 . S
H633 C645 0.929 . S
H634 C648 0.930 . S
H635 C650 0.960 . S
H636 C650 0.960 . S
H637 C650 0.960 . S
C638 H630 0.929 . S
C638 C639 1.377 . S
C638 C640 1.384 . S
C639 C638 1.377 . S
C639 C645 1.390 . S
C640 H631 0.930 . S
C640 C638 1.384 . S
C640 C641 1.372 . S
C641 C640 1.372 . S
C641 C642 1.400 . S
C641 C646 1.490 . S
C642 H632 0.930 . S
C642 C641 1.400 . S
C642 C645 1.386 . S
H643 C659 0.930 . S
H644 C660 0.931 . S
C645 H633 0.929 . S
C645 C639 1.390 . S
C645 C642 1.386 . S
C646 C641 1.490 . S
C646 C648 1.395 . S
C646 C649 1.403 . S
H647 C653 0.930 . S
C648 H634 0.930 . S
C648 C646 1.395 . S
C648 C651 1.403 . S
C649 C646 1.403 . S
C649 C650 1.524 . S
C649 C653 1.400 . S
C650 H635 0.960 . S
C650 H636 0.960 . S
C650 H637 0.960 . S
C650 C649 1.524 . S
C651 C648 1.403 . S
C651 C652 1.392 . S
C651 C655 1.495 . S
C652 C651 1.392 . S
C652 C653 1.385 . S
C652 C654 1.478 . S
C653 H647 0.930 . S
C653 C649 1.400 . S
C653 C652 1.385 . S
C654 C652 1.478 . S
C654 C656 1.381 . S
C654 C660 1.383 . S
C655 C651 1.495 . S
C655 H661 0.959 . S
C655 H662 0.961 . S
C655 H663 0.960 . S
C656 C654 1.381 . S
C656 C657 1.394 . S
C656 H664 0.930 . S
C657 C656 1.394 . S
C657 C658 1.383 . S
C657 H665 0.929 . S
C658 C657 1.383 . S
C658 C659 1.377 . S
C659 H643 0.930 . S
C659 C658 1.377 . S
C659 C660 1.379 . S
C660 H644 0.931 . S
C660 C654 1.383 . S
C660 C659 1.379 . S
H661 C655 0.959 . S
H662 C655 0.961 . S
H663 C655 0.960 . S
H664 C656 0.930 . S
H665 C657 0.929 . S
H666 C674 0.929 . S
H667 C676 0.930 . S
H668 C678 0.930 . S
H669 C681 0.929 . S
H670 C684 0.930 . S
H671 C686 0.960 . S
H672 C686 0.960 . S
H673 C686 0.960 . S
C674 H666 0.929 . S
C674 C675 1.377 . S
C674 C676 1.384 . S
C675 C674 1.377 . S
C675 C681 1.390 . S
C676 H667 0.930 . S
C676 C674 1.384 . S
C676 C677 1.372 . S
C677 C676 1.372 . S
C677 C678 1.400 . S
C677 C682 1.490 . S
C678 H668 0.930 . S
C678 C677 1.400 . S
C678 C681 1.386 . S
H679 C695 0.930 . S
H680 C696 0.931 . S
C681 H669 0.929 . S
C681 C675 1.390 . S
C681 C678 1.386 . S
C682 C677 1.490 . S
C682 C684 1.395 . S
C682 C685 1.403 . S
H683 C689 0.930 . S
C684 H670 0.930 . S
C684 C682 1.395 . S
C684 C687 1.403 . S
C685 C682 1.403 . S
C685 C686 1.524 . S
C685 C689 1.400 . S
C686 H671 0.960 . S
C686 H672 0.960 . S
C686 H673 0.960 . S
C686 C685 1.524 . S
C687 C684 1.403 . S
C687 C688 1.392 . S
C687 C691 1.495 . S
C688 C687 1.392 . S
C688 C689 1.385 . S
C688 C690 1.478 . S
C689 H683 0.930 . S
C689 C685 1.400 . S
C689 C688 1.385 . S
C690 C688 1.478 . S
C690 C692 1.381 . S
C690 C696 1.383 . S
C691 C687 1.495 . S
C691 H697 0.959 . S
C691 H698 0.961 . S
C691 H699 0.960 . S
C692 C690 1.381 . S
C692 C693 1.394 . S
C692 H700 0.930 . S
C693 C692 1.394 . S
C693 C694 1.383 . S
C693 H701 0.929 . S
C694 C693 1.383 . S
C694 C695 1.377 . S
C695 H679 0.930 . S
C695 C694 1.377 . S
C695 C696 1.379 . S
C696 H680 0.931 . S
C696 C690 1.383 . S
C696 C695 1.379 . S
H697 C691 0.959 . S
H698 C691 0.961 . S
H699 C691 0.960 . S
H700 C692 0.930 . S
H701 C693 0.929 . S
H702 C710 0.929 . S
H703 C712 0.930 . S
H704 C714 0.930 . S
H705 C717 0.929 . S
H706 C720 0.930 . S
H707 C722 0.960 . S
H708 C722 0.960 . S
H709 C722 0.960 . S
C710 H702 0.929 . S
C710 C711 1.377 . S
C710 C712 1.384 . S
C711 C710 1.377 . S
C711 C717 1.390 . S
C712 H703 0.930 . S
C712 C710 1.384 . S
C712 C713 1.372 . S
C713 C712 1.372 . S
C713 C714 1.400 . S
C713 C718 1.490 . S
C714 H704 0.930 . S
C714 C713 1.400 . S
C714 C717 1.386 . S
H715 C731 0.930 . S
H716 C732 0.931 . S
C717 H705 0.929 . S
C717 C711 1.390 . S
C717 C714 1.386 . S
C718 C713 1.490 . S
C718 C720 1.395 . S
C718 C721 1.403 . S
H719 C725 0.930 . S
C720 H706 0.930 . S
C720 C718 1.395 . S
C720 C723 1.403 . S
C721 C718 1.403 . S
C721 C722 1.524 . S
C721 C725 1.400 . S
C722 H707 0.960 . S
C722 H708 0.960 . S
C722 H709 0.960 . S
C722 C721 1.524 . S
C723 C720 1.403 . S
C723 C724 1.392 . S
C723 C727 1.495 . S
C724 C723 1.392 . S
C724 C725 1.385 . S
C724 C726 1.478 . S
C725 H719 0.930 . S
C725 C721 1.400 . S
C725 C724 1.385 . S
C726 C724 1.478 . S
C726 C728 1.381 . S
C726 C732 1.383 . S
C727 C723 1.495 . S
C727 H733 0.959 . S
C727 H734 0.961 . S
C727 H735 0.960 . S
C728 C726 1.381 . S
C728 C729 1.394 . S
C728 H736 0.930 . S
C729 C728 1.394 . S
C729 C730 1.383 . S
C729 H737 0.929 . S
C730 C729 1.383 . S
C730 C731 1.377 . S
C731 H715 0.930 . S
C731 C730 1.377 . S
C731 C732 1.379 . S
C732 H716 0.931 . S
C732 C726 1.383 . S
C732 C731 1.379 . S
H733 C727 0.959 . S
H734 C727 0.961 . S
H735 C727 0.960 . S
H736 C728 0.930 . S
H737 C729 0.929 . S
H738 C746 0.929 . S
H739 C748 0.930 . S
H740 C750 0.930 . S
H741 C753 0.929 . S
H742 C756 0.930 . S
H743 C758 0.960 . S
H744 C758 0.960 . S
H745 C758 0.960 . S
C746 H738 0.929 . S
C746 C747 1.377 . S
C746 C748 1.384 . S
C747 C746 1.377 . S
C747 C753 1.390 . S
C748 H739 0.930 . S
C748 C746 1.384 . S
C748 C749 1.372 . S
C749 C748 1.372 . S
C749 C750 1.400 . S
C749 C754 1.490 . S
C750 H740 0.930 . S
C750 C749 1.400 . S
C750 C753 1.386 . S
H751 C767 0.930 . S
H752 C768 0.931 . S
C753 H741 0.929 . S
C753 C747 1.390 . S
C753 C750 1.386 . S
C754 C749 1.490 . S
C754 C756 1.395 . S
C754 C757 1.403 . S
H755 C761 0.930 . S
C756 H742 0.930 . S
C756 C754 1.395 . S
C756 C759 1.403 . S
C757 C754 1.403 . S
C757 C758 1.524 . S
C757 C761 1.400 . S
C758 H743 0.960 . S
C758 H744 0.960 . S
C758 H745 0.960 . S
C758 C757 1.524 . S
C759 C756 1.403 . S
C759 C760 1.392 . S
C759 C763 1.495 . S
C760 C759 1.392 . S
C760 C761 1.385 . S
C760 C762 1.478 . S
C761 H755 0.930 . S
C761 C757 1.400 . S
C761 C760 1.385 . S
C762 C760 1.478 . S
C762 C764 1.381 . S
C762 C768 1.383 . S
C763 C759 1.495 . S
C763 H769 0.959 . S
C763 H770 0.961 . S
C763 H771 0.960 . S
C764 C762 1.381 . S
C764 C765 1.394 . S
C764 H772 0.930 . S
C765 C764 1.394 . S
C765 C766 1.383 . S
C765 H773 0.929 . S
C766 C765 1.383 . S
C766 C767 1.377 . S
C767 H751 0.930 . S
C767 C766 1.377 . S
C767 C768 1.379 . S
C768 H752 0.931 . S
C768 C762 1.383 . S
C768 C767 1.379 . S
H769 C763 0.959 . S
H770 C763 0.961 . S
H771 C763 0.960 . S
H772 C764 0.930 . S
H773 C765 0.929 . S
H774 C782 0.929 . S
H775 C784 0.930 . S
H776 C786 0.930 . S
H777 C789 0.929 . S
H778 C792 0.930 . S
H779 C794 0.960 . S
H780 C794 0.960 . S
H781 C794 0.960 . S
C782 H774 0.929 . S
C782 C783 1.377 . S
C782 C784 1.384 . S
C783 C782 1.377 . S
C783 C789 1.390 . S
C784 H775 0.930 . S
C784 C782 1.384 . S
C784 C785 1.372 . S
C785 C784 1.372 . S
C785 C786 1.400 . S
C785 C790 1.490 . S
C786 H776 0.930 . S
C786 C785 1.400 . S
C786 C789 1.386 . S
H787 C803 0.930 . S
H788 C804 0.931 . S
C789 H777 0.929 . S
C789 C783 1.390 . S
C789 C786 1.386 . S
C790 C785 1.490 . S
C790 C792 1.395 . S
C790 C793 1.403 . S
H791 C797 0.930 . S
C792 H778 0.930 . S
C792 C790 1.395 . S
C792 C795 1.403 . S
C793 C790 1.403 . S
C793 C794 1.524 . S
C793 C797 1.400 . S
C794 H779 0.960 . S
C794 H780 0.960 . S
C794 H781 0.960 . S
C794 C793 1.524 . S
C795 C792 1.403 . S
C795 C796 1.392 . S
C795 C799 1.495 . S
C796 C795 1.392 . S
C796 C797 1.385 . S
C796 C798 1.478 . S
C797 H791 0.930 . S
C797 C793 1.400 . S
C797 C796 1.385 . S
C798 C796 1.478 . S
C798 C800 1.381 . S
C798 C804 1.383 . S
C799 C795 1.495 . S
C799 H805 0.959 . S
C799 H806 0.961 . S
C799 H807 0.960 . S
C800 C798 1.381 . S
C800 C801 1.394 . S
C800 H808 0.930 . S
C801 C800 1.394 . S
C801 C802 1.383 . S
C801 H809 0.929 . S
C802 C801 1.383 . S
C802 C803 1.377 . S
C803 H787 0.930 . S
C803 C802 1.377 . S
C803 C804 1.379 . S
C804 H788 0.931 . S
C804 C798 1.383 . S
C804 C803 1.379 . S
H805 C799 0.959 . S
H806 C799 0.961 . S
H807 C799 0.960 . S
H808 C800 0.930 . S
H809 C801 0.929 . S
H810 C818 0.929 . S
H811 C820 0.930 . S
H812 C822 0.930 . S
H813 C825 0.929 . S
H814 C828 0.930 . S
H815 C830 0.960 . S
H816 C830 0.960 . S
H817 C830 0.960 . S
C818 H810 0.929 . S
C818 C819 1.377 . S
C818 C820 1.384 . S
C819 C818 1.377 . S
C819 C825 1.390 . S
C820 H811 0.930 . S
C820 C818 1.384 . S
C820 C821 1.372 . S
C821 C820 1.372 . S
C821 C822 1.400 . S
C821 C826 1.490 . S
C822 H812 0.930 . S
C822 C821 1.400 . S
C822 C825 1.386 . S
H823 C839 0.930 . S
H824 C840 0.931 . S
C825 H813 0.929 . S
C825 C819 1.390 . S
C825 C822 1.386 . S
C826 C821 1.490 . S
C826 C828 1.395 . S
C826 C829 1.403 . S
H827 C833 0.930 . S
C828 H814 0.930 . S
C828 C826 1.395 . S
C828 C831 1.403 . S
C829 C826 1.403 . S
C829 C830 1.524 . S
C829 C833 1.400 . S
C830 H815 0.960 . S
C830 H816 0.960 . S
C830 H817 0.960 . S
C830 C829 1.524 . S
C831 C828 1.403 . S
C831 C832 1.392 . S
C831 C835 1.495 . S
C832 C831 1.392 . S
C832 C833 1.385 . S
C832 C834 1.478 . S
C833 H827 0.930 . S
C833 C829 1.400 . S
C833 C832 1.385 . S
C834 C832 1.478 . S
C834 C836 1.381 . S
C834 C840 1.383 . S
C835 C831 1.495 . S
C835 H841 0.959 . S
C835 H842 0.961 . S
C835 H843 0.960 . S
C836 C834 1.381 . S
C836 C837 1.394 . S
C836 H844 0.930 . S
C837 C836 1.394 . S
C837 C838 1.383 . S
C837 H845 0.929 . S
C838 C837 1.383 . S
C838 C839 1.377 . S
C839 H823 0.930 . S
C839 C838 1.377 . S
C839 C840 1.379 . S
C840 H824 0.931 . S
C840 C834 1.383 . S
C840 C839 1.379 . S
H841 C835 0.959 . S
H842 C835 0.961 . S
H843 C835 0.960 . S
H844 C836 0.930 . S
H845 C837 0.929 . S
H846 C854 0.929 . S
H847 C856 0.930 . S
H848 C858 0.930 . S
H849 C861 0.929 . S
H850 C864 0.930 . S
H851 C866 0.960 . S
H852 C866 0.960 . S
H853 C866 0.960 . S
C854 H846 0.929 . S
C854 C855 1.377 . S
C854 C856 1.384 . S
C855 C854 1.377 . S
C855 C861 1.390 1_556 S
C856 H847 0.930 . S
C856 C854 1.384 . S
C856 C857 1.372 . S
C857 C856 1.372 . S
C857 C858 1.400 1_556 S
C857 C862 1.490 . S
C858 H848 0.930 . S
C858 C857 1.400 1_554 S
C858 C861 1.386 . S
H859 C875 0.930 1_554 S
H860 C876 0.930 1_554 S
C861 H849 0.929 . S
C861 C855 1.390 1_554 S
C861 C858 1.386 . S
C862 C857 1.490 . S
C862 C864 1.395 . S
C862 C865 1.403 1_556 S
H863 C869 0.930 . S
C864 H850 0.930 . S
C864 C862 1.395 . S
C864 C867 1.403 . S
C865 C862 1.403 1_554 S
C865 C866 1.524 . S
C865 C869 1.400 . S
C866 H851 0.960 . S
C866 H852 0.960 . S
C866 H853 0.960 . S
C866 C865 1.524 . S
C867 C864 1.403 . S
C867 C868 1.392 . S
C867 C871 1.495 . S
C868 C867 1.392 . S
C868 C869 1.385 1_556 S
C868 C870 1.478 . S
C869 H863 0.930 . S
C869 C865 1.400 . S
C869 C868 1.385 1_554 S
C870 C868 1.478 . S
C870 C872 1.381 . S
C870 C876 1.383 . S
C871 C867 1.495 . S
C871 H877 0.959 . S
C871 H878 0.961 . S
C871 H879 0.960 . S
C872 C870 1.381 . S
C872 C873 1.394 . S
C872 H880 0.930 . S
C873 C872 1.394 . S
C873 C874 1.383 . S
C873 H881 0.929 . S
C874 C873 1.383 . S
C874 C875 1.377 . S
C875 H859 0.930 1_556 S
C875 C874 1.377 . S
C875 C876 1.379 . S
C876 H860 0.930 1_556 S
C876 C870 1.383 . S
C876 C875 1.379 . S
H877 C871 0.959 . S
H878 C871 0.961 . S
H879 C871 0.960 . S
H880 C872 0.930 . S
H881 C873 0.929 . S
H882 C890 0.929 . S
H883 C892 0.930 . S
H884 C894 0.930 . S
H885 C897 0.929 . S
H886 C900 0.930 . S
H887 C902 0.960 . S
H888 C902 0.960 . S
H889 C902 0.960 1_556 S
C890 H882 0.929 . S
C890 C891 1.377 1_554 S
C890 C892 1.384 . S
C891 C890 1.377 1_556 S
C891 C897 1.390 . S
C892 H883 0.930 . S
C892 C890 1.384 . S
C892 C893 1.372 1_554 S
C893 C892 1.372 1_556 S
C893 C894 1.400 . S
C893 C898 1.490 . S
C894 H884 0.930 . S
C894 C893 1.400 . S
C894 C897 1.386 . S
H895 C911 0.930 . S
H896 C912 0.931 . S
C897 H885 0.929 . S
C897 C891 1.390 . S
C897 C894 1.386 . S
C898 C893 1.490 . S
C898 C900 1.395 . S
C898 C901 1.403 1_556 S
H899 C905 0.930 1_554 S
C900 H886 0.930 . S
C900 C898 1.395 . S
C900 C903 1.403 . S
C901 C898 1.403 1_554 S
C901 C902 1.523 . S
C901 C905 1.400 1_554 S
C902 H887 0.960 . S
C902 H888 0.960 . S
C902 H889 0.960 1_554 S
C902 C901 1.523 . S
C903 C900 1.403 . S
C903 C904 1.392 . S
C903 C907 1.495 . S
C904 C903 1.392 . S
C904 C905 1.385 . S
C904 C906 1.478 . S
C905 H899 0.930 1_556 S
C905 C901 1.400 1_556 S
C905 C904 1.385 . S
C906 C904 1.478 . S
C906 C908 1.381 1_556 S
C906 C912 1.383 . S
C907 C903 1.495 . S
C907 H913 0.959 . S
C907 H914 0.961 . S
C907 H915 0.960 . S
C908 C906 1.381 1_554 S
C908 C909 1.394 . S
C908 H916 0.930 . S
C909 C908 1.394 . S
C909 C910 1.383 1_554 S
C909 H917 0.929 . S
C910 C909 1.383 1_556 S
C910 C911 1.377 . S
C911 H895 0.930 . S
C911 C910 1.377 . S
C911 C912 1.379 . S
C912 H896 0.931 . S
C912 C906 1.383 . S
C912 C911 1.379 . S
H913 C907 0.959 . S
H914 C907 0.961 . S
H915 C907 0.960 . S
H916 C908 0.930 . S
H917 C909 0.929 . S
H918 C926 0.929 . S
H919 C928 0.930 . S
H920 C930 0.930 . S
H921 C933 0.929 . S
H922 C936 0.930 . S
H923 C938 0.960 . S
H924 C938 0.960 . S
H925 C938 0.960 . S
C926 H918 0.929 . S
C926 C927 1.377 1_554 S
C926 C928 1.384 . S
C927 C926 1.377 1_556 S
C927 C933 1.390 . S
C928 H919 0.930 . S
C928 C926 1.384 . S
C928 C929 1.372 1_554 S
C929 C928 1.372 1_556 S
C929 C930 1.400 . S
C929 C934 1.490 . S
C930 H920 0.930 . S
C930 C929 1.400 . S
C930 C933 1.386 . S
H931 C947 0.930 . S
H932 C948 0.931 . S
C933 H921 0.929 . S
C933 C927 1.390 . S
C933 C930 1.386 . S
C934 C929 1.490 . S
C934 C936 1.395 . S
C934 C937 1.403 1_556 S
H935 C941 0.930 . S
C936 H922 0.930 . S
C936 C934 1.395 . S
C936 C939 1.403 . S
C937 C934 1.403 1_554 S
C937 C938 1.524 . S
C937 C941 1.400 . S
C938 H923 0.960 . S
C938 H924 0.960 . S
C938 H925 0.960 . S
C938 C937 1.524 . S
C939 C936 1.403 . S
C939 C940 1.392 . S
C939 C943 1.495 . S
C940 C939 1.392 . S
C940 C941 1.385 1_556 S
C940 C942 1.478 . S
C941 H935 0.930 . S
C941 C937 1.400 . S
C941 C940 1.385 1_554 S
C942 C940 1.478 . S
C942 C944 1.381 1_556 S
C942 C948 1.383 . S
C943 C939 1.495 . S
C943 H949 0.959 . S
C943 H950 0.961 . S
C943 H951 0.960 . S
C944 C942 1.381 1_554 S
C944 C945 1.394 . S
C944 H952 0.930 . S
C945 C944 1.394 . S
C945 C946 1.383 1_554 S
C945 H953 0.929 . S
C946 C945 1.383 1_556 S
C946 C947 1.377 . S
C947 H931 0.930 . S
C947 C946 1.377 . S
C947 C948 1.379 . S
C948 H932 0.931 . S
C948 C942 1.383 . S
C948 C947 1.379 . S
H949 C943 0.959 . S
H950 C943 0.961 . S
H951 C943 0.960 . S
H952 C944 0.930 . S
H953 C945 0.929 . S
H954 C962 0.929 . S
H955 C964 0.930 . S
H956 C966 0.930 . S
H957 C969 0.929 . S
H958 C972 0.930 . S
H959 C974 0.960 . S
H960 C974 0.960 . S
H961 C974 0.960 . S
C962 H954 0.929 . S
C962 C963 1.377 . S
C962 C964 1.384 . S
C963 C962 1.377 . S
C963 C969 1.390 . S
C964 H955 0.930 . S
C964 C962 1.384 . S
C964 C965 1.372 . S
C965 C964 1.372 . S
C965 C966 1.400 . S
C965 C970 1.490 . S
C966 H956 0.930 . S
C966 C965 1.400 . S
C966 C969 1.386 . S
H967 C983 0.930 . S
H968 C984 0.931 . S
C969 H957 0.929 . S
C969 C963 1.390 . S
C969 C966 1.386 . S
C970 C965 1.490 . S
C970 C972 1.395 . S
C970 C973 1.403 . S
H971 C977 0.930 . S
C972 H958 0.930 . S
C972 C970 1.395 . S
C972 C975 1.403 . S
C973 C970 1.403 . S
C973 C974 1.524 . S
C973 C977 1.400 . S
C974 H959 0.960 . S
C974 H960 0.960 . S
C974 H961 0.960 . S
C974 C973 1.524 . S
C975 C972 1.403 . S
C975 C976 1.392 . S
C975 C979 1.495 . S
C976 C975 1.392 . S
C976 C977 1.385 . S
C976 C978 1.478 . S
C977 H971 0.930 . S
C977 C973 1.400 . S
C977 C976 1.385 . S
C978 C976 1.478 . S
C978 C980 1.381 . S
C978 C984 1.383 . S
C979 C975 1.495 . S
C979 H985 0.959 . S
C979 H986 0.961 . S
C979 H987 0.960 . S
C980 C978 1.381 . S
C980 C981 1.394 . S
C980 H988 0.930 . S
C981 C980 1.394 . S
C981 C982 1.383 . S
C981 H989 0.929 . S
C982 C981 1.383 . S
C982 C983 1.377 . S
C983 H967 0.930 . S
C983 C982 1.377 . S
C983 C984 1.379 . S
C984 H968 0.931 . S
C984 C978 1.383 . S
C984 C983 1.379 . S
H985 C979 0.959 . S
H986 C979 0.961 . S
H987 C979 0.960 . S
H988 C980 0.930 . S
H989 C981 0.929 . S
H990 C998 0.929 . S
H991 C1000 0.930 . S
H992 C1002 0.930 . S
H993 C1005 0.929 . S
H994 C1008 0.930 . S
H995 C1010 0.960 . S
H996 C1010 0.960 . S
H997 C1010 0.960 . S
C998 H990 0.929 . S
C998 C999 1.377 . S
C998 C1000 1.384 . S
C999 C998 1.377 . S
C999 C1005 1.390 . S
C1000 H991 0.930 . S
C1000 C998 1.384 . S
C1000 C1001 1.372 . S
C1001 C1000 1.372 . S
C1001 C1002 1.400 . S
C1001 C1006 1.490 . S
C1002 H992 0.930 . S
C1002 C1001 1.400 . S
C1002 C1005 1.386 . S
H1003 C1019 0.930 . S
H1004 C1020 0.931 . S
C1005 H993 0.929 . S
C1005 C999 1.390 . S
C1005 C1002 1.386 . S
C1006 C1001 1.490 . S
C1006 C1008 1.395 . S
C1006 C1009 1.403 . S
H1007 C1013 0.930 . S
C1008 H994 0.930 . S
C1008 C1006 1.395 . S
C1008 C1011 1.403 . S
C1009 C1006 1.403 . S
C1009 C1010 1.524 . S
C1009 C1013 1.400 . S
C1010 H995 0.960 . S
C1010 H996 0.960 . S
C1010 H997 0.960 . S
C1010 C1009 1.524 . S
C1011 C1008 1.403 . S
C1011 C1012 1.392 . S
C1011 C1015 1.495 . S
C1012 C1011 1.392 . S
C1012 C1013 1.385 . S
C1012 C1014 1.478 . S
C1013 H1007 0.930 . S
C1013 C1009 1.400 . S
C1013 C1012 1.385 . S
C1014 C1012 1.478 . S
C1014 C1016 1.381 . S
C1014 C1020 1.383 . S
C1015 C1011 1.495 . S
C1015 H1021 0.959 . S
C1015 H1022 0.961 . S
C1015 H1023 0.960 . S
C1016 C1014 1.381 . S
C1016 C1017 1.394 . S
C1016 H1024 0.930 . S
C1017 C1016 1.394 . S
C1017 C1018 1.383 . S
C1017 H1025 0.929 . S
C1018 C1017 1.383 . S
C1018 C1019 1.377 . S
C1019 H1003 0.930 . S
C1019 C1018 1.377 . S
C1019 C1020 1.379 . S
C1020 H1004 0.931 . S
C1020 C1014 1.383 . S
C1020 C1019 1.379 . S
H1021 C1015 0.959 . S
H1022 C1015 0.961 . S
H1023 C1015 0.960 . S
H1024 C1016 0.930 . S
H1025 C1017 0.929 . S
H1026 C1034 0.929 . S
H1027 C1036 0.930 . S
H1028 C1038 0.930 . S
H1029 C1041 0.929 . S
H1030 C1044 0.930 . S
H1031 C1046 0.960 . S
H1032 C1046 0.960 . S
H1033 C1046 0.960 . S
C1034 H1026 0.929 . S
C1034 C1035 1.377 . S
C1034 C1036 1.384 . S
C1035 C1034 1.377 . S
C1035 C1041 1.390 . S
C1036 H1027 0.930 . S
C1036 C1034 1.384 . S
C1036 C1037 1.372 . S
C1037 C1036 1.372 . S
C1037 C1038 1.400 . S
C1037 C1042 1.490 . S
C1038 H1028 0.930 . S
C1038 C1037 1.400 . S
C1038 C1041 1.386 . S
H1039 C1055 0.930 . S
H1040 C1056 0.931 . S
C1041 H1029 0.929 . S
C1041 C1035 1.390 . S
C1041 C1038 1.386 . S
C1042 C1037 1.490 . S
C1042 C1044 1.395 . S
C1042 C1045 1.403 . S
H1043 C1049 0.930 . S
C1044 H1030 0.930 . S
C1044 C1042 1.395 . S
C1044 C1047 1.403 . S
C1045 C1042 1.403 . S
C1045 C1046 1.524 . S
C1045 C1049 1.400 . S
C1046 H1031 0.960 . S
C1046 H1032 0.960 . S
C1046 H1033 0.960 . S
C1046 C1045 1.524 . S
C1047 C1044 1.403 . S
C1047 C1048 1.392 . S
C1047 C1051 1.495 . S
C1048 C1047 1.392 . S
C1048 C1049 1.385 . S
C1048 C1050 1.478 . S
C1049 H1043 0.930 . S
C1049 C1045 1.400 . S
C1049 C1048 1.385 . S
C1050 C1048 1.478 . S
C1050 C1052 1.381 . S
C1050 C1056 1.383 . S
C1051 C1047 1.495 . S
C1051 H1057 0.959 . S
C1051 H1058 0.961 . S
C1051 H1059 0.960 . S
C1052 C1050 1.381 . S
C1052 C1053 1.394 . S
C1052 H1060 0.930 . S
C1053 C1052 1.394 . S
C1053 C1054 1.383 . S
C1053 H1061 0.929 . S
C1054 C1053 1.383 . S
C1054 C1055 1.377 . S
C1055 H1039 0.930 . S
C1055 C1054 1.377 . S
C1055 C1056 1.379 . S
C1056 H1040 0.931 . S
C1056 C1050 1.383 . S
C1056 C1055 1.379 . S
H1057 C1051 0.959 . S
H1058 C1051 0.961 . S
H1059 C1051 0.960 . S
H1060 C1052 0.930 . S
H1061 C1053 0.929 . S
H1062 C1070 0.929 . S
H1063 C1072 0.930 1_655 S
H1064 C1074 0.930 1_655 S
H1065 C1077 0.929 . S
H1066 C1080 0.930 . S
H1067 C1082 0.960 . S
H1068 C1082 0.960 . S
H1069 C1082 0.960 . S
C1070 H1062 0.929 . S
C1070 C1071 1.377 . S
C1070 C1072 1.384 . S
C1071 C1070 1.377 . S
C1071 C1077 1.390 . S
C1072 H1063 0.930 1_455 S
C1072 C1070 1.384 . S
C1072 C1073 1.372 1_455 S
C1073 C1072 1.372 1_655 S
C1073 C1074 1.400 1_655 S
C1073 C1078 1.490 . S
C1074 H1064 0.930 1_455 S
C1074 C1073 1.400 1_455 S
C1074 C1077 1.386 . S
H1075 C1091 0.930 . S
H1076 C1092 0.931 . S
C1077 H1065 0.929 . S
C1077 C1071 1.390 . S
C1077 C1074 1.386 . S
C1078 C1073 1.490 . S
C1078 C1080 1.395 . S
C1078 C1081 1.403 . S
H1079 C1085 0.930 . S
C1080 H1066 0.930 . S
C1080 C1078 1.395 . S
C1080 C1083 1.403 . S
C1081 C1078 1.403 . S
C1081 C1082 1.524 . S
C1081 C1085 1.400 . S
C1082 H1067 0.960 . S
C1082 H1068 0.960 . S
C1082 H1069 0.960 . S
C1082 C1081 1.524 . S
C1083 C1080 1.403 . S
C1083 C1084 1.392 . S
C1083 C1087 1.495 . S
C1084 C1083 1.392 . S
C1084 C1085 1.385 . S
C1084 C1086 1.478 . S
C1085 H1079 0.930 . S
C1085 C1081 1.400 . S
C1085 C1084 1.385 . S
C1086 C1084 1.478 . S
C1086 C1088 1.381 . S
C1086 C1092 1.383 . S
C1087 C1083 1.495 . S
C1087 H1093 0.959 . S
C1087 H1094 0.961 . S
C1087 H1095 0.960 . S
C1088 C1086 1.381 . S
C1088 C1089 1.394 . S
C1088 H1096 0.930 . S
C1089 C1088 1.394 . S
C1089 C1090 1.383 . S
C1089 H1097 0.929 . S
C1090 C1089 1.383 . S
C1090 C1091 1.377 . S
C1091 H1075 0.930 . S
C1091 C1090 1.377 . S
C1091 C1092 1.379 . S
C1092 H1076 0.931 . S
C1092 C1086 1.383 . S
C1092 C1091 1.379 . S
H1093 C1087 0.959 . S
H1094 C1087 0.961 . S
H1095 C1087 0.960 . S
H1096 C1088 0.930 . S
H1097 C1089 0.929 . S
H1098 C1106 0.929 . S
H1099 C1108 0.930 . S
H1100 C1110 0.930 . S
H1101 C1113 0.929 . S
H1102 C1116 0.930 . S
H1103 C1118 0.960 . S
H1104 C1118 0.960 . S
H1105 C1118 0.960 . S
C1106 H1098 0.929 . S
C1106 C1107 1.377 . S
C1106 C1108 1.384 1_565 S
C1107 C1106 1.377 . S
C1107 C1113 1.390 . S
C1108 H1099 0.930 . S
C1108 C1106 1.384 1_545 S
C1108 C1109 1.372 . S
C1109 C1108 1.372 . S
C1109 C1110 1.400 1_545 S
C1109 C1114 1.490 . S
C1110 H1100 0.930 . S
C1110 C1109 1.400 1_565 S
C1110 C1113 1.386 . S
H1111 C1127 0.930 . S
H1112 C1128 0.931 . S
C1113 H1101 0.929 . S
C1113 C1107 1.390 . S
C1113 C1110 1.386 . S
C1114 C1109 1.490 . S
C1114 C1116 1.395 . S
C1114 C1117 1.403 . S
H1115 C1121 0.930 . S
C1116 H1102 0.930 . S
C1116 C1114 1.395 . S
C1116 C1119 1.403 . S
C1117 C1114 1.403 . S
C1117 C1118 1.524 . S
C1117 C1121 1.400 . S
C1118 H1103 0.960 . S
C1118 H1104 0.960 . S
C1118 H1105 0.960 . S
C1118 C1117 1.524 . S
C1119 C1116 1.403 . S
C1119 C1120 1.392 . S
C1119 C1123 1.495 . S
C1120 C1119 1.392 . S
C1120 C1121 1.385 . S
C1120 C1122 1.478 . S
C1121 H1115 0.930 . S
C1121 C1117 1.400 . S
C1121 C1120 1.385 . S
C1122 C1120 1.478 . S
C1122 C1124 1.381 . S
C1122 C1128 1.383 . S
C1123 C1119 1.495 . S
C1123 H1129 0.959 . S
C1123 H1130 0.961 . S
C1123 H1131 0.960 . S
C1124 C1122 1.381 . S
C1124 C1125 1.394 . S
C1124 H1132 0.930 . S
C1125 C1124 1.394 . S
C1125 C1126 1.383 . S
C1125 H1133 0.929 . S
C1126 C1125 1.383 . S
C1126 C1127 1.377 . S
C1127 H1111 0.930 . S
C1127 C1126 1.377 . S
C1127 C1128 1.379 . S
C1128 H1112 0.931 . S
C1128 C1122 1.383 . S
C1128 C1127 1.379 . S
H1129 C1123 0.959 . S
H1130 C1123 0.961 . S
H1131 C1123 0.960 . S
H1132 C1124 0.930 . S
H1133 C1125 0.929 . S
H1134 C1142 0.929 . S
H1135 C1144 0.930 . S
H1136 C1146 0.930 . S
H1137 C1149 0.929 . S
H1138 C1152 0.930 . S
H1139 C1154 0.960 . S
H1140 C1154 0.960 . S
H1141 C1154 0.960 . S
C1142 H1134 0.929 . S
C1142 C1143 1.377 . S
C1142 C1144 1.384 1_565 S
C1143 C1142 1.377 . S
C1143 C1149 1.390 . S
C1144 H1135 0.930 . S
C1144 C1142 1.384 1_545 S
C1144 C1145 1.372 . S
C1145 C1144 1.372 . S
C1145 C1146 1.400 1_545 S
C1145 C1150 1.490 . S
C1146 H1136 0.930 . S
C1146 C1145 1.400 1_565 S
C1146 C1149 1.386 . S
H1147 C1163 0.930 . S
H1148 C1164 0.931 . S
C1149 H1137 0.929 . S
C1149 C1143 1.390 . S
C1149 C1146 1.386 . S
C1150 C1145 1.490 . S
C1150 C1152 1.395 . S
C1150 C1153 1.403 . S
H1151 C1157 0.930 . S
C1152 H1138 0.930 . S
C1152 C1150 1.395 . S
C1152 C1155 1.403 . S
C1153 C1150 1.403 . S
C1153 C1154 1.524 . S
C1153 C1157 1.400 . S
C1154 H1139 0.960 . S
C1154 H1140 0.960 . S
C1154 H1141 0.960 . S
C1154 C1153 1.524 . S
C1155 C1152 1.403 . S
C1155 C1156 1.392 . S
C1155 C1159 1.495 . S
C1156 C1155 1.392 . S
C1156 C1157 1.385 . S
C1156 C1158 1.478 . S
C1157 H1151 0.930 . S
C1157 C1153 1.400 . S
C1157 C1156 1.385 . S
C1158 C1156 1.478 . S
C1158 C1160 1.381 . S
C1158 C1164 1.383 1_655 S
C1159 C1155 1.495 . S
C1159 H1165 0.959 . S
C1159 H1166 0.961 . S
C1159 H1167 0.960 . S
C1160 C1158 1.381 . S
C1160 C1161 1.394 1_655 S
C1160 H1168 0.930 . S
C1161 C1160 1.394 1_455 S
C1161 C1162 1.383 . S
C1161 H1169 0.929 . S
C1162 C1161 1.383 . S
C1162 C1163 1.377 . S
C1163 H1147 0.930 . S
C1163 C1162 1.377 . S
C1163 C1164 1.379 . S
C1164 H1148 0.931 . S
C1164 C1158 1.383 1_455 S
C1164 C1163 1.379 . S
H1165 C1159 0.959 . S
H1166 C1159 0.961 . S
H1167 C1159 0.960 . S
H1168 C1160 0.930 . S
H1169 C1161 0.929 . S
C207 C18 1.151 . S
C226 C164 1.137 . S
C243 C30 1.150 . S
C262 C194 1.133 . S
C279 C142 1.131 . S
C298 C62 1.157 . S
C315 C169 1.256 . S
C334 C51 1.256 . S
C351 C183 1.256 . S
C370 C7 1.247 . S
C387 C147 1.257 . S
C406 C43 1.234 . S
C423 C40 1.130 . S
C442 C84 1.158 . S
C459 C106 1.147 . S
C478 C54 1.123 . S
C495 C10 1.130 . S
C514 C120 1.135 . S
C531 C29 1.261 . S
C550 C125 1.231 . S
C567 C73 1.249 . S
C586 C59 1.256 . S
C603 C15 1.258 . S
C622 C95 1.271 . S
C639 C150 1.148 . S
C658 C98 1.108 . S
C675 C118 1.134 . S
C694 C172 1.150 . S
C711 C184 1.151 . S
C730 C76 1.105 . S
C747 C197 1.257 . S
C766 C103 1.253 . S
C783 C131 1.263 . S
C802 C139 1.247 . S
C819 C81 1.258 . S
C838 C161 1.269 . S
C855 C8 0.717 . S
C874 C37 0.737 . S
C891 C65 0.714 . S
C910 C32 0.696 . S
C927 C52 0.710 . S
C946 C21 0.761 . S
C963 C109 0.723 . S
C982 C74 0.718 . S
C999 C117 0.719 . S
C1018 C96 0.686 . S
C1035 C128 0.708 . S
C1054 C87 0.751 . S
C1071 C175 0.721 . S
C1090 C140 0.684 . S
C1107 C162 0.714 . S
C1126 C191 0.751 . S
C1143 C153 0.724 . S
C1162 C186 0.712 . S
