# Generated by pormake.
# Topology wla, (5)-cn, num edge types: 1
# Building blocks:
#     Node 0, Type 0, BuildingBlock: XOMCOT_clean_sbu_0, # of connection points: 5
#     Node 1, Type 0, BuildingBlock: XOMCOT_clean_sbu_0, # of connection points: 5
#     Node 2, Type 0, BuildingBlock: XOMCOT_clean_sbu_0, # of connection points: 5
#     Node 3, Type 0, BuildingBlock: XOMCOT_clean_sbu_0, # of connection points: 5
#     Node 4, Type 0, BuildingBlock: XOMCOT_clean_sbu_0, # of connection points: 5
#     Node 5, Type 0, BuildingBlock: XOMCOT_clean_sbu_0, # of connection points: 5
#     Node 6, Type 0, BuildingBlock: XOMCOT_clean_sbu_0, # of connection points: 5
#     Node 7, Type 0, BuildingBlock: XOMCOT_clean_sbu_0, # of connection points: 5
#     Node 8, Type 0, BuildingBlock: XOMCOT_clean_sbu_0, # of connection points: 5
#     Node 9, Type 0, BuildingBlock: XOMCOT_clean_sbu_0, # of connection points: 5
#     Node 10, Type 0, BuildingBlock: XOMCOT_clean_sbu_0, # of connection points: 5
#     Node 11, Type 0, BuildingBlock: XOMCOT_clean_sbu_0, # of connection points: 5
#     Node 12, Type 0, BuildingBlock: XOMCOT_clean_sbu_0, # of connection points: 5
#     Node 13, Type 0, BuildingBlock: XOMCOT_clean_sbu_0, # of connection points: 5
#     Node 14, Type 0, BuildingBlock: XOMCOT_clean_sbu_0, # of connection points: 5
#     Node 15, Type 0, BuildingBlock: XOMCOT_clean_sbu_0, # of connection points: 5
#     Node 16, Type 0, BuildingBlock: XOMCOT_clean_sbu_0, # of connection points: 5
#     Node 17, Type 0, BuildingBlock: XOMCOT_clean_sbu_0, # of connection points: 5
#     Edge 18, Type (0, 0), BuildingBlock: EZIPEK_clean_linker_0, # of connection points: 2
#     Edge 19, Type (0, 0), BuildingBlock: EZIPEK_clean_linker_0, # of connection points: 2
#     Edge 20, Type (0, 0), BuildingBlock: EZIPEK_clean_linker_0, # of connection points: 2
#     Edge 21, Type (0, 0), BuildingBlock: EZIPEK_clean_linker_0, # of connection points: 2
#     Edge 22, Type (0, 0), BuildingBlock: EZIPEK_clean_linker_0, # of connection points: 2
#     Edge 23, Type (0, 0), BuildingBlock: EZIPEK_clean_linker_0, # of connection points: 2
#     Edge 24, Type (0, 0), BuildingBlock: EZIPEK_clean_linker_0, # of connection points: 2
#     Edge 25, Type (0, 0), BuildingBlock: EZIPEK_clean_linker_0, # of connection points: 2
#     Edge 26, Type (0, 0), BuildingBlock: EZIPEK_clean_linker_0, # of connection points: 2
#     Edge 27, Type (0, 0), BuildingBlock: EZIPEK_clean_linker_0, # of connection points: 2
#     Edge 28, Type (0, 0), BuildingBlock: EZIPEK_clean_linker_0, # of connection points: 2
#     Edge 29, Type (0, 0), BuildingBlock: EZIPEK_clean_linker_0, # of connection points: 2
#     Edge 30, Type (0, 0), BuildingBlock: EZIPEK_clean_linker_0, # of connection points: 2
#     Edge 31, Type (0, 0), BuildingBlock: EZIPEK_clean_linker_0, # of connection points: 2
#     Edge 32, Type (0, 0), BuildingBlock: EZIPEK_clean_linker_0, # of connection points: 2
#     Edge 33, Type (0, 0), BuildingBlock: EZIPEK_clean_linker_0, # of connection points: 2
#     Edge 34, Type (0, 0), BuildingBlock: EZIPEK_clean_linker_0, # of connection points: 2
#     Edge 35, Type (0, 0), BuildingBlock: EZIPEK_clean_linker_0, # of connection points: 2
#     Edge 36, Type (0, 0), BuildingBlock: EZIPEK_clean_linker_0, # of connection points: 2
#     Edge 37, Type (0, 0), BuildingBlock: EZIPEK_clean_linker_0, # of connection points: 2
#     Edge 38, Type (0, 0), BuildingBlock: EZIPEK_clean_linker_0, # of connection points: 2
#     Edge 39, Type (0, 0), BuildingBlock: EZIPEK_clean_linker_0, # of connection points: 2
#     Edge 40, Type (0, 0), BuildingBlock: EZIPEK_clean_linker_0, # of connection points: 2
#     Edge 41, Type (0, 0), BuildingBlock: EZIPEK_clean_linker_0, # of connection points: 2
#     Edge 42, Type (0, 0), BuildingBlock: EZIPEK_clean_linker_0, # of connection points: 2
#     Edge 43, Type (0, 0), BuildingBlock: EZIPEK_clean_linker_0, # of connection points: 2
#     Edge 44, Type (0, 0), BuildingBlock: EZIPEK_clean_linker_0, # of connection points: 2
#     Edge 45, Type (0, 0), BuildingBlock: EZIPEK_clean_linker_0, # of connection points: 2
#     Edge 46, Type (0, 0), BuildingBlock: EZIPEK_clean_linker_0, # of connection points: 2
#     Edge 47, Type (0, 0), BuildingBlock: EZIPEK_clean_linker_0, # of connection points: 2
#     Edge 48, Type (0, 0), BuildingBlock: EZIPEK_clean_linker_0, # of connection points: 2
#     Edge 49, Type (0, 0), BuildingBlock: EZIPEK_clean_linker_0, # of connection points: 2
#     Edge 50, Type (0, 0), BuildingBlock: EZIPEK_clean_linker_0, # of connection points: 2
#     Edge 51, Type (0, 0), BuildingBlock: EZIPEK_clean_linker_0, # of connection points: 2
#     Edge 52, Type (0, 0), BuildingBlock: EZIPEK_clean_linker_0, # of connection points: 2
#     Edge 53, Type (0, 0), BuildingBlock: EZIPEK_clean_linker_0, # of connection points: 2
#     Edge 54, Type (0, 0), BuildingBlock: EZIPEK_clean_linker_0, # of connection points: 2
#     Edge 55, Type (0, 0), BuildingBlock: EZIPEK_clean_linker_0, # of connection points: 2
#     Edge 56, Type (0, 0), BuildingBlock: EZIPEK_clean_linker_0, # of connection points: 2
#     Edge 57, Type (0, 0), BuildingBlock: EZIPEK_clean_linker_0, # of connection points: 2
#     Edge 58, Type (0, 0), BuildingBlock: EZIPEK_clean_linker_0, # of connection points: 2
#     Edge 59, Type (0, 0), BuildingBlock: EZIPEK_clean_linker_0, # of connection points: 2
#     Edge 60, Type (0, 0), BuildingBlock: EZIPEK_clean_linker_0, # of connection points: 2
#     Edge 61, Type (0, 0), BuildingBlock: EZIPEK_clean_linker_0, # of connection points: 2
#     Edge 62, Type (0, 0), BuildingBlock: EZIPEK_clean_linker_0, # of connection points: 2
# Relax obj value: 0.268
# Max RMSD: 0.261
# Mean RMSD: 0.261
data_MOF--net-wla--node1-XOMCOT_clean_sbu_0--edge1-EZIPEK_clean_linker_0
_symmetry_space_group_name_H-M    P1
_symmetry_Int_Tables_number       1
_symmetry_cell_setting            triclinic
loop_
_symmetry_equiv_pos_as_xyz
'x, y, z'
_cell_length_a     45.526639
_cell_length_b     45.554412
_cell_length_c     24.016691
_cell_angle_alpha  89.982228
_cell_angle_beta   90.01113
_cell_angle_gamma 119.90958
loop_
_atom_site_label
_atom_site_type_symbol
_atom_site_fract_x
_atom_site_fract_y
_atom_site_fract_z
_atom_type_partial_charge
Co0 Co 0.16678 0.0309 0.19639 0.0
C1 C 0.23814 0.08656 0.19384 0.0
C2 C 0.20499 0.10479 0.16901 0.0
C3 C 0.23789 0.13103 0.16475 0.0
N4 N 0.20493 0.07702 0.18916 0.0
N5 N 0.2586 0.11927 0.17964 0.0
H6 H 0.24752 0.06971 0.20438 0.0
H7 H 0.18299 0.10594 0.1558 0.0
C8 C 0.1383 0.07439 0.23759 0.0
O9 O 0.16572 0.09333 0.267 0.0
N10 N 0.13003 0.98488 0.20355 0.0
C11 C 0.13367 0.9582 0.21773 0.0
C12 C 0.10213 0.93045 0.22634 0.0
C13 C 0.09636 0.97318 0.20408 0.0
N14 N 0.07893 0.94009 0.21804 0.0
C15 C 0.204 0.02467 0.28904 0.0
C16 C 0.15792 0.01832 0.36988 0.0
C17 C 0.18567 0.015 0.38525 0.0
C18 C 0.20901 0.01824 0.34434 0.0
C19 C 0.15374 0.02445 0.31443 0.0
N20 N 0.17704 0.02853 0.27472 0.0
H21 H 0.22075 0.0246 0.25743 0.0
H22 H 0.1305 0.0238 0.30347 0.0
H23 H 0.1577 0.95917 0.22336 0.0
H24 H 0.08475 0.98845 0.19562 0.0
O25 O 0.19387 0.01426 0.15885 0.0
O26 O 0.15998 0.02943 0.11756 0.0
O27 O 0.1343 0.0477 0.21366 0.0
C28 C 0.18083 0.01804 0.11278 0.0
H29 H 0.24609 0.15624 0.14907 0.0
H30 H 0.09656 0.90534 0.23868 0.0
H31 H 0.13882 0.0148 0.40024 0.0
H32 H 0.2302 0.01472 0.35475 0.0
Co33 Co 0.96209 0.13421 0.19192 0.0
C34 C 0.90967 0.15413 0.18833 0.0
C35 C 0.88786 0.10045 0.1772 0.0
C36 C 0.86236 0.10835 0.17342 0.0
N37 N 0.91743 0.12917 0.18679 0.0
N38 N 0.87626 0.14205 0.18012 0.0
H39 H 0.92806 0.18062 0.19453 0.0
H40 H 0.88501 0.07559 0.17196 0.0
C41 C 0.9456 0.06829 0.25176 0.0
O42 O 0.96973 0.0836 0.28899 0.0
N43 N 0.00779 0.13999 0.19619 0.0
C44 C 0.03733 0.16986 0.19516 0.0
C45 C 0.0641 0.16422 0.20175 0.0
C46 C 0.01762 0.11647 0.20029 0.0
N47 N 0.05143 0.13069 0.20551 0.0
C48 C 0.99216 0.18159 0.28195 0.0
C49 C 0.95052 0.13893 0.36442 0.0
C50 C 0.98066 0.16821 0.37957 0.0
C51 C 0.00079 0.19047 0.3376 0.0
C52 C 0.9435 0.13059 0.30807 0.0
N53 N 0.9659 0.15049 0.26801 0.0
H54 H 0.00735 0.1993 0.25017 0.0
H55 H 0.92093 0.10729 0.2969 0.0
H56 H 0.03981 0.19444 0.18944 0.0
H57 H 0.00111 0.08954 0.19884 0.0
O58 O 0.98009 0.17641 0.15006 0.0
O59 O 0.96102 0.12534 0.11393 0.0
O60 O 0.94002 0.08531 0.21547 0.0
C61 C 0.9738 0.15759 0.10576 0.0
H62 H 0.83582 0.09092 0.16526 0.0
H63 H 0.09074 0.1831 0.20327 0.0
H64 H 0.93368 0.12173 0.39588 0.0
H65 H 0.02353 0.21402 0.34772 0.0
Co66 Co 0.8656 0.83185 0.19354 0.0
C67 C 0.84764 0.75951 0.18807 0.0
C68 C 0.89289 0.7917 0.14232 0.0
C69 C 0.88509 0.7587 0.13438 0.0
N70 N 0.86984 0.79238 0.17699 0.0
N71 N 0.85661 0.73869 0.16298 0.0
H72 H 0.82468 0.75054 0.21188 0.0
H73 H 0.91342 0.81353 0.12253 0.0
C74 C 0.93538 0.84947 0.23407 0.0
O75 O 0.92537 0.81794 0.24762 0.0
N76 N 0.8607 0.87074 0.20914 0.0
C77 C 0.8318 0.86989 0.2246 0.0
C78 C 0.83901 0.90229 0.23742 0.0
C79 C 0.88511 0.90354 0.2125 0.0
N80 N 0.87246 0.92313 0.23002 0.0
C81 C 0.81422 0.79181 0.27493 0.0
C82 C 0.85324 0.82476 0.36701 0.0
C83 C 0.8191 0.80084 0.37478 0.0
C84 C 0.79952 0.78362 0.32817 0.0
C85 C 0.86696 0.83182 0.31362 0.0
N86 N 0.84772 0.81534 0.26808 0.0
H87 H 0.79831 0.7802 0.23901 0.0
H88 H 0.89261 0.85222 0.30952 0.0
H89 H 0.80726 0.8472 0.22721 0.0
H90 H 0.91153 0.91297 0.20265 0.0
O91 O 0.82421 0.81273 0.1477 0.0
O92 O 0.87661 0.84557 0.11833 0.0
O93 O 0.9141 0.85842 0.21949 0.0
C94 C 0.84472 0.82874 0.10634 0.0
H95 H 0.89845 0.74991 0.10809 0.0
H96 H 0.82122 0.91005 0.25094 0.0
H97 H 0.86898 0.83891 0.40201 0.0
H98 H 0.77288 0.76517 0.33269 0.0
Co99 Co 0.02916 0.16625 0.7987 0.0
C100 C 0.08127 0.23758 0.81351 0.0
C101 C 0.09967 0.20424 0.83777 0.0
C102 C 0.12512 0.23713 0.84614 0.0
N103 N 0.07236 0.2047 0.81711 0.0
N104 N 0.11326 0.25784 0.83133 0.0
H105 H 0.06458 0.24652 0.79906 0.0
H106 H 0.10091 0.18164 0.84695 0.0
C107 C 0.0499 0.11759 0.74742 0.0
O108 O 0.0274 0.10821 0.70721 0.0
N109 N 0.98513 0.12732 0.78032 0.0
C110 C 0.9576 0.12774 0.7599 0.0
C111 C 0.93267 0.0952 0.74792 0.0
C112 C 0.97547 0.09414 0.78356 0.0
N113 N 0.94435 0.0744 0.76213 0.0
C114 C 0.01261 0.19462 0.70567 0.0
C115 C 0.05261 0.18591 0.62876 0.0
C116 C 0.02602 0.19054 0.60989 0.0
C117 C 0.00724 0.19701 0.64911 0.0
C118 C 0.05629 0.18268 0.68592 0.0
N119 N 0.03382 0.18335 0.72286 0.0
H120 H 0.99796 0.19962 0.73549 0.0
H121 H 0.07617 0.17813 0.6999 0.0
H122 H 0.95501 0.14981 0.75484 0.0
H123 H 0.99087 0.0843 0.79996 0.0
O124 O 0.00631 0.18802 0.83374 0.0
O125 O 0.02133 0.15422 0.87618 0.0
O126 O 0.05364 0.14044 0.78204 0.0
C127 C 0.00767 0.17326 0.87935 0.0
H128 H 0.15009 0.24529 0.86296 0.0
H129 H 0.90805 0.08736 0.72991 0.0
H130 H 0.06878 0.18251 0.59951 0.0
H131 H 0.98753 0.20227 0.63618 0.0
Co132 Co 0.83038 0.86387 0.7826 0.0
C133 C 0.75951 0.84343 0.80659 0.0
C134 C 0.79126 0.89754 0.80954 0.0
C135 C 0.75856 0.88958 0.82175 0.0
N136 N 0.79165 0.86859 0.79951 0.0
N137 N 0.7389 0.85565 0.82002 0.0
H138 H 0.75131 0.8168 0.80217 0.0
H139 H 0.81316 0.9227 0.80891 0.0
C140 C 0.88106 0.93084 0.72804 0.0
O141 O 0.89509 0.91758 0.69674 0.0
N142 N 0.86915 0.85819 0.76614 0.0
C143 C 0.8679 0.83067 0.74236 0.0
C144 C 0.90013 0.8356 0.73809 0.0
C145 C 0.90226 0.87885 0.77828 0.0
N146 N 0.92154 0.86595 0.76026 0.0
C147 C 0.79187 0.81037 0.70357 0.0
C148 C 0.81046 0.85168 0.61077 0.0
C149 C 0.79539 0.81671 0.6032 0.0
C150 C 0.78407 0.79571 0.65031 0.0
C151 C 0.81719 0.86512 0.66438 0.0
N152 N 0.81069 0.84473 0.70985 0.0
H153 H 0.78504 0.79405 0.73959 0.0
H154 H 0.82848 0.89206 0.66823 0.0
H155 H 0.84527 0.80803 0.72971 0.0
H156 H 0.91232 0.90308 0.7987 0.0
O157 O 0.81267 0.8234 0.83048 0.0
O158 O 0.84528 0.87621 0.85709 0.0
O159 O 0.85412 0.91221 0.75561 0.0
C160 C 0.82901 0.8446 0.87086 0.0
H161 H 0.74987 0.90716 0.83174 0.0
H162 H 0.90741 0.81836 0.72013 0.0
H163 H 0.81818 0.86865 0.57533 0.0
H164 H 0.7713 0.76843 0.64594 0.0
Co165 Co 0.13598 0.96657 0.8064 0.0
C166 C 0.15451 0.91242 0.81369 0.0
C167 C 0.10338 0.89438 0.83954 0.0
C168 C 0.11034 0.86846 0.84551 0.0
N169 N 0.13061 0.9217 0.81749 0.0
N170 N 0.14265 0.88007 0.82998 0.0
H171 H 0.18059 0.9292 0.80238 0.0
H172 H 0.08026 0.89336 0.85239 0.0
C173 C 0.06543 0.91983 0.76319 0.0
O174 O 0.07629 0.90201 0.73611 0.0
N175 N 0.14149 0.01112 0.79595 0.0
C176 C 0.16902 0.03823 0.77436 0.0
C177 C 0.16122 0.0633 0.76382 0.0
C178 C 0.11724 0.01989 0.79792 0.0
N179 N 0.12864 0.05148 0.77823 0.0
C180 C 0.17778 0.97042 0.71256 0.0
C181 C 0.13776 0.97719 0.63272 0.0
C182 C 0.1683 0.97958 0.61649 0.0
C183 C 0.18852 0.97607 0.65688 0.0
C184 C 0.12814 0.97176 0.68851 0.0
N185 N 0.14747 0.96745 0.72775 0.0
H186 H 0.19488 0.97058 0.74367 0.0
H187 H 0.10608 0.97323 0.7003 0.0
H188 H 0.19264 0.03911 0.76464 0.0
H189 H 0.09141 0.00317 0.81113 0.0
O190 O 0.18084 0.98693 0.84059 0.0
O191 O 0.13243 0.97013 0.88552 0.0
O192 O 0.08611 0.94632 0.78994 0.0
C193 C 0.16509 0.98346 0.88763 0.0
H194 H 0.09364 0.84358 0.86263 0.0
H195 H 0.17763 0.08774 0.745 0.0
H196 H 0.12215 0.98098 0.60278 0.0
H197 H 0.21288 0.97896 0.64581 0.0
Co198 Co 0.83899 0.37084 0.54768 0.0
C199 C 0.91043 0.42297 0.53601 0.0
C200 C 0.87812 0.44418 0.5228 0.0
C201 C 0.91135 0.46956 0.51667 0.0
N202 N 0.87771 0.41508 0.53511 0.0
N203 N 0.93139 0.45595 0.52452 0.0
H204 H 0.9188 0.40493 0.54427 0.0
H205 H 0.85595 0.44683 0.51782 0.0
C206 C 0.78566 0.38646 0.59501 0.0
O207 O 0.77355 0.36124 0.63069 0.0
N208 N 0.8005 0.32562 0.56058 0.0
C209 C 0.80245 0.29886 0.58043 0.0
C210 C 0.77043 0.27147 0.58554 0.0
C211 C 0.76705 0.31338 0.55142 0.0
N212 N 0.74833 0.28081 0.56787 0.0
C213 C 0.87026 0.35496 0.63787 0.0
C214 C 0.85181 0.38434 0.72118 0.0
C215 C 0.8633 0.36204 0.73568 0.0
C216 C 0.87457 0.34887 0.6935 0.0
C217 C 0.84827 0.38996 0.66501 0.0
N218 N 0.85421 0.37257 0.62437 0.0
H219 H 0.878 0.3437 0.6057 0.0
H220 H 0.83994 0.40764 0.65488 0.0
H221 H 0.82545 0.29861 0.58975 0.0
H222 H 0.75633 0.32779 0.53402 0.0
O223 O 0.86228 0.35026 0.50995 0.0
O224 O 0.82894 0.36647 0.46945 0.0
O225 O 0.81163 0.39348 0.56548 0.0
C226 C 0.84827 0.35327 0.46457 0.0
H227 H 0.92017 0.49577 0.50613 0.0
H228 H 0.76376 0.24662 0.60122 0.0
H229 H 0.84438 0.39624 0.75296 0.0
H230 H 0.88479 0.33252 0.70343 0.0
Co231 Co 0.63279 0.46871 0.53456 0.0
C232 C 0.57822 0.48624 0.52771 0.0
C233 C 0.55864 0.43368 0.51055 0.0
C234 C 0.53269 0.44071 0.5047 0.0
N235 N 0.5871 0.46197 0.52698 0.0
N236 N 0.54526 0.47384 0.51496 0.0
H237 H 0.59558 0.51279 0.53476 0.0
H238 H 0.55665 0.40965 0.50134 0.0
C239 C 0.58967 0.398 0.58218 0.0
O240 O 0.57091 0.40701 0.61102 0.0
N241 N 0.67816 0.4758 0.54147 0.0
C242 C 0.70575 0.50452 0.55863 0.0
C243 C 0.73153 0.49767 0.56908 0.0
C244 C 0.68746 0.45195 0.54135 0.0
N245 N 0.71971 0.46462 0.5585 0.0
C246 C 0.638 0.51244 0.62617 0.0
C247 C 0.64685 0.47475 0.70789 0.0
C248 C 0.64833 0.50508 0.72266 0.0
C249 C 0.64388 0.52417 0.68129 0.0
C250 C 0.6411 0.46408 0.65261 0.0
N251 N 0.63573 0.48224 0.6125 0.0
H252 H 0.63706 0.52855 0.59427 0.0
H253 H 0.64283 0.44202 0.64203 0.0
H254 H 0.70645 0.52827 0.56613 0.0
H255 H 0.67072 0.42552 0.53156 0.0
O256 O 0.6507 0.51222 0.49668 0.0
O257 O 0.63389 0.46272 0.45572 0.0
O258 O 0.61485 0.4198 0.55416 0.0
C259 C 0.64637 0.49513 0.4508 0.0
H260 H 0.50695 0.42323 0.49186 0.0
H261 H 0.75645 0.51508 0.58536 0.0
H262 H 0.6513 0.45998 0.73864 0.0
H263 H 0.64595 0.54832 0.69124 0.0
Co264 Co 0.53522 0.1637 0.5355 0.0
C265 C 0.51479 0.09164 0.5383 0.0
C266 C 0.56036 0.12026 0.49097 0.0
C267 C 0.54998 0.0865 0.48494 0.0
N268 N 0.53887 0.12357 0.52577 0.0
N269 N 0.52125 0.0687 0.51436 0.0
H270 H 0.49177 0.08522 0.56086 0.0
H271 H 0.58119 0.14085 0.46912 0.0
C272 C 0.60662 0.18466 0.5766 0.0
O273 O 0.60109 0.15358 0.57963 0.0
N274 N 0.53051 0.20373 0.54371 0.0
C275 C 0.50349 0.20659 0.52806 0.0
C276 C 0.51 0.23885 0.53876 0.0
C277 C 0.55314 0.23461 0.56398 0.0
N278 N 0.54102 0.25623 0.56141 0.0
C279 C 0.484 0.14631 0.61858 0.0
C280 C 0.52015 0.13996 0.70559 0.0
C281 C 0.49126 0.14233 0.71741 0.0
C282 C 0.47227 0.14411 0.67305 0.0
C283 C 0.53148 0.14329 0.65069 0.0
N284 N 0.5145 0.14841 0.60843 0.0
H285 H 0.46951 0.14833 0.58479 0.0
H286 H 0.55455 0.14304 0.64282 0.0
H287 H 0.48065 0.18692 0.50891 0.0
H288 H 0.57837 0.24183 0.57822 0.0
O289 O 0.49537 0.14317 0.48684 0.0
O290 O 0.54857 0.17543 0.46015 0.0
O291 O 0.58266 0.19093 0.56728 0.0
C292 C 0.51686 0.15848 0.44637 0.0
H293 H 0.56116 0.07568 0.45797 0.0
H294 H 0.49383 0.24925 0.52872 0.0
H295 H 0.53506 0.13789 0.7389 0.0
H296 H 0.44948 0.14539 0.68062 0.0
Co297 Co 0.69808 0.50186 0.14134 0.0
C298 C 0.75272 0.57415 0.1462 0.0
C299 C 0.76916 0.54066 0.17724 0.0
C300 C 0.79553 0.57341 0.18251 0.0
N301 N 0.74271 0.541 0.15257 0.0
N302 N 0.78489 0.59433 0.16348 0.0
H303 H 0.73674 0.58376 0.13171 0.0
H304 H 0.76883 0.51818 0.19251 0.0
C305 C 0.74551 0.48004 0.09311 0.0
O306 O 0.75997 0.50756 0.06237 0.0
N307 N 0.65355 0.46319 0.13058 0.0
C308 C 0.62599 0.46458 0.11364 0.0
C309 C 0.60062 0.43236 0.10065 0.0
C310 C 0.64471 0.43025 0.12767 0.0
N311 N 0.61267 0.41111 0.10918 0.0
C312 C 0.6917 0.54037 0.05051 0.0
C313 C 0.68632 0.4958 0.96771 0.0
C314 C 0.6827 0.52351 0.95355 0.0
C315 C 0.68536 0.54606 0.99548 0.0
C316 C 0.69234 0.491 0.02284 0.0
N317 N 0.69629 0.51368 0.06351 0.0
H318 H 0.69073 0.5562 0.0829 0.0
H319 H 0.6917 0.46778 0.03304 0.0
H320 H 0.62498 0.48764 0.10853 0.0
H321 H 0.66152 0.42051 0.13697 0.0
O322 O 0.67789 0.5257 0.17856 0.0
O323 O 0.6951 0.49346 0.22013 0.0
O324 O 0.71963 0.47333 0.12286 0.0
C325 C 0.68164 0.51261 0.22452 0.0
H326 H 0.82004 0.58138 0.20107 0.0
H327 H 0.57564 0.42512 0.08487 0.0
H328 H 0.68301 0.47713 0.93666 0.0
H329 H 0.68131 0.56704 0.98612 0.0
Co330 Co 0.4953 0.19973 0.13025 0.0
C331 C 0.42328 0.17819 0.14832 0.0
C332 C 0.45628 0.22882 0.17786 0.0
C333 C 0.42333 0.22035 0.18921 0.0
N334 N 0.4561 0.20246 0.15202 0.0
N335 N 0.40288 0.18863 0.17064 0.0
H336 H 0.41452 0.15349 0.13 0.0
H337 H 0.47883 0.25238 0.18831 0.0
C338 C 0.54157 0.26704 0.07397 0.0
O339 O 0.55246 0.25333 0.0372 0.0
N340 N 0.53512 0.19629 0.10935 0.0
C341 C 0.53493 0.16831 0.08978 0.0
C342 C 0.56759 0.17487 0.08306 0.0
C343 C 0.5684 0.21895 0.117 0.0
N344 N 0.58843 0.20669 0.09993 0.0
C345 C 0.46331 0.14943 0.04427 0.0
C346 C 0.46946 0.19451 0.96207 0.0
C347 C 0.46494 0.16287 0.94665 0.0
C348 C 0.45953 0.13928 0.98853 0.0
C349 C 0.47418 0.20382 0.01812 0.0
N350 N 0.47488 0.18254 0.05749 0.0
H351 H 0.4598 0.13142 0.07647 0.0
H352 H 0.47904 0.2288 0.02899 0.0
H353 H 0.51295 0.14383 0.08364 0.0
H354 H 0.57805 0.24369 0.13524 0.0
O355 O 0.47919 0.15799 0.17386 0.0
O356 O 0.5113 0.21026 0.20432 0.0
O357 O 0.51713 0.24859 0.10651 0.0
C358 C 0.49602 0.1782 0.21507 0.0
H359 H 0.41492 0.23611 0.20943 0.0
H360 H 0.57551 0.15729 0.06904 0.0
H361 H 0.47221 0.21286 0.93078 0.0
H362 H 0.45458 0.11407 0.97821 0.0
Co363 Co 0.80192 0.30427 0.15457 0.0
C364 C 0.81764 0.24831 0.15392 0.0
C365 C 0.76749 0.2313 0.1843 0.0
C366 C 0.77442 0.20523 0.18994 0.0
N367 N 0.79437 0.25827 0.16072 0.0
N368 N 0.80592 0.21616 0.17078 0.0
H369 H 0.84342 0.26457 0.14081 0.0
H370 H 0.74507 0.23098 0.19944 0.0
C371 C 0.73215 0.26107 0.10684 0.0
O372 O 0.74267 0.24299 0.07971 0.0
N373 N 0.8106 0.35021 0.14882 0.0
C374 C 0.83986 0.37628 0.1298 0.0
C375 C 0.83502 0.40313 0.11869 0.0
C376 C 0.78842 0.36174 0.15024 0.0
N377 N 0.80275 0.39398 0.13145 0.0
C378 C 0.84626 0.31132 0.06224 0.0
C379 C 0.80794 0.32043 0.98204 0.0
C380 C 0.83852 0.32272 0.96646 0.0
C381 C 0.8579 0.31803 0.00705 0.0
C382 C 0.7973 0.31363 0.03718 0.0
N383 N 0.81561 0.3079 0.0765 0.0
H384 H 0.86287 0.31094 0.09379 0.0
H385 H 0.77521 0.31511 0.04845 0.0
H386 H 0.86256 0.37511 0.12119 0.0
H387 H 0.762 0.34645 0.16163 0.0
O388 O 0.84509 0.32071 0.19295 0.0
O389 O 0.79563 0.30481 0.23336 0.0
O390 O 0.75291 0.28697 0.13479 0.0
C391 C 0.82789 0.31642 0.23872 0.0
H392 H 0.75828 0.18076 0.20882 0.0
H393 H 0.85342 0.42722 0.10088 0.0
H394 H 0.79289 0.325 0.95203 0.0
H395 H 0.88226 0.32072 0.99654 0.0
Co396 Co 0.50383 0.70202 0.88623 0.0
C397 C 0.57557 0.75275 0.87334 0.0
C398 C 0.54382 0.77399 0.85445 0.0
C399 C 0.5771 0.79825 0.84447 0.0
N400 N 0.54304 0.74554 0.87223 0.0
N401 N 0.59672 0.78465 0.85634 0.0
H402 H 0.58353 0.73472 0.88421 0.0
H403 H 0.52175 0.77653 0.84712 0.0
C404 C 0.4527 0.71801 0.94003 0.0
O405 O 0.44008 0.6915 0.97304 0.0
N406 N 0.46489 0.65737 0.90043 0.0
C407 C 0.4662 0.63056 0.92175 0.0
C408 C 0.43395 0.60355 0.9267 0.0
C409 C 0.43162 0.64552 0.89024 0.0
N410 N 0.41237 0.61318 0.90745 0.0
C411 C 0.53915 0.68522 0.96886 0.0
C412 C 0.5224 0.71164 0.05895 0.0
C413 C 0.53576 0.69033 0.06862 0.0
C414 C 0.54614 0.67869 0.02284 0.0
C415 C 0.51638 0.71792 0.00446 0.0
N416 N 0.5218 0.70218 0.96046 0.0
H417 H 0.54571 0.67468 0.93396 0.0
H418 H 0.50669 0.73489 0.99858 0.0
H419 H 0.48889 0.62996 0.93208 0.0
H420 H 0.4214 0.66012 0.8718 0.0
O421 O 0.52386 0.68064 0.8412 0.0
O422 O 0.49042 0.69929 0.80971 0.0
O423 O 0.47908 0.72616 0.91089 0.0
C424 C 0.50851 0.68533 0.79905 0.0
H425 H 0.58619 0.82356 0.8285 0.0
H426 H 0.42676 0.57873 0.94313 0.0
H427 H 0.51553 0.72239 0.09337 0.0
H428 H 0.55765 0.66308 0.02884 0.0
Co429 Co 0.2982 0.79845 0.87373 0.0
C430 C 0.2439 0.81629 0.86809 0.0
C431 C 0.22933 0.76917 0.82734 0.0
C432 C 0.20445 0.77736 0.81817 0.0
N433 N 0.25384 0.79322 0.85965 0.0
N434 N 0.21387 0.80699 0.84368 0.0
H435 H 0.2588 0.84028 0.88871 0.0
H436 H 0.23003 0.74783 0.80945 0.0
C437 C 0.24871 0.72785 0.9167 0.0
O438 O 0.22567 0.73588 0.93034 0.0
N439 N 0.34258 0.80436 0.88697 0.0
C440 C 0.37059 0.83363 0.90095 0.0
C441 C 0.39608 0.82686 0.9141 0.0
C442 C 0.3513 0.7802 0.89143 0.0
N443 N 0.38366 0.79333 0.90832 0.0
C444 C 0.30983 0.85024 0.95452 0.0
C445 C 0.30549 0.81204 0.04684 0.0
C446 C 0.31465 0.84593 0.0543 0.0
C447 C 0.31625 0.86512 0.00758 0.0
C448 C 0.29881 0.7981 0.99369 0.0
N449 N 0.30058 0.81689 0.94805 0.0
H450 H 0.31355 0.86588 0.91844 0.0
H451 H 0.29421 0.77266 0.9899 0.0
H452 H 0.37209 0.85806 0.90289 0.0
H453 H 0.33439 0.75356 0.88341 0.0
O454 O 0.31883 0.83928 0.82646 0.0
O455 O 0.29963 0.78672 0.79852 0.0
O456 O 0.27813 0.75043 0.90102 0.0
C457 C 0.31402 0.8184 0.78553 0.0
H458 H 0.182 0.76355 0.79273 0.0
H459 H 0.42157 0.84491 0.92728 0.0
H460 H 0.30453 0.79662 0.08195 0.0
H461 H 0.32364 0.89159 0.01189 0.0
Co462 Co 0.20021 0.49583 0.86401 0.0
C463 C 0.1807 0.4239 0.86883 0.0
C464 C 0.22749 0.45312 0.82483 0.0
C465 C 0.21776 0.41949 0.81928 0.0
N466 N 0.2048 0.45601 0.85725 0.0
N467 N 0.1883 0.40132 0.84663 0.0
H468 H 0.15699 0.4171 0.88939 0.0
H469 H 0.24877 0.4739 0.80416 0.0
C470 C 0.27055 0.51786 0.91114 0.0
O471 O 0.26527 0.48694 0.91575 0.0
N472 N 0.19467 0.53555 0.86888 0.0
C473 C 0.16975 0.53926 0.84512 0.0
C474 C 0.17468 0.57078 0.85744 0.0
C475 C 0.21429 0.56511 0.89591 0.0
N476 N 0.2025 0.58684 0.88934 0.0
C477 C 0.14819 0.48091 0.94484 0.0
C478 C 0.18125 0.47103 0.03312 0.0
C479 C 0.15342 0.47537 0.04392 0.0
C480 C 0.13593 0.479 0.99892 0.0
C481 C 0.19315 0.47405 0.97869 0.0
N482 N 0.17778 0.48085 0.93582 0.0
H483 H 0.13504 0.48457 0.91053 0.0
H484 H 0.21546 0.47224 0.97164 0.0
H485 H 0.14933 0.52063 0.81987 0.0
H486 H 0.23732 0.57135 0.91818 0.0
O487 O 0.16179 0.47454 0.81247 0.0
O488 O 0.21551 0.5071 0.78951 0.0
O489 O 0.24667 0.52377 0.89886 0.0
C490 C 0.18435 0.48962 0.77322 0.0
H491 H 0.23001 0.40899 0.79409 0.0
H492 H 0.15979 0.58169 0.84239 0.0
H493 H 0.19502 0.46762 0.06695 0.0
H494 H 0.11404 0.48197 0.00573 0.0
Co495 Co 0.36361 0.83297 0.46235 0.0
C496 C 0.41291 0.90454 0.48245 0.0
C497 C 0.4348 0.87291 0.49686 0.0
C498 C 0.45915 0.90601 0.50706 0.0
N499 N 0.40606 0.87221 0.4809 0.0
N500 N 0.44519 0.9256 0.49793 0.0
H501 H 0.39481 0.91257 0.47236 0.0
H502 H 0.43784 0.85095 0.50125 0.0
C503 C 0.38359 0.78497 0.40634 0.0
O504 O 0.35811 0.77225 0.37114 0.0
N505 N 0.32002 0.79358 0.44409 0.0
C506 C 0.29299 0.79428 0.42222 0.0
C507 C 0.26743 0.76171 0.41235 0.0
C508 C 0.30961 0.76031 0.44996 0.0
N509 N 0.27827 0.74059 0.42903 0.0
C510 C 0.34709 0.8701 0.38317 0.0
C511 C 0.37415 0.85557 0.2914 0.0
C512 C 0.35254 0.86874 0.28314 0.0
C513 C 0.34072 0.87817 0.32985 0.0
C514 C 0.38044 0.84867 0.34524 0.0
N515 N 0.36441 0.85298 0.38992 0.0
H516 H 0.33605 0.87549 0.41874 0.0
H517 H 0.39751 0.839 0.34998 0.0
H518 H 0.29151 0.81674 0.41395 0.0
H519 H 0.32476 0.75041 0.46731 0.0
O520 O 0.33944 0.84957 0.50919 0.0
O521 O 0.36038 0.81763 0.53672 0.0
O522 O 0.38999 0.81062 0.43627 0.0
C523 C 0.34437 0.83342 0.5498 0.0
H524 H 0.485 0.91508 0.52032 0.0
H525 H 0.24305 0.75406 0.39354 0.0
H526 H 0.38505 0.84942 0.25631 0.0
H527 H 0.32488 0.88953 0.325 0.0
Co528 Co 0.16489 0.52876 0.45781 0.0
C529 C 0.0939 0.50937 0.48135 0.0
C530 C 0.12898 0.5589 0.51295 0.0
C531 C 0.09664 0.55164 0.52634 0.0
N532 N 0.12712 0.53249 0.48458 0.0
N533 N 0.07489 0.52062 0.5064 0.0
H534 H 0.08386 0.48493 0.46137 0.0
H535 H 0.15227 0.58172 0.52354 0.0
C536 C 0.21033 0.59595 0.40167 0.0
O537 O 0.21952 0.58177 0.36306 0.0
N538 N 0.20355 0.52477 0.43181 0.0
C539 C 0.20255 0.49787 0.40603 0.0
C540 C 0.2349 0.50378 0.3983 0.0
C541 C 0.23696 0.54605 0.44162 0.0
N542 N 0.25643 0.53397 0.42078 0.0
C543 C 0.12929 0.48002 0.37108 0.0
C544 C 0.13493 0.5268 0.29256 0.0
C545 C 0.1293 0.49513 0.27471 0.0
C546 C 0.12399 0.47068 0.31491 0.0
C547 C 0.14111 0.53523 0.34889 0.0
N548 N 0.14223 0.51309 0.38602 0.0
H549 H 0.12632 0.46143 0.40185 0.0
H550 H 0.14685 0.56023 0.3616 0.0
H551 H 0.18025 0.47433 0.3961 0.0
H552 H 0.24692 0.56948 0.46452 0.0
O553 O 0.14843 0.48612 0.4987 0.0
O554 O 0.18304 0.53759 0.53083 0.0
O555 O 0.18717 0.57787 0.43635 0.0
C556 C 0.16646 0.5053 0.54005 0.0
H557 H 0.08953 0.56771 0.54893 0.0
H558 H 0.2421 0.4866 0.37982 0.0
H559 H 0.13759 0.54582 0.26274 0.0
H560 H 0.11821 0.44545 0.30281 0.0
Co561 Co 0.46775 0.634 0.48101 0.0
C562 C 0.48619 0.57969 0.48523 0.0
C563 C 0.43656 0.56326 0.51789 0.0
C564 C 0.44394 0.53762 0.52545 0.0
N565 N 0.46284 0.58951 0.49197 0.0
N566 N 0.47509 0.54817 0.50484 0.0
H567 H 0.5114 0.59544 0.46928 0.0
H568 H 0.41428 0.56347 0.53293 0.0
C569 C 0.40075 0.5869 0.42527 0.0
O570 O 0.41448 0.57149 0.39876 0.0
N571 N 0.47296 0.67831 0.4702 0.0
C572 C 0.50148 0.70604 0.45272 0.0
C573 C 0.49384 0.7308 0.43884 0.0
C574 C 0.44836 0.68649 0.46694 0.0
N575 N 0.46049 0.71822 0.44747 0.0
C576 C 0.518 0.644 0.39692 0.0
C577 C 0.4813 0.64749 0.30807 0.0
C578 C 0.51365 0.65253 0.29824 0.0
C579 C 0.53226 0.65066 0.34326 0.0
C580 C 0.46812 0.64074 0.36173 0.0
N581 N 0.48563 0.63772 0.40544 0.0
H582 H 0.53367 0.64565 0.43179 0.0
H583 H 0.44457 0.63998 0.36814 0.0
H584 H 0.52582 0.70756 0.44791 0.0
H585 H 0.42196 0.66936 0.47651 0.0
O586 O 0.50942 0.65406 0.52511 0.0
O587 O 0.45765 0.63496 0.5585 0.0
O588 O 0.4189 0.61257 0.45586 0.0
C589 C 0.48984 0.64888 0.56813 0.0
H590 H 0.42826 0.51363 0.5461 0.0
H591 H 0.51106 0.75568 0.42226 0.0
H592 H 0.46664 0.64985 0.27459 0.0
H593 H 0.55786 0.65546 0.33729 0.0
C594 C 0.10292 0.08903 0.17395 0.0
C595 C 0.11273 0.08532 0.229 0.0
C596 C 0.07826 0.10811 0.26815 0.0
C597 C 0.07035 0.11351 0.21351 0.0
N598 N 0.0757 0.11187 0.1147 0.0
N599 N 0.10347 0.08366 0.3281 0.0
C600 C 0.08245 0.10425 0.16654 0.0
C601 C 0.09871 0.09286 0.2761 0.0
N602 N 0.11258 0.07769 0.12861 0.0
N603 N 0.0669 0.11868 0.31222 0.0
H604 H 0.11701 0.07111 0.33519 0.0
H605 H 0.09182 0.08573 0.36393 0.0
H606 H 0.05092 0.12879 0.30725 0.0
H607 H 0.07437 0.1191 0.35327 0.0
H608 H 0.10245 0.07538 0.08898 0.0
H609 H 0.12929 0.06846 0.1299 0.0
H610 H 0.08714 0.11026 0.07824 0.0
H611 H 0.05984 0.12198 0.10828 0.0
C612 C 0.89988 0.97974 0.18802 0.0
C613 C 0.89053 0.95932 0.23602 0.0
C614 C 0.91364 0.0099 0.29493 0.0
C615 C 0.92694 0.03064 0.24674 0.0
N616 N 0.93834 0.03361 0.14705 0.0
N617 N 0.89207 0.95392 0.33518 0.0
C618 C 0.9216 0.01516 0.19309 0.0
C619 C 0.89855 0.97413 0.28958 0.0
N620 N 0.88707 0.96526 0.13749 0.0
N621 N 0.91358 0.02402 0.34511 0.0
H622 H 0.88075 0.92763 0.33211 0.0
H623 H 0.90041 0.96336 0.37509 0.0
H624 H 0.92254 0.04983 0.35038 0.0
H625 H 0.9014 0.00974 0.38029 0.0
H626 H 0.89002 0.97925 0.10149 0.0
H627 H 0.87044 0.93937 0.13293 0.0
H628 H 0.93799 0.02251 0.10894 0.0
H629 H 0.95539 0.05945 0.14731 0.0
C630 C 0.99255 0.8836 0.27971 0.0
C631 C 0.97217 0.87473 0.23097 0.0
C632 C 0.0229 0.90878 0.17407 0.0
C633 C 0.04282 0.91895 0.22277 0.0
N634 N 0.04717 0.92135 0.32236 0.0
N635 N 0.96743 0.88502 0.13295 0.0
C636 C 0.02778 0.90779 0.27583 0.0
C637 C 0.98713 0.88931 0.17857 0.0
N638 N 0.97821 0.86909 0.32962 0.0
N639 N 0.03845 0.91643 0.12321 0.0
H640 H 0.94122 0.87038 0.13282 0.0
H641 H 0.97692 0.89848 0.09603 0.0
H642 H 0.06471 0.93048 0.11861 0.0
H643 H 0.0257 0.90634 0.08592 0.0
H644 H 0.99216 0.87147 0.36535 0.0
H645 H 0.95218 0.85328 0.33486 0.0
H646 H 0.03749 0.91689 0.36265 0.0
H647 H 0.07288 0.93942 0.32026 0.0
C648 C 0.10178 0.07453 0.71587 0.0
C649 C 0.10913 0.06812 0.77028 0.0
C650 C 0.0746 0.09035 0.80948 0.0
C651 C 0.07031 0.10047 0.75515 0.0
N652 N 0.08706 0.10881 0.65819 0.0
N653 N 0.10853 0.07586 0.86896 0.0
C654 C 0.08584 0.09433 0.70862 0.0
C655 C 0.09731 0.07783 0.8171 0.0
N656 N 0.10917 0.06084 0.67117 0.0
N657 N 0.05586 0.0909 0.85353 0.0
H658 H 0.12541 0.06699 0.87565 0.0
H659 H 0.10373 0.08601 0.90436 0.0
H660 H 0.03788 0.09853 0.85065 0.0
H661 H 0.0556 0.08036 0.89216 0.0
H662 H 0.10137 0.06185 0.63077 0.0
H663 H 0.12017 0.04562 0.67535 0.0
H664 H 0.10083 0.10762 0.62448 0.0
H665 H 0.07758 0.12515 0.65164 0.0
C666 C 0.91525 0.01652 0.79886 0.0
C667 C 0.92801 0.03856 0.75295 0.0
C668 C 0.90757 0.99022 0.68939 0.0
C669 C 0.89778 0.9681 0.73597 0.0
N670 N 0.89959 0.96156 0.83604 0.0
N671 N 0.94204 0.04779 0.65567 0.0
C672 C 0.9035 0.98158 0.79108 0.0
C673 C 0.92582 0.02581 0.69843 0.0
N674 N 0.91389 0.02906 0.84986 0.0
N675 N 0.89814 0.97739 0.63686 0.0
H676 H 0.9557 0.07397 0.66128 0.0
H677 H 0.94437 0.04001 0.61594 0.0
H678 H 0.88379 0.95152 0.62865 0.0
H679 H 0.90177 0.99244 0.602 0.0
H680 H 0.90144 0.01374 0.88399 0.0
H681 H 0.92255 0.05473 0.85659 0.0
H682 H 0.90681 0.97095 0.87628 0.0
H683 H 0.89261 0.93618 0.83276 0.0
C684 C 0.01028 0.90109 0.81403 0.0
C685 C 0.02875 0.90905 0.76298 0.0
C686 C 0.97645 0.89396 0.71159 0.0
C687 C 0.95782 0.8818 0.76158 0.0
N688 N 0.95546 0.86866 0.85866 0.0
N689 N 0.02934 0.9127 0.66247 0.0
C690 C 0.97435 0.88416 0.8124 0.0
C691 C 0.01177 0.90531 0.71147 0.0
N692 N 0.02669 0.90982 0.86415 0.0
N693 N 0.96031 0.89556 0.66469 0.0
H694 H 0.05561 0.92388 0.66048 0.0
H695 H 0.01778 0.90646 0.62353 0.0
H696 H 0.93449 0.88756 0.66402 0.0
H697 H 0.97276 0.90728 0.62795 0.0
H698 H 0.0144 0.90783 0.90171 0.0
H699 H 0.05284 0.92211 0.86858 0.0
H700 H 0.96577 0.86607 0.8958 0.0
H701 H 0.92904 0.8555 0.8582 0.0
C702 C 0.74814 0.43483 0.52226 0.0
C703 C 0.73677 0.44571 0.56815 0.0
C704 C 0.76008 0.42065 0.6323 0.0
C705 C 0.76843 0.4066 0.58621 0.0
N706 N 0.76407 0.3952 0.48686 0.0
N707 N 0.72629 0.44457 0.66634 0.0
C708 C 0.76085 0.41237 0.53095 0.0
C709 C 0.74111 0.43733 0.62311 0.0
N710 N 0.74735 0.44661 0.47029 0.0
N711 N 0.77167 0.41966 0.68437 0.0
H712 H 0.7122 0.4567 0.66066 0.0
H713 H 0.72548 0.43599 0.70682 0.0
H714 H 0.78679 0.40895 0.69266 0.0
H715 H 0.76915 0.43242 0.71837 0.0
H716 H 0.75875 0.44272 0.43565 0.0
H717 H 0.73789 0.46294 0.46289 0.0
H718 H 0.75534 0.39571 0.44699 0.0
H719 H 0.77238 0.37778 0.49055 0.0
C720 C 0.58115 0.34741 0.52586 0.0
C721 C 0.58061 0.36182 0.57848 0.0
C722 C 0.55733 0.30575 0.62185 0.0
C723 C 0.55909 0.29218 0.56995 0.0
N724 N 0.58128 0.30091 0.47727 0.0
N725 N 0.57728 0.35606 0.67874 0.0
C726 C 0.57409 0.31346 0.52367 0.0
C727 C 0.57135 0.34138 0.62729 0.0
N728 N 0.58594 0.36492 0.47725 0.0
N729 N 0.54159 0.28437 0.66544 0.0
H730 H 0.58925 0.3822 0.6845 0.0
H731 H 0.57365 0.34266 0.71564 0.0
H732 H 0.53232 0.25833 0.66263 0.0
H733 H 0.53607 0.29214 0.70286 0.0
H734 H 0.58236 0.35378 0.43811 0.0
H735 H 0.59016 0.38945 0.4747 0.0
H736 H 0.59546 0.31599 0.44398 0.0
H737 H 0.5762 0.27598 0.47486 0.0
C738 C 0.66073 0.22554 0.62502 0.0
C739 C 0.6421 0.21291 0.57499 0.0
C740 C 0.69361 0.24711 0.52 0.0
C741 C 0.71202 0.26023 0.56983 0.0
N742 N 0.71297 0.26799 0.66878 0.0
N743 N 0.63884 0.21703 0.47507 0.0
C744 C 0.69544 0.25124 0.62216 0.0
C745 C 0.65792 0.22554 0.52251 0.0
N746 N 0.64538 0.21252 0.67501 0.0
N747 N 0.7106 0.25384 0.47054 0.0
H748 H 0.61274 0.2009 0.47497 0.0
H749 H 0.64837 0.2282 0.43652 0.0
H750 H 0.7368 0.26945 0.46756 0.0
H751 H 0.69926 0.24199 0.43321 0.0
H752 H 0.65835 0.21792 0.71269 0.0
H753 H 0.61963 0.19478 0.67848 0.0
H754 H 0.70193 0.26494 0.70785 0.0
H755 H 0.73826 0.28725 0.6673 0.0
C756 C 0.75831 0.40313 0.08786 0.0
C757 C 0.78716 0.41451 0.12263 0.0
C758 C 0.79276 0.47074 0.12602 0.0
C759 C 0.76107 0.45812 0.09845 0.0
N760 N 0.71122 0.41016 0.05947 0.0
N761 N 0.8266 0.45658 0.18591 0.0
C762 C 0.74293 0.42356 0.0817 0.0
C763 C 0.80282 0.4476 0.14496 0.0
N764 N 0.74682 0.37394 0.05798 0.0
N765 N 0.81375 0.5047 0.13342 0.0
H766 H 0.83325 0.43957 0.20267 0.0
H767 H 0.83666 0.47945 0.20743 0.0
H768 H 0.80851 0.52291 0.11801 0.0
H769 H 0.83825 0.51493 0.14917 0.0
H770 H 0.72784 0.3661 0.02799 0.0
H771 H 0.75871 0.35946 0.0586 0.0
H772 H 0.69548 0.38429 0.05276 0.0
H773 H 0.69979 0.42453 0.05111 0.0
C774 C 0.58299 0.35324 0.14602 0.0
C775 C 0.59491 0.37521 0.09992 0.0
C776 C 0.56863 0.32676 0.03632 0.0
C777 C 0.55986 0.30442 0.08257 0.0
N778 N 0.56576 0.2977 0.18184 0.0
N779 N 0.60426 0.38395 0.00149 0.0
C780 C 0.56884 0.31796 0.13763 0.0
C781 C 0.58926 0.36226 0.04505 0.0
N782 N 0.58456 0.36618 0.19796 0.0
N783 N 0.55589 0.31435 0.98467 0.0
H784 H 0.61949 0.41004 0.00702 0.0
H785 H 0.60398 0.37585 0.96084 0.0
H786 H 0.53936 0.28872 0.97699 0.0
H787 H 0.55893 0.32977 0.95061 0.0
H788 H 0.57272 0.35114 0.23265 0.0
H789 H 0.59506 0.39207 0.20532 0.0
H790 H 0.57558 0.30714 0.22116 0.0
H791 H 0.55665 0.27188 0.17874 0.0
C792 C 0.67643 0.24061 0.15601 0.0
C793 C 0.69568 0.25096 0.10584 0.0
C794 C 0.644 0.23752 0.05372 0.0
C795 C 0.62472 0.22303 0.10242 0.0
N796 N 0.62123 0.20451 0.19686 0.0
N797 N 0.69786 0.25885 0.00611 0.0
C798 C 0.64058 0.22301 0.15283 0.0
C799 C 0.67946 0.24931 0.05433 0.0
N800 N 0.69205 0.24763 0.20678 0.0
N801 N 0.62823 0.24027 0.00726 0.0
H802 H 0.72413 0.26975 0.00523 0.0
H803 H 0.68702 0.25465 0.96667 0.0
H804 H 0.6022 0.23133 0.00603 0.0
H805 H 0.641 0.25343 0.97161 0.0
H806 H 0.67898 0.24348 0.2442 0.0
H807 H 0.71817 0.26084 0.21206 0.0
H808 H 0.6313 0.20053 0.23314 0.0
H809 H 0.59489 0.19014 0.19463 0.0
C810 C 0.40603 0.76636 0.97137 0.0
C811 C 0.40154 0.77521 0.91688 0.0
C812 C 0.42766 0.74435 0.87766 0.0
C813 C 0.43501 0.73775 0.93255 0.0
N814 N 0.43681 0.74827 0.03145 0.0
N815 N 0.41331 0.77874 0.81912 0.0
C816 C 0.42563 0.75024 0.97952 0.0
C817 C 0.41401 0.76605 0.87035 0.0
N818 N 0.39096 0.77287 0.01506 0.0
N819 N 0.43193 0.7286 0.8325 0.0
H820 H 0.4032 0.79458 0.81269 0.0
H821 H 0.42546 0.77617 0.78428 0.0
H822 H 0.44105 0.71182 0.83499 0.0
H823 H 0.42329 0.72958 0.79277 0.0
H824 H 0.39022 0.76397 0.05527 0.0
H825 H 0.37686 0.78505 0.00999 0.0
H826 H 0.43346 0.75981 0.0664 0.0
H827 H 0.4523 0.73786 0.03888 0.0
C828 C 0.22363 0.6692 0.95828 0.0
C829 C 0.23981 0.69168 0.91298 0.0
C830 C 0.24009 0.64543 0.86078 0.0
C831 C 0.21936 0.62235 0.90191 0.0
N832 N 0.18978 0.61067 0.9888 0.0
N833 N 0.25861 0.69917 0.81658 0.0
C834 C 0.21083 0.63383 0.95065 0.0
C835 C 0.24727 0.67942 0.86325 0.0
N836 N 0.22155 0.68173 0.00889 0.0
N837 N 0.25233 0.63448 0.81851 0.0
H838 H 0.26268 0.72363 0.81437 0.0
H839 H 0.26062 0.69011 0.77779 0.0
H840 H 0.24648 0.60934 0.81467 0.0
H841 H 0.27072 0.65079 0.7905 0.0
H842 H 0.21269 0.66696 0.04469 0.0
H843 H 0.23166 0.70755 0.01635 0.0
H844 H 0.17942 0.61675 0.02247 0.0
H845 H 0.18131 0.58483 0.98475 0.0
C846 C 0.32379 0.55899 0.96128 0.0
C847 C 0.30596 0.54624 0.91061 0.0
C848 C 0.35842 0.57975 0.85754 0.0
C849 C 0.37604 0.59295 0.90797 0.0
N850 N 0.37551 0.60124 0.00656 0.0
N851 N 0.30442 0.54999 0.81033 0.0
C852 C 0.35863 0.5844 0.95957 0.0
C853 C 0.32267 0.55853 0.85864 0.0
N854 N 0.30754 0.54634 0.0108 0.0
N855 N 0.37618 0.58599 0.80896 0.0
H856 H 0.27832 0.53406 0.80918 0.0
H857 H 0.31465 0.56098 0.77196 0.0
H858 H 0.40246 0.60128 0.80699 0.0
H859 H 0.36536 0.57398 0.77147 0.0
H860 H 0.31987 0.5518 0.04909 0.0
H861 H 0.28167 0.52887 0.01334 0.0
H862 H 0.36388 0.59852 0.045 0.0
H863 H 0.40092 0.62023 0.00589 0.0
C864 C 0.43301 0.73855 0.38133 0.0
C865 C 0.44145 0.73496 0.43663 0.0
C866 C 0.40922 0.76055 0.47198 0.0
C867 C 0.40358 0.76765 0.41626 0.0
N868 N 0.41591 0.76878 0.31815 0.0
N869 N 0.44346 0.7478 0.53376 0.0
C870 C 0.41696 0.758 0.37083 0.0
C871 C 0.43134 0.74763 0.48165 0.0
N872 N 0.43976 0.72273 0.33912 0.0
N873 N 0.39204 0.76414 0.51566 0.0
H874 H 0.45951 0.73811 0.54205 0.0
H875 H 0.44016 0.76025 0.56748 0.0
H876 H 0.37433 0.77197 0.51127 0.0
H877 H 0.39259 0.75582 0.55584 0.0
H878 H 0.43118 0.72144 0.2985 0.0
H879 H 0.45153 0.70839 0.34594 0.0
H880 H 0.42809 0.76515 0.28437 0.0
H881 H 0.40575 0.7843 0.30905 0.0
C882 C 0.25068 0.68331 0.46903 0.0
C883 C 0.26107 0.70447 0.42181 0.0
C884 C 0.23495 0.65472 0.36095 0.0
C885 C 0.22811 0.63342 0.40811 0.0
N886 N 0.23726 0.62911 0.50687 0.0
N887 N 0.26955 0.71101 0.32271 0.0
C888 C 0.23806 0.64813 0.46223 0.0
C889 C 0.25509 0.69038 0.36763 0.0
N890 N 0.25206 0.69681 0.52037 0.0
N891 N 0.22089 0.64122 0.31043 0.0
H892 H 0.28512 0.73717 0.32646 0.0
H893 H 0.2688 0.70185 0.28268 0.0
H894 H 0.20442 0.61542 0.30426 0.0
H895 H 0.22263 0.65599 0.2761 0.0
H896 H 0.24159 0.68211 0.55591 0.0
H897 H 0.26059 0.72251 0.52624 0.0
H898 H 0.24752 0.63958 0.54553 0.0
H899 H 0.22987 0.60359 0.50434 0.0
C900 C 0.35004 0.59332 0.40107 0.0
C901 C 0.36343 0.57334 0.42314 0.0
C902 C 0.30618 0.5309 0.45325 0.0
C903 C 0.29265 0.54857 0.42455 0.0
N904 N 0.30097 0.59299 0.3615 0.0
N905 N 0.35258 0.51987 0.46284 0.0
C906 C 0.31439 0.57891 0.39601 0.0
C907 C 0.34099 0.54107 0.44682 0.0
N908 N 0.37104 0.62603 0.38501 0.0
N909 N 0.28585 0.50505 0.48832 0.0
H910 H 0.37774 0.52595 0.45938 0.0
H911 H 0.33656 0.49486 0.4749 0.0
H912 H 0.26052 0.4979 0.4952 0.0
H913 H 0.29492 0.49327 0.51486 0.0
H914 H 0.36235 0.64263 0.37488 0.0
H915 H 0.39723 0.63757 0.38618 0.0
H916 H 0.31556 0.61325 0.33503 0.0
H917 H 0.275 0.5821 0.35507 0.0
C918 C 0.34978 0.15606 0.22329 0.0
C919 C 0.36652 0.17038 0.1725 0.0
C920 C 0.31204 0.14903 0.12532 0.0
C921 C 0.29514 0.13703 0.17714 0.0
N922 N 0.29783 0.13391 0.27685 0.0
N923 N 0.36488 0.18534 0.07722 0.0
C924 C 0.31403 0.14176 0.2266 0.0
C925 C 0.34798 0.16818 0.12402 0.0
N926 N 0.36818 0.15564 0.26787 0.0
N927 N 0.29381 0.14101 0.07712 0.0
H928 H 0.39126 0.19934 0.07508 0.0
H929 H 0.35289 0.18793 0.04217 0.0
H930 H 0.26753 0.12729 0.07642 0.0
H931 H 0.30469 0.14562 0.03766 0.0
H932 H 0.35732 0.14273 0.30473 0.0
H933 H 0.39443 0.16606 0.26617 0.0
H934 H 0.31041 0.13953 0.31493 0.0
H935 H 0.27181 0.12446 0.2806 0.0
C936 C 0.82579 0.18085 0.12487 0.0
C937 C 0.82449 0.19823 0.17271 0.0
C938 C 0.85586 0.17697 0.22615 0.0
C939 C 0.85903 0.1613 0.17743 0.0
N940 N 0.85213 0.15252 0.07848 0.0
N941 N 0.84296 0.21821 0.2657 0.0
C942 C 0.84533 0.16435 0.12614 0.0
C943 C 0.84093 0.19785 0.22252 0.0
N944 N 0.80775 0.17972 0.07868 0.0
N945 N 0.86599 0.17075 0.27617 0.0
H946 H 0.83257 0.23398 0.26338 0.0
H947 H 0.85732 0.22172 0.30141 0.0
H948 H 0.87649 0.15507 0.28008 0.0
H949 H 0.86146 0.17875 0.31418 0.0
H950 H 0.80468 0.16468 0.0441 0.0
H951 H 0.79386 0.19226 0.0766 0.0
H952 H 0.84569 0.15668 0.03884 0.0
H953 H 0.86677 0.14079 0.07825 0.0
C954 C 0.81547 0.64891 0.21441 0.0
C955 C 0.80336 0.63085 0.16361 0.0
C956 C 0.82298 0.68435 0.11379 0.0
C957 C 0.83818 0.7023 0.16339 0.0
N958 N 0.85405 0.70231 0.25878 0.0
N959 N 0.80145 0.63152 0.06345 0.0
C960 C 0.83587 0.68473 0.21319 0.0
C961 C 0.80872 0.64864 0.11278 0.0
N962 N 0.80627 0.632 0.26394 0.0
N963 N 0.82119 0.70139 0.06833 0.0
H964 H 0.79233 0.60552 0.06125 0.0
H965 H 0.80765 0.64352 0.02482 0.0
H966 H 0.83059 0.72748 0.06853 0.0
H967 H 0.80756 0.68932 0.03256 0.0
H968 H 0.81139 0.64413 0.30241 0.0
H969 H 0.79077 0.60589 0.26653 0.0
H970 H 0.85617 0.69068 0.29471 0.0
H971 H 0.86952 0.72859 0.25878 0.0
C972 C 0.14119 0.30968 0.88881 0.0
C973 C 0.13075 0.29414 0.83581 0.0
C974 C 0.15262 0.34972 0.79238 0.0
C975 C 0.16687 0.36522 0.84405 0.0
N976 N 0.17821 0.3608 0.94042 0.0
N977 N 0.13084 0.29905 0.73601 0.0
C978 C 0.16196 0.34542 0.89217 0.0
C979 C 0.13745 0.31408 0.7872 0.0
N980 N 0.13035 0.29031 0.93585 0.0
N981 N 0.153 0.36915 0.74878 0.0
H982 H 0.12085 0.27307 0.73078 0.0
H983 H 0.13815 0.31262 0.69883 0.0
H984 H 0.16334 0.39531 0.75204 0.0
H985 H 0.14025 0.35906 0.71148 0.0
H986 H 0.13433 0.3004 0.97585 0.0
H987 H 0.11466 0.2641 0.93469 0.0
H988 H 0.17856 0.34756 0.97552 0.0
H989 H 0.19355 0.38701 0.94389 0.0
C990 C 0.64592 0.79676 0.79771 0.0
C991 C 0.63275 0.80048 0.84889 0.0
C992 C 0.69028 0.83669 0.88386 0.0
C993 C 0.70309 0.83644 0.8302 0.0
N994 N 0.69321 0.82068 0.73351 0.0
N995 N 0.64124 0.82512 0.93992 0.0
C996 C 0.68093 0.81754 0.78638 0.0
C997 C 0.65466 0.82083 0.89186 0.0
N998 N 0.625 0.77278 0.76062 0.0
N999 N 0.71224 0.85097 0.92734 0.0
H1000 H 0.61519 0.81264 0.94734 0.0
H1001 H 0.65565 0.84238 0.97079 0.0
H1002 H 0.7384 0.86179 0.92273 0.0
H1003 H 0.70452 0.8495 0.96854 0.0
H1004 H 0.63351 0.76674 0.72449 0.0
H1005 H 0.59958 0.75638 0.76933 0.0
H1006 H 0.67776 0.81005 0.69879 0.0
H1007 H 0.71867 0.83655 0.72359 0.0
C1008 C 0.19629 0.84177 0.78988 0.0
C1009 C 0.19692 0.82642 0.84074 0.0
C1010 C 0.16516 0.84997 0.88616 0.0
C1011 C 0.16136 0.86228 0.83385 0.0
N1012 N 0.16818 0.86484 0.73425 0.0
N1013 N 0.17863 0.81165 0.93543 0.0
C1014 C 0.17567 0.85692 0.78518 0.0
C1015 C 0.18048 0.82941 0.88847 0.0
N1016 N 0.21616 0.84256 0.74666 0.0
N1017 N 0.15523 0.85892 0.93378 0.0
H1018 H 0.18969 0.79641 0.93811 0.0
H1019 H 0.16395 0.80983 0.96992 0.0
H1020 H 0.1442 0.87417 0.93378 0.0
H1021 H 0.16058 0.85375 0.97355 0.0
H1022 H 0.2194 0.85623 0.71019 0.0
H1023 H 0.23189 0.83205 0.74945 0.0
H1024 H 0.17525 0.85861 0.69681 0.0
H1025 H 0.15208 0.87478 0.72925 0.0
C1026 C 0.98738 0.47581 0.56755 0.0
C1027 C 0.96771 0.47271 0.51985 0.0
C1028 C 0.01934 0.50275 0.46374 0.0
C1029 C 0.03863 0.50351 0.51041 0.0
N1030 N 0.04175 0.48696 0.60408 0.0
N1031 N 0.96394 0.47855 0.42084 0.0
C1032 C 0.02281 0.4889 0.56166 0.0
C1033 C 0.98343 0.48498 0.46739 0.0
N1034 N 0.97223 0.46744 0.61865 0.0
N1035 N 0.03558 0.51998 0.41659 0.0
H1036 H 0.9376 0.4659 0.42217 0.0
H1037 H 0.97368 0.48348 0.38055 0.0
H1038 H 0.06192 0.53301 0.41282 0.0
H1039 H 0.02326 0.52351 0.38293 0.0
H1040 H 0.98552 0.4719 0.65586 0.0
H1041 H 0.94643 0.45864 0.62421 0.0
H1042 H 0.03141 0.47376 0.64093 0.0
H1043 H 0.06778 0.49638 0.60044 0.0
C1044 C 0.51106 0.53074 0.55568 0.0
C1045 C 0.4936 0.53019 0.50662 0.0
C1046 C 0.51299 0.49488 0.46085 0.0
C1047 C 0.52744 0.49254 0.51193 0.0
N1048 N 0.53469 0.50291 0.61059 0.0
N1049 N 0.47435 0.50919 0.41441 0.0
C1050 C 0.52498 0.50907 0.56014 0.0
C1051 C 0.49352 0.51146 0.45968 0.0
N1052 N 0.5152 0.55283 0.59725 0.0
N1053 N 0.51912 0.48257 0.41313 0.0
H1054 H 0.46052 0.5218 0.41229 0.0
H1055 H 0.47025 0.49309 0.38092 0.0
H1056 H 0.53373 0.47085 0.41241 0.0
H1057 H 0.51218 0.48646 0.37369 0.0
H1058 H 0.53034 0.55679 0.63212 0.0
H1059 H 0.50626 0.56974 0.59364 0.0
H1060 H 0.53062 0.51179 0.6481 0.0
H1061 H 0.54378 0.4861 0.61556 0.0
C1062 C 0.47276 0.97697 0.55593 0.0
C1063 C 0.46181 0.96178 0.50294 0.0
C1064 C 0.4839 0.01755 0.46034 0.0
C1065 C 0.49906 0.03271 0.51177 0.0
N1066 N 0.51082 0.02761 0.60773 0.0
N1067 N 0.46037 0.96702 0.40337 0.0
C1068 C 0.49407 0.01263 0.55961 0.0
C1069 C 0.46806 0.9819 0.4547 0.0
N1070 N 0.46204 0.95723 0.60257 0.0
N1071 N 0.48408 0.03731 0.41745 0.0
H1072 H 0.44953 0.94095 0.39774 0.0
H1073 H 0.46742 0.98068 0.36627 0.0
H1074 H 0.49489 0.0635 0.42107 0.0
H1075 H 0.47074 0.02753 0.38051 0.0
H1076 H 0.46664 0.96699 0.64284 0.0
H1077 H 0.44582 0.93108 0.60075 0.0
H1078 H 0.51096 0.01407 0.64256 0.0
H1079 H 0.52669 0.05373 0.61135 0.0
C1080 C 0.17054 0.97102 0.45979 0.0
C1081 C 0.18818 0.00563 0.44369 0.0
C1082 C 0.19812 0.02309 0.54166 0.0
C1083 C 0.1797 0.9885 0.55777 0.0
N1084 N 0.15504 0.92958 0.53407 0.0
N1085 N 0.2252 0.06414 0.46723 0.0
C1086 C 0.16819 0.96245 0.51728 0.0
C1087 C 0.20422 0.03152 0.48412 0.0
N1088 N 0.15475 0.94648 0.42017 0.0
N1089 N 0.20835 0.04782 0.58133 0.0
H1090 H 0.22976 0.07101 0.42532 0.0
H1091 H 0.24021 0.08386 0.49423 0.0
H1092 H 0.20542 0.0426 0.62391 0.0
H1093 H 0.21817 0.07337 0.57229 0.0
H1094 H 0.13802 0.92115 0.42926 0.0
H1095 H 0.1571 0.95174 0.37759 0.0
H1096 H 0.14896 0.90954 0.50695 0.0
H1097 H 0.15278 0.92266 0.57595 0.0
C1098 C 0.00507 0.15377 0.52441 0.0
C1099 C 0.01571 0.18559 0.55017 0.0
C1100 C 0.99883 0.2044 0.4665 0.0
C1101 C 0.99244 0.1743 0.43856 0.0
N1102 N 0.99886 0.12466 0.43753 0.0
N1103 N 0.0292 0.24377 0.54113 0.0
C1104 C 0.99833 0.15023 0.46647 0.0
C1105 C 0.01452 0.21174 0.51983 0.0
N1106 N -0.00025 0.12636 0.5554 0.0
N1107 N 0.98882 0.22536 0.44318 0.0
H1108 H 0.04182 0.25028 0.5793 0.0
H1109 H 0.0318 0.26445 0.51847 0.0
H1110 H 0.9762 0.22023 0.40509 0.0
H1111 H 0.98998 0.24592 0.4642 0.0
H1112 H 0.98887 0.10198 0.53894 0.0
H1113 H 0.00254 0.12709 0.59854 0.0
H1114 H 0.00619 0.10847 0.45549 0.0
H1115 H 0.99575 0.12196 0.39447 0.0
C1116 C 0.81514 0.79016 0.53059 0.0
C1117 C 0.79376 0.80331 0.54585 0.0
C1118 C 0.78329 0.80883 0.4472 0.0
C1119 C 0.80464 0.79566 0.43207 0.0
N1120 N 0.83193 0.76416 0.45851 0.0
N1121 N 0.74984 0.81536 0.51974 0.0
C1122 C 0.81734 0.78288 0.47368 0.0
C1123 C 0.77512 0.80917 0.50432 0.0
N1124 N 0.83536 0.78702 0.56943 0.0
N1125 N 0.7727 0.82316 0.40779 0.0
H1126 H 0.7433 0.81548 0.56137 0.0
H1127 H 0.73333 0.81693 0.49144 0.0
H1128 H 0.7782 0.8237 0.36557 0.0
H1129 H 0.76052 0.83672 0.41749 0.0
H1130 H 0.85427 0.78143 0.55921 0.0
H1131 H 0.83532 0.79264 0.61144 0.0
H1132 H 0.83898 0.75157 0.48706 0.0
H1133 H 0.8337 0.75842 0.41699 0.0
C1134 C 0.83228 0.30682 0.86584 0.0
C1135 C 0.85 0.33128 0.9077 0.0
C1136 C 0.88227 0.37347 0.83566 0.0
C1137 C 0.86081 0.35054 0.79438 0.0
N1138 N 0.8123 0.29644 0.7706 0.0
N1139 N 0.89001 0.38893 0.93337 0.0
C1140 C 0.83519 0.31732 0.80944 0.0
C1141 C 0.87483 0.36485 0.89293 0.0
N1142 N 0.81269 0.2735 0.88019 0.0
N1143 N 0.90991 0.40332 0.81999 0.0
H1144 H 0.88552 0.38359 0.97575 0.0
H1145 H 0.90526 0.41463 0.92486 0.0
H1146 H 0.91598 0.41025 0.77835 0.0
H1147 H 0.9284 0.41967 0.84781 0.0
H1148 H 0.80175 0.25397 0.85112 0.0
H1149 H 0.81014 0.26506 0.92126 0.0
H1150 H 0.79081 0.27356 0.7806 0.0
H1151 H 0.813 0.30313 0.72891 0.0
C1152 C 0.69927 0.54314 0.85521 0.0
C1153 C 0.67331 0.52646 0.89535 0.0
C1154 C 0.63042 0.50522 0.82126 0.0
C1155 C 0.65672 0.51722 0.78112 0.0
N1156 N 0.71616 0.5477 0.75822 0.0
N1157 N 0.61418 0.49183 0.91829 0.0
C1158 C 0.69118 0.53674 0.79759 0.0
C1159 C 0.63878 0.50801 0.87887 0.0
N1160 N 0.73162 0.56491 0.87249 0.0
N1161 N 0.59752 0.49111 0.80398 0.0
H1162 H 0.61928 0.49454 0.96092 0.0
H1163 H 0.58901 0.47454 0.90903 0.0
H1164 H 0.59077 0.48853 0.76199 0.0
H1165 H 0.5772 0.48452 0.83077 0.0
H1166 H 0.75133 0.58028 0.8457 0.0
H1167 H 0.73817 0.56972 0.91448 0.0
H1168 H 0.7418 0.55846 0.76755 0.0
H1169 H 0.7111 0.54452 0.7156 0.0
C1170 C 0.50763 0.17588 0.80596 0.0
C1171 C 0.4835 0.14707 0.77589 0.0
C1172 C 0.44491 0.13019 0.85603 0.0
C1173 C 0.47088 0.15664 0.88794 0.0
N1174 N 0.5303 0.19864 0.89659 0.0
N1175 N 0.43121 0.09355 0.7754 0.0
C1176 C 0.50325 0.17774 0.86389 0.0
C1177 C 0.45261 0.12324 0.80176 0.0
N1178 N 0.53413 0.2022 0.77898 0.0
N1179 N 0.41274 0.11245 0.87675 0.0
H1180 H 0.43632 0.08741 0.73611 0.0
H1181 H 0.41001 0.07382 0.79451 0.0
H1182 H 0.40617 0.11721 0.91596 0.0
H1183 H 0.39208 0.09519 0.85321 0.0
H1184 H 0.55046 0.22508 0.79852 0.0
H1185 H 0.53756 0.20275 0.73598 0.0
H1186 H 0.55501 0.21207 0.8814 0.0
H1187 H 0.52883 0.19965 0.93982 0.0
C1188 C 0.55012 0.69472 0.22475 0.0
C1189 C 0.52727 0.66072 0.24044 0.0
C1190 C 0.51353 0.64482 0.14246 0.0
C1191 C 0.53648 0.67883 0.12652 0.0
N1192 N 0.58312 0.73362 0.15075 0.0
N1193 N 0.49527 0.60198 0.21467 0.0
C1194 C 0.55704 0.70293 0.16724 0.0
C1195 C 0.51189 0.63528 0.19921 0.0
N1196 N 0.56362 0.7195 0.2644 0.0
N1197 N 0.49148 0.62222 0.10447 0.0
H1198 H 0.49378 0.59443 0.25611 0.0
H1199 H 0.48612 0.58208 0.18625 0.0
H1200 H 0.49099 0.62808 0.06267 0.0
H1201 H 0.47164 0.59838 0.11533 0.0
H1202 H 0.57709 0.74523 0.25501 0.0
H1203 H 0.55956 0.71447 0.30691 0.0
H1204 H 0.60093 0.75118 0.17818 0.0
H1205 H 0.58881 0.74011 0.10887 0.0
C1206 C 0.35741 0.88239 0.12734 0.0
C1207 C 0.3232 0.86034 0.11158 0.0
C1208 C 0.30682 0.84796 0.20956 0.0
C1209 C 0.34102 0.87013 0.22556 0.0
N1210 N 0.39631 0.91582 0.20096 0.0
N1211 N 0.2643 0.83124 0.13717 0.0
C1212 C 0.36543 0.88996 0.18471 0.0
C1213 C 0.29755 0.84646 0.15274 0.0
N1214 N 0.38255 0.89426 0.08824 0.0
N1215 N 0.28372 0.82631 0.24739 0.0
H1216 H 0.25695 0.82996 0.09563 0.0
H1217 H 0.24446 0.82322 0.16557 0.0
H1218 H 0.28935 0.82541 0.28917 0.0
H1219 H 0.25963 0.80704 0.23626 0.0
H1220 H 0.40822 0.90705 0.09831 0.0
H1221 H 0.37791 0.88932 0.04583 0.0
H1222 H 0.41414 0.93307 0.17319 0.0
H1223 H 0.40261 0.92199 0.24279 0.0
C1224 C 0.16667 0.51038 0.1906 0.0
C1225 C 0.13434 0.4897 0.2151 0.0
C1226 C 0.11458 0.45729 0.12807 0.0
C1227 C 0.14571 0.48052 0.1022 0.0
N1228 N 0.19745 0.53466 0.10549 0.0
N1229 N 0.07562 0.44694 0.20441 0.0
C1230 C 0.17056 0.50876 0.13245 0.0
C1231 C 0.10766 0.46409 0.18303 0.0
N1232 N 0.1942 0.53044 0.22305 0.0
N1233 N 0.09221 0.42825 0.10104 0.0
H1234 H 0.06968 0.4516 0.24419 0.0
H1235 H 0.05453 0.43034 0.18104 0.0
H1236 H 0.09662 0.42234 0.06108 0.0
H1237 H 0.07074 0.40877 0.11999 0.0
H1238 H 0.21883 0.54342 0.20742 0.0
H1239 H 0.19315 0.53113 0.26637 0.0
H1240 H 0.21443 0.55726 0.12515 0.0
H1241 H 0.20067 0.53522 0.06242 0.0
C1242 C 0.19925 0.03773 0.01575 0.0
C1243 C 0.18955 0.01168 0.05605 0.0
C1244 C 0.18061 0.97153 0.9812 0.0
C1245 C 0.18273 0.99559 0.94177 0.0
N1246 N 0.19767 0.05272 0.9193 0.0
N1247 N 0.17234 0.9536 0.07778 0.0
C1248 C 0.19388 0.02928 0.95832 0.0
C1249 C 0.1815 0.97867 0.03912 0.0
N1250 N 0.2135 0.07055 0.03291 0.0
N1251 N 0.1779 0.94198 0.96286 0.0
H1252 H 0.17372 0.95808 0.12045 0.0
H1253 H 0.16196 0.92812 0.06754 0.0
H1254 H 0.1779 0.93692 0.92051 0.0
H1255 H 0.17957 0.92465 0.98905 0.0
H1256 H 0.2235 0.09126 0.00611 0.0
H1257 H 0.21807 0.07707 0.0748 0.0
H1258 H 0.20102 0.0765 0.92871 0.0
H1259 H 0.19665 0.0478 0.87682 0.0
C1260 C 0.9532 0.15052 0.00825 0.0
C1261 C 0.97871 0.17051 0.04759 0.0
C1262 C 0.01633 0.20271 0.97052 0.0
C1263 C 0.99426 0.17717 0.93322 0.0
N1264 N 0.94046 0.12751 0.91486 0.0
N1265 N 0.03459 0.21803 0.06592 0.0
C1266 C 0.96203 0.15159 0.95139 0.0
C1267 C 0.01005 0.19791 0.0288 0.0
N1268 N 0.92048 0.13071 0.02554 0.0
N1269 N 0.04313 0.23156 0.95003 0.0
H1270 H 0.03056 0.21707 0.10858 0.0
H1271 H 0.05948 0.23502 0.05437 0.0
H1272 H 0.04745 0.23571 0.90741 0.0
H1273 H 0.0584 0.25263 0.97449 0.0
H1274 H 0.90018 0.11762 0.9984 0.0
H1275 H 0.9133 0.13042 0.06683 0.0
H1276 H 0.91844 0.10568 0.92701 0.0
H1277 H 0.94552 0.1288 0.87236 0.0
C1278 C 0.8045 0.80748 0.9594 0.0
C1279 C 0.83106 0.8355 0.9302 0.0
C1280 C 0.85639 0.86102 0.01901 0.0
C1281 C 0.83451 0.83091 0.04804 0.0
N1282 N 0.79012 0.77222 0.04219 0.0
N1283 N 0.88962 0.88074 0.93622 0.0
C1284 C 0.80903 0.80302 0.0174 0.0
C1285 C 0.85931 0.8597 0.96121 0.0
N1286 N 0.77476 0.78594 0.93346 0.0
N1287 N 0.87457 0.89109 0.04637 0.0
H1288 H 0.89437 0.87799 0.8947 0.0
H1289 H 0.91109 0.89748 0.95887 0.0
H1290 H 0.87121 0.89363 0.08868 0.0
H1291 H 0.88957 0.91386 0.02538 0.0
H1292 H 0.75384 0.76728 0.95488 0.0
H1293 H 0.7698 0.78847 0.89203 0.0
H1294 H 0.77373 0.7505 0.01988 0.0
H1295 H 0.79282 0.76778 0.08389 0.0
C1296 C 0.82819 0.29889 0.33767 0.0
C1297 C 0.84307 0.32411 0.29544 0.0
C1298 C 0.87019 0.36783 0.36703 0.0
C1299 C 0.8537 0.34284 0.40883 0.0
N1300 N 0.82591 0.28422 0.43545 0.0
N1301 N 0.8857 0.3809 0.2698 0.0
C1302 C 0.83595 0.30817 0.39455 0.0
C1303 C 0.8669 0.35798 0.31009 0.0
N1304 N 0.80521 0.26631 0.32351 0.0
N1305 N 0.88762 0.40119 0.38181 0.0
H1306 H 0.88358 0.37491 0.22767 0.0
H1307 H 0.90562 0.4051 0.27837 0.0
H1308 H 0.8921 0.4089 0.42325 0.0
H1309 H 0.89628 0.42111 0.35351 0.0
H1310 H 0.79004 0.24771 0.35214 0.0
H1311 H 0.80015 0.2582 0.28238 0.0
H1312 H 0.81538 0.25843 0.42763 0.0
H1313 H 0.8312 0.29048 0.47739 0.0
C1314 C 0.69793 0.53475 0.32173 0.0
C1315 C 0.67227 0.51926 0.28055 0.0
C1316 C 0.62873 0.49793 0.35311 0.0
C1317 C 0.65457 0.51061 0.39438 0.0
N1318 N 0.71268 0.54909 0.41907 0.0
N1319 N 0.61357 0.49477 0.25528 0.0
C1320 C 0.68884 0.53199 0.37899 0.0
C1321 C 0.6377 0.50399 0.29573 0.0
N1322 N 0.73111 0.55089 0.30581 0.0
N1323 N 0.59566 0.47885 0.36912 0.0
H1324 H 0.61955 0.49887 0.21311 0.0
H1325 H 0.58803 0.4858 0.2633 0.0
H1326 H 0.58838 0.47611 0.41077 0.0
H1327 H 0.57565 0.46506 0.34187 0.0
H1328 H 0.75139 0.55866 0.33314 0.0
H1329 H 0.73818 0.5557 0.26416 0.0
H1330 H 0.73768 0.56723 0.41055 0.0
H1331 H 0.70685 0.54736 0.46126 0.0
C1332 C 0.47416 0.13946 0.30162 0.0
C1333 C 0.50022 0.16748 0.27187 0.0
C1334 C 0.52931 0.19116 0.359 0.0
C1335 C 0.50729 0.16106 0.388 0.0
N1336 N 0.46109 0.10314 0.38274 0.0
N1337 N 0.55926 0.21183 0.27343 0.0
C1338 C 0.48024 0.13401 0.35828 0.0
C1339 C 0.53001 0.1905 0.3009 0.0
N1340 N 0.44338 0.11904 0.27764 0.0
N1341 N 0.54867 0.22101 0.38641 0.0
H1342 H 0.56181 0.21054 0.23061 0.0
H1343 H 0.58187 0.22759 0.29432 0.0
H1344 H 0.54601 0.22371 0.42887 0.0
H1345 H 0.56362 0.2438 0.36545 0.0
H1346 H 0.4228 0.10055 0.29993 0.0
H1347 H 0.43743 0.12233 0.23716 0.0
H1348 H 0.44334 0.08194 0.36073 0.0
H1349 H 0.46501 0.09792 0.42338 0.0
C1350 C 0.52474 0.7019 0.69936 0.0
C1351 C 0.51109 0.67601 0.74064 0.0
C1352 C 0.49148 0.6327 0.66751 0.0
C1353 C 0.50252 0.65847 0.62623 0.0
N1354 N 0.52967 0.71747 0.60156 0.0
N1355 N 0.48033 0.61692 0.76513 0.0
C1356 C 0.51987 0.6931 0.6418 0.0
C1357 C 0.49481 0.64142 0.72505 0.0
N1358 N 0.5421 0.73506 0.71552 0.0
N1359 N 0.47757 0.59971 0.65129 0.0
H1360 H 0.483 0.62225 0.8076 0.0
H1361 H 0.46424 0.59136 0.75691 0.0
H1362 H 0.4736 0.5926 0.60968 0.0
H1363 H 0.47213 0.57968 0.67805 0.0
H1364 H 0.55587 0.75537 0.68884 0.0
H1365 H 0.54462 0.74242 0.75699 0.0
H1366 H 0.53842 0.74296 0.6093 0.0
H1367 H 0.52806 0.71208 0.55921 0.0
C1368 C 0.32297 0.85353 0.6962 0.0
C1369 C 0.32541 0.82797 0.72667 0.0
C1370 C 0.32844 0.80278 0.63952 0.0
C1371 C 0.33274 0.83119 0.60877 0.0
N1372 N 0.33987 0.88768 0.61215 0.0
N1373 N 0.34524 0.78752 0.72408 0.0
C1374 C 0.33163 0.85791 0.63809 0.0
C1375 C 0.33306 0.8057 0.69727 0.0
N1376 N 0.3114 0.87268 0.72125 0.0
N1377 N 0.31907 0.77255 0.61414 0.0
H1378 H 0.35206 0.79127 0.76605 0.0
H1379 H 0.3525 0.77221 0.70269 0.0
H1380 H 0.31182 0.76812 0.57241 0.0
H1381 H 0.31424 0.75096 0.63657 0.0
H1382 H 0.30609 0.88917 0.69908 0.0
H1383 H 0.30437 0.87003 0.76299 0.0
H1384 H 0.34245 0.90872 0.63364 0.0
H1385 H 0.34698 0.89246 0.57053 0.0
C1386 C 0.14252 0.46808 0.62754 0.0
C1387 C 0.17008 0.49317 0.59584 0.0
C1388 C 0.20107 0.51772 0.68078 0.0
C1389 C 0.17655 0.49029 0.71296 0.0
N1390 N 0.12673 0.43414 0.71172 0.0
N1391 N 0.23062 0.53108 0.59375 0.0
C1392 C 0.14796 0.4637 0.68502 0.0
C1393 C 0.20116 0.51395 0.62304 0.0
N1394 N 0.11114 0.44949 0.60443 0.0
N1395 N 0.22276 0.54841 0.7041 0.0
H1396 H 0.23174 0.52709 0.55124 0.0
H1397 H 0.25402 0.54565 0.61327 0.0
H1398 H 0.22012 0.55462 0.74488 0.0
H1399 H 0.23981 0.56911 0.68023 0.0
H1400 H 0.08976 0.43364 0.62796 0.0
H1401 H 0.10599 0.45163 0.5629 0.0
H1402 H 0.10741 0.41331 0.69113 0.0
H1403 H 0.13054 0.42903 0.75247 0.0
loop_
_geom_bond_atom_site_label_1
_geom_bond_atom_site_label_2
_geom_bond_distance
_geom_bond_site_symmetry_2
_ccdc_geom_bond_type
Co0 N4 2.148 . S
Co0 N10 2.128 1_545 S
Co0 N20 2.194 1_545 S
Co0 O25 2.351 1_545 S
Co0 O26 2.155 1_545 S
Co0 O27 2.096 . S
C1 N4 1.301 . S
C1 N5 1.328 . S
C1 H6 0.930 . S
C2 C3 1.333 . S
C2 N4 1.317 . S
C2 H7 0.930 . S
C3 C2 1.333 . S
C3 N5 1.350 . S
C3 H29 0.931 . S
N4 Co0 2.148 . S
N4 C1 1.301 . S
N4 C2 1.317 . S
N5 C1 1.328 . S
N5 C3 1.350 . S
H6 C1 0.930 . S
H7 C2 0.930 . S
C8 O9 1.224 . S
C8 O27 1.247 . S
O9 C8 1.224 . S
N10 Co0 2.128 1_565 S
N10 C11 1.355 . S
N10 C13 1.311 . S
C11 N10 1.355 . S
C11 C12 1.363 . S
C11 H23 0.929 . S
C12 C11 1.363 . S
C12 N14 1.375 . S
C12 H30 0.931 . S
C13 N10 1.311 . S
C13 N14 1.347 . S
C13 H24 0.929 . S
N14 C12 1.375 . S
N14 C13 1.347 . S
C15 C18 1.365 . S
C15 N20 1.328 . S
C15 H21 0.929 . S
C16 C17 1.362 . S
C16 C19 1.365 1_565 S
C16 H31 0.941 . S
C17 C16 1.362 . S
C17 C18 1.366 . S
C18 C15 1.365 . S
C18 C17 1.366 . S
C18 H32 0.930 . S
C19 C16 1.365 1_545 S
C19 N20 1.300 1_545 S
C19 H22 0.960 . S
N20 Co0 2.194 1_565 S
N20 C15 1.328 . S
N20 C19 1.300 1_565 S
H21 C15 0.929 . S
H22 C19 0.960 . S
H23 C11 0.929 . S
H24 C13 0.929 . S
O25 Co0 2.351 1_565 S
O25 C28 1.244 . S
O26 Co0 2.155 1_565 S
O26 C28 1.240 . S
O27 Co0 2.096 . S
O27 C8 1.247 . S
C28 O25 1.244 . S
C28 O26 1.240 . S
H29 C3 0.931 . S
H30 C12 0.931 . S
H31 C16 0.941 . S
H32 C18 0.930 . S
Co33 N37 2.148 . S
Co33 N43 2.128 1_655 S
Co33 N53 2.194 1_655 S
Co33 O58 2.351 1_655 S
Co33 O59 2.155 1_655 S
Co33 O60 2.096 . S
C34 N37 1.301 . S
C34 N38 1.328 . S
C34 H39 0.930 . S
C35 C36 1.333 . S
C35 N37 1.317 . S
C35 H40 0.930 . S
C36 C35 1.333 . S
C36 N38 1.350 . S
C36 H62 0.931 . S
N37 Co33 2.148 . S
N37 C34 1.301 . S
N37 C35 1.317 . S
N38 C34 1.328 . S
N38 C36 1.350 . S
H39 C34 0.930 . S
H40 C35 0.930 . S
C41 O42 1.224 . S
C41 O60 1.247 . S
O42 C41 1.224 . S
N43 Co33 2.128 1_455 S
N43 C44 1.355 . S
N43 C46 1.311 . S
C44 N43 1.355 . S
C44 C45 1.363 . S
C44 H56 0.929 . S
C45 C44 1.363 . S
C45 N47 1.375 . S
C45 H63 0.931 . S
C46 N43 1.311 . S
C46 N47 1.347 . S
C46 H57 0.929 . S
N47 C45 1.375 . S
N47 C46 1.347 . S
C48 C51 1.365 . S
C48 N53 1.328 . S
C48 H54 0.929 . S
C49 C50 1.362 . S
C49 C52 1.375 1_455 S
C49 H64 0.930 . S
C50 C49 1.362 . S
C50 C51 1.366 . S
C51 C48 1.365 . S
C51 C50 1.366 . S
C51 H65 0.930 . S
C52 C49 1.375 1_655 S
C52 N53 1.314 1_655 S
C52 H55 0.936 . S
N53 Co33 2.194 1_455 S
N53 C48 1.328 . S
N53 C52 1.314 1_455 S
H54 C48 0.929 . S
H55 C52 0.936 . S
H56 C44 0.929 . S
H57 C46 0.929 . S
O58 Co33 2.351 1_455 S
O58 C61 1.244 . S
O59 Co33 2.155 1_455 S
O59 C61 1.240 . S
O60 Co33 2.096 . S
O60 C41 1.247 . S
C61 O58 1.244 . S
C61 O59 1.240 . S
H62 C36 0.931 . S
H63 C45 0.931 . S
H64 C49 0.930 . S
H65 C51 0.930 . S
Co66 N70 2.148 . S
Co66 N76 2.128 . S
Co66 N86 2.194 . S
Co66 O91 2.351 . S
Co66 O92 2.155 . S
Co66 O93 2.096 . S
C67 N70 1.301 . S
C67 N71 1.328 . S
C67 H72 0.930 . S
C68 C69 1.333 . S
C68 N70 1.317 . S
C68 H73 0.930 . S
C69 C68 1.333 . S
C69 N71 1.350 . S
C69 H95 0.931 . S
N70 Co66 2.148 . S
N70 C67 1.301 . S
N70 C68 1.317 . S
N71 C67 1.328 . S
N71 C69 1.350 . S
H72 C67 0.930 . S
H73 C68 0.930 . S
C74 O75 1.224 . S
C74 O93 1.247 . S
O75 C74 1.224 . S
N76 Co66 2.128 . S
N76 C77 1.355 . S
N76 C79 1.311 . S
C77 N76 1.355 . S
C77 C78 1.363 . S
C77 H89 0.929 . S
C78 C77 1.363 . S
C78 N80 1.375 . S
C78 H96 0.931 . S
C79 N76 1.311 . S
C79 N80 1.347 . S
C79 H90 0.929 . S
N80 C78 1.375 . S
N80 C79 1.347 . S
C81 C84 1.365 . S
C81 N86 1.328 . S
C81 H87 0.929 . S
C82 C83 1.362 . S
C82 C85 1.378 . S
C82 H97 0.929 . S
C83 C82 1.362 . S
C83 C84 1.366 . S
C84 C81 1.365 . S
C84 C83 1.366 . S
C84 H98 0.930 . S
C85 C82 1.378 . S
C85 N86 1.315 . S
C85 H88 0.930 . S
N86 Co66 2.194 . S
N86 C81 1.328 . S
N86 C85 1.315 . S
H87 C81 0.929 . S
H88 C85 0.930 . S
H89 C77 0.929 . S
H90 C79 0.929 . S
O91 Co66 2.351 . S
O91 C94 1.244 . S
O92 Co66 2.155 . S
O92 C94 1.240 . S
O93 Co66 2.096 . S
O93 C74 1.247 . S
C94 O91 1.244 . S
C94 O92 1.240 . S
H95 C69 0.931 . S
H96 C78 0.931 . S
H97 C82 0.929 . S
H98 C84 0.930 . S
Co99 N103 2.148 . S
Co99 N109 2.128 1_455 S
Co99 N119 2.194 1_455 S
Co99 O124 2.351 1_455 S
Co99 O125 2.155 1_455 S
Co99 O126 2.096 . S
C100 N103 1.301 . S
C100 N104 1.328 . S
C100 H105 0.930 . S
C101 C102 1.333 . S
C101 N103 1.317 . S
C101 H106 0.930 . S
C102 C101 1.333 . S
C102 N104 1.350 . S
C102 H128 0.931 . S
N103 Co99 2.148 . S
N103 C100 1.301 . S
N103 C101 1.317 . S
N104 C100 1.328 . S
N104 C102 1.350 . S
H105 C100 0.930 . S
H106 C101 0.930 . S
C107 O108 1.224 . S
C107 O126 1.247 . S
O108 C107 1.224 . S
N109 Co99 2.128 1_655 S
N109 C110 1.355 . S
N109 C112 1.311 . S
C110 N109 1.355 . S
C110 C111 1.363 . S
C110 H122 0.929 . S
C111 C110 1.363 . S
C111 N113 1.375 . S
C111 H129 0.931 . S
C112 N109 1.311 . S
C112 N113 1.347 . S
C112 H123 0.929 . S
N113 C111 1.375 . S
N113 C112 1.347 . S
C114 C117 1.365 . S
C114 N119 1.328 . S
C114 H120 0.929 . S
C115 C116 1.362 . S
C115 C118 1.365 1_655 S
C115 H130 0.941 . S
C116 C115 1.362 . S
C116 C117 1.366 . S
C117 C114 1.365 . S
C117 C116 1.366 . S
C117 H131 0.930 . S
C118 C115 1.365 1_455 S
C118 N119 1.300 1_455 S
C118 H121 0.960 . S
N119 Co99 2.194 1_655 S
N119 C114 1.328 . S
N119 C118 1.300 1_655 S
H120 C114 0.929 . S
H121 C118 0.960 . S
H122 C110 0.929 . S
H123 C112 0.929 . S
O124 Co99 2.351 1_655 S
O124 C127 1.244 . S
O125 Co99 2.155 1_655 S
O125 C127 1.240 . S
O126 Co99 2.096 . S
O126 C107 1.247 . S
C127 O124 1.244 . S
C127 O125 1.240 . S
H128 C102 0.931 . S
H129 C111 0.931 . S
H130 C115 0.941 . S
H131 C117 0.930 . S
Co132 N136 2.148 . S
Co132 N142 2.128 . S
Co132 N152 2.194 . S
Co132 O157 2.351 . S
Co132 O158 2.155 . S
Co132 O159 2.096 . S
C133 N136 1.301 . S
C133 N137 1.328 . S
C133 H138 0.930 . S
C134 C135 1.333 . S
C134 N136 1.317 . S
C134 H139 0.930 . S
C135 C134 1.333 . S
C135 N137 1.350 . S
C135 H161 0.931 . S
N136 Co132 2.148 . S
N136 C133 1.301 . S
N136 C134 1.317 . S
N137 C133 1.328 . S
N137 C135 1.350 . S
H138 C133 0.930 . S
H139 C134 0.930 . S
C140 O141 1.224 . S
C140 O159 1.247 . S
O141 C140 1.224 . S
N142 Co132 2.128 . S
N142 C143 1.355 . S
N142 C145 1.311 . S
C143 N142 1.355 . S
C143 C144 1.363 . S
C143 H155 0.929 . S
C144 C143 1.363 . S
C144 N146 1.375 . S
C144 H162 0.931 . S
C145 N142 1.311 . S
C145 N146 1.347 . S
C145 H156 0.929 . S
N146 C144 1.375 . S
N146 C145 1.347 . S
C147 C150 1.365 . S
C147 N152 1.328 . S
C147 H153 0.929 . S
C148 C149 1.362 . S
C148 C151 1.378 . S
C148 H163 0.929 . S
C149 C148 1.362 . S
C149 C150 1.366 . S
C150 C147 1.365 . S
C150 C149 1.366 . S
C150 H164 0.930 . S
C151 C148 1.378 . S
C151 N152 1.315 . S
C151 H154 0.930 . S
N152 Co132 2.194 . S
N152 C147 1.328 . S
N152 C151 1.315 . S
H153 C147 0.929 . S
H154 C151 0.930 . S
H155 C143 0.929 . S
H156 C145 0.929 . S
O157 Co132 2.351 . S
O157 C160 1.244 . S
O158 Co132 2.155 . S
O158 C160 1.240 . S
O159 Co132 2.096 . S
O159 C140 1.247 . S
C160 O157 1.244 . S
C160 O158 1.240 . S
H161 C135 0.931 . S
H162 C144 0.931 . S
H163 C148 0.929 . S
H164 C150 0.930 . S
Co165 N169 2.148 . S
Co165 N175 2.128 1_565 S
Co165 N185 2.194 1_565 S
Co165 O190 2.351 1_565 S
Co165 O191 2.155 1_565 S
Co165 O192 2.096 . S
C166 N169 1.301 . S
C166 N170 1.328 . S
C166 H171 0.930 . S
C167 C168 1.333 . S
C167 N169 1.317 . S
C167 H172 0.930 . S
C168 C167 1.333 . S
C168 N170 1.350 . S
C168 H194 0.931 . S
N169 Co165 2.148 . S
N169 C166 1.301 . S
N169 C167 1.317 . S
N170 C166 1.328 . S
N170 C168 1.350 . S
H171 C166 0.930 . S
H172 C167 0.930 . S
C173 O174 1.224 . S
C173 O192 1.247 . S
O174 C173 1.224 . S
N175 Co165 2.128 1_545 S
N175 C176 1.355 . S
N175 C178 1.311 . S
C176 N175 1.355 . S
C176 C177 1.363 . S
C176 H188 0.929 . S
C177 C176 1.363 . S
C177 N179 1.375 . S
C177 H195 0.931 . S
C178 N175 1.311 . S
C178 N179 1.347 . S
C178 H189 0.929 . S
N179 C177 1.375 . S
N179 C178 1.347 . S
C180 C183 1.365 . S
C180 N185 1.328 . S
C180 H186 0.929 . S
C181 C182 1.362 . S
C181 C184 1.375 1_545 S
C181 H196 0.930 . S
C182 C181 1.362 . S
C182 C183 1.366 . S
C183 C180 1.365 . S
C183 C182 1.366 . S
C183 H197 0.930 . S
C184 C181 1.375 1_565 S
C184 N185 1.314 1_565 S
C184 H187 0.936 . S
N185 Co165 2.194 1_545 S
N185 C180 1.328 . S
N185 C184 1.314 1_545 S
H186 C180 0.929 . S
H187 C184 0.936 . S
H188 C176 0.929 . S
H189 C178 0.929 . S
O190 Co165 2.351 1_545 S
O190 C193 1.244 . S
O191 Co165 2.155 1_545 S
O191 C193 1.240 . S
O192 Co165 2.096 . S
O192 C173 1.247 . S
C193 O190 1.244 . S
C193 O191 1.240 . S
H194 C168 0.931 . S
H195 C177 0.931 . S
H196 C181 0.930 . S
H197 C183 0.930 . S
Co198 N202 2.148 . S
Co198 N208 2.128 . S
Co198 N218 2.194 . S
Co198 O223 2.351 . S
Co198 O224 2.155 . S
Co198 O225 2.096 . S
C199 N202 1.301 . S
C199 N203 1.328 . S
C199 H204 0.930 . S
C200 C201 1.333 . S
C200 N202 1.317 . S
C200 H205 0.930 . S
C201 C200 1.333 . S
C201 N203 1.350 . S
C201 H227 0.931 . S
N202 Co198 2.148 . S
N202 C199 1.301 . S
N202 C200 1.317 . S
N203 C199 1.328 . S
N203 C201 1.350 . S
H204 C199 0.930 . S
H205 C200 0.930 . S
C206 O207 1.224 . S
C206 O225 1.247 . S
O207 C206 1.224 . S
N208 Co198 2.128 . S
N208 C209 1.355 . S
N208 C211 1.311 . S
C209 N208 1.355 . S
C209 C210 1.363 . S
C209 H221 0.929 . S
C210 C209 1.363 . S
C210 N212 1.375 . S
C210 H228 0.931 . S
C211 N208 1.311 . S
C211 N212 1.347 . S
C211 H222 0.929 . S
N212 C210 1.375 . S
N212 C211 1.347 . S
C213 C216 1.365 . S
C213 N218 1.328 . S
C213 H219 0.929 . S
C214 C215 1.362 . S
C214 C217 1.378 . S
C214 H229 0.929 . S
C215 C214 1.362 . S
C215 C216 1.366 . S
C216 C213 1.365 . S
C216 C215 1.366 . S
C216 H230 0.930 . S
C217 C214 1.378 . S
C217 N218 1.315 . S
C217 H220 0.930 . S
N218 Co198 2.194 . S
N218 C213 1.328 . S
N218 C217 1.315 . S
H219 C213 0.929 . S
H220 C217 0.930 . S
H221 C209 0.929 . S
H222 C211 0.929 . S
O223 Co198 2.351 . S
O223 C226 1.244 . S
O224 Co198 2.155 . S
O224 C226 1.240 . S
O225 Co198 2.096 . S
O225 C206 1.247 . S
C226 O223 1.244 . S
C226 O224 1.240 . S
H227 C201 0.931 . S
H228 C210 0.931 . S
H229 C214 0.929 . S
H230 C216 0.930 . S
Co231 N235 2.148 . S
Co231 N241 2.128 . S
Co231 N251 2.194 . S
Co231 O256 2.351 . S
Co231 O257 2.155 . S
Co231 O258 2.096 . S
C232 N235 1.301 . S
C232 N236 1.328 . S
C232 H237 0.930 . S
C233 C234 1.333 . S
C233 N235 1.317 . S
C233 H238 0.930 . S
C234 C233 1.333 . S
C234 N236 1.350 . S
C234 H260 0.931 . S
N235 Co231 2.148 . S
N235 C232 1.301 . S
N235 C233 1.317 . S
N236 C232 1.328 . S
N236 C234 1.350 . S
H237 C232 0.930 . S
H238 C233 0.930 . S
C239 O240 1.224 . S
C239 O258 1.247 . S
O240 C239 1.224 . S
N241 Co231 2.128 . S
N241 C242 1.355 . S
N241 C244 1.311 . S
C242 N241 1.355 . S
C242 C243 1.363 . S
C242 H254 0.929 . S
C243 C242 1.363 . S
C243 N245 1.375 . S
C243 H261 0.931 . S
C244 N241 1.311 . S
C244 N245 1.347 . S
C244 H255 0.929 . S
N245 C243 1.375 . S
N245 C244 1.347 . S
C246 C249 1.365 . S
C246 N251 1.328 . S
C246 H252 0.929 . S
C247 C248 1.362 . S
C247 C250 1.378 . S
C247 H262 0.929 . S
C248 C247 1.362 . S
C248 C249 1.366 . S
C249 C246 1.365 . S
C249 C248 1.366 . S
C249 H263 0.930 . S
C250 C247 1.378 . S
C250 N251 1.315 . S
C250 H253 0.930 . S
N251 Co231 2.194 . S
N251 C246 1.328 . S
N251 C250 1.315 . S
H252 C246 0.929 . S
H253 C250 0.930 . S
H254 C242 0.929 . S
H255 C244 0.929 . S
O256 Co231 2.351 . S
O256 C259 1.244 . S
O257 Co231 2.155 . S
O257 C259 1.240 . S
O258 Co231 2.096 . S
O258 C239 1.247 . S
C259 O256 1.244 . S
C259 O257 1.240 . S
H260 C234 0.931 . S
H261 C243 0.931 . S
H262 C247 0.929 . S
H263 C249 0.930 . S
Co264 N268 2.148 . S
Co264 N274 2.128 . S
Co264 N284 2.194 . S
Co264 O289 2.351 . S
Co264 O290 2.155 . S
Co264 O291 2.096 . S
C265 N268 1.301 . S
C265 N269 1.328 . S
C265 H270 0.930 . S
C266 C267 1.333 . S
C266 N268 1.317 . S
C266 H271 0.930 . S
C267 C266 1.333 . S
C267 N269 1.350 . S
C267 H293 0.931 . S
N268 Co264 2.148 . S
N268 C265 1.301 . S
N268 C266 1.317 . S
N269 C265 1.328 . S
N269 C267 1.350 . S
H270 C265 0.930 . S
H271 C266 0.930 . S
C272 O273 1.224 . S
C272 O291 1.247 . S
O273 C272 1.224 . S
N274 Co264 2.128 . S
N274 C275 1.355 . S
N274 C277 1.311 . S
C275 N274 1.355 . S
C275 C276 1.363 . S
C275 H287 0.929 . S
C276 C275 1.363 . S
C276 N278 1.375 . S
C276 H294 0.931 . S
C277 N274 1.311 . S
C277 N278 1.347 . S
C277 H288 0.929 . S
N278 C276 1.375 . S
N278 C277 1.347 . S
C279 C282 1.365 . S
C279 N284 1.328 . S
C279 H285 0.929 . S
C280 C281 1.362 . S
C280 C283 1.378 . S
C280 H295 0.929 . S
C281 C280 1.362 . S
C281 C282 1.366 . S
C282 C279 1.365 . S
C282 C281 1.366 . S
C282 H296 0.930 . S
C283 C280 1.378 . S
C283 N284 1.315 . S
C283 H286 0.930 . S
N284 Co264 2.194 . S
N284 C279 1.328 . S
N284 C283 1.315 . S
H285 C279 0.929 . S
H286 C283 0.930 . S
H287 C275 0.929 . S
H288 C277 0.929 . S
O289 Co264 2.351 . S
O289 C292 1.244 . S
O290 Co264 2.155 . S
O290 C292 1.240 . S
O291 Co264 2.096 . S
O291 C272 1.247 . S
C292 O289 1.244 . S
C292 O290 1.240 . S
H293 C267 0.931 . S
H294 C276 0.931 . S
H295 C280 0.929 . S
H296 C282 0.930 . S
Co297 N301 2.148 . S
Co297 N307 2.128 . S
Co297 N317 2.194 . S
Co297 O322 2.351 . S
Co297 O323 2.155 . S
Co297 O324 2.096 . S
C298 N301 1.301 . S
C298 N302 1.328 . S
C298 H303 0.930 . S
C299 C300 1.333 . S
C299 N301 1.317 . S
C299 H304 0.930 . S
C300 C299 1.333 . S
C300 N302 1.350 . S
C300 H326 0.931 . S
N301 Co297 2.148 . S
N301 C298 1.301 . S
N301 C299 1.317 . S
N302 C298 1.328 . S
N302 C300 1.350 . S
H303 C298 0.930 . S
H304 C299 0.930 . S
C305 O306 1.224 . S
C305 O324 1.247 . S
O306 C305 1.224 . S
N307 Co297 2.128 . S
N307 C308 1.355 . S
N307 C310 1.311 . S
C308 N307 1.355 . S
C308 C309 1.363 . S
C308 H320 0.929 . S
C309 C308 1.363 . S
C309 N311 1.375 . S
C309 H327 0.931 . S
C310 N307 1.311 . S
C310 N311 1.347 . S
C310 H321 0.929 . S
N311 C309 1.375 . S
N311 C310 1.347 . S
C312 C315 1.365 . S
C312 N317 1.328 . S
C312 H318 0.929 . S
C313 C314 1.362 . S
C313 C316 1.378 1_556 S
C313 H328 0.929 . S
C314 C313 1.362 . S
C314 C315 1.366 1_556 S
C315 C312 1.365 . S
C315 C314 1.366 1_554 S
C315 H329 0.930 . S
C316 C313 1.378 1_554 S
C316 N317 1.315 . S
C316 H319 0.930 . S
N317 Co297 2.194 . S
N317 C312 1.328 . S
N317 C316 1.315 . S
H318 C312 0.929 . S
H319 C316 0.930 . S
H320 C308 0.929 . S
H321 C310 0.929 . S
O322 Co297 2.351 . S
O322 C325 1.244 . S
O323 Co297 2.155 . S
O323 C325 1.240 . S
O324 Co297 2.096 . S
O324 C305 1.247 . S
C325 O322 1.244 . S
C325 O323 1.240 . S
H326 C300 0.931 . S
H327 C309 0.931 . S
H328 C313 0.929 . S
H329 C315 0.930 . S
Co330 N334 2.148 . S
Co330 N340 2.128 . S
Co330 N350 2.194 . S
Co330 O355 2.351 . S
Co330 O356 2.155 . S
Co330 O357 2.096 . S
C331 N334 1.301 . S
C331 N335 1.328 . S
C331 H336 0.930 . S
C332 C333 1.333 . S
C332 N334 1.317 . S
C332 H337 0.930 . S
C333 C332 1.333 . S
C333 N335 1.350 . S
C333 H359 0.931 . S
N334 Co330 2.148 . S
N334 C331 1.301 . S
N334 C332 1.317 . S
N335 C331 1.328 . S
N335 C333 1.350 . S
H336 C331 0.930 . S
H337 C332 0.930 . S
C338 O339 1.224 . S
C338 O357 1.247 . S
O339 C338 1.224 . S
N340 Co330 2.128 . S
N340 C341 1.355 . S
N340 C343 1.311 . S
C341 N340 1.355 . S
C341 C342 1.363 . S
C341 H353 0.929 . S
C342 C341 1.363 . S
C342 N344 1.375 . S
C342 H360 0.931 . S
C343 N340 1.311 . S
C343 N344 1.347 . S
C343 H354 0.929 . S
N344 C342 1.375 . S
N344 C343 1.347 . S
C345 C348 1.365 . S
C345 N350 1.328 . S
C345 H351 0.929 . S
C346 C347 1.362 . S
C346 C349 1.378 1_556 S
C346 H361 0.929 . S
C347 C346 1.362 . S
C347 C348 1.366 1_556 S
C348 C345 1.365 . S
C348 C347 1.366 1_554 S
C348 H362 0.930 . S
C349 C346 1.378 1_554 S
C349 N350 1.315 . S
C349 H352 0.930 . S
N350 Co330 2.194 . S
N350 C345 1.328 . S
N350 C349 1.315 . S
H351 C345 0.929 . S
H352 C349 0.930 . S
H353 C341 0.929 . S
H354 C343 0.929 . S
O355 Co330 2.351 . S
O355 C358 1.244 . S
O356 Co330 2.155 . S
O356 C358 1.240 . S
O357 Co330 2.096 . S
O357 C338 1.247 . S
C358 O355 1.244 . S
C358 O356 1.240 . S
H359 C333 0.931 . S
H360 C342 0.931 . S
H361 C346 0.929 . S
H362 C348 0.930 . S
Co363 N367 2.148 . S
Co363 N373 2.128 . S
Co363 N383 2.194 . S
Co363 O388 2.351 . S
Co363 O389 2.155 . S
Co363 O390 2.096 . S
C364 N367 1.301 . S
C364 N368 1.328 . S
C364 H369 0.930 . S
C365 C366 1.333 . S
C365 N367 1.317 . S
C365 H370 0.930 . S
C366 C365 1.333 . S
C366 N368 1.350 . S
C366 H392 0.931 . S
N367 Co363 2.148 . S
N367 C364 1.301 . S
N367 C365 1.317 . S
N368 C364 1.328 . S
N368 C366 1.350 . S
H369 C364 0.930 . S
H370 C365 0.930 . S
C371 O372 1.224 . S
C371 O390 1.247 . S
O372 C371 1.224 . S
N373 Co363 2.128 . S
N373 C374 1.355 . S
N373 C376 1.311 . S
C374 N373 1.355 . S
C374 C375 1.363 . S
C374 H386 0.929 . S
C375 C374 1.363 . S
C375 N377 1.375 . S
C375 H393 0.931 . S
C376 N373 1.311 . S
C376 N377 1.347 . S
C376 H387 0.929 . S
N377 C375 1.375 . S
N377 C376 1.347 . S
C378 C381 1.365 . S
C378 N383 1.328 . S
C378 H384 0.929 . S
C379 C380 1.362 . S
C379 C382 1.378 1_556 S
C379 H394 0.929 . S
C380 C379 1.362 . S
C380 C381 1.366 1_556 S
C381 C378 1.365 . S
C381 C380 1.366 1_554 S
C381 H395 0.930 . S
C382 C379 1.378 1_554 S
C382 N383 1.315 . S
C382 H385 0.930 . S
N383 Co363 2.194 . S
N383 C378 1.328 . S
N383 C382 1.315 . S
H384 C378 0.929 . S
H385 C382 0.930 . S
H386 C374 0.929 . S
H387 C376 0.929 . S
O388 Co363 2.351 . S
O388 C391 1.244 . S
O389 Co363 2.155 . S
O389 C391 1.240 . S
O390 Co363 2.096 . S
O390 C371 1.247 . S
C391 O388 1.244 . S
C391 O389 1.240 . S
H392 C366 0.931 . S
H393 C375 0.931 . S
H394 C379 0.929 . S
H395 C381 0.930 . S
Co396 N400 2.148 . S
Co396 N406 2.128 . S
Co396 N416 2.194 . S
Co396 O421 2.351 . S
Co396 O422 2.155 . S
Co396 O423 2.096 . S
C397 N400 1.301 . S
C397 N401 1.328 . S
C397 H402 0.930 . S
C398 C399 1.333 . S
C398 N400 1.317 . S
C398 H403 0.930 . S
C399 C398 1.333 . S
C399 N401 1.350 . S
C399 H425 0.931 . S
N400 Co396 2.148 . S
N400 C397 1.301 . S
N400 C398 1.317 . S
N401 C397 1.328 . S
N401 C399 1.350 . S
H402 C397 0.930 . S
H403 C398 0.930 . S
C404 O405 1.224 . S
C404 O423 1.247 . S
O405 C404 1.224 . S
N406 Co396 2.128 . S
N406 C407 1.355 . S
N406 C409 1.311 . S
C407 N406 1.355 . S
C407 C408 1.363 . S
C407 H419 0.929 . S
C408 C407 1.363 . S
C408 N410 1.375 . S
C408 H426 0.931 . S
C409 N406 1.311 . S
C409 N410 1.347 . S
C409 H420 0.929 . S
N410 C408 1.375 . S
N410 C409 1.347 . S
C411 C414 1.365 . S
C411 N416 1.328 . S
C411 H417 0.929 . S
C412 C413 1.362 . S
C412 C415 1.378 1_554 S
C412 H427 0.929 . S
C413 C412 1.362 . S
C413 C414 1.366 1_554 S
C414 C411 1.365 . S
C414 C413 1.366 1_556 S
C414 H428 0.930 . S
C415 C412 1.378 1_556 S
C415 N416 1.315 . S
C415 H418 0.930 . S
N416 Co396 2.194 . S
N416 C411 1.328 . S
N416 C415 1.315 . S
H417 C411 0.929 . S
H418 C415 0.930 . S
H419 C407 0.929 . S
H420 C409 0.929 . S
O421 Co396 2.351 . S
O421 C424 1.244 . S
O422 Co396 2.155 . S
O422 C424 1.240 . S
O423 Co396 2.096 . S
O423 C404 1.247 . S
C424 O421 1.244 . S
C424 O422 1.240 . S
H425 C399 0.931 . S
H426 C408 0.931 . S
H427 C412 0.929 . S
H428 C414 0.930 . S
Co429 N433 2.148 . S
Co429 N439 2.128 . S
Co429 N449 2.194 . S
Co429 O454 2.351 . S
Co429 O455 2.155 . S
Co429 O456 2.096 . S
C430 N433 1.301 . S
C430 N434 1.328 . S
C430 H435 0.930 . S
C431 C432 1.333 . S
C431 N433 1.317 . S
C431 H436 0.930 . S
C432 C431 1.333 . S
C432 N434 1.350 . S
C432 H458 0.931 . S
N433 Co429 2.148 . S
N433 C430 1.301 . S
N433 C431 1.317 . S
N434 C430 1.328 . S
N434 C432 1.350 . S
H435 C430 0.930 . S
H436 C431 0.930 . S
C437 O438 1.224 . S
C437 O456 1.247 . S
O438 C437 1.224 . S
N439 Co429 2.128 . S
N439 C440 1.355 . S
N439 C442 1.311 . S
C440 N439 1.355 . S
C440 C441 1.363 . S
C440 H452 0.929 . S
C441 C440 1.363 . S
C441 N443 1.375 . S
C441 H459 0.931 . S
C442 N439 1.311 . S
C442 N443 1.347 . S
C442 H453 0.929 . S
N443 C441 1.375 . S
N443 C442 1.347 . S
C444 C447 1.365 . S
C444 N449 1.328 . S
C444 H450 0.929 . S
C445 C446 1.362 . S
C445 C448 1.378 1_554 S
C445 H460 0.929 . S
C446 C445 1.362 . S
C446 C447 1.366 1_554 S
C447 C444 1.365 . S
C447 C446 1.366 1_556 S
C447 H461 0.930 . S
C448 C445 1.378 1_556 S
C448 N449 1.315 . S
C448 H451 0.930 . S
N449 Co429 2.194 . S
N449 C444 1.328 . S
N449 C448 1.315 . S
H450 C444 0.929 . S
H451 C448 0.930 . S
H452 C440 0.929 . S
H453 C442 0.929 . S
O454 Co429 2.351 . S
O454 C457 1.244 . S
O455 Co429 2.155 . S
O455 C457 1.240 . S
O456 Co429 2.096 . S
O456 C437 1.247 . S
C457 O454 1.244 . S
C457 O455 1.240 . S
H458 C432 0.931 . S
H459 C441 0.931 . S
H460 C445 0.929 . S
H461 C447 0.930 . S
Co462 N466 2.148 . S
Co462 N472 2.128 . S
Co462 N482 2.194 . S
Co462 O487 2.351 . S
Co462 O488 2.155 . S
Co462 O489 2.096 . S
C463 N466 1.301 . S
C463 N467 1.328 . S
C463 H468 0.930 . S
C464 C465 1.333 . S
C464 N466 1.317 . S
C464 H469 0.930 . S
C465 C464 1.333 . S
C465 N467 1.350 . S
C465 H491 0.931 . S
N466 Co462 2.148 . S
N466 C463 1.301 . S
N466 C464 1.317 . S
N467 C463 1.328 . S
N467 C465 1.350 . S
H468 C463 0.930 . S
H469 C464 0.930 . S
C470 O471 1.224 . S
C470 O489 1.247 . S
O471 C470 1.224 . S
N472 Co462 2.128 . S
N472 C473 1.355 . S
N472 C475 1.311 . S
C473 N472 1.355 . S
C473 C474 1.363 . S
C473 H485 0.929 . S
C474 C473 1.363 . S
C474 N476 1.375 . S
C474 H492 0.931 . S
C475 N472 1.311 . S
C475 N476 1.347 . S
C475 H486 0.929 . S
N476 C474 1.375 . S
N476 C475 1.347 . S
C477 C480 1.365 . S
C477 N482 1.328 . S
C477 H483 0.929 . S
C478 C479 1.362 . S
C478 C481 1.378 1_554 S
C478 H493 0.929 . S
C479 C478 1.362 . S
C479 C480 1.366 1_554 S
C480 C477 1.365 . S
C480 C479 1.366 1_556 S
C480 H494 0.930 . S
C481 C478 1.378 1_556 S
C481 N482 1.315 . S
C481 H484 0.930 . S
N482 Co462 2.194 . S
N482 C477 1.328 . S
N482 C481 1.315 . S
H483 C477 0.929 . S
H484 C481 0.930 . S
H485 C473 0.929 . S
H486 C475 0.929 . S
O487 Co462 2.351 . S
O487 C490 1.244 . S
O488 Co462 2.155 . S
O488 C490 1.240 . S
O489 Co462 2.096 . S
O489 C470 1.247 . S
C490 O487 1.244 . S
C490 O488 1.240 . S
H491 C465 0.931 . S
H492 C474 0.931 . S
H493 C478 0.929 . S
H494 C480 0.930 . S
Co495 N499 2.148 . S
Co495 N505 2.128 . S
Co495 N515 2.194 . S
Co495 O520 2.351 . S
Co495 O521 2.155 . S
Co495 O522 2.096 . S
C496 N499 1.301 . S
C496 N500 1.328 . S
C496 H501 0.930 . S
C497 C498 1.333 . S
C497 N499 1.317 . S
C497 H502 0.930 . S
C498 C497 1.333 . S
C498 N500 1.350 . S
C498 H524 0.931 . S
N499 Co495 2.148 . S
N499 C496 1.301 . S
N499 C497 1.317 . S
N500 C496 1.328 . S
N500 C498 1.350 . S
H501 C496 0.930 . S
H502 C497 0.930 . S
C503 O504 1.224 . S
C503 O522 1.247 . S
O504 C503 1.224 . S
N505 Co495 2.128 . S
N505 C506 1.355 . S
N505 C508 1.311 . S
C506 N505 1.355 . S
C506 C507 1.363 . S
C506 H518 0.929 . S
C507 C506 1.363 . S
C507 N509 1.375 . S
C507 H525 0.931 . S
C508 N505 1.311 . S
C508 N509 1.347 . S
C508 H519 0.929 . S
N509 C507 1.375 . S
N509 C508 1.347 . S
C510 C513 1.365 . S
C510 N515 1.328 . S
C510 H516 0.929 . S
C511 C512 1.362 . S
C511 C514 1.378 . S
C511 H526 0.929 . S
C512 C511 1.362 . S
C512 C513 1.366 . S
C513 C510 1.365 . S
C513 C512 1.366 . S
C513 H527 0.930 . S
C514 C511 1.378 . S
C514 N515 1.315 . S
C514 H517 0.930 . S
N515 Co495 2.194 . S
N515 C510 1.328 . S
N515 C514 1.315 . S
H516 C510 0.929 . S
H517 C514 0.930 . S
H518 C506 0.929 . S
H519 C508 0.929 . S
O520 Co495 2.351 . S
O520 C523 1.244 . S
O521 Co495 2.155 . S
O521 C523 1.240 . S
O522 Co495 2.096 . S
O522 C503 1.247 . S
C523 O520 1.244 . S
C523 O521 1.240 . S
H524 C498 0.931 . S
H525 C507 0.931 . S
H526 C511 0.929 . S
H527 C513 0.930 . S
Co528 N532 2.148 . S
Co528 N538 2.128 . S
Co528 N548 2.194 . S
Co528 O553 2.351 . S
Co528 O554 2.155 . S
Co528 O555 2.096 . S
C529 N532 1.301 . S
C529 N533 1.328 . S
C529 H534 0.930 . S
C530 C531 1.333 . S
C530 N532 1.317 . S
C530 H535 0.930 . S
C531 C530 1.333 . S
C531 N533 1.350 . S
C531 H557 0.931 . S
N532 Co528 2.148 . S
N532 C529 1.301 . S
N532 C530 1.317 . S
N533 C529 1.328 . S
N533 C531 1.350 . S
H534 C529 0.930 . S
H535 C530 0.930 . S
C536 O537 1.224 . S
C536 O555 1.247 . S
O537 C536 1.224 . S
N538 Co528 2.128 . S
N538 C539 1.355 . S
N538 C541 1.311 . S
C539 N538 1.355 . S
C539 C540 1.363 . S
C539 H551 0.929 . S
C540 C539 1.363 . S
C540 N542 1.375 . S
C540 H558 0.931 . S
C541 N538 1.311 . S
C541 N542 1.347 . S
C541 H552 0.929 . S
N542 C540 1.375 . S
N542 C541 1.347 . S
C543 C546 1.365 . S
C543 N548 1.328 . S
C543 H549 0.929 . S
C544 C545 1.362 . S
C544 C547 1.378 . S
C544 H559 0.929 . S
C545 C544 1.362 . S
C545 C546 1.366 . S
C546 C543 1.365 . S
C546 C545 1.366 . S
C546 H560 0.930 . S
C547 C544 1.378 . S
C547 N548 1.315 . S
C547 H550 0.930 . S
N548 Co528 2.194 . S
N548 C543 1.328 . S
N548 C547 1.315 . S
H549 C543 0.929 . S
H550 C547 0.930 . S
H551 C539 0.929 . S
H552 C541 0.929 . S
O553 Co528 2.351 . S
O553 C556 1.244 . S
O554 Co528 2.155 . S
O554 C556 1.240 . S
O555 Co528 2.096 . S
O555 C536 1.247 . S
C556 O553 1.244 . S
C556 O554 1.240 . S
H557 C531 0.931 . S
H558 C540 0.931 . S
H559 C544 0.929 . S
H560 C546 0.930 . S
Co561 N565 2.148 . S
Co561 N571 2.128 . S
Co561 N581 2.194 . S
Co561 O586 2.351 . S
Co561 O587 2.155 . S
Co561 O588 2.096 . S
C562 N565 1.301 . S
C562 N566 1.328 . S
C562 H567 0.930 . S
C563 C564 1.333 . S
C563 N565 1.317 . S
C563 H568 0.930 . S
C564 C563 1.333 . S
C564 N566 1.350 . S
C564 H590 0.931 . S
N565 Co561 2.148 . S
N565 C562 1.301 . S
N565 C563 1.317 . S
N566 C562 1.328 . S
N566 C564 1.350 . S
H567 C562 0.930 . S
H568 C563 0.930 . S
C569 O570 1.224 . S
C569 O588 1.247 . S
O570 C569 1.224 . S
N571 Co561 2.128 . S
N571 C572 1.355 . S
N571 C574 1.311 . S
C572 N571 1.355 . S
C572 C573 1.363 . S
C572 H584 0.929 . S
C573 C572 1.363 . S
C573 N575 1.375 . S
C573 H591 0.931 . S
C574 N571 1.311 . S
C574 N575 1.347 . S
C574 H585 0.929 . S
N575 C573 1.375 . S
N575 C574 1.347 . S
C576 C579 1.365 . S
C576 N581 1.328 . S
C576 H582 0.929 . S
C577 C578 1.362 . S
C577 C580 1.378 . S
C577 H592 0.929 . S
C578 C577 1.362 . S
C578 C579 1.366 . S
C579 C576 1.365 . S
C579 C578 1.366 . S
C579 H593 0.930 . S
C580 C577 1.378 . S
C580 N581 1.315 . S
C580 H583 0.930 . S
N581 Co561 2.194 . S
N581 C576 1.328 . S
N581 C580 1.315 . S
H582 C576 0.929 . S
H583 C580 0.930 . S
H584 C572 0.929 . S
H585 C574 0.929 . S
O586 Co561 2.351 . S
O586 C589 1.244 . S
O587 Co561 2.155 . S
O587 C589 1.240 . S
O588 Co561 2.096 . S
O588 C569 1.247 . S
C589 O586 1.244 . S
C589 O587 1.240 . S
H590 C564 0.931 . S
H591 C573 0.931 . S
H592 C577 0.929 . S
H593 C579 0.930 . S
C594 C595 1.363 . S
C594 C600 1.379 . S
C594 N602 1.356 . S
C595 C594 1.363 . S
C595 C601 1.363 . S
C596 C597 1.363 . S
C596 C601 1.379 . S
C596 N603 1.356 . S
C597 C596 1.363 . S
C597 C600 1.363 . S
N598 C600 1.356 . S
N598 H610 0.984 . S
N598 H611 0.985 . S
N599 C601 1.356 . S
N599 H604 0.984 . S
N599 H605 0.985 . S
C600 C594 1.379 . S
C600 C597 1.363 . S
C600 N598 1.356 . S
C601 C595 1.363 . S
C601 C596 1.379 . S
C601 N599 1.356 . S
N602 C594 1.356 . S
N602 H608 0.984 . S
N602 H609 0.984 . S
N603 C596 1.356 . S
N603 H606 0.984 . S
N603 H607 0.985 . S
H604 N599 0.984 . S
H605 N599 0.985 . S
H606 N603 0.984 . S
H607 N603 0.985 . S
H608 N602 0.984 . S
H609 N602 0.984 . S
H610 N598 0.984 . S
H611 N598 0.985 . S
C612 C613 1.368 . S
C612 C618 1.358 1_565 S
C612 N620 1.376 . S
C613 C612 1.368 . S
C613 C619 1.373 . S
C614 C615 1.363 . S
C614 C619 1.367 1_545 S
C614 N621 1.356 . S
C615 C614 1.363 . S
C615 C618 1.363 . S
N616 C618 1.356 . S
N616 H628 0.984 . S
N616 H629 0.985 . S
N617 C619 1.362 . S
N617 H622 0.984 . S
N617 H623 0.985 . S
C618 C612 1.358 1_545 S
C618 C615 1.363 . S
C618 N616 1.356 . S
C619 C613 1.373 . S
C619 C614 1.367 1_565 S
C619 N617 1.362 . S
N620 C612 1.376 . S
N620 H626 0.984 . S
N620 H627 0.984 . S
N621 C614 1.356 . S
N621 H624 0.984 . S
N621 H625 0.985 . S
H622 N617 0.984 . S
H623 N617 0.985 . S
H624 N621 0.984 . S
H625 N621 0.985 . S
H626 N620 0.984 . S
H627 N620 0.984 . S
H628 N616 0.984 . S
H629 N616 0.985 . S
C630 C631 1.363 . S
C630 C636 1.379 . S
C630 N638 1.356 . S
C631 C630 1.363 . S
C631 C637 1.363 . S
C632 C633 1.363 . S
C632 C637 1.379 1_455 S
C632 N639 1.356 . S
C633 C632 1.363 . S
C633 C636 1.363 1_455 S
N634 C636 1.356 1_455 S
N634 H646 0.984 . S
N634 H647 0.985 . S
N635 C637 1.356 . S
N635 H640 0.984 . S
N635 H641 0.985 . S
C636 C630 1.379 . S
C636 C633 1.363 1_655 S
C636 N634 1.356 1_655 S
C637 C631 1.363 . S
C637 C632 1.379 1_655 S
C637 N635 1.356 . S
N638 C630 1.356 . S
N638 H644 0.984 . S
N638 H645 0.984 . S
N639 C632 1.356 . S
N639 H642 0.984 . S
N639 H643 0.985 . S
H640 N635 0.984 . S
H641 N635 0.985 . S
H642 N639 0.984 . S
H643 N639 0.985 . S
H644 N638 0.984 . S
H645 N638 0.984 . S
H646 N634 0.984 . S
H647 N634 0.985 . S
C648 C649 1.363 . S
C648 C654 1.379 . S
C648 N656 1.356 . S
C649 C648 1.363 . S
C649 C655 1.363 . S
C650 C651 1.363 . S
C650 C655 1.379 . S
C650 N657 1.356 . S
C651 C650 1.363 . S
C651 C654 1.363 . S
N652 C654 1.356 . S
N652 H664 0.984 . S
N652 H665 0.985 . S
N653 C655 1.356 . S
N653 H658 0.984 . S
N653 H659 0.985 . S
C654 C648 1.379 . S
C654 C651 1.363 . S
C654 N652 1.356 . S
C655 C649 1.363 . S
C655 C650 1.379 . S
C655 N653 1.356 . S
N656 C648 1.356 . S
N656 H662 0.984 . S
N656 H663 0.984 . S
N657 C650 1.356 . S
N657 H660 0.984 . S
N657 H661 0.985 . S
H658 N653 0.984 . S
H659 N653 0.985 . S
H660 N657 0.984 . S
H661 N657 0.985 . S
H662 N656 0.984 . S
H663 N656 0.984 . S
H664 N652 0.984 . S
H665 N652 0.985 . S
C666 C667 1.376 . S
C666 C672 1.363 1_545 S
C666 N674 1.364 . S
C667 C666 1.376 . S
C667 C673 1.364 . S
C668 C669 1.363 . S
C668 C673 1.375 1_565 S
C668 N675 1.356 . S
C669 C668 1.363 . S
C669 C672 1.363 . S
N670 C672 1.356 . S
N670 H682 0.984 . S
N670 H683 0.985 . S
N671 C673 1.360 . S
N671 H676 0.984 . S
N671 H677 0.985 . S
C672 C666 1.363 1_565 S
C672 C669 1.363 . S
C672 N670 1.356 . S
C673 C667 1.364 . S
C673 C668 1.375 1_545 S
C673 N671 1.360 . S
N674 C666 1.364 . S
N674 H680 0.984 . S
N674 H681 0.984 . S
N675 C668 1.356 . S
N675 H678 0.984 . S
N675 H679 0.985 . S
H676 N671 0.984 . S
H677 N671 0.985 . S
H678 N675 0.984 . S
H679 N675 0.985 . S
H680 N674 0.984 . S
H681 N674 0.984 . S
H682 N670 0.984 . S
H683 N670 0.985 . S
C684 C685 1.363 . S
C684 C690 1.379 1_455 S
C684 N692 1.356 . S
C685 C684 1.363 . S
C685 C691 1.363 . S
C686 C687 1.363 1_455 S
C686 C691 1.379 . S
C686 N693 1.356 1_455 S
C687 C686 1.363 1_655 S
C687 C690 1.363 . S
N688 C690 1.356 . S
N688 H700 0.984 . S
N688 H701 0.985 . S
N689 C691 1.356 . S
N689 H694 0.984 . S
N689 H695 0.985 . S
C690 C684 1.379 1_655 S
C690 C687 1.363 . S
C690 N688 1.356 . S
C691 C685 1.363 . S
C691 C686 1.379 . S
C691 N689 1.356 . S
N692 C684 1.356 . S
N692 H698 0.984 . S
N692 H699 0.984 . S
N693 C686 1.356 1_655 S
N693 H696 0.984 . S
N693 H697 0.985 . S
H694 N689 0.984 . S
H695 N689 0.985 . S
H696 N693 0.984 . S
H697 N693 0.985 . S
H698 N692 0.984 . S
H699 N692 0.984 . S
H700 N688 0.984 . S
H701 N688 0.985 . S
C702 C703 1.363 . S
C702 C708 1.379 . S
C702 N710 1.356 . S
C703 C702 1.363 . S
C703 C709 1.363 . S
C704 C705 1.363 . S
C704 C709 1.379 . S
C704 N711 1.356 . S
C705 C704 1.363 . S
C705 C708 1.363 . S
N706 C708 1.356 . S
N706 H718 0.984 . S
N706 H719 0.985 . S
N707 C709 1.356 . S
N707 H712 0.984 . S
N707 H713 0.985 . S
C708 C702 1.379 . S
C708 C705 1.363 . S
C708 N706 1.356 . S
C709 C703 1.363 . S
C709 C704 1.379 . S
C709 N707 1.356 . S
N710 C702 1.356 . S
N710 H716 0.984 . S
N710 H717 0.984 . S
N711 C704 1.356 . S
N711 H714 0.984 . S
N711 H715 0.985 . S
H712 N707 0.984 . S
H713 N707 0.985 . S
H714 N711 0.984 . S
H715 N711 0.985 . S
H716 N710 0.984 . S
H717 N710 0.984 . S
H718 N706 0.984 . S
H719 N706 0.985 . S
C720 C721 1.363 . S
C720 C726 1.379 . S
C720 N728 1.356 . S
C721 C720 1.363 . S
C721 C727 1.363 . S
C722 C723 1.363 . S
C722 C727 1.379 . S
C722 N729 1.356 . S
C723 C722 1.363 . S
C723 C726 1.363 . S
N724 C726 1.356 . S
N724 H736 0.984 . S
N724 H737 0.985 . S
N725 C727 1.356 . S
N725 H730 0.984 . S
N725 H731 0.985 . S
C726 C720 1.379 . S
C726 C723 1.363 . S
C726 N724 1.356 . S
C727 C721 1.363 . S
C727 C722 1.379 . S
C727 N725 1.356 . S
N728 C720 1.356 . S
N728 H734 0.984 . S
N728 H735 0.984 . S
N729 C722 1.356 . S
N729 H732 0.984 . S
N729 H733 0.985 . S
H730 N725 0.984 . S
H731 N725 0.985 . S
H732 N729 0.984 . S
H733 N729 0.985 . S
H734 N728 0.984 . S
H735 N728 0.984 . S
H736 N724 0.984 . S
H737 N724 0.985 . S
C738 C739 1.363 . S
C738 C744 1.379 . S
C738 N746 1.356 . S
C739 C738 1.363 . S
C739 C745 1.363 . S
C740 C741 1.363 . S
C740 C745 1.379 . S
C740 N747 1.356 . S
C741 C740 1.363 . S
C741 C744 1.363 . S
N742 C744 1.356 . S
N742 H754 0.984 . S
N742 H755 0.985 . S
N743 C745 1.356 . S
N743 H748 0.984 . S
N743 H749 0.985 . S
C744 C738 1.379 . S
C744 C741 1.363 . S
C744 N742 1.356 . S
C745 C739 1.363 . S
C745 C740 1.379 . S
C745 N743 1.356 . S
N746 C738 1.356 . S
N746 H752 0.984 . S
N746 H753 0.984 . S
N747 C740 1.356 . S
N747 H750 0.984 . S
N747 H751 0.985 . S
H748 N743 0.984 . S
H749 N743 0.985 . S
H750 N747 0.984 . S
H751 N747 0.985 . S
H752 N746 0.984 . S
H753 N746 0.984 . S
H754 N742 0.984 . S
H755 N742 0.985 . S
C756 C757 1.363 . S
C756 C762 1.379 . S
C756 N764 1.356 . S
C757 C756 1.363 . S
C757 C763 1.363 . S
C758 C759 1.363 . S
C758 C763 1.379 . S
C758 N765 1.356 . S
C759 C758 1.363 . S
C759 C762 1.363 . S
N760 C762 1.356 . S
N760 H772 0.984 . S
N760 H773 0.985 . S
N761 C763 1.356 . S
N761 H766 0.984 . S
N761 H767 0.985 . S
C762 C756 1.379 . S
C762 C759 1.363 . S
C762 N760 1.356 . S
C763 C757 1.363 . S
C763 C758 1.379 . S
C763 N761 1.356 . S
N764 C756 1.356 . S
N764 H770 0.984 . S
N764 H771 0.984 . S
N765 C758 1.356 . S
N765 H768 0.984 . S
N765 H769 0.985 . S
H766 N761 0.984 . S
H767 N761 0.985 . S
H768 N765 0.984 . S
H769 N765 0.985 . S
H770 N764 0.984 . S
H771 N764 0.984 . S
H772 N760 0.984 . S
H773 N760 0.985 . S
C774 C775 1.363 . S
C774 C780 1.379 . S
C774 N782 1.356 . S
C775 C774 1.363 . S
C775 C781 1.363 . S
C776 C777 1.363 . S
C776 C781 1.379 . S
C776 N783 1.356 . S
C777 C776 1.363 . S
C777 C780 1.363 . S
N778 C780 1.356 . S
N778 H790 0.984 . S
N778 H791 0.985 . S
N779 C781 1.356 . S
N779 H784 0.984 . S
N779 H785 0.985 . S
C780 C774 1.379 . S
C780 C777 1.363 . S
C780 N778 1.356 . S
C781 C775 1.363 . S
C781 C776 1.379 . S
C781 N779 1.356 . S
N782 C774 1.356 . S
N782 H788 0.984 . S
N782 H789 0.984 . S
N783 C776 1.356 . S
N783 H786 0.984 . S
N783 H787 0.985 . S
H784 N779 0.984 . S
H785 N779 0.985 . S
H786 N783 0.984 . S
H787 N783 0.985 . S
H788 N782 0.984 . S
H789 N782 0.984 . S
H790 N778 0.984 . S
H791 N778 0.985 . S
C792 C793 1.363 . S
C792 C798 1.379 . S
C792 N800 1.356 . S
C793 C792 1.363 . S
C793 C799 1.363 . S
C794 C795 1.363 . S
C794 C799 1.379 . S
C794 N801 1.356 . S
C795 C794 1.363 . S
C795 C798 1.363 . S
N796 C798 1.356 . S
N796 H808 0.984 . S
N796 H809 0.985 . S
N797 C799 1.356 . S
N797 H802 0.984 . S
N797 H803 0.985 . S
C798 C792 1.379 . S
C798 C795 1.363 . S
C798 N796 1.356 . S
C799 C793 1.363 . S
C799 C794 1.379 . S
C799 N797 1.356 . S
N800 C792 1.356 . S
N800 H806 0.984 . S
N800 H807 0.984 . S
N801 C794 1.356 . S
N801 H804 0.984 . S
N801 H805 0.985 . S
H802 N797 0.984 . S
H803 N797 0.985 . S
H804 N801 0.984 . S
H805 N801 0.985 . S
H806 N800 0.984 . S
H807 N800 0.984 . S
H808 N796 0.984 . S
H809 N796 0.985 . S
C810 C811 1.363 . S
C810 C816 1.379 . S
C810 N818 1.356 . S
C811 C810 1.363 . S
C811 C817 1.363 . S
C812 C813 1.363 . S
C812 C817 1.379 . S
C812 N819 1.356 . S
C813 C812 1.363 . S
C813 C816 1.363 . S
N814 C816 1.356 . S
N814 H826 0.984 . S
N814 H827 0.985 . S
N815 C817 1.356 . S
N815 H820 0.984 . S
N815 H821 0.985 . S
C816 C810 1.379 . S
C816 C813 1.363 . S
C816 N814 1.356 . S
C817 C811 1.363 . S
C817 C812 1.379 . S
C817 N815 1.356 . S
N818 C810 1.356 . S
N818 H824 0.984 . S
N818 H825 0.984 . S
N819 C812 1.356 . S
N819 H822 0.984 . S
N819 H823 0.985 . S
H820 N815 0.984 . S
H821 N815 0.985 . S
H822 N819 0.984 . S
H823 N819 0.985 . S
H824 N818 0.984 . S
H825 N818 0.984 . S
H826 N814 0.984 . S
H827 N814 0.985 . S
C828 C829 1.363 . S
C828 C834 1.379 . S
C828 N836 1.356 . S
C829 C828 1.363 . S
C829 C835 1.363 . S
C830 C831 1.363 . S
C830 C835 1.379 . S
C830 N837 1.356 . S
C831 C830 1.363 . S
C831 C834 1.363 . S
N832 C834 1.356 . S
N832 H844 0.984 . S
N832 H845 0.985 . S
N833 C835 1.356 . S
N833 H838 0.984 . S
N833 H839 0.985 . S
C834 C828 1.379 . S
C834 C831 1.363 . S
C834 N832 1.356 . S
C835 C829 1.363 . S
C835 C830 1.379 . S
C835 N833 1.356 . S
N836 C828 1.356 . S
N836 H842 0.984 . S
N836 H843 0.984 . S
N837 C830 1.356 . S
N837 H840 0.984 . S
N837 H841 0.985 . S
H838 N833 0.984 . S
H839 N833 0.985 . S
H840 N837 0.984 . S
H841 N837 0.985 . S
H842 N836 0.984 . S
H843 N836 0.984 . S
H844 N832 0.984 . S
H845 N832 0.985 . S
C846 C847 1.363 . S
C846 C852 1.379 . S
C846 N854 1.356 . S
C847 C846 1.363 . S
C847 C853 1.363 . S
C848 C849 1.363 . S
C848 C853 1.379 . S
C848 N855 1.356 . S
C849 C848 1.363 . S
C849 C852 1.363 . S
N850 C852 1.356 . S
N850 H862 0.984 . S
N850 H863 0.985 . S
N851 C853 1.356 . S
N851 H856 0.984 . S
N851 H857 0.985 . S
C852 C846 1.379 . S
C852 C849 1.363 . S
C852 N850 1.356 . S
C853 C847 1.363 . S
C853 C848 1.379 . S
C853 N851 1.356 . S
N854 C846 1.356 . S
N854 H860 0.984 . S
N854 H861 0.984 . S
N855 C848 1.356 . S
N855 H858 0.984 . S
N855 H859 0.985 . S
H856 N851 0.984 . S
H857 N851 0.985 . S
H858 N855 0.984 . S
H859 N855 0.985 . S
H860 N854 0.984 . S
H861 N854 0.984 . S
H862 N850 0.984 . S
H863 N850 0.985 . S
C864 C865 1.363 . S
C864 C870 1.379 . S
C864 N872 1.356 . S
C865 C864 1.363 . S
C865 C871 1.363 . S
C866 C867 1.363 . S
C866 C871 1.379 . S
C866 N873 1.356 . S
C867 C866 1.363 . S
C867 C870 1.363 . S
N868 C870 1.356 . S
N868 H880 0.984 . S
N868 H881 0.985 . S
N869 C871 1.356 . S
N869 H874 0.984 . S
N869 H875 0.985 . S
C870 C864 1.379 . S
C870 C867 1.363 . S
C870 N868 1.356 . S
C871 C865 1.363 . S
C871 C866 1.379 . S
C871 N869 1.356 . S
N872 C864 1.356 . S
N872 H878 0.984 . S
N872 H879 0.984 . S
N873 C866 1.356 . S
N873 H876 0.984 . S
N873 H877 0.985 . S
H874 N869 0.984 . S
H875 N869 0.985 . S
H876 N873 0.984 . S
H877 N873 0.985 . S
H878 N872 0.984 . S
H879 N872 0.984 . S
H880 N868 0.984 . S
H881 N868 0.985 . S
C882 C883 1.363 . S
C882 C888 1.379 . S
C882 N890 1.356 . S
C883 C882 1.363 . S
C883 C889 1.363 . S
C884 C885 1.363 . S
C884 C889 1.379 . S
C884 N891 1.356 . S
C885 C884 1.363 . S
C885 C888 1.363 . S
N886 C888 1.356 . S
N886 H898 0.984 . S
N886 H899 0.985 . S
N887 C889 1.356 . S
N887 H892 0.984 . S
N887 H893 0.985 . S
C888 C882 1.379 . S
C888 C885 1.363 . S
C888 N886 1.356 . S
C889 C883 1.363 . S
C889 C884 1.379 . S
C889 N887 1.356 . S
N890 C882 1.356 . S
N890 H896 0.984 . S
N890 H897 0.984 . S
N891 C884 1.356 . S
N891 H894 0.984 . S
N891 H895 0.985 . S
H892 N887 0.984 . S
H893 N887 0.985 . S
H894 N891 0.984 . S
H895 N891 0.985 . S
H896 N890 0.984 . S
H897 N890 0.984 . S
H898 N886 0.984 . S
H899 N886 0.985 . S
C900 C901 1.363 . S
C900 C906 1.379 . S
C900 N908 1.356 . S
C901 C900 1.363 . S
C901 C907 1.363 . S
C902 C903 1.363 . S
C902 C907 1.379 . S
C902 N909 1.356 . S
C903 C902 1.363 . S
C903 C906 1.363 . S
N904 C906 1.356 . S
N904 H916 0.984 . S
N904 H917 0.985 . S
N905 C907 1.356 . S
N905 H910 0.984 . S
N905 H911 0.985 . S
C906 C900 1.379 . S
C906 C903 1.363 . S
C906 N904 1.356 . S
C907 C901 1.363 . S
C907 C902 1.379 . S
C907 N905 1.356 . S
N908 C900 1.356 . S
N908 H914 0.984 . S
N908 H915 0.984 . S
N909 C902 1.356 . S
N909 H912 0.984 . S
N909 H913 0.985 . S
H910 N905 0.984 . S
H911 N905 0.985 . S
H912 N909 0.984 . S
H913 N909 0.985 . S
H914 N908 0.984 . S
H915 N908 0.984 . S
H916 N904 0.984 . S
H917 N904 0.985 . S
C918 C919 1.363 . S
C918 C924 1.379 . S
C918 N926 1.356 . S
C919 C918 1.363 . S
C919 C925 1.363 . S
C920 C921 1.363 . S
C920 C925 1.379 . S
C920 N927 1.356 . S
C921 C920 1.363 . S
C921 C924 1.363 . S
N922 C924 1.356 . S
N922 H934 0.984 . S
N922 H935 0.985 . S
N923 C925 1.356 . S
N923 H928 0.984 . S
N923 H929 0.985 . S
C924 C918 1.379 . S
C924 C921 1.363 . S
C924 N922 1.356 . S
C925 C919 1.363 . S
C925 C920 1.379 . S
C925 N923 1.356 . S
N926 C918 1.356 . S
N926 H932 0.984 . S
N926 H933 0.984 . S
N927 C920 1.356 . S
N927 H930 0.984 . S
N927 H931 0.985 . S
H928 N923 0.984 . S
H929 N923 0.985 . S
H930 N927 0.984 . S
H931 N927 0.985 . S
H932 N926 0.984 . S
H933 N926 0.984 . S
H934 N922 0.984 . S
H935 N922 0.985 . S
C936 C937 1.363 . S
C936 C942 1.379 . S
C936 N944 1.356 . S
C937 C936 1.363 . S
C937 C943 1.363 . S
C938 C939 1.363 . S
C938 C943 1.379 . S
C938 N945 1.356 . S
C939 C938 1.363 . S
C939 C942 1.363 . S
N940 C942 1.356 . S
N940 H952 0.984 . S
N940 H953 0.985 . S
N941 C943 1.356 . S
N941 H946 0.984 . S
N941 H947 0.985 . S
C942 C936 1.379 . S
C942 C939 1.363 . S
C942 N940 1.356 . S
C943 C937 1.363 . S
C943 C938 1.379 . S
C943 N941 1.356 . S
N944 C936 1.356 . S
N944 H950 0.984 . S
N944 H951 0.984 . S
N945 C938 1.356 . S
N945 H948 0.984 . S
N945 H949 0.985 . S
H946 N941 0.984 . S
H947 N941 0.985 . S
H948 N945 0.984 . S
H949 N945 0.985 . S
H950 N944 0.984 . S
H951 N944 0.984 . S
H952 N940 0.984 . S
H953 N940 0.985 . S
C954 C955 1.363 . S
C954 C960 1.379 . S
C954 N962 1.356 . S
C955 C954 1.363 . S
C955 C961 1.363 . S
C956 C957 1.363 . S
C956 C961 1.379 . S
C956 N963 1.356 . S
C957 C956 1.363 . S
C957 C960 1.363 . S
N958 C960 1.356 . S
N958 H970 0.984 . S
N958 H971 0.985 . S
N959 C961 1.356 . S
N959 H964 0.984 . S
N959 H965 0.985 . S
C960 C954 1.379 . S
C960 C957 1.363 . S
C960 N958 1.356 . S
C961 C955 1.363 . S
C961 C956 1.379 . S
C961 N959 1.356 . S
N962 C954 1.356 . S
N962 H968 0.984 . S
N962 H969 0.984 . S
N963 C956 1.356 . S
N963 H966 0.984 . S
N963 H967 0.985 . S
H964 N959 0.984 . S
H965 N959 0.985 . S
H966 N963 0.984 . S
H967 N963 0.985 . S
H968 N962 0.984 . S
H969 N962 0.984 . S
H970 N958 0.984 . S
H971 N958 0.985 . S
C972 C973 1.363 . S
C972 C978 1.379 . S
C972 N980 1.356 . S
C973 C972 1.363 . S
C973 C979 1.363 . S
C974 C975 1.363 . S
C974 C979 1.379 . S
C974 N981 1.356 . S
C975 C974 1.363 . S
C975 C978 1.363 . S
N976 C978 1.356 . S
N976 H988 0.984 . S
N976 H989 0.985 . S
N977 C979 1.356 . S
N977 H982 0.984 . S
N977 H983 0.985 . S
C978 C972 1.379 . S
C978 C975 1.363 . S
C978 N976 1.356 . S
C979 C973 1.363 . S
C979 C974 1.379 . S
C979 N977 1.356 . S
N980 C972 1.356 . S
N980 H986 0.984 . S
N980 H987 0.984 . S
N981 C974 1.356 . S
N981 H984 0.984 . S
N981 H985 0.985 . S
H982 N977 0.984 . S
H983 N977 0.985 . S
H984 N981 0.984 . S
H985 N981 0.985 . S
H986 N980 0.984 . S
H987 N980 0.984 . S
H988 N976 0.984 . S
H989 N976 0.985 . S
C990 C991 1.363 . S
C990 C996 1.379 . S
C990 N998 1.356 . S
C991 C990 1.363 . S
C991 C997 1.363 . S
C992 C993 1.363 . S
C992 C997 1.379 . S
C992 N999 1.356 . S
C993 C992 1.363 . S
C993 C996 1.363 . S
N994 C996 1.356 . S
N994 H1006 0.984 . S
N994 H1007 0.985 . S
N995 C997 1.356 . S
N995 H1000 0.984 . S
N995 H1001 0.985 . S
C996 C990 1.379 . S
C996 C993 1.363 . S
C996 N994 1.356 . S
C997 C991 1.363 . S
C997 C992 1.379 . S
C997 N995 1.356 . S
N998 C990 1.356 . S
N998 H1004 0.984 . S
N998 H1005 0.984 . S
N999 C992 1.356 . S
N999 H1002 0.984 . S
N999 H1003 0.985 . S
H1000 N995 0.984 . S
H1001 N995 0.985 . S
H1002 N999 0.984 . S
H1003 N999 0.985 . S
H1004 N998 0.984 . S
H1005 N998 0.984 . S
H1006 N994 0.984 . S
H1007 N994 0.985 . S
C1008 C1009 1.363 . S
C1008 C1014 1.379 . S
C1008 N1016 1.356 . S
C1009 C1008 1.363 . S
C1009 C1015 1.363 . S
C1010 C1011 1.363 . S
C1010 C1015 1.379 . S
C1010 N1017 1.356 . S
C1011 C1010 1.363 . S
C1011 C1014 1.363 . S
N1012 C1014 1.356 . S
N1012 H1024 0.984 . S
N1012 H1025 0.985 . S
N1013 C1015 1.356 . S
N1013 H1018 0.984 . S
N1013 H1019 0.985 . S
C1014 C1008 1.379 . S
C1014 C1011 1.363 . S
C1014 N1012 1.356 . S
C1015 C1009 1.363 . S
C1015 C1010 1.379 . S
C1015 N1013 1.356 . S
N1016 C1008 1.356 . S
N1016 H1022 0.984 . S
N1016 H1023 0.984 . S
N1017 C1010 1.356 . S
N1017 H1020 0.984 . S
N1017 H1021 0.985 . S
H1018 N1013 0.984 . S
H1019 N1013 0.985 . S
H1020 N1017 0.984 . S
H1021 N1017 0.985 . S
H1022 N1016 0.984 . S
H1023 N1016 0.984 . S
H1024 N1012 0.984 . S
H1025 N1012 0.985 . S
C1026 C1027 1.363 . S
C1026 C1032 1.379 1_655 S
C1026 N1034 1.356 . S
C1027 C1026 1.363 . S
C1027 C1033 1.363 . S
C1028 C1029 1.363 . S
C1028 C1033 1.379 1_455 S
C1028 N1035 1.356 . S
C1029 C1028 1.363 . S
C1029 C1032 1.363 . S
N1030 C1032 1.356 . S
N1030 H1042 0.984 . S
N1030 H1043 0.985 . S
N1031 C1033 1.356 . S
N1031 H1036 0.984 . S
N1031 H1037 0.985 . S
C1032 C1026 1.379 1_455 S
C1032 C1029 1.363 . S
C1032 N1030 1.356 . S
C1033 C1027 1.363 . S
C1033 C1028 1.379 1_655 S
C1033 N1031 1.356 . S
N1034 C1026 1.356 . S
N1034 H1040 0.984 . S
N1034 H1041 0.984 . S
N1035 C1028 1.356 . S
N1035 H1038 0.984 . S
N1035 H1039 0.985 . S
H1036 N1031 0.984 . S
H1037 N1031 0.985 . S
H1038 N1035 0.984 . S
H1039 N1035 0.985 . S
H1040 N1034 0.984 . S
H1041 N1034 0.984 . S
H1042 N1030 0.984 . S
H1043 N1030 0.985 . S
C1044 C1045 1.363 . S
C1044 C1050 1.379 . S
C1044 N1052 1.356 . S
C1045 C1044 1.363 . S
C1045 C1051 1.363 . S
C1046 C1047 1.363 . S
C1046 C1051 1.379 . S
C1046 N1053 1.356 . S
C1047 C1046 1.363 . S
C1047 C1050 1.363 . S
N1048 C1050 1.356 . S
N1048 H1060 0.984 . S
N1048 H1061 0.985 . S
N1049 C1051 1.356 . S
N1049 H1054 0.984 . S
N1049 H1055 0.985 . S
C1050 C1044 1.379 . S
C1050 C1047 1.363 . S
C1050 N1048 1.356 . S
C1051 C1045 1.363 . S
C1051 C1046 1.379 . S
C1051 N1049 1.356 . S
N1052 C1044 1.356 . S
N1052 H1058 0.984 . S
N1052 H1059 0.984 . S
N1053 C1046 1.356 . S
N1053 H1056 0.984 . S
N1053 H1057 0.985 . S
H1054 N1049 0.984 . S
H1055 N1049 0.985 . S
H1056 N1053 0.984 . S
H1057 N1053 0.985 . S
H1058 N1052 0.984 . S
H1059 N1052 0.984 . S
H1060 N1048 0.984 . S
H1061 N1048 0.985 . S
C1062 C1063 1.363 . S
C1062 C1068 1.379 1_565 S
C1062 N1070 1.356 . S
C1063 C1062 1.363 . S
C1063 C1069 1.363 . S
C1064 C1065 1.363 . S
C1064 C1069 1.379 1_545 S
C1064 N1071 1.356 . S
C1065 C1064 1.363 . S
C1065 C1068 1.363 . S
N1066 C1068 1.356 . S
N1066 H1078 0.984 . S
N1066 H1079 0.985 . S
N1067 C1069 1.356 . S
N1067 H1072 0.984 . S
N1067 H1073 0.985 . S
C1068 C1062 1.379 1_545 S
C1068 C1065 1.363 . S
C1068 N1066 1.356 . S
C1069 C1063 1.363 . S
C1069 C1064 1.379 1_565 S
C1069 N1067 1.356 . S
N1070 C1062 1.356 . S
N1070 H1076 0.984 . S
N1070 H1077 0.984 . S
N1071 C1064 1.356 . S
N1071 H1074 0.984 . S
N1071 H1075 0.985 . S
H1072 N1067 0.984 . S
H1073 N1067 0.985 . S
H1074 N1071 0.984 . S
H1075 N1071 0.985 . S
H1076 N1070 0.984 . S
H1077 N1070 0.984 . S
H1078 N1066 0.984 . S
H1079 N1066 0.985 . S
C1080 C1081 1.363 . S
C1080 C1086 1.379 . S
C1080 N1088 1.356 . S
C1081 C1080 1.363 . S
C1081 C1087 1.363 1_565 S
C1082 C1083 1.363 . S
C1082 C1087 1.379 . S
C1082 N1089 1.356 . S
C1083 C1082 1.363 . S
C1083 C1086 1.363 1_545 S
N1084 C1086 1.356 . S
N1084 H1096 0.984 . S
N1084 H1097 0.985 1_565 S
N1085 C1087 1.356 . S
N1085 H1090 0.984 1_545 S
N1085 H1091 0.985 . S
C1086 C1080 1.379 . S
C1086 C1083 1.363 1_565 S
C1086 N1084 1.356 . S
C1087 C1081 1.363 1_545 S
C1087 C1082 1.379 . S
C1087 N1085 1.356 . S
N1088 C1080 1.356 . S
N1088 H1094 0.984 . S
N1088 H1095 0.984 . S
N1089 C1082 1.356 . S
N1089 H1092 0.984 . S
N1089 H1093 0.985 . S
H1090 N1085 0.984 1_565 S
H1091 N1085 0.985 . S
H1092 N1089 0.984 . S
H1093 N1089 0.985 . S
H1094 N1088 0.984 . S
H1095 N1088 0.984 . S
H1096 N1084 0.984 . S
H1097 N1084 0.985 1_545 S
C1098 C1099 1.363 . S
C1098 C1104 1.379 1_655 S
C1098 N1106 1.356 . S
C1099 C1098 1.363 . S
C1099 C1105 1.363 . S
C1100 C1101 1.363 . S
C1100 C1105 1.379 1_455 S
C1100 N1107 1.356 . S
C1101 C1100 1.363 . S
C1101 C1104 1.363 . S
N1102 C1104 1.356 . S
N1102 H1114 0.984 . S
N1102 H1115 0.985 . S
N1103 C1105 1.356 . S
N1103 H1108 0.984 . S
N1103 H1109 0.985 . S
C1104 C1098 1.379 1_455 S
C1104 C1101 1.363 . S
C1104 N1102 1.356 . S
C1105 C1099 1.363 . S
C1105 C1100 1.379 1_655 S
C1105 N1103 1.356 . S
N1106 C1098 1.356 . S
N1106 H1112 0.984 . S
N1106 H1113 0.984 . S
N1107 C1100 1.356 . S
N1107 H1110 0.984 . S
N1107 H1111 0.985 . S
H1108 N1103 0.984 . S
H1109 N1103 0.985 . S
H1110 N1107 0.984 . S
H1111 N1107 0.985 . S
H1112 N1106 0.984 . S
H1113 N1106 0.984 . S
H1114 N1102 0.984 . S
H1115 N1102 0.985 . S
C1116 C1117 1.363 . S
C1116 C1122 1.379 . S
C1116 N1124 1.356 . S
C1117 C1116 1.363 . S
C1117 C1123 1.363 . S
C1118 C1119 1.363 . S
C1118 C1123 1.379 . S
C1118 N1125 1.356 . S
C1119 C1118 1.363 . S
C1119 C1122 1.363 . S
N1120 C1122 1.356 . S
N1120 H1132 0.984 . S
N1120 H1133 0.985 . S
N1121 C1123 1.356 . S
N1121 H1126 0.984 . S
N1121 H1127 0.985 . S
C1122 C1116 1.379 . S
C1122 C1119 1.363 . S
C1122 N1120 1.356 . S
C1123 C1117 1.363 . S
C1123 C1118 1.379 . S
C1123 N1121 1.356 . S
N1124 C1116 1.356 . S
N1124 H1130 0.984 . S
N1124 H1131 0.984 . S
N1125 C1118 1.356 . S
N1125 H1128 0.984 . S
N1125 H1129 0.985 . S
H1126 N1121 0.984 . S
H1127 N1121 0.985 . S
H1128 N1125 0.984 . S
H1129 N1125 0.985 . S
H1130 N1124 0.984 . S
H1131 N1124 0.984 . S
H1132 N1120 0.984 . S
H1133 N1120 0.985 . S
C1134 C1135 1.363 . S
C1134 C1140 1.379 . S
C1134 N1142 1.356 . S
C1135 C1134 1.363 . S
C1135 C1141 1.363 . S
C1136 C1137 1.363 . S
C1136 C1141 1.379 . S
C1136 N1143 1.356 . S
C1137 C1136 1.363 . S
C1137 C1140 1.363 . S
N1138 C1140 1.356 . S
N1138 H1150 0.984 . S
N1138 H1151 0.985 . S
N1139 C1141 1.356 . S
N1139 H1144 0.984 . S
N1139 H1145 0.985 . S
C1140 C1134 1.379 . S
C1140 C1137 1.363 . S
C1140 N1138 1.356 . S
C1141 C1135 1.363 . S
C1141 C1136 1.379 . S
C1141 N1139 1.356 . S
N1142 C1134 1.356 . S
N1142 H1148 0.984 . S
N1142 H1149 0.984 . S
N1143 C1136 1.356 . S
N1143 H1146 0.984 . S
N1143 H1147 0.985 . S
H1144 N1139 0.984 . S
H1145 N1139 0.985 . S
H1146 N1143 0.984 . S
H1147 N1143 0.985 . S
H1148 N1142 0.984 . S
H1149 N1142 0.984 . S
H1150 N1138 0.984 . S
H1151 N1138 0.985 . S
C1152 C1153 1.363 . S
C1152 C1158 1.379 . S
C1152 N1160 1.356 . S
C1153 C1152 1.363 . S
C1153 C1159 1.363 . S
C1154 C1155 1.363 . S
C1154 C1159 1.379 . S
C1154 N1161 1.356 . S
C1155 C1154 1.363 . S
C1155 C1158 1.363 . S
N1156 C1158 1.356 . S
N1156 H1168 0.984 . S
N1156 H1169 0.985 . S
N1157 C1159 1.356 . S
N1157 H1162 0.984 . S
N1157 H1163 0.985 . S
C1158 C1152 1.379 . S
C1158 C1155 1.363 . S
C1158 N1156 1.356 . S
C1159 C1153 1.363 . S
C1159 C1154 1.379 . S
C1159 N1157 1.356 . S
N1160 C1152 1.356 . S
N1160 H1166 0.984 . S
N1160 H1167 0.984 . S
N1161 C1154 1.356 . S
N1161 H1164 0.984 . S
N1161 H1165 0.985 . S
H1162 N1157 0.984 . S
H1163 N1157 0.985 . S
H1164 N1161 0.984 . S
H1165 N1161 0.985 . S
H1166 N1160 0.984 . S
H1167 N1160 0.984 . S
H1168 N1156 0.984 . S
H1169 N1156 0.985 . S
C1170 C1171 1.363 . S
C1170 C1176 1.379 . S
C1170 N1178 1.356 . S
C1171 C1170 1.363 . S
C1171 C1177 1.363 . S
C1172 C1173 1.363 . S
C1172 C1177 1.379 . S
C1172 N1179 1.356 . S
C1173 C1172 1.363 . S
C1173 C1176 1.363 . S
N1174 C1176 1.356 . S
N1174 H1186 0.984 . S
N1174 H1187 0.985 . S
N1175 C1177 1.356 . S
N1175 H1180 0.984 . S
N1175 H1181 0.985 . S
C1176 C1170 1.379 . S
C1176 C1173 1.363 . S
C1176 N1174 1.356 . S
C1177 C1171 1.363 . S
C1177 C1172 1.379 . S
C1177 N1175 1.356 . S
N1178 C1170 1.356 . S
N1178 H1184 0.984 . S
N1178 H1185 0.984 . S
N1179 C1172 1.356 . S
N1179 H1182 0.984 . S
N1179 H1183 0.985 . S
H1180 N1175 0.984 . S
H1181 N1175 0.985 . S
H1182 N1179 0.984 . S
H1183 N1179 0.985 . S
H1184 N1178 0.984 . S
H1185 N1178 0.984 . S
H1186 N1174 0.984 . S
H1187 N1174 0.985 . S
C1188 C1189 1.363 . S
C1188 C1194 1.379 . S
C1188 N1196 1.356 . S
C1189 C1188 1.363 . S
C1189 C1195 1.363 . S
C1190 C1191 1.363 . S
C1190 C1195 1.379 . S
C1190 N1197 1.356 . S
C1191 C1190 1.363 . S
C1191 C1194 1.363 . S
N1192 C1194 1.356 . S
N1192 H1204 0.984 . S
N1192 H1205 0.985 . S
N1193 C1195 1.356 . S
N1193 H1198 0.984 . S
N1193 H1199 0.985 . S
C1194 C1188 1.379 . S
C1194 C1191 1.363 . S
C1194 N1192 1.356 . S
C1195 C1189 1.363 . S
C1195 C1190 1.379 . S
C1195 N1193 1.356 . S
N1196 C1188 1.356 . S
N1196 H1202 0.984 . S
N1196 H1203 0.984 . S
N1197 C1190 1.356 . S
N1197 H1200 0.984 . S
N1197 H1201 0.985 . S
H1198 N1193 0.984 . S
H1199 N1193 0.985 . S
H1200 N1197 0.984 . S
H1201 N1197 0.985 . S
H1202 N1196 0.984 . S
H1203 N1196 0.984 . S
H1204 N1192 0.984 . S
H1205 N1192 0.985 . S
C1206 C1207 1.363 . S
C1206 C1212 1.379 . S
C1206 N1214 1.356 . S
C1207 C1206 1.363 . S
C1207 C1213 1.363 . S
C1208 C1209 1.363 . S
C1208 C1213 1.379 . S
C1208 N1215 1.356 . S
C1209 C1208 1.363 . S
C1209 C1212 1.363 . S
N1210 C1212 1.356 . S
N1210 H1222 0.984 . S
N1210 H1223 0.985 . S
N1211 C1213 1.356 . S
N1211 H1216 0.984 . S
N1211 H1217 0.985 . S
C1212 C1206 1.379 . S
C1212 C1209 1.363 . S
C1212 N1210 1.356 . S
C1213 C1207 1.363 . S
C1213 C1208 1.379 . S
C1213 N1211 1.356 . S
N1214 C1206 1.356 . S
N1214 H1220 0.984 . S
N1214 H1221 0.984 . S
N1215 C1208 1.356 . S
N1215 H1218 0.984 . S
N1215 H1219 0.985 . S
H1216 N1211 0.984 . S
H1217 N1211 0.985 . S
H1218 N1215 0.984 . S
H1219 N1215 0.985 . S
H1220 N1214 0.984 . S
H1221 N1214 0.984 . S
H1222 N1210 0.984 . S
H1223 N1210 0.985 . S
C1224 C1225 1.363 . S
C1224 C1230 1.379 . S
C1224 N1232 1.356 . S
C1225 C1224 1.363 . S
C1225 C1231 1.363 . S
C1226 C1227 1.363 . S
C1226 C1231 1.379 . S
C1226 N1233 1.356 . S
C1227 C1226 1.363 . S
C1227 C1230 1.363 . S
N1228 C1230 1.356 . S
N1228 H1240 0.984 . S
N1228 H1241 0.985 . S
N1229 C1231 1.356 . S
N1229 H1234 0.984 . S
N1229 H1235 0.985 . S
C1230 C1224 1.379 . S
C1230 C1227 1.363 . S
C1230 N1228 1.356 . S
C1231 C1225 1.363 . S
C1231 C1226 1.379 . S
C1231 N1229 1.356 . S
N1232 C1224 1.356 . S
N1232 H1238 0.984 . S
N1232 H1239 0.984 . S
N1233 C1226 1.356 . S
N1233 H1236 0.984 . S
N1233 H1237 0.985 . S
H1234 N1229 0.984 . S
H1235 N1229 0.985 . S
H1236 N1233 0.984 . S
H1237 N1233 0.985 . S
H1238 N1232 0.984 . S
H1239 N1232 0.984 . S
H1240 N1228 0.984 . S
H1241 N1228 0.985 . S
C1242 C1243 1.363 1_545 S
C1242 C1248 1.379 1_554 S
C1242 N1250 1.356 . S
C1243 C1242 1.363 1_565 S
C1243 C1249 1.363 . S
C1244 C1245 1.363 1_565 S
C1244 C1249 1.379 1_556 S
C1244 N1251 1.356 . S
C1245 C1244 1.363 1_545 S
C1245 C1248 1.363 . S
N1246 C1248 1.356 . S
N1246 H1258 0.984 . S
N1246 H1259 0.985 . S
N1247 C1249 1.356 . S
N1247 H1252 0.984 . S
N1247 H1253 0.985 . S
C1248 C1242 1.379 1_556 S
C1248 C1245 1.363 . S
C1248 N1246 1.356 . S
C1249 C1243 1.363 . S
C1249 C1244 1.379 1_554 S
C1249 N1247 1.356 . S
N1250 C1242 1.356 . S
N1250 H1256 0.984 . S
N1250 H1257 0.984 1_545 S
N1251 C1244 1.356 . S
N1251 H1254 0.984 1_565 S
N1251 H1255 0.985 . S
H1252 N1247 0.984 . S
H1253 N1247 0.985 . S
H1254 N1251 0.984 1_545 S
H1255 N1251 0.985 . S
H1256 N1250 0.984 . S
H1257 N1250 0.984 1_565 S
H1258 N1246 0.984 . S
H1259 N1246 0.985 . S
C1260 C1261 1.363 1_655 S
C1260 C1266 1.379 1_554 S
C1260 N1268 1.356 . S
C1261 C1260 1.363 1_455 S
C1261 C1267 1.363 . S
C1262 C1263 1.363 1_455 S
C1262 C1267 1.379 1_556 S
C1262 N1269 1.356 . S
C1263 C1262 1.363 1_655 S
C1263 C1266 1.363 . S
N1264 C1266 1.356 . S
N1264 H1276 0.984 1_556 S
N1264 H1277 0.985 . S
N1265 C1267 1.356 . S
N1265 H1270 0.984 . S
N1265 H1271 0.985 1_554 S
C1266 C1260 1.379 1_556 S
C1266 C1263 1.363 . S
C1266 N1264 1.356 . S
C1267 C1261 1.363 . S
C1267 C1262 1.379 1_554 S
C1267 N1265 1.356 . S
N1268 C1260 1.356 . S
N1268 H1274 0.984 . S
N1268 H1275 0.984 1_655 S
N1269 C1262 1.356 . S
N1269 H1272 0.984 1_455 S
N1269 H1273 0.985 . S
H1270 N1265 0.984 . S
H1271 N1265 0.985 1_556 S
H1272 N1269 0.984 1_655 S
H1273 N1269 0.985 . S
H1274 N1268 0.984 . S
H1275 N1268 0.984 1_455 S
H1276 N1264 0.984 1_554 S
H1277 N1264 0.985 . S
C1278 C1279 1.363 . S
C1278 C1284 1.379 1_556 S
C1278 N1286 1.356 . S
C1279 C1278 1.363 . S
C1279 C1285 1.363 . S
C1280 C1281 1.363 . S
C1280 C1285 1.379 1_554 S
C1280 N1287 1.356 . S
C1281 C1280 1.363 . S
C1281 C1284 1.363 . S
N1282 C1284 1.356 . S
N1282 H1294 0.984 . S
N1282 H1295 0.985 . S
N1283 C1285 1.356 . S
N1283 H1288 0.984 . S
N1283 H1289 0.985 . S
C1284 C1278 1.379 1_554 S
C1284 C1281 1.363 . S
C1284 N1282 1.356 . S
C1285 C1279 1.363 . S
C1285 C1280 1.379 1_556 S
C1285 N1283 1.356 . S
N1286 C1278 1.356 . S
N1286 H1292 0.984 . S
N1286 H1293 0.984 . S
N1287 C1280 1.356 . S
N1287 H1290 0.984 . S
N1287 H1291 0.985 . S
H1288 N1283 0.984 . S
H1289 N1283 0.985 . S
H1290 N1287 0.984 . S
H1291 N1287 0.985 . S
H1292 N1286 0.984 . S
H1293 N1286 0.984 . S
H1294 N1282 0.984 . S
H1295 N1282 0.985 . S
C1296 C1297 1.363 . S
C1296 C1302 1.379 . S
C1296 N1304 1.356 . S
C1297 C1296 1.363 . S
C1297 C1303 1.363 . S
C1298 C1299 1.363 . S
C1298 C1303 1.379 . S
C1298 N1305 1.356 . S
C1299 C1298 1.363 . S
C1299 C1302 1.363 . S
N1300 C1302 1.356 . S
N1300 H1312 0.984 . S
N1300 H1313 0.985 . S
N1301 C1303 1.356 . S
N1301 H1306 0.984 . S
N1301 H1307 0.985 . S
C1302 C1296 1.379 . S
C1302 C1299 1.363 . S
C1302 N1300 1.356 . S
C1303 C1297 1.363 . S
C1303 C1298 1.379 . S
C1303 N1301 1.356 . S
N1304 C1296 1.356 . S
N1304 H1310 0.984 . S
N1304 H1311 0.984 . S
N1305 C1298 1.356 . S
N1305 H1308 0.984 . S
N1305 H1309 0.985 . S
H1306 N1301 0.984 . S
H1307 N1301 0.985 . S
H1308 N1305 0.984 . S
H1309 N1305 0.985 . S
H1310 N1304 0.984 . S
H1311 N1304 0.984 . S
H1312 N1300 0.984 . S
H1313 N1300 0.985 . S
C1314 C1315 1.363 . S
C1314 C1320 1.379 . S
C1314 N1322 1.356 . S
C1315 C1314 1.363 . S
C1315 C1321 1.363 . S
C1316 C1317 1.363 . S
C1316 C1321 1.379 . S
C1316 N1323 1.356 . S
C1317 C1316 1.363 . S
C1317 C1320 1.363 . S
N1318 C1320 1.356 . S
N1318 H1330 0.984 . S
N1318 H1331 0.985 . S
N1319 C1321 1.356 . S
N1319 H1324 0.984 . S
N1319 H1325 0.985 . S
C1320 C1314 1.379 . S
C1320 C1317 1.363 . S
C1320 N1318 1.356 . S
C1321 C1315 1.363 . S
C1321 C1316 1.379 . S
C1321 N1319 1.356 . S
N1322 C1314 1.356 . S
N1322 H1328 0.984 . S
N1322 H1329 0.984 . S
N1323 C1316 1.356 . S
N1323 H1326 0.984 . S
N1323 H1327 0.985 . S
H1324 N1319 0.984 . S
H1325 N1319 0.985 . S
H1326 N1323 0.984 . S
H1327 N1323 0.985 . S
H1328 N1322 0.984 . S
H1329 N1322 0.984 . S
H1330 N1318 0.984 . S
H1331 N1318 0.985 . S
C1332 C1333 1.363 . S
C1332 C1338 1.379 . S
C1332 N1340 1.356 . S
C1333 C1332 1.363 . S
C1333 C1339 1.363 . S
C1334 C1335 1.363 . S
C1334 C1339 1.379 . S
C1334 N1341 1.356 . S
C1335 C1334 1.363 . S
C1335 C1338 1.363 . S
N1336 C1338 1.356 . S
N1336 H1348 0.984 . S
N1336 H1349 0.985 . S
N1337 C1339 1.356 . S
N1337 H1342 0.984 . S
N1337 H1343 0.985 . S
C1338 C1332 1.379 . S
C1338 C1335 1.363 . S
C1338 N1336 1.356 . S
C1339 C1333 1.363 . S
C1339 C1334 1.379 . S
C1339 N1337 1.356 . S
N1340 C1332 1.356 . S
N1340 H1346 0.984 . S
N1340 H1347 0.984 . S
N1341 C1334 1.356 . S
N1341 H1344 0.984 . S
N1341 H1345 0.985 . S
H1342 N1337 0.984 . S
H1343 N1337 0.985 . S
H1344 N1341 0.984 . S
H1345 N1341 0.985 . S
H1346 N1340 0.984 . S
H1347 N1340 0.984 . S
H1348 N1336 0.984 . S
H1349 N1336 0.985 . S
C1350 C1351 1.363 . S
C1350 C1356 1.379 . S
C1350 N1358 1.356 . S
C1351 C1350 1.363 . S
C1351 C1357 1.363 . S
C1352 C1353 1.363 . S
C1352 C1357 1.379 . S
C1352 N1359 1.356 . S
C1353 C1352 1.363 . S
C1353 C1356 1.363 . S
N1354 C1356 1.356 . S
N1354 H1366 0.984 . S
N1354 H1367 0.985 . S
N1355 C1357 1.356 . S
N1355 H1360 0.984 . S
N1355 H1361 0.985 . S
C1356 C1350 1.379 . S
C1356 C1353 1.363 . S
C1356 N1354 1.356 . S
C1357 C1351 1.363 . S
C1357 C1352 1.379 . S
C1357 N1355 1.356 . S
N1358 C1350 1.356 . S
N1358 H1364 0.984 . S
N1358 H1365 0.984 . S
N1359 C1352 1.356 . S
N1359 H1362 0.984 . S
N1359 H1363 0.985 . S
H1360 N1355 0.984 . S
H1361 N1355 0.985 . S
H1362 N1359 0.984 . S
H1363 N1359 0.985 . S
H1364 N1358 0.984 . S
H1365 N1358 0.984 . S
H1366 N1354 0.984 . S
H1367 N1354 0.985 . S
C1368 C1369 1.363 . S
C1368 C1374 1.379 . S
C1368 N1376 1.356 . S
C1369 C1368 1.363 . S
C1369 C1375 1.363 . S
C1370 C1371 1.363 . S
C1370 C1375 1.379 . S
C1370 N1377 1.356 . S
C1371 C1370 1.363 . S
C1371 C1374 1.363 . S
N1372 C1374 1.356 . S
N1372 H1384 0.984 . S
N1372 H1385 0.985 . S
N1373 C1375 1.356 . S
N1373 H1378 0.984 . S
N1373 H1379 0.985 . S
C1374 C1368 1.379 . S
C1374 C1371 1.363 . S
C1374 N1372 1.356 . S
C1375 C1369 1.363 . S
C1375 C1370 1.379 . S
C1375 N1373 1.356 . S
N1376 C1368 1.356 . S
N1376 H1382 0.984 . S
N1376 H1383 0.984 . S
N1377 C1370 1.356 . S
N1377 H1380 0.984 . S
N1377 H1381 0.985 . S
H1378 N1373 0.984 . S
H1379 N1373 0.985 . S
H1380 N1377 0.984 . S
H1381 N1377 0.985 . S
H1382 N1376 0.984 . S
H1383 N1376 0.984 . S
H1384 N1372 0.984 . S
H1385 N1372 0.985 . S
C1386 C1387 1.363 . S
C1386 C1392 1.379 . S
C1386 N1394 1.356 . S
C1387 C1386 1.363 . S
C1387 C1393 1.363 . S
C1388 C1389 1.363 . S
C1388 C1393 1.379 . S
C1388 N1395 1.356 . S
C1389 C1388 1.363 . S
C1389 C1392 1.363 . S
N1390 C1392 1.356 . S
N1390 H1402 0.984 . S
N1390 H1403 0.985 . S
N1391 C1393 1.356 . S
N1391 H1396 0.984 . S
N1391 H1397 0.985 . S
C1392 C1386 1.379 . S
C1392 C1389 1.363 . S
C1392 N1390 1.356 . S
C1393 C1387 1.363 . S
C1393 C1388 1.379 . S
C1393 N1391 1.356 . S
N1394 C1386 1.356 . S
N1394 H1400 0.984 . S
N1394 H1401 0.984 . S
N1395 C1388 1.356 . S
N1395 H1398 0.984 . S
N1395 H1399 0.985 . S
H1396 N1391 0.984 . S
H1397 N1391 0.985 . S
H1398 N1395 0.984 . S
H1399 N1395 0.985 . S
H1400 N1394 0.984 . S
H1401 N1394 0.984 . S
H1402 N1390 0.984 . S
H1403 N1390 0.985 . S
C595 C8 1.269 . S
C597 N47 1.262 . S
C613 N80 1.260 . S
C615 C41 1.266 . S
C631 C74 1.275 . S
C633 N14 1.267 . S
C649 N179 1.262 . S
C651 C107 1.269 . S
C667 N113 1.268 . S
C669 C140 1.274 . S
C685 C173 1.267 . S
C687 N146 1.259 . S
C703 N245 1.264 . S
C705 C206 1.271 . S
C721 C239 1.272 . S
C723 N278 1.265 . S
C739 C272 1.271 . S
C741 N212 1.264 . S
C757 N377 1.263 . S
C759 C305 1.270 . S
C775 N311 1.263 . S
C777 C338 1.270 . S
C793 C371 1.271 . S
C795 N344 1.265 . S
C811 N443 1.263 . S
C813 C404 1.270 . S
C829 C437 1.271 . S
C831 N476 1.265 . S
C847 C470 1.270 . S
C849 N410 1.263 . S
C865 N575 1.264 . S
C867 C503 1.271 . S
C883 N509 1.264 . S
C885 C536 1.271 . S
C901 C569 1.272 . S
C903 N542 1.265 . S
C919 N335 1.418 . S
C921 N5 1.419 . S
C937 N368 1.418 . S
C939 N38 1.415 . S
C955 N302 1.420 . S
C957 N71 1.420 . S
C973 N104 1.418 . S
C975 N467 1.417 . S
C991 N401 1.420 . S
C993 N137 1.420 . S
C1009 N434 1.418 . S
C1011 N170 1.415 . S
C1027 N203 1.422 . S
C1029 N533 1.422 . S
C1045 N566 1.421 . S
C1047 N236 1.421 . S
C1063 N500 1.422 . S
C1065 N269 1.422 . S
C1081 C17 1.899 . S
C1083 C182 1.896 . S
C1099 C116 1.899 . S
C1101 C50 1.896 . S
C1117 C149 1.911 . S
C1119 C83 1.911 . S
C1135 C380 1.909 . S
C1137 C215 1.909 . S
C1153 C314 1.909 . S
C1155 C248 1.909 . S
C1171 C281 1.907 . S
C1173 C347 1.907 . S
C1189 C578 1.909 . S
C1191 C413 1.909 . S
C1207 C446 1.909 . S
C1209 C512 1.909 . S
C1225 C545 1.907 . S
C1227 C479 1.907 . S
C1243 C28 1.440 . S
C1245 C193 1.436 . S
C1261 C61 1.438 . S
C1263 C127 1.440 . S
C1279 C160 1.450 . S
C1281 C94 1.450 . S
C1297 C391 1.448 . S
C1299 C226 1.447 . S
C1315 C325 1.448 . S
C1317 C259 1.448 . S
C1333 C358 1.446 . S
C1335 C292 1.446 . S
C1351 C424 1.448 . S
C1353 C589 1.448 . S
C1369 C457 1.448 . S
C1371 C523 1.447 . S
C1387 C556 1.446 . S
C1389 C490 1.446 . S
