# Generated by pormake.
# Topology zga, (5)-cn, num edge types: 1
# Building blocks:
#     Node 0, Type 0, BuildingBlock: BEQFEK_clean_sbu_0, # of connection points: 5
#     Node 1, Type 0, BuildingBlock: BEQFEK_clean_sbu_0, # of connection points: 5
#     Node 2, Type 0, BuildingBlock: BEQFEK_clean_sbu_0, # of connection points: 5
#     Node 3, Type 0, BuildingBlock: BEQFEK_clean_sbu_0, # of connection points: 5
#     Node 4, Type 0, BuildingBlock: BEQFEK_clean_sbu_0, # of connection points: 5
#     Node 5, Type 0, BuildingBlock: BEQFEK_clean_sbu_0, # of connection points: 5
#     Node 6, Type 0, BuildingBlock: BEQFEK_clean_sbu_0, # of connection points: 5
#     Node 7, Type 0, BuildingBlock: BEQFEK_clean_sbu_0, # of connection points: 5
#     Node 8, Type 0, BuildingBlock: BEQFEK_clean_sbu_0, # of connection points: 5
#     Node 9, Type 0, BuildingBlock: BEQFEK_clean_sbu_0, # of connection points: 5
#     Node 10, Type 0, BuildingBlock: BEQFEK_clean_sbu_0, # of connection points: 5
#     Node 11, Type 0, BuildingBlock: BEQFEK_clean_sbu_0, # of connection points: 5
#     Node 12, Type 0, BuildingBlock: BEQFEK_clean_sbu_0, # of connection points: 5
#     Node 13, Type 0, BuildingBlock: BEQFEK_clean_sbu_0, # of connection points: 5
#     Node 14, Type 0, BuildingBlock: BEQFEK_clean_sbu_0, # of connection points: 5
#     Node 15, Type 0, BuildingBlock: BEQFEK_clean_sbu_0, # of connection points: 5
#     Edge 16, Type (0, 0), BuildingBlock: XUDNAN_clean_linker_2, # of connection points: 2
#     Edge 17, Type (0, 0), BuildingBlock: XUDNAN_clean_linker_2, # of connection points: 2
#     Edge 18, Type (0, 0), BuildingBlock: XUDNAN_clean_linker_2, # of connection points: 2
#     Edge 19, Type (0, 0), BuildingBlock: XUDNAN_clean_linker_2, # of connection points: 2
#     Edge 20, Type (0, 0), BuildingBlock: XUDNAN_clean_linker_2, # of connection points: 2
#     Edge 21, Type (0, 0), BuildingBlock: XUDNAN_clean_linker_2, # of connection points: 2
#     Edge 22, Type (0, 0), BuildingBlock: XUDNAN_clean_linker_2, # of connection points: 2
#     Edge 23, Type (0, 0), BuildingBlock: XUDNAN_clean_linker_2, # of connection points: 2
#     Edge 24, Type (0, 0), BuildingBlock: XUDNAN_clean_linker_2, # of connection points: 2
#     Edge 25, Type (0, 0), BuildingBlock: XUDNAN_clean_linker_2, # of connection points: 2
#     Edge 26, Type (0, 0), BuildingBlock: XUDNAN_clean_linker_2, # of connection points: 2
#     Edge 27, Type (0, 0), BuildingBlock: XUDNAN_clean_linker_2, # of connection points: 2
#     Edge 28, Type (0, 0), BuildingBlock: XUDNAN_clean_linker_2, # of connection points: 2
#     Edge 29, Type (0, 0), BuildingBlock: XUDNAN_clean_linker_2, # of connection points: 2
#     Edge 30, Type (0, 0), BuildingBlock: XUDNAN_clean_linker_2, # of connection points: 2
#     Edge 31, Type (0, 0), BuildingBlock: XUDNAN_clean_linker_2, # of connection points: 2
#     Edge 32, Type (0, 0), BuildingBlock: XUDNAN_clean_linker_2, # of connection points: 2
#     Edge 33, Type (0, 0), BuildingBlock: XUDNAN_clean_linker_2, # of connection points: 2
#     Edge 34, Type (0, 0), BuildingBlock: XUDNAN_clean_linker_2, # of connection points: 2
#     Edge 35, Type (0, 0), BuildingBlock: XUDNAN_clean_linker_2, # of connection points: 2
#     Edge 36, Type (0, 0), BuildingBlock: XUDNAN_clean_linker_2, # of connection points: 2
#     Edge 37, Type (0, 0), BuildingBlock: XUDNAN_clean_linker_2, # of connection points: 2
#     Edge 38, Type (0, 0), BuildingBlock: XUDNAN_clean_linker_2, # of connection points: 2
#     Edge 39, Type (0, 0), BuildingBlock: XUDNAN_clean_linker_2, # of connection points: 2
#     Edge 40, Type (0, 0), BuildingBlock: XUDNAN_clean_linker_2, # of connection points: 2
#     Edge 41, Type (0, 0), BuildingBlock: XUDNAN_clean_linker_2, # of connection points: 2
#     Edge 42, Type (0, 0), BuildingBlock: XUDNAN_clean_linker_2, # of connection points: 2
#     Edge 43, Type (0, 0), BuildingBlock: XUDNAN_clean_linker_2, # of connection points: 2
#     Edge 44, Type (0, 0), BuildingBlock: XUDNAN_clean_linker_2, # of connection points: 2
#     Edge 45, Type (0, 0), BuildingBlock: XUDNAN_clean_linker_2, # of connection points: 2
#     Edge 46, Type (0, 0), BuildingBlock: XUDNAN_clean_linker_2, # of connection points: 2
#     Edge 47, Type (0, 0), BuildingBlock: XUDNAN_clean_linker_2, # of connection points: 2
#     Edge 48, Type (0, 0), BuildingBlock: XUDNAN_clean_linker_2, # of connection points: 2
#     Edge 49, Type (0, 0), BuildingBlock: XUDNAN_clean_linker_2, # of connection points: 2
#     Edge 50, Type (0, 0), BuildingBlock: XUDNAN_clean_linker_2, # of connection points: 2
#     Edge 51, Type (0, 0), BuildingBlock: XUDNAN_clean_linker_2, # of connection points: 2
#     Edge 52, Type (0, 0), BuildingBlock: XUDNAN_clean_linker_2, # of connection points: 2
#     Edge 53, Type (0, 0), BuildingBlock: XUDNAN_clean_linker_2, # of connection points: 2
#     Edge 54, Type (0, 0), BuildingBlock: XUDNAN_clean_linker_2, # of connection points: 2
#     Edge 55, Type (0, 0), BuildingBlock: XUDNAN_clean_linker_2, # of connection points: 2
# Relax obj value: 0.161
# Max RMSD: 0.223
# Mean RMSD: 0.180
data_MOF--net-zga--node1-BEQFEK_clean_sbu_0--edge1-XUDNAN_clean_linker_2
_symmetry_space_group_name_H-M    P1
_symmetry_Int_Tables_number       1
_symmetry_cell_setting            triclinic
loop_
_symmetry_equiv_pos_as_xyz
'x, y, z'
_cell_length_a     52.916682
_cell_length_b     89.452677
_cell_length_c     18.992416
_cell_angle_alpha  91.065865
_cell_angle_beta   90.074441
_cell_angle_gamma 101.19474
loop_
_atom_site_label
_atom_site_type_symbol
_atom_site_fract_x
_atom_site_fract_y
_atom_site_fract_z
_atom_type_partial_charge
Co0 Co 0.10184 0.54285 0.05757 0.0
Co1 Co 0.08087 0.54387 0.21307 0.0
C2 C 0.09833 0.57229 0.12818 0.0
O3 O 0.10433 0.56455 0.07634 0.0
O4 O 0.08935 0.56593 0.18488 0.0
C5 C 0.12829 0.55154 0.92889 0.0
O6 O 0.13844 0.56371 0.96646 0.0
C7 C 0.09092 0.55103 0.36249 0.0
C8 C 0.05803 0.53638 0.4141 0.0
C9 C 0.081 0.54647 0.42836 0.0
N10 N 0.07477 0.54381 0.31251 0.0
N11 N 0.05494 0.53525 0.34368 0.0
C12 C 0.11652 0.56075 0.34595 0.0
H13 H 0.12207 0.55871 0.29079 0.0
H14 H 0.13161 0.55837 0.38238 0.0
H15 H 0.11518 0.57293 0.35194 0.0
C16 C 0.13952 0.52739 0.12968 0.0
N17 N 0.11855 0.53389 0.12906 0.0
N18 N 0.10852 0.53336 0.19265 0.0
C19 C 0.12211 0.52582 0.23473 0.0
C20 C 0.1426 0.52215 0.19703 0.0
C21 C 0.15697 0.52707 0.06805 0.0
H22 H 0.15022 0.51644 0.03683 0.0
H23 H 0.15648 0.53691 0.03379 0.0
H24 H 0.17706 0.5273 0.08563 0.0
O25 O 0.06476 0.53407 0.05437 0.0
O26 O 0.04874 0.53379 0.16263 0.0
H27 H 0.09304 0.51858 0.31258 0.0
H28 H 0.12121 0.51016 0.32013 0.0
C29 C 0.11428 0.52076 0.30763 0.0
H30 H 0.12293 0.52968 0.34648 0.0
H31 H 0.03981 0.5282 0.3169 0.0
O32 O 0.11421 0.5404 0.95948 0.0
C33 C 0.04591 0.53108 0.09668 0.0
Co34 Co 0.13972 0.7103 0.22526 0.0
Co35 Co 0.11836 0.71521 0.07519 0.0
C36 C 0.11694 0.68378 0.13588 0.0
O37 O 0.12787 0.68899 0.19342 0.0
O38 O 0.11212 0.69264 0.08786 0.0
C39 C 0.14359 0.70245 0.36626 0.0
O40 O 0.12364 0.69204 0.34648 0.0
C41 C 0.1191 0.71223 0.92129 0.0
C42 C 0.10395 0.73242 0.88911 0.0
C43 C 0.11481 0.72055 0.86319 0.0
N44 N 0.11143 0.71899 0.97914 0.0
N45 N 0.10174 0.73081 0.95932 0.0
C46 C 0.13342 0.69936 0.92281 0.0
H47 H 0.14216 0.69865 0.97547 0.0
H48 H 0.14863 0.70076 0.88193 0.0
H49 H 0.11972 0.68853 0.9113 0.0
C50 C 0.18871 0.72496 0.15742 0.0
N51 N 0.16281 0.72076 0.15823 0.0
N52 N 0.15346 0.72376 0.09691 0.0
C53 C 0.1731 0.73053 0.05634 0.0
C54 C 0.19608 0.73118 0.09238 0.0
C55 C 0.20592 0.72153 0.21494 0.0
H56 H 0.19891 0.70977 0.23359 0.0
H57 H 0.22619 0.72282 0.19717 0.0
H58 H 0.20505 0.72947 0.26006 0.0
O59 O 0.10973 0.72027 0.24006 0.0
O60 O 0.09484 0.72464 0.1349 0.0
H61 H 0.18709 0.74556 0.97152 0.0
H62 H 0.16977 0.7271 0.94464 0.0
C63 C 0.17038 0.73644 0.98405 0.0
H64 H 0.15257 0.74113 0.9803 0.0
H65 H 0.09517 0.73836 0.99415 0.0
O66 O 0.15559 0.71119 0.32009 0.0
C67 C 0.09386 0.72551 0.20173 0.0
Co68 Co 0.83997 0.44854 0.92721 0.0
Co69 Co 0.85585 0.45961 0.77674 0.0
C70 C 0.86156 0.42841 0.83083 0.0
O71 O 0.85212 0.43047 0.89103 0.0
O72 O 0.86366 0.43858 0.78378 0.0
C73 C 0.83623 0.43907 0.07012 0.0
O74 O 0.85641 0.43315 0.05417 0.0
C75 C 0.84798 0.45685 0.62578 0.0
C76 C 0.8667 0.47954 0.58828 0.0
C77 C 0.8525 0.46557 0.5663 0.0
N78 N 0.85897 0.46524 0.68094 0.0
N79 N 0.87042 0.47874 0.65821 0.0
C80 C 0.83197 0.44119 0.6311 0.0
H81 H 0.82469 0.43913 0.68554 0.0
H82 H 0.81561 0.4396 0.59328 0.0
H83 H 0.84407 0.43271 0.61759 0.0
C84 C 0.78962 0.45434 0.87675 0.0
N85 N 0.81461 0.45385 0.86675 0.0
N86 N 0.82236 0.46062 0.808 0.0
C87 C 0.80345 0.46705 0.78179 0.0
C88 C 0.78139 0.46306 0.82356 0.0
C89 C 0.77416 0.44568 0.93406 0.0
H90 H 0.78278 0.43583 0.94907 0.0
H91 H 0.75399 0.44138 0.91667 0.0
H92 H 0.77439 0.4532 0.98129 0.0
O93 O 0.87038 0.46585 0.94021 0.0
O94 O 0.88077 0.47389 0.83226 0.0
H95 H 0.79728 0.48795 0.73527 0.0
H96 H 0.80308 0.47328 0.67345 0.0
C97 C 0.80837 0.4788 0.72564 0.0
H98 H 0.82904 0.4842 0.72501 0.0
H99 H 0.88001 0.48758 0.69076 0.0
O100 O 0.82539 0.44531 0.02223 0.0
C101 C 0.88439 0.47491 0.89847 0.0
Co102 Co 0.90941 0.30073 0.9132 0.0
Co103 Co 0.88865 0.29573 0.75845 0.0
C104 C 0.90526 0.32704 0.81925 0.0
O105 O 0.91056 0.32202 0.87899 0.0
O106 O 0.89733 0.31806 0.76762 0.0
C107 C 0.91714 0.30976 0.0555 0.0
O108 O 0.90841 0.32173 0.03473 0.0
C109 C 0.88167 0.29674 0.60365 0.0
C110 C 0.86574 0.27243 0.58049 0.0
C111 C 0.87418 0.2863 0.54858 0.0
N112 N 0.8786 0.28918 0.66462 0.0
N113 N 0.86857 0.27474 0.65037 0.0
C114 C 0.89007 0.31367 0.59959 0.0
H115 H 0.91139 0.3167 0.60321 0.0
H116 H 0.88346 0.31805 0.54998 0.0
H117 H 0.88189 0.31928 0.64418 0.0
C118 C 0.94452 0.28078 0.85972 0.0
N119 N 0.92568 0.28882 0.85082 0.0
N120 N 0.91755 0.28723 0.78514 0.0
C121 C 0.93174 0.27866 0.74939 0.0
C122 C 0.94893 0.27399 0.79556 0.0
C123 C 0.95641 0.27876 0.92955 0.0
H124 H 0.94116 0.27647 0.97015 0.0
H125 H 0.96978 0.28948 0.94491 0.0
H126 H 0.96709 0.26925 0.92811 0.0
O127 O 0.87332 0.29081 0.9262 0.0
O128 O 0.85775 0.28837 0.81737 0.0
H129 H 0.91447 0.26612 0.65891 0.0
H130 H 0.94856 0.2732 0.65083 0.0
C131 C 0.93029 0.27589 0.67135 0.0
H132 H 0.92654 0.28614 0.64452 0.0
H133 H 0.86449 0.26634 0.68837 0.0
O134 O 0.92294 0.30054 0.00952 0.0
C135 C 0.85474 0.28683 0.88344 0.0
Co136 Co 0.09935 0.04036 0.58711 0.0
Co137 Co 0.07978 0.03674 0.74127 0.0
C138 C 0.09994 0.06753 0.68148 0.0
O139 O 0.10441 0.06189 0.62172 0.0
O140 O 0.09071 0.05903 0.73204 0.0
C141 C 0.11004 0.04923 0.44727 0.0
O142 O 0.09843 0.06035 0.46665 0.0
C143 C 0.08245 0.03877 0.89462 0.0
C144 C 0.05466 0.01807 0.92411 0.0
C145 C 0.07272 0.03007 0.9514 0.0
N146 N 0.07082 0.03213 0.83603 0.0
N147 N 0.05378 0.01998 0.85409 0.0
C148 C 0.1048 0.05192 0.89487 0.0
H149 H 0.11514 0.0524 0.84396 0.0
H150 H 0.11834 0.05106 0.93861 0.0
H151 H 0.09748 0.06265 0.90248 0.0
C152 C 0.13361 0.02007 0.63818 0.0
N153 N 0.11485 0.02816 0.6481 0.0
N154 N 0.10638 0.02641 0.71307 0.0
C155 C 0.1194 0.01705 0.74652 0.0
C156 C 0.13701 0.0127 0.70018 0.0
C157 C 0.14706 0.01896 0.56961 0.0
H158 H 0.13257 0.01468 0.52805 0.0
H159 H 0.15718 0.0305 0.55445 0.0
H160 H 0.16108 0.01124 0.57255 0.0
O161 O 0.06195 0.03187 0.57449 0.0
O162 O 0.04831 0.0298 0.68477 0.0
H163 H 0.09576 0.0071 0.83132 0.0
H164 H 0.12907 0.0054 0.83939 0.0
C165 C 0.11593 0.01291 0.82241 0.0
H166 H 0.12002 0.02342 0.85549 0.0
H167 H 0.04263 0.0125 0.81818 0.0
O168 O 0.11396 0.0397 0.49266 0.0
C169 C 0.04389 0.0284 0.61891 0.0
Co170 Co 0.13605 0.2107 0.73369 0.0
Co171 Co 0.11903 0.20537 0.57612 0.0
C172 C 0.1217 0.1792 0.66711 0.0
O173 O 0.12751 0.18848 0.71881 0.0
O174 O 0.1187 0.18392 0.60526 0.0
C175 C 0.15602 0.2047 0.86914 0.0
O176 O 0.15371 0.19072 0.84412 0.0
C177 C 0.1252 0.20133 0.42344 0.0
C178 C 0.09924 0.21591 0.38381 0.0
C179 C 0.11772 0.20774 0.36284 0.0
N180 N 0.11213 0.20585 0.47798 0.0
N181 N 0.09606 0.21414 0.45352 0.0
C182 C 0.14657 0.19269 0.43082 0.0
H183 H 0.15363 0.19331 0.48607 0.0
H184 H 0.16261 0.1971 0.39458 0.0
H185 H 0.13913 0.18056 0.41626 0.0
C186 C 0.18295 0.22821 0.66855 0.0
N187 N 0.15914 0.21961 0.66391 0.0
N188 N 0.15142 0.21857 0.59778 0.0
C189 C 0.16977 0.22723 0.55861 0.0
C190 C 0.19054 0.23337 0.60187 0.0
C191 C 0.19833 0.23078 0.7354 0.0
H192 H 0.19172 0.23974 0.76766 0.0
H193 H 0.19516 0.22016 0.76604 0.0
H194 H 0.21923 0.23434 0.72484 0.0
O195 O 0.10411 0.21924 0.73216 0.0
O196 O 0.09036 0.21295 0.62323 0.0
H197 H 0.14588 0.23155 0.47262 0.0
H198 H 0.17791 0.24283 0.47249 0.0
C199 C 0.16635 0.23139 0.48366 0.0
H200 H 0.17305 0.22304 0.44802 0.0
H201 H 0.08433 0.21957 0.48513 0.0
O202 O 0.1507 0.21503 0.82977 0.0
C203 C 0.08725 0.21859 0.68386 0.0
Co204 Co 0.83485 0.95111 0.43971 0.0
Co205 Co 0.85257 0.96021 0.28607 0.0
C206 C 0.85357 0.92902 0.3457 0.0
O207 O 0.84432 0.93197 0.40499 0.0
O208 O 0.85743 0.9389 0.29756 0.0
C209 C 0.81862 0.9364 0.57079 0.0
O210 O 0.82 0.92374 0.53614 0.0
C211 C 0.84263 0.95396 0.13811 0.0
C212 C 0.86738 0.97312 0.08489 0.0
C213 C 0.84981 0.95965 0.07206 0.0
N214 N 0.85547 0.96348 0.18726 0.0
N215 N 0.87028 0.97493 0.1553 0.0
C216 C 0.82264 0.94025 0.15537 0.0
H217 H 0.8148 0.94149 0.2088 0.0
H218 H 0.80673 0.93851 0.11611 0.0
H219 H 0.8316 0.93002 0.15479 0.0
C220 C 0.78846 0.96195 0.39264 0.0
N221 N 0.81133 0.95804 0.3797 0.0
N222 N 0.81928 0.96271 0.31679 0.0
C223 C 0.80181 0.96995 0.28794 0.0
C224 C 0.7816 0.96969 0.33496 0.0
C225 C 0.77433 0.95904 0.46072 0.0
H226 H 0.77568 0.94756 0.47969 0.0
H227 H 0.75377 0.95984 0.45469 0.0
H228 H 0.7835 0.96757 0.50082 0.0
O229 O 0.86597 0.96713 0.4467 0.0
O230 O 0.88007 0.97438 0.34009 0.0
H231 H 0.79458 0.98781 0.21947 0.0
H232 H 0.80094 0.97089 0.1757 0.0
C233 C 0.80625 0.97878 0.22139 0.0
H234 H 0.82689 0.98415 0.21696 0.0
H235 H 0.88233 0.98396 0.18144 0.0
O236 O 0.82252 0.94892 0.53824 0.0
C237 C 0.88197 0.97547 0.40705 0.0
Co238 Co 0.91383 0.80609 0.45438 0.0
Co239 Co 0.89096 0.79483 0.3055 0.0
C240 C 0.90055 0.82822 0.35624 0.0
O241 O 0.9103 0.82585 0.41542 0.0
O242 O 0.89274 0.81737 0.31206 0.0
C243 C 0.91651 0.81356 0.59977 0.0
O244 O 0.89739 0.82024 0.58272 0.0
C245 C 0.89663 0.7959 0.15306 0.0
C246 C 0.87074 0.77482 0.11589 0.0
C247 C 0.88832 0.78733 0.09322 0.0
N248 N 0.88452 0.78886 0.209 0.0
N249 N 0.86881 0.77634 0.18638 0.0
C250 C 0.91733 0.80988 0.15753 0.0
H251 H 0.92544 0.81159 0.21164 0.0
H252 H 0.93288 0.80902 0.11933 0.0
H253 H 0.90901 0.81991 0.1436 0.0
C254 C 0.95509 0.79052 0.40526 0.0
N255 N 0.93283 0.79531 0.39475 0.0
N256 N 0.92269 0.78976 0.33425 0.0
C257 C 0.93796 0.78093 0.3049 0.0
C258 C 0.95912 0.78115 0.3488 0.0
C259 C 0.9721 0.79501 0.46818 0.0
H260 H 0.97172 0.80695 0.48427 0.0
H261 H 0.99224 0.79392 0.45694 0.0
H262 H 0.96472 0.78754 0.51261 0.0
O263 O 0.87891 0.7942 0.46746 0.0
O264 O 0.86198 0.78458 0.36564 0.0
H265 H 0.94127 0.76154 0.23779 0.0
H266 H 0.93591 0.77825 0.19287 0.0
C267 C 0.93094 0.7712 0.24013 0.0
H268 H 0.90996 0.76655 0.23937 0.0
H269 H 0.85742 0.76859 0.21926 0.0
O270 O 0.9283 0.80782 0.55112 0.0
C271 C 0.86047 0.78626 0.43221 0.0
Co272 Co 0.59676 0.53941 0.59749 0.0
Co273 Co 0.57906 0.53693 0.7528 0.0
C274 C 0.59403 0.5672 0.68932 0.0
O275 O 0.59965 0.5613 0.63109 0.0
O276 O 0.58576 0.55891 0.74122 0.0
C277 C 0.60625 0.54887 0.45931 0.0
O278 O 0.59251 0.55888 0.48004 0.0
C279 C 0.57879 0.53927 0.90726 0.0
C280 C 0.55939 0.51581 0.93273 0.0
C281 C 0.57225 0.52941 0.96253 0.0
N282 N 0.57055 0.53171 0.84718 0.0
N283 N 0.55833 0.51785 0.86295 0.0
C284 C 0.59564 0.5548 0.91061 0.0
H285 H 0.60645 0.55726 0.86088 0.0
H286 H 0.60943 0.55585 0.95534 0.0
H287 H 0.58334 0.56342 0.91841 0.0
C288 C 0.63016 0.51818 0.65011 0.0
N289 N 0.61325 0.52762 0.65891 0.0
N290 N 0.60793 0.5285 0.72607 0.0
C291 C 0.62269 0.52076 0.76293 0.0
C292 C 0.63673 0.51336 0.71622 0.0
C293 C 0.63794 0.51299 0.57947 0.0
H294 H 0.62309 0.51389 0.53936 0.0
H295 H 0.65636 0.52035 0.56381 0.0
H296 H 0.64064 0.501 0.58105 0.0
O297 O 0.56002 0.52981 0.58519 0.0
O298 O 0.5481 0.52789 0.69685 0.0
H299 H 0.61032 0.51395 0.867 0.0
H300 H 0.64481 0.52012 0.85863 0.0
C301 C 0.62578 0.52219 0.84136 0.0
H302 H 0.62446 0.53385 0.85883 0.0
H303 H 0.5508 0.50946 0.82558 0.0
O304 O 0.61184 0.53953 0.50347 0.0
C305 C 0.54285 0.52585 0.63157 0.0
Co306 Co 0.64363 0.70744 0.75969 0.0
Co307 Co 0.62263 0.70839 0.60606 0.0
C308 C 0.62018 0.67889 0.68155 0.0
O309 O 0.63067 0.68609 0.73563 0.0
O310 O 0.616 0.6858 0.62577 0.0
C311 C 0.65264 0.69907 0.89955 0.0
O312 O 0.63668 0.68651 0.88017 0.0
C313 C 0.62588 0.7052 0.45329 0.0
C314 C 0.60616 0.72337 0.41783 0.0
C315 C 0.62043 0.71286 0.39425 0.0
N316 N 0.6156 0.71107 0.50952 0.0
N317 N 0.60324 0.72165 0.48776 0.0
C318 C 0.64342 0.69399 0.45761 0.0
H319 H 0.64992 0.69307 0.51268 0.0
H320 H 0.66033 0.69737 0.4228 0.0
H321 H 0.63285 0.68265 0.43906 0.0
C322 C 0.69133 0.72365 0.69439 0.0
N323 N 0.66648 0.71664 0.69028 0.0
N324 N 0.65764 0.71796 0.62639 0.0
C325 C 0.67653 0.7265 0.58843 0.0
C326 C 0.69859 0.73022 0.62999 0.0
C327 C 0.7077 0.72371 0.75875 0.0
H328 H 0.70286 0.7125 0.78453 0.0
H329 H 0.72851 0.72613 0.74559 0.0
H330 H 0.70364 0.73254 0.79655 0.0
O331 O 0.61414 0.71775 0.7697 0.0
O332 O 0.59869 0.71872 0.66165 0.0
H333 H 0.6867 0.7435 0.50841 0.0
H334 H 0.6756 0.72435 0.47606 0.0
C335 C 0.67272 0.73276 0.51742 0.0
H336 H 0.65305 0.73513 0.51279 0.0
H337 H 0.59433 0.72841 0.52124 0.0
O338 O 0.65971 0.70933 0.85435 0.0
C339 C 0.59793 0.72155 0.7275 0.0
Co340 Co 0.33168 0.44878 0.43563 0.0
Co341 Co 0.3533 0.45988 0.28755 0.0
C342 C 0.35144 0.42765 0.33851 0.0
O343 O 0.34092 0.42987 0.39711 0.0
O344 O 0.3569 0.43819 0.29359 0.0
C345 C 0.32878 0.4406 0.57872 0.0
O346 O 0.34885 0.43475 0.5609 0.0
C347 C 0.3492 0.45793 0.13453 0.0
C348 C 0.36973 0.48064 0.10206 0.0
C349 C 0.35536 0.46701 0.07648 0.0
N350 N 0.35941 0.46581 0.19211 0.0
N351 N 0.37205 0.47929 0.17225 0.0
C352 C 0.33154 0.44271 0.13623 0.0
H353 H 0.32317 0.44055 0.18947 0.0
H354 H 0.31588 0.44202 0.09662 0.0
H355 H 0.34267 0.43374 0.12284 0.0
C356 C 0.28695 0.46072 0.38444 0.0
N357 N 0.31013 0.45698 0.37418 0.0
N358 N 0.31936 0.46221 0.31321 0.0
C359 C 0.30227 0.46954 0.28281 0.0
C360 C 0.28113 0.4688 0.32687 0.0
C361 C 0.27149 0.45734 0.45011 0.0
H362 H 0.27176 0.44555 0.46672 0.0
H363 H 0.25127 0.45868 0.44207 0.0
H364 H 0.28036 0.46528 0.49288 0.0
O365 O 0.36335 0.4639 0.45216 0.0
O366 O 0.37975 0.47268 0.35018 0.0
H367 H 0.32744 0.48564 0.22022 0.0
H368 H 0.29395 0.48665 0.21134 0.0
C369 C 0.30761 0.47881 0.21776 0.0
H370 H 0.30598 0.47106 0.17106 0.0
H371 H 0.38125 0.48782 0.20694 0.0
O372 O 0.31659 0.44609 0.53101 0.0
C373 C 0.38051 0.47259 0.41726 0.0
Co374 Co 0.40912 0.30358 0.43123 0.0
Co375 Co 0.3874 0.29389 0.27964 0.0
C376 C 0.39792 0.32674 0.3328 0.0
O377 O 0.40688 0.32363 0.39196 0.0
O378 O 0.38988 0.31639 0.28645 0.0
C379 C 0.41167 0.31153 0.57544 0.0
O380 O 0.39272 0.31825 0.55718 0.0
C381 C 0.38725 0.29488 0.12518 0.0
C382 C 0.3707 0.27095 0.0962 0.0
C383 C 0.38175 0.28487 0.06826 0.0
N384 N 0.37992 0.28721 0.18434 0.0
N385 N 0.36952 0.27299 0.16649 0.0
C386 C 0.40248 0.31083 0.12416 0.0
H387 H 0.41456 0.31332 0.1723 0.0
H388 H 0.41499 0.31269 0.07702 0.0
H389 H 0.38892 0.31884 0.12271 0.0
C390 C 0.45002 0.28762 0.38232 0.0
N391 N 0.42766 0.29234 0.3722 0.0
N392 N 0.4193 0.28867 0.30775 0.0
C393 C 0.43665 0.28189 0.27387 0.0
C394 C 0.45667 0.28091 0.32015 0.0
C395 C 0.46399 0.28901 0.45145 0.0
H396 H 0.45005 0.28543 0.49431 0.0
H397 H 0.47316 0.30111 0.46142 0.0
H398 H 0.47887 0.28183 0.45264 0.0
O399 O 0.37388 0.29267 0.44411 0.0
O400 O 0.35779 0.28405 0.34003 0.0
H401 H 0.41926 0.26829 0.18636 0.0
H402 H 0.45354 0.27501 0.17695 0.0
C403 C 0.43543 0.27798 0.19676 0.0
H404 H 0.43203 0.28791 0.16701 0.0
H405 H 0.36294 0.26448 0.20261 0.0
O406 O 0.4235 0.30555 0.52769 0.0
C407 C 0.35551 0.28544 0.40654 0.0
Co408 Co 0.60366 0.04529 0.07329 0.0
Co409 Co 0.57711 0.04167 0.22213 0.0
C410 C 0.59372 0.07232 0.15328 0.0
O411 O 0.60282 0.0664 0.09997 0.0
O412 O 0.58335 0.06427 0.20425 0.0
C413 C 0.61207 0.05264 0.93205 0.0
O414 O 0.59871 0.06289 0.95219 0.0
C415 C 0.57986 0.04496 0.37597 0.0
C416 C 0.54991 0.02559 0.4087 0.0
C417 C 0.56955 0.03694 0.43436 0.0
N418 N 0.56713 0.0385 0.3183 0.0
N419 N 0.54877 0.02719 0.33847 0.0
C420 C 0.60359 0.05716 0.37398 0.0
H421 H 0.61165 0.05821 0.31998 0.0
H422 H 0.61828 0.0547 0.41155 0.0
H423 H 0.59851 0.06818 0.39025 0.0
C424 C 0.64118 0.03004 0.14553 0.0
N425 N 0.61931 0.03565 0.14406 0.0
N426 N 0.60752 0.03333 0.20506 0.0
C427 C 0.6212 0.02566 0.24639 0.0
C428 C 0.64319 0.0236 0.21074 0.0
C429 C 0.66022 0.03153 0.08673 0.0
H430 H 0.65996 0.04211 0.05739 0.0
H431 H 0.67995 0.03164 0.10694 0.0
H432 H 0.65476 0.02167 0.04981 0.0
O433 O 0.56789 0.0349 0.05835 0.0
O434 O 0.54783 0.03125 0.1607 0.0
H435 H 0.59128 0.01538 0.3165 0.0
H436 H 0.62131 0.00911 0.32769 0.0
C437 C 0.61248 0.01909 0.31621 0.0
H438 H 0.61842 0.02778 0.35839 0.0
H439 H 0.53665 0.01991 0.30385 0.0
O440 O 0.61895 0.04408 0.97823 0.0
C441 C 0.54776 0.02995 0.09377 0.0
Co442 Co 0.63802 0.2121 0.21916 0.0
Co443 Co 0.61916 0.21249 0.06326 0.0
C444 C 0.61368 0.18338 0.14382 0.0
O445 O 0.62484 0.18998 0.19862 0.0
O446 O 0.61017 0.19093 0.08981 0.0
C447 C 0.66194 0.20479 0.34887 0.0
O448 O 0.66864 0.19333 0.31424 0.0
C449 C 0.62056 0.20489 0.91219 0.0
C450 C 0.61034 0.22533 0.86516 0.0
C451 C 0.61924 0.21211 0.8484 0.0
N452 N 0.61402 0.21384 0.96409 0.0
N453 N 0.60721 0.22581 0.93539 0.0
C454 C 0.62827 0.1899 0.92448 0.0
H455 H 0.61582 0.18358 0.9651 0.0
H456 H 0.64845 0.19189 0.94395 0.0
H457 H 0.62641 0.18275 0.8757 0.0
C458 C 0.68641 0.22951 0.15757 0.0
N459 N 0.66238 0.22107 0.1519 0.0
N460 N 0.65449 0.22098 0.08605 0.0
C461 C 0.67356 0.22908 0.04752 0.0
C462 C 0.69419 0.23499 0.09148 0.0
C463 C 0.70016 0.23357 0.22615 0.0
H464 H 0.68745 0.2384 0.26302 0.0
H465 H 0.70431 0.22306 0.24991 0.0
H466 H 0.71844 0.2419 0.2194 0.0
O467 O 0.60999 0.22378 0.22193 0.0
O468 O 0.59577 0.22427 0.11208 0.0
H469 H 0.65729 0.23802 0.95807 0.0
H470 H 0.69089 0.23711 0.94795 0.0
C471 C 0.67222 0.23127 0.96971 0.0
H472 H 0.66717 0.22003 0.94288 0.0
H473 H 0.6019 0.23476 0.9641 0.0
O474 O 0.6512 0.21416 0.31635 0.0
C475 C 0.59495 0.22786 0.17708 0.0
Co476 Co 0.34061 0.94926 0.91808 0.0
Co477 Co 0.35505 0.95704 0.76315 0.0
C478 C 0.35602 0.92611 0.8201 0.0
O479 O 0.34871 0.92981 0.88078 0.0
O480 O 0.35912 0.93554 0.76993 0.0
C481 C 0.33551 0.93854 0.05834 0.0
O482 O 0.35398 0.93134 0.04023 0.0
C483 C 0.3524 0.9549 0.61017 0.0
C484 C 0.36455 0.97904 0.58096 0.0
C485 C 0.35529 0.96456 0.55364 0.0
N486 N 0.35946 0.96329 0.66872 0.0
N487 N 0.36723 0.97766 0.65088 0.0
C488 C 0.33988 0.93838 0.60984 0.0
H489 H 0.32969 0.93543 0.66018 0.0
H490 H 0.32608 0.93554 0.56531 0.0
H491 H 0.355 0.93143 0.60375 0.0
C492 C 0.29254 0.95917 0.87389 0.0
N493 N 0.31622 0.95636 0.86056 0.0
N494 N 0.32215 0.95956 0.79465 0.0
C495 C 0.30237 0.96449 0.76372 0.0
C496 C 0.283 0.96446 0.81295 0.0
C497 C 0.28008 0.9576 0.94475 0.0
H498 H 0.29335 0.96423 0.98433 0.0
H499 H 0.2766 0.94546 0.95996 0.0
H500 H 0.26163 0.96173 0.94537 0.0
O501 O 0.37292 0.96478 0.9292 0.0
O502 O 0.3825 0.9703 0.81802 0.0
H503 H 0.31663 0.97859 0.67718 0.0
H504 H 0.28251 0.97086 0.67201 0.0
C505 C 0.30149 0.96846 0.68763 0.0
H506 H 0.30524 0.95881 0.65467 0.0
H507 H 0.37308 0.98663 0.68688 0.0
O508 O 0.32637 0.94623 0.01275 0.0
C509 C 0.3875 0.97224 0.88345 0.0
Co510 Co 0.40843 0.80083 0.93025 0.0
Co511 Co 0.39586 0.79137 0.77399 0.0
C512 C 0.39646 0.82345 0.83256 0.0
O513 O 0.4036 0.82062 0.89406 0.0
O514 O 0.3927 0.81316 0.78438 0.0
C515 C 0.43204 0.81348 0.06486 0.0
O516 O 0.44549 0.82513 0.03177 0.0
C517 C 0.41114 0.79485 0.62787 0.0
C518 C 0.38369 0.77655 0.57332 0.0
C519 C 0.40432 0.78843 0.56167 0.0
N520 N 0.39542 0.78707 0.67574 0.0
N521 N 0.3791 0.77609 0.643 0.0
C522 C 0.43139 0.80855 0.64614 0.0
H523 H 0.42866 0.81283 0.70006 0.0
H524 H 0.45061 0.80534 0.64464 0.0
H525 H 0.43109 0.81773 0.60781 0.0
C526 C 0.45516 0.78798 0.89611 0.0
N527 N 0.43312 0.79238 0.87789 0.0
N528 N 0.42687 0.78759 0.81319 0.0
C529 C 0.44414 0.7795 0.78896 0.0
C530 C 0.4629 0.77957 0.84039 0.0
C531 C 0.46834 0.79174 0.96572 0.0
H532 H 0.46919 0.80394 0.97878 0.0
H533 H 0.48826 0.78955 0.96516 0.0
H534 H 0.45704 0.78487 0.00718 0.0
O535 O 0.37473 0.78637 0.92972 0.0
O536 O 0.36623 0.77834 0.81939 0.0
H537 H 0.41967 0.76573 0.71236 0.0
H538 H 0.44997 0.75997 0.72628 0.0
C539 C 0.44046 0.76994 0.72271 0.0
H540 H 0.44886 0.77696 0.67784 0.0
H541 H 0.3647 0.76842 0.6681 0.0
O542 O 0.41727 0.80294 0.03074 0.0
C543 C 0.36039 0.77808 0.88443 0.0
H544 H 0.24666 0.46801 0.21846 0.0
H545 H 0.26942 0.48959 0.42105 0.0
H546 H 0.23652 0.50559 0.40898 0.0
H547 H 0.23523 0.50139 0.13272 0.0
H548 H 0.20754 0.49167 0.08347 0.0
H549 H 0.23234 0.48154 0.10852 0.0
H550 H 0.19841 0.46131 0.17067 0.0
H551 H 0.17347 0.47131 0.14534 0.0
H552 H 0.1779 0.46735 0.23676 0.0
H553 H 0.20314 0.52002 0.37277 0.0
H554 H 0.16872 0.53098 0.31857 0.0
H555 H 0.16581 0.49954 0.14072 0.0
C556 C 0.24446 0.47604 0.26032 0.0
C557 C 0.2603 0.47756 0.32095 0.0
C558 C 0.25714 0.48817 0.37476 0.0
C559 C 0.23867 0.49735 0.3681 0.0
C560 C 0.2235 0.49571 0.30741 0.0
C561 C 0.22597 0.48525 0.25467 0.0
C562 C 0.20712 0.48582 0.19496 0.0
C563 C 0.22142 0.49038 0.12583 0.0
C564 C 0.1881 0.47054 0.18646 0.0
C565 C 0.19378 0.49829 0.2223 0.0
C566 C 0.20369 0.50386 0.28709 0.0
C567 C 0.19497 0.51562 0.32254 0.0
C568 C 0.1753 0.5217 0.29152 0.0
C569 C 0.16431 0.51592 0.22614 0.0
C570 C 0.17389 0.50417 0.19073 0.0
H571 H 0.06413 0.74409 0.14241 0.0
H572 H 0.07893 0.72332 0.33935 0.0
H573 H 0.04629 0.73539 0.39807 0.0
H574 H 0.05579 0.77991 0.21948 0.0
H575 H 0.03059 0.78228 0.15919 0.0
H576 H 0.05474 0.77174 0.13177 0.0
H577 H 0.01901 0.74848 0.09895 0.0
H578 H 0.99475 0.75895 0.1263 0.0
H579 H 0.99563 0.74074 0.16424 0.0
H580 H 0.01138 0.74907 0.43498 0.0
H581 H 0.97736 0.76427 0.44843 0.0
H582 H 0.98701 0.77755 0.23012 0.0
C583 C 0.06042 0.74203 0.1978 0.0
C584 C 0.07404 0.73271 0.23619 0.0
C585 C 0.06879 0.73043 0.3088 0.0
C586 C 0.05025 0.73721 0.34267 0.0
C587 C 0.03726 0.74636 0.30343 0.0
C588 C 0.04216 0.74886 0.23272 0.0
C589 C 0.0258 0.75945 0.20321 0.0
C590 C 0.04275 0.77422 0.17688 0.0
C591 C 0.00773 0.75142 0.14472 0.0
C592 C 0.01087 0.76243 0.26831 0.0
C593 C 0.01769 0.7547 0.32541 0.0
C594 C 0.00608 0.75532 0.39088 0.0
C595 C 0.98693 0.76408 0.39818 0.0
C596 C 0.97981 0.77222 0.3406 0.0
C597 C 0.99205 0.7714 0.27498 0.0
H598 H 0.33477 0.78006 0.00867 0.0
H599 H 0.33187 0.75353 0.814 0.0
H600 H 0.29171 0.73695 0.85345 0.0
H601 H 0.3081 0.74856 0.12456 0.0
H602 H 0.28968 0.75987 0.1752 0.0
H603 H 0.31951 0.76882 0.13506 0.0
H604 H 0.29589 0.78744 0.07065 0.0
H605 H 0.26606 0.77863 0.11082 0.0
H606 H 0.26821 0.77989 0.01633 0.0
H607 H 0.25124 0.72412 0.91046 0.0
H608 H 0.21085 0.71699 0.97718 0.0
H609 H 0.23882 0.75223 0.1336 0.0
C610 C 0.32589 0.77063 0.97474 0.0
C611 C 0.33654 0.76801 0.90839 0.0
C612 C 0.32406 0.75574 0.86498 0.0
C613 C 0.30135 0.74621 0.88715 0.0
C614 C 0.29134 0.74914 0.9527 0.0
C615 C 0.30306 0.76111 0.99571 0.0
C616 C 0.28721 0.76249 0.06118 0.0
C617 C 0.30202 0.75977 0.12795 0.0
C618 C 0.27884 0.77803 0.06491 0.0
C619 C 0.26445 0.7496 0.04755 0.0
C620 C 0.26751 0.74192 0.98516 0.0
C621 C 0.24869 0.72998 0.95952 0.0
C622 C 0.22584 0.72604 0.99761 0.0
C623 C 0.22189 0.73411 0.06015 0.0
C624 C 0.24164 0.7458 0.08635 0.0
H625 H 0.91016 0.47569 0.0256 0.0
H626 H 0.90742 0.5006 0.83243 0.0
H627 H 0.94591 0.51905 0.87009 0.0
H628 H 0.93535 0.5098 0.14126 0.0
H629 H 0.95585 0.4998 0.19033 0.0
H630 H 0.92591 0.48954 0.15343 0.0
H631 H 0.95054 0.47118 0.08797 0.0
H632 H 0.98053 0.48141 0.12418 0.0
H633 H 0.97666 0.47887 0.03014 0.0
H634 H 0.98682 0.53263 0.91838 0.0
H635 H 0.02831 0.54162 0.97843 0.0
H636 H 0.00574 0.50894 0.1438 0.0
C637 C 0.91732 0.48526 0.99223 0.0
C638 C 0.90576 0.48672 0.92609 0.0
C639 C 0.91598 0.49921 0.88315 0.0
C640 C 0.93777 0.50981 0.90422 0.0
C641 C 0.94913 0.50784 0.96857 0.0
C642 C 0.93928 0.49599 0.01244 0.0
C643 C 0.95663 0.49597 0.07629 0.0
C644 C 0.94259 0.49896 0.14437 0.0
C645 C 0.96668 0.48097 0.0798 0.0
C646 C 0.97814 0.50932 0.05988 0.0
C647 C 0.97314 0.51602 0.99765 0.0
C648 C 0.99079 0.52771 0.96783 0.0
C649 C 0.01435 0.53266 0.00209 0.0
C650 C 0.02006 0.52602 0.06577 0.0
C651 C 0.00156 0.51437 0.09582 0.0
H652 H 0.75905 0.47263 0.7029 0.0
H653 H 0.74525 0.46577 0.92686 0.0
H654 H 0.70331 0.4728 0.91352 0.0
H655 H 0.74041 0.5091 0.72125 0.0
H656 H 0.72856 0.50892 0.63215 0.0
H657 H 0.75406 0.49898 0.65267 0.0
H658 H 0.72692 0.47414 0.599 0.0
H659 H 0.7011 0.48396 0.57954 0.0
H660 H 0.69499 0.46707 0.63205 0.0
H661 H 0.66126 0.47919 0.87264 0.0
H662 H 0.62999 0.49332 0.8251 0.0
H663 H 0.68041 0.50698 0.64769 0.0
C664 C 0.74785 0.47284 0.75012 0.0
C665 C 0.75582 0.46786 0.81569 0.0
C666 C 0.73945 0.46822 0.87465 0.0
C667 C 0.71548 0.4725 0.86795 0.0
C668 C 0.70865 0.47745 0.80296 0.0
C669 C 0.725 0.47849 0.74616 0.0
C670 C 0.71583 0.4875 0.68748 0.0
C671 C 0.7359 0.50199 0.67254 0.0
C672 C 0.70933 0.47757 0.62055 0.0
C673 C 0.6917 0.4913 0.72056 0.0
C674 C 0.68729 0.4846 0.78543 0.0
C675 C 0.66513 0.48514 0.82355 0.0
C676 C 0.64768 0.49348 0.79654 0.0
C677 C 0.65337 0.50228 0.73508 0.0
C678 C 0.67541 0.50071 0.69536 0.0
H679 H 0.08093 0.24292 0.76809 0.0
H680 H 0.03967 0.20709 0.63051 0.0
H681 H 0.99935 0.21641 0.65187 0.0
H682 H 0.0293 0.24422 0.89436 0.0
H683 H 0.03646 0.26471 0.90332 0.0
H684 H 0.06181 0.25452 0.88257 0.0
H685 H 0.07315 0.27078 0.77141 0.0
H686 H 0.04793 0.28105 0.79197 0.0
H687 H 0.04834 0.27166 0.70731 0.0
H688 H 0.96379 0.22942 0.68724 0.0
H689 H 0.93559 0.24698 0.72463 0.0
H690 H 1.00012 0.27596 0.83102 0.0
C691 C 0.06329 0.23695 0.74333 0.0
C692 C 0.06326 0.22418 0.69828 0.0
C693 C 0.04003 0.21686 0.66532 0.0
C694 C 0.01704 0.22202 0.67741 0.0
C695 C 0.01769 0.23466 0.72179 0.0
C696 C 0.04022 0.24218 0.75357 0.0
C697 C 0.03587 0.25621 0.79438 0.0
C698 C 0.04117 0.25483 0.87335 0.0
C699 C 0.05229 0.27079 0.76446 0.0
C700 C 0.00741 0.25541 0.78023 0.0
C701 C 0.9973 0.24273 0.73918 0.0
C702 C 0.97151 0.23944 0.71895 0.0
C703 C 0.95569 0.24953 0.74007 0.0
C704 C 0.96576 0.26291 0.77985 0.0
C705 C 0.9919 0.26577 0.80099 0.0
H706 H 0.74571 0.23431 0.10736 0.0
H707 H 0.69305 0.2619 0.03042 0.0
H708 H 0.72901 0.27883 0.97237 0.0
H709 H 0.80131 0.26789 0.13739 0.0
H710 H 0.82472 0.25665 0.11189 0.0
H711 H 0.79533 0.24775 0.15441 0.0
H712 H 0.78563 0.22839 0.0501 0.0
H713 H 0.81463 0.23741 0.00656 0.0
H714 H 0.78402 0.23529 0.96193 0.0
H715 H 0.76821 0.28945 0.90445 0.0
H716 H 0.81124 0.29696 0.85045 0.0
H717 H 0.84029 0.26474 0.98102 0.0
C718 C 0.74205 0.24424 0.08039 0.0
C719 C 0.71669 0.24675 0.07223 0.0
C720 C 0.71239 0.25975 0.03631 0.0
C721 C 0.73265 0.26941 0.00319 0.0
C722 C 0.75724 0.26618 0.00858 0.0
C723 C 0.76229 0.25427 0.04833 0.0
C724 C 0.79054 0.25324 0.04392 0.0
C725 C 0.80375 0.25658 0.1162 0.0
C726 C 0.79388 0.23766 0.01382 0.0
C727 C 0.80014 0.26591 0.99287 0.0
C728 C 0.78052 0.27314 0.97282 0.0
C729 C 0.78395 0.2842 0.92111 0.0
C730 C 0.80828 0.28826 0.8902 0.0
C731 C 0.82887 0.28146 0.91209 0.0
C732 C 0.82479 0.2702 0.9642 0.0
H733 H 0.2748 0.99156 0.7637 0.0
H734 H 0.23509 0.94769 0.83706 0.0
H735 H 0.19308 0.95496 0.81282 0.0
H736 H 0.2302 0.0137 0.83393 0.0
H737 H 0.23299 0.02621 0.75984 0.0
H738 H 0.25963 0.0175 0.78399 0.0
H739 H 0.26029 0.00619 0.65749 0.0
H740 H 0.23349 0.01477 0.63311 0.0
H741 H 0.2314 0.99452 0.62131 0.0
H742 H 0.15562 0.96698 0.77891 0.0
H743 H 0.12525 0.98339 0.74352 0.0
H744 H 0.18951 0.01933 0.69131 0.0
C745 C 0.2572 0.98353 0.77464 0.0
C746 C 0.25797 0.96908 0.80212 0.0
C747 C 0.23472 0.95885 0.81639 0.0
C748 C 0.21087 0.96285 0.80241 0.0
C749 C 0.21073 0.97712 0.77422 0.0
C750 C 0.23329 0.98734 0.76086 0.0
C751 C 0.22788 0.00199 0.73093 0.0
C752 C 0.23829 0.01566 0.78012 0.0
C753 C 0.23892 0.00451 0.65628 0.0
C754 C 0.19873 0.99845 0.72965 0.0
C755 C 0.18921 0.98403 0.75459 0.0
C756 C 0.16285 0.97828 0.7593 0.0
C757 C 0.14579 0.98763 0.73908 0.0
C758 C 0.15518 0.00252 0.71477 0.0
C759 C 0.18194 0.00791 0.70914 0.0
H760 H 0.22071 0.23018 0.48735 0.0
H761 H 0.21504 0.25939 0.66924 0.0
H762 H 0.25633 0.27583 0.63727 0.0
H763 H 0.2886 0.2325 0.49166 0.0
H764 H 0.29262 0.2332 0.39747 0.0
H765 H 0.26257 0.22366 0.43429 0.0
H766 H 0.23803 0.24063 0.3621 0.0
H767 H 0.268 0.25019 0.32478 0.0
H768 H 0.24738 0.26107 0.36967 0.0
H769 H 0.29848 0.28824 0.58977 0.0
H770 H 0.33873 0.29714 0.52594 0.0
H771 H 0.31651 0.26111 0.36848 0.0
C772 C 0.22806 0.24014 0.51992 0.0
C773 C 0.21491 0.24345 0.58131 0.0
C774 C 0.22514 0.25649 0.62296 0.0
C775 C 0.24844 0.26594 0.60489 0.0
C776 C 0.26102 0.2623 0.54441 0.0
C777 C 0.25114 0.24982 0.50204 0.0
C778 C 0.26859 0.24859 0.43965 0.0
C779 C 0.27869 0.2336 0.44088 0.0
C780 C 0.25466 0.25022 0.36992 0.0
C781 C 0.29 0.26224 0.4542 0.0
C782 C 0.28516 0.26989 0.51516 0.0
C783 C 0.30241 0.28245 0.54166 0.0
C784 C 0.32529 0.28736 0.50505 0.0
C785 C 0.33075 0.27983 0.44211 0.0
C786 C 0.31272 0.26717 0.416 0.0
H787 H 0.93165 0.98614 0.3606 0.0
H788 H 0.87933 0.9893 0.53374 0.0
H789 H 0.9146 0.00496 0.6019 0.0
H790 H 0.98374 0.98148 0.46458 0.0
H791 H 0.00851 0.99272 0.41217 0.0
H792 H 0.97864 0.9835 0.37164 0.0
H793 H 0.97154 0.00942 0.32521 0.0
H794 H 0.00156 0.01872 0.36512 0.0
H795 H 0.97222 0.0252 0.38611 0.0
H796 H 0.95537 0.01743 0.65698 0.0
H797 H 1.00003 0.02732 0.69494 0.0
H798 H 0.02723 0.01669 0.48768 0.0
C799 C 0.92757 0.99053 0.41199 0.0
C800 C 0.90277 0.98656 0.44182 0.0
C801 C 0.89821 0.99218 0.50994 0.0
C802 C 0.91809 0.00113 0.54905 0.0
C803 C 0.94248 0.00444 0.51938 0.0
C804 C 0.94739 0.99947 0.45229 0.0
C805 C 0.97591 0.00378 0.43567 0.0
C806 C 0.98737 0.98952 0.42012 0.0
C807 C 0.98058 0.01495 0.37439 0.0
C808 C 0.98618 0.01151 0.5046 0.0
C809 C 0.96644 0.01183 0.55174 0.0
C810 C 0.97101 0.01749 0.62028 0.0
C811 C 0.99648 0.02299 0.64146 0.0
C812 C 0.01713 0.02284 0.59425 0.0
C813 C 0.01183 0.01713 0.52466 0.0
H814 H 0.66781 0.00215 0.15035 0.0
H815 H 0.66724 0.03092 0.33643 0.0
H816 H 0.70169 0.01972 0.38961 0.0
H817 H 0.67885 0.96897 0.23948 0.0
H818 H 0.70008 0.96373 0.17328 0.0
H819 H 0.67546 0.97405 0.14902 0.0
H820 H 0.70998 0.99513 0.09422 0.0
H821 H 0.73469 0.98481 0.11787 0.0
H822 H 0.73711 0.00433 0.147 0.0
H823 H 0.73588 0.00552 0.42288 0.0
H824 H 0.76908 0.98971 0.43256 0.0
H825 H 0.74775 0.96986 0.22577 0.0
C826 C 0.67517 0.00615 0.20196 0.0
C827 C 0.66481 0.01729 0.2397 0.0
C828 C 0.6747 0.02222 0.30727 0.0
C829 C 0.6943 0.01597 0.33775 0.0
C830 C 0.70388 0.00485 0.2998 0.0
C831 C 0.69481 1.00002 0.23325 0.0
C832 C 0.70858 0.98791 0.20398 0.0
C833 C 0.6896 0.97277 0.19067 0.0
C834 C 0.72348 0.99338 0.13679 0.0
C835 C 0.72675 0.9867 0.2645 0.0
C836 C 0.72365 0.99657 0.31924 0.0
C837 C 0.7384 0.99768 0.38058 0.0
C838 C 0.75704 0.98856 0.3859 0.0
C839 C 0.76066 0.97845 0.33035 0.0
C840 C 0.74523 0.97747 0.26907 0.0
H841 H 0.72658 0.72953 0.50873 0.0
H842 H 0.72606 0.75354 0.70915 0.0
H843 H 0.76744 0.77013 0.67976 0.0
H844 H 0.79475 0.7309 0.49863 0.0
H845 H 0.7967 0.73427 0.40534 0.0
H846 H 0.7673 0.72393 0.44257 0.0
H847 H 0.74201 0.74308 0.38914 0.0
H848 H 0.77133 0.75348 0.3516 0.0
H849 H 0.7522 0.76316 0.40845 0.0
H850 H 0.80856 0.78368 0.63078 0.0
H851 H 0.84703 0.79447 0.56314 0.0
H852 H 0.82052 0.76292 0.3896 0.0
C853 C 0.73518 0.73833 0.54617 0.0
C854 C 0.72338 0.74014 0.61171 0.0
C855 C 0.73513 0.75174 0.65949 0.0
C856 C 0.7585 0.76129 0.643 0.0
C857 C 0.76967 0.7592 0.57812 0.0
C858 C 0.75839 0.74811 0.53011 0.0
C859 C 0.77433 0.74856 0.46349 0.0
C860 C 0.78383 0.73352 0.45186 0.0
C861 C 0.75905 0.7523 0.39938 0.0
C862 C 0.79642 0.76158 0.48195 0.0
C863 C 0.79327 0.76745 0.54852 0.0
C864 C 0.81123 0.77925 0.57848 0.0
C865 C 0.83308 0.78526 0.53951 0.0
C866 C 0.83684 0.77955 0.47088 0.0
C867 C 0.81812 0.76759 0.44163 0.0
H868 H 0.49589 0.77691 0.73177 0.0
H869 H 0.47653 0.76176 0.94406 0.0
H870 H 0.51013 0.74612 0.93937 0.0
H871 H 0.50363 0.74034 0.66632 0.0
H872 H 0.52957 0.74778 0.60755 0.0
H873 H 0.50584 0.75902 0.62998 0.0
H874 H 0.54196 0.78112 0.67343 0.0
H875 H 0.56582 0.76997 0.65093 0.0
H876 H 0.56455 0.77754 0.7392 0.0
H877 H 0.54537 0.732 0.9114 0.0
H878 H 0.57848 0.71915 0.86019 0.0
H879 H 0.57211 0.74134 0.66138 0.0
C880 C 0.49884 0.77035 0.77737 0.0
C881 C 0.48398 0.7708 0.83889 0.0
C882 C 0.48825 0.76199 0.89729 0.0
C883 C 0.50712 0.75295 0.89483 0.0
C884 C 0.52123 0.75264 0.83311 0.0
C885 C 0.51718 0.761 0.77518 0.0
C886 C 0.53388 0.7579 0.71383 0.0
C887 C 0.51723 0.75084 0.6507 0.0
C888 C 0.55267 0.77251 0.69316 0.0
C889 C 0.54796 0.7465 0.74641 0.0
C890 C 0.54056 0.74378 0.81552 0.0
C891 C 0.55125 0.73397 0.85728 0.0
C892 C 0.57006 0.72675 0.82772 0.0
C893 C 0.57774 0.72919 0.75673 0.0
C894 C 0.5664 0.73914 0.71553 0.0
H895 H 0.52453 0.51681 0.49807 0.0
H896 H 0.50073 0.51916 0.71633 0.0
H897 H 0.45634 0.50752 0.68227 0.0
H898 H 0.46553 0.52477 0.41921 0.0
H899 H 0.46567 0.51151 0.34666 0.0
H900 H 0.49562 0.52085 0.38674 0.0
H901 H 0.50752 0.49462 0.40988 0.0
H902 H 0.47769 0.4852 0.36969 0.0
H903 H 0.48551 0.48056 0.45803 0.0
H904 H 0.41543 0.49484 0.62762 0.0
H905 H 0.37982 0.48079 0.55538 0.0
H906 H 0.429 0.48624 0.37087 0.0
C907 C 0.50994 0.51498 0.5386 0.0
C908 C 0.51617 0.51895 0.60994 0.0
C909 C 0.49652 0.51624 0.66139 0.0
C910 C 0.47118 0.50968 0.64257 0.0
C911 C 0.46572 0.50589 0.57207 0.0
C912 C 0.48445 0.50837 0.52075 0.0
C913 C 0.47342 0.50256 0.44929 0.0
C914 C 0.47516 0.51571 0.39742 0.0
C915 C 0.48683 0.48999 0.42003 0.0
C916 C 0.44567 0.49622 0.46893 0.0
C917 C 0.44175 0.49842 0.54002 0.0
C918 C 0.41816 0.49312 0.5718 0.0
C919 C 0.39806 0.48511 0.53019 0.0
C920 C 0.40159 0.48242 0.45736 0.0
C921 C 0.42564 0.48828 0.42614 0.0
H922 H 0.46151 0.25445 0.25011 0.0
H923 H 0.50595 0.29462 0.35452 0.0
H924 H 0.54599 0.28519 0.33008 0.0
H925 H 0.49961 0.22748 0.30033 0.0
H926 H 0.49709 0.21766 0.2161 0.0
H927 H 0.47175 0.22713 0.24513 0.0
H928 H 0.47634 0.24288 0.13111 0.0
H929 H 0.50168 0.23344 0.10164 0.0
H930 H 0.50736 0.25395 0.10823 0.0
H931 H 0.58074 0.27091 0.29921 0.0
H932 H 0.60878 0.25378 0.25432 0.0
H933 H 0.54274 0.22453 0.15604 0.0
C934 C 0.4797 0.26131 0.26726 0.0
C935 C 0.48063 0.27518 0.30498 0.0
C936 C 0.50476 0.28379 0.32703 0.0
C937 C 0.5276 0.27859 0.31289 0.0
C938 C 0.52602 0.26493 0.27524 0.0
C939 C 0.50276 0.25651 0.25174 0.0
C940 C 0.50658 0.24254 0.20967 0.0
C941 C 0.49295 0.22783 0.24494 0.0
C942 C 0.49745 0.24325 0.13312 0.0
C943 C 0.53562 0.24433 0.21399 0.0
C944 C 0.54637 0.25724 0.25288 0.0
C945 C 0.57263 0.2609 0.26781 0.0
C946 C 0.58835 0.25112 0.24231 0.0
C947 C 0.57786 0.23804 0.20117 0.0
C948 C 0.5512 0.23466 0.18631 0.0
H949 H 0.40943 0.97685 0.01643 0.0
H950 H 0.41929 0.9921 0.80043 0.0
H951 H 0.45987 0.00918 0.83372 0.0
H952 H 0.43674 0.01389 0.10048 0.0
H953 H 0.4525 0.00554 0.16953 0.0
H954 H 0.42314 0.99505 0.13051 0.0
H955 H 0.44599 0.97266 0.10038 0.0
H956 H 0.47543 0.98308 0.13901 0.0
H957 H 0.47515 0.97615 0.04922 0.0
H958 H 0.50008 0.02319 0.88605 0.0
H959 H 0.53826 0.03426 0.95621 0.0
H960 H 0.50354 0.01073 0.14088 0.0
C961 C 0.41997 0.98393 0.97638 0.0
C962 C 0.4111 0.98311 0.9057 0.0
C963 C 0.42562 0.99247 0.8548 0.0
C964 C 0.44871 0.00225 0.87318 0.0
C965 C 0.45706 0.00263 0.94277 0.0
C966 C 0.4432 0.99382 0.99385 0.0
C967 C 0.45726 0.99613 0.06424 0.0
C968 C 0.44146 0.00307 0.11945 0.0
C969 C 0.46385 0.98111 0.08968 0.0
C970 C 0.48136 0.00742 0.04413 0.0
C971 C 0.48063 0.01098 0.97374 0.0
C972 C 0.50084 0.02061 0.94137 0.0
C973 C 0.52253 0.02678 0.98181 0.0
C974 C 0.52395 0.02337 0.05418 0.0
C975 C 0.50292 0.01365 0.08591 0.0
H976 H 0.07405 0.52806 0.5428 0.0
H977 H 0.11362 0.5727 0.477 0.0
H978 H 0.1339 0.57742 0.59407 0.0
H979 H 0.05903 0.54024 0.71433 0.0
H980 H 0.06288 0.52287 0.75601 0.0
H981 H 0.05341 0.52249 0.66486 0.0
H982 H 0.09217 0.51004 0.63116 0.0
H983 H 0.1019 0.51053 0.72228 0.0
H984 H 0.12427 0.51936 0.65678 0.0
H985 H 0.14879 0.57768 0.71999 0.0
H986 H 0.15376 0.57457 0.84768 0.0
H987 H 0.10294 0.53023 0.83352 0.0
C988 C 0.08713 0.5388 0.5527 0.0
C989 C 0.09293 0.54977 0.49936 0.0
C990 C 0.10975 0.56378 0.5153 0.0
C991 C 0.12123 0.56664 0.58214 0.0
C992 C 0.11546 0.55545 0.63292 0.0
C993 C 0.09856 0.54188 0.61926 0.0
C994 C 0.09421 0.53219 0.68438 0.0
C995 C 0.0657 0.52929 0.70617 0.0
C996 C 0.10371 0.51714 0.67294 0.0
C997 C 0.11104 0.54252 0.73715 0.0
C998 C 0.1234 0.5558 0.70614 0.0
C999 C 0.1393 0.56731 0.74476 0.0
C1000 C 0.14205 0.56541 0.81735 0.0
C1001 C 0.12879 0.55215 0.85086 0.0
C1002 C 0.11356 0.54043 0.80958 0.0
H1003 H 0.1046 0.69643 0.76996 0.0
H1004 H 0.14807 0.7425 0.79624 0.0
H1005 H 0.1653 0.74136 0.67562 0.0
H1006 H 0.15108 0.68139 0.65611 0.0
H1007 H 0.12606 0.67034 0.6017 0.0
H1008 H 0.11994 0.67395 0.69321 0.0
H1009 H 0.08067 0.68563 0.65801 0.0
H1010 H 0.08656 0.68194 0.5667 0.0
H1011 H 0.08499 0.701 0.59637 0.0
H1012 H 0.17569 0.73584 0.55071 0.0
H1013 H 0.17452 0.72764 0.42585 0.0
H1014 H 0.12245 0.68558 0.47809 0.0
C1015 C 0.11808 0.70613 0.75035 0.0
C1016 C 0.12526 0.71952 0.79186 0.0
C1017 C 0.14244 0.73217 0.76468 0.0
C1018 C 0.15246 0.73157 0.69666 0.0
C1019 C 0.1449 0.71825 0.65648 0.0
C1020 C 0.12788 0.70581 0.68195 0.0
C1021 C 0.1207 0.69356 0.62536 0.0
C1022 C 0.13001 0.67894 0.6453 0.0
C1023 C 0.09151 0.69035 0.61075 0.0
C1024 C 0.13577 0.70122 0.56371 0.0
C1025 C 0.1501 0.71529 0.58327 0.0
C1026 C 0.16471 0.72479 0.5348 0.0
C1027 C 0.16397 0.72001 0.46397 0.0
C1028 C 0.14836 0.70597 0.44212 0.0
C1029 C 0.13468 0.69632 0.49317 0.0
H1030 H 0.86564 0.44382 0.47998 0.0
H1031 H 0.8187 0.47839 0.49222 0.0
H1032 H 0.80382 0.47215 0.36947 0.0
H1033 H 0.88826 0.45277 0.3111 0.0
H1034 H 0.88907 0.43349 0.28342 0.0
H1035 H 0.89235 0.4388 0.3752 0.0
H1036 H 0.85374 0.41719 0.40418 0.0
H1037 H 0.85026 0.41186 0.31214 0.0
H1038 H 0.82329 0.41641 0.36019 0.0
H1039 H 0.79673 0.46357 0.24429 0.0
H1040 H 0.8019 0.45579 0.12099 0.0
H1041 H 0.85589 0.42788 0.18747 0.0
C1042 C 0.8518 0.44978 0.45689 0.0
C1043 C 0.84292 0.4614 0.4948 0.0
C1044 C 0.82545 0.46938 0.46333 0.0
C1045 C 0.8168 0.46583 0.39415 0.0
C1046 C 0.82608 0.45438 0.35745 0.0
C1047 C 0.84342 0.44659 0.38741 0.0
C1048 C 0.85296 0.43623 0.33394 0.0
C1049 C 0.8824 0.44059 0.32541 0.0
C1050 C 0.84455 0.41943 0.35381 0.0
C1051 C 0.83893 0.43979 0.26869 0.0
C1052 C 0.82298 0.44995 0.28391 0.0
C1053 C 0.80899 0.45552 0.23175 0.0
C1054 C 0.81207 0.45101 0.16181 0.0
C1055 C 0.82941 0.44127 0.14453 0.0
C1056 C 0.8424 0.43527 0.19904 0.0
H1057 H 0.93396 0.32154 0.18589 0.0
H1058 H 0.88175 0.28457 0.07999 0.0
H1059 H 0.86412 0.27512 0.19462 0.0
H1060 H 0.94774 0.29846 0.33356 0.0
H1061 H 0.94996 0.31393 0.39689 0.0
H1062 H 0.95824 0.31787 0.30625 0.0
H1063 H 0.92529 0.33582 0.30189 0.0
H1064 H 0.91659 0.33172 0.39216 0.0
H1065 H 0.89214 0.32858 0.32443 0.0
H1066 H 0.8505 0.27057 0.31873 0.0
H1067 H 0.84509 0.26917 0.44743 0.0
H1068 H 0.90951 0.30721 0.47432 0.0
C1069 C 0.91904 0.31137 0.18738 0.0
C1070 C 0.90923 0.30367 0.12483 0.0
C1071 C 0.88966 0.29044 0.12789 0.0
C1072 C 0.87942 0.28507 0.19252 0.0
C1073 C 0.88931 0.29294 0.25349 0.0
C1074 C 0.90905 0.30559 0.25183 0.0
C1075 C 0.91677 0.31148 0.32562 0.0
C1076 C 0.94484 0.31036 0.34151 0.0
C1077 C 0.91243 0.32787 0.33663 0.0
C1078 C 0.89801 0.30031 0.3686 0.0
C1079 C 0.88215 0.28986 0.3258 0.0
C1080 C 0.86291 0.27863 0.35298 0.0
C1081 C 0.85999 0.27794 0.42614 0.0
C1082 C 0.87637 0.28832 0.47142 0.0
C1083 C 0.89579 0.29955 0.44185 0.0
H1084 H 0.10013 0.06595 0.33472 0.0
H1085 H 0.12659 0.02462 0.38965 0.0
H1086 H 0.12362 0.01635 0.26511 0.0
H1087 H 0.05394 0.04976 0.21761 0.0
H1088 H 0.05878 0.06487 0.15463 0.0
H1089 H 0.06722 0.06906 0.24556 0.0
H1090 H 0.11391 0.08119 0.21066 0.0
H1091 H 0.10552 0.07731 0.1192 0.0
H1092 H 0.13228 0.07041 0.15682 0.0
H1093 H 0.11002 0.01031 0.14108 0.0
H1094 H 0.09204 0.00852 0.02018 0.0
H1095 H 0.07651 0.05416 0.04326 0.0
C1096 C 0.1061 0.0554 0.32025 0.0
C1097 C 0.11347 0.04591 0.37191 0.0
C1098 C 0.12089 0.0321 0.351 0.0
C1099 C 0.11927 0.02729 0.28035 0.0
C1100 C 0.11069 0.03655 0.23123 0.0
C1101 C 0.10481 0.05049 0.24983 0.0
C1102 C 0.09429 0.05773 0.1876 0.0
C1103 C 0.06694 0.06051 0.20227 0.0
C1104 C 0.1126 0.07254 0.16737 0.0
C1105 C 0.09403 0.04536 0.13211 0.0
C1106 C 0.10365 0.03325 0.15835 0.0
C1107 C 0.10308 0.01986 0.11926 0.0
C1108 C 0.09263 0.01887 0.0512 0.0
C1109 C 0.08319 0.03125 0.02318 0.0
C1110 C 0.08406 0.04468 0.06372 0.0
H1111 H 0.12567 0.18573 0.26777 0.0
H1112 H 0.13972 0.23454 0.30618 0.0
H1113 H 0.15879 0.23881 0.18803 0.0
H1114 H 0.18362 0.18509 0.1516 0.0
H1115 H 0.16552 0.17053 0.09449 0.0
H1116 H 0.15782 0.17109 0.18686 0.0
H1117 H 0.11051 0.17207 0.1552 0.0
H1118 H 0.11806 0.1715 0.06312 0.0
H1119 H 0.104 0.18684 0.09846 0.0
H1120 H 0.16968 0.23811 0.06203 0.0
H1121 H 0.1705 0.2325 0.9345 0.0
H1122 H 0.14951 0.18411 0.97533 0.0
C1123 C 0.13353 0.19724 0.25166 0.0
C1124 C 0.13147 0.20982 0.29548 0.0
C1125 C 0.14121 0.22479 0.2728 0.0
C1126 C 0.15225 0.22731 0.20617 0.0
C1127 C 0.1534 0.21472 0.16299 0.0
C1128 C 0.14438 0.19996 0.1847 0.0
C1129 C 0.14489 0.1886 0.1248 0.0
C1130 C 0.16411 0.17821 0.14038 0.0
C1131 C 0.11776 0.17921 0.10951 0.0
C1132 C 0.15433 0.19934 0.06544 0.0
C1133 C 0.15966 0.21433 0.08905 0.0
C1134 C 0.16613 0.22641 0.04301 0.0
C1135 C 0.16646 0.22312 0.97068 0.0
C1136 C 0.16024 0.20788 0.94519 0.0
C1137 C 0.1549 0.19585 0.99344 0.0
H1138 H 0.8434 0.97488 0.95192 0.0
H1139 H 0.83903 0.92935 0.03198 0.0
H1140 H 0.82547 0.91841 0.91504 0.0
H1141 H 0.78931 0.96571 0.82727 0.0
H1142 H 0.80543 0.97829 0.76122 0.0
H1143 H 0.81224 0.98257 0.8532 0.0
H1144 H 0.86089 0.98373 0.83073 0.0
H1145 H 0.85424 0.97955 0.73878 0.0
H1146 H 0.87118 0.96767 0.78903 0.0
H1147 H 0.81519 0.91239 0.78763 0.0
H1148 H 0.81146 0.91188 0.65799 0.0
H1149 H 0.82332 0.96131 0.65976 0.0
C1150 C 0.83925 0.9626 0.94498 0.0
C1151 C 0.84135 0.95297 0.00191 0.0
C1152 C 0.83636 0.93697 0.99034 0.0
C1153 C 0.82886 0.93063 0.92373 0.0
C1154 C 0.82662 0.94043 0.86899 0.0
C1155 C 0.83181 0.95608 0.87874 0.0
C1156 C 0.82969 0.9641 0.81006 0.0
C1157 C 0.80786 0.9732 0.81315 0.0
C1158 C 0.85554 0.97436 0.79105 0.0
C1159 C 0.82308 0.95052 0.75999 0.0
C1160 C 0.82112 0.93697 0.79513 0.0
C1161 C 0.81644 0.92292 0.75956 0.0
C1162 C 0.81433 0.92275 0.68589 0.0
C1163 C 0.81701 0.93653 0.64862 0.0
C1164 C 0.82088 0.95055 0.68662 0.0
H1165 H 0.8807 0.81004 0.00697 0.0
H1166 H 0.91674 0.77062 0.01752 0.0
H1167 H 0.93263 0.77506 0.8954 0.0
H1168 H 0.8576 0.8026 0.83245 0.0
H1169 H 0.86219 0.82235 0.8087 0.0
H1170 H 0.85645 0.81707 0.89906 0.0
H1171 H 0.89863 0.83555 0.93594 0.0
H1172 H 0.90458 0.84079 0.84539 0.0
H1173 H 0.92858 0.83362 0.89506 0.0
H1174 H 0.94324 0.78335 0.77141 0.0
H1175 H 0.94324 0.79266 0.64996 0.0
H1176 H 0.89775 0.82576 0.71769 0.0
C1177 C 0.89222 0.80251 0.98349 0.0
C1178 C 0.89781 0.79008 0.02098 0.0
C1179 C 0.91243 0.78021 0.98901 0.0
C1180 C 0.92163 0.78271 0.92012 0.0
C1181 C 0.91574 0.79506 0.88406 0.0
C1182 C 0.90108 0.80467 0.91429 0.0
C1183 C 0.89538 0.81618 0.862 0.0
C1184 C 0.86618 0.81444 0.84983 0.0
C1185 C 0.90752 0.8325 0.88605 0.0
C1186 C 0.90873 0.81138 0.79728 0.0
C1187 C 0.92085 0.7994 0.81157 0.0
C1188 C 0.93389 0.79276 0.75965 0.0
C1189 C 0.93387 0.79817 0.69081 0.0
C1190 C 0.92047 0.80993 0.67425 0.0
C1191 C 0.90825 0.81681 0.72872 0.0
H1192 H 0.56923 0.55225 0.05753 0.0
H1193 H 0.59863 0.51061 0.02816 0.0
H1194 H 0.61681 0.5135 0.14867 0.0
H1195 H 0.62216 0.57284 0.17142 0.0
H1196 H 0.60049 0.58105 0.22652 0.0
H1197 H 0.59281 0.57688 0.13484 0.0
H1198 H 0.54893 0.56027 0.16936 0.0
H1199 H 0.55638 0.56453 0.26078 0.0
H1200 H 0.54835 0.54498 0.23022 0.0
H1201 H 0.62892 0.51977 0.27324 0.0
H1202 H 0.62976 0.52722 0.3988 0.0
H1203 H 0.59138 0.56449 0.34912 0.0
C1204 C 0.57985 0.54392 0.0765 0.0
C1205 C 0.58277 0.53127 0.03428 0.0
C1206 C 0.59623 0.52034 0.06044 0.0
C1207 C 0.60684 0.52199 0.12827 0.0
C1208 C 0.60366 0.53459 0.16898 0.0
C1209 C 0.59027 0.54529 0.14448 0.0
C1210 C 0.58718 0.55681 0.20155 0.0
C1211 C 0.60152 0.57285 0.18242 0.0
C1212 C 0.55852 0.55662 0.21635 0.0
C1213 C 0.60014 0.55059 0.26252 0.0
C1214 C 0.61007 0.538 0.24207 0.0
C1215 C 0.62147 0.5297 0.2899 0.0
C1216 C 0.62185 0.53403 0.3611 0.0
C1217 C 0.61055 0.54641 0.3837 0.0
C1218 C 0.60036 0.55507 0.33336 0.0
H1219 H 0.63725 0.68047 0.01064 0.0
H1220 H 0.67874 0.72572 0.95938 0.0
H1221 H 0.67946 0.7332 0.085 0.0
H1222 H 0.5965 0.69146 0.12896 0.0
H1223 H 0.59599 0.67627 0.19031 0.0
H1224 H 0.60299 0.67334 0.0991 0.0
H1225 H 0.64616 0.66579 0.13327 0.0
H1226 H 0.63913 0.66845 0.225 0.0
H1227 H 0.66888 0.6785 0.18826 0.0
H1228 H 0.66827 0.73728 0.20998 0.0
H1229 H 0.64974 0.73682 0.3296 0.0
H1230 H 0.61712 0.68877 0.30209 0.0
C1231 C 0.64726 0.6918 0.02605 0.0
C1232 C 0.65788 0.70252 0.97516 0.0
C1233 C 0.67052 0.71729 0.9974 0.0
C1234 C 0.67104 0.72165 0.06869 0.0
C1235 C 0.65926 0.71103 0.11711 0.0
C1236 C 0.64808 0.6963 0.09704 0.0
C1237 C 0.63475 0.68751 0.15848 0.0
C1238 C 0.60585 0.68182 0.14327 0.0
C1239 C 0.64803 0.67428 0.17737 0.0
C1240 C 0.63905 0.69984 0.21528 0.0
C1241 C 0.65342 0.71329 0.19041 0.0
C1242 C 0.65761 0.72672 0.23068 0.0
C1243 C 0.64686 0.72641 0.29808 0.0
C1244 C 0.6323 0.71274 0.32446 0.0
C1245 C 0.62866 0.69925 0.28311 0.0
H1246 H 0.36395 0.44435 0.9869 0.0
H1247 H 0.32555 0.48284 0.00344 0.0
H1248 H 0.30948 0.47791 0.88094 0.0
H1249 H 0.38653 0.45208 0.81438 0.0
H1250 H 0.38306 0.43238 0.78699 0.0
H1251 H 0.38847 0.4377 0.87836 0.0
H1252 H 0.34707 0.41851 0.91134 0.0
H1253 H 0.34144 0.41322 0.81977 0.0
H1254 H 0.31685 0.41984 0.87039 0.0
H1255 H 0.29917 0.46945 0.75591 0.0
H1256 H 0.30013 0.46048 0.63258 0.0
H1257 H 0.34789 0.42854 0.69451 0.0
C1258 C 0.35183 0.45155 0.9647 0.0
C1259 C 0.34566 0.46386 0.00403 0.0
C1260 C 0.33032 0.47333 0.97357 0.0
C1261 C 0.32098 0.47054 0.90447 0.0
C1262 C 0.32748 0.45834 0.86657 0.0
C1263 C 0.34284 0.44912 0.89524 0.0
C1264 C 0.34928 0.43783 0.84093 0.0
C1265 C 0.37857 0.44015 0.82949 0.0
C1266 C 0.33798 0.42137 0.86187 0.0
C1267 C 0.33561 0.44235 0.77689 0.0
C1268 C 0.32261 0.45394 0.7933 0.0
C1269 C 0.30918 0.46033 0.74245 0.0
C1270 C 0.30977 0.45511 0.67252 0.0
C1271 C 0.32411 0.44381 0.65384 0.0
C1272 C 0.33666 0.43713 0.70718 0.0
H1273 H 0.37195 0.30681 0.9797 0.0
H1274 H 0.41123 0.26872 0.99317 0.0
H1275 H 0.42748 0.27344 0.8718 0.0
H1276 H 0.35066 0.29898 0.80269 0.0
H1277 H 0.35418 0.31873 0.7796 0.0
H1278 H 0.34777 0.31316 0.86936 0.0
H1279 H 0.38854 0.33245 0.90985 0.0
H1280 H 0.39522 0.33795 0.81993 0.0
H1281 H 0.41929 0.33132 0.87163 0.0
H1282 H 0.43883 0.28204 0.74917 0.0
H1283 H 0.43959 0.29146 0.62793 0.0
H1284 H 0.39085 0.32312 0.69166 0.0
C1285 C 0.38413 0.29958 0.95695 0.0
C1286 C 0.39058 0.28749 0.99526 0.0
C1287 C 0.40614 0.27803 0.96409 0.0
C1288 C 0.41561 0.28071 0.89565 0.0
C1289 C 0.40906 0.29279 0.85912 0.0
C1290 C 0.39335 0.30193 0.88821 0.0
C1291 C 0.38742 0.31331 0.83558 0.0
C1292 C 0.35828 0.31089 0.82094 0.0
C1293 C 0.39827 0.32973 0.86077 0.0
C1294 C 0.40192 0.30898 0.77205 0.0
C1295 C 0.41473 0.29735 0.78726 0.0
C1296 C 0.42892 0.29117 0.73661 0.0
C1297 C 0.42932 0.29665 0.66788 0.0
C1298 C 0.41522 0.30801 0.65019 0.0
C1299 C 0.4019 0.31448 0.70356 0.0
H1300 H 0.57723 0.06082 0.52929 0.0
H1301 H 0.58682 0.01413 0.49923 0.0
H1302 H 0.60476 0.01437 0.61974 0.0
H1303 H 0.63421 0.07409 0.64365 0.0
H1304 H 0.61746 0.0855 0.6991 0.0
H1305 H 0.60871 0.0824 0.60746 0.0
H1306 H 0.56138 0.07172 0.64234 0.0
H1307 H 0.56997 0.07489 0.7338 0.0
H1308 H 0.55459 0.05616 0.70281 0.0
H1309 H 0.61915 0.01913 0.74535 0.0
H1310 H 0.62421 0.02696 0.87076 0.0
H1311 H 0.60314 0.07014 0.82148 0.0
C1312 C 0.58357 0.05078 0.54802 0.0
C1313 C 0.58093 0.03749 0.50544 0.0
C1314 C 0.58878 0.0244 0.53156 0.0
C1315 C 0.59915 0.02448 0.59955 0.0
C1316 C 0.60132 0.03771 0.64085 0.0
C1317 C 0.59351 0.05058 0.61639 0.0
C1318 C 0.59533 0.06271 0.67391 0.0
C1319 C 0.61511 0.07702 0.65488 0.0
C1320 C 0.56874 0.06659 0.68911 0.0
C1321 C 0.60476 0.05452 0.73486 0.0
C1322 C 0.60868 0.04026 0.71427 0.0
C1323 C 0.61634 0.03033 0.76203 0.0
C1324 C 0.61926 0.03489 0.83316 0.0
C1325 C 0.61409 0.04916 0.85597 0.0
C1326 C 0.6074 0.0592 0.80564 0.0
H1327 H 0.6025 0.21964 0.72092 0.0
H1328 H 0.66058 0.19832 0.81738 0.0
H1329 H 0.67772 0.19374 0.70034 0.0
H1330 H 0.59171 0.1965 0.56288 0.0
H1331 H 0.58906 0.21233 0.50785 0.0
H1332 H 0.58014 0.21267 0.59921 0.0
H1333 H 0.612 0.23843 0.61719 0.0
H1334 H 0.6212 0.23807 0.52602 0.0
H1335 H 0.6454 0.23978 0.59415 0.0
H1336 H 0.68807 0.1911 0.57028 0.0
H1337 H 0.69182 0.19201 0.44008 0.0
H1338 H 0.6303 0.21773 0.43274 0.0
C1339 C 0.61861 0.21382 0.71744 0.0
C1340 C 0.62922 0.20861 0.77834 0.0
C1341 C 0.65088 0.20151 0.77158 0.0
C1342 C 0.66115 0.19912 0.70516 0.0
C1343 C 0.65004 0.20429 0.64618 0.0
C1344 C 0.62942 0.21165 0.6519 0.0
C1345 C 0.6218 0.21685 0.58111 0.0
C1346 C 0.59403 0.20912 0.56163 0.0
C1347 C 0.62532 0.23432 0.57956 0.0
C1348 C 0.64119 0.21115 0.53454 0.0
C1349 C 0.65722 0.20382 0.57268 0.0
C1350 C 0.67582 0.19698 0.53996 0.0
C1351 C 0.67785 0.19756 0.46619 0.0
C1352 C 0.66167 0.20514 0.42657 0.0
C1353 C 0.64337 0.21213 0.46163 0.0
H1354 H 0.36913 0.94343 0.46466 0.0
H1355 H 0.32123 0.97749 0.48131 0.0
H1356 H 0.3053 0.97113 0.35971 0.0
H1357 H 0.38956 0.95224 0.2931 0.0
H1358 H 0.39038 0.93292 0.26597 0.0
H1359 H 0.39481 0.93853 0.35722 0.0
H1360 H 0.35698 0.91677 0.39038 0.0
H1361 H 0.35228 0.91121 0.29882 0.0
H1362 H 0.32589 0.9157 0.34959 0.0
H1363 H 0.29687 0.96239 0.2359 0.0
H1364 H 0.30092 0.95469 0.11215 0.0
H1365 H 0.35621 0.92715 0.17335 0.0
C1366 C 0.35498 0.94933 0.44268 0.0
C1367 C 0.34611 0.96081 0.48154 0.0
C1368 C 0.32811 0.96864 0.45156 0.0
C1369 C 0.31879 0.96499 0.38315 0.0
C1370 C 0.3279 0.95358 0.34578 0.0
C1371 C 0.34585 0.946 0.37404 0.0
C1372 C 0.35485 0.93559 0.31992 0.0
C1373 C 0.38413 0.9401 0.30837 0.0
C1374 C 0.34702 0.91882 0.34095 0.0
C1375 C 0.33982 0.9389 0.25616 0.0
C1376 C 0.32385 0.94897 0.27286 0.0
C1377 C 0.30914 0.95442 0.22216 0.0
C1378 C 0.31161 0.94997 0.15196 0.0
C1379 C 0.32904 0.9404 0.13306 0.0
C1380 C 0.34261 0.93439 0.18623 0.0
H1381 H 0.39408 0.79946 0.14969 0.0
H1382 H 0.47269 0.82491 0.1532 0.0
H1383 H 0.47477 0.82111 0.28215 0.0
H1384 H 0.37524 0.81441 0.31545 0.0
H1385 H 0.3547 0.79665 0.33818 0.0
H1386 H 0.35982 0.80156 0.24709 0.0
H1387 H 0.37519 0.77617 0.22301 0.0
H1388 H 0.3704 0.77121 0.3141 0.0
H1389 H 0.40143 0.77174 0.27412 0.0
H1390 H 0.46871 0.81255 0.40914 0.0
H1391 H 0.45392 0.80274 0.52513 0.0
H1392 H 0.37801 0.78487 0.43762 0.0
C1393 C 0.41174 0.80427 0.17758 0.0
C1394 C 0.43333 0.81237 0.14188 0.0
C1395 C 0.45597 0.8187 0.18003 0.0
C1396 C 0.45732 0.81653 0.25296 0.0
C1397 C 0.43572 0.80824 0.28641 0.0
C1398 C 0.41324 0.80245 0.24997 0.0
C1399 C 0.3925 0.79425 0.2978 0.0
C1400 C 0.3692 0.8022 0.29975 0.0
C1401 C 0.38442 0.77734 0.27594 0.0
C1402 C 0.40689 0.79614 0.36706 0.0
C1403 C 0.43182 0.80412 0.35951 0.0
C1404 C 0.44901 0.80667 0.416 0.0
C1405 C 0.44026 0.80121 0.48218 0.0
C1406 C 0.4144 0.7936 0.4916 0.0
C1407 C 0.39777 0.79084 0.43267 0.0
H1408 H 0.10435 0.59555 0.2289 0.0
H1409 H 0.09527 0.58623 0.00404 0.0
H1410 H 0.09668 0.61341 0.98338 0.0
H1411 H 0.06695 0.62564 0.23914 0.0
H1412 H 0.08839 0.63718 0.30144 0.0
H1413 H 0.0853 0.61676 0.30021 0.0
H1414 H 0.13461 0.61974 0.28374 0.0
H1415 H 0.13785 0.64016 0.28523 0.0
H1416 H 0.14999 0.63074 0.21158 0.0
H1417 H 0.09871 0.64123 0.98557 0.0
H1418 H 0.10533 0.66886 0.00979 0.0
H1419 H 0.11556 0.66097 0.23216 0.0
C1420 C 0.10252 0.59927 0.17551 0.0
C1421 C 0.09964 0.58877 0.11815 0.0
C1422 C 0.09763 0.59407 0.04883 0.0
C1423 C 0.09825 0.60948 0.03647 0.0
C1424 C 0.10115 0.61954 0.09383 0.0
C1425 C 0.10356 0.61475 0.16191 0.0
C1426 C 0.10793 0.62821 0.21331 0.0
C1427 C 0.08582 0.62686 0.26668 0.0
C1428 C 0.13416 0.6298 0.25065 0.0
C1429 C 0.10765 0.64121 0.16323 0.0
C1430 C 0.10334 0.63587 0.09476 0.0
C1431 C 0.10216 0.64559 0.03896 0.0
C1432 C 0.10587 0.66127 0.0533 0.0
C1433 C 0.11105 0.6671 0.12277 0.0
C1434 C 0.11172 0.65687 0.17845 0.0
H1435 H 0.86665 0.40598 0.92379 0.0
H1436 H 0.87813 0.41852 0.7046 0.0
H1437 H 0.89447 0.39491 0.68053 0.0
H1438 H 0.92348 0.38895 0.94113 0.0
H1439 H 0.90757 0.37398 0.99706 0.0
H1440 H 0.89775 0.39218 0.99802 0.0
H1441 H 0.85079 0.37888 0.96908 0.0
H1442 H 0.86041 0.36066 0.96876 0.0
H1443 H 0.84448 0.3664 0.89279 0.0
H1444 H 0.90698 0.36928 0.67858 0.0
H1445 H 0.9138 0.34315 0.69835 0.0
H1446 H 0.89564 0.34762 0.91948 0.0
C1447 C 0.87266 0.40381 0.8707 0.0
C1448 C 0.87109 0.41414 0.81606 0.0
C1449 C 0.87919 0.41083 0.7474 0.0
C1450 C 0.88858 0.39746 0.73323 0.0
C1451 C 0.88998 0.38758 0.78836 0.0
C1452 C 0.88225 0.39059 0.85573 0.0
C1453 C 0.88489 0.37784 0.90505 0.0
C1454 C 0.9046 0.38359 0.96378 0.0
C1455 C 0.85858 0.37051 0.93569 0.0
C1456 C 0.89484 0.36704 0.85457 0.0
C1457 C 0.89776 0.37292 0.78759 0.0
C1458 C 0.90509 0.36464 0.73095 0.0
C1459 C 0.90892 0.34982 0.74268 0.0
C1460 C 0.90554 0.34345 0.81056 0.0
C1461 C 0.899 0.35234 0.86744 0.0
H1462 H 0.10808 0.08979 0.58088 0.0
H1463 H 0.1019 0.08313 0.80671 0.0
H1464 H 0.10721 0.11083 0.82602 0.0
H1465 H 0.15589 0.12514 0.58849 0.0
H1466 H 0.14176 0.13354 0.51648 0.0
H1467 H 0.13858 0.11315 0.5199 0.0
H1468 H 0.08896 0.11001 0.51179 0.0
H1469 H 0.09197 0.13039 0.50877 0.0
H1470 H 0.07229 0.11974 0.57526 0.0
H1471 H 0.11201 0.13876 0.8219 0.0
H1472 H 0.11651 0.16586 0.79515 0.0
H1473 H 0.11911 0.15513 0.57141 0.0
C1474 C 0.10814 0.09418 0.63441 0.0
C1475 C 0.10463 0.08426 0.69235 0.0
C1476 C 0.10451 0.09046 0.76151 0.0
C1477 C 0.10754 0.10619 0.77307 0.0
C1478 C 0.11059 0.11561 0.71495 0.0
C1479 C 0.11096 0.10991 0.64697 0.0
C1480 C 0.11389 0.12264 0.59398 0.0
C1481 C 0.13903 0.12367 0.55226 0.0
C1482 C 0.09037 0.12057 0.54454 0.0
C1483 C 0.11499 0.13634 0.643 0.0
C1484 C 0.11313 0.13194 0.71248 0.0
C1485 C 0.1136 0.14238 0.76776 0.0
C1486 C 0.11623 0.15779 0.75185 0.0
C1487 C 0.11831 0.16269 0.68111 0.0
C1488 C 0.11752 0.15176 0.62594 0.0
H1489 H 0.86253 0.90847 0.44378 0.0
H1490 H 0.86151 0.91586 0.21857 0.0
H1491 H 0.87469 0.8912 0.19678 0.0
H1492 H 0.91895 0.89148 0.44312 0.0
H1493 H 0.90715 0.87806 0.51074 0.0
H1494 H 0.89702 0.89614 0.50885 0.0
H1495 H 0.84921 0.88232 0.50544 0.0
H1496 H 0.85919 0.8642 0.50789 0.0
H1497 H 0.83851 0.86808 0.43781 0.0
H1498 H 0.88644 0.86532 0.19932 0.0
H1499 H 0.89715 0.84035 0.2264 0.0
H1500 H 0.89324 0.85059 0.44988 0.0
C1501 C 0.86492 0.90486 0.38985 0.0
C1502 C 0.8608 0.91404 0.33282 0.0
C1503 C 0.86449 0.909 0.26308 0.0
C1504 C 0.872 0.89502 0.25015 0.0
C1505 C 0.87609 0.8863 0.30755 0.0
C1506 C 0.87282 0.89105 0.37602 0.0
C1507 C 0.87887 0.87965 0.42832 0.0
C1508 C 0.90187 0.88676 0.47553 0.0
C1509 C 0.85502 0.87318 0.47245 0.0
C1510 C 0.8858 0.86767 0.37851 0.0
C1511 C 0.88394 0.87169 0.30907 0.0
C1512 C 0.88822 0.86211 0.25349 0.0
C1513 C 0.8943 0.84797 0.26934 0.0
C1514 C 0.89635 0.84364 0.34015 0.0
C1515 C 0.89233 0.85373 0.39527 0.0
H1516 H 0.62277 0.65576 0.58371 0.0
H1517 H 0.5981 0.66474 0.7956 0.0
H1518 H 0.58749 0.63726 0.81718 0.0
H1519 H 0.57435 0.62 0.55191 0.0
H1520 H 0.59677 0.61072 0.50498 0.0
H1521 H 0.60014 0.63115 0.50243 0.0
H1522 H 0.64708 0.63426 0.54763 0.0
H1523 H 0.64378 0.61386 0.55111 0.0
H1524 H 0.65337 0.62547 0.62881 0.0
H1525 H 0.58292 0.60974 0.82128 0.0
H1526 H 0.58211 0.58244 0.80597 0.0
H1527 H 0.60971 0.58985 0.59134 0.0
C1528 C 0.61456 0.65184 0.63384 0.0
C1529 C 0.61117 0.66232 0.68805 0.0
C1530 C 0.60091 0.65687 0.75358 0.0
C1531 C 0.59477 0.64129 0.76634 0.0
C1532 C 0.59903 0.63124 0.71305 0.0
C1533 C 0.60848 0.63615 0.64788 0.0
C1534 C 0.61239 0.6227 0.60181 0.0
C1535 C 0.59486 0.62105 0.5364 0.0
C1536 C 0.64085 0.62416 0.58114 0.0
C1537 C 0.60407 0.60962 0.65197 0.0
C1538 C 0.59638 0.61493 0.71558 0.0
C1539 C 0.58861 0.60536 0.7715 0.0
C1540 C 0.58834 0.58982 0.7622 0.0
C1541 C 0.59578 0.5839 0.69733 0.0
C1542 C 0.60384 0.594 0.64148 0.0
H1543 H 0.35836 0.40591 0.43276 0.0
H1544 H 0.3614 0.41593 0.20978 0.0
H1545 H 0.37531 0.3916 0.18436 0.0
H1546 H 0.41484 0.3891 0.43541 0.0
H1547 H 0.40188 0.37484 0.49841 0.0
H1548 H 0.39157 0.39289 0.49922 0.0
H1549 H 0.34397 0.37898 0.48686 0.0
H1550 H 0.35411 0.3609 0.48674 0.0
H1551 H 0.33478 0.36553 0.41514 0.0
H1552 H 0.38765 0.36587 0.18289 0.0
H1553 H 0.39793 0.34061 0.20585 0.0
H1554 H 0.38912 0.34802 0.43009 0.0
C1555 C 0.36175 0.40293 0.37852 0.0
C1556 C 0.35864 0.41276 0.32316 0.0
C1557 C 0.36364 0.40856 0.253 0.0
C1558 C 0.37157 0.39478 0.23804 0.0
C1559 C 0.37472 0.38542 0.2939 0.0
C1560 C 0.37004 0.38932 0.36274 0.0
C1561 C 0.37519 0.37733 0.41316 0.0
C1562 C 0.39718 0.38394 0.46457 0.0
C1563 C 0.35054 0.37027 0.45278 0.0
C1564 C 0.38324 0.366 0.36182 0.0
C1565 C 0.38276 0.37086 0.29327 0.0
C1566 C 0.3883 0.36199 0.23638 0.0
C1567 C 0.39409 0.34767 0.24987 0.0
C1568 C 0.39455 0.34244 0.31967 0.0
C1569 C 0.38943 0.35186 0.37629 0.0
H1570 H 0.62431 0.16203 0.23775 0.0
H1571 H 0.58373 0.16664 0.04259 0.0
H1572 H 0.57191 0.13881 0.03046 0.0
H1573 H 0.65056 0.13049 0.18336 0.0
H1574 H 0.64674 0.12092 0.26647 0.0
H1575 H 0.65044 0.14134 0.26429 0.0
H1576 H 0.60775 0.13982 0.3327 0.0
H1577 H 0.60395 0.11937 0.3353 0.0
H1578 H 0.57871 0.12787 0.29895 0.0
H1579 H 0.56814 0.11112 0.03125 0.0
H1580 H 0.57081 0.08423 0.04837 0.0
H1581 H 0.61171 0.09638 0.24558 0.0
C1582 C 0.61258 0.15717 0.19313 0.0
C1583 C 0.60508 0.16658 0.14094 0.0
C1584 C 0.58993 0.15975 0.08302 0.0
C1585 C 0.58297 0.14391 0.07574 0.0
C1586 C 0.59105 0.13499 0.12711 0.0
C1587 C 0.60531 0.14128 0.18507 0.0
C1588 C 0.61236 0.12889 0.23067 0.0
C1589 C 0.64177 0.13051 0.2365 0.0
C1590 C 0.59994 0.129 0.30374 0.0
C1591 C 0.60038 0.11474 0.18807 0.0
C1592 C 0.58816 0.11864 0.12866 0.0
C1593 C 0.57721 0.10786 0.07812 0.0
C1594 C 0.57891 0.09266 0.08814 0.0
C1595 C 0.59119 0.08834 0.14849 0.0
C1596 C 0.60179 0.09945 0.19974 0.0
H1597 H 0.38879 0.8459 0.92638 0.0
H1598 H 0.39288 0.8356 0.7028 0.0
H1599 H 0.38307 0.86073 0.67557 0.0
H1600 H 0.33549 0.86496 0.91426 0.0
H1601 H 0.34733 0.87903 0.98171 0.0
H1602 H 0.35575 0.86048 0.98409 0.0
H1603 H 0.40423 0.87296 0.98641 0.0
H1604 H 0.39595 0.89156 0.98446 0.0
H1605 H 0.41707 0.88609 0.91854 0.0
H1606 H 0.37277 0.88688 0.67237 0.0
H1607 H 0.36208 0.91221 0.6934 0.0
H1608 H 0.36317 0.90522 0.91897 0.0
C1609 C 0.38787 0.84899 0.87171 0.0
C1610 C 0.3917 0.8388 0.81671 0.0
C1611 C 0.38998 0.8432 0.74582 0.0
C1612 C 0.38445 0.85746 0.72979 0.0
C1613 C 0.38051 0.86715 0.7852 0.0
C1614 C 0.38209 0.86312 0.85471 0.0
C1615 C 0.37634 0.8755 0.90424 0.0
C1616 C 0.3523 0.86963 0.94868 0.0
C1617 C 0.3998 0.8819 0.95117 0.0
C1618 C 0.37132 0.88712 0.85166 0.0
C1619 C 0.37395 0.8821 0.78331 0.0
C1620 C 0.37061 0.89093 0.72566 0.0
C1621 C 0.36455 0.90531 0.73816 0.0
C1622 C 0.36169 0.9107 0.80778 0.0
C1623 C 0.36501 0.90139 0.86512 0.0
loop_
_geom_bond_atom_site_label_1
_geom_bond_atom_site_label_2
_geom_bond_distance
_geom_bond_site_symmetry_2
_ccdc_geom_bond_type
Co0 O3 1.970 . S
Co0 N17 1.989 . S
Co0 O25 1.967 . S
Co0 O32 1.920 1_554 S
Co1 O4 1.966 . S
Co1 N10 2.022 . S
Co1 N18 1.993 . S
Co1 O26 1.941 . S
C2 O3 1.258 . S
C2 O4 1.263 . S
O3 Co0 1.970 . S
O3 C2 1.258 . S
O4 Co1 1.966 . S
O4 C2 1.263 . S
C5 O6 1.235 . S
C5 O32 1.289 . S
O6 C5 1.235 . S
C7 C9 1.400 . S
C7 N10 1.351 . S
C7 C12 1.501 . S
C8 C9 1.387 . S
C8 N11 1.341 . S
C9 C7 1.400 . S
C9 C8 1.387 . S
N10 Co1 2.022 . S
N10 C7 1.351 . S
N10 N11 1.365 . S
N11 C8 1.341 . S
N11 N10 1.365 . S
N11 H31 0.862 . S
C12 C7 1.501 . S
C12 H13 0.961 . S
C12 H14 0.961 . S
C12 H15 0.960 . S
H13 C12 0.961 . S
H14 C12 0.961 . S
H15 C12 0.960 . S
C16 N17 1.342 . S
C16 C20 1.401 . S
C16 C21 1.499 . S
N17 Co0 1.989 . S
N17 C16 1.342 . S
N17 N18 1.388 . S
N18 Co1 1.993 . S
N18 N17 1.388 . S
N18 C19 1.346 . S
C19 N18 1.346 . S
C19 C20 1.396 . S
C19 C29 1.510 . S
C20 C16 1.401 . S
C20 C19 1.396 . S
C21 C16 1.499 . S
C21 H22 0.959 . S
C21 H23 0.960 . S
C21 H24 0.961 . S
H22 C21 0.959 . S
H23 C21 0.960 . S
H24 C21 0.961 . S
O25 Co0 1.967 . S
O25 C33 1.258 . S
O26 Co1 1.941 . S
O26 C33 1.266 . S
H27 C29 0.959 . S
H28 C29 0.961 . S
C29 C19 1.510 . S
C29 H27 0.959 . S
C29 H28 0.961 . S
C29 H30 0.960 . S
H30 C29 0.960 . S
H31 N11 0.862 . S
O32 Co0 1.920 1_556 S
O32 C5 1.289 . S
C33 O25 1.258 . S
C33 O26 1.266 . S
Co34 O37 1.970 . S
Co34 N51 1.989 . S
Co34 O59 1.967 . S
Co34 O66 1.920 . S
Co35 O38 1.966 . S
Co35 N44 2.022 1_554 S
Co35 N52 1.993 . S
Co35 O60 1.941 . S
C36 O37 1.258 . S
C36 O38 1.263 . S
O37 Co34 1.970 . S
O37 C36 1.258 . S
O38 Co35 1.966 . S
O38 C36 1.263 . S
C39 O40 1.235 . S
C39 O66 1.289 . S
O40 C39 1.235 . S
C41 C43 1.400 . S
C41 N44 1.351 . S
C41 C46 1.501 . S
C42 C43 1.387 . S
C42 N45 1.341 . S
C43 C41 1.400 . S
C43 C42 1.387 . S
N44 Co35 2.022 1_556 S
N44 C41 1.351 . S
N44 N45 1.365 . S
N45 C42 1.341 . S
N45 N44 1.365 . S
N45 H65 0.862 . S
C46 C41 1.501 . S
C46 H47 0.961 . S
C46 H48 0.961 . S
C46 H49 0.960 . S
H47 C46 0.961 . S
H48 C46 0.961 . S
H49 C46 0.960 . S
C50 N51 1.342 . S
C50 C54 1.401 . S
C50 C55 1.499 . S
N51 Co34 1.989 . S
N51 C50 1.342 . S
N51 N52 1.388 . S
N52 Co35 1.993 . S
N52 N51 1.388 . S
N52 C53 1.346 . S
C53 N52 1.346 . S
C53 C54 1.396 . S
C53 C63 1.510 1_554 S
C54 C50 1.401 . S
C54 C53 1.396 . S
C55 C50 1.499 . S
C55 H56 0.959 . S
C55 H57 0.960 . S
C55 H58 0.961 . S
H56 C55 0.959 . S
H57 C55 0.960 . S
H58 C55 0.961 . S
O59 Co34 1.967 . S
O59 C67 1.258 . S
O60 Co35 1.941 . S
O60 C67 1.266 . S
H61 C63 0.959 . S
H62 C63 0.961 . S
C63 C53 1.510 1_556 S
C63 H61 0.959 . S
C63 H62 0.961 . S
C63 H64 0.960 . S
H64 C63 0.960 . S
H65 N45 0.862 . S
O66 Co34 1.920 . S
O66 C39 1.289 . S
C67 O59 1.258 . S
C67 O60 1.266 . S
Co68 O71 1.970 . S
Co68 N85 1.989 . S
Co68 O93 1.967 . S
Co68 O100 1.920 1_556 S
Co69 O72 1.966 . S
Co69 N78 2.022 . S
Co69 N86 1.993 . S
Co69 O94 1.941 . S
C70 O71 1.258 . S
C70 O72 1.263 . S
O71 Co68 1.970 . S
O71 C70 1.258 . S
O72 Co69 1.966 . S
O72 C70 1.263 . S
C73 O74 1.235 . S
C73 O100 1.289 . S
O74 C73 1.235 . S
C75 C77 1.400 . S
C75 N78 1.351 . S
C75 C80 1.501 . S
C76 C77 1.387 . S
C76 N79 1.341 . S
C77 C75 1.400 . S
C77 C76 1.387 . S
N78 Co69 2.022 . S
N78 C75 1.351 . S
N78 N79 1.365 . S
N79 C76 1.341 . S
N79 N78 1.365 . S
N79 H99 0.862 . S
C80 C75 1.501 . S
C80 H81 0.961 . S
C80 H82 0.961 . S
C80 H83 0.960 . S
H81 C80 0.961 . S
H82 C80 0.961 . S
H83 C80 0.960 . S
C84 N85 1.342 . S
C84 C88 1.401 . S
C84 C89 1.499 . S
N85 Co68 1.989 . S
N85 C84 1.342 . S
N85 N86 1.388 . S
N86 Co69 1.993 . S
N86 N85 1.388 . S
N86 C87 1.346 . S
C87 N86 1.346 . S
C87 C88 1.396 . S
C87 C97 1.510 . S
C88 C84 1.401 . S
C88 C87 1.396 . S
C89 C84 1.499 . S
C89 H90 0.959 1_556 S
C89 H91 0.960 1_556 S
C89 H92 0.961 1_556 S
H90 C89 0.959 1_554 S
H91 C89 0.960 1_554 S
H92 C89 0.961 1_554 S
O93 Co68 1.967 . S
O93 C101 1.258 . S
O94 Co69 1.941 . S
O94 C101 1.266 . S
H95 C97 0.959 . S
H96 C97 0.961 . S
C97 C87 1.510 . S
C97 H95 0.959 . S
C97 H96 0.961 . S
C97 H98 0.960 . S
H98 C97 0.960 . S
H99 N79 0.862 . S
O100 Co68 1.920 1_554 S
O100 C73 1.289 . S
C101 O93 1.258 . S
C101 O94 1.266 . S
Co102 O105 1.970 . S
Co102 N119 1.989 . S
Co102 O127 1.967 . S
Co102 O134 1.920 1_556 S
Co103 O106 1.966 . S
Co103 N112 2.022 . S
Co103 N120 1.993 . S
Co103 O128 1.941 . S
C104 O105 1.258 . S
C104 O106 1.263 . S
O105 Co102 1.970 . S
O105 C104 1.258 . S
O106 Co103 1.966 . S
O106 C104 1.263 . S
C107 O108 1.235 . S
C107 O134 1.289 . S
O108 C107 1.235 . S
C109 C111 1.400 . S
C109 N112 1.351 . S
C109 C114 1.501 . S
C110 C111 1.387 . S
C110 N113 1.341 . S
C111 C109 1.400 . S
C111 C110 1.387 . S
N112 Co103 2.022 . S
N112 C109 1.351 . S
N112 N113 1.365 . S
N113 C110 1.341 . S
N113 N112 1.365 . S
N113 H133 0.862 . S
C114 C109 1.501 . S
C114 H115 0.961 . S
C114 H116 0.961 . S
C114 H117 0.960 . S
H115 C114 0.961 . S
H116 C114 0.961 . S
H117 C114 0.960 . S
C118 N119 1.342 . S
C118 C122 1.401 . S
C118 C123 1.499 . S
N119 Co102 1.989 . S
N119 C118 1.342 . S
N119 N120 1.388 . S
N120 Co103 1.993 . S
N120 N119 1.388 . S
N120 C121 1.346 . S
C121 N120 1.346 . S
C121 C122 1.396 . S
C121 C131 1.510 . S
C122 C118 1.401 . S
C122 C121 1.396 . S
C123 C118 1.499 . S
C123 H124 0.959 1_556 S
C123 H125 0.960 . S
C123 H126 0.961 . S
H124 C123 0.959 1_554 S
H125 C123 0.960 . S
H126 C123 0.961 . S
O127 Co102 1.967 . S
O127 C135 1.258 . S
O128 Co103 1.941 . S
O128 C135 1.266 . S
H129 C131 0.959 . S
H130 C131 0.961 . S
C131 C121 1.510 . S
C131 H129 0.959 . S
C131 H130 0.961 . S
C131 H132 0.960 . S
H132 C131 0.960 . S
H133 N113 0.862 . S
O134 Co102 1.920 1_554 S
O134 C107 1.289 . S
C135 O127 1.258 . S
C135 O128 1.266 . S
Co136 O139 1.970 . S
Co136 N153 1.989 . S
Co136 O161 1.967 . S
Co136 O168 1.920 . S
Co137 O140 1.966 . S
Co137 N146 2.022 . S
Co137 N154 1.993 . S
Co137 O162 1.941 . S
C138 O139 1.258 . S
C138 O140 1.263 . S
O139 Co136 1.970 . S
O139 C138 1.258 . S
O140 Co137 1.966 . S
O140 C138 1.263 . S
C141 O142 1.235 . S
C141 O168 1.289 . S
O142 C141 1.235 . S
C143 C145 1.400 . S
C143 N146 1.351 . S
C143 C148 1.501 . S
C144 C145 1.387 . S
C144 N147 1.341 . S
C145 C143 1.400 . S
C145 C144 1.387 . S
N146 Co137 2.022 . S
N146 C143 1.351 . S
N146 N147 1.365 . S
N147 C144 1.341 . S
N147 N146 1.365 . S
N147 H167 0.862 . S
C148 C143 1.501 . S
C148 H149 0.961 . S
C148 H150 0.961 . S
C148 H151 0.960 . S
H149 C148 0.961 . S
H150 C148 0.961 . S
H151 C148 0.960 . S
C152 N153 1.342 . S
C152 C156 1.401 . S
C152 C157 1.499 . S
N153 Co136 1.989 . S
N153 C152 1.342 . S
N153 N154 1.388 . S
N154 Co137 1.993 . S
N154 N153 1.388 . S
N154 C155 1.346 . S
C155 N154 1.346 . S
C155 C156 1.396 . S
C155 C165 1.510 . S
C156 C152 1.401 . S
C156 C155 1.396 . S
C157 C152 1.499 . S
C157 H158 0.959 . S
C157 H159 0.960 . S
C157 H160 0.961 . S
H158 C157 0.959 . S
H159 C157 0.960 . S
H160 C157 0.961 . S
O161 Co136 1.967 . S
O161 C169 1.258 . S
O162 Co137 1.941 . S
O162 C169 1.266 . S
H163 C165 0.959 . S
H164 C165 0.961 . S
C165 C155 1.510 . S
C165 H163 0.959 . S
C165 H164 0.961 . S
C165 H166 0.960 . S
H166 C165 0.960 . S
H167 N147 0.862 . S
O168 Co136 1.920 . S
O168 C141 1.289 . S
C169 O161 1.258 . S
C169 O162 1.266 . S
Co170 O173 1.970 . S
Co170 N187 1.989 . S
Co170 O195 1.967 . S
Co170 O202 1.920 . S
Co171 O174 1.966 . S
Co171 N180 2.022 . S
Co171 N188 1.993 . S
Co171 O196 1.941 . S
C172 O173 1.258 . S
C172 O174 1.263 . S
O173 Co170 1.970 . S
O173 C172 1.258 . S
O174 Co171 1.966 . S
O174 C172 1.263 . S
C175 O176 1.235 . S
C175 O202 1.289 . S
O176 C175 1.235 . S
C177 C179 1.400 . S
C177 N180 1.351 . S
C177 C182 1.501 . S
C178 C179 1.387 . S
C178 N181 1.341 . S
C179 C177 1.400 . S
C179 C178 1.387 . S
N180 Co171 2.022 . S
N180 C177 1.351 . S
N180 N181 1.365 . S
N181 C178 1.341 . S
N181 N180 1.365 . S
N181 H201 0.862 . S
C182 C177 1.501 . S
C182 H183 0.961 . S
C182 H184 0.961 . S
C182 H185 0.960 . S
H183 C182 0.961 . S
H184 C182 0.961 . S
H185 C182 0.960 . S
C186 N187 1.342 . S
C186 C190 1.401 . S
C186 C191 1.499 . S
N187 Co170 1.989 . S
N187 C186 1.342 . S
N187 N188 1.388 . S
N188 Co171 1.993 . S
N188 N187 1.388 . S
N188 C189 1.346 . S
C189 N188 1.346 . S
C189 C190 1.396 . S
C189 C199 1.510 . S
C190 C186 1.401 . S
C190 C189 1.396 . S
C191 C186 1.499 . S
C191 H192 0.959 . S
C191 H193 0.960 . S
C191 H194 0.961 . S
H192 C191 0.959 . S
H193 C191 0.960 . S
H194 C191 0.961 . S
O195 Co170 1.967 . S
O195 C203 1.258 . S
O196 Co171 1.941 . S
O196 C203 1.266 . S
H197 C199 0.959 . S
H198 C199 0.961 . S
C199 C189 1.510 . S
C199 H197 0.959 . S
C199 H198 0.961 . S
C199 H200 0.960 . S
H200 C199 0.960 . S
H201 N181 0.862 . S
O202 Co170 1.920 . S
O202 C175 1.289 . S
C203 O195 1.258 . S
C203 O196 1.266 . S
Co204 O207 1.970 . S
Co204 N221 1.989 . S
Co204 O229 1.967 . S
Co204 O236 1.920 . S
Co205 O208 1.966 . S
Co205 N214 2.022 . S
Co205 N222 1.993 . S
Co205 O230 1.941 . S
C206 O207 1.258 . S
C206 O208 1.263 . S
O207 Co204 1.970 . S
O207 C206 1.258 . S
O208 Co205 1.966 . S
O208 C206 1.263 . S
C209 O210 1.235 . S
C209 O236 1.289 . S
O210 C209 1.235 . S
C211 C213 1.400 . S
C211 N214 1.351 . S
C211 C216 1.501 . S
C212 C213 1.387 . S
C212 N215 1.341 . S
C213 C211 1.400 . S
C213 C212 1.387 . S
N214 Co205 2.022 . S
N214 C211 1.351 . S
N214 N215 1.365 . S
N215 C212 1.341 . S
N215 N214 1.365 . S
N215 H235 0.862 . S
C216 C211 1.501 . S
C216 H217 0.961 . S
C216 H218 0.961 . S
C216 H219 0.960 . S
H217 C216 0.961 . S
H218 C216 0.961 . S
H219 C216 0.960 . S
C220 N221 1.342 . S
C220 C224 1.401 . S
C220 C225 1.499 . S
N221 Co204 1.989 . S
N221 C220 1.342 . S
N221 N222 1.388 . S
N222 Co205 1.993 . S
N222 N221 1.388 . S
N222 C223 1.346 . S
C223 N222 1.346 . S
C223 C224 1.396 . S
C223 C233 1.510 . S
C224 C220 1.401 . S
C224 C223 1.396 . S
C225 C220 1.499 . S
C225 H226 0.959 . S
C225 H227 0.960 . S
C225 H228 0.961 . S
H226 C225 0.959 . S
H227 C225 0.960 . S
H228 C225 0.961 . S
O229 Co204 1.967 . S
O229 C237 1.258 . S
O230 Co205 1.941 . S
O230 C237 1.266 . S
H231 C233 0.959 . S
H232 C233 0.961 . S
C233 C223 1.510 . S
C233 H231 0.959 . S
C233 H232 0.961 . S
C233 H234 0.960 . S
H234 C233 0.960 . S
H235 N215 0.862 . S
O236 Co204 1.920 . S
O236 C209 1.289 . S
C237 O229 1.258 . S
C237 O230 1.266 . S
Co238 O241 1.970 . S
Co238 N255 1.989 . S
Co238 O263 1.967 . S
Co238 O270 1.920 . S
Co239 O242 1.966 . S
Co239 N248 2.022 . S
Co239 N256 1.993 . S
Co239 O264 1.941 . S
C240 O241 1.258 . S
C240 O242 1.263 . S
O241 Co238 1.970 . S
O241 C240 1.258 . S
O242 Co239 1.966 . S
O242 C240 1.263 . S
C243 O244 1.235 . S
C243 O270 1.289 . S
O244 C243 1.235 . S
C245 C247 1.400 . S
C245 N248 1.351 . S
C245 C250 1.501 . S
C246 C247 1.387 . S
C246 N249 1.341 . S
C247 C245 1.400 . S
C247 C246 1.387 . S
N248 Co239 2.022 . S
N248 C245 1.351 . S
N248 N249 1.365 . S
N249 C246 1.341 . S
N249 N248 1.365 . S
N249 H269 0.862 . S
C250 C245 1.501 . S
C250 H251 0.961 . S
C250 H252 0.961 . S
C250 H253 0.960 . S
H251 C250 0.961 . S
H252 C250 0.961 . S
H253 C250 0.960 . S
C254 N255 1.342 . S
C254 C258 1.401 . S
C254 C259 1.499 . S
N255 Co238 1.989 . S
N255 C254 1.342 . S
N255 N256 1.388 . S
N256 Co239 1.993 . S
N256 N255 1.388 . S
N256 C257 1.346 . S
C257 N256 1.346 . S
C257 C258 1.396 . S
C257 C267 1.510 . S
C258 C254 1.401 . S
C258 C257 1.396 . S
C259 C254 1.499 . S
C259 H260 0.959 . S
C259 H261 0.960 . S
C259 H262 0.961 . S
H260 C259 0.959 . S
H261 C259 0.960 . S
H262 C259 0.961 . S
O263 Co238 1.967 . S
O263 C271 1.258 . S
O264 Co239 1.941 . S
O264 C271 1.266 . S
H265 C267 0.959 . S
H266 C267 0.961 . S
C267 C257 1.510 . S
C267 H265 0.959 . S
C267 H266 0.961 . S
C267 H268 0.960 . S
H268 C267 0.960 . S
H269 N249 0.862 . S
O270 Co238 1.920 . S
O270 C243 1.289 . S
C271 O263 1.258 . S
C271 O264 1.266 . S
Co272 O275 1.970 . S
Co272 N289 1.989 . S
Co272 O297 1.967 . S
Co272 O304 1.920 . S
Co273 O276 1.966 . S
Co273 N282 2.022 . S
Co273 N290 1.993 . S
Co273 O298 1.941 . S
C274 O275 1.258 . S
C274 O276 1.263 . S
O275 Co272 1.970 . S
O275 C274 1.258 . S
O276 Co273 1.966 . S
O276 C274 1.263 . S
C277 O278 1.235 . S
C277 O304 1.289 . S
O278 C277 1.235 . S
C279 C281 1.400 . S
C279 N282 1.351 . S
C279 C284 1.501 . S
C280 C281 1.387 . S
C280 N283 1.341 . S
C281 C279 1.400 . S
C281 C280 1.387 . S
N282 Co273 2.022 . S
N282 C279 1.351 . S
N282 N283 1.365 . S
N283 C280 1.341 . S
N283 N282 1.365 . S
N283 H303 0.862 . S
C284 C279 1.501 . S
C284 H285 0.961 . S
C284 H286 0.961 . S
C284 H287 0.960 . S
H285 C284 0.961 . S
H286 C284 0.961 . S
H287 C284 0.960 . S
C288 N289 1.342 . S
C288 C292 1.401 . S
C288 C293 1.499 . S
N289 Co272 1.989 . S
N289 C288 1.342 . S
N289 N290 1.388 . S
N290 Co273 1.993 . S
N290 N289 1.388 . S
N290 C291 1.346 . S
C291 N290 1.346 . S
C291 C292 1.396 . S
C291 C301 1.510 . S
C292 C288 1.401 . S
C292 C291 1.396 . S
C293 C288 1.499 . S
C293 H294 0.959 . S
C293 H295 0.960 . S
C293 H296 0.961 . S
H294 C293 0.959 . S
H295 C293 0.960 . S
H296 C293 0.961 . S
O297 Co272 1.967 . S
O297 C305 1.258 . S
O298 Co273 1.941 . S
O298 C305 1.266 . S
H299 C301 0.959 . S
H300 C301 0.961 . S
C301 C291 1.510 . S
C301 H299 0.959 . S
C301 H300 0.961 . S
C301 H302 0.960 . S
H302 C301 0.960 . S
H303 N283 0.862 . S
O304 Co272 1.920 . S
O304 C277 1.289 . S
C305 O297 1.258 . S
C305 O298 1.266 . S
Co306 O309 1.970 . S
Co306 N323 1.989 . S
Co306 O331 1.967 . S
Co306 O338 1.920 . S
Co307 O310 1.966 . S
Co307 N316 2.022 . S
Co307 N324 1.993 . S
Co307 O332 1.941 . S
C308 O309 1.258 . S
C308 O310 1.263 . S
O309 Co306 1.970 . S
O309 C308 1.258 . S
O310 Co307 1.966 . S
O310 C308 1.263 . S
C311 O312 1.235 . S
C311 O338 1.289 . S
O312 C311 1.235 . S
C313 C315 1.400 . S
C313 N316 1.351 . S
C313 C318 1.501 . S
C314 C315 1.387 . S
C314 N317 1.341 . S
C315 C313 1.400 . S
C315 C314 1.387 . S
N316 Co307 2.022 . S
N316 C313 1.351 . S
N316 N317 1.365 . S
N317 C314 1.341 . S
N317 N316 1.365 . S
N317 H337 0.862 . S
C318 C313 1.501 . S
C318 H319 0.961 . S
C318 H320 0.961 . S
C318 H321 0.960 . S
H319 C318 0.961 . S
H320 C318 0.961 . S
H321 C318 0.960 . S
C322 N323 1.342 . S
C322 C326 1.401 . S
C322 C327 1.499 . S
N323 Co306 1.989 . S
N323 C322 1.342 . S
N323 N324 1.388 . S
N324 Co307 1.993 . S
N324 N323 1.388 . S
N324 C325 1.346 . S
C325 N324 1.346 . S
C325 C326 1.396 . S
C325 C335 1.510 . S
C326 C322 1.401 . S
C326 C325 1.396 . S
C327 C322 1.499 . S
C327 H328 0.959 . S
C327 H329 0.960 . S
C327 H330 0.961 . S
H328 C327 0.959 . S
H329 C327 0.960 . S
H330 C327 0.961 . S
O331 Co306 1.967 . S
O331 C339 1.258 . S
O332 Co307 1.941 . S
O332 C339 1.266 . S
H333 C335 0.959 . S
H334 C335 0.961 . S
C335 C325 1.510 . S
C335 H333 0.959 . S
C335 H334 0.961 . S
C335 H336 0.960 . S
H336 C335 0.960 . S
H337 N317 0.862 . S
O338 Co306 1.920 . S
O338 C311 1.289 . S
C339 O331 1.258 . S
C339 O332 1.266 . S
Co340 O343 1.970 . S
Co340 N357 1.989 . S
Co340 O365 1.967 . S
Co340 O372 1.920 . S
Co341 O344 1.966 . S
Co341 N350 2.022 . S
Co341 N358 1.993 . S
Co341 O366 1.941 . S
C342 O343 1.258 . S
C342 O344 1.263 . S
O343 Co340 1.970 . S
O343 C342 1.258 . S
O344 Co341 1.966 . S
O344 C342 1.263 . S
C345 O346 1.235 . S
C345 O372 1.289 . S
O346 C345 1.235 . S
C347 C349 1.400 . S
C347 N350 1.351 . S
C347 C352 1.501 . S
C348 C349 1.387 . S
C348 N351 1.341 . S
C349 C347 1.400 . S
C349 C348 1.387 . S
N350 Co341 2.022 . S
N350 C347 1.351 . S
N350 N351 1.365 . S
N351 C348 1.341 . S
N351 N350 1.365 . S
N351 H371 0.862 . S
C352 C347 1.501 . S
C352 H353 0.961 . S
C352 H354 0.961 . S
C352 H355 0.960 . S
H353 C352 0.961 . S
H354 C352 0.961 . S
H355 C352 0.960 . S
C356 N357 1.342 . S
C356 C360 1.401 . S
C356 C361 1.499 . S
N357 Co340 1.989 . S
N357 C356 1.342 . S
N357 N358 1.388 . S
N358 Co341 1.993 . S
N358 N357 1.388 . S
N358 C359 1.346 . S
C359 N358 1.346 . S
C359 C360 1.396 . S
C359 C369 1.510 . S
C360 C356 1.401 . S
C360 C359 1.396 . S
C361 C356 1.499 . S
C361 H362 0.959 . S
C361 H363 0.960 . S
C361 H364 0.961 . S
H362 C361 0.959 . S
H363 C361 0.960 . S
H364 C361 0.961 . S
O365 Co340 1.967 . S
O365 C373 1.258 . S
O366 Co341 1.941 . S
O366 C373 1.266 . S
H367 C369 0.959 . S
H368 C369 0.961 . S
C369 C359 1.510 . S
C369 H367 0.959 . S
C369 H368 0.961 . S
C369 H370 0.960 . S
H370 C369 0.960 . S
H371 N351 0.862 . S
O372 Co340 1.920 . S
O372 C345 1.289 . S
C373 O365 1.258 . S
C373 O366 1.266 . S
Co374 O377 1.970 . S
Co374 N391 1.989 . S
Co374 O399 1.967 . S
Co374 O406 1.920 . S
Co375 O378 1.966 . S
Co375 N384 2.022 . S
Co375 N392 1.993 . S
Co375 O400 1.941 . S
C376 O377 1.258 . S
C376 O378 1.263 . S
O377 Co374 1.970 . S
O377 C376 1.258 . S
O378 Co375 1.966 . S
O378 C376 1.263 . S
C379 O380 1.235 . S
C379 O406 1.289 . S
O380 C379 1.235 . S
C381 C383 1.400 . S
C381 N384 1.351 . S
C381 C386 1.501 . S
C382 C383 1.387 . S
C382 N385 1.341 . S
C383 C381 1.400 . S
C383 C382 1.387 . S
N384 Co375 2.022 . S
N384 C381 1.351 . S
N384 N385 1.365 . S
N385 C382 1.341 . S
N385 N384 1.365 . S
N385 H405 0.862 . S
C386 C381 1.501 . S
C386 H387 0.961 . S
C386 H388 0.961 . S
C386 H389 0.960 . S
H387 C386 0.961 . S
H388 C386 0.961 . S
H389 C386 0.960 . S
C390 N391 1.342 . S
C390 C394 1.401 . S
C390 C395 1.499 . S
N391 Co374 1.989 . S
N391 C390 1.342 . S
N391 N392 1.388 . S
N392 Co375 1.993 . S
N392 N391 1.388 . S
N392 C393 1.346 . S
C393 N392 1.346 . S
C393 C394 1.396 . S
C393 C403 1.510 . S
C394 C390 1.401 . S
C394 C393 1.396 . S
C395 C390 1.499 . S
C395 H396 0.959 . S
C395 H397 0.960 . S
C395 H398 0.961 . S
H396 C395 0.959 . S
H397 C395 0.960 . S
H398 C395 0.961 . S
O399 Co374 1.967 . S
O399 C407 1.258 . S
O400 Co375 1.941 . S
O400 C407 1.266 . S
H401 C403 0.959 . S
H402 C403 0.961 . S
C403 C393 1.510 . S
C403 H401 0.959 . S
C403 H402 0.961 . S
C403 H404 0.960 . S
H404 C403 0.960 . S
H405 N385 0.862 . S
O406 Co374 1.920 . S
O406 C379 1.289 . S
C407 O399 1.258 . S
C407 O400 1.266 . S
Co408 O411 1.970 . S
Co408 N425 1.989 . S
Co408 O433 1.967 . S
Co408 O440 1.920 1_554 S
Co409 O412 1.966 . S
Co409 N418 2.022 . S
Co409 N426 1.993 . S
Co409 O434 1.941 . S
C410 O411 1.258 . S
C410 O412 1.263 . S
O411 Co408 1.970 . S
O411 C410 1.258 . S
O412 Co409 1.966 . S
O412 C410 1.263 . S
C413 O414 1.235 . S
C413 O440 1.289 . S
O414 C413 1.235 . S
C415 C417 1.400 . S
C415 N418 1.351 . S
C415 C420 1.501 . S
C416 C417 1.387 . S
C416 N419 1.341 . S
C417 C415 1.400 . S
C417 C416 1.387 . S
N418 Co409 2.022 . S
N418 C415 1.351 . S
N418 N419 1.365 . S
N419 C416 1.341 . S
N419 N418 1.365 . S
N419 H439 0.862 . S
C420 C415 1.501 . S
C420 H421 0.961 . S
C420 H422 0.961 . S
C420 H423 0.960 . S
H421 C420 0.961 . S
H422 C420 0.961 . S
H423 C420 0.960 . S
C424 N425 1.342 . S
C424 C428 1.401 . S
C424 C429 1.499 . S
N425 Co408 1.989 . S
N425 C424 1.342 . S
N425 N426 1.388 . S
N426 Co409 1.993 . S
N426 N425 1.388 . S
N426 C427 1.346 . S
C427 N426 1.346 . S
C427 C428 1.396 . S
C427 C437 1.510 . S
C428 C424 1.401 . S
C428 C427 1.396 . S
C429 C424 1.499 . S
C429 H430 0.959 . S
C429 H431 0.960 . S
C429 H432 0.961 . S
H430 C429 0.959 . S
H431 C429 0.960 . S
H432 C429 0.961 . S
O433 Co408 1.967 . S
O433 C441 1.258 . S
O434 Co409 1.941 . S
O434 C441 1.266 . S
H435 C437 0.959 . S
H436 C437 0.961 . S
C437 C427 1.510 . S
C437 H435 0.959 . S
C437 H436 0.961 . S
C437 H438 0.960 . S
H438 C437 0.960 . S
H439 N419 0.862 . S
O440 Co408 1.920 1_556 S
O440 C413 1.289 . S
C441 O433 1.258 . S
C441 O434 1.266 . S
Co442 O445 1.970 . S
Co442 N459 1.989 . S
Co442 O467 1.967 . S
Co442 O474 1.920 . S
Co443 O446 1.966 . S
Co443 N452 2.022 1_554 S
Co443 N460 1.993 . S
Co443 O468 1.941 . S
C444 O445 1.258 . S
C444 O446 1.263 . S
O445 Co442 1.970 . S
O445 C444 1.258 . S
O446 Co443 1.966 . S
O446 C444 1.263 . S
C447 O448 1.235 . S
C447 O474 1.289 . S
O448 C447 1.235 . S
C449 C451 1.400 . S
C449 N452 1.351 . S
C449 C454 1.501 . S
C450 C451 1.387 . S
C450 N453 1.341 . S
C451 C449 1.400 . S
C451 C450 1.387 . S
N452 Co443 2.022 1_556 S
N452 C449 1.351 . S
N452 N453 1.365 . S
N453 C450 1.341 . S
N453 N452 1.365 . S
N453 H473 0.862 . S
C454 C449 1.501 . S
C454 H455 0.961 . S
C454 H456 0.961 . S
C454 H457 0.960 . S
H455 C454 0.961 . S
H456 C454 0.961 . S
H457 C454 0.960 . S
C458 N459 1.342 . S
C458 C462 1.401 . S
C458 C463 1.499 . S
N459 Co442 1.989 . S
N459 C458 1.342 . S
N459 N460 1.388 . S
N460 Co443 1.993 . S
N460 N459 1.388 . S
N460 C461 1.346 . S
C461 N460 1.346 . S
C461 C462 1.396 . S
C461 C471 1.510 1_554 S
C462 C458 1.401 . S
C462 C461 1.396 . S
C463 C458 1.499 . S
C463 H464 0.959 . S
C463 H465 0.960 . S
C463 H466 0.961 . S
H464 C463 0.959 . S
H465 C463 0.960 . S
H466 C463 0.961 . S
O467 Co442 1.967 . S
O467 C475 1.258 . S
O468 Co443 1.941 . S
O468 C475 1.266 . S
H469 C471 0.959 . S
H470 C471 0.961 . S
C471 C461 1.510 1_556 S
C471 H469 0.959 . S
C471 H470 0.961 . S
C471 H472 0.960 . S
H472 C471 0.960 . S
H473 N453 0.862 . S
O474 Co442 1.920 . S
O474 C447 1.289 . S
C475 O467 1.258 . S
C475 O468 1.266 . S
Co476 O479 1.970 . S
Co476 N493 1.989 . S
Co476 O501 1.967 . S
Co476 O508 1.920 1_556 S
Co477 O480 1.966 . S
Co477 N486 2.022 . S
Co477 N494 1.993 . S
Co477 O502 1.941 . S
C478 O479 1.258 . S
C478 O480 1.263 . S
O479 Co476 1.970 . S
O479 C478 1.258 . S
O480 Co477 1.966 . S
O480 C478 1.263 . S
C481 O482 1.235 . S
C481 O508 1.289 . S
O482 C481 1.235 . S
C483 C485 1.400 . S
C483 N486 1.351 . S
C483 C488 1.501 . S
C484 C485 1.387 . S
C484 N487 1.341 . S
C485 C483 1.400 . S
C485 C484 1.387 . S
N486 Co477 2.022 . S
N486 C483 1.351 . S
N486 N487 1.365 . S
N487 C484 1.341 . S
N487 N486 1.365 . S
N487 H507 0.862 . S
C488 C483 1.501 . S
C488 H489 0.961 . S
C488 H490 0.961 . S
C488 H491 0.960 . S
H489 C488 0.961 . S
H490 C488 0.961 . S
H491 C488 0.960 . S
C492 N493 1.342 . S
C492 C496 1.401 . S
C492 C497 1.499 . S
N493 Co476 1.989 . S
N493 C492 1.342 . S
N493 N494 1.388 . S
N494 Co477 1.993 . S
N494 N493 1.388 . S
N494 C495 1.346 . S
C495 N494 1.346 . S
C495 C496 1.396 . S
C495 C505 1.510 . S
C496 C492 1.401 . S
C496 C495 1.396 . S
C497 C492 1.499 . S
C497 H498 0.959 1_556 S
C497 H499 0.959 1_556 S
C497 H500 0.961 1_556 S
H498 C497 0.959 1_554 S
H499 C497 0.959 1_554 S
H500 C497 0.961 1_554 S
O501 Co476 1.967 . S
O501 C509 1.258 . S
O502 Co477 1.941 . S
O502 C509 1.266 . S
H503 C505 0.959 . S
H504 C505 0.961 . S
C505 C495 1.510 . S
C505 H503 0.959 . S
C505 H504 0.961 . S
C505 H506 0.960 . S
H506 C505 0.960 . S
H507 N487 0.862 . S
O508 Co476 1.920 1_554 S
O508 C481 1.289 . S
C509 O501 1.258 . S
C509 O502 1.266 . S
Co510 O513 1.970 . S
Co510 N527 1.989 . S
Co510 O535 1.967 . S
Co510 O542 1.920 1_556 S
Co511 O514 1.966 . S
Co511 N520 2.022 . S
Co511 N528 1.993 . S
Co511 O536 1.941 . S
C512 O513 1.258 . S
C512 O514 1.263 . S
O513 Co510 1.970 . S
O513 C512 1.258 . S
O514 Co511 1.966 . S
O514 C512 1.263 . S
C515 O516 1.235 . S
C515 O542 1.289 . S
O516 C515 1.235 . S
C517 C519 1.400 . S
C517 N520 1.351 . S
C517 C522 1.501 . S
C518 C519 1.387 . S
C518 N521 1.341 . S
C519 C517 1.400 . S
C519 C518 1.387 . S
N520 Co511 2.022 . S
N520 C517 1.351 . S
N520 N521 1.365 . S
N521 C518 1.341 . S
N521 N520 1.365 . S
N521 H541 0.862 . S
C522 C517 1.501 . S
C522 H523 0.961 . S
C522 H524 0.961 . S
C522 H525 0.960 . S
H523 C522 0.961 . S
H524 C522 0.961 . S
H525 C522 0.960 . S
C526 N527 1.342 . S
C526 C530 1.401 . S
C526 C531 1.499 . S
N527 Co510 1.989 . S
N527 C526 1.342 . S
N527 N528 1.388 . S
N528 Co511 1.993 . S
N528 N527 1.388 . S
N528 C529 1.346 . S
C529 N528 1.346 . S
C529 C530 1.396 . S
C529 C539 1.510 . S
C530 C526 1.401 . S
C530 C529 1.396 . S
C531 C526 1.499 . S
C531 H532 0.959 1_556 S
C531 H533 0.960 . S
C531 H534 0.961 . S
H532 C531 0.959 1_554 S
H533 C531 0.960 . S
H534 C531 0.961 . S
O535 Co510 1.967 . S
O535 C543 1.258 . S
O536 Co511 1.941 . S
O536 C543 1.266 . S
H537 C539 0.959 . S
H538 C539 0.961 . S
C539 C529 1.510 . S
C539 H537 0.959 . S
C539 H538 0.961 . S
C539 H540 0.960 . S
H540 C539 0.960 . S
H541 N521 0.862 . S
O542 Co510 1.920 1_554 S
O542 C515 1.289 . S
C543 O535 1.258 . S
C543 O536 1.266 . S
H544 C556 0.930 . S
H545 C558 0.930 . S
H546 C559 0.930 . S
H547 C563 0.959 . S
H548 C563 0.959 . S
H549 C563 0.961 . S
H550 C564 0.960 . S
H551 C564 0.961 . S
H552 C564 0.959 . S
H553 C567 0.929 . S
H554 C568 0.931 . S
H555 C570 0.930 . S
C556 H544 0.930 . S
C556 C557 1.399 . S
C556 C561 1.399 . S
C557 C556 1.399 . S
C557 C558 1.376 . S
C558 H545 0.930 . S
C558 C557 1.376 . S
C558 C559 1.388 . S
C559 H546 0.930 . S
C559 C558 1.388 . S
C559 C560 1.390 . S
C560 C559 1.390 . S
C560 C561 1.394 . S
C560 C566 1.465 . S
C561 C556 1.399 . S
C561 C560 1.394 . S
C561 C562 1.516 . S
C562 C561 1.516 . S
C562 C563 1.502 . S
C562 C564 1.561 . S
C562 C565 1.526 . S
C563 H547 0.959 . S
C563 H548 0.959 . S
C563 H549 0.961 . S
C563 C562 1.502 . S
C564 H550 0.960 . S
C564 H551 0.961 . S
C564 H552 0.959 . S
C564 C562 1.561 . S
C565 C562 1.526 . S
C565 C566 1.396 . S
C565 C570 1.390 . S
C566 C560 1.465 . S
C566 C565 1.396 . S
C566 C567 1.399 . S
C567 H553 0.929 . S
C567 C566 1.399 . S
C567 C568 1.385 . S
C568 H554 0.931 . S
C568 C567 1.385 . S
C568 C569 1.389 . S
C569 C568 1.389 . S
C569 C570 1.387 . S
C570 H555 0.930 . S
C570 C565 1.390 . S
C570 C569 1.387 . S
H571 C583 0.930 . S
H572 C585 0.930 . S
H573 C586 0.930 . S
H574 C590 0.959 . S
H575 C590 0.959 . S
H576 C590 0.961 . S
H577 C591 0.960 . S
H578 C591 0.961 . S
H579 C591 0.943 1_655 S
H580 C594 0.929 . S
H581 C595 0.931 . S
H582 C597 0.941 . S
C583 H571 0.930 . S
C583 C584 1.399 . S
C583 C588 1.399 . S
C584 C583 1.399 . S
C584 C585 1.376 . S
C585 H572 0.930 . S
C585 C584 1.376 . S
C585 C586 1.388 . S
C586 H573 0.930 . S
C586 C585 1.388 . S
C586 C587 1.390 . S
C587 C586 1.390 . S
C587 C588 1.394 . S
C587 C593 1.465 . S
C588 C583 1.399 . S
C588 C587 1.394 . S
C588 C589 1.516 . S
C589 C588 1.516 . S
C589 C590 1.502 . S
C589 C591 1.561 . S
C589 C592 1.526 . S
C590 H574 0.959 . S
C590 H575 0.959 . S
C590 H576 0.961 . S
C590 C589 1.502 . S
C591 H577 0.960 . S
C591 H578 0.961 . S
C591 H579 0.943 1_455 S
C591 C589 1.561 . S
C592 C589 1.526 . S
C592 C593 1.396 . S
C592 C597 1.390 . S
C593 C587 1.465 . S
C593 C592 1.396 . S
C593 C594 1.399 . S
C594 H580 0.929 . S
C594 C593 1.399 . S
C594 C595 1.385 1_455 S
C595 H581 0.931 . S
C595 C594 1.385 1_655 S
C595 C596 1.389 . S
C596 C595 1.389 . S
C596 C597 1.387 1_655 S
C597 H582 0.941 . S
C597 C592 1.390 . S
C597 C596 1.387 1_455 S
H598 C610 0.930 1_554 S
H599 C612 0.930 . S
H600 C613 0.930 . S
H601 C617 0.959 . S
H602 C617 0.959 . S
H603 C617 0.961 . S
H604 C618 0.960 . S
H605 C618 0.961 . S
H606 C618 0.959 . S
H607 C621 0.929 . S
H608 C622 0.931 . S
H609 C624 0.930 . S
C610 H598 0.930 1_556 S
C610 C611 1.399 . S
C610 C615 1.399 . S
C611 C610 1.399 . S
C611 C612 1.376 . S
C612 H599 0.930 . S
C612 C611 1.376 . S
C612 C613 1.388 . S
C613 H600 0.930 . S
C613 C612 1.388 . S
C613 C614 1.390 . S
C614 C613 1.390 . S
C614 C615 1.394 . S
C614 C620 1.465 . S
C615 C610 1.399 . S
C615 C614 1.394 . S
C615 C616 1.516 1_556 S
C616 C615 1.516 1_554 S
C616 C617 1.502 . S
C616 C618 1.561 . S
C616 C619 1.526 . S
C617 H601 0.959 . S
C617 H602 0.959 . S
C617 H603 0.961 . S
C617 C616 1.502 . S
C618 H604 0.960 . S
C618 H605 0.961 . S
C618 H606 0.959 . S
C618 C616 1.561 . S
C619 C616 1.526 . S
C619 C620 1.396 1_554 S
C619 C624 1.390 . S
C620 C614 1.465 . S
C620 C619 1.396 1_556 S
C620 C621 1.399 . S
C621 H607 0.929 . S
C621 C620 1.399 . S
C621 C622 1.385 . S
C622 H608 0.931 . S
C622 C621 1.385 . S
C622 C623 1.389 1_556 S
C623 C622 1.389 1_554 S
C623 C624 1.387 . S
C624 H609 0.930 . S
C624 C619 1.390 . S
C624 C623 1.387 . S
H625 C637 0.930 1_554 S
H626 C639 0.930 . S
H627 C640 0.930 . S
H628 C644 0.959 . S
H629 C644 0.959 . S
H630 C644 0.961 . S
H631 C645 0.960 . S
H632 C645 0.961 . S
H633 C645 0.959 . S
H634 C648 0.929 1_556 S
H635 C649 0.931 1_455 S
H636 C651 0.915 1_455 S
C637 H625 0.930 1_556 S
C637 C638 1.399 . S
C637 C642 1.399 1_556 S
C638 C637 1.399 . S
C638 C639 1.376 . S
C639 H626 0.930 . S
C639 C638 1.376 . S
C639 C640 1.388 . S
C640 H627 0.930 . S
C640 C639 1.388 . S
C640 C641 1.390 . S
C641 C640 1.390 . S
C641 C642 1.394 1_556 S
C641 C647 1.465 1_556 S
C642 C637 1.399 1_554 S
C642 C641 1.394 1_554 S
C642 C643 1.516 . S
C643 C642 1.516 . S
C643 C644 1.502 . S
C643 C645 1.561 . S
C643 C646 1.526 . S
C644 H628 0.959 . S
C644 H629 0.959 . S
C644 H630 0.961 . S
C644 C643 1.502 . S
C645 H631 0.960 . S
C645 H632 0.961 . S
C645 H633 0.959 . S
C645 C643 1.561 . S
C646 C643 1.526 . S
C646 C647 1.396 . S
C646 C651 1.390 . S
C647 C641 1.465 1_554 S
C647 C646 1.396 . S
C647 C648 1.399 . S
C648 H634 0.929 1_554 S
C648 C647 1.399 . S
C648 C649 1.385 . S
C649 H635 0.931 1_655 S
C649 C648 1.385 . S
C649 C650 1.389 1_655 S
C650 C649 1.389 1_455 S
C650 C651 1.387 1_455 S
C651 H636 0.915 1_655 S
C651 C646 1.390 . S
C651 C650 1.387 1_655 S
H652 C664 0.930 . S
H653 C666 0.930 . S
H654 C667 0.930 . S
H655 C671 0.959 . S
H656 C671 0.959 . S
H657 C671 0.961 . S
H658 C672 0.960 . S
H659 C672 0.961 . S
H660 C672 0.959 . S
H661 C675 0.929 . S
H662 C676 0.931 . S
H663 C678 0.930 . S
C664 H652 0.930 . S
C664 C665 1.399 . S
C664 C669 1.399 . S
C665 C664 1.399 . S
C665 C666 1.376 . S
C666 H653 0.930 . S
C666 C665 1.376 . S
C666 C667 1.388 . S
C667 H654 0.930 . S
C667 C666 1.388 . S
C667 C668 1.390 . S
C668 C667 1.390 . S
C668 C669 1.394 . S
C668 C674 1.465 . S
C669 C664 1.399 . S
C669 C668 1.394 . S
C669 C670 1.516 . S
C670 C669 1.516 . S
C670 C671 1.502 . S
C670 C672 1.561 . S
C670 C673 1.526 . S
C671 H655 0.959 . S
C671 H656 0.959 . S
C671 H657 0.961 . S
C671 C670 1.502 . S
C672 H658 0.960 . S
C672 H659 0.961 . S
C672 H660 0.959 . S
C672 C670 1.561 . S
C673 C670 1.526 . S
C673 C674 1.396 . S
C673 C678 1.390 . S
C674 C668 1.465 . S
C674 C673 1.396 . S
C674 C675 1.399 . S
C675 H661 0.929 . S
C675 C674 1.399 . S
C675 C676 1.385 . S
C676 H662 0.931 . S
C676 C675 1.385 . S
C676 C677 1.389 . S
C677 C676 1.389 . S
C677 C678 1.387 . S
C678 H663 0.930 . S
C678 C673 1.390 . S
C678 C677 1.387 . S
H679 C691 0.930 . S
H680 C693 0.930 . S
H681 C694 0.930 . S
H682 C698 0.959 . S
H683 C698 0.959 . S
H684 C698 0.961 . S
H685 C699 0.960 . S
H686 C699 0.961 . S
H687 C699 0.959 . S
H688 C702 0.929 . S
H689 C703 0.931 . S
H690 C705 0.930 . S
C691 H679 0.930 . S
C691 C692 1.399 . S
C691 C696 1.399 . S
C692 C691 1.399 . S
C692 C693 1.376 . S
C693 H680 0.930 . S
C693 C692 1.376 . S
C693 C694 1.388 . S
C694 H681 0.930 . S
C694 C693 1.388 . S
C694 C695 1.390 . S
C695 C694 1.390 . S
C695 C696 1.394 . S
C695 C701 1.465 . S
C696 C691 1.399 . S
C696 C695 1.394 . S
C696 C697 1.516 . S
C697 C696 1.516 . S
C697 C698 1.502 . S
C697 C699 1.561 . S
C697 C700 1.526 . S
C698 H682 0.959 . S
C698 H683 0.959 . S
C698 H684 0.961 . S
C698 C697 1.502 . S
C699 H685 0.960 . S
C699 H686 0.961 . S
C699 H687 0.959 . S
C699 C697 1.561 . S
C700 C697 1.526 . S
C700 C701 1.396 . S
C700 C705 1.390 . S
C701 C695 1.465 . S
C701 C700 1.396 . S
C701 C702 1.403 1_455 S
C702 H688 0.929 . S
C702 C701 1.403 1_655 S
C702 C703 1.382 . S
C703 H689 0.931 . S
C703 C702 1.382 . S
C703 C704 1.389 . S
C704 C703 1.389 . S
C704 C705 1.387 1_655 S
C705 H690 0.930 . S
C705 C700 1.390 . S
C705 C704 1.387 1_455 S
H706 C718 0.930 . S
H707 C720 0.930 . S
H708 C721 0.930 . S
H709 C725 0.959 . S
H710 C725 0.959 . S
H711 C725 0.961 . S
H712 C726 0.960 . S
H713 C726 0.961 . S
H714 C726 0.959 . S
H715 C729 0.929 . S
H716 C730 0.931 . S
H717 C732 0.930 1_554 S
C718 H706 0.930 . S
C718 C719 1.399 . S
C718 C723 1.399 . S
C719 C718 1.399 . S
C719 C720 1.376 1_554 S
C720 H707 0.930 . S
C720 C719 1.376 1_556 S
C720 C721 1.388 . S
C721 H708 0.930 . S
C721 C720 1.388 . S
C721 C722 1.390 . S
C722 C721 1.390 . S
C722 C723 1.394 1_556 S
C722 C728 1.465 . S
C723 C718 1.399 . S
C723 C722 1.394 1_554 S
C723 C724 1.516 . S
C724 C723 1.516 . S
C724 C725 1.502 . S
C724 C726 1.561 . S
C724 C727 1.526 1_554 S
C725 H709 0.959 . S
C725 H710 0.959 . S
C725 H711 0.961 . S
C725 C724 1.502 . S
C726 H712 0.960 . S
C726 H713 0.961 . S
C726 H714 0.959 . S
C726 C724 1.561 . S
C727 C724 1.526 1_556 S
C727 C728 1.396 . S
C727 C732 1.390 . S
C728 C722 1.465 . S
C728 C727 1.396 . S
C728 C729 1.399 . S
C729 H715 0.929 . S
C729 C728 1.399 . S
C729 C730 1.385 . S
C730 H716 0.931 . S
C730 C729 1.385 . S
C730 C731 1.389 . S
C731 C730 1.389 . S
C731 C732 1.387 . S
C732 H717 0.930 1_556 S
C732 C727 1.390 . S
C732 C731 1.387 . S
H733 C745 0.930 . S
H734 C747 0.930 . S
H735 C748 0.930 . S
H736 C752 0.959 1_545 S
H737 C752 0.971 . S
H738 C752 0.961 . S
H739 C753 0.960 . S
H740 C753 0.961 . S
H741 C753 0.959 . S
H742 C756 0.928 . S
H743 C757 0.931 . S
H744 C759 0.930 . S
C745 H733 0.930 . S
C745 C746 1.399 . S
C745 C750 1.399 . S
C746 C745 1.399 . S
C746 C747 1.376 . S
C747 H734 0.930 . S
C747 C746 1.376 . S
C747 C748 1.388 . S
C748 H735 0.930 . S
C748 C747 1.388 . S
C748 C749 1.390 . S
C749 C748 1.390 . S
C749 C750 1.394 . S
C749 C755 1.465 . S
C750 C745 1.399 . S
C750 C749 1.394 . S
C750 C751 1.516 . S
C751 C750 1.516 . S
C751 C752 1.502 . S
C751 C753 1.561 . S
C751 C754 1.526 . S
C752 H736 0.959 1_565 S
C752 H737 0.971 . S
C752 H738 0.961 . S
C752 C751 1.502 . S
C753 H739 0.960 . S
C753 H740 0.961 . S
C753 H741 0.959 . S
C753 C751 1.561 . S
C754 C751 1.526 . S
C754 C755 1.396 . S
C754 C759 1.390 1_565 S
C755 C749 1.465 . S
C755 C754 1.396 . S
C755 C756 1.372 1_565 S
C756 H742 0.928 . S
C756 C755 1.372 1_545 S
C756 C757 1.417 . S
C757 H743 0.931 . S
C757 C756 1.417 . S
C757 C758 1.389 . S
C758 C757 1.389 . S
C758 C759 1.387 . S
C759 H744 0.930 . S
C759 C754 1.390 1_545 S
C759 C758 1.387 . S
H760 C772 0.930 . S
H761 C774 0.930 . S
H762 C775 0.930 . S
H763 C779 0.959 . S
H764 C779 0.959 . S
H765 C779 0.961 . S
H766 C780 0.960 . S
H767 C780 0.961 . S
H768 C780 0.959 . S
H769 C783 0.929 . S
H770 C784 0.931 . S
H771 C786 0.930 . S
C772 H760 0.930 . S
C772 C773 1.399 . S
C772 C777 1.399 . S
C773 C772 1.399 . S
C773 C774 1.376 . S
C774 H761 0.930 . S
C774 C773 1.376 . S
C774 C775 1.388 . S
C775 H762 0.930 . S
C775 C774 1.388 . S
C775 C776 1.390 . S
C776 C775 1.390 . S
C776 C777 1.394 . S
C776 C782 1.465 . S
C777 C772 1.399 . S
C777 C776 1.394 . S
C777 C778 1.516 . S
C778 C777 1.516 . S
C778 C779 1.502 . S
C778 C780 1.561 . S
C778 C781 1.526 . S
C779 H763 0.959 . S
C779 H764 0.959 . S
C779 H765 0.961 . S
C779 C778 1.502 . S
C780 H766 0.960 . S
C780 H767 0.961 . S
C780 H768 0.959 . S
C780 C778 1.561 . S
C781 C778 1.526 . S
C781 C782 1.396 . S
C781 C786 1.390 . S
C782 C776 1.465 . S
C782 C781 1.396 . S
C782 C783 1.399 . S
C783 H769 0.929 . S
C783 C782 1.399 . S
C783 C784 1.385 . S
C784 H770 0.931 . S
C784 C783 1.385 . S
C784 C785 1.389 . S
C785 C784 1.389 . S
C785 C786 1.387 . S
C786 H771 0.930 . S
C786 C781 1.390 . S
C786 C785 1.387 . S
H787 C799 0.930 . S
H788 C801 0.930 . S
H789 C802 0.930 . S
H790 C806 0.959 . S
H791 C806 0.959 . S
H792 C806 0.961 . S
H793 C807 0.960 . S
H794 C807 0.961 . S
H795 C807 0.959 . S
H796 C810 0.929 . S
H797 C811 0.931 1_455 S
H798 C813 0.930 . S
C799 H787 0.930 . S
C799 C800 1.399 . S
C799 C804 1.399 . S
C800 C799 1.399 . S
C800 C801 1.376 . S
C801 H788 0.930 . S
C801 C800 1.376 . S
C801 C802 1.388 . S
C802 H789 0.930 . S
C802 C801 1.388 . S
C802 C803 1.390 . S
C803 C802 1.390 . S
C803 C804 1.394 . S
C803 C809 1.465 . S
C804 C799 1.399 . S
C804 C803 1.394 . S
C804 C805 1.516 1_565 S
C805 C804 1.516 1_545 S
C805 C806 1.502 . S
C805 C807 1.561 . S
C805 C808 1.526 . S
C806 H790 0.959 . S
C806 H791 0.959 . S
C806 H792 0.961 . S
C806 C805 1.502 . S
C807 H793 0.960 . S
C807 H794 0.961 . S
C807 H795 0.959 . S
C807 C805 1.561 . S
C808 C805 1.526 . S
C808 C809 1.396 1_545 S
C808 C813 1.390 . S
C809 C803 1.465 . S
C809 C808 1.396 1_565 S
C809 C810 1.399 . S
C810 H796 0.929 . S
C810 C809 1.399 . S
C810 C811 1.385 1_565 S
C811 H797 0.931 1_655 S
C811 C810 1.385 1_545 S
C811 C812 1.389 1_655 S
C812 C811 1.389 1_455 S
C812 C813 1.387 1_455 S
C813 H798 0.930 . S
C813 C808 1.390 . S
C813 C812 1.387 1_655 S
H814 C826 0.930 . S
H815 C828 0.930 . S
H816 C829 0.930 . S
H817 C833 0.959 . S
H818 C833 0.959 . S
H819 C833 0.961 . S
H820 C834 0.960 . S
H821 C834 0.961 . S
H822 C834 0.959 . S
H823 C837 0.929 1_545 S
H824 C838 0.931 . S
H825 C840 0.930 . S
C826 H814 0.930 . S
C826 C827 1.399 1_565 S
C826 C831 1.399 . S
C827 C826 1.399 1_545 S
C827 C828 1.376 . S
C828 H815 0.930 . S
C828 C827 1.376 . S
C828 C829 1.388 . S
C829 H816 0.930 . S
C829 C828 1.388 . S
C829 C830 1.390 . S
C830 C829 1.390 . S
C830 C831 1.394 1_545 S
C830 C836 1.465 1_545 S
C831 C826 1.399 . S
C831 C830 1.394 1_565 S
C831 C832 1.516 . S
C832 C831 1.516 . S
C832 C833 1.502 . S
C832 C834 1.561 . S
C832 C835 1.526 . S
C833 H817 0.959 . S
C833 H818 0.959 . S
C833 H819 0.961 . S
C833 C832 1.502 . S
C834 H820 0.960 . S
C834 H821 0.961 . S
C834 H822 0.959 . S
C834 C832 1.561 . S
C835 C832 1.526 . S
C835 C836 1.396 . S
C835 C840 1.390 . S
C836 C830 1.465 1_565 S
C836 C835 1.396 . S
C836 C837 1.399 . S
C837 H823 0.929 1_565 S
C837 C836 1.399 . S
C837 C838 1.385 . S
C838 H824 0.931 . S
C838 C837 1.385 . S
C838 C839 1.389 . S
C839 C838 1.389 . S
C839 C840 1.387 . S
C840 H825 0.930 . S
C840 C835 1.390 . S
C840 C839 1.387 . S
H841 C853 0.930 . S
H842 C855 0.930 . S
H843 C856 0.930 . S
H844 C860 0.959 . S
H845 C860 0.959 . S
H846 C860 0.961 . S
H847 C861 0.960 . S
H848 C861 0.961 . S
H849 C861 0.959 . S
H850 C864 0.929 . S
H851 C865 0.931 . S
H852 C867 0.930 . S
C853 H841 0.930 . S
C853 C854 1.399 . S
C853 C858 1.399 . S
C854 C853 1.399 . S
C854 C855 1.376 . S
C855 H842 0.930 . S
C855 C854 1.376 . S
C855 C856 1.388 . S
C856 H843 0.930 . S
C856 C855 1.388 . S
C856 C857 1.390 . S
C857 C856 1.390 . S
C857 C858 1.394 . S
C857 C863 1.465 . S
C858 C853 1.399 . S
C858 C857 1.394 . S
C858 C859 1.516 . S
C859 C858 1.516 . S
C859 C860 1.502 . S
C859 C861 1.561 . S
C859 C862 1.526 . S
C860 H844 0.959 . S
C860 H845 0.959 . S
C860 H846 0.961 . S
C860 C859 1.502 . S
C861 H847 0.960 . S
C861 H848 0.961 . S
C861 H849 0.959 . S
C861 C859 1.561 . S
C862 C859 1.526 . S
C862 C863 1.396 . S
C862 C867 1.390 . S
C863 C857 1.465 . S
C863 C862 1.396 . S
C863 C864 1.399 . S
C864 H850 0.929 . S
C864 C863 1.399 . S
C864 C865 1.385 . S
C865 H851 0.931 . S
C865 C864 1.385 . S
C865 C866 1.389 . S
C866 C865 1.389 . S
C866 C867 1.387 . S
C867 H852 0.930 . S
C867 C862 1.390 . S
C867 C866 1.387 . S
H868 C880 0.930 . S
H869 C882 0.930 . S
H870 C883 0.930 . S
H871 C887 0.959 . S
H872 C887 0.959 . S
H873 C887 0.961 . S
H874 C888 0.960 . S
H875 C888 0.961 . S
H876 C888 0.959 . S
H877 C891 0.929 . S
H878 C892 0.931 . S
H879 C894 0.930 . S
C880 H868 0.930 . S
C880 C881 1.399 . S
C880 C885 1.399 . S
C881 C880 1.399 . S
C881 C882 1.376 . S
C882 H869 0.930 . S
C882 C881 1.376 . S
C882 C883 1.388 . S
C883 H870 0.930 . S
C883 C882 1.388 . S
C883 C884 1.390 . S
C884 C883 1.390 . S
C884 C885 1.394 . S
C884 C890 1.465 . S
C885 C880 1.399 . S
C885 C884 1.394 . S
C885 C886 1.516 . S
C886 C885 1.516 . S
C886 C887 1.502 . S
C886 C888 1.561 . S
C886 C889 1.526 . S
C887 H871 0.959 . S
C887 H872 0.959 . S
C887 H873 0.961 . S
C887 C886 1.502 . S
C888 H874 0.960 . S
C888 H875 0.961 . S
C888 H876 0.959 . S
C888 C886 1.561 . S
C889 C886 1.526 . S
C889 C890 1.396 . S
C889 C894 1.390 . S
C890 C884 1.465 . S
C890 C889 1.396 . S
C890 C891 1.399 . S
C891 H877 0.929 . S
C891 C890 1.399 . S
C891 C892 1.385 . S
C892 H878 0.931 . S
C892 C891 1.385 . S
C892 C893 1.389 . S
C893 C892 1.389 . S
C893 C894 1.387 . S
C894 H879 0.930 . S
C894 C889 1.390 . S
C894 C893 1.387 . S
H895 C907 0.930 . S
H896 C909 0.930 . S
H897 C910 0.930 . S
H898 C914 0.959 . S
H899 C914 0.959 . S
H900 C914 0.961 . S
H901 C915 0.960 . S
H902 C915 0.961 . S
H903 C915 0.959 . S
H904 C918 0.929 . S
H905 C919 0.931 . S
H906 C921 0.930 . S
C907 H895 0.930 . S
C907 C908 1.399 . S
C907 C912 1.399 . S
C908 C907 1.399 . S
C908 C909 1.376 . S
C909 H896 0.930 . S
C909 C908 1.376 . S
C909 C910 1.388 . S
C910 H897 0.930 . S
C910 C909 1.388 . S
C910 C911 1.390 . S
C911 C910 1.390 . S
C911 C912 1.394 . S
C911 C917 1.465 . S
C912 C907 1.399 . S
C912 C911 1.394 . S
C912 C913 1.516 . S
C913 C912 1.516 . S
C913 C914 1.502 . S
C913 C915 1.561 . S
C913 C916 1.526 . S
C914 H898 0.959 . S
C914 H899 0.959 . S
C914 H900 0.961 . S
C914 C913 1.502 . S
C915 H901 0.960 . S
C915 H902 0.961 . S
C915 H903 0.959 . S
C915 C913 1.561 . S
C916 C913 1.526 . S
C916 C917 1.396 . S
C916 C921 1.390 . S
C917 C911 1.465 . S
C917 C916 1.396 . S
C917 C918 1.399 . S
C918 H904 0.929 . S
C918 C917 1.399 . S
C918 C919 1.385 . S
C919 H905 0.931 . S
C919 C918 1.385 . S
C919 C920 1.389 . S
C920 C919 1.389 . S
C920 C921 1.387 . S
C921 H906 0.930 . S
C921 C916 1.390 . S
C921 C920 1.387 . S
H922 C934 0.930 . S
H923 C936 0.930 . S
H924 C937 0.930 . S
H925 C941 0.959 . S
H926 C941 0.959 . S
H927 C941 0.961 . S
H928 C942 0.960 . S
H929 C942 0.961 . S
H930 C942 0.959 . S
H931 C945 0.929 . S
H932 C946 0.931 . S
H933 C948 0.930 . S
C934 H922 0.930 . S
C934 C935 1.399 . S
C934 C939 1.399 . S
C935 C934 1.399 . S
C935 C936 1.376 . S
C936 H923 0.930 . S
C936 C935 1.376 . S
C936 C937 1.388 . S
C937 H924 0.930 . S
C937 C936 1.388 . S
C937 C938 1.390 . S
C938 C937 1.390 . S
C938 C939 1.394 . S
C938 C944 1.465 . S
C939 C934 1.399 . S
C939 C938 1.394 . S
C939 C940 1.516 . S
C940 C939 1.516 . S
C940 C941 1.502 . S
C940 C942 1.561 . S
C940 C943 1.526 . S
C941 H925 0.959 . S
C941 H926 0.959 . S
C941 H927 0.961 . S
C941 C940 1.502 . S
C942 H928 0.960 . S
C942 H929 0.961 . S
C942 H930 0.959 . S
C942 C940 1.561 . S
C943 C940 1.526 . S
C943 C944 1.396 . S
C943 C948 1.390 . S
C944 C938 1.465 . S
C944 C943 1.396 . S
C944 C945 1.399 . S
C945 H931 0.929 . S
C945 C944 1.399 . S
C945 C946 1.385 . S
C946 H932 0.931 . S
C946 C945 1.385 . S
C946 C947 1.389 . S
C947 C946 1.389 . S
C947 C948 1.387 . S
C948 H933 0.930 . S
C948 C943 1.390 . S
C948 C947 1.387 . S
H949 C961 0.930 . S
H950 C963 0.930 . S
H951 C964 0.927 . S
H952 C968 0.959 1_545 S
H953 C968 0.959 . S
H954 C968 0.961 . S
H955 C969 0.960 . S
H956 C969 0.961 . S
H957 C969 0.959 . S
H958 C972 0.929 . S
H959 C973 0.931 . S
H960 C975 0.930 . S
C961 H949 0.930 . S
C961 C962 1.399 1_554 S
C961 C966 1.399 . S
C962 C961 1.399 1_556 S
C962 C963 1.376 . S
C963 H950 0.930 . S
C963 C962 1.376 . S
C963 C964 1.388 . S
C964 H951 0.927 . S
C964 C963 1.388 . S
C964 C965 1.390 . S
C965 C964 1.390 . S
C965 C966 1.394 1_556 S
C965 C971 1.465 1_566 S
C966 C961 1.399 . S
C966 C965 1.394 1_554 S
C966 C967 1.516 . S
C967 C966 1.516 . S
C967 C968 1.502 . S
C967 C969 1.561 . S
C967 C970 1.526 1_565 S
C968 H952 0.959 1_565 S
C968 H953 0.959 . S
C968 H954 0.961 . S
C968 C967 1.502 . S
C969 H955 0.960 . S
C969 H956 0.961 . S
C969 H957 0.959 . S
C969 C967 1.561 . S
C970 C967 1.526 1_545 S
C970 C971 1.396 . S
C970 C975 1.390 . S
C971 C965 1.465 1_544 S
C971 C970 1.396 . S
C971 C972 1.399 1_554 S
C972 H958 0.929 . S
C972 C971 1.399 1_556 S
C972 C973 1.385 1_556 S
C973 H959 0.931 . S
C973 C972 1.385 1_554 S
C973 C974 1.389 . S
C974 C973 1.389 . S
C974 C975 1.387 . S
C975 H960 0.930 . S
C975 C970 1.390 . S
C975 C974 1.387 . S
H976 C988 0.930 . S
H977 C990 0.930 . S
H978 C991 0.930 . S
H979 C995 0.959 . S
H980 C995 0.959 . S
H981 C995 0.961 . S
H982 C996 0.960 . S
H983 C996 0.961 . S
H984 C996 0.959 . S
H985 C999 0.929 . S
H986 C1000 0.931 . S
H987 C1002 0.930 . S
C988 H976 0.930 . S
C988 C989 1.399 . S
C988 C993 1.399 . S
C989 C988 1.399 . S
C989 C990 1.376 . S
C990 H977 0.930 . S
C990 C989 1.376 . S
C990 C991 1.388 . S
C991 H978 0.930 . S
C991 C990 1.388 . S
C991 C992 1.390 . S
C992 C991 1.390 . S
C992 C993 1.394 . S
C992 C998 1.465 . S
C993 C988 1.399 . S
C993 C992 1.394 . S
C993 C994 1.516 . S
C994 C993 1.516 . S
C994 C995 1.502 . S
C994 C996 1.561 . S
C994 C997 1.526 . S
C995 H979 0.959 . S
C995 H980 0.959 . S
C995 H981 0.961 . S
C995 C994 1.502 . S
C996 H982 0.960 . S
C996 H983 0.961 . S
C996 H984 0.959 . S
C996 C994 1.561 . S
C997 C994 1.526 . S
C997 C998 1.396 . S
C997 C1002 1.390 . S
C998 C992 1.465 . S
C998 C997 1.396 . S
C998 C999 1.399 . S
C999 H985 0.929 . S
C999 C998 1.399 . S
C999 C1000 1.385 . S
C1000 H986 0.931 . S
C1000 C999 1.385 . S
C1000 C1001 1.389 . S
C1001 C1000 1.389 . S
C1001 C1002 1.387 . S
C1002 H987 0.930 . S
C1002 C997 1.390 . S
C1002 C1001 1.387 . S
H1003 C1015 0.930 . S
H1004 C1017 0.930 . S
H1005 C1018 0.930 . S
H1006 C1022 0.959 . S
H1007 C1022 0.959 . S
H1008 C1022 0.961 . S
H1009 C1023 0.960 . S
H1010 C1023 0.961 . S
H1011 C1023 0.959 . S
H1012 C1026 0.929 . S
H1013 C1027 0.931 . S
H1014 C1029 0.930 . S
C1015 H1003 0.930 . S
C1015 C1016 1.399 . S
C1015 C1020 1.399 . S
C1016 C1015 1.399 . S
C1016 C1017 1.376 . S
C1017 H1004 0.930 . S
C1017 C1016 1.376 . S
C1017 C1018 1.388 . S
C1018 H1005 0.930 . S
C1018 C1017 1.388 . S
C1018 C1019 1.390 . S
C1019 C1018 1.390 . S
C1019 C1020 1.394 . S
C1019 C1025 1.465 . S
C1020 C1015 1.399 . S
C1020 C1019 1.394 . S
C1020 C1021 1.516 . S
C1021 C1020 1.516 . S
C1021 C1022 1.502 . S
C1021 C1023 1.561 . S
C1021 C1024 1.526 . S
C1022 H1006 0.959 . S
C1022 H1007 0.959 . S
C1022 H1008 0.961 . S
C1022 C1021 1.502 . S
C1023 H1009 0.960 . S
C1023 H1010 0.961 . S
C1023 H1011 0.959 . S
C1023 C1021 1.561 . S
C1024 C1021 1.526 . S
C1024 C1025 1.396 . S
C1024 C1029 1.390 . S
C1025 C1019 1.465 . S
C1025 C1024 1.396 . S
C1025 C1026 1.399 . S
C1026 H1012 0.929 . S
C1026 C1025 1.399 . S
C1026 C1027 1.385 . S
C1027 H1013 0.931 . S
C1027 C1026 1.385 . S
C1027 C1028 1.389 . S
C1028 C1027 1.389 . S
C1028 C1029 1.387 . S
C1029 H1014 0.930 . S
C1029 C1024 1.390 . S
C1029 C1028 1.387 . S
H1030 C1042 0.930 . S
H1031 C1044 0.930 . S
H1032 C1045 0.930 . S
H1033 C1049 0.959 . S
H1034 C1049 0.959 . S
H1035 C1049 0.961 . S
H1036 C1050 0.960 . S
H1037 C1050 0.961 . S
H1038 C1050 0.959 . S
H1039 C1053 0.929 . S
H1040 C1054 0.931 . S
H1041 C1056 0.930 . S
C1042 H1030 0.930 . S
C1042 C1043 1.399 . S
C1042 C1047 1.399 . S
C1043 C1042 1.399 . S
C1043 C1044 1.376 . S
C1044 H1031 0.930 . S
C1044 C1043 1.376 . S
C1044 C1045 1.388 . S
C1045 H1032 0.930 . S
C1045 C1044 1.388 . S
C1045 C1046 1.390 . S
C1046 C1045 1.390 . S
C1046 C1047 1.394 . S
C1046 C1052 1.465 . S
C1047 C1042 1.399 . S
C1047 C1046 1.394 . S
C1047 C1048 1.516 . S
C1048 C1047 1.516 . S
C1048 C1049 1.502 . S
C1048 C1050 1.561 . S
C1048 C1051 1.526 . S
C1049 H1033 0.959 . S
C1049 H1034 0.959 . S
C1049 H1035 0.961 . S
C1049 C1048 1.502 . S
C1050 H1036 0.960 . S
C1050 H1037 0.961 . S
C1050 H1038 0.959 . S
C1050 C1048 1.561 . S
C1051 C1048 1.526 . S
C1051 C1052 1.396 . S
C1051 C1056 1.390 . S
C1052 C1046 1.465 . S
C1052 C1051 1.396 . S
C1052 C1053 1.399 . S
C1053 H1039 0.929 . S
C1053 C1052 1.399 . S
C1053 C1054 1.385 . S
C1054 H1040 0.931 . S
C1054 C1053 1.385 . S
C1054 C1055 1.389 . S
C1055 C1054 1.389 . S
C1055 C1056 1.387 . S
C1056 H1041 0.930 . S
C1056 C1051 1.390 . S
C1056 C1055 1.387 . S
H1057 C1069 0.930 . S
H1058 C1071 0.930 . S
H1059 C1072 0.930 . S
H1060 C1076 0.959 . S
H1061 C1076 0.959 . S
H1062 C1076 0.961 . S
H1063 C1077 0.960 . S
H1064 C1077 0.961 . S
H1065 C1077 0.959 . S
H1066 C1080 0.929 . S
H1067 C1081 0.931 . S
H1068 C1083 0.930 . S
C1069 H1057 0.930 . S
C1069 C1070 1.399 . S
C1069 C1074 1.399 . S
C1070 C1069 1.399 . S
C1070 C1071 1.376 . S
C1071 H1058 0.930 . S
C1071 C1070 1.376 . S
C1071 C1072 1.388 . S
C1072 H1059 0.930 . S
C1072 C1071 1.388 . S
C1072 C1073 1.390 . S
C1073 C1072 1.390 . S
C1073 C1074 1.394 . S
C1073 C1079 1.465 . S
C1074 C1069 1.399 . S
C1074 C1073 1.394 . S
C1074 C1075 1.516 . S
C1075 C1074 1.516 . S
C1075 C1076 1.502 . S
C1075 C1077 1.561 . S
C1075 C1078 1.526 . S
C1076 H1060 0.959 . S
C1076 H1061 0.959 . S
C1076 H1062 0.961 . S
C1076 C1075 1.502 . S
C1077 H1063 0.960 . S
C1077 H1064 0.961 . S
C1077 H1065 0.959 . S
C1077 C1075 1.561 . S
C1078 C1075 1.526 . S
C1078 C1079 1.396 . S
C1078 C1083 1.390 . S
C1079 C1073 1.465 . S
C1079 C1078 1.396 . S
C1079 C1080 1.399 . S
C1080 H1066 0.929 . S
C1080 C1079 1.399 . S
C1080 C1081 1.385 . S
C1081 H1067 0.931 . S
C1081 C1080 1.385 . S
C1081 C1082 1.389 . S
C1082 C1081 1.389 . S
C1082 C1083 1.387 . S
C1083 H1068 0.930 . S
C1083 C1078 1.390 . S
C1083 C1082 1.387 . S
H1084 C1096 0.930 . S
H1085 C1098 0.930 . S
H1086 C1099 0.930 . S
H1087 C1103 0.959 . S
H1088 C1103 0.959 . S
H1089 C1103 0.961 . S
H1090 C1104 0.960 . S
H1091 C1104 0.961 . S
H1092 C1104 0.959 . S
H1093 C1107 0.929 . S
H1094 C1108 0.931 . S
H1095 C1110 0.930 . S
C1096 H1084 0.930 . S
C1096 C1097 1.399 . S
C1096 C1101 1.399 . S
C1097 C1096 1.399 . S
C1097 C1098 1.376 . S
C1098 H1085 0.930 . S
C1098 C1097 1.376 . S
C1098 C1099 1.388 . S
C1099 H1086 0.930 . S
C1099 C1098 1.388 . S
C1099 C1100 1.390 . S
C1100 C1099 1.390 . S
C1100 C1101 1.394 . S
C1100 C1106 1.465 . S
C1101 C1096 1.399 . S
C1101 C1100 1.394 . S
C1101 C1102 1.516 . S
C1102 C1101 1.516 . S
C1102 C1103 1.502 . S
C1102 C1104 1.561 . S
C1102 C1105 1.526 . S
C1103 H1087 0.959 . S
C1103 H1088 0.959 . S
C1103 H1089 0.961 . S
C1103 C1102 1.502 . S
C1104 H1090 0.960 . S
C1104 H1091 0.961 . S
C1104 H1092 0.959 . S
C1104 C1102 1.561 . S
C1105 C1102 1.526 . S
C1105 C1106 1.396 . S
C1105 C1110 1.390 . S
C1106 C1100 1.465 . S
C1106 C1105 1.396 . S
C1106 C1107 1.399 . S
C1107 H1093 0.929 . S
C1107 C1106 1.399 . S
C1107 C1108 1.385 . S
C1108 H1094 0.931 . S
C1108 C1107 1.385 . S
C1108 C1109 1.389 . S
C1109 C1108 1.389 . S
C1109 C1110 1.387 . S
C1110 H1095 0.930 . S
C1110 C1105 1.390 . S
C1110 C1109 1.387 . S
H1111 C1123 0.930 . S
H1112 C1125 0.930 . S
H1113 C1126 0.930 . S
H1114 C1130 0.959 . S
H1115 C1130 0.959 . S
H1116 C1130 0.961 . S
H1117 C1131 0.960 . S
H1118 C1131 0.961 . S
H1119 C1131 0.959 . S
H1120 C1134 0.929 1_554 S
H1121 C1135 0.931 . S
H1122 C1137 0.930 . S
C1123 H1111 0.930 . S
C1123 C1124 1.399 . S
C1123 C1128 1.399 . S
C1124 C1123 1.399 . S
C1124 C1125 1.376 . S
C1125 H1112 0.930 . S
C1125 C1124 1.376 . S
C1125 C1126 1.388 . S
C1126 H1113 0.930 . S
C1126 C1125 1.388 . S
C1126 C1127 1.390 . S
C1127 C1126 1.390 . S
C1127 C1128 1.394 . S
C1127 C1133 1.465 . S
C1128 C1123 1.399 . S
C1128 C1127 1.394 . S
C1128 C1129 1.516 . S
C1129 C1128 1.516 . S
C1129 C1130 1.502 . S
C1129 C1131 1.561 . S
C1129 C1132 1.526 . S
C1130 H1114 0.959 . S
C1130 H1115 0.959 . S
C1130 H1116 0.961 . S
C1130 C1129 1.502 . S
C1131 H1117 0.960 . S
C1131 H1118 0.961 . S
C1131 H1119 0.959 . S
C1131 C1129 1.561 . S
C1132 C1129 1.526 . S
C1132 C1133 1.396 . S
C1132 C1137 1.390 1_554 S
C1133 C1127 1.465 . S
C1133 C1132 1.396 . S
C1133 C1134 1.399 1_554 S
C1134 H1120 0.929 1_556 S
C1134 C1133 1.399 1_556 S
C1134 C1135 1.385 . S
C1135 H1121 0.931 . S
C1135 C1134 1.385 . S
C1135 C1136 1.389 . S
C1136 C1135 1.389 . S
C1136 C1137 1.387 . S
C1137 H1122 0.930 . S
C1137 C1132 1.390 1_556 S
C1137 C1136 1.387 . S
H1138 C1150 0.930 . S
H1139 C1152 0.930 1_554 S
H1140 C1153 0.930 . S
H1141 C1157 0.959 . S
H1142 C1157 0.959 . S
H1143 C1157 0.961 . S
H1144 C1158 0.960 . S
H1145 C1158 0.961 . S
H1146 C1158 0.959 . S
H1147 C1161 0.929 . S
H1148 C1162 0.931 . S
H1149 C1164 0.930 . S
C1150 H1138 0.930 . S
C1150 C1151 1.399 1_556 S
C1150 C1155 1.399 . S
C1151 C1150 1.399 1_554 S
C1151 C1152 1.376 1_554 S
C1152 H1139 0.930 1_556 S
C1152 C1151 1.376 1_556 S
C1152 C1153 1.388 . S
C1153 H1140 0.930 . S
C1153 C1152 1.388 . S
C1153 C1154 1.390 . S
C1154 C1153 1.390 . S
C1154 C1155 1.394 . S
C1154 C1160 1.465 . S
C1155 C1150 1.399 . S
C1155 C1154 1.394 . S
C1155 C1156 1.516 . S
C1156 C1155 1.516 . S
C1156 C1157 1.502 . S
C1156 C1158 1.561 . S
C1156 C1159 1.526 . S
C1157 H1141 0.959 . S
C1157 H1142 0.959 . S
C1157 H1143 0.961 . S
C1157 C1156 1.502 . S
C1158 H1144 0.960 . S
C1158 H1145 0.961 . S
C1158 H1146 0.959 . S
C1158 C1156 1.561 . S
C1159 C1156 1.526 . S
C1159 C1160 1.396 . S
C1159 C1164 1.390 . S
C1160 C1154 1.465 . S
C1160 C1159 1.396 . S
C1160 C1161 1.399 . S
C1161 H1147 0.929 . S
C1161 C1160 1.399 . S
C1161 C1162 1.385 . S
C1162 H1148 0.931 . S
C1162 C1161 1.385 . S
C1162 C1163 1.389 . S
C1163 C1162 1.389 . S
C1163 C1164 1.387 . S
C1164 H1149 0.930 . S
C1164 C1159 1.390 . S
C1164 C1163 1.387 . S
H1165 C1177 0.930 . S
H1166 C1179 0.930 1_554 S
H1167 C1180 0.930 . S
H1168 C1184 0.959 . S
H1169 C1184 0.959 . S
H1170 C1184 0.961 . S
H1171 C1185 0.960 . S
H1172 C1185 0.961 . S
H1173 C1185 0.959 . S
H1174 C1188 0.929 . S
H1175 C1189 0.931 . S
H1176 C1191 0.930 . S
C1177 H1165 0.930 . S
C1177 C1178 1.399 1_556 S
C1177 C1182 1.399 . S
C1178 C1177 1.399 1_554 S
C1178 C1179 1.376 1_554 S
C1179 H1166 0.930 1_556 S
C1179 C1178 1.376 1_556 S
C1179 C1180 1.388 . S
C1180 H1167 0.930 . S
C1180 C1179 1.388 . S
C1180 C1181 1.390 . S
C1181 C1180 1.390 . S
C1181 C1182 1.394 . S
C1181 C1187 1.465 . S
C1182 C1177 1.399 . S
C1182 C1181 1.394 . S
C1182 C1183 1.516 . S
C1183 C1182 1.516 . S
C1183 C1184 1.502 . S
C1183 C1185 1.561 . S
C1183 C1186 1.526 . S
C1184 H1168 0.959 . S
C1184 H1169 0.959 . S
C1184 H1170 0.961 . S
C1184 C1183 1.502 . S
C1185 H1171 0.960 . S
C1185 H1172 0.961 . S
C1185 H1173 0.959 . S
C1185 C1183 1.561 . S
C1186 C1183 1.526 . S
C1186 C1187 1.396 . S
C1186 C1191 1.390 . S
C1187 C1181 1.465 . S
C1187 C1186 1.396 . S
C1187 C1188 1.399 . S
C1188 H1174 0.929 . S
C1188 C1187 1.399 . S
C1188 C1189 1.385 . S
C1189 H1175 0.931 . S
C1189 C1188 1.385 . S
C1189 C1190 1.389 . S
C1190 C1189 1.389 . S
C1190 C1191 1.387 . S
C1191 H1176 0.930 . S
C1191 C1186 1.390 . S
C1191 C1190 1.387 . S
H1192 C1204 0.930 . S
H1193 C1206 0.930 . S
H1194 C1207 0.930 . S
H1195 C1211 0.959 . S
H1196 C1211 0.959 . S
H1197 C1211 0.961 . S
H1198 C1212 0.960 . S
H1199 C1212 0.961 . S
H1200 C1212 0.959 . S
H1201 C1215 0.929 . S
H1202 C1216 0.931 . S
H1203 C1218 0.930 . S
C1204 H1192 0.930 . S
C1204 C1205 1.399 . S
C1204 C1209 1.399 . S
C1205 C1204 1.399 . S
C1205 C1206 1.376 . S
C1206 H1193 0.930 . S
C1206 C1205 1.376 . S
C1206 C1207 1.388 . S
C1207 H1194 0.930 . S
C1207 C1206 1.388 . S
C1207 C1208 1.390 . S
C1208 C1207 1.390 . S
C1208 C1209 1.394 . S
C1208 C1214 1.465 . S
C1209 C1204 1.399 . S
C1209 C1208 1.394 . S
C1209 C1210 1.516 . S
C1210 C1209 1.516 . S
C1210 C1211 1.502 . S
C1210 C1212 1.561 . S
C1210 C1213 1.526 . S
C1211 H1195 0.959 . S
C1211 H1196 0.959 . S
C1211 H1197 0.961 . S
C1211 C1210 1.502 . S
C1212 H1198 0.960 . S
C1212 H1199 0.961 . S
C1212 H1200 0.959 . S
C1212 C1210 1.561 . S
C1213 C1210 1.526 . S
C1213 C1214 1.396 . S
C1213 C1218 1.390 . S
C1214 C1208 1.465 . S
C1214 C1213 1.396 . S
C1214 C1215 1.399 . S
C1215 H1201 0.929 . S
C1215 C1214 1.399 . S
C1215 C1216 1.385 . S
C1216 H1202 0.931 . S
C1216 C1215 1.385 . S
C1216 C1217 1.389 . S
C1217 C1216 1.389 . S
C1217 C1218 1.387 . S
C1218 H1203 0.930 . S
C1218 C1213 1.390 . S
C1218 C1217 1.387 . S
H1219 C1231 0.930 . S
H1220 C1233 0.930 . S
H1221 C1234 0.930 . S
H1222 C1238 0.959 . S
H1223 C1238 0.959 . S
H1224 C1238 0.961 1_556 S
H1225 C1239 0.960 . S
H1226 C1239 0.961 . S
H1227 C1239 0.959 . S
H1228 C1242 0.929 . S
H1229 C1243 0.931 . S
H1230 C1245 0.930 . S
C1231 H1219 0.930 . S
C1231 C1232 1.399 . S
C1231 C1236 1.399 1_556 S
C1232 C1231 1.399 . S
C1232 C1233 1.376 . S
C1233 H1220 0.930 . S
C1233 C1232 1.376 . S
C1233 C1234 1.388 1_556 S
C1234 H1221 0.930 . S
C1234 C1233 1.388 1_554 S
C1234 C1235 1.390 . S
C1235 C1234 1.390 . S
C1235 C1236 1.394 . S
C1235 C1241 1.465 . S
C1236 C1231 1.399 1_554 S
C1236 C1235 1.394 . S
C1236 C1237 1.516 . S
C1237 C1236 1.516 . S
C1237 C1238 1.502 . S
C1237 C1239 1.561 . S
C1237 C1240 1.526 . S
C1238 H1222 0.959 . S
C1238 H1223 0.959 . S
C1238 H1224 0.961 1_554 S
C1238 C1237 1.502 . S
C1239 H1225 0.960 . S
C1239 H1226 0.961 . S
C1239 H1227 0.959 . S
C1239 C1237 1.561 . S
C1240 C1237 1.526 . S
C1240 C1241 1.396 . S
C1240 C1245 1.390 . S
C1241 C1235 1.465 . S
C1241 C1240 1.396 . S
C1241 C1242 1.399 . S
C1242 H1228 0.929 . S
C1242 C1241 1.399 . S
C1242 C1243 1.385 . S
C1243 H1229 0.931 . S
C1243 C1242 1.385 . S
C1243 C1244 1.389 . S
C1244 C1243 1.389 . S
C1244 C1245 1.387 . S
C1245 H1230 0.930 . S
C1245 C1240 1.390 . S
C1245 C1244 1.387 . S
H1246 C1258 0.930 . S
H1247 C1260 0.930 . S
H1248 C1261 0.930 . S
H1249 C1265 0.959 . S
H1250 C1265 0.959 . S
H1251 C1265 0.961 . S
H1252 C1266 0.960 . S
H1253 C1266 0.961 . S
H1254 C1266 0.959 . S
H1255 C1269 0.929 . S
H1256 C1270 0.931 . S
H1257 C1272 0.930 . S
C1258 H1246 0.930 . S
C1258 C1259 1.399 1_556 S
C1258 C1263 1.399 . S
C1259 C1258 1.399 1_554 S
C1259 C1260 1.376 . S
C1260 H1247 0.930 . S
C1260 C1259 1.376 . S
C1260 C1261 1.388 1_554 S
C1261 H1248 0.930 . S
C1261 C1260 1.388 1_556 S
C1261 C1262 1.390 . S
C1262 C1261 1.390 . S
C1262 C1263 1.394 . S
C1262 C1268 1.465 . S
C1263 C1258 1.399 . S
C1263 C1262 1.394 . S
C1263 C1264 1.516 . S
C1264 C1263 1.516 . S
C1264 C1265 1.502 . S
C1264 C1266 1.561 . S
C1264 C1267 1.526 . S
C1265 H1249 0.959 . S
C1265 H1250 0.959 . S
C1265 H1251 0.961 . S
C1265 C1264 1.502 . S
C1266 H1252 0.960 . S
C1266 H1253 0.961 . S
C1266 H1254 0.959 . S
C1266 C1264 1.561 . S
C1267 C1264 1.526 . S
C1267 C1268 1.396 . S
C1267 C1272 1.390 . S
C1268 C1262 1.465 . S
C1268 C1267 1.396 . S
C1268 C1269 1.399 . S
C1269 H1255 0.929 . S
C1269 C1268 1.399 . S
C1269 C1270 1.385 . S
C1270 H1256 0.931 . S
C1270 C1269 1.385 . S
C1270 C1271 1.389 . S
C1271 C1270 1.389 . S
C1271 C1272 1.387 . S
C1272 H1257 0.930 . S
C1272 C1267 1.390 . S
C1272 C1271 1.387 . S
H1273 C1285 0.930 . S
H1274 C1287 0.930 1_554 S
H1275 C1288 0.930 . S
H1276 C1292 0.959 . S
H1277 C1292 0.959 . S
H1278 C1292 0.961 . S
H1279 C1293 0.960 . S
H1280 C1293 0.961 . S
H1281 C1293 0.959 . S
H1282 C1296 0.929 . S
H1283 C1297 0.931 . S
H1284 C1299 0.930 . S
C1285 H1273 0.930 . S
C1285 C1286 1.399 1_556 S
C1285 C1290 1.399 . S
C1286 C1285 1.399 1_554 S
C1286 C1287 1.376 1_554 S
C1287 H1274 0.930 1_556 S
C1287 C1286 1.376 1_556 S
C1287 C1288 1.388 . S
C1288 H1275 0.930 . S
C1288 C1287 1.388 . S
C1288 C1289 1.390 . S
C1289 C1288 1.390 . S
C1289 C1290 1.394 . S
C1289 C1295 1.465 . S
C1290 C1285 1.399 . S
C1290 C1289 1.394 . S
C1290 C1291 1.516 . S
C1291 C1290 1.516 . S
C1291 C1292 1.502 . S
C1291 C1293 1.561 . S
C1291 C1294 1.526 . S
C1292 H1276 0.959 . S
C1292 H1277 0.959 . S
C1292 H1278 0.961 . S
C1292 C1291 1.502 . S
C1293 H1279 0.960 . S
C1293 H1280 0.961 . S
C1293 H1281 0.959 . S
C1293 C1291 1.561 . S
C1294 C1291 1.526 . S
C1294 C1295 1.396 . S
C1294 C1299 1.390 . S
C1295 C1289 1.465 . S
C1295 C1294 1.396 . S
C1295 C1296 1.399 . S
C1296 H1282 0.929 . S
C1296 C1295 1.399 . S
C1296 C1297 1.385 . S
C1297 H1283 0.931 . S
C1297 C1296 1.385 . S
C1297 C1298 1.389 . S
C1298 C1297 1.389 . S
C1298 C1299 1.387 . S
C1299 H1284 0.930 . S
C1299 C1294 1.390 . S
C1299 C1298 1.387 . S
H1300 C1312 0.930 . S
H1301 C1314 0.930 . S
H1302 C1315 0.930 . S
H1303 C1319 0.959 . S
H1304 C1319 0.959 . S
H1305 C1319 0.961 . S
H1306 C1320 0.960 . S
H1307 C1320 0.961 . S
H1308 C1320 0.959 . S
H1309 C1323 0.929 . S
H1310 C1324 0.931 . S
H1311 C1326 0.930 . S
C1312 H1300 0.930 . S
C1312 C1313 1.399 . S
C1312 C1317 1.399 . S
C1313 C1312 1.399 . S
C1313 C1314 1.376 . S
C1314 H1301 0.930 . S
C1314 C1313 1.376 . S
C1314 C1315 1.388 . S
C1315 H1302 0.930 . S
C1315 C1314 1.388 . S
C1315 C1316 1.390 . S
C1316 C1315 1.390 . S
C1316 C1317 1.394 . S
C1316 C1322 1.465 . S
C1317 C1312 1.399 . S
C1317 C1316 1.394 . S
C1317 C1318 1.516 . S
C1318 C1317 1.516 . S
C1318 C1319 1.502 . S
C1318 C1320 1.561 . S
C1318 C1321 1.526 . S
C1319 H1303 0.959 . S
C1319 H1304 0.959 . S
C1319 H1305 0.961 . S
C1319 C1318 1.502 . S
C1320 H1306 0.960 . S
C1320 H1307 0.961 . S
C1320 H1308 0.959 . S
C1320 C1318 1.561 . S
C1321 C1318 1.526 . S
C1321 C1322 1.396 . S
C1321 C1326 1.390 . S
C1322 C1316 1.465 . S
C1322 C1321 1.396 . S
C1322 C1323 1.399 . S
C1323 H1309 0.929 . S
C1323 C1322 1.399 . S
C1323 C1324 1.385 . S
C1324 H1310 0.931 . S
C1324 C1323 1.385 . S
C1324 C1325 1.389 . S
C1325 C1324 1.389 . S
C1325 C1326 1.387 . S
C1326 H1311 0.930 . S
C1326 C1321 1.390 . S
C1326 C1325 1.387 . S
H1327 C1339 0.930 . S
H1328 C1341 0.930 . S
H1329 C1342 0.930 . S
H1330 C1346 0.959 . S
H1331 C1346 0.959 . S
H1332 C1346 0.961 . S
H1333 C1347 0.960 . S
H1334 C1347 0.961 . S
H1335 C1347 0.959 . S
H1336 C1350 0.929 . S
H1337 C1351 0.931 . S
H1338 C1353 0.930 . S
C1339 H1327 0.930 . S
C1339 C1340 1.399 . S
C1339 C1344 1.399 . S
C1340 C1339 1.399 . S
C1340 C1341 1.376 . S
C1341 H1328 0.930 . S
C1341 C1340 1.376 . S
C1341 C1342 1.388 . S
C1342 H1329 0.930 . S
C1342 C1341 1.388 . S
C1342 C1343 1.390 . S
C1343 C1342 1.390 . S
C1343 C1344 1.394 . S
C1343 C1349 1.465 . S
C1344 C1339 1.399 . S
C1344 C1343 1.394 . S
C1344 C1345 1.516 . S
C1345 C1344 1.516 . S
C1345 C1346 1.502 . S
C1345 C1347 1.561 . S
C1345 C1348 1.526 . S
C1346 H1330 0.959 . S
C1346 H1331 0.959 . S
C1346 H1332 0.961 . S
C1346 C1345 1.502 . S
C1347 H1333 0.960 . S
C1347 H1334 0.961 . S
C1347 H1335 0.959 . S
C1347 C1345 1.561 . S
C1348 C1345 1.526 . S
C1348 C1349 1.396 . S
C1348 C1353 1.390 . S
C1349 C1343 1.465 . S
C1349 C1348 1.396 . S
C1349 C1350 1.399 . S
C1350 H1336 0.929 . S
C1350 C1349 1.399 . S
C1350 C1351 1.385 . S
C1351 H1337 0.931 . S
C1351 C1350 1.385 . S
C1351 C1352 1.389 . S
C1352 C1351 1.389 . S
C1352 C1353 1.387 . S
C1353 H1338 0.930 . S
C1353 C1348 1.390 . S
C1353 C1352 1.387 . S
H1354 C1366 0.930 . S
H1355 C1368 0.930 . S
H1356 C1369 0.930 . S
H1357 C1373 0.959 . S
H1358 C1373 0.959 . S
H1359 C1373 0.961 . S
H1360 C1374 0.960 . S
H1361 C1374 0.961 . S
H1362 C1374 0.959 . S
H1363 C1377 0.929 . S
H1364 C1378 0.931 . S
H1365 C1380 0.930 . S
C1366 H1354 0.930 . S
C1366 C1367 1.399 . S
C1366 C1371 1.399 . S
C1367 C1366 1.399 . S
C1367 C1368 1.376 . S
C1368 H1355 0.930 . S
C1368 C1367 1.376 . S
C1368 C1369 1.388 . S
C1369 H1356 0.930 . S
C1369 C1368 1.388 . S
C1369 C1370 1.390 . S
C1370 C1369 1.390 . S
C1370 C1371 1.394 . S
C1370 C1376 1.465 . S
C1371 C1366 1.399 . S
C1371 C1370 1.394 . S
C1371 C1372 1.516 . S
C1372 C1371 1.516 . S
C1372 C1373 1.502 . S
C1372 C1374 1.561 . S
C1372 C1375 1.526 . S
C1373 H1357 0.959 . S
C1373 H1358 0.959 . S
C1373 H1359 0.961 . S
C1373 C1372 1.502 . S
C1374 H1360 0.960 . S
C1374 H1361 0.961 . S
C1374 H1362 0.959 . S
C1374 C1372 1.561 . S
C1375 C1372 1.526 . S
C1375 C1376 1.396 . S
C1375 C1380 1.390 . S
C1376 C1370 1.465 . S
C1376 C1375 1.396 . S
C1376 C1377 1.399 . S
C1377 H1363 0.929 . S
C1377 C1376 1.399 . S
C1377 C1378 1.385 . S
C1378 H1364 0.931 . S
C1378 C1377 1.385 . S
C1378 C1379 1.389 . S
C1379 C1378 1.389 . S
C1379 C1380 1.387 . S
C1380 H1365 0.930 . S
C1380 C1375 1.390 . S
C1380 C1379 1.387 . S
H1381 C1393 0.930 . S
H1382 C1395 0.930 . S
H1383 C1396 0.930 . S
H1384 C1400 0.959 . S
H1385 C1400 0.959 . S
H1386 C1400 0.961 . S
H1387 C1401 0.960 . S
H1388 C1401 0.961 . S
H1389 C1401 0.959 . S
H1390 C1404 0.929 . S
H1391 C1405 0.931 . S
H1392 C1407 0.930 . S
C1393 H1381 0.930 . S
C1393 C1394 1.399 . S
C1393 C1398 1.399 . S
C1394 C1393 1.399 . S
C1394 C1395 1.376 . S
C1395 H1382 0.930 . S
C1395 C1394 1.376 . S
C1395 C1396 1.388 . S
C1396 H1383 0.930 . S
C1396 C1395 1.388 . S
C1396 C1397 1.390 . S
C1397 C1396 1.390 . S
C1397 C1398 1.394 . S
C1397 C1403 1.465 . S
C1398 C1393 1.399 . S
C1398 C1397 1.394 . S
C1398 C1399 1.516 . S
C1399 C1398 1.516 . S
C1399 C1400 1.502 . S
C1399 C1401 1.561 . S
C1399 C1402 1.526 . S
C1400 H1384 0.959 . S
C1400 H1385 0.959 . S
C1400 H1386 0.961 . S
C1400 C1399 1.502 . S
C1401 H1387 0.960 . S
C1401 H1388 0.961 . S
C1401 H1389 0.959 . S
C1401 C1399 1.561 . S
C1402 C1399 1.526 . S
C1402 C1403 1.396 . S
C1402 C1407 1.390 . S
C1403 C1397 1.465 . S
C1403 C1402 1.396 . S
C1403 C1404 1.399 . S
C1404 H1390 0.929 . S
C1404 C1403 1.399 . S
C1404 C1405 1.385 . S
C1405 H1391 0.931 . S
C1405 C1404 1.385 . S
C1405 C1406 1.389 . S
C1406 C1405 1.389 . S
C1406 C1407 1.387 . S
C1407 H1392 0.930 . S
C1407 C1402 1.390 . S
C1407 C1406 1.387 . S
H1408 C1420 0.930 . S
H1409 C1422 0.930 . S
H1410 C1423 0.930 . S
H1411 C1427 0.959 . S
H1412 C1427 0.959 . S
H1413 C1427 0.961 . S
H1414 C1428 0.960 . S
H1415 C1428 0.961 . S
H1416 C1428 0.959 . S
H1417 C1431 0.929 . S
H1418 C1432 0.931 . S
H1419 C1434 0.930 . S
C1420 H1408 0.930 . S
C1420 C1421 1.399 . S
C1420 C1425 1.399 . S
C1421 C1420 1.399 . S
C1421 C1422 1.376 . S
C1422 H1409 0.930 . S
C1422 C1421 1.376 . S
C1422 C1423 1.388 . S
C1423 H1410 0.930 . S
C1423 C1422 1.388 . S
C1423 C1424 1.390 . S
C1424 C1423 1.390 . S
C1424 C1425 1.394 . S
C1424 C1430 1.465 . S
C1425 C1420 1.399 . S
C1425 C1424 1.394 . S
C1425 C1426 1.516 . S
C1426 C1425 1.516 . S
C1426 C1427 1.502 . S
C1426 C1428 1.561 . S
C1426 C1429 1.526 . S
C1427 H1411 0.959 . S
C1427 H1412 0.959 . S
C1427 H1413 0.961 . S
C1427 C1426 1.502 . S
C1428 H1414 0.960 . S
C1428 H1415 0.961 . S
C1428 H1416 0.959 . S
C1428 C1426 1.561 . S
C1429 C1426 1.526 . S
C1429 C1430 1.396 . S
C1429 C1434 1.390 . S
C1430 C1424 1.465 . S
C1430 C1429 1.396 . S
C1430 C1431 1.399 . S
C1431 H1417 0.929 . S
C1431 C1430 1.399 . S
C1431 C1432 1.385 . S
C1432 H1418 0.931 . S
C1432 C1431 1.385 . S
C1432 C1433 1.389 . S
C1433 C1432 1.389 . S
C1433 C1434 1.387 . S
C1434 H1419 0.930 . S
C1434 C1429 1.390 . S
C1434 C1433 1.387 . S
H1435 C1447 0.930 . S
H1436 C1449 0.930 . S
H1437 C1450 0.930 . S
H1438 C1454 0.959 1_556 S
H1439 C1454 0.959 . S
H1440 C1454 0.961 . S
H1441 C1455 0.960 . S
H1442 C1455 0.961 . S
H1443 C1455 0.959 1_556 S
H1444 C1458 0.929 . S
H1445 C1459 0.931 . S
H1446 C1461 0.930 . S
C1447 H1435 0.930 . S
C1447 C1448 1.399 . S
C1447 C1452 1.399 . S
C1448 C1447 1.399 . S
C1448 C1449 1.376 . S
C1449 H1436 0.930 . S
C1449 C1448 1.376 . S
C1449 C1450 1.388 . S
C1450 H1437 0.930 . S
C1450 C1449 1.388 . S
C1450 C1451 1.390 . S
C1451 C1450 1.390 . S
C1451 C1452 1.394 . S
C1451 C1457 1.465 . S
C1452 C1447 1.399 . S
C1452 C1451 1.394 . S
C1452 C1453 1.516 . S
C1453 C1452 1.516 . S
C1453 C1454 1.502 1_556 S
C1453 C1455 1.561 1_556 S
C1453 C1456 1.526 . S
C1454 H1438 0.959 1_554 S
C1454 H1439 0.959 . S
C1454 H1440 0.961 . S
C1454 C1453 1.502 1_554 S
C1455 H1441 0.960 . S
C1455 H1442 0.961 . S
C1455 H1443 0.959 1_554 S
C1455 C1453 1.561 1_554 S
C1456 C1453 1.526 . S
C1456 C1457 1.396 . S
C1456 C1461 1.390 . S
C1457 C1451 1.465 . S
C1457 C1456 1.396 . S
C1457 C1458 1.399 . S
C1458 H1444 0.929 . S
C1458 C1457 1.399 . S
C1458 C1459 1.385 . S
C1459 H1445 0.931 . S
C1459 C1458 1.385 . S
C1459 C1460 1.389 . S
C1460 C1459 1.389 . S
C1460 C1461 1.387 . S
C1461 H1446 0.930 . S
C1461 C1456 1.390 . S
C1461 C1460 1.387 . S
H1462 C1474 0.930 . S
H1463 C1476 0.930 . S
H1464 C1477 0.930 . S
H1465 C1481 0.959 . S
H1466 C1481 0.959 . S
H1467 C1481 0.961 . S
H1468 C1482 0.960 . S
H1469 C1482 0.961 . S
H1470 C1482 0.959 . S
H1471 C1485 0.929 . S
H1472 C1486 0.931 . S
H1473 C1488 0.930 . S
C1474 H1462 0.930 . S
C1474 C1475 1.399 . S
C1474 C1479 1.399 . S
C1475 C1474 1.399 . S
C1475 C1476 1.376 . S
C1476 H1463 0.930 . S
C1476 C1475 1.376 . S
C1476 C1477 1.388 . S
C1477 H1464 0.930 . S
C1477 C1476 1.388 . S
C1477 C1478 1.390 . S
C1478 C1477 1.390 . S
C1478 C1479 1.394 . S
C1478 C1484 1.465 . S
C1479 C1474 1.399 . S
C1479 C1478 1.394 . S
C1479 C1480 1.516 . S
C1480 C1479 1.516 . S
C1480 C1481 1.502 . S
C1480 C1482 1.561 . S
C1480 C1483 1.526 . S
C1481 H1465 0.959 . S
C1481 H1466 0.959 . S
C1481 H1467 0.961 . S
C1481 C1480 1.502 . S
C1482 H1468 0.960 . S
C1482 H1469 0.961 . S
C1482 H1470 0.959 . S
C1482 C1480 1.561 . S
C1483 C1480 1.526 . S
C1483 C1484 1.396 . S
C1483 C1488 1.390 . S
C1484 C1478 1.465 . S
C1484 C1483 1.396 . S
C1484 C1485 1.399 . S
C1485 H1471 0.929 . S
C1485 C1484 1.399 . S
C1485 C1486 1.385 . S
C1486 H1472 0.931 . S
C1486 C1485 1.385 . S
C1486 C1487 1.389 . S
C1487 C1486 1.389 . S
C1487 C1488 1.387 . S
C1488 H1473 0.930 . S
C1488 C1483 1.390 . S
C1488 C1487 1.387 . S
H1489 C1501 0.930 . S
H1490 C1503 0.930 . S
H1491 C1504 0.930 . S
H1492 C1508 0.959 . S
H1493 C1508 0.959 . S
H1494 C1508 0.961 . S
H1495 C1509 0.960 . S
H1496 C1509 0.961 . S
H1497 C1509 0.959 . S
H1498 C1512 0.929 . S
H1499 C1513 0.931 . S
H1500 C1515 0.930 . S
C1501 H1489 0.930 . S
C1501 C1502 1.399 . S
C1501 C1506 1.399 . S
C1502 C1501 1.399 . S
C1502 C1503 1.376 . S
C1503 H1490 0.930 . S
C1503 C1502 1.376 . S
C1503 C1504 1.388 . S
C1504 H1491 0.930 . S
C1504 C1503 1.388 . S
C1504 C1505 1.390 . S
C1505 C1504 1.390 . S
C1505 C1506 1.394 . S
C1505 C1511 1.465 . S
C1506 C1501 1.399 . S
C1506 C1505 1.394 . S
C1506 C1507 1.516 . S
C1507 C1506 1.516 . S
C1507 C1508 1.502 . S
C1507 C1509 1.561 . S
C1507 C1510 1.526 . S
C1508 H1492 0.959 . S
C1508 H1493 0.959 . S
C1508 H1494 0.961 . S
C1508 C1507 1.502 . S
C1509 H1495 0.960 . S
C1509 H1496 0.961 . S
C1509 H1497 0.959 . S
C1509 C1507 1.561 . S
C1510 C1507 1.526 . S
C1510 C1511 1.396 . S
C1510 C1515 1.390 . S
C1511 C1505 1.465 . S
C1511 C1510 1.396 . S
C1511 C1512 1.399 . S
C1512 H1498 0.929 . S
C1512 C1511 1.399 . S
C1512 C1513 1.385 . S
C1513 H1499 0.931 . S
C1513 C1512 1.385 . S
C1513 C1514 1.389 . S
C1514 C1513 1.389 . S
C1514 C1515 1.387 . S
C1515 H1500 0.930 . S
C1515 C1510 1.390 . S
C1515 C1514 1.387 . S
H1516 C1528 0.930 . S
H1517 C1530 0.930 . S
H1518 C1531 0.930 . S
H1519 C1535 0.959 . S
H1520 C1535 0.959 . S
H1521 C1535 0.961 . S
H1522 C1536 0.960 . S
H1523 C1536 0.961 . S
H1524 C1536 0.959 . S
H1525 C1539 0.929 . S
H1526 C1540 0.931 . S
H1527 C1542 0.930 . S
C1528 H1516 0.930 . S
C1528 C1529 1.399 . S
C1528 C1533 1.399 . S
C1529 C1528 1.399 . S
C1529 C1530 1.376 . S
C1530 H1517 0.930 . S
C1530 C1529 1.376 . S
C1530 C1531 1.388 . S
C1531 H1518 0.930 . S
C1531 C1530 1.388 . S
C1531 C1532 1.390 . S
C1532 C1531 1.390 . S
C1532 C1533 1.394 . S
C1532 C1538 1.465 . S
C1533 C1528 1.399 . S
C1533 C1532 1.394 . S
C1533 C1534 1.516 . S
C1534 C1533 1.516 . S
C1534 C1535 1.502 . S
C1534 C1536 1.561 . S
C1534 C1537 1.526 . S
C1535 H1519 0.959 . S
C1535 H1520 0.959 . S
C1535 H1521 0.961 . S
C1535 C1534 1.502 . S
C1536 H1522 0.960 . S
C1536 H1523 0.961 . S
C1536 H1524 0.959 . S
C1536 C1534 1.561 . S
C1537 C1534 1.526 . S
C1537 C1538 1.396 . S
C1537 C1542 1.390 . S
C1538 C1532 1.465 . S
C1538 C1537 1.396 . S
C1538 C1539 1.399 . S
C1539 H1525 0.929 . S
C1539 C1538 1.399 . S
C1539 C1540 1.385 . S
C1540 H1526 0.931 . S
C1540 C1539 1.385 . S
C1540 C1541 1.389 . S
C1541 C1540 1.389 . S
C1541 C1542 1.387 . S
C1542 H1527 0.930 . S
C1542 C1537 1.390 . S
C1542 C1541 1.387 . S
H1543 C1555 0.930 . S
H1544 C1557 0.930 . S
H1545 C1558 0.930 . S
H1546 C1562 0.959 . S
H1547 C1562 0.959 . S
H1548 C1562 0.961 . S
H1549 C1563 0.960 . S
H1550 C1563 0.961 . S
H1551 C1563 0.959 . S
H1552 C1566 0.929 . S
H1553 C1567 0.931 . S
H1554 C1569 0.930 . S
C1555 H1543 0.930 . S
C1555 C1556 1.399 . S
C1555 C1560 1.399 . S
C1556 C1555 1.399 . S
C1556 C1557 1.376 . S
C1557 H1544 0.930 . S
C1557 C1556 1.376 . S
C1557 C1558 1.388 . S
C1558 H1545 0.930 . S
C1558 C1557 1.388 . S
C1558 C1559 1.390 . S
C1559 C1558 1.390 . S
C1559 C1560 1.394 . S
C1559 C1565 1.465 . S
C1560 C1555 1.399 . S
C1560 C1559 1.394 . S
C1560 C1561 1.516 . S
C1561 C1560 1.516 . S
C1561 C1562 1.502 . S
C1561 C1563 1.561 . S
C1561 C1564 1.526 . S
C1562 H1546 0.959 . S
C1562 H1547 0.959 . S
C1562 H1548 0.961 . S
C1562 C1561 1.502 . S
C1563 H1549 0.960 . S
C1563 H1550 0.961 . S
C1563 H1551 0.959 . S
C1563 C1561 1.561 . S
C1564 C1561 1.526 . S
C1564 C1565 1.396 . S
C1564 C1569 1.390 . S
C1565 C1559 1.465 . S
C1565 C1564 1.396 . S
C1565 C1566 1.399 . S
C1566 H1552 0.929 . S
C1566 C1565 1.399 . S
C1566 C1567 1.385 . S
C1567 H1553 0.931 . S
C1567 C1566 1.385 . S
C1567 C1568 1.389 . S
C1568 C1567 1.389 . S
C1568 C1569 1.387 . S
C1569 H1554 0.930 . S
C1569 C1564 1.390 . S
C1569 C1568 1.387 . S
H1570 C1582 0.930 . S
H1571 C1584 0.930 . S
H1572 C1585 0.930 . S
H1573 C1589 0.959 . S
H1574 C1589 0.959 . S
H1575 C1589 0.961 . S
H1576 C1590 0.960 . S
H1577 C1590 0.961 . S
H1578 C1590 0.959 . S
H1579 C1593 0.929 . S
H1580 C1594 0.931 . S
H1581 C1596 0.930 . S
C1582 H1570 0.930 . S
C1582 C1583 1.399 . S
C1582 C1587 1.399 . S
C1583 C1582 1.399 . S
C1583 C1584 1.376 . S
C1584 H1571 0.930 . S
C1584 C1583 1.376 . S
C1584 C1585 1.388 . S
C1585 H1572 0.930 . S
C1585 C1584 1.388 . S
C1585 C1586 1.390 . S
C1586 C1585 1.390 . S
C1586 C1587 1.394 . S
C1586 C1592 1.465 . S
C1587 C1582 1.399 . S
C1587 C1586 1.394 . S
C1587 C1588 1.516 . S
C1588 C1587 1.516 . S
C1588 C1589 1.502 . S
C1588 C1590 1.561 . S
C1588 C1591 1.526 . S
C1589 H1573 0.959 . S
C1589 H1574 0.959 . S
C1589 H1575 0.961 . S
C1589 C1588 1.502 . S
C1590 H1576 0.960 . S
C1590 H1577 0.961 . S
C1590 H1578 0.959 . S
C1590 C1588 1.561 . S
C1591 C1588 1.526 . S
C1591 C1592 1.396 . S
C1591 C1596 1.390 . S
C1592 C1586 1.465 . S
C1592 C1591 1.396 . S
C1592 C1593 1.399 . S
C1593 H1579 0.929 . S
C1593 C1592 1.399 . S
C1593 C1594 1.385 . S
C1594 H1580 0.931 . S
C1594 C1593 1.385 . S
C1594 C1595 1.389 . S
C1595 C1594 1.389 . S
C1595 C1596 1.387 . S
C1596 H1581 0.930 . S
C1596 C1591 1.390 . S
C1596 C1595 1.387 . S
H1597 C1609 0.930 . S
H1598 C1611 0.930 . S
H1599 C1612 0.930 . S
H1600 C1616 0.959 . S
H1601 C1616 0.959 . S
H1602 C1616 0.961 . S
H1603 C1617 0.960 . S
H1604 C1617 0.961 . S
H1605 C1617 0.959 . S
H1606 C1620 0.929 . S
H1607 C1621 0.931 . S
H1608 C1623 0.930 . S
C1609 H1597 0.930 . S
C1609 C1610 1.399 . S
C1609 C1614 1.399 . S
C1610 C1609 1.399 . S
C1610 C1611 1.376 . S
C1611 H1598 0.930 . S
C1611 C1610 1.376 . S
C1611 C1612 1.388 . S
C1612 H1599 0.930 . S
C1612 C1611 1.388 . S
C1612 C1613 1.390 . S
C1613 C1612 1.390 . S
C1613 C1614 1.394 . S
C1613 C1619 1.465 . S
C1614 C1609 1.399 . S
C1614 C1613 1.394 . S
C1614 C1615 1.516 . S
C1615 C1614 1.516 . S
C1615 C1616 1.502 . S
C1615 C1617 1.561 1_556 S
C1615 C1618 1.526 . S
C1616 H1600 0.959 . S
C1616 H1601 0.959 . S
C1616 H1602 0.961 . S
C1616 C1615 1.502 . S
C1617 H1603 0.960 . S
C1617 H1604 0.961 . S
C1617 H1605 0.959 . S
C1617 C1615 1.561 1_554 S
C1618 C1615 1.526 . S
C1618 C1619 1.396 . S
C1618 C1623 1.390 . S
C1619 C1613 1.465 . S
C1619 C1618 1.396 . S
C1619 C1620 1.399 . S
C1620 H1606 0.929 . S
C1620 C1619 1.399 . S
C1620 C1621 1.385 . S
C1621 H1607 0.931 . S
C1621 C1620 1.385 . S
C1621 C1622 1.389 . S
C1622 C1621 1.389 . S
C1622 C1623 1.387 . S
C1623 H1608 0.930 . S
C1623 C1618 1.390 . S
C1623 C1622 1.387 . S
C557 C360 1.583 . S
C569 C20 1.537 . S
C584 C67 1.594 . S
C596 C258 1.601 . S
C611 C543 1.553 . S
C623 C54 1.514 . S
C638 C101 1.583 . S
C650 C33 1.559 . S
C665 C88 1.576 . S
C677 C292 1.549 . S
C692 C203 1.599 . S
C704 C122 1.568 . S
C719 C462 1.514 . S
C731 C135 1.554 . S
C746 C496 1.575 . S
C758 C156 1.551 . S
C773 C190 1.544 . S
C785 C407 1.536 . S
C800 C237 1.555 . S
C812 C169 1.570 . S
C827 C428 1.535 . S
C839 C224 1.583 . S
C854 C326 1.552 . S
C866 C271 1.533 . S
C881 C530 1.603 . S
C893 C339 1.590 . S
C908 C305 1.544 . S
C920 C373 1.573 . S
C935 C394 1.602 . S
C947 C475 1.575 . S
C962 C509 1.585 . S
C974 C441 1.546 . S
C989 C9 1.272 . S
C1001 C5 1.259 . S
C1016 C43 1.174 . S
C1028 C39 1.305 . S
C1043 C77 1.220 . S
C1055 C73 1.273 . S
C1070 C107 1.238 . S
C1082 C111 1.171 . S
C1097 C141 1.291 . S
C1109 C145 1.205 1_554 S
C1124 C179 1.177 . S
C1136 C175 1.298 . S
C1151 C213 1.244 . S
C1163 C209 1.246 . S
C1178 C247 1.196 . S
C1190 C243 1.266 . S
C1205 C281 1.177 1_554 S
C1217 C277 1.278 . S
C1232 C311 1.308 . S
C1244 C315 1.197 . S
C1259 C349 1.206 . S
C1271 C345 1.270 . S
C1286 C383 1.194 . S
C1298 C379 1.266 . S
C1313 C417 1.178 . S
C1325 C413 1.277 . S
C1340 C451 1.269 . S
C1352 C447 1.277 . S
C1367 C485 1.208 . S
C1379 C481 1.270 . S
C1394 C515 1.257 . S
C1406 C519 1.253 . S
C1421 C2 1.548 . S
C1433 C36 1.573 . S
C1448 C70 1.522 . S
C1460 C104 1.514 . S
C1475 C138 1.583 . S
C1487 C172 1.565 . S
C1502 C206 1.519 . S
C1514 C240 1.507 . S
C1529 C308 1.558 . S
C1541 C274 1.574 . S
C1556 C342 1.522 . S
C1568 C376 1.512 . S
C1583 C444 1.591 . S
C1595 C410 1.573 . S
C1610 C512 1.522 . S
C1622 C478 1.514 . S
