# Generated by pormake.
# Topology afw, (4)-cn, num edge types: 1
# Building blocks:
#     Node 0, Type 0, BuildingBlock: ICAMEG_clean_sbu_1, # of connection points: 4
#     Node 1, Type 0, BuildingBlock: ICAMEG_clean_sbu_1, # of connection points: 4
#     Node 2, Type 0, BuildingBlock: ICAMEG_clean_sbu_1, # of connection points: 4
#     Node 3, Type 0, BuildingBlock: ICAMEG_clean_sbu_1, # of connection points: 4
#     Node 4, Type 0, BuildingBlock: ICAMEG_clean_sbu_1, # of connection points: 4
#     Node 5, Type 0, BuildingBlock: ICAMEG_clean_sbu_1, # of connection points: 4
#     Node 6, Type 0, BuildingBlock: ICAMEG_clean_sbu_1, # of connection points: 4
#     Node 7, Type 0, BuildingBlock: ICAMEG_clean_sbu_1, # of connection points: 4
#     Node 8, Type 0, BuildingBlock: ICAMEG_clean_sbu_1, # of connection points: 4
#     Edge 9, Type (0, 0), BuildingBlock: XIVTED_clean_linker_0, # of connection points: 2
#     Edge 10, Type (0, 0), BuildingBlock: XIVTED_clean_linker_0, # of connection points: 2
#     Edge 11, Type (0, 0), BuildingBlock: XIVTED_clean_linker_0, # of connection points: 2
#     Edge 12, Type (0, 0), BuildingBlock: XIVTED_clean_linker_0, # of connection points: 2
#     Edge 13, Type (0, 0), BuildingBlock: XIVTED_clean_linker_0, # of connection points: 2
#     Edge 14, Type (0, 0), BuildingBlock: XIVTED_clean_linker_0, # of connection points: 2
#     Edge 15, Type (0, 0), BuildingBlock: XIVTED_clean_linker_0, # of connection points: 2
#     Edge 16, Type (0, 0), BuildingBlock: XIVTED_clean_linker_0, # of connection points: 2
#     Edge 17, Type (0, 0), BuildingBlock: XIVTED_clean_linker_0, # of connection points: 2
#     Edge 18, Type (0, 0), BuildingBlock: XIVTED_clean_linker_0, # of connection points: 2
#     Edge 19, Type (0, 0), BuildingBlock: XIVTED_clean_linker_0, # of connection points: 2
#     Edge 20, Type (0, 0), BuildingBlock: XIVTED_clean_linker_0, # of connection points: 2
#     Edge 21, Type (0, 0), BuildingBlock: XIVTED_clean_linker_0, # of connection points: 2
#     Edge 22, Type (0, 0), BuildingBlock: XIVTED_clean_linker_0, # of connection points: 2
#     Edge 23, Type (0, 0), BuildingBlock: XIVTED_clean_linker_0, # of connection points: 2
#     Edge 24, Type (0, 0), BuildingBlock: XIVTED_clean_linker_0, # of connection points: 2
#     Edge 25, Type (0, 0), BuildingBlock: XIVTED_clean_linker_0, # of connection points: 2
#     Edge 26, Type (0, 0), BuildingBlock: XIVTED_clean_linker_0, # of connection points: 2
# Relax obj value: 0.102
# Max RMSD: 0.139
# Mean RMSD: 0.139
data_MOF--net-afw--node1-ICAMEG_clean_sbu_1--edge1-XIVTED_clean_linker_0
_symmetry_space_group_name_H-M    P1
_symmetry_Int_Tables_number       1
_symmetry_cell_setting            triclinic
loop_
_symmetry_equiv_pos_as_xyz
'x, y, z'
_cell_length_a     46.404486
_cell_length_b     46.434903
_cell_length_c     34.917071
_cell_angle_alpha  89.97894
_cell_angle_beta   90.13227
_cell_angle_gamma 120.01157
loop_
_atom_site_label
_atom_site_type_symbol
_atom_site_fract_x
_atom_site_fract_y
_atom_site_fract_z
_atom_type_partial_charge
Co0 Co 0.01248 0.20522 0.06843 0.0
Co1 Co -0.00213 0.19728 0.97035 0.0
O2 O 0.00437 0.22074 0.01931 0.0
C3 C 0.95126 0.20808 0.08714 0.0
O4 O 0.9384 0.19564 0.05348 0.0
C5 C 0.05712 0.26234 0.95037 0.0
O6 O 0.07116 0.26256 0.98314 0.0
O7 O 0.03677 0.19052 0.98006 0.0
O8 O 0.04462 0.19532 0.0437 0.0
H9 H 0.98659 0.10437 0.88622 0.0
H10 H 0.01768 0.27123 0.06326 0.0
O11 O 0.98053 0.21467 0.09579 0.0
H12 H 0.12891 0.29386 0.10404 0.0
H13 H 0.03359 0.2113 0.21062 0.0
H14 H 0.02043 0.14821 0.09199 0.0
H15 H 0.08347 0.23629 0.09372 0.0
H16 H 0.0229 0.23023 0.149 0.0
O17 O 0.02761 0.23951 0.94278 0.0
H18 H -0.00454 0.13469 0.94705 0.0
H19 H 0.98516 0.20981 0.88984 0.0
H20 H 0.03141 0.12858 0.15296 0.0
H21 H 0.06231 0.32921 0.07361 0.0
H22 H 0.03806 0.1602 0.21285 0.0
H23 H 0.11843 0.34081 0.09405 0.0
O24 O 0.97589 0.15834 0.05889 0.0
H25 H 0.93977 0.26388 0.9643 0.0
H26 H 0.92728 0.15292 0.94583 0.0
H27 H 0.87895 0.16058 0.93548 0.0
H28 H 0.88506 0.21642 0.94466 0.0
H29 H 0.98738 0.255 0.97468 0.0
H30 H 0.9765 0.18046 0.82834 0.0
H31 H 0.97705 0.12726 0.82629 0.0
O32 O 0.96808 0.15446 0.99526 0.0
C33 C 0.05193 0.19002 0.01044 0.0
C34 C 0.98626 0.12751 0.88675 0.0
C35 C 0.98063 0.17023 0.85425 0.0
N36 N 0.99077 0.17396 0.92204 0.0
C37 C 0.99122 0.14477 0.92112 0.0
C38 C 0.98566 0.18679 0.88915 0.0
C39 C 0.98093 0.14038 0.85313 0.0
C40 C 0.04199 0.27609 0.07239 0.0
N41 N 0.04795 0.25041 0.07792 0.0
C42 C 0.06718 0.30896 0.0781 0.0
C43 C 0.09867 0.31546 0.08953 0.0
C44 C 0.10457 0.28913 0.09511 0.0
C45 C 0.07878 0.25658 0.08908 0.0
C46 C 0.03077 0.19732 0.18472 0.0
C47 C 0.02343 0.16219 0.1179 0.0
C48 C 0.02461 0.20786 0.14974 0.0
N49 N 0.02116 0.19041 0.11687 0.0
C50 C 0.02958 0.15091 0.15235 0.0
C51 C 0.03328 0.16865 0.18594 0.0
C52 C 0.96154 0.14192 0.02859 0.0
C53 C 0.93681 0.23944 0.96014 0.0
C54 C 0.93009 0.17723 0.95007 0.0
C55 C 0.90266 0.18146 0.94404 0.0
C56 C 0.90611 0.2128 0.94917 0.0
N57 N 0.96013 0.2035 0.96077 0.0
C58 C 0.9637 0.23429 0.96586 0.0
Co59 Co 0.83397 0.83369 0.97126 0.0
Co60 Co 0.83153 0.83599 0.07015 0.0
O61 O 0.81167 0.81539 0.02052 0.0
C62 C 0.76816 0.82862 0.95623 0.0
O63 O 0.7682 0.84033 0.99046 0.0
C64 C 0.81734 0.76684 0.08556 0.0
O65 O 0.82953 0.76554 0.05212 0.0
O66 O 0.87415 0.83733 0.05725 0.0
O67 O 0.87749 0.84466 0.99362 0.0
H68 H 0.92206 0.91906 0.15602 0.0
H69 H 0.77533 0.76603 0.97484 0.0
O70 O 0.79128 0.8232 0.94603 0.0
H71 H 0.86613 0.75084 0.92478 0.0
H72 H 0.8462 0.83465 0.82781 0.0
H73 H 0.89677 0.8938 0.94849 0.0
H74 H 0.8758 0.80688 0.93971 0.0
H75 H 0.8184 0.81194 0.88958 0.0
O76 O 0.8147 0.79185 0.09494 0.0
H77 H 0.8965 0.89283 0.0943 0.0
H78 H 0.80815 0.82275 0.1513 0.0
H79 H 0.92557 0.91722 0.88736 0.0
H80 H 0.76442 0.70949 0.95993 0.0
H81 H 0.90026 0.88759 0.82645 0.0
H82 H 0.81005 0.70163 0.9348 0.0
O83 O 0.84199 0.87909 0.98472 0.0
H84 H 0.70726 0.78206 0.08011 0.0
H85 H 0.81403 0.88551 0.1006 0.0
H86 H 0.7615 0.88451 0.11468 0.0
H87 H 0.7076 0.83248 0.10451 0.0
H88 H 0.76042 0.78427 0.06608 0.0
H89 H 0.83286 0.84809 0.21365 0.0
H90 H 0.89018 0.89668 0.21628 0.0
O91 O 0.84897 0.8809 0.04835 0.0
C92 C 0.88989 0.84343 0.02563 0.0
C93 C 0.89704 0.89794 0.15525 0.0
C94 C 0.84699 0.85809 0.18759 0.0
N95 N 0.85082 0.85635 0.11914 0.0
C96 C 0.88241 0.883 0.12038 0.0
C97 C 0.83316 0.84381 0.1522 0.0
C98 C 0.87915 0.88536 0.18905 0.0
C99 C 0.79525 0.7628 0.9637 0.0
N100 N 0.82618 0.78973 0.95817 0.0
C101 C 0.78895 0.73073 0.95541 0.0
C102 C 0.81458 0.72634 0.94135 0.0
C103 C 0.84605 0.75393 0.93576 0.0
C104 C 0.85144 0.78561 0.94442 0.0
C105 C 0.8575 0.84778 0.85416 0.0
C106 C 0.88566 0.88068 0.92212 0.0
C107 C 0.84183 0.83509 0.88923 0.0
N108 N 0.85601 0.85145 0.92266 0.0
C109 C 0.90206 0.8941 0.88759 0.0
C110 C 0.88783 0.87748 0.85342 0.0
C111 C 0.84998 0.89469 0.0166 0.0
C112 C 0.73058 0.80486 0.08475 0.0
C113 C 0.7907 0.86283 0.09593 0.0
C114 C 0.76102 0.86237 0.10407 0.0
C115 C 0.73079 0.83317 0.09838 0.0
N116 N 0.79029 0.83494 0.08263 0.0
C117 C 0.76075 0.80622 0.07697 0.0
Co118 Co 0.18975 0.02144 0.07128 0.0
Co119 Co 0.19251 0.02372 0.97234 0.0
O120 O 0.21234 0.02433 0.0225 0.0
C121 C 0.25627 0.08185 0.08551 0.0
O122 O 0.25762 0.09248 0.05036 0.0
C123 C 0.20619 0.9683 0.9582 0.0
O124 O 0.19262 0.95447 0.99107 0.0
O125 O 0.1502 0.9823 0.98593 0.0
O126 O 0.14642 0.98827 0.04911 0.0
H127 H 0.10147 0.01265 0.88464 0.0
H128 H 0.24843 0.0124 0.0696 0.0
O129 O 0.23217 0.05418 0.09641 0.0
H130 H 0.15778 0.90788 0.12285 0.0
H131 H 0.17675 0.01388 0.21482 0.0
H132 H 0.1267 0.01904 0.09211 0.0
H133 H 0.14801 0.95371 0.10527 0.0
H134 H 0.20489 0.01738 0.15376 0.0
O135 O 0.21009 -0.00351 0.94897 0.0
H136 H 0.12702 0.01352 0.94694 0.0
H137 H 0.21642 0.03324 0.89141 0.0
H138 H 0.09757 0.01524 0.15252 0.0
H139 H 0.25946 0.96733 0.08715 0.0
H140 H 0.12261 0.01265 0.21445 0.0
H141 H 0.21391 0.91458 0.1139 0.0
O142 O 0.18175 0.05843 0.05584 0.0
H143 H 0.31667 0.09528 0.96251 0.0
H144 H 0.20918 0.08992 0.93976 0.0
H145 H 0.26135 0.14158 0.925 0.0
H146 H 0.31561 0.14447 0.93629 0.0
H147 H 0.26384 0.04417 0.97725 0.0
H148 H 0.19176 0.03238 0.82851 0.0
H149 H 0.13391 0.02212 0.82484 0.0
O150 O 0.17431 0.05102 0.99248 0.0
C151 C 0.13432 0.97347 0.01754 0.0
C152 C 0.12671 0.01718 0.88586 0.0
C153 C 0.17738 0.02823 0.85435 0.0
N154 N 0.1732 0.02347 0.92286 0.0
C155 C 0.14133 0.01772 0.92106 0.0
C156 C 0.19118 0.02862 0.89007 0.0
C157 C 0.14492 0.02248 0.85232 0.0
C158 C 0.22853 0.98957 0.08139 0.0
N159 N 0.19758 0.98568 0.08634 0.0
C160 C 0.2349 0.96412 0.0912 0.0
C161 C 0.20933 0.93451 0.10617 0.0
C162 C 0.17783 0.93073 0.11116 0.0
C163 C 0.17237 0.95671 0.10098 0.0
C164 C 0.16556 0.01496 0.18802 0.0
C165 C 0.13769 0.01777 0.11893 0.0
C166 C 0.18142 0.01703 0.15334 0.0
N167 N 0.16738 0.01826 0.11935 0.0
C168 C 0.12111 0.01569 0.15305 0.0
C169 C 0.13519 0.01426 0.18779 0.0
C170 C 0.17339 0.06481 0.02345 0.0
C171 C 0.29318 0.0943 0.95738 0.0
C172 C 0.23267 0.09102 0.94496 0.0
C173 C 0.26214 0.12031 0.93641 0.0
C174 C 0.29257 0.12191 0.94273 0.0
N175 N 0.23347 0.06402 0.95929 0.0
C176 C 0.26321 0.0654 0.96554 0.0
Co177 Co 0.6638 0.5245 0.30327 0.0
Co178 Co 0.67229 0.53044 0.40212 0.0
O179 O 0.66802 0.54755 0.35207 0.0
C180 C 0.7228 0.59064 0.28568 0.0
O181 O 0.73577 0.59145 0.31941 0.0
C182 C 0.61387 0.53952 0.41677 0.0
O183 O 0.60167 0.5282 0.38255 0.0
O184 O 0.63359 0.48515 0.39108 0.0
O185 O 0.63327 0.48125 0.32707 0.0
H186 H 0.67879 0.44806 0.48987 0.0
H187 H 0.65211 0.5815 0.30573 0.0
O188 O 0.69411 0.567 0.27668 0.0
H189 H 0.54632 0.48671 0.26057 0.0
H190 H 0.64886 0.50861 0.16038 0.0
H191 H 0.66344 0.46262 0.28146 0.0
H192 H 0.59457 0.47972 0.27452 0.0
H193 H 0.65437 0.53737 0.22161 0.0
O194 O 0.64179 0.54323 0.42701 0.0
H195 H 0.67313 0.46996 0.42768 0.0
H196 H 0.68122 0.55532 0.48266 0.0
H197 H 0.65772 0.43289 0.2209 0.0
H198 H 0.60458 0.58973 0.29175 0.0
H199 H 0.65038 0.45589 0.15978 0.0
H200 H 0.55118 0.54208 0.2691 0.0
O201 O 0.70267 0.5185 0.31589 0.0
H202 H 0.7311 0.65515 0.40782 0.0
H203 H 0.74151 0.55607 0.43151 0.0
H204 H 0.78961 0.61182 0.44363 0.0
H205 H 0.78455 0.66187 0.43184 0.0
H206 H 0.68371 0.59888 0.39575 0.0
H207 H 0.68668 0.53419 0.54545 0.0
H208 H 0.68561 0.48025 0.54933 0.0
O209 O 0.70298 0.51716 0.38007 0.0
C210 C 0.62254 0.46882 0.35991 0.0
C211 C 0.67937 0.47163 0.48854 0.0
C212 C 0.68376 0.51995 0.51974 0.0
N213 N 0.67701 0.51397 0.45148 0.0
C214 C 0.67624 0.4842 0.4534 0.0
C215 C 0.68058 0.53175 0.4841 0.0
C216 C 0.68317 0.48969 0.52189 0.0
C217 C 0.62902 0.56071 0.29563 0.0
N218 N 0.62613 0.53017 0.29092 0.0
C219 C 0.60216 0.5655 0.28787 0.0
C220 C 0.5722 0.53874 0.27521 0.0
C221 C 0.56945 0.50766 0.27045 0.0
C222 C 0.59681 0.5038 0.27855 0.0
C223 C 0.65202 0.49832 0.18682 0.0
C224 C 0.66013 0.47273 0.255 0.0
C225 C 0.65525 0.51455 0.22158 0.0
N226 N 0.65912 0.50164 0.25512 0.0
C227 C 0.65696 0.45581 0.22079 0.0
C228 C 0.65287 0.46874 0.18651 0.0
C229 C 0.7138 0.51442 0.34772 0.0
C230 C 0.7336 0.63354 0.41312 0.0
C231 C 0.73917 0.5777 0.42611 0.0
C232 C 0.76646 0.60922 0.43315 0.0
C233 C 0.76359 0.63729 0.42656 0.0
N234 N 0.70982 0.57422 0.41299 0.0
C235 C 0.70683 0.60162 0.40645 0.0
Co236 Co 0.49426 0.16184 0.30404 0.0
Co237 Co 0.49217 0.16483 0.40306 0.0
O238 O 0.47278 0.14337 0.35362 0.0
C239 C 0.4287 0.15682 0.28835 0.0
O240 O 0.42993 0.17089 0.3214 0.0
C241 C 0.48281 0.09734 0.41784 0.0
O242 O 0.49462 0.09687 0.38386 0.0
O243 O 0.53634 0.16969 0.38974 0.0
O244 O 0.53834 0.17462 0.32582 0.0
H245 H 0.57982 0.25237 0.48789 0.0
H246 H 0.4372 0.09325 0.30814 0.0
O247 O 0.45086 0.14961 0.27933 0.0
H248 H 0.53031 0.08173 0.25839 0.0
H249 H 0.50558 0.1618 0.16054 0.0
H250 H 0.55529 0.22336 0.2802 0.0
H251 H 0.53795 0.13709 0.27285 0.0
H252 H 0.47889 0.13887 0.22276 0.0
O253 O 0.47869 0.12131 0.42791 0.0
H254 H 0.55494 0.22488 0.42645 0.0
H255 H 0.46989 0.15026 0.48454 0.0
H256 H 0.58296 0.24707 0.21862 0.0
H257 H 0.42833 0.03736 0.29372 0.0
H258 H 0.55807 0.21623 0.15821 0.0
H259 H 0.47513 0.03135 0.26874 0.0
O260 O 0.50082 0.20675 0.31717 0.0
H261 H 0.36762 0.10278 0.41427 0.0
H262 H 0.47 0.21057 0.43425 0.0
H263 H 0.41558 0.20513 0.44913 0.0
H264 H 0.36388 0.15089 0.43922 0.0
H265 H 0.4226 0.10944 0.39945 0.0
H266 H 0.49398 0.17681 0.54661 0.0
H267 H 0.54929 0.22831 0.54855 0.0
O268 O 0.5062 0.20905 0.38107 0.0
C269 C 0.55168 0.1754 0.35787 0.0
C270 C 0.55568 0.22998 0.48742 0.0
C271 C 0.50752 0.18755 0.52037 0.0
N272 N 0.51094 0.18607 0.45186 0.0
C273 C 0.54143 0.21433 0.45271 0.0
C274 C 0.49404 0.17259 0.48513 0.0
C275 C 0.53854 0.21645 0.52144 0.0
C276 C 0.45761 0.09082 0.29704 0.0
N277 N 0.48804 0.1184 0.2913 0.0
C278 C 0.45247 0.05912 0.28903 0.0
C279 C 0.47875 0.05577 0.27506 0.0
C280 C 0.50972 0.08402 0.26928 0.0
C281 C 0.51395 0.11531 0.27766 0.0
C282 C 0.51667 0.17548 0.18666 0.0
C283 C 0.54435 0.20974 0.25405 0.0
C284 C 0.50162 0.16266 0.22198 0.0
N285 N 0.51553 0.17973 0.25511 0.0
C286 C 0.56011 0.22331 0.21926 0.0
C287 C 0.54613 0.20601 0.18537 0.0
C288 C 0.50715 0.22235 0.34899 0.0
C289 C 0.38997 0.12652 0.41877 0.0
C290 C 0.44763 0.18695 0.42968 0.0
C291 C 0.41688 0.18398 0.43827 0.0
C292 C 0.38789 0.15354 0.43273 0.0
N293 N 0.44947 0.16032 0.41608 0.0
C294 C 0.42116 0.13041 0.41054 0.0
Co295 Co 0.85771 0.3534 0.30486 0.0
Co296 Co 0.85428 0.34763 0.40395 0.0
O297 O 0.87636 0.35099 0.35469 0.0
C298 C 0.86629 0.29477 0.29069 0.0
O299 O 0.85415 0.2826 0.32462 0.0
C300 C 0.92157 0.40674 0.41821 0.0
O301 O 0.92289 0.41764 0.38319 0.0
O302 O 0.84694 0.38545 0.39047 0.0
O303 O 0.84379 0.38379 0.32637 0.0
H304 H 0.76341 0.34137 0.48773 0.0
H305 H 0.92694 0.36668 0.30949 0.0
O306 O 0.87102 0.32307 0.28051 0.0
H307 H 0.9359 0.47024 0.25971 0.0
H308 H 0.858 0.36441 0.16127 0.0
H309 H 0.79561 0.35154 0.28024 0.0
H310 H 0.88102 0.42161 0.2738 0.0
H311 H 0.88098 0.36113 0.22381 0.0
O312 O 0.8971 0.37933 0.42915 0.0
H313 H 0.79196 0.34601 0.42662 0.0
H314 H 0.86969 0.3414 0.48569 0.0
H315 H 0.77184 0.355 0.21833 0.0
H316 H 0.98237 0.41462 0.29544 0.0
H317 H 0.8031 0.36147 0.15827 0.0
H318 H 0.98708 0.4669 0.27046 0.0
O319 O 0.81317 0.31425 0.31755 0.0
H320 H 0.92216 0.29119 0.41568 0.0
H321 H 0.81153 0.27918 0.43555 0.0
H322 H 0.82023 0.23222 0.45069 0.0
H323 H 0.87593 0.23809 0.44083 0.0
H324 H 0.91222 0.33741 0.40057 0.0
H325 H 0.84213 0.33702 0.54745 0.0
H326 H 0.78852 0.33684 0.54872 0.0
O327 O 0.81074 0.31568 0.38159 0.0
C328 C 0.84158 0.39532 0.35848 0.0
C329 C 0.78673 0.34134 0.48754 0.0
C330 C 0.83092 0.33894 0.52106 0.0
N331 N 0.83238 0.34381 0.45253 0.0
C332 C 0.80298 0.3439 0.45302 0.0
C333 C 0.84645 0.34152 0.486 0.0
C334 C 0.80084 0.33883 0.52175 0.0
C335 C 0.92881 0.38927 0.29836 0.0
N336 N 0.90077 0.39132 0.29242 0.0
C337 C 0.96025 0.41637 0.29057 0.0
C338 C 0.96288 0.4457 0.27661 0.0
C339 C 0.93417 0.4476 0.27061 0.0
C340 C 0.90315 0.42002 0.27877 0.0
C341 C 0.84415 0.36162 0.18724 0.0
C342 C 0.80942 0.35448 0.25425 0.0
C343 C 0.857 0.35967 0.22274 0.0
N344 N 0.83971 0.35627 0.25569 0.0
C345 C 0.79581 0.35637 0.21927 0.0
C346 C 0.81335 0.35998 0.18558 0.0
C347 C 0.79771 0.30371 0.34925 0.0
C348 C 0.89779 0.28833 0.42014 0.0
C349 C 0.83574 0.28185 0.43095 0.0
C350 C 0.84057 0.25522 0.43971 0.0
C351 C 0.87183 0.25854 0.43421 0.0
N352 N 0.86133 0.31101 0.41719 0.0
C353 C 0.89204 0.31445 0.41174 0.0
Co354 Co 0.33645 0.85835 0.73359 0.0
Co355 Co 0.33277 0.85779 0.63502 0.0
O356 O 0.3365 0.8795 0.68467 0.0
C357 C 0.28319 0.87455 0.7513 0.0
O358 O 0.26834 0.86186 0.7185 0.0
C359 C 0.39336 0.92343 0.61951 0.0
O360 O 0.40633 0.92261 0.65268 0.0
O361 O 0.37088 0.8508 0.64825 0.0
O362 O 0.36231 0.83944 0.71086 0.0
H363 H 0.32713 0.76813 0.5494 0.0
H364 H 0.35913 0.93026 0.73122 0.0
O365 O 0.31089 0.8767 0.75945 0.0
H366 H 0.45555 0.92314 0.77867 0.0
H367 H 0.34749 0.85397 0.8768 0.0
H368 H 0.32491 0.79171 0.75563 0.0
H369 H 0.40257 0.87228 0.76393 0.0
H370 H 0.34814 0.88046 0.81534 0.0
O371 O 0.36416 0.90093 0.61032 0.0
H372 H 0.33199 0.79617 0.61103 0.0
H373 H 0.32543 0.87342 0.55375 0.0
H374 H 0.3242 0.76434 0.81642 0.0
H375 H 0.41161 0.98182 0.74597 0.0
H376 H 0.33554 0.79552 0.87759 0.0
H377 H 0.46031 0.97844 0.76977 0.0
O378 O 0.29411 0.81708 0.71973 0.0
H379 H 0.27554 0.92504 0.62575 0.0
H380 H 0.26421 0.81507 0.60311 0.0
H381 H 0.21693 0.82356 0.58885 0.0
H382 H 0.22246 0.87892 0.6001 0.0
H383 H 0.32209 0.91531 0.63995 0.0
H384 H 0.32081 0.84638 0.49149 0.0
H385 H 0.3215 0.79326 0.48906 0.0
O386 O 0.30094 0.81374 0.65671 0.0
C387 C 0.37684 0.84064 0.67966 0.0
C388 C 0.32675 0.79125 0.55009 0.0
C389 C 0.32324 0.83517 0.51759 0.0
N390 N 0.32889 0.83634 0.58604 0.0
C391 C 0.32945 0.80721 0.58491 0.0
C392 C 0.32596 0.85042 0.55293 0.0
C393 C 0.32362 0.80537 0.51624 0.0
C394 C 0.38016 0.92861 0.74185 0.0
N395 N 0.37775 0.8983 0.74679 0.0
C396 C 0.40982 0.95788 0.75004 0.0
C397 C 0.43715 0.95596 0.76335 0.0
C398 C 0.43451 0.92495 0.76832 0.0
C399 C 0.40446 0.89622 0.7598 0.0
C400 C 0.34251 0.84012 0.85034 0.0
C401 C 0.32992 0.80548 0.78211 0.0
C402 C 0.34275 0.85496 0.81545 0.0
N403 N 0.33657 0.83767 0.78189 0.0
C404 C 0.32947 0.78983 0.81645 0.0
C405 C 0.33582 0.80733 0.85076 0.0
C406 C 0.28583 0.80132 0.68798 0.0
C407 C 0.27283 0.90081 0.6207 0.0
C408 C 0.26673 0.83912 0.60835 0.0
C409 C 0.23992 0.84384 0.60007 0.0
C410 C 0.24304 0.87492 0.60635 0.0
N411 N 0.29587 0.86464 0.62239 0.0
C412 C 0.29912 0.89518 0.6286 0.0
Co413 Co 0.16532 0.49853 0.6345 0.0
Co414 Co 0.16249 0.50175 0.73355 0.0
O415 O 0.14464 0.47916 0.68418 0.0
C416 C 0.09724 0.48707 0.61901 0.0
O417 O 0.09737 0.50059 0.65209 0.0
C418 C 0.15573 0.4349 0.74786 0.0
O419 O 0.16326 0.43244 0.71226 0.0
O420 O 0.20843 0.5112 0.72045 0.0
O421 O 0.21015 0.5152 0.65644 0.0
H422 H 0.24421 0.59489 0.81759 0.0
H423 H 0.11228 0.42795 0.6381 0.0
O424 O 0.12112 0.4825 0.60976 0.0
H425 H 0.21137 0.42619 0.59055 0.0
H426 H 0.17722 0.49863 0.4911 0.0
H427 H 0.22299 0.56273 0.61023 0.0
H428 H 0.21383 0.47938 0.60474 0.0
H429 H 0.15158 0.47471 0.55346 0.0
O430 O 0.15348 0.45971 0.75899 0.0
H431 H 0.22131 0.56567 0.75642 0.0
H432 H 0.14107 0.48581 0.81521 0.0
H433 H 0.24957 0.5875 0.5485 0.0
H434 H 0.10859 0.37415 0.62386 0.0
H435 H 0.22666 0.55539 0.48835 0.0
H436 H 0.15843 0.37307 0.60001 0.0
O437 O 0.16769 0.54175 0.64709 0.0
H438 H 0.03851 0.42914 0.74411 0.0
H439 H 0.1337 0.54184 0.76504 0.0
H440 H 0.07698 0.53039 0.77967 0.0
H441 H 0.02888 0.47364 0.76928 0.0
H442 H 0.09567 0.44182 0.72951 0.0
H443 H 0.16329 0.51403 0.87702 0.0
H444 H 0.21515 0.56904 0.87847 0.0
O445 O 0.17199 0.54463 0.7111 0.0
C446 C 0.22399 0.51778 0.68865 0.0
C447 C 0.22155 0.57097 0.81733 0.0
C448 C 0.17616 0.52557 0.85068 0.0
N449 N 0.17978 0.52416 0.78218 0.0
C450 C 0.20842 0.55433 0.78277 0.0
C451 C 0.16374 0.50967 0.81559 0.0
C452 C 0.20525 0.55644 0.85148 0.0
C453 C 0.13398 0.42766 0.62742 0.0
N454 N 0.1632 0.45677 0.62217 0.0
C455 C 0.13178 0.39713 0.61954 0.0
C456 C 0.15977 0.39654 0.60621 0.0
C457 C 0.18949 0.42634 0.60094 0.0
C458 C 0.19077 0.45639 0.60916 0.0
C459 C 0.18744 0.51287 0.5171 0.0
C460 C 0.21292 0.54855 0.5842 0.0
C461 C 0.17297 0.49949 0.5525 0.0
N462 N 0.1858 0.51727 0.58549 0.0
C463 C 0.22806 0.56273 0.54932 0.0
C464 C 0.21518 0.54471 0.51559 0.0
C465 C 0.17198 0.55713 0.67876 0.0
C466 C 0.05926 0.45395 0.74879 0.0
C467 C 0.11292 0.51718 0.76019 0.0
C468 C 0.08084 0.51079 0.76867 0.0
C469 C 0.05387 0.47894 0.76288 0.0
N470 N 0.11801 0.49254 0.74642 0.0
C471 C 0.09168 0.46126 0.74067 0.0
Co472 Co 0.52777 0.68359 0.73676 0.0
Co473 Co 0.53349 0.69595 0.63835 0.0
O474 O 0.55057 0.68974 0.68745 0.0
C475 C 0.59366 0.74307 0.75448 0.0
O476 O 0.59403 0.75597 0.72088 0.0
C477 C 0.53821 0.63586 0.62 0.0
O478 O 0.52497 0.62281 0.65327 0.0
O479 O 0.48761 0.65784 0.64874 0.0
O480 O 0.48466 0.6528 0.7127 0.0
H481 H 0.4522 0.70787 0.55397 0.0
H482 H 0.5862 0.67426 0.73177 0.0
O483 O 0.57025 0.71429 0.76347 0.0
H484 H 0.49366 0.56589 0.77373 0.0
H485 H 0.51381 0.66508 0.8793 0.0
H486 H 0.46485 0.68014 0.76079 0.0
H487 H 0.48478 0.61334 0.76276 0.0
H488 H 0.54221 0.67303 0.81734 0.0
O489 O 0.54489 0.66515 0.61143 0.0
H490 H 0.47384 0.69944 0.61497 0.0
H491 H 0.55781 0.70663 0.55759 0.0
H492 H 0.43549 0.67198 0.82211 0.0
H493 H 0.5963 0.62753 0.74272 0.0
H494 H 0.45998 0.66439 0.88194 0.0
H495 H 0.54979 0.57285 0.76377 0.0
O496 O 0.52001 0.72169 0.72663 0.0
H497 H 0.65807 0.75173 0.63147 0.0
H498 H 0.56077 0.76621 0.61231 0.0
H499 H 0.61712 0.81358 0.60108 0.0
H500 H 0.66627 0.80647 0.61059 0.0
H501 H 0.60123 0.7051 0.64271 0.0
H502 H 0.53691 0.71482 0.49592 0.0
H503 H 0.48381 0.71562 0.49387 0.0
O504 O 0.52152 0.72681 0.66266 0.0
C505 C 0.47175 0.64446 0.67958 0.0
C506 C 0.47539 0.70762 0.5545 0.0
C507 C 0.52292 0.71149 0.52191 0.0
N508 N 0.51712 0.70266 0.58989 0.0
C509 C 0.48781 0.70292 0.58897 0.0
C510 C 0.53458 0.70674 0.55691 0.0
C511 C 0.49313 0.71195 0.52079 0.0
C512 C 0.56591 0.65059 0.74119 0.0
N513 N 0.53497 0.64656 0.74674 0.0
C514 C 0.57175 0.6242 0.74723 0.0
C515 C 0.54563 0.59352 0.759 0.0
C516 C 0.51413 0.58959 0.76457 0.0
C517 C 0.50921 0.61653 0.7582 0.0
C518 C 0.50287 0.66833 0.85343 0.0
C519 C 0.47561 0.67672 0.78667 0.0
C520 C 0.51888 0.67293 0.81826 0.0
N521 N 0.50515 0.67694 0.78543 0.0
C522 C 0.4589 0.67217 0.82132 0.0
C523 C 0.47267 0.66794 0.85488 0.0
C524 C 0.51724 0.73507 0.6959 0.0
C525 C 0.63685 0.75512 0.62716 0.0
C526 C 0.58202 0.76297 0.61672 0.0
C527 C 0.61387 0.78985 0.61018 0.0
C528 C 0.64143 0.78584 0.6155 0.0
N529 N 0.57772 0.73291 0.62811 0.0
C530 C 0.60462 0.72879 0.63337 0.0
H531 H 0.15393 0.08325 0.95854 0.0
H532 H 0.09541 0.19583 0.06676 0.0
H533 H 0.16424 0.10062 0.08074 0.0
H534 H 0.06622 0.16013 0.95096 0.0
H535 H 0.12972 0.17002 0.06889 0.0
H536 H 0.13051 0.11936 0.95294 0.0
C537 C 0.15153 0.0948 0.98434 0.0
C538 C 0.16099 0.08857 0.02039 0.0
C539 C 0.11612 0.16811 0.04288 0.0
C540 C 0.13387 0.13026 0.01374 0.0
C541 C 0.09655 0.183 0.04145 0.0
C542 C 0.07745 0.17984 0.00869 0.0
C543 C 0.11677 0.1499 0.01133 0.0
C544 C 0.08036 0.16313 0.97682 0.0
C545 C 0.13804 0.11547 0.98095 0.0
C546 C 0.15721 0.10453 0.05247 0.0
N547 N 0.09939 0.14845 0.97909 0.0
N548 N 0.14376 0.12455 0.0484 0.0
H549 H 0.85728 0.93738 0.95736 0.0
H550 H 0.94883 0.09943 0.08955 0.0
H551 H 0.86984 0.93467 0.07978 0.0
H552 H 0.92174 0.10126 0.97145 0.0
H553 H 0.91742 0.03857 0.08737 0.0
H554 H 0.87934 -0.00245 0.9621 0.0
C555 C 0.86444 0.94928 0.98516 0.0
C556 C 0.86177 0.93081 0.01808 0.0
C557 C 0.91806 0.05239 0.06209 0.0
C558 C 0.88707 -0.00051 0.02378 0.0
C559 C 0.93585 0.08715 0.06344 0.0
C560 C 0.93827 0.1056 0.0306 0.0
C561 C 0.90282 0.03607 0.02762 0.0
C562 C 0.92095 0.08822 0.99745 0.0
C563 C 0.87697 0.9836 0.98791 0.0
C564 C 0.87145 0.94767 0.05345 0.0
N565 N 0.90434 0.05452 0.9967 0.0
N566 N 0.88381 0.98095 0.05527 0.0
H567 H 0.92797 0.84927 0.96337 0.0
H568 H 0.09661 0.9436 0.08076 0.0
H569 H 0.93304 0.85889 0.08662 0.0
H570 H 0.09186 0.94069 0.95712 0.0
H571 H 0.03772 0.90371 0.0834 0.0
H572 H 0.98784 0.8731 0.96125 0.0
C573 C 0.94153 0.85585 0.99017 0.0
C574 C 0.9253 0.8524 0.02529 0.0
C575 C 0.04953 0.91141 0.05566 0.0
C576 C -0.00561 0.8803 0.02276 0.0
C577 C 0.08338 0.93425 0.054 0.0
C578 C 0.0994 0.9459 0.01854 0.0
C579 C 0.03119 0.90021 0.02165 0.0
C580 C 0.0806 0.93261 0.98506 0.0
C581 C 0.97588 0.8696 0.98881 0.0
C582 C 0.94443 0.86127 0.0589 0.0
N583 N 0.04733 0.91076 0.98745 0.0
N584 N 0.97807 0.87527 0.05675 0.0
H585 H 0.83292 0.42497 0.29537 0.0
H586 H 0.74593 0.50863 0.4103 0.0
H587 H 0.8232 0.42133 0.41861 0.0
H588 H 0.73957 0.49599 0.28735 0.0
H589 H 0.78255 0.48557 0.4132 0.0
H590 H 0.8075 0.45953 0.29215 0.0
C591 C 0.82585 0.43172 0.32194 0.0
C592 C 0.83005 0.41985 0.35743 0.0
C593 C 0.77342 0.48808 0.38554 0.0
C594 C 0.80049 0.45953 0.35358 0.0
C595 C 0.75248 0.50139 0.3837 0.0
C596 C 0.73928 0.50409 0.34841 0.0
C597 C 0.78138 0.47724 0.35192 0.0
C598 C 0.749 0.49431 0.31515 0.0
C599 C 0.81117 0.45145 0.31992 0.0
C600 C 0.8204 0.42975 0.39066 0.0
N601 N 0.76927 0.48103 0.31777 0.0
N602 N 0.80579 0.44881 0.38788 0.0
H603 H 0.51805 0.26483 0.28837 0.0
H604 H 0.60039 0.42631 0.42192 0.0
H605 H 0.52008 0.26174 0.41204 0.0
H606 H 0.58879 0.42889 0.29934 0.0
H607 H 0.56629 0.36557 0.41959 0.0
H608 H 0.53988 0.32494 0.29208 0.0
C609 C 0.52271 0.27662 0.31623 0.0
C610 C 0.51743 0.25812 0.34983 0.0
C611 C 0.5709 0.37957 0.3933 0.0
C612 C 0.54254 0.32678 0.35437 0.0
C613 C 0.59026 0.41426 0.39469 0.0
C614 C 0.59783 0.43283 0.3608 0.0
C615 C 0.55923 0.36345 0.35778 0.0
C616 C 0.58398 0.41576 0.32626 0.0
C617 C 0.53517 0.31093 0.31838 0.0
C618 C 0.5239 0.27482 0.38522 0.0
N619 N 0.56573 0.38212 0.3256 0.0
N620 N 0.53634 0.30813 0.38651 0.0
H621 H 0.58987 0.18348 0.29496 0.0
H622 H 0.75987 0.27149 0.41161 0.0
H623 H 0.59561 0.192 0.41834 0.0
H624 H 0.75411 0.27621 0.2884 0.0
H625 H 0.70042 0.23363 0.41392 0.0
H626 H 0.64982 0.20817 0.29223 0.0
C627 C 0.60361 0.19008 0.32166 0.0
C628 C 0.58749 0.18589 0.35704 0.0
C629 C 0.71213 0.24264 0.38633 0.0
C630 C 0.65667 0.21465 0.35377 0.0
C631 C 0.74626 0.26429 0.38484 0.0
C632 C 0.76221 0.27744 0.34966 0.0
C633 C 0.69348 0.23399 0.35246 0.0
C634 C 0.74294 0.26688 0.31615 0.0
C635 C 0.638 0.20433 0.31993 0.0
C636 C 0.60689 0.19487 0.39046 0.0
N637 N 0.70947 0.246 0.31842 0.0
N638 N 0.64055 0.20918 0.38796 0.0
H639 H 0.41763 0.83972 0.62241 0.0
H640 H 0.48837 0.74905 0.75648 0.0
H641 H 0.39293 0.81617 0.74194 0.0
H642 H 0.51677 0.77456 0.63817 0.0
H643 H 0.45815 0.77955 0.75333 0.0
H644 H 0.4579 0.82026 0.62843 0.0
C645 C 0.42068 0.83062 0.64982 0.0
C646 C 0.4017 0.82953 0.68156 0.0
C647 C 0.47137 0.77881 0.72819 0.0
C648 C 0.44766 0.80749 0.68877 0.0
C649 C 0.48885 0.76158 0.73012 0.0
C650 C 0.50479 0.7588 0.69746 0.0
C651 C 0.46974 0.7932 0.69332 0.0
C652 C 0.5045 0.7756 0.664 0.0
C653 C 0.44373 0.81964 0.65332 0.0
C654 C 0.40683 0.81756 0.7165 0.0
N655 N 0.48688 0.79168 0.66265 0.0
N656 N 0.42913 0.80696 0.71906 0.0
H657 H 0.2567 0.76341 0.6245 0.0
H658 H 0.17489 0.59418 0.7409 0.0
H659 H 0.25522 0.75802 0.74808 0.0
H660 H 0.18614 0.60005 0.61785 0.0
H661 H 0.19395 0.65314 0.74309 0.0
H662 H 0.22077 0.70364 0.62139 0.0
C663 C 0.24841 0.7498 0.65114 0.0
C664 C 0.25946 0.76592 0.68672 0.0
C665 C 0.19189 0.64154 0.71554 0.0
C666 C 0.21843 0.6969 0.68306 0.0
C667 C 0.1809 0.60769 0.71413 0.0
C668 C 0.1792 0.59199 0.67905 0.0
C669 C 0.20158 0.66014 0.6817 0.0
C670 C 0.18724 0.61106 0.64552 0.0
C671 C 0.22789 0.7155 0.64921 0.0
C672 C 0.24757 0.74671 0.72005 0.0
N673 N 0.19851 0.64428 0.64773 0.0
N674 N 0.22804 0.71309 0.71739 0.0
H675 H 0.26726 0.5324 0.74953 0.0
H676 H 0.42893 0.6243 0.61764 0.0
H677 H 0.26397 0.53309 0.62581 0.0
H678 H 0.43215 0.60815 0.73911 0.0
H679 H 0.36829 0.58864 0.61947 0.0
H680 H 0.32796 0.55836 0.74619 0.0
C681 C 0.27916 0.53764 0.72174 0.0
C682 C 0.26036 0.53068 0.68801 0.0
C683 C 0.38242 0.59266 0.6456 0.0
C684 C 0.32971 0.5606 0.68391 0.0
C685 C 0.41705 0.61294 0.6445 0.0
C686 C 0.43577 0.61955 0.67825 0.0
C687 C 0.36648 0.57915 0.68071 0.0
C688 C 0.4189 0.60412 0.71232 0.0
C689 C 0.31381 0.55248 0.7198 0.0
C690 C 0.27725 0.5381 0.65272 0.0
N691 N 0.38529 0.58499 0.71273 0.0
N692 N 0.31088 0.55287 0.65164 0.0
H693 H 0.04447 0.25562 0.87382 0.0
H694 H 0.16913 0.44343 0.8238 0.0
H695 H 0.11283 0.32443 0.95746 0.0
H696 H 0.1257 0.36724 0.73705 0.0
H697 H 0.14983 0.40053 0.87306 0.0
H698 H 0.07392 0.2961 0.82358 0.0
C699 C 0.06569 0.27933 0.88169 0.0
C700 C 0.07593 0.28685 0.92007 0.0
C701 C 0.14492 0.3931 0.84327 0.0
C702 C 0.10991 0.33339 0.86232 0.0
C703 C 0.15585 0.41755 0.81513 0.0
C704 C 0.1487 0.40877 0.77636 0.0
C705 C 0.12607 0.35956 0.8327 0.0
C706 C 0.13171 0.37498 0.76663 0.0
C707 C 0.08269 0.30232 0.85283 0.0
C708 C 0.10399 0.31772 0.92831 0.0
N709 N 0.12043 0.35152 0.79474 0.0
N710 N 0.11979 0.34009 0.89969 0.0
H711 H 0.70249 0.81007 0.96829 0.0
H712 H 0.6587 0.7924 0.7438 0.0
H713 H 0.77508 0.8335 0.87907 0.0
H714 H 0.58697 0.73665 0.83169 0.0
H715 H 0.70149 0.8193 0.79381 0.0
H716 H 0.65936 0.79463 0.91872 0.0
C717 C 0.70938 0.81236 0.93835 0.0
C718 C 0.74218 0.82251 0.92771 0.0
C719 C 0.67626 0.80135 0.80202 0.0
C720 C 0.69347 0.80538 0.87121 0.0
C721 C 0.65192 0.78612 0.77356 0.0
C722 C 0.61947 0.76192 0.78361 0.0
C723 C 0.66782 0.79266 0.84068 0.0
C724 C 0.61188 0.75473 0.82263 0.0
C725 C 0.68485 0.80348 0.91014 0.0
C726 C 0.74991 0.82516 0.8885 0.0
N727 N 0.63586 0.76994 0.84971 0.0
N728 N 0.72575 0.81655 0.8617 0.0
H729 H 0.23757 0.89562 0.74272 0.0
H730 H 0.22512 0.92117 0.9683 0.0
H731 H 0.29216 0.87505 0.82819 0.0
H732 H 0.20361 0.97366 0.88115 0.0
H733 H 0.23986 0.89403 0.91751 0.0
H734 H 0.21459 0.91453 0.79399 0.0
C735 C 0.24452 0.89489 0.77218 0.0
C736 C 0.26721 0.88433 0.78116 0.0
C737 C 0.23176 0.91144 0.90968 0.0
C738 C 0.24088 0.90532 0.83967 0.0
C739 C 0.22333 0.92681 0.93858 0.0
C740 C 0.21376 0.95011 0.92891 0.0
C741 C 0.22988 0.91902 0.87102 0.0
C742 C 0.21161 0.95643 0.88993 0.0
C743 C 0.23152 0.9057 0.80137 0.0
C744 C 0.27529 0.88366 0.81987 0.0
N745 N 0.21961 0.94101 0.86246 0.0
N746 N 0.26218 0.89403 0.84766 0.0
H747 H 0.36579 0.14778 0.29856 0.0
H748 H 0.32331 0.12353 0.07364 0.0
H749 H 0.43477 0.15507 0.21123 0.0
H750 H 0.24864 0.08383 0.16215 0.0
H751 H 0.3665 0.14817 0.12357 0.0
H752 H 0.32419 0.13641 0.2482 0.0
C753 C 0.37223 0.14721 0.26888 0.0
C754 C 0.40349 0.1517 0.25911 0.0
C755 C 0.34058 0.13438 0.13193 0.0
C756 C 0.3566 0.13939 0.20163 0.0
C757 C 0.31603 0.12054 0.10348 0.0
C758 C 0.28253 0.10126 0.11389 0.0
C759 C 0.33136 0.1292 0.17081 0.0
C760 C 0.27431 0.09806 0.15298 0.0
C761 C 0.34858 0.14074 0.24021 0.0
C762 C 0.41071 0.15099 0.22016 0.0
N763 N 0.29854 0.11169 0.18002 0.0
N764 N 0.38746 0.14486 0.19291 0.0
H765 H 0.90099 0.22258 0.07739 0.0
H766 H 0.88571 0.24824 0.30236 0.0
H767 H 0.95791 0.20668 0.1642 0.0
H768 H 0.86078 0.29683 0.21366 0.0
H769 H 0.90069 0.22059 0.25244 0.0
H770 H 0.87417 0.2377 0.12804 0.0
C771 C 0.90749 0.22188 0.10706 0.0
C772 C 0.93204 0.21396 0.11663 0.0
C773 C 0.89164 0.23712 0.24407 0.0
C774 C 0.90147 0.23076 0.1744 0.0
C775 C 0.88305 0.25276 0.27248 0.0
C776 C 0.87262 0.27524 0.26206 0.0
C777 C 0.88911 0.24366 0.2052 0.0
C778 C 0.86942 0.28019 0.22292 0.0
C779 C 0.89233 0.23057 0.13588 0.0
C780 C 0.93954 0.21329 0.15554 0.0
N781 N 0.87772 0.26463 0.19594 0.0
N782 N 0.92443 0.22171 0.18297 0.0
H783 H 0.71615 0.58282 0.20854 0.0
H784 H 0.82093 0.77462 0.16265 0.0
H785 H 0.77228 0.65582 0.29543 0.0
H786 H 0.79427 0.69992 0.07507 0.0
H787 H 0.80284 0.73167 0.21152 0.0
H788 H 0.74382 0.62505 0.15936 0.0
C789 C 0.73439 0.60781 0.21729 0.0
C790 C 0.74162 0.61599 0.25622 0.0
C791 C 0.80119 0.72462 0.18169 0.0
C792 C 0.77337 0.66451 0.19983 0.0
C793 C 0.81126 0.74909 0.15369 0.0
C794 C 0.80861 0.74071 0.11468 0.0
C795 C 0.78778 0.69132 0.17073 0.0
C796 C 0.79656 0.70736 0.10481 0.0
C797 C 0.75035 0.63183 0.18911 0.0
C798 C 0.7659 0.64856 0.26578 0.0
N799 N 0.78609 0.68373 0.1327 0.0
N800 N 0.7806 0.67182 0.23775 0.0
H801 H 0.03351 0.47559 0.62974 0.0
H802 H 0.98849 0.44845 0.40562 0.0
H803 H 0.10208 0.48266 0.54193 0.0
H804 H 0.9148 0.40777 0.49514 0.0
H805 H 0.03218 0.47322 0.45499 0.0
H806 H 0.99096 0.46186 0.57995 0.0
C807 C 0.03964 0.4744 0.60008 0.0
C808 C 0.07115 0.4797 0.59005 0.0
C809 C 0.00636 0.45912 0.46369 0.0
C810 C 0.02313 0.46473 0.53317 0.0
C811 C 0.98153 0.44521 0.43558 0.0
C812 C 0.94816 0.42571 0.44641 0.0
C813 C -0.00245 0.45383 0.50268 0.0
C814 C 0.94035 0.42219 0.48562 0.0
C815 C 0.01544 0.4666 0.57173 0.0
C816 C 0.07791 0.47811 0.55111 0.0
N817 N 0.96484 0.43598 0.51233 0.0
N818 N 0.05413 0.47076 0.52415 0.0
H819 H 0.57164 0.5643 0.40492 0.0
H820 H 0.54784 0.58241 0.62966 0.0
H821 H 0.61425 0.53233 0.49364 0.0
H822 H 0.54042 0.64465 0.54292 0.0
H823 H 0.56001 0.55313 0.57916 0.0
H824 H 0.54728 0.58307 0.45481 0.0
C825 C 0.5754 0.56079 0.43481 0.0
C826 C 0.59532 0.54727 0.44527 0.0
C827 C 0.55548 0.57309 0.57131 0.0
C828 C 0.56759 0.56824 0.50208 0.0
C829 C 0.54852 0.58971 0.60006 0.0
C830 C 0.54371 0.61632 0.59051 0.0
C831 C 0.557 0.58283 0.53285 0.0
C832 C 0.54465 0.6247 0.55165 0.0
C833 C 0.5617 0.5716 0.4632 0.0
C834 C 0.5995 0.54321 0.4844 0.0
N835 N 0.55124 0.60808 0.52428 0.0
N836 N 0.58587 0.55375 0.51137 0.0
H837 H 0.44334 0.98819 0.63062 0.0
H838 H 0.46266 0.03126 0.406 0.0
H839 H 0.38771 0.91655 0.54234 0.0
H840 H 0.48715 0.10437 0.49504 0.0
H841 H 0.4463 0.98822 0.45566 0.0
H842 H 0.47103 0.03076 0.58068 0.0
C843 C 0.43725 0.98139 0.6008 0.0
C844 C 0.41281 0.94906 0.59059 0.0
C845 C 0.45555 0.01379 0.46418 0.0
C846 C 0.44441 -0.00291 0.53364 0.0
C847 C 0.46493 0.03826 0.43591 0.0
C848 C 0.47567 0.07121 0.44647 0.0
C849 C 0.45754 0.0226 0.50309 0.0
C850 C 0.47832 0.07909 0.48565 0.0
C851 C 0.45291 0.00559 0.57238 0.0
C852 C 0.40589 0.9414 0.55151 0.0
N853 N 0.46923 0.05499 0.51251 0.0
N854 N 0.4215 0.96522 0.52449 0.0
loop_
_geom_bond_atom_site_label_1
_geom_bond_atom_site_label_2
_geom_bond_distance
_geom_bond_site_symmetry_2
_ccdc_geom_bond_type
Co0 O2 2.143 . S
Co0 O8 2.074 . S
Co0 O11 2.093 1_455 S
Co0 O24 2.097 1_455 S
Co0 N41 2.151 . S
Co0 N49 2.214 . S
Co1 O2 2.160 1_556 S
Co1 O7 2.058 . S
Co1 O17 2.057 . S
Co1 O32 2.037 1_455 S
Co1 N36 2.145 . S
Co1 N57 2.257 1_455 S
O2 Co0 2.143 . S
O2 Co1 2.160 1_554 S
C3 O4 1.278 . S
C3 O11 1.224 . S
O4 C3 1.278 . S
C5 O6 1.245 . S
C5 O17 1.232 . S
O6 C5 1.245 . S
O7 Co1 2.058 . S
O7 C33 1.269 1_556 S
O8 Co0 2.074 . S
O8 C33 1.257 . S
H9 C34 0.930 . S
H10 C40 0.930 . S
O11 Co0 2.093 1_655 S
O11 C3 1.224 . S
H12 C44 0.929 . S
H13 C46 0.930 . S
H14 C47 0.930 . S
H15 C45 0.929 . S
H16 C48 0.928 . S
O17 Co1 2.057 . S
O17 C5 1.232 . S
H18 C37 0.929 . S
H19 C38 0.929 . S
H20 C50 0.931 . S
H21 C42 0.929 . S
H22 C51 0.930 . S
H23 C43 0.931 . S
O24 Co0 2.097 1_655 S
O24 C52 1.214 . S
H25 C53 0.929 . S
H26 C54 0.929 . S
H27 C55 0.930 . S
H28 C56 0.929 . S
H29 C58 0.930 . S
H30 C35 0.930 . S
H31 C39 0.930 . S
O32 Co1 2.037 1_655 S
O32 C52 1.234 1_556 S
C33 O7 1.269 1_554 S
C33 O8 1.257 . S
C34 H9 0.930 . S
C34 C37 1.388 . S
C34 C39 1.418 . S
C35 H30 0.930 . S
C35 C38 1.404 . S
C35 C39 1.353 1_455 S
N36 Co1 2.145 . S
N36 C37 1.397 1_455 S
N36 C38 1.334 . S
C37 H18 0.929 . S
C37 C34 1.388 . S
C37 N36 1.397 1_655 S
C38 H19 0.929 . S
C38 C35 1.404 . S
C38 N36 1.334 . S
C39 H31 0.930 . S
C39 C34 1.418 . S
C39 C35 1.353 1_655 S
C40 H10 0.930 . S
C40 N41 1.330 . S
C40 C42 1.446 . S
N41 Co0 2.151 . S
N41 C40 1.330 . S
N41 C45 1.418 . S
C42 H21 0.929 . S
C42 C40 1.446 . S
C42 C43 1.332 . S
C43 H23 0.931 . S
C43 C42 1.332 . S
C43 C44 1.267 . S
C44 H12 0.929 . S
C44 C43 1.267 . S
C44 C45 1.251 . S
C45 H15 0.929 . S
C45 N41 1.418 . S
C45 C44 1.251 . S
C46 H13 0.930 . S
C46 C48 1.406 . S
C46 C51 1.261 . S
C47 H14 0.930 . S
C47 N49 1.325 . S
C47 C50 1.357 . S
C48 H16 0.928 . S
C48 C46 1.406 . S
C48 N49 1.261 . S
N49 Co0 2.214 . S
N49 C47 1.325 . S
N49 C48 1.261 . S
C50 H20 0.931 . S
C50 C47 1.357 . S
C50 C51 1.312 . S
C51 H22 0.930 . S
C51 C46 1.261 . S
C51 C50 1.312 . S
C52 O24 1.214 . S
C52 O32 1.234 1_554 S
C53 H25 0.929 . S
C53 C56 1.391 . S
C53 C58 1.391 . S
C54 H26 0.929 . S
C54 C55 1.390 . S
C54 N57 1.391 . S
C55 H27 0.930 . S
C55 C54 1.390 . S
C55 C56 1.392 . S
C56 H28 0.929 . S
C56 C53 1.391 . S
C56 C55 1.392 . S
N57 Co1 2.257 1_655 S
N57 C54 1.391 . S
N57 C58 1.388 . S
C58 H29 0.930 . S
C58 C53 1.391 . S
C58 N57 1.388 . S
Co59 O61 2.143 1_556 S
Co59 O67 2.074 . S
Co59 O70 2.093 . S
Co59 O83 2.097 . S
Co59 N100 2.151 . S
Co59 N108 2.214 . S
Co60 O61 2.160 . S
Co60 O66 2.058 . S
Co60 O76 2.057 . S
Co60 O91 2.037 . S
Co60 N95 2.145 . S
Co60 N116 2.257 . S
O61 Co59 2.143 1_554 S
O61 Co60 2.160 . S
C62 O63 1.278 . S
C62 O70 1.224 . S
O63 C62 1.278 . S
C64 O65 1.245 . S
C64 O76 1.232 . S
O65 C64 1.245 . S
O66 Co60 2.058 . S
O66 C92 1.269 . S
O67 Co59 2.074 . S
O67 C92 1.257 1_556 S
H68 C93 0.930 . S
H69 C99 0.930 . S
O70 Co59 2.093 . S
O70 C62 1.224 . S
H71 C103 0.929 . S
H72 C105 0.930 . S
H73 C106 0.930 . S
H74 C104 0.929 . S
H75 C107 0.928 . S
O76 Co60 2.057 . S
O76 C64 1.232 . S
H77 C96 0.929 . S
H78 C97 0.929 . S
H79 C109 0.931 . S
H80 C101 0.929 . S
H81 C110 0.930 . S
H82 C102 0.931 . S
O83 Co59 2.097 . S
O83 C111 1.214 1_556 S
H84 C112 0.929 . S
H85 C113 0.929 . S
H86 C114 0.930 . S
H87 C115 0.929 . S
H88 C117 0.930 . S
H89 C94 0.930 . S
H90 C98 0.930 . S
O91 Co60 2.037 . S
O91 C111 1.234 . S
C92 O66 1.269 . S
C92 O67 1.257 1_554 S
C93 H68 0.930 . S
C93 C96 1.388 . S
C93 C98 1.418 . S
C94 H89 0.930 . S
C94 C97 1.404 . S
C94 C98 1.353 . S
N95 Co60 2.145 . S
N95 C96 1.397 . S
N95 C97 1.334 . S
C96 H77 0.929 . S
C96 C93 1.388 . S
C96 N95 1.397 . S
C97 H78 0.929 . S
C97 C94 1.404 . S
C97 N95 1.334 . S
C98 H90 0.930 . S
C98 C93 1.418 . S
C98 C94 1.353 . S
C99 H69 0.930 . S
C99 N100 1.330 . S
C99 C101 1.446 . S
N100 Co59 2.151 . S
N100 C99 1.330 . S
N100 C104 1.418 . S
C101 H80 0.929 . S
C101 C99 1.446 . S
C101 C102 1.332 . S
C102 H82 0.931 . S
C102 C101 1.332 . S
C102 C103 1.267 . S
C103 H71 0.929 . S
C103 C102 1.267 . S
C103 C104 1.251 . S
C104 H74 0.929 . S
C104 N100 1.418 . S
C104 C103 1.251 . S
C105 H72 0.930 . S
C105 C107 1.406 . S
C105 C110 1.261 . S
C106 H73 0.930 . S
C106 N108 1.325 . S
C106 C109 1.357 . S
C107 H75 0.928 . S
C107 C105 1.406 . S
C107 N108 1.261 . S
N108 Co59 2.214 . S
N108 C106 1.325 . S
N108 C107 1.261 . S
C109 H79 0.931 . S
C109 C106 1.357 . S
C109 C110 1.312 . S
C110 H81 0.930 . S
C110 C105 1.261 . S
C110 C109 1.312 . S
C111 O83 1.214 1_554 S
C111 O91 1.234 . S
C112 H84 0.929 . S
C112 C115 1.391 . S
C112 C117 1.391 . S
C113 H85 0.929 . S
C113 C114 1.390 . S
C113 N116 1.391 . S
C114 H86 0.930 . S
C114 C113 1.390 . S
C114 C115 1.392 . S
C115 H87 0.929 . S
C115 C112 1.391 . S
C115 C114 1.392 . S
N116 Co60 2.257 . S
N116 C113 1.391 . S
N116 C117 1.388 . S
C117 H88 0.930 . S
C117 C112 1.391 . S
C117 N116 1.388 . S
Co118 O120 2.143 . S
Co118 O126 2.074 1_545 S
Co118 O129 2.093 . S
Co118 O142 2.097 . S
Co118 N159 2.151 1_545 S
Co118 N167 2.214 . S
Co119 O120 2.160 1_556 S
Co119 O125 2.058 1_545 S
Co119 O135 2.057 . S
Co119 O150 2.037 . S
Co119 N154 2.145 . S
Co119 N175 2.257 . S
O120 Co118 2.143 . S
O120 Co119 2.160 1_554 S
C121 O122 1.278 . S
C121 O129 1.224 . S
O122 C121 1.278 . S
C123 O124 1.245 . S
C123 O135 1.232 1_565 S
O124 C123 1.245 . S
O125 Co119 2.058 1_565 S
O125 C151 1.269 1_556 S
O126 Co118 2.074 1_565 S
O126 C151 1.257 . S
H127 C152 0.930 . S
H128 C158 0.930 . S
O129 Co118 2.093 . S
O129 C121 1.224 . S
H130 C162 0.929 . S
H131 C164 0.930 . S
H132 C165 0.930 . S
H133 C163 0.929 . S
H134 C166 0.928 . S
O135 Co119 2.057 . S
O135 C123 1.232 1_545 S
H136 C155 0.929 . S
H137 C156 0.929 . S
H138 C168 0.931 . S
H139 C160 0.929 . S
H140 C169 0.930 . S
H141 C161 0.931 . S
O142 Co118 2.097 . S
O142 C170 1.214 . S
H143 C171 0.929 . S
H144 C172 0.929 . S
H145 C173 0.930 . S
H146 C174 0.929 . S
H147 C176 0.930 . S
H148 C153 0.930 . S
H149 C157 0.930 . S
O150 Co119 2.037 . S
O150 C170 1.234 1_556 S
C151 O125 1.269 1_554 S
C151 O126 1.257 . S
C152 H127 0.930 . S
C152 C155 1.388 . S
C152 C157 1.418 . S
C153 H148 0.930 . S
C153 C156 1.404 . S
C153 C157 1.353 . S
N154 Co119 2.145 . S
N154 C155 1.397 . S
N154 C156 1.334 . S
C155 H136 0.929 . S
C155 C152 1.388 . S
C155 N154 1.397 . S
C156 H137 0.929 . S
C156 C153 1.404 . S
C156 N154 1.334 . S
C157 H149 0.930 . S
C157 C152 1.418 . S
C157 C153 1.353 . S
C158 H128 0.930 . S
C158 N159 1.330 . S
C158 C160 1.446 . S
N159 Co118 2.151 1_565 S
N159 C158 1.330 . S
N159 C163 1.418 . S
C160 H139 0.929 . S
C160 C158 1.446 . S
C160 C161 1.332 . S
C161 H141 0.931 . S
C161 C160 1.332 . S
C161 C162 1.267 . S
C162 H130 0.929 . S
C162 C161 1.267 . S
C162 C163 1.251 . S
C163 H133 0.929 . S
C163 N159 1.418 . S
C163 C162 1.251 . S
C164 H131 0.930 . S
C164 C166 1.406 . S
C164 C169 1.261 . S
C165 H132 0.930 . S
C165 N167 1.325 . S
C165 C168 1.357 . S
C166 H134 0.928 . S
C166 C164 1.406 . S
C166 N167 1.261 . S
N167 Co118 2.214 . S
N167 C165 1.325 . S
N167 C166 1.261 . S
C168 H138 0.931 . S
C168 C165 1.357 . S
C168 C169 1.312 . S
C169 H140 0.930 . S
C169 C164 1.261 . S
C169 C168 1.312 . S
C170 O142 1.214 . S
C170 O150 1.234 1_554 S
C171 H143 0.929 . S
C171 C174 1.391 . S
C171 C176 1.391 . S
C172 H144 0.929 . S
C172 C173 1.390 . S
C172 N175 1.391 . S
C173 H145 0.930 . S
C173 C172 1.390 . S
C173 C174 1.392 . S
C174 H146 0.929 . S
C174 C171 1.391 . S
C174 C173 1.392 . S
N175 Co119 2.257 . S
N175 C172 1.391 . S
N175 C176 1.388 . S
C176 H147 0.930 . S
C176 C171 1.391 . S
C176 N175 1.388 . S
Co177 O179 2.143 . S
Co177 O185 2.074 . S
Co177 O188 2.093 . S
Co177 O201 2.097 . S
Co177 N218 2.151 . S
Co177 N226 2.214 . S
Co178 O179 2.160 . S
Co178 O184 2.058 . S
Co178 O194 2.057 . S
Co178 O209 2.037 . S
Co178 N213 2.145 . S
Co178 N234 2.257 . S
O179 Co177 2.143 . S
O179 Co178 2.160 . S
C180 O181 1.278 . S
C180 O188 1.224 . S
O181 C180 1.278 . S
C182 O183 1.245 . S
C182 O194 1.232 . S
O183 C182 1.245 . S
O184 Co178 2.058 . S
O184 C210 1.269 . S
O185 Co177 2.074 . S
O185 C210 1.257 . S
H186 C211 0.930 . S
H187 C217 0.930 . S
O188 Co177 2.093 . S
O188 C180 1.224 . S
H189 C221 0.929 . S
H190 C223 0.930 . S
H191 C224 0.930 . S
H192 C222 0.929 . S
H193 C225 0.928 . S
O194 Co178 2.057 . S
O194 C182 1.232 . S
H195 C214 0.929 . S
H196 C215 0.929 . S
H197 C227 0.931 . S
H198 C219 0.929 . S
H199 C228 0.930 . S
H200 C220 0.931 . S
O201 Co177 2.097 . S
O201 C229 1.214 . S
H202 C230 0.929 . S
H203 C231 0.929 . S
H204 C232 0.930 . S
H205 C233 0.929 . S
H206 C235 0.930 . S
H207 C212 0.930 . S
H208 C216 0.930 . S
O209 Co178 2.037 . S
O209 C229 1.234 . S
C210 O184 1.269 . S
C210 O185 1.257 . S
C211 H186 0.930 . S
C211 C214 1.388 . S
C211 C216 1.418 . S
C212 H207 0.930 . S
C212 C215 1.404 . S
C212 C216 1.353 . S
N213 Co178 2.145 . S
N213 C214 1.397 . S
N213 C215 1.334 . S
C214 H195 0.929 . S
C214 C211 1.388 . S
C214 N213 1.397 . S
C215 H196 0.929 . S
C215 C212 1.404 . S
C215 N213 1.334 . S
C216 H208 0.930 . S
C216 C211 1.418 . S
C216 C212 1.353 . S
C217 H187 0.930 . S
C217 N218 1.330 . S
C217 C219 1.446 . S
N218 Co177 2.151 . S
N218 C217 1.330 . S
N218 C222 1.418 . S
C219 H198 0.929 . S
C219 C217 1.446 . S
C219 C220 1.332 . S
C220 H200 0.931 . S
C220 C219 1.332 . S
C220 C221 1.267 . S
C221 H189 0.929 . S
C221 C220 1.267 . S
C221 C222 1.251 . S
C222 H192 0.929 . S
C222 N218 1.418 . S
C222 C221 1.251 . S
C223 H190 0.930 . S
C223 C225 1.406 . S
C223 C228 1.261 . S
C224 H191 0.930 . S
C224 N226 1.325 . S
C224 C227 1.357 . S
C225 H193 0.928 . S
C225 C223 1.406 . S
C225 N226 1.261 . S
N226 Co177 2.214 . S
N226 C224 1.325 . S
N226 C225 1.261 . S
C227 H197 0.931 . S
C227 C224 1.357 . S
C227 C228 1.312 . S
C228 H199 0.930 . S
C228 C223 1.261 . S
C228 C227 1.312 . S
C229 O201 1.214 . S
C229 O209 1.234 . S
C230 H202 0.929 . S
C230 C233 1.391 . S
C230 C235 1.391 . S
C231 H203 0.929 . S
C231 C232 1.390 . S
C231 N234 1.391 . S
C232 H204 0.930 . S
C232 C231 1.390 . S
C232 C233 1.392 . S
C233 H205 0.929 . S
C233 C230 1.391 . S
C233 C232 1.392 . S
N234 Co178 2.257 . S
N234 C231 1.391 . S
N234 C235 1.388 . S
C235 H206 0.930 . S
C235 C230 1.391 . S
C235 N234 1.388 . S
Co236 O238 2.143 . S
Co236 O244 2.074 . S
Co236 O247 2.093 . S
Co236 O260 2.097 . S
Co236 N277 2.151 . S
Co236 N285 2.214 . S
Co237 O238 2.160 . S
Co237 O243 2.058 . S
Co237 O253 2.057 . S
Co237 O268 2.037 . S
Co237 N272 2.145 . S
Co237 N293 2.257 . S
O238 Co236 2.143 . S
O238 Co237 2.160 . S
C239 O240 1.278 . S
C239 O247 1.224 . S
O240 C239 1.278 . S
C241 O242 1.245 . S
C241 O253 1.232 . S
O242 C241 1.245 . S
O243 Co237 2.058 . S
O243 C269 1.269 . S
O244 Co236 2.074 . S
O244 C269 1.257 . S
H245 C270 0.930 . S
H246 C276 0.930 . S
O247 Co236 2.093 . S
O247 C239 1.224 . S
H248 C280 0.929 . S
H249 C282 0.930 . S
H250 C283 0.930 . S
H251 C281 0.929 . S
H252 C284 0.928 . S
O253 Co237 2.057 . S
O253 C241 1.232 . S
H254 C273 0.929 . S
H255 C274 0.929 . S
H256 C286 0.931 . S
H257 C278 0.929 . S
H258 C287 0.930 . S
H259 C279 0.931 . S
O260 Co236 2.097 . S
O260 C288 1.214 . S
H261 C289 0.929 . S
H262 C290 0.929 . S
H263 C291 0.930 . S
H264 C292 0.929 . S
H265 C294 0.930 . S
H266 C271 0.930 . S
H267 C275 0.930 . S
O268 Co237 2.037 . S
O268 C288 1.234 . S
C269 O243 1.269 . S
C269 O244 1.257 . S
C270 H245 0.930 . S
C270 C273 1.388 . S
C270 C275 1.418 . S
C271 H266 0.930 . S
C271 C274 1.404 . S
C271 C275 1.353 . S
N272 Co237 2.145 . S
N272 C273 1.397 . S
N272 C274 1.334 . S
C273 H254 0.929 . S
C273 C270 1.388 . S
C273 N272 1.397 . S
C274 H255 0.929 . S
C274 C271 1.404 . S
C274 N272 1.334 . S
C275 H267 0.930 . S
C275 C270 1.418 . S
C275 C271 1.353 . S
C276 H246 0.930 . S
C276 N277 1.330 . S
C276 C278 1.446 . S
N277 Co236 2.151 . S
N277 C276 1.330 . S
N277 C281 1.418 . S
C278 H257 0.929 . S
C278 C276 1.446 . S
C278 C279 1.332 . S
C279 H259 0.931 . S
C279 C278 1.332 . S
C279 C280 1.267 . S
C280 H248 0.929 . S
C280 C279 1.267 . S
C280 C281 1.251 . S
C281 H251 0.929 . S
C281 N277 1.418 . S
C281 C280 1.251 . S
C282 H249 0.930 . S
C282 C284 1.406 . S
C282 C287 1.261 . S
C283 H250 0.930 . S
C283 N285 1.325 . S
C283 C286 1.357 . S
C284 H252 0.928 . S
C284 C282 1.406 . S
C284 N285 1.261 . S
N285 Co236 2.214 . S
N285 C283 1.325 . S
N285 C284 1.261 . S
C286 H256 0.931 . S
C286 C283 1.357 . S
C286 C287 1.312 . S
C287 H258 0.930 . S
C287 C282 1.261 . S
C287 C286 1.312 . S
C288 O260 1.214 . S
C288 O268 1.234 . S
C289 H261 0.929 . S
C289 C292 1.391 . S
C289 C294 1.391 . S
C290 H262 0.929 . S
C290 C291 1.390 . S
C290 N293 1.391 . S
C291 H263 0.930 . S
C291 C290 1.390 . S
C291 C292 1.392 . S
C292 H264 0.929 . S
C292 C289 1.391 . S
C292 C291 1.392 . S
N293 Co237 2.257 . S
N293 C290 1.391 . S
N293 C294 1.388 . S
C294 H265 0.930 . S
C294 C289 1.391 . S
C294 N293 1.388 . S
Co295 O297 2.143 . S
Co295 O303 2.074 . S
Co295 O306 2.093 . S
Co295 O319 2.097 . S
Co295 N336 2.151 . S
Co295 N344 2.214 . S
Co296 O297 2.160 . S
Co296 O302 2.058 . S
Co296 O312 2.057 . S
Co296 O327 2.037 . S
Co296 N331 2.145 . S
Co296 N352 2.257 . S
O297 Co295 2.143 . S
O297 Co296 2.160 . S
C298 O299 1.278 . S
C298 O306 1.224 . S
O299 C298 1.278 . S
C300 O301 1.245 . S
C300 O312 1.232 . S
O301 C300 1.245 . S
O302 Co296 2.058 . S
O302 C328 1.269 . S
O303 Co295 2.074 . S
O303 C328 1.257 . S
H304 C329 0.930 . S
H305 C335 0.930 . S
O306 Co295 2.093 . S
O306 C298 1.224 . S
H307 C339 0.929 . S
H308 C341 0.930 . S
H309 C342 0.930 . S
H310 C340 0.929 . S
H311 C343 0.928 . S
O312 Co296 2.057 . S
O312 C300 1.232 . S
H313 C332 0.929 . S
H314 C333 0.929 . S
H315 C345 0.931 . S
H316 C337 0.929 . S
H317 C346 0.930 . S
H318 C338 0.931 . S
O319 Co295 2.097 . S
O319 C347 1.214 . S
H320 C348 0.929 . S
H321 C349 0.929 . S
H322 C350 0.930 . S
H323 C351 0.929 . S
H324 C353 0.930 . S
H325 C330 0.930 . S
H326 C334 0.930 . S
O327 Co296 2.037 . S
O327 C347 1.234 . S
C328 O302 1.269 . S
C328 O303 1.257 . S
C329 H304 0.930 . S
C329 C332 1.388 . S
C329 C334 1.418 . S
C330 H325 0.930 . S
C330 C333 1.404 . S
C330 C334 1.353 . S
N331 Co296 2.145 . S
N331 C332 1.397 . S
N331 C333 1.334 . S
C332 H313 0.929 . S
C332 C329 1.388 . S
C332 N331 1.397 . S
C333 H314 0.929 . S
C333 C330 1.404 . S
C333 N331 1.334 . S
C334 H326 0.930 . S
C334 C329 1.418 . S
C334 C330 1.353 . S
C335 H305 0.930 . S
C335 N336 1.330 . S
C335 C337 1.446 . S
N336 Co295 2.151 . S
N336 C335 1.330 . S
N336 C340 1.418 . S
C337 H316 0.929 . S
C337 C335 1.446 . S
C337 C338 1.332 . S
C338 H318 0.931 . S
C338 C337 1.332 . S
C338 C339 1.267 . S
C339 H307 0.929 . S
C339 C338 1.267 . S
C339 C340 1.251 . S
C340 H310 0.929 . S
C340 N336 1.418 . S
C340 C339 1.251 . S
C341 H308 0.930 . S
C341 C343 1.406 . S
C341 C346 1.261 . S
C342 H309 0.930 . S
C342 N344 1.325 . S
C342 C345 1.357 . S
C343 H311 0.928 . S
C343 C341 1.406 . S
C343 N344 1.261 . S
N344 Co295 2.214 . S
N344 C342 1.325 . S
N344 C343 1.261 . S
C345 H315 0.931 . S
C345 C342 1.357 . S
C345 C346 1.312 . S
C346 H317 0.930 . S
C346 C341 1.261 . S
C346 C345 1.312 . S
C347 O319 1.214 . S
C347 O327 1.234 . S
C348 H320 0.929 . S
C348 C351 1.391 . S
C348 C353 1.391 . S
C349 H321 0.929 . S
C349 C350 1.390 . S
C349 N352 1.391 . S
C350 H322 0.930 . S
C350 C349 1.390 . S
C350 C351 1.392 . S
C351 H323 0.929 . S
C351 C348 1.391 . S
C351 C350 1.392 . S
N352 Co296 2.257 . S
N352 C349 1.391 . S
N352 C353 1.388 . S
C353 H324 0.930 . S
C353 C348 1.391 . S
C353 N352 1.388 . S
Co354 O356 2.143 . S
Co354 O362 2.074 . S
Co354 O365 2.093 . S
Co354 O378 2.097 . S
Co354 N395 2.151 . S
Co354 N403 2.214 . S
Co355 O356 2.160 . S
Co355 O361 2.058 . S
Co355 O371 2.057 . S
Co355 O386 2.037 . S
Co355 N390 2.145 . S
Co355 N411 2.257 . S
O356 Co354 2.143 . S
O356 Co355 2.160 . S
C357 O358 1.278 . S
C357 O365 1.224 . S
O358 C357 1.278 . S
C359 O360 1.245 . S
C359 O371 1.232 . S
O360 C359 1.245 . S
O361 Co355 2.058 . S
O361 C387 1.269 . S
O362 Co354 2.074 . S
O362 C387 1.257 . S
H363 C388 0.930 . S
H364 C394 0.930 . S
O365 Co354 2.093 . S
O365 C357 1.224 . S
H366 C398 0.929 . S
H367 C400 0.930 . S
H368 C401 0.930 . S
H369 C399 0.929 . S
H370 C402 0.928 . S
O371 Co355 2.057 . S
O371 C359 1.232 . S
H372 C391 0.929 . S
H373 C392 0.929 . S
H374 C404 0.931 . S
H375 C396 0.929 . S
H376 C405 0.930 . S
H377 C397 0.931 . S
O378 Co354 2.097 . S
O378 C406 1.214 . S
H379 C407 0.929 . S
H380 C408 0.929 . S
H381 C409 0.930 . S
H382 C410 0.929 . S
H383 C412 0.930 . S
H384 C389 0.930 . S
H385 C393 0.930 . S
O386 Co355 2.037 . S
O386 C406 1.234 . S
C387 O361 1.269 . S
C387 O362 1.257 . S
C388 H363 0.930 . S
C388 C391 1.388 . S
C388 C393 1.418 . S
C389 H384 0.930 . S
C389 C392 1.404 . S
C389 C393 1.353 . S
N390 Co355 2.145 . S
N390 C391 1.397 . S
N390 C392 1.334 . S
C391 H372 0.929 . S
C391 C388 1.388 . S
C391 N390 1.397 . S
C392 H373 0.929 . S
C392 C389 1.404 . S
C392 N390 1.334 . S
C393 H385 0.930 . S
C393 C388 1.418 . S
C393 C389 1.353 . S
C394 H364 0.930 . S
C394 N395 1.330 . S
C394 C396 1.446 . S
N395 Co354 2.151 . S
N395 C394 1.330 . S
N395 C399 1.418 . S
C396 H375 0.929 . S
C396 C394 1.446 . S
C396 C397 1.332 . S
C397 H377 0.931 . S
C397 C396 1.332 . S
C397 C398 1.267 . S
C398 H366 0.929 . S
C398 C397 1.267 . S
C398 C399 1.251 . S
C399 H369 0.929 . S
C399 N395 1.418 . S
C399 C398 1.251 . S
C400 H367 0.930 . S
C400 C402 1.406 . S
C400 C405 1.261 . S
C401 H368 0.930 . S
C401 N403 1.325 . S
C401 C404 1.357 . S
C402 H370 0.928 . S
C402 C400 1.406 . S
C402 N403 1.261 . S
N403 Co354 2.214 . S
N403 C401 1.325 . S
N403 C402 1.261 . S
C404 H374 0.931 . S
C404 C401 1.357 . S
C404 C405 1.312 . S
C405 H376 0.930 . S
C405 C400 1.261 . S
C405 C404 1.312 . S
C406 O378 1.214 . S
C406 O386 1.234 . S
C407 H379 0.929 . S
C407 C410 1.391 . S
C407 C412 1.391 . S
C408 H380 0.929 . S
C408 C409 1.390 . S
C408 N411 1.391 . S
C409 H381 0.930 . S
C409 C408 1.390 . S
C409 C410 1.392 . S
C410 H382 0.929 . S
C410 C407 1.391 . S
C410 C409 1.392 . S
N411 Co355 2.257 . S
N411 C408 1.391 . S
N411 C412 1.388 . S
C412 H383 0.930 . S
C412 C407 1.391 . S
C412 N411 1.388 . S
Co413 O415 2.143 . S
Co413 O421 2.074 . S
Co413 O424 2.093 . S
Co413 O437 2.097 . S
Co413 N454 2.151 . S
Co413 N462 2.214 . S
Co414 O415 2.160 . S
Co414 O420 2.058 . S
Co414 O430 2.057 . S
Co414 O445 2.037 . S
Co414 N449 2.145 . S
Co414 N470 2.257 . S
O415 Co413 2.143 . S
O415 Co414 2.160 . S
C416 O417 1.278 . S
C416 O424 1.224 . S
O417 C416 1.278 . S
C418 O419 1.245 . S
C418 O430 1.232 . S
O419 C418 1.245 . S
O420 Co414 2.058 . S
O420 C446 1.269 . S
O421 Co413 2.074 . S
O421 C446 1.257 . S
H422 C447 0.930 . S
H423 C453 0.930 . S
O424 Co413 2.093 . S
O424 C416 1.224 . S
H425 C457 0.929 . S
H426 C459 0.930 . S
H427 C460 0.930 . S
H428 C458 0.929 . S
H429 C461 0.928 . S
O430 Co414 2.057 . S
O430 C418 1.232 . S
H431 C450 0.929 . S
H432 C451 0.929 . S
H433 C463 0.931 . S
H434 C455 0.929 . S
H435 C464 0.930 . S
H436 C456 0.931 . S
O437 Co413 2.097 . S
O437 C465 1.214 . S
H438 C466 0.929 . S
H439 C467 0.929 . S
H440 C468 0.930 . S
H441 C469 0.929 . S
H442 C471 0.930 . S
H443 C448 0.930 . S
H444 C452 0.930 . S
O445 Co414 2.037 . S
O445 C465 1.234 . S
C446 O420 1.269 . S
C446 O421 1.257 . S
C447 H422 0.930 . S
C447 C450 1.388 . S
C447 C452 1.418 . S
C448 H443 0.930 . S
C448 C451 1.404 . S
C448 C452 1.353 . S
N449 Co414 2.145 . S
N449 C450 1.397 . S
N449 C451 1.334 . S
C450 H431 0.929 . S
C450 C447 1.388 . S
C450 N449 1.397 . S
C451 H432 0.929 . S
C451 C448 1.404 . S
C451 N449 1.334 . S
C452 H444 0.930 . S
C452 C447 1.418 . S
C452 C448 1.353 . S
C453 H423 0.930 . S
C453 N454 1.330 . S
C453 C455 1.446 . S
N454 Co413 2.151 . S
N454 C453 1.330 . S
N454 C458 1.418 . S
C455 H434 0.929 . S
C455 C453 1.446 . S
C455 C456 1.332 . S
C456 H436 0.931 . S
C456 C455 1.332 . S
C456 C457 1.267 . S
C457 H425 0.929 . S
C457 C456 1.267 . S
C457 C458 1.251 . S
C458 H428 0.929 . S
C458 N454 1.418 . S
C458 C457 1.251 . S
C459 H426 0.930 . S
C459 C461 1.406 . S
C459 C464 1.261 . S
C460 H427 0.930 . S
C460 N462 1.325 . S
C460 C463 1.357 . S
C461 H429 0.928 . S
C461 C459 1.406 . S
C461 N462 1.261 . S
N462 Co413 2.214 . S
N462 C460 1.325 . S
N462 C461 1.261 . S
C463 H433 0.931 . S
C463 C460 1.357 . S
C463 C464 1.312 . S
C464 H435 0.930 . S
C464 C459 1.261 . S
C464 C463 1.312 . S
C465 O437 1.214 . S
C465 O445 1.234 . S
C466 H438 0.929 . S
C466 C469 1.391 . S
C466 C471 1.391 . S
C467 H439 0.929 . S
C467 C468 1.390 . S
C467 N470 1.391 . S
C468 H440 0.930 . S
C468 C467 1.390 . S
C468 C469 1.392 . S
C469 H441 0.929 . S
C469 C466 1.391 . S
C469 C468 1.392 . S
N470 Co414 2.257 . S
N470 C467 1.391 . S
N470 C471 1.388 . S
C471 H442 0.930 . S
C471 C466 1.391 . S
C471 N470 1.388 . S
Co472 O474 2.143 . S
Co472 O480 2.074 . S
Co472 O483 2.093 . S
Co472 O496 2.097 . S
Co472 N513 2.151 . S
Co472 N521 2.214 . S
Co473 O474 2.160 . S
Co473 O479 2.058 . S
Co473 O489 2.057 . S
Co473 O504 2.037 . S
Co473 N508 2.145 . S
Co473 N529 2.257 . S
O474 Co472 2.143 . S
O474 Co473 2.160 . S
C475 O476 1.278 . S
C475 O483 1.224 . S
O476 C475 1.278 . S
C477 O478 1.245 . S
C477 O489 1.232 . S
O478 C477 1.245 . S
O479 Co473 2.058 . S
O479 C505 1.269 . S
O480 Co472 2.074 . S
O480 C505 1.257 . S
H481 C506 0.930 . S
H482 C512 0.930 . S
O483 Co472 2.093 . S
O483 C475 1.224 . S
H484 C516 0.929 . S
H485 C518 0.930 . S
H486 C519 0.930 . S
H487 C517 0.929 . S
H488 C520 0.928 . S
O489 Co473 2.057 . S
O489 C477 1.232 . S
H490 C509 0.929 . S
H491 C510 0.929 . S
H492 C522 0.931 . S
H493 C514 0.929 . S
H494 C523 0.930 . S
H495 C515 0.931 . S
O496 Co472 2.097 . S
O496 C524 1.214 . S
H497 C525 0.929 . S
H498 C526 0.929 . S
H499 C527 0.930 . S
H500 C528 0.929 . S
H501 C530 0.930 . S
H502 C507 0.930 . S
H503 C511 0.930 . S
O504 Co473 2.037 . S
O504 C524 1.234 . S
C505 O479 1.269 . S
C505 O480 1.257 . S
C506 H481 0.930 . S
C506 C509 1.388 . S
C506 C511 1.418 . S
C507 H502 0.930 . S
C507 C510 1.404 . S
C507 C511 1.353 . S
N508 Co473 2.145 . S
N508 C509 1.397 . S
N508 C510 1.334 . S
C509 H490 0.929 . S
C509 C506 1.388 . S
C509 N508 1.397 . S
C510 H491 0.929 . S
C510 C507 1.404 . S
C510 N508 1.334 . S
C511 H503 0.930 . S
C511 C506 1.418 . S
C511 C507 1.353 . S
C512 H482 0.930 . S
C512 N513 1.330 . S
C512 C514 1.446 . S
N513 Co472 2.151 . S
N513 C512 1.330 . S
N513 C517 1.418 . S
C514 H493 0.929 . S
C514 C512 1.446 . S
C514 C515 1.332 . S
C515 H495 0.931 . S
C515 C514 1.332 . S
C515 C516 1.267 . S
C516 H484 0.929 . S
C516 C515 1.267 . S
C516 C517 1.251 . S
C517 H487 0.929 . S
C517 N513 1.418 . S
C517 C516 1.251 . S
C518 H485 0.930 . S
C518 C520 1.406 . S
C518 C523 1.261 . S
C519 H486 0.930 . S
C519 N521 1.325 . S
C519 C522 1.357 . S
C520 H488 0.928 . S
C520 C518 1.406 . S
C520 N521 1.261 . S
N521 Co472 2.214 . S
N521 C519 1.325 . S
N521 C520 1.261 . S
C522 H492 0.931 . S
C522 C519 1.357 . S
C522 C523 1.312 . S
C523 H494 0.930 . S
C523 C518 1.261 . S
C523 C522 1.312 . S
C524 O496 1.214 . S
C524 O504 1.234 . S
C525 H497 0.929 . S
C525 C528 1.391 . S
C525 C530 1.391 . S
C526 H498 0.929 . S
C526 C527 1.390 . S
C526 N529 1.391 . S
C527 H499 0.930 . S
C527 C526 1.390 . S
C527 C528 1.392 . S
C528 H500 0.929 . S
C528 C525 1.391 . S
C528 C527 1.392 . S
N529 Co473 2.257 . S
N529 C526 1.391 . S
N529 C530 1.388 . S
C530 H501 0.930 . S
C530 C525 1.391 . S
C530 N529 1.388 . S
H531 C537 0.930 . S
H532 C541 0.930 . S
H533 C546 0.929 . S
H534 C544 0.929 . S
H535 C539 0.929 . S
H536 C545 0.929 . S
C537 H531 0.930 . S
C537 C538 1.367 1_556 S
C537 C545 1.378 . S
C538 C537 1.367 1_554 S
C538 C546 1.433 . S
C539 H535 0.929 . S
C539 C541 1.378 . S
C539 C543 1.350 . S
C540 C543 1.463 . S
C540 C545 1.350 1_554 S
C540 N548 1.427 . S
C541 H532 0.930 . S
C541 C539 1.378 . S
C541 C542 1.367 . S
C542 C541 1.367 . S
C542 C544 1.433 1_554 S
C543 C539 1.350 . S
C543 C540 1.463 . S
C543 N547 1.427 1_554 S
C544 H534 0.929 . S
C544 C542 1.433 1_556 S
C544 N547 1.384 . S
C545 H536 0.929 . S
C545 C537 1.378 . S
C545 C540 1.350 1_556 S
C546 H533 0.929 . S
C546 C538 1.433 . S
C546 N548 1.384 . S
N547 C543 1.427 1_556 S
N547 C544 1.384 . S
N548 C540 1.427 . S
N548 C546 1.384 . S
H549 C555 0.930 . S
H550 C559 0.930 . S
H551 C564 0.929 . S
H552 C562 0.921 1_556 S
H553 C557 0.929 . S
H554 C563 0.929 1_556 S
C555 H549 0.930 . S
C555 C556 1.367 1_556 S
C555 C563 1.378 1_556 S
C556 C555 1.367 1_554 S
C556 C564 1.433 . S
C557 H553 0.929 . S
C557 C559 1.378 . S
C557 C561 1.350 . S
C558 C561 1.463 . S
C558 C563 1.349 1_545 S
C558 N566 1.427 1_545 S
C559 H550 0.930 . S
C559 C557 1.378 . S
C559 C560 1.367 . S
C560 C559 1.367 . S
C560 C562 1.433 . S
C561 C557 1.350 . S
C561 C558 1.463 . S
C561 N565 1.427 . S
C562 H552 0.921 1_554 S
C562 C560 1.433 . S
C562 N565 1.384 . S
C563 H554 0.929 1_554 S
C563 C555 1.378 1_554 S
C563 C558 1.349 1_565 S
C564 H551 0.929 . S
C564 C556 1.433 . S
C564 N566 1.384 . S
N565 C561 1.427 . S
N565 C562 1.384 . S
N566 C558 1.427 1_565 S
N566 C564 1.384 . S
H567 C573 0.930 . S
H568 C577 0.930 . S
H569 C582 0.929 . S
H570 C580 0.929 . S
H571 C575 0.929 . S
H572 C581 0.929 . S
C573 H567 0.930 . S
C573 C574 1.367 1_556 S
C573 C581 1.378 . S
C574 C573 1.367 1_554 S
C574 C582 1.433 . S
C575 H571 0.929 . S
C575 C577 1.378 . S
C575 C579 1.350 . S
C576 C579 1.463 1_655 S
C576 C581 1.350 1_554 S
C576 N584 1.427 . S
C577 H568 0.930 . S
C577 C575 1.378 . S
C577 C578 1.367 . S
C578 C577 1.367 . S
C578 C580 1.433 1_554 S
C579 C575 1.350 . S
C579 C576 1.463 1_455 S
C579 N583 1.427 1_554 S
C580 H570 0.929 . S
C580 C578 1.433 1_556 S
C580 N583 1.384 . S
C581 H572 0.929 . S
C581 C573 1.378 . S
C581 C576 1.350 1_556 S
C582 H569 0.929 . S
C582 C574 1.433 . S
C582 N584 1.384 . S
N583 C579 1.427 1_556 S
N583 C580 1.384 . S
N584 C576 1.427 . S
N584 C582 1.384 . S
H585 C591 0.930 . S
H586 C595 0.930 . S
H587 C600 0.929 . S
H588 C598 0.929 . S
H589 C593 0.929 . S
H590 C599 0.929 . S
C591 H585 0.930 . S
C591 C592 1.367 . S
C591 C599 1.378 . S
C592 C591 1.367 . S
C592 C600 1.433 . S
C593 H589 0.929 . S
C593 C595 1.378 . S
C593 C597 1.350 . S
C594 C597 1.463 . S
C594 C599 1.350 . S
C594 N602 1.427 . S
C595 H586 0.930 . S
C595 C593 1.378 . S
C595 C596 1.367 . S
C596 C595 1.367 . S
C596 C598 1.433 . S
C597 C593 1.350 . S
C597 C594 1.463 . S
C597 N601 1.427 . S
C598 H588 0.929 . S
C598 C596 1.433 . S
C598 N601 1.384 . S
C599 H590 0.929 . S
C599 C591 1.378 . S
C599 C594 1.350 . S
C600 H587 0.929 . S
C600 C592 1.433 . S
C600 N602 1.384 . S
N601 C597 1.427 . S
N601 C598 1.384 . S
N602 C594 1.427 . S
N602 C600 1.384 . S
H603 C609 0.930 . S
H604 C613 0.930 . S
H605 C618 0.929 . S
H606 C616 0.929 . S
H607 C611 0.929 . S
H608 C617 0.929 . S
C609 H603 0.930 . S
C609 C610 1.367 . S
C609 C617 1.378 . S
C610 C609 1.367 . S
C610 C618 1.433 . S
C611 H607 0.929 . S
C611 C613 1.378 . S
C611 C615 1.350 . S
C612 C615 1.463 . S
C612 C617 1.350 . S
C612 N620 1.427 . S
C613 H604 0.930 . S
C613 C611 1.378 . S
C613 C614 1.367 . S
C614 C613 1.367 . S
C614 C616 1.433 . S
C615 C611 1.350 . S
C615 C612 1.463 . S
C615 N619 1.427 . S
C616 H606 0.929 . S
C616 C614 1.433 . S
C616 N619 1.384 . S
C617 H608 0.929 . S
C617 C609 1.378 . S
C617 C612 1.350 . S
C618 H605 0.929 . S
C618 C610 1.433 . S
C618 N620 1.384 . S
N619 C615 1.427 . S
N619 C616 1.384 . S
N620 C612 1.427 . S
N620 C618 1.384 . S
H621 C627 0.930 . S
H622 C631 0.930 . S
H623 C636 0.929 . S
H624 C634 0.929 . S
H625 C629 0.929 . S
H626 C635 0.929 . S
C627 H621 0.930 . S
C627 C628 1.367 . S
C627 C635 1.378 . S
C628 C627 1.367 . S
C628 C636 1.433 . S
C629 H625 0.929 . S
C629 C631 1.378 . S
C629 C633 1.350 . S
C630 C633 1.463 . S
C630 C635 1.350 . S
C630 N638 1.427 . S
C631 H622 0.930 . S
C631 C629 1.378 . S
C631 C632 1.367 . S
C632 C631 1.367 . S
C632 C634 1.433 . S
C633 C629 1.350 . S
C633 C630 1.463 . S
C633 N637 1.427 . S
C634 H624 0.929 . S
C634 C632 1.433 . S
C634 N637 1.384 . S
C635 H626 0.929 . S
C635 C627 1.378 . S
C635 C630 1.350 . S
C636 H623 0.929 . S
C636 C628 1.433 . S
C636 N638 1.384 . S
N637 C633 1.427 . S
N637 C634 1.384 . S
N638 C630 1.427 . S
N638 C636 1.384 . S
H639 C645 0.930 . S
H640 C649 0.930 . S
H641 C654 0.929 . S
H642 C652 0.929 . S
H643 C647 0.929 . S
H644 C653 0.929 . S
C645 H639 0.930 . S
C645 C646 1.367 . S
C645 C653 1.378 . S
C646 C645 1.367 . S
C646 C654 1.433 . S
C647 H643 0.929 . S
C647 C649 1.378 . S
C647 C651 1.350 . S
C648 C651 1.463 . S
C648 C653 1.350 . S
C648 N656 1.427 . S
C649 H640 0.930 . S
C649 C647 1.378 . S
C649 C650 1.367 . S
C650 C649 1.367 . S
C650 C652 1.433 . S
C651 C647 1.350 . S
C651 C648 1.463 . S
C651 N655 1.427 . S
C652 H642 0.929 . S
C652 C650 1.433 . S
C652 N655 1.384 . S
C653 H644 0.929 . S
C653 C645 1.378 . S
C653 C648 1.350 . S
C654 H641 0.929 . S
C654 C646 1.433 . S
C654 N656 1.384 . S
N655 C651 1.427 . S
N655 C652 1.384 . S
N656 C648 1.427 . S
N656 C654 1.384 . S
H657 C663 0.930 . S
H658 C667 0.930 . S
H659 C672 0.929 . S
H660 C670 0.929 . S
H661 C665 0.929 . S
H662 C671 0.929 . S
C663 H657 0.930 . S
C663 C664 1.367 . S
C663 C671 1.378 . S
C664 C663 1.367 . S
C664 C672 1.433 . S
C665 H661 0.929 . S
C665 C667 1.378 . S
C665 C669 1.350 . S
C666 C669 1.463 . S
C666 C671 1.350 . S
C666 N674 1.427 . S
C667 H658 0.930 . S
C667 C665 1.378 . S
C667 C668 1.367 . S
C668 C667 1.367 . S
C668 C670 1.433 . S
C669 C665 1.350 . S
C669 C666 1.463 . S
C669 N673 1.427 . S
C670 H660 0.929 . S
C670 C668 1.433 . S
C670 N673 1.384 . S
C671 H662 0.929 . S
C671 C663 1.378 . S
C671 C666 1.350 . S
C672 H659 0.929 . S
C672 C664 1.433 . S
C672 N674 1.384 . S
N673 C669 1.427 . S
N673 C670 1.384 . S
N674 C666 1.427 . S
N674 C672 1.384 . S
H675 C681 0.930 . S
H676 C685 0.930 . S
H677 C690 0.929 . S
H678 C688 0.929 . S
H679 C683 0.929 . S
H680 C689 0.929 . S
C681 H675 0.930 . S
C681 C682 1.367 . S
C681 C689 1.378 . S
C682 C681 1.367 . S
C682 C690 1.433 . S
C683 H679 0.929 . S
C683 C685 1.378 . S
C683 C687 1.350 . S
C684 C687 1.463 . S
C684 C689 1.350 . S
C684 N692 1.427 . S
C685 H676 0.930 . S
C685 C683 1.378 . S
C685 C686 1.367 . S
C686 C685 1.367 . S
C686 C688 1.433 . S
C687 C683 1.350 . S
C687 C684 1.463 . S
C687 N691 1.427 . S
C688 H678 0.929 . S
C688 C686 1.433 . S
C688 N691 1.384 . S
C689 H680 0.929 . S
C689 C681 1.378 . S
C689 C684 1.350 . S
C690 H677 0.929 . S
C690 C682 1.433 . S
C690 N692 1.384 . S
N691 C687 1.427 . S
N691 C688 1.384 . S
N692 C684 1.427 . S
N692 C690 1.384 . S
H693 C699 0.930 . S
H694 C703 0.930 . S
H695 C708 0.929 . S
H696 C706 0.929 . S
H697 C701 0.929 . S
H698 C707 0.929 . S
C699 H693 0.930 . S
C699 C700 1.367 . S
C699 C707 1.378 . S
C700 C699 1.367 . S
C700 C708 1.433 . S
C701 H697 0.929 . S
C701 C703 1.378 . S
C701 C705 1.350 . S
C702 C705 1.463 . S
C702 C707 1.350 . S
C702 N710 1.427 . S
C703 H694 0.930 . S
C703 C701 1.378 . S
C703 C704 1.367 . S
C704 C703 1.367 . S
C704 C706 1.433 . S
C705 C701 1.350 . S
C705 C702 1.463 . S
C705 N709 1.427 . S
C706 H696 0.929 . S
C706 C704 1.433 . S
C706 N709 1.384 . S
C707 H698 0.929 . S
C707 C699 1.378 . S
C707 C702 1.350 . S
C708 H695 0.929 . S
C708 C700 1.433 . S
C708 N710 1.384 . S
N709 C705 1.427 . S
N709 C706 1.384 . S
N710 C702 1.427 . S
N710 C708 1.384 . S
H711 C717 0.930 . S
H712 C721 0.930 . S
H713 C726 0.929 . S
H714 C724 0.929 . S
H715 C719 0.929 . S
H716 C725 0.929 . S
C717 H711 0.930 . S
C717 C718 1.367 . S
C717 C725 1.378 . S
C718 C717 1.367 . S
C718 C726 1.433 . S
C719 H715 0.929 . S
C719 C721 1.378 . S
C719 C723 1.350 . S
C720 C723 1.463 . S
C720 C725 1.350 . S
C720 N728 1.427 . S
C721 H712 0.930 . S
C721 C719 1.378 . S
C721 C722 1.367 . S
C722 C721 1.367 . S
C722 C724 1.433 . S
C723 C719 1.350 . S
C723 C720 1.463 . S
C723 N727 1.427 . S
C724 H714 0.929 . S
C724 C722 1.433 . S
C724 N727 1.384 . S
C725 H716 0.929 . S
C725 C717 1.378 . S
C725 C720 1.350 . S
C726 H713 0.929 . S
C726 C718 1.433 . S
C726 N728 1.384 . S
N727 C723 1.427 . S
N727 C724 1.384 . S
N728 C720 1.427 . S
N728 C726 1.384 . S
H729 C735 0.930 . S
H730 C739 0.930 . S
H731 C744 0.929 . S
H732 C742 0.929 1_545 S
H733 C737 0.929 . S
H734 C743 0.929 . S
C735 H729 0.930 . S
C735 C736 1.367 . S
C735 C743 1.378 . S
C736 C735 1.367 . S
C736 C744 1.433 . S
C737 H733 0.929 . S
C737 C739 1.378 . S
C737 C741 1.350 . S
C738 C741 1.463 . S
C738 C743 1.350 . S
C738 N746 1.427 . S
C739 H730 0.930 . S
C739 C737 1.378 . S
C739 C740 1.367 . S
C740 C739 1.367 . S
C740 C742 1.433 . S
C741 C737 1.350 . S
C741 C738 1.463 . S
C741 N745 1.427 . S
C742 H732 0.929 1_565 S
C742 C740 1.433 . S
C742 N745 1.384 . S
C743 H734 0.929 . S
C743 C735 1.378 . S
C743 C738 1.350 . S
C744 H731 0.929 . S
C744 C736 1.433 . S
C744 N746 1.384 . S
N745 C741 1.427 . S
N745 C742 1.384 . S
N746 C738 1.427 . S
N746 C744 1.384 . S
H747 C753 0.930 . S
H748 C757 0.930 . S
H749 C762 0.929 . S
H750 C760 0.929 . S
H751 C755 0.929 . S
H752 C761 0.929 . S
C753 H747 0.930 . S
C753 C754 1.367 . S
C753 C761 1.378 . S
C754 C753 1.367 . S
C754 C762 1.433 . S
C755 H751 0.929 . S
C755 C757 1.378 . S
C755 C759 1.350 . S
C756 C759 1.463 . S
C756 C761 1.350 . S
C756 N764 1.427 . S
C757 H748 0.930 . S
C757 C755 1.378 . S
C757 C758 1.367 . S
C758 C757 1.367 . S
C758 C760 1.433 . S
C759 C755 1.350 . S
C759 C756 1.463 . S
C759 N763 1.427 . S
C760 H750 0.929 . S
C760 C758 1.433 . S
C760 N763 1.384 . S
C761 H752 0.929 . S
C761 C753 1.378 . S
C761 C756 1.350 . S
C762 H749 0.929 . S
C762 C754 1.433 . S
C762 N764 1.384 . S
N763 C759 1.427 . S
N763 C760 1.384 . S
N764 C756 1.427 . S
N764 C762 1.384 . S
H765 C771 0.930 . S
H766 C775 0.930 . S
H767 C780 0.929 . S
H768 C778 0.929 . S
H769 C773 0.929 . S
H770 C779 0.929 . S
C771 H765 0.930 . S
C771 C772 1.367 . S
C771 C779 1.378 . S
C772 C771 1.367 . S
C772 C780 1.433 . S
C773 H769 0.929 . S
C773 C775 1.378 . S
C773 C777 1.350 . S
C774 C777 1.463 . S
C774 C779 1.350 . S
C774 N782 1.427 . S
C775 H766 0.930 . S
C775 C773 1.378 . S
C775 C776 1.367 . S
C776 C775 1.367 . S
C776 C778 1.433 . S
C777 C773 1.350 . S
C777 C774 1.463 . S
C777 N781 1.427 . S
C778 H768 0.929 . S
C778 C776 1.433 . S
C778 N781 1.384 . S
C779 H770 0.929 . S
C779 C771 1.378 . S
C779 C774 1.350 . S
C780 H767 0.929 . S
C780 C772 1.433 . S
C780 N782 1.384 . S
N781 C777 1.427 . S
N781 C778 1.384 . S
N782 C774 1.427 . S
N782 C780 1.384 . S
H783 C789 0.930 . S
H784 C793 0.930 . S
H785 C798 0.929 . S
H786 C796 0.929 . S
H787 C791 0.929 . S
H788 C797 0.929 . S
C789 H783 0.930 . S
C789 C790 1.367 . S
C789 C797 1.378 . S
C790 C789 1.367 . S
C790 C798 1.433 . S
C791 H787 0.929 . S
C791 C793 1.378 . S
C791 C795 1.350 . S
C792 C795 1.463 . S
C792 C797 1.350 . S
C792 N800 1.427 . S
C793 H784 0.930 . S
C793 C791 1.378 . S
C793 C794 1.367 . S
C794 C793 1.367 . S
C794 C796 1.433 . S
C795 C791 1.350 . S
C795 C792 1.463 . S
C795 N799 1.427 . S
C796 H786 0.929 . S
C796 C794 1.433 . S
C796 N799 1.384 . S
C797 H788 0.929 . S
C797 C789 1.378 . S
C797 C792 1.350 . S
C798 H785 0.929 . S
C798 C790 1.433 . S
C798 N800 1.384 . S
N799 C795 1.427 . S
N799 C796 1.384 . S
N800 C792 1.427 . S
N800 C798 1.384 . S
H801 C807 0.930 . S
H802 C811 0.930 . S
H803 C816 0.929 . S
H804 C814 0.929 . S
H805 C809 0.929 . S
H806 C815 0.929 1_655 S
C807 H801 0.930 . S
C807 C808 1.367 . S
C807 C815 1.378 . S
C808 C807 1.367 . S
C808 C816 1.433 . S
C809 H805 0.929 . S
C809 C811 1.378 1_455 S
C809 C813 1.350 . S
C810 C813 1.463 . S
C810 C815 1.350 . S
C810 N818 1.427 . S
C811 H802 0.930 . S
C811 C809 1.378 1_655 S
C811 C812 1.367 . S
C812 C811 1.367 . S
C812 C814 1.433 . S
C813 C809 1.350 . S
C813 C810 1.463 . S
C813 N817 1.427 1_455 S
C814 H804 0.929 . S
C814 C812 1.433 . S
C814 N817 1.384 . S
C815 H806 0.929 1_455 S
C815 C807 1.378 . S
C815 C810 1.350 . S
C816 H803 0.929 . S
C816 C808 1.433 . S
C816 N818 1.384 . S
N817 C813 1.427 1_655 S
N817 C814 1.384 . S
N818 C810 1.427 . S
N818 C816 1.384 . S
H819 C825 0.930 . S
H820 C829 0.930 . S
H821 C834 0.929 . S
H822 C832 0.929 . S
H823 C827 0.929 . S
H824 C833 0.929 . S
C825 H819 0.930 . S
C825 C826 1.367 . S
C825 C833 1.378 . S
C826 C825 1.367 . S
C826 C834 1.433 . S
C827 H823 0.929 . S
C827 C829 1.378 . S
C827 C831 1.350 . S
C828 C831 1.463 . S
C828 C833 1.350 . S
C828 N836 1.427 . S
C829 H820 0.930 . S
C829 C827 1.378 . S
C829 C830 1.367 . S
C830 C829 1.367 . S
C830 C832 1.433 . S
C831 C827 1.350 . S
C831 C828 1.463 . S
C831 N835 1.427 . S
C832 H822 0.929 . S
C832 C830 1.433 . S
C832 N835 1.384 . S
C833 H824 0.929 . S
C833 C825 1.378 . S
C833 C828 1.350 . S
C834 H821 0.929 . S
C834 C826 1.433 . S
C834 N836 1.384 . S
N835 C831 1.427 . S
N835 C832 1.384 . S
N836 C828 1.427 . S
N836 C834 1.384 . S
H837 C843 0.930 . S
H838 C847 0.930 . S
H839 C852 0.929 . S
H840 C850 0.929 . S
H841 C845 0.929 . S
H842 C851 0.929 . S
C843 H837 0.930 . S
C843 C844 1.367 . S
C843 C851 1.378 1_565 S
C844 C843 1.367 . S
C844 C852 1.433 . S
C845 H841 0.929 . S
C845 C847 1.378 . S
C845 C849 1.350 . S
C846 C849 1.463 . S
C846 C851 1.350 . S
C846 N854 1.427 1_545 S
C847 H838 0.930 . S
C847 C845 1.378 . S
C847 C848 1.367 . S
C848 C847 1.367 . S
C848 C850 1.433 . S
C849 C845 1.350 . S
C849 C846 1.463 . S
C849 N853 1.427 . S
C850 H840 0.929 . S
C850 C848 1.433 . S
C850 N853 1.384 . S
C851 H842 0.929 . S
C851 C843 1.378 1_545 S
C851 C846 1.350 . S
C852 H839 0.929 . S
C852 C844 1.433 . S
C852 N854 1.384 . S
N853 C849 1.427 . S
N853 C850 1.384 . S
N854 C846 1.427 1_565 S
N854 C852 1.384 . S
C538 C170 1.217 . S
C542 C33 1.215 . S
C556 C111 1.225 . S
C560 C52 1.219 . S
C574 C92 1.214 . S
C578 C151 1.212 . S
C592 C328 1.214 . S
C596 C229 1.217 . S
C610 C288 1.222 . S
C614 C210 1.210 . S
C628 C269 1.214 . S
C632 C347 1.218 . S
C646 C387 1.217 . S
C650 C524 1.217 . S
C664 C406 1.215 . S
C668 C465 1.220 . S
C682 C446 1.210 . S
C686 C505 1.215 . S
C700 C5 1.495 . S
C704 C418 1.494 . S
C718 C62 1.488 . S
C722 C475 1.491 . S
C736 C357 1.490 . S
C740 C123 1.497 . S
C754 C239 1.486 . S
C758 C121 1.489 . S
C772 C3 1.491 . S
C776 C298 1.487 . S
C790 C180 1.486 . S
C794 C64 1.495 . S
C808 C416 1.488 . S
C812 C300 1.497 . S
C826 C182 1.496 . S
C830 C477 1.495 . S
C844 C359 1.497 . S
C848 C241 1.498 . S
