# Generated by pormake.
# Topology wmp, (6)-cn, num edge types: 1
# Building blocks:
#     Node 0, Type 0, BuildingBlock: IZENUY_clean_sbu_0, # of connection points: 6
#     Node 1, Type 0, BuildingBlock: IZENUY_clean_sbu_0, # of connection points: 6
#     Node 2, Type 0, BuildingBlock: IZENUY_clean_sbu_0, # of connection points: 6
#     Node 3, Type 0, BuildingBlock: IZENUY_clean_sbu_0, # of connection points: 6
#     Node 4, Type 0, BuildingBlock: IZENUY_clean_sbu_0, # of connection points: 6
#     Node 5, Type 0, BuildingBlock: IZENUY_clean_sbu_0, # of connection points: 6
#     Node 6, Type 0, BuildingBlock: IZENUY_clean_sbu_0, # of connection points: 6
#     Node 7, Type 0, BuildingBlock: IZENUY_clean_sbu_0, # of connection points: 6
#     Node 8, Type 0, BuildingBlock: IZENUY_clean_sbu_0, # of connection points: 6
#     Node 9, Type 0, BuildingBlock: IZENUY_clean_sbu_0, # of connection points: 6
#     Node 10, Type 0, BuildingBlock: IZENUY_clean_sbu_0, # of connection points: 6
#     Node 11, Type 0, BuildingBlock: IZENUY_clean_sbu_0, # of connection points: 6
#     Node 12, Type 0, BuildingBlock: IZENUY_clean_sbu_0, # of connection points: 6
#     Node 13, Type 0, BuildingBlock: IZENUY_clean_sbu_0, # of connection points: 6
#     Node 14, Type 0, BuildingBlock: IZENUY_clean_sbu_0, # of connection points: 6
#     Node 15, Type 0, BuildingBlock: IZENUY_clean_sbu_0, # of connection points: 6
#     Node 16, Type 0, BuildingBlock: IZENUY_clean_sbu_0, # of connection points: 6
#     Node 17, Type 0, BuildingBlock: IZENUY_clean_sbu_0, # of connection points: 6
#     Node 18, Type 0, BuildingBlock: IZENUY_clean_sbu_0, # of connection points: 6
#     Node 19, Type 0, BuildingBlock: IZENUY_clean_sbu_0, # of connection points: 6
#     Node 20, Type 0, BuildingBlock: IZENUY_clean_sbu_0, # of connection points: 6
#     Node 21, Type 0, BuildingBlock: IZENUY_clean_sbu_0, # of connection points: 6
#     Node 22, Type 0, BuildingBlock: IZENUY_clean_sbu_0, # of connection points: 6
#     Node 23, Type 0, BuildingBlock: IZENUY_clean_sbu_0, # of connection points: 6
#     Node 24, Type 0, BuildingBlock: IZENUY_clean_sbu_0, # of connection points: 6
#     Node 25, Type 0, BuildingBlock: IZENUY_clean_sbu_0, # of connection points: 6
#     Node 26, Type 0, BuildingBlock: IZENUY_clean_sbu_0, # of connection points: 6
#     Node 27, Type 0, BuildingBlock: IZENUY_clean_sbu_0, # of connection points: 6
#     Node 28, Type 0, BuildingBlock: IZENUY_clean_sbu_0, # of connection points: 6
#     Node 29, Type 0, BuildingBlock: IZENUY_clean_sbu_0, # of connection points: 6
#     Node 30, Type 0, BuildingBlock: IZENUY_clean_sbu_0, # of connection points: 6
#     Node 31, Type 0, BuildingBlock: IZENUY_clean_sbu_0, # of connection points: 6
#     Node 32, Type 0, BuildingBlock: IZENUY_clean_sbu_0, # of connection points: 6
#     Node 33, Type 0, BuildingBlock: IZENUY_clean_sbu_0, # of connection points: 6
#     Node 34, Type 0, BuildingBlock: IZENUY_clean_sbu_0, # of connection points: 6
#     Node 35, Type 0, BuildingBlock: IZENUY_clean_sbu_0, # of connection points: 6
#     Edge 36, Type (0, 0), BuildingBlock: KIFKEQ_clean_linker_1, # of connection points: 2
#     Edge 37, Type (0, 0), BuildingBlock: KIFKEQ_clean_linker_1, # of connection points: 2
#     Edge 38, Type (0, 0), BuildingBlock: KIFKEQ_clean_linker_1, # of connection points: 2
#     Edge 39, Type (0, 0), BuildingBlock: KIFKEQ_clean_linker_1, # of connection points: 2
#     Edge 40, Type (0, 0), BuildingBlock: KIFKEQ_clean_linker_1, # of connection points: 2
#     Edge 41, Type (0, 0), BuildingBlock: KIFKEQ_clean_linker_1, # of connection points: 2
#     Edge 42, Type (0, 0), BuildingBlock: KIFKEQ_clean_linker_1, # of connection points: 2
#     Edge 43, Type (0, 0), BuildingBlock: KIFKEQ_clean_linker_1, # of connection points: 2
#     Edge 44, Type (0, 0), BuildingBlock: KIFKEQ_clean_linker_1, # of connection points: 2
#     Edge 45, Type (0, 0), BuildingBlock: KIFKEQ_clean_linker_1, # of connection points: 2
#     Edge 46, Type (0, 0), BuildingBlock: KIFKEQ_clean_linker_1, # of connection points: 2
#     Edge 47, Type (0, 0), BuildingBlock: KIFKEQ_clean_linker_1, # of connection points: 2
#     Edge 48, Type (0, 0), BuildingBlock: KIFKEQ_clean_linker_1, # of connection points: 2
#     Edge 49, Type (0, 0), BuildingBlock: KIFKEQ_clean_linker_1, # of connection points: 2
#     Edge 50, Type (0, 0), BuildingBlock: KIFKEQ_clean_linker_1, # of connection points: 2
#     Edge 51, Type (0, 0), BuildingBlock: KIFKEQ_clean_linker_1, # of connection points: 2
#     Edge 52, Type (0, 0), BuildingBlock: KIFKEQ_clean_linker_1, # of connection points: 2
#     Edge 53, Type (0, 0), BuildingBlock: KIFKEQ_clean_linker_1, # of connection points: 2
#     Edge 54, Type (0, 0), BuildingBlock: KIFKEQ_clean_linker_1, # of connection points: 2
#     Edge 55, Type (0, 0), BuildingBlock: KIFKEQ_clean_linker_1, # of connection points: 2
#     Edge 56, Type (0, 0), BuildingBlock: KIFKEQ_clean_linker_1, # of connection points: 2
#     Edge 57, Type (0, 0), BuildingBlock: KIFKEQ_clean_linker_1, # of connection points: 2
#     Edge 58, Type (0, 0), BuildingBlock: KIFKEQ_clean_linker_1, # of connection points: 2
#     Edge 59, Type (0, 0), BuildingBlock: KIFKEQ_clean_linker_1, # of connection points: 2
#     Edge 60, Type (0, 0), BuildingBlock: KIFKEQ_clean_linker_1, # of connection points: 2
#     Edge 61, Type (0, 0), BuildingBlock: KIFKEQ_clean_linker_1, # of connection points: 2
#     Edge 62, Type (0, 0), BuildingBlock: KIFKEQ_clean_linker_1, # of connection points: 2
#     Edge 63, Type (0, 0), BuildingBlock: KIFKEQ_clean_linker_1, # of connection points: 2
#     Edge 64, Type (0, 0), BuildingBlock: KIFKEQ_clean_linker_1, # of connection points: 2
#     Edge 65, Type (0, 0), BuildingBlock: KIFKEQ_clean_linker_1, # of connection points: 2
#     Edge 66, Type (0, 0), BuildingBlock: KIFKEQ_clean_linker_1, # of connection points: 2
#     Edge 67, Type (0, 0), BuildingBlock: KIFKEQ_clean_linker_1, # of connection points: 2
#     Edge 68, Type (0, 0), BuildingBlock: KIFKEQ_clean_linker_1, # of connection points: 2
#     Edge 69, Type (0, 0), BuildingBlock: KIFKEQ_clean_linker_1, # of connection points: 2
#     Edge 70, Type (0, 0), BuildingBlock: KIFKEQ_clean_linker_1, # of connection points: 2
#     Edge 71, Type (0, 0), BuildingBlock: KIFKEQ_clean_linker_1, # of connection points: 2
#     Edge 72, Type (0, 0), BuildingBlock: KIFKEQ_clean_linker_1, # of connection points: 2
#     Edge 73, Type (0, 0), BuildingBlock: KIFKEQ_clean_linker_1, # of connection points: 2
#     Edge 74, Type (0, 0), BuildingBlock: KIFKEQ_clean_linker_1, # of connection points: 2
#     Edge 75, Type (0, 0), BuildingBlock: KIFKEQ_clean_linker_1, # of connection points: 2
#     Edge 76, Type (0, 0), BuildingBlock: KIFKEQ_clean_linker_1, # of connection points: 2
#     Edge 77, Type (0, 0), BuildingBlock: KIFKEQ_clean_linker_1, # of connection points: 2
#     Edge 78, Type (0, 0), BuildingBlock: KIFKEQ_clean_linker_1, # of connection points: 2
#     Edge 79, Type (0, 0), BuildingBlock: KIFKEQ_clean_linker_1, # of connection points: 2
#     Edge 80, Type (0, 0), BuildingBlock: KIFKEQ_clean_linker_1, # of connection points: 2
#     Edge 81, Type (0, 0), BuildingBlock: KIFKEQ_clean_linker_1, # of connection points: 2
#     Edge 82, Type (0, 0), BuildingBlock: KIFKEQ_clean_linker_1, # of connection points: 2
#     Edge 83, Type (0, 0), BuildingBlock: KIFKEQ_clean_linker_1, # of connection points: 2
#     Edge 84, Type (0, 0), BuildingBlock: KIFKEQ_clean_linker_1, # of connection points: 2
#     Edge 85, Type (0, 0), BuildingBlock: KIFKEQ_clean_linker_1, # of connection points: 2
#     Edge 86, Type (0, 0), BuildingBlock: KIFKEQ_clean_linker_1, # of connection points: 2
#     Edge 87, Type (0, 0), BuildingBlock: KIFKEQ_clean_linker_1, # of connection points: 2
#     Edge 88, Type (0, 0), BuildingBlock: KIFKEQ_clean_linker_1, # of connection points: 2
#     Edge 89, Type (0, 0), BuildingBlock: KIFKEQ_clean_linker_1, # of connection points: 2
#     Edge 90, Type (0, 0), BuildingBlock: KIFKEQ_clean_linker_1, # of connection points: 2
#     Edge 91, Type (0, 0), BuildingBlock: KIFKEQ_clean_linker_1, # of connection points: 2
#     Edge 92, Type (0, 0), BuildingBlock: KIFKEQ_clean_linker_1, # of connection points: 2
#     Edge 93, Type (0, 0), BuildingBlock: KIFKEQ_clean_linker_1, # of connection points: 2
#     Edge 94, Type (0, 0), BuildingBlock: KIFKEQ_clean_linker_1, # of connection points: 2
#     Edge 95, Type (0, 0), BuildingBlock: KIFKEQ_clean_linker_1, # of connection points: 2
#     Edge 96, Type (0, 0), BuildingBlock: KIFKEQ_clean_linker_1, # of connection points: 2
#     Edge 97, Type (0, 0), BuildingBlock: KIFKEQ_clean_linker_1, # of connection points: 2
#     Edge 98, Type (0, 0), BuildingBlock: KIFKEQ_clean_linker_1, # of connection points: 2
#     Edge 99, Type (0, 0), BuildingBlock: KIFKEQ_clean_linker_1, # of connection points: 2
#     Edge 100, Type (0, 0), BuildingBlock: KIFKEQ_clean_linker_1, # of connection points: 2
#     Edge 101, Type (0, 0), BuildingBlock: KIFKEQ_clean_linker_1, # of connection points: 2
#     Edge 102, Type (0, 0), BuildingBlock: KIFKEQ_clean_linker_1, # of connection points: 2
#     Edge 103, Type (0, 0), BuildingBlock: KIFKEQ_clean_linker_1, # of connection points: 2
#     Edge 104, Type (0, 0), BuildingBlock: KIFKEQ_clean_linker_1, # of connection points: 2
#     Edge 105, Type (0, 0), BuildingBlock: KIFKEQ_clean_linker_1, # of connection points: 2
#     Edge 106, Type (0, 0), BuildingBlock: KIFKEQ_clean_linker_1, # of connection points: 2
#     Edge 107, Type (0, 0), BuildingBlock: KIFKEQ_clean_linker_1, # of connection points: 2
#     Edge 108, Type (0, 0), BuildingBlock: KIFKEQ_clean_linker_1, # of connection points: 2
#     Edge 109, Type (0, 0), BuildingBlock: KIFKEQ_clean_linker_1, # of connection points: 2
#     Edge 110, Type (0, 0), BuildingBlock: KIFKEQ_clean_linker_1, # of connection points: 2
#     Edge 111, Type (0, 0), BuildingBlock: KIFKEQ_clean_linker_1, # of connection points: 2
#     Edge 112, Type (0, 0), BuildingBlock: KIFKEQ_clean_linker_1, # of connection points: 2
#     Edge 113, Type (0, 0), BuildingBlock: KIFKEQ_clean_linker_1, # of connection points: 2
#     Edge 114, Type (0, 0), BuildingBlock: KIFKEQ_clean_linker_1, # of connection points: 2
#     Edge 115, Type (0, 0), BuildingBlock: KIFKEQ_clean_linker_1, # of connection points: 2
#     Edge 116, Type (0, 0), BuildingBlock: KIFKEQ_clean_linker_1, # of connection points: 2
#     Edge 117, Type (0, 0), BuildingBlock: KIFKEQ_clean_linker_1, # of connection points: 2
#     Edge 118, Type (0, 0), BuildingBlock: KIFKEQ_clean_linker_1, # of connection points: 2
#     Edge 119, Type (0, 0), BuildingBlock: KIFKEQ_clean_linker_1, # of connection points: 2
#     Edge 120, Type (0, 0), BuildingBlock: KIFKEQ_clean_linker_1, # of connection points: 2
#     Edge 121, Type (0, 0), BuildingBlock: KIFKEQ_clean_linker_1, # of connection points: 2
#     Edge 122, Type (0, 0), BuildingBlock: KIFKEQ_clean_linker_1, # of connection points: 2
#     Edge 123, Type (0, 0), BuildingBlock: KIFKEQ_clean_linker_1, # of connection points: 2
#     Edge 124, Type (0, 0), BuildingBlock: KIFKEQ_clean_linker_1, # of connection points: 2
#     Edge 125, Type (0, 0), BuildingBlock: KIFKEQ_clean_linker_1, # of connection points: 2
#     Edge 126, Type (0, 0), BuildingBlock: KIFKEQ_clean_linker_1, # of connection points: 2
#     Edge 127, Type (0, 0), BuildingBlock: KIFKEQ_clean_linker_1, # of connection points: 2
#     Edge 128, Type (0, 0), BuildingBlock: KIFKEQ_clean_linker_1, # of connection points: 2
#     Edge 129, Type (0, 0), BuildingBlock: KIFKEQ_clean_linker_1, # of connection points: 2
#     Edge 130, Type (0, 0), BuildingBlock: KIFKEQ_clean_linker_1, # of connection points: 2
#     Edge 131, Type (0, 0), BuildingBlock: KIFKEQ_clean_linker_1, # of connection points: 2
#     Edge 132, Type (0, 0), BuildingBlock: KIFKEQ_clean_linker_1, # of connection points: 2
#     Edge 133, Type (0, 0), BuildingBlock: KIFKEQ_clean_linker_1, # of connection points: 2
#     Edge 134, Type (0, 0), BuildingBlock: KIFKEQ_clean_linker_1, # of connection points: 2
#     Edge 135, Type (0, 0), BuildingBlock: KIFKEQ_clean_linker_1, # of connection points: 2
#     Edge 136, Type (0, 0), BuildingBlock: KIFKEQ_clean_linker_1, # of connection points: 2
#     Edge 137, Type (0, 0), BuildingBlock: KIFKEQ_clean_linker_1, # of connection points: 2
#     Edge 138, Type (0, 0), BuildingBlock: KIFKEQ_clean_linker_1, # of connection points: 2
#     Edge 139, Type (0, 0), BuildingBlock: KIFKEQ_clean_linker_1, # of connection points: 2
#     Edge 140, Type (0, 0), BuildingBlock: KIFKEQ_clean_linker_1, # of connection points: 2
#     Edge 141, Type (0, 0), BuildingBlock: KIFKEQ_clean_linker_1, # of connection points: 2
#     Edge 142, Type (0, 0), BuildingBlock: KIFKEQ_clean_linker_1, # of connection points: 2
#     Edge 143, Type (0, 0), BuildingBlock: KIFKEQ_clean_linker_1, # of connection points: 2
# Relax obj value: 0.389
# Max RMSD: 0.289
# Mean RMSD: 0.288
data_MOF--net-wmp--node1-IZENUY_clean_sbu_0--edge1-KIFKEQ_clean_linker_1
_symmetry_space_group_name_H-M    P1
_symmetry_Int_Tables_number       1
_symmetry_cell_setting            triclinic
loop_
_symmetry_equiv_pos_as_xyz
'x, y, z'
_cell_length_a     126.0269
_cell_length_b     126.01105
_cell_length_c     15.268241
_cell_angle_alpha  90.000871
_cell_angle_beta   90.004624
_cell_angle_gamma 119.99725
loop_
_atom_site_label
_atom_site_type_symbol
_atom_site_fract_x
_atom_site_fract_y
_atom_site_fract_z
_atom_type_partial_charge
Fe0 Fe 0.13635 0.38427 0.18139 0.0
Fe1 Fe 0.14463 0.41058 0.12305 0.0
O2 O 0.13376 0.3947 0.12083 0.0
Fe3 Fe 0.12028 0.38921 0.05724 0.0
O4 O 0.11069 0.37614 0.12938 0.0
O5 O 0.12237 0.37909 0.24357 0.0
O6 O 0.14445 0.39499 0.27149 0.0
C7 C 0.1443 0.40451 0.29611 0.0
C8 C 0.12628 0.37171 0.02146 0.0
O9 O 0.14295 0.41125 0.24115 0.0
C10 C 0.13841 0.40725 0.94903 0.0
O11 O 0.15038 0.38868 0.12322 0.0
O12 O 0.15814 0.40857 0.13525 0.0
O13 O 0.12442 0.37993 0.99085 0.0
O14 O 0.12875 0.37167 0.10194 0.0
C15 C 0.12159 0.40968 0.12673 0.0
O16 O 0.14691 0.41075 1.00484 0.0
O17 O 0.12732 0.40112 0.97276 0.0
C18 C 0.15942 0.39939 0.11938 0.0
O19 O 0.13305 0.41542 0.11179 0.0
O20 O 0.11541 0.39818 0.11964 0.0
C21 C 0.11191 0.37398 0.20869 0.0
Fe22 Fe 0.58909 0.73404 0.12113 0.0
Fe23 Fe 0.61077 0.73151 0.05656 0.0
O24 O 0.60503 0.73938 0.11886 0.0
Fe25 Fe 0.61522 0.75265 0.17802 0.0
O26 O 0.60439 0.74993 0.26774 0.0
O27 O 0.58856 0.73179 0.23924 0.0
O28 O 0.58456 0.71774 0.11014 0.0
C29 C 0.59042 0.71221 0.1267 0.0
C30 C 0.59963 0.7598 0.11321 0.0
O31 O 0.60193 0.71765 0.11958 0.0
C32 C 0.62804 0.75509 0.01949 0.0
O33 O 0.58889 0.73607 1.00282 0.0
O34 O 0.59889 0.72642 0.97155 0.0
O35 O 0.61046 0.76183 0.11705 0.0
O36 O 0.59071 0.74938 0.13326 0.0
C37 C 0.626 0.73898 0.20853 0.0
O38 O 0.61997 0.74489 0.9894 0.0
O39 O 0.62789 0.75775 0.09934 0.0
C40 C 0.59262 0.73122 0.94732 0.0
O41 O 0.62383 0.7353 0.12979 0.0
O42 O 0.62075 0.74429 0.24208 0.0
C43 C 0.59516 0.74006 0.29353 0.0
Fe44 Fe 0.24646 0.86337 0.18038 0.0
Fe45 Fe 0.26429 0.85484 0.12234 0.0
O46 O 0.25945 0.86584 0.12004 0.0
Fe47 Fe 0.26758 0.87931 0.05658 0.0
O48 O 0.26421 0.88899 0.12852 0.0
O49 O 0.25535 0.87734 0.24256 0.0
O50 O 0.24896 0.85521 0.27065 0.0
C51 C 0.25857 0.85524 0.29535 0.0
C52 C 0.24416 0.87354 0.02028 0.0
O53 O 0.26662 0.85649 0.24045 0.0
C54 C 0.26728 0.86108 0.94838 0.0
O55 O 0.23674 0.84936 0.12221 0.0
O56 O 0.24874 0.84145 0.13442 0.0
O57 O 0.25422 0.87532 0.9899 0.0
O58 O 0.24159 0.87106 0.10069 0.0
C59 C 0.28655 0.87771 0.12688 0.0
O60 O 0.26218 0.85258 1.00411 0.0
O61 O 0.27237 0.87217 0.97225 0.0
C62 C 0.23832 0.84026 0.11833 0.0
O63 O 0.28073 0.86627 0.11128 0.0
O64 O 0.28138 0.88404 0.11936 0.0
C65 C 0.26077 0.8878 0.20767 0.0
Fe66 Fe 0.38417 0.13661 0.84767 0.0
Fe67 Fe 0.41034 0.1443 0.90458 0.0
O68 O 0.39442 0.13361 0.90646 0.0
Fe69 Fe 0.38881 0.11995 0.96788 0.0
O70 O 0.37575 0.11066 0.89496 0.0
O71 O 0.37867 0.12276 0.78331 0.0
O72 O 0.39498 0.14476 0.75787 0.0
C73 C 0.40425 0.14418 0.73212 0.0
C74 C 0.37145 0.1261 1.00644 0.0
O75 O 0.41091 0.1426 0.78645 0.0
C76 C 0.40678 0.13786 0.07792 0.0
O77 O 0.38887 0.15055 0.90875 0.0
O78 O 0.40862 0.15796 0.89201 0.0
O79 O 0.37955 0.12395 0.03583 0.0
O80 O 0.37155 0.12898 0.92679 0.0
C81 C 0.40927 0.1213 0.89762 0.0
O82 O 0.41043 0.14649 0.02284 0.0
O83 O 0.40072 0.1268 0.05292 0.0
C84 C 0.39967 0.15941 0.91202 0.0
O85 O 0.415 0.13263 0.91627 0.0
O86 O 0.39774 0.11516 0.90339 0.0
C87 C 0.37349 0.11219 0.81654 0.0
Fe88 Fe 0.85464 0.26425 0.88351 0.0
Fe89 Fe 0.87921 0.26761 0.94673 0.0
O90 O 0.86569 0.25949 0.88398 0.0
Fe91 Fe 0.86326 0.24662 0.8222 0.0
O92 O 0.85485 0.2491 0.73372 0.0
O93 O 0.8562 0.26675 0.76539 0.0
O94 O 0.866 0.28069 0.89593 0.0
C95 C 0.87739 0.28658 0.8787 0.0
C96 C 0.84022 0.23826 0.88647 0.0
O97 O 0.88377 0.28145 0.88447 0.0
C98 C 0.87366 0.24421 0.9803 0.0
O99 O 0.85248 0.26198 1.00163 0.0
O100 O 0.87211 0.27224 0.03252 0.0
O101 O 0.84935 0.23674 0.88123 0.0
O102 O 0.84132 0.24866 0.87093 0.0
C103 C 0.8876 0.26105 0.79378 0.0
O104 O 0.87533 0.25415 0.01243 0.0
O105 O 0.87122 0.24181 0.89976 0.0
C106 C 0.86104 0.2671 0.05697 0.0
O107 O 0.88885 0.26438 0.87324 0.0
O108 O 0.87711 0.2557 0.75925 0.0
C109 C 0.85489 0.25874 0.70985 0.0
Fe110 Fe 0.75139 0.61495 0.83569 0.0
Fe111 Fe 0.73377 0.58859 0.89523 0.0
O112 O 0.73856 0.60441 0.89714 0.0
Fe113 Fe 0.73046 0.60972 0.96113 0.0
O114 O 0.73388 0.62287 0.89044 0.0
O115 O 0.74231 0.61995 0.77457 0.0
O116 O 0.74881 0.60429 0.74544 0.0
C117 C 0.73925 0.59459 0.72166 0.0
C118 C 0.75389 0.62738 0.99645 0.0
O119 O 0.7313 0.58779 0.77716 0.0
C120 C 0.73083 0.59183 0.06905 0.0
O121 O 0.76129 0.61076 0.89245 0.0
O122 O 0.74935 0.59081 0.88219 0.0
O123 O 0.74388 0.61907 0.02761 0.0
O124 O 0.75632 0.62747 0.9157 0.0
C125 C 0.71152 0.58917 0.89052 0.0
O126 O 0.73602 0.58853 0.01335 0.0
O127 O 0.72565 0.59774 0.04504 0.0
C128 C 0.75978 0.60011 0.89675 0.0
O129 O 0.71733 0.58357 0.9075 0.0
O130 O 0.71669 0.60068 0.89766 0.0
C131 C 0.73707 0.62507 0.81097 0.0
Fe132 Fe 0.86156 0.61458 0.83806 0.0
Fe133 Fe 0.87833 0.61011 0.95845 0.0
O134 O 0.86465 0.60441 0.89728 0.0
Fe135 Fe 0.85398 0.58848 0.89598 0.0
O136 O 0.85566 0.58783 0.77784 0.0
O137 O 0.85336 0.60367 0.7489 0.0
O138 O 0.87538 0.62005 0.77328 0.0
C139 C 0.88597 0.62526 0.80617 0.0
C140 C 0.83883 0.59908 0.90348 0.0
O141 O 0.88756 0.62309 0.88468 0.0
C142 C 0.86048 0.59218 0.06923 0.0
O143 O 0.86923 0.6273 0.91634 0.0
O144 O 0.87435 0.61944 0.02583 0.0
O145 O 0.8403 0.59014 0.88345 0.0
O146 O 0.84767 0.6099 0.8996 0.0
C147 C 0.87702 0.5896 0.8895 0.0
O148 O 0.87154 0.5983 0.04419 0.0
O149 O 0.85184 0.58845 0.01423 0.0
C150 C 0.87218 0.6275 0.99593 0.0
O151 O 0.88313 0.60113 0.89463 0.0
O152 O 0.86568 0.58386 0.90794 0.0
C153 C 0.85401 0.59443 0.72335 0.0
Fe154 Fe 0.38795 0.26728 0.94885 0.0
Fe155 Fe 0.4092 0.26394 0.88639 0.0
O156 O 0.39336 0.25908 0.88707 0.0
Fe157 Fe 0.38295 0.24608 0.82646 0.0
O158 O 0.37794 0.25491 0.76285 0.0
O159 O 0.37501 0.26388 0.87562 0.0
O160 O 0.39714 0.28101 0.8853 0.0
C161 C 0.40865 0.28618 0.8795 0.0
C162 C 0.37021 0.24387 0.98508 0.0
O163 O 0.4142 0.28037 0.89793 0.0
C164 C 0.39783 0.23798 0.89078 0.0
O165 O 0.39973 0.27206 0.03448 0.0
O166 O 0.40912 0.26178 1.0046 0.0
O167 O 0.37028 0.24124 0.90498 0.0
O168 O 0.37843 0.25397 0.01563 0.0
C169 C 0.40332 0.25825 0.71303 0.0
O170 O 0.40707 0.24839 0.87453 0.0
O171 O 0.38717 0.23639 0.886 0.0
C172 C 0.40564 0.26691 0.05955 0.0
O173 O 0.41005 0.26631 0.7682 0.0
O174 O 0.39378 0.24858 0.73742 0.0
C175 C 0.37287 0.26037 0.7966 0.0
Fe176 Fe 0.73378 0.14497 0.9007 0.0
Fe177 Fe 0.75204 0.13699 0.84378 0.0
O178 O 0.73884 0.13415 0.90269 0.0
Fe179 Fe 0.73071 0.12053 0.96432 0.0
O180 O 0.71702 0.11585 0.89979 0.0
O181 O 0.7174 0.13341 0.91228 0.0
O182 O 0.7315 0.14328 0.78257 0.0
C183 C 0.7397 0.14476 0.72822 0.0
C184 C 0.73083 0.13855 0.0741 0.0
O185 O 0.74949 0.14521 0.75391 0.0
C186 C 0.75415 0.12648 1.0028 0.0
O187 O 0.74923 0.15852 0.88819 0.0
O188 O 0.7614 0.15091 0.90461 0.0
O189 O 0.72574 0.12748 0.04918 0.0
O190 O 0.73588 0.14716 0.01897 0.0
C191 C 0.73805 0.11258 0.81301 0.0
O192 O 0.75692 0.12927 0.923 0.0
O193 O 0.74394 0.12444 0.03224 0.0
C194 C 0.75959 0.15985 0.90791 0.0
O195 O 0.74354 0.12314 0.77962 0.0
O196 O 0.73434 0.11112 0.89159 0.0
C197 C 0.71173 0.12207 0.89362 0.0
Fe198 Fe 0.6104 0.87901 0.06193 0.0
Fe199 Fe 0.58927 0.85439 0.12516 0.0
O200 O 0.60509 0.86544 0.12404 0.0
Fe201 Fe 0.61558 0.86295 0.18445 0.0
O202 O 0.62057 0.87682 0.24763 0.0
O203 O 0.62338 0.88864 0.13462 0.0
O204 O 0.60119 0.88351 0.12565 0.0
C205 C 0.58968 0.87713 0.13143 0.0
C206 C 0.62816 0.87339 0.02515 0.0
O207 O 0.58418 0.86576 0.11342 0.0
C208 C 0.60074 0.83989 0.12127 0.0
O209 O 0.59856 0.87191 0.97674 0.0
O210 O 0.58931 0.85226 1.00696 0.0
O211 O 0.62819 0.87077 0.10534 0.0
O212 O 0.61991 0.87524 0.99493 0.0
C213 C 0.59524 0.85471 0.29843 0.0
O214 O 0.59148 0.84102 0.13737 0.0
O215 O 0.61139 0.84902 0.12538 0.0
C216 C 0.59272 0.86085 0.95186 0.0
O217 O 0.58846 0.85596 0.24332 0.0
O218 O 0.60483 0.85466 0.27395 0.0
C219 C 0.62558 0.88733 0.2136 0.0
Fe220 Fe 0.13694 0.75272 0.17439 0.0
Fe221 Fe 0.12032 0.7316 0.05264 0.0
O222 O 0.13391 0.73947 0.1151 0.0
Fe223 Fe 0.14455 0.73417 0.11741 0.0
O224 O 0.14283 0.73191 0.23551 0.0
O225 O 0.14508 0.75002 0.2641 0.0
O226 O 0.12306 0.74432 0.23833 0.0
C227 C 0.11251 0.73899 0.20467 0.0
C228 C 0.1597 0.75994 0.10959 0.0
O229 O 0.11103 0.73536 0.12584 0.0
C230 C 0.13822 0.73136 0.94355 0.0
O231 O 0.12936 0.75781 0.09574 0.0
O232 O 0.1245 0.74499 0.98561 0.0
O233 O 0.15824 0.74952 0.12962 0.0
O234 O 0.15089 0.76194 0.11352 0.0
C235 C 0.1214 0.71231 0.12268 0.0
O236 O 0.12715 0.72655 0.96767 0.0
O237 O 0.14679 0.73621 0.99912 0.0
C238 C 0.12659 0.75517 0.01581 0.0
O239 O 0.11532 0.71774 0.11553 0.0
O240 O 0.13281 0.71786 0.10633 0.0
C241 C 0.14447 0.74017 0.28983 0.0
Fe242 Fe 0.26776 0.3895 0.05499 0.0
Fe243 Fe 0.26546 0.41131 0.11978 0.0
O244 O 0.26 0.39534 0.11746 0.0
Fe245 Fe 0.24672 0.38522 0.17674 0.0
O246 O 0.255 0.37961 0.24074 0.0
O247 O 0.2639 0.37644 0.1283 0.0
O248 O 0.28165 0.39826 0.1177 0.0
C249 C 0.28721 0.40977 0.12444 0.0
C250 C 0.24414 0.37234 0.0183 0.0
O251 O 0.28174 0.41573 0.10857 0.0
C252 C 0.23971 0.40094 0.112 0.0
O253 O 0.2729 0.40138 0.96993 0.0
O254 O 0.26343 0.41154 1.0015 0.0
O255 O 0.24151 0.37252 0.09817 0.0
O256 O 0.25434 0.38038 0.98805 0.0
C257 C 0.25944 0.40527 0.29217 0.0
O258 O 0.25017 0.40982 0.13205 0.0
O259 O 0.23761 0.39008 0.11581 0.0
C260 C 0.2682 0.40774 0.94588 0.0
O261 O 0.26772 0.41183 0.23787 0.0
O262 O 0.24953 0.39609 0.26641 0.0
C263 C 0.26026 0.37431 0.20713 0.0
Fe264 Fe 0.81109 0.74326 0.4515 0.0
Fe265 Fe 0.78684 0.72206 0.38288 0.0
O266 O 0.80015 0.72742 0.44837 0.0
Fe267 Fe 0.80243 0.71686 0.50981 0.0
O268 O 0.81035 0.72743 0.60084 0.0
O269 O 0.80932 0.74392 0.56951 0.0
O270 O 0.79957 0.74816 0.4398 0.0
C271 C 0.78808 0.74242 0.45397 0.0
C272 C 0.82571 0.73186 0.45009 0.0
O273 O 0.78184 0.73093 0.44521 0.0
C274 C 0.79282 0.70454 0.34824 0.0
O275 O 0.81356 0.74354 0.33338 0.0
O276 O 0.79404 0.73413 0.29984 0.0
O277 O 0.81661 0.72119 0.45408 0.0
O278 O 0.8245 0.74112 0.46451 0.0
C279 C 0.77795 0.7066 0.53245 0.0
O280 O 0.79118 0.71288 0.31688 0.0
O281 O 0.79501 0.70439 0.4292 0.0
C282 C 0.80515 0.74022 0.27698 0.0
O283 O 0.77708 0.70882 0.45279 0.0
O284 O 0.78824 0.71174 0.56978 0.0
C285 C 0.81048 0.73711 0.62483 0.0
Fe286 Fe 0.25567 0.06827 0.46162 0.0
Fe287 Fe 0.27686 0.06485 0.39889 0.0
O288 O 0.2715 0.07309 0.46074 0.0
Fe289 Fe 0.28194 0.0861 0.52119 0.0
O290 O 0.27115 0.08361 0.61045 0.0
O291 O 0.25484 0.06589 0.57978 0.0
O292 O 0.25061 0.05183 0.44982 0.0
C293 C 0.25612 0.04597 0.46795 0.0
C294 C 0.26705 0.09422 0.45735 0.0
O295 O 0.26763 0.05112 0.46244 0.0
C296 C 0.29466 0.08824 0.36242 0.0
O297 O 0.25574 0.07044 0.34342 0.0
O298 O 0.26507 0.06011 0.31336 0.0
O299 O 0.27772 0.0958 0.4618 0.0
O300 O 0.25782 0.08382 0.47374 0.0
C301 C 0.29204 0.07181 0.55078 0.0
O302 O 0.28641 0.07814 0.33201 0.0
O303 O 0.29459 0.09091 0.44243 0.0
C304 C 0.25919 0.0653 0.28839 0.0
O305 O 0.28981 0.06822 0.47195 0.0
O306 O 0.28697 0.07727 0.58466 0.0
C307 C 0.26159 0.07394 0.63491 0.0
Fe308 Fe 0.93214 0.18733 0.44558 0.0
Fe309 Fe 0.93477 0.21149 0.37876 0.0
O310 O 0.92695 0.19806 0.44276 0.0
Fe311 Fe 0.91386 0.1953 0.50299 0.0
O312 O 0.91651 0.18715 0.59278 0.0
O313 O 0.9345 0.18916 0.5636 0.0
O314 O 0.94848 0.199 0.43378 0.0
C315 C 0.95409 0.21046 0.44849 0.0
C316 C 0.9063 0.17239 0.43951 0.0
O317 O 0.94869 0.21656 0.44073 0.0
C318 C 0.91125 0.20538 0.34406 0.0
O319 O 0.93 0.18493 0.32739 0.0
O320 O 0.9397 0.2045 0.29437 0.0
O321 O 0.90441 0.18129 0.44326 0.0
O322 O 0.91672 0.17376 0.4586 0.0
C323 C 0.92782 0.21974 0.53073 0.0
O324 O 0.92125 0.20716 0.31254 0.0
O325 O 0.90884 0.20297 0.42455 0.0
C326 C 0.93488 0.1934 0.2712 0.0
O327 O 0.9312 0.22099 0.45134 0.0
O328 O 0.92255 0.20926 0.56571 0.0
C329 C 0.9263 0.1876 0.61815 0.0
Fe330 Fe 0.07598 0.47803 0.22441 0.0
Fe331 Fe 0.0546 0.45362 0.28933 0.0
O332 O 0.06011 0.46714 0.22612 0.0
Fe333 Fe 0.04971 0.46975 0.16535 0.0
O334 O 0.06048 0.47792 0.07569 0.0
O335 O 0.07672 0.4764 0.1063 0.0
O336 O 0.08086 0.4665 0.23576 0.0
C337 C 0.07518 0.45506 0.22044 0.0
C338 C 0.06477 0.49279 0.22833 0.0
O339 O 0.06367 0.44881 0.22719 0.0
C340 C 0.03701 0.45953 0.3246 0.0
O341 O 0.07608 0.48026 0.34262 0.0
O342 O 0.06645 0.46065 0.37435 0.0
O343 O 0.05407 0.48376 0.22395 0.0
O344 O 0.07396 0.49152 0.21231 0.0
C345 C 0.03941 0.44533 0.13744 0.0
O346 O 0.04523 0.45767 0.3555 0.0
O347 O 0.03706 0.46209 0.24425 0.0
C348 C 0.07256 0.47173 0.39828 0.0
O349 O 0.04159 0.44405 0.21661 0.0
O350 O 0.04458 0.45581 0.10279 0.0
C351 C 0.07 0.47776 0.05122 0.0
Fe352 Fe 0.52079 0.59905 0.24153 0.0
Fe353 Fe 0.54476 0.60141 0.31005 0.0
O354 O 0.53136 0.59369 0.24532 0.0
Fe355 Fe 0.52853 0.58056 0.18542 0.0
O356 O 0.52071 0.58339 0.09432 0.0
O357 O 0.52269 0.60138 0.12357 0.0
O358 O 0.53263 0.61535 0.25319 0.0
C359 C 0.54408 0.62081 0.23829 0.0
C360 C 0.50554 0.57323 0.2467 0.0
O361 O 0.55007 0.6153 0.24703 0.0
C362 C 0.53824 0.5778 0.3463 0.0
O363 O 0.51828 0.59696 0.35972 0.0
O364 O 0.53783 0.60661 0.39306 0.0
O365 O 0.51436 0.57122 0.24353 0.0
O366 O 0.50708 0.58372 0.2282 0.0
C367 C 0.55305 0.59418 0.16034 0.0
O368 O 0.54018 0.58792 0.37694 0.0
O369 O 0.5358 0.57532 0.26578 0.0
C370 C 0.52674 0.60183 0.41608 0.0
O371 O 0.55416 0.59751 0.23964 0.0
O372 O 0.54268 0.5891 0.12396 0.0
C373 C 0.52116 0.59319 0.06903 0.0
Fe374 Fe 0.41838 0.94702 0.18231 0.0
Fe375 Fe 0.39982 0.92081 0.23829 0.0
O376 O 0.40514 0.93675 0.24135 0.0
Fe377 Fe 0.39728 0.94242 0.30446 0.0
O378 O 0.40106 0.95556 0.23226 0.0
O379 O 0.40998 0.95259 0.11909 0.0
O380 O 0.41567 0.93628 0.09188 0.0
C381 C 0.40583 0.92702 0.06603 0.0
C382 C 0.42084 0.95963 0.3419 0.0
O383 O 0.39758 0.92036 0.12023 0.0
C384 C 0.39699 0.92417 0.41239 0.0
O385 O 0.4276 0.94223 0.24239 0.0
O386 O 0.41517 0.92247 0.22577 0.0
O387 O 0.41066 0.9515 0.37178 0.0
O388 O 0.42348 0.95961 0.26183 0.0
C389 C 0.37798 0.92217 0.23375 0.0
O390 O 0.40186 0.9205 0.35656 0.0
O391 O 0.39217 0.93043 0.38862 0.0
C392 C 0.4256 0.93141 0.24561 0.0
O393 O 0.3835 0.91625 0.24942 0.0
O394 O 0.38346 0.93367 0.24124 0.0
C395 C 0.40466 0.95777 0.15337 0.0
Fe396 Fe 0.52088 0.92245 0.22108 0.0
Fe397 Fe 0.52918 0.94869 0.16135 0.0
O398 O 0.53182 0.93831 0.2219 0.0
Fe399 Fe 0.54542 0.94376 0.2838 0.0
O400 O 0.55001 0.93458 0.22037 0.0
O401 O 0.53234 0.9175 0.23298 0.0
O402 O 0.52244 0.92162 0.10292 0.0
C403 C 0.52109 0.92834 0.04774 0.0
C404 C 0.52737 0.92602 0.39432 0.0
O405 O 0.52091 0.93786 0.07215 0.0
C406 C 0.53968 0.96145 0.32007 0.0
O407 O 0.50742 0.92451 0.20888 0.0
O408 O 0.51524 0.94439 0.22071 0.0
O409 O 0.53843 0.93196 0.36939 0.0
O410 O 0.51876 0.92252 0.33927 0.0
C411 C 0.55357 0.95892 0.13184 0.0
O412 O 0.53695 0.96136 0.24003 0.0
O413 O 0.5416 0.95325 0.35058 0.0
C414 C 0.50619 0.9337 0.22521 0.0
O415 O 0.54305 0.95379 0.09791 0.0
O416 O 0.55494 0.95671 0.2107 0.0
C417 C 0.5437 0.92306 0.21493 0.0
Fe418 Fe 0.07748 0.5991 0.23822 0.0
Fe419 Fe 0.05128 0.58052 0.18232 0.0
O420 O 0.06154 0.59378 0.24125 0.0
Fe421 Fe 0.05587 0.60165 0.30421 0.0
O422 O 0.06461 0.61547 0.24086 0.0
O423 O 0.08202 0.61542 0.24921 0.0
O424 O 0.07792 0.60133 0.12015 0.0
C425 C 0.07127 0.59307 0.06598 0.0
C426 C 0.07411 0.60195 0.41228 0.0
O427 O 0.06201 0.58323 0.09189 0.0
C428 C 0.03867 0.57809 0.34187 0.0
O429 O 0.07583 0.58376 0.22583 0.0
O430 O 0.05608 0.57132 0.24251 0.0
O431 O 0.06786 0.60678 0.38839 0.0
O432 O 0.07778 0.59709 0.35651 0.0
C433 C 0.0405 0.59422 0.15314 0.0
O434 O 0.03869 0.57543 0.26185 0.0
O435 O 0.04679 0.58829 0.37165 0.0
C436 C 0.06691 0.57333 0.24575 0.0
O437 O 0.04569 0.58889 0.11898 0.0
O438 O 0.04273 0.59784 0.23197 0.0
C439 C 0.07611 0.62093 0.23321 0.0
Fe440 Fe 0.40108 0.4779 0.22259 0.0
Fe441 Fe 0.41896 0.46947 0.16344 0.0
O442 O 0.40608 0.46703 0.22509 0.0
Fe443 Fe 0.39821 0.45366 0.29007 0.0
O444 O 0.38427 0.44863 0.22816 0.0
O445 O 0.38469 0.46631 0.23442 0.0
O446 O 0.39863 0.47616 0.10456 0.0
C447 C 0.40663 0.47743 0.04915 0.0
C448 C 0.39826 0.47187 0.39695 0.0
O449 O 0.41625 0.47743 0.07302 0.0
C450 C 0.42174 0.45971 0.3241 0.0
O451 O 0.41658 0.49138 0.20974 0.0
O452 O 0.42874 0.48363 0.21987 0.0
O453 O 0.39333 0.46077 0.37386 0.0
O454 O 0.40328 0.48031 0.34073 0.0
C455 C 0.40488 0.44499 0.13965 0.0
O456 O 0.42408 0.46203 0.24328 0.0
O457 O 0.41175 0.458 0.35576 0.0
C458 C 0.42707 0.49266 0.22437 0.0
O459 O 0.40998 0.45532 0.10283 0.0
O460 O 0.40173 0.44401 0.21925 0.0
C461 C 0.37897 0.45483 0.22013 0.0
Fe462 Fe 0.28085 0.19559 0.50005 0.0
Fe463 Fe 0.27633 0.21215 0.37795 0.0
O464 O 0.27061 0.19861 0.441 0.0
Fe465 Fe 0.25467 0.18803 0.44402 0.0
O466 O 0.25422 0.18982 0.56209 0.0
O467 O 0.2701 0.18759 0.59046 0.0
O468 O 0.28645 0.20956 0.56328 0.0
C469 C 0.29168 0.22007 0.52904 0.0
C470 C 0.26518 0.17277 0.43672 0.0
O471 O 0.28948 0.22146 0.45015 0.0
C472 C 0.25805 0.19424 0.26995 0.0
O473 O 0.29344 0.20305 0.42054 0.0
O474 O 0.28537 0.20781 0.31059 0.0
O475 O 0.25627 0.1743 0.45644 0.0
O476 O 0.27602 0.18157 0.43997 0.0
C477 C 0.25612 0.21127 0.44896 0.0
O478 O 0.26433 0.20532 0.29379 0.0
O479 O 0.25436 0.1857 0.32574 0.0
C480 C 0.29347 0.20571 0.34046 0.0
O481 O 0.26762 0.21728 0.44123 0.0
O482 O 0.25018 0.19985 0.43302 0.0
C483 C 0.26086 0.1882 0.6163 0.0
Fe484 Fe 0.80273 0.0858 0.51947 0.0
Fe485 Fe 0.7867 0.06479 0.39521 0.0
O486 O 0.80019 0.07282 0.45863 0.0
Fe487 Fe 0.81113 0.0679 0.46048 0.0
O488 O 0.80949 0.06553 0.57859 0.0
O489 O 0.81091 0.08324 0.60923 0.0
O490 O 0.78878 0.07692 0.5818 0.0
C491 C 0.77831 0.07158 0.54696 0.0
C492 C 0.82579 0.09388 0.45675 0.0
O493 O 0.77708 0.06818 0.46769 0.0
C494 C 0.80486 0.06499 0.28655 0.0
O495 O 0.79505 0.09076 0.44041 0.0
O496 O 0.79075 0.07821 0.32906 0.0
O497 O 0.82457 0.08343 0.47258 0.0
O498 O 0.81673 0.0955 0.46111 0.0
C499 C 0.78818 0.04569 0.46432 0.0
O500 O 0.79377 0.06 0.31038 0.0
O501 O 0.81337 0.07003 0.34227 0.0
C502 C 0.79255 0.08826 0.35997 0.0
O503 O 0.78192 0.05093 0.45738 0.0
O504 O 0.79963 0.05147 0.44916 0.0
C505 C 0.81081 0.07359 0.63368 0.0
Fe506 Fe 0.93411 0.72189 0.38454 0.0
Fe507 Fe 0.93164 0.74359 0.44967 0.0
O508 O 0.92628 0.72764 0.44713 0.0
Fe509 Fe 0.91301 0.71745 0.50627 0.0
O510 O 0.92134 0.71187 0.57002 0.0
O511 O 0.93029 0.7088 0.45745 0.0
O512 O 0.94797 0.73068 0.44753 0.0
C513 C 0.95345 0.74219 0.45467 0.0
C514 C 0.91053 0.70467 0.34743 0.0
O515 O 0.94794 0.74809 0.43856 0.0
C516 C 0.90588 0.7331 0.44203 0.0
O517 O 0.93922 0.73381 0.29978 0.0
O518 O 0.92961 0.74383 0.33138 0.0
O519 O 0.90787 0.70479 0.42732 0.0
O520 O 0.92072 0.71275 0.31738 0.0
C521 C 0.92563 0.73749 0.62202 0.0
O522 O 0.91632 0.74201 0.46198 0.0
O523 O 0.90383 0.72226 0.44562 0.0
C524 C 0.93444 0.7401 0.27574 0.0
O525 O 0.93389 0.74409 0.56776 0.0
O526 O 0.91575 0.72826 0.59623 0.0
C527 C 0.92663 0.70661 0.53619 0.0
Fe528 Fe 0.47729 0.07541 0.79514 0.0
Fe529 Fe 0.45271 0.05407 0.73306 0.0
O530 O 0.46634 0.05956 0.79471 0.0
Fe531 Fe 0.46901 0.0492 0.85545 0.0
O532 O 0.47733 0.06007 0.94427 0.0
O533 O 0.47578 0.07629 0.91333 0.0
O534 O 0.46581 0.08035 0.78347 0.0
C535 C 0.45446 0.07479 0.80182 0.0
C536 C 0.49195 0.06413 0.79079 0.0
O537 O 0.44815 0.06327 0.79639 0.0
C538 C 0.45849 0.03639 0.69707 0.0
O539 O 0.47934 0.0753 0.67694 0.0
O540 O 0.45967 0.06583 0.64717 0.0
O541 O 0.4829 0.05345 0.79575 0.0
O542 O 0.49075 0.07335 0.80702 0.0
C543 C 0.44464 0.03902 0.88556 0.0
O544 O 0.45653 0.04456 0.66643 0.0
O545 O 0.4612 0.03649 0.77717 0.0
C546 C 0.47072 0.07178 0.62204 0.0
O547 O 0.44323 0.04115 0.80657 0.0
O548 O 0.45518 0.04417 0.9192 0.0
C549 C 0.47715 0.06959 0.96857 0.0
Fe550 Fe 0.9213 0.40035 0.78147 0.0
Fe551 Fe 0.94281 0.39749 0.71844 0.0
O552 O 0.93721 0.40555 0.77972 0.0
Fe553 Fe 0.94747 0.41881 0.83853 0.0
O554 O 0.93664 0.41617 0.92817 0.0
O555 O 0.92071 0.39807 0.89961 0.0
O556 O 0.91661 0.384 0.76982 0.0
C557 C 0.92233 0.37839 0.78847 0.0
C558 C 0.93201 0.42612 0.77378 0.0
O559 O 0.93385 0.38377 0.78286 0.0
C560 C 0.96021 0.42098 0.67996 0.0
O561 O 0.92122 0.40243 0.6632 0.0
O562 O 0.93093 0.39245 0.63323 0.0
O563 O 0.9428 0.42805 0.77723 0.0
O564 O 0.92304 0.41573 0.79391 0.0
C565 C 0.95808 0.40499 0.87006 0.0
O566 O 0.95211 0.41074 0.65055 0.0
O567 O 0.96011 0.42377 0.75959 0.0
C568 C 0.92488 0.39746 0.60817 0.0
O569 O 0.95585 0.40122 0.79159 0.0
O570 O 0.95293 0.41044 0.9031 0.0
C571 C 0.92737 0.40632 0.95393 0.0
Fe572 Fe 0.59756 0.52064 0.79317 0.0
Fe573 Fe 0.60075 0.54508 0.72845 0.0
O574 O 0.5927 0.53161 0.7919 0.0
Fe575 Fe 0.57984 0.52919 0.85357 0.0
O576 O 0.58246 0.52105 0.94319 0.0
O577 O 0.60005 0.52227 0.91126 0.0
O578 O 0.61397 0.5321 0.78081 0.0
C579 C 0.61977 0.54349 0.79805 0.0
C580 C 0.57159 0.50605 0.79116 0.0
O581 O 0.61457 0.54981 0.79153 0.0
C582 C 0.57729 0.53929 0.69376 0.0
O583 O 0.59531 0.51839 0.67504 0.0
O584 O 0.60556 0.53799 0.64378 0.0
O585 O 0.57 0.51514 0.79609 0.0
O586 O 0.58203 0.50723 0.80603 0.0
C587 C 0.59406 0.55361 0.87947 0.0
O588 O 0.58731 0.54105 0.66228 0.0
O589 O 0.57485 0.53682 0.77434 0.0
C590 C 0.60044 0.52691 0.61953 0.0
O591 O 0.5973 0.55471 0.80005 0.0
O592 O 0.58886 0.54322 0.91534 0.0
C593 C 0.59208 0.52102 0.96686 0.0
Fe594 Fe 0.71804 0.80432 0.50976 0.0
Fe595 Fe 0.74417 0.81181 0.56657 0.0
O596 O 0.72822 0.80123 0.56893 0.0
Fe597 Fe 0.72246 0.78763 0.63133 0.0
O598 O 0.70941 0.77837 0.55812 0.0
O599 O 0.71249 0.79043 0.44575 0.0
O600 O 0.72888 0.81242 0.42001 0.0
C601 C 0.73809 0.81176 0.39421 0.0
C602 C 0.70521 0.79396 0.6683 0.0
O603 O 0.74469 0.81008 0.44848 0.0
C604 C 0.74064 0.80549 0.74044 0.0
O605 O 0.72283 0.81828 0.5707 0.0
O606 O 0.74258 0.82555 0.55438 0.0
O607 O 0.71329 0.79185 0.69843 0.0
O608 O 0.70536 0.79677 0.58845 0.0
C609 C 0.74279 0.78862 0.5614 0.0
O610 O 0.74439 0.81406 0.68487 0.0
O611 O 0.73435 0.79442 0.7163 0.0
C612 C 0.73367 0.82707 0.57451 0.0
O613 O 0.74869 0.80002 0.57765 0.0
O614 O 0.73128 0.78259 0.56838 0.0
C615 C 0.70724 0.77987 0.47935 0.0
Fe616 Fe 0.18714 0.93178 0.55947 0.0
Fe617 Fe 0.21174 0.93524 0.6229 0.0
O618 O 0.19818 0.92699 0.56074 0.0
Fe619 Fe 0.19568 0.91399 0.50044 0.0
O620 O 0.18741 0.91646 0.41081 0.0
O621 O 0.18872 0.93414 0.44131 0.0
O622 O 0.19853 0.94824 0.57114 0.0
C623 C 0.20989 0.95408 0.55313 0.0
C624 C 0.17262 0.9058 0.56339 0.0
O625 O 0.21625 0.94893 0.55905 0.0
C626 C 0.20611 0.91186 0.65988 0.0
O627 O 0.18501 0.92961 0.67767 0.0
O628 O 0.20465 0.94 0.70795 0.0
O629 O 0.18174 0.90427 0.55943 0.0
O630 O 0.17376 0.9162 0.54727 0.0
C631 C 0.22007 0.92835 0.47142 0.0
O632 O 0.20796 0.92197 0.69001 0.0
O633 O 0.20348 0.9092 0.5797 0.0
C634 C 0.19358 0.93479 0.7328 0.0
O635 O 0.22137 0.93187 0.55037 0.0
O636 O 0.20956 0.92286 0.43732 0.0
C637 C 0.18747 0.9261 0.38626 0.0
Fe638 Fe 0.08559 0.2828 0.50225 0.0
Fe639 Fe 0.06777 0.25646 0.5607 0.0
O640 O 0.07261 0.2723 0.56276 0.0
Fe641 Fe 0.0645 0.27767 0.62611 0.0
O642 O 0.06787 0.2907 0.55388 0.0
O643 O 0.07669 0.28784 0.43989 0.0
O644 O 0.0831 0.27211 0.41224 0.0
C645 C 0.07348 0.26253 0.38762 0.0
C646 C 0.08794 0.29532 0.66212 0.0
O647 O 0.06544 0.25575 0.44257 0.0
C648 C 0.06479 0.25976 0.7346 0.0
O649 O 0.09531 0.27854 0.56063 0.0
O650 O 0.08333 0.25863 0.54874 0.0
O651 O 0.07787 0.28706 0.69265 0.0
O652 O 0.09047 0.29539 0.58165 0.0
C653 C 0.04552 0.25709 0.55609 0.0
O654 O 0.06988 0.25633 0.67893 0.0
O655 O 0.05972 0.26578 0.71067 0.0
C656 C 0.09375 0.26787 0.56477 0.0
O657 O 0.05133 0.25146 0.57171 0.0
O658 O 0.0507 0.26858 0.56348 0.0
C659 C 0.07127 0.29289 0.47462 0.0
Fe660 Fe 0.18785 0.25616 0.56624 0.0
Fe661 Fe 0.19534 0.28228 0.50934 0.0
O662 O 0.19844 0.27211 0.56852 0.0
Fe663 Fe 0.21205 0.27787 0.63084 0.0
O664 O 0.21708 0.26904 0.56787 0.0
O665 O 0.19962 0.25164 0.57731 0.0
O666 O 0.18956 0.25562 0.44814 0.0
C667 C 0.18789 0.26222 0.39385 0.0
C668 C 0.19419 0.2597 0.74007 0.0
O669 O 0.18723 0.27143 0.41963 0.0
C670 C 0.2057 0.29512 0.66783 0.0
O671 O 0.17412 0.25775 0.55405 0.0
O672 O 0.18139 0.2775 0.57032 0.0
O673 O 0.20526 0.26599 0.71587 0.0
O674 O 0.18561 0.25595 0.68455 0.0
C675 C 0.21978 0.29308 0.47881 0.0
O676 O 0.20289 0.29496 0.58798 0.0
O677 O 0.20784 0.28705 0.69795 0.0
C678 C 0.1726 0.26665 0.57417 0.0
O679 O 0.20922 0.28782 0.44528 0.0
O680 O 0.22129 0.29092 0.55756 0.0
C681 C 0.21102 0.25752 0.56073 0.0
Fe682 Fe 0.72207 0.93485 0.6296 0.0
Fe683 Fe 0.74337 0.93178 0.56365 0.0
O684 O 0.72751 0.92683 0.56594 0.0
Fe685 Fe 0.71704 0.91383 0.5054 0.0
O686 O 0.71189 0.92266 0.44335 0.0
O687 O 0.709 0.93141 0.55763 0.0
O688 O 0.73106 0.94868 0.5671 0.0
C689 C 0.74257 0.95396 0.55991 0.0
C690 C 0.70452 0.91138 0.66548 0.0
O691 O 0.74827 0.94821 0.57493 0.0
C692 C 0.73211 0.9058 0.56729 0.0
O693 O 0.73399 0.9397 0.71397 0.0
O694 O 0.74354 0.92966 0.68186 0.0
O695 O 0.70446 0.90886 0.58499 0.0
O696 O 0.71277 0.92145 0.69605 0.0
C697 C 0.73728 0.92606 0.39059 0.0
O698 O 0.74131 0.91625 0.55141 0.0
O699 O 0.72142 0.90416 0.56345 0.0
C700 C 0.74008 0.9347 0.73768 0.0
O701 O 0.74404 0.93412 0.44556 0.0
O702 O 0.72773 0.9164 0.4152 0.0
C703 C 0.70679 0.92802 0.47837 0.0
Fe704 Fe 0.06443 0.78732 0.62773 0.0
Fe705 Fe 0.0668 0.81146 0.56285 0.0
O706 O 0.07222 0.80092 0.56523 0.0
Fe707 Fe 0.0855 0.80405 0.50599 0.0
O708 O 0.07718 0.79014 0.44206 0.0
O709 O 0.06828 0.7781 0.55457 0.0
O710 O 0.05056 0.78221 0.56489 0.0
C711 C 0.04504 0.7882 0.55785 0.0
C712 C 0.08804 0.79376 0.66459 0.0
O713 O 0.05051 0.79962 0.57392 0.0
C714 C 0.09255 0.82679 0.57066 0.0
O715 O 0.0593 0.79408 0.71267 0.0
O716 O 0.06882 0.81372 0.68115 0.0
O717 O 0.09067 0.79654 0.58468 0.0
O718 O 0.07784 0.79161 0.69476 0.0
C719 C 0.07283 0.81143 0.39047 0.0
O720 O 0.0821 0.82523 0.55066 0.0
O721 O 0.09464 0.81802 0.56684 0.0
C722 C 0.06403 0.80515 0.73675 0.0
O723 O 0.06455 0.80972 0.44476 0.0
O724 O 0.08272 0.81212 0.41624 0.0
C725 C 0.07191 0.77959 0.47573 0.0
Fe726 Fe 0.94421 0.54593 0.73279 0.0
Fe727 Fe 0.92288 0.52137 0.79506 0.0
O728 O 0.93873 0.53231 0.79456 0.0
Fe729 Fe 0.94908 0.52965 0.85532 0.0
O730 O 0.95413 0.5435 0.91896 0.0
O731 O 0.95714 0.55542 0.80625 0.0
O732 O 0.93502 0.55052 0.79601 0.0
C733 C 0.92351 0.54421 0.80132 0.0
C734 C 0.96189 0.54015 0.6969 0.0
O735 O 0.91794 0.53285 0.78321 0.0
C736 C 0.93414 0.50668 0.79101 0.0
O737 O 0.93245 0.53896 0.64694 0.0
O738 O 0.92297 0.51929 0.67687 0.0
O739 O 0.96179 0.53744 0.77701 0.0
O740 O 0.95372 0.5421 0.66623 0.0
C741 C 0.9287 0.52154 0.96849 0.0
O742 O 0.92493 0.5079 0.80714 0.0
O743 O 0.94482 0.51574 0.79576 0.0
C744 C 0.9265 0.5279 0.62191 0.0
O745 O 0.92201 0.52291 0.91323 0.0
O746 O 0.93822 0.52135 0.94421 0.0
C747 C 0.95927 0.55403 0.88525 0.0
Fe748 Fe 0.45387 0.39695 0.70859 0.0
Fe749 Fe 0.4781 0.39971 0.77425 0.0
O750 O 0.46737 0.40489 0.77177 0.0
Fe751 Fe 0.47015 0.41799 0.83173 0.0
O752 O 0.45612 0.40938 0.89433 0.0
O753 O 0.44446 0.40073 0.77988 0.0
O754 O 0.44892 0.38316 0.7726 0.0
C755 C 0.45506 0.37778 0.77942 0.0
C756 C 0.46007 0.42049 0.67177 0.0
O757 O 0.46643 0.38338 0.76185 0.0
C758 C 0.49311 0.42553 0.76908 0.0
O759 O 0.46083 0.3919 0.62456 0.0
O760 O 0.48045 0.4019 0.65608 0.0
O761 O 0.46267 0.42306 0.75203 0.0
O762 O 0.45809 0.41035 0.64132 0.0
C763 C 0.47777 0.40548 0.94704 0.0
O764 O 0.49169 0.4151 0.78772 0.0
O765 O 0.48421 0.42742 0.77261 0.0
C766 C 0.47191 0.39689 0.60042 0.0
O767 O 0.47629 0.39732 0.89228 0.0
O768 O 0.47817 0.41526 0.922 0.0
C769 C 0.44569 0.40417 0.85893 0.0
Fe770 Fe 0.57993 0.0509 0.83513 0.0
Fe771 Fe 0.60133 0.05574 0.71528 0.0
O772 O 0.59318 0.06124 0.77658 0.0
Fe773 Fe 0.59828 0.07713 0.77858 0.0
O774 O 0.60053 0.0777 0.89673 0.0
O775 O 0.5825 0.06167 0.92506 0.0
O776 O 0.58835 0.04548 0.89957 0.0
C777 C 0.59383 0.04039 0.8664 0.0
C778 C 0.5725 0.0663 0.77076 0.0
O779 O 0.59764 0.04269 0.78805 0.0
C780 C 0.60125 0.07363 0.60528 0.0
O781 O 0.57506 0.03832 0.75583 0.0
O782 O 0.58812 0.04642 0.64706 0.0
O783 O 0.58287 0.07529 0.79094 0.0
O784 O 0.57064 0.05552 0.77397 0.0
C785 C 0.6203 0.07625 0.78621 0.0
O786 O 0.60634 0.06766 0.63039 0.0
O787 O 0.59621 0.07722 0.66029 0.0
C788 C 0.5779 0.03826 0.67624 0.0
O789 O 0.615 0.06474 0.78012 0.0
O790 O 0.61465 0.08192 0.76716 0.0
C791 C 0.59231 0.07098 0.95095 0.0
H792 H 0.11026 0.36747 0.3811 0.0
H793 H 0.09099 0.3556 0.13446 0.0
H794 H 0.09648 0.34742 0.44395 0.0
H795 H 0.0772 0.33554 0.19771 0.0
H796 H 0.06882 0.31131 0.54909 0.0
H797 H 0.07517 0.3314 0.48589 0.0
H798 H 0.08236 0.31942 0.23929 0.0
H799 H 0.07602 0.29935 0.3021 0.0
C800 C 0.10287 0.3607 0.34101 0.0
C801 C 0.10185 0.36309 0.25243 0.0
C802 C 0.09493 0.34922 0.37718 0.0
C803 C 0.08584 0.33985 0.32539 0.0
C804 C 0.0842 0.34254 0.23885 0.0
C805 C 0.09207 0.35407 0.20287 0.0
C806 C 0.0714 0.31283 0.48061 0.0
C807 C 0.07208 0.30378 0.43093 0.0
C808 C 0.07511 0.32437 0.44467 0.0
C809 C 0.0794 0.32704 0.35804 0.0
C810 C 0.07904 0.31764 0.30613 0.0
C811 C 0.07545 0.30614 0.34227 0.0
H812 H 0.70081 0.77864 0.30698 0.0
H813 H 0.68861 0.759 0.552 0.0
H814 H 0.68076 0.76508 0.24295 0.0
H815 H 0.66855 0.74546 0.48765 0.0
H816 H 0.64475 0.73697 0.13556 0.0
H817 H 0.66484 0.74365 0.19981 0.0
H818 H 0.65247 0.75076 0.44494 0.0
H819 H 0.63239 0.74411 0.381 0.0
C820 C 0.69396 0.77123 0.34647 0.0
C821 C 0.69628 0.77001 0.43489 0.0
C822 C 0.68249 0.76342 0.30965 0.0
C823 C 0.67304 0.75429 0.36065 0.0
C824 C 0.67562 0.7525 0.44713 0.0
C825 C 0.68715 0.76022 0.48371 0.0
C826 C 0.64618 0.73962 0.20393 0.0
C827 C 0.637 0.74015 0.2529 0.0
C828 C 0.65773 0.74352 0.24045 0.0
C829 C 0.66027 0.74785 0.32702 0.0
C830 C 0.65078 0.74741 0.37817 0.0
C831 C 0.63928 0.74364 0.3414 0.0
H832 H 0.22159 0.92327 0.29928 0.0
H833 H 0.24109 0.93109 0.54519 0.0
H834 H 0.23536 0.91695 0.23674 0.0
H835 H 0.25485 0.92476 0.4823 0.0
H836 H 0.25599 0.88961 0.37999 0.0
H837 H 0.24961 0.90335 0.44199 0.0
H838 H 0.25674 0.92232 0.1946 0.0
H839 H 0.26314 0.90858 0.13225 0.0
C840 C 0.22902 0.92397 0.33924 0.0
C841 C 0.23012 0.92752 0.42755 0.0
C842 C 0.23696 0.92041 0.30326 0.0
C843 C 0.2461 0.92023 0.35501 0.0
C844 C 0.2478 0.92468 0.44122 0.0
C845 C 0.23995 0.92837 0.47697 0.0
C846 C 0.25653 0.89692 0.33948 0.0
C847 C 0.25991 0.89787 0.25087 0.0
C848 C 0.25293 0.90485 0.37514 0.0
C849 C 0.25254 0.91383 0.32277 0.0
C850 C 0.25682 0.9154 0.23616 0.0
C851 C 0.26056 0.90756 0.20071 0.0
H852 H 0.35495 0.09129 0.88964 0.0
H853 H 0.36686 0.111 0.64467 0.0
H854 H 0.3348 0.07781 0.82649 0.0
H855 H 0.34671 0.09749 0.58181 0.0
H856 H 0.29861 0.07683 0.72307 0.0
H857 H 0.31874 0.0833 0.78562 0.0
H858 H 0.33067 0.07601 0.53923 0.0
H859 H 0.31053 0.06949 0.47641 0.0
C860 C 0.35341 0.09254 0.82157 0.0
C861 C 0.36248 0.10233 0.77246 0.0
C862 C 0.34182 0.08485 0.78569 0.0
C863 C 0.33914 0.08667 0.69961 0.0
C864 C 0.34852 0.0958 0.64821 0.0
C865 C 0.36006 0.10358 0.68436 0.0
C866 C 0.30541 0.07627 0.68293 0.0
C867 C 0.303 0.07279 0.59448 0.0
C868 C 0.31693 0.07994 0.71888 0.0
C869 C 0.32632 0.08029 0.66695 0.0
C870 C 0.32364 0.07595 0.58047 0.0
C871 C 0.31206 0.07214 0.54476 0.0
H872 H 0.90829 0.26315 0.86867 0.0
H873 H 0.88922 0.25612 0.62139 0.0
H874 H 0.92177 0.25644 0.80622 0.0
H875 H 0.9027 0.24941 0.55929 0.0
H876 H 0.92268 0.22132 0.70272 0.0
H877 H 0.91632 0.23509 0.76468 0.0
H878 H 0.9239 0.25434 0.51819 0.0
H879 H 0.93026 0.24057 0.45586 0.0
C880 C 0.90719 0.26053 0.80025 0.0
C881 C 0.89756 0.26003 0.75026 0.0
C882 C 0.91488 0.25661 0.76476 0.0
C883 C 0.9132 0.25227 0.67827 0.0
C884 C 0.90427 0.25277 0.62605 0.0
C885 C 0.89651 0.25657 0.66175 0.0
C886 C 0.92331 0.22869 0.6624 0.0
C887 C 0.92683 0.22973 0.57406 0.0
C888 C 0.91972 0.23663 0.69804 0.0
C889 C 0.91949 0.24572 0.64593 0.0
C890 C 0.92387 0.24733 0.55956 0.0
C891 C 0.92758 0.23948 0.52413 0.0
H892 H 0.74732 0.64706 0.89014 0.0
H893 H 0.73156 0.62905 0.6452 0.0
H894 H 0.75461 0.6668 0.82252 0.0
H895 H 0.73767 0.64884 0.57781 0.0
H896 H 0.76657 0.6846 0.45324 0.0
H897 H 0.75405 0.66483 0.52038 0.0
H898 H 0.75425 0.68273 0.76351 0.0
H899 H 0.76802 0.70255 0.69683 0.0
C900 C 0.74498 0.64737 0.82222 0.0
C901 C 0.73892 0.63658 0.77263 0.0
C902 C 0.7491 0.65876 0.78301 0.0
C903 C 0.74695 0.65968 0.69345 0.0
C904 C 0.73997 0.6487 0.64586 0.0
C905 C 0.73626 0.63729 0.68453 0.0
C906 C 0.76374 0.68427 0.52068 0.0
C907 C 0.76825 0.69505 0.57012 0.0
C908 C 0.75642 0.67286 0.5596 0.0
C909 C 0.7531 0.67192 0.64864 0.0
C910 C 0.7569 0.68289 0.69592 0.0
C911 C 0.76464 0.69432 0.65764 0.0
H912 H 0.88703 0.63172 0.63397 0.0
H913 H 0.90691 0.6439 0.87811 0.0
H914 H 0.90049 0.65179 0.56992 0.0
H915 H 0.92035 0.66398 0.81377 0.0
H916 H 0.92151 0.70014 0.70857 0.0
H917 H 0.9149 0.68003 0.77203 0.0
H918 H 0.92193 0.66775 0.52622 0.0
H919 H 0.92859 0.68787 0.46247 0.0
C920 C 0.89447 0.63856 0.67323 0.0
C921 C 0.89578 0.63623 0.76144 0.0
C922 C 0.90223 0.65005 0.6364 0.0
C923 C 0.91139 0.6595 0.68721 0.0
C924 C 0.91328 0.65691 0.77341 0.0
C925 C 0.90561 0.64536 0.80998 0.0
C926 C 0.92197 0.69326 0.66871 0.0
C927 C 0.92544 0.69558 0.5802 0.0
C928 C 0.91823 0.68175 0.7052 0.0
C929 C 0.91778 0.67228 0.65374 0.0
C930 C 0.92207 0.67485 0.5671 0.0
C931 C 0.92596 0.68641 0.53086 0.0
H932 H 0.36641 0.25533 0.62418 0.0
H933 H 0.35446 0.26294 0.86963 0.0
H934 H 0.34636 0.24896 0.56077 0.0
H935 H 0.3344 0.25655 0.8059 0.0
H936 H 0.31026 0.24085 0.45505 0.0
H937 H 0.33037 0.25443 0.51836 0.0
H938 H 0.31832 0.23509 0.76427 0.0
H939 H 0.29822 0.2215 0.70129 0.0
C940 C 0.35963 0.25597 0.66386 0.0
C941 C 0.36199 0.25948 0.75227 0.0
C942 C 0.34815 0.25237 0.62739 0.0
C943 C 0.33876 0.25212 0.67877 0.0
C944 C 0.34142 0.25653 0.76512 0.0
C945 C 0.35295 0.26026 0.80134 0.0
C946 C 0.31176 0.2397 0.52339 0.0
C947 C 0.30267 0.22997 0.57285 0.0
C948 C 0.32333 0.24745 0.55938 0.0
C949 C 0.32596 0.24574 0.64588 0.0
C950 C 0.31655 0.23669 0.69754 0.0
C951 C 0.30504 0.22885 0.66131 0.0
H952 H 0.73523 0.09146 0.88552 0.0
H953 H 0.74342 0.11133 0.64106 0.0
H954 H 0.74155 0.07772 0.82197 0.0
H955 H 0.74971 0.09758 0.57785 0.0
H956 H 0.75768 0.06955 0.47163 0.0
H957 H 0.74411 0.07614 0.53438 0.0
H958 H 0.76296 0.08285 0.78197 0.0
H959 H 0.77654 0.07629 0.71955 0.0
C960 C 0.73803 0.0927 0.81748 0.0
C961 C 0.73898 0.10261 0.76867 0.0
C962 C 0.74172 0.08485 0.78135 0.0
C963 C 0.74625 0.08665 0.69534 0.0
C964 C 0.74619 0.09591 0.64419 0.0
C965 C 0.74264 0.10383 0.68056 0.0
C966 C 0.75871 0.07208 0.54021 0.0
C967 C 0.76831 0.07255 0.59033 0.0
C968 C 0.75097 0.07593 0.57588 0.0
C969 C 0.75256 0.08015 0.66269 0.0
C970 C 0.76145 0.07959 0.71497 0.0
C971 C 0.76928 0.07588 0.67908 0.0
H972 H 0.63214 0.88884 0.38584 0.0
H973 H 0.64389 0.90835 0.14003 0.0
H974 H 0.65221 0.90258 0.44864 0.0
H975 H 0.66398 0.92209 0.20318 0.0
H976 H 0.70023 0.92322 0.30599 0.0
H977 H 0.68012 0.91684 0.24375 0.0
H978 H 0.66822 0.92394 0.49099 0.0
H979 H 0.68835 0.93034 0.55359 0.0
C980 C 0.63888 0.89627 0.34596 0.0
C981 C 0.63646 0.89738 0.25759 0.0
C982 C 0.65038 0.90419 0.38208 0.0
C983 C 0.65972 0.91333 0.33044 0.0
C984 C 0.65699 0.91504 0.24418 0.0
C985 C 0.64545 0.9072 0.20828 0.0
C986 C 0.69344 0.92375 0.34643 0.0
C987 C 0.69585 0.92713 0.43507 0.0
C988 C 0.68192 0.92015 0.31062 0.0
C989 C 0.67254 0.91976 0.36287 0.0
C990 C 0.67524 0.92403 0.44952 0.0
C991 C 0.68681 0.92777 0.48512 0.0
H992 H 0.11122 0.74409 0.37718 0.0
H993 H 0.0917 0.73687 0.13177 0.0
H994 H 0.09772 0.75064 0.44119 0.0
H995 H 0.07821 0.74345 0.19611 0.0
H996 H 0.06975 0.75875 0.54836 0.0
H997 H 0.07631 0.74525 0.48396 0.0
H998 H 0.08364 0.76486 0.23923 0.0
H999 H 0.0771 0.77837 0.30331 0.0
C1000 C 0.10385 0.74358 0.3376 0.0
C1001 C 0.10265 0.7401 0.24908 0.0
C1002 C 0.09607 0.74729 0.37441 0.0
C1003 C 0.08699 0.74768 0.3233 0.0
C1004 C 0.08521 0.74336 0.23672 0.0
C1005 C 0.0929 0.73951 0.20014 0.0
C1006 C 0.07242 0.75998 0.48005 0.0
C1007 C 0.07305 0.76975 0.43124 0.0
C1008 C 0.07625 0.75228 0.44344 0.0
C1009 C 0.08061 0.75408 0.35694 0.0
C1010 C 0.08026 0.76319 0.30595 0.0
C1011 C 0.07657 0.77098 0.3428 0.0
H1012 H 0.24054 0.31184 0.55161 0.0
H1013 H 0.22101 0.29944 0.30629 0.0
H1014 H 0.25397 0.33192 0.48715 0.0
H1015 H 0.23446 0.31951 0.24215 0.0
H1016 H 0.26241 0.35561 0.13468 0.0
H1017 H 0.25584 0.33555 0.19924 0.0
H1018 H 0.24851 0.34787 0.4438 0.0
H1019 H 0.25505 0.36791 0.37956 0.0
C1020 C 0.23933 0.31326 0.48323 0.0
C1021 C 0.2296 0.30407 0.43434 0.0
C1022 C 0.24698 0.3248 0.44659 0.0
C1023 C 0.24519 0.32733 0.35998 0.0
C1024 C 0.23612 0.31783 0.30894 0.0
C1025 C 0.22838 0.30634 0.34583 0.0
C1026 C 0.25973 0.35417 0.20298 0.0
C1027 C 0.2591 0.36333 0.2517 0.0
C1028 C 0.25589 0.34264 0.23969 0.0
C1029 C 0.25154 0.34009 0.3262 0.0
C1030 C 0.25188 0.34956 0.37709 0.0
C1031 C 0.25558 0.36104 0.34014 0.0
H1032 H 0.97646 0.40226 0.79824 0.0
H1033 H 0.96468 0.41053 0.04191 0.0
H1034 H 0.99652 0.40867 0.86219 0.0
H1035 H 0.98473 0.41692 0.10553 0.0
H1036 H 0.02069 0.42478 0.21279 0.0
H1037 H 0.00052 0.4113 0.14985 0.0
H1038 H 0.01281 0.43009 0.90217 0.0
H1039 H 0.03297 0.44359 0.9648 0.0
C1040 C 0.97801 0.4051 0.8662 0.0
C1041 C 0.96901 0.40603 0.91467 0.0
C1042 C 0.98954 0.40885 0.90255 0.0
C1043 C 0.99224 0.41342 0.98847 0.0
C1044 C 0.98291 0.41337 0.03927 0.0
C1045 C 0.97143 0.40976 1.00267 0.0
C1046 C 0.01922 0.42582 0.14416 0.0
C1047 C 0.0284 0.43538 0.09405 0.0
C1048 C 0.00763 0.41813 0.10838 0.0
C1049 C 0.00504 0.41972 0.02146 0.0
C1050 C 0.01453 0.42858 0.96925 0.0
C1051 C 0.02608 0.43636 1.00525 0.0
H1052 H 0.56416 0.58323 0.23853 0.0
H1053 H 0.56287 0.59996 0.99561 0.0
H1054 H 0.5766 0.57591 0.1709 0.0
H1055 H 0.57654 0.59381 0.92847 0.0
H1056 H 0.58376 0.56534 0.80069 0.0
H1057 H 0.57629 0.57761 0.8688 0.0
H1058 H 0.59306 0.57641 0.11383 0.0
H1059 H 0.59935 0.56291 0.04588 0.0
C1060 C 0.56701 0.58575 0.1711 0.0
C1061 C 0.56258 0.59212 0.12202 0.0
C1062 C 0.57427 0.58162 0.13193 0.0
C1063 C 0.57764 0.58407 0.04299 0.0
C1064 C 0.57388 0.59129 0.99597 0.0
C1065 C 0.56618 0.59502 0.03452 0.0
C1066 C 0.58602 0.56791 0.8688 0.0
C1067 C 0.5921 0.56319 0.91827 0.0
C1068 C 0.58179 0.57507 0.9083 0.0
C1069 C 0.58384 0.57804 0.99806 0.0
C1070 C 0.59083 0.57404 0.0456 0.0
C1071 C 0.59465 0.56645 1.00662 0.0
H1072 H 0.44327 0.03263 0.05808 0.0
H1073 H 0.42382 0.02038 0.81234 0.0
H1074 H 0.42983 0.01252 0.1215 0.0
H1075 H 0.4104 0.00025 0.87609 0.0
H1076 H 0.40982 0.96437 0.98123 0.0
H1077 H 0.41609 0.98442 0.91815 0.0
H1078 H 0.4085 0.99628 0.16375 0.0
H1079 H 0.40219 0.97622 0.22716 0.0
C1080 C 0.43591 0.02577 0.01834 0.0
C1081 C 0.43473 0.02808 0.92986 0.0
C1082 C 0.42817 0.01424 0.05481 0.0
C1083 C 0.41916 0.00476 1.00337 0.0
C1084 C 0.41736 0.00735 0.91693 0.0
C1085 C 0.42501 0.01892 0.8807 0.0
C1086 C 0.40917 0.97114 0.02113 0.0
C1087 C 0.40566 0.96873 0.10952 0.0
C1088 C 0.41271 0.98262 0.98484 0.0
C1089 C 0.41291 0.99197 0.03637 0.0
C1090 C 0.40855 0.98929 0.12283 0.0
C1091 C 0.40488 0.97776 0.15888 0.0
H1092 H 0.57423 0.97757 0.20651 0.0
H1093 H 0.55511 0.96545 0.95948 0.0
H1094 H 0.58767 0.99776 0.14383 0.0
H1095 H 0.56859 0.98564 0.89705 0.0
H1096 H 0.58833 0.03369 0.03812 0.0
H1097 H 0.58193 0.01359 0.10095 0.0
H1098 H 0.59008 0.00192 0.85665 0.0
H1099 H 0.59652 0.02203 0.79353 0.0
C1100 C 0.57311 0.97908 0.1381 0.0
C1101 C 0.56348 0.96993 0.08823 0.0
C1102 C 0.58078 0.99068 0.10248 0.0
C1103 C 0.5791 0.99332 0.01593 0.0
C1104 C 0.57016 0.98387 0.96385 0.0
C1105 C 0.5624 0.97231 0.99973 0.0
C1106 C 0.58908 0.02696 0.99851 0.0
C1107 C 0.59279 0.02943 0.91052 0.0
C1108 C 0.58546 0.01545 0.03465 0.0
C1109 C 0.58539 0.00614 0.98334 0.0
C1110 C 0.58993 0.00889 0.89738 0.0
C1111 C 0.59369 0.02044 0.86152 0.0
H1112 H 0.02204 0.59665 0.22681 0.0
H1113 H 0.03392 0.58904 0.98099 0.0
H1114 H 0.00196 0.59028 0.16336 0.0
H1115 H 0.01386 0.58271 0.91787 0.0
H1116 H 0.97787 0.57487 0.812 0.0
H1117 H 0.99799 0.58834 0.87573 0.0
H1118 H 0.98577 0.56891 0.1212 0.0
H1119 H 0.96567 0.55543 0.05778 0.0
C1120 C 0.0205 0.59396 0.15854 0.0
C1121 C 0.02954 0.5932 0.10923 0.0
C1122 C 0.00897 0.59025 0.12246 0.0
C1123 C 0.0063 0.58588 0.03603 0.0
C1124 C 0.01566 0.5861 0.98454 0.0
C1125 C 0.02714 0.58967 0.02085 0.0
C1126 C 0.97934 0.57368 0.88036 0.0
C1127 C 0.9702 0.56395 0.92954 0.0
C1128 C 0.9909 0.58137 0.91658 0.0
C1129 C 0.9935 0.57959 1.00303 0.0
C1130 C 0.98404 0.57056 0.05449 0.0
C1131 C 0.97252 0.56279 0.01803 0.0
H1132 H 0.43633 0.39882 0.02515 0.0
H1133 H 0.43415 0.41469 0.78057 0.0
H1134 H 0.42276 0.40503 0.09296 0.0
H1135 H 0.4218 0.42208 0.84861 0.0
H1136 H 0.39923 0.43525 0.9746 0.0
H1137 H 0.40549 0.42167 0.9074 0.0
H1138 H 0.42305 0.42134 0.15085 0.0
H1139 H 0.41561 0.43368 0.21846 0.0
C1140 C 0.43284 0.40358 0.98602 0.0
C1141 C 0.43618 0.40621 0.89786 0.0
C1142 C 0.4252 0.40735 0.02492 0.0
C1143 C 0.42123 0.41437 0.97751 0.0
C1144 C 0.42431 0.41654 0.88798 0.0
C1145 C 0.43152 0.41236 0.84853 0.0
C1146 C 0.40411 0.43189 0.01373 0.0
C1147 C 0.40688 0.4354 0.1015 0.0
C1148 C 0.4079 0.42425 0.97514 0.0
C1149 C 0.41509 0.42047 0.02241 0.0
C1150 C 0.41739 0.42371 0.11163 0.0
C1151 C 0.41317 0.43091 0.15082 0.0
H1152 H 0.12322 0.40743 0.82258 0.0
H1153 H 0.15964 0.41307 0.86118 0.0
H1154 H 0.12645 0.40908 0.66475 0.0
H1155 H 0.16286 0.4147 0.70228 0.0
H1156 H 0.15327 0.39595 0.42381 0.0
H1157 H 0.15352 0.39912 0.58138 0.0
H1158 H 0.13871 0.42311 0.54176 0.0
H1159 H 0.13846 0.41996 0.38329 0.0
C1160 C 0.13201 0.40923 0.79743 0.0
C1161 C 0.14116 0.41007 0.85455 0.0
C1162 C 0.13388 0.41025 0.70685 0.0
C1163 C 0.14489 0.41198 0.67086 0.0
C1164 C 0.15424 0.41328 0.72805 0.0
C1165 C 0.15243 0.41243 0.81902 0.0
C1166 C 0.15022 0.40205 0.44842 0.0
C1167 C 0.14578 0.40765 0.39082 0.0
C1168 C 0.15045 0.40393 0.53884 0.0
C1169 C 0.14612 0.41135 0.57419 0.0
C1170 C 0.14204 0.41728 0.51652 0.0
C1171 C 0.14196 0.41553 0.42575 0.0
H1172 H 0.58653 0.74642 0.85931 0.0
H1173 H 0.59301 0.71618 0.82044 0.0
H1174 H 0.58501 0.74809 0.70038 0.0
H1175 H 0.59147 0.71783 0.66253 0.0
H1176 H 0.60359 0.7576 0.42133 0.0
H1177 H 0.60061 0.75466 0.5791 0.0
H1178 H 0.57727 0.71575 0.53981 0.0
H1179 H 0.58022 0.71868 0.38131 0.0
C1180 C 0.58738 0.73998 0.81707 0.0
C1181 C 0.58992 0.73119 0.85258 0.0
C1182 C 0.5866 0.74099 0.72607 0.0
C1183 C 0.58816 0.73311 0.66879 0.0
C1184 C 0.59011 0.72396 0.7047 0.0
C1185 C 0.59106 0.72307 0.79533 0.0
C1186 C 0.59768 0.74843 0.44607 0.0
C1187 C 0.59218 0.73837 0.38852 0.0
C1188 C 0.59591 0.74676 0.53662 0.0
C1189 C 0.58873 0.73497 0.5721 0.0
C1190 C 0.58292 0.72494 0.5145 0.0
C1191 C 0.58456 0.72663 0.42368 0.0
H1192 H 0.24106 0.84648 0.42312 0.0
H1193 H 0.2798 0.86086 0.38255 0.0
H1194 H 0.24395 0.8462 0.5807 0.0
H1195 H 0.28269 0.86059 0.541 0.0
H1196 H 0.25168 0.83992 0.86046 0.0
H1197 H 0.25004 0.83671 0.70156 0.0
H1198 H 0.2811 0.87296 0.66404 0.0
H1199 H 0.28273 0.87618 0.8219 0.0
C1200 C 0.25018 0.84943 0.44771 0.0
C1201 C 0.26021 0.85375 0.39009 0.0
C1202 C 0.25182 0.84918 0.53815 0.0
C1203 C 0.26355 0.85339 0.57347 0.0
C1204 C 0.27354 0.85735 0.51578 0.0
C1205 C 0.27188 0.85745 0.42502 0.0
C1206 C 0.2583 0.8471 0.81831 0.0
C1207 C 0.2673 0.85832 0.85386 0.0
C1208 C 0.25731 0.84529 0.72733 0.0
C1209 C 0.26542 0.8546 0.67015 0.0
C1210 C 0.27479 0.86556 0.70614 0.0
C1211 C 0.27567 0.86743 0.79674 0.0
H1212 H 0.4191 0.13764 0.64411 0.0
H1213 H 0.39582 0.15331 0.60442 0.0
H1214 H 0.42197 0.13759 0.48553 0.0
H1215 H 0.39872 0.15327 0.44659 0.0
H1216 H 0.40624 0.12235 0.20484 0.0
H1217 H 0.40774 0.12551 0.36281 0.0
H1218 H 0.41429 0.16226 0.32524 0.0
H1219 H 0.41282 0.15911 0.16632 0.0
C1220 C 0.41477 0.14126 0.60178 0.0
C1221 C 0.4072 0.14544 0.63707 0.0
C1222 C 0.41635 0.14117 0.51093 0.0
C1223 C 0.41055 0.1454 0.45341 0.0
C1224 C 0.40341 0.15006 0.489 0.0
C1225 C 0.4017 0.15 0.57958 0.0
C1226 C 0.4082 0.13118 0.23002 0.0
C1227 C 0.40938 0.14047 0.17283 0.0
C1228 C 0.40912 0.13301 0.32069 0.0
C1229 C 0.4111 0.14412 0.35669 0.0
C1230 C 0.41268 0.15356 0.29949 0.0
C1231 C 0.41193 0.15179 0.20848 0.0
H1232 H 0.86111 0.28013 0.62251 0.0
H1233 H 0.84551 0.24119 0.58271 0.0
H1234 H 0.86097 0.28301 0.46386 0.0
H1235 H 0.84537 0.24408 0.42511 0.0
H1236 H 0.87637 0.28232 0.18362 0.0
H1237 H 0.87307 0.28089 0.34137 0.0
H1238 H 0.83642 0.25052 0.30358 0.0
H1239 H 0.83972 0.25196 0.14486 0.0
C1240 C 0.85744 0.27217 0.58017 0.0
C1241 C 0.85338 0.26044 0.61531 0.0
C1242 C 0.85743 0.27383 0.48931 0.0
C1243 C 0.85318 0.26378 0.43184 0.0
C1244 C 0.84858 0.252 0.46745 0.0
C1245 C 0.84874 0.25036 0.55791 0.0
C1246 C 0.86753 0.27545 0.20868 0.0
C1247 C 0.85832 0.26721 0.15154 0.0
C1248 C 0.86561 0.27469 0.29922 0.0
C1249 C 0.85449 0.26557 0.33513 0.0
C1250 C 0.84511 0.2576 0.2779 0.0
C1251 C 0.84698 0.25847 0.187 0.0
H1252 H 0.74631 0.58611 0.15714 0.0
H1253 H 0.71532 0.59143 0.19516 0.0
H1254 H 0.7478 0.58437 0.316 0.0
H1255 H 0.71681 0.58969 0.35296 0.0
H1256 H 0.75677 0.60308 0.59424 0.0
H1257 H 0.7539 0.59985 0.43679 0.0
H1258 H 0.71511 0.57576 0.47618 0.0
H1259 H 0.71798 0.57899 0.63467 0.0
C1260 C 0.73967 0.58666 0.19915 0.0
C1261 C 0.73074 0.58897 0.16348 0.0
C1262 C 0.74058 0.58574 0.29011 0.0
C1263 C 0.73245 0.58694 0.34715 0.0
C1264 C 0.72314 0.58861 0.31099 0.0
C1265 C 0.72234 0.58968 0.22042 0.0
C1266 C 0.74764 0.59695 0.56963 0.0
C1267 C 0.73759 0.59135 0.62715 0.0
C1268 C 0.74602 0.59503 0.47926 0.0
C1269 C 0.73428 0.58757 0.44385 0.0
C1270 C 0.72426 0.58162 0.50147 0.0
C1271 C 0.72591 0.58342 0.59224 0.0
H1272 H 0.8608 0.57977 0.6353 0.0
H1273 H 0.84466 0.60263 0.5958 0.0
H1274 H 0.86091 0.57696 0.47667 0.0
H1275 H 0.84476 0.5998 0.43796 0.0
H1276 H 0.83916 0.58585 0.15754 0.0
H1277 H 0.83598 0.58426 0.3164 0.0
H1278 H 0.87289 0.5913 0.35416 0.0
H1279 H 0.87609 0.59292 0.19622 0.0
C1280 C 0.85708 0.58402 0.59301 0.0
C1281 C 0.85276 0.59146 0.62834 0.0
C1282 C 0.85722 0.58247 0.50212 0.0
C1283 C 0.85287 0.58817 0.44466 0.0
C1284 C 0.84806 0.59517 0.48032 0.0
C1285 C 0.84808 0.59686 0.57091 0.0
C1286 C 0.84651 0.58683 0.19972 0.0
C1287 C 0.85789 0.58955 0.16413 0.0
C1288 C 0.84472 0.586 0.2907 0.0
C1289 C 0.8542 0.58769 0.34794 0.0
C1290 C 0.86537 0.58984 0.312 0.0
C1291 C 0.86722 0.59083 0.22135 0.0
H1292 H 0.41182 0.25179 0.14769 0.0
H1293 H 0.4052 0.28195 0.18648 0.0
H1294 H 0.41352 0.25025 0.30646 0.0
H1295 H 0.40693 0.28042 0.34437 0.0
H1296 H 0.39506 0.24073 0.5855 0.0
H1297 H 0.398 0.24367 0.4278 0.0
H1298 H 0.42124 0.2826 0.46695 0.0
H1299 H 0.41833 0.27966 0.6256 0.0
C1300 C 0.41096 0.25824 0.18986 0.0
C1301 C 0.40833 0.26696 0.15435 0.0
C1302 C 0.41186 0.25731 0.28079 0.0
C1303 C 0.41033 0.2652 0.33806 0.0
C1304 C 0.40828 0.27428 0.30217 0.0
C1305 C 0.40722 0.27511 0.21156 0.0
C1306 C 0.40095 0.24991 0.56075 0.0
C1307 C 0.40642 0.25997 0.61828 0.0
C1308 C 0.4027 0.25158 0.47024 0.0
C1309 C 0.40983 0.26337 0.43474 0.0
C1310 C 0.41563 0.27341 0.49231 0.0
C1311 C 0.41403 0.27172 0.58318 0.0
H1312 H 0.75725 0.1537 0.60049 0.0
H1313 H 0.71837 0.13851 0.64027 0.0
H1314 H 0.75433 0.15372 0.44268 0.0
H1315 H 0.71547 0.13852 0.48171 0.0
H1316 H 0.71572 0.12315 0.20095 0.0
H1317 H 0.7174 0.12631 0.35892 0.0
H1318 H 0.74793 0.16288 0.3214 0.0
H1319 H 0.74623 0.15973 0.16248 0.0
C1320 C 0.74809 0.15051 0.57568 0.0
C1321 C 0.73803 0.14606 0.63318 0.0
C1322 C 0.74643 0.1506 0.48511 0.0
C1323 C 0.73466 0.1461 0.44955 0.0
C1324 C 0.72464 0.14198 0.50709 0.0
C1325 C 0.72632 0.14204 0.59793 0.0
C1326 C 0.72267 0.13195 0.22615 0.0
C1327 C 0.73086 0.14118 0.16898 0.0
C1328 C 0.72359 0.13378 0.31682 0.0
C1329 C 0.73282 0.14483 0.35283 0.0
C1330 C 0.74077 0.15423 0.29564 0.0
C1331 C 0.73974 0.15246 0.20463 0.0
H1332 H 0.58684 0.83963 0.86367 0.0
H1333 H 0.59285 0.87619 0.8251 0.0
H1334 H 0.5852 0.8364 0.70486 0.0
H1335 H 0.59118 0.87295 0.66721 0.0
H1336 H 0.57999 0.86079 0.38586 0.0
H1337 H 0.57701 0.86071 0.54447 0.0
H1338 H 0.60072 0.84557 0.58365 0.0
H1339 H 0.60372 0.84566 0.42597 0.0
C1340 C 0.58757 0.84688 0.82154 0.0
C1341 C 0.59002 0.85818 0.85711 0.0
C1342 C 0.58671 0.84506 0.73059 0.0
C1343 C 0.5881 0.85444 0.67338 0.0
C1344 C 0.58995 0.8655 0.70935 0.0
C1345 C 0.59098 0.86738 0.79996 0.0
C1346 C 0.58439 0.85725 0.42827 0.0
C1347 C 0.59214 0.85328 0.39318 0.0
C1348 C 0.58274 0.85727 0.51912 0.0
C1349 C 0.58865 0.85316 0.57669 0.0
C1350 C 0.59594 0.84868 0.5412 0.0
C1351 C 0.59772 0.84881 0.45071 0.0
H1352 H 0.1381 0.7188 0.3776 0.0
H1353 H 0.15357 0.75771 0.41761 0.0
H1354 H 0.13815 0.71588 0.53609 0.0
H1355 H 0.15362 0.75478 0.57537 0.0
H1356 H 0.1595 0.74659 0.85558 0.0
H1357 H 0.16269 0.74825 0.69666 0.0
H1358 H 0.12602 0.71792 0.6588 0.0
H1359 H 0.12283 0.71627 0.8167 0.0
C1360 C 0.1417 0.72675 0.41997 0.0
C1361 C 0.14578 0.73848 0.38481 0.0
C1362 C 0.14166 0.72506 0.51078 0.0
C1363 C 0.14587 0.73509 0.56837 0.0
C1364 C 0.15044 0.74688 0.53289 0.0
C1365 C 0.15033 0.74854 0.44235 0.0
C1366 C 0.15222 0.74013 0.81334 0.0
C1367 C 0.1409 0.73132 0.84884 0.0
C1368 C 0.15401 0.74114 0.72234 0.0
C1369 C 0.14459 0.73324 0.66506 0.0
C1370 C 0.13351 0.72407 0.70097 0.0
C1371 C 0.13165 0.72317 0.79159 0.0
H1372 H 0.24189 0.39696 0.41989 0.0
H1373 H 0.28084 0.42013 0.38001 0.0
H1374 H 0.24483 0.39994 0.57765 0.0
H1375 H 0.28377 0.42309 0.5385 0.0
H1376 H 0.2832 0.40728 0.81909 0.0
H1377 H 0.28159 0.40887 0.6612 0.0
H1378 H 0.25147 0.41554 0.69898 0.0
H1379 H 0.25311 0.41398 0.85791 0.0
C1380 C 0.25107 0.40283 0.44466 0.0
C1381 C 0.26114 0.40827 0.38715 0.0
C1382 C 0.25274 0.4046 0.5352 0.0
C1383 C 0.26454 0.41173 0.57072 0.0
C1384 C 0.27457 0.41748 0.51316 0.0
C1385 C 0.27289 0.41584 0.42235 0.0
C1386 C 0.27636 0.40929 0.79397 0.0
C1387 C 0.26826 0.41048 0.8512 0.0
C1388 C 0.27548 0.41027 0.70335 0.0
C1389 C 0.26638 0.41229 0.66742 0.0
C1390 C 0.25854 0.4139 0.72468 0.0
C1391 C 0.25953 0.4131 0.81568 0.0
H1392 H 0.7903 0.74114 0.15124 0.0
H1393 H 0.82628 0.74563 0.18915 0.0
H1394 H 0.79351 0.7428 0.99346 0.0
H1395 H 0.82949 0.74728 0.03019 0.0
H1396 H 0.80526 0.75306 0.7115 0.0
H1397 H 0.80583 0.75647 0.86981 0.0
H1398 H 0.81979 0.73177 0.90987 0.0
H1399 H 0.81923 0.72835 0.75255 0.0
C1400 C 0.799 0.7427 0.12593 0.0
C1401 C 0.80802 0.74319 0.18281 0.0
C1402 C 0.80086 0.74373 0.03537 0.0
C1403 C 0.81173 0.74513 0.99915 0.0
C1404 C 0.82098 0.74613 0.05614 0.0
C1405 C 0.81918 0.74527 0.14714 0.0
C1406 C 0.80864 0.74852 0.75402 0.0
C1407 C 0.81212 0.74037 0.71932 0.0
C1408 C 0.80891 0.75043 0.84469 0.0
C1409 C 0.81284 0.74437 0.90246 0.0
C1410 C 0.81685 0.73668 0.86727 0.0
C1411 C 0.81642 0.73465 0.77698 0.0
H1412 H 0.25947 0.05017 0.16155 0.0
H1413 H 0.25315 0.08052 0.20022 0.0
H1414 H 0.25777 0.05172 1.00366 0.0
H1415 H 0.25147 0.08208 0.04143 0.0
H1416 H 0.24647 0.05257 0.72238 0.0
H1417 H 0.24352 0.04965 0.88101 0.0
H1418 H 0.26699 0.08855 0.92012 0.0
H1419 H 0.26996 0.09147 0.76243 0.0
C1420 C 0.25753 0.05706 0.13643 0.0
C1421 C 0.25649 0.06526 0.19361 0.0
C1422 C 0.25648 0.0579 0.04583 0.0
C1423 C 0.25452 0.06704 0.00989 0.0
C1424 C 0.25306 0.07498 0.06713 0.0
C1425 C 0.25395 0.07404 0.15807 0.0
C1426 C 0.25082 0.06052 0.76478 0.0
C1427 C 0.25849 0.07224 0.72967 0.0
C1428 C 0.24919 0.05884 0.85564 0.0
C1429 C 0.25505 0.06887 0.9132 0.0
C1430 C 0.26225 0.08065 0.87768 0.0
C1431 C 0.26401 0.0823 0.78718 0.0
H1432 H 0.90875 0.17867 0.74576 0.0
H1433 H 0.94756 0.19342 0.70569 0.0
H1434 H 0.91162 0.17835 0.90334 0.0
H1435 H 0.95041 0.19309 0.86409 0.0
H1436 H 0.91936 0.17219 0.18337 0.0
H1437 H 0.91775 0.16899 0.0244 0.0
H1438 H 0.94874 0.20529 0.98714 0.0
H1439 H 0.95033 0.20849 0.14496 0.0
C1440 C 0.91788 0.18169 0.77045 0.0
C1441 C 0.92794 0.18613 0.71296 0.0
C1442 C 0.9195 0.18142 0.86089 0.0
C1443 C 0.93124 0.18571 0.89637 0.0
C1444 C 0.94126 0.18979 0.83879 0.0
C1445 C 0.93961 0.18992 0.74803 0.0
C1446 C 0.92598 0.17937 0.14123 0.0
C1447 C 0.93494 0.19061 0.1768 0.0
C1448 C 0.925 0.17758 0.05022 0.0
C1449 C 0.93309 0.1869 0.99308 0.0
C1450 C 0.94243 0.19788 0.02916 0.0
C1451 C 0.9433 0.19973 0.11974 0.0
H1452 H 0.08532 0.47174 0.96401 0.0
H1453 H 0.06159 0.48688 0.92363 0.0
H1454 H 0.08842 0.47193 0.80549 0.0
H1455 H 0.06471 0.48708 0.76604 0.0
H1456 H 0.07257 0.45647 0.52486 0.0
H1457 H 0.07429 0.45973 0.68267 0.0
H1458 H 0.08026 0.49627 0.64496 0.0
H1459 H 0.07856 0.49302 0.48611 0.0
C1460 C 0.08094 0.4753 0.92157 0.0
C1461 C 0.07316 0.47923 0.95654 0.0
C1462 C 0.08266 0.47535 0.83078 0.0
C1463 C 0.07679 0.4795 0.77314 0.0
C1464 C 0.06947 0.48395 0.80854 0.0
C1465 C 0.06762 0.48375 0.89898 0.0
C1466 C 0.07446 0.46529 0.54996 0.0
C1467 C 0.07538 0.47447 0.4928 0.0
C1468 C 0.07552 0.46717 0.64053 0.0
C1469 C 0.07737 0.47824 0.67646 0.0
C1470 C 0.07875 0.48761 0.61924 0.0
C1471 C 0.07786 0.48578 0.52828 0.0
H1472 H 0.50556 0.58628 0.50406 0.0
H1473 H 0.5418 0.61736 0.54207 0.0
H1474 H 0.50241 0.58464 0.66311 0.0
H1475 H 0.53866 0.61574 0.69993 0.0
H1476 H 0.52691 0.61445 0.98178 0.0
H1477 H 0.5265 0.61732 0.82349 0.0
H1478 H 0.51189 0.57855 0.78364 0.0
H1479 H 0.51229 0.57566 0.94115 0.0
C1480 C 0.51273 0.59292 0.54613 0.0
C1481 C 0.52394 0.60192 0.51043 0.0
C1482 C 0.51098 0.59192 0.63718 0.0
C1483 C 0.52031 0.60003 0.69422 0.0
C1484 C 0.53124 0.60942 0.65801 0.0
C1485 C 0.53306 0.6103 0.56739 0.0
C1486 C 0.52343 0.60651 0.93934 0.0
C1487 C 0.5197 0.59484 0.97423 0.0
C1488 C 0.52325 0.60817 0.84864 0.0
C1489 C 0.51918 0.59817 0.79092 0.0
C1490 C 0.51495 0.58643 0.82622 0.0
C1491 C 0.51527 0.58479 0.91661 0.0
H1492 H 0.38173 0.92415 0.53897 0.0
H1493 H 0.41244 0.91842 0.50043 0.0
H1494 H 0.38341 0.92268 0.69688 0.0
H1495 H 0.41416 0.91698 0.65943 0.0
H1496 H 0.42337 0.93568 0.93815 0.0
H1497 H 0.42045 0.93258 0.78044 0.0
H1498 H 0.38163 0.90869 0.81991 0.0
H1499 H 0.38453 0.91177 0.97832 0.0
C1500 C 0.38872 0.92237 0.56417 0.0
C1501 C 0.39697 0.92143 0.50702 0.0
C1502 C 0.38964 0.92146 0.6548 0.0
C1503 C 0.39894 0.91975 0.69083 0.0
C1504 C 0.40694 0.91838 0.63365 0.0
C1505 C 0.4059 0.91911 0.54261 0.0
C1506 C 0.41422 0.92963 0.91346 0.0
C1507 C 0.40417 0.92402 0.97104 0.0
C1508 C 0.41257 0.92779 0.82296 0.0
C1509 C 0.40081 0.92041 0.78753 0.0
C1510 C 0.3908 0.91449 0.84517 0.0
C1511 C 0.39247 0.91621 0.93594 0.0
H1512 H 0.52748 0.91332 0.96027 0.0
H1513 H 0.5118 0.93657 0.92027 0.0
H1514 H 0.52747 0.91038 0.80163 0.0
H1515 H 0.51177 0.93361 0.76259 0.0
H1516 H 0.54283 0.92641 0.52115 0.0
H1517 H 0.53958 0.92467 0.67902 0.0
H1518 H 0.50283 0.9181 0.64123 0.0
H1519 H 0.50606 0.91982 0.48245 0.0
C1520 C 0.52383 0.91762 0.91788 0.0
C1521 C 0.51969 0.92522 0.95301 0.0
C1522 C 0.52389 0.91599 0.82702 0.0
C1523 C 0.51964 0.92179 0.76947 0.0
C1524 C 0.51499 0.92892 0.80501 0.0
C1525 C 0.51508 0.93068 0.8955 0.0
C1526 C 0.53398 0.9244 0.54625 0.0
C1527 C 0.52472 0.9233 0.48907 0.0
C1528 C 0.53209 0.92333 0.63685 0.0
C1529 C 0.52096 0.92128 0.67277 0.0
C1530 C 0.51154 0.91976 0.61554 0.0
C1531 C 0.51336 0.92067 0.5246 0.0
H1532 H 0.06261 0.57553 0.93805 0.0
H1533 H 0.08648 0.61438 0.97828 0.0
H1534 H 0.06568 0.57846 0.78032 0.0
H1535 H 0.08953 0.61728 0.81987 0.0
H1536 H 0.07987 0.58651 0.50031 0.0
H1537 H 0.0813 0.58479 0.65931 0.0
H1538 H 0.07552 0.61548 0.69686 0.0
H1539 H 0.07407 0.61718 0.53894 0.0
C1540 C 0.06864 0.58468 0.91337 0.0
C1541 C 0.07425 0.59473 0.97097 0.0
C1542 C 0.07047 0.58634 0.82286 0.0
C1543 C 0.07783 0.5981 0.78745 0.0
C1544 C 0.08374 0.60811 0.84511 0.0
C1545 C 0.08204 0.60644 0.93588 0.0
C1546 C 0.07916 0.59304 0.54252 0.0
C1547 C 0.07683 0.60196 0.50694 0.0
C1548 C 0.07988 0.59199 0.63355 0.0
C1549 C 0.07848 0.59998 0.69076 0.0
C1550 C 0.07676 0.60926 0.65476 0.0
C1551 C 0.07586 0.61019 0.56412 0.0
H1552 H 0.38268 0.45683 0.52287 0.0
H1553 H 0.41369 0.49312 0.48473 0.0
H1554 H 0.38415 0.46007 0.68061 0.0
H1555 H 0.41517 0.49637 0.64363 0.0
H1556 H 0.42415 0.4865 0.92162 0.0
H1557 H 0.42127 0.48695 0.76426 0.0
H1558 H 0.38249 0.47227 0.80398 0.0
H1559 H 0.38536 0.47181 0.96236 0.0
C1560 C 0.38969 0.46559 0.54811 0.0
C1561 C 0.39811 0.4747 0.49117 0.0
C1562 C 0.39048 0.46748 0.63865 0.0
C1563 C 0.39981 0.47846 0.67479 0.0
C1564 C 0.40794 0.48777 0.61774 0.0
C1565 C 0.40704 0.48595 0.52677 0.0
C1566 C 0.41501 0.48352 0.8971 0.0
C1567 C 0.40497 0.47904 0.95468 0.0
C1568 C 0.41339 0.48387 0.80678 0.0
C1569 C 0.40165 0.47963 0.77149 0.0
C1570 C 0.39164 0.47553 0.82918 0.0
C1571 C 0.39329 0.47533 0.91989 0.0
H1572 H 0.25221 0.17301 0.18192 0.0
H1573 H 0.25812 0.20953 0.14332 0.0
H1574 H 0.25076 0.16986 0.02292 0.0
H1575 H 0.25665 0.20637 0.9854 0.0
H1576 H 0.26946 0.17926 0.74422 0.0
H1577 H 0.26638 0.17911 0.90193 0.0
H1578 H 0.24263 0.1942 0.86238 0.0
H1579 H 0.24569 0.19435 0.70397 0.0
C1580 C 0.25294 0.18026 0.13972 0.0
C1581 C 0.25531 0.19153 0.1753 0.0
C1582 C 0.2522 0.17849 0.04869 0.0
C1583 C 0.25363 0.18788 0.99149 0.0
C1584 C 0.25539 0.19891 0.0275 0.0
C1585 C 0.2563 0.20074 0.11813 0.0
C1586 C 0.26344 0.1824 0.76889 0.0
C1587 C 0.25786 0.18687 0.71129 0.0
C1588 C 0.26161 0.18223 0.85939 0.0
C1589 C 0.25428 0.18666 0.89479 0.0
C1590 C 0.2484 0.19079 0.83714 0.0
C1591 C 0.2501 0.19082 0.74637 0.0
H1592 H 0.82611 0.08037 0.19875 0.0
H1593 H 0.78966 0.04965 0.16002 0.0
H1594 H 0.82935 0.08193 0.03989 0.0
H1595 H 0.79291 0.0512 1.00221 0.0
H1596 H 0.81984 0.09111 0.7613 0.0
H1597 H 0.82007 0.0882 0.91887 0.0
H1598 H 0.80516 0.04938 0.87934 0.0
H1599 H 0.80493 0.05228 0.72084 0.0
C1600 C 0.81889 0.0738 0.15658 0.0
C1601 C 0.80761 0.06492 0.19205 0.0
C1602 C 0.82072 0.07475 0.06562 0.0
C1603 C 0.81137 0.06671 0.0084 0.0
C1604 C 0.80034 0.05746 0.04434 0.0
C1605 C 0.79845 0.05662 0.13491 0.0
C1606 C 0.81676 0.08197 0.78592 0.0
C1607 C 0.8123 0.07192 0.72834 0.0
C1608 C 0.81699 0.08032 0.87635 0.0
C1609 C 0.81262 0.06856 0.91172 0.0
C1610 C 0.80852 0.05855 0.85408 0.0
C1611 C 0.80845 0.06022 0.76329 0.0
H1612 H 0.90808 0.72903 0.74982 0.0
H1613 H 0.94699 0.7525 0.7098 0.0
H1614 H 0.91102 0.73204 0.90757 0.0
H1615 H 0.94991 0.75549 0.86827 0.0
H1616 H 0.94954 0.73982 0.14899 0.0
H1617 H 0.94789 0.74135 0.99108 0.0
H1618 H 0.91753 0.74765 0.02878 0.0
H1619 H 0.9192 0.74614 0.18773 0.0
C1620 C 0.91725 0.73497 0.77455 0.0
C1621 C 0.92731 0.74048 0.71701 0.0
C1622 C 0.91892 0.73676 0.86508 0.0
C1623 C 0.9307 0.74399 0.90056 0.0
C1624 C 0.94073 0.74981 0.84297 0.0
C1625 C 0.93904 0.74814 0.75216 0.0
C1626 C 0.94263 0.74173 0.12385 0.0
C1627 C 0.93448 0.74283 0.18106 0.0
C1628 C 0.94174 0.74268 0.03322 0.0
C1629 C 0.93256 0.74458 0.99726 0.0
C1630 C 0.92465 0.7461 0.0545 0.0
C1631 C 0.92567 0.74533 0.14551 0.0
H1632 H 0.48657 0.06149 0.09599 0.0
H1633 H 0.47056 0.08446 0.05605 0.0
H1634 H 0.48652 0.06439 0.25371 0.0
H1635 H 0.47049 0.08734 0.21473 0.0
H1636 H 0.49207 0.07815 0.53394 0.0
H1637 H 0.49532 0.07991 0.3752 0.0
H1638 H 0.45844 0.07294 0.33717 0.0
H1639 H 0.45517 0.07116 0.49503 0.0
C1640 C 0.4832 0.06731 0.12079 0.0
C1641 C 0.47852 0.07271 0.0633 0.0
C1642 C 0.48325 0.06904 0.2113 0.0
C1643 C 0.47848 0.07607 0.24686 0.0
C1644 C 0.47416 0.0818 0.18932 0.0
C1645 C 0.47427 0.08022 0.09844 0.0
C1646 C 0.48474 0.07722 0.49175 0.0
C1647 C 0.47335 0.07447 0.52723 0.0
C1648 C 0.48658 0.07815 0.40083 0.0
C1649 C 0.47713 0.07653 0.34354 0.0
C1650 C 0.46595 0.07436 0.37939 0.0
C1651 C 0.46405 0.07327 0.46999 0.0
H1652 H 0.9358 0.42387 0.08163 0.0
H1653 H 0.91254 0.38493 0.04197 0.0
H1654 H 0.93293 0.42094 0.23948 0.0
H1655 H 0.90969 0.38201 0.20056 0.0
H1656 H 0.91883 0.41266 0.51979 0.0
H1657 H 0.91735 0.41434 0.36088 0.0
H1658 H 0.92395 0.38416 0.32321 0.0
H1659 H 0.92545 0.38251 0.48119 0.0
C1660 C 0.92993 0.41469 0.10648 0.0
C1661 C 0.92443 0.40463 0.049 0.0
C1662 C 0.92823 0.41303 0.19706 0.0
C1663 C 0.9211 0.40124 0.23267 0.0
C1664 C 0.9153 0.3912 0.17515 0.0
C1665 C 0.91687 0.39288 0.08429 0.0
C1666 C 0.91973 0.40624 0.47761 0.0
C1667 C 0.92229 0.39747 0.51324 0.0
C1668 C 0.91897 0.40726 0.38661 0.0
C1669 C 0.92057 0.3994 0.32938 0.0
C1670 C 0.92256 0.39028 0.36535 0.0
C1671 C 0.92349 0.38938 0.45602 0.0
H1672 H 0.58524 0.50562 0.5315 0.0
H1673 H 0.61576 0.5422 0.49321 0.0
H1674 H 0.5838 0.50236 0.37271 0.0
H1675 H 0.61433 0.53893 0.33544 0.0
H1676 H 0.57455 0.51171 0.09412 0.0
H1677 H 0.57744 0.51146 0.25162 0.0
H1678 H 0.61633 0.52683 0.21251 0.0
H1679 H 0.61344 0.52708 0.05395 0.0
C1680 C 0.59178 0.51286 0.48945 0.0
C1681 C 0.60057 0.52418 0.52504 0.0
C1682 C 0.59092 0.51103 0.39852 0.0
C1683 C 0.59893 0.5204 0.34141 0.0
C1684 C 0.6081 0.53148 0.37748 0.0
C1685 C 0.60886 0.53337 0.46803 0.0
C1686 C 0.58371 0.51487 0.11881 0.0
C1687 C 0.59378 0.51948 0.06135 0.0
C1688 C 0.58535 0.51464 0.20921 0.0
C1689 C 0.59712 0.51915 0.24471 0.0
C1690 C 0.60716 0.52337 0.18715 0.0
C1691 C 0.60549 0.52345 0.09635 0.0
H1692 H 0.74674 0.82678 0.82845 0.0
H1693 H 0.74028 0.79007 0.86727 0.0
H1694 H 0.74825 0.82997 0.98738 0.0
H1695 H 0.74183 0.79326 0.02518 0.0
H1696 H 0.72967 0.82088 0.26642 0.0
H1697 H 0.73265 0.82092 0.10865 0.0
H1698 H 0.756 0.80536 0.14792 0.0
H1699 H 0.75304 0.80533 0.30641 0.0
C1700 C 0.74589 0.81949 0.87068 0.0
C1701 C 0.74336 0.80817 0.83515 0.0
C1702 C 0.74667 0.82128 0.96168 0.0
C1703 C 0.74512 0.81185 0.01895 0.0
C1704 C 0.74318 0.80075 0.98302 0.0
C1705 C 0.74223 0.79891 0.89239 0.0
C1706 C 0.73558 0.81762 0.24167 0.0
C1707 C 0.74108 0.81305 0.29921 0.0
C1708 C 0.73735 0.81772 0.15113 0.0
C1709 C 0.74454 0.81313 0.11564 0.0
C1710 C 0.75035 0.8089 0.17323 0.0
C1711 C 0.7487 0.80894 0.26404 0.0
H1712 H 0.19352 0.94743 0.29882 0.0
H1713 H 0.17846 0.90857 0.25866 0.0
H1714 H 0.19344 0.95033 0.14022 0.0
H1715 H 0.17836 0.91148 0.10098 0.0
H1716 H 0.20891 0.95001 0.85956 0.0
H1717 H 0.20569 0.94842 0.01745 0.0
H1718 H 0.16917 0.91783 0.97981 0.0
H1719 H 0.17238 0.91942 0.82098 0.0
C1720 C 0.18999 0.93949 0.2564 0.0
C1721 C 0.18605 0.92778 0.29148 0.0
C1722 C 0.19001 0.94116 0.16556 0.0
C1723 C 0.18591 0.93114 0.10797 0.0
C1724 C 0.18146 0.91937 0.14345 0.0
C1725 C 0.1816 0.91772 0.23394 0.0
C1726 C 0.20011 0.94305 0.8847 0.0
C1727 C 0.19091 0.93481 0.82755 0.0
C1728 C 0.19824 0.9422 0.97532 0.0
C1729 C 0.18719 0.93298 0.01128 0.0
C1730 C 0.17782 0.92498 0.95408 0.0
C1731 C 0.17963 0.92594 0.86312 0.0
H1732 H 0.091 0.2712 0.25989 0.0
H1733 H 0.05223 0.247 0.30042 0.0
H1734 H 0.0881 0.26805 0.10231 0.0
H1735 H 0.04933 0.24386 0.14194 0.0
H1736 H 0.0494 0.25951 0.86116 0.0
H1737 H 0.05101 0.25788 0.019 0.0
H1738 H 0.08193 0.25248 0.98136 0.0
H1739 H 0.08031 0.25408 0.82248 0.0
C1740 C 0.08187 0.26507 0.23529 0.0
C1741 C 0.07183 0.2594 0.2929 0.0
C1742 C 0.08023 0.2632 0.14485 0.0
C1743 C 0.06848 0.25573 0.1095 0.0
C1744 C 0.05849 0.24973 0.16718 0.0
C1745 C 0.06015 0.25148 0.25796 0.0
C1746 C 0.05642 0.25777 0.88629 0.0
C1747 C 0.06476 0.25697 0.82914 0.0
C1748 C 0.0573 0.25676 0.97688 0.0
C1749 C 0.06662 0.25509 0.01283 0.0
C1750 C 0.07469 0.25385 0.95562 0.0
C1751 C 0.07371 0.25468 0.86465 0.0
H1752 H 0.17874 0.27061 0.26607 0.0
H1753 H 0.19436 0.2473 0.30604 0.0
H1754 H 0.17871 0.26764 0.1083 0.0
H1755 H 0.19435 0.24435 0.14754 0.0
H1756 H 0.17289 0.25357 0.82806 0.0
H1757 H 0.1697 0.25204 0.98698 0.0
H1758 H 0.20643 0.25855 0.02485 0.0
H1759 H 0.20963 0.26011 0.86695 0.0
C1760 C 0.18202 0.26471 0.24132 0.0
C1761 C 0.1866 0.25923 0.29885 0.0
C1762 C 0.18192 0.26295 0.15077 0.0
C1763 C 0.18655 0.25578 0.11528 0.0
C1764 C 0.19079 0.24999 0.17286 0.0
C1765 C 0.19074 0.25163 0.26368 0.0
C1766 C 0.18019 0.25443 0.8703 0.0
C1767 C 0.19152 0.257 0.83479 0.0
C1768 C 0.1784 0.25364 0.9613 0.0
C1769 C 0.18783 0.25521 0.01858 0.0
C1770 C 0.19894 0.25719 0.98268 0.0
C1771 C 0.20079 0.25815 0.89205 0.0
H1772 H 0.74037 0.95011 0.8641 0.0
H1773 H 0.7458 0.9192 0.82556 0.0
H1774 H 0.742 0.94853 0.02193 0.0
H1775 H 0.74741 0.9176 0.98447 0.0
H1776 H 0.72865 0.90853 0.26287 0.0
H1777 H 0.73184 0.91143 0.10531 0.0
H1778 H 0.75598 0.95021 0.145 0.0
H1779 H 0.75281 0.94732 0.30344 0.0
C1780 C 0.74211 0.94309 0.88927 0.0
C1781 C 0.7429 0.93475 0.83216 0.0
C1782 C 0.74312 0.94223 0.97985 0.0
C1783 C 0.74479 0.93291 0.01586 0.0
C1784 C 0.74604 0.92483 0.95869 0.0
C1785 C 0.7452 0.9258 0.86771 0.0
C1786 C 0.73478 0.91767 0.23828 0.0
C1787 C 0.74043 0.92771 0.29589 0.0
C1788 C 0.73667 0.91931 0.14786 0.0
C1789 C 0.74414 0.93105 0.11253 0.0
C1790 C 0.75011 0.94105 0.17022 0.0
C1791 C 0.74835 0.93939 0.26098 0.0
H1792 H 0.049 0.78971 0.86355 0.0
H1793 H 0.07917 0.82646 0.82474 0.0
H1794 H 0.05063 0.7929 0.02145 0.0
H1795 H 0.08082 0.82965 0.98367 0.0
H1796 H 0.05143 0.80494 0.30267 0.0
H1797 H 0.0485 0.80497 0.14418 0.0
H1798 H 0.08743 0.82065 0.10495 0.0
H1799 H 0.09037 0.82061 0.26271 0.0
C1800 C 0.05586 0.79855 0.88868 0.0
C1801 C 0.06398 0.80782 0.83144 0.0
C1802 C 0.05675 0.8004 0.9793 0.0
C1803 C 0.06588 0.81151 0.01523 0.0
C1804 C 0.07374 0.82096 0.95797 0.0
C1805 C 0.07274 0.81916 0.86696 0.0
C1806 C 0.05939 0.80857 0.26031 0.0
C1807 C 0.07113 0.81272 0.29548 0.0
C1808 C 0.0577 0.80853 0.16951 0.0
C1809 C 0.06773 0.81279 0.11193 0.0
C1810 C 0.07952 0.81742 0.14742 0.0
C1811 C 0.08119 0.81732 0.23796 0.0
H1812 H 0.91379 0.52807 0.05596 0.0
H1813 H 0.93682 0.51213 0.09589 0.0
H1814 H 0.91089 0.52811 0.21463 0.0
H1815 H 0.93389 0.51214 0.25359 0.0
H1816 H 0.92015 0.50656 0.53378 0.0
H1817 H 0.91839 0.50331 0.37503 0.0
H1818 H 0.92525 0.54016 0.33714 0.0
H1819 H 0.92703 0.54343 0.495 0.0
C1820 C 0.91805 0.52437 0.09835 0.0
C1821 C 0.92558 0.52015 0.0632 0.0
C1822 C 0.91644 0.52446 0.18922 0.0
C1823 C 0.92218 0.52015 0.24675 0.0
C1824 C 0.92924 0.51541 0.21119 0.0
C1825 C 0.93098 0.51548 0.12068 0.0
C1826 C 0.92106 0.51388 0.49162 0.0
C1827 C 0.92378 0.52527 0.52713 0.0
C1828 C 0.92012 0.51205 0.4007 0.0
C1829 C 0.92171 0.52149 0.34344 0.0
C1830 C 0.92386 0.53266 0.37933 0.0
C1831 C 0.92495 0.53455 0.46993 0.0
H1832 H 0.49313 0.41225 0.51216 0.0
H1833 H 0.45663 0.38159 0.47409 0.0
H1834 H 0.49629 0.41383 0.35321 0.0
H1835 H 0.4598 0.38315 0.31622 0.0
H1836 H 0.47166 0.38414 0.03461 0.0
H1837 H 0.47189 0.38126 0.19308 0.0
H1838 H 0.48709 0.42013 0.23223 0.0
H1839 H 0.48687 0.42302 0.07461 0.0
C1840 C 0.48588 0.4057 0.47011 0.0
C1841 C 0.47462 0.39682 0.50582 0.0
C1842 C 0.48766 0.40665 0.37909 0.0
C1843 C 0.47828 0.39864 0.32203 0.0
C1844 C 0.46725 0.38939 0.35819 0.0
C1845 C 0.46542 0.38855 0.44882 0.0
C1846 C 0.47524 0.39209 0.07696 0.0
C1847 C 0.47919 0.4038 0.04185 0.0
C1848 C 0.47531 0.39043 0.16775 0.0
C1849 C 0.47949 0.40047 0.22531 0.0
C1850 C 0.48393 0.41223 0.1898 0.0
C1851 C 0.48372 0.41387 0.09933 0.0
H1852 H 0.57475 0.06239 0.07871 0.0
H1853 H 0.61365 0.08595 0.03901 0.0
H1854 H 0.57768 0.06528 0.23657 0.0
H1855 H 0.61657 0.08881 0.19758 0.0
H1856 H 0.5859 0.07948 0.51683 0.0
H1857 H 0.58417 0.08088 0.3579 0.0
H1858 H 0.61455 0.07462 0.3203 0.0
H1859 H 0.61626 0.07318 0.47829 0.0
C1860 C 0.58392 0.06832 0.10355 0.0
C1861 C 0.59398 0.07391 0.04605 0.0
C1862 C 0.58558 0.07004 0.19414 0.0
C1863 C 0.59736 0.07726 0.22972 0.0
C1864 C 0.60738 0.08314 0.17219 0.0
C1865 C 0.6057 0.08155 0.08134 0.0
C1866 C 0.59235 0.07863 0.47466 0.0
C1867 C 0.6012 0.07619 0.51032 0.0
C1868 C 0.5913 0.07935 0.38364 0.0
C1869 C 0.59921 0.07783 0.32643 0.0
C1870 C 0.6084 0.07595 0.36243 0.0
C1871 C 0.60933 0.07507 0.45311 0.0
H1872 H 0.09884 0.46476 0.16331 0.0
H1873 H 0.06732 0.43082 0.24531 0.0
H1874 H 0.11024 0.45403 0.13962 0.0
H1875 H 0.07879 0.42025 0.2262 0.0
H1876 H 0.09735 0.40159 0.10082 0.0
H1877 H 0.08652 0.41279 0.12007 0.0
H1878 H 0.12002 0.44445 0.20827 0.0
H1879 H 0.13102 0.43332 0.18443 0.0
C1880 C 0.09438 0.45503 0.17684 0.0
C1881 C 0.08216 0.44863 0.20558 0.0
C1882 C 0.10094 0.44888 0.16392 0.0
C1883 C 0.09547 0.43622 0.18065 0.0
C1884 C 0.08327 0.42991 0.21049 0.0
C1885 C 0.07667 0.436 0.22197 0.0
C1886 C 0.10242 0.41094 0.12454 0.0
C1887 C 0.11505 0.41655 0.14136 0.0
C1888 C 0.09618 0.41737 0.13612 0.0
C1889 C 0.10232 0.42954 0.1665 0.0
C1890 C 0.11498 0.43516 0.1836 0.0
C1891 C 0.12129 0.42876 0.17057 0.0
H1892 H 0.56846 0.63687 0.26174 0.0
H1893 H 0.53488 0.63494 0.17607 0.0
H1894 H 0.57945 0.65886 0.238 0.0
H1895 H 0.54599 0.65694 0.14784 0.0
H1896 H 0.56692 0.69833 0.18601 0.0
H1897 H 0.55572 0.67634 0.21417 0.0
H1898 H 0.58723 0.67392 0.13038 0.0
H1899 H 0.59854 0.69592 0.10669 0.0
C1900 C 0.56345 0.64114 0.23671 0.0
C1901 C 0.55079 0.63416 0.22083 0.0
C1902 C 0.56978 0.65378 0.22254 0.0
C1903 C 0.56367 0.65977 0.19058 0.0
C1904 C 0.551 0.65273 0.17396 0.0
C1905 C 0.54462 0.64009 0.18952 0.0
C1906 C 0.57144 0.69307 0.17395 0.0
C1907 C 0.58363 0.69887 0.14442 0.0
C1908 C 0.56499 0.68044 0.18947 0.0
C1909 C 0.57052 0.67326 0.17457 0.0
C1910 C 0.58271 0.67911 0.14445 0.0
C1911 C 0.5892 0.69176 0.13033 0.0
H1912 H 0.36375 0.89868 0.17422 0.0
H1913 H 0.362 0.93054 0.25705 0.0
H1914 H 0.3417 0.88779 0.14712 0.0
H1915 H 0.34 0.91956 0.23449 0.0
H1916 H 0.30313 0.90191 0.10335 0.0
H1917 H 0.32512 0.91232 0.12586 0.0
H1918 H 0.32221 0.87832 0.21367 0.0
H1919 H 0.30017 0.86778 0.18665 0.0
C1920 C 0.35863 0.90331 0.18725 0.0
C1921 C 0.36462 0.91548 0.21725 0.0
C1922 C 0.34597 0.89705 0.17234 0.0
C1923 C 0.339 0.90277 0.18831 0.0
C1924 C 0.34504 0.91491 0.21937 0.0
C1925 C 0.35769 0.92121 0.23285 0.0
C1926 C 0.30717 0.89665 0.12764 0.0
C1927 C 0.2999 0.88402 0.14338 0.0
C1928 C 0.31981 0.90264 0.14108 0.0
C1929 C 0.32552 0.89622 0.17225 0.0
C1930 C 0.31821 0.88356 0.18837 0.0
C1931 C 0.30555 0.87751 0.17349 0.0
H1932 H 0.43373 0.12981 0.92265 0.0
H1933 H 0.40039 0.09813 0.8336 0.0
H1934 H 0.44478 0.11873 0.90211 0.0
H1935 H 0.41152 0.0872 0.80991 0.0
H1936 H 0.43136 0.06631 0.86569 0.0
H1937 H 0.42074 0.07774 0.88875 0.0
H1938 H 0.45257 0.11068 0.79575 0.0
H1939 H 0.46335 0.09931 0.77579 0.0
C1940 C 0.42879 0.12052 0.89772 0.0
C1941 C 0.41616 0.11483 0.88028 0.0
C1942 C 0.43514 0.11418 0.88554 0.0
C1943 C 0.42905 0.10202 0.85478 0.0
C1944 C 0.41647 0.09644 0.83553 0.0
C1945 C 0.41009 0.10274 0.84851 0.0
C1946 C 0.43611 0.076 0.85044 0.0
C1947 C 0.44819 0.08188 0.81867 0.0
C1948 C 0.42998 0.08256 0.86306 0.0
C1949 C 0.43574 0.09514 0.84344 0.0
C1950 C 0.44789 0.10104 0.81259 0.0
C1951 C 0.45406 0.09451 0.80077 0.0
H1952 H 0.8979 0.36241 0.76196 0.0
H1953 H 0.93117 0.3641 0.85309 0.0
H1954 H 0.88688 0.34025 0.7813 0.0
H1955 H 0.92008 0.34203 0.87557 0.0
H1956 H 0.90056 0.30141 0.81671 0.0
H1957 H 0.91108 0.32349 0.79521 0.0
H1958 H 0.87898 0.32423 0.88637 0.0
H1959 H 0.8683 0.30206 0.90476 0.0
C1960 C 0.90283 0.35807 0.78712 0.0
C1961 C 0.91543 0.36502 0.80543 0.0
C1962 C 0.8965 0.34535 0.7986 0.0
C1963 C 0.90259 0.33929 0.82949 0.0
C1964 C 0.91514 0.34632 0.84977 0.0
C1965 C 0.92149 0.359 0.83749 0.0
C1966 C 0.89573 0.30628 0.83188 0.0
C1967 C 0.8836 0.29996 0.86269 0.0
C1968 C 0.9018 0.31897 0.82018 0.0
C1969 C 0.89595 0.32571 0.83978 0.0
C1970 C 0.88375 0.31935 0.86961 0.0
C1971 C 0.87763 0.30663 0.88051 0.0
H1972 H 0.63542 0.53461 0.77251 0.0
H1973 H 0.63438 0.56663 0.86128 0.0
H1974 H 0.65757 0.54543 0.79191 0.0
H1975 H 0.65644 0.5773 0.88385 0.0
H1976 H 0.69703 0.59776 0.82633 0.0
H1977 H 0.67497 0.58648 0.80377 0.0
H1978 H 0.67361 0.55343 0.89701 0.0
H1979 H 0.69577 0.56465 0.91643 0.0
C1980 C 0.6399 0.54391 0.79714 0.0
C1981 C 0.63314 0.54978 0.81479 0.0
C1982 C 0.65262 0.55011 0.80865 0.0
C1983 C 0.65886 0.56229 0.83893 0.0
C1984 C 0.65201 0.56804 0.85851 0.0
C1985 C 0.63933 0.56189 0.84617 0.0
C1986 C 0.69203 0.58808 0.84172 0.0
C1987 C 0.69816 0.58213 0.8735 0.0
C1988 C 0.67935 0.58161 0.8294 0.0
C1989 C 0.67244 0.56904 0.84939 0.0
C1990 C 0.67862 0.56305 0.87999 0.0
C1991 C 0.69134 0.56951 0.89148 0.0
H1992 H 0.90027 0.59842 0.82709 0.0
H1993 H 0.86847 0.56515 0.9157 0.0
H1994 H 0.91121 0.58726 0.80545 0.0
H1995 H 0.87955 0.55407 0.89724 0.0
H1996 H 0.89901 0.53535 0.77418 0.0
H1997 H 0.88767 0.54618 0.79234 0.0
H1998 H 0.92056 0.57805 0.88567 0.0
H1999 H 0.93197 0.56737 0.86438 0.0
C2000 C 0.89563 0.58873 0.84232 0.0
C2001 C 0.88351 0.58269 0.87333 0.0
C2002 C 0.90193 0.58233 0.83054 0.0
C2003 C 0.89632 0.56976 0.85025 0.0
C2004 C 0.88413 0.5637 0.88031 0.0
C2005 C 0.87779 0.57007 0.89129 0.0
C2006 C 0.90381 0.54466 0.79888 0.0
C2007 C 0.91642 0.55051 0.81738 0.0
C2008 C 0.89729 0.55086 0.80966 0.0
C2009 C 0.90319 0.56304 0.84005 0.0
C2010 C 0.91576 0.56878 0.8603 0.0
C2011 C 0.92229 0.56262 0.84872 0.0
H2012 H 0.43182 0.36349 0.84229 0.0
H2013 H 0.46363 0.36185 0.75618 0.0
H2014 H 0.42093 0.34146 0.86698 0.0
H2015 H 0.45259 0.33974 0.77767 0.0
H2016 H 0.40018 0.30069 0.81351 0.0
H2017 H 0.41158 0.32271 0.78919 0.0
H2018 H 0.4445 0.32399 0.88475 0.0
H2019 H 0.43316 0.30187 0.90594 0.0
C2020 C 0.43647 0.35841 0.8282 0.0
C2021 C 0.44859 0.36443 0.79701 0.0
C2022 C 0.43019 0.34575 0.84176 0.0
C2023 C 0.43582 0.33875 0.82366 0.0
C2024 C 0.448 0.34482 0.79338 0.0
C2025 C 0.45432 0.35751 0.78064 0.0
C2026 C 0.40986 0.30566 0.82906 0.0
C2027 C 0.41574 0.29952 0.86192 0.0
C2028 C 0.4164 0.31833 0.81572 0.0
C2029 C 0.42897 0.3252 0.8357 0.0
C2030 C 0.43488 0.31901 0.86762 0.0
C2031 C 0.42836 0.30631 0.88015 0.0
H2032 H 0.6346 0.0675 0.85211 0.0
H2033 H 0.63614 0.10077 0.76253 0.0
H2034 H 0.65658 0.07878 0.87871 0.0
H2035 H 0.65821 0.11198 0.786 0.0
H2036 H 0.69585 0.13071 0.91758 0.0
H2037 H 0.67376 0.11978 0.89467 0.0
H2038 H 0.67545 0.08823 0.80234 0.0
H2039 H 0.69744 0.09899 0.82835 0.0
C2040 C 0.63964 0.07722 0.83766 0.0
C2041 C 0.63361 0.08322 0.80491 0.0
C2042 C 0.65228 0.08368 0.85234 0.0
C2043 C 0.65924 0.09629 0.83384 0.0
C2044 C 0.65316 0.10232 0.80203 0.0
C2045 C 0.64049 0.09587 0.78815 0.0
C2046 C 0.69151 0.12145 0.89216 0.0
C2047 C 0.6984 0.1157 0.87528 0.0
C2048 C 0.67883 0.11519 0.87863 0.0
C2049 C 0.67277 0.10307 0.84706 0.0
C2050 C 0.67974 0.09744 0.82854 0.0
C2051 C 0.69238 0.10365 0.84285 0.0
H2052 H 0.56687 0.93153 0.15248 0.0
H2053 H 0.5348 0.89854 0.24171 0.0
H2054 H 0.57758 0.92014 0.1323 0.0
H2055 H 0.54567 0.88722 0.22457 0.0
H2056 H 0.56518 0.86824 0.10379 0.0
H2057 H 0.55385 0.87911 0.12093 0.0
H2058 H 0.58669 0.91092 0.21536 0.0
H2059 H 0.59808 0.90021 0.1952 0.0
C2060 C 0.56211 0.92184 0.16813 0.0
C2061 C 0.54999 0.91596 0.19903 0.0
C2062 C 0.5683 0.91532 0.15718 0.0
C2063 C 0.56256 0.90276 0.17765 0.0
C2064 C 0.55035 0.89684 0.20725 0.0
C2065 C 0.54412 0.90335 0.21743 0.0
C2066 C 0.56996 0.87754 0.12857 0.0
C2067 C 0.58255 0.88338 0.14754 0.0
C2068 C 0.56345 0.88377 0.13873 0.0
C2069 C 0.56936 0.89595 0.16888 0.0
C2070 C 0.58189 0.90166 0.19 0.0
C2071 C 0.58841 0.89548 0.17908 0.0
H2072 H 0.13097 0.69843 0.18289 0.0
H2073 H 0.09705 0.69604 0.10087 0.0
H2074 H 0.12015 0.67642 0.21076 0.0
H2075 H 0.08634 0.67404 0.1242 0.0
H2076 H 0.06785 0.63705 0.25561 0.0
H2077 H 0.07894 0.65904 0.2321 0.0
H2078 H 0.11051 0.657 0.14442 0.0
H2079 H 0.09953 0.63499 0.17248 0.0
C2080 C 0.12122 0.69317 0.17018 0.0
C2081 C 0.11486 0.69898 0.14004 0.0
C2082 C 0.11501 0.68053 0.18552 0.0
C2083 C 0.10233 0.67337 0.16982 0.0
C2084 C 0.09604 0.67923 0.13896 0.0
C2085 C 0.1022 0.69187 0.12504 0.0
C2086 C 0.07716 0.64129 0.23116 0.0
C2087 C 0.08282 0.63428 0.21589 0.0
C2088 C 0.08352 0.65393 0.21713 0.0
C2089 C 0.09565 0.65988 0.18587 0.0
C2090 C 0.10127 0.65282 0.16993 0.0
C2091 C 0.09496 0.64017 0.1854 0.0
H2092 H 0.3016 0.43338 0.18115 0.0
H2093 H 0.30312 0.40126 0.10202 0.0
H2094 H 0.3237 0.44432 0.20546 0.0
H2095 H 0.32518 0.41229 0.12177 0.0
H2096 H 0.36261 0.4306 0.24627 0.0
H2097 H 0.34055 0.41998 0.2267 0.0
H2098 H 0.34293 0.45364 0.1363 0.0
H2099 H 0.36502 0.4644 0.16041 0.0
C2100 C 0.30668 0.42869 0.16838 0.0
C2101 C 0.3006 0.41644 0.14008 0.0
C2102 C 0.31937 0.43499 0.18165 0.0
C2103 C 0.32631 0.42924 0.16569 0.0
C2104 C 0.32018 0.41699 0.13671 0.0
C2105 C 0.30749 0.41065 0.12486 0.0
C2106 C 0.35843 0.43574 0.22201 0.0
C2107 C 0.36557 0.44835 0.20482 0.0
C2108 C 0.34575 0.42962 0.21026 0.0
C2109 C 0.33986 0.43589 0.17942 0.0
C2110 C 0.34706 0.44852 0.16156 0.0
C2111 C 0.35975 0.45469 0.17472 0.0
H2112 H 0.76387 0.73463 0.42841 0.0
H2113 H 0.79768 0.76586 0.51574 0.0
H2114 H 0.75323 0.74598 0.45108 0.0
H2115 H 0.78689 0.77711 0.54288 0.0
H2116 H 0.76636 0.79807 0.50354 0.0
H2117 H 0.77741 0.78709 0.47631 0.0
H2118 H 0.74562 0.75334 0.55918 0.0
H2119 H 0.73447 0.7642 0.58192 0.0
C2120 C 0.76901 0.74389 0.45358 0.0
C2121 C 0.78163 0.74934 0.47039 0.0
C2122 C 0.76288 0.7504 0.46713 0.0
C2123 C 0.76914 0.76248 0.49943 0.0
C2124 C 0.78178 0.76791 0.51665 0.0
C2125 C 0.78797 0.76144 0.5017 0.0
C2126 C 0.76175 0.78829 0.51556 0.0
C2127 C 0.74953 0.782 0.54446 0.0
C2128 C 0.76811 0.782 0.50059 0.0
C2129 C 0.76244 0.76928 0.51535 0.0
C2130 C 0.75024 0.76305 0.54509 0.0
C2131 C 0.74384 0.76931 0.55867 0.0
H2132 H 0.26448 0.0312 0.53072 0.0
H2133 H 0.23157 0.03044 0.44151 0.0
H2134 H 0.25301 0.00911 0.55131 0.0
H2135 H 0.22015 0.00825 0.45908 0.0
H2136 H 0.20107 0.96977 0.58047 0.0
H2137 H 0.212 0.99197 0.5629 0.0
H2138 H 0.24372 0.99078 0.4684 0.0
H2139 H 0.23295 0.96869 0.48895 0.0
C2140 C 0.25479 0.02631 0.51516 0.0
C2141 C 0.24896 0.03259 0.48411 0.0
C2142 C 0.24822 0.01361 0.52634 0.0
C2143 C 0.23566 0.00683 0.50598 0.0
C2144 C 0.22978 0.01316 0.47629 0.0
C2145 C 0.23634 0.02589 0.46587 0.0
C2146 C 0.21036 0.97425 0.55558 0.0
C2147 C 0.21616 0.96746 0.53673 0.0
C2148 C 0.21662 0.98699 0.54518 0.0
C2149 C 0.2288 0.99323 0.51491 0.0
C2150 C 0.23446 0.98635 0.49386 0.0
C2151 C 0.22825 0.97365 0.50502 0.0
H2152 H 0.97022 0.23475 0.42396 0.0
H2153 H 0.96821 0.20109 0.50865 0.0
H2154 H 0.99221 0.24566 0.44664 0.0
H2155 H 0.99026 0.21215 0.5358 0.0
H2156 H 0.03183 0.23349 0.49698 0.0
H2157 H 0.0098 0.22206 0.46956 0.0
H2158 H 0.00702 0.25328 0.55591 0.0
H2159 H 0.02899 0.26479 0.57885 0.0
C2160 C 0.97447 0.2297 0.44855 0.0
C2161 C 0.96746 0.21706 0.4647 0.0
C2162 C 0.98711 0.23599 0.4621 0.0
C2163 C 0.99308 0.22985 0.49378 0.0
C2164 C 0.98604 0.21717 0.51015 0.0
C2165 C 0.97338 0.21083 0.49519 0.0
C2166 C 0.02648 0.23789 0.50974 0.0
C2167 C 0.03216 0.25006 0.53954 0.0
C2168 C 0.01383 0.23132 0.49463 0.0
C2169 C 0.00656 0.23672 0.51017 0.0
C2170 C 0.01229 0.24886 0.5411 0.0
C2171 C 0.02493 0.25547 0.55481 0.0
H2172 H 0.23273 0.20198 0.51005 0.0
H2173 H 0.26445 0.23566 0.42656 0.0
H2174 H 0.22181 0.21307 0.5384 0.0
H2175 H 0.25343 0.24662 0.45036 0.0
H2176 H 0.23539 0.26561 0.58187 0.0
H2177 H 0.24607 0.25429 0.55819 0.0
H2178 H 0.21221 0.22288 0.47216 0.0
H2179 H 0.20142 0.23408 0.50036 0.0
C2180 C 0.23732 0.21174 0.4971 0.0
C2181 C 0.24945 0.21794 0.46641 0.0
C2182 C 0.23105 0.2181 0.51273 0.0
C2183 C 0.2367 0.23079 0.49676 0.0
C2184 C 0.24882 0.23693 0.46534 0.0
C2185 C 0.25515 0.23062 0.45114 0.0
C2186 C 0.23023 0.25629 0.55773 0.0
C2187 C 0.21756 0.25073 0.54302 0.0
C2188 C 0.23637 0.24979 0.54363 0.0
C2189 C 0.23005 0.23763 0.51287 0.0
C2190 C 0.21737 0.23213 0.49736 0.0
C2191 C 0.21118 0.23858 0.51289 0.0
H2192 H 0.79786 0.03171 0.52186 0.0
H2193 H 0.76397 0.02934 0.43907 0.0
H2194 H 0.78708 0.00959 0.54604 0.0
H2195 H 0.75335 0.0073 0.4587 0.0
H2196 H 0.73459 0.97021 0.58553 0.0
H2197 H 0.74588 0.99224 0.56578 0.0
H2198 H 0.77742 0.99017 0.47769 0.0
H2199 H 0.76619 0.96804 0.50199 0.0
C2200 C 0.78813 0.02645 0.50825 0.0
C2201 C 0.78176 0.03229 0.47919 0.0
C2202 C 0.78195 0.01374 0.52147 0.0
C2203 C 0.7693 0.00659 0.50473 0.0
C2204 C 0.76302 0.01248 0.47446 0.0
C2205 C 0.76913 0.02516 0.46268 0.0
C2206 C 0.74393 0.97443 0.56173 0.0
C2207 C 0.74948 0.96736 0.54504 0.0
C2208 C 0.75041 0.98711 0.54987 0.0
C2209 C 0.76258 0.99306 0.51934 0.0
C2210 C 0.76814 0.98596 0.50244 0.0
C2211 C 0.76168 0.97326 0.51574 0.0
H2212 H 0.96962 0.73399 0.4319 0.0
H2213 H 0.96751 0.76567 0.51425 0.0
H2214 H 0.99166 0.74523 0.45342 0.0
H2215 H 0.98955 0.7768 0.54036 0.0
H2216 H 0.03087 0.79752 0.49855 0.0
H2217 H 0.00882 0.78649 0.47246 0.0
H2218 H 0.00694 0.7529 0.55909 0.0
H2219 H 0.02898 0.76382 0.58058 0.0
C2220 C 0.97386 0.74333 0.4558 0.0
C2221 C 0.96682 0.74895 0.47135 0.0
C2222 C 0.98652 0.74978 0.46867 0.0
C2223 C 0.99248 0.76196 0.49902 0.0
C2224 C 0.98537 0.76753 0.51543 0.0
C2225 C 0.97271 0.76112 0.50112 0.0
C2226 C 0.02572 0.78776 0.51162 0.0
C2227 C 0.03167 0.78154 0.54128 0.0
C2228 C 0.01305 0.78144 0.49732 0.0
C2229 C 0.00601 0.76876 0.51364 0.0
C2230 C 0.01202 0.76259 0.5439 0.0
C2231 C 0.02469 0.76887 0.55676 0.0
H2232 H 0.22022 0.38756 1.00669 0.0
H2233 H 0.23559 0.41863 0.18143 0.0
H2234 H 0.20157 0.38868 0.99426 0.0
H2235 H 0.2166 0.41942 0.17289 0.0
H2236 H 0.18176 0.42075 0.10823 0.0
H2237 H 0.202 0.42268 0.09247 0.0
H2238 H 0.18503 0.3832 0.08904 0.0
H2239 H 0.16508 0.38131 0.10128 0.0
C2240 C 0.2196 0.39468 0.04213 0.0
C2241 C 0.22927 0.40291 0.09584 0.0
C2242 C 0.20888 0.39528 0.03558 0.0
C2243 C 0.20742 0.40395 0.0843 0.0
C2244 C 0.2174 0.41265 0.1342 0.0
C2245 C 0.22827 0.41219 0.1394 0.0
C2246 C 0.18239 0.41252 0.10317 0.0
C2247 C 0.17177 0.40089 0.10606 0.0
C2248 C 0.19399 0.41361 0.0946 0.0
C2249 C 0.19519 0.40311 0.08885 0.0
C2250 C 0.18452 0.39153 0.09105 0.0
C2251 C 0.17301 0.39044 0.09896 0.0
H2252 H 0.61332 0.7795 0.0102 0.0
H2253 H 0.58177 0.76382 0.18046 0.0
H2254 H 0.61218 0.79814 0.99773 0.0
H2255 H 0.58094 0.78278 0.1719 0.0
H2256 H 0.57953 0.81751 0.1071 0.0
H2257 H 0.5778 0.79736 0.09093 0.0
H2258 H 0.6173 0.81458 0.09277 0.0
H2259 H 0.61901 0.83446 0.10537 0.0
C2260 C 0.6061 0.78005 0.04468 0.0
C2261 C 0.59773 0.77029 0.09714 0.0
C2262 C 0.60548 0.79076 0.03809 0.0
C2263 C 0.59665 0.79212 0.0855 0.0
C2264 C 0.58784 0.78207 0.13418 0.0
C2265 C 0.58832 0.77121 0.13942 0.0
C2266 C 0.58782 0.81695 0.10312 0.0
C2267 C 0.5994 0.82762 0.1076 0.0
C2268 C 0.58684 0.8054 0.09431 0.0
C2269 C 0.59741 0.8043 0.08999 0.0
C2270 C 0.60894 0.81502 0.09369 0.0
C2271 C 0.60992 0.82648 0.10179 0.0
H2272 H 0.1816 0.76407 0.17715 0.0
H2273 H 0.16561 0.77956 1.00611 0.0
H2274 H 0.20132 0.7831 0.16873 0.0
H2275 H 0.18534 0.79828 0.99385 0.0
H2276 H 0.21458 0.83467 0.10249 0.0
H2277 H 0.1965 0.81472 0.08957 0.0
H2278 H 0.21902 0.79776 0.08762 0.0
H2279 H 0.23734 0.81797 0.10405 0.0
C2280 C 0.1824 0.77143 0.13596 0.0
C2281 C 0.17206 0.77045 0.09344 0.0
C2282 C 0.19371 0.78233 0.13081 0.0
C2283 C 0.19489 0.79235 0.082 0.0
C2284 C 0.1847 0.79092 0.0343 0.0
C2285 C 0.1734 0.78017 0.04077 0.0
C2286 C 0.21576 0.82673 0.09883 0.0
C2287 C 0.22745 0.82796 0.10465 0.0
C2288 C 0.20533 0.81523 0.09054 0.0
C2289 C 0.20625 0.80457 0.0867 0.0
C2290 C 0.21796 0.80576 0.09109 0.0
C2291 C 0.22846 0.81735 0.10006 0.0
H2292 H 0.38576 0.16546 0.01232 0.0
H2293 H 0.41751 0.18122 0.84385 0.0
H2294 H 0.3867 0.18518 0.02133 0.0
H2295 H 0.41814 0.20093 0.84905 0.0
H2296 H 0.41913 0.23703 0.90818 0.0
H2297 H 0.42102 0.21875 0.92767 0.0
H2298 H 0.38156 0.19618 0.92294 0.0
H2299 H 0.37969 0.21423 0.90693 0.0
C2300 C 0.39299 0.1732 0.97755 0.0
C2301 C 0.40147 0.17179 0.92653 0.0
C2302 C 0.39349 0.1845 0.98214 0.0
C2303 C 0.40232 0.19461 0.9342 0.0
C2304 C 0.41125 0.19338 0.8871 0.0
C2305 C 0.41087 0.18208 0.88381 0.0
C2306 C 0.41088 0.22816 0.91216 0.0
C2307 C 0.39926 0.22713 0.90592 0.0
C2308 C 0.41196 0.21768 0.9229 0.0
C2309 C 0.40145 0.20596 0.92747 0.0
C2310 C 0.38987 0.20503 0.92189 0.0
C2311 C 0.3888 0.21543 0.91182 0.0
H2312 H 0.81804 0.23732 0.90672 0.0
H2313 H 0.83461 0.21446 0.89901 0.0
H2314 H 0.79788 0.21904 0.92589 0.0
H2315 H 0.81467 0.1964 0.91478 0.0
H2316 H 0.77973 0.16565 1.00557 0.0
H2317 H 0.79863 0.18527 0.01394 0.0
H2318 H 0.78282 0.20141 0.84644 0.0
H2319 H 0.76364 0.1818 0.84173 0.0
C2320 C 0.8174 0.22842 0.90916 0.0
C2321 C 0.82796 0.22738 0.90126 0.0
C2322 C 0.80584 0.21795 0.91973 0.0
C2323 C 0.80461 0.20621 0.92242 0.0
C2324 C 0.81523 0.20525 0.91514 0.0
C2325 C 0.82671 0.21566 0.90525 0.0
C2326 C 0.78024 0.17345 0.97168 0.0
C2327 C 0.77028 0.17218 0.92215 0.0
C2328 C 0.7911 0.18469 0.9759 0.0
C2329 C 0.79239 0.19489 0.92917 0.0
C2330 C 0.78216 0.19378 0.88354 0.0
C2331 C 0.77118 0.18254 0.88056 0.0
H2332 H 0.81691 0.5811 0.83773 0.0
H2333 H 0.83291 0.613 1.00478 0.0
H2334 H 0.79712 0.58028 0.8462 0.0
H2335 H 0.81313 0.61187 0.01711 0.0
H2336 H 0.7835 0.61842 0.90923 0.0
H2337 H 0.8017 0.61677 0.92124 0.0
H2338 H 0.77947 0.57727 0.92786 0.0
H2339 H 0.76101 0.57894 0.91234 0.0
C2340 C 0.8161 0.58774 0.87802 0.0
C2341 C 0.82646 0.59724 0.91942 0.0
C2342 C 0.80476 0.58725 0.88321 0.0
C2343 C 0.80356 0.59616 0.93095 0.0
C2344 C 0.81378 0.60509 0.97747 0.0
C2345 C 0.82511 0.6057 0.97095 0.0
C2346 C 0.7824 0.60934 0.91371 0.0
C2347 C 0.77074 0.5988 0.90954 0.0
C2348 C 0.79291 0.6084 0.92147 0.0
C2349 C 0.79211 0.59688 0.92643 0.0
C2350 C 0.78044 0.58629 0.92353 0.0
C2351 C 0.76986 0.58724 0.91508 0.0
H2352 H 0.84808 0.75312 0.43604 0.0
H2353 H 0.83125 0.71365 0.43635 0.0
H2354 H 0.86826 0.75491 0.42039 0.0
H2355 H 0.85115 0.71541 0.42412 0.0
H2356 H 0.88614 0.71941 0.33943 0.0
H2357 H 0.86749 0.72054 0.32767 0.0
H2358 H 0.88294 0.75181 0.50157 0.0
H2359 H 0.90191 0.75099 0.50954 0.0
C2360 C 0.84867 0.74485 0.43266 0.0
C2361 C 0.83802 0.73325 0.43743 0.0
C2362 C 0.86023 0.74587 0.42413 0.0
C2363 C 0.86137 0.73531 0.4203 0.0
C2364 C 0.85068 0.72376 0.42459 0.0
C2365 C 0.8392 0.72275 0.43248 0.0
C2366 C 0.88561 0.72664 0.37402 0.0
C2367 C 0.89539 0.73501 0.42627 0.0
C2368 C 0.87489 0.72725 0.36783 0.0
C2369 C 0.87356 0.73608 0.4154 0.0
C2370 C 0.88364 0.74491 0.4638 0.0
C2371 C 0.8945 0.74443 0.46868 0.0
H2372 H 0.24574 0.09515 0.44142 0.0
H2373 H 0.28518 0.11798 0.44041 0.0
H2374 H 0.2438 0.1134 0.42237 0.0
H2375 H 0.28326 0.13601 0.42475 0.0
H2376 H 0.27888 0.16662 0.33507 0.0
H2377 H 0.27794 0.1469 0.32628 0.0
H2378 H 0.24678 0.13129 0.50112 0.0
H2379 H 0.24741 0.15101 0.5062 0.0
C2380 C 0.25398 0.10403 0.43704 0.0
C2381 C 0.26561 0.10507 0.4425 0.0
C2382 C 0.25287 0.11449 0.42655 0.0
C2383 C 0.26337 0.12621 0.42142 0.0
C2384 C 0.27496 0.12716 0.42626 0.0
C2385 C 0.27606 0.11677 0.43611 0.0
C2386 C 0.27171 0.15891 0.37043 0.0
C2387 C 0.26332 0.16036 0.42214 0.0
C2388 C 0.27121 0.14761 0.36597 0.0
C2389 C 0.26247 0.13754 0.41471 0.0
C2390 C 0.25361 0.13882 0.46248 0.0
C2391 C 0.25398 0.15012 0.46567 0.0
H2392 H 0.83144 0.11765 0.44231 0.0
H2393 H 0.84803 0.09479 0.43974 0.0
H2394 H 0.85138 0.13569 0.42764 0.0
H2395 H 0.86823 0.11308 0.42154 0.0
H2396 H 0.90225 0.15051 0.50696 0.0
H2397 H 0.88315 0.13082 0.50102 0.0
H2398 H 0.86755 0.14678 0.32979 0.0
H2399 H 0.88635 0.16647 0.33958 0.0
C2400 C 0.83935 0.11644 0.4374 0.0
C2401 C 0.83809 0.10473 0.4425 0.0
C2402 C 0.85084 0.12685 0.4281 0.0
C2403 C 0.86147 0.1259 0.42248 0.0
C2404 C 0.86025 0.11417 0.42634 0.0
C2405 C 0.84867 0.10368 0.43634 0.0
C2406 C 0.89477 0.14971 0.46711 0.0
C2407 C 0.89568 0.16004 0.4249 0.0
C2408 C 0.88384 0.13842 0.46339 0.0
C2409 C 0.87369 0.13724 0.41634 0.0
C2410 C 0.87501 0.14742 0.36895 0.0
C2411 C 0.88581 0.15869 0.374 0.0
H2412 H 0.0846 0.56922 0.17608 0.0
H2413 H 0.05328 0.5536 0.34856 0.0
H2414 H 0.08521 0.55013 0.18209 0.0
H2415 H 0.0542 0.53481 0.35832 0.0
H2416 H 0.04675 0.49853 0.24565 0.0
H2417 H 0.04875 0.51852 0.26056 0.0
H2418 H 0.08821 0.53526 0.26127 0.0
H2419 H 0.08617 0.515 0.24296 0.0
C2420 C 0.07806 0.56182 0.2171 0.0
C2421 C 0.06876 0.56279 0.26072 0.0
C2422 C 0.07842 0.55088 0.22083 0.0
C2423 C 0.06959 0.54081 0.26927 0.0
C2424 C 0.0609 0.54222 0.31812 0.0
C2425 C 0.06041 0.55301 0.31309 0.0
C2426 C 0.05589 0.50642 0.24943 0.0
C2427 C 0.0663 0.50512 0.24279 0.0
C2428 C 0.05704 0.51795 0.25886 0.0
C2429 C 0.06865 0.52856 0.26303 0.0
C2430 C 0.07912 0.52729 0.25764 0.0
C2431 C 0.07796 0.51569 0.24758 0.0
H2432 H 0.49935 0.55324 0.34681 0.0
H2433 H 0.4838 0.56931 0.17697 0.0
H2434 H 0.47964 0.53444 0.3544 0.0
H2435 H 0.46408 0.55019 0.18091 0.0
H2436 H 0.42791 0.51489 0.24068 0.0
H2437 H 0.44614 0.53512 0.25944 0.0
H2438 H 0.46887 0.5184 0.25426 0.0
H2439 H 0.45088 0.49843 0.2388 0.0
C2440 C 0.49166 0.55275 0.31145 0.0
C2441 C 0.49313 0.56266 0.26045 0.0
C2442 C 0.48037 0.54194 0.31524 0.0
C2443 C 0.47032 0.54066 0.26652 0.0
C2444 C 0.4716 0.55085 0.21947 0.0
C2445 C 0.4829 0.5618 0.21695 0.0
C2446 C 0.43681 0.51557 0.24432 0.0
C2447 C 0.4379 0.50501 0.2383 0.0
C2448 C 0.44726 0.52717 0.25466 0.0
C2449 C 0.459 0.52843 0.25912 0.0
C2450 C 0.46 0.51782 0.25336 0.0
C2451 C 0.44963 0.50631 0.24362 0.0
H2452 H 0.48401 0.91231 0.24085 0.0
H2453 H 0.50044 0.95174 0.24252 0.0
H2454 H 0.46377 0.91025 0.25991 0.0
H2455 H 0.48045 0.9497 0.25821 0.0
H2456 H 0.44539 0.94511 0.34777 0.0
H2457 H 0.46421 0.94426 0.3567 0.0
H2458 H 0.44883 0.91318 0.18106 0.0
H2459 H 0.4297 0.91372 0.17583 0.0
C2460 C 0.48332 0.92052 0.24539 0.0
C2461 C 0.49387 0.93218 0.2401 0.0
C2462 C 0.47172 0.91934 0.25589 0.0
C2463 C 0.47044 0.9298 0.26121 0.0
C2464 C 0.48104 0.94142 0.25655 0.0
C2465 C 0.49256 0.94259 0.24668 0.0
C2466 C 0.44597 0.93797 0.31227 0.0
C2467 C 0.43616 0.92958 0.26028 0.0
C2468 C 0.45679 0.93752 0.31682 0.0
C2469 C 0.45819 0.92884 0.26789 0.0
C2470 C 0.44809 0.91997 0.21985 0.0
C2471 C 0.43713 0.92029 0.21657 0.0
H2472 H 0.56842 0.0841 0.83828 0.0
H2473 H 0.55256 0.05227 0.6705 0.0
H2474 H 0.5493 0.08464 0.83255 0.0
H2475 H 0.53374 0.05312 0.66093 0.0
H2476 H 0.49762 0.04603 0.7748 0.0
H2477 H 0.51757 0.04796 0.75891 0.0
H2478 H 0.53434 0.08742 0.75362 0.0
H2479 H 0.51415 0.08546 0.77303 0.0
C2480 C 0.56095 0.07742 0.79837 0.0
C2481 C 0.56187 0.06802 0.75601 0.0
C2482 C 0.55 0.07774 0.79476 0.0
C2483 C 0.53986 0.06877 0.74768 0.0
C2484 C 0.5412 0.05995 0.70009 0.0
C2485 C 0.55202 0.0595 0.70502 0.0
C2486 C 0.50551 0.05515 0.76981 0.0
C2487 C 0.50425 0.0656 0.77558 0.0
C2488 C 0.51701 0.05627 0.7598 0.0
C2489 C 0.52762 0.06786 0.75414 0.0
C2490 C 0.52638 0.07835 0.75848 0.0
C2491 C 0.51481 0.07723 0.76919 0.0
H2492 H 0.9459 0.44596 0.67239 0.0
H2493 H 0.91425 0.43024 0.84177 0.0
H2494 H 0.94502 0.46477 0.66233 0.0
H2495 H 0.91368 0.44935 0.83552 0.0
H2496 H 0.91279 0.48446 0.77471 0.0
H2497 H 0.91081 0.46424 0.75621 0.0
H2498 H 0.95027 0.48103 0.75969 0.0
H2499 H 0.95222 0.501 0.7747 0.0
C2500 C 0.9387 0.44653 0.70715 0.0
C2501 C 0.93024 0.43672 0.75871 0.0
C2502 C 0.93824 0.45734 0.70194 0.0
C2503 C 0.92946 0.45872 0.74982 0.0
C2504 C 0.92054 0.44862 0.7975 0.0
C2505 C 0.92088 0.43767 0.80139 0.0
C2506 C 0.92102 0.4838 0.77065 0.0
C2507 C 0.93266 0.49437 0.77627 0.0
C2508 C 0.91989 0.47221 0.76048 0.0
C2509 C 0.93038 0.47097 0.75588 0.0
C2510 C 0.94197 0.48159 0.76079 0.0
C2511 C 0.94309 0.4931 0.77028 0.0
H2512 H 0.57067 0.48385 0.77191 0.0
H2513 H 0.54779 0.5004 0.7787 0.0
H2514 H 0.55239 0.46367 0.75279 0.0
H2515 H 0.52975 0.48047 0.76296 0.0
H2516 H 0.49907 0.44565 0.67101 0.0
H2517 H 0.51874 0.46449 0.66294 0.0
H2518 H 0.53464 0.44859 0.83195 0.0
H2519 H 0.51496 0.42946 0.8363 0.0
C2520 C 0.56178 0.4832 0.76928 0.0
C2521 C 0.56072 0.49376 0.77683 0.0
C2522 C 0.5513 0.47163 0.75873 0.0
C2523 C 0.53957 0.47041 0.75565 0.0
C2524 C 0.5386 0.48102 0.7628 0.0
C2525 C 0.54901 0.49251 0.77269 0.0
C2526 C 0.50682 0.44613 0.7053 0.0
C2527 C 0.50546 0.43617 0.75516 0.0
C2528 C 0.51809 0.45695 0.70123 0.0
C2529 C 0.52824 0.4582 0.74852 0.0
C2530 C 0.52705 0.44796 0.79445 0.0
C2531 C 0.51577 0.43701 0.79724 0.0
H2532 H 0.72013 0.83308 0.67902 0.0
H2533 H 0.7514 0.84892 0.50602 0.0
H2534 H 0.72123 0.85285 0.69163 0.0
H2535 H 0.75216 0.86869 0.51473 0.0
H2536 H 0.71399 0.88206 0.58428 0.0
H2537 H 0.71586 0.86398 0.59663 0.0
H2538 H 0.75534 0.88647 0.59557 0.0
H2539 H 0.75344 0.9048 0.57969 0.0
C2540 C 0.72729 0.84085 0.64399 0.0
C2541 C 0.73558 0.83946 0.5907 0.0
C2542 C 0.72788 0.85217 0.65065 0.0
C2543 C 0.7366 0.86233 0.60249 0.0
C2544 C 0.74535 0.8611 0.55301 0.0
C2545 C 0.7449 0.84977 0.54769 0.0
C2546 C 0.72311 0.88324 0.58715 0.0
C2547 C 0.73357 0.89493 0.58066 0.0
C2548 C 0.72419 0.87281 0.59513 0.0
C2549 C 0.73576 0.87371 0.598 0.0
C2550 C 0.74628 0.88542 0.59289 0.0
C2551 C 0.7452 0.89593 0.58425 0.0
H2552 H 0.09657 0.84863 0.50271 0.0
H2553 H 0.11219 0.83285 0.67448 0.0
H2554 H 0.11552 0.86844 0.51132 0.0
H2555 H 0.13081 0.85265 0.68698 0.0
H2556 H 0.16717 0.8821 0.57996 0.0
H2557 H 0.14729 0.86393 0.59223 0.0
H2558 H 0.13006 0.8862 0.5922 0.0
H2559 H 0.15022 0.90462 0.57639 0.0
C2560 C 0.10394 0.8495 0.54409 0.0
C2561 C 0.10301 0.83919 0.58679 0.0
C2562 C 0.11479 0.86085 0.54935 0.0
C2563 C 0.12482 0.86211 0.59846 0.0
C2564 C 0.12345 0.85195 0.64627 0.0
C2565 C 0.11274 0.84061 0.63968 0.0
C2566 C 0.1592 0.88321 0.58306 0.0
C2567 C 0.16034 0.89487 0.57686 0.0
C2568 C 0.14773 0.87273 0.59097 0.0
C2569 C 0.13701 0.87354 0.59406 0.0
C2570 C 0.13811 0.88522 0.5893 0.0
C2571 C 0.14966 0.89578 0.58071 0.0
H2572 H 0.15076 0.24882 0.50636 0.0
H2573 H 0.16656 0.28026 0.67786 0.0
H2574 H 0.13098 0.24799 0.51483 0.0
H2575 H 0.14677 0.2791 0.69023 0.0
H2576 H 0.11745 0.28608 0.58139 0.0
H2577 H 0.13557 0.28432 0.5946 0.0
H2578 H 0.11321 0.24482 0.59561 0.0
H2579 H 0.09484 0.24661 0.57885 0.0
C2580 C 0.14991 0.25534 0.54766 0.0
C2581 C 0.16021 0.26473 0.59029 0.0
C2582 C 0.13856 0.25485 0.55285 0.0
C2583 C 0.13731 0.26363 0.60182 0.0
C2584 C 0.14746 0.27242 0.64965 0.0
C2585 C 0.1588 0.27305 0.64311 0.0
C2586 C 0.1163 0.27698 0.5849 0.0
C2587 C 0.10464 0.26648 0.57869 0.0
C2588 C 0.12676 0.27597 0.59338 0.0
C2589 C 0.12591 0.26442 0.59704 0.0
C2590 C 0.11422 0.25386 0.5923 0.0
C2591 C 0.10369 0.25489 0.58313 0.0
H2592 H 0.08578 0.29827 0.83747 0.0
H2593 H 0.10796 0.31684 0.61107 0.0
H2594 H 0.09719 0.3169 0.92345 0.0
H2595 H 0.11947 0.33543 0.69773 0.0
H2596 H 0.12456 0.3501 0.07308 0.0
H2597 H 0.11736 0.33148 0.98658 0.0
H2598 H 0.11404 0.35016 0.76008 0.0
H2599 H 0.12138 0.36882 0.84589 0.0
C2600 C 0.0932 0.30626 0.80635 0.0
C2601 C 0.09585 0.3061 0.7171 0.0
C2602 C 0.0998 0.31692 0.85585 0.0
C2603 C 0.10917 0.32765 0.81713 0.0
C2604 C 0.11219 0.32734 0.72898 0.0
C2605 C 0.10563 0.31666 0.67953 0.0
C2606 C 0.12248 0.3503 1.00448 0.0
C2607 C 0.12341 0.36092 0.96662 0.0
C2608 C 0.11829 0.33961 0.95513 0.0
C2609 C 0.11504 0.33933 0.8668 0.0
C2610 C 0.11657 0.35011 0.82783 0.0
C2611 C 0.12069 0.36078 0.87721 0.0
H2612 H 0.63137 0.75295 0.84463 0.0
H2613 H 0.64941 0.77513 0.07225 0.0
H2614 H 0.65022 0.76441 0.76068 0.0
H2615 H 0.6682 0.78663 0.98779 0.0
H2616 H 0.68373 0.79234 0.61512 0.0
H2617 H 0.6649 0.78488 0.69947 0.0
H2618 H 0.68306 0.78106 0.92713 0.0
H2619 H 0.70194 0.78862 0.84332 0.0
C2620 C 0.63929 0.76038 0.87641 0.0
C2621 C 0.63891 0.76303 0.9654 0.0
C2622 C 0.65007 0.767 0.82813 0.0
C2623 C 0.6607 0.77636 0.86791 0.0
C2624 C 0.66018 0.77936 0.95578 0.0
C2625 C 0.64939 0.7728 1.00393 0.0
C2626 C 0.68378 0.7901 0.68355 0.0
C2627 C 0.69431 0.79096 0.72228 0.0
C2628 C 0.67297 0.78576 0.73163 0.0
C2629 C 0.67249 0.78231 0.81961 0.0
C2630 C 0.68318 0.78374 0.85958 0.0
C2631 C 0.69397 0.788 0.81138 0.0
H2632 H 0.21133 0.91415 0.83505 0.0
H2633 H 0.20769 0.89186 0.60916 0.0
H2634 H 0.21863 0.90282 0.92123 0.0
H2635 H 0.21486 0.88045 0.69601 0.0
H2636 H 0.22433 0.87538 0.07144 0.0
H2637 H 0.21299 0.88264 0.98464 0.0
H2638 H 0.23503 0.8859 0.7586 0.0
H2639 H 0.24628 0.8785 0.84474 0.0
C2640 C 0.21192 0.90672 0.80408 0.0
C2641 C 0.20906 0.90401 0.71493 0.0
C2642 C 0.21602 0.90017 0.85368 0.0
C2643 C 0.21739 0.89079 0.81518 0.0
C2644 C 0.21404 0.88773 0.7271 0.0
C2645 C 0.20987 0.89424 0.67755 0.0
C2646 C 0.22664 0.87746 1.00288 0.0
C2647 C 0.23631 0.87649 0.96525 0.0
C2648 C 0.22018 0.88168 0.95337 0.0
C2649 C 0.22318 0.88493 0.86507 0.0
C2650 C 0.23243 0.88338 0.82632 0.0
C2651 C 0.23894 0.87922 0.87589 0.0
H2652 H 0.2977 0.08619 0.18706 0.0
H2653 H 0.31638 0.10781 0.41535 0.0
H2654 H 0.3165 0.09737 0.10225 0.0
H2655 H 0.33514 0.11906 0.32998 0.0
H2656 H 0.35008 0.12493 0.95575 0.0
H2657 H 0.33142 0.11773 0.04169 0.0
H2658 H 0.34959 0.11319 0.26643 0.0
H2659 H 0.3683 0.1205 0.18108 0.0
C2660 C 0.30576 0.09344 0.21884 0.0
C2661 C 0.30557 0.09602 0.30821 0.0
C2662 C 0.31651 0.0999 0.17007 0.0
C2663 C 0.32731 0.10904 0.20968 0.0
C2664 C 0.32699 0.11196 0.29804 0.0
C2665 C 0.31622 0.10556 0.34673 0.0
C2666 C 0.35017 0.12257 0.02387 0.0
C2667 C 0.36065 0.12317 0.06132 0.0
C2668 C 0.33945 0.11839 0.07287 0.0
C2669 C 0.33902 0.11481 0.16051 0.0
C2670 C 0.34967 0.11597 0.1992 0.0
C2671 C 0.36037 0.12009 0.15009 0.0
H2672 H 0.88762 0.23471 0.92686 0.0
H2673 H 0.86791 0.237 0.15005 0.0
H2674 H 0.89547 0.22412 0.01483 0.0
H2675 H 0.87481 0.2254 0.23748 0.0
H2676 H 0.90157 0.21915 0.39815 0.0
H2677 H 0.89134 0.22735 0.31001 0.0
H2678 H 0.89315 0.20729 0.08536 0.0
H2679 H 0.90441 0.20002 0.17322 0.0
C2680 C 0.88471 0.2326 0.99453 0.0
C2681 C 0.87721 0.23665 0.03209 0.0
C2682 C 0.88913 0.22643 0.04515 0.0
C2683 C 0.88586 0.22384 0.13409 0.0
C2684 C 0.87785 0.22747 0.1702 0.0
C2685 C 0.87377 0.23401 0.1201 0.0
C2686 C 0.89964 0.21642 0.33004 0.0
C2687 C 0.90375 0.20899 0.29212 0.0
C2688 C 0.89368 0.22105 0.27927 0.0
C2689 C 0.89136 0.21807 0.18973 0.0
C2690 C 0.89502 0.21012 0.15318 0.0
C2691 C 0.90136 0.20581 0.20351 0.0
H2692 H 0.77381 0.64882 0.94352 0.0
H2693 H 0.75178 0.63067 0.17146 0.0
H2694 H 0.78532 0.66759 0.02811 0.0
H2695 H 0.7632 0.64951 0.25545 0.0
H2696 H 0.78772 0.70138 0.17279 0.0
H2697 H 0.78008 0.68251 0.08886 0.0
H2698 H 0.78341 0.66413 0.31714 0.0
H2699 H 0.79089 0.68294 0.40168 0.0
C2700 C 0.77151 0.64878 0.01192 0.0
C2701 C 0.76179 0.63827 0.05054 0.0
C2702 C 0.77807 0.65956 0.06015 0.0
C2703 C 0.7751 0.66005 0.14814 0.0
C2704 C 0.76577 0.64939 0.18792 0.0
C2705 C 0.75917 0.63861 0.13961 0.0
C2706 C 0.78698 0.69337 0.20485 0.0
C2707 C 0.7898 0.69364 0.29417 0.0
C2708 C 0.78267 0.68257 0.15658 0.0
C2709 C 0.78107 0.67182 0.19665 0.0
C2710 C 0.7844 0.67224 0.28488 0.0
C2711 C 0.78876 0.68304 0.33307 0.0
H2712 H 0.91259 0.70143 0.17235 0.0
H2713 H 0.89066 0.68317 0.40041 0.0
H2714 H 0.90128 0.68257 0.08834 0.0
H2715 H 0.8793 0.66436 0.31589 0.0
H2716 H 0.87353 0.64888 0.94316 0.0
H2717 H 0.88084 0.66768 0.02764 0.0
H2718 H 0.88513 0.64971 0.25458 0.0
H2719 H 0.87773 0.63086 0.17063 0.0
C2720 C 0.90524 0.69346 0.20421 0.0
C2721 C 0.90263 0.69378 0.29333 0.0
C2722 C 0.89871 0.68267 0.15591 0.0
C2723 C 0.88946 0.67197 0.1958 0.0
C2724 C 0.88648 0.67243 0.28379 0.0
C2725 C 0.89296 0.68324 0.33198 0.0
C2726 C 0.87586 0.64887 0.01145 0.0
C2727 C 0.87516 0.63839 0.04994 0.0
C2728 C 0.8801 0.65967 0.0596 0.0
C2729 C 0.88364 0.66019 0.14743 0.0
C2730 C 0.88238 0.64956 0.18715 0.0
C2731 C 0.87822 0.63878 0.13887 0.0
H2732 H 0.34865 0.22405 0.93241 0.0
H2733 H 0.36707 0.24596 0.16023 0.0
H2734 H 0.32992 0.21263 0.01771 0.0
H2735 H 0.3483 0.23461 0.24494 0.0
H2736 H 0.29653 0.21095 0.1653 0.0
H2737 H 0.31526 0.21828 0.08014 0.0
H2738 H 0.33355 0.21423 0.30611 0.0
H2739 H 0.31488 0.20702 0.39187 0.0
C2740 C 0.34876 0.22633 1.00091 0.0
C2741 C 0.35933 0.23601 0.0393 0.0
C2742 C 0.33801 0.21982 0.04955 0.0
C2743 C 0.33762 0.22278 0.13774 0.0
C2744 C 0.34834 0.23205 0.17726 0.0
C2745 C 0.35908 0.23861 0.12854 0.0
C2746 C 0.30449 0.21147 0.19659 0.0
C2747 C 0.30425 0.20854 0.28566 0.0
C2748 C 0.3152 0.21559 0.1476 0.0
C2749 C 0.3259 0.21691 0.18671 0.0
C2750 C 0.32549 0.21345 0.27462 0.0
C2751 C 0.31476 0.20926 0.32352 0.0
H2752 H 0.75166 0.12092 0.17748 0.0
H2753 H 0.77436 0.12529 0.95261 0.0
H2754 H 0.76301 0.11359 0.26322 0.0
H2755 H 0.78578 0.11808 0.03897 0.0
H2756 H 0.79054 0.10792 0.41299 0.0
H2757 H 0.78323 0.11932 0.32736 0.0
H2758 H 0.78028 0.09773 0.09927 0.0
H2759 H 0.78771 0.0864 0.1843 0.0
C2760 C 0.75918 0.12049 0.14668 0.0
C2761 C 0.762 0.12355 0.05791 0.0
C2762 C 0.76574 0.11637 0.19602 0.0
C2763 C 0.77523 0.11518 0.15757 0.0
C2764 C 0.77841 0.11875 0.06995 0.0
C2765 C 0.77189 0.12294 0.02071 0.0
C2766 C 0.78852 0.10572 0.34424 0.0
C2767 C 0.78959 0.09616 0.30567 0.0
C2768 C 0.78427 0.11221 0.2954 0.0
C2769 C 0.7811 0.10936 0.20687 0.0
C2770 C 0.78274 0.10021 0.16722 0.0
C2771 C 0.78692 0.09366 0.21613 0.0
H2772 H 0.68287 0.89157 0.61384 0.0
H2773 H 0.70168 0.91338 0.84113 0.0
H2774 H 0.66425 0.8802 0.70042 0.0
H2775 H 0.68303 0.90211 0.92705 0.0
H2776 H 0.63113 0.87865 0.85005 0.0
H2777 H 0.64976 0.88589 0.76398 0.0
H2778 H 0.66825 0.88193 0.98913 0.0
H2779 H 0.64967 0.87483 0.07587 0.0
C2780 C 0.68309 0.89384 0.68249 0.0
C2781 C 0.69373 0.90348 0.72035 0.0
C2782 C 0.6724 0.88736 0.73188 0.0
C2783 C 0.67215 0.89032 0.82027 0.0
C2784 C 0.68296 0.89954 0.85924 0.0
C2785 C 0.69363 0.90606 0.80981 0.0
C2786 C 0.63912 0.87919 0.88103 0.0
C2787 C 0.63895 0.8763 0.97014 0.0
C2788 C 0.64977 0.88325 0.83148 0.0
C2789 C 0.66049 0.88455 0.87001 0.0
C2790 C 0.66017 0.88116 0.95803 0.0
C2791 C 0.6495 0.87704 1.00752 0.0
H2792 H 0.12519 0.77517 0.0687 0.0
H2793 H 0.12119 0.75307 0.84086 0.0
H2794 H 0.11787 0.78664 0.98423 0.0
H2795 H 0.11377 0.76451 0.75693 0.0
H2796 H 0.086 0.78843 0.8396 0.0
H2797 H 0.09742 0.78098 0.92347 0.0
H2798 H 0.11947 0.78496 0.69591 0.0
H2799 H 0.108 0.79231 0.6115 0.0
C2800 C 0.12291 0.77286 1.00033 0.0
C2801 C 0.12365 0.76311 0.96174 0.0
C2802 C 0.11865 0.7794 0.95218 0.0
C2803 C 0.11516 0.77641 0.86426 0.0
C2804 C 0.11648 0.76708 0.82442 0.0
C2805 C 0.12066 0.76048 0.87269 0.0
C2806 C 0.09339 0.78787 0.8077 0.0
C2807 C 0.09599 0.79083 0.71861 0.0
C2808 C 0.09998 0.78368 0.85593 0.0
C2809 C 0.10928 0.78231 0.816 0.0
C2810 C 0.11225 0.78578 0.72803 0.0
C2811 C 0.10571 0.79005 0.67992 0.0
H2812 H 0.22426 0.35089 0.07182 0.0
H2813 H 0.24612 0.36903 0.84324 0.0
H2814 H 0.21283 0.33205 0.98768 0.0
H2815 H 0.23474 0.35014 0.75963 0.0
H2816 H 0.21118 0.29847 0.84267 0.0
H2817 H 0.21858 0.31733 0.92648 0.0
H2818 H 0.21428 0.33527 0.69932 0.0
H2819 H 0.20699 0.31646 0.61499 0.0
C2820 C 0.22652 0.35092 1.00336 0.0
C2821 C 0.23619 0.36144 0.96445 0.0
C2822 C 0.22001 0.3401 0.95539 0.0
C2823 C 0.22295 0.33959 0.86736 0.0
C2824 C 0.2322 0.35027 0.82723 0.0
C2825 C 0.23877 0.36107 0.8753 0.0
C2826 C 0.21166 0.30638 0.81085 0.0
C2827 C 0.20862 0.30599 0.72188 0.0
C2828 C 0.21582 0.31717 0.85905 0.0
C2829 C 0.21708 0.3278 0.81921 0.0
C2830 C 0.21354 0.32726 0.73138 0.0
C2831 C 0.20931 0.31645 0.6833 0.0
H2832 H 0.03396 0.45465 0.50025 0.0
H2833 H 0.01535 0.45746 0.27108 0.0
H2834 H 0.01517 0.44718 0.58486 0.0
H2835 H 0.9966 0.4501 0.35626 0.0
H2836 H 0.98157 0.44121 0.73054 0.0
H2837 H 0.00025 0.45264 0.64469 0.0
H2838 H 0.98211 0.42985 0.42022 0.0
H2839 H 0.96339 0.41848 0.50546 0.0
C2840 C 0.02592 0.45385 0.46823 0.0
C2841 C 0.02612 0.45653 0.37867 0.0
C2842 C 0.01517 0.44964 0.51689 0.0
C2843 C 0.00439 0.44798 0.47697 0.0
C2844 C 0.00473 0.45115 0.38843 0.0
C2845 C 0.0155 0.45543 0.33985 0.0
C2846 C 0.98149 0.43875 0.6625 0.0
C2847 C 0.97102 0.42884 0.6251 0.0
C2848 C 0.99222 0.44526 0.61354 0.0
C2849 C 0.99267 0.44208 0.52601 0.0
C2850 C 0.98202 0.43258 0.48736 0.0
C2851 C 0.97131 0.42601 0.53641 0.0
H2852 H 0.55755 0.54099 0.74853 0.0
H2853 H 0.57922 0.54472 0.5188 0.0
H2854 H 0.54604 0.54837 0.66534 0.0
H2855 H 0.56778 0.55224 0.43613 0.0
H2856 H 0.54367 0.57988 0.52128 0.0
H2857 H 0.55137 0.56862 0.60439 0.0
H2858 H 0.54738 0.54661 0.37652 0.0
H2859 H 0.53981 0.55793 0.29287 0.0
C2860 C 0.55977 0.54324 0.68002 0.0
C2861 C 0.56939 0.54236 0.64048 0.0
C2862 C 0.55321 0.54753 0.6326 0.0
C2863 C 0.55606 0.55096 0.54448 0.0
C2864 C 0.56529 0.54957 0.50379 0.0
C2865 C 0.57191 0.54533 0.55132 0.0
C2866 C 0.54427 0.57253 0.48919 0.0
C2867 C 0.54124 0.56989 0.40021 0.0
C2868 C 0.54862 0.56603 0.53696 0.0
C2869 C 0.55006 0.55679 0.4967 0.0
C2870 C 0.54651 0.55379 0.40889 0.0
C2871 C 0.54211 0.56023 0.36123 0.0
H2872 H 0.41869 0.96262 0.51718 0.0
H2873 H 0.44072 0.9812 0.29021 0.0
H2874 H 0.42988 0.98139 0.60226 0.0
H2875 H 0.45198 -8e-05 0.37589 0.0
H2876 H 0.45714 0.01501 0.74963 0.0
H2877 H 0.45011 0.99631 0.66433 0.0
H2878 H 0.44602 0.01441 0.43733 0.0
H2879 H 0.45317 0.03315 0.52204 0.0
C2880 C 0.42604 0.97065 0.48579 0.0
C2881 C 0.42871 0.97045 0.39664 0.0
C2882 C 0.43251 0.98138 0.53473 0.0
C2883 C 0.44174 0.99215 0.49548 0.0
C2884 C 0.4448 0.9918 0.40749 0.0
C2885 C 0.43839 0.98105 0.35864 0.0
C2886 C 0.45491 0.01507 0.68119 0.0
C2887 C 0.45559 0.02554 0.64286 0.0
C2888 C 0.45083 0.00433 0.63254 0.0
C2889 C 0.44744 0.00388 0.54442 0.0
C2890 C 0.44867 0.01451 0.50496 0.0
C2891 C 0.45268 0.02523 0.55369 0.0
H2892 H 0.55777 0.01679 0.72651 0.0
H2893 H 0.58048 0.03516 0.50174 0.0
H2894 H 0.5465 0.99811 0.64045 0.0
H2895 H 0.56926 0.01642 0.41627 0.0
H2896 H 0.54471 0.96453 0.49551 0.0
H2897 H 0.55216 0.98331 0.5803 0.0
H2898 H 0.54902 0.00184 0.35223 0.0
H2899 H 0.54169 0.98311 0.26689 0.0
C2900 C 0.56027 0.0169 0.65849 0.0
C2901 C 0.57012 0.02744 0.62123 0.0
C2902 C 0.55384 0.00617 0.60942 0.0
C2903 C 0.55706 0.00578 0.52191 0.0
C2904 C 0.56651 0.01647 0.4834 0.0
C2905 C 0.57299 0.02719 0.53257 0.0
C2906 C 0.54547 0.97256 0.46365 0.0
C2907 C 0.54273 0.97235 0.37421 0.0
C2908 C 0.54966 0.9833 0.51241 0.0
C2909 C 0.55124 0.99407 0.4727 0.0
C2910 C 0.54803 0.99372 0.38424 0.0
C2911 C 0.54377 0.98296 0.33558 0.0
H2912 H 0.9651 0.5454 0.52178 0.0
H2913 H 0.98335 0.54168 0.74976 0.0
H2914 H 0.98386 0.55264 0.43718 0.0
H2915 H 0.00206 0.54881 0.66457 0.0
H2916 H 0.01716 0.5581 0.29042 0.0
H2917 H 0.99845 0.5468 0.37613 0.0
H2918 H 0.01689 0.56906 0.60213 0.0
H2919 H 0.03564 0.5803 0.51702 0.0
C2920 C 0.97305 0.54596 0.55354 0.0
C2921 C 0.97276 0.54309 0.64278 0.0
C2922 C 0.98378 0.55003 0.50487 0.0
C2923 C 0.99445 0.55136 0.54446 0.0
C2924 C 0.99401 0.54801 0.63267 0.0
C2925 C 0.98327 0.54387 0.68125 0.0
C2926 C 0.01729 0.56047 0.35878 0.0
C2927 C 0.02786 0.5702 0.39665 0.0
C2928 C 0.00655 0.55403 0.40764 0.0
C2929 C 0.00618 0.55711 0.49553 0.0
C2930 C 0.01691 0.56641 0.53467 0.0
C2931 C 0.02764 0.5729 0.48572 0.0
H2932 H 0.45889 0.4406 0.72462 0.0
H2933 H 0.4543 0.41822 0.49729 0.0
H2934 H 0.45157 0.45211 0.64085 0.0
H2935 H 0.44684 0.42967 0.41406 0.0
H2936 H 0.42 0.45462 0.49952 0.0
H2937 H 0.43124 0.44687 0.58218 0.0
H2938 H 0.45254 0.44997 0.35204 0.0
H2939 H 0.44123 0.45758 0.26884 0.0
C2940 C 0.45648 0.43823 0.65649 0.0
C2941 C 0.45708 0.4284 0.61784 0.0
C2942 C 0.45221 0.44479 0.60874 0.0
C2943 C 0.44854 0.44174 0.52119 0.0
C2944 C 0.44969 0.4323 0.48127 0.0
C2945 C 0.4539 0.42569 0.52913 0.0
C2946 C 0.42719 0.4538 0.4668 0.0
C2947 C 0.42963 0.45661 0.37738 0.0
C2948 C 0.43368 0.44943 0.51431 0.0
C2949 C 0.44272 0.44773 0.47335 0.0
C2950 C 0.44552 0.45103 0.38499 0.0
C2951 C 0.43908 0.45547 0.33757 0.0
loop_
_geom_bond_atom_site_label_1
_geom_bond_atom_site_label_2
_geom_bond_distance
_geom_bond_site_symmetry_2
_ccdc_geom_bond_type
Fe0 O2 1.918 . S
Fe0 O5 1.997 . S
Fe0 O6 2.002 . S
Fe0 O11 1.976 . S
Fe0 O14 1.996 . S
Fe1 O2 1.918 . S
Fe1 O9 1.997 . S
Fe1 O12 1.996 . S
Fe1 O16 1.976 1_554 S
Fe1 O19 2.002 . S
O2 Fe0 1.918 . S
O2 Fe1 1.918 . S
O2 Fe3 1.918 . S
Fe3 O2 1.918 . S
Fe3 O4 2.002 . S
Fe3 O13 1.976 1_554 S
Fe3 O17 1.996 1_554 S
Fe3 O20 1.997 . S
O4 Fe3 2.002 . S
O4 C21 1.295 . S
O5 Fe0 1.997 . S
O5 C21 1.235 . S
O6 Fe0 2.002 . S
O6 C7 1.295 . S
C7 O6 1.295 . S
C7 O9 1.235 . S
C8 O13 1.287 . S
C8 O14 1.255 1_556 S
O9 Fe1 1.997 . S
O9 C7 1.235 . S
C10 O16 1.287 . S
C10 O17 1.255 . S
O11 Fe0 1.976 . S
O11 C18 1.287 . S
O12 Fe1 1.996 . S
O12 C18 1.255 . S
O13 Fe3 1.976 1_556 S
O13 C8 1.287 . S
O14 Fe0 1.996 . S
O14 C8 1.255 1_554 S
C15 O19 1.295 . S
C15 O20 1.235 . S
O16 Fe1 1.976 1_556 S
O16 C10 1.287 . S
O17 Fe3 1.996 1_556 S
O17 C10 1.255 . S
C18 O11 1.287 . S
C18 O12 1.255 . S
O19 Fe1 2.002 . S
O19 C15 1.295 . S
O20 Fe3 1.997 . S
O20 C15 1.235 . S
C21 O4 1.295 . S
C21 O5 1.235 . S
Fe22 O24 1.918 . S
Fe22 O27 1.997 . S
Fe22 O28 2.002 . S
Fe22 O33 1.976 1_554 S
Fe22 O36 1.996 . S
Fe23 O24 1.918 . S
Fe23 O31 1.997 . S
Fe23 O34 1.996 1_554 S
Fe23 O38 1.976 1_554 S
Fe23 O41 2.002 . S
O24 Fe22 1.918 . S
O24 Fe23 1.918 . S
O24 Fe25 1.918 . S
Fe25 O24 1.918 . S
Fe25 O26 2.002 . S
Fe25 O35 1.976 . S
Fe25 O39 1.996 . S
Fe25 O42 1.997 . S
O26 Fe25 2.002 . S
O26 C43 1.295 . S
O27 Fe22 1.997 . S
O27 C43 1.235 . S
O28 Fe22 2.002 . S
O28 C29 1.295 . S
C29 O28 1.295 . S
C29 O31 1.235 . S
C30 O35 1.287 . S
C30 O36 1.255 . S
O31 Fe23 1.997 . S
O31 C29 1.235 . S
C32 O38 1.287 . S
C32 O39 1.255 1_556 S
O33 Fe22 1.976 1_556 S
O33 C40 1.287 . S
O34 Fe23 1.996 1_556 S
O34 C40 1.255 . S
O35 Fe25 1.976 . S
O35 C30 1.287 . S
O36 Fe22 1.996 . S
O36 C30 1.255 . S
C37 O41 1.295 . S
C37 O42 1.235 . S
O38 Fe23 1.976 1_556 S
O38 C32 1.287 . S
O39 Fe25 1.996 . S
O39 C32 1.255 1_554 S
C40 O33 1.287 . S
C40 O34 1.255 . S
O41 Fe23 2.002 . S
O41 C37 1.295 . S
O42 Fe25 1.997 . S
O42 C37 1.235 . S
C43 O26 1.295 . S
C43 O27 1.235 . S
Fe44 O46 1.918 . S
Fe44 O49 1.997 . S
Fe44 O50 2.002 . S
Fe44 O55 1.976 . S
Fe44 O58 1.996 . S
Fe45 O46 1.918 . S
Fe45 O53 1.997 . S
Fe45 O56 1.996 . S
Fe45 O60 1.976 1_554 S
Fe45 O63 2.002 . S
O46 Fe44 1.918 . S
O46 Fe45 1.918 . S
O46 Fe47 1.918 . S
Fe47 O46 1.918 . S
Fe47 O48 2.002 . S
Fe47 O57 1.976 1_554 S
Fe47 O61 1.996 1_554 S
Fe47 O64 1.997 . S
O48 Fe47 2.002 . S
O48 C65 1.295 . S
O49 Fe44 1.997 . S
O49 C65 1.235 . S
O50 Fe44 2.002 . S
O50 C51 1.295 . S
C51 O50 1.295 . S
C51 O53 1.235 . S
C52 O57 1.287 . S
C52 O58 1.255 1_556 S
O53 Fe45 1.997 . S
O53 C51 1.235 . S
C54 O60 1.287 . S
C54 O61 1.255 . S
O55 Fe44 1.976 . S
O55 C62 1.287 . S
O56 Fe45 1.996 . S
O56 C62 1.255 . S
O57 Fe47 1.976 1_556 S
O57 C52 1.287 . S
O58 Fe44 1.996 . S
O58 C52 1.255 1_554 S
C59 O63 1.295 . S
C59 O64 1.235 . S
O60 Fe45 1.976 1_556 S
O60 C54 1.287 . S
O61 Fe47 1.996 1_556 S
O61 C54 1.255 . S
C62 O55 1.287 . S
C62 O56 1.255 . S
O63 Fe45 2.002 . S
O63 C59 1.295 . S
O64 Fe47 1.997 . S
O64 C59 1.235 . S
C65 O48 1.295 . S
C65 O49 1.235 . S
Fe66 O68 1.918 . S
Fe66 O71 1.997 . S
Fe66 O72 2.002 . S
Fe66 O77 1.976 . S
Fe66 O80 1.996 . S
Fe67 O68 1.918 . S
Fe67 O75 1.997 . S
Fe67 O78 1.996 . S
Fe67 O82 1.976 1_556 S
Fe67 O85 2.002 . S
O68 Fe66 1.918 . S
O68 Fe67 1.918 . S
O68 Fe69 1.918 . S
Fe69 O68 1.918 . S
Fe69 O70 2.002 . S
Fe69 O79 1.976 1_556 S
Fe69 O83 1.996 1_556 S
Fe69 O86 1.997 . S
O70 Fe69 2.002 . S
O70 C87 1.295 . S
O71 Fe66 1.997 . S
O71 C87 1.235 . S
O72 Fe66 2.002 . S
O72 C73 1.295 . S
C73 O72 1.295 . S
C73 O75 1.235 . S
C74 O79 1.287 . S
C74 O80 1.255 1_554 S
O75 Fe67 1.997 . S
O75 C73 1.235 . S
C76 O82 1.287 . S
C76 O83 1.255 . S
O77 Fe66 1.976 . S
O77 C84 1.287 . S
O78 Fe67 1.996 . S
O78 C84 1.255 . S
O79 Fe69 1.976 1_554 S
O79 C74 1.287 . S
O80 Fe66 1.996 . S
O80 C74 1.255 1_556 S
C81 O85 1.295 . S
C81 O86 1.235 . S
O82 Fe67 1.976 1_554 S
O82 C76 1.287 . S
O83 Fe69 1.996 1_554 S
O83 C76 1.255 . S
C84 O77 1.287 . S
C84 O78 1.255 . S
O85 Fe67 2.002 . S
O85 C81 1.295 . S
O86 Fe69 1.997 . S
O86 C81 1.235 . S
C87 O70 1.295 . S
C87 O71 1.235 . S
Fe88 O90 1.918 . S
Fe88 O93 1.997 . S
Fe88 O94 2.002 . S
Fe88 O99 1.976 1_556 S
Fe88 O102 1.996 . S
Fe89 O90 1.918 . S
Fe89 O97 1.997 . S
Fe89 O100 1.996 1_556 S
Fe89 O104 1.976 1_556 S
Fe89 O107 2.002 . S
O90 Fe88 1.918 . S
O90 Fe89 1.918 . S
O90 Fe91 1.918 . S
Fe91 O90 1.918 . S
Fe91 O92 2.002 . S
Fe91 O101 1.976 . S
Fe91 O105 1.996 . S
Fe91 O108 1.997 . S
O92 Fe91 2.002 . S
O92 C109 1.295 . S
O93 Fe88 1.997 . S
O93 C109 1.235 . S
O94 Fe88 2.002 . S
O94 C95 1.295 . S
C95 O94 1.295 . S
C95 O97 1.235 . S
C96 O101 1.287 . S
C96 O102 1.255 . S
O97 Fe89 1.997 . S
O97 C95 1.235 . S
C98 O104 1.287 . S
C98 O105 1.255 1_554 S
O99 Fe88 1.976 1_554 S
O99 C106 1.287 . S
O100 Fe89 1.996 1_554 S
O100 C106 1.255 . S
O101 Fe91 1.976 . S
O101 C96 1.287 . S
O102 Fe88 1.996 . S
O102 C96 1.255 . S
C103 O107 1.295 . S
C103 O108 1.235 . S
O104 Fe89 1.976 1_554 S
O104 C98 1.287 . S
O105 Fe91 1.996 . S
O105 C98 1.255 1_556 S
C106 O99 1.287 . S
C106 O100 1.255 . S
O107 Fe89 2.002 . S
O107 C103 1.295 . S
O108 Fe91 1.997 . S
O108 C103 1.235 . S
C109 O92 1.295 . S
C109 O93 1.235 . S
Fe110 O112 1.918 . S
Fe110 O115 1.997 . S
Fe110 O116 2.002 . S
Fe110 O121 1.976 . S
Fe110 O124 1.996 . S
Fe111 O112 1.918 . S
Fe111 O119 1.997 . S
Fe111 O122 1.996 . S
Fe111 O126 1.976 1_556 S
Fe111 O129 2.002 . S
O112 Fe110 1.918 . S
O112 Fe111 1.918 . S
O112 Fe113 1.918 . S
Fe113 O112 1.918 . S
Fe113 O114 2.002 . S
Fe113 O123 1.976 1_556 S
Fe113 O127 1.996 1_556 S
Fe113 O130 1.997 . S
O114 Fe113 2.002 . S
O114 C131 1.295 . S
O115 Fe110 1.997 . S
O115 C131 1.235 . S
O116 Fe110 2.002 . S
O116 C117 1.295 . S
C117 O116 1.295 . S
C117 O119 1.235 . S
C118 O123 1.287 . S
C118 O124 1.255 1_554 S
O119 Fe111 1.997 . S
O119 C117 1.235 . S
C120 O126 1.287 . S
C120 O127 1.255 . S
O121 Fe110 1.976 . S
O121 C128 1.287 . S
O122 Fe111 1.996 . S
O122 C128 1.255 . S
O123 Fe113 1.976 1_554 S
O123 C118 1.287 . S
O124 Fe110 1.996 . S
O124 C118 1.255 1_556 S
C125 O129 1.295 . S
C125 O130 1.235 . S
O126 Fe111 1.976 1_554 S
O126 C120 1.287 . S
O127 Fe113 1.996 1_554 S
O127 C120 1.255 . S
C128 O121 1.287 . S
C128 O122 1.255 . S
O129 Fe111 2.002 . S
O129 C125 1.295 . S
O130 Fe113 1.997 . S
O130 C125 1.235 . S
C131 O114 1.295 . S
C131 O115 1.235 . S
Fe132 O134 1.918 . S
Fe132 O137 1.997 . S
Fe132 O138 2.002 . S
Fe132 O143 1.976 . S
Fe132 O146 1.996 . S
Fe133 O134 1.918 . S
Fe133 O141 1.997 . S
Fe133 O144 1.996 1_556 S
Fe133 O148 1.976 1_556 S
Fe133 O151 2.002 . S
O134 Fe132 1.918 . S
O134 Fe133 1.918 . S
O134 Fe135 1.918 . S
Fe135 O134 1.918 . S
Fe135 O136 2.002 . S
Fe135 O145 1.976 . S
Fe135 O149 1.996 1_556 S
Fe135 O152 1.997 . S
O136 Fe135 2.002 . S
O136 C153 1.295 . S
O137 Fe132 1.997 . S
O137 C153 1.235 . S
O138 Fe132 2.002 . S
O138 C139 1.295 . S
C139 O138 1.295 . S
C139 O141 1.235 . S
C140 O145 1.287 . S
C140 O146 1.255 . S
O141 Fe133 1.997 . S
O141 C139 1.235 . S
C142 O148 1.287 . S
C142 O149 1.255 . S
O143 Fe132 1.976 . S
O143 C150 1.287 1_556 S
O144 Fe133 1.996 1_554 S
O144 C150 1.255 . S
O145 Fe135 1.976 . S
O145 C140 1.287 . S
O146 Fe132 1.996 . S
O146 C140 1.255 . S
C147 O151 1.295 . S
C147 O152 1.235 . S
O148 Fe133 1.976 1_554 S
O148 C142 1.287 . S
O149 Fe135 1.996 1_554 S
O149 C142 1.255 . S
C150 O143 1.287 1_554 S
C150 O144 1.255 . S
O151 Fe133 2.002 . S
O151 C147 1.295 . S
O152 Fe135 1.997 . S
O152 C147 1.235 . S
C153 O136 1.295 . S
C153 O137 1.235 . S
Fe154 O156 1.918 . S
Fe154 O159 1.997 . S
Fe154 O160 2.002 . S
Fe154 O165 1.976 1_556 S
Fe154 O168 1.996 1_556 S
Fe155 O156 1.918 . S
Fe155 O163 1.997 . S
Fe155 O166 1.996 1_556 S
Fe155 O170 1.976 . S
Fe155 O173 2.002 . S
O156 Fe154 1.918 . S
O156 Fe155 1.918 . S
O156 Fe157 1.918 . S
Fe157 O156 1.918 . S
Fe157 O158 2.002 . S
Fe157 O167 1.976 . S
Fe157 O171 1.996 . S
Fe157 O174 1.997 . S
O158 Fe157 2.002 . S
O158 C175 1.295 . S
O159 Fe154 1.997 . S
O159 C175 1.235 . S
O160 Fe154 2.002 . S
O160 C161 1.295 . S
C161 O160 1.295 . S
C161 O163 1.235 . S
C162 O167 1.287 1_554 S
C162 O168 1.255 . S
O163 Fe155 1.997 . S
O163 C161 1.235 . S
C164 O170 1.287 . S
C164 O171 1.255 . S
O165 Fe154 1.976 1_554 S
O165 C172 1.287 . S
O166 Fe155 1.996 1_554 S
O166 C172 1.255 . S
O167 Fe157 1.976 . S
O167 C162 1.287 1_556 S
O168 Fe154 1.996 1_554 S
O168 C162 1.255 . S
C169 O173 1.295 . S
C169 O174 1.235 . S
O170 Fe155 1.976 . S
O170 C164 1.287 . S
O171 Fe157 1.996 . S
O171 C164 1.255 . S
C172 O165 1.287 . S
C172 O166 1.255 . S
O173 Fe155 2.002 . S
O173 C169 1.295 . S
O174 Fe157 1.997 . S
O174 C169 1.235 . S
C175 O158 1.295 . S
C175 O159 1.235 . S
Fe176 O178 1.918 . S
Fe176 O181 1.997 . S
Fe176 O182 2.002 . S
Fe176 O187 1.976 . S
Fe176 O190 1.996 1_556 S
Fe177 O178 1.918 . S
Fe177 O185 1.997 . S
Fe177 O188 1.996 . S
Fe177 O192 1.976 . S
Fe177 O195 2.002 . S
O178 Fe176 1.918 . S
O178 Fe177 1.918 . S
O178 Fe179 1.918 . S
Fe179 O178 1.918 . S
Fe179 O180 2.002 . S
Fe179 O189 1.976 1_556 S
Fe179 O193 1.996 1_556 S
Fe179 O196 1.997 . S
O180 Fe179 2.002 . S
O180 C197 1.295 . S
O181 Fe176 1.997 . S
O181 C197 1.235 . S
O182 Fe176 2.002 . S
O182 C183 1.295 . S
C183 O182 1.295 . S
C183 O185 1.235 . S
C184 O189 1.287 . S
C184 O190 1.255 . S
O185 Fe177 1.997 . S
O185 C183 1.235 . S
C186 O192 1.287 1_554 S
C186 O193 1.255 . S
O187 Fe176 1.976 . S
O187 C194 1.287 . S
O188 Fe177 1.996 . S
O188 C194 1.255 . S
O189 Fe179 1.976 1_554 S
O189 C184 1.287 . S
O190 Fe176 1.996 1_554 S
O190 C184 1.255 . S
C191 O195 1.295 . S
C191 O196 1.235 . S
O192 Fe177 1.976 . S
O192 C186 1.287 1_556 S
O193 Fe179 1.996 1_554 S
O193 C186 1.255 . S
C194 O187 1.287 . S
C194 O188 1.255 . S
O195 Fe177 2.002 . S
O195 C191 1.295 . S
O196 Fe179 1.997 . S
O196 C191 1.235 . S
C197 O180 1.295 . S
C197 O181 1.235 . S
Fe198 O200 1.918 . S
Fe198 O203 1.997 . S
Fe198 O204 2.002 . S
Fe198 O209 1.976 1_554 S
Fe198 O212 1.996 1_554 S
Fe199 O200 1.918 . S
Fe199 O207 1.997 . S
Fe199 O210 1.996 1_554 S
Fe199 O214 1.976 . S
Fe199 O217 2.002 . S
O200 Fe198 1.918 . S
O200 Fe199 1.918 . S
O200 Fe201 1.918 . S
Fe201 O200 1.918 . S
Fe201 O202 2.002 . S
Fe201 O211 1.976 . S
Fe201 O215 1.996 . S
Fe201 O218 1.997 . S
O202 Fe201 2.002 . S
O202 C219 1.295 . S
O203 Fe198 1.997 . S
O203 C219 1.235 . S
O204 Fe198 2.002 . S
O204 C205 1.295 . S
C205 O204 1.295 . S
C205 O207 1.235 . S
C206 O211 1.287 1_556 S
C206 O212 1.255 . S
O207 Fe199 1.997 . S
O207 C205 1.235 . S
C208 O214 1.287 . S
C208 O215 1.255 . S
O209 Fe198 1.976 1_556 S
O209 C216 1.287 . S
O210 Fe199 1.996 1_556 S
O210 C216 1.255 . S
O211 Fe201 1.976 . S
O211 C206 1.287 1_554 S
O212 Fe198 1.996 1_556 S
O212 C206 1.255 . S
C213 O217 1.295 . S
C213 O218 1.235 . S
O214 Fe199 1.976 . S
O214 C208 1.287 . S
O215 Fe201 1.996 . S
O215 C208 1.255 . S
C216 O209 1.287 . S
C216 O210 1.255 . S
O217 Fe199 2.002 . S
O217 C213 1.295 . S
O218 Fe201 1.997 . S
O218 C213 1.235 . S
C219 O202 1.295 . S
C219 O203 1.235 . S
Fe220 O222 1.918 . S
Fe220 O225 1.997 . S
Fe220 O226 2.002 . S
Fe220 O231 1.976 . S
Fe220 O234 1.996 . S
Fe221 O222 1.918 . S
Fe221 O229 1.997 . S
Fe221 O232 1.996 1_554 S
Fe221 O236 1.976 1_554 S
Fe221 O239 2.002 . S
O222 Fe220 1.918 . S
O222 Fe221 1.918 . S
O222 Fe223 1.918 . S
Fe223 O222 1.918 . S
Fe223 O224 2.002 . S
Fe223 O233 1.976 . S
Fe223 O237 1.996 1_554 S
Fe223 O240 1.997 . S
O224 Fe223 2.002 . S
O224 C241 1.295 . S
O225 Fe220 1.997 . S
O225 C241 1.235 . S
O226 Fe220 2.002 . S
O226 C227 1.295 . S
C227 O226 1.295 . S
C227 O229 1.235 . S
C228 O233 1.287 . S
C228 O234 1.255 . S
O229 Fe221 1.997 . S
O229 C227 1.235 . S
C230 O236 1.287 . S
C230 O237 1.255 . S
O231 Fe220 1.976 . S
O231 C238 1.287 1_554 S
O232 Fe221 1.996 1_556 S
O232 C238 1.255 . S
O233 Fe223 1.976 . S
O233 C228 1.287 . S
O234 Fe220 1.996 . S
O234 C228 1.255 . S
C235 O239 1.295 . S
C235 O240 1.235 . S
O236 Fe221 1.976 1_556 S
O236 C230 1.287 . S
O237 Fe223 1.996 1_556 S
O237 C230 1.255 . S
C238 O231 1.287 1_556 S
C238 O232 1.255 . S
O239 Fe221 2.002 . S
O239 C235 1.295 . S
O240 Fe223 1.997 . S
O240 C235 1.235 . S
C241 O224 1.295 . S
C241 O225 1.235 . S
Fe242 O244 1.918 . S
Fe242 O247 1.997 . S
Fe242 O248 2.002 . S
Fe242 O253 1.976 1_554 S
Fe242 O256 1.996 1_554 S
Fe243 O244 1.918 . S
Fe243 O251 1.997 . S
Fe243 O254 1.996 1_554 S
Fe243 O258 1.976 . S
Fe243 O261 2.002 . S
O244 Fe242 1.918 . S
O244 Fe243 1.918 . S
O244 Fe245 1.918 . S
Fe245 O244 1.918 . S
Fe245 O246 2.002 . S
Fe245 O255 1.976 . S
Fe245 O259 1.996 . S
Fe245 O262 1.997 . S
O246 Fe245 2.002 . S
O246 C263 1.295 . S
O247 Fe242 1.997 . S
O247 C263 1.235 . S
O248 Fe242 2.002 . S
O248 C249 1.295 . S
C249 O248 1.295 . S
C249 O251 1.235 . S
C250 O255 1.287 1_556 S
C250 O256 1.255 . S
O251 Fe243 1.997 . S
O251 C249 1.235 . S
C252 O258 1.287 . S
C252 O259 1.255 . S
O253 Fe242 1.976 1_556 S
O253 C260 1.287 . S
O254 Fe243 1.996 1_556 S
O254 C260 1.255 . S
O255 Fe245 1.976 . S
O255 C250 1.287 1_554 S
O256 Fe242 1.996 1_556 S
O256 C250 1.255 . S
C257 O261 1.295 . S
C257 O262 1.235 . S
O258 Fe243 1.976 . S
O258 C252 1.287 . S
O259 Fe245 1.996 . S
O259 C252 1.255 . S
C260 O253 1.287 . S
C260 O254 1.255 . S
O261 Fe243 2.002 . S
O261 C257 1.295 . S
O262 Fe245 1.997 . S
O262 C257 1.235 . S
C263 O246 1.295 . S
C263 O247 1.235 . S
Fe264 O266 1.918 . S
Fe264 O269 1.997 . S
Fe264 O270 2.002 . S
Fe264 O275 1.976 . S
Fe264 O278 1.996 . S
Fe265 O266 1.918 . S
Fe265 O273 1.997 . S
Fe265 O276 1.996 . S
Fe265 O280 1.976 . S
Fe265 O283 2.002 . S
O266 Fe264 1.918 . S
O266 Fe265 1.918 . S
O266 Fe267 1.918 . S
Fe267 O266 1.918 . S
Fe267 O268 2.002 . S
Fe267 O277 1.976 . S
Fe267 O281 1.996 . S
Fe267 O284 1.997 . S
O268 Fe267 2.002 . S
O268 C285 1.295 . S
O269 Fe264 1.997 . S
O269 C285 1.235 . S
O270 Fe264 2.002 . S
O270 C271 1.295 . S
C271 O270 1.295 . S
C271 O273 1.235 . S
C272 O277 1.287 . S
C272 O278 1.255 . S
O273 Fe265 1.997 . S
O273 C271 1.235 . S
C274 O280 1.287 . S
C274 O281 1.255 . S
O275 Fe264 1.976 . S
O275 C282 1.287 . S
O276 Fe265 1.996 . S
O276 C282 1.255 . S
O277 Fe267 1.976 . S
O277 C272 1.287 . S
O278 Fe264 1.996 . S
O278 C272 1.255 . S
C279 O283 1.295 . S
C279 O284 1.235 . S
O280 Fe265 1.976 . S
O280 C274 1.287 . S
O281 Fe267 1.996 . S
O281 C274 1.255 . S
C282 O275 1.287 . S
C282 O276 1.255 . S
O283 Fe265 2.002 . S
O283 C279 1.295 . S
O284 Fe267 1.997 . S
O284 C279 1.235 . S
C285 O268 1.295 . S
C285 O269 1.235 . S
Fe286 O288 1.918 . S
Fe286 O291 1.997 . S
Fe286 O292 2.002 . S
Fe286 O297 1.976 . S
Fe286 O300 1.996 . S
Fe287 O288 1.918 . S
Fe287 O295 1.997 . S
Fe287 O298 1.996 . S
Fe287 O302 1.976 . S
Fe287 O305 2.002 . S
O288 Fe286 1.918 . S
O288 Fe287 1.918 . S
O288 Fe289 1.918 . S
Fe289 O288 1.918 . S
Fe289 O290 2.002 . S
Fe289 O299 1.976 . S
Fe289 O303 1.996 . S
Fe289 O306 1.997 . S
O290 Fe289 2.002 . S
O290 C307 1.295 . S
O291 Fe286 1.997 . S
O291 C307 1.235 . S
O292 Fe286 2.002 . S
O292 C293 1.295 . S
C293 O292 1.295 . S
C293 O295 1.235 . S
C294 O299 1.287 . S
C294 O300 1.255 . S
O295 Fe287 1.997 . S
O295 C293 1.235 . S
C296 O302 1.287 . S
C296 O303 1.255 . S
O297 Fe286 1.976 . S
O297 C304 1.287 . S
O298 Fe287 1.996 . S
O298 C304 1.255 . S
O299 Fe289 1.976 . S
O299 C294 1.287 . S
O300 Fe286 1.996 . S
O300 C294 1.255 . S
C301 O305 1.295 . S
C301 O306 1.235 . S
O302 Fe287 1.976 . S
O302 C296 1.287 . S
O303 Fe289 1.996 . S
O303 C296 1.255 . S
C304 O297 1.287 . S
C304 O298 1.255 . S
O305 Fe287 2.002 . S
O305 C301 1.295 . S
O306 Fe289 1.997 . S
O306 C301 1.235 . S
C307 O290 1.295 . S
C307 O291 1.235 . S
Fe308 O310 1.918 . S
Fe308 O313 1.997 . S
Fe308 O314 2.002 . S
Fe308 O319 1.976 . S
Fe308 O322 1.996 . S
Fe309 O310 1.918 . S
Fe309 O317 1.997 . S
Fe309 O320 1.996 . S
Fe309 O324 1.976 . S
Fe309 O327 2.002 . S
O310 Fe308 1.918 . S
O310 Fe309 1.918 . S
O310 Fe311 1.918 . S
Fe311 O310 1.918 . S
Fe311 O312 2.002 . S
Fe311 O321 1.976 . S
Fe311 O325 1.996 . S
Fe311 O328 1.997 . S
O312 Fe311 2.002 . S
O312 C329 1.295 . S
O313 Fe308 1.997 . S
O313 C329 1.235 . S
O314 Fe308 2.002 . S
O314 C315 1.295 . S
C315 O314 1.295 . S
C315 O317 1.235 . S
C316 O321 1.287 . S
C316 O322 1.255 . S
O317 Fe309 1.997 . S
O317 C315 1.235 . S
C318 O324 1.287 . S
C318 O325 1.255 . S
O319 Fe308 1.976 . S
O319 C326 1.287 . S
O320 Fe309 1.996 . S
O320 C326 1.255 . S
O321 Fe311 1.976 . S
O321 C316 1.287 . S
O322 Fe308 1.996 . S
O322 C316 1.255 . S
C323 O327 1.295 . S
C323 O328 1.235 . S
O324 Fe309 1.976 . S
O324 C318 1.287 . S
O325 Fe311 1.996 . S
O325 C318 1.255 . S
C326 O319 1.287 . S
C326 O320 1.255 . S
O327 Fe309 2.002 . S
O327 C323 1.295 . S
O328 Fe311 1.997 . S
O328 C323 1.235 . S
C329 O312 1.295 . S
C329 O313 1.235 . S
Fe330 O332 1.918 . S
Fe330 O335 1.997 . S
Fe330 O336 2.002 . S
Fe330 O341 1.976 . S
Fe330 O344 1.996 . S
Fe331 O332 1.918 . S
Fe331 O339 1.997 . S
Fe331 O342 1.996 . S
Fe331 O346 1.976 . S
Fe331 O349 2.002 . S
O332 Fe330 1.918 . S
O332 Fe331 1.918 . S
O332 Fe333 1.918 . S
Fe333 O332 1.918 . S
Fe333 O334 2.002 . S
Fe333 O343 1.976 . S
Fe333 O347 1.996 . S
Fe333 O350 1.997 . S
O334 Fe333 2.002 . S
O334 C351 1.295 . S
O335 Fe330 1.997 . S
O335 C351 1.235 . S
O336 Fe330 2.002 . S
O336 C337 1.295 . S
C337 O336 1.295 . S
C337 O339 1.235 . S
C338 O343 1.287 . S
C338 O344 1.255 . S
O339 Fe331 1.997 . S
O339 C337 1.235 . S
C340 O346 1.287 . S
C340 O347 1.255 . S
O341 Fe330 1.976 . S
O341 C348 1.287 . S
O342 Fe331 1.996 . S
O342 C348 1.255 . S
O343 Fe333 1.976 . S
O343 C338 1.287 . S
O344 Fe330 1.996 . S
O344 C338 1.255 . S
C345 O349 1.295 . S
C345 O350 1.235 . S
O346 Fe331 1.976 . S
O346 C340 1.287 . S
O347 Fe333 1.996 . S
O347 C340 1.255 . S
C348 O341 1.287 . S
C348 O342 1.255 . S
O349 Fe331 2.002 . S
O349 C345 1.295 . S
O350 Fe333 1.997 . S
O350 C345 1.235 . S
C351 O334 1.295 . S
C351 O335 1.235 . S
Fe352 O354 1.918 . S
Fe352 O357 1.997 . S
Fe352 O358 2.002 . S
Fe352 O363 1.976 . S
Fe352 O366 1.996 . S
Fe353 O354 1.918 . S
Fe353 O361 1.997 . S
Fe353 O364 1.996 . S
Fe353 O368 1.976 . S
Fe353 O371 2.002 . S
O354 Fe352 1.918 . S
O354 Fe353 1.918 . S
O354 Fe355 1.918 . S
Fe355 O354 1.918 . S
Fe355 O356 2.002 . S
Fe355 O365 1.976 . S
Fe355 O369 1.996 . S
Fe355 O372 1.997 . S
O356 Fe355 2.002 . S
O356 C373 1.295 . S
O357 Fe352 1.997 . S
O357 C373 1.235 . S
O358 Fe352 2.002 . S
O358 C359 1.295 . S
C359 O358 1.295 . S
C359 O361 1.235 . S
C360 O365 1.287 . S
C360 O366 1.255 . S
O361 Fe353 1.997 . S
O361 C359 1.235 . S
C362 O368 1.287 . S
C362 O369 1.255 . S
O363 Fe352 1.976 . S
O363 C370 1.287 . S
O364 Fe353 1.996 . S
O364 C370 1.255 . S
O365 Fe355 1.976 . S
O365 C360 1.287 . S
O366 Fe352 1.996 . S
O366 C360 1.255 . S
C367 O371 1.295 . S
C367 O372 1.235 . S
O368 Fe353 1.976 . S
O368 C362 1.287 . S
O369 Fe355 1.996 . S
O369 C362 1.255 . S
C370 O363 1.287 . S
C370 O364 1.255 . S
O371 Fe353 2.002 . S
O371 C367 1.295 . S
O372 Fe355 1.997 . S
O372 C367 1.235 . S
C373 O356 1.295 . S
C373 O357 1.235 . S
Fe374 O376 1.918 . S
Fe374 O379 1.997 . S
Fe374 O380 2.002 . S
Fe374 O385 1.976 . S
Fe374 O388 1.996 . S
Fe375 O376 1.918 . S
Fe375 O383 1.997 . S
Fe375 O386 1.996 . S
Fe375 O390 1.976 . S
Fe375 O393 2.002 . S
O376 Fe374 1.918 . S
O376 Fe375 1.918 . S
O376 Fe377 1.918 . S
Fe377 O376 1.918 . S
Fe377 O378 2.002 . S
Fe377 O387 1.976 . S
Fe377 O391 1.996 . S
Fe377 O394 1.997 . S
O378 Fe377 2.002 . S
O378 C395 1.295 . S
O379 Fe374 1.997 . S
O379 C395 1.235 . S
O380 Fe374 2.002 . S
O380 C381 1.295 . S
C381 O380 1.295 . S
C381 O383 1.235 . S
C382 O387 1.287 . S
C382 O388 1.255 . S
O383 Fe375 1.997 . S
O383 C381 1.235 . S
C384 O390 1.287 . S
C384 O391 1.255 . S
O385 Fe374 1.976 . S
O385 C392 1.287 . S
O386 Fe375 1.996 . S
O386 C392 1.255 . S
O387 Fe377 1.976 . S
O387 C382 1.287 . S
O388 Fe374 1.996 . S
O388 C382 1.255 . S
C389 O393 1.295 . S
C389 O394 1.235 . S
O390 Fe375 1.976 . S
O390 C384 1.287 . S
O391 Fe377 1.996 . S
O391 C384 1.255 . S
C392 O385 1.287 . S
C392 O386 1.255 . S
O393 Fe375 2.002 . S
O393 C389 1.295 . S
O394 Fe377 1.997 . S
O394 C389 1.235 . S
C395 O378 1.295 . S
C395 O379 1.235 . S
Fe396 O398 1.918 . S
Fe396 O401 1.997 . S
Fe396 O402 2.002 . S
Fe396 O407 1.976 . S
Fe396 O410 1.996 . S
Fe397 O398 1.918 . S
Fe397 O405 1.997 . S
Fe397 O408 1.996 . S
Fe397 O412 1.976 . S
Fe397 O415 2.002 . S
O398 Fe396 1.918 . S
O398 Fe397 1.918 . S
O398 Fe399 1.918 . S
Fe399 O398 1.918 . S
Fe399 O400 2.002 . S
Fe399 O409 1.976 . S
Fe399 O413 1.996 . S
Fe399 O416 1.997 . S
O400 Fe399 2.002 . S
O400 C417 1.295 . S
O401 Fe396 1.997 . S
O401 C417 1.235 . S
O402 Fe396 2.002 . S
O402 C403 1.295 . S
C403 O402 1.295 . S
C403 O405 1.235 . S
C404 O409 1.287 . S
C404 O410 1.255 . S
O405 Fe397 1.997 . S
O405 C403 1.235 . S
C406 O412 1.287 . S
C406 O413 1.255 . S
O407 Fe396 1.976 . S
O407 C414 1.287 . S
O408 Fe397 1.996 . S
O408 C414 1.255 . S
O409 Fe399 1.976 . S
O409 C404 1.287 . S
O410 Fe396 1.996 . S
O410 C404 1.255 . S
C411 O415 1.295 . S
C411 O416 1.235 . S
O412 Fe397 1.976 . S
O412 C406 1.287 . S
O413 Fe399 1.996 . S
O413 C406 1.255 . S
C414 O407 1.287 . S
C414 O408 1.255 . S
O415 Fe397 2.002 . S
O415 C411 1.295 . S
O416 Fe399 1.997 . S
O416 C411 1.235 . S
C417 O400 1.295 . S
C417 O401 1.235 . S
Fe418 O420 1.918 . S
Fe418 O423 1.997 . S
Fe418 O424 2.002 . S
Fe418 O429 1.976 . S
Fe418 O432 1.996 . S
Fe419 O420 1.918 . S
Fe419 O427 1.997 . S
Fe419 O430 1.996 . S
Fe419 O434 1.976 . S
Fe419 O437 2.002 . S
O420 Fe418 1.918 . S
O420 Fe419 1.918 . S
O420 Fe421 1.918 . S
Fe421 O420 1.918 . S
Fe421 O422 2.002 . S
Fe421 O431 1.976 . S
Fe421 O435 1.996 . S
Fe421 O438 1.997 . S
O422 Fe421 2.002 . S
O422 C439 1.295 . S
O423 Fe418 1.997 . S
O423 C439 1.235 . S
O424 Fe418 2.002 . S
O424 C425 1.295 . S
C425 O424 1.295 . S
C425 O427 1.235 . S
C426 O431 1.287 . S
C426 O432 1.255 . S
O427 Fe419 1.997 . S
O427 C425 1.235 . S
C428 O434 1.287 . S
C428 O435 1.255 . S
O429 Fe418 1.976 . S
O429 C436 1.287 . S
O430 Fe419 1.996 . S
O430 C436 1.255 . S
O431 Fe421 1.976 . S
O431 C426 1.287 . S
O432 Fe418 1.996 . S
O432 C426 1.255 . S
C433 O437 1.295 . S
C433 O438 1.235 . S
O434 Fe419 1.976 . S
O434 C428 1.287 . S
O435 Fe421 1.996 . S
O435 C428 1.255 . S
C436 O429 1.287 . S
C436 O430 1.255 . S
O437 Fe419 2.002 . S
O437 C433 1.295 . S
O438 Fe421 1.997 . S
O438 C433 1.235 . S
C439 O422 1.295 . S
C439 O423 1.235 . S
Fe440 O442 1.918 . S
Fe440 O445 1.997 . S
Fe440 O446 2.002 . S
Fe440 O451 1.976 . S
Fe440 O454 1.996 . S
Fe441 O442 1.918 . S
Fe441 O449 1.997 . S
Fe441 O452 1.996 . S
Fe441 O456 1.976 . S
Fe441 O459 2.002 . S
O442 Fe440 1.918 . S
O442 Fe441 1.918 . S
O442 Fe443 1.918 . S
Fe443 O442 1.918 . S
Fe443 O444 2.002 . S
Fe443 O453 1.976 . S
Fe443 O457 1.996 . S
Fe443 O460 1.997 . S
O444 Fe443 2.002 . S
O444 C461 1.295 . S
O445 Fe440 1.997 . S
O445 C461 1.235 . S
O446 Fe440 2.002 . S
O446 C447 1.295 . S
C447 O446 1.295 . S
C447 O449 1.235 . S
C448 O453 1.287 . S
C448 O454 1.255 . S
O449 Fe441 1.997 . S
O449 C447 1.235 . S
C450 O456 1.287 . S
C450 O457 1.255 . S
O451 Fe440 1.976 . S
O451 C458 1.287 . S
O452 Fe441 1.996 . S
O452 C458 1.255 . S
O453 Fe443 1.976 . S
O453 C448 1.287 . S
O454 Fe440 1.996 . S
O454 C448 1.255 . S
C455 O459 1.295 . S
C455 O460 1.235 . S
O456 Fe441 1.976 . S
O456 C450 1.287 . S
O457 Fe443 1.996 . S
O457 C450 1.255 . S
C458 O451 1.287 . S
C458 O452 1.255 . S
O459 Fe441 2.002 . S
O459 C455 1.295 . S
O460 Fe443 1.997 . S
O460 C455 1.235 . S
C461 O444 1.295 . S
C461 O445 1.235 . S
Fe462 O464 1.918 . S
Fe462 O467 1.997 . S
Fe462 O468 2.002 . S
Fe462 O473 1.976 . S
Fe462 O476 1.996 . S
Fe463 O464 1.918 . S
Fe463 O471 1.997 . S
Fe463 O474 1.996 . S
Fe463 O478 1.976 . S
Fe463 O481 2.002 . S
O464 Fe462 1.918 . S
O464 Fe463 1.918 . S
O464 Fe465 1.918 . S
Fe465 O464 1.918 . S
Fe465 O466 2.002 . S
Fe465 O475 1.976 . S
Fe465 O479 1.996 . S
Fe465 O482 1.997 . S
O466 Fe465 2.002 . S
O466 C483 1.295 . S
O467 Fe462 1.997 . S
O467 C483 1.235 . S
O468 Fe462 2.002 . S
O468 C469 1.295 . S
C469 O468 1.295 . S
C469 O471 1.235 . S
C470 O475 1.287 . S
C470 O476 1.255 . S
O471 Fe463 1.997 . S
O471 C469 1.235 . S
C472 O478 1.287 . S
C472 O479 1.255 . S
O473 Fe462 1.976 . S
O473 C480 1.287 . S
O474 Fe463 1.996 . S
O474 C480 1.255 . S
O475 Fe465 1.976 . S
O475 C470 1.287 . S
O476 Fe462 1.996 . S
O476 C470 1.255 . S
C477 O481 1.295 . S
C477 O482 1.235 . S
O478 Fe463 1.976 . S
O478 C472 1.287 . S
O479 Fe465 1.996 . S
O479 C472 1.255 . S
C480 O473 1.287 . S
C480 O474 1.255 . S
O481 Fe463 2.002 . S
O481 C477 1.295 . S
O482 Fe465 1.997 . S
O482 C477 1.235 . S
C483 O466 1.295 . S
C483 O467 1.235 . S
Fe484 O486 1.918 . S
Fe484 O489 1.997 . S
Fe484 O490 2.002 . S
Fe484 O495 1.976 . S
Fe484 O498 1.996 . S
Fe485 O486 1.918 . S
Fe485 O493 1.997 . S
Fe485 O496 1.996 . S
Fe485 O500 1.976 . S
Fe485 O503 2.002 . S
O486 Fe484 1.918 . S
O486 Fe485 1.918 . S
O486 Fe487 1.918 . S
Fe487 O486 1.918 . S
Fe487 O488 2.002 . S
Fe487 O497 1.976 . S
Fe487 O501 1.996 . S
Fe487 O504 1.997 . S
O488 Fe487 2.002 . S
O488 C505 1.295 . S
O489 Fe484 1.997 . S
O489 C505 1.235 . S
O490 Fe484 2.002 . S
O490 C491 1.295 . S
C491 O490 1.295 . S
C491 O493 1.235 . S
C492 O497 1.287 . S
C492 O498 1.255 . S
O493 Fe485 1.997 . S
O493 C491 1.235 . S
C494 O500 1.287 . S
C494 O501 1.255 . S
O495 Fe484 1.976 . S
O495 C502 1.287 . S
O496 Fe485 1.996 . S
O496 C502 1.255 . S
O497 Fe487 1.976 . S
O497 C492 1.287 . S
O498 Fe484 1.996 . S
O498 C492 1.255 . S
C499 O503 1.295 . S
C499 O504 1.235 . S
O500 Fe485 1.976 . S
O500 C494 1.287 . S
O501 Fe487 1.996 . S
O501 C494 1.255 . S
C502 O495 1.287 . S
C502 O496 1.255 . S
O503 Fe485 2.002 . S
O503 C499 1.295 . S
O504 Fe487 1.997 . S
O504 C499 1.235 . S
C505 O488 1.295 . S
C505 O489 1.235 . S
Fe506 O508 1.918 . S
Fe506 O511 1.997 . S
Fe506 O512 2.002 . S
Fe506 O517 1.976 . S
Fe506 O520 1.996 . S
Fe507 O508 1.918 . S
Fe507 O515 1.997 . S
Fe507 O518 1.996 . S
Fe507 O522 1.976 . S
Fe507 O525 2.002 . S
O508 Fe506 1.918 . S
O508 Fe507 1.918 . S
O508 Fe509 1.918 . S
Fe509 O508 1.918 . S
Fe509 O510 2.002 . S
Fe509 O519 1.976 . S
Fe509 O523 1.996 . S
Fe509 O526 1.997 . S
O510 Fe509 2.002 . S
O510 C527 1.295 . S
O511 Fe506 1.997 . S
O511 C527 1.235 . S
O512 Fe506 2.002 . S
O512 C513 1.295 . S
C513 O512 1.295 . S
C513 O515 1.235 . S
C514 O519 1.287 . S
C514 O520 1.255 . S
O515 Fe507 1.997 . S
O515 C513 1.235 . S
C516 O522 1.287 . S
C516 O523 1.255 . S
O517 Fe506 1.976 . S
O517 C524 1.287 . S
O518 Fe507 1.996 . S
O518 C524 1.255 . S
O519 Fe509 1.976 . S
O519 C514 1.287 . S
O520 Fe506 1.996 . S
O520 C514 1.255 . S
C521 O525 1.295 . S
C521 O526 1.235 . S
O522 Fe507 1.976 . S
O522 C516 1.287 . S
O523 Fe509 1.996 . S
O523 C516 1.255 . S
C524 O517 1.287 . S
C524 O518 1.255 . S
O525 Fe507 2.002 . S
O525 C521 1.295 . S
O526 Fe509 1.997 . S
O526 C521 1.235 . S
C527 O510 1.295 . S
C527 O511 1.235 . S
Fe528 O530 1.918 . S
Fe528 O533 1.997 . S
Fe528 O534 2.002 . S
Fe528 O539 1.976 . S
Fe528 O542 1.996 . S
Fe529 O530 1.918 . S
Fe529 O537 1.997 . S
Fe529 O540 1.996 . S
Fe529 O544 1.976 . S
Fe529 O547 2.002 . S
O530 Fe528 1.918 . S
O530 Fe529 1.918 . S
O530 Fe531 1.918 . S
Fe531 O530 1.918 . S
Fe531 O532 2.002 . S
Fe531 O541 1.976 . S
Fe531 O545 1.996 . S
Fe531 O548 1.997 . S
O532 Fe531 2.002 . S
O532 C549 1.295 . S
O533 Fe528 1.997 . S
O533 C549 1.235 . S
O534 Fe528 2.002 . S
O534 C535 1.295 . S
C535 O534 1.295 . S
C535 O537 1.235 . S
C536 O541 1.287 . S
C536 O542 1.255 . S
O537 Fe529 1.997 . S
O537 C535 1.235 . S
C538 O544 1.287 . S
C538 O545 1.255 . S
O539 Fe528 1.976 . S
O539 C546 1.287 . S
O540 Fe529 1.996 . S
O540 C546 1.255 . S
O541 Fe531 1.976 . S
O541 C536 1.287 . S
O542 Fe528 1.996 . S
O542 C536 1.255 . S
C543 O547 1.295 . S
C543 O548 1.235 . S
O544 Fe529 1.976 . S
O544 C538 1.287 . S
O545 Fe531 1.996 . S
O545 C538 1.255 . S
C546 O539 1.287 . S
C546 O540 1.255 . S
O547 Fe529 2.002 . S
O547 C543 1.295 . S
O548 Fe531 1.997 . S
O548 C543 1.235 . S
C549 O532 1.295 . S
C549 O533 1.235 . S
Fe550 O552 1.918 . S
Fe550 O555 1.997 . S
Fe550 O556 2.002 . S
Fe550 O561 1.976 . S
Fe550 O564 1.996 . S
Fe551 O552 1.918 . S
Fe551 O559 1.997 . S
Fe551 O562 1.996 . S
Fe551 O566 1.976 . S
Fe551 O569 2.002 . S
O552 Fe550 1.918 . S
O552 Fe551 1.918 . S
O552 Fe553 1.918 . S
Fe553 O552 1.918 . S
Fe553 O554 2.002 . S
Fe553 O563 1.976 . S
Fe553 O567 1.996 . S
Fe553 O570 1.997 . S
O554 Fe553 2.002 . S
O554 C571 1.295 . S
O555 Fe550 1.997 . S
O555 C571 1.235 . S
O556 Fe550 2.002 . S
O556 C557 1.295 . S
C557 O556 1.295 . S
C557 O559 1.235 . S
C558 O563 1.287 . S
C558 O564 1.255 . S
O559 Fe551 1.997 . S
O559 C557 1.235 . S
C560 O566 1.287 . S
C560 O567 1.255 . S
O561 Fe550 1.976 . S
O561 C568 1.287 . S
O562 Fe551 1.996 . S
O562 C568 1.255 . S
O563 Fe553 1.976 . S
O563 C558 1.287 . S
O564 Fe550 1.996 . S
O564 C558 1.255 . S
C565 O569 1.295 . S
C565 O570 1.235 . S
O566 Fe551 1.976 . S
O566 C560 1.287 . S
O567 Fe553 1.996 . S
O567 C560 1.255 . S
C568 O561 1.287 . S
C568 O562 1.255 . S
O569 Fe551 2.002 . S
O569 C565 1.295 . S
O570 Fe553 1.997 . S
O570 C565 1.235 . S
C571 O554 1.295 . S
C571 O555 1.235 . S
Fe572 O574 1.918 . S
Fe572 O577 1.997 . S
Fe572 O578 2.002 . S
Fe572 O583 1.976 . S
Fe572 O586 1.996 . S
Fe573 O574 1.918 . S
Fe573 O581 1.997 . S
Fe573 O584 1.996 . S
Fe573 O588 1.976 . S
Fe573 O591 2.002 . S
O574 Fe572 1.918 . S
O574 Fe573 1.918 . S
O574 Fe575 1.918 . S
Fe575 O574 1.918 . S
Fe575 O576 2.002 . S
Fe575 O585 1.976 . S
Fe575 O589 1.996 . S
Fe575 O592 1.997 . S
O576 Fe575 2.002 . S
O576 C593 1.295 . S
O577 Fe572 1.997 . S
O577 C593 1.235 . S
O578 Fe572 2.002 . S
O578 C579 1.295 . S
C579 O578 1.295 . S
C579 O581 1.235 . S
C580 O585 1.287 . S
C580 O586 1.255 . S
O581 Fe573 1.997 . S
O581 C579 1.235 . S
C582 O588 1.287 . S
C582 O589 1.255 . S
O583 Fe572 1.976 . S
O583 C590 1.287 . S
O584 Fe573 1.996 . S
O584 C590 1.255 . S
O585 Fe575 1.976 . S
O585 C580 1.287 . S
O586 Fe572 1.996 . S
O586 C580 1.255 . S
C587 O591 1.295 . S
C587 O592 1.235 . S
O588 Fe573 1.976 . S
O588 C582 1.287 . S
O589 Fe575 1.996 . S
O589 C582 1.255 . S
C590 O583 1.287 . S
C590 O584 1.255 . S
O591 Fe573 2.002 . S
O591 C587 1.295 . S
O592 Fe575 1.997 . S
O592 C587 1.235 . S
C593 O576 1.295 . S
C593 O577 1.235 . S
Fe594 O596 1.918 . S
Fe594 O599 1.997 . S
Fe594 O600 2.002 . S
Fe594 O605 1.976 . S
Fe594 O608 1.996 . S
Fe595 O596 1.918 . S
Fe595 O603 1.997 . S
Fe595 O606 1.996 . S
Fe595 O610 1.976 . S
Fe595 O613 2.002 . S
O596 Fe594 1.918 . S
O596 Fe595 1.918 . S
O596 Fe597 1.918 . S
Fe597 O596 1.918 . S
Fe597 O598 2.002 . S
Fe597 O607 1.976 . S
Fe597 O611 1.996 . S
Fe597 O614 1.997 . S
O598 Fe597 2.002 . S
O598 C615 1.295 . S
O599 Fe594 1.997 . S
O599 C615 1.235 . S
O600 Fe594 2.002 . S
O600 C601 1.295 . S
C601 O600 1.295 . S
C601 O603 1.235 . S
C602 O607 1.287 . S
C602 O608 1.255 . S
O603 Fe595 1.997 . S
O603 C601 1.235 . S
C604 O610 1.287 . S
C604 O611 1.255 . S
O605 Fe594 1.976 . S
O605 C612 1.287 . S
O606 Fe595 1.996 . S
O606 C612 1.255 . S
O607 Fe597 1.976 . S
O607 C602 1.287 . S
O608 Fe594 1.996 . S
O608 C602 1.255 . S
C609 O613 1.295 . S
C609 O614 1.235 . S
O610 Fe595 1.976 . S
O610 C604 1.287 . S
O611 Fe597 1.996 . S
O611 C604 1.255 . S
C612 O605 1.287 . S
C612 O606 1.255 . S
O613 Fe595 2.002 . S
O613 C609 1.295 . S
O614 Fe597 1.997 . S
O614 C609 1.235 . S
C615 O598 1.295 . S
C615 O599 1.235 . S
Fe616 O618 1.918 . S
Fe616 O621 1.997 . S
Fe616 O622 2.002 . S
Fe616 O627 1.976 . S
Fe616 O630 1.996 . S
Fe617 O618 1.918 . S
Fe617 O625 1.997 . S
Fe617 O628 1.996 . S
Fe617 O632 1.976 . S
Fe617 O635 2.002 . S
O618 Fe616 1.918 . S
O618 Fe617 1.918 . S
O618 Fe619 1.918 . S
Fe619 O618 1.918 . S
Fe619 O620 2.002 . S
Fe619 O629 1.976 . S
Fe619 O633 1.996 . S
Fe619 O636 1.997 . S
O620 Fe619 2.002 . S
O620 C637 1.295 . S
O621 Fe616 1.997 . S
O621 C637 1.235 . S
O622 Fe616 2.002 . S
O622 C623 1.295 . S
C623 O622 1.295 . S
C623 O625 1.235 . S
C624 O629 1.287 . S
C624 O630 1.255 . S
O625 Fe617 1.997 . S
O625 C623 1.235 . S
C626 O632 1.287 . S
C626 O633 1.255 . S
O627 Fe616 1.976 . S
O627 C634 1.287 . S
O628 Fe617 1.996 . S
O628 C634 1.255 . S
O629 Fe619 1.976 . S
O629 C624 1.287 . S
O630 Fe616 1.996 . S
O630 C624 1.255 . S
C631 O635 1.295 . S
C631 O636 1.235 . S
O632 Fe617 1.976 . S
O632 C626 1.287 . S
O633 Fe619 1.996 . S
O633 C626 1.255 . S
C634 O627 1.287 . S
C634 O628 1.255 . S
O635 Fe617 2.002 . S
O635 C631 1.295 . S
O636 Fe619 1.997 . S
O636 C631 1.235 . S
C637 O620 1.295 . S
C637 O621 1.235 . S
Fe638 O640 1.918 . S
Fe638 O643 1.997 . S
Fe638 O644 2.002 . S
Fe638 O649 1.976 . S
Fe638 O652 1.996 . S
Fe639 O640 1.918 . S
Fe639 O647 1.997 . S
Fe639 O650 1.996 . S
Fe639 O654 1.976 . S
Fe639 O657 2.002 . S
O640 Fe638 1.918 . S
O640 Fe639 1.918 . S
O640 Fe641 1.918 . S
Fe641 O640 1.918 . S
Fe641 O642 2.002 . S
Fe641 O651 1.976 . S
Fe641 O655 1.996 . S
Fe641 O658 1.997 . S
O642 Fe641 2.002 . S
O642 C659 1.295 . S
O643 Fe638 1.997 . S
O643 C659 1.235 . S
O644 Fe638 2.002 . S
O644 C645 1.295 . S
C645 O644 1.295 . S
C645 O647 1.235 . S
C646 O651 1.287 . S
C646 O652 1.255 . S
O647 Fe639 1.997 . S
O647 C645 1.235 . S
C648 O654 1.287 . S
C648 O655 1.255 . S
O649 Fe638 1.976 . S
O649 C656 1.287 . S
O650 Fe639 1.996 . S
O650 C656 1.255 . S
O651 Fe641 1.976 . S
O651 C646 1.287 . S
O652 Fe638 1.996 . S
O652 C646 1.255 . S
C653 O657 1.295 . S
C653 O658 1.235 . S
O654 Fe639 1.976 . S
O654 C648 1.287 . S
O655 Fe641 1.996 . S
O655 C648 1.255 . S
C656 O649 1.287 . S
C656 O650 1.255 . S
O657 Fe639 2.002 . S
O657 C653 1.295 . S
O658 Fe641 1.997 . S
O658 C653 1.235 . S
C659 O642 1.295 . S
C659 O643 1.235 . S
Fe660 O662 1.918 . S
Fe660 O665 1.997 . S
Fe660 O666 2.002 . S
Fe660 O671 1.976 . S
Fe660 O674 1.996 . S
Fe661 O662 1.918 . S
Fe661 O669 1.997 . S
Fe661 O672 1.996 . S
Fe661 O676 1.976 . S
Fe661 O679 2.002 . S
O662 Fe660 1.918 . S
O662 Fe661 1.918 . S
O662 Fe663 1.918 . S
Fe663 O662 1.918 . S
Fe663 O664 2.002 . S
Fe663 O673 1.976 . S
Fe663 O677 1.996 . S
Fe663 O680 1.997 . S
O664 Fe663 2.002 . S
O664 C681 1.295 . S
O665 Fe660 1.997 . S
O665 C681 1.235 . S
O666 Fe660 2.002 . S
O666 C667 1.295 . S
C667 O666 1.295 . S
C667 O669 1.235 . S
C668 O673 1.287 . S
C668 O674 1.255 . S
O669 Fe661 1.997 . S
O669 C667 1.235 . S
C670 O676 1.287 . S
C670 O677 1.255 . S
O671 Fe660 1.976 . S
O671 C678 1.287 . S
O672 Fe661 1.996 . S
O672 C678 1.255 . S
O673 Fe663 1.976 . S
O673 C668 1.287 . S
O674 Fe660 1.996 . S
O674 C668 1.255 . S
C675 O679 1.295 . S
C675 O680 1.235 . S
O676 Fe661 1.976 . S
O676 C670 1.287 . S
O677 Fe663 1.996 . S
O677 C670 1.255 . S
C678 O671 1.287 . S
C678 O672 1.255 . S
O679 Fe661 2.002 . S
O679 C675 1.295 . S
O680 Fe663 1.997 . S
O680 C675 1.235 . S
C681 O664 1.295 . S
C681 O665 1.235 . S
Fe682 O684 1.918 . S
Fe682 O687 1.997 . S
Fe682 O688 2.002 . S
Fe682 O693 1.976 . S
Fe682 O696 1.996 . S
Fe683 O684 1.918 . S
Fe683 O691 1.997 . S
Fe683 O694 1.996 . S
Fe683 O698 1.976 . S
Fe683 O701 2.002 . S
O684 Fe682 1.918 . S
O684 Fe683 1.918 . S
O684 Fe685 1.918 . S
Fe685 O684 1.918 . S
Fe685 O686 2.002 . S
Fe685 O695 1.976 . S
Fe685 O699 1.996 . S
Fe685 O702 1.997 . S
O686 Fe685 2.002 . S
O686 C703 1.295 . S
O687 Fe682 1.997 . S
O687 C703 1.235 . S
O688 Fe682 2.002 . S
O688 C689 1.295 . S
C689 O688 1.295 . S
C689 O691 1.235 . S
C690 O695 1.287 . S
C690 O696 1.255 . S
O691 Fe683 1.997 . S
O691 C689 1.235 . S
C692 O698 1.287 . S
C692 O699 1.255 . S
O693 Fe682 1.976 . S
O693 C700 1.287 . S
O694 Fe683 1.996 . S
O694 C700 1.255 . S
O695 Fe685 1.976 . S
O695 C690 1.287 . S
O696 Fe682 1.996 . S
O696 C690 1.255 . S
C697 O701 1.295 . S
C697 O702 1.235 . S
O698 Fe683 1.976 . S
O698 C692 1.287 . S
O699 Fe685 1.996 . S
O699 C692 1.255 . S
C700 O693 1.287 . S
C700 O694 1.255 . S
O701 Fe683 2.002 . S
O701 C697 1.295 . S
O702 Fe685 1.997 . S
O702 C697 1.235 . S
C703 O686 1.295 . S
C703 O687 1.235 . S
Fe704 O706 1.918 . S
Fe704 O709 1.997 . S
Fe704 O710 2.002 . S
Fe704 O715 1.976 . S
Fe704 O718 1.996 . S
Fe705 O706 1.918 . S
Fe705 O713 1.997 . S
Fe705 O716 1.996 . S
Fe705 O720 1.976 . S
Fe705 O723 2.002 . S
O706 Fe704 1.918 . S
O706 Fe705 1.918 . S
O706 Fe707 1.918 . S
Fe707 O706 1.918 . S
Fe707 O708 2.002 . S
Fe707 O717 1.976 . S
Fe707 O721 1.996 . S
Fe707 O724 1.997 . S
O708 Fe707 2.002 . S
O708 C725 1.295 . S
O709 Fe704 1.997 . S
O709 C725 1.235 . S
O710 Fe704 2.002 . S
O710 C711 1.295 . S
C711 O710 1.295 . S
C711 O713 1.235 . S
C712 O717 1.287 . S
C712 O718 1.255 . S
O713 Fe705 1.997 . S
O713 C711 1.235 . S
C714 O720 1.287 . S
C714 O721 1.255 . S
O715 Fe704 1.976 . S
O715 C722 1.287 . S
O716 Fe705 1.996 . S
O716 C722 1.255 . S
O717 Fe707 1.976 . S
O717 C712 1.287 . S
O718 Fe704 1.996 . S
O718 C712 1.255 . S
C719 O723 1.295 . S
C719 O724 1.235 . S
O720 Fe705 1.976 . S
O720 C714 1.287 . S
O721 Fe707 1.996 . S
O721 C714 1.255 . S
C722 O715 1.287 . S
C722 O716 1.255 . S
O723 Fe705 2.002 . S
O723 C719 1.295 . S
O724 Fe707 1.997 . S
O724 C719 1.235 . S
C725 O708 1.295 . S
C725 O709 1.235 . S
Fe726 O728 1.918 . S
Fe726 O731 1.997 . S
Fe726 O732 2.002 . S
Fe726 O737 1.976 . S
Fe726 O740 1.996 . S
Fe727 O728 1.918 . S
Fe727 O735 1.997 . S
Fe727 O738 1.996 . S
Fe727 O742 1.976 . S
Fe727 O745 2.002 . S
O728 Fe726 1.918 . S
O728 Fe727 1.918 . S
O728 Fe729 1.918 . S
Fe729 O728 1.918 . S
Fe729 O730 2.002 . S
Fe729 O739 1.976 . S
Fe729 O743 1.996 . S
Fe729 O746 1.997 . S
O730 Fe729 2.002 . S
O730 C747 1.295 . S
O731 Fe726 1.997 . S
O731 C747 1.235 . S
O732 Fe726 2.002 . S
O732 C733 1.295 . S
C733 O732 1.295 . S
C733 O735 1.235 . S
C734 O739 1.287 . S
C734 O740 1.255 . S
O735 Fe727 1.997 . S
O735 C733 1.235 . S
C736 O742 1.287 . S
C736 O743 1.255 . S
O737 Fe726 1.976 . S
O737 C744 1.287 . S
O738 Fe727 1.996 . S
O738 C744 1.255 . S
O739 Fe729 1.976 . S
O739 C734 1.287 . S
O740 Fe726 1.996 . S
O740 C734 1.255 . S
C741 O745 1.295 . S
C741 O746 1.235 . S
O742 Fe727 1.976 . S
O742 C736 1.287 . S
O743 Fe729 1.996 . S
O743 C736 1.255 . S
C744 O737 1.287 . S
C744 O738 1.255 . S
O745 Fe727 2.002 . S
O745 C741 1.295 . S
O746 Fe729 1.997 . S
O746 C741 1.235 . S
C747 O730 1.295 . S
C747 O731 1.235 . S
Fe748 O750 1.918 . S
Fe748 O753 1.997 . S
Fe748 O754 2.002 . S
Fe748 O759 1.976 . S
Fe748 O762 1.996 . S
Fe749 O750 1.918 . S
Fe749 O757 1.997 . S
Fe749 O760 1.996 . S
Fe749 O764 1.976 . S
Fe749 O767 2.002 . S
O750 Fe748 1.918 . S
O750 Fe749 1.918 . S
O750 Fe751 1.918 . S
Fe751 O750 1.918 . S
Fe751 O752 2.002 . S
Fe751 O761 1.976 . S
Fe751 O765 1.996 . S
Fe751 O768 1.997 . S
O752 Fe751 2.002 . S
O752 C769 1.295 . S
O753 Fe748 1.997 . S
O753 C769 1.235 . S
O754 Fe748 2.002 . S
O754 C755 1.295 . S
C755 O754 1.295 . S
C755 O757 1.235 . S
C756 O761 1.287 . S
C756 O762 1.255 . S
O757 Fe749 1.997 . S
O757 C755 1.235 . S
C758 O764 1.287 . S
C758 O765 1.255 . S
O759 Fe748 1.976 . S
O759 C766 1.287 . S
O760 Fe749 1.996 . S
O760 C766 1.255 . S
O761 Fe751 1.976 . S
O761 C756 1.287 . S
O762 Fe748 1.996 . S
O762 C756 1.255 . S
C763 O767 1.295 . S
C763 O768 1.235 . S
O764 Fe749 1.976 . S
O764 C758 1.287 . S
O765 Fe751 1.996 . S
O765 C758 1.255 . S
C766 O759 1.287 . S
C766 O760 1.255 . S
O767 Fe749 2.002 . S
O767 C763 1.295 . S
O768 Fe751 1.997 . S
O768 C763 1.235 . S
C769 O752 1.295 . S
C769 O753 1.235 . S
Fe770 O772 1.918 . S
Fe770 O775 1.997 . S
Fe770 O776 2.002 . S
Fe770 O781 1.976 . S
Fe770 O784 1.996 . S
Fe771 O772 1.918 . S
Fe771 O779 1.997 . S
Fe771 O782 1.996 . S
Fe771 O786 1.976 . S
Fe771 O789 2.002 . S
O772 Fe770 1.918 . S
O772 Fe771 1.918 . S
O772 Fe773 1.918 . S
Fe773 O772 1.918 . S
Fe773 O774 2.002 . S
Fe773 O783 1.976 . S
Fe773 O787 1.996 . S
Fe773 O790 1.997 . S
O774 Fe773 2.002 . S
O774 C791 1.295 . S
O775 Fe770 1.997 . S
O775 C791 1.235 . S
O776 Fe770 2.002 . S
O776 C777 1.295 . S
C777 O776 1.295 . S
C777 O779 1.235 . S
C778 O783 1.287 . S
C778 O784 1.255 . S
O779 Fe771 1.997 . S
O779 C777 1.235 . S
C780 O786 1.287 . S
C780 O787 1.255 . S
O781 Fe770 1.976 . S
O781 C788 1.287 . S
O782 Fe771 1.996 . S
O782 C788 1.255 . S
O783 Fe773 1.976 . S
O783 C778 1.287 . S
O784 Fe770 1.996 . S
O784 C778 1.255 . S
C785 O789 1.295 . S
C785 O790 1.235 . S
O786 Fe771 1.976 . S
O786 C780 1.287 . S
O787 Fe773 1.996 . S
O787 C780 1.255 . S
C788 O781 1.287 . S
C788 O782 1.255 . S
O789 Fe771 2.002 . S
O789 C785 1.295 . S
O790 Fe773 1.997 . S
O790 C785 1.235 . S
C791 O774 1.295 . S
C791 O775 1.235 . S
H792 C800 0.950 . S
H793 C805 0.950 . S
H794 C802 0.950 . S
H795 C804 0.950 . S
H796 C806 0.950 . S
H797 C808 0.950 . S
H798 C810 0.950 . S
H799 C811 0.950 . S
C800 H792 0.950 . S
C800 C801 1.386 . S
C800 C802 1.391 . S
C801 C800 1.386 . S
C801 C805 1.393 . S
C802 H794 0.950 . S
C802 C800 1.391 . S
C802 C803 1.400 . S
C803 C802 1.400 . S
C803 C804 1.398 . S
C803 C809 1.491 . S
C804 H795 0.950 . S
C804 C803 1.398 . S
C804 C805 1.391 . S
C805 H793 0.950 . S
C805 C801 1.393 . S
C805 C804 1.391 . S
C806 H796 0.950 . S
C806 C807 1.386 . S
C806 C808 1.391 . S
C807 C806 1.386 . S
C807 C811 1.393 . S
C808 H797 0.950 . S
C808 C806 1.391 . S
C808 C809 1.400 . S
C809 C803 1.491 . S
C809 C808 1.400 . S
C809 C810 1.398 . S
C810 H798 0.950 . S
C810 C809 1.398 . S
C810 C811 1.391 . S
C811 H799 0.950 . S
C811 C807 1.393 . S
C811 C810 1.391 . S
H812 C820 0.950 . S
H813 C825 0.950 . S
H814 C822 0.950 . S
H815 C824 0.950 . S
H816 C826 0.950 . S
H817 C828 0.950 . S
H818 C830 0.950 . S
H819 C831 0.950 . S
C820 H812 0.950 . S
C820 C821 1.386 . S
C820 C822 1.391 . S
C821 C820 1.386 . S
C821 C825 1.393 . S
C822 H814 0.950 . S
C822 C820 1.391 . S
C822 C823 1.400 . S
C823 C822 1.400 . S
C823 C824 1.398 . S
C823 C829 1.491 . S
C824 H815 0.950 . S
C824 C823 1.398 . S
C824 C825 1.391 . S
C825 H813 0.950 . S
C825 C821 1.393 . S
C825 C824 1.391 . S
C826 H816 0.950 . S
C826 C827 1.386 . S
C826 C828 1.391 . S
C827 C826 1.386 . S
C827 C831 1.393 . S
C828 H817 0.950 . S
C828 C826 1.391 . S
C828 C829 1.400 . S
C829 C823 1.491 . S
C829 C828 1.400 . S
C829 C830 1.398 . S
C830 H818 0.950 . S
C830 C829 1.398 . S
C830 C831 1.391 . S
C831 H819 0.950 . S
C831 C827 1.393 . S
C831 C830 1.391 . S
H832 C840 0.950 . S
H833 C845 0.950 . S
H834 C842 0.950 . S
H835 C844 0.950 . S
H836 C846 0.950 . S
H837 C848 0.950 . S
H838 C850 0.950 . S
H839 C851 0.950 . S
C840 H832 0.950 . S
C840 C841 1.386 . S
C840 C842 1.391 . S
C841 C840 1.386 . S
C841 C845 1.393 . S
C842 H834 0.950 . S
C842 C840 1.391 . S
C842 C843 1.400 . S
C843 C842 1.400 . S
C843 C844 1.398 . S
C843 C849 1.491 . S
C844 H835 0.950 . S
C844 C843 1.398 . S
C844 C845 1.391 . S
C845 H833 0.950 . S
C845 C841 1.393 . S
C845 C844 1.391 . S
C846 H836 0.950 . S
C846 C847 1.386 . S
C846 C848 1.391 . S
C847 C846 1.386 . S
C847 C851 1.393 . S
C848 H837 0.950 . S
C848 C846 1.391 . S
C848 C849 1.400 . S
C849 C843 1.491 . S
C849 C848 1.400 . S
C849 C850 1.398 . S
C850 H838 0.950 . S
C850 C849 1.398 . S
C850 C851 1.391 . S
C851 H839 0.950 . S
C851 C847 1.393 . S
C851 C850 1.391 . S
H852 C860 0.950 . S
H853 C865 0.950 . S
H854 C862 0.950 . S
H855 C864 0.950 . S
H856 C866 0.950 . S
H857 C868 0.950 . S
H858 C870 0.950 . S
H859 C871 0.950 . S
C860 H852 0.950 . S
C860 C861 1.386 . S
C860 C862 1.391 . S
C861 C860 1.386 . S
C861 C865 1.393 . S
C862 H854 0.950 . S
C862 C860 1.391 . S
C862 C863 1.400 . S
C863 C862 1.400 . S
C863 C864 1.398 . S
C863 C869 1.491 . S
C864 H855 0.950 . S
C864 C863 1.398 . S
C864 C865 1.391 . S
C865 H853 0.950 . S
C865 C861 1.393 . S
C865 C864 1.391 . S
C866 H856 0.950 . S
C866 C867 1.386 . S
C866 C868 1.391 . S
C867 C866 1.386 . S
C867 C871 1.393 . S
C868 H857 0.950 . S
C868 C866 1.391 . S
C868 C869 1.400 . S
C869 C863 1.491 . S
C869 C868 1.400 . S
C869 C870 1.398 . S
C870 H858 0.950 . S
C870 C869 1.398 . S
C870 C871 1.391 . S
C871 H859 0.950 . S
C871 C867 1.393 . S
C871 C870 1.391 . S
H872 C880 0.950 . S
H873 C885 0.950 . S
H874 C882 0.950 . S
H875 C884 0.950 . S
H876 C886 0.950 . S
H877 C888 0.950 . S
H878 C890 0.950 . S
H879 C891 0.950 . S
C880 H872 0.950 . S
C880 C881 1.386 . S
C880 C882 1.391 . S
C881 C880 1.386 . S
C881 C885 1.393 . S
C882 H874 0.950 . S
C882 C880 1.391 . S
C882 C883 1.400 . S
C883 C882 1.400 . S
C883 C884 1.398 . S
C883 C889 1.491 . S
C884 H875 0.950 . S
C884 C883 1.398 . S
C884 C885 1.391 . S
C885 H873 0.950 . S
C885 C881 1.393 . S
C885 C884 1.391 . S
C886 H876 0.950 . S
C886 C887 1.386 . S
C886 C888 1.391 . S
C887 C886 1.386 . S
C887 C891 1.393 . S
C888 H877 0.950 . S
C888 C886 1.391 . S
C888 C889 1.400 . S
C889 C883 1.491 . S
C889 C888 1.400 . S
C889 C890 1.398 . S
C890 H878 0.950 . S
C890 C889 1.398 . S
C890 C891 1.391 . S
C891 H879 0.950 . S
C891 C887 1.393 . S
C891 C890 1.391 . S
H892 C900 0.950 . S
H893 C905 0.950 . S
H894 C902 0.950 . S
H895 C904 0.950 . S
H896 C906 0.950 . S
H897 C908 0.950 . S
H898 C910 0.950 . S
H899 C911 0.950 . S
C900 H892 0.950 . S
C900 C901 1.386 . S
C900 C902 1.391 . S
C901 C900 1.386 . S
C901 C905 1.393 . S
C902 H894 0.950 . S
C902 C900 1.391 . S
C902 C903 1.400 . S
C903 C902 1.400 . S
C903 C904 1.398 . S
C903 C909 1.491 . S
C904 H895 0.950 . S
C904 C903 1.398 . S
C904 C905 1.391 . S
C905 H893 0.950 . S
C905 C901 1.393 . S
C905 C904 1.391 . S
C906 H896 0.950 . S
C906 C907 1.386 . S
C906 C908 1.391 . S
C907 C906 1.386 . S
C907 C911 1.393 . S
C908 H897 0.950 . S
C908 C906 1.391 . S
C908 C909 1.400 . S
C909 C903 1.491 . S
C909 C908 1.400 . S
C909 C910 1.398 . S
C910 H898 0.950 . S
C910 C909 1.398 . S
C910 C911 1.391 . S
C911 H899 0.950 . S
C911 C907 1.393 . S
C911 C910 1.391 . S
H912 C920 0.950 . S
H913 C925 0.950 . S
H914 C922 0.950 . S
H915 C924 0.950 . S
H916 C926 0.950 . S
H917 C928 0.950 . S
H918 C930 0.950 . S
H919 C931 0.950 . S
C920 H912 0.950 . S
C920 C921 1.386 . S
C920 C922 1.391 . S
C921 C920 1.386 . S
C921 C925 1.393 . S
C922 H914 0.950 . S
C922 C920 1.391 . S
C922 C923 1.400 . S
C923 C922 1.400 . S
C923 C924 1.398 . S
C923 C929 1.491 . S
C924 H915 0.950 . S
C924 C923 1.398 . S
C924 C925 1.391 . S
C925 H913 0.950 . S
C925 C921 1.393 . S
C925 C924 1.391 . S
C926 H916 0.950 . S
C926 C927 1.386 . S
C926 C928 1.391 . S
C927 C926 1.386 . S
C927 C931 1.393 . S
C928 H917 0.950 . S
C928 C926 1.391 . S
C928 C929 1.400 . S
C929 C923 1.491 . S
C929 C928 1.400 . S
C929 C930 1.398 . S
C930 H918 0.950 . S
C930 C929 1.398 . S
C930 C931 1.391 . S
C931 H919 0.950 . S
C931 C927 1.393 . S
C931 C930 1.391 . S
H932 C940 0.950 . S
H933 C945 0.950 . S
H934 C942 0.950 . S
H935 C944 0.950 . S
H936 C946 0.950 . S
H937 C948 0.950 . S
H938 C950 0.950 . S
H939 C951 0.950 . S
C940 H932 0.950 . S
C940 C941 1.386 . S
C940 C942 1.391 . S
C941 C940 1.386 . S
C941 C945 1.393 . S
C942 H934 0.950 . S
C942 C940 1.391 . S
C942 C943 1.400 . S
C943 C942 1.400 . S
C943 C944 1.398 . S
C943 C949 1.491 . S
C944 H935 0.950 . S
C944 C943 1.398 . S
C944 C945 1.391 . S
C945 H933 0.950 . S
C945 C941 1.393 . S
C945 C944 1.391 . S
C946 H936 0.950 . S
C946 C947 1.386 . S
C946 C948 1.391 . S
C947 C946 1.386 . S
C947 C951 1.393 . S
C948 H937 0.950 . S
C948 C946 1.391 . S
C948 C949 1.400 . S
C949 C943 1.491 . S
C949 C948 1.400 . S
C949 C950 1.398 . S
C950 H938 0.950 . S
C950 C949 1.398 . S
C950 C951 1.391 . S
C951 H939 0.950 . S
C951 C947 1.393 . S
C951 C950 1.391 . S
H952 C960 0.950 . S
H953 C965 0.950 . S
H954 C962 0.950 . S
H955 C964 0.950 . S
H956 C966 0.950 . S
H957 C968 0.950 . S
H958 C970 0.950 . S
H959 C971 0.950 . S
C960 H952 0.950 . S
C960 C961 1.386 . S
C960 C962 1.391 . S
C961 C960 1.386 . S
C961 C965 1.393 . S
C962 H954 0.950 . S
C962 C960 1.391 . S
C962 C963 1.400 . S
C963 C962 1.400 . S
C963 C964 1.398 . S
C963 C969 1.491 . S
C964 H955 0.950 . S
C964 C963 1.398 . S
C964 C965 1.391 . S
C965 H953 0.950 . S
C965 C961 1.393 . S
C965 C964 1.391 . S
C966 H956 0.950 . S
C966 C967 1.386 . S
C966 C968 1.391 . S
C967 C966 1.386 . S
C967 C971 1.393 . S
C968 H957 0.950 . S
C968 C966 1.391 . S
C968 C969 1.400 . S
C969 C963 1.491 . S
C969 C968 1.400 . S
C969 C970 1.398 . S
C970 H958 0.950 . S
C970 C969 1.398 . S
C970 C971 1.391 . S
C971 H959 0.950 . S
C971 C967 1.393 . S
C971 C970 1.391 . S
H972 C980 0.950 . S
H973 C985 0.950 . S
H974 C982 0.950 . S
H975 C984 0.950 . S
H976 C986 0.950 . S
H977 C988 0.950 . S
H978 C990 0.950 . S
H979 C991 0.950 . S
C980 H972 0.950 . S
C980 C981 1.386 . S
C980 C982 1.391 . S
C981 C980 1.386 . S
C981 C985 1.393 . S
C982 H974 0.950 . S
C982 C980 1.391 . S
C982 C983 1.400 . S
C983 C982 1.400 . S
C983 C984 1.398 . S
C983 C989 1.491 . S
C984 H975 0.950 . S
C984 C983 1.398 . S
C984 C985 1.391 . S
C985 H973 0.950 . S
C985 C981 1.393 . S
C985 C984 1.391 . S
C986 H976 0.950 . S
C986 C987 1.386 . S
C986 C988 1.391 . S
C987 C986 1.386 . S
C987 C991 1.393 . S
C988 H977 0.950 . S
C988 C986 1.391 . S
C988 C989 1.400 . S
C989 C983 1.491 . S
C989 C988 1.400 . S
C989 C990 1.398 . S
C990 H978 0.950 . S
C990 C989 1.398 . S
C990 C991 1.391 . S
C991 H979 0.950 . S
C991 C987 1.393 . S
C991 C990 1.391 . S
H992 C1000 0.950 . S
H993 C1005 0.950 . S
H994 C1002 0.950 . S
H995 C1004 0.950 . S
H996 C1006 0.950 . S
H997 C1008 0.950 . S
H998 C1010 0.950 . S
H999 C1011 0.950 . S
C1000 H992 0.950 . S
C1000 C1001 1.386 . S
C1000 C1002 1.391 . S
C1001 C1000 1.386 . S
C1001 C1005 1.393 . S
C1002 H994 0.950 . S
C1002 C1000 1.391 . S
C1002 C1003 1.400 . S
C1003 C1002 1.400 . S
C1003 C1004 1.398 . S
C1003 C1009 1.491 . S
C1004 H995 0.950 . S
C1004 C1003 1.398 . S
C1004 C1005 1.391 . S
C1005 H993 0.950 . S
C1005 C1001 1.393 . S
C1005 C1004 1.391 . S
C1006 H996 0.950 . S
C1006 C1007 1.386 . S
C1006 C1008 1.391 . S
C1007 C1006 1.386 . S
C1007 C1011 1.393 . S
C1008 H997 0.950 . S
C1008 C1006 1.391 . S
C1008 C1009 1.400 . S
C1009 C1003 1.491 . S
C1009 C1008 1.400 . S
C1009 C1010 1.398 . S
C1010 H998 0.950 . S
C1010 C1009 1.398 . S
C1010 C1011 1.391 . S
C1011 H999 0.950 . S
C1011 C1007 1.393 . S
C1011 C1010 1.391 . S
H1012 C1020 0.950 . S
H1013 C1025 0.950 . S
H1014 C1022 0.950 . S
H1015 C1024 0.950 . S
H1016 C1026 0.950 . S
H1017 C1028 0.950 . S
H1018 C1030 0.950 . S
H1019 C1031 0.950 . S
C1020 H1012 0.950 . S
C1020 C1021 1.386 . S
C1020 C1022 1.391 . S
C1021 C1020 1.386 . S
C1021 C1025 1.393 . S
C1022 H1014 0.950 . S
C1022 C1020 1.391 . S
C1022 C1023 1.400 . S
C1023 C1022 1.400 . S
C1023 C1024 1.398 . S
C1023 C1029 1.491 . S
C1024 H1015 0.950 . S
C1024 C1023 1.398 . S
C1024 C1025 1.391 . S
C1025 H1013 0.950 . S
C1025 C1021 1.393 . S
C1025 C1024 1.391 . S
C1026 H1016 0.950 . S
C1026 C1027 1.386 . S
C1026 C1028 1.391 . S
C1027 C1026 1.386 . S
C1027 C1031 1.393 . S
C1028 H1017 0.950 . S
C1028 C1026 1.391 . S
C1028 C1029 1.400 . S
C1029 C1023 1.491 . S
C1029 C1028 1.400 . S
C1029 C1030 1.398 . S
C1030 H1018 0.950 . S
C1030 C1029 1.398 . S
C1030 C1031 1.391 . S
C1031 H1019 0.950 . S
C1031 C1027 1.393 . S
C1031 C1030 1.391 . S
H1032 C1040 0.950 . S
H1033 C1045 0.950 1_554 S
H1034 C1042 0.994 . S
H1035 C1044 0.950 . S
H1036 C1046 0.950 . S
H1037 C1048 0.998 . S
H1038 C1050 0.950 . S
H1039 C1051 0.950 1_556 S
C1040 H1032 0.950 . S
C1040 C1041 1.386 . S
C1040 C1042 1.391 . S
C1041 C1040 1.386 . S
C1041 C1045 1.393 . S
C1042 H1034 0.994 . S
C1042 C1040 1.391 . S
C1042 C1043 1.400 . S
C1043 C1042 1.400 . S
C1043 C1044 1.398 1_556 S
C1043 C1049 1.491 1_656 S
C1044 H1035 0.950 . S
C1044 C1043 1.398 1_554 S
C1044 C1045 1.391 1_554 S
C1045 H1033 0.950 1_556 S
C1045 C1041 1.393 . S
C1045 C1044 1.391 1_556 S
C1046 H1036 0.950 . S
C1046 C1047 1.386 . S
C1046 C1048 1.391 . S
C1047 C1046 1.386 . S
C1047 C1051 1.393 . S
C1048 H1037 0.998 . S
C1048 C1046 1.391 . S
C1048 C1049 1.400 . S
C1049 C1043 1.491 1_454 S
C1049 C1048 1.400 . S
C1049 C1050 1.398 1_554 S
C1050 H1038 0.950 . S
C1050 C1049 1.398 1_556 S
C1050 C1051 1.391 1_556 S
C1051 H1039 0.950 1_554 S
C1051 C1047 1.393 . S
C1051 C1050 1.391 1_554 S
H1052 C1060 0.950 . S
H1053 C1065 0.950 . S
H1054 C1062 0.950 . S
H1055 C1064 0.950 . S
H1056 C1066 0.950 . S
H1057 C1068 0.950 . S
H1058 C1070 0.950 . S
H1059 C1071 0.950 . S
C1060 H1052 0.950 . S
C1060 C1061 1.386 . S
C1060 C1062 1.391 . S
C1061 C1060 1.386 . S
C1061 C1065 1.393 . S
C1062 H1054 0.950 . S
C1062 C1060 1.391 . S
C1062 C1063 1.400 . S
C1063 C1062 1.400 . S
C1063 C1064 1.398 1_554 S
C1063 C1069 1.491 1_554 S
C1064 H1055 0.950 . S
C1064 C1063 1.398 1_556 S
C1064 C1065 1.391 1_556 S
C1065 H1053 0.950 . S
C1065 C1061 1.393 . S
C1065 C1064 1.391 1_554 S
C1066 H1056 0.950 . S
C1066 C1067 1.386 . S
C1066 C1068 1.391 . S
C1067 C1066 1.386 . S
C1067 C1071 1.393 . S
C1068 H1057 0.950 . S
C1068 C1066 1.391 . S
C1068 C1069 1.400 . S
C1069 C1063 1.491 1_556 S
C1069 C1068 1.400 . S
C1069 C1070 1.398 1_556 S
C1070 H1058 0.950 . S
C1070 C1069 1.398 1_554 S
C1070 C1071 1.391 1_554 S
C1071 H1059 0.950 . S
C1071 C1067 1.393 . S
C1071 C1070 1.391 1_556 S
H1072 C1080 0.950 1_554 S
H1073 C1085 0.950 . S
H1074 C1082 0.950 . S
H1075 C1084 0.998 . S
H1076 C1086 0.950 1_556 S
H1077 C1088 0.950 . S
H1078 C1090 0.995 . S
H1079 C1091 0.950 . S
C1080 H1072 0.950 1_556 S
C1080 C1081 1.386 . S
C1080 C1082 1.391 1_556 S
C1081 C1080 1.386 . S
C1081 C1085 1.393 . S
C1082 H1074 0.950 . S
C1082 C1080 1.391 1_554 S
C1082 C1083 1.400 1_554 S
C1083 C1082 1.400 1_556 S
C1083 C1084 1.398 . S
C1083 C1089 1.491 1_546 S
C1084 H1075 0.998 . S
C1084 C1083 1.398 . S
C1084 C1085 1.391 . S
C1085 H1073 0.950 . S
C1085 C1081 1.393 . S
C1085 C1084 1.391 . S
C1086 H1076 0.950 1_554 S
C1086 C1087 1.386 . S
C1086 C1088 1.391 1_554 S
C1087 C1086 1.386 . S
C1087 C1091 1.393 . S
C1088 H1077 0.950 . S
C1088 C1086 1.391 1_556 S
C1088 C1089 1.400 1_556 S
C1089 C1083 1.491 1_564 S
C1089 C1088 1.400 1_554 S
C1089 C1090 1.398 . S
C1090 H1078 0.995 . S
C1090 C1089 1.398 . S
C1090 C1091 1.391 . S
C1091 H1079 0.950 . S
C1091 C1087 1.393 . S
C1091 C1090 1.391 . S
H1092 C1100 0.950 . S
H1093 C1105 0.950 . S
H1094 C1102 0.950 . S
H1095 C1104 0.950 1_556 S
H1096 C1106 0.950 . S
H1097 C1108 0.950 . S
H1098 C1110 0.950 1_554 S
H1099 C1111 0.950 . S
C1100 H1092 0.950 . S
C1100 C1101 1.386 . S
C1100 C1102 1.391 . S
C1101 C1100 1.386 . S
C1101 C1105 1.393 . S
C1102 H1094 0.950 . S
C1102 C1100 1.391 . S
C1102 C1103 1.400 . S
C1103 C1102 1.400 . S
C1103 C1104 1.398 . S
C1103 C1109 1.491 1_564 S
C1104 H1095 0.950 1_554 S
C1104 C1103 1.398 . S
C1104 C1105 1.391 . S
C1105 H1093 0.950 . S
C1105 C1101 1.393 . S
C1105 C1104 1.391 . S
C1106 H1096 0.950 . S
C1106 C1107 1.386 . S
C1106 C1108 1.391 . S
C1107 C1106 1.386 . S
C1107 C1111 1.393 . S
C1108 H1097 0.950 . S
C1108 C1106 1.391 . S
C1108 C1109 1.400 . S
C1109 C1103 1.491 1_546 S
C1109 C1108 1.400 . S
C1109 C1110 1.398 . S
C1110 H1098 0.950 1_556 S
C1110 C1109 1.398 . S
C1110 C1111 1.391 . S
C1111 H1099 0.950 . S
C1111 C1107 1.393 . S
C1111 C1110 1.391 . S
H1112 C1120 0.950 . S
H1113 C1125 0.950 1_556 S
H1114 C1122 0.987 . S
H1115 C1124 0.950 . S
H1116 C1126 0.950 . S
H1117 C1128 0.988 . S
H1118 C1130 0.950 . S
H1119 C1131 0.950 1_554 S
C1120 H1112 0.950 . S
C1120 C1121 1.386 . S
C1120 C1122 1.391 . S
C1121 C1120 1.386 . S
C1121 C1125 1.393 . S
C1122 H1114 0.987 . S
C1122 C1120 1.391 . S
C1122 C1123 1.400 . S
C1123 C1122 1.400 . S
C1123 C1124 1.398 1_554 S
C1123 C1129 1.491 1_454 S
C1124 H1115 0.950 . S
C1124 C1123 1.398 1_556 S
C1124 C1125 1.391 1_556 S
C1125 H1113 0.950 1_554 S
C1125 C1121 1.393 . S
C1125 C1124 1.391 1_554 S
C1126 H1116 0.950 . S
C1126 C1127 1.386 . S
C1126 C1128 1.391 . S
C1127 C1126 1.386 . S
C1127 C1131 1.393 . S
C1128 H1117 0.988 . S
C1128 C1126 1.391 . S
C1128 C1129 1.400 . S
C1129 C1123 1.491 1_656 S
C1129 C1128 1.400 . S
C1129 C1130 1.398 1_556 S
C1130 H1118 0.950 . S
C1130 C1129 1.398 1_554 S
C1130 C1131 1.391 1_554 S
C1131 H1119 0.950 1_556 S
C1131 C1127 1.393 . S
C1131 C1130 1.391 1_556 S
H1132 C1140 0.950 . S
H1133 C1145 0.950 . S
H1134 C1142 0.950 . S
H1135 C1144 0.950 . S
H1136 C1146 0.950 . S
H1137 C1148 0.950 . S
H1138 C1150 0.950 . S
H1139 C1151 0.950 . S
C1140 H1132 0.950 . S
C1140 C1141 1.386 . S
C1140 C1142 1.391 1_556 S
C1141 C1140 1.386 . S
C1141 C1145 1.393 . S
C1142 H1134 0.950 . S
C1142 C1140 1.391 1_554 S
C1142 C1143 1.400 1_554 S
C1143 C1142 1.400 1_556 S
C1143 C1144 1.398 . S
C1143 C1149 1.491 1_556 S
C1144 H1135 0.950 . S
C1144 C1143 1.398 . S
C1144 C1145 1.391 . S
C1145 H1133 0.950 . S
C1145 C1141 1.393 . S
C1145 C1144 1.391 . S
C1146 H1136 0.950 . S
C1146 C1147 1.386 . S
C1146 C1148 1.391 1_554 S
C1147 C1146 1.386 . S
C1147 C1151 1.393 . S
C1148 H1137 0.950 . S
C1148 C1146 1.391 1_556 S
C1148 C1149 1.400 1_556 S
C1149 C1143 1.491 1_554 S
C1149 C1148 1.400 1_554 S
C1149 C1150 1.398 . S
C1150 H1138 0.950 . S
C1150 C1149 1.398 . S
C1150 C1151 1.391 . S
C1151 H1139 0.950 . S
C1151 C1147 1.393 . S
C1151 C1150 1.391 . S
H1152 C1160 0.950 . S
H1153 C1165 0.950 . S
H1154 C1162 0.950 . S
H1155 C1164 0.950 . S
H1156 C1166 0.950 . S
H1157 C1168 0.950 . S
H1158 C1170 0.950 . S
H1159 C1171 0.950 . S
C1160 H1152 0.950 . S
C1160 C1161 1.386 . S
C1160 C1162 1.391 . S
C1161 C1160 1.386 . S
C1161 C1165 1.393 . S
C1162 H1154 0.950 . S
C1162 C1160 1.391 . S
C1162 C1163 1.400 . S
C1163 C1162 1.400 . S
C1163 C1164 1.398 . S
C1163 C1169 1.491 . S
C1164 H1155 0.950 . S
C1164 C1163 1.398 . S
C1164 C1165 1.391 . S
C1165 H1153 0.950 . S
C1165 C1161 1.393 . S
C1165 C1164 1.391 . S
C1166 H1156 0.950 . S
C1166 C1167 1.386 . S
C1166 C1168 1.391 . S
C1167 C1166 1.386 . S
C1167 C1171 1.393 . S
C1168 H1157 0.950 . S
C1168 C1166 1.391 . S
C1168 C1169 1.400 . S
C1169 C1163 1.491 . S
C1169 C1168 1.400 . S
C1169 C1170 1.398 . S
C1170 H1158 0.950 . S
C1170 C1169 1.398 . S
C1170 C1171 1.391 . S
C1171 H1159 0.950 . S
C1171 C1167 1.393 . S
C1171 C1170 1.391 . S
H1172 C1180 0.950 . S
H1173 C1185 0.950 . S
H1174 C1182 0.950 . S
H1175 C1184 0.950 . S
H1176 C1186 0.950 . S
H1177 C1188 0.950 . S
H1178 C1190 0.950 . S
H1179 C1191 0.950 . S
C1180 H1172 0.950 . S
C1180 C1181 1.386 . S
C1180 C1182 1.391 . S
C1181 C1180 1.386 . S
C1181 C1185 1.393 . S
C1182 H1174 0.950 . S
C1182 C1180 1.391 . S
C1182 C1183 1.400 . S
C1183 C1182 1.400 . S
C1183 C1184 1.398 . S
C1183 C1189 1.491 . S
C1184 H1175 0.950 . S
C1184 C1183 1.398 . S
C1184 C1185 1.391 . S
C1185 H1173 0.950 . S
C1185 C1181 1.393 . S
C1185 C1184 1.391 . S
C1186 H1176 0.950 . S
C1186 C1187 1.386 . S
C1186 C1188 1.391 . S
C1187 C1186 1.386 . S
C1187 C1191 1.393 . S
C1188 H1177 0.950 . S
C1188 C1186 1.391 . S
C1188 C1189 1.400 . S
C1189 C1183 1.491 . S
C1189 C1188 1.400 . S
C1189 C1190 1.398 . S
C1190 H1178 0.950 . S
C1190 C1189 1.398 . S
C1190 C1191 1.391 . S
C1191 H1179 0.950 . S
C1191 C1187 1.393 . S
C1191 C1190 1.391 . S
H1192 C1200 0.950 . S
H1193 C1205 0.950 . S
H1194 C1202 0.950 . S
H1195 C1204 0.950 . S
H1196 C1206 0.950 . S
H1197 C1208 0.950 . S
H1198 C1210 0.950 . S
H1199 C1211 0.950 . S
C1200 H1192 0.950 . S
C1200 C1201 1.386 . S
C1200 C1202 1.391 . S
C1201 C1200 1.386 . S
C1201 C1205 1.393 . S
C1202 H1194 0.950 . S
C1202 C1200 1.391 . S
C1202 C1203 1.400 . S
C1203 C1202 1.400 . S
C1203 C1204 1.398 . S
C1203 C1209 1.491 . S
C1204 H1195 0.950 . S
C1204 C1203 1.398 . S
C1204 C1205 1.391 . S
C1205 H1193 0.950 . S
C1205 C1201 1.393 . S
C1205 C1204 1.391 . S
C1206 H1196 0.950 . S
C1206 C1207 1.386 . S
C1206 C1208 1.391 . S
C1207 C1206 1.386 . S
C1207 C1211 1.393 . S
C1208 H1197 0.950 . S
C1208 C1206 1.391 . S
C1208 C1209 1.400 . S
C1209 C1203 1.491 . S
C1209 C1208 1.400 . S
C1209 C1210 1.398 . S
C1210 H1198 0.950 . S
C1210 C1209 1.398 . S
C1210 C1211 1.391 . S
C1211 H1199 0.950 . S
C1211 C1207 1.393 . S
C1211 C1210 1.391 . S
H1212 C1220 0.950 . S
H1213 C1225 0.950 . S
H1214 C1222 0.950 . S
H1215 C1224 0.950 . S
H1216 C1226 0.950 . S
H1217 C1228 0.950 . S
H1218 C1230 0.950 . S
H1219 C1231 0.950 . S
C1220 H1212 0.950 . S
C1220 C1221 1.386 . S
C1220 C1222 1.391 . S
C1221 C1220 1.386 . S
C1221 C1225 1.393 . S
C1222 H1214 0.950 . S
C1222 C1220 1.391 . S
C1222 C1223 1.400 . S
C1223 C1222 1.400 . S
C1223 C1224 1.398 . S
C1223 C1229 1.491 . S
C1224 H1215 0.950 . S
C1224 C1223 1.398 . S
C1224 C1225 1.391 . S
C1225 H1213 0.950 . S
C1225 C1221 1.393 . S
C1225 C1224 1.391 . S
C1226 H1216 0.950 . S
C1226 C1227 1.386 . S
C1226 C1228 1.391 . S
C1227 C1226 1.386 . S
C1227 C1231 1.393 . S
C1228 H1217 0.950 . S
C1228 C1226 1.391 . S
C1228 C1229 1.400 . S
C1229 C1223 1.491 . S
C1229 C1228 1.400 . S
C1229 C1230 1.398 . S
C1230 H1218 0.950 . S
C1230 C1229 1.398 . S
C1230 C1231 1.391 . S
C1231 H1219 0.950 . S
C1231 C1227 1.393 . S
C1231 C1230 1.391 . S
H1232 C1240 0.950 . S
H1233 C1245 0.950 . S
H1234 C1242 0.950 . S
H1235 C1244 0.950 . S
H1236 C1246 0.950 . S
H1237 C1248 0.950 . S
H1238 C1250 0.950 . S
H1239 C1251 0.950 . S
C1240 H1232 0.950 . S
C1240 C1241 1.386 . S
C1240 C1242 1.391 . S
C1241 C1240 1.386 . S
C1241 C1245 1.393 . S
C1242 H1234 0.950 . S
C1242 C1240 1.391 . S
C1242 C1243 1.400 . S
C1243 C1242 1.400 . S
C1243 C1244 1.398 . S
C1243 C1249 1.491 . S
C1244 H1235 0.950 . S
C1244 C1243 1.398 . S
C1244 C1245 1.391 . S
C1245 H1233 0.950 . S
C1245 C1241 1.393 . S
C1245 C1244 1.391 . S
C1246 H1236 0.950 . S
C1246 C1247 1.386 . S
C1246 C1248 1.391 . S
C1247 C1246 1.386 . S
C1247 C1251 1.393 . S
C1248 H1237 0.950 . S
C1248 C1246 1.391 . S
C1248 C1249 1.400 . S
C1249 C1243 1.491 . S
C1249 C1248 1.400 . S
C1249 C1250 1.398 . S
C1250 H1238 0.950 . S
C1250 C1249 1.398 . S
C1250 C1251 1.391 . S
C1251 H1239 0.950 . S
C1251 C1247 1.393 . S
C1251 C1250 1.391 . S
H1252 C1260 0.950 . S
H1253 C1265 0.950 . S
H1254 C1262 0.950 . S
H1255 C1264 0.950 . S
H1256 C1266 0.950 . S
H1257 C1268 0.950 . S
H1258 C1270 0.950 . S
H1259 C1271 0.950 . S
C1260 H1252 0.950 . S
C1260 C1261 1.386 . S
C1260 C1262 1.391 . S
C1261 C1260 1.386 . S
C1261 C1265 1.393 . S
C1262 H1254 0.950 . S
C1262 C1260 1.391 . S
C1262 C1263 1.400 . S
C1263 C1262 1.400 . S
C1263 C1264 1.398 . S
C1263 C1269 1.491 . S
C1264 H1255 0.950 . S
C1264 C1263 1.398 . S
C1264 C1265 1.391 . S
C1265 H1253 0.950 . S
C1265 C1261 1.393 . S
C1265 C1264 1.391 . S
C1266 H1256 0.950 . S
C1266 C1267 1.386 . S
C1266 C1268 1.391 . S
C1267 C1266 1.386 . S
C1267 C1271 1.393 . S
C1268 H1257 0.950 . S
C1268 C1266 1.391 . S
C1268 C1269 1.400 . S
C1269 C1263 1.491 . S
C1269 C1268 1.400 . S
C1269 C1270 1.398 . S
C1270 H1258 0.950 . S
C1270 C1269 1.398 . S
C1270 C1271 1.391 . S
C1271 H1259 0.950 . S
C1271 C1267 1.393 . S
C1271 C1270 1.391 . S
H1272 C1280 0.950 . S
H1273 C1285 0.950 . S
H1274 C1282 0.950 . S
H1275 C1284 0.950 . S
H1276 C1286 0.950 . S
H1277 C1288 0.950 . S
H1278 C1290 0.950 . S
H1279 C1291 0.950 . S
C1280 H1272 0.950 . S
C1280 C1281 1.386 . S
C1280 C1282 1.391 . S
C1281 C1280 1.386 . S
C1281 C1285 1.393 . S
C1282 H1274 0.950 . S
C1282 C1280 1.391 . S
C1282 C1283 1.400 . S
C1283 C1282 1.400 . S
C1283 C1284 1.398 . S
C1283 C1289 1.491 . S
C1284 H1275 0.950 . S
C1284 C1283 1.398 . S
C1284 C1285 1.391 . S
C1285 H1273 0.950 . S
C1285 C1281 1.393 . S
C1285 C1284 1.391 . S
C1286 H1276 0.950 . S
C1286 C1287 1.386 . S
C1286 C1288 1.391 . S
C1287 C1286 1.386 . S
C1287 C1291 1.393 . S
C1288 H1277 0.950 . S
C1288 C1286 1.391 . S
C1288 C1289 1.400 . S
C1289 C1283 1.491 . S
C1289 C1288 1.400 . S
C1289 C1290 1.398 . S
C1290 H1278 0.950 . S
C1290 C1289 1.398 . S
C1290 C1291 1.391 . S
C1291 H1279 0.950 . S
C1291 C1287 1.393 . S
C1291 C1290 1.391 . S
H1292 C1300 0.950 . S
H1293 C1305 0.950 . S
H1294 C1302 0.950 . S
H1295 C1304 0.950 . S
H1296 C1306 0.950 . S
H1297 C1308 0.950 . S
H1298 C1310 0.950 . S
H1299 C1311 0.950 . S
C1300 H1292 0.950 . S
C1300 C1301 1.386 . S
C1300 C1302 1.391 . S
C1301 C1300 1.386 . S
C1301 C1305 1.393 . S
C1302 H1294 0.950 . S
C1302 C1300 1.391 . S
C1302 C1303 1.400 . S
C1303 C1302 1.400 . S
C1303 C1304 1.398 . S
C1303 C1309 1.491 . S
C1304 H1295 0.950 . S
C1304 C1303 1.398 . S
C1304 C1305 1.391 . S
C1305 H1293 0.950 . S
C1305 C1301 1.393 . S
C1305 C1304 1.391 . S
C1306 H1296 0.950 . S
C1306 C1307 1.386 . S
C1306 C1308 1.391 . S
C1307 C1306 1.386 . S
C1307 C1311 1.393 . S
C1308 H1297 0.950 . S
C1308 C1306 1.391 . S
C1308 C1309 1.400 . S
C1309 C1303 1.491 . S
C1309 C1308 1.400 . S
C1309 C1310 1.398 . S
C1310 H1298 0.950 . S
C1310 C1309 1.398 . S
C1310 C1311 1.391 . S
C1311 H1299 0.950 . S
C1311 C1307 1.393 . S
C1311 C1310 1.391 . S
H1312 C1320 0.950 . S
H1313 C1325 0.950 . S
H1314 C1322 0.950 . S
H1315 C1324 0.950 . S
H1316 C1326 0.950 . S
H1317 C1328 0.950 . S
H1318 C1330 0.950 . S
H1319 C1331 0.950 . S
C1320 H1312 0.950 . S
C1320 C1321 1.386 . S
C1320 C1322 1.391 . S
C1321 C1320 1.386 . S
C1321 C1325 1.393 . S
C1322 H1314 0.950 . S
C1322 C1320 1.391 . S
C1322 C1323 1.400 . S
C1323 C1322 1.400 . S
C1323 C1324 1.398 . S
C1323 C1329 1.491 . S
C1324 H1315 0.950 . S
C1324 C1323 1.398 . S
C1324 C1325 1.391 . S
C1325 H1313 0.950 . S
C1325 C1321 1.393 . S
C1325 C1324 1.391 . S
C1326 H1316 0.950 . S
C1326 C1327 1.386 . S
C1326 C1328 1.391 . S
C1327 C1326 1.386 . S
C1327 C1331 1.393 . S
C1328 H1317 0.950 . S
C1328 C1326 1.391 . S
C1328 C1329 1.400 . S
C1329 C1323 1.491 . S
C1329 C1328 1.400 . S
C1329 C1330 1.398 . S
C1330 H1318 0.950 . S
C1330 C1329 1.398 . S
C1330 C1331 1.391 . S
C1331 H1319 0.950 . S
C1331 C1327 1.393 . S
C1331 C1330 1.391 . S
H1332 C1340 0.950 . S
H1333 C1345 0.950 . S
H1334 C1342 0.950 . S
H1335 C1344 0.950 . S
H1336 C1346 0.950 . S
H1337 C1348 0.950 . S
H1338 C1350 0.950 . S
H1339 C1351 0.950 . S
C1340 H1332 0.950 . S
C1340 C1341 1.386 . S
C1340 C1342 1.391 . S
C1341 C1340 1.386 . S
C1341 C1345 1.393 . S
C1342 H1334 0.950 . S
C1342 C1340 1.391 . S
C1342 C1343 1.400 . S
C1343 C1342 1.400 . S
C1343 C1344 1.398 . S
C1343 C1349 1.491 . S
C1344 H1335 0.950 . S
C1344 C1343 1.398 . S
C1344 C1345 1.391 . S
C1345 H1333 0.950 . S
C1345 C1341 1.393 . S
C1345 C1344 1.391 . S
C1346 H1336 0.950 . S
C1346 C1347 1.386 . S
C1346 C1348 1.391 . S
C1347 C1346 1.386 . S
C1347 C1351 1.393 . S
C1348 H1337 0.950 . S
C1348 C1346 1.391 . S
C1348 C1349 1.400 . S
C1349 C1343 1.491 . S
C1349 C1348 1.400 . S
C1349 C1350 1.398 . S
C1350 H1338 0.950 . S
C1350 C1349 1.398 . S
C1350 C1351 1.391 . S
C1351 H1339 0.950 . S
C1351 C1347 1.393 . S
C1351 C1350 1.391 . S
H1352 C1360 0.950 . S
H1353 C1365 0.950 . S
H1354 C1362 0.950 . S
H1355 C1364 0.950 . S
H1356 C1366 0.950 . S
H1357 C1368 0.950 . S
H1358 C1370 0.950 . S
H1359 C1371 0.950 . S
C1360 H1352 0.950 . S
C1360 C1361 1.386 . S
C1360 C1362 1.391 . S
C1361 C1360 1.386 . S
C1361 C1365 1.393 . S
C1362 H1354 0.950 . S
C1362 C1360 1.391 . S
C1362 C1363 1.400 . S
C1363 C1362 1.400 . S
C1363 C1364 1.398 . S
C1363 C1369 1.491 . S
C1364 H1355 0.950 . S
C1364 C1363 1.398 . S
C1364 C1365 1.391 . S
C1365 H1353 0.950 . S
C1365 C1361 1.393 . S
C1365 C1364 1.391 . S
C1366 H1356 0.950 . S
C1366 C1367 1.386 . S
C1366 C1368 1.391 . S
C1367 C1366 1.386 . S
C1367 C1371 1.393 . S
C1368 H1357 0.950 . S
C1368 C1366 1.391 . S
C1368 C1369 1.400 . S
C1369 C1363 1.491 . S
C1369 C1368 1.400 . S
C1369 C1370 1.398 . S
C1370 H1358 0.950 . S
C1370 C1369 1.398 . S
C1370 C1371 1.391 . S
C1371 H1359 0.950 . S
C1371 C1367 1.393 . S
C1371 C1370 1.391 . S
H1372 C1380 0.950 . S
H1373 C1385 0.950 . S
H1374 C1382 0.950 . S
H1375 C1384 0.950 . S
H1376 C1386 0.950 . S
H1377 C1388 0.950 . S
H1378 C1390 0.950 . S
H1379 C1391 0.950 . S
C1380 H1372 0.950 . S
C1380 C1381 1.386 . S
C1380 C1382 1.391 . S
C1381 C1380 1.386 . S
C1381 C1385 1.393 . S
C1382 H1374 0.950 . S
C1382 C1380 1.391 . S
C1382 C1383 1.400 . S
C1383 C1382 1.400 . S
C1383 C1384 1.398 . S
C1383 C1389 1.491 . S
C1384 H1375 0.950 . S
C1384 C1383 1.398 . S
C1384 C1385 1.391 . S
C1385 H1373 0.950 . S
C1385 C1381 1.393 . S
C1385 C1384 1.391 . S
C1386 H1376 0.950 . S
C1386 C1387 1.386 . S
C1386 C1388 1.391 . S
C1387 C1386 1.386 . S
C1387 C1391 1.393 . S
C1388 H1377 0.950 . S
C1388 C1386 1.391 . S
C1388 C1389 1.400 . S
C1389 C1383 1.491 . S
C1389 C1388 1.400 . S
C1389 C1390 1.398 . S
C1390 H1378 0.950 . S
C1390 C1389 1.398 . S
C1390 C1391 1.391 . S
C1391 H1379 0.950 . S
C1391 C1387 1.393 . S
C1391 C1390 1.391 . S
H1392 C1400 0.950 . S
H1393 C1405 0.950 . S
H1394 C1402 0.950 . S
H1395 C1404 0.950 1_556 S
H1396 C1406 0.950 . S
H1397 C1408 0.950 . S
H1398 C1410 0.950 . S
H1399 C1411 0.950 . S
C1400 H1392 0.950 . S
C1400 C1401 1.386 . S
C1400 C1402 1.391 . S
C1401 C1400 1.386 . S
C1401 C1405 1.393 . S
C1402 H1394 0.950 . S
C1402 C1400 1.391 . S
C1402 C1403 1.400 1_554 S
C1403 C1402 1.400 1_556 S
C1403 C1404 1.398 1_556 S
C1403 C1409 1.491 . S
C1404 H1395 0.950 1_554 S
C1404 C1403 1.398 1_554 S
C1404 C1405 1.391 . S
C1405 H1393 0.950 . S
C1405 C1401 1.393 . S
C1405 C1404 1.391 . S
C1406 H1396 0.950 . S
C1406 C1407 1.386 . S
C1406 C1408 1.391 . S
C1407 C1406 1.386 . S
C1407 C1411 1.393 . S
C1408 H1397 0.950 . S
C1408 C1406 1.391 . S
C1408 C1409 1.400 . S
C1409 C1403 1.491 . S
C1409 C1408 1.400 . S
C1409 C1410 1.398 . S
C1410 H1398 0.950 . S
C1410 C1409 1.398 . S
C1410 C1411 1.391 . S
C1411 H1399 0.950 . S
C1411 C1407 1.393 . S
C1411 C1410 1.391 . S
H1412 C1420 0.950 . S
H1413 C1425 0.950 . S
H1414 C1422 0.950 1_556 S
H1415 C1424 0.950 1_556 S
H1416 C1426 0.950 . S
H1417 C1428 0.950 . S
H1418 C1430 0.950 . S
H1419 C1431 0.950 . S
C1420 H1412 0.950 . S
C1420 C1421 1.386 . S
C1420 C1422 1.391 . S
C1421 C1420 1.386 . S
C1421 C1425 1.393 . S
C1422 H1414 0.950 1_554 S
C1422 C1420 1.391 . S
C1422 C1423 1.400 1_554 S
C1423 C1422 1.400 1_556 S
C1423 C1424 1.398 1_556 S
C1423 C1429 1.491 . S
C1424 H1415 0.950 1_554 S
C1424 C1423 1.398 1_554 S
C1424 C1425 1.391 . S
C1425 H1413 0.950 . S
C1425 C1421 1.393 . S
C1425 C1424 1.391 . S
C1426 H1416 0.950 . S
C1426 C1427 1.386 . S
C1426 C1428 1.391 . S
C1427 C1426 1.386 . S
C1427 C1431 1.393 . S
C1428 H1417 0.950 . S
C1428 C1426 1.391 . S
C1428 C1429 1.400 . S
C1429 C1423 1.491 . S
C1429 C1428 1.400 . S
C1429 C1430 1.398 . S
C1430 H1418 0.950 . S
C1430 C1429 1.398 . S
C1430 C1431 1.391 . S
C1431 H1419 0.950 . S
C1431 C1427 1.393 . S
C1431 C1430 1.391 . S
H1432 C1440 0.950 . S
H1433 C1445 0.950 . S
H1434 C1442 0.950 . S
H1435 C1444 0.950 . S
H1436 C1446 0.950 . S
H1437 C1448 0.950 1_556 S
H1438 C1450 0.950 1_556 S
H1439 C1451 0.950 . S
C1440 H1432 0.950 . S
C1440 C1441 1.386 . S
C1440 C1442 1.391 . S
C1441 C1440 1.386 . S
C1441 C1445 1.393 . S
C1442 H1434 0.950 . S
C1442 C1440 1.391 . S
C1442 C1443 1.400 . S
C1443 C1442 1.400 . S
C1443 C1444 1.398 . S
C1443 C1449 1.491 . S
C1444 H1435 0.950 . S
C1444 C1443 1.398 . S
C1444 C1445 1.391 . S
C1445 H1433 0.950 . S
C1445 C1441 1.393 . S
C1445 C1444 1.391 . S
C1446 H1436 0.950 . S
C1446 C1447 1.386 . S
C1446 C1448 1.391 . S
C1447 C1446 1.386 . S
C1447 C1451 1.393 . S
C1448 H1437 0.950 1_554 S
C1448 C1446 1.391 . S
C1448 C1449 1.400 1_554 S
C1449 C1443 1.491 . S
C1449 C1448 1.400 1_556 S
C1449 C1450 1.398 1_556 S
C1450 H1438 0.950 1_554 S
C1450 C1449 1.398 1_554 S
C1450 C1451 1.391 . S
C1451 H1439 0.950 . S
C1451 C1447 1.393 . S
C1451 C1450 1.391 . S
H1452 C1460 0.950 . S
H1453 C1465 0.950 . S
H1454 C1462 0.950 . S
H1455 C1464 0.950 . S
H1456 C1466 0.950 . S
H1457 C1468 0.950 . S
H1458 C1470 0.950 . S
H1459 C1471 0.950 . S
C1460 H1452 0.950 . S
C1460 C1461 1.386 . S
C1460 C1462 1.391 . S
C1461 C1460 1.386 . S
C1461 C1465 1.393 . S
C1462 H1454 0.950 . S
C1462 C1460 1.391 . S
C1462 C1463 1.400 . S
C1463 C1462 1.400 . S
C1463 C1464 1.398 . S
C1463 C1469 1.491 . S
C1464 H1455 0.950 . S
C1464 C1463 1.398 . S
C1464 C1465 1.391 . S
C1465 H1453 0.950 . S
C1465 C1461 1.393 . S
C1465 C1464 1.391 . S
C1466 H1456 0.950 . S
C1466 C1467 1.386 . S
C1466 C1468 1.391 . S
C1467 C1466 1.386 . S
C1467 C1471 1.393 . S
C1468 H1457 0.950 . S
C1468 C1466 1.391 . S
C1468 C1469 1.400 . S
C1469 C1463 1.491 . S
C1469 C1468 1.400 . S
C1469 C1470 1.398 . S
C1470 H1458 0.950 . S
C1470 C1469 1.398 . S
C1470 C1471 1.391 . S
C1471 H1459 0.950 . S
C1471 C1467 1.393 . S
C1471 C1470 1.391 . S
H1472 C1480 0.950 . S
H1473 C1485 0.950 . S
H1474 C1482 0.950 . S
H1475 C1484 0.950 . S
H1476 C1486 0.950 . S
H1477 C1488 0.950 . S
H1478 C1490 0.950 . S
H1479 C1491 0.950 . S
C1480 H1472 0.950 . S
C1480 C1481 1.386 . S
C1480 C1482 1.391 . S
C1481 C1480 1.386 . S
C1481 C1485 1.393 . S
C1482 H1474 0.950 . S
C1482 C1480 1.391 . S
C1482 C1483 1.400 . S
C1483 C1482 1.400 . S
C1483 C1484 1.398 . S
C1483 C1489 1.491 . S
C1484 H1475 0.950 . S
C1484 C1483 1.398 . S
C1484 C1485 1.391 . S
C1485 H1473 0.950 . S
C1485 C1481 1.393 . S
C1485 C1484 1.391 . S
C1486 H1476 0.950 . S
C1486 C1487 1.386 . S
C1486 C1488 1.391 . S
C1487 C1486 1.386 . S
C1487 C1491 1.393 . S
C1488 H1477 0.950 . S
C1488 C1486 1.391 . S
C1488 C1489 1.400 . S
C1489 C1483 1.491 . S
C1489 C1488 1.400 . S
C1489 C1490 1.398 . S
C1490 H1478 0.950 . S
C1490 C1489 1.398 . S
C1490 C1491 1.391 . S
C1491 H1479 0.950 . S
C1491 C1487 1.393 . S
C1491 C1490 1.391 . S
H1492 C1500 0.950 . S
H1493 C1505 0.950 . S
H1494 C1502 0.950 . S
H1495 C1504 0.950 . S
H1496 C1506 0.950 . S
H1497 C1508 0.950 . S
H1498 C1510 0.950 . S
H1499 C1511 0.950 . S
C1500 H1492 0.950 . S
C1500 C1501 1.386 . S
C1500 C1502 1.391 . S
C1501 C1500 1.386 . S
C1501 C1505 1.393 . S
C1502 H1494 0.950 . S
C1502 C1500 1.391 . S
C1502 C1503 1.400 . S
C1503 C1502 1.400 . S
C1503 C1504 1.398 . S
C1503 C1509 1.491 . S
C1504 H1495 0.950 . S
C1504 C1503 1.398 . S
C1504 C1505 1.391 . S
C1505 H1493 0.950 . S
C1505 C1501 1.393 . S
C1505 C1504 1.391 . S
C1506 H1496 0.950 . S
C1506 C1507 1.386 . S
C1506 C1508 1.391 . S
C1507 C1506 1.386 . S
C1507 C1511 1.393 . S
C1508 H1497 0.950 . S
C1508 C1506 1.391 . S
C1508 C1509 1.400 . S
C1509 C1503 1.491 . S
C1509 C1508 1.400 . S
C1509 C1510 1.398 . S
C1510 H1498 0.950 . S
C1510 C1509 1.398 . S
C1510 C1511 1.391 . S
C1511 H1499 0.950 . S
C1511 C1507 1.393 . S
C1511 C1510 1.391 . S
H1512 C1520 0.950 . S
H1513 C1525 0.950 . S
H1514 C1522 0.950 . S
H1515 C1524 0.950 . S
H1516 C1526 0.950 . S
H1517 C1528 0.950 . S
H1518 C1530 0.950 . S
H1519 C1531 0.950 . S
C1520 H1512 0.950 . S
C1520 C1521 1.386 . S
C1520 C1522 1.391 . S
C1521 C1520 1.386 . S
C1521 C1525 1.393 . S
C1522 H1514 0.950 . S
C1522 C1520 1.391 . S
C1522 C1523 1.400 . S
C1523 C1522 1.400 . S
C1523 C1524 1.398 . S
C1523 C1529 1.491 . S
C1524 H1515 0.950 . S
C1524 C1523 1.398 . S
C1524 C1525 1.391 . S
C1525 H1513 0.950 . S
C1525 C1521 1.393 . S
C1525 C1524 1.391 . S
C1526 H1516 0.950 . S
C1526 C1527 1.386 . S
C1526 C1528 1.391 . S
C1527 C1526 1.386 . S
C1527 C1531 1.393 . S
C1528 H1517 0.950 . S
C1528 C1526 1.391 . S
C1528 C1529 1.400 . S
C1529 C1523 1.491 . S
C1529 C1528 1.400 . S
C1529 C1530 1.398 . S
C1530 H1518 0.950 . S
C1530 C1529 1.398 . S
C1530 C1531 1.391 . S
C1531 H1519 0.950 . S
C1531 C1527 1.393 . S
C1531 C1530 1.391 . S
H1532 C1540 0.950 . S
H1533 C1545 0.950 . S
H1534 C1542 0.950 . S
H1535 C1544 0.950 . S
H1536 C1546 0.950 . S
H1537 C1548 0.950 . S
H1538 C1550 0.950 . S
H1539 C1551 0.950 . S
C1540 H1532 0.950 . S
C1540 C1541 1.386 . S
C1540 C1542 1.391 . S
C1541 C1540 1.386 . S
C1541 C1545 1.393 . S
C1542 H1534 0.950 . S
C1542 C1540 1.391 . S
C1542 C1543 1.400 . S
C1543 C1542 1.400 . S
C1543 C1544 1.398 . S
C1543 C1549 1.491 . S
C1544 H1535 0.950 . S
C1544 C1543 1.398 . S
C1544 C1545 1.391 . S
C1545 H1533 0.950 . S
C1545 C1541 1.393 . S
C1545 C1544 1.391 . S
C1546 H1536 0.950 . S
C1546 C1547 1.386 . S
C1546 C1548 1.391 . S
C1547 C1546 1.386 . S
C1547 C1551 1.393 . S
C1548 H1537 0.950 . S
C1548 C1546 1.391 . S
C1548 C1549 1.400 . S
C1549 C1543 1.491 . S
C1549 C1548 1.400 . S
C1549 C1550 1.398 . S
C1550 H1538 0.950 . S
C1550 C1549 1.398 . S
C1550 C1551 1.391 . S
C1551 H1539 0.950 . S
C1551 C1547 1.393 . S
C1551 C1550 1.391 . S
H1552 C1560 0.950 . S
H1553 C1565 0.950 . S
H1554 C1562 0.950 . S
H1555 C1564 0.950 . S
H1556 C1566 0.950 . S
H1557 C1568 0.950 . S
H1558 C1570 0.950 . S
H1559 C1571 0.950 . S
C1560 H1552 0.950 . S
C1560 C1561 1.386 . S
C1560 C1562 1.391 . S
C1561 C1560 1.386 . S
C1561 C1565 1.393 . S
C1562 H1554 0.950 . S
C1562 C1560 1.391 . S
C1562 C1563 1.400 . S
C1563 C1562 1.400 . S
C1563 C1564 1.398 . S
C1563 C1569 1.491 . S
C1564 H1555 0.950 . S
C1564 C1563 1.398 . S
C1564 C1565 1.391 . S
C1565 H1553 0.950 . S
C1565 C1561 1.393 . S
C1565 C1564 1.391 . S
C1566 H1556 0.950 . S
C1566 C1567 1.386 . S
C1566 C1568 1.391 . S
C1567 C1566 1.386 . S
C1567 C1571 1.393 . S
C1568 H1557 0.950 . S
C1568 C1566 1.391 . S
C1568 C1569 1.400 . S
C1569 C1563 1.491 . S
C1569 C1568 1.400 . S
C1569 C1570 1.398 . S
C1570 H1558 0.950 . S
C1570 C1569 1.398 . S
C1570 C1571 1.391 . S
C1571 H1559 0.950 . S
C1571 C1567 1.393 . S
C1571 C1570 1.391 . S
H1572 C1580 0.950 . S
H1573 C1585 0.950 . S
H1574 C1582 0.950 1_556 S
H1575 C1584 0.950 1_556 S
H1576 C1586 0.950 . S
H1577 C1588 0.950 . S
H1578 C1590 0.950 . S
H1579 C1591 0.950 . S
C1580 H1572 0.950 . S
C1580 C1581 1.386 . S
C1580 C1582 1.391 . S
C1581 C1580 1.386 . S
C1581 C1585 1.393 . S
C1582 H1574 0.950 1_554 S
C1582 C1580 1.391 . S
C1582 C1583 1.400 1_554 S
C1583 C1582 1.400 1_556 S
C1583 C1584 1.398 1_556 S
C1583 C1589 1.491 . S
C1584 H1575 0.950 1_554 S
C1584 C1583 1.398 1_554 S
C1584 C1585 1.391 . S
C1585 H1573 0.950 . S
C1585 C1581 1.393 . S
C1585 C1584 1.391 . S
C1586 H1576 0.950 . S
C1586 C1587 1.386 . S
C1586 C1588 1.391 . S
C1587 C1586 1.386 . S
C1587 C1591 1.393 . S
C1588 H1577 0.950 . S
C1588 C1586 1.391 . S
C1588 C1589 1.400 . S
C1589 C1583 1.491 . S
C1589 C1588 1.400 . S
C1589 C1590 1.398 . S
C1590 H1578 0.950 . S
C1590 C1589 1.398 . S
C1590 C1591 1.391 . S
C1591 H1579 0.950 . S
C1591 C1587 1.393 . S
C1591 C1590 1.391 . S
H1592 C1600 0.950 . S
H1593 C1605 0.950 . S
H1594 C1602 0.950 1_556 S
H1595 C1604 0.950 1_556 S
H1596 C1606 0.950 . S
H1597 C1608 0.950 . S
H1598 C1610 0.950 . S
H1599 C1611 0.950 . S
C1600 H1592 0.950 . S
C1600 C1601 1.386 . S
C1600 C1602 1.391 . S
C1601 C1600 1.386 . S
C1601 C1605 1.393 . S
C1602 H1594 0.950 1_554 S
C1602 C1600 1.391 . S
C1602 C1603 1.400 1_554 S
C1603 C1602 1.400 1_556 S
C1603 C1604 1.398 1_556 S
C1603 C1609 1.491 . S
C1604 H1595 0.950 1_554 S
C1604 C1603 1.398 1_554 S
C1604 C1605 1.391 . S
C1605 H1593 0.950 . S
C1605 C1601 1.393 . S
C1605 C1604 1.391 . S
C1606 H1596 0.950 . S
C1606 C1607 1.386 . S
C1606 C1608 1.391 . S
C1607 C1606 1.386 . S
C1607 C1611 1.393 . S
C1608 H1597 0.950 . S
C1608 C1606 1.391 . S
C1608 C1609 1.400 . S
C1609 C1603 1.491 . S
C1609 C1608 1.400 . S
C1609 C1610 1.398 . S
C1610 H1598 0.950 . S
C1610 C1609 1.398 . S
C1610 C1611 1.391 . S
C1611 H1599 0.950 . S
C1611 C1607 1.393 . S
C1611 C1610 1.391 . S
H1612 C1620 0.950 . S
H1613 C1625 0.950 . S
H1614 C1622 0.950 . S
H1615 C1624 0.950 . S
H1616 C1626 0.950 . S
H1617 C1628 0.950 1_556 S
H1618 C1630 0.950 . S
H1619 C1631 0.950 . S
C1620 H1612 0.950 . S
C1620 C1621 1.386 . S
C1620 C1622 1.391 . S
C1621 C1620 1.386 . S
C1621 C1625 1.393 . S
C1622 H1614 0.950 . S
C1622 C1620 1.391 . S
C1622 C1623 1.400 . S
C1623 C1622 1.400 . S
C1623 C1624 1.398 . S
C1623 C1629 1.491 . S
C1624 H1615 0.950 . S
C1624 C1623 1.398 . S
C1624 C1625 1.391 . S
C1625 H1613 0.950 . S
C1625 C1621 1.393 . S
C1625 C1624 1.391 . S
C1626 H1616 0.950 . S
C1626 C1627 1.386 . S
C1626 C1628 1.391 . S
C1627 C1626 1.386 . S
C1627 C1631 1.393 . S
C1628 H1617 0.950 1_554 S
C1628 C1626 1.391 . S
C1628 C1629 1.400 1_554 S
C1629 C1623 1.491 . S
C1629 C1628 1.400 1_556 S
C1629 C1630 1.398 1_556 S
C1630 H1618 0.950 . S
C1630 C1629 1.398 1_554 S
C1630 C1631 1.391 . S
C1631 H1619 0.950 . S
C1631 C1627 1.393 . S
C1631 C1630 1.391 . S
H1632 C1640 0.950 . S
H1633 C1645 0.950 . S
H1634 C1642 0.950 . S
H1635 C1644 0.950 . S
H1636 C1646 0.950 . S
H1637 C1648 0.950 . S
H1638 C1650 0.950 . S
H1639 C1651 0.950 . S
C1640 H1632 0.950 . S
C1640 C1641 1.386 . S
C1640 C1642 1.391 . S
C1641 C1640 1.386 . S
C1641 C1645 1.393 . S
C1642 H1634 0.950 . S
C1642 C1640 1.391 . S
C1642 C1643 1.400 . S
C1643 C1642 1.400 . S
C1643 C1644 1.398 . S
C1643 C1649 1.491 . S
C1644 H1635 0.950 . S
C1644 C1643 1.398 . S
C1644 C1645 1.391 . S
C1645 H1633 0.950 . S
C1645 C1641 1.393 . S
C1645 C1644 1.391 . S
C1646 H1636 0.950 . S
C1646 C1647 1.386 . S
C1646 C1648 1.391 . S
C1647 C1646 1.386 . S
C1647 C1651 1.393 . S
C1648 H1637 0.950 . S
C1648 C1646 1.391 . S
C1648 C1649 1.400 . S
C1649 C1643 1.491 . S
C1649 C1648 1.400 . S
C1649 C1650 1.398 . S
C1650 H1638 0.950 . S
C1650 C1649 1.398 . S
C1650 C1651 1.391 . S
C1651 H1639 0.950 . S
C1651 C1647 1.393 . S
C1651 C1650 1.391 . S
H1652 C1660 0.950 . S
H1653 C1665 0.950 . S
H1654 C1662 0.950 . S
H1655 C1664 0.950 . S
H1656 C1666 0.950 . S
H1657 C1668 0.950 . S
H1658 C1670 0.950 . S
H1659 C1671 0.950 . S
C1660 H1652 0.950 . S
C1660 C1661 1.386 . S
C1660 C1662 1.391 . S
C1661 C1660 1.386 . S
C1661 C1665 1.393 . S
C1662 H1654 0.950 . S
C1662 C1660 1.391 . S
C1662 C1663 1.400 . S
C1663 C1662 1.400 . S
C1663 C1664 1.398 . S
C1663 C1669 1.491 . S
C1664 H1655 0.950 . S
C1664 C1663 1.398 . S
C1664 C1665 1.391 . S
C1665 H1653 0.950 . S
C1665 C1661 1.393 . S
C1665 C1664 1.391 . S
C1666 H1656 0.950 . S
C1666 C1667 1.386 . S
C1666 C1668 1.391 . S
C1667 C1666 1.386 . S
C1667 C1671 1.393 . S
C1668 H1657 0.950 . S
C1668 C1666 1.391 . S
C1668 C1669 1.400 . S
C1669 C1663 1.491 . S
C1669 C1668 1.400 . S
C1669 C1670 1.398 . S
C1670 H1658 0.950 . S
C1670 C1669 1.398 . S
C1670 C1671 1.391 . S
C1671 H1659 0.950 . S
C1671 C1667 1.393 . S
C1671 C1670 1.391 . S
H1672 C1680 0.950 . S
H1673 C1685 0.950 . S
H1674 C1682 0.950 . S
H1675 C1684 0.950 . S
H1676 C1686 0.950 . S
H1677 C1688 0.950 . S
H1678 C1690 0.950 . S
H1679 C1691 0.950 . S
C1680 H1672 0.950 . S
C1680 C1681 1.386 . S
C1680 C1682 1.391 . S
C1681 C1680 1.386 . S
C1681 C1685 1.393 . S
C1682 H1674 0.950 . S
C1682 C1680 1.391 . S
C1682 C1683 1.400 . S
C1683 C1682 1.400 . S
C1683 C1684 1.398 . S
C1683 C1689 1.491 . S
C1684 H1675 0.950 . S
C1684 C1683 1.398 . S
C1684 C1685 1.391 . S
C1685 H1673 0.950 . S
C1685 C1681 1.393 . S
C1685 C1684 1.391 . S
C1686 H1676 0.950 . S
C1686 C1687 1.386 . S
C1686 C1688 1.391 . S
C1687 C1686 1.386 . S
C1687 C1691 1.393 . S
C1688 H1677 0.950 . S
C1688 C1686 1.391 . S
C1688 C1689 1.400 . S
C1689 C1683 1.491 . S
C1689 C1688 1.400 . S
C1689 C1690 1.398 . S
C1690 H1678 0.950 . S
C1690 C1689 1.398 . S
C1690 C1691 1.391 . S
C1691 H1679 0.950 . S
C1691 C1687 1.393 . S
C1691 C1690 1.391 . S
H1692 C1700 0.950 . S
H1693 C1705 0.950 . S
H1694 C1702 0.950 1_554 S
H1695 C1704 0.950 1_554 S
H1696 C1706 0.950 . S
H1697 C1708 0.950 . S
H1698 C1710 0.950 . S
H1699 C1711 0.950 . S
C1700 H1692 0.950 . S
C1700 C1701 1.386 . S
C1700 C1702 1.391 . S
C1701 C1700 1.386 . S
C1701 C1705 1.393 . S
C1702 H1694 0.950 1_556 S
C1702 C1700 1.391 . S
C1702 C1703 1.400 1_556 S
C1703 C1702 1.400 1_554 S
C1703 C1704 1.398 1_554 S
C1703 C1709 1.491 . S
C1704 H1695 0.950 1_556 S
C1704 C1703 1.398 1_556 S
C1704 C1705 1.391 . S
C1705 H1693 0.950 . S
C1705 C1701 1.393 . S
C1705 C1704 1.391 . S
C1706 H1696 0.950 . S
C1706 C1707 1.386 . S
C1706 C1708 1.391 . S
C1707 C1706 1.386 . S
C1707 C1711 1.393 . S
C1708 H1697 0.950 . S
C1708 C1706 1.391 . S
C1708 C1709 1.400 . S
C1709 C1703 1.491 . S
C1709 C1708 1.400 . S
C1709 C1710 1.398 . S
C1710 H1698 0.950 . S
C1710 C1709 1.398 . S
C1710 C1711 1.391 . S
C1711 H1699 0.950 . S
C1711 C1707 1.393 . S
C1711 C1710 1.391 . S
H1712 C1720 0.950 . S
H1713 C1725 0.950 . S
H1714 C1722 0.950 . S
H1715 C1724 0.950 . S
H1716 C1726 0.950 . S
H1717 C1728 0.950 1_554 S
H1718 C1730 0.950 1_554 S
H1719 C1731 0.950 . S
C1720 H1712 0.950 . S
C1720 C1721 1.386 . S
C1720 C1722 1.391 . S
C1721 C1720 1.386 . S
C1721 C1725 1.393 . S
C1722 H1714 0.950 . S
C1722 C1720 1.391 . S
C1722 C1723 1.400 . S
C1723 C1722 1.400 . S
C1723 C1724 1.398 . S
C1723 C1729 1.491 . S
C1724 H1715 0.950 . S
C1724 C1723 1.398 . S
C1724 C1725 1.391 . S
C1725 H1713 0.950 . S
C1725 C1721 1.393 . S
C1725 C1724 1.391 . S
C1726 H1716 0.950 . S
C1726 C1727 1.386 . S
C1726 C1728 1.391 . S
C1727 C1726 1.386 . S
C1727 C1731 1.393 . S
C1728 H1717 0.950 1_556 S
C1728 C1726 1.391 . S
C1728 C1729 1.400 1_556 S
C1729 C1723 1.491 . S
C1729 C1728 1.400 1_554 S
C1729 C1730 1.398 1_554 S
C1730 H1718 0.950 1_556 S
C1730 C1729 1.398 1_556 S
C1730 C1731 1.391 . S
C1731 H1719 0.950 . S
C1731 C1727 1.393 . S
C1731 C1730 1.391 . S
H1732 C1740 0.950 . S
H1733 C1745 0.950 . S
H1734 C1742 0.950 . S
H1735 C1744 0.950 . S
H1736 C1746 0.950 . S
H1737 C1748 0.950 1_554 S
H1738 C1750 0.950 . S
H1739 C1751 0.950 . S
C1740 H1732 0.950 . S
C1740 C1741 1.386 . S
C1740 C1742 1.391 . S
C1741 C1740 1.386 . S
C1741 C1745 1.393 . S
C1742 H1734 0.950 . S
C1742 C1740 1.391 . S
C1742 C1743 1.400 . S
C1743 C1742 1.400 . S
C1743 C1744 1.398 . S
C1743 C1749 1.491 . S
C1744 H1735 0.950 . S
C1744 C1743 1.398 . S
C1744 C1745 1.391 . S
C1745 H1733 0.950 . S
C1745 C1741 1.393 . S
C1745 C1744 1.391 . S
C1746 H1736 0.950 . S
C1746 C1747 1.386 . S
C1746 C1748 1.391 . S
C1747 C1746 1.386 . S
C1747 C1751 1.393 . S
C1748 H1737 0.950 1_556 S
C1748 C1746 1.391 . S
C1748 C1749 1.400 1_556 S
C1749 C1743 1.491 . S
C1749 C1748 1.400 1_554 S
C1749 C1750 1.398 1_554 S
C1750 H1738 0.950 . S
C1750 C1749 1.398 1_556 S
C1750 C1751 1.391 . S
C1751 H1739 0.950 . S
C1751 C1747 1.393 . S
C1751 C1750 1.391 . S
H1752 C1760 0.950 . S
H1753 C1765 0.950 . S
H1754 C1762 0.950 . S
H1755 C1764 0.950 . S
H1756 C1766 0.950 . S
H1757 C1768 0.950 1_554 S
H1758 C1770 0.950 . S
H1759 C1771 0.950 . S
C1760 H1752 0.950 . S
C1760 C1761 1.386 . S
C1760 C1762 1.391 . S
C1761 C1760 1.386 . S
C1761 C1765 1.393 . S
C1762 H1754 0.950 . S
C1762 C1760 1.391 . S
C1762 C1763 1.400 . S
C1763 C1762 1.400 . S
C1763 C1764 1.398 . S
C1763 C1769 1.491 . S
C1764 H1755 0.950 . S
C1764 C1763 1.398 . S
C1764 C1765 1.391 . S
C1765 H1753 0.950 . S
C1765 C1761 1.393 . S
C1765 C1764 1.391 . S
C1766 H1756 0.950 . S
C1766 C1767 1.386 . S
C1766 C1768 1.391 . S
C1767 C1766 1.386 . S
C1767 C1771 1.393 . S
C1768 H1757 0.950 1_556 S
C1768 C1766 1.391 . S
C1768 C1769 1.400 1_556 S
C1769 C1763 1.491 . S
C1769 C1768 1.400 1_554 S
C1769 C1770 1.398 1_554 S
C1770 H1758 0.950 . S
C1770 C1769 1.398 1_556 S
C1770 C1771 1.391 . S
C1771 H1759 0.950 . S
C1771 C1767 1.393 . S
C1771 C1770 1.391 . S
H1772 C1780 0.950 . S
H1773 C1785 0.950 . S
H1774 C1782 0.950 1_554 S
H1775 C1784 0.950 . S
H1776 C1786 0.950 . S
H1777 C1788 0.950 . S
H1778 C1790 0.950 . S
H1779 C1791 0.950 . S
C1780 H1772 0.950 . S
C1780 C1781 1.386 . S
C1780 C1782 1.391 . S
C1781 C1780 1.386 . S
C1781 C1785 1.393 . S
C1782 H1774 0.950 1_556 S
C1782 C1780 1.391 . S
C1782 C1783 1.400 1_556 S
C1783 C1782 1.400 1_554 S
C1783 C1784 1.398 1_554 S
C1783 C1789 1.491 . S
C1784 H1775 0.950 . S
C1784 C1783 1.398 1_556 S
C1784 C1785 1.391 . S
C1785 H1773 0.950 . S
C1785 C1781 1.393 . S
C1785 C1784 1.391 . S
C1786 H1776 0.950 . S
C1786 C1787 1.386 . S
C1786 C1788 1.391 . S
C1787 C1786 1.386 . S
C1787 C1791 1.393 . S
C1788 H1777 0.950 . S
C1788 C1786 1.391 . S
C1788 C1789 1.400 . S
C1789 C1783 1.491 . S
C1789 C1788 1.400 . S
C1789 C1790 1.398 . S
C1790 H1778 0.950 . S
C1790 C1789 1.398 . S
C1790 C1791 1.391 . S
C1791 H1779 0.950 . S
C1791 C1787 1.393 . S
C1791 C1790 1.391 . S
H1792 C1800 0.950 . S
H1793 C1805 0.950 . S
H1794 C1802 0.950 1_554 S
H1795 C1804 0.950 1_554 S
H1796 C1806 0.950 . S
H1797 C1808 0.950 . S
H1798 C1810 0.950 . S
H1799 C1811 0.950 . S
C1800 H1792 0.950 . S
C1800 C1801 1.386 . S
C1800 C1802 1.391 . S
C1801 C1800 1.386 . S
C1801 C1805 1.393 . S
C1802 H1794 0.950 1_556 S
C1802 C1800 1.391 . S
C1802 C1803 1.400 1_556 S
C1803 C1802 1.400 1_554 S
C1803 C1804 1.398 1_554 S
C1803 C1809 1.491 . S
C1804 H1795 0.950 1_556 S
C1804 C1803 1.398 1_556 S
C1804 C1805 1.391 . S
C1805 H1793 0.950 . S
C1805 C1801 1.393 . S
C1805 C1804 1.391 . S
C1806 H1796 0.950 . S
C1806 C1807 1.386 . S
C1806 C1808 1.391 . S
C1807 C1806 1.386 . S
C1807 C1811 1.393 . S
C1808 H1797 0.950 . S
C1808 C1806 1.391 . S
C1808 C1809 1.400 . S
C1809 C1803 1.491 . S
C1809 C1808 1.400 . S
C1809 C1810 1.398 . S
C1810 H1798 0.950 . S
C1810 C1809 1.398 . S
C1810 C1811 1.391 . S
C1811 H1799 0.950 . S
C1811 C1807 1.393 . S
C1811 C1810 1.391 . S
H1812 C1820 0.950 . S
H1813 C1825 0.950 . S
H1814 C1822 0.950 . S
H1815 C1824 0.950 . S
H1816 C1826 0.950 . S
H1817 C1828 0.950 . S
H1818 C1830 0.950 . S
H1819 C1831 0.950 . S
C1820 H1812 0.950 . S
C1820 C1821 1.386 . S
C1820 C1822 1.391 . S
C1821 C1820 1.386 . S
C1821 C1825 1.393 . S
C1822 H1814 0.950 . S
C1822 C1820 1.391 . S
C1822 C1823 1.400 . S
C1823 C1822 1.400 . S
C1823 C1824 1.398 . S
C1823 C1829 1.491 . S
C1824 H1815 0.950 . S
C1824 C1823 1.398 . S
C1824 C1825 1.391 . S
C1825 H1813 0.950 . S
C1825 C1821 1.393 . S
C1825 C1824 1.391 . S
C1826 H1816 0.950 . S
C1826 C1827 1.386 . S
C1826 C1828 1.391 . S
C1827 C1826 1.386 . S
C1827 C1831 1.393 . S
C1828 H1817 0.950 . S
C1828 C1826 1.391 . S
C1828 C1829 1.400 . S
C1829 C1823 1.491 . S
C1829 C1828 1.400 . S
C1829 C1830 1.398 . S
C1830 H1818 0.950 . S
C1830 C1829 1.398 . S
C1830 C1831 1.391 . S
C1831 H1819 0.950 . S
C1831 C1827 1.393 . S
C1831 C1830 1.391 . S
H1832 C1840 0.950 . S
H1833 C1845 0.950 . S
H1834 C1842 0.950 . S
H1835 C1844 0.950 . S
H1836 C1846 0.950 . S
H1837 C1848 0.950 . S
H1838 C1850 0.950 . S
H1839 C1851 0.950 . S
C1840 H1832 0.950 . S
C1840 C1841 1.386 . S
C1840 C1842 1.391 . S
C1841 C1840 1.386 . S
C1841 C1845 1.393 . S
C1842 H1834 0.950 . S
C1842 C1840 1.391 . S
C1842 C1843 1.400 . S
C1843 C1842 1.400 . S
C1843 C1844 1.398 . S
C1843 C1849 1.491 . S
C1844 H1835 0.950 . S
C1844 C1843 1.398 . S
C1844 C1845 1.391 . S
C1845 H1833 0.950 . S
C1845 C1841 1.393 . S
C1845 C1844 1.391 . S
C1846 H1836 0.950 . S
C1846 C1847 1.386 . S
C1846 C1848 1.391 . S
C1847 C1846 1.386 . S
C1847 C1851 1.393 . S
C1848 H1837 0.950 . S
C1848 C1846 1.391 . S
C1848 C1849 1.400 . S
C1849 C1843 1.491 . S
C1849 C1848 1.400 . S
C1849 C1850 1.398 . S
C1850 H1838 0.950 . S
C1850 C1849 1.398 . S
C1850 C1851 1.391 . S
C1851 H1839 0.950 . S
C1851 C1847 1.393 . S
C1851 C1850 1.391 . S
H1852 C1860 0.950 . S
H1853 C1865 0.950 . S
H1854 C1862 0.950 . S
H1855 C1864 0.950 . S
H1856 C1866 0.950 . S
H1857 C1868 0.950 . S
H1858 C1870 0.950 . S
H1859 C1871 0.950 . S
C1860 H1852 0.950 . S
C1860 C1861 1.386 . S
C1860 C1862 1.391 . S
C1861 C1860 1.386 . S
C1861 C1865 1.393 . S
C1862 H1854 0.950 . S
C1862 C1860 1.391 . S
C1862 C1863 1.400 . S
C1863 C1862 1.400 . S
C1863 C1864 1.398 . S
C1863 C1869 1.491 . S
C1864 H1855 0.950 . S
C1864 C1863 1.398 . S
C1864 C1865 1.391 . S
C1865 H1853 0.950 . S
C1865 C1861 1.393 . S
C1865 C1864 1.391 . S
C1866 H1856 0.950 . S
C1866 C1867 1.386 . S
C1866 C1868 1.391 . S
C1867 C1866 1.386 . S
C1867 C1871 1.393 . S
C1868 H1857 0.950 . S
C1868 C1866 1.391 . S
C1868 C1869 1.400 . S
C1869 C1863 1.491 . S
C1869 C1868 1.400 . S
C1869 C1870 1.398 . S
C1870 H1858 0.950 . S
C1870 C1869 1.398 . S
C1870 C1871 1.391 . S
C1871 H1859 0.950 . S
C1871 C1867 1.393 . S
C1871 C1870 1.391 . S
H1872 C1880 0.950 . S
H1873 C1885 0.950 . S
H1874 C1882 0.950 . S
H1875 C1884 0.950 . S
H1876 C1886 0.950 . S
H1877 C1888 0.950 . S
H1878 C1890 0.950 . S
H1879 C1891 0.950 . S
C1880 H1872 0.950 . S
C1880 C1881 1.386 . S
C1880 C1882 1.391 . S
C1881 C1880 1.386 . S
C1881 C1885 1.393 . S
C1882 H1874 0.950 . S
C1882 C1880 1.391 . S
C1882 C1883 1.400 . S
C1883 C1882 1.400 . S
C1883 C1884 1.398 . S
C1883 C1889 1.491 . S
C1884 H1875 0.950 . S
C1884 C1883 1.398 . S
C1884 C1885 1.391 . S
C1885 H1873 0.950 . S
C1885 C1881 1.393 . S
C1885 C1884 1.391 . S
C1886 H1876 0.950 . S
C1886 C1887 1.386 . S
C1886 C1888 1.391 . S
C1887 C1886 1.386 . S
C1887 C1891 1.393 . S
C1888 H1877 0.950 . S
C1888 C1886 1.391 . S
C1888 C1889 1.400 . S
C1889 C1883 1.491 . S
C1889 C1888 1.400 . S
C1889 C1890 1.398 . S
C1890 H1878 0.950 . S
C1890 C1889 1.398 . S
C1890 C1891 1.391 . S
C1891 H1879 0.950 . S
C1891 C1887 1.393 . S
C1891 C1890 1.391 . S
H1892 C1900 0.950 . S
H1893 C1905 0.950 . S
H1894 C1902 0.950 . S
H1895 C1904 0.950 . S
H1896 C1906 0.950 . S
H1897 C1908 0.950 . S
H1898 C1910 0.950 . S
H1899 C1911 0.950 . S
C1900 H1892 0.950 . S
C1900 C1901 1.386 . S
C1900 C1902 1.391 . S
C1901 C1900 1.386 . S
C1901 C1905 1.393 . S
C1902 H1894 0.950 . S
C1902 C1900 1.391 . S
C1902 C1903 1.400 . S
C1903 C1902 1.400 . S
C1903 C1904 1.398 . S
C1903 C1909 1.491 . S
C1904 H1895 0.950 . S
C1904 C1903 1.398 . S
C1904 C1905 1.391 . S
C1905 H1893 0.950 . S
C1905 C1901 1.393 . S
C1905 C1904 1.391 . S
C1906 H1896 0.950 . S
C1906 C1907 1.386 . S
C1906 C1908 1.391 . S
C1907 C1906 1.386 . S
C1907 C1911 1.393 . S
C1908 H1897 0.950 . S
C1908 C1906 1.391 . S
C1908 C1909 1.400 . S
C1909 C1903 1.491 . S
C1909 C1908 1.400 . S
C1909 C1910 1.398 . S
C1910 H1898 0.950 . S
C1910 C1909 1.398 . S
C1910 C1911 1.391 . S
C1911 H1899 0.950 . S
C1911 C1907 1.393 . S
C1911 C1910 1.391 . S
H1912 C1920 0.950 . S
H1913 C1925 0.950 . S
H1914 C1922 0.950 . S
H1915 C1924 0.950 . S
H1916 C1926 0.950 . S
H1917 C1928 0.950 . S
H1918 C1930 0.950 . S
H1919 C1931 0.950 . S
C1920 H1912 0.950 . S
C1920 C1921 1.386 . S
C1920 C1922 1.391 . S
C1921 C1920 1.386 . S
C1921 C1925 1.393 . S
C1922 H1914 0.950 . S
C1922 C1920 1.391 . S
C1922 C1923 1.400 . S
C1923 C1922 1.400 . S
C1923 C1924 1.398 . S
C1923 C1929 1.491 . S
C1924 H1915 0.950 . S
C1924 C1923 1.398 . S
C1924 C1925 1.391 . S
C1925 H1913 0.950 . S
C1925 C1921 1.393 . S
C1925 C1924 1.391 . S
C1926 H1916 0.950 . S
C1926 C1927 1.386 . S
C1926 C1928 1.391 . S
C1927 C1926 1.386 . S
C1927 C1931 1.393 . S
C1928 H1917 0.950 . S
C1928 C1926 1.391 . S
C1928 C1929 1.400 . S
C1929 C1923 1.491 . S
C1929 C1928 1.400 . S
C1929 C1930 1.398 . S
C1930 H1918 0.950 . S
C1930 C1929 1.398 . S
C1930 C1931 1.391 . S
C1931 H1919 0.950 . S
C1931 C1927 1.393 . S
C1931 C1930 1.391 . S
H1932 C1940 0.950 . S
H1933 C1945 0.950 . S
H1934 C1942 0.950 . S
H1935 C1944 0.950 . S
H1936 C1946 0.950 . S
H1937 C1948 0.950 . S
H1938 C1950 0.950 . S
H1939 C1951 0.950 . S
C1940 H1932 0.950 . S
C1940 C1941 1.386 . S
C1940 C1942 1.391 . S
C1941 C1940 1.386 . S
C1941 C1945 1.393 . S
C1942 H1934 0.950 . S
C1942 C1940 1.391 . S
C1942 C1943 1.400 . S
C1943 C1942 1.400 . S
C1943 C1944 1.398 . S
C1943 C1949 1.491 . S
C1944 H1935 0.950 . S
C1944 C1943 1.398 . S
C1944 C1945 1.391 . S
C1945 H1933 0.950 . S
C1945 C1941 1.393 . S
C1945 C1944 1.391 . S
C1946 H1936 0.950 . S
C1946 C1947 1.386 . S
C1946 C1948 1.391 . S
C1947 C1946 1.386 . S
C1947 C1951 1.393 . S
C1948 H1937 0.950 . S
C1948 C1946 1.391 . S
C1948 C1949 1.400 . S
C1949 C1943 1.491 . S
C1949 C1948 1.400 . S
C1949 C1950 1.398 . S
C1950 H1938 0.950 . S
C1950 C1949 1.398 . S
C1950 C1951 1.391 . S
C1951 H1939 0.950 . S
C1951 C1947 1.393 . S
C1951 C1950 1.391 . S
H1952 C1960 0.950 . S
H1953 C1965 0.950 . S
H1954 C1962 0.950 . S
H1955 C1964 0.950 . S
H1956 C1966 0.950 . S
H1957 C1968 0.950 . S
H1958 C1970 0.950 . S
H1959 C1971 0.950 . S
C1960 H1952 0.950 . S
C1960 C1961 1.386 . S
C1960 C1962 1.391 . S
C1961 C1960 1.386 . S
C1961 C1965 1.393 . S
C1962 H1954 0.950 . S
C1962 C1960 1.391 . S
C1962 C1963 1.400 . S
C1963 C1962 1.400 . S
C1963 C1964 1.398 . S
C1963 C1969 1.491 . S
C1964 H1955 0.950 . S
C1964 C1963 1.398 . S
C1964 C1965 1.391 . S
C1965 H1953 0.950 . S
C1965 C1961 1.393 . S
C1965 C1964 1.391 . S
C1966 H1956 0.950 . S
C1966 C1967 1.386 . S
C1966 C1968 1.391 . S
C1967 C1966 1.386 . S
C1967 C1971 1.393 . S
C1968 H1957 0.950 . S
C1968 C1966 1.391 . S
C1968 C1969 1.400 . S
C1969 C1963 1.491 . S
C1969 C1968 1.400 . S
C1969 C1970 1.398 . S
C1970 H1958 0.950 . S
C1970 C1969 1.398 . S
C1970 C1971 1.391 . S
C1971 H1959 0.950 . S
C1971 C1967 1.393 . S
C1971 C1970 1.391 . S
H1972 C1980 0.950 . S
H1973 C1985 0.950 . S
H1974 C1982 0.950 . S
H1975 C1984 0.950 . S
H1976 C1986 0.950 . S
H1977 C1988 0.950 . S
H1978 C1990 0.950 . S
H1979 C1991 0.950 . S
C1980 H1972 0.950 . S
C1980 C1981 1.386 . S
C1980 C1982 1.391 . S
C1981 C1980 1.386 . S
C1981 C1985 1.393 . S
C1982 H1974 0.950 . S
C1982 C1980 1.391 . S
C1982 C1983 1.400 . S
C1983 C1982 1.400 . S
C1983 C1984 1.398 . S
C1983 C1989 1.491 . S
C1984 H1975 0.950 . S
C1984 C1983 1.398 . S
C1984 C1985 1.391 . S
C1985 H1973 0.950 . S
C1985 C1981 1.393 . S
C1985 C1984 1.391 . S
C1986 H1976 0.950 . S
C1986 C1987 1.386 . S
C1986 C1988 1.391 . S
C1987 C1986 1.386 . S
C1987 C1991 1.393 . S
C1988 H1977 0.950 . S
C1988 C1986 1.391 . S
C1988 C1989 1.400 . S
C1989 C1983 1.491 . S
C1989 C1988 1.400 . S
C1989 C1990 1.398 . S
C1990 H1978 0.950 . S
C1990 C1989 1.398 . S
C1990 C1991 1.391 . S
C1991 H1979 0.950 . S
C1991 C1987 1.393 . S
C1991 C1990 1.391 . S
H1992 C2000 0.950 . S
H1993 C2005 0.950 . S
H1994 C2002 0.950 . S
H1995 C2004 0.950 . S
H1996 C2006 0.950 . S
H1997 C2008 0.950 . S
H1998 C2010 0.950 . S
H1999 C2011 0.950 . S
C2000 H1992 0.950 . S
C2000 C2001 1.386 . S
C2000 C2002 1.391 . S
C2001 C2000 1.386 . S
C2001 C2005 1.393 . S
C2002 H1994 0.950 . S
C2002 C2000 1.391 . S
C2002 C2003 1.400 . S
C2003 C2002 1.400 . S
C2003 C2004 1.398 . S
C2003 C2009 1.491 . S
C2004 H1995 0.950 . S
C2004 C2003 1.398 . S
C2004 C2005 1.391 . S
C2005 H1993 0.950 . S
C2005 C2001 1.393 . S
C2005 C2004 1.391 . S
C2006 H1996 0.950 . S
C2006 C2007 1.386 . S
C2006 C2008 1.391 . S
C2007 C2006 1.386 . S
C2007 C2011 1.393 . S
C2008 H1997 0.950 . S
C2008 C2006 1.391 . S
C2008 C2009 1.400 . S
C2009 C2003 1.491 . S
C2009 C2008 1.400 . S
C2009 C2010 1.398 . S
C2010 H1998 0.950 . S
C2010 C2009 1.398 . S
C2010 C2011 1.391 . S
C2011 H1999 0.950 . S
C2011 C2007 1.393 . S
C2011 C2010 1.391 . S
H2012 C2020 0.950 . S
H2013 C2025 0.950 . S
H2014 C2022 0.950 . S
H2015 C2024 0.950 . S
H2016 C2026 0.950 . S
H2017 C2028 0.950 . S
H2018 C2030 0.950 . S
H2019 C2031 0.950 1_554 S
C2020 H2012 0.950 . S
C2020 C2021 1.386 . S
C2020 C2022 1.391 . S
C2021 C2020 1.386 . S
C2021 C2025 1.393 . S
C2022 H2014 0.950 . S
C2022 C2020 1.391 . S
C2022 C2023 1.400 . S
C2023 C2022 1.400 . S
C2023 C2024 1.398 . S
C2023 C2029 1.491 . S
C2024 H2015 0.950 . S
C2024 C2023 1.398 . S
C2024 C2025 1.391 . S
C2025 H2013 0.950 . S
C2025 C2021 1.393 . S
C2025 C2024 1.391 . S
C2026 H2016 0.950 . S
C2026 C2027 1.386 . S
C2026 C2028 1.391 . S
C2027 C2026 1.386 . S
C2027 C2031 1.393 . S
C2028 H2017 0.950 . S
C2028 C2026 1.391 . S
C2028 C2029 1.400 . S
C2029 C2023 1.491 . S
C2029 C2028 1.400 . S
C2029 C2030 1.398 . S
C2030 H2018 0.950 . S
C2030 C2029 1.398 . S
C2030 C2031 1.391 . S
C2031 H2019 0.950 1_556 S
C2031 C2027 1.393 . S
C2031 C2030 1.391 . S
H2032 C2040 0.950 . S
H2033 C2045 0.950 . S
H2034 C2042 0.950 . S
H2035 C2044 0.950 . S
H2036 C2046 0.950 . S
H2037 C2048 0.950 . S
H2038 C2050 0.950 . S
H2039 C2051 0.950 . S
C2040 H2032 0.950 . S
C2040 C2041 1.386 . S
C2040 C2042 1.391 . S
C2041 C2040 1.386 . S
C2041 C2045 1.393 . S
C2042 H2034 0.950 . S
C2042 C2040 1.391 . S
C2042 C2043 1.400 . S
C2043 C2042 1.400 . S
C2043 C2044 1.398 . S
C2043 C2049 1.491 . S
C2044 H2035 0.950 . S
C2044 C2043 1.398 . S
C2044 C2045 1.391 . S
C2045 H2033 0.950 . S
C2045 C2041 1.393 . S
C2045 C2044 1.391 . S
C2046 H2036 0.950 . S
C2046 C2047 1.386 . S
C2046 C2048 1.391 . S
C2047 C2046 1.386 . S
C2047 C2051 1.393 . S
C2048 H2037 0.950 . S
C2048 C2046 1.391 . S
C2048 C2049 1.400 . S
C2049 C2043 1.491 . S
C2049 C2048 1.400 . S
C2049 C2050 1.398 . S
C2050 H2038 0.950 . S
C2050 C2049 1.398 . S
C2050 C2051 1.391 . S
C2051 H2039 0.950 . S
C2051 C2047 1.393 . S
C2051 C2050 1.391 . S
H2052 C2060 0.950 . S
H2053 C2065 0.950 . S
H2054 C2062 0.950 . S
H2055 C2064 0.950 . S
H2056 C2066 0.950 . S
H2057 C2068 0.950 . S
H2058 C2070 0.950 . S
H2059 C2071 0.950 . S
C2060 H2052 0.950 . S
C2060 C2061 1.386 . S
C2060 C2062 1.391 . S
C2061 C2060 1.386 . S
C2061 C2065 1.393 . S
C2062 H2054 0.950 . S
C2062 C2060 1.391 . S
C2062 C2063 1.400 . S
C2063 C2062 1.400 . S
C2063 C2064 1.398 . S
C2063 C2069 1.491 . S
C2064 H2055 0.950 . S
C2064 C2063 1.398 . S
C2064 C2065 1.391 . S
C2065 H2053 0.950 . S
C2065 C2061 1.393 . S
C2065 C2064 1.391 . S
C2066 H2056 0.950 . S
C2066 C2067 1.386 . S
C2066 C2068 1.391 . S
C2067 C2066 1.386 . S
C2067 C2071 1.393 . S
C2068 H2057 0.950 . S
C2068 C2066 1.391 . S
C2068 C2069 1.400 . S
C2069 C2063 1.491 . S
C2069 C2068 1.400 . S
C2069 C2070 1.398 . S
C2070 H2058 0.950 . S
C2070 C2069 1.398 . S
C2070 C2071 1.391 . S
C2071 H2059 0.950 . S
C2071 C2067 1.393 . S
C2071 C2070 1.391 . S
H2072 C2080 0.950 . S
H2073 C2085 0.950 . S
H2074 C2082 0.950 . S
H2075 C2084 0.950 . S
H2076 C2086 0.950 . S
H2077 C2088 0.950 . S
H2078 C2090 0.950 . S
H2079 C2091 0.950 . S
C2080 H2072 0.950 . S
C2080 C2081 1.386 . S
C2080 C2082 1.391 . S
C2081 C2080 1.386 . S
C2081 C2085 1.393 . S
C2082 H2074 0.950 . S
C2082 C2080 1.391 . S
C2082 C2083 1.400 . S
C2083 C2082 1.400 . S
C2083 C2084 1.398 . S
C2083 C2089 1.491 . S
C2084 H2075 0.950 . S
C2084 C2083 1.398 . S
C2084 C2085 1.391 . S
C2085 H2073 0.950 . S
C2085 C2081 1.393 . S
C2085 C2084 1.391 . S
C2086 H2076 0.950 . S
C2086 C2087 1.386 . S
C2086 C2088 1.391 . S
C2087 C2086 1.386 . S
C2087 C2091 1.393 . S
C2088 H2077 0.950 . S
C2088 C2086 1.391 . S
C2088 C2089 1.400 . S
C2089 C2083 1.491 . S
C2089 C2088 1.400 . S
C2089 C2090 1.398 . S
C2090 H2078 0.950 . S
C2090 C2089 1.398 . S
C2090 C2091 1.391 . S
C2091 H2079 0.950 . S
C2091 C2087 1.393 . S
C2091 C2090 1.391 . S
H2092 C2100 0.950 . S
H2093 C2105 0.950 . S
H2094 C2102 0.950 . S
H2095 C2104 0.950 . S
H2096 C2106 0.950 . S
H2097 C2108 0.950 . S
H2098 C2110 0.950 . S
H2099 C2111 0.950 . S
C2100 H2092 0.950 . S
C2100 C2101 1.386 . S
C2100 C2102 1.391 . S
C2101 C2100 1.386 . S
C2101 C2105 1.393 . S
C2102 H2094 0.950 . S
C2102 C2100 1.391 . S
C2102 C2103 1.400 . S
C2103 C2102 1.400 . S
C2103 C2104 1.398 . S
C2103 C2109 1.491 . S
C2104 H2095 0.950 . S
C2104 C2103 1.398 . S
C2104 C2105 1.391 . S
C2105 H2093 0.950 . S
C2105 C2101 1.393 . S
C2105 C2104 1.391 . S
C2106 H2096 0.950 . S
C2106 C2107 1.386 . S
C2106 C2108 1.391 . S
C2107 C2106 1.386 . S
C2107 C2111 1.393 . S
C2108 H2097 0.950 . S
C2108 C2106 1.391 . S
C2108 C2109 1.400 . S
C2109 C2103 1.491 . S
C2109 C2108 1.400 . S
C2109 C2110 1.398 . S
C2110 H2098 0.950 . S
C2110 C2109 1.398 . S
C2110 C2111 1.391 . S
C2111 H2099 0.950 . S
C2111 C2107 1.393 . S
C2111 C2110 1.391 . S
H2112 C2120 0.950 . S
H2113 C2125 0.950 . S
H2114 C2122 0.950 . S
H2115 C2124 0.950 . S
H2116 C2126 0.950 . S
H2117 C2128 0.950 . S
H2118 C2130 0.950 . S
H2119 C2131 0.950 . S
C2120 H2112 0.950 . S
C2120 C2121 1.386 . S
C2120 C2122 1.391 . S
C2121 C2120 1.386 . S
C2121 C2125 1.393 . S
C2122 H2114 0.950 . S
C2122 C2120 1.391 . S
C2122 C2123 1.400 . S
C2123 C2122 1.400 . S
C2123 C2124 1.398 . S
C2123 C2129 1.491 . S
C2124 H2115 0.950 . S
C2124 C2123 1.398 . S
C2124 C2125 1.391 . S
C2125 H2113 0.950 . S
C2125 C2121 1.393 . S
C2125 C2124 1.391 . S
C2126 H2116 0.950 . S
C2126 C2127 1.386 . S
C2126 C2128 1.391 . S
C2127 C2126 1.386 . S
C2127 C2131 1.393 . S
C2128 H2117 0.950 . S
C2128 C2126 1.391 . S
C2128 C2129 1.400 . S
C2129 C2123 1.491 . S
C2129 C2128 1.400 . S
C2129 C2130 1.398 . S
C2130 H2118 0.950 . S
C2130 C2129 1.398 . S
C2130 C2131 1.391 . S
C2131 H2119 0.950 . S
C2131 C2127 1.393 . S
C2131 C2130 1.391 . S
H2132 C2140 0.950 . S
H2133 C2145 0.950 . S
H2134 C2142 0.950 . S
H2135 C2144 0.950 . S
H2136 C2146 0.950 . S
H2137 C2148 0.950 . S
H2138 C2150 0.950 . S
H2139 C2151 0.950 . S
C2140 H2132 0.950 . S
C2140 C2141 1.386 . S
C2140 C2142 1.391 . S
C2141 C2140 1.386 . S
C2141 C2145 1.393 . S
C2142 H2134 0.950 . S
C2142 C2140 1.391 . S
C2142 C2143 1.400 . S
C2143 C2142 1.400 . S
C2143 C2144 1.398 . S
C2143 C2149 1.491 1_545 S
C2144 H2135 0.950 . S
C2144 C2143 1.398 . S
C2144 C2145 1.391 . S
C2145 H2133 0.950 . S
C2145 C2141 1.393 . S
C2145 C2144 1.391 . S
C2146 H2136 0.950 . S
C2146 C2147 1.386 . S
C2146 C2148 1.391 . S
C2147 C2146 1.386 . S
C2147 C2151 1.393 . S
C2148 H2137 0.950 . S
C2148 C2146 1.391 . S
C2148 C2149 1.400 . S
C2149 C2143 1.491 1_565 S
C2149 C2148 1.400 . S
C2149 C2150 1.398 . S
C2150 H2138 0.950 . S
C2150 C2149 1.398 . S
C2150 C2151 1.391 . S
C2151 H2139 0.950 . S
C2151 C2147 1.393 . S
C2151 C2150 1.391 . S
H2152 C2160 0.950 . S
H2153 C2165 0.950 . S
H2154 C2162 0.950 . S
H2155 C2164 0.950 . S
H2156 C2166 0.950 . S
H2157 C2168 0.950 . S
H2158 C2170 0.950 . S
H2159 C2171 0.950 . S
C2160 H2152 0.950 . S
C2160 C2161 1.386 . S
C2160 C2162 1.391 . S
C2161 C2160 1.386 . S
C2161 C2165 1.393 . S
C2162 H2154 0.950 . S
C2162 C2160 1.391 . S
C2162 C2163 1.400 . S
C2163 C2162 1.400 . S
C2163 C2164 1.398 . S
C2163 C2169 1.491 1_655 S
C2164 H2155 0.950 . S
C2164 C2163 1.398 . S
C2164 C2165 1.391 . S
C2165 H2153 0.950 . S
C2165 C2161 1.393 . S
C2165 C2164 1.391 . S
C2166 H2156 0.950 . S
C2166 C2167 1.386 . S
C2166 C2168 1.391 . S
C2167 C2166 1.386 . S
C2167 C2171 1.393 . S
C2168 H2157 0.950 . S
C2168 C2166 1.391 . S
C2168 C2169 1.400 . S
C2169 C2163 1.491 1_455 S
C2169 C2168 1.400 . S
C2169 C2170 1.398 . S
C2170 H2158 0.950 . S
C2170 C2169 1.398 . S
C2170 C2171 1.391 . S
C2171 H2159 0.950 . S
C2171 C2167 1.393 . S
C2171 C2170 1.391 . S
H2172 C2180 0.950 . S
H2173 C2185 0.950 . S
H2174 C2182 0.950 . S
H2175 C2184 0.950 . S
H2176 C2186 0.950 . S
H2177 C2188 0.950 . S
H2178 C2190 0.950 . S
H2179 C2191 0.950 . S
C2180 H2172 0.950 . S
C2180 C2181 1.386 . S
C2180 C2182 1.391 . S
C2181 C2180 1.386 . S
C2181 C2185 1.393 . S
C2182 H2174 0.950 . S
C2182 C2180 1.391 . S
C2182 C2183 1.400 . S
C2183 C2182 1.400 . S
C2183 C2184 1.398 . S
C2183 C2189 1.491 . S
C2184 H2175 0.950 . S
C2184 C2183 1.398 . S
C2184 C2185 1.391 . S
C2185 H2173 0.950 . S
C2185 C2181 1.393 . S
C2185 C2184 1.391 . S
C2186 H2176 0.950 . S
C2186 C2187 1.386 . S
C2186 C2188 1.391 . S
C2187 C2186 1.386 . S
C2187 C2191 1.393 . S
C2188 H2177 0.950 . S
C2188 C2186 1.391 . S
C2188 C2189 1.400 . S
C2189 C2183 1.491 . S
C2189 C2188 1.400 . S
C2189 C2190 1.398 . S
C2190 H2178 0.950 . S
C2190 C2189 1.398 . S
C2190 C2191 1.391 . S
C2191 H2179 0.950 . S
C2191 C2187 1.393 . S
C2191 C2190 1.391 . S
H2192 C2200 0.950 . S
H2193 C2205 0.950 . S
H2194 C2202 0.950 . S
H2195 C2204 0.950 . S
H2196 C2206 0.950 . S
H2197 C2208 0.950 . S
H2198 C2210 0.950 . S
H2199 C2211 0.950 . S
C2200 H2192 0.950 . S
C2200 C2201 1.386 . S
C2200 C2202 1.391 . S
C2201 C2200 1.386 . S
C2201 C2205 1.393 . S
C2202 H2194 0.950 . S
C2202 C2200 1.391 . S
C2202 C2203 1.400 . S
C2203 C2202 1.400 . S
C2203 C2204 1.398 . S
C2203 C2209 1.491 1_545 S
C2204 H2195 0.950 . S
C2204 C2203 1.398 . S
C2204 C2205 1.391 . S
C2205 H2193 0.950 . S
C2205 C2201 1.393 . S
C2205 C2204 1.391 . S
C2206 H2196 0.950 . S
C2206 C2207 1.386 . S
C2206 C2208 1.391 . S
C2207 C2206 1.386 . S
C2207 C2211 1.393 . S
C2208 H2197 0.950 . S
C2208 C2206 1.391 . S
C2208 C2209 1.400 . S
C2209 C2203 1.491 1_565 S
C2209 C2208 1.400 . S
C2209 C2210 1.398 . S
C2210 H2198 0.950 . S
C2210 C2209 1.398 . S
C2210 C2211 1.391 . S
C2211 H2199 0.950 . S
C2211 C2207 1.393 . S
C2211 C2210 1.391 . S
H2212 C2220 0.950 . S
H2213 C2225 0.950 . S
H2214 C2222 0.950 . S
H2215 C2224 0.950 . S
H2216 C2226 0.950 . S
H2217 C2228 0.950 . S
H2218 C2230 0.950 . S
H2219 C2231 0.950 . S
C2220 H2212 0.950 . S
C2220 C2221 1.386 . S
C2220 C2222 1.391 . S
C2221 C2220 1.386 . S
C2221 C2225 1.393 . S
C2222 H2214 0.950 . S
C2222 C2220 1.391 . S
C2222 C2223 1.400 . S
C2223 C2222 1.400 . S
C2223 C2224 1.398 . S
C2223 C2229 1.491 1_655 S
C2224 H2215 0.950 . S
C2224 C2223 1.398 . S
C2224 C2225 1.391 . S
C2225 H2213 0.950 . S
C2225 C2221 1.393 . S
C2225 C2224 1.391 . S
C2226 H2216 0.950 . S
C2226 C2227 1.386 . S
C2226 C2228 1.391 . S
C2227 C2226 1.386 . S
C2227 C2231 1.393 . S
C2228 H2217 0.950 . S
C2228 C2226 1.391 . S
C2228 C2229 1.400 . S
C2229 C2223 1.491 1_455 S
C2229 C2228 1.400 . S
C2229 C2230 1.398 . S
C2230 H2218 0.950 . S
C2230 C2229 1.398 . S
C2230 C2231 1.391 . S
C2231 H2219 0.950 . S
C2231 C2227 1.393 . S
C2231 C2230 1.391 . S
H2232 C2240 0.950 1_556 S
H2233 C2245 0.950 . S
H2234 C2242 0.943 1_556 S
H2235 C2244 0.950 . S
H2236 C2246 0.950 . S
H2237 C2248 0.950 . S
H2238 C2250 0.950 . S
H2239 C2251 0.950 . S
C2240 H2232 0.950 1_554 S
C2240 C2241 1.386 . S
C2240 C2242 1.391 . S
C2241 C2240 1.386 . S
C2241 C2245 1.393 . S
C2242 H2234 0.943 1_554 S
C2242 C2240 1.391 . S
C2242 C2243 1.407 . S
C2243 C2242 1.407 . S
C2243 C2244 1.398 . S
C2243 C2249 1.491 . S
C2244 H2235 0.950 . S
C2244 C2243 1.398 . S
C2244 C2245 1.391 . S
C2245 H2233 0.950 . S
C2245 C2241 1.393 . S
C2245 C2244 1.391 . S
C2246 H2236 0.950 . S
C2246 C2247 1.386 . S
C2246 C2248 1.391 . S
C2247 C2246 1.386 . S
C2247 C2251 1.393 1_554 S
C2248 H2237 0.950 . S
C2248 C2246 1.391 . S
C2248 C2249 1.400 . S
C2249 C2243 1.491 . S
C2249 C2248 1.400 . S
C2249 C2250 1.398 1_554 S
C2250 H2238 0.950 . S
C2250 C2249 1.398 1_556 S
C2250 C2251 1.391 . S
C2251 H2239 0.950 . S
C2251 C2247 1.393 1_556 S
C2251 C2250 1.391 . S
H2252 C2260 0.950 . S
H2253 C2265 0.950 . S
H2254 C2262 0.950 . S
H2255 C2264 0.950 . S
H2256 C2266 0.950 . S
H2257 C2268 0.950 . S
H2258 C2270 0.950 . S
H2259 C2271 0.950 . S
C2260 H2252 0.950 . S
C2260 C2261 1.386 . S
C2260 C2262 1.391 . S
C2261 C2260 1.386 . S
C2261 C2265 1.393 . S
C2262 H2254 0.950 . S
C2262 C2260 1.391 . S
C2262 C2263 1.400 . S
C2263 C2262 1.400 . S
C2263 C2264 1.398 . S
C2263 C2269 1.491 . S
C2264 H2255 0.950 . S
C2264 C2263 1.398 . S
C2264 C2265 1.391 . S
C2265 H2253 0.950 . S
C2265 C2261 1.393 . S
C2265 C2264 1.391 . S
C2266 H2256 0.950 . S
C2266 C2267 1.386 . S
C2266 C2268 1.391 . S
C2267 C2266 1.386 . S
C2267 C2271 1.393 . S
C2268 H2257 0.950 . S
C2268 C2266 1.391 . S
C2268 C2269 1.400 . S
C2269 C2263 1.491 . S
C2269 C2268 1.400 . S
C2269 C2270 1.398 . S
C2270 H2258 0.950 . S
C2270 C2269 1.398 . S
C2270 C2271 1.391 . S
C2271 H2259 0.950 . S
C2271 C2267 1.393 . S
C2271 C2270 1.391 . S
H2272 C2280 0.950 . S
H2273 C2285 0.950 . S
H2274 C2282 0.950 . S
H2275 C2284 0.950 . S
H2276 C2286 0.950 . S
H2277 C2288 0.950 . S
H2278 C2290 0.950 . S
H2279 C2291 0.950 . S
C2280 H2272 0.950 . S
C2280 C2281 1.386 . S
C2280 C2282 1.391 . S
C2281 C2280 1.386 . S
C2281 C2285 1.393 . S
C2282 H2274 0.950 . S
C2282 C2280 1.391 . S
C2282 C2283 1.400 . S
C2283 C2282 1.400 . S
C2283 C2284 1.398 . S
C2283 C2289 1.491 . S
C2284 H2275 0.950 . S
C2284 C2283 1.398 . S
C2284 C2285 1.391 . S
C2285 H2273 0.950 . S
C2285 C2281 1.393 . S
C2285 C2284 1.391 . S
C2286 H2276 0.950 . S
C2286 C2287 1.386 . S
C2286 C2288 1.391 . S
C2287 C2286 1.386 . S
C2287 C2291 1.393 . S
C2288 H2277 0.950 . S
C2288 C2286 1.391 . S
C2288 C2289 1.400 . S
C2289 C2283 1.491 . S
C2289 C2288 1.400 . S
C2289 C2290 1.398 . S
C2290 H2278 0.950 . S
C2290 C2289 1.398 . S
C2290 C2291 1.391 . S
C2291 H2279 0.950 . S
C2291 C2287 1.393 . S
C2291 C2290 1.391 . S
H2292 C2300 0.950 . S
H2293 C2305 0.950 . S
H2294 C2302 0.950 . S
H2295 C2304 0.950 . S
H2296 C2306 0.950 . S
H2297 C2308 0.950 . S
H2298 C2310 0.950 . S
H2299 C2311 0.950 . S
C2300 H2292 0.950 . S
C2300 C2301 1.386 . S
C2300 C2302 1.391 . S
C2301 C2300 1.386 . S
C2301 C2305 1.393 . S
C2302 H2294 0.950 . S
C2302 C2300 1.391 . S
C2302 C2303 1.400 . S
C2303 C2302 1.400 . S
C2303 C2304 1.398 . S
C2303 C2309 1.491 . S
C2304 H2295 0.950 . S
C2304 C2303 1.398 . S
C2304 C2305 1.391 . S
C2305 H2293 0.950 . S
C2305 C2301 1.393 . S
C2305 C2304 1.391 . S
C2306 H2296 0.950 . S
C2306 C2307 1.386 . S
C2306 C2308 1.391 . S
C2307 C2306 1.386 . S
C2307 C2311 1.393 . S
C2308 H2297 0.950 . S
C2308 C2306 1.391 . S
C2308 C2309 1.400 . S
C2309 C2303 1.491 . S
C2309 C2308 1.400 . S
C2309 C2310 1.398 . S
C2310 H2298 0.950 . S
C2310 C2309 1.398 . S
C2310 C2311 1.391 . S
C2311 H2299 0.950 . S
C2311 C2307 1.393 . S
C2311 C2310 1.391 . S
H2312 C2320 0.950 . S
H2313 C2325 0.950 . S
H2314 C2322 0.950 . S
H2315 C2324 0.950 . S
H2316 C2326 0.950 . S
H2317 C2328 0.950 . S
H2318 C2330 0.950 . S
H2319 C2331 0.950 . S
C2320 H2312 0.950 . S
C2320 C2321 1.386 . S
C2320 C2322 1.391 . S
C2321 C2320 1.386 . S
C2321 C2325 1.393 . S
C2322 H2314 0.950 . S
C2322 C2320 1.391 . S
C2322 C2323 1.400 . S
C2323 C2322 1.400 . S
C2323 C2324 1.398 . S
C2323 C2329 1.491 . S
C2324 H2315 0.950 . S
C2324 C2323 1.398 . S
C2324 C2325 1.391 . S
C2325 H2313 0.950 . S
C2325 C2321 1.393 . S
C2325 C2324 1.391 . S
C2326 H2316 0.950 . S
C2326 C2327 1.386 . S
C2326 C2328 1.391 . S
C2327 C2326 1.386 . S
C2327 C2331 1.393 . S
C2328 H2317 0.950 . S
C2328 C2326 1.391 . S
C2328 C2329 1.400 . S
C2329 C2323 1.491 . S
C2329 C2328 1.400 . S
C2329 C2330 1.398 . S
C2330 H2318 0.950 . S
C2330 C2329 1.398 . S
C2330 C2331 1.391 . S
C2331 H2319 0.950 . S
C2331 C2327 1.393 . S
C2331 C2330 1.391 . S
H2332 C2340 0.950 1_554 S
H2333 C2345 0.950 . S
H2334 C2342 0.950 1_554 S
H2335 C2344 0.950 . S
H2336 C2346 0.950 . S
H2337 C2348 0.950 . S
H2338 C2350 0.950 1_554 S
H2339 C2351 0.950 1_554 S
C2340 H2332 0.950 1_556 S
C2340 C2341 1.386 . S
C2340 C2342 1.391 . S
C2341 C2340 1.386 . S
C2341 C2345 1.393 . S
C2342 H2334 0.950 1_556 S
C2342 C2340 1.391 . S
C2342 C2343 1.400 . S
C2343 C2342 1.400 . S
C2343 C2344 1.398 . S
C2343 C2349 1.491 . S
C2344 H2335 0.950 . S
C2344 C2343 1.398 . S
C2344 C2345 1.391 . S
C2345 H2333 0.950 . S
C2345 C2341 1.393 . S
C2345 C2344 1.391 . S
C2346 H2336 0.950 . S
C2346 C2347 1.386 . S
C2346 C2348 1.391 . S
C2347 C2346 1.386 . S
C2347 C2351 1.393 . S
C2348 H2337 0.950 . S
C2348 C2346 1.391 . S
C2348 C2349 1.400 . S
C2349 C2343 1.491 . S
C2349 C2348 1.400 . S
C2349 C2350 1.398 . S
C2350 H2338 0.950 1_556 S
C2350 C2349 1.398 . S
C2350 C2351 1.391 . S
C2351 H2339 0.950 1_556 S
C2351 C2347 1.393 . S
C2351 C2350 1.391 . S
H2352 C2360 0.950 . S
H2353 C2365 0.950 . S
H2354 C2362 0.950 . S
H2355 C2364 0.950 . S
H2356 C2366 0.950 . S
H2357 C2368 0.950 . S
H2358 C2370 0.950 . S
H2359 C2371 0.950 . S
C2360 H2352 0.950 . S
C2360 C2361 1.386 . S
C2360 C2362 1.391 . S
C2361 C2360 1.386 . S
C2361 C2365 1.393 . S
C2362 H2354 0.950 . S
C2362 C2360 1.391 . S
C2362 C2363 1.400 . S
C2363 C2362 1.400 . S
C2363 C2364 1.398 . S
C2363 C2369 1.491 . S
C2364 H2355 0.950 . S
C2364 C2363 1.398 . S
C2364 C2365 1.391 . S
C2365 H2353 0.950 . S
C2365 C2361 1.393 . S
C2365 C2364 1.391 . S
C2366 H2356 0.950 . S
C2366 C2367 1.386 . S
C2366 C2368 1.391 . S
C2367 C2366 1.386 . S
C2367 C2371 1.393 . S
C2368 H2357 0.950 . S
C2368 C2366 1.391 . S
C2368 C2369 1.400 . S
C2369 C2363 1.491 . S
C2369 C2368 1.400 . S
C2369 C2370 1.398 . S
C2370 H2358 0.950 . S
C2370 C2369 1.398 . S
C2370 C2371 1.391 . S
C2371 H2359 0.950 . S
C2371 C2367 1.393 . S
C2371 C2370 1.391 . S
H2372 C2380 0.950 . S
H2373 C2385 0.950 . S
H2374 C2382 0.950 . S
H2375 C2384 0.950 . S
H2376 C2386 0.950 . S
H2377 C2388 0.950 . S
H2378 C2390 0.950 . S
H2379 C2391 0.950 . S
C2380 H2372 0.950 . S
C2380 C2381 1.386 . S
C2380 C2382 1.391 . S
C2381 C2380 1.386 . S
C2381 C2385 1.393 . S
C2382 H2374 0.950 . S
C2382 C2380 1.391 . S
C2382 C2383 1.400 . S
C2383 C2382 1.400 . S
C2383 C2384 1.398 . S
C2383 C2389 1.491 . S
C2384 H2375 0.950 . S
C2384 C2383 1.398 . S
C2384 C2385 1.391 . S
C2385 H2373 0.950 . S
C2385 C2381 1.393 . S
C2385 C2384 1.391 . S
C2386 H2376 0.950 . S
C2386 C2387 1.386 . S
C2386 C2388 1.391 . S
C2387 C2386 1.386 . S
C2387 C2391 1.393 . S
C2388 H2377 0.950 . S
C2388 C2386 1.391 . S
C2388 C2389 1.400 . S
C2389 C2383 1.491 . S
C2389 C2388 1.400 . S
C2389 C2390 1.398 . S
C2390 H2378 0.950 . S
C2390 C2389 1.398 . S
C2390 C2391 1.391 . S
C2391 H2379 0.950 . S
C2391 C2387 1.393 . S
C2391 C2390 1.391 . S
H2392 C2400 0.950 . S
H2393 C2405 0.950 . S
H2394 C2402 0.950 . S
H2395 C2404 0.950 . S
H2396 C2406 0.950 . S
H2397 C2408 0.950 . S
H2398 C2410 0.950 . S
H2399 C2411 0.950 . S
C2400 H2392 0.950 . S
C2400 C2401 1.386 . S
C2400 C2402 1.391 . S
C2401 C2400 1.386 . S
C2401 C2405 1.393 . S
C2402 H2394 0.950 . S
C2402 C2400 1.391 . S
C2402 C2403 1.400 . S
C2403 C2402 1.400 . S
C2403 C2404 1.398 . S
C2403 C2409 1.491 . S
C2404 H2395 0.950 . S
C2404 C2403 1.398 . S
C2404 C2405 1.391 . S
C2405 H2393 0.950 . S
C2405 C2401 1.393 . S
C2405 C2404 1.391 . S
C2406 H2396 0.950 . S
C2406 C2407 1.386 . S
C2406 C2408 1.391 . S
C2407 C2406 1.386 . S
C2407 C2411 1.393 . S
C2408 H2397 0.950 . S
C2408 C2406 1.391 . S
C2408 C2409 1.400 . S
C2409 C2403 1.491 . S
C2409 C2408 1.400 . S
C2409 C2410 1.398 . S
C2410 H2398 0.950 . S
C2410 C2409 1.398 . S
C2410 C2411 1.391 . S
C2411 H2399 0.950 . S
C2411 C2407 1.393 . S
C2411 C2410 1.391 . S
H2412 C2420 0.950 . S
H2413 C2425 0.950 . S
H2414 C2422 0.950 . S
H2415 C2424 0.950 . S
H2416 C2426 0.950 . S
H2417 C2428 0.950 . S
H2418 C2430 0.950 . S
H2419 C2431 0.950 . S
C2420 H2412 0.950 . S
C2420 C2421 1.386 . S
C2420 C2422 1.391 . S
C2421 C2420 1.386 . S
C2421 C2425 1.393 . S
C2422 H2414 0.950 . S
C2422 C2420 1.391 . S
C2422 C2423 1.400 . S
C2423 C2422 1.400 . S
C2423 C2424 1.398 . S
C2423 C2429 1.491 . S
C2424 H2415 0.950 . S
C2424 C2423 1.398 . S
C2424 C2425 1.391 . S
C2425 H2413 0.950 . S
C2425 C2421 1.393 . S
C2425 C2424 1.391 . S
C2426 H2416 0.950 . S
C2426 C2427 1.386 . S
C2426 C2428 1.391 . S
C2427 C2426 1.386 . S
C2427 C2431 1.393 . S
C2428 H2417 0.950 . S
C2428 C2426 1.391 . S
C2428 C2429 1.400 . S
C2429 C2423 1.491 . S
C2429 C2428 1.400 . S
C2429 C2430 1.398 . S
C2430 H2418 0.950 . S
C2430 C2429 1.398 . S
C2430 C2431 1.391 . S
C2431 H2419 0.950 . S
C2431 C2427 1.393 . S
C2431 C2430 1.391 . S
H2432 C2440 0.950 . S
H2433 C2445 0.950 . S
H2434 C2442 0.950 . S
H2435 C2444 0.950 . S
H2436 C2446 0.950 . S
H2437 C2448 0.950 . S
H2438 C2450 0.950 . S
H2439 C2451 0.950 . S
C2440 H2432 0.950 . S
C2440 C2441 1.386 . S
C2440 C2442 1.391 . S
C2441 C2440 1.386 . S
C2441 C2445 1.393 . S
C2442 H2434 0.950 . S
C2442 C2440 1.391 . S
C2442 C2443 1.400 . S
C2443 C2442 1.400 . S
C2443 C2444 1.398 . S
C2443 C2449 1.491 . S
C2444 H2435 0.950 . S
C2444 C2443 1.398 . S
C2444 C2445 1.391 . S
C2445 H2433 0.950 . S
C2445 C2441 1.393 . S
C2445 C2444 1.391 . S
C2446 H2436 0.950 . S
C2446 C2447 1.386 . S
C2446 C2448 1.391 . S
C2447 C2446 1.386 . S
C2447 C2451 1.393 . S
C2448 H2437 0.950 . S
C2448 C2446 1.391 . S
C2448 C2449 1.400 . S
C2449 C2443 1.491 . S
C2449 C2448 1.400 . S
C2449 C2450 1.398 . S
C2450 H2438 0.950 . S
C2450 C2449 1.398 . S
C2450 C2451 1.391 . S
C2451 H2439 0.950 . S
C2451 C2447 1.393 . S
C2451 C2450 1.391 . S
H2452 C2460 0.950 . S
H2453 C2465 0.950 . S
H2454 C2462 0.950 . S
H2455 C2464 0.950 . S
H2456 C2466 0.950 . S
H2457 C2468 0.950 . S
H2458 C2470 0.950 . S
H2459 C2471 0.950 . S
C2460 H2452 0.950 . S
C2460 C2461 1.386 . S
C2460 C2462 1.391 . S
C2461 C2460 1.386 . S
C2461 C2465 1.393 . S
C2462 H2454 0.950 . S
C2462 C2460 1.391 . S
C2462 C2463 1.400 . S
C2463 C2462 1.400 . S
C2463 C2464 1.398 . S
C2463 C2469 1.491 . S
C2464 H2455 0.950 . S
C2464 C2463 1.398 . S
C2464 C2465 1.391 . S
C2465 H2453 0.950 . S
C2465 C2461 1.393 . S
C2465 C2464 1.391 . S
C2466 H2456 0.950 . S
C2466 C2467 1.386 . S
C2466 C2468 1.391 . S
C2467 C2466 1.386 . S
C2467 C2471 1.393 . S
C2468 H2457 0.950 . S
C2468 C2466 1.391 . S
C2468 C2469 1.400 . S
C2469 C2463 1.491 . S
C2469 C2468 1.400 . S
C2469 C2470 1.398 . S
C2470 H2458 0.950 . S
C2470 C2469 1.398 . S
C2470 C2471 1.391 . S
C2471 H2459 0.950 . S
C2471 C2467 1.393 . S
C2471 C2470 1.391 . S
H2472 C2480 0.950 . S
H2473 C2485 0.950 . S
H2474 C2482 0.950 . S
H2475 C2484 0.950 . S
H2476 C2486 0.950 . S
H2477 C2488 0.950 . S
H2478 C2490 0.950 . S
H2479 C2491 0.950 . S
C2480 H2472 0.950 . S
C2480 C2481 1.386 . S
C2480 C2482 1.391 . S
C2481 C2480 1.386 . S
C2481 C2485 1.393 . S
C2482 H2474 0.950 . S
C2482 C2480 1.391 . S
C2482 C2483 1.400 . S
C2483 C2482 1.400 . S
C2483 C2484 1.398 . S
C2483 C2489 1.491 . S
C2484 H2475 0.950 . S
C2484 C2483 1.398 . S
C2484 C2485 1.391 . S
C2485 H2473 0.950 . S
C2485 C2481 1.393 . S
C2485 C2484 1.391 . S
C2486 H2476 0.950 . S
C2486 C2487 1.386 . S
C2486 C2488 1.391 . S
C2487 C2486 1.386 . S
C2487 C2491 1.393 . S
C2488 H2477 0.950 . S
C2488 C2486 1.391 . S
C2488 C2489 1.400 . S
C2489 C2483 1.491 . S
C2489 C2488 1.400 . S
C2489 C2490 1.398 . S
C2490 H2478 0.950 . S
C2490 C2489 1.398 . S
C2490 C2491 1.391 . S
C2491 H2479 0.950 . S
C2491 C2487 1.393 . S
C2491 C2490 1.391 . S
H2492 C2500 0.950 . S
H2493 C2505 0.950 . S
H2494 C2502 0.950 . S
H2495 C2504 0.950 . S
H2496 C2506 0.950 . S
H2497 C2508 0.950 . S
H2498 C2510 0.950 . S
H2499 C2511 0.950 . S
C2500 H2492 0.950 . S
C2500 C2501 1.386 . S
C2500 C2502 1.391 . S
C2501 C2500 1.386 . S
C2501 C2505 1.393 . S
C2502 H2494 0.950 . S
C2502 C2500 1.391 . S
C2502 C2503 1.400 . S
C2503 C2502 1.400 . S
C2503 C2504 1.398 . S
C2503 C2509 1.491 . S
C2504 H2495 0.950 . S
C2504 C2503 1.398 . S
C2504 C2505 1.391 . S
C2505 H2493 0.950 . S
C2505 C2501 1.393 . S
C2505 C2504 1.391 . S
C2506 H2496 0.950 . S
C2506 C2507 1.386 . S
C2506 C2508 1.391 . S
C2507 C2506 1.386 . S
C2507 C2511 1.393 . S
C2508 H2497 0.950 . S
C2508 C2506 1.391 . S
C2508 C2509 1.400 . S
C2509 C2503 1.491 . S
C2509 C2508 1.400 . S
C2509 C2510 1.398 . S
C2510 H2498 0.950 . S
C2510 C2509 1.398 . S
C2510 C2511 1.391 . S
C2511 H2499 0.950 . S
C2511 C2507 1.393 . S
C2511 C2510 1.391 . S
H2512 C2520 0.950 . S
H2513 C2525 0.950 . S
H2514 C2522 0.950 . S
H2515 C2524 0.950 . S
H2516 C2526 0.950 . S
H2517 C2528 0.950 . S
H2518 C2530 0.950 . S
H2519 C2531 0.950 . S
C2520 H2512 0.950 . S
C2520 C2521 1.386 . S
C2520 C2522 1.391 . S
C2521 C2520 1.386 . S
C2521 C2525 1.393 . S
C2522 H2514 0.950 . S
C2522 C2520 1.391 . S
C2522 C2523 1.400 . S
C2523 C2522 1.400 . S
C2523 C2524 1.398 . S
C2523 C2529 1.491 . S
C2524 H2515 0.950 . S
C2524 C2523 1.398 . S
C2524 C2525 1.391 . S
C2525 H2513 0.950 . S
C2525 C2521 1.393 . S
C2525 C2524 1.391 . S
C2526 H2516 0.950 . S
C2526 C2527 1.386 . S
C2526 C2528 1.391 . S
C2527 C2526 1.386 . S
C2527 C2531 1.393 . S
C2528 H2517 0.950 . S
C2528 C2526 1.391 . S
C2528 C2529 1.400 . S
C2529 C2523 1.491 . S
C2529 C2528 1.400 . S
C2529 C2530 1.398 . S
C2530 H2518 0.950 . S
C2530 C2529 1.398 . S
C2530 C2531 1.391 . S
C2531 H2519 0.950 . S
C2531 C2527 1.393 . S
C2531 C2530 1.391 . S
H2532 C2540 0.950 . S
H2533 C2545 0.950 . S
H2534 C2542 0.950 . S
H2535 C2544 0.950 . S
H2536 C2546 0.950 . S
H2537 C2548 0.950 . S
H2538 C2550 0.950 . S
H2539 C2551 0.950 . S
C2540 H2532 0.950 . S
C2540 C2541 1.386 . S
C2540 C2542 1.391 . S
C2541 C2540 1.386 . S
C2541 C2545 1.393 . S
C2542 H2534 0.950 . S
C2542 C2540 1.391 . S
C2542 C2543 1.400 . S
C2543 C2542 1.400 . S
C2543 C2544 1.398 . S
C2543 C2549 1.491 . S
C2544 H2535 0.950 . S
C2544 C2543 1.398 . S
C2544 C2545 1.391 . S
C2545 H2533 0.950 . S
C2545 C2541 1.393 . S
C2545 C2544 1.391 . S
C2546 H2536 0.950 . S
C2546 C2547 1.386 . S
C2546 C2548 1.391 . S
C2547 C2546 1.386 . S
C2547 C2551 1.393 . S
C2548 H2537 0.950 . S
C2548 C2546 1.391 . S
C2548 C2549 1.400 . S
C2549 C2543 1.491 . S
C2549 C2548 1.400 . S
C2549 C2550 1.398 . S
C2550 H2538 0.950 . S
C2550 C2549 1.398 . S
C2550 C2551 1.391 . S
C2551 H2539 0.950 . S
C2551 C2547 1.393 . S
C2551 C2550 1.391 . S
H2552 C2560 0.950 . S
H2553 C2565 0.950 . S
H2554 C2562 0.950 . S
H2555 C2564 0.950 . S
H2556 C2566 0.950 . S
H2557 C2568 0.950 . S
H2558 C2570 0.950 . S
H2559 C2571 0.950 . S
C2560 H2552 0.950 . S
C2560 C2561 1.386 . S
C2560 C2562 1.391 . S
C2561 C2560 1.386 . S
C2561 C2565 1.393 . S
C2562 H2554 0.950 . S
C2562 C2560 1.391 . S
C2562 C2563 1.400 . S
C2563 C2562 1.400 . S
C2563 C2564 1.398 . S
C2563 C2569 1.491 . S
C2564 H2555 0.950 . S
C2564 C2563 1.398 . S
C2564 C2565 1.391 . S
C2565 H2553 0.950 . S
C2565 C2561 1.393 . S
C2565 C2564 1.391 . S
C2566 H2556 0.950 . S
C2566 C2567 1.386 . S
C2566 C2568 1.391 . S
C2567 C2566 1.386 . S
C2567 C2571 1.393 . S
C2568 H2557 0.950 . S
C2568 C2566 1.391 . S
C2568 C2569 1.400 . S
C2569 C2563 1.491 . S
C2569 C2568 1.400 . S
C2569 C2570 1.398 . S
C2570 H2558 0.950 . S
C2570 C2569 1.398 . S
C2570 C2571 1.391 . S
C2571 H2559 0.950 . S
C2571 C2567 1.393 . S
C2571 C2570 1.391 . S
H2572 C2580 0.950 . S
H2573 C2585 0.950 . S
H2574 C2582 0.950 . S
H2575 C2584 0.950 . S
H2576 C2586 0.950 . S
H2577 C2588 0.950 . S
H2578 C2590 0.950 . S
H2579 C2591 0.950 . S
C2580 H2572 0.950 . S
C2580 C2581 1.386 . S
C2580 C2582 1.391 . S
C2581 C2580 1.386 . S
C2581 C2585 1.393 . S
C2582 H2574 0.950 . S
C2582 C2580 1.391 . S
C2582 C2583 1.400 . S
C2583 C2582 1.400 . S
C2583 C2584 1.398 . S
C2583 C2589 1.491 . S
C2584 H2575 0.950 . S
C2584 C2583 1.398 . S
C2584 C2585 1.391 . S
C2585 H2573 0.950 . S
C2585 C2581 1.393 . S
C2585 C2584 1.391 . S
C2586 H2576 0.950 . S
C2586 C2587 1.386 . S
C2586 C2588 1.391 . S
C2587 C2586 1.386 . S
C2587 C2591 1.393 . S
C2588 H2577 0.950 . S
C2588 C2586 1.391 . S
C2588 C2589 1.400 . S
C2589 C2583 1.491 . S
C2589 C2588 1.400 . S
C2589 C2590 1.398 . S
C2590 H2578 0.950 . S
C2590 C2589 1.398 . S
C2590 C2591 1.391 . S
C2591 H2579 0.950 . S
C2591 C2587 1.393 . S
C2591 C2590 1.391 . S
H2592 C2600 0.950 . S
H2593 C2605 0.950 . S
H2594 C2602 0.950 . S
H2595 C2604 0.950 . S
H2596 C2606 0.950 . S
H2597 C2608 0.950 . S
H2598 C2610 0.950 . S
H2599 C2611 0.950 . S
C2600 H2592 0.950 . S
C2600 C2601 1.386 . S
C2600 C2602 1.391 . S
C2601 C2600 1.386 . S
C2601 C2605 1.393 . S
C2602 H2594 0.950 . S
C2602 C2600 1.391 . S
C2602 C2603 1.400 . S
C2603 C2602 1.400 . S
C2603 C2604 1.398 . S
C2603 C2609 1.491 . S
C2604 H2595 0.950 . S
C2604 C2603 1.398 . S
C2604 C2605 1.391 . S
C2605 H2593 0.950 . S
C2605 C2601 1.393 . S
C2605 C2604 1.391 . S
C2606 H2596 0.950 . S
C2606 C2607 1.386 . S
C2606 C2608 1.391 . S
C2607 C2606 1.386 . S
C2607 C2611 1.393 . S
C2608 H2597 0.950 . S
C2608 C2606 1.391 . S
C2608 C2609 1.400 . S
C2609 C2603 1.491 . S
C2609 C2608 1.400 . S
C2609 C2610 1.398 . S
C2610 H2598 0.950 . S
C2610 C2609 1.398 . S
C2610 C2611 1.391 . S
C2611 H2599 0.950 . S
C2611 C2607 1.393 . S
C2611 C2610 1.391 . S
H2612 C2620 0.950 . S
H2613 C2625 0.950 . S
H2614 C2622 0.950 . S
H2615 C2624 0.950 . S
H2616 C2626 0.950 . S
H2617 C2628 0.950 . S
H2618 C2630 0.950 . S
H2619 C2631 0.950 . S
C2620 H2612 0.950 . S
C2620 C2621 1.386 . S
C2620 C2622 1.391 . S
C2621 C2620 1.386 . S
C2621 C2625 1.393 . S
C2622 H2614 0.950 . S
C2622 C2620 1.391 . S
C2622 C2623 1.400 . S
C2623 C2622 1.400 . S
C2623 C2624 1.398 . S
C2623 C2629 1.491 . S
C2624 H2615 0.950 . S
C2624 C2623 1.398 . S
C2624 C2625 1.391 . S
C2625 H2613 0.950 . S
C2625 C2621 1.393 . S
C2625 C2624 1.391 . S
C2626 H2616 0.950 . S
C2626 C2627 1.386 . S
C2626 C2628 1.391 . S
C2627 C2626 1.386 . S
C2627 C2631 1.393 . S
C2628 H2617 0.950 . S
C2628 C2626 1.391 . S
C2628 C2629 1.400 . S
C2629 C2623 1.491 . S
C2629 C2628 1.400 . S
C2629 C2630 1.398 . S
C2630 H2618 0.950 . S
C2630 C2629 1.398 . S
C2630 C2631 1.391 . S
C2631 H2619 0.950 . S
C2631 C2627 1.393 . S
C2631 C2630 1.391 . S
H2632 C2640 0.950 . S
H2633 C2645 0.950 . S
H2634 C2642 0.950 . S
H2635 C2644 0.950 . S
H2636 C2646 0.950 . S
H2637 C2648 0.950 . S
H2638 C2650 0.950 . S
H2639 C2651 0.950 . S
C2640 H2632 0.950 . S
C2640 C2641 1.386 . S
C2640 C2642 1.391 . S
C2641 C2640 1.386 . S
C2641 C2645 1.393 . S
C2642 H2634 0.950 . S
C2642 C2640 1.391 . S
C2642 C2643 1.400 . S
C2643 C2642 1.400 . S
C2643 C2644 1.398 . S
C2643 C2649 1.491 . S
C2644 H2635 0.950 . S
C2644 C2643 1.398 . S
C2644 C2645 1.391 . S
C2645 H2633 0.950 . S
C2645 C2641 1.393 . S
C2645 C2644 1.391 . S
C2646 H2636 0.950 . S
C2646 C2647 1.386 . S
C2646 C2648 1.391 . S
C2647 C2646 1.386 . S
C2647 C2651 1.393 . S
C2648 H2637 0.950 . S
C2648 C2646 1.391 . S
C2648 C2649 1.400 . S
C2649 C2643 1.491 . S
C2649 C2648 1.400 . S
C2649 C2650 1.398 . S
C2650 H2638 0.950 . S
C2650 C2649 1.398 . S
C2650 C2651 1.391 . S
C2651 H2639 0.950 . S
C2651 C2647 1.393 . S
C2651 C2650 1.391 . S
H2652 C2660 0.950 . S
H2653 C2665 0.950 . S
H2654 C2662 0.950 . S
H2655 C2664 0.950 . S
H2656 C2666 0.950 . S
H2657 C2668 0.950 . S
H2658 C2670 0.950 . S
H2659 C2671 0.950 1_556 S
C2660 H2652 0.950 . S
C2660 C2661 1.386 . S
C2660 C2662 1.391 . S
C2661 C2660 1.386 . S
C2661 C2665 1.393 . S
C2662 H2654 0.950 . S
C2662 C2660 1.391 . S
C2662 C2663 1.400 . S
C2663 C2662 1.400 . S
C2663 C2664 1.398 . S
C2663 C2669 1.491 . S
C2664 H2655 0.950 . S
C2664 C2663 1.398 . S
C2664 C2665 1.391 . S
C2665 H2653 0.950 . S
C2665 C2661 1.393 . S
C2665 C2664 1.391 . S
C2666 H2656 0.950 . S
C2666 C2667 1.386 . S
C2666 C2668 1.391 . S
C2667 C2666 1.386 . S
C2667 C2671 1.393 . S
C2668 H2657 0.950 . S
C2668 C2666 1.391 . S
C2668 C2669 1.400 . S
C2669 C2663 1.491 . S
C2669 C2668 1.400 . S
C2669 C2670 1.398 . S
C2670 H2658 0.950 . S
C2670 C2669 1.398 . S
C2670 C2671 1.391 . S
C2671 H2659 0.950 1_554 S
C2671 C2667 1.393 . S
C2671 C2670 1.391 . S
H2672 C2680 0.950 1_556 S
H2673 C2685 0.950 . S
H2674 C2682 0.950 . S
H2675 C2684 0.950 . S
H2676 C2686 0.950 . S
H2677 C2688 0.950 . S
H2678 C2690 0.950 . S
H2679 C2691 0.950 . S
C2680 H2672 0.950 1_554 S
C2680 C2681 1.386 . S
C2680 C2682 1.391 . S
C2681 C2680 1.386 . S
C2681 C2685 1.393 . S
C2682 H2674 0.950 . S
C2682 C2680 1.391 . S
C2682 C2683 1.400 . S
C2683 C2682 1.400 . S
C2683 C2684 1.398 . S
C2683 C2689 1.491 . S
C2684 H2675 0.950 . S
C2684 C2683 1.398 . S
C2684 C2685 1.391 . S
C2685 H2673 0.950 . S
C2685 C2681 1.393 . S
C2685 C2684 1.391 . S
C2686 H2676 0.950 . S
C2686 C2687 1.386 . S
C2686 C2688 1.391 . S
C2687 C2686 1.386 . S
C2687 C2691 1.393 . S
C2688 H2677 0.950 . S
C2688 C2686 1.391 . S
C2688 C2689 1.400 . S
C2689 C2683 1.491 . S
C2689 C2688 1.400 . S
C2689 C2690 1.398 . S
C2690 H2678 0.950 . S
C2690 C2689 1.398 . S
C2690 C2691 1.391 . S
C2691 H2679 0.950 . S
C2691 C2687 1.393 . S
C2691 C2690 1.391 . S
H2692 C2700 0.950 1_556 S
H2693 C2705 0.950 . S
H2694 C2702 0.950 . S
H2695 C2704 0.950 . S
H2696 C2706 0.950 . S
H2697 C2708 0.950 . S
H2698 C2710 0.950 . S
H2699 C2711 0.950 . S
C2700 H2692 0.950 1_554 S
C2700 C2701 1.386 . S
C2700 C2702 1.391 . S
C2701 C2700 1.386 . S
C2701 C2705 1.393 . S
C2702 H2694 0.950 . S
C2702 C2700 1.391 . S
C2702 C2703 1.400 . S
C2703 C2702 1.400 . S
C2703 C2704 1.398 . S
C2703 C2709 1.491 . S
C2704 H2695 0.950 . S
C2704 C2703 1.398 . S
C2704 C2705 1.391 . S
C2705 H2693 0.950 . S
C2705 C2701 1.393 . S
C2705 C2704 1.391 . S
C2706 H2696 0.950 . S
C2706 C2707 1.386 . S
C2706 C2708 1.391 . S
C2707 C2706 1.386 . S
C2707 C2711 1.393 . S
C2708 H2697 0.950 . S
C2708 C2706 1.391 . S
C2708 C2709 1.400 . S
C2709 C2703 1.491 . S
C2709 C2708 1.400 . S
C2709 C2710 1.398 . S
C2710 H2698 0.950 . S
C2710 C2709 1.398 . S
C2710 C2711 1.391 . S
C2711 H2699 0.950 . S
C2711 C2707 1.393 . S
C2711 C2710 1.391 . S
H2712 C2720 0.950 . S
H2713 C2725 0.950 . S
H2714 C2722 0.950 . S
H2715 C2724 0.950 . S
H2716 C2726 0.950 . S
H2717 C2728 0.950 . S
H2718 C2730 0.950 . S
H2719 C2731 0.950 . S
C2720 H2712 0.950 . S
C2720 C2721 1.386 . S
C2720 C2722 1.391 . S
C2721 C2720 1.386 . S
C2721 C2725 1.393 . S
C2722 H2714 0.950 . S
C2722 C2720 1.391 . S
C2722 C2723 1.400 . S
C2723 C2722 1.400 . S
C2723 C2724 1.398 . S
C2723 C2729 1.491 . S
C2724 H2715 0.950 . S
C2724 C2723 1.398 . S
C2724 C2725 1.391 . S
C2725 H2713 0.950 . S
C2725 C2721 1.393 . S
C2725 C2724 1.391 . S
C2726 H2716 0.950 . S
C2726 C2727 1.386 . S
C2726 C2728 1.391 . S
C2727 C2726 1.386 . S
C2727 C2731 1.393 . S
C2728 H2717 0.950 . S
C2728 C2726 1.391 . S
C2728 C2729 1.400 . S
C2729 C2723 1.491 . S
C2729 C2728 1.400 . S
C2729 C2730 1.398 . S
C2730 H2718 0.950 . S
C2730 C2729 1.398 . S
C2730 C2731 1.391 . S
C2731 H2719 0.950 . S
C2731 C2727 1.393 . S
C2731 C2730 1.391 . S
H2732 C2740 0.950 . S
H2733 C2745 0.950 . S
H2734 C2742 0.950 . S
H2735 C2744 0.950 . S
H2736 C2746 0.950 . S
H2737 C2748 0.950 . S
H2738 C2750 0.950 . S
H2739 C2751 0.950 . S
C2740 H2732 0.950 . S
C2740 C2741 1.386 . S
C2740 C2742 1.391 . S
C2741 C2740 1.386 . S
C2741 C2745 1.393 . S
C2742 H2734 0.950 . S
C2742 C2740 1.391 . S
C2742 C2743 1.400 . S
C2743 C2742 1.400 . S
C2743 C2744 1.398 . S
C2743 C2749 1.491 . S
C2744 H2735 0.950 . S
C2744 C2743 1.398 . S
C2744 C2745 1.391 . S
C2745 H2733 0.950 . S
C2745 C2741 1.393 . S
C2745 C2744 1.391 . S
C2746 H2736 0.950 . S
C2746 C2747 1.386 . S
C2746 C2748 1.391 . S
C2747 C2746 1.386 . S
C2747 C2751 1.393 . S
C2748 H2737 0.950 . S
C2748 C2746 1.391 . S
C2748 C2749 1.400 . S
C2749 C2743 1.491 . S
C2749 C2748 1.400 . S
C2749 C2750 1.398 . S
C2750 H2738 0.950 . S
C2750 C2749 1.398 . S
C2750 C2751 1.391 . S
C2751 H2739 0.950 . S
C2751 C2747 1.393 . S
C2751 C2750 1.391 . S
H2752 C2760 0.950 . S
H2753 C2765 0.950 . S
H2754 C2762 0.950 . S
H2755 C2764 0.950 . S
H2756 C2766 0.950 . S
H2757 C2768 0.950 . S
H2758 C2770 0.950 . S
H2759 C2771 0.950 . S
C2760 H2752 0.950 . S
C2760 C2761 1.386 . S
C2760 C2762 1.391 . S
C2761 C2760 1.386 . S
C2761 C2765 1.393 . S
C2762 H2754 0.950 . S
C2762 C2760 1.391 . S
C2762 C2763 1.400 . S
C2763 C2762 1.400 . S
C2763 C2764 1.398 . S
C2763 C2769 1.491 . S
C2764 H2755 0.950 . S
C2764 C2763 1.398 . S
C2764 C2765 1.391 . S
C2765 H2753 0.950 . S
C2765 C2761 1.393 . S
C2765 C2764 1.391 . S
C2766 H2756 0.950 . S
C2766 C2767 1.386 . S
C2766 C2768 1.391 . S
C2767 C2766 1.386 . S
C2767 C2771 1.393 . S
C2768 H2757 0.950 . S
C2768 C2766 1.391 . S
C2768 C2769 1.400 . S
C2769 C2763 1.491 . S
C2769 C2768 1.400 . S
C2769 C2770 1.398 . S
C2770 H2758 0.950 . S
C2770 C2769 1.398 . S
C2770 C2771 1.391 . S
C2771 H2759 0.950 . S
C2771 C2767 1.393 . S
C2771 C2770 1.391 . S
H2772 C2780 0.950 . S
H2773 C2785 0.950 . S
H2774 C2782 0.950 . S
H2775 C2784 0.950 . S
H2776 C2786 0.950 . S
H2777 C2788 0.950 . S
H2778 C2790 0.950 . S
H2779 C2791 0.950 . S
C2780 H2772 0.950 . S
C2780 C2781 1.386 . S
C2780 C2782 1.391 . S
C2781 C2780 1.386 . S
C2781 C2785 1.393 . S
C2782 H2774 0.950 . S
C2782 C2780 1.391 . S
C2782 C2783 1.400 . S
C2783 C2782 1.400 . S
C2783 C2784 1.398 . S
C2783 C2789 1.491 . S
C2784 H2775 0.950 . S
C2784 C2783 1.398 . S
C2784 C2785 1.391 . S
C2785 H2773 0.950 . S
C2785 C2781 1.393 . S
C2785 C2784 1.391 . S
C2786 H2776 0.950 . S
C2786 C2787 1.386 . S
C2786 C2788 1.391 . S
C2787 C2786 1.386 . S
C2787 C2791 1.393 . S
C2788 H2777 0.950 . S
C2788 C2786 1.391 . S
C2788 C2789 1.400 . S
C2789 C2783 1.491 . S
C2789 C2788 1.400 . S
C2789 C2790 1.398 . S
C2790 H2778 0.950 . S
C2790 C2789 1.398 . S
C2790 C2791 1.391 . S
C2791 H2779 0.950 . S
C2791 C2787 1.393 . S
C2791 C2790 1.391 . S
H2792 C2800 0.950 . S
H2793 C2805 0.950 . S
H2794 C2802 0.950 . S
H2795 C2804 0.950 . S
H2796 C2806 0.950 . S
H2797 C2808 0.950 . S
H2798 C2810 0.950 . S
H2799 C2811 0.950 . S
C2800 H2792 0.950 . S
C2800 C2801 1.386 . S
C2800 C2802 1.391 . S
C2801 C2800 1.386 . S
C2801 C2805 1.393 . S
C2802 H2794 0.950 . S
C2802 C2800 1.391 . S
C2802 C2803 1.400 . S
C2803 C2802 1.400 . S
C2803 C2804 1.398 . S
C2803 C2809 1.491 . S
C2804 H2795 0.950 . S
C2804 C2803 1.398 . S
C2804 C2805 1.391 . S
C2805 H2793 0.950 . S
C2805 C2801 1.393 . S
C2805 C2804 1.391 . S
C2806 H2796 0.950 . S
C2806 C2807 1.386 . S
C2806 C2808 1.391 . S
C2807 C2806 1.386 . S
C2807 C2811 1.393 . S
C2808 H2797 0.950 . S
C2808 C2806 1.391 . S
C2808 C2809 1.400 . S
C2809 C2803 1.491 . S
C2809 C2808 1.400 . S
C2809 C2810 1.398 . S
C2810 H2798 0.950 . S
C2810 C2809 1.398 . S
C2810 C2811 1.391 . S
C2811 H2799 0.950 . S
C2811 C2807 1.393 . S
C2811 C2810 1.391 . S
H2812 C2820 0.950 . S
H2813 C2825 0.950 . S
H2814 C2822 0.950 . S
H2815 C2824 0.950 . S
H2816 C2826 0.950 . S
H2817 C2828 0.950 . S
H2818 C2830 0.950 . S
H2819 C2831 0.950 . S
C2820 H2812 0.950 . S
C2820 C2821 1.386 . S
C2820 C2822 1.391 . S
C2821 C2820 1.386 . S
C2821 C2825 1.393 . S
C2822 H2814 0.950 . S
C2822 C2820 1.391 . S
C2822 C2823 1.400 . S
C2823 C2822 1.400 . S
C2823 C2824 1.398 . S
C2823 C2829 1.491 . S
C2824 H2815 0.950 . S
C2824 C2823 1.398 . S
C2824 C2825 1.391 . S
C2825 H2813 0.950 . S
C2825 C2821 1.393 . S
C2825 C2824 1.391 . S
C2826 H2816 0.950 . S
C2826 C2827 1.386 . S
C2826 C2828 1.391 . S
C2827 C2826 1.386 . S
C2827 C2831 1.393 . S
C2828 H2817 0.950 . S
C2828 C2826 1.391 . S
C2828 C2829 1.400 . S
C2829 C2823 1.491 . S
C2829 C2828 1.400 . S
C2829 C2830 1.398 . S
C2830 H2818 0.950 . S
C2830 C2829 1.398 . S
C2830 C2831 1.391 . S
C2831 H2819 0.950 . S
C2831 C2827 1.393 . S
C2831 C2830 1.391 . S
H2832 C2840 0.950 . S
H2833 C2845 0.950 . S
H2834 C2842 0.950 . S
H2835 C2844 0.950 . S
H2836 C2846 0.950 . S
H2837 C2848 0.950 . S
H2838 C2850 0.950 . S
H2839 C2851 0.950 . S
C2840 H2832 0.950 . S
C2840 C2841 1.386 . S
C2840 C2842 1.391 . S
C2841 C2840 1.386 . S
C2841 C2845 1.393 . S
C2842 H2834 0.950 . S
C2842 C2840 1.391 . S
C2842 C2843 1.400 . S
C2843 C2842 1.400 . S
C2843 C2844 1.398 . S
C2843 C2849 1.491 1_455 S
C2844 H2835 0.950 . S
C2844 C2843 1.398 . S
C2844 C2845 1.391 . S
C2845 H2833 0.950 . S
C2845 C2841 1.393 . S
C2845 C2844 1.391 . S
C2846 H2836 0.950 . S
C2846 C2847 1.386 . S
C2846 C2848 1.391 . S
C2847 C2846 1.386 . S
C2847 C2851 1.393 . S
C2848 H2837 0.950 . S
C2848 C2846 1.391 . S
C2848 C2849 1.400 . S
C2849 C2843 1.491 1_655 S
C2849 C2848 1.400 . S
C2849 C2850 1.398 . S
C2850 H2838 0.950 . S
C2850 C2849 1.398 . S
C2850 C2851 1.391 . S
C2851 H2839 0.950 . S
C2851 C2847 1.393 . S
C2851 C2850 1.391 . S
H2852 C2860 0.950 . S
H2853 C2865 0.950 . S
H2854 C2862 0.950 . S
H2855 C2864 0.950 . S
H2856 C2866 0.950 . S
H2857 C2868 0.950 . S
H2858 C2870 0.950 . S
H2859 C2871 0.950 . S
C2860 H2852 0.950 . S
C2860 C2861 1.386 . S
C2860 C2862 1.391 . S
C2861 C2860 1.386 . S
C2861 C2865 1.393 . S
C2862 H2854 0.950 . S
C2862 C2860 1.391 . S
C2862 C2863 1.400 . S
C2863 C2862 1.400 . S
C2863 C2864 1.398 . S
C2863 C2869 1.491 . S
C2864 H2855 0.950 . S
C2864 C2863 1.398 . S
C2864 C2865 1.391 . S
C2865 H2853 0.950 . S
C2865 C2861 1.393 . S
C2865 C2864 1.391 . S
C2866 H2856 0.950 . S
C2866 C2867 1.386 . S
C2866 C2868 1.391 . S
C2867 C2866 1.386 . S
C2867 C2871 1.393 . S
C2868 H2857 0.950 . S
C2868 C2866 1.391 . S
C2868 C2869 1.400 . S
C2869 C2863 1.491 . S
C2869 C2868 1.400 . S
C2869 C2870 1.398 . S
C2870 H2858 0.950 . S
C2870 C2869 1.398 . S
C2870 C2871 1.391 . S
C2871 H2859 0.950 . S
C2871 C2867 1.393 . S
C2871 C2870 1.391 . S
H2872 C2880 0.950 . S
H2873 C2885 0.950 . S
H2874 C2882 0.950 . S
H2875 C2884 0.950 . S
H2876 C2886 0.950 . S
H2877 C2888 0.950 . S
H2878 C2890 0.950 . S
H2879 C2891 0.950 . S
C2880 H2872 0.950 . S
C2880 C2881 1.386 . S
C2880 C2882 1.391 . S
C2881 C2880 1.386 . S
C2881 C2885 1.393 . S
C2882 H2874 0.950 . S
C2882 C2880 1.391 . S
C2882 C2883 1.400 . S
C2883 C2882 1.400 . S
C2883 C2884 1.398 . S
C2883 C2889 1.491 1_565 S
C2884 H2875 0.950 . S
C2884 C2883 1.398 . S
C2884 C2885 1.391 . S
C2885 H2873 0.950 . S
C2885 C2881 1.393 . S
C2885 C2884 1.391 . S
C2886 H2876 0.950 . S
C2886 C2887 1.386 . S
C2886 C2888 1.391 . S
C2887 C2886 1.386 . S
C2887 C2891 1.393 . S
C2888 H2877 0.950 . S
C2888 C2886 1.391 . S
C2888 C2889 1.400 . S
C2889 C2883 1.491 1_545 S
C2889 C2888 1.400 . S
C2889 C2890 1.398 . S
C2890 H2878 0.950 . S
C2890 C2889 1.398 . S
C2890 C2891 1.391 . S
C2891 H2879 0.950 . S
C2891 C2887 1.393 . S
C2891 C2890 1.391 . S
H2892 C2900 0.950 . S
H2893 C2905 0.950 . S
H2894 C2902 0.950 . S
H2895 C2904 0.950 . S
H2896 C2906 0.950 . S
H2897 C2908 0.950 . S
H2898 C2910 0.950 . S
H2899 C2911 0.950 . S
C2900 H2892 0.950 . S
C2900 C2901 1.386 . S
C2900 C2902 1.391 . S
C2901 C2900 1.386 . S
C2901 C2905 1.393 . S
C2902 H2894 0.950 . S
C2902 C2900 1.391 . S
C2902 C2903 1.400 . S
C2903 C2902 1.400 . S
C2903 C2904 1.398 . S
C2903 C2909 1.491 1_545 S
C2904 H2895 0.950 . S
C2904 C2903 1.398 . S
C2904 C2905 1.391 . S
C2905 H2893 0.950 . S
C2905 C2901 1.393 . S
C2905 C2904 1.391 . S
C2906 H2896 0.950 . S
C2906 C2907 1.386 . S
C2906 C2908 1.391 . S
C2907 C2906 1.386 . S
C2907 C2911 1.393 . S
C2908 H2897 0.950 . S
C2908 C2906 1.391 . S
C2908 C2909 1.400 . S
C2909 C2903 1.491 1_565 S
C2909 C2908 1.400 . S
C2909 C2910 1.398 . S
C2910 H2898 0.950 . S
C2910 C2909 1.398 . S
C2910 C2911 1.391 . S
C2911 H2899 0.950 . S
C2911 C2907 1.393 . S
C2911 C2910 1.391 . S
H2912 C2920 0.950 . S
H2913 C2925 0.950 . S
H2914 C2922 0.950 . S
H2915 C2924 0.950 . S
H2916 C2926 0.950 . S
H2917 C2928 0.950 . S
H2918 C2930 0.950 . S
H2919 C2931 0.950 . S
C2920 H2912 0.950 . S
C2920 C2921 1.386 . S
C2920 C2922 1.391 . S
C2921 C2920 1.386 . S
C2921 C2925 1.393 . S
C2922 H2914 0.950 . S
C2922 C2920 1.391 . S
C2922 C2923 1.400 . S
C2923 C2922 1.400 . S
C2923 C2924 1.398 . S
C2923 C2929 1.491 1_655 S
C2924 H2915 0.950 . S
C2924 C2923 1.398 . S
C2924 C2925 1.391 . S
C2925 H2913 0.950 . S
C2925 C2921 1.393 . S
C2925 C2924 1.391 . S
C2926 H2916 0.950 . S
C2926 C2927 1.386 . S
C2926 C2928 1.391 . S
C2927 C2926 1.386 . S
C2927 C2931 1.393 . S
C2928 H2917 0.950 . S
C2928 C2926 1.391 . S
C2928 C2929 1.400 . S
C2929 C2923 1.491 1_455 S
C2929 C2928 1.400 . S
C2929 C2930 1.398 . S
C2930 H2918 0.950 . S
C2930 C2929 1.398 . S
C2930 C2931 1.391 . S
C2931 H2919 0.950 . S
C2931 C2927 1.393 . S
C2931 C2930 1.391 . S
H2932 C2940 0.950 . S
H2933 C2945 0.950 . S
H2934 C2942 0.950 . S
H2935 C2944 0.950 . S
H2936 C2946 0.950 . S
H2937 C2948 0.950 . S
H2938 C2950 0.950 . S
H2939 C2951 0.950 . S
C2940 H2932 0.950 . S
C2940 C2941 1.386 . S
C2940 C2942 1.391 . S
C2941 C2940 1.386 . S
C2941 C2945 1.393 . S
C2942 H2934 0.950 . S
C2942 C2940 1.391 . S
C2942 C2943 1.400 . S
C2943 C2942 1.400 . S
C2943 C2944 1.398 . S
C2943 C2949 1.491 . S
C2944 H2935 0.950 . S
C2944 C2943 1.398 . S
C2944 C2945 1.391 . S
C2945 H2933 0.950 . S
C2945 C2941 1.393 . S
C2945 C2944 1.391 . S
C2946 H2936 0.950 . S
C2946 C2947 1.386 . S
C2946 C2948 1.391 . S
C2947 C2946 1.386 . S
C2947 C2951 1.393 . S
C2948 H2937 0.950 . S
C2948 C2946 1.391 . S
C2948 C2949 1.400 . S
C2949 C2943 1.491 . S
C2949 C2948 1.400 . S
C2949 C2950 1.398 . S
C2950 H2938 0.950 . S
C2950 C2949 1.398 . S
C2950 C2951 1.391 . S
C2951 H2939 0.950 . S
C2951 C2947 1.393 . S
C2951 C2950 1.391 . S
C801 C21 1.409 . S
C807 C659 1.397 . S
C821 C615 1.396 . S
C827 C37 1.410 . S
C841 C631 1.403 . S
C847 C65 1.379 . S
C861 C87 1.395 . S
C867 C301 1.380 . S
C881 C103 1.379 . S
C887 C323 1.398 . S
C901 C131 1.379 . S
C907 C279 1.400 . S
C921 C139 1.364 . S
C927 C527 1.388 . S
C941 C175 1.380 . S
C947 C469 1.367 . S
C961 C191 1.394 . S
C967 C491 1.365 . S
C981 C219 1.370 . S
C987 C703 1.398 . S
C1001 C227 1.369 . S
C1007 C725 1.378 . S
C1021 C675 1.392 . S
C1027 C263 1.364 . S
C1041 C565 1.381 . S
C1047 C345 1.409 . S
C1061 C367 1.393 . S
C1067 C587 1.411 . S
C1081 C543 1.404 . S
C1087 C395 1.380 . S
C1101 C411 1.392 . S
C1107 C777 1.387 . S
C1121 C433 1.398 . S
C1127 C747 1.369 . S
C1141 C769 1.377 . S
C1147 C455 1.398 . S
C1161 C10 1.427 . S
C1167 C7 1.440 . S
C1181 C40 1.405 . S
C1187 C43 1.445 . S
C1201 C51 1.454 . S
C1207 C54 1.409 . S
C1221 C73 1.445 . S
C1227 C76 1.404 . S
C1241 C109 1.442 . S
C1247 C106 1.409 . S
C1261 C120 1.405 . S
C1267 C117 1.445 . S
C1281 C153 1.462 . S
C1287 C142 1.417 . S
C1301 C172 1.429 . S
C1307 C169 1.463 . S
C1321 C183 1.450 . S
C1327 C184 1.428 . S
C1341 C216 1.437 . S
C1347 C213 1.451 . S
C1361 C241 1.460 . S
C1367 C230 1.415 . S
C1381 C257 1.451 . S
C1387 C260 1.438 . S
C1401 C282 1.414 . S
C1407 C285 1.453 . S
C1421 C304 1.421 . S
C1427 C307 1.450 . S
C1441 C329 1.447 . S
C1447 C326 1.424 . S
C1461 C351 1.440 1_556 S
C1467 C348 1.412 . S
C1481 C370 1.402 . S
C1487 C373 1.453 1_556 S
C1501 C384 1.427 . S
C1507 C381 1.441 1_556 S
C1521 C403 1.463 1_556 S
C1527 C404 1.428 . S
C1541 C425 1.453 1_556 S
C1547 C426 1.420 . S
C1561 C448 1.423 . S
C1567 C447 1.464 1_556 S
C1581 C472 1.438 . S
C1587 C483 1.458 . S
C1601 C494 1.435 . S
C1607 C505 1.461 . S
C1621 C521 1.450 . S
C1627 C524 1.436 . S
C1641 C549 1.454 1_554 S
C1647 C546 1.409 . S
C1661 C571 1.453 1_554 S
C1667 C568 1.414 . S
C1681 C590 1.405 . S
C1687 C593 1.445 1_554 S
C1701 C604 1.403 . S
C1707 C601 1.446 . S
C1721 C637 1.444 . S
C1727 C634 1.406 . S
C1741 C645 1.449 . S
C1747 C648 1.401 . S
C1761 C667 1.450 . S
C1767 C668 1.425 . S
C1781 C700 1.415 . S
C1787 C697 1.459 . S
C1801 C722 1.418 . S
C1807 C719 1.454 . S
C1821 C741 1.461 1_554 S
C1827 C744 1.415 . S
C1841 C766 1.439 . S
C1847 C763 1.455 1_554 S
C1861 C791 1.455 1_554 S
C1867 C780 1.416 . S
C1881 C337 1.138 . S
C1887 C15 1.133 . S
C1901 C359 1.136 . S
C1907 C29 1.141 . S
C1921 C389 1.138 . S
C1927 C59 1.132 . S
C1941 C81 1.137 . S
C1947 C535 1.133 . S
C1961 C557 1.135 . S
C1967 C95 1.131 . S
C1981 C579 1.133 . S
C1987 C125 1.131 . S
C2001 C147 1.140 . S
C2007 C733 1.141 . S
C2021 C755 1.141 . S
C2027 C161 1.140 . S
C2041 C785 1.137 . S
C2047 C197 1.137 . S
C2061 C417 1.142 . S
C2067 C205 1.140 . S
C2081 C235 1.148 . S
C2087 C439 1.148 . S
C2101 C249 1.145 . S
C2107 C461 1.144 . S
C2121 C271 1.143 . S
C2127 C609 1.140 . S
C2141 C293 1.141 . S
C2147 C623 1.138 . S
C2161 C315 1.135 . S
C2167 C653 1.140 . S
C2181 C477 1.145 . S
C2187 C681 1.144 . S
C2201 C499 1.146 . S
C2207 C689 1.145 . S
C2221 C513 1.142 . S
C2227 C711 1.144 . S
C2241 C252 1.434 . S
C2247 C18 1.455 . S
C2261 C30 1.455 . S
C2267 C208 1.436 . S
C2281 C228 1.446 . S
C2287 C62 1.445 . S
C2301 C84 1.452 . S
C2307 C164 1.439 . S
C2321 C96 1.442 . S
C2327 C194 1.449 . S
C2341 C140 1.438 . S
C2347 C128 1.453 . S
C2361 C272 1.442 . S
C2367 C516 1.450 . S
C2381 C294 1.442 . S
C2387 C470 1.450 . S
C2401 C492 1.442 . S
C2407 C316 1.450 . S
C2421 C436 1.447 . S
C2427 C338 1.445 . S
C2441 C360 1.455 . S
C2447 C458 1.435 . S
C2461 C414 1.450 . S
C2467 C392 1.442 . S
C2481 C778 1.443 . S
C2487 C536 1.448 . S
C2501 C558 1.455 . S
C2507 C736 1.435 . S
C2521 C580 1.447 . S
C2527 C758 1.445 . S
C2541 C612 1.452 . S
C2547 C692 1.438 . S
C2561 C714 1.449 . S
C2567 C624 1.443 . S
C2581 C678 1.440 . S
C2587 C656 1.450 . S
C2601 C646 1.112 . S
C2607 C8 1.118 . S
C2621 C32 1.114 . S
C2627 C602 1.115 . S
C2641 C626 1.118 . S
C2647 C52 1.110 . S
C2661 C296 1.121 . S
C2667 C74 1.106 . S
C2681 C98 1.100 . S
C2687 C318 1.115 . S
C2701 C118 1.102 . S
C2707 C274 1.113 . S
C2721 C514 1.101 . S
C2727 C150 1.108 . S
C2741 C162 1.113 . S
C2747 C480 1.107 . S
C2761 C186 1.106 . S
C2767 C502 1.102 . S
C2781 C690 1.110 . S
C2787 C206 1.111 . S
C2801 C238 1.112 . S
C2807 C712 1.106 . S
C2821 C250 1.110 . S
C2827 C670 1.110 . S
C2841 C340 1.113 . S
C2847 C560 1.115 . S
C2861 C582 1.101 . S
C2867 C362 1.116 . S
C2881 C382 1.120 . S
C2887 C538 1.106 . S
C2901 C788 1.105 . S
C2907 C406 1.113 . S
C2921 C734 1.104 . S
C2927 C428 1.103 . S
C2941 C756 1.113 . S
C2947 C450 1.108 . S
