# Generated by pormake.
# Topology hjm, (4)-cn, num edge types: 1
# Building blocks:
#     Node 0, Type 0, BuildingBlock: KUFVIS_clean_sbu_0, # of connection points: 4
#     Node 1, Type 0, BuildingBlock: KUFVIS_clean_sbu_0, # of connection points: 4
#     Node 2, Type 0, BuildingBlock: KUFVIS_clean_sbu_0, # of connection points: 4
#     Node 3, Type 0, BuildingBlock: KUFVIS_clean_sbu_0, # of connection points: 4
#     Node 4, Type 0, BuildingBlock: KUFVIS_clean_sbu_0, # of connection points: 4
#     Node 5, Type 0, BuildingBlock: KUFVIS_clean_sbu_0, # of connection points: 4
#     Node 6, Type 0, BuildingBlock: KUFVIS_clean_sbu_0, # of connection points: 4
#     Node 7, Type 0, BuildingBlock: KUFVIS_clean_sbu_0, # of connection points: 4
#     Edge 8, Type (0, 0), BuildingBlock: AJUNOK_clean_linker_0, # of connection points: 2
#     Edge 9, Type (0, 0), BuildingBlock: AJUNOK_clean_linker_0, # of connection points: 2
#     Edge 10, Type (0, 0), BuildingBlock: AJUNOK_clean_linker_0, # of connection points: 2
#     Edge 11, Type (0, 0), BuildingBlock: AJUNOK_clean_linker_0, # of connection points: 2
#     Edge 12, Type (0, 0), BuildingBlock: AJUNOK_clean_linker_0, # of connection points: 2
#     Edge 13, Type (0, 0), BuildingBlock: AJUNOK_clean_linker_0, # of connection points: 2
#     Edge 14, Type (0, 0), BuildingBlock: AJUNOK_clean_linker_0, # of connection points: 2
#     Edge 15, Type (0, 0), BuildingBlock: AJUNOK_clean_linker_0, # of connection points: 2
#     Edge 16, Type (0, 0), BuildingBlock: AJUNOK_clean_linker_0, # of connection points: 2
#     Edge 17, Type (0, 0), BuildingBlock: AJUNOK_clean_linker_0, # of connection points: 2
#     Edge 18, Type (0, 0), BuildingBlock: AJUNOK_clean_linker_0, # of connection points: 2
#     Edge 19, Type (0, 0), BuildingBlock: AJUNOK_clean_linker_0, # of connection points: 2
#     Edge 20, Type (0, 0), BuildingBlock: AJUNOK_clean_linker_0, # of connection points: 2
#     Edge 21, Type (0, 0), BuildingBlock: AJUNOK_clean_linker_0, # of connection points: 2
#     Edge 22, Type (0, 0), BuildingBlock: AJUNOK_clean_linker_0, # of connection points: 2
#     Edge 23, Type (0, 0), BuildingBlock: AJUNOK_clean_linker_0, # of connection points: 2
# Relax obj value: 0.063
# Max RMSD: 0.107
# Mean RMSD: 0.106
data_MOF--net-hjm--node1-KUFVIS_clean_sbu_0--edge1-AJUNOK_clean_linker_0
_symmetry_space_group_name_H-M    P1
_symmetry_Int_Tables_number       1
_symmetry_cell_setting            triclinic
loop_
_symmetry_equiv_pos_as_xyz
'x, y, z'
_cell_length_a     20.359152
_cell_length_b     17.667823
_cell_length_c     19.123645
_cell_angle_alpha  89.335428
_cell_angle_beta   56.25054
_cell_angle_gamma 89.83113
loop_
_atom_site_label
_atom_site_type_symbol
_atom_site_fract_x
_atom_site_fract_y
_atom_site_fract_z
_atom_type_partial_charge
Mn0 Mn 0.18878 0.24807 0.29926 0.0
Mn1 Mn 0.2653 0.41336 0.20836 0.0
C2 C 0.12336 0.3589 0.3778 0.0
C3 C 0.10393 0.13507 0.36136 0.0
C4 C 0.36965 0.30268 0.22532 0.0
O5 O 0.21349 0.24167 0.17372 0.0
O6 O 0.2582 0.35978 0.12053 0.0
C7 C 0.20698 0.51941 0.14109 0.0
N8 N 0.20205 0.49021 0.20957 0.0
C9 C 0.12714 0.59456 0.29073 0.0
C10 C 0.10723 0.60844 0.23214 0.0
C11 C 0.15529 0.57721 0.15206 0.0
C12 C 0.17905 0.53594 0.27404 0.0
H13 H 0.25429 0.50224 0.0792 0.0
C14 C 0.2276 0.29592 0.11948 0.0
O15 O 0.17658 0.1379 0.33712 0.0
O16 O 0.07986 0.19646 0.34438 0.0
N17 N 0.25706 0.46225 0.3015 0.0
C18 C 0.26391 0.42853 0.36187 0.0
C19 C 0.23307 0.46226 0.4391 0.0
C20 C 0.18894 0.52755 0.45722 0.0
C21 C 0.17646 0.55888 0.39836 0.0
C22 C 0.20835 0.52189 0.32256 0.0
H23 H 0.28587 0.37278 0.35615 0.0
O24 O 0.13069 0.29959 0.41344 0.0
O25 O 0.16679 0.3558 0.29575 0.0
O26 O 0.30671 0.26361 0.2773 0.0
O27 O 0.36099 0.35436 0.18484 0.0
C28 C 0.12479 0.61867 0.41625 0.0
C29 C 0.10001 0.63637 0.3633 0.0
H30 H 0.0622 0.64798 0.24399 0.0
H31 H 0.15588 0.59986 0.09909 0.0
H32 H 0.23822 0.43486 0.48678 0.0
H33 H 0.1604 0.54845 0.51933 0.0
H34 H 0.09887 0.64817 0.47279 0.0
H35 H 0.05633 0.67868 0.38259 0.0
Mn36 Mn 0.83218 0.25439 0.2121 0.0
Mn37 Mn 0.73741 0.4118 0.31467 0.0
C38 C 0.88407 0.37372 0.14188 0.0
C39 C 0.92115 0.14399 0.15935 0.0
C40 C 0.66269 0.30617 0.25294 0.0
O41 O 0.79272 0.2326 0.34038 0.0
O42 O 0.73934 0.34437 0.40105 0.0
C43 C 0.79008 0.49971 0.40121 0.0
N44 N 0.79552 0.48478 0.32909 0.0
C45 C 0.86708 0.59842 0.26642 0.0
C46 C 0.8803 0.60384 0.33049 0.0
C47 C 0.83378 0.55944 0.4032 0.0
C48 C 0.81921 0.53999 0.27168 0.0
H49 H 0.74805 0.46928 0.45732 0.0
C50 C 0.76889 0.27959 0.40194 0.0
O51 O 0.85088 0.14508 0.17576 0.0
O52 O 0.94117 0.20727 0.17683 0.0
N53 N 0.74395 0.47972 0.23232 0.0
C54 C 0.71686 0.47275 0.18162 0.0
C55 C 0.72977 0.53006 0.12548 0.0
C56 C 0.77405 0.59288 0.11837 0.0
C57 C 0.80882 0.59622 0.16371 0.0
C58 C 0.79074 0.53845 0.22167 0.0
H59 H 0.68696 0.42449 0.18075 0.0
O60 O 0.89133 0.31235 0.10158 0.0
O61 O 0.84058 0.36461 0.22348 0.0
O62 O 0.72567 0.26578 0.21117 0.0
O63 O 0.65714 0.34887 0.30937 0.0
C64 C 0.86258 0.65265 0.15238 0.0
C65 C 0.8961 0.6495 0.1996 0.0
H66 H 0.91936 0.64588 0.32824 0.0
H67 H 0.82967 0.57218 0.4606 0.0
H68 H 0.70718 0.52424 0.08645 0.0
H69 H 0.78163 0.63749 0.07679 0.0
H70 H 0.87957 0.69839 0.10787 0.0
H71 H 0.94548 0.68457 0.18249 0.0
Mn72 Mn 0.7823 0.74583 0.66075 0.0
Mn73 Mn 0.93059 0.73872 0.68136 0.0
C74 C 0.76516 0.784 0.7891 0.0
C75 C 0.66548 0.70143 0.68536 0.0
C76 C 0.92158 0.86266 0.57159 0.0
O77 O 0.8541 0.65534 0.57592 0.0
O78 O 0.94852 0.65828 0.60038 0.0
C79 C 0.86437 0.5964 0.77541 0.0
N80 N 0.90371 0.66253 0.76316 0.0
C81 C 0.89477 0.64659 0.89144 0.0
C82 C 0.86259 0.57428 0.90112 0.0
C83 C 0.84537 0.5495 0.84371 0.0
C84 C 0.90964 0.69078 0.82395 0.0
H85 H 0.84515 0.58128 0.73496 0.0
C86 C 0.91686 0.62613 0.56694 0.0
O87 O 0.70745 0.75011 0.6256 0.0
O88 O 0.69577 0.67192 0.72366 0.0
N89 N 0.92323 0.80764 0.7604 0.0
C90 C 0.92706 0.88451 0.75743 0.0
C91 C 0.92883 0.9228 0.81993 0.0
C92 C 0.92724 0.88105 0.88403 0.0
C93 C 0.92479 0.80234 0.88445 0.0
C94 C 0.92137 0.76754 0.82186 0.0
H95 H 0.92504 0.91621 0.7104 0.0
O96 O 0.72019 0.81243 0.76741 0.0
O97 O 0.81928 0.74096 0.73241 0.0
O98 O 0.85419 0.84013 0.58974 0.0
O99 O 0.95679 0.82512 0.59892 0.0
C100 C 0.91954 0.75719 0.9481 0.0
C101 C 0.90775 0.6787 0.94884 0.0
H102 H 0.84637 0.53918 0.95497 0.0
H103 H 0.81568 0.49591 0.85341 0.0
H104 H 0.92728 0.98379 0.82029 0.0
H105 H 0.9182 0.90821 0.93862 0.0
H106 H 0.92367 0.78222 0.99687 0.0
H107 H 0.90978 0.64258 0.99279 0.0
Mn108 Mn 0.22586 0.75284 0.85532 0.0
Mn109 Mn 0.08082 0.772 0.83407 0.0
C110 C 0.25182 0.77937 0.7163 0.0
C111 C 0.33081 0.69308 0.84238 0.0
C112 C 0.10188 0.8784 0.94547 0.0
O113 O 0.13801 0.67956 0.9528 0.0
O114 O 0.05683 0.67995 0.90842 0.0
C115 C 0.09639 0.6367 0.74231 0.0
N116 N 0.08973 0.71247 0.74942 0.0
C117 C 0.08695 0.72553 0.6274 0.0
C118 C 0.07625 0.64685 0.63063 0.0
C119 C 0.08485 0.60166 0.68551 0.0
C120 C 0.0913 0.75639 0.69078 0.0
H121 H 0.11643 0.60566 0.77519 0.0
C122 C 0.08009 0.64953 0.95237 0.0
O123 O 0.29615 0.74779 0.89485 0.0
O124 O 0.29709 0.66559 0.80709 0.0
N125 N 0.10619 0.85561 0.75817 0.0
C126 C 0.13702 0.92489 0.75474 0.0
C127 C 0.15053 0.97723 0.69232 0.0
C128 C 0.13678 0.95629 0.63101 0.0
C129 C 0.11363 0.88187 0.63071 0.0
C130 C 0.10055 0.83277 0.69493 0.0
H131 H 0.15372 0.93929 0.79738 0.0
O132 O 0.30011 0.80388 0.73514 0.0
O133 O 0.18983 0.75015 0.78164 0.0
O134 O 0.17175 0.85559 0.9167 0.0
O135 O 0.06038 0.84331 0.92524 0.0
C136 C 0.11011 0.85225 0.5653 0.0
C137 C 0.09455 0.77474 0.56495 0.0
H138 H 0.06246 0.61888 0.5918 0.0
H139 H 0.08563 0.54074 0.68201 0.0
H140 H 0.1747 0.03214 0.68934 0.0
H141 H 0.14979 -0.00423 0.58112 0.0
H142 H 0.12322 0.88755 0.51251 0.0
H143 H 0.08998 0.75567 0.51492 0.0
Mn144 Mn 0.67751 0.75558 0.30542 0.0
Mn145 Mn 0.75697 0.92143 0.20474 0.0
C146 C 0.62446 0.87005 0.38199 0.0
C147 C 0.5929 0.6423 0.37352 0.0
C148 C 0.85206 0.81596 0.23886 0.0
O149 O 0.70843 0.73896 0.17877 0.0
O150 O 0.76452 0.85226 0.1212 0.0
C151 C 0.6388 0.96293 0.17123 0.0
N152 N 0.68526 0.98291 0.19786 0.0
C153 C 0.61687 0.09953 0.25053 0.0
C154 C 0.57504 0.08398 0.21443 0.0
C155 C 0.58337 0.01426 0.1779 0.0
C156 C 0.6751 0.04852 0.23732 0.0
H157 H 0.64021 0.90604 0.15323 0.0
C158 C 0.73742 0.78852 0.11717 0.0
O159 O 0.66716 0.64554 0.34285 0.0
O160 O 0.56678 0.70319 0.35783 0.0
N161 N 0.74935 -0.00841 0.28116 0.0
C162 C 0.76824 0.98034 0.33825 0.0
C163 C 0.74879 0.03533 0.39763 0.0
C164 C 0.70996 0.10023 0.39698 0.0
C165 C 0.68451 0.1074 0.34359 0.0
C166 C 0.7075 0.05199 0.28387 0.0
H167 H 0.79424 0.92841 0.34119 0.0
O168 O 0.62832 0.80863 0.41741 0.0
O169 O 0.66158 0.86495 0.30027 0.0
O170 O 0.79239 0.77126 0.28131 0.0
O171 O 0.84735 0.87163 0.19999 0.0
C172 C 0.62891 0.16144 0.35515 0.0
C173 C 0.59246 0.15504 0.31156 0.0
H174 H 0.52974 0.12123 0.22266 0.0
H175 H 0.54121 -0.00132 0.16362 0.0
H176 H 0.76082 0.02604 0.44539 0.0
H177 H 0.69556 0.14342 0.44067 0.0
H178 H 0.60989 0.20593 0.40008 0.0
H179 H 0.54079 0.18895 0.33121 0.0
Mn180 Mn 0.30804 0.71186 0.20608 0.0
Mn181 Mn 0.23214 0.87627 0.30588 0.0
C182 C 0.34716 0.82828 0.13039 0.0
C183 C 0.40212 0.60314 0.13954 0.0
C184 C 0.1354 0.78235 0.26799 0.0
O185 O 0.28517 0.69613 0.33374 0.0
O186 O 0.23044 0.80811 0.38958 0.0
C187 C 0.36302 0.9091 0.32342 0.0
N188 N 0.3147 0.92944 0.29866 0.0
C189 C 0.36492 0.05378 0.26842 0.0
C190 C 0.39547 0.04053 0.3172 0.0
C191 C 0.39853 0.96601 0.34087 0.0
C192 C 0.32066 -0.00272 0.2647 0.0
H193 H 0.36995 0.85101 0.33512 0.0
C194 C 0.2619 0.74688 0.39302 0.0
O195 O 0.32887 0.6015 0.1653 0.0
O196 O 0.42181 0.66686 0.15634 0.0
N197 N 0.2337 0.95159 0.2332 0.0
C198 C 0.18965 0.95863 0.19991 0.0
C199 C 0.19801 0.0233 0.15319 0.0
C200 C 0.24961 0.08042 0.14345 0.0
C201 C 0.29122 0.07408 0.18148 0.0
C202 C 0.28117 0.00801 0.22631 0.0
H203 H 0.14837 0.91629 0.20857 0.0
O204 O 0.35359 0.76548 0.0927 0.0
O205 O 0.31758 0.81951 0.20969 0.0
O206 O 0.1931 0.73486 0.22596 0.0
O207 O 0.13833 0.82839 0.31666 0.0
C208 C 0.34085 0.13072 0.17894 0.0
C209 C 0.37577 0.12031 0.22448 0.0
H210 H 0.41813 0.08663 0.33415 0.0
H211 H 0.42525 0.95164 0.37404 0.0
H212 H 0.16573 0.0292 0.124 0.0
H213 H 0.25756 0.12803 0.10531 0.0
H214 H 0.34909 0.1839 0.14686 0.0
H215 H 0.41044 0.16279 0.22717 0.0
Mn216 Mn 0.27902 0.24554 0.65904 0.0
Mn217 Mn 0.4194 0.23866 0.69428 0.0
C218 C 0.25065 0.27793 0.79523 0.0
C219 C 0.16743 0.19137 0.67305 0.0
C220 C 0.41868 0.36246 0.57966 0.0
O221 O 0.35773 0.16375 0.56984 0.0
O222 O 0.43519 0.15449 0.61787 0.0
C223 C 0.35738 0.09797 0.79041 0.0
N224 N 0.392 0.16653 0.7793 0.0
C225 C 0.37806 0.15741 0.91099 0.0
C226 C 0.34771 0.08366 0.92103 0.0
C227 C 0.33668 0.05394 0.86085 0.0
C228 C 0.39528 0.19849 0.84054 0.0
H229 H 0.33885 0.08112 0.75006 0.0
C230 C 0.41084 0.1281 0.57451 0.0
O231 O 0.20621 0.24554 0.61892 0.0
O232 O 0.1972 0.16556 0.71313 0.0
N233 N 0.40664 0.31219 0.77262 0.0
C234 C 0.39862 0.3886 0.77194 0.0
C235 C 0.38853 0.43086 0.83864 0.0
C236 C 0.38753 0.39397 0.90474 0.0
C237 C 0.39644 0.31551 0.90335 0.0
C238 C 0.40292 0.2762 0.83719 0.0
H239 H 0.39551 0.41657 0.72358 0.0
O240 O 0.20928 0.30681 0.76914 0.0
O241 O 0.30926 0.23913 0.73789 0.0
O242 O 0.35169 0.34156 0.59394 0.0
O243 O 0.4528 0.32138 0.60618 0.0
C244 C 0.39313 0.2739 0.96806 0.0
C245 C 0.38402 0.1949 0.97153 0.0
H246 H 0.3251 0.0518 0.97812 0.0
H247 H 0.30794 -0.00038 0.87133 0.0
H248 H 0.37885 0.49127 0.84044 0.0
H249 H 0.37542 0.42572 0.9587 0.0
H250 H 0.39402 0.30214 0.01746 0.0
H251 H 0.37927 0.16421 0.02231 0.0
Mn252 Mn 0.7065 0.19509 0.8675 0.0
Mn253 Mn 0.55802 0.20202 0.84842 0.0
C254 C 0.72724 0.23484 0.73716 0.0
C255 C 0.82825 0.15525 0.83785 0.0
C256 C 0.57847 0.32438 0.94579 0.0
O257 O 0.63385 0.1043 0.94951 0.0
O258 O 0.52968 0.14252 0.94994 0.0
C259 C 0.58176 0.03986 0.79695 0.0
N260 N 0.56469 0.11289 0.7884 0.0
C261 C 0.57844 0.08283 0.6591 0.0
C262 C 0.59386 0.00748 0.66793 0.0
C263 C 0.59524 0.98572 0.73751 0.0
C264 C 0.56714 0.13458 0.71925 0.0
H265 H 0.59095 0.02297 0.84456 0.0
C266 C 0.56251 0.09314 0.96969 0.0
O267 O 0.7819 0.19771 0.90164 0.0
O268 O 0.79787 0.12485 0.80059 0.0
N269 N 0.57575 0.25703 0.75559 0.0
C270 C 0.59676 0.33074 0.7368 0.0
C271 C 0.61015 0.36122 0.66298 0.0
C272 C 0.60006 0.31602 0.60988 0.0
C273 C 0.58165 0.23941 0.62965 0.0
C274 C 0.57138 0.21131 0.703 0.0
H275 H 0.61328 0.36265 0.77199 0.0
O276 O 0.76736 0.26541 0.76359 0.0
O277 O 0.67087 0.19101 0.79284 0.0
O278 O 0.63224 0.28616 0.946 0.0
O279 O 0.54947 0.29883 0.90647 0.0
C280 C 0.58082 0.18867 0.57544 0.0
C281 C 0.58056 0.11003 0.58916 0.0
H282 H 0.60979 0.96702 0.61898 0.0
H283 H 0.61012 0.92815 0.7434 0.0
H284 H 0.63601 0.41653 0.6446 0.0
H285 H 0.61397 0.33829 0.55029 0.0
H286 H 0.58302 0.21024 0.52172 0.0
H287 H 0.58514 0.07107 0.54392 0.0
C288 C 0.0561 0.04196 0.48248 0.0
C289 C 0.0513 0.06927 0.41597 0.0
C290 C 0.01076 0.97946 0.53389 0.0
C291 C 0.96096 0.93613 0.51965 0.0
H292 H 0.09538 0.06975 0.49548 0.0
H293 H 0.01541 0.9654 0.58581 0.0
S294 S 0.92637 0.98499 0.35269 0.0
N295 N 0.99031 0.04986 0.33975 0.0
N296 N 0.90642 0.93225 0.43424 0.0
C297 C 0.95362 0.96491 0.4545 0.0
C298 C -0.00114 0.03034 0.403 0.0
C299 C 0.07192 0.9743 0.06481 0.0
C300 C 0.06783 0.95221 0.99596 0.0
C301 C 0.0279 0.03772 0.11719 0.0
C302 C 0.97745 0.08143 0.10326 0.0
H303 H 0.10704 0.94102 0.08007 0.0
H304 H 0.03106 0.05063 0.17034 0.0
S305 S 0.95795 0.0579 0.92476 0.0
N306 N 0.02134 -0.00771 0.91016 0.0
N307 N 0.93224 0.1001 0.01219 0.0
C308 C 0.97645 0.06141 0.03335 0.0
C309 C 0.02319 0.00053 0.979 0.0
C310 C 0.43297 0.48145 0.48984 0.0
C311 C 0.45857 0.43833 0.53291 0.0
C312 C 0.46978 0.55212 0.44718 0.0
C313 C 0.54276 0.57565 0.43162 0.0
H314 H 0.38398 0.45982 0.48874 0.0
H315 H 0.44386 0.58597 0.42108 0.0
S316 S 0.6021 0.51956 0.57353 0.0
N317 N 0.53299 0.45717 0.59531 0.0
N318 N 0.61954 0.56791 0.49117 0.0
C319 C 0.56455 0.53766 0.48072 0.0
C320 C 0.51932 0.47418 0.53551 0.0
C321 C 0.50066 0.49233 0.10846 0.0
C322 C 0.45926 0.53899 0.08491 0.0
C323 C 0.54197 0.4248 0.06381 0.0
C324 C 0.54658 0.40177 0.99041 0.0
H325 H 0.50322 0.51025 0.15997 0.0
H326 H 0.57097 0.39126 0.08649 0.0
S327 S 0.49947 0.53259 0.87185 0.0
N328 N 0.45582 0.5726 0.96481 0.0
N329 N 0.53879 0.45393 0.87839 0.0
C330 C 0.51907 0.45675 0.95836 0.0
C331 C 0.47448 0.52282 1.00549 0.0
C332 C 0.97593 0.48603 0.12313 0.0
C333 C 0.9367 0.44275 0.09458 0.0
C334 C 0.02328 0.55133 0.07784 0.0
C335 C 0.03817 0.57446 0.99914 0.0
H336 H 0.96826 0.4708 0.18224 0.0
H337 H 0.04538 0.58555 0.10665 0.0
S338 S 0.98562 0.4545 0.87747 0.0
N339 N 0.93454 0.41699 0.97261 0.0
N340 N 0.03172 0.52724 0.88453 0.0
C341 C 0.0093 0.52328 0.96542 0.0
C342 C 0.95748 0.4608 0.01317 0.0
C343 C 0.02299 0.46398 0.39862 0.0
C344 C 0.0597 0.41932 0.42981 0.0
C345 C 0.97378 0.52782 0.44341 0.0
C346 C 0.95491 0.54899 0.52387 0.0
H347 H 0.03669 0.45303 0.33627 0.0
H348 H 0.95785 0.56522 0.41057 0.0
S349 S 0.00714 0.42877 0.64865 0.0
N350 N 0.05336 0.38745 0.5565 0.0
N351 N 0.9625 0.50254 0.6396 0.0
C352 C 0.98229 0.49667 0.5597 0.0
C353 C 0.03256 0.43283 0.514 0.0
C354 C 0.44471 0.01159 1.00637 0.0
C355 C 0.51286 0.01995 1.00859 0.0
C356 C 0.39227 0.94911 0.04095 0.0
C357 C 0.40379 0.89186 0.08343 0.0
H358 H 0.4341 0.05291 0.97337 0.0
H359 H 0.34186 0.94637 0.03626 0.0
S360 S 0.5845 0.85836 0.07068 0.0
N361 N 0.60207 0.94268 0.02491 0.0
N362 N 0.49527 0.83232 0.10467 0.0
C363 C 0.4745 0.89301 0.07798 0.0
C364 C 0.53113 0.95442 0.03704 0.0
C365 C 0.5332 0.98048 0.40011 0.0
C366 C 0.56265 0.93114 0.43473 0.0
C367 C 0.47981 0.04086 0.44567 0.0
C368 C 0.44906 0.05293 0.53053 0.0
H369 H 0.54937 0.97018 0.33757 0.0
H370 H 0.46292 0.07913 0.41438 0.0
S371 S 0.46238 0.90796 0.66561 0.0
N372 N 0.52955 0.88088 0.56903 0.0
N373 N 0.42452 0.98636 0.65494 0.0
C374 C 0.46446 -0.00644 0.57033 0.0
C375 C 0.52181 0.93474 0.523 0.0
C376 C 0.28084 0.8191 0.4996 0.0
C377 C 0.2764 0.74761 0.46708 0.0
C378 C 0.28353 0.82877 0.57213 0.0
C379 C 0.27301 0.768 0.62531 0.0
H380 H 0.27503 0.87094 0.47377 0.0
H381 H 0.28556 0.88566 0.59117 0.0
S382 S 0.27343 0.56756 0.5709 0.0
N383 N 0.28129 0.61358 0.49086 0.0
N384 N 0.27142 0.63173 0.6337 0.0
C385 C 0.27492 0.69591 0.59233 0.0
C386 C 0.27926 0.6858 0.51345 0.0
C387 C 0.75836 0.85042 0.9099 0.0
C388 C 0.74545 0.78554 0.87812 0.0
C389 C 0.75716 0.84802 0.98466 0.0
C390 C 0.73662 0.78195 0.03695 0.0
H391 H 0.77211 0.90338 0.87543 0.0
H392 H 0.77013 0.90093 1.00256 0.0
S393 S 0.65138 0.6111 1.00349 0.0
N394 N 0.68709 0.66054 0.91581 0.0
N395 N 0.66993 0.66052 0.06356 0.0
C396 C 0.70872 0.72078 0.01272 0.0
C397 C 0.71605 0.72172 0.93249 0.0
C398 C 0.76595 0.18946 0.51716 0.0
C399 C 0.7761 0.26171 0.4786 0.0
C400 C 0.75197 0.17971 0.59895 0.0
C401 C 0.75212 0.24139 0.64545 0.0
H402 H 0.76855 0.13934 0.48568 0.0
H403 H 0.73995 0.12334 0.62626 0.0
S404 S 0.82051 0.43243 0.55732 0.0
N405 N 0.82188 0.3871 0.48168 0.0
N406 N 0.79008 0.37142 0.63476 0.0
C407 C 0.77874 0.30981 0.60101 0.0
C408 C 0.79235 0.3193 0.5184 0.0
C409 C 0.20744 0.21806 0.01445 0.0
C410 C 0.21212 0.28747 0.04812 0.0
C411 C 0.21504 0.21467 0.93532 0.0
C412 C 0.22625 0.2804 0.88644 0.0
H413 H 0.20066 0.16551 0.04659 0.0
H414 H 0.21421 0.15991 0.91127 0.0
S415 S 0.19188 0.47383 0.96804 0.0
N416 N 0.18836 0.42126 0.04187 0.0
N417 N 0.20907 0.41509 0.89369 0.0
C418 C 0.21297 0.34867 0.92764 0.0
C419 C 0.20421 0.35202 1.00794 0.0
C420 C 0.51802 0.25679 0.17549 0.0
C421 C 0.44866 0.30243 0.2258 0.0
C422 C 0.58691 0.2591 0.18082 0.0
C423 C 0.59277 0.30681 0.23712 0.0
H424 H 0.52058 0.21919 0.12976 0.0
H425 H 0.63606 0.22235 0.14028 0.0
S426 S 0.47006 0.47896 0.31061 0.0
N427 N 0.42193 0.42481 0.28552 0.0
N428 N 0.54193 0.42779 0.30164 0.0
C429 C 0.53231 0.36246 0.27208 0.0
C430 C 0.46405 0.36066 0.2647 0.0
C431 C 0.52949 0.69907 0.81058 0.0
C432 C 0.58081 0.6951 0.7227 0.0
C433 C 0.44776 0.69513 0.84983 0.0
C434 C 0.41548 0.6847 0.80238 0.0
H435 H 0.55252 0.70572 0.84945 0.0
H436 H 0.40967 0.70022 0.9176 0.0
S437 S 0.52152 0.70696 0.57209 0.0
N438 N 0.59227 0.70697 0.58981 0.0
N439 N 0.43843 0.6925 0.66381 0.0
C440 C 0.46574 0.68781 0.71434 0.0
C441 C 0.54869 0.69537 0.67435 0.0
C442 C 0.07147 0.80269 0.18149 0.0
C443 C 0.06263 0.78831 0.25983 0.0
C444 C 0.00531 0.8147 0.17424 0.0
C445 C 0.92537 0.80967 0.24415 0.0
H446 H 0.13047 0.80617 0.12491 0.0
H447 H 0.01671 0.82374 0.11251 0.0
S448 S 0.86494 0.76164 0.45824 0.0
N449 N 0.96176 0.76831 0.40845 0.0
N450 N 0.84256 0.78198 0.39053 0.0
C451 C 0.91583 0.79334 0.32073 0.0
C452 C 0.98224 0.78489 0.32963 0.0
C453 C 0.05075 0.14311 0.67216 0.0
C454 C 0.08214 0.18072 0.71156 0.0
C455 C 0.96842 0.13142 0.71463 0.0
C456 C 0.9153 0.15895 0.79687 0.0
H457 H 0.08993 0.12218 0.60915 0.0
H458 H 0.94631 0.10218 0.68221 0.0
S459 S 0.97177 0.258 0.92549 0.0
N460 N 0.05617 0.24164 0.83658 0.0
N461 N 0.90237 0.22612 0.91407 0.0
C462 C 0.94715 0.19868 0.83475 0.0
C463 C 0.0303 0.20752 0.79289 0.0
loop_
_geom_bond_atom_site_label_1
_geom_bond_atom_site_label_2
_geom_bond_distance
_geom_bond_site_symmetry_2
_ccdc_geom_bond_type
Mn0 O5 2.095 . S
Mn0 O15 2.162 . S
Mn0 O16 2.297 . S
Mn0 O24 2.385 . S
Mn0 O25 2.209 . S
Mn0 O26 2.094 . S
Mn1 O6 2.121 . S
Mn1 N8 2.257 . S
Mn1 N17 2.282 . S
Mn1 O25 2.215 . S
Mn1 O27 2.117 . S
C2 O24 1.234 . S
C2 O25 1.283 . S
C3 O15 1.281 . S
C3 O16 1.236 . S
C4 O26 1.240 . S
C4 O27 1.264 . S
O5 Mn0 2.095 . S
O5 C14 1.250 . S
O6 Mn1 2.121 . S
O6 C14 1.258 . S
C7 N8 1.326 . S
C7 C11 1.460 . S
C7 H13 0.929 . S
N8 Mn1 2.257 . S
N8 C7 1.326 . S
N8 C12 1.362 . S
C9 C10 1.258 . S
C9 C12 1.431 . S
C9 C29 1.449 . S
C10 C9 1.258 . S
C10 C11 1.477 . S
C10 H30 0.931 . S
C11 C7 1.460 . S
C11 C10 1.477 . S
C11 H31 0.930 . S
C12 N8 1.362 . S
C12 C9 1.431 . S
C12 C22 1.476 . S
H13 C7 0.929 . S
C14 O5 1.250 . S
C14 O6 1.258 . S
O15 Mn0 2.162 . S
O15 C3 1.281 . S
O16 Mn0 2.297 . S
O16 C3 1.236 . S
N17 Mn1 2.282 . S
N17 C18 1.328 . S
N17 C22 1.318 . S
C18 N17 1.328 . S
C18 C19 1.457 . S
C18 H23 0.929 . S
C19 C18 1.457 . S
C19 C20 1.291 . S
C19 H32 0.931 . S
C20 C19 1.291 . S
C20 C21 1.373 . S
C20 H33 0.929 . S
C21 C20 1.373 . S
C21 C22 1.396 . S
C21 C28 1.403 . S
C22 C12 1.476 . S
C22 N17 1.318 . S
C22 C21 1.396 . S
H23 C18 0.929 . S
O24 Mn0 2.385 . S
O24 C2 1.234 . S
O25 Mn0 2.209 . S
O25 Mn1 2.215 . S
O25 C2 1.283 . S
O26 Mn0 2.094 . S
O26 C4 1.240 . S
O27 Mn1 2.117 . S
O27 C4 1.264 . S
C28 C21 1.403 . S
C28 C29 1.399 . S
C28 H34 0.929 . S
C29 C9 1.449 . S
C29 C28 1.399 . S
C29 H35 0.930 . S
H30 C10 0.931 . S
H31 C11 0.930 . S
H32 C19 0.931 . S
H33 C20 0.929 . S
H34 C28 0.929 . S
H35 C29 0.930 . S
Mn36 O41 2.095 . S
Mn36 O51 2.162 . S
Mn36 O52 2.297 . S
Mn36 O60 2.385 . S
Mn36 O61 2.209 . S
Mn36 O62 2.094 . S
Mn37 O42 2.121 . S
Mn37 N44 2.257 . S
Mn37 N53 2.282 . S
Mn37 O61 2.215 . S
Mn37 O63 2.117 . S
C38 O60 1.234 . S
C38 O61 1.283 . S
C39 O51 1.281 . S
C39 O52 1.236 . S
C40 O62 1.240 . S
C40 O63 1.264 . S
O41 Mn36 2.095 . S
O41 C50 1.250 . S
O42 Mn37 2.121 . S
O42 C50 1.258 . S
C43 N44 1.326 . S
C43 C47 1.460 . S
C43 H49 0.929 . S
N44 Mn37 2.257 . S
N44 C43 1.326 . S
N44 C48 1.362 . S
C45 C46 1.258 . S
C45 C48 1.431 . S
C45 C65 1.449 . S
C46 C45 1.258 . S
C46 C47 1.477 . S
C46 H66 0.931 . S
C47 C43 1.460 . S
C47 C46 1.477 . S
C47 H67 0.930 . S
C48 N44 1.362 . S
C48 C45 1.431 . S
C48 C58 1.476 . S
H49 C43 0.929 . S
C50 O41 1.250 . S
C50 O42 1.258 . S
O51 Mn36 2.162 . S
O51 C39 1.281 . S
O52 Mn36 2.297 . S
O52 C39 1.236 . S
N53 Mn37 2.282 . S
N53 C54 1.328 . S
N53 C58 1.318 . S
C54 N53 1.328 . S
C54 C55 1.457 . S
C54 H59 0.929 . S
C55 C54 1.457 . S
C55 C56 1.291 . S
C55 H68 0.931 . S
C56 C55 1.291 . S
C56 C57 1.373 . S
C56 H69 0.929 . S
C57 C56 1.373 . S
C57 C58 1.396 . S
C57 C64 1.403 . S
C58 C48 1.476 . S
C58 N53 1.318 . S
C58 C57 1.396 . S
H59 C54 0.929 . S
O60 Mn36 2.385 . S
O60 C38 1.234 . S
O61 Mn36 2.209 . S
O61 Mn37 2.215 . S
O61 C38 1.283 . S
O62 Mn36 2.094 . S
O62 C40 1.240 . S
O63 Mn37 2.117 . S
O63 C40 1.264 . S
C64 C57 1.403 . S
C64 C65 1.399 . S
C64 H70 0.929 . S
C65 C45 1.449 . S
C65 C64 1.399 . S
C65 H71 0.930 . S
H66 C46 0.931 . S
H67 C47 0.930 . S
H68 C55 0.931 . S
H69 C56 0.929 . S
H70 C64 0.929 . S
H71 C65 0.930 . S
Mn72 O77 2.095 . S
Mn72 O87 2.162 . S
Mn72 O88 2.297 . S
Mn72 O96 2.385 . S
Mn72 O97 2.209 . S
Mn72 O98 2.094 . S
Mn73 O78 2.121 . S
Mn73 N80 2.257 . S
Mn73 N89 2.282 . S
Mn73 O97 2.215 . S
Mn73 O99 2.117 . S
C74 O96 1.234 . S
C74 O97 1.283 . S
C75 O87 1.281 . S
C75 O88 1.236 . S
C76 O98 1.240 . S
C76 O99 1.264 . S
O77 Mn72 2.095 . S
O77 C86 1.250 . S
O78 Mn73 2.121 . S
O78 C86 1.258 . S
C79 N80 1.326 . S
C79 C83 1.460 . S
C79 H85 0.929 . S
N80 Mn73 2.257 . S
N80 C79 1.326 . S
N80 C84 1.362 . S
C81 C82 1.258 1_655 S
C81 C84 1.431 . S
C81 C101 1.449 . S
C82 C81 1.258 1_455 S
C82 C83 1.477 1_455 S
C82 H102 0.931 . S
C83 C79 1.460 . S
C83 C82 1.477 1_655 S
C83 H103 0.930 . S
C84 N80 1.362 . S
C84 C81 1.431 . S
C84 C94 1.476 . S
H85 C79 0.929 . S
C86 O77 1.250 . S
C86 O78 1.258 . S
O87 Mn72 2.162 . S
O87 C75 1.281 . S
O88 Mn72 2.297 . S
O88 C75 1.236 . S
N89 Mn73 2.282 . S
N89 C90 1.328 . S
N89 C94 1.318 . S
C90 N89 1.328 . S
C90 C91 1.457 . S
C90 H95 0.929 . S
C91 C90 1.457 . S
C91 C92 1.291 . S
C91 H104 0.931 . S
C92 C91 1.291 . S
C92 C93 1.373 . S
C92 H105 0.929 . S
C93 C92 1.373 . S
C93 C94 1.396 . S
C93 C100 1.403 . S
C94 C84 1.476 . S
C94 N89 1.318 . S
C94 C93 1.396 . S
H95 C90 0.929 . S
O96 Mn72 2.385 . S
O96 C74 1.234 . S
O97 Mn72 2.209 . S
O97 Mn73 2.215 . S
O97 C74 1.283 . S
O98 Mn72 2.094 . S
O98 C76 1.240 . S
O99 Mn73 2.117 . S
O99 C76 1.264 . S
C100 C93 1.403 . S
C100 C101 1.399 . S
C100 H106 0.929 . S
C101 C81 1.449 . S
C101 C100 1.399 . S
C101 H107 0.930 1_655 S
H102 C82 0.931 . S
H103 C83 0.930 . S
H104 C91 0.931 . S
H105 C92 0.929 . S
H106 C100 0.929 . S
H107 C101 0.930 1_455 S
Mn108 O113 2.095 . S
Mn108 O123 2.162 . S
Mn108 O124 2.297 . S
Mn108 O132 2.385 . S
Mn108 O133 2.209 . S
Mn108 O134 2.094 . S
Mn109 O114 2.121 . S
Mn109 N116 2.257 . S
Mn109 N125 2.282 . S
Mn109 O133 2.215 . S
Mn109 O135 2.117 . S
C110 O132 1.234 . S
C110 O133 1.283 . S
C111 O123 1.281 . S
C111 O124 1.236 . S
C112 O134 1.240 . S
C112 O135 1.264 . S
O113 Mn108 2.095 . S
O113 C122 1.250 . S
O114 Mn109 2.121 . S
O114 C122 1.258 . S
C115 N116 1.326 . S
C115 C119 1.460 . S
C115 H121 0.929 . S
N116 Mn109 2.257 . S
N116 C115 1.326 . S
N116 C120 1.362 . S
C117 C118 1.258 1_455 S
C117 C120 1.431 . S
C117 C137 1.449 . S
C118 C117 1.258 1_655 S
C118 C119 1.477 1_655 S
C118 H138 0.931 . S
C119 C115 1.460 . S
C119 C118 1.477 1_455 S
C119 H139 0.930 . S
C120 N116 1.362 . S
C120 C117 1.431 . S
C120 C130 1.476 . S
H121 C115 0.929 . S
C122 O113 1.250 . S
C122 O114 1.258 . S
O123 Mn108 2.162 . S
O123 C111 1.281 . S
O124 Mn108 2.297 . S
O124 C111 1.236 . S
N125 Mn109 2.282 . S
N125 C126 1.328 . S
N125 C130 1.318 . S
C126 N125 1.328 . S
C126 C127 1.457 . S
C126 H131 0.929 . S
C127 C126 1.457 . S
C127 C128 1.291 . S
C127 H140 0.931 . S
C128 C127 1.291 . S
C128 C129 1.373 . S
C128 H141 0.929 . S
C129 C128 1.373 . S
C129 C130 1.396 . S
C129 C136 1.403 . S
C130 C120 1.476 . S
C130 N125 1.318 . S
C130 C129 1.396 . S
H131 C126 0.929 . S
O132 Mn108 2.385 . S
O132 C110 1.234 . S
O133 Mn108 2.209 . S
O133 Mn109 2.215 . S
O133 C110 1.283 . S
O134 Mn108 2.094 . S
O134 C112 1.240 . S
O135 Mn109 2.117 . S
O135 C112 1.264 . S
C136 C129 1.403 . S
C136 C137 1.399 . S
C136 H142 0.929 . S
C137 C117 1.449 . S
C137 C136 1.399 . S
C137 H143 0.930 1_455 S
H138 C118 0.931 . S
H139 C119 0.930 . S
H140 C127 0.931 . S
H141 C128 0.929 . S
H142 C136 0.929 . S
H143 C137 0.930 1_655 S
Mn144 O149 2.095 . S
Mn144 O159 2.162 . S
Mn144 O160 2.297 . S
Mn144 O168 2.385 . S
Mn144 O169 2.209 . S
Mn144 O170 2.094 . S
Mn145 O150 2.121 . S
Mn145 N152 2.257 1_565 S
Mn145 N161 2.282 1_565 S
Mn145 O169 2.215 . S
Mn145 O171 2.117 . S
C146 O168 1.234 . S
C146 O169 1.283 . S
C147 O159 1.281 . S
C147 O160 1.236 . S
C148 O170 1.240 . S
C148 O171 1.264 . S
O149 Mn144 2.095 . S
O149 C158 1.250 . S
O150 Mn145 2.121 . S
O150 C158 1.258 . S
C151 N152 1.326 . S
C151 C155 1.460 . S
C151 H157 0.929 1_545 S
N152 Mn145 2.257 1_545 S
N152 C151 1.326 . S
N152 C156 1.362 . S
C153 C154 1.258 . S
C153 C156 1.431 . S
C153 C173 1.449 . S
C154 C153 1.258 . S
C154 C155 1.477 . S
C154 H174 0.931 . S
C155 C151 1.460 . S
C155 C154 1.477 . S
C155 H175 0.930 . S
C156 N152 1.362 . S
C156 C153 1.431 . S
C156 C166 1.476 . S
H157 C151 0.929 1_565 S
C158 O149 1.250 . S
C158 O150 1.258 . S
O159 Mn144 2.162 . S
O159 C147 1.281 . S
O160 Mn144 2.297 . S
O160 C147 1.236 . S
N161 Mn145 2.282 1_545 S
N161 C162 1.328 . S
N161 C166 1.318 . S
C162 N161 1.328 . S
C162 C163 1.457 . S
C162 H167 0.929 1_545 S
C163 C162 1.457 . S
C163 C164 1.291 . S
C163 H176 0.931 . S
C164 C163 1.291 . S
C164 C165 1.373 . S
C164 H177 0.929 . S
C165 C164 1.373 . S
C165 C166 1.396 . S
C165 C172 1.403 . S
C166 C156 1.476 . S
C166 N161 1.318 . S
C166 C165 1.396 . S
H167 C162 0.929 1_565 S
O168 Mn144 2.385 . S
O168 C146 1.234 . S
O169 Mn144 2.209 . S
O169 Mn145 2.215 . S
O169 C146 1.283 . S
O170 Mn144 2.094 . S
O170 C148 1.240 . S
O171 Mn145 2.117 . S
O171 C148 1.264 . S
C172 C165 1.403 . S
C172 C173 1.399 . S
C172 H178 0.929 . S
C173 C153 1.449 . S
C173 C172 1.399 . S
C173 H179 0.930 . S
H174 C154 0.931 . S
H175 C155 0.930 . S
H176 C163 0.931 . S
H177 C164 0.929 . S
H178 C172 0.929 . S
H179 C173 0.930 . S
Mn180 O185 2.095 . S
Mn180 O195 2.162 . S
Mn180 O196 2.297 . S
Mn180 O204 2.385 . S
Mn180 O205 2.209 . S
Mn180 O206 2.094 . S
Mn181 O186 2.121 . S
Mn181 N188 2.257 1_565 S
Mn181 N197 2.282 1_565 S
Mn181 O205 2.215 . S
Mn181 O207 2.117 . S
C182 O204 1.234 . S
C182 O205 1.283 . S
C183 O195 1.281 . S
C183 O196 1.236 . S
C184 O206 1.240 . S
C184 O207 1.264 . S
O185 Mn180 2.095 . S
O185 C194 1.250 . S
O186 Mn181 2.121 . S
O186 C194 1.258 . S
C187 N188 1.326 . S
C187 C191 1.460 . S
C187 H193 0.929 1_545 S
N188 Mn181 2.257 1_545 S
N188 C187 1.326 . S
N188 C192 1.362 . S
C189 C190 1.258 . S
C189 C192 1.431 . S
C189 C209 1.449 . S
C190 C189 1.258 . S
C190 C191 1.477 . S
C190 H210 0.931 . S
C191 C187 1.460 . S
C191 C190 1.477 . S
C191 H211 0.930 . S
C192 N188 1.362 . S
C192 C189 1.431 . S
C192 C202 1.476 . S
H193 C187 0.929 1_565 S
C194 O185 1.250 . S
C194 O186 1.258 . S
O195 Mn180 2.162 . S
O195 C183 1.281 . S
O196 Mn180 2.297 . S
O196 C183 1.236 . S
N197 Mn181 2.282 1_545 S
N197 C198 1.328 . S
N197 C202 1.318 . S
C198 N197 1.328 . S
C198 C199 1.457 . S
C198 H203 0.929 1_545 S
C199 C198 1.457 . S
C199 C200 1.291 . S
C199 H212 0.931 . S
C200 C199 1.291 . S
C200 C201 1.373 . S
C200 H213 0.929 . S
C201 C200 1.373 . S
C201 C202 1.396 . S
C201 C208 1.403 . S
C202 C192 1.476 . S
C202 N197 1.318 . S
C202 C201 1.396 . S
H203 C198 0.929 1_565 S
O204 Mn180 2.385 . S
O204 C182 1.234 . S
O205 Mn180 2.209 . S
O205 Mn181 2.215 . S
O205 C182 1.283 . S
O206 Mn180 2.094 . S
O206 C184 1.240 . S
O207 Mn181 2.117 . S
O207 C184 1.264 . S
C208 C201 1.403 . S
C208 C209 1.399 . S
C208 H214 0.929 . S
C209 C189 1.449 . S
C209 C208 1.399 . S
C209 H215 0.930 . S
H210 C190 0.931 . S
H211 C191 0.930 . S
H212 C199 0.931 . S
H213 C200 0.929 . S
H214 C208 0.929 . S
H215 C209 0.930 . S
Mn216 O221 2.095 . S
Mn216 O231 2.162 . S
Mn216 O232 2.297 . S
Mn216 O240 2.385 . S
Mn216 O241 2.209 . S
Mn216 O242 2.094 . S
Mn217 O222 2.121 . S
Mn217 N224 2.257 . S
Mn217 N233 2.282 . S
Mn217 O241 2.215 . S
Mn217 O243 2.117 . S
C218 O240 1.234 . S
C218 O241 1.283 . S
C219 O231 1.281 . S
C219 O232 1.236 . S
C220 O242 1.240 . S
C220 O243 1.264 . S
O221 Mn216 2.095 . S
O221 C230 1.250 . S
O222 Mn217 2.121 . S
O222 C230 1.258 . S
C223 N224 1.326 . S
C223 C227 1.460 . S
C223 H229 0.929 . S
N224 Mn217 2.257 . S
N224 C223 1.326 . S
N224 C228 1.362 . S
C225 C226 1.258 . S
C225 C228 1.431 . S
C225 C245 1.449 . S
C226 C225 1.258 . S
C226 C227 1.477 . S
C226 H246 0.931 . S
C227 C223 1.460 . S
C227 C226 1.477 . S
C227 H247 0.930 1_545 S
C228 N224 1.362 . S
C228 C225 1.431 . S
C228 C238 1.476 . S
H229 C223 0.929 . S
C230 O221 1.250 . S
C230 O222 1.258 . S
O231 Mn216 2.162 . S
O231 C219 1.281 . S
O232 Mn216 2.297 . S
O232 C219 1.236 . S
N233 Mn217 2.282 . S
N233 C234 1.328 . S
N233 C238 1.318 . S
C234 N233 1.328 . S
C234 C235 1.457 . S
C234 H239 0.929 . S
C235 C234 1.457 . S
C235 C236 1.291 . S
C235 H248 0.931 . S
C236 C235 1.291 . S
C236 C237 1.373 . S
C236 H249 0.929 . S
C237 C236 1.373 . S
C237 C238 1.396 . S
C237 C244 1.403 . S
C238 C228 1.476 . S
C238 N233 1.318 . S
C238 C237 1.396 . S
H239 C234 0.929 . S
O240 Mn216 2.385 . S
O240 C218 1.234 . S
O241 Mn216 2.209 . S
O241 Mn217 2.215 . S
O241 C218 1.283 . S
O242 Mn216 2.094 . S
O242 C220 1.240 . S
O243 Mn217 2.117 . S
O243 C220 1.264 . S
C244 C237 1.403 . S
C244 C245 1.399 . S
C244 H250 0.929 . S
C245 C225 1.449 . S
C245 C244 1.399 . S
C245 H251 0.930 . S
H246 C226 0.931 . S
H247 C227 0.930 1_565 S
H248 C235 0.931 . S
H249 C236 0.929 . S
H250 C244 0.929 . S
H251 C245 0.930 . S
Mn252 O257 2.095 . S
Mn252 O267 2.162 . S
Mn252 O268 2.297 . S
Mn252 O276 2.385 . S
Mn252 O277 2.209 . S
Mn252 O278 2.094 . S
Mn253 O258 2.121 . S
Mn253 N260 2.257 . S
Mn253 N269 2.282 . S
Mn253 O277 2.215 . S
Mn253 O279 2.117 . S
C254 O276 1.234 . S
C254 O277 1.283 . S
C255 O267 1.281 . S
C255 O268 1.236 . S
C256 O278 1.240 . S
C256 O279 1.264 . S
O257 Mn252 2.095 . S
O257 C266 1.250 . S
O258 Mn253 2.121 . S
O258 C266 1.258 . S
C259 N260 1.326 . S
C259 C263 1.460 . S
C259 H265 0.929 . S
N260 Mn253 2.257 . S
N260 C259 1.326 . S
N260 C264 1.362 . S
C261 C262 1.258 . S
C261 C264 1.431 . S
C261 C281 1.449 . S
C262 C261 1.258 . S
C262 C263 1.477 . S
C262 H282 0.931 . S
C263 C259 1.460 . S
C263 C262 1.477 . S
C263 H283 0.930 1_545 S
C264 N260 1.362 . S
C264 C261 1.431 . S
C264 C274 1.476 . S
H265 C259 0.929 . S
C266 O257 1.250 . S
C266 O258 1.258 . S
O267 Mn252 2.162 . S
O267 C255 1.281 . S
O268 Mn252 2.297 . S
O268 C255 1.236 . S
N269 Mn253 2.282 . S
N269 C270 1.328 . S
N269 C274 1.318 . S
C270 N269 1.328 . S
C270 C271 1.457 . S
C270 H275 0.929 . S
C271 C270 1.457 . S
C271 C272 1.291 . S
C271 H284 0.931 . S
C272 C271 1.291 . S
C272 C273 1.373 . S
C272 H285 0.929 . S
C273 C272 1.373 . S
C273 C274 1.396 . S
C273 C280 1.403 . S
C274 C264 1.476 . S
C274 N269 1.318 . S
C274 C273 1.396 . S
H275 C270 0.929 . S
O276 Mn252 2.385 . S
O276 C254 1.234 . S
O277 Mn252 2.209 . S
O277 Mn253 2.215 . S
O277 C254 1.283 . S
O278 Mn252 2.094 . S
O278 C256 1.240 . S
O279 Mn253 2.117 . S
O279 C256 1.264 . S
C280 C273 1.403 . S
C280 C281 1.399 . S
C280 H286 0.929 . S
C281 C261 1.449 . S
C281 C280 1.399 . S
C281 H287 0.930 . S
H282 C262 0.931 . S
H283 C263 0.930 1_565 S
H284 C271 0.931 . S
H285 C272 0.929 . S
H286 C280 0.929 . S
H287 C281 0.930 . S
C288 C289 1.369 . S
C288 C290 1.419 1_545 S
C288 H292 0.930 . S
C289 C288 1.369 . S
C289 C298 1.429 1_455 S
C290 C288 1.419 1_565 S
C290 C291 1.363 1_455 S
C290 H293 0.929 . S
C291 C290 1.363 1_655 S
C291 C297 1.428 . S
H292 C288 0.930 . S
H293 C290 0.929 . S
S294 N295 1.613 . S
S294 N296 1.610 1_545 S
N295 S294 1.613 . S
N295 C298 1.350 . S
N296 S294 1.610 1_565 S
N296 C297 1.351 . S
C297 C291 1.428 . S
C297 N296 1.351 . S
C297 C298 1.434 1_565 S
C298 C289 1.429 1_655 S
C298 N295 1.350 . S
C298 C297 1.434 1_545 S
C299 C300 1.369 1_554 S
C299 C301 1.419 1_565 S
C299 H303 0.930 . S
C300 C299 1.369 1_556 S
C300 C309 1.429 1_455 S
C301 C299 1.419 1_545 S
C301 C302 1.363 1_455 S
C301 H304 0.929 . S
C302 C301 1.363 1_655 S
C302 C308 1.428 1_554 S
H303 C299 0.930 . S
H304 C301 0.929 . S
S305 N306 1.613 1_545 S
S305 N307 1.610 . S
N306 S305 1.613 1_565 S
N306 C309 1.350 . S
N307 S305 1.610 . S
N307 C308 1.351 . S
C308 C302 1.428 1_556 S
C308 N307 1.351 . S
C308 C309 1.434 1_545 S
C309 C300 1.429 1_655 S
C309 N306 1.350 . S
C309 C308 1.434 1_565 S
C310 C311 1.369 . S
C310 C312 1.419 . S
C310 H314 0.930 . S
C311 C310 1.369 . S
C311 C320 1.429 . S
C312 C310 1.419 . S
C312 C313 1.363 . S
C312 H315 0.929 . S
C313 C312 1.363 . S
C313 C319 1.428 . S
H314 C310 0.930 . S
H315 C312 0.929 . S
S316 N317 1.613 . S
S316 N318 1.610 . S
N317 S316 1.613 . S
N317 C320 1.350 . S
N318 S316 1.610 . S
N318 C319 1.351 . S
C319 C313 1.428 . S
C319 N318 1.351 . S
C319 C320 1.434 . S
C320 C311 1.429 . S
C320 N317 1.350 . S
C320 C319 1.434 . S
C321 C322 1.369 . S
C321 C323 1.419 . S
C321 H325 0.930 . S
C322 C321 1.369 . S
C322 C331 1.429 1_554 S
C323 C321 1.419 . S
C323 C324 1.363 1_554 S
C323 H326 0.929 . S
C324 C323 1.363 1_556 S
C324 C330 1.428 . S
H325 C321 0.930 . S
H326 C323 0.929 . S
S327 N328 1.613 . S
S327 N329 1.610 . S
N328 S327 1.613 . S
N328 C331 1.350 . S
N329 S327 1.610 . S
N329 C330 1.351 . S
C330 C324 1.428 . S
C330 N329 1.351 . S
C330 C331 1.434 . S
C331 C322 1.429 1_556 S
C331 N328 1.350 . S
C331 C330 1.434 . S
C332 C333 1.369 . S
C332 C334 1.419 1_655 S
C332 H336 0.930 . S
C333 C332 1.369 . S
C333 C342 1.429 1_554 S
C334 C332 1.419 1_455 S
C334 C335 1.363 1_554 S
C334 H337 0.929 . S
C335 C334 1.363 1_556 S
C335 C341 1.428 . S
H336 C332 0.930 . S
H337 C334 0.929 . S
S338 N339 1.613 1_455 S
S338 N340 1.610 . S
N339 S338 1.613 1_655 S
N339 C342 1.350 . S
N340 S338 1.610 . S
N340 C341 1.351 . S
C341 C335 1.428 . S
C341 N340 1.351 . S
C341 C342 1.434 1_455 S
C342 C333 1.429 1_556 S
C342 N339 1.350 . S
C342 C341 1.434 1_655 S
C343 C344 1.369 . S
C343 C345 1.419 . S
C343 H347 0.930 . S
C344 C343 1.369 . S
C344 C353 1.429 1_455 S
C345 C343 1.419 . S
C345 C346 1.363 1_455 S
C345 H348 0.929 . S
C346 C345 1.363 1_655 S
C346 C352 1.428 . S
H347 C343 0.930 . S
H348 C345 0.929 . S
S349 N350 1.613 . S
S349 N351 1.610 . S
N350 S349 1.613 . S
N350 C353 1.350 . S
N351 S349 1.610 . S
N351 C352 1.351 . S
C352 C346 1.428 . S
C352 N351 1.351 . S
C352 C353 1.434 . S
C353 C344 1.429 1_655 S
C353 N350 1.350 . S
C353 C352 1.434 . S
C354 C355 1.369 . S
C354 C356 1.419 1_556 S
C354 H358 0.930 . S
C355 C354 1.369 . S
C355 C364 1.429 1_545 S
C356 C354 1.419 1_554 S
C356 C357 1.363 1_545 S
C356 H359 0.929 . S
C357 C356 1.363 1_565 S
C357 C363 1.428 . S
H358 C354 0.930 . S
H359 C356 0.929 . S
S360 N361 1.613 1_554 S
S360 N362 1.610 . S
N361 S360 1.613 1_556 S
N361 C364 1.350 . S
N362 S360 1.610 . S
N362 C363 1.351 . S
C363 C357 1.428 . S
C363 N362 1.351 . S
C363 C364 1.434 1_554 S
C364 C355 1.429 1_565 S
C364 N361 1.350 . S
C364 C363 1.434 1_556 S
C365 C366 1.369 . S
C365 C367 1.419 1_565 S
C365 H369 0.930 . S
C366 C365 1.369 . S
C366 C375 1.429 . S
C367 C365 1.419 1_545 S
C367 C368 1.363 . S
C367 H370 0.929 . S
C368 C367 1.363 . S
C368 C374 1.428 . S
H369 C365 0.930 . S
H370 C367 0.929 . S
S371 N372 1.613 . S
S371 N373 1.610 1_565 S
N372 S371 1.613 . S
N372 C375 1.350 . S
N373 S371 1.610 1_545 S
N373 C374 1.351 . S
C374 C368 1.428 . S
C374 N373 1.351 . S
C374 C375 1.434 1_545 S
C375 C366 1.429 . S
C375 N372 1.350 . S
C375 C374 1.434 1_565 S
C376 C377 1.369 . S
C376 C378 1.419 . S
C376 H380 0.930 . S
C377 C376 1.369 . S
C377 C386 1.429 . S
C378 C376 1.419 . S
C378 C379 1.363 . S
C378 H381 0.929 . S
C379 C378 1.363 . S
C379 C385 1.428 . S
H380 C376 0.930 . S
H381 C378 0.929 . S
S382 N383 1.613 . S
S382 N384 1.610 . S
N383 S382 1.613 . S
N383 C386 1.350 . S
N384 S382 1.610 . S
N384 C385 1.351 . S
C385 C379 1.428 . S
C385 N384 1.351 . S
C385 C386 1.434 . S
C386 C377 1.429 . S
C386 N383 1.350 . S
C386 C385 1.434 . S
C387 C388 1.369 . S
C387 C389 1.419 1_556 S
C387 H391 0.930 . S
C388 C387 1.369 . S
C388 C397 1.429 . S
C389 C387 1.419 1_554 S
C389 C390 1.363 . S
C389 H392 0.929 . S
C390 C389 1.363 . S
C390 C396 1.428 . S
H391 C387 0.930 . S
H392 C389 0.929 . S
S393 N394 1.613 1_554 S
S393 N395 1.610 . S
N394 S393 1.613 1_556 S
N394 C397 1.350 . S
N395 S393 1.610 . S
N395 C396 1.351 . S
C396 C390 1.428 . S
C396 N395 1.351 . S
C396 C397 1.434 1_554 S
C397 C388 1.429 . S
C397 N394 1.350 . S
C397 C396 1.434 1_556 S
C398 C399 1.369 . S
C398 C400 1.419 . S
C398 H402 0.930 . S
C399 C398 1.369 . S
C399 C408 1.429 . S
C400 C398 1.419 . S
C400 C401 1.363 . S
C400 H403 0.929 . S
C401 C400 1.363 . S
C401 C407 1.428 . S
H402 C398 0.930 . S
H403 C400 0.929 . S
S404 N405 1.613 . S
S404 N406 1.610 . S
N405 S404 1.613 . S
N405 C408 1.350 . S
N406 S404 1.610 . S
N406 C407 1.351 . S
C407 C401 1.428 . S
C407 N406 1.351 . S
C407 C408 1.434 . S
C408 C399 1.429 . S
C408 N405 1.350 . S
C408 C407 1.434 . S
C409 C410 1.369 . S
C409 C411 1.419 1_554 S
C409 H413 0.930 . S
C410 C409 1.369 . S
C410 C419 1.429 . S
C411 C409 1.419 1_556 S
C411 C412 1.363 . S
C411 H414 0.929 . S
C412 C411 1.363 . S
C412 C418 1.428 . S
H413 C409 0.930 . S
H414 C411 0.929 . S
S415 N416 1.613 . S
S415 N417 1.610 1_554 S
N416 S415 1.613 . S
N416 C419 1.350 . S
N417 S415 1.610 1_556 S
N417 C418 1.351 . S
C418 C412 1.428 . S
C418 N417 1.351 . S
C418 C419 1.434 1_556 S
C419 C410 1.429 . S
C419 N416 1.350 . S
C419 C418 1.434 1_554 S
C420 C421 1.369 . S
C420 C422 1.419 . S
C420 H424 0.930 . S
C421 C420 1.369 . S
C421 C430 1.429 . S
C422 C420 1.419 . S
C422 C423 1.363 . S
C422 H425 0.929 . S
C423 C422 1.363 . S
C423 C429 1.428 . S
H424 C420 0.930 . S
H425 C422 0.929 . S
S426 N427 1.613 . S
S426 N428 1.610 . S
N427 S426 1.613 . S
N427 C430 1.350 . S
N428 S426 1.610 . S
N428 C429 1.351 . S
C429 C423 1.428 . S
C429 N428 1.351 . S
C429 C430 1.434 . S
C430 C421 1.429 . S
C430 N427 1.350 . S
C430 C429 1.434 . S
C431 C432 1.369 . S
C431 C433 1.419 . S
C431 H435 0.930 . S
C432 C431 1.369 . S
C432 C441 1.429 . S
C433 C431 1.419 . S
C433 C434 1.363 . S
C433 H436 0.929 . S
C434 C433 1.363 . S
C434 C440 1.428 . S
H435 C431 0.930 . S
H436 C433 0.929 . S
S437 N438 1.613 . S
S437 N439 1.610 . S
N438 S437 1.613 . S
N438 C441 1.350 . S
N439 S437 1.610 . S
N439 C440 1.351 . S
C440 C434 1.428 . S
C440 N439 1.351 . S
C440 C441 1.434 . S
C441 C432 1.429 . S
C441 N438 1.350 . S
C441 C440 1.434 . S
C442 C443 1.369 . S
C442 C444 1.419 1_455 S
C442 H446 0.930 . S
C443 C442 1.369 . S
C443 C452 1.429 . S
C444 C442 1.419 1_655 S
C444 C445 1.363 . S
C444 H447 0.929 . S
C445 C444 1.363 . S
C445 C451 1.428 . S
H446 C442 0.930 . S
H447 C444 0.929 . S
S448 N449 1.613 1_655 S
S448 N450 1.610 . S
N449 S448 1.613 1_455 S
N449 C452 1.350 . S
N450 S448 1.610 . S
N450 C451 1.351 . S
C451 C445 1.428 . S
C451 N450 1.351 . S
C451 C452 1.434 1_655 S
C452 C443 1.429 . S
C452 N449 1.350 . S
C452 C451 1.434 1_455 S
C453 C454 1.369 . S
C453 C455 1.419 1_455 S
C453 H457 0.930 . S
C454 C453 1.369 . S
C454 C463 1.429 . S
C455 C453 1.419 1_655 S
C455 C456 1.363 . S
C455 H458 0.929 . S
C456 C455 1.363 . S
C456 C462 1.428 . S
H457 C453 0.930 . S
H458 C455 0.929 . S
S459 N460 1.613 1_655 S
S459 N461 1.610 . S
N460 S459 1.613 1_455 S
N460 C463 1.350 . S
N461 S459 1.610 . S
N461 C462 1.351 . S
C462 C456 1.428 . S
C462 N461 1.351 . S
C462 C463 1.434 1_655 S
C463 C454 1.429 . S
C463 N460 1.350 . S
C463 C462 1.434 1_455 S
C289 C3 1.661 . S
C291 C76 1.680 . S
C300 C112 1.681 . S
C302 C39 1.657 . S
C311 C220 1.681 . S
C313 C147 1.658 . S
C322 C183 1.656 . S
C324 C256 1.681 . S
C333 C38 1.422 . S
C335 C122 1.320 . S
C344 C2 1.422 . S
C346 C86 1.324 . S
C355 C266 1.327 . S
C357 C182 1.422 . S
C366 C146 1.423 . S
C368 C230 1.318 . S
C377 C194 1.454 . S
C379 C110 1.505 . S
C388 C74 1.503 . S
C390 C158 1.449 . S
C399 C50 1.449 . S
C401 C254 1.503 . S
C410 C14 1.450 . S
C412 C218 1.503 . S
C421 C4 1.564 . S
C423 C40 1.564 . S
C432 C75 1.547 . S
C434 C111 1.548 . S
C443 C184 1.564 . S
C445 C148 1.565 . S
C454 C219 1.548 . S
C456 C255 1.547 . S
