# Generated by pormake.
# Topology nia-e, (7)-cn, num edge types: 1
# Building blocks:
#     Node 0, Type 0, BuildingBlock: OLANEW_clean_sbu_0, # of connection points: 7
#     Node 1, Type 0, BuildingBlock: OLANEW_clean_sbu_0, # of connection points: 7
#     Node 2, Type 0, BuildingBlock: OLANEW_clean_sbu_0, # of connection points: 7
#     Node 3, Type 0, BuildingBlock: OLANEW_clean_sbu_0, # of connection points: 7
#     Node 4, Type 0, BuildingBlock: OLANEW_clean_sbu_0, # of connection points: 7
#     Node 5, Type 0, BuildingBlock: OLANEW_clean_sbu_0, # of connection points: 7
#     Node 6, Type 0, BuildingBlock: OLANEW_clean_sbu_0, # of connection points: 7
#     Node 7, Type 0, BuildingBlock: OLANEW_clean_sbu_0, # of connection points: 7
#     Node 8, Type 0, BuildingBlock: OLANEW_clean_sbu_0, # of connection points: 7
#     Node 9, Type 0, BuildingBlock: OLANEW_clean_sbu_0, # of connection points: 7
#     Node 10, Type 0, BuildingBlock: OLANEW_clean_sbu_0, # of connection points: 7
#     Node 11, Type 0, BuildingBlock: OLANEW_clean_sbu_0, # of connection points: 7
#     Edge 12, Type (0, 0), BuildingBlock: ZUJKAS_clean_linker_0, # of connection points: 2
#     Edge 13, Type (0, 0), BuildingBlock: ZUJKAS_clean_linker_0, # of connection points: 2
#     Edge 14, Type (0, 0), BuildingBlock: ZUJKAS_clean_linker_0, # of connection points: 2
#     Edge 15, Type (0, 0), BuildingBlock: ZUJKAS_clean_linker_0, # of connection points: 2
#     Edge 16, Type (0, 0), BuildingBlock: ZUJKAS_clean_linker_0, # of connection points: 2
#     Edge 17, Type (0, 0), BuildingBlock: ZUJKAS_clean_linker_0, # of connection points: 2
#     Edge 18, Type (0, 0), BuildingBlock: ZUJKAS_clean_linker_0, # of connection points: 2
#     Edge 19, Type (0, 0), BuildingBlock: ZUJKAS_clean_linker_0, # of connection points: 2
#     Edge 20, Type (0, 0), BuildingBlock: ZUJKAS_clean_linker_0, # of connection points: 2
#     Edge 21, Type (0, 0), BuildingBlock: ZUJKAS_clean_linker_0, # of connection points: 2
#     Edge 22, Type (0, 0), BuildingBlock: ZUJKAS_clean_linker_0, # of connection points: 2
#     Edge 23, Type (0, 0), BuildingBlock: ZUJKAS_clean_linker_0, # of connection points: 2
#     Edge 24, Type (0, 0), BuildingBlock: ZUJKAS_clean_linker_0, # of connection points: 2
#     Edge 25, Type (0, 0), BuildingBlock: ZUJKAS_clean_linker_0, # of connection points: 2
#     Edge 26, Type (0, 0), BuildingBlock: ZUJKAS_clean_linker_0, # of connection points: 2
#     Edge 27, Type (0, 0), BuildingBlock: ZUJKAS_clean_linker_0, # of connection points: 2
#     Edge 28, Type (0, 0), BuildingBlock: ZUJKAS_clean_linker_0, # of connection points: 2
#     Edge 29, Type (0, 0), BuildingBlock: ZUJKAS_clean_linker_0, # of connection points: 2
#     Edge 30, Type (0, 0), BuildingBlock: ZUJKAS_clean_linker_0, # of connection points: 2
#     Edge 31, Type (0, 0), BuildingBlock: ZUJKAS_clean_linker_0, # of connection points: 2
#     Edge 32, Type (0, 0), BuildingBlock: ZUJKAS_clean_linker_0, # of connection points: 2
#     Edge 33, Type (0, 0), BuildingBlock: ZUJKAS_clean_linker_0, # of connection points: 2
#     Edge 34, Type (0, 0), BuildingBlock: ZUJKAS_clean_linker_0, # of connection points: 2
#     Edge 35, Type (0, 0), BuildingBlock: ZUJKAS_clean_linker_0, # of connection points: 2
#     Edge 36, Type (0, 0), BuildingBlock: ZUJKAS_clean_linker_0, # of connection points: 2
#     Edge 37, Type (0, 0), BuildingBlock: ZUJKAS_clean_linker_0, # of connection points: 2
#     Edge 38, Type (0, 0), BuildingBlock: ZUJKAS_clean_linker_0, # of connection points: 2
#     Edge 39, Type (0, 0), BuildingBlock: ZUJKAS_clean_linker_0, # of connection points: 2
#     Edge 40, Type (0, 0), BuildingBlock: ZUJKAS_clean_linker_0, # of connection points: 2
#     Edge 41, Type (0, 0), BuildingBlock: ZUJKAS_clean_linker_0, # of connection points: 2
#     Edge 42, Type (0, 0), BuildingBlock: ZUJKAS_clean_linker_0, # of connection points: 2
#     Edge 43, Type (0, 0), BuildingBlock: ZUJKAS_clean_linker_0, # of connection points: 2
#     Edge 44, Type (0, 0), BuildingBlock: ZUJKAS_clean_linker_0, # of connection points: 2
#     Edge 45, Type (0, 0), BuildingBlock: ZUJKAS_clean_linker_0, # of connection points: 2
#     Edge 46, Type (0, 0), BuildingBlock: ZUJKAS_clean_linker_0, # of connection points: 2
#     Edge 47, Type (0, 0), BuildingBlock: ZUJKAS_clean_linker_0, # of connection points: 2
#     Edge 48, Type (0, 0), BuildingBlock: ZUJKAS_clean_linker_0, # of connection points: 2
#     Edge 49, Type (0, 0), BuildingBlock: ZUJKAS_clean_linker_0, # of connection points: 2
#     Edge 50, Type (0, 0), BuildingBlock: ZUJKAS_clean_linker_0, # of connection points: 2
#     Edge 51, Type (0, 0), BuildingBlock: ZUJKAS_clean_linker_0, # of connection points: 2
#     Edge 52, Type (0, 0), BuildingBlock: ZUJKAS_clean_linker_0, # of connection points: 2
#     Edge 53, Type (0, 0), BuildingBlock: ZUJKAS_clean_linker_0, # of connection points: 2
# Relax obj value: 0.211
# Max RMSD: 0.283
# Mean RMSD: 0.283
data_MOF--net-nia-e--node1-OLANEW_clean_sbu_0--edge1-ZUJKAS_clean_linker_0
_symmetry_space_group_name_H-M    P1
_symmetry_Int_Tables_number       1
_symmetry_cell_setting            triclinic
loop_
_symmetry_equiv_pos_as_xyz
'x, y, z'
_cell_length_a     54.58445
_cell_length_b     54.564994
_cell_length_c     80.48707
_cell_angle_alpha  90.028525
_cell_angle_beta   89.976649
_cell_angle_gamma 120.02582
loop_
_atom_site_label
_atom_site_type_symbol
_atom_site_fract_x
_atom_site_fract_y
_atom_site_fract_z
_atom_type_partial_charge
Cd0 Cd 0.14509 0.2526 0.10504 0.0
C1 C 0.0743 0.21004 0.1175 0.0
C2 C 0.18059 0.40125 0.07785 0.0
O3 O 0.16948 0.40776 0.06531 0.0
Cd4 Cd 0.12583 0.22558 0.14655 0.0
C5 C 0.21094 0.4105 0.0785 0.0
C6 C 0.26634 0.42345 0.08554 0.0
C7 C 0.24398 0.40747 0.09646 0.0
N8 N 0.21806 0.40196 0.09223 0.0
C9 C 0.2322 0.42661 0.06697 0.0
C10 C 0.26017 0.43303 0.07063 0.0
Co11 Co 0.18964 0.38201 0.10729 0.0
C12 C 0.24468 0.39609 0.11295 0.0
O13 O 0.26779 0.39791 0.11919 0.0
C14 C 0.2147 0.36616 0.13579 0.0
C15 C 0.20495 0.33748 0.13408 0.0
C16 C 0.19314 0.31923 0.14759 0.0
C17 C 0.19589 0.33063 0.16353 0.0
C18 C 0.20853 0.36009 0.16579 0.0
C19 C 0.21692 0.37785 0.15169 0.0
C20 C 0.17394 0.289 0.14421 0.0
C21 C 0.13423 0.37185 0.09129 0.0
C22 C 0.11843 0.35577 0.07747 0.0
C23 C 0.12007 0.37662 0.10429 0.0
C24 C 0.09072 0.36444 0.10399 0.0
C25 C 0.07511 0.348 0.0905 0.0
C26 C 0.08885 0.34414 0.07681 0.0
N27 N 0.16473 0.38565 0.09118 0.0
N28 N 0.21922 0.38231 0.12098 0.0
N29 N 0.17921 0.34485 0.0979 0.0
C30 C 0.18989 0.33979 0.08278 0.0
C31 C 0.17252 0.32945 0.06872 0.0
C32 C 0.21733 0.34397 0.0822 0.0
C33 C 0.18269 0.32411 0.05391 0.0
H34 H 0.15099 0.32528 0.06948 0.0
C35 C 0.21071 0.32953 0.05332 0.0
C36 C 0.22819 0.33939 0.06743 0.0
C37 C 0.16405 0.31255 0.03913 0.0
H38 H 0.23003 0.35036 0.09335 0.0
H39 H 0.21879 0.32564 0.04193 0.0
C40 C 0.2576 0.34458 0.06676 0.0
O41 O 0.1735 0.30592 0.02528 0.0
O42 O 0.14002 0.30881 0.03942 0.0
O43 O 0.27285 0.35334 0.07901 0.0
O44 O 0.26772 0.33965 0.0526 0.0
H45 H 0.16166 0.29817 0.01554 0.0
H46 H 0.28678 0.34275 0.05191 0.0
N47 N 0.16159 0.3619 0.12253 0.0
C48 C 0.15956 0.37683 0.13505 0.0
C49 C 0.14001 0.36223 0.14769 0.0
C50 C 0.12381 0.33234 0.14659 0.0
C51 C 0.12739 0.31773 0.13311 0.0
C52 C 0.14731 0.33373 0.12093 0.0
N53 N 0.19531 0.4157 0.11912 0.0
C54 C 0.17857 0.40762 0.13304 0.0
O55 O 0.17813 0.42613 0.14331 0.0
C56 C 0.15652 0.32374 0.10642 0.0
O57 O 0.18724 0.26736 0.08796 0.0
O58 O 0.14734 0.24926 0.07484 0.0
C59 C 0.21089 0.4446 0.11344 0.0
C60 C 0.24058 0.45877 0.1124 0.0
C61 C 0.25561 0.48619 0.1058 0.0
C62 C 0.24094 0.50021 0.10146 0.0
C63 C 0.21167 0.48748 0.10394 0.0
C64 C 0.19657 0.4594 0.10966 0.0
O65 O 0.09291 0.22084 0.10605 0.0
O66 O 0.08143 0.21201 0.1327 0.0
O67 O 0.16778 0.28124 0.12919 0.0
O68 O 0.15993 0.27205 0.15577 0.0
O69 O 0.14149 0.29664 0.10074 0.0
C70 C 0.15307 0.19592 0.12284 0.0
O71 O 0.14512 0.19696 0.13751 0.0
O72 O 0.15322 0.21248 0.11163 0.0
C73 C 0.17394 0.25926 0.07429 0.0
H74 H 0.28776 0.42864 0.08846 0.0
H75 H 0.2275 0.43408 0.05563 0.0
H76 H 0.27706 0.44556 0.06199 0.0
H77 H 0.20406 0.32918 0.12174 0.0
H78 H 0.18705 0.3166 0.17412 0.0
H79 H 0.22489 0.40035 0.15302 0.0
H80 H 0.12929 0.3529 0.06706 0.0
H81 H 0.13158 0.3908 0.11431 0.0
H82 H 0.05246 0.33961 0.09046 0.0
H83 H 0.13737 0.37337 0.15804 0.0
H84 H 0.10866 0.32049 0.15625 0.0
H85 H 0.11545 0.29486 0.13245 0.0
H86 H 0.25203 0.44873 0.11687 0.0
H87 H 0.25274 0.52197 0.09719 0.0
H88 H 0.17386 0.44916 0.11134 0.0
Cd89 Cd 0.89516 0.14249 0.60373 0.0
C90 C 0.86557 0.07142 0.61621 0.0
C91 C 0.78021 0.17703 0.57962 0.0
O92 O 0.76185 0.16556 0.56744 0.0
Cd93 Cd 0.90187 0.12842 0.6367 0.0
C94 C 0.80113 0.20746 0.57993 0.0
C95 C 0.84416 0.26304 0.58602 0.0
C96 C 0.83818 0.24108 0.59717 0.0
N97 N 0.81735 0.21506 0.59344 0.0
C98 C 0.80586 0.22828 0.56819 0.0
C99 C 0.82769 0.25635 0.57137 0.0
Co100 Co 0.8101 0.18701 0.60854 0.0
C101 C 0.8513 0.2423 0.61338 0.0
O102 O 0.87297 0.26562 0.61916 0.0
C103 C 0.85248 0.21317 0.63629 0.0
C104 C 0.8721 0.2045 0.63405 0.0
C105 C 0.87905 0.19232 0.64712 0.0
C106 C 0.87047 0.19402 0.66327 0.0
C107 C 0.85321 0.20601 0.66615 0.0
C108 C 0.84315 0.2145 0.6524 0.0
C109 C 0.88965 0.1731 0.64285 0.0
C110 C 0.7639 0.131 0.59333 0.0
C111 C 0.76281 0.11469 0.5794 0.0
C112 C 0.74561 0.1174 0.60669 0.0
C113 C 0.72766 0.08815 0.6066 0.0
C114 C 0.72691 0.07211 0.59292 0.0
C115 C 0.74377 0.08527 0.57889 0.0
N116 N 0.78083 0.16151 0.59289 0.0
N117 N 0.83992 0.21716 0.62173 0.0
N118 N 0.83667 0.17692 0.5985 0.0
C119 C 0.85117 0.18718 0.58297 0.0
C120 C 0.84298 0.16939 0.56906 0.0
C121 C 0.87445 0.21456 0.58187 0.0
C122 C 0.85748 0.17903 0.5539 0.0
H123 H 0.82554 0.14793 0.5702 0.0
C124 C 0.8802 0.20696 0.55281 0.0
C125 C 0.88887 0.2249 0.56675 0.0
C126 C 0.8492 0.15993 0.53927 0.0
H127 H 0.88159 0.22762 0.59289 0.0
H128 H 0.8914 0.21463 0.54115 0.0
C129 C 0.91312 0.25425 0.56553 0.0
O130 O 0.86422 0.16889 0.52501 0.0
O131 O 0.82885 0.13596 0.54002 0.0
O132 O 0.92048 0.26993 0.57762 0.0
O133 O 0.92726 0.26385 0.55104 0.0
H134 H 0.8593 0.15675 0.51536 0.0
H135 H 0.94321 0.28284 0.54999 0.0
N136 N 0.80345 0.1593 0.62378 0.0
C137 C 0.78722 0.15728 0.6367 0.0
C138 C 0.78338 0.13812 0.64936 0.0
C139 C 0.79735 0.12225 0.64785 0.0
C140 C 0.81472 0.12579 0.63395 0.0
C141 C 0.81759 0.14536 0.62178 0.0
N142 N 0.78247 0.19236 0.62106 0.0
C143 C 0.77504 0.17598 0.63512 0.0
O144 O 0.75713 0.1759 0.64608 0.0
C145 C 0.83588 0.15449 0.60689 0.0
O146 O 0.92208 0.1844 0.5865 0.0
O147 O 0.89853 0.14469 0.57336 0.0
C148 C 0.76913 0.2084 0.61634 0.0
C149 C 0.78489 0.23814 0.61556 0.0
C150 C 0.77187 0.25387 0.61126 0.0
C151 C 0.74242 0.2397 0.60927 0.0
C152 C 0.7261 0.21034 0.61129 0.0
C153 C 0.73955 0.19458 0.61425 0.0
O154 O 0.8737 0.08945 0.6044 0.0
O155 O 0.87023 0.07982 0.63119 0.0
O156 O 0.89072 0.16789 0.62754 0.0
O157 O 0.89209 0.15775 0.65374 0.0
O158 O 0.84743 0.13929 0.60069 0.0
C159 C 0.9598 0.14895 0.61978 0.0
O160 O 0.95011 0.14185 0.63436 0.0
O161 O 0.94404 0.14968 0.60833 0.0
C162 C 0.91571 0.17118 0.57278 0.0
H163 H 0.86072 0.28452 0.58854 0.0
H164 H 0.79327 0.22315 0.55699 0.0
H165 H 0.83179 0.2729 0.56253 0.0
H166 H 0.87919 0.20421 0.62153 0.0
H167 H 0.87598 0.18476 0.67349 0.0
H168 H 0.82818 0.22182 0.65413 0.0
H169 H 0.77565 0.12516 0.56861 0.0
H170 H 0.74394 0.1293 0.61683 0.0
H171 H 0.71247 0.04949 0.59316 0.0
H172 H 0.77024 0.13554 0.66004 0.0
H173 H 0.7949 0.10741 0.65751 0.0
H174 H 0.8259 0.11413 0.63296 0.0
H175 H 0.80702 0.24913 0.61872 0.0
H176 H 0.73186 0.25174 0.60697 0.0
H177 H 0.72701 0.17182 0.61578 0.0
Cd178 Cd 0.75713 0.89205 0.1036 0.0
C179 C 0.79802 0.86086 0.11431 0.0
C180 C 0.60703 0.78243 0.0784 0.0
O181 O 0.59982 0.76481 0.06579 0.0
Cd182 Cd 0.77689 0.89542 0.13511 0.0
C183 C 0.5986 0.80414 0.0793 0.0
C184 C 0.58777 0.84796 0.08662 0.0
C185 C 0.60289 0.84047 0.09752 0.0
N186 N 0.60728 0.81935 0.0932 0.0
C187 C 0.58332 0.81039 0.06777 0.0
C188 C 0.57794 0.8326 0.07158 0.0
Co189 Co 0.6268 0.80999 0.10804 0.0
C190 C 0.61461 0.85223 0.11402 0.0
O191 O 0.61379 0.87402 0.12035 0.0
C192 C 0.64389 0.8507 0.13677 0.0
C193 C 0.67238 0.86985 0.13482 0.0
C194 C 0.6915 0.87434 0.14759 0.0
C195 C 0.68115 0.86344 0.16344 0.0
C196 C 0.65179 0.84657 0.16621 0.0
C197 C 0.63312 0.83964 0.15261 0.0
C198 C 0.72109 0.88451 0.14289 0.0
C199 C 0.63432 0.76301 0.0918 0.0
C200 C 0.64969 0.76189 0.07796 0.0
C201 C 0.62795 0.74353 0.10472 0.0
C202 C 0.63788 0.72446 0.10437 0.0
C203 C 0.65347 0.7238 0.09084 0.0
C204 C 0.65879 0.74185 0.07719 0.0
N205 N 0.62232 0.78136 0.09166 0.0
N206 N 0.6274 0.83952 0.12202 0.0
N207 N 0.66403 0.83624 0.09859 0.0
C208 C 0.66907 0.85167 0.08337 0.0
C209 C 0.67697 0.84278 0.06905 0.0
C210 C 0.66716 0.87628 0.08293 0.0
C211 C 0.68211 0.85781 0.05407 0.0
H212 H 0.67932 0.82429 0.06971 0.0
C213 C 0.67942 0.88212 0.05369 0.0
C214 C 0.67218 0.89166 0.06809 0.0
C215 C 0.69057 0.84837 0.03891 0.0
H216 H 0.66221 0.88363 0.09423 0.0
H217 H 0.68342 0.89389 0.04221 0.0
C218 C 0.67027 0.91786 0.06766 0.0
O219 O 0.69612 0.86331 0.02466 0.0
O220 O 0.69265 0.82707 0.03921 0.0
O221 O 0.66335 0.92582 0.08008 0.0
O222 O 0.67625 0.93315 0.05352 0.0
H223 H 0.70182 0.85764 0.01465 0.0
H224 H 0.67532 0.95038 0.05298 0.0
N225 N 0.64659 0.80122 0.12302 0.0
C226 C 0.63156 0.78426 0.13551 0.0
C227 C 0.64598 0.77876 0.148 0.0
C228 C 0.67581 0.7919 0.14678 0.0
C229 C 0.69054 0.81008 0.13332 0.0
C230 C 0.67474 0.81463 0.12131 0.0
N231 N 0.593 0.78238 0.11987 0.0
C232 C 0.60085 0.77323 0.13366 0.0
O233 O 0.58218 0.7544 0.14392 0.0
C234 C 0.68493 0.83396 0.10685 0.0
O235 O 0.74573 0.92272 0.08734 0.0
O236 O 0.75473 0.89443 0.07321 0.0
C237 C 0.56409 0.76998 0.11439 0.0
C238 C 0.55064 0.78622 0.11391 0.0
C239 C 0.5229 0.77459 0.10785 0.0
C240 C 0.50811 0.74594 0.10329 0.0
C241 C 0.52041 0.72884 0.10488 0.0
C242 C 0.5486 0.74104 0.11025 0.0
O243 O 0.78895 0.87064 0.10293 0.0
O244 O 0.79321 0.86349 0.12944 0.0
O245 O 0.72692 0.88686 0.12745 0.0
O246 O 0.73885 0.88523 0.15325 0.0
O247 O 0.71169 0.8449 0.10074 0.0
C248 C 0.81649 0.95453 0.12058 0.0
O249 O 0.81378 0.9432 0.13468 0.0
O250 O 0.79948 0.94029 0.10891 0.0
C251 C 0.74895 0.91429 0.07324 0.0
H252 H 0.5835 0.8648 0.08961 0.0
H253 H 0.57579 0.79863 0.05629 0.0
H254 H 0.5661 0.83785 0.06292 0.0
H255 H 0.67985 0.87829 0.1225 0.0
H256 H 0.6959 0.86727 0.17346 0.0
H257 H 0.61073 0.82483 0.15414 0.0
H258 H 0.6532 0.77555 0.06742 0.0
H259 H 0.61409 0.74183 0.11469 0.0
H260 H 0.66062 0.70853 0.09087 0.0
H261 H 0.63476 0.76501 0.15834 0.0
H262 H 0.68752 0.78819 0.15634 0.0
H263 H 0.71339 0.82059 0.13258 0.0
H264 H 0.56155 0.80772 0.11843 0.0
H265 H 0.48618 0.73641 0.09944 0.0
H266 H 0.55844 0.72809 0.11132 0.0
Cd267 Cd 0.86502 0.75368 0.60469 0.0
C268 C 0.9355 0.79624 0.61803 0.0
C269 C 0.83262 0.60534 0.57935 0.0
O270 O 0.84429 0.59891 0.56707 0.0
Cd271 Cd 0.87741 0.77355 0.63727 0.0
C272 C 0.80211 0.59536 0.57971 0.0
C273 C 0.74619 0.58133 0.58607 0.0
C274 C 0.76808 0.59754 0.59721 0.0
N275 N 0.79428 0.60351 0.59333 0.0
C276 C 0.78136 0.57906 0.56797 0.0
C277 C 0.75312 0.57208 0.57128 0.0
Co278 Co 0.82214 0.62408 0.60859 0.0
C279 C 0.7666 0.60886 0.61357 0.0
O280 O 0.74309 0.60663 0.61945 0.0
C281 C 0.79539 0.6392 0.63657 0.0
C282 C 0.80332 0.66733 0.63441 0.0
C283 C 0.81496 0.68645 0.64754 0.0
C284 C 0.8133 0.67615 0.66367 0.0
C285 C 0.802 0.64696 0.66647 0.0
C286 C 0.79419 0.62853 0.65266 0.0
C287 C 0.8337 0.71641 0.64336 0.0
C288 C 0.87847 0.63498 0.59326 0.0
C289 C 0.89485 0.6506 0.57944 0.0
C290 C 0.89203 0.62998 0.6065 0.0
C291 C 0.92127 0.64135 0.60644 0.0
C292 C 0.93737 0.657 0.59288 0.0
C293 C 0.92427 0.661 0.57893 0.0
N294 N 0.84796 0.62125 0.59274 0.0
N295 N 0.7917 0.62282 0.62196 0.0
N296 N 0.83182 0.66095 0.59905 0.0
C297 C 0.82171 0.66546 0.58355 0.0
C298 C 0.83977 0.67578 0.56978 0.0
C299 C 0.79416 0.66084 0.58233 0.0
C300 C 0.83027 0.6809 0.55465 0.0
H301 H 0.86132 0.68013 0.57101 0.0
C302 C 0.80221 0.67523 0.55345 0.0
C303 C 0.78399 0.66523 0.56725 0.0
C304 C 0.84964 0.69248 0.54018 0.0
H305 H 0.78084 0.65427 0.59325 0.0
H306 H 0.79465 0.67897 0.54182 0.0
C307 C 0.75452 0.65971 0.56592 0.0
O308 O 0.84079 0.69881 0.52598 0.0
O309 O 0.87375 0.69652 0.54103 0.0
O310 O 0.73857 0.65067 0.57786 0.0
O311 O 0.74511 0.66466 0.55149 0.0
H312 H 0.85311 0.70653 0.51643 0.0
H313 H 0.72604 0.66135 0.55037 0.0
N314 N 0.8496 0.64483 0.62401 0.0
C315 C 0.85176 0.63027 0.63669 0.0
C316 C 0.8707 0.64532 0.6495 0.0
C317 C 0.88617 0.67524 0.6484 0.0
C318 C 0.88248 0.68943 0.63474 0.0
C319 C 0.86317 0.67301 0.6224 0.0
N320 N 0.81714 0.59083 0.62059 0.0
C321 C 0.83343 0.59936 0.63468 0.0
O322 O 0.8339 0.5812 0.64522 0.0
C323 C 0.85398 0.6825 0.60766 0.0
O324 O 0.82377 0.73881 0.58686 0.0
O325 O 0.86401 0.75555 0.57428 0.0
C326 C 0.80131 0.56171 0.61536 0.0
C327 C 0.77161 0.54752 0.61485 0.0
C328 C 0.75609 0.51952 0.60912 0.0
C329 C 0.77054 0.50509 0.60514 0.0
C330 C 0.80002 0.5181 0.60687 0.0
C331 C 0.81541 0.54667 0.61173 0.0
O332 O 0.91795 0.78605 0.60599 0.0
O333 O 0.92651 0.79216 0.63288 0.0
O334 O 0.83897 0.72282 0.62806 0.0
O335 O 0.84874 0.73427 0.65432 0.0
O336 O 0.869 0.70948 0.60173 0.0
C337 C 0.85663 0.81072 0.62087 0.0
O338 O 0.86313 0.80776 0.63553 0.0
O339 O 0.85679 0.79478 0.60934 0.0
C340 C 0.83754 0.74612 0.57333 0.0
H341 H 0.72458 0.57578 0.58871 0.0
H342 H 0.78666 0.57192 0.55669 0.0
H343 H 0.73662 0.55942 0.56246 0.0
H344 H 0.80347 0.6747 0.6219 0.0
H345 H 0.82207 0.69089 0.67396 0.0
H346 H 0.78742 0.60634 0.65436 0.0
H347 H 0.88444 0.65322 0.56871 0.0
H348 H 0.88012 0.61608 0.61651 0.0
H349 H 0.95998 0.6652 0.59312 0.0
H350 H 0.8734 0.63449 0.65999 0.0
H351 H 0.90083 0.68742 0.65819 0.0
H352 H 0.89385 0.71232 0.63408 0.0
H353 H 0.76052 0.55804 0.61912 0.0
H354 H 0.7585 0.48293 0.60168 0.0
H355 H 0.83823 0.55713 0.61289 0.0
Cd356 Cd 0.11736 0.86749 0.10572 0.0
C357 C 0.14506 0.93795 0.11829 0.0
C358 C 0.22848 0.82913 0.07952 0.0
O359 O 0.24606 0.83963 0.06691 0.0
Cd360 Cd 0.1069 0.88625 0.14751 0.0
C361 C 0.2069 0.79894 0.08042 0.0
C362 C 0.16307 0.74424 0.08767 0.0
C363 C 0.17075 0.76677 0.09869 0.0
N364 N 0.19174 0.79234 0.09434 0.0
C365 C 0.20052 0.77747 0.06881 0.0
C366 C 0.17824 0.74986 0.07256 0.0
Co367 Co 0.20062 0.82134 0.10903 0.0
C368 C 0.15875 0.76678 0.1151 0.0
O369 O 0.137 0.74412 0.12142 0.0
C370 C 0.15956 0.79771 0.1376 0.0
C371 C 0.14117 0.80805 0.13568 0.0
C372 C 0.1349 0.82024 0.14906 0.0
C373 C 0.14339 0.81764 0.16507 0.0
C374 C 0.15961 0.80441 0.16758 0.0
C375 C 0.16864 0.79537 0.15359 0.0
C376 C 0.12379 0.8393 0.1455 0.0
C377 C 0.24736 0.87586 0.09288 0.0
C378 C 0.24822 0.89216 0.07902 0.0
C379 C 0.26661 0.88925 0.10586 0.0
C380 C 0.2853 0.91834 0.10551 0.0
C381 C 0.28581 0.93441 0.09193 0.0
C382 C 0.26796 0.9214 0.07823 0.0
N383 N 0.2294 0.84546 0.09277 0.0
N384 N 0.17093 0.79247 0.1229 0.0
N385 N 0.17442 0.83208 0.09926 0.0
C386 C 0.15907 0.82148 0.08401 0.0
C387 C 0.16689 0.83875 0.06989 0.0
C388 C 0.13546 0.79425 0.08337 0.0
C389 C 0.15169 0.82873 0.05497 0.0
H390 H 0.18463 0.86011 0.07067 0.0
C391 C 0.12866 0.80091 0.05433 0.0
C392 C 0.12037 0.78349 0.06849 0.0
C393 C 0.15958 0.84729 0.04011 0.0
H394 H 0.12862 0.78163 0.09456 0.0
H395 H 0.11693 0.79292 0.04286 0.0
C396 C 0.09584 0.75423 0.06774 0.0
O397 O 0.14393 0.83799 0.0261 0.0
O398 O 0.18019 0.87115 0.04048 0.0
O399 O 0.0888 0.73901 0.08002 0.0
O400 O 0.08111 0.74422 0.05347 0.0
H401 H 0.1486 0.84978 0.01631 0.0
H402 H 0.06497 0.72528 0.05273 0.0
N403 N 0.20899 0.84999 0.12391 0.0
C404 C 0.22555 0.85193 0.13662 0.0
C405 C 0.23057 0.87176 0.1491 0.0
C406 C 0.21734 0.88833 0.14765 0.0
C407 C 0.19949 0.88478 0.13401 0.0
C408 C 0.19545 0.86455 0.12201 0.0
N409 N 0.22809 0.81537 0.12119 0.0
C410 C 0.2367 0.83233 0.13503 0.0
O411 O 0.2551 0.83245 0.14561 0.0
C412 C 0.17634 0.85516 0.10747 0.0
O413 O 0.09054 0.82511 0.08871 0.0
O414 O 0.11125 0.86508 0.07558 0.0
C415 C 0.2407 0.79879 0.11621 0.0
C416 C 0.2249 0.76902 0.11664 0.0
C417 C 0.23778 0.75297 0.11286 0.0
C418 C 0.26662 0.76679 0.10896 0.0
C419 C 0.283 0.79641 0.10903 0.0
C420 C 0.26987 0.81236 0.11261 0.0
O421 O 0.1386 0.91974 0.10672 0.0
O422 O 0.13792 0.93029 0.13329 0.0
O423 O 0.12269 0.8457 0.13048 0.0
O424 O 0.11985 0.85272 0.15702 0.0
O425 O 0.16462 0.87032 0.1015 0.0
C426 C 0.0515 0.85847 0.12258 0.0
O427 O 0.05944 0.86595 0.13745 0.0
O428 O 0.06877 0.859 0.11172 0.0
C429 C 0.09509 0.83839 0.07506 0.0
H430 H 0.14613 0.72313 0.0906 0.0
H431 H 0.21214 0.78177 0.05727 0.0
H432 H 0.17282 0.73285 0.06381 0.0
H433 H 0.13388 0.80887 0.1233 0.0
H434 H 0.13844 0.82696 0.17552 0.0
H435 H 0.1826 0.78676 0.15504 0.0
H436 H 0.23455 0.88178 0.0685 0.0
H437 H 0.26836 0.87724 0.11591 0.0
H438 H 0.3008 0.95691 0.09196 0.0
H439 H 0.24403 0.8743 0.1596 0.0
H440 H 0.22069 0.90369 0.15718 0.0
H441 H 0.18882 0.89695 0.13311 0.0
H442 H 0.20314 0.75834 0.12072 0.0
H443 H 0.27662 0.75426 0.10653 0.0
H444 H 0.28234 0.83526 0.11289 0.0
Cd445 Cd 0.25448 0.11381 0.60551 0.0
C446 C 0.21276 0.14363 0.61655 0.0
C447 C 0.40286 0.22518 0.5785 0.0
O448 O 0.40912 0.24199 0.56556 0.0
Cd449 Cd 0.23397 0.10898 0.63838 0.0
C450 C 0.41189 0.20395 0.57961 0.0
C451 C 0.4223 0.15986 0.58689 0.0
C452 C 0.4086 0.16847 0.59818 0.0
N453 N 0.40432 0.18965 0.59385 0.0
C454 C 0.42588 0.19666 0.56773 0.0
C455 C 0.43104 0.17431 0.57152 0.0
Co456 Co 0.38427 0.19865 0.60851 0.0
C457 C 0.39732 0.15713 0.6148 0.0
O458 O 0.39834 0.13551 0.62123 0.0
C459 C 0.36864 0.15916 0.63774 0.0
C460 C 0.34024 0.13939 0.63612 0.0
C461 C 0.3214 0.13463 0.64909 0.0
C462 C 0.33205 0.14616 0.66479 0.0
C463 C 0.36138 0.16388 0.66721 0.0
C464 C 0.37971 0.17089 0.65342 0.0
C465 C 0.29145 0.12316 0.6448 0.0
C466 C 0.37424 0.24347 0.5915 0.0
C467 C 0.35848 0.24314 0.57749 0.0
C468 C 0.37907 0.26283 0.60426 0.0
C469 C 0.36712 0.2802 0.60361 0.0
C470 C 0.35087 0.27918 0.58998 0.0
C471 C 0.34706 0.26125 0.57648 0.0
N472 N 0.38769 0.22641 0.59179 0.0
N473 N 0.38469 0.17 0.62281 0.0
N474 N 0.34723 0.17122 0.59929 0.0
C475 C 0.34241 0.15511 0.58435 0.0
C476 C 0.33452 0.16325 0.56974 0.0
C477 C 0.3444 0.13053 0.58446 0.0
C478 C 0.32973 0.14769 0.555 0.0
H479 H 0.33187 0.18156 0.57001 0.0
C480 C 0.33256 0.12346 0.55517 0.0
C481 C 0.3396 0.11453 0.56988 0.0
C482 C 0.3215 0.15651 0.53951 0.0
H483 H 0.34925 0.12368 0.59598 0.0
H484 H 0.32879 0.11126 0.54388 0.0
C485 C 0.34153 0.08834 0.57003 0.0
O486 O 0.31638 0.14111 0.52547 0.0
O487 O 0.31925 0.17771 0.53935 0.0
O488 O 0.34844 0.08098 0.58269 0.0
O489 O 0.33555 0.07238 0.55616 0.0
H490 H 0.31084 0.14638 0.51526 0.0
H491 H 0.33647 0.05511 0.556 0.0
N492 N 0.36392 0.20705 0.62332 0.0
C493 C 0.37869 0.22468 0.63562 0.0
C494 C 0.36391 0.22998 0.64799 0.0
C495 C 0.33403 0.21597 0.64685 0.0
C496 C 0.3196 0.19714 0.63358 0.0
C497 C 0.33576 0.19284 0.62169 0.0
N498 N 0.41776 0.22735 0.62011 0.0
C499 C 0.40949 0.23653 0.63373 0.0
O500 O 0.42785 0.25561 0.64401 0.0
C501 C 0.32598 0.173 0.60747 0.0
O502 O 0.26626 0.08331 0.58932 0.0
O503 O 0.25654 0.11111 0.57521 0.0
C504 C 0.44694 0.23952 0.61521 0.0
C505 C 0.46046 0.22335 0.61587 0.0
C506 C 0.48939 0.23574 0.61225 0.0
C507 C 0.50491 0.26454 0.60828 0.0
C508 C 0.49211 0.28132 0.60811 0.0
C509 C 0.463 0.26864 0.61152 0.0
O510 O 0.22263 0.13486 0.60507 0.0
O511 O 0.21661 0.13991 0.63168 0.0
O512 O 0.285 0.12073 0.62945 0.0
O513 O 0.27357 0.12109 0.65553 0.0
O514 O 0.2991 0.1611 0.60146 0.0
C515 C 0.19632 0.05011 0.62248 0.0
O516 O 0.19952 0.06036 0.63695 0.0
O517 O 0.21243 0.06541 0.61075 0.0
C518 C 0.26272 0.09154 0.57523 0.0
H519 H 0.42618 0.14274 0.5898 0.0
H520 H 0.4323 0.20752 0.55591 0.0
H521 H 0.44173 0.16814 0.56255 0.0
H522 H 0.33251 0.13045 0.62393 0.0
H523 H 0.31751 0.14215 0.67497 0.0
H524 H 0.40202 0.18619 0.6547 0.0
H525 H 0.35571 0.22931 0.56717 0.0
H526 H 0.39318 0.26575 0.61434 0.0
H527 H 0.34263 0.29355 0.58967 0.0
H528 H 0.37492 0.24424 0.65818 0.0
H529 H 0.32205 0.21952 0.6563 0.0
H530 H 0.29673 0.18598 0.63289 0.0
H531 H 0.44907 0.2017 0.6201 0.0
H532 H 0.52745 0.27418 0.60598 0.0
H533 H 0.4529 0.28141 0.61161 0.0
Cd534 Cd 0.75689 0.86719 0.40104 0.0
C535 C 0.79671 0.93917 0.38973 0.0
C536 C 0.60796 0.82991 0.4269 0.0
O537 O 0.60156 0.84082 0.4396 0.0
Cd538 Cd 0.77651 0.88384 0.36863 0.0
C539 C 0.59857 0.79953 0.42599 0.0
C540 C 0.58567 0.74425 0.41855 0.0
C541 C 0.60151 0.76678 0.40771 0.0
N542 N 0.60694 0.79262 0.4121 0.0
C543 C 0.58262 0.77811 0.43746 0.0
C544 C 0.57621 0.75019 0.43359 0.0
Co545 Co 0.62706 0.82134 0.39724 0.0
C546 C 0.61294 0.76634 0.39118 0.0
O547 O 0.61126 0.74336 0.38483 0.0
C548 C 0.64316 0.79667 0.36858 0.0
C549 C 0.6715 0.8055 0.37068 0.0
C550 C 0.69059 0.8183 0.35764 0.0
C551 C 0.68022 0.81692 0.34155 0.0
C552 C 0.65089 0.80453 0.33873 0.0
C553 C 0.63238 0.79558 0.35254 0.0
C554 C 0.72033 0.83775 0.36199 0.0
C555 C 0.63714 0.87652 0.41371 0.0
C556 C 0.65329 0.89224 0.42755 0.0
C557 C 0.63185 0.89071 0.40097 0.0
C558 C 0.64342 0.91998 0.40156 0.0
C559 C 0.65983 0.93549 0.41509 0.0
C560 C 0.6644 0.92177 0.42852 0.0
N561 N 0.62356 0.84602 0.41365 0.0
N562 N 0.62656 0.79189 0.38323 0.0
N563 N 0.66413 0.8314 0.40663 0.0
C564 C 0.66898 0.82059 0.42177 0.0
C565 C 0.67922 0.83789 0.43586 0.0
C566 C 0.66477 0.79313 0.42231 0.0
C567 C 0.68447 0.82766 0.45067 0.0
H568 H 0.68345 0.85944 0.43513 0.0
C569 C 0.67913 0.79965 0.4512 0.0
C570 C 0.66937 0.78224 0.43705 0.0
C571 C 0.69586 0.84624 0.46548 0.0
H572 H 0.6584 0.78045 0.41113 0.0
H573 H 0.68299 0.79153 0.46258 0.0
C574 C 0.66432 0.75286 0.43765 0.0
O575 O 0.70236 0.83675 0.47936 0.0
O576 O 0.69957 0.87027 0.46521 0.0
O577 O 0.65543 0.73758 0.42542 0.0
O578 O 0.66954 0.74281 0.45174 0.0
H579 H 0.70997 0.84855 0.48912 0.0
H580 H 0.66654 0.72379 0.45239 0.0
N581 N 0.64737 0.84971 0.38222 0.0
C582 C 0.63259 0.85223 0.36981 0.0
C583 C 0.64734 0.8722 0.35739 0.0
C584 C 0.67721 0.88835 0.35861 0.0
C585 C 0.69165 0.88431 0.372 0.0
C586 C 0.67552 0.86395 0.38395 0.0
N587 N 0.59354 0.81615 0.38548 0.0
C588 C 0.60178 0.83324 0.37171 0.0
O589 O 0.5834 0.83391 0.36144 0.0
C590 C 0.68533 0.85443 0.39839 0.0
O591 O 0.74319 0.82499 0.41785 0.0
O592 O 0.75852 0.86423 0.43137 0.0
C593 C 0.5645 0.79991 0.3908 0.0
C594 C 0.55065 0.77021 0.39117 0.0
C595 C 0.52277 0.75434 0.39703 0.0
C596 C 0.50804 0.7684 0.4012 0.0
C597 C 0.52066 0.79788 0.39955 0.0
C598 C 0.54918 0.81363 0.39466 0.0
O599 O 0.7885 0.9203 0.40107 0.0
O600 O 0.79128 0.93181 0.37462 0.0
O601 O 0.72661 0.842 0.37735 0.0
O602 O 0.73783 0.85426 0.35132 0.0
O603 O 0.71215 0.86981 0.40445 0.0
C604 C 0.81589 0.86403 0.3837 0.0
O605 O 0.81361 0.87328 0.3697 0.0
O606 O 0.79865 0.86088 0.3953 0.0
C607 C 0.74991 0.83787 0.43169 0.0
H608 H 0.58056 0.72288 0.4155 0.0
H609 H 0.57533 0.78265 0.44893 0.0
H610 H 0.56383 0.73318 0.4422 0.0
H611 H 0.67894 0.80538 0.38312 0.0
H612 H 0.69493 0.82656 0.33133 0.0
H613 H 0.61001 0.78793 0.35089 0.0
H614 H 0.65657 0.88129 0.43775 0.0
H615 H 0.61766 0.87924 0.39095 0.0
H616 H 0.66765 0.95804 0.41533 0.0
H617 H 0.63632 0.87523 0.34713 0.0
H618 H 0.68916 0.90384 0.34913 0.0
H619 H 0.7145 0.89627 0.37277 0.0
H620 H 0.56132 0.75939 0.3867 0.0
H621 H 0.48594 0.75604 0.40472 0.0
H622 H 0.55937 0.83646 0.39361 0.0
Cd623 Cd 0.89289 0.75318 0.90313 0.0
C624 C 0.86095 0.79401 0.89295 0.0
C625 C 0.78028 0.60403 0.92766 0.0
O626 O 0.76316 0.59786 0.94044 0.0
Cd627 Cd 0.89378 0.77192 0.87283 0.0
C628 C 0.80095 0.59426 0.92659 0.0
C629 C 0.84281 0.58077 0.91888 0.0
C630 C 0.83624 0.59678 0.90812 0.0
N631 N 0.81608 0.60248 0.91264 0.0
C632 C 0.80632 0.57814 0.93798 0.0
C633 C 0.82755 0.57142 0.93398 0.0
Co634 Co 0.80776 0.62299 0.89795 0.0
C635 C 0.84816 0.60835 0.89163 0.0
O636 O 0.86933 0.60653 0.88519 0.0
C637 C 0.84834 0.6391 0.86923 0.0
C638 C 0.86847 0.66724 0.87151 0.0
C639 C 0.87373 0.6871 0.85906 0.0
C640 C 0.86275 0.67763 0.84311 0.0
C641 C 0.84491 0.64852 0.83996 0.0
C642 C 0.8371 0.62922 0.8533 0.0
C643 C 0.88427 0.71657 0.86426 0.0
C644 C 0.76292 0.63328 0.91449 0.0
C645 C 0.76379 0.64991 0.92817 0.0
C646 C 0.74319 0.62768 0.90185 0.0
C647 C 0.72573 0.63951 0.90234 0.0
C648 C 0.72714 0.6565 0.91566 0.0
C649 C 0.74567 0.66137 0.92901 0.0
N650 N 0.77982 0.61969 0.91444 0.0
N651 N 0.83644 0.62227 0.8838 0.0
N652 N 0.83516 0.65991 0.90743 0.0
C653 C 0.85077 0.66444 0.92256 0.0
C654 C 0.84393 0.67477 0.9367 0.0
C655 C 0.87383 0.65993 0.92303 0.0
C656 C 0.85942 0.67982 0.95148 0.0
H657 H 0.82678 0.67925 0.93602 0.0
C658 C 0.8819 0.67421 0.95194 0.0
C659 C 0.88936 0.66438 0.93775 0.0
C660 C 0.85248 0.69133 0.96634 0.0
H661 H 0.87997 0.65347 0.91183 0.0
H662 H 0.8939 0.67792 0.96331 0.0
C663 C 0.91354 0.65913 0.93826 0.0
O664 O 0.86851 0.69765 0.98019 0.0
O665 O 0.83234 0.6953 0.96612 0.0
O666 O 0.9197 0.65008 0.92601 0.0
O667 O 0.92894 0.66433 0.9523 0.0
H668 H 0.86449 0.70535 0.98998 0.0
H669 H 0.94486 0.66118 0.95289 0.0
N670 N 0.79994 0.64368 0.8831 0.0
C671 C 0.78232 0.62912 0.87075 0.0
C672 C 0.77718 0.64413 0.85847 0.0
C673 C 0.79126 0.67402 0.85978 0.0
C674 C 0.80997 0.68821 0.87313 0.0
C675 C 0.81414 0.67183 0.88492 0.0
N676 N 0.77906 0.58968 0.88613 0.0
C677 C 0.7702 0.59823 0.87251 0.0
O678 O 0.75093 0.58007 0.86224 0.0
C679 C 0.8336 0.68136 0.89931 0.0
O680 O 0.92119 0.7396 0.92026 0.0
O681 O 0.89651 0.75424 0.93353 0.0
C682 C 0.76614 0.56048 0.89122 0.0
C683 C 0.78172 0.54633 0.89099 0.0
C684 C 0.76938 0.5181 0.89626 0.0
C685 C 0.74059 0.50339 0.9004 0.0
C686 C 0.72399 0.51641 0.89958 0.0
C687 C 0.73715 0.54528 0.8953 0.0
O688 O 0.87216 0.78573 0.90391 0.0
O689 O 0.86144 0.78788 0.87781 0.0
O690 O 0.88781 0.72195 0.87976 0.0
O691 O 0.88349 0.73431 0.85448 0.0
O692 O 0.84518 0.70812 0.90557 0.0
C693 C 0.95423 0.81189 0.8852 0.0
O694 O 0.94122 0.80976 0.87177 0.0
O695 O 0.9413 0.79449 0.89696 0.0
C696 C 0.91445 0.74591 0.93403 0.0
H697 H 0.85889 0.57547 0.91575 0.0
H698 H 0.79461 0.57096 0.9495 0.0
H699 H 0.83209 0.55892 0.94253 0.0
H700 H 0.87694 0.67399 0.8839 0.0
H701 H 0.86725 0.69296 0.83333 0.0
H702 H 0.82152 0.6071 0.85151 0.0
H703 H 0.77812 0.65336 0.93833 0.0
H704 H 0.74011 0.61309 0.892 0.0
H705 H 0.71263 0.66458 0.91584 0.0
H706 H 0.76294 0.63331 0.84825 0.0
H707 H 0.7878 0.68617 0.8504 0.0
H708 H 0.8211 0.71108 0.87398 0.0
H709 H 0.80323 0.55701 0.88652 0.0
H710 H 0.73077 0.48105 0.90332 0.0
H711 H 0.72488 0.55589 0.89487 0.0
Cd712 Cd 0.14474 0.89384 0.40164 0.0
C713 C 0.07238 0.86161 0.39161 0.0
C714 C 0.18168 0.78266 0.42813 0.0
O715 O 0.17086 0.76556 0.44093 0.0
Cd716 Cd 0.12705 0.89463 0.37039 0.0
C717 C 0.21201 0.80379 0.42718 0.0
C718 C 0.26708 0.84671 0.4198 0.0
C719 C 0.24461 0.83943 0.40881 0.0
N720 N 0.21889 0.81872 0.41316 0.0
C721 C 0.23338 0.80988 0.4388 0.0
C722 C 0.2612 0.83162 0.43495 0.0
Co723 Co 0.19015 0.80969 0.39826 0.0
C724 C 0.24498 0.85097 0.3922 0.0
O725 O 0.26787 0.87232 0.38579 0.0
C726 C 0.21462 0.84954 0.36921 0.0
C727 C 0.206 0.8693 0.37087 0.0
C728 C 0.19144 0.87369 0.35802 0.0
C729 C 0.19037 0.86206 0.34232 0.0
C730 C 0.20227 0.84462 0.33982 0.0
C731 C 0.21384 0.83778 0.35353 0.0
C732 C 0.17234 0.88431 0.36261 0.0
C733 C 0.13503 0.76447 0.41484 0.0
C734 C 0.11912 0.76478 0.42863 0.0
C735 C 0.12103 0.74486 0.40212 0.0
C736 C 0.09178 0.72708 0.40259 0.0
C737 C 0.07607 0.728 0.41599 0.0
C738 C 0.08959 0.74631 0.42945 0.0
N739 N 0.16552 0.78174 0.41481 0.0
N740 N 0.21953 0.83847 0.38414 0.0
N741 N 0.18012 0.83685 0.40736 0.0
C742 C 0.19106 0.85288 0.42237 0.0
C743 C 0.17453 0.84495 0.43678 0.0
C744 C 0.21786 0.87716 0.42249 0.0
C745 C 0.18497 0.86046 0.45156 0.0
H746 H 0.15343 0.82682 0.43635 0.0
C747 C 0.21224 0.88441 0.45164 0.0
C748 C 0.22875 0.8931 0.4371 0.0
C749 C 0.16737 0.85191 0.46685 0.0
H750 H 0.22997 0.88386 0.4111 0.0
H751 H 0.22044 0.89658 0.46296 0.0
C752 C 0.25714 0.91897 0.43719 0.0
O753 O 0.17734 0.86728 0.48093 0.0
O754 O 0.14374 0.83095 0.46681 0.0
O755 O 0.27183 0.92612 0.42468 0.0
O756 O 0.26691 0.93486 0.45109 0.0
H757 H 0.16617 0.86217 0.49101 0.0
H758 H 0.28528 0.95191 0.4514 0.0
N759 N 0.16173 0.80123 0.38322 0.0
C760 C 0.15913 0.7836 0.37097 0.0
C761 C 0.13912 0.77807 0.35853 0.0
C762 C 0.12299 0.79183 0.35956 0.0
C763 C 0.12707 0.81061 0.3728 0.0
C764 C 0.14749 0.81516 0.38477 0.0
N765 N 0.19539 0.7812 0.38675 0.0
C766 C 0.17819 0.77189 0.37304 0.0
O767 O 0.1775 0.75259 0.36297 0.0
C768 C 0.15709 0.83485 0.39907 0.0
O769 O 0.18712 0.92505 0.41759 0.0
O770 O 0.15002 0.89716 0.43197 0.0
C771 C 0.21179 0.76872 0.39227 0.0
C772 C 0.24148 0.78481 0.39264 0.0
C773 C 0.25751 0.7732 0.39883 0.0
C774 C 0.24357 0.74462 0.40351 0.0
C775 C 0.21415 0.72758 0.4019 0.0
C776 C 0.19823 0.73983 0.3965 0.0
O777 O 0.09173 0.87322 0.40262 0.0
O778 O 0.07913 0.86196 0.3765 0.0
O779 O 0.16947 0.88758 0.37801 0.0
O780 O 0.15475 0.88419 0.35233 0.0
O781 O 0.1417 0.84632 0.40505 0.0
C782 C 0.14632 0.9546 0.38359 0.0
O783 O 0.13681 0.94213 0.36984 0.0
O784 O 0.15012 0.94143 0.39547 0.0
C785 C 0.17566 0.917 0.43176 0.0
H786 H 0.28835 0.86319 0.41678 0.0
H787 H 0.22887 0.79836 0.45038 0.0
H788 H 0.27816 0.83672 0.44367 0.0
H789 H 0.20731 0.87822 0.38308 0.0
H790 H 0.17944 0.86571 0.33223 0.0
H791 H 0.22089 0.82252 0.35221 0.0
H792 H 0.12985 0.7789 0.43889 0.0
H793 H 0.13263 0.74207 0.39221 0.0
H794 H 0.05352 0.71325 0.41614 0.0
H795 H 0.13607 0.7638 0.34838 0.0
H796 H 0.10749 0.78809 0.35006 0.0
H797 H 0.11511 0.82152 0.37343 0.0
H798 H 0.25216 0.80617 0.38794 0.0
H799 H 0.25593 0.73508 0.40742 0.0
H800 H 0.17543 0.72694 0.39544 0.0
Cd801 Cd 0.25248 0.14188 0.90071 0.0
C802 C 0.20919 0.07148 0.88785 0.0
C803 C 0.40098 0.17834 0.92755 0.0
O804 O 0.40728 0.1675 0.94032 0.0
Cd805 Cd 0.22397 0.12369 0.8591 0.0
C806 C 0.4101 0.20866 0.92664 0.0
C807 C 0.42127 0.26349 0.91955 0.0
C808 C 0.40693 0.2412 0.90831 0.0
N809 N 0.40214 0.21554 0.9126 0.0
C810 C 0.42483 0.22992 0.93843 0.0
C811 C 0.43036 0.25761 0.93474 0.0
Co812 Co 0.38171 0.18665 0.89791 0.0
C813 C 0.39524 0.24144 0.89185 0.0
O814 O 0.39647 0.26425 0.88554 0.0
C815 C 0.36512 0.21079 0.86925 0.0
C816 C 0.33642 0.20075 0.87107 0.0
C817 C 0.31808 0.18893 0.85761 0.0
C818 C 0.32934 0.19165 0.84162 0.0
C819 C 0.3588 0.20456 0.83924 0.0
C820 C 0.37669 0.21317 0.8533 0.0
C821 C 0.2878 0.17013 0.86105 0.0
C822 C 0.37251 0.13175 0.91416 0.0
C823 C 0.35618 0.11574 0.92786 0.0
C824 C 0.37821 0.11793 0.90137 0.0
C825 C 0.36691 0.08869 0.9018 0.0
C826 C 0.35037 0.07287 0.9152 0.0
C827 C 0.34537 0.08625 0.92867 0.0
N828 N 0.3857 0.16222 0.91422 0.0
N829 N 0.38155 0.21579 0.884 0.0
N830 N 0.34483 0.17653 0.90762 0.0
C831 C 0.34016 0.18783 0.92262 0.0
C832 C 0.33052 0.17114 0.93697 0.0
C833 C 0.34397 0.21516 0.92278 0.0
C834 C 0.32556 0.18191 0.95167 0.0
H835 H 0.32658 0.14966 0.93653 0.0
C836 C 0.33068 0.20985 0.95184 0.0
C837 C 0.33982 0.22663 0.93743 0.0
C838 C 0.3147 0.16397 0.96676 0.0
H839 H 0.34976 0.22729 0.91141 0.0
H840 H 0.32711 0.2184 0.96314 0.0
C841 C 0.34472 0.25596 0.93766 0.0
O842 O 0.30837 0.17393 0.9805 0.0
O843 O 0.31127 0.14004 0.96683 0.0
O844 O 0.35289 0.27063 0.92516 0.0
O845 O 0.34018 0.26667 0.95171 0.0
H846 H 0.30106 0.16254 0.99044 0.0
H847 H 0.3431 0.28568 0.95212 0.0
N848 N 0.36112 0.15806 0.88305 0.0
C849 C 0.37561 0.15565 0.87044 0.0
C850 C 0.36063 0.13569 0.85805 0.0
C851 C 0.33081 0.11945 0.85951 0.0
C852 C 0.31665 0.12343 0.87308 0.0
C853 C 0.33302 0.14378 0.88499 0.0
N854 N 0.41501 0.19197 0.88582 0.0
C855 C 0.40641 0.17489 0.87202 0.0
O856 O 0.42452 0.17449 0.86141 0.0
C857 C 0.32349 0.1535 0.89946 0.0
O858 O 0.26769 0.18431 0.91757 0.0
O859 O 0.24943 0.14453 0.93088 0.0
C860 C 0.44434 0.20841 0.8906 0.0
C861 C 0.45874 0.23822 0.88971 0.0
C862 C 0.48814 0.25418 0.89245 0.0
C863 C 0.50291 0.23986 0.89586 0.0
C864 C 0.48923 0.21029 0.89593 0.0
C865 C 0.45983 0.19458 0.89371 0.0
O866 O 0.22056 0.08968 0.89947 0.0
O867 O 0.2105 0.07912 0.87279 0.0
O868 O 0.28007 0.16366 0.87605 0.0
O869 O 0.27048 0.15699 0.84947 0.0
O870 O 0.29657 0.13867 0.90539 0.0
C871 C 0.19576 0.15095 0.88398 0.0
O872 O 0.19637 0.14361 0.8691 0.0
O873 O 0.21247 0.15041 0.89484 0.0
C874 C 0.25962 0.17119 0.93131 0.0
H875 H 0.4254 0.28461 0.91672 0.0
H876 H 0.43163 0.22537 0.95008 0.0
H877 H 0.44159 0.27445 0.94365 0.0
H878 H 0.32821 0.1999 0.88342 0.0
H879 H 0.31519 0.18271 0.8311 0.0
H880 H 0.39924 0.22154 0.85192 0.0
H881 H 0.3525 0.1264 0.93806 0.0
H882 H 0.39246 0.12967 0.89143 0.0
H883 H 0.34277 0.05036 0.91534 0.0
H884 H 0.37144 0.13277 0.84763 0.0
H885 H 0.31866 0.10397 0.85006 0.0
H886 H 0.2938 0.11148 0.87401 0.0
H887 H 0.44754 0.24889 0.88588 0.0
H888 H 0.52559 0.25175 0.89793 0.0
H889 H 0.4492 0.17166 0.89346 0.0
Cd890 Cd 0.11628 0.25472 0.40032 0.0
C891 C 0.14748 0.21388 0.38911 0.0
C892 C 0.22998 0.40314 0.42608 0.0
O893 O 0.2474 0.40943 0.43871 0.0
Cd894 Cd 0.11389 0.23598 0.36924 0.0
C895 C 0.20931 0.41292 0.42528 0.0
C896 C 0.16741 0.42656 0.41806 0.0
C897 C 0.17366 0.41044 0.40717 0.0
N898 N 0.19384 0.40464 0.41147 0.0
C899 C 0.20428 0.42914 0.43679 0.0
C900 C 0.18302 0.43592 0.43304 0.0
Co901 Co 0.20202 0.38435 0.39649 0.0
C902 C 0.16169 0.39926 0.39063 0.0
O903 O 0.14062 0.40139 0.38432 0.0
C904 C 0.16158 0.36929 0.36778 0.0
C905 C 0.14118 0.34115 0.3697 0.0
C906 C 0.13575 0.32174 0.35694 0.0
C907 C 0.14703 0.33174 0.34111 0.0
C908 C 0.16535 0.36088 0.33838 0.0
C909 C 0.17314 0.37969 0.35197 0.0
C910 C 0.12468 0.292 0.36166 0.0
C911 C 0.24599 0.37267 0.41305 0.0
C912 C 0.2453 0.35686 0.42712 0.0
C913 C 0.26475 0.37645 0.40012 0.0
C914 C 0.2812 0.36349 0.40071 0.0
C915 C 0.27988 0.34729 0.41443 0.0
C916 C 0.26257 0.34449 0.42808 0.0
N917 N 0.23002 0.38725 0.41285 0.0
N918 N 0.17337 0.38552 0.38256 0.0
N919 N 0.17451 0.34732 0.40574 0.0
C920 C 0.1591 0.34257 0.42097 0.0
C921 C 0.16608 0.33198 0.43492 0.0
C922 C 0.13615 0.34722 0.42174 0.0
C923 C 0.15085 0.32684 0.44983 0.0
H924 H 0.18313 0.32739 0.43401 0.0
C925 C 0.12851 0.33263 0.4506 0.0
C926 C 0.12091 0.34272 0.43659 0.0
C927 C 0.15795 0.31509 0.46449 0.0
H928 H 0.12988 0.35387 0.41067 0.0
H929 H 0.11672 0.32885 0.46206 0.0
C930 C 0.09691 0.34822 0.43744 0.0
O931 O 0.14217 0.30869 0.47846 0.0
O932 O 0.17801 0.31099 0.46402 0.0
O933 O 0.09058 0.35741 0.42532 0.0
O934 O 0.08185 0.34308 0.45162 0.0
H935 H 0.14631 0.30085 0.48813 0.0
H936 H 0.06604 0.34638 0.45242 0.0
N937 N 0.20963 0.36386 0.38134 0.0
C938 C 0.22715 0.3786 0.36899 0.0
C939 C 0.23198 0.36375 0.35644 0.0
C940 C 0.21765 0.33383 0.35748 0.0
C941 C 0.19901 0.31945 0.37083 0.0
C942 C 0.19518 0.33568 0.3829 0.0
N943 N 0.2308 0.41779 0.38483 0.0
C944 C 0.23957 0.40947 0.37107 0.0
O945 O 0.25895 0.42778 0.3609 0.0
C946 C 0.17583 0.32597 0.39733 0.0
O947 O 0.08832 0.26861 0.41747 0.0
O948 O 0.11241 0.25321 0.43068 0.0
C949 C 0.24414 0.44674 0.39039 0.0
C950 C 0.22868 0.46094 0.39126 0.0
C951 C 0.24101 0.48836 0.39782 0.0
C952 C 0.26973 0.50253 0.40207 0.0
C953 C 0.28634 0.48979 0.39975 0.0
C954 C 0.27322 0.46153 0.39426 0.0
O955 O 0.13677 0.22212 0.40041 0.0
O956 O 0.14628 0.22 0.37405 0.0
O957 O 0.12187 0.28617 0.3771 0.0
O958 O 0.12415 0.27419 0.35138 0.0
O959 O 0.16413 0.29908 0.40335 0.0
C960 C 0.05412 0.19641 0.38267 0.0
O961 O 0.06624 0.1986 0.36889 0.0
O962 O 0.06783 0.21359 0.39437 0.0
C963 C 0.09475 0.26191 0.43121 0.0
H964 H 0.15139 0.43201 0.41508 0.0
H965 H 0.21629 0.43638 0.4482 0.0
H966 H 0.17876 0.44854 0.44167 0.0
H967 H 0.13255 0.33397 0.38202 0.0
H968 H 0.14249 0.31677 0.3311 0.0
H969 H 0.18898 0.4018 0.35047 0.0
H970 H 0.23183 0.35481 0.43751 0.0
H971 H 0.26791 0.39049 0.38995 0.0
H972 H 0.29361 0.33828 0.4147 0.0
H973 H 0.24614 0.37473 0.34622 0.0
H974 H 0.22084 0.3218 0.34789 0.0
H975 H 0.18767 0.29656 0.37146 0.0
H976 H 0.20723 0.45092 0.38672 0.0
H977 H 0.27957 0.52437 0.40617 0.0
H978 H 0.28559 0.45113 0.3928 0.0
Cd979 Cd 0.8692 0.11547 0.90091 0.0
C980 C 0.94119 0.14713 0.89058 0.0
C981 C 0.82529 0.22202 0.92776 0.0
O982 O 0.835 0.23878 0.94078 0.0
Cd983 Cd 0.89236 0.11075 0.86046 0.0
C984 C 0.79536 0.19986 0.92637 0.0
C985 C 0.74168 0.15488 0.91833 0.0
C986 C 0.76468 0.16384 0.90753 0.0
N987 N 0.78965 0.1855 0.91217 0.0
C988 C 0.77339 0.1921 0.93783 0.0
C989 C 0.7463 0.16931 0.93365 0.0
Co990 Co 0.81936 0.19592 0.8978 0.0
C991 C 0.7657 0.15289 0.89095 0.0
O992 O 0.74374 0.13089 0.88425 0.0
C993 C 0.79793 0.15645 0.86847 0.0
C994 C 0.80861 0.13828 0.87019 0.0
C995 C 0.82335 0.13454 0.85718 0.0
C996 C 0.82342 0.14568 0.84149 0.0
C997 C 0.8102 0.1619 0.83907 0.0
C998 C 0.79779 0.16771 0.85277 0.0
C999 C 0.84277 0.12405 0.86121 0.0
C1000 C 0.87264 0.24255 0.915 0.0
C1001 C 0.88853 0.24251 0.92882 0.0
C1002 C 0.88635 0.26273 0.9025 0.0
C1003 C 0.91544 0.2814 0.90326 0.0
C1004 C 0.93119 0.28075 0.91671 0.0
C1005 C 0.91784 0.26178 0.92991 0.0
N1006 N 0.84232 0.22414 0.91463 0.0
N1007 N 0.79153 0.16652 0.88332 0.0
N1008 N 0.83048 0.1698 0.90726 0.0
C1009 C 0.81902 0.153 0.92195 0.0
C1010 C 0.8344 0.16112 0.9368 0.0
C1011 C 0.79304 0.12775 0.92133 0.0
C1012 C 0.82354 0.14478 0.95127 0.0
H1013 H 0.85496 0.18003 0.93694 0.0
C1014 C 0.79704 0.11985 0.9506 0.0
C1015 C 0.78174 0.111 0.93564 0.0
C1016 C 0.83992 0.1535 0.96701 0.0
H1017 H 0.78192 0.12094 0.90963 0.0
H1018 H 0.78853 0.10705 0.96167 0.0
C1019 C 0.75423 0.08412 0.93495 0.0
O1020 O 0.82963 0.13731 0.98076 0.0
O1021 O 0.86285 0.17532 0.96762 0.0
O1022 O 0.74059 0.07671 0.92205 0.0
O1023 O 0.74413 0.06757 0.94859 0.0
H1024 H 0.84002 0.14251 0.99113 0.0
H1025 H 0.72636 0.04986 0.9484 0.0
N1026 N 0.84882 0.20577 0.88331 0.0
C1027 C 0.85112 0.22309 0.87096 0.0
C1028 C 0.87184 0.22948 0.85883 0.0
C1029 C 0.88894 0.21683 0.86026 0.0
C1030 C 0.88509 0.19824 0.87355 0.0
C1031 C 0.86394 0.19281 0.8852 0.0
N1032 N 0.81315 0.22361 0.886 0.0
C1033 C 0.83089 0.23346 0.87252 0.0
O1034 O 0.83101 0.25219 0.8622 0.0
C1035 C 0.85425 0.17285 0.89934 0.0
O1036 O 0.82648 0.08366 0.91643 0.0
O1037 O 0.86361 0.11065 0.9311 0.0
C1038 C 0.7958 0.23537 0.89104 0.0
C1039 C 0.76615 0.21849 0.89124 0.0
C1040 C 0.74931 0.23013 0.89571 0.0
C1041 C 0.76206 0.25906 0.8992 0.0
C1042 C 0.7915 0.2767 0.89811 0.0
C1043 C 0.80834 0.26462 0.89426 0.0
O1044 O 0.92174 0.13786 0.90158 0.0
O1045 O 0.93518 0.14262 0.87521 0.0
O1046 O 0.84753 0.1219 0.87641 0.0
O1047 O 0.85816 0.1221 0.85014 0.0
O1048 O 0.8698 0.16165 0.90541 0.0
C1049 C 0.86635 0.05297 0.88315 0.0
O1050 O 0.8752 0.06279 0.86873 0.0
O1051 O 0.86417 0.06838 0.89429 0.0
C1052 C 0.83789 0.091 0.93067 0.0
H1053 H 0.72098 0.13751 0.91511 0.0
H1054 H 0.77696 0.20305 0.94957 0.0
H1055 H 0.72891 0.16287 0.94227 0.0
H1056 H 0.80805 0.1296 0.88237 0.0
H1057 H 0.83458 0.14261 0.83129 0.0
H1058 H 0.78937 0.18186 0.85143 0.0
H1059 H 0.87795 0.22788 0.9389 0.0
H1060 H 0.8746 0.26515 0.89254 0.0
H1061 H 0.95358 0.29609 0.91709 0.0
H1062 H 0.87467 0.24355 0.84862 0.0
H1063 H 0.90499 0.22123 0.85099 0.0
H1064 H 0.89774 0.18809 0.87445 0.0
H1065 H 0.75606 0.19673 0.88722 0.0
H1066 H 0.74874 0.26809 0.90191 0.0
H1067 H 0.83112 0.27798 0.89344 0.0
H1068 H 0.18353 0.49924 0.12766 0.0
H1069 H 0.1754 0.53948 0.1277 0.0
H1070 H 0.20313 0.55723 0.0767 0.0
H1071 H 0.21203 0.5175 0.07684 0.0
H1072 H 0.23445 0.601 0.09616 0.0
H1073 H 0.12196 0.56421 0.10996 0.0
H1074 H 0.13739 0.55084 0.12446 0.0
H1075 H 0.13396 0.54052 0.10296 0.0
C1076 C 0.18669 0.511 0.11626 0.0
C1077 C 0.19838 0.50531 0.10224 0.0
C1078 C 0.18202 0.53403 0.11627 0.0
C1079 C 0.18856 0.55144 0.10218 0.0
C1080 C 0.1979 0.54415 0.08772 0.0
H1081 H 0.19632 0.71538 0.09216 0.0
H1082 H 0.17967 0.66442 0.08986 0.0
C1083 C 0.20286 0.52138 0.08777 0.0
C1084 C 0.19053 0.57961 0.10337 0.0
H1085 H 0.1549 0.61374 0.11485 0.0
C1086 C 0.21686 0.60365 0.10001 0.0
C1087 C 0.16767 0.58324 0.10843 0.0
C1088 C 0.13858 0.55831 0.1115 0.0
C1089 C 0.22121 0.63106 0.10196 0.0
C1090 C 0.19878 0.63472 0.10771 0.0
C1091 C 0.17214 0.61083 0.11062 0.0
C1092 C 0.20344 0.66347 0.1111 0.0
C1093 C 0.24998 0.65602 0.09803 0.0
C1094 C 0.22133 0.67942 0.12418 0.0
C1095 C 0.23078 0.70832 0.12547 0.0
C1096 C 0.22228 0.72171 0.11381 0.0
C1097 C 0.20273 0.70537 0.10144 0.0
C1098 C 0.19334 0.67636 0.10009 0.0
H1099 H 0.26295 0.64976 0.09041 0.0
H1100 H 0.24794 0.67265 0.09128 0.0
H1101 H 0.26149 0.66536 0.1098 0.0
H1102 H 0.22933 0.66984 0.1328 0.0
H1103 H 0.24602 0.72058 0.13503 0.0
H1104 H 0.5319 0.24553 0.63338 0.0
H1105 H 0.5626 0.22478 0.63244 0.0
H1106 H 0.51247 0.16977 0.59252 0.0
H1107 H 0.48169 0.19075 0.59343 0.0
H1108 H 0.55112 0.16534 0.63384 0.0
H1109 H 0.59476 0.22054 0.57354 0.0
H1110 H 0.57478 0.23037 0.58714 0.0
H1111 H 0.55704 0.19804 0.5755 0.0
C1112 C 0.5271 0.22856 0.62467 0.0
C1113 C 0.50445 0.21959 0.6135 0.0
C1114 C 0.54458 0.21671 0.62415 0.0
C1115 C 0.53993 0.19591 0.61234 0.0
C1116 C 0.51645 0.18588 0.60169 0.0
H1117 H 0.68612 0.17534 0.58876 0.0
H1118 H 0.63586 0.16236 0.58837 0.0
C1119 C 0.49877 0.19765 0.60229 0.0
C1120 C 0.56142 0.18709 0.61035 0.0
H1121 H 0.61904 0.20102 0.58686 0.0
C1122 C 0.56564 0.17257 0.6234 0.0
C1123 C 0.5802 0.19636 0.59666 0.0
C1124 C 0.57673 0.21231 0.58239 0.0
C1125 C 0.58904 0.16839 0.62354 0.0
C1126 C 0.60908 0.17966 0.61048 0.0
C1127 C 0.60372 0.19239 0.59687 0.0
C1128 C 0.63759 0.18258 0.61186 0.0
C1129 C 0.59247 0.15265 0.63792 0.0
C1130 C 0.6551 0.19785 0.62524 0.0
C1131 C 0.68349 0.20516 0.62544 0.0
C1132 C 0.69505 0.19745 0.61225 0.0
C1133 C 0.67745 0.18111 0.59917 0.0
C1134 C 0.64887 0.17383 0.59893 0.0
H1135 H 0.57153 0.13644 0.64286 0.0
H1136 H 0.60456 0.1421 0.63428 0.0
H1137 H 0.60396 0.1678 0.64812 0.0
H1138 H 0.64726 0.20561 0.6351 0.0
H1139 H 0.69684 0.21809 0.63554 0.0
H1140 H 0.29488 0.49758 0.13013 0.0
H1141 H 0.34567 0.5327 0.12868 0.0
H1142 H 0.3371 0.54501 0.07656 0.0
H1143 H 0.28648 0.51032 0.07801 0.0
H1144 H 0.39505 0.54367 0.10636 0.0
H1145 H 0.35767 0.62121 0.10085 0.0
H1146 H 0.33495 0.58527 0.10772 0.0
H1147 H 0.34276 0.59281 0.08601 0.0
C1148 C 0.30411 0.50716 0.11827 0.0
C1149 C 0.28684 0.50158 0.10421 0.0
C1150 C 0.33305 0.5272 0.11746 0.0
C1151 C 0.345 0.54171 0.10257 0.0
C1152 C 0.32821 0.53424 0.0882 0.0
H1153 H 0.48969 0.7019 0.07742 0.0
H1154 H 0.45002 0.65331 0.07603 0.0
C1155 C 0.29936 0.51446 0.08904 0.0
C1156 C 0.37359 0.56724 0.10244 0.0
H1157 H 0.40659 0.63893 0.09781 0.0
C1158 C 0.39769 0.56454 0.10451 0.0
C1159 C 0.37689 0.59443 0.10019 0.0
C1160 C 0.35174 0.59879 0.09871 0.0
C1161 C 0.42512 0.58841 0.10389 0.0
C1162 C 0.42835 0.61554 0.10134 0.0
C1163 C 0.40415 0.6181 0.09953 0.0
C1164 C 0.45633 0.64198 0.10078 0.0
C1165 C 0.45038 0.58439 0.10564 0.0
C1166 C 0.47389 0.6514 0.11487 0.0
C1167 C 0.49683 0.67915 0.11559 0.0
C1168 C 0.50225 0.69793 0.10232 0.0
C1169 C 0.48597 0.68779 0.08778 0.0
C1170 C 0.46328 0.66008 0.08701 0.0
H1171 H 0.44475 0.56213 0.10319 0.0
H1172 H 0.46758 0.59852 0.09702 0.0
H1173 H 0.45862 0.58979 0.11852 0.0
H1174 H 0.46868 0.63807 0.12577 0.0
H1175 H 0.50881 0.68661 0.12702 0.0
H1176 H 0.81258 0.29265 0.63229 0.0
H1177 H 0.83347 0.34432 0.63164 0.0
H1178 H 0.78799 0.33727 0.58643 0.0
H1179 H 0.76776 0.28597 0.58678 0.0
H1180 H 0.84314 0.38481 0.58691 0.0
H1181 H 0.78265 0.37692 0.64439 0.0
H1182 H 0.80682 0.36367 0.64563 0.0
H1183 H 0.7761 0.34612 0.63259 0.0
C1184 C 0.8076 0.30222 0.62201 0.0
C1185 C 0.78817 0.28524 0.60972 0.0
C1186 C 0.81935 0.3317 0.62173 0.0
C1187 C 0.81182 0.34459 0.60917 0.0
C1188 C 0.79398 0.3278 0.5963 0.0
H1189 H 0.79349 0.48194 0.58164 0.0
H1190 H 0.80489 0.44405 0.58239 0.0
C1191 C 0.78227 0.29846 0.59658 0.0
C1192 C 0.82015 0.375 0.60999 0.0
H1193 H 0.80584 0.42074 0.63105 0.0
C1194 C 0.83541 0.39285 0.59671 0.0
C1195 C 0.8101 0.38551 0.62279 0.0
C1196 C 0.79284 0.36712 0.63712 0.0
C1197 C 0.83996 0.42054 0.59557 0.0
C1198 C 0.82853 0.43047 0.60788 0.0
C1199 C 0.81468 0.41318 0.62163 0.0
C1200 C 0.82728 0.45692 0.60584 0.0
C1201 C 0.85645 0.43868 0.581 0.0
C1202 C 0.83649 0.47722 0.6186 0.0
C1203 C 0.82984 0.49892 0.61821 0.0
C1204 C 0.81354 0.50042 0.60515 0.0
C1205 C 0.80607 0.48128 0.59185 0.0
C1206 C 0.81278 0.45971 0.59222 0.0
H1207 H 0.87203 0.43279 0.57642 0.0
H1208 H 0.84164 0.43531 0.57066 0.0
H1209 H 0.86785 0.46151 0.58429 0.0
H1210 H 0.84752 0.47539 0.62929 0.0
H1211 H 0.8356 0.51317 0.62872 0.0
H1212 H 0.31127 0.78671 0.08436 0.0
H1213 H 0.36086 0.79872 0.08466 0.0
H1214 H 0.37459 0.84729 0.12945 0.0
H1215 H 0.3247 0.835 0.12931 0.0
H1216 H 0.41582 0.85025 0.08676 0.0
H1217 H 0.38824 0.78147 0.14284 0.0
H1218 H 0.36152 0.78169 0.12977 0.0
H1219 H 0.38166 0.8106 0.14371 0.0
C1220 C 0.32505 0.80056 0.09403 0.0
C1221 C 0.3141 0.80971 0.1069 0.0
C1222 C 0.35338 0.80744 0.09418 0.0
C1223 C 0.37127 0.82347 0.10723 0.0
C1224 C 0.36102 0.8346 0.11937 0.0
H1225 H 0.52031 0.80913 0.13176 0.0
H1226 H 0.48895 0.82929 0.13207 0.0
C1227 C 0.33262 0.82779 0.1192 0.0
C1228 C 0.39926 0.82539 0.109 0.0
H1229 H 0.43266 0.79711 0.13099 0.0
C1230 C 0.41977 0.83906 0.09659 0.0
C1231 C 0.4044 0.81082 0.12185 0.0
C1232 C 0.38282 0.79513 0.13528 0.0
C1233 C 0.44486 0.83774 0.09638 0.0
C1234 C 0.44922 0.82177 0.10869 0.0
C1235 C 0.42938 0.80939 0.12157 0.0
C1236 C 0.4721 0.81456 0.10742 0.0
C1237 C 0.4662 0.85311 0.08282 0.0
C1238 C 0.4736 0.80014 0.09335 0.0
C1239 C 0.49154 0.7888 0.09313 0.0
C1240 C 0.50817 0.79128 0.10706 0.0
C1241 C 0.50789 0.80704 0.12081 0.0
C1242 C 0.48987 0.81844 0.12102 0.0
H1243 H 0.46545 0.87214 0.07866 0.0
H1244 H 0.48804 0.85974 0.08698 0.0
H1245 H 0.46109 0.83888 0.07194 0.0
H1246 H 0.45972 0.79624 0.08285 0.0
H1247 H 0.49148 0.77696 0.08231 0.0
H1248 H 0.72325 0.48663 0.58367 0.0
H1249 H 0.6721 0.4552 0.58358 0.0
H1250 H 0.66644 0.48646 0.63183 0.0
H1251 H 0.71801 0.51752 0.63218 0.0
H1252 H 0.64151 0.42975 0.63132 0.0
H1253 H 0.60315 0.46281 0.5772 0.0
H1254 H 0.63207 0.45778 0.57149 0.0
H1255 H 0.63773 0.48512 0.58614 0.0
C1256 C 0.71106 0.48714 0.59415 0.0
C1257 C 0.72468 0.50433 0.608 0.0
C1258 C 0.68173 0.46941 0.594 0.0
C1259 C 0.66527 0.46866 0.6076 0.0
C1260 C 0.67866 0.48683 0.62113 0.0
H1261 H 0.49529 0.32349 0.628 0.0
H1262 H 0.53346 0.37315 0.62825 0.0
C1263 C 0.70811 0.50466 0.62129 0.0
C1264 C 0.63496 0.44624 0.60851 0.0
H1265 H 0.57406 0.41356 0.58564 0.0
C1266 C 0.6265 0.42661 0.62157 0.0
C1267 C 0.61536 0.44209 0.59577 0.0
C1268 C 0.62249 0.46328 0.58196 0.0
C1269 C 0.59979 0.40197 0.62163 0.0
C1270 C 0.5808 0.39701 0.60838 0.0
C1271 C 0.58864 0.41736 0.59578 0.0
C1272 C 0.55446 0.36926 0.60644 0.0
C1273 C 0.59286 0.38051 0.63529 0.0
C1274 C 0.55269 0.35117 0.59353 0.0
C1275 C 0.5309 0.32298 0.5933 0.0
C1276 C 0.51038 0.31237 0.60595 0.0
C1277 C 0.51075 0.33113 0.61806 0.0
C1278 C 0.53267 0.35941 0.6183 0.0
H1279 H 0.61154 0.38561 0.64316 0.0
H1280 H 0.57616 0.38 0.64339 0.0
H1281 H 0.58466 0.35901 0.62998 0.0
H1282 H 0.56919 0.35835 0.58421 0.0
H1283 H 0.53099 0.30901 0.58376 0.0
H1284 H 0.48356 0.79 0.42455 0.0
H1285 H 0.44547 0.80124 0.42374 0.0
H1286 H 0.47831 0.84618 0.37766 0.0
H1287 H 0.51624 0.83447 0.37822 0.0
H1288 H 0.44043 0.85114 0.4203 0.0
H1289 H 0.39942 0.77919 0.36551 0.0
H1290 H 0.42715 0.78107 0.37858 0.0
H1291 H 0.43476 0.80884 0.36397 0.0
C1292 C 0.48304 0.80284 0.41444 0.0
C1293 C 0.50264 0.81103 0.40133 0.0
C1294 C 0.46132 0.80932 0.41401 0.0
C1295 C 0.45873 0.82404 0.40047 0.0
C1296 C 0.4797 0.83442 0.3881 0.0
H1297 H 0.29469 0.80723 0.37481 0.0
H1298 H 0.34626 0.82768 0.37469 0.0
C1299 C 0.50152 0.82797 0.38852 0.0
C1300 C 0.43233 0.82531 0.39851 0.0
H1301 H 0.37053 0.79535 0.37654 0.0
C1302 C 0.4253 0.83934 0.41058 0.0
C1303 C 0.41261 0.80992 0.3858 0.0
C1304 C 0.41862 0.79371 0.37276 0.0
C1305 C 0.39872 0.83764 0.41059 0.0
C1306 C 0.37845 0.82097 0.39841 0.0
C1307 C 0.38606 0.80818 0.38585 0.0
C1308 C 0.34829 0.81354 0.39951 0.0
C1309 C 0.39247 0.85335 0.42381 0.0
C1310 C 0.33234 0.79932 0.41361 0.0
C1311 C 0.30302 0.78776 0.41371 0.0
C1312 C 0.28891 0.78988 0.39965 0.0
C1313 C 0.30499 0.80542 0.38586 0.0
C1314 C 0.33443 0.817 0.38576 0.0
H1315 H 0.41214 0.87256 0.42792 0.0
H1316 H 0.37724 0.85973 0.41933 0.0
H1317 H 0.3832 0.83942 0.4348 0.0
H1318 H 0.34234 0.79576 0.42423 0.0
H1319 H 0.29119 0.77608 0.42456 0.0
H1320 H 0.68184 0.51763 0.88152 0.0
H1321 H 0.63165 0.48155 0.88112 0.0
H1322 H 0.64599 0.43716 0.92089 0.0
H1323 H 0.69518 0.47415 0.92228 0.0
H1324 H 0.61218 0.43175 0.87175 0.0
H1325 H 0.57118 0.42103 0.93498 0.0
H1326 H 0.60438 0.45133 0.92894 0.0
H1327 H 0.60304 0.41948 0.93651 0.0
C1328 C 0.674 0.50086 0.89069 0.0
C1329 C 0.69271 0.49862 0.90177 0.0
C1330 C 0.64527 0.48002 0.89034 0.0
C1331 C 0.63468 0.45644 0.901 0.0
C1332 C 0.65308 0.45527 0.91278 0.0
H1333 H 0.53893 0.28655 0.87706 0.0
H1334 H 0.56917 0.33752 0.87807 0.0
C1335 C 0.68153 0.47632 0.91336 0.0
C1336 C 0.60608 0.43112 0.89829 0.0
H1337 H 0.55204 0.37609 0.91913 0.0
C1338 C 0.59868 0.42005 0.88212 0.0
C1339 C 0.58762 0.41589 0.91157 0.0
C1340 C 0.59189 0.42785 0.92891 0.0
C1341 C 0.57506 0.39325 0.87913 0.0
C1342 C 0.55903 0.37638 0.89274 0.0
C1343 C 0.56472 0.38851 0.90868 0.0
C1344 C 0.53895 0.34538 0.891 0.0
C1345 C 0.56804 0.38313 0.8614 0.0
C1346 C 0.51185 0.33232 0.89825 0.0
C1347 C 0.49463 0.30271 0.89812 0.0
C1348 C 0.5043 0.28564 0.89086 0.0
C1349 C 0.53093 0.29893 0.88304 0.0
C1350 C 0.54814 0.32828 0.88334 0.0
H1351 H 0.57305 0.40111 0.85293 0.0
H1352 H 0.58123 0.37393 0.85748 0.0
H1353 H 0.54537 0.36693 0.85989 0.0
H1354 H 0.50427 0.34496 0.90435 0.0
H1355 H 0.47433 0.29317 0.90428 0.0
H1356 H 0.2127 0.49983 0.3738 0.0
H1357 H 0.19594 0.53404 0.37587 0.0
H1358 H 0.21692 0.54523 0.428 0.0
H1359 H 0.23396 0.51148 0.42592 0.0
H1360 H 0.15676 0.54311 0.39874 0.0
H1361 H 0.27121 0.62252 0.40426 0.0
H1362 H 0.25869 0.58691 0.39698 0.0
H1363 H 0.25842 0.59372 0.4188 0.0
C1364 C 0.21288 0.50899 0.38578 0.0
C1365 C 0.2249 0.5034 0.39967 0.0
C1366 C 0.20334 0.52849 0.38695 0.0
C1367 C 0.20558 0.54241 0.40203 0.0
C1368 C 0.21527 0.5349 0.41621 0.0
H1369 H 0.21779 0.70027 0.42922 0.0
H1370 H 0.2093 0.65182 0.43019 0.0
C1371 C 0.225 0.51568 0.41502 0.0
C1372 C 0.20179 0.56747 0.40256 0.0
H1373 H 0.23917 0.63906 0.4079 0.0
C1374 C 0.1747 0.56414 0.40073 0.0
C1375 C 0.22532 0.59486 0.40499 0.0
C1376 C 0.25511 0.5999 0.40623 0.0
C1377 C 0.17048 0.58756 0.40174 0.0
C1378 C 0.19401 0.61487 0.40448 0.0
C1379 C 0.22107 0.61808 0.40605 0.0
C1380 C 0.19181 0.6409 0.40538 0.0
C1381 C 0.14092 0.58289 0.40021 0.0
C1382 C 0.18354 0.65044 0.39142 0.0
C1383 C 0.1881 0.6781 0.39094 0.0
C1384 C 0.20134 0.69665 0.40432 0.0
C1385 C 0.20749 0.68633 0.41877 0.0
C1386 C 0.20271 0.6587 0.4193 0.0
H1387 H 0.12466 0.56042 0.40244 0.0
H1388 H 0.13751 0.59648 0.40909 0.0
H1389 H 0.13786 0.58858 0.38745 0.0
H1390 H 0.1756 0.63734 0.38042 0.0
H1391 H 0.18357 0.68571 0.37957 0.0
H1392 H 0.71491 0.19859 0.92099 0.0
H1393 H 0.66342 0.17887 0.92281 0.0
H1394 H 0.66292 0.20633 0.8726 0.0
H1395 H 0.71411 0.22558 0.87079 0.0
H1396 H 0.63977 0.21207 0.92059 0.0
H1397 H 0.59214 0.12919 0.87243 0.0
H1398 H 0.62761 0.14216 0.88015 0.0
H1399 H 0.62091 0.16127 0.86423 0.0
C1400 C 0.70349 0.19937 0.91019 0.0
C1401 C 0.71814 0.21309 0.89566 0.0
C1402 C 0.67418 0.18827 0.91124 0.0
C1403 C 0.65915 0.1907 0.89776 0.0
C1404 C 0.6738 0.20343 0.883 0.0
H1405 H 0.52487 0.21324 0.87194 0.0
H1406 H 0.56209 0.20097 0.87411 0.0
C1407 C 0.70304 0.21452 0.88197 0.0
C1408 C 0.62928 0.18384 0.89974 0.0
H1409 H 0.56522 0.15196 0.88008 0.0
C1410 C 0.62321 0.19832 0.91202 0.0
C1411 C 0.60768 0.16591 0.88856 0.0
C1412 C 0.61234 0.14853 0.87571 0.0
C1413 C 0.59691 0.19713 0.91261 0.0
C1414 C 0.57586 0.18054 0.90078 0.0
C1415 C 0.58133 0.16467 0.88914 0.0
C1416 C 0.55005 0.1829 0.89873 0.0
C1417 C 0.59266 0.21531 0.92512 0.0
C1418 C 0.53008 0.17572 0.91157 0.0
C1419 C 0.50865 0.18274 0.91031 0.0
C1420 C 0.50698 0.19687 0.89617 0.0
C1421 C 0.52575 0.20223 0.88293 0.0
C1422 C 0.54699 0.19523 0.88417 0.0
H1423 H 0.61261 0.23023 0.93162 0.0
H1424 H 0.58418 0.22773 0.91897 0.0
H1425 H 0.5771 0.20154 0.93461 0.0
H1426 H 0.53179 0.16582 0.92283 0.0
H1427 H 0.49447 0.17859 0.9207 0.0
H1428 H 0.49139 0.72116 0.42277 0.0
H1429 H 0.46043 0.66987 0.42287 0.0
H1430 H 0.48946 0.66502 0.37378 0.0
H1431 H 0.52017 0.71669 0.37349 0.0
H1432 H 0.43225 0.64009 0.37565 0.0
H1433 H 0.46944 0.60103 0.42756 0.0
H1434 H 0.46486 0.62999 0.4339 0.0
H1435 H 0.49109 0.63564 0.41846 0.0
C1436 C 0.49155 0.7091 0.41211 0.0
C1437 C 0.508 0.72294 0.39806 0.0
C1438 C 0.47409 0.67972 0.41226 0.0
C1439 C 0.47283 0.66347 0.39842 0.0
C1440 C 0.49027 0.6771 0.38466 0.0
H1441 H 0.32691 0.49452 0.37792 0.0
H1442 H 0.37644 0.5327 0.37707 0.0
C1443 C 0.50787 0.70659 0.38452 0.0
C1444 C 0.45051 0.63312 0.39756 0.0
H1445 H 0.42005 0.57155 0.41985 0.0
C1446 C 0.42994 0.62485 0.38506 0.0
C1447 C 0.44745 0.61328 0.40988 0.0
C1448 C 0.46958 0.62037 0.4231 0.0
C1449 C 0.40545 0.59802 0.38519 0.0
C1450 C 0.40168 0.57864 0.39801 0.0
C1451 C 0.42295 0.58638 0.41003 0.0
C1452 C 0.37434 0.55189 0.40017 0.0
C1453 C 0.38295 0.59141 0.37225 0.0
C1454 C 0.35741 0.54883 0.41401 0.0
C1455 C 0.3293 0.52688 0.41463 0.0
C1456 C 0.31757 0.50757 0.4014 0.0
C1457 C 0.33534 0.50903 0.38831 0.0
C1458 C 0.36355 0.53103 0.38772 0.0
H1459 H 0.38697 0.61048 0.36509 0.0
H1460 H 0.38246 0.57563 0.36336 0.0
H1461 H 0.36175 0.58223 0.37813 0.0
H1462 H 0.36533 0.56453 0.42383 0.0
H1463 H 0.31621 0.52606 0.42498 0.0
H1464 H 0.78143 0.30584 0.92215 0.0
H1465 H 0.79221 0.35507 0.92088 0.0
H1466 H 0.83885 0.36707 0.87548 0.0
H1467 H 0.82786 0.3176 0.87661 0.0
H1468 H 0.84416 0.41036 0.91737 0.0
H1469 H 0.77152 0.37948 0.86293 0.0
H1470 H 0.77236 0.35354 0.87645 0.0
H1471 H 0.80035 0.37245 0.86176 0.0
C1472 C 0.79451 0.31916 0.9121 0.0
C1473 C 0.8036 0.30783 0.89941 0.0
C1474 C 0.80071 0.34729 0.9114 0.0
C1475 C 0.81594 0.36458 0.89796 0.0
C1476 C 0.8268 0.35397 0.88588 0.0
H1477 H 0.80236 0.5139 0.87192 0.0
H1478 H 0.82152 0.48159 0.87158 0.0
C1479 C 0.82073 0.3258 0.88662 0.0
C1480 C 0.81765 0.39244 0.89585 0.0
H1481 H 0.78823 0.42477 0.87387 0.0
C1482 C 0.83232 0.41374 0.9077 0.0
C1483 C 0.80226 0.39685 0.8832 0.0
C1484 C 0.78555 0.3744 0.87038 0.0
C1485 C 0.83127 0.43898 0.90754 0.0
C1486 C 0.81455 0.44269 0.89546 0.0
C1487 C 0.80109 0.42199 0.88311 0.0
C1488 C 0.80774 0.46588 0.89653 0.0
C1489 C 0.84772 0.46122 0.92049 0.0
C1490 C 0.79413 0.46822 0.91074 0.0
C1491 C 0.78328 0.48659 0.91094 0.0
C1492 C 0.78557 0.50289 0.89689 0.0
C1493 C 0.80049 0.50173 0.88296 0.0
C1494 C 0.81131 0.4832 0.88273 0.0
H1495 H 0.86679 0.4604 0.92447 0.0
H1496 H 0.85443 0.48282 0.91581 0.0
H1497 H 0.8342 0.45718 0.93161 0.0
H1498 H 0.79049 0.45471 0.92139 0.0
H1499 H 0.77197 0.48715 0.92186 0.0
H1500 H 0.19066 0.33959 0.31857 0.0
H1501 H 0.20251 0.34949 0.28913 0.0
H1502 H 0.17869 0.41383 0.29043 0.0
H1503 H 0.16665 0.40386 0.32007 0.0
H1504 H 0.1592 0.34266 0.26583 0.0
H1505 H 0.25481 0.45013 0.26322 0.0
H1506 H 0.2455 0.42823 0.2816 0.0
H1507 H 0.22576 0.44522 0.27616 0.0
C1508 C 0.18834 0.35615 0.31265 0.0
C1509 C 0.17738 0.37071 0.32153 0.0
C1510 C 0.1952 0.36184 0.29585 0.0
C1511 C 0.19145 0.38235 0.28758 0.0
C1512 C 0.18203 0.39812 0.29662 0.0
H1513 H 0.18965 0.39476 0.17801 0.0
H1514 H 0.18642 0.40509 0.20751 0.0
C1515 C 0.17517 0.39243 0.31352 0.0
C1516 C 0.19453 0.38474 0.26922 0.0
H1517 H 0.2366 0.42666 0.23765 0.0
C1518 C 0.17594 0.36116 0.25967 0.0
C1519 C 0.2163 0.40894 0.26121 0.0
C1520 C 0.23692 0.43462 0.27099 0.0
C1521 C 0.17897 0.36081 0.24238 0.0
C1522 C 0.20133 0.38454 0.23442 0.0
C1523 C 0.21942 0.40856 0.24383 0.0
C1524 C 0.20748 0.38311 0.21663 0.0
C1525 C 0.15879 0.33468 0.23273 0.0
C1526 C 0.22103 0.36806 0.21207 0.0
C1527 C 0.22278 0.36211 0.19539 0.0
C1528 C 0.21111 0.37118 0.18292 0.0
C1529 C 0.19904 0.38777 0.18738 0.0
C1530 C 0.19714 0.39361 0.20418 0.0
H1531 H 0.14015 0.31985 0.24027 0.0
H1532 H 0.15129 0.34061 0.22142 0.0
H1533 H 0.16998 0.32344 0.22865 0.0
H1534 H 0.22905 0.35973 0.2215 0.0
H1535 H 0.23228 0.34938 0.19227 0.0
H1536 H 0.76601 0.15553 0.81984 0.0
H1537 H 0.7678 0.16677 0.79005 0.0
H1538 H 0.85871 0.20576 0.79096 0.0
H1539 H 0.85698 0.19447 0.82051 0.0
H1540 H 0.80124 0.21999 0.76934 0.0
H1541 H 0.82851 0.13597 0.75855 0.0
H1542 H 0.81325 0.13908 0.77779 0.0
H1543 H 0.85031 0.16195 0.77372 0.0
C1544 C 0.78636 0.16717 0.81372 0.0
C1545 C 0.81133 0.17384 0.82235 0.0
C1546 C 0.78737 0.17351 0.79674 0.0
C1547 C 0.81336 0.18666 0.78826 0.0
C1548 C 0.83842 0.19526 0.79722 0.0
H1549 H 0.88783 0.2267 0.69288 0.0
H1550 H 0.87448 0.22287 0.72212 0.0
C1551 C 0.83741 0.18884 0.81408 0.0
C1552 C 0.81449 0.18889 0.76986 0.0
H1553 H 0.83477 0.16622 0.73576 0.0
C1554 C 0.80818 0.208 0.76192 0.0
C1555 C 0.82328 0.17299 0.76022 0.0
C1556 C 0.82899 0.15113 0.76795 0.0
C1557 C 0.81192 0.21264 0.74464 0.0
C1558 C 0.82202 0.19768 0.73518 0.0
C1559 C 0.82718 0.17779 0.74306 0.0
C1560 C 0.82961 0.20364 0.71734 0.0
C1561 C 0.80625 0.23429 0.73665 0.0
C1562 C 0.80881 0.19465 0.7049 0.0
C1563 C 0.81643 0.1968 0.68806 0.0
C1564 C 0.84493 0.20776 0.68351 0.0
C1565 C 0.86569 0.21794 0.69602 0.0
C1566 C 0.85811 0.21584 0.71272 0.0
H1567 H 0.80079 0.24588 0.74593 0.0
H1568 H 0.82511 0.24979 0.72952 0.0
H1569 H 0.78843 0.22357 0.72775 0.0
H1570 H 0.78665 0.18485 0.70822 0.0
H1571 H 0.79998 0.18855 0.67869 0.0
H1572 H 0.61327 0.81975 0.3264 0.0
H1573 H 0.60102 0.82065 0.29705 0.0
H1574 H 0.65429 0.78668 0.28276 0.0
H1575 H 0.66601 0.78522 0.31182 0.0
H1576 H 0.63864 0.8514 0.27215 0.0
H1577 H 0.58416 0.73808 0.2555 0.0
H1578 H 0.5896 0.75008 0.27681 0.0
H1579 H 0.61738 0.74875 0.26547 0.0
C1580 C 0.62175 0.81184 0.31699 0.0
C1581 C 0.64059 0.8024 0.32139 0.0
C1582 C 0.61488 0.8125 0.30024 0.0
C1583 C 0.62638 0.80331 0.28768 0.0
C1584 C 0.64459 0.79324 0.29218 0.0
H1585 H 0.67061 0.81966 0.18666 0.0
H1586 H 0.6587 0.80734 0.21592 0.0
C1587 C 0.65151 0.79269 0.30881 0.0
C1588 C 0.62174 0.80648 0.26977 0.0
H1589 H 0.60588 0.77111 0.23272 0.0
C1590 C 0.63081 0.83375 0.26356 0.0
C1591 C 0.61153 0.78346 0.25853 0.0
C1592 C 0.59984 0.75342 0.26445 0.0
C1593 C 0.63179 0.83889 0.24637 0.0
C1594 C 0.6231 0.81608 0.23511 0.0
C1595 C 0.61264 0.7886 0.24135 0.0
C1596 C 0.62759 0.82081 0.2169 0.0
C1597 C 0.64372 0.86893 0.24035 0.0
C1598 C 0.61334 0.83159 0.20755 0.0
C1599 C 0.62012 0.83864 0.19075 0.0
C1600 C 0.64137 0.83518 0.18312 0.0
C1601 C 0.65447 0.82299 0.1923 0.0
C1602 C 0.64759 0.81582 0.20899 0.0
H1603 H 0.65342 0.88459 0.25058 0.0
H1604 H 0.65997 0.87389 0.23061 0.0
H1605 H 0.6265 0.87141 0.23477 0.0
H1606 H 0.59752 0.83521 0.21334 0.0
H1607 H 0.60968 0.84796 0.18396 0.0
H1608 H 0.82015 0.67021 0.81995 0.0
H1609 H 0.80896 0.66073 0.79042 0.0
H1610 H 0.83309 0.59661 0.7917 0.0
H1611 H 0.8444 0.60612 0.82142 0.0
H1612 H 0.85135 0.66836 0.76712 0.0
H1613 H 0.75819 0.55939 0.76433 0.0
H1614 H 0.76759 0.58074 0.78294 0.0
H1615 H 0.78776 0.5645 0.7768 0.0
C1616 C 0.82271 0.65382 0.814 0.0
C1617 C 0.83349 0.63914 0.82293 0.0
C1618 C 0.81624 0.64836 0.79714 0.0
C1619 C 0.8202 0.62799 0.78883 0.0
C1620 C 0.82954 0.61219 0.79789 0.0
H1621 H 0.82184 0.61337 0.6793 0.0
H1622 H 0.82565 0.60433 0.70895 0.0
C1623 C 0.836 0.61763 0.81486 0.0
C1624 C 0.8172 0.62562 0.77045 0.0
H1625 H 0.77664 0.58269 0.73873 0.0
C1626 C 0.83517 0.64952 0.76092 0.0
C1627 C 0.79619 0.60097 0.76236 0.0
C1628 C 0.77614 0.57491 0.77206 0.0
C1629 C 0.83226 0.64972 0.74362 0.0
C1630 C 0.81067 0.62549 0.73558 0.0
C1631 C 0.79323 0.60119 0.74496 0.0
C1632 C 0.80457 0.62651 0.71773 0.0
C1633 C 0.85182 0.67616 0.73402 0.0
C1634 C 0.7908 0.64122 0.71293 0.0
C1635 C 0.78868 0.64641 0.69617 0.0
C1636 C 0.80022 0.63693 0.68382 0.0
C1637 C 0.81257 0.62072 0.68855 0.0
C1638 C 0.81481 0.61562 0.70544 0.0
H1639 H 0.87033 0.69127 0.74155 0.0
H1640 H 0.85955 0.67072 0.72261 0.0
H1641 H 0.84004 0.68689 0.73012 0.0
H1642 H 0.78277 0.64978 0.72222 0.0
H1643 H 0.77887 0.65877 0.69287 0.0
H1644 H 0.12556 0.78617 0.19475 0.0
H1645 H 0.13919 0.78748 0.22372 0.0
H1646 H 0.22537 0.81698 0.20868 0.0
H1647 H 0.21189 0.81655 0.17946 0.0
H1648 H 0.16325 0.76175 0.24136 0.0
H1649 H 0.2341 0.87877 0.24068 0.0
H1650 H 0.20994 0.86007 0.22392 0.0
H1651 H 0.24221 0.85909 0.22595 0.0
C1652 C 0.14742 0.79286 0.19758 0.0
C1653 C 0.16772 0.80161 0.18483 0.0
C1654 C 0.15516 0.79344 0.21416 0.0
C1655 C 0.18339 0.80281 0.21845 0.0
C1656 C 0.20354 0.8102 0.2057 0.0
H1657 H 0.24548 0.84648 0.32161 0.0
H1658 H 0.24396 0.83288 0.2923 0.0
C1659 C 0.19578 0.80963 0.189 0.0
C1660 C 0.19137 0.806 0.23634 0.0
H1661 H 0.22684 0.85583 0.26632 0.0
C1662 C 0.17748 0.78227 0.24678 0.0
C1663 C 0.20997 0.83276 0.24346 0.0
C1664 C 0.22481 0.85922 0.233 0.0
C1665 C 0.18086 0.78474 0.26413 0.0
C1666 C 0.19837 0.8117 0.27127 0.0
C1667 C 0.21344 0.83517 0.26081 0.0
C1668 C 0.19899 0.81661 0.28949 0.0
C1669 C 0.16518 0.75856 0.2747 0.0
C1670 C 0.17421 0.81168 0.29767 0.0
C1671 C 0.17508 0.81952 0.31429 0.0
C1672 C 0.20078 0.8325 0.32308 0.0
C1673 C 0.22538 0.83633 0.31513 0.0
C1674 C 0.22455 0.8287 0.29841 0.0
H1675 H 0.16019 0.73915 0.26758 0.0
H1676 H 0.17764 0.75973 0.28588 0.0
H1677 H 0.14489 0.75659 0.27886 0.0
H1678 H 0.15434 0.80284 0.29101 0.0
H1679 H 0.15578 0.81619 0.32014 0.0
H1680 H 0.39737 0.19044 0.82721 0.0
H1681 H 0.41071 0.19048 0.79797 0.0
H1682 H 0.35738 0.22421 0.78338 0.0
H1683 H 0.34461 0.22476 0.81234 0.0
H1684 H 0.37408 0.15999 0.77288 0.0
H1685 H 0.4277 0.27337 0.75654 0.0
H1686 H 0.42182 0.26123 0.77782 0.0
H1687 H 0.39416 0.26229 0.76619 0.0
C1688 C 0.38914 0.19855 0.81777 0.0
C1689 C 0.36995 0.20761 0.82204 0.0
C1690 C 0.39664 0.19842 0.80108 0.0
C1691 C 0.3854 0.20776 0.78846 0.0
C1692 C 0.3669 0.21755 0.79286 0.0
H1693 H 0.34228 0.19086 0.68738 0.0
H1694 H 0.35413 0.20369 0.71659 0.0
C1695 C 0.35937 0.21758 0.80942 0.0
C1696 C 0.39048 0.20484 0.77058 0.0
H1697 H 0.40663 0.24043 0.73361 0.0
C1698 C 0.38187 0.17768 0.76432 0.0
C1699 C 0.40065 0.22792 0.75939 0.0
C1700 C 0.41188 0.25787 0.76537 0.0
C1701 C 0.3813 0.17268 0.74714 0.0
C1702 C 0.38992 0.19553 0.73592 0.0
C1703 C 0.39993 0.22291 0.74221 0.0
C1704 C 0.38571 0.19084 0.71769 0.0
C1705 C 0.36982 0.14272 0.74107 0.0
C1706 C 0.40027 0.18031 0.70841 0.0
C1707 C 0.39353 0.17298 0.69164 0.0
C1708 C 0.37202 0.17593 0.68397 0.0
C1709 C 0.35866 0.18797 0.69305 0.0
C1710 C 0.36549 0.19542 0.70972 0.0
H1711 H 0.36013 0.12698 0.75125 0.0
H1712 H 0.35367 0.13761 0.73125 0.0
H1713 H 0.38728 0.14055 0.73558 0.0
H1714 H 0.41625 0.177 0.71427 0.0
H1715 H 0.40415 0.16376 0.68492 0.0
H1716 H 0.28015 0.22784 0.9359 0.0
H1717 H 0.27541 0.25121 0.96062 0.0
H1718 H 0.23232 0.17071 0.98588 0.0
H1719 H 0.23831 0.14758 0.96158 0.0
H1720 H 0.22928 0.24474 0.97357 0.0
H1721 H 0.28275 0.21778 0.02224 0.0
H1722 H 0.28648 0.21241 1.00048 0.0
H1723 H 0.25667 0.18612 0.01218 0.0
C1724 C 0.27028 0.21525 0.94687 0.0
C1725 C 0.25967 0.18586 0.94679 0.0
C1726 C 0.26749 0.22862 0.96099 0.0
C1727 C 0.25379 0.21285 0.97525 0.0
C1728 C 0.2437 0.18357 0.97527 0.0
H1729 H 0.14979 0.23734 0.04422 0.0
H1730 H 0.1725 0.23096 0.01984 0.0
C1731 C 0.2469 0.17027 0.96127 0.0
C1732 C 0.24758 0.22632 0.98948 0.0
H1733 H 0.24687 0.2284 0.03184 0.0
C1734 C 0.23361 0.24159 0.9863 0.0
C1735 C 0.25373 0.22289 0.00611 0.0
C1736 C 0.27103 0.20919 0.01042 0.0
C1737 C 0.22427 0.25209 0.99929 0.0
C1738 C 0.22805 0.24629 0.01594 0.0
C1739 C 0.24345 0.23246 0.0191 0.0
C1740 C 0.21482 0.25274 0.0302 0.0
C1741 C 0.2104 0.26924 0.99497 0.0
C1742 C 0.23085 0.26675 0.04433 0.0
C1743 C 0.21772 0.26977 0.05848 0.0
C1744 C 0.18834 0.25906 0.05874 0.0
C1745 C 0.17249 0.24599 0.04439 0.0
C1746 C 0.18554 0.24257 0.03035 0.0
H1747 H 0.21875 0.28074 0.98306 0.0
H1748 H 0.18732 0.25479 0.99337 0.0
H1749 H 0.21375 0.28486 0.00482 0.0
H1750 H 0.25345 0.27474 0.04455 0.0
H1751 H 0.23051 0.27989 0.06936 0.0
H1752 H 0.09601 0.23843 0.46089 0.0
H1753 H 0.06527 0.22988 0.48481 0.0
H1754 H 0.03009 0.27621 0.46099 0.0
H1755 H 0.05969 0.28343 0.43659 0.0
H1756 H 0.05667 0.25994 0.50688 0.0
H1757 H 0.95959 0.20235 0.46858 0.0
H1758 H 0.99436 0.21356 0.46042 0.0
H1759 H 0.98195 0.23843 0.46231 0.0
C1760 C 0.0819 0.247 0.46079 0.0
C1761 C 0.07992 0.26118 0.44674 0.0
C1762 C 0.06433 0.24212 0.4745 0.0
C1763 C 0.04468 0.25162 0.47451 0.0
C1764 C 0.04429 0.26774 0.46103 0.0
H1765 H 0.95033 0.22786 0.56744 0.0
H1766 H 0.9796 0.25051 0.54298 0.0
C1767 C 0.06145 0.27213 0.44716 0.0
C1768 C 0.0239 0.24338 0.48832 0.0
H1769 H 0.95309 0.20793 0.49698 0.0
C1770 C 0.03401 0.24868 0.50472 0.0
C1771 C 0.99429 0.22829 0.4855 0.0
C1772 C 0.98185 0.22005 0.46827 0.0
C1773 C 0.01547 0.23878 0.51835 0.0
C1774 C 0.98586 0.22414 0.51553 0.0
C1775 C 0.97574 0.21942 0.49914 0.0
C1776 C 0.96511 0.21142 0.52935 0.0
C1777 C 0.02794 0.24287 0.53557 0.0
C1778 C 0.94558 0.18222 0.52932 0.0
C1779 C 0.92817 0.16936 0.54307 0.0
C1780 C 0.93019 0.18541 0.55719 0.0
C1781 C 0.9485 0.21488 0.5568 0.0
C1782 C 0.96549 0.22782 0.5429 0.0
H1783 H 0.05022 0.24753 0.53522 0.0
H1784 H 0.02777 0.26106 0.54162 0.0
H1785 H 0.01548 0.22378 0.54336 0.0
H1786 H 0.94464 0.16912 0.51895 0.0
H1787 H 0.91417 0.14664 0.54294 0.0
H1788 H 0.75559 0.90136 0.04131 0.0
H1789 H 0.76359 0.9304 0.01652 0.0
H1790 H 0.75138 0.98994 0.04549 0.0
H1791 H 0.7427 0.96073 0.07023 0.0
H1792 H 0.72935 0.98271 0.0132 0.0
H1793 H 0.83997 0.00378 0.01317 0.0
H1794 H 0.81373 0.96693 0.01188 0.0
H1795 H 0.81609 0.98669 0.03029 0.0
C1796 C 0.75414 0.92039 0.04235 0.0
C1797 C 0.74908 0.92905 0.05779 0.0
C1798 C 0.75881 0.93701 0.02819 0.0
C1799 C 0.75883 0.96271 0.02928 0.0
C1800 C 0.75173 0.97033 0.04441 0.0
H1801 H 0.85587 0.10361 0.96283 0.0
H1802 H 0.83403 0.07435 0.9874 0.0
C1803 C 0.74687 0.95363 0.05855 0.0
C1804 C 0.76876 0.98285 0.01513 0.0
H1805 H 0.82651 0.02225 0.99069 0.0
C1806 C 0.75058 0.99139 0.00825 0.0
C1807 C 0.7967 0.99467 0.00897 0.0
C1808 C 0.81789 0.98781 0.01653 0.0
C1809 C 0.75945 0.01103 0.99511 0.0
C1810 C 0.78707 0.02203 0.98858 0.0
C1811 C 0.80531 0.01376 0.99566 0.0
C1812 C 0.79769 0.04178 0.97424 0.0
C1813 C 0.73938 0.02019 0.98857 0.0
C1814 C 0.78417 0.0336 0.95873 0.0
C1815 C 0.79652 0.05043 0.94469 0.0
C1816 C 0.82282 0.07554 0.94586 0.0
C1817 C 0.8357 0.0843 0.96151 0.0
C1818 C 0.82323 0.0676 0.97556 0.0
H1819 H 0.72297 0.01678 0.9979 0.0
H1820 H 0.75086 0.04287 0.98495 0.0
H1821 H 0.72843 0.00745 0.97741 0.0
H1822 H 0.76476 0.01356 0.95731 0.0
H1823 H 0.78607 0.04309 0.9328 0.0
H1824 H 0.77275 0.86201 0.46163 0.0
H1825 H 0.78119 0.83945 0.4854 0.0
H1826 H 0.7363 0.75849 0.46076 0.0
H1827 H 0.72916 0.78125 0.43653 0.0
H1828 H 0.75076 0.79996 0.50703 0.0
H1829 H 0.81039 0.76263 0.46888 0.0
H1830 H 0.79906 0.78614 0.46081 0.0
H1831 H 0.77448 0.74871 0.46224 0.0
C1832 C 0.76448 0.83936 0.46131 0.0
C1833 C 0.7507 0.82348 0.44709 0.0
C1834 C 0.7693 0.82646 0.47493 0.0
C1835 C 0.76016 0.79738 0.47469 0.0
C1836 C 0.74448 0.78111 0.46101 0.0
H1837 H 0.78106 0.7238 0.56716 0.0
H1838 H 0.75935 0.73125 0.54254 0.0
C1839 C 0.74015 0.79411 0.44723 0.0
C1840 C 0.76821 0.78463 0.48848 0.0
H1841 H 0.80387 0.7495 0.49714 0.0
C1842 C 0.76227 0.78881 0.50486 0.0
C1843 C 0.78363 0.77045 0.48567 0.0
C1844 C 0.79253 0.76693 0.46847 0.0
C1845 C 0.77178 0.77981 0.51851 0.0
C1846 C 0.78672 0.76513 0.51569 0.0
C1847 C 0.79214 0.76043 0.4993 0.0
C1848 C 0.79896 0.75666 0.52956 0.0
C1849 C 0.76693 0.78745 0.53576 0.0
C1850 C 0.82818 0.76653 0.52993 0.0
C1851 C 0.84052 0.76152 0.54376 0.0
C1852 C 0.82392 0.74682 0.55758 0.0
C1853 C 0.79446 0.73547 0.55677 0.0
C1854 C 0.78205 0.73999 0.54278 0.0
H1855 H 0.76213 0.80498 0.53553 0.0
H1856 H 0.74859 0.76879 0.54147 0.0
H1857 H 0.78573 0.79392 0.54378 0.0
H1858 H 0.84168 0.77919 0.51981 0.0
H1859 H 0.86326 0.77043 0.54396 0.0
H1860 H 0.91301 0.76932 0.96372 0.0
H1861 H 0.94373 0.77799 0.98767 0.0
H1862 H 0.97921 0.73187 0.96387 0.0
H1863 H 0.94962 0.72453 0.93945 0.0
H1864 H 0.95258 0.7482 0.00979 0.0
H1865 H 0.04953 0.80588 0.97137 0.0
H1866 H 0.01472 0.79448 0.96323 0.0
H1867 H 0.02727 0.76974 0.96518 0.0
C1868 C 0.92718 0.76081 0.96363 0.0
C1869 C 0.92925 0.74666 0.94959 0.0
C1870 C 0.94474 0.76575 0.97735 0.0
C1871 C 0.96448 0.75637 0.97739 0.0
C1872 C 0.96495 0.74026 0.9639 0.0
H1873 H 0.05997 0.7816 0.07014 0.0
H1874 H 0.0301 0.75854 0.04594 0.0
C1875 C 0.9478 0.73581 0.95002 0.0
C1876 C 0.9853 0.76476 0.99119 0.0
H1877 H 0.05613 0.80059 0.99978 0.0
C1878 C 0.97523 0.75954 0.0076 0.0
C1879 C 0.0149 0.77996 0.98834 0.0
C1880 C 0.0273 0.78812 0.9711 0.0
C1881 C 0.99381 0.76962 0.02122 0.0
C1882 C 0.02342 0.7844 0.01837 0.0
C1883 C 0.03348 0.78901 1.00196 0.0
C1884 C 0.04422 0.7974 0.03214 0.0
C1885 C 0.9814 0.76556 0.03845 0.0
C1886 C 0.06363 0.82662 0.03197 0.0
C1887 C 0.08136 0.83971 0.04557 0.0
C1888 C 0.07983 0.82388 0.05969 0.0
C1889 C 0.06149 0.79441 0.05949 0.0
C1890 C 0.04415 0.78124 0.04574 0.0
H1891 H 0.95905 0.7607 0.03813 0.0
H1892 H 0.98177 0.74752 0.04454 0.0
H1893 H 0.99376 0.78475 0.0462 0.0
H1894 H 0.06432 0.83955 0.02157 0.0
H1895 H 0.09534 0.86243 0.04529 0.0
H1896 H 0.15648 0.90472 0.46377 0.0
H1897 H 0.17785 0.93415 0.48838 0.0
H1898 H 0.24925 0.99322 0.45901 0.0
H1899 H 0.2284 0.96356 0.43444 0.0
H1900 H 0.26457 0.98662 0.49118 0.0
H1901 H 0.17489 0.00741 0.49171 0.0
H1902 H 0.16419 0.97056 0.49311 0.0
H1903 H 0.18135 0.99007 0.47459 0.0
C1904 C 0.17695 0.92373 0.4626 0.0
C1905 C 0.19049 0.93211 0.4471 0.0
C1906 C 0.18908 0.94058 0.47666 0.0
C1907 C 0.21475 0.96626 0.47541 0.0
C1908 C 0.22929 0.97363 0.46022 0.0
H1909 H 0.25728 0.10537 0.54335 0.0
H1910 H 0.25057 0.07735 0.51829 0.0
C1911 C 0.21728 0.95668 0.44617 0.0
C1912 C 0.22516 0.98655 0.48949 0.0
H1913 H 0.20673 0.02546 0.51431 0.0
C1914 C 0.252 0.99519 0.49625 0.0
C1915 C 0.20902 0.99824 0.4958 0.0
C1916 C 0.18089 0.99136 0.48834 0.0
C1917 C 0.26279 0.0147 0.50946 0.0
C1918 C 0.24608 0.02544 0.5162 0.0
C1919 C 0.21952 0.01717 0.50919 0.0
C1920 C 0.25505 0.04469 0.5308 0.0
C1921 C 0.29212 0.02393 0.51587 0.0
C1922 C 0.26061 0.0361 0.54609 0.0
C1923 C 0.26473 0.05223 0.56041 0.0
C1924 C 0.26291 0.07703 0.55974 0.0
C1925 C 0.25864 0.08628 0.54429 0.0
C1926 C 0.25479 0.07028 0.52996 0.0
H1927 H 0.30521 0.02113 0.50631 0.0
H1928 H 0.30312 0.04645 0.51983 0.0
H1929 H 0.29052 0.01076 0.52676 0.0
H1930 H 0.26037 0.0162 0.54715 0.0
H1931 H 0.26799 0.04454 0.57213 0.0
H1932 H 0.73896 0.70799 0.93087 0.0
H1933 H 0.7301 0.7283 0.95568 0.0
H1934 H 0.73996 0.66909 0.98638 0.0
H1935 H 0.74842 0.64838 0.96166 0.0
H1936 H 0.68514 0.69834 0.9772 0.0
H1937 H 0.78672 0.74389 0.01142 0.0
H1938 H 0.78371 0.73481 0.98963 0.0
H1939 H 0.77317 0.70775 0.0052 0.0
C1940 C 0.73948 0.69941 0.9429 0.0
C1941 C 0.74428 0.6764 0.9442 0.0
C1942 C 0.73455 0.71116 0.95709 0.0
C1943 C 0.73459 0.70041 0.97293 0.0
C1944 C 0.74039 0.67816 0.97435 0.0
H1945 H 0.64654 0.69218 0.0622 0.0
H1946 H 0.66653 0.68521 0.0367 0.0
C1947 C 0.74526 0.66633 0.96015 0.0
C1948 C 0.72594 0.71059 0.98776 0.0
H1949 H 0.74645 0.7377 0.0269 0.0
C1950 C 0.6987 0.70727 0.98797 0.0
C1951 C 0.74368 0.72244 1.00179 0.0
C1952 C 0.77356 0.72772 1.002 0.0
C1953 C 0.68835 0.7144 1.00205 0.0
C1954 C 0.70559 0.72502 0.01634 0.0
C1955 C 0.73322 0.72941 0.01594 0.0
C1956 C 0.69443 0.72981 0.03209 0.0
C1957 C 0.65883 0.71011 1.00168 0.0
C1958 C 0.70376 0.75728 0.03808 0.0
C1959 C 0.69231 0.76139 0.05274 0.0
C1960 C 0.67166 0.73805 0.06176 0.0
C1961 C 0.66271 0.71061 0.05574 0.0
C1962 C 0.67395 0.70657 0.04109 0.0
H1963 H 0.6506 0.7076 0.98879 0.0
H1964 H 0.64443 0.69071 0.00876 0.0
H1965 H 0.65834 0.72823 0.00763 0.0
H1966 H 0.71959 0.7755 0.0313 0.0
H1967 H 0.69975 0.78276 0.05708 0.0
H1968 H 0.10563 0.74881 0.46204 0.0
H1969 H 0.07646 0.7395 0.48689 0.0
H1970 H 0.00685 0.7291 0.45655 0.0
H1971 H 0.03599 0.73887 0.43161 0.0
H1972 H 0.04429 0.76466 0.50034 0.0
H1973 H 0.97678 0.65218 0.48123 0.0
H1974 H 0.01085 0.67518 0.47194 0.0
H1975 H 0.98075 0.67832 0.46622 0.0
C1976 C 0.08435 0.74522 0.46063 0.0
C1977 C 0.07312 0.74433 0.44474 0.0
C1978 C 0.06764 0.73975 0.47488 0.0
C1979 C 0.03934 0.73315 0.47356 0.0
C1980 C 0.02849 0.73365 0.45784 0.0
H1981 H 0.92266 0.69998 0.5578 0.0
H1982 H 0.94969 0.7193 0.53195 0.0
C1983 C 0.04518 0.73918 0.44359 0.0
C1984 C 0.02077 0.72398 0.48849 0.0
H1985 H 0.96487 0.66606 0.50624 0.0
C1986 C 0.02676 0.74319 0.50159 0.0
C1987 C 0.99807 0.69586 0.49016 0.0
C1988 C 0.99123 0.67404 0.47673 0.0
C1989 C 0.01071 0.73494 0.51634 0.0
C1990 C 0.98815 0.7068 0.51801 0.0
C1991 C 0.98203 0.6877 0.50486 0.0
C1992 C 0.97209 0.69603 0.53378 0.0
C1993 C 0.01848 0.75602 0.53029 0.0
C1994 C 0.97553 0.67642 0.54326 0.0
C1995 C 0.96024 0.66544 0.55794 0.0
C1996 C 0.94093 0.67365 0.56346 0.0
C1997 C 0.93733 0.69321 0.55388 0.0
C1998 C 0.95288 0.70439 0.53918 0.0
H1999 H 0.03853 0.77603 0.52779 0.0
H2000 H 1.00131 0.76107 0.532 0.0
H2001 H 0.0207 0.7468 0.5421 0.0
H2002 H 0.99008 0.66952 0.53926 0.0
H2003 H 0.96316 0.65003 0.56481 0.0
H2004 H 0.35869 0.10253 0.96124 0.0
H2005 H 0.33921 0.07335 0.98611 0.0
H2006 H 0.28081 1.0031 0.95582 0.0
H2007 H 0.29974 0.03225 0.93085 0.0
H2008 H 0.28158 0.04003 0.99945 0.0
H2009 H 0.32939 0.97496 0.98063 0.0
H2010 H 0.33981 0.00893 0.97139 0.0
H2011 H 0.30701 0.97836 0.96552 0.0
C2012 C 0.34124 0.08111 0.95984 0.0
C2013 C 0.33102 0.06972 0.94395 0.0
C2014 C 0.33022 0.06439 0.9741 0.0
C2015 C 0.30887 0.03593 0.97279 0.0
C2016 C 0.29761 0.02488 0.95708 0.0
H2017 H 0.22701 0.92018 0.05758 0.0
H2018 H 0.23427 0.94696 0.0317 0.0
C2019 C 0.30854 0.04158 0.94282 0.0
C2020 C 0.29982 0.01741 0.98773 0.0
H2021 H 0.3035 0.96253 0.00559 0.0
C2022 C 0.28613 0.02292 1.00076 0.0
C2023 C 0.30604 0.99528 0.98946 0.0
C2024 C 0.32155 0.98903 0.9761 0.0
C2025 C 0.27865 0.00695 0.01553 0.0
C2026 C 0.285 0.98492 0.01727 0.0
C2027 C 0.29845 0.97928 0.00417 0.0
C2028 C 0.28 0.96892 0.03304 0.0
C2029 C 0.26489 0.0143 0.02942 0.0
C2030 C 0.30322 0.9721 0.04224 0.0
C2031 C 0.29916 0.95688 0.05691 0.0
C2032 C 0.27173 0.93793 0.06273 0.0
C2033 C 0.2484 0.93457 0.05343 0.0
C2034 C 0.25251 0.95001 0.03872 0.0
H2035 H 0.26514 0.03449 0.02707 0.0
H2036 H 0.24255 0.99716 0.03074 0.0
H2037 H 0.27579 0.01604 0.04138 0.0
H2038 H 0.3246 0.9864 0.03802 0.0
H2039 H 0.31761 0.95959 0.06355 0.0
H2040 H 0.26527 0.36291 0.46003 0.0
H2041 H 0.27479 0.34419 0.48532 0.0
H2042 H 0.27508 0.27738 0.45691 0.0
H2043 H 0.26518 0.29574 0.43152 0.0
H2044 H 0.24545 0.26142 0.49009 0.0
H2045 H 0.35561 0.35247 0.49152 0.0
H2046 H 0.32793 0.36106 0.48957 0.0
H2047 H 0.33396 0.3426 0.47304 0.0
C2048 C 0.26671 0.34386 0.45918 0.0
C2049 C 0.26462 0.33092 0.4437 0.0
C2050 C 0.27238 0.33333 0.47365 0.0
C2051 C 0.27597 0.30961 0.47295 0.0
C2052 C 0.2725 0.29578 0.4577 0.0
H2053 H 0.36413 0.26217 0.54439 0.0
H2054 H 0.34485 0.27089 0.51909 0.0
C2055 C 0.26699 0.30639 0.4432 0.0
C2056 C 0.28512 0.30037 0.48791 0.0
H2057 H 0.34132 0.32062 0.51407 0.0
C2058 C 0.26638 0.27431 0.49536 0.0
C2059 C 0.31257 0.31708 0.49462 0.0
C2060 C 0.33386 0.34479 0.48676 0.0
C2061 C 0.27427 0.26479 0.50955 0.0
C2062 C 0.30155 0.28182 0.51645 0.0
C2063 C 0.32038 0.30764 0.50881 0.0
C2064 C 0.31114 0.27346 0.53161 0.0
C2065 C 0.25356 0.23646 0.51695 0.0
C2066 C 0.2984 0.27167 0.54706 0.0
C2067 C 0.30936 0.26664 0.56158 0.0
C2068 C 0.33331 0.26331 0.56093 0.0
C2069 C 0.34545 0.26424 0.54535 0.0
C2070 C 0.33458 0.26942 0.53087 0.0
H2071 H 0.23617 0.22327 0.50818 0.0
H2072 H 0.26443 0.22468 0.52059 0.0
H2073 H 0.24405 0.23982 0.5283 0.0
H2074 H 0.28053 0.27508 0.54797 0.0
H2075 H 0.29939 0.26588 0.57335 0.0
H2076 H 0.10388 0.36099 0.04458 0.0
H2077 H 0.07465 0.34181 0.01965 0.0
H2078 H 0.00742 0.2774 0.04917 0.0
H2079 H 0.0366 0.29624 0.07422 0.0
H2080 H 0.02624 0.26369 0.013 0.0
H2081 H 0.99575 0.34688 0.01755 0.0
H2082 H 0.03217 0.35674 0.02106 0.0
H2083 H 0.00558 0.33413 0.03562 0.0
C2084 C 0.08316 0.34232 0.04575 0.0
C2085 C 0.07255 0.33022 0.06144 0.0
C2086 C 0.06644 0.3315 0.03149 0.0
C2087 C 0.03889 0.30829 0.03262 0.0
C2088 C 0.02865 0.29534 0.04808 0.0
H2089 H 0.90105 0.25828 0.96235 0.0
H2090 H 0.92936 0.26623 0.98741 0.0
C2091 C 0.04529 0.30623 0.06237 0.0
C2092 C 0.02007 0.29899 0.01788 0.0
H2093 H 0.97863 0.31622 0.99457 0.0
C2094 C 0.01577 0.27508 0.00894 0.0
C2095 C 0.00629 0.31378 0.01277 0.0
C2096 C 0.00993 0.33928 0.02222 0.0
C2097 C 0.99821 0.26578 0.9948 0.0
C2098 C 0.98485 0.28095 0.98947 0.0
C2099 C 0.98889 0.30461 0.99863 0.0
C2100 C 0.96688 0.27307 0.97431 0.0
C2101 C 0.99381 0.23961 0.98583 0.0
C2102 C 0.97841 0.27393 0.95858 0.0
C2103 C 0.9622 0.26922 0.9442 0.0
C2104 C 0.93412 0.26368 0.94523 0.0
C2105 C 0.92242 0.26207 0.96106 0.0
C2106 C 0.93866 0.26682 0.97541 0.0
H2107 H 0.99915 0.22636 0.99384 0.0
H2108 H 0.97157 0.2266 0.98156 0.0
H2109 H 0.00777 0.246 0.97475 0.0
H2110 H 1.00026 0.27917 0.95737 0.0
H2111 H 0.97183 0.27039 0.93224 0.0
H2112 H 0.69374 0.04604 0.56503 0.0
H2113 H 0.68605 0.01926 0.53939 0.0
H2114 H 0.77614 0.06049 0.53142 0.0
H2115 H 0.78411 0.08731 0.55738 0.0
H2116 H 0.70589 0.04383 0.50656 0.0
H2117 H 0.74612 0.97276 0.52667 0.0
H2118 H 0.73526 0.99056 0.54134 0.0
H2119 H 0.76823 0.01011 0.53052 0.0
C2120 C 0.712 0.04916 0.558 0.0
C2121 C 0.73958 0.06865 0.56337 0.0
C2122 C 0.70754 0.03395 0.54326 0.0
C2123 C 0.73049 0.03766 0.53357 0.0
C2124 C 0.75812 0.05706 0.53882 0.0
H2125 H 0.71014 0.97567 0.43107 0.0
H2126 H 0.72893 0.00435 0.45622 0.0
C2127 C 0.76263 0.07251 0.55358 0.0
C2128 C 0.72507 0.02171 0.51773 0.0
H2129 H 0.72869 0.96712 0.49927 0.0
C2130 C 0.71112 0.02725 0.50489 0.0
C2131 C 0.73166 0.9999 0.51567 0.0
C2132 C 0.746 0.9927 0.52927 0.0
C2133 C 0.70334 0.01141 0.49011 0.0
C2134 C 0.70981 0.9895 0.48805 0.0
C2135 C 0.72394 0.98405 0.50084 0.0
C2136 C 0.70071 0.97125 0.47299 0.0
C2137 C 0.68743 0.01761 0.477 0.0
C2138 C 0.67926 0.94281 0.47412 0.0
C2139 C 0.66827 0.92637 0.45975 0.0
C2140 C 0.67864 0.93801 0.44393 0.0
C2141 C 0.70121 0.96613 0.44297 0.0
C2142 C 0.71208 0.98257 0.45735 0.0
H2143 H 0.67968 0.03166 0.48172 0.0
H2144 H 0.70166 0.02826 0.4663 0.0
H2145 H 0.66907 0.99767 0.47241 0.0
H2146 H 0.67018 0.93366 0.48608 0.0
H2147 H 0.65075 0.90496 0.46102 0.0
H2148 H 0.14959 0.96256 0.08778 0.0
H2149 H 0.16211 0.01173 0.08245 0.0
H2150 H 0.18028 0.03092 0.13451 0.0
H2151 H 0.16841 0.98238 0.13987 0.0
H2152 H 0.13281 0.03477 0.09554 0.0
H2153 H 0.24444 0.10074 0.11408 0.0
H2154 H 0.22871 0.0633 0.10995 0.0
H2155 H 0.22485 0.07559 0.13005 0.0
C2156 C 0.1571 0.97749 0.09799 0.0
C2157 C 0.15782 0.96846 0.11427 0.0
C2158 C 0.16417 0.00557 0.09493 0.0
C2159 C 0.17243 0.02515 0.10804 0.0
C2160 C 0.17463 0.01648 0.12411 0.0
H2161 H 0.16144 0.16199 0.14426 0.0
H2162 H 0.16986 0.12326 0.13741 0.0
C2163 C 0.16755 0.98854 0.12718 0.0
C2164 C 0.17491 0.05331 0.10564 0.0
H2165 H 0.21513 0.12272 0.11693 0.0
C2166 C 0.15112 0.05417 0.09976 0.0
C2167 C 0.19881 0.07864 0.11112 0.0
C2168 C 0.22573 0.07956 0.11648 0.0
C2169 C 0.14976 0.07918 0.10045 0.0
C2170 C 0.17288 0.10399 0.10707 0.0
C2171 C 0.19735 0.1036 0.11197 0.0
C2172 C 0.17061 0.12936 0.11083 0.0
C2173 C 0.1229 0.07848 0.09515 0.0
C2174 C 0.16886 0.14602 0.09813 0.0
C2175 C 0.1641 0.16834 0.102 0.0
C2176 C 0.16086 0.1742 0.11865 0.0
C2177 C 0.16363 0.15799 0.13131 0.0
C2178 C 0.16855 0.13589 0.12743 0.0
H2179 H 0.1058 0.05677 0.09194 0.0
H2180 H 0.11522 0.08689 0.10521 0.0
H2181 H 0.12725 0.09219 0.08409 0.0
H2182 H 0.17062 0.14141 0.08524 0.0
H2183 H 0.16216 0.18045 0.09195 0.0
H2184 H 0.19029 0.1451 0.58624 0.0
H2185 H 0.15248 0.15598 0.58108 0.0
H2186 H 0.1536 0.17711 0.63282 0.0
H2187 H 0.1915 0.167 0.63799 0.0
H2188 H 0.10101 0.12683 0.5948 0.0
H2189 H 0.14552 0.23912 0.61166 0.0
H2190 H 0.16762 0.22378 0.60777 0.0
H2191 H 0.15183 0.22054 0.62792 0.0
C2192 C 0.18305 0.15287 0.59641 0.0
C2193 C 0.19384 0.15502 0.61255 0.0
C2194 C 0.16138 0.15901 0.59344 0.0
C2195 C 0.15037 0.16768 0.60652 0.0
C2196 C 0.16214 0.17116 0.62243 0.0
H2197 H 1.00055 0.15511 0.6418 0.0
H2198 H 0.04767 0.16274 0.63562 0.0
C2199 C 0.18372 0.16509 0.6254 0.0
C2200 C 0.12428 0.16944 0.60426 0.0
H2201 H 0.09438 0.2093 0.61485 0.0
C2202 C 0.0997 0.14515 0.59874 0.0
C2203 C 0.12254 0.19334 0.6094 0.0
C2204 C 0.14841 0.22074 0.61434 0.0
C2205 C 0.07317 0.14341 0.59936 0.0
C2206 C 0.07124 0.16661 0.60558 0.0
C2207 C 0.09596 0.19147 0.6102 0.0
C2208 C 0.0435 0.16424 0.60898 0.0
C2209 C 0.04712 0.11619 0.59435 0.0
C2210 C 0.02576 0.16303 0.59602 0.0
C2211 C 0.99875 0.15874 0.5995 0.0
C2212 C 0.98904 0.15544 0.61601 0.0
C2213 C 0.00725 0.1574 0.62895 0.0
C2214 C 0.03424 0.16186 0.62546 0.0
H2215 H 0.05199 0.09926 0.5912 0.0
H2216 H 0.0313 0.10857 0.60455 0.0
H2217 H 0.03731 0.12007 0.58334 0.0
H2218 H 0.03265 0.16497 0.58322 0.0
H2219 H 0.98528 0.1574 0.58925 0.0
H2220 H 0.82731 0.98657 0.09232 0.0
H2221 H 0.86782 0.03391 0.08699 0.0
H2222 H 0.89932 0.03571 0.13631 0.0
H2223 H 0.85905 0.98868 0.14185 0.0
H2224 H 0.89013 0.08895 0.11233 0.0
H2225 H 0.96135 0.04663 0.09667 0.0
H2226 H 0.92353 0.02642 0.09342 0.0
H2227 H 0.93763 0.031 0.11402 0.0
C2228 C 0.84274 0.99712 0.10209 0.0
C2229 C 0.83997 0.98376 0.11751 0.0
C2230 C 0.8658 0.02415 0.09901 0.0
C2231 C 0.88646 0.03813 0.11126 0.0
C2232 C 0.88352 0.02516 0.12673 0.0
H2233 H 0.02859 0.1921 0.13791 0.0
H2234 H 0.98077 0.15316 0.13296 0.0
C2235 C 0.86047 0.99828 0.12985 0.0
C2236 C 0.91189 0.06582 0.10786 0.0
H2237 H 0.98283 0.09599 0.10105 0.0
C2238 C 0.91036 0.0906 0.1096 0.0
C2239 C 0.93807 0.06777 0.10413 0.0
C2240 C 0.94046 0.04161 0.10183 0.0
C2241 C 0.93482 0.11744 0.10851 0.0
C2242 C 0.96135 0.11938 0.10578 0.0
C2243 C 0.9625 0.09453 0.10314 0.0
C2244 C 0.98849 0.14642 0.10745 0.0
C2245 C 0.93213 0.14346 0.11059 0.0
C2246 C 0.0087 0.15602 0.09465 0.0
C2247 C 0.03622 0.17841 0.09745 0.0
C2248 C 0.04408 0.19122 0.11321 0.0
C2249 C 0.02327 0.18266 0.12565 0.0
C2250 C 0.9958 0.16048 0.1228 0.0
H2251 H 0.91064 0.13916 0.10709 0.0
H2252 H 0.93564 0.15002 0.12383 0.0
H2253 H 0.94803 0.16131 0.10297 0.0
H2254 H 1.00354 0.14533 0.08274 0.0
H2255 H 0.05175 0.18438 0.08763 0.0
H2256 H 0.84573 0.02819 0.63862 0.0
H2257 H 0.83574 0.98003 0.63386 0.0
H2258 H 0.84899 0.99659 0.58128 0.0
H2259 H 0.85987 0.04544 0.58598 0.0
H2260 H 0.79815 0.93448 0.61533 0.0
H2261 H 0.90846 0.97541 0.59289 0.0
H2262 H 0.89723 0.99809 0.60239 0.0
H2263 H 0.88753 0.98644 0.5813 0.0
C2264 C 0.84617 0.0216 0.62598 0.0
C2265 C 0.85411 0.04089 0.61271 0.0
C2266 C 0.84037 0.99395 0.62328 0.0
C2267 C 0.84228 0.98489 0.60727 0.0
C2268 C 0.84808 1.00336 0.59379 0.0
H2269 H 0.85141 0.82993 0.59032 0.0
H2270 H 0.84375 0.86971 0.58444 0.0
C2271 C 0.85406 0.03121 0.59649 0.0
C2272 C 0.84033 0.95692 0.60521 0.0
H2273 H 0.88045 0.92646 0.59658 0.0
C2274 C 0.81599 0.93265 0.61099 0.0
C2275 C 0.86365 0.95454 0.59956 0.0
C2276 C 0.89081 0.97996 0.59379 0.0
C2277 C 0.81476 0.90636 0.61187 0.0
C2278 C 0.83854 0.90434 0.60696 0.0
C2279 C 0.86225 0.92815 0.60032 0.0
C2280 C 0.84054 0.87869 0.61027 0.0
C2281 C 0.78833 0.88109 0.61847 0.0
C2282 C 0.84133 0.87066 0.62673 0.0
C2283 C 0.84596 0.84821 0.63013 0.0
C2284 C 0.84985 0.83327 0.61713 0.0
C2285 C 0.84841 0.84094 0.60062 0.0
C2286 C 0.84403 0.86364 0.59723 0.0
H2287 H 0.76961 0.88391 0.61723 0.0
H2288 H 0.784 0.86144 0.61187 0.0
H2289 H 0.79125 0.87839 0.63185 0.0
H2290 H 0.83921 0.88234 0.63698 0.0
H2291 H 0.84694 0.84288 0.64298 0.0
H2292 H 0.81969 0.83791 0.13575 0.0
H2293 H 0.85853 0.82909 0.13074 0.0
H2294 H 0.85943 0.84984 0.07896 0.0
H2295 H 0.82082 0.85964 0.08399 0.0
H2296 H 0.86887 0.79486 0.11084 0.0
H2297 H 0.93869 0.908 0.09348 0.0
H2298 H 0.90393 0.89515 0.10217 0.0
H2299 H 0.90784 0.88824 0.08079 0.0
C2300 C 0.82779 0.84025 0.12321 0.0
C2301 C 0.81742 0.84999 0.11033 0.0
C2302 C 0.85003 0.83511 0.12036 0.0
C2303 C 0.86239 0.83947 0.10457 0.0
C2304 C 0.85069 0.84704 0.09135 0.0
H2305 H 0.02999 0.85436 0.0912 0.0
H2306 H 0.9826 0.84547 0.08377 0.0
C2307 C 0.82844 0.85238 0.09422 0.0
C2308 C 0.88882 0.8382 0.1026 0.0
H2309 H 0.96001 0.88028 0.09648 0.0
C2310 C 0.88872 0.8134 0.10742 0.0
C2311 C 0.91479 0.86243 0.09816 0.0
C2312 C 0.91655 0.89006 0.09347 0.0
C2313 C 0.91397 0.81258 0.10864 0.0
C2314 C 0.93997 0.8372 0.10501 0.0
C2315 C 0.93997 0.86144 0.09922 0.0
C2316 C 0.9675 0.83948 0.10911 0.0
C2317 C 0.91278 0.78567 0.1143 0.0
C2318 C 0.97463 0.83901 0.1258 0.0
C2319 C 1.00165 0.84439 0.1301 0.0
C2320 C 0.02214 0.85025 0.11778 0.0
C2321 C 0.01467 0.84982 0.10099 0.0
C2322 C 0.98764 0.84476 0.09671 0.0
H2323 H 0.89157 0.76689 0.11209 0.0
H2324 H 0.92896 0.78253 0.10781 0.0
H2325 H 0.91716 0.78706 0.12783 0.0
H2326 H 0.95955 0.83545 0.13558 0.0
H2327 H 0.00664 0.84449 0.14313 0.0
H2328 H 0.97773 0.82068 0.641 0.0
H2329 H 0.02578 0.85942 0.63671 0.0
H2330 H 0.01124 0.85523 0.58386 0.0
H2331 H 0.96251 0.81669 0.58808 0.0
H2332 H 0.07218 0.86773 0.61908 0.0
H2333 H 0.03114 0.93582 0.59467 0.0
H2334 H 0.00836 0.90194 0.60419 0.0
H2335 H 0.02085 0.90377 0.58331 0.0
C2336 C 0.98475 0.82766 0.62841 0.0
C2337 C 0.96604 0.81585 0.61491 0.0
C2338 C 0.01233 0.84983 0.62598 0.0
C2339 C 0.02191 0.86069 0.61001 0.0
C2340 C 1.00404 0.84764 0.59634 0.0
H2341 H 0.1771 0.02416 0.59227 0.0
H2342 H 0.1371 0.97658 0.58698 0.0
C2343 C 0.97627 0.82545 0.59876 0.0
C2344 C 0.0498 0.88689 0.60814 0.0
H2345 H 0.08007 0.95721 0.59873 0.0
C2346 C 0.07398 0.8872 0.61441 0.0
C2347 C 0.05214 0.91236 0.60208 0.0
C2348 C 0.02677 0.91369 0.59579 0.0
C2349 C 0.10014 0.91243 0.61531 0.0
C2350 C 0.10213 0.93799 0.6099 0.0
C2351 C 0.0784 0.9375 0.60285 0.0
C2352 C 0.12772 0.96582 0.61295 0.0
C2353 C 0.12534 0.91168 0.62239 0.0
C2354 C 0.13557 0.97551 0.6293 0.0
C2355 C 0.15816 1.00268 0.63238 0.0
C2356 C 0.17342 0.02074 0.61914 0.0
C2357 C 0.16585 0.01077 0.60275 0.0
C2358 C 0.14302 0.98361 0.59969 0.0
H2359 H 0.12258 0.89011 0.6217 0.0
H2360 H 0.14505 0.92668 0.61573 0.0
H2361 H 0.12787 0.91806 0.63566 0.0
H2362 H 0.1237 0.96229 0.63971 0.0
H2363 H 0.1634 0.00966 0.64514 0.0
H2364 H 0.85853 0.87248 0.3625 0.0
H2365 H 0.89874 0.86577 0.36815 0.0
H2366 H 0.86693 0.83611 0.41747 0.0
H2367 H 0.82643 0.84271 0.41196 0.0
H2368 H 0.93817 0.89345 0.3955 0.0
H2369 H 0.88541 0.7758 0.39736 0.0
H2370 H 0.86973 0.79406 0.38708 0.0
H2371 H 0.86994 0.79253 0.40932 0.0
C2372 C 0.85986 0.86426 0.37451 0.0
C2373 C 0.83925 0.85818 0.38679 0.0
C2374 C 0.88288 0.86047 0.37771 0.0
C2375 C 0.88568 0.8503 0.39318 0.0
C2376 C 0.86495 0.84367 0.40539 0.0
H2377 H 0.0511 0.87155 0.42011 0.0
H2378 H 1.00371 0.86527 0.42377 0.0
C2379 C 0.8419 0.84757 0.40222 0.0
C2380 C 0.91122 0.84825 0.39667 0.0
H2381 H 0.93484 0.80131 0.40138 0.0
C2382 C 0.93747 0.87335 0.397 0.0
C2383 C 0.9101 0.82196 0.39855 0.0
C2384 C 0.88236 0.79444 0.39799 0.0
C2385 C 0.96279 0.87288 0.3987 0.0
C2386 C 0.96178 0.84656 0.40031 0.0
C2387 C 0.93547 0.82143 0.40035 0.0
C2388 C 0.98804 0.84488 0.39999 0.0
C2389 C 0.99051 0.90048 0.39798 0.0
C2390 C 0.9943 0.83402 0.38586 0.0
C2391 C 0.02125 0.83752 0.38373 0.0
C2392 C 0.04243 0.85188 0.39575 0.0
C2393 C 0.03532 0.86049 0.41059 0.0
C2394 C 0.0083 0.85706 0.41268 0.0
H2395 H 0.98768 0.91842 0.39404 0.0
H2396 H 1.00045 0.90541 0.41047 0.0
H2397 H 1.00534 0.89883 0.38921 0.0
H2398 H 0.9789 0.82445 0.37596 0.0
H2399 H 0.02593 0.83039 0.37222 0.0
H2400 H 0.18345 0.04792 0.91753 0.0
H2401 H 0.14456 0.99945 0.92195 0.0
H2402 H 0.15294 0.97832 0.87144 0.0
H2403 H 0.19168 0.02645 0.86694 0.0
H2404 H 0.09527 0.97908 0.90316 0.0
H2405 H 0.1393 0.90757 0.8969 0.0
H2406 H 0.16107 0.94484 0.90154 0.0
H2407 H 0.1504 0.93324 0.8805 0.0
C2408 C 0.17763 0.03269 0.90754 0.0
C2409 C 0.19053 0.0411 0.89184 0.0
C2410 C 0.15533 0.00503 0.91007 0.0
C2411 C 0.14594 0.98521 0.89706 0.0
C2412 C 0.1601 0.99306 0.88175 0.0
H2413 H 0.9855 0.85611 0.86419 0.0
H2414 H 0.03257 0.89682 0.86903 0.0
C2415 C 0.18216 0.02069 0.87916 0.0
C2416 C 0.11898 0.95792 0.89849 0.0
H2417 H 0.08914 0.88675 0.89187 0.0
C2418 C 0.094 0.95884 0.90103 0.0
C2419 C 0.1173 0.93151 0.89571 0.0
C2420 C 0.14349 0.92913 0.89367 0.0
C2421 C 0.06736 0.93428 0.89998 0.0
C2422 C 0.06565 0.90817 0.89623 0.0
C2423 C 0.09058 0.90691 0.89457 0.0
C2424 C 0.03804 0.88246 0.89304 0.0
C2425 C 0.0411 0.93646 0.90238 0.0
C2426 C 0.02582 0.8607 0.90484 0.0
C2427 C 0.99879 0.8374 0.90217 0.0
C2428 C 0.98367 0.83542 0.88757 0.0
C2429 C 0.99648 0.85692 0.87557 0.0
C2430 C 0.02337 0.88023 0.87831 0.0
H2431 H 0.04594 0.95684 0.90824 0.0
H2432 H 0.03115 0.93495 0.89012 0.0
H2433 H 0.02547 0.91876 0.91021 0.0
H2434 H 0.0369 0.86209 0.91628 0.0
H2435 H 0.98958 0.82119 0.91166 0.0
H2436 H 0.17708 0.1977 0.36896 0.0
H2437 H 0.18315 0.15663 0.37255 0.0
H2438 H 0.14545 0.14227 0.42123 0.0
H2439 H 0.1391 0.18337 0.41773 0.0
H2440 H 0.20814 0.13697 0.39772 0.0
H2441 H 0.09079 0.07173 0.39261 0.0
H2442 H 0.10991 0.10879 0.38723 0.0
H2443 H 0.10455 0.09825 0.40865 0.0
C2444 C 0.17066 0.18625 0.38061 0.0
C2445 C 0.15719 0.19355 0.39296 0.0
C2446 C 0.17422 0.1628 0.38265 0.0
C2447 C 0.1643 0.14617 0.39702 0.0
C2448 C 0.15294 0.15469 0.40996 0.0
H2449 H 0.16879 0.98848 0.41103 0.0
H2450 H 0.17505 0.03569 0.4156 0.0
C2451 C 0.14947 0.17827 0.40796 0.0
C2452 C 0.16284 0.11833 0.39745 0.0
H2453 H 0.11608 0.04748 0.39398 0.0
C2454 C 0.18805 0.11734 0.39714 0.0
C2455 C 0.13655 0.09284 0.39643 0.0
C2456 C 0.10884 0.09274 0.39613 0.0
C2457 C 0.18763 0.09145 0.3956 0.0
C2458 C 0.16134 0.06606 0.39436 0.0
C2459 C 0.13618 0.06704 0.39499 0.0
C2460 C 0.15933 0.03833 0.3914 0.0
C2461 C 0.21521 0.09143 0.39469 0.0
C2462 C 0.14837 0.02422 0.3763 0.0
C2463 C 0.14477 0.99732 0.37362 0.0
C2464 C 0.15183 0.98386 0.38608 0.0
C2465 C 0.16317 0.99824 0.40116 0.0
C2466 C 0.16688 0.02526 0.40378 0.0
H2467 H 0.23367 0.11313 0.39341 0.0
H2468 H 0.21796 0.08183 0.40618 0.0
H2469 H 0.21501 0.07843 0.38401 0.0
H2470 H 0.14234 0.03396 0.36661 0.0
H2471 H 0.13596 0.98687 0.36189 0.0
H2472 H 0.18056 0.15786 0.91544 0.0
H2473 H 0.14198 0.16643 0.92318 0.0
H2474 H 0.12416 0.17041 0.87141 0.0
H2475 H 0.16237 0.16174 0.86352 0.0
H2476 H 0.12533 0.21519 0.89533 0.0
H2477 H 0.05612 0.1022 0.91356 0.0
H2478 H 0.09183 0.12148 0.92135 0.0
H2479 H 0.08577 0.11286 0.8997 0.0
C2480 C 0.16865 0.16089 0.9057 0.0
C2481 C 0.17441 0.15887 0.88885 0.0
C2482 C 0.14662 0.16574 0.91016 0.0
C2483 C 0.13021 0.16889 0.89785 0.0
C2484 C 0.13664 0.16805 0.88107 0.0
H2485 H 0.98759 0.17611 0.8709 0.0
H2486 H 0.03558 0.18675 0.87674 0.0
C2487 C 0.15843 0.16298 0.8766 0.0
C2488 C 0.10508 0.1712 0.90218 0.0
H2489 H 0.03507 0.13036 0.91166 0.0
C2490 C 0.10568 0.19682 0.89921 0.0
C2491 C 0.07962 0.14729 0.90741 0.0
C2492 C 0.07799 0.11928 0.91068 0.0
C2493 C 0.08106 0.19879 0.9006 0.0
C2494 C 0.05508 0.17429 0.90459 0.0
C2495 C 0.05494 0.14915 0.90859 0.0
C2496 C 0.02738 0.17292 0.90237 0.0
C2497 C 0.08305 0.22696 0.8974 0.0
C2498 C 0.00662 0.16184 0.91488 0.0
C2499 C 0.97883 0.15544 0.9115 0.0
C2500 C 0.97131 0.1597 0.89549 0.0
C2501 C 0.99259 0.17248 0.88336 0.0
C2502 C 0.02023 0.17886 0.88673 0.0
H2503 H 0.10413 0.24469 0.9011 0.0
H2504 H 0.08048 0.22915 0.8839 0.0
H2505 H 0.06645 0.22895 0.90423 0.0
H2506 H 0.0116 0.15691 0.92701 0.0
H2507 H 0.96295 0.14552 0.92111 0.0
H2508 H 0.02049 0.1874 0.40995 0.0
H2509 H 0.9733 0.1468 0.41529 0.0
H2510 H 0.97433 0.11202 0.36738 0.0
H2511 H 0.0213 0.15242 0.36185 0.0
H2512 H 0.91997 0.1232 0.39327 0.0
H2513 H 0.96251 0.05102 0.40469 0.0
H2514 H 0.984 0.08905 0.40646 0.0
H2515 H 0.97542 0.07264 0.38635 0.0
C2516 C 0.01059 0.17123 0.40048 0.0
C2517 C 0.02476 0.17308 0.38549 0.0
C2518 C 0.98363 0.14811 0.40356 0.0
C2519 C 0.97055 0.1264 0.39178 0.0
C2520 C 0.98425 0.12853 0.37666 0.0
H2521 H 0.81197 0.98479 0.3696 0.0
H2522 H 0.85185 0.0325 0.37341 0.0
C2523 C 0.01106 0.15167 0.37352 0.0
C2524 C 0.94303 0.10087 0.3954 0.0
H2525 H 0.91281 0.02967 0.40129 0.0
C2526 C 0.91833 0.10277 0.39524 0.0
C2527 C 0.94109 0.07441 0.39821 0.0
C2528 C 0.96714 0.07151 0.39909 0.0
C2529 C 0.89151 0.07848 0.397 0.0
C2530 C 0.8895 0.05175 0.39885 0.0
C2531 C 0.91435 0.05016 0.39985 0.0
C2532 C 0.86209 0.02482 0.39813 0.0
C2533 C 0.86558 0.08158 0.39662 0.0
C2534 C 0.85417 0.00472 0.4109 0.0
C2535 C 0.83128 0.97727 0.40875 0.0
C2536 C 0.81624 0.96939 0.39367 0.0
C2537 C 0.82314 0.99013 0.38135 0.0
C2538 C 0.84587 0.01754 0.38355 0.0
H2539 H 0.87063 0.10318 0.40046 0.0
H2540 H 0.85719 0.07802 0.38375 0.0
H2541 H 0.84873 0.06585 0.40487 0.0
H2542 H 0.86653 0.00987 0.42221 0.0
H2543 H 0.8266 0.9618 0.41846 0.0
H2544 H 0.87068 0.8246 0.92169 0.0
H2545 H 0.86373 0.86517 0.92599 0.0
H2546 H 0.82377 0.85065 0.87797 0.0
H2547 H 0.83038 0.81013 0.87365 0.0
H2548 H 0.88946 0.91137 0.90539 0.0
H2549 H 0.77412 0.87063 0.90596 0.0
H2550 H 0.78914 0.84818 0.90969 0.0
H2551 H 0.78465 0.857 0.88879 0.0
C2552 C 0.85959 0.82948 0.91228 0.0
C2553 C 0.85126 0.81423 0.89727 0.0
C2554 C 0.85571 0.85274 0.91474 0.0
C2555 C 0.84306 0.86086 0.90236 0.0
C2556 C 0.83309 0.84452 0.88785 0.0
H2557 H 0.87383 0.01659 0.86332 0.0
H2558 H 0.86662 0.96999 0.87049 0.0
C2559 C 0.83708 0.82142 0.88534 0.0
C2560 C 0.84399 0.8885 0.90333 0.0
H2561 H 0.80372 0.91978 0.89797 0.0
C2562 C 0.87063 0.91317 0.90414 0.0
C2563 C 0.81946 0.89091 0.90174 0.0
C2564 C 0.79021 0.86524 0.90167 0.0
C2565 C 0.87351 0.94007 0.90241 0.0
C2566 C 0.84916 0.94235 0.89973 0.0
C2567 C 0.82237 0.91788 0.89988 0.0
C2568 C 0.85161 0.96983 0.89536 0.0
C2569 C 0.90266 0.9659 0.90285 0.0
C2570 C 0.84504 0.98491 0.90693 0.0
C2571 C 0.84927 0.01177 0.90291 0.0
C2572 C 0.85993 0.02379 0.88721 0.0
C2573 C 0.86563 0.00808 0.87553 0.0
C2574 C 0.86157 0.98143 0.87959 0.0
H2575 H 0.91856 0.96114 0.90825 0.0
H2576 H 0.90933 0.97382 0.89 0.0
H2577 H 0.90253 0.98307 0.91019 0.0
H2578 H 0.83728 0.97621 0.91916 0.0
H2579 H 0.84459 0.02324 0.91218 0.0
loop_
_geom_bond_atom_site_label_1
_geom_bond_atom_site_label_2
_geom_bond_distance
_geom_bond_site_symmetry_2
_ccdc_geom_bond_type
Cd0 O57 2.350 . S
Cd0 O58 2.277 . S
Cd0 O65 2.173 . S
Cd0 O67 2.263 . S
Cd0 O69 2.366 . S
Cd0 O72 2.329 . S
C1 O65 1.277 . S
C1 O66 1.230 . S
C2 O3 1.246 . S
C2 C5 1.481 . S
C2 N27 1.329 . S
O3 C2 1.246 . S
Cd4 O66 2.250 . S
Cd4 O68 2.308 . S
Cd4 O71 2.352 . S
C5 C2 1.481 . S
C5 N8 1.327 . S
C5 C9 1.407 . S
C6 C7 1.346 . S
C6 C10 1.390 . S
C6 H74 0.930 . S
C7 C6 1.346 . S
C7 N8 1.342 . S
C7 C12 1.516 . S
N8 C5 1.327 . S
N8 C7 1.342 . S
N8 Co11 1.864 . S
C9 C5 1.407 . S
C9 C10 1.364 . S
C9 H75 0.930 . S
C10 C6 1.390 . S
C10 C9 1.364 . S
C10 H76 0.931 . S
Co11 N8 1.864 . S
Co11 N27 1.955 . S
Co11 N28 1.958 . S
Co11 N29 1.953 . S
Co11 N47 1.869 . S
Co11 N53 1.974 . S
C12 C7 1.516 . S
C12 O13 1.238 . S
C12 N28 1.324 . S
O13 C12 1.238 . S
C14 C15 1.394 . S
C14 C19 1.395 . S
C14 N28 1.427 . S
C15 C14 1.394 . S
C15 C16 1.380 . S
C15 H77 0.929 . S
C16 C15 1.380 . S
C16 C17 1.384 . S
C16 C20 1.495 . S
C17 C16 1.384 . S
C17 C18 1.382 . S
C17 H78 0.930 . S
C18 C17 1.382 . S
C18 C19 1.398 . S
C19 C14 1.395 . S
C19 C18 1.398 . S
C19 H79 0.930 . S
C20 C16 1.495 . S
C20 O67 1.258 . S
C20 O68 1.274 . S
C21 C22 1.385 . S
C21 C23 1.381 . S
C21 N27 1.432 . S
C22 C21 1.385 . S
C22 C26 1.388 . S
C22 H80 0.929 . S
C23 C21 1.381 . S
C23 C24 1.371 . S
C23 H81 0.932 . S
C24 C23 1.371 . S
C24 C25 1.400 . S
C25 C24 1.400 . S
C25 C26 1.351 . S
C25 H82 0.930 . S
C26 C22 1.388 . S
C26 C25 1.351 . S
N27 C2 1.329 . S
N27 Co11 1.955 . S
N27 C21 1.432 . S
N28 Co11 1.958 . S
N28 C12 1.324 . S
N28 C14 1.427 . S
N29 Co11 1.953 . S
N29 C30 1.436 . S
N29 C56 1.316 . S
C30 N29 1.436 . S
C30 C31 1.421 . S
C30 C32 1.360 . S
C31 C30 1.421 . S
C31 C33 1.379 . S
C31 H34 0.929 . S
C32 C30 1.360 . S
C32 C36 1.393 . S
C32 H38 0.931 . S
C33 C31 1.379 . S
C33 C35 1.417 . S
C33 C37 1.505 . S
H34 C31 0.929 . S
C35 C33 1.417 . S
C35 C36 1.352 . S
C35 H39 0.929 . S
C36 C32 1.393 . S
C36 C35 1.352 . S
C36 C40 1.482 . S
C37 C33 1.505 . S
C37 O41 1.259 . S
C37 O42 1.229 . S
H38 C32 0.931 . S
H39 C35 0.929 . S
C40 C36 1.482 . S
C40 O43 1.207 . S
C40 O44 1.289 . S
O41 C37 1.259 . S
O41 H45 0.822 . S
O42 C37 1.229 . S
O43 C40 1.207 . S
O44 C40 1.289 . S
O44 H46 0.819 . S
H45 O41 0.822 . S
H46 O44 0.819 . S
N47 Co11 1.869 . S
N47 C48 1.330 . S
N47 C52 1.325 . S
C48 N47 1.330 . S
C48 C49 1.359 . S
C48 C54 1.504 . S
C49 C48 1.359 . S
C49 C50 1.366 . S
C49 H83 0.929 . S
C50 C49 1.366 . S
C50 C51 1.415 . S
C50 H84 0.932 . S
C51 C50 1.415 . S
C51 C52 1.366 . S
C51 H85 0.931 . S
C52 N47 1.325 . S
C52 C51 1.366 . S
C52 C56 1.516 . S
N53 Co11 1.974 . S
N53 C54 1.309 . S
N53 C59 1.423 . S
C54 C48 1.504 . S
C54 N53 1.309 . S
C54 O55 1.258 . S
O55 C54 1.258 . S
C56 N29 1.316 . S
C56 C52 1.516 . S
C56 O69 1.263 . S
O57 Cd0 2.350 . S
O57 C73 1.270 . S
O58 Cd0 2.277 . S
O58 C73 1.248 . S
C59 N53 1.423 . S
C59 C60 1.370 . S
C59 C64 1.403 . S
C60 C59 1.370 . S
C60 C61 1.389 . S
C60 H86 0.931 . S
C61 C60 1.389 . S
C61 C62 1.389 . S
C62 C61 1.389 . S
C62 C63 1.379 . S
C62 H87 0.929 . S
C63 C62 1.379 . S
C63 C64 1.405 . S
C64 C59 1.403 . S
C64 C63 1.405 . S
C64 H88 0.932 . S
O65 Cd0 2.173 . S
O65 C1 1.277 . S
O66 C1 1.230 . S
O66 Cd4 2.250 . S
O67 Cd0 2.263 . S
O67 C20 1.258 . S
O68 Cd4 2.308 . S
O68 C20 1.274 . S
O69 Cd0 2.366 . S
O69 C56 1.263 . S
C70 O71 1.235 . S
C70 O72 1.270 . S
O71 Cd4 2.352 . S
O71 C70 1.235 . S
O72 Cd0 2.329 . S
O72 C70 1.270 . S
C73 O57 1.270 . S
C73 O58 1.248 . S
H74 C6 0.930 . S
H75 C9 0.930 . S
H76 C10 0.931 . S
H77 C15 0.929 . S
H78 C17 0.930 . S
H79 C19 0.930 . S
H80 C22 0.929 . S
H81 C23 0.932 . S
H82 C25 0.930 . S
H83 C49 0.929 . S
H84 C50 0.932 . S
H85 C51 0.931 . S
H86 C60 0.931 . S
H87 C62 0.929 . S
H88 C64 0.932 . S
Cd89 O146 2.350 . S
Cd89 O147 2.277 . S
Cd89 O154 2.173 . S
Cd89 O156 2.263 . S
Cd89 O158 2.366 . S
Cd89 O161 2.329 . S
C90 O154 1.277 . S
C90 O155 1.230 . S
C91 O92 1.246 . S
C91 C94 1.481 . S
C91 N116 1.329 . S
O92 C91 1.246 . S
Cd93 O155 2.250 . S
Cd93 O157 2.308 . S
Cd93 O160 2.352 . S
C94 C91 1.481 . S
C94 N97 1.327 . S
C94 C98 1.407 . S
C95 C96 1.346 . S
C95 C99 1.390 . S
C95 H163 0.930 . S
C96 C95 1.346 . S
C96 N97 1.342 . S
C96 C101 1.516 . S
N97 C94 1.327 . S
N97 C96 1.342 . S
N97 Co100 1.864 . S
C98 C94 1.407 . S
C98 C99 1.364 . S
C98 H164 0.930 . S
C99 C95 1.390 . S
C99 C98 1.364 . S
C99 H165 0.931 . S
Co100 N97 1.864 . S
Co100 N116 1.955 . S
Co100 N117 1.958 . S
Co100 N118 1.953 . S
Co100 N136 1.869 . S
Co100 N142 1.974 . S
C101 C96 1.516 . S
C101 O102 1.238 . S
C101 N117 1.324 . S
O102 C101 1.238 . S
C103 C104 1.394 . S
C103 C108 1.395 . S
C103 N117 1.427 . S
C104 C103 1.394 . S
C104 C105 1.380 . S
C104 H166 0.929 . S
C105 C104 1.380 . S
C105 C106 1.384 . S
C105 C109 1.495 . S
C106 C105 1.384 . S
C106 C107 1.382 . S
C106 H167 0.930 . S
C107 C106 1.382 . S
C107 C108 1.398 . S
C108 C103 1.395 . S
C108 C107 1.398 . S
C108 H168 0.930 . S
C109 C105 1.495 . S
C109 O156 1.258 . S
C109 O157 1.274 . S
C110 C111 1.385 . S
C110 C112 1.381 . S
C110 N116 1.432 . S
C111 C110 1.385 . S
C111 C115 1.388 . S
C111 H169 0.929 . S
C112 C110 1.381 . S
C112 C113 1.371 . S
C112 H170 0.932 . S
C113 C112 1.371 . S
C113 C114 1.400 . S
C114 C113 1.400 . S
C114 C115 1.351 . S
C114 H171 0.930 . S
C115 C111 1.388 . S
C115 C114 1.351 . S
N116 C91 1.329 . S
N116 Co100 1.955 . S
N116 C110 1.432 . S
N117 Co100 1.958 . S
N117 C101 1.324 . S
N117 C103 1.427 . S
N118 Co100 1.953 . S
N118 C119 1.436 . S
N118 C145 1.316 . S
C119 N118 1.436 . S
C119 C120 1.421 . S
C119 C121 1.360 . S
C120 C119 1.421 . S
C120 C122 1.379 . S
C120 H123 0.929 . S
C121 C119 1.360 . S
C121 C125 1.393 . S
C121 H127 0.931 . S
C122 C120 1.379 . S
C122 C124 1.417 . S
C122 C126 1.505 . S
H123 C120 0.929 . S
C124 C122 1.417 . S
C124 C125 1.352 . S
C124 H128 0.929 . S
C125 C121 1.393 . S
C125 C124 1.352 . S
C125 C129 1.482 . S
C126 C122 1.505 . S
C126 O130 1.259 . S
C126 O131 1.229 . S
H127 C121 0.931 . S
H128 C124 0.929 . S
C129 C125 1.482 . S
C129 O132 1.207 . S
C129 O133 1.289 . S
O130 C126 1.259 . S
O130 H134 0.822 . S
O131 C126 1.229 . S
O132 C129 1.207 . S
O133 C129 1.289 . S
O133 H135 0.819 . S
H134 O130 0.822 . S
H135 O133 0.819 . S
N136 Co100 1.869 . S
N136 C137 1.330 . S
N136 C141 1.325 . S
C137 N136 1.330 . S
C137 C138 1.359 . S
C137 C143 1.504 . S
C138 C137 1.359 . S
C138 C139 1.366 . S
C138 H172 0.929 . S
C139 C138 1.366 . S
C139 C140 1.415 . S
C139 H173 0.932 . S
C140 C139 1.415 . S
C140 C141 1.366 . S
C140 H174 0.931 . S
C141 N136 1.325 . S
C141 C140 1.366 . S
C141 C145 1.516 . S
N142 Co100 1.974 . S
N142 C143 1.309 . S
N142 C148 1.423 . S
C143 C137 1.504 . S
C143 N142 1.309 . S
C143 O144 1.258 . S
O144 C143 1.258 . S
C145 N118 1.316 . S
C145 C141 1.516 . S
C145 O158 1.263 . S
O146 Cd89 2.350 . S
O146 C162 1.270 . S
O147 Cd89 2.277 . S
O147 C162 1.248 . S
C148 N142 1.423 . S
C148 C149 1.370 . S
C148 C153 1.403 . S
C149 C148 1.370 . S
C149 C150 1.389 . S
C149 H175 0.931 . S
C150 C149 1.389 . S
C150 C151 1.389 . S
C151 C150 1.389 . S
C151 C152 1.379 . S
C151 H176 0.929 . S
C152 C151 1.379 . S
C152 C153 1.405 . S
C153 C148 1.403 . S
C153 C152 1.405 . S
C153 H177 0.932 . S
O154 Cd89 2.173 . S
O154 C90 1.277 . S
O155 C90 1.230 . S
O155 Cd93 2.250 . S
O156 Cd89 2.263 . S
O156 C109 1.258 . S
O157 Cd93 2.308 . S
O157 C109 1.274 . S
O158 Cd89 2.366 . S
O158 C145 1.263 . S
C159 O160 1.235 . S
C159 O161 1.270 . S
O160 Cd93 2.352 . S
O160 C159 1.235 . S
O161 Cd89 2.329 . S
O161 C159 1.270 . S
C162 O146 1.270 . S
C162 O147 1.248 . S
H163 C95 0.930 . S
H164 C98 0.930 . S
H165 C99 0.931 . S
H166 C104 0.929 . S
H167 C106 0.930 . S
H168 C108 0.930 . S
H169 C111 0.929 . S
H170 C112 0.932 . S
H171 C114 0.930 . S
H172 C138 0.929 . S
H173 C139 0.932 . S
H174 C140 0.931 . S
H175 C149 0.931 . S
H176 C151 0.929 . S
H177 C153 0.932 . S
Cd178 O235 2.350 . S
Cd178 O236 2.277 . S
Cd178 O243 2.173 . S
Cd178 O245 2.263 . S
Cd178 O247 2.366 . S
Cd178 O250 2.329 . S
C179 O243 1.277 . S
C179 O244 1.230 . S
C180 O181 1.246 . S
C180 C183 1.481 . S
C180 N205 1.329 . S
O181 C180 1.246 . S
Cd182 O244 2.250 . S
Cd182 O246 2.308 . S
Cd182 O249 2.352 . S
C183 C180 1.481 . S
C183 N186 1.327 . S
C183 C187 1.407 . S
C184 C185 1.346 . S
C184 C188 1.390 . S
C184 H252 0.930 . S
C185 C184 1.346 . S
C185 N186 1.342 . S
C185 C190 1.516 . S
N186 C183 1.327 . S
N186 C185 1.342 . S
N186 Co189 1.864 . S
C187 C183 1.407 . S
C187 C188 1.364 . S
C187 H253 0.930 . S
C188 C184 1.390 . S
C188 C187 1.364 . S
C188 H254 0.931 . S
Co189 N186 1.864 . S
Co189 N205 1.955 . S
Co189 N206 1.958 . S
Co189 N207 1.953 . S
Co189 N225 1.869 . S
Co189 N231 1.974 . S
C190 C185 1.516 . S
C190 O191 1.238 . S
C190 N206 1.324 . S
O191 C190 1.238 . S
C192 C193 1.394 . S
C192 C197 1.395 . S
C192 N206 1.427 . S
C193 C192 1.394 . S
C193 C194 1.380 . S
C193 H255 0.929 . S
C194 C193 1.380 . S
C194 C195 1.384 . S
C194 C198 1.495 . S
C195 C194 1.384 . S
C195 C196 1.382 . S
C195 H256 0.930 . S
C196 C195 1.382 . S
C196 C197 1.398 . S
C197 C192 1.395 . S
C197 C196 1.398 . S
C197 H257 0.930 . S
C198 C194 1.495 . S
C198 O245 1.258 . S
C198 O246 1.274 . S
C199 C200 1.385 . S
C199 C201 1.381 . S
C199 N205 1.432 . S
C200 C199 1.385 . S
C200 C204 1.388 . S
C200 H258 0.929 . S
C201 C199 1.381 . S
C201 C202 1.371 . S
C201 H259 0.932 . S
C202 C201 1.371 . S
C202 C203 1.400 . S
C203 C202 1.400 . S
C203 C204 1.351 . S
C203 H260 0.930 . S
C204 C200 1.388 . S
C204 C203 1.351 . S
N205 C180 1.329 . S
N205 Co189 1.955 . S
N205 C199 1.432 . S
N206 Co189 1.958 . S
N206 C190 1.324 . S
N206 C192 1.427 . S
N207 Co189 1.953 . S
N207 C208 1.436 . S
N207 C234 1.316 . S
C208 N207 1.436 . S
C208 C209 1.421 . S
C208 C210 1.360 . S
C209 C208 1.421 . S
C209 C211 1.379 . S
C209 H212 0.929 . S
C210 C208 1.360 . S
C210 C214 1.393 . S
C210 H216 0.931 . S
C211 C209 1.379 . S
C211 C213 1.417 . S
C211 C215 1.505 . S
H212 C209 0.929 . S
C213 C211 1.417 . S
C213 C214 1.352 . S
C213 H217 0.929 . S
C214 C210 1.393 . S
C214 C213 1.352 . S
C214 C218 1.482 . S
C215 C211 1.505 . S
C215 O219 1.259 . S
C215 O220 1.229 . S
H216 C210 0.931 . S
H217 C213 0.929 . S
C218 C214 1.482 . S
C218 O221 1.207 . S
C218 O222 1.289 . S
O219 C215 1.259 . S
O219 H223 0.822 . S
O220 C215 1.229 . S
O221 C218 1.207 . S
O222 C218 1.289 . S
O222 H224 0.819 . S
H223 O219 0.822 . S
H224 O222 0.819 . S
N225 Co189 1.869 . S
N225 C226 1.330 . S
N225 C230 1.325 . S
C226 N225 1.330 . S
C226 C227 1.359 . S
C226 C232 1.504 . S
C227 C226 1.359 . S
C227 C228 1.366 . S
C227 H261 0.929 . S
C228 C227 1.366 . S
C228 C229 1.415 . S
C228 H262 0.932 . S
C229 C228 1.415 . S
C229 C230 1.366 . S
C229 H263 0.931 . S
C230 N225 1.325 . S
C230 C229 1.366 . S
C230 C234 1.516 . S
N231 Co189 1.974 . S
N231 C232 1.309 . S
N231 C237 1.423 . S
C232 C226 1.504 . S
C232 N231 1.309 . S
C232 O233 1.258 . S
O233 C232 1.258 . S
C234 N207 1.316 . S
C234 C230 1.516 . S
C234 O247 1.263 . S
O235 Cd178 2.350 . S
O235 C251 1.270 . S
O236 Cd178 2.277 . S
O236 C251 1.248 . S
C237 N231 1.423 . S
C237 C238 1.370 . S
C237 C242 1.403 . S
C238 C237 1.370 . S
C238 C239 1.389 . S
C238 H264 0.931 . S
C239 C238 1.389 . S
C239 C240 1.389 . S
C240 C239 1.389 . S
C240 C241 1.379 . S
C240 H265 0.929 . S
C241 C240 1.379 . S
C241 C242 1.405 . S
C242 C237 1.403 . S
C242 C241 1.405 . S
C242 H266 0.932 . S
O243 Cd178 2.173 . S
O243 C179 1.277 . S
O244 C179 1.230 . S
O244 Cd182 2.250 . S
O245 Cd178 2.263 . S
O245 C198 1.258 . S
O246 Cd182 2.308 . S
O246 C198 1.274 . S
O247 Cd178 2.366 . S
O247 C234 1.263 . S
C248 O249 1.235 . S
C248 O250 1.270 . S
O249 Cd182 2.352 . S
O249 C248 1.235 . S
O250 Cd178 2.329 . S
O250 C248 1.270 . S
C251 O235 1.270 . S
C251 O236 1.248 . S
H252 C184 0.930 . S
H253 C187 0.930 . S
H254 C188 0.931 . S
H255 C193 0.929 . S
H256 C195 0.930 . S
H257 C197 0.930 . S
H258 C200 0.929 . S
H259 C201 0.932 . S
H260 C203 0.930 . S
H261 C227 0.929 . S
H262 C228 0.932 . S
H263 C229 0.931 . S
H264 C238 0.931 . S
H265 C240 0.929 . S
H266 C242 0.932 . S
Cd267 O324 2.350 . S
Cd267 O325 2.277 . S
Cd267 O332 2.173 . S
Cd267 O334 2.263 . S
Cd267 O336 2.366 . S
Cd267 O339 2.329 . S
C268 O332 1.277 . S
C268 O333 1.230 . S
C269 O270 1.246 . S
C269 C272 1.481 . S
C269 N294 1.329 . S
O270 C269 1.246 . S
Cd271 O333 2.250 . S
Cd271 O335 2.308 . S
Cd271 O338 2.352 . S
C272 C269 1.481 . S
C272 N275 1.327 . S
C272 C276 1.407 . S
C273 C274 1.346 . S
C273 C277 1.390 . S
C273 H341 0.930 . S
C274 C273 1.346 . S
C274 N275 1.342 . S
C274 C279 1.516 . S
N275 C272 1.327 . S
N275 C274 1.342 . S
N275 Co278 1.864 . S
C276 C272 1.407 . S
C276 C277 1.364 . S
C276 H342 0.930 . S
C277 C273 1.390 . S
C277 C276 1.364 . S
C277 H343 0.931 . S
Co278 N275 1.864 . S
Co278 N294 1.955 . S
Co278 N295 1.958 . S
Co278 N296 1.953 . S
Co278 N314 1.869 . S
Co278 N320 1.974 . S
C279 C274 1.516 . S
C279 O280 1.238 . S
C279 N295 1.324 . S
O280 C279 1.238 . S
C281 C282 1.394 . S
C281 C286 1.395 . S
C281 N295 1.427 . S
C282 C281 1.394 . S
C282 C283 1.380 . S
C282 H344 0.929 . S
C283 C282 1.380 . S
C283 C284 1.384 . S
C283 C287 1.495 . S
C284 C283 1.384 . S
C284 C285 1.382 . S
C284 H345 0.930 . S
C285 C284 1.382 . S
C285 C286 1.398 . S
C286 C281 1.395 . S
C286 C285 1.398 . S
C286 H346 0.930 . S
C287 C283 1.495 . S
C287 O334 1.258 . S
C287 O335 1.274 . S
C288 C289 1.385 . S
C288 C290 1.381 . S
C288 N294 1.432 . S
C289 C288 1.385 . S
C289 C293 1.388 . S
C289 H347 0.929 . S
C290 C288 1.381 . S
C290 C291 1.371 . S
C290 H348 0.932 . S
C291 C290 1.371 . S
C291 C292 1.400 . S
C292 C291 1.400 . S
C292 C293 1.351 . S
C292 H349 0.930 . S
C293 C289 1.388 . S
C293 C292 1.351 . S
N294 C269 1.329 . S
N294 Co278 1.955 . S
N294 C288 1.432 . S
N295 Co278 1.958 . S
N295 C279 1.324 . S
N295 C281 1.427 . S
N296 Co278 1.953 . S
N296 C297 1.436 . S
N296 C323 1.316 . S
C297 N296 1.436 . S
C297 C298 1.421 . S
C297 C299 1.360 . S
C298 C297 1.421 . S
C298 C300 1.379 . S
C298 H301 0.929 . S
C299 C297 1.360 . S
C299 C303 1.393 . S
C299 H305 0.931 . S
C300 C298 1.379 . S
C300 C302 1.417 . S
C300 C304 1.505 . S
H301 C298 0.929 . S
C302 C300 1.417 . S
C302 C303 1.352 . S
C302 H306 0.929 . S
C303 C299 1.393 . S
C303 C302 1.352 . S
C303 C307 1.482 . S
C304 C300 1.505 . S
C304 O308 1.259 . S
C304 O309 1.229 . S
H305 C299 0.931 . S
H306 C302 0.929 . S
C307 C303 1.482 . S
C307 O310 1.207 . S
C307 O311 1.289 . S
O308 C304 1.259 . S
O308 H312 0.822 . S
O309 C304 1.229 . S
O310 C307 1.207 . S
O311 C307 1.289 . S
O311 H313 0.819 . S
H312 O308 0.822 . S
H313 O311 0.819 . S
N314 Co278 1.869 . S
N314 C315 1.330 . S
N314 C319 1.325 . S
C315 N314 1.330 . S
C315 C316 1.359 . S
C315 C321 1.504 . S
C316 C315 1.359 . S
C316 C317 1.366 . S
C316 H350 0.929 . S
C317 C316 1.366 . S
C317 C318 1.415 . S
C317 H351 0.932 . S
C318 C317 1.415 . S
C318 C319 1.366 . S
C318 H352 0.931 . S
C319 N314 1.325 . S
C319 C318 1.366 . S
C319 C323 1.516 . S
N320 Co278 1.974 . S
N320 C321 1.309 . S
N320 C326 1.423 . S
C321 C315 1.504 . S
C321 N320 1.309 . S
C321 O322 1.258 . S
O322 C321 1.258 . S
C323 N296 1.316 . S
C323 C319 1.516 . S
C323 O336 1.263 . S
O324 Cd267 2.350 . S
O324 C340 1.270 . S
O325 Cd267 2.277 . S
O325 C340 1.248 . S
C326 N320 1.423 . S
C326 C327 1.370 . S
C326 C331 1.403 . S
C327 C326 1.370 . S
C327 C328 1.389 . S
C327 H353 0.931 . S
C328 C327 1.389 . S
C328 C329 1.389 . S
C329 C328 1.389 . S
C329 C330 1.379 . S
C329 H354 0.929 . S
C330 C329 1.379 . S
C330 C331 1.405 . S
C331 C326 1.403 . S
C331 C330 1.405 . S
C331 H355 0.932 . S
O332 Cd267 2.173 . S
O332 C268 1.277 . S
O333 C268 1.230 . S
O333 Cd271 2.250 . S
O334 Cd267 2.263 . S
O334 C287 1.258 . S
O335 Cd271 2.308 . S
O335 C287 1.274 . S
O336 Cd267 2.366 . S
O336 C323 1.263 . S
C337 O338 1.235 . S
C337 O339 1.270 . S
O338 Cd271 2.352 . S
O338 C337 1.235 . S
O339 Cd267 2.329 . S
O339 C337 1.270 . S
C340 O324 1.270 . S
C340 O325 1.248 . S
H341 C273 0.930 . S
H342 C276 0.930 . S
H343 C277 0.931 . S
H344 C282 0.929 . S
H345 C284 0.930 . S
H346 C286 0.930 . S
H347 C289 0.929 . S
H348 C290 0.932 . S
H349 C292 0.930 . S
H350 C316 0.929 . S
H351 C317 0.932 . S
H352 C318 0.931 . S
H353 C327 0.931 . S
H354 C329 0.929 . S
H355 C331 0.932 . S
Cd356 O413 2.350 . S
Cd356 O414 2.277 . S
Cd356 O421 2.173 . S
Cd356 O423 2.263 . S
Cd356 O425 2.366 . S
Cd356 O428 2.329 . S
C357 O421 1.277 . S
C357 O422 1.230 . S
C358 O359 1.246 . S
C358 C361 1.481 . S
C358 N383 1.329 . S
O359 C358 1.246 . S
Cd360 O422 2.250 . S
Cd360 O424 2.308 . S
Cd360 O427 2.352 . S
C361 C358 1.481 . S
C361 N364 1.327 . S
C361 C365 1.407 . S
C362 C363 1.346 . S
C362 C366 1.390 . S
C362 H430 0.930 . S
C363 C362 1.346 . S
C363 N364 1.342 . S
C363 C368 1.516 . S
N364 C361 1.327 . S
N364 C363 1.342 . S
N364 Co367 1.864 . S
C365 C361 1.407 . S
C365 C366 1.364 . S
C365 H431 0.930 . S
C366 C362 1.390 . S
C366 C365 1.364 . S
C366 H432 0.931 . S
Co367 N364 1.864 . S
Co367 N383 1.955 . S
Co367 N384 1.958 . S
Co367 N385 1.953 . S
Co367 N403 1.869 . S
Co367 N409 1.974 . S
C368 C363 1.516 . S
C368 O369 1.238 . S
C368 N384 1.324 . S
O369 C368 1.238 . S
C370 C371 1.394 . S
C370 C375 1.395 . S
C370 N384 1.427 . S
C371 C370 1.394 . S
C371 C372 1.380 . S
C371 H433 0.929 . S
C372 C371 1.380 . S
C372 C373 1.384 . S
C372 C376 1.495 . S
C373 C372 1.384 . S
C373 C374 1.382 . S
C373 H434 0.930 . S
C374 C373 1.382 . S
C374 C375 1.398 . S
C375 C370 1.395 . S
C375 C374 1.398 . S
C375 H435 0.930 . S
C376 C372 1.495 . S
C376 O423 1.258 . S
C376 O424 1.274 . S
C377 C378 1.385 . S
C377 C379 1.381 . S
C377 N383 1.432 . S
C378 C377 1.385 . S
C378 C382 1.388 . S
C378 H436 0.929 . S
C379 C377 1.381 . S
C379 C380 1.371 . S
C379 H437 0.932 . S
C380 C379 1.371 . S
C380 C381 1.400 . S
C381 C380 1.400 . S
C381 C382 1.351 . S
C381 H438 0.930 . S
C382 C378 1.388 . S
C382 C381 1.351 . S
N383 C358 1.329 . S
N383 Co367 1.955 . S
N383 C377 1.432 . S
N384 Co367 1.958 . S
N384 C368 1.324 . S
N384 C370 1.427 . S
N385 Co367 1.953 . S
N385 C386 1.436 . S
N385 C412 1.316 . S
C386 N385 1.436 . S
C386 C387 1.421 . S
C386 C388 1.360 . S
C387 C386 1.421 . S
C387 C389 1.379 . S
C387 H390 0.929 . S
C388 C386 1.360 . S
C388 C392 1.393 . S
C388 H394 0.931 . S
C389 C387 1.379 . S
C389 C391 1.417 . S
C389 C393 1.505 . S
H390 C387 0.929 . S
C391 C389 1.417 . S
C391 C392 1.352 . S
C391 H395 0.929 . S
C392 C388 1.393 . S
C392 C391 1.352 . S
C392 C396 1.482 . S
C393 C389 1.505 . S
C393 O397 1.259 . S
C393 O398 1.229 . S
H394 C388 0.931 . S
H395 C391 0.929 . S
C396 C392 1.482 . S
C396 O399 1.207 . S
C396 O400 1.289 . S
O397 C393 1.259 . S
O397 H401 0.822 . S
O398 C393 1.229 . S
O399 C396 1.207 . S
O400 C396 1.289 . S
O400 H402 0.819 . S
H401 O397 0.822 . S
H402 O400 0.819 . S
N403 Co367 1.869 . S
N403 C404 1.330 . S
N403 C408 1.325 . S
C404 N403 1.330 . S
C404 C405 1.359 . S
C404 C410 1.504 . S
C405 C404 1.359 . S
C405 C406 1.366 . S
C405 H439 0.929 . S
C406 C405 1.366 . S
C406 C407 1.415 . S
C406 H440 0.932 . S
C407 C406 1.415 . S
C407 C408 1.366 . S
C407 H441 0.931 . S
C408 N403 1.325 . S
C408 C407 1.366 . S
C408 C412 1.516 . S
N409 Co367 1.974 . S
N409 C410 1.309 . S
N409 C415 1.423 . S
C410 C404 1.504 . S
C410 N409 1.309 . S
C410 O411 1.258 . S
O411 C410 1.258 . S
C412 N385 1.316 . S
C412 C408 1.516 . S
C412 O425 1.263 . S
O413 Cd356 2.350 . S
O413 C429 1.270 . S
O414 Cd356 2.277 . S
O414 C429 1.248 . S
C415 N409 1.423 . S
C415 C416 1.370 . S
C415 C420 1.403 . S
C416 C415 1.370 . S
C416 C417 1.389 . S
C416 H442 0.931 . S
C417 C416 1.389 . S
C417 C418 1.389 . S
C418 C417 1.389 . S
C418 C419 1.379 . S
C418 H443 0.929 . S
C419 C418 1.379 . S
C419 C420 1.405 . S
C420 C415 1.403 . S
C420 C419 1.405 . S
C420 H444 0.932 . S
O421 Cd356 2.173 . S
O421 C357 1.277 . S
O422 C357 1.230 . S
O422 Cd360 2.250 . S
O423 Cd356 2.263 . S
O423 C376 1.258 . S
O424 Cd360 2.308 . S
O424 C376 1.274 . S
O425 Cd356 2.366 . S
O425 C412 1.263 . S
C426 O427 1.235 . S
C426 O428 1.270 . S
O427 Cd360 2.352 . S
O427 C426 1.235 . S
O428 Cd356 2.329 . S
O428 C426 1.270 . S
C429 O413 1.270 . S
C429 O414 1.248 . S
H430 C362 0.930 . S
H431 C365 0.930 . S
H432 C366 0.931 . S
H433 C371 0.929 . S
H434 C373 0.930 . S
H435 C375 0.930 . S
H436 C378 0.929 . S
H437 C379 0.932 . S
H438 C381 0.930 . S
H439 C405 0.929 . S
H440 C406 0.932 . S
H441 C407 0.931 . S
H442 C416 0.931 . S
H443 C418 0.929 . S
H444 C420 0.932 . S
Cd445 O502 2.350 . S
Cd445 O503 2.277 . S
Cd445 O510 2.173 . S
Cd445 O512 2.263 . S
Cd445 O514 2.366 . S
Cd445 O517 2.329 . S
C446 O510 1.277 . S
C446 O511 1.230 . S
C447 O448 1.246 . S
C447 C450 1.481 . S
C447 N472 1.329 . S
O448 C447 1.246 . S
Cd449 O511 2.250 . S
Cd449 O513 2.308 . S
Cd449 O516 2.352 . S
C450 C447 1.481 . S
C450 N453 1.327 . S
C450 C454 1.407 . S
C451 C452 1.346 . S
C451 C455 1.390 . S
C451 H519 0.930 . S
C452 C451 1.346 . S
C452 N453 1.342 . S
C452 C457 1.516 . S
N453 C450 1.327 . S
N453 C452 1.342 . S
N453 Co456 1.864 . S
C454 C450 1.407 . S
C454 C455 1.364 . S
C454 H520 0.930 . S
C455 C451 1.390 . S
C455 C454 1.364 . S
C455 H521 0.931 . S
Co456 N453 1.864 . S
Co456 N472 1.955 . S
Co456 N473 1.958 . S
Co456 N474 1.953 . S
Co456 N492 1.869 . S
Co456 N498 1.974 . S
C457 C452 1.516 . S
C457 O458 1.238 . S
C457 N473 1.324 . S
O458 C457 1.238 . S
C459 C460 1.394 . S
C459 C464 1.395 . S
C459 N473 1.427 . S
C460 C459 1.394 . S
C460 C461 1.380 . S
C460 H522 0.929 . S
C461 C460 1.380 . S
C461 C462 1.384 . S
C461 C465 1.495 . S
C462 C461 1.384 . S
C462 C463 1.382 . S
C462 H523 0.930 . S
C463 C462 1.382 . S
C463 C464 1.398 . S
C464 C459 1.395 . S
C464 C463 1.398 . S
C464 H524 0.930 . S
C465 C461 1.495 . S
C465 O512 1.258 . S
C465 O513 1.274 . S
C466 C467 1.385 . S
C466 C468 1.381 . S
C466 N472 1.432 . S
C467 C466 1.385 . S
C467 C471 1.388 . S
C467 H525 0.929 . S
C468 C466 1.381 . S
C468 C469 1.371 . S
C468 H526 0.932 . S
C469 C468 1.371 . S
C469 C470 1.400 . S
C470 C469 1.400 . S
C470 C471 1.351 . S
C470 H527 0.930 . S
C471 C467 1.388 . S
C471 C470 1.351 . S
N472 C447 1.329 . S
N472 Co456 1.955 . S
N472 C466 1.432 . S
N473 Co456 1.958 . S
N473 C457 1.324 . S
N473 C459 1.427 . S
N474 Co456 1.953 . S
N474 C475 1.436 . S
N474 C501 1.316 . S
C475 N474 1.436 . S
C475 C476 1.421 . S
C475 C477 1.360 . S
C476 C475 1.421 . S
C476 C478 1.379 . S
C476 H479 0.929 . S
C477 C475 1.360 . S
C477 C481 1.393 . S
C477 H483 0.931 . S
C478 C476 1.379 . S
C478 C480 1.417 . S
C478 C482 1.505 . S
H479 C476 0.929 . S
C480 C478 1.417 . S
C480 C481 1.352 . S
C480 H484 0.929 . S
C481 C477 1.393 . S
C481 C480 1.352 . S
C481 C485 1.482 . S
C482 C478 1.505 . S
C482 O486 1.259 . S
C482 O487 1.229 . S
H483 C477 0.931 . S
H484 C480 0.929 . S
C485 C481 1.482 . S
C485 O488 1.207 . S
C485 O489 1.289 . S
O486 C482 1.259 . S
O486 H490 0.822 . S
O487 C482 1.229 . S
O488 C485 1.207 . S
O489 C485 1.289 . S
O489 H491 0.819 . S
H490 O486 0.822 . S
H491 O489 0.819 . S
N492 Co456 1.869 . S
N492 C493 1.330 . S
N492 C497 1.325 . S
C493 N492 1.330 . S
C493 C494 1.359 . S
C493 C499 1.504 . S
C494 C493 1.359 . S
C494 C495 1.366 . S
C494 H528 0.929 . S
C495 C494 1.366 . S
C495 C496 1.415 . S
C495 H529 0.932 . S
C496 C495 1.415 . S
C496 C497 1.366 . S
C496 H530 0.931 . S
C497 N492 1.325 . S
C497 C496 1.366 . S
C497 C501 1.516 . S
N498 Co456 1.974 . S
N498 C499 1.309 . S
N498 C504 1.423 . S
C499 C493 1.504 . S
C499 N498 1.309 . S
C499 O500 1.258 . S
O500 C499 1.258 . S
C501 N474 1.316 . S
C501 C497 1.516 . S
C501 O514 1.263 . S
O502 Cd445 2.350 . S
O502 C518 1.270 . S
O503 Cd445 2.277 . S
O503 C518 1.248 . S
C504 N498 1.423 . S
C504 C505 1.370 . S
C504 C509 1.403 . S
C505 C504 1.370 . S
C505 C506 1.389 . S
C505 H531 0.931 . S
C506 C505 1.389 . S
C506 C507 1.389 . S
C507 C506 1.389 . S
C507 C508 1.379 . S
C507 H532 0.929 . S
C508 C507 1.379 . S
C508 C509 1.405 . S
C509 C504 1.403 . S
C509 C508 1.405 . S
C509 H533 0.932 . S
O510 Cd445 2.173 . S
O510 C446 1.277 . S
O511 C446 1.230 . S
O511 Cd449 2.250 . S
O512 Cd445 2.263 . S
O512 C465 1.258 . S
O513 Cd449 2.308 . S
O513 C465 1.274 . S
O514 Cd445 2.366 . S
O514 C501 1.263 . S
C515 O516 1.235 . S
C515 O517 1.270 . S
O516 Cd449 2.352 . S
O516 C515 1.235 . S
O517 Cd445 2.329 . S
O517 C515 1.270 . S
C518 O502 1.270 . S
C518 O503 1.248 . S
H519 C451 0.930 . S
H520 C454 0.930 . S
H521 C455 0.931 . S
H522 C460 0.929 . S
H523 C462 0.930 . S
H524 C464 0.930 . S
H525 C467 0.929 . S
H526 C468 0.932 . S
H527 C470 0.930 . S
H528 C494 0.929 . S
H529 C495 0.932 . S
H530 C496 0.931 . S
H531 C505 0.931 . S
H532 C507 0.929 . S
H533 C509 0.932 . S
Cd534 O591 2.350 . S
Cd534 O592 2.277 . S
Cd534 O599 2.173 . S
Cd534 O601 2.263 . S
Cd534 O603 2.366 . S
Cd534 O606 2.329 . S
C535 O599 1.277 . S
C535 O600 1.230 . S
C536 O537 1.246 . S
C536 C539 1.481 . S
C536 N561 1.329 . S
O537 C536 1.246 . S
Cd538 O600 2.250 . S
Cd538 O602 2.308 . S
Cd538 O605 2.352 . S
C539 C536 1.481 . S
C539 N542 1.327 . S
C539 C543 1.407 . S
C540 C541 1.346 . S
C540 C544 1.390 . S
C540 H608 0.930 . S
C541 C540 1.346 . S
C541 N542 1.342 . S
C541 C546 1.516 . S
N542 C539 1.327 . S
N542 C541 1.342 . S
N542 Co545 1.864 . S
C543 C539 1.407 . S
C543 C544 1.364 . S
C543 H609 0.930 . S
C544 C540 1.390 . S
C544 C543 1.364 . S
C544 H610 0.931 . S
Co545 N542 1.864 . S
Co545 N561 1.955 . S
Co545 N562 1.958 . S
Co545 N563 1.953 . S
Co545 N581 1.869 . S
Co545 N587 1.974 . S
C546 C541 1.516 . S
C546 O547 1.238 . S
C546 N562 1.324 . S
O547 C546 1.238 . S
C548 C549 1.394 . S
C548 C553 1.395 . S
C548 N562 1.427 . S
C549 C548 1.394 . S
C549 C550 1.380 . S
C549 H611 0.929 . S
C550 C549 1.380 . S
C550 C551 1.384 . S
C550 C554 1.495 . S
C551 C550 1.384 . S
C551 C552 1.382 . S
C551 H612 0.930 . S
C552 C551 1.382 . S
C552 C553 1.398 . S
C553 C548 1.395 . S
C553 C552 1.398 . S
C553 H613 0.930 . S
C554 C550 1.495 . S
C554 O601 1.258 . S
C554 O602 1.274 . S
C555 C556 1.385 . S
C555 C557 1.381 . S
C555 N561 1.432 . S
C556 C555 1.385 . S
C556 C560 1.388 . S
C556 H614 0.929 . S
C557 C555 1.381 . S
C557 C558 1.371 . S
C557 H615 0.932 . S
C558 C557 1.371 . S
C558 C559 1.400 . S
C559 C558 1.400 . S
C559 C560 1.351 . S
C559 H616 0.930 . S
C560 C556 1.388 . S
C560 C559 1.351 . S
N561 C536 1.329 . S
N561 Co545 1.955 . S
N561 C555 1.432 . S
N562 Co545 1.958 . S
N562 C546 1.324 . S
N562 C548 1.427 . S
N563 Co545 1.953 . S
N563 C564 1.436 . S
N563 C590 1.316 . S
C564 N563 1.436 . S
C564 C565 1.421 . S
C564 C566 1.360 . S
C565 C564 1.421 . S
C565 C567 1.379 . S
C565 H568 0.929 . S
C566 C564 1.360 . S
C566 C570 1.393 . S
C566 H572 0.931 . S
C567 C565 1.379 . S
C567 C569 1.417 . S
C567 C571 1.505 . S
H568 C565 0.929 . S
C569 C567 1.417 . S
C569 C570 1.352 . S
C569 H573 0.929 . S
C570 C566 1.393 . S
C570 C569 1.352 . S
C570 C574 1.482 . S
C571 C567 1.505 . S
C571 O575 1.259 . S
C571 O576 1.229 . S
H572 C566 0.931 . S
H573 C569 0.929 . S
C574 C570 1.482 . S
C574 O577 1.207 . S
C574 O578 1.289 . S
O575 C571 1.259 . S
O575 H579 0.822 . S
O576 C571 1.229 . S
O577 C574 1.207 . S
O578 C574 1.289 . S
O578 H580 0.819 . S
H579 O575 0.822 . S
H580 O578 0.819 . S
N581 Co545 1.869 . S
N581 C582 1.330 . S
N581 C586 1.325 . S
C582 N581 1.330 . S
C582 C583 1.359 . S
C582 C588 1.504 . S
C583 C582 1.359 . S
C583 C584 1.366 . S
C583 H617 0.929 . S
C584 C583 1.366 . S
C584 C585 1.415 . S
C584 H618 0.932 . S
C585 C584 1.415 . S
C585 C586 1.366 . S
C585 H619 0.931 . S
C586 N581 1.325 . S
C586 C585 1.366 . S
C586 C590 1.516 . S
N587 Co545 1.974 . S
N587 C588 1.309 . S
N587 C593 1.423 . S
C588 C582 1.504 . S
C588 N587 1.309 . S
C588 O589 1.258 . S
O589 C588 1.258 . S
C590 N563 1.316 . S
C590 C586 1.516 . S
C590 O603 1.263 . S
O591 Cd534 2.350 . S
O591 C607 1.270 . S
O592 Cd534 2.277 . S
O592 C607 1.248 . S
C593 N587 1.423 . S
C593 C594 1.370 . S
C593 C598 1.403 . S
C594 C593 1.370 . S
C594 C595 1.389 . S
C594 H620 0.931 . S
C595 C594 1.389 . S
C595 C596 1.389 . S
C596 C595 1.389 . S
C596 C597 1.379 . S
C596 H621 0.929 . S
C597 C596 1.379 . S
C597 C598 1.405 . S
C598 C593 1.403 . S
C598 C597 1.405 . S
C598 H622 0.932 . S
O599 Cd534 2.173 . S
O599 C535 1.277 . S
O600 C535 1.230 . S
O600 Cd538 2.250 . S
O601 Cd534 2.263 . S
O601 C554 1.258 . S
O602 Cd538 2.308 . S
O602 C554 1.274 . S
O603 Cd534 2.366 . S
O603 C590 1.263 . S
C604 O605 1.235 . S
C604 O606 1.270 . S
O605 Cd538 2.352 . S
O605 C604 1.235 . S
O606 Cd534 2.329 . S
O606 C604 1.270 . S
C607 O591 1.270 . S
C607 O592 1.248 . S
H608 C540 0.930 . S
H609 C543 0.930 . S
H610 C544 0.931 . S
H611 C549 0.929 . S
H612 C551 0.930 . S
H613 C553 0.930 . S
H614 C556 0.929 . S
H615 C557 0.932 . S
H616 C559 0.930 . S
H617 C583 0.929 . S
H618 C584 0.932 . S
H619 C585 0.931 . S
H620 C594 0.931 . S
H621 C596 0.929 . S
H622 C598 0.932 . S
Cd623 O680 2.350 . S
Cd623 O681 2.277 . S
Cd623 O688 2.173 . S
Cd623 O690 2.263 . S
Cd623 O692 2.366 . S
Cd623 O695 2.329 . S
C624 O688 1.277 . S
C624 O689 1.230 . S
C625 O626 1.246 . S
C625 C628 1.481 . S
C625 N650 1.329 . S
O626 C625 1.246 . S
Cd627 O689 2.250 . S
Cd627 O691 2.308 . S
Cd627 O694 2.352 . S
C628 C625 1.481 . S
C628 N631 1.327 . S
C628 C632 1.407 . S
C629 C630 1.346 . S
C629 C633 1.390 . S
C629 H697 0.930 . S
C630 C629 1.346 . S
C630 N631 1.342 . S
C630 C635 1.516 . S
N631 C628 1.327 . S
N631 C630 1.342 . S
N631 Co634 1.864 . S
C632 C628 1.407 . S
C632 C633 1.364 . S
C632 H698 0.930 . S
C633 C629 1.390 . S
C633 C632 1.364 . S
C633 H699 0.931 . S
Co634 N631 1.864 . S
Co634 N650 1.955 . S
Co634 N651 1.958 . S
Co634 N652 1.953 . S
Co634 N670 1.869 . S
Co634 N676 1.974 . S
C635 C630 1.516 . S
C635 O636 1.238 . S
C635 N651 1.324 . S
O636 C635 1.238 . S
C637 C638 1.394 . S
C637 C642 1.395 . S
C637 N651 1.427 . S
C638 C637 1.394 . S
C638 C639 1.380 . S
C638 H700 0.929 . S
C639 C638 1.380 . S
C639 C640 1.384 . S
C639 C643 1.495 . S
C640 C639 1.384 . S
C640 C641 1.382 . S
C640 H701 0.930 . S
C641 C640 1.382 . S
C641 C642 1.398 . S
C642 C637 1.395 . S
C642 C641 1.398 . S
C642 H702 0.930 . S
C643 C639 1.495 . S
C643 O690 1.258 . S
C643 O691 1.274 . S
C644 C645 1.385 . S
C644 C646 1.381 . S
C644 N650 1.432 . S
C645 C644 1.385 . S
C645 C649 1.388 . S
C645 H703 0.929 . S
C646 C644 1.381 . S
C646 C647 1.371 . S
C646 H704 0.932 . S
C647 C646 1.371 . S
C647 C648 1.400 . S
C648 C647 1.400 . S
C648 C649 1.351 . S
C648 H705 0.930 . S
C649 C645 1.388 . S
C649 C648 1.351 . S
N650 C625 1.329 . S
N650 Co634 1.955 . S
N650 C644 1.432 . S
N651 Co634 1.958 . S
N651 C635 1.324 . S
N651 C637 1.427 . S
N652 Co634 1.953 . S
N652 C653 1.436 . S
N652 C679 1.316 . S
C653 N652 1.436 . S
C653 C654 1.421 . S
C653 C655 1.360 . S
C654 C653 1.421 . S
C654 C656 1.379 . S
C654 H657 0.929 . S
C655 C653 1.360 . S
C655 C659 1.393 . S
C655 H661 0.931 . S
C656 C654 1.379 . S
C656 C658 1.417 . S
C656 C660 1.505 . S
H657 C654 0.929 . S
C658 C656 1.417 . S
C658 C659 1.352 . S
C658 H662 0.929 . S
C659 C655 1.393 . S
C659 C658 1.352 . S
C659 C663 1.482 . S
C660 C656 1.505 . S
C660 O664 1.259 . S
C660 O665 1.229 . S
H661 C655 0.931 . S
H662 C658 0.929 . S
C663 C659 1.482 . S
C663 O666 1.207 . S
C663 O667 1.289 . S
O664 C660 1.259 . S
O664 H668 0.822 . S
O665 C660 1.229 . S
O666 C663 1.207 . S
O667 C663 1.289 . S
O667 H669 0.819 . S
H668 O664 0.822 . S
H669 O667 0.819 . S
N670 Co634 1.869 . S
N670 C671 1.330 . S
N670 C675 1.325 . S
C671 N670 1.330 . S
C671 C672 1.359 . S
C671 C677 1.504 . S
C672 C671 1.359 . S
C672 C673 1.366 . S
C672 H706 0.929 . S
C673 C672 1.366 . S
C673 C674 1.415 . S
C673 H707 0.932 . S
C674 C673 1.415 . S
C674 C675 1.366 . S
C674 H708 0.931 . S
C675 N670 1.325 . S
C675 C674 1.366 . S
C675 C679 1.516 . S
N676 Co634 1.974 . S
N676 C677 1.309 . S
N676 C682 1.423 . S
C677 C671 1.504 . S
C677 N676 1.309 . S
C677 O678 1.258 . S
O678 C677 1.258 . S
C679 N652 1.316 . S
C679 C675 1.516 . S
C679 O692 1.263 . S
O680 Cd623 2.350 . S
O680 C696 1.270 . S
O681 Cd623 2.277 . S
O681 C696 1.248 . S
C682 N676 1.423 . S
C682 C683 1.370 . S
C682 C687 1.403 . S
C683 C682 1.370 . S
C683 C684 1.389 . S
C683 H709 0.931 . S
C684 C683 1.389 . S
C684 C685 1.389 . S
C685 C684 1.389 . S
C685 C686 1.379 . S
C685 H710 0.929 . S
C686 C685 1.379 . S
C686 C687 1.405 . S
C687 C682 1.403 . S
C687 C686 1.405 . S
C687 H711 0.932 . S
O688 Cd623 2.173 . S
O688 C624 1.277 . S
O689 C624 1.230 . S
O689 Cd627 2.250 . S
O690 Cd623 2.263 . S
O690 C643 1.258 . S
O691 Cd627 2.308 . S
O691 C643 1.274 . S
O692 Cd623 2.366 . S
O692 C679 1.263 . S
C693 O694 1.235 . S
C693 O695 1.270 . S
O694 Cd627 2.352 . S
O694 C693 1.235 . S
O695 Cd623 2.329 . S
O695 C693 1.270 . S
C696 O680 1.270 . S
C696 O681 1.248 . S
H697 C629 0.930 . S
H698 C632 0.930 . S
H699 C633 0.931 . S
H700 C638 0.929 . S
H701 C640 0.930 . S
H702 C642 0.930 . S
H703 C645 0.929 . S
H704 C646 0.932 . S
H705 C648 0.930 . S
H706 C672 0.929 . S
H707 C673 0.932 . S
H708 C674 0.931 . S
H709 C683 0.931 . S
H710 C685 0.929 . S
H711 C687 0.932 . S
Cd712 O769 2.350 . S
Cd712 O770 2.277 . S
Cd712 O777 2.173 . S
Cd712 O779 2.263 . S
Cd712 O781 2.366 . S
Cd712 O784 2.329 . S
C713 O777 1.277 . S
C713 O778 1.230 . S
C714 O715 1.246 . S
C714 C717 1.481 . S
C714 N739 1.329 . S
O715 C714 1.246 . S
Cd716 O778 2.250 . S
Cd716 O780 2.308 . S
Cd716 O783 2.352 . S
C717 C714 1.481 . S
C717 N720 1.327 . S
C717 C721 1.407 . S
C718 C719 1.346 . S
C718 C722 1.390 . S
C718 H786 0.930 . S
C719 C718 1.346 . S
C719 N720 1.342 . S
C719 C724 1.516 . S
N720 C717 1.327 . S
N720 C719 1.342 . S
N720 Co723 1.864 . S
C721 C717 1.407 . S
C721 C722 1.364 . S
C721 H787 0.930 . S
C722 C718 1.390 . S
C722 C721 1.364 . S
C722 H788 0.931 . S
Co723 N720 1.864 . S
Co723 N739 1.955 . S
Co723 N740 1.958 . S
Co723 N741 1.953 . S
Co723 N759 1.869 . S
Co723 N765 1.974 . S
C724 C719 1.516 . S
C724 O725 1.238 . S
C724 N740 1.324 . S
O725 C724 1.238 . S
C726 C727 1.394 . S
C726 C731 1.395 . S
C726 N740 1.427 . S
C727 C726 1.394 . S
C727 C728 1.380 . S
C727 H789 0.929 . S
C728 C727 1.380 . S
C728 C729 1.384 . S
C728 C732 1.495 . S
C729 C728 1.384 . S
C729 C730 1.382 . S
C729 H790 0.930 . S
C730 C729 1.382 . S
C730 C731 1.398 . S
C731 C726 1.395 . S
C731 C730 1.398 . S
C731 H791 0.930 . S
C732 C728 1.495 . S
C732 O779 1.258 . S
C732 O780 1.274 . S
C733 C734 1.385 . S
C733 C735 1.381 . S
C733 N739 1.432 . S
C734 C733 1.385 . S
C734 C738 1.388 . S
C734 H792 0.929 . S
C735 C733 1.381 . S
C735 C736 1.371 . S
C735 H793 0.932 . S
C736 C735 1.371 . S
C736 C737 1.400 . S
C737 C736 1.400 . S
C737 C738 1.351 . S
C737 H794 0.930 . S
C738 C734 1.388 . S
C738 C737 1.351 . S
N739 C714 1.329 . S
N739 Co723 1.955 . S
N739 C733 1.432 . S
N740 Co723 1.958 . S
N740 C724 1.324 . S
N740 C726 1.427 . S
N741 Co723 1.953 . S
N741 C742 1.436 . S
N741 C768 1.316 . S
C742 N741 1.436 . S
C742 C743 1.421 . S
C742 C744 1.360 . S
C743 C742 1.421 . S
C743 C745 1.379 . S
C743 H746 0.929 . S
C744 C742 1.360 . S
C744 C748 1.393 . S
C744 H750 0.931 . S
C745 C743 1.379 . S
C745 C747 1.417 . S
C745 C749 1.505 . S
H746 C743 0.929 . S
C747 C745 1.417 . S
C747 C748 1.352 . S
C747 H751 0.929 . S
C748 C744 1.393 . S
C748 C747 1.352 . S
C748 C752 1.482 . S
C749 C745 1.505 . S
C749 O753 1.259 . S
C749 O754 1.229 . S
H750 C744 0.931 . S
H751 C747 0.929 . S
C752 C748 1.482 . S
C752 O755 1.207 . S
C752 O756 1.289 . S
O753 C749 1.259 . S
O753 H757 0.822 . S
O754 C749 1.229 . S
O755 C752 1.207 . S
O756 C752 1.289 . S
O756 H758 0.819 . S
H757 O753 0.822 . S
H758 O756 0.819 . S
N759 Co723 1.869 . S
N759 C760 1.330 . S
N759 C764 1.325 . S
C760 N759 1.330 . S
C760 C761 1.359 . S
C760 C766 1.504 . S
C761 C760 1.359 . S
C761 C762 1.366 . S
C761 H795 0.929 . S
C762 C761 1.366 . S
C762 C763 1.415 . S
C762 H796 0.932 . S
C763 C762 1.415 . S
C763 C764 1.366 . S
C763 H797 0.931 . S
C764 N759 1.325 . S
C764 C763 1.366 . S
C764 C768 1.516 . S
N765 Co723 1.974 . S
N765 C766 1.309 . S
N765 C771 1.423 . S
C766 C760 1.504 . S
C766 N765 1.309 . S
C766 O767 1.258 . S
O767 C766 1.258 . S
C768 N741 1.316 . S
C768 C764 1.516 . S
C768 O781 1.263 . S
O769 Cd712 2.350 . S
O769 C785 1.270 . S
O770 Cd712 2.277 . S
O770 C785 1.248 . S
C771 N765 1.423 . S
C771 C772 1.370 . S
C771 C776 1.403 . S
C772 C771 1.370 . S
C772 C773 1.389 . S
C772 H798 0.931 . S
C773 C772 1.389 . S
C773 C774 1.389 . S
C774 C773 1.389 . S
C774 C775 1.379 . S
C774 H799 0.929 . S
C775 C774 1.379 . S
C775 C776 1.405 . S
C776 C771 1.403 . S
C776 C775 1.405 . S
C776 H800 0.932 . S
O777 Cd712 2.173 . S
O777 C713 1.277 . S
O778 C713 1.230 . S
O778 Cd716 2.250 . S
O779 Cd712 2.263 . S
O779 C732 1.258 . S
O780 Cd716 2.308 . S
O780 C732 1.274 . S
O781 Cd712 2.366 . S
O781 C768 1.263 . S
C782 O783 1.235 . S
C782 O784 1.270 . S
O783 Cd716 2.352 . S
O783 C782 1.235 . S
O784 Cd712 2.329 . S
O784 C782 1.270 . S
C785 O769 1.270 . S
C785 O770 1.248 . S
H786 C718 0.930 . S
H787 C721 0.930 . S
H788 C722 0.931 . S
H789 C727 0.929 . S
H790 C729 0.930 . S
H791 C731 0.930 . S
H792 C734 0.929 . S
H793 C735 0.932 . S
H794 C737 0.930 . S
H795 C761 0.929 . S
H796 C762 0.932 . S
H797 C763 0.931 . S
H798 C772 0.931 . S
H799 C774 0.929 . S
H800 C776 0.932 . S
Cd801 O858 2.350 . S
Cd801 O859 2.277 . S
Cd801 O866 2.173 . S
Cd801 O868 2.263 . S
Cd801 O870 2.366 . S
Cd801 O873 2.329 . S
C802 O866 1.277 . S
C802 O867 1.230 . S
C803 O804 1.246 . S
C803 C806 1.481 . S
C803 N828 1.329 . S
O804 C803 1.246 . S
Cd805 O867 2.250 . S
Cd805 O869 2.308 . S
Cd805 O872 2.352 . S
C806 C803 1.481 . S
C806 N809 1.327 . S
C806 C810 1.407 . S
C807 C808 1.346 . S
C807 C811 1.390 . S
C807 H875 0.930 . S
C808 C807 1.346 . S
C808 N809 1.342 . S
C808 C813 1.516 . S
N809 C806 1.327 . S
N809 C808 1.342 . S
N809 Co812 1.864 . S
C810 C806 1.407 . S
C810 C811 1.364 . S
C810 H876 0.930 . S
C811 C807 1.390 . S
C811 C810 1.364 . S
C811 H877 0.931 . S
Co812 N809 1.864 . S
Co812 N828 1.955 . S
Co812 N829 1.958 . S
Co812 N830 1.953 . S
Co812 N848 1.869 . S
Co812 N854 1.974 . S
C813 C808 1.516 . S
C813 O814 1.238 . S
C813 N829 1.324 . S
O814 C813 1.238 . S
C815 C816 1.394 . S
C815 C820 1.395 . S
C815 N829 1.427 . S
C816 C815 1.394 . S
C816 C817 1.380 . S
C816 H878 0.929 . S
C817 C816 1.380 . S
C817 C818 1.384 . S
C817 C821 1.495 . S
C818 C817 1.384 . S
C818 C819 1.382 . S
C818 H879 0.930 . S
C819 C818 1.382 . S
C819 C820 1.398 . S
C820 C815 1.395 . S
C820 C819 1.398 . S
C820 H880 0.930 . S
C821 C817 1.495 . S
C821 O868 1.258 . S
C821 O869 1.274 . S
C822 C823 1.385 . S
C822 C824 1.381 . S
C822 N828 1.432 . S
C823 C822 1.385 . S
C823 C827 1.388 . S
C823 H881 0.929 . S
C824 C822 1.381 . S
C824 C825 1.371 . S
C824 H882 0.932 . S
C825 C824 1.371 . S
C825 C826 1.400 . S
C826 C825 1.400 . S
C826 C827 1.351 . S
C826 H883 0.930 . S
C827 C823 1.388 . S
C827 C826 1.351 . S
N828 C803 1.329 . S
N828 Co812 1.955 . S
N828 C822 1.432 . S
N829 Co812 1.958 . S
N829 C813 1.324 . S
N829 C815 1.427 . S
N830 Co812 1.953 . S
N830 C831 1.436 . S
N830 C857 1.316 . S
C831 N830 1.436 . S
C831 C832 1.421 . S
C831 C833 1.360 . S
C832 C831 1.421 . S
C832 C834 1.379 . S
C832 H835 0.929 . S
C833 C831 1.360 . S
C833 C837 1.393 . S
C833 H839 0.931 . S
C834 C832 1.379 . S
C834 C836 1.417 . S
C834 C838 1.505 . S
H835 C832 0.929 . S
C836 C834 1.417 . S
C836 C837 1.352 . S
C836 H840 0.929 . S
C837 C833 1.393 . S
C837 C836 1.352 . S
C837 C841 1.482 . S
C838 C834 1.505 . S
C838 O842 1.259 . S
C838 O843 1.229 . S
H839 C833 0.931 . S
H840 C836 0.929 . S
C841 C837 1.482 . S
C841 O844 1.207 . S
C841 O845 1.289 . S
O842 C838 1.259 . S
O842 H846 0.822 . S
O843 C838 1.229 . S
O844 C841 1.207 . S
O845 C841 1.289 . S
O845 H847 0.819 . S
H846 O842 0.822 . S
H847 O845 0.819 . S
N848 Co812 1.869 . S
N848 C849 1.330 . S
N848 C853 1.325 . S
C849 N848 1.330 . S
C849 C850 1.359 . S
C849 C855 1.504 . S
C850 C849 1.359 . S
C850 C851 1.366 . S
C850 H884 0.929 . S
C851 C850 1.366 . S
C851 C852 1.415 . S
C851 H885 0.932 . S
C852 C851 1.415 . S
C852 C853 1.366 . S
C852 H886 0.931 . S
C853 N848 1.325 . S
C853 C852 1.366 . S
C853 C857 1.516 . S
N854 Co812 1.974 . S
N854 C855 1.309 . S
N854 C860 1.423 . S
C855 C849 1.504 . S
C855 N854 1.309 . S
C855 O856 1.258 . S
O856 C855 1.258 . S
C857 N830 1.316 . S
C857 C853 1.516 . S
C857 O870 1.263 . S
O858 Cd801 2.350 . S
O858 C874 1.270 . S
O859 Cd801 2.277 . S
O859 C874 1.248 . S
C860 N854 1.423 . S
C860 C861 1.370 . S
C860 C865 1.403 . S
C861 C860 1.370 . S
C861 C862 1.389 . S
C861 H887 0.931 . S
C862 C861 1.389 . S
C862 C863 1.389 . S
C863 C862 1.389 . S
C863 C864 1.379 . S
C863 H888 0.929 . S
C864 C863 1.379 . S
C864 C865 1.405 . S
C865 C860 1.403 . S
C865 C864 1.405 . S
C865 H889 0.932 . S
O866 Cd801 2.173 . S
O866 C802 1.277 . S
O867 C802 1.230 . S
O867 Cd805 2.250 . S
O868 Cd801 2.263 . S
O868 C821 1.258 . S
O869 Cd805 2.308 . S
O869 C821 1.274 . S
O870 Cd801 2.366 . S
O870 C857 1.263 . S
C871 O872 1.235 . S
C871 O873 1.270 . S
O872 Cd805 2.352 . S
O872 C871 1.235 . S
O873 Cd801 2.329 . S
O873 C871 1.270 . S
C874 O858 1.270 . S
C874 O859 1.248 . S
H875 C807 0.930 . S
H876 C810 0.930 . S
H877 C811 0.931 . S
H878 C816 0.929 . S
H879 C818 0.930 . S
H880 C820 0.930 . S
H881 C823 0.929 . S
H882 C824 0.932 . S
H883 C826 0.930 . S
H884 C850 0.929 . S
H885 C851 0.932 . S
H886 C852 0.931 . S
H887 C861 0.931 . S
H888 C863 0.929 . S
H889 C865 0.932 . S
Cd890 O947 2.350 . S
Cd890 O948 2.277 . S
Cd890 O955 2.173 . S
Cd890 O957 2.263 . S
Cd890 O959 2.366 . S
Cd890 O962 2.329 . S
C891 O955 1.277 . S
C891 O956 1.230 . S
C892 O893 1.246 . S
C892 C895 1.481 . S
C892 N917 1.329 . S
O893 C892 1.246 . S
Cd894 O956 2.250 . S
Cd894 O958 2.308 . S
Cd894 O961 2.352 . S
C895 C892 1.481 . S
C895 N898 1.327 . S
C895 C899 1.407 . S
C896 C897 1.346 . S
C896 C900 1.390 . S
C896 H964 0.930 . S
C897 C896 1.346 . S
C897 N898 1.342 . S
C897 C902 1.516 . S
N898 C895 1.327 . S
N898 C897 1.342 . S
N898 Co901 1.864 . S
C899 C895 1.407 . S
C899 C900 1.364 . S
C899 H965 0.930 . S
C900 C896 1.390 . S
C900 C899 1.364 . S
C900 H966 0.931 . S
Co901 N898 1.864 . S
Co901 N917 1.955 . S
Co901 N918 1.958 . S
Co901 N919 1.953 . S
Co901 N937 1.869 . S
Co901 N943 1.974 . S
C902 C897 1.516 . S
C902 O903 1.238 . S
C902 N918 1.324 . S
O903 C902 1.238 . S
C904 C905 1.394 . S
C904 C909 1.395 . S
C904 N918 1.427 . S
C905 C904 1.394 . S
C905 C906 1.380 . S
C905 H967 0.929 . S
C906 C905 1.380 . S
C906 C907 1.384 . S
C906 C910 1.495 . S
C907 C906 1.384 . S
C907 C908 1.382 . S
C907 H968 0.930 . S
C908 C907 1.382 . S
C908 C909 1.398 . S
C909 C904 1.395 . S
C909 C908 1.398 . S
C909 H969 0.930 . S
C910 C906 1.495 . S
C910 O957 1.258 . S
C910 O958 1.274 . S
C911 C912 1.385 . S
C911 C913 1.381 . S
C911 N917 1.432 . S
C912 C911 1.385 . S
C912 C916 1.388 . S
C912 H970 0.929 . S
C913 C911 1.381 . S
C913 C914 1.371 . S
C913 H971 0.932 . S
C914 C913 1.371 . S
C914 C915 1.400 . S
C915 C914 1.400 . S
C915 C916 1.351 . S
C915 H972 0.930 . S
C916 C912 1.388 . S
C916 C915 1.351 . S
N917 C892 1.329 . S
N917 Co901 1.955 . S
N917 C911 1.432 . S
N918 Co901 1.958 . S
N918 C902 1.324 . S
N918 C904 1.427 . S
N919 Co901 1.953 . S
N919 C920 1.436 . S
N919 C946 1.316 . S
C920 N919 1.436 . S
C920 C921 1.421 . S
C920 C922 1.360 . S
C921 C920 1.421 . S
C921 C923 1.379 . S
C921 H924 0.929 . S
C922 C920 1.360 . S
C922 C926 1.393 . S
C922 H928 0.931 . S
C923 C921 1.379 . S
C923 C925 1.417 . S
C923 C927 1.505 . S
H924 C921 0.929 . S
C925 C923 1.417 . S
C925 C926 1.352 . S
C925 H929 0.929 . S
C926 C922 1.393 . S
C926 C925 1.352 . S
C926 C930 1.482 . S
C927 C923 1.505 . S
C927 O931 1.259 . S
C927 O932 1.229 . S
H928 C922 0.931 . S
H929 C925 0.929 . S
C930 C926 1.482 . S
C930 O933 1.207 . S
C930 O934 1.289 . S
O931 C927 1.259 . S
O931 H935 0.822 . S
O932 C927 1.229 . S
O933 C930 1.207 . S
O934 C930 1.289 . S
O934 H936 0.819 . S
H935 O931 0.822 . S
H936 O934 0.819 . S
N937 Co901 1.869 . S
N937 C938 1.330 . S
N937 C942 1.325 . S
C938 N937 1.330 . S
C938 C939 1.359 . S
C938 C944 1.504 . S
C939 C938 1.359 . S
C939 C940 1.366 . S
C939 H973 0.929 . S
C940 C939 1.366 . S
C940 C941 1.415 . S
C940 H974 0.932 . S
C941 C940 1.415 . S
C941 C942 1.366 . S
C941 H975 0.931 . S
C942 N937 1.325 . S
C942 C941 1.366 . S
C942 C946 1.516 . S
N943 Co901 1.974 . S
N943 C944 1.309 . S
N943 C949 1.423 . S
C944 C938 1.504 . S
C944 N943 1.309 . S
C944 O945 1.258 . S
O945 C944 1.258 . S
C946 N919 1.316 . S
C946 C942 1.516 . S
C946 O959 1.263 . S
O947 Cd890 2.350 . S
O947 C963 1.270 . S
O948 Cd890 2.277 . S
O948 C963 1.248 . S
C949 N943 1.423 . S
C949 C950 1.370 . S
C949 C954 1.403 . S
C950 C949 1.370 . S
C950 C951 1.389 . S
C950 H976 0.931 . S
C951 C950 1.389 . S
C951 C952 1.389 . S
C952 C951 1.389 . S
C952 C953 1.379 . S
C952 H977 0.929 . S
C953 C952 1.379 . S
C953 C954 1.405 . S
C954 C949 1.403 . S
C954 C953 1.405 . S
C954 H978 0.932 . S
O955 Cd890 2.173 . S
O955 C891 1.277 . S
O956 C891 1.230 . S
O956 Cd894 2.250 . S
O957 Cd890 2.263 . S
O957 C910 1.258 . S
O958 Cd894 2.308 . S
O958 C910 1.274 . S
O959 Cd890 2.366 . S
O959 C946 1.263 . S
C960 O961 1.235 . S
C960 O962 1.270 . S
O961 Cd894 2.352 . S
O961 C960 1.235 . S
O962 Cd890 2.329 . S
O962 C960 1.270 . S
C963 O947 1.270 . S
C963 O948 1.248 . S
H964 C896 0.930 . S
H965 C899 0.930 . S
H966 C900 0.931 . S
H967 C905 0.929 . S
H968 C907 0.930 . S
H969 C909 0.930 . S
H970 C912 0.929 . S
H971 C913 0.932 . S
H972 C915 0.930 . S
H973 C939 0.929 . S
H974 C940 0.932 . S
H975 C941 0.931 . S
H976 C950 0.931 . S
H977 C952 0.929 . S
H978 C954 0.932 . S
Cd979 O1036 2.350 . S
Cd979 O1037 2.277 . S
Cd979 O1044 2.173 . S
Cd979 O1046 2.263 . S
Cd979 O1048 2.366 . S
Cd979 O1051 2.329 . S
C980 O1044 1.277 . S
C980 O1045 1.230 . S
C981 O982 1.246 . S
C981 C984 1.481 . S
C981 N1006 1.329 . S
O982 C981 1.246 . S
Cd983 O1045 2.250 . S
Cd983 O1047 2.308 . S
Cd983 O1050 2.352 . S
C984 C981 1.481 . S
C984 N987 1.327 . S
C984 C988 1.407 . S
C985 C986 1.346 . S
C985 C989 1.390 . S
C985 H1053 0.930 . S
C986 C985 1.346 . S
C986 N987 1.342 . S
C986 C991 1.516 . S
N987 C984 1.327 . S
N987 C986 1.342 . S
N987 Co990 1.864 . S
C988 C984 1.407 . S
C988 C989 1.364 . S
C988 H1054 0.930 . S
C989 C985 1.390 . S
C989 C988 1.364 . S
C989 H1055 0.931 . S
Co990 N987 1.864 . S
Co990 N1006 1.955 . S
Co990 N1007 1.958 . S
Co990 N1008 1.953 . S
Co990 N1026 1.869 . S
Co990 N1032 1.974 . S
C991 C986 1.516 . S
C991 O992 1.238 . S
C991 N1007 1.324 . S
O992 C991 1.238 . S
C993 C994 1.394 . S
C993 C998 1.395 . S
C993 N1007 1.427 . S
C994 C993 1.394 . S
C994 C995 1.380 . S
C994 H1056 0.929 . S
C995 C994 1.380 . S
C995 C996 1.384 . S
C995 C999 1.495 . S
C996 C995 1.384 . S
C996 C997 1.382 . S
C996 H1057 0.930 . S
C997 C996 1.382 . S
C997 C998 1.398 . S
C998 C993 1.395 . S
C998 C997 1.398 . S
C998 H1058 0.930 . S
C999 C995 1.495 . S
C999 O1046 1.258 . S
C999 O1047 1.274 . S
C1000 C1001 1.385 . S
C1000 C1002 1.381 . S
C1000 N1006 1.432 . S
C1001 C1000 1.385 . S
C1001 C1005 1.388 . S
C1001 H1059 0.929 . S
C1002 C1000 1.381 . S
C1002 C1003 1.371 . S
C1002 H1060 0.932 . S
C1003 C1002 1.371 . S
C1003 C1004 1.400 . S
C1004 C1003 1.400 . S
C1004 C1005 1.351 . S
C1004 H1061 0.930 . S
C1005 C1001 1.388 . S
C1005 C1004 1.351 . S
N1006 C981 1.329 . S
N1006 Co990 1.955 . S
N1006 C1000 1.432 . S
N1007 Co990 1.958 . S
N1007 C991 1.324 . S
N1007 C993 1.427 . S
N1008 Co990 1.953 . S
N1008 C1009 1.436 . S
N1008 C1035 1.316 . S
C1009 N1008 1.436 . S
C1009 C1010 1.421 . S
C1009 C1011 1.360 . S
C1010 C1009 1.421 . S
C1010 C1012 1.379 . S
C1010 H1013 0.929 . S
C1011 C1009 1.360 . S
C1011 C1015 1.393 . S
C1011 H1017 0.931 . S
C1012 C1010 1.379 . S
C1012 C1014 1.417 . S
C1012 C1016 1.505 . S
H1013 C1010 0.929 . S
C1014 C1012 1.417 . S
C1014 C1015 1.352 . S
C1014 H1018 0.929 . S
C1015 C1011 1.393 . S
C1015 C1014 1.352 . S
C1015 C1019 1.482 . S
C1016 C1012 1.505 . S
C1016 O1020 1.259 . S
C1016 O1021 1.229 . S
H1017 C1011 0.931 . S
H1018 C1014 0.929 . S
C1019 C1015 1.482 . S
C1019 O1022 1.207 . S
C1019 O1023 1.289 . S
O1020 C1016 1.259 . S
O1020 H1024 0.822 . S
O1021 C1016 1.229 . S
O1022 C1019 1.207 . S
O1023 C1019 1.289 . S
O1023 H1025 0.819 . S
H1024 O1020 0.822 . S
H1025 O1023 0.819 . S
N1026 Co990 1.869 . S
N1026 C1027 1.330 . S
N1026 C1031 1.325 . S
C1027 N1026 1.330 . S
C1027 C1028 1.359 . S
C1027 C1033 1.504 . S
C1028 C1027 1.359 . S
C1028 C1029 1.366 . S
C1028 H1062 0.929 . S
C1029 C1028 1.366 . S
C1029 C1030 1.415 . S
C1029 H1063 0.932 . S
C1030 C1029 1.415 . S
C1030 C1031 1.366 . S
C1030 H1064 0.931 . S
C1031 N1026 1.325 . S
C1031 C1030 1.366 . S
C1031 C1035 1.516 . S
N1032 Co990 1.974 . S
N1032 C1033 1.309 . S
N1032 C1038 1.423 . S
C1033 C1027 1.504 . S
C1033 N1032 1.309 . S
C1033 O1034 1.258 . S
O1034 C1033 1.258 . S
C1035 N1008 1.316 . S
C1035 C1031 1.516 . S
C1035 O1048 1.263 . S
O1036 Cd979 2.350 . S
O1036 C1052 1.270 . S
O1037 Cd979 2.277 . S
O1037 C1052 1.248 . S
C1038 N1032 1.423 . S
C1038 C1039 1.370 . S
C1038 C1043 1.403 . S
C1039 C1038 1.370 . S
C1039 C1040 1.389 . S
C1039 H1065 0.931 . S
C1040 C1039 1.389 . S
C1040 C1041 1.389 . S
C1041 C1040 1.389 . S
C1041 C1042 1.379 . S
C1041 H1066 0.929 . S
C1042 C1041 1.379 . S
C1042 C1043 1.405 . S
C1043 C1038 1.403 . S
C1043 C1042 1.405 . S
C1043 H1067 0.932 . S
O1044 Cd979 2.173 . S
O1044 C980 1.277 . S
O1045 C980 1.230 . S
O1045 Cd983 2.250 . S
O1046 Cd979 2.263 . S
O1046 C999 1.258 . S
O1047 Cd983 2.308 . S
O1047 C999 1.274 . S
O1048 Cd979 2.366 . S
O1048 C1035 1.263 . S
C1049 O1050 1.235 . S
C1049 O1051 1.270 . S
O1050 Cd983 2.352 . S
O1050 C1049 1.235 . S
O1051 Cd979 2.329 . S
O1051 C1049 1.270 . S
C1052 O1036 1.270 . S
C1052 O1037 1.248 . S
H1053 C985 0.930 . S
H1054 C988 0.930 . S
H1055 C989 0.931 . S
H1056 C994 0.929 . S
H1057 C996 0.930 . S
H1058 C998 0.930 . S
H1059 C1001 0.929 . S
H1060 C1002 0.932 . S
H1061 C1004 0.930 . S
H1062 C1028 0.929 . S
H1063 C1029 0.932 . S
H1064 C1030 0.931 . S
H1065 C1039 0.931 . S
H1066 C1041 0.929 . S
H1067 C1043 0.932 . S
H1068 C1076 0.929 . S
H1069 C1078 0.930 . S
H1070 C1080 0.930 . S
H1071 C1083 0.929 . S
H1072 C1086 0.930 . S
H1073 C1088 0.960 . S
H1074 C1088 0.960 . S
H1075 C1088 0.960 . S
C1076 H1068 0.929 . S
C1076 C1077 1.377 . S
C1076 C1078 1.384 . S
C1077 C1076 1.377 . S
C1077 C1083 1.390 . S
C1078 H1069 0.930 . S
C1078 C1076 1.384 . S
C1078 C1079 1.372 . S
C1079 C1078 1.372 . S
C1079 C1080 1.400 . S
C1079 C1084 1.490 . S
C1080 H1070 0.930 . S
C1080 C1079 1.400 . S
C1080 C1083 1.386 . S
H1081 C1097 0.930 . S
H1082 C1098 0.931 . S
C1083 H1071 0.929 . S
C1083 C1077 1.390 . S
C1083 C1080 1.386 . S
C1084 C1079 1.490 . S
C1084 C1086 1.395 . S
C1084 C1087 1.403 . S
H1085 C1091 0.930 . S
C1086 H1072 0.930 . S
C1086 C1084 1.395 . S
C1086 C1089 1.403 . S
C1087 C1084 1.403 . S
C1087 C1088 1.524 . S
C1087 C1091 1.400 . S
C1088 H1073 0.960 . S
C1088 H1074 0.960 . S
C1088 H1075 0.960 . S
C1088 C1087 1.524 . S
C1089 C1086 1.403 . S
C1089 C1090 1.392 . S
C1089 C1093 1.495 . S
C1090 C1089 1.392 . S
C1090 C1091 1.385 . S
C1090 C1092 1.478 . S
C1091 H1085 0.930 . S
C1091 C1087 1.400 . S
C1091 C1090 1.385 . S
C1092 C1090 1.478 . S
C1092 C1094 1.381 . S
C1092 C1098 1.383 . S
C1093 C1089 1.495 . S
C1093 H1099 0.959 . S
C1093 H1100 0.961 . S
C1093 H1101 0.960 . S
C1094 C1092 1.381 . S
C1094 C1095 1.394 . S
C1094 H1102 0.930 . S
C1095 C1094 1.394 . S
C1095 C1096 1.383 . S
C1095 H1103 0.929 . S
C1096 C1095 1.383 . S
C1096 C1097 1.377 . S
C1097 H1081 0.930 . S
C1097 C1096 1.377 . S
C1097 C1098 1.379 . S
C1098 H1082 0.931 . S
C1098 C1092 1.383 . S
C1098 C1097 1.379 . S
H1099 C1093 0.959 . S
H1100 C1093 0.961 . S
H1101 C1093 0.960 . S
H1102 C1094 0.930 . S
H1103 C1095 0.929 . S
H1104 C1112 0.929 . S
H1105 C1114 0.930 . S
H1106 C1116 0.930 . S
H1107 C1119 0.929 . S
H1108 C1122 0.930 . S
H1109 C1124 0.960 . S
H1110 C1124 0.960 . S
H1111 C1124 0.960 . S
C1112 H1104 0.929 . S
C1112 C1113 1.377 . S
C1112 C1114 1.384 . S
C1113 C1112 1.377 . S
C1113 C1119 1.390 . S
C1114 H1105 0.930 . S
C1114 C1112 1.384 . S
C1114 C1115 1.372 . S
C1115 C1114 1.372 . S
C1115 C1116 1.400 . S
C1115 C1120 1.490 . S
C1116 H1106 0.930 . S
C1116 C1115 1.400 . S
C1116 C1119 1.386 . S
H1117 C1133 0.930 . S
H1118 C1134 0.931 . S
C1119 H1107 0.929 . S
C1119 C1113 1.390 . S
C1119 C1116 1.386 . S
C1120 C1115 1.490 . S
C1120 C1122 1.395 . S
C1120 C1123 1.403 . S
H1121 C1127 0.930 . S
C1122 H1108 0.930 . S
C1122 C1120 1.395 . S
C1122 C1125 1.403 . S
C1123 C1120 1.403 . S
C1123 C1124 1.524 . S
C1123 C1127 1.400 . S
C1124 H1109 0.960 . S
C1124 H1110 0.960 . S
C1124 H1111 0.960 . S
C1124 C1123 1.524 . S
C1125 C1122 1.403 . S
C1125 C1126 1.392 . S
C1125 C1129 1.495 . S
C1126 C1125 1.392 . S
C1126 C1127 1.385 . S
C1126 C1128 1.478 . S
C1127 H1121 0.930 . S
C1127 C1123 1.400 . S
C1127 C1126 1.385 . S
C1128 C1126 1.478 . S
C1128 C1130 1.381 . S
C1128 C1134 1.383 . S
C1129 C1125 1.495 . S
C1129 H1135 0.959 . S
C1129 H1136 0.961 . S
C1129 H1137 0.960 . S
C1130 C1128 1.381 . S
C1130 C1131 1.394 . S
C1130 H1138 0.930 . S
C1131 C1130 1.394 . S
C1131 C1132 1.383 . S
C1131 H1139 0.929 . S
C1132 C1131 1.383 . S
C1132 C1133 1.377 . S
C1133 H1117 0.930 . S
C1133 C1132 1.377 . S
C1133 C1134 1.379 . S
C1134 H1118 0.931 . S
C1134 C1128 1.383 . S
C1134 C1133 1.379 . S
H1135 C1129 0.959 . S
H1136 C1129 0.961 . S
H1137 C1129 0.960 . S
H1138 C1130 0.930 . S
H1139 C1131 0.929 . S
H1140 C1148 0.929 . S
H1141 C1150 0.930 . S
H1142 C1152 0.930 . S
H1143 C1155 0.929 . S
H1144 C1158 0.930 . S
H1145 C1160 0.960 . S
H1146 C1160 0.960 . S
H1147 C1160 0.960 . S
C1148 H1140 0.929 . S
C1148 C1149 1.377 . S
C1148 C1150 1.384 . S
C1149 C1148 1.377 . S
C1149 C1155 1.390 . S
C1150 H1141 0.930 . S
C1150 C1148 1.384 . S
C1150 C1151 1.372 . S
C1151 C1150 1.372 . S
C1151 C1152 1.400 . S
C1151 C1156 1.490 . S
C1152 H1142 0.930 . S
C1152 C1151 1.400 . S
C1152 C1155 1.386 . S
H1153 C1169 0.930 . S
H1154 C1170 0.931 . S
C1155 H1143 0.929 . S
C1155 C1149 1.390 . S
C1155 C1152 1.386 . S
C1156 C1151 1.490 . S
C1156 C1158 1.395 . S
C1156 C1159 1.403 . S
H1157 C1163 0.930 . S
C1158 H1144 0.930 . S
C1158 C1156 1.395 . S
C1158 C1161 1.403 . S
C1159 C1156 1.403 . S
C1159 C1160 1.524 . S
C1159 C1163 1.400 . S
C1160 H1145 0.960 . S
C1160 H1146 0.960 . S
C1160 H1147 0.960 . S
C1160 C1159 1.524 . S
C1161 C1158 1.403 . S
C1161 C1162 1.392 . S
C1161 C1165 1.495 . S
C1162 C1161 1.392 . S
C1162 C1163 1.385 . S
C1162 C1164 1.478 . S
C1163 H1157 0.930 . S
C1163 C1159 1.400 . S
C1163 C1162 1.385 . S
C1164 C1162 1.478 . S
C1164 C1166 1.381 . S
C1164 C1170 1.383 . S
C1165 C1161 1.495 . S
C1165 H1171 0.959 . S
C1165 H1172 0.961 . S
C1165 H1173 0.960 . S
C1166 C1164 1.381 . S
C1166 C1167 1.394 . S
C1166 H1174 0.930 . S
C1167 C1166 1.394 . S
C1167 C1168 1.383 . S
C1167 H1175 0.929 . S
C1168 C1167 1.383 . S
C1168 C1169 1.377 . S
C1169 H1153 0.930 . S
C1169 C1168 1.377 . S
C1169 C1170 1.379 . S
C1170 H1154 0.931 . S
C1170 C1164 1.383 . S
C1170 C1169 1.379 . S
H1171 C1165 0.959 . S
H1172 C1165 0.961 . S
H1173 C1165 0.960 . S
H1174 C1166 0.930 . S
H1175 C1167 0.929 . S
H1176 C1184 0.929 . S
H1177 C1186 0.930 . S
H1178 C1188 0.930 . S
H1179 C1191 0.929 . S
H1180 C1194 0.930 . S
H1181 C1196 0.960 . S
H1182 C1196 0.960 . S
H1183 C1196 0.960 . S
C1184 H1176 0.929 . S
C1184 C1185 1.377 . S
C1184 C1186 1.384 . S
C1185 C1184 1.377 . S
C1185 C1191 1.390 . S
C1186 H1177 0.930 . S
C1186 C1184 1.384 . S
C1186 C1187 1.372 . S
C1187 C1186 1.372 . S
C1187 C1188 1.400 . S
C1187 C1192 1.490 . S
C1188 H1178 0.930 . S
C1188 C1187 1.400 . S
C1188 C1191 1.386 . S
H1189 C1205 0.930 . S
H1190 C1206 0.931 . S
C1191 H1179 0.929 . S
C1191 C1185 1.390 . S
C1191 C1188 1.386 . S
C1192 C1187 1.490 . S
C1192 C1194 1.395 . S
C1192 C1195 1.403 . S
H1193 C1199 0.930 . S
C1194 H1180 0.930 . S
C1194 C1192 1.395 . S
C1194 C1197 1.403 . S
C1195 C1192 1.403 . S
C1195 C1196 1.524 . S
C1195 C1199 1.400 . S
C1196 H1181 0.960 . S
C1196 H1182 0.960 . S
C1196 H1183 0.960 . S
C1196 C1195 1.524 . S
C1197 C1194 1.403 . S
C1197 C1198 1.392 . S
C1197 C1201 1.495 . S
C1198 C1197 1.392 . S
C1198 C1199 1.385 . S
C1198 C1200 1.478 . S
C1199 H1193 0.930 . S
C1199 C1195 1.400 . S
C1199 C1198 1.385 . S
C1200 C1198 1.478 . S
C1200 C1202 1.381 . S
C1200 C1206 1.383 . S
C1201 C1197 1.495 . S
C1201 H1207 0.959 . S
C1201 H1208 0.961 . S
C1201 H1209 0.960 . S
C1202 C1200 1.381 . S
C1202 C1203 1.394 . S
C1202 H1210 0.930 . S
C1203 C1202 1.394 . S
C1203 C1204 1.383 . S
C1203 H1211 0.929 . S
C1204 C1203 1.383 . S
C1204 C1205 1.377 . S
C1205 H1189 0.930 . S
C1205 C1204 1.377 . S
C1205 C1206 1.379 . S
C1206 H1190 0.931 . S
C1206 C1200 1.383 . S
C1206 C1205 1.379 . S
H1207 C1201 0.959 . S
H1208 C1201 0.961 . S
H1209 C1201 0.960 . S
H1210 C1202 0.930 . S
H1211 C1203 0.929 . S
H1212 C1220 0.929 . S
H1213 C1222 0.930 . S
H1214 C1224 0.930 . S
H1215 C1227 0.929 . S
H1216 C1230 0.930 . S
H1217 C1232 0.960 . S
H1218 C1232 0.960 . S
H1219 C1232 0.960 . S
C1220 H1212 0.929 . S
C1220 C1221 1.377 . S
C1220 C1222 1.384 . S
C1221 C1220 1.377 . S
C1221 C1227 1.390 . S
C1222 H1213 0.930 . S
C1222 C1220 1.384 . S
C1222 C1223 1.372 . S
C1223 C1222 1.372 . S
C1223 C1224 1.400 . S
C1223 C1228 1.490 . S
C1224 H1214 0.930 . S
C1224 C1223 1.400 . S
C1224 C1227 1.386 . S
H1225 C1241 0.930 . S
H1226 C1242 0.931 . S
C1227 H1215 0.929 . S
C1227 C1221 1.390 . S
C1227 C1224 1.386 . S
C1228 C1223 1.490 . S
C1228 C1230 1.395 . S
C1228 C1231 1.403 . S
H1229 C1235 0.930 . S
C1230 H1216 0.930 . S
C1230 C1228 1.395 . S
C1230 C1233 1.403 . S
C1231 C1228 1.403 . S
C1231 C1232 1.524 . S
C1231 C1235 1.400 . S
C1232 H1217 0.960 . S
C1232 H1218 0.960 . S
C1232 H1219 0.960 . S
C1232 C1231 1.524 . S
C1233 C1230 1.403 . S
C1233 C1234 1.392 . S
C1233 C1237 1.495 . S
C1234 C1233 1.392 . S
C1234 C1235 1.385 . S
C1234 C1236 1.478 . S
C1235 H1229 0.930 . S
C1235 C1231 1.400 . S
C1235 C1234 1.385 . S
C1236 C1234 1.478 . S
C1236 C1238 1.381 . S
C1236 C1242 1.383 . S
C1237 C1233 1.495 . S
C1237 H1243 0.959 . S
C1237 H1244 0.961 . S
C1237 H1245 0.960 . S
C1238 C1236 1.381 . S
C1238 C1239 1.394 . S
C1238 H1246 0.930 . S
C1239 C1238 1.394 . S
C1239 C1240 1.383 . S
C1239 H1247 0.929 . S
C1240 C1239 1.383 . S
C1240 C1241 1.377 . S
C1241 H1225 0.930 . S
C1241 C1240 1.377 . S
C1241 C1242 1.379 . S
C1242 H1226 0.931 . S
C1242 C1236 1.383 . S
C1242 C1241 1.379 . S
H1243 C1237 0.959 . S
H1244 C1237 0.961 . S
H1245 C1237 0.960 . S
H1246 C1238 0.930 . S
H1247 C1239 0.929 . S
H1248 C1256 0.929 . S
H1249 C1258 0.930 . S
H1250 C1260 0.930 . S
H1251 C1263 0.929 . S
H1252 C1266 0.930 . S
H1253 C1268 0.960 . S
H1254 C1268 0.960 . S
H1255 C1268 0.960 . S
C1256 H1248 0.929 . S
C1256 C1257 1.377 . S
C1256 C1258 1.384 . S
C1257 C1256 1.377 . S
C1257 C1263 1.390 . S
C1258 H1249 0.930 . S
C1258 C1256 1.384 . S
C1258 C1259 1.372 . S
C1259 C1258 1.372 . S
C1259 C1260 1.400 . S
C1259 C1264 1.490 . S
C1260 H1250 0.930 . S
C1260 C1259 1.400 . S
C1260 C1263 1.386 . S
H1261 C1277 0.930 . S
H1262 C1278 0.931 . S
C1263 H1251 0.929 . S
C1263 C1257 1.390 . S
C1263 C1260 1.386 . S
C1264 C1259 1.490 . S
C1264 C1266 1.395 . S
C1264 C1267 1.403 . S
H1265 C1271 0.930 . S
C1266 H1252 0.930 . S
C1266 C1264 1.395 . S
C1266 C1269 1.403 . S
C1267 C1264 1.403 . S
C1267 C1268 1.524 . S
C1267 C1271 1.400 . S
C1268 H1253 0.960 . S
C1268 H1254 0.960 . S
C1268 H1255 0.960 . S
C1268 C1267 1.524 . S
C1269 C1266 1.403 . S
C1269 C1270 1.392 . S
C1269 C1273 1.495 . S
C1270 C1269 1.392 . S
C1270 C1271 1.385 . S
C1270 C1272 1.478 . S
C1271 H1265 0.930 . S
C1271 C1267 1.400 . S
C1271 C1270 1.385 . S
C1272 C1270 1.478 . S
C1272 C1274 1.381 . S
C1272 C1278 1.383 . S
C1273 C1269 1.495 . S
C1273 H1279 0.959 . S
C1273 H1280 0.961 . S
C1273 H1281 0.960 . S
C1274 C1272 1.381 . S
C1274 C1275 1.394 . S
C1274 H1282 0.930 . S
C1275 C1274 1.394 . S
C1275 C1276 1.383 . S
C1275 H1283 0.929 . S
C1276 C1275 1.383 . S
C1276 C1277 1.377 . S
C1277 H1261 0.930 . S
C1277 C1276 1.377 . S
C1277 C1278 1.379 . S
C1278 H1262 0.931 . S
C1278 C1272 1.383 . S
C1278 C1277 1.379 . S
H1279 C1273 0.959 . S
H1280 C1273 0.961 . S
H1281 C1273 0.960 . S
H1282 C1274 0.930 . S
H1283 C1275 0.929 . S
H1284 C1292 0.929 . S
H1285 C1294 0.930 . S
H1286 C1296 0.930 . S
H1287 C1299 0.929 . S
H1288 C1302 0.930 . S
H1289 C1304 0.960 . S
H1290 C1304 0.960 . S
H1291 C1304 0.960 . S
C1292 H1284 0.929 . S
C1292 C1293 1.377 . S
C1292 C1294 1.384 . S
C1293 C1292 1.377 . S
C1293 C1299 1.390 . S
C1294 H1285 0.930 . S
C1294 C1292 1.384 . S
C1294 C1295 1.372 . S
C1295 C1294 1.372 . S
C1295 C1296 1.400 . S
C1295 C1300 1.490 . S
C1296 H1286 0.930 . S
C1296 C1295 1.400 . S
C1296 C1299 1.386 . S
H1297 C1313 0.930 . S
H1298 C1314 0.931 . S
C1299 H1287 0.929 . S
C1299 C1293 1.390 . S
C1299 C1296 1.386 . S
C1300 C1295 1.490 . S
C1300 C1302 1.395 . S
C1300 C1303 1.403 . S
H1301 C1307 0.930 . S
C1302 H1288 0.930 . S
C1302 C1300 1.395 . S
C1302 C1305 1.403 . S
C1303 C1300 1.403 . S
C1303 C1304 1.524 . S
C1303 C1307 1.400 . S
C1304 H1289 0.960 . S
C1304 H1290 0.960 . S
C1304 H1291 0.960 . S
C1304 C1303 1.524 . S
C1305 C1302 1.403 . S
C1305 C1306 1.392 . S
C1305 C1309 1.495 . S
C1306 C1305 1.392 . S
C1306 C1307 1.385 . S
C1306 C1308 1.478 . S
C1307 H1301 0.930 . S
C1307 C1303 1.400 . S
C1307 C1306 1.385 . S
C1308 C1306 1.478 . S
C1308 C1310 1.381 . S
C1308 C1314 1.383 . S
C1309 C1305 1.495 . S
C1309 H1315 0.959 . S
C1309 H1316 0.961 . S
C1309 H1317 0.960 . S
C1310 C1308 1.381 . S
C1310 C1311 1.394 . S
C1310 H1318 0.930 . S
C1311 C1310 1.394 . S
C1311 C1312 1.383 . S
C1311 H1319 0.929 . S
C1312 C1311 1.383 . S
C1312 C1313 1.377 . S
C1313 H1297 0.930 . S
C1313 C1312 1.377 . S
C1313 C1314 1.379 . S
C1314 H1298 0.931 . S
C1314 C1308 1.383 . S
C1314 C1313 1.379 . S
H1315 C1309 0.959 . S
H1316 C1309 0.961 . S
H1317 C1309 0.960 . S
H1318 C1310 0.930 . S
H1319 C1311 0.929 . S
H1320 C1328 0.929 . S
H1321 C1330 0.930 . S
H1322 C1332 0.930 . S
H1323 C1335 0.929 . S
H1324 C1338 0.930 . S
H1325 C1340 0.960 . S
H1326 C1340 0.960 . S
H1327 C1340 0.960 . S
C1328 H1320 0.929 . S
C1328 C1329 1.377 . S
C1328 C1330 1.384 . S
C1329 C1328 1.377 . S
C1329 C1335 1.390 . S
C1330 H1321 0.930 . S
C1330 C1328 1.384 . S
C1330 C1331 1.372 . S
C1331 C1330 1.372 . S
C1331 C1332 1.400 . S
C1331 C1336 1.490 . S
C1332 H1322 0.930 . S
C1332 C1331 1.400 . S
C1332 C1335 1.386 . S
H1333 C1349 0.930 . S
H1334 C1350 0.931 . S
C1335 H1323 0.929 . S
C1335 C1329 1.390 . S
C1335 C1332 1.386 . S
C1336 C1331 1.490 . S
C1336 C1338 1.395 . S
C1336 C1339 1.403 . S
H1337 C1343 0.930 . S
C1338 H1324 0.930 . S
C1338 C1336 1.395 . S
C1338 C1341 1.403 . S
C1339 C1336 1.403 . S
C1339 C1340 1.524 . S
C1339 C1343 1.400 . S
C1340 H1325 0.960 . S
C1340 H1326 0.960 . S
C1340 H1327 0.960 . S
C1340 C1339 1.524 . S
C1341 C1338 1.403 . S
C1341 C1342 1.392 . S
C1341 C1345 1.495 . S
C1342 C1341 1.392 . S
C1342 C1343 1.385 . S
C1342 C1344 1.478 . S
C1343 H1337 0.930 . S
C1343 C1339 1.400 . S
C1343 C1342 1.385 . S
C1344 C1342 1.478 . S
C1344 C1346 1.381 . S
C1344 C1350 1.383 . S
C1345 C1341 1.495 . S
C1345 H1351 0.959 . S
C1345 H1352 0.961 . S
C1345 H1353 0.960 . S
C1346 C1344 1.381 . S
C1346 C1347 1.394 . S
C1346 H1354 0.930 . S
C1347 C1346 1.394 . S
C1347 C1348 1.383 . S
C1347 H1355 0.929 . S
C1348 C1347 1.383 . S
C1348 C1349 1.377 . S
C1349 H1333 0.930 . S
C1349 C1348 1.377 . S
C1349 C1350 1.379 . S
C1350 H1334 0.931 . S
C1350 C1344 1.383 . S
C1350 C1349 1.379 . S
H1351 C1345 0.959 . S
H1352 C1345 0.961 . S
H1353 C1345 0.960 . S
H1354 C1346 0.930 . S
H1355 C1347 0.929 . S
H1356 C1364 0.929 . S
H1357 C1366 0.930 . S
H1358 C1368 0.930 . S
H1359 C1371 0.929 . S
H1360 C1374 0.930 . S
H1361 C1376 0.960 . S
H1362 C1376 0.960 . S
H1363 C1376 0.960 . S
C1364 H1356 0.929 . S
C1364 C1365 1.377 . S
C1364 C1366 1.384 . S
C1365 C1364 1.377 . S
C1365 C1371 1.390 . S
C1366 H1357 0.930 . S
C1366 C1364 1.384 . S
C1366 C1367 1.372 . S
C1367 C1366 1.372 . S
C1367 C1368 1.400 . S
C1367 C1372 1.490 . S
C1368 H1358 0.930 . S
C1368 C1367 1.400 . S
C1368 C1371 1.386 . S
H1369 C1385 0.930 . S
H1370 C1386 0.931 . S
C1371 H1359 0.929 . S
C1371 C1365 1.390 . S
C1371 C1368 1.386 . S
C1372 C1367 1.490 . S
C1372 C1374 1.395 . S
C1372 C1375 1.403 . S
H1373 C1379 0.930 . S
C1374 H1360 0.930 . S
C1374 C1372 1.395 . S
C1374 C1377 1.403 . S
C1375 C1372 1.403 . S
C1375 C1376 1.524 . S
C1375 C1379 1.400 . S
C1376 H1361 0.960 . S
C1376 H1362 0.960 . S
C1376 H1363 0.960 . S
C1376 C1375 1.524 . S
C1377 C1374 1.403 . S
C1377 C1378 1.392 . S
C1377 C1381 1.495 . S
C1378 C1377 1.392 . S
C1378 C1379 1.385 . S
C1378 C1380 1.478 . S
C1379 H1373 0.930 . S
C1379 C1375 1.400 . S
C1379 C1378 1.385 . S
C1380 C1378 1.478 . S
C1380 C1382 1.381 . S
C1380 C1386 1.383 . S
C1381 C1377 1.495 . S
C1381 H1387 0.959 . S
C1381 H1388 0.961 . S
C1381 H1389 0.960 . S
C1382 C1380 1.381 . S
C1382 C1383 1.394 . S
C1382 H1390 0.930 . S
C1383 C1382 1.394 . S
C1383 C1384 1.383 . S
C1383 H1391 0.929 . S
C1384 C1383 1.383 . S
C1384 C1385 1.377 . S
C1385 H1369 0.930 . S
C1385 C1384 1.377 . S
C1385 C1386 1.379 . S
C1386 H1370 0.931 . S
C1386 C1380 1.383 . S
C1386 C1385 1.379 . S
H1387 C1381 0.959 . S
H1388 C1381 0.961 . S
H1389 C1381 0.960 . S
H1390 C1382 0.930 . S
H1391 C1383 0.929 . S
H1392 C1400 0.929 . S
H1393 C1402 0.930 . S
H1394 C1404 0.930 . S
H1395 C1407 0.929 . S
H1396 C1410 0.930 . S
H1397 C1412 0.960 . S
H1398 C1412 0.960 . S
H1399 C1412 0.960 . S
C1400 H1392 0.929 . S
C1400 C1401 1.377 . S
C1400 C1402 1.384 . S
C1401 C1400 1.377 . S
C1401 C1407 1.390 . S
C1402 H1393 0.930 . S
C1402 C1400 1.384 . S
C1402 C1403 1.372 . S
C1403 C1402 1.372 . S
C1403 C1404 1.400 . S
C1403 C1408 1.490 . S
C1404 H1394 0.930 . S
C1404 C1403 1.400 . S
C1404 C1407 1.386 . S
H1405 C1421 0.930 . S
H1406 C1422 0.931 . S
C1407 H1395 0.929 . S
C1407 C1401 1.390 . S
C1407 C1404 1.386 . S
C1408 C1403 1.490 . S
C1408 C1410 1.395 . S
C1408 C1411 1.403 . S
H1409 C1415 0.930 . S
C1410 H1396 0.930 . S
C1410 C1408 1.395 . S
C1410 C1413 1.403 . S
C1411 C1408 1.403 . S
C1411 C1412 1.524 . S
C1411 C1415 1.400 . S
C1412 H1397 0.960 . S
C1412 H1398 0.960 . S
C1412 H1399 0.960 . S
C1412 C1411 1.524 . S
C1413 C1410 1.403 . S
C1413 C1414 1.392 . S
C1413 C1417 1.495 . S
C1414 C1413 1.392 . S
C1414 C1415 1.385 . S
C1414 C1416 1.478 . S
C1415 H1409 0.930 . S
C1415 C1411 1.400 . S
C1415 C1414 1.385 . S
C1416 C1414 1.478 . S
C1416 C1418 1.381 . S
C1416 C1422 1.383 . S
C1417 C1413 1.495 . S
C1417 H1423 0.959 . S
C1417 H1424 0.961 . S
C1417 H1425 0.960 . S
C1418 C1416 1.381 . S
C1418 C1419 1.394 . S
C1418 H1426 0.930 . S
C1419 C1418 1.394 . S
C1419 C1420 1.383 . S
C1419 H1427 0.929 . S
C1420 C1419 1.383 . S
C1420 C1421 1.377 . S
C1421 H1405 0.930 . S
C1421 C1420 1.377 . S
C1421 C1422 1.379 . S
C1422 H1406 0.931 . S
C1422 C1416 1.383 . S
C1422 C1421 1.379 . S
H1423 C1417 0.959 . S
H1424 C1417 0.961 . S
H1425 C1417 0.960 . S
H1426 C1418 0.930 . S
H1427 C1419 0.929 . S
H1428 C1436 0.929 . S
H1429 C1438 0.930 . S
H1430 C1440 0.930 . S
H1431 C1443 0.929 . S
H1432 C1446 0.930 . S
H1433 C1448 0.960 . S
H1434 C1448 0.960 . S
H1435 C1448 0.960 . S
C1436 H1428 0.929 . S
C1436 C1437 1.377 . S
C1436 C1438 1.384 . S
C1437 C1436 1.377 . S
C1437 C1443 1.390 . S
C1438 H1429 0.930 . S
C1438 C1436 1.384 . S
C1438 C1439 1.372 . S
C1439 C1438 1.372 . S
C1439 C1440 1.400 . S
C1439 C1444 1.490 . S
C1440 H1430 0.930 . S
C1440 C1439 1.400 . S
C1440 C1443 1.386 . S
H1441 C1457 0.930 . S
H1442 C1458 0.931 . S
C1443 H1431 0.929 . S
C1443 C1437 1.390 . S
C1443 C1440 1.386 . S
C1444 C1439 1.490 . S
C1444 C1446 1.395 . S
C1444 C1447 1.403 . S
H1445 C1451 0.930 . S
C1446 H1432 0.930 . S
C1446 C1444 1.395 . S
C1446 C1449 1.403 . S
C1447 C1444 1.403 . S
C1447 C1448 1.524 . S
C1447 C1451 1.400 . S
C1448 H1433 0.960 . S
C1448 H1434 0.960 . S
C1448 H1435 0.960 . S
C1448 C1447 1.524 . S
C1449 C1446 1.403 . S
C1449 C1450 1.392 . S
C1449 C1453 1.495 . S
C1450 C1449 1.392 . S
C1450 C1451 1.385 . S
C1450 C1452 1.478 . S
C1451 H1445 0.930 . S
C1451 C1447 1.400 . S
C1451 C1450 1.385 . S
C1452 C1450 1.478 . S
C1452 C1454 1.381 . S
C1452 C1458 1.383 . S
C1453 C1449 1.495 . S
C1453 H1459 0.959 . S
C1453 H1460 0.961 . S
C1453 H1461 0.960 . S
C1454 C1452 1.381 . S
C1454 C1455 1.394 . S
C1454 H1462 0.930 . S
C1455 C1454 1.394 . S
C1455 C1456 1.383 . S
C1455 H1463 0.929 . S
C1456 C1455 1.383 . S
C1456 C1457 1.377 . S
C1457 H1441 0.930 . S
C1457 C1456 1.377 . S
C1457 C1458 1.379 . S
C1458 H1442 0.931 . S
C1458 C1452 1.383 . S
C1458 C1457 1.379 . S
H1459 C1453 0.959 . S
H1460 C1453 0.961 . S
H1461 C1453 0.960 . S
H1462 C1454 0.930 . S
H1463 C1455 0.929 . S
H1464 C1472 0.929 . S
H1465 C1474 0.930 . S
H1466 C1476 0.930 . S
H1467 C1479 0.929 . S
H1468 C1482 0.930 . S
H1469 C1484 0.960 . S
H1470 C1484 0.960 . S
H1471 C1484 0.960 . S
C1472 H1464 0.929 . S
C1472 C1473 1.377 . S
C1472 C1474 1.384 . S
C1473 C1472 1.377 . S
C1473 C1479 1.390 . S
C1474 H1465 0.930 . S
C1474 C1472 1.384 . S
C1474 C1475 1.372 . S
C1475 C1474 1.372 . S
C1475 C1476 1.400 . S
C1475 C1480 1.490 . S
C1476 H1466 0.930 . S
C1476 C1475 1.400 . S
C1476 C1479 1.386 . S
H1477 C1493 0.930 . S
H1478 C1494 0.931 . S
C1479 H1467 0.929 . S
C1479 C1473 1.390 . S
C1479 C1476 1.386 . S
C1480 C1475 1.490 . S
C1480 C1482 1.395 . S
C1480 C1483 1.403 . S
H1481 C1487 0.930 . S
C1482 H1468 0.930 . S
C1482 C1480 1.395 . S
C1482 C1485 1.403 . S
C1483 C1480 1.403 . S
C1483 C1484 1.524 . S
C1483 C1487 1.400 . S
C1484 H1469 0.960 . S
C1484 H1470 0.960 . S
C1484 H1471 0.960 . S
C1484 C1483 1.524 . S
C1485 C1482 1.403 . S
C1485 C1486 1.392 . S
C1485 C1489 1.495 . S
C1486 C1485 1.392 . S
C1486 C1487 1.385 . S
C1486 C1488 1.478 . S
C1487 H1481 0.930 . S
C1487 C1483 1.400 . S
C1487 C1486 1.385 . S
C1488 C1486 1.478 . S
C1488 C1490 1.381 . S
C1488 C1494 1.383 . S
C1489 C1485 1.495 . S
C1489 H1495 0.959 . S
C1489 H1496 0.961 . S
C1489 H1497 0.960 . S
C1490 C1488 1.381 . S
C1490 C1491 1.394 . S
C1490 H1498 0.930 . S
C1491 C1490 1.394 . S
C1491 C1492 1.383 . S
C1491 H1499 0.929 . S
C1492 C1491 1.383 . S
C1492 C1493 1.377 . S
C1493 H1477 0.930 . S
C1493 C1492 1.377 . S
C1493 C1494 1.379 . S
C1494 H1478 0.931 . S
C1494 C1488 1.383 . S
C1494 C1493 1.379 . S
H1495 C1489 0.959 . S
H1496 C1489 0.961 . S
H1497 C1489 0.960 . S
H1498 C1490 0.930 . S
H1499 C1491 0.929 . S
H1500 C1508 0.929 . S
H1501 C1510 0.930 . S
H1502 C1512 0.930 . S
H1503 C1515 0.929 . S
H1504 C1518 0.930 . S
H1505 C1520 0.960 . S
H1506 C1520 0.960 . S
H1507 C1520 0.960 . S
C1508 H1500 0.929 . S
C1508 C1509 1.377 . S
C1508 C1510 1.384 . S
C1509 C1508 1.377 . S
C1509 C1515 1.390 . S
C1510 H1501 0.930 . S
C1510 C1508 1.384 . S
C1510 C1511 1.372 . S
C1511 C1510 1.372 . S
C1511 C1512 1.400 . S
C1511 C1516 1.490 . S
C1512 H1502 0.930 . S
C1512 C1511 1.400 . S
C1512 C1515 1.386 . S
H1513 C1529 0.930 . S
H1514 C1530 0.931 . S
C1515 H1503 0.929 . S
C1515 C1509 1.390 . S
C1515 C1512 1.386 . S
C1516 C1511 1.490 . S
C1516 C1518 1.395 . S
C1516 C1519 1.403 . S
H1517 C1523 0.930 . S
C1518 H1504 0.930 . S
C1518 C1516 1.395 . S
C1518 C1521 1.403 . S
C1519 C1516 1.403 . S
C1519 C1520 1.524 . S
C1519 C1523 1.400 . S
C1520 H1505 0.960 . S
C1520 H1506 0.960 . S
C1520 H1507 0.960 . S
C1520 C1519 1.524 . S
C1521 C1518 1.403 . S
C1521 C1522 1.392 . S
C1521 C1525 1.495 . S
C1522 C1521 1.392 . S
C1522 C1523 1.385 . S
C1522 C1524 1.478 . S
C1523 H1517 0.930 . S
C1523 C1519 1.400 . S
C1523 C1522 1.385 . S
C1524 C1522 1.478 . S
C1524 C1526 1.381 . S
C1524 C1530 1.383 . S
C1525 C1521 1.495 . S
C1525 H1531 0.959 . S
C1525 H1532 0.961 . S
C1525 H1533 0.960 . S
C1526 C1524 1.381 . S
C1526 C1527 1.394 . S
C1526 H1534 0.930 . S
C1527 C1526 1.394 . S
C1527 C1528 1.383 . S
C1527 H1535 0.929 . S
C1528 C1527 1.383 . S
C1528 C1529 1.377 . S
C1529 H1513 0.930 . S
C1529 C1528 1.377 . S
C1529 C1530 1.379 . S
C1530 H1514 0.931 . S
C1530 C1524 1.383 . S
C1530 C1529 1.379 . S
H1531 C1525 0.959 . S
H1532 C1525 0.961 . S
H1533 C1525 0.960 . S
H1534 C1526 0.930 . S
H1535 C1527 0.929 . S
H1536 C1544 0.929 . S
H1537 C1546 0.930 . S
H1538 C1548 0.930 . S
H1539 C1551 0.929 . S
H1540 C1554 0.930 . S
H1541 C1556 0.960 . S
H1542 C1556 0.960 . S
H1543 C1556 0.960 . S
C1544 H1536 0.929 . S
C1544 C1545 1.377 . S
C1544 C1546 1.384 . S
C1545 C1544 1.377 . S
C1545 C1551 1.390 . S
C1546 H1537 0.930 . S
C1546 C1544 1.384 . S
C1546 C1547 1.372 . S
C1547 C1546 1.372 . S
C1547 C1548 1.400 . S
C1547 C1552 1.490 . S
C1548 H1538 0.930 . S
C1548 C1547 1.400 . S
C1548 C1551 1.386 . S
H1549 C1565 0.930 . S
H1550 C1566 0.931 . S
C1551 H1539 0.929 . S
C1551 C1545 1.390 . S
C1551 C1548 1.386 . S
C1552 C1547 1.490 . S
C1552 C1554 1.395 . S
C1552 C1555 1.403 . S
H1553 C1559 0.930 . S
C1554 H1540 0.930 . S
C1554 C1552 1.395 . S
C1554 C1557 1.403 . S
C1555 C1552 1.403 . S
C1555 C1556 1.524 . S
C1555 C1559 1.400 . S
C1556 H1541 0.960 . S
C1556 H1542 0.960 . S
C1556 H1543 0.960 . S
C1556 C1555 1.524 . S
C1557 C1554 1.403 . S
C1557 C1558 1.392 . S
C1557 C1561 1.495 . S
C1558 C1557 1.392 . S
C1558 C1559 1.385 . S
C1558 C1560 1.478 . S
C1559 H1553 0.930 . S
C1559 C1555 1.400 . S
C1559 C1558 1.385 . S
C1560 C1558 1.478 . S
C1560 C1562 1.381 . S
C1560 C1566 1.383 . S
C1561 C1557 1.495 . S
C1561 H1567 0.959 . S
C1561 H1568 0.961 . S
C1561 H1569 0.960 . S
C1562 C1560 1.381 . S
C1562 C1563 1.394 . S
C1562 H1570 0.930 . S
C1563 C1562 1.394 . S
C1563 C1564 1.383 . S
C1563 H1571 0.929 . S
C1564 C1563 1.383 . S
C1564 C1565 1.377 . S
C1565 H1549 0.930 . S
C1565 C1564 1.377 . S
C1565 C1566 1.379 . S
C1566 H1550 0.931 . S
C1566 C1560 1.383 . S
C1566 C1565 1.379 . S
H1567 C1561 0.959 . S
H1568 C1561 0.961 . S
H1569 C1561 0.960 . S
H1570 C1562 0.930 . S
H1571 C1563 0.929 . S
H1572 C1580 0.929 . S
H1573 C1582 0.930 . S
H1574 C1584 0.930 . S
H1575 C1587 0.929 . S
H1576 C1590 0.930 . S
H1577 C1592 0.960 . S
H1578 C1592 0.960 . S
H1579 C1592 0.960 . S
C1580 H1572 0.929 . S
C1580 C1581 1.377 . S
C1580 C1582 1.384 . S
C1581 C1580 1.377 . S
C1581 C1587 1.390 . S
C1582 H1573 0.930 . S
C1582 C1580 1.384 . S
C1582 C1583 1.372 . S
C1583 C1582 1.372 . S
C1583 C1584 1.400 . S
C1583 C1588 1.490 . S
C1584 H1574 0.930 . S
C1584 C1583 1.400 . S
C1584 C1587 1.386 . S
H1585 C1601 0.930 . S
H1586 C1602 0.931 . S
C1587 H1575 0.929 . S
C1587 C1581 1.390 . S
C1587 C1584 1.386 . S
C1588 C1583 1.490 . S
C1588 C1590 1.395 . S
C1588 C1591 1.403 . S
H1589 C1595 0.930 . S
C1590 H1576 0.930 . S
C1590 C1588 1.395 . S
C1590 C1593 1.403 . S
C1591 C1588 1.403 . S
C1591 C1592 1.524 . S
C1591 C1595 1.400 . S
C1592 H1577 0.960 . S
C1592 H1578 0.960 . S
C1592 H1579 0.960 . S
C1592 C1591 1.524 . S
C1593 C1590 1.403 . S
C1593 C1594 1.392 . S
C1593 C1597 1.495 . S
C1594 C1593 1.392 . S
C1594 C1595 1.385 . S
C1594 C1596 1.478 . S
C1595 H1589 0.930 . S
C1595 C1591 1.400 . S
C1595 C1594 1.385 . S
C1596 C1594 1.478 . S
C1596 C1598 1.381 . S
C1596 C1602 1.383 . S
C1597 C1593 1.495 . S
C1597 H1603 0.959 . S
C1597 H1604 0.961 . S
C1597 H1605 0.960 . S
C1598 C1596 1.381 . S
C1598 C1599 1.394 . S
C1598 H1606 0.930 . S
C1599 C1598 1.394 . S
C1599 C1600 1.383 . S
C1599 H1607 0.929 . S
C1600 C1599 1.383 . S
C1600 C1601 1.377 . S
C1601 H1585 0.930 . S
C1601 C1600 1.377 . S
C1601 C1602 1.379 . S
C1602 H1586 0.931 . S
C1602 C1596 1.383 . S
C1602 C1601 1.379 . S
H1603 C1597 0.959 . S
H1604 C1597 0.961 . S
H1605 C1597 0.960 . S
H1606 C1598 0.930 . S
H1607 C1599 0.929 . S
H1608 C1616 0.929 . S
H1609 C1618 0.930 . S
H1610 C1620 0.930 . S
H1611 C1623 0.929 . S
H1612 C1626 0.930 . S
H1613 C1628 0.960 . S
H1614 C1628 0.960 . S
H1615 C1628 0.960 . S
C1616 H1608 0.929 . S
C1616 C1617 1.377 . S
C1616 C1618 1.384 . S
C1617 C1616 1.377 . S
C1617 C1623 1.390 . S
C1618 H1609 0.930 . S
C1618 C1616 1.384 . S
C1618 C1619 1.372 . S
C1619 C1618 1.372 . S
C1619 C1620 1.400 . S
C1619 C1624 1.490 . S
C1620 H1610 0.930 . S
C1620 C1619 1.400 . S
C1620 C1623 1.386 . S
H1621 C1637 0.930 . S
H1622 C1638 0.931 . S
C1623 H1611 0.929 . S
C1623 C1617 1.390 . S
C1623 C1620 1.386 . S
C1624 C1619 1.490 . S
C1624 C1626 1.395 . S
C1624 C1627 1.403 . S
H1625 C1631 0.930 . S
C1626 H1612 0.930 . S
C1626 C1624 1.395 . S
C1626 C1629 1.403 . S
C1627 C1624 1.403 . S
C1627 C1628 1.524 . S
C1627 C1631 1.400 . S
C1628 H1613 0.960 . S
C1628 H1614 0.960 . S
C1628 H1615 0.960 . S
C1628 C1627 1.524 . S
C1629 C1626 1.403 . S
C1629 C1630 1.392 . S
C1629 C1633 1.495 . S
C1630 C1629 1.392 . S
C1630 C1631 1.385 . S
C1630 C1632 1.478 . S
C1631 H1625 0.930 . S
C1631 C1627 1.400 . S
C1631 C1630 1.385 . S
C1632 C1630 1.478 . S
C1632 C1634 1.381 . S
C1632 C1638 1.383 . S
C1633 C1629 1.495 . S
C1633 H1639 0.959 . S
C1633 H1640 0.961 . S
C1633 H1641 0.960 . S
C1634 C1632 1.381 . S
C1634 C1635 1.394 . S
C1634 H1642 0.930 . S
C1635 C1634 1.394 . S
C1635 C1636 1.383 . S
C1635 H1643 0.929 . S
C1636 C1635 1.383 . S
C1636 C1637 1.377 . S
C1637 H1621 0.930 . S
C1637 C1636 1.377 . S
C1637 C1638 1.379 . S
C1638 H1622 0.931 . S
C1638 C1632 1.383 . S
C1638 C1637 1.379 . S
H1639 C1633 0.959 . S
H1640 C1633 0.961 . S
H1641 C1633 0.960 . S
H1642 C1634 0.930 . S
H1643 C1635 0.929 . S
H1644 C1652 0.929 . S
H1645 C1654 0.930 . S
H1646 C1656 0.930 . S
H1647 C1659 0.929 . S
H1648 C1662 0.930 . S
H1649 C1664 0.960 . S
H1650 C1664 0.960 . S
H1651 C1664 0.960 . S
C1652 H1644 0.929 . S
C1652 C1653 1.377 . S
C1652 C1654 1.384 . S
C1653 C1652 1.377 . S
C1653 C1659 1.390 . S
C1654 H1645 0.930 . S
C1654 C1652 1.384 . S
C1654 C1655 1.372 . S
C1655 C1654 1.372 . S
C1655 C1656 1.400 . S
C1655 C1660 1.490 . S
C1656 H1646 0.930 . S
C1656 C1655 1.400 . S
C1656 C1659 1.386 . S
H1657 C1673 0.930 . S
H1658 C1674 0.931 . S
C1659 H1647 0.929 . S
C1659 C1653 1.390 . S
C1659 C1656 1.386 . S
C1660 C1655 1.490 . S
C1660 C1662 1.395 . S
C1660 C1663 1.403 . S
H1661 C1667 0.930 . S
C1662 H1648 0.930 . S
C1662 C1660 1.395 . S
C1662 C1665 1.403 . S
C1663 C1660 1.403 . S
C1663 C1664 1.524 . S
C1663 C1667 1.400 . S
C1664 H1649 0.960 . S
C1664 H1650 0.960 . S
C1664 H1651 0.960 . S
C1664 C1663 1.524 . S
C1665 C1662 1.403 . S
C1665 C1666 1.392 . S
C1665 C1669 1.495 . S
C1666 C1665 1.392 . S
C1666 C1667 1.385 . S
C1666 C1668 1.478 . S
C1667 H1661 0.930 . S
C1667 C1663 1.400 . S
C1667 C1666 1.385 . S
C1668 C1666 1.478 . S
C1668 C1670 1.381 . S
C1668 C1674 1.383 . S
C1669 C1665 1.495 . S
C1669 H1675 0.959 . S
C1669 H1676 0.961 . S
C1669 H1677 0.960 . S
C1670 C1668 1.381 . S
C1670 C1671 1.394 . S
C1670 H1678 0.930 . S
C1671 C1670 1.394 . S
C1671 C1672 1.383 . S
C1671 H1679 0.929 . S
C1672 C1671 1.383 . S
C1672 C1673 1.377 . S
C1673 H1657 0.930 . S
C1673 C1672 1.377 . S
C1673 C1674 1.379 . S
C1674 H1658 0.931 . S
C1674 C1668 1.383 . S
C1674 C1673 1.379 . S
H1675 C1669 0.959 . S
H1676 C1669 0.961 . S
H1677 C1669 0.960 . S
H1678 C1670 0.930 . S
H1679 C1671 0.929 . S
H1680 C1688 0.929 . S
H1681 C1690 0.930 . S
H1682 C1692 0.930 . S
H1683 C1695 0.929 . S
H1684 C1698 0.930 . S
H1685 C1700 0.960 . S
H1686 C1700 0.960 . S
H1687 C1700 0.960 . S
C1688 H1680 0.929 . S
C1688 C1689 1.377 . S
C1688 C1690 1.384 . S
C1689 C1688 1.377 . S
C1689 C1695 1.390 . S
C1690 H1681 0.930 . S
C1690 C1688 1.384 . S
C1690 C1691 1.372 . S
C1691 C1690 1.372 . S
C1691 C1692 1.400 . S
C1691 C1696 1.490 . S
C1692 H1682 0.930 . S
C1692 C1691 1.400 . S
C1692 C1695 1.386 . S
H1693 C1709 0.930 . S
H1694 C1710 0.931 . S
C1695 H1683 0.929 . S
C1695 C1689 1.390 . S
C1695 C1692 1.386 . S
C1696 C1691 1.490 . S
C1696 C1698 1.395 . S
C1696 C1699 1.403 . S
H1697 C1703 0.930 . S
C1698 H1684 0.930 . S
C1698 C1696 1.395 . S
C1698 C1701 1.403 . S
C1699 C1696 1.403 . S
C1699 C1700 1.524 . S
C1699 C1703 1.400 . S
C1700 H1685 0.960 . S
C1700 H1686 0.960 . S
C1700 H1687 0.960 . S
C1700 C1699 1.524 . S
C1701 C1698 1.403 . S
C1701 C1702 1.392 . S
C1701 C1705 1.495 . S
C1702 C1701 1.392 . S
C1702 C1703 1.385 . S
C1702 C1704 1.478 . S
C1703 H1697 0.930 . S
C1703 C1699 1.400 . S
C1703 C1702 1.385 . S
C1704 C1702 1.478 . S
C1704 C1706 1.381 . S
C1704 C1710 1.383 . S
C1705 C1701 1.495 . S
C1705 H1711 0.959 . S
C1705 H1712 0.961 . S
C1705 H1713 0.960 . S
C1706 C1704 1.381 . S
C1706 C1707 1.394 . S
C1706 H1714 0.930 . S
C1707 C1706 1.394 . S
C1707 C1708 1.383 . S
C1707 H1715 0.929 . S
C1708 C1707 1.383 . S
C1708 C1709 1.377 . S
C1709 H1693 0.930 . S
C1709 C1708 1.377 . S
C1709 C1710 1.379 . S
C1710 H1694 0.931 . S
C1710 C1704 1.383 . S
C1710 C1709 1.379 . S
H1711 C1705 0.959 . S
H1712 C1705 0.961 . S
H1713 C1705 0.960 . S
H1714 C1706 0.930 . S
H1715 C1707 0.929 . S
H1716 C1724 0.929 . S
H1717 C1726 0.930 . S
H1718 C1728 0.930 . S
H1719 C1731 0.929 . S
H1720 C1734 0.930 . S
H1721 C1736 0.972 . S
H1722 C1736 0.960 . S
H1723 C1736 0.950 1_556 S
C1724 H1716 0.929 . S
C1724 C1725 1.377 . S
C1724 C1726 1.384 . S
C1725 C1724 1.377 . S
C1725 C1731 1.390 . S
C1726 H1717 0.930 . S
C1726 C1724 1.384 . S
C1726 C1727 1.372 . S
C1727 C1726 1.372 . S
C1727 C1728 1.400 . S
C1727 C1732 1.490 . S
C1728 H1718 0.930 . S
C1728 C1727 1.400 . S
C1728 C1731 1.386 . S
H1729 C1745 0.930 . S
H1730 C1746 0.931 . S
C1731 H1719 0.929 . S
C1731 C1725 1.390 . S
C1731 C1728 1.386 . S
C1732 C1727 1.490 . S
C1732 C1734 1.395 . S
C1732 C1735 1.432 . S
H1733 C1739 0.930 . S
C1734 H1720 0.930 . S
C1734 C1732 1.395 . S
C1734 C1737 1.403 1_556 S
C1735 C1732 1.432 . S
C1735 C1736 1.522 1_556 S
C1735 C1739 1.372 1_556 S
C1736 H1721 0.972 . S
C1736 H1722 0.960 . S
C1736 H1723 0.950 1_554 S
C1736 C1735 1.522 1_554 S
C1737 C1734 1.403 1_554 S
C1737 C1738 1.392 . S
C1737 C1741 1.495 1_554 S
C1738 C1737 1.392 . S
C1738 C1739 1.385 . S
C1738 C1740 1.478 . S
C1739 H1733 0.930 . S
C1739 C1735 1.372 1_554 S
C1739 C1738 1.385 . S
C1740 C1738 1.478 . S
C1740 C1742 1.381 . S
C1740 C1746 1.383 . S
C1741 C1737 1.495 1_556 S
C1741 H1747 0.964 . S
C1741 H1748 0.961 1_556 S
C1741 H1749 0.955 1_556 S
C1742 C1740 1.381 . S
C1742 C1743 1.394 . S
C1742 H1750 0.930 . S
C1743 C1742 1.394 . S
C1743 C1744 1.383 . S
C1743 H1751 0.929 . S
C1744 C1743 1.383 . S
C1744 C1745 1.377 . S
C1745 H1729 0.930 . S
C1745 C1744 1.377 . S
C1745 C1746 1.379 . S
C1746 H1730 0.931 . S
C1746 C1740 1.383 . S
C1746 C1745 1.379 . S
H1747 C1741 0.964 . S
H1748 C1741 0.961 1_554 S
H1749 C1741 0.955 1_554 S
H1750 C1742 0.930 . S
H1751 C1743 0.929 . S
H1752 C1760 0.929 . S
H1753 C1762 0.930 . S
H1754 C1764 0.930 . S
H1755 C1767 0.929 . S
H1756 C1770 0.930 . S
H1757 C1772 0.960 . S
H1758 C1772 0.960 . S
H1759 C1772 0.960 . S
C1760 H1752 0.929 . S
C1760 C1761 1.377 . S
C1760 C1762 1.384 . S
C1761 C1760 1.377 . S
C1761 C1767 1.390 . S
C1762 H1753 0.930 . S
C1762 C1760 1.384 . S
C1762 C1763 1.372 . S
C1763 C1762 1.372 . S
C1763 C1764 1.400 . S
C1763 C1768 1.490 . S
C1764 H1754 0.930 . S
C1764 C1763 1.400 . S
C1764 C1767 1.386 . S
H1765 C1781 0.930 . S
H1766 C1782 0.931 . S
C1767 H1755 0.929 . S
C1767 C1761 1.390 . S
C1767 C1764 1.386 . S
C1768 C1763 1.490 . S
C1768 C1770 1.395 . S
C1768 C1771 1.403 1_455 S
H1769 C1775 0.930 . S
C1770 H1756 0.930 . S
C1770 C1768 1.395 . S
C1770 C1773 1.403 . S
C1771 C1768 1.403 1_655 S
C1771 C1772 1.524 . S
C1771 C1775 1.400 . S
C1772 H1757 0.960 . S
C1772 H1758 0.960 . S
C1772 H1759 0.960 . S
C1772 C1771 1.524 . S
C1773 C1770 1.403 . S
C1773 C1774 1.392 1_455 S
C1773 C1777 1.495 . S
C1774 C1773 1.392 1_655 S
C1774 C1775 1.385 . S
C1774 C1776 1.478 . S
C1775 H1769 0.930 . S
C1775 C1771 1.400 . S
C1775 C1774 1.385 . S
C1776 C1774 1.478 . S
C1776 C1778 1.381 . S
C1776 C1782 1.383 . S
C1777 C1773 1.495 . S
C1777 H1783 0.959 . S
C1777 H1784 0.961 . S
C1777 H1785 0.960 . S
C1778 C1776 1.381 . S
C1778 C1779 1.394 . S
C1778 H1786 0.930 . S
C1779 C1778 1.394 . S
C1779 C1780 1.383 . S
C1779 H1787 0.929 . S
C1780 C1779 1.383 . S
C1780 C1781 1.377 . S
C1781 H1765 0.930 . S
C1781 C1780 1.377 . S
C1781 C1782 1.379 . S
C1782 H1766 0.931 . S
C1782 C1776 1.383 . S
C1782 C1781 1.379 . S
H1783 C1777 0.959 . S
H1784 C1777 0.961 . S
H1785 C1777 0.960 . S
H1786 C1778 0.930 . S
H1787 C1779 0.929 . S
H1788 C1796 0.929 . S
H1789 C1798 0.930 . S
H1790 C1800 0.930 . S
H1791 C1803 0.929 . S
H1792 C1806 0.930 . S
H1793 C1808 0.960 . S
H1794 C1808 0.960 . S
H1795 C1808 0.960 . S
C1796 H1788 0.929 . S
C1796 C1797 1.377 . S
C1796 C1798 1.384 . S
C1797 C1796 1.377 . S
C1797 C1803 1.390 . S
C1798 H1789 0.930 . S
C1798 C1796 1.384 . S
C1798 C1799 1.372 . S
C1799 C1798 1.372 . S
C1799 C1800 1.400 . S
C1799 C1804 1.490 . S
C1800 H1790 0.930 . S
C1800 C1799 1.400 . S
C1800 C1803 1.386 . S
H1801 C1817 0.930 . S
H1802 C1818 0.931 . S
C1803 H1791 0.929 . S
C1803 C1797 1.390 . S
C1803 C1800 1.386 . S
C1804 C1799 1.490 . S
C1804 C1806 1.395 1_554 S
C1804 C1807 1.403 1_565 S
H1805 C1811 0.933 . S
C1806 H1792 0.930 . S
C1806 C1804 1.395 1_556 S
C1806 C1809 1.403 . S
C1807 C1804 1.403 1_545 S
C1807 C1808 1.524 . S
C1807 C1811 1.400 1_554 S
C1808 H1793 0.960 . S
C1808 H1794 0.960 . S
C1808 H1795 0.960 . S
C1808 C1807 1.524 . S
C1809 C1806 1.403 . S
C1809 C1810 1.392 1_565 S
C1809 C1813 1.495 . S
C1810 C1809 1.392 1_545 S
C1810 C1811 1.385 . S
C1810 C1812 1.478 . S
C1811 H1805 0.933 . S
C1811 C1807 1.400 1_556 S
C1811 C1810 1.385 . S
C1812 C1810 1.478 . S
C1812 C1814 1.381 . S
C1812 C1818 1.383 . S
C1813 C1809 1.495 . S
C1813 H1819 0.959 . S
C1813 H1820 0.961 . S
C1813 H1821 0.960 . S
C1814 C1812 1.381 . S
C1814 C1815 1.394 . S
C1814 H1822 0.930 . S
C1815 C1814 1.394 . S
C1815 C1816 1.383 . S
C1815 H1823 0.929 . S
C1816 C1815 1.383 . S
C1816 C1817 1.377 . S
C1817 H1801 0.930 . S
C1817 C1816 1.377 . S
C1817 C1818 1.379 . S
C1818 H1802 0.931 . S
C1818 C1812 1.383 . S
C1818 C1817 1.379 . S
H1819 C1813 0.959 . S
H1820 C1813 0.961 . S
H1821 C1813 0.960 . S
H1822 C1814 0.930 . S
H1823 C1815 0.929 . S
H1824 C1832 0.929 . S
H1825 C1834 0.930 . S
H1826 C1836 0.930 . S
H1827 C1839 0.929 . S
H1828 C1842 0.930 . S
H1829 C1844 0.960 . S
H1830 C1844 0.960 . S
H1831 C1844 0.960 . S
C1832 H1824 0.929 . S
C1832 C1833 1.377 . S
C1832 C1834 1.384 . S
C1833 C1832 1.377 . S
C1833 C1839 1.390 . S
C1834 H1825 0.930 . S
C1834 C1832 1.384 . S
C1834 C1835 1.372 . S
C1835 C1834 1.372 . S
C1835 C1836 1.400 . S
C1835 C1840 1.490 . S
C1836 H1826 0.930 . S
C1836 C1835 1.400 . S
C1836 C1839 1.386 . S
H1837 C1853 0.930 . S
H1838 C1854 0.931 . S
C1839 H1827 0.929 . S
C1839 C1833 1.390 . S
C1839 C1836 1.386 . S
C1840 C1835 1.490 . S
C1840 C1842 1.395 . S
C1840 C1843 1.403 . S
H1841 C1847 0.930 . S
C1842 H1828 0.930 . S
C1842 C1840 1.395 . S
C1842 C1845 1.403 . S
C1843 C1840 1.403 . S
C1843 C1844 1.524 . S
C1843 C1847 1.400 . S
C1844 H1829 0.960 . S
C1844 H1830 0.960 . S
C1844 H1831 0.960 . S
C1844 C1843 1.524 . S
C1845 C1842 1.403 . S
C1845 C1846 1.392 . S
C1845 C1849 1.495 . S
C1846 C1845 1.392 . S
C1846 C1847 1.385 . S
C1846 C1848 1.478 . S
C1847 H1841 0.930 . S
C1847 C1843 1.400 . S
C1847 C1846 1.385 . S
C1848 C1846 1.478 . S
C1848 C1850 1.381 . S
C1848 C1854 1.383 . S
C1849 C1845 1.495 . S
C1849 H1855 0.959 . S
C1849 H1856 0.961 . S
C1849 H1857 0.960 . S
C1850 C1848 1.381 . S
C1850 C1851 1.394 . S
C1850 H1858 0.930 . S
C1851 C1850 1.394 . S
C1851 C1852 1.383 . S
C1851 H1859 0.929 . S
C1852 C1851 1.383 . S
C1852 C1853 1.377 . S
C1853 H1837 0.930 . S
C1853 C1852 1.377 . S
C1853 C1854 1.379 . S
C1854 H1838 0.931 . S
C1854 C1848 1.383 . S
C1854 C1853 1.379 . S
H1855 C1849 0.959 . S
H1856 C1849 0.961 . S
H1857 C1849 0.960 . S
H1858 C1850 0.930 . S
H1859 C1851 0.929 . S
H1860 C1868 0.929 . S
H1861 C1870 0.930 . S
H1862 C1872 0.930 . S
H1863 C1875 0.929 . S
H1864 C1878 0.930 . S
H1865 C1880 0.960 . S
H1866 C1880 0.960 . S
H1867 C1880 0.960 . S
C1868 H1860 0.929 . S
C1868 C1869 1.377 . S
C1868 C1870 1.384 . S
C1869 C1868 1.377 . S
C1869 C1875 1.390 . S
C1870 H1861 0.930 . S
C1870 C1868 1.384 . S
C1870 C1871 1.372 . S
C1871 C1870 1.372 . S
C1871 C1872 1.400 . S
C1871 C1876 1.490 . S
C1872 H1862 0.930 . S
C1872 C1871 1.400 . S
C1872 C1875 1.386 . S
H1873 C1889 0.930 . S
H1874 C1890 0.931 . S
C1875 H1863 0.929 . S
C1875 C1869 1.390 . S
C1875 C1872 1.386 . S
C1876 C1871 1.490 . S
C1876 C1878 1.395 1_556 S
C1876 C1879 1.403 1_655 S
H1877 C1883 0.930 . S
C1878 H1864 0.930 . S
C1878 C1876 1.395 1_554 S
C1878 C1881 1.403 . S
C1879 C1876 1.403 1_455 S
C1879 C1880 1.524 . S
C1879 C1883 1.347 1_556 S
C1880 H1865 0.960 . S
C1880 H1866 0.960 . S
C1880 H1867 0.960 . S
C1880 C1879 1.524 . S
C1881 C1878 1.403 . S
C1881 C1882 1.392 1_655 S
C1881 C1885 1.495 . S
C1882 C1881 1.392 1_455 S
C1882 C1883 1.440 . S
C1882 C1884 1.478 . S
C1883 H1877 0.930 . S
C1883 C1879 1.347 1_554 S
C1883 C1882 1.440 . S
C1884 C1882 1.478 . S
C1884 C1886 1.381 . S
C1884 C1890 1.383 . S
C1885 C1881 1.495 . S
C1885 H1891 0.959 . S
C1885 H1892 0.961 . S
C1885 H1893 0.960 . S
C1886 C1884 1.381 . S
C1886 C1887 1.394 . S
C1886 H1894 0.930 . S
C1887 C1886 1.394 . S
C1887 C1888 1.383 . S
C1887 H1895 0.929 . S
C1888 C1887 1.383 . S
C1888 C1889 1.377 . S
C1889 H1873 0.930 . S
C1889 C1888 1.377 . S
C1889 C1890 1.379 . S
C1890 H1874 0.931 . S
C1890 C1884 1.383 . S
C1890 C1889 1.379 . S
H1891 C1885 0.959 . S
H1892 C1885 0.961 . S
H1893 C1885 0.960 . S
H1894 C1886 0.930 . S
H1895 C1887 0.929 . S
H1896 C1904 0.929 . S
H1897 C1906 0.930 . S
H1898 C1908 0.930 . S
H1899 C1911 0.929 . S
H1900 C1914 0.930 . S
H1901 C1916 0.960 . S
H1902 C1916 0.960 1_565 S
H1903 C1916 0.960 . S
C1904 H1896 0.929 . S
C1904 C1905 1.377 . S
C1904 C1906 1.384 . S
C1905 C1904 1.377 . S
C1905 C1911 1.390 . S
C1906 H1897 0.930 . S
C1906 C1904 1.384 . S
C1906 C1907 1.372 . S
C1907 C1906 1.372 . S
C1907 C1908 1.400 . S
C1907 C1912 1.490 . S
C1908 H1898 0.930 . S
C1908 C1907 1.400 . S
C1908 C1911 1.386 . S
H1909 C1925 0.930 . S
H1910 C1926 0.931 . S
C1911 H1899 0.929 . S
C1911 C1905 1.390 . S
C1911 C1908 1.386 . S
C1912 C1907 1.490 . S
C1912 C1914 1.395 . S
C1912 C1915 1.403 1_565 S
H1913 C1919 0.930 . S
C1914 H1900 0.930 . S
C1914 C1912 1.395 . S
C1914 C1917 1.403 . S
C1915 C1912 1.403 1_545 S
C1915 C1916 1.524 . S
C1915 C1919 1.400 . S
C1916 H1901 0.960 . S
C1916 H1902 0.960 1_545 S
C1916 H1903 0.960 . S
C1916 C1915 1.524 . S
C1917 C1914 1.403 . S
C1917 C1918 1.392 1_565 S
C1917 C1921 1.495 . S
C1918 C1917 1.392 1_545 S
C1918 C1919 1.385 . S
C1918 C1920 1.478 . S
C1919 H1913 0.930 . S
C1919 C1915 1.400 . S
C1919 C1918 1.385 . S
C1920 C1918 1.478 . S
C1920 C1922 1.381 . S
C1920 C1926 1.383 . S
C1921 C1917 1.495 . S
C1921 H1927 0.959 . S
C1921 H1928 0.961 . S
C1921 H1929 0.960 . S
C1922 C1920 1.381 . S
C1922 C1923 1.394 . S
C1922 H1930 0.930 . S
C1923 C1922 1.394 . S
C1923 C1924 1.383 . S
C1923 H1931 0.929 . S
C1924 C1923 1.383 . S
C1924 C1925 1.377 . S
C1925 H1909 0.930 . S
C1925 C1924 1.377 . S
C1925 C1926 1.379 . S
C1926 H1910 0.931 . S
C1926 C1920 1.383 . S
C1926 C1925 1.379 . S
H1927 C1921 0.959 . S
H1928 C1921 0.961 . S
H1929 C1921 0.960 . S
H1930 C1922 0.930 . S
H1931 C1923 0.929 . S
H1932 C1940 0.929 . S
H1933 C1942 0.930 . S
H1934 C1944 0.930 . S
H1935 C1947 0.929 . S
H1936 C1950 0.930 . S
H1937 C1952 0.960 . S
H1938 C1952 0.960 . S
H1939 C1952 0.960 . S
C1940 H1932 0.929 . S
C1940 C1941 1.377 . S
C1940 C1942 1.384 . S
C1941 C1940 1.377 . S
C1941 C1947 1.390 . S
C1942 H1933 0.930 . S
C1942 C1940 1.384 . S
C1942 C1943 1.372 . S
C1943 C1942 1.372 . S
C1943 C1944 1.400 . S
C1943 C1948 1.490 . S
C1944 H1934 0.930 . S
C1944 C1943 1.400 . S
C1944 C1947 1.386 . S
H1945 C1961 0.930 . S
H1946 C1962 0.931 . S
C1947 H1935 0.929 . S
C1947 C1941 1.390 . S
C1947 C1944 1.386 . S
C1948 C1943 1.490 . S
C1948 C1950 1.395 . S
C1948 C1951 1.403 1_556 S
H1949 C1955 0.930 . S
C1950 H1936 0.930 . S
C1950 C1948 1.395 . S
C1950 C1953 1.403 . S
C1951 C1948 1.403 1_554 S
C1951 C1952 1.524 . S
C1951 C1955 1.400 . S
C1952 H1937 0.960 . S
C1952 H1938 0.960 . S
C1952 H1939 0.960 . S
C1952 C1951 1.524 . S
C1953 C1950 1.403 . S
C1953 C1954 1.392 1_556 S
C1953 C1957 1.495 . S
C1954 C1953 1.392 1_554 S
C1954 C1955 1.385 . S
C1954 C1956 1.478 . S
C1955 H1949 0.930 . S
C1955 C1951 1.400 . S
C1955 C1954 1.385 . S
C1956 C1954 1.478 . S
C1956 C1958 1.381 . S
C1956 C1962 1.383 . S
C1957 C1953 1.495 . S
C1957 H1963 0.959 . S
C1957 H1964 0.961 . S
C1957 H1965 0.960 . S
C1958 C1956 1.381 . S
C1958 C1959 1.394 . S
C1958 H1966 0.930 . S
C1959 C1958 1.394 . S
C1959 C1960 1.383 . S
C1959 H1967 0.929 . S
C1960 C1959 1.383 . S
C1960 C1961 1.377 . S
C1961 H1945 0.930 . S
C1961 C1960 1.377 . S
C1961 C1962 1.379 . S
C1962 H1946 0.931 . S
C1962 C1956 1.383 . S
C1962 C1961 1.379 . S
H1963 C1957 0.959 . S
H1964 C1957 0.961 . S
H1965 C1957 0.960 . S
H1966 C1958 0.930 . S
H1967 C1959 0.929 . S
H1968 C1976 0.929 . S
H1969 C1978 0.930 . S
H1970 C1980 0.930 . S
H1971 C1983 0.929 . S
H1972 C1986 0.930 . S
H1973 C1988 0.960 . S
H1974 C1988 0.960 . S
H1975 C1988 0.960 . S
C1976 H1968 0.929 . S
C1976 C1977 1.377 . S
C1976 C1978 1.384 . S
C1977 C1976 1.377 . S
C1977 C1983 1.390 . S
C1978 H1969 0.930 . S
C1978 C1976 1.384 . S
C1978 C1979 1.372 . S
C1979 C1978 1.372 . S
C1979 C1980 1.400 . S
C1979 C1984 1.490 . S
C1980 H1970 0.930 . S
C1980 C1979 1.400 . S
C1980 C1983 1.386 . S
H1981 C1997 0.930 . S
H1982 C1998 0.931 . S
C1983 H1971 0.929 . S
C1983 C1977 1.390 . S
C1983 C1980 1.386 . S
C1984 C1979 1.490 . S
C1984 C1986 1.395 . S
C1984 C1987 1.403 1_455 S
H1985 C1991 0.930 . S
C1986 H1972 0.930 . S
C1986 C1984 1.395 . S
C1986 C1989 1.403 . S
C1987 C1984 1.403 1_655 S
C1987 C1988 1.524 . S
C1987 C1991 1.400 . S
C1988 H1973 0.960 . S
C1988 H1974 0.960 . S
C1988 H1975 0.960 . S
C1988 C1987 1.524 . S
C1989 C1986 1.403 . S
C1989 C1990 1.392 1_455 S
C1989 C1993 1.495 . S
C1990 C1989 1.392 1_655 S
C1990 C1991 1.385 . S
C1990 C1992 1.478 . S
C1991 H1985 0.930 . S
C1991 C1987 1.400 . S
C1991 C1990 1.385 . S
C1992 C1990 1.478 . S
C1992 C1994 1.381 . S
C1992 C1998 1.383 . S
C1993 C1989 1.495 . S
C1993 H1999 0.959 . S
C1993 H2000 0.961 . S
C1993 H2001 0.960 . S
C1994 C1992 1.381 . S
C1994 C1995 1.394 . S
C1994 H2002 0.930 . S
C1995 C1994 1.394 . S
C1995 C1996 1.383 . S
C1995 H2003 0.929 . S
C1996 C1995 1.383 . S
C1996 C1997 1.377 . S
C1997 H1981 0.930 . S
C1997 C1996 1.377 . S
C1997 C1998 1.379 . S
C1998 H1982 0.931 . S
C1998 C1992 1.383 . S
C1998 C1997 1.379 . S
H1999 C1993 0.959 . S
H2000 C1993 0.961 . S
H2001 C1993 0.960 . S
H2002 C1994 0.930 . S
H2003 C1995 0.929 . S
H2004 C2012 0.929 . S
H2005 C2014 0.930 . S
H2006 C2016 0.930 . S
H2007 C2019 0.929 . S
H2008 C2022 0.930 . S
H2009 C2024 0.960 . S
H2010 C2024 0.960 . S
H2011 C2024 0.960 . S
C2012 H2004 0.929 . S
C2012 C2013 1.377 . S
C2012 C2014 1.384 . S
C2013 C2012 1.377 . S
C2013 C2019 1.390 . S
C2014 H2005 0.930 . S
C2014 C2012 1.384 . S
C2014 C2015 1.372 . S
C2015 C2014 1.372 . S
C2015 C2016 1.400 . S
C2015 C2020 1.490 . S
C2016 H2006 0.930 . S
C2016 C2015 1.400 . S
C2016 C2019 1.386 . S
H2017 C2033 0.930 . S
H2018 C2034 0.931 . S
C2019 H2007 0.929 . S
C2019 C2013 1.390 . S
C2019 C2016 1.386 . S
C2020 C2015 1.490 . S
C2020 C2022 1.395 1_556 S
C2020 C2023 1.403 1_545 S
H2021 C2027 0.943 . S
C2022 H2008 0.930 . S
C2022 C2020 1.395 1_554 S
C2022 C2025 1.403 . S
C2023 C2020 1.403 1_565 S
C2023 C2024 1.524 . S
C2023 C2027 1.452 . S
C2024 H2009 0.960 . S
C2024 H2010 0.960 . S
C2024 H2011 0.960 . S
C2024 C2023 1.524 . S
C2025 C2022 1.403 . S
C2025 C2026 1.392 1_545 S
C2025 C2029 1.495 . S
C2026 C2025 1.392 1_565 S
C2026 C2027 1.324 1_554 S
C2026 C2028 1.478 . S
C2027 H2021 0.943 . S
C2027 C2023 1.452 . S
C2027 C2026 1.324 1_556 S
C2028 C2026 1.478 . S
C2028 C2030 1.381 . S
C2028 C2034 1.383 . S
C2029 C2025 1.495 . S
C2029 H2035 0.959 . S
C2029 H2036 0.961 . S
C2029 H2037 0.960 . S
C2030 C2028 1.381 . S
C2030 C2031 1.394 . S
C2030 H2038 0.930 . S
C2031 C2030 1.394 . S
C2031 C2032 1.383 . S
C2031 H2039 0.929 . S
C2032 C2031 1.383 . S
C2032 C2033 1.377 . S
C2033 H2017 0.930 . S
C2033 C2032 1.377 . S
C2033 C2034 1.379 . S
C2034 H2018 0.931 . S
C2034 C2028 1.383 . S
C2034 C2033 1.379 . S
H2035 C2029 0.959 . S
H2036 C2029 0.961 . S
H2037 C2029 0.960 . S
H2038 C2030 0.930 . S
H2039 C2031 0.929 . S
H2040 C2048 0.929 . S
H2041 C2050 0.930 . S
H2042 C2052 0.930 . S
H2043 C2055 0.929 . S
H2044 C2058 0.930 . S
H2045 C2060 0.960 . S
H2046 C2060 0.960 . S
H2047 C2060 0.960 . S
C2048 H2040 0.929 . S
C2048 C2049 1.377 . S
C2048 C2050 1.384 . S
C2049 C2048 1.377 . S
C2049 C2055 1.390 . S
C2050 H2041 0.930 . S
C2050 C2048 1.384 . S
C2050 C2051 1.372 . S
C2051 C2050 1.372 . S
C2051 C2052 1.400 . S
C2051 C2056 1.490 . S
C2052 H2042 0.930 . S
C2052 C2051 1.400 . S
C2052 C2055 1.386 . S
H2053 C2069 0.930 . S
H2054 C2070 0.931 . S
C2055 H2043 0.929 . S
C2055 C2049 1.390 . S
C2055 C2052 1.386 . S
C2056 C2051 1.490 . S
C2056 C2058 1.395 . S
C2056 C2059 1.403 . S
H2057 C2063 0.930 . S
C2058 H2044 0.930 . S
C2058 C2056 1.395 . S
C2058 C2061 1.403 . S
C2059 C2056 1.403 . S
C2059 C2060 1.524 . S
C2059 C2063 1.400 . S
C2060 H2045 0.960 . S
C2060 H2046 0.960 . S
C2060 H2047 0.960 . S
C2060 C2059 1.524 . S
C2061 C2058 1.403 . S
C2061 C2062 1.392 . S
C2061 C2065 1.495 . S
C2062 C2061 1.392 . S
C2062 C2063 1.385 . S
C2062 C2064 1.478 . S
C2063 H2057 0.930 . S
C2063 C2059 1.400 . S
C2063 C2062 1.385 . S
C2064 C2062 1.478 . S
C2064 C2066 1.381 . S
C2064 C2070 1.383 . S
C2065 C2061 1.495 . S
C2065 H2071 0.959 . S
C2065 H2072 0.961 . S
C2065 H2073 0.960 . S
C2066 C2064 1.381 . S
C2066 C2067 1.394 . S
C2066 H2074 0.930 . S
C2067 C2066 1.394 . S
C2067 C2068 1.383 . S
C2067 H2075 0.929 . S
C2068 C2067 1.383 . S
C2068 C2069 1.377 . S
C2069 H2053 0.930 . S
C2069 C2068 1.377 . S
C2069 C2070 1.379 . S
C2070 H2054 0.931 . S
C2070 C2064 1.383 . S
C2070 C2069 1.379 . S
H2071 C2065 0.959 . S
H2072 C2065 0.961 . S
H2073 C2065 0.960 . S
H2074 C2066 0.930 . S
H2075 C2067 0.929 . S
H2076 C2084 0.929 . S
H2077 C2086 0.930 . S
H2078 C2088 0.930 . S
H2079 C2091 0.929 . S
H2080 C2094 0.930 . S
H2081 C2096 0.960 . S
H2082 C2096 0.960 1_455 S
H2083 C2096 0.960 . S
C2084 H2076 0.929 . S
C2084 C2085 1.377 . S
C2084 C2086 1.384 . S
C2085 C2084 1.377 . S
C2085 C2091 1.390 . S
C2086 H2077 0.930 . S
C2086 C2084 1.384 . S
C2086 C2087 1.372 . S
C2087 C2086 1.372 . S
C2087 C2088 1.400 . S
C2087 C2092 1.490 . S
C2088 H2078 0.930 . S
C2088 C2087 1.400 . S
C2088 C2091 1.386 . S
H2089 C2105 0.930 . S
H2090 C2106 0.931 . S
C2091 H2079 0.929 . S
C2091 C2085 1.390 . S
C2091 C2088 1.386 . S
C2092 C2087 1.490 . S
C2092 C2094 1.395 1_554 S
C2092 C2095 1.407 . S
H2093 C2099 0.930 . S
C2094 H2080 0.930 . S
C2094 C2092 1.395 1_556 S
C2094 C2097 1.403 . S
C2095 C2092 1.407 . S
C2095 C2096 1.522 1_455 S
C2095 C2099 1.397 1_454 S
C2096 H2081 0.960 . S
C2096 H2082 0.960 1_655 S
C2096 H2083 0.960 . S
C2096 C2095 1.522 1_655 S
C2097 C2094 1.403 . S
C2097 C2098 1.392 1_455 S
C2097 C2101 1.495 . S
C2098 C2097 1.392 1_655 S
C2098 C2099 1.385 . S
C2098 C2100 1.478 . S
C2099 H2093 0.930 . S
C2099 C2095 1.397 1_656 S
C2099 C2098 1.385 . S
C2100 C2098 1.478 . S
C2100 C2102 1.381 . S
C2100 C2106 1.383 . S
C2101 C2097 1.495 . S
C2101 H2107 0.959 . S
C2101 H2108 0.961 1_455 S
C2101 H2109 0.960 . S
C2102 C2100 1.381 . S
C2102 C2103 1.394 . S
C2102 H2110 0.930 . S
C2103 C2102 1.394 . S
C2103 C2104 1.383 . S
C2103 H2111 0.929 . S
C2104 C2103 1.383 . S
C2104 C2105 1.377 . S
C2105 H2089 0.930 . S
C2105 C2104 1.377 . S
C2105 C2106 1.379 . S
C2106 H2090 0.931 . S
C2106 C2100 1.383 . S
C2106 C2105 1.379 . S
H2107 C2101 0.959 . S
H2108 C2101 0.961 1_655 S
H2109 C2101 0.960 . S
H2110 C2102 0.930 . S
H2111 C2103 0.929 . S
H2112 C2120 0.929 . S
H2113 C2122 0.930 . S
H2114 C2124 0.930 . S
H2115 C2127 0.929 . S
H2116 C2130 0.930 . S
H2117 C2132 0.960 . S
H2118 C2132 0.960 . S
H2119 C2132 0.960 . S
C2120 H2112 0.929 . S
C2120 C2121 1.377 . S
C2120 C2122 1.384 . S
C2121 C2120 1.377 . S
C2121 C2127 1.390 . S
C2122 H2113 0.930 . S
C2122 C2120 1.384 . S
C2122 C2123 1.372 . S
C2123 C2122 1.372 . S
C2123 C2124 1.400 . S
C2123 C2128 1.490 . S
C2124 H2114 0.930 . S
C2124 C2123 1.400 . S
C2124 C2127 1.386 . S
H2125 C2141 0.930 . S
H2126 C2142 0.931 . S
C2127 H2115 0.929 . S
C2127 C2121 1.390 . S
C2127 C2124 1.386 . S
C2128 C2123 1.490 . S
C2128 C2130 1.395 . S
C2128 C2131 1.403 1_545 S
H2129 C2135 0.930 . S
C2130 H2116 0.930 . S
C2130 C2128 1.395 . S
C2130 C2133 1.403 . S
C2131 C2128 1.403 1_565 S
C2131 C2132 1.524 . S
C2131 C2135 1.400 . S
C2132 H2117 0.960 . S
C2132 H2118 0.960 . S
C2132 H2119 0.960 . S
C2132 C2131 1.524 . S
C2133 C2130 1.403 . S
C2133 C2134 1.392 1_545 S
C2133 C2137 1.495 . S
C2134 C2133 1.392 1_565 S
C2134 C2135 1.385 . S
C2134 C2136 1.478 . S
C2135 H2129 0.930 . S
C2135 C2131 1.400 . S
C2135 C2134 1.385 . S
C2136 C2134 1.478 . S
C2136 C2138 1.381 . S
C2136 C2142 1.383 . S
C2137 C2133 1.495 . S
C2137 H2143 0.959 . S
C2137 H2144 0.961 . S
C2137 H2145 0.960 . S
C2138 C2136 1.381 . S
C2138 C2139 1.394 . S
C2138 H2146 0.930 . S
C2139 C2138 1.394 . S
C2139 C2140 1.383 . S
C2139 H2147 0.929 . S
C2140 C2139 1.383 . S
C2140 C2141 1.377 . S
C2141 H2125 0.930 . S
C2141 C2140 1.377 . S
C2141 C2142 1.379 . S
C2142 H2126 0.931 . S
C2142 C2136 1.383 . S
C2142 C2141 1.379 . S
H2143 C2137 0.959 . S
H2144 C2137 0.961 . S
H2145 C2137 0.960 . S
H2146 C2138 0.930 . S
H2147 C2139 0.929 . S
H2148 C2156 0.929 . S
H2149 C2158 0.930 . S
H2150 C2160 0.944 . S
H2151 C2163 0.929 . S
H2152 C2166 0.930 . S
H2153 C2168 0.960 . S
H2154 C2168 0.960 . S
H2155 C2168 0.960 . S
C2156 H2148 0.929 . S
C2156 C2157 1.377 . S
C2156 C2158 1.384 . S
C2157 C2156 1.377 . S
C2157 C2163 1.390 . S
C2158 H2149 0.930 . S
C2158 C2156 1.384 . S
C2158 C2159 1.372 1_565 S
C2159 C2158 1.372 1_545 S
C2159 C2160 1.407 . S
C2159 C2164 1.490 . S
C2160 H2150 0.944 . S
C2160 C2159 1.407 . S
C2160 C2163 1.365 1_545 S
H2161 C2177 0.930 . S
H2162 C2178 0.931 . S
C2163 H2151 0.929 . S
C2163 C2157 1.390 . S
C2163 C2160 1.365 1_565 S
C2164 C2159 1.490 . S
C2164 C2166 1.395 . S
C2164 C2167 1.403 . S
H2165 C2171 0.930 . S
C2166 H2152 0.930 . S
C2166 C2164 1.395 . S
C2166 C2169 1.403 . S
C2167 C2164 1.403 . S
C2167 C2168 1.524 . S
C2167 C2171 1.400 . S
C2168 H2153 0.960 . S
C2168 H2154 0.960 . S
C2168 H2155 0.960 . S
C2168 C2167 1.524 . S
C2169 C2166 1.403 . S
C2169 C2170 1.392 . S
C2169 C2173 1.495 . S
C2170 C2169 1.392 . S
C2170 C2171 1.385 . S
C2170 C2172 1.478 . S
C2171 H2165 0.930 . S
C2171 C2167 1.400 . S
C2171 C2170 1.385 . S
C2172 C2170 1.478 . S
C2172 C2174 1.381 . S
C2172 C2178 1.383 . S
C2173 C2169 1.495 . S
C2173 H2179 0.959 . S
C2173 H2180 0.961 . S
C2173 H2181 0.960 . S
C2174 C2172 1.381 . S
C2174 C2175 1.394 . S
C2174 H2182 0.930 . S
C2175 C2174 1.394 . S
C2175 C2176 1.383 . S
C2175 H2183 0.929 . S
C2176 C2175 1.383 . S
C2176 C2177 1.377 . S
C2177 H2161 0.930 . S
C2177 C2176 1.377 . S
C2177 C2178 1.379 . S
C2178 H2162 0.931 . S
C2178 C2172 1.383 . S
C2178 C2177 1.379 . S
H2179 C2173 0.959 . S
H2180 C2173 0.961 . S
H2181 C2173 0.960 . S
H2182 C2174 0.930 . S
H2183 C2175 0.929 . S
H2184 C2192 0.929 . S
H2185 C2194 0.930 . S
H2186 C2196 0.930 . S
H2187 C2199 0.929 . S
H2188 C2202 0.930 . S
H2189 C2204 0.960 . S
H2190 C2204 0.960 . S
H2191 C2204 0.960 . S
C2192 H2184 0.929 . S
C2192 C2193 1.377 . S
C2192 C2194 1.384 . S
C2193 C2192 1.377 . S
C2193 C2199 1.390 . S
C2194 H2185 0.930 . S
C2194 C2192 1.384 . S
C2194 C2195 1.372 . S
C2195 C2194 1.372 . S
C2195 C2196 1.400 . S
C2195 C2200 1.490 . S
C2196 H2186 0.930 . S
C2196 C2195 1.400 . S
C2196 C2199 1.386 . S
H2197 C2213 0.930 . S
H2198 C2214 0.931 . S
C2199 H2187 0.929 . S
C2199 C2193 1.390 . S
C2199 C2196 1.386 . S
C2200 C2195 1.490 . S
C2200 C2202 1.395 . S
C2200 C2203 1.403 . S
H2201 C2207 0.930 . S
C2202 H2188 0.930 . S
C2202 C2200 1.395 . S
C2202 C2205 1.403 . S
C2203 C2200 1.403 . S
C2203 C2204 1.524 . S
C2203 C2207 1.400 . S
C2204 H2189 0.960 . S
C2204 H2190 0.960 . S
C2204 H2191 0.960 . S
C2204 C2203 1.524 . S
C2205 C2202 1.403 . S
C2205 C2206 1.392 . S
C2205 C2209 1.495 . S
C2206 C2205 1.392 . S
C2206 C2207 1.385 . S
C2206 C2208 1.478 . S
C2207 H2201 0.930 . S
C2207 C2203 1.400 . S
C2207 C2206 1.385 . S
C2208 C2206 1.478 . S
C2208 C2210 1.381 . S
C2208 C2214 1.383 . S
C2209 C2205 1.495 . S
C2209 H2215 0.959 . S
C2209 H2216 0.961 . S
C2209 H2217 0.960 . S
C2210 C2208 1.381 . S
C2210 C2211 1.394 1_455 S
C2210 H2218 0.930 . S
C2211 C2210 1.394 1_655 S
C2211 C2212 1.383 . S
C2211 H2219 0.929 . S
C2212 C2211 1.383 . S
C2212 C2213 1.377 . S
C2213 H2197 0.930 . S
C2213 C2212 1.377 . S
C2213 C2214 1.379 1_655 S
C2214 H2198 0.931 . S
C2214 C2208 1.383 . S
C2214 C2213 1.379 1_455 S
H2215 C2209 0.959 . S
H2216 C2209 0.961 . S
H2217 C2209 0.960 . S
H2218 C2210 0.930 . S
H2219 C2211 0.929 . S
H2220 C2228 0.929 . S
H2221 C2230 0.930 . S
H2222 C2232 0.930 . S
H2223 C2235 0.929 . S
H2224 C2238 0.930 . S
H2225 C2240 0.960 . S
H2226 C2240 0.960 . S
H2227 C2240 0.960 . S
C2228 H2220 0.929 . S
C2228 C2229 1.377 . S
C2228 C2230 1.384 1_565 S
C2229 C2228 1.377 . S
C2229 C2235 1.390 . S
C2230 H2221 0.930 . S
C2230 C2228 1.384 1_545 S
C2230 C2231 1.372 . S
C2231 C2230 1.372 . S
C2231 C2232 1.400 . S
C2231 C2236 1.490 . S
C2232 H2222 0.930 . S
C2232 C2231 1.400 . S
C2232 C2235 1.386 1_545 S
H2233 C2249 0.930 . S
H2234 C2250 0.931 1_655 S
C2235 H2223 0.929 . S
C2235 C2229 1.390 . S
C2235 C2232 1.386 1_565 S
C2236 C2231 1.490 . S
C2236 C2238 1.395 . S
C2236 C2239 1.403 . S
H2237 C2243 0.930 . S
C2238 H2224 0.930 . S
C2238 C2236 1.395 . S
C2238 C2241 1.403 . S
C2239 C2236 1.403 . S
C2239 C2240 1.524 . S
C2239 C2243 1.400 . S
C2240 H2225 0.960 . S
C2240 H2226 0.960 . S
C2240 H2227 0.960 . S
C2240 C2239 1.524 . S
C2241 C2238 1.403 . S
C2241 C2242 1.392 . S
C2241 C2245 1.495 . S
C2242 C2241 1.392 . S
C2242 C2243 1.385 . S
C2242 C2244 1.478 . S
C2243 H2237 0.930 . S
C2243 C2239 1.400 . S
C2243 C2242 1.385 . S
C2244 C2242 1.478 . S
C2244 C2246 1.381 1_655 S
C2244 C2250 1.383 1_655 S
C2245 C2241 1.495 . S
C2245 H2251 0.959 . S
C2245 H2252 0.961 . S
C2245 H2253 0.960 . S
C2246 C2244 1.381 1_455 S
C2246 C2247 1.394 . S
C2246 H2254 0.930 . S
C2247 C2246 1.394 . S
C2247 C2248 1.383 . S
C2247 H2255 0.929 . S
C2248 C2247 1.383 . S
C2248 C2249 1.377 . S
C2249 H2233 0.930 . S
C2249 C2248 1.377 . S
C2249 C2250 1.379 . S
C2250 H2234 0.931 1_455 S
C2250 C2244 1.383 1_455 S
C2250 C2249 1.379 . S
H2251 C2245 0.959 . S
H2252 C2245 0.961 . S
H2253 C2245 0.960 . S
H2254 C2246 0.930 . S
H2255 C2247 0.929 . S
H2256 C2264 0.929 . S
H2257 C2266 0.930 . S
H2258 C2268 0.930 1_565 S
H2259 C2271 0.929 . S
H2260 C2274 0.930 . S
H2261 C2276 0.960 . S
H2262 C2276 0.960 1_545 S
H2263 C2276 0.934 1_545 S
C2264 H2256 0.929 . S
C2264 C2265 1.377 . S
C2264 C2266 1.384 . S
C2265 C2264 1.377 . S
C2265 C2271 1.390 . S
C2266 H2257 0.930 . S
C2266 C2264 1.384 . S
C2266 C2267 1.372 1_545 S
C2267 C2266 1.372 1_565 S
C2267 C2268 1.400 1_565 S
C2267 C2272 1.490 . S
C2268 H2258 0.930 1_545 S
C2268 C2267 1.400 1_545 S
C2268 C2271 1.386 . S
H2269 C2285 0.930 . S
H2270 C2286 0.931 . S
C2271 H2259 0.929 . S
C2271 C2265 1.390 . S
C2271 C2268 1.386 . S
C2272 C2267 1.490 . S
C2272 C2274 1.395 . S
C2272 C2275 1.403 . S
H2273 C2279 0.930 . S
C2274 H2260 0.930 . S
C2274 C2272 1.395 . S
C2274 C2277 1.403 . S
C2275 C2272 1.403 . S
C2275 C2276 1.524 . S
C2275 C2279 1.400 . S
C2276 H2261 0.960 . S
C2276 H2262 0.960 1_565 S
C2276 H2263 0.934 1_565 S
C2276 C2275 1.524 . S
C2277 C2274 1.403 . S
C2277 C2278 1.392 . S
C2277 C2281 1.495 . S
C2278 C2277 1.392 . S
C2278 C2279 1.385 . S
C2278 C2280 1.478 . S
C2279 H2273 0.930 . S
C2279 C2275 1.400 . S
C2279 C2278 1.385 . S
C2280 C2278 1.478 . S
C2280 C2282 1.381 . S
C2280 C2286 1.383 . S
C2281 C2277 1.495 . S
C2281 H2287 0.959 . S
C2281 H2288 0.961 . S
C2281 H2289 0.960 . S
C2282 C2280 1.381 . S
C2282 C2283 1.394 . S
C2282 H2290 0.930 . S
C2283 C2282 1.394 . S
C2283 C2284 1.383 . S
C2283 H2291 0.929 . S
C2284 C2283 1.383 . S
C2284 C2285 1.377 . S
C2285 H2269 0.930 . S
C2285 C2284 1.377 . S
C2285 C2286 1.379 . S
C2286 H2270 0.931 . S
C2286 C2280 1.383 . S
C2286 C2285 1.379 . S
H2287 C2281 0.959 . S
H2288 C2281 0.961 . S
H2289 C2281 0.960 . S
H2290 C2282 0.930 . S
H2291 C2283 0.929 . S
H2292 C2300 0.929 . S
H2293 C2302 0.930 . S
H2294 C2304 0.930 . S
H2295 C2307 0.929 . S
H2296 C2310 0.930 . S
H2297 C2312 0.960 . S
H2298 C2312 0.960 . S
H2299 C2312 0.960 . S
C2300 H2292 0.929 . S
C2300 C2301 1.377 . S
C2300 C2302 1.384 . S
C2301 C2300 1.377 . S
C2301 C2307 1.390 . S
C2302 H2293 0.930 . S
C2302 C2300 1.384 . S
C2302 C2303 1.372 . S
C2303 C2302 1.372 . S
C2303 C2304 1.400 . S
C2303 C2308 1.490 . S
C2304 H2294 0.930 . S
C2304 C2303 1.400 . S
C2304 C2307 1.386 . S
H2305 C2321 0.930 . S
H2306 C2322 0.931 . S
C2307 H2295 0.929 . S
C2307 C2301 1.390 . S
C2307 C2304 1.386 . S
C2308 C2303 1.490 . S
C2308 C2310 1.395 . S
C2308 C2311 1.403 . S
H2309 C2315 0.930 . S
C2310 H2296 0.930 . S
C2310 C2308 1.395 . S
C2310 C2313 1.403 . S
C2311 C2308 1.403 . S
C2311 C2312 1.524 . S
C2311 C2315 1.400 . S
C2312 H2297 0.960 . S
C2312 H2298 0.960 . S
C2312 H2299 0.960 . S
C2312 C2311 1.524 . S
C2313 C2310 1.403 . S
C2313 C2314 1.392 . S
C2313 C2317 1.495 . S
C2314 C2313 1.392 . S
C2314 C2315 1.385 . S
C2314 C2316 1.478 . S
C2315 H2309 0.930 . S
C2315 C2311 1.400 . S
C2315 C2314 1.385 . S
C2316 C2314 1.478 . S
C2316 C2318 1.381 . S
C2316 C2322 1.383 . S
C2317 C2313 1.495 . S
C2317 H2323 0.959 . S
C2317 H2324 0.961 . S
C2317 H2325 0.960 . S
C2318 C2316 1.381 . S
C2318 C2319 1.394 1_655 S
C2318 H2326 0.930 . S
C2319 C2318 1.394 1_455 S
C2319 C2320 1.383 . S
C2319 H2327 0.929 . S
C2320 C2319 1.383 . S
C2320 C2321 1.377 . S
C2321 H2305 0.930 . S
C2321 C2320 1.377 . S
C2321 C2322 1.379 1_455 S
C2322 H2306 0.931 . S
C2322 C2316 1.383 . S
C2322 C2321 1.379 1_655 S
H2323 C2317 0.959 . S
H2324 C2317 0.961 . S
H2325 C2317 0.960 . S
H2326 C2318 0.930 . S
H2327 C2319 0.929 . S
H2328 C2336 0.929 . S
H2329 C2338 0.930 . S
H2330 C2340 0.930 1_455 S
H2331 C2343 0.929 . S
H2332 C2346 0.930 . S
H2333 C2348 0.960 . S
H2334 C2348 0.960 1_655 S
H2335 C2348 0.960 1_655 S
C2336 H2328 0.929 . S
C2336 C2337 1.377 . S
C2336 C2338 1.384 . S
C2337 C2336 1.377 . S
C2337 C2343 1.390 . S
C2338 H2329 0.930 . S
C2338 C2336 1.384 . S
C2338 C2339 1.372 1_655 S
C2339 C2338 1.372 1_455 S
C2339 C2340 1.400 1_455 S
C2339 C2344 1.490 . S
C2340 H2330 0.930 1_655 S
C2340 C2339 1.400 1_655 S
C2340 C2343 1.386 . S
H2341 C2357 0.930 . S
H2342 C2358 0.931 . S
C2343 H2331 0.929 . S
C2343 C2337 1.390 . S
C2343 C2340 1.386 . S
C2344 C2339 1.490 . S
C2344 C2346 1.395 . S
C2344 C2347 1.403 . S
H2345 C2351 0.930 . S
C2346 H2332 0.930 . S
C2346 C2344 1.395 . S
C2346 C2349 1.403 . S
C2347 C2344 1.403 . S
C2347 C2348 1.524 . S
C2347 C2351 1.400 . S
C2348 H2333 0.960 . S
C2348 H2334 0.960 1_455 S
C2348 H2335 0.960 1_455 S
C2348 C2347 1.524 . S
C2349 C2346 1.403 . S
C2349 C2350 1.392 . S
C2349 C2353 1.495 . S
C2350 C2349 1.392 . S
C2350 C2351 1.385 . S
C2350 C2352 1.478 . S
C2351 H2345 0.930 . S
C2351 C2347 1.400 . S
C2351 C2350 1.385 . S
C2352 C2350 1.478 . S
C2352 C2354 1.381 . S
C2352 C2358 1.383 . S
C2353 C2349 1.495 . S
C2353 H2359 0.959 . S
C2353 H2360 0.961 . S
C2353 H2361 0.960 . S
C2354 C2352 1.381 . S
C2354 C2355 1.394 1_565 S
C2354 H2362 0.930 . S
C2355 C2354 1.394 1_545 S
C2355 C2356 1.383 . S
C2355 H2363 0.929 . S
C2356 C2355 1.383 . S
C2356 C2357 1.377 . S
C2357 H2341 0.930 . S
C2357 C2356 1.377 . S
C2357 C2358 1.379 1_545 S
C2358 H2342 0.931 . S
C2358 C2352 1.383 . S
C2358 C2357 1.379 1_565 S
H2359 C2353 0.959 . S
H2360 C2353 0.961 . S
H2361 C2353 0.960 . S
H2362 C2354 0.930 . S
H2363 C2355 0.929 . S
H2364 C2372 0.929 . S
H2365 C2374 0.930 . S
H2366 C2376 0.930 . S
H2367 C2379 0.929 . S
H2368 C2382 0.930 . S
H2369 C2384 0.960 . S
H2370 C2384 0.960 . S
H2371 C2384 0.960 . S
C2372 H2364 0.929 . S
C2372 C2373 1.377 . S
C2372 C2374 1.384 . S
C2373 C2372 1.377 . S
C2373 C2379 1.390 . S
C2374 H2365 0.930 . S
C2374 C2372 1.384 . S
C2374 C2375 1.372 . S
C2375 C2374 1.372 . S
C2375 C2376 1.400 . S
C2375 C2380 1.490 . S
C2376 H2366 0.930 . S
C2376 C2375 1.400 . S
C2376 C2379 1.386 . S
H2377 C2393 0.930 . S
H2378 C2394 0.931 . S
C2379 H2367 0.929 . S
C2379 C2373 1.390 . S
C2379 C2376 1.386 . S
C2380 C2375 1.490 . S
C2380 C2382 1.395 . S
C2380 C2383 1.403 . S
H2381 C2387 0.930 . S
C2382 H2368 0.930 . S
C2382 C2380 1.395 . S
C2382 C2385 1.403 . S
C2383 C2380 1.403 . S
C2383 C2384 1.524 . S
C2383 C2387 1.400 . S
C2384 H2369 0.960 . S
C2384 H2370 0.960 . S
C2384 H2371 0.960 . S
C2384 C2383 1.524 . S
C2385 C2382 1.403 . S
C2385 C2386 1.392 . S
C2385 C2389 1.495 1_655 S
C2386 C2385 1.392 . S
C2386 C2387 1.385 . S
C2386 C2388 1.478 1_655 S
C2387 H2381 0.930 . S
C2387 C2383 1.400 . S
C2387 C2386 1.385 . S
C2388 C2386 1.478 1_455 S
C2388 C2390 1.381 . S
C2388 C2394 1.383 . S
C2389 C2385 1.495 1_455 S
C2389 H2395 0.959 1_455 S
C2389 H2396 0.961 . S
C2389 H2397 0.960 . S
C2390 C2388 1.381 . S
C2390 C2391 1.394 . S
C2390 H2398 0.930 . S
C2391 C2390 1.394 . S
C2391 C2392 1.383 . S
C2391 H2399 0.929 . S
C2392 C2391 1.383 . S
C2392 C2393 1.377 . S
C2393 H2377 0.930 . S
C2393 C2392 1.377 . S
C2393 C2394 1.379 . S
C2394 H2378 0.931 . S
C2394 C2388 1.383 . S
C2394 C2393 1.379 . S
H2395 C2389 0.959 1_655 S
H2396 C2389 0.961 . S
H2397 C2389 0.960 . S
H2398 C2390 0.930 . S
H2399 C2391 0.929 . S
H2400 C2408 0.929 . S
H2401 C2410 0.930 . S
H2402 C2412 0.932 1_565 S
H2403 C2415 0.929 . S
H2404 C2418 0.930 . S
H2405 C2420 0.960 . S
H2406 C2420 0.960 . S
H2407 C2420 0.960 . S
C2408 H2400 0.929 . S
C2408 C2409 1.377 . S
C2408 C2410 1.384 . S
C2409 C2408 1.377 . S
C2409 C2415 1.390 . S
C2410 H2401 0.930 . S
C2410 C2408 1.384 . S
C2410 C2411 1.372 1_545 S
C2411 C2410 1.372 1_565 S
C2411 C2412 1.399 1_565 S
C2411 C2416 1.490 . S
C2412 H2402 0.932 1_545 S
C2412 C2411 1.399 1_545 S
C2412 C2415 1.384 . S
H2413 C2429 0.930 . S
H2414 C2430 0.931 . S
C2415 H2403 0.929 . S
C2415 C2409 1.390 . S
C2415 C2412 1.384 . S
C2416 C2411 1.490 . S
C2416 C2418 1.395 . S
C2416 C2419 1.403 . S
H2417 C2423 0.930 . S
C2418 H2404 0.930 . S
C2418 C2416 1.395 . S
C2418 C2421 1.403 . S
C2419 C2416 1.403 . S
C2419 C2420 1.524 . S
C2419 C2423 1.400 . S
C2420 H2405 0.960 . S
C2420 H2406 0.960 . S
C2420 H2407 0.960 . S
C2420 C2419 1.524 . S
C2421 C2418 1.403 . S
C2421 C2422 1.392 . S
C2421 C2425 1.495 . S
C2422 C2421 1.392 . S
C2422 C2423 1.385 . S
C2422 C2424 1.478 . S
C2423 H2417 0.930 . S
C2423 C2419 1.400 . S
C2423 C2422 1.385 . S
C2424 C2422 1.478 . S
C2424 C2426 1.381 . S
C2424 C2430 1.383 . S
C2425 C2421 1.495 . S
C2425 H2431 0.959 . S
C2425 H2432 0.961 . S
C2425 H2433 0.960 . S
C2426 C2424 1.381 . S
C2426 C2427 1.394 1_455 S
C2426 H2434 0.930 . S
C2427 C2426 1.394 1_655 S
C2427 C2428 1.383 . S
C2427 H2435 0.929 . S
C2428 C2427 1.383 . S
C2428 C2429 1.377 . S
C2429 H2413 0.930 . S
C2429 C2428 1.377 . S
C2429 C2430 1.379 1_655 S
C2430 H2414 0.931 . S
C2430 C2424 1.383 . S
C2430 C2429 1.379 1_455 S
H2431 C2425 0.959 . S
H2432 C2425 0.961 . S
H2433 C2425 0.960 . S
H2434 C2426 0.930 . S
H2435 C2427 0.929 . S
H2436 C2444 0.929 . S
H2437 C2446 0.930 . S
H2438 C2448 0.930 . S
H2439 C2451 0.929 . S
H2440 C2454 0.930 . S
H2441 C2456 0.960 . S
H2442 C2456 0.960 . S
H2443 C2456 0.960 . S
C2444 H2436 0.929 . S
C2444 C2445 1.377 . S
C2444 C2446 1.384 . S
C2445 C2444 1.377 . S
C2445 C2451 1.390 . S
C2446 H2437 0.930 . S
C2446 C2444 1.384 . S
C2446 C2447 1.372 . S
C2447 C2446 1.372 . S
C2447 C2448 1.400 . S
C2447 C2452 1.490 . S
C2448 H2438 0.930 . S
C2448 C2447 1.400 . S
C2448 C2451 1.386 . S
H2449 C2465 0.930 . S
H2450 C2466 0.931 . S
C2451 H2439 0.929 . S
C2451 C2445 1.390 . S
C2451 C2448 1.386 . S
C2452 C2447 1.490 . S
C2452 C2454 1.395 . S
C2452 C2455 1.403 . S
H2453 C2459 0.930 . S
C2454 H2440 0.930 . S
C2454 C2452 1.395 . S
C2454 C2457 1.403 . S
C2455 C2452 1.403 . S
C2455 C2456 1.524 . S
C2455 C2459 1.400 . S
C2456 H2441 0.960 . S
C2456 H2442 0.960 . S
C2456 H2443 0.960 . S
C2456 C2455 1.524 . S
C2457 C2454 1.403 . S
C2457 C2458 1.392 . S
C2457 C2461 1.495 . S
C2458 C2457 1.392 . S
C2458 C2459 1.385 . S
C2458 C2460 1.478 . S
C2459 H2453 0.930 . S
C2459 C2455 1.400 . S
C2459 C2458 1.385 . S
C2460 C2458 1.478 . S
C2460 C2462 1.381 . S
C2460 C2466 1.383 . S
C2461 C2457 1.495 . S
C2461 H2467 0.959 . S
C2461 H2468 0.961 . S
C2461 H2469 0.960 . S
C2462 C2460 1.381 . S
C2462 C2463 1.394 1_545 S
C2462 H2470 0.930 . S
C2463 C2462 1.394 1_565 S
C2463 C2464 1.383 . S
C2463 H2471 0.929 . S
C2464 C2463 1.383 . S
C2464 C2465 1.377 . S
C2465 H2449 0.930 . S
C2465 C2464 1.377 . S
C2465 C2466 1.379 1_565 S
C2466 H2450 0.931 . S
C2466 C2460 1.383 . S
C2466 C2465 1.379 1_545 S
H2467 C2461 0.959 . S
H2468 C2461 0.961 . S
H2469 C2461 0.960 . S
H2470 C2462 0.930 . S
H2471 C2463 0.929 . S
H2472 C2480 0.929 . S
H2473 C2482 0.930 . S
H2474 C2484 0.930 . S
H2475 C2487 0.929 . S
H2476 C2490 0.930 . S
H2477 C2492 0.960 . S
H2478 C2492 0.960 . S
H2479 C2492 0.960 . S
C2480 H2472 0.929 . S
C2480 C2481 1.377 . S
C2480 C2482 1.384 . S
C2481 C2480 1.377 . S
C2481 C2487 1.390 . S
C2482 H2473 0.930 . S
C2482 C2480 1.384 . S
C2482 C2483 1.372 . S
C2483 C2482 1.372 . S
C2483 C2484 1.400 . S
C2483 C2488 1.490 . S
C2484 H2474 0.930 . S
C2484 C2483 1.400 . S
C2484 C2487 1.386 . S
H2485 C2501 0.930 . S
H2486 C2502 0.931 . S
C2487 H2475 0.929 . S
C2487 C2481 1.390 . S
C2487 C2484 1.386 . S
C2488 C2483 1.490 . S
C2488 C2490 1.395 . S
C2488 C2491 1.403 . S
H2489 C2495 0.930 . S
C2490 H2476 0.930 . S
C2490 C2488 1.395 . S
C2490 C2493 1.403 . S
C2491 C2488 1.403 . S
C2491 C2492 1.524 . S
C2491 C2495 1.400 . S
C2492 H2477 0.960 . S
C2492 H2478 0.960 . S
C2492 H2479 0.960 . S
C2492 C2491 1.524 . S
C2493 C2490 1.403 . S
C2493 C2494 1.392 . S
C2493 C2497 1.495 . S
C2494 C2493 1.392 . S
C2494 C2495 1.385 . S
C2494 C2496 1.478 . S
C2495 H2489 0.930 . S
C2495 C2491 1.400 . S
C2495 C2494 1.385 . S
C2496 C2494 1.478 . S
C2496 C2498 1.381 1_455 S
C2496 C2502 1.383 1_455 S
C2497 C2493 1.495 . S
C2497 H2503 0.959 . S
C2497 H2504 0.961 . S
C2497 H2505 0.960 . S
C2498 C2496 1.381 1_655 S
C2498 C2499 1.394 . S
C2498 H2506 0.930 1_655 S
C2499 C2498 1.394 . S
C2499 C2500 1.383 . S
C2499 H2507 0.929 . S
C2500 C2499 1.383 . S
C2500 C2501 1.377 . S
C2501 H2485 0.930 . S
C2501 C2500 1.377 . S
C2501 C2502 1.379 . S
C2502 H2486 0.931 . S
C2502 C2496 1.383 1_655 S
C2502 C2501 1.379 . S
H2503 C2497 0.959 . S
H2504 C2497 0.961 . S
H2505 C2497 0.960 . S
H2506 C2498 0.930 1_455 S
H2507 C2499 0.929 . S
H2508 C2516 0.929 . S
H2509 C2518 0.930 . S
H2510 C2520 0.930 . S
H2511 C2523 0.929 . S
H2512 C2526 0.930 . S
H2513 C2528 0.960 . S
H2514 C2528 0.960 . S
H2515 C2528 0.960 . S
C2516 H2508 0.929 . S
C2516 C2517 1.377 . S
C2516 C2518 1.384 1_455 S
C2517 C2516 1.377 . S
C2517 C2523 1.390 . S
C2518 H2509 0.930 . S
C2518 C2516 1.384 1_655 S
C2518 C2519 1.372 . S
C2519 C2518 1.372 . S
C2519 C2520 1.400 . S
C2519 C2524 1.490 . S
C2520 H2510 0.930 . S
C2520 C2519 1.400 . S
C2520 C2523 1.386 1_655 S
H2521 C2537 0.930 . S
H2522 C2538 0.931 1_545 S
C2523 H2511 0.929 . S
C2523 C2517 1.390 . S
C2523 C2520 1.386 1_455 S
C2524 C2519 1.490 . S
C2524 C2526 1.395 . S
C2524 C2527 1.403 . S
H2525 C2531 0.930 . S
C2526 H2512 0.930 . S
C2526 C2524 1.395 . S
C2526 C2529 1.403 . S
C2527 C2524 1.403 . S
C2527 C2528 1.524 . S
C2527 C2531 1.400 . S
C2528 H2513 0.960 . S
C2528 H2514 0.960 . S
C2528 H2515 0.960 . S
C2528 C2527 1.524 . S
C2529 C2526 1.403 . S
C2529 C2530 1.392 . S
C2529 C2533 1.495 . S
C2530 C2529 1.392 . S
C2530 C2531 1.385 . S
C2530 C2532 1.478 . S
C2531 H2525 0.930 . S
C2531 C2527 1.400 . S
C2531 C2530 1.385 . S
C2532 C2530 1.478 . S
C2532 C2534 1.381 1_545 S
C2532 C2538 1.383 1_545 S
C2533 C2529 1.495 . S
C2533 H2539 0.959 . S
C2533 H2540 0.961 . S
C2533 H2541 0.960 . S
C2534 C2532 1.381 1_565 S
C2534 C2535 1.394 . S
C2534 H2542 0.922 1_565 S
C2535 C2534 1.394 . S
C2535 C2536 1.383 . S
C2535 H2543 0.929 . S
C2536 C2535 1.383 . S
C2536 C2537 1.377 . S
C2537 H2521 0.930 . S
C2537 C2536 1.377 . S
C2537 C2538 1.379 . S
C2538 H2522 0.931 1_565 S
C2538 C2532 1.383 1_565 S
C2538 C2537 1.379 . S
H2539 C2533 0.959 . S
H2540 C2533 0.961 . S
H2541 C2533 0.960 . S
H2542 C2534 0.922 1_545 S
H2543 C2535 0.929 . S
H2544 C2552 0.929 . S
H2545 C2554 0.930 . S
H2546 C2556 0.930 . S
H2547 C2559 0.929 . S
H2548 C2562 0.930 . S
H2549 C2564 0.960 . S
H2550 C2564 0.960 . S
H2551 C2564 0.960 . S
C2552 H2544 0.929 . S
C2552 C2553 1.377 . S
C2552 C2554 1.384 . S
C2553 C2552 1.377 . S
C2553 C2559 1.390 . S
C2554 H2545 0.930 . S
C2554 C2552 1.384 . S
C2554 C2555 1.372 . S
C2555 C2554 1.372 . S
C2555 C2556 1.400 . S
C2555 C2560 1.490 . S
C2556 H2546 0.930 . S
C2556 C2555 1.400 . S
C2556 C2559 1.386 . S
H2557 C2573 0.930 . S
H2558 C2574 0.931 . S
C2559 H2547 0.929 . S
C2559 C2553 1.390 . S
C2559 C2556 1.386 . S
C2560 C2555 1.490 . S
C2560 C2562 1.395 . S
C2560 C2563 1.403 . S
H2561 C2567 0.930 . S
C2562 H2548 0.930 . S
C2562 C2560 1.395 . S
C2562 C2565 1.403 . S
C2563 C2560 1.403 . S
C2563 C2564 1.524 . S
C2563 C2567 1.400 . S
C2564 H2549 0.960 . S
C2564 H2550 0.960 . S
C2564 H2551 0.960 . S
C2564 C2563 1.524 . S
C2565 C2562 1.403 . S
C2565 C2566 1.392 . S
C2565 C2569 1.495 . S
C2566 C2565 1.392 . S
C2566 C2567 1.385 . S
C2566 C2568 1.478 . S
C2567 H2561 0.930 . S
C2567 C2563 1.400 . S
C2567 C2566 1.385 . S
C2568 C2566 1.478 . S
C2568 C2570 1.381 . S
C2568 C2574 1.383 . S
C2569 C2565 1.495 . S
C2569 H2575 0.959 . S
C2569 H2576 0.961 . S
C2569 H2577 0.960 . S
C2570 C2568 1.381 . S
C2570 C2571 1.394 1_565 S
C2570 H2578 0.930 . S
C2571 C2570 1.394 1_545 S
C2571 C2572 1.383 . S
C2571 H2579 0.929 . S
C2572 C2571 1.383 . S
C2572 C2573 1.377 . S
C2573 H2557 0.930 . S
C2573 C2572 1.377 . S
C2573 C2574 1.379 1_545 S
C2574 H2558 0.931 . S
C2574 C2568 1.383 . S
C2574 C2573 1.379 1_565 S
H2575 C2569 0.959 . S
H2576 C2569 0.961 . S
H2577 C2569 0.960 . S
H2578 C2570 0.930 . S
H2579 C2571 0.929 . S
C1077 C63 2.566 . S
C1096 C417 2.645 . S
C1113 C506 2.660 . S
C1132 C152 2.550 . S
C1149 C61 2.665 . S
C1168 C241 2.581 . S
C1185 C150 2.666 . S
C1204 C330 2.585 . S
C1221 C419 2.568 . S
C1240 C239 2.665 . S
C1257 C328 2.660 . S
C1276 C508 2.542 . S
C1293 C597 2.569 . S
C1312 C773 2.667 . S
C1329 C686 2.573 . S
C1348 C862 2.673 . S
C1365 C951 2.664 . S
C1384 C775 2.579 . S
C1401 C1040 2.665 . S
C1420 C864 2.568 . S
C1437 C595 2.660 . S
C1456 C953 2.542 . S
C1473 C1042 2.570 . S
C1492 C684 2.668 . S
C1509 C908 1.636 . S
C1528 C18 1.620 . S
C1545 C997 1.631 . S
C1564 C107 1.643 . S
C1581 C552 1.637 . S
C1600 C196 1.613 . S
C1617 C641 1.637 . S
C1636 C285 1.614 . S
C1653 C374 1.631 . S
C1672 C730 1.644 . S
C1689 C819 1.635 . S
C1708 C463 1.623 . S
C1725 C874 1.476 . S
C1744 C73 1.495 . S
C1761 C963 1.468 . S
C1780 C162 1.445 . S
C1797 C251 1.467 . S
C1816 C1052 1.467 . S
C1833 C607 1.466 . S
C1852 C340 1.461 . S
C1869 C696 1.467 . S
C1888 C429 1.460 . S
C1905 C785 1.469 . S
C1924 C518 1.484 . S
C1941 C649 0.751 . S
C1960 C204 0.762 . S
C1977 C738 0.732 . S
C1996 C293 0.713 . S
C2013 C827 0.734 . S
C2032 C382 0.725 . S
C2049 C916 0.741 . S
C2068 C471 0.758 . S
C2085 C26 0.740 . S
C2104 C1005 0.754 . S
C2121 C115 0.729 . S
C2140 C560 0.681 . S
C2157 C357 1.683 . S
C2176 C70 1.614 . S
C2193 C446 1.690 . S
C2212 C159 1.648 . S
C2229 C248 1.616 . S
C2248 C1 1.709 . S
C2265 C90 1.675 . S
C2284 C337 1.567 . S
C2301 C179 1.675 . S
C2320 C426 1.567 . S
C2337 C268 1.675 . S
C2356 C515 1.568 . S
C2373 C604 1.601 . S
C2392 C713 1.645 . S
C2409 C802 1.684 . S
C2428 C693 1.616 . S
C2445 C891 1.676 . S
C2464 C782 1.573 . S
C2481 C871 1.618 . S
C2500 C980 1.716 . S
C2517 C960 1.617 . S
C2536 C535 1.715 . S
C2553 C624 1.687 . S
C2572 C1049 1.631 . S
