# Generated by pormake.
# Topology ukb, (4)-cn, num edge types: 1
# Building blocks:
#     Node 0, Type 0, BuildingBlock: UXUYUI_clean_sbu_0, # of connection points: 4
#     Node 1, Type 0, BuildingBlock: UXUYUI_clean_sbu_0, # of connection points: 4
#     Node 2, Type 0, BuildingBlock: UXUYUI_clean_sbu_0, # of connection points: 4
#     Node 3, Type 0, BuildingBlock: UXUYUI_clean_sbu_0, # of connection points: 4
#     Node 4, Type 0, BuildingBlock: UXUYUI_clean_sbu_0, # of connection points: 4
#     Node 5, Type 0, BuildingBlock: UXUYUI_clean_sbu_0, # of connection points: 4
#     Node 6, Type 0, BuildingBlock: UXUYUI_clean_sbu_0, # of connection points: 4
#     Node 7, Type 0, BuildingBlock: UXUYUI_clean_sbu_0, # of connection points: 4
#     Node 8, Type 0, BuildingBlock: UXUYUI_clean_sbu_0, # of connection points: 4
#     Node 9, Type 0, BuildingBlock: UXUYUI_clean_sbu_0, # of connection points: 4
#     Node 10, Type 0, BuildingBlock: UXUYUI_clean_sbu_0, # of connection points: 4
#     Node 11, Type 0, BuildingBlock: UXUYUI_clean_sbu_0, # of connection points: 4
#     Node 12, Type 0, BuildingBlock: UXUYUI_clean_sbu_0, # of connection points: 4
#     Node 13, Type 0, BuildingBlock: UXUYUI_clean_sbu_0, # of connection points: 4
#     Node 14, Type 0, BuildingBlock: UXUYUI_clean_sbu_0, # of connection points: 4
#     Node 15, Type 0, BuildingBlock: UXUYUI_clean_sbu_0, # of connection points: 4
#     Edge 16, Type (0, 0), BuildingBlock: EZIPEK_clean_linker_0, # of connection points: 2
#     Edge 17, Type (0, 0), BuildingBlock: EZIPEK_clean_linker_0, # of connection points: 2
#     Edge 18, Type (0, 0), BuildingBlock: EZIPEK_clean_linker_0, # of connection points: 2
#     Edge 19, Type (0, 0), BuildingBlock: EZIPEK_clean_linker_0, # of connection points: 2
#     Edge 20, Type (0, 0), BuildingBlock: EZIPEK_clean_linker_0, # of connection points: 2
#     Edge 21, Type (0, 0), BuildingBlock: EZIPEK_clean_linker_0, # of connection points: 2
#     Edge 22, Type (0, 0), BuildingBlock: EZIPEK_clean_linker_0, # of connection points: 2
#     Edge 23, Type (0, 0), BuildingBlock: EZIPEK_clean_linker_0, # of connection points: 2
#     Edge 24, Type (0, 0), BuildingBlock: EZIPEK_clean_linker_0, # of connection points: 2
#     Edge 25, Type (0, 0), BuildingBlock: EZIPEK_clean_linker_0, # of connection points: 2
#     Edge 26, Type (0, 0), BuildingBlock: EZIPEK_clean_linker_0, # of connection points: 2
#     Edge 27, Type (0, 0), BuildingBlock: EZIPEK_clean_linker_0, # of connection points: 2
#     Edge 28, Type (0, 0), BuildingBlock: EZIPEK_clean_linker_0, # of connection points: 2
#     Edge 29, Type (0, 0), BuildingBlock: EZIPEK_clean_linker_0, # of connection points: 2
#     Edge 30, Type (0, 0), BuildingBlock: EZIPEK_clean_linker_0, # of connection points: 2
#     Edge 31, Type (0, 0), BuildingBlock: EZIPEK_clean_linker_0, # of connection points: 2
#     Edge 32, Type (0, 0), BuildingBlock: EZIPEK_clean_linker_0, # of connection points: 2
#     Edge 33, Type (0, 0), BuildingBlock: EZIPEK_clean_linker_0, # of connection points: 2
#     Edge 34, Type (0, 0), BuildingBlock: EZIPEK_clean_linker_0, # of connection points: 2
#     Edge 35, Type (0, 0), BuildingBlock: EZIPEK_clean_linker_0, # of connection points: 2
#     Edge 36, Type (0, 0), BuildingBlock: EZIPEK_clean_linker_0, # of connection points: 2
#     Edge 37, Type (0, 0), BuildingBlock: EZIPEK_clean_linker_0, # of connection points: 2
#     Edge 38, Type (0, 0), BuildingBlock: EZIPEK_clean_linker_0, # of connection points: 2
#     Edge 39, Type (0, 0), BuildingBlock: EZIPEK_clean_linker_0, # of connection points: 2
#     Edge 40, Type (0, 0), BuildingBlock: EZIPEK_clean_linker_0, # of connection points: 2
#     Edge 41, Type (0, 0), BuildingBlock: EZIPEK_clean_linker_0, # of connection points: 2
#     Edge 42, Type (0, 0), BuildingBlock: EZIPEK_clean_linker_0, # of connection points: 2
#     Edge 43, Type (0, 0), BuildingBlock: EZIPEK_clean_linker_0, # of connection points: 2
#     Edge 44, Type (0, 0), BuildingBlock: EZIPEK_clean_linker_0, # of connection points: 2
#     Edge 45, Type (0, 0), BuildingBlock: EZIPEK_clean_linker_0, # of connection points: 2
#     Edge 46, Type (0, 0), BuildingBlock: EZIPEK_clean_linker_0, # of connection points: 2
#     Edge 47, Type (0, 0), BuildingBlock: EZIPEK_clean_linker_0, # of connection points: 2
# Relax obj value: 0.234
# Max RMSD: 0.198
# Mean RMSD: 0.198
data_MOF--net-ukb--node1-UXUYUI_clean_sbu_0--edge1-EZIPEK_clean_linker_0
_symmetry_space_group_name_H-M    P1
_symmetry_Int_Tables_number       1
_symmetry_cell_setting            triclinic
loop_
_symmetry_equiv_pos_as_xyz
'x, y, z'
_cell_length_a     50.058277
_cell_length_b     50.067687
_cell_length_c     48.046921
_cell_angle_alpha  90.007567
_cell_angle_beta   90.006638
_cell_angle_gamma 90.004845
loop_
_atom_site_label
_atom_site_type_symbol
_atom_site_fract_x
_atom_site_fract_y
_atom_site_fract_z
_atom_type_partial_charge
Li0 Li 0.51549 0.21738 0.15166 0.0
Li1 Li 0.52358 0.23707 0.19784 0.0
Li2 Li 0.53804 0.18972 0.18711 0.0
Li3 Li 0.49113 0.20065 0.19405 0.0
C4 C 0.5696 0.23408 0.15348 0.0
N5 N 0.60883 0.25486 0.11926 0.0
C6 C 0.57469 0.26154 0.15327 0.0
C7 C 0.58484 0.21715 0.13666 0.0
C8 C 0.5945 0.27167 0.13573 0.0
C9 C 0.60447 0.22804 0.11939 0.0
C10 C 0.4762 0.26013 0.17894 0.0
C11 C 0.4499 0.29069 0.20642 0.0
N12 N 0.44953 0.30814 0.18473 0.0
C13 C 0.47535 0.27826 0.15683 0.0
C14 C 0.46318 0.26628 0.20386 0.0
C15 C 0.46184 0.30246 0.1602 0.0
C16 C 0.49982 0.20827 0.09567 0.0
N17 N 0.51286 0.22546 0.1129 0.0
C18 C 0.52251 0.25465 0.07483 0.0
C19 C 0.52372 0.24853 0.10312 0.0
C20 C 0.50967 0.23701 0.05658 0.0
C21 C 0.49801 0.21367 0.06719 0.0
H22 H 0.49083 0.19035 0.10403 0.0
H23 H 0.53305 0.26236 0.11732 0.0
C24 C 0.55209 0.2638 0.23871 0.0
N25 N 0.53509 0.26826 0.21713 0.0
C26 C 0.56487 0.28514 0.25181 0.0
C27 C 0.54177 0.31541 0.22083 0.0
C28 C 0.52951 0.29346 0.20823 0.0
C29 C 0.56009 0.31119 0.24245 0.0
H30 H 0.55655 0.24354 0.245 0.0
H31 H 0.51672 0.29654 0.19047 0.0
C32 C 0.51428 0.1568 0.14936 0.0
N33 N 0.529 0.1103 0.12242 0.0
C34 C 0.50206 0.13258 0.15625 0.0
C35 C 0.53369 0.1574 0.12849 0.0
C36 C 0.50986 0.10927 0.14248 0.0
C37 C 0.54093 0.13369 0.11517 0.0
C38 C 0.51088 0.20015 0.24702 0.0
C39 C 0.51352 0.17513 0.25963 0.0
C40 C 0.49807 0.22081 0.26129 0.0
C41 C 0.50261 0.171 0.28604 0.0
C42 C 0.48746 0.21591 0.28768 0.0
N43 N 0.48987 0.19129 0.29939 0.0
C44 C 0.59056 0.17093 0.1953 0.0
C45 C 0.55666 0.13868 0.20313 0.0
C46 C 0.61015 0.15294 0.20402 0.0
N47 N 0.56443 0.16356 0.1951 0.0
C48 C 0.57559 0.12006 0.21205 0.0
C49 C 0.6026 0.12734 0.21281 0.0
H50 H 0.59611 0.19106 0.1896 0.0
H51 H 0.53567 0.13363 0.2036 0.0
C52 C 0.43515 0.19777 0.20804 0.0
N53 N 0.45928 0.18525 0.20828 0.0
C54 C 0.4126 0.18494 0.21891 0.0
C55 C 0.44023 0.14663 0.22955 0.0
C56 C 0.46211 0.16015 0.2186 0.0
C57 C 0.41518 0.15904 0.2297 0.0
H58 H 0.43334 0.21756 0.19928 0.0
H59 H 0.48148 0.15061 0.21823 0.0
O60 O 0.55034 0.22381 0.17066 0.0
O61 O 0.48937 0.23636 0.17598 0.0
O62 O 0.50722 0.17979 0.16292 0.0
O63 O 0.52111 0.20447 0.221 0.0
H64 H 0.56329 0.27494 0.16625 0.0
H65 H 0.58181 0.19579 0.13712 0.0
H66 H 0.59848 0.2929 0.13521 0.0
H67 H 0.61633 0.21517 0.10619 0.0
H68 H 0.43982 0.29573 0.22563 0.0
H69 H 0.48506 0.27374 0.1373 0.0
H70 H 0.4632 0.25231 0.22099 0.0
H71 H 0.46113 0.31672 0.1433 0.0
H72 H 0.53143 0.27297 0.06723 0.0
H73 H 0.48778 0.1998 0.05357 0.0
H74 H 0.5791 0.28133 0.26832 0.0
H75 H 0.53798 0.33533 0.213 0.0
H76 H 0.48676 0.13174 0.1721 0.0
H77 H 0.5429 0.17603 0.12248 0.0
H78 H 0.50068 0.09037 0.14773 0.0
H79 H 0.55599 0.13389 0.09903 0.0
H80 H 0.52367 0.159 0.24903 0.0
H81 H 0.4965 0.24047 0.25217 0.0
H82 H 0.50427 0.15166 0.29593 0.0
H83 H 0.47737 0.23169 0.2989 0.0
H84 H 0.63087 0.15916 0.20474 0.0
H85 H 0.5692 0.10053 0.21909 0.0
H86 H 0.39341 0.19493 0.21874 0.0
H87 H 0.44275 0.12662 0.23773 0.0
Li88 Li 0.30884 0.53831 0.69192 0.0
Li89 Li 0.2953 0.49263 0.69705 0.0
Li90 Li 0.28041 0.51624 0.65669 0.0
Li91 Li 0.26064 0.52541 0.70423 0.0
C92 C 0.33927 0.51547 0.65122 0.0
N93 N 0.38263 0.53205 0.62004 0.0
C94 C 0.36442 0.50399 0.65548 0.0
C95 C 0.33625 0.53541 0.63113 0.0
C96 C 0.38607 0.51264 0.63951 0.0
C97 C 0.35837 0.54349 0.61555 0.0
C98 C 0.30456 0.51177 0.74977 0.0
C99 C 0.29952 0.49725 0.79731 0.0
N100 N 0.32628 0.4927 0.79871 0.0
C101 C 0.332 0.50698 0.75165 0.0
C102 C 0.28816 0.50699 0.77277 0.0
C103 C 0.34261 0.49738 0.77661 0.0
C104 C 0.32579 0.59016 0.7045 0.0
N105 N 0.33489 0.565 0.69966 0.0
C106 C 0.3796 0.57829 0.71046 0.0
C107 C 0.36121 0.55875 0.70248 0.0
C108 C 0.37058 0.60424 0.71595 0.0
C109 C 0.34344 0.61026 0.71269 0.0
H110 H 0.30468 0.59443 0.70272 0.0
H111 H 0.36786 0.53848 0.6994 0.0
C112 C 0.32808 0.44735 0.69515 0.0
N113 N 0.30819 0.45888 0.71019 0.0
C114 C 0.34159 0.42513 0.70551 0.0
C115 C 0.31227 0.42548 0.74551 0.0
C116 C 0.29944 0.44788 0.73444 0.0
C117 C 0.33423 0.41458 0.73139 0.0
H118 H 0.33403 0.45597 0.67552 0.0
H119 H 0.28321 0.45708 0.74574 0.0
C120 C 0.26454 0.57139 0.66018 0.0
N121 N 0.24365 0.61244 0.62846 0.0
C122 C 0.237 0.57604 0.65983 0.0
C123 C 0.28149 0.58798 0.64483 0.0
C124 C 0.22682 0.59679 0.64356 0.0
C125 C 0.27054 0.60851 0.62879 0.0
C126 C 0.25263 0.46645 0.6832 0.0
C127 C 0.26221 0.44864 0.66316 0.0
C128 C 0.23794 0.45688 0.70582 0.0
C129 C 0.25714 0.42136 0.66627 0.0
C130 C 0.23326 0.42946 0.70815 0.0
N131 N 0.2429 0.41242 0.68852 0.0
C132 C 0.28727 0.50243 0.59954 0.0
C133 C 0.24666 0.5244 0.61053 0.0
C134 C 0.28035 0.50166 0.57138 0.0
N135 N 0.27075 0.5143 0.61832 0.0
C136 C 0.23893 0.52407 0.58262 0.0
C137 C 0.25606 0.51285 0.56277 0.0
H138 H 0.30586 0.49363 0.60637 0.0
H139 H 0.23336 0.53259 0.626 0.0
C140 C 0.23411 0.5582 0.74168 0.0
N141 N 0.23025 0.53794 0.7233 0.0
C142 C 0.21224 0.57123 0.75346 0.0
C143 C 0.1829 0.54172 0.72778 0.0
C144 C 0.20538 0.52918 0.71651 0.0
C145 C 0.18636 0.5633 0.74603 0.0
H146 H 0.25418 0.56489 0.74628 0.0
H147 H 0.20302 0.51332 0.70143 0.0
O148 O 0.31796 0.50768 0.66716 0.0
O149 O 0.2938 0.52143 0.72567 0.0
O150 O 0.27486 0.55124 0.67617 0.0
O151 O 0.25796 0.49311 0.68087 0.0
H152 H 0.36735 0.48893 0.67132 0.0
H153 H 0.317 0.54447 0.62751 0.0
H154 H 0.40565 0.50402 0.64271 0.0
H155 H 0.35626 0.55888 0.5999 0.0
H156 H 0.28707 0.49333 0.81525 0.0
H157 H 0.34489 0.51039 0.73395 0.0
H158 H 0.26687 0.51065 0.77159 0.0
H159 H 0.3638 0.49354 0.77837 0.0
H160 H 0.40044 0.57308 0.71316 0.0
H161 H 0.33595 0.63012 0.71705 0.0
H162 H 0.35832 0.41694 0.69403 0.0
H163 H 0.30606 0.41759 0.76548 0.0
H164 H 0.22358 0.56357 0.67174 0.0
H165 H 0.30291 0.58525 0.64549 0.0
H166 H 0.20553 0.60046 0.64294 0.0
H167 H 0.28342 0.62141 0.61671 0.0
H168 H 0.2737 0.45581 0.64559 0.0
H169 H 0.23051 0.47047 0.72155 0.0
H170 H 0.26457 0.4073 0.65104 0.0
H171 H 0.22205 0.42172 0.72563 0.0
H172 H 0.29379 0.49257 0.55647 0.0
H173 H 0.21988 0.5325 0.57655 0.0
H174 H 0.21543 0.58799 0.76734 0.0
H175 H 0.16309 0.5354 0.72152 0.0
Li176 Li 0.96105 0.30812 0.18953 0.0
Li177 Li 0.00756 0.29599 0.19617 0.0
Li178 Li 0.98366 0.27958 0.15419 0.0
Li179 Li 0.97518 0.2607 0.20067 0.0
C180 C 0.98518 0.33687 0.14625 0.0
N181 N 0.97169 0.37589 0.10804 0.0
C182 C 0.99867 0.36133 0.14614 0.0
C183 C 0.96503 0.33221 0.12674 0.0
C184 C 0.99149 0.38083 0.12673 0.0
C185 C 0.95846 0.35217 0.10763 0.0
C186 C 0.98962 0.30262 0.24729 0.0
C187 C 0.01712 0.29543 0.28781 0.0
N188 N 0.01445 0.32166 0.29465 0.0
C189 C 0.98698 0.32946 0.25482 0.0
C190 C 0.00463 0.2854 0.264 0.0
C191 C 0.99977 0.33872 0.2788 0.0
C192 C 0.91039 0.32509 0.20623 0.0
N193 N 0.93457 0.33418 0.19752 0.0
C194 C 0.9215 0.37936 0.20621 0.0
C195 C 0.94043 0.36072 0.19725 0.0
C196 C 0.89646 0.37042 0.21542 0.0
C197 C 0.89082 0.343 0.21509 0.0
H198 H 0.90656 0.30384 0.20693 0.0
H199 H 0.96009 0.36735 0.19106 0.0
C200 C 0.06122 0.29621 0.21815 0.0
N201 N 0.03966 0.31096 0.21032 0.0
C202 C 0.08355 0.30876 0.22986 0.0
C203 C 0.06102 0.35124 0.22477 0.0
C204 C 0.03923 0.33794 0.2133 0.0
C205 C 0.08341 0.3366 0.23323 0.0
H206 H 0.06096 0.27477 0.21564 0.0
H207 H 0.02162 0.34902 0.20734 0.0
C208 C 0.92598 0.26678 0.15939 0.0
N209 N 0.87919 0.25228 0.13272 0.0
C210 C 0.91833 0.23995 0.15807 0.0
C211 C 0.90955 0.28626 0.14745 0.0
C212 C 0.89469 0.23301 0.14441 0.0
C213 C 0.88606 0.27853 0.13398 0.0
C214 C 0.01837 0.23454 0.18095 0.0
C215 C 0.01787 0.2176 0.15782 0.0
C216 C 0.02832 0.22515 0.2063 0.0
C217 C 0.02703 0.19137 0.16057 0.0
C218 C 0.03724 0.19878 0.20822 0.0
N219 N 0.03641 0.18257 0.18551 0.0
C220 C 0.00458 0.28414 0.09957 0.0
C221 C 0.97028 0.25181 0.10454 0.0
C222 C 0.00678 0.27842 0.07118 0.0
N223 N 0.98633 0.27103 0.11552 0.0
C224 C 0.97171 0.24557 0.07628 0.0
C225 C 0.99003 0.25906 0.05933 0.0
H226 H 0.01733 0.2991 0.10891 0.0
H227 H 0.95652 0.24114 0.11771 0.0
C228 C 0.95187 0.23385 0.24557 0.0
N229 N 0.96327 0.22977 0.22023 0.0
C230 C 0.93892 0.21293 0.25926 0.0
C231 C 0.95052 0.18377 0.22099 0.0
C232 C 0.96319 0.20525 0.20801 0.0
C233 C 0.93773 0.18777 0.24658 0.0
H234 H 0.95177 0.25364 0.25458 0.0
H235 H 0.97162 0.20264 0.18752 0.0
O236 O 0.99192 0.31762 0.16524 0.0
O237 O 0.97772 0.2933 0.22358 0.0
O238 O 0.9489 0.27395 0.17312 0.0
O239 O 0.00947 0.26027 0.17864 0.0
H240 H 0.01451 0.36526 0.16088 0.0
H241 H 0.9548 0.31327 0.12609 0.0
H242 H 0.0017 0.39987 0.1265 0.0
H243 H 0.9429 0.34877 0.0924 0.0
H244 H 0.02893 0.28237 0.30085 0.0
H245 H 0.97542 0.34304 0.24213 0.0
H246 H 0.00666 0.26454 0.25859 0.0
H247 H 0.99807 0.35948 0.28477 0.0
H248 H 0.92649 0.4004 0.2066 0.0
H249 H 0.87175 0.33553 0.22237 0.0
H250 H 0.10057 0.29698 0.23642 0.0
H251 H 0.0603 0.37272 0.22738 0.0
H252 H 0.93063 0.22458 0.16719 0.0
H253 H 0.91464 0.30719 0.14879 0.0
H254 H 0.88868 0.21229 0.1431 0.0
H255 H 0.87323 0.29342 0.12463 0.0
H256 H 0.01046 0.22458 0.13798 0.0
H257 H 0.02892 0.238 0.22436 0.0
H258 H 0.02666 0.17801 0.14288 0.0
H259 H 0.04482 0.19119 0.22776 0.0
H260 H 0.02123 0.28904 0.05856 0.0
H261 H 0.95869 0.23036 0.06771 0.0
H262 H 0.92895 0.21659 0.2789 0.0
H263 H 0.94956 0.16459 0.2106 0.0
Li264 Li 0.1898 0.965 0.69081 0.0
Li265 Li 0.19966 0.01096 0.6971 0.0
Li266 Li 0.21718 0.98627 0.65473 0.0
Li267 Li 0.23489 0.97864 0.70309 0.0
C268 C 0.1558 0.98689 0.65363 0.0
N269 N 0.10781 0.97146 0.63005 0.0
C270 C 0.13238 0.98692 0.66951 0.0
C271 C 0.15476 0.97894 0.62575 0.0
C272 C 0.10834 0.97905 0.65722 0.0
C273 C 0.13032 0.97125 0.61421 0.0
C274 C 0.19457 0.99499 0.74913 0.0
C275 C 0.20437 0.02455 0.78744 0.0
N276 N 0.17872 0.02214 0.79643 0.0
C277 C 0.16834 0.99265 0.75886 0.0
C278 C 0.21278 0.01091 0.76364 0.0
C279 C 0.16071 0.00658 0.78277 0.0
C280 C 0.16354 0.92791 0.72454 0.0
N281 N 0.1647 0.93664 0.69777 0.0
C282 C 0.1316 0.90471 0.6841 0.0
C283 C 0.14968 0.92499 0.67747 0.0
C284 C 0.12966 0.89595 0.71171 0.0
C285 C 0.14601 0.90751 0.73204 0.0
H286 H 0.17641 0.93668 0.74011 0.0
H287 H 0.15178 0.93124 0.6561 0.0
C288 C 0.19991 0.06721 0.7099 0.0
N289 N 0.18528 0.04428 0.70953 0.0
C290 C 0.18844 0.09106 0.7194 0.0
C291 C 0.14727 0.06714 0.72782 0.0
C292 C 0.15938 0.04399 0.718 0.0
C293 C 0.16184 0.09094 0.72858 0.0
H294 H 0.22039 0.06701 0.70277 0.0
H295 H 0.14816 0.02566 0.71745 0.0
C296 C 0.21999 0.9259 0.67212 0.0
N297 N 0.20961 0.87184 0.66867 0.0
C298 C 0.22575 0.90921 0.69464 0.0
C299 C 0.2091 0.91514 0.6478 0.0
C300 C 0.22031 0.88191 0.6925 0.0
C301 C 0.20398 0.88774 0.64648 0.0
C302 C 0.26184 0.02061 0.68271 0.0
C303 C 0.28004 0.01637 0.66109 0.0
C304 C 0.27026 0.03345 0.707 0.0
C305 C 0.30652 0.02463 0.66436 0.0
C306 C 0.2969 0.04141 0.70948 0.0
N307 N 0.31434 0.03684 0.6883 0.0
C308 C 0.21914 0.00525 0.59824 0.0
C309 C 0.2453 0.96716 0.6093 0.0
C310 C 0.22747 0.00404 0.57045 0.0
N311 N 0.22789 0.9867 0.61684 0.0
C312 C 0.2542 0.96531 0.58192 0.0
C313 C 0.24508 0.98375 0.5622 0.0
H314 H 0.20546 0.0207 0.60493 0.0
H315 H 0.25226 0.95298 0.62464 0.0
C316 C 0.2656 0.96074 0.74924 0.0
N317 N 0.26626 0.96685 0.72166 0.0
C318 C 0.28726 0.94782 0.76171 0.0
C319 C 0.31002 0.94826 0.7173 0.0
C320 C 0.28788 0.96098 0.70566 0.0
C321 C 0.30954 0.9411 0.74548 0.0
H322 H 0.24777 0.96465 0.76124 0.0
H323 H 0.28741 0.96499 0.68357 0.0
O324 O 0.17952 0.99492 0.66511 0.0
O325 O 0.20233 0.98184 0.72549 0.0
O326 O 0.22439 0.95277 0.67413 0.0
O327 O 0.23588 0.01244 0.67999 0.0
H328 H 0.13278 0.99228 0.69125 0.0
H329 H 0.17262 0.97848 0.61317 0.0
H330 H 0.09013 0.9788 0.66935 0.0
H331 H 0.12927 0.96503 0.59268 0.0
H332 H 0.21824 0.03705 0.79878 0.0
H333 H 0.15387 0.98062 0.74779 0.0
H334 H 0.23319 0.01272 0.75662 0.0
H335 H 0.14043 0.00512 0.79039 0.0
H336 H 0.11946 0.8958 0.66792 0.0
H337 H 0.14512 0.90085 0.75347 0.0
H338 H 0.20009 0.10929 0.71964 0.0
H339 H 0.12667 0.06652 0.73469 0.0
H340 H 0.23405 0.9173 0.71366 0.0
H341 H 0.20428 0.92787 0.6303 0.0
H342 H 0.22451 0.86875 0.7098 0.0
H343 H 0.19539 0.87913 0.62786 0.0
H344 H 0.27387 0.00666 0.64206 0.0
H345 H 0.25638 0.03731 0.72373 0.0
H346 H 0.32085 0.02132 0.64787 0.0
H347 H 0.30371 0.05126 0.72823 0.0
H348 H 0.22016 0.01855 0.55556 0.0
H349 H 0.26788 0.9495 0.57608 0.0
H350 H 0.28622 0.94213 0.78343 0.0
H351 H 0.32681 0.94292 0.7042 0.0
Li352 Li 0.48971 0.29741 0.80308 0.0
Li353 Li 0.53766 0.30874 0.80899 0.0
Li354 Li 0.52318 0.26209 0.79991 0.0
Li355 Li 0.51434 0.28236 0.84435 0.0
C356 C 0.51581 0.29825 0.74862 0.0
N357 N 0.50909 0.30739 0.69234 0.0
C358 C 0.52228 0.3231 0.73722 0.0
C359 C 0.50638 0.27789 0.7313 0.0
C360 C 0.5186 0.32738 0.70875 0.0
C361 C 0.50299 0.28295 0.70293 0.0
C362 C 0.51172 0.33669 0.85397 0.0
C363 C 0.54196 0.35619 0.88732 0.0
N364 N 0.52137 0.37047 0.89828 0.0
C365 C 0.49085 0.3515 0.86555 0.0
C366 C 0.53748 0.339 0.86491 0.0
C367 C 0.49614 0.3685 0.88795 0.0
C368 C 0.43293 0.30364 0.79697 0.0
N369 N 0.45755 0.31271 0.78949 0.0
C370 C 0.43826 0.34907 0.76445 0.0
C371 C 0.46054 0.33499 0.77367 0.0
C372 C 0.41269 0.34032 0.77196 0.0
C373 C 0.40998 0.31725 0.78828 0.0
H374 H 0.43113 0.28632 0.81029 0.0
H375 H 0.48031 0.34235 0.76902 0.0
C376 C 0.58807 0.32541 0.7913 0.0
N377 N 0.56388 0.3345 0.79996 0.0
C378 C 0.60756 0.34337 0.78234 0.0
C379 C 0.57698 0.37972 0.79174 0.0
C380 C 0.558 0.36103 0.80042 0.0
C381 C 0.60194 0.37078 0.78237 0.0
H382 H 0.59196 0.30416 0.79085 0.0
H383 H 0.5384 0.36759 0.80699 0.0
C384 C 0.47221 0.24193 0.812 0.0
N385 N 0.439 0.2017 0.79325 0.0
C386 C 0.46558 0.22065 0.82952 0.0
C387 C 0.46182 0.24285 0.78504 0.0
C388 C 0.4488 0.20047 0.81963 0.0
C389 C 0.44509 0.2223 0.77593 0.0
C390 C 0.56248 0.25401 0.83944 0.0
C391 C 0.54752 0.23251 0.84953 0.0
C392 C 0.59033 0.25328 0.84106 0.0
C393 C 0.56072 0.21062 0.86115 0.0
C394 C 0.6028 0.231 0.85282 0.0
N395 N 0.58786 0.21031 0.86253 0.0
C396 C 0.55522 0.23546 0.76238 0.0
C397 C 0.5275 0.20586 0.78795 0.0
C398 C 0.56839 0.21403 0.74993 0.0
N399 N 0.5354 0.23103 0.78115 0.0
C400 C 0.54012 0.1838 0.77592 0.0
C401 C 0.56111 0.18792 0.75709 0.0
H402 H 0.56143 0.25569 0.75786 0.0
H403 H 0.51229 0.2028 0.80352 0.0
C404 C 0.48867 0.26651 0.89398 0.0
N405 N 0.51194 0.27599 0.88325 0.0
C406 C 0.48691 0.26013 0.92223 0.0
C407 C 0.53291 0.27396 0.92785 0.0
C408 C 0.53384 0.2799 0.8995 0.0
C409 C 0.50929 0.26377 0.93936 0.0
H410 H 0.47162 0.26355 0.8805 0.0
H411 H 0.55216 0.28721 0.89034 0.0
O412 O 0.51971 0.29361 0.77639 0.0
O413 O 0.50681 0.31986 0.83216 0.0
O414 O 0.48882 0.26167 0.82134 0.0
O415 O 0.55007 0.27551 0.82754 0.0
H416 H 0.52995 0.33898 0.75025 0.0
H417 H 0.50201 0.25828 0.73957 0.0
H418 H 0.52336 0.34658 0.69969 0.0
H419 H 0.49565 0.26739 0.6893 0.0
H420 H 0.56179 0.35814 0.89604 0.0
H421 H 0.47078 0.34986 0.85731 0.0
H422 H 0.55381 0.32749 0.85633 0.0
H423 H 0.4802 0.38012 0.89713 0.0
H424 H 0.44093 0.3671 0.75229 0.0
H425 H 0.39044 0.31035 0.79477 0.0
H426 H 0.62666 0.33599 0.77505 0.0
H427 H 0.57212 0.4008 0.79178 0.0
H428 H 0.47349 0.21964 0.85046 0.0
H429 H 0.46641 0.25936 0.77141 0.0
H430 H 0.4436 0.18382 0.83291 0.0
H431 H 0.4369 0.22277 0.75509 0.0
H432 H 0.52596 0.23265 0.84832 0.0
H433 H 0.60219 0.26973 0.83324 0.0
H434 H 0.54939 0.19384 0.86902 0.0
H435 H 0.62435 0.23015 0.85419 0.0
H436 H 0.58469 0.21775 0.73561 0.0
H437 H 0.53431 0.1638 0.782 0.0
H438 H 0.46844 0.25223 0.9306 0.0
H439 H 0.55052 0.27688 0.94061 0.0
Li440 Li 0.18936 0.53656 0.31343 0.0
Li441 Li 0.20145 0.48828 0.30742 0.0
Li442 Li 0.21539 0.5156 0.34922 0.0
Li443 Li 0.23502 0.52371 0.30502 0.0
C444 C 0.152 0.50998 0.33987 0.0
N445 N 0.09791 0.52029 0.34414 0.0
C446 C 0.13353 0.49338 0.32658 0.0
C447 C 0.14292 0.53164 0.35562 0.0
C448 C 0.10627 0.49895 0.32894 0.0
C449 C 0.11551 0.5366 0.35741 0.0
C450 C 0.21457 0.52008 0.25485 0.0
C451 C 0.23876 0.50133 0.21612 0.0
N452 N 0.2392 0.52577 0.20378 0.0
C453 C 0.2151 0.54499 0.24175 0.0
C454 C 0.22639 0.49803 0.24195 0.0
C455 C 0.22772 0.54747 0.21594 0.0
C456 C 0.16607 0.58801 0.31075 0.0
N457 N 0.16295 0.562 0.30328 0.0
C458 C 0.12391 0.57261 0.27685 0.0
C459 C 0.14242 0.554 0.2867 0.0
C460 C 0.12697 0.59958 0.2839 0.0
C461 C 0.14812 0.60729 0.30124 0.0
H462 H 0.18293 0.59388 0.32338 0.0
H463 H 0.14081 0.53326 0.28063 0.0
C464 C 0.19018 0.43243 0.30866 0.0
N465 N 0.18768 0.45552 0.29397 0.0
C466 C 0.17677 0.40939 0.29992 0.0
C467 C 0.15885 0.43443 0.26109 0.0
C468 C 0.17275 0.45682 0.27038 0.0
C469 C 0.16039 0.41058 0.27624 0.0
H470 H 0.20191 0.43216 0.32757 0.0
H471 H 0.17075 0.4756 0.25946 0.0
C472 C 0.23185 0.56426 0.35356 0.0
N473 N 0.25261 0.59022 0.3995 0.0
C474 C 0.25949 0.56553 0.35757 0.0
C475 C 0.21479 0.57631 0.37287 0.0
C476 C 0.26959 0.57875 0.38091 0.0
C477 C 0.22567 0.58928 0.39598 0.0
C478 C 0.26086 0.47851 0.31971 0.0
C479 C 0.28462 0.48944 0.32996 0.0
C480 C 0.26185 0.45596 0.30257 0.0
C481 C 0.30897 0.47761 0.32289 0.0
C482 C 0.28659 0.4447 0.29601 0.0
N483 N 0.30944 0.45566 0.30622 0.0
C484 C 0.20014 0.51358 0.40632 0.0
C485 C 0.24684 0.51274 0.39818 0.0
C486 C 0.20432 0.51317 0.43508 0.0
N487 N 0.22131 0.5136 0.38855 0.0
C488 C 0.25194 0.51242 0.4267 0.0
C489 C 0.2305 0.51272 0.44539 0.0
H490 H 0.18004 0.51405 0.3982 0.0
H491 H 0.2633 0.51275 0.38375 0.0
C492 C 0.26787 0.56377 0.28483 0.0
N493 N 0.26576 0.53668 0.28505 0.0
C494 C 0.2892 0.57618 0.27146 0.0
C495 C 0.3055 0.53271 0.25764 0.0
C496 C 0.28358 0.52111 0.27104 0.0
C497 C 0.30845 0.56054 0.25806 0.0
H498 H 0.25296 0.57581 0.29517 0.0
H499 H 0.28087 0.49976 0.27015 0.0
O500 O 0.17881 0.50516 0.33736 0.0
O501 O 0.2031 0.51742 0.2805 0.0
O502 O 0.22154 0.55092 0.33112 0.0
O503 O 0.23674 0.48943 0.32681 0.0
H504 H 0.1401 0.47638 0.31454 0.0
H505 H 0.15691 0.54474 0.36599 0.0
H506 H 0.09178 0.48631 0.31867 0.0
H507 H 0.10825 0.55345 0.36929 0.0
H508 H 0.24814 0.48448 0.20596 0.0
H509 H 0.20612 0.56225 0.25158 0.0
H510 H 0.22634 0.47867 0.25197 0.0
H511 H 0.22847 0.56665 0.20561 0.0
H512 H 0.1079 0.56621 0.26323 0.0
H513 H 0.15106 0.62807 0.30672 0.0
H514 H 0.17825 0.39121 0.31202 0.0
H515 H 0.14628 0.43591 0.24279 0.0
H516 H 0.27302 0.55611 0.34304 0.0
H517 H 0.19337 0.57545 0.37019 0.0
H518 H 0.29092 0.57976 0.38433 0.0
H519 H 0.21269 0.59854 0.41118 0.0
H520 H 0.28439 0.5072 0.34269 0.0
H521 H 0.24374 0.44727 0.29434 0.0
H522 H 0.32749 0.48598 0.33052 0.0
H523 H 0.28763 0.42726 0.28276 0.0
H524 H 0.1874 0.51338 0.44913 0.0
H525 H 0.27236 0.5121 0.43415 0.0
H526 H 0.29092 0.59774 0.2719 0.0
H527 H 0.31997 0.52019 0.24712 0.0
Li528 Li 0.97531 0.23781 0.80227 0.0
Li529 Li 0.98268 0.21544 0.84663 0.0
Li530 Li 0.00857 0.20345 0.80506 0.0
Li531 Li 0.96199 0.18931 0.80827 0.0
C532 C 0.01642 0.26394 0.82451 0.0
N533 N 0.03228 0.31678 0.82257 0.0
C534 C 0.01248 0.28058 0.84752 0.0
C535 C 0.02849 0.27417 0.80056 0.0
C536 C 0.02064 0.30723 0.84613 0.0
C537 C 0.03632 0.30095 0.79996 0.0
C538 C 0.9284 0.23193 0.84371 0.0
C539 C 0.88501 0.2282 0.86524 0.0
N540 N 0.88847 0.25264 0.87706 0.0
C541 C 0.93161 0.25688 0.85627 0.0
C542 C 0.90498 0.21737 0.84837 0.0
C543 C 0.91116 0.26706 0.87298 0.0
C544 C 0.95477 0.26744 0.75757 0.0
N545 N 0.96324 0.26982 0.78438 0.0
C546 C 0.94823 0.31514 0.78602 0.0
C547 C 0.96057 0.29322 0.79852 0.0
C548 C 0.93851 0.31281 0.75881 0.0
C549 C 0.94231 0.28888 0.74425 0.0
H550 H 0.95672 0.24854 0.74689 0.0
H551 H 0.96707 0.29474 0.81982 0.0
C552 C 0.00871 0.22675 0.89688 0.0
N553 N 0.98445 0.22007 0.88616 0.0
C554 C 0.0114 0.23263 0.92517 0.0
C555 C 0.96433 0.22347 0.93117 0.0
C556 C 0.96257 0.21767 0.9028 0.0
C557 C 0.9889 0.23137 0.94243 0.0
H558 H 0.02586 0.22817 0.88326 0.0
H559 H 0.94364 0.21161 0.89413 0.0
C560 C 0.99321 0.19895 0.75321 0.0
N561 N 0.02163 0.18173 0.70731 0.0
C562 C 0.99076 0.17259 0.744 0.0
C563 C 0.00979 0.21667 0.73884 0.0
C564 C 0.00535 0.16425 0.72079 0.0
C565 C 0.0241 0.20755 0.71576 0.0
C566 C 0.98529 0.15946 0.85144 0.0
C567 C 0.00355 0.13936 0.85813 0.0
C568 C 0.95995 0.1594 0.86362 0.0
C569 C 0.99614 0.1195 0.87704 0.0
C570 C 0.95333 0.13924 0.88249 0.0
N571 N 0.9714 0.11986 0.88874 0.0
C572 C 0.06394 0.20508 0.78781 0.0
C573 C 0.04176 0.16318 0.78713 0.0
C574 C 0.08732 0.19332 0.77753 0.0
N575 N 0.04177 0.18989 0.79212 0.0
C576 C 0.06449 0.15072 0.77668 0.0
C577 C 0.08749 0.16586 0.77169 0.0
H578 H 0.06348 0.22622 0.79226 0.0
H579 H 0.02388 0.15163 0.79098 0.0
C580 C 0.91263 0.17204 0.78801 0.0
N581 N 0.93655 0.16309 0.79758 0.0
C582 C 0.89334 0.15398 0.77878 0.0
C583 C 0.92395 0.11782 0.78868 0.0
C584 C 0.94259 0.1366 0.79801 0.0
C585 C 0.89901 0.12656 0.779 0.0
H586 H 0.90865 0.19326 0.78734 0.0
H587 H 0.96202 0.13009 0.80513 0.0
O588 O 0.00871 0.23773 0.82551 0.0
O589 O 0.94817 0.22151 0.82731 0.0
O590 O 0.97977 0.20726 0.77643 0.0
O591 O 0.99219 0.17878 0.83266 0.0
H592 H 0.00286 0.27318 0.86612 0.0
H593 H 0.03166 0.26163 0.78255 0.0
H594 H 0.01761 0.32035 0.86374 0.0
H595 H 0.04561 0.30914 0.78151 0.0
H596 H 0.8668 0.21713 0.86901 0.0
H597 H 0.94994 0.26796 0.85373 0.0
H598 H 0.90231 0.1978 0.83928 0.0
H599 H 0.91341 0.28634 0.88287 0.0
H600 H 0.94534 0.33336 0.7978 0.0
H601 H 0.93473 0.2865 0.72328 0.0
H602 H 0.03065 0.23856 0.9334 0.0
H603 H 0.94668 0.22213 0.94414 0.0
H604 H 0.978 0.15863 0.75488 0.0
H605 H 0.0117 0.2372 0.74555 0.0
H606 H 0.00382 0.14384 0.71357 0.0
H607 H 0.03718 0.22098 0.70457 0.0
H608 H 0.0232 0.13907 0.84872 0.0
H609 H 0.94551 0.17464 0.85843 0.0
H610 H 0.01005 0.10378 0.88238 0.0
H611 H 0.93379 0.13896 0.89209 0.0
H612 H 0.10493 0.20541 0.77398 0.0
H613 H 0.06416 0.12946 0.77246 0.0
H614 H 0.87433 0.16131 0.77117 0.0
H615 H 0.92896 0.09677 0.7888 0.0
Li616 Li 0.26361 0.97302 0.30224 0.0
Li617 Li 0.28174 0.98141 0.34856 0.0
Li618 Li 0.29844 0.0071 0.30669 0.0
Li619 Li 0.31018 0.95967 0.31366 0.0
C620 C 0.23643 0.01642 0.32286 0.0
N621 N 0.18441 0.03472 0.32029 0.0
C622 C 0.21612 0.00282 0.33687 0.0
C623 C 0.2303 0.03936 0.30754 0.0
C624 C 0.18994 0.01236 0.3353 0.0
C625 C 0.20387 0.04829 0.3065 0.0
C626 C 0.26652 0.92824 0.34805 0.0
C627 C 0.27317 0.89534 0.38406 0.0
N628 N 0.24633 0.89126 0.38522 0.0
C629 C 0.23901 0.92353 0.34941 0.0
C630 C 0.28377 0.91385 0.36532 0.0
C631 C 0.22919 0.90482 0.3684 0.0
C632 C 0.23397 0.93301 0.27816 0.0
N633 N 0.23351 0.95995 0.28177 0.0
C634 C 0.19106 0.96275 0.25903 0.0
C635 C 0.21295 0.97502 0.27187 0.0
C636 C 0.1907 0.93488 0.25623 0.0
C637 C 0.21256 0.91996 0.26556 0.0
H638 H 0.25078 0.92155 0.28574 0.0
H639 H 0.21325 0.99643 0.27415 0.0
C640 C 0.29375 0.99593 0.40392 0.0
N641 N 0.27544 0.98317 0.38788 0.0
C642 C 0.29208 0.99483 0.43294 0.0
C643 C 0.25144 0.9698 0.42849 0.0
C644 C 0.25373 0.97153 0.39963 0.0
C645 C 0.27218 0.97912 0.446 0.0
H646 H 0.30988 0.00682 0.39417 0.0
H647 H 0.23823 0.96323 0.38673 0.0
C648 C 0.29386 0.98643 0.25305 0.0
N649 N 0.28939 0.00598 0.19952 0.0
C650 C 0.31148 0.97779 0.23237 0.0
C651 C 0.27404 0.00505 0.24658 0.0
C652 C 0.30888 0.98791 0.20541 0.0
C653 C 0.27206 0.01466 0.21937 0.0
C654 C 0.34363 0.98612 0.34897 0.0
C655 C 0.36561 0.00128 0.34048 0.0
C656 C 0.34692 0.9663 0.36914 0.0
C657 C 0.39067 0.99605 0.35208 0.0
C658 C 0.37229 0.96168 0.38024 0.0
N659 N 0.39347 0.97651 0.37153 0.0
C660 C 0.30459 0.06385 0.30048 0.0
C661 C 0.33499 0.03604 0.27605 0.0
C662 C 0.31752 0.08673 0.29053 0.0
N663 N 0.31352 0.0392 0.29303 0.0
C664 C 0.34856 0.05824 0.26584 0.0
C665 C 0.33995 0.08387 0.27327 0.0
H666 H 0.2878 0.06574 0.31449 0.0
H667 H 0.34189 0.01617 0.27092 0.0
C668 C 0.32926 0.90763 0.30503 0.0
N669 N 0.3368 0.9337 0.30584 0.0
C670 C 0.34727 0.88806 0.29633 0.0
C671 C 0.38065 0.92246 0.28996 0.0
C672 C 0.36189 0.94143 0.29847 0.0
C673 C 0.37314 0.89553 0.28842 0.0
H674 H 0.30898 0.90215 0.31024 0.0
H675 H 0.36705 0.96237 0.29828 0.0
O676 O 0.26219 0.00741 0.32416 0.0
O677 O 0.27652 0.94647 0.32957 0.0
O678 O 0.29669 0.97732 0.27969 0.0
O679 O 0.31898 0.99084 0.33773 0.0
H680 H 0.22045 0.98487 0.34846 0.0
H681 H 0.2457 0.05001 0.29633 0.0
H682 H 0.174 0.00194 0.34595 0.0
H683 H 0.19883 0.06596 0.29466 0.0
H684 H 0.28629 0.88415 0.39763 0.0
H685 H 0.22531 0.93453 0.33632 0.0
H686 H 0.30513 0.91683 0.36418 0.0
H687 H 0.20794 0.90115 0.36983 0.0
H688 H 0.17444 0.97474 0.25182 0.0
H689 H 0.21283 0.89841 0.26351 0.0
H690 H 0.30631 0.0067 0.44427 0.0
H691 H 0.23335 0.96106 0.43669 0.0
H692 H 0.32709 0.96355 0.23718 0.0
H693 H 0.26051 0.01218 0.26245 0.0
H694 H 0.32241 0.98146 0.18919 0.0
H695 H 0.25683 0.02911 0.21405 0.0
H696 H 0.36337 0.01683 0.32504 0.0
H697 H 0.33004 0.9547 0.37622 0.0
H698 H 0.40789 0.00753 0.34562 0.0
H699 H 0.37513 0.94634 0.39582 0.0
H700 H 0.31054 0.10634 0.29665 0.0
H701 H 0.36587 0.05547 0.25261 0.0
H702 H 0.34091 0.86741 0.29509 0.0
H703 H 0.40044 0.92877 0.28363 0.0
Li704 Li 0.48084 0.7846 0.84805 0.0
Li705 Li 0.50548 0.79862 0.80678 0.0
Li706 Li 0.45879 0.81171 0.8137 0.0
Li707 Li 0.47081 0.76572 0.80229 0.0
C708 C 0.48632 0.84801 0.83964 0.0
N709 N 0.47659 0.90223 0.84336 0.0
C710 C 0.50165 0.86603 0.82419 0.0
C711 C 0.46613 0.85758 0.8571 0.0
C712 C 0.49643 0.89336 0.82637 0.0
C713 C 0.46147 0.88506 0.85862 0.0
C714 C 0.53026 0.7551 0.82353 0.0
C715 C 0.56945 0.74054 0.79861 0.0
N716 N 0.58389 0.74216 0.82254 0.0
C717 C 0.54543 0.75651 0.8479 0.0
C718 C 0.54229 0.74692 0.7987 0.0
C719 C 0.57254 0.74991 0.84696 0.0
C720 C 0.48506 0.75015 0.89406 0.0
N721 N 0.4833 0.77629 0.88658 0.0
C722 C 0.48317 0.78985 0.93425 0.0
C723 C 0.48258 0.7961 0.90593 0.0
C724 C 0.48465 0.76304 0.94247 0.0
C725 C 0.48576 0.74301 0.92213 0.0
H726 H 0.48566 0.73486 0.87816 0.0
H727 H 0.48133 0.81669 0.89939 0.0
C728 C 0.54049 0.81994 0.7667 0.0
N729 N 0.53881 0.81173 0.79361 0.0
C730 C 0.56278 0.83421 0.75759 0.0
C731 C 0.58181 0.8301 0.80368 0.0
C732 C 0.55897 0.81623 0.81201 0.0
C733 C 0.58338 0.83998 0.77642 0.0
H734 H 0.5239 0.81668 0.75271 0.0
H735 H 0.55671 0.8103 0.83351 0.0
C736 C 0.43198 0.76668 0.85189 0.0
N737 N 0.40699 0.74187 0.89617 0.0
C738 C 0.43006 0.73883 0.85277 0.0
C739 C 0.42117 0.7819 0.87353 0.0
C740 C 0.41734 0.72667 0.87533 0.0
C741 C 0.40865 0.76898 0.89575 0.0
C742 C 0.46788 0.78986 0.75408 0.0
C743 C 0.44219 0.79616 0.74475 0.0
C744 C 0.4845 0.77393 0.73763 0.0
C745 C 0.43345 0.78615 0.71918 0.0
C746 C 0.47499 0.76425 0.71222 0.0
N747 N 0.44988 0.7705 0.7036 0.0
C748 C 0.43963 0.85867 0.78829 0.0
C749 C 0.40778 0.83603 0.81625 0.0
C750 C 0.42035 0.87708 0.77976 0.0
N751 N 0.43297 0.83857 0.80604 0.0
C752 C 0.38789 0.854 0.80828 0.0
C753 C 0.3941 0.87451 0.78952 0.0
H754 H 0.45971 0.85983 0.78007 0.0
H755 H 0.40291 0.81953 0.82981 0.0
C756 C 0.47253 0.71282 0.77922 0.0
N757 N 0.45759 0.73516 0.78339 0.0
C758 C 0.46103 0.69025 0.76694 0.0
C759 C 0.41931 0.7144 0.76315 0.0
C760 C 0.4315 0.73633 0.77565 0.0
C761 C 0.43408 0.69102 0.75899 0.0
H762 H 0.49312 0.71234 0.786 0.0
H763 H 0.42002 0.7542 0.77977 0.0
O764 O 0.49079 0.82113 0.83744 0.0
O765 O 0.50376 0.76171 0.82395 0.0
O766 O 0.44484 0.77896 0.83028 0.0
O767 O 0.47659 0.79889 0.77938 0.0
H768 H 0.5173 0.85905 0.8105 0.0
H769 H 0.45386 0.84392 0.86895 0.0
H770 H 0.5081 0.90752 0.81447 0.0
H771 H 0.44576 0.89272 0.87185 0.0
H772 H 0.57906 0.73433 0.77952 0.0
H773 H 0.53647 0.7629 0.86727 0.0
H774 H 0.53081 0.74572 0.77967 0.0
H775 H 0.58457 0.75103 0.86563 0.0
H776 H 0.48233 0.8057 0.94958 0.0
H777 H 0.48693 0.72215 0.92794 0.0
H778 H 0.5634 0.84176 0.73647 0.0
H779 H 0.59734 0.83447 0.8187 0.0
H780 H 0.43855 0.72669 0.8364 0.0
H781 H 0.4228 0.80345 0.87338 0.0
H782 H 0.41578 0.70515 0.87632 0.0
H783 H 0.40036 0.7805 0.91272 0.0
H784 H 0.42899 0.80833 0.75726 0.0
H785 H 0.50443 0.76887 0.74454 0.0
H786 H 0.41356 0.79072 0.71178 0.0
H787 H 0.48757 0.75173 0.69937 0.0
H788 H 0.42559 0.89259 0.76502 0.0
H789 H 0.36768 0.85142 0.81589 0.0
H790 H 0.47277 0.67228 0.76416 0.0
H791 H 0.39839 0.71539 0.75744 0.0
Li792 Li 0.70185 0.5068 0.30738 0.0
Li793 Li 0.71561 0.48385 0.34702 0.0
Li794 Li 0.73739 0.47405 0.30221 0.0
Li795 Li 0.6886 0.45973 0.3132 0.0
C796 C 0.74704 0.53281 0.32053 0.0
N797 N 0.76467 0.58466 0.31366 0.0
C798 C 0.73814 0.55292 0.33843 0.0
C799 C 0.76517 0.53896 0.29936 0.0
C800 C 0.74719 0.57905 0.33453 0.0
C801 C 0.7738 0.56533 0.29619 0.0
C802 C 0.66383 0.49563 0.3589 0.0
C803 C 0.63163 0.48191 0.39336 0.0
N804 N 0.63461 0.5058 0.40648 0.0
C805 C 0.66635 0.52016 0.37251 0.0
C806 C 0.64616 0.47641 0.36921 0.0
C807 C 0.6515 0.52487 0.39663 0.0
C808 C 0.66068 0.54312 0.29908 0.0
N809 N 0.6869 0.53931 0.29281 0.0
C810 C 0.68701 0.57858 0.26433 0.0
C811 C 0.70018 0.55648 0.27569 0.0
C812 C 0.65991 0.58258 0.27035 0.0
C813 C 0.64675 0.56474 0.28805 0.0
H814 H 0.65028 0.52892 0.31205 0.0
H815 H 0.72067 0.55263 0.27007 0.0
C816 C 0.74675 0.49874 0.39321 0.0
N817 N 0.72372 0.48608 0.38597 0.0
C818 C 0.7546 0.50007 0.42106 0.0
C819 C 0.71476 0.47557 0.43361 0.0
C820 C 0.70793 0.47429 0.40549 0.0
C821 C 0.73838 0.48849 0.44153 0.0
H822 H 0.75926 0.50745 0.37727 0.0
H823 H 0.69033 0.46342 0.39926 0.0
C824 C 0.69866 0.49 0.25522 0.0
N825 N 0.68663 0.51709 0.20678 0.0
C826 C 0.67211 0.49257 0.24665 0.0
C827 C 0.71911 0.50107 0.23914 0.0
C828 C 0.66644 0.50637 0.22209 0.0
C829 C 0.7126 0.51474 0.21472 0.0
C830 C 0.73159 0.43385 0.35246 0.0
C831 C 0.75835 0.43551 0.36052 0.0
C832 C 0.7138 0.41823 0.36787 0.0
C833 C 0.76687 0.42162 0.38413 0.0
C834 C 0.72312 0.40461 0.39133 0.0
N835 N 0.74923 0.40659 0.3989 0.0
C836 C 0.79328 0.46879 0.29241 0.0
C837 C 0.7646 0.44295 0.2637 0.0
C838 C 0.81577 0.45676 0.28054 0.0
N839 N 0.76839 0.46152 0.28395 0.0
C840 C 0.78647 0.43029 0.25147 0.0
C841 C 0.81234 0.4369 0.26023 0.0
H842 H 0.79561 0.48328 0.30893 0.0
H843 H 0.74452 0.43739 0.25772 0.0
C844 C 0.6372 0.44052 0.29967 0.0
N845 N 0.66288 0.43331 0.30504 0.0
C846 C 0.61872 0.42141 0.29082 0.0
C847 C 0.65341 0.38785 0.29381 0.0
C848 C 0.67121 0.40759 0.30253 0.0
C849 C 0.62697 0.39484 0.28753 0.0
H850 H 0.63131 0.46123 0.30159 0.0
H851 H 0.69187 0.40258 0.30659 0.0
O852 O 0.73861 0.50709 0.32418 0.0
O853 O 0.67804 0.4907 0.33515 0.0
O854 O 0.70461 0.47696 0.2794 0.0
O855 O 0.72273 0.4478 0.32984 0.0
H856 H 0.72447 0.54838 0.35519 0.0
H857 H 0.77226 0.52362 0.28533 0.0
H858 H 0.74037 0.59485 0.34814 0.0
H859 H 0.78769 0.57043 0.27979 0.0
H860 H 0.61802 0.46716 0.40171 0.0
H861 H 0.6796 0.53538 0.36451 0.0
H862 H 0.64392 0.45735 0.35884 0.0
H863 H 0.65336 0.54372 0.40748 0.0
H864 H 0.69754 0.59191 0.25038 0.0
H865 H 0.62574 0.56723 0.29281 0.0
H866 H 0.77309 0.50997 0.42661 0.0
H867 H 0.70206 0.46613 0.44899 0.0
H868 H 0.65607 0.48419 0.25897 0.0
H869 H 0.73975 0.49933 0.24561 0.0
H870 H 0.64597 0.50865 0.21525 0.0
H871 H 0.7282 0.52354 0.20212 0.0
H872 H 0.77231 0.44764 0.34885 0.0
H873 H 0.69297 0.41692 0.36198 0.0
H874 H 0.78749 0.42285 0.39075 0.0
H875 H 0.70957 0.39256 0.40357 0.0
H876 H 0.83554 0.46215 0.28778 0.0
H877 H 0.78324 0.41496 0.23591 0.0
H878 H 0.59846 0.42734 0.2859 0.0
H879 H 0.66032 0.36749 0.29123 0.0
Li880 Li 0.01284 0.71934 0.84561 0.0
Li881 Li 0.99044 0.70452 0.80278 0.0
Li882 Li 0.03566 0.69403 0.80929 0.0
Li883 Li 0.02337 0.73954 0.79816 0.0
C884 C 0.01111 0.65643 0.83638 0.0
N885 N 0.0251 0.60332 0.84162 0.0
C886 C 0.00253 0.63783 0.81661 0.0
C887 C 0.02657 0.64802 0.85895 0.0
C888 C 0.00987 0.61106 0.8196 0.0
C889 C 0.0335 0.62108 0.86118 0.0
C890 C 0.96354 0.74692 0.81588 0.0
C891 C 0.9277 0.76018 0.78537 0.0
N892 N 0.91001 0.75661 0.80653 0.0
C893 C 0.94507 0.74346 0.83736 0.0
C894 C 0.95489 0.75544 0.78969 0.0
C895 C 0.91806 0.74846 0.83221 0.0
C896 C 0.02158 0.74948 0.89394 0.0
N897 N 0.00948 0.72712 0.88399 0.0
C898 C 0.99457 0.71525 0.92957 0.0
C899 C 0.99597 0.71014 0.90101 0.0
C900 C 0.00738 0.73789 0.9404 0.0
C901 C 0.0209 0.75522 0.92235 0.0
H902 H 0.03219 0.76255 0.87982 0.0
H903 H 0.98658 0.69251 0.89242 0.0
C904 C 0.95381 0.68725 0.76178 0.0
N905 N 0.95764 0.69028 0.7896 0.0
C906 C 0.93214 0.67243 0.75195 0.0
C907 C 0.91803 0.66544 0.79956 0.0
C908 C 0.94009 0.6802 0.80849 0.0
C909 C 0.91442 0.66087 0.77104 0.0
H910 H 0.96825 0.69526 0.74733 0.0
H911 H 0.94397 0.68256 0.8305 0.0
C912 C 0.07194 0.72633 0.84164 0.0
N913 N 0.12037 0.72571 0.86934 0.0
C914 C 0.09447 0.73821 0.82967 0.0
C915 C 0.07403 0.71444 0.86789 0.0
C916 C 0.11878 0.73757 0.84392 0.0
C917 C 0.09868 0.71428 0.88152 0.0
C918 C 0.03697 0.70934 0.75311 0.0
C919 C 0.0637 0.71521 0.75888 0.0
C920 C 0.0289 0.70589 0.72548 0.0
C921 C 0.0819 0.71756 0.73699 0.0
C922 C 0.04769 0.70846 0.70414 0.0
N923 N 0.07358 0.71419 0.71029 0.0
C924 C 0.05716 0.65158 0.77835 0.0
C925 C 0.08348 0.66208 0.81786 0.0
C926 C 0.07595 0.63283 0.76952 0.0
N927 N 0.06156 0.66636 0.8017 0.0
C928 C 0.10277 0.64348 0.80985 0.0
C929 C 0.09927 0.62913 0.78512 0.0
H930 H 0.03927 0.65478 0.7662 0.0
H931 H 0.08635 0.67322 0.83672 0.0
C932 C 0.05118 0.78762 0.79589 0.0
N933 N 0.03521 0.77131 0.78057 0.0
C934 C 0.06423 0.80905 0.7833 0.0
C935 C 0.04315 0.79727 0.73966 0.0
C936 C 0.03039 0.77607 0.75315 0.0
C937 C 0.06068 0.81358 0.75479 0.0
H938 H 0.05459 0.78332 0.81766 0.0
H939 H 0.0175 0.76282 0.74151 0.0
O940 O 0.00487 0.68284 0.83331 0.0
O941 O 0.98994 0.74151 0.82029 0.0
O942 O 0.04783 0.7272 0.82817 0.0
O943 O 0.01857 0.70753 0.77416 0.0
H944 H 0.99067 0.64406 0.79893 0.0
H945 H 0.03331 0.66218 0.87444 0.0
H946 H 0.00354 0.59647 0.80436 0.0
H947 H 0.04561 0.6143 0.87844 0.0
H948 H 0.92066 0.76662 0.76517 0.0
H949 H 0.95152 0.73678 0.85772 0.0
H950 H 0.96901 0.75806 0.77284 0.0
H951 H 0.90348 0.74578 0.8486 0.0
H952 H 0.98402 0.70156 0.94312 0.0
H953 H 0.03094 0.77283 0.93023 0.0
H954 H 0.92991 0.66898 0.72981 0.0
H955 H 0.90477 0.65647 0.81473 0.0
H956 H 0.09325 0.74792 0.80959 0.0
H957 H 0.05697 0.70497 0.87747 0.0
H958 H 0.13637 0.74658 0.83482 0.0
H959 H 0.10059 0.70497 0.90174 0.0
H960 H 0.07037 0.71781 0.78001 0.0
H961 H 0.0083 0.70147 0.72052 0.0
H962 H 0.10264 0.72208 0.74125 0.0
H963 H 0.04166 0.70593 0.68267 0.0
H964 H 0.0727 0.62186 0.75039 0.0
H965 H 0.12057 0.64083 0.82237 0.0
H966 H 0.07769 0.82137 0.79542 0.0
H967 H 0.04009 0.80039 0.71759 0.0
Li968 Li 0.78328 0.01557 0.34627 0.0
Li969 Li 0.79833 0.99087 0.30326 0.0
Li970 Li 0.80819 0.03632 0.30968 0.0
Li971 Li 0.76319 0.02524 0.29829 0.0
C972 C 0.8457 0.01351 0.33821 0.0
N973 N 0.89799 0.02967 0.34576 0.0
C974 C 0.86512 0.00716 0.31839 0.0
C975 C 0.85289 0.02797 0.36194 0.0
C976 C 0.89143 0.01556 0.32255 0.0
C977 C 0.87944 0.03595 0.36538 0.0
C978 C 0.74966 0.9688 0.32897 0.0
C979 C 0.7152 0.93558 0.32327 0.0
N980 N 0.72431 0.9227 0.34632 0.0
C981 C 0.75857 0.95533 0.3527 0.0
C982 C 0.72768 0.95898 0.31423 0.0
C983 C 0.74553 0.93201 0.36109 0.0
C984 C 0.75042 0.02182 0.39307 0.0
N985 N 0.77496 0.01344 0.38468 0.0
C986 C 0.78709 0.00254 0.43141 0.0
C987 C 0.79315 0.00367 0.40307 0.0
C988 C 0.76197 0.01121 0.44065 0.0
C989 C 0.7434 0.02077 0.42118 0.0
H990 H 0.73636 0.02935 0.37788 0.0
H991 H 0.81231 0.99666 0.39571 0.0
C992 C 0.82938 0.95978 0.26736 0.0
N993 N 0.81278 0.95786 0.28971 0.0
C994 C 0.84341 0.9375 0.25795 0.0
C995 C 0.82287 0.91134 0.29442 0.0
C996 C 0.80915 0.9342 0.30314 0.0
C997 C 0.84052 0.91313 0.27187 0.0
H998 H 0.83261 0.9789 0.2575 0.0
H999 H 0.7965 0.93317 0.32122 0.0
C1000 C 0.7784 0.07662 0.33089 0.0
N1001 N 0.7854 0.13104 0.33668 0.0
C1002 C 0.77815 0.09314 0.30744 0.0
C1003 C 0.78191 0.08776 0.3573 0.0
C1004 C 0.78184 0.12061 0.3108 0.0
C1005 C 0.78546 0.11534 0.35979 0.0
C1006 C 0.78656 0.0088 0.25013 0.0
C1007 C 0.79476 0.0196 0.22469 0.0
C1008 C 0.76912 0.98698 0.25032 0.0
C1009 C 0.78549 0.00833 0.19991 0.0
C1010 C 0.76031 0.97625 0.2251 0.0
N1011 N 0.7686 0.98706 0.20062 0.0
C1012 C 0.84457 0.0638 0.27604 0.0
C1013 C 0.84332 0.08058 0.32218 0.0
C1014 C 0.86264 0.08361 0.26822 0.0
N1015 N 0.83491 0.06293 0.30246 0.0
C1016 C 0.86143 0.10074 0.31527 0.0
C1017 C 0.8709 0.10249 0.2879 0.0
H1018 H 0.83793 0.04932 0.26091 0.0
H1019 H 0.83565 0.07933 0.34314 0.0
C1020 C 0.70727 0.03202 0.29135 0.0
N1021 N 0.73171 0.03708 0.28017 0.0
C1022 C 0.68446 0.04389 0.27999 0.0
C1023 C 0.71242 0.06531 0.2455 0.0
C1024 C 0.73462 0.05303 0.25746 0.0
C1025 C 0.68712 0.06115 0.25715 0.0
H1026 H 0.70565 0.01959 0.30969 0.0
H1027 H 0.75433 0.05708 0.24931 0.0
O1028 O 0.81972 0.00593 0.33418 0.0
O1029 O 0.76168 0.99205 0.32079 0.0
O1030 O 0.77508 0.04967 0.32807 0.0
O1031 O 0.79532 0.01995 0.27455 0.0
H1032 H 0.85988 0.99614 0.29983 0.0
H1033 H 0.83806 0.03348 0.37727 0.0
H1034 H 0.90663 0.01093 0.30729 0.0
H1035 H 0.88525 0.04732 0.38354 0.0
H1036 H 0.69821 0.92771 0.31202 0.0
H1037 H 0.77563 0.96255 0.36426 0.0
H1038 H 0.7203 0.96935 0.29601 0.0
H1039 H 0.75232 0.9213 0.37932 0.0
H1040 H 0.80175 0.99495 0.44598 0.0
H1041 H 0.72383 0.02752 0.42774 0.0
H1042 H 0.85717 0.93948 0.24067 0.0
H1043 H 0.82053 0.89278 0.30573 0.0
H1044 H 0.77559 0.08478 0.28686 0.0
H1045 H 0.78208 0.0752 0.37564 0.0
H1046 H 0.78196 0.13362 0.29283 0.0
H1047 H 0.78834 0.12425 0.38008 0.0
H1048 H 0.80804 0.03664 0.22405 0.0
H1049 H 0.76257 0.97824 0.26963 0.0
H1050 H 0.79167 0.01652 0.1801 0.0
H1051 H 0.74688 0.95932 0.225 0.0
H1052 H 0.8697 0.08455 0.24693 0.0
H1053 H 0.86751 0.11514 0.33085 0.0
H1054 H 0.66513 0.04049 0.28948 0.0
H1055 H 0.71504 0.07869 0.22799 0.0
Li1056 Li 0.47187 0.7337 0.20076 0.0
Li1057 Li 0.45849 0.68795 0.19027 0.0
Li1058 Li 0.50713 0.70076 0.19619 0.0
Li1059 Li 0.48242 0.714 0.1542 0.0
C1060 C 0.47461 0.71052 0.25034 0.0
N1061 N 0.46817 0.73055 0.30349 0.0
C1062 C 0.4508 0.7061 0.26481 0.0
C1063 C 0.4953 0.72473 0.26304 0.0
C1064 C 0.44789 0.7165 0.29163 0.0
C1065 C 0.49162 0.7348 0.28988 0.0
C1066 C 0.42336 0.71738 0.15755 0.0
C1067 C 0.39829 0.69715 0.1202 0.0
N1068 N 0.37582 0.70959 0.12943 0.0
C1069 C 0.40007 0.73015 0.16651 0.0
C1070 C 0.42251 0.70089 0.1341 0.0
C1071 C 0.37621 0.72587 0.15208 0.0
C1072 C 0.47297 0.78795 0.21977 0.0
N1073 N 0.45908 0.7646 0.2194 0.0
C1074 C 0.42259 0.78471 0.2436 0.0
C1075 C 0.43442 0.76259 0.23105 0.0
C1076 C 0.43623 0.80911 0.24384 0.0
C1077 C 0.46179 0.81071 0.23202 0.0
H1078 H 0.49239 0.78907 0.21 0.0
H1079 H 0.42372 0.74386 0.23007 0.0
C1080 C 0.43748 0.63532 0.19549 0.0
N1081 N 0.43204 0.66183 0.19807 0.0
C1082 C 0.41835 0.61633 0.20305 0.0
C1083 C 0.38863 0.65231 0.21615 0.0
C1084 C 0.4082 0.67057 0.2081 0.0
C1085 C 0.39377 0.62491 0.21381 0.0
H1086 H 0.45687 0.62893 0.18816 0.0
H1087 H 0.40468 0.69173 0.21059 0.0
C1088 C 0.53065 0.74653 0.177 0.0
N1089 N 0.58224 0.76591 0.17389 0.0
C1090 C 0.54447 0.74594 0.15173 0.0
C1091 C 0.54293 0.75729 0.20059 0.0
C1092 C 0.57057 0.75578 0.1506 0.0
C1093 C 0.56907 0.76687 0.19863 0.0
C1094 C 0.4962 0.65848 0.14821 0.0
C1095 C 0.52289 0.65214 0.14273 0.0
C1096 C 0.47591 0.64505 0.13392 0.0
C1097 C 0.52884 0.63282 0.12269 0.0
C1098 C 0.48268 0.62587 0.11402 0.0
N1099 N 0.50878 0.62022 0.10884 0.0
C1100 C 0.53828 0.6722 0.2338 0.0
C1101 C 0.56362 0.68944 0.19617 0.0
C1102 C 0.56041 0.65817 0.24365 0.0
N1103 N 0.54012 0.68713 0.21024 0.0
C1104 C 0.58631 0.67576 0.20533 0.0
C1105 C 0.58453 0.65946 0.22897 0.0
H1106 H 0.51928 0.67027 0.24431 0.0
H1107 H 0.56449 0.70067 0.17704 0.0
C1108 C 0.46925 0.74277 0.10635 0.0
N1109 N 0.48431 0.72187 0.11536 0.0
C1110 C 0.46915 0.74987 0.07826 0.0
C1111 C 0.50042 0.71408 0.06922 0.0
C1112 C 0.49996 0.70772 0.0975 0.0
C1113 C 0.48481 0.73533 0.05944 0.0
H1114 H 0.45723 0.75388 0.12105 0.0
H1115 H 0.51229 0.69169 0.10513 0.0
O1116 O 0.47763 0.70105 0.22382 0.0
O1117 O 0.44686 0.72125 0.17154 0.0
O1118 O 0.50504 0.73711 0.17847 0.0
O1119 O 0.49004 0.6772 0.16798 0.0
H1120 H 0.43466 0.69498 0.25536 0.0
H1121 H 0.51398 0.72794 0.25227 0.0
H1122 H 0.42949 0.71342 0.30299 0.0
H1123 H 0.50741 0.74598 0.29991 0.0
H1124 H 0.39738 0.68442 0.10203 0.0
H1125 H 0.40037 0.74318 0.18446 0.0
H1126 H 0.44039 0.69129 0.12655 0.0
H1127 H 0.35802 0.73554 0.15888 0.0
H1128 H 0.40273 0.78302 0.25238 0.0
H1129 H 0.47263 0.82943 0.23177 0.0
H1130 H 0.42288 0.59524 0.20129 0.0
H1131 H 0.36987 0.65944 0.22459 0.0
H1132 H 0.53524 0.73787 0.13322 0.0
H1133 H 0.5324 0.75828 0.2202 0.0
H1134 H 0.58155 0.75533 0.13122 0.0
H1135 H 0.57887 0.77513 0.21676 0.0
H1136 H 0.53886 0.66217 0.15362 0.0
H1137 H 0.45514 0.64914 0.1383 0.0
H1138 H 0.54942 0.62787 0.11814 0.0
H1139 H 0.46716 0.61538 0.10278 0.0
H1140 H 0.55846 0.64556 0.26186 0.0
H1141 H 0.60466 0.67686 0.19344 0.0
H1142 H 0.45699 0.76645 0.07125 0.0
H1143 H 0.51284 0.70265 0.05512 0.0
Li1144 Li 0.76338 0.47276 0.69801 0.0
Li1145 Li 0.81001 0.46153 0.68849 0.0
Li1146 Li 0.79608 0.50768 0.69643 0.0
Li1147 Li 0.78406 0.48443 0.65363 0.0
C1148 C 0.78502 0.46803 0.74706 0.0
N1149 N 0.76273 0.44739 0.79507 0.0
C1150 C 0.79161 0.44225 0.75585 0.0
C1151 C 0.76725 0.48339 0.76279 0.0
C1152 C 0.78012 0.43218 0.78018 0.0
C1153 C 0.75612 0.47256 0.78694 0.0
C1154 C 0.76818 0.43452 0.64736 0.0
C1155 C 0.7746 0.41316 0.60285 0.0
N1156 N 0.74787 0.4086 0.60119 0.0
C1157 C 0.74077 0.42956 0.64525 0.0
C1158 C 0.78527 0.42618 0.62604 0.0
C1159 C 0.7309 0.41643 0.62174 0.0
C1160 C 0.70982 0.47379 0.71939 0.0
N1161 N 0.73206 0.45878 0.71491 0.0
C1162 C 0.71079 0.42007 0.7336 0.0
C1163 C 0.73292 0.43243 0.72167 0.0
C1164 C 0.68757 0.43497 0.73829 0.0
C1165 C 0.68708 0.46214 0.73118 0.0
H1166 H 0.70967 0.49464 0.71357 0.0
H1167 H 0.75079 0.42098 0.7175 0.0
C1168 C 0.85584 0.44231 0.71574 0.0
N1169 N 0.83706 0.43599 0.69636 0.0
C1170 C 0.87429 0.42318 0.72447 0.0
C1171 C 0.85395 0.39151 0.69288 0.0
C1172 C 0.83591 0.41127 0.6847 0.0
C1173 C 0.87308 0.39739 0.71326 0.0
H1174 H 0.85582 0.46194 0.72513 0.0
H1175 H 0.82041 0.4066 0.66985 0.0
C1176 C 0.75472 0.53326 0.67772 0.0
N1177 N 0.74504 0.58756 0.6787 0.0
C1178 C 0.75916 0.54868 0.65392 0.0
C1179 C 0.74521 0.5454 0.70197 0.0
C1180 C 0.75416 0.57612 0.65485 0.0
C1181 C 0.7405 0.57291 0.70206 0.0
C1182 C 0.84692 0.49 0.6648 0.0
C1183 C 0.86422 0.50315 0.68308 0.0
C1184 C 0.85726 0.47202 0.64532 0.0
C1185 C 0.89162 0.49803 0.68161 0.0
C1186 C 0.88477 0.46737 0.64457 0.0
N1187 N 0.90123 0.48037 0.66257 0.0
C1188 C 0.8122 0.54306 0.73916 0.0
C1189 C 0.81771 0.55947 0.69317 0.0
C1190 C 0.82643 0.56471 0.7499 0.0
N1191 N 0.80864 0.5406 0.71122 0.0
C1192 C 0.83205 0.58144 0.70302 0.0
C1193 C 0.83712 0.58371 0.7316 0.0
H1194 H 0.80539 0.52744 0.75295 0.0
H1195 H 0.81522 0.55658 0.67102 0.0
C1196 C 0.75148 0.48541 0.60616 0.0
N1197 N 0.77719 0.48803 0.61488 0.0
C1198 C 0.74544 0.48606 0.57783 0.0
C1199 C 0.79225 0.4937 0.56807 0.0
C1200 C 0.79746 0.49246 0.59661 0.0
C1201 C 0.76602 0.49007 0.55853 0.0
H1202 H 0.73575 0.48235 0.62124 0.0
H1203 H 0.81765 0.49481 0.60418 0.0
O1204 O 0.79544 0.47799 0.72286 0.0
O1205 O 0.77819 0.4478 0.66996 0.0
O1206 O 0.75998 0.50648 0.67741 0.0
O1207 O 0.81996 0.49428 0.6663 0.0
H1208 H 0.80515 0.42997 0.74385 0.0
H1209 H 0.76176 0.5033 0.75616 0.0
H1210 H 0.78493 0.4122 0.78715 0.0
H1211 H 0.74214 0.48413 0.79917 0.0
H1212 H 0.78758 0.40676 0.58612 0.0
H1213 H 0.7272 0.43605 0.6614 0.0
H1214 H 0.80649 0.43006 0.62721 0.0
H1215 H 0.70972 0.41257 0.61977 0.0
H1216 H 0.7116 0.39902 0.73876 0.0
H1217 H 0.66928 0.47402 0.73449 0.0
H1218 H 0.88868 0.42811 0.74051 0.0
H1219 H 0.85241 0.37161 0.68417 0.0
H1220 H 0.76662 0.53961 0.63502 0.0
H1221 H 0.74177 0.53375 0.72059 0.0
H1222 H 0.75761 0.58833 0.63662 0.0
H1223 H 0.73329 0.58261 0.72072 0.0
H1224 H 0.85662 0.5169 0.6985 0.0
H1225 H 0.84415 0.46151 0.63116 0.0
H1226 H 0.90521 0.50799 0.6957 0.0
H1227 H 0.89302 0.45338 0.62972 0.0
H1228 H 0.83037 0.56585 0.77204 0.0
H1229 H 0.84041 0.59565 0.68843 0.0
H1230 H 0.72499 0.48337 0.571 0.0
H1231 H 0.80848 0.49696 0.55356 0.0
Li1232 Li 0.03975 0.80866 0.18714 0.0
Li1233 Li 0.02494 0.75981 0.19749 0.0
Li1234 Li 0.01535 0.78227 0.15319 0.0
Li1235 Li 0.99247 0.79564 0.19277 0.0
C1236 C 0.06547 0.76605 0.14739 0.0
N1237 N 0.09304 0.74916 0.10082 0.0
C1238 C 0.0622 0.74 0.13753 0.0
C1239 C 0.08289 0.78347 0.13372 0.0
C1240 C 0.07626 0.73186 0.1139 0.0
C1241 C 0.09664 0.77455 0.11018 0.0
C1242 C 0.00961 0.7992 0.24484 0.0
C1243 C 0.98504 0.7868 0.286 0.0
N1244 N 0.98328 0.81301 0.29323 0.0
C1245 C 0.00765 0.82599 0.25269 0.0
C1246 C 0.9983 0.7794 0.26161 0.0
C1247 C 0.99422 0.83258 0.27723 0.0
C1248 C 0.05935 0.86012 0.1999 0.0
N1249 N 0.06637 0.83421 0.19553 0.0
C1250 C 0.11178 0.8436 0.20723 0.0
C1251 C 0.09196 0.82571 0.19886 0.0
C1252 C 0.10497 0.87029 0.21239 0.0
C1253 C 0.07852 0.87868 0.20845 0.0
H1254 H 0.03876 0.86618 0.19733 0.0
H1255 H 0.09683 0.80489 0.19556 0.0
C1256 C 0.03332 0.70405 0.20356 0.0
N1257 N 0.03706 0.72843 0.21544 0.0
C1258 C 0.04548 0.68145 0.21501 0.0
C1259 C 0.06428 0.70942 0.25114 0.0
C1260 C 0.05187 0.73146 0.23895 0.0
C1261 C 0.0615 0.68424 0.23878 0.0
H1262 H 0.02163 0.70234 0.18471 0.0
H1263 H 0.05477 0.75117 0.24766 0.0
C1264 C 0.00368 0.83301 0.14108 0.0
N1265 N 0.99343 0.8597 0.09194 0.0
C1266 C 0.97933 0.82937 0.12738 0.0
C1267 C 0.02267 0.85052 0.13006 0.0
C1268 C 0.97458 0.84294 0.10246 0.0
C1269 C 0.01713 0.86377 0.10513 0.0
C1270 C 0.96672 0.75003 0.18148 0.0
C1271 C 0.94491 0.75867 0.16571 0.0
C1272 C 0.96284 0.73158 0.20294 0.0
C1273 C 0.91944 0.74901 0.17199 0.0
C1274 C 0.93706 0.72233 0.2085 0.0
N1275 N 0.91607 0.7312 0.19307 0.0
C1276 C 0.99719 0.75431 0.10584 0.0
C1277 C 0.02703 0.78967 0.09522 0.0
C1278 C 0.99531 0.74751 0.07772 0.0
N1279 N 0.01284 0.77509 0.11403 0.0
C1280 C 0.02553 0.78373 0.0669 0.0
C1281 C 0.00959 0.76239 0.05802 0.0
H1282 H 0.98642 0.74278 0.12119 0.0
H1283 H 0.03982 0.80567 0.10221 0.0
C1284 C 0.95578 0.83661 0.20095 0.0
N1285 N 0.96 0.81054 0.2076 0.0
C1286 C 0.93421 0.85048 0.21219 0.0
C1287 C 0.92121 0.81043 0.23679 0.0
C1288 C 0.94326 0.79733 0.22522 0.0
C1289 C 0.91683 0.8374 0.23045 0.0
H1290 H 0.96962 0.84695 0.18751 0.0
H1291 H 0.94738 0.77695 0.23103 0.0
O1292 O 0.0514 0.77459 0.1701 0.0
O1293 O 0.02233 0.79237 0.22071 0.0
O1294 O 0.00875 0.81982 0.16542 0.0
O1295 O 0.99183 0.75909 0.17552 0.0
H1296 H 0.04864 0.72635 0.14778 0.0
H1297 H 0.08548 0.80377 0.14098 0.0
H1298 H 0.07376 0.71182 0.10588 0.0
H1299 H 0.11006 0.78785 0.09927 0.0
H1300 H 0.97606 0.77172 0.29913 0.0
H1301 H 0.0162 0.84154 0.23983 0.0
H1302 H 0.99952 0.75857 0.2557 0.0
H1303 H 0.9924 0.85325 0.28351 0.0
H1304 H 0.13204 0.83661 0.21032 0.0
H1305 H 0.07275 0.89917 0.21248 0.0
H1306 H 0.0432 0.66222 0.20497 0.0
H1307 H 0.07672 0.71212 0.26937 0.0
H1308 H 0.96433 0.81612 0.13585 0.0
H1309 H 0.04159 0.85359 0.14047 0.0
H1310 H 0.95591 0.84016 0.09151 0.0
H1311 H 0.03171 0.87724 0.09622 0.0
H1312 H 0.94764 0.77269 0.14883 0.0
H1313 H 0.9795 0.72467 0.21533 0.0
H1314 H 0.90235 0.75563 0.16006 0.0
H1315 H 0.93372 0.70817 0.22514 0.0
H1316 H 0.98298 0.73081 0.07137 0.0
H1317 H 0.03696 0.79539 0.0521 0.0
H1318 H 0.93139 0.87138 0.20714 0.0
H1319 H 0.90822 0.79996 0.25114 0.0
Li1320 Li 0.68949 0.03815 0.68801 0.0
Li1321 Li 0.7369 0.02322 0.69876 0.0
Li1322 Li 0.71448 0.01236 0.65276 0.0
Li1323 Li 0.69999 0.99201 0.6951 0.0
C1324 C 0.72829 0.07198 0.65753 0.0
N1325 N 0.73857 0.12147 0.63435 0.0
C1326 C 0.74277 0.09109 0.67243 0.0
C1327 C 0.71937 0.07794 0.63065 0.0
C1328 C 0.74765 0.11603 0.66042 0.0
C1329 C 0.72469 0.10309 0.61935 0.0
C1330 C 0.69821 0.0096 0.74642 0.0
C1331 C 0.71091 0.98332 0.7863 0.0
N1332 N 0.685 0.98302 0.79483 0.0
C1333 C 0.67173 0.00915 0.75559 0.0
C1334 C 0.71801 0.9967 0.76188 0.0
C1335 C 0.66545 0.99557 0.78013 0.0
C1336 C 0.63822 0.05919 0.69829 0.0
N1337 N 0.66454 0.06564 0.69611 0.0
C1338 C 0.65571 0.11033 0.71084 0.0
C1339 C 0.67353 0.09059 0.70216 0.0
C1340 C 0.62855 0.10411 0.71354 0.0
C1341 C 0.61969 0.07832 0.70697 0.0
H1342 H 0.63175 0.03899 0.694 0.0
H1343 H 0.69462 0.09494 0.70113 0.0
C1344 C 0.79316 0.02777 0.70626 0.0
N1345 N 0.76871 0.03496 0.71605 0.0
C1346 C 0.81619 0.03965 0.71715 0.0
C1347 C 0.78832 0.06557 0.74821 0.0
C1348 C 0.76592 0.05301 0.73699 0.0
C1349 C 0.81373 0.05927 0.73787 0.0
H1350 H 0.79467 0.01351 0.68942 0.0
H1351 H 0.74615 0.05846 0.74409 0.0
C1352 C 0.65855 0.01222 0.64545 0.0
N1353 N 0.62136 0.02206 0.6042 0.0
C1354 C 0.64182 0.99173 0.6361 0.0
C1355 C 0.6562 0.03775 0.63397 0.0
C1356 C 0.6232 0.99709 0.61517 0.0
C1357 C 0.63732 0.04232 0.61311 0.0
C1358 C 0.7401 0.96273 0.6713 0.0
C1359 C 0.72248 0.94972 0.65327 0.0
C1360 C 0.76145 0.94869 0.68298 0.0
C1361 C 0.72657 0.92275 0.64717 0.0
C1362 C 0.76487 0.92174 0.67633 0.0
N1363 N 0.7475 0.90944 0.65872 0.0
C1364 C 0.74655 0.01927 0.60587 0.0
C1365 C 0.70547 0.99786 0.59556 0.0
C1366 C 0.7537 0.01908 0.57779 0.0
N1367 N 0.72263 0.00911 0.61413 0.0
C1368 C 0.71169 0.99746 0.56724 0.0
C1369 C 0.73597 0.00836 0.55816 0.0
H1370 H 0.75988 0.02792 0.62113 0.0
H1371 H 0.6869 0.98931 0.60258 0.0
C1372 C 0.65769 0.95884 0.70784 0.0
N1373 N 0.68465 0.9605 0.71066 0.0
C1374 C 0.64373 0.9375 0.71935 0.0
C1375 C 0.68548 0.91982 0.73679 0.0
C1376 C 0.69874 0.94155 0.72472 0.0
C1377 C 0.65764 0.9178 0.73409 0.0
H1378 H 0.64694 0.97449 0.69716 0.0
H1379 H 0.72012 0.94362 0.7271 0.0
O1380 O 0.72369 0.04731 0.66888 0.0
O1381 O 0.70469 0.0223 0.72219 0.0
O1382 O 0.67689 0.00715 0.66589 0.0
O1383 O 0.73614 0.98895 0.678 0.0
H1384 H 0.75001 0.08682 0.69315 0.0
H1385 H 0.70869 0.06328 0.61845 0.0
H1386 H 0.7587 0.13104 0.67181 0.0
H1387 H 0.71786 0.10795 0.59859 0.0
H1388 H 0.72598 0.9731 0.79842 0.0
H1389 H 0.65619 0.01898 0.74374 0.0
H1390 H 0.73858 0.9968 0.75493 0.0
H1391 H 0.64502 0.99491 0.78743 0.0
H1392 H 0.6631 0.13003 0.71611 0.0
H1393 H 0.59884 0.07293 0.70918 0.0
H1394 H 0.8356 0.03441 0.7088 0.0
H1395 H 0.78583 0.08066 0.76416 0.0
H1396 H 0.64342 0.97182 0.64471 0.0
H1397 H 0.6686 0.05392 0.64128 0.0
H1398 H 0.61024 0.98139 0.60763 0.0
H1399 H 0.6353 0.062 0.60406 0.0
H1400 H 0.70564 0.96024 0.64439 0.0
H1401 H 0.77515 0.9585 0.69711 0.0
H1402 H 0.71305 0.91238 0.63332 0.0
H1403 H 0.78129 0.91058 0.68522 0.0
H1404 H 0.77263 0.02755 0.57136 0.0
H1405 H 0.6977 0.98889 0.55253 0.0
H1406 H 0.6222 0.93661 0.71725 0.0
H1407 H 0.69665 0.90503 0.7484 0.0
C1408 C 0.39013 0.14095 0.27049 0.0
C1409 C 0.39196 0.14439 0.24128 0.0
C1410 C 0.35394 0.11426 0.23464 0.0
C1411 C 0.35521 0.10738 0.26323 0.0
N1412 N 0.37544 0.11277 0.3085 0.0
N1413 N 0.37671 0.13366 0.19498 0.0
C1414 C 0.37327 0.12063 0.28134 0.0
C1415 C 0.37389 0.13117 0.22316 0.0
N1416 N 0.40456 0.15716 0.28776 0.0
N1417 N 0.33355 0.10463 0.21858 0.0
H1418 H 0.39079 0.14622 0.18578 0.0
H1419 H 0.36629 0.12203 0.18066 0.0
H1420 H 0.31863 0.09221 0.22652 0.0
H1421 H 0.33002 0.11082 0.19822 0.0
H1422 H 0.40223 0.15742 0.30929 0.0
H1423 H 0.41713 0.17218 0.28032 0.0
H1424 H 0.39043 0.11944 0.32182 0.0
H1425 H 0.36334 0.09811 0.31735 0.0
C1426 C 0.35192 0.36767 0.73347 0.0
C1427 C 0.35129 0.3939 0.74461 0.0
C1428 C 0.38565 0.38164 0.77856 0.0
C1429 C 0.38925 0.35699 0.76458 0.0
N1430 N 0.37712 0.32661 0.72777 0.0
N1431 N 0.36986 0.42714 0.77557 0.0
C1432 C 0.37253 0.34984 0.74193 0.0
C1433 C 0.36856 0.40119 0.76681 0.0
N1434 N 0.33264 0.3598 0.71508 0.0
N1435 N 0.39853 0.38626 0.80319 0.0
H1436 H 0.35802 0.44229 0.76729 0.0
H1437 H 0.38428 0.43417 0.78937 0.0
H1438 H 0.4112 0.37227 0.81241 0.0
H1439 H 0.39465 0.40275 0.81578 0.0
H1440 H 0.33046 0.34022 0.70815 0.0
H1441 H 0.31728 0.37246 0.7086 0.0
H1442 H 0.36767 0.32171 0.70915 0.0
H1443 H 0.3917 0.31287 0.73373 0.0
C1444 C 0.12927 0.35708 0.23087 0.0
C1445 C 0.10604 0.35087 0.2465 0.0
C1446 C 0.11997 0.38158 0.28338 0.0
C1447 C 0.14338 0.38764 0.26792 0.0
N1448 N 0.17362 0.3767 0.23066 0.0
N1449 N 0.08274 0.35131 0.29032 0.0
C1450 C 0.14912 0.37384 0.24285 0.0
C1451 C 0.10262 0.36116 0.27374 0.0
N1452 N 0.13171 0.34807 0.20414 0.0
N1453 N 0.11343 0.39639 0.30631 0.0
H1454 H 0.0698 0.33623 0.28377 0.0
H1455 H 0.08075 0.35615 0.3113 0.0
H1456 H 0.12543 0.41169 0.31408 0.0
H1457 H 0.09509 0.39494 0.31642 0.0
H1458 H 0.14659 0.35451 0.19056 0.0
H1459 H 0.11782 0.33536 0.19485 0.0
H1460 H 0.17999 0.36531 0.21378 0.0
H1461 H 0.18856 0.3888 0.23907 0.0
C1462 C 0.13215 0.13037 0.72023 0.0
C1463 C 0.14844 0.11548 0.73876 0.0
C1464 C 0.12894 0.13866 0.77879 0.0
C1465 C 0.11151 0.15235 0.76038 0.0
N1466 N 0.10005 0.16632 0.71396 0.0
N1467 N 0.16719 0.10919 0.78439 0.0
C1468 C 0.11444 0.14997 0.73114 0.0
C1469 C 0.14852 0.12104 0.76768 0.0
N1470 N 0.13277 0.12473 0.69238 0.0
N1471 N 0.12582 0.14166 0.8069 0.0
H1472 H 0.18149 0.09592 0.77676 0.0
H1473 H 0.16994 0.11388 0.80528 0.0
H1474 H 0.11249 0.15534 0.81558 0.0
H1475 H 0.13558 0.13005 0.82169 0.0
H1476 H 0.11928 0.13239 0.67798 0.0
H1477 H 0.14642 0.11138 0.68367 0.0
H1478 H 0.10273 0.16734 0.69252 0.0
H1479 H 0.08659 0.18052 0.72143 0.0
C1480 C 0.60544 0.88495 0.7792 0.0
C1481 C 0.60507 0.85862 0.76819 0.0
C1482 C 0.64136 0.87019 0.73608 0.0
C1483 C 0.64231 0.89615 0.74788 0.0
N1484 N 0.63048 0.92594 0.78526 0.0
N1485 N 0.62621 0.82434 0.74075 0.0
C1486 C 0.62605 0.90272 0.77102 0.0
C1487 C 0.62422 0.85064 0.74807 0.0
N1488 N 0.58525 0.89358 0.79615 0.0
N1489 N 0.65588 0.86458 0.71271 0.0
H1490 H 0.61397 0.80958 0.74927 0.0
H1491 H 0.64141 0.81682 0.7282 0.0
H1492 H 0.66895 0.87826 0.70362 0.0
H1493 H 0.65367 0.84706 0.70127 0.0
H1494 H 0.58298 0.91343 0.80217 0.0
H1495 H 0.56932 0.88152 0.80225 0.0
H1496 H 0.62101 0.93062 0.80394 0.0
H1497 H 0.64563 0.93928 0.77987 0.0
C1498 C 0.61078 0.61724 0.22269 0.0
C1499 C 0.60696 0.64173 0.23707 0.0
C1500 C 0.64059 0.62885 0.27166 0.0
C1501 C 0.64447 0.60447 0.25718 0.0
N1502 N 0.63805 0.57771 0.21604 0.0
N1503 N 0.62145 0.67346 0.27154 0.0
C1504 C 0.63116 0.59948 0.23166 0.0
C1505 C 0.62296 0.64837 0.26042 0.0
N1506 N 0.59399 0.61033 0.20139 0.0
N1507 N 0.6531 0.63289 0.29661 0.0
H1508 H 0.60863 0.6881 0.26375 0.0
H1509 H 0.63428 0.68053 0.28692 0.0
H1510 H 0.66703 0.61951 0.30478 0.0
H1511 H 0.64878 0.64872 0.3099 0.0
H1512 H 0.59361 0.59145 0.19233 0.0
H1513 H 0.57898 0.62286 0.19391 0.0
H1514 H 0.63114 0.57439 0.19589 0.0
H1515 H 0.65255 0.56403 0.22227 0.0
C1516 C 0.90163 0.61406 0.75883 0.0
C1517 C 0.89421 0.64131 0.76135 0.0
C1518 C 0.84859 0.63058 0.74635 0.0
C1519 C 0.8566 0.60374 0.7419 0.0
N1520 N 0.89153 0.57057 0.73941 0.0
N1521 N 0.86204 0.67652 0.75488 0.0
C1522 C 0.88335 0.59563 0.74695 0.0
C1523 C 0.86804 0.64989 0.75436 0.0
N1524 N 0.92601 0.60569 0.76833 0.0
N1525 N 0.82227 0.63738 0.74356 0.0
H1526 H 0.87563 0.69103 0.7614 0.0
H1527 H 0.8443 0.68448 0.74721 0.0
H1528 H 0.80766 0.62378 0.73732 0.0
H1529 H 0.81453 0.65589 0.74922 0.0
H1530 H 0.93131 0.58567 0.77024 0.0
H1531 H 0.9404 0.61865 0.77635 0.0
H1532 H 0.91142 0.5645 0.7395 0.0
H1533 H 0.87876 0.55633 0.73081 0.0
C1534 C 0.88238 0.88642 0.27843 0.0
C1535 C 0.8579 0.89034 0.26408 0.0
C1536 C 0.87049 0.85656 0.22954 0.0
C1537 C 0.89502 0.85279 0.24382 0.0
N1538 N 0.92214 0.85938 0.28468 0.0
N1539 N 0.82598 0.87599 0.22973 0.0
C1540 C 0.90018 0.86614 0.26929 0.0
C1541 C 0.85109 0.8743 0.24081 0.0
N1542 N 0.88919 0.90302 0.29992 0.0
N1543 N 0.86624 0.84384 0.20475 0.0
H1544 H 0.81148 0.88897 0.2375 0.0
H1545 H 0.81878 0.86321 0.21439 0.0
H1546 H 0.87952 0.8298 0.19662 0.0
H1547 H 0.85029 0.84801 0.19157 0.0
H1548 H 0.90807 0.90345 0.30899 0.0
H1549 H 0.87647 0.91773 0.30769 0.0
H1550 H 0.92565 0.86631 0.30478 0.0
H1551 H 0.93588 0.845 0.27828 0.0
C1552 C 0.59733 0.34429 0.23741 0.0
C1553 C 0.57613 0.33369 0.25361 0.0
C1554 C 0.58854 0.36282 0.29257 0.0
C1555 C 0.60858 0.37459 0.27567 0.0
N1556 N 0.6286 0.38059 0.23044 0.0
N1557 N 0.54846 0.33557 0.2946 0.0
C1558 C 0.61192 0.36654 0.24758 0.0
C1559 C 0.5708 0.34377 0.28064 0.0
N1560 N 0.60428 0.3324 0.21281 0.0
N1561 N 0.58706 0.36917 0.3202 0.0
H1562 H 0.53514 0.32157 0.28647 0.0
H1563 H 0.54194 0.34417 0.31312 0.0
H1564 H 0.59951 0.38327 0.32954 0.0
H1565 H 0.57488 0.35914 0.33431 0.0
H1566 H 0.62144 0.33734 0.2017 0.0
H1567 H 0.59418 0.31599 0.20456 0.0
H1568 H 0.62966 0.3775 0.20903 0.0
H1569 H 0.63968 0.39704 0.23714 0.0
C1570 C 0.14684 0.57022 0.77754 0.0
C1571 C 0.16311 0.57933 0.75532 0.0
C1572 C 0.13822 0.62141 0.75351 0.0
C1573 C 0.12089 0.61166 0.77455 0.0
N1574 N 0.1057 0.57561 0.80375 0.0
N1575 N 0.17147 0.61103 0.71851 0.0
C1576 C 0.12431 0.58567 0.78576 0.0
C1577 C 0.15796 0.60419 0.74221 0.0
N1578 N 0.15343 0.54725 0.79132 0.0
N1579 N 0.1364 0.64742 0.745 0.0
H1580 H 0.18615 0.59897 0.70958 0.0
H1581 H 0.16658 0.62749 0.70629 0.0
H1582 H 0.12202 0.66066 0.75253 0.0
H1583 H 0.15043 0.65656 0.73215 0.0
H1584 H 0.14416 0.54102 0.80959 0.0
H1585 H 0.16954 0.53526 0.78555 0.0
H1586 H 0.10547 0.55583 0.81043 0.0
H1587 H 0.08915 0.58655 0.81042 0.0
C1588 C 0.87616 0.14735 0.26582 0.0
C1589 C 0.88808 0.12507 0.27916 0.0
C1590 C 0.93235 0.14553 0.27425 0.0
C1591 C 0.92067 0.16646 0.25851 0.0
N1592 N 0.88218 0.18584 0.23594 0.0
N1593 N 0.92732 0.1012 0.29413 0.0
C1594 C 0.89273 0.16704 0.25344 0.0
C1595 C 0.91615 0.1237 0.28296 0.0
N1596 N 0.84895 0.14991 0.26551 0.0
N1597 N 0.95878 0.14686 0.28128 0.0
H1598 H 0.91598 0.08515 0.30135 0.0
H1599 H 0.9478 0.09763 0.29467 0.0
H1600 H 0.97123 0.16239 0.27485 0.0
H1601 H 0.96796 0.13374 0.2951 0.0
H1602 H 0.83911 0.16709 0.25888 0.0
H1603 H 0.8361 0.13571 0.27407 0.0
H1604 H 0.86255 0.18539 0.22882 0.0
H1605 H 0.89356 0.20085 0.22667 0.0
C1606 C 0.33259 0.89688 0.74948 0.0
C1607 C 0.33116 0.92421 0.7572 0.0
C1608 C 0.36982 0.91848 0.78802 0.0
C1609 C 0.37262 0.89186 0.77832 0.0
N1610 N 0.35985 0.85706 0.7462 0.0
N1611 N 0.3502 0.96226 0.78067 0.0
C1612 C 0.3549 0.88142 0.75801 0.0
C1613 C 0.35027 0.93538 0.77565 0.0
N1614 N 0.31216 0.88544 0.7348 0.0
N1615 N 0.38537 0.92733 0.80952 0.0
H1616 H 0.33605 0.97517 0.77211 0.0
H1617 H 0.36527 0.97209 0.79154 0.0
H1618 H 0.40008 0.91557 0.81882 0.0
H1619 H 0.38239 0.94552 0.81955 0.0
H1620 H 0.3107 0.86497 0.73123 0.0
H1621 H 0.29532 0.896 0.72829 0.0
H1622 H 0.34938 0.84976 0.72908 0.0
H1623 H 0.376 0.84506 0.75186 0.0
C1624 C 0.5739 0.15697 0.71822 0.0
C1625 C 0.57689 0.16509 0.74634 0.0
C1626 C 0.61048 0.13024 0.75375 0.0
C1627 C 0.60976 0.12425 0.7249 0.0
N1628 N 0.59311 0.13352 0.67882 0.0
N1629 N 0.60052 0.16227 0.79006 0.0
C1630 C 0.592 0.13796 0.70687 0.0
C1631 C 0.59578 0.15241 0.76396 0.0
N1632 N 0.55343 0.16705 0.7026 0.0
N1633 N 0.62475 0.11433 0.77148 0.0
H1634 H 0.59019 0.17848 0.79842 0.0
H1635 H 0.61619 0.15581 0.80262 0.0
H1636 H 0.63578 0.09787 0.76476 0.0
H1637 H 0.62375 0.11595 0.79307 0.0
H1638 H 0.54847 0.15995 0.68289 0.0
H1639 H 0.53988 0.18107 0.71028 0.0
H1640 H 0.58282 0.14501 0.66428 0.0
H1641 H 0.60591 0.11955 0.6698 0.0
C1642 C 0.37538 0.59597 0.25173 0.0
C1643 C 0.3737 0.6054 0.22393 0.0
C1644 C 0.3319 0.58066 0.21697 0.0
C1645 C 0.33215 0.57364 0.24557 0.0
N1646 N 0.35311 0.57461 0.29072 0.0
N1647 N 0.3508 0.60778 0.17991 0.0
C1648 C 0.35377 0.58107 0.26305 0.0
C1649 C 0.35218 0.59782 0.20639 0.0
N1650 N 0.39773 0.60119 0.2672 0.0
N1651 N 0.31228 0.57078 0.20002 0.0
H1652 H 0.36589 0.61942 0.17114 0.0
H1653 H 0.33428 0.60567 0.16696 0.0
H1654 H 0.29674 0.55879 0.20731 0.0
H1655 H 0.31219 0.57286 0.17848 0.0
H1656 H 0.40163 0.59261 0.28649 0.0
H1657 H 0.41353 0.61286 0.25997 0.0
H1658 H 0.36634 0.58216 0.30545 0.0
H1659 H 0.33837 0.56248 0.29944 0.0
C1660 C 0.91689 0.37294 0.7156 0.0
C1661 C 0.89011 0.37585 0.72479 0.0
C1662 C 0.89458 0.33619 0.75428 0.0
C1663 C 0.92194 0.33444 0.74673 0.0
N1664 N 0.96034 0.35257 0.72317 0.0
N1665 N 0.85452 0.36329 0.75603 0.0
C1666 C 0.93346 0.35322 0.72817 0.0
C1667 C 0.87924 0.35831 0.74502 0.0
N1668 N 0.9262 0.38862 0.69441 0.0
N1669 N 0.88309 0.31629 0.76969 0.0
H1670 H 0.84248 0.37913 0.7496 0.0
H1671 H 0.84678 0.3531 0.77311 0.0
H1672 H 0.89372 0.29991 0.77726 0.0
H1673 H 0.86261 0.31482 0.77314 0.0
H1674 H 0.94455 0.3857 0.6847 0.0
H1675 H 0.91472 0.40355 0.68512 0.0
H1676 H 0.97053 0.36735 0.71225 0.0
H1677 H 0.97291 0.33808 0.73166 0.0
C1678 C 0.12833 0.89193 0.25265 0.0
C1679 C 0.12537 0.88898 0.22343 0.0
C1680 C 0.16457 0.91737 0.21547 0.0
C1681 C 0.16707 0.92089 0.24465 0.0
N1682 N 0.14899 0.91599 0.29086 0.0
N1683 N 0.13724 0.9021 0.17682 0.0
C1684 C 0.14817 0.90954 0.2632 0.0
C1685 C 0.14245 0.90276 0.20475 0.0
N1686 N 0.11278 0.87715 0.27029 0.0
N1687 N 0.18388 0.92718 0.19813 0.0
H1688 H 0.12148 0.89119 0.1683 0.0
H1689 H 0.14718 0.91387 0.16227 0.0
H1690 H 0.19994 0.93859 0.20521 0.0
H1691 H 0.18499 0.92273 0.177 0.0
H1692 H 0.11606 0.87588 0.29164 0.0
H1693 H 0.09749 0.86463 0.26339 0.0
H1694 H 0.1342 0.9107 0.30504 0.0
H1695 H 0.16346 0.92859 0.29936 0.0
C1696 C 0.40218 0.64246 0.70805 0.0
C1697 C 0.38916 0.62483 0.72678 0.0
C1698 C 0.40715 0.64954 0.76665 0.0
C1699 C 0.42051 0.66693 0.74794 0.0
N1700 N 0.43465 0.67802 0.70147 0.0
N1701 N 0.3825 0.60831 0.77341 0.0
C1702 C 0.41927 0.66273 0.71878 0.0
C1703 C 0.39271 0.62735 0.75597 0.0
N1704 N 0.39753 0.64024 0.6801 0.0
N1705 N 0.40751 0.65484 0.7946 0.0
H1706 H 0.37112 0.59219 0.76641 0.0
H1707 H 0.38682 0.60726 0.79456 0.0
H1708 H 0.41876 0.67024 0.80335 0.0
H1709 H 0.39554 0.64505 0.80906 0.0
H1710 H 0.40389 0.65416 0.66546 0.0
H1711 H 0.38589 0.62503 0.67151 0.0
H1712 H 0.4368 0.67442 0.68026 0.0
H1713 H 0.44694 0.69336 0.70868 0.0
C1714 C 0.86231 0.40694 0.20936 0.0
C1715 C 0.87662 0.3894 0.22713 0.0
C1716 C 0.8488 0.40296 0.26662 0.0
C1717 C 0.83556 0.42171 0.24927 0.0
N1718 N 0.83318 0.44552 0.20574 0.0
N1719 N 0.88789 0.3753 0.27368 0.0
C1720 C 0.84341 0.42493 0.22109 0.0
C1721 C 0.87122 0.38885 0.25611 0.0
N1722 N 0.86597 0.40566 0.18119 0.0
N1723 N 0.83921 0.39763 0.29268 0.0
H1724 H 0.90472 0.36494 0.26676 0.0
H1725 H 0.88654 0.37646 0.29528 0.0
H1726 H 0.82262 0.40724 0.30117 0.0
H1727 H 0.84623 0.382 0.30498 0.0
H1728 H 0.854 0.41582 0.16697 0.0
H1729 H 0.87966 0.39279 0.17183 0.0
H1730 H 0.8401 0.45056 0.18599 0.0
H1731 H 0.8194 0.45912 0.21377 0.0
C1732 C 0.1021 0.82729 0.72924 0.0
C1733 C 0.07688 0.83431 0.74063 0.0
C1734 C 0.08545 0.88165 0.73121 0.0
C1735 C 0.11059 0.87462 0.71964 0.0
N1736 N 0.14133 0.8411 0.70321 0.0
N1737 N 0.04226 0.86682 0.74839 0.0
C1738 C 0.11839 0.84748 0.71719 0.0
C1739 C 0.06783 0.86114 0.74032 0.0
N1740 N 0.11086 0.80144 0.73098 0.0
N1741 N 0.07881 0.90801 0.73413 0.0
H1742 H 0.02904 0.85225 0.75554 0.0
H1743 H 0.03338 0.88549 0.74617 0.0
H1744 H 0.09062 0.92352 0.72646 0.0
H1745 H 0.06235 0.91473 0.74534 0.0
H1746 H 0.13022 0.79546 0.72618 0.0
H1747 H 0.09915 0.78593 0.7388 0.0
H1748 H 0.14676 0.82168 0.69799 0.0
H1749 H 0.15424 0.85542 0.695 0.0
C1750 C 0.63284 0.08735 0.20885 0.0
C1751 C 0.62283 0.109 0.22481 0.0
C1752 C 0.65491 0.09924 0.26195 0.0
C1753 C 0.66395 0.07669 0.24671 0.0
N1754 N 0.65872 0.04634 0.20818 0.0
N1755 N 0.62012 0.13224 0.2687 0.0
C1756 C 0.65203 0.06984 0.22088 0.0
C1757 C 0.63259 0.11391 0.25205 0.0
N1758 N 0.62468 0.08413 0.1819 0.0
N1759 N 0.66838 0.10735 0.28524 0.0
H1760 H 0.60371 0.14344 0.26217 0.0
H1761 H 0.62447 0.13463 0.28975 0.0
H1762 H 0.68482 0.09717 0.2933 0.0
H1763 H 0.66467 0.12539 0.29531 0.0
H1764 H 0.63338 0.0706 0.16817 0.0
H1765 H 0.6104 0.09637 0.17255 0.0
H1766 H 0.64885 0.03884 0.19078 0.0
H1767 H 0.67278 0.03315 0.21644 0.0
C1768 C 0.42368 0.8387 0.28388 0.0
C1769 C 0.42271 0.83322 0.25493 0.0
C1770 C 0.39293 0.87149 0.24762 0.0
C1771 C 0.39168 0.87523 0.27688 0.0
N1772 N 0.40449 0.8623 0.32329 0.0
N1773 N 0.40544 0.84269 0.20914 0.0
C1774 C 0.40683 0.8589 0.29515 0.0
C1775 C 0.40726 0.84932 0.23671 0.0
N1776 N 0.44101 0.82477 0.30041 0.0
N1777 N 0.38047 0.88923 0.23027 0.0
H1778 H 0.41633 0.82716 0.20017 0.0
H1779 H 0.392 0.85144 0.19536 0.0
H1780 H 0.3688 0.90505 0.23745 0.0
H1781 H 0.38311 0.88952 0.20879 0.0
H1782 H 0.44472 0.82935 0.32118 0.0
H1783 H 0.45331 0.80962 0.29279 0.0
H1784 H 0.41246 0.84924 0.33794 0.0
H1785 H 0.39327 0.87765 0.33219 0.0
C1786 C 0.64499 0.40951 0.73137 0.0
C1787 C 0.66362 0.42153 0.74979 0.0
C1788 C 0.64083 0.40162 0.78991 0.0
C1789 C 0.622 0.3899 0.77151 0.0
N1790 N 0.60276 0.38632 0.72567 0.0
N1791 N 0.67712 0.43327 0.79631 0.0
C1792 C 0.62301 0.39505 0.74249 0.0
C1793 C 0.6608 0.41894 0.77904 0.0
N1794 N 0.64894 0.41111 0.70324 0.0
N1795 N 0.64011 0.3954 0.81762 0.0
H1796 H 0.69223 0.44577 0.78895 0.0
H1797 H 0.67454 0.43444 0.81777 0.0
H1798 H 0.62524 0.38347 0.8264 0.0
H1799 H 0.65497 0.40071 0.83171 0.0
H1800 H 0.63809 0.40013 0.68874 0.0
H1801 H 0.66426 0.42232 0.6943 0.0
H1802 H 0.60076 0.39175 0.70487 0.0
H1803 H 0.58661 0.3752 0.73304 0.0
C1804 C 0.11751 0.63345 0.24693 0.0
C1805 C 0.10926 0.62012 0.27152 0.0
C1806 C 0.06784 0.64631 0.27236 0.0
C1807 C 0.07734 0.66136 0.24938 0.0
N1808 N 0.11224 0.67167 0.21646 0.0
N1809 N 0.07806 0.61478 0.30929 0.0
C1810 C 0.10242 0.65552 0.23703 0.0
C1811 C 0.08475 0.62673 0.28466 0.0
N1812 N 0.13953 0.62465 0.23277 0.0
N1813 N 0.04248 0.65047 0.282 0.0
H1814 H 0.08965 0.59985 0.31846 0.0
H1815 H 0.06201 0.62071 0.32158 0.0
H1816 H 0.02978 0.66492 0.27366 0.0
H1817 H 0.03326 0.63841 0.29679 0.0
H1818 H 0.14487 0.63149 0.21309 0.0
H1819 H 0.15144 0.6089 0.23968 0.0
H1820 H 0.1317 0.67048 0.20893 0.0
H1821 H 0.10157 0.68768 0.20814 0.0
C1822 C 0.86521 0.08994 0.78657 0.0
C1823 C 0.87898 0.10729 0.76812 0.0
C1824 C 0.84999 0.09318 0.72976 0.0
C1825 C 0.83739 0.07453 0.74775 0.0
N1826 N 0.83667 0.0511 0.79156 0.0
N1827 N 0.88885 0.12073 0.72103 0.0
C1828 C 0.84617 0.07164 0.77566 0.0
C1829 C 0.87273 0.10742 0.73932 0.0
N1830 N 0.86942 0.09176 0.81462 0.0
N1831 N 0.83946 0.09836 0.70405 0.0
H1832 H 0.9059 0.13113 0.72725 0.0
H1833 H 0.88682 0.11928 0.6995 0.0
H1834 H 0.82252 0.0888 0.69632 0.0
H1835 H 0.84609 0.11389 0.69139 0.0
H1836 H 0.85782 0.08174 0.82927 0.0
H1837 H 0.88308 0.105 0.82347 0.0
H1838 H 0.84428 0.04635 0.81112 0.0
H1839 H 0.82286 0.03721 0.78411 0.0
C1840 C 0.52467 0.22832 0.00751 0.0
C1841 C 0.50857 0.24306 0.02635 0.0
C1842 C 0.49386 0.27227 0.98837 0.0
C1843 C 0.50835 0.25626 0.96924 0.0
N1844 N 0.53323 0.21606 0.95954 0.0
N1845 N 0.474 0.27574 0.03425 0.0
C1846 C 0.52249 0.23337 0.97851 0.0
C1847 C 0.49201 0.26409 0.01663 0.0
N1848 N 0.54279 0.21021 0.01739 0.0
N1849 N 0.48272 0.2958 0.97977 0.0
H1850 H 0.47201 0.27018 0.05507 0.0
H1851 H 0.45945 0.28921 0.02768 0.0
H1852 H 0.48367 0.3025 0.95923 0.0
H1853 H 0.47448 0.30974 0.99336 0.0
H1854 H 0.55713 0.20106 0.00491 0.0
H1855 H 0.54506 0.20596 0.03851 0.0
H1856 H 0.5413 0.1976 0.96494 0.0
H1857 H 0.53194 0.21901 0.93809 0.0
C1858 C 0.23426 0.48877 0.49112 0.0
C1859 C 0.23569 0.51293 0.47577 0.0
C1860 C 0.25162 0.53676 0.51713 0.0
C1861 C 0.24862 0.51297 0.53289 0.0
N1862 N 0.23299 0.46756 0.5365 0.0
N1863 N 0.24124 0.56074 0.47461 0.0
C1864 C 0.23874 0.4893 0.52034 0.0
C1865 C 0.24304 0.5372 0.48894 0.0
N1866 N 0.22947 0.46521 0.4776 0.0
N1867 N 0.2635 0.55863 0.52887 0.0
H1868 H 0.23525 0.56178 0.45385 0.0
H1869 H 0.24354 0.57942 0.48383 0.0
H1870 H 0.26983 0.55916 0.54955 0.0
H1871 H 0.269 0.57554 0.51765 0.0
H1872 H 0.23122 0.44657 0.48702 0.0
H1873 H 0.22561 0.46411 0.4563 0.0
H1874 H 0.22305 0.45072 0.52914 0.0
H1875 H 0.23624 0.46716 0.55795 0.0
C1876 C 0.00261 0.22811 0.02038 0.0
C1877 C 0.99148 0.25279 0.02915 0.0
C1878 C 0.9825 0.26489 0.98059 0.0
C1879 C 0.99079 0.23902 0.9722 0.0
N1880 N 0.00605 0.19477 0.98391 0.0
N1881 N 0.96773 0.29343 0.01833 0.0
C1882 C 0.00021 0.22029 0.99204 0.0
C1883 C 0.9807 0.27095 0.00944 0.0
N1884 N 0.0161 0.21251 0.03904 0.0
N1885 N 0.97682 0.28382 0.96094 0.0
H1886 H 0.96601 0.29863 0.03928 0.0
H1887 H 0.95685 0.30587 0.00519 0.0
H1888 H 0.97759 0.28 0.93961 0.0
H1889 H 0.97353 0.30385 0.96564 0.0
H1890 H 0.02703 0.19566 0.03341 0.0
H1891 H 0.01835 0.21769 0.05995 0.0
H1892 H 0.01005 0.17934 0.99781 0.0
H1893 H 0.00501 0.18847 0.96324 0.0
C1894 C 0.25225 0.95629 0.48893 0.0
C1895 C 0.27092 0.9745 0.47737 0.0
C1896 C 0.27671 0.99475 0.52332 0.0
C1897 C 0.25373 0.98095 0.53285 0.0
N1898 N 0.21944 0.94787 0.5248 0.0
N1899 N 0.31374 0.99157 0.49164 0.0
C1900 C 0.24155 0.96131 0.51576 0.0
C1901 C 0.28707 0.98877 0.49655 0.0
N1902 N 0.24766 0.93246 0.47598 0.0
N1903 N 0.28891 0.0133 0.53982 0.0
H1904 H 0.3231 0.98115 0.47555 0.0
H1905 H 0.32692 0.99997 0.50598 0.0
H1906 H 0.28243 0.01769 0.55995 0.0
H1907 H 0.30425 0.02556 0.53256 0.0
H1908 H 0.23617 0.91725 0.48467 0.0
H1909 H 0.25836 0.92678 0.45828 0.0
H1910 H 0.20831 0.93536 0.51191 0.0
H1911 H 0.21104 0.95087 0.54442 0.0
C1912 C 0.46144 0.74484 0.9847 0.0
C1913 C 0.48475 0.75589 0.97244 0.0
C1914 C 0.50725 0.75558 0.01775 0.0
C1915 C 0.48483 0.74236 0.02944 0.0
N1916 N 0.44236 0.72034 0.0234 0.0
N1917 N 0.5313 0.76786 0.97586 0.0
C1918 C 0.46239 0.73584 0.01273 0.0
C1919 C 0.5081 0.76018 0.98857 0.0
N1920 N 0.43818 0.74375 0.96983 0.0
N1921 N 0.52734 0.7645 0.03466 0.0
H1922 H 0.53267 0.77147 0.95453 0.0
H1923 H 0.54968 0.76848 0.98599 0.0
H1924 H 0.52744 0.76148 0.05614 0.0
H1925 H 0.54275 0.77682 0.0278 0.0
H1926 H 0.41983 0.73864 0.97855 0.0
H1927 H 0.43671 0.75015 0.94924 0.0
H1928 H 0.42693 0.71248 0.01138 0.0
H1929 H 0.44232 0.71337 0.04386 0.0
C1930 C 0.76512 0.46674 0.51232 0.0
C1931 C 0.76001 0.49009 0.52826 0.0
C1932 C 0.74244 0.51301 0.48693 0.0
C1933 C 0.74643 0.48927 0.47128 0.0
N1934 N 0.76057 0.44335 0.46821 0.0
N1935 N 0.74306 0.53498 0.53207 0.0
C1936 C 0.75759 0.46608 0.48374 0.0
C1937 C 0.74855 0.51316 0.51588 0.0
N1938 N 0.77739 0.44533 0.52459 0.0
N1939 N 0.73303 0.53544 0.47393 0.0
H1940 H 0.74862 0.53635 0.55295 0.0
H1941 H 0.73209 0.55142 0.52546 0.0
H1942 H 0.72693 0.53568 0.45318 0.0
H1943 H 0.73225 0.55425 0.48305 0.0
H1944 H 0.78425 0.42863 0.51391 0.0
H1945 H 0.78193 0.44455 0.54576 0.0
H1946 H 0.76575 0.42481 0.4763 0.0
H1947 H 0.75688 0.44262 0.44686 0.0
C1948 C 0.98744 0.76557 0.01131 0.0
C1949 C 0.00839 0.75529 0.02808 0.0
C1950 C 0.02706 0.73147 0.9879 0.0
C1951 C 0.0072 0.74326 0.97076 0.0
N1952 N 0.96978 0.77299 0.96485 0.0
N1953 N 0.04934 0.73036 0.0328 0.0
C1954 C 0.98767 0.76067 0.98213 0.0
C1955 C 0.02851 0.73869 0.01651 0.0
N1956 N 0.96714 0.77971 0.02345 0.0
N1957 N 0.04424 0.71305 0.97684 0.0
H1958 H 0.05046 0.73424 0.0541 0.0
H1959 H 0.06632 0.72092 0.02513 0.0
H1960 H 0.04443 0.70801 0.95577 0.0
H1961 H 0.05723 0.70144 0.98863 0.0
H1962 H 0.94974 0.78529 0.01314 0.0
H1963 H 0.96686 0.78457 0.04456 0.0
H1964 H 0.95699 0.78823 0.9711 0.0
H1965 H 0.96867 0.76904 0.94356 0.0
C1966 C 0.74825 0.98491 0.51368 0.0
C1967 C 0.74258 0.00902 0.52803 0.0
C1968 C 0.75219 0.03467 0.48576 0.0
C1969 C 0.75518 0.01043 0.47074 0.0
N1970 N 0.7512 0.96242 0.46914 0.0
N1971 N 0.73408 0.05646 0.5266 0.0
C1972 C 0.75184 0.98549 0.48435 0.0
C1973 C 0.74311 0.03383 0.51375 0.0
N1974 N 0.75107 0.96158 0.52817 0.0
N1975 N 0.75891 0.05843 0.47361 0.0
H1976 H 0.72696 0.05666 0.547 0.0
H1977 H 0.73132 0.07453 0.51623 0.0
H1978 H 0.76598 0.05988 0.45325 0.0
H1979 H 0.75984 0.07639 0.48452 0.0
H1980 H 0.75798 0.94395 0.51921 0.0
H1981 H 0.74882 0.96038 0.54972 0.0
H1982 H 0.74602 0.94396 0.47755 0.0
H1983 H 0.75343 0.96204 0.44755 0.0
loop_
_geom_bond_atom_site_label_1
_geom_bond_atom_site_label_2
_geom_bond_distance
_geom_bond_site_symmetry_2
_ccdc_geom_bond_type
Li0 N17 1.990 . S
Li0 O60 1.956 . S
Li0 O61 1.970 . S
Li0 O62 1.961 . S
Li1 N25 1.990 . S
Li1 O60 1.970 . S
Li1 O61 1.956 . S
Li1 O63 1.961 . S
Li2 N47 1.990 . S
Li2 O60 1.961 . S
Li2 O62 1.956 . S
Li2 O63 1.970 . S
Li3 N53 1.990 . S
Li3 O61 1.961 . S
Li3 O62 1.970 . S
Li3 O63 1.956 . S
C4 C6 1.348 . S
C4 C7 1.356 . S
C4 O60 1.325 . S
N5 C8 1.314 . S
N5 C9 1.279 . S
C6 C4 1.348 . S
C6 C8 1.353 . S
C6 H64 0.929 . S
C7 C4 1.356 . S
C7 C9 1.358 . S
C7 H65 0.930 . S
C8 N5 1.314 . S
C8 C6 1.353 . S
C8 H66 0.930 . S
C9 N5 1.279 . S
C9 C7 1.358 . S
C9 H67 0.930 . S
C10 C13 1.348 . S
C10 C14 1.356 . S
C10 O61 1.325 . S
C11 N12 1.279 . S
C11 C14 1.358 . S
C11 H68 0.930 . S
N12 C11 1.279 . S
N12 C15 1.314 . S
C13 C10 1.348 . S
C13 C15 1.353 . S
C13 H69 0.929 . S
C14 C10 1.356 . S
C14 C11 1.358 . S
C14 H70 0.930 . S
C15 N12 1.314 . S
C15 C13 1.353 . S
C15 H71 0.930 . S
C16 N17 1.314 . S
C16 C21 1.353 . S
C16 H22 0.930 . S
N17 Li0 1.990 . S
N17 C16 1.314 . S
N17 C19 1.279 . S
C18 C19 1.358 . S
C18 C20 1.356 . S
C18 H72 0.930 . S
C19 N17 1.279 . S
C19 C18 1.358 . S
C19 H23 0.930 . S
C20 C18 1.356 . S
C20 C21 1.348 . S
C21 C16 1.353 . S
C21 C20 1.348 . S
C21 H73 0.929 . S
H22 C16 0.930 . S
H23 C19 0.930 . S
C24 N25 1.314 . S
C24 C26 1.353 . S
C24 H30 0.930 . S
N25 Li1 1.990 . S
N25 C24 1.314 . S
N25 C28 1.279 . S
C26 C24 1.353 . S
C26 C29 1.348 . S
C26 H74 0.929 . S
C27 C28 1.358 . S
C27 C29 1.356 . S
C27 H75 0.930 . S
C28 N25 1.279 . S
C28 C27 1.358 . S
C28 H31 0.930 . S
C29 C26 1.348 . S
C29 C27 1.356 . S
H30 C24 0.930 . S
H31 C28 0.930 . S
C32 C34 1.348 . S
C32 C35 1.356 . S
C32 O62 1.325 . S
N33 C36 1.314 . S
N33 C37 1.279 . S
C34 C32 1.348 . S
C34 C36 1.353 . S
C34 H76 0.929 . S
C35 C32 1.356 . S
C35 C37 1.358 . S
C35 H77 0.930 . S
C36 N33 1.314 . S
C36 C34 1.353 . S
C36 H78 0.930 . S
C37 N33 1.279 . S
C37 C35 1.358 . S
C37 H79 0.930 . S
C38 C39 1.348 . S
C38 C40 1.356 . S
C38 O63 1.325 . S
C39 C38 1.348 . S
C39 C41 1.353 . S
C39 H80 0.929 . S
C40 C38 1.356 . S
C40 C42 1.358 . S
C40 H81 0.930 . S
C41 C39 1.353 . S
C41 N43 1.314 . S
C41 H82 0.930 . S
C42 C40 1.358 . S
C42 N43 1.279 . S
C42 H83 0.930 . S
N43 C41 1.314 . S
N43 C42 1.279 . S
C44 C46 1.353 . S
C44 N47 1.314 . S
C44 H50 0.930 . S
C45 N47 1.279 . S
C45 C48 1.358 . S
C45 H51 0.930 . S
C46 C44 1.353 . S
C46 C49 1.348 . S
C46 H84 0.929 . S
N47 Li2 1.990 . S
N47 C44 1.314 . S
N47 C45 1.279 . S
C48 C45 1.358 . S
C48 C49 1.356 . S
C48 H85 0.930 . S
C49 C46 1.348 . S
C49 C48 1.356 . S
H50 C44 0.930 . S
H51 C45 0.930 . S
C52 N53 1.314 . S
C52 C54 1.353 . S
C52 H58 0.930 . S
N53 Li3 1.990 . S
N53 C52 1.314 . S
N53 C56 1.279 . S
C54 C52 1.353 . S
C54 C57 1.348 . S
C54 H86 0.929 . S
C55 C56 1.358 . S
C55 C57 1.356 . S
C55 H87 0.930 . S
C56 N53 1.279 . S
C56 C55 1.358 . S
C56 H59 0.930 . S
C57 C54 1.348 . S
C57 C55 1.356 . S
H58 C52 0.930 . S
H59 C56 0.930 . S
O60 Li0 1.956 . S
O60 Li1 1.970 . S
O60 Li2 1.961 . S
O60 C4 1.325 . S
O61 Li0 1.970 . S
O61 Li1 1.956 . S
O61 Li3 1.961 . S
O61 C10 1.325 . S
O62 Li0 1.961 . S
O62 Li2 1.956 . S
O62 Li3 1.970 . S
O62 C32 1.325 . S
O63 Li1 1.961 . S
O63 Li2 1.970 . S
O63 Li3 1.956 . S
O63 C38 1.325 . S
H64 C6 0.929 . S
H65 C7 0.930 . S
H66 C8 0.930 . S
H67 C9 0.930 . S
H68 C11 0.930 . S
H69 C13 0.929 . S
H70 C14 0.930 . S
H71 C15 0.930 . S
H72 C18 0.930 . S
H73 C21 0.929 . S
H74 C26 0.929 . S
H75 C27 0.930 . S
H76 C34 0.929 . S
H77 C35 0.930 . S
H78 C36 0.930 . S
H79 C37 0.930 . S
H80 C39 0.929 . S
H81 C40 0.930 . S
H82 C41 0.930 . S
H83 C42 0.930 . S
H84 C46 0.929 . S
H85 C48 0.930 . S
H86 C54 0.929 . S
H87 C55 0.930 . S
Li88 N105 1.990 . S
Li88 O148 1.956 . S
Li88 O149 1.970 . S
Li88 O150 1.961 . S
Li89 N113 1.990 . S
Li89 O148 1.970 . S
Li89 O149 1.956 . S
Li89 O151 1.961 . S
Li90 N135 1.990 . S
Li90 O148 1.961 . S
Li90 O150 1.956 . S
Li90 O151 1.970 . S
Li91 N141 1.990 . S
Li91 O149 1.961 . S
Li91 O150 1.970 . S
Li91 O151 1.956 . S
C92 C94 1.348 . S
C92 C95 1.356 . S
C92 O148 1.325 . S
N93 C96 1.314 . S
N93 C97 1.279 . S
C94 C92 1.348 . S
C94 C96 1.353 . S
C94 H152 0.929 . S
C95 C92 1.356 . S
C95 C97 1.358 . S
C95 H153 0.930 . S
C96 N93 1.314 . S
C96 C94 1.353 . S
C96 H154 0.930 . S
C97 N93 1.279 . S
C97 C95 1.358 . S
C97 H155 0.930 . S
C98 C101 1.348 . S
C98 C102 1.356 . S
C98 O149 1.325 . S
C99 N100 1.279 . S
C99 C102 1.358 . S
C99 H156 0.930 . S
N100 C99 1.279 . S
N100 C103 1.314 . S
C101 C98 1.348 . S
C101 C103 1.353 . S
C101 H157 0.929 . S
C102 C98 1.356 . S
C102 C99 1.358 . S
C102 H158 0.930 . S
C103 N100 1.314 . S
C103 C101 1.353 . S
C103 H159 0.930 . S
C104 N105 1.314 . S
C104 C109 1.353 . S
C104 H110 0.930 . S
N105 Li88 1.990 . S
N105 C104 1.314 . S
N105 C107 1.279 . S
C106 C107 1.358 . S
C106 C108 1.356 . S
C106 H160 0.930 . S
C107 N105 1.279 . S
C107 C106 1.358 . S
C107 H111 0.930 . S
C108 C106 1.356 . S
C108 C109 1.348 . S
C109 C104 1.353 . S
C109 C108 1.348 . S
C109 H161 0.929 . S
H110 C104 0.930 . S
H111 C107 0.930 . S
C112 N113 1.314 . S
C112 C114 1.353 . S
C112 H118 0.930 . S
N113 Li89 1.990 . S
N113 C112 1.314 . S
N113 C116 1.279 . S
C114 C112 1.353 . S
C114 C117 1.348 . S
C114 H162 0.929 . S
C115 C116 1.358 . S
C115 C117 1.356 . S
C115 H163 0.930 . S
C116 N113 1.279 . S
C116 C115 1.358 . S
C116 H119 0.930 . S
C117 C114 1.348 . S
C117 C115 1.356 . S
H118 C112 0.930 . S
H119 C116 0.930 . S
C120 C122 1.348 . S
C120 C123 1.356 . S
C120 O150 1.325 . S
N121 C124 1.314 . S
N121 C125 1.279 . S
C122 C120 1.348 . S
C122 C124 1.353 . S
C122 H164 0.929 . S
C123 C120 1.356 . S
C123 C125 1.358 . S
C123 H165 0.930 . S
C124 N121 1.314 . S
C124 C122 1.353 . S
C124 H166 0.930 . S
C125 N121 1.279 . S
C125 C123 1.358 . S
C125 H167 0.930 . S
C126 C127 1.348 . S
C126 C128 1.356 . S
C126 O151 1.325 . S
C127 C126 1.348 . S
C127 C129 1.353 . S
C127 H168 0.929 . S
C128 C126 1.356 . S
C128 C130 1.358 . S
C128 H169 0.930 . S
C129 C127 1.353 . S
C129 N131 1.314 . S
C129 H170 0.930 . S
C130 C128 1.358 . S
C130 N131 1.279 . S
C130 H171 0.930 . S
N131 C129 1.314 . S
N131 C130 1.279 . S
C132 C134 1.353 . S
C132 N135 1.314 . S
C132 H138 0.930 . S
C133 N135 1.279 . S
C133 C136 1.358 . S
C133 H139 0.930 . S
C134 C132 1.353 . S
C134 C137 1.348 . S
C134 H172 0.929 . S
N135 Li90 1.990 . S
N135 C132 1.314 . S
N135 C133 1.279 . S
C136 C133 1.358 . S
C136 C137 1.356 . S
C136 H173 0.930 . S
C137 C134 1.348 . S
C137 C136 1.356 . S
H138 C132 0.930 . S
H139 C133 0.930 . S
C140 N141 1.314 . S
C140 C142 1.353 . S
C140 H146 0.930 . S
N141 Li91 1.990 . S
N141 C140 1.314 . S
N141 C144 1.279 . S
C142 C140 1.353 . S
C142 C145 1.348 . S
C142 H174 0.929 . S
C143 C144 1.358 . S
C143 C145 1.356 . S
C143 H175 0.930 . S
C144 N141 1.279 . S
C144 C143 1.358 . S
C144 H147 0.930 . S
C145 C142 1.348 . S
C145 C143 1.356 . S
H146 C140 0.930 . S
H147 C144 0.930 . S
O148 Li88 1.956 . S
O148 Li89 1.970 . S
O148 Li90 1.961 . S
O148 C92 1.325 . S
O149 Li88 1.970 . S
O149 Li89 1.956 . S
O149 Li91 1.961 . S
O149 C98 1.325 . S
O150 Li88 1.961 . S
O150 Li90 1.956 . S
O150 Li91 1.970 . S
O150 C120 1.325 . S
O151 Li89 1.961 . S
O151 Li90 1.970 . S
O151 Li91 1.956 . S
O151 C126 1.325 . S
H152 C94 0.929 . S
H153 C95 0.930 . S
H154 C96 0.930 . S
H155 C97 0.930 . S
H156 C99 0.930 . S
H157 C101 0.929 . S
H158 C102 0.930 . S
H159 C103 0.930 . S
H160 C106 0.930 . S
H161 C109 0.929 . S
H162 C114 0.929 . S
H163 C115 0.930 . S
H164 C122 0.929 . S
H165 C123 0.930 . S
H166 C124 0.930 . S
H167 C125 0.930 . S
H168 C127 0.929 . S
H169 C128 0.930 . S
H170 C129 0.930 . S
H171 C130 0.930 . S
H172 C134 0.929 . S
H173 C136 0.930 . S
H174 C142 0.929 . S
H175 C143 0.930 . S
Li176 N193 1.990 . S
Li176 O236 1.956 . S
Li176 O237 1.970 . S
Li176 O238 1.961 . S
Li177 N201 1.990 . S
Li177 O236 1.970 1_455 S
Li177 O237 1.956 1_455 S
Li177 O239 1.961 . S
Li178 N223 1.990 . S
Li178 O236 1.961 . S
Li178 O238 1.956 . S
Li178 O239 1.970 1_655 S
Li179 N229 1.990 . S
Li179 O237 1.961 . S
Li179 O238 1.970 . S
Li179 O239 1.956 1_655 S
C180 C182 1.348 1_655 S
C180 C183 1.356 . S
C180 O236 1.325 . S
N181 C184 1.314 . S
N181 C185 1.279 1_455 S
C182 C180 1.348 1_455 S
C182 C184 1.353 . S
C182 H240 0.929 . S
C183 C180 1.356 . S
C183 C185 1.358 . S
C183 H241 0.930 . S
C184 N181 1.314 . S
C184 C182 1.353 . S
C184 H242 0.930 . S
C185 N181 1.279 1_655 S
C185 C183 1.358 . S
C185 H243 0.930 . S
C186 C189 1.348 . S
C186 C190 1.356 . S
C186 O237 1.325 . S
C187 N188 1.279 . S
C187 C190 1.358 . S
C187 H244 0.930 . S
N188 C187 1.279 . S
N188 C191 1.314 . S
C189 C186 1.348 . S
C189 C191 1.353 . S
C189 H245 0.929 . S
C190 C186 1.356 . S
C190 C187 1.358 . S
C190 H246 0.930 1_655 S
C191 N188 1.314 . S
C191 C189 1.353 . S
C191 H247 0.930 . S
C192 N193 1.314 . S
C192 C197 1.353 . S
C192 H198 0.930 . S
N193 Li176 1.990 . S
N193 C192 1.314 . S
N193 C195 1.279 . S
C194 C195 1.358 . S
C194 C196 1.356 . S
C194 H248 0.930 . S
C195 N193 1.279 . S
C195 C194 1.358 . S
C195 H199 0.930 . S
C196 C194 1.356 . S
C196 C197 1.348 . S
C197 C192 1.353 . S
C197 C196 1.348 . S
C197 H249 0.929 . S
H198 C192 0.930 . S
H199 C195 0.930 . S
C200 N201 1.314 . S
C200 C202 1.353 . S
C200 H206 0.930 . S
N201 Li177 1.990 . S
N201 C200 1.314 . S
N201 C204 1.279 . S
C202 C200 1.353 . S
C202 C205 1.348 . S
C202 H250 0.929 . S
C203 C204 1.358 . S
C203 C205 1.356 . S
C203 H251 0.930 . S
C204 N201 1.279 . S
C204 C203 1.358 . S
C204 H207 0.930 . S
C205 C202 1.348 . S
C205 C203 1.356 . S
H206 C200 0.930 . S
H207 C204 0.930 . S
C208 C210 1.348 . S
C208 C211 1.356 . S
C208 O238 1.325 . S
N209 C212 1.314 . S
N209 C213 1.279 . S
C210 C208 1.348 . S
C210 C212 1.353 . S
C210 H252 0.929 . S
C211 C208 1.356 . S
C211 C213 1.358 . S
C211 H253 0.930 . S
C212 N209 1.314 . S
C212 C210 1.353 . S
C212 H254 0.930 . S
C213 N209 1.279 . S
C213 C211 1.358 . S
C213 H255 0.930 . S
C214 C215 1.348 . S
C214 C216 1.356 . S
C214 O239 1.325 . S
C215 C214 1.348 . S
C215 C217 1.353 . S
C215 H256 0.929 . S
C216 C214 1.356 . S
C216 C218 1.358 . S
C216 H257 0.930 . S
C217 C215 1.353 . S
C217 N219 1.314 . S
C217 H258 0.930 . S
C218 C216 1.358 . S
C218 N219 1.279 . S
C218 H259 0.930 . S
N219 C217 1.314 . S
N219 C218 1.279 . S
C220 C222 1.353 . S
C220 N223 1.314 1_455 S
C220 H226 0.930 . S
C221 N223 1.279 . S
C221 C224 1.358 . S
C221 H227 0.930 . S
C222 C220 1.353 . S
C222 C225 1.348 1_455 S
C222 H260 0.929 . S
N223 Li178 1.990 . S
N223 C220 1.314 1_655 S
N223 C221 1.279 . S
C224 C221 1.358 . S
C224 C225 1.356 . S
C224 H261 0.930 . S
C225 C222 1.348 1_655 S
C225 C224 1.356 . S
H226 C220 0.930 . S
H227 C221 0.930 . S
C228 N229 1.314 . S
C228 C230 1.353 . S
C228 H234 0.930 . S
N229 Li179 1.990 . S
N229 C228 1.314 . S
N229 C232 1.279 . S
C230 C228 1.353 . S
C230 C233 1.348 . S
C230 H262 0.929 . S
C231 C232 1.358 . S
C231 C233 1.356 . S
C231 H263 0.930 . S
C232 N229 1.279 . S
C232 C231 1.358 . S
C232 H235 0.930 . S
C233 C230 1.348 . S
C233 C231 1.356 . S
H234 C228 0.930 . S
H235 C232 0.930 . S
O236 Li176 1.956 . S
O236 Li177 1.970 1_655 S
O236 Li178 1.961 . S
O236 C180 1.325 . S
O237 Li176 1.970 . S
O237 Li177 1.956 1_655 S
O237 Li179 1.961 . S
O237 C186 1.325 . S
O238 Li176 1.961 . S
O238 Li178 1.956 . S
O238 Li179 1.970 . S
O238 C208 1.325 . S
O239 Li177 1.961 . S
O239 Li178 1.970 1_455 S
O239 Li179 1.956 1_455 S
O239 C214 1.325 . S
H240 C182 0.929 . S
H241 C183 0.930 . S
H242 C184 0.930 . S
H243 C185 0.930 . S
H244 C187 0.930 . S
H245 C189 0.929 . S
H246 C190 0.930 1_455 S
H247 C191 0.930 . S
H248 C194 0.930 . S
H249 C197 0.929 . S
H250 C202 0.929 . S
H251 C203 0.930 . S
H252 C210 0.929 . S
H253 C211 0.930 . S
H254 C212 0.930 . S
H255 C213 0.930 . S
H256 C215 0.929 . S
H257 C216 0.930 . S
H258 C217 0.930 . S
H259 C218 0.930 . S
H260 C222 0.929 . S
H261 C224 0.930 . S
H262 C230 0.929 . S
H263 C231 0.930 . S
Li264 N281 1.990 . S
Li264 O324 1.956 . S
Li264 O325 1.970 . S
Li264 O326 1.961 . S
Li265 N289 1.990 . S
Li265 O324 1.970 1_545 S
Li265 O325 1.956 1_545 S
Li265 O327 1.961 . S
Li266 N311 1.990 . S
Li266 O324 1.961 . S
Li266 O326 1.956 . S
Li266 O327 1.970 1_565 S
Li267 N317 1.990 . S
Li267 O325 1.961 . S
Li267 O326 1.970 . S
Li267 O327 1.956 1_565 S
C268 C270 1.348 1_565 S
C268 C271 1.356 . S
C268 O324 1.325 . S
N269 C272 1.314 . S
N269 C273 1.279 1_545 S
C270 C268 1.348 1_545 S
C270 C272 1.353 . S
C270 H328 0.929 . S
C271 C268 1.356 . S
C271 C273 1.358 . S
C271 H329 0.930 . S
C272 N269 1.314 . S
C272 C270 1.353 . S
C272 H330 0.930 . S
C273 N269 1.279 1_565 S
C273 C271 1.358 . S
C273 H331 0.930 . S
C274 C277 1.348 . S
C274 C278 1.356 . S
C274 O325 1.325 . S
C275 N276 1.279 . S
C275 C278 1.358 . S
C275 H332 0.930 . S
N276 C275 1.279 . S
N276 C279 1.314 . S
C277 C274 1.348 . S
C277 C279 1.353 . S
C277 H333 0.929 . S
C278 C274 1.356 . S
C278 C275 1.358 . S
C278 H334 0.930 1_565 S
C279 N276 1.314 . S
C279 C277 1.353 . S
C279 H335 0.930 . S
C280 N281 1.314 . S
C280 C285 1.353 . S
C280 H286 0.930 . S
N281 Li264 1.990 . S
N281 C280 1.314 . S
N281 C283 1.279 . S
C282 C283 1.358 . S
C282 C284 1.356 . S
C282 H336 0.930 . S
C283 N281 1.279 . S
C283 C282 1.358 . S
C283 H287 0.930 . S
C284 C282 1.356 . S
C284 C285 1.348 . S
C285 C280 1.353 . S
C285 C284 1.348 . S
C285 H337 0.929 . S
H286 C280 0.930 . S
H287 C283 0.930 . S
C288 N289 1.314 . S
C288 C290 1.353 . S
C288 H294 0.930 . S
N289 Li265 1.990 . S
N289 C288 1.314 . S
N289 C292 1.279 . S
C290 C288 1.353 . S
C290 C293 1.348 . S
C290 H338 0.929 . S
C291 C292 1.358 . S
C291 C293 1.356 . S
C291 H339 0.930 . S
C292 N289 1.279 . S
C292 C291 1.358 . S
C292 H295 0.930 . S
C293 C290 1.348 . S
C293 C291 1.356 . S
H294 C288 0.930 . S
H295 C292 0.930 . S
C296 C298 1.348 . S
C296 C299 1.356 . S
C296 O326 1.325 . S
N297 C300 1.314 . S
N297 C301 1.279 . S
C298 C296 1.348 . S
C298 C300 1.353 . S
C298 H340 0.929 . S
C299 C296 1.356 . S
C299 C301 1.358 . S
C299 H341 0.930 . S
C300 N297 1.314 . S
C300 C298 1.353 . S
C300 H342 0.930 . S
C301 N297 1.279 . S
C301 C299 1.358 . S
C301 H343 0.930 . S
C302 C303 1.348 . S
C302 C304 1.356 . S
C302 O327 1.325 . S
C303 C302 1.348 . S
C303 C305 1.353 . S
C303 H344 0.929 . S
C304 C302 1.356 . S
C304 C306 1.358 . S
C304 H345 0.930 . S
C305 C303 1.353 . S
C305 N307 1.314 . S
C305 H346 0.930 . S
C306 C304 1.358 . S
C306 N307 1.279 . S
C306 H347 0.930 . S
N307 C305 1.314 . S
N307 C306 1.279 . S
C308 C310 1.353 . S
C308 N311 1.314 1_545 S
C308 H314 0.930 . S
C309 N311 1.279 . S
C309 C312 1.358 . S
C309 H315 0.930 . S
C310 C308 1.353 . S
C310 C313 1.348 1_545 S
C310 H348 0.929 . S
N311 Li266 1.990 . S
N311 C308 1.314 1_565 S
N311 C309 1.279 . S
C312 C309 1.358 . S
C312 C313 1.356 . S
C312 H349 0.930 . S
C313 C310 1.348 1_565 S
C313 C312 1.356 . S
H314 C308 0.930 . S
H315 C309 0.930 . S
C316 N317 1.314 . S
C316 C318 1.353 . S
C316 H322 0.930 . S
N317 Li267 1.990 . S
N317 C316 1.314 . S
N317 C320 1.279 . S
C318 C316 1.353 . S
C318 C321 1.348 . S
C318 H350 0.929 . S
C319 C320 1.358 . S
C319 C321 1.356 . S
C319 H351 0.930 . S
C320 N317 1.279 . S
C320 C319 1.358 . S
C320 H323 0.930 . S
C321 C318 1.348 . S
C321 C319 1.356 . S
H322 C316 0.930 . S
H323 C320 0.930 . S
O324 Li264 1.956 . S
O324 Li265 1.970 1_565 S
O324 Li266 1.961 . S
O324 C268 1.325 . S
O325 Li264 1.970 . S
O325 Li265 1.956 1_565 S
O325 Li267 1.961 . S
O325 C274 1.325 . S
O326 Li264 1.961 . S
O326 Li266 1.956 . S
O326 Li267 1.970 . S
O326 C296 1.325 . S
O327 Li265 1.961 . S
O327 Li266 1.970 1_545 S
O327 Li267 1.956 1_545 S
O327 C302 1.325 . S
H328 C270 0.929 . S
H329 C271 0.930 . S
H330 C272 0.930 . S
H331 C273 0.930 . S
H332 C275 0.930 . S
H333 C277 0.929 . S
H334 C278 0.930 1_545 S
H335 C279 0.930 . S
H336 C282 0.930 . S
H337 C285 0.929 . S
H338 C290 0.929 . S
H339 C291 0.930 . S
H340 C298 0.929 . S
H341 C299 0.930 . S
H342 C300 0.930 . S
H343 C301 0.930 . S
H344 C303 0.929 . S
H345 C304 0.930 . S
H346 C305 0.930 . S
H347 C306 0.930 . S
H348 C310 0.929 . S
H349 C312 0.930 . S
H350 C318 0.929 . S
H351 C319 0.930 . S
Li352 N369 1.990 . S
Li352 O412 1.956 . S
Li352 O413 1.970 . S
Li352 O414 1.961 . S
Li353 N377 1.990 . S
Li353 O412 1.970 . S
Li353 O413 1.956 . S
Li353 O415 1.961 . S
Li354 N399 1.990 . S
Li354 O412 1.961 . S
Li354 O414 1.956 . S
Li354 O415 1.970 . S
Li355 N405 1.990 . S
Li355 O413 1.961 . S
Li355 O414 1.970 . S
Li355 O415 1.956 . S
C356 C358 1.348 . S
C356 C359 1.356 . S
C356 O412 1.325 . S
N357 C360 1.314 . S
N357 C361 1.279 . S
C358 C356 1.348 . S
C358 C360 1.353 . S
C358 H416 0.929 . S
C359 C356 1.356 . S
C359 C361 1.358 . S
C359 H417 0.930 . S
C360 N357 1.314 . S
C360 C358 1.353 . S
C360 H418 0.930 . S
C361 N357 1.279 . S
C361 C359 1.358 . S
C361 H419 0.930 . S
C362 C365 1.348 . S
C362 C366 1.356 . S
C362 O413 1.325 . S
C363 N364 1.279 . S
C363 C366 1.358 . S
C363 H420 0.930 . S
N364 C363 1.279 . S
N364 C367 1.314 . S
C365 C362 1.348 . S
C365 C367 1.353 . S
C365 H421 0.929 . S
C366 C362 1.356 . S
C366 C363 1.358 . S
C366 H422 0.930 . S
C367 N364 1.314 . S
C367 C365 1.353 . S
C367 H423 0.930 . S
C368 N369 1.314 . S
C368 C373 1.353 . S
C368 H374 0.930 . S
N369 Li352 1.990 . S
N369 C368 1.314 . S
N369 C371 1.279 . S
C370 C371 1.358 . S
C370 C372 1.356 . S
C370 H424 0.930 . S
C371 N369 1.279 . S
C371 C370 1.358 . S
C371 H375 0.930 . S
C372 C370 1.356 . S
C372 C373 1.348 . S
C373 C368 1.353 . S
C373 C372 1.348 . S
C373 H425 0.929 . S
H374 C368 0.930 . S
H375 C371 0.930 . S
C376 N377 1.314 . S
C376 C378 1.353 . S
C376 H382 0.930 . S
N377 Li353 1.990 . S
N377 C376 1.314 . S
N377 C380 1.279 . S
C378 C376 1.353 . S
C378 C381 1.348 . S
C378 H426 0.929 . S
C379 C380 1.358 . S
C379 C381 1.356 . S
C379 H427 0.930 . S
C380 N377 1.279 . S
C380 C379 1.358 . S
C380 H383 0.930 . S
C381 C378 1.348 . S
C381 C379 1.356 . S
H382 C376 0.930 . S
H383 C380 0.930 . S
C384 C386 1.348 . S
C384 C387 1.356 . S
C384 O414 1.325 . S
N385 C388 1.314 . S
N385 C389 1.279 . S
C386 C384 1.348 . S
C386 C388 1.353 . S
C386 H428 0.929 . S
C387 C384 1.356 . S
C387 C389 1.358 . S
C387 H429 0.930 . S
C388 N385 1.314 . S
C388 C386 1.353 . S
C388 H430 0.930 . S
C389 N385 1.279 . S
C389 C387 1.358 . S
C389 H431 0.930 . S
C390 C391 1.348 . S
C390 C392 1.356 . S
C390 O415 1.325 . S
C391 C390 1.348 . S
C391 C393 1.353 . S
C391 H432 0.929 . S
C392 C390 1.356 . S
C392 C394 1.358 . S
C392 H433 0.930 . S
C393 C391 1.353 . S
C393 N395 1.314 . S
C393 H434 0.930 . S
C394 C392 1.358 . S
C394 N395 1.279 . S
C394 H435 0.930 . S
N395 C393 1.314 . S
N395 C394 1.279 . S
C396 C398 1.353 . S
C396 N399 1.314 . S
C396 H402 0.930 . S
C397 N399 1.279 . S
C397 C400 1.358 . S
C397 H403 0.930 . S
C398 C396 1.353 . S
C398 C401 1.348 . S
C398 H436 0.929 . S
N399 Li354 1.990 . S
N399 C396 1.314 . S
N399 C397 1.279 . S
C400 C397 1.358 . S
C400 C401 1.356 . S
C400 H437 0.930 . S
C401 C398 1.348 . S
C401 C400 1.356 . S
H402 C396 0.930 . S
H403 C397 0.930 . S
C404 N405 1.314 . S
C404 C406 1.353 . S
C404 H410 0.930 . S
N405 Li355 1.990 . S
N405 C404 1.314 . S
N405 C408 1.279 . S
C406 C404 1.353 . S
C406 C409 1.348 . S
C406 H438 0.929 . S
C407 C408 1.358 . S
C407 C409 1.356 . S
C407 H439 0.930 . S
C408 N405 1.279 . S
C408 C407 1.358 . S
C408 H411 0.930 . S
C409 C406 1.348 . S
C409 C407 1.356 . S
H410 C404 0.930 . S
H411 C408 0.930 . S
O412 Li352 1.956 . S
O412 Li353 1.970 . S
O412 Li354 1.961 . S
O412 C356 1.325 . S
O413 Li352 1.970 . S
O413 Li353 1.956 . S
O413 Li355 1.961 . S
O413 C362 1.325 . S
O414 Li352 1.961 . S
O414 Li354 1.956 . S
O414 Li355 1.970 . S
O414 C384 1.325 . S
O415 Li353 1.961 . S
O415 Li354 1.970 . S
O415 Li355 1.956 . S
O415 C390 1.325 . S
H416 C358 0.929 . S
H417 C359 0.930 . S
H418 C360 0.930 . S
H419 C361 0.930 . S
H420 C363 0.930 . S
H421 C365 0.929 . S
H422 C366 0.930 . S
H423 C367 0.930 . S
H424 C370 0.930 . S
H425 C373 0.929 . S
H426 C378 0.929 . S
H427 C379 0.930 . S
H428 C386 0.929 . S
H429 C387 0.930 . S
H430 C388 0.930 . S
H431 C389 0.930 . S
H432 C391 0.929 . S
H433 C392 0.930 . S
H434 C393 0.930 . S
H435 C394 0.930 . S
H436 C398 0.929 . S
H437 C400 0.930 . S
H438 C406 0.929 . S
H439 C407 0.930 . S
Li440 N457 1.990 . S
Li440 O500 1.956 . S
Li440 O501 1.970 . S
Li440 O502 1.961 . S
Li441 N465 1.990 . S
Li441 O500 1.970 . S
Li441 O501 1.956 . S
Li441 O503 1.961 . S
Li442 N487 1.990 . S
Li442 O500 1.961 . S
Li442 O502 1.956 . S
Li442 O503 1.970 . S
Li443 N493 1.990 . S
Li443 O501 1.961 . S
Li443 O502 1.970 . S
Li443 O503 1.956 . S
C444 C446 1.348 . S
C444 C447 1.356 . S
C444 O500 1.325 . S
N445 C448 1.314 . S
N445 C449 1.279 . S
C446 C444 1.348 . S
C446 C448 1.353 . S
C446 H504 0.929 . S
C447 C444 1.356 . S
C447 C449 1.358 . S
C447 H505 0.930 . S
C448 N445 1.314 . S
C448 C446 1.353 . S
C448 H506 0.930 . S
C449 N445 1.279 . S
C449 C447 1.358 . S
C449 H507 0.930 . S
C450 C453 1.348 . S
C450 C454 1.356 . S
C450 O501 1.325 . S
C451 N452 1.279 . S
C451 C454 1.358 . S
C451 H508 0.930 . S
N452 C451 1.279 . S
N452 C455 1.314 . S
C453 C450 1.348 . S
C453 C455 1.353 . S
C453 H509 0.929 . S
C454 C450 1.356 . S
C454 C451 1.358 . S
C454 H510 0.930 . S
C455 N452 1.314 . S
C455 C453 1.353 . S
C455 H511 0.930 . S
C456 N457 1.314 . S
C456 C461 1.353 . S
C456 H462 0.930 . S
N457 Li440 1.990 . S
N457 C456 1.314 . S
N457 C459 1.279 . S
C458 C459 1.358 . S
C458 C460 1.356 . S
C458 H512 0.930 . S
C459 N457 1.279 . S
C459 C458 1.358 . S
C459 H463 0.930 . S
C460 C458 1.356 . S
C460 C461 1.348 . S
C461 C456 1.353 . S
C461 C460 1.348 . S
C461 H513 0.929 . S
H462 C456 0.930 . S
H463 C459 0.930 . S
C464 N465 1.314 . S
C464 C466 1.353 . S
C464 H470 0.930 . S
N465 Li441 1.990 . S
N465 C464 1.314 . S
N465 C468 1.279 . S
C466 C464 1.353 . S
C466 C469 1.348 . S
C466 H514 0.929 . S
C467 C468 1.358 . S
C467 C469 1.356 . S
C467 H515 0.930 . S
C468 N465 1.279 . S
C468 C467 1.358 . S
C468 H471 0.930 . S
C469 C466 1.348 . S
C469 C467 1.356 . S
H470 C464 0.930 . S
H471 C468 0.930 . S
C472 C474 1.348 . S
C472 C475 1.356 . S
C472 O502 1.325 . S
N473 C476 1.314 . S
N473 C477 1.279 . S
C474 C472 1.348 . S
C474 C476 1.353 . S
C474 H516 0.929 . S
C475 C472 1.356 . S
C475 C477 1.358 . S
C475 H517 0.930 . S
C476 N473 1.314 . S
C476 C474 1.353 . S
C476 H518 0.930 . S
C477 N473 1.279 . S
C477 C475 1.358 . S
C477 H519 0.930 . S
C478 C479 1.348 . S
C478 C480 1.356 . S
C478 O503 1.325 . S
C479 C478 1.348 . S
C479 C481 1.353 . S
C479 H520 0.929 . S
C480 C478 1.356 . S
C480 C482 1.358 . S
C480 H521 0.930 . S
C481 C479 1.353 . S
C481 N483 1.314 . S
C481 H522 0.930 . S
C482 C480 1.358 . S
C482 N483 1.279 . S
C482 H523 0.930 . S
N483 C481 1.314 . S
N483 C482 1.279 . S
C484 C486 1.353 . S
C484 N487 1.314 . S
C484 H490 0.930 . S
C485 N487 1.279 . S
C485 C488 1.358 . S
C485 H491 0.930 . S
C486 C484 1.353 . S
C486 C489 1.348 . S
C486 H524 0.929 . S
N487 Li442 1.990 . S
N487 C484 1.314 . S
N487 C485 1.279 . S
C488 C485 1.358 . S
C488 C489 1.356 . S
C488 H525 0.930 . S
C489 C486 1.348 . S
C489 C488 1.356 . S
H490 C484 0.930 . S
H491 C485 0.930 . S
C492 N493 1.314 . S
C492 C494 1.353 . S
C492 H498 0.930 . S
N493 Li443 1.990 . S
N493 C492 1.314 . S
N493 C496 1.279 . S
C494 C492 1.353 . S
C494 C497 1.348 . S
C494 H526 0.929 . S
C495 C496 1.358 . S
C495 C497 1.356 . S
C495 H527 0.930 . S
C496 N493 1.279 . S
C496 C495 1.358 . S
C496 H499 0.930 . S
C497 C494 1.348 . S
C497 C495 1.356 . S
H498 C492 0.930 . S
H499 C496 0.930 . S
O500 Li440 1.956 . S
O500 Li441 1.970 . S
O500 Li442 1.961 . S
O500 C444 1.325 . S
O501 Li440 1.970 . S
O501 Li441 1.956 . S
O501 Li443 1.961 . S
O501 C450 1.325 . S
O502 Li440 1.961 . S
O502 Li442 1.956 . S
O502 Li443 1.970 . S
O502 C472 1.325 . S
O503 Li441 1.961 . S
O503 Li442 1.970 . S
O503 Li443 1.956 . S
O503 C478 1.325 . S
H504 C446 0.929 . S
H505 C447 0.930 . S
H506 C448 0.930 . S
H507 C449 0.930 . S
H508 C451 0.930 . S
H509 C453 0.929 . S
H510 C454 0.930 . S
H511 C455 0.930 . S
H512 C458 0.930 . S
H513 C461 0.929 . S
H514 C466 0.929 . S
H515 C467 0.930 . S
H516 C474 0.929 . S
H517 C475 0.930 . S
H518 C476 0.930 . S
H519 C477 0.930 . S
H520 C479 0.929 . S
H521 C480 0.930 . S
H522 C481 0.930 . S
H523 C482 0.930 . S
H524 C486 0.929 . S
H525 C488 0.930 . S
H526 C494 0.929 . S
H527 C495 0.930 . S
Li528 N545 1.990 . S
Li528 O588 1.956 1_655 S
Li528 O589 1.970 . S
Li528 O590 1.961 . S
Li529 N553 1.990 . S
Li529 O588 1.970 1_655 S
Li529 O589 1.956 . S
Li529 O591 1.961 . S
Li530 N575 1.990 . S
Li530 O588 1.961 . S
Li530 O590 1.956 1_455 S
Li530 O591 1.970 1_455 S
Li531 N581 1.990 . S
Li531 O589 1.961 . S
Li531 O590 1.970 . S
Li531 O591 1.956 . S
C532 C534 1.348 . S
C532 C535 1.356 . S
C532 O588 1.325 . S
N533 C536 1.314 . S
N533 C537 1.279 . S
C534 C532 1.348 . S
C534 C536 1.353 . S
C534 H592 0.929 . S
C535 C532 1.356 . S
C535 C537 1.358 . S
C535 H593 0.930 . S
C536 N533 1.314 . S
C536 C534 1.353 . S
C536 H594 0.930 . S
C537 N533 1.279 . S
C537 C535 1.358 . S
C537 H595 0.930 . S
C538 C541 1.348 . S
C538 C542 1.356 . S
C538 O589 1.325 . S
C539 N540 1.279 . S
C539 C542 1.358 . S
C539 H596 0.930 . S
N540 C539 1.279 . S
N540 C543 1.314 . S
C541 C538 1.348 . S
C541 C543 1.353 . S
C541 H597 0.929 . S
C542 C538 1.356 . S
C542 C539 1.358 . S
C542 H598 0.930 . S
C543 N540 1.314 . S
C543 C541 1.353 . S
C543 H599 0.930 . S
C544 N545 1.314 . S
C544 C549 1.353 . S
C544 H550 0.930 . S
N545 Li528 1.990 . S
N545 C544 1.314 . S
N545 C547 1.279 . S
C546 C547 1.358 . S
C546 C548 1.356 . S
C546 H600 0.930 . S
C547 N545 1.279 . S
C547 C546 1.358 . S
C547 H551 0.930 . S
C548 C546 1.356 . S
C548 C549 1.348 . S
C549 C544 1.353 . S
C549 C548 1.348 . S
C549 H601 0.929 . S
H550 C544 0.930 . S
H551 C547 0.930 . S
C552 N553 1.314 1_455 S
C552 C554 1.353 . S
C552 H558 0.930 . S
N553 Li529 1.990 . S
N553 C552 1.314 1_655 S
N553 C556 1.279 . S
C554 C552 1.353 . S
C554 C557 1.348 1_455 S
C554 H602 0.929 . S
C555 C556 1.358 . S
C555 C557 1.356 . S
C555 H603 0.930 . S
C556 N553 1.279 . S
C556 C555 1.358 . S
C556 H559 0.930 . S
C557 C554 1.348 1_655 S
C557 C555 1.356 . S
H558 C552 0.930 . S
H559 C556 0.930 . S
C560 C562 1.348 . S
C560 C563 1.356 . S
C560 O590 1.325 . S
N561 C564 1.314 . S
N561 C565 1.279 . S
C562 C560 1.348 . S
C562 C564 1.353 . S
C562 H604 0.929 . S
C563 C560 1.356 . S
C563 C565 1.358 . S
C563 H605 0.930 1_655 S
C564 N561 1.314 . S
C564 C562 1.353 . S
C564 H606 0.930 . S
C565 N561 1.279 . S
C565 C563 1.358 . S
C565 H607 0.930 . S
C566 C567 1.348 1_655 S
C566 C568 1.356 . S
C566 O591 1.325 . S
C567 C566 1.348 1_455 S
C567 C569 1.353 . S
C567 H608 0.929 . S
C568 C566 1.356 . S
C568 C570 1.358 . S
C568 H609 0.930 . S
C569 C567 1.353 . S
C569 N571 1.314 . S
C569 H610 0.930 . S
C570 C568 1.358 . S
C570 N571 1.279 1_655 S
C570 H611 0.930 . S
N571 C569 1.314 . S
N571 C570 1.279 1_455 S
C572 C574 1.353 . S
C572 N575 1.314 . S
C572 H578 0.930 . S
C573 N575 1.279 . S
C573 C576 1.358 . S
C573 H579 0.930 . S
C574 C572 1.353 . S
C574 C577 1.348 . S
C574 H612 0.929 . S
N575 Li530 1.990 . S
N575 C572 1.314 . S
N575 C573 1.279 . S
C576 C573 1.358 . S
C576 C577 1.356 . S
C576 H613 0.930 . S
C577 C574 1.348 . S
C577 C576 1.356 . S
H578 C572 0.930 . S
H579 C573 0.930 . S
C580 N581 1.314 . S
C580 C582 1.353 . S
C580 H586 0.930 . S
N581 Li531 1.990 . S
N581 C580 1.314 . S
N581 C584 1.279 . S
C582 C580 1.353 . S
C582 C585 1.348 . S
C582 H614 0.929 . S
C583 C584 1.358 . S
C583 C585 1.356 . S
C583 H615 0.930 . S
C584 N581 1.279 . S
C584 C583 1.358 . S
C584 H587 0.930 . S
C585 C582 1.348 . S
C585 C583 1.356 . S
H586 C580 0.930 . S
H587 C584 0.930 . S
O588 Li528 1.956 1_455 S
O588 Li529 1.970 1_455 S
O588 Li530 1.961 . S
O588 C532 1.325 . S
O589 Li528 1.970 . S
O589 Li529 1.956 . S
O589 Li531 1.961 . S
O589 C538 1.325 . S
O590 Li528 1.961 . S
O590 Li530 1.956 1_655 S
O590 Li531 1.970 . S
O590 C560 1.325 . S
O591 Li529 1.961 . S
O591 Li530 1.970 1_655 S
O591 Li531 1.956 . S
O591 C566 1.325 . S
H592 C534 0.929 . S
H593 C535 0.930 . S
H594 C536 0.930 . S
H595 C537 0.930 . S
H596 C539 0.930 . S
H597 C541 0.929 . S
H598 C542 0.930 . S
H599 C543 0.930 . S
H600 C546 0.930 . S
H601 C549 0.929 . S
H602 C554 0.929 . S
H603 C555 0.930 . S
H604 C562 0.929 . S
H605 C563 0.930 1_455 S
H606 C564 0.930 . S
H607 C565 0.930 . S
H608 C567 0.929 . S
H609 C568 0.930 . S
H610 C569 0.930 . S
H611 C570 0.930 . S
H612 C574 0.929 . S
H613 C576 0.930 . S
H614 C582 0.929 . S
H615 C583 0.930 . S
Li616 N633 1.990 . S
Li616 O676 1.956 1_565 S
Li616 O677 1.970 . S
Li616 O678 1.961 . S
Li617 N641 1.990 . S
Li617 O676 1.970 1_565 S
Li617 O677 1.956 . S
Li617 O679 1.961 . S
Li618 N663 1.990 . S
Li618 O676 1.961 . S
Li618 O678 1.956 1_545 S
Li618 O679 1.970 1_545 S
Li619 N669 1.990 . S
Li619 O677 1.961 . S
Li619 O678 1.970 . S
Li619 O679 1.956 . S
C620 C622 1.348 . S
C620 C623 1.356 . S
C620 O676 1.325 . S
N621 C624 1.314 . S
N621 C625 1.279 . S
C622 C620 1.348 . S
C622 C624 1.353 . S
C622 H680 0.929 . S
C623 C620 1.356 . S
C623 C625 1.358 . S
C623 H681 0.930 . S
C624 N621 1.314 . S
C624 C622 1.353 . S
C624 H682 0.930 . S
C625 N621 1.279 . S
C625 C623 1.358 . S
C625 H683 0.930 . S
C626 C629 1.348 . S
C626 C630 1.356 . S
C626 O677 1.325 . S
C627 N628 1.279 . S
C627 C630 1.358 . S
C627 H684 0.930 . S
N628 C627 1.279 . S
N628 C631 1.314 . S
C629 C626 1.348 . S
C629 C631 1.353 . S
C629 H685 0.929 . S
C630 C626 1.356 . S
C630 C627 1.358 . S
C630 H686 0.930 . S
C631 N628 1.314 . S
C631 C629 1.353 . S
C631 H687 0.930 . S
C632 N633 1.314 . S
C632 C637 1.353 . S
C632 H638 0.930 . S
N633 Li616 1.990 . S
N633 C632 1.314 . S
N633 C635 1.279 . S
C634 C635 1.358 . S
C634 C636 1.356 . S
C634 H688 0.930 . S
C635 N633 1.279 . S
C635 C634 1.358 . S
C635 H639 0.930 . S
C636 C634 1.356 . S
C636 C637 1.348 . S
C637 C632 1.353 . S
C637 C636 1.348 . S
C637 H689 0.929 . S
H638 C632 0.930 . S
H639 C635 0.930 . S
C640 N641 1.314 1_545 S
C640 C642 1.353 . S
C640 H646 0.930 . S
N641 Li617 1.990 . S
N641 C640 1.314 1_565 S
N641 C644 1.279 . S
C642 C640 1.353 . S
C642 C645 1.348 1_545 S
C642 H690 0.929 . S
C643 C644 1.358 . S
C643 C645 1.356 . S
C643 H691 0.930 . S
C644 N641 1.279 . S
C644 C643 1.358 . S
C644 H647 0.930 . S
C645 C642 1.348 1_565 S
C645 C643 1.356 . S
H646 C640 0.930 . S
H647 C644 0.930 . S
C648 C650 1.348 . S
C648 C651 1.356 . S
C648 O678 1.325 . S
N649 C652 1.314 . S
N649 C653 1.279 . S
C650 C648 1.348 . S
C650 C652 1.353 . S
C650 H692 0.929 . S
C651 C648 1.356 . S
C651 C653 1.358 . S
C651 H693 0.930 1_565 S
C652 N649 1.314 . S
C652 C650 1.353 . S
C652 H694 0.930 . S
C653 N649 1.279 . S
C653 C651 1.358 . S
C653 H695 0.930 . S
C654 C655 1.348 1_565 S
C654 C656 1.356 . S
C654 O679 1.325 . S
C655 C654 1.348 1_545 S
C655 C657 1.353 . S
C655 H696 0.929 . S
C656 C654 1.356 . S
C656 C658 1.358 . S
C656 H697 0.930 . S
C657 C655 1.353 . S
C657 N659 1.314 . S
C657 H698 0.930 . S
C658 C656 1.358 . S
C658 N659 1.279 1_565 S
C658 H699 0.930 . S
N659 C657 1.314 . S
N659 C658 1.279 1_545 S
C660 C662 1.353 . S
C660 N663 1.314 . S
C660 H666 0.930 . S
C661 N663 1.279 . S
C661 C664 1.358 . S
C661 H667 0.930 . S
C662 C660 1.353 . S
C662 C665 1.348 . S
C662 H700 0.929 . S
N663 Li618 1.990 . S
N663 C660 1.314 . S
N663 C661 1.279 . S
C664 C661 1.358 . S
C664 C665 1.356 . S
C664 H701 0.930 . S
C665 C662 1.348 . S
C665 C664 1.356 . S
H666 C660 0.930 . S
H667 C661 0.930 . S
C668 N669 1.314 . S
C668 C670 1.353 . S
C668 H674 0.930 . S
N669 Li619 1.990 . S
N669 C668 1.314 . S
N669 C672 1.279 . S
C670 C668 1.353 . S
C670 C673 1.348 . S
C670 H702 0.929 . S
C671 C672 1.358 . S
C671 C673 1.356 . S
C671 H703 0.930 . S
C672 N669 1.279 . S
C672 C671 1.358 . S
C672 H675 0.930 . S
C673 C670 1.348 . S
C673 C671 1.356 . S
H674 C668 0.930 . S
H675 C672 0.930 . S
O676 Li616 1.956 1_545 S
O676 Li617 1.970 1_545 S
O676 Li618 1.961 . S
O676 C620 1.325 . S
O677 Li616 1.970 . S
O677 Li617 1.956 . S
O677 Li619 1.961 . S
O677 C626 1.325 . S
O678 Li616 1.961 . S
O678 Li618 1.956 1_565 S
O678 Li619 1.970 . S
O678 C648 1.325 . S
O679 Li617 1.961 . S
O679 Li618 1.970 1_565 S
O679 Li619 1.956 . S
O679 C654 1.325 . S
H680 C622 0.929 . S
H681 C623 0.930 . S
H682 C624 0.930 . S
H683 C625 0.930 . S
H684 C627 0.930 . S
H685 C629 0.929 . S
H686 C630 0.930 . S
H687 C631 0.930 . S
H688 C634 0.930 . S
H689 C637 0.929 . S
H690 C642 0.929 . S
H691 C643 0.930 . S
H692 C650 0.929 . S
H693 C651 0.930 1_545 S
H694 C652 0.930 . S
H695 C653 0.930 . S
H696 C655 0.929 . S
H697 C656 0.930 . S
H698 C657 0.930 . S
H699 C658 0.930 . S
H700 C662 0.929 . S
H701 C664 0.930 . S
H702 C670 0.929 . S
H703 C671 0.930 . S
Li704 N721 1.990 . S
Li704 O764 1.956 . S
Li704 O765 1.970 . S
Li704 O766 1.961 . S
Li705 N729 1.990 . S
Li705 O764 1.970 . S
Li705 O765 1.956 . S
Li705 O767 1.961 . S
Li706 N751 1.990 . S
Li706 O764 1.961 . S
Li706 O766 1.956 . S
Li706 O767 1.970 . S
Li707 N757 1.990 . S
Li707 O765 1.961 . S
Li707 O766 1.970 . S
Li707 O767 1.956 . S
C708 C710 1.348 . S
C708 C711 1.356 . S
C708 O764 1.325 . S
N709 C712 1.314 . S
N709 C713 1.279 . S
C710 C708 1.348 . S
C710 C712 1.353 . S
C710 H768 0.929 . S
C711 C708 1.356 . S
C711 C713 1.358 . S
C711 H769 0.930 . S
C712 N709 1.314 . S
C712 C710 1.353 . S
C712 H770 0.930 . S
C713 N709 1.279 . S
C713 C711 1.358 . S
C713 H771 0.930 . S
C714 C717 1.348 . S
C714 C718 1.356 . S
C714 O765 1.325 . S
C715 N716 1.279 . S
C715 C718 1.358 . S
C715 H772 0.930 . S
N716 C715 1.279 . S
N716 C719 1.314 . S
C717 C714 1.348 . S
C717 C719 1.353 . S
C717 H773 0.929 . S
C718 C714 1.356 . S
C718 C715 1.358 . S
C718 H774 0.930 . S
C719 N716 1.314 . S
C719 C717 1.353 . S
C719 H775 0.930 . S
C720 N721 1.314 . S
C720 C725 1.353 . S
C720 H726 0.930 . S
N721 Li704 1.990 . S
N721 C720 1.314 . S
N721 C723 1.279 . S
C722 C723 1.358 . S
C722 C724 1.356 . S
C722 H776 0.930 . S
C723 N721 1.279 . S
C723 C722 1.358 . S
C723 H727 0.930 . S
C724 C722 1.356 . S
C724 C725 1.348 . S
C725 C720 1.353 . S
C725 C724 1.348 . S
C725 H777 0.929 . S
H726 C720 0.930 . S
H727 C723 0.930 . S
C728 N729 1.314 . S
C728 C730 1.353 . S
C728 H734 0.930 . S
N729 Li705 1.990 . S
N729 C728 1.314 . S
N729 C732 1.279 . S
C730 C728 1.353 . S
C730 C733 1.348 . S
C730 H778 0.929 . S
C731 C732 1.358 . S
C731 C733 1.356 . S
C731 H779 0.930 . S
C732 N729 1.279 . S
C732 C731 1.358 . S
C732 H735 0.930 . S
C733 C730 1.348 . S
C733 C731 1.356 . S
H734 C728 0.930 . S
H735 C732 0.930 . S
C736 C738 1.348 . S
C736 C739 1.356 . S
C736 O766 1.325 . S
N737 C740 1.314 . S
N737 C741 1.279 . S
C738 C736 1.348 . S
C738 C740 1.353 . S
C738 H780 0.929 . S
C739 C736 1.356 . S
C739 C741 1.358 . S
C739 H781 0.930 . S
C740 N737 1.314 . S
C740 C738 1.353 . S
C740 H782 0.930 . S
C741 N737 1.279 . S
C741 C739 1.358 . S
C741 H783 0.930 . S
C742 C743 1.348 . S
C742 C744 1.356 . S
C742 O767 1.325 . S
C743 C742 1.348 . S
C743 C745 1.353 . S
C743 H784 0.929 . S
C744 C742 1.356 . S
C744 C746 1.358 . S
C744 H785 0.930 . S
C745 C743 1.353 . S
C745 N747 1.314 . S
C745 H786 0.930 . S
C746 C744 1.358 . S
C746 N747 1.279 . S
C746 H787 0.930 . S
N747 C745 1.314 . S
N747 C746 1.279 . S
C748 C750 1.353 . S
C748 N751 1.314 . S
C748 H754 0.930 . S
C749 N751 1.279 . S
C749 C752 1.358 . S
C749 H755 0.930 . S
C750 C748 1.353 . S
C750 C753 1.348 . S
C750 H788 0.929 . S
N751 Li706 1.990 . S
N751 C748 1.314 . S
N751 C749 1.279 . S
C752 C749 1.358 . S
C752 C753 1.356 . S
C752 H789 0.930 . S
C753 C750 1.348 . S
C753 C752 1.356 . S
H754 C748 0.930 . S
H755 C749 0.930 . S
C756 N757 1.314 . S
C756 C758 1.353 . S
C756 H762 0.930 . S
N757 Li707 1.990 . S
N757 C756 1.314 . S
N757 C760 1.279 . S
C758 C756 1.353 . S
C758 C761 1.348 . S
C758 H790 0.929 . S
C759 C760 1.358 . S
C759 C761 1.356 . S
C759 H791 0.930 . S
C760 N757 1.279 . S
C760 C759 1.358 . S
C760 H763 0.930 . S
C761 C758 1.348 . S
C761 C759 1.356 . S
H762 C756 0.930 . S
H763 C760 0.930 . S
O764 Li704 1.956 . S
O764 Li705 1.970 . S
O764 Li706 1.961 . S
O764 C708 1.325 . S
O765 Li704 1.970 . S
O765 Li705 1.956 . S
O765 Li707 1.961 . S
O765 C714 1.325 . S
O766 Li704 1.961 . S
O766 Li706 1.956 . S
O766 Li707 1.970 . S
O766 C736 1.325 . S
O767 Li705 1.961 . S
O767 Li706 1.970 . S
O767 Li707 1.956 . S
O767 C742 1.325 . S
H768 C710 0.929 . S
H769 C711 0.930 . S
H770 C712 0.930 . S
H771 C713 0.930 . S
H772 C715 0.930 . S
H773 C717 0.929 . S
H774 C718 0.930 . S
H775 C719 0.930 . S
H776 C722 0.930 . S
H777 C725 0.929 . S
H778 C730 0.929 . S
H779 C731 0.930 . S
H780 C738 0.929 . S
H781 C739 0.930 . S
H782 C740 0.930 . S
H783 C741 0.930 . S
H784 C743 0.929 . S
H785 C744 0.930 . S
H786 C745 0.930 . S
H787 C746 0.930 . S
H788 C750 0.929 . S
H789 C752 0.930 . S
H790 C758 0.929 . S
H791 C759 0.930 . S
Li792 N809 1.990 . S
Li792 O852 1.956 . S
Li792 O853 1.970 . S
Li792 O854 1.961 . S
Li793 N817 1.990 . S
Li793 O852 1.970 . S
Li793 O853 1.956 . S
Li793 O855 1.961 . S
Li794 N839 1.990 . S
Li794 O852 1.961 . S
Li794 O854 1.956 . S
Li794 O855 1.970 . S
Li795 N845 1.990 . S
Li795 O853 1.961 . S
Li795 O854 1.970 . S
Li795 O855 1.956 . S
C796 C798 1.348 . S
C796 C799 1.356 . S
C796 O852 1.325 . S
N797 C800 1.314 . S
N797 C801 1.279 . S
C798 C796 1.348 . S
C798 C800 1.353 . S
C798 H856 0.929 . S
C799 C796 1.356 . S
C799 C801 1.358 . S
C799 H857 0.930 . S
C800 N797 1.314 . S
C800 C798 1.353 . S
C800 H858 0.930 . S
C801 N797 1.279 . S
C801 C799 1.358 . S
C801 H859 0.930 . S
C802 C805 1.348 . S
C802 C806 1.356 . S
C802 O853 1.325 . S
C803 N804 1.279 . S
C803 C806 1.358 . S
C803 H860 0.930 . S
N804 C803 1.279 . S
N804 C807 1.314 . S
C805 C802 1.348 . S
C805 C807 1.353 . S
C805 H861 0.929 . S
C806 C802 1.356 . S
C806 C803 1.358 . S
C806 H862 0.930 . S
C807 N804 1.314 . S
C807 C805 1.353 . S
C807 H863 0.930 . S
C808 N809 1.314 . S
C808 C813 1.353 . S
C808 H814 0.930 . S
N809 Li792 1.990 . S
N809 C808 1.314 . S
N809 C811 1.279 . S
C810 C811 1.358 . S
C810 C812 1.356 . S
C810 H864 0.930 . S
C811 N809 1.279 . S
C811 C810 1.358 . S
C811 H815 0.930 . S
C812 C810 1.356 . S
C812 C813 1.348 . S
C813 C808 1.353 . S
C813 C812 1.348 . S
C813 H865 0.929 . S
H814 C808 0.930 . S
H815 C811 0.930 . S
C816 N817 1.314 . S
C816 C818 1.353 . S
C816 H822 0.930 . S
N817 Li793 1.990 . S
N817 C816 1.314 . S
N817 C820 1.279 . S
C818 C816 1.353 . S
C818 C821 1.348 . S
C818 H866 0.929 . S
C819 C820 1.358 . S
C819 C821 1.356 . S
C819 H867 0.930 . S
C820 N817 1.279 . S
C820 C819 1.358 . S
C820 H823 0.930 . S
C821 C818 1.348 . S
C821 C819 1.356 . S
H822 C816 0.930 . S
H823 C820 0.930 . S
C824 C826 1.348 . S
C824 C827 1.356 . S
C824 O854 1.325 . S
N825 C828 1.314 . S
N825 C829 1.279 . S
C826 C824 1.348 . S
C826 C828 1.353 . S
C826 H868 0.929 . S
C827 C824 1.356 . S
C827 C829 1.358 . S
C827 H869 0.930 . S
C828 N825 1.314 . S
C828 C826 1.353 . S
C828 H870 0.930 . S
C829 N825 1.279 . S
C829 C827 1.358 . S
C829 H871 0.930 . S
C830 C831 1.348 . S
C830 C832 1.356 . S
C830 O855 1.325 . S
C831 C830 1.348 . S
C831 C833 1.353 . S
C831 H872 0.929 . S
C832 C830 1.356 . S
C832 C834 1.358 . S
C832 H873 0.930 . S
C833 C831 1.353 . S
C833 N835 1.314 . S
C833 H874 0.930 . S
C834 C832 1.358 . S
C834 N835 1.279 . S
C834 H875 0.930 . S
N835 C833 1.314 . S
N835 C834 1.279 . S
C836 C838 1.353 . S
C836 N839 1.314 . S
C836 H842 0.930 . S
C837 N839 1.279 . S
C837 C840 1.358 . S
C837 H843 0.930 . S
C838 C836 1.353 . S
C838 C841 1.348 . S
C838 H876 0.929 . S
N839 Li794 1.990 . S
N839 C836 1.314 . S
N839 C837 1.279 . S
C840 C837 1.358 . S
C840 C841 1.356 . S
C840 H877 0.930 . S
C841 C838 1.348 . S
C841 C840 1.356 . S
H842 C836 0.930 . S
H843 C837 0.930 . S
C844 N845 1.314 . S
C844 C846 1.353 . S
C844 H850 0.930 . S
N845 Li795 1.990 . S
N845 C844 1.314 . S
N845 C848 1.279 . S
C846 C844 1.353 . S
C846 C849 1.348 . S
C846 H878 0.929 . S
C847 C848 1.358 . S
C847 C849 1.356 . S
C847 H879 0.930 . S
C848 N845 1.279 . S
C848 C847 1.358 . S
C848 H851 0.930 . S
C849 C846 1.348 . S
C849 C847 1.356 . S
H850 C844 0.930 . S
H851 C848 0.930 . S
O852 Li792 1.956 . S
O852 Li793 1.970 . S
O852 Li794 1.961 . S
O852 C796 1.325 . S
O853 Li792 1.970 . S
O853 Li793 1.956 . S
O853 Li795 1.961 . S
O853 C802 1.325 . S
O854 Li792 1.961 . S
O854 Li794 1.956 . S
O854 Li795 1.970 . S
O854 C824 1.325 . S
O855 Li793 1.961 . S
O855 Li794 1.970 . S
O855 Li795 1.956 . S
O855 C830 1.325 . S
H856 C798 0.929 . S
H857 C799 0.930 . S
H858 C800 0.930 . S
H859 C801 0.930 . S
H860 C803 0.930 . S
H861 C805 0.929 . S
H862 C806 0.930 . S
H863 C807 0.930 . S
H864 C810 0.930 . S
H865 C813 0.929 . S
H866 C818 0.929 . S
H867 C819 0.930 . S
H868 C826 0.929 . S
H869 C827 0.930 . S
H870 C828 0.930 . S
H871 C829 0.930 . S
H872 C831 0.929 . S
H873 C832 0.930 . S
H874 C833 0.930 . S
H875 C834 0.930 . S
H876 C838 0.929 . S
H877 C840 0.930 . S
H878 C846 0.929 . S
H879 C847 0.930 . S
Li880 N897 1.990 . S
Li880 O940 1.956 . S
Li880 O941 1.970 1_455 S
Li880 O942 1.961 . S
Li881 N905 1.990 . S
Li881 O940 1.970 1_655 S
Li881 O941 1.956 . S
Li881 O943 1.961 1_655 S
Li882 N927 1.990 . S
Li882 O940 1.961 . S
Li882 O942 1.956 . S
Li882 O943 1.970 . S
Li883 N933 1.990 . S
Li883 O941 1.961 1_455 S
Li883 O942 1.970 . S
Li883 O943 1.956 . S
C884 C886 1.348 1_455 S
C884 C887 1.356 . S
C884 O940 1.325 . S
N885 C888 1.314 . S
N885 C889 1.279 1_655 S
C886 C884 1.348 1_655 S
C886 C888 1.353 . S
C886 H944 0.929 . S
C887 C884 1.356 . S
C887 C889 1.358 . S
C887 H945 0.930 . S
C888 N885 1.314 . S
C888 C886 1.353 . S
C888 H946 0.930 . S
C889 N885 1.279 1_455 S
C889 C887 1.358 . S
C889 H947 0.930 . S
C890 C893 1.348 . S
C890 C894 1.356 . S
C890 O941 1.325 . S
C891 N892 1.279 . S
C891 C894 1.358 . S
C891 H948 0.930 . S
N892 C891 1.279 . S
N892 C895 1.314 . S
C893 C890 1.348 . S
C893 C895 1.353 . S
C893 H949 0.929 . S
C894 C890 1.356 . S
C894 C891 1.358 . S
C894 H950 0.930 . S
C895 N892 1.314 . S
C895 C893 1.353 . S
C895 H951 0.930 . S
C896 N897 1.314 . S
C896 C901 1.353 . S
C896 H902 0.930 . S
N897 Li880 1.990 . S
N897 C896 1.314 . S
N897 C899 1.279 1_455 S
C898 C899 1.358 . S
C898 C900 1.356 1_655 S
C898 H952 0.930 . S
C899 N897 1.279 1_655 S
C899 C898 1.358 . S
C899 H903 0.930 . S
C900 C898 1.356 1_455 S
C900 C901 1.348 . S
C901 C896 1.353 . S
C901 C900 1.348 . S
C901 H953 0.929 . S
H902 C896 0.930 . S
H903 C899 0.930 . S
C904 N905 1.314 . S
C904 C906 1.353 . S
C904 H910 0.930 . S
N905 Li881 1.990 . S
N905 C904 1.314 . S
N905 C908 1.279 . S
C906 C904 1.353 . S
C906 C909 1.348 . S
C906 H954 0.929 . S
C907 C908 1.358 . S
C907 C909 1.356 . S
C907 H955 0.930 . S
C908 N905 1.279 . S
C908 C907 1.358 . S
C908 H911 0.930 . S
C909 C906 1.348 . S
C909 C907 1.356 . S
H910 C904 0.930 . S
H911 C908 0.930 . S
C912 C914 1.348 . S
C912 C915 1.356 . S
C912 O942 1.325 . S
N913 C916 1.314 . S
N913 C917 1.279 . S
C914 C912 1.348 . S
C914 C916 1.353 . S
C914 H956 0.929 . S
C915 C912 1.356 . S
C915 C917 1.358 . S
C915 H957 0.930 . S
C916 N913 1.314 . S
C916 C914 1.353 . S
C916 H958 0.930 . S
C917 N913 1.279 . S
C917 C915 1.358 . S
C917 H959 0.930 . S
C918 C919 1.348 . S
C918 C920 1.358 1_455 S
C918 O943 1.325 . S
C919 C918 1.348 . S
C919 C921 1.353 . S
C919 H960 0.929 . S
C920 C918 1.358 1_655 S
C920 C922 1.359 1_655 S
C920 H961 0.927 . S
C921 C919 1.353 . S
C921 N923 1.314 . S
C921 H962 0.930 . S
C922 C920 1.359 1_455 S
C922 N923 1.279 . S
C922 H963 0.930 1_455 S
N923 C921 1.314 . S
N923 C922 1.279 . S
C924 C926 1.353 . S
C924 N927 1.314 . S
C924 H930 0.930 . S
C925 N927 1.279 . S
C925 C928 1.358 . S
C925 H931 0.930 . S
C926 C924 1.353 . S
C926 C929 1.348 . S
C926 H964 0.929 . S
N927 Li882 1.990 . S
N927 C924 1.314 . S
N927 C925 1.279 . S
C928 C925 1.358 . S
C928 C929 1.356 . S
C928 H965 0.930 . S
C929 C926 1.348 . S
C929 C928 1.356 . S
H930 C924 0.930 . S
H931 C925 0.930 . S
C932 N933 1.314 . S
C932 C934 1.353 . S
C932 H938 0.930 . S
N933 Li883 1.990 . S
N933 C932 1.314 . S
N933 C936 1.279 . S
C934 C932 1.353 . S
C934 C937 1.348 . S
C934 H966 0.929 . S
C935 C936 1.358 . S
C935 C937 1.356 . S
C935 H967 0.930 . S
C936 N933 1.279 . S
C936 C935 1.358 . S
C936 H939 0.930 . S
C937 C934 1.348 . S
C937 C935 1.356 . S
H938 C932 0.930 . S
H939 C936 0.930 . S
O940 Li880 1.956 . S
O940 Li881 1.970 1_455 S
O940 Li882 1.961 . S
O940 C884 1.325 . S
O941 Li880 1.970 1_655 S
O941 Li881 1.956 . S
O941 Li883 1.961 1_655 S
O941 C890 1.325 . S
O942 Li880 1.961 . S
O942 Li882 1.956 . S
O942 Li883 1.970 . S
O942 C912 1.325 . S
O943 Li881 1.961 1_455 S
O943 Li882 1.970 . S
O943 Li883 1.956 . S
O943 C918 1.325 . S
H944 C886 0.929 . S
H945 C887 0.930 . S
H946 C888 0.930 . S
H947 C889 0.930 . S
H948 C891 0.930 . S
H949 C893 0.929 . S
H950 C894 0.930 . S
H951 C895 0.930 . S
H952 C898 0.930 . S
H953 C901 0.929 . S
H954 C906 0.929 . S
H955 C907 0.930 . S
H956 C914 0.929 . S
H957 C915 0.930 . S
H958 C916 0.930 . S
H959 C917 0.930 . S
H960 C919 0.929 . S
H961 C920 0.927 . S
H962 C921 0.930 . S
H963 C922 0.930 1_655 S
H964 C926 0.929 . S
H965 C928 0.930 . S
H966 C934 0.929 . S
H967 C935 0.930 . S
Li968 N985 1.990 . S
Li968 O1028 1.956 . S
Li968 O1029 1.970 1_545 S
Li968 O1030 1.961 . S
Li969 N993 1.990 . S
Li969 O1028 1.970 1_565 S
Li969 O1029 1.956 . S
Li969 O1031 1.961 1_565 S
Li970 N1015 1.990 . S
Li970 O1028 1.961 . S
Li970 O1030 1.956 . S
Li970 O1031 1.970 . S
Li971 N1021 1.990 . S
Li971 O1029 1.961 1_545 S
Li971 O1030 1.970 . S
Li971 O1031 1.956 . S
C972 C974 1.348 1_545 S
C972 C975 1.356 . S
C972 O1028 1.325 . S
N973 C976 1.314 . S
N973 C977 1.279 1_565 S
C974 C972 1.348 1_565 S
C974 C976 1.353 . S
C974 H1032 0.929 . S
C975 C972 1.356 . S
C975 C977 1.358 . S
C975 H1033 0.930 . S
C976 N973 1.314 . S
C976 C974 1.353 . S
C976 H1034 0.930 . S
C977 N973 1.279 1_545 S
C977 C975 1.358 . S
C977 H1035 0.930 . S
C978 C981 1.348 . S
C978 C982 1.356 . S
C978 O1029 1.325 . S
C979 N980 1.279 . S
C979 C982 1.358 . S
C979 H1036 0.930 . S
N980 C979 1.279 . S
N980 C983 1.314 . S
C981 C978 1.348 . S
C981 C983 1.353 . S
C981 H1037 0.929 . S
C982 C978 1.356 . S
C982 C979 1.358 . S
C982 H1038 0.930 . S
C983 N980 1.314 . S
C983 C981 1.353 . S
C983 H1039 0.930 . S
C984 N985 1.314 . S
C984 C989 1.353 . S
C984 H990 0.930 . S
N985 Li968 1.990 . S
N985 C984 1.314 . S
N985 C987 1.279 1_545 S
C986 C987 1.358 . S
C986 C988 1.356 1_565 S
C986 H1040 0.930 . S
C987 N985 1.279 1_565 S
C987 C986 1.358 . S
C987 H991 0.930 . S
C988 C986 1.356 1_545 S
C988 C989 1.348 . S
C989 C984 1.353 . S
C989 C988 1.348 . S
C989 H1041 0.929 . S
H990 C984 0.930 . S
H991 C987 0.930 . S
C992 N993 1.314 . S
C992 C994 1.353 . S
C992 H998 0.930 . S
N993 Li969 1.990 . S
N993 C992 1.314 . S
N993 C996 1.279 . S
C994 C992 1.353 . S
C994 C997 1.348 . S
C994 H1042 0.929 . S
C995 C996 1.358 . S
C995 C997 1.356 . S
C995 H1043 0.930 . S
C996 N993 1.279 . S
C996 C995 1.358 . S
C996 H999 0.930 . S
C997 C994 1.348 . S
C997 C995 1.356 . S
H998 C992 0.930 . S
H999 C996 0.930 . S
C1000 C1002 1.348 . S
C1000 C1003 1.356 . S
C1000 O1030 1.325 . S
N1001 C1004 1.314 . S
N1001 C1005 1.279 . S
C1002 C1000 1.348 . S
C1002 C1004 1.353 . S
C1002 H1044 0.929 . S
C1003 C1000 1.356 . S
C1003 C1005 1.358 . S
C1003 H1045 0.930 . S
C1004 N1001 1.314 . S
C1004 C1002 1.353 . S
C1004 H1046 0.930 . S
C1005 N1001 1.279 . S
C1005 C1003 1.358 . S
C1005 H1047 0.930 . S
C1006 C1007 1.348 . S
C1006 C1008 1.358 1_545 S
C1006 O1031 1.325 . S
C1007 C1006 1.348 . S
C1007 C1009 1.353 . S
C1007 H1048 0.929 . S
C1008 C1006 1.358 1_565 S
C1008 C1010 1.359 1_565 S
C1008 H1049 0.928 . S
C1009 C1007 1.353 . S
C1009 N1011 1.314 . S
C1009 H1050 0.930 . S
C1010 C1008 1.359 1_545 S
C1010 N1011 1.279 . S
C1010 H1051 0.930 1_545 S
N1011 C1009 1.314 . S
N1011 C1010 1.279 . S
C1012 C1014 1.353 . S
C1012 N1015 1.314 . S
C1012 H1018 0.930 . S
C1013 N1015 1.279 . S
C1013 C1016 1.358 . S
C1013 H1019 0.930 . S
C1014 C1012 1.353 . S
C1014 C1017 1.348 . S
C1014 H1052 0.929 . S
N1015 Li970 1.990 . S
N1015 C1012 1.314 . S
N1015 C1013 1.279 . S
C1016 C1013 1.358 . S
C1016 C1017 1.356 . S
C1016 H1053 0.930 . S
C1017 C1014 1.348 . S
C1017 C1016 1.356 . S
H1018 C1012 0.930 . S
H1019 C1013 0.930 . S
C1020 N1021 1.314 . S
C1020 C1022 1.353 . S
C1020 H1026 0.930 . S
N1021 Li971 1.990 . S
N1021 C1020 1.314 . S
N1021 C1024 1.279 . S
C1022 C1020 1.353 . S
C1022 C1025 1.348 . S
C1022 H1054 0.929 . S
C1023 C1024 1.358 . S
C1023 C1025 1.356 . S
C1023 H1055 0.930 . S
C1024 N1021 1.279 . S
C1024 C1023 1.358 . S
C1024 H1027 0.930 . S
C1025 C1022 1.348 . S
C1025 C1023 1.356 . S
H1026 C1020 0.930 . S
H1027 C1024 0.930 . S
O1028 Li968 1.956 . S
O1028 Li969 1.970 1_545 S
O1028 Li970 1.961 . S
O1028 C972 1.325 . S
O1029 Li968 1.970 1_565 S
O1029 Li969 1.956 . S
O1029 Li971 1.961 1_565 S
O1029 C978 1.325 . S
O1030 Li968 1.961 . S
O1030 Li970 1.956 . S
O1030 Li971 1.970 . S
O1030 C1000 1.325 . S
O1031 Li969 1.961 1_545 S
O1031 Li970 1.970 . S
O1031 Li971 1.956 . S
O1031 C1006 1.325 . S
H1032 C974 0.929 . S
H1033 C975 0.930 . S
H1034 C976 0.930 . S
H1035 C977 0.930 . S
H1036 C979 0.930 . S
H1037 C981 0.929 . S
H1038 C982 0.930 . S
H1039 C983 0.930 . S
H1040 C986 0.930 . S
H1041 C989 0.929 . S
H1042 C994 0.929 . S
H1043 C995 0.930 . S
H1044 C1002 0.929 . S
H1045 C1003 0.930 . S
H1046 C1004 0.930 . S
H1047 C1005 0.930 . S
H1048 C1007 0.929 . S
H1049 C1008 0.928 . S
H1050 C1009 0.930 . S
H1051 C1010 0.930 1_565 S
H1052 C1014 0.929 . S
H1053 C1016 0.930 . S
H1054 C1022 0.929 . S
H1055 C1023 0.930 . S
Li1056 N1073 1.990 . S
Li1056 O1116 1.956 . S
Li1056 O1117 1.970 . S
Li1056 O1118 1.961 . S
Li1057 N1081 1.990 . S
Li1057 O1116 1.970 . S
Li1057 O1117 1.956 . S
Li1057 O1119 1.961 . S
Li1058 N1103 1.990 . S
Li1058 O1116 1.961 . S
Li1058 O1118 1.956 . S
Li1058 O1119 1.970 . S
Li1059 N1109 1.990 . S
Li1059 O1117 1.961 . S
Li1059 O1118 1.970 . S
Li1059 O1119 1.956 . S
C1060 C1062 1.348 . S
C1060 C1063 1.356 . S
C1060 O1116 1.325 . S
N1061 C1064 1.314 . S
N1061 C1065 1.279 . S
C1062 C1060 1.348 . S
C1062 C1064 1.353 . S
C1062 H1120 0.929 . S
C1063 C1060 1.356 . S
C1063 C1065 1.358 . S
C1063 H1121 0.930 . S
C1064 N1061 1.314 . S
C1064 C1062 1.353 . S
C1064 H1122 0.930 . S
C1065 N1061 1.279 . S
C1065 C1063 1.358 . S
C1065 H1123 0.930 . S
C1066 C1069 1.348 . S
C1066 C1070 1.356 . S
C1066 O1117 1.325 . S
C1067 N1068 1.279 . S
C1067 C1070 1.358 . S
C1067 H1124 0.930 . S
N1068 C1067 1.279 . S
N1068 C1071 1.314 . S
C1069 C1066 1.348 . S
C1069 C1071 1.353 . S
C1069 H1125 0.929 . S
C1070 C1066 1.356 . S
C1070 C1067 1.358 . S
C1070 H1126 0.930 . S
C1071 N1068 1.314 . S
C1071 C1069 1.353 . S
C1071 H1127 0.930 . S
C1072 N1073 1.314 . S
C1072 C1077 1.353 . S
C1072 H1078 0.930 . S
N1073 Li1056 1.990 . S
N1073 C1072 1.314 . S
N1073 C1075 1.279 . S
C1074 C1075 1.358 . S
C1074 C1076 1.356 . S
C1074 H1128 0.930 . S
C1075 N1073 1.279 . S
C1075 C1074 1.358 . S
C1075 H1079 0.930 . S
C1076 C1074 1.356 . S
C1076 C1077 1.348 . S
C1077 C1072 1.353 . S
C1077 C1076 1.348 . S
C1077 H1129 0.929 . S
H1078 C1072 0.930 . S
H1079 C1075 0.930 . S
C1080 N1081 1.314 . S
C1080 C1082 1.353 . S
C1080 H1086 0.930 . S
N1081 Li1057 1.990 . S
N1081 C1080 1.314 . S
N1081 C1084 1.279 . S
C1082 C1080 1.353 . S
C1082 C1085 1.348 . S
C1082 H1130 0.929 . S
C1083 C1084 1.358 . S
C1083 C1085 1.356 . S
C1083 H1131 0.930 . S
C1084 N1081 1.279 . S
C1084 C1083 1.358 . S
C1084 H1087 0.930 . S
C1085 C1082 1.348 . S
C1085 C1083 1.356 . S
H1086 C1080 0.930 . S
H1087 C1084 0.930 . S
C1088 C1090 1.348 . S
C1088 C1091 1.356 . S
C1088 O1118 1.325 . S
N1089 C1092 1.314 . S
N1089 C1093 1.279 . S
C1090 C1088 1.348 . S
C1090 C1092 1.353 . S
C1090 H1132 0.929 . S
C1091 C1088 1.356 . S
C1091 C1093 1.358 . S
C1091 H1133 0.930 . S
C1092 N1089 1.314 . S
C1092 C1090 1.353 . S
C1092 H1134 0.930 . S
C1093 N1089 1.279 . S
C1093 C1091 1.358 . S
C1093 H1135 0.930 . S
C1094 C1095 1.348 . S
C1094 C1096 1.356 . S
C1094 O1119 1.325 . S
C1095 C1094 1.348 . S
C1095 C1097 1.353 . S
C1095 H1136 0.929 . S
C1096 C1094 1.356 . S
C1096 C1098 1.358 . S
C1096 H1137 0.930 . S
C1097 C1095 1.353 . S
C1097 N1099 1.314 . S
C1097 H1138 0.930 . S
C1098 C1096 1.358 . S
C1098 N1099 1.279 . S
C1098 H1139 0.930 . S
N1099 C1097 1.314 . S
N1099 C1098 1.279 . S
C1100 C1102 1.353 . S
C1100 N1103 1.314 . S
C1100 H1106 0.930 . S
C1101 N1103 1.279 . S
C1101 C1104 1.358 . S
C1101 H1107 0.930 . S
C1102 C1100 1.353 . S
C1102 C1105 1.348 . S
C1102 H1140 0.929 . S
N1103 Li1058 1.990 . S
N1103 C1100 1.314 . S
N1103 C1101 1.279 . S
C1104 C1101 1.358 . S
C1104 C1105 1.356 . S
C1104 H1141 0.930 . S
C1105 C1102 1.348 . S
C1105 C1104 1.356 . S
H1106 C1100 0.930 . S
H1107 C1101 0.930 . S
C1108 N1109 1.314 . S
C1108 C1110 1.353 . S
C1108 H1114 0.930 . S
N1109 Li1059 1.990 . S
N1109 C1108 1.314 . S
N1109 C1112 1.279 . S
C1110 C1108 1.353 . S
C1110 C1113 1.348 . S
C1110 H1142 0.929 . S
C1111 C1112 1.358 . S
C1111 C1113 1.356 . S
C1111 H1143 0.930 . S
C1112 N1109 1.279 . S
C1112 C1111 1.358 . S
C1112 H1115 0.930 . S
C1113 C1110 1.348 . S
C1113 C1111 1.356 . S
H1114 C1108 0.930 . S
H1115 C1112 0.930 . S
O1116 Li1056 1.956 . S
O1116 Li1057 1.970 . S
O1116 Li1058 1.961 . S
O1116 C1060 1.325 . S
O1117 Li1056 1.970 . S
O1117 Li1057 1.956 . S
O1117 Li1059 1.961 . S
O1117 C1066 1.325 . S
O1118 Li1056 1.961 . S
O1118 Li1058 1.956 . S
O1118 Li1059 1.970 . S
O1118 C1088 1.325 . S
O1119 Li1057 1.961 . S
O1119 Li1058 1.970 . S
O1119 Li1059 1.956 . S
O1119 C1094 1.325 . S
H1120 C1062 0.929 . S
H1121 C1063 0.930 . S
H1122 C1064 0.930 . S
H1123 C1065 0.930 . S
H1124 C1067 0.930 . S
H1125 C1069 0.929 . S
H1126 C1070 0.930 . S
H1127 C1071 0.930 . S
H1128 C1074 0.930 . S
H1129 C1077 0.929 . S
H1130 C1082 0.929 . S
H1131 C1083 0.930 . S
H1132 C1090 0.929 . S
H1133 C1091 0.930 . S
H1134 C1092 0.930 . S
H1135 C1093 0.930 . S
H1136 C1095 0.929 . S
H1137 C1096 0.930 . S
H1138 C1097 0.930 . S
H1139 C1098 0.930 . S
H1140 C1102 0.929 . S
H1141 C1104 0.930 . S
H1142 C1110 0.929 . S
H1143 C1111 0.930 . S
Li1144 N1161 1.990 . S
Li1144 O1204 1.956 . S
Li1144 O1205 1.970 . S
Li1144 O1206 1.961 . S
Li1145 N1169 1.990 . S
Li1145 O1204 1.970 . S
Li1145 O1205 1.956 . S
Li1145 O1207 1.961 . S
Li1146 N1191 1.990 . S
Li1146 O1204 1.961 . S
Li1146 O1206 1.956 . S
Li1146 O1207 1.970 . S
Li1147 N1197 1.990 . S
Li1147 O1205 1.961 . S
Li1147 O1206 1.970 . S
Li1147 O1207 1.956 . S
C1148 C1150 1.348 . S
C1148 C1151 1.356 . S
C1148 O1204 1.325 . S
N1149 C1152 1.314 . S
N1149 C1153 1.279 . S
C1150 C1148 1.348 . S
C1150 C1152 1.353 . S
C1150 H1208 0.929 . S
C1151 C1148 1.356 . S
C1151 C1153 1.358 . S
C1151 H1209 0.930 . S
C1152 N1149 1.314 . S
C1152 C1150 1.353 . S
C1152 H1210 0.930 . S
C1153 N1149 1.279 . S
C1153 C1151 1.358 . S
C1153 H1211 0.930 . S
C1154 C1157 1.348 . S
C1154 C1158 1.356 . S
C1154 O1205 1.325 . S
C1155 N1156 1.279 . S
C1155 C1158 1.358 . S
C1155 H1212 0.930 . S
N1156 C1155 1.279 . S
N1156 C1159 1.314 . S
C1157 C1154 1.348 . S
C1157 C1159 1.353 . S
C1157 H1213 0.929 . S
C1158 C1154 1.356 . S
C1158 C1155 1.358 . S
C1158 H1214 0.930 . S
C1159 N1156 1.314 . S
C1159 C1157 1.353 . S
C1159 H1215 0.930 . S
C1160 N1161 1.314 . S
C1160 C1165 1.353 . S
C1160 H1166 0.930 . S
N1161 Li1144 1.990 . S
N1161 C1160 1.314 . S
N1161 C1163 1.279 . S
C1162 C1163 1.358 . S
C1162 C1164 1.356 . S
C1162 H1216 0.930 . S
C1163 N1161 1.279 . S
C1163 C1162 1.358 . S
C1163 H1167 0.930 . S
C1164 C1162 1.356 . S
C1164 C1165 1.348 . S
C1165 C1160 1.353 . S
C1165 C1164 1.348 . S
C1165 H1217 0.929 . S
H1166 C1160 0.930 . S
H1167 C1163 0.930 . S
C1168 N1169 1.314 . S
C1168 C1170 1.353 . S
C1168 H1174 0.930 . S
N1169 Li1145 1.990 . S
N1169 C1168 1.314 . S
N1169 C1172 1.279 . S
C1170 C1168 1.353 . S
C1170 C1173 1.348 . S
C1170 H1218 0.929 . S
C1171 C1172 1.358 . S
C1171 C1173 1.356 . S
C1171 H1219 0.930 . S
C1172 N1169 1.279 . S
C1172 C1171 1.358 . S
C1172 H1175 0.930 . S
C1173 C1170 1.348 . S
C1173 C1171 1.356 . S
H1174 C1168 0.930 . S
H1175 C1172 0.930 . S
C1176 C1178 1.348 . S
C1176 C1179 1.356 . S
C1176 O1206 1.325 . S
N1177 C1180 1.314 . S
N1177 C1181 1.279 . S
C1178 C1176 1.348 . S
C1178 C1180 1.353 . S
C1178 H1220 0.929 . S
C1179 C1176 1.356 . S
C1179 C1181 1.358 . S
C1179 H1221 0.930 . S
C1180 N1177 1.314 . S
C1180 C1178 1.353 . S
C1180 H1222 0.930 . S
C1181 N1177 1.279 . S
C1181 C1179 1.358 . S
C1181 H1223 0.930 . S
C1182 C1183 1.348 . S
C1182 C1184 1.356 . S
C1182 O1207 1.325 . S
C1183 C1182 1.348 . S
C1183 C1185 1.353 . S
C1183 H1224 0.929 . S
C1184 C1182 1.356 . S
C1184 C1186 1.358 . S
C1184 H1225 0.930 . S
C1185 C1183 1.353 . S
C1185 N1187 1.314 . S
C1185 H1226 0.930 . S
C1186 C1184 1.358 . S
C1186 N1187 1.279 . S
C1186 H1227 0.930 . S
N1187 C1185 1.314 . S
N1187 C1186 1.279 . S
C1188 C1190 1.353 . S
C1188 N1191 1.314 . S
C1188 H1194 0.930 . S
C1189 N1191 1.279 . S
C1189 C1192 1.358 . S
C1189 H1195 0.930 . S
C1190 C1188 1.353 . S
C1190 C1193 1.348 . S
C1190 H1228 0.929 . S
N1191 Li1146 1.990 . S
N1191 C1188 1.314 . S
N1191 C1189 1.279 . S
C1192 C1189 1.358 . S
C1192 C1193 1.356 . S
C1192 H1229 0.930 . S
C1193 C1190 1.348 . S
C1193 C1192 1.356 . S
H1194 C1188 0.930 . S
H1195 C1189 0.930 . S
C1196 N1197 1.314 . S
C1196 C1198 1.353 . S
C1196 H1202 0.930 . S
N1197 Li1147 1.990 . S
N1197 C1196 1.314 . S
N1197 C1200 1.279 . S
C1198 C1196 1.353 . S
C1198 C1201 1.348 . S
C1198 H1230 0.929 . S
C1199 C1200 1.358 . S
C1199 C1201 1.356 . S
C1199 H1231 0.930 . S
C1200 N1197 1.279 . S
C1200 C1199 1.358 . S
C1200 H1203 0.930 . S
C1201 C1198 1.348 . S
C1201 C1199 1.356 . S
H1202 C1196 0.930 . S
H1203 C1200 0.930 . S
O1204 Li1144 1.956 . S
O1204 Li1145 1.970 . S
O1204 Li1146 1.961 . S
O1204 C1148 1.325 . S
O1205 Li1144 1.970 . S
O1205 Li1145 1.956 . S
O1205 Li1147 1.961 . S
O1205 C1154 1.325 . S
O1206 Li1144 1.961 . S
O1206 Li1146 1.956 . S
O1206 Li1147 1.970 . S
O1206 C1176 1.325 . S
O1207 Li1145 1.961 . S
O1207 Li1146 1.970 . S
O1207 Li1147 1.956 . S
O1207 C1182 1.325 . S
H1208 C1150 0.929 . S
H1209 C1151 0.930 . S
H1210 C1152 0.930 . S
H1211 C1153 0.930 . S
H1212 C1155 0.930 . S
H1213 C1157 0.929 . S
H1214 C1158 0.930 . S
H1215 C1159 0.930 . S
H1216 C1162 0.930 . S
H1217 C1165 0.929 . S
H1218 C1170 0.929 . S
H1219 C1171 0.930 . S
H1220 C1178 0.929 . S
H1221 C1179 0.930 . S
H1222 C1180 0.930 . S
H1223 C1181 0.930 . S
H1224 C1183 0.929 . S
H1225 C1184 0.930 . S
H1226 C1185 0.930 . S
H1227 C1186 0.930 . S
H1228 C1190 0.929 . S
H1229 C1192 0.930 . S
H1230 C1198 0.929 . S
H1231 C1199 0.930 . S
Li1232 N1249 1.990 . S
Li1232 O1292 1.956 . S
Li1232 O1293 1.970 . S
Li1232 O1294 1.961 . S
Li1233 N1257 1.990 . S
Li1233 O1292 1.970 . S
Li1233 O1293 1.956 . S
Li1233 O1295 1.961 1_455 S
Li1234 N1279 1.990 . S
Li1234 O1292 1.961 . S
Li1234 O1294 1.956 . S
Li1234 O1295 1.970 1_455 S
Li1235 N1285 1.990 . S
Li1235 O1293 1.961 1_655 S
Li1235 O1294 1.970 1_655 S
Li1235 O1295 1.956 . S
C1236 C1238 1.348 . S
C1236 C1239 1.356 . S
C1236 O1292 1.325 . S
N1237 C1240 1.314 . S
N1237 C1241 1.279 . S
C1238 C1236 1.348 . S
C1238 C1240 1.353 . S
C1238 H1296 0.929 . S
C1239 C1236 1.356 . S
C1239 C1241 1.358 . S
C1239 H1297 0.930 . S
C1240 N1237 1.314 . S
C1240 C1238 1.353 . S
C1240 H1298 0.930 . S
C1241 N1237 1.279 . S
C1241 C1239 1.358 . S
C1241 H1299 0.930 . S
C1242 C1245 1.348 . S
C1242 C1246 1.358 1_455 S
C1242 O1293 1.325 . S
C1243 N1244 1.279 . S
C1243 C1246 1.359 1_455 S
C1243 H1300 0.930 1_455 S
N1244 C1243 1.279 . S
N1244 C1247 1.314 . S
C1245 C1242 1.348 . S
C1245 C1247 1.353 . S
C1245 H1301 0.929 . S
C1246 C1242 1.358 1_655 S
C1246 C1243 1.359 1_655 S
C1246 H1302 0.928 . S
C1247 N1244 1.314 . S
C1247 C1245 1.353 . S
C1247 H1303 0.930 . S
C1248 N1249 1.314 . S
C1248 C1253 1.353 . S
C1248 H1254 0.930 . S
N1249 Li1232 1.990 . S
N1249 C1248 1.314 . S
N1249 C1251 1.279 . S
C1250 C1251 1.358 . S
C1250 C1252 1.356 . S
C1250 H1304 0.930 . S
C1251 N1249 1.279 . S
C1251 C1250 1.358 . S
C1251 H1255 0.930 . S
C1252 C1250 1.356 . S
C1252 C1253 1.348 . S
C1253 C1248 1.353 . S
C1253 C1252 1.348 . S
C1253 H1305 0.929 . S
H1254 C1248 0.930 . S
H1255 C1251 0.930 . S
C1256 N1257 1.314 . S
C1256 C1258 1.353 . S
C1256 H1262 0.930 . S
N1257 Li1233 1.990 . S
N1257 C1256 1.314 . S
N1257 C1260 1.279 . S
C1258 C1256 1.353 . S
C1258 C1261 1.348 . S
C1258 H1306 0.929 . S
C1259 C1260 1.358 . S
C1259 C1261 1.356 . S
C1259 H1307 0.930 . S
C1260 N1257 1.279 . S
C1260 C1259 1.358 . S
C1260 H1263 0.930 . S
C1261 C1258 1.348 . S
C1261 C1259 1.356 . S
H1262 C1256 0.930 . S
H1263 C1260 0.930 . S
C1264 C1266 1.348 1_455 S
C1264 C1267 1.356 . S
C1264 O1294 1.325 . S
N1265 C1268 1.314 . S
N1265 C1269 1.279 1_655 S
C1266 C1264 1.348 1_655 S
C1266 C1268 1.353 . S
C1266 H1308 0.929 . S
C1267 C1264 1.356 . S
C1267 C1269 1.358 . S
C1267 H1309 0.930 . S
C1268 N1265 1.314 . S
C1268 C1266 1.353 . S
C1268 H1310 0.930 . S
C1269 N1265 1.279 1_455 S
C1269 C1267 1.358 . S
C1269 H1311 0.930 . S
C1270 C1271 1.348 . S
C1270 C1272 1.356 . S
C1270 O1295 1.325 . S
C1271 C1270 1.348 . S
C1271 C1273 1.353 . S
C1271 H1312 0.929 . S
C1272 C1270 1.356 . S
C1272 C1274 1.358 . S
C1272 H1313 0.930 . S
C1273 C1271 1.353 . S
C1273 N1275 1.314 . S
C1273 H1314 0.930 . S
C1274 C1272 1.358 . S
C1274 N1275 1.279 . S
C1274 H1315 0.930 . S
N1275 C1273 1.314 . S
N1275 C1274 1.279 . S
C1276 C1278 1.353 . S
C1276 N1279 1.314 . S
C1276 H1282 0.930 . S
C1277 N1279 1.279 1_655 S
C1277 C1280 1.358 . S
C1277 H1283 0.930 . S
C1278 C1276 1.353 . S
C1278 C1281 1.348 . S
C1278 H1316 0.929 . S
N1279 Li1234 1.990 . S
N1279 C1276 1.314 . S
N1279 C1277 1.279 1_455 S
C1280 C1277 1.358 . S
C1280 C1281 1.356 1_655 S
C1280 H1317 0.930 . S
C1281 C1278 1.348 . S
C1281 C1280 1.356 1_455 S
H1282 C1276 0.930 . S
H1283 C1277 0.930 . S
C1284 N1285 1.314 . S
C1284 C1286 1.353 . S
C1284 H1290 0.930 . S
N1285 Li1235 1.990 . S
N1285 C1284 1.314 . S
N1285 C1288 1.279 . S
C1286 C1284 1.353 . S
C1286 C1289 1.348 . S
C1286 H1318 0.929 . S
C1287 C1288 1.358 . S
C1287 C1289 1.356 . S
C1287 H1319 0.930 . S
C1288 N1285 1.279 . S
C1288 C1287 1.358 . S
C1288 H1291 0.930 . S
C1289 C1286 1.348 . S
C1289 C1287 1.356 . S
H1290 C1284 0.930 . S
H1291 C1288 0.930 . S
O1292 Li1232 1.956 . S
O1292 Li1233 1.970 . S
O1292 Li1234 1.961 . S
O1292 C1236 1.325 . S
O1293 Li1232 1.970 . S
O1293 Li1233 1.956 . S
O1293 Li1235 1.961 1_455 S
O1293 C1242 1.325 . S
O1294 Li1232 1.961 . S
O1294 Li1234 1.956 . S
O1294 Li1235 1.970 1_455 S
O1294 C1264 1.325 . S
O1295 Li1233 1.961 1_655 S
O1295 Li1234 1.970 1_655 S
O1295 Li1235 1.956 . S
O1295 C1270 1.325 . S
H1296 C1238 0.929 . S
H1297 C1239 0.930 . S
H1298 C1240 0.930 . S
H1299 C1241 0.930 . S
H1300 C1243 0.930 1_655 S
H1301 C1245 0.929 . S
H1302 C1246 0.928 . S
H1303 C1247 0.930 . S
H1304 C1250 0.930 . S
H1305 C1253 0.929 . S
H1306 C1258 0.929 . S
H1307 C1259 0.930 . S
H1308 C1266 0.929 . S
H1309 C1267 0.930 . S
H1310 C1268 0.930 . S
H1311 C1269 0.930 . S
H1312 C1271 0.929 . S
H1313 C1272 0.930 . S
H1314 C1273 0.930 . S
H1315 C1274 0.930 . S
H1316 C1278 0.929 . S
H1317 C1280 0.930 . S
H1318 C1286 0.929 . S
H1319 C1287 0.930 . S
Li1320 N1337 1.990 . S
Li1320 O1380 1.956 . S
Li1320 O1381 1.970 . S
Li1320 O1382 1.961 . S
Li1321 N1345 1.990 . S
Li1321 O1380 1.970 . S
Li1321 O1381 1.956 . S
Li1321 O1383 1.961 1_545 S
Li1322 N1367 1.990 . S
Li1322 O1380 1.961 . S
Li1322 O1382 1.956 . S
Li1322 O1383 1.970 1_545 S
Li1323 N1373 1.990 . S
Li1323 O1381 1.961 1_565 S
Li1323 O1382 1.970 1_565 S
Li1323 O1383 1.956 . S
C1324 C1326 1.348 . S
C1324 C1327 1.356 . S
C1324 O1380 1.325 . S
N1325 C1328 1.314 . S
N1325 C1329 1.279 . S
C1326 C1324 1.348 . S
C1326 C1328 1.353 . S
C1326 H1384 0.929 . S
C1327 C1324 1.356 . S
C1327 C1329 1.358 . S
C1327 H1385 0.930 . S
C1328 N1325 1.314 . S
C1328 C1326 1.353 . S
C1328 H1386 0.930 . S
C1329 N1325 1.279 . S
C1329 C1327 1.358 . S
C1329 H1387 0.930 . S
C1330 C1333 1.348 . S
C1330 C1334 1.358 1_545 S
C1330 O1381 1.325 . S
C1331 N1332 1.279 . S
C1331 C1334 1.359 1_545 S
C1331 H1388 0.930 1_545 S
N1332 C1331 1.279 . S
N1332 C1335 1.314 . S
C1333 C1330 1.348 . S
C1333 C1335 1.353 . S
C1333 H1389 0.929 . S
C1334 C1330 1.358 1_565 S
C1334 C1331 1.359 1_565 S
C1334 H1390 0.927 . S
C1335 N1332 1.314 . S
C1335 C1333 1.353 . S
C1335 H1391 0.930 . S
C1336 N1337 1.314 . S
C1336 C1341 1.353 . S
C1336 H1342 0.930 . S
N1337 Li1320 1.990 . S
N1337 C1336 1.314 . S
N1337 C1339 1.279 . S
C1338 C1339 1.358 . S
C1338 C1340 1.356 . S
C1338 H1392 0.930 . S
C1339 N1337 1.279 . S
C1339 C1338 1.358 . S
C1339 H1343 0.930 . S
C1340 C1338 1.356 . S
C1340 C1341 1.348 . S
C1341 C1336 1.353 . S
C1341 C1340 1.348 . S
C1341 H1393 0.929 . S
H1342 C1336 0.930 . S
H1343 C1339 0.930 . S
C1344 N1345 1.314 . S
C1344 C1346 1.353 . S
C1344 H1350 0.930 . S
N1345 Li1321 1.990 . S
N1345 C1344 1.314 . S
N1345 C1348 1.279 . S
C1346 C1344 1.353 . S
C1346 C1349 1.348 . S
C1346 H1394 0.929 . S
C1347 C1348 1.358 . S
C1347 C1349 1.356 . S
C1347 H1395 0.930 . S
C1348 N1345 1.279 . S
C1348 C1347 1.358 . S
C1348 H1351 0.930 . S
C1349 C1346 1.348 . S
C1349 C1347 1.356 . S
H1350 C1344 0.930 . S
H1351 C1348 0.930 . S
C1352 C1354 1.348 1_545 S
C1352 C1355 1.356 . S
C1352 O1382 1.325 . S
N1353 C1356 1.314 . S
N1353 C1357 1.279 1_565 S
C1354 C1352 1.348 1_565 S
C1354 C1356 1.353 . S
C1354 H1396 0.929 . S
C1355 C1352 1.356 . S
C1355 C1357 1.358 . S
C1355 H1397 0.930 . S
C1356 N1353 1.314 . S
C1356 C1354 1.353 . S
C1356 H1398 0.930 . S
C1357 N1353 1.279 1_545 S
C1357 C1355 1.358 . S
C1357 H1399 0.930 . S
C1358 C1359 1.348 . S
C1358 C1360 1.356 . S
C1358 O1383 1.325 . S
C1359 C1358 1.348 . S
C1359 C1361 1.353 . S
C1359 H1400 0.929 . S
C1360 C1358 1.356 . S
C1360 C1362 1.358 . S
C1360 H1401 0.930 . S
C1361 C1359 1.353 . S
C1361 N1363 1.314 . S
C1361 H1402 0.930 . S
C1362 C1360 1.358 . S
C1362 N1363 1.279 . S
C1362 H1403 0.930 . S
N1363 C1361 1.314 . S
N1363 C1362 1.279 . S
C1364 C1366 1.353 . S
C1364 N1367 1.314 . S
C1364 H1370 0.930 . S
C1365 N1367 1.279 1_565 S
C1365 C1368 1.358 . S
C1365 H1371 0.930 . S
C1366 C1364 1.353 . S
C1366 C1369 1.348 . S
C1366 H1404 0.929 . S
N1367 Li1322 1.990 . S
N1367 C1364 1.314 . S
N1367 C1365 1.279 1_545 S
C1368 C1365 1.358 . S
C1368 C1369 1.356 1_565 S
C1368 H1405 0.930 . S
C1369 C1366 1.348 . S
C1369 C1368 1.356 1_545 S
H1370 C1364 0.930 . S
H1371 C1365 0.930 . S
C1372 N1373 1.314 . S
C1372 C1374 1.353 . S
C1372 H1378 0.930 . S
N1373 Li1323 1.990 . S
N1373 C1372 1.314 . S
N1373 C1376 1.279 . S
C1374 C1372 1.353 . S
C1374 C1377 1.348 . S
C1374 H1406 0.929 . S
C1375 C1376 1.358 . S
C1375 C1377 1.356 . S
C1375 H1407 0.930 . S
C1376 N1373 1.279 . S
C1376 C1375 1.358 . S
C1376 H1379 0.930 . S
C1377 C1374 1.348 . S
C1377 C1375 1.356 . S
H1378 C1372 0.930 . S
H1379 C1376 0.930 . S
O1380 Li1320 1.956 . S
O1380 Li1321 1.970 . S
O1380 Li1322 1.961 . S
O1380 C1324 1.325 . S
O1381 Li1320 1.970 . S
O1381 Li1321 1.956 . S
O1381 Li1323 1.961 1_545 S
O1381 C1330 1.325 . S
O1382 Li1320 1.961 . S
O1382 Li1322 1.956 . S
O1382 Li1323 1.970 1_545 S
O1382 C1352 1.325 . S
O1383 Li1321 1.961 1_565 S
O1383 Li1322 1.970 1_565 S
O1383 Li1323 1.956 . S
O1383 C1358 1.325 . S
H1384 C1326 0.929 . S
H1385 C1327 0.930 . S
H1386 C1328 0.930 . S
H1387 C1329 0.930 . S
H1388 C1331 0.930 1_565 S
H1389 C1333 0.929 . S
H1390 C1334 0.927 . S
H1391 C1335 0.930 . S
H1392 C1338 0.930 . S
H1393 C1341 0.929 . S
H1394 C1346 0.929 . S
H1395 C1347 0.930 . S
H1396 C1354 0.929 . S
H1397 C1355 0.930 . S
H1398 C1356 0.930 . S
H1399 C1357 0.930 . S
H1400 C1359 0.929 . S
H1401 C1360 0.930 . S
H1402 C1361 0.930 . S
H1403 C1362 0.930 . S
H1404 C1366 0.929 . S
H1405 C1368 0.930 . S
H1406 C1374 0.929 . S
H1407 C1375 0.930 . S
C1408 C1409 1.363 . S
C1408 C1414 1.379 . S
C1408 N1416 1.356 . S
C1409 C1408 1.363 . S
C1409 C1415 1.363 . S
C1410 C1411 1.363 . S
C1410 C1415 1.379 . S
C1410 N1417 1.356 . S
C1411 C1410 1.363 . S
C1411 C1414 1.363 . S
N1412 C1414 1.356 . S
N1412 H1424 0.984 . S
N1412 H1425 0.985 . S
N1413 C1415 1.356 . S
N1413 H1418 0.984 . S
N1413 H1419 0.985 . S
C1414 C1408 1.379 . S
C1414 C1411 1.363 . S
C1414 N1412 1.356 . S
C1415 C1409 1.363 . S
C1415 C1410 1.379 . S
C1415 N1413 1.356 . S
N1416 C1408 1.356 . S
N1416 H1422 0.984 . S
N1416 H1423 0.984 . S
N1417 C1410 1.356 . S
N1417 H1420 0.984 . S
N1417 H1421 0.985 . S
H1418 N1413 0.984 . S
H1419 N1413 0.985 . S
H1420 N1417 0.984 . S
H1421 N1417 0.985 . S
H1422 N1416 0.984 . S
H1423 N1416 0.984 . S
H1424 N1412 0.984 . S
H1425 N1412 0.985 . S
C1426 C1427 1.363 . S
C1426 C1432 1.379 . S
C1426 N1434 1.356 . S
C1427 C1426 1.363 . S
C1427 C1433 1.363 . S
C1428 C1429 1.363 . S
C1428 C1433 1.379 . S
C1428 N1435 1.356 . S
C1429 C1428 1.363 . S
C1429 C1432 1.363 . S
N1430 C1432 1.356 . S
N1430 H1442 0.984 . S
N1430 H1443 0.985 . S
N1431 C1433 1.356 . S
N1431 H1436 0.984 . S
N1431 H1437 0.985 . S
C1432 C1426 1.379 . S
C1432 C1429 1.363 . S
C1432 N1430 1.356 . S
C1433 C1427 1.363 . S
C1433 C1428 1.379 . S
C1433 N1431 1.356 . S
N1434 C1426 1.356 . S
N1434 H1440 0.984 . S
N1434 H1441 0.984 . S
N1435 C1428 1.356 . S
N1435 H1438 0.984 . S
N1435 H1439 0.985 . S
H1436 N1431 0.984 . S
H1437 N1431 0.985 . S
H1438 N1435 0.984 . S
H1439 N1435 0.985 . S
H1440 N1434 0.984 . S
H1441 N1434 0.984 . S
H1442 N1430 0.984 . S
H1443 N1430 0.985 . S
C1444 C1445 1.363 . S
C1444 C1450 1.379 . S
C1444 N1452 1.356 . S
C1445 C1444 1.363 . S
C1445 C1451 1.363 . S
C1446 C1447 1.363 . S
C1446 C1451 1.379 . S
C1446 N1453 1.356 . S
C1447 C1446 1.363 . S
C1447 C1450 1.363 . S
N1448 C1450 1.356 . S
N1448 H1460 0.984 . S
N1448 H1461 0.985 . S
N1449 C1451 1.356 . S
N1449 H1454 0.984 . S
N1449 H1455 0.985 . S
C1450 C1444 1.379 . S
C1450 C1447 1.363 . S
C1450 N1448 1.356 . S
C1451 C1445 1.363 . S
C1451 C1446 1.379 . S
C1451 N1449 1.356 . S
N1452 C1444 1.356 . S
N1452 H1458 0.984 . S
N1452 H1459 0.984 . S
N1453 C1446 1.356 . S
N1453 H1456 0.984 . S
N1453 H1457 0.985 . S
H1454 N1449 0.984 . S
H1455 N1449 0.985 . S
H1456 N1453 0.984 . S
H1457 N1453 0.985 . S
H1458 N1452 0.984 . S
H1459 N1452 0.984 . S
H1460 N1448 0.984 . S
H1461 N1448 0.985 . S
C1462 C1463 1.363 . S
C1462 C1468 1.379 . S
C1462 N1470 1.356 . S
C1463 C1462 1.363 . S
C1463 C1469 1.363 . S
C1464 C1465 1.363 . S
C1464 C1469 1.379 . S
C1464 N1471 1.356 . S
C1465 C1464 1.363 . S
C1465 C1468 1.363 . S
N1466 C1468 1.356 . S
N1466 H1478 0.984 . S
N1466 H1479 0.985 . S
N1467 C1469 1.356 . S
N1467 H1472 0.984 . S
N1467 H1473 0.985 . S
C1468 C1462 1.379 . S
C1468 C1465 1.363 . S
C1468 N1466 1.356 . S
C1469 C1463 1.363 . S
C1469 C1464 1.379 . S
C1469 N1467 1.356 . S
N1470 C1462 1.356 . S
N1470 H1476 0.984 . S
N1470 H1477 0.984 . S
N1471 C1464 1.356 . S
N1471 H1474 0.984 . S
N1471 H1475 0.985 . S
H1472 N1467 0.984 . S
H1473 N1467 0.985 . S
H1474 N1471 0.984 . S
H1475 N1471 0.985 . S
H1476 N1470 0.984 . S
H1477 N1470 0.984 . S
H1478 N1466 0.984 . S
H1479 N1466 0.985 . S
C1480 C1481 1.363 . S
C1480 C1486 1.379 . S
C1480 N1488 1.356 . S
C1481 C1480 1.363 . S
C1481 C1487 1.363 . S
C1482 C1483 1.363 . S
C1482 C1487 1.379 . S
C1482 N1489 1.356 . S
C1483 C1482 1.363 . S
C1483 C1486 1.363 . S
N1484 C1486 1.356 . S
N1484 H1496 0.984 . S
N1484 H1497 0.985 . S
N1485 C1487 1.356 . S
N1485 H1490 0.984 . S
N1485 H1491 0.985 . S
C1486 C1480 1.379 . S
C1486 C1483 1.363 . S
C1486 N1484 1.356 . S
C1487 C1481 1.363 . S
C1487 C1482 1.379 . S
C1487 N1485 1.356 . S
N1488 C1480 1.356 . S
N1488 H1494 0.984 . S
N1488 H1495 0.984 . S
N1489 C1482 1.356 . S
N1489 H1492 0.984 . S
N1489 H1493 0.985 . S
H1490 N1485 0.984 . S
H1491 N1485 0.985 . S
H1492 N1489 0.984 . S
H1493 N1489 0.985 . S
H1494 N1488 0.984 . S
H1495 N1488 0.984 . S
H1496 N1484 0.984 . S
H1497 N1484 0.985 . S
C1498 C1499 1.363 . S
C1498 C1504 1.379 . S
C1498 N1506 1.356 . S
C1499 C1498 1.363 . S
C1499 C1505 1.363 . S
C1500 C1501 1.363 . S
C1500 C1505 1.379 . S
C1500 N1507 1.356 . S
C1501 C1500 1.363 . S
C1501 C1504 1.363 . S
N1502 C1504 1.356 . S
N1502 H1514 0.984 . S
N1502 H1515 0.985 . S
N1503 C1505 1.356 . S
N1503 H1508 0.984 . S
N1503 H1509 0.985 . S
C1504 C1498 1.379 . S
C1504 C1501 1.363 . S
C1504 N1502 1.356 . S
C1505 C1499 1.363 . S
C1505 C1500 1.379 . S
C1505 N1503 1.356 . S
N1506 C1498 1.356 . S
N1506 H1512 0.984 . S
N1506 H1513 0.984 . S
N1507 C1500 1.356 . S
N1507 H1510 0.984 . S
N1507 H1511 0.985 . S
H1508 N1503 0.984 . S
H1509 N1503 0.985 . S
H1510 N1507 0.984 . S
H1511 N1507 0.985 . S
H1512 N1506 0.984 . S
H1513 N1506 0.984 . S
H1514 N1502 0.984 . S
H1515 N1502 0.985 . S
C1516 C1517 1.363 . S
C1516 C1522 1.379 . S
C1516 N1524 1.356 . S
C1517 C1516 1.363 . S
C1517 C1523 1.363 . S
C1518 C1519 1.363 . S
C1518 C1523 1.379 . S
C1518 N1525 1.356 . S
C1519 C1518 1.363 . S
C1519 C1522 1.363 . S
N1520 C1522 1.356 . S
N1520 H1532 0.984 . S
N1520 H1533 0.985 . S
N1521 C1523 1.356 . S
N1521 H1526 0.984 . S
N1521 H1527 0.985 . S
C1522 C1516 1.379 . S
C1522 C1519 1.363 . S
C1522 N1520 1.356 . S
C1523 C1517 1.363 . S
C1523 C1518 1.379 . S
C1523 N1521 1.356 . S
N1524 C1516 1.356 . S
N1524 H1530 0.984 . S
N1524 H1531 0.984 . S
N1525 C1518 1.356 . S
N1525 H1528 0.984 . S
N1525 H1529 0.985 . S
H1526 N1521 0.984 . S
H1527 N1521 0.985 . S
H1528 N1525 0.984 . S
H1529 N1525 0.985 . S
H1530 N1524 0.984 . S
H1531 N1524 0.984 . S
H1532 N1520 0.984 . S
H1533 N1520 0.985 . S
C1534 C1535 1.363 . S
C1534 C1540 1.379 . S
C1534 N1542 1.356 . S
C1535 C1534 1.363 . S
C1535 C1541 1.363 . S
C1536 C1537 1.363 . S
C1536 C1541 1.379 . S
C1536 N1543 1.356 . S
C1537 C1536 1.363 . S
C1537 C1540 1.363 . S
N1538 C1540 1.356 . S
N1538 H1550 0.984 . S
N1538 H1551 0.985 . S
N1539 C1541 1.356 . S
N1539 H1544 0.984 . S
N1539 H1545 0.985 . S
C1540 C1534 1.379 . S
C1540 C1537 1.363 . S
C1540 N1538 1.356 . S
C1541 C1535 1.363 . S
C1541 C1536 1.379 . S
C1541 N1539 1.356 . S
N1542 C1534 1.356 . S
N1542 H1548 0.984 . S
N1542 H1549 0.984 . S
N1543 C1536 1.356 . S
N1543 H1546 0.984 . S
N1543 H1547 0.985 . S
H1544 N1539 0.984 . S
H1545 N1539 0.985 . S
H1546 N1543 0.984 . S
H1547 N1543 0.985 . S
H1548 N1542 0.984 . S
H1549 N1542 0.984 . S
H1550 N1538 0.984 . S
H1551 N1538 0.985 . S
C1552 C1553 1.363 . S
C1552 C1558 1.379 . S
C1552 N1560 1.356 . S
C1553 C1552 1.363 . S
C1553 C1559 1.363 . S
C1554 C1555 1.363 . S
C1554 C1559 1.379 . S
C1554 N1561 1.356 . S
C1555 C1554 1.363 . S
C1555 C1558 1.363 . S
N1556 C1558 1.356 . S
N1556 H1568 0.984 . S
N1556 H1569 0.985 . S
N1557 C1559 1.356 . S
N1557 H1562 0.984 . S
N1557 H1563 0.985 . S
C1558 C1552 1.379 . S
C1558 C1555 1.363 . S
C1558 N1556 1.356 . S
C1559 C1553 1.363 . S
C1559 C1554 1.379 . S
C1559 N1557 1.356 . S
N1560 C1552 1.356 . S
N1560 H1566 0.984 . S
N1560 H1567 0.984 . S
N1561 C1554 1.356 . S
N1561 H1564 0.984 . S
N1561 H1565 0.985 . S
H1562 N1557 0.984 . S
H1563 N1557 0.985 . S
H1564 N1561 0.984 . S
H1565 N1561 0.985 . S
H1566 N1560 0.984 . S
H1567 N1560 0.984 . S
H1568 N1556 0.984 . S
H1569 N1556 0.985 . S
C1570 C1571 1.363 . S
C1570 C1576 1.379 . S
C1570 N1578 1.356 . S
C1571 C1570 1.363 . S
C1571 C1577 1.363 . S
C1572 C1573 1.363 . S
C1572 C1577 1.379 . S
C1572 N1579 1.356 . S
C1573 C1572 1.363 . S
C1573 C1576 1.363 . S
N1574 C1576 1.356 . S
N1574 H1586 0.984 . S
N1574 H1587 0.985 . S
N1575 C1577 1.356 . S
N1575 H1580 0.984 . S
N1575 H1581 0.985 . S
C1576 C1570 1.379 . S
C1576 C1573 1.363 . S
C1576 N1574 1.356 . S
C1577 C1571 1.363 . S
C1577 C1572 1.379 . S
C1577 N1575 1.356 . S
N1578 C1570 1.356 . S
N1578 H1584 0.984 . S
N1578 H1585 0.984 . S
N1579 C1572 1.356 . S
N1579 H1582 0.984 . S
N1579 H1583 0.985 . S
H1580 N1575 0.984 . S
H1581 N1575 0.985 . S
H1582 N1579 0.984 . S
H1583 N1579 0.985 . S
H1584 N1578 0.984 . S
H1585 N1578 0.984 . S
H1586 N1574 0.984 . S
H1587 N1574 0.985 . S
C1588 C1589 1.363 . S
C1588 C1594 1.379 . S
C1588 N1596 1.356 . S
C1589 C1588 1.363 . S
C1589 C1595 1.363 . S
C1590 C1591 1.363 . S
C1590 C1595 1.379 . S
C1590 N1597 1.356 . S
C1591 C1590 1.363 . S
C1591 C1594 1.363 . S
N1592 C1594 1.356 . S
N1592 H1604 0.984 . S
N1592 H1605 0.985 . S
N1593 C1595 1.356 . S
N1593 H1598 0.984 . S
N1593 H1599 0.985 . S
C1594 C1588 1.379 . S
C1594 C1591 1.363 . S
C1594 N1592 1.356 . S
C1595 C1589 1.363 . S
C1595 C1590 1.379 . S
C1595 N1593 1.356 . S
N1596 C1588 1.356 . S
N1596 H1602 0.984 . S
N1596 H1603 0.984 . S
N1597 C1590 1.356 . S
N1597 H1600 0.984 . S
N1597 H1601 0.985 . S
H1598 N1593 0.984 . S
H1599 N1593 0.985 . S
H1600 N1597 0.984 . S
H1601 N1597 0.985 . S
H1602 N1596 0.984 . S
H1603 N1596 0.984 . S
H1604 N1592 0.984 . S
H1605 N1592 0.985 . S
C1606 C1607 1.363 . S
C1606 C1612 1.379 . S
C1606 N1614 1.356 . S
C1607 C1606 1.363 . S
C1607 C1613 1.363 . S
C1608 C1609 1.363 . S
C1608 C1613 1.379 . S
C1608 N1615 1.356 . S
C1609 C1608 1.363 . S
C1609 C1612 1.363 . S
N1610 C1612 1.356 . S
N1610 H1622 0.984 . S
N1610 H1623 0.985 . S
N1611 C1613 1.356 . S
N1611 H1616 0.984 . S
N1611 H1617 0.985 . S
C1612 C1606 1.379 . S
C1612 C1609 1.363 . S
C1612 N1610 1.356 . S
C1613 C1607 1.363 . S
C1613 C1608 1.379 . S
C1613 N1611 1.356 . S
N1614 C1606 1.356 . S
N1614 H1620 0.984 . S
N1614 H1621 0.984 . S
N1615 C1608 1.356 . S
N1615 H1618 0.984 . S
N1615 H1619 0.985 . S
H1616 N1611 0.984 . S
H1617 N1611 0.985 . S
H1618 N1615 0.984 . S
H1619 N1615 0.985 . S
H1620 N1614 0.984 . S
H1621 N1614 0.984 . S
H1622 N1610 0.984 . S
H1623 N1610 0.985 . S
C1624 C1625 1.363 . S
C1624 C1630 1.379 . S
C1624 N1632 1.356 . S
C1625 C1624 1.363 . S
C1625 C1631 1.363 . S
C1626 C1627 1.363 . S
C1626 C1631 1.379 . S
C1626 N1633 1.356 . S
C1627 C1626 1.363 . S
C1627 C1630 1.363 . S
N1628 C1630 1.356 . S
N1628 H1640 0.984 . S
N1628 H1641 0.985 . S
N1629 C1631 1.356 . S
N1629 H1634 0.984 . S
N1629 H1635 0.985 . S
C1630 C1624 1.379 . S
C1630 C1627 1.363 . S
C1630 N1628 1.356 . S
C1631 C1625 1.363 . S
C1631 C1626 1.379 . S
C1631 N1629 1.356 . S
N1632 C1624 1.356 . S
N1632 H1638 0.984 . S
N1632 H1639 0.984 . S
N1633 C1626 1.356 . S
N1633 H1636 0.984 . S
N1633 H1637 0.985 . S
H1634 N1629 0.984 . S
H1635 N1629 0.985 . S
H1636 N1633 0.984 . S
H1637 N1633 0.985 . S
H1638 N1632 0.984 . S
H1639 N1632 0.984 . S
H1640 N1628 0.984 . S
H1641 N1628 0.985 . S
C1642 C1643 1.363 . S
C1642 C1648 1.379 . S
C1642 N1650 1.356 . S
C1643 C1642 1.363 . S
C1643 C1649 1.363 . S
C1644 C1645 1.363 . S
C1644 C1649 1.379 . S
C1644 N1651 1.356 . S
C1645 C1644 1.363 . S
C1645 C1648 1.363 . S
N1646 C1648 1.356 . S
N1646 H1658 0.984 . S
N1646 H1659 0.985 . S
N1647 C1649 1.356 . S
N1647 H1652 0.984 . S
N1647 H1653 0.985 . S
C1648 C1642 1.379 . S
C1648 C1645 1.363 . S
C1648 N1646 1.356 . S
C1649 C1643 1.363 . S
C1649 C1644 1.379 . S
C1649 N1647 1.356 . S
N1650 C1642 1.356 . S
N1650 H1656 0.984 . S
N1650 H1657 0.984 . S
N1651 C1644 1.356 . S
N1651 H1654 0.984 . S
N1651 H1655 0.985 . S
H1652 N1647 0.984 . S
H1653 N1647 0.985 . S
H1654 N1651 0.984 . S
H1655 N1651 0.985 . S
H1656 N1650 0.984 . S
H1657 N1650 0.984 . S
H1658 N1646 0.984 . S
H1659 N1646 0.985 . S
C1660 C1661 1.363 . S
C1660 C1666 1.379 . S
C1660 N1668 1.356 . S
C1661 C1660 1.363 . S
C1661 C1667 1.363 . S
C1662 C1663 1.363 . S
C1662 C1667 1.379 . S
C1662 N1669 1.356 . S
C1663 C1662 1.363 . S
C1663 C1666 1.363 . S
N1664 C1666 1.356 . S
N1664 H1676 0.984 . S
N1664 H1677 0.985 . S
N1665 C1667 1.356 . S
N1665 H1670 0.984 . S
N1665 H1671 0.985 . S
C1666 C1660 1.379 . S
C1666 C1663 1.363 . S
C1666 N1664 1.356 . S
C1667 C1661 1.363 . S
C1667 C1662 1.379 . S
C1667 N1665 1.356 . S
N1668 C1660 1.356 . S
N1668 H1674 0.984 . S
N1668 H1675 0.984 . S
N1669 C1662 1.356 . S
N1669 H1672 0.984 . S
N1669 H1673 0.985 . S
H1670 N1665 0.984 . S
H1671 N1665 0.985 . S
H1672 N1669 0.984 . S
H1673 N1669 0.985 . S
H1674 N1668 0.984 . S
H1675 N1668 0.984 . S
H1676 N1664 0.984 . S
H1677 N1664 0.985 . S
C1678 C1679 1.363 . S
C1678 C1684 1.379 . S
C1678 N1686 1.356 . S
C1679 C1678 1.363 . S
C1679 C1685 1.363 . S
C1680 C1681 1.363 . S
C1680 C1685 1.379 . S
C1680 N1687 1.356 . S
C1681 C1680 1.363 . S
C1681 C1684 1.363 . S
N1682 C1684 1.356 . S
N1682 H1694 0.984 . S
N1682 H1695 0.985 . S
N1683 C1685 1.356 . S
N1683 H1688 0.984 . S
N1683 H1689 0.985 . S
C1684 C1678 1.379 . S
C1684 C1681 1.363 . S
C1684 N1682 1.356 . S
C1685 C1679 1.363 . S
C1685 C1680 1.379 . S
C1685 N1683 1.356 . S
N1686 C1678 1.356 . S
N1686 H1692 0.984 . S
N1686 H1693 0.984 . S
N1687 C1680 1.356 . S
N1687 H1690 0.984 . S
N1687 H1691 0.985 . S
H1688 N1683 0.984 . S
H1689 N1683 0.985 . S
H1690 N1687 0.984 . S
H1691 N1687 0.985 . S
H1692 N1686 0.984 . S
H1693 N1686 0.984 . S
H1694 N1682 0.984 . S
H1695 N1682 0.985 . S
C1696 C1697 1.363 . S
C1696 C1702 1.379 . S
C1696 N1704 1.356 . S
C1697 C1696 1.363 . S
C1697 C1703 1.363 . S
C1698 C1699 1.363 . S
C1698 C1703 1.379 . S
C1698 N1705 1.356 . S
C1699 C1698 1.363 . S
C1699 C1702 1.363 . S
N1700 C1702 1.356 . S
N1700 H1712 0.984 . S
N1700 H1713 0.985 . S
N1701 C1703 1.356 . S
N1701 H1706 0.984 . S
N1701 H1707 0.985 . S
C1702 C1696 1.379 . S
C1702 C1699 1.363 . S
C1702 N1700 1.356 . S
C1703 C1697 1.363 . S
C1703 C1698 1.379 . S
C1703 N1701 1.356 . S
N1704 C1696 1.356 . S
N1704 H1710 0.984 . S
N1704 H1711 0.984 . S
N1705 C1698 1.356 . S
N1705 H1708 0.984 . S
N1705 H1709 0.985 . S
H1706 N1701 0.984 . S
H1707 N1701 0.985 . S
H1708 N1705 0.984 . S
H1709 N1705 0.985 . S
H1710 N1704 0.984 . S
H1711 N1704 0.984 . S
H1712 N1700 0.984 . S
H1713 N1700 0.985 . S
C1714 C1715 1.363 . S
C1714 C1720 1.379 . S
C1714 N1722 1.356 . S
C1715 C1714 1.363 . S
C1715 C1721 1.363 . S
C1716 C1717 1.363 . S
C1716 C1721 1.379 . S
C1716 N1723 1.356 . S
C1717 C1716 1.363 . S
C1717 C1720 1.363 . S
N1718 C1720 1.356 . S
N1718 H1730 0.984 . S
N1718 H1731 0.985 . S
N1719 C1721 1.356 . S
N1719 H1724 0.984 . S
N1719 H1725 0.985 . S
C1720 C1714 1.379 . S
C1720 C1717 1.363 . S
C1720 N1718 1.356 . S
C1721 C1715 1.363 . S
C1721 C1716 1.379 . S
C1721 N1719 1.356 . S
N1722 C1714 1.356 . S
N1722 H1728 0.984 . S
N1722 H1729 0.984 . S
N1723 C1716 1.356 . S
N1723 H1726 0.984 . S
N1723 H1727 0.985 . S
H1724 N1719 0.984 . S
H1725 N1719 0.985 . S
H1726 N1723 0.984 . S
H1727 N1723 0.985 . S
H1728 N1722 0.984 . S
H1729 N1722 0.984 . S
H1730 N1718 0.984 . S
H1731 N1718 0.985 . S
C1732 C1733 1.363 . S
C1732 C1738 1.379 . S
C1732 N1740 1.356 . S
C1733 C1732 1.363 . S
C1733 C1739 1.363 . S
C1734 C1735 1.363 . S
C1734 C1739 1.379 . S
C1734 N1741 1.356 . S
C1735 C1734 1.363 . S
C1735 C1738 1.363 . S
N1736 C1738 1.356 . S
N1736 H1748 0.984 . S
N1736 H1749 0.985 . S
N1737 C1739 1.356 . S
N1737 H1742 0.984 . S
N1737 H1743 0.985 . S
C1738 C1732 1.379 . S
C1738 C1735 1.363 . S
C1738 N1736 1.356 . S
C1739 C1733 1.363 . S
C1739 C1734 1.379 . S
C1739 N1737 1.356 . S
N1740 C1732 1.356 . S
N1740 H1746 0.984 . S
N1740 H1747 0.984 . S
N1741 C1734 1.356 . S
N1741 H1744 0.984 . S
N1741 H1745 0.985 . S
H1742 N1737 0.984 . S
H1743 N1737 0.985 . S
H1744 N1741 0.984 . S
H1745 N1741 0.985 . S
H1746 N1740 0.984 . S
H1747 N1740 0.984 . S
H1748 N1736 0.984 . S
H1749 N1736 0.985 . S
C1750 C1751 1.363 . S
C1750 C1756 1.379 . S
C1750 N1758 1.356 . S
C1751 C1750 1.363 . S
C1751 C1757 1.363 . S
C1752 C1753 1.363 . S
C1752 C1757 1.379 . S
C1752 N1759 1.356 . S
C1753 C1752 1.363 . S
C1753 C1756 1.363 . S
N1754 C1756 1.356 . S
N1754 H1766 0.984 . S
N1754 H1767 0.985 . S
N1755 C1757 1.356 . S
N1755 H1760 0.984 . S
N1755 H1761 0.985 . S
C1756 C1750 1.379 . S
C1756 C1753 1.363 . S
C1756 N1754 1.356 . S
C1757 C1751 1.363 . S
C1757 C1752 1.379 . S
C1757 N1755 1.356 . S
N1758 C1750 1.356 . S
N1758 H1764 0.984 . S
N1758 H1765 0.984 . S
N1759 C1752 1.356 . S
N1759 H1762 0.984 . S
N1759 H1763 0.985 . S
H1760 N1755 0.984 . S
H1761 N1755 0.985 . S
H1762 N1759 0.984 . S
H1763 N1759 0.985 . S
H1764 N1758 0.984 . S
H1765 N1758 0.984 . S
H1766 N1754 0.984 . S
H1767 N1754 0.985 . S
C1768 C1769 1.363 . S
C1768 C1774 1.379 . S
C1768 N1776 1.356 . S
C1769 C1768 1.363 . S
C1769 C1775 1.363 . S
C1770 C1771 1.363 . S
C1770 C1775 1.379 . S
C1770 N1777 1.356 . S
C1771 C1770 1.363 . S
C1771 C1774 1.363 . S
N1772 C1774 1.356 . S
N1772 H1784 0.984 . S
N1772 H1785 0.985 . S
N1773 C1775 1.356 . S
N1773 H1778 0.984 . S
N1773 H1779 0.985 . S
C1774 C1768 1.379 . S
C1774 C1771 1.363 . S
C1774 N1772 1.356 . S
C1775 C1769 1.363 . S
C1775 C1770 1.379 . S
C1775 N1773 1.356 . S
N1776 C1768 1.356 . S
N1776 H1782 0.984 . S
N1776 H1783 0.984 . S
N1777 C1770 1.356 . S
N1777 H1780 0.984 . S
N1777 H1781 0.985 . S
H1778 N1773 0.984 . S
H1779 N1773 0.985 . S
H1780 N1777 0.984 . S
H1781 N1777 0.985 . S
H1782 N1776 0.984 . S
H1783 N1776 0.984 . S
H1784 N1772 0.984 . S
H1785 N1772 0.985 . S
C1786 C1787 1.363 . S
C1786 C1792 1.379 . S
C1786 N1794 1.356 . S
C1787 C1786 1.363 . S
C1787 C1793 1.363 . S
C1788 C1789 1.363 . S
C1788 C1793 1.379 . S
C1788 N1795 1.356 . S
C1789 C1788 1.363 . S
C1789 C1792 1.363 . S
N1790 C1792 1.356 . S
N1790 H1802 0.984 . S
N1790 H1803 0.985 . S
N1791 C1793 1.356 . S
N1791 H1796 0.984 . S
N1791 H1797 0.985 . S
C1792 C1786 1.379 . S
C1792 C1789 1.363 . S
C1792 N1790 1.356 . S
C1793 C1787 1.363 . S
C1793 C1788 1.379 . S
C1793 N1791 1.356 . S
N1794 C1786 1.356 . S
N1794 H1800 0.984 . S
N1794 H1801 0.984 . S
N1795 C1788 1.356 . S
N1795 H1798 0.984 . S
N1795 H1799 0.985 . S
H1796 N1791 0.984 . S
H1797 N1791 0.985 . S
H1798 N1795 0.984 . S
H1799 N1795 0.985 . S
H1800 N1794 0.984 . S
H1801 N1794 0.984 . S
H1802 N1790 0.984 . S
H1803 N1790 0.985 . S
C1804 C1805 1.363 . S
C1804 C1810 1.379 . S
C1804 N1812 1.356 . S
C1805 C1804 1.363 . S
C1805 C1811 1.363 . S
C1806 C1807 1.363 . S
C1806 C1811 1.379 . S
C1806 N1813 1.356 . S
C1807 C1806 1.363 . S
C1807 C1810 1.363 . S
N1808 C1810 1.356 . S
N1808 H1820 0.984 . S
N1808 H1821 0.985 . S
N1809 C1811 1.356 . S
N1809 H1814 0.984 . S
N1809 H1815 0.985 . S
C1810 C1804 1.379 . S
C1810 C1807 1.363 . S
C1810 N1808 1.356 . S
C1811 C1805 1.363 . S
C1811 C1806 1.379 . S
C1811 N1809 1.356 . S
N1812 C1804 1.356 . S
N1812 H1818 0.984 . S
N1812 H1819 0.984 . S
N1813 C1806 1.356 . S
N1813 H1816 0.984 . S
N1813 H1817 0.985 . S
H1814 N1809 0.984 . S
H1815 N1809 0.985 . S
H1816 N1813 0.984 . S
H1817 N1813 0.985 . S
H1818 N1812 0.984 . S
H1819 N1812 0.984 . S
H1820 N1808 0.984 . S
H1821 N1808 0.985 . S
C1822 C1823 1.363 . S
C1822 C1828 1.379 . S
C1822 N1830 1.356 . S
C1823 C1822 1.363 . S
C1823 C1829 1.363 . S
C1824 C1825 1.363 . S
C1824 C1829 1.379 . S
C1824 N1831 1.356 . S
C1825 C1824 1.363 . S
C1825 C1828 1.363 . S
N1826 C1828 1.356 . S
N1826 H1838 0.984 . S
N1826 H1839 0.985 . S
N1827 C1829 1.356 . S
N1827 H1832 0.984 . S
N1827 H1833 0.985 . S
C1828 C1822 1.379 . S
C1828 C1825 1.363 . S
C1828 N1826 1.356 . S
C1829 C1823 1.363 . S
C1829 C1824 1.379 . S
C1829 N1827 1.356 . S
N1830 C1822 1.356 . S
N1830 H1836 0.984 . S
N1830 H1837 0.984 . S
N1831 C1824 1.356 . S
N1831 H1834 0.984 . S
N1831 H1835 0.985 . S
H1832 N1827 0.984 . S
H1833 N1827 0.985 . S
H1834 N1831 0.984 . S
H1835 N1831 0.985 . S
H1836 N1830 0.984 . S
H1837 N1830 0.984 . S
H1838 N1826 0.984 . S
H1839 N1826 0.985 . S
C1840 C1841 1.363 . S
C1840 C1846 1.379 1_554 S
C1840 N1848 1.356 . S
C1841 C1840 1.363 . S
C1841 C1847 1.363 . S
C1842 C1843 1.363 . S
C1842 C1847 1.379 1_556 S
C1842 N1849 1.356 . S
C1843 C1842 1.363 . S
C1843 C1846 1.363 . S
N1844 C1846 1.356 . S
N1844 H1856 0.984 . S
N1844 H1857 0.985 . S
N1845 C1847 1.356 . S
N1845 H1850 0.984 . S
N1845 H1851 0.985 . S
C1846 C1840 1.379 1_556 S
C1846 C1843 1.363 . S
C1846 N1844 1.356 . S
C1847 C1841 1.363 . S
C1847 C1842 1.379 1_554 S
C1847 N1845 1.356 . S
N1848 C1840 1.356 . S
N1848 H1854 0.984 . S
N1848 H1855 0.984 . S
N1849 C1842 1.356 . S
N1849 H1852 0.984 . S
N1849 H1853 0.985 . S
H1850 N1845 0.984 . S
H1851 N1845 0.985 . S
H1852 N1849 0.984 . S
H1853 N1849 0.985 . S
H1854 N1848 0.984 . S
H1855 N1848 0.984 . S
H1856 N1844 0.984 . S
H1857 N1844 0.985 . S
C1858 C1859 1.363 . S
C1858 C1864 1.379 . S
C1858 N1866 1.356 . S
C1859 C1858 1.363 . S
C1859 C1865 1.363 . S
C1860 C1861 1.363 . S
C1860 C1865 1.379 . S
C1860 N1867 1.356 . S
C1861 C1860 1.363 . S
C1861 C1864 1.363 . S
N1862 C1864 1.356 . S
N1862 H1874 0.984 . S
N1862 H1875 0.985 . S
N1863 C1865 1.356 . S
N1863 H1868 0.984 . S
N1863 H1869 0.985 . S
C1864 C1858 1.379 . S
C1864 C1861 1.363 . S
C1864 N1862 1.356 . S
C1865 C1859 1.363 . S
C1865 C1860 1.379 . S
C1865 N1863 1.356 . S
N1866 C1858 1.356 . S
N1866 H1872 0.984 . S
N1866 H1873 0.984 . S
N1867 C1860 1.356 . S
N1867 H1870 0.984 . S
N1867 H1871 0.985 . S
H1868 N1863 0.984 . S
H1869 N1863 0.985 . S
H1870 N1867 0.984 . S
H1871 N1867 0.985 . S
H1872 N1866 0.984 . S
H1873 N1866 0.984 . S
H1874 N1862 0.984 . S
H1875 N1862 0.985 . S
C1876 C1877 1.363 1_455 S
C1876 C1882 1.379 1_554 S
C1876 N1884 1.356 . S
C1877 C1876 1.363 1_655 S
C1877 C1883 1.363 . S
C1878 C1879 1.363 . S
C1878 C1883 1.379 1_556 S
C1878 N1885 1.356 . S
C1879 C1878 1.363 . S
C1879 C1882 1.363 1_655 S
N1880 C1882 1.356 . S
N1880 H1892 0.984 . S
N1880 H1893 0.985 . S
N1881 C1883 1.356 . S
N1881 H1886 0.984 . S
N1881 H1887 0.985 . S
C1882 C1876 1.379 1_556 S
C1882 C1879 1.363 1_455 S
C1882 N1880 1.356 . S
C1883 C1877 1.363 . S
C1883 C1878 1.379 1_554 S
C1883 N1881 1.356 . S
N1884 C1876 1.356 . S
N1884 H1890 0.984 . S
N1884 H1891 0.984 . S
N1885 C1878 1.356 . S
N1885 H1888 0.984 . S
N1885 H1889 0.985 . S
H1886 N1881 0.984 . S
H1887 N1881 0.985 . S
H1888 N1885 0.984 . S
H1889 N1885 0.985 . S
H1890 N1884 0.984 . S
H1891 N1884 0.984 . S
H1892 N1880 0.984 . S
H1893 N1880 0.985 . S
C1894 C1895 1.363 . S
C1894 C1900 1.379 . S
C1894 N1902 1.356 . S
C1895 C1894 1.363 . S
C1895 C1901 1.363 1_565 S
C1896 C1897 1.363 1_545 S
C1896 C1901 1.379 . S
C1896 N1903 1.356 . S
C1897 C1896 1.363 1_565 S
C1897 C1900 1.363 . S
N1898 C1900 1.356 . S
N1898 H1910 0.984 . S
N1898 H1911 0.985 . S
N1899 C1901 1.356 . S
N1899 H1904 0.984 . S
N1899 H1905 0.985 . S
C1900 C1894 1.379 . S
C1900 C1897 1.363 . S
C1900 N1898 1.356 . S
C1901 C1895 1.363 1_545 S
C1901 C1896 1.379 . S
C1901 N1899 1.356 . S
N1902 C1894 1.356 . S
N1902 H1908 0.984 . S
N1902 H1909 0.984 . S
N1903 C1896 1.356 . S
N1903 H1906 0.984 . S
N1903 H1907 0.985 . S
H1904 N1899 0.984 . S
H1905 N1899 0.985 . S
H1906 N1903 0.984 . S
H1907 N1903 0.985 . S
H1908 N1902 0.984 . S
H1909 N1902 0.984 . S
H1910 N1898 0.984 . S
H1911 N1898 0.985 . S
C1912 C1913 1.363 . S
C1912 C1918 1.379 1_556 S
C1912 N1920 1.356 . S
C1913 C1912 1.363 . S
C1913 C1919 1.363 . S
C1914 C1915 1.363 . S
C1914 C1919 1.379 1_554 S
C1914 N1921 1.356 . S
C1915 C1914 1.363 . S
C1915 C1918 1.363 . S
N1916 C1918 1.356 . S
N1916 H1928 0.984 . S
N1916 H1929 0.985 . S
N1917 C1919 1.356 . S
N1917 H1922 0.984 . S
N1917 H1923 0.985 . S
C1918 C1912 1.379 1_554 S
C1918 C1915 1.363 . S
C1918 N1916 1.356 . S
C1919 C1913 1.363 . S
C1919 C1914 1.379 1_556 S
C1919 N1917 1.356 . S
N1920 C1912 1.356 . S
N1920 H1926 0.984 . S
N1920 H1927 0.984 . S
N1921 C1914 1.356 . S
N1921 H1924 0.984 . S
N1921 H1925 0.985 . S
H1922 N1917 0.984 . S
H1923 N1917 0.985 . S
H1924 N1921 0.984 . S
H1925 N1921 0.985 . S
H1926 N1920 0.984 . S
H1927 N1920 0.984 . S
H1928 N1916 0.984 . S
H1929 N1916 0.985 . S
C1930 C1931 1.363 . S
C1930 C1936 1.379 . S
C1930 N1938 1.356 . S
C1931 C1930 1.363 . S
C1931 C1937 1.363 . S
C1932 C1933 1.363 . S
C1932 C1937 1.379 . S
C1932 N1939 1.356 . S
C1933 C1932 1.363 . S
C1933 C1936 1.363 . S
N1934 C1936 1.356 . S
N1934 H1946 0.984 . S
N1934 H1947 0.985 . S
N1935 C1937 1.356 . S
N1935 H1940 0.984 . S
N1935 H1941 0.985 . S
C1936 C1930 1.379 . S
C1936 C1933 1.363 . S
C1936 N1934 1.356 . S
C1937 C1931 1.363 . S
C1937 C1932 1.379 . S
C1937 N1935 1.356 . S
N1938 C1930 1.356 . S
N1938 H1944 0.984 . S
N1938 H1945 0.984 . S
N1939 C1932 1.356 . S
N1939 H1942 0.984 . S
N1939 H1943 0.985 . S
H1940 N1935 0.984 . S
H1941 N1935 0.985 . S
H1942 N1939 0.984 . S
H1943 N1939 0.985 . S
H1944 N1938 0.984 . S
H1945 N1938 0.984 . S
H1946 N1934 0.984 . S
H1947 N1934 0.985 . S
C1948 C1949 1.363 . S
C1948 C1954 1.379 1_554 S
C1948 N1956 1.356 . S
C1949 C1948 1.363 . S
C1949 C1955 1.363 1_655 S
C1950 C1951 1.363 1_455 S
C1950 C1955 1.379 1_556 S
C1950 N1957 1.356 . S
C1951 C1950 1.363 1_655 S
C1951 C1954 1.363 . S
N1952 C1954 1.356 . S
N1952 H1964 0.984 . S
N1952 H1965 0.985 . S
N1953 C1955 1.356 . S
N1953 H1958 0.984 . S
N1953 H1959 0.985 . S
C1954 C1948 1.379 1_556 S
C1954 C1951 1.363 . S
C1954 N1952 1.356 . S
C1955 C1949 1.363 1_455 S
C1955 C1950 1.379 1_554 S
C1955 N1953 1.356 . S
N1956 C1948 1.356 . S
N1956 H1962 0.984 . S
N1956 H1963 0.984 . S
N1957 C1950 1.356 . S
N1957 H1960 0.984 . S
N1957 H1961 0.985 . S
H1958 N1953 0.984 . S
H1959 N1953 0.985 . S
H1960 N1957 0.984 . S
H1961 N1957 0.985 . S
H1962 N1956 0.984 . S
H1963 N1956 0.984 . S
H1964 N1952 0.984 . S
H1965 N1952 0.985 . S
C1966 C1967 1.363 . S
C1966 C1972 1.379 . S
C1966 N1974 1.356 . S
C1967 C1966 1.363 . S
C1967 C1973 1.363 1_565 S
C1968 C1969 1.363 1_545 S
C1968 C1973 1.379 . S
C1968 N1975 1.356 . S
C1969 C1968 1.363 1_565 S
C1969 C1972 1.363 . S
N1970 C1972 1.356 . S
N1970 H1982 0.984 . S
N1970 H1983 0.985 . S
N1971 C1973 1.356 . S
N1971 H1976 0.984 . S
N1971 H1977 0.985 . S
C1972 C1966 1.379 . S
C1972 C1969 1.363 . S
C1972 N1970 1.356 . S
C1973 C1967 1.363 1_545 S
C1973 C1968 1.379 . S
C1973 N1971 1.356 . S
N1974 C1966 1.356 . S
N1974 H1980 0.984 . S
N1974 H1981 0.984 . S
N1975 C1968 1.356 . S
N1975 H1978 0.984 . S
N1975 H1979 0.985 . S
H1976 N1971 0.984 . S
H1977 N1971 0.985 . S
H1978 N1975 0.984 . S
H1979 N1975 0.985 . S
H1980 N1974 0.984 . S
H1981 N1974 0.984 . S
H1982 N1970 0.984 . S
H1983 N1970 0.985 . S
C1409 C57 1.188 . S
C1411 C665 1.188 . S
C1427 C117 1.188 . S
C1429 C372 1.188 . S
C1445 C205 1.188 . S
C1447 C469 1.188 . S
C1463 C293 1.188 . S
C1465 C577 1.188 . S
C1481 C733 1.193 . S
C1483 C1377 1.193 . S
C1499 C1105 1.193 . S
C1501 C812 1.193 . S
C1517 C909 1.193 . S
C1519 C1193 1.193 . S
C1535 C997 1.193 . S
C1537 C1289 1.193 . S
C1553 C29 1.497 . S
C1555 C849 1.601 . S
C1571 C145 1.497 . S
C1573 C929 1.601 . S
C1589 C1017 1.601 . S
C1591 C233 1.497 . S
C1607 C321 1.497 . S
C1609 C753 1.601 . S
C1625 C401 1.497 . S
C1627 C1340 1.601 . S
C1643 C1085 1.601 . S
C1645 C497 1.497 . S
C1661 C1173 1.601 . S
C1663 C548 1.497 . S
C1679 C1252 1.601 . S
C1681 C636 1.497 . S
C1697 C108 1.606 . S
C1699 C761 1.500 . S
C1715 C196 1.606 . S
C1717 C841 1.500 . S
C1733 C937 1.500 . S
C1735 C284 1.606 . S
C1751 C49 1.606 . S
C1753 C1025 1.500 . S
C1769 C1076 1.500 . S
C1771 C673 1.606 . S
C1787 C1164 1.500 . S
C1789 C381 1.606 . S
C1805 C460 1.606 . S
C1807 C1261 1.500 . S
C1823 C585 1.606 . S
C1825 C1349 1.500 . S
C1841 C20 1.595 . S
C1843 C409 1.595 . S
C1859 C489 1.595 . S
C1861 C137 1.595 . S
C1877 C225 1.595 . S
C1879 C557 1.595 . S
C1895 C645 1.595 . S
C1897 C313 1.595 . S
C1913 C724 1.590 . S
C1915 C1113 1.590 . S
C1931 C1201 1.590 . S
C1933 C821 1.590 . S
C1949 C1281 1.590 1_655 S
C1951 C900 1.590 1_655 S
C1967 C1369 1.590 1_565 S
C1969 C988 1.590 1_565 S
