# Generated by pormake.
# Topology vbx, (6)-cn, num edge types: 1
# Building blocks:
#     Node 0, Type 0, BuildingBlock: IZENUY_clean_sbu_0, # of connection points: 6
#     Node 1, Type 0, BuildingBlock: IZENUY_clean_sbu_0, # of connection points: 6
#     Node 2, Type 0, BuildingBlock: IZENUY_clean_sbu_0, # of connection points: 6
#     Node 3, Type 0, BuildingBlock: IZENUY_clean_sbu_0, # of connection points: 6
#     Node 4, Type 0, BuildingBlock: IZENUY_clean_sbu_0, # of connection points: 6
#     Node 5, Type 0, BuildingBlock: IZENUY_clean_sbu_0, # of connection points: 6
#     Node 6, Type 0, BuildingBlock: IZENUY_clean_sbu_0, # of connection points: 6
#     Node 7, Type 0, BuildingBlock: IZENUY_clean_sbu_0, # of connection points: 6
#     Node 8, Type 0, BuildingBlock: IZENUY_clean_sbu_0, # of connection points: 6
#     Node 9, Type 0, BuildingBlock: IZENUY_clean_sbu_0, # of connection points: 6
#     Node 10, Type 0, BuildingBlock: IZENUY_clean_sbu_0, # of connection points: 6
#     Node 11, Type 0, BuildingBlock: IZENUY_clean_sbu_0, # of connection points: 6
#     Node 12, Type 0, BuildingBlock: IZENUY_clean_sbu_0, # of connection points: 6
#     Node 13, Type 0, BuildingBlock: IZENUY_clean_sbu_0, # of connection points: 6
#     Node 14, Type 0, BuildingBlock: IZENUY_clean_sbu_0, # of connection points: 6
#     Node 15, Type 0, BuildingBlock: IZENUY_clean_sbu_0, # of connection points: 6
#     Edge 16, Type (0, 0), BuildingBlock: ZUJKAS_clean_linker_0, # of connection points: 2
#     Edge 17, Type (0, 0), BuildingBlock: ZUJKAS_clean_linker_0, # of connection points: 2
#     Edge 18, Type (0, 0), BuildingBlock: ZUJKAS_clean_linker_0, # of connection points: 2
#     Edge 19, Type (0, 0), BuildingBlock: ZUJKAS_clean_linker_0, # of connection points: 2
#     Edge 20, Type (0, 0), BuildingBlock: ZUJKAS_clean_linker_0, # of connection points: 2
#     Edge 21, Type (0, 0), BuildingBlock: ZUJKAS_clean_linker_0, # of connection points: 2
#     Edge 22, Type (0, 0), BuildingBlock: ZUJKAS_clean_linker_0, # of connection points: 2
#     Edge 23, Type (0, 0), BuildingBlock: ZUJKAS_clean_linker_0, # of connection points: 2
#     Edge 24, Type (0, 0), BuildingBlock: ZUJKAS_clean_linker_0, # of connection points: 2
#     Edge 25, Type (0, 0), BuildingBlock: ZUJKAS_clean_linker_0, # of connection points: 2
#     Edge 26, Type (0, 0), BuildingBlock: ZUJKAS_clean_linker_0, # of connection points: 2
#     Edge 27, Type (0, 0), BuildingBlock: ZUJKAS_clean_linker_0, # of connection points: 2
#     Edge 28, Type (0, 0), BuildingBlock: ZUJKAS_clean_linker_0, # of connection points: 2
#     Edge 29, Type (0, 0), BuildingBlock: ZUJKAS_clean_linker_0, # of connection points: 2
#     Edge 30, Type (0, 0), BuildingBlock: ZUJKAS_clean_linker_0, # of connection points: 2
#     Edge 31, Type (0, 0), BuildingBlock: ZUJKAS_clean_linker_0, # of connection points: 2
#     Edge 32, Type (0, 0), BuildingBlock: ZUJKAS_clean_linker_0, # of connection points: 2
#     Edge 33, Type (0, 0), BuildingBlock: ZUJKAS_clean_linker_0, # of connection points: 2
#     Edge 34, Type (0, 0), BuildingBlock: ZUJKAS_clean_linker_0, # of connection points: 2
#     Edge 35, Type (0, 0), BuildingBlock: ZUJKAS_clean_linker_0, # of connection points: 2
#     Edge 36, Type (0, 0), BuildingBlock: ZUJKAS_clean_linker_0, # of connection points: 2
#     Edge 37, Type (0, 0), BuildingBlock: ZUJKAS_clean_linker_0, # of connection points: 2
#     Edge 38, Type (0, 0), BuildingBlock: ZUJKAS_clean_linker_0, # of connection points: 2
#     Edge 39, Type (0, 0), BuildingBlock: ZUJKAS_clean_linker_0, # of connection points: 2
#     Edge 40, Type (0, 0), BuildingBlock: ZUJKAS_clean_linker_0, # of connection points: 2
#     Edge 41, Type (0, 0), BuildingBlock: ZUJKAS_clean_linker_0, # of connection points: 2
#     Edge 42, Type (0, 0), BuildingBlock: ZUJKAS_clean_linker_0, # of connection points: 2
#     Edge 43, Type (0, 0), BuildingBlock: ZUJKAS_clean_linker_0, # of connection points: 2
#     Edge 44, Type (0, 0), BuildingBlock: ZUJKAS_clean_linker_0, # of connection points: 2
#     Edge 45, Type (0, 0), BuildingBlock: ZUJKAS_clean_linker_0, # of connection points: 2
#     Edge 46, Type (0, 0), BuildingBlock: ZUJKAS_clean_linker_0, # of connection points: 2
#     Edge 47, Type (0, 0), BuildingBlock: ZUJKAS_clean_linker_0, # of connection points: 2
#     Edge 48, Type (0, 0), BuildingBlock: ZUJKAS_clean_linker_0, # of connection points: 2
#     Edge 49, Type (0, 0), BuildingBlock: ZUJKAS_clean_linker_0, # of connection points: 2
#     Edge 50, Type (0, 0), BuildingBlock: ZUJKAS_clean_linker_0, # of connection points: 2
#     Edge 51, Type (0, 0), BuildingBlock: ZUJKAS_clean_linker_0, # of connection points: 2
#     Edge 52, Type (0, 0), BuildingBlock: ZUJKAS_clean_linker_0, # of connection points: 2
#     Edge 53, Type (0, 0), BuildingBlock: ZUJKAS_clean_linker_0, # of connection points: 2
#     Edge 54, Type (0, 0), BuildingBlock: ZUJKAS_clean_linker_0, # of connection points: 2
#     Edge 55, Type (0, 0), BuildingBlock: ZUJKAS_clean_linker_0, # of connection points: 2
#     Edge 56, Type (0, 0), BuildingBlock: ZUJKAS_clean_linker_0, # of connection points: 2
#     Edge 57, Type (0, 0), BuildingBlock: ZUJKAS_clean_linker_0, # of connection points: 2
#     Edge 58, Type (0, 0), BuildingBlock: ZUJKAS_clean_linker_0, # of connection points: 2
#     Edge 59, Type (0, 0), BuildingBlock: ZUJKAS_clean_linker_0, # of connection points: 2
#     Edge 60, Type (0, 0), BuildingBlock: ZUJKAS_clean_linker_0, # of connection points: 2
#     Edge 61, Type (0, 0), BuildingBlock: ZUJKAS_clean_linker_0, # of connection points: 2
#     Edge 62, Type (0, 0), BuildingBlock: ZUJKAS_clean_linker_0, # of connection points: 2
#     Edge 63, Type (0, 0), BuildingBlock: ZUJKAS_clean_linker_0, # of connection points: 2
# Relax obj value: 0.242
# Max RMSD: 0.243
# Mean RMSD: 0.243
data_MOF--net-vbx--node1-IZENUY_clean_sbu_0--edge1-ZUJKAS_clean_linker_0
_symmetry_space_group_name_H-M    P1
_symmetry_Int_Tables_number       1
_symmetry_cell_setting            triclinic
loop_
_symmetry_equiv_pos_as_xyz
'x, y, z'
_cell_length_a     58.915451
_cell_length_b     35.514813
_cell_length_c     72.573642
_cell_angle_alpha  89.959549
_cell_angle_beta   89.987665
_cell_angle_gamma 89.978705
loop_
_atom_site_label
_atom_site_type_symbol
_atom_site_fract_x
_atom_site_fract_y
_atom_site_fract_z
_atom_type_partial_charge
Fe0 Fe 0.35711 0.4052 0.10947 0.0
Fe1 Fe 0.35699 0.32969 0.08832 0.0
O2 O 0.34286 0.36368 0.10217 0.0
Fe3 Fe 0.31407 0.35594 0.10846 0.0
O4 O 0.30597 0.40569 0.10986 0.0
O5 O 0.33566 0.43603 0.0996 0.0
O6 O 0.37288 0.41153 0.08776 0.0
C7 C 0.37035 0.39638 0.07206 0.0
C8 C 0.33258 0.38019 0.14103 0.0
O9 O 0.36198 0.36392 0.07042 0.0
C10 C 0.3329 0.28235 0.11034 0.0
O11 O 0.38013 0.37894 0.12006 0.0
O12 O 0.3852 0.33735 0.09813 0.0
O13 O 0.32154 0.35499 0.13262 0.0
O14 O 0.34351 0.40544 0.13233 0.0
C15 C 0.31372 0.335 0.0723 0.0
O16 O 0.35251 0.29225 0.10518 0.0
O17 O 0.31625 0.30458 0.10861 0.0
C18 C 0.39221 0.35433 0.11232 0.0
O19 O 0.33157 0.31645 0.07561 0.0
O20 O 0.30512 0.35633 0.08439 0.0
C21 C 0.3148 0.43513 0.10327 0.0
Fe22 Fe 0.66732 0.62327 0.61168 0.0
Fe23 Fe 0.66716 0.68892 0.58446 0.0
O24 O 0.68127 0.66225 0.6016 0.0
Fe25 Fe 0.70919 0.67409 0.60844 0.0
O26 O 0.72003 0.62796 0.60209 0.0
O27 O 0.6932 0.59563 0.6158 0.0
O28 O 0.66546 0.60001 0.58952 0.0
C29 C 0.65599 0.61421 0.57558 0.0
C30 C 0.68688 0.65535 0.64188 0.0
O31 O 0.6509 0.64886 0.57524 0.0
C32 C 0.69191 0.74473 0.60434 0.0
O33 O 0.63869 0.6436 0.60957 0.0
O34 O 0.64458 0.70162 0.60029 0.0
O35 O 0.70494 0.66001 0.6326 0.0
O36 O 0.66877 0.64453 0.63426 0.0
C37 C 0.70951 0.68502 0.56956 0.0
O38 O 0.68121 0.73375 0.59019 0.0
O39 O 0.70061 0.72119 0.61526 0.0
C40 C 0.63214 0.67751 0.60811 0.0
O41 O 0.68872 0.67772 0.56768 0.0
O42 O 0.71802 0.69038 0.58541 0.0
C43 C 0.71256 0.59719 0.60828 0.0
Fe44 Fe 0.31504 0.67196 0.87244 0.0
Fe45 Fe 0.35698 0.62099 0.86987 0.0
O46 O 0.34291 0.66029 0.87957 0.0
Fe47 Fe 0.35679 0.68749 0.89659 0.0
O48 O 0.33503 0.67689 0.91327 0.0
O49 O 0.30592 0.68893 0.89524 0.0
O50 O 0.30418 0.62612 0.87911 0.0
C51 C 0.31154 0.5952 0.87307 0.0
C52 C 0.33198 0.7428 0.87618 0.0
O53 O 0.33106 0.59322 0.86581 0.0
C54 C 0.39226 0.67518 0.87345 0.0
O55 O 0.31951 0.65714 0.8484 0.0
O56 O 0.35569 0.64158 0.84712 0.0
O57 O 0.34287 0.73223 0.89034 0.0
O58 O 0.32359 0.71885 0.86534 0.0
C59 C 0.36805 0.61287 0.90616 0.0
O60 O 0.3856 0.64134 0.87201 0.0
O61 O 0.37968 0.69958 0.88092 0.0
C62 C 0.33763 0.65196 0.83927 0.0
O63 O 0.35885 0.59826 0.89219 0.0
O64 O 0.37279 0.64767 0.90637 0.0
C65 C 0.31425 0.68395 0.91117 0.0
Fe66 Fe 0.6683 0.40987 0.3681 0.0
Fe67 Fe 0.66615 0.34115 0.39333 0.0
O68 O 0.68135 0.3691 0.37732 0.0
Fe69 Fe 0.70935 0.35711 0.37074 0.0
O70 O 0.72051 0.40243 0.37826 0.0
O71 O 0.69463 0.43644 0.36453 0.0
O72 O 0.66677 0.43073 0.39083 0.0
C73 C 0.65677 0.41549 0.40428 0.0
C74 C 0.68775 0.3799 0.33741 0.0
O75 O 0.65069 0.38125 0.40353 0.0
C76 C 0.69129 0.28638 0.3728 0.0
O77 O 0.6392 0.39148 0.36972 0.0
O78 O 0.6437 0.3319 0.37668 0.0
O79 O 0.70559 0.37328 0.34676 0.0
O80 O 0.66964 0.39075 0.34509 0.0
C81 C 0.7082 0.34163 0.40929 0.0
O82 O 0.6794 0.29625 0.38653 0.0
O83 O 0.7008 0.3108 0.36282 0.0
C84 C 0.6318 0.35801 0.3699 0.0
O85 O 0.68733 0.34864 0.41089 0.0
O86 O 0.71743 0.3386 0.39355 0.0
C87 C 0.71377 0.43378 0.37225 0.0
Fe88 Fe 0.66758 0.68674 0.89642 0.0
Fe89 Fe 0.66761 0.62083 0.86933 0.0
O90 O 0.68164 0.6598 0.87937 0.0
Fe91 Fe 0.70962 0.6714 0.87257 0.0
O92 O 0.71846 0.6877 0.89554 0.0
O93 O 0.68905 0.67553 0.91324 0.0
O94 O 0.65131 0.64687 0.9058 0.0
C95 C 0.65598 0.61204 0.90547 0.0
C96 C 0.6929 0.74231 0.87659 0.0
O97 O 0.66534 0.59763 0.89151 0.0
C98 C 0.68744 0.65258 0.83911 0.0
O99 O 0.64496 0.69941 0.88059 0.0
O100 O 0.63901 0.64142 0.87131 0.0
O101 O 0.70129 0.71852 0.86566 0.0
O102 O 0.68174 0.7315 0.89057 0.0
C103 C 0.71296 0.59461 0.87276 0.0
O104 O 0.66927 0.64193 0.84671 0.0
O105 O 0.70545 0.65725 0.84843 0.0
C106 C 0.63243 0.67529 0.87287 0.0
O107 O 0.69351 0.59291 0.86536 0.0
O108 O 0.72028 0.62534 0.87905 0.0
C109 C 0.70989 0.68243 0.91136 0.0
Fe110 Fe 0.35435 0.32726 0.39474 0.0
Fe111 Fe 0.35783 0.39955 0.37134 0.0
O112 O 0.34214 0.35977 0.37899 0.0
Fe113 Fe 0.31395 0.35242 0.37108 0.0
O114 O 0.30263 0.35566 0.39439 0.0
O115 O 0.32761 0.3164 0.4062 0.0
O116 O 0.35809 0.36359 0.41177 0.0
C117 C 0.36781 0.39484 0.40958 0.0
C118 C 0.33189 0.27812 0.37252 0.0
O119 O 0.37222 0.40736 0.39359 0.0
C120 C 0.33534 0.37307 0.33913 0.0
O121 O 0.38352 0.33289 0.38653 0.0
O122 O 0.38087 0.37045 0.3626 0.0
O123 O 0.31543 0.30104 0.37234 0.0
O124 O 0.35099 0.28797 0.37881 0.0
C125 C 0.31567 0.43183 0.37481 0.0
O126 O 0.34596 0.3985 0.3479 0.0
O127 O 0.32358 0.34871 0.34748 0.0
C128 C 0.39184 0.34678 0.37199 0.0
O129 O 0.3363 0.43239 0.37938 0.0
O130 O 0.30695 0.40235 0.36814 0.0
C131 C 0.30967 0.33569 0.40761 0.0
Fe132 Fe 0.66714 0.40423 0.10828 0.0
Fe133 Fe 0.7102 0.355 0.10704 0.0
O134 O 0.68133 0.36267 0.10093 0.0
Fe135 Fe 0.66711 0.32859 0.08721 0.0
O136 O 0.66182 0.36271 0.06933 0.0
O137 O 0.6512 0.41054 0.08667 0.0
O138 O 0.68851 0.43506 0.09828 0.0
C139 C 0.7094 0.43414 0.10185 0.0
C140 C 0.63212 0.35326 0.11144 0.0
O141 O 0.71826 0.40471 0.10842 0.0
C142 C 0.69152 0.2814 0.10909 0.0
O143 O 0.6809 0.40439 0.13106 0.0
O144 O 0.70298 0.35402 0.13121 0.0
O145 O 0.639 0.3361 0.09727 0.0
O146 O 0.64421 0.37805 0.11902 0.0
C147 C 0.71023 0.33418 0.07089 0.0
O148 O 0.70811 0.30364 0.10718 0.0
O149 O 0.67185 0.29121 0.10405 0.0
C150 C 0.69197 0.37918 0.13967 0.0
O151 O 0.71887 0.35552 0.08293 0.0
O152 O 0.69244 0.3155 0.07428 0.0
C153 C 0.65349 0.39521 0.07099 0.0
Fe154 Fe 0.31574 0.66799 0.60819 0.0
Fe155 Fe 0.35787 0.68619 0.58486 0.0
O156 O 0.34397 0.6579 0.60147 0.0
Fe157 Fe 0.35842 0.61894 0.61119 0.0
O158 O 0.33286 0.5901 0.61491 0.0
O159 O 0.30593 0.62179 0.60103 0.0
O160 O 0.30685 0.6853 0.58537 0.0
C161 C 0.3157 0.68157 0.56955 0.0
C162 C 0.33805 0.64867 0.64158 0.0
O163 O 0.33665 0.67561 0.56776 0.0
C164 C 0.39301 0.67434 0.60836 0.0
O165 O 0.32324 0.71501 0.61571 0.0
O166 O 0.34338 0.73025 0.59137 0.0
O167 O 0.35643 0.63916 0.63395 0.0
O168 O 0.31998 0.65277 0.63223 0.0
C169 C 0.37001 0.61218 0.57495 0.0
O170 O 0.38025 0.69849 0.60093 0.0
O171 O 0.3868 0.64023 0.60942 0.0
C172 C 0.33192 0.73974 0.60541 0.0
O173 O 0.37445 0.64712 0.57499 0.0
O174 O 0.36093 0.59684 0.5888 0.0
C175 C 0.31361 0.59115 0.60719 0.0
Fe176 Fe 0.85669 0.90674 0.11066 0.0
Fe177 Fe 0.85644 0.83969 0.08425 0.0
O178 O 0.84252 0.86745 0.10105 0.0
Fe179 Fe 0.8145 0.85645 0.10807 0.0
O180 O 0.80399 0.90236 0.10115 0.0
O181 O 0.83089 0.93492 0.11455 0.0
O182 O 0.85877 0.92905 0.08827 0.0
C183 C 0.86793 0.91411 0.07437 0.0
C184 C 0.83701 0.8765 0.14125 0.0
O185 O 0.87255 0.87922 0.07428 0.0
C186 C 0.83106 0.78518 0.10481 0.0
O187 O 0.88525 0.88612 0.10869 0.0
O188 O 0.87924 0.82777 0.10005 0.0
O189 O 0.81891 0.8716 0.13206 0.0
O190 O 0.85518 0.88648 0.13345 0.0
C191 C 0.81398 0.84343 0.06944 0.0
O192 O 0.84238 0.79519 0.09076 0.0
O193 O 0.82263 0.80956 0.11541 0.0
C194 C 0.89183 0.85221 0.10745 0.0
O195 O 0.83483 0.84999 0.0674 0.0
O196 O 0.80546 0.83919 0.08535 0.0
C197 C 0.81143 0.9332 0.1072 0.0
Fe198 Fe 0.16734 0.11921 0.61137 0.0
Fe199 Fe 0.16681 0.18744 0.58567 0.0
O200 O 0.18138 0.15855 0.60165 0.0
Fe201 Fe 0.20987 0.16835 0.60777 0.0
O202 O 0.21945 0.12233 0.6 0.0
O203 O 0.19303 0.09049 0.61439 0.0
O204 O 0.16419 0.09777 0.58888 0.0
C205 C 0.15479 0.11357 0.57529 0.0
C206 C 0.18865 0.14786 0.64155 0.0
O207 O 0.15022 0.14849 0.57569 0.0
C208 C 0.19344 0.2402 0.60618 0.0
O209 O 0.13884 0.14015 0.61033 0.0
O210 O 0.1448 0.19878 0.60227 0.0
O211 O 0.20642 0.15223 0.63183 0.0
O212 O 0.17 0.13881 0.63423 0.0
C213 C 0.20841 0.18425 0.56926 0.0
O214 O 0.18129 0.23137 0.59241 0.0
O215 O 0.20268 0.21506 0.61589 0.0
C216 C 0.13236 0.17413 0.60965 0.0
O217 O 0.18747 0.17802 0.56799 0.0
O218 O 0.21798 0.18666 0.58488 0.0
C219 C 0.21199 0.09159 0.60622 0.0
Fe220 Fe 0.85695 0.19881 0.89273 0.0
Fe221 Fe 0.8145 0.17284 0.87188 0.0
O222 O 0.84315 0.16508 0.87856 0.0
Fe223 Fe 0.85751 0.12366 0.87132 0.0
O224 O 0.873 0.11705 0.89312 0.0
O225 O 0.86172 0.16428 0.91054 0.0
O226 O 0.83123 0.21154 0.90523 0.0
C227 C 0.81333 0.1928 0.90813 0.0
C228 C 0.89259 0.17462 0.86896 0.0
O229 O 0.80507 0.17174 0.89579 0.0
C230 C 0.83361 0.14922 0.83956 0.0
O231 O 0.85269 0.23659 0.87602 0.0
O232 O 0.81653 0.2242 0.8721 0.0
O233 O 0.88067 0.15004 0.86103 0.0
O234 O 0.88535 0.19145 0.88313 0.0
C235 C 0.81515 0.09373 0.87687 0.0
O236 O 0.82251 0.17443 0.8479 0.0
O237 O 0.84429 0.12373 0.84832 0.0
C238 C 0.83316 0.24651 0.87066 0.0
O239 O 0.80657 0.12309 0.87 0.0
O240 O 0.83588 0.09289 0.88102 0.0
C241 C 0.8702 0.1319 0.90885 0.0
Fe242 Fe 0.16696 0.904 0.36983 0.0
Fe243 Fe 0.16681 0.83487 0.39497 0.0
O244 O 0.181 0.86395 0.37884 0.0
Fe245 Fe 0.20911 0.85346 0.37193 0.0
O246 O 0.2195 0.89878 0.37974 0.0
O247 O 0.1928 0.93238 0.36667 0.0
O248 O 0.1646 0.92451 0.39262 0.0
C249 C 0.1553 0.90838 0.40615 0.0
C250 C 0.18704 0.87595 0.33888 0.0
O251 O 0.1505 0.87361 0.40543 0.0
C252 C 0.19257 0.78203 0.37376 0.0
O253 O 0.13837 0.88327 0.37116 0.0
O254 O 0.14434 0.82423 0.37867 0.0
O255 O 0.20503 0.87038 0.34815 0.0
O256 O 0.16878 0.88554 0.34669 0.0
C257 C 0.20898 0.83744 0.41035 0.0
O258 O 0.18103 0.79091 0.38785 0.0
O259 O 0.20108 0.80724 0.36368 0.0
C260 C 0.13183 0.84926 0.37164 0.0
O261 O 0.18809 0.84384 0.41224 0.0
O262 O 0.21782 0.83448 0.39448 0.0
C263 C 0.21217 0.93005 0.37413 0.0
Fe264 Fe 0.16796 0.19866 0.89291 0.0
Fe265 Fe 0.16813 0.12432 0.87087 0.0
O266 O 0.18217 0.16568 0.87858 0.0
Fe267 Fe 0.21084 0.17415 0.87221 0.0
O268 O 0.22003 0.17267 0.89622 0.0
O269 O 0.1934 0.21161 0.90567 0.0
O270 O 0.1633 0.16338 0.91043 0.0
C271 C 0.15495 0.13099 0.90837 0.0
C272 C 0.19161 0.24744 0.87128 0.0
O273 O 0.15232 0.11686 0.89246 0.0
C274 C 0.19243 0.15103 0.83949 0.0
O275 O 0.13975 0.19106 0.88306 0.0
O276 O 0.14499 0.15078 0.86055 0.0
O277 O 0.2084 0.22544 0.87272 0.0
O278 O 0.17211 0.23706 0.87651 0.0
C279 C 0.21056 0.0948 0.87658 0.0
O280 O 0.18176 0.12516 0.84798 0.0
O281 O 0.20313 0.17627 0.84814 0.0
C282 C 0.13283 0.17485 0.86863 0.0
O283 O 0.18978 0.09354 0.88052 0.0
O284 O 0.21912 0.12456 0.8701 0.0
C285 C 0.21146 0.19333 0.9086 0.0
Fe286 Fe 0.85695 0.83983 0.39516 0.0
Fe287 Fe 0.85715 0.90787 0.36934 0.0
O288 O 0.84285 0.86848 0.37878 0.0
Fe289 Fe 0.81462 0.85831 0.37201 0.0
O290 O 0.80581 0.84053 0.39475 0.0
O291 O 0.83569 0.84955 0.41238 0.0
O292 O 0.87339 0.87877 0.40526 0.0
C293 C 0.86884 0.91367 0.40556 0.0
C294 C 0.83117 0.78654 0.37434 0.0
O295 O 0.85957 0.92931 0.39188 0.0
C296 C 0.8369 0.87872 0.33876 0.0
O297 O 0.87939 0.82828 0.37897 0.0
O298 O 0.88565 0.88686 0.37092 0.0
O299 O 0.8222 0.81139 0.36429 0.0
O300 O 0.84271 0.7958 0.38837 0.0
C301 C 0.81222 0.93525 0.37343 0.0
O302 O 0.85522 0.88835 0.34644 0.0
O303 O 0.81885 0.87401 0.34807 0.0
C304 C 0.89206 0.85283 0.37175 0.0
O305 O 0.83155 0.93664 0.36586 0.0
O306 O 0.80453 0.90437 0.37928 0.0
C307 C 0.81474 0.84359 0.41057 0.0
Fe308 Fe 0.20929 0.85849 0.10801 0.0
Fe309 Fe 0.16728 0.84063 0.08449 0.0
O310 O 0.1812 0.86903 0.10102 0.0
Fe311 Fe 0.16692 0.90851 0.11037 0.0
O312 O 0.19262 0.93701 0.11405 0.0
O313 O 0.2196 0.90434 0.10081 0.0
O314 O 0.2183 0.84083 0.08531 0.0
C315 C 0.20961 0.84449 0.06943 0.0
C316 C 0.18676 0.87905 0.14114 0.0
O317 O 0.18871 0.85068 0.06746 0.0
C318 C 0.13196 0.85354 0.10766 0.0
O319 O 0.20142 0.81168 0.11564 0.0
O320 O 0.18159 0.79646 0.09119 0.0
O321 O 0.16856 0.88893 0.13333 0.0
O322 O 0.20487 0.8741 0.13194 0.0
C323 C 0.15556 0.91454 0.07403 0.0
O324 O 0.14468 0.82895 0.10052 0.0
O325 O 0.13841 0.88757 0.10859 0.0
C326 C 0.19306 0.78693 0.10522 0.0
O327 O 0.15092 0.87968 0.07436 0.0
O328 O 0.16474 0.9301 0.08777 0.0
C329 C 0.2121 0.93525 0.10673 0.0
Fe330 Fe 0.81443 0.17492 0.60882 0.0
Fe331 Fe 0.85655 0.19173 0.5851 0.0
O332 O 0.84238 0.16344 0.60162 0.0
Fe333 Fe 0.85631 0.12333 0.61072 0.0
O334 O 0.83047 0.09529 0.61393 0.0
O335 O 0.80333 0.1295 0.60167 0.0
O336 O 0.8055 0.19323 0.58615 0.0
C337 C 0.81406 0.18948 0.5702 0.0
C338 C 0.8367 0.15198 0.64178 0.0
O339 O 0.83488 0.18258 0.56815 0.0
C340 C 0.89168 0.17757 0.60836 0.0
O341 O 0.82304 0.22134 0.61656 0.0
O342 O 0.84283 0.2361 0.59201 0.0
O343 O 0.85474 0.14188 0.63383 0.0
O344 O 0.81874 0.15872 0.63268 0.0
C345 C 0.86785 0.11779 0.57444 0.0
O346 O 0.87939 0.20255 0.60103 0.0
O347 O 0.8849 0.14375 0.60924 0.0
C348 C 0.83188 0.24586 0.60625 0.0
O349 O 0.87254 0.15259 0.57473 0.0
O350 O 0.85848 0.10233 0.58808 0.0
C351 C 0.81097 0.09804 0.60679 0.0
H352 H 0.29858 0.25597 0.13144 0.0
H353 H 0.28297 0.19235 0.13145 0.0
H354 H 0.33823 0.15462 0.09718 0.0
H355 H 0.3541 0.21869 0.09713 0.0
H356 H 0.2713 0.15992 0.09524 0.0
H357 H 0.32823 0.06864 0.13727 0.0
H358 H 0.32635 0.11887 0.14099 0.0
H359 H 0.34082 0.10107 0.12111 0.0
C360 C 0.30782 0.23391 0.12436 0.0
C361 C 0.32753 0.24237 0.11423 0.0
C362 C 0.29883 0.19759 0.12434 0.0
C363 C 0.30937 0.16882 0.11427 0.0
C364 C 0.32995 0.17638 0.10519 0.0
H365 H 0.25552 0.94192 0.09321 0.0
H366 H 0.28005 0.99763 0.09386 0.0
C367 C 0.33906 0.21294 0.10524 0.0
C368 C 0.29711 0.13276 0.1115 0.0
H369 H 0.2962 0.03989 0.12378 0.0
C370 C 0.2768 0.13362 0.1014 0.0
C371 C 0.30447 0.09847 0.11935 0.0
C372 C 0.32611 0.09637 0.13038 0.0
C373 C 0.26339 0.10128 0.09924 0.0
C374 C 0.27018 0.06725 0.10777 0.0
C375 C 0.29092 0.06604 0.11736 0.0
C376 C 0.25546 0.03325 0.10749 0.0
C377 C 0.24208 0.10388 0.08777 0.0
C378 C 0.23357 0.03461 0.11511 0.0
C379 C 0.21947 1.00296 0.11469 0.0
C380 C 0.22702 0.96902 0.1068 0.0
C381 C 0.24909 0.96759 0.09935 0.0
C382 C 0.26319 0.99937 0.09975 0.0
H383 H 0.24291 0.12768 0.07784 0.0
H384 H 0.23907 0.07745 0.07998 0.0
H385 H 0.22733 0.10879 0.09697 0.0
H386 H 0.22739 0.0602 0.12149 0.0
H387 H 0.20268 1.0051 0.12069 0.0
H388 H 0.69938 0.79338 0.57605 0.0
H389 H 0.71699 0.85542 0.57749 0.0
H390 H 0.71754 0.84923 0.63689 0.0
H391 H 0.70127 0.78576 0.6354 0.0
H392 H 0.70774 0.92058 0.58982 0.0
H393 H 0.78239 0.87005 0.62904 0.0
H394 H 0.76123 0.83833 0.62017 0.0
H395 H 0.75648 0.86317 0.6415 0.0
C396 C 0.70302 0.8054 0.58944 0.0
C397 C 0.69907 0.78461 0.60562 0.0
C398 C 0.71316 0.84093 0.59026 0.0
C399 C 0.71926 0.85684 0.60728 0.0
C400 C 0.71387 0.83712 0.62354 0.0
H401 H 0.76499 0.09316 0.61174 0.0
H402 H 0.74182 0.03591 0.61241 0.0
C403 C 0.70429 0.80104 0.62271 0.0
C404 C 0.73181 0.89337 0.60778 0.0
H405 H 0.77955 0.93581 0.62456 0.0
C406 C 0.7235 0.92383 0.59738 0.0
C407 C 0.75263 0.89765 0.61735 0.0
C408 C 0.76384 0.86545 0.62747 0.0
C409 C 0.73542 0.95806 0.59612 0.0
C410 C 0.75577 0.9628 0.60627 0.0
C411 C 0.76391 0.93249 0.61685 0.0
C412 C 0.76951 0.99814 0.60563 0.0
C413 C 0.72647 0.98803 0.58327 0.0
C414 C 0.79299 0.99622 0.60225 0.0
C415 C 0.80634 0.02874 0.60253 0.0
C416 C 0.79648 0.0641 0.60582 0.0
C417 C 0.77297 0.0663 0.6089 0.0
C418 C 0.75968 0.03356 0.60913 0.0
H419 H 0.71555 0.97574 0.57234 0.0
H420 H 0.71593 1.00819 0.59122 0.0
H421 H 0.74049 1.00376 0.57655 0.0
H422 H 0.80109 0.96942 0.59948 0.0
H423 H 0.82442 0.02627 0.60006 0.0
H424 H 0.31299 0.7785 0.8464 0.0
H425 H 0.2953 0.84086 0.84574 0.0
H426 H 0.31426 0.85815 0.90251 0.0
H427 H 0.33267 0.79671 0.90305 0.0
H428 H 0.26006 0.86356 0.86462 0.0
H429 H 0.33144 0.95798 0.88198 0.0
H430 H 0.33571 0.9093 0.87582 0.0
H431 H 0.32788 0.92191 0.89902 0.0
C432 C 0.31389 0.79599 0.8586 0.0
C433 C 0.32441 0.78262 0.87473 0.0
C434 C 0.30366 0.8316 0.85824 0.0
C435 C 0.30359 0.85458 0.87401 0.0
C436 C 0.31456 0.84161 0.88999 0.0
H437 H 0.20104 0.02817 0.89425 0.0
H438 H 0.22365 0.97027 0.89414 0.0
C439 C 0.32506 0.80626 0.89029 0.0
C440 C 0.29057 0.89062 0.8742 0.0
H441 H 0.29414 0.984 0.88521 0.0
C442 C 0.2676 0.88995 0.86897 0.0
C443 C 0.30036 0.92527 0.8797 0.0
C444 C 0.32526 0.92879 0.88425 0.0
C445 C 0.25413 0.92263 0.86932 0.0
C446 C 0.26363 0.95689 0.87566 0.0
C447 C 0.28669 0.9577 0.88062 0.0
C448 C 0.25023 0.99249 0.8766 0.0
C449 C 0.23 0.92015 0.86242 0.0
C450 C 0.25805 0.02491 0.86752 0.0
C451 C 0.24541 0.05824 0.8679 0.0
C452 C 0.22452 0.05994 0.87729 0.0
C453 C 0.21691 0.02772 0.88673 0.0
C454 C 0.22976 0.99447 0.88654 0.0
H455 H 0.22761 0.8957 0.85308 0.0
H456 H 0.2184 0.9164 0.87433 0.0
H457 H 0.225 0.94613 0.85494 0.0
H458 H 0.27381 0.02428 0.85983 0.0
H459 H 0.25182 0.08246 0.86046 0.0
H460 H 0.76682 0.94107 0.38194 0.0
H461 H 0.74319 0.99795 0.38148 0.0
H462 H 0.80122 0.0641 0.3654 0.0
H463 H 0.82495 1.00761 0.36576 0.0
H464 H 0.774 0.09434 0.39565 0.0
H465 H 0.723 0.0568 0.3338 0.0
H466 H 0.72517 0.02169 0.35161 0.0
H467 H 0.74999 0.03498 0.33886 0.0
C468 C 0.77458 0.96771 0.37832 0.0
C469 C 0.7978 0.96966 0.37378 0.0
C470 C 0.76101 1.00016 0.37797 0.0
C471 C 0.77039 0.03518 0.37319 0.0
C472 C 0.79361 0.03733 0.36902 0.0
H473 H 0.71635 0.25394 0.3451 0.0
H474 H 0.73356 0.19116 0.34508 0.0
C475 C 0.80713 1.00495 0.36922 0.0
C476 C 0.75621 0.0698 0.37274 0.0
H477 H 0.71365 0.11368 0.34888 0.0
C478 C 0.76072 0.0985 0.38551 0.0
C479 C 0.73904 0.07529 0.35936 0.0
C480 C 0.734 0.04577 0.345 0.0
C481 C 0.74849 0.1325 0.38528 0.0
C482 C 0.73123 0.13792 0.37198 0.0
C483 C 0.72675 0.1093 0.35916 0.0
C484 C 0.71837 0.17386 0.37085 0.0
C485 C 0.75446 0.1628 0.39902 0.0
C486 C 0.70343 0.18441 0.38499 0.0
C487 C 0.69342 0.22018 0.385 0.0
C488 C 0.69827 0.24626 0.3709 0.0
C489 C 0.71227 0.23472 0.35621 0.0
C490 C 0.72215 0.19882 0.35617 0.0
H491 H 0.77071 0.15685 0.40622 0.0
H492 H 0.75578 0.1906 0.39209 0.0
H493 H 0.74082 0.16478 0.40952 0.0
H494 H 0.7001 0.1654 0.39636 0.0
H495 H 0.68276 0.22797 0.39655 0.0
H496 H 0.77412 0.08023 0.86067 0.0
H497 H 0.75195 0.02232 0.86113 0.0
H498 H 0.80196 0.97037 0.89634 0.0
H499 H 0.82477 0.02806 0.89538 0.0
H500 H 0.79018 0.92366 0.86994 0.0
H501 H 0.71137 0.98122 0.90016 0.0
H502 H 0.71926 1.00602 0.87962 0.0
H503 H 0.73748 1.00767 0.89954 0.0
C504 C 0.78036 0.05665 0.86867 0.0
C505 C 0.80122 0.05892 0.87806 0.0
C506 C 0.76753 0.02353 0.86903 0.0
C507 C 0.77496 0.99209 0.8791 0.0
C508 C 0.79576 0.99428 0.88855 0.0
H509 H 0.69215 0.79546 0.90386 0.0
H510 H 0.71154 0.85617 0.9041 0.0
C511 C 0.80879 0.0273 0.88801 0.0
C512 C 0.76155 0.95646 0.87903 0.0
H513 H 0.7084 0.92051 0.88608 0.0
C514 C 0.77233 0.92298 0.8736 0.0
C515 C 0.7383 0.95526 0.88404 0.0
C516 C 0.726 0.9894 0.89136 0.0
C517 C 0.76052 0.88863 0.87274 0.0
C518 C 0.73699 0.88782 0.87682 0.0
C519 C 0.7263 0.92115 0.88259 0.0
C520 C 0.72345 0.85238 0.87594 0.0
C521 C 0.7736 0.85341 0.86793 0.0
C522 C 0.7228 0.83056 0.8598 0.0
C523 C 0.71187 0.79553 0.85966 0.0
C524 C 0.70094 0.78193 0.87557 0.0
C525 C 0.70031 0.80502 0.89132 0.0
C526 C 0.7115 0.83978 0.89152 0.0
H527 H 0.79206 0.85683 0.8706 0.0
H528 H 0.7674 0.82881 0.87592 0.0
H529 H 0.77144 0.8473 0.85304 0.0
H530 H 0.73121 0.84018 0.8474 0.0
H531 H 0.71253 0.77863 0.84725 0.0
H532 H 0.20271 1.00123 0.36188 0.0
H533 H 0.22782 0.0559 0.36154 0.0
H534 H 0.28078 0.99017 0.38699 0.0
H535 H 0.25585 0.93501 0.3872 0.0
H536 H 0.24846 0.0917 0.39133 0.0
H537 H 0.31301 0.03689 0.34222 0.0
H538 H 0.28545 0.01536 0.34496 0.0
H539 H 0.30721 1.00758 0.36187 0.0
C540 C 0.21971 0.99825 0.36738 0.0
C541 C 0.22727 0.96357 0.37448 0.0
C542 C 0.23405 0.02959 0.36717 0.0
C543 C 0.2563 0.02699 0.37396 0.0
C544 C 0.26385 0.99262 0.38131 0.0
H545 H 0.35221 0.21542 0.38762 0.0
H546 H 0.33659 0.15116 0.38777 0.0
C547 C 0.24949 0.96118 0.38154 0.0
C548 C 0.2712 0.06073 0.37374 0.0
H549 H 0.31955 0.09742 0.35471 0.0
C550 C 0.26407 0.09282 0.38341 0.0
C551 C 0.29163 0.06214 0.36345 0.0
C552 C 0.29978 0.02881 0.3524 0.0
C553 C 0.27656 0.12641 0.38283 0.0
C554 C 0.29661 0.12814 0.37216 0.0
C555 C 0.30418 0.09586 0.36289 0.0
C556 C 0.30868 0.16432 0.36951 0.0
C557 C 0.26804 0.16019 0.39338 0.0
C558 C 0.29871 0.19229 0.35856 0.0
C559 C 0.30754 0.22872 0.35843 0.0
C560 C 0.32656 0.23793 0.36923 0.0
C561 C 0.33764 0.20913 0.37907 0.0
C562 C 0.32868 0.17249 0.37924 0.0
H563 H 0.25491 0.15237 0.40369 0.0
H564 H 0.28226 0.17449 0.40058 0.0
H565 H 0.26044 0.18065 0.3836 0.0
H566 H 0.28336 0.1864 0.35087 0.0
H567 H 0.29871 0.25023 0.35062 0.0
H568 H 0.76798 0.93989 0.09374 0.0
H569 H 0.74355 0.99576 0.0942 0.0
H570 H 0.79629 0.05836 0.12166 0.0
H571 H 0.82089 1.00308 0.12107 0.0
H572 H 0.72755 0.039 0.12409 0.0
H573 H 0.78107 0.12474 0.07739 0.0
H574 H 0.78461 0.0745 0.07981 0.0
H575 H 0.79659 0.10602 0.09659 0.0
C576 C 0.77444 0.96559 0.09982 0.0
C577 C 0.7965 0.96698 0.10727 0.0
C578 C 0.7604 0.99746 0.10011 0.0
C579 C 0.76819 0.03138 0.10774 0.0
C580 C 0.79007 0.03271 0.11538 0.0
H581 H 0.7262 0.25545 0.12993 0.0
H582 H 0.74162 0.19169 0.13033 0.0
C583 C 0.8041 1.00096 0.11508 0.0
C584 C 0.7536 0.06555 0.1078 0.0
H585 H 0.75281 0.1578 0.09456 0.0
C586 C 0.7329 0.06489 0.11745 0.0
C587 C 0.7605 0.0992 0.09899 0.0
C588 C 0.78179 0.10117 0.08745 0.0
C589 C 0.71949 0.09754 0.11924 0.0
C590 C 0.72696 0.13149 0.1111 0.0
C591 C 0.74723 0.13176 0.10094 0.0
C592 C 0.71487 0.1678 0.11364 0.0
C593 C 0.6979 0.09606 0.13036 0.0
C594 C 0.69417 0.17522 0.10472 0.0
C595 C 0.68518 0.21187 0.10454 0.0
C596 C 0.69694 0.24151 0.11315 0.0
C597 C 0.71679 0.23324 0.12312 0.0
C598 C 0.72567 0.19683 0.12333 0.0
H599 H 0.69577 0.06866 0.13756 0.0
H600 H 0.69774 0.11904 0.14073 0.0
H601 H 0.68316 0.1004 0.12109 0.0
H602 H 0.6857 0.15326 0.097 0.0
H603 H 0.67001 0.21746 0.09657 0.0
H604 H 0.20341 0.02356 0.62238 0.0
H605 H 0.22711 0.9673 0.62229 0.0
H606 H 0.27659 0.02442 0.58857 0.0
H607 H 0.25312 0.08142 0.58892 0.0
H608 H 0.24072 0.92422 0.59366 0.0
H609 H 0.31619 0.9827 0.62947 0.0
H610 H 0.28931 1.00703 0.62877 0.0
H611 H 0.30792 1.00808 0.60914 0.0
C612 C 0.21937 0.02435 0.61498 0.0
C613 C 0.22639 0.05721 0.60574 0.0
C614 C 0.23292 0.99206 0.61495 0.0
C615 C 0.25383 0.99172 0.60568 0.0
C616 C 0.2608 0.02425 0.5962 0.0
H617 H 0.3439 0.80074 0.58425 0.0
H618 H 0.32662 0.86352 0.58459 0.0
C619 C 0.24727 0.05675 0.5963 0.0
C620 C 0.26781 0.95679 0.6056 0.0
H621 H 0.31932 0.92023 0.61817 0.0
C622 C 0.2579 0.92343 0.59903 0.0
C623 C 0.29027 0.95569 0.6126 0.0
C624 C 0.30153 0.99018 0.62055 0.0
C625 C 0.26974 0.88912 0.59931 0.0
C626 C 0.29204 0.888 0.60643 0.0
C627 C 0.30219 0.92131 0.61273 0.0
C628 C 0.30467 0.85199 0.60778 0.0
C629 C 0.25834 0.85413 0.59201 0.0
C630 C 0.29856 0.82525 0.6211 0.0
C631 C 0.30845 0.78945 0.62104 0.0
C632 C 0.32458 0.77958 0.60755 0.0
C633 C 0.33153 0.80726 0.59482 0.0
C634 C 0.32167 0.84317 0.59496 0.0
H635 H 0.24244 0.8607 0.58442 0.0
H636 H 0.26999 0.83859 0.58269 0.0
H637 H 0.25409 0.83523 0.6037 0.0
H638 H 0.28554 0.83167 0.63116 0.0
H639 H 0.3027 0.76901 0.63109 0.0
H640 H 0.80209 0.755 0.13047 0.0
H641 H 0.78413 0.69314 0.1298 0.0
H642 H 0.82369 0.6633 0.082 0.0
H643 H 0.84147 0.72551 0.08231 0.0
H644 H 0.77893 0.64912 0.07687 0.0
H645 H 0.80593 0.58922 0.14381 0.0
H646 H 0.79279 0.63454 0.14615 0.0
H647 H 0.81921 0.63028 0.13387 0.0
C648 C 0.80738 0.73508 0.12002 0.0
C649 C 0.82328 0.74542 0.10643 0.0
C650 C 0.7971 0.69955 0.1197 0.0
C651 C 0.80265 0.67333 0.10594 0.0
C652 C 0.81913 0.68301 0.09277 0.0
H653 H 0.7553 0.4409 0.10632 0.0
H654 H 0.77807 0.4983 0.10608 0.0
C655 C 0.82939 0.71858 0.09304 0.0
C656 C 0.79011 0.63702 0.1045 0.0
H657 H 0.77515 0.55824 0.12867 0.0
C658 C 0.77826 0.62911 0.08815 0.0
C659 C 0.78936 0.61068 0.11913 0.0
C660 C 0.80268 0.61637 0.13666 0.0
C661 C 0.76534 0.59605 0.08617 0.0
C662 C 0.76383 0.57046 0.10108 0.0
C663 C 0.77607 0.578 0.11729 0.0
C664 C 0.7499 0.53548 0.10016 0.0
C665 C 0.75373 0.58863 0.068 0.0
C666 C 0.72641 0.53708 0.09683 0.0
C667 C 0.71329 0.50414 0.09682 0.0
C668 C 0.72336 0.46893 0.10039 0.0
C669 C 0.74693 0.46746 0.10354 0.0
C670 C 0.76001 0.50032 0.10345 0.0
H671 H 0.76175 0.60472 0.05659 0.0
H672 H 0.75413 0.55822 0.06448 0.0
H673 H 0.73573 0.59761 0.06896 0.0
H674 H 0.7181 0.56391 0.09465 0.0
H675 H 0.69519 0.50641 0.09448 0.0
H676 H 0.32145 0.52387 0.6245 0.0
H677 H 0.29737 0.4678 0.62465 0.0
H678 H 0.24891 0.52426 0.58977 0.0
H679 H 0.27285 0.5807 0.58955 0.0
H680 H 0.24869 0.46436 0.63603 0.0
H681 H 0.26452 0.42151 0.56336 0.0
H682 H 0.2835 0.45239 0.57574 0.0
H683 H 0.25682 0.46985 0.56744 0.0
C684 C 0.30572 0.52444 0.6168 0.0
C685 C 0.29913 0.55687 0.60699 0.0
C686 C 0.29194 0.49236 0.61695 0.0
C687 C 0.27144 0.49182 0.60715 0.0
C688 C 0.26478 0.52401 0.5973 0.0
H689 H 0.18 0.30238 0.58646 0.0
H690 H 0.1962 0.36576 0.58772 0.0
C691 C 0.27846 0.55627 0.59724 0.0
C692 C 0.25703 0.45754 0.60736 0.0
H693 H 0.23948 0.38398 0.58067 0.0
C694 C 0.24657 0.44681 0.62393 0.0
C695 C 0.25417 0.43493 0.59152 0.0
C696 C 0.26541 0.44492 0.57348 0.0
C697 C 0.23336 0.41392 0.6251 0.0
C698 C 0.23106 0.39058 0.60938 0.0
C699 C 0.24119 0.40181 0.59272 0.0
C700 C 0.21933 0.35345 0.61009 0.0
C701 C 0.22182 0.40479 0.64311 0.0
C702 C 0.22663 0.32548 0.62243 0.0
C703 C 0.21726 0.28932 0.62187 0.0
C704 C 0.20057 0.28005 0.60874 0.0
C705 C 0.19276 0.30846 0.59678 0.0
C706 C 0.20208 0.34472 0.59742 0.0
H707 H 0.21876 0.43063 0.65137 0.0
H708 H 0.20535 0.39032 0.64086 0.0
H709 H 0.23296 0.38597 0.65133 0.0
H710 H 0.24027 0.33111 0.63203 0.0
H711 H 0.22384 0.26821 0.63122 0.0
H712 H 0.75667 0.58858 0.88564 0.0
H713 H 0.78147 0.53328 0.88474 0.0
H714 H 0.72847 0.46948 0.85828 0.0
H715 H 0.70348 0.52435 0.85929 0.0
H716 H 0.74863 0.43203 0.88781 0.0
H717 H 0.81414 0.48802 0.8399 0.0
H718 H 0.80825 0.51663 0.85975 0.0
H719 H 0.78666 0.50985 0.84262 0.0
C720 C 0.75028 0.56283 0.87958 0.0
C721 C 0.72806 0.56104 0.87247 0.0
C722 C 0.76457 0.5313 0.87896 0.0
C723 C 0.75698 0.49741 0.87116 0.0
C724 C 0.73475 0.49542 0.86425 0.0
H725 H 0.79957 0.27299 0.84882 0.0
H726 H 0.78388 0.33662 0.84857 0.0
C727 C 0.72047 0.52686 0.86485 0.0
C728 C 0.77175 0.46345 0.87074 0.0
H729 H 0.82054 0.42719 0.85222 0.0
C730 C 0.76439 0.43108 0.88008 0.0
C731 C 0.7924 0.46226 0.86073 0.0
C732 C 0.80083 0.4959 0.85004 0.0
C733 C 0.7769 0.39748 0.87951 0.0
C734 C 0.7972 0.39597 0.86912 0.0
C735 C 0.80497 0.42852 0.86016 0.0
C736 C 0.80948 0.35987 0.86659 0.0
C737 C 0.76819 0.36356 0.88987 0.0
C738 C 0.82981 0.35239 0.87603 0.0
C739 C 0.83899 0.31587 0.8761 0.0
C740 C 0.82782 0.28649 0.86678 0.0
C741 C 0.80849 0.29499 0.8562 0.0
C742 C 0.79945 0.3313 0.85608 0.0
H743 H 0.75519 0.37137 0.90028 0.0
H744 H 0.76033 0.34363 0.87997 0.0
H745 H 0.78232 0.34868 0.89692 0.0
H746 H 0.8378 0.37417 0.88421 0.0
H747 H 0.85378 0.3101 0.8845 0.0
H748 H 0.27003 0.43914 0.3691 0.0
H749 H 0.24749 0.49679 0.36872 0.0
H750 H 0.30728 0.56184 0.38131 0.0
H751 H 0.32997 0.50403 0.38213 0.0
H752 H 0.27078 0.58503 0.40124 0.0
H753 H 0.24681 0.57362 0.32762 0.0
H754 H 0.23906 0.53292 0.34085 0.0
H755 H 0.26855 0.54462 0.33788 0.0
C756 C 0.27845 0.46567 0.3718 0.0
C757 C 0.30191 0.46691 0.37547 0.0
C758 C 0.26552 0.49869 0.37146 0.0
C759 C 0.27575 0.5338 0.37454 0.0
C760 C 0.29903 0.53511 0.37872 0.0
H761 H 0.22226 0.75439 0.348 0.0
H762 H 0.24119 0.69326 0.34819 0.0
C763 C 0.31199 0.50201 0.37919 0.0
C764 C 0.26213 0.56907 0.37351 0.0
H765 H 0.22773 0.62055 0.3451 0.0
C766 C 0.26139 0.59282 0.38896 0.0
C767 C 0.25012 0.57955 0.35739 0.0
C768 C 0.25132 0.55656 0.33993 0.0
C769 C 0.24882 0.62649 0.38881 0.0
C770 C 0.23616 0.63629 0.3729 0.0
C771 C 0.23711 0.61275 0.35739 0.0
C772 C 0.22282 0.67183 0.37179 0.0
C773 C 0.24974 0.65173 0.40552 0.0
C774 C 0.20543 0.67961 0.38448 0.0
C775 C 0.19457 0.71469 0.38445 0.0
C776 C 0.20074 0.74263 0.37162 0.0
C777 C 0.21709 0.73372 0.35815 0.0
C778 C 0.22801 0.69874 0.35825 0.0
H779 H 0.26462 0.64524 0.41438 0.0
H780 H 0.25057 0.68184 0.40145 0.0
H781 H 0.23419 0.64748 0.41389 0.0
H782 H 0.20067 0.6589 0.39473 0.0
H783 H 0.18196 0.7204 0.39496 0.0
H784 H 0.26821 0.58881 0.8868 0.0
H785 H 0.24364 0.53314 0.88649 0.0
H786 H 0.29587 0.4703 0.85846 0.0
H787 H 0.32061 0.52538 0.85892 0.0
H788 H 0.22703 0.49017 0.85688 0.0
H789 H 0.28125 0.40372 0.90271 0.0
H790 H 0.28492 0.45393 0.90029 0.0
H791 H 0.29647 0.42234 0.88333 0.0
C792 C 0.27452 0.56311 0.88062 0.0
C793 C 0.29649 0.56159 0.87299 0.0
C794 C 0.26041 0.53134 0.88042 0.0
C795 C 0.26802 0.49739 0.87269 0.0
C796 C 0.28979 0.49596 0.86483 0.0
H797 H 0.22518 0.27447 0.84963 0.0
H798 H 0.24043 0.33834 0.84941 0.0
C799 C 0.3039 0.5276 0.86505 0.0
C800 C 0.25336 0.46331 0.87275 0.0
H801 H 0.25266 0.37093 0.8858 0.0
C802 C 0.23246 0.4642 0.86339 0.0
C803 C 0.26036 0.42954 0.88141 0.0
C804 C 0.28186 0.42732 0.89267 0.0
C805 C 0.21895 0.43164 0.86173 0.0
C806 C 0.22653 0.39758 0.86967 0.0
C807 C 0.24699 0.39707 0.87957 0.0
C808 C 0.21439 0.36135 0.86712 0.0
C809 C 0.19713 0.43334 0.85092 0.0
C810 C 0.19413 0.35342 0.87659 0.0
C811 C 0.18524 0.31671 0.87667 0.0
C812 C 0.19668 0.28752 0.86742 0.0
C813 C 0.21603 0.29634 0.85693 0.0
C814 C 0.2248 0.33281 0.85681 0.0
H815 H 0.19465 0.46108 0.84413 0.0
H816 H 0.19696 0.41094 0.84025 0.0
H817 H 0.1826 0.42813 0.86032 0.0
H818 H 0.18596 0.37502 0.88477 0.0
H819 H 0.17046 0.31067 0.88505 0.0
H820 H 0.84612 0.72483 0.39363 0.0
H821 H 0.83124 0.66059 0.3923 0.0
H822 H 0.78545 0.69353 0.34883 0.0
H823 H 0.80056 0.75739 0.34973 0.0
H824 H 0.78873 0.63921 0.39986 0.0
H825 H 0.80879 0.59593 0.32855 0.0
H826 H 0.82149 0.63679 0.33913 0.0
H827 H 0.79358 0.63963 0.32909 0.0
C828 C 0.83323 0.71824 0.38349 0.0
C829 C 0.82459 0.74642 0.37177 0.0
C830 C 0.82468 0.68147 0.3828 0.0
C831 C 0.80737 0.67196 0.37034 0.0
C832 C 0.79918 0.69977 0.35827 0.0
H833 H 0.70696 0.50162 0.35541 0.0
H834 H 0.7316 0.5568 0.35562 0.0
C835 C 0.80779 0.73647 0.35887 0.0
C836 C 0.79654 0.63404 0.37097 0.0
H837 H 0.7797 0.56025 0.34401 0.0
C838 C 0.78711 0.62166 0.38771 0.0
C839 C 0.7944 0.61102 0.35514 0.0
C840 C 0.80532 0.62134 0.33702 0.0
C841 C 0.77478 0.58783 0.38884 0.0
C842 C 0.77191 0.56564 0.37285 0.0
C843 C 0.78186 0.5774 0.35624 0.0
C844 C 0.75738 0.53146 0.37281 0.0
C845 C 0.76408 0.57676 0.40694 0.0
C846 C 0.76377 0.4987 0.38235 0.0
C847 C 0.7497 0.4668 0.38222 0.0
C848 C 0.72896 0.46723 0.37258 0.0
C849 C 0.72274 0.5002 0.36303 0.0
C850 C 0.73684 0.53182 0.36308 0.0
H851 H 0.76518 0.59959 0.41736 0.0
H852 H 0.74595 0.56928 0.4049 0.0
H853 H 0.77288 0.55155 0.41249 0.0
H854 H 0.77966 0.49775 0.38983 0.0
H855 H 0.75503 0.44193 0.3897 0.0
H856 H 0.32915 0.50726 0.09586 0.0
H857 H 0.30648 0.56507 0.09645 0.0
H858 H 0.24637 0.50001 0.10802 0.0
H859 H 0.26889 0.44229 0.10785 0.0
H860 H 0.27026 0.58919 0.07632 0.0
H861 H 0.24543 0.57562 0.14971 0.0
H862 H 0.26724 0.54684 0.13941 0.0
H863 H 0.23777 0.53549 0.13605 0.0
C864 C 0.31109 0.5052 0.09847 0.0
C865 C 0.30092 0.47007 0.10202 0.0
C866 C 0.29814 0.53832 0.09882 0.0
C867 C 0.27478 0.53704 0.1027 0.0
C868 C 0.26445 0.50189 0.10551 0.0
H869 H 0.1823 0.72625 0.08347 0.0
H870 H 0.20066 0.66446 0.0832 0.0
C871 C 0.27737 0.46883 0.10527 0.0
C872 C 0.26127 0.57244 0.10388 0.0
H873 H 0.22712 0.62379 0.13254 0.0
C874 C 0.26083 0.59676 0.08862 0.0
C875 C 0.24921 0.58265 0.12002 0.0
C876 C 0.25007 0.559 0.1373 0.0
C877 C 0.24855 0.63073 0.08898 0.0
C878 C 0.23589 0.64032 0.10491 0.0
C879 C 0.23652 0.6162 0.12024 0.0
C880 C 0.22285 0.67618 0.10625 0.0
C881 C 0.24978 0.65651 0.07246 0.0
C882 C 0.22821 0.70256 0.11998 0.0
C883 C 0.2175 0.73775 0.12035 0.0
C884 C 0.20117 0.74737 0.10698 0.0
C885 C 0.19488 0.72 0.09391 0.0
C886 C 0.20555 0.68473 0.09361 0.0
H887 H 0.26462 0.64993 0.06358 0.0
H888 H 0.23422 0.65298 0.06404 0.0
H889 H 0.25089 0.68645 0.07677 0.0
H890 H 0.24133 0.6965 0.13 0.0
H891 H 0.22277 0.75797 0.13066 0.0
H892 H 0.84021 0.30464 0.58277 0.0
H893 H 0.82388 0.36783 0.58391 0.0
H894 H 0.79156 0.34132 0.63559 0.0
H895 H 0.80779 0.27791 0.63462 0.0
H896 H 0.77589 0.37987 0.58485 0.0
H897 H 0.81951 0.44757 0.64405 0.0
H898 H 0.83099 0.40703 0.63222 0.0
H899 H 0.80826 0.40137 0.64848 0.0
C900 C 0.83005 0.31239 0.59461 0.0
C901 C 0.82527 0.286 0.60858 0.0
C902 C 0.82067 0.34856 0.59519 0.0
C903 C 0.80658 0.35934 0.60986 0.0
C904 C 0.80262 0.33376 0.62426 0.0
H905 H 0.70008 0.52489 0.6162 0.0
H906 H 0.72383 0.46844 0.61606 0.0
C907 C 0.81188 0.29745 0.62365 0.0
C908 C 0.79436 0.39592 0.60921 0.0
H909 H 0.78721 0.47941 0.6319 0.0
C910 C 0.77849 0.40174 0.59506 0.0
C911 C 0.79785 0.42446 0.62249 0.0
C912 C 0.8152 0.42011 0.63761 0.0
C913 C 0.76559 0.43495 0.59411 0.0
C914 C 0.7686 0.46303 0.60768 0.0
C915 C 0.78488 0.45771 0.62157 0.0
C916 C 0.75444 0.49756 0.6079 0.0
C917 C 0.74872 0.4398 0.57866 0.0
C918 C 0.76386 0.53272 0.60348 0.0
C919 C 0.75028 0.56514 0.60342 0.0
C920 C 0.7271 0.563 0.60804 0.0
C921 C 0.71785 0.52766 0.61261 0.0
C922 C 0.73137 0.4953 0.6125 0.0
H923 H 0.75144 0.41902 0.56743 0.0
H924 H 0.73128 0.43592 0.58413 0.0
H925 H 0.74982 0.46863 0.57279 0.0
H926 H 0.78166 0.53499 0.59991 0.0
H927 H 0.75798 0.59187 0.59989 0.0
H928 H 0.38281 0.47071 0.06882 0.0
H929 H 0.38689 0.50698 0.04023 0.0
H930 H 0.37482 0.40651 0.00843 0.0
H931 H 0.37062 0.37012 0.03672 0.0
H932 H 0.41584 0.49608 0.00702 0.0
H933 H 0.32331 0.48176 -0.00623 0.0
H934 H 0.33576 0.47294 0.01609 0.0
H935 H 0.33809 0.43839 -0.00188 0.0
C936 C 0.38141 0.4562 0.05575 0.0
C937 C 0.37618 0.41755 0.05509 0.0
C938 C 0.38373 0.47698 0.03944 0.0
C939 C 0.3808 0.45946 0.02228 0.0
C940 C 0.37682 0.4206 0.02157 0.0
H941 H 0.36267 0.53664 0.91004 0.0
H942 H 0.36821 0.49903 0.93792 0.0
C943 C 0.37448 0.39985 0.03779 0.0
C944 C 0.3804 0.48197 0.00511 0.0
H945 H 0.34531 0.50955 0.97022 0.0
C946 C 0.40045 0.4992 -0.00104 0.0
C947 C 0.36026 0.48589 -0.00532 0.0
C948 C 0.33806 0.46907 0.00102 0.0
C949 C 0.40098 0.51967 0.98237 0.0
C950 C 0.38082 0.52349 0.97191 0.0
C951 C 0.36078 0.50638 0.97818 0.0
C952 C 0.37981 0.54569 0.9546 0.0
C953 C 0.42319 0.53628 0.97599 0.0
C954 C 0.38462 0.58438 0.95469 0.0
C955 C 0.38157 0.60594 0.93876 0.0
C956 C 0.37342 0.58929 0.92246 0.0
C957 C 0.36903 0.55036 0.92233 0.0
C958 C 0.37216 0.52882 0.93825 0.0
H959 H 0.43792 0.52206 0.98255 0.0
H960 H 0.42498 0.53417 0.96079 0.0
H961 H 0.42378 0.5665 0.97983 0.0
H962 H 0.39 0.59819 0.96725 0.0
H963 H 0.38493 0.63589 0.93941 0.0
H964 H 0.6809 0.47526 0.41691 0.0
H965 H 0.67666 0.50747 0.4464 0.0
H966 H 0.61817 0.43887 0.45893 0.0
H967 H 0.62322 0.405 0.42983 0.0
H968 H 0.64606 0.54908 0.46116 0.0
H969 H 0.65405 0.4208 0.50419 0.0
H970 H 0.65898 0.4203 0.4797 0.0
H971 H 0.63047 0.41849 0.48865 0.0
C972 C 0.66706 0.46718 0.42592 0.0
C973 C 0.65247 0.43749 0.42116 0.0
C974 C 0.66466 0.48557 0.4428 0.0
C975 C 0.64741 0.47505 0.45514 0.0
C976 C 0.63209 0.44664 0.44997 0.0
H977 H 0.62266 0.62356 0.54981 0.0
H978 H 0.61773 0.58817 0.52116 0.0
C979 C 0.63483 0.42756 0.43326 0.0
C980 C 0.64578 0.49383 0.4734 0.0
H981 H 0.64468 0.47724 0.51976 0.0
C982 C 0.64578 0.53335 0.47398 0.0
C983 C 0.64575 0.47333 0.49016 0.0
C984 C 0.64755 0.43092 0.4907 0.0
C985 C 0.64617 0.55295 0.49075 0.0
C986 C 0.64538 0.53248 0.50751 0.0
C987 C 0.645 0.49296 0.50694 0.0
C988 C 0.64651 0.55136 0.52576 0.0
C989 C 0.64852 0.59529 0.49024 0.0
C990 C 0.66333 0.54082 0.5385 0.0
C991 C 0.66564 0.56011 0.55515 0.0
C992 C 0.6514 0.5907 0.55926 0.0
C993 C 0.63403 0.60035 0.54687 0.0
C994 C 0.63136 0.5804 0.53041 0.0
H995 H 0.65564 0.60514 0.47689 0.0
H996 H 0.63153 0.60834 0.49187 0.0
H997 H 0.65969 0.60556 0.50148 0.0
H998 H 0.67517 0.5184 0.5353 0.0
H999 H 0.67925 0.55219 0.56442 0.0
H1000 H 0.65251 0.36849 0.03574 0.0
H1001 H 0.64812 0.40463 0.0074 0.0
H1002 H 0.63703 0.50565 0.03903 0.0
H1003 H 0.64129 0.46963 0.06768 0.0
H1004 H 0.60767 0.49494 0.00605 0.0
H1005 H 0.69999 0.47873 -0.00775 0.0
H1006 H 0.68493 0.4357 -0.00325 0.0
H1007 H 0.68769 0.47027 0.01466 0.0
C1008 C 0.64881 0.3983 0.03676 0.0
C1009 C 0.64746 0.41623 0.05403 0.0
C1010 C 0.64637 0.41889 0.02051 0.0
C1011 C 0.64262 0.45783 0.02116 0.0
C1012 C 0.64 0.47558 0.0383 0.0
H1013 H 0.63909 0.63471 0.93877 0.0
H1014 H 0.63377 0.59661 0.96643 0.0
C1015 C 0.64242 0.45495 0.05463 0.0
C1016 C 0.64299 0.48016 0.00394 0.0
H1017 H 0.678 0.50711 0.96888 0.0
C1018 C 0.62301 0.49776 -0.00209 0.0
C1019 C 0.66307 0.48366 -0.00659 0.0
C1020 C 0.68522 0.46639 -0.00039 0.0
C1021 C 0.62249 0.51826 0.98133 0.0
C1022 C 0.6426 0.52174 0.97078 0.0
C1023 C 0.66257 0.5042 0.97691 0.0
C1024 C 0.64367 0.54417 0.95355 0.0
C1025 C 0.60033 0.53529 0.97508 0.0
C1026 C 0.65122 0.52745 0.93713 0.0
C1027 C 0.65452 0.54923 0.9213 0.0
C1028 C 0.65036 0.58822 0.92161 0.0
C1029 C 0.64226 0.60471 0.93798 0.0
C1030 C 0.63907 0.58292 0.95381 0.0
H1031 H 0.58556 0.52116 0.98163 0.0
H1032 H 0.5999 0.56544 0.97906 0.0
H1033 H 0.59848 0.53349 0.95988 0.0
H1034 H 0.65501 0.49761 0.93667 0.0
H1035 H 0.66082 0.53563 0.90897 0.0
H1036 H 0.38571 0.63689 0.54155 0.0
H1037 H 0.38946 0.60042 0.51313 0.0
H1038 H 0.36963 0.49979 0.54222 0.0
H1039 H 0.3655 0.53598 0.57065 0.0
H1040 H 0.41502 0.53531 0.50332 0.0
H1041 H 0.3221 0.50987 0.501 0.0
H1042 H 0.33479 0.54442 0.51603 0.0
H1043 H 0.33529 0.49535 0.52214 0.0
C1044 C 0.38242 0.6069 0.54198 0.0
C1045 C 0.37511 0.58941 0.55836 0.0
C1046 C 0.38458 0.58613 0.52571 0.0
C1047 C 0.37943 0.5476 0.52553 0.0
C1048 C 0.37327 0.52968 0.54202 0.0
H1049 H 0.36555 0.37228 0.44544 0.0
H1050 H 0.37079 0.41053 0.47294 0.0
C1051 C 0.37102 0.5504 0.55828 0.0
C1052 C 0.37931 0.52649 0.50794 0.0
H1053 H 0.34458 0.47648 0.4794 0.0
C1054 C 0.39964 0.52257 0.498 0.0
C1055 C 0.35913 0.51031 0.50097 0.0
C1056 C 0.33654 0.51544 0.51047 0.0
C1057 C 0.40043 0.50167 0.48156 0.0
C1058 C 0.38035 0.48474 0.47489 0.0
C1059 C 0.35998 0.48932 0.48465 0.0
C1060 C 0.37995 0.4611 0.4581 0.0
C1061 C 0.42279 0.49696 0.4717 0.0
C1062 C 0.38369 0.47679 0.4406 0.0
C1063 C 0.38067 0.45492 0.42472 0.0
C1064 C 0.37373 0.41712 0.42615 0.0
C1065 C 0.37078 0.40132 0.44378 0.0
C1066 C 0.3738 0.42311 0.45956 0.0
H1067 H 0.43737 0.50574 0.4804 0.0
H1068 H 0.42526 0.46719 0.46747 0.0
H1069 H 0.42277 0.51452 0.45905 0.0
H1070 H 0.3881 0.50625 0.43919 0.0
H1071 H 0.38295 0.468 0.41136 0.0
H1072 H 0.88282 0.05763 0.91183 0.0
H1073 H 0.88679 0.02084 0.94027 0.0
H1074 H 0.87411 0.1206 0.97246 0.0
H1075 H 0.86997 0.15749 0.94432 0.0
H1076 H 0.91536 0.03054 0.97327 0.0
H1077 H 0.82299 0.04538 0.98703 0.0
H1078 H 0.83537 0.0551 0.96477 0.0
H1079 H 0.83777 0.08889 0.98308 0.0
C1080 C 0.88125 0.07187 0.92496 0.0
C1081 C 0.87588 0.11046 0.92577 0.0
C1082 C 0.8835 0.05079 0.94118 0.0
C1083 C 0.88036 0.06795 0.9584 0.0
C1084 C 0.87624 0.10677 0.95927 0.0
H1085 H 0.86324 0.99041 0.0705 0.0
H1086 H 0.8687 0.0278 0.04257 0.0
C1087 C 0.87395 0.1278 0.94314 0.0
C1088 C 0.88001 0.04511 0.97547 0.0
H1089 H 0.84513 0.01737 0.01047 0.0
C1090 C 0.90003 0.02747 0.98141 0.0
C1091 C 0.85994 0.04121 0.98599 0.0
C1092 C 0.83772 0.05834 0.97987 0.0
C1093 C 0.90063 1.0067 -0.00209 0.0
C1094 C 0.88056 1.00302 0.00849 0.0
C1095 C 0.86053 0.02046 0.00242 0.0
C1096 C 0.87966 0.98083 0.0258 0.0
C1097 C 0.92282 0.98965 0.00408 0.0
C1098 C 0.88417 0.94204 0.02568 0.0
C1099 C 0.88117 0.92057 0.04165 0.0
C1100 C 0.87337 0.93746 0.05802 0.0
C1101 C 0.86931 0.97649 0.05817 0.0
C1102 C 0.87241 0.99792 0.04221 0.0
H1103 H 0.93756 1.0035 -0.00266 0.0
H1104 H 0.92484 0.9918 0.01925 0.0
H1105 H 0.92311 0.9594 0.00028 0.0
H1106 H 0.88927 0.92809 0.01308 0.0
H1107 H 0.88425 0.89054 0.04099 0.0
H1108 H 0.16084 0.98405 0.41213 0.0
H1109 H 0.15612 0.01807 0.44124 0.0
H1110 H 0.13403 0.91588 0.46775 0.0
H1111 H 0.13858 0.88151 0.43878 0.0
H1112 H 0.11067 1.01101 0.46991 0.0
H1113 H 0.19731 0.96753 0.49249 0.0
H1114 H 0.19073 0.97448 0.46841 0.0
H1115 H 0.17936 0.93463 0.48039 0.0
C1116 C 0.15465 0.96888 0.42406 0.0
C1117 C 0.15011 0.93001 0.4231 0.0
C1118 C 0.15194 0.98839 0.44065 0.0
C1119 C 0.14475 0.96937 0.45654 0.0
C1120 C 0.13953 0.93095 0.45556 0.0
H1121 H 0.15579 0.03691 0.5712 0.0
H1122 H 0.1506 1.00097 0.54279 0.0
C1123 C 0.14214 0.91142 0.43898 0.0
C1124 C 0.14423 0.98905 0.47445 0.0
H1125 H 0.17639 1.00592 0.5126 0.0
C1126 C 0.12496 1.00994 0.47932 0.0
C1127 C 0.16285 0.98716 0.48663 0.0
C1128 C 0.18384 0.96485 0.48185 0.0
C1129 C 0.12386 0.02922 0.49621 0.0
C1130 C 0.14276 0.02813 0.50827 0.0
C1131 C 0.16191 1.00675 0.50339 0.0
C1132 C 0.14347 0.04966 0.5258 0.0
C1133 C 0.10235 0.05001 0.50108 0.0
C1134 C 0.14099 0.08898 0.52575 0.0
C1135 C 0.14371 0.10957 0.54201 0.0
C1136 C 0.14932 0.09131 0.55861 0.0
C1137 C 0.15142 0.05186 0.55868 0.0
C1138 C 0.14849 0.03127 0.54244 0.0
H1139 H 0.08749 0.03847 0.49354 0.0
H1140 H 0.09884 0.04856 0.5161 0.0
H1141 H 0.10418 0.08004 0.49714 0.0
H1142 H 0.13773 0.10394 0.51302 0.0
H1143 H 0.14227 0.13995 0.5414 0.0
H1144 H 0.13637 0.88983 0.0419 0.0
H1145 H 0.13084 0.92533 0.01339 0.0
H1146 H 0.15736 0.02502 0.03949 0.0
H1147 H 0.16284 0.98988 0.06817 0.0
H1148 H 0.11728 0.03662 0.01695 0.0
H1149 H 0.18531 0.95706 0.9807 0.0
H1150 H 0.16343 0.92909 -0.00877 0.0
H1151 H 0.18219 0.95632 0.00544 0.0
C1152 C 0.14082 0.91941 0.04168 0.0
C1153 C 0.15016 0.93695 0.05733 0.0
C1154 C 0.13775 0.93958 0.02532 0.0
C1155 C 0.14401 0.97761 0.02427 0.0
C1156 C 0.1525 0.99562 0.04003 0.0
H1157 H 0.15779 0.15329 0.94432 0.0
H1158 H 0.15207 0.11519 0.97182 0.0
C1159 C 0.15562 0.97547 0.0564 0.0
C1160 C 0.14253 0.9983 0.00657 0.0
H1161 H 0.16566 1.00281 0.96348 0.0
C1162 C 0.12777 0.02919 0.00521 0.0
C1163 C 0.15617 0.98837 -0.00872 0.0
C1164 C 0.17282 0.9561 -0.00784 0.0
C1165 C 0.12635 0.05058 0.98896 0.0
C1166 C 0.14043 0.04126 0.97382 0.0
C1167 C 0.15482 1.00984 0.97506 0.0
C1168 C 0.14176 0.06513 0.95705 0.0
C1169 C 0.10971 0.08283 0.98813 0.0
C1170 C 0.13811 0.04959 0.9395 0.0
C1171 C 0.14154 0.07131 0.92363 0.0
C1172 C 0.14885 0.10892 0.92502 0.0
C1173 C 0.152 0.12454 0.94267 0.0
C1174 C 0.14859 0.10284 0.95847 0.0
H1175 H 0.09549 0.07873 -0.00202 0.0
H1176 H 0.11855 0.10929 -0.00807 0.0
H1177 H 0.1026 0.08622 0.97406 0.0
H1178 H 0.13301 0.02043 0.93809 0.0
H1179 H 0.13908 0.05831 0.91028 0.0
H1180 H 0.89184 0.89079 0.43638 0.0
H1181 H 0.89632 0.92536 0.46532 0.0
H1182 H 0.86192 0.02097 0.44167 0.0
H1183 H 0.85736 0.98686 0.41264 0.0
H1184 H 0.91523 1.00708 0.47202 0.0
H1185 H 0.82455 0.97968 0.48912 0.0
H1186 H 0.84032 0.95068 0.47317 0.0
H1187 H 0.83079 0.99652 0.46625 0.0
C1188 C 0.88553 0.91939 0.43721 0.0
C1189 C 0.87413 0.93601 0.42221 0.0
C1190 C 0.88816 0.93907 0.45374 0.0
C1191 C 0.87933 0.9755 0.45556 0.0
C1192 C 0.86878 0.99277 0.44045 0.0
H1193 H 0.88503 0.14261 0.54158 0.0
H1194 H 0.89016 0.10635 0.51331 0.0
C1195 C 0.86624 0.97324 0.42389 0.0
C1196 C 0.87958 0.99442 0.47365 0.0
H1197 H 0.84499 0.01893 0.50934 0.0
C1198 C 0.89995 1.00967 0.48026 0.0
C1199 C 0.85964 0.99712 0.48436 0.0
C1200 C 0.83754 0.97998 0.47802 0.0
C1201 C 0.90076 0.02843 0.49729 0.0
C1202 C 0.88062 0.03215 0.50777 0.0
C1203 C 0.86039 0.01612 0.50126 0.0
C1204 C 0.87984 0.05327 0.52534 0.0
C1205 C 0.92316 0.04376 0.50399 0.0
C1206 C 0.8722 0.03551 0.54147 0.0
C1207 C 0.86905 0.0562 0.55762 0.0
C1208 C 0.87342 0.09513 0.55793 0.0
C1209 C 0.88167 0.11264 0.54187 0.0
C1210 C 0.88474 0.09191 0.52571 0.0
H1211 H 0.93773 0.02965 0.49713 0.0
H1212 H 0.92409 0.07426 0.50075 0.0
H1213 H 0.9249 0.04031 0.51913 0.0
H1214 H 0.8682 1.00573 0.54143 0.0
H1215 H 0.86264 0.04184 0.56972 0.0
H1216 H 0.4155 0.39136 0.13972 0.0
H1217 H 0.45625 0.38798 0.14625 0.0
H1218 H 0.46401 0.30268 0.10449 0.0
H1219 H 0.42341 0.30532 0.09807 0.0
H1220 H 0.49005 0.28869 0.13622 0.0
H1221 H 0.50196 0.43499 0.11042 0.0
H1222 H 0.48208 0.42956 0.129 0.0
H1223 H 0.47597 0.40915 0.10691 0.0
C1224 C 0.4258 0.37149 0.1321 0.0
C1225 C 0.41616 0.34897 0.11819 0.0
C1226 C 0.44913 0.36977 0.13578 0.0
C1227 C 0.46324 0.34564 0.12559 0.0
C1228 C 0.45347 0.32167 0.11245 0.0
H1229 H 0.60123 0.30238 0.09839 0.0
H1230 H 0.56078 0.29917 0.10523 0.0
C1231 C 0.43021 0.3233 0.10878 0.0
C1232 C 0.48833 0.3467 0.12767 0.0
H1233 H 0.53461 0.40229 0.1197 0.0
C1234 C 0.4998 0.31363 0.13278 0.0
C1235 C 0.50104 0.37926 0.12318 0.0
C1236 C 0.48974 0.41522 0.11693 0.0
C1237 C 0.52365 0.31208 0.13323 0.0
C1238 C 0.53634 0.34426 0.12813 0.0
C1239 C 0.52486 0.37768 0.12366 0.0
C1240 C 0.56141 0.34323 0.12581 0.0
C1241 C 0.535 0.27591 0.13906 0.0
C1242 C 0.57534 0.36913 0.13507 0.0
C1243 C 0.59858 0.37123 0.1311 0.0
C1244 C 0.60829 0.34771 0.11762 0.0
C1245 C 0.5944 0.32091 0.10886 0.0
C1246 C 0.57122 0.31882 0.11286 0.0
H1247 H 0.52374 0.25886 0.14808 0.0
H1248 H 0.5389 0.2589 0.12663 0.0
H1249 H 0.55113 0.28148 0.14649 0.0
H1250 H 0.5681 0.38841 0.14504 0.0
H1251 H 0.60872 0.39223 0.13811 0.0
H1252 H 0.60892 0.74287 0.60052 0.0
H1253 H 0.56833 0.7548 0.60493 0.0
H1254 H 0.56069 0.6453 0.62987 0.0
H1255 H 0.60109 0.6333 0.62576 0.0
H1256 H 0.53463 0.71246 0.58899 0.0
H1257 H 0.52414 0.71119 0.66469 0.0
H1258 H 0.55147 0.71693 0.65374 0.0
H1259 H 0.53937 0.67073 0.65656 0.0
C1260 C 0.59869 0.72162 0.60728 0.0
C1261 C 0.60827 0.68702 0.6127 0.0
C1262 C 0.57549 0.72849 0.60977 0.0
C1263 C 0.56151 0.70114 0.61793 0.0
C1264 C 0.57119 0.66717 0.62392 0.0
H1265 H 0.42524 0.62928 0.62404 0.0
H1266 H 0.46564 0.64239 0.62762 0.0
C1267 C 0.59432 0.66023 0.6214 0.0
C1268 C 0.5365 0.70608 0.61845 0.0
H1269 H 0.49042 0.69888 0.64679 0.0
C1270 C 0.52495 0.71031 0.60166 0.0
C1271 C 0.52392 0.7032 0.63499 0.0
C1272 C 0.53538 0.70065 0.65353 0.0
C1273 C 0.50115 0.70945 0.60084 0.0
C1274 C 0.48857 0.70489 0.61731 0.0
C1275 C 0.5001 0.7023 0.63419 0.0
C1276 C 0.46363 0.69923 0.61702 0.0
C1277 C 0.48971 0.71127 0.58224 0.0
C1278 C 0.44895 0.72731 0.61042 0.0
C1279 C 0.42575 0.71988 0.60829 0.0
C1280 C 0.41687 0.68422 0.61276 0.0
C1281 C 0.43149 0.65692 0.6203 0.0
C1282 C 0.45462 0.66439 0.62241 0.0
H1283 H 0.50197 0.7078 0.57074 0.0
H1284 H 0.47648 0.68913 0.58106 0.0
H1285 H 0.48131 0.73904 0.58064 0.0
H1286 H 0.45552 0.75463 0.60649 0.0
H1287 H 0.41496 0.74166 0.60259 0.0
H1288 H 0.60122 0.63114 0.85539 0.0
H1289 H 0.56068 0.64275 0.85183 0.0
H1290 H 0.56832 0.7518 0.87715 0.0
H1291 H 0.60905 0.74025 0.88101 0.0
H1292 H 0.53478 0.70894 0.89317 0.0
H1293 H 0.52363 0.70909 0.81752 0.0
H1294 H 0.53895 0.66855 0.82546 0.0
H1295 H 0.55104 0.71472 0.82832 0.0
C1296 C 0.59441 0.65789 0.85996 0.0
C1297 C 0.60843 0.68467 0.86858 0.0
C1298 C 0.5712 0.66461 0.85776 0.0
C1299 C 0.56147 0.69834 0.864 0.0
C1300 C 0.5755 0.72567 0.87212 0.0
H1301 H 0.4152 0.74129 0.88009 0.0
H1302 H 0.45596 0.75287 0.87646 0.0
C1303 C 0.59879 0.71902 0.87428 0.0
C1304 C 0.53642 0.70316 0.86368 0.0
H1305 H 0.49006 0.69709 0.83557 0.0
C1306 C 0.52499 0.70711 0.88055 0.0
C1307 C 0.52367 0.70069 0.84721 0.0
C1308 C 0.53497 0.69841 0.82859 0.0
C1309 C 0.50118 0.70653 0.8815 0.0
C1310 C 0.48843 0.70254 0.86508 0.0
C1311 C 0.49984 0.70007 0.84814 0.0
C1312 C 0.46341 0.69763 0.86544 0.0
C1313 C 0.4899 0.70813 0.90016 0.0
C1314 C 0.45393 0.66336 0.85971 0.0
C1315 C 0.43068 0.65671 0.86166 0.0
C1316 C 0.41636 0.68426 0.86936 0.0
C1317 C 0.42573 0.71933 0.87424 0.0
C1318 C 0.44905 0.72595 0.87227 0.0
H1319 H 0.5022 0.70389 0.91158 0.0
H1320 H 0.48186 0.73614 0.902 0.0
H1321 H 0.47641 0.68641 0.90127 0.0
H1322 H 0.46467 0.64119 0.85431 0.0
H1323 H 0.42407 0.6295 0.85761 0.0
H1324 H 0.6113 0.29253 0.35837 0.0
H1325 H 0.57075 0.28263 0.35204 0.0
H1326 H 0.55713 0.39796 0.36719 0.0
H1327 H 0.59735 0.40843 0.37233 0.0
H1328 H 0.53593 0.28284 0.37226 0.0
H1329 H 0.52088 0.39565 0.32205 0.0
H1330 H 0.54919 0.38246 0.32895 0.0
H1331 H 0.53316 0.41649 0.34213 0.0
C1332 C 0.59961 0.31584 0.36002 0.0
C1333 C 0.60755 0.35137 0.36559 0.0
C1334 C 0.57645 0.3102 0.35642 0.0
C1335 C 0.56079 0.33985 0.35859 0.0
C1336 C 0.5688 0.37504 0.36455 0.0
H1337 H 0.42523 0.32915 0.39623 0.0
H1338 H 0.4656 0.32255 0.39029 0.0
C1339 C 0.59188 0.3809 0.36769 0.0
C1340 C 0.53592 0.33378 0.35606 0.0
H1341 H 0.488 0.37789 0.34074 0.0
C1342 C 0.52552 0.30324 0.36502 0.0
C1343 C 0.52213 0.35939 0.34608 0.0
C1344 C 0.53203 0.38999 0.33409 0.0
C1345 C 0.50179 0.29927 0.36542 0.0
C1346 C 0.48795 0.32765 0.35747 0.0
C1347 C 0.49839 0.35656 0.34732 0.0
C1348 C 0.46294 0.32961 0.3607 0.0
C1349 C 0.49195 0.26461 0.37443 0.0
C1350 C 0.44776 0.33751 0.3462 0.0
C1351 C 0.42455 0.34274 0.34971 0.0
C1352 C 0.41604 0.33952 0.36774 0.0
C1353 C 0.43117 0.33106 0.38213 0.0
C1354 C 0.45433 0.32687 0.3787 0.0
H1355 H 0.50332 0.23998 0.37243 0.0
H1356 H 0.49048 0.26941 0.38949 0.0
H1357 H 0.47495 0.25754 0.36881 0.0
H1358 H 0.4539 0.34014 0.33219 0.0
H1359 H 0.41329 0.34936 0.33837 0.0
H1360 H 0.9153 0.78706 0.0998 0.0
H1361 H 0.95603 0.77568 0.10386 0.0
H1362 H 0.9635 0.88555 0.12836 0.0
H1363 H 0.92299 0.89699 0.12459 0.0
H1364 H 0.98973 0.81794 0.08769 0.0
H1365 H 1.00026 0.82041 0.16338 0.0
H1366 H 0.97294 0.81442 0.15248 0.0
H1367 H 0.98501 0.86069 0.15505 0.0
C1368 C 0.92553 0.80851 0.10638 0.0
C1369 C 0.91584 0.84302 0.1118 0.0
C1370 C 0.94882 0.80197 0.10867 0.0
C1371 C 0.96279 0.82956 0.11662 0.0
C1372 C 0.95302 0.86349 0.12256 0.0
H1373 H 0.09993 0.89946 0.12303 0.0
H1374 H 0.05935 0.8875 0.12629 0.0
C1375 C 0.92982 0.8701 0.12024 0.0
C1376 C 0.98785 0.82477 0.11711 0.0
H1377 H 0.03398 0.83204 0.14542 0.0
C1378 C 0.99942 0.82025 0.10034 0.0
C1379 C 1.00046 0.82785 0.13363 0.0
C1380 C 0.98901 0.83073 0.15217 0.0
C1381 C 0.02324 0.8209 0.09952 0.0
C1382 C 0.03585 0.82555 0.11596 0.0
C1383 C 0.0243 0.82855 0.13282 0.0
C1384 C 0.06087 0.83065 0.11569 0.0
C1385 C 0.03468 0.81867 0.08093 0.0
C1386 C 0.07536 0.8022 0.10919 0.0
C1387 C 0.09868 0.80896 0.10726 0.0
C1388 C 0.1079 0.84432 0.11183 0.0
C1389 C 0.09344 0.87202 0.11922 0.0
C1390 C 0.0702 0.86522 0.12115 0.0
H1391 H 0.02246 0.82236 0.06942 0.0
H1392 H 0.0481 0.84047 0.07969 0.0
H1393 H 0.04283 0.79068 0.0794 0.0
H1394 H 0.06857 0.77507 0.10522 0.0
H1395 H 0.10932 0.78689 0.10165 0.0
H1396 H 0.91696 0.23978 0.59879 0.0
H1397 H 0.95816 0.24745 0.60206 0.0
H1398 H 0.9619 0.14187 0.63123 0.0
H1399 H 0.92097 0.13375 0.62793 0.0
H1400 H 0.99004 0.24452 0.634 0.0
H1401 H 1.00105 0.1283 0.58362 0.0
H1402 H 0.97443 0.15274 0.58663 0.0
H1403 H 0.98297 0.11706 0.60278 0.0
C1404 C 0.92649 0.21853 0.60619 0.0
C1405 C 0.91573 0.18583 0.61283 0.0
C1406 C 0.95002 0.22299 0.60805 0.0
C1407 C 0.96306 0.1949 0.6166 0.0
C1408 C 0.95214 0.16358 0.62433 0.0
H1409 H 0.10202 0.12956 0.62774 0.0
H1410 H 0.06122 0.1393 0.63091 0.0
C1411 C 0.92874 0.15901 0.62243 0.0
C1412 C 0.98818 0.1963 0.61611 0.0
H1413 H 0.03407 0.14897 0.59921 0.0
C1414 C 0.99974 0.22387 0.62631 0.0
C1415 C 1.00072 0.16949 0.60592 0.0
C1416 C 0.98922 0.14041 0.59397 0.0
C1417 C 0.02362 0.22431 0.62714 0.0
C1418 C 0.03608 0.19672 0.61739 0.0
C1419 C 0.02446 0.16986 0.60683 0.0
C1420 C 0.06119 0.19425 0.61805 0.0
C1421 C 0.03535 0.25345 0.63886 0.0
C1422 C 0.07483 0.22237 0.61015 0.0
C1423 C 0.09828 0.21691 0.60831 0.0
C1424 C 0.1084 0.18304 0.61419 0.0
C1425 C 0.09479 0.15584 0.62293 0.0
C1426 C 0.07145 0.16136 0.62479 0.0
H1427 H 0.02335 0.26791 0.64831 0.0
H1428 H 0.0491 0.24034 0.64713 0.0
H1429 H 0.04318 0.27498 0.62977 0.0
H1430 H 0.06721 0.24772 0.60461 0.0
H1431 H 0.10825 0.2384 0.60149 0.0
H1432 H 0.10903 0.13681 0.84187 0.0
H1433 H 0.0683 0.14099 0.83537 0.0
H1434 H 0.06159 0.22868 0.87606 0.0
H1435 H 0.10212 0.22515 0.88246 0.0
H1436 H 0.03505 0.12627 0.86077 0.0
H1437 H 0.02411 0.27098 0.83402 0.0
H1438 H 0.05149 0.24818 0.83518 0.0
H1439 H 0.03948 0.26997 0.85534 0.0
C1440 C 0.09898 0.15756 0.84916 0.0
C1441 C 0.1089 0.18055 0.86275 0.0
C1442 C 0.07568 0.15985 0.84544 0.0
C1443 C 0.0619 0.18544 0.85507 0.0
C1444 C 0.07191 0.2093 0.86815 0.0
H1445 H 0.92389 0.22253 0.88396 0.0
H1446 H 0.96452 0.22528 0.8776 0.0
C1447 C 0.09513 0.20701 0.8719 0.0
C1448 C 0.0368 0.18466 0.85295 0.0
H1449 H 0.99051 0.24085 0.84586 0.0
C1450 C 0.0253 0.15112 0.85716 0.0
C1451 C 0.02409 0.21715 0.84832 0.0
C1452 C 0.03544 0.2535 0.84278 0.0
C1453 C 1.00149 0.14965 0.8578 0.0
C1454 C 0.98878 0.18249 0.85378 0.0
C1455 C 1.00025 0.21572 0.84895 0.0
C1456 C 0.9637 0.18351 0.85593 0.0
C1457 C 0.99018 0.11347 0.86373 0.0
C1458 C 0.94956 0.16003 0.84543 0.0
C1459 C 0.92623 0.15826 0.84907 0.0
C1460 C 0.9166 0.18009 0.86325 0.0
C1461 C 0.93068 0.20511 0.87302 0.0
C1462 C 0.95396 0.2068 0.86939 0.0
H1463 H 1.00243 0.09336 0.86995 0.0
H1464 H 0.97649 0.11915 0.87387 0.0
H1465 H 0.98242 0.09973 0.85154 0.0
H1466 H 0.95666 0.14237 0.83472 0.0
H1467 H 0.91591 0.13891 0.84116 0.0
H1468 H 0.10837 0.78357 0.378 0.0
H1469 H 0.06766 0.77259 0.37366 0.0
H1470 H 0.06029 0.88423 0.35105 0.0
H1471 H 0.1008 0.89531 0.35511 0.0
H1472 H 0.03414 0.81413 0.39064 0.0
H1473 H 0.0233 0.8216 0.31505 0.0
H1474 H 0.05064 0.81458 0.32578 0.0
H1475 H 0.03873 0.86112 0.32397 0.0
C1476 C 0.09818 0.80552 0.37175 0.0
C1477 C 0.10787 0.84041 0.36698 0.0
C1478 C 0.0749 0.79919 0.36931 0.0
C1479 C 0.06096 0.82741 0.36183 0.0
C1480 C 0.07075 0.86173 0.35648 0.0
H1481 H 0.92417 0.89903 0.35671 0.0
H1482 H 0.96465 0.88666 0.3531 0.0
C1483 C 0.09394 0.86812 0.35896 0.0
C1484 C 0.0359 0.82279 0.36133 0.0
H1485 H 0.98969 0.83222 0.33327 0.0
C1486 C 0.0244 0.81731 0.37806 0.0
C1487 C 0.02324 0.82702 0.34489 0.0
C1488 C 0.03462 0.83103 0.32638 0.0
C1489 C 1.00059 0.81813 0.37897 0.0
C1490 C 0.98793 0.82391 0.36263 0.0
C1491 C 0.99941 0.82785 0.34578 0.0
C1492 C 0.96294 0.82932 0.36306 0.0
C1493 C 0.98924 0.8149 0.39755 0.0
C1494 C 0.94836 0.80076 0.36931 0.0
C1495 C 0.92511 0.80777 0.37147 0.0
C1496 C 0.91603 0.84348 0.36736 0.0
C1497 C 0.93056 0.87132 0.36018 0.0
C1498 C 0.95374 0.86428 0.35804 0.0
H1499 H 1.00153 0.81784 0.40907 0.0
H1500 H 0.97586 0.8367 0.39913 0.0
H1501 H 0.98106 0.78687 0.39875 0.0
H1502 H 0.95505 0.77333 0.37293 0.0
H1503 H 0.91441 0.78558 0.37689 0.0
H1504 H 0.26786 0.3326 0.06503 0.0
H1505 H 0.25015 0.30823 0.03667 0.0
H1506 H 0.3163 0.29597 0.01192 0.0
H1507 H 0.33394 0.31968 0.03998 0.0
H1508 H 0.25423 0.33068 -0.00215 0.0
H1509 H 0.28908 0.1881 0.01185 0.0
H1510 H 0.28763 0.22434 0.02926 0.0
H1511 H 0.30971 0.22531 0.01218 0.0
C1512 C 0.27848 0.32536 0.05337 0.0
C1513 C 0.30222 0.3274 0.05471 0.0
C1514 C 0.26842 0.31132 0.03728 0.0
C1515 C 0.28205 0.29943 0.02248 0.0
C1516 C 0.30559 0.30411 0.02339 0.0
H1517 H 0.25746 0.19625 0.91527 0.0
H1518 H 0.27561 0.22059 0.94346 0.0
C1519 C 0.31559 0.31778 0.03938 0.0
C1520 C 0.27201 0.28065 0.00628 0.0
H1521 H 0.27195 0.19753 0.9826 0.0
C1522 C 0.25796 0.30154 -0.00545 0.0
C1523 C 0.27711 0.24267 0.00202 0.0
C1524 C 0.29155 0.21861 0.01455 0.0
C1525 C 0.24909 0.28555 0.97843 0.0
C1526 C 0.25417 0.24756 0.97418 0.0
C1527 C 0.26825 0.22669 0.9859 0.0
C1528 C 0.24395 0.22871 0.95809 0.0
C1529 C 0.23458 0.30953 0.96593 0.0
C1530 C 0.22042 0.22365 0.95749 0.0
C1531 C 0.21017 0.20995 0.94161 0.0
C1532 C 0.22328 0.20072 0.92607 0.0
C1533 C 0.24703 0.20315 0.92709 0.0
C1534 C 0.25734 0.21719 0.94308 0.0
H1535 H 0.23697 0.34006 0.96864 0.0
H1536 H 0.23851 0.30385 0.95122 0.0
H1537 H 0.21644 0.30268 0.9683 0.0
H1538 H 0.2099 0.23156 0.96912 0.0
H1539 H 0.19183 0.20779 0.94126 0.0
H1540 H 0.77308 0.80968 0.41214 0.0
H1541 H 0.75467 0.78324 0.43942 0.0
H1542 H 0.80837 0.82688 0.47366 0.0
H1543 H 0.82705 0.8531 0.4465 0.0
H1544 H 0.8006 0.74958 0.47794 0.0
H1545 H 0.7204 0.83131 0.48263 0.0
H1546 H 0.72593 0.81128 0.46036 0.0
H1547 H 0.74445 0.84708 0.46927 0.0
C1548 C 0.78071 0.8144 0.42551 0.0
C1549 C 0.8016 0.83325 0.42715 0.0
C1550 C 0.77015 0.79932 0.44109 0.0
C1551 C 0.78016 0.80325 0.45851 0.0
C1552 C 0.80044 0.82354 0.46029 0.0
H1553 H 0.75097 0.71957 0.56781 0.0
H1554 H 0.76935 0.74527 0.54035 0.0
C1555 C 0.81104 0.83853 0.44476 0.0
C1556 C 0.77057 0.78359 0.47466 0.0
H1557 H 0.72353 0.77742 0.50184 0.0
C1558 C 0.7838 0.75576 0.48325 0.0
C1559 C 0.74862 0.79165 0.48141 0.0
C1560 C 0.73406 0.82218 0.47307 0.0
C1561 C 0.77551 0.73538 0.49837 0.0
C1562 C 0.75358 0.74347 0.50512 0.0
C1563 C 0.74033 0.77124 0.49651 0.0
C1564 C 0.74408 0.72406 0.52137 0.0
C1565 C 0.79009 0.70494 0.50677 0.0
C1566 C 0.72398 0.70329 0.5197 0.0
C1567 C 0.71341 0.68865 0.53533 0.0
C1568 C 0.7227 0.69483 0.55293 0.0
C1569 C 0.74344 0.71416 0.55446 0.0
C1570 C 0.75399 0.72883 0.53879 0.0
H1571 H 0.80385 0.69593 0.49728 0.0
H1572 H 0.79807 0.71586 0.51954 0.0
H1573 H 0.77972 0.67997 0.51049 0.0
H1574 H 0.71613 0.69933 0.50634 0.0
H1575 H 0.69752 0.6737 0.53367 0.0
H1576 H 0.25068 0.80865 0.06808 0.0
H1577 H 0.26898 0.78205 0.0408 0.0
H1578 H 0.21667 0.82968 0.00634 0.0
H1579 H 0.19812 0.85611 0.0335 0.0
H1580 H 0.22294 0.75157 0.00207 0.0
H1581 H 0.30455 0.82947 -0.00212 0.0
H1582 H 0.29833 0.80976 0.02012 0.0
H1583 H 0.28059 0.84646 0.01099 0.0
C1584 C 0.24336 0.81425 0.05466 0.0
C1585 C 0.22287 0.83424 0.05294 0.0
C1586 C 0.25386 0.79906 0.0391 0.0
C1587 C 0.24416 0.80405 0.02162 0.0
C1588 C 0.22435 0.82554 0.01976 0.0
H1589 H 0.27313 0.71968 0.9125 0.0
H1590 H 0.25466 0.74582 0.93981 0.0
C1591 C 0.21381 0.84063 0.03528 0.0
C1592 C 0.2535 0.78415 0.0055 0.0
H1593 H 0.3006 0.77598 0.97856 0.0
C1594 C 0.23987 0.75699 -0.00316 0.0
C1595 C 0.2756 0.79127 -0.00114 0.0
C1596 C 0.29059 0.82104 0.00732 0.0
C1597 C 0.24794 0.73629 0.98177 0.0
C1598 C 0.27004 0.74341 0.97514 0.0
C1599 C 0.28367 0.77056 0.9838 0.0
C1600 C 0.27939 0.72356 0.959 0.0
C1601 C 0.23294 0.70655 0.97329 0.0
C1602 C 0.29917 0.70201 0.96085 0.0
C1603 C 0.30979 0.68716 0.94532 0.0
C1604 C 0.30086 0.69388 0.92765 0.0
C1605 C 0.28037 0.71387 0.92593 0.0
C1606 C 0.26977 0.72879 0.9415 0.0
H1607 H 0.21894 0.69818 0.98269 0.0
H1608 H 0.22528 0.71782 0.96046 0.0
H1609 H 0.24294 0.6811 0.96965 0.0
H1610 H 0.30678 0.69769 0.97429 0.0
H1611 H 0.32548 0.67165 0.94712 0.0
H1612 H 0.77276 0.22494 0.56872 0.0
H1613 H 0.75395 0.25013 0.54129 0.0
H1614 H 0.8066 0.20314 0.507 0.0
H1615 H 0.82561 0.17813 0.53425 0.0
H1616 H 0.79899 0.28041 0.50148 0.0
H1617 H 0.71853 0.19893 0.49936 0.0
H1618 H 0.72479 0.22056 0.52115 0.0
H1619 H 0.74289 0.18384 0.51256 0.0
C1620 C 0.78008 0.21927 0.55532 0.0
C1621 C 0.80074 0.19973 0.55368 0.0
C1622 C 0.7693 0.23365 0.53966 0.0
C1623 C 0.77889 0.22835 0.52215 0.0
C1624 C 0.79898 0.20754 0.52041 0.0
H1625 H 0.74932 0.30586 0.41145 0.0
H1626 H 0.76741 0.28053 0.43915 0.0
C1627 C 0.80978 0.19326 0.53601 0.0
C1628 C 0.769 0.24684 0.50576 0.0
H1629 H 0.7217 0.25049 0.47876 0.0
C1630 C 0.78213 0.2738 0.49644 0.0
C1631 C 0.74698 0.23821 0.49934 0.0
C1632 C 0.7325 0.20858 0.5085 0.0
C1633 C 0.77369 0.29275 0.48093 0.0
C1634 C 0.75171 0.28402 0.47446 0.0
C1635 C 0.73855 0.25714 0.48381 0.0
C1636 C 0.74199 0.30216 0.4579 0.0
C1637 C 0.78818 0.32244 0.47182 0.0
C1638 C 0.72179 0.32279 0.45932 0.0
C1639 C 0.71137 0.33714 0.44355 0.0
C1640 C 0.72093 0.33093 0.42604 0.0
C1641 C 0.74162 0.31138 0.42473 0.0
C1642 C 0.752 0.29692 0.44054 0.0
H1643 H 0.80188 0.33252 0.48111 0.0
H1644 H 0.79627 0.3103 0.45935 0.0
H1645 H 0.77775 0.34693 0.46747 0.0
H1646 H 0.71383 0.32713 0.47261 0.0
H1647 H 0.6955 0.35223 0.44506 0.0
H1648 H 0.82555 0.8543 0.03345 0.0
H1649 H 0.80688 0.82761 0.00643 0.0
H1650 H 0.75423 0.78167 0.04109 0.0
H1651 H 0.77264 0.80852 0.06824 0.0
H1652 H 0.80032 0.74933 0.00284 0.0
H1653 H 0.71907 0.82821 -0.00231 0.0
H1654 H 0.74304 0.84536 0.01073 0.0
H1655 H 0.72513 0.80918 0.02011 0.0
C1656 C 0.80975 0.83916 0.03531 0.0
C1657 C 0.80065 0.83324 0.053 0.0
C1658 C 0.79915 0.82393 0.01987 0.0
C1659 C 0.77923 0.80279 0.02183 0.0
C1660 C 0.76945 0.79839 0.03932 0.0
H1661 H 0.69799 0.67033 0.9472 0.0
H1662 H 0.71644 0.69607 0.97454 0.0
C1663 C 0.78002 0.8137 0.0548 0.0
C1664 C 0.7699 0.78249 0.00584 0.0
H1665 H 0.72301 0.77426 0.9787 0.0
C1666 C 0.78346 0.75485 -0.00253 0.0
C1667 C 0.74788 0.78972 -0.00095 0.0
C1668 C 0.73296 0.81994 0.00723 0.0
C1669 C 0.77543 0.73384 0.98251 0.0
C1670 C 0.75344 0.74114 0.97568 0.0
C1671 C 0.73985 0.7687 0.98409 0.0
C1672 C 0.74426 0.72128 0.95951 0.0
C1673 C 0.79036 0.70365 0.97432 0.0
C1674 C 0.7542 0.72622 0.94212 0.0
C1675 C 0.74376 0.71148 0.92645 0.0
C1676 C 0.72309 0.69197 0.92797 0.0
C1677 C 0.71382 0.68546 0.94555 0.0
C1678 C 0.7243 0.70014 0.96119 0.0
H1679 H 0.80412 0.69514 0.98392 0.0
H1680 H 0.78026 0.67834 0.97065 0.0
H1681 H 0.79836 0.71456 0.96154 0.0
H1682 H 0.76945 0.74295 0.94057 0.0
H1683 H 0.75127 0.71711 0.91311 0.0
H1684 H 0.19351 0.17852 0.53382 0.0
H1685 H 0.2105 0.20643 0.50638 0.0
H1686 H 0.26739 0.24472 0.53868 0.0
H1687 H 0.25047 0.21696 0.56639 0.0
H1688 H 0.22142 0.28671 0.50376 0.0
H1689 H 0.2954 0.19217 0.4922 0.0
H1690 H 0.27105 0.17815 0.50569 0.0
H1691 H 0.29172 0.20966 0.51527 0.0
C1692 C 0.20981 0.19239 0.53511 0.0
C1693 C 0.22059 0.19571 0.55234 0.0
C1694 C 0.21942 0.2084 0.5194 0.0
C1695 C 0.2401 0.22763 0.52057 0.0
C1696 C 0.25145 0.22969 0.53754 0.0
H1697 H 0.32554 0.33961 0.44214 0.0
H1698 H 0.30663 0.31824 0.47018 0.0
C1699 C 0.2418 0.21375 0.55333 0.0
C1700 C 0.24914 0.24715 0.50418 0.0
H1701 H 0.29275 0.24619 0.4734 0.0
C1702 C 0.237 0.27793 0.49705 0.0
C1703 C 0.2694 0.23546 0.49557 0.0
C1704 C 0.28264 0.20189 0.50243 0.0
C1705 C 0.24492 0.29793 0.48165 0.0
C1706 C 0.26522 0.28623 0.47301 0.0
C1707 C 0.27722 0.25522 0.4801 0.0
C1708 C 0.27474 0.3057 0.45671 0.0
C1709 C 0.2318 0.33183 0.47504 0.0
C1710 C 0.26276 0.30722 0.43996 0.0
C1711 C 0.27347 0.3202 0.42393 0.0
C1712 C 0.29635 0.33104 0.42452 0.0
C1713 C 0.30785 0.3314 0.44144 0.0
C1714 C 0.29711 0.31907 0.45741 0.0
H1715 H 0.22029 0.3429 0.48589 0.0
H1716 H 0.24344 0.35472 0.47064 0.0
H1717 H 0.22125 0.32368 0.46303 0.0
H1718 H 0.24562 0.29638 0.43905 0.0
H1719 H 0.26446 0.31916 0.41093 0.0
H1720 H 0.756 0.33347 0.06351 0.0
H1721 H 0.77401 0.31073 0.03497 0.0
H1722 H 0.70795 0.29476 0.01056 0.0
H1723 H 0.69004 0.31732 0.03871 0.0
H1724 H 0.76469 0.23644 0.02077 0.0
H1725 H 0.74434 0.34786 0.96969 0.0
H1726 H 0.74379 0.35609 -0.00575 0.0
H1727 H 0.72051 0.33251 0.98318 0.0
C1728 C 0.74545 0.32598 0.05185 0.0
C1729 C 0.7217 0.32685 0.05327 0.0
C1730 C 0.75568 0.31288 0.03565 0.0
C1731 C 0.74225 0.30134 0.02069 0.0
C1732 C 0.7186 0.30403 0.02185 0.0
H1733 H 0.76733 0.19364 0.9146 0.0
H1734 H 0.74852 0.21575 0.94292 0.0
C1735 C 0.70842 0.31668 0.03798 0.0
C1736 C 0.75252 0.28296 0.00448 0.0
H1737 H 0.75698 0.28907 0.95773 0.0
C1738 C 0.76322 0.24805 0.00699 0.0
C1739 C 0.75013 0.29797 0.98655 0.0
C1740 C 0.73924 0.33582 0.9832 0.0
C1741 C 0.77147 0.22747 -0.00806 0.0
C1742 C 0.7692 0.24256 0.97402 0.0
C1743 C 0.75841 0.27741 0.9715 0.0
C1744 C 0.77987 0.22453 0.95788 0.0
C1745 C 0.7823 0.18957 -0.00468 0.0
C1746 C 0.80354 0.22172 0.95716 0.0
C1747 C 0.81417 0.20939 0.94116 0.0
C1748 C 0.80133 0.19971 0.92556 0.0
C1749 C 0.77754 0.20074 0.92651 0.0
C1750 C 0.76685 0.21349 0.94258 0.0
H1751 H 0.77672 0.17722 0.00864 0.0
H1752 H 0.77818 0.16952 0.98406 0.0
H1753 H 0.80101 0.19296 -0.00416 0.0
H1754 H 0.81388 0.23065 0.9687 0.0
H1755 H 0.83255 0.20864 0.94079 0.0
H1756 H 0.2503 0.80219 0.41172 0.0
H1757 H 0.26854 0.77501 0.43898 0.0
H1758 H 0.21535 0.81991 0.47336 0.0
H1759 H 0.19691 0.84704 0.44631 0.0
H1760 H 0.28305 0.80882 0.47345 0.0
H1761 H 0.21377 0.70404 0.48215 0.0
H1762 H 0.2179 0.73023 0.46107 0.0
H1763 H 0.2047 0.75226 0.4806 0.0
C1764 C 0.24268 0.80683 0.42512 0.0
C1765 C 0.22201 0.82633 0.42684 0.0
C1766 C 0.25308 0.79117 0.44063 0.0
C1767 C 0.24294 0.79482 0.45802 0.0
C1768 C 0.2231 0.81617 0.45995 0.0
H1769 H 0.27406 0.71566 0.56767 0.0
H1770 H 0.25577 0.74121 0.54007 0.0
C1771 C 0.21268 0.83176 0.44449 0.0
C1772 C 0.25267 0.77526 0.4741 0.0
H1773 H 0.24159 0.70645 0.50571 0.0
C1774 C 0.27409 0.78633 0.48047 0.0
C1775 C 0.24082 0.74595 0.48315 0.0
C1776 C 0.2181 0.73209 0.47635 0.0
C1777 C 0.28384 0.76927 0.49599 0.0
C1778 C 0.27197 0.74002 0.50506 0.0
C1779 C 0.25057 0.7289 0.49866 0.0
C1780 C 0.28156 0.7209 0.52132 0.0
C1781 C 0.30655 0.78319 0.50279 0.0
C1782 C 0.30152 0.69973 0.51968 0.0
C1783 C 0.31198 0.6851 0.53535 0.0
C1784 C 0.30257 0.69132 0.55291 0.0
C1785 C 0.28175 0.71046 0.55435 0.0
C1786 C 0.27132 0.72517 0.53863 0.0
H1787 H 0.31094 0.81113 0.49689 0.0
H1788 H 0.30668 0.78533 0.51805 0.0
H1789 H 0.31995 0.76291 0.49866 0.0
H1790 H 0.30936 0.69552 0.50634 0.0
H1791 H 0.32786 0.67005 0.53375 0.0
H1792 H 0.31035 0.33196 0.16428 0.0
H1793 H 0.31058 0.33218 0.19795 0.0
H1794 H 0.3544 0.42939 0.19773 0.0
H1795 H 0.3541 0.42978 0.16405 0.0
H1796 H 0.34846 0.32539 0.22108 0.0
H1797 H 0.30317 0.46044 0.23288 0.0
H1798 H 0.30295 0.4366 0.21091 0.0
H1799 H 0.32724 0.46375 0.21778 0.0
C1800 C 0.31989 0.35363 0.17136 0.0
C1801 C 0.3321 0.38101 0.16143 0.0
C1802 C 0.32002 0.35364 0.1906 0.0
C1803 C 0.33225 0.38109 0.2003 0.0
C1804 C 0.34448 0.40842 0.19049 0.0
H1805 H 0.35734 0.42253 0.31633 0.0
H1806 H 0.35709 0.42361 0.28265 0.0
C1807 C 0.34436 0.40847 0.17123 0.0
C1808 C 0.33286 0.38021 0.22069 0.0
H1809 H 0.31941 0.43099 0.25909 0.0
C1810 C 0.34203 0.34838 0.22941 0.0
C1811 C 0.32452 0.41034 0.23148 0.0
C1812 C 0.31372 0.44461 0.22283 0.0
C1813 C 0.34337 0.34607 0.24868 0.0
C1814 C 0.33496 0.37613 0.25947 0.0
C1815 C 0.32586 0.40802 0.25075 0.0
C1816 C 0.3353 0.37495 0.27986 0.0
C1817 C 0.35419 0.3118 0.25731 0.0
C1818 C 0.32296 0.34739 0.28942 0.0
C1819 C 0.32307 0.34662 0.30867 0.0
C1820 C 0.3354 0.37361 0.31872 0.0
C1821 C 0.34767 0.4013 0.30905 0.0
C1822 C 0.34754 0.40201 0.2898 0.0
H1823 H 0.3649 0.29618 0.2473 0.0
H1824 H 0.36481 0.31976 0.26933 0.0
H1825 H 0.34067 0.29248 0.26221 0.0
H1826 H 0.31306 0.32667 0.282 0.0
H1827 H 0.31337 0.32498 0.31565 0.0
H1828 H 0.6527 0.64215 0.81465 0.0
H1829 H 0.65428 0.64689 0.7811 0.0
H1830 H 0.72504 0.67729 0.78409 0.0
H1831 H 0.72378 0.67225 0.81767 0.0
H1832 H 0.66681 0.7095 0.75881 0.0
H1833 H 0.72388 0.58638 0.74871 0.0
H1834 H 0.70909 0.59492 0.77009 0.0
H1835 H 0.73401 0.62166 0.76442 0.0
C1836 C 0.66864 0.64979 0.80821 0.0
C1837 C 0.68819 0.65645 0.81884 0.0
C1838 C 0.66947 0.65257 0.78904 0.0
C1839 C 0.68984 0.66191 0.78018 0.0
C1840 C 0.70926 0.66938 0.79071 0.0
H1841 H 0.72337 0.6735 0.66345 0.0
H1842 H 0.72448 0.67849 0.69704 0.0
C1843 C 0.70847 0.66661 0.80989 0.0
C1844 C 0.69068 0.66362 0.75986 0.0
H1845 H 0.71382 0.62098 0.72218 0.0
C1846 C 0.67711 0.69023 0.75077 0.0
C1847 C 0.7042 0.63845 0.7495 0.0
C1848 C 0.71851 0.6085 0.75861 0.0
C1849 C 0.67667 0.69234 0.73148 0.0
C1850 C 0.68988 0.66674 0.72111 0.0
C1851 C 0.70375 0.64057 0.73022 0.0
C1852 C 0.6889 0.66558 0.70079 0.0
C1853 C 0.66222 0.72208 0.72236 0.0
C1854 C 0.66854 0.65644 0.69186 0.0
C1855 C 0.66782 0.65351 0.6727 0.0
C1856 C 0.68753 0.65941 0.66214 0.0
C1857 C 0.70789 0.66875 0.67116 0.0
C1858 C 0.70858 0.67164 0.69034 0.0
H1859 H 0.65826 0.74556 0.73195 0.0
H1860 H 0.67078 0.73375 0.70998 0.0
H1861 H 0.64593 0.70928 0.71794 0.0
H1862 H 0.65328 0.65092 0.69974 0.0
H1863 H 0.65186 0.64624 0.66621 0.0
H1864 H 0.30112 0.6673 0.81711 0.0
H1865 H 0.30013 0.66836 0.78341 0.0
H1866 H 0.3718 0.64394 0.78171 0.0
H1867 H 0.37299 0.64238 0.81532 0.0
H1868 H 0.32519 0.71318 0.75812 0.0
H1869 H 0.34329 0.56071 0.7498 0.0
H1870 H 0.33453 0.58095 0.77148 0.0
H1871 H 0.36346 0.58529 0.7639 0.0
C1872 C 0.31669 0.66216 0.80958 0.0
C1873 C 0.33709 0.65432 0.81892 0.0
C1874 C 0.31608 0.66284 0.79034 0.0
C1875 C 0.3358 0.65557 0.78013 0.0
C1876 C 0.3563 0.64883 0.78937 0.0
H1877 H 0.37307 0.63988 0.66589 0.0
H1878 H 0.37158 0.64342 0.69945 0.0
C1879 C 0.35694 0.64809 0.80859 0.0
C1880 C 0.33501 0.65488 0.75979 0.0
H1881 H 0.34455 0.59812 0.72268 0.0
C1882 C 0.32926 0.68802 0.75033 0.0
C1883 C 0.34027 0.62191 0.74975 0.0
C1884 C 0.34554 0.58508 0.75922 0.0
C1885 C 0.3293 0.68934 0.731 0.0
C1886 C 0.33492 0.65651 0.72098 0.0
C1887 C 0.34035 0.62327 0.73045 0.0
C1888 C 0.33569 0.65603 0.70063 0.0
C1889 C 0.32396 0.72605 0.72146 0.0
C1890 C 0.31594 0.66184 0.69022 0.0
C1891 C 0.3167 0.65982 0.671 0.0
C1892 C 0.33721 0.6517 0.6619 0.0
C1893 C 0.35697 0.64609 0.67243 0.0
C1894 C 0.35618 0.64811 0.69162 0.0
H1895 H 0.32504 0.75038 0.73103 0.0
H1896 H 0.33574 0.73092 0.70975 0.0
H1897 H 0.30643 0.7249 0.71589 0.0
H1898 H 0.29988 0.66733 0.69698 0.0
H1899 H 0.30117 0.66423 0.66331 0.0
H1900 H 0.71949 0.33834 0.16257 0.0
H1901 H 0.71948 0.33809 0.19629 0.0
H1902 H 0.66589 0.42072 0.19661 0.0
H1903 H 0.66578 0.42149 0.16288 0.0
H1904 H 0.72318 0.40989 0.22123 0.0
H1905 H 0.64494 0.32298 0.22822 0.0
H1906 H 0.66267 0.32131 0.20791 0.0
H1907 H 0.64464 0.36116 0.21186 0.0
C1908 C 0.70775 0.3566 0.16978 0.0
C1909 C 0.69263 0.37996 0.16003 0.0
C1910 C 0.7078 0.35641 0.18902 0.0
C1911 C 0.6926 0.37921 0.1988 0.0
C1912 C 0.67766 0.40282 0.1892 0.0
H1913 H 0.65596 0.40529 0.31295 0.0
H1914 H 0.65811 0.40492 0.27938 0.0
C1915 C 0.67769 0.40329 0.16996 0.0
C1916 C 0.69222 0.37813 0.21909 0.0
H1917 H 0.66122 0.34632 0.25558 0.0
C1918 C 0.70973 0.39592 0.22882 0.0
C1919 C 0.67456 0.35997 0.22877 0.0
C1920 C 0.65563 0.34002 0.21875 0.0
C1921 C 0.70979 0.39672 0.24815 0.0
C1922 C 0.69216 0.37833 0.25789 0.0
C1923 C 0.67473 0.36032 0.24808 0.0
C1924 C 0.6911 0.37822 0.27827 0.0
C1925 C 0.72833 0.41819 0.25791 0.0
C1926 C 0.70881 0.36281 0.28878 0.0
C1927 C 0.70774 0.36325 0.30802 0.0
C1928 C 0.68878 0.37867 0.31706 0.0
C1929 C 0.67084 0.39327 0.30645 0.0
C1930 C 0.67202 0.39309 0.28725 0.0
H1931 H 0.7367 0.43882 0.24862 0.0
H1932 H 0.72154 0.43347 0.27007 0.0
H1933 H 0.74146 0.3981 0.26276 0.0
H1934 H 0.72343 0.3503 0.28212 0.0
H1935 H 0.72172 0.35138 0.31578 0.0
H1936 H 0.80038 0.86114 0.16325 0.0
H1937 H 0.79919 0.86016 0.19695 0.0
H1938 H 0.87077 0.88508 0.1989 0.0
H1939 H 0.87217 0.88651 0.1653 0.0
H1940 H 0.82463 0.81524 0.22221 0.0
H1941 H 0.84143 0.96809 0.23073 0.0
H1942 H 0.83275 0.94777 0.20905 0.0
H1943 H 0.86173 0.94395 0.21655 0.0
C1944 C 0.81588 0.86642 0.17083 0.0
C1945 C 0.83632 0.87431 0.16158 0.0
C1946 C 0.81515 0.86579 0.19007 0.0
C1947 C 0.8348 0.87318 0.20033 0.0
C1948 C 0.85533 0.88006 0.19118 0.0
H1949 H 0.87186 0.88864 0.31449 0.0
H1950 H 0.87038 0.88553 0.28092 0.0
C1951 C 0.8561 0.88072 0.17197 0.0
C1952 C 0.83391 0.87378 0.22065 0.0
H1953 H 0.84289 0.93057 0.25781 0.0
C1954 C 0.82845 0.84046 0.23004 0.0
C1955 C 0.83886 0.90683 0.23072 0.0
C1956 C 0.84382 0.94381 0.22128 0.0
C1957 C 0.82849 0.83902 0.24936 0.0
C1958 C 0.83381 0.87194 0.25941 0.0
C1959 C 0.83893 0.90537 0.25 0.0
C1960 C 0.83458 0.87229 0.27974 0.0
C1961 C 0.82351 0.80214 0.25885 0.0
C1962 C 0.81487 0.86601 0.29012 0.0
C1963 C 0.81562 0.86776 0.30934 0.0
C1964 C 0.83609 0.87609 0.31845 0.0
C1965 C 0.85581 0.88224 0.30794 0.0
C1966 C 0.85502 0.88047 0.28875 0.0
H1967 H 0.82478 0.77789 0.24924 0.0
H1968 H 0.83535 0.79747 0.27054 0.0
H1969 H 0.80598 0.80284 0.26445 0.0
H1970 H 0.79885 0.8603 0.28336 0.0
H1971 H 0.80013 0.86294 0.31702 0.0
H1972 H 0.17452 0.09852 0.81594 0.0
H1973 H 0.1757 0.09885 0.78225 0.0
H1974 H 0.21353 0.20272 0.78313 0.0
H1975 H 0.21235 0.2029 0.81678 0.0
H1976 H 0.17608 0.20277 0.75878 0.0
H1977 H 0.23109 0.07736 0.74886 0.0
H1978 H 0.20694 0.06978 0.76352 0.0
H1979 H 0.2289 0.1017 0.77063 0.0
C1980 C 0.18321 0.12135 0.809 0.0
C1981 C 0.19344 0.15059 0.81909 0.0
C1982 C 0.18396 0.12137 0.78974 0.0
C1983 C 0.19497 0.15054 0.78024 0.0
C1984 C 0.20507 0.17984 0.79023 0.0
H1985 H 0.22672 0.15668 0.66288 0.0
H1986 H 0.22883 0.15901 0.69657 0.0
C1987 C 0.2044 0.17983 0.80947 0.0
C1988 C 0.19529 0.15122 0.75985 0.0
H1989 H 0.21343 0.10249 0.72208 0.0
C1990 C 0.18433 0.18096 0.75074 0.0
C1991 C 0.2063 0.12295 0.74945 0.0
C1992 C 0.21917 0.09128 0.75856 0.0
C1993 C 0.18362 0.18271 0.73144 0.0
C1994 C 0.19395 0.15375 0.72103 0.0
C1995 C 0.20539 0.1245 0.73013 0.0
C1996 C 0.19265 0.15294 0.70068 0.0
C1997 C 0.17192 0.21561 0.72231 0.0
C1998 C 0.17163 0.14846 0.69191 0.0
C1999 C 0.17035 0.14702 0.67271 0.0
C2000 C 0.19011 0.14993 0.66191 0.0
C2001 C 0.21118 0.15443 0.67077 0.0
C2002 C 0.21243 0.15571 0.69001 0.0
H2003 H 0.16986 0.23971 0.73192 0.0
H2004 H 0.18157 0.22525 0.71003 0.0
H2005 H 0.15479 0.20675 0.71768 0.0
H2006 H 0.15621 0.14571 0.69993 0.0
H2007 H 0.15385 0.14353 0.66637 0.0
H2008 H 0.86921 0.12679 0.66566 0.0
H2009 H 0.86764 0.12582 0.69924 0.0
H2010 H 0.80165 0.17838 0.69773 0.0
H2011 H 0.80278 0.17862 0.66404 0.0
H2012 H 0.86428 0.1833 0.72362 0.0
H2013 H 0.79 0.08824 0.73057 0.0
H2014 H 0.80472 0.09488 0.70901 0.0
H2015 H 0.78446 0.12925 0.71682 0.0
C2016 C 0.8543 0.13807 0.67243 0.0
C2017 C 0.83601 0.15249 0.66215 0.0
C2018 C 0.85345 0.13749 0.69164 0.0
C2019 C 0.83436 0.15137 0.70096 0.0
C2020 C 0.81629 0.16661 0.69079 0.0
H2021 H 0.8066 0.19042 0.81646 0.0
H2022 H 0.80686 0.19049 0.78276 0.0
C2023 C 0.81703 0.16693 0.67154 0.0
C2024 C 0.83365 0.15049 0.72134 0.0
H2025 H 0.80332 0.11728 0.75804 0.0
C2026 C 0.85101 0.16873 0.73114 0.0
C2027 C 0.81634 0.1313 0.73111 0.0
C2028 C 0.79794 0.10949 0.72136 0.0
C2029 C 0.85136 0.16868 0.75045 0.0
C2030 C 0.83395 0.14991 0.76014 0.0
C2031 C 0.81658 0.13172 0.75044 0.0
C2032 C 0.83354 0.149 0.78043 0.0
C2033 C 0.87017 0.18895 0.76046 0.0
C2034 C 0.84834 0.12529 0.79013 0.0
C2035 C 0.84818 0.12493 0.80938 0.0
C2036 C 0.83326 0.14847 0.81919 0.0
C2037 C 0.81833 0.172 0.80934 0.0
C2038 C 0.81841 0.17208 0.79011 0.0
H2039 H 0.88096 0.20575 0.75097 0.0
H2040 H 0.86296 0.20795 0.77111 0.0
H2041 H 0.88108 0.16805 0.76761 0.0
H2042 H 0.86008 0.1072 0.78279 0.0
H2043 H 0.85994 0.10661 0.81654 0.0
H2044 H 0.2236 0.85947 0.31699 0.0
H2045 H 0.22481 0.85725 0.28332 0.0
H2046 H 0.15378 0.88617 0.28102 0.0
H2047 H 0.15226 0.88808 0.31463 0.0
H2048 H 0.16642 0.82543 0.25795 0.0
H2049 H 0.22296 0.94942 0.24883 0.0
H2050 H 0.23346 0.91353 0.26407 0.0
H2051 H 0.20847 0.93964 0.27022 0.0
C2052 C 0.20823 0.86545 0.30934 0.0
C2053 C 0.18787 0.87424 0.31852 0.0
C2054 C 0.209 0.86431 0.29011 0.0
C2055 C 0.18947 0.87209 0.27973 0.0
C2056 C 0.16906 0.88028 0.28882 0.0
H2057 H 0.15168 0.88923 0.16534 0.0
H2058 H 0.15293 0.88545 0.19891 0.0
C2059 C 0.16826 0.88143 0.30803 0.0
C2060 C 0.19017 0.87141 0.25937 0.0
H2061 H 0.21318 0.9155 0.22199 0.0
C2062 C 0.17664 0.84509 0.25006 0.0
C2063 C 0.20358 0.89706 0.24919 0.0
C2064 C 0.21782 0.92675 0.25853 0.0
C2065 C 0.17621 0.84364 0.23075 0.0
C2066 C 0.18936 0.86963 0.22056 0.0
C2067 C 0.20313 0.89561 0.22988 0.0
C2068 C 0.18859 0.8711 0.20021 0.0
C2069 C 0.16187 0.81406 0.22142 0.0
C2070 C 0.20835 0.86502 0.18987 0.0
C2071 C 0.20776 0.86737 0.17066 0.0
C2072 C 0.18739 0.87616 0.16147 0.0
C2073 C 0.16764 0.88233 0.17194 0.0
C2074 C 0.16826 0.87994 0.19113 0.0
H2075 H 0.15786 0.79035 0.23088 0.0
H2076 H 0.1456 0.82691 0.21696 0.0
H2077 H 0.17056 0.80267 0.20904 0.0
H2078 H 0.22422 0.85837 0.19667 0.0
H2079 H 0.22328 0.86246 0.16303 0.0
loop_
_geom_bond_atom_site_label_1
_geom_bond_atom_site_label_2
_geom_bond_distance
_geom_bond_site_symmetry_2
_ccdc_geom_bond_type
Fe0 O2 1.918 . S
Fe0 O5 1.997 . S
Fe0 O6 2.002 . S
Fe0 O11 1.976 . S
Fe0 O14 1.996 . S
Fe1 O2 1.918 . S
Fe1 O9 1.997 . S
Fe1 O12 1.996 . S
Fe1 O16 1.976 . S
Fe1 O19 2.002 . S
O2 Fe0 1.918 . S
O2 Fe1 1.918 . S
O2 Fe3 1.918 . S
Fe3 O2 1.918 . S
Fe3 O4 2.002 . S
Fe3 O13 1.976 . S
Fe3 O17 1.996 . S
Fe3 O20 1.997 . S
O4 Fe3 2.002 . S
O4 C21 1.295 . S
O5 Fe0 1.997 . S
O5 C21 1.235 . S
O6 Fe0 2.002 . S
O6 C7 1.295 . S
C7 O6 1.295 . S
C7 O9 1.235 . S
C8 O13 1.287 . S
C8 O14 1.255 . S
O9 Fe1 1.997 . S
O9 C7 1.235 . S
C10 O16 1.287 . S
C10 O17 1.255 . S
O11 Fe0 1.976 . S
O11 C18 1.287 . S
O12 Fe1 1.996 . S
O12 C18 1.255 . S
O13 Fe3 1.976 . S
O13 C8 1.287 . S
O14 Fe0 1.996 . S
O14 C8 1.255 . S
C15 O19 1.295 . S
C15 O20 1.235 . S
O16 Fe1 1.976 . S
O16 C10 1.287 . S
O17 Fe3 1.996 . S
O17 C10 1.255 . S
C18 O11 1.287 . S
C18 O12 1.255 . S
O19 Fe1 2.002 . S
O19 C15 1.295 . S
O20 Fe3 1.997 . S
O20 C15 1.235 . S
C21 O4 1.295 . S
C21 O5 1.235 . S
Fe22 O24 1.918 . S
Fe22 O27 1.997 . S
Fe22 O28 2.002 . S
Fe22 O33 1.976 . S
Fe22 O36 1.996 . S
Fe23 O24 1.918 . S
Fe23 O31 1.997 . S
Fe23 O34 1.996 . S
Fe23 O38 1.976 . S
Fe23 O41 2.002 . S
O24 Fe22 1.918 . S
O24 Fe23 1.918 . S
O24 Fe25 1.918 . S
Fe25 O24 1.918 . S
Fe25 O26 2.002 . S
Fe25 O35 1.976 . S
Fe25 O39 1.996 . S
Fe25 O42 1.997 . S
O26 Fe25 2.002 . S
O26 C43 1.295 . S
O27 Fe22 1.997 . S
O27 C43 1.235 . S
O28 Fe22 2.002 . S
O28 C29 1.295 . S
C29 O28 1.295 . S
C29 O31 1.235 . S
C30 O35 1.287 . S
C30 O36 1.255 . S
O31 Fe23 1.997 . S
O31 C29 1.235 . S
C32 O38 1.287 . S
C32 O39 1.255 . S
O33 Fe22 1.976 . S
O33 C40 1.287 . S
O34 Fe23 1.996 . S
O34 C40 1.255 . S
O35 Fe25 1.976 . S
O35 C30 1.287 . S
O36 Fe22 1.996 . S
O36 C30 1.255 . S
C37 O41 1.295 . S
C37 O42 1.235 . S
O38 Fe23 1.976 . S
O38 C32 1.287 . S
O39 Fe25 1.996 . S
O39 C32 1.255 . S
C40 O33 1.287 . S
C40 O34 1.255 . S
O41 Fe23 2.002 . S
O41 C37 1.295 . S
O42 Fe25 1.997 . S
O42 C37 1.235 . S
C43 O26 1.295 . S
C43 O27 1.235 . S
Fe44 O46 1.918 . S
Fe44 O49 1.997 . S
Fe44 O50 2.002 . S
Fe44 O55 1.976 . S
Fe44 O58 1.996 . S
Fe45 O46 1.918 . S
Fe45 O53 1.997 . S
Fe45 O56 1.996 . S
Fe45 O60 1.976 . S
Fe45 O63 2.002 . S
O46 Fe44 1.918 . S
O46 Fe45 1.918 . S
O46 Fe47 1.918 . S
Fe47 O46 1.918 . S
Fe47 O48 2.002 . S
Fe47 O57 1.976 . S
Fe47 O61 1.996 . S
Fe47 O64 1.997 . S
O48 Fe47 2.002 . S
O48 C65 1.295 . S
O49 Fe44 1.997 . S
O49 C65 1.235 . S
O50 Fe44 2.002 . S
O50 C51 1.295 . S
C51 O50 1.295 . S
C51 O53 1.235 . S
C52 O57 1.287 . S
C52 O58 1.255 . S
O53 Fe45 1.997 . S
O53 C51 1.235 . S
C54 O60 1.287 . S
C54 O61 1.255 . S
O55 Fe44 1.976 . S
O55 C62 1.287 . S
O56 Fe45 1.996 . S
O56 C62 1.255 . S
O57 Fe47 1.976 . S
O57 C52 1.287 . S
O58 Fe44 1.996 . S
O58 C52 1.255 . S
C59 O63 1.295 . S
C59 O64 1.235 . S
O60 Fe45 1.976 . S
O60 C54 1.287 . S
O61 Fe47 1.996 . S
O61 C54 1.255 . S
C62 O55 1.287 . S
C62 O56 1.255 . S
O63 Fe45 2.002 . S
O63 C59 1.295 . S
O64 Fe47 1.997 . S
O64 C59 1.235 . S
C65 O48 1.295 . S
C65 O49 1.235 . S
Fe66 O68 1.918 . S
Fe66 O71 1.997 . S
Fe66 O72 2.002 . S
Fe66 O77 1.976 . S
Fe66 O80 1.996 . S
Fe67 O68 1.918 . S
Fe67 O75 1.997 . S
Fe67 O78 1.996 . S
Fe67 O82 1.976 . S
Fe67 O85 2.002 . S
O68 Fe66 1.918 . S
O68 Fe67 1.918 . S
O68 Fe69 1.918 . S
Fe69 O68 1.918 . S
Fe69 O70 2.002 . S
Fe69 O79 1.976 . S
Fe69 O83 1.996 . S
Fe69 O86 1.997 . S
O70 Fe69 2.002 . S
O70 C87 1.295 . S
O71 Fe66 1.997 . S
O71 C87 1.235 . S
O72 Fe66 2.002 . S
O72 C73 1.295 . S
C73 O72 1.295 . S
C73 O75 1.235 . S
C74 O79 1.287 . S
C74 O80 1.255 . S
O75 Fe67 1.997 . S
O75 C73 1.235 . S
C76 O82 1.287 . S
C76 O83 1.255 . S
O77 Fe66 1.976 . S
O77 C84 1.287 . S
O78 Fe67 1.996 . S
O78 C84 1.255 . S
O79 Fe69 1.976 . S
O79 C74 1.287 . S
O80 Fe66 1.996 . S
O80 C74 1.255 . S
C81 O85 1.295 . S
C81 O86 1.235 . S
O82 Fe67 1.976 . S
O82 C76 1.287 . S
O83 Fe69 1.996 . S
O83 C76 1.255 . S
C84 O77 1.287 . S
C84 O78 1.255 . S
O85 Fe67 2.002 . S
O85 C81 1.295 . S
O86 Fe69 1.997 . S
O86 C81 1.235 . S
C87 O70 1.295 . S
C87 O71 1.235 . S
Fe88 O90 1.918 . S
Fe88 O93 1.997 . S
Fe88 O94 2.002 . S
Fe88 O99 1.976 . S
Fe88 O102 1.996 . S
Fe89 O90 1.918 . S
Fe89 O97 1.997 . S
Fe89 O100 1.996 . S
Fe89 O104 1.976 . S
Fe89 O107 2.002 . S
O90 Fe88 1.918 . S
O90 Fe89 1.918 . S
O90 Fe91 1.918 . S
Fe91 O90 1.918 . S
Fe91 O92 2.002 . S
Fe91 O101 1.976 . S
Fe91 O105 1.996 . S
Fe91 O108 1.997 . S
O92 Fe91 2.002 . S
O92 C109 1.295 . S
O93 Fe88 1.997 . S
O93 C109 1.235 . S
O94 Fe88 2.002 . S
O94 C95 1.295 . S
C95 O94 1.295 . S
C95 O97 1.235 . S
C96 O101 1.287 . S
C96 O102 1.255 . S
O97 Fe89 1.997 . S
O97 C95 1.235 . S
C98 O104 1.287 . S
C98 O105 1.255 . S
O99 Fe88 1.976 . S
O99 C106 1.287 . S
O100 Fe89 1.996 . S
O100 C106 1.255 . S
O101 Fe91 1.976 . S
O101 C96 1.287 . S
O102 Fe88 1.996 . S
O102 C96 1.255 . S
C103 O107 1.295 . S
C103 O108 1.235 . S
O104 Fe89 1.976 . S
O104 C98 1.287 . S
O105 Fe91 1.996 . S
O105 C98 1.255 . S
C106 O99 1.287 . S
C106 O100 1.255 . S
O107 Fe89 2.002 . S
O107 C103 1.295 . S
O108 Fe91 1.997 . S
O108 C103 1.235 . S
C109 O92 1.295 . S
C109 O93 1.235 . S
Fe110 O112 1.918 . S
Fe110 O115 1.997 . S
Fe110 O116 2.002 . S
Fe110 O121 1.976 . S
Fe110 O124 1.996 . S
Fe111 O112 1.918 . S
Fe111 O119 1.997 . S
Fe111 O122 1.996 . S
Fe111 O126 1.976 . S
Fe111 O129 2.002 . S
O112 Fe110 1.918 . S
O112 Fe111 1.918 . S
O112 Fe113 1.918 . S
Fe113 O112 1.918 . S
Fe113 O114 2.002 . S
Fe113 O123 1.976 . S
Fe113 O127 1.996 . S
Fe113 O130 1.997 . S
O114 Fe113 2.002 . S
O114 C131 1.295 . S
O115 Fe110 1.997 . S
O115 C131 1.235 . S
O116 Fe110 2.002 . S
O116 C117 1.295 . S
C117 O116 1.295 . S
C117 O119 1.235 . S
C118 O123 1.287 . S
C118 O124 1.255 . S
O119 Fe111 1.997 . S
O119 C117 1.235 . S
C120 O126 1.287 . S
C120 O127 1.255 . S
O121 Fe110 1.976 . S
O121 C128 1.287 . S
O122 Fe111 1.996 . S
O122 C128 1.255 . S
O123 Fe113 1.976 . S
O123 C118 1.287 . S
O124 Fe110 1.996 . S
O124 C118 1.255 . S
C125 O129 1.295 . S
C125 O130 1.235 . S
O126 Fe111 1.976 . S
O126 C120 1.287 . S
O127 Fe113 1.996 . S
O127 C120 1.255 . S
C128 O121 1.287 . S
C128 O122 1.255 . S
O129 Fe111 2.002 . S
O129 C125 1.295 . S
O130 Fe113 1.997 . S
O130 C125 1.235 . S
C131 O114 1.295 . S
C131 O115 1.235 . S
Fe132 O134 1.918 . S
Fe132 O137 1.997 . S
Fe132 O138 2.002 . S
Fe132 O143 1.976 . S
Fe132 O146 1.996 . S
Fe133 O134 1.918 . S
Fe133 O141 1.997 . S
Fe133 O144 1.996 . S
Fe133 O148 1.976 . S
Fe133 O151 2.002 . S
O134 Fe132 1.918 . S
O134 Fe133 1.918 . S
O134 Fe135 1.918 . S
Fe135 O134 1.918 . S
Fe135 O136 2.002 . S
Fe135 O145 1.976 . S
Fe135 O149 1.996 . S
Fe135 O152 1.997 . S
O136 Fe135 2.002 . S
O136 C153 1.295 . S
O137 Fe132 1.997 . S
O137 C153 1.235 . S
O138 Fe132 2.002 . S
O138 C139 1.295 . S
C139 O138 1.295 . S
C139 O141 1.235 . S
C140 O145 1.287 . S
C140 O146 1.255 . S
O141 Fe133 1.997 . S
O141 C139 1.235 . S
C142 O148 1.287 . S
C142 O149 1.255 . S
O143 Fe132 1.976 . S
O143 C150 1.287 . S
O144 Fe133 1.996 . S
O144 C150 1.255 . S
O145 Fe135 1.976 . S
O145 C140 1.287 . S
O146 Fe132 1.996 . S
O146 C140 1.255 . S
C147 O151 1.295 . S
C147 O152 1.235 . S
O148 Fe133 1.976 . S
O148 C142 1.287 . S
O149 Fe135 1.996 . S
O149 C142 1.255 . S
C150 O143 1.287 . S
C150 O144 1.255 . S
O151 Fe133 2.002 . S
O151 C147 1.295 . S
O152 Fe135 1.997 . S
O152 C147 1.235 . S
C153 O136 1.295 . S
C153 O137 1.235 . S
Fe154 O156 1.918 . S
Fe154 O159 1.997 . S
Fe154 O160 2.002 . S
Fe154 O165 1.976 . S
Fe154 O168 1.996 . S
Fe155 O156 1.918 . S
Fe155 O163 1.997 . S
Fe155 O166 1.996 . S
Fe155 O170 1.976 . S
Fe155 O173 2.002 . S
O156 Fe154 1.918 . S
O156 Fe155 1.918 . S
O156 Fe157 1.918 . S
Fe157 O156 1.918 . S
Fe157 O158 2.002 . S
Fe157 O167 1.976 . S
Fe157 O171 1.996 . S
Fe157 O174 1.997 . S
O158 Fe157 2.002 . S
O158 C175 1.295 . S
O159 Fe154 1.997 . S
O159 C175 1.235 . S
O160 Fe154 2.002 . S
O160 C161 1.295 . S
C161 O160 1.295 . S
C161 O163 1.235 . S
C162 O167 1.287 . S
C162 O168 1.255 . S
O163 Fe155 1.997 . S
O163 C161 1.235 . S
C164 O170 1.287 . S
C164 O171 1.255 . S
O165 Fe154 1.976 . S
O165 C172 1.287 . S
O166 Fe155 1.996 . S
O166 C172 1.255 . S
O167 Fe157 1.976 . S
O167 C162 1.287 . S
O168 Fe154 1.996 . S
O168 C162 1.255 . S
C169 O173 1.295 . S
C169 O174 1.235 . S
O170 Fe155 1.976 . S
O170 C164 1.287 . S
O171 Fe157 1.996 . S
O171 C164 1.255 . S
C172 O165 1.287 . S
C172 O166 1.255 . S
O173 Fe155 2.002 . S
O173 C169 1.295 . S
O174 Fe157 1.997 . S
O174 C169 1.235 . S
C175 O158 1.295 . S
C175 O159 1.235 . S
Fe176 O178 1.918 . S
Fe176 O181 1.997 . S
Fe176 O182 2.002 . S
Fe176 O187 1.976 . S
Fe176 O190 1.996 . S
Fe177 O178 1.918 . S
Fe177 O185 1.997 . S
Fe177 O188 1.996 . S
Fe177 O192 1.976 . S
Fe177 O195 2.002 . S
O178 Fe176 1.918 . S
O178 Fe177 1.918 . S
O178 Fe179 1.918 . S
Fe179 O178 1.918 . S
Fe179 O180 2.002 . S
Fe179 O189 1.976 . S
Fe179 O193 1.996 . S
Fe179 O196 1.997 . S
O180 Fe179 2.002 . S
O180 C197 1.295 . S
O181 Fe176 1.997 . S
O181 C197 1.235 . S
O182 Fe176 2.002 . S
O182 C183 1.295 . S
C183 O182 1.295 . S
C183 O185 1.235 . S
C184 O189 1.287 . S
C184 O190 1.255 . S
O185 Fe177 1.997 . S
O185 C183 1.235 . S
C186 O192 1.287 . S
C186 O193 1.255 . S
O187 Fe176 1.976 . S
O187 C194 1.287 . S
O188 Fe177 1.996 . S
O188 C194 1.255 . S
O189 Fe179 1.976 . S
O189 C184 1.287 . S
O190 Fe176 1.996 . S
O190 C184 1.255 . S
C191 O195 1.295 . S
C191 O196 1.235 . S
O192 Fe177 1.976 . S
O192 C186 1.287 . S
O193 Fe179 1.996 . S
O193 C186 1.255 . S
C194 O187 1.287 . S
C194 O188 1.255 . S
O195 Fe177 2.002 . S
O195 C191 1.295 . S
O196 Fe179 1.997 . S
O196 C191 1.235 . S
C197 O180 1.295 . S
C197 O181 1.235 . S
Fe198 O200 1.918 . S
Fe198 O203 1.997 . S
Fe198 O204 2.002 . S
Fe198 O209 1.976 . S
Fe198 O212 1.996 . S
Fe199 O200 1.918 . S
Fe199 O207 1.997 . S
Fe199 O210 1.996 . S
Fe199 O214 1.976 . S
Fe199 O217 2.002 . S
O200 Fe198 1.918 . S
O200 Fe199 1.918 . S
O200 Fe201 1.918 . S
Fe201 O200 1.918 . S
Fe201 O202 2.002 . S
Fe201 O211 1.976 . S
Fe201 O215 1.996 . S
Fe201 O218 1.997 . S
O202 Fe201 2.002 . S
O202 C219 1.295 . S
O203 Fe198 1.997 . S
O203 C219 1.235 . S
O204 Fe198 2.002 . S
O204 C205 1.295 . S
C205 O204 1.295 . S
C205 O207 1.235 . S
C206 O211 1.287 . S
C206 O212 1.255 . S
O207 Fe199 1.997 . S
O207 C205 1.235 . S
C208 O214 1.287 . S
C208 O215 1.255 . S
O209 Fe198 1.976 . S
O209 C216 1.287 . S
O210 Fe199 1.996 . S
O210 C216 1.255 . S
O211 Fe201 1.976 . S
O211 C206 1.287 . S
O212 Fe198 1.996 . S
O212 C206 1.255 . S
C213 O217 1.295 . S
C213 O218 1.235 . S
O214 Fe199 1.976 . S
O214 C208 1.287 . S
O215 Fe201 1.996 . S
O215 C208 1.255 . S
C216 O209 1.287 . S
C216 O210 1.255 . S
O217 Fe199 2.002 . S
O217 C213 1.295 . S
O218 Fe201 1.997 . S
O218 C213 1.235 . S
C219 O202 1.295 . S
C219 O203 1.235 . S
Fe220 O222 1.918 . S
Fe220 O225 1.997 . S
Fe220 O226 2.002 . S
Fe220 O231 1.976 . S
Fe220 O234 1.996 . S
Fe221 O222 1.918 . S
Fe221 O229 1.997 . S
Fe221 O232 1.996 . S
Fe221 O236 1.976 . S
Fe221 O239 2.002 . S
O222 Fe220 1.918 . S
O222 Fe221 1.918 . S
O222 Fe223 1.918 . S
Fe223 O222 1.918 . S
Fe223 O224 2.002 . S
Fe223 O233 1.976 . S
Fe223 O237 1.996 . S
Fe223 O240 1.997 . S
O224 Fe223 2.002 . S
O224 C241 1.295 . S
O225 Fe220 1.997 . S
O225 C241 1.235 . S
O226 Fe220 2.002 . S
O226 C227 1.295 . S
C227 O226 1.295 . S
C227 O229 1.235 . S
C228 O233 1.287 . S
C228 O234 1.255 . S
O229 Fe221 1.997 . S
O229 C227 1.235 . S
C230 O236 1.287 . S
C230 O237 1.255 . S
O231 Fe220 1.976 . S
O231 C238 1.287 . S
O232 Fe221 1.996 . S
O232 C238 1.255 . S
O233 Fe223 1.976 . S
O233 C228 1.287 . S
O234 Fe220 1.996 . S
O234 C228 1.255 . S
C235 O239 1.295 . S
C235 O240 1.235 . S
O236 Fe221 1.976 . S
O236 C230 1.287 . S
O237 Fe223 1.996 . S
O237 C230 1.255 . S
C238 O231 1.287 . S
C238 O232 1.255 . S
O239 Fe221 2.002 . S
O239 C235 1.295 . S
O240 Fe223 1.997 . S
O240 C235 1.235 . S
C241 O224 1.295 . S
C241 O225 1.235 . S
Fe242 O244 1.918 . S
Fe242 O247 1.997 . S
Fe242 O248 2.002 . S
Fe242 O253 1.976 . S
Fe242 O256 1.996 . S
Fe243 O244 1.918 . S
Fe243 O251 1.997 . S
Fe243 O254 1.996 . S
Fe243 O258 1.976 . S
Fe243 O261 2.002 . S
O244 Fe242 1.918 . S
O244 Fe243 1.918 . S
O244 Fe245 1.918 . S
Fe245 O244 1.918 . S
Fe245 O246 2.002 . S
Fe245 O255 1.976 . S
Fe245 O259 1.996 . S
Fe245 O262 1.997 . S
O246 Fe245 2.002 . S
O246 C263 1.295 . S
O247 Fe242 1.997 . S
O247 C263 1.235 . S
O248 Fe242 2.002 . S
O248 C249 1.295 . S
C249 O248 1.295 . S
C249 O251 1.235 . S
C250 O255 1.287 . S
C250 O256 1.255 . S
O251 Fe243 1.997 . S
O251 C249 1.235 . S
C252 O258 1.287 . S
C252 O259 1.255 . S
O253 Fe242 1.976 . S
O253 C260 1.287 . S
O254 Fe243 1.996 . S
O254 C260 1.255 . S
O255 Fe245 1.976 . S
O255 C250 1.287 . S
O256 Fe242 1.996 . S
O256 C250 1.255 . S
C257 O261 1.295 . S
C257 O262 1.235 . S
O258 Fe243 1.976 . S
O258 C252 1.287 . S
O259 Fe245 1.996 . S
O259 C252 1.255 . S
C260 O253 1.287 . S
C260 O254 1.255 . S
O261 Fe243 2.002 . S
O261 C257 1.295 . S
O262 Fe245 1.997 . S
O262 C257 1.235 . S
C263 O246 1.295 . S
C263 O247 1.235 . S
Fe264 O266 1.918 . S
Fe264 O269 1.997 . S
Fe264 O270 2.002 . S
Fe264 O275 1.976 . S
Fe264 O278 1.996 . S
Fe265 O266 1.918 . S
Fe265 O273 1.997 . S
Fe265 O276 1.996 . S
Fe265 O280 1.976 . S
Fe265 O283 2.002 . S
O266 Fe264 1.918 . S
O266 Fe265 1.918 . S
O266 Fe267 1.918 . S
Fe267 O266 1.918 . S
Fe267 O268 2.002 . S
Fe267 O277 1.976 . S
Fe267 O281 1.996 . S
Fe267 O284 1.997 . S
O268 Fe267 2.002 . S
O268 C285 1.295 . S
O269 Fe264 1.997 . S
O269 C285 1.235 . S
O270 Fe264 2.002 . S
O270 C271 1.295 . S
C271 O270 1.295 . S
C271 O273 1.235 . S
C272 O277 1.287 . S
C272 O278 1.255 . S
O273 Fe265 1.997 . S
O273 C271 1.235 . S
C274 O280 1.287 . S
C274 O281 1.255 . S
O275 Fe264 1.976 . S
O275 C282 1.287 . S
O276 Fe265 1.996 . S
O276 C282 1.255 . S
O277 Fe267 1.976 . S
O277 C272 1.287 . S
O278 Fe264 1.996 . S
O278 C272 1.255 . S
C279 O283 1.295 . S
C279 O284 1.235 . S
O280 Fe265 1.976 . S
O280 C274 1.287 . S
O281 Fe267 1.996 . S
O281 C274 1.255 . S
C282 O275 1.287 . S
C282 O276 1.255 . S
O283 Fe265 2.002 . S
O283 C279 1.295 . S
O284 Fe267 1.997 . S
O284 C279 1.235 . S
C285 O268 1.295 . S
C285 O269 1.235 . S
Fe286 O288 1.918 . S
Fe286 O291 1.997 . S
Fe286 O292 2.002 . S
Fe286 O297 1.976 . S
Fe286 O300 1.996 . S
Fe287 O288 1.918 . S
Fe287 O295 1.997 . S
Fe287 O298 1.996 . S
Fe287 O302 1.976 . S
Fe287 O305 2.002 . S
O288 Fe286 1.918 . S
O288 Fe287 1.918 . S
O288 Fe289 1.918 . S
Fe289 O288 1.918 . S
Fe289 O290 2.002 . S
Fe289 O299 1.976 . S
Fe289 O303 1.996 . S
Fe289 O306 1.997 . S
O290 Fe289 2.002 . S
O290 C307 1.295 . S
O291 Fe286 1.997 . S
O291 C307 1.235 . S
O292 Fe286 2.002 . S
O292 C293 1.295 . S
C293 O292 1.295 . S
C293 O295 1.235 . S
C294 O299 1.287 . S
C294 O300 1.255 . S
O295 Fe287 1.997 . S
O295 C293 1.235 . S
C296 O302 1.287 . S
C296 O303 1.255 . S
O297 Fe286 1.976 . S
O297 C304 1.287 . S
O298 Fe287 1.996 . S
O298 C304 1.255 . S
O299 Fe289 1.976 . S
O299 C294 1.287 . S
O300 Fe286 1.996 . S
O300 C294 1.255 . S
C301 O305 1.295 . S
C301 O306 1.235 . S
O302 Fe287 1.976 . S
O302 C296 1.287 . S
O303 Fe289 1.996 . S
O303 C296 1.255 . S
C304 O297 1.287 . S
C304 O298 1.255 . S
O305 Fe287 2.002 . S
O305 C301 1.295 . S
O306 Fe289 1.997 . S
O306 C301 1.235 . S
C307 O290 1.295 . S
C307 O291 1.235 . S
Fe308 O310 1.918 . S
Fe308 O313 1.997 . S
Fe308 O314 2.002 . S
Fe308 O319 1.976 . S
Fe308 O322 1.996 . S
Fe309 O310 1.918 . S
Fe309 O317 1.997 . S
Fe309 O320 1.996 . S
Fe309 O324 1.976 . S
Fe309 O327 2.002 . S
O310 Fe308 1.918 . S
O310 Fe309 1.918 . S
O310 Fe311 1.918 . S
Fe311 O310 1.918 . S
Fe311 O312 2.002 . S
Fe311 O321 1.976 . S
Fe311 O325 1.996 . S
Fe311 O328 1.997 . S
O312 Fe311 2.002 . S
O312 C329 1.295 . S
O313 Fe308 1.997 . S
O313 C329 1.235 . S
O314 Fe308 2.002 . S
O314 C315 1.295 . S
C315 O314 1.295 . S
C315 O317 1.235 . S
C316 O321 1.287 . S
C316 O322 1.255 . S
O317 Fe309 1.997 . S
O317 C315 1.235 . S
C318 O324 1.287 . S
C318 O325 1.255 . S
O319 Fe308 1.976 . S
O319 C326 1.287 . S
O320 Fe309 1.996 . S
O320 C326 1.255 . S
O321 Fe311 1.976 . S
O321 C316 1.287 . S
O322 Fe308 1.996 . S
O322 C316 1.255 . S
C323 O327 1.295 . S
C323 O328 1.235 . S
O324 Fe309 1.976 . S
O324 C318 1.287 . S
O325 Fe311 1.996 . S
O325 C318 1.255 . S
C326 O319 1.287 . S
C326 O320 1.255 . S
O327 Fe309 2.002 . S
O327 C323 1.295 . S
O328 Fe311 1.997 . S
O328 C323 1.235 . S
C329 O312 1.295 . S
C329 O313 1.235 . S
Fe330 O332 1.918 . S
Fe330 O335 1.997 . S
Fe330 O336 2.002 . S
Fe330 O341 1.976 . S
Fe330 O344 1.996 . S
Fe331 O332 1.918 . S
Fe331 O339 1.997 . S
Fe331 O342 1.996 . S
Fe331 O346 1.976 . S
Fe331 O349 2.002 . S
O332 Fe330 1.918 . S
O332 Fe331 1.918 . S
O332 Fe333 1.918 . S
Fe333 O332 1.918 . S
Fe333 O334 2.002 . S
Fe333 O343 1.976 . S
Fe333 O347 1.996 . S
Fe333 O350 1.997 . S
O334 Fe333 2.002 . S
O334 C351 1.295 . S
O335 Fe330 1.997 . S
O335 C351 1.235 . S
O336 Fe330 2.002 . S
O336 C337 1.295 . S
C337 O336 1.295 . S
C337 O339 1.235 . S
C338 O343 1.287 . S
C338 O344 1.255 . S
O339 Fe331 1.997 . S
O339 C337 1.235 . S
C340 O346 1.287 . S
C340 O347 1.255 . S
O341 Fe330 1.976 . S
O341 C348 1.287 . S
O342 Fe331 1.996 . S
O342 C348 1.255 . S
O343 Fe333 1.976 . S
O343 C338 1.287 . S
O344 Fe330 1.996 . S
O344 C338 1.255 . S
C345 O349 1.295 . S
C345 O350 1.235 . S
O346 Fe331 1.976 . S
O346 C340 1.287 . S
O347 Fe333 1.996 . S
O347 C340 1.255 . S
C348 O341 1.287 . S
C348 O342 1.255 . S
O349 Fe331 2.002 . S
O349 C345 1.295 . S
O350 Fe333 1.997 . S
O350 C345 1.235 . S
C351 O334 1.295 . S
C351 O335 1.235 . S
H352 C360 0.929 . S
H353 C362 0.930 . S
H354 C364 0.930 . S
H355 C367 0.929 . S
H356 C370 0.930 . S
H357 C372 0.960 . S
H358 C372 0.960 . S
H359 C372 0.960 . S
C360 H352 0.929 . S
C360 C361 1.377 . S
C360 C362 1.384 . S
C361 C360 1.377 . S
C361 C367 1.390 . S
C362 H353 0.930 . S
C362 C360 1.384 . S
C362 C363 1.372 . S
C363 C362 1.372 . S
C363 C364 1.400 . S
C363 C368 1.490 . S
C364 H354 0.930 . S
C364 C363 1.400 . S
C364 C367 1.386 . S
H365 C381 0.930 . S
H366 C382 0.931 1_545 S
C367 H355 0.929 . S
C367 C361 1.390 . S
C367 C364 1.386 . S
C368 C363 1.490 . S
C368 C370 1.395 . S
C368 C371 1.403 . S
H369 C375 0.930 . S
C370 H356 0.930 . S
C370 C368 1.395 . S
C370 C373 1.403 . S
C371 C368 1.403 . S
C371 C372 1.524 . S
C371 C375 1.400 . S
C372 H357 0.960 . S
C372 H358 0.960 . S
C372 H359 0.960 . S
C372 C371 1.524 . S
C373 C370 1.403 . S
C373 C374 1.392 . S
C373 C377 1.495 . S
C374 C373 1.392 . S
C374 C375 1.385 . S
C374 C376 1.478 . S
C375 H369 0.930 . S
C375 C371 1.400 . S
C375 C374 1.385 . S
C376 C374 1.478 . S
C376 C378 1.381 1_545 S
C376 C382 1.383 1_545 S
C377 C373 1.495 . S
C377 H383 0.959 . S
C377 H384 0.961 . S
C377 H385 0.960 . S
C378 C376 1.381 1_565 S
C378 C379 1.394 . S
C378 H386 0.930 . S
C379 C378 1.394 . S
C379 C380 1.383 . S
C379 H387 0.929 . S
C380 C379 1.383 . S
C380 C381 1.377 . S
C381 H365 0.930 . S
C381 C380 1.377 . S
C381 C382 1.379 . S
C382 H366 0.931 1_565 S
C382 C376 1.383 1_565 S
C382 C381 1.379 . S
H383 C377 0.959 . S
H384 C377 0.961 . S
H385 C377 0.960 . S
H386 C378 0.930 . S
H387 C379 0.929 . S
H388 C396 0.929 . S
H389 C398 0.930 . S
H390 C400 0.930 . S
H391 C403 0.929 . S
H392 C406 0.930 . S
H393 C408 0.960 . S
H394 C408 0.960 . S
H395 C408 0.960 . S
C396 H388 0.929 . S
C396 C397 1.377 . S
C396 C398 1.384 . S
C397 C396 1.377 . S
C397 C403 1.390 . S
C398 H389 0.930 . S
C398 C396 1.384 . S
C398 C399 1.372 . S
C399 C398 1.372 . S
C399 C400 1.400 . S
C399 C404 1.490 . S
C400 H390 0.930 . S
C400 C399 1.400 . S
C400 C403 1.386 . S
H401 C417 0.930 . S
H402 C418 0.931 . S
C403 H391 0.929 . S
C403 C397 1.390 . S
C403 C400 1.386 . S
C404 C399 1.490 . S
C404 C406 1.395 . S
C404 C407 1.403 . S
H405 C411 0.930 . S
C406 H392 0.930 . S
C406 C404 1.395 . S
C406 C409 1.403 . S
C407 C404 1.403 . S
C407 C408 1.524 . S
C407 C411 1.400 . S
C408 H393 0.960 . S
C408 H394 0.960 . S
C408 H395 0.960 . S
C408 C407 1.524 . S
C409 C406 1.403 . S
C409 C410 1.392 . S
C409 C413 1.495 . S
C410 C409 1.392 . S
C410 C411 1.385 . S
C410 C412 1.465 1_565 S
C411 H405 0.930 . S
C411 C407 1.400 . S
C411 C410 1.385 . S
C412 C410 1.465 1_545 S
C412 C414 1.385 . S
C412 C418 1.392 . S
C413 C409 1.495 . S
C413 H419 0.959 . S
C413 H420 0.961 1_565 S
C413 H421 0.960 . S
C414 C412 1.385 . S
C414 C415 1.394 . S
C414 H422 0.930 1_545 S
C415 C414 1.394 . S
C415 C416 1.383 . S
C415 H423 0.929 . S
C416 C415 1.383 . S
C416 C417 1.377 . S
C417 H401 0.930 . S
C417 C416 1.377 . S
C417 C418 1.379 . S
C418 H402 0.931 . S
C418 C412 1.392 . S
C418 C417 1.379 . S
H419 C413 0.959 . S
H420 C413 0.961 1_545 S
H421 C413 0.960 . S
H422 C414 0.930 1_565 S
H423 C415 0.929 . S
H424 C432 0.929 . S
H425 C434 0.930 . S
H426 C436 0.930 . S
H427 C439 0.929 . S
H428 C442 0.930 . S
H429 C444 0.960 . S
H430 C444 0.960 . S
H431 C444 0.960 . S
C432 H424 0.929 . S
C432 C433 1.377 . S
C432 C434 1.384 . S
C433 C432 1.377 . S
C433 C439 1.390 . S
C434 H425 0.930 . S
C434 C432 1.384 . S
C434 C435 1.372 . S
C435 C434 1.372 . S
C435 C436 1.400 . S
C435 C440 1.490 . S
C436 H426 0.930 . S
C436 C435 1.400 . S
C436 C439 1.386 . S
H437 C453 0.930 . S
H438 C454 0.931 . S
C439 H427 0.929 . S
C439 C433 1.390 . S
C439 C436 1.386 . S
C440 C435 1.490 . S
C440 C442 1.395 . S
C440 C443 1.403 . S
H441 C447 0.930 . S
C442 H428 0.930 . S
C442 C440 1.395 . S
C442 C445 1.403 . S
C443 C440 1.403 . S
C443 C444 1.524 . S
C443 C447 1.400 . S
C444 H429 0.960 . S
C444 H430 0.960 . S
C444 H431 0.960 . S
C444 C443 1.524 . S
C445 C442 1.403 . S
C445 C446 1.392 . S
C445 C449 1.495 . S
C446 C445 1.392 . S
C446 C447 1.385 . S
C446 C448 1.478 . S
C447 H441 0.930 . S
C447 C443 1.400 . S
C447 C446 1.385 . S
C448 C446 1.478 . S
C448 C450 1.381 1_565 S
C448 C454 1.383 1_565 S
C449 C445 1.495 . S
C449 H455 0.959 . S
C449 H456 0.961 . S
C449 H457 0.960 . S
C450 C448 1.381 1_545 S
C450 C451 1.394 . S
C450 H458 0.930 1_545 S
C451 C450 1.394 . S
C451 C452 1.383 . S
C451 H459 0.929 . S
C452 C451 1.383 . S
C452 C453 1.377 . S
C453 H437 0.930 . S
C453 C452 1.377 . S
C453 C454 1.379 . S
C454 H438 0.931 . S
C454 C448 1.383 1_545 S
C454 C453 1.379 . S
H455 C449 0.959 . S
H456 C449 0.961 . S
H457 C449 0.960 . S
H458 C450 0.930 1_565 S
H459 C451 0.929 . S
H460 C468 0.929 . S
H461 C470 0.930 . S
H462 C472 0.930 1_545 S
H463 C475 0.929 . S
H464 C478 0.930 . S
H465 C480 0.960 . S
H466 C480 0.960 1_565 S
H467 C480 0.960 . S
C468 H460 0.929 . S
C468 C469 1.377 . S
C468 C470 1.384 . S
C469 C468 1.377 . S
C469 C475 1.390 . S
C470 H461 0.930 . S
C470 C468 1.384 . S
C470 C471 1.372 1_565 S
C471 C470 1.372 1_545 S
C471 C472 1.400 1_545 S
C471 C476 1.490 . S
C472 H462 0.930 1_565 S
C472 C471 1.400 1_565 S
C472 C475 1.386 . S
H473 C489 0.930 . S
H474 C490 0.931 . S
C475 H463 0.929 . S
C475 C469 1.390 . S
C475 C472 1.386 . S
C476 C471 1.490 . S
C476 C478 1.395 . S
C476 C479 1.403 . S
H477 C483 0.930 . S
C478 H464 0.930 . S
C478 C476 1.395 . S
C478 C481 1.403 . S
C479 C476 1.403 . S
C479 C480 1.524 . S
C479 C483 1.400 . S
C480 H465 0.960 . S
C480 H466 0.960 1_545 S
C480 H467 0.960 . S
C480 C479 1.524 . S
C481 C478 1.403 . S
C481 C482 1.392 . S
C481 C485 1.495 . S
C482 C481 1.392 . S
C482 C483 1.385 . S
C482 C484 1.478 . S
C483 H477 0.930 . S
C483 C479 1.400 . S
C483 C482 1.385 . S
C484 C482 1.478 . S
C484 C486 1.381 . S
C484 C490 1.383 . S
C485 C481 1.495 . S
C485 H491 0.959 . S
C485 H492 0.961 . S
C485 H493 0.960 . S
C486 C484 1.381 . S
C486 C487 1.394 . S
C486 H494 0.930 . S
C487 C486 1.394 . S
C487 C488 1.383 . S
C487 H495 0.929 . S
C488 C487 1.383 . S
C488 C489 1.377 . S
C489 H473 0.930 . S
C489 C488 1.377 . S
C489 C490 1.379 . S
C490 H474 0.931 . S
C490 C484 1.383 . S
C490 C489 1.379 . S
H491 C485 0.959 . S
H492 C485 0.961 . S
H493 C485 0.960 . S
H494 C486 0.930 . S
H495 C487 0.929 . S
H496 C504 0.929 . S
H497 C506 0.925 1_565 S
H498 C508 0.930 . S
H499 C511 0.929 . S
H500 C514 0.930 . S
H501 C516 0.960 . S
H502 C516 0.960 1_545 S
H503 C516 0.960 1_545 S
C504 H496 0.929 . S
C504 C505 1.377 . S
C504 C506 1.384 . S
C505 C504 1.377 . S
C505 C511 1.390 . S
C506 H497 0.925 1_545 S
C506 C504 1.384 . S
C506 C507 1.372 1_545 S
C507 C506 1.372 1_565 S
C507 C508 1.400 1_565 S
C507 C512 1.490 . S
C508 H498 0.930 . S
C508 C507 1.400 1_545 S
C508 C511 1.386 . S
H509 C525 0.930 . S
H510 C526 0.931 . S
C511 H499 0.929 . S
C511 C505 1.390 . S
C511 C508 1.386 . S
C512 C507 1.490 . S
C512 C514 1.395 . S
C512 C515 1.403 . S
H513 C519 0.930 . S
C514 H500 0.930 . S
C514 C512 1.395 . S
C514 C517 1.403 . S
C515 C512 1.403 . S
C515 C516 1.524 . S
C515 C519 1.400 . S
C516 H501 0.960 . S
C516 H502 0.960 1_565 S
C516 H503 0.960 1_565 S
C516 C515 1.524 . S
C517 C514 1.403 . S
C517 C518 1.392 . S
C517 C521 1.495 . S
C518 C517 1.392 . S
C518 C519 1.385 . S
C518 C520 1.478 . S
C519 H513 0.930 . S
C519 C515 1.400 . S
C519 C518 1.385 . S
C520 C518 1.478 . S
C520 C522 1.381 . S
C520 C526 1.383 . S
C521 C517 1.495 . S
C521 H527 0.959 . S
C521 H528 0.961 . S
C521 H529 0.960 . S
C522 C520 1.381 . S
C522 C523 1.394 . S
C522 H530 0.930 . S
C523 C522 1.394 . S
C523 C524 1.383 . S
C523 H531 0.929 . S
C524 C523 1.383 . S
C524 C525 1.377 . S
C525 H509 0.930 . S
C525 C524 1.377 . S
C525 C526 1.379 . S
C526 H510 0.931 . S
C526 C520 1.383 . S
C526 C525 1.379 . S
H527 C521 0.959 . S
H528 C521 0.961 . S
H529 C521 0.960 . S
H530 C522 0.930 . S
H531 C523 0.929 . S
H532 C540 0.929 . S
H533 C542 0.930 . S
H534 C544 0.930 . S
H535 C547 0.929 . S
H536 C550 0.930 . S
H537 C552 0.960 . S
H538 C552 0.960 . S
H539 C552 0.960 1_565 S
C540 H532 0.929 . S
C540 C541 1.377 . S
C540 C542 1.384 1_565 S
C541 C540 1.377 . S
C541 C547 1.390 . S
C542 H533 0.930 . S
C542 C540 1.384 1_545 S
C542 C543 1.372 . S
C543 C542 1.372 . S
C543 C544 1.400 1_545 S
C543 C548 1.490 . S
C544 H534 0.930 . S
C544 C543 1.400 1_565 S
C544 C547 1.386 . S
H545 C561 0.930 . S
H546 C562 0.931 . S
C547 H535 0.929 . S
C547 C541 1.390 . S
C547 C544 1.386 . S
C548 C543 1.490 . S
C548 C550 1.395 . S
C548 C551 1.403 . S
H549 C555 0.930 . S
C550 H536 0.930 . S
C550 C548 1.395 . S
C550 C553 1.403 . S
C551 C548 1.403 . S
C551 C552 1.524 . S
C551 C555 1.400 . S
C552 H537 0.960 . S
C552 H538 0.960 . S
C552 H539 0.960 1_545 S
C552 C551 1.524 . S
C553 C550 1.403 . S
C553 C554 1.392 . S
C553 C557 1.495 . S
C554 C553 1.392 . S
C554 C555 1.385 . S
C554 C556 1.478 . S
C555 H549 0.930 . S
C555 C551 1.400 . S
C555 C554 1.385 . S
C556 C554 1.478 . S
C556 C558 1.381 . S
C556 C562 1.383 . S
C557 C553 1.495 . S
C557 H563 0.959 . S
C557 H564 0.961 . S
C557 H565 0.960 . S
C558 C556 1.381 . S
C558 C559 1.394 . S
C558 H566 0.930 . S
C559 C558 1.394 . S
C559 C560 1.383 . S
C559 H567 0.929 . S
C560 C559 1.383 . S
C560 C561 1.377 . S
C561 H545 0.930 . S
C561 C560 1.377 . S
C561 C562 1.379 . S
C562 H546 0.931 . S
C562 C556 1.383 . S
C562 C561 1.379 . S
H563 C557 0.959 . S
H564 C557 0.961 . S
H565 C557 0.960 . S
H566 C558 0.930 . S
H567 C559 0.929 . S
H568 C576 0.929 . S
H569 C578 0.930 . S
H570 C580 0.930 1_545 S
H571 C583 0.929 . S
H572 C586 0.930 . S
H573 C588 0.960 . S
H574 C588 0.960 . S
H575 C588 0.960 . S
C576 H568 0.929 . S
C576 C577 1.377 . S
C576 C578 1.384 . S
C577 C576 1.377 . S
C577 C583 1.390 . S
C578 H569 0.930 . S
C578 C576 1.384 . S
C578 C579 1.372 1_565 S
C579 C578 1.372 1_545 S
C579 C580 1.400 1_545 S
C579 C584 1.490 . S
C580 H570 0.930 1_565 S
C580 C579 1.400 1_565 S
C580 C583 1.386 . S
H581 C597 0.930 . S
H582 C598 0.931 . S
C583 H571 0.929 . S
C583 C577 1.390 . S
C583 C580 1.386 . S
C584 C579 1.490 . S
C584 C586 1.395 . S
C584 C587 1.403 . S
H585 C591 0.930 . S
C586 H572 0.930 . S
C586 C584 1.395 . S
C586 C589 1.403 . S
C587 C584 1.403 . S
C587 C588 1.524 . S
C587 C591 1.400 . S
C588 H573 0.960 . S
C588 H574 0.960 . S
C588 H575 0.960 . S
C588 C587 1.524 . S
C589 C586 1.403 . S
C589 C590 1.392 . S
C589 C593 1.495 . S
C590 C589 1.392 . S
C590 C591 1.385 . S
C590 C592 1.478 . S
C591 H585 0.930 . S
C591 C587 1.400 . S
C591 C590 1.385 . S
C592 C590 1.478 . S
C592 C594 1.381 . S
C592 C598 1.383 . S
C593 C589 1.495 . S
C593 H599 0.959 . S
C593 H600 0.961 . S
C593 H601 0.960 . S
C594 C592 1.381 . S
C594 C595 1.394 . S
C594 H602 0.930 . S
C595 C594 1.394 . S
C595 C596 1.383 . S
C595 H603 0.929 . S
C596 C595 1.383 . S
C596 C597 1.377 . S
C597 H581 0.930 . S
C597 C596 1.377 . S
C597 C598 1.379 . S
C598 H582 0.931 . S
C598 C592 1.383 . S
C598 C597 1.379 . S
H599 C593 0.959 . S
H600 C593 0.961 . S
H601 C593 0.960 . S
H602 C594 0.930 . S
H603 C595 0.929 . S
H604 C612 0.929 . S
H605 C614 0.930 . S
H606 C616 0.930 . S
H607 C619 0.929 . S
H608 C622 0.930 . S
H609 C624 0.960 . S
H610 C624 0.960 . S
H611 C624 0.960 1_545 S
C612 H604 0.929 . S
C612 C613 1.377 . S
C612 C614 1.384 1_545 S
C613 C612 1.377 . S
C613 C619 1.390 . S
C614 H605 0.930 . S
C614 C612 1.384 1_565 S
C614 C615 1.372 . S
C615 C614 1.372 . S
C615 C616 1.400 1_565 S
C615 C620 1.490 . S
C616 H606 0.930 . S
C616 C615 1.400 1_545 S
C616 C619 1.386 . S
H617 C633 0.930 . S
H618 C634 0.931 . S
C619 H607 0.929 . S
C619 C613 1.390 . S
C619 C616 1.386 . S
C620 C615 1.490 . S
C620 C622 1.395 . S
C620 C623 1.403 . S
H621 C627 0.930 . S
C622 H608 0.930 . S
C622 C620 1.395 . S
C622 C625 1.403 . S
C623 C620 1.403 . S
C623 C624 1.524 . S
C623 C627 1.400 . S
C624 H609 0.960 . S
C624 H610 0.960 . S
C624 H611 0.960 1_565 S
C624 C623 1.524 . S
C625 C622 1.403 . S
C625 C626 1.392 . S
C625 C629 1.495 . S
C626 C625 1.392 . S
C626 C627 1.385 . S
C626 C628 1.478 . S
C627 H621 0.930 . S
C627 C623 1.400 . S
C627 C626 1.385 . S
C628 C626 1.478 . S
C628 C630 1.381 . S
C628 C634 1.383 . S
C629 C625 1.495 . S
C629 H635 0.959 . S
C629 H636 0.961 . S
C629 H637 0.960 . S
C630 C628 1.381 . S
C630 C631 1.394 . S
C630 H638 0.930 . S
C631 C630 1.394 . S
C631 C632 1.383 . S
C631 H639 0.929 . S
C632 C631 1.383 . S
C632 C633 1.377 . S
C633 H617 0.930 . S
C633 C632 1.377 . S
C633 C634 1.379 . S
C634 H618 0.931 . S
C634 C628 1.383 . S
C634 C633 1.379 . S
H635 C629 0.959 . S
H636 C629 0.961 . S
H637 C629 0.960 . S
H638 C630 0.930 . S
H639 C631 0.929 . S
H640 C648 0.929 . S
H641 C650 0.930 . S
H642 C652 0.930 . S
H643 C655 0.929 . S
H644 C658 0.930 . S
H645 C660 0.960 . S
H646 C660 0.960 . S
H647 C660 0.960 . S
C648 H640 0.929 . S
C648 C649 1.377 . S
C648 C650 1.384 . S
C649 C648 1.377 . S
C649 C655 1.390 . S
C650 H641 0.930 . S
C650 C648 1.384 . S
C650 C651 1.372 . S
C651 C650 1.372 . S
C651 C652 1.400 . S
C651 C656 1.490 . S
C652 H642 0.930 . S
C652 C651 1.400 . S
C652 C655 1.386 . S
H653 C669 0.930 . S
H654 C670 0.931 . S
C655 H643 0.929 . S
C655 C649 1.390 . S
C655 C652 1.386 . S
C656 C651 1.490 . S
C656 C658 1.395 . S
C656 C659 1.403 . S
H657 C663 0.930 . S
C658 H644 0.930 . S
C658 C656 1.395 . S
C658 C661 1.403 . S
C659 C656 1.403 . S
C659 C660 1.524 . S
C659 C663 1.400 . S
C660 H645 0.960 . S
C660 H646 0.960 . S
C660 H647 0.960 . S
C660 C659 1.524 . S
C661 C658 1.403 . S
C661 C662 1.392 . S
C661 C665 1.495 . S
C662 C661 1.392 . S
C662 C663 1.385 . S
C662 C664 1.478 . S
C663 H657 0.930 . S
C663 C659 1.400 . S
C663 C662 1.385 . S
C664 C662 1.478 . S
C664 C666 1.381 . S
C664 C670 1.383 . S
C665 C661 1.495 . S
C665 H671 0.959 . S
C665 H672 0.961 . S
C665 H673 0.960 . S
C666 C664 1.381 . S
C666 C667 1.394 . S
C666 H674 0.930 . S
C667 C666 1.394 . S
C667 C668 1.383 . S
C667 H675 0.929 . S
C668 C667 1.383 . S
C668 C669 1.377 . S
C669 H653 0.930 . S
C669 C668 1.377 . S
C669 C670 1.379 . S
C670 H654 0.931 . S
C670 C664 1.383 . S
C670 C669 1.379 . S
H671 C665 0.959 . S
H672 C665 0.961 . S
H673 C665 0.960 . S
H674 C666 0.930 . S
H675 C667 0.929 . S
H676 C684 0.929 . S
H677 C686 0.930 . S
H678 C688 0.930 . S
H679 C691 0.929 . S
H680 C694 0.930 . S
H681 C696 0.960 . S
H682 C696 0.960 . S
H683 C696 0.960 . S
C684 H676 0.929 . S
C684 C685 1.377 . S
C684 C686 1.384 . S
C685 C684 1.377 . S
C685 C691 1.390 . S
C686 H677 0.930 . S
C686 C684 1.384 . S
C686 C687 1.372 . S
C687 C686 1.372 . S
C687 C688 1.400 . S
C687 C692 1.490 . S
C688 H678 0.930 . S
C688 C687 1.400 . S
C688 C691 1.386 . S
H689 C705 0.930 . S
H690 C706 0.931 . S
C691 H679 0.929 . S
C691 C685 1.390 . S
C691 C688 1.386 . S
C692 C687 1.490 . S
C692 C694 1.395 . S
C692 C695 1.403 . S
H693 C699 0.930 . S
C694 H680 0.930 . S
C694 C692 1.395 . S
C694 C697 1.403 . S
C695 C692 1.403 . S
C695 C696 1.524 . S
C695 C699 1.400 . S
C696 H681 0.960 . S
C696 H682 0.960 . S
C696 H683 0.960 . S
C696 C695 1.524 . S
C697 C694 1.403 . S
C697 C698 1.392 . S
C697 C701 1.495 . S
C698 C697 1.392 . S
C698 C699 1.385 . S
C698 C700 1.478 . S
C699 H693 0.930 . S
C699 C695 1.400 . S
C699 C698 1.385 . S
C700 C698 1.478 . S
C700 C702 1.381 . S
C700 C706 1.383 . S
C701 C697 1.495 . S
C701 H707 0.959 . S
C701 H708 0.961 . S
C701 H709 0.960 . S
C702 C700 1.381 . S
C702 C703 1.394 . S
C702 H710 0.930 . S
C703 C702 1.394 . S
C703 C704 1.383 . S
C703 H711 0.929 . S
C704 C703 1.383 . S
C704 C705 1.377 . S
C705 H689 0.930 . S
C705 C704 1.377 . S
C705 C706 1.379 . S
C706 H690 0.931 . S
C706 C700 1.383 . S
C706 C705 1.379 . S
H707 C701 0.959 . S
H708 C701 0.961 . S
H709 C701 0.960 . S
H710 C702 0.930 . S
H711 C703 0.929 . S
H712 C720 0.929 . S
H713 C722 0.930 . S
H714 C724 0.930 . S
H715 C727 0.929 . S
H716 C730 0.930 . S
H717 C732 0.960 . S
H718 C732 0.960 . S
H719 C732 0.960 . S
C720 H712 0.929 . S
C720 C721 1.377 . S
C720 C722 1.384 . S
C721 C720 1.377 . S
C721 C727 1.390 . S
C722 H713 0.930 . S
C722 C720 1.384 . S
C722 C723 1.372 . S
C723 C722 1.372 . S
C723 C724 1.400 . S
C723 C728 1.490 . S
C724 H714 0.930 . S
C724 C723 1.400 . S
C724 C727 1.386 . S
H725 C741 0.930 . S
H726 C742 0.931 . S
C727 H715 0.929 . S
C727 C721 1.390 . S
C727 C724 1.386 . S
C728 C723 1.490 . S
C728 C730 1.395 . S
C728 C731 1.403 . S
H729 C735 0.930 . S
C730 H716 0.930 . S
C730 C728 1.395 . S
C730 C733 1.403 . S
C731 C728 1.403 . S
C731 C732 1.524 . S
C731 C735 1.400 . S
C732 H717 0.960 . S
C732 H718 0.960 . S
C732 H719 0.960 . S
C732 C731 1.524 . S
C733 C730 1.403 . S
C733 C734 1.392 . S
C733 C737 1.495 . S
C734 C733 1.392 . S
C734 C735 1.385 . S
C734 C736 1.478 . S
C735 H729 0.930 . S
C735 C731 1.400 . S
C735 C734 1.385 . S
C736 C734 1.478 . S
C736 C738 1.381 . S
C736 C742 1.383 . S
C737 C733 1.495 . S
C737 H743 0.959 . S
C737 H744 0.961 . S
C737 H745 0.960 . S
C738 C736 1.381 . S
C738 C739 1.394 . S
C738 H746 0.930 . S
C739 C738 1.394 . S
C739 C740 1.383 . S
C739 H747 0.929 . S
C740 C739 1.383 . S
C740 C741 1.377 . S
C741 H725 0.930 . S
C741 C740 1.377 . S
C741 C742 1.379 . S
C742 H726 0.931 . S
C742 C736 1.383 . S
C742 C741 1.379 . S
H743 C737 0.959 . S
H744 C737 0.961 . S
H745 C737 0.960 . S
H746 C738 0.930 . S
H747 C739 0.929 . S
H748 C756 0.929 . S
H749 C758 0.930 . S
H750 C760 0.930 . S
H751 C763 0.929 . S
H752 C766 0.930 . S
H753 C768 0.960 . S
H754 C768 0.960 . S
H755 C768 0.960 . S
C756 H748 0.929 . S
C756 C757 1.377 . S
C756 C758 1.384 . S
C757 C756 1.377 . S
C757 C763 1.390 . S
C758 H749 0.930 . S
C758 C756 1.384 . S
C758 C759 1.372 . S
C759 C758 1.372 . S
C759 C760 1.400 . S
C759 C764 1.490 . S
C760 H750 0.930 . S
C760 C759 1.400 . S
C760 C763 1.386 . S
H761 C777 0.930 . S
H762 C778 0.931 . S
C763 H751 0.929 . S
C763 C757 1.390 . S
C763 C760 1.386 . S
C764 C759 1.490 . S
C764 C766 1.395 . S
C764 C767 1.403 . S
H765 C771 0.930 . S
C766 H752 0.930 . S
C766 C764 1.395 . S
C766 C769 1.403 . S
C767 C764 1.403 . S
C767 C768 1.524 . S
C767 C771 1.400 . S
C768 H753 0.960 . S
C768 H754 0.960 . S
C768 H755 0.960 . S
C768 C767 1.524 . S
C769 C766 1.403 . S
C769 C770 1.392 . S
C769 C773 1.495 . S
C770 C769 1.392 . S
C770 C771 1.385 . S
C770 C772 1.478 . S
C771 H765 0.930 . S
C771 C767 1.400 . S
C771 C770 1.385 . S
C772 C770 1.478 . S
C772 C774 1.381 . S
C772 C778 1.383 . S
C773 C769 1.495 . S
C773 H779 0.959 . S
C773 H780 0.961 . S
C773 H781 0.960 . S
C774 C772 1.381 . S
C774 C775 1.394 . S
C774 H782 0.930 . S
C775 C774 1.394 . S
C775 C776 1.383 . S
C775 H783 0.929 . S
C776 C775 1.383 . S
C776 C777 1.377 . S
C777 H761 0.930 . S
C777 C776 1.377 . S
C777 C778 1.379 . S
C778 H762 0.931 . S
C778 C772 1.383 . S
C778 C777 1.379 . S
H779 C773 0.959 . S
H780 C773 0.961 . S
H781 C773 0.960 . S
H782 C774 0.930 . S
H783 C775 0.929 . S
H784 C792 0.929 . S
H785 C794 0.930 . S
H786 C796 0.930 . S
H787 C799 0.929 . S
H788 C802 0.930 . S
H789 C804 0.960 . S
H790 C804 0.960 . S
H791 C804 0.960 . S
C792 H784 0.929 . S
C792 C793 1.377 . S
C792 C794 1.384 . S
C793 C792 1.377 . S
C793 C799 1.390 . S
C794 H785 0.930 . S
C794 C792 1.384 . S
C794 C795 1.372 . S
C795 C794 1.372 . S
C795 C796 1.400 . S
C795 C800 1.490 . S
C796 H786 0.930 . S
C796 C795 1.400 . S
C796 C799 1.386 . S
H797 C813 0.930 . S
H798 C814 0.931 . S
C799 H787 0.929 . S
C799 C793 1.390 . S
C799 C796 1.386 . S
C800 C795 1.490 . S
C800 C802 1.395 . S
C800 C803 1.403 . S
H801 C807 0.930 . S
C802 H788 0.930 . S
C802 C800 1.395 . S
C802 C805 1.403 . S
C803 C800 1.403 . S
C803 C804 1.524 . S
C803 C807 1.400 . S
C804 H789 0.960 . S
C804 H790 0.960 . S
C804 H791 0.960 . S
C804 C803 1.524 . S
C805 C802 1.403 . S
C805 C806 1.392 . S
C805 C809 1.495 . S
C806 C805 1.392 . S
C806 C807 1.385 . S
C806 C808 1.478 . S
C807 H801 0.930 . S
C807 C803 1.400 . S
C807 C806 1.385 . S
C808 C806 1.478 . S
C808 C810 1.381 . S
C808 C814 1.383 . S
C809 C805 1.495 . S
C809 H815 0.959 . S
C809 H816 0.961 . S
C809 H817 0.960 . S
C810 C808 1.381 . S
C810 C811 1.394 . S
C810 H818 0.930 . S
C811 C810 1.394 . S
C811 C812 1.383 . S
C811 H819 0.929 . S
C812 C811 1.383 . S
C812 C813 1.377 . S
C813 H797 0.930 . S
C813 C812 1.377 . S
C813 C814 1.379 . S
C814 H798 0.931 . S
C814 C808 1.383 . S
C814 C813 1.379 . S
H815 C809 0.959 . S
H816 C809 0.961 . S
H817 C809 0.960 . S
H818 C810 0.930 . S
H819 C811 0.929 . S
H820 C828 0.929 . S
H821 C830 0.930 . S
H822 C832 0.930 . S
H823 C835 0.929 . S
H824 C838 0.930 . S
H825 C840 0.960 . S
H826 C840 0.960 . S
H827 C840 0.960 . S
C828 H820 0.929 . S
C828 C829 1.377 . S
C828 C830 1.384 . S
C829 C828 1.377 . S
C829 C835 1.390 . S
C830 H821 0.930 . S
C830 C828 1.384 . S
C830 C831 1.372 . S
C831 C830 1.372 . S
C831 C832 1.400 . S
C831 C836 1.490 . S
C832 H822 0.930 . S
C832 C831 1.400 . S
C832 C835 1.386 . S
H833 C849 0.930 . S
H834 C850 0.931 . S
C835 H823 0.929 . S
C835 C829 1.390 . S
C835 C832 1.386 . S
C836 C831 1.490 . S
C836 C838 1.395 . S
C836 C839 1.403 . S
H837 C843 0.930 . S
C838 H824 0.930 . S
C838 C836 1.395 . S
C838 C841 1.403 . S
C839 C836 1.403 . S
C839 C840 1.524 . S
C839 C843 1.400 . S
C840 H825 0.960 . S
C840 H826 0.960 . S
C840 H827 0.960 . S
C840 C839 1.524 . S
C841 C838 1.403 . S
C841 C842 1.392 . S
C841 C845 1.495 . S
C842 C841 1.392 . S
C842 C843 1.385 . S
C842 C844 1.478 . S
C843 H837 0.930 . S
C843 C839 1.400 . S
C843 C842 1.385 . S
C844 C842 1.478 . S
C844 C846 1.381 . S
C844 C850 1.383 . S
C845 C841 1.495 . S
C845 H851 0.959 . S
C845 H852 0.961 . S
C845 H853 0.960 . S
C846 C844 1.381 . S
C846 C847 1.394 . S
C846 H854 0.930 . S
C847 C846 1.394 . S
C847 C848 1.383 . S
C847 H855 0.929 . S
C848 C847 1.383 . S
C848 C849 1.377 . S
C849 H833 0.930 . S
C849 C848 1.377 . S
C849 C850 1.379 . S
C850 H834 0.931 . S
C850 C844 1.383 . S
C850 C849 1.379 . S
H851 C845 0.959 . S
H852 C845 0.961 . S
H853 C845 0.960 . S
H854 C846 0.930 . S
H855 C847 0.929 . S
H856 C864 0.929 . S
H857 C866 0.930 . S
H858 C868 0.930 . S
H859 C871 0.929 . S
H860 C874 0.930 . S
H861 C876 0.960 . S
H862 C876 0.960 . S
H863 C876 0.960 . S
C864 H856 0.929 . S
C864 C865 1.377 . S
C864 C866 1.384 . S
C865 C864 1.377 . S
C865 C871 1.390 . S
C866 H857 0.930 . S
C866 C864 1.384 . S
C866 C867 1.372 . S
C867 C866 1.372 . S
C867 C868 1.400 . S
C867 C872 1.490 . S
C868 H858 0.930 . S
C868 C867 1.400 . S
C868 C871 1.386 . S
H869 C885 0.930 . S
H870 C886 0.931 . S
C871 H859 0.929 . S
C871 C865 1.390 . S
C871 C868 1.386 . S
C872 C867 1.490 . S
C872 C874 1.395 . S
C872 C875 1.403 . S
H873 C879 0.930 . S
C874 H860 0.930 . S
C874 C872 1.395 . S
C874 C877 1.403 . S
C875 C872 1.403 . S
C875 C876 1.524 . S
C875 C879 1.400 . S
C876 H861 0.960 . S
C876 H862 0.960 . S
C876 H863 0.960 . S
C876 C875 1.524 . S
C877 C874 1.403 . S
C877 C878 1.392 . S
C877 C881 1.495 . S
C878 C877 1.392 . S
C878 C879 1.385 . S
C878 C880 1.478 . S
C879 H873 0.930 . S
C879 C875 1.400 . S
C879 C878 1.385 . S
C880 C878 1.478 . S
C880 C882 1.381 . S
C880 C886 1.383 . S
C881 C877 1.495 . S
C881 H887 0.959 . S
C881 H888 0.961 . S
C881 H889 0.960 . S
C882 C880 1.381 . S
C882 C883 1.394 . S
C882 H890 0.930 . S
C883 C882 1.394 . S
C883 C884 1.383 . S
C883 H891 0.929 . S
C884 C883 1.383 . S
C884 C885 1.377 . S
C885 H869 0.930 . S
C885 C884 1.377 . S
C885 C886 1.379 . S
C886 H870 0.931 . S
C886 C880 1.383 . S
C886 C885 1.379 . S
H887 C881 0.959 . S
H888 C881 0.961 . S
H889 C881 0.960 . S
H890 C882 0.930 . S
H891 C883 0.929 . S
H892 C900 0.929 . S
H893 C902 0.930 . S
H894 C904 0.930 . S
H895 C907 0.929 . S
H896 C910 0.930 . S
H897 C912 0.960 . S
H898 C912 0.960 . S
H899 C912 0.960 . S
C900 H892 0.929 . S
C900 C901 1.377 . S
C900 C902 1.384 . S
C901 C900 1.377 . S
C901 C907 1.390 . S
C902 H893 0.930 . S
C902 C900 1.384 . S
C902 C903 1.372 . S
C903 C902 1.372 . S
C903 C904 1.400 . S
C903 C908 1.490 . S
C904 H894 0.930 . S
C904 C903 1.400 . S
C904 C907 1.386 . S
H905 C921 0.930 . S
H906 C922 0.931 . S
C907 H895 0.929 . S
C907 C901 1.390 . S
C907 C904 1.386 . S
C908 C903 1.490 . S
C908 C910 1.395 . S
C908 C911 1.403 . S
H909 C915 0.930 . S
C910 H896 0.930 . S
C910 C908 1.395 . S
C910 C913 1.403 . S
C911 C908 1.403 . S
C911 C912 1.524 . S
C911 C915 1.400 . S
C912 H897 0.960 . S
C912 H898 0.960 . S
C912 H899 0.960 . S
C912 C911 1.524 . S
C913 C910 1.403 . S
C913 C914 1.392 . S
C913 C917 1.495 . S
C914 C913 1.392 . S
C914 C915 1.385 . S
C914 C916 1.478 . S
C915 H909 0.930 . S
C915 C911 1.400 . S
C915 C914 1.385 . S
C916 C914 1.478 . S
C916 C918 1.381 . S
C916 C922 1.383 . S
C917 C913 1.495 . S
C917 H923 0.959 . S
C917 H924 0.961 . S
C917 H925 0.960 . S
C918 C916 1.381 . S
C918 C919 1.394 . S
C918 H926 0.930 . S
C919 C918 1.394 . S
C919 C920 1.383 . S
C919 H927 0.929 . S
C920 C919 1.383 . S
C920 C921 1.377 . S
C921 H905 0.930 . S
C921 C920 1.377 . S
C921 C922 1.379 . S
C922 H906 0.931 . S
C922 C916 1.383 . S
C922 C921 1.379 . S
H923 C917 0.959 . S
H924 C917 0.961 . S
H925 C917 0.960 . S
H926 C918 0.930 . S
H927 C919 0.929 . S
H928 C936 0.929 . S
H929 C938 0.930 . S
H930 C940 0.930 . S
H931 C943 0.929 . S
H932 C946 0.930 . S
H933 C948 0.960 . S
H934 C948 0.960 . S
H935 C948 0.960 . S
C936 H928 0.929 . S
C936 C937 1.377 . S
C936 C938 1.384 . S
C937 C936 1.377 . S
C937 C943 1.390 . S
C938 H929 0.930 . S
C938 C936 1.384 . S
C938 C939 1.372 . S
C939 C938 1.372 . S
C939 C940 1.400 . S
C939 C944 1.490 . S
C940 H930 0.930 . S
C940 C939 1.400 . S
C940 C943 1.386 . S
H941 C957 0.930 . S
H942 C958 0.931 . S
C943 H931 0.929 . S
C943 C937 1.390 . S
C943 C940 1.386 . S
C944 C939 1.490 . S
C944 C946 1.395 . S
C944 C947 1.403 . S
H945 C951 0.930 . S
C946 H932 0.930 . S
C946 C944 1.395 . S
C946 C949 1.403 1_554 S
C947 C944 1.403 . S
C947 C948 1.524 . S
C947 C951 1.400 1_554 S
C948 H933 0.960 . S
C948 H934 0.960 . S
C948 H935 0.960 . S
C948 C947 1.524 . S
C949 C946 1.403 1_556 S
C949 C950 1.392 . S
C949 C953 1.495 . S
C950 C949 1.392 . S
C950 C951 1.385 . S
C950 C952 1.478 . S
C951 H945 0.930 . S
C951 C947 1.400 1_556 S
C951 C950 1.385 . S
C952 C950 1.478 . S
C952 C954 1.381 . S
C952 C958 1.383 . S
C953 C949 1.495 . S
C953 H959 0.959 . S
C953 H960 0.961 . S
C953 H961 0.960 . S
C954 C952 1.381 . S
C954 C955 1.394 . S
C954 H962 0.930 . S
C955 C954 1.394 . S
C955 C956 1.383 . S
C955 H963 0.929 . S
C956 C955 1.383 . S
C956 C957 1.377 . S
C957 H941 0.930 . S
C957 C956 1.377 . S
C957 C958 1.379 . S
C958 H942 0.931 . S
C958 C952 1.383 . S
C958 C957 1.379 . S
H959 C953 0.959 . S
H960 C953 0.961 . S
H961 C953 0.960 . S
H962 C954 0.930 . S
H963 C955 0.929 . S
H964 C972 0.929 . S
H965 C974 0.930 . S
H966 C976 0.930 . S
H967 C979 0.929 . S
H968 C982 0.930 . S
H969 C984 0.960 . S
H970 C984 0.960 . S
H971 C984 0.960 . S
C972 H964 0.929 . S
C972 C973 1.377 . S
C972 C974 1.384 . S
C973 C972 1.377 . S
C973 C979 1.390 . S
C974 H965 0.930 . S
C974 C972 1.384 . S
C974 C975 1.372 . S
C975 C974 1.372 . S
C975 C976 1.400 . S
C975 C980 1.490 . S
C976 H966 0.930 . S
C976 C975 1.400 . S
C976 C979 1.386 . S
H977 C993 0.930 . S
H978 C994 0.931 . S
C979 H967 0.929 . S
C979 C973 1.390 . S
C979 C976 1.386 . S
C980 C975 1.490 . S
C980 C982 1.395 . S
C980 C983 1.403 . S
H981 C987 0.930 . S
C982 H968 0.930 . S
C982 C980 1.395 . S
C982 C985 1.403 . S
C983 C980 1.403 . S
C983 C984 1.524 . S
C983 C987 1.400 . S
C984 H969 0.960 . S
C984 H970 0.960 . S
C984 H971 0.960 . S
C984 C983 1.524 . S
C985 C982 1.403 . S
C985 C986 1.392 . S
C985 C989 1.495 . S
C986 C985 1.392 . S
C986 C987 1.385 . S
C986 C988 1.478 . S
C987 H981 0.930 . S
C987 C983 1.400 . S
C987 C986 1.385 . S
C988 C986 1.478 . S
C988 C990 1.381 . S
C988 C994 1.383 . S
C989 C985 1.495 . S
C989 H995 0.959 . S
C989 H996 0.961 . S
C989 H997 0.960 . S
C990 C988 1.381 . S
C990 C991 1.394 . S
C990 H998 0.930 . S
C991 C990 1.394 . S
C991 C992 1.383 . S
C991 H999 0.929 . S
C992 C991 1.383 . S
C992 C993 1.377 . S
C993 H977 0.930 . S
C993 C992 1.377 . S
C993 C994 1.379 . S
C994 H978 0.931 . S
C994 C988 1.383 . S
C994 C993 1.379 . S
H995 C989 0.959 . S
H996 C989 0.961 . S
H997 C989 0.960 . S
H998 C990 0.930 . S
H999 C991 0.929 . S
H1000 C1008 0.929 . S
H1001 C1010 0.930 . S
H1002 C1012 0.930 . S
H1003 C1015 0.929 . S
H1004 C1018 0.930 . S
H1005 C1020 0.960 . S
H1006 C1020 0.960 . S
H1007 C1020 0.960 . S
C1008 H1000 0.929 . S
C1008 C1009 1.377 . S
C1008 C1010 1.384 . S
C1009 C1008 1.377 . S
C1009 C1015 1.390 . S
C1010 H1001 0.930 . S
C1010 C1008 1.384 . S
C1010 C1011 1.372 . S
C1011 C1010 1.372 . S
C1011 C1012 1.400 . S
C1011 C1016 1.490 . S
C1012 H1002 0.930 . S
C1012 C1011 1.400 . S
C1012 C1015 1.386 . S
H1013 C1029 0.930 . S
H1014 C1030 0.931 . S
C1015 H1003 0.929 . S
C1015 C1009 1.390 . S
C1015 C1012 1.386 . S
C1016 C1011 1.490 . S
C1016 C1018 1.395 . S
C1016 C1019 1.403 . S
H1017 C1023 0.930 . S
C1018 H1004 0.930 . S
C1018 C1016 1.395 . S
C1018 C1021 1.403 1_554 S
C1019 C1016 1.403 . S
C1019 C1020 1.524 . S
C1019 C1023 1.400 1_554 S
C1020 H1005 0.960 . S
C1020 H1006 0.960 . S
C1020 H1007 0.960 . S
C1020 C1019 1.524 . S
C1021 C1018 1.403 1_556 S
C1021 C1022 1.392 . S
C1021 C1025 1.495 . S
C1022 C1021 1.392 . S
C1022 C1023 1.385 . S
C1022 C1024 1.478 . S
C1023 H1017 0.930 . S
C1023 C1019 1.400 1_556 S
C1023 C1022 1.385 . S
C1024 C1022 1.478 . S
C1024 C1026 1.381 . S
C1024 C1030 1.383 . S
C1025 C1021 1.495 . S
C1025 H1031 0.959 . S
C1025 H1032 0.961 . S
C1025 H1033 0.960 . S
C1026 C1024 1.381 . S
C1026 C1027 1.394 . S
C1026 H1034 0.930 . S
C1027 C1026 1.394 . S
C1027 C1028 1.383 . S
C1027 H1035 0.929 . S
C1028 C1027 1.383 . S
C1028 C1029 1.377 . S
C1029 H1013 0.930 . S
C1029 C1028 1.377 . S
C1029 C1030 1.379 . S
C1030 H1014 0.931 . S
C1030 C1024 1.383 . S
C1030 C1029 1.379 . S
H1031 C1025 0.959 . S
H1032 C1025 0.961 . S
H1033 C1025 0.960 . S
H1034 C1026 0.930 . S
H1035 C1027 0.929 . S
H1036 C1044 0.929 . S
H1037 C1046 0.930 . S
H1038 C1048 0.930 . S
H1039 C1051 0.929 . S
H1040 C1054 0.930 . S
H1041 C1056 0.960 . S
H1042 C1056 0.960 . S
H1043 C1056 0.960 . S
C1044 H1036 0.929 . S
C1044 C1045 1.377 . S
C1044 C1046 1.384 . S
C1045 C1044 1.377 . S
C1045 C1051 1.390 . S
C1046 H1037 0.930 . S
C1046 C1044 1.384 . S
C1046 C1047 1.372 . S
C1047 C1046 1.372 . S
C1047 C1048 1.400 . S
C1047 C1052 1.490 . S
C1048 H1038 0.930 . S
C1048 C1047 1.400 . S
C1048 C1051 1.386 . S
H1049 C1065 0.930 . S
H1050 C1066 0.931 . S
C1051 H1039 0.929 . S
C1051 C1045 1.390 . S
C1051 C1048 1.386 . S
C1052 C1047 1.490 . S
C1052 C1054 1.395 . S
C1052 C1055 1.403 . S
H1053 C1059 0.930 . S
C1054 H1040 0.930 . S
C1054 C1052 1.395 . S
C1054 C1057 1.403 . S
C1055 C1052 1.403 . S
C1055 C1056 1.524 . S
C1055 C1059 1.400 . S
C1056 H1041 0.960 . S
C1056 H1042 0.960 . S
C1056 H1043 0.960 . S
C1056 C1055 1.524 . S
C1057 C1054 1.403 . S
C1057 C1058 1.392 . S
C1057 C1061 1.495 . S
C1058 C1057 1.392 . S
C1058 C1059 1.385 . S
C1058 C1060 1.478 . S
C1059 H1053 0.930 . S
C1059 C1055 1.400 . S
C1059 C1058 1.385 . S
C1060 C1058 1.478 . S
C1060 C1062 1.381 . S
C1060 C1066 1.383 . S
C1061 C1057 1.495 . S
C1061 H1067 0.959 . S
C1061 H1068 0.961 . S
C1061 H1069 0.960 . S
C1062 C1060 1.381 . S
C1062 C1063 1.394 . S
C1062 H1070 0.930 . S
C1063 C1062 1.394 . S
C1063 C1064 1.383 . S
C1063 H1071 0.929 . S
C1064 C1063 1.383 . S
C1064 C1065 1.377 . S
C1065 H1049 0.930 . S
C1065 C1064 1.377 . S
C1065 C1066 1.379 . S
C1066 H1050 0.931 . S
C1066 C1060 1.383 . S
C1066 C1065 1.379 . S
H1067 C1061 0.959 . S
H1068 C1061 0.961 . S
H1069 C1061 0.960 . S
H1070 C1062 0.930 . S
H1071 C1063 0.929 . S
H1072 C1080 0.929 . S
H1073 C1082 0.930 . S
H1074 C1084 0.930 . S
H1075 C1087 0.929 . S
H1076 C1090 0.930 . S
H1077 C1092 0.960 . S
H1078 C1092 0.960 1_556 S
H1079 C1092 0.960 . S
C1080 H1072 0.929 . S
C1080 C1081 1.377 . S
C1080 C1082 1.384 . S
C1081 C1080 1.377 . S
C1081 C1087 1.390 . S
C1082 H1073 0.930 . S
C1082 C1080 1.384 . S
C1082 C1083 1.372 . S
C1083 C1082 1.372 . S
C1083 C1084 1.400 . S
C1083 C1088 1.490 . S
C1084 H1074 0.930 . S
C1084 C1083 1.400 . S
C1084 C1087 1.386 . S
H1085 C1101 0.930 . S
H1086 C1102 0.931 . S
C1087 H1075 0.929 . S
C1087 C1081 1.390 . S
C1087 C1084 1.386 . S
C1088 C1083 1.490 . S
C1088 C1090 1.395 1_545 S
C1088 C1091 1.403 1_556 S
H1089 C1095 0.930 . S
C1090 H1076 0.930 . S
C1090 C1088 1.395 1_565 S
C1090 C1093 1.403 . S
C1091 C1088 1.403 1_554 S
C1091 C1092 1.524 . S
C1091 C1095 1.400 . S
C1092 H1077 0.960 . S
C1092 H1078 0.960 1_554 S
C1092 H1079 0.960 . S
C1092 C1091 1.524 . S
C1093 C1090 1.403 . S
C1093 C1094 1.392 1_556 S
C1093 C1097 1.495 . S
C1094 C1093 1.392 1_554 S
C1094 C1095 1.385 1_565 S
C1094 C1096 1.478 . S
C1095 H1089 0.930 . S
C1095 C1091 1.400 . S
C1095 C1094 1.385 1_545 S
C1096 C1094 1.478 . S
C1096 C1098 1.381 . S
C1096 C1102 1.383 . S
C1097 C1093 1.495 . S
C1097 H1103 0.959 . S
C1097 H1104 0.961 . S
C1097 H1105 0.960 . S
C1098 C1096 1.381 . S
C1098 C1099 1.394 . S
C1098 H1106 0.930 . S
C1099 C1098 1.394 . S
C1099 C1100 1.383 . S
C1099 H1107 0.929 . S
C1100 C1099 1.383 . S
C1100 C1101 1.377 . S
C1101 H1085 0.930 . S
C1101 C1100 1.377 . S
C1101 C1102 1.379 . S
C1102 H1086 0.931 . S
C1102 C1096 1.383 . S
C1102 C1101 1.379 . S
H1103 C1097 0.959 . S
H1104 C1097 0.961 . S
H1105 C1097 0.960 . S
H1106 C1098 0.930 . S
H1107 C1099 0.929 . S
H1108 C1116 0.929 . S
H1109 C1118 0.930 . S
H1110 C1120 0.930 . S
H1111 C1123 0.929 . S
H1112 C1126 0.930 . S
H1113 C1128 0.960 . S
H1114 C1128 0.960 . S
H1115 C1128 0.960 . S
C1116 H1108 0.929 . S
C1116 C1117 1.377 . S
C1116 C1118 1.384 . S
C1117 C1116 1.377 . S
C1117 C1123 1.390 . S
C1118 H1109 0.930 . S
C1118 C1116 1.384 . S
C1118 C1119 1.372 . S
C1119 C1118 1.372 . S
C1119 C1120 1.400 . S
C1119 C1124 1.490 . S
C1120 H1110 0.930 . S
C1120 C1119 1.400 . S
C1120 C1123 1.386 . S
H1121 C1137 0.930 . S
H1122 C1138 0.931 . S
C1123 H1111 0.929 . S
C1123 C1117 1.390 . S
C1123 C1120 1.386 . S
C1124 C1119 1.490 . S
C1124 C1126 1.395 1_565 S
C1124 C1127 1.403 . S
H1125 C1131 0.930 . S
C1126 H1112 0.930 . S
C1126 C1124 1.395 1_545 S
C1126 C1129 1.403 . S
C1127 C1124 1.403 . S
C1127 C1128 1.524 . S
C1127 C1131 1.400 . S
C1128 H1113 0.960 . S
C1128 H1114 0.960 . S
C1128 H1115 0.960 . S
C1128 C1127 1.524 . S
C1129 C1126 1.403 . S
C1129 C1130 1.392 . S
C1129 C1133 1.495 . S
C1130 C1129 1.392 . S
C1130 C1131 1.385 1_545 S
C1130 C1132 1.478 . S
C1131 H1125 0.930 . S
C1131 C1127 1.400 . S
C1131 C1130 1.385 1_565 S
C1132 C1130 1.478 . S
C1132 C1134 1.381 . S
C1132 C1138 1.383 . S
C1133 C1129 1.495 . S
C1133 H1139 0.959 . S
C1133 H1140 0.961 . S
C1133 H1141 0.960 . S
C1134 C1132 1.381 . S
C1134 C1135 1.394 . S
C1134 H1142 0.930 . S
C1135 C1134 1.394 . S
C1135 C1136 1.383 . S
C1135 H1143 0.929 . S
C1136 C1135 1.383 . S
C1136 C1137 1.377 . S
C1137 H1121 0.930 . S
C1137 C1136 1.377 . S
C1137 C1138 1.379 . S
C1138 H1122 0.931 . S
C1138 C1132 1.383 . S
C1138 C1137 1.379 . S
H1139 C1133 0.959 . S
H1140 C1133 0.961 . S
H1141 C1133 0.960 . S
H1142 C1134 0.930 . S
H1143 C1135 0.929 . S
H1144 C1152 0.929 . S
H1145 C1154 0.930 . S
H1146 C1156 0.930 . S
H1147 C1159 0.929 . S
H1148 C1162 0.930 . S
H1149 C1164 0.960 . S
H1150 C1164 0.960 . S
H1151 C1164 0.960 . S
C1152 H1144 0.929 . S
C1152 C1153 1.377 . S
C1152 C1154 1.384 . S
C1153 C1152 1.377 . S
C1153 C1159 1.390 . S
C1154 H1145 0.930 . S
C1154 C1152 1.384 . S
C1154 C1155 1.372 . S
C1155 C1154 1.372 . S
C1155 C1156 1.400 . S
C1155 C1160 1.490 . S
C1156 H1146 0.930 . S
C1156 C1155 1.400 . S
C1156 C1159 1.386 . S
H1157 C1173 0.930 . S
H1158 C1174 0.931 . S
C1159 H1147 0.929 . S
C1159 C1153 1.390 . S
C1159 C1156 1.386 . S
C1160 C1155 1.490 . S
C1160 C1162 1.395 1_565 S
C1160 C1163 1.403 1_554 S
H1161 C1167 0.930 . S
C1162 H1148 0.930 . S
C1162 C1160 1.395 1_545 S
C1162 C1165 1.403 . S
C1163 C1160 1.403 1_556 S
C1163 C1164 1.524 . S
C1163 C1167 1.400 . S
C1164 H1149 0.960 . S
C1164 H1150 0.960 . S
C1164 H1151 0.960 . S
C1164 C1163 1.524 . S
C1165 C1162 1.403 . S
C1165 C1166 1.392 1_554 S
C1165 C1169 1.495 . S
C1166 C1165 1.392 1_556 S
C1166 C1167 1.385 1_545 S
C1166 C1168 1.478 . S
C1167 H1161 0.930 . S
C1167 C1163 1.400 . S
C1167 C1166 1.385 1_565 S
C1168 C1166 1.478 . S
C1168 C1170 1.381 . S
C1168 C1174 1.383 . S
C1169 C1165 1.495 . S
C1169 H1175 0.959 . S
C1169 H1176 0.961 . S
C1169 H1177 0.960 . S
C1170 C1168 1.381 . S
C1170 C1171 1.394 . S
C1170 H1178 0.930 . S
C1171 C1170 1.394 . S
C1171 C1172 1.383 . S
C1171 H1179 0.929 . S
C1172 C1171 1.383 . S
C1172 C1173 1.377 . S
C1173 H1157 0.930 . S
C1173 C1172 1.377 . S
C1173 C1174 1.379 . S
C1174 H1158 0.931 . S
C1174 C1168 1.383 . S
C1174 C1173 1.379 . S
H1175 C1169 0.959 . S
H1176 C1169 0.961 . S
H1177 C1169 0.960 . S
H1178 C1170 0.930 . S
H1179 C1171 0.929 . S
H1180 C1188 0.929 . S
H1181 C1190 0.930 . S
H1182 C1192 0.930 . S
H1183 C1195 0.929 . S
H1184 C1198 0.930 . S
H1185 C1200 0.960 . S
H1186 C1200 0.960 . S
H1187 C1200 0.960 . S
C1188 H1180 0.929 . S
C1188 C1189 1.377 . S
C1188 C1190 1.384 . S
C1189 C1188 1.377 . S
C1189 C1195 1.390 . S
C1190 H1181 0.930 . S
C1190 C1188 1.384 . S
C1190 C1191 1.372 . S
C1191 C1190 1.372 . S
C1191 C1192 1.400 . S
C1191 C1196 1.490 . S
C1192 H1182 0.930 . S
C1192 C1191 1.400 . S
C1192 C1195 1.386 . S
H1193 C1209 0.930 . S
H1194 C1210 0.931 . S
C1195 H1183 0.929 . S
C1195 C1189 1.390 . S
C1195 C1192 1.386 . S
C1196 C1191 1.490 . S
C1196 C1198 1.395 1_565 S
C1196 C1199 1.403 . S
H1197 C1203 0.930 1_565 S
C1198 H1184 0.930 . S
C1198 C1196 1.395 1_545 S
C1198 C1201 1.403 . S
C1199 C1196 1.403 . S
C1199 C1200 1.524 . S
C1199 C1203 1.392 1_565 S
C1200 H1185 0.960 . S
C1200 H1186 0.960 . S
C1200 H1187 0.960 . S
C1200 C1199 1.524 . S
C1201 C1198 1.403 . S
C1201 C1202 1.392 . S
C1201 C1205 1.495 . S
C1202 C1201 1.392 . S
C1202 C1203 1.393 . S
C1202 C1204 1.478 . S
C1203 H1197 0.930 1_545 S
C1203 C1199 1.392 1_545 S
C1203 C1202 1.393 . S
C1204 C1202 1.478 . S
C1204 C1206 1.381 . S
C1204 C1210 1.383 . S
C1205 C1201 1.495 . S
C1205 H1211 0.959 . S
C1205 H1212 0.961 . S
C1205 H1213 0.960 . S
C1206 C1204 1.381 . S
C1206 C1207 1.394 . S
C1206 H1214 0.930 . S
C1207 C1206 1.394 . S
C1207 C1208 1.383 . S
C1207 H1215 0.929 . S
C1208 C1207 1.383 . S
C1208 C1209 1.377 . S
C1209 H1193 0.930 . S
C1209 C1208 1.377 . S
C1209 C1210 1.379 . S
C1210 H1194 0.931 . S
C1210 C1204 1.383 . S
C1210 C1209 1.379 . S
H1211 C1205 0.959 . S
H1212 C1205 0.961 . S
H1213 C1205 0.960 . S
H1214 C1206 0.930 . S
H1215 C1207 0.929 . S
H1216 C1224 0.929 . S
H1217 C1226 0.930 . S
H1218 C1228 0.930 . S
H1219 C1231 0.929 . S
H1220 C1234 0.930 . S
H1221 C1236 0.960 . S
H1222 C1236 0.960 . S
H1223 C1236 0.960 . S
C1224 H1216 0.929 . S
C1224 C1225 1.377 . S
C1224 C1226 1.384 . S
C1225 C1224 1.377 . S
C1225 C1231 1.390 . S
C1226 H1217 0.930 . S
C1226 C1224 1.384 . S
C1226 C1227 1.372 . S
C1227 C1226 1.372 . S
C1227 C1228 1.400 . S
C1227 C1232 1.490 . S
C1228 H1218 0.930 . S
C1228 C1227 1.400 . S
C1228 C1231 1.386 . S
H1229 C1245 0.930 . S
H1230 C1246 0.931 . S
C1231 H1219 0.929 . S
C1231 C1225 1.390 . S
C1231 C1228 1.386 . S
C1232 C1227 1.490 . S
C1232 C1234 1.395 . S
C1232 C1235 1.403 . S
H1233 C1239 0.930 . S
C1234 H1220 0.930 . S
C1234 C1232 1.395 . S
C1234 C1237 1.403 . S
C1235 C1232 1.403 . S
C1235 C1236 1.524 . S
C1235 C1239 1.400 . S
C1236 H1221 0.960 . S
C1236 H1222 0.960 . S
C1236 H1223 0.960 . S
C1236 C1235 1.524 . S
C1237 C1234 1.403 . S
C1237 C1238 1.392 . S
C1237 C1241 1.495 . S
C1238 C1237 1.392 . S
C1238 C1239 1.385 . S
C1238 C1240 1.478 . S
C1239 H1233 0.930 . S
C1239 C1235 1.400 . S
C1239 C1238 1.385 . S
C1240 C1238 1.478 . S
C1240 C1242 1.381 . S
C1240 C1246 1.383 . S
C1241 C1237 1.495 . S
C1241 H1247 0.959 . S
C1241 H1248 0.961 . S
C1241 H1249 0.960 . S
C1242 C1240 1.381 . S
C1242 C1243 1.394 . S
C1242 H1250 0.930 . S
C1243 C1242 1.394 . S
C1243 C1244 1.383 . S
C1243 H1251 0.929 . S
C1244 C1243 1.383 . S
C1244 C1245 1.377 . S
C1245 H1229 0.930 . S
C1245 C1244 1.377 . S
C1245 C1246 1.379 . S
C1246 H1230 0.931 . S
C1246 C1240 1.383 . S
C1246 C1245 1.379 . S
H1247 C1241 0.959 . S
H1248 C1241 0.961 . S
H1249 C1241 0.960 . S
H1250 C1242 0.930 . S
H1251 C1243 0.929 . S
H1252 C1260 0.929 . S
H1253 C1262 0.930 . S
H1254 C1264 0.930 . S
H1255 C1267 0.929 . S
H1256 C1270 0.930 . S
H1257 C1272 0.960 . S
H1258 C1272 0.960 . S
H1259 C1272 0.960 . S
C1260 H1252 0.929 . S
C1260 C1261 1.377 . S
C1260 C1262 1.384 . S
C1261 C1260 1.377 . S
C1261 C1267 1.390 . S
C1262 H1253 0.930 . S
C1262 C1260 1.384 . S
C1262 C1263 1.372 . S
C1263 C1262 1.372 . S
C1263 C1264 1.400 . S
C1263 C1268 1.490 . S
C1264 H1254 0.930 . S
C1264 C1263 1.400 . S
C1264 C1267 1.386 . S
H1265 C1281 0.930 . S
H1266 C1282 0.931 . S
C1267 H1255 0.929 . S
C1267 C1261 1.390 . S
C1267 C1264 1.386 . S
C1268 C1263 1.490 . S
C1268 C1270 1.395 . S
C1268 C1271 1.403 . S
H1269 C1275 0.930 . S
C1270 H1256 0.930 . S
C1270 C1268 1.395 . S
C1270 C1273 1.403 . S
C1271 C1268 1.403 . S
C1271 C1272 1.524 . S
C1271 C1275 1.400 . S
C1272 H1257 0.960 . S
C1272 H1258 0.960 . S
C1272 H1259 0.960 . S
C1272 C1271 1.524 . S
C1273 C1270 1.403 . S
C1273 C1274 1.392 . S
C1273 C1277 1.495 . S
C1274 C1273 1.392 . S
C1274 C1275 1.385 . S
C1274 C1276 1.478 . S
C1275 H1269 0.930 . S
C1275 C1271 1.400 . S
C1275 C1274 1.385 . S
C1276 C1274 1.478 . S
C1276 C1278 1.381 . S
C1276 C1282 1.383 . S
C1277 C1273 1.495 . S
C1277 H1283 0.959 . S
C1277 H1284 0.961 . S
C1277 H1285 0.960 . S
C1278 C1276 1.381 . S
C1278 C1279 1.394 . S
C1278 H1286 0.930 . S
C1279 C1278 1.394 . S
C1279 C1280 1.383 . S
C1279 H1287 0.929 . S
C1280 C1279 1.383 . S
C1280 C1281 1.377 . S
C1281 H1265 0.930 . S
C1281 C1280 1.377 . S
C1281 C1282 1.379 . S
C1282 H1266 0.931 . S
C1282 C1276 1.383 . S
C1282 C1281 1.379 . S
H1283 C1277 0.959 . S
H1284 C1277 0.961 . S
H1285 C1277 0.960 . S
H1286 C1278 0.930 . S
H1287 C1279 0.929 . S
H1288 C1296 0.929 . S
H1289 C1298 0.930 . S
H1290 C1300 0.930 . S
H1291 C1303 0.929 . S
H1292 C1306 0.930 . S
H1293 C1308 0.960 . S
H1294 C1308 0.960 . S
H1295 C1308 0.960 . S
C1296 H1288 0.929 . S
C1296 C1297 1.377 . S
C1296 C1298 1.384 . S
C1297 C1296 1.377 . S
C1297 C1303 1.390 . S
C1298 H1289 0.930 . S
C1298 C1296 1.384 . S
C1298 C1299 1.372 . S
C1299 C1298 1.372 . S
C1299 C1300 1.400 . S
C1299 C1304 1.490 . S
C1300 H1290 0.930 . S
C1300 C1299 1.400 . S
C1300 C1303 1.386 . S
H1301 C1317 0.930 . S
H1302 C1318 0.931 . S
C1303 H1291 0.929 . S
C1303 C1297 1.390 . S
C1303 C1300 1.386 . S
C1304 C1299 1.490 . S
C1304 C1306 1.395 . S
C1304 C1307 1.403 . S
H1305 C1311 0.930 . S
C1306 H1292 0.930 . S
C1306 C1304 1.395 . S
C1306 C1309 1.403 . S
C1307 C1304 1.403 . S
C1307 C1308 1.524 . S
C1307 C1311 1.400 . S
C1308 H1293 0.960 . S
C1308 H1294 0.960 . S
C1308 H1295 0.960 . S
C1308 C1307 1.524 . S
C1309 C1306 1.403 . S
C1309 C1310 1.392 . S
C1309 C1313 1.495 . S
C1310 C1309 1.392 . S
C1310 C1311 1.385 . S
C1310 C1312 1.478 . S
C1311 H1305 0.930 . S
C1311 C1307 1.400 . S
C1311 C1310 1.385 . S
C1312 C1310 1.478 . S
C1312 C1314 1.381 . S
C1312 C1318 1.383 . S
C1313 C1309 1.495 . S
C1313 H1319 0.959 . S
C1313 H1320 0.961 . S
C1313 H1321 0.960 . S
C1314 C1312 1.381 . S
C1314 C1315 1.394 . S
C1314 H1322 0.930 . S
C1315 C1314 1.394 . S
C1315 C1316 1.383 . S
C1315 H1323 0.929 . S
C1316 C1315 1.383 . S
C1316 C1317 1.377 . S
C1317 H1301 0.930 . S
C1317 C1316 1.377 . S
C1317 C1318 1.379 . S
C1318 H1302 0.931 . S
C1318 C1312 1.383 . S
C1318 C1317 1.379 . S
H1319 C1313 0.959 . S
H1320 C1313 0.961 . S
H1321 C1313 0.960 . S
H1322 C1314 0.930 . S
H1323 C1315 0.929 . S
H1324 C1332 0.929 . S
H1325 C1334 0.930 . S
H1326 C1336 0.930 . S
H1327 C1339 0.929 . S
H1328 C1342 0.930 . S
H1329 C1344 0.960 . S
H1330 C1344 0.960 . S
H1331 C1344 0.960 . S
C1332 H1324 0.929 . S
C1332 C1333 1.377 . S
C1332 C1334 1.384 . S
C1333 C1332 1.377 . S
C1333 C1339 1.390 . S
C1334 H1325 0.930 . S
C1334 C1332 1.384 . S
C1334 C1335 1.372 . S
C1335 C1334 1.372 . S
C1335 C1336 1.400 . S
C1335 C1340 1.490 . S
C1336 H1326 0.930 . S
C1336 C1335 1.400 . S
C1336 C1339 1.386 . S
H1337 C1353 0.930 . S
H1338 C1354 0.931 . S
C1339 H1327 0.929 . S
C1339 C1333 1.390 . S
C1339 C1336 1.386 . S
C1340 C1335 1.490 . S
C1340 C1342 1.395 . S
C1340 C1343 1.403 . S
H1341 C1347 0.930 . S
C1342 H1328 0.930 . S
C1342 C1340 1.395 . S
C1342 C1345 1.403 . S
C1343 C1340 1.403 . S
C1343 C1344 1.524 . S
C1343 C1347 1.400 . S
C1344 H1329 0.960 . S
C1344 H1330 0.960 . S
C1344 H1331 0.960 . S
C1344 C1343 1.524 . S
C1345 C1342 1.403 . S
C1345 C1346 1.392 . S
C1345 C1349 1.495 . S
C1346 C1345 1.392 . S
C1346 C1347 1.385 . S
C1346 C1348 1.478 . S
C1347 H1341 0.930 . S
C1347 C1343 1.400 . S
C1347 C1346 1.385 . S
C1348 C1346 1.478 . S
C1348 C1350 1.381 . S
C1348 C1354 1.383 . S
C1349 C1345 1.495 . S
C1349 H1355 0.959 . S
C1349 H1356 0.961 . S
C1349 H1357 0.960 . S
C1350 C1348 1.381 . S
C1350 C1351 1.394 . S
C1350 H1358 0.930 . S
C1351 C1350 1.394 . S
C1351 C1352 1.383 . S
C1351 H1359 0.929 . S
C1352 C1351 1.383 . S
C1352 C1353 1.377 . S
C1353 H1337 0.930 . S
C1353 C1352 1.377 . S
C1353 C1354 1.379 . S
C1354 H1338 0.931 . S
C1354 C1348 1.383 . S
C1354 C1353 1.379 . S
H1355 C1349 0.959 . S
H1356 C1349 0.961 . S
H1357 C1349 0.960 . S
H1358 C1350 0.930 . S
H1359 C1351 0.929 . S
H1360 C1368 0.929 . S
H1361 C1370 0.930 . S
H1362 C1372 0.930 . S
H1363 C1375 0.929 . S
H1364 C1378 0.930 . S
H1365 C1380 0.960 . S
H1366 C1380 0.960 . S
H1367 C1380 0.960 . S
C1368 H1360 0.929 . S
C1368 C1369 1.377 . S
C1368 C1370 1.384 . S
C1369 C1368 1.377 . S
C1369 C1375 1.390 . S
C1370 H1361 0.930 . S
C1370 C1368 1.384 . S
C1370 C1371 1.372 . S
C1371 C1370 1.372 . S
C1371 C1372 1.400 . S
C1371 C1376 1.490 . S
C1372 H1362 0.930 . S
C1372 C1371 1.400 . S
C1372 C1375 1.386 . S
H1373 C1389 0.930 . S
H1374 C1390 0.931 . S
C1375 H1363 0.929 . S
C1375 C1369 1.390 . S
C1375 C1372 1.386 . S
C1376 C1371 1.490 . S
C1376 C1378 1.395 . S
C1376 C1379 1.403 . S
H1377 C1383 0.930 . S
C1378 H1364 0.930 . S
C1378 C1376 1.395 . S
C1378 C1381 1.403 1_655 S
C1379 C1376 1.403 . S
C1379 C1380 1.524 . S
C1379 C1383 1.400 1_655 S
C1380 H1365 0.960 . S
C1380 H1366 0.960 . S
C1380 H1367 0.960 . S
C1380 C1379 1.524 . S
C1381 C1378 1.403 1_455 S
C1381 C1382 1.392 . S
C1381 C1385 1.495 . S
C1382 C1381 1.392 . S
C1382 C1383 1.385 . S
C1382 C1384 1.478 . S
C1383 H1377 0.930 . S
C1383 C1379 1.400 1_455 S
C1383 C1382 1.385 . S
C1384 C1382 1.478 . S
C1384 C1386 1.381 . S
C1384 C1390 1.383 . S
C1385 C1381 1.495 . S
C1385 H1391 0.959 . S
C1385 H1392 0.961 . S
C1385 H1393 0.960 . S
C1386 C1384 1.381 . S
C1386 C1387 1.394 . S
C1386 H1394 0.930 . S
C1387 C1386 1.394 . S
C1387 C1388 1.383 . S
C1387 H1395 0.929 . S
C1388 C1387 1.383 . S
C1388 C1389 1.377 . S
C1389 H1373 0.930 . S
C1389 C1388 1.377 . S
C1389 C1390 1.379 . S
C1390 H1374 0.931 . S
C1390 C1384 1.383 . S
C1390 C1389 1.379 . S
H1391 C1385 0.959 . S
H1392 C1385 0.961 . S
H1393 C1385 0.960 . S
H1394 C1386 0.930 . S
H1395 C1387 0.929 . S
H1396 C1404 0.929 . S
H1397 C1406 0.930 . S
H1398 C1408 0.930 . S
H1399 C1411 0.929 . S
H1400 C1414 0.930 . S
H1401 C1416 0.960 . S
H1402 C1416 0.960 . S
H1403 C1416 0.960 . S
C1404 H1396 0.929 . S
C1404 C1405 1.377 . S
C1404 C1406 1.384 . S
C1405 C1404 1.377 . S
C1405 C1411 1.390 . S
C1406 H1397 0.930 . S
C1406 C1404 1.384 . S
C1406 C1407 1.372 . S
C1407 C1406 1.372 . S
C1407 C1408 1.400 . S
C1407 C1412 1.490 . S
C1408 H1398 0.930 . S
C1408 C1407 1.400 . S
C1408 C1411 1.386 . S
H1409 C1425 0.930 . S
H1410 C1426 0.931 . S
C1411 H1399 0.929 . S
C1411 C1405 1.390 . S
C1411 C1408 1.386 . S
C1412 C1407 1.490 . S
C1412 C1414 1.395 . S
C1412 C1415 1.403 . S
H1413 C1419 0.930 . S
C1414 H1400 0.930 . S
C1414 C1412 1.395 . S
C1414 C1417 1.403 1_655 S
C1415 C1412 1.403 . S
C1415 C1416 1.524 . S
C1415 C1419 1.400 1_655 S
C1416 H1401 0.960 . S
C1416 H1402 0.960 . S
C1416 H1403 0.960 . S
C1416 C1415 1.524 . S
C1417 C1414 1.403 1_455 S
C1417 C1418 1.392 . S
C1417 C1421 1.495 . S
C1418 C1417 1.392 . S
C1418 C1419 1.385 . S
C1418 C1420 1.478 . S
C1419 H1413 0.930 . S
C1419 C1415 1.400 1_455 S
C1419 C1418 1.385 . S
C1420 C1418 1.478 . S
C1420 C1422 1.381 . S
C1420 C1426 1.383 . S
C1421 C1417 1.495 . S
C1421 H1427 0.959 . S
C1421 H1428 0.961 . S
C1421 H1429 0.960 . S
C1422 C1420 1.381 . S
C1422 C1423 1.394 . S
C1422 H1430 0.930 . S
C1423 C1422 1.394 . S
C1423 C1424 1.383 . S
C1423 H1431 0.929 . S
C1424 C1423 1.383 . S
C1424 C1425 1.377 . S
C1425 H1409 0.930 . S
C1425 C1424 1.377 . S
C1425 C1426 1.379 . S
C1426 H1410 0.931 . S
C1426 C1420 1.383 . S
C1426 C1425 1.379 . S
H1427 C1421 0.959 . S
H1428 C1421 0.961 . S
H1429 C1421 0.960 . S
H1430 C1422 0.930 . S
H1431 C1423 0.929 . S
H1432 C1440 0.929 . S
H1433 C1442 0.930 . S
H1434 C1444 0.930 . S
H1435 C1447 0.929 . S
H1436 C1450 0.930 . S
H1437 C1452 0.960 . S
H1438 C1452 0.960 . S
H1439 C1452 0.960 . S
C1440 H1432 0.929 . S
C1440 C1441 1.377 . S
C1440 C1442 1.384 . S
C1441 C1440 1.377 . S
C1441 C1447 1.390 . S
C1442 H1433 0.930 . S
C1442 C1440 1.384 . S
C1442 C1443 1.372 . S
C1443 C1442 1.372 . S
C1443 C1444 1.400 . S
C1443 C1448 1.490 . S
C1444 H1434 0.930 . S
C1444 C1443 1.400 . S
C1444 C1447 1.386 . S
H1445 C1461 0.930 . S
H1446 C1462 0.931 . S
C1447 H1435 0.929 . S
C1447 C1441 1.390 . S
C1447 C1444 1.386 . S
C1448 C1443 1.490 . S
C1448 C1450 1.395 . S
C1448 C1451 1.403 . S
H1449 C1455 0.930 . S
C1450 H1436 0.930 . S
C1450 C1448 1.395 . S
C1450 C1453 1.403 1_455 S
C1451 C1448 1.403 . S
C1451 C1452 1.524 . S
C1451 C1455 1.400 1_455 S
C1452 H1437 0.960 . S
C1452 H1438 0.960 . S
C1452 H1439 0.960 . S
C1452 C1451 1.524 . S
C1453 C1450 1.403 1_655 S
C1453 C1454 1.392 . S
C1453 C1457 1.495 . S
C1454 C1453 1.392 . S
C1454 C1455 1.385 . S
C1454 C1456 1.478 . S
C1455 H1449 0.930 . S
C1455 C1451 1.400 1_655 S
C1455 C1454 1.385 . S
C1456 C1454 1.478 . S
C1456 C1458 1.381 . S
C1456 C1462 1.383 . S
C1457 C1453 1.495 . S
C1457 H1463 0.959 . S
C1457 H1464 0.961 . S
C1457 H1465 0.960 . S
C1458 C1456 1.381 . S
C1458 C1459 1.394 . S
C1458 H1466 0.930 . S
C1459 C1458 1.394 . S
C1459 C1460 1.383 . S
C1459 H1467 0.929 . S
C1460 C1459 1.383 . S
C1460 C1461 1.377 . S
C1461 H1445 0.930 . S
C1461 C1460 1.377 . S
C1461 C1462 1.379 . S
C1462 H1446 0.931 . S
C1462 C1456 1.383 . S
C1462 C1461 1.379 . S
H1463 C1457 0.959 . S
H1464 C1457 0.961 . S
H1465 C1457 0.960 . S
H1466 C1458 0.930 . S
H1467 C1459 0.929 . S
H1468 C1476 0.929 . S
H1469 C1478 0.930 . S
H1470 C1480 0.930 . S
H1471 C1483 0.929 . S
H1472 C1486 0.930 . S
H1473 C1488 0.960 . S
H1474 C1488 0.960 . S
H1475 C1488 0.960 . S
C1476 H1468 0.929 . S
C1476 C1477 1.377 . S
C1476 C1478 1.384 . S
C1477 C1476 1.377 . S
C1477 C1483 1.390 . S
C1478 H1469 0.930 . S
C1478 C1476 1.384 . S
C1478 C1479 1.372 . S
C1479 C1478 1.372 . S
C1479 C1480 1.400 . S
C1479 C1484 1.490 . S
C1480 H1470 0.930 . S
C1480 C1479 1.400 . S
C1480 C1483 1.386 . S
H1481 C1497 0.930 . S
H1482 C1498 0.931 . S
C1483 H1471 0.929 . S
C1483 C1477 1.390 . S
C1483 C1480 1.386 . S
C1484 C1479 1.490 . S
C1484 C1486 1.395 . S
C1484 C1487 1.403 . S
H1485 C1491 0.930 . S
C1486 H1472 0.930 . S
C1486 C1484 1.395 . S
C1486 C1489 1.403 1_455 S
C1487 C1484 1.403 . S
C1487 C1488 1.524 . S
C1487 C1491 1.400 1_455 S
C1488 H1473 0.960 . S
C1488 H1474 0.960 . S
C1488 H1475 0.960 . S
C1488 C1487 1.524 . S
C1489 C1486 1.403 1_655 S
C1489 C1490 1.392 . S
C1489 C1493 1.495 . S
C1490 C1489 1.392 . S
C1490 C1491 1.385 . S
C1490 C1492 1.478 . S
C1491 H1485 0.930 . S
C1491 C1487 1.400 1_655 S
C1491 C1490 1.385 . S
C1492 C1490 1.478 . S
C1492 C1494 1.381 . S
C1492 C1498 1.383 . S
C1493 C1489 1.495 . S
C1493 H1499 0.959 . S
C1493 H1500 0.961 . S
C1493 H1501 0.960 . S
C1494 C1492 1.381 . S
C1494 C1495 1.394 . S
C1494 H1502 0.930 . S
C1495 C1494 1.394 . S
C1495 C1496 1.383 . S
C1495 H1503 0.929 . S
C1496 C1495 1.383 . S
C1496 C1497 1.377 . S
C1497 H1481 0.930 . S
C1497 C1496 1.377 . S
C1497 C1498 1.379 . S
C1498 H1482 0.931 . S
C1498 C1492 1.383 . S
C1498 C1497 1.379 . S
H1499 C1493 0.959 . S
H1500 C1493 0.961 . S
H1501 C1493 0.960 . S
H1502 C1494 0.930 . S
H1503 C1495 0.929 . S
H1504 C1512 0.929 . S
H1505 C1514 0.930 . S
H1506 C1516 0.930 . S
H1507 C1519 0.929 . S
H1508 C1522 0.930 . S
H1509 C1524 0.960 1_556 S
H1510 C1524 0.960 . S
H1511 C1524 0.960 . S
C1512 H1504 0.929 . S
C1512 C1513 1.377 . S
C1512 C1514 1.384 . S
C1513 C1512 1.377 . S
C1513 C1519 1.390 . S
C1514 H1505 0.930 . S
C1514 C1512 1.384 . S
C1514 C1515 1.372 . S
C1515 C1514 1.372 . S
C1515 C1516 1.400 . S
C1515 C1520 1.490 . S
C1516 H1506 0.930 . S
C1516 C1515 1.400 . S
C1516 C1519 1.386 . S
H1517 C1533 0.930 . S
H1518 C1534 0.931 . S
C1519 H1507 0.929 . S
C1519 C1513 1.390 . S
C1519 C1516 1.386 . S
C1520 C1515 1.490 . S
C1520 C1522 1.395 . S
C1520 C1523 1.403 . S
H1521 C1527 0.930 . S
C1522 H1508 0.930 . S
C1522 C1520 1.395 . S
C1522 C1525 1.403 1_554 S
C1523 C1520 1.403 . S
C1523 C1524 1.524 . S
C1523 C1527 1.400 1_554 S
C1524 H1509 0.960 1_554 S
C1524 H1510 0.960 . S
C1524 H1511 0.960 . S
C1524 C1523 1.524 . S
C1525 C1522 1.403 1_556 S
C1525 C1526 1.392 . S
C1525 C1529 1.495 . S
C1526 C1525 1.392 . S
C1526 C1527 1.385 . S
C1526 C1528 1.478 . S
C1527 H1521 0.930 . S
C1527 C1523 1.400 1_556 S
C1527 C1526 1.385 . S
C1528 C1526 1.478 . S
C1528 C1530 1.381 . S
C1528 C1534 1.383 . S
C1529 C1525 1.495 . S
C1529 H1535 0.959 1_556 S
C1529 H1536 0.961 . S
C1529 H1537 0.960 . S
C1530 C1528 1.381 . S
C1530 C1531 1.394 . S
C1530 H1538 0.930 . S
C1531 C1530 1.394 . S
C1531 C1532 1.383 . S
C1531 H1539 0.929 . S
C1532 C1531 1.383 . S
C1532 C1533 1.377 . S
C1533 H1517 0.930 . S
C1533 C1532 1.377 . S
C1533 C1534 1.379 . S
C1534 H1518 0.931 . S
C1534 C1528 1.383 . S
C1534 C1533 1.379 . S
H1535 C1529 0.959 1_554 S
H1536 C1529 0.961 . S
H1537 C1529 0.960 . S
H1538 C1530 0.930 . S
H1539 C1531 0.929 . S
H1540 C1548 0.929 . S
H1541 C1550 0.930 . S
H1542 C1552 0.930 . S
H1543 C1555 0.929 . S
H1544 C1558 0.930 . S
H1545 C1560 0.960 . S
H1546 C1560 0.960 . S
H1547 C1560 0.960 . S
C1548 H1540 0.929 . S
C1548 C1549 1.377 . S
C1548 C1550 1.384 . S
C1549 C1548 1.377 . S
C1549 C1555 1.390 . S
C1550 H1541 0.930 . S
C1550 C1548 1.384 . S
C1550 C1551 1.372 . S
C1551 C1550 1.372 . S
C1551 C1552 1.400 . S
C1551 C1556 1.490 . S
C1552 H1542 0.930 . S
C1552 C1551 1.400 . S
C1552 C1555 1.386 . S
H1553 C1569 0.930 . S
H1554 C1570 0.931 . S
C1555 H1543 0.929 . S
C1555 C1549 1.390 . S
C1555 C1552 1.386 . S
C1556 C1551 1.490 . S
C1556 C1558 1.395 . S
C1556 C1559 1.403 . S
H1557 C1563 0.930 . S
C1558 H1544 0.930 . S
C1558 C1556 1.395 . S
C1558 C1561 1.403 . S
C1559 C1556 1.403 . S
C1559 C1560 1.524 . S
C1559 C1563 1.400 . S
C1560 H1545 0.960 . S
C1560 H1546 0.960 . S
C1560 H1547 0.960 . S
C1560 C1559 1.524 . S
C1561 C1558 1.403 . S
C1561 C1562 1.392 . S
C1561 C1565 1.495 . S
C1562 C1561 1.392 . S
C1562 C1563 1.385 . S
C1562 C1564 1.478 . S
C1563 H1557 0.930 . S
C1563 C1559 1.400 . S
C1563 C1562 1.385 . S
C1564 C1562 1.478 . S
C1564 C1566 1.381 . S
C1564 C1570 1.383 . S
C1565 C1561 1.495 . S
C1565 H1571 0.959 . S
C1565 H1572 0.961 . S
C1565 H1573 0.960 . S
C1566 C1564 1.381 . S
C1566 C1567 1.394 . S
C1566 H1574 0.930 . S
C1567 C1566 1.394 . S
C1567 C1568 1.383 . S
C1567 H1575 0.929 . S
C1568 C1567 1.383 . S
C1568 C1569 1.377 . S
C1569 H1553 0.930 . S
C1569 C1568 1.377 . S
C1569 C1570 1.379 . S
C1570 H1554 0.931 . S
C1570 C1564 1.383 . S
C1570 C1569 1.379 . S
H1571 C1565 0.959 . S
H1572 C1565 0.961 . S
H1573 C1565 0.960 . S
H1574 C1566 0.930 . S
H1575 C1567 0.929 . S
H1576 C1584 0.929 . S
H1577 C1586 0.930 . S
H1578 C1588 0.930 . S
H1579 C1591 0.929 . S
H1580 C1594 0.930 . S
H1581 C1596 0.960 . S
H1582 C1596 0.960 . S
H1583 C1596 0.960 . S
C1584 H1576 0.929 . S
C1584 C1585 1.377 . S
C1584 C1586 1.384 . S
C1585 C1584 1.377 . S
C1585 C1591 1.390 . S
C1586 H1577 0.930 . S
C1586 C1584 1.384 . S
C1586 C1587 1.372 . S
C1587 C1586 1.372 . S
C1587 C1588 1.400 . S
C1587 C1592 1.490 . S
C1588 H1578 0.930 . S
C1588 C1587 1.400 . S
C1588 C1591 1.386 . S
H1589 C1605 0.930 . S
H1590 C1606 0.931 . S
C1591 H1579 0.929 . S
C1591 C1585 1.390 . S
C1591 C1588 1.386 . S
C1592 C1587 1.490 . S
C1592 C1594 1.395 . S
C1592 C1595 1.403 . S
H1593 C1599 0.930 . S
C1594 H1580 0.930 . S
C1594 C1592 1.395 . S
C1594 C1597 1.403 1_554 S
C1595 C1592 1.403 . S
C1595 C1596 1.524 . S
C1595 C1599 1.400 1_554 S
C1596 H1581 0.960 . S
C1596 H1582 0.960 . S
C1596 H1583 0.960 . S
C1596 C1595 1.524 . S
C1597 C1594 1.403 1_556 S
C1597 C1598 1.392 . S
C1597 C1601 1.495 . S
C1598 C1597 1.392 . S
C1598 C1599 1.385 . S
C1598 C1600 1.478 . S
C1599 H1593 0.930 . S
C1599 C1595 1.400 1_556 S
C1599 C1598 1.385 . S
C1600 C1598 1.478 . S
C1600 C1602 1.381 . S
C1600 C1606 1.383 . S
C1601 C1597 1.495 . S
C1601 H1607 0.959 . S
C1601 H1608 0.961 . S
C1601 H1609 0.960 . S
C1602 C1600 1.381 . S
C1602 C1603 1.394 . S
C1602 H1610 0.930 . S
C1603 C1602 1.394 . S
C1603 C1604 1.383 . S
C1603 H1611 0.929 . S
C1604 C1603 1.383 . S
C1604 C1605 1.377 . S
C1605 H1589 0.930 . S
C1605 C1604 1.377 . S
C1605 C1606 1.379 . S
C1606 H1590 0.931 . S
C1606 C1600 1.383 . S
C1606 C1605 1.379 . S
H1607 C1601 0.959 . S
H1608 C1601 0.961 . S
H1609 C1601 0.960 . S
H1610 C1602 0.930 . S
H1611 C1603 0.929 . S
H1612 C1620 0.929 . S
H1613 C1622 0.930 . S
H1614 C1624 0.930 . S
H1615 C1627 0.929 . S
H1616 C1630 0.930 . S
H1617 C1632 0.960 . S
H1618 C1632 0.960 . S
H1619 C1632 0.960 . S
C1620 H1612 0.929 . S
C1620 C1621 1.377 . S
C1620 C1622 1.384 . S
C1621 C1620 1.377 . S
C1621 C1627 1.390 . S
C1622 H1613 0.930 . S
C1622 C1620 1.384 . S
C1622 C1623 1.372 . S
C1623 C1622 1.372 . S
C1623 C1624 1.400 . S
C1623 C1628 1.490 . S
C1624 H1614 0.930 . S
C1624 C1623 1.400 . S
C1624 C1627 1.386 . S
H1625 C1641 0.930 . S
H1626 C1642 0.931 . S
C1627 H1615 0.929 . S
C1627 C1621 1.390 . S
C1627 C1624 1.386 . S
C1628 C1623 1.490 . S
C1628 C1630 1.395 . S
C1628 C1631 1.403 . S
H1629 C1635 0.930 . S
C1630 H1616 0.930 . S
C1630 C1628 1.395 . S
C1630 C1633 1.403 . S
C1631 C1628 1.403 . S
C1631 C1632 1.524 . S
C1631 C1635 1.400 . S
C1632 H1617 0.960 . S
C1632 H1618 0.960 . S
C1632 H1619 0.960 . S
C1632 C1631 1.524 . S
C1633 C1630 1.403 . S
C1633 C1634 1.392 . S
C1633 C1637 1.495 . S
C1634 C1633 1.392 . S
C1634 C1635 1.385 . S
C1634 C1636 1.478 . S
C1635 H1629 0.930 . S
C1635 C1631 1.400 . S
C1635 C1634 1.385 . S
C1636 C1634 1.478 . S
C1636 C1638 1.381 . S
C1636 C1642 1.383 . S
C1637 C1633 1.495 . S
C1637 H1643 0.959 . S
C1637 H1644 0.961 . S
C1637 H1645 0.960 . S
C1638 C1636 1.381 . S
C1638 C1639 1.394 . S
C1638 H1646 0.930 . S
C1639 C1638 1.394 . S
C1639 C1640 1.383 . S
C1639 H1647 0.929 . S
C1640 C1639 1.383 . S
C1640 C1641 1.377 . S
C1641 H1625 0.930 . S
C1641 C1640 1.377 . S
C1641 C1642 1.379 . S
C1642 H1626 0.931 . S
C1642 C1636 1.383 . S
C1642 C1641 1.379 . S
H1643 C1637 0.959 . S
H1644 C1637 0.961 . S
H1645 C1637 0.960 . S
H1646 C1638 0.930 . S
H1647 C1639 0.929 . S
H1648 C1656 0.929 . S
H1649 C1658 0.930 . S
H1650 C1660 0.930 . S
H1651 C1663 0.929 . S
H1652 C1666 0.928 1_554 S
H1653 C1668 0.960 . S
H1654 C1668 0.960 . S
H1655 C1668 0.960 . S
C1656 H1648 0.929 . S
C1656 C1657 1.377 . S
C1656 C1658 1.384 . S
C1657 C1656 1.377 . S
C1657 C1663 1.390 . S
C1658 H1649 0.930 . S
C1658 C1656 1.384 . S
C1658 C1659 1.372 . S
C1659 C1658 1.372 . S
C1659 C1660 1.400 . S
C1659 C1664 1.490 . S
C1660 H1650 0.930 . S
C1660 C1659 1.400 . S
C1660 C1663 1.386 . S
H1661 C1677 0.930 . S
H1662 C1678 0.931 . S
C1663 H1651 0.929 . S
C1663 C1657 1.390 . S
C1663 C1660 1.386 . S
C1664 C1659 1.490 . S
C1664 C1666 1.376 1_554 S
C1664 C1667 1.403 . S
H1665 C1671 0.930 . S
C1666 H1652 0.928 1_556 S
C1666 C1664 1.376 1_556 S
C1666 C1669 1.424 . S
C1667 C1664 1.403 . S
C1667 C1668 1.524 . S
C1667 C1671 1.400 1_554 S
C1668 H1653 0.960 . S
C1668 H1654 0.960 . S
C1668 H1655 0.960 . S
C1668 C1667 1.524 . S
C1669 C1666 1.424 . S
C1669 C1670 1.392 . S
C1669 C1673 1.495 . S
C1670 C1669 1.392 . S
C1670 C1671 1.385 . S
C1670 C1672 1.478 . S
C1671 H1665 0.930 . S
C1671 C1667 1.400 1_556 S
C1671 C1670 1.385 . S
C1672 C1670 1.478 . S
C1672 C1674 1.381 . S
C1672 C1678 1.383 . S
C1673 C1669 1.495 . S
C1673 H1679 0.959 . S
C1673 H1680 0.961 . S
C1673 H1681 0.960 . S
C1674 C1672 1.381 . S
C1674 C1675 1.394 . S
C1674 H1682 0.930 . S
C1675 C1674 1.394 . S
C1675 C1676 1.383 . S
C1675 H1683 0.929 . S
C1676 C1675 1.383 . S
C1676 C1677 1.377 . S
C1677 H1661 0.930 . S
C1677 C1676 1.377 . S
C1677 C1678 1.379 . S
C1678 H1662 0.931 . S
C1678 C1672 1.383 . S
C1678 C1677 1.379 . S
H1679 C1673 0.959 . S
H1680 C1673 0.961 . S
H1681 C1673 0.960 . S
H1682 C1674 0.930 . S
H1683 C1675 0.929 . S
H1684 C1692 0.929 . S
H1685 C1694 0.930 . S
H1686 C1696 0.930 . S
H1687 C1699 0.929 . S
H1688 C1702 0.930 . S
H1689 C1704 0.960 . S
H1690 C1704 0.960 . S
H1691 C1704 0.960 . S
C1692 H1684 0.929 . S
C1692 C1693 1.377 . S
C1692 C1694 1.384 . S
C1693 C1692 1.377 . S
C1693 C1699 1.390 . S
C1694 H1685 0.930 . S
C1694 C1692 1.384 . S
C1694 C1695 1.372 . S
C1695 C1694 1.372 . S
C1695 C1696 1.400 . S
C1695 C1700 1.490 . S
C1696 H1686 0.930 . S
C1696 C1695 1.400 . S
C1696 C1699 1.386 . S
H1697 C1713 0.930 . S
H1698 C1714 0.931 . S
C1699 H1687 0.929 . S
C1699 C1693 1.390 . S
C1699 C1696 1.386 . S
C1700 C1695 1.490 . S
C1700 C1702 1.395 . S
C1700 C1703 1.403 . S
H1701 C1707 0.930 . S
C1702 H1688 0.930 . S
C1702 C1700 1.395 . S
C1702 C1705 1.403 . S
C1703 C1700 1.403 . S
C1703 C1704 1.524 . S
C1703 C1707 1.400 . S
C1704 H1689 0.960 . S
C1704 H1690 0.960 . S
C1704 H1691 0.960 . S
C1704 C1703 1.524 . S
C1705 C1702 1.403 . S
C1705 C1706 1.392 . S
C1705 C1709 1.495 . S
C1706 C1705 1.392 . S
C1706 C1707 1.385 . S
C1706 C1708 1.478 . S
C1707 H1701 0.930 . S
C1707 C1703 1.400 . S
C1707 C1706 1.385 . S
C1708 C1706 1.478 . S
C1708 C1710 1.381 . S
C1708 C1714 1.383 . S
C1709 C1705 1.495 . S
C1709 H1715 0.959 . S
C1709 H1716 0.961 . S
C1709 H1717 0.960 . S
C1710 C1708 1.381 . S
C1710 C1711 1.394 . S
C1710 H1718 0.930 . S
C1711 C1710 1.394 . S
C1711 C1712 1.383 . S
C1711 H1719 0.929 . S
C1712 C1711 1.383 . S
C1712 C1713 1.377 . S
C1713 H1697 0.930 . S
C1713 C1712 1.377 . S
C1713 C1714 1.379 . S
C1714 H1698 0.931 . S
C1714 C1708 1.383 . S
C1714 C1713 1.379 . S
H1715 C1709 0.959 . S
H1716 C1709 0.961 . S
H1717 C1709 0.960 . S
H1718 C1710 0.930 . S
H1719 C1711 0.929 . S
H1720 C1728 0.929 . S
H1721 C1730 0.930 . S
H1722 C1732 0.930 . S
H1723 C1735 0.929 . S
H1724 C1738 0.930 . S
H1725 C1740 0.960 1_556 S
H1726 C1740 0.960 . S
H1727 C1740 0.960 . S
C1728 H1720 0.929 . S
C1728 C1729 1.377 . S
C1728 C1730 1.384 . S
C1729 C1728 1.377 . S
C1729 C1735 1.390 . S
C1730 H1721 0.930 . S
C1730 C1728 1.384 . S
C1730 C1731 1.372 . S
C1731 C1730 1.372 . S
C1731 C1732 1.400 . S
C1731 C1736 1.490 . S
C1732 H1722 0.930 . S
C1732 C1731 1.400 . S
C1732 C1735 1.386 . S
H1733 C1749 0.930 . S
H1734 C1750 0.931 . S
C1735 H1723 0.929 . S
C1735 C1729 1.390 . S
C1735 C1732 1.386 . S
C1736 C1731 1.490 . S
C1736 C1738 1.395 . S
C1736 C1739 1.403 . S
H1737 C1743 0.930 . S
C1738 H1724 0.930 . S
C1738 C1736 1.395 . S
C1738 C1741 1.377 1_554 S
C1739 C1736 1.403 . S
C1739 C1740 1.524 . S
C1739 C1743 1.400 1_554 S
C1740 H1725 0.960 1_554 S
C1740 H1726 0.960 . S
C1740 H1727 0.960 . S
C1740 C1739 1.524 . S
C1741 C1738 1.377 1_556 S
C1741 C1742 1.417 . S
C1741 C1745 1.497 . S
C1742 C1741 1.417 . S
C1742 C1743 1.385 . S
C1742 C1744 1.478 . S
C1743 H1737 0.930 . S
C1743 C1739 1.400 1_556 S
C1743 C1742 1.385 . S
C1744 C1742 1.478 . S
C1744 C1746 1.381 . S
C1744 C1750 1.383 . S
C1745 C1741 1.497 . S
C1745 H1751 0.959 1_556 S
C1745 H1752 0.961 . S
C1745 H1753 0.960 . S
C1746 C1744 1.381 . S
C1746 C1747 1.394 . S
C1746 H1754 0.930 . S
C1747 C1746 1.394 . S
C1747 C1748 1.383 . S
C1747 H1755 0.929 . S
C1748 C1747 1.383 . S
C1748 C1749 1.377 . S
C1749 H1733 0.930 . S
C1749 C1748 1.377 . S
C1749 C1750 1.379 . S
C1750 H1734 0.931 . S
C1750 C1744 1.383 . S
C1750 C1749 1.379 . S
H1751 C1745 0.959 1_554 S
H1752 C1745 0.961 . S
H1753 C1745 0.960 . S
H1754 C1746 0.930 . S
H1755 C1747 0.929 . S
H1756 C1764 0.929 . S
H1757 C1766 0.930 . S
H1758 C1768 0.930 . S
H1759 C1771 0.929 . S
H1760 C1774 0.930 . S
H1761 C1776 0.960 . S
H1762 C1776 0.960 . S
H1763 C1776 0.960 . S
C1764 H1756 0.929 . S
C1764 C1765 1.377 . S
C1764 C1766 1.384 . S
C1765 C1764 1.377 . S
C1765 C1771 1.390 . S
C1766 H1757 0.930 . S
C1766 C1764 1.384 . S
C1766 C1767 1.372 . S
C1767 C1766 1.372 . S
C1767 C1768 1.400 . S
C1767 C1772 1.490 . S
C1768 H1758 0.930 . S
C1768 C1767 1.400 . S
C1768 C1771 1.386 . S
H1769 C1785 0.930 . S
H1770 C1786 0.931 . S
C1771 H1759 0.929 . S
C1771 C1765 1.390 . S
C1771 C1768 1.386 . S
C1772 C1767 1.490 . S
C1772 C1774 1.395 . S
C1772 C1775 1.403 . S
H1773 C1779 0.930 . S
C1774 H1760 0.930 . S
C1774 C1772 1.395 . S
C1774 C1777 1.403 . S
C1775 C1772 1.403 . S
C1775 C1776 1.524 . S
C1775 C1779 1.400 . S
C1776 H1761 0.960 . S
C1776 H1762 0.960 . S
C1776 H1763 0.960 . S
C1776 C1775 1.524 . S
C1777 C1774 1.403 . S
C1777 C1778 1.392 . S
C1777 C1781 1.495 . S
C1778 C1777 1.392 . S
C1778 C1779 1.385 . S
C1778 C1780 1.478 . S
C1779 H1773 0.930 . S
C1779 C1775 1.400 . S
C1779 C1778 1.385 . S
C1780 C1778 1.478 . S
C1780 C1782 1.381 . S
C1780 C1786 1.383 . S
C1781 C1777 1.495 . S
C1781 H1787 0.959 . S
C1781 H1788 0.961 . S
C1781 H1789 0.960 . S
C1782 C1780 1.381 . S
C1782 C1783 1.394 . S
C1782 H1790 0.930 . S
C1783 C1782 1.394 . S
C1783 C1784 1.383 . S
C1783 H1791 0.929 . S
C1784 C1783 1.383 . S
C1784 C1785 1.377 . S
C1785 H1769 0.930 . S
C1785 C1784 1.377 . S
C1785 C1786 1.379 . S
C1786 H1770 0.931 . S
C1786 C1780 1.383 . S
C1786 C1785 1.379 . S
H1787 C1781 0.959 . S
H1788 C1781 0.961 . S
H1789 C1781 0.960 . S
H1790 C1782 0.930 . S
H1791 C1783 0.929 . S
H1792 C1800 0.929 . S
H1793 C1802 0.930 . S
H1794 C1804 0.930 . S
H1795 C1807 0.929 . S
H1796 C1810 0.930 . S
H1797 C1812 0.960 . S
H1798 C1812 0.960 . S
H1799 C1812 0.960 . S
C1800 H1792 0.929 . S
C1800 C1801 1.377 . S
C1800 C1802 1.384 . S
C1801 C1800 1.377 . S
C1801 C1807 1.390 . S
C1802 H1793 0.930 . S
C1802 C1800 1.384 . S
C1802 C1803 1.372 . S
C1803 C1802 1.372 . S
C1803 C1804 1.400 . S
C1803 C1808 1.490 . S
C1804 H1794 0.930 . S
C1804 C1803 1.400 . S
C1804 C1807 1.386 . S
H1805 C1821 0.930 . S
H1806 C1822 0.931 . S
C1807 H1795 0.929 . S
C1807 C1801 1.390 . S
C1807 C1804 1.386 . S
C1808 C1803 1.490 . S
C1808 C1810 1.395 . S
C1808 C1811 1.403 . S
H1809 C1815 0.930 . S
C1810 H1796 0.930 . S
C1810 C1808 1.395 . S
C1810 C1813 1.403 . S
C1811 C1808 1.403 . S
C1811 C1812 1.524 . S
C1811 C1815 1.400 . S
C1812 H1797 0.960 . S
C1812 H1798 0.960 . S
C1812 H1799 0.960 . S
C1812 C1811 1.524 . S
C1813 C1810 1.403 . S
C1813 C1814 1.392 . S
C1813 C1817 1.495 . S
C1814 C1813 1.392 . S
C1814 C1815 1.385 . S
C1814 C1816 1.478 . S
C1815 H1809 0.930 . S
C1815 C1811 1.400 . S
C1815 C1814 1.385 . S
C1816 C1814 1.478 . S
C1816 C1818 1.381 . S
C1816 C1822 1.383 . S
C1817 C1813 1.495 . S
C1817 H1823 0.959 . S
C1817 H1824 0.961 . S
C1817 H1825 0.960 . S
C1818 C1816 1.381 . S
C1818 C1819 1.394 . S
C1818 H1826 0.930 . S
C1819 C1818 1.394 . S
C1819 C1820 1.383 . S
C1819 H1827 0.929 . S
C1820 C1819 1.383 . S
C1820 C1821 1.377 . S
C1821 H1805 0.930 . S
C1821 C1820 1.377 . S
C1821 C1822 1.379 . S
C1822 H1806 0.931 . S
C1822 C1816 1.383 . S
C1822 C1821 1.379 . S
H1823 C1817 0.959 . S
H1824 C1817 0.961 . S
H1825 C1817 0.960 . S
H1826 C1818 0.930 . S
H1827 C1819 0.929 . S
H1828 C1836 0.929 . S
H1829 C1838 0.930 . S
H1830 C1840 0.930 . S
H1831 C1843 0.929 . S
H1832 C1846 0.930 . S
H1833 C1848 0.960 . S
H1834 C1848 0.960 . S
H1835 C1848 0.960 . S
C1836 H1828 0.929 . S
C1836 C1837 1.377 . S
C1836 C1838 1.384 . S
C1837 C1836 1.377 . S
C1837 C1843 1.390 . S
C1838 H1829 0.930 . S
C1838 C1836 1.384 . S
C1838 C1839 1.372 . S
C1839 C1838 1.372 . S
C1839 C1840 1.400 . S
C1839 C1844 1.490 . S
C1840 H1830 0.930 . S
C1840 C1839 1.400 . S
C1840 C1843 1.386 . S
H1841 C1857 0.930 . S
H1842 C1858 0.931 . S
C1843 H1831 0.929 . S
C1843 C1837 1.390 . S
C1843 C1840 1.386 . S
C1844 C1839 1.490 . S
C1844 C1846 1.395 . S
C1844 C1847 1.403 . S
H1845 C1851 0.930 . S
C1846 H1832 0.930 . S
C1846 C1844 1.395 . S
C1846 C1849 1.403 . S
C1847 C1844 1.403 . S
C1847 C1848 1.524 . S
C1847 C1851 1.400 . S
C1848 H1833 0.960 . S
C1848 H1834 0.960 . S
C1848 H1835 0.960 . S
C1848 C1847 1.524 . S
C1849 C1846 1.403 . S
C1849 C1850 1.392 . S
C1849 C1853 1.495 . S
C1850 C1849 1.392 . S
C1850 C1851 1.385 . S
C1850 C1852 1.478 . S
C1851 H1845 0.930 . S
C1851 C1847 1.400 . S
C1851 C1850 1.385 . S
C1852 C1850 1.478 . S
C1852 C1854 1.381 . S
C1852 C1858 1.383 . S
C1853 C1849 1.495 . S
C1853 H1859 0.959 . S
C1853 H1860 0.961 . S
C1853 H1861 0.960 . S
C1854 C1852 1.381 . S
C1854 C1855 1.394 . S
C1854 H1862 0.930 . S
C1855 C1854 1.394 . S
C1855 C1856 1.383 . S
C1855 H1863 0.929 . S
C1856 C1855 1.383 . S
C1856 C1857 1.377 . S
C1857 H1841 0.930 . S
C1857 C1856 1.377 . S
C1857 C1858 1.379 . S
C1858 H1842 0.931 . S
C1858 C1852 1.383 . S
C1858 C1857 1.379 . S
H1859 C1853 0.959 . S
H1860 C1853 0.961 . S
H1861 C1853 0.960 . S
H1862 C1854 0.930 . S
H1863 C1855 0.929 . S
H1864 C1872 0.929 . S
H1865 C1874 0.930 . S
H1866 C1876 0.930 . S
H1867 C1879 0.929 . S
H1868 C1882 0.930 . S
H1869 C1884 0.960 . S
H1870 C1884 0.960 . S
H1871 C1884 0.960 . S
C1872 H1864 0.929 . S
C1872 C1873 1.377 . S
C1872 C1874 1.384 . S
C1873 C1872 1.377 . S
C1873 C1879 1.390 . S
C1874 H1865 0.930 . S
C1874 C1872 1.384 . S
C1874 C1875 1.372 . S
C1875 C1874 1.372 . S
C1875 C1876 1.400 . S
C1875 C1880 1.490 . S
C1876 H1866 0.930 . S
C1876 C1875 1.400 . S
C1876 C1879 1.386 . S
H1877 C1893 0.930 . S
H1878 C1894 0.931 . S
C1879 H1867 0.929 . S
C1879 C1873 1.390 . S
C1879 C1876 1.386 . S
C1880 C1875 1.490 . S
C1880 C1882 1.395 . S
C1880 C1883 1.403 . S
H1881 C1887 0.930 . S
C1882 H1868 0.930 . S
C1882 C1880 1.395 . S
C1882 C1885 1.403 . S
C1883 C1880 1.403 . S
C1883 C1884 1.524 . S
C1883 C1887 1.400 . S
C1884 H1869 0.960 . S
C1884 H1870 0.960 . S
C1884 H1871 0.960 . S
C1884 C1883 1.524 . S
C1885 C1882 1.403 . S
C1885 C1886 1.392 . S
C1885 C1889 1.495 . S
C1886 C1885 1.392 . S
C1886 C1887 1.385 . S
C1886 C1888 1.478 . S
C1887 H1881 0.930 . S
C1887 C1883 1.400 . S
C1887 C1886 1.385 . S
C1888 C1886 1.478 . S
C1888 C1890 1.381 . S
C1888 C1894 1.383 . S
C1889 C1885 1.495 . S
C1889 H1895 0.959 . S
C1889 H1896 0.961 . S
C1889 H1897 0.960 . S
C1890 C1888 1.381 . S
C1890 C1891 1.394 . S
C1890 H1898 0.930 . S
C1891 C1890 1.394 . S
C1891 C1892 1.383 . S
C1891 H1899 0.929 . S
C1892 C1891 1.383 . S
C1892 C1893 1.377 . S
C1893 H1877 0.930 . S
C1893 C1892 1.377 . S
C1893 C1894 1.379 . S
C1894 H1878 0.931 . S
C1894 C1888 1.383 . S
C1894 C1893 1.379 . S
H1895 C1889 0.959 . S
H1896 C1889 0.961 . S
H1897 C1889 0.960 . S
H1898 C1890 0.930 . S
H1899 C1891 0.929 . S
H1900 C1908 0.929 . S
H1901 C1910 0.930 . S
H1902 C1912 0.930 . S
H1903 C1915 0.929 . S
H1904 C1918 0.930 . S
H1905 C1920 0.960 . S
H1906 C1920 0.960 . S
H1907 C1920 0.960 . S
C1908 H1900 0.929 . S
C1908 C1909 1.377 . S
C1908 C1910 1.384 . S
C1909 C1908 1.377 . S
C1909 C1915 1.390 . S
C1910 H1901 0.930 . S
C1910 C1908 1.384 . S
C1910 C1911 1.372 . S
C1911 C1910 1.372 . S
C1911 C1912 1.400 . S
C1911 C1916 1.490 . S
C1912 H1902 0.930 . S
C1912 C1911 1.400 . S
C1912 C1915 1.386 . S
H1913 C1929 0.930 . S
H1914 C1930 0.931 . S
C1915 H1903 0.929 . S
C1915 C1909 1.390 . S
C1915 C1912 1.386 . S
C1916 C1911 1.490 . S
C1916 C1918 1.395 . S
C1916 C1919 1.403 . S
H1917 C1923 0.930 . S
C1918 H1904 0.930 . S
C1918 C1916 1.395 . S
C1918 C1921 1.403 . S
C1919 C1916 1.403 . S
C1919 C1920 1.524 . S
C1919 C1923 1.400 . S
C1920 H1905 0.960 . S
C1920 H1906 0.960 . S
C1920 H1907 0.960 . S
C1920 C1919 1.524 . S
C1921 C1918 1.403 . S
C1921 C1922 1.392 . S
C1921 C1925 1.495 . S
C1922 C1921 1.392 . S
C1922 C1923 1.385 . S
C1922 C1924 1.478 . S
C1923 H1917 0.930 . S
C1923 C1919 1.400 . S
C1923 C1922 1.385 . S
C1924 C1922 1.478 . S
C1924 C1926 1.381 . S
C1924 C1930 1.383 . S
C1925 C1921 1.495 . S
C1925 H1931 0.959 . S
C1925 H1932 0.961 . S
C1925 H1933 0.960 . S
C1926 C1924 1.381 . S
C1926 C1927 1.394 . S
C1926 H1934 0.930 . S
C1927 C1926 1.394 . S
C1927 C1928 1.383 . S
C1927 H1935 0.929 . S
C1928 C1927 1.383 . S
C1928 C1929 1.377 . S
C1929 H1913 0.930 . S
C1929 C1928 1.377 . S
C1929 C1930 1.379 . S
C1930 H1914 0.931 . S
C1930 C1924 1.383 . S
C1930 C1929 1.379 . S
H1931 C1925 0.959 . S
H1932 C1925 0.961 . S
H1933 C1925 0.960 . S
H1934 C1926 0.930 . S
H1935 C1927 0.929 . S
H1936 C1944 0.929 . S
H1937 C1946 0.930 . S
H1938 C1948 0.930 . S
H1939 C1951 0.929 . S
H1940 C1954 0.930 . S
H1941 C1956 0.960 . S
H1942 C1956 0.960 . S
H1943 C1956 0.960 . S
C1944 H1936 0.929 . S
C1944 C1945 1.377 . S
C1944 C1946 1.384 . S
C1945 C1944 1.377 . S
C1945 C1951 1.390 . S
C1946 H1937 0.930 . S
C1946 C1944 1.384 . S
C1946 C1947 1.372 . S
C1947 C1946 1.372 . S
C1947 C1948 1.400 . S
C1947 C1952 1.490 . S
C1948 H1938 0.930 . S
C1948 C1947 1.400 . S
C1948 C1951 1.386 . S
H1949 C1965 0.930 . S
H1950 C1966 0.931 . S
C1951 H1939 0.929 . S
C1951 C1945 1.390 . S
C1951 C1948 1.386 . S
C1952 C1947 1.490 . S
C1952 C1954 1.395 . S
C1952 C1955 1.403 . S
H1953 C1959 0.930 . S
C1954 H1940 0.930 . S
C1954 C1952 1.395 . S
C1954 C1957 1.403 . S
C1955 C1952 1.403 . S
C1955 C1956 1.524 . S
C1955 C1959 1.400 . S
C1956 H1941 0.960 . S
C1956 H1942 0.960 . S
C1956 H1943 0.960 . S
C1956 C1955 1.524 . S
C1957 C1954 1.403 . S
C1957 C1958 1.392 . S
C1957 C1961 1.495 . S
C1958 C1957 1.392 . S
C1958 C1959 1.385 . S
C1958 C1960 1.478 . S
C1959 H1953 0.930 . S
C1959 C1955 1.400 . S
C1959 C1958 1.385 . S
C1960 C1958 1.478 . S
C1960 C1962 1.381 . S
C1960 C1966 1.383 . S
C1961 C1957 1.495 . S
C1961 H1967 0.959 . S
C1961 H1968 0.961 . S
C1961 H1969 0.960 . S
C1962 C1960 1.381 . S
C1962 C1963 1.394 . S
C1962 H1970 0.930 . S
C1963 C1962 1.394 . S
C1963 C1964 1.383 . S
C1963 H1971 0.929 . S
C1964 C1963 1.383 . S
C1964 C1965 1.377 . S
C1965 H1949 0.930 . S
C1965 C1964 1.377 . S
C1965 C1966 1.379 . S
C1966 H1950 0.931 . S
C1966 C1960 1.383 . S
C1966 C1965 1.379 . S
H1967 C1961 0.959 . S
H1968 C1961 0.961 . S
H1969 C1961 0.960 . S
H1970 C1962 0.930 . S
H1971 C1963 0.929 . S
H1972 C1980 0.929 . S
H1973 C1982 0.930 . S
H1974 C1984 0.930 . S
H1975 C1987 0.929 . S
H1976 C1990 0.930 . S
H1977 C1992 0.960 . S
H1978 C1992 0.960 . S
H1979 C1992 0.960 . S
C1980 H1972 0.929 . S
C1980 C1981 1.377 . S
C1980 C1982 1.384 . S
C1981 C1980 1.377 . S
C1981 C1987 1.390 . S
C1982 H1973 0.930 . S
C1982 C1980 1.384 . S
C1982 C1983 1.372 . S
C1983 C1982 1.372 . S
C1983 C1984 1.400 . S
C1983 C1988 1.490 . S
C1984 H1974 0.930 . S
C1984 C1983 1.400 . S
C1984 C1987 1.386 . S
H1985 C2001 0.930 . S
H1986 C2002 0.931 . S
C1987 H1975 0.929 . S
C1987 C1981 1.390 . S
C1987 C1984 1.386 . S
C1988 C1983 1.490 . S
C1988 C1990 1.395 . S
C1988 C1991 1.403 . S
H1989 C1995 0.930 . S
C1990 H1976 0.930 . S
C1990 C1988 1.395 . S
C1990 C1993 1.403 . S
C1991 C1988 1.403 . S
C1991 C1992 1.524 . S
C1991 C1995 1.400 . S
C1992 H1977 0.960 . S
C1992 H1978 0.960 . S
C1992 H1979 0.960 . S
C1992 C1991 1.524 . S
C1993 C1990 1.403 . S
C1993 C1994 1.392 . S
C1993 C1997 1.495 . S
C1994 C1993 1.392 . S
C1994 C1995 1.385 . S
C1994 C1996 1.478 . S
C1995 H1989 0.930 . S
C1995 C1991 1.400 . S
C1995 C1994 1.385 . S
C1996 C1994 1.478 . S
C1996 C1998 1.381 . S
C1996 C2002 1.383 . S
C1997 C1993 1.495 . S
C1997 H2003 0.959 . S
C1997 H2004 0.961 . S
C1997 H2005 0.960 . S
C1998 C1996 1.381 . S
C1998 C1999 1.394 . S
C1998 H2006 0.930 . S
C1999 C1998 1.394 . S
C1999 C2000 1.383 . S
C1999 H2007 0.929 . S
C2000 C1999 1.383 . S
C2000 C2001 1.377 . S
C2001 H1985 0.930 . S
C2001 C2000 1.377 . S
C2001 C2002 1.379 . S
C2002 H1986 0.931 . S
C2002 C1996 1.383 . S
C2002 C2001 1.379 . S
H2003 C1997 0.959 . S
H2004 C1997 0.961 . S
H2005 C1997 0.960 . S
H2006 C1998 0.930 . S
H2007 C1999 0.929 . S
H2008 C2016 0.929 . S
H2009 C2018 0.930 . S
H2010 C2020 0.930 . S
H2011 C2023 0.929 . S
H2012 C2026 0.930 . S
H2013 C2028 0.960 . S
H2014 C2028 0.960 . S
H2015 C2028 0.960 . S
C2016 H2008 0.929 . S
C2016 C2017 1.377 . S
C2016 C2018 1.384 . S
C2017 C2016 1.377 . S
C2017 C2023 1.390 . S
C2018 H2009 0.930 . S
C2018 C2016 1.384 . S
C2018 C2019 1.372 . S
C2019 C2018 1.372 . S
C2019 C2020 1.400 . S
C2019 C2024 1.490 . S
C2020 H2010 0.930 . S
C2020 C2019 1.400 . S
C2020 C2023 1.386 . S
H2021 C2037 0.930 . S
H2022 C2038 0.931 . S
C2023 H2011 0.929 . S
C2023 C2017 1.390 . S
C2023 C2020 1.386 . S
C2024 C2019 1.490 . S
C2024 C2026 1.395 . S
C2024 C2027 1.403 . S
H2025 C2031 0.930 . S
C2026 H2012 0.930 . S
C2026 C2024 1.395 . S
C2026 C2029 1.403 . S
C2027 C2024 1.403 . S
C2027 C2028 1.524 . S
C2027 C2031 1.400 . S
C2028 H2013 0.960 . S
C2028 H2014 0.960 . S
C2028 H2015 0.960 . S
C2028 C2027 1.524 . S
C2029 C2026 1.403 . S
C2029 C2030 1.392 . S
C2029 C2033 1.495 . S
C2030 C2029 1.392 . S
C2030 C2031 1.385 . S
C2030 C2032 1.478 . S
C2031 H2025 0.930 . S
C2031 C2027 1.400 . S
C2031 C2030 1.385 . S
C2032 C2030 1.478 . S
C2032 C2034 1.381 . S
C2032 C2038 1.383 . S
C2033 C2029 1.495 . S
C2033 H2039 0.959 . S
C2033 H2040 0.961 . S
C2033 H2041 0.960 . S
C2034 C2032 1.381 . S
C2034 C2035 1.394 . S
C2034 H2042 0.930 . S
C2035 C2034 1.394 . S
C2035 C2036 1.383 . S
C2035 H2043 0.929 . S
C2036 C2035 1.383 . S
C2036 C2037 1.377 . S
C2037 H2021 0.930 . S
C2037 C2036 1.377 . S
C2037 C2038 1.379 . S
C2038 H2022 0.931 . S
C2038 C2032 1.383 . S
C2038 C2037 1.379 . S
H2039 C2033 0.959 . S
H2040 C2033 0.961 . S
H2041 C2033 0.960 . S
H2042 C2034 0.930 . S
H2043 C2035 0.929 . S
H2044 C2052 0.929 . S
H2045 C2054 0.930 . S
H2046 C2056 0.930 . S
H2047 C2059 0.929 . S
H2048 C2062 0.930 . S
H2049 C2064 0.960 . S
H2050 C2064 0.960 . S
H2051 C2064 0.960 . S
C2052 H2044 0.929 . S
C2052 C2053 1.377 . S
C2052 C2054 1.384 . S
C2053 C2052 1.377 . S
C2053 C2059 1.390 . S
C2054 H2045 0.930 . S
C2054 C2052 1.384 . S
C2054 C2055 1.372 . S
C2055 C2054 1.372 . S
C2055 C2056 1.400 . S
C2055 C2060 1.490 . S
C2056 H2046 0.930 . S
C2056 C2055 1.400 . S
C2056 C2059 1.386 . S
H2057 C2073 0.930 . S
H2058 C2074 0.931 . S
C2059 H2047 0.929 . S
C2059 C2053 1.390 . S
C2059 C2056 1.386 . S
C2060 C2055 1.490 . S
C2060 C2062 1.395 . S
C2060 C2063 1.403 . S
H2061 C2067 0.930 . S
C2062 H2048 0.930 . S
C2062 C2060 1.395 . S
C2062 C2065 1.403 . S
C2063 C2060 1.403 . S
C2063 C2064 1.524 . S
C2063 C2067 1.400 . S
C2064 H2049 0.960 . S
C2064 H2050 0.960 . S
C2064 H2051 0.960 . S
C2064 C2063 1.524 . S
C2065 C2062 1.403 . S
C2065 C2066 1.392 . S
C2065 C2069 1.495 . S
C2066 C2065 1.392 . S
C2066 C2067 1.385 . S
C2066 C2068 1.478 . S
C2067 H2061 0.930 . S
C2067 C2063 1.400 . S
C2067 C2066 1.385 . S
C2068 C2066 1.478 . S
C2068 C2070 1.381 . S
C2068 C2074 1.383 . S
C2069 C2065 1.495 . S
C2069 H2075 0.959 . S
C2069 H2076 0.961 . S
C2069 H2077 0.960 . S
C2070 C2068 1.381 . S
C2070 C2071 1.394 . S
C2070 H2078 0.930 . S
C2071 C2070 1.394 . S
C2071 C2072 1.383 . S
C2071 H2079 0.929 . S
C2072 C2071 1.383 . S
C2072 C2073 1.377 . S
C2073 H2057 0.930 . S
C2073 C2072 1.377 . S
C2073 C2074 1.379 . S
C2074 H2058 0.931 . S
C2074 C2068 1.383 . S
C2074 C2073 1.379 . S
H2075 C2069 0.959 . S
H2076 C2069 0.961 . S
H2077 C2069 0.960 . S
H2078 C2070 0.930 . S
H2079 C2071 0.929 . S
C361 C10 1.547 . S
C380 C329 1.585 . S
C397 C32 1.537 . S
C416 C351 1.597 . S
C433 C52 1.547 . S
C452 C279 1.585 . S
C469 C301 1.597 . S
C488 C76 1.515 . S
C505 C235 1.603 . S
C524 C96 1.533 . S
C541 C263 1.602 . S
C560 C118 1.530 . S
C577 C197 1.603 . S
C596 C142 1.574 . S
C613 C219 1.603 . S
C632 C172 1.529 . S
C649 C186 1.544 . S
C668 C139 1.586 . S
C685 C175 1.595 . S
C704 C208 1.524 . S
C721 C103 1.596 . S
C740 C238 1.514 . S
C757 C125 1.595 . S
C776 C252 1.550 . S
C793 C51 1.603 . S
C812 C272 1.573 . S
C829 C294 1.557 . S
C848 C87 1.603 . S
C865 C21 1.603 . S
C884 C326 1.529 . S
C901 C348 1.556 . S
C920 C43 1.596 . S
C937 C7 1.131 . S
C956 C59 1.137 . S
C973 C73 1.130 . S
C992 C29 1.131 . S
C1009 C153 1.138 . S
C1028 C95 1.147 . S
C1045 C169 1.137 . S
C1064 C117 1.147 . S
C1081 C241 1.129 . S
C1100 C183 1.138 . S
C1117 C249 1.130 . S
C1136 C205 1.136 . S
C1153 C323 1.140 . S
C1172 C271 1.139 . S
C1189 C293 1.139 . S
C1208 C345 1.144 . S
C1225 C18 1.509 . S
C1244 C140 1.515 . S
C1261 C40 1.511 . S
C1280 C164 1.508 . S
C1297 C106 1.504 . S
C1316 C54 1.506 . S
C1333 C84 1.510 . S
C1352 C128 1.513 . S
C1369 C194 1.511 . S
C1388 C318 1.503 . S
C1405 C340 1.508 . S
C1424 C216 1.514 . S
C1441 C282 1.509 . S
C1460 C228 1.501 . S
C1477 C260 1.511 . S
C1496 C304 1.510 . S
C1513 C15 0.674 . S
C1532 C285 0.630 . S
C1549 C307 0.680 . S
C1568 C37 0.734 . S
C1585 C315 0.674 . S
C1604 C65 0.714 . S
C1621 C337 0.679 . S
C1640 C81 0.730 . S
C1657 C191 0.692 . S
C1676 C109 0.689 . S
C1693 C213 0.688 . S
C1712 C131 0.729 . S
C1729 C147 0.689 . S
C1748 C227 0.719 . S
C1765 C257 0.670 . S
C1784 C161 0.678 . S
C1801 C8 1.404 . S
C1820 C120 1.401 . S
C1837 C98 1.404 . S
C1856 C30 1.404 . S
C1873 C62 1.405 . S
C1892 C162 1.396 . S
C1909 C150 1.404 . S
C1928 C74 1.401 . S
C1945 C184 1.404 . S
C1964 C296 1.400 . S
C1981 C274 1.404 . S
C2000 C206 1.404 . S
C2017 C338 1.403 . S
C2036 C230 1.403 . S
C2053 C250 1.405 . S
C2072 C316 1.405 . S
