# Generated by pormake.
# Topology umc, (4)-cn, num edge types: 1
# Building blocks:
#     Node 0, Type 0, BuildingBlock: QUQFOY_clean_sbu_3, # of connection points: 4
#     Node 1, Type 0, BuildingBlock: QUQFOY_clean_sbu_3, # of connection points: 4
#     Node 2, Type 0, BuildingBlock: QUQFOY_clean_sbu_3, # of connection points: 4
#     Node 3, Type 0, BuildingBlock: QUQFOY_clean_sbu_3, # of connection points: 4
#     Node 4, Type 0, BuildingBlock: QUQFOY_clean_sbu_3, # of connection points: 4
#     Node 5, Type 0, BuildingBlock: QUQFOY_clean_sbu_3, # of connection points: 4
#     Node 6, Type 0, BuildingBlock: QUQFOY_clean_sbu_3, # of connection points: 4
#     Node 7, Type 0, BuildingBlock: QUQFOY_clean_sbu_3, # of connection points: 4
#     Node 8, Type 0, BuildingBlock: QUQFOY_clean_sbu_3, # of connection points: 4
#     Node 9, Type 0, BuildingBlock: QUQFOY_clean_sbu_3, # of connection points: 4
#     Node 10, Type 0, BuildingBlock: QUQFOY_clean_sbu_3, # of connection points: 4
#     Node 11, Type 0, BuildingBlock: QUQFOY_clean_sbu_3, # of connection points: 4
#     Node 12, Type 0, BuildingBlock: QUQFOY_clean_sbu_3, # of connection points: 4
#     Node 13, Type 0, BuildingBlock: QUQFOY_clean_sbu_3, # of connection points: 4
#     Node 14, Type 0, BuildingBlock: QUQFOY_clean_sbu_3, # of connection points: 4
#     Node 15, Type 0, BuildingBlock: QUQFOY_clean_sbu_3, # of connection points: 4
#     Edge 16, Type (0, 0), BuildingBlock: AJUNOK_clean_linker_0, # of connection points: 2
#     Edge 17, Type (0, 0), BuildingBlock: AJUNOK_clean_linker_0, # of connection points: 2
#     Edge 18, Type (0, 0), BuildingBlock: AJUNOK_clean_linker_0, # of connection points: 2
#     Edge 19, Type (0, 0), BuildingBlock: AJUNOK_clean_linker_0, # of connection points: 2
#     Edge 20, Type (0, 0), BuildingBlock: AJUNOK_clean_linker_0, # of connection points: 2
#     Edge 21, Type (0, 0), BuildingBlock: AJUNOK_clean_linker_0, # of connection points: 2
#     Edge 22, Type (0, 0), BuildingBlock: AJUNOK_clean_linker_0, # of connection points: 2
#     Edge 23, Type (0, 0), BuildingBlock: AJUNOK_clean_linker_0, # of connection points: 2
#     Edge 24, Type (0, 0), BuildingBlock: AJUNOK_clean_linker_0, # of connection points: 2
#     Edge 25, Type (0, 0), BuildingBlock: AJUNOK_clean_linker_0, # of connection points: 2
#     Edge 26, Type (0, 0), BuildingBlock: AJUNOK_clean_linker_0, # of connection points: 2
#     Edge 27, Type (0, 0), BuildingBlock: AJUNOK_clean_linker_0, # of connection points: 2
#     Edge 28, Type (0, 0), BuildingBlock: AJUNOK_clean_linker_0, # of connection points: 2
#     Edge 29, Type (0, 0), BuildingBlock: AJUNOK_clean_linker_0, # of connection points: 2
#     Edge 30, Type (0, 0), BuildingBlock: AJUNOK_clean_linker_0, # of connection points: 2
#     Edge 31, Type (0, 0), BuildingBlock: AJUNOK_clean_linker_0, # of connection points: 2
#     Edge 32, Type (0, 0), BuildingBlock: AJUNOK_clean_linker_0, # of connection points: 2
#     Edge 33, Type (0, 0), BuildingBlock: AJUNOK_clean_linker_0, # of connection points: 2
#     Edge 34, Type (0, 0), BuildingBlock: AJUNOK_clean_linker_0, # of connection points: 2
#     Edge 35, Type (0, 0), BuildingBlock: AJUNOK_clean_linker_0, # of connection points: 2
#     Edge 36, Type (0, 0), BuildingBlock: AJUNOK_clean_linker_0, # of connection points: 2
#     Edge 37, Type (0, 0), BuildingBlock: AJUNOK_clean_linker_0, # of connection points: 2
#     Edge 38, Type (0, 0), BuildingBlock: AJUNOK_clean_linker_0, # of connection points: 2
#     Edge 39, Type (0, 0), BuildingBlock: AJUNOK_clean_linker_0, # of connection points: 2
#     Edge 40, Type (0, 0), BuildingBlock: AJUNOK_clean_linker_0, # of connection points: 2
#     Edge 41, Type (0, 0), BuildingBlock: AJUNOK_clean_linker_0, # of connection points: 2
#     Edge 42, Type (0, 0), BuildingBlock: AJUNOK_clean_linker_0, # of connection points: 2
#     Edge 43, Type (0, 0), BuildingBlock: AJUNOK_clean_linker_0, # of connection points: 2
#     Edge 44, Type (0, 0), BuildingBlock: AJUNOK_clean_linker_0, # of connection points: 2
#     Edge 45, Type (0, 0), BuildingBlock: AJUNOK_clean_linker_0, # of connection points: 2
#     Edge 46, Type (0, 0), BuildingBlock: AJUNOK_clean_linker_0, # of connection points: 2
#     Edge 47, Type (0, 0), BuildingBlock: AJUNOK_clean_linker_0, # of connection points: 2
# Relax obj value: 0.084
# Max RMSD: 0.168
# Mean RMSD: 0.168
data_MOF--net-umc--node1-QUQFOY_clean_sbu_3--edge1-AJUNOK_clean_linker_0
_symmetry_space_group_name_H-M    P1
_symmetry_Int_Tables_number       1
_symmetry_cell_setting            triclinic
loop_
_symmetry_equiv_pos_as_xyz
'x, y, z'
_cell_length_a     33.339474
_cell_length_b     26.231085
_cell_length_c     44.212917
_cell_angle_alpha  90.205611
_cell_angle_beta   90.181234
_cell_angle_gamma 89.682894
loop_
_atom_site_label
_atom_site_type_symbol
_atom_site_fract_x
_atom_site_fract_y
_atom_site_fract_z
_atom_type_partial_charge
C0 C 0.28449 0.0001 0.28167 0.0
O1 O 0.28394 0.9563 0.29368 0.0
Cd2 Cd 0.31819 0.94592 0.34146 0.0
O3 O 0.29811 0.03753 0.29662 0.0
Cd4 Cd 0.32141 0.05582 0.3478 0.0
C5 C 0.4091 0.00297 0.32943 0.0
O6 O 0.29251 0.99399 0.38404 0.0
O7 O 0.34905 0.03032 0.39505 0.0
O8 O 0.26631 0.11541 0.35376 0.0
C9 C 0.31951 0.00384 0.4036 0.0
O10 O 0.38988 0.96174 0.33349 0.0
C11 C 0.28776 0.1548 0.35724 0.0
O12 O 0.39096 0.04577 0.33129 0.0
O13 O 0.32558 0.14815 0.35665 0.0
C14 C 0.70961 0.00465 0.28075 0.0
O15 O 0.70692 0.04856 0.29268 0.0
Cd16 Cd 0.67383 0.05607 0.34119 0.0
O17 O 0.69792 0.96604 0.29533 0.0
Cd18 Cd 0.67259 0.94365 0.34487 0.0
C19 C 0.58379 0.99734 0.32845 0.0
O20 O 0.70127 0.00486 0.38192 0.0
O21 O 0.64674 0.96458 0.39337 0.0
O22 O 0.72716 0.88269 0.34944 0.0
C23 C 0.67547 0.99278 0.40178 0.0
O24 O 0.60221 0.03885 0.33383 0.0
C25 C 0.70531 0.84335 0.35086 0.0
O26 O 0.60293 0.95515 0.3285 0.0
O27 O 0.66758 0.85067 0.35002 0.0
C28 C 0.28748 0.01309 0.1522 0.0
O29 O 0.29231 0.054 0.1375 0.0
Cd30 Cd 0.32423 0.04825 0.08826 0.0
O31 O 0.29677 0.97081 0.1401 0.0
Cd32 Cd 0.32136 0.93628 0.09285 0.0
C33 C 0.41259 0.98785 0.10379 0.0
O34 O 0.29386 0.99095 0.05155 0.0
O35 O 0.34338 0.9388 0.04238 0.0
O36 O 0.26549 0.87725 0.09245 0.0
C37 C 0.31615 0.96814 0.03236 0.0
O38 O 0.3953 0.02917 0.09595 0.0
C39 C 0.28671 0.83713 0.0945 0.0
O40 O 0.39219 0.94724 0.10672 0.0
O41 O 0.32449 0.84312 0.09591 0.0
C42 C 0.71144 0.9782 0.15186 0.0
O43 O 0.71093 0.93454 0.13951 0.0
Cd44 Cd 0.67788 0.92807 0.09089 0.0
O45 O 0.69911 0.01656 0.1371 0.0
Cd46 Cd 0.676 0.038 0.0865 0.0
C47 C 0.58737 0.9871 0.10296 0.0
O48 O 0.70557 0.9772 0.04958 0.0
O49 O 0.64977 0.01566 0.03821 0.0
O50 O 0.73191 0.09552 0.08182 0.0
C51 C 0.67966 0.98932 0.02961 0.0
O52 O 0.60615 0.9454 0.09831 0.0
C53 C 0.71134 0.13606 0.07926 0.0
O54 O 0.60607 0.02932 0.10207 0.0
O55 O 0.67339 0.13124 0.07992 0.0
C56 C 0.71599 0.01528 0.65124 0.0
O57 O 0.71281 0.05859 0.63881 0.0
Cd58 Cd 0.67803 0.06309 0.59072 0.0
O59 O 0.70432 0.97591 0.63715 0.0
Cd60 Cd 0.67876 0.95156 0.58771 0.0
C61 C 0.58939 0.00204 0.60473 0.0
O62 O 0.70464 0.01215 0.54951 0.0
O63 O 0.64996 0.9705 0.53989 0.0
O64 O 0.73539 0.8944 0.5819 0.0
C65 C 0.67804 -0.00142 0.53042 0.0
O66 O 0.60707 0.04387 0.59909 0.0
C67 C 0.71533 0.85354 0.58081 0.0
O68 O 0.60915 0.9603 0.60463 0.0
O69 O 0.67739 0.85807 0.58271 0.0
C70 C 0.29117 0.00635 0.65402 0.0
O71 O 0.29038 0.96196 0.6426 0.0
Cd72 Cd 0.32315 0.94925 0.59451 0.0
O73 O 0.30442 0.04302 0.63848 0.0
Cd74 Cd 0.32665 0.05866 0.58696 0.0
C75 C 0.41462 0.00579 0.60493 0.0
O76 O 0.29623 0.99571 0.55177 0.0
O77 O 0.3526 0.03101 0.53959 0.0
O78 O 0.27178 0.11848 0.58098 0.0
C79 C 0.32257 0.00462 0.53171 0.0
O80 O 0.39521 0.9645 0.6014 0.0
C81 C 0.29332 0.15755 0.57695 0.0
O82 O 0.39649 0.04856 0.60295 0.0
O83 O 0.33112 0.15061 0.57721 0.0
C84 C 0.72053 0.99497 0.78042 0.0
O85 O 0.71803 0.95155 0.79275 0.0
Cd86 Cd 0.68632 0.94482 0.84168 0.0
O87 O 0.71022 0.03446 0.79515 0.0
Cd88 Cd 0.68763 0.05833 0.84555 0.0
C89 C 0.59751 0.00844 0.82994 0.0
O90 O 0.71488 0.9953 0.88216 0.0
O91 O 0.66125 0.03823 0.89381 0.0
O92 O 0.74269 0.11829 0.85034 0.0
C93 C 0.68902 0.00806 0.90197 0.0
O94 O 0.61512 0.96603 0.83492 0.0
C95 C 0.7208 0.15789 0.85221 0.0
O96 O 0.6175 0.04972 0.83 0.0
O97 O 0.68308 0.15105 0.85142 0.0
C98 C 0.2972 0.02677 0.78317 0.0
O99 O 0.29932 0.06829 0.79781 0.0
Cd100 Cd 0.3324 0.06346 0.84679 0.0
O101 O 0.30897 0.98581 0.79548 0.0
Cd102 Cd 0.33373 0.95387 0.8432 0.0
C103 C 0.42276 0.00793 0.83101 0.0
O104 O 0.30331 0.00654 0.88417 0.0
O105 O 0.35587 0.95964 0.89376 0.0
O106 O 0.27717 0.89713 0.84133 0.0
C107 C 0.32613 0.98501 0.90353 0.0
O108 O 0.40405 0.04842 0.83858 0.0
C109 C 0.29708 0.85587 0.84175 0.0
O110 O 0.40398 0.9659 0.82884 0.0
O111 O 0.3351 0.85986 0.84262 0.0
C112 C 0.78609 0.47943 0.27927 0.0
O113 O 0.78904 0.43651 0.29218 0.0
Cd114 Cd 0.82172 0.4334 0.3411 0.0
O115 O 0.79627 0.51939 0.29349 0.0
Cd116 Cd 0.8188 0.54516 0.34356 0.0
C117 C 0.90959 0.49703 0.32839 0.0
O118 O 0.79258 0.48413 0.38139 0.0
O119 O 0.84641 0.52697 0.39188 0.0
O120 O 0.76143 0.60183 0.34775 0.0
C121 C 0.81845 0.49827 0.40089 0.0
O122 O 0.8926 0.4547 0.33398 0.0
C123 C 0.78128 0.64282 0.34952 0.0
O124 O 0.88901 0.53811 0.32795 0.0
O125 O 0.8193 0.63851 0.34872 0.0
C126 C 0.20811 0.50154 0.27938 0.0
O127 O 0.2077 0.54649 0.28998 0.0
Cd128 Cd 0.17449 0.56032 0.33783 0.0
O129 O 0.19577 0.46511 0.29556 0.0
Cd130 Cd 0.17373 0.45069 0.34723 0.0
C131 C 0.08444 0.49949 0.3287 0.0
O132 O 0.20227 0.51671 0.3813 0.0
O133 O 0.1473 0.47877 0.39438 0.0
O134 O 0.23056 0.3945 0.35443 0.0
C135 C 0.17618 0.5077 0.40152 0.0
O136 O 0.10291 0.54165 0.33136 0.0
C137 C 0.21055 0.35406 0.35806 0.0
O138 O 0.10353 0.4575 0.33141 0.0
O139 O 0.17252 0.35849 0.35721 0.0
C140 C 0.78583 0.49855 0.14983 0.0
O141 O 0.78919 0.54221 0.13789 0.0
Cd142 Cd 0.82117 0.55008 0.08913 0.0
O143 O 0.79606 0.45917 0.13499 0.0
Cd144 Cd 0.81938 0.43554 0.08477 0.0
C145 C 0.90974 0.48532 0.10029 0.0
O146 O 0.79242 0.49966 0.04881 0.0
O147 O 0.84521 0.45562 0.03636 0.0
O148 O 0.76412 0.37596 0.07988 0.0
C149 C 0.81805 0.48711 0.02882 0.0
O150 O 0.89222 0.52788 0.09555 0.0
C151 C 0.78588 0.33625 0.07795 0.0
O152 O 0.88962 0.44412 0.10019 0.0
O153 O 0.82362 0.34286 0.07873 0.0
C154 C 0.20852 0.47067 0.151 0.0
O155 O 0.206 0.42775 0.13788 0.0
Cd156 Cd 0.17576 0.42898 0.08774 0.0
O157 O 0.19752 0.51056 0.13721 0.0
Cd158 Cd 0.17413 0.53992 0.08869 0.0
C159 C 0.08466 0.48512 0.09968 0.0
O160 O 0.20768 0.48414 0.05062 0.0
O161 O 0.15775 0.53272 0.03688 0.0
O162 O 0.23 0.59715 0.09371 0.0
C163 C 0.18718 0.5046 0.02949 0.0
O164 O 0.10373 0.44423 0.09355 0.0
C165 C 0.21002 0.63822 0.09176 0.0
O166 O 0.10331 0.52733 0.1013 0.0
O167 O 0.1723 0.63392 0.08805 0.0
C168 C 0.21379 0.51022 0.65045 0.0
O169 O 0.21142 0.55465 0.63935 0.0
Cd170 Cd 0.17764 0.56475 0.59123 0.0
O171 O 0.20247 0.47238 0.6348 0.0
Cd172 Cd 0.17928 0.45394 0.58376 0.0
C173 C 0.08915 0.50127 0.60146 0.0
O174 O 0.20584 0.51907 0.54859 0.0
O175 O 0.15167 0.47821 0.53629 0.0
O176 O 0.23635 0.39777 0.57706 0.0
C177 C 0.17962 0.50804 0.52866 0.0
O178 O 0.10653 0.54395 0.5978 0.0
C179 C 0.2164 0.35699 0.57439 0.0
O180 O 0.10932 0.45995 0.59987 0.0
O181 O 0.17839 0.36128 0.57549 0.0
C182 C 0.79128 0.49378 0.65123 0.0
O183 O 0.79243 0.44983 0.63923 0.0
Cd184 Cd 0.824 0.44156 0.59025 0.0
O185 O 0.80283 0.53203 0.63625 0.0
Cd186 Cd 0.82529 0.55355 0.58574 0.0
C187 C 0.91432 0.50064 0.60168 0.0
O188 O 0.7958 0.49174 0.54938 0.0
O189 O 0.85041 0.53131 0.53726 0.0
O190 O 0.77008 0.61382 0.58207 0.0
C191 C 0.82141 0.50324 0.52925 0.0
O192 O 0.89566 0.4591 0.59699 0.0
C193 C 0.79162 0.65326 0.57944 0.0
O194 O 0.89541 0.54301 0.60114 0.0
O195 O 0.8294 0.64628 0.57927 0.0
C196 C 0.2179 0.48756 0.77974 0.0
O197 O 0.2159 0.44507 0.79321 0.0
Cd198 Cd 0.18632 0.44464 0.84332 0.0
O199 O 0.2079 0.52796 0.79364 0.0
Cd200 Cd 0.18638 0.55728 0.84297 0.0
C201 C 0.09611 0.50343 0.83152 0.0
O202 O 0.21769 0.49926 0.881 0.0
O203 O 0.16873 0.54978 0.89435 0.0
O204 O 0.24175 0.61685 0.84144 0.0
C205 C 0.19665 0.51941 0.90193 0.0
O206 O 0.11469 0.46202 0.83719 0.0
C207 C 0.22026 0.65688 0.84238 0.0
O208 O 0.11519 0.54536 0.8305 0.0
O209 O 0.18251 0.65056 0.84365 0.0
C210 C 0.79683 0.51885 0.78034 0.0
O211 O 0.79963 0.56235 0.79271 0.0
Cd212 Cd 0.83204 0.56749 0.84163 0.0
O213 O 0.80752 0.47953 0.79494 0.0
Cd214 Cd 0.83093 0.45633 0.84521 0.0
C215 C 0.92121 0.50482 0.83054 0.0
O216 O 0.80225 0.51816 0.8819 0.0
O217 O 0.85672 0.47723 0.89391 0.0
O218 O 0.77468 0.39905 0.84962 0.0
C219 C 0.82772 0.5055 0.90205 0.0
O220 O 0.90355 0.54721 0.83554 0.0
C221 C 0.7951 0.35833 0.85177 0.0
O222 O 0.90118 0.4636 0.83025 0.0
O223 O 0.83306 0.36299 0.85111 0.0
C224 C 0.35294 0.98117 0.45153 0.0
C225 C 0.31693 0.98876 0.43557 0.0
C226 C 0.35369 0.98133 0.48305 0.0
C227 C 0.31846 0.98911 0.49981 0.0
H228 H 0.38123 0.97855 0.43958 0.0
H229 H 0.38253 0.97883 0.49436 0.0
S230 S 0.21559 0.00285 0.46882 0.0
N231 N 0.24446 0.99786 0.43862 0.0
N232 N 0.24587 -0.0018 0.49837 0.0
C233 C 0.28166 0.9915 0.48427 0.0
C234 C 0.28089 0.99132 0.45192 0.0
C235 C 0.6432 0.0133 0.48195 0.0
C236 C 0.67956 0.01136 0.49804 0.0
C237 C 0.64257 0.01172 0.45045 0.0
C238 C 0.67828 0.00817 0.43379 0.0
H239 H 0.61482 0.01289 0.49383 0.0
H240 H 0.61372 0.01022 0.43912 0.0
S241 S 0.78157 0.00944 0.46499 0.0
N242 N 0.75237 0.0117 0.49511 0.0
N243 N 0.75118 0.00878 0.43538 0.0
C244 C 0.71501 0.01111 0.44938 0.0
C245 C 0.71566 0.01271 0.48172 0.0
C246 C 0.30421 0.01937 -0.01475 0.0
C247 C 0.31016 0.97199 -0.00053 0.0
C248 C 0.30683 0.0236 0.95355 0.0
C249 C 0.31544 0.98053 0.93563 0.0
H250 H 0.30004 0.05356 -0.00129 0.0
H251 H 0.30453 0.06093 0.94327 0.0
S252 S 0.32536 0.84689 0.96177 0.0
N253 N 0.3191 0.88058 -0.00699 0.0
N254 N 0.32398 0.88851 0.93387 0.0
C255 C 0.31806 0.93264 0.94954 0.0
C256 C 0.31542 0.92836 -0.01857 0.0
C257 C 0.65239 0.98198 0.94762 0.0
C258 C 0.68942 0.98887 0.9332 0.0
C259 C 0.65009 0.97699 -0.02106 0.0
C260 C 0.68473 0.97894 -0.00294 0.0
H261 H 0.62466 0.98361 0.93478 0.0
H262 H 0.62066 0.97504 -0.01081 0.0
S263 S 0.78946 0.98884 -0.03013 0.0
N264 N 0.76191 0.99123 0.93874 0.0
N265 N 0.75763 0.9821 -0.00186 0.0
C266 C 0.72232 0.98081 -0.01724 0.0
C267 C 0.72466 0.98577 0.9506 0.0
C268 C 0.8537 0.48237 0.48065 0.0
C269 C 0.81812 0.48739 0.49735 0.0
C270 C 0.85297 0.48104 0.44915 0.0
C271 C 0.81665 0.48465 0.43312 0.0
H272 H 0.88259 0.48272 0.49196 0.0
H273 H 0.88133 0.4805 0.43722 0.0
S274 S 0.7148 0.49067 0.46626 0.0
N275 N 0.74523 0.48983 0.49585 0.0
N276 N 0.74388 0.48731 0.4361 0.0
C277 C 0.78056 0.48461 0.44946 0.0
C278 C 0.7813 0.48599 0.48181 0.0
C279 C 0.21737 0.51961 0.48051 0.0
C280 C 0.18173 0.5254 0.49714 0.0
C281 C 0.2165 0.51951 0.4487 0.0
C282 C 0.17997 0.52519 0.43302 0.0
H283 H 0.24522 0.51029 0.49198 0.0
H284 H 0.24371 0.51012 0.43651 0.0
S285 S 0.08052 0.55357 0.46645 0.0
N286 N 0.11064 0.54595 0.49583 0.0
N287 N 0.109 0.54582 0.43627 0.0
C288 C 0.14523 0.53696 0.44951 0.0
C289 C 0.14612 0.53704 0.48161 0.0
C290 C 0.78548 0.51145 0.94851 0.0
C291 C 0.82285 0.51766 0.93432 0.0
C292 C 0.78305 0.50666 -0.01987 0.0
C293 C 0.81796 0.50799 -0.00196 0.0
H294 H 0.75867 0.5056 0.93505 0.0
H295 H 0.75446 0.49733 -0.00978 0.0
S296 S 0.92118 0.53526 -0.02788 0.0
N297 N 0.89404 0.53376 0.94082 0.0
N298 N 0.8895 0.52471 -0.0 0.0
C299 C 0.85457 0.51989 -0.0157 0.0
C300 C 0.85702 0.52478 0.9524 0.0
C301 C 0.2009 0.46165 -0.02009 0.0
C302 C 0.20093 0.50582 -0.00198 0.0
C303 C 0.20342 0.46537 0.94819 0.0
C304 C 0.20593 0.51331 0.93419 0.0
H305 H 0.19584 0.42471 -0.00996 0.0
H306 H 0.20019 0.4312 0.93459 0.0
S307 S 0.21381 0.63892 -0.02777 0.0
N308 N 0.20888 0.59772 0.00011 0.0
N309 N 0.21344 0.60468 0.94082 0.0
C310 C 0.20948 0.55698 0.95234 0.0
C311 C 0.20702 0.55322 -0.01572 0.0
C312 C 0.51812 0.04442 0.32857 0.0
C313 C 0.53937 -0.00174 0.32467 0.0
C314 C 0.47609 0.04587 0.32876 0.0
C315 C 0.45335 0.00122 0.32512 0.0
H316 H 0.53399 0.07975 0.33253 0.0
H317 H 0.46142 0.08216 0.33294 0.0
S318 S 0.49405 0.8714 0.31012 0.0
N319 N 0.53418 0.90737 0.31416 0.0
N320 N 0.45528 0.91008 0.31452 0.0
C321 C 0.47411 0.95517 0.31955 0.0
C322 C 0.51701 0.9537 0.31931 0.0
C323 C 0.47894 0.03232 0.10384 0.0
C324 C 0.45704 0.98692 0.10734 0.0
C325 C 0.52097 0.03225 0.10373 0.0
C326 C 0.54307 0.98674 0.10697 0.0
H327 H 0.46358 0.06831 0.10031 0.0
H328 H 0.53614 0.06807 0.09998 0.0
S329 S 0.50057 0.8581 0.12031 0.0
N330 N 0.46095 0.89561 0.1167 0.0
N331 N 0.53987 0.89547 0.11644 0.0
C332 C 0.52167 0.94134 0.11198 0.0
C333 C 0.47876 0.94144 0.1122 0.0
C334 C 0.5234 0.04823 0.60611 0.0
C335 C 0.54504 0.00214 0.60881 0.0
C336 C 0.48138 0.04922 0.60616 0.0
C337 C 0.45899 0.00415 0.60887 0.0
H338 H 0.53894 0.08396 0.60294 0.0
H339 H 0.46642 0.08558 0.60297 0.0
S340 S 0.50085 0.87399 0.62039 0.0
N341 N 0.54066 0.91064 0.61706 0.0
N342 N 0.46174 0.91246 0.61718 0.0
C343 C 0.48016 0.95805 0.61322 0.0
C344 C 0.52308 0.95705 0.6132 0.0
C345 C 0.53134 0.96364 0.82718 0.0
C346 C 0.55305 0.00957 0.82642 0.0
C347 C 0.48929 0.96343 0.82738 0.0
C348 C 0.46704 0.00915 0.82699 0.0
H349 H 0.54686 0.92732 0.82848 0.0
H350 H 0.47424 0.92705 0.82896 0.0
S351 S 0.50901 0.13973 0.82145 0.0
N352 N 0.54877 0.10204 0.82267 0.0
N353 N 0.46987 0.10162 0.82311 0.0
C354 C 0.48825 0.05531 0.82473 0.0
C355 C 0.53115 0.05553 0.82441 0.0
C356 C 0.97661 0.4532 0.32843 0.0
C357 C 0.95399 0.49832 0.32474 0.0
C358 C 0.01864 0.4537 0.32846 0.0
C359 C 0.04004 0.49935 0.32485 0.0
H360 H 0.96183 0.41713 0.33225 0.0
H361 H 0.03437 0.41808 0.33237 0.0
S362 S 0.99539 0.6273 0.31081 0.0
N363 N 0.9564 0.58946 0.31478 0.0
N364 N 0.0353 0.59043 0.31481 0.0
C365 C 0.01788 0.54444 0.31963 0.0
C366 C 0.97497 0.54392 0.31958 0.0
C367 C 0.01811 0.52981 0.10244 0.0
C368 C 0.04027 0.48402 0.10309 0.0
C369 C 0.97607 0.52978 0.10262 0.0
C370 C 0.95422 0.48396 0.10359 0.0
H371 H 0.03325 0.56613 0.10083 0.0
H372 H 0.96066 0.56616 0.10121 0.0
S373 S 0.9979 0.35364 0.10887 0.0
N374 N 0.03715 0.39157 0.10715 0.0
N375 N 0.95825 0.39151 0.10753 0.0
C376 C 0.97601 0.43792 0.10568 0.0
C377 C 0.01891 0.43795 0.10539 0.0
C378 C 0.98041 0.5457 0.60341 0.0
C379 C 0.95873 0.49995 0.60537 0.0
C380 C 0.02244 0.54576 0.60331 0.0
C381 C 0.04477 0.50009 0.60522 0.0
H382 H 0.96488 0.58182 0.60089 0.0
H383 H 0.03744 0.58201 0.60079 0.0
S384 S 1.00259 0.37029 0.61448 0.0
N385 N 0.9629 0.40794 0.61198 0.0
N386 N 0.04181 0.40809 0.61179 0.0
C387 C 0.02352 0.45424 0.60874 0.0
C388 C 0.98061 0.45416 0.60881 0.0
C389 C 0.02977 0.54887 0.83045 0.0
C390 C 0.05172 0.50309 0.82796 0.0
C391 C 0.98771 0.54911 0.83021 0.0
C392 C 0.96569 0.50361 0.82735 0.0
H393 H 0.04509 0.58481 0.83361 0.0
H394 H 0.97244 0.58534 0.83312 0.0
S395 S 0.00885 0.37394 0.81651 0.0
N396 N 0.04825 0.41135 0.81995 0.0
N397 N 0.96935 0.4118 0.81945 0.0
C398 C 0.98729 0.45777 0.82337 0.0
C399 C 0.03019 0.45752 0.82371 0.0
C400 C 0.20823 0.25882 0.35896 0.0
C401 C 0.23077 0.30382 0.36104 0.0
C402 C 0.22695 0.2109 0.35858 0.0
C403 C 0.269 0.20595 0.36033 0.0
H404 H 0.17588 0.26054 0.35671 0.0
H405 H 0.2082 0.17752 0.35618 0.0
S406 S 0.34156 0.31181 0.36914 0.0
N407 N 0.29737 0.34028 0.36711 0.0
N408 N 0.33246 0.25019 0.36637 0.0
C409 C 0.29184 0.25053 0.36369 0.0
C410 C 0.27276 0.29942 0.36406 0.0
C411 C 0.76557 0.78623 0.35178 0.0
C412 C 0.72352 0.79165 0.35224 0.0
C413 C 0.78392 0.73807 0.35141 0.0
C414 C 0.76101 0.69324 0.35149 0.0
H415 H 0.78467 0.81949 0.35126 0.0
H416 H 0.81636 0.73611 0.35064 0.0
S417 S 0.64973 0.68625 0.35407 0.0
N418 N 0.65943 0.74788 0.35381 0.0
N419 N 0.69381 0.65734 0.35316 0.0
C420 C 0.71889 0.69802 0.35261 0.0
C421 C 0.70019 0.74717 0.35298 0.0
C422 C 0.20827 0.73331 0.08724 0.0
C423 C 0.23005 0.68849 0.0934 0.0
C424 C 0.22683 0.78111 0.08789 0.0
C425 C 0.26794 0.78603 0.0947 0.0
H426 H 0.17668 0.73154 0.08155 0.0
H427 H 0.20878 0.81443 0.08268 0.0
S428 S 0.33803 0.68071 0.11427 0.0
N429 N 0.29479 0.65229 0.1078 0.0
N430 N 0.32955 0.74205 0.10888 0.0
C431 C 0.28998 0.74161 0.10137 0.0
C432 C 0.27108 0.69291 0.10077 0.0
C433 C 0.70774 0.23141 0.07854 0.0
C434 C 0.7309 0.18654 0.07681 0.0
C435 C 0.72577 0.27954 0.07825 0.0
C436 C 0.76771 0.28481 0.07618 0.0
H437 H 0.67544 0.22945 0.08076 0.0
H438 H 0.7066 0.31285 0.08023 0.0
S439 S 0.84176 0.17929 0.06885 0.0
N440 N 0.798 0.15052 0.0713 0.0
N441 N 0.83176 0.2409 0.07079 0.0
C442 C 0.79117 0.24029 0.07354 0.0
C443 C 0.77281 0.19123 0.07384 0.0
C444 C 0.71271 0.75821 0.58069 0.0
C445 C 0.73542 0.80305 0.57856 0.0
C446 C 0.73116 0.71009 0.58036 0.0
C447 C 0.77309 0.70476 0.57788 0.0
H448 H 0.68042 0.76018 0.58314 0.0
H449 H 0.71228 0.67684 0.58256 0.0
S450 S 0.84612 0.81012 0.56985 0.0
N451 N 0.80215 0.83896 0.57253 0.0
N452 N 0.83669 0.74855 0.57196 0.0
C453 C 0.79613 0.74921 0.57498 0.0
C454 C 0.77734 0.7983 0.57531 0.0
C455 C 0.21403 0.26177 0.57429 0.0
C456 C 0.23665 0.30665 0.57207 0.0
C457 C 0.23266 0.21382 0.57504 0.0
C458 C 0.2747 0.2087 0.57357 0.0
H459 H 0.18168 0.2636 0.57627 0.0
H460 H 0.21384 0.18057 0.57748 0.0
S461 S 0.34751 0.31414 0.56489 0.0
N462 N 0.30335 0.34279 0.5664 0.0
N463 N 0.33828 0.25261 0.56785 0.0
C464 C 0.29764 0.25313 0.57017 0.0
C465 C 0.27865 0.30207 0.56942 0.0
C466 C 0.78078 0.21482 0.85298 0.0
C467 C 0.73878 0.20945 0.85403 0.0
C468 C 0.79873 0.263 0.85289 0.0
C469 C 0.77545 0.30784 0.85381 0.0
H470 H 0.80009 0.18154 0.85173 0.0
H471 H 0.83112 0.265 0.85154 0.0
S472 S 0.66425 0.31487 0.85858 0.0
N473 N 0.67444 0.25326 0.85735 0.0
N474 N 0.70806 0.34374 0.85719 0.0
C475 C 0.73343 0.30306 0.85566 0.0
C476 C 0.71515 0.25394 0.85576 0.0
C477 C 0.28086 0.71268 0.84299 0.0
C478 C 0.23879 0.70814 0.84205 0.0
C479 C 0.29943 0.76047 0.84278 0.0
C480 C 0.2767 0.80572 0.84156 0.0
H481 H 0.29978 0.67902 0.84402 0.0
H482 H 0.33188 0.76184 0.84367 0.0
S483 S 0.16544 0.81492 0.83825 0.0
N484 N 0.1749 0.75316 0.83953 0.0
N485 N 0.20963 0.84291 0.83907 0.0
C486 C 0.23455 0.80178 0.84046 0.0
C487 C 0.21565 0.75306 0.84073 0.0
C488 C 0.26908 0.96321 0.23085 0.0
C489 C 0.27508 0.00651 0.24907 0.0
C490 C 0.26973 0.96663 0.19931 0.0
C491 C 0.27645 0.01345 0.18467 0.0
H492 H 0.26642 0.92578 0.2409 0.0
H493 H 0.26734 0.93159 0.1864 0.0
S494 S 0.2847 0.1399 0.22196 0.0
N495 N 0.28093 0.09912 0.25015 0.0
N496 N 0.28257 0.10527 0.19075 0.0
C497 C 0.27818 0.05783 0.20251 0.0
C498 C 0.27744 0.05441 0.23474 0.0
C499 C 0.71836 0.03368 0.19755 0.0
C500 C 0.72104 0.98468 0.18444 0.0
C501 C 0.71809 0.04043 0.22895 0.0
C502 C 0.7205 -0.00158 0.24849 0.0
H503 H 0.71399 0.06708 0.18355 0.0
H504 H 0.71319 0.07849 0.23784 0.0
S505 S 0.73751 0.86348 0.22584 0.0
N506 N 0.73304 0.89442 0.19354 0.0
N507 N 0.73284 0.90708 0.25263 0.0
C508 C 0.72751 0.94983 0.23575 0.0
C509 C 0.72774 0.94295 0.20371 0.0
C510 C 0.72655 0.04836 0.734 0.0
C511 C 0.72958 0.0 0.74771 0.0
C512 C 0.72554 0.05357 0.70252 0.0
C513 C 0.72755 0.01063 0.6835 0.0
H514 H 0.7224 0.0824 0.7476 0.0
H515 H 0.72038 0.09118 0.69319 0.0
S516 S 0.7454 0.87689 0.70773 0.0
N517 N 0.7416 0.90938 0.73965 0.0
N518 N 0.73999 0.91916 0.68043 0.0
C519 C 0.73493 0.9627 0.6968 0.0
C520 C 0.7359 0.95738 0.72891 0.0
C521 C 0.27932 0.97723 0.73699 0.0
C522 C 0.2856 0.02504 0.75081 0.0
C523 C 0.27781 0.972 0.70554 0.0
C524 C 0.28256 0.01439 0.68659 0.0
H525 H 0.27784 0.9429 0.75049 0.0
H526 H 0.27551 0.93394 0.69612 0.0
S527 S 0.29087 0.14949 0.71151 0.0
N528 N 0.29015 0.1166 0.74327 0.0
N529 N 0.28693 0.10705 0.68401 0.0
C530 C 0.28457 0.06315 0.70014 0.0
C531 C 0.28614 0.06843 0.73229 0.0
C532 C 0.7769 0.53665 0.2012 0.0
C533 C 0.77584 0.49347 0.18233 0.0
C534 C 0.77706 0.53176 0.23269 0.0
C535 C 0.77622 0.48349 0.24661 0.0
H536 H 0.78023 0.5744 0.19171 0.0
H537 H 0.78026 0.56615 0.2461 0.0
S538 S 0.76396 0.35926 0.20731 0.0
N539 N 0.76685 0.40141 0.17979 0.0
N540 N 0.76751 0.39229 0.23905 0.0
C541 C 0.77099 0.44038 0.22806 0.0
C542 C 0.77073 0.44536 0.1959 0.0
C543 C 0.20958 0.44316 0.23457 0.0
C544 C 0.21778 0.49155 0.24716 0.0
C545 C 0.21012 0.43509 0.20324 0.0
C546 C 0.21892 0.47509 0.18341 0.0
H547 H 0.20016 0.41192 0.24879 0.0
H548 H 0.20071 0.39838 0.19452 0.0
S549 S 0.25186 0.60532 0.20494 0.0
N550 N 0.24176 0.57738 0.23742 0.0
N551 N 0.24298 0.56212 0.17855 0.0
C552 C 0.2313 0.52203 0.19578 0.0
C553 C 0.23069 0.5303 0.22766 0.0
C554 C 0.22892 0.53945 0.7334 0.0
C555 C 0.22659 0.49096 0.74692 0.0
C556 C 0.22781 0.54521 0.70198 0.0
C557 C 0.22441 0.50271 0.68275 0.0
H558 H 0.22933 0.57369 0.74717 0.0
H559 H 0.22721 0.58351 0.69289 0.0
S560 S 0.22611 0.36681 0.70645 0.0
N561 N 0.22706 0.39927 0.73849 0.0
N562 N 0.22544 0.40989 0.67933 0.0
C563 C 0.22621 0.45372 0.69583 0.0
C564 C 0.22723 0.44788 0.72794 0.0
C565 C 0.78485 0.45795 0.70319 0.0
C566 C 0.78254 0.50024 0.68386 0.0
C567 C 0.78652 0.46434 0.73459 0.0
C568 C 0.78595 0.51327 0.74793 0.0
H569 H 0.78809 0.41978 0.69405 0.0
H570 H 0.7906 0.4306 0.74834 0.0
S571 S 0.77096 0.63564 0.70744 0.0
N572 N 0.77283 0.59216 0.68039 0.0
N573 N 0.77626 0.60413 0.73947 0.0
C574 C 0.77955 0.55551 0.729 0.0
C575 C 0.77779 0.54899 0.69695 0.0
loop_
_geom_bond_atom_site_label_1
_geom_bond_atom_site_label_2
_geom_bond_distance
_geom_bond_site_symmetry_2
_ccdc_geom_bond_type
C0 O1 1.306 . S
C0 O3 1.160 1_565 S
O1 C0 1.306 . S
O1 Cd2 2.228 . S
Cd2 O1 2.228 . S
Cd2 O6 2.279 . S
Cd2 O10 2.277 . S
O3 C0 1.160 1_545 S
O3 Cd4 2.203 . S
Cd4 O3 2.203 . S
Cd4 O6 2.406 1_545 S
Cd4 O7 2.333 . S
Cd4 O8 2.352 . S
Cd4 O12 2.277 . S
Cd4 O13 2.356 . S
C5 O10 1.209 1_545 S
C5 O12 1.226 . S
O6 Cd2 2.279 . S
O6 Cd4 2.406 1_565 S
O6 C9 1.316 1_565 S
O7 Cd4 2.333 . S
O7 C9 1.214 . S
O8 Cd4 2.352 . S
O8 C11 1.258 . S
C9 O6 1.316 1_545 S
C9 O7 1.214 . S
O10 Cd2 2.277 . S
O10 C5 1.209 1_565 S
C11 O8 1.258 . S
C11 O13 1.282 . S
O12 Cd4 2.277 . S
O12 C5 1.226 . S
O13 Cd4 2.356 . S
O13 C11 1.282 . S
C14 O15 1.306 . S
C14 O17 1.160 1_545 S
O15 C14 1.306 . S
O15 Cd16 2.228 . S
Cd16 O15 2.228 . S
Cd16 O20 2.279 . S
Cd16 O24 2.277 . S
O17 C14 1.160 1_565 S
O17 Cd18 2.203 . S
Cd18 O17 2.203 . S
Cd18 O20 2.405 1_565 S
Cd18 O21 2.333 . S
Cd18 O22 2.352 . S
Cd18 O26 2.277 . S
Cd18 O27 2.356 . S
C19 O24 1.209 1_565 S
C19 O26 1.226 . S
O20 Cd16 2.279 . S
O20 Cd18 2.405 1_545 S
O20 C23 1.316 1_545 S
O21 Cd18 2.333 . S
O21 C23 1.214 . S
O22 Cd18 2.352 . S
O22 C25 1.258 . S
C23 O20 1.316 1_565 S
C23 O21 1.214 . S
O24 Cd16 2.277 . S
O24 C19 1.209 1_545 S
C25 O22 1.258 . S
C25 O27 1.282 . S
O26 Cd18 2.277 . S
O26 C19 1.226 . S
O27 Cd18 2.356 . S
O27 C25 1.282 . S
C28 O29 1.306 . S
C28 O31 1.160 1_545 S
O29 C28 1.306 . S
O29 Cd30 2.228 . S
Cd30 O29 2.228 . S
Cd30 O34 2.279 . S
Cd30 O38 2.277 . S
O31 C28 1.160 1_565 S
O31 Cd32 2.203 . S
Cd32 O31 2.203 . S
Cd32 O34 2.406 1_565 S
Cd32 O35 2.333 . S
Cd32 O36 2.352 . S
Cd32 O40 2.277 . S
Cd32 O41 2.356 . S
C33 O38 1.209 1_565 S
C33 O40 1.226 . S
O34 Cd30 2.279 . S
O34 Cd32 2.406 1_545 S
O34 C37 1.316 1_545 S
O35 Cd32 2.333 . S
O35 C37 1.214 . S
O36 Cd32 2.352 . S
O36 C39 1.258 . S
C37 O34 1.316 1_565 S
C37 O35 1.214 . S
O38 Cd30 2.277 . S
O38 C33 1.209 1_545 S
C39 O36 1.258 . S
C39 O41 1.282 . S
O40 Cd32 2.277 . S
O40 C33 1.226 . S
O41 Cd32 2.356 . S
O41 C39 1.282 . S
C42 O43 1.306 . S
C42 O45 1.160 1_565 S
O43 C42 1.306 . S
O43 Cd44 2.228 . S
Cd44 O43 2.228 . S
Cd44 O48 2.279 . S
Cd44 O52 2.277 . S
O45 C42 1.160 1_545 S
O45 Cd46 2.203 . S
Cd46 O45 2.203 . S
Cd46 O48 2.405 1_545 S
Cd46 O49 2.333 . S
Cd46 O50 2.352 . S
Cd46 O54 2.277 . S
Cd46 O55 2.356 . S
C47 O52 1.209 1_545 S
C47 O54 1.226 . S
O48 Cd44 2.279 . S
O48 Cd46 2.405 1_565 S
O48 C51 1.316 1_565 S
O49 Cd46 2.333 . S
O49 C51 1.214 . S
O50 Cd46 2.352 . S
O50 C53 1.258 . S
C51 O48 1.316 1_545 S
C51 O49 1.214 . S
O52 Cd44 2.277 . S
O52 C47 1.209 1_565 S
C53 O50 1.258 . S
C53 O55 1.282 . S
O54 Cd46 2.277 . S
O54 C47 1.226 . S
O55 Cd46 2.356 . S
O55 C53 1.282 . S
C56 O57 1.306 . S
C56 O59 1.160 1_545 S
O57 C56 1.306 . S
O57 Cd58 2.228 . S
Cd58 O57 2.228 . S
Cd58 O62 2.279 . S
Cd58 O66 2.277 . S
O59 C56 1.160 1_565 S
O59 Cd60 2.203 . S
Cd60 O59 2.203 . S
Cd60 O62 2.406 1_565 S
Cd60 O63 2.333 . S
Cd60 O64 2.352 . S
Cd60 O68 2.277 . S
Cd60 O69 2.356 . S
C61 O66 1.209 1_565 S
C61 O68 1.226 . S
O62 Cd58 2.279 . S
O62 Cd60 2.406 1_545 S
O62 C65 1.316 1_545 S
O63 Cd60 2.333 . S
O63 C65 1.214 . S
O64 Cd60 2.352 . S
O64 C67 1.258 . S
C65 O62 1.316 1_565 S
C65 O63 1.214 . S
O66 Cd58 2.277 . S
O66 C61 1.209 1_545 S
C67 O64 1.258 . S
C67 O69 1.282 . S
O68 Cd60 2.277 . S
O68 C61 1.226 . S
O69 Cd60 2.356 . S
O69 C67 1.282 . S
C70 O71 1.306 . S
C70 O73 1.160 1_565 S
O71 C70 1.306 . S
O71 Cd72 2.228 . S
Cd72 O71 2.228 . S
Cd72 O76 2.279 . S
Cd72 O80 2.277 . S
O73 C70 1.160 1_545 S
O73 Cd74 2.203 . S
Cd74 O73 2.203 . S
Cd74 O76 2.405 1_545 S
Cd74 O77 2.333 . S
Cd74 O78 2.352 . S
Cd74 O82 2.277 . S
Cd74 O83 2.356 . S
C75 O80 1.209 1_545 S
C75 O82 1.226 . S
O76 Cd72 2.279 . S
O76 Cd74 2.405 1_565 S
O76 C79 1.316 1_565 S
O77 Cd74 2.333 . S
O77 C79 1.214 . S
O78 Cd74 2.352 . S
O78 C81 1.258 . S
C79 O76 1.316 1_545 S
C79 O77 1.214 . S
O80 Cd72 2.277 . S
O80 C75 1.209 1_565 S
C81 O78 1.258 . S
C81 O83 1.282 . S
O82 Cd74 2.277 . S
O82 C75 1.226 . S
O83 Cd74 2.356 . S
O83 C81 1.282 . S
C84 O85 1.306 . S
C84 O87 1.160 1_565 S
O85 C84 1.306 . S
O85 Cd86 2.228 . S
Cd86 O85 2.228 . S
Cd86 O90 2.279 . S
Cd86 O94 2.277 . S
O87 C84 1.160 1_545 S
O87 Cd88 2.203 . S
Cd88 O87 2.203 . S
Cd88 O90 2.406 1_545 S
Cd88 O91 2.333 . S
Cd88 O92 2.352 . S
Cd88 O96 2.277 . S
Cd88 O97 2.356 . S
C89 O94 1.209 1_545 S
C89 O96 1.226 . S
O90 Cd86 2.279 . S
O90 Cd88 2.406 1_565 S
O90 C93 1.316 1_565 S
O91 Cd88 2.333 . S
O91 C93 1.214 . S
O92 Cd88 2.352 . S
O92 C95 1.258 . S
C93 O90 1.316 1_545 S
C93 O91 1.214 . S
O94 Cd86 2.277 . S
O94 C89 1.209 1_565 S
C95 O92 1.258 . S
C95 O97 1.282 . S
O96 Cd88 2.277 . S
O96 C89 1.226 . S
O97 Cd88 2.356 . S
O97 C95 1.282 . S
C98 O99 1.306 . S
C98 O101 1.160 1_545 S
O99 C98 1.306 . S
O99 Cd100 2.228 . S
Cd100 O99 2.228 . S
Cd100 O104 2.279 . S
Cd100 O108 2.277 . S
O101 C98 1.160 1_565 S
O101 Cd102 2.203 . S
Cd102 O101 2.203 . S
Cd102 O104 2.405 1_565 S
Cd102 O105 2.333 . S
Cd102 O106 2.352 . S
Cd102 O110 2.277 . S
Cd102 O111 2.356 . S
C103 O108 1.209 1_565 S
C103 O110 1.226 . S
O104 Cd100 2.279 . S
O104 Cd102 2.405 1_545 S
O104 C107 1.316 1_545 S
O105 Cd102 2.333 . S
O105 C107 1.214 . S
O106 Cd102 2.352 . S
O106 C109 1.258 . S
C107 O104 1.316 1_565 S
C107 O105 1.214 . S
O108 Cd100 2.277 . S
O108 C103 1.209 1_545 S
C109 O106 1.258 . S
C109 O111 1.282 . S
O110 Cd102 2.277 . S
O110 C103 1.226 . S
O111 Cd102 2.356 . S
O111 C109 1.282 . S
C112 O113 1.306 . S
C112 O115 1.160 . S
O113 C112 1.306 . S
O113 Cd114 2.228 . S
Cd114 O113 2.228 . S
Cd114 O118 2.273 . S
Cd114 O122 2.277 . S
O115 C112 1.160 . S
O115 Cd116 2.203 . S
Cd116 O115 2.203 . S
Cd116 O118 2.411 . S
Cd116 O119 2.333 . S
Cd116 O120 2.352 . S
Cd116 O124 2.277 . S
Cd116 O125 2.356 . S
C117 O122 1.209 . S
C117 O124 1.226 . S
O118 Cd114 2.273 . S
O118 Cd116 2.411 . S
O118 C121 1.320 . S
O119 Cd116 2.333 . S
O119 C121 1.214 . S
O120 Cd116 2.352 . S
O120 C123 1.258 . S
C121 O118 1.320 . S
C121 O119 1.214 . S
O122 Cd114 2.277 . S
O122 C117 1.209 . S
C123 O120 1.258 . S
C123 O125 1.282 . S
O124 Cd116 2.277 . S
O124 C117 1.226 . S
O125 Cd116 2.356 . S
O125 C123 1.282 . S
C126 O127 1.306 . S
C126 O129 1.160 . S
O127 C126 1.306 . S
O127 Cd128 2.228 . S
Cd128 O127 2.228 . S
Cd128 O132 2.273 . S
Cd128 O136 2.277 . S
O129 C126 1.160 . S
O129 Cd130 2.203 . S
Cd130 O129 2.203 . S
Cd130 O132 2.411 . S
Cd130 O133 2.333 . S
Cd130 O134 2.352 . S
Cd130 O138 2.277 . S
Cd130 O139 2.356 . S
C131 O136 1.209 . S
C131 O138 1.226 . S
O132 Cd128 2.273 . S
O132 Cd130 2.411 . S
O132 C135 1.320 . S
O133 Cd130 2.333 . S
O133 C135 1.214 . S
O134 Cd130 2.352 . S
O134 C137 1.258 . S
C135 O132 1.320 . S
C135 O133 1.214 . S
O136 Cd128 2.277 . S
O136 C131 1.209 . S
C137 O134 1.258 . S
C137 O139 1.282 . S
O138 Cd130 2.277 . S
O138 C131 1.226 . S
O139 Cd130 2.356 . S
O139 C137 1.282 . S
C140 O141 1.306 . S
C140 O143 1.160 . S
O141 C140 1.306 . S
O141 Cd142 2.228 . S
Cd142 O141 2.228 . S
Cd142 O146 2.273 . S
Cd142 O150 2.277 . S
O143 C140 1.160 . S
O143 Cd144 2.203 . S
Cd144 O143 2.203 . S
Cd144 O146 2.411 . S
Cd144 O147 2.333 . S
Cd144 O148 2.352 . S
Cd144 O152 2.277 . S
Cd144 O153 2.356 . S
C145 O150 1.209 . S
C145 O152 1.226 . S
O146 Cd142 2.273 . S
O146 Cd144 2.411 . S
O146 C149 1.320 . S
O147 Cd144 2.333 . S
O147 C149 1.214 . S
O148 Cd144 2.352 . S
O148 C151 1.258 . S
C149 O146 1.320 . S
C149 O147 1.214 . S
O150 Cd142 2.277 . S
O150 C145 1.209 . S
C151 O148 1.258 . S
C151 O153 1.282 . S
O152 Cd144 2.277 . S
O152 C145 1.226 . S
O153 Cd144 2.356 . S
O153 C151 1.282 . S
C154 O155 1.306 . S
C154 O157 1.160 . S
O155 C154 1.306 . S
O155 Cd156 2.228 . S
Cd156 O155 2.228 . S
Cd156 O160 2.273 . S
Cd156 O164 2.277 . S
O157 C154 1.160 . S
O157 Cd158 2.203 . S
Cd158 O157 2.203 . S
Cd158 O160 2.411 . S
Cd158 O161 2.333 . S
Cd158 O162 2.352 . S
Cd158 O166 2.277 . S
Cd158 O167 2.356 . S
C159 O164 1.209 . S
C159 O166 1.226 . S
O160 Cd156 2.273 . S
O160 Cd158 2.411 . S
O160 C163 1.320 . S
O161 Cd158 2.333 . S
O161 C163 1.214 . S
O162 Cd158 2.352 . S
O162 C165 1.258 . S
C163 O160 1.320 . S
C163 O161 1.214 . S
O164 Cd156 2.277 . S
O164 C159 1.209 . S
C165 O162 1.258 . S
C165 O167 1.282 . S
O166 Cd158 2.277 . S
O166 C159 1.226 . S
O167 Cd158 2.356 . S
O167 C165 1.282 . S
C168 O169 1.306 . S
C168 O171 1.160 . S
O169 C168 1.306 . S
O169 Cd170 2.228 . S
Cd170 O169 2.228 . S
Cd170 O174 2.273 . S
Cd170 O178 2.277 . S
O171 C168 1.160 . S
O171 Cd172 2.203 . S
Cd172 O171 2.203 . S
Cd172 O174 2.411 . S
Cd172 O175 2.333 . S
Cd172 O176 2.352 . S
Cd172 O180 2.277 . S
Cd172 O181 2.356 . S
C173 O178 1.209 . S
C173 O180 1.226 . S
O174 Cd170 2.273 . S
O174 Cd172 2.411 . S
O174 C177 1.320 . S
O175 Cd172 2.333 . S
O175 C177 1.214 . S
O176 Cd172 2.352 . S
O176 C179 1.258 . S
C177 O174 1.320 . S
C177 O175 1.214 . S
O178 Cd170 2.277 . S
O178 C173 1.209 . S
C179 O176 1.258 . S
C179 O181 1.282 . S
O180 Cd172 2.277 . S
O180 C173 1.226 . S
O181 Cd172 2.356 . S
O181 C179 1.282 . S
C182 O183 1.306 . S
C182 O185 1.160 . S
O183 C182 1.306 . S
O183 Cd184 2.228 . S
Cd184 O183 2.228 . S
Cd184 O188 2.273 . S
Cd184 O192 2.277 . S
O185 C182 1.160 . S
O185 Cd186 2.203 . S
Cd186 O185 2.203 . S
Cd186 O188 2.411 . S
Cd186 O189 2.333 . S
Cd186 O190 2.352 . S
Cd186 O194 2.277 . S
Cd186 O195 2.356 . S
C187 O192 1.209 . S
C187 O194 1.226 . S
O188 Cd184 2.273 . S
O188 Cd186 2.411 . S
O188 C191 1.320 . S
O189 Cd186 2.333 . S
O189 C191 1.214 . S
O190 Cd186 2.352 . S
O190 C193 1.258 . S
C191 O188 1.320 . S
C191 O189 1.214 . S
O192 Cd184 2.277 . S
O192 C187 1.209 . S
C193 O190 1.258 . S
C193 O195 1.282 . S
O194 Cd186 2.277 . S
O194 C187 1.226 . S
O195 Cd186 2.356 . S
O195 C193 1.282 . S
C196 O197 1.306 . S
C196 O199 1.160 . S
O197 C196 1.306 . S
O197 Cd198 2.228 . S
Cd198 O197 2.228 . S
Cd198 O202 2.273 . S
Cd198 O206 2.277 . S
O199 C196 1.160 . S
O199 Cd200 2.203 . S
Cd200 O199 2.203 . S
Cd200 O202 2.411 . S
Cd200 O203 2.333 . S
Cd200 O204 2.352 . S
Cd200 O208 2.277 . S
Cd200 O209 2.356 . S
C201 O206 1.209 . S
C201 O208 1.226 . S
O202 Cd198 2.273 . S
O202 Cd200 2.411 . S
O202 C205 1.320 . S
O203 Cd200 2.333 . S
O203 C205 1.214 . S
O204 Cd200 2.352 . S
O204 C207 1.258 . S
C205 O202 1.320 . S
C205 O203 1.214 . S
O206 Cd198 2.277 . S
O206 C201 1.209 . S
C207 O204 1.258 . S
C207 O209 1.282 . S
O208 Cd200 2.277 . S
O208 C201 1.226 . S
O209 Cd200 2.356 . S
O209 C207 1.282 . S
C210 O211 1.306 . S
C210 O213 1.160 . S
O211 C210 1.306 . S
O211 Cd212 2.228 . S
Cd212 O211 2.228 . S
Cd212 O216 2.273 . S
Cd212 O220 2.277 . S
O213 C210 1.160 . S
O213 Cd214 2.203 . S
Cd214 O213 2.203 . S
Cd214 O216 2.411 . S
Cd214 O217 2.333 . S
Cd214 O218 2.352 . S
Cd214 O222 2.277 . S
Cd214 O223 2.356 . S
C215 O220 1.209 . S
C215 O222 1.226 . S
O216 Cd212 2.273 . S
O216 Cd214 2.411 . S
O216 C219 1.320 . S
O217 Cd214 2.333 . S
O217 C219 1.214 . S
O218 Cd214 2.352 . S
O218 C221 1.258 . S
C219 O216 1.320 . S
C219 O217 1.214 . S
O220 Cd212 2.277 . S
O220 C215 1.209 . S
C221 O218 1.258 . S
C221 O223 1.282 . S
O222 Cd214 2.277 . S
O222 C215 1.226 . S
O223 Cd214 2.356 . S
O223 C221 1.282 . S
C224 C225 1.369 1_565 S
C224 C226 1.419 . S
C224 H228 0.930 . S
C225 C224 1.369 1_545 S
C225 C234 1.429 . S
C226 C224 1.419 . S
C226 C227 1.363 1_565 S
C226 H229 0.929 . S
C227 C226 1.363 1_545 S
C227 C233 1.428 . S
H228 C224 0.930 . S
H229 C226 0.929 . S
S230 N231 1.613 . S
S230 N232 1.610 . S
N231 S230 1.613 . S
N231 C234 1.350 . S
N232 S230 1.610 . S
N232 C233 1.351 . S
C233 C227 1.428 . S
C233 N232 1.351 . S
C233 C234 1.434 . S
C234 C225 1.429 . S
C234 N231 1.350 . S
C234 C233 1.434 . S
C235 C236 1.369 1_545 S
C235 C237 1.419 . S
C235 H239 0.930 . S
C236 C235 1.369 1_565 S
C236 C245 1.429 . S
C237 C235 1.419 . S
C237 C238 1.363 1_545 S
C237 H240 0.929 . S
C238 C237 1.363 1_565 S
C238 C244 1.428 . S
H239 C235 0.930 . S
H240 C237 0.929 . S
S241 N242 1.613 . S
S241 N243 1.610 . S
N242 S241 1.613 . S
N242 C245 1.350 . S
N243 S241 1.610 . S
N243 C244 1.351 . S
C244 C238 1.428 . S
C244 N243 1.351 . S
C244 C245 1.434 . S
C245 C236 1.429 . S
C245 N242 1.350 . S
C245 C244 1.434 . S
C246 C247 1.369 1_545 S
C246 C248 1.419 1_554 S
C246 H250 0.930 . S
C247 C246 1.369 1_565 S
C247 C256 1.429 . S
C248 C246 1.419 1_556 S
C248 C249 1.363 1_545 S
C248 H251 0.929 . S
C249 C248 1.363 1_565 S
C249 C255 1.428 . S
H250 C246 0.930 . S
H251 C248 0.929 . S
S252 N253 1.615 1_556 S
S252 N254 1.608 . S
N253 S252 1.615 1_554 S
N253 C256 1.350 . S
N254 S252 1.608 . S
N254 C255 1.351 . S
C255 C249 1.428 . S
C255 N254 1.351 . S
C255 C256 1.434 1_556 S
C256 C247 1.429 . S
C256 N253 1.350 . S
C256 C255 1.434 1_554 S
C257 C258 1.369 1_565 S
C257 C259 1.419 1_556 S
C257 H261 0.930 . S
C258 C257 1.369 1_545 S
C258 C267 1.429 . S
C259 C257 1.419 1_554 S
C259 C260 1.363 1_565 S
C259 H262 0.929 . S
C260 C259 1.363 1_545 S
C260 C266 1.428 . S
H261 C257 0.930 . S
H262 C259 0.929 . S
S263 N264 1.615 1_554 S
S263 N265 1.608 . S
N264 S263 1.615 1_556 S
N264 C267 1.350 . S
N265 S263 1.608 . S
N265 C266 1.351 . S
C266 C260 1.428 . S
C266 N265 1.351 . S
C266 C267 1.434 1_554 S
C267 C258 1.429 . S
C267 N264 1.350 . S
C267 C266 1.434 1_556 S
C268 C269 1.369 . S
C268 C270 1.419 . S
C268 H272 0.930 . S
C269 C268 1.369 . S
C269 C278 1.429 . S
C270 C268 1.419 . S
C270 C271 1.363 . S
C270 H273 0.929 . S
C271 C270 1.363 . S
C271 C277 1.428 . S
H272 C268 0.930 . S
H273 C270 0.929 . S
S274 N275 1.613 . S
S274 N276 1.610 . S
N275 S274 1.613 . S
N275 C278 1.350 . S
N276 S274 1.610 . S
N276 C277 1.351 . S
C277 C271 1.428 . S
C277 N276 1.351 . S
C277 C278 1.434 . S
C278 C269 1.429 . S
C278 N275 1.350 . S
C278 C277 1.434 . S
C279 C280 1.369 . S
C279 C281 1.419 . S
C279 H283 0.930 . S
C280 C279 1.369 . S
C280 C289 1.429 . S
C281 C279 1.419 . S
C281 C282 1.363 . S
C281 H284 0.929 . S
C282 C281 1.363 . S
C282 C288 1.428 . S
H283 C279 0.930 . S
H284 C281 0.929 . S
S285 N286 1.613 . S
S285 N287 1.610 . S
N286 S285 1.613 . S
N286 C289 1.350 . S
N287 S285 1.610 . S
N287 C288 1.351 . S
C288 C282 1.428 . S
C288 N287 1.351 . S
C288 C289 1.434 . S
C289 C280 1.429 . S
C289 N286 1.350 . S
C289 C288 1.434 . S
C290 C291 1.369 . S
C290 C292 1.419 1_556 S
C290 H294 0.930 . S
C291 C290 1.369 . S
C291 C300 1.429 . S
C292 C290 1.419 1_554 S
C292 C293 1.363 . S
C292 H295 0.929 . S
C293 C292 1.363 . S
C293 C299 1.428 . S
H294 C290 0.930 . S
H295 C292 0.929 . S
S296 N297 1.616 1_554 S
S296 N298 1.607 . S
N297 S296 1.616 1_556 S
N297 C300 1.350 . S
N298 S296 1.607 . S
N298 C299 1.351 . S
C299 C293 1.428 . S
C299 N298 1.351 . S
C299 C300 1.434 1_554 S
C300 C291 1.429 . S
C300 N297 1.350 . S
C300 C299 1.434 1_556 S
C301 C302 1.369 . S
C301 C303 1.419 1_554 S
C301 H305 0.930 . S
C302 C301 1.369 . S
C302 C311 1.429 . S
C303 C301 1.419 1_556 S
C303 C304 1.363 . S
C303 H306 0.929 . S
C304 C303 1.363 . S
C304 C310 1.428 . S
H305 C301 0.930 . S
H306 C303 0.929 . S
S307 N308 1.616 1_556 S
S307 N309 1.608 . S
N308 S307 1.616 1_554 S
N308 C311 1.350 . S
N309 S307 1.608 . S
N309 C310 1.351 . S
C310 C304 1.428 . S
C310 N309 1.351 . S
C310 C311 1.434 1_556 S
C311 C302 1.429 . S
C311 N308 1.350 . S
C311 C310 1.434 1_554 S
C312 C313 1.369 1_545 S
C312 C314 1.419 . S
C312 H316 0.930 . S
C313 C312 1.369 1_565 S
C313 C322 1.429 . S
C314 C312 1.419 . S
C314 C315 1.363 . S
C314 H317 0.929 . S
C315 C314 1.363 . S
C315 C321 1.428 1_545 S
H316 C312 0.930 . S
H317 C314 0.929 . S
S318 N319 1.613 . S
S318 N320 1.610 . S
N319 S318 1.613 . S
N319 C322 1.350 . S
N320 S318 1.610 . S
N320 C321 1.351 . S
C321 C315 1.428 1_565 S
C321 N320 1.351 . S
C321 C322 1.434 . S
C322 C313 1.429 . S
C322 N319 1.350 . S
C322 C321 1.434 . S
C323 C324 1.369 1_545 S
C323 C325 1.419 . S
C323 H327 0.930 . S
C324 C323 1.369 1_565 S
C324 C333 1.429 . S
C325 C323 1.419 . S
C325 C326 1.363 . S
C325 H328 0.929 . S
C326 C325 1.363 . S
C326 C332 1.428 1_545 S
H327 C323 0.930 . S
H328 C325 0.929 . S
S329 N330 1.613 . S
S329 N331 1.610 . S
N330 S329 1.613 . S
N330 C333 1.350 . S
N331 S329 1.610 . S
N331 C332 1.351 . S
C332 C326 1.428 1_565 S
C332 N331 1.351 . S
C332 C333 1.434 . S
C333 C324 1.429 . S
C333 N330 1.350 . S
C333 C332 1.434 . S
C334 C335 1.369 1_545 S
C334 C336 1.419 . S
C334 H338 0.930 . S
C335 C334 1.369 1_565 S
C335 C344 1.429 . S
C336 C334 1.419 . S
C336 C337 1.363 . S
C336 H339 0.929 . S
C337 C336 1.363 . S
C337 C343 1.428 1_545 S
H338 C334 0.930 . S
H339 C336 0.929 . S
S340 N341 1.613 . S
S340 N342 1.610 . S
N341 S340 1.613 . S
N341 C344 1.350 . S
N342 S340 1.610 . S
N342 C343 1.351 . S
C343 C337 1.428 1_565 S
C343 N342 1.351 . S
C343 C344 1.434 . S
C344 C335 1.429 . S
C344 N341 1.350 . S
C344 C343 1.434 . S
C345 C346 1.369 1_565 S
C345 C347 1.419 . S
C345 H349 0.930 . S
C346 C345 1.369 1_545 S
C346 C355 1.429 . S
C347 C345 1.419 . S
C347 C348 1.363 . S
C347 H350 0.929 . S
C348 C347 1.363 . S
C348 C354 1.428 1_565 S
H349 C345 0.930 . S
H350 C347 0.929 . S
S351 N352 1.613 . S
S351 N353 1.610 . S
N352 S351 1.613 . S
N352 C355 1.350 . S
N353 S351 1.610 . S
N353 C354 1.351 . S
C354 C348 1.428 1_545 S
C354 N353 1.351 . S
C354 C355 1.434 . S
C355 C346 1.429 . S
C355 N352 1.350 . S
C355 C354 1.434 . S
C356 C357 1.369 . S
C356 C358 1.419 1_655 S
C356 H360 0.930 . S
C357 C356 1.369 . S
C357 C366 1.429 . S
C358 C356 1.419 1_455 S
C358 C359 1.363 . S
C358 H361 0.929 . S
C359 C358 1.363 . S
C359 C365 1.428 . S
H360 C356 0.930 . S
H361 C358 0.929 . S
S362 N363 1.613 1_455 S
S362 N364 1.610 . S
N363 S362 1.613 1_655 S
N363 C366 1.350 . S
N364 S362 1.610 . S
N364 C365 1.351 . S
C365 C359 1.428 . S
C365 N364 1.351 . S
C365 C366 1.434 1_455 S
C366 C357 1.429 . S
C366 N363 1.350 . S
C366 C365 1.434 1_655 S
C367 C368 1.369 . S
C367 C369 1.419 1_455 S
C367 H371 0.930 . S
C368 C367 1.369 . S
C368 C377 1.429 . S
C369 C367 1.419 1_655 S
C369 C370 1.363 . S
C369 H372 0.929 . S
C370 C369 1.363 . S
C370 C376 1.428 . S
H371 C367 0.930 . S
H372 C369 0.929 . S
S373 N374 1.613 . S
S373 N375 1.610 1_455 S
N374 S373 1.613 . S
N374 C377 1.350 . S
N375 S373 1.610 1_655 S
N375 C376 1.351 . S
C376 C370 1.428 . S
C376 N375 1.351 . S
C376 C377 1.434 1_655 S
C377 C368 1.429 . S
C377 N374 1.350 . S
C377 C376 1.434 1_455 S
C378 C379 1.369 . S
C378 C380 1.419 1_655 S
C378 H382 0.930 . S
C379 C378 1.369 . S
C379 C388 1.429 . S
C380 C378 1.419 1_455 S
C380 C381 1.363 . S
C380 H383 0.929 . S
C381 C380 1.363 . S
C381 C387 1.428 . S
H382 C378 0.930 . S
H383 C380 0.929 . S
S384 N385 1.613 . S
S384 N386 1.610 1_655 S
N385 S384 1.613 . S
N385 C388 1.350 . S
N386 S384 1.610 1_455 S
N386 C387 1.351 . S
C387 C381 1.428 . S
C387 N386 1.351 . S
C387 C388 1.434 1_455 S
C388 C379 1.429 . S
C388 N385 1.350 . S
C388 C387 1.434 1_655 S
C389 C390 1.369 . S
C389 C391 1.419 1_455 S
C389 H393 0.930 . S
C390 C389 1.369 . S
C390 C399 1.429 . S
C391 C389 1.419 1_655 S
C391 C392 1.363 . S
C391 H394 0.929 . S
C392 C391 1.363 . S
C392 C398 1.428 . S
H393 C389 0.930 . S
H394 C391 0.929 . S
S395 N396 1.613 . S
S395 N397 1.610 1_455 S
N396 S395 1.613 . S
N396 C399 1.350 . S
N397 S395 1.610 1_655 S
N397 C398 1.351 . S
C398 C392 1.428 . S
C398 N397 1.351 . S
C398 C399 1.434 1_655 S
C399 C390 1.429 . S
C399 N396 1.350 . S
C399 C398 1.434 1_455 S
C400 C401 1.369 . S
C400 C402 1.419 . S
C400 H404 0.930 . S
C401 C400 1.369 . S
C401 C410 1.429 . S
C402 C400 1.419 . S
C402 C403 1.363 . S
C402 H405 0.929 . S
C403 C402 1.363 . S
C403 C409 1.428 . S
H404 C400 0.930 . S
H405 C402 0.929 . S
S406 N407 1.613 . S
S406 N408 1.610 . S
N407 S406 1.613 . S
N407 C410 1.350 . S
N408 S406 1.610 . S
N408 C409 1.351 . S
C409 C403 1.428 . S
C409 N408 1.351 . S
C409 C410 1.434 . S
C410 C401 1.429 . S
C410 N407 1.350 . S
C410 C409 1.434 . S
C411 C412 1.369 . S
C411 C413 1.419 . S
C411 H415 0.930 . S
C412 C411 1.369 . S
C412 C421 1.429 . S
C413 C411 1.419 . S
C413 C414 1.363 . S
C413 H416 0.929 . S
C414 C413 1.363 . S
C414 C420 1.428 . S
H415 C411 0.930 . S
H416 C413 0.929 . S
S417 N418 1.613 . S
S417 N419 1.610 . S
N418 S417 1.613 . S
N418 C421 1.350 . S
N419 S417 1.610 . S
N419 C420 1.351 . S
C420 C414 1.428 . S
C420 N419 1.351 . S
C420 C421 1.434 . S
C421 C412 1.429 . S
C421 N418 1.350 . S
C421 C420 1.434 . S
C422 C423 1.369 . S
C422 C424 1.419 . S
C422 H426 0.930 . S
C423 C422 1.369 . S
C423 C432 1.429 . S
C424 C422 1.419 . S
C424 C425 1.363 . S
C424 H427 0.929 . S
C425 C424 1.363 . S
C425 C431 1.428 . S
H426 C422 0.930 . S
H427 C424 0.929 . S
S428 N429 1.613 . S
S428 N430 1.610 . S
N429 S428 1.613 . S
N429 C432 1.350 . S
N430 S428 1.610 . S
N430 C431 1.351 . S
C431 C425 1.428 . S
C431 N430 1.351 . S
C431 C432 1.434 . S
C432 C423 1.429 . S
C432 N429 1.350 . S
C432 C431 1.434 . S
C433 C434 1.369 . S
C433 C435 1.419 . S
C433 H437 0.930 . S
C434 C433 1.369 . S
C434 C443 1.429 . S
C435 C433 1.419 . S
C435 C436 1.363 . S
C435 H438 0.929 . S
C436 C435 1.363 . S
C436 C442 1.428 . S
H437 C433 0.930 . S
H438 C435 0.929 . S
S439 N440 1.613 . S
S439 N441 1.610 . S
N440 S439 1.613 . S
N440 C443 1.350 . S
N441 S439 1.610 . S
N441 C442 1.351 . S
C442 C436 1.428 . S
C442 N441 1.351 . S
C442 C443 1.434 . S
C443 C434 1.429 . S
C443 N440 1.350 . S
C443 C442 1.434 . S
C444 C445 1.369 . S
C444 C446 1.419 . S
C444 H448 0.930 . S
C445 C444 1.369 . S
C445 C454 1.429 . S
C446 C444 1.419 . S
C446 C447 1.363 . S
C446 H449 0.929 . S
C447 C446 1.363 . S
C447 C453 1.428 . S
H448 C444 0.930 . S
H449 C446 0.929 . S
S450 N451 1.613 . S
S450 N452 1.610 . S
N451 S450 1.613 . S
N451 C454 1.350 . S
N452 S450 1.610 . S
N452 C453 1.351 . S
C453 C447 1.428 . S
C453 N452 1.351 . S
C453 C454 1.434 . S
C454 C445 1.429 . S
C454 N451 1.350 . S
C454 C453 1.434 . S
C455 C456 1.369 . S
C455 C457 1.419 . S
C455 H459 0.930 . S
C456 C455 1.369 . S
C456 C465 1.429 . S
C457 C455 1.419 . S
C457 C458 1.363 . S
C457 H460 0.929 . S
C458 C457 1.363 . S
C458 C464 1.428 . S
H459 C455 0.930 . S
H460 C457 0.929 . S
S461 N462 1.613 . S
S461 N463 1.610 . S
N462 S461 1.613 . S
N462 C465 1.350 . S
N463 S461 1.610 . S
N463 C464 1.351 . S
C464 C458 1.428 . S
C464 N463 1.351 . S
C464 C465 1.434 . S
C465 C456 1.429 . S
C465 N462 1.350 . S
C465 C464 1.434 . S
C466 C467 1.369 . S
C466 C468 1.419 . S
C466 H470 0.930 . S
C467 C466 1.369 . S
C467 C476 1.429 . S
C468 C466 1.419 . S
C468 C469 1.363 . S
C468 H471 0.929 . S
C469 C468 1.363 . S
C469 C475 1.428 . S
H470 C466 0.930 . S
H471 C468 0.929 . S
S472 N473 1.613 . S
S472 N474 1.610 . S
N473 S472 1.613 . S
N473 C476 1.350 . S
N474 S472 1.610 . S
N474 C475 1.351 . S
C475 C469 1.428 . S
C475 N474 1.351 . S
C475 C476 1.434 . S
C476 C467 1.429 . S
C476 N473 1.350 . S
C476 C475 1.434 . S
C477 C478 1.369 . S
C477 C479 1.419 . S
C477 H481 0.930 . S
C478 C477 1.369 . S
C478 C487 1.429 . S
C479 C477 1.419 . S
C479 C480 1.363 . S
C479 H482 0.929 . S
C480 C479 1.363 . S
C480 C486 1.428 . S
H481 C477 0.930 . S
H482 C479 0.929 . S
S483 N484 1.613 . S
S483 N485 1.610 . S
N484 S483 1.613 . S
N484 C487 1.350 . S
N485 S483 1.610 . S
N485 C486 1.351 . S
C486 C480 1.428 . S
C486 N485 1.351 . S
C486 C487 1.434 . S
C487 C478 1.429 . S
C487 N484 1.350 . S
C487 C486 1.434 . S
C488 C489 1.369 . S
C488 C490 1.419 . S
C488 H492 0.930 . S
C489 C488 1.369 . S
C489 C498 1.429 1_565 S
C490 C488 1.419 . S
C490 C491 1.363 1_565 S
C490 H493 0.929 . S
C491 C490 1.363 1_545 S
C491 C497 1.428 . S
H492 C488 0.930 . S
H493 C490 0.929 . S
S494 N495 1.613 . S
S494 N496 1.610 . S
N495 S494 1.613 . S
N495 C498 1.350 . S
N496 S494 1.610 . S
N496 C497 1.351 . S
C497 C491 1.428 . S
C497 N496 1.351 . S
C497 C498 1.434 . S
C498 C489 1.429 1_545 S
C498 N495 1.350 . S
C498 C497 1.434 . S
C499 C500 1.369 1_545 S
C499 C501 1.419 . S
C499 H503 0.930 . S
C500 C499 1.369 1_565 S
C500 C509 1.429 . S
C501 C499 1.419 . S
C501 C502 1.363 . S
C501 H504 0.929 . S
C502 C501 1.363 . S
C502 C508 1.428 1_545 S
H503 C499 0.930 . S
H504 C501 0.929 . S
S505 N506 1.613 . S
S505 N507 1.610 . S
N506 S505 1.613 . S
N506 C509 1.350 . S
N507 S505 1.610 . S
N507 C508 1.351 . S
C508 C502 1.428 1_565 S
C508 N507 1.351 . S
C508 C509 1.434 . S
C509 C500 1.429 . S
C509 N506 1.350 . S
C509 C508 1.434 . S
C510 C511 1.369 1_545 S
C510 C512 1.419 . S
C510 H514 0.930 . S
C511 C510 1.369 1_565 S
C511 C520 1.429 . S
C512 C510 1.419 . S
C512 C513 1.363 . S
C512 H515 0.929 . S
C513 C512 1.363 . S
C513 C519 1.428 1_545 S
H514 C510 0.930 . S
H515 C512 0.929 . S
S516 N517 1.613 . S
S516 N518 1.610 . S
N517 S516 1.613 . S
N517 C520 1.350 . S
N518 S516 1.610 . S
N518 C519 1.351 . S
C519 C513 1.428 1_565 S
C519 N518 1.351 . S
C519 C520 1.434 . S
C520 C511 1.429 . S
C520 N517 1.350 . S
C520 C519 1.434 . S
C521 C522 1.369 1_565 S
C521 C523 1.419 . S
C521 H525 0.930 . S
C522 C521 1.369 1_545 S
C522 C531 1.429 . S
C523 C521 1.419 . S
C523 C524 1.363 . S
C523 H526 0.929 . S
C524 C523 1.363 . S
C524 C530 1.428 1_565 S
H525 C521 0.930 . S
H526 C523 0.929 . S
S527 N528 1.613 . S
S527 N529 1.610 . S
N528 S527 1.613 . S
N528 C531 1.350 . S
N529 S527 1.610 . S
N529 C530 1.351 . S
C530 C524 1.428 1_545 S
C530 N529 1.351 . S
C530 C531 1.434 . S
C531 C522 1.429 . S
C531 N528 1.350 . S
C531 C530 1.434 . S
C532 C533 1.369 . S
C532 C534 1.419 . S
C532 H536 0.930 . S
C533 C532 1.369 . S
C533 C542 1.429 . S
C534 C532 1.419 . S
C534 C535 1.363 . S
C534 H537 0.929 . S
C535 C534 1.363 . S
C535 C541 1.428 . S
H536 C532 0.930 . S
H537 C534 0.929 . S
S538 N539 1.613 . S
S538 N540 1.610 . S
N539 S538 1.613 . S
N539 C542 1.350 . S
N540 S538 1.610 . S
N540 C541 1.351 . S
C541 C535 1.428 . S
C541 N540 1.351 . S
C541 C542 1.434 . S
C542 C533 1.429 . S
C542 N539 1.350 . S
C542 C541 1.434 . S
C543 C544 1.369 . S
C543 C545 1.419 . S
C543 H547 0.930 . S
C544 C543 1.369 . S
C544 C553 1.429 . S
C545 C543 1.419 . S
C545 C546 1.363 . S
C545 H548 0.929 . S
C546 C545 1.363 . S
C546 C552 1.428 . S
H547 C543 0.930 . S
H548 C545 0.929 . S
S549 N550 1.613 . S
S549 N551 1.610 . S
N550 S549 1.613 . S
N550 C553 1.350 . S
N551 S549 1.610 . S
N551 C552 1.351 . S
C552 C546 1.428 . S
C552 N551 1.351 . S
C552 C553 1.434 . S
C553 C544 1.429 . S
C553 N550 1.350 . S
C553 C552 1.434 . S
C554 C555 1.369 . S
C554 C556 1.419 . S
C554 H558 0.930 . S
C555 C554 1.369 . S
C555 C564 1.429 . S
C556 C554 1.419 . S
C556 C557 1.363 . S
C556 H559 0.929 . S
C557 C556 1.363 . S
C557 C563 1.428 . S
H558 C554 0.930 . S
H559 C556 0.929 . S
S560 N561 1.613 . S
S560 N562 1.610 . S
N561 S560 1.613 . S
N561 C564 1.350 . S
N562 S560 1.610 . S
N562 C563 1.351 . S
C563 C557 1.428 . S
C563 N562 1.351 . S
C563 C564 1.434 . S
C564 C555 1.429 . S
C564 N561 1.350 . S
C564 C563 1.434 . S
C565 C566 1.369 . S
C565 C567 1.419 . S
C565 H569 0.930 . S
C566 C565 1.369 . S
C566 C575 1.429 . S
C567 C565 1.419 . S
C567 C568 1.363 . S
C567 H570 0.929 . S
C568 C567 1.363 . S
C568 C574 1.428 . S
H569 C565 0.930 . S
H570 C567 0.929 . S
S571 N572 1.613 . S
S571 N573 1.610 . S
N572 S571 1.613 . S
N572 C575 1.350 . S
N573 S571 1.610 . S
N573 C574 1.351 . S
C574 C568 1.428 . S
C574 N573 1.351 . S
C574 C575 1.434 . S
C575 C566 1.429 . S
C575 N572 1.350 . S
C575 C574 1.434 . S
C225 C9 1.337 . S
C227 C79 1.337 . S
C236 C65 1.335 . S
C238 C23 1.335 . S
C247 C37 1.335 . S
C249 C107 1.335 . S
C258 C93 1.337 . S
C260 C51 1.337 . S
C269 C191 1.340 . S
C271 C121 1.339 . S
C280 C177 1.341 . S
C282 C135 1.340 . S
C291 C219 1.334 . S
C293 C149 1.335 . S
C302 C163 1.334 . S
C304 C205 1.335 . S
C313 C19 1.503 . S
C315 C5 1.503 . S
C324 C33 1.503 . S
C326 C47 1.502 . S
C335 C61 1.503 . S
C337 C75 1.502 . S
C346 C89 1.503 . S
C348 C103 1.502 . S
C357 C117 1.503 . S
C359 C131 1.502 . S
C368 C159 1.502 . S
C370 C145 1.503 . S
C379 C187 1.502 . S
C381 C173 1.503 . S
C390 C201 1.503 . S
C392 C215 1.503 . S
C401 C137 1.513 . S
C403 C11 1.511 . S
C412 C25 1.511 . S
C414 C123 1.513 . S
C423 C165 1.514 . S
C425 C39 1.512 . S
C434 C53 1.513 . S
C436 C151 1.511 . S
C445 C67 1.512 . S
C447 C193 1.511 . S
C456 C179 1.514 . S
C458 C81 1.512 . S
C467 C95 1.512 . S
C469 C221 1.513 . S
C478 C207 1.511 . S
C480 C109 1.513 . S
C489 C0 1.448 . S
C491 C28 1.454 . S
C500 C42 1.454 . S
C502 C14 1.449 . S
C511 C84 1.454 . S
C513 C56 1.448 . S
C522 C98 1.456 . S
C524 C70 1.449 . S
C533 C140 1.448 . S
C535 C112 1.454 . S
C544 C126 1.456 . S
C546 C154 1.450 . S
C555 C196 1.452 . S
C557 C168 1.448 . S
C566 C182 1.448 . S
C568 C210 1.454 . S
