# Generated by pormake.
# Topology wiu, (6)-cn, num edge types: 1
# Building blocks:
#     Node 0, Type 0, BuildingBlock: BETDEL_clean_sbu_0, # of connection points: 6
#     Node 1, Type 0, BuildingBlock: BETDEL_clean_sbu_0, # of connection points: 6
#     Node 2, Type 0, BuildingBlock: BETDEL_clean_sbu_0, # of connection points: 6
#     Node 3, Type 0, BuildingBlock: BETDEL_clean_sbu_0, # of connection points: 6
#     Node 4, Type 0, BuildingBlock: BETDEL_clean_sbu_0, # of connection points: 6
#     Node 5, Type 0, BuildingBlock: BETDEL_clean_sbu_0, # of connection points: 6
#     Node 6, Type 0, BuildingBlock: BETDEL_clean_sbu_0, # of connection points: 6
#     Node 7, Type 0, BuildingBlock: BETDEL_clean_sbu_0, # of connection points: 6
#     Node 8, Type 0, BuildingBlock: BETDEL_clean_sbu_0, # of connection points: 6
#     Node 9, Type 0, BuildingBlock: BETDEL_clean_sbu_0, # of connection points: 6
#     Node 10, Type 0, BuildingBlock: BETDEL_clean_sbu_0, # of connection points: 6
#     Node 11, Type 0, BuildingBlock: BETDEL_clean_sbu_0, # of connection points: 6
#     Node 12, Type 0, BuildingBlock: BETDEL_clean_sbu_0, # of connection points: 6
#     Node 13, Type 0, BuildingBlock: BETDEL_clean_sbu_0, # of connection points: 6
#     Node 14, Type 0, BuildingBlock: BETDEL_clean_sbu_0, # of connection points: 6
#     Node 15, Type 0, BuildingBlock: BETDEL_clean_sbu_0, # of connection points: 6
#     Edge 16, Type (0, 0), BuildingBlock: UVAHIK_clean_linker_0, # of connection points: 2
#     Edge 17, Type (0, 0), BuildingBlock: UVAHIK_clean_linker_0, # of connection points: 2
#     Edge 18, Type (0, 0), BuildingBlock: UVAHIK_clean_linker_0, # of connection points: 2
#     Edge 19, Type (0, 0), BuildingBlock: UVAHIK_clean_linker_0, # of connection points: 2
#     Edge 20, Type (0, 0), BuildingBlock: UVAHIK_clean_linker_0, # of connection points: 2
#     Edge 21, Type (0, 0), BuildingBlock: UVAHIK_clean_linker_0, # of connection points: 2
#     Edge 22, Type (0, 0), BuildingBlock: UVAHIK_clean_linker_0, # of connection points: 2
#     Edge 23, Type (0, 0), BuildingBlock: UVAHIK_clean_linker_0, # of connection points: 2
#     Edge 24, Type (0, 0), BuildingBlock: UVAHIK_clean_linker_0, # of connection points: 2
#     Edge 25, Type (0, 0), BuildingBlock: UVAHIK_clean_linker_0, # of connection points: 2
#     Edge 26, Type (0, 0), BuildingBlock: UVAHIK_clean_linker_0, # of connection points: 2
#     Edge 27, Type (0, 0), BuildingBlock: UVAHIK_clean_linker_0, # of connection points: 2
#     Edge 28, Type (0, 0), BuildingBlock: UVAHIK_clean_linker_0, # of connection points: 2
#     Edge 29, Type (0, 0), BuildingBlock: UVAHIK_clean_linker_0, # of connection points: 2
#     Edge 30, Type (0, 0), BuildingBlock: UVAHIK_clean_linker_0, # of connection points: 2
#     Edge 31, Type (0, 0), BuildingBlock: UVAHIK_clean_linker_0, # of connection points: 2
#     Edge 32, Type (0, 0), BuildingBlock: UVAHIK_clean_linker_0, # of connection points: 2
#     Edge 33, Type (0, 0), BuildingBlock: UVAHIK_clean_linker_0, # of connection points: 2
#     Edge 34, Type (0, 0), BuildingBlock: UVAHIK_clean_linker_0, # of connection points: 2
#     Edge 35, Type (0, 0), BuildingBlock: UVAHIK_clean_linker_0, # of connection points: 2
#     Edge 36, Type (0, 0), BuildingBlock: UVAHIK_clean_linker_0, # of connection points: 2
#     Edge 37, Type (0, 0), BuildingBlock: UVAHIK_clean_linker_0, # of connection points: 2
#     Edge 38, Type (0, 0), BuildingBlock: UVAHIK_clean_linker_0, # of connection points: 2
#     Edge 39, Type (0, 0), BuildingBlock: UVAHIK_clean_linker_0, # of connection points: 2
#     Edge 40, Type (0, 0), BuildingBlock: UVAHIK_clean_linker_0, # of connection points: 2
#     Edge 41, Type (0, 0), BuildingBlock: UVAHIK_clean_linker_0, # of connection points: 2
#     Edge 42, Type (0, 0), BuildingBlock: UVAHIK_clean_linker_0, # of connection points: 2
#     Edge 43, Type (0, 0), BuildingBlock: UVAHIK_clean_linker_0, # of connection points: 2
#     Edge 44, Type (0, 0), BuildingBlock: UVAHIK_clean_linker_0, # of connection points: 2
#     Edge 45, Type (0, 0), BuildingBlock: UVAHIK_clean_linker_0, # of connection points: 2
#     Edge 46, Type (0, 0), BuildingBlock: UVAHIK_clean_linker_0, # of connection points: 2
#     Edge 47, Type (0, 0), BuildingBlock: UVAHIK_clean_linker_0, # of connection points: 2
#     Edge 48, Type (0, 0), BuildingBlock: UVAHIK_clean_linker_0, # of connection points: 2
#     Edge 49, Type (0, 0), BuildingBlock: UVAHIK_clean_linker_0, # of connection points: 2
#     Edge 50, Type (0, 0), BuildingBlock: UVAHIK_clean_linker_0, # of connection points: 2
#     Edge 51, Type (0, 0), BuildingBlock: UVAHIK_clean_linker_0, # of connection points: 2
#     Edge 52, Type (0, 0), BuildingBlock: UVAHIK_clean_linker_0, # of connection points: 2
#     Edge 53, Type (0, 0), BuildingBlock: UVAHIK_clean_linker_0, # of connection points: 2
#     Edge 54, Type (0, 0), BuildingBlock: UVAHIK_clean_linker_0, # of connection points: 2
#     Edge 55, Type (0, 0), BuildingBlock: UVAHIK_clean_linker_0, # of connection points: 2
#     Edge 56, Type (0, 0), BuildingBlock: UVAHIK_clean_linker_0, # of connection points: 2
#     Edge 57, Type (0, 0), BuildingBlock: UVAHIK_clean_linker_0, # of connection points: 2
#     Edge 58, Type (0, 0), BuildingBlock: UVAHIK_clean_linker_0, # of connection points: 2
#     Edge 59, Type (0, 0), BuildingBlock: UVAHIK_clean_linker_0, # of connection points: 2
#     Edge 60, Type (0, 0), BuildingBlock: UVAHIK_clean_linker_0, # of connection points: 2
#     Edge 61, Type (0, 0), BuildingBlock: UVAHIK_clean_linker_0, # of connection points: 2
#     Edge 62, Type (0, 0), BuildingBlock: UVAHIK_clean_linker_0, # of connection points: 2
#     Edge 63, Type (0, 0), BuildingBlock: UVAHIK_clean_linker_0, # of connection points: 2
# Relax obj value: 0.291
# Max RMSD: 0.277
# Mean RMSD: 0.277
data_MOF--net-wiu--node1-BETDEL_clean_sbu_0--edge1-UVAHIK_clean_linker_0
_symmetry_space_group_name_H-M    P1
_symmetry_Int_Tables_number       1
_symmetry_cell_setting            triclinic
loop_
_symmetry_equiv_pos_as_xyz
'x, y, z'
_cell_length_a     40.159486
_cell_length_b     39.975002
_cell_length_c     74.906358
_cell_angle_alpha  90.003325
_cell_angle_beta   89.896691
_cell_angle_gamma 90.338986
loop_
_atom_site_label
_atom_site_type_symbol
_atom_site_fract_x
_atom_site_fract_y
_atom_site_fract_z
_atom_type_partial_charge
Dy0 Dy 0.27115 0.12629 0.12388 0.0
C1 C 0.36712 0.03447 0.09839 0.0
C2 C 0.23593 0.17501 0.14062 0.0
Dy3 Dy 0.31356 0.06855 0.11052 0.0
O4 O 0.26655 0.16717 0.14399 0.0
O5 O 0.2239 0.15548 0.12826 0.0
O6 O 0.30144 0.16077 0.10679 0.0
O7 O 0.32447 0.11993 0.11873 0.0
C8 C 0.32893 0.14445 0.10841 0.0
C9 C 0.24872 0.05439 0.114 0.0
O10 O 0.32276 0.06144 0.13965 0.0
O11 O 0.28602 0.10204 0.15004 0.0
O12 O 0.34067 0.02041 0.1052 0.0
O13 O 0.36415 0.06676 0.09833 0.0
O14 O 0.26741 0.04004 0.10205 0.0
O15 O 0.26608 0.07264 0.124 0.0
O16 O 0.24884 0.11742 0.09666 0.0
O17 O 0.29583 0.09205 0.08513 0.0
C18 C 0.30773 0.0775 0.15287 0.0
C19 C 0.26624 0.10592 0.08288 0.0
Dy20 Dy 0.58642 0.5129 0.37323 0.0
C21 C 0.66649 0.61786 0.34482 0.0
C22 C 0.54806 0.46588 0.39015 0.0
Dy23 Dy 0.63971 0.56353 0.3613 0.0
O24 O 0.5719 0.48295 0.39748 0.0
O25 O 0.54579 0.47386 0.37341 0.0
O26 O 0.54617 0.54555 0.36236 0.0
O27 O 0.58953 0.5675 0.37241 0.0
C28 C 0.56286 0.5731 0.36417 0.0
C29 C 0.66201 0.50321 0.37079 0.0
O30 O 0.63924 0.57607 0.39028 0.0
O31 O 0.61368 0.52626 0.39886 0.0
O32 O 0.6835 0.59219 0.35024 0.0
O33 O 0.63522 0.61393 0.34866 0.0
O34 O 0.68024 0.53009 0.37266 0.0
O35 O 0.63582 0.50999 0.36261 0.0
O36 O 0.59599 0.49411 0.34525 0.0
O37 O 0.62082 0.54292 0.33498 0.0
C38 C 0.6305 0.55415 0.40272 0.0
C39 C 0.60687 0.51323 0.33188 0.0
Dy40 Dy 0.19863 0.85017 0.62201 0.0
C41 C 0.10269 0.94191 0.59768 0.0
C42 C 0.23816 0.8024 0.63677 0.0
Dy43 Dy 0.1542 0.90765 0.6121 0.0
O44 O 0.21069 0.81345 0.64356 0.0
O45 O 0.2447 0.81814 0.622 0.0
O46 O 0.16616 0.81504 0.60667 0.0
O47 O 0.14454 0.85564 0.61971 0.0
C48 C 0.13894 0.83139 0.60935 0.0
C49 C 0.21451 0.92567 0.62362 0.0
O50 O 0.14202 0.90557 0.64098 0.0
O51 O 0.18926 0.87595 0.64866 0.0
O52 O 0.13297 0.95332 0.59892 0.0
O53 O 0.10065 0.9122 0.60454 0.0
O54 O 0.18828 0.9439 0.62662 0.0
O55 O 0.2074 0.90119 0.61388 0.0
O56 O 0.21795 0.85893 0.59422 0.0
O57 O 0.17342 0.89134 0.58509 0.0
C58 C 0.16283 0.89409 0.65316 0.0
C59 C 0.201 0.87442 0.58149 0.0
Dy60 Dy 0.87237 0.45177 0.87019 0.0
C61 C 0.78074 0.35335 0.84628 0.0
C62 C 0.91823 0.49508 0.8841 0.0
Dy63 Dy 0.81544 0.40525 0.86062 0.0
O64 O 0.90151 0.473 0.89311 0.0
O65 O 0.9091 0.49421 0.86751 0.0
O66 O 0.90845 0.41934 0.85589 0.0
O67 O 0.86752 0.39706 0.86842 0.0
C68 C 0.89217 0.39177 0.85836 0.0
C69 C 0.79763 0.46628 0.8717 0.0
O70 O 0.81737 0.39391 0.88966 0.0
O71 O 0.84764 0.44154 0.897 0.0
O72 O 0.77045 0.3841 0.84674 0.0
O73 O 0.80955 0.35102 0.85395 0.0
O74 O 0.77882 0.44011 0.8745 0.0
O75 O 0.82184 0.45856 0.86209 0.0
O76 O 0.86014 0.47129 0.84284 0.0
O77 O 0.83373 0.42283 0.83357 0.0
C78 C 0.82931 0.41507 0.90167 0.0
C79 C 0.84779 0.45221 0.82991 0.0
Dy80 Dy 0.65059 0.89925 0.95148 0.0
C81 C 0.74512 0.80245 0.92614 0.0
C82 C 0.5961 0.92697 0.96691 0.0
Dy83 Dy 0.70042 0.84565 0.94078 0.0
O84 O 0.62415 0.94258 0.9642 0.0
O85 O 0.59773 0.89667 0.96081 0.0
O86 O 0.68279 0.9401 0.93942 0.0
O87 O 0.70416 0.89644 0.94997 0.0
C88 C 0.70991 0.92265 0.94126 0.0
C89 C 0.64069 0.82231 0.95126 0.0
O90 O 0.71842 0.85589 0.96864 0.0
O91 O 0.66985 0.88126 0.97817 0.0
O92 O 0.72129 0.81713 0.91759 0.0
O93 O 0.74523 0.81231 0.94263 0.0
O94 O 0.66833 0.80672 0.95387 0.0
O95 O 0.6461 0.84787 0.94188 0.0
O96 O 0.64015 0.89781 0.92226 0.0
O97 O 0.69065 0.87325 0.91488 0.0
C98 C 0.69912 0.8674 0.98165 0.0
C99 C 0.66296 0.88927 0.91032 0.0
Dy100 Dy 0.31556 0.40243 0.69615 0.0
C101 C 0.42355 0.48543 0.67182 0.0
C102 C 0.27956 0.35164 0.71088 0.0
Dy103 Dy 0.37449 0.44646 0.68626 0.0
O104 O 0.27132 0.38302 0.7115 0.0
O105 O 0.3069 0.34815 0.70186 0.0
O106 O 0.28 0.43793 0.68217 0.0
O107 O 0.32394 0.45554 0.69405 0.0
C108 C 0.29978 0.46356 0.68447 0.0
C109 C 0.39115 0.38631 0.69932 0.0
O110 O 0.36436 0.46634 0.71381 0.0
O111 O 0.33445 0.41977 0.72303 0.0
O112 O 0.41158 0.45831 0.66482 0.0
O113 O 0.40801 0.49194 0.68663 0.0
O114 O 0.40813 0.41344 0.70193 0.0
O115 O 0.36741 0.39227 0.68881 0.0
O116 O 0.31772 0.39033 0.66723 0.0
O117 O 0.34914 0.43704 0.65956 0.0
C118 C 0.35019 0.44829 0.72666 0.0
C119 C 0.33039 0.41077 0.65506 0.0
Dy120 Dy 0.81936 0.07093 0.45001 0.0
C121 C 0.72643 0.17014 0.4286 0.0
C122 C 0.8717 0.03744 0.46415 0.0
Dy123 Dy 0.77188 0.12539 0.44105 0.0
O124 O 0.84173 0.02533 0.46272 0.0
O125 O 0.87298 0.06745 0.45766 0.0
O126 O 0.7876 0.03379 0.43467 0.0
O127 O 0.76561 0.07376 0.44857 0.0
C128 C 0.76018 0.04966 0.43828 0.0
C129 C 0.8316 0.14809 0.45229 0.0
O130 O 0.75127 0.10977 0.4677 0.0
O131 O 0.80046 0.08667 0.47731 0.0
O132 O 0.74241 0.1488 0.41882 0.0
O133 O 0.73456 0.16617 0.44518 0.0
O134 O 0.80369 0.16296 0.45523 0.0
O135 O 0.82649 0.1233 0.44226 0.0
O136 O 0.83213 0.07504 0.42119 0.0
O137 O 0.78495 0.10491 0.41359 0.0
C138 C 0.77026 0.09834 0.48081 0.0
C139 C 0.81185 0.08756 0.40902 0.0
Dy140 Dy 0.15126 0.57509 0.19806 0.0
C141 C 0.04753 0.48944 0.17146 0.0
C142 C 0.18638 0.62508 0.21401 0.0
Dy143 Dy 0.09403 0.53032 0.18663 0.0
O144 O 0.19549 0.59396 0.21346 0.0
O145 O 0.15856 0.62887 0.20551 0.0
O146 O 0.18834 0.54057 0.18457 0.0
O147 O 0.14403 0.52176 0.19559 0.0
C148 C 0.16911 0.51444 0.18648 0.0
C149 C 0.07537 0.58978 0.19975 0.0
O150 O 0.10229 0.51014 0.21421 0.0
O151 O 0.13014 0.55722 0.22441 0.0
O152 O 0.05834 0.51731 0.16474 0.0
O153 O 0.06274 0.48338 0.18638 0.0
O154 O 0.05844 0.56241 0.20172 0.0
O155 O 0.09997 0.58459 0.18965 0.0
O156 O 0.15137 0.58768 0.16915 0.0
O157 O 0.12144 0.54053 0.16064 0.0
C158 C 0.11458 0.52839 0.22747 0.0
C159 C 0.14028 0.56702 0.15666 0.0
Dy160 Dy 0.77259 0.62492 0.61949 0.0
C161 C 0.87255 0.53829 0.59393 0.0
C162 C 0.73064 0.67013 0.63467 0.0
Dy163 Dy 0.81907 0.56841 0.60897 0.0
O164 O 0.75697 0.65791 0.64211 0.0
O165 O 0.72663 0.65699 0.61897 0.0
O166 O 0.80499 0.66172 0.60514 0.0
O167 O 0.82671 0.62036 0.61734 0.0
C168 C 0.83229 0.64534 0.60748 0.0
C169 C 0.75917 0.54876 0.6205 0.0
O170 O 0.83029 0.56938 0.638 0.0
O171 O 0.78261 0.59852 0.64583 0.0
O172 O 0.84316 0.52464 0.59534 0.0
O173 O 0.87264 0.56782 0.60106 0.0
O174 O 0.78555 0.53021 0.62254 0.0
O175 O 0.76599 0.57391 0.61117 0.0
O176 O 0.75355 0.61571 0.59169 0.0
O177 O 0.79898 0.58478 0.5822 0.0
C178 C 0.80911 0.58037 0.6502 0.0
C179 C 0.7709 0.601 0.57881 0.0
Dy180 Dy 0.09682 0.03274 0.87179 0.0
C181 C 0.19914 0.11911 0.84754 0.0
C182 C 0.04171 0.00498 0.88696 0.0
Dy183 Dy 0.15927 0.07142 0.86238 0.0
O184 O 0.05094 0.03592 0.88826 0.0
O185 O 0.06314 -0.01174 0.87744 0.0
O186 O 0.06886 0.06569 0.85328 0.0
O187 O 0.10799 0.0861 0.86824 0.0
C188 C 0.08601 0.09243 0.85668 0.0
C189 C 0.17005 0.01021 0.87537 0.0
O190 O 0.15675 0.08511 0.89114 0.0
O191 O 0.12103 0.04164 0.89874 0.0
O192 O 0.20492 0.08716 0.84697 0.0
O193 O 0.17217 0.12478 0.85654 0.0
O194 O 0.19146 0.03456 0.8775 0.0
O195 O 0.14706 0.0192 0.8652 0.0
O196 O 0.10508 0.01063 0.84461 0.0
O197 O 0.14082 0.05319 0.8355 0.0
C198 C 0.14164 0.06637 0.90329 0.0
C199 C 0.12229 0.02631 0.83191 0.0
Dy200 Dy 0.69448 0.34789 0.12078 0.0
C201 C 0.60131 0.44302 0.09615 0.0
C202 C 0.73635 0.30066 0.1341 0.0
Dy203 Dy 0.65119 0.40685 0.11094 0.0
O204 O 0.72149 0.29933 0.11879 0.0
O205 O 0.72907 0.32848 0.14212 0.0
O206 O 0.66061 0.31336 0.10604 0.0
O207 O 0.64047 0.35506 0.11878 0.0
C208 C 0.63406 0.33081 0.10855 0.0
C209 C 0.71187 0.42226 0.12314 0.0
O210 O 0.63747 0.40487 0.13964 0.0
O211 O 0.67886 0.36765 0.14803 0.0
O212 O 0.63224 0.45272 0.09693 0.0
O213 O 0.59778 0.41401 0.10367 0.0
O214 O 0.68644 0.44184 0.1257 0.0
O215 O 0.70398 0.39857 0.11305 0.0
O216 O 0.71622 0.36113 0.09392 0.0
O217 O 0.66923 0.38847 0.08405 0.0
C218 C 0.65459 0.38897 0.15208 0.0
C219 C 0.69829 0.37403 0.08072 0.0
Dy220 Dy 0.37896 0.95213 0.37195 0.0
C221 C 0.28619 0.85251 0.35002 0.0
C222 C 0.42642 -0.00239 0.3819 0.0
Dy223 Dy 0.32151 0.90485 0.36353 0.0
O224 O 0.41964 -0.01118 0.36567 0.0
O225 O 0.40639 0.98223 0.39282 0.0
O226 O 0.41458 0.91722 0.35853 0.0
O227 O 0.37318 0.89758 0.37159 0.0
C228 C 0.39747 0.89045 0.36174 0.0
C229 C 0.30385 0.96591 0.37441 0.0
O230 O 0.32578 0.89435 0.39264 0.0
O231 O 0.35646 0.94234 0.39932 0.0
O232 O 0.27554 0.88311 0.35087 0.0
O233 O 0.31574 0.85055 0.35688 0.0
O234 O 0.28547 0.93956 0.37758 0.0
O235 O 0.32778 0.95847 0.36446 0.0
O236 O 0.36356 0.97092 0.345 0.0
O237 O 0.33947 0.92114 0.33613 0.0
C238 C 0.33835 0.91588 0.40431 0.0
C239 C 0.35216 0.95099 0.33222 0.0
Dy240 Dy 0.15571 0.40882 0.44876 0.0
C241 C 0.23405 0.30466 0.41745 0.0
C242 C 0.10292 0.44378 0.4611 0.0
Dy243 Dy 0.197 0.35157 0.43445 0.0
O244 O 0.13012 0.45747 0.45497 0.0
O245 O 0.10485 0.41146 0.46049 0.0
O246 O 0.20301 0.43577 0.45717 0.0
O247 O 0.20237 0.40513 0.43446 0.0
C248 C 0.22062 0.42254 0.4444 0.0
C249 C 0.1395 0.33255 0.45011 0.0
O250 O 0.21983 0.35953 0.46168 0.0
O251 O 0.17295 0.38391 0.47381 0.0
O252 O 0.2031 0.31124 0.41414 0.0
O253 O 0.24528 0.32438 0.42991 0.0
O254 O 0.16702 0.31604 0.45108 0.0
O255 O 0.14382 0.35771 0.44019 0.0
O256 O 0.14537 0.4168 0.41976 0.0
O257 O 0.18045 0.37551 0.40858 0.0
C258 C 0.20261 0.37009 0.47573 0.0
C259 C 0.15905 0.40045 0.40621 0.0
Dy260 Dy 0.81751 0.91022 0.20345 0.0
C261 C 0.92103 0.98607 0.1682 0.0
C262 C 0.7869 0.8563 0.21813 0.0
Dy263 Dy 0.87508 0.95338 0.1886 0.0
O264 O 0.77128 0.88032 0.20993 0.0
O265 O 0.81874 0.86189 0.21815 0.0
O266 O 0.78737 0.95656 0.21021 0.0
O267 O 0.82164 0.95673 0.18909 0.0
C268 C 0.8027 0.97471 0.19827 0.0
C269 C 0.89329 0.89616 0.20469 0.0
O270 O 0.86635 0.97823 0.21526 0.0
O271 O 0.84172 0.93134 0.22798 0.0
O272 O 0.91123 0.95544 0.16597 0.0
O273 O 0.90588 -0.0007 0.18184 0.0
O274 O 0.91023 0.92372 0.20545 0.0
O275 O 0.86847 0.90031 0.1947 0.0
O276 O 0.81116 0.89725 0.17458 0.0
O277 O 0.84827 0.93717 0.16338 0.0
C278 C 0.8553 0.96154 0.22946 0.0
C279 C 0.82551 0.91315 0.161 0.0
Dy280 Dy 0.31628 0.56525 0.94754 0.0
C281 C 0.23336 0.67198 0.92172 0.0
C282 C 0.36719 0.5309 0.96255 0.0
Dy283 Dy 0.27288 0.62424 0.93647 0.0
O284 O 0.33621 0.52127 0.96279 0.0
O285 O 0.37024 0.55875 0.95381 0.0
O286 O 0.27988 0.52857 0.93486 0.0
O287 O 0.26368 0.57414 0.9456 0.0
C288 C 0.25491 0.54899 0.9368 0.0
C289 C 0.33326 0.64105 0.94882 0.0
O290 O 0.25419 0.61702 0.96451 0.0
O291 O 0.29934 0.58599 0.97412 0.0
O292 O 0.26128 0.66158 0.91511 0.0
O293 O 0.22651 0.65573 0.93628 0.0
O294 O 0.30695 0.65908 0.95108 0.0
O295 O 0.3265 0.61652 0.93887 0.0
O296 O 0.32737 0.56485 0.91849 0.0
O297 O 0.28151 0.59648 0.91035 0.0
C298 C 0.27176 0.60309 0.97752 0.0
C299 C 0.30704 0.57678 0.90617 0.0
Dy300 Dy 0.65233 0.06582 0.70001 0.0
C301 C 0.54769 0.97326 0.6815 0.0
C302 C 0.68698 0.119 0.71296 0.0
Dy303 Dy 0.59471 0.01901 0.69174 0.0
O304 O 0.69822 0.08859 0.71226 0.0
O305 O 0.65722 0.12026 0.70632 0.0
O306 O 0.68815 0.03051 0.68614 0.0
O307 O 0.6456 0.0123 0.69933 0.0
C308 C 0.66948 0.00443 0.68946 0.0
C309 C 0.57603 0.08049 0.70211 0.0
O310 O 0.60839 0.00109 0.71925 0.0
O311 O 0.63623 0.04938 0.72757 0.0
O312 O 0.55429 0.98185 0.69777 0.0
O313 O 0.56761 -0.01096 0.67069 0.0
O314 O 0.55914 0.05354 0.70518 0.0
O315 O 0.60034 0.07364 0.69215 0.0
O316 O 0.6492 0.07579 0.67094 0.0
O317 O 0.61686 0.02909 0.66417 0.0
C318 C 0.62173 0.0205 0.73175 0.0
C319 C 0.63602 0.05486 0.65918 0.0
C320 C 0.39049 0.14909 0.1133 0.0
C321 C 0.36148 0.16035 0.10485 0.0
C322 C 0.4201 0.1676 0.11199 0.0
C323 C 0.44914 0.25402 0.10311 0.0
H324 H 0.53605 0.21274 0.10066 0.0
C325 C 0.59735 0.29008 0.09314 0.0
C326 C 0.6007 0.31653 0.10533 0.0
C327 C 0.56736 0.27259 0.09168 0.0
C328 C 0.51196 0.22473 0.10115 0.0
H329 H 0.34105 0.19837 0.08748 0.0
H330 H 0.39275 0.23018 0.08483 0.0
H331 H 0.48629 0.17772 0.09999 0.0
H332 H 0.57496 0.34672 0.12493 0.0
H333 H 0.52229 0.31575 0.12259 0.0
H334 H 0.47487 0.30109 0.10398 0.0
C335 C 0.39254 0.2077 0.0929 0.0
C336 C 0.48343 0.20458 0.10099 0.0
C337 C 0.36301 0.18932 0.09428 0.0
C338 C 0.57296 0.32641 0.11541 0.0
C339 C 0.54285 0.30868 0.11404 0.0
C340 C 0.4777 0.2742 0.10323 0.0
C341 C 0.42122 0.19759 0.10211 0.0
C342 C 0.45166 0.21896 0.10197 0.0
C343 C 0.54004 0.28097 0.10249 0.0
C344 C 0.50946 0.25979 0.10222 0.0
H345 H 0.38996 0.12685 0.12156 0.0
H346 H 0.44169 0.15915 0.11932 0.0
H347 H 0.42507 0.26592 0.10416 0.0
H348 H 0.6183 0.28223 0.08506 0.0
H349 H 0.56581 0.25202 0.0823 0.0
C350 C 0.51855 0.60932 0.35171 0.0
C351 C 0.54803 0.60636 0.36159 0.0
C352 C 0.50252 0.64007 0.35033 0.0
C353 C 0.51408 0.7314 0.35725 0.0
H354 H 0.41757 0.73028 0.35956 0.0
C355 C 0.399 0.82953 0.36945 0.0
C356 C 0.41129 0.85666 0.35949 0.0
C357 C 0.4149 0.79851 0.36869 0.0
C358 C 0.44451 0.7311 0.35904 0.0
H359 H 0.58451 0.63323 0.3774 0.0
H360 H 0.55612 0.68702 0.37538 0.0
H361 H 0.44793 0.67788 0.36065 0.0
H362 H 0.44848 0.8724 0.34022 0.0
H363 H 0.47557 0.81815 0.33843 0.0
H364 H 0.51073 0.7847 0.35641 0.0
C365 C 0.54558 0.66572 0.36844 0.0
C366 C 0.46196 0.70098 0.3594 0.0
C367 C 0.56181 0.63491 0.36966 0.0
C368 C 0.43873 0.85192 0.34818 0.0
C369 C 0.45441 0.82091 0.34728 0.0
C370 C 0.49664 0.76154 0.35702 0.0
C371 C 0.51543 0.66855 0.35897 0.0
C372 C 0.49697 0.70072 0.35847 0.0
C373 C 0.44319 0.79399 0.35782 0.0
C374 C 0.46162 0.76179 0.35788 0.0
H375 H 0.5076 0.58771 0.34519 0.0
H376 H 0.47986 0.64145 0.34256 0.0
H377 H 0.54099 0.73219 0.35634 0.0
H378 H 0.3779 0.8326 0.37832 0.0
H379 H 0.4057 0.77845 0.37711 0.0
C380 C 0.07777 0.82644 0.61589 0.0
C381 C 0.10599 0.81586 0.60641 0.0
C382 C 0.04784 0.80839 0.6147 0.0
C383 C 0.01685 0.7235 0.60336 0.0
H384 H 0.93042 0.766 0.60401 0.0
C385 C 0.86793 0.68974 0.59407 0.0
C386 C 0.86523 0.66115 0.60486 0.0
C387 C 0.89777 0.70772 0.59315 0.0
C388 C 0.95436 0.7537 0.60363 0.0
H389 H 0.12465 0.77952 0.58746 0.0
H390 H 0.07245 0.74862 0.58502 0.0
H391 H 0.98064 0.80045 0.60392 0.0
H392 H 0.89192 0.62803 0.6226 0.0
H393 H 0.9442 0.65967 0.6212 0.0
H394 H -0.00943 0.67676 0.60272 0.0
C395 C 0.0735 0.77014 0.5938 0.0
C396 C 0.98317 0.77349 0.60381 0.0
C397 C 0.10334 0.78802 0.59506 0.0
C398 C 0.89338 0.64996 0.61414 0.0
C399 C 0.92331 0.6681 0.6133 0.0
C400 C -0.01196 0.70371 0.60313 0.0
C401 C 0.0456 0.77956 0.60392 0.0
C402 C 0.01479 0.75865 0.60365 0.0
C403 C 0.92561 0.69763 0.60309 0.0
C404 C 0.95641 0.71855 0.60323 0.0
H405 H 0.07918 0.84781 0.62476 0.0
H406 H 0.02688 0.81629 0.62274 0.0
H407 H 0.04079 0.71118 0.60352 0.0
H408 H 0.84667 0.69873 0.58663 0.0
H409 H 0.89888 0.72982 0.5848 0.0
C410 C 0.04498 0.12903 0.84166 0.0
C411 C 0.07131 0.12573 0.85383 0.0
C412 C 0.02631 0.1583 0.84109 0.0
C413 C 0.02462 0.24705 0.85445 0.0
H414 H 0.92879 0.2341 0.85244 0.0
C415 C 0.89836 0.33051 0.86518 0.0
C416 C 0.90832 0.35912 0.85565 0.0
C417 C 0.91743 0.30127 0.8643 0.0
C418 C 0.95546 0.23811 0.85312 0.0
H419 H 0.10018 0.15114 0.87419 0.0
H420 H 0.06749 0.20265 0.87317 0.0
H421 H 0.96549 0.18563 0.85211 0.0
H422 H 0.94447 0.37908 0.83689 0.0
H423 H 0.97722 0.32822 0.83516 0.0
H424 H 0.01459 0.29948 0.85573 0.0
C425 C 0.06127 0.1825 0.86408 0.0
C426 C 0.97652 0.21039 0.85272 0.0
C427 C 0.08003 0.15308 0.86465 0.0
C428 C 0.93645 0.35748 0.84455 0.0
C429 C 0.95538 0.32844 0.84366 0.0
C430 C 0.00357 0.27475 0.85477 0.0
C431 C 0.03356 0.18498 0.85266 0.0
C432 C 0.01135 0.21456 0.85327 0.0
C433 C 0.94665 0.30029 0.85388 0.0
C434 C 0.96876 0.27061 0.85399 0.0
H435 H 0.03792 0.10841 0.83304 0.0
H436 H 0.00569 0.15975 0.83182 0.0
H437 H 0.05129 0.2511 0.85485 0.0
H438 H 0.87676 0.33117 0.87386 0.0
H439 H 0.91005 0.27993 0.87233 0.0
C440 C 0.60507 0.77813 0.96486 0.0
C441 C 0.60795 0.80613 0.95364 0.0
C442 C 0.57521 0.76019 0.96584 0.0
C443 C 0.50243 0.73933 0.93916 0.0
H444 H 0.46424 0.70871 0.98392 0.0
C445 C 0.37125 0.68069 0.96425 0.0
C446 C 0.36695 0.65443 0.95202 0.0
C447 C 0.40194 0.69697 0.96575 0.0
C448 C 0.47471 0.71703 0.97133 0.0
H449 H 0.58177 0.83817 0.93511 0.0
H450 H 0.52938 0.80646 0.93668 0.0
H451 H 0.51403 0.74433 0.98417 0.0
H452 H 0.39149 0.62348 0.9323 0.0
H453 H 0.44537 0.65238 0.93476 0.0
H454 H 0.46313 0.71207 0.92631 0.0
C455 C 0.55033 0.79839 0.94466 0.0
C456 C 0.50317 0.73732 0.97148 0.0
C457 C 0.58014 0.81663 0.94385 0.0
C458 C 0.39423 0.64368 0.94183 0.0
C459 C 0.4249 0.66033 0.94315 0.0
C460 C 0.47422 0.7187 0.939 0.0
C461 C 0.54777 0.76971 0.95547 0.0
C462 C 0.51717 0.74883 0.95539 0.0
C463 C 0.42881 0.68753 0.95489 0.0
C464 C 0.46 0.7075 0.95509 0.0
H465 H 0.62617 0.7696 0.97257 0.0
H466 H 0.57399 0.73811 0.97421 0.0
H467 H 0.51295 0.74753 0.92656 0.0
H468 H 0.35056 0.68935 0.97228 0.0
H469 H 0.40419 0.71794 0.97484 0.0
C470 C 0.57152 0.1412 0.69377 0.0
C471 C 0.5608 0.11377 0.70402 0.0
C472 C 0.55348 0.17113 0.69403 0.0
C473 C 0.51825 0.23655 0.70361 0.0
H474 H 0.42195 0.22746 0.70381 0.0
C475 C 0.43388 0.35035 0.71336 0.0
C476 C 0.40617 0.35315 0.70208 0.0
C477 C 0.45178 0.32062 0.71421 0.0
C478 C 0.44877 0.23044 0.70363 0.0
H479 H 0.52431 0.09659 0.72335 0.0
H480 H 0.4934 0.1487 0.72408 0.0
H481 H 0.45655 0.17757 0.70375 0.0
H482 H 0.37431 0.32662 0.68348 0.0
H483 H 0.40577 0.27435 0.68488 0.0
H484 H 0.51045 0.28942 0.70312 0.0
C485 C 0.51502 0.14702 0.71546 0.0
C486 C 0.46864 0.20186 0.70381 0.0
C487 C 0.5329 0.11726 0.71516 0.0
C488 C 0.39559 0.32507 0.69231 0.0
C489 C 0.41362 0.29521 0.69312 0.0
C490 C 0.49837 0.26514 0.70345 0.0
C491 C 0.52454 0.17403 0.70457 0.0
C492 C 0.50362 0.20457 0.70393 0.0
C493 C 0.44243 0.29296 0.70375 0.0
C494 C 0.46339 0.26243 0.70359 0.0
H495 H 0.59295 0.1391 0.68504 0.0
H496 H 0.56145 0.19149 0.68547 0.0
H497 H 0.54507 0.23952 0.70377 0.0
H498 H 0.44238 0.37154 0.72118 0.0
H499 H 0.4733 0.31947 0.72288 0.0
C500 C 0.0769 0.33185 0.44882 0.0
C501 C 0.1069 0.31628 0.45346 0.0
C502 C 0.04658 0.31451 0.45036 0.0
C503 C 0.00829 0.23637 0.4696 0.0
H504 H 0.94189 0.25127 0.43298 0.0
C505 C 0.89381 0.15102 0.44834 0.0
C506 C 0.86397 0.16553 0.45427 0.0
C507 C 0.92384 0.16901 0.4493 0.0
C508 C 0.96035 0.24691 0.44324 0.0
H509 H 0.12861 0.2707 0.4638 0.0
H510 H 0.07645 0.2402 0.4658 0.0
H511 H -0.007 0.28471 0.43298 0.0
H512 H 0.84227 0.21 0.46605 0.0
H513 H 0.89456 0.2415 0.46724 0.0
H514 H 0.97565 0.19764 0.47935 0.0
C515 C 0.0758 0.26599 0.46142 0.0
C516 C -0.01054 0.2663 0.44341 0.0
C517 C 0.1059 0.28346 0.46014 0.0
C518 C 0.86483 0.1981 0.46138 0.0
C519 C 0.89464 0.21619 0.46206 0.0
C520 C 0.97939 0.21665 0.46922 0.0
C521 C 0.04568 0.28104 0.45634 0.0
C522 C 0.01393 0.26132 0.4566 0.0
C523 C 0.92427 0.20187 0.45594 0.0
C524 C 0.95529 0.22181 0.45603 0.0
H525 H 0.07691 0.35713 0.44362 0.0
H526 H 0.02392 0.32727 0.44667 0.0
H527 H 0.02608 0.23213 0.48019 0.0
H528 H 0.89385 0.12608 0.4427 0.0
H529 H 0.94656 0.15762 0.44449 0.0
C530 C 0.07116 0.65164 0.19447 0.0
C531 C 0.0609 0.62278 0.20368 0.0
C532 C 0.05376 0.68167 0.19662 0.0
C533 C 0.02021 0.7461 0.20876 0.0
H534 H 0.92414 0.73772 0.21246 0.0
C535 C 0.93792 0.86193 0.21851 0.0
C536 C 0.90869 0.86344 0.20831 0.0
C537 C 0.95573 0.83213 0.21981 0.0
C538 C 0.9509 0.74056 0.21134 0.0
H539 H 0.0261 0.60304 0.22319 0.0
H540 H -0.00348 0.6554 0.22738 0.0
H541 H 0.9581 0.68767 0.21071 0.0
H542 H 0.87417 0.83469 0.19216 0.0
H543 H 0.90551 0.78267 0.19415 0.0
H544 H 0.01286 0.79902 0.20861 0.0
C545 C 0.01712 0.65481 0.21804 0.0
C546 C 0.97048 0.71181 0.21058 0.0
C547 C 0.03426 0.62487 0.21576 0.0
C548 C 0.89663 0.83418 0.20015 0.0
C549 C 0.9146 0.80437 0.20133 0.0
C550 C 0.0006 0.77487 0.20942 0.0
C551 C 0.026 0.68337 0.20813 0.0
C552 C 0.0054 0.71418 0.20927 0.0
C553 C 0.94483 0.8032 0.21083 0.0
C554 C 0.96567 0.77248 0.2107 0.0
H555 H 0.09163 0.65064 0.18505 0.0
H556 H 0.06122 0.70311 0.1887 0.0
H557 H 0.047 0.74891 0.2079 0.0
H558 H 0.9476 0.88409 0.22507 0.0
H559 H 0.97841 0.83196 0.22761 0.0
C560 C 0.42298 0.03516 0.0845 0.0
C561 C 0.39434 0.01706 0.08933 0.0
C562 C 0.44633 0.0212 0.07301 0.0
C563 C 0.44889 0.96358 0.03587 0.0
H564 H 0.54423 0.97861 0.03866 0.0
C565 C 0.54242 0.91756 0.98262 0.0
C566 C 0.5694 0.93877 0.97866 0.0
C567 C 0.52022 0.92574 0.99624 0.0
C568 C 0.5176 0.97457 0.03763 0.0
H569 H 0.36837 0.96962 0.08701 0.0
H570 H 0.40941 0.94502 0.06667 0.0
H571 H 0.50911 -0.0081 0.06427 0.0
H572 H 0.59341 0.986 0.98492 0.0
H573 H 0.55414 0.00073 1.00855 0.0
H574 H 0.45726 0.94696 1.00909 0.0
C575 C 0.41363 0.97007 0.07175 0.0
C576 C 0.4976 0.9819 0.05232 0.0
C577 C 0.39035 0.98398 0.08344 0.0
C578 C 0.57279 0.96922 0.98778 0.0
C579 C 0.55058 0.97743 1.00141 0.0
C580 C 0.46891 0.9563 1.02115 0.0
C581 C 0.44129 -0.01103 0.06603 0.0
C582 C 0.46301 0.97695 0.05148 0.0
C583 C 0.52467 0.95529 1.00611 0.0
C584 C 0.50339 0.96223 1.02179 0.0
H585 H 0.42657 0.06073 0.08894 0.0
H586 H 0.46726 0.03645 0.06874 0.0
H587 H 0.42221 0.96005 0.03476 0.0
H588 H 0.53934 0.89386 0.97577 0.0
H589 H 0.50056 0.90816 0.9996 0.0
C590 C 0.71248 0.64475 0.32754 0.0
C591 C 0.67948 0.64515 0.33366 0.0
C592 C 0.72343 0.6685 0.31516 0.0
C593 C 0.69136 0.72364 0.28007 0.0
H594 H 0.77908 0.76424 0.28275 0.0
C595 C 0.73777 0.83003 0.23325 0.0
C596 C 0.77139 0.82886 0.22821 0.0
C597 C 0.72503 0.80665 0.24541 0.0
C598 C 0.75465 0.75278 0.2817 0.0
H599 H 0.63235 0.67124 0.33236 0.0
H600 H 0.6516 0.71302 0.3109 0.0
H601 H 0.76046 0.72692 0.30648 0.0
H602 H 0.81748 0.8013 0.23067 0.0
H603 H 0.79514 0.76013 0.25147 0.0
H604 H 0.68565 0.7495 0.25523 0.0
C605 C 0.66884 0.69407 0.3154 0.0
C606 C 0.74399 0.7315 0.29531 0.0
C607 C 0.65793 0.67036 0.32777 0.0
C608 C 0.79152 0.8029 0.23454 0.0
C609 C 0.77882 0.77952 0.24654 0.0
C610 C 0.70205 0.74495 0.26642 0.0
C611 C 0.7015 0.693 0.30872 0.0
C612 C 0.71233 0.71656 0.2946 0.0
C613 C 0.74579 0.7818 0.25257 0.0
C614 C 0.73392 0.7595 0.26704 0.0
H615 H 0.72949 0.62544 0.33185 0.0
H616 H 0.74868 0.66693 0.31014 0.0
H617 H 0.66696 0.71211 0.27906 0.0
H618 H 0.72185 0.84995 0.22854 0.0
H619 H 0.69947 0.80902 0.24984 0.0
C620 C 0.04535 0.94056 0.58559 0.0
C621 C 0.07634 0.95675 0.5868 0.0
C622 C 0.02243 0.95031 0.5727 0.0
C623 C 0.00112 0.01647 0.54059 0.0
H624 H 0.96445 0.94245 0.51326 0.0
C625 C 0.9291 0.03947 0.47615 0.0
C626 C 0.89835 0.02284 0.47491 0.0
C627 C 0.95227 0.0298 0.48893 0.0
C628 C 0.97431 0.96334 0.52084 0.0
H629 H 0.10708 -0.00293 0.57647 0.0
H630 H 0.06694 0.01417 0.55381 0.0
H631 H -2e-05 0.93116 0.53889 0.0
H632 H 0.86828 0.98188 0.48508 0.0
H633 H 0.90876 0.965 0.50758 0.0
H634 H 0.97538 0.04865 0.52257 0.0
C635 C 0.0603 -0.00596 0.56284 0.0
C636 C -0.0055 0.95691 0.53555 0.0
C637 C 0.08326 0.98428 0.57578 0.0
C638 C 0.89192 -0.005 0.48579 0.0
C639 C 0.91508 0.98537 0.49864 0.0
C640 C 0.9809 0.0229 0.52589 0.0
C641 C 0.03018 0.97637 0.56081 0.0
C642 C 0.00803 0.98342 0.54557 0.0
C643 C 0.94498 0.00342 0.5007 0.0
C644 C 0.96734 -0.00361 0.51587 0.0
H645 H 0.03941 0.91934 0.59404 0.0
H646 H -0.00093 0.93675 0.57166 0.0
H647 H 0.011 0.03734 0.54818 0.0
H648 H 0.93466 0.06092 0.46779 0.0
H649 H 0.97545 0.04366 0.48997 0.0
C650 C 0.73947 0.33386 0.82378 0.0
C651 C 0.76612 0.32682 0.83523 0.0
C652 C 0.73006 0.31079 0.81072 0.0
C653 C 0.76708 0.24414 0.784 0.0
H654 H 0.67604 0.22551 0.7699 0.0
C655 C 0.72924 0.14007 0.7345 0.0
C656 C 0.70196 0.14626 0.72334 0.0
C657 C 0.7389 0.16381 0.74717 0.0
C658 C 0.70162 0.2309 0.77352 0.0
H659 H 0.80229 0.28955 0.84303 0.0
H660 H 0.78548 0.249 0.8204 0.0
H661 H 0.68677 0.26154 0.79553 0.0
H662 H 0.66505 0.18276 0.71551 0.0
H663 H 0.68237 0.22452 0.73738 0.0
H664 H 0.78193 0.2135 0.76199 0.0
C665 C 0.77236 0.27255 0.82123 0.0
C666 C 0.70771 0.25135 0.78824 0.0
C667 C 0.78175 0.29559 0.83426 0.0
C668 C 0.68605 0.17737 0.72408 0.0
C669 C 0.69576 0.20111 0.73669 0.0
C670 C 0.76099 0.22372 0.76926 0.0
C671 C 0.7472 0.28041 0.80896 0.0
C672 C 0.74049 0.25807 0.79365 0.0
C673 C 0.72145 0.19405 0.74878 0.0
C674 C 0.7282 0.21689 0.76389 0.0
H675 H 0.72712 0.35786 0.82427 0.0
H676 H 0.71062 0.31753 0.8014 0.0
H677 H 0.79264 0.24946 0.78767 0.0
H678 H 0.74181 0.11618 0.73418 0.0
H679 H 0.75874 0.15764 0.75635 0.0
C680 C 0.24253 0.33349 0.73577 0.0
C681 C 0.26541 0.32533 0.72231 0.0
C682 C 0.23479 0.31026 0.74908 0.0
C683 C 0.2404 0.22133 0.76183 0.0
H684 H 0.24766 0.25704 0.80985 0.0
C685 C 0.23771 0.13456 0.82275 0.0
C686 C 0.21527 0.14428 0.83612 0.0
C687 C 0.24717 0.15722 0.80945 0.0
C688 C 0.24539 0.24674 0.79653 0.0
H689 H 0.29627 0.28606 0.71131 0.0
H690 H 0.28257 0.2454 0.73448 0.0
H691 H 0.25281 0.29456 0.78432 0.0
H692 H 0.18698 0.18559 0.84698 0.0
H693 H 0.20333 0.22504 0.82382 0.0
H694 H 0.23266 0.17356 0.77402 0.0
C695 C 0.27067 0.26964 0.73482 0.0
C696 C 0.24813 0.26822 0.78192 0.0
C697 C 0.27852 0.29291 0.72158 0.0
C698 C 0.20435 0.17752 0.83679 0.0
C699 C 0.21379 0.20013 0.82354 0.0
C700 C 0.23755 0.19984 0.77644 0.0
C701 C 0.24967 0.27852 0.74904 0.0
C702 C 0.24551 0.25575 0.76444 0.0
C703 C 0.23435 0.18989 0.80939 0.0
C704 C 0.23991 0.21235 0.79394 0.0
H705 H 0.23209 0.35837 0.7366 0.0
H706 H 0.21805 0.31751 0.75974 0.0
H707 H 0.23812 0.21109 0.7485 0.0
H708 H 0.24648 0.10902 0.82199 0.0
H709 H 0.26355 0.14884 0.79888 0.0
C710 C 0.24344 0.8328 0.32839 0.0
C711 C 0.27086 0.82586 0.33931 0.0
C712 C 0.23315 0.80966 0.31554 0.0
C713 C 0.26842 0.74241 0.28838 0.0
H714 H 0.17666 0.72655 0.27466 0.0
C715 C 0.2274 0.64228 0.23717 0.0
C716 C 0.20106 0.65055 0.22576 0.0
C717 C 0.23725 0.66442 0.2506 0.0
C718 C 0.20243 0.7311 0.27821 0.0
H719 H 0.30751 0.78862 0.34647 0.0
H720 H 0.28909 0.74786 0.3243 0.0
H721 H 0.18884 0.76151 0.30055 0.0
H722 H 0.16568 0.68898 0.21854 0.0
H723 H 0.18321 0.7279 0.24184 0.0
H724 H 0.28198 0.71198 0.26604 0.0
C725 C 0.27605 0.77143 0.32532 0.0
C726 C 0.20937 0.75097 0.29307 0.0
C727 C 0.28639 0.7946 0.3381 0.0
C728 C 0.18601 0.68201 0.22725 0.0
C729 C 0.19581 0.70411 0.24066 0.0
C730 C 0.26148 0.72249 0.27354 0.0
C731 C 0.2501 0.77922 0.3135 0.0
C732 C 0.24244 0.75687 0.29829 0.0
C733 C 0.22085 0.69511 0.25279 0.0
C734 C 0.22842 0.71675 0.26828 0.0
H735 H 0.23114 0.85682 0.32906 0.0
H736 H 0.21316 0.81643 0.30658 0.0
H737 H 0.29421 0.74706 0.29185 0.0
H738 H 0.23931 0.61808 0.2363 0.0
H739 H 0.25655 0.65679 0.2598 0.0
C740 C 0.04585 0.44403 0.47333 0.0
C741 C 0.07581 0.46122 0.47018 0.0
C742 C 0.02241 0.457 0.48508 0.0
C743 C 0.02122 0.50536 0.52559 0.0
H744 H 0.92534 0.49765 0.52082 0.0
C745 C 0.9283 0.54558 0.58025 0.0
C746 C 0.8993 0.5262 0.58232 0.0
C747 C 0.95081 0.53845 0.56663 0.0
C748 C 0.9521 0.49954 0.5224 0.0
H749 H 0.10411 0.50634 0.47566 0.0
H750 H 0.06293 0.52912 0.49653 0.0
H751 H 0.96084 0.48844 0.49484 0.0
H752 H 0.872 0.4829 0.57275 0.0
H753 H 0.91184 0.46986 0.54909 0.0
H754 H 0.0126 0.5156 0.55323 0.0
C755 C 0.05772 0.50559 0.48991 0.0
C756 C 0.97232 0.49462 0.5075 0.0
C757 C 0.08108 0.49274 0.47792 0.0
C758 C 0.8942 0.49822 0.57137 0.0
C759 C 0.91676 0.49104 0.55773 0.0
C760 C 0.00099 0.51016 0.5405 0.0
C761 C 0.02873 0.48723 0.49401 0.0
C762 C 0.00707 0.49706 0.50902 0.0
C763 C 0.94468 0.51177 0.55487 0.0
C764 C 0.96626 0.50684 0.5391 0.0
H765 H 0.0413 0.41968 0.46742 0.0
H766 H 0.0004 0.44222 0.48808 0.0
H767 H 0.04799 0.50676 0.52719 0.0
H768 H 0.93274 0.56735 0.58856 0.0
H769 H 0.97204 0.55491 0.56474 0.0
C770 C 0.58358 0.48458 0.07335 0.0
C771 C 0.57546 0.45862 0.08521 0.0
C772 C 0.56059 0.49475 0.06052 0.0
C773 C 0.47211 0.48892 0.04719 0.0
H774 H 0.50796 0.49313 0.99909 0.0
C775 C 0.38616 0.49192 0.9863 0.0
C776 C 0.39355 0.51704 0.97382 0.0
C777 C 0.40939 0.48354 0.99937 0.0
C778 C 0.49764 0.49225 1.01246 0.0
H779 H 0.5366 0.42444 0.0939 0.0
H780 H 0.49649 0.44215 0.07156 0.0
H781 H 0.54554 0.48539 1.02428 0.0
H782 H 0.43142 0.55164 0.96435 0.0
H783 H 0.47197 0.53704 0.98715 0.0
H784 H 0.42421 0.49562 0.03537 0.0
C785 C 0.52042 0.45475 0.07211 0.0
C786 C 0.51914 0.48806 1.02688 0.0
C787 C 0.5434 0.44454 0.08487 0.0
C788 C 0.42518 0.53213 0.97384 0.0
C789 C 0.4484 0.52373 0.98688 0.0
C790 C 0.45062 0.4931 0.03277 0.0
C791 C 0.52917 0.47918 0.05945 0.0
C792 C 0.50656 0.48621 0.04437 0.0
C793 C 0.44033 0.50013 1.0001 0.0
C794 C 0.46316 0.49464 1.01526 0.0
H795 H 0.60819 0.49581 0.07339 0.0
H796 H 0.56774 0.51402 0.05107 0.0
H797 H 0.46178 0.48788 0.06055 0.0
H798 H 0.3619 0.47992 0.98651 0.0
H799 H 0.40279 0.46479 1.00922 0.0
C800 C 0.19687 0.22267 0.13645 0.0
C801 C 0.22115 0.20653 0.14671 0.0
C802 C 0.18893 0.2561 0.13989 0.0
C803 C 0.22706 0.33113 0.1604 0.0
H804 H 0.13868 0.36854 0.1561 0.0
C805 C 0.2028 0.47282 0.1691 0.0
C806 C 0.17503 0.48046 0.17968 0.0
C807 C 0.20769 0.43999 0.1631 0.0
C808 C 0.16353 0.35844 0.15738 0.0
H809 H 0.25416 0.21129 0.16941 0.0
H810 H 0.23939 0.269 0.17589 0.0
H811 H 0.1468 0.30889 0.15111 0.0
H812 H 0.13045 0.46016 0.19214 0.0
H813 H 0.13921 0.4034 0.18208 0.0
H814 H 0.24359 0.38035 0.16738 0.0
C815 C 0.22735 0.2565 0.16479 0.0
C816 C 0.1682 0.32431 0.15437 0.0
C817 C 0.23548 0.22333 0.16125 0.0
C818 C 0.1521 0.45504 0.18396 0.0
C819 C 0.15695 0.42248 0.17804 0.0
C820 C 0.22237 0.3652 0.16349 0.0
C821 C 0.205 0.27369 0.15372 0.0
C822 C 0.19993 0.31016 0.15617 0.0
C823 C 0.18481 0.41445 0.16759 0.0
C824 C 0.19045 0.37914 0.16232 0.0
H825 H 0.18571 0.21025 0.12506 0.0
H826 H 0.1716 0.26861 0.13111 0.0
H827 H 0.252 0.32118 0.16146 0.0
H828 H 0.2207 0.49208 0.16554 0.0
H829 H 0.2293 0.4346 0.15494 0.0
C830 C 0.49646 0.43115 0.39095 0.0
C831 C 0.52201 0.44782 0.40015 0.0
C832 C 0.46786 0.4206 0.40001 0.0
C833 C 0.41673 0.44872 0.4365 0.0
H834 H 0.36502 0.36898 0.42602 0.0
C835 C 0.27198 0.40829 0.42785 0.0
C836 C 0.25717 0.42276 0.44294 0.0
C837 C 0.30645 0.40676 0.42628 0.0
C838 C 0.37914 0.39142 0.42908 0.0
H839 H 0.53901 0.46448 0.42615 0.0
H840 H 0.48866 0.44642 0.44196 0.0
H841 H 0.42319 0.37226 0.41666 0.0
H842 H 0.26659 0.44667 0.46839 0.0
H843 H 0.32751 0.44405 0.46568 0.0
H844 H 0.37225 0.4688 0.44791 0.0
C845 C 0.49079 0.44152 0.42778 0.0
C846 C 0.41245 0.39316 0.4238 0.0
C847 C 0.51962 0.45165 0.41875 0.0
C848 C 0.27751 0.43571 0.45653 0.0
C849 C 0.31227 0.43412 0.45498 0.0
C850 C 0.38329 0.44711 0.44163 0.0
C851 C 0.4642 0.42692 0.41837 0.0
C852 C 0.43125 0.42224 0.42695 0.0
C853 C 0.32708 0.41951 0.43983 0.0
C854 C 0.3638 0.41891 0.4374 0.0
H855 H 0.49774 0.42795 0.37661 0.0
H856 H 0.44766 0.40962 0.3924 0.0
H857 H 0.43058 0.4716 0.43895 0.0
H858 H 0.25687 0.39814 0.41715 0.0
H859 H 0.3169 0.39613 0.41423 0.0
C860 C 0.27331 0.75245 0.63073 0.0
C861 C 0.25391 0.77124 0.64263 0.0
C862 C 0.28191 0.71954 0.63493 0.0
C863 C 0.28763 0.65911 0.6719 0.0
H864 H 0.26735 0.59262 0.63568 0.0
C865 C 0.267 0.50752 0.6682 0.0
C866 C 0.29526 0.49789 0.67786 0.0
C867 C 0.26328 0.54095 0.66288 0.0
C868 C 0.27293 0.61094 0.64591 0.0
H869 H 0.23012 0.77157 0.6686 0.0
H870 H 0.24562 0.71446 0.67609 0.0
H871 H 0.26129 0.65218 0.62879 0.0
H872 H 0.34228 0.51506 0.68895 0.0
H873 H 0.33589 0.57263 0.67966 0.0
H874 H 0.29868 0.61811 0.68914 0.0
C875 C 0.25405 0.72489 0.66351 0.0
C876 C 0.26992 0.64496 0.64192 0.0
C877 C 0.24519 0.75756 0.65924 0.0
C878 C 0.32002 0.52178 0.68167 0.0
C879 C 0.31634 0.55485 0.67643 0.0
C880 C 0.2908 0.62523 0.67586 0.0
C881 C 0.27159 0.70521 0.65117 0.0
C882 C 0.27711 0.66933 0.65492 0.0
C883 C 0.28775 0.56497 0.66725 0.0
C884 C 0.28346 0.6008 0.66292 0.0
H885 H 0.28016 0.76246 0.61778 0.0
H886 H 0.29583 0.705 0.62529 0.0
H887 H 0.29338 0.67735 0.68216 0.0
H888 H 0.24768 0.48947 0.66504 0.0
H889 H 0.24094 0.54818 0.65582 0.0
C890 C 0.97093 0.52633 0.87839 0.0
C891 C 0.94916 0.51068 0.8905 0.0
C892 C 0.00357 0.53389 0.88345 0.0
C893 C 0.05985 0.54144 0.92227 0.0
H894 H 0.1276 0.51384 0.88839 0.0
C895 C 0.1973 0.56947 0.93403 0.0
C896 C 0.22057 0.54424 0.93049 0.0
C897 C 0.1644 0.56597 0.9287 0.0
C898 C 0.10894 0.52136 0.89801 0.0
H899 H 0.94328 0.4929 0.91766 0.0
H900 H 0.00013 0.50612 0.92651 0.0
H901 H 0.06883 0.50967 0.88027 0.0
H902 H 0.22798 0.49573 0.91834 0.0
H903 H 0.16953 0.48917 0.90908 0.0
H904 H 0.09976 0.55227 0.94019 0.0
C905 C -0.00781 0.5126 0.91314 0.0
C906 C 0.07534 0.5195 0.89328 0.0
C907 C 0.95962 0.50503 0.90809 0.0
C908 C 0.21041 0.51545 0.92125 0.0
C909 C 0.17713 0.51184 0.9159 0.0
C910 C 0.09335 0.54325 0.92699 0.0
C911 C 0.01483 0.52602 0.90069 0.0
C912 C 0.05048 0.52957 0.90537 0.0
C913 C 0.15378 0.537 0.91979 0.0
C914 C 0.11825 0.53339 0.91489 0.0
H915 H 0.96339 0.53096 0.86474 0.0
H916 H 0.02031 0.54487 0.87369 0.0
H917 H 0.04129 0.54945 0.93184 0.0
H918 H 0.20441 0.59204 0.94107 0.0
H919 H 0.14724 0.5861 0.93155 0.0
C920 C 0.76483 0.51016 0.8881 0.0
C921 C 0.79367 0.50014 0.87902 0.0
C922 C 0.76177 0.54336 0.89394 0.0
C923 C 0.77192 0.61176 0.91244 0.0
H924 H 0.80135 0.67959 0.87872 0.0
C925 C 0.77748 0.75068 0.93178 0.0
C926 C 0.76147 0.772 0.91968 0.0
C927 C 0.78525 0.71798 0.9268 0.0
C928 C 0.79302 0.66097 0.88826 0.0
H929 H 0.84246 0.51618 0.8697 0.0
H930 H 0.83731 0.57316 0.87998 0.0
H931 H 0.80393 0.62077 0.87047 0.0
H932 H 0.74345 0.77716 0.89258 0.0
H933 H 0.75725 0.72025 0.88382 0.0
H934 H 0.76029 0.65219 0.93007 0.0
C935 C 0.81672 0.55603 0.88224 0.0
C936 C 0.79465 0.62729 0.8836 0.0
C937 C 0.81968 0.52326 0.87642 0.0
C938 C 0.75585 0.76116 0.90214 0.0
C939 C 0.76372 0.72856 0.89714 0.0
C940 C 0.77033 0.64555 0.91713 0.0
C941 C 0.78754 0.56668 0.89073 0.0
C942 C 0.78425 0.60234 0.89565 0.0
C943 C 0.77733 0.70628 0.90962 0.0
C944 C 0.78087 0.67046 0.90507 0.0
H945 H 0.74455 0.49267 0.89033 0.0
H946 H 0.73898 0.55101 0.90049 0.0
H947 H 0.76395 0.59303 0.922 0.0
H948 H 0.78206 0.7585 0.9454 0.0
H949 H 0.79634 0.70148 0.93657 0.0
C950 C 0.47014 0.4899 0.65025 0.0
C951 C 0.45541 0.50036 0.66628 0.0
C952 C 0.50335 0.49757 0.64663 0.0
C953 C 0.57451 0.55076 0.65938 0.0
H954 H 0.6254 0.47615 0.64078 0.0
C955 C 0.70126 0.56711 0.62567 0.0
C956 C 0.72611 0.54312 0.62843 0.0
C957 C 0.66953 0.56253 0.63271 0.0
C958 C 0.61167 0.49706 0.64624 0.0
H959 H 0.46284 0.52882 0.69058 0.0
H960 H 0.52118 0.54235 0.68424 0.0
H961 H 0.56649 0.46867 0.6476 0.0
H962 H 0.73771 0.49585 0.641 0.0
H963 H 0.68151 0.48751 0.65334 0.0
H964 H 0.6198 0.57913 0.658 0.0
C965 C 0.50704 0.52824 0.67447 0.0
C966 C 0.57783 0.49295 0.64987 0.0
C967 C 0.47367 0.52062 0.67808 0.0
C968 C 0.71883 0.51457 0.63862 0.0
C969 C 0.68679 0.50985 0.64564 0.0
C970 C 0.60839 0.55488 0.65573 0.0
C971 C 0.52249 0.51572 0.65901 0.0
C972 C 0.55875 0.51994 0.65612 0.0
C973 C 0.66181 0.53379 0.64265 0.0
C974 C 0.62715 0.52825 0.64878 0.0
H975 H 0.45648 0.47439 0.64089 0.0
H976 H 0.51435 0.48837 0.63438 0.0
H977 H 0.56047 0.57195 0.66424 0.0
H978 H 0.70617 0.58939 0.61785 0.0
H979 H 0.65073 0.58112 0.62989 0.0
C980 C 0.71298 0.20865 0.40361 0.0
C981 C 0.71046 0.20047 0.42177 0.0
C982 C 0.70555 0.24094 0.39782 0.0
C983 C 0.70429 0.32678 0.4153 0.0
H984 H 0.66269 0.34729 0.37001 0.0
C985 C 0.69972 0.46084 0.385 0.0
C986 C 0.66898 0.46942 0.37748 0.0
C987 C 0.70545 0.42784 0.39051 0.0
C988 C 0.67428 0.34195 0.38274 0.0
H989 H 0.69562 0.21833 0.4479 0.0
H990 H 0.68173 0.27449 0.43771 0.0
H991 H 0.66734 0.28924 0.37946 0.0
H992 H 0.61975 0.45089 0.37047 0.0
H993 H 0.62951 0.39422 0.38021 0.0
H994 H 0.71047 0.37967 0.41873 0.0
C995 C 0.69037 0.25636 0.42803 0.0
C996 C 0.67713 0.3087 0.38807 0.0
C997 C 0.6979 0.22414 0.43382 0.0
C998 C 0.64391 0.44495 0.37597 0.0
C999 C 0.64954 0.41234 0.38147 0.0
C1000 C 0.70138 0.3601 0.40996 0.0
C1001 C 0.69535 0.26545 0.4101 0.0
C1002 C 0.69192 0.30076 0.40448 0.0
C1003 C 0.68046 0.40324 0.38854 0.0
C1004 C 0.68602 0.368 0.39371 0.0
H1005 H 0.72277 0.19083 0.39408 0.0
H1006 H 0.70968 0.24719 0.38392 0.0
H1007 H 0.71643 0.32139 0.42787 0.0
H1008 H 0.71933 0.47938 0.38635 0.0
H1009 H 0.72955 0.42143 0.39595 0.0
C1010 C 0.76923 0.40137 0.12666 0.0
C1011 C 0.74581 0.42652 0.13011 0.0
C1012 C 0.80209 0.4051 0.13205 0.0
C1013 C 0.85812 0.44965 0.16227 0.0
H1014 H 0.92421 0.42968 0.12596 0.0
C1015 C -0.00126 0.45226 0.17721 0.0
C1016 C 0.01698 0.47265 0.16544 0.0
C1017 C 0.96623 0.44255 0.17297 0.0
C1018 C 0.90604 0.43524 0.13623 0.0
H1019 H 0.73789 0.47472 0.14255 0.0
H1020 H 0.7962 0.48152 0.15203 0.0
H1021 H 0.8652 0.42316 0.11913 0.0
H1022 H 0.01689 0.49695 0.13959 0.0
H1023 H 0.96042 0.47944 0.13201 0.0
H1024 H 0.89915 0.46231 0.17927 0.0
C1025 C 0.78879 0.45887 0.14512 0.0
C1026 C 0.87232 0.4314 0.13237 0.0
C1027 C 0.7556 0.4551 0.13966 0.0
C1028 C 0.00327 0.48117 0.14886 0.0
C1029 C 0.97099 0.47116 0.14453 0.0
C1030 C 0.89196 0.45328 0.16619 0.0
C1031 C 0.81239 0.43411 0.14103 0.0
C1032 C 0.84804 0.43865 0.14532 0.0
C1033 C 0.95179 0.45272 0.1568 0.0
C1034 C 0.91618 0.4463 0.15315 0.0
H1035 H 0.76233 0.37881 0.11954 0.0
H1036 H 0.81958 0.38534 0.12904 0.0
H1037 H 0.83987 0.45519 0.17251 0.0
H1038 H 0.0088 0.44551 0.19012 0.0
H1039 H 0.95203 0.42795 0.18254 0.0
C1040 C 0.69514 0.72002 0.6294 0.0
C1041 C 0.71392 0.70034 0.64113 0.0
C1042 C 0.68584 0.75237 0.63432 0.0
C1043 C 0.67808 0.80977 0.67265 0.0
H1044 H 0.70031 0.8788 0.6381 0.0
C1045 C 0.70128 0.96113 0.67221 0.0
C1046 C 0.67333 0.9705 0.68224 0.0
C1047 C 0.70438 0.92808 0.66619 0.0
C1048 C 0.69417 0.85977 0.64788 0.0
H1049 H 0.73568 0.69766 0.66753 0.0
H1050 H 0.71914 0.75385 0.67622 0.0
H1051 H 0.70619 0.81984 0.62997 0.0
H1052 H 0.62607 0.95341 0.69317 0.0
H1053 H 0.63133 0.89647 0.68262 0.0
H1054 H 0.66691 0.84947 0.69072 0.0
C1055 C 0.71166 0.74455 0.66324 0.0
C1056 C 0.69705 0.82609 0.64316 0.0
C1057 C 0.72115 0.7124 0.65828 0.0
C1058 C 0.64818 0.9468 0.68569 0.0
C1059 C 0.6512 0.9141 0.6797 0.0
C1060 C 0.67512 0.84334 0.67733 0.0
C1061 C 0.6949 0.76524 0.6511 0.0
C1062 C 0.68922 0.80079 0.65556 0.0
C1063 C 0.67953 0.90419 0.67016 0.0
C1064 C 0.68319 0.86868 0.66502 0.0
H1065 H 0.68937 0.71124 0.61607 0.0
H1066 H 0.67249 0.76768 0.62482 0.0
H1067 H 0.67181 0.79081 0.68245 0.0
H1068 H 0.72086 0.97908 0.6693 0.0
H1069 H 0.72653 0.92101 0.65887 0.0
C1070 C 0.75175 0.96346 0.92925 0.0
C1071 C 0.74266 0.93054 0.93358 0.0
C1072 C 0.78414 0.97052 0.92339 0.0
C1073 C 0.85769 0.93589 0.90231 0.0
H1074 H 0.90806 -0.00349 0.93246 0.0
C1075 C -0.00119 0.95969 0.89145 0.0
C1076 C 0.00934 -0.00705 0.89361 0.0
C1077 C 0.96664 0.95008 0.89674 0.0
C1078 C 0.8943 0.9799 0.92371 0.0
H1079 H 0.75919 0.87902 0.93437 0.0
H1080 H 0.81528 0.89125 0.92361 0.0
H1081 H 0.84952 0.98592 0.9389 0.0
H1082 H -0.00501 0.04213 0.90306 0.0
H1083 H 0.93927 0.02593 0.91156 0.0
H1084 H 0.90204 0.93062 0.88672 0.0
C1085 C 0.7977 0.91156 0.92497 0.0
C1086 C 0.86081 0.97389 0.92744 0.0
C1087 C 0.76573 0.90465 0.93121 0.0
C1088 C -0.01236 0.0162 0.90134 0.0
C1089 C 0.95563 0.00681 0.90637 0.0
C1090 C 0.89112 0.94242 0.89833 0.0
C1091 C 0.80734 0.94458 0.92137 0.0
C1092 C 0.84226 0.95197 0.91675 0.0
C1093 C 0.94458 0.9737 0.9041 0.0
C1094 C 0.90977 0.96469 0.90893 0.0
H1095 H 0.73428 0.98375 0.93098 0.0
H1096 H 0.79122 -0.0038 0.92063 0.0
H1097 H 0.84373 0.9187 0.89396 0.0
H1098 H 0.01517 0.94135 0.88549 0.0
H1099 H 0.95904 0.92425 0.895 0.0
C1100 C 0.82573 0.02748 0.18639 0.0
C1101 C 0.8004 0.01116 0.19589 0.0
C1102 C 0.82412 0.06151 0.18293 0.0
C1103 C 0.80512 0.12393 0.16457 0.0
H1104 H 0.75594 0.18924 0.19205 0.0
C1105 C 0.75578 0.24223 0.13235 0.0
C1106 C 0.75279 0.27174 0.14229 0.0
C1107 C 0.76609 0.21281 0.14047 0.0
C1108 C 0.77034 0.17147 0.18438 0.0
H1109 H 0.75333 0.01759 0.20952 0.0
H1110 H 0.74868 0.0772 0.20207 0.0
H1111 H 0.76541 0.13364 0.20451 0.0
H1112 H 0.75956 0.29427 0.16835 0.0
H1113 H 0.77884 0.24263 0.1826 0.0
H1114 H 0.81122 0.1617 0.14478 0.0
C1115 C 0.77083 0.06389 0.19802 0.0
C1116 C 0.77527 0.13938 0.1914 0.0
C1117 C 0.77325 0.02972 0.20216 0.0
C1118 C 0.76182 0.27176 0.16039 0.0
C1119 C 0.77245 0.24217 0.16857 0.0
C1120 C 0.80085 0.15597 0.1578 0.0
C1121 C 0.79603 0.08003 0.18799 0.0
C1122 C 0.79229 0.115 0.18143 0.0
C1123 C 0.77412 0.21221 0.15873 0.0
C1124 C 0.78262 0.17989 0.16734 0.0
H1125 H 0.84673 0.01374 0.18131 0.0
H1126 H 0.84467 0.073 0.1758 0.0
H1127 H 0.81771 0.10592 0.15619 0.0
H1128 H 0.74876 0.24146 0.11839 0.0
H1129 H 0.76639 0.19021 0.13251 0.0
C1130 C 0.72051 0.03051 0.41468 0.0
C1131 C 0.72657 0.04102 0.43221 0.0
C1132 C 0.68772 0.02805 0.40842 0.0
C1133 C 0.60255 0.05861 0.41954 0.0
H1134 H 0.57442 -0.00875 0.38548 0.0
C1135 C 0.46621 0.01799 0.40509 0.0
C1136 C 0.45783 0.01399 0.38704 0.0
C1137 C 0.49884 0.02632 0.40991 0.0
C1138 C 0.58212 0.01041 0.39486 0.0
H1139 H 0.70391 0.05531 0.45731 0.0
H1140 H 0.64706 0.04908 0.44688 0.0
H1141 H 0.63222 -0.00733 0.39542 0.0
H1142 H 0.47607 0.01783 0.35983 0.0
H1143 H 0.53312 0.03182 0.36831 0.0
H1144 H 0.55185 0.0752 0.4195 0.0
C1145 C 0.66714 0.04421 0.43759 0.0
C1146 C 0.61521 0.0113 0.40052 0.0
C1147 C 0.69971 0.04734 0.44366 0.0
C1148 C 0.4819 0.02069 0.37386 0.0
C1149 C 0.51455 0.02847 0.37868 0.0
C1150 C 0.56935 0.0573 0.41411 0.0
C1151 C 0.66066 0.03556 0.41974 0.0
C1152 C 0.6258 0.03523 0.41307 0.0
C1153 C 0.52349 0.03028 0.39673 0.0
C1154 C 0.55887 0.03311 0.40179 0.0
H1155 H 0.74102 0.02602 0.40559 0.0
H1156 H 0.6837 0.02153 0.39456 0.0
H1157 H 0.60993 0.07801 0.42884 0.0
H1158 H 0.44808 0.01288 0.41548 0.0
H1159 H 0.50526 0.0276 0.42394 0.0
C1160 C 0.27486 0.25868 0.42172 0.0
C1161 C 0.25008 0.27382 0.41136 0.0
C1162 C 0.28375 0.22544 0.4185 0.0
C1163 C 0.24665 0.1492 0.39912 0.0
H1164 H 0.33547 0.11295 0.40373 0.0
C1165 C 0.27145 0.00772 0.39224 0.0
C1166 C 0.2987 -0.00012 0.38133 0.0
C1167 C 0.26686 0.04064 0.39811 0.0
C1168 C 0.31051 0.12273 0.40239 0.0
H1169 H 0.21737 0.26771 0.38863 0.0
H1170 H 0.23379 0.2103 0.38254 0.0
H1171 H 0.3268 0.17282 0.40774 0.0
H1172 H 0.34307 0.01971 0.36844 0.0
H1173 H 0.33473 0.07671 0.37823 0.0
H1174 H 0.23051 0.09947 0.39306 0.0
C1175 C 0.24548 0.22343 0.39354 0.0
C1176 C 0.30554 0.15698 0.40481 0.0
C1177 C 0.23639 0.2564 0.39687 0.0
C1178 C 0.32168 0.02507 0.37676 0.0
C1179 C 0.31712 0.05775 0.38255 0.0
C1180 C 0.25164 0.11504 0.39662 0.0
C1181 C 0.26814 0.20711 0.4048 0.0
C1182 C 0.27364 0.17066 0.40288 0.0
C1183 C 0.28954 0.06604 0.39315 0.0
C1184 C 0.2837 0.10151 0.39792 0.0
H1185 H 0.28558 0.27162 0.43306 0.0
H1186 H 0.30132 0.21358 0.4274 0.0
H1187 H 0.2216 0.15884 0.39799 0.0
H1188 H 0.2536 -0.0114 0.39606 0.0
H1189 H 0.24553 0.04626 0.40642 0.0
C1190 C 0.95782 0.98636 0.14167 0.0
C1191 C 0.94801 0.00143 0.15773 0.0
C1192 C -0.01336 -0.00305 0.13292 0.0
C1193 C 0.05303 0.06209 0.13206 0.0
H1194 H 0.10877 0.98693 0.11907 0.0
C1195 C 0.19549 0.06976 0.12862 0.0
C1196 C 0.21231 0.05162 0.11537 0.0
C1197 C 0.16107 0.06702 0.13041 0.0
C1198 C 0.09334 0.00825 0.12225 0.0
H1199 H 0.9591 0.04065 0.17677 0.0
H1200 H 0.01026 0.05879 0.16174 0.0
H1201 H 0.05155 0.97703 0.12821 0.0
H1202 H 0.20654 0.01722 0.09325 0.0
H1203 H 0.14595 0.01212 0.09646 0.0
H1204 H 0.09556 0.09313 0.12672 0.0
C1205 C -0.00457 0.03911 0.15571 0.0
C1206 C 0.06047 0.00262 0.1275 0.0
C1207 C 0.96626 0.02869 0.16437 0.0
C1208 C 0.19408 0.0312 0.10366 0.0
C1209 C 0.15952 0.02833 0.10551 0.0
C1210 C 0.08601 0.06773 0.12684 0.0
C1211 C 0.00649 0.02255 0.14022 0.0
C1212 C 0.04011 0.02939 0.13278 0.0
C1213 C 0.14273 0.046 0.11902 0.0
C1214 C 0.10668 0.04077 0.12224 0.0
H1215 H 0.94384 0.96552 0.13616 0.0
H1216 H -0.00596 0.98424 0.12079 0.0
H1217 H 0.03783 0.08326 0.13581 0.0
H1218 H 0.209 0.08576 0.1378 0.0
H1219 H 0.14897 0.08053 0.14113 0.0
C1220 C 0.2005 0.96533 0.89204 0.0
C1221 C 0.17311 0.97568 0.88189 0.0
C1222 C 0.20326 0.93178 0.89723 0.0
C1223 C 0.17593 0.84818 0.88325 0.0
H1224 H 0.20392 0.82036 0.93045 0.0
C1225 C 0.22595 0.71726 0.89949 0.0
C1226 C 0.21684 0.70271 0.91583 0.0
C1227 C 0.21572 0.74957 0.89528 0.0
C1228 C 0.19567 0.8278 0.91728 0.0
H1229 H 0.12662 0.95968 0.86975 0.0
H1230 H 0.13139 0.90166 0.87883 0.0
H1231 H 0.19704 0.87995 0.92399 0.0
H1232 H 0.18852 0.70945 0.9402 0.0
H1233 H 0.17061 0.76628 0.93284 0.0
H1234 H 0.17488 0.79619 0.87646 0.0
C1235 C 0.15095 0.91907 0.88257 0.0
C1236 C 0.19217 0.86185 0.91354 0.0
C1237 C 0.14818 0.95235 0.87745 0.0
C1238 C 0.19575 0.72016 0.92748 0.0
C1239 C 0.18581 0.75271 0.92336 0.0
C1240 C 0.17965 0.81423 0.88695 0.0
C1241 C 0.17871 0.90828 0.89227 0.0
C1242 C 0.18237 0.87233 0.89646 0.0
C1243 C 0.19645 0.76798 0.90743 0.0
C1244 C 0.18974 0.80372 0.90396 0.0
H1245 H 0.21994 0.98293 0.89567 0.0
H1246 H 0.22501 0.92404 0.90466 0.0
H1247 H 0.16862 0.85557 0.86991 0.0
H1248 H 0.24226 0.70427 0.89031 0.0
H1249 H 0.22442 0.76078 0.88294 0.0
C1250 C 0.50857 0.95237 0.65811 0.0
C1251 C 0.51645 0.95674 0.67621 0.0
C1252 C 0.47605 0.94403 0.65309 0.0
C1253 C 0.39331 0.96258 0.66656 0.0
H1254 H 0.36386 0.89083 0.63552 0.0
C1255 C 0.25485 0.94552 0.64671 0.0
C1256 C 0.24851 0.93238 0.62972 0.0
C1257 C 0.28757 0.94715 0.6531 0.0
C1258 C 0.37171 0.91138 0.64396 0.0
H1259 H 0.49748 0.95354 0.70331 0.0
H1260 H 0.44058 0.93972 0.69445 0.0
H1261 H 0.42188 0.89328 0.64505 0.0
H1262 H 0.27071 0.91224 0.60567 0.0
H1263 H 0.3276 0.91707 0.6162 0.0
H1264 H 0.34395 0.9819 0.66485 0.0
C1265 C 0.45949 0.94264 0.68422 0.0
C1266 C 0.40486 0.91248 0.64952 0.0
C1267 C 0.49203 0.95037 0.68925 0.0
C1268 C 0.27513 0.92229 0.61891 0.0
C1269 C 0.3077 0.92464 0.62506 0.0
C1270 C 0.36034 0.96193 0.66072 0.0
C1271 C 0.45107 0.94049 0.66612 0.0
C1272 C 0.41585 0.93811 0.66082 0.0
C1273 C 0.31437 0.93625 0.64241 0.0
C1274 C 0.34914 0.93644 0.64923 0.0
H1275 H 0.52699 0.95723 0.64784 0.0
H1276 H 0.46995 0.94247 0.63903 0.0
H1277 H 0.4015 0.98281 0.67516 0.0
H1278 H 0.23449 0.95297 0.65532 0.0
H1279 H 0.29167 0.95593 0.66659 0.0
C1280 C 0.26843 0.08922 0.05062 0.0
C1281 C 0.25152 0.10543 0.06462 0.0
C1282 C 0.25396 0.08596 0.03375 0.0
C1283 C 0.19119 0.12098 1.00347 0.0
H1284 H 0.19781 0.03464 0.9801 0.0
C1285 C 0.167 0.10112 0.92779 0.0
C1286 C 0.14976 0.07205 0.92245 0.0
C1287 C 0.17625 0.10587 0.94564 0.0
C1288 C 0.19545 0.05884 0.98647 0.0
H1289 H 0.20617 0.13161 0.07155 0.0
H1290 H 0.18104 0.12636 0.04184 0.0
H1291 H 0.21993 0.04194 1.01018 0.0
H1292 H 0.1284 0.02533 0.9319 0.0
H1293 H 0.14482 0.03351 0.96303 0.0
H1294 H 0.16706 0.13795 0.9796 0.0
C1295 C 0.20558 0.11609 0.04408 0.0
C1296 C 0.20843 0.06312 1.00367 0.0
C1297 C 0.21997 0.11907 0.0611 0.0
C1298 C 0.14159 0.04805 0.9355 0.0
C1299 C 0.15118 0.05264 0.95334 0.0
C1300 C 0.17852 0.11679 0.98616 0.0
C1301 C 0.22223 0.09902 1.03028 0.0
C1302 C 0.20675 0.09431 1.01233 0.0
C1303 C 0.16883 0.08152 0.95862 0.0
C1304 C 0.18069 0.08571 0.97739 0.0
H1305 H 0.29276 0.07837 0.05273 0.0
H1306 H 0.26772 0.07315 1.02337 0.0
H1307 H 0.18961 0.14535 1.00973 0.0
H1308 H 0.17367 0.1202 0.91814 0.0
H1309 H 0.19009 0.12824 0.94917 0.0
C1310 C 0.619 0.41624 0.17543 0.0
C1311 C 0.64714 0.39703 0.1711 0.0
C1312 C 0.61315 0.4267 0.19296 0.0
C1313 C 0.63642 0.41226 0.24045 0.0
H1314 H 0.60419 0.50287 0.24623 0.0
C1315 C 0.59848 0.46629 0.30973 0.0
C1316 C 0.60797 0.49955 0.31337 0.0
C1317 C 0.6021 0.45285 0.29252 0.0
C1318 C 0.61338 0.47757 0.24492 0.0
H1319 H 0.69077 0.37303 0.18215 0.0
H1320 H 0.68071 0.39158 0.21283 0.0
H1321 H 0.61365 0.4808 0.21643 0.0
H1322 H 0.62832 0.5448 0.3015 0.0
H1323 H 0.63474 0.52148 0.27175 0.0
H1324 H 0.63691 0.40948 0.26905 0.0
C1325 C 0.66295 0.39828 0.20259 0.0
C1326 C 0.61843 0.4647 0.22776 0.0
C1327 C 0.66878 0.38768 0.18497 0.0
C1328 C 0.62059 0.51914 0.29926 0.0
C1329 C 0.62416 0.50576 0.2821 0.0
C1330 C 0.63131 0.42516 0.25767 0.0
C1331 C 0.63532 0.41845 0.20677 0.0
C1332 C 0.63001 0.43185 0.22523 0.0
C1333 C 0.6152 0.47235 0.27847 0.0
C1334 C 0.61982 0.45807 0.26015 0.0
H1335 H 0.60153 0.42369 0.16519 0.0
H1336 H 0.5912 0.44149 0.19567 0.0
H1337 H 0.6451 0.38679 0.23906 0.0
H1338 H 0.58872 0.45039 0.32024 0.0
H1339 H 0.59451 0.42718 0.29021 0.0
C1340 C 0.23755 0.85221 0.55684 0.0
C1341 C 0.21517 0.87644 0.56317 0.0
C1342 C 0.25204 0.85537 0.53985 0.0
C1343 C 0.28042 0.91611 0.50755 0.0
H1344 H 0.26605 0.84923 0.47091 0.0
C1345 C 0.32256 0.93883 0.43433 0.0
C1346 C 0.32948 0.91123 0.42338 0.0
C1347 C 0.31023 0.93417 0.4517 0.0
C1348 C 0.27114 0.86792 0.481 0.0
H1349 H 0.19081 0.92316 0.55665 0.0
H1350 H 0.21697 0.92911 0.52731 0.0
H1351 H 0.24215 0.8411 0.50051 0.0
H1352 H 0.33042 0.85716 0.42226 0.0
H1353 H 0.31129 0.84887 0.45277 0.0
H1354 H 0.31044 0.94247 0.48857 0.0
C1355 C 0.22282 0.90745 0.53539 0.0
C1356 C 0.25708 0.86326 0.49797 0.0
C1357 C 0.2077 0.90388 0.55214 0.0
C1358 C 0.32509 0.87893 0.43038 0.0
C1359 C 0.31365 0.87423 0.44787 0.0
C1360 C 0.2952 0.92043 0.49073 0.0
C1361 C 0.24514 0.88328 0.52908 0.0
C1362 C 0.26129 0.88746 0.51134 0.0
C1363 C 0.30525 0.90174 0.45875 0.0
C1364 C 0.29056 0.89657 0.47706 0.0
H1365 H 0.24385 0.83082 0.56502 0.0
H1366 H 0.26921 0.8364 0.53527 0.0
H1367 H 0.28423 0.93505 0.5177 0.0
H1368 H 0.32521 0.96404 0.42919 0.0
H1369 H 0.30363 0.95615 0.45932 0.0
C1370 C 0.84181 0.55015 0.6737 0.0
C1371 C 0.81416 0.56981 0.66908 0.0
C1372 C 0.84594 0.53839 0.69114 0.0
C1373 C 0.81994 0.55186 0.73813 0.0
H1374 H 0.85042 0.46069 0.74418 0.0
C1375 C 0.85676 0.49821 0.80736 0.0
C1376 C 0.84631 0.46536 0.81132 0.0
C1377 C 0.85331 0.51126 0.79009 0.0
C1378 C 0.84171 0.48614 0.74277 0.0
H1379 H 0.76943 0.59293 0.67949 0.0
H1380 H 0.77665 0.57233 0.70999 0.0
H1381 H 0.84257 0.48306 0.71424 0.0
H1382 H 0.8244 0.42041 0.79998 0.0
H1383 H 0.81842 0.44311 0.76999 0.0
H1384 H 0.81862 0.5547 0.76671 0.0
C1385 C 0.79527 0.5662 0.70005 0.0
C1386 C 0.83754 0.49913 0.72556 0.0
C1387 C 0.79107 0.57794 0.68253 0.0
C1388 C 0.83284 0.44576 0.79747 0.0
C1389 C 0.82951 0.45877 0.7802 0.0
C1390 C 0.82426 0.5389 0.75537 0.0
C1391 C 0.8226 0.54594 0.70454 0.0
C1392 C 0.82665 0.53218 0.72298 0.0
C1393 C 0.83946 0.49179 0.77629 0.0
C1394 C 0.83518 0.50583 0.75793 0.0
H1395 H 0.86027 0.54344 0.66379 0.0
H1396 H 0.8676 0.52339 0.69414 0.0
H1397 H 0.81176 0.57748 0.73667 0.0
H1398 H 0.86723 0.51408 0.81767 0.0
H1399 H 0.86168 0.53662 0.78754 0.0
C1400 C 0.8259 0.92424 0.12789 0.0
C1401 C 0.81419 0.90542 0.14251 0.0
C1402 C 0.81416 0.91793 0.11059 0.0
C1403 C 0.74329 0.87856 0.08637 0.0
H1404 H 0.80181 0.88751 0.04542 0.0
C1405 C 0.693 0.88296 1.01403 0.0
C1406 C 0.71175 0.86795 1.00034 0.0
C1407 C 0.70563 0.88549 0.03139 0.0
C1408 C 0.78514 0.88453 0.05669 0.0
H1409 H 0.78132 0.86458 0.15018 0.0
H1410 H 0.76135 0.85327 0.12008 0.0
H1411 H 0.82412 0.89499 0.07538 0.0
H1412 H 0.75837 0.84313 0.99443 0.0
H1413 H 0.78015 0.84703 1.02475 0.0
H1414 H 0.70443 0.8675 0.06771 0.0
C1415 C 0.77915 0.87339 0.122 0.0
C1416 C 0.79788 0.88928 0.07392 0.0
C1417 C 0.79082 0.87976 0.1393 0.0
C1418 C 0.74323 0.85494 1.00459 0.0
C1419 C 0.75586 0.85742 1.02198 0.0
C1420 C 0.73056 0.87375 0.06915 0.0
C1421 C 0.79045 0.89255 0.1074 0.0
C1422 C 0.77711 0.88655 0.08902 0.0
C1423 C 0.73736 0.87299 0.03561 0.0
C1424 C 0.75124 0.87687 0.05404 0.0
H1425 H 0.84381 0.94428 0.12979 0.0
H1426 H 0.82316 0.93354 0.09978 0.0
H1427 H 0.72637 0.87659 0.0976 0.0
H1428 H 0.66871 0.8934 1.0113 0.0
H1429 H 0.69079 0.89805 0.0414 0.0
C1430 C 0.29029 0.5752 0.87361 0.0
C1431 C 0.31237 0.56606 0.88731 0.0
C1432 C 0.29503 0.56359 0.85608 0.0
C1433 C 0.33667 0.49548 0.83088 0.0
H1434 H 0.32181 0.55196 0.78963 0.0
C1435 C 0.33419 0.44248 0.75899 0.0
C1436 C 0.34876 0.4616 0.74524 0.0
C1437 C 0.3305 0.45566 0.77619 0.0
C1438 C 0.32633 0.53591 0.801 0.0
H1439 H 0.35728 0.53802 0.89305 0.0
H1440 H 0.36553 0.51825 0.86275 0.0
H1441 H 0.31378 0.57466 0.81964 0.0
H1442 H 0.37128 0.50967 0.73902 0.0
H1443 H 0.36512 0.53254 0.7691 0.0
H1444 H 0.34961 0.45688 0.81236 0.0
C1445 C 0.34421 0.5339 0.86552 0.0
C1446 C 0.32133 0.54883 0.81822 0.0
C1447 C 0.33954 0.54549 0.88295 0.0
C1448 C 0.36001 0.49415 0.74926 0.0
C1449 C 0.35619 0.50741 0.76649 0.0
C1450 C 0.34154 0.48256 0.8137 0.0
C1451 C 0.32189 0.54247 0.85185 0.0
C1452 C 0.32655 0.52881 0.83341 0.0
C1453 C 0.3412 0.4884 0.78018 0.0
C1454 C 0.33646 0.50255 0.7985 0.0
H1455 H 0.26907 0.59094 0.87645 0.0
H1456 H 0.27719 0.57053 0.84593 0.0
H1457 H 0.34055 0.47914 0.8422 0.0
H1458 H 0.32509 0.41737 0.75644 0.0
H1459 H 0.31849 0.44037 0.78629 0.0
C1460 C 0.66362 0.0883 0.63494 0.0
C1461 C 0.64549 0.0596 0.64007 0.0
C1462 C 0.67569 0.09196 0.61754 0.0
C1463 C 0.66676 0.06207 0.57096 0.0
H1464 H 0.75636 0.09779 0.56618 0.0
C1465 C 0.72254 0.10264 0.50256 0.0
C1466 C 0.75609 0.09483 0.49913 0.0
C1467 C 0.70864 0.09763 0.51955 0.0
C1468 C 0.73141 0.08755 0.56722 0.0
H1469 H 0.62507 0.01261 0.6305 0.0
H1470 H 0.64617 0.01908 0.59992 0.0
H1471 H 0.73248 0.08959 0.59576 0.0
H1472 H 0.8013 0.07574 0.51109 0.0
H1473 H 0.77715 0.0671 0.54065 0.0
H1474 H 0.66591 0.05979 0.54234 0.0
C1475 C 0.65092 0.03882 0.6095 0.0
C1476 C 0.71752 0.08318 0.58423 0.0
C1477 C 0.63882 0.03509 0.62704 0.0
C1478 C 0.77544 0.08221 0.51322 0.0
C1479 C 0.76158 0.07734 0.53023 0.0
C1480 C 0.68062 0.06663 0.5539 0.0
C1481 C 0.67006 0.06707 0.60462 0.0
C1482 C 0.68493 0.07058 0.58637 0.0
C1483 C 0.72793 0.08481 0.53363 0.0
C1484 C 0.71313 0.07953 0.55179 0.0
H1485 H 0.66907 0.10795 0.64447 0.0
H1486 H 0.68963 0.1144 0.61422 0.0
H1487 H 0.64157 0.05247 0.57207 0.0
H1488 H 0.7068 0.11235 0.49207 0.0
H1489 H 0.6828 0.10413 0.5217 0.0
C1490 C 0.15737 0.39133 0.37293 0.0
C1491 C 0.15189 0.41213 0.38779 0.0
C1492 C 0.15132 0.40298 0.35558 0.0
C1493 C 0.15018 0.47935 0.32913 0.0
H1494 H 0.09408 0.43077 0.29587 0.0
C1495 C 0.11784 0.53635 0.26063 0.0
C1496 C 0.1143 0.51486 0.24592 0.0
C1497 C 0.12035 0.52349 0.27795 0.0
C1498 C 0.11029 0.44449 0.30482 0.0
H1499 H 0.13591 0.46158 0.39599 0.0
H1500 H 0.12627 0.48205 0.36574 0.0
H1501 H 0.1036 0.40822 0.32571 0.0
H1502 H 0.11047 0.46294 0.23786 0.0
H1503 H 0.11626 0.44036 0.26787 0.0
H1504 H 0.15823 0.51493 0.3083 0.0
C1505 C 0.13488 0.45664 0.36755 0.0
C1506 C 0.11556 0.43155 0.32198 0.0
C1507 C 0.14025 0.44481 0.38488 0.0
C1508 C 0.11281 0.4802 0.24895 0.0
C1509 C 0.11602 0.46726 0.26624 0.0
C1510 C 0.14548 0.49197 0.3119 0.0
C1511 C 0.14038 0.4359 0.35272 0.0
C1512 C 0.13536 0.44899 0.33434 0.0
C1513 C 0.12019 0.48869 0.28104 0.0
C1514 C 0.12523 0.47492 0.29947 0.0
H1515 H 0.16626 0.36602 0.37471 0.0
H1516 H 0.15589 0.38652 0.34436 0.0
H1517 H 0.16591 0.49312 0.33832 0.0
H1518 H 0.1188 0.56322 0.25875 0.0
H1519 H 0.12255 0.541 0.28891 0.0
C1520 C 0.64866 0.53312 0.43273 0.0
C1521 C 0.64165 0.56009 0.42136 0.0
C1522 C 0.6616 0.53864 0.44986 0.0
C1523 C 0.70158 0.60583 0.47814 0.0
H1524 H 0.68695 0.5407 0.51573 0.0
C1525 C 0.73368 0.62268 0.55436 0.0
C1526 C 0.75675 0.59898 0.5605 0.0
C1527 C 0.71929 0.61947 0.53736 0.0
C1528 C 0.69117 0.55909 0.50533 0.0
H1529 H 0.64163 0.6141 0.41928 0.0
H1530 H 0.66211 0.62396 0.44939 0.0
H1531 H 0.66083 0.53242 0.48671 0.0
H1532 H 0.7825 0.55316 0.55362 0.0
H1533 H 0.75649 0.54708 0.5243 0.0
H1534 H 0.73089 0.63302 0.49735 0.0
C1535 C 0.65915 0.59835 0.44497 0.0
C1536 C 0.67648 0.55425 0.48857 0.0
C1537 C 0.64701 0.59276 0.42768 0.0
C1538 C 0.76506 0.57204 0.54927 0.0
C1539 C 0.75006 0.56839 0.53252 0.0
C1540 C 0.71557 0.61103 0.49507 0.0
C1541 C 0.66716 0.57139 0.45631 0.0
C1542 C 0.68174 0.57731 0.47456 0.0
C1543 C 0.72702 0.59202 0.52641 0.0
C1544 C 0.71081 0.58752 0.50875 0.0
H1545 H 0.64523 0.50761 0.42816 0.0
H1546 H 0.66799 0.51703 0.4578 0.0
H1547 H 0.70705 0.62394 0.4678 0.0
H1548 H 0.72674 0.64368 0.56268 0.0
H1549 H 0.70155 0.63798 0.53292 0.0
C1550 C 0.12969 0.92405 0.67661 0.0
C1551 C 0.1574 0.90432 0.67209 0.0
C1552 C 0.12517 0.93576 0.69403 0.0
C1553 C 0.14921 0.92262 0.74119 0.0
H1554 H 0.12123 0.01481 0.74644 0.0
C1555 C 0.11103 0.98004 0.80973 0.0
C1556 C 0.12331 0.01234 0.81348 0.0
C1557 C 0.11455 0.96612 0.79262 0.0
C1558 C 0.12917 -0.01094 0.74526 0.0
H1559 H 0.20174 0.88093 0.68269 0.0
H1560 H 0.19374 0.9014 0.71324 0.0
H1561 H 0.12964 -0.00839 0.71672 0.0
H1562 H 0.14843 0.05543 0.80193 0.0
H1563 H 0.15428 0.03135 0.77226 0.0
H1564 H 0.14903 0.92032 0.76983 0.0
C1565 C 0.17545 0.90765 0.7032 0.0
C1566 C 0.13371 0.97562 0.72817 0.0
C1567 C 0.18009 0.89598 0.68566 0.0
C1568 C 0.13857 0.03054 0.79958 0.0
C1569 C 0.14184 0.01675 0.7825 0.0
C1570 C 0.14442 0.93603 0.75833 0.0
C1571 C 0.14814 0.9281 0.70753 0.0
C1572 C 0.14377 0.94222 0.72588 0.0
C1573 C 0.13014 0.98425 0.77879 0.0
C1574 C 0.13443 0.96949 0.76059 0.0
H1575 H 0.1115 0.9309 0.66662 0.0
H1576 H 0.10355 0.95091 0.69691 0.0
H1577 H 0.15675 0.89676 0.73994 0.0
H1578 H 0.09928 0.96521 0.8201 0.0
H1579 H 0.10491 0.94117 0.7902 0.0
C1580 C 0.82508 0.43515 0.93357 0.0
C1581 C 0.81978 0.40998 0.92073 0.0
C1582 C 0.81393 0.43092 0.95121 0.0
C1583 C 0.78673 0.36626 0.98403 0.0
H1584 H 0.7421 0.44028 1.00717 0.0
C1585 C 0.74363 0.36185 0.0583 0.0
C1586 C 0.71247 0.37594 0.06234 0.0
C1587 C 0.75774 0.3655 0.04125 0.0
C1588 C 0.75435 0.41928 1.00088 0.0
H1589 H 0.79916 0.36027 0.91664 0.0
H1590 H 0.77992 0.35297 0.94722 0.0
H1591 H 0.76545 0.44768 0.97731 0.0
H1592 H 0.6716 0.40457 0.05133 0.0
H1593 H 0.69606 0.41074 1.02173 0.0
H1594 H 0.77514 0.3377 1.00749 0.0
C1595 C 0.79282 0.37594 0.94373 0.0
C1596 C 0.76811 0.42366 0.98382 0.0
C1597 C 0.80372 0.38024 0.92611 0.0
C1598 C 0.69564 0.39337 0.04878 0.0
C1599 C 0.70981 0.39718 0.0318 0.0
C1600 C 0.77315 0.36195 1.00114 0.0
C1601 C 0.79745 0.40132 0.95651 0.0
C1602 C 0.78426 0.39713 0.97508 0.0
C1603 C 0.74118 0.38352 1.02781 0.0
C1604 C 0.75651 0.38831 1.00975 0.0
H1605 H 0.83728 0.45841 0.92993 0.0
H1606 H 0.81824 0.45087 0.96073 0.0
H1607 H 0.79924 0.34535 0.9778 0.0
H1608 H 0.75739 0.34833 0.06839 0.0
H1609 H 0.78203 0.35484 0.03873 0.0
C1610 C 0.34601 0.94206 0.29914 0.0
C1611 C 0.34988 0.96392 0.31368 0.0
C1612 C 0.34263 0.95456 0.28176 0.0
C1613 C 0.35226 0.03338 0.25466 0.0
H1614 H 0.29787 0.98414 0.22086 0.0
C1615 C 0.30709 0.08633 0.1862 0.0
C1616 C 0.31363 0.06571 0.17141 0.0
C1617 C 0.31221 0.07456 0.20363 0.0
C1618 C 0.31321 -0.0019 0.23016 0.0
H1619 H 0.35284 0.01613 0.32136 0.0
H1620 H 0.34549 0.03793 0.29139 0.0
H1621 H 0.30518 0.96241 0.25097 0.0
H1622 H 0.33031 0.01638 0.16338 0.0
H1623 H 0.33832 -0.00427 0.19372 0.0
H1624 H 0.35904 0.06969 0.23381 0.0
C1625 C 0.34626 0.01107 0.29313 0.0
C1626 C 0.3177 0.98553 0.24743 0.0
C1627 C 0.3503 -0.00145 0.31044 0.0
C1628 C 0.32521 0.03304 0.17445 0.0
C1629 C 0.32962 0.02109 0.19183 0.0
C1630 C 0.34719 0.04626 0.23749 0.0
C1631 C 0.34232 -0.01068 0.27847 0.0
C1632 C 0.33748 0.00284 0.25997 0.0
C1633 C 0.32321 0.04169 0.2066 0.0
C1634 C 0.3278 0.02864 0.22503 0.0
H1635 H 0.34578 0.91523 0.30118 0.0
H1636 H 0.34044 0.93683 0.2709 0.0
H1637 H 0.36822 0.04727 0.26367 0.0
H1638 H 0.29819 0.11161 0.18432 0.0
H1639 H 0.30697 0.09092 0.2148 0.0
C1640 C 0.30525 0.37484 0.63108 0.0
C1641 C 0.3215 0.40472 0.63601 0.0
C1642 C 0.29489 0.36945 0.6135 0.0
C1643 C 0.30509 0.39906 0.56658 0.0
H1644 H 0.21905 0.35606 0.56059 0.0
C1645 C 0.25166 0.36358 0.49656 0.0
C1646 C 0.21754 0.36967 0.49393 0.0
C1647 C 0.26582 0.36635 0.51366 0.0
C1648 C 0.24305 0.36827 0.56196 0.0
H1649 H 0.34021 0.45212 0.62599 0.0
H1650 H 0.32166 0.44292 0.59525 0.0
H1651 H 0.2409 0.36511 0.59041 0.0
H1652 H 0.1716 0.38307 0.50738 0.0
H1653 H 0.19606 0.388 0.53684 0.0
H1654 H 0.30659 0.40304 0.538 0.0
C1655 C 0.31729 0.42343 0.60503 0.0
C1656 C 0.25584 0.37311 0.57913 0.0
C1657 C 0.32783 0.42878 0.6227 0.0
C1658 C 0.19792 0.37801 0.50884 0.0
C1659 C 0.21198 0.38069 0.52584 0.0
C1660 C 0.29224 0.3942 0.54933 0.0
C1661 C 0.30024 0.39383 0.60024 0.0
C1662 C 0.28702 0.38862 0.58174 0.0
C1663 C 0.24616 0.37512 0.52853 0.0
C1664 C 0.2609 0.37892 0.54679 0.0
H1665 H 0.30023 0.3555 0.64087 0.0
H1666 H 0.28257 0.34603 0.61031 0.0
H1667 H 0.3293 0.41081 0.56801 0.0
H1668 H 0.26759 0.35738 0.48537 0.0
H1669 H 0.29216 0.36157 0.51522 0.0
C1670 C 0.84927 0.06554 0.38488 0.0
C1671 C 0.81877 0.08 0.38986 0.0
C1672 C 0.85527 0.05587 0.36722 0.0
C1673 C 0.82547 0.0648 0.32025 0.0
H1674 H 0.8714 0.98057 0.31405 0.0
C1675 C 0.86109 0.01166 0.24998 0.0
C1676 C 0.85575 0.97713 0.24756 0.0
C1677 C 0.8584 0.02615 0.26705 0.0
C1678 C 0.85841 0.00408 0.31548 0.0
H1679 H 0.77091 0.0963 0.37987 0.0
H1680 H 0.78123 0.07899 0.34901 0.0
H1681 H 0.86203 0.00219 0.34392 0.0
H1682 H 0.84391 0.93082 0.26138 0.0
H1683 H 0.8392 0.9558 0.29074 0.0
H1684 H 0.82105 0.06596 0.29168 0.0
C1685 C 0.80072 0.07552 0.35879 0.0
C1686 C 0.85336 0.01676 0.33268 0.0
C1687 C 0.79474 0.08537 0.37653 0.0
C1688 C 0.84832 0.95747 0.26265 0.0
C1689 C 0.84578 0.97183 0.27961 0.0
C1690 C 0.83057 0.05207 0.30297 0.0
C1691 C 0.83092 0.06012 0.35394 0.0
C1692 C 0.83669 0.04724 0.33538 0.0
C1693 C 0.85056 0.00639 0.2821 0.0
C1694 C 0.84685 0.02134 0.30035 0.0
H1695 H 0.86856 0.06128 0.39469 0.0
H1696 H 0.87911 0.04483 0.364 0.0
H1697 H 0.81282 0.08848 0.32174 0.0
H1698 H 0.86661 0.02762 0.23866 0.0
H1699 H 0.86253 0.05281 0.26847 0.0
C1700 C 0.14257 0.55021 0.12417 0.0
C1701 C 0.15132 0.57264 0.13788 0.0
C1702 C 0.1546 0.55488 0.10673 0.0
C1703 C 0.22316 0.59656 0.08181 0.0
H1704 H 0.1678 0.57985 0.04038 0.0
C1705 C 0.27718 0.58943 1.01016 0.0
C1706 C 0.2586 0.60338 0.99613 0.0
C1707 C 0.26385 0.58713 1.02741 0.0
C1708 C 0.18354 0.5849 0.0518 0.0
H1709 H 0.17915 0.61806 0.14376 0.0
H1710 H 0.19973 0.62621 0.11352 0.0
H1711 H 0.14436 0.57307 0.0703 0.0
H1712 H 0.21144 0.6264 0.98946 0.0
H1713 H 0.18833 0.62259 1.01958 0.0
H1714 H 0.26223 0.60866 0.06338 0.0
C1715 C 0.18398 0.60471 0.11625 0.0
C1716 C 0.17019 0.58062 0.06897 0.0
C1717 C 0.17194 0.60012 0.13362 0.0
C1718 C 0.22653 0.61555 0.99991 0.0
C1719 C 0.21313 0.61309 1.01717 0.0
C1720 C 0.23652 0.60068 0.06467 0.0
C1721 C 0.17577 0.58202 0.10258 0.0
C1722 C 0.18981 0.58644 0.08422 0.0
C1723 C 0.23151 0.59859 0.03113 0.0
C1724 C 0.21694 0.59488 0.04941 0.0
H1725 H 0.12683 0.52873 0.12693 0.0
H1726 H 0.14795 0.53673 0.09659 0.0
H1727 H 0.23916 0.6009 0.09321 0.0
H1728 H 0.30191 0.57971 1.0078 0.0
H1729 H 0.27864 0.57551 0.03775 0.0
C1730 C 0.68609 0.90845 0.88087 0.0
C1731 C 0.65841 0.90017 0.89155 0.0
C1732 C 0.68168 0.92115 0.86359 0.0
C1733 C 0.62872 0.92074 0.82498 0.0
H1734 H 0.65941 0.011 0.81525 0.0
C1735 C 0.60129 0.98429 0.75699 0.0
C1736 C 0.62415 0.00794 0.75035 0.0
C1737 C 0.60453 0.97154 0.77435 0.0
C1738 C 0.65122 0.98551 0.81748 0.0
H1739 H 0.6045 0.89779 0.89232 0.0
H1740 H 0.59692 0.91864 0.8618 0.0
H1741 H 0.6683 0.98658 0.84463 0.0
H1742 H 0.66873 0.03631 0.75663 0.0
H1743 H 0.67556 0.013 0.78629 0.0
H1744 H 0.61304 0.9186 0.79777 0.0
C1745 C 0.62193 0.91582 0.86696 0.0
C1746 C 0.65614 0.97167 0.83444 0.0
C1747 C 0.62629 0.90398 0.88441 0.0
C1748 C 0.65039 0.01847 0.76143 0.0
C1749 C 0.65414 0.00513 0.77859 0.0
C1750 C 0.62452 0.93421 0.80785 0.0
C1751 C 0.64956 0.92496 0.85649 0.0
C1752 C 0.64483 0.93924 0.83837 0.0
C1753 C 0.63127 0.98144 0.7854 0.0
C1754 C 0.63558 0.96694 0.80379 0.0
H1755 H 0.71113 0.90608 0.88606 0.0
H1756 H 0.70336 0.92801 0.85575 0.0
H1757 H 0.61991 0.89557 0.82769 0.0
H1758 H 0.58069 0.97581 0.7488 0.0
H1759 H 0.58583 0.95405 0.77906 0.0
loop_
_geom_bond_atom_site_label_1
_geom_bond_atom_site_label_2
_geom_bond_distance
_geom_bond_site_symmetry_2
_ccdc_geom_bond_type
Dy0 O4 2.398 . S
Dy0 O5 2.491 . S
Dy0 O6 2.403 . S
Dy0 O7 2.664 . S
Dy0 O11 2.326 . S
Dy0 O15 2.310 . S
Dy0 O16 2.351 . S
C1 O12 1.185 . S
C1 O13 1.355 . S
C2 O4 1.185 . S
C2 O5 1.355 . S
Dy3 O7 2.310 . S
Dy3 O10 2.351 . S
Dy3 O12 2.398 . S
Dy3 O13 2.491 . S
Dy3 O14 2.403 . S
Dy3 O15 2.664 . S
Dy3 O17 2.326 . S
O4 Dy0 2.398 . S
O4 C2 1.185 . S
O5 Dy0 2.491 . S
O5 C2 1.355 . S
O6 Dy0 2.403 . S
O6 C8 1.254 . S
O7 Dy0 2.664 . S
O7 Dy3 2.310 . S
O7 C8 1.268 . S
C8 O6 1.254 . S
C8 O7 1.268 . S
C9 O14 1.254 . S
C9 O15 1.268 . S
O10 Dy3 2.351 . S
O10 C18 1.249 . S
O11 Dy0 2.326 . S
O11 C18 1.267 . S
O12 C1 1.185 . S
O12 Dy3 2.398 . S
O13 C1 1.355 . S
O13 Dy3 2.491 . S
O14 Dy3 2.403 . S
O14 C9 1.254 . S
O15 Dy0 2.310 . S
O15 Dy3 2.664 . S
O15 C9 1.268 . S
O16 Dy0 2.351 . S
O16 C19 1.249 . S
O17 Dy3 2.326 . S
O17 C19 1.267 . S
C18 O10 1.249 . S
C18 O11 1.267 . S
C19 O16 1.249 . S
C19 O17 1.267 . S
Dy20 O24 2.398 . S
Dy20 O25 2.491 . S
Dy20 O26 2.403 . S
Dy20 O27 2.664 . S
Dy20 O31 2.326 . S
Dy20 O35 2.310 . S
Dy20 O36 2.351 . S
C21 O32 1.185 . S
C21 O33 1.355 . S
C22 O24 1.185 . S
C22 O25 1.355 . S
Dy23 O27 2.310 . S
Dy23 O30 2.351 . S
Dy23 O32 2.398 . S
Dy23 O33 2.491 . S
Dy23 O34 2.403 . S
Dy23 O35 2.664 . S
Dy23 O37 2.326 . S
O24 Dy20 2.398 . S
O24 C22 1.185 . S
O25 Dy20 2.491 . S
O25 C22 1.355 . S
O26 Dy20 2.403 . S
O26 C28 1.254 . S
O27 Dy20 2.664 . S
O27 Dy23 2.310 . S
O27 C28 1.268 . S
C28 O26 1.254 . S
C28 O27 1.268 . S
C29 O34 1.254 . S
C29 O35 1.268 . S
O30 Dy23 2.351 . S
O30 C38 1.249 . S
O31 Dy20 2.326 . S
O31 C38 1.267 . S
O32 C21 1.185 . S
O32 Dy23 2.398 . S
O33 C21 1.355 . S
O33 Dy23 2.491 . S
O34 Dy23 2.403 . S
O34 C29 1.254 . S
O35 Dy20 2.310 . S
O35 Dy23 2.664 . S
O35 C29 1.268 . S
O36 Dy20 2.351 . S
O36 C39 1.249 . S
O37 Dy23 2.326 . S
O37 C39 1.267 . S
C38 O30 1.249 . S
C38 O31 1.267 . S
C39 O36 1.249 . S
C39 O37 1.267 . S
Dy40 O44 2.398 . S
Dy40 O45 2.491 . S
Dy40 O46 2.403 . S
Dy40 O47 2.664 . S
Dy40 O51 2.326 . S
Dy40 O55 2.310 . S
Dy40 O56 2.351 . S
C41 O52 1.185 . S
C41 O53 1.355 . S
C42 O44 1.185 . S
C42 O45 1.355 . S
Dy43 O47 2.310 . S
Dy43 O50 2.351 . S
Dy43 O52 2.398 . S
Dy43 O53 2.491 . S
Dy43 O54 2.403 . S
Dy43 O55 2.664 . S
Dy43 O57 2.326 . S
O44 Dy40 2.398 . S
O44 C42 1.185 . S
O45 Dy40 2.491 . S
O45 C42 1.355 . S
O46 Dy40 2.403 . S
O46 C48 1.254 . S
O47 Dy40 2.664 . S
O47 Dy43 2.310 . S
O47 C48 1.268 . S
C48 O46 1.254 . S
C48 O47 1.268 . S
C49 O54 1.254 . S
C49 O55 1.268 . S
O50 Dy43 2.351 . S
O50 C58 1.249 . S
O51 Dy40 2.326 . S
O51 C58 1.267 . S
O52 C41 1.185 . S
O52 Dy43 2.398 . S
O53 C41 1.355 . S
O53 Dy43 2.491 . S
O54 Dy43 2.403 . S
O54 C49 1.254 . S
O55 Dy40 2.310 . S
O55 Dy43 2.664 . S
O55 C49 1.268 . S
O56 Dy40 2.351 . S
O56 C59 1.249 . S
O57 Dy43 2.326 . S
O57 C59 1.267 . S
C58 O50 1.249 . S
C58 O51 1.267 . S
C59 O56 1.249 . S
C59 O57 1.267 . S
Dy60 O64 2.398 . S
Dy60 O65 2.491 . S
Dy60 O66 2.403 . S
Dy60 O67 2.664 . S
Dy60 O71 2.326 . S
Dy60 O75 2.310 . S
Dy60 O76 2.351 . S
C61 O72 1.185 . S
C61 O73 1.355 . S
C62 O64 1.185 . S
C62 O65 1.355 . S
Dy63 O67 2.310 . S
Dy63 O70 2.351 . S
Dy63 O72 2.398 . S
Dy63 O73 2.491 . S
Dy63 O74 2.403 . S
Dy63 O75 2.664 . S
Dy63 O77 2.326 . S
O64 Dy60 2.398 . S
O64 C62 1.185 . S
O65 Dy60 2.491 . S
O65 C62 1.355 . S
O66 Dy60 2.403 . S
O66 C68 1.254 . S
O67 Dy60 2.664 . S
O67 Dy63 2.310 . S
O67 C68 1.268 . S
C68 O66 1.254 . S
C68 O67 1.268 . S
C69 O74 1.254 . S
C69 O75 1.268 . S
O70 Dy63 2.351 . S
O70 C78 1.249 . S
O71 Dy60 2.326 . S
O71 C78 1.267 . S
O72 C61 1.185 . S
O72 Dy63 2.398 . S
O73 C61 1.355 . S
O73 Dy63 2.491 . S
O74 Dy63 2.403 . S
O74 C69 1.254 . S
O75 Dy60 2.310 . S
O75 Dy63 2.664 . S
O75 C69 1.268 . S
O76 Dy60 2.351 . S
O76 C79 1.249 . S
O77 Dy63 2.326 . S
O77 C79 1.267 . S
C78 O70 1.249 . S
C78 O71 1.267 . S
C79 O76 1.249 . S
C79 O77 1.267 . S
Dy80 O84 2.398 . S
Dy80 O85 2.491 . S
Dy80 O86 2.403 . S
Dy80 O87 2.664 . S
Dy80 O91 2.326 . S
Dy80 O95 2.310 . S
Dy80 O96 2.351 . S
C81 O92 1.185 . S
C81 O93 1.355 . S
C82 O84 1.185 . S
C82 O85 1.355 . S
Dy83 O87 2.310 . S
Dy83 O90 2.351 . S
Dy83 O92 2.398 . S
Dy83 O93 2.491 . S
Dy83 O94 2.403 . S
Dy83 O95 2.664 . S
Dy83 O97 2.326 . S
O84 Dy80 2.398 . S
O84 C82 1.185 . S
O85 Dy80 2.491 . S
O85 C82 1.355 . S
O86 Dy80 2.403 . S
O86 C88 1.254 . S
O87 Dy80 2.664 . S
O87 Dy83 2.310 . S
O87 C88 1.268 . S
C88 O86 1.254 . S
C88 O87 1.268 . S
C89 O94 1.254 . S
C89 O95 1.268 . S
O90 Dy83 2.351 . S
O90 C98 1.249 . S
O91 Dy80 2.326 . S
O91 C98 1.267 . S
O92 C81 1.185 . S
O92 Dy83 2.398 . S
O93 C81 1.355 . S
O93 Dy83 2.491 . S
O94 Dy83 2.403 . S
O94 C89 1.254 . S
O95 Dy80 2.310 . S
O95 Dy83 2.664 . S
O95 C89 1.268 . S
O96 Dy80 2.351 . S
O96 C99 1.249 . S
O97 Dy83 2.326 . S
O97 C99 1.267 . S
C98 O90 1.249 . S
C98 O91 1.267 . S
C99 O96 1.249 . S
C99 O97 1.267 . S
Dy100 O104 2.398 . S
Dy100 O105 2.491 . S
Dy100 O106 2.403 . S
Dy100 O107 2.664 . S
Dy100 O111 2.326 . S
Dy100 O115 2.310 . S
Dy100 O116 2.351 . S
C101 O112 1.185 . S
C101 O113 1.355 . S
C102 O104 1.185 . S
C102 O105 1.355 . S
Dy103 O107 2.310 . S
Dy103 O110 2.351 . S
Dy103 O112 2.398 . S
Dy103 O113 2.491 . S
Dy103 O114 2.403 . S
Dy103 O115 2.664 . S
Dy103 O117 2.326 . S
O104 Dy100 2.398 . S
O104 C102 1.185 . S
O105 Dy100 2.491 . S
O105 C102 1.355 . S
O106 Dy100 2.403 . S
O106 C108 1.254 . S
O107 Dy100 2.664 . S
O107 Dy103 2.310 . S
O107 C108 1.268 . S
C108 O106 1.254 . S
C108 O107 1.268 . S
C109 O114 1.254 . S
C109 O115 1.268 . S
O110 Dy103 2.351 . S
O110 C118 1.249 . S
O111 Dy100 2.326 . S
O111 C118 1.267 . S
O112 C101 1.185 . S
O112 Dy103 2.398 . S
O113 C101 1.355 . S
O113 Dy103 2.491 . S
O114 Dy103 2.403 . S
O114 C109 1.254 . S
O115 Dy100 2.310 . S
O115 Dy103 2.664 . S
O115 C109 1.268 . S
O116 Dy100 2.351 . S
O116 C119 1.249 . S
O117 Dy103 2.326 . S
O117 C119 1.267 . S
C118 O110 1.249 . S
C118 O111 1.267 . S
C119 O116 1.249 . S
C119 O117 1.267 . S
Dy120 O124 2.398 . S
Dy120 O125 2.491 . S
Dy120 O126 2.403 . S
Dy120 O127 2.664 . S
Dy120 O131 2.326 . S
Dy120 O135 2.310 . S
Dy120 O136 2.351 . S
C121 O132 1.185 . S
C121 O133 1.355 . S
C122 O124 1.185 . S
C122 O125 1.355 . S
Dy123 O127 2.310 . S
Dy123 O130 2.351 . S
Dy123 O132 2.398 . S
Dy123 O133 2.491 . S
Dy123 O134 2.403 . S
Dy123 O135 2.664 . S
Dy123 O137 2.326 . S
O124 Dy120 2.398 . S
O124 C122 1.185 . S
O125 Dy120 2.491 . S
O125 C122 1.355 . S
O126 Dy120 2.403 . S
O126 C128 1.254 . S
O127 Dy120 2.664 . S
O127 Dy123 2.310 . S
O127 C128 1.268 . S
C128 O126 1.254 . S
C128 O127 1.268 . S
C129 O134 1.254 . S
C129 O135 1.268 . S
O130 Dy123 2.351 . S
O130 C138 1.249 . S
O131 Dy120 2.326 . S
O131 C138 1.267 . S
O132 C121 1.185 . S
O132 Dy123 2.398 . S
O133 C121 1.355 . S
O133 Dy123 2.491 . S
O134 Dy123 2.403 . S
O134 C129 1.254 . S
O135 Dy120 2.310 . S
O135 Dy123 2.664 . S
O135 C129 1.268 . S
O136 Dy120 2.351 . S
O136 C139 1.249 . S
O137 Dy123 2.326 . S
O137 C139 1.267 . S
C138 O130 1.249 . S
C138 O131 1.267 . S
C139 O136 1.249 . S
C139 O137 1.267 . S
Dy140 O144 2.398 . S
Dy140 O145 2.491 . S
Dy140 O146 2.403 . S
Dy140 O147 2.664 . S
Dy140 O151 2.326 . S
Dy140 O155 2.310 . S
Dy140 O156 2.351 . S
C141 O152 1.185 . S
C141 O153 1.355 . S
C142 O144 1.185 . S
C142 O145 1.355 . S
Dy143 O147 2.310 . S
Dy143 O150 2.351 . S
Dy143 O152 2.398 . S
Dy143 O153 2.491 . S
Dy143 O154 2.403 . S
Dy143 O155 2.664 . S
Dy143 O157 2.326 . S
O144 Dy140 2.398 . S
O144 C142 1.185 . S
O145 Dy140 2.491 . S
O145 C142 1.355 . S
O146 Dy140 2.403 . S
O146 C148 1.254 . S
O147 Dy140 2.664 . S
O147 Dy143 2.310 . S
O147 C148 1.268 . S
C148 O146 1.254 . S
C148 O147 1.268 . S
C149 O154 1.254 . S
C149 O155 1.268 . S
O150 Dy143 2.351 . S
O150 C158 1.249 . S
O151 Dy140 2.326 . S
O151 C158 1.267 . S
O152 C141 1.185 . S
O152 Dy143 2.398 . S
O153 C141 1.355 . S
O153 Dy143 2.491 . S
O154 Dy143 2.403 . S
O154 C149 1.254 . S
O155 Dy140 2.310 . S
O155 Dy143 2.664 . S
O155 C149 1.268 . S
O156 Dy140 2.351 . S
O156 C159 1.249 . S
O157 Dy143 2.326 . S
O157 C159 1.267 . S
C158 O150 1.249 . S
C158 O151 1.267 . S
C159 O156 1.249 . S
C159 O157 1.267 . S
Dy160 O164 2.398 . S
Dy160 O165 2.491 . S
Dy160 O166 2.403 . S
Dy160 O167 2.664 . S
Dy160 O171 2.326 . S
Dy160 O175 2.310 . S
Dy160 O176 2.351 . S
C161 O172 1.185 . S
C161 O173 1.355 . S
C162 O164 1.185 . S
C162 O165 1.355 . S
Dy163 O167 2.310 . S
Dy163 O170 2.351 . S
Dy163 O172 2.398 . S
Dy163 O173 2.491 . S
Dy163 O174 2.403 . S
Dy163 O175 2.664 . S
Dy163 O177 2.326 . S
O164 Dy160 2.398 . S
O164 C162 1.185 . S
O165 Dy160 2.491 . S
O165 C162 1.355 . S
O166 Dy160 2.403 . S
O166 C168 1.254 . S
O167 Dy160 2.664 . S
O167 Dy163 2.310 . S
O167 C168 1.268 . S
C168 O166 1.254 . S
C168 O167 1.268 . S
C169 O174 1.254 . S
C169 O175 1.268 . S
O170 Dy163 2.351 . S
O170 C178 1.249 . S
O171 Dy160 2.326 . S
O171 C178 1.267 . S
O172 C161 1.185 . S
O172 Dy163 2.398 . S
O173 C161 1.355 . S
O173 Dy163 2.491 . S
O174 Dy163 2.403 . S
O174 C169 1.254 . S
O175 Dy160 2.310 . S
O175 Dy163 2.664 . S
O175 C169 1.268 . S
O176 Dy160 2.351 . S
O176 C179 1.249 . S
O177 Dy163 2.326 . S
O177 C179 1.267 . S
C178 O170 1.249 . S
C178 O171 1.267 . S
C179 O176 1.249 . S
C179 O177 1.267 . S
Dy180 O184 2.398 . S
Dy180 O185 2.480 1_545 S
Dy180 O186 2.403 . S
Dy180 O187 2.664 . S
Dy180 O191 2.326 . S
Dy180 O195 2.310 . S
Dy180 O196 2.351 . S
C181 O192 1.185 . S
C181 O193 1.355 . S
C182 O184 1.185 . S
C182 O185 1.349 1_545 S
Dy183 O187 2.310 . S
Dy183 O190 2.351 . S
Dy183 O192 2.398 . S
Dy183 O193 2.491 . S
Dy183 O194 2.403 . S
Dy183 O195 2.664 . S
Dy183 O197 2.326 . S
O184 Dy180 2.398 . S
O184 C182 1.185 . S
O185 Dy180 2.480 1_565 S
O185 C182 1.349 1_565 S
O186 Dy180 2.403 . S
O186 C188 1.254 . S
O187 Dy180 2.664 . S
O187 Dy183 2.310 . S
O187 C188 1.268 . S
C188 O186 1.254 . S
C188 O187 1.268 . S
C189 O194 1.254 . S
C189 O195 1.268 . S
O190 Dy183 2.351 . S
O190 C198 1.249 . S
O191 Dy180 2.326 . S
O191 C198 1.267 . S
O192 C181 1.185 . S
O192 Dy183 2.398 . S
O193 C181 1.355 . S
O193 Dy183 2.491 . S
O194 Dy183 2.403 . S
O194 C189 1.254 . S
O195 Dy180 2.310 . S
O195 Dy183 2.664 . S
O195 C189 1.268 . S
O196 Dy180 2.351 . S
O196 C199 1.249 . S
O197 Dy183 2.326 . S
O197 C199 1.267 . S
C198 O190 1.249 . S
C198 O191 1.267 . S
C199 O196 1.249 . S
C199 O197 1.267 . S
Dy200 O204 2.398 . S
Dy200 O205 2.491 . S
Dy200 O206 2.403 . S
Dy200 O207 2.664 . S
Dy200 O211 2.326 . S
Dy200 O215 2.310 . S
Dy200 O216 2.351 . S
C201 O212 1.185 . S
C201 O213 1.355 . S
C202 O204 1.185 . S
C202 O205 1.355 . S
Dy203 O207 2.310 . S
Dy203 O210 2.351 . S
Dy203 O212 2.398 . S
Dy203 O213 2.491 . S
Dy203 O214 2.403 . S
Dy203 O215 2.664 . S
Dy203 O217 2.326 . S
O204 Dy200 2.398 . S
O204 C202 1.185 . S
O205 Dy200 2.491 . S
O205 C202 1.355 . S
O206 Dy200 2.403 . S
O206 C208 1.254 . S
O207 Dy200 2.664 . S
O207 Dy203 2.310 . S
O207 C208 1.268 . S
C208 O206 1.254 . S
C208 O207 1.268 . S
C209 O214 1.254 . S
C209 O215 1.268 . S
O210 Dy203 2.351 . S
O210 C218 1.249 . S
O211 Dy200 2.326 . S
O211 C218 1.267 . S
O212 C201 1.185 . S
O212 Dy203 2.398 . S
O213 C201 1.355 . S
O213 Dy203 2.491 . S
O214 Dy203 2.403 . S
O214 C209 1.254 . S
O215 Dy200 2.310 . S
O215 Dy203 2.664 . S
O215 C209 1.268 . S
O216 Dy200 2.351 . S
O216 C219 1.249 . S
O217 Dy203 2.326 . S
O217 C219 1.267 . S
C218 O210 1.249 . S
C218 O211 1.267 . S
C219 O216 1.249 . S
C219 O217 1.267 . S
Dy220 O224 2.398 . S
Dy220 O225 2.480 1_565 S
Dy220 O226 2.403 . S
Dy220 O227 2.664 . S
Dy220 O231 2.326 . S
Dy220 O235 2.310 . S
Dy220 O236 2.351 . S
C221 O232 1.185 . S
C221 O233 1.355 . S
C222 O224 1.185 . S
C222 O225 1.349 1_565 S
Dy223 O227 2.310 . S
Dy223 O230 2.351 . S
Dy223 O232 2.398 . S
Dy223 O233 2.491 . S
Dy223 O234 2.403 . S
Dy223 O235 2.664 . S
Dy223 O237 2.326 . S
O224 Dy220 2.398 . S
O224 C222 1.185 . S
O225 Dy220 2.480 1_545 S
O225 C222 1.349 1_545 S
O226 Dy220 2.403 . S
O226 C228 1.254 . S
O227 Dy220 2.664 . S
O227 Dy223 2.310 . S
O227 C228 1.268 . S
C228 O226 1.254 . S
C228 O227 1.268 . S
C229 O234 1.254 . S
C229 O235 1.268 . S
O230 Dy223 2.351 . S
O230 C238 1.249 . S
O231 Dy220 2.326 . S
O231 C238 1.267 . S
O232 C221 1.185 . S
O232 Dy223 2.398 . S
O233 C221 1.355 . S
O233 Dy223 2.491 . S
O234 Dy223 2.403 . S
O234 C229 1.254 . S
O235 Dy220 2.310 . S
O235 Dy223 2.664 . S
O235 C229 1.268 . S
O236 Dy220 2.351 . S
O236 C239 1.249 . S
O237 Dy223 2.326 . S
O237 C239 1.267 . S
C238 O230 1.249 . S
C238 O231 1.267 . S
C239 O236 1.249 . S
C239 O237 1.267 . S
Dy240 O244 2.398 . S
Dy240 O245 2.491 . S
Dy240 O246 2.403 . S
Dy240 O247 2.664 . S
Dy240 O251 2.326 . S
Dy240 O255 2.310 . S
Dy240 O256 2.351 . S
C241 O252 1.185 . S
C241 O253 1.355 . S
C242 O244 1.185 . S
C242 O245 1.355 . S
Dy243 O247 2.310 . S
Dy243 O250 2.351 . S
Dy243 O252 2.398 . S
Dy243 O253 2.491 . S
Dy243 O254 2.403 . S
Dy243 O255 2.664 . S
Dy243 O257 2.326 . S
O244 Dy240 2.398 . S
O244 C242 1.185 . S
O245 Dy240 2.491 . S
O245 C242 1.355 . S
O246 Dy240 2.403 . S
O246 C248 1.254 . S
O247 Dy240 2.664 . S
O247 Dy243 2.310 . S
O247 C248 1.268 . S
C248 O246 1.254 . S
C248 O247 1.268 . S
C249 O254 1.254 . S
C249 O255 1.268 . S
O250 Dy243 2.351 . S
O250 C258 1.249 . S
O251 Dy240 2.326 . S
O251 C258 1.267 . S
O252 C241 1.185 . S
O252 Dy243 2.398 . S
O253 C241 1.355 . S
O253 Dy243 2.491 . S
O254 Dy243 2.403 . S
O254 C249 1.254 . S
O255 Dy240 2.310 . S
O255 Dy243 2.664 . S
O255 C249 1.268 . S
O256 Dy240 2.351 . S
O256 C259 1.249 . S
O257 Dy243 2.326 . S
O257 C259 1.267 . S
C258 O250 1.249 . S
C258 O251 1.267 . S
C259 O256 1.249 . S
C259 O257 1.267 . S
Dy260 O264 2.398 . S
Dy260 O265 2.491 . S
Dy260 O266 2.403 . S
Dy260 O267 2.664 . S
Dy260 O271 2.326 . S
Dy260 O275 2.310 . S
Dy260 O276 2.351 . S
C261 O272 1.185 . S
C261 O273 1.349 1_565 S
C262 O264 1.185 . S
C262 O265 1.355 . S
Dy263 O267 2.310 . S
Dy263 O270 2.351 . S
Dy263 O272 2.398 . S
Dy263 O273 2.480 1_565 S
Dy263 O274 2.403 . S
Dy263 O275 2.664 . S
Dy263 O277 2.326 . S
O264 Dy260 2.398 . S
O264 C262 1.185 . S
O265 Dy260 2.491 . S
O265 C262 1.355 . S
O266 Dy260 2.403 . S
O266 C268 1.254 . S
O267 Dy260 2.664 . S
O267 Dy263 2.310 . S
O267 C268 1.268 . S
C268 O266 1.254 . S
C268 O267 1.268 . S
C269 O274 1.254 . S
C269 O275 1.268 . S
O270 Dy263 2.351 . S
O270 C278 1.249 . S
O271 Dy260 2.326 . S
O271 C278 1.267 . S
O272 C261 1.185 . S
O272 Dy263 2.398 . S
O273 C261 1.349 1_545 S
O273 Dy263 2.480 1_545 S
O274 Dy263 2.403 . S
O274 C269 1.254 . S
O275 Dy260 2.310 . S
O275 Dy263 2.664 . S
O275 C269 1.268 . S
O276 Dy260 2.351 . S
O276 C279 1.249 . S
O277 Dy263 2.326 . S
O277 C279 1.267 . S
C278 O270 1.249 . S
C278 O271 1.267 . S
C279 O276 1.249 . S
C279 O277 1.267 . S
Dy280 O284 2.398 . S
Dy280 O285 2.491 . S
Dy280 O286 2.403 . S
Dy280 O287 2.664 . S
Dy280 O291 2.326 . S
Dy280 O295 2.310 . S
Dy280 O296 2.351 . S
C281 O292 1.185 . S
C281 O293 1.355 . S
C282 O284 1.185 . S
C282 O285 1.355 . S
Dy283 O287 2.310 . S
Dy283 O290 2.351 . S
Dy283 O292 2.398 . S
Dy283 O293 2.491 . S
Dy283 O294 2.403 . S
Dy283 O295 2.664 . S
Dy283 O297 2.326 . S
O284 Dy280 2.398 . S
O284 C282 1.185 . S
O285 Dy280 2.491 . S
O285 C282 1.355 . S
O286 Dy280 2.403 . S
O286 C288 1.254 . S
O287 Dy280 2.664 . S
O287 Dy283 2.310 . S
O287 C288 1.268 . S
C288 O286 1.254 . S
C288 O287 1.268 . S
C289 O294 1.254 . S
C289 O295 1.268 . S
O290 Dy283 2.351 . S
O290 C298 1.249 . S
O291 Dy280 2.326 . S
O291 C298 1.267 . S
O292 C281 1.185 . S
O292 Dy283 2.398 . S
O293 C281 1.355 . S
O293 Dy283 2.491 . S
O294 Dy283 2.403 . S
O294 C289 1.254 . S
O295 Dy280 2.310 . S
O295 Dy283 2.664 . S
O295 C289 1.268 . S
O296 Dy280 2.351 . S
O296 C299 1.249 . S
O297 Dy283 2.326 . S
O297 C299 1.267 . S
C298 O290 1.249 . S
C298 O291 1.267 . S
C299 O296 1.249 . S
C299 O297 1.267 . S
Dy300 O304 2.398 . S
Dy300 O305 2.491 . S
Dy300 O306 2.403 . S
Dy300 O307 2.664 . S
Dy300 O311 2.326 . S
Dy300 O315 2.310 . S
Dy300 O316 2.351 . S
C301 O312 1.185 . S
C301 O313 1.349 1_545 S
C302 O304 1.185 . S
C302 O305 1.355 . S
Dy303 O307 2.310 . S
Dy303 O310 2.351 . S
Dy303 O312 2.398 . S
Dy303 O313 2.480 1_545 S
Dy303 O314 2.403 . S
Dy303 O315 2.664 . S
Dy303 O317 2.326 . S
O304 Dy300 2.398 . S
O304 C302 1.185 . S
O305 Dy300 2.491 . S
O305 C302 1.355 . S
O306 Dy300 2.403 . S
O306 C308 1.254 . S
O307 Dy300 2.664 . S
O307 Dy303 2.310 . S
O307 C308 1.268 . S
C308 O306 1.254 . S
C308 O307 1.268 . S
C309 O314 1.254 . S
C309 O315 1.268 . S
O310 Dy303 2.351 . S
O310 C318 1.249 . S
O311 Dy300 2.326 . S
O311 C318 1.267 . S
O312 C301 1.185 . S
O312 Dy303 2.398 . S
O313 C301 1.349 1_565 S
O313 Dy303 2.480 1_565 S
O314 Dy303 2.403 . S
O314 C309 1.254 . S
O315 Dy300 2.310 . S
O315 Dy303 2.664 . S
O315 C309 1.268 . S
O316 Dy300 2.351 . S
O316 C319 1.249 . S
O317 Dy303 2.326 . S
O317 C319 1.267 . S
C318 O310 1.249 . S
C318 O311 1.267 . S
C319 O316 1.249 . S
C319 O317 1.267 . S
C320 C321 1.349 . S
C320 C322 1.327 . S
C320 H345 0.950 . S
C321 C320 1.349 . S
C321 C337 1.349 . S
C322 C320 1.327 . S
C322 C341 1.429 . S
C322 H346 0.950 . S
C323 C340 1.574 . S
C323 C342 1.368 . S
C323 H347 0.949 . S
H324 C328 0.949 . S
C325 C326 1.349 . S
C325 C327 1.327 . S
C325 H348 0.950 . S
C326 C325 1.349 . S
C326 C338 1.349 . S
C327 C325 1.327 . S
C327 C343 1.429 . S
C327 H349 0.950 . S
C328 H324 0.949 . S
C328 C336 1.574 . S
C328 C344 1.368 . S
H329 C337 0.950 . S
H330 C335 0.950 . S
H331 C336 0.949 . S
H332 C338 0.950 . S
H333 C339 0.950 . S
H334 C340 0.949 . S
C335 H330 0.950 . S
C335 C337 1.327 . S
C335 C341 1.429 . S
C336 C328 1.574 . S
C336 H331 0.949 . S
C336 C342 1.368 . S
C337 C321 1.349 . S
C337 H329 0.950 . S
C337 C335 1.327 . S
C338 C326 1.349 . S
C338 H332 0.950 . S
C338 C339 1.327 . S
C339 H333 0.950 . S
C339 C338 1.327 . S
C339 C343 1.429 . S
C340 C323 1.574 . S
C340 H334 0.949 . S
C340 C344 1.368 . S
C341 C322 1.429 . S
C341 C335 1.429 . S
C341 C342 1.523 . S
C342 C323 1.368 . S
C342 C336 1.368 . S
C342 C341 1.523 . S
C343 C327 1.429 . S
C343 C339 1.429 . S
C343 C344 1.523 . S
C344 C328 1.368 . S
C344 C340 1.368 . S
C344 C343 1.523 . S
H345 C320 0.950 . S
H346 C322 0.950 . S
H347 C323 0.949 . S
H348 C325 0.950 . S
H349 C327 0.950 . S
C350 C351 1.349 . S
C350 C352 1.327 . S
C350 H375 0.950 . S
C351 C350 1.349 . S
C351 C367 1.349 . S
C352 C350 1.327 . S
C352 C371 1.429 . S
C352 H376 0.950 . S
C353 C370 1.574 . S
C353 C372 1.368 . S
C353 H377 0.949 . S
H354 C358 0.949 . S
C355 C356 1.349 . S
C355 C357 1.327 . S
C355 H378 0.950 . S
C356 C355 1.349 . S
C356 C368 1.349 . S
C357 C355 1.327 . S
C357 C373 1.429 . S
C357 H379 0.950 . S
C358 H354 0.949 . S
C358 C366 1.574 . S
C358 C374 1.368 . S
H359 C367 0.950 . S
H360 C365 0.950 . S
H361 C366 0.949 . S
H362 C368 0.950 . S
H363 C369 0.950 . S
H364 C370 0.949 . S
C365 H360 0.950 . S
C365 C367 1.327 . S
C365 C371 1.429 . S
C366 C358 1.574 . S
C366 H361 0.949 . S
C366 C372 1.368 . S
C367 C351 1.349 . S
C367 H359 0.950 . S
C367 C365 1.327 . S
C368 C356 1.349 . S
C368 H362 0.950 . S
C368 C369 1.327 . S
C369 H363 0.950 . S
C369 C368 1.327 . S
C369 C373 1.429 . S
C370 C353 1.574 . S
C370 H364 0.949 . S
C370 C374 1.368 . S
C371 C352 1.429 . S
C371 C365 1.429 . S
C371 C372 1.523 . S
C372 C353 1.368 . S
C372 C366 1.368 . S
C372 C371 1.523 . S
C373 C357 1.429 . S
C373 C369 1.429 . S
C373 C374 1.523 . S
C374 C358 1.368 . S
C374 C370 1.368 . S
C374 C373 1.523 . S
H375 C350 0.950 . S
H376 C352 0.950 . S
H377 C353 0.949 . S
H378 C355 0.950 . S
H379 C357 0.950 . S
C380 C381 1.349 . S
C380 C382 1.327 . S
C380 H405 0.950 . S
C381 C380 1.349 . S
C381 C397 1.349 . S
C382 C380 1.327 . S
C382 C401 1.429 . S
C382 H406 0.950 . S
C383 C400 1.574 1_455 S
C383 C402 1.368 . S
C383 H407 0.949 . S
H384 C388 0.949 . S
C385 C386 1.349 . S
C385 C387 1.327 . S
C385 H408 0.950 . S
C386 C385 1.349 . S
C386 C398 1.349 . S
C387 C385 1.327 . S
C387 C403 1.429 . S
C387 H409 0.950 . S
C388 H384 0.949 . S
C388 C396 1.574 1_655 S
C388 C404 1.368 . S
H389 C397 0.950 . S
H390 C395 0.950 . S
H391 C396 0.949 . S
H392 C398 0.950 . S
H393 C399 0.950 . S
H394 C400 0.949 . S
C395 H390 0.950 . S
C395 C397 1.327 . S
C395 C401 1.429 . S
C396 C388 1.574 1_455 S
C396 H391 0.949 . S
C396 C402 1.368 . S
C397 C381 1.349 . S
C397 H389 0.950 . S
C397 C395 1.327 . S
C398 C386 1.349 . S
C398 H392 0.950 . S
C398 C399 1.327 . S
C399 H393 0.950 . S
C399 C398 1.327 . S
C399 C403 1.429 . S
C400 C383 1.574 1_655 S
C400 H394 0.949 . S
C400 C404 1.368 . S
C401 C382 1.429 . S
C401 C395 1.429 . S
C401 C402 1.523 . S
C402 C383 1.368 . S
C402 C396 1.368 . S
C402 C401 1.523 . S
C403 C387 1.429 . S
C403 C399 1.429 . S
C403 C404 1.523 . S
C404 C388 1.368 . S
C404 C400 1.368 . S
C404 C403 1.523 . S
H405 C380 0.950 . S
H406 C382 0.950 . S
H407 C383 0.949 . S
H408 C385 0.950 . S
H409 C387 0.950 . S
C410 C411 1.349 . S
C410 C412 1.327 . S
C410 H435 0.950 . S
C411 C410 1.349 . S
C411 C427 1.349 . S
C412 C410 1.327 . S
C412 C431 1.429 . S
C412 H436 0.950 . S
C413 C430 1.574 . S
C413 C432 1.368 . S
C413 H437 0.949 . S
H414 C418 0.949 . S
C415 C416 1.349 . S
C415 C417 1.327 . S
C415 H438 0.950 . S
C416 C415 1.349 . S
C416 C428 1.349 . S
C417 C415 1.327 . S
C417 C433 1.429 . S
C417 H439 0.950 . S
C418 H414 0.949 . S
C418 C426 1.574 . S
C418 C434 1.368 . S
H419 C427 0.950 . S
H420 C425 0.950 . S
H421 C426 0.949 . S
H422 C428 0.950 . S
H423 C429 0.950 . S
H424 C430 0.949 . S
C425 H420 0.950 . S
C425 C427 1.327 . S
C425 C431 1.429 . S
C426 C418 1.574 . S
C426 H421 0.949 . S
C426 C432 1.368 1_655 S
C427 C411 1.349 . S
C427 H419 0.950 . S
C427 C425 1.327 . S
C428 C416 1.349 . S
C428 H422 0.950 . S
C428 C429 1.327 . S
C429 H423 0.950 . S
C429 C428 1.327 . S
C429 C433 1.429 . S
C430 C413 1.574 . S
C430 H424 0.949 . S
C430 C434 1.368 1_455 S
C431 C412 1.429 . S
C431 C425 1.429 . S
C431 C432 1.523 . S
C432 C413 1.368 . S
C432 C426 1.368 1_455 S
C432 C431 1.523 . S
C433 C417 1.429 . S
C433 C429 1.429 . S
C433 C434 1.523 . S
C434 C418 1.368 . S
C434 C430 1.368 1_655 S
C434 C433 1.523 . S
H435 C410 0.950 . S
H436 C412 0.950 . S
H437 C413 0.949 . S
H438 C415 0.950 . S
H439 C417 0.950 . S
C440 C441 1.349 . S
C440 C442 1.327 . S
C440 H465 0.950 . S
C441 C440 1.349 . S
C441 C457 1.349 . S
C442 C440 1.327 . S
C442 C461 1.429 . S
C442 H466 0.950 . S
C443 C460 1.574 . S
C443 C462 1.368 . S
C443 H467 0.949 . S
H444 C448 0.949 . S
C445 C446 1.349 . S
C445 C447 1.327 . S
C445 H468 0.950 . S
C446 C445 1.349 . S
C446 C458 1.349 . S
C447 C445 1.327 . S
C447 C463 1.429 . S
C447 H469 0.950 . S
C448 H444 0.949 . S
C448 C456 1.574 . S
C448 C464 1.368 . S
H449 C457 0.950 . S
H450 C455 0.950 . S
H451 C456 0.949 . S
H452 C458 0.950 . S
H453 C459 0.950 . S
H454 C460 0.949 . S
C455 H450 0.950 . S
C455 C457 1.327 . S
C455 C461 1.429 . S
C456 C448 1.574 . S
C456 H451 0.949 . S
C456 C462 1.368 . S
C457 C441 1.349 . S
C457 H449 0.950 . S
C457 C455 1.327 . S
C458 C446 1.349 . S
C458 H452 0.950 . S
C458 C459 1.327 . S
C459 H453 0.950 . S
C459 C458 1.327 . S
C459 C463 1.429 . S
C460 C443 1.574 . S
C460 H454 0.949 . S
C460 C464 1.368 . S
C461 C442 1.429 . S
C461 C455 1.429 . S
C461 C462 1.523 . S
C462 C443 1.368 . S
C462 C456 1.368 . S
C462 C461 1.523 . S
C463 C447 1.429 . S
C463 C459 1.429 . S
C463 C464 1.523 . S
C464 C448 1.368 . S
C464 C460 1.368 . S
C464 C463 1.523 . S
H465 C440 0.950 . S
H466 C442 0.950 . S
H467 C443 0.949 . S
H468 C445 0.950 . S
H469 C447 0.950 . S
C470 C471 1.349 . S
C470 C472 1.327 . S
C470 H495 0.950 . S
C471 C470 1.349 . S
C471 C487 1.349 . S
C472 C470 1.327 . S
C472 C491 1.429 . S
C472 H496 0.950 . S
C473 C490 1.574 . S
C473 C492 1.368 . S
C473 H497 0.949 . S
H474 C478 0.949 . S
C475 C476 1.349 . S
C475 C477 1.327 . S
C475 H498 0.950 . S
C476 C475 1.349 . S
C476 C488 1.349 . S
C477 C475 1.327 . S
C477 C493 1.429 . S
C477 H499 0.950 . S
C478 H474 0.949 . S
C478 C486 1.574 . S
C478 C494 1.368 . S
H479 C487 0.950 . S
H480 C485 0.950 . S
H481 C486 0.949 . S
H482 C488 0.950 . S
H483 C489 0.950 . S
H484 C490 0.949 . S
C485 H480 0.950 . S
C485 C487 1.327 . S
C485 C491 1.429 . S
C486 C478 1.574 . S
C486 H481 0.949 . S
C486 C492 1.368 . S
C487 C471 1.349 . S
C487 H479 0.950 . S
C487 C485 1.327 . S
C488 C476 1.349 . S
C488 H482 0.950 . S
C488 C489 1.327 . S
C489 H483 0.950 . S
C489 C488 1.327 . S
C489 C493 1.429 . S
C490 C473 1.574 . S
C490 H484 0.949 . S
C490 C494 1.368 . S
C491 C472 1.429 . S
C491 C485 1.429 . S
C491 C492 1.523 . S
C492 C473 1.368 . S
C492 C486 1.368 . S
C492 C491 1.523 . S
C493 C477 1.429 . S
C493 C489 1.429 . S
C493 C494 1.523 . S
C494 C478 1.368 . S
C494 C490 1.368 . S
C494 C493 1.523 . S
H495 C470 0.950 . S
H496 C472 0.950 . S
H497 C473 0.949 . S
H498 C475 0.950 . S
H499 C477 0.950 . S
C500 C501 1.349 . S
C500 C502 1.327 . S
C500 H525 0.950 . S
C501 C500 1.349 . S
C501 C517 1.349 . S
C502 C500 1.327 . S
C502 C521 1.429 . S
C502 H526 0.950 . S
C503 C520 1.574 1_455 S
C503 C522 1.368 . S
C503 H527 0.949 . S
H504 C508 0.949 . S
C505 C506 1.349 . S
C505 C507 1.327 . S
C505 H528 0.950 . S
C506 C505 1.349 . S
C506 C518 1.349 . S
C507 C505 1.327 . S
C507 C523 1.429 . S
C507 H529 0.950 . S
C508 H504 0.949 . S
C508 C516 1.574 1_655 S
C508 C524 1.368 . S
H509 C517 0.950 . S
H510 C515 0.950 . S
H511 C516 0.949 . S
H512 C518 0.950 . S
H513 C519 0.950 . S
H514 C520 0.949 . S
C515 H510 0.950 . S
C515 C517 1.327 . S
C515 C521 1.429 . S
C516 C508 1.574 1_455 S
C516 H511 0.949 . S
C516 C522 1.368 . S
C517 C501 1.349 . S
C517 H509 0.950 . S
C517 C515 1.327 . S
C518 C506 1.349 . S
C518 H512 0.950 . S
C518 C519 1.327 . S
C519 H513 0.950 . S
C519 C518 1.327 . S
C519 C523 1.429 . S
C520 C503 1.574 1_655 S
C520 H514 0.949 . S
C520 C524 1.368 . S
C521 C502 1.429 . S
C521 C515 1.429 . S
C521 C522 1.523 . S
C522 C503 1.368 . S
C522 C516 1.368 . S
C522 C521 1.523 . S
C523 C507 1.429 . S
C523 C519 1.429 . S
C523 C524 1.523 . S
C524 C508 1.368 . S
C524 C520 1.368 . S
C524 C523 1.523 . S
H525 C500 0.950 . S
H526 C502 0.950 . S
H527 C503 0.949 . S
H528 C505 0.950 . S
H529 C507 0.950 . S
C530 C531 1.349 . S
C530 C532 1.327 . S
C530 H555 0.950 . S
C531 C530 1.349 . S
C531 C547 1.349 . S
C532 C530 1.327 . S
C532 C551 1.429 . S
C532 H556 0.950 . S
C533 C550 1.574 . S
C533 C552 1.368 . S
C533 H557 0.949 . S
H534 C538 0.949 . S
C535 C536 1.349 . S
C535 C537 1.327 . S
C535 H558 0.950 . S
C536 C535 1.349 . S
C536 C548 1.349 . S
C537 C535 1.327 . S
C537 C553 1.429 . S
C537 H559 0.950 . S
C538 H534 0.949 . S
C538 C546 1.574 . S
C538 C554 1.368 . S
H539 C547 0.950 . S
H540 C545 0.950 . S
H541 C546 0.949 . S
H542 C548 0.950 . S
H543 C549 0.950 . S
H544 C550 0.949 . S
C545 H540 0.950 . S
C545 C547 1.327 . S
C545 C551 1.429 . S
C546 C538 1.574 . S
C546 H541 0.949 . S
C546 C552 1.368 1_655 S
C547 C531 1.349 . S
C547 H539 0.950 . S
C547 C545 1.327 . S
C548 C536 1.349 . S
C548 H542 0.950 . S
C548 C549 1.327 . S
C549 H543 0.950 . S
C549 C548 1.327 . S
C549 C553 1.429 . S
C550 C533 1.574 . S
C550 H544 0.949 . S
C550 C554 1.368 1_455 S
C551 C532 1.429 . S
C551 C545 1.429 . S
C551 C552 1.523 . S
C552 C533 1.368 . S
C552 C546 1.368 1_455 S
C552 C551 1.523 . S
C553 C537 1.429 . S
C553 C549 1.429 . S
C553 C554 1.523 . S
C554 C538 1.368 . S
C554 C550 1.368 1_655 S
C554 C553 1.523 . S
H555 C530 0.950 . S
H556 C532 0.950 . S
H557 C533 0.949 . S
H558 C535 0.950 . S
H559 C537 0.950 . S
C560 C561 1.349 . S
C560 C562 1.327 . S
C560 H585 0.950 . S
C561 C560 1.349 . S
C561 C577 1.378 . S
C562 C560 1.327 . S
C562 C581 1.429 . S
C562 H586 0.950 . S
C563 C580 1.574 1_554 S
C563 C582 1.368 1_565 S
C563 H587 0.949 . S
H564 C568 0.949 . S
C565 C566 1.349 . S
C565 C567 1.327 . S
C565 H588 0.950 . S
C566 C565 1.349 . S
C566 C578 1.378 . S
C567 C565 1.327 . S
C567 C583 1.429 . S
C567 H589 0.950 . S
C568 H564 0.949 . S
C568 C576 1.574 1_556 S
C568 C584 1.368 1_545 S
H569 C577 0.928 1_565 S
H570 C575 0.950 . S
H571 C576 0.949 . S
H572 C578 0.928 1_545 S
H573 C579 0.950 . S
H574 C580 0.949 . S
C575 H570 0.950 . S
C575 C577 1.320 1_565 S
C575 C581 1.429 1_565 S
C576 C568 1.574 1_554 S
C576 H571 0.949 . S
C576 C582 1.368 . S
C577 C561 1.378 . S
C577 H569 0.928 1_545 S
C577 C575 1.320 1_545 S
C578 C566 1.378 . S
C578 H572 0.928 1_565 S
C578 C579 1.320 1_565 S
C579 H573 0.950 . S
C579 C578 1.320 1_545 S
C579 C583 1.429 1_545 S
C580 C563 1.574 1_556 S
C580 H574 0.949 . S
C580 C584 1.368 . S
C581 C562 1.429 . S
C581 C575 1.429 1_545 S
C581 C582 1.523 . S
C582 C563 1.368 1_545 S
C582 C576 1.368 . S
C582 C581 1.523 . S
C583 C567 1.429 . S
C583 C579 1.429 1_565 S
C583 C584 1.523 . S
C584 C568 1.368 1_565 S
C584 C580 1.368 . S
C584 C583 1.523 . S
H585 C560 0.950 . S
H586 C562 0.950 . S
H587 C563 0.949 . S
H588 C565 0.950 . S
H589 C567 0.950 . S
C590 C591 1.349 . S
C590 C592 1.327 . S
C590 H615 0.950 . S
C591 C590 1.349 . S
C591 C607 1.349 . S
C592 C590 1.327 . S
C592 C611 1.429 . S
C592 H616 0.950 . S
C593 C610 1.574 . S
C593 C612 1.368 . S
C593 H617 0.949 . S
H594 C598 0.949 . S
C595 C596 1.349 . S
C595 C597 1.327 . S
C595 H618 0.950 . S
C596 C595 1.349 . S
C596 C608 1.349 . S
C597 C595 1.327 . S
C597 C613 1.429 . S
C597 H619 0.950 . S
C598 H594 0.949 . S
C598 C606 1.574 . S
C598 C614 1.368 . S
H599 C607 0.950 . S
H600 C605 0.950 . S
H601 C606 0.949 . S
H602 C608 0.950 . S
H603 C609 0.950 . S
H604 C610 0.949 . S
C605 H600 0.950 . S
C605 C607 1.327 . S
C605 C611 1.429 . S
C606 C598 1.574 . S
C606 H601 0.949 . S
C606 C612 1.368 . S
C607 C591 1.349 . S
C607 H599 0.950 . S
C607 C605 1.327 . S
C608 C596 1.349 . S
C608 H602 0.950 . S
C608 C609 1.327 . S
C609 H603 0.950 . S
C609 C608 1.327 . S
C609 C613 1.429 . S
C610 C593 1.574 . S
C610 H604 0.949 . S
C610 C614 1.368 . S
C611 C592 1.429 . S
C611 C605 1.429 . S
C611 C612 1.523 . S
C612 C593 1.368 . S
C612 C606 1.368 . S
C612 C611 1.523 . S
C613 C597 1.429 . S
C613 C609 1.429 . S
C613 C614 1.523 . S
C614 C598 1.368 . S
C614 C610 1.368 . S
C614 C613 1.523 . S
H615 C590 0.950 . S
H616 C592 0.950 . S
H617 C593 0.949 . S
H618 C595 0.950 . S
H619 C597 0.950 . S
C620 C621 1.349 . S
C620 C622 1.327 . S
C620 H645 0.950 . S
C621 C620 1.349 . S
C621 C637 1.349 . S
C622 C620 1.327 . S
C622 C641 1.429 . S
C622 H646 0.950 . S
C623 C640 1.574 1_455 S
C623 C642 1.368 1_545 S
C623 H647 0.949 . S
H624 C628 0.949 . S
C625 C626 1.349 . S
C625 C627 1.327 . S
C625 H648 0.950 . S
C626 C625 1.349 . S
C626 C638 1.349 . S
C627 C625 1.327 . S
C627 C643 1.429 . S
C627 H649 0.950 . S
C628 H624 0.949 . S
C628 C636 1.574 1_655 S
C628 C644 1.368 1_565 S
H629 C637 0.950 1_545 S
H630 C635 0.950 . S
H631 C636 0.949 . S
H632 C638 0.950 1_565 S
H633 C639 0.950 . S
H634 C640 0.949 . S
C635 H630 0.950 . S
C635 C637 1.327 1_545 S
C635 C641 1.429 1_545 S
C636 C628 1.574 1_455 S
C636 H631 0.949 . S
C636 C642 1.368 . S
C637 C621 1.349 . S
C637 H629 0.950 1_565 S
C637 C635 1.327 1_565 S
C638 C626 1.349 . S
C638 H632 0.950 1_545 S
C638 C639 1.327 1_545 S
C639 H633 0.950 . S
C639 C638 1.327 1_565 S
C639 C643 1.429 1_565 S
C640 C623 1.574 1_655 S
C640 H634 0.949 . S
C640 C644 1.368 . S
C641 C622 1.429 . S
C641 C635 1.429 1_565 S
C641 C642 1.523 . S
C642 C623 1.368 1_565 S
C642 C636 1.368 . S
C642 C641 1.523 . S
C643 C627 1.429 . S
C643 C639 1.429 1_545 S
C643 C644 1.523 . S
C644 C628 1.368 1_545 S
C644 C640 1.368 . S
C644 C643 1.523 . S
H645 C620 0.950 . S
H646 C622 0.950 . S
H647 C623 0.949 . S
H648 C625 0.950 . S
H649 C627 0.950 . S
C650 C651 1.349 . S
C650 C652 1.327 . S
C650 H675 0.950 . S
C651 C650 1.349 . S
C651 C667 1.349 . S
C652 C650 1.327 . S
C652 C671 1.429 . S
C652 H676 0.950 . S
C653 C670 1.574 . S
C653 C672 1.368 . S
C653 H677 0.949 . S
H654 C658 0.949 . S
C655 C656 1.349 . S
C655 C657 1.327 . S
C655 H678 0.950 . S
C656 C655 1.349 . S
C656 C668 1.349 . S
C657 C655 1.327 . S
C657 C673 1.429 . S
C657 H679 0.950 . S
C658 H654 0.949 . S
C658 C666 1.574 . S
C658 C674 1.368 . S
H659 C667 0.950 . S
H660 C665 0.950 . S
H661 C666 0.949 . S
H662 C668 0.950 . S
H663 C669 0.950 . S
H664 C670 0.949 . S
C665 H660 0.950 . S
C665 C667 1.327 . S
C665 C671 1.429 . S
C666 C658 1.574 . S
C666 H661 0.949 . S
C666 C672 1.368 . S
C667 C651 1.349 . S
C667 H659 0.950 . S
C667 C665 1.327 . S
C668 C656 1.349 . S
C668 H662 0.950 . S
C668 C669 1.327 . S
C669 H663 0.950 . S
C669 C668 1.327 . S
C669 C673 1.429 . S
C670 C653 1.574 . S
C670 H664 0.949 . S
C670 C674 1.368 . S
C671 C652 1.429 . S
C671 C665 1.429 . S
C671 C672 1.523 . S
C672 C653 1.368 . S
C672 C666 1.368 . S
C672 C671 1.523 . S
C673 C657 1.429 . S
C673 C669 1.429 . S
C673 C674 1.523 . S
C674 C658 1.368 . S
C674 C670 1.368 . S
C674 C673 1.523 . S
H675 C650 0.950 . S
H676 C652 0.950 . S
H677 C653 0.949 . S
H678 C655 0.950 . S
H679 C657 0.950 . S
C680 C681 1.349 . S
C680 C682 1.327 . S
C680 H705 0.950 . S
C681 C680 1.349 . S
C681 C697 1.349 . S
C682 C680 1.327 . S
C682 C701 1.429 . S
C682 H706 0.950 . S
C683 C700 1.574 . S
C683 C702 1.368 . S
C683 H707 0.949 . S
H684 C688 0.949 . S
C685 C686 1.349 . S
C685 C687 1.327 . S
C685 H708 0.950 . S
C686 C685 1.349 . S
C686 C698 1.349 . S
C687 C685 1.327 . S
C687 C703 1.429 . S
C687 H709 0.950 . S
C688 H684 0.949 . S
C688 C696 1.574 . S
C688 C704 1.368 . S
H689 C697 0.950 . S
H690 C695 0.950 . S
H691 C696 0.949 . S
H692 C698 0.950 . S
H693 C699 0.950 . S
H694 C700 0.949 . S
C695 H690 0.950 . S
C695 C697 1.327 . S
C695 C701 1.429 . S
C696 C688 1.574 . S
C696 H691 0.949 . S
C696 C702 1.368 . S
C697 C681 1.349 . S
C697 H689 0.950 . S
C697 C695 1.327 . S
C698 C686 1.349 . S
C698 H692 0.950 . S
C698 C699 1.327 . S
C699 H693 0.950 . S
C699 C698 1.327 . S
C699 C703 1.429 . S
C700 C683 1.574 . S
C700 H694 0.949 . S
C700 C704 1.368 . S
C701 C682 1.429 . S
C701 C695 1.429 . S
C701 C702 1.523 . S
C702 C683 1.368 . S
C702 C696 1.368 . S
C702 C701 1.523 . S
C703 C687 1.429 . S
C703 C699 1.429 . S
C703 C704 1.523 . S
C704 C688 1.368 . S
C704 C700 1.368 . S
C704 C703 1.523 . S
H705 C680 0.950 . S
H706 C682 0.950 . S
H707 C683 0.949 . S
H708 C685 0.950 . S
H709 C687 0.950 . S
C710 C711 1.349 . S
C710 C712 1.327 . S
C710 H735 0.950 . S
C711 C710 1.349 . S
C711 C727 1.349 . S
C712 C710 1.327 . S
C712 C731 1.429 . S
C712 H736 0.950 . S
C713 C730 1.574 . S
C713 C732 1.368 . S
C713 H737 0.949 . S
H714 C718 0.949 . S
C715 C716 1.349 . S
C715 C717 1.327 . S
C715 H738 0.950 . S
C716 C715 1.349 . S
C716 C728 1.349 . S
C717 C715 1.327 . S
C717 C733 1.429 . S
C717 H739 0.950 . S
C718 H714 0.949 . S
C718 C726 1.574 . S
C718 C734 1.368 . S
H719 C727 0.950 . S
H720 C725 0.950 . S
H721 C726 0.949 . S
H722 C728 0.950 . S
H723 C729 0.950 . S
H724 C730 0.949 . S
C725 H720 0.950 . S
C725 C727 1.327 . S
C725 C731 1.429 . S
C726 C718 1.574 . S
C726 H721 0.949 . S
C726 C732 1.368 . S
C727 C711 1.349 . S
C727 H719 0.950 . S
C727 C725 1.327 . S
C728 C716 1.349 . S
C728 H722 0.950 . S
C728 C729 1.327 . S
C729 H723 0.950 . S
C729 C728 1.327 . S
C729 C733 1.429 . S
C730 C713 1.574 . S
C730 H724 0.949 . S
C730 C734 1.368 . S
C731 C712 1.429 . S
C731 C725 1.429 . S
C731 C732 1.523 . S
C732 C713 1.368 . S
C732 C726 1.368 . S
C732 C731 1.523 . S
C733 C717 1.429 . S
C733 C729 1.429 . S
C733 C734 1.523 . S
C734 C718 1.368 . S
C734 C730 1.368 . S
C734 C733 1.523 . S
H735 C710 0.950 . S
H736 C712 0.950 . S
H737 C713 0.949 . S
H738 C715 0.950 . S
H739 C717 0.950 . S
C740 C741 1.349 . S
C740 C742 1.327 . S
C740 H765 0.950 . S
C741 C740 1.349 . S
C741 C757 1.349 . S
C742 C740 1.327 . S
C742 C761 1.429 . S
C742 H766 0.950 . S
C743 C760 1.574 1_455 S
C743 C762 1.368 . S
C743 H767 0.949 . S
H744 C748 0.949 . S
C745 C746 1.349 . S
C745 C747 1.327 . S
C745 H768 0.950 . S
C746 C745 1.349 . S
C746 C758 1.349 . S
C747 C745 1.327 . S
C747 C763 1.429 . S
C747 H769 0.950 . S
C748 H744 0.949 . S
C748 C756 1.574 1_655 S
C748 C764 1.368 . S
H749 C757 0.950 . S
H750 C755 0.950 . S
H751 C756 0.949 . S
H752 C758 0.950 . S
H753 C759 0.950 . S
H754 C760 0.949 . S
C755 H750 0.950 . S
C755 C757 1.327 . S
C755 C761 1.429 . S
C756 C748 1.574 1_455 S
C756 H751 0.949 . S
C756 C762 1.368 . S
C757 C741 1.349 . S
C757 H749 0.950 . S
C757 C755 1.327 . S
C758 C746 1.349 . S
C758 H752 0.950 . S
C758 C759 1.327 . S
C759 H753 0.950 . S
C759 C758 1.327 . S
C759 C763 1.429 . S
C760 C743 1.574 1_655 S
C760 H754 0.949 . S
C760 C764 1.368 . S
C761 C742 1.429 . S
C761 C755 1.429 . S
C761 C762 1.523 . S
C762 C743 1.368 . S
C762 C756 1.368 . S
C762 C761 1.523 . S
C763 C747 1.429 . S
C763 C759 1.429 . S
C763 C764 1.523 . S
C764 C748 1.368 . S
C764 C760 1.368 . S
C764 C763 1.523 . S
H765 C740 0.950 . S
H766 C742 0.950 . S
H767 C743 0.949 . S
H768 C745 0.950 . S
H769 C747 0.950 . S
C770 C771 1.349 . S
C770 C772 1.327 . S
C770 H795 0.950 . S
C771 C770 1.349 . S
C771 C787 1.349 . S
C772 C770 1.327 . S
C772 C791 1.429 . S
C772 H796 0.950 . S
C773 C790 1.574 1_554 S
C773 C792 1.368 . S
C773 H797 0.949 . S
H774 C778 0.949 . S
C775 C776 1.349 . S
C775 C777 1.327 . S
C775 H798 0.950 . S
C776 C775 1.349 . S
C776 C788 1.349 . S
C777 C775 1.327 . S
C777 C793 1.429 . S
C777 H799 0.950 . S
C778 H774 0.949 . S
C778 C786 1.574 1_556 S
C778 C794 1.368 . S
H779 C787 0.950 . S
H780 C785 0.950 . S
H781 C786 0.949 . S
H782 C788 0.950 . S
H783 C789 0.950 . S
H784 C790 0.949 . S
C785 H780 0.950 . S
C785 C787 1.327 . S
C785 C791 1.429 . S
C786 C778 1.574 1_554 S
C786 H781 0.949 . S
C786 C792 1.368 . S
C787 C771 1.349 . S
C787 H779 0.950 . S
C787 C785 1.327 . S
C788 C776 1.349 . S
C788 H782 0.950 . S
C788 C789 1.327 . S
C789 H783 0.950 . S
C789 C788 1.327 . S
C789 C793 1.429 . S
C790 C773 1.574 1_556 S
C790 H784 0.949 . S
C790 C794 1.368 . S
C791 C772 1.429 . S
C791 C785 1.429 . S
C791 C792 1.523 . S
C792 C773 1.368 . S
C792 C786 1.368 . S
C792 C791 1.523 . S
C793 C777 1.429 . S
C793 C789 1.429 . S
C793 C794 1.523 . S
C794 C778 1.368 . S
C794 C790 1.368 . S
C794 C793 1.523 . S
H795 C770 0.950 . S
H796 C772 0.950 . S
H797 C773 0.949 . S
H798 C775 0.950 . S
H799 C777 0.950 . S
C800 C801 1.349 . S
C800 C802 1.327 . S
C800 H825 0.950 . S
C801 C800 1.349 . S
C801 C817 1.349 . S
C802 C800 1.327 . S
C802 C821 1.429 . S
C802 H826 0.950 . S
C803 C820 1.574 . S
C803 C822 1.368 . S
C803 H827 0.949 . S
H804 C808 0.949 . S
C805 C806 1.349 . S
C805 C807 1.327 . S
C805 H828 0.950 . S
C806 C805 1.349 . S
C806 C818 1.349 . S
C807 C805 1.327 . S
C807 C823 1.429 . S
C807 H829 0.950 . S
C808 H804 0.949 . S
C808 C816 1.574 . S
C808 C824 1.368 . S
H809 C817 0.950 . S
H810 C815 0.950 . S
H811 C816 0.949 . S
H812 C818 0.950 . S
H813 C819 0.950 . S
H814 C820 0.949 . S
C815 H810 0.950 . S
C815 C817 1.327 . S
C815 C821 1.429 . S
C816 C808 1.574 . S
C816 H811 0.949 . S
C816 C822 1.368 . S
C817 C801 1.349 . S
C817 H809 0.950 . S
C817 C815 1.327 . S
C818 C806 1.349 . S
C818 H812 0.950 . S
C818 C819 1.327 . S
C819 H813 0.950 . S
C819 C818 1.327 . S
C819 C823 1.429 . S
C820 C803 1.574 . S
C820 H814 0.949 . S
C820 C824 1.368 . S
C821 C802 1.429 . S
C821 C815 1.429 . S
C821 C822 1.523 . S
C822 C803 1.368 . S
C822 C816 1.368 . S
C822 C821 1.523 . S
C823 C807 1.429 . S
C823 C819 1.429 . S
C823 C824 1.523 . S
C824 C808 1.368 . S
C824 C820 1.368 . S
C824 C823 1.523 . S
H825 C800 0.950 . S
H826 C802 0.950 . S
H827 C803 0.949 . S
H828 C805 0.950 . S
H829 C807 0.950 . S
C830 C831 1.349 . S
C830 C832 1.327 . S
C830 H855 0.950 . S
C831 C830 1.349 . S
C831 C847 1.349 . S
C832 C830 1.327 . S
C832 C851 1.429 . S
C832 H856 0.950 . S
C833 C850 1.574 . S
C833 C852 1.368 . S
C833 H857 0.949 . S
H834 C838 0.949 . S
C835 C836 1.349 . S
C835 C837 1.327 . S
C835 H858 0.950 . S
C836 C835 1.349 . S
C836 C848 1.349 . S
C837 C835 1.327 . S
C837 C853 1.429 . S
C837 H859 0.950 . S
C838 H834 0.949 . S
C838 C846 1.574 . S
C838 C854 1.368 . S
H839 C847 0.950 . S
H840 C845 0.950 . S
H841 C846 0.949 . S
H842 C848 0.950 . S
H843 C849 0.950 . S
H844 C850 0.949 . S
C845 H840 0.950 . S
C845 C847 1.327 . S
C845 C851 1.429 . S
C846 C838 1.574 . S
C846 H841 0.949 . S
C846 C852 1.368 . S
C847 C831 1.349 . S
C847 H839 0.950 . S
C847 C845 1.327 . S
C848 C836 1.349 . S
C848 H842 0.950 . S
C848 C849 1.327 . S
C849 H843 0.950 . S
C849 C848 1.327 . S
C849 C853 1.429 . S
C850 C833 1.574 . S
C850 H844 0.949 . S
C850 C854 1.368 . S
C851 C832 1.429 . S
C851 C845 1.429 . S
C851 C852 1.523 . S
C852 C833 1.368 . S
C852 C846 1.368 . S
C852 C851 1.523 . S
C853 C837 1.429 . S
C853 C849 1.429 . S
C853 C854 1.523 . S
C854 C838 1.368 . S
C854 C850 1.368 . S
C854 C853 1.523 . S
H855 C830 0.950 . S
H856 C832 0.950 . S
H857 C833 0.949 . S
H858 C835 0.950 . S
H859 C837 0.950 . S
C860 C861 1.349 . S
C860 C862 1.327 . S
C860 H885 0.950 . S
C861 C860 1.349 . S
C861 C877 1.349 . S
C862 C860 1.327 . S
C862 C881 1.429 . S
C862 H886 0.950 . S
C863 C880 1.574 . S
C863 C882 1.368 . S
C863 H887 0.949 . S
H864 C868 0.949 . S
C865 C866 1.349 . S
C865 C867 1.327 . S
C865 H888 0.950 . S
C866 C865 1.349 . S
C866 C878 1.349 . S
C867 C865 1.327 . S
C867 C883 1.429 . S
C867 H889 0.950 . S
C868 H864 0.949 . S
C868 C876 1.574 . S
C868 C884 1.368 . S
H869 C877 0.950 . S
H870 C875 0.950 . S
H871 C876 0.949 . S
H872 C878 0.950 . S
H873 C879 0.950 . S
H874 C880 0.949 . S
C875 H870 0.950 . S
C875 C877 1.327 . S
C875 C881 1.429 . S
C876 C868 1.574 . S
C876 H871 0.949 . S
C876 C882 1.368 . S
C877 C861 1.349 . S
C877 H869 0.950 . S
C877 C875 1.327 . S
C878 C866 1.349 . S
C878 H872 0.950 . S
C878 C879 1.327 . S
C879 H873 0.950 . S
C879 C878 1.327 . S
C879 C883 1.429 . S
C880 C863 1.574 . S
C880 H874 0.949 . S
C880 C884 1.368 . S
C881 C862 1.429 . S
C881 C875 1.429 . S
C881 C882 1.523 . S
C882 C863 1.368 . S
C882 C876 1.368 . S
C882 C881 1.523 . S
C883 C867 1.429 . S
C883 C879 1.429 . S
C883 C884 1.523 . S
C884 C868 1.368 . S
C884 C880 1.368 . S
C884 C883 1.523 . S
H885 C860 0.950 . S
H886 C862 0.950 . S
H887 C863 0.949 . S
H888 C865 0.950 . S
H889 C867 0.950 . S
C890 C891 1.349 . S
C890 C892 1.327 1_655 S
C890 H915 0.950 . S
C891 C890 1.349 . S
C891 C907 1.349 . S
C892 C890 1.327 1_455 S
C892 C911 1.429 . S
C892 H916 0.950 . S
C893 C910 1.574 . S
C893 C912 1.368 . S
C893 H917 0.949 . S
H894 C898 0.949 . S
C895 C896 1.349 . S
C895 C897 1.327 . S
C895 H918 0.950 . S
C896 C895 1.349 . S
C896 C908 1.349 . S
C897 C895 1.327 . S
C897 C913 1.429 . S
C897 H919 0.950 . S
C898 H894 0.949 . S
C898 C906 1.574 . S
C898 C914 1.368 . S
H899 C907 0.950 . S
H900 C905 0.950 . S
H901 C906 0.949 . S
H902 C908 0.950 . S
H903 C909 0.950 . S
H904 C910 0.949 . S
C905 H900 0.950 . S
C905 C907 1.327 1_455 S
C905 C911 1.429 . S
C906 C898 1.574 . S
C906 H901 0.949 . S
C906 C912 1.368 . S
C907 C891 1.349 . S
C907 H899 0.950 . S
C907 C905 1.327 1_655 S
C908 C896 1.349 . S
C908 H902 0.950 . S
C908 C909 1.327 . S
C909 H903 0.950 . S
C909 C908 1.327 . S
C909 C913 1.429 . S
C910 C893 1.574 . S
C910 H904 0.949 . S
C910 C914 1.368 . S
C911 C892 1.429 . S
C911 C905 1.429 . S
C911 C912 1.523 . S
C912 C893 1.368 . S
C912 C906 1.368 . S
C912 C911 1.523 . S
C913 C897 1.429 . S
C913 C909 1.429 . S
C913 C914 1.523 . S
C914 C898 1.368 . S
C914 C910 1.368 . S
C914 C913 1.523 . S
H915 C890 0.950 . S
H916 C892 0.950 . S
H917 C893 0.949 . S
H918 C895 0.950 . S
H919 C897 0.950 . S
C920 C921 1.349 . S
C920 C922 1.327 . S
C920 H945 0.950 . S
C921 C920 1.349 . S
C921 C937 1.349 . S
C922 C920 1.327 . S
C922 C941 1.429 . S
C922 H946 0.950 . S
C923 C940 1.574 . S
C923 C942 1.368 . S
C923 H947 0.949 . S
H924 C928 0.949 . S
C925 C926 1.349 . S
C925 C927 1.327 . S
C925 H948 0.950 . S
C926 C925 1.349 . S
C926 C938 1.349 . S
C927 C925 1.327 . S
C927 C943 1.429 . S
C927 H949 0.950 . S
C928 H924 0.949 . S
C928 C936 1.574 . S
C928 C944 1.368 . S
H929 C937 0.950 . S
H930 C935 0.950 . S
H931 C936 0.949 . S
H932 C938 0.950 . S
H933 C939 0.950 . S
H934 C940 0.949 . S
C935 H930 0.950 . S
C935 C937 1.327 . S
C935 C941 1.429 . S
C936 C928 1.574 . S
C936 H931 0.949 . S
C936 C942 1.368 . S
C937 C921 1.349 . S
C937 H929 0.950 . S
C937 C935 1.327 . S
C938 C926 1.349 . S
C938 H932 0.950 . S
C938 C939 1.327 . S
C939 H933 0.950 . S
C939 C938 1.327 . S
C939 C943 1.429 . S
C940 C923 1.574 . S
C940 H934 0.949 . S
C940 C944 1.368 . S
C941 C922 1.429 . S
C941 C935 1.429 . S
C941 C942 1.523 . S
C942 C923 1.368 . S
C942 C936 1.368 . S
C942 C941 1.523 . S
C943 C927 1.429 . S
C943 C939 1.429 . S
C943 C944 1.523 . S
C944 C928 1.368 . S
C944 C940 1.368 . S
C944 C943 1.523 . S
H945 C920 0.950 . S
H946 C922 0.950 . S
H947 C923 0.949 . S
H948 C925 0.950 . S
H949 C927 0.950 . S
C950 C951 1.349 . S
C950 C952 1.327 . S
C950 H975 0.950 . S
C951 C950 1.349 . S
C951 C967 1.349 . S
C952 C950 1.327 . S
C952 C971 1.429 . S
C952 H976 0.950 . S
C953 C970 1.574 . S
C953 C972 1.368 . S
C953 H977 0.949 . S
H954 C958 0.949 . S
C955 C956 1.349 . S
C955 C957 1.327 . S
C955 H978 0.950 . S
C956 C955 1.349 . S
C956 C968 1.349 . S
C957 C955 1.327 . S
C957 C973 1.429 . S
C957 H979 0.950 . S
C958 H954 0.949 . S
C958 C966 1.574 . S
C958 C974 1.368 . S
H959 C967 0.950 . S
H960 C965 0.950 . S
H961 C966 0.949 . S
H962 C968 0.950 . S
H963 C969 0.950 . S
H964 C970 0.949 . S
C965 H960 0.950 . S
C965 C967 1.327 . S
C965 C971 1.429 . S
C966 C958 1.574 . S
C966 H961 0.949 . S
C966 C972 1.368 . S
C967 C951 1.349 . S
C967 H959 0.950 . S
C967 C965 1.327 . S
C968 C956 1.349 . S
C968 H962 0.950 . S
C968 C969 1.327 . S
C969 H963 0.950 . S
C969 C968 1.327 . S
C969 C973 1.429 . S
C970 C953 1.574 . S
C970 H964 0.949 . S
C970 C974 1.368 . S
C971 C952 1.429 . S
C971 C965 1.429 . S
C971 C972 1.523 . S
C972 C953 1.368 . S
C972 C966 1.368 . S
C972 C971 1.523 . S
C973 C957 1.429 . S
C973 C969 1.429 . S
C973 C974 1.523 . S
C974 C958 1.368 . S
C974 C970 1.368 . S
C974 C973 1.523 . S
H975 C950 0.950 . S
H976 C952 0.950 . S
H977 C953 0.949 . S
H978 C955 0.950 . S
H979 C957 0.950 . S
C980 C981 1.349 . S
C980 C982 1.327 . S
C980 H1005 0.950 . S
C981 C980 1.349 . S
C981 C997 1.349 . S
C982 C980 1.327 . S
C982 C1001 1.429 . S
C982 H1006 0.950 . S
C983 C1000 1.574 . S
C983 C1002 1.368 . S
C983 H1007 0.949 . S
H984 C988 0.949 . S
C985 C986 1.349 . S
C985 C987 1.327 . S
C985 H1008 0.950 . S
C986 C985 1.349 . S
C986 C998 1.349 . S
C987 C985 1.327 . S
C987 C1003 1.429 . S
C987 H1009 0.950 . S
C988 H984 0.949 . S
C988 C996 1.574 . S
C988 C1004 1.368 . S
H989 C997 0.950 . S
H990 C995 0.950 . S
H991 C996 0.949 . S
H992 C998 0.950 . S
H993 C999 0.950 . S
H994 C1000 0.949 . S
C995 H990 0.950 . S
C995 C997 1.327 . S
C995 C1001 1.429 . S
C996 C988 1.574 . S
C996 H991 0.949 . S
C996 C1002 1.368 . S
C997 C981 1.349 . S
C997 H989 0.950 . S
C997 C995 1.327 . S
C998 C986 1.349 . S
C998 H992 0.950 . S
C998 C999 1.327 . S
C999 H993 0.950 . S
C999 C998 1.327 . S
C999 C1003 1.429 . S
C1000 C983 1.574 . S
C1000 H994 0.949 . S
C1000 C1004 1.368 . S
C1001 C982 1.429 . S
C1001 C995 1.429 . S
C1001 C1002 1.523 . S
C1002 C983 1.368 . S
C1002 C996 1.368 . S
C1002 C1001 1.523 . S
C1003 C987 1.429 . S
C1003 C999 1.429 . S
C1003 C1004 1.523 . S
C1004 C988 1.368 . S
C1004 C1000 1.368 . S
C1004 C1003 1.523 . S
H1005 C980 0.950 . S
H1006 C982 0.950 . S
H1007 C983 0.949 . S
H1008 C985 0.950 . S
H1009 C987 0.950 . S
C1010 C1011 1.349 . S
C1010 C1012 1.327 . S
C1010 H1035 0.950 . S
C1011 C1010 1.349 . S
C1011 C1027 1.349 . S
C1012 C1010 1.327 . S
C1012 C1031 1.429 . S
C1012 H1036 0.950 . S
C1013 C1030 1.574 . S
C1013 C1032 1.368 . S
C1013 H1037 0.949 . S
H1014 C1018 0.949 . S
C1015 C1016 1.349 . S
C1015 C1017 1.327 1_455 S
C1015 H1038 0.950 . S
C1016 C1015 1.349 . S
C1016 C1028 1.349 . S
C1017 C1015 1.327 1_655 S
C1017 C1033 1.429 . S
C1017 H1039 0.950 . S
C1018 H1014 0.949 . S
C1018 C1026 1.574 . S
C1018 C1034 1.368 . S
H1019 C1027 0.950 . S
H1020 C1025 0.950 . S
H1021 C1026 0.949 . S
H1022 C1028 0.950 . S
H1023 C1029 0.950 . S
H1024 C1030 0.949 . S
C1025 H1020 0.950 . S
C1025 C1027 1.327 . S
C1025 C1031 1.429 . S
C1026 C1018 1.574 . S
C1026 H1021 0.949 . S
C1026 C1032 1.368 . S
C1027 C1011 1.349 . S
C1027 H1019 0.950 . S
C1027 C1025 1.327 . S
C1028 C1016 1.349 . S
C1028 H1022 0.950 . S
C1028 C1029 1.327 1_455 S
C1029 H1023 0.950 . S
C1029 C1028 1.327 1_655 S
C1029 C1033 1.429 . S
C1030 C1013 1.574 . S
C1030 H1024 0.949 . S
C1030 C1034 1.368 . S
C1031 C1012 1.429 . S
C1031 C1025 1.429 . S
C1031 C1032 1.523 . S
C1032 C1013 1.368 . S
C1032 C1026 1.368 . S
C1032 C1031 1.523 . S
C1033 C1017 1.429 . S
C1033 C1029 1.429 . S
C1033 C1034 1.523 . S
C1034 C1018 1.368 . S
C1034 C1030 1.368 . S
C1034 C1033 1.523 . S
H1035 C1010 0.950 . S
H1036 C1012 0.950 . S
H1037 C1013 0.949 . S
H1038 C1015 0.950 . S
H1039 C1017 0.950 . S
C1040 C1041 1.349 . S
C1040 C1042 1.327 . S
C1040 H1065 0.950 . S
C1041 C1040 1.349 . S
C1041 C1057 1.349 . S
C1042 C1040 1.327 . S
C1042 C1061 1.429 . S
C1042 H1066 0.950 . S
C1043 C1060 1.574 . S
C1043 C1062 1.368 . S
C1043 H1067 0.949 . S
H1044 C1048 0.949 . S
C1045 C1046 1.349 . S
C1045 C1047 1.327 . S
C1045 H1068 0.950 . S
C1046 C1045 1.349 . S
C1046 C1058 1.349 . S
C1047 C1045 1.327 . S
C1047 C1063 1.429 . S
C1047 H1069 0.950 . S
C1048 H1044 0.949 . S
C1048 C1056 1.574 . S
C1048 C1064 1.368 . S
H1049 C1057 0.950 . S
H1050 C1055 0.950 . S
H1051 C1056 0.949 . S
H1052 C1058 0.950 . S
H1053 C1059 0.950 . S
H1054 C1060 0.949 . S
C1055 H1050 0.950 . S
C1055 C1057 1.327 . S
C1055 C1061 1.429 . S
C1056 C1048 1.574 . S
C1056 H1051 0.949 . S
C1056 C1062 1.368 . S
C1057 C1041 1.349 . S
C1057 H1049 0.950 . S
C1057 C1055 1.327 . S
C1058 C1046 1.349 . S
C1058 H1052 0.950 . S
C1058 C1059 1.327 . S
C1059 H1053 0.950 . S
C1059 C1058 1.327 . S
C1059 C1063 1.429 . S
C1060 C1043 1.574 . S
C1060 H1054 0.949 . S
C1060 C1064 1.368 . S
C1061 C1042 1.429 . S
C1061 C1055 1.429 . S
C1061 C1062 1.523 . S
C1062 C1043 1.368 . S
C1062 C1056 1.368 . S
C1062 C1061 1.523 . S
C1063 C1047 1.429 . S
C1063 C1059 1.429 . S
C1063 C1064 1.523 . S
C1064 C1048 1.368 . S
C1064 C1060 1.368 . S
C1064 C1063 1.523 . S
H1065 C1040 0.950 . S
H1066 C1042 0.950 . S
H1067 C1043 0.949 . S
H1068 C1045 0.950 . S
H1069 C1047 0.950 . S
C1070 C1071 1.349 . S
C1070 C1072 1.327 . S
C1070 H1095 0.950 . S
C1071 C1070 1.349 . S
C1071 C1087 1.349 . S
C1072 C1070 1.327 . S
C1072 C1091 1.429 . S
C1072 H1096 0.950 . S
C1073 C1090 1.574 . S
C1073 C1092 1.368 . S
C1073 H1097 0.949 . S
H1074 C1078 0.949 1_545 S
C1075 C1076 1.349 1_565 S
C1075 C1077 1.327 1_455 S
C1075 H1098 0.950 . S
C1076 C1075 1.349 1_545 S
C1076 C1088 1.349 . S
C1077 C1075 1.327 1_655 S
C1077 C1093 1.429 . S
C1077 H1099 0.950 . S
C1078 H1074 0.949 1_565 S
C1078 C1086 1.574 . S
C1078 C1094 1.368 . S
H1079 C1087 0.950 . S
H1080 C1085 0.950 . S
H1081 C1086 0.949 . S
H1082 C1088 0.950 . S
H1083 C1089 0.950 . S
H1084 C1090 0.949 . S
C1085 H1080 0.950 . S
C1085 C1087 1.327 . S
C1085 C1091 1.429 . S
C1086 C1078 1.574 . S
C1086 H1081 0.949 . S
C1086 C1092 1.368 . S
C1087 C1071 1.349 . S
C1087 H1079 0.950 . S
C1087 C1085 1.327 . S
C1088 C1076 1.349 . S
C1088 H1082 0.950 . S
C1088 C1089 1.327 1_455 S
C1089 H1083 0.950 . S
C1089 C1088 1.327 1_655 S
C1089 C1093 1.429 1_545 S
C1090 C1073 1.574 . S
C1090 H1084 0.949 . S
C1090 C1094 1.368 . S
C1091 C1072 1.429 . S
C1091 C1085 1.429 . S
C1091 C1092 1.523 . S
C1092 C1073 1.368 . S
C1092 C1086 1.368 . S
C1092 C1091 1.523 . S
C1093 C1077 1.429 . S
C1093 C1089 1.429 1_565 S
C1093 C1094 1.523 . S
C1094 C1078 1.368 . S
C1094 C1090 1.368 . S
C1094 C1093 1.523 . S
H1095 C1070 0.950 . S
H1096 C1072 0.950 . S
H1097 C1073 0.949 . S
H1098 C1075 0.950 . S
H1099 C1077 0.950 . S
C1100 C1101 1.349 . S
C1100 C1102 1.327 . S
C1100 H1125 0.950 . S
C1101 C1100 1.349 . S
C1101 C1117 1.349 . S
C1102 C1100 1.327 . S
C1102 C1121 1.429 . S
C1102 H1126 0.950 . S
C1103 C1120 1.574 . S
C1103 C1122 1.368 . S
C1103 H1127 0.949 . S
H1104 C1108 0.949 . S
C1105 C1106 1.349 . S
C1105 C1107 1.327 . S
C1105 H1128 0.950 . S
C1106 C1105 1.349 . S
C1106 C1118 1.349 . S
C1107 C1105 1.327 . S
C1107 C1123 1.429 . S
C1107 H1129 0.950 . S
C1108 H1104 0.949 . S
C1108 C1116 1.574 . S
C1108 C1124 1.368 . S
H1109 C1117 0.950 1_565 S
H1110 C1115 0.950 . S
H1111 C1116 0.949 . S
H1112 C1118 0.950 . S
H1113 C1119 0.950 . S
H1114 C1120 0.949 . S
C1115 H1110 0.950 . S
C1115 C1117 1.327 . S
C1115 C1121 1.429 . S
C1116 C1108 1.574 . S
C1116 H1111 0.949 . S
C1116 C1122 1.368 . S
C1117 C1101 1.349 . S
C1117 H1109 0.950 1_545 S
C1117 C1115 1.327 . S
C1118 C1106 1.349 . S
C1118 H1112 0.950 . S
C1118 C1119 1.327 . S
C1119 H1113 0.950 . S
C1119 C1118 1.327 . S
C1119 C1123 1.429 . S
C1120 C1103 1.574 . S
C1120 H1114 0.949 . S
C1120 C1124 1.368 . S
C1121 C1102 1.429 . S
C1121 C1115 1.429 . S
C1121 C1122 1.523 . S
C1122 C1103 1.368 . S
C1122 C1116 1.368 . S
C1122 C1121 1.523 . S
C1123 C1107 1.429 . S
C1123 C1119 1.429 . S
C1123 C1124 1.523 . S
C1124 C1108 1.368 . S
C1124 C1120 1.368 . S
C1124 C1123 1.523 . S
H1125 C1100 0.950 . S
H1126 C1102 0.950 . S
H1127 C1103 0.949 . S
H1128 C1105 0.950 . S
H1129 C1107 0.950 . S
C1130 C1131 1.349 . S
C1130 C1132 1.327 . S
C1130 H1155 0.950 . S
C1131 C1130 1.349 . S
C1131 C1147 1.349 . S
C1132 C1130 1.327 . S
C1132 C1151 1.429 . S
C1132 H1156 0.950 . S
C1133 C1150 1.574 . S
C1133 C1152 1.368 . S
C1133 H1157 0.949 . S
H1134 C1138 0.949 1_565 S
C1135 C1136 1.349 1_545 S
C1135 C1137 1.327 . S
C1135 H1158 0.950 . S
C1136 C1135 1.349 1_565 S
C1136 C1148 1.349 . S
C1137 C1135 1.327 . S
C1137 C1153 1.429 . S
C1137 H1159 0.950 . S
C1138 H1134 0.949 1_545 S
C1138 C1146 1.574 . S
C1138 C1154 1.368 . S
H1139 C1147 0.950 . S
H1140 C1145 0.950 . S
H1141 C1146 0.966 . S
H1142 C1148 0.950 . S
H1143 C1149 0.950 . S
H1144 C1150 0.949 . S
C1145 H1140 0.950 . S
C1145 C1147 1.327 . S
C1145 C1151 1.429 . S
C1146 C1138 1.574 . S
C1146 H1141 0.966 . S
C1146 C1152 1.368 . S
C1147 C1131 1.349 . S
C1147 H1139 0.950 . S
C1147 C1145 1.327 . S
C1148 C1136 1.349 . S
C1148 H1142 0.950 . S
C1148 C1149 1.327 . S
C1149 H1143 0.950 . S
C1149 C1148 1.327 . S
C1149 C1153 1.429 1_565 S
C1150 C1133 1.574 . S
C1150 H1144 0.949 . S
C1150 C1154 1.368 . S
C1151 C1132 1.429 . S
C1151 C1145 1.429 . S
C1151 C1152 1.523 . S
C1152 C1133 1.368 . S
C1152 C1146 1.368 . S
C1152 C1151 1.523 . S
C1153 C1137 1.429 . S
C1153 C1149 1.429 1_545 S
C1153 C1154 1.523 . S
C1154 C1138 1.368 . S
C1154 C1150 1.368 . S
C1154 C1153 1.523 . S
H1155 C1130 0.950 . S
H1156 C1132 0.950 . S
H1157 C1133 0.949 . S
H1158 C1135 0.950 . S
H1159 C1137 0.950 . S
C1160 C1161 1.349 . S
C1160 C1162 1.327 . S
C1160 H1185 0.950 . S
C1161 C1160 1.349 . S
C1161 C1177 1.349 . S
C1162 C1160 1.327 . S
C1162 C1181 1.429 . S
C1162 H1186 0.950 . S
C1163 C1180 1.574 . S
C1163 C1182 1.368 . S
C1163 H1187 0.949 . S
H1164 C1168 0.949 . S
C1165 C1166 1.349 . S
C1165 C1167 1.327 . S
C1165 H1188 0.950 1_545 S
C1166 C1165 1.349 . S
C1166 C1178 1.349 . S
C1167 C1165 1.327 . S
C1167 C1183 1.429 . S
C1167 H1189 0.950 . S
C1168 H1164 0.949 . S
C1168 C1176 1.574 . S
C1168 C1184 1.368 . S
H1169 C1177 0.950 . S
H1170 C1175 0.950 . S
H1171 C1176 0.949 . S
H1172 C1178 0.950 . S
H1173 C1179 0.950 . S
H1174 C1180 0.949 . S
C1175 H1170 0.950 . S
C1175 C1177 1.327 . S
C1175 C1181 1.429 . S
C1176 C1168 1.574 . S
C1176 H1171 0.949 . S
C1176 C1182 1.368 . S
C1177 C1161 1.349 . S
C1177 H1169 0.950 . S
C1177 C1175 1.327 . S
C1178 C1166 1.349 . S
C1178 H1172 0.950 . S
C1178 C1179 1.327 . S
C1179 H1173 0.950 . S
C1179 C1178 1.327 . S
C1179 C1183 1.429 . S
C1180 C1163 1.574 . S
C1180 H1174 0.949 . S
C1180 C1184 1.368 . S
C1181 C1162 1.429 . S
C1181 C1175 1.429 . S
C1181 C1182 1.523 . S
C1182 C1163 1.368 . S
C1182 C1176 1.368 . S
C1182 C1181 1.523 . S
C1183 C1167 1.429 . S
C1183 C1179 1.429 . S
C1183 C1184 1.523 . S
C1184 C1168 1.368 . S
C1184 C1180 1.368 . S
C1184 C1183 1.523 . S
H1185 C1160 0.950 . S
H1186 C1162 0.950 . S
H1187 C1163 0.949 . S
H1188 C1165 0.950 1_565 S
H1189 C1167 0.950 . S
C1190 C1191 1.349 1_455 S
C1190 C1192 1.327 . S
C1190 H1215 0.950 . S
C1191 C1190 1.349 1_655 S
C1191 C1207 1.349 1_565 S
C1192 C1190 1.327 . S
C1192 C1211 1.429 1_565 S
C1192 H1216 0.950 . S
C1193 C1210 1.574 . S
C1193 C1212 1.368 . S
C1193 H1217 0.949 . S
H1194 C1198 0.949 . S
C1195 C1196 1.349 . S
C1195 C1197 1.327 . S
C1195 H1218 0.950 . S
C1196 C1195 1.349 . S
C1196 C1208 1.349 . S
C1197 C1195 1.327 . S
C1197 C1213 1.429 . S
C1197 H1219 0.950 . S
C1198 H1194 0.949 . S
C1198 C1206 1.574 . S
C1198 C1214 1.368 . S
H1199 C1207 0.950 . S
H1200 C1205 0.950 . S
H1201 C1206 0.949 1_565 S
H1202 C1208 0.950 . S
H1203 C1209 0.950 . S
H1204 C1210 0.949 . S
C1205 H1200 0.950 . S
C1205 C1207 1.327 1_455 S
C1205 C1211 1.429 . S
C1206 C1198 1.574 . S
C1206 H1201 0.949 1_545 S
C1206 C1212 1.368 . S
C1207 C1191 1.349 1_545 S
C1207 H1199 0.950 . S
C1207 C1205 1.327 1_655 S
C1208 C1196 1.349 . S
C1208 H1202 0.950 . S
C1208 C1209 1.327 . S
C1209 H1203 0.950 . S
C1209 C1208 1.327 . S
C1209 C1213 1.429 . S
C1210 C1193 1.574 . S
C1210 H1204 0.949 . S
C1210 C1214 1.368 . S
C1211 C1192 1.429 1_545 S
C1211 C1205 1.429 . S
C1211 C1212 1.523 . S
C1212 C1193 1.368 . S
C1212 C1206 1.368 . S
C1212 C1211 1.523 . S
C1213 C1197 1.429 . S
C1213 C1209 1.429 . S
C1213 C1214 1.523 . S
C1214 C1198 1.368 . S
C1214 C1210 1.368 . S
C1214 C1213 1.523 . S
H1215 C1190 0.950 . S
H1216 C1192 0.950 . S
H1217 C1193 0.949 . S
H1218 C1195 0.950 . S
H1219 C1197 0.950 . S
C1220 C1221 1.349 . S
C1220 C1222 1.327 . S
C1220 H1245 0.950 . S
C1221 C1220 1.349 . S
C1221 C1237 1.349 . S
C1222 C1220 1.327 . S
C1222 C1241 1.429 . S
C1222 H1246 0.950 . S
C1223 C1240 1.574 . S
C1223 C1242 1.368 . S
C1223 H1247 0.949 . S
H1224 C1228 0.949 . S
C1225 C1226 1.349 . S
C1225 C1227 1.327 . S
C1225 H1248 0.950 . S
C1226 C1225 1.349 . S
C1226 C1238 1.349 . S
C1227 C1225 1.327 . S
C1227 C1243 1.429 . S
C1227 H1249 0.950 . S
C1228 H1224 0.949 . S
C1228 C1236 1.574 . S
C1228 C1244 1.368 . S
H1229 C1237 0.950 . S
H1230 C1235 0.950 . S
H1231 C1236 0.949 . S
H1232 C1238 0.950 . S
H1233 C1239 0.950 . S
H1234 C1240 0.949 . S
C1235 H1230 0.950 . S
C1235 C1237 1.327 . S
C1235 C1241 1.429 . S
C1236 C1228 1.574 . S
C1236 H1231 0.949 . S
C1236 C1242 1.368 . S
C1237 C1221 1.349 . S
C1237 H1229 0.950 . S
C1237 C1235 1.327 . S
C1238 C1226 1.349 . S
C1238 H1232 0.950 . S
C1238 C1239 1.327 . S
C1239 H1233 0.950 . S
C1239 C1238 1.327 . S
C1239 C1243 1.429 . S
C1240 C1223 1.574 . S
C1240 H1234 0.949 . S
C1240 C1244 1.368 . S
C1241 C1222 1.429 . S
C1241 C1235 1.429 . S
C1241 C1242 1.523 . S
C1242 C1223 1.368 . S
C1242 C1236 1.368 . S
C1242 C1241 1.523 . S
C1243 C1227 1.429 . S
C1243 C1239 1.429 . S
C1243 C1244 1.523 . S
C1244 C1228 1.368 . S
C1244 C1240 1.368 . S
C1244 C1243 1.523 . S
H1245 C1220 0.950 . S
H1246 C1222 0.950 . S
H1247 C1223 0.949 . S
H1248 C1225 0.950 . S
H1249 C1227 0.950 . S
C1250 C1251 1.349 1_565 S
C1250 C1252 1.327 . S
C1250 H1275 0.950 . S
C1251 C1250 1.349 1_545 S
C1251 C1267 1.349 . S
C1252 C1250 1.327 . S
C1252 C1271 1.429 . S
C1252 H1276 0.950 . S
C1253 C1270 1.574 . S
C1253 C1272 1.368 . S
C1253 H1277 0.949 . S
H1254 C1258 0.949 . S
C1255 C1256 1.349 . S
C1255 C1257 1.327 . S
C1255 H1278 0.950 . S
C1256 C1255 1.349 . S
C1256 C1268 1.349 . S
C1257 C1255 1.327 . S
C1257 C1273 1.429 . S
C1257 H1279 0.950 . S
C1258 H1254 0.949 . S
C1258 C1266 1.574 . S
C1258 C1274 1.368 . S
H1259 C1267 0.950 . S
H1260 C1265 0.950 1_545 S
H1261 C1266 0.949 . S
H1262 C1268 0.950 . S
H1263 C1269 0.950 . S
H1264 C1270 0.949 . S
C1265 H1260 0.950 1_565 S
C1265 C1267 1.327 1_565 S
C1265 C1271 1.429 . S
C1266 C1258 1.574 . S
C1266 H1261 0.949 . S
C1266 C1272 1.368 . S
C1267 C1251 1.349 . S
C1267 H1259 0.950 . S
C1267 C1265 1.327 1_545 S
C1268 C1256 1.349 . S
C1268 H1262 0.950 . S
C1268 C1269 1.327 . S
C1269 H1263 0.950 . S
C1269 C1268 1.327 . S
C1269 C1273 1.429 . S
C1270 C1253 1.574 . S
C1270 H1264 0.949 . S
C1270 C1274 1.368 . S
C1271 C1252 1.429 . S
C1271 C1265 1.429 . S
C1271 C1272 1.523 . S
C1272 C1253 1.368 . S
C1272 C1266 1.368 . S
C1272 C1271 1.523 . S
C1273 C1257 1.429 . S
C1273 C1269 1.429 . S
C1273 C1274 1.523 . S
C1274 C1258 1.368 . S
C1274 C1270 1.368 . S
C1274 C1273 1.523 . S
H1275 C1250 0.950 . S
H1276 C1252 0.950 . S
H1277 C1253 0.949 . S
H1278 C1255 0.950 . S
H1279 C1257 0.950 . S
C1280 C1281 1.349 . S
C1280 C1282 1.279 1_554 S
C1280 H1305 0.950 . S
C1281 C1280 1.349 . S
C1281 C1297 1.349 . S
C1282 C1280 1.279 1_556 S
C1282 C1301 1.470 . S
C1282 H1306 0.959 . S
C1283 C1300 1.574 . S
C1283 C1302 1.368 . S
C1283 H1307 0.949 . S
H1284 C1288 0.949 . S
C1285 C1286 1.349 . S
C1285 C1287 1.327 . S
C1285 H1308 0.950 . S
C1286 C1285 1.349 . S
C1286 C1298 1.349 . S
C1287 C1285 1.327 . S
C1287 C1303 1.429 . S
C1287 H1309 0.950 . S
C1288 H1284 0.949 . S
C1288 C1296 1.574 . S
C1288 C1304 1.368 . S
H1289 C1297 0.950 . S
H1290 C1295 0.950 . S
H1291 C1296 0.949 . S
H1292 C1298 0.950 . S
H1293 C1299 0.950 . S
H1294 C1300 0.949 . S
C1295 H1290 0.950 . S
C1295 C1297 1.327 1_556 S
C1295 C1301 1.429 . S
C1296 C1288 1.574 . S
C1296 H1291 0.949 . S
C1296 C1302 1.368 . S
C1297 C1281 1.349 . S
C1297 H1289 0.950 . S
C1297 C1295 1.327 1_554 S
C1298 C1286 1.349 . S
C1298 H1292 0.950 . S
C1298 C1299 1.327 . S
C1299 H1293 0.950 . S
C1299 C1298 1.327 . S
C1299 C1303 1.429 . S
C1300 C1283 1.574 . S
C1300 H1294 0.949 . S
C1300 C1304 1.368 . S
C1301 C1282 1.470 . S
C1301 C1295 1.429 . S
C1301 C1302 1.523 . S
C1302 C1283 1.368 . S
C1302 C1296 1.368 . S
C1302 C1301 1.523 . S
C1303 C1287 1.429 . S
C1303 C1299 1.429 . S
C1303 C1304 1.523 . S
C1304 C1288 1.368 . S
C1304 C1300 1.368 . S
C1304 C1303 1.523 . S
H1305 C1280 0.950 . S
H1306 C1282 0.959 . S
H1307 C1283 0.949 . S
H1308 C1285 0.950 . S
H1309 C1287 0.950 . S
C1310 C1311 1.349 . S
C1310 C1312 1.327 . S
C1310 H1335 0.950 . S
C1311 C1310 1.349 . S
C1311 C1327 1.349 . S
C1312 C1310 1.327 . S
C1312 C1331 1.429 . S
C1312 H1336 0.950 . S
C1313 C1330 1.574 . S
C1313 C1332 1.368 . S
C1313 H1337 0.949 . S
H1314 C1318 0.949 . S
C1315 C1316 1.349 . S
C1315 C1317 1.327 . S
C1315 H1338 0.950 . S
C1316 C1315 1.349 . S
C1316 C1328 1.349 . S
C1317 C1315 1.327 . S
C1317 C1333 1.429 . S
C1317 H1339 0.950 . S
C1318 H1314 0.949 . S
C1318 C1326 1.574 . S
C1318 C1334 1.368 . S
H1319 C1327 0.950 . S
H1320 C1325 0.950 . S
H1321 C1326 0.949 . S
H1322 C1328 0.950 . S
H1323 C1329 0.950 . S
H1324 C1330 0.949 . S
C1325 H1320 0.950 . S
C1325 C1327 1.327 . S
C1325 C1331 1.429 . S
C1326 C1318 1.574 . S
C1326 H1321 0.949 . S
C1326 C1332 1.368 . S
C1327 C1311 1.349 . S
C1327 H1319 0.950 . S
C1327 C1325 1.327 . S
C1328 C1316 1.349 . S
C1328 H1322 0.950 . S
C1328 C1329 1.327 . S
C1329 H1323 0.950 . S
C1329 C1328 1.327 . S
C1329 C1333 1.429 . S
C1330 C1313 1.574 . S
C1330 H1324 0.949 . S
C1330 C1334 1.368 . S
C1331 C1312 1.429 . S
C1331 C1325 1.429 . S
C1331 C1332 1.523 . S
C1332 C1313 1.368 . S
C1332 C1326 1.368 . S
C1332 C1331 1.523 . S
C1333 C1317 1.429 . S
C1333 C1329 1.429 . S
C1333 C1334 1.523 . S
C1334 C1318 1.368 . S
C1334 C1330 1.368 . S
C1334 C1333 1.523 . S
H1335 C1310 0.950 . S
H1336 C1312 0.950 . S
H1337 C1313 0.949 . S
H1338 C1315 0.950 . S
H1339 C1317 0.950 . S
C1340 C1341 1.349 . S
C1340 C1342 1.327 . S
C1340 H1365 0.950 . S
C1341 C1340 1.349 . S
C1341 C1357 1.349 . S
C1342 C1340 1.327 . S
C1342 C1361 1.429 . S
C1342 H1366 0.950 . S
C1343 C1360 1.574 . S
C1343 C1362 1.368 . S
C1343 H1367 0.949 . S
H1344 C1348 0.949 . S
C1345 C1346 1.349 . S
C1345 C1347 1.327 . S
C1345 H1368 0.950 . S
C1346 C1345 1.349 . S
C1346 C1358 1.349 . S
C1347 C1345 1.327 . S
C1347 C1363 1.429 . S
C1347 H1369 0.950 . S
C1348 H1344 0.949 . S
C1348 C1356 1.574 . S
C1348 C1364 1.368 . S
H1349 C1357 0.950 . S
H1350 C1355 0.950 . S
H1351 C1356 0.949 . S
H1352 C1358 0.950 . S
H1353 C1359 0.950 . S
H1354 C1360 0.949 . S
C1355 H1350 0.950 . S
C1355 C1357 1.327 . S
C1355 C1361 1.429 . S
C1356 C1348 1.574 . S
C1356 H1351 0.949 . S
C1356 C1362 1.368 . S
C1357 C1341 1.349 . S
C1357 H1349 0.950 . S
C1357 C1355 1.327 . S
C1358 C1346 1.349 . S
C1358 H1352 0.950 . S
C1358 C1359 1.327 . S
C1359 H1353 0.950 . S
C1359 C1358 1.327 . S
C1359 C1363 1.429 . S
C1360 C1343 1.574 . S
C1360 H1354 0.949 . S
C1360 C1364 1.368 . S
C1361 C1342 1.429 . S
C1361 C1355 1.429 . S
C1361 C1362 1.523 . S
C1362 C1343 1.368 . S
C1362 C1356 1.368 . S
C1362 C1361 1.523 . S
C1363 C1347 1.429 . S
C1363 C1359 1.429 . S
C1363 C1364 1.523 . S
C1364 C1348 1.368 . S
C1364 C1360 1.368 . S
C1364 C1363 1.523 . S
H1365 C1340 0.950 . S
H1366 C1342 0.950 . S
H1367 C1343 0.949 . S
H1368 C1345 0.950 . S
H1369 C1347 0.950 . S
C1370 C1371 1.349 . S
C1370 C1372 1.327 . S
C1370 H1395 0.950 . S
C1371 C1370 1.349 . S
C1371 C1387 1.349 . S
C1372 C1370 1.327 . S
C1372 C1391 1.429 . S
C1372 H1396 0.950 . S
C1373 C1390 1.574 . S
C1373 C1392 1.368 . S
C1373 H1397 0.949 . S
H1374 C1378 0.949 . S
C1375 C1376 1.349 . S
C1375 C1377 1.327 . S
C1375 H1398 0.950 . S
C1376 C1375 1.349 . S
C1376 C1388 1.349 . S
C1377 C1375 1.327 . S
C1377 C1393 1.429 . S
C1377 H1399 0.950 . S
C1378 H1374 0.949 . S
C1378 C1386 1.574 . S
C1378 C1394 1.368 . S
H1379 C1387 0.950 . S
H1380 C1385 0.950 . S
H1381 C1386 0.949 . S
H1382 C1388 0.950 . S
H1383 C1389 0.950 . S
H1384 C1390 0.949 . S
C1385 H1380 0.950 . S
C1385 C1387 1.327 . S
C1385 C1391 1.429 . S
C1386 C1378 1.574 . S
C1386 H1381 0.949 . S
C1386 C1392 1.368 . S
C1387 C1371 1.349 . S
C1387 H1379 0.950 . S
C1387 C1385 1.327 . S
C1388 C1376 1.349 . S
C1388 H1382 0.950 . S
C1388 C1389 1.327 . S
C1389 H1383 0.950 . S
C1389 C1388 1.327 . S
C1389 C1393 1.429 . S
C1390 C1373 1.574 . S
C1390 H1384 0.949 . S
C1390 C1394 1.368 . S
C1391 C1372 1.429 . S
C1391 C1385 1.429 . S
C1391 C1392 1.523 . S
C1392 C1373 1.368 . S
C1392 C1386 1.368 . S
C1392 C1391 1.523 . S
C1393 C1377 1.429 . S
C1393 C1389 1.429 . S
C1393 C1394 1.523 . S
C1394 C1378 1.368 . S
C1394 C1390 1.368 . S
C1394 C1393 1.523 . S
H1395 C1370 0.950 . S
H1396 C1372 0.950 . S
H1397 C1373 0.949 . S
H1398 C1375 0.950 . S
H1399 C1377 0.950 . S
C1400 C1401 1.349 . S
C1400 C1402 1.327 . S
C1400 H1425 0.950 . S
C1401 C1400 1.349 . S
C1401 C1417 1.349 . S
C1402 C1400 1.327 . S
C1402 C1421 1.429 . S
C1402 H1426 0.950 . S
C1403 C1420 1.574 . S
C1403 C1422 1.368 . S
C1403 H1427 0.949 . S
H1404 C1408 0.949 . S
C1405 C1406 1.349 . S
C1405 C1407 1.327 1_556 S
C1405 H1428 0.950 . S
C1406 C1405 1.349 . S
C1406 C1418 1.349 . S
C1407 C1405 1.327 1_554 S
C1407 C1423 1.429 . S
C1407 H1429 0.950 . S
C1408 H1404 0.949 . S
C1408 C1416 1.574 . S
C1408 C1424 1.368 . S
H1409 C1417 0.950 . S
H1410 C1415 0.950 . S
H1411 C1416 0.949 . S
H1412 C1418 0.950 . S
H1413 C1419 0.950 . S
H1414 C1420 0.949 . S
C1415 H1410 0.950 . S
C1415 C1417 1.327 . S
C1415 C1421 1.429 . S
C1416 C1408 1.574 . S
C1416 H1411 0.949 . S
C1416 C1422 1.368 . S
C1417 C1401 1.349 . S
C1417 H1409 0.950 . S
C1417 C1415 1.327 . S
C1418 C1406 1.349 . S
C1418 H1412 0.950 . S
C1418 C1419 1.327 . S
C1419 H1413 0.950 . S
C1419 C1418 1.327 . S
C1419 C1423 1.429 1_556 S
C1420 C1403 1.574 . S
C1420 H1414 0.949 . S
C1420 C1424 1.368 . S
C1421 C1402 1.429 . S
C1421 C1415 1.429 . S
C1421 C1422 1.523 . S
C1422 C1403 1.368 . S
C1422 C1416 1.368 . S
C1422 C1421 1.523 . S
C1423 C1407 1.429 . S
C1423 C1419 1.429 1_554 S
C1423 C1424 1.523 . S
C1424 C1408 1.368 . S
C1424 C1420 1.368 . S
C1424 C1423 1.523 . S
H1425 C1400 0.950 . S
H1426 C1402 0.950 . S
H1427 C1403 0.949 . S
H1428 C1405 0.950 . S
H1429 C1407 0.950 . S
C1430 C1431 1.349 . S
C1430 C1432 1.327 . S
C1430 H1455 0.950 . S
C1431 C1430 1.349 . S
C1431 C1447 1.349 . S
C1432 C1430 1.327 . S
C1432 C1451 1.429 . S
C1432 H1456 0.950 . S
C1433 C1450 1.574 . S
C1433 C1452 1.368 . S
C1433 H1457 0.949 . S
H1434 C1438 0.949 . S
C1435 C1436 1.349 . S
C1435 C1437 1.327 . S
C1435 H1458 0.950 . S
C1436 C1435 1.349 . S
C1436 C1448 1.349 . S
C1437 C1435 1.327 . S
C1437 C1453 1.429 . S
C1437 H1459 0.950 . S
C1438 H1434 0.949 . S
C1438 C1446 1.574 . S
C1438 C1454 1.368 . S
H1439 C1447 0.950 . S
H1440 C1445 0.950 . S
H1441 C1446 0.949 . S
H1442 C1448 0.950 . S
H1443 C1449 0.950 . S
H1444 C1450 0.949 . S
C1445 H1440 0.950 . S
C1445 C1447 1.327 . S
C1445 C1451 1.429 . S
C1446 C1438 1.574 . S
C1446 H1441 0.949 . S
C1446 C1452 1.368 . S
C1447 C1431 1.349 . S
C1447 H1439 0.950 . S
C1447 C1445 1.327 . S
C1448 C1436 1.349 . S
C1448 H1442 0.950 . S
C1448 C1449 1.327 . S
C1449 H1443 0.950 . S
C1449 C1448 1.327 . S
C1449 C1453 1.429 . S
C1450 C1433 1.574 . S
C1450 H1444 0.949 . S
C1450 C1454 1.368 . S
C1451 C1432 1.429 . S
C1451 C1445 1.429 . S
C1451 C1452 1.523 . S
C1452 C1433 1.368 . S
C1452 C1446 1.368 . S
C1452 C1451 1.523 . S
C1453 C1437 1.429 . S
C1453 C1449 1.429 . S
C1453 C1454 1.523 . S
C1454 C1438 1.368 . S
C1454 C1450 1.368 . S
C1454 C1453 1.523 . S
H1455 C1430 0.950 . S
H1456 C1432 0.950 . S
H1457 C1433 0.949 . S
H1458 C1435 0.950 . S
H1459 C1437 0.950 . S
C1460 C1461 1.349 . S
C1460 C1462 1.327 . S
C1460 H1485 0.950 . S
C1461 C1460 1.349 . S
C1461 C1477 1.349 . S
C1462 C1460 1.327 . S
C1462 C1481 1.429 . S
C1462 H1486 0.950 . S
C1463 C1480 1.574 . S
C1463 C1482 1.368 . S
C1463 H1487 0.949 . S
H1464 C1468 0.949 . S
C1465 C1466 1.349 . S
C1465 C1467 1.327 . S
C1465 H1488 0.950 . S
C1466 C1465 1.349 . S
C1466 C1478 1.349 . S
C1467 C1465 1.327 . S
C1467 C1483 1.429 . S
C1467 H1489 0.950 . S
C1468 H1464 0.949 . S
C1468 C1476 1.574 . S
C1468 C1484 1.368 . S
H1469 C1477 0.950 . S
H1470 C1475 0.950 . S
H1471 C1476 0.949 . S
H1472 C1478 0.950 . S
H1473 C1479 0.950 . S
H1474 C1480 0.949 . S
C1475 H1470 0.950 . S
C1475 C1477 1.327 . S
C1475 C1481 1.429 . S
C1476 C1468 1.574 . S
C1476 H1471 0.949 . S
C1476 C1482 1.368 . S
C1477 C1461 1.349 . S
C1477 H1469 0.950 . S
C1477 C1475 1.327 . S
C1478 C1466 1.349 . S
C1478 H1472 0.950 . S
C1478 C1479 1.327 . S
C1479 H1473 0.950 . S
C1479 C1478 1.327 . S
C1479 C1483 1.429 . S
C1480 C1463 1.574 . S
C1480 H1474 0.949 . S
C1480 C1484 1.368 . S
C1481 C1462 1.429 . S
C1481 C1475 1.429 . S
C1481 C1482 1.523 . S
C1482 C1463 1.368 . S
C1482 C1476 1.368 . S
C1482 C1481 1.523 . S
C1483 C1467 1.429 . S
C1483 C1479 1.429 . S
C1483 C1484 1.523 . S
C1484 C1468 1.368 . S
C1484 C1480 1.368 . S
C1484 C1483 1.523 . S
H1485 C1460 0.950 . S
H1486 C1462 0.950 . S
H1487 C1463 0.949 . S
H1488 C1465 0.950 . S
H1489 C1467 0.950 . S
C1490 C1491 1.349 . S
C1490 C1492 1.327 . S
C1490 H1515 0.950 . S
C1491 C1490 1.349 . S
C1491 C1507 1.349 . S
C1492 C1490 1.327 . S
C1492 C1511 1.429 . S
C1492 H1516 0.950 . S
C1493 C1510 1.574 . S
C1493 C1512 1.368 . S
C1493 H1517 0.949 . S
H1494 C1498 0.949 . S
C1495 C1496 1.349 . S
C1495 C1497 1.327 . S
C1495 H1518 0.950 . S
C1496 C1495 1.349 . S
C1496 C1508 1.349 . S
C1497 C1495 1.327 . S
C1497 C1513 1.429 . S
C1497 H1519 0.950 . S
C1498 H1494 0.949 . S
C1498 C1506 1.574 . S
C1498 C1514 1.368 . S
H1499 C1507 0.950 . S
H1500 C1505 0.950 . S
H1501 C1506 0.949 . S
H1502 C1508 0.950 . S
H1503 C1509 0.950 . S
H1504 C1510 0.949 . S
C1505 H1500 0.950 . S
C1505 C1507 1.327 . S
C1505 C1511 1.429 . S
C1506 C1498 1.574 . S
C1506 H1501 0.949 . S
C1506 C1512 1.368 . S
C1507 C1491 1.349 . S
C1507 H1499 0.950 . S
C1507 C1505 1.327 . S
C1508 C1496 1.349 . S
C1508 H1502 0.950 . S
C1508 C1509 1.327 . S
C1509 H1503 0.950 . S
C1509 C1508 1.327 . S
C1509 C1513 1.429 . S
C1510 C1493 1.574 . S
C1510 H1504 0.949 . S
C1510 C1514 1.368 . S
C1511 C1492 1.429 . S
C1511 C1505 1.429 . S
C1511 C1512 1.523 . S
C1512 C1493 1.368 . S
C1512 C1506 1.368 . S
C1512 C1511 1.523 . S
C1513 C1497 1.429 . S
C1513 C1509 1.429 . S
C1513 C1514 1.523 . S
C1514 C1498 1.368 . S
C1514 C1510 1.368 . S
C1514 C1513 1.523 . S
H1515 C1490 0.950 . S
H1516 C1492 0.950 . S
H1517 C1493 0.949 . S
H1518 C1495 0.950 . S
H1519 C1497 0.950 . S
C1520 C1521 1.349 . S
C1520 C1522 1.327 . S
C1520 H1545 0.950 . S
C1521 C1520 1.349 . S
C1521 C1537 1.349 . S
C1522 C1520 1.327 . S
C1522 C1541 1.429 . S
C1522 H1546 0.950 . S
C1523 C1540 1.574 . S
C1523 C1542 1.368 . S
C1523 H1547 0.949 . S
H1524 C1528 0.949 . S
C1525 C1526 1.349 . S
C1525 C1527 1.327 . S
C1525 H1548 0.950 . S
C1526 C1525 1.349 . S
C1526 C1538 1.349 . S
C1527 C1525 1.327 . S
C1527 C1543 1.429 . S
C1527 H1549 0.950 . S
C1528 H1524 0.949 . S
C1528 C1536 1.574 . S
C1528 C1544 1.368 . S
H1529 C1537 0.950 . S
H1530 C1535 0.950 . S
H1531 C1536 0.949 . S
H1532 C1538 0.950 . S
H1533 C1539 0.950 . S
H1534 C1540 0.949 . S
C1535 H1530 0.950 . S
C1535 C1537 1.327 . S
C1535 C1541 1.429 . S
C1536 C1528 1.574 . S
C1536 H1531 0.949 . S
C1536 C1542 1.368 . S
C1537 C1521 1.349 . S
C1537 H1529 0.950 . S
C1537 C1535 1.327 . S
C1538 C1526 1.349 . S
C1538 H1532 0.950 . S
C1538 C1539 1.327 . S
C1539 H1533 0.950 . S
C1539 C1538 1.327 . S
C1539 C1543 1.429 . S
C1540 C1523 1.574 . S
C1540 H1534 0.949 . S
C1540 C1544 1.368 . S
C1541 C1522 1.429 . S
C1541 C1535 1.429 . S
C1541 C1542 1.523 . S
C1542 C1523 1.368 . S
C1542 C1536 1.368 . S
C1542 C1541 1.523 . S
C1543 C1527 1.429 . S
C1543 C1539 1.429 . S
C1543 C1544 1.523 . S
C1544 C1528 1.368 . S
C1544 C1540 1.368 . S
C1544 C1543 1.523 . S
H1545 C1520 0.950 . S
H1546 C1522 0.950 . S
H1547 C1523 0.949 . S
H1548 C1525 0.950 . S
H1549 C1527 0.950 . S
C1550 C1551 1.349 . S
C1550 C1552 1.327 . S
C1550 H1575 0.950 . S
C1551 C1550 1.349 . S
C1551 C1567 1.349 . S
C1552 C1550 1.327 . S
C1552 C1571 1.429 . S
C1552 H1576 0.950 . S
C1553 C1570 1.574 . S
C1553 C1572 1.368 . S
C1553 H1577 0.949 . S
H1554 C1558 0.949 1_545 S
C1555 C1556 1.349 1_565 S
C1555 C1557 1.327 . S
C1555 H1578 0.950 . S
C1556 C1555 1.349 1_545 S
C1556 C1568 1.349 . S
C1557 C1555 1.327 . S
C1557 C1573 1.429 . S
C1557 H1579 0.950 . S
C1558 H1554 0.949 1_565 S
C1558 C1566 1.574 . S
C1558 C1574 1.368 . S
H1559 C1567 0.950 . S
H1560 C1565 0.950 . S
H1561 C1566 0.949 . S
H1562 C1568 0.950 . S
H1563 C1569 0.950 . S
H1564 C1570 0.949 . S
C1565 H1560 0.950 . S
C1565 C1567 1.327 . S
C1565 C1571 1.429 . S
C1566 C1558 1.574 . S
C1566 H1561 0.949 . S
C1566 C1572 1.368 . S
C1567 C1551 1.349 . S
C1567 H1559 0.950 . S
C1567 C1565 1.327 . S
C1568 C1556 1.349 . S
C1568 H1562 0.950 . S
C1568 C1569 1.327 . S
C1569 H1563 0.950 . S
C1569 C1568 1.327 . S
C1569 C1573 1.429 1_545 S
C1570 C1553 1.574 . S
C1570 H1564 0.949 . S
C1570 C1574 1.368 . S
C1571 C1552 1.429 . S
C1571 C1565 1.429 . S
C1571 C1572 1.523 . S
C1572 C1553 1.368 . S
C1572 C1566 1.368 . S
C1572 C1571 1.523 . S
C1573 C1557 1.429 . S
C1573 C1569 1.429 1_565 S
C1573 C1574 1.523 . S
C1574 C1558 1.368 . S
C1574 C1570 1.368 . S
C1574 C1573 1.523 . S
H1575 C1550 0.950 . S
H1576 C1552 0.950 . S
H1577 C1553 0.949 . S
H1578 C1555 0.950 . S
H1579 C1557 0.950 . S
C1580 C1581 1.349 . S
C1580 C1582 1.327 . S
C1580 H1605 0.950 . S
C1581 C1580 1.349 . S
C1581 C1597 1.349 . S
C1582 C1580 1.327 . S
C1582 C1601 1.429 . S
C1582 H1606 0.950 . S
C1583 C1600 1.574 . S
C1583 C1602 1.368 . S
C1583 H1607 0.949 . S
H1584 C1588 0.949 . S
C1585 C1586 1.349 . S
C1585 C1587 1.327 1_554 S
C1585 H1608 0.950 . S
C1586 C1585 1.349 . S
C1586 C1598 1.349 . S
C1587 C1585 1.327 1_556 S
C1587 C1603 1.429 . S
C1587 H1609 0.950 . S
C1588 H1584 0.949 . S
C1588 C1596 1.574 . S
C1588 C1604 1.368 . S
H1589 C1597 0.950 . S
H1590 C1595 0.950 . S
H1591 C1596 0.949 . S
H1592 C1598 0.950 . S
H1593 C1599 0.950 . S
H1594 C1600 0.949 . S
C1595 H1590 0.950 . S
C1595 C1597 1.327 . S
C1595 C1601 1.429 . S
C1596 C1588 1.574 . S
C1596 H1591 0.949 . S
C1596 C1602 1.368 . S
C1597 C1581 1.349 . S
C1597 H1589 0.950 . S
C1597 C1595 1.327 . S
C1598 C1586 1.349 . S
C1598 H1592 0.950 . S
C1598 C1599 1.327 1_554 S
C1599 H1593 0.950 . S
C1599 C1598 1.327 1_556 S
C1599 C1603 1.429 . S
C1600 C1583 1.574 . S
C1600 H1594 0.949 . S
C1600 C1604 1.368 . S
C1601 C1582 1.429 . S
C1601 C1595 1.429 . S
C1601 C1602 1.523 . S
C1602 C1583 1.368 . S
C1602 C1596 1.368 . S
C1602 C1601 1.523 . S
C1603 C1587 1.429 . S
C1603 C1599 1.429 . S
C1603 C1604 1.523 . S
C1604 C1588 1.368 . S
C1604 C1600 1.368 . S
C1604 C1603 1.523 . S
H1605 C1580 0.950 . S
H1606 C1582 0.950 . S
H1607 C1583 0.949 . S
H1608 C1585 0.950 . S
H1609 C1587 0.950 . S
C1610 C1611 1.349 . S
C1610 C1612 1.327 . S
C1610 H1635 0.950 . S
C1611 C1610 1.349 . S
C1611 C1627 1.349 1_565 S
C1612 C1610 1.327 . S
C1612 C1631 1.429 1_565 S
C1612 H1636 0.950 . S
C1613 C1630 1.574 . S
C1613 C1632 1.368 . S
C1613 H1637 0.949 . S
H1614 C1618 0.949 . S
C1615 C1616 1.349 . S
C1615 C1617 1.327 . S
C1615 H1638 0.950 . S
C1616 C1615 1.349 . S
C1616 C1628 1.349 . S
C1617 C1615 1.327 . S
C1617 C1633 1.429 . S
C1617 H1639 0.950 . S
C1618 H1614 0.949 . S
C1618 C1626 1.574 . S
C1618 C1634 1.368 . S
H1619 C1627 0.950 . S
H1620 C1625 0.950 . S
H1621 C1626 0.949 1_565 S
H1622 C1628 0.950 . S
H1623 C1629 0.950 . S
H1624 C1630 0.949 . S
C1625 H1620 0.950 . S
C1625 C1627 1.327 . S
C1625 C1631 1.429 . S
C1626 C1618 1.574 . S
C1626 H1621 0.949 1_545 S
C1626 C1632 1.368 . S
C1627 C1611 1.349 1_545 S
C1627 H1619 0.950 . S
C1627 C1625 1.327 . S
C1628 C1616 1.349 . S
C1628 H1622 0.950 . S
C1628 C1629 1.327 . S
C1629 H1623 0.950 . S
C1629 C1628 1.327 . S
C1629 C1633 1.429 . S
C1630 C1613 1.574 . S
C1630 H1624 0.949 . S
C1630 C1634 1.368 . S
C1631 C1612 1.429 1_545 S
C1631 C1625 1.429 . S
C1631 C1632 1.523 . S
C1632 C1613 1.368 . S
C1632 C1626 1.368 . S
C1632 C1631 1.523 . S
C1633 C1617 1.429 . S
C1633 C1629 1.429 . S
C1633 C1634 1.523 . S
C1634 C1618 1.368 . S
C1634 C1630 1.368 . S
C1634 C1633 1.523 . S
H1635 C1610 0.950 . S
H1636 C1612 0.950 . S
H1637 C1613 0.949 . S
H1638 C1615 0.950 . S
H1639 C1617 0.950 . S
C1640 C1641 1.349 . S
C1640 C1642 1.327 . S
C1640 H1665 0.950 . S
C1641 C1640 1.349 . S
C1641 C1657 1.349 . S
C1642 C1640 1.327 . S
C1642 C1661 1.429 . S
C1642 H1666 0.950 . S
C1643 C1660 1.574 . S
C1643 C1662 1.368 . S
C1643 H1667 0.949 . S
H1644 C1648 0.949 . S
C1645 C1646 1.349 . S
C1645 C1647 1.327 . S
C1645 H1668 0.950 . S
C1646 C1645 1.349 . S
C1646 C1658 1.349 . S
C1647 C1645 1.327 . S
C1647 C1663 1.429 . S
C1647 H1669 0.950 . S
C1648 H1644 0.949 . S
C1648 C1656 1.574 . S
C1648 C1664 1.368 . S
H1649 C1657 0.950 . S
H1650 C1655 0.950 . S
H1651 C1656 0.949 . S
H1652 C1658 0.950 . S
H1653 C1659 0.950 . S
H1654 C1660 0.949 . S
C1655 H1650 0.950 . S
C1655 C1657 1.327 . S
C1655 C1661 1.429 . S
C1656 C1648 1.574 . S
C1656 H1651 0.949 . S
C1656 C1662 1.368 . S
C1657 C1641 1.349 . S
C1657 H1649 0.950 . S
C1657 C1655 1.327 . S
C1658 C1646 1.349 . S
C1658 H1652 0.950 . S
C1658 C1659 1.327 . S
C1659 H1653 0.950 . S
C1659 C1658 1.327 . S
C1659 C1663 1.429 . S
C1660 C1643 1.574 . S
C1660 H1654 0.949 . S
C1660 C1664 1.368 . S
C1661 C1642 1.429 . S
C1661 C1655 1.429 . S
C1661 C1662 1.523 . S
C1662 C1643 1.368 . S
C1662 C1656 1.368 . S
C1662 C1661 1.523 . S
C1663 C1647 1.429 . S
C1663 C1659 1.429 . S
C1663 C1664 1.523 . S
C1664 C1648 1.368 . S
C1664 C1660 1.368 . S
C1664 C1663 1.523 . S
H1665 C1640 0.950 . S
H1666 C1642 0.950 . S
H1667 C1643 0.949 . S
H1668 C1645 0.950 . S
H1669 C1647 0.950 . S
C1670 C1671 1.349 . S
C1670 C1672 1.327 . S
C1670 H1695 0.950 . S
C1671 C1670 1.349 . S
C1671 C1687 1.349 . S
C1672 C1670 1.327 . S
C1672 C1691 1.429 . S
C1672 H1696 0.950 . S
C1673 C1690 1.574 . S
C1673 C1692 1.368 . S
C1673 H1697 0.949 . S
H1674 C1678 0.949 1_565 S
C1675 C1676 1.349 1_545 S
C1675 C1677 1.327 . S
C1675 H1698 0.950 . S
C1676 C1675 1.349 1_565 S
C1676 C1688 1.349 . S
C1677 C1675 1.327 . S
C1677 C1693 1.429 . S
C1677 H1699 0.950 . S
C1678 H1674 0.949 1_545 S
C1678 C1686 1.574 . S
C1678 C1694 1.368 . S
H1679 C1687 0.950 . S
H1680 C1685 0.950 . S
H1681 C1686 0.949 . S
H1682 C1688 0.950 . S
H1683 C1689 0.950 . S
H1684 C1690 0.949 . S
C1685 H1680 0.950 . S
C1685 C1687 1.327 . S
C1685 C1691 1.429 . S
C1686 C1678 1.574 . S
C1686 H1681 0.949 . S
C1686 C1692 1.368 . S
C1687 C1671 1.349 . S
C1687 H1679 0.950 . S
C1687 C1685 1.327 . S
C1688 C1676 1.349 . S
C1688 H1682 0.950 . S
C1688 C1689 1.327 . S
C1689 H1683 0.950 . S
C1689 C1688 1.327 . S
C1689 C1693 1.429 1_565 S
C1690 C1673 1.574 . S
C1690 H1684 0.949 . S
C1690 C1694 1.368 . S
C1691 C1672 1.429 . S
C1691 C1685 1.429 . S
C1691 C1692 1.523 . S
C1692 C1673 1.368 . S
C1692 C1686 1.368 . S
C1692 C1691 1.523 . S
C1693 C1677 1.429 . S
C1693 C1689 1.429 1_545 S
C1693 C1694 1.523 . S
C1694 C1678 1.368 . S
C1694 C1690 1.368 . S
C1694 C1693 1.523 . S
H1695 C1670 0.950 . S
H1696 C1672 0.950 . S
H1697 C1673 0.949 . S
H1698 C1675 0.950 . S
H1699 C1677 0.950 . S
C1700 C1701 1.349 . S
C1700 C1702 1.327 . S
C1700 H1725 0.950 . S
C1701 C1700 1.349 . S
C1701 C1717 1.349 . S
C1702 C1700 1.327 . S
C1702 C1721 1.429 . S
C1702 H1726 0.950 . S
C1703 C1720 1.574 . S
C1703 C1722 1.368 . S
C1703 H1727 0.949 . S
H1704 C1708 0.949 . S
C1705 C1706 1.349 . S
C1705 C1707 1.327 1_556 S
C1705 H1728 0.950 . S
C1706 C1705 1.349 . S
C1706 C1718 1.349 . S
C1707 C1705 1.327 1_554 S
C1707 C1723 1.429 . S
C1707 H1729 0.950 . S
C1708 H1704 0.949 . S
C1708 C1716 1.574 . S
C1708 C1724 1.368 . S
H1709 C1717 0.950 . S
H1710 C1715 0.950 . S
H1711 C1716 0.949 . S
H1712 C1718 0.950 . S
H1713 C1719 0.950 . S
H1714 C1720 0.949 . S
C1715 H1710 0.950 . S
C1715 C1717 1.327 . S
C1715 C1721 1.429 . S
C1716 C1708 1.574 . S
C1716 H1711 0.949 . S
C1716 C1722 1.368 . S
C1717 C1701 1.349 . S
C1717 H1709 0.950 . S
C1717 C1715 1.327 . S
C1718 C1706 1.349 . S
C1718 H1712 0.950 . S
C1718 C1719 1.327 . S
C1719 H1713 0.950 . S
C1719 C1718 1.327 . S
C1719 C1723 1.429 1_556 S
C1720 C1703 1.574 . S
C1720 H1714 0.949 . S
C1720 C1724 1.368 . S
C1721 C1702 1.429 . S
C1721 C1715 1.429 . S
C1721 C1722 1.523 . S
C1722 C1703 1.368 . S
C1722 C1716 1.368 . S
C1722 C1721 1.523 . S
C1723 C1707 1.429 . S
C1723 C1719 1.429 1_554 S
C1723 C1724 1.523 . S
C1724 C1708 1.368 . S
C1724 C1720 1.368 . S
C1724 C1723 1.523 . S
H1725 C1700 0.950 . S
H1726 C1702 0.950 . S
H1727 C1703 0.949 . S
H1728 C1705 0.950 . S
H1729 C1707 0.950 . S
C1730 C1731 1.349 . S
C1730 C1732 1.327 . S
C1730 H1755 0.950 . S
C1731 C1730 1.349 . S
C1731 C1747 1.349 . S
C1732 C1730 1.327 . S
C1732 C1751 1.429 . S
C1732 H1756 0.950 . S
C1733 C1750 1.574 . S
C1733 C1752 1.368 . S
C1733 H1757 0.949 . S
H1734 C1738 0.949 1_545 S
C1735 C1736 1.349 1_565 S
C1735 C1737 1.327 . S
C1735 H1758 0.950 . S
C1736 C1735 1.349 1_545 S
C1736 C1748 1.349 . S
C1737 C1735 1.327 . S
C1737 C1753 1.429 . S
C1737 H1759 0.950 . S
C1738 H1734 0.949 1_565 S
C1738 C1746 1.574 . S
C1738 C1754 1.368 . S
H1739 C1747 0.950 . S
H1740 C1745 0.950 . S
H1741 C1746 0.949 . S
H1742 C1748 0.950 . S
H1743 C1749 0.950 . S
H1744 C1750 0.949 . S
C1745 H1740 0.950 . S
C1745 C1747 1.327 . S
C1745 C1751 1.429 . S
C1746 C1738 1.574 . S
C1746 H1741 0.949 . S
C1746 C1752 1.368 . S
C1747 C1731 1.349 . S
C1747 H1739 0.950 . S
C1747 C1745 1.327 . S
C1748 C1736 1.349 . S
C1748 H1742 0.950 . S
C1748 C1749 1.327 . S
C1749 H1743 0.950 . S
C1749 C1748 1.327 . S
C1749 C1753 1.429 1_545 S
C1750 C1733 1.574 . S
C1750 H1744 0.949 . S
C1750 C1754 1.368 . S
C1751 C1732 1.429 . S
C1751 C1745 1.429 . S
C1751 C1752 1.523 . S
C1752 C1733 1.368 . S
C1752 C1746 1.368 . S
C1752 C1751 1.523 . S
C1753 C1737 1.429 . S
C1753 C1749 1.429 1_565 S
C1753 C1754 1.523 . S
C1754 C1738 1.368 . S
C1754 C1750 1.368 . S
C1754 C1753 1.523 . S
H1755 C1730 0.950 . S
H1756 C1732 0.950 . S
H1757 C1733 0.949 . S
H1758 C1735 0.950 . S
H1759 C1737 0.950 . S
C321 C8 0.721 . S
C326 C208 0.721 . S
C351 C28 0.722 . S
C356 C228 0.722 . S
C381 C48 0.721 . S
C386 C168 0.721 . S
C411 C188 0.721 . S
C416 C68 0.721 . S
C441 C89 0.721 . S
C446 C289 0.721 . S
C471 C309 0.722 . S
C476 C109 0.722 . S
C501 C249 0.721 . S
C506 C129 0.721 . S
C531 C149 0.721 . S
C536 C269 0.721 . S
C561 C1 1.382 . S
C566 C82 1.382 . S
C591 C21 1.382 . S
C596 C262 1.382 . S
C621 C41 1.383 . S
C626 C122 1.383 . S
C651 C61 1.382 . S
C656 C302 1.382 . S
C681 C102 1.382 . S
C686 C181 1.382 . S
C711 C221 1.382 . S
C716 C142 1.382 . S
C741 C242 1.383 . S
C746 C161 1.383 . S
C771 C201 1.382 . S
C776 C282 1.382 . S
C801 C2 0.946 . S
C806 C148 0.978 . S
C831 C22 0.946 . S
C836 C248 0.978 . S
C861 C42 0.946 . S
C866 C108 0.978 . S
C891 C62 0.946 . S
C896 C288 0.978 . S
C921 C69 0.978 . S
C926 C81 0.946 . S
C951 C101 0.946 . S
C956 C169 0.978 . S
C981 C121 0.946 . S
C986 C29 0.978 . S
C1011 C209 0.978 . S
C1016 C141 0.946 . S
C1041 C162 0.946 . S
C1046 C308 0.978 1_565 S
C1071 C88 0.978 . S
C1076 C182 0.946 . S
C1101 C268 0.978 1_545 S
C1106 C202 0.946 . S
C1131 C128 0.978 . S
C1136 C222 0.946 . S
C1161 C241 0.946 . S
C1166 C229 0.978 1_545 S
C1191 C261 0.946 . S
C1196 C9 0.978 . S
C1221 C189 0.978 1_565 S
C1226 C281 0.946 . S
C1251 C301 0.946 . S
C1256 C49 0.978 . S
C1281 C19 2.534 . S
C1286 C198 2.571 . S
C1311 C218 2.571 . S
C1316 C39 2.534 . S
C1341 C59 2.534 . S
C1346 C238 2.571 . S
C1371 C178 2.571 . S
C1376 C79 2.534 . S
C1401 C279 2.571 . S
C1406 C98 2.534 . S
C1431 C299 2.571 . S
C1436 C118 2.534 . S
C1461 C319 2.571 . S
C1466 C138 2.534 . S
C1491 C259 2.571 . S
C1496 C158 2.534 . S
C1521 C38 2.571 . S
C1526 C179 2.534 . S
C1551 C58 2.571 . S
C1556 C199 2.534 . S
C1581 C78 2.571 . S
C1586 C219 2.534 . S
C1611 C239 2.534 . S
C1616 C18 2.571 . S
C1641 C119 2.571 . S
C1646 C258 2.534 . S
C1671 C139 2.571 . S
C1676 C278 2.534 . S
C1701 C159 2.571 . S
C1706 C298 2.534 . S
C1731 C99 2.571 . S
C1736 C318 2.534 . S
