# Generated by pormake.
# Topology une, (4)-cn, num edge types: 1
# Building blocks:
#     Node 0, Type 0, BuildingBlock: ICAMEG_clean_sbu_1, # of connection points: 4
#     Node 1, Type 0, BuildingBlock: ICAMEG_clean_sbu_1, # of connection points: 4
#     Node 2, Type 0, BuildingBlock: ICAMEG_clean_sbu_1, # of connection points: 4
#     Node 3, Type 0, BuildingBlock: ICAMEG_clean_sbu_1, # of connection points: 4
#     Node 4, Type 0, BuildingBlock: ICAMEG_clean_sbu_1, # of connection points: 4
#     Node 5, Type 0, BuildingBlock: ICAMEG_clean_sbu_1, # of connection points: 4
#     Node 6, Type 0, BuildingBlock: ICAMEG_clean_sbu_1, # of connection points: 4
#     Node 7, Type 0, BuildingBlock: ICAMEG_clean_sbu_1, # of connection points: 4
#     Node 8, Type 0, BuildingBlock: ICAMEG_clean_sbu_1, # of connection points: 4
#     Node 9, Type 0, BuildingBlock: ICAMEG_clean_sbu_1, # of connection points: 4
#     Node 10, Type 0, BuildingBlock: ICAMEG_clean_sbu_1, # of connection points: 4
#     Node 11, Type 0, BuildingBlock: ICAMEG_clean_sbu_1, # of connection points: 4
#     Node 12, Type 0, BuildingBlock: ICAMEG_clean_sbu_1, # of connection points: 4
#     Node 13, Type 0, BuildingBlock: ICAMEG_clean_sbu_1, # of connection points: 4
#     Node 14, Type 0, BuildingBlock: ICAMEG_clean_sbu_1, # of connection points: 4
#     Node 15, Type 0, BuildingBlock: ICAMEG_clean_sbu_1, # of connection points: 4
#     Node 16, Type 0, BuildingBlock: ICAMEG_clean_sbu_1, # of connection points: 4
#     Node 17, Type 0, BuildingBlock: ICAMEG_clean_sbu_1, # of connection points: 4
#     Edge 18, Type (0, 0), BuildingBlock: ZUJKAS_clean_linker_0, # of connection points: 2
#     Edge 19, Type (0, 0), BuildingBlock: ZUJKAS_clean_linker_0, # of connection points: 2
#     Edge 20, Type (0, 0), BuildingBlock: ZUJKAS_clean_linker_0, # of connection points: 2
#     Edge 21, Type (0, 0), BuildingBlock: ZUJKAS_clean_linker_0, # of connection points: 2
#     Edge 22, Type (0, 0), BuildingBlock: ZUJKAS_clean_linker_0, # of connection points: 2
#     Edge 23, Type (0, 0), BuildingBlock: ZUJKAS_clean_linker_0, # of connection points: 2
#     Edge 24, Type (0, 0), BuildingBlock: ZUJKAS_clean_linker_0, # of connection points: 2
#     Edge 25, Type (0, 0), BuildingBlock: ZUJKAS_clean_linker_0, # of connection points: 2
#     Edge 26, Type (0, 0), BuildingBlock: ZUJKAS_clean_linker_0, # of connection points: 2
#     Edge 27, Type (0, 0), BuildingBlock: ZUJKAS_clean_linker_0, # of connection points: 2
#     Edge 28, Type (0, 0), BuildingBlock: ZUJKAS_clean_linker_0, # of connection points: 2
#     Edge 29, Type (0, 0), BuildingBlock: ZUJKAS_clean_linker_0, # of connection points: 2
#     Edge 30, Type (0, 0), BuildingBlock: ZUJKAS_clean_linker_0, # of connection points: 2
#     Edge 31, Type (0, 0), BuildingBlock: ZUJKAS_clean_linker_0, # of connection points: 2
#     Edge 32, Type (0, 0), BuildingBlock: ZUJKAS_clean_linker_0, # of connection points: 2
#     Edge 33, Type (0, 0), BuildingBlock: ZUJKAS_clean_linker_0, # of connection points: 2
#     Edge 34, Type (0, 0), BuildingBlock: ZUJKAS_clean_linker_0, # of connection points: 2
#     Edge 35, Type (0, 0), BuildingBlock: ZUJKAS_clean_linker_0, # of connection points: 2
#     Edge 36, Type (0, 0), BuildingBlock: ZUJKAS_clean_linker_0, # of connection points: 2
#     Edge 37, Type (0, 0), BuildingBlock: ZUJKAS_clean_linker_0, # of connection points: 2
#     Edge 38, Type (0, 0), BuildingBlock: ZUJKAS_clean_linker_0, # of connection points: 2
#     Edge 39, Type (0, 0), BuildingBlock: ZUJKAS_clean_linker_0, # of connection points: 2
#     Edge 40, Type (0, 0), BuildingBlock: ZUJKAS_clean_linker_0, # of connection points: 2
#     Edge 41, Type (0, 0), BuildingBlock: ZUJKAS_clean_linker_0, # of connection points: 2
#     Edge 42, Type (0, 0), BuildingBlock: ZUJKAS_clean_linker_0, # of connection points: 2
#     Edge 43, Type (0, 0), BuildingBlock: ZUJKAS_clean_linker_0, # of connection points: 2
#     Edge 44, Type (0, 0), BuildingBlock: ZUJKAS_clean_linker_0, # of connection points: 2
#     Edge 45, Type (0, 0), BuildingBlock: ZUJKAS_clean_linker_0, # of connection points: 2
#     Edge 46, Type (0, 0), BuildingBlock: ZUJKAS_clean_linker_0, # of connection points: 2
#     Edge 47, Type (0, 0), BuildingBlock: ZUJKAS_clean_linker_0, # of connection points: 2
#     Edge 48, Type (0, 0), BuildingBlock: ZUJKAS_clean_linker_0, # of connection points: 2
#     Edge 49, Type (0, 0), BuildingBlock: ZUJKAS_clean_linker_0, # of connection points: 2
#     Edge 50, Type (0, 0), BuildingBlock: ZUJKAS_clean_linker_0, # of connection points: 2
#     Edge 51, Type (0, 0), BuildingBlock: ZUJKAS_clean_linker_0, # of connection points: 2
#     Edge 52, Type (0, 0), BuildingBlock: ZUJKAS_clean_linker_0, # of connection points: 2
#     Edge 53, Type (0, 0), BuildingBlock: ZUJKAS_clean_linker_0, # of connection points: 2
# Relax obj value: 0.321
# Max RMSD: 0.226
# Mean RMSD: 0.209
data_MOF--net-une--node1-ICAMEG_clean_sbu_1--edge1-ZUJKAS_clean_linker_0
_symmetry_space_group_name_H-M    P1
_symmetry_Int_Tables_number       1
_symmetry_cell_setting            triclinic
loop_
_symmetry_equiv_pos_as_xyz
'x, y, z'
_cell_length_a     49.404046
_cell_length_b     50.904483
_cell_length_c     73.353836
_cell_angle_alpha  89.505267
_cell_angle_beta   89.237141
_cell_angle_gamma 119.49813
loop_
_atom_site_label
_atom_site_type_symbol
_atom_site_fract_x
_atom_site_fract_y
_atom_site_fract_z
_atom_type_partial_charge
Co0 Co 0.40733 0.08883 0.06119 0.0
Co1 Co 0.37542 0.03611 0.09587 0.0
O2 O 0.39007 0.07667 0.08579 0.0
C3 C 0.35921 0.10683 0.06362 0.0
O4 O 0.33972 0.07907 0.06903 0.0
C5 C 0.40378 0.08138 0.12576 0.0
O6 O 0.42546 0.10063 0.1145 0.0
O7 O 0.41703 0.03883 0.08982 0.0
O8 O 0.42744 0.06318 0.06269 0.0
H9 H 0.3594 0.93061 0.09613 0.0
H10 H 0.41805 0.13751 0.08704 0.0
O11 O 0.38719 0.11442 0.05932 0.0
H12 H 0.52254 0.15577 0.06915 0.0
H13 H 0.45718 0.16283 1.00888 0.0
H14 H 0.41414 0.05693 0.02932 0.0
H15 H 0.47569 0.11303 0.05657 0.0
H16 H 0.43598 0.14702 0.04017 0.0
O17 O 0.38769 0.05371 0.12125 0.0
H18 H 0.37699 0.98154 0.08338 0.0
H19 H 0.34266 1.00434 0.13054 0.0
H20 H 0.43533 0.07181 0.99797 0.0
H21 H 0.46427 0.18088 0.09965 0.0
H22 H 0.45706 0.12511 0.98757 0.0
H23 H 0.51701 0.19015 0.09081 0.0
O24 O 0.3699 0.0542 0.05097 0.0
H25 H 0.30204 0.07285 0.11628 0.0
H26 H 0.30998 0.98783 0.09035 0.0
H27 H 0.25831 0.98278 0.0957 0.0
H28 H 0.25404 0.02539 0.1089 0.0
H29 H 0.35312 0.07724 0.11028 0.0
H30 H 0.32493 0.95374 0.14386 0.0
H31 H 0.33316 0.9164 0.1266 0.0
O32 O 0.36065 0.01759 0.07145 0.0
C33 C 0.43135 0.04642 0.0742 0.0
C34 C 0.35574 0.9467 0.10381 0.0
C35 C 0.33646 0.9597 0.13061 0.0
N36 N 0.36117 0.99607 0.10625 0.0
C37 C 0.3657 0.97561 0.09667 0.0
C38 C 0.34676 0.98842 0.12304 0.0
C39 C 0.34104 0.93875 0.12091 0.0
C40 C 0.4409 0.14156 0.08294 0.0
N41 N 0.44412 0.1226 0.07114 0.0
C42 C 0.467 0.16608 0.09022 0.0
C43 C 0.49657 0.17123 0.08528 0.0
C44 C 0.49969 0.15191 0.07316 0.0
C45 C 0.47306 0.12759 0.06618 0.0
C46 C 0.44783 0.13956 1.01326 0.0
C47 C 0.42371 0.0802 0.02493 0.0
C48 C 0.43574 0.13046 0.03095 0.0
N49 N 0.42407 0.10114 0.0366 0.0
C50 C 0.4356 0.08848 1.00715 0.0
C51 C 0.44777 0.11838 1.00131 0.0
C52 C 0.35654 0.0265 0.05594 0.0
C53 C 0.30355 0.05397 0.11073 0.0
C54 C 0.30842 0.0065 0.09613 0.0
C55 C 0.27903 1.00348 0.09912 0.0
C56 C 0.27665 0.02739 0.10653 0.0
N57 N 0.33477 0.0325 0.10049 0.0
C58 C 0.33253 0.05617 0.10753 0.0
Co59 Co 0.89305 0.28376 0.03879 0.0
Co60 Co 0.94033 0.31253 0.07519 0.0
O61 O 0.90184 0.28232 0.06431 0.0
C62 C 0.88101 0.22078 0.04275 0.0
O63 O 0.91047 0.23111 0.0463 0.0
C64 C 0.88803 0.28936 0.10317 0.0
O65 O 0.8685 0.28855 0.09097 0.0
O66 O 0.93182 0.34594 0.0668 0.0
O67 O 0.9153 0.32898 0.03863 0.0
H68 H 0.04058 0.4111 0.077 0.0
H69 H 0.83999 0.24545 0.06386 0.0
O70 O 0.87061 0.23859 0.03894 0.0
H71 H 0.81428 0.31927 0.03685 0.0
H72 H 0.82663 0.24763 0.98317 0.0
H73 H 0.92934 0.32076 1.00668 0.0
H74 H 0.86313 0.32012 0.02832 0.0
H75 H 0.83798 0.24744 1.01581 0.0
O76 O 0.91731 0.30469 0.0997 0.0
H77 H 0.99268 0.37195 0.06309 0.0
H78 H 0.96939 0.31825 0.11152 0.0
H79 H 0.91891 0.32192 0.97398 0.0
H80 H 0.79058 0.24336 0.0725 0.0
H81 H 0.86724 0.28516 0.96203 0.0
H82 H 0.77751 0.28058 0.05904 0.0
O83 O 0.93265 0.2851 0.03183 0.0
H84 H 0.91441 0.20851 0.09741 0.0
H85 H 0.99762 0.3069 0.07415 0.0
H86 H 0.00999 0.26687 0.08179 0.0
H87 H 0.96829 0.21728 0.09367 0.0
H88 H 0.90292 0.24885 0.0893 0.0
H89 H 0.01692 0.35695 0.12601 0.0
H90 H 0.05299 0.40375 0.1087 0.0
O91 O 0.9645 0.31878 0.05184 0.0
C92 C 0.92704 0.35042 0.05007 0.0
C93 C 0.02504 0.39081 0.08469 0.0
C94 C 0.01173 0.36045 0.1122 0.0
N95 N 0.97811 0.34284 0.08648 0.0
C96 C 0.99785 0.36854 0.07688 0.0
C97 C 0.98473 0.33868 0.10396 0.0
C98 C 0.03198 0.38668 0.10248 0.0
C99 C 0.83432 0.26148 0.05776 0.0
N100 N 0.85451 0.28292 0.04562 0.0
C101 C 0.80637 0.2603 0.06279 0.0
C102 C 0.79909 0.28122 0.05526 0.0
C103 C 0.81974 0.30297 0.04285 0.0
C104 C 0.84748 0.30347 0.03815 0.0
C105 C 0.84922 0.2638 0.98822 0.0
C106 C 0.90674 0.30481 1.0016 0.0
C107 C 0.85579 0.26376 1.00668 0.0
N108 N 0.8842 0.28424 1.01316 0.0
C109 C 0.901 0.30552 0.98307 0.0
C110 C 0.87201 0.28488 0.97637 0.0
C111 C 0.95979 0.30312 0.03752 0.0
C112 C 0.93288 0.23015 0.09247 0.0
C113 C 0.97932 0.28551 0.07941 0.0
C114 C 0.98649 0.26286 0.08368 0.0
C115 C 0.96308 0.23505 0.09032 0.0
N116 N 0.94973 0.28077 0.08184 0.0
C117 C 0.92657 0.25329 0.08802 0.0
Co118 Co 0.72911 0.60577 0.07505 0.0
Co119 Co 0.71068 0.64611 0.10518 0.0
O120 O 0.73531 0.62724 0.09783 0.0
C121 C 0.7962 0.64926 0.07403 0.0
O122 O 0.78889 0.67012 0.07794 0.0
C123 C 0.72713 0.62257 0.13877 0.0
O124 O 0.72479 0.59938 0.12982 0.0
O125 O 0.67025 0.60661 0.10188 0.0
O126 O 0.68324 0.58971 0.07686 0.0
H127 H 0.62397 0.67038 0.09973 0.0
H128 H 0.76657 0.59675 0.10314 0.0
O129 O 0.77495 0.62188 0.07254 0.0
H130 H 0.67685 0.49574 0.09334 0.0
H131 H 0.74957 0.54404 0.02935 0.0
H132 H 0.69026 0.59644 0.04266 0.0
H133 H 0.68261 0.53999 0.07604 0.0
H134 H 0.75631 0.5705 0.05838 0.0
O135 O 0.71561 0.6381 0.13197 0.0
H136 H 0.65578 0.64757 0.0904 0.0
H137 H 0.71339 0.68517 0.13617 0.0
H138 H 0.68258 0.57003 1.01354 0.0
H139 H 0.76207 0.55303 0.12049 0.0
H140 H 0.71237 0.54359 1.00673 0.0
H141 H 0.71685 0.50209 0.11571 0.0
O142 O 0.73358 0.64127 0.06109 0.0
H143 H 0.82251 0.71423 0.12217 0.0
H144 H 0.73049 0.70933 0.09355 0.0
H145 H 0.77864 0.75825 0.09533 0.0
H146 H 0.82506 0.76102 0.10988 0.0
H147 H 0.77432 0.66576 0.11965 0.0
H148 H 0.68205 0.70817 0.14607 0.0
H149 H 0.637 0.70092 0.12778 0.0
O150 O 0.70765 0.65692 0.07926 0.0
C151 C 0.66282 0.58988 0.08765 0.0
C152 C 0.64347 0.67361 0.10786 0.0
C153 C 0.67603 0.69477 0.13388 0.0
N154 N 0.68621 0.66463 0.11283 0.0
C155 C 0.66155 0.66069 0.10266 0.0
C156 C 0.69356 0.68147 0.12827 0.0
C157 C 0.65079 0.69074 0.1236 0.0
C158 C 0.74698 0.57462 0.10085 0.0
N159 N 0.72474 0.57099 0.08868 0.0
C160 C 0.74448 0.54996 0.11078 0.0
C161 C 0.71908 0.5214 0.10812 0.0
C162 C 0.69659 0.51784 0.0956 0.0
C163 C 0.69984 0.54302 0.08594 0.0
C164 C 0.73641 0.55543 0.03218 0.0
C165 C 0.70316 0.58482 0.03985 0.0
C166 C 0.74017 0.57049 0.04858 0.0
N167 N 0.7235 0.58478 0.05227 0.0
C168 C 0.69878 0.56998 0.02331 0.0
C169 C 0.71552 0.55517 1.0195 0.0
C170 C 0.72088 0.65739 0.0641 0.0
C171 C 0.80232 0.7134 0.11601 0.0
C172 C 0.7505 0.71024 0.09993 0.0
C173 C 0.77775 0.73807 0.1009 0.0
C174 C 0.80377 0.73962 0.10906 0.0
N175 N 0.74903 0.6846 0.10701 0.0
C176 C 0.77469 0.68596 0.11477 0.0
Co177 Co 0.60882 0.8697 0.98407 0.0
Co178 Co 0.62602 0.91537 0.94609 0.0
O179 O 0.61949 0.8784 0.95829 0.0
C180 C 0.66289 0.86039 0.97918 0.0
O181 O 0.67835 0.8878 0.97217 0.0
C182 C 0.59569 0.8636 0.92025 0.0
O183 O 0.57795 0.84547 0.93343 0.0
O184 O 0.58381 0.90817 0.95519 0.0
O185 O 0.58254 0.88946 0.9833 0.0
H186 H 0.62628 0.01411 0.94165 0.0
H187 H 0.59998 0.81889 0.96059 0.0
O188 O 0.63512 0.85004 0.98516 0.0
H189 H 0.49595 0.78921 0.98633 0.0
H190 H 0.58095 0.80546 0.04123 0.0
H191 H 0.60321 0.90384 1.01509 0.0
H192 H 0.54129 0.83779 0.99426 0.0
H193 H 0.59341 0.81678 1.00843 0.0
O194 O 0.60967 0.89214 0.92261 0.0
H195 H 0.61919 0.96785 0.957 0.0
H196 H 0.64654 0.94157 0.90844 0.0
H197 H 0.59061 0.89337 0.04792 0.0
H198 H 0.55542 0.76984 0.9526 0.0
H199 H 0.57936 0.84387 0.06119 0.0
H200 H 0.50288 0.75477 0.96541 0.0
O201 O 0.64505 0.90895 0.99056 0.0
H202 H 0.70472 0.88771 0.9221 0.0
H203 H 0.68886 0.97021 0.94452 0.0
H204 H 0.74144 0.98104 0.93515 0.0
H205 H 0.74965 0.93968 0.92368 0.0
H206 H 0.6528 0.87774 0.93202 0.0
H207 H 0.65366 0.98741 0.89253 0.0
H208 H 0.6436 0.02414 0.90915 0.0
O209 O 0.64474 0.93953 0.96843 0.0
C210 C 0.57314 0.90196 0.97174 0.0
C211 C 0.63065 0.99824 0.93423 0.0
C212 C 0.64595 0.98323 0.90666 0.0
N213 N 0.63208 0.95178 0.93362 0.0
C214 C 0.62663 0.97196 0.94286 0.0
C215 C 0.64165 0.95716 0.91573 0.0
C216 C 0.64036 1.00385 0.916 0.0
C217 C 0.57728 0.8124 0.9664 0.0
N218 N 0.57324 0.83134 0.97779 0.0
C219 C 0.55209 0.78463 0.96174 0.0
C220 C 0.52262 0.77623 0.9689 0.0
C221 C 0.5187 0.79557 0.9806 0.0
C222 C 0.54442 0.82317 0.98494 0.0
C223 C 0.58574 0.82709 0.0356 0.0
C224 C 0.59815 0.88218 0.02074 0.0
C225 C 0.59287 0.83365 1.01705 0.0
N226 N 0.59877 0.86085 1.00983 0.0
C227 C 0.59112 0.87641 0.03935 0.0
C228 C 0.58485 0.84865 0.04679 0.0
C229 C 0.65394 0.93514 0.98377 0.0
C230 C 0.70141 0.90601 0.92688 0.0
C231 C 0.69213 0.95205 0.93956 0.0
C232 C 0.72202 0.95834 0.93426 0.0
C233 C 0.72661 0.93514 0.92782 0.0
N234 N 0.66738 0.92349 0.93838 0.0
C235 C 0.67188 0.90056 0.93234 0.0
Co236 Co 0.11964 0.69821 0.96405 0.0
Co237 Co 0.06526 0.68561 0.93175 0.0
O238 O 0.10783 0.70755 0.9406 0.0
C239 C 0.14356 0.76359 0.96507 0.0
O240 O 0.11561 0.7576 0.96031 0.0
C241 C 0.1097 0.70556 0.89912 0.0
O242 O 0.13108 0.70425 0.90886 0.0
O243 O 0.06522 0.6459 0.93471 0.0
O244 O 0.08918 0.6542 0.96165 0.0
H245 H 0.95428 0.60131 0.93259 0.0
H246 H 0.17099 0.73525 0.93771 0.0
O247 O 0.14967 0.74219 0.96718 0.0
H248 H 0.17753 0.64281 0.94852 0.0
H249 H 0.1954 0.70979 1.01274 0.0
H250 H 0.08505 0.65846 0.9957 0.0
H251 H 0.13716 0.64991 0.96413 0.0
H252 H 0.1799 0.72011 0.98286 0.0
O253 O 0.08167 0.69323 0.90536 0.0
H254 H 0.00779 0.63001 0.94373 0.0
H255 H 0.03205 0.6938 0.90028 0.0
H256 H 0.09954 0.64732 0.02565 0.0
H257 H 0.21207 0.7293 0.92204 0.0
H258 H 0.15508 0.67307 0.03434 0.0
H259 H 0.21543 0.68274 0.92734 0.0
O260 O 0.08677 0.70323 0.9766 0.0
H261 H 0.10888 0.79621 0.91633 0.0
H262 H 0.01929 0.70473 0.94256 0.0
H263 H 0.01746 0.75214 0.9409 0.0
H264 H 0.06233 0.79829 0.92754 0.0
H265 H 0.11019 0.74873 0.91877 0.0
H266 H 0.97889 0.66562 0.88854 0.0
H267 H 0.9395 0.61906 0.90478 0.0
O268 O 0.04758 0.67959 0.95722 0.0
C269 C 0.07122 0.63637 0.94964 0.0
C270 C 0.97124 0.62154 0.92538 0.0
C271 C 0.98506 0.6576 0.90065 0.0
N272 N 0.02317 0.66351 0.92265 0.0
C273 C 1.00161 0.63791 0.93164 0.0
C274 C 0.01522 0.67337 0.9073 0.0
C275 C 0.96297 0.6315 0.90977 0.0
C276 C 0.17247 0.71505 0.94022 0.0
N277 N 0.1516 0.69291 0.95176 0.0
C278 C 0.1957 0.71175 0.93125 0.0
C279 C 0.19755 0.6856 0.9342 0.0
C280 C 0.17625 0.66316 0.94605 0.0
C281 C 0.15331 0.66723 0.95478 0.0
C282 C 0.17114 0.69837 1.00909 0.0
C283 C 0.10929 0.66962 0.99933 0.0
C284 C 0.16222 0.70415 0.99221 0.0
N285 N 0.13164 0.6897 0.98748 0.0
C286 C 0.11734 0.66328 1.01633 0.0
C287 C 0.1485 0.67776 0.0212 0.0
C288 C 0.05809 0.69103 0.97272 0.0
C289 C 0.08899 0.77616 0.92196 0.0
C290 C 0.03897 0.72465 0.93671 0.0
C291 C 0.03776 0.75147 0.93581 0.0
C292 C 0.06293 0.77734 0.92831 0.0
N293 N 0.06442 0.72346 0.9302 0.0
C294 C 0.0894 0.74895 0.92313 0.0
Co295 Co 0.32003 0.42634 0.9748 0.0
Co296 Co 0.30771 0.35704 0.96027 0.0
O297 O 0.33085 0.39413 0.97385 0.0
C298 C 0.39059 0.45566 0.97366 0.0
O299 O 0.38893 0.43399 0.96338 0.0
C300 C 0.30705 0.33329 0.99722 0.0
O301 O 0.29698 0.35109 1.00348 0.0
O302 O 0.26785 0.3495 0.97175 0.0
O303 O 0.27462 0.39619 0.97464 0.0
H304 H 0.22049 0.2842 0.92131 0.0
H305 H 0.36035 0.42023 1.00274 0.0
O306 O 0.36617 0.45796 0.9764 0.0
H307 H 0.27341 0.41859 0.0374 0.0
H308 H 0.33315 0.52578 0.99614 0.0
H309 H 0.2715 0.43697 0.95839 0.0
H310 H 0.27612 0.42361 1.0039 0.0
H311 H 0.34559 0.48458 0.99471 0.0
O312 O 0.31319 0.33349 0.9803 0.0
H313 H 0.25026 0.33095 0.9385 0.0
H314 H 0.31542 0.30337 0.95343 0.0
H315 H 0.25809 0.47756 0.95947 0.0
H316 H 0.35877 0.41568 0.03617 0.0
H317 H 0.28908 0.52246 0.97844 0.0
H318 H 0.31503 0.41475 0.05379 0.0
O319 O 0.31851 0.42824 0.94701 0.0
H320 H 0.41893 0.37982 0.96015 0.0
H321 H 0.32915 0.35798 0.92194 0.0
H322 H 0.37839 0.36729 0.90731 0.0
H323 H 0.42371 0.3782 0.92648 0.0
H324 H 0.36941 0.37096 0.97416 0.0
H325 H 0.28612 0.25612 0.93654 0.0
H326 H 0.23837 0.24636 0.92025 0.0
O327 O 0.30103 0.37949 0.94021 0.0
C328 C 0.25745 0.36754 0.97478 0.0
C329 C 0.24131 0.28822 0.9283 0.0
C330 C 0.27813 0.27246 0.93688 0.0
N331 N 0.2847 0.32001 0.94686 0.0
C332 C 0.25833 0.31471 0.93803 0.0
C333 C 0.29458 0.29921 0.94646 0.0
C334 C 0.25134 0.267 0.92773 0.0
C335 C 0.34158 0.42054 1.01022 0.0
N336 N 0.3188 0.42302 1.00128 0.0
C337 C 0.34065 0.41765 0.0292 0.0
C338 C 0.31607 0.41705 0.03907 0.0
C339 C 0.29272 0.4192 0.02989 0.0
C340 C 0.29441 0.42207 1.0109 0.0
C341 C 0.31966 0.50648 0.98767 0.0
C342 C 0.28535 0.45655 0.96645 0.0
C343 C 0.32679 0.48316 0.98666 0.0
N344 N 0.30982 0.45864 0.97605 0.0
C345 C 0.27753 0.47942 0.96712 0.0
C346 C 0.2949 0.50458 0.97777 0.0
C347 C 0.30593 0.40584 0.936 0.0
C348 C 0.39936 0.3751 0.95165 0.0
C349 C 0.34888 0.36318 0.93033 0.0
C350 C 0.37665 0.3682 0.92199 0.0
C351 C 0.40204 0.37424 0.93276 0.0
N352 N 0.34648 0.36421 0.94886 0.0
C353 C 0.37121 0.36992 0.95951 0.0
Co354 Co 0.07518 0.4252 0.39493 0.0
Co355 Co 0.04521 0.37311 0.43013 0.0
O356 O 0.05912 0.41336 0.41979 0.0
C357 C 0.02628 0.44206 0.39824 0.0
O358 O 1.00739 0.41419 0.40371 0.0
C359 C 0.07479 0.41917 0.45947 0.0
O360 O 0.09565 0.43853 0.44788 0.0
O361 O 0.08645 0.37575 0.4231 0.0
O362 O 0.09595 0.40009 0.39601 0.0
H363 H 0.02986 0.26788 0.43034 0.0
H364 H 0.08633 0.47431 0.42057 0.0
O365 O 0.05423 0.45014 0.39351 0.0
H366 H 0.19053 0.49355 0.40113 0.0
H367 H 0.12136 0.49857 0.34202 0.0
H368 H 0.08143 0.39329 0.36287 0.0
H369 H 0.14344 0.45008 0.38933 0.0
H370 H 0.10185 0.483 0.37362 0.0
O371 O 0.05921 0.39133 0.45521 0.0
H372 H 0.04617 0.31842 0.41737 0.0
H373 H 0.01505 0.34207 0.46553 0.0
H374 H 0.10093 0.40793 0.33121 0.0
H375 H 0.13278 0.51838 0.43242 0.0
H376 H 0.12109 0.46092 0.3206 0.0
H377 H 0.18537 0.52815 0.42279 0.0
O378 O 0.03767 0.39005 0.38521 0.0
H379 H 0.97324 0.41088 0.45172 0.0
H380 H 0.97931 0.32413 0.42714 0.0
H381 H 0.92805 0.31917 0.43388 0.0
H382 H 0.92474 0.36267 0.44644 0.0
H383 H 0.02385 0.41509 0.44441 0.0
H384 H 0.99869 0.29189 0.47907 0.0
H385 H 1.00595 0.25432 0.46142 0.0
O386 O 0.02866 0.35397 0.40608 0.0
C387 C 0.10024 0.38335 0.40733 0.0
C388 C 0.02662 0.28407 0.43818 0.0
C389 C 0.00919 0.29757 0.46554 0.0
N390 N 0.03182 0.33335 0.44071 0.0
C391 C 0.03582 0.31275 0.43091 0.0
C392 C 0.01872 0.32606 0.45784 0.0
C393 C 0.01323 0.27648 0.45562 0.0
C394 C 0.1091 0.47856 0.41613 0.0
N395 N 0.11212 0.45949 0.40433 0.0
C396 C 0.13534 0.50349 0.42297 0.0
C397 C 0.16484 0.50892 0.4176 0.0
C398 C 0.16774 0.48947 0.40548 0.0
C399 C 0.14098 0.46475 0.39894 0.0
C400 C 0.11269 0.47543 0.34649 0.0
C401 C 0.09033 0.41643 0.35839 0.0
C402 C 0.10156 0.46647 0.36436 0.0
N403 N 0.09073 0.43732 0.37012 0.0
C404 C 0.10127 0.42457 0.34043 0.0
C405 C 0.11254 0.45429 0.33448 0.0
C406 C 0.0243 0.36251 0.3905 0.0
C407 C 0.97437 0.39161 0.44649 0.0
C408 C 0.97818 0.34319 0.43258 0.0
C409 C 0.94902 0.34022 0.4364 0.0
C410 C 0.94717 0.36462 0.44345 0.0
N411 N 1.00486 0.36961 0.43582 0.0
C412 C 1.00311 0.39374 0.44251 0.0
Co413 Co 0.55817 0.61974 0.3689 0.0
Co414 Co 0.60394 0.64494 0.40647 0.0
O415 O 0.56585 0.61598 0.39448 0.0
C416 C 0.54626 0.55707 0.37227 0.0
O417 O 0.57412 0.5679 0.37906 0.0
C418 C 0.55047 0.62034 0.43388 0.0
O419 O 0.53113 0.61898 0.42138 0.0
O420 O 0.59684 0.67959 0.39882 0.0
O421 O 0.57983 0.66481 0.3704 0.0
H422 H 0.70588 0.74134 0.41101 0.0
H423 H 0.50426 0.57812 0.39242 0.0
O424 O 0.53654 0.57484 0.36706 0.0
H425 H 0.47792 0.65349 0.36868 0.0
H426 H 0.49454 0.58912 0.31204 0.0
H427 H 0.59569 0.66019 0.33822 0.0
H428 H 0.52752 0.65607 0.35993 0.0
H429 H 0.50438 0.58554 0.3446 0.0
O430 O 0.57981 0.63603 0.43069 0.0
H431 H 0.6583 0.70407 0.3959 0.0
H432 H 0.63064 0.64757 0.44325 0.0
H433 H 0.58674 0.66475 0.30563 0.0
H434 H 0.45411 0.57429 0.40124 0.0
H435 H 0.53585 0.62904 0.29234 0.0
H436 H 0.44072 0.61227 0.38944 0.0
O437 O 0.59821 0.62201 0.36186 0.0
H438 H 0.57523 0.53951 0.42739 0.0
H439 H 0.66027 0.63777 0.40522 0.0
H440 H 0.67135 0.59673 0.41244 0.0
H441 H 0.62873 0.54721 0.42378 0.0
H442 H 0.56501 0.58077 0.4196 0.0
H443 H 0.67779 0.68433 0.45892 0.0
H444 H 0.71589 0.73162 0.44277 0.0
O445 O 0.62917 0.65241 0.38347 0.0
C446 C 0.5919 0.6853 0.38239 0.0
C447 C 0.6894 0.72089 0.41822 0.0
C448 C 0.6736 0.68892 0.44511 0.0
N449 N 0.6414 0.6738 0.41873 0.0
C450 C 0.66235 0.6997 0.40974 0.0
C451 C 0.64678 0.66827 0.4362 0.0
C452 C 0.695 0.71542 0.43604 0.0
C453 C 0.49853 0.5946 0.3871 0.0
N454 N 0.519 0.6175 0.37581 0.0
C455 C 0.47013 0.59238 0.3922 0.0
C456 C 0.46265 0.61372 0.3856 0.0
C457 C 0.48354 0.63689 0.37399 0.0
C458 C 0.51174 0.6384 0.3692 0.0
C459 C 0.51678 0.60485 0.31768 0.0
C460 C 0.57342 0.64469 0.33256 0.0
C461 C 0.52251 0.60289 0.3361 0.0
N462 N 0.55049 0.6228 0.34333 0.0
C463 C 0.56852 0.64733 0.31409 0.0
C464 C 0.53997 0.62726 0.30664 0.0
C465 C 0.62504 0.63882 0.36836 0.0
C466 C 0.59411 0.56111 0.4227 0.0
C467 C 0.64155 0.61637 0.41021 0.0
C468 C 0.648 0.59318 0.41426 0.0
C469 C 0.62409 0.56541 0.42061 0.0
N470 N 0.61216 0.61221 0.41255 0.0
C471 C 0.58853 0.58481 0.41848 0.0
Co472 Co 0.39888 0.93848 0.40672 0.0
Co473 Co 0.37962 0.97815 0.43689 0.0
O474 O 0.40464 0.95971 0.42956 0.0
C475 C 0.46585 0.98248 0.40606 0.0
O476 O 0.4581 1.00313 0.40972 0.0
C477 C 0.39619 0.95476 0.47049 0.0
O478 O 0.39423 0.93175 0.4615 0.0
O479 O 0.33949 0.93844 0.43347 0.0
O480 O 0.35289 0.92203 0.40838 0.0
H481 H 0.29212 1.00126 0.43131 0.0
H482 H 0.43632 0.9296 0.43491 0.0
O483 O 0.44485 0.95502 0.40444 0.0
H484 H 0.34724 0.82836 0.42468 0.0
H485 H 0.42071 0.87773 0.361 0.0
H486 H 0.36024 0.929 0.3742 0.0
H487 H 0.35278 0.87261 0.40749 0.0
H488 H 0.42687 0.9039 0.39008 0.0
O489 O 0.38448 0.9701 0.46368 0.0
H490 H 0.32445 0.979 0.42202 0.0
H491 H 0.38166 0.01687 0.46791 0.0
H492 H 0.35316 0.90288 0.34503 0.0
H493 H 0.43203 0.88588 0.45215 0.0
H494 H 0.38354 0.87701 0.33827 0.0
H495 H 0.38714 0.83482 0.44716 0.0
O496 O 0.40307 0.97394 0.39282 0.0
H497 H 0.49115 0.04702 0.45412 0.0
H498 H 0.39884 0.04129 0.42537 0.0
H499 H 0.44667 0.09045 0.42727 0.0
H500 H 0.49324 0.09364 0.44189 0.0
H501 H 0.44327 0.99832 0.45148 0.0
H502 H 0.3498 0.03934 0.47778 0.0
H503 H 0.30469 0.03167 0.4594 0.0
O504 O 0.37658 0.98896 0.41098 0.0
C505 C 0.33229 0.92188 0.41917 0.0
C506 C 0.31164 1.00468 0.43948 0.0
C507 C 0.34398 0.02599 0.46557 0.0
N508 N 0.35472 0.99624 0.44451 0.0
C509 C 0.33002 0.99206 0.4343 0.0
C510 C 0.36181 0.013 0.45997 0.0
C511 C 0.3187 0.02173 0.45524 0.0
C512 C 0.41687 0.90742 0.43252 0.0
N513 N 0.3947 0.90372 0.42028 0.0
C514 C 0.41449 0.88276 0.44239 0.0
C515 C 0.38927 0.85413 0.43961 0.0
C516 C 0.36684 0.8505 0.42703 0.0
C517 C 0.36997 0.87569 0.41743 0.0
C518 C 0.4073 0.88887 0.3638 0.0
C519 C 0.3734 0.91763 0.37141 0.0
C520 C 0.41073 0.90377 0.38023 0.0
N521 N 0.39373 0.91774 0.3839 0.0
C522 C 0.36936 0.90296 0.35484 0.0
C523 C 0.38643 0.88846 0.35105 0.0
C524 C 0.38994 0.98967 0.39582 0.0
C525 C 0.47089 0.04601 0.44793 0.0
C526 C 0.41891 0.04238 0.43178 0.0
C527 C 0.44598 0.07035 0.43282 0.0
C528 C 0.47208 0.07213 0.44101 0.0
N529 N 0.4177 0.01684 0.43882 0.0
C530 C 0.44344 0.01843 0.44662 0.0
Co531 Co 0.2757 0.20273 0.31821 0.0
Co532 Co 0.29371 0.24895 0.28055 0.0
O533 O 0.28643 0.21153 0.29246 0.0
C534 C 0.32864 0.19192 0.31294 0.0
O535 O 0.3444 0.21936 0.306 0.0
C536 C 0.26326 0.19772 0.25437 0.0
O537 O 0.24494 0.17966 0.26739 0.0
O538 O 0.25152 0.24199 0.28945 0.0
O539 O 0.25043 0.22364 0.31764 0.0
H540 H 0.29522 0.34832 0.27658 0.0
H541 H 0.26515 0.15161 0.29452 0.0
O542 O 0.301 0.18197 0.31906 0.0
H543 H 0.16197 0.1246 0.32054 0.0
H544 H 0.24641 0.13784 0.37514 0.0
H545 H 0.27151 0.2373 0.34942 0.0
H546 H 0.20825 0.17243 0.3285 0.0
H547 H 0.25892 0.14927 0.34236 0.0
O548 O 0.2777 0.22624 0.25685 0.0
H549 H 0.28719 0.30153 0.29167 0.0
H550 H 0.31541 0.27589 0.24318 0.0
H551 H 0.25888 0.22674 0.38224 0.0
H552 H 0.21962 0.10328 0.28648 0.0
H553 H 0.2462 0.1767 0.39531 0.0
H554 H 0.16751 0.08956 0.29943 0.0
O555 O 0.31274 0.24133 0.32468 0.0
H556 H 0.37226 0.22113 0.25648 0.0
H557 H 0.35687 0.30328 0.28013 0.0
H558 H 0.40954 0.31389 0.27115 0.0
H559 H 0.41752 0.27272 0.25907 0.0
H560 H 0.32024 0.21135 0.26602 0.0
H561 H 0.32352 0.32229 0.22753 0.0
H562 H 0.31349 0.35897 0.24425 0.0
O563 O 0.31214 0.27258 0.30314 0.0
C564 C 0.24112 0.23622 0.30606 0.0
C565 C 0.29958 0.33248 0.26912 0.0
C566 C 0.31541 0.31784 0.24159 0.0
N567 N 0.30048 0.28577 0.2683 0.0
C568 C 0.29503 0.3059 0.2776 0.0
C569 C 0.31056 0.29147 0.2505 0.0
C570 C 0.30982 0.33843 0.25099 0.0
C571 C 0.24264 0.1457 0.30039 0.0
N572 N 0.23937 0.16497 0.31189 0.0
C573 C 0.2169 0.11834 0.2957 0.0
C574 C 0.18766 0.11069 0.30294 0.0
C575 C 0.18453 0.13037 0.31475 0.0
C576 C 0.21079 0.15755 0.31911 0.0
C577 C 0.25183 0.1597 0.36961 0.0
C578 C 0.26583 0.2154 0.35498 0.0
C579 C 0.25899 0.16632 0.35106 0.0
N580 N 0.26567 0.19383 0.34396 0.0
C581 C 0.25878 0.20959 0.37359 0.0
C582 C 0.25171 0.18152 0.38091 0.0
C583 C 0.3219 0.26771 0.31814 0.0
C584 C 0.36905 0.23937 0.2615 0.0
C585 C 0.36003 0.28521 0.27485 0.0
C586 C 0.38998 0.29137 0.26979 0.0
C587 C 0.39444 0.26828 0.26301 0.0
N588 N 0.33511 0.25688 0.2731 0.0
C589 C 0.33946 0.23404 0.26673 0.0
Co590 Co 0.79038 0.03618 0.2965 0.0
Co591 Co 0.73209 0.01807 0.266 0.0
O592 O 0.77504 0.04282 0.27366 0.0
C593 C 0.8089 0.1007 0.2981 0.0
O594 O 0.77957 0.09284 0.2959 0.0
C595 C 0.77491 0.03686 0.23291 0.0
O596 O 0.79577 0.03382 0.24215 0.0
O597 O 0.73479 0.97969 0.26934 0.0
O598 O 0.76317 0.99154 0.29474 0.0
H599 H 0.62308 0.9304 0.27033 0.0
H600 H 0.8376 0.07537 0.2686 0.0
O601 O 0.81741 0.08082 0.29872 0.0
H602 H 0.85633 0.98984 0.2789 0.0
H603 H 0.87281 0.05691 0.34262 0.0
H604 H 0.76136 0.99623 0.32894 0.0
H605 H 0.81443 0.99273 0.29579 0.0
H606 H 0.85278 0.06395 0.31342 0.0
O607 O 0.74711 0.02536 0.23939 0.0
H608 H 0.67701 0.96228 0.28019 0.0
H609 H 0.69561 0.02133 0.23469 0.0
H610 H 0.78043 0.98828 0.35823 0.0
H611 H 0.88015 0.07369 0.25169 0.0
H612 H 0.83654 0.01876 0.36522 0.0
H613 H 0.88964 0.0306 0.25671 0.0
O614 O 0.75648 0.03797 0.31023 0.0
H615 H 0.76906 0.12711 0.2495 0.0
H616 H 0.6839 0.03399 0.2773 0.0
H617 H 0.67898 0.07979 0.27565 0.0
H618 H 0.72165 0.12676 0.26154 0.0
H619 H 0.77334 0.08114 0.25179 0.0
H620 H 0.64195 0.98995 0.22427 0.0
H621 H 0.60521 0.94414 0.24216 0.0
O622 O 0.71614 0.01259 0.29181 0.0
C623 C 0.74409 0.97206 0.28378 0.0
C624 C 0.63889 0.95025 0.26238 0.0
C625 C 0.6495 0.98364 0.23652 0.0
N626 N 0.68963 0.9935 0.25795 0.0
C627 C 0.6695 0.96839 0.26789 0.0
C628 C 0.67996 1.00122 0.24243 0.0
C629 C 0.62888 0.95797 0.24658 0.0
C630 C 0.84178 0.05671 0.27103 0.0
N631 N 0.82342 0.0341 0.28312 0.0
C632 C 0.86582 0.05581 0.26133 0.0
C633 C 0.87109 0.03159 0.26413 0.0
C634 C 0.85237 0.00869 0.27655 0.0
C635 C 0.82852 0.01033 0.28599 0.0
C636 C 0.84833 0.04345 0.33971 0.0
C637 C 0.78584 0.00944 0.33183 0.0
C638 C 0.83685 0.04736 0.32322 0.0
N639 N 0.80598 0.03031 0.31941 0.0
C640 C 0.79649 1.0049 0.34846 0.0
C641 C 0.82797 0.02203 0.35238 0.0
C642 C 0.72745 0.02452 0.30709 0.0
C643 C 0.75014 0.10669 0.25549 0.0
C644 C 0.70257 0.05427 0.27109 0.0
C645 C 0.69964 0.08017 0.27021 0.0
C646 C 0.72358 0.10651 0.26229 0.0
N647 N 0.72851 0.05444 0.26417 0.0
C648 C 0.75227 0.08038 0.25664 0.0
Co649 Co 0.98774 0.75913 0.3079 0.0
Co650 Co 0.97384 0.68871 0.29472 0.0
O651 O 0.99768 0.72632 0.3077 0.0
C652 C 0.05814 0.78716 0.30647 0.0
O653 O 0.05582 0.76495 0.29647 0.0
C654 C 0.97287 0.66616 0.33211 0.0
O655 O 0.96314 0.68442 0.33801 0.0
O656 O 0.93434 0.6824 0.3061 0.0
O657 O 0.94216 0.72959 0.30811 0.0
H658 H 0.8855 0.61476 0.25684 0.0
H659 H 0.02778 0.75337 0.33618 0.0
O660 O 0.03412 0.79016 0.30913 0.0
H661 H 0.94234 0.75547 0.37034 0.0
H662 H 1.00318 0.86039 0.32713 0.0
H663 H 0.9398 0.77004 0.29091 0.0
H664 H 0.94471 0.75887 0.33678 0.0
H665 H 0.01458 0.81846 0.32669 0.0
O666 O 0.97903 0.66575 0.31524 0.0
H667 H 0.91609 0.66227 0.27322 0.0
H668 H 0.98048 0.63419 0.28899 0.0
H669 H 0.92745 0.81137 0.29103 0.0
H670 H 0.02654 0.75041 0.36966 0.0
H671 H 0.95931 0.85704 0.30922 0.0
H672 H 0.98355 0.75137 0.38703 0.0
O673 O 0.98593 0.75975 0.28008 0.0
H674 H 0.08437 0.70943 0.29482 0.0
H675 H 0.99476 0.68781 0.25651 0.0
H676 H 0.04353 0.6956 0.24201 0.0
H677 H 0.08876 0.70639 0.26122 0.0
H678 H 0.03533 0.70206 0.3087 0.0
H679 H 0.95037 0.58621 0.27294 0.0
H680 H 0.90258 0.57631 0.25664 0.0
O681 O 0.96737 0.71054 0.27421 0.0
C682 C 0.92452 0.70101 0.30872 0.0
C683 C 0.90633 0.61884 0.26385 0.0
C684 C 0.94272 0.60281 0.2729 0.0
N685 N 0.95019 0.65112 0.28194 0.0
C686 C 0.92381 0.64575 0.27311 0.0
C687 C 0.95963 0.62999 0.28201 0.0
C688 C 0.91591 0.59727 0.26376 0.0
C689 C 0.00933 0.75447 0.34353 0.0
N690 N 0.98679 0.75709 0.33442 0.0
C691 C 0.0086 0.75249 0.36255 0.0
C692 C 0.98444 0.75295 0.37229 0.0
C693 C 0.96132 0.75525 0.36293 0.0
C694 C 0.96282 0.7572 0.34391 0.0
C695 C 0.98931 0.84074 0.31901 0.0
C696 C 0.95401 0.78992 0.29866 0.0
C697 C 0.99584 0.81699 0.31856 0.0
N698 N 0.97837 0.79202 0.30838 0.0
C699 C 0.9468 0.81323 0.29877 0.0
C700 C 0.96466 0.83883 0.30899 0.0
C701 C 0.97271 0.73684 0.26949 0.0
C702 C 0.06483 0.70473 0.2863 0.0
C703 C 0.01445 0.69294 0.26492 0.0
C704 C 0.04195 0.6971 0.25665 0.0
C705 C 0.0673 0.70308 0.26745 0.0
N706 N 0.01225 0.69471 0.28341 0.0
C707 C 0.03694 0.70039 0.29409 0.0
Co708 Co 0.73959 0.75938 0.72731 0.0
Co709 Co 0.70942 0.70524 0.76115 0.0
O710 O 0.72284 0.746 0.75187 0.0
C711 C 0.69063 0.77608 0.73114 0.0
O712 O 0.67164 0.74797 0.73611 0.0
C713 C 0.73764 0.74949 0.79145 0.0
O714 O 0.75945 0.76892 0.78033 0.0
O715 O 0.75156 0.70968 0.7547 0.0
O716 O 0.76049 0.73429 0.72776 0.0
H717 H 0.6972 0.60124 0.75925 0.0
H718 H 0.75005 0.80669 0.75417 0.0
O719 O 0.71867 0.78439 0.72651 0.0
H720 H 0.85474 0.82743 0.73469 0.0
H721 H 0.78706 0.8357 0.67592 0.0
H722 H 0.74636 0.72928 0.6945 0.0
H723 H 0.808 0.78474 0.72198 0.0
H724 H 0.76684 0.81837 0.70723 0.0
O725 O 0.72147 0.72196 0.7867 0.0
H726 H 0.71299 0.65232 0.74741 0.0
H727 H 0.67763 0.67149 0.79554 0.0
H728 H 0.76658 0.74569 0.66311 0.0
H729 H 0.79615 0.84997 0.76695 0.0
H730 H 0.78713 0.79925 0.65364 0.0
H731 H 0.84899 0.86049 0.7573 0.0
O732 O 0.70223 0.72487 0.717 0.0
H733 H 0.63344 0.73751 0.7836 0.0
H734 H 0.64467 0.65589 0.7552 0.0
H735 H 0.59228 0.64877 0.76117 0.0
H736 H 0.58637 0.68966 0.77561 0.0
H737 H 0.68526 0.74399 0.77698 0.0
H738 H 0.66168 0.62069 0.80795 0.0
H739 H 0.67136 0.58511 0.78975 0.0
O740 O 0.6949 0.68762 0.73648 0.0
C741 C 0.76534 0.71774 0.73895 0.0
C742 C 0.69291 0.61656 0.76733 0.0
C743 C 0.67303 0.62749 0.79468 0.0
N744 N 0.6965 0.66503 0.7708 0.0
C745 C 0.70183 0.64555 0.7607 0.0
C746 C 0.68231 0.65633 0.78761 0.0
C747 C 0.67842 0.60753 0.78445 0.0
C748 C 0.77293 0.81129 0.74972 0.0
N749 N 0.77628 0.79307 0.73738 0.0
C750 C 0.79897 0.83575 0.75709 0.0
C751 C 0.82861 0.8416 0.7517 0.0
C752 C 0.83185 0.82302 0.73904 0.0
C753 C 0.80528 0.79874 0.73198 0.0
C754 C 0.77823 0.81232 0.67989 0.0
C755 C 0.75543 0.75267 0.69052 0.0
C756 C 0.7667 0.80236 0.69759 0.0
N757 N 0.75568 0.77291 0.70272 0.0
C758 C 0.76677 0.7618 0.67271 0.0
C759 C 0.77827 0.79186 0.6674 0.0
C760 C 0.68974 0.697 0.72142 0.0
C761 C 0.63569 0.71937 0.77751 0.0
C762 C 0.64238 0.67382 0.76151 0.0
C763 C 0.61261 0.66963 0.76486 0.0
C764 C 0.6093 0.69257 0.77297 0.0
N765 N 0.66823 0.70003 0.76621 0.0
C766 C 0.66509 0.72276 0.77393 0.0
Co767 Co 0.2251 0.95363 0.70269 0.0
Co768 Co 0.27106 0.97952 0.74013 0.0
O769 O 0.23296 0.95032 0.72828 0.0
C770 C 0.21354 0.89111 0.70638 0.0
O771 O 0.24166 0.90216 0.71283 0.0
C772 C 0.21774 0.95511 0.76763 0.0
O773 O 0.19824 0.95344 0.75514 0.0
O774 O 0.26381 0.01396 0.73226 0.0
O775 O 0.24663 0.99873 0.70392 0.0
H776 H 0.37282 0.07623 0.74419 0.0
H777 H 0.17137 0.91224 0.72642 0.0
O778 O 0.20359 0.90869 0.70116 0.0
H779 H 0.14456 0.987 0.7022 0.0
H780 H 0.16105 0.92183 0.646 0.0
H781 H 0.26227 0.99369 0.67178 0.0
H782 H 0.1942 0.98964 0.69349 0.0
H783 H 0.17119 0.91882 0.67858 0.0
O784 O 0.24705 0.97095 0.76436 0.0
H785 H 0.3252 0.03861 0.72927 0.0
H786 H 0.29803 0.98279 0.7769 0.0
H787 H 0.25303 0.99768 0.63917 0.0
H788 H 0.12119 0.90835 0.7352 0.0
H789 H 0.2021 0.96157 0.62608 0.0
H790 H 0.10756 0.94603 0.72316 0.0
O791 O 0.26519 0.95599 0.69564 0.0
H792 H 0.24266 0.87448 0.76175 0.0
H793 H 0.32749 0.97248 0.73909 0.0
H794 H 0.33874 0.93169 0.74674 0.0
H795 H 0.29623 0.88232 0.75834 0.0
H796 H 0.23226 0.91545 0.75349 0.0
H797 H 0.34521 0.01991 0.79239 0.0
H798 H 0.38309 0.06702 0.776 0.0
O799 O 0.29621 0.98668 0.71712 0.0
C800 C 0.25872 0.0194 0.7158 0.0
C801 C 0.35644 0.05584 0.75151 0.0
C802 C 0.34092 0.02427 0.77856 0.0
N803 N 0.30855 0.00865 0.75225 0.0
C804 C 0.32937 0.03446 0.74313 0.0
C805 C 0.31408 1.00341 0.76975 0.0
C806 C 0.36218 0.05067 0.76935 0.0
C807 C 0.16554 0.92858 0.72098 0.0
N808 N 0.1859 0.95135 0.70958 0.0
C809 C 0.13712 0.92633 0.72607 0.0
C810 C 0.12951 0.9475 0.71934 0.0
C811 C 0.15029 0.97054 0.70762 0.0
C812 C 0.17851 0.97209 0.70284 0.0
C813 C 0.18331 0.93773 0.65155 0.0
C814 C 0.23999 0.97801 0.66621 0.0
C815 C 0.18921 0.9361 0.66998 0.0
N816 N 0.2172 0.95622 0.6771 0.0
C817 C 0.23492 0.98032 0.64772 0.0
C818 C 0.20635 0.96004 0.64039 0.0
C819 C 0.29204 0.97295 0.70206 0.0
C820 C 0.26149 0.89602 0.75695 0.0
C821 C 0.30882 0.95114 0.74418 0.0
C822 C 0.31536 0.92809 0.74847 0.0
C823 C 0.29151 0.9004 0.75498 0.0
N824 N 0.2794 0.94692 0.74644 0.0
C825 C 0.25581 0.91957 0.75247 0.0
Co826 Co 0.06456 0.27124 0.74088 0.0
Co827 Co 0.04506 0.31083 0.77099 0.0
O828 O 0.07018 0.29245 0.76372 0.0
C829 C 0.13146 0.31542 0.7402 0.0
O830 O 0.1236 0.33596 0.74396 0.0
C831 C 0.0618 0.28781 0.80474 0.0
O832 O 0.06046 0.26503 0.79579 0.0
O833 O 1.00498 0.27111 0.76752 0.0
O834 O 0.01854 0.25463 0.74252 0.0
H835 H 0.95756 0.3339 0.76516 0.0
H836 H 0.10205 0.26258 0.76912 0.0
O837 O 0.11054 0.28793 0.73859 0.0
H838 H 0.01337 0.16113 0.75882 0.0
H839 H 0.08671 0.21069 0.69516 0.0
H840 H 0.02583 0.26153 0.70838 0.0
H841 H 0.01872 0.2053 0.74161 0.0
H842 H 0.09279 0.23686 0.72423 0.0
O843 O 0.04973 0.30277 0.79782 0.0
H844 H 0.98998 0.31169 0.75597 0.0
H845 H 0.0469 0.34956 0.80196 0.0
H846 H 0.01879 0.23537 0.67923 0.0
H847 H 0.09796 0.21896 0.78638 0.0
H848 H 0.04938 0.20972 0.67246 0.0
H849 H 0.05326 0.16779 0.78135 0.0
O850 O 0.06866 0.30663 0.72694 0.0
H851 H 0.15632 0.37992 0.78869 0.0
H852 H 0.0643 0.37392 0.75934 0.0
H853 H 0.11194 0.42319 0.76154 0.0
H854 H 0.15833 0.42652 0.77647 0.0
H855 H 0.10869 0.33112 0.78572 0.0
H856 H 0.01495 0.37197 0.81173 0.0
H857 H 0.96993 0.36428 0.79326 0.0
O858 O 0.04212 0.32163 0.74508 0.0
C859 C 0.99788 0.25449 0.75325 0.0
C860 C 0.97703 0.33731 0.77338 0.0
C861 C 0.0092 0.35863 0.79952 0.0
N862 N 0.02008 0.32889 0.77854 0.0
C863 C 0.99545 0.32471 0.76826 0.0
C864 C 0.02708 0.34565 0.79399 0.0
C865 C 0.98398 0.35435 0.78914 0.0
C866 C 0.08268 0.24036 0.76672 0.0
N867 N 0.06051 0.23655 0.75446 0.0
C868 C 0.08042 0.21575 0.7766 0.0
C869 C 0.05531 0.18706 0.7738 0.0
C870 C 0.03288 0.18332 0.76119 0.0
C871 C 0.0359 0.20846 0.75158 0.0
C872 C 0.07321 0.22173 0.69797 0.0
C873 C 0.03908 0.25025 0.70559 0.0
C874 C 0.0766 0.23664 0.71439 0.0
N875 N 0.05949 0.25049 0.71806 0.0
C876 C 0.03506 0.23555 0.68903 0.0
C877 C 0.05225 0.22119 0.68524 0.0
C878 C 0.05544 0.32229 0.72992 0.0
C879 C 0.13612 0.37885 0.78237 0.0
C880 C 0.08431 0.37507 0.7659 0.0
C881 C 0.11126 0.4031 0.76709 0.0
C882 C 0.13728 0.40496 0.77546 0.0
N883 N 0.0831 0.34955 0.77298 0.0
C884 C 0.10879 0.35121 0.78089 0.0
Co885 Co 0.94297 0.53853 0.65121 0.0
Co886 Co 0.9622 0.5851 0.61357 0.0
O887 O 0.95431 0.54743 0.62551 0.0
C888 C 0.99561 0.52706 0.64654 0.0
O889 O 0.01156 0.55419 0.63921 0.0
C890 C 0.93203 0.53421 0.58712 0.0
O891 O 0.91369 0.51585 0.60003 0.0
O892 O 0.92004 0.57855 0.62218 0.0
O893 O 0.91801 0.55971 0.65034 0.0
H894 H 0.96484 0.68499 0.60957 0.0
H895 H 0.93263 0.48748 0.62757 0.0
O896 O 0.96793 0.51749 0.65248 0.0
H897 H 0.82905 0.4609 0.65271 0.0
H898 H 0.91176 0.47343 0.70812 0.0
H899 H 0.9384 0.57321 0.68224 0.0
H900 H 0.87531 0.50851 0.66099 0.0
H901 H 0.92513 0.48488 0.67542 0.0
O902 O 0.94634 0.56268 0.58979 0.0
H903 H 0.95606 0.63791 0.62463 0.0
H904 H 0.98483 0.61229 0.57634 0.0
H905 H 0.9249 0.56263 0.71497 0.0
H906 H 0.88711 0.43934 0.61921 0.0
H907 H 0.91146 0.51243 0.72812 0.0
H908 H 0.8348 0.42585 0.63172 0.0
O909 O 0.98005 0.57692 0.65791 0.0
H910 H 0.04024 0.55629 0.58989 0.0
H911 H 0.02568 0.639 0.61339 0.0
H912 H 0.07825 0.6491 0.60461 0.0
H913 H 0.08581 0.60765 0.59258 0.0
H914 H 0.98832 0.54699 0.59928 0.0
H915 H 0.99367 0.65897 0.56072 0.0
H916 H 0.98376 0.69578 0.57737 0.0
O917 O 0.98048 0.6085 0.63625 0.0
C918 C 0.90916 0.57257 0.63868 0.0
C919 C 0.96917 0.66909 0.60215 0.0
C920 C 0.98529 0.65446 0.57473 0.0
N921 N 0.96959 0.62214 0.60135 0.0
C922 C 0.96419 0.64235 0.61061 0.0
C923 C 0.98002 0.62793 0.58362 0.0
C924 C 0.97977 0.67513 0.58408 0.0
C925 C 0.91002 0.48166 0.63323 0.0
N926 N 0.90663 0.50095 0.64466 0.0
C927 C 0.88429 0.45441 0.62837 0.0
C928 C 0.85495 0.44689 0.63537 0.0
C929 C 0.85169 0.46658 0.64711 0.0
C930 C 0.87795 0.49364 0.65164 0.0
C931 C 0.91752 0.49537 0.70255 0.0
C932 C 0.93239 0.55125 0.68783 0.0
C933 C 0.92517 0.502 0.68405 0.0
N934 N 0.93228 0.5296 0.6769 0.0
C935 C 0.92485 0.54542 0.70639 0.0
C936 C 0.91734 0.51726 0.71376 0.0
C937 C 0.98974 0.60339 0.65136 0.0
C938 C 0.03721 0.57464 0.59489 0.0
C939 C 0.02866 0.6208 0.60816 0.0
C940 C 0.05855 0.62668 0.6032 0.0
C941 C 0.06277 0.60343 0.59646 0.0
N942 N 1.00355 0.5926 0.60634 0.0
C943 C 0.00769 0.56959 0.60002 0.0
Co944 Co 0.45615 0.3707 0.62996 0.0
Co945 Co 0.39873 0.35285 0.59877 0.0
O946 O 0.4416 0.37742 0.60677 0.0
C947 C 0.47547 0.43537 0.6305 0.0
O948 O 0.44681 0.42763 0.62623 0.0
C949 C 0.44206 0.37132 0.56587 0.0
O950 O 0.46316 0.3692 0.57543 0.0
O951 O 0.40093 0.31429 0.60252 0.0
O952 O 0.42867 0.32611 0.62816 0.0
H953 H 0.2894 0.26569 0.60267 0.0
H954 H 0.50435 0.40954 0.60248 0.0
O955 O 0.48344 0.41524 0.63244 0.0
H956 H 0.52167 0.32333 0.61361 0.0
H957 H 0.53676 0.39028 0.67713 0.0
H958 H 0.42567 0.331 0.6623 0.0
H959 H 0.47959 0.32673 0.62994 0.0
H960 H 0.51797 0.39766 0.64758 0.0
O961 O 0.41417 0.35955 0.57224 0.0
H962 H 0.34318 0.29736 0.61282 0.0
H963 H 0.363 0.35615 0.56705 0.0
H964 H 0.4435 0.32271 0.69194 0.0
H965 H 0.54707 0.40734 0.5861 0.0
H966 H 0.49942 0.35248 0.69952 0.0
H967 H 0.55585 0.3639 0.59155 0.0
O968 O 0.42215 0.37306 0.64315 0.0
H969 H 0.43662 0.46165 0.58102 0.0
H970 H 0.35083 0.36957 0.60939 0.0
H971 H 0.34632 0.41552 0.60697 0.0
H972 H 0.38929 0.46197 0.59256 0.0
H973 H 0.44056 0.4156 0.58415 0.0
H974 H 0.3095 0.32497 0.55633 0.0
H975 H 0.27222 0.2794 0.57421 0.0
O976 O 0.38222 0.34783 0.62444 0.0
C977 C 0.4098 0.30664 0.61713 0.0
C978 C 0.30544 0.28544 0.59473 0.0
C979 C 0.31674 0.31868 0.56871 0.0
N980 N 0.35639 0.32845 0.59047 0.0
C981 C 0.33596 0.30347 0.6004 0.0
C982 C 0.34711 0.33615 0.57479 0.0
C983 C 0.29582 0.29314 0.57876 0.0
C984 C 0.50821 0.39072 0.60508 0.0
N985 N 0.48937 0.36821 0.61709 0.0
C986 C 0.53235 0.38953 0.59569 0.0
C987 C 0.53723 0.36513 0.59873 0.0
C988 C 0.51802 0.34232 0.61107 0.0
C989 C 0.49408 0.34426 0.62019 0.0
C990 C 0.51235 0.37712 0.67397 0.0
C991 C 0.45007 0.34391 0.66545 0.0
C992 C 0.50157 0.38124 0.65728 0.0
N993 N 0.4708 0.36458 0.65316 0.0
C994 C 0.46001 0.33918 0.68228 0.0
C995 C 0.49139 0.3559 0.68652 0.0
C996 C 0.39323 0.35981 0.63976 0.0
C997 C 0.41756 0.44145 0.58713 0.0
C998 C 0.36967 0.38962 0.60307 0.0
C999 C 0.36695 0.41561 0.60175 0.0
C1000 C 0.39106 0.44165 0.59366 0.0
N1001 N 0.39557 0.38941 0.59643 0.0
C1002 C 0.41948 0.41506 0.58873 0.0
Co1003 Co 0.65473 0.09342 0.6406 0.0
Co1004 Co 0.64067 0.02278 0.6278 0.0
O1005 O 0.6645 0.06049 0.64067 0.0
C1006 C 0.72513 0.1212 0.63945 0.0
O1007 O 0.72287 0.09886 0.6296 0.0
C1008 C 0.63909 1.00054 0.66534 0.0
O1009 O 0.62936 0.01892 0.67102 0.0
O1010 O 0.6011 0.01675 0.6389 0.0
O1011 O 0.60911 0.06402 0.64078 0.0
H1012 H 0.55266 0.94872 0.58976 0.0
H1013 H 0.69446 0.08773 0.66912 0.0
O1014 O 0.70114 0.12432 0.64186 0.0
H1015 H 0.60918 0.09081 0.70284 0.0
H1016 H 0.67049 0.19505 0.65924 0.0
H1017 H 0.60705 0.10437 0.62329 0.0
H1018 H 0.61166 0.0937 0.66927 0.0
H1019 H 0.68167 0.15297 0.65913 0.0
O1020 O 0.64547 0.99995 0.64853 0.0
H1021 H 0.58322 0.99636 0.60602 0.0
H1022 H 0.64703 0.968 0.62256 0.0
H1023 H 0.59492 0.14585 0.62306 0.0
H1024 H 0.69315 0.08533 0.70261 0.0
H1025 H 0.62681 0.19168 0.64112 0.0
H1026 H 0.65023 0.08678 0.71976 0.0
O1027 O 0.65311 0.09376 0.61277 0.0
H1028 H 0.75101 0.04301 0.62861 0.0
H1029 H 0.66196 0.02131 0.58977 0.0
H1030 H 0.71082 0.02873 0.57559 0.0
H1031 H 0.75576 0.03955 0.59507 0.0
H1032 H 0.7019 0.03603 0.64215 0.0
H1033 H 0.61694 0.91988 0.60663 0.0
H1034 H 0.56947 0.91006 0.59001 0.0
O1035 O 0.6346 0.04449 0.60706 0.0
C1036 C 0.59137 0.03546 0.64142 0.0
C1037 C 0.57336 0.95277 0.59691 0.0
C1038 C 0.60941 0.93657 0.6064 0.0
N1039 N 0.61703 0.98507 0.61512 0.0
C1040 C 0.59082 0.97975 0.6061 0.0
C1041 C 0.62632 0.96383 0.61543 0.0
C1042 C 0.58278 0.93108 0.59707 0.0
C1043 C 0.67606 0.08905 0.67638 0.0
N1044 N 0.65363 0.09168 0.66713 0.0
C1045 C 0.67528 0.08738 0.6954 0.0
C1046 C 0.65116 0.08812 0.70502 0.0
C1047 C 0.62814 0.09038 0.69553 0.0
C1048 C 0.62969 0.09203 0.6765 0.0
C1049 C 0.65661 0.17533 0.65117 0.0
C1050 C 0.62128 0.12433 0.63098 0.0
C1051 C 0.66302 0.15149 0.65092 0.0
N1052 N 0.64553 0.12643 0.64081 0.0
C1053 C 0.61419 0.14771 0.63089 0.0
C1054 C 0.63207 0.1734 0.64104 0.0
C1055 C 0.64004 0.07077 0.60222 0.0
C1056 C 0.7316 0.0383 0.61997 0.0
C1057 C 0.68154 0.02647 0.59829 0.0
C1058 C 0.70908 0.03042 0.59021 0.0
C1059 C 0.73427 0.03642 0.60115 0.0
N1060 N 0.67914 0.02848 0.61674 0.0
C1061 C 0.70367 0.03418 0.62757 0.0
H1062 H 0.43174 0.99405 0.0856 0.0
H1063 H 0.45405 0.96737 0.06867 0.0
H1064 H 0.49557 0.0408 0.02947 0.0
H1065 H 0.47349 0.06714 0.04593 0.0
H1066 H 0.46096 0.98506 1.013 0.0
H1067 H 0.5432 0.98108 0.06237 0.0
H1068 H 0.50411 0.96741 0.07081 0.0
H1069 H 0.52788 0.00662 0.06475 0.0
C1070 C 0.44621 1.00484 0.07364 0.0
C1071 C 0.45043 0.03283 0.06721 0.0
C1072 C 0.45897 0.9895 0.06389 0.0
C1073 C 0.47648 1.00191 0.04761 0.0
C1074 C 0.48204 0.03048 0.04182 0.0
H1075 H 0.56379 0.94909 0.95998 0.0
H1076 H 0.53932 0.9729 0.9776 0.0
C1077 C 0.46943 0.04569 0.05145 0.0
C1078 C 0.48774 0.98495 0.03588 0.0
H1079 H 0.53696 0.95562 0.03472 0.0
C1080 C 0.47757 0.97859 1.01778 0.0
C1081 C 0.50942 0.97641 0.04197 0.0
C1082 C 0.52208 0.98337 0.06098 0.0
C1083 C 0.48807 0.96376 1.00579 0.0
C1084 C 0.51013 0.95557 1.01178 0.0
C1085 C 0.52015 0.96182 0.02994 0.0
C1086 C 0.52264 0.93989 0.99977 0.0
C1087 C 0.47475 0.95637 0.98694 0.0
C1088 C 0.52142 0.91317 1.00599 0.0
C1089 C 0.53572 0.8998 0.99605 0.0
C1090 C 0.55186 0.91257 0.97942 0.0
C1091 C 0.5516 0.93841 0.9726 0.0
C1092 C 0.53745 0.95207 0.98273 0.0
H1093 H 0.45198 0.95575 0.98634 0.0
H1094 H 0.49096 0.97407 0.97716 0.0
H1095 H 0.47156 0.93426 0.98247 0.0
H1096 H 0.51009 0.90299 1.01893 0.0
H1097 H 0.53524 0.88001 1.00192 0.0
H1098 H 0.91182 0.36485 1.01732 0.0
H1099 H 0.93543 0.41281 1.00115 0.0
H1100 H 0.99176 0.45624 0.04762 0.0
H1101 H 0.9686 0.40722 0.06398 0.0
H1102 H 0.93712 0.46349 1.00475 0.0
H1103 H 0.05882 0.48668 1.00911 0.0
H1104 H 0.02615 0.45103 1.01628 0.0
H1105 H 0.04032 0.48315 0.03091 0.0
C1106 C 0.92907 0.38445 0.02437 0.0
C1107 C 0.93829 0.38163 0.04211 0.0
C1108 C 0.94269 0.41219 1.01494 0.0
C1109 C 0.96614 0.43852 0.02277 0.0
C1110 C 0.97446 0.43631 0.04088 0.0
H1111 H 0.02378 0.61682 0.97385 0.0
H1112 H 0.99841 0.56924 0.99105 0.0
C1113 C 0.96079 0.40822 0.05041 0.0
C1114 C 0.98127 0.46766 1.01167 0.0
H1115 H 0.05123 0.52448 0.99493 0.0
C1116 C 0.96212 0.47675 1.00269 0.0
C1117 C 0.01391 0.48502 1.00844 0.0
C1118 C 0.03603 0.47589 1.01652 0.0
C1119 C 0.97435 0.5022 0.99082 0.0
C1120 C 1.00702 0.52017 0.98807 0.0
C1121 C 0.02624 0.51106 0.99696 0.0
C1122 C 0.02158 0.54881 0.97654 0.0
C1123 C 0.95181 0.50891 0.9809 0.0
C1124 C 0.04378 0.55408 0.96258 0.0
C1125 C 0.05852 0.5817 0.95261 0.0
C1126 C 0.05121 0.6046 0.95627 0.0
C1127 C 0.02891 0.59917 0.97009 0.0
C1128 C 0.01441 0.57184 0.98005 0.0
H1129 H 0.9289 0.4882 0.97939 0.0
H1130 H 0.94785 0.52517 0.98888 0.0
H1131 H 0.96087 0.51884 0.96713 0.0
H1132 H 0.05019 0.53703 0.95962 0.0
H1133 H 0.07651 0.58562 0.94262 0.0
H1134 H 0.40016 0.49704 1.00058 0.0
H1135 H 0.44402 0.5212 0.02131 0.0
H1136 H 0.48837 0.47699 0.99446 0.0
H1137 H 0.44503 0.45326 0.97357 0.0
H1138 H 0.46658 0.49754 0.04634 0.0
H1139 H 0.55972 0.56181 0.99507 0.0
H1140 H 0.51906 0.54436 0.98962 0.0
H1141 H 0.53857 0.52237 0.99009 0.0
C1142 C 0.4195 0.49288 0.9988 0.0
C1143 C 0.41895 0.47338 0.98506 0.0
C1144 C 0.4446 0.5066 1.01084 0.0
C1145 C 0.47009 0.50148 1.00946 0.0
C1146 C 0.46962 0.48214 0.9957 0.0
H1147 H 0.63918 0.54284 0.06418 0.0
H1148 H 0.59142 0.52238 0.04725 0.0
C1149 C 0.44459 0.46843 0.98368 0.0
C1150 C 0.49667 0.51549 0.02263 0.0
H1151 H 0.57622 0.55619 0.0246 0.0
C1152 C 0.49053 0.51065 0.04156 0.0
C1153 C 0.52815 0.53288 1.01664 0.0
C1154 C 0.5368 0.54096 0.99676 0.0
C1155 C 0.51475 0.52144 0.0544 0.0
C1156 C 0.54623 0.53793 0.04831 0.0
C1157 C 0.55226 0.54343 0.02943 0.0
C1158 C 0.57346 0.5482 0.06089 0.0
C1159 C 0.5065 0.5141 0.07435 0.0
C1160 C 0.57937 0.56901 0.07498 0.0
C1161 C 0.60712 0.58083 0.08505 0.0
C1162 C 0.62981 0.57239 0.08113 0.0
C1163 C 0.62268 0.55021 0.06775 0.0
C1164 C 0.59521 0.53849 0.05783 0.0
H1165 H 0.48194 0.49612 0.07652 0.0
H1166 H 0.52194 0.50674 0.08079 0.0
H1167 H 0.50978 0.53465 0.08137 0.0
H1168 H 0.56327 0.57723 0.07764 0.0
H1169 H 0.61149 0.59777 0.09514 0.0
H1170 H 0.10204 0.33187 0.41902 0.0
H1171 H 0.12451 0.30527 0.40219 0.0
H1172 H 0.16292 0.37697 0.36176 0.0
H1173 H 0.14069 0.40327 0.37817 0.0
H1174 H 0.12957 0.32081 0.34613 0.0
H1175 H 0.21375 0.32044 0.39536 0.0
H1176 H 0.17474 0.30593 0.40412 0.0
H1177 H 0.19734 0.34509 0.39761 0.0
C1178 C 0.11586 0.34232 0.4068 0.0
C1179 C 0.11923 0.36982 0.40006 0.0
C1180 C 0.12872 0.32702 0.39711 0.0
C1181 C 0.14545 0.33895 0.38054 0.0
C1182 C 0.15002 0.36701 0.37435 0.0
H1183 H 0.23148 0.28287 0.2936 0.0
H1184 H 0.20751 0.30754 0.31085 0.0
C1185 C 0.13732 0.3822 0.38394 0.0
C1186 C 0.15697 0.32198 0.369 0.0
H1187 H 0.20677 0.29328 0.36828 0.0
C1188 C 0.14646 0.31479 0.351 0.0
C1189 C 0.17904 0.31402 0.3752 0.0
C1190 C 0.19216 0.32192 0.39406 0.0
C1191 C 0.15694 0.29963 0.33924 0.0
C1192 C 0.17929 0.29191 0.34536 0.0
C1193 C 0.18972 0.29907 0.3634 0.0
C1194 C 0.19165 0.27575 0.33365 0.0
C1195 C 0.14323 0.29134 0.32053 0.0
C1196 C 0.19079 0.24944 0.34038 0.0
C1197 C 0.20483 0.2356 0.33065 0.0
C1198 C 0.22034 0.24745 0.31375 0.0
C1199 C 0.21978 0.27289 0.30647 0.0
C1200 C 0.20591 0.28703 0.31638 0.0
H1201 H 0.12038 0.29055 0.31992 0.0
H1202 H 0.15917 0.30865 0.31047 0.0
H1203 H 0.14008 0.26908 0.31642 0.0
H1204 H 0.17988 0.23993 0.35351 0.0
H1205 H 0.20458 0.21613 0.33688 0.0
H1206 H 0.64017 0.73991 0.39482 0.0
H1207 H 0.66555 0.78866 0.37811 0.0
H1208 H 0.59595 0.7513 0.33685 0.0
H1209 H 0.57122 0.70299 0.35296 0.0
H1210 H 0.68905 0.79612 0.33996 0.0
H1211 H 0.60154 0.83371 0.34749 0.0
H1212 H 0.60283 0.80641 0.36284 0.0
H1213 H 0.58628 0.79521 0.34068 0.0
C1214 C 0.62989 0.74218 0.3824 0.0
C1215 C 0.60352 0.71706 0.37535 0.0
C1216 C 0.64455 0.77014 0.37277 0.0
C1217 C 0.63273 0.77391 0.35613 0.0
C1218 C 0.60551 0.74937 0.34967 0.0
H1219 H 0.68848 0.92127 0.27395 0.0
H1220 H 0.66169 0.87221 0.29026 0.0
C1221 C 0.59125 0.72153 0.35905 0.0
C1222 C 0.64961 0.80242 0.34471 0.0
H1223 H 0.64184 0.85992 0.3254 0.0
C1224 C 0.67883 0.81021 0.33694 0.0
C1225 C 0.63615 0.82061 0.3403 0.0
C1226 C 0.60508 0.81381 0.34835 0.0
C1227 C 0.69464 0.83522 0.32483 0.0
C1228 C 0.68148 0.85383 0.32065 0.0
C1229 C 0.65213 0.84588 0.32839 0.0
C1230 C 0.6986 0.88257 0.30933 0.0
C1231 C 0.72496 0.84077 0.31623 0.0
C1232 C 0.72853 0.90487 0.3142 0.0
C1233 C 0.7439 0.93267 0.30482 0.0
C1234 C 0.72984 0.93969 0.29032 0.0
C1235 C 0.70028 0.91694 0.28492 0.0
C1236 C 0.68478 0.88885 0.29439 0.0
H1237 H 0.72599 0.8195 0.3153 0.0
H1238 H 0.72846 0.85089 0.30234 0.0
H1239 H 0.74447 0.85644 0.32483 0.0
H1240 H 0.7397 0.90136 0.32583 0.0
H1241 H 0.7665 0.94931 0.30962 0.0
H1242 H 0.06862 0.82899 0.33325 0.0
H1243 H 0.1129 0.85306 0.3537 0.0
H1244 H 0.15606 0.80787 0.3267 0.0
H1245 H 0.11227 0.78418 0.30609 0.0
H1246 H 0.13555 0.82898 0.37863 0.0
H1247 H 0.22787 0.89274 0.3268 0.0
H1248 H 0.18711 0.87556 0.32166 0.0
H1249 H 0.20629 0.85327 0.32193 0.0
C1250 C 0.08779 0.82459 0.33138 0.0
C1251 C 0.08677 0.80482 0.31768 0.0
C1252 C 0.11312 0.83826 0.34326 0.0
C1253 C 0.1384 0.83282 0.34176 0.0
C1254 C 0.13747 0.81323 0.32803 0.0
H1255 H 0.30914 0.87546 0.39523 0.0
H1256 H 0.26118 0.85472 0.37847 0.0
C1257 C 0.1122 0.79956 0.31618 0.0
C1258 C 0.16523 0.8468 0.35475 0.0
H1259 H 0.24483 0.88746 0.35623 0.0
C1260 C 0.15942 0.84203 0.37371 0.0
C1261 C 0.19661 0.86411 0.34857 0.0
C1262 C 0.20489 0.87202 0.32865 0.0
C1263 C 0.18388 0.85283 0.3864 0.0
C1264 C 0.21526 0.86931 0.38012 0.0
C1265 C 0.22096 0.87472 0.36122 0.0
C1266 C 0.24274 0.87978 0.39255 0.0
C1267 C 0.17594 0.8455 0.40637 0.0
C1268 C 0.2485 0.90027 0.40681 0.0
C1269 C 0.27635 0.91222 0.41679 0.0
C1270 C 0.29932 0.90427 0.41259 0.0
C1271 C 0.29242 0.88245 0.39901 0.0
C1272 C 0.26483 0.87057 0.38919 0.0
H1273 H 0.15154 0.8272 0.40863 0.0
H1274 H 0.19176 0.83858 0.41277 0.0
H1275 H 0.17881 0.86592 0.41339 0.0
H1276 H 0.23217 0.90814 0.4097 0.0
H1277 H 0.28054 0.92888 0.42704 0.0
H1278 H 0.90021 0.6197 0.62624 0.0
H1279 H 0.87603 0.64434 0.64352 0.0
H1280 H 0.84674 0.57563 0.68557 0.0
H1281 H 0.8713 0.55171 0.66893 0.0
H1282 H 0.81686 0.62759 0.65761 0.0
H1283 H 0.89697 0.65064 0.71489 0.0
H1284 H 0.90285 0.63791 0.69308 0.0
H1285 H 0.87547 0.61135 0.70953 0.0
C1286 C 0.88827 0.60959 0.63903 0.0
C1287 C 0.88834 0.58385 0.6462 0.0
C1288 C 0.87451 0.62381 0.64899 0.0
C1289 C 0.86042 0.61255 0.66628 0.0
C1290 C 0.85834 0.58555 0.67266 0.0
H1291 H 0.76885 0.66709 0.75059 0.0
H1292 H 0.79197 0.64126 0.73349 0.0
C1293 C 0.87219 0.57159 0.66289 0.0
C1294 C 0.84845 0.62899 0.67796 0.0
H1295 H 0.85443 0.65931 0.72036 0.0
C1296 C 0.82527 0.63467 0.67127 0.0
C1297 C 0.85918 0.63829 0.69591 0.0
C1298 C 0.88519 0.63453 0.70374 0.0
C1299 C 0.81221 0.64868 0.68204 0.0
C1300 C 0.82284 0.65784 0.70001 0.0
C1301 C 0.846 0.65216 0.70671 0.0
C1302 C 0.81118 0.67459 0.71158 0.0
C1303 C 0.78661 0.65306 0.67418 0.0
C1304 C 0.81551 0.70266 0.70559 0.0
C1305 C 0.80253 0.71744 0.71533 0.0
C1306 C 0.78472 0.70477 0.7315 0.0
C1307 C 0.78217 0.6776 0.73822 0.0
C1308 C 0.79529 0.66269 0.72836 0.0
H1309 H 0.77531 0.63778 0.6626 0.0
H1310 H 0.76856 0.64903 0.68472 0.0
H1311 H 0.79661 0.67665 0.66903 0.0
H1312 H 0.82836 0.71288 0.69303 0.0
H1313 H 0.80548 0.73842 0.70966 0.0
H1314 H 0.43125 0.28379 0.64351 0.0
H1315 H 0.40384 0.23554 0.65957 0.0
H1316 H 0.32701 0.20697 0.62318 0.0
H1317 H 0.35461 0.25588 0.60676 0.0
H1318 H 0.34603 0.21331 0.67814 0.0
H1319 H 0.34114 0.13319 0.62563 0.0
H1320 H 0.36793 0.17327 0.62385 0.0
H1321 H 0.32762 0.15871 0.61883 0.0
C1322 C 0.40876 0.26724 0.63854 0.0
C1323 C 0.39527 0.27428 0.62372 0.0
C1324 C 0.39295 0.23949 0.64793 0.0
C1325 C 0.36315 0.21739 0.64282 0.0
C1326 C 0.35006 0.22346 0.62744 0.0
H1327 H 0.23787 0.03653 0.6862 0.0
H1328 H 0.26188 0.08475 0.6701 0.0
C1329 C 0.36596 0.25154 0.61797 0.0
C1330 C 0.34573 0.18893 0.65425 0.0
H1331 H 0.3154 0.11225 0.65369 0.0
C1332 C 0.33927 0.19119 0.67276 0.0
C1333 C 0.33684 0.15994 0.6474 0.0
C1334 C 0.34387 0.15592 0.62789 0.0
C1335 C 0.32389 0.1655 0.68442 0.0
C1336 C 0.31533 0.13644 0.67765 0.0
C1337 C 0.32181 0.13427 0.65909 0.0
C1338 C 0.29892 0.10786 0.68921 0.0
C1339 C 0.31623 0.16982 0.70374 0.0
C1340 C 0.31069 0.1043 0.70596 0.0
C1341 C 0.29627 0.07639 0.71565 0.0
C1342 C 0.27013 0.05105 0.70862 0.0
C1343 C 0.25783 0.05521 0.69226 0.0
C1344 C 0.27185 0.08299 0.68281 0.0
H1345 H 0.31541 0.19114 0.70511 0.0
H1346 H 0.29352 0.15075 0.70847 0.0
H1347 H 0.33458 0.17112 0.71286 0.0
H1348 H 0.33182 0.12271 0.71123 0.0
H1349 H 0.30665 0.07432 0.72808 0.0
H1350 H 0.77956 0.11867 0.6393 0.0
H1351 H 0.8228 0.14206 0.66038 0.0
H1352 H 0.77855 0.18643 0.68715 0.0
H1353 H 0.735 0.16281 0.66624 0.0
H1354 H 0.86494 0.20045 0.66779 0.0
H1355 H 0.7945 0.14656 0.73052 0.0
H1356 H 0.77942 0.1348 0.70799 0.0
H1357 H 0.7816 0.16821 0.7175 0.0
C1358 C 0.77904 0.13363 0.64953 0.0
C1359 C 0.75349 0.13873 0.65088 0.0
C1360 C 0.80389 0.14698 0.6617 0.0
C1361 C 0.80397 0.16566 0.67578 0.0
C1362 C 0.77898 0.17158 0.67681 0.0
H1363 H 0.94624 0.262 0.76051 0.0
H1364 H 0.89829 0.24144 0.74268 0.0
C1365 C 0.75412 0.15829 0.6646 0.0
C1366 C 0.83032 0.17897 0.68912 0.0
H1367 H 0.84775 0.18188 0.73455 0.0
C1368 C 0.86103 0.19633 0.68237 0.0
C1369 C 0.82564 0.17397 0.70829 0.0
C1370 C 0.79357 0.15466 0.71656 0.0
C1371 C 0.8868 0.20862 0.69403 0.0
C1372 C 0.88223 0.20307 0.71314 0.0
C1373 C 0.85151 0.18627 0.71998 0.0
C1374 C 0.90927 0.21309 0.72583 0.0
C1375 C 0.91888 0.22777 0.6857 0.0
C1376 C 0.93077 0.20296 0.72318 0.0
C1377 C 0.95806 0.21466 0.73328 0.0
C1378 C 0.96497 0.23688 0.74659 0.0
C1379 C 0.94217 0.24523 0.75036 0.0
C1380 C 0.91466 0.2335 0.74007 0.0
H1381 H 0.91793 0.2373 0.67219 0.0
H1382 H 0.93384 0.24664 0.69473 0.0
H1383 H 0.92996 0.21359 0.68366 0.0
H1384 H 0.92701 0.18664 0.71274 0.0
H1385 H 0.97457 0.2072 0.72992 0.0
H1386 H 0.35676 0.04903 0.15114 0.0
H1387 H 0.33266 0.06842 0.17263 0.0
H1388 H 0.39935 0.1595 0.15625 0.0
H1389 H 0.42352 0.1404 0.13472 0.0
H1390 H 0.3565 0.10918 0.20242 0.0
H1391 H 0.31522 0.1557 0.14754 0.0
H1392 H 0.32861 0.1291 0.14316 0.0
H1393 H 0.35615 0.16823 0.14655 0.0
C1394 C 0.36669 0.07322 0.15228 0.0
C1395 C 0.39225 0.09303 0.14107 0.0
C1396 C 0.35273 0.08431 0.16457 0.0
C1397 C 0.36368 0.11549 0.1659 0.0
C1398 C 0.38995 0.13535 0.1553 0.0
H1399 H 0.30659 0.22821 0.22683 0.0
H1400 H 0.32995 0.20788 0.20555 0.0
C1401 C 0.40403 0.12431 0.14308 0.0
C1402 C 0.34741 0.12721 0.17811 0.0
H1403 H 0.30833 0.16728 0.17787 0.0
C1404 C 0.34584 0.12175 0.19702 0.0
C1405 C 0.33346 0.14374 0.1712 0.0
C1406 C 0.33312 0.14938 0.151 0.0
C1407 C 0.33148 0.13284 0.20915 0.0
C1408 C 0.3174 0.14929 0.20223 0.0
C1409 C 0.31895 0.15471 0.1833 0.0
C1410 C 0.30139 0.16136 0.21443 0.0
C1411 C 0.33241 0.12759 0.22935 0.0
C1412 C 0.27658 0.14208 0.22619 0.0
C1413 C 0.26305 0.15369 0.23841 0.0
C1414 C 0.27374 0.18495 0.23916 0.0
C1415 C 0.29753 0.20404 0.22671 0.0
C1416 C 0.31109 0.1924 0.21452 0.0
H1417 H 0.35119 0.12242 0.2327 0.0
H1418 H 0.33605 0.14759 0.23719 0.0
H1419 H 0.30995 0.10802 0.2339 0.0
H1420 H 0.26791 0.11798 0.22615 0.0
H1421 H 0.24486 0.13814 0.24771 0.0
H1422 H 0.82728 0.2494 0.11318 0.0
H1423 H 0.80797 0.20752 0.13532 0.0
H1424 H 0.90219 0.23363 0.14946 0.0
H1425 H 0.9216 0.27604 0.12778 0.0
H1426 H 0.81488 0.15919 0.13596 0.0
H1427 H 0.865 0.22067 0.19949 0.0
H1428 H 0.8647 0.23976 0.17874 0.0
H1429 H 0.89415 0.2292 0.18212 0.0
C1430 C 0.84397 0.24677 0.12131 0.0
C1431 C 0.87614 0.26662 0.11869 0.0
C1432 C 0.83283 0.2225 0.13393 0.0
C1433 C 0.85341 0.21723 0.14442 0.0
C1434 C 0.88554 0.23733 0.14204 0.0
H1435 H 0.83445 0.07416 0.21982 0.0
H1436 H 0.85248 0.11646 0.19807 0.0
C1437 C 0.8967 0.26174 0.12952 0.0
C1438 C 0.84133 0.18999 0.15705 0.0
H1439 H 0.84465 0.16737 0.20079 0.0
C1440 C 0.82127 0.16113 0.15017 0.0
C1441 C 0.84946 0.19204 0.17569 0.0
C1442 C 0.86924 0.2221 0.18451 0.0
C1443 C 0.8098 0.13464 0.16113 0.0
C1444 C 0.81822 0.13672 0.17968 0.0
C1445 C 0.8382 0.16552 0.18659 0.0
C1446 C 0.80665 0.10943 0.19215 0.0
C1447 C 0.78934 0.1045 0.15259 0.0
C1448 C 0.7747 0.09083 0.19615 0.0
C1449 C 0.76422 0.06641 0.20864 0.0
C1450 C 0.78537 0.05981 0.21754 0.0
C1451 C 0.81729 0.0781 0.21318 0.0
C1452 C 0.82774 0.10258 0.20078 0.0
H1453 H 0.79136 0.10593 0.13747 0.0
H1454 H 0.79529 0.08731 0.1575 0.0
H1455 H 0.76472 0.0967 0.15647 0.0
H1456 H 0.75783 0.09574 0.19002 0.0
H1457 H 0.73955 0.05329 0.21175 0.0
H1458 H 0.96262 0.70172 0.2398 0.0
H1459 H 0.9218 0.68768 0.21767 0.0
H1460 H 0.90345 0.75678 0.23767 0.0
H1461 H 0.94498 0.77135 0.25996 0.0
H1462 H 0.85893 0.66585 0.23002 0.0
H1463 H 0.8975 0.7622 0.18101 0.0
H1464 H 0.92465 0.75676 0.1946 0.0
H1465 H 0.90118 0.77068 0.20493 0.0
C1466 C 0.95079 0.7148 0.23921 0.0
C1467 C 0.95709 0.73745 0.25212 0.0
C1468 C 0.92706 0.70644 0.22654 0.0
C1469 C 0.90896 0.72071 0.22603 0.0
C1470 C 0.91694 0.74527 0.23769 0.0
H1471 H 0.74379 0.67401 0.15884 0.0
H1472 H 0.78589 0.69777 0.18074 0.0
C1473 C 0.94089 0.75369 0.25051 0.0
C1474 C 0.88022 0.7076 0.2146 0.0
H1475 H 0.84746 0.72049 0.17706 0.0
C1476 C 0.85645 0.67791 0.21847 0.0
C1477 C 0.87653 0.72322 0.19961 0.0
C1478 C 0.9013 0.75493 0.19461 0.0
C1479 C 0.8295 0.66343 0.20784 0.0
C1480 C 0.82625 0.67855 0.19237 0.0
C1481 C 0.8497 0.70859 0.18877 0.0
C1482 C 0.79933 0.66328 0.17954 0.0
C1483 C 0.80451 0.63214 0.21358 0.0
C1484 C 0.79231 0.63573 0.17139 0.0
C1485 C 0.76792 0.62186 0.159 0.0
C1486 C 0.74985 0.63521 0.1541 0.0
C1487 C 0.75672 0.66269 0.16236 0.0
C1488 C 0.78111 0.67652 0.17484 0.0
H1489 H 0.80523 0.62815 0.22844 0.0
H1490 H 0.78097 0.62833 0.21035 0.0
H1491 H 0.80839 0.61523 0.20629 0.0
H1492 H 0.80628 0.62522 0.17422 0.0
H1493 H 0.76396 0.60108 0.15277 0.0
H1494 H 0.63945 0.89462 0.89307 0.0
H1495 H 0.66267 0.87467 0.87146 0.0
H1496 H 0.60053 0.7844 0.89144 0.0
H1497 H 0.57718 0.80413 0.91312 0.0
H1498 H 0.69354 0.84264 0.88006 0.0
H1499 H 0.59315 0.77358 0.83622 0.0
H1500 H 0.59402 0.80193 0.85121 0.0
H1501 H 0.58528 0.76557 0.86021 0.0
C1502 C 0.63015 0.87044 0.89265 0.0
C1503 C 0.60612 0.85108 0.90489 0.0
C1504 C 0.64369 0.85904 0.88031 0.0
C1505 C 0.63335 0.82791 0.87961 0.0
C1506 C 0.60871 0.80843 0.89139 0.0
H1507 H 0.69001 0.71663 0.81632 0.0
H1508 H 0.66619 0.73558 0.83824 0.0
C1509 C 0.59529 0.81982 0.90384 0.0
C1510 C 0.64941 0.8161 0.86731 0.0
H1511 H 0.63765 0.76785 0.83219 0.0
C1512 C 0.68131 0.82639 0.86953 0.0
C1513 C 0.63361 0.79469 0.8536 0.0
C1514 C 0.59969 0.78343 0.85 0.0
C1515 C 0.69758 0.8156 0.85876 0.0
C1516 C 0.68185 0.79434 0.84493 0.0
C1517 C 0.64991 0.78403 0.84274 0.0
C1518 C 0.69804 0.78284 0.83243 0.0
C1519 C 0.73133 0.82653 0.86271 0.0
C1520 C 0.72424 0.80286 0.8218 0.0
C1521 C 0.73818 0.79204 0.80934 0.0
C1522 C 0.72615 0.76081 0.80694 0.0
C1523 C 0.70027 0.74079 0.81785 0.0
C1524 C 0.68639 0.75165 0.83035 0.0
H1525 H 0.737 0.83461 0.87692 0.0
H1526 H 0.73737 0.80844 0.86062 0.0
H1527 H 0.74614 0.84576 0.85339 0.0
H1528 H 0.73339 0.82698 0.82266 0.0
H1529 H 0.75767 0.80827 0.80104 0.0
H1530 H 0.16899 0.74402 0.88605 0.0
H1531 H 0.18589 0.78592 0.86415 0.0
H1532 H 0.0903 0.76077 0.85476 0.0
H1533 H 0.07322 0.71917 0.87695 0.0
H1534 H 0.17789 0.79157 0.82861 0.0
H1535 H 0.12409 0.84788 0.86705 0.0
H1536 H 0.12681 0.81642 0.87644 0.0
H1537 H 0.09654 0.81011 0.86077 0.0
C1538 C 0.15141 0.74707 0.8792 0.0
C1539 C 0.11959 0.72798 0.88349 0.0
C1540 C 0.1612 0.77128 0.86666 0.0
C1541 C 0.13956 0.77734 0.858 0.0
C1542 C 0.1077 0.75743 0.86157 0.0
H1543 H 0.15714 0.91397 0.77735 0.0
H1544 H 0.13859 0.87188 0.79936 0.0
C1545 C 0.09788 0.73325 0.87417 0.0
C1546 C 0.15044 0.80446 0.8454 0.0
H1547 H 0.14545 0.86859 0.83776 0.0
C1548 C 0.17084 0.80842 0.83072 0.0
C1549 C 0.14152 0.82682 0.84799 0.0
C1550 C 0.1213 0.82534 0.86401 0.0
C1551 C 0.18195 0.83343 0.81853 0.0
C1552 C 0.17291 0.85565 0.82108 0.0
C1553 C 0.15246 0.85171 0.8357 0.0
C1554 C 0.18429 0.88292 0.80863 0.0
C1555 C 0.20282 0.83551 0.80272 0.0
C1556 C 0.21618 0.90412 0.80683 0.0
C1557 C 0.2269 0.92854 0.79436 0.0
C1558 C 0.20607 0.93251 0.78322 0.0
C1559 C 0.17402 0.91194 0.78563 0.0
C1560 C 0.16331 0.88764 0.79822 0.0
H1561 H 0.20153 0.81347 0.80006 0.0
H1562 H 0.19659 0.84336 0.7901 0.0
H1563 H 0.22727 0.85207 0.80587 0.0
H1564 H 0.23294 0.90152 0.81489 0.0
H1565 H 0.2517 0.94366 0.79298 0.0
H1566 H 0.275 0.43782 0.92771 0.0
H1567 H 0.23344 0.42224 0.90533 0.0
H1568 H 0.25883 0.3594 0.8828 0.0
H1569 H 0.29971 0.37439 0.90505 0.0
H1570 H 0.22954 0.41375 0.86351 0.0
H1571 H 0.16685 0.30702 0.90399 0.0
H1572 H 0.19835 0.34103 0.91313 0.0
H1573 H 0.20649 0.3184 0.89779 0.0
C1574 C 0.2724 0.42132 0.91773 0.0
C1575 C 0.29055 0.40696 0.91867 0.0
C1576 C 0.24839 0.41227 0.90491 0.0
C1577 C 0.24225 0.3889 0.89264 0.0
C1578 C 0.26251 0.37699 0.89229 0.0
H1579 H 0.09962 0.26777 0.8192 0.0
H1580 H 0.14185 0.29327 0.84066 0.0
C1581 C 0.28626 0.38592 0.90501 0.0
C1582 C 0.21351 0.37492 0.88126 0.0
H1583 H 0.1455 0.30856 0.87556 0.0
C1584 C 0.21099 0.39088 0.86625 0.0
C1585 C 0.18924 0.34495 0.88468 0.0
C1586 C 0.19006 0.32681 0.90084 0.0
C1587 C 0.18556 0.3774 0.85429 0.0
C1588 C 0.16136 0.34724 0.85761 0.0
C1589 C 0.16376 0.33157 0.87286 0.0
C1590 C 0.13412 0.33105 0.84511 0.0
C1591 C 0.18563 0.39525 0.83774 0.0
C1592 C 0.11454 0.34293 0.8407 0.0
C1593 C 0.09011 0.32823 0.82835 0.0
C1594 C 0.08428 0.30101 0.82014 0.0
C1595 C 0.10306 0.28853 0.82521 0.0
C1596 C 0.12749 0.30326 0.8375 0.0
H1597 H 0.20929 0.41422 0.83443 0.0
H1598 H 0.17686 0.38066 0.82563 0.0
H1599 H 0.17025 0.40497 0.84049 0.0
H1600 H 0.11828 0.36379 0.84668 0.0
H1601 H 0.07633 0.33869 0.82489 0.0
H1602 H 0.02823 0.3864 0.48497 0.0
H1603 H 1.00377 0.40519 0.50651 0.0
H1604 H 0.06907 0.49663 0.48993 0.0
H1605 H 0.09395 0.47806 0.46852 0.0
H1606 H 0.0585 0.49214 0.52679 0.0
H1607 H 0.94518 0.43558 0.49214 0.0
H1608 H 0.95855 0.41019 0.4993 0.0
H1609 H 0.98018 0.43863 0.48212 0.0
C1610 C 0.03777 0.41054 0.48605 0.0
C1611 C 0.06318 0.43059 0.47485 0.0
C1612 C 0.02343 0.4213 0.49828 0.0
C1613 C 0.03391 0.45241 0.49962 0.0
C1614 C 0.06022 0.47253 0.48913 0.0
H1615 H 0.9759 0.56551 0.56003 0.0
H1616 H 0.99981 0.54591 0.53867 0.0
C1617 C 0.0746 0.46181 0.4769 0.0
C1618 C 0.01733 0.46399 0.51172 0.0
H1619 H 0.94654 0.45924 0.52011 0.0
C1620 C 0.03405 0.485 0.52524 0.0
C1621 C 0.98535 0.45488 0.50981 0.0
C1622 C 0.96627 0.43381 0.49496 0.0
C1623 C 0.01971 0.49656 0.53702 0.0
C1624 C 0.98773 0.48738 0.53513 0.0
C1625 C 0.97098 0.46635 0.52164 0.0
C1626 C 0.97132 0.49918 0.54715 0.0
C1627 C 0.0388 0.518 0.55172 0.0
C1628 C 0.94618 0.47947 0.55855 0.0
C1629 C 0.93223 0.49065 0.57078 0.0
C1630 C 0.94284 0.52188 0.57185 0.0
C1631 C 0.96696 0.54137 0.5597 0.0
C1632 C 0.98098 0.53019 0.54756 0.0
H1633 H 0.06039 0.51701 0.55429 0.0
H1634 H 0.04561 0.54143 0.54741 0.0
H1635 H 0.02515 0.51287 0.56469 0.0
H1636 H 0.93801 0.45545 0.55846 0.0
H1637 H 0.91388 0.47483 0.57989 0.0
H1638 H 0.58391 0.60841 0.4594 0.0
H1639 H 0.56462 0.56604 0.48118 0.0
H1640 H 0.47056 0.53764 0.4655 0.0
H1641 H 0.48971 0.5795 0.44337 0.0
H1642 H 0.52641 0.54766 0.51079 0.0
H1643 H 0.47247 0.46049 0.45809 0.0
H1644 H 0.49795 0.49979 0.45238 0.0
H1645 H 0.45775 0.48642 0.45839 0.0
C1646 C 0.55907 0.59345 0.46069 0.0
C1647 C 0.53851 0.59763 0.44943 0.0
C1648 C 0.54801 0.56898 0.47317 0.0
C1649 C 0.51606 0.54785 0.4748 0.0
C1650 C 0.49537 0.55286 0.46424 0.0
H1651 H 0.40607 0.38576 0.54382 0.0
H1652 H 0.4238 0.42779 0.52176 0.0
C1653 C 0.5064 0.57721 0.45169 0.0
C1654 C 0.50453 0.52065 0.48739 0.0
H1655 H 0.4618 0.4432 0.48893 0.0
C1656 C 0.51241 0.52486 0.50593 0.0
C1657 C 0.48622 0.4906 0.48125 0.0
C1658 C 0.47833 0.48394 0.46142 0.0
C1659 C 0.50216 0.50027 0.51838 0.0
C1660 C 0.48376 0.4703 0.51224 0.0
C1661 C 0.47579 0.46603 0.49375 0.0
C1662 C 0.47282 0.44324 0.52482 0.0
C1663 C 0.51062 0.50663 0.53816 0.0
C1664 C 0.49424 0.43698 0.53357 0.0
C1665 C 0.48414 0.41269 0.54608 0.0
C1666 C 0.45224 0.39385 0.55028 0.0
C1667 C 0.43076 0.3995 0.54097 0.0
C1668 C 0.44091 0.42372 0.52835 0.0
H1669 H 0.51818 0.53047 0.54153 0.0
H1670 H 0.49064 0.49159 0.54724 0.0
H1671 H 0.53011 0.50234 0.54107 0.0
H1672 H 0.51894 0.45119 0.53091 0.0
H1673 H 0.50152 0.40936 0.55293 0.0
H1674 H 0.63096 0.03588 0.57254 0.0
H1675 H 0.59044 0.02148 0.55016 0.0
H1676 H 0.57077 0.08989 0.56986 0.0
H1677 H 0.61198 0.10482 0.59239 0.0
H1678 H 0.5274 0.99894 0.56212 0.0
H1679 H 0.56537 0.09535 0.51324 0.0
H1680 H 0.5926 0.09035 0.52704 0.0
H1681 H 0.56853 0.10376 0.53716 0.0
C1682 C 0.61891 0.04875 0.57182 0.0
C1683 C 0.62474 0.0713 0.58472 0.0
C1684 C 0.59535 0.04019 0.55901 0.0
C1685 C 0.57697 0.05414 0.55835 0.0
C1686 C 0.58449 0.07862 0.56999 0.0
H1687 H 0.41202 0.0059 0.49068 0.0
H1688 H 0.45386 0.02992 0.51271 0.0
C1689 C 0.60827 0.08725 0.58294 0.0
C1690 C 0.54837 0.04078 0.5468 0.0
H1691 H 0.51557 0.05333 0.50916 0.0
C1692 C 0.52485 0.01094 0.55057 0.0
C1693 C 0.54458 0.05631 0.5318 0.0
C1694 C 0.5691 0.08816 0.52688 0.0
C1695 C 0.49803 0.99625 0.53985 0.0
C1696 C 0.49469 0.01131 0.52439 0.0
C1697 C 0.51789 0.04149 0.52086 0.0
C1698 C 0.46792 0.99587 0.51148 0.0
C1699 C 0.47328 0.96481 0.5455 0.0
C1700 C 0.46133 0.96848 0.50327 0.0
C1701 C 0.43708 0.95446 0.49081 0.0
C1702 C 0.41875 0.9675 0.48588 0.0
C1703 C 0.42518 0.99482 0.49421 0.0
C1704 C 0.44942 0.0088 0.50676 0.0
H1705 H 0.47394 0.96076 0.56036 0.0
H1706 H 0.44967 0.96073 0.5422 0.0
H1707 H 0.47749 0.94812 0.53819 0.0
H1708 H 0.47553 0.95822 0.50612 0.0
H1709 H 0.43346 0.93382 0.48454 0.0
H1710 H 0.34377 0.03423 0.02052 0.0
H1711 H 0.30754 0.99518 1.00006 0.0
H1712 H 0.28536 0.92752 0.0421 0.0
H1713 H 0.32127 0.96588 0.06251 0.0
H1714 H 0.30745 0.93894 0.98928 0.0
H1715 H 0.20006 0.91887 0.0262 0.0
H1716 H 0.23691 0.95308 0.02851 0.0
H1717 H 0.22928 0.91926 0.04071 0.0
C1718 C 0.33113 0.01105 0.02542 0.0
C1719 C 0.33524 1.00328 0.04324 0.0
C1720 C 0.31052 0.98882 1.01371 0.0
C1721 C 0.29355 0.95866 1.01973 0.0
C1722 C 0.29794 0.95081 0.03735 0.0
H1723 H 0.20202 0.78331 0.97786 0.0
H1724 H 0.2391 0.83411 0.98755 0.0
C1725 C 0.31856 0.97283 0.04898 0.0
C1726 C 0.27131 0.9349 1.00775 0.0
H1727 H 0.19529 0.87999 1.00619 0.0
C1728 C 0.28282 0.92633 0.99271 0.0
C1729 C 0.23919 0.91886 1.01216 0.0
C1730 C 0.2255 0.92811 0.02768 0.0
C1731 C 0.26318 0.90082 0.98261 0.0
C1732 C 0.23146 0.88342 0.98791 0.0
C1733 C 0.21968 0.8932 1.00223 0.0
C1734 C 0.21059 0.85371 0.97991 0.0
C1735 C 0.27669 0.89241 0.96662 0.0
C1736 C 0.18212 0.84778 0.97253 0.0
C1737 C 0.16068 0.81865 0.96714 0.0
C1738 C 0.16729 0.79489 0.96919 0.0
C1739 C 0.19623 0.80111 0.97608 0.0
C1740 C 0.2176 0.83022 0.98147 0.0
H1741 H 0.29749 0.9125 0.96071 0.0
H1742 H 0.28409 0.87616 0.97129 0.0
H1743 H 0.25932 0.88166 0.95576 0.0
H1744 H 0.17619 0.86558 0.97134 0.0
H1745 H 0.13864 0.81462 0.96181 0.0
H1746 H 0.96107 0.27176 1.00747 0.0
H1747 H 1.00703 0.27356 0.99293 0.0
H1748 H 0.06614 0.34145 0.03068 0.0
H1749 H 0.02091 0.34014 0.04515 0.0
H1750 H 0.06363 0.32718 0.97758 0.0
H1751 H 0.08706 0.27094 0.03546 0.0
H1752 H 0.04947 0.2679 0.03199 0.0
H1753 H 0.08015 0.30105 0.04212 0.0
C1754 C 0.98388 0.28722 1.01259 0.0
C1755 C 0.98725 0.3056 0.02759 0.0
C1756 C 0.01003 0.28813 1.0043 0.0
C1757 C 0.03976 0.3072 1.01101 0.0
C1758 C 0.04325 0.32617 0.02556 0.0
H1759 H 0.22628 0.39877 0.98006 0.0
H1760 H 0.17097 0.37857 0.98595 0.0
C1761 C 0.01732 0.32544 0.03376 0.0
C1762 C 0.0676 0.30785 1.00294 0.0
H1763 H 0.12982 0.29998 1.01468 0.0
C1764 C 0.07785 0.32065 0.98548 0.0
C1765 C 0.08576 0.29886 1.0132 0.0
C1766 C 0.07496 0.28364 0.03167 0.0
C1767 C 0.10704 0.3268 0.97857 0.0
C1768 C 0.12635 0.32019 0.98953 0.0
C1769 C 0.11505 0.30527 1.00638 0.0
C1770 C 0.15951 0.33177 0.98478 0.0
C1771 C 0.11745 0.34125 0.95989 0.0
C1772 C 0.17151 0.31208 0.98257 0.0
C1773 C 0.20335 0.32357 0.97922 0.0
C1774 C 0.22369 0.35497 0.97829 0.0
C1775 C 0.21142 0.3745 0.98061 0.0
C1776 C 0.17969 0.363 0.98383 0.0
H1777 H 0.09725 0.33618 0.95121 0.0
H1778 H 0.13126 0.36612 0.96128 0.0
H1779 H 0.13227 0.33348 0.95292 0.0
H1780 H 0.15625 0.28787 0.98348 0.0
H1781 H 0.21201 0.30789 0.97749 0.0
H1782 H 0.74903 0.66839 0.03008 0.0
H1783 H 0.75376 0.70633 1.00741 0.0
H1784 H 0.701 0.73209 0.04304 0.0
H1785 H 0.6959 0.69459 0.06551 0.0
H1786 H 0.70312 0.71271 0.99078 0.0
H1787 H 0.78301 0.81233 0.03027 0.0
H1788 H 0.77881 0.77533 0.0341 0.0
H1789 H 0.75128 0.78476 0.04411 0.0
C1790 C 0.73836 0.68209 0.03304 0.0
C1791 C 0.72233 0.67862 0.04972 0.0
C1792 C 0.7412 0.70377 0.02011 0.0
C1793 C 0.72836 0.72238 0.02381 0.0
C1794 C 0.71171 0.71837 0.04016 0.0
H1795 H 0.6342 0.80066 0.98796 0.0
H1796 H 0.65792 0.76928 0.99256 0.0
C1797 C 0.70869 0.69676 0.05297 0.0
C1798 C 0.73095 0.74558 1.01063 0.0
H1799 H 0.74799 0.81903 1.01014 0.0
C1800 C 0.71378 0.73621 0.99462 0.0
C1801 C 0.74555 0.77631 1.01541 0.0
C1802 C 0.76599 0.78786 0.03183 0.0
C1803 C 0.70774 0.75618 0.98447 0.0
C1804 C 0.71874 0.78586 0.99077 0.0
C1805 C 0.73912 0.79613 1.00546 0.0
C1806 C 0.70455 0.8042 0.985 0.0
C1807 C 0.68801 0.74476 0.96779 0.0
C1808 C 0.72295 0.83452 0.97944 0.0
C1809 C 0.70939 0.8528 0.97695 0.0
C1810 C 0.67736 0.84106 0.98031 0.0
C1811 C 0.65898 0.81049 0.98536 0.0
C1812 C 0.67245 0.79232 0.98773 0.0
H1813 H 0.69223 0.72785 0.96072 0.0
H1814 H 0.66307 0.73339 0.97198 0.0
H1815 H 0.69272 0.76344 0.95806 0.0
H1816 H 0.74786 0.84421 0.97753 0.0
H1817 H 0.72411 0.87626 0.97299 0.0
H1818 H 0.67406 0.93763 1.01884 0.0
H1819 H 0.71059 0.98277 0.03531 0.0
H1820 H 0.72127 0.03793 0.98784 0.0
H1821 H 0.6841 0.99369 0.97172 0.0
H1822 H 0.7706 0.02348 0.02908 0.0
H1823 H 0.70175 0.08172 0.02612 0.0
H1824 H 0.68558 0.04249 0.0204 0.0
H1825 H 0.70744 0.07178 1.0036 0.0
C1826 C 0.68405 0.95943 1.01198 0.0
C1827 C 0.67604 0.962 0.99396 0.0
C1828 C 0.70494 0.98516 0.02139 0.0
C1829 C 0.71812 0.01378 1.01293 0.0
C1830 C 0.71067 0.01622 0.99485 0.0
H1831 H 0.88815 0.1771 0.02599 0.0
H1832 H 0.84821 0.12425 0.02251 0.0
C1833 C 0.68958 0.99074 0.98556 0.0
C1834 C 0.7403 0.04133 0.02259 0.0
H1835 H 0.75721 0.11381 0.02953 0.0
C1836 C 0.76749 0.04313 0.02954 0.0
C1837 C 0.73584 0.06666 0.0237 0.0
C1838 C 0.70587 0.06542 1.01824 0.0
C1839 C 0.79126 0.07025 0.03646 0.0
C1840 C 0.78813 0.09645 0.03576 0.0
C1841 C 0.76005 0.094 0.02986 0.0
C1842 C 0.81395 0.12703 0.03998 0.0
C1843 C 0.81936 0.07041 0.04437 0.0
C1844 C 0.80807 0.14645 0.05074 0.0
C1845 C 0.83037 0.17684 0.05205 0.0
C1846 C 0.85928 0.18819 0.04305 0.0
C1847 C 0.86604 0.16861 0.03319 0.0
C1848 C 0.84332 0.13834 0.03138 0.0
H1849 H 0.81301 0.04805 0.05054 0.0
H1850 H 0.83673 0.07501 0.0333 0.0
H1851 H 0.83029 0.08786 0.05494 0.0
H1852 H 0.7857 0.13836 0.05755 0.0
H1853 H 0.82481 0.19161 0.05983 0.0
H1854 H 0.84784 0.70551 0.07458 0.0
H1855 H 0.90025 0.71981 0.06321 0.0
H1856 H 0.87014 0.62663 0.05149 0.0
H1857 H 0.81815 0.61206 0.0631 0.0
H1858 H 0.93026 0.65747 0.06539 0.0
H1859 H 0.91383 0.72034 1.00796 0.0
H1860 H 0.91085 0.73211 0.03057 0.0
H1861 H 0.88224 0.69544 0.02305 0.0
C1862 C 0.85252 0.68803 0.06981 0.0
C1863 C 0.82871 0.65773 0.06943 0.0
C1864 C 0.88243 0.69625 0.0633 0.0
C1865 C 0.88884 0.67433 0.05622 0.0
C1866 C 0.86562 0.6439 0.05686 0.0
H1867 H 0.99494 0.66333 0.97037 0.0
H1868 H 0.95793 0.6629 0.99274 0.0
C1869 C 0.83585 0.63565 0.06342 0.0
C1870 C 0.91856 0.68285 0.04657 0.0
H1871 H 0.95819 0.715 1.00679 0.0
C1872 C 0.93678 0.67051 0.05274 0.0
C1873 C 0.92669 0.69964 0.02999 0.0
C1874 C 0.90735 0.71252 0.02236 0.0
C1875 C 0.96218 0.67339 0.04233 0.0
C1876 C 0.9696 0.68931 0.02548 0.0
C1877 C 0.95234 0.70289 1.01977 0.0
C1878 C 0.99266 0.68918 1.01253 0.0
C1879 C 0.97975 0.65796 0.04886 0.0
C1880 C 0.02448 0.70401 1.01634 0.0
C1881 C 0.04587 0.70427 1.00354 0.0
C1882 C 0.03569 0.68984 0.98672 0.0
C1883 C 1.00369 0.67479 0.98312 0.0
C1884 C 0.98245 0.67452 0.99589 0.0
H1885 H 0.96836 0.64312 0.06098 0.0
H1886 H 0.98179 0.64419 0.03782 0.0
H1887 H 1.00363 0.67527 0.05257 0.0
H1888 H 0.03279 0.71573 0.02905 0.0
H1889 H 0.07036 0.71613 1.00672 0.0
H1890 H 0.32593 0.29321 0.9879 0.0
H1891 H 0.32603 0.25396 1.00692 0.0
H1892 H 0.29306 0.28304 0.05301 0.0
H1893 H 0.29279 0.32289 0.03391 0.0
H1894 H 0.34493 0.27135 0.05957 0.0
H1895 H 0.24589 0.17688 0.02572 0.0
H1896 H 0.27407 0.20342 1.00968 0.0
H1897 H 0.25298 0.21526 0.02456 0.0
C1898 C 0.31869 0.29144 1.00207 0.0
C1899 C 0.30905 0.31103 1.00935 0.0
C1900 C 0.31862 0.26885 1.01289 0.0
C1901 C 0.3089 0.26527 0.03121 0.0
C1902 C 0.30026 0.28532 0.0388 0.0
H1903 H 0.3024 0.10035 0.0734 0.0
H1904 H 0.28605 0.13858 0.07099 0.0
C1905 C 0.30019 0.30804 0.0279 0.0
C1906 C 0.30858 0.24064 0.04212 0.0
H1907 H 0.28273 0.16517 0.03992 0.0
C1908 C 0.33077 0.24799 0.05569 0.0
C1909 C 0.2896 0.21016 0.03731 0.0
C1910 C 0.26405 0.20088 0.02364 0.0
C1911 C 0.33654 0.22587 0.06329 0.0
C1912 C 0.32003 0.19597 0.05686 0.0
C1913 C 0.29571 0.18817 0.04466 0.0
C1914 C 0.33047 0.17373 0.0604 0.0
C1915 C 0.36115 0.235 0.07755 0.0
C1916 C 0.3607 0.18077 0.05508 0.0
C1917 C 0.37003 0.1591 0.05635 0.0
C1918 C 0.34918 0.12975 0.06278 0.0
C1919 C 0.31895 0.12274 0.06831 0.0
C1920 C 0.30963 0.14456 0.06705 0.0
H1921 H 0.36264 0.25387 0.08579 0.0
H1922 H 0.35644 0.2158 0.08683 0.0
H1923 H 0.38413 0.24302 0.07071 0.0
H1924 H 0.37687 0.20282 0.04937 0.0
H1925 H 0.39347 0.16527 0.05196 0.0
H1926 H 0.01823 0.36747 0.35363 0.0
H1927 H 0.9843 0.32729 0.33311 0.0
H1928 H 0.94771 0.26474 0.3788 0.0
H1929 H 0.98252 0.30391 0.39903 0.0
H1930 H 0.96211 0.24075 0.35197 0.0
H1931 H 0.89289 0.29087 0.32484 0.0
H1932 H 0.93407 0.31359 0.32089 0.0
H1933 H 0.9185 0.30665 0.34383 0.0
C1934 C 1.00279 0.34518 0.35929 0.0
C1935 C 1.00296 0.33899 0.37801 0.0
C1936 C 0.98324 0.3223 0.34756 0.0
C1937 C 0.96307 0.29311 0.35446 0.0
C1938 C 0.96302 0.2871 0.37316 0.0
H1939 H 0.79894 0.14234 0.31541 0.0
H1940 H 0.83862 0.19156 0.32624 0.0
C1941 C 0.9829 0.30965 0.38476 0.0
C1942 C 0.94288 0.26807 0.34236 0.0
H1943 H 0.88266 0.24395 0.31286 0.0
C1944 C 0.94479 0.24149 0.34337 0.0
C1945 C 0.92023 0.26906 0.33121 0.0
C1946 C 0.91601 0.29645 0.33021 0.0
C1947 C 0.92391 0.21546 0.33422 0.0
C1948 C 0.90139 0.21645 0.32292 0.0
C1949 C 0.90012 0.24335 0.32139 0.0
C1950 C 0.87737 0.18904 0.31392 0.0
C1951 C 0.9252 0.18678 0.33767 0.0
C1952 C 0.88582 0.1719 0.30273 0.0
C1953 C 0.8633 0.14344 0.29701 0.0
C1954 C 0.83186 0.13223 0.30181 0.0
C1955 C 0.82307 0.15051 0.31158 0.0
C1956 C 0.84572 0.17862 0.31773 0.0
H1957 H 0.93787 0.18798 0.35032 0.0
H1958 H 0.90148 0.16691 0.33891 0.0
H1959 H 0.93769 0.18316 0.32614 0.0
H1960 H 0.90998 0.17995 0.29906 0.0
H1961 H 0.87053 0.1299 0.28921 0.0
H1962 H 0.89522 0.73352 0.31573 0.0
H1963 H 0.8401 0.7146 0.32166 0.0
H1964 H 0.82192 0.62321 0.31543 0.0
H1965 H 0.87747 0.6419 0.30955 0.0
H1966 H 0.78781 0.67742 0.29942 0.0
H1967 H 0.78566 0.62448 0.36669 0.0
H1968 H 0.82156 0.65158 0.35548 0.0
H1969 H 0.80041 0.61376 0.34726 0.0
C1970 C 0.87966 0.70936 0.3156 0.0
C1971 C 0.89091 0.68922 0.31231 0.0
C1972 C 0.84809 0.69862 0.31891 0.0
C1973 C 0.82706 0.66756 0.31906 0.0
C1974 C 0.83793 0.64728 0.31553 0.0
H1975 H 0.62763 0.60907 0.33782 0.0
H1976 H 0.67425 0.61191 0.32353 0.0
C1977 C 0.86965 0.65802 0.3122 0.0
C1978 C 0.79401 0.65688 0.32362 0.0
H1979 H 0.74061 0.62567 0.35844 0.0
C1980 C 0.77716 0.66557 0.31215 0.0
C1981 C 0.78044 0.64159 0.34028 0.0
C1982 C 0.79787 0.63238 0.35326 0.0
C1983 C 0.74753 0.66059 0.31733 0.0
C1984 C 0.73456 0.64644 0.33432 0.0
C1985 C 0.75075 0.63643 0.34537 0.0
C1986 C 0.70625 0.64533 0.34201 0.0
C1987 C 0.73104 0.67202 0.30516 0.0
C1988 C 0.70902 0.66335 0.35695 0.0
C1989 C 0.68268 0.66188 0.36508 0.0
C1990 C 0.6529 0.64215 0.35849 0.0
C1991 C 0.65022 0.62455 0.34319 0.0
C1992 C 0.67676 0.62611 0.33502 0.0
H1993 H 0.74553 0.68484 0.2931 0.0
H1994 H 0.70922 0.65263 0.3003 0.0
H1995 H 0.72462 0.68683 0.31295 0.0
H1996 H 0.73166 0.67841 0.36246 0.0
H1997 H 0.68574 0.67588 0.37676 0.0
H1998 H 0.38907 0.20668 0.30515 0.0
H1999 H 0.41244 0.17419 0.30898 0.0
H2000 H 0.32325 0.10064 0.32657 0.0
H2001 H 0.29987 0.1325 0.32267 0.0
H2002 H 0.41487 0.15001 0.3415 0.0
H2003 H 0.35394 0.05728 0.2936 0.0
H2004 H 0.35481 0.09305 0.29103 0.0
H2005 H 0.32613 0.06373 0.30578 0.0
C2006 C 0.3744 0.18342 0.30955 0.0
C2007 C 0.34271 0.17223 0.31379 0.0
C2008 C 0.38774 0.16489 0.31162 0.0
C2009 C 0.36945 0.13483 0.31768 0.0
C2010 C 0.33764 0.12347 0.32135 0.0
H2011 H 0.36458 0.02652 0.39746 0.0
H2012 H 0.36849 0.06338 0.37488 0.0
C2013 C 0.32438 0.1419 0.31937 0.0
C2014 C 0.38374 0.11636 0.32296 0.0
H2015 H 0.3674 0.04299 0.32313 0.0
C2016 C 0.4054 0.12694 0.337 0.0
C2017 C 0.37191 0.08644 0.31689 0.0
C2018 C 0.35067 0.07464 0.30083 0.0
C2019 C 0.41245 0.10727 0.34663 0.0
C2020 C 0.39721 0.0764 0.34216 0.0
C2021 C 0.37861 0.06663 0.32671 0.0
C2022 C 0.39535 0.05354 0.35536 0.0
C2023 C 0.4342 0.11912 0.36246 0.0
C2024 C 0.40841 0.03515 0.35156 0.0
C2025 C 0.40632 0.01388 0.36457 0.0
C2026 C 0.39082 0.01059 0.38141 0.0
C2027 C 0.37698 0.02854 0.38478 0.0
C2028 C 0.37928 0.04977 0.3719 0.0
H2029 H 0.45103 0.14359 0.36065 0.0
H2030 H 0.42045 0.11609 0.37517 0.0
H2031 H 0.44725 0.10669 0.36414 0.0
H2032 H 0.42056 0.03758 0.33871 0.0
H2033 H 0.4171 1.0003 0.36152 0.0
H2034 H 0.55917 0.51163 0.38035 0.0
H2035 H 0.52445 0.45713 0.37706 0.0
H2036 H 0.45214 0.47398 0.35795 0.0
H2037 H 0.48625 0.52805 0.36121 0.0
H2038 H 0.43285 0.42519 0.38508 0.0
H2039 H 0.50004 0.41756 0.32556 0.0
H2040 H 0.52053 0.43433 0.34614 0.0
H2041 H 0.50471 0.45325 0.33298 0.0
C2042 C 0.53584 0.50368 0.37549 0.0
C2043 C 0.52557 0.52417 0.37085 0.0
C2044 C 0.51609 0.4726 0.37364 0.0
C2045 C 0.48587 0.46169 0.36719 0.0
C2046 C 0.47539 0.48203 0.36299 0.0
H2047 H 0.34662 0.32715 0.30853 0.0
H2048 H 0.38794 0.37069 0.32341 0.0
C2049 C 0.49502 0.51295 0.36476 0.0
C2050 C 0.46521 0.4293 0.36379 0.0
H2051 H 0.45123 0.37559 0.33215 0.0
C2052 C 0.43712 0.41396 0.37381 0.0
C2053 C 0.47093 0.41497 0.349 0.0
C2054 C 0.50057 0.43075 0.33768 0.0
C2055 C 0.41382 0.38518 0.36876 0.0
C2056 C 0.41891 0.37163 0.35337 0.0
C2057 C 0.44764 0.38619 0.344 0.0
C2058 C 0.39327 0.34472 0.34513 0.0
C2059 C 0.38314 0.37023 0.37909 0.0
C2060 C 0.38249 0.31575 0.3526 0.0
C2061 C 0.35876 0.29058 0.34408 0.0
C2062 C 0.34559 0.29415 0.32798 0.0
C2063 C 0.35623 0.32342 0.32083 0.0
C2064 C 0.3799 0.3484 0.32929 0.0
H2065 H 0.38275 0.384 0.39065 0.0
H2066 H 0.36406 0.3663 0.36973 0.0
H2067 H 0.37841 0.34789 0.38448 0.0
H2068 H 0.39268 0.31261 0.36484 0.0
H2069 H 0.35111 0.26836 0.34995 0.0
H2070 H 0.6642 0.99713 0.30556 0.0
H2071 H 0.62823 0.99791 0.3282 0.0
H2072 H 0.70429 0.04952 0.36401 0.0
H2073 H 0.74096 0.049 0.34129 0.0
H2074 H 0.64795 0.99803 0.38071 0.0
H2075 H 0.62345 0.07591 0.34006 0.0
H2076 H 0.62097 0.04501 0.32714 0.0
H2077 H 0.6577 0.07233 0.33624 0.0
C2078 C 0.67348 0.00865 0.31822 0.0
C2079 C 0.70559 0.0233 0.3215 0.0
C2080 C 0.65282 0.00913 0.33112 0.0
C2081 C 0.66375 0.02423 0.34757 0.0
C2082 C 0.69556 0.03799 0.35128 0.0
H2083 H 0.51677 0.03915 0.40639 0.0
H2084 H 0.57004 0.05377 0.39671 0.0
C2085 C 0.7164 0.03763 0.33829 0.0
C2086 C 0.64143 0.02542 0.36063 0.0
H2087 H 0.58501 0.04536 0.36282 0.0
C2088 C 0.63457 0.00889 0.37706 0.0
C2089 C 0.62453 0.04016 0.35598 0.0
C2090 C 0.63221 0.05962 0.33897 0.0
C2091 C 0.60948 1.00474 0.38828 0.0
C2092 C 0.59069 0.01708 0.3827 0.0
C2093 C 0.59921 0.03564 0.36702 0.0
C2094 C 0.56013 0.00815 0.39145 0.0
C2095 C 0.60278 0.98645 0.4057 0.0
C2096 C 0.53701 0.97765 0.39188 0.0
C2097 C 0.50665 0.96924 0.39735 0.0
C2098 C 0.4987 0.99123 0.40232 0.0
C2099 C 0.52213 0.02169 0.40257 0.0
C2100 C 0.55259 0.03008 0.3971 0.0
H2101 H 0.62446 0.98838 0.41131 0.0
H2102 H 0.59156 0.99373 0.4162 0.0
H2103 H 0.58691 0.96229 0.40281 0.0
H2104 H 0.54206 0.9604 0.38713 0.0
H2105 H 0.48919 0.94557 0.39702 0.0
H2106 H 0.99159 0.62568 0.32358 0.0
H2107 H 0.99085 0.58652 0.34306 0.0
H2108 H 0.95714 0.61657 0.38833 0.0
H2109 H 0.95769 0.65634 0.36874 0.0
H2110 H 0.00855 0.60461 0.39577 0.0
H2111 H 0.91028 0.50984 0.36171 0.0
H2112 H 0.93861 0.53613 0.34565 0.0
H2113 H 0.9174 0.54821 0.36025 0.0
C2114 C 0.984 0.62414 0.33766 0.0
C2115 C 0.97441 0.64399 0.34456 0.0
C2116 C 0.98344 0.60159 0.34875 0.0
C2117 C 0.97326 0.59829 0.36696 0.0
C2118 C 0.96466 0.61861 0.3742 0.0
H2119 H 0.96901 0.43413 0.40835 0.0
H2120 H 0.95153 0.47159 0.40659 0.0
C2121 C 0.96509 0.64129 0.36302 0.0
C2122 C 0.97261 0.57376 0.37815 0.0
H2123 H 0.9475 0.49845 0.37589 0.0
C2124 C 0.9946 0.58124 0.39185 0.0
C2125 C 0.95387 0.54325 0.37333 0.0
C2126 C 0.92846 0.53381 0.35955 0.0
C2127 C 1.00056 0.55927 0.39949 0.0
C2128 C 0.9845 0.52943 0.39294 0.0
C2129 C 0.96019 0.52143 0.3807 0.0
C2130 C 0.99562 0.50764 0.39624 0.0
C2131 C 0.02502 0.56855 0.41385 0.0
C2132 C 0.02605 0.51544 0.39085 0.0
C2133 C 0.036 0.4942 0.39173 0.0
C2134 C 0.01561 0.46453 0.39785 0.0
C2135 C 0.98521 0.45677 0.40349 0.0
C2136 C 0.97525 0.47816 0.4026 0.0
H2137 H 0.02593 0.58705 0.42222 0.0
H2138 H 0.02059 0.54928 0.423 0.0
H2139 H 0.04816 0.57716 0.40711 0.0
H2140 H 0.04187 0.53775 0.38534 0.0
H2141 H 0.05956 0.50095 0.38728 0.0
H2142 H 0.53552 0.45816 0.64103 0.0
H2143 H 0.57081 0.50912 0.65118 0.0
H2144 H 0.50236 0.53567 0.63914 0.0
H2145 H 0.46646 0.48436 0.62917 0.0
H2146 H 0.59607 0.56721 0.63477 0.0
H2147 H 0.51729 0.55087 0.69408 0.0
H2148 H 0.51246 0.51995 0.68009 0.0
H2149 H 0.50087 0.54617 0.67183 0.0
C2150 C 0.52798 0.47485 0.64036 0.0
C2151 C 0.49797 0.46708 0.63458 0.0
C2152 C 0.54827 0.50402 0.64608 0.0
C2153 C 0.53899 0.52598 0.64614 0.0
C2154 C 0.50972 0.51884 0.63945 0.0
H2155 H 0.67131 0.70639 0.68792 0.0
H2156 H 0.63402 0.66802 0.66756 0.0
C2157 C 0.48929 0.48956 0.63374 0.0
C2158 C 0.55922 0.55536 0.65464 0.0
H2159 H 0.56568 0.59505 0.69312 0.0
C2160 C 0.58933 0.57367 0.64736 0.0
C2161 C 0.5503 0.56344 0.67114 0.0
C2162 C 0.51858 0.54407 0.67989 0.0
C2163 C 0.61122 0.59928 0.65656 0.0
C2164 C 0.60256 0.60672 0.67334 0.0
C2165 C 0.57207 0.58921 0.68019 0.0
C2166 C 0.6256 0.63028 0.68512 0.0
C2167 C 0.64392 0.61719 0.64887 0.0
C2168 C 0.63296 0.62164 0.70168 0.0
C2169 C 0.65406 0.64331 0.7133 0.0
C2170 C 0.66816 0.67419 0.70864 0.0
C2171 C 0.66089 0.68281 0.69192 0.0
C2172 C 0.6397 0.66097 0.68025 0.0
H2173 H 0.64782 0.60631 0.63682 0.0
H2174 H 0.64849 0.64004 0.64468 0.0
H2175 H 0.66101 0.62 0.65943 0.0
H2176 H 0.6223 0.59801 0.70563 0.0
H2177 H 0.65909 0.63576 0.72601 0.0
H2178 H 0.56221 0.06817 0.64821 0.0
H2179 H 0.50716 0.0494 0.65435 0.0
H2180 H 0.48875 0.95787 0.64853 0.0
H2181 H 0.54422 0.9764 0.64247 0.0
H2182 H 0.45446 0.01212 0.6326 0.0
H2183 H 0.45338 0.95971 0.69986 0.0
H2184 H 0.4891 0.98656 0.68838 0.0
H2185 H 0.46763 0.94861 0.68038 0.0
C2186 C 0.54661 0.04401 0.64821 0.0
C2187 C 0.55777 0.02378 0.64501 0.0
C2188 C 0.51508 0.03336 0.65164 0.0
C2189 C 0.49401 1.0023 0.65198 0.0
C2190 C 0.50479 0.98194 0.6485 0.0
H2191 H 0.29464 0.94337 0.67143 0.0
H2192 H 0.34128 0.94647 0.65701 0.0
C2193 C 0.53647 0.99259 0.64505 0.0
C2194 C 0.46103 0.9917 0.65674 0.0
H2195 H 0.40805 0.9605 0.69177 0.0
C2196 C 0.444 1.00031 0.64537 0.0
C2197 C 0.44769 0.97648 0.67346 0.0
C2198 C 0.46532 0.96738 0.68635 0.0
C2199 C 0.41439 0.99527 0.65068 0.0
C2200 C 0.40163 0.98113 0.66771 0.0
C2201 C 0.41802 0.97125 0.67868 0.0
C2202 C 0.37329 0.97984 0.6755 0.0
C2203 C 0.3977 0.00659 0.6386 0.0
C2204 C 0.37605 0.99773 0.69051 0.0
C2205 C 0.3497 0.99611 0.69872 0.0
C2206 C 0.31991 0.97636 0.69215 0.0
C2207 C 0.31723 0.95887 0.6768 0.0
C2208 C 0.34379 0.96058 0.66854 0.0
H2209 H 0.4121 0.01955 0.62655 0.0
H2210 H 0.37595 0.98714 0.63374 0.0
H2211 H 0.39115 0.02125 0.64646 0.0
H2212 H 0.39869 0.01282 0.69601 0.0
H2213 H 0.35276 0.01003 0.71045 0.0
H2214 H 0.02649 0.35599 0.73064 0.0
H2215 H 0.02972 0.39255 0.70802 0.0
H2216 H 0.0889 0.37297 0.67374 0.0
H2217 H 0.0859 0.33583 0.69651 0.0
H2218 H 0.09183 0.44469 0.69361 0.0
H2219 H 0.01208 0.36565 0.64202 0.0
H2220 H 0.00845 0.35355 0.66557 0.0
H2221 H 0.0418 0.35978 0.65222 0.0
C2222 C 0.04015 0.3592 0.71831 0.0
C2223 C 0.05605 0.343 0.71545 0.0
C2224 C 0.042 0.38019 0.70541 0.0
C2225 C 0.05965 0.38545 0.68933 0.0
C2226 C 0.07517 0.36909 0.68612 0.0
H2227 H 0.05456 0.53942 0.63638 0.0
H2228 H 0.07776 0.50693 0.64115 0.0
C2229 C 0.07336 0.34792 0.69912 0.0
C2230 C 0.06142 0.40851 0.67634 0.0
H2231 H 0.02057 0.41547 0.64139 0.0
C2232 C 0.07719 0.43869 0.68175 0.0
C2233 C 0.04231 0.40032 0.66095 0.0
C2234 C 0.02512 0.3681 0.6547 0.0
C2235 C 0.07179 0.46044 0.6733 0.0
C2236 C 0.05032 0.45161 0.65897 0.0
C2237 C 0.03703 0.42209 0.65238 0.0
C2238 C 0.03626 0.47024 0.65367 0.0
C2239 C 0.0866 0.49182 0.68097 0.0
C2240 C 1.00511 0.45996 0.65865 0.0
C2241 C 0.99189 0.47827 0.65597 0.0
C2242 C 0.00957 0.50735 0.64825 0.0
C2243 C 0.04048 0.51725 0.64257 0.0
C2244 C 0.05375 0.49876 0.64526 0.0
H2245 H 0.10079 0.49418 0.69311 0.0
H2246 H 0.10194 0.50842 0.67041 0.0
H2247 H 0.06842 0.49764 0.68489 0.0
H2248 H 0.99126 0.43806 0.66523 0.0
H2249 H 0.96794 0.46978 0.66034 0.0
H2250 H 0.15192 0.8616 0.69871 0.0
H2251 H 0.11764 0.80748 0.69601 0.0
H2252 H 0.19322 0.79153 0.70915 0.0
H2253 H 0.22806 0.84612 0.71193 0.0
H2254 H 0.16108 0.76345 0.67699 0.0
H2255 H 0.07895 0.73937 0.73495 0.0
H2256 H 0.08519 0.77178 0.72172 0.0
H2257 H 0.11708 0.77256 0.73377 0.0
C2258 C 0.16131 0.84666 0.70118 0.0
C2259 C 0.19277 0.85816 0.70544 0.0
C2260 C 0.14156 0.81569 0.69982 0.0
C2261 C 0.15278 0.79554 0.70271 0.0
C2262 C 0.1841 0.80679 0.7071 0.0
H2263 H 0.01684 0.60353 0.68392 0.0
H2264 H 0.05889 0.64725 0.69892 0.0
C2265 C 0.20394 0.83792 0.70861 0.0
C2266 C 0.13217 0.76311 0.69934 0.0
H2267 H 0.05933 0.70515 0.70953 0.0
C2268 C 0.1392 0.75036 0.6844 0.0
C2269 C 0.1038 0.74601 0.70914 0.0
C2270 C 0.09592 0.75803 0.72591 0.0
C2271 C 0.11741 0.72189 0.67808 0.0
C2272 C 0.08795 0.70602 0.68689 0.0
C2273 C 0.08188 0.71761 0.70272 0.0
C2274 C 0.06208 0.67952 0.67845 0.0
C2275 C 0.12539 0.7096 0.66146 0.0
C2276 C 0.04962 0.68354 0.66232 0.0
C2277 C 0.0256 0.65889 0.65383 0.0
C2278 C 0.01361 0.6296 0.66128 0.0
C2279 C 0.02564 0.62574 0.67777 0.0
C2280 C 0.04965 0.65061 0.68634 0.0
H2281 H 0.15095 0.72029 0.6592 0.0
H2282 H 0.11544 0.68477 0.66275 0.0
H2283 H 0.11534 0.71435 0.64926 0.0
H2284 H 0.05866 0.70584 0.65622 0.0
H2285 H 0.01678 0.66286 0.64128 0.0
H2286 H 0.15494 0.27881 0.73072 0.0
H2287 H 0.20765 0.29397 0.7203 0.0
H2288 H 0.23529 0.38719 0.73016 0.0
H2289 H 0.18218 0.37223 0.74037 0.0
H2290 H 0.24957 0.37899 0.69606 0.0
H2291 H 0.2907 0.32239 0.74373 0.0
H2292 H 0.25303 0.29615 0.73545 0.0
H2293 H 0.25773 0.32743 0.749 0.0
C2294 C 0.17231 0.30251 0.73101 0.0
C2295 C 0.16429 0.32436 0.73621 0.0
C2296 C 0.20258 0.31111 0.72522 0.0
C2297 C 0.22554 0.34167 0.72472 0.0
C2298 C 0.21795 0.36346 0.7306 0.0
H2299 H 0.40613 0.38329 0.6742 0.0
H2300 H 0.36919 0.3834 0.69685 0.0
C2301 C 0.18759 0.35487 0.73638 0.0
C2302 C 0.25594 0.3508 0.71568 0.0
H2303 H 0.31367 0.33246 0.71302 0.0
C2304 C 0.26401 0.36942 0.70004 0.0
C2305 C 0.27503 0.33867 0.72098 0.0
C2306 C 0.26883 0.32032 0.73834 0.0
C2307 C 0.28924 0.37427 0.6888 0.0
C2308 C 0.30648 0.35977 0.6932 0.0
C2309 C 0.30002 0.34313 0.70956 0.0
C2310 C 0.32897 0.35913 0.68001 0.0
C2311 C 0.29652 0.39394 0.67193 0.0
C2312 C 0.31832 0.34476 0.66333 0.0
C2313 C 0.33915 0.34453 0.65045 0.0
C2314 C 0.37115 0.35866 0.654 0.0
C2315 C 0.38167 0.37235 0.67099 0.0
C2316 C 0.36067 0.37246 0.68394 0.0
H2317 H 0.28775 0.41018 0.67331 0.0
H2318 H 0.32195 0.40673 0.669 0.0
H2319 H 0.28502 0.37948 0.66008 0.0
H2320 H 0.2938 0.33382 0.66023 0.0
H2321 H 0.33009 0.3335 0.63763 0.0
H2322 H 0.72413 0.83547 0.72128 0.0
H2323 H 0.70628 0.87216 0.7197 0.0
H2324 H 0.61536 0.8049 0.73955 0.0
H2325 H 0.633 0.76754 0.74093 0.0
H2326 H 0.61211 0.83258 0.70918 0.0
H2327 H 0.68863 0.92008 0.75663 0.0
H2328 H 0.71162 0.91092 0.74168 0.0
H2329 H 0.68364 0.88244 0.75713 0.0
C2330 C 0.70041 0.82845 0.72552 0.0
C2331 C 0.6799 0.79851 0.7311 0.0
C2332 C 0.69036 0.84963 0.72485 0.0
C2333 C 0.65971 0.84149 0.72993 0.0
C2334 C 0.63924 0.81173 0.73581 0.0
H2335 H 0.62248 0.99043 0.70179 0.0
H2336 H 0.62117 0.9505 0.72157 0.0
C2337 C 0.6493 0.79041 0.73648 0.0
C2338 C 0.64851 0.86323 0.72669 0.0
H2339 H 0.67239 0.93833 0.7299 0.0
C2340 C 0.6246 0.85545 0.71419 0.0
C2341 C 0.66428 0.89292 0.73349 0.0
C2342 C 0.68822 0.90192 0.74814 0.0
C2343 C 0.61851 0.8774 0.70678 0.0
C2344 C 0.6371 0.90782 0.71183 0.0
C2345 C 0.65857 0.91503 0.72581 0.0
C2346 C 0.6383 0.93253 0.70057 0.0
C2347 C 0.59363 0.86824 0.69268 0.0
C2348 C 0.64931 0.93606 0.68252 0.0
C2349 C 0.65029 0.95869 0.67133 0.0
C2350 C 0.6403 0.97839 0.67796 0.0
C2351 C 0.6302 0.9755 0.69628 0.0
C2352 C 0.62934 0.95273 0.70756 0.0
H2353 H 0.57535 0.84425 0.69462 0.0
H2354 H 0.58258 0.88266 0.69324 0.0
H2355 H 0.60427 0.87077 0.6789 0.0
H2356 H 0.657 0.92107 0.67703 0.0
H2357 H 0.65849 0.96039 0.65737 0.0
loop_
_geom_bond_atom_site_label_1
_geom_bond_atom_site_label_2
_geom_bond_distance
_geom_bond_site_symmetry_2
_ccdc_geom_bond_type
Co0 O2 2.143 . S
Co0 O8 2.074 . S
Co0 O11 2.093 . S
Co0 O24 2.097 . S
Co0 N41 2.151 . S
Co0 N49 2.214 1_554 S
Co1 O2 2.160 . S
Co1 O7 2.058 . S
Co1 O17 2.057 . S
Co1 O32 2.037 1_545 S
Co1 N36 2.145 1_545 S
Co1 N57 2.257 . S
O2 Co0 2.143 . S
O2 Co1 2.160 . S
C3 O4 1.278 . S
C3 O11 1.224 . S
O4 C3 1.278 . S
C5 O6 1.245 . S
C5 O17 1.232 . S
O6 C5 1.245 . S
O7 Co1 2.058 . S
O7 C33 1.269 . S
O8 Co0 2.074 . S
O8 C33 1.257 . S
H9 C34 0.930 . S
H10 C40 0.930 . S
O11 Co0 2.093 . S
O11 C3 1.224 . S
H12 C44 0.929 . S
H13 C46 0.930 . S
H14 C47 0.896 1_554 S
H15 C45 0.929 . S
H16 C48 0.928 . S
O17 Co1 2.057 . S
O17 C5 1.232 . S
H18 C37 0.929 . S
H19 C38 0.929 . S
H20 C50 0.931 1_565 S
H21 C42 0.929 . S
H22 C51 0.930 . S
H23 C43 0.931 . S
O24 Co0 2.097 . S
O24 C52 1.214 1_545 S
H25 C53 0.929 . S
H26 C54 0.929 . S
H27 C55 0.930 . S
H28 C56 0.929 . S
H29 C58 0.930 . S
H30 C35 0.930 . S
H31 C39 0.930 . S
O32 Co1 2.037 1_565 S
O32 C52 1.234 . S
C33 O7 1.269 . S
C33 O8 1.257 . S
C34 H9 0.930 . S
C34 C37 1.388 . S
C34 C39 1.418 . S
C35 H30 0.930 . S
C35 C38 1.404 . S
C35 C39 1.353 . S
N36 Co1 2.145 1_565 S
N36 C37 1.397 . S
N36 C38 1.334 . S
C37 H18 0.929 . S
C37 C34 1.388 . S
C37 N36 1.397 . S
C38 H19 0.929 . S
C38 C35 1.404 . S
C38 N36 1.334 . S
C39 H31 0.930 . S
C39 C34 1.418 . S
C39 C35 1.353 . S
C40 H10 0.930 . S
C40 N41 1.330 . S
C40 C42 1.446 . S
N41 Co0 2.151 . S
N41 C40 1.330 . S
N41 C45 1.418 . S
C42 H21 0.929 . S
C42 C40 1.446 . S
C42 C43 1.332 . S
C43 H23 0.931 . S
C43 C42 1.332 . S
C43 C44 1.267 . S
C44 H12 0.929 . S
C44 C43 1.267 . S
C44 C45 1.251 . S
C45 H15 0.929 . S
C45 N41 1.418 . S
C45 C44 1.251 . S
C46 H13 0.930 . S
C46 C48 1.406 . S
C46 C51 1.261 . S
C47 H14 0.896 1_556 S
C47 N49 1.325 . S
C47 C50 1.357 . S
C48 H16 0.928 . S
C48 C46 1.406 . S
C48 N49 1.261 . S
N49 Co0 2.214 1_556 S
N49 C47 1.325 . S
N49 C48 1.261 . S
C50 H20 0.931 1_545 S
C50 C47 1.357 . S
C50 C51 1.312 . S
C51 H22 0.930 . S
C51 C46 1.261 . S
C51 C50 1.312 . S
C52 O24 1.214 1_565 S
C52 O32 1.234 . S
C53 H25 0.929 . S
C53 C56 1.391 . S
C53 C58 1.391 . S
C54 H26 0.929 . S
C54 C55 1.390 . S
C54 N57 1.391 1_565 S
C55 H27 0.930 . S
C55 C54 1.390 . S
C55 C56 1.392 1_565 S
C56 H28 0.929 . S
C56 C53 1.391 . S
C56 C55 1.392 1_545 S
N57 Co1 2.257 . S
N57 C54 1.391 1_545 S
N57 C58 1.388 . S
C58 H29 0.930 . S
C58 C53 1.391 . S
C58 N57 1.388 . S
Co59 O61 2.143 . S
Co59 O67 2.074 . S
Co59 O70 2.093 1_554 S
Co59 O83 2.097 . S
Co59 N100 2.151 . S
Co59 N108 2.214 1_554 S
Co60 O61 2.160 . S
Co60 O66 2.058 . S
Co60 O76 2.057 . S
Co60 O91 2.037 . S
Co60 N95 2.145 . S
Co60 N116 2.257 . S
O61 Co59 2.143 . S
O61 Co60 2.160 . S
C62 O63 1.278 . S
C62 O70 1.224 1_554 S
O63 C62 1.278 . S
C64 O65 1.245 . S
C64 O76 1.232 . S
O65 C64 1.245 . S
O66 Co60 2.058 . S
O66 C92 1.269 . S
O67 Co59 2.074 . S
O67 C92 1.257 . S
H68 C93 0.930 . S
H69 C99 0.930 . S
O70 Co59 2.093 1_556 S
O70 C62 1.224 1_556 S
H71 C103 0.929 . S
H72 C105 0.930 . S
H73 C106 0.930 . S
H74 C104 0.929 . S
H75 C107 0.928 . S
O76 Co60 2.057 . S
O76 C64 1.232 . S
H77 C96 0.929 . S
H78 C97 0.929 . S
H79 C109 0.931 . S
H80 C101 0.929 . S
H81 C110 0.930 . S
H82 C102 0.934 . S
O83 Co59 2.097 . S
O83 C111 1.214 . S
H84 C112 0.929 . S
H85 C113 0.929 . S
H86 C114 0.930 . S
H87 C115 0.929 . S
H88 C117 0.930 . S
H89 C94 0.930 . S
H90 C98 0.930 . S
O91 Co60 2.037 . S
O91 C111 1.234 . S
C92 O66 1.269 . S
C92 O67 1.257 . S
C93 H68 0.930 . S
C93 C96 1.388 . S
C93 C98 1.418 . S
C94 H89 0.930 . S
C94 C97 1.403 . S
C94 C98 1.354 1_655 S
N95 Co60 2.145 . S
N95 C96 1.397 1_655 S
N95 C97 1.334 . S
C96 H77 0.929 . S
C96 C93 1.388 . S
C96 N95 1.397 1_455 S
C97 H78 0.929 . S
C97 C94 1.403 . S
C97 N95 1.334 . S
C98 H90 0.930 . S
C98 C93 1.418 . S
C98 C94 1.354 1_455 S
C99 H69 0.930 . S
C99 N100 1.330 . S
C99 C101 1.446 . S
N100 Co59 2.151 . S
N100 C99 1.330 . S
N100 C104 1.418 1_554 S
C101 H80 0.929 . S
C101 C99 1.446 . S
C101 C102 1.325 1_554 S
C102 H82 0.934 . S
C102 C101 1.325 1_556 S
C102 C103 1.271 . S
C103 H71 0.929 . S
C103 C102 1.271 . S
C103 C104 1.251 . S
C104 H74 0.929 . S
C104 N100 1.418 1_556 S
C104 C103 1.251 . S
C105 H72 0.930 . S
C105 C107 1.406 . S
C105 C110 1.261 . S
C106 H73 0.930 . S
C106 N108 1.325 . S
C106 C109 1.357 . S
C107 H75 0.928 . S
C107 C105 1.406 . S
C107 N108 1.261 . S
N108 Co59 2.214 1_556 S
N108 C106 1.325 . S
N108 C107 1.261 . S
C109 H79 0.931 . S
C109 C106 1.357 . S
C109 C110 1.312 . S
C110 H81 0.930 . S
C110 C105 1.261 . S
C110 C109 1.312 . S
C111 O83 1.214 . S
C111 O91 1.234 . S
C112 H84 0.929 . S
C112 C115 1.391 . S
C112 C117 1.391 . S
C113 H85 0.929 . S
C113 C114 1.390 . S
C113 N116 1.391 . S
C114 H86 0.930 . S
C114 C113 1.390 . S
C114 C115 1.392 . S
C115 H87 0.929 . S
C115 C112 1.391 . S
C115 C114 1.392 . S
N116 Co60 2.257 . S
N116 C113 1.391 . S
N116 C117 1.388 . S
C117 H88 0.930 . S
C117 C112 1.391 . S
C117 N116 1.388 . S
Co118 O120 2.143 . S
Co118 O126 2.074 . S
Co118 O129 2.093 . S
Co118 O142 2.097 . S
Co118 N159 2.151 . S
Co118 N167 2.214 . S
Co119 O120 2.160 . S
Co119 O125 2.058 . S
Co119 O135 2.057 . S
Co119 O150 2.037 . S
Co119 N154 2.145 . S
Co119 N175 2.257 . S
O120 Co118 2.143 . S
O120 Co119 2.160 . S
C121 O122 1.278 . S
C121 O129 1.224 . S
O122 C121 1.278 . S
C123 O124 1.245 . S
C123 O135 1.232 . S
O124 C123 1.245 . S
O125 Co119 2.058 . S
O125 C151 1.269 . S
O126 Co118 2.074 . S
O126 C151 1.257 . S
H127 C152 0.930 . S
H128 C158 0.930 . S
O129 Co118 2.093 . S
O129 C121 1.224 . S
H130 C162 0.929 . S
H131 C164 0.930 . S
H132 C165 0.930 . S
H133 C163 0.929 . S
H134 C166 0.934 . S
O135 Co119 2.057 . S
O135 C123 1.232 . S
H136 C155 0.929 . S
H137 C156 0.929 . S
H138 C168 0.931 . S
H139 C160 0.929 . S
H140 C169 0.930 . S
H141 C161 0.931 . S
O142 Co118 2.097 . S
O142 C170 1.214 . S
H143 C171 0.929 . S
H144 C172 0.929 . S
H145 C173 0.930 . S
H146 C174 0.929 . S
H147 C176 0.930 . S
H148 C153 0.930 . S
H149 C157 0.930 . S
O150 Co119 2.037 . S
O150 C170 1.234 . S
C151 O125 1.269 . S
C151 O126 1.257 . S
C152 H127 0.930 . S
C152 C155 1.388 . S
C152 C157 1.418 . S
C153 H148 0.930 . S
C153 C156 1.404 . S
C153 C157 1.353 . S
N154 Co119 2.145 . S
N154 C155 1.397 . S
N154 C156 1.334 . S
C155 H136 0.929 . S
C155 C152 1.388 . S
C155 N154 1.397 . S
C156 H137 0.929 . S
C156 C153 1.404 . S
C156 N154 1.334 . S
C157 H149 0.930 . S
C157 C152 1.418 . S
C157 C153 1.353 . S
C158 H128 0.930 . S
C158 N159 1.330 . S
C158 C160 1.446 . S
N159 Co118 2.151 . S
N159 C158 1.330 . S
N159 C163 1.418 . S
C160 H139 0.929 . S
C160 C158 1.446 . S
C160 C161 1.332 . S
C161 H141 0.931 . S
C161 C160 1.332 . S
C161 C162 1.267 . S
C162 H130 0.929 . S
C162 C161 1.267 . S
C162 C163 1.251 . S
C163 H133 0.929 . S
C163 N159 1.418 . S
C163 C162 1.251 . S
C164 H131 0.930 . S
C164 C166 1.381 1_556 S
C164 C169 1.261 . S
C165 H132 0.930 . S
C165 N167 1.325 . S
C165 C168 1.357 1_554 S
C166 H134 0.934 . S
C166 C164 1.381 1_554 S
C166 N167 1.281 . S
N167 Co118 2.214 . S
N167 C165 1.325 . S
N167 C166 1.281 . S
C168 H138 0.931 . S
C168 C165 1.357 1_556 S
C168 C169 1.312 . S
C169 H140 0.930 . S
C169 C164 1.261 . S
C169 C168 1.312 . S
C170 O142 1.214 . S
C170 O150 1.234 . S
C171 H143 0.929 . S
C171 C174 1.391 . S
C171 C176 1.391 . S
C172 H144 0.929 . S
C172 C173 1.390 . S
C172 N175 1.391 . S
C173 H145 0.930 . S
C173 C172 1.390 . S
C173 C174 1.392 . S
C174 H146 0.929 . S
C174 C171 1.391 . S
C174 C173 1.392 . S
N175 Co119 2.257 . S
N175 C172 1.391 . S
N175 C176 1.388 . S
C176 H147 0.930 . S
C176 C171 1.391 . S
C176 N175 1.388 . S
Co177 O179 2.143 . S
Co177 O185 2.074 . S
Co177 O188 2.093 . S
Co177 O201 2.097 . S
Co177 N218 2.151 . S
Co177 N226 2.214 1_556 S
Co178 O179 2.160 . S
Co178 O184 2.058 . S
Co178 O194 2.057 . S
Co178 O209 2.037 . S
Co178 N213 2.145 . S
Co178 N234 2.257 . S
O179 Co177 2.143 . S
O179 Co178 2.160 . S
C180 O181 1.278 . S
C180 O188 1.224 . S
O181 C180 1.278 . S
C182 O183 1.245 . S
C182 O194 1.232 . S
O183 C182 1.245 . S
O184 Co178 2.058 . S
O184 C210 1.269 . S
O185 Co177 2.074 . S
O185 C210 1.257 . S
H186 C211 0.930 . S
H187 C217 0.930 . S
O188 Co177 2.093 . S
O188 C180 1.224 . S
H189 C221 0.929 . S
H190 C223 0.930 . S
H191 C224 0.930 1_556 S
H192 C222 0.929 . S
H193 C225 0.928 . S
O194 Co178 2.057 . S
O194 C182 1.232 . S
H195 C214 0.929 . S
H196 C215 0.929 . S
H197 C227 0.931 . S
H198 C219 0.929 . S
H199 C228 0.930 . S
H200 C220 0.931 . S
O201 Co177 2.097 . S
O201 C229 1.214 . S
H202 C230 0.929 . S
H203 C231 0.929 . S
H204 C232 0.930 . S
H205 C233 0.929 . S
H206 C235 0.930 . S
H207 C212 0.930 . S
H208 C216 0.930 . S
O209 Co178 2.037 . S
O209 C229 1.234 . S
C210 O184 1.269 . S
C210 O185 1.257 . S
C211 H186 0.930 . S
C211 C214 1.388 1_545 S
C211 C216 1.418 . S
C212 H207 0.930 . S
C212 C215 1.404 . S
C212 C216 1.353 1_565 S
N213 Co178 2.145 . S
N213 C214 1.397 . S
N213 C215 1.334 . S
C214 H195 0.929 . S
C214 C211 1.388 1_565 S
C214 N213 1.397 . S
C215 H196 0.929 . S
C215 C212 1.404 . S
C215 N213 1.334 . S
C216 H208 0.930 . S
C216 C211 1.418 . S
C216 C212 1.353 1_545 S
C217 H187 0.930 . S
C217 N218 1.330 . S
C217 C219 1.446 . S
N218 Co177 2.151 . S
N218 C217 1.330 . S
N218 C222 1.418 . S
C219 H198 0.929 . S
C219 C217 1.446 . S
C219 C220 1.332 . S
C220 H200 0.931 . S
C220 C219 1.332 . S
C220 C221 1.267 . S
C221 H189 0.929 . S
C221 C220 1.267 . S
C221 C222 1.251 . S
C222 H192 0.929 . S
C222 N218 1.418 . S
C222 C221 1.251 . S
C223 H190 0.930 . S
C223 C225 1.406 . S
C223 C228 1.261 . S
C224 H191 0.930 1_554 S
C224 N226 1.325 . S
C224 C227 1.357 . S
C225 H193 0.928 . S
C225 C223 1.406 . S
C225 N226 1.261 . S
N226 Co177 2.214 1_554 S
N226 C224 1.325 . S
N226 C225 1.261 . S
C227 H197 0.931 . S
C227 C224 1.357 . S
C227 C228 1.312 . S
C228 H199 0.930 . S
C228 C223 1.261 . S
C228 C227 1.312 . S
C229 O201 1.214 . S
C229 O209 1.234 . S
C230 H202 0.929 . S
C230 C233 1.391 . S
C230 C235 1.391 . S
C231 H203 0.929 . S
C231 C232 1.390 . S
C231 N234 1.391 . S
C232 H204 0.930 . S
C232 C231 1.390 . S
C232 C233 1.392 . S
C233 H205 0.929 . S
C233 C230 1.391 . S
C233 C232 1.392 . S
N234 Co178 2.257 . S
N234 C231 1.391 . S
N234 C235 1.388 . S
C235 H206 0.930 . S
C235 C230 1.391 . S
C235 N234 1.388 . S
Co236 O238 2.143 . S
Co236 O244 2.074 . S
Co236 O247 2.093 . S
Co236 O260 2.097 . S
Co236 N277 2.151 . S
Co236 N285 2.214 . S
Co237 O238 2.160 . S
Co237 O243 2.058 . S
Co237 O253 2.057 . S
Co237 O268 2.037 . S
Co237 N272 2.145 . S
Co237 N293 2.257 . S
O238 Co236 2.143 . S
O238 Co237 2.160 . S
C239 O240 1.278 . S
C239 O247 1.224 . S
O240 C239 1.278 . S
C241 O242 1.245 . S
C241 O253 1.232 . S
O242 C241 1.245 . S
O243 Co237 2.058 . S
O243 C269 1.269 . S
O244 Co236 2.074 . S
O244 C269 1.257 . S
H245 C270 0.930 . S
H246 C276 0.930 . S
O247 Co236 2.093 . S
O247 C239 1.224 . S
H248 C280 0.929 . S
H249 C282 0.930 . S
H250 C283 0.947 . S
H251 C281 0.929 . S
H252 C284 0.928 . S
O253 Co237 2.057 . S
O253 C241 1.232 . S
H254 C273 0.929 . S
H255 C274 0.929 . S
H256 C286 0.931 . S
H257 C278 0.929 . S
H258 C287 0.930 . S
H259 C279 0.931 . S
O260 Co236 2.097 . S
O260 C288 1.214 . S
H261 C289 0.929 . S
H262 C290 0.929 . S
H263 C291 0.930 . S
H264 C292 0.929 . S
H265 C294 0.930 . S
H266 C271 0.930 . S
H267 C275 0.930 . S
O268 Co237 2.037 . S
O268 C288 1.234 . S
C269 O243 1.269 . S
C269 O244 1.257 . S
C270 H245 0.930 . S
C270 C273 1.388 . S
C270 C275 1.418 . S
C271 H266 0.930 . S
C271 C274 1.404 1_655 S
C271 C275 1.353 . S
N272 Co237 2.145 . S
N272 C273 1.397 1_455 S
N272 C274 1.334 . S
C273 H254 0.929 . S
C273 C270 1.388 . S
C273 N272 1.397 1_655 S
C274 H255 0.929 . S
C274 C271 1.404 1_455 S
C274 N272 1.334 . S
C275 H267 0.930 . S
C275 C270 1.418 . S
C275 C271 1.353 . S
C276 H246 0.930 . S
C276 N277 1.330 . S
C276 C278 1.446 . S
N277 Co236 2.151 . S
N277 C276 1.330 . S
N277 C281 1.418 . S
C278 H257 0.929 . S
C278 C276 1.446 . S
C278 C279 1.332 . S
C279 H259 0.931 . S
C279 C278 1.332 . S
C279 C280 1.267 . S
C280 H248 0.929 . S
C280 C279 1.267 . S
C280 C281 1.251 . S
C281 H251 0.929 . S
C281 N277 1.418 . S
C281 C280 1.251 . S
C282 H249 0.930 . S
C282 C284 1.406 . S
C282 C287 1.261 . S
C283 H250 0.947 . S
C283 N285 1.333 . S
C283 C286 1.334 1_556 S
C284 H252 0.928 . S
C284 C282 1.406 . S
C284 N285 1.261 1_554 S
N285 Co236 2.214 . S
N285 C283 1.333 . S
N285 C284 1.261 1_556 S
C286 H256 0.931 . S
C286 C283 1.334 1_554 S
C286 C287 1.312 . S
C287 H258 0.930 . S
C287 C282 1.261 . S
C287 C286 1.312 . S
C288 O260 1.214 . S
C288 O268 1.234 . S
C289 H261 0.929 . S
C289 C292 1.391 . S
C289 C294 1.391 . S
C290 H262 0.929 . S
C290 C291 1.390 . S
C290 N293 1.391 . S
C291 H263 0.930 . S
C291 C290 1.390 . S
C291 C292 1.392 . S
C292 H264 0.929 . S
C292 C289 1.391 . S
C292 C291 1.392 . S
N293 Co237 2.257 . S
N293 C290 1.391 . S
N293 C294 1.388 . S
C294 H265 0.930 . S
C294 C289 1.391 . S
C294 N293 1.388 . S
Co295 O297 2.143 . S
Co295 O303 2.074 . S
Co295 O306 2.093 . S
Co295 O319 2.097 . S
Co295 N336 2.151 . S
Co295 N344 2.214 . S
Co296 O297 2.160 . S
Co296 O302 2.058 . S
Co296 O312 2.057 . S
Co296 O327 2.037 . S
Co296 N331 2.145 . S
Co296 N352 2.257 . S
O297 Co295 2.143 . S
O297 Co296 2.160 . S
C298 O299 1.278 . S
C298 O306 1.224 . S
O299 C298 1.278 . S
C300 O301 1.245 . S
C300 O312 1.232 . S
O301 C300 1.245 . S
O302 Co296 2.058 . S
O302 C328 1.269 . S
O303 Co295 2.074 . S
O303 C328 1.257 . S
H304 C329 0.930 . S
H305 C335 0.930 1_556 S
O306 Co295 2.093 . S
O306 C298 1.224 . S
H307 C339 0.929 . S
H308 C341 0.930 . S
H309 C342 0.930 . S
H310 C340 0.929 1_556 S
H311 C343 0.928 . S
O312 Co296 2.057 . S
O312 C300 1.232 . S
H313 C332 0.929 . S
H314 C333 0.929 . S
H315 C345 0.931 . S
H316 C337 0.929 . S
H317 C346 0.930 . S
H318 C338 0.931 . S
O319 Co295 2.097 . S
O319 C347 1.214 . S
H320 C348 0.929 . S
H321 C349 0.929 . S
H322 C350 0.930 . S
H323 C351 0.929 . S
H324 C353 0.930 . S
H325 C330 0.930 . S
H326 C334 0.930 . S
O327 Co296 2.037 . S
O327 C347 1.234 . S
C328 O302 1.269 . S
C328 O303 1.257 . S
C329 H304 0.930 . S
C329 C332 1.388 . S
C329 C334 1.418 . S
C330 H325 0.930 . S
C330 C333 1.404 . S
C330 C334 1.353 . S
N331 Co296 2.145 . S
N331 C332 1.397 . S
N331 C333 1.334 . S
C332 H313 0.929 . S
C332 C329 1.388 . S
C332 N331 1.397 . S
C333 H314 0.929 . S
C333 C330 1.404 . S
C333 N331 1.334 . S
C334 H326 0.930 . S
C334 C329 1.418 . S
C334 C330 1.353 . S
C335 H305 0.930 1_554 S
C335 N336 1.330 1_554 S
C335 C337 1.446 . S
N336 Co295 2.151 . S
N336 C335 1.330 1_556 S
N336 C340 1.418 1_556 S
C337 H316 0.929 . S
C337 C335 1.446 . S
C337 C338 1.332 . S
C338 H318 0.931 . S
C338 C337 1.332 . S
C338 C339 1.267 . S
C339 H307 0.929 . S
C339 C338 1.267 . S
C339 C340 1.251 . S
C340 H310 0.929 1_554 S
C340 N336 1.418 1_554 S
C340 C339 1.251 . S
C341 H308 0.930 . S
C341 C343 1.406 . S
C341 C346 1.261 . S
C342 H309 0.930 . S
C342 N344 1.325 . S
C342 C345 1.357 . S
C343 H311 0.928 . S
C343 C341 1.406 . S
C343 N344 1.261 . S
N344 Co295 2.214 . S
N344 C342 1.325 . S
N344 C343 1.261 . S
C345 H315 0.931 . S
C345 C342 1.357 . S
C345 C346 1.312 . S
C346 H317 0.930 . S
C346 C341 1.261 . S
C346 C345 1.312 . S
C347 O319 1.214 . S
C347 O327 1.234 . S
C348 H320 0.929 . S
C348 C351 1.391 . S
C348 C353 1.391 . S
C349 H321 0.929 . S
C349 C350 1.390 . S
C349 N352 1.391 . S
C350 H322 0.930 . S
C350 C349 1.390 . S
C350 C351 1.392 . S
C351 H323 0.929 . S
C351 C348 1.391 . S
C351 C350 1.392 . S
N352 Co296 2.257 . S
N352 C349 1.391 . S
N352 C353 1.388 . S
C353 H324 0.930 . S
C353 C348 1.391 . S
C353 N352 1.388 . S
Co354 O356 2.143 . S
Co354 O362 2.074 . S
Co354 O365 2.109 . S
Co354 O378 2.097 1_455 S
Co354 N395 2.151 . S
Co354 N403 2.214 . S
Co355 O356 2.160 1_655 S
Co355 O361 2.058 1_655 S
Co355 O371 2.057 1_655 S
Co355 O386 2.037 . S
Co355 N390 2.145 . S
Co355 N411 2.257 . S
O356 Co354 2.143 . S
O356 Co355 2.160 1_455 S
C357 O358 1.278 . S
C357 O365 1.209 1_655 S
O358 C357 1.278 . S
C359 O360 1.245 . S
C359 O371 1.232 . S
O360 C359 1.245 . S
O361 Co355 2.058 1_455 S
O361 C387 1.269 . S
O362 Co354 2.074 . S
O362 C387 1.257 . S
H363 C388 0.930 . S
H364 C394 0.930 . S
O365 Co354 2.109 . S
O365 C357 1.209 1_455 S
H366 C398 0.929 . S
H367 C400 0.930 . S
H368 C401 0.930 . S
H369 C399 0.929 . S
H370 C402 0.928 . S
O371 Co355 2.057 1_455 S
O371 C359 1.232 . S
H372 C391 0.929 . S
H373 C392 0.929 . S
H374 C404 0.931 . S
H375 C396 0.929 . S
H376 C405 0.930 . S
H377 C397 0.931 . S
O378 Co354 2.097 1_655 S
O378 C406 1.214 . S
H379 C407 0.929 . S
H380 C408 0.929 . S
H381 C409 0.930 . S
H382 C410 0.929 . S
H383 C412 0.930 . S
H384 C389 0.930 . S
H385 C393 0.930 . S
O386 Co355 2.037 . S
O386 C406 1.234 . S
C387 O361 1.269 . S
C387 O362 1.257 . S
C388 H363 0.930 . S
C388 C391 1.388 . S
C388 C393 1.418 . S
C389 H384 0.930 . S
C389 C392 1.404 . S
C389 C393 1.353 . S
N390 Co355 2.145 . S
N390 C391 1.397 . S
N390 C392 1.334 . S
C391 H372 0.929 . S
C391 C388 1.388 . S
C391 N390 1.397 . S
C392 H373 0.929 . S
C392 C389 1.404 . S
C392 N390 1.334 . S
C393 H385 0.930 . S
C393 C388 1.418 . S
C393 C389 1.353 . S
C394 H364 0.930 . S
C394 N395 1.330 . S
C394 C396 1.446 . S
N395 Co354 2.151 . S
N395 C394 1.330 . S
N395 C399 1.418 . S
C396 H375 0.929 . S
C396 C394 1.446 . S
C396 C397 1.332 . S
C397 H377 0.931 . S
C397 C396 1.332 . S
C397 C398 1.267 . S
C398 H366 0.929 . S
C398 C397 1.267 . S
C398 C399 1.251 . S
C399 H369 0.929 . S
C399 N395 1.418 . S
C399 C398 1.251 . S
C400 H367 0.930 . S
C400 C402 1.406 . S
C400 C405 1.261 . S
C401 H368 0.930 . S
C401 N403 1.325 . S
C401 C404 1.357 . S
C402 H370 0.928 . S
C402 C400 1.406 . S
C402 N403 1.261 . S
N403 Co354 2.214 . S
N403 C401 1.325 . S
N403 C402 1.261 . S
C404 H374 0.931 . S
C404 C401 1.357 . S
C404 C405 1.312 . S
C405 H376 0.930 . S
C405 C400 1.261 . S
C405 C404 1.312 . S
C406 O378 1.214 . S
C406 O386 1.234 . S
C407 H379 0.929 . S
C407 C410 1.391 . S
C407 C412 1.391 . S
C408 H380 0.929 . S
C408 C409 1.390 . S
C408 N411 1.391 . S
C409 H381 0.930 . S
C409 C408 1.390 . S
C409 C410 1.392 . S
C410 H382 0.929 . S
C410 C407 1.391 . S
C410 C409 1.392 . S
N411 Co355 2.257 . S
N411 C408 1.391 . S
N411 C412 1.388 . S
C412 H383 0.930 . S
C412 C407 1.391 . S
C412 N411 1.388 . S
Co413 O415 2.143 . S
Co413 O421 2.074 . S
Co413 O424 2.093 . S
Co413 O437 2.097 . S
Co413 N454 2.151 . S
Co413 N462 2.214 . S
Co414 O415 2.160 . S
Co414 O420 2.058 . S
Co414 O430 2.057 . S
Co414 O445 2.037 . S
Co414 N449 2.145 . S
Co414 N470 2.257 . S
O415 Co413 2.143 . S
O415 Co414 2.160 . S
C416 O417 1.278 . S
C416 O424 1.224 . S
O417 C416 1.278 . S
C418 O419 1.245 . S
C418 O430 1.232 . S
O419 C418 1.245 . S
O420 Co414 2.058 . S
O420 C446 1.269 . S
O421 Co413 2.074 . S
O421 C446 1.257 . S
H422 C447 0.930 . S
H423 C453 0.930 . S
O424 Co413 2.093 . S
O424 C416 1.224 . S
H425 C457 0.929 . S
H426 C459 0.930 . S
H427 C460 0.930 . S
H428 C458 0.929 . S
H429 C461 0.928 . S
O430 Co414 2.057 . S
O430 C418 1.232 . S
H431 C450 0.929 . S
H432 C451 0.929 . S
H433 C463 0.931 . S
H434 C455 0.929 . S
H435 C464 0.930 . S
H436 C456 0.931 . S
O437 Co413 2.097 . S
O437 C465 1.214 . S
H438 C466 0.929 . S
H439 C467 0.929 . S
H440 C468 0.930 . S
H441 C469 0.929 . S
H442 C471 0.930 . S
H443 C448 0.930 . S
H444 C452 0.930 . S
O445 Co414 2.037 . S
O445 C465 1.234 . S
C446 O420 1.269 . S
C446 O421 1.257 . S
C447 H422 0.930 . S
C447 C450 1.388 . S
C447 C452 1.418 . S
C448 H443 0.930 . S
C448 C451 1.404 . S
C448 C452 1.353 . S
N449 Co414 2.145 . S
N449 C450 1.397 . S
N449 C451 1.334 . S
C450 H431 0.929 . S
C450 C447 1.388 . S
C450 N449 1.397 . S
C451 H432 0.929 . S
C451 C448 1.404 . S
C451 N449 1.334 . S
C452 H444 0.930 . S
C452 C447 1.418 . S
C452 C448 1.353 . S
C453 H423 0.930 . S
C453 N454 1.330 . S
C453 C455 1.446 . S
N454 Co413 2.151 . S
N454 C453 1.330 . S
N454 C458 1.418 . S
C455 H434 0.929 . S
C455 C453 1.446 . S
C455 C456 1.332 . S
C456 H436 0.931 . S
C456 C455 1.332 . S
C456 C457 1.267 . S
C457 H425 0.929 . S
C457 C456 1.267 . S
C457 C458 1.251 . S
C458 H428 0.929 . S
C458 N454 1.418 . S
C458 C457 1.251 . S
C459 H426 0.930 . S
C459 C461 1.406 . S
C459 C464 1.261 . S
C460 H427 0.930 . S
C460 N462 1.325 . S
C460 C463 1.357 . S
C461 H429 0.928 . S
C461 C459 1.406 . S
C461 N462 1.261 . S
N462 Co413 2.214 . S
N462 C460 1.325 . S
N462 C461 1.261 . S
C463 H433 0.931 . S
C463 C460 1.357 . S
C463 C464 1.312 . S
C464 H435 0.930 . S
C464 C459 1.261 . S
C464 C463 1.312 . S
C465 O437 1.214 . S
C465 O445 1.234 . S
C466 H438 0.929 . S
C466 C469 1.391 . S
C466 C471 1.391 . S
C467 H439 0.929 . S
C467 C468 1.390 . S
C467 N470 1.391 . S
C468 H440 0.930 . S
C468 C467 1.390 . S
C468 C469 1.392 . S
C469 H441 0.929 . S
C469 C466 1.391 . S
C469 C468 1.392 . S
N470 Co414 2.257 . S
N470 C467 1.391 . S
N470 C471 1.388 . S
C471 H442 0.930 . S
C471 C466 1.391 . S
C471 N470 1.388 . S
Co472 O474 2.143 . S
Co472 O480 2.074 . S
Co472 O483 2.093 1_565 S
Co472 O496 2.097 1_565 S
Co472 N513 2.151 . S
Co472 N521 2.214 . S
Co473 O474 2.160 1_545 S
Co473 O479 2.058 1_545 S
Co473 O489 2.057 1_545 S
Co473 O504 2.037 . S
Co473 N508 2.145 . S
Co473 N529 2.257 . S
O474 Co472 2.143 . S
O474 Co473 2.160 1_565 S
C475 O476 1.278 . S
C475 O483 1.224 . S
O476 C475 1.278 . S
C477 O478 1.245 . S
C477 O489 1.232 . S
O478 C477 1.245 . S
O479 Co473 2.058 1_565 S
O479 C505 1.269 . S
O480 Co472 2.074 . S
O480 C505 1.257 . S
H481 C506 0.930 . S
H482 C512 0.930 . S
O483 Co472 2.093 1_545 S
O483 C475 1.224 . S
H484 C516 0.929 . S
H485 C518 0.930 . S
H486 C519 0.930 . S
H487 C517 0.929 . S
H488 C520 0.928 . S
O489 Co473 2.057 1_565 S
O489 C477 1.232 . S
H490 C509 0.929 . S
H491 C510 0.929 . S
H492 C522 0.931 . S
H493 C514 0.929 . S
H494 C523 0.930 . S
H495 C515 0.931 . S
O496 Co472 2.097 1_545 S
O496 C524 1.214 . S
H497 C525 0.929 . S
H498 C526 0.929 . S
H499 C527 0.930 . S
H500 C528 0.929 . S
H501 C530 0.930 . S
H502 C507 0.930 . S
H503 C511 0.930 . S
O504 Co473 2.037 . S
O504 C524 1.234 . S
C505 O479 1.269 . S
C505 O480 1.257 . S
C506 H481 0.930 . S
C506 C509 1.388 . S
C506 C511 1.418 . S
C507 H502 0.930 . S
C507 C510 1.404 . S
C507 C511 1.353 . S
N508 Co473 2.145 . S
N508 C509 1.397 . S
N508 C510 1.334 . S
C509 H490 0.929 . S
C509 C506 1.388 . S
C509 N508 1.397 . S
C510 H491 0.929 . S
C510 C507 1.404 . S
C510 N508 1.334 . S
C511 H503 0.930 . S
C511 C506 1.418 . S
C511 C507 1.353 . S
C512 H482 0.930 . S
C512 N513 1.330 . S
C512 C514 1.446 . S
N513 Co472 2.151 . S
N513 C512 1.330 . S
N513 C517 1.418 . S
C514 H493 0.929 . S
C514 C512 1.446 . S
C514 C515 1.332 . S
C515 H495 0.931 . S
C515 C514 1.332 . S
C515 C516 1.267 . S
C516 H484 0.929 . S
C516 C515 1.267 . S
C516 C517 1.251 . S
C517 H487 0.929 . S
C517 N513 1.418 . S
C517 C516 1.251 . S
C518 H485 0.930 . S
C518 C520 1.406 . S
C518 C523 1.261 . S
C519 H486 0.930 . S
C519 N521 1.325 . S
C519 C522 1.357 . S
C520 H488 0.928 . S
C520 C518 1.406 . S
C520 N521 1.261 . S
N521 Co472 2.214 . S
N521 C519 1.325 . S
N521 C520 1.261 . S
C522 H492 0.931 . S
C522 C519 1.357 . S
C522 C523 1.312 . S
C523 H494 0.930 . S
C523 C518 1.261 . S
C523 C522 1.312 . S
C524 O496 1.214 . S
C524 O504 1.234 . S
C525 H497 0.929 . S
C525 C528 1.391 . S
C525 C530 1.391 . S
C526 H498 0.929 . S
C526 C527 1.390 . S
C526 N529 1.391 . S
C527 H499 0.930 . S
C527 C526 1.390 . S
C527 C528 1.392 . S
C528 H500 0.929 . S
C528 C525 1.391 . S
C528 C527 1.392 . S
N529 Co473 2.257 . S
N529 C526 1.391 . S
N529 C530 1.388 . S
C530 H501 0.930 . S
C530 C525 1.391 . S
C530 N529 1.388 . S
Co531 O533 2.143 . S
Co531 O539 2.074 . S
Co531 O542 2.093 . S
Co531 O555 2.097 . S
Co531 N572 2.151 . S
Co531 N580 2.214 . S
Co532 O533 2.160 . S
Co532 O538 2.058 . S
Co532 O548 2.057 . S
Co532 O563 2.037 . S
Co532 N567 2.145 . S
Co532 N588 2.257 . S
O533 Co531 2.143 . S
O533 Co532 2.160 . S
C534 O535 1.278 . S
C534 O542 1.224 . S
O535 C534 1.278 . S
C536 O537 1.245 . S
C536 O548 1.232 . S
O537 C536 1.245 . S
O538 Co532 2.058 . S
O538 C564 1.269 . S
O539 Co531 2.074 . S
O539 C564 1.257 . S
H540 C565 0.930 . S
H541 C571 0.930 . S
O542 Co531 2.093 . S
O542 C534 1.224 . S
H543 C575 0.929 . S
H544 C577 0.930 . S
H545 C578 0.930 . S
H546 C576 0.929 . S
H547 C579 0.928 . S
O548 Co532 2.057 . S
O548 C536 1.232 . S
H549 C568 0.929 . S
H550 C569 0.929 . S
H551 C581 0.931 . S
H552 C573 0.929 . S
H553 C582 0.930 . S
H554 C574 0.931 . S
O555 Co531 2.097 . S
O555 C583 1.214 . S
H556 C584 0.929 . S
H557 C585 0.929 . S
H558 C586 0.930 . S
H559 C587 0.929 . S
H560 C589 0.930 . S
H561 C566 0.930 . S
H562 C570 0.930 . S
O563 Co532 2.037 . S
O563 C583 1.234 . S
C564 O538 1.269 . S
C564 O539 1.257 . S
C565 H540 0.930 . S
C565 C568 1.388 . S
C565 C570 1.418 . S
C566 H561 0.930 . S
C566 C569 1.404 . S
C566 C570 1.353 . S
N567 Co532 2.145 . S
N567 C568 1.397 . S
N567 C569 1.334 . S
C568 H549 0.929 . S
C568 C565 1.388 . S
C568 N567 1.397 . S
C569 H550 0.929 . S
C569 C566 1.404 . S
C569 N567 1.334 . S
C570 H562 0.930 . S
C570 C565 1.418 . S
C570 C566 1.353 . S
C571 H541 0.930 . S
C571 N572 1.330 . S
C571 C573 1.446 . S
N572 Co531 2.151 . S
N572 C571 1.330 . S
N572 C576 1.418 . S
C573 H552 0.929 . S
C573 C571 1.446 . S
C573 C574 1.332 . S
C574 H554 0.931 . S
C574 C573 1.332 . S
C574 C575 1.267 . S
C575 H543 0.929 . S
C575 C574 1.267 . S
C575 C576 1.251 . S
C576 H546 0.929 . S
C576 N572 1.418 . S
C576 C575 1.251 . S
C577 H544 0.930 . S
C577 C579 1.406 . S
C577 C582 1.261 . S
C578 H545 0.930 . S
C578 N580 1.325 . S
C578 C581 1.357 . S
C579 H547 0.928 . S
C579 C577 1.406 . S
C579 N580 1.261 . S
N580 Co531 2.214 . S
N580 C578 1.325 . S
N580 C579 1.261 . S
C581 H551 0.931 . S
C581 C578 1.357 . S
C581 C582 1.312 . S
C582 H553 0.930 . S
C582 C577 1.261 . S
C582 C581 1.312 . S
C583 O555 1.214 . S
C583 O563 1.234 . S
C584 H556 0.929 . S
C584 C587 1.391 . S
C584 C589 1.391 . S
C585 H557 0.929 . S
C585 C586 1.390 . S
C585 N588 1.391 . S
C586 H558 0.930 . S
C586 C585 1.390 . S
C586 C587 1.392 . S
C587 H559 0.929 . S
C587 C584 1.391 . S
C587 C586 1.392 . S
N588 Co532 2.257 . S
N588 C585 1.391 . S
N588 C589 1.388 . S
C589 H560 0.930 . S
C589 C584 1.391 . S
C589 N588 1.388 . S
Co590 O592 2.143 . S
Co590 O598 2.074 . S
Co590 O601 2.093 . S
Co590 O614 2.097 . S
Co590 N631 2.151 . S
Co590 N639 2.214 . S
Co591 O592 2.160 . S
Co591 O597 2.070 . S
Co591 O607 2.057 . S
Co591 O622 2.037 . S
Co591 N626 2.145 . S
Co591 N647 2.257 . S
O592 Co590 2.143 . S
O592 Co591 2.160 . S
C593 O594 1.278 . S
C593 O601 1.224 . S
O594 C593 1.278 . S
C595 O596 1.245 . S
C595 O607 1.232 . S
O596 C595 1.245 . S
O597 Co591 2.070 . S
O597 C623 1.264 1_545 S
O598 Co590 2.074 . S
O598 C623 1.257 1_545 S
H599 C624 0.930 . S
H600 C630 0.930 . S
O601 Co590 2.093 . S
O601 C593 1.224 . S
H602 C634 0.929 . S
H603 C636 0.930 . S
H604 C637 0.930 . S
H605 C635 0.929 . S
H606 C638 0.928 . S
O607 Co591 2.057 . S
O607 C595 1.232 . S
H608 C627 0.929 . S
H609 C628 0.929 . S
H610 C640 0.931 . S
H611 C632 0.929 . S
H612 C641 0.930 1_565 S
H613 C633 0.931 . S
O614 Co590 2.097 . S
O614 C642 1.214 . S
H615 C643 0.929 . S
H616 C644 0.929 . S
H617 C645 0.930 . S
H618 C646 0.929 . S
H619 C648 0.930 . S
H620 C625 0.930 . S
H621 C629 0.930 . S
O622 Co591 2.037 . S
O622 C642 1.234 . S
C623 O597 1.264 1_565 S
C623 O598 1.257 1_565 S
C624 H599 0.930 . S
C624 C627 1.388 . S
C624 C629 1.418 . S
C625 H620 0.930 . S
C625 C628 1.404 . S
C625 C629 1.353 1_545 S
N626 Co591 2.145 . S
N626 C627 1.397 1_545 S
N626 C628 1.334 . S
C627 H608 0.929 . S
C627 C624 1.388 . S
C627 N626 1.397 1_565 S
C628 H609 0.929 . S
C628 C625 1.404 . S
C628 N626 1.334 . S
C629 H621 0.930 . S
C629 C624 1.418 . S
C629 C625 1.353 1_565 S
C630 H600 0.930 . S
C630 N631 1.330 . S
C630 C632 1.446 . S
N631 Co590 2.151 . S
N631 C630 1.330 . S
N631 C635 1.418 . S
C632 H611 0.929 . S
C632 C630 1.446 . S
C632 C633 1.332 . S
C633 H613 0.931 . S
C633 C632 1.332 . S
C633 C634 1.267 . S
C634 H602 0.929 . S
C634 C633 1.267 . S
C634 C635 1.251 . S
C635 H605 0.929 . S
C635 N631 1.418 . S
C635 C634 1.251 . S
C636 H603 0.930 . S
C636 C638 1.406 . S
C636 C641 1.261 . S
C637 H604 0.930 . S
C637 N639 1.325 . S
C637 C640 1.357 1_545 S
C638 H606 0.928 . S
C638 C636 1.406 . S
C638 N639 1.261 . S
N639 Co590 2.214 . S
N639 C637 1.325 . S
N639 C638 1.261 . S
C640 H610 0.931 . S
C640 C637 1.357 1_565 S
C640 C641 1.312 1_565 S
C641 H612 0.930 1_545 S
C641 C636 1.261 . S
C641 C640 1.312 1_545 S
C642 O614 1.214 . S
C642 O622 1.234 . S
C643 H615 0.929 . S
C643 C646 1.391 . S
C643 C648 1.391 . S
C644 H616 0.929 . S
C644 C645 1.390 . S
C644 N647 1.391 . S
C645 H617 0.930 . S
C645 C644 1.390 . S
C645 C646 1.392 . S
C646 H618 0.929 . S
C646 C643 1.391 . S
C646 C645 1.392 . S
N647 Co591 2.257 . S
N647 C644 1.391 . S
N647 C648 1.388 . S
C648 H619 0.930 . S
C648 C643 1.391 . S
C648 N647 1.388 . S
Co649 O651 2.143 . S
Co649 O657 2.074 . S
Co649 O660 2.093 1_655 S
Co649 O673 2.097 . S
Co649 N690 2.151 . S
Co649 N698 2.214 . S
Co650 O651 2.160 . S
Co650 O656 2.058 . S
Co650 O666 2.057 . S
Co650 O681 2.037 . S
Co650 N685 2.145 . S
Co650 N706 2.257 . S
O651 Co649 2.143 . S
O651 Co650 2.160 . S
C652 O653 1.278 . S
C652 O660 1.224 . S
O653 C652 1.278 . S
C654 O655 1.245 . S
C654 O666 1.232 . S
O655 C654 1.245 . S
O656 Co650 2.058 . S
O656 C682 1.269 . S
O657 Co649 2.074 . S
O657 C682 1.257 . S
H658 C683 0.930 . S
H659 C689 0.930 1_455 S
O660 Co649 2.093 1_455 S
O660 C652 1.224 . S
H661 C693 0.929 . S
H662 C695 0.930 . S
H663 C696 0.930 . S
H664 C694 0.929 . S
H665 C697 0.928 . S
O666 Co650 2.057 . S
O666 C654 1.232 . S
H667 C686 0.929 . S
H668 C687 0.929 . S
H669 C699 0.931 . S
H670 C691 0.929 1_455 S
H671 C700 0.930 . S
H672 C692 0.931 . S
O673 Co649 2.097 . S
O673 C701 1.214 . S
H674 C702 0.929 . S
H675 C703 0.929 . S
H676 C704 0.934 . S
H677 C705 0.929 . S
H678 C707 0.930 . S
H679 C684 0.930 . S
H680 C688 0.930 . S
O681 Co650 2.037 . S
O681 C701 1.234 . S
C682 O656 1.269 . S
C682 O657 1.257 . S
C683 H658 0.930 . S
C683 C686 1.388 . S
C683 C688 1.418 . S
C684 H679 0.930 . S
C684 C687 1.404 . S
C684 C688 1.353 . S
N685 Co650 2.145 . S
N685 C686 1.397 . S
N685 C687 1.334 . S
C686 H667 0.929 . S
C686 C683 1.388 . S
C686 N685 1.397 . S
C687 H668 0.929 . S
C687 C684 1.404 . S
C687 N685 1.334 . S
C688 H680 0.930 . S
C688 C683 1.418 . S
C688 C684 1.353 . S
C689 H659 0.930 1_655 S
C689 N690 1.330 . S
C689 C691 1.446 . S
N690 Co649 2.151 . S
N690 C689 1.330 . S
N690 C694 1.418 . S
C691 H670 0.929 1_655 S
C691 C689 1.446 . S
C691 C692 1.332 . S
C692 H672 0.931 . S
C692 C691 1.332 . S
C692 C693 1.267 . S
C693 H661 0.929 . S
C693 C692 1.267 . S
C693 C694 1.251 . S
C694 H664 0.929 . S
C694 N690 1.418 . S
C694 C693 1.251 . S
C695 H662 0.930 . S
C695 C697 1.406 . S
C695 C700 1.261 . S
C696 H663 0.930 . S
C696 N698 1.325 . S
C696 C699 1.357 . S
C697 H665 0.928 . S
C697 C695 1.406 . S
C697 N698 1.261 . S
N698 Co649 2.214 . S
N698 C696 1.325 . S
N698 C697 1.261 . S
C699 H669 0.931 . S
C699 C696 1.357 . S
C699 C700 1.312 . S
C700 H671 0.930 . S
C700 C695 1.261 . S
C700 C699 1.312 . S
C701 O673 1.214 . S
C701 O681 1.234 . S
C702 H674 0.929 . S
C702 C705 1.391 . S
C702 C707 1.391 . S
C703 H675 0.929 . S
C703 C704 1.390 1_655 S
C703 N706 1.391 . S
C704 H676 0.934 . S
C704 C703 1.390 1_455 S
C704 C705 1.392 . S
C705 H677 0.929 . S
C705 C702 1.391 . S
C705 C704 1.392 . S
N706 Co650 2.257 . S
N706 C703 1.391 . S
N706 C707 1.388 1_655 S
C707 H678 0.930 . S
C707 C702 1.391 . S
C707 N706 1.388 1_455 S
Co708 O710 2.143 . S
Co708 O716 2.074 . S
Co708 O719 2.093 . S
Co708 O732 2.097 . S
Co708 N749 2.151 . S
Co708 N757 2.214 . S
Co709 O710 2.160 . S
Co709 O715 2.058 . S
Co709 O725 2.057 . S
Co709 O740 2.037 . S
Co709 N744 2.145 . S
Co709 N765 2.257 . S
O710 Co708 2.143 . S
O710 Co709 2.160 . S
C711 O712 1.278 . S
C711 O719 1.224 . S
O712 C711 1.278 . S
C713 O714 1.245 . S
C713 O725 1.232 . S
O714 C713 1.245 . S
O715 Co709 2.058 . S
O715 C741 1.269 . S
O716 Co708 2.074 . S
O716 C741 1.257 . S
H717 C742 0.930 . S
H718 C748 0.930 . S
O719 Co708 2.093 . S
O719 C711 1.224 . S
H720 C752 0.929 . S
H721 C754 0.930 . S
H722 C755 0.930 . S
H723 C753 0.929 . S
H724 C756 0.928 . S
O725 Co709 2.057 . S
O725 C713 1.232 . S
H726 C745 0.929 . S
H727 C746 0.929 . S
H728 C758 0.931 . S
H729 C750 0.929 . S
H730 C759 0.930 . S
H731 C751 0.931 . S
O732 Co708 2.097 . S
O732 C760 1.214 . S
H733 C761 0.929 . S
H734 C762 0.929 . S
H735 C763 0.930 . S
H736 C764 0.929 . S
H737 C766 0.930 . S
H738 C743 0.930 . S
H739 C747 0.930 . S
O740 Co709 2.037 . S
O740 C760 1.234 . S
C741 O715 1.269 . S
C741 O716 1.257 . S
C742 H717 0.930 . S
C742 C745 1.388 . S
C742 C747 1.418 . S
C743 H738 0.930 . S
C743 C746 1.404 . S
C743 C747 1.353 . S
N744 Co709 2.145 . S
N744 C745 1.397 . S
N744 C746 1.334 . S
C745 H726 0.929 . S
C745 C742 1.388 . S
C745 N744 1.397 . S
C746 H727 0.929 . S
C746 C743 1.404 . S
C746 N744 1.334 . S
C747 H739 0.930 . S
C747 C742 1.418 . S
C747 C743 1.353 . S
C748 H718 0.930 . S
C748 N749 1.330 . S
C748 C750 1.446 . S
N749 Co708 2.151 . S
N749 C748 1.330 . S
N749 C753 1.418 . S
C750 H729 0.929 . S
C750 C748 1.446 . S
C750 C751 1.332 . S
C751 H731 0.931 . S
C751 C750 1.332 . S
C751 C752 1.267 . S
C752 H720 0.929 . S
C752 C751 1.267 . S
C752 C753 1.251 . S
C753 H723 0.929 . S
C753 N749 1.418 . S
C753 C752 1.251 . S
C754 H721 0.930 . S
C754 C756 1.406 . S
C754 C759 1.261 . S
C755 H722 0.930 . S
C755 N757 1.325 . S
C755 C758 1.357 . S
C756 H724 0.928 . S
C756 C754 1.406 . S
C756 N757 1.261 . S
N757 Co708 2.214 . S
N757 C755 1.325 . S
N757 C756 1.261 . S
C758 H728 0.931 . S
C758 C755 1.357 . S
C758 C759 1.312 . S
C759 H730 0.930 . S
C759 C754 1.261 . S
C759 C758 1.312 . S
C760 O732 1.214 . S
C760 O740 1.234 . S
C761 H733 0.929 . S
C761 C764 1.391 . S
C761 C766 1.391 . S
C762 H734 0.929 . S
C762 C763 1.390 . S
C762 N765 1.391 . S
C763 H735 0.930 . S
C763 C762 1.390 . S
C763 C764 1.392 . S
C764 H736 0.929 . S
C764 C761 1.391 . S
C764 C763 1.392 . S
N765 Co709 2.257 . S
N765 C762 1.391 . S
N765 C766 1.388 . S
C766 H737 0.930 . S
C766 C761 1.391 . S
C766 N765 1.388 . S
Co767 O769 2.143 . S
Co767 O775 2.074 . S
Co767 O778 2.093 . S
Co767 O791 2.097 . S
Co767 N808 2.151 . S
Co767 N816 2.214 . S
Co768 O769 2.160 . S
Co768 O774 2.058 . S
Co768 O784 2.057 . S
Co768 O799 2.037 . S
Co768 N803 2.145 . S
Co768 N824 2.257 . S
O769 Co767 2.143 . S
O769 Co768 2.160 . S
C770 O771 1.278 . S
C770 O778 1.224 . S
O771 C770 1.278 . S
C772 O773 1.245 . S
C772 O784 1.232 . S
O773 C772 1.245 . S
O774 Co768 2.058 . S
O774 C800 1.269 . S
O775 Co767 2.074 . S
O775 C800 1.257 . S
H776 C801 0.930 . S
H777 C807 0.930 . S
O778 Co767 2.093 . S
O778 C770 1.224 . S
H779 C811 0.929 . S
H780 C813 0.930 . S
H781 C814 0.930 . S
H782 C812 0.929 . S
H783 C815 0.928 . S
O784 Co768 2.057 . S
O784 C772 1.232 . S
H785 C804 0.929 . S
H786 C805 0.929 . S
H787 C817 0.931 . S
H788 C809 0.929 . S
H789 C818 0.930 . S
H790 C810 0.931 . S
O791 Co767 2.097 . S
O791 C819 1.214 . S
H792 C820 0.929 . S
H793 C821 0.929 . S
H794 C822 0.930 . S
H795 C823 0.929 . S
H796 C825 0.930 . S
H797 C802 0.930 . S
H798 C806 0.930 1_545 S
O799 Co768 2.037 . S
O799 C819 1.234 . S
C800 O774 1.269 . S
C800 O775 1.257 . S
C801 H776 0.930 . S
C801 C804 1.388 1_545 S
C801 C806 1.418 1_545 S
C802 H797 0.930 . S
C802 C805 1.404 . S
C802 C806 1.353 . S
N803 Co768 2.145 . S
N803 C804 1.397 . S
N803 C805 1.334 . S
C804 H785 0.929 . S
C804 C801 1.388 1_565 S
C804 N803 1.397 . S
C805 H786 0.929 . S
C805 C802 1.404 . S
C805 N803 1.334 . S
C806 H798 0.930 1_565 S
C806 C801 1.418 1_565 S
C806 C802 1.353 . S
C807 H777 0.930 . S
C807 N808 1.330 . S
C807 C809 1.446 . S
N808 Co767 2.151 . S
N808 C807 1.330 . S
N808 C812 1.418 . S
C809 H788 0.929 . S
C809 C807 1.446 . S
C809 C810 1.332 . S
C810 H790 0.931 . S
C810 C809 1.332 . S
C810 C811 1.267 . S
C811 H779 0.929 . S
C811 C810 1.267 . S
C811 C812 1.251 . S
C812 H782 0.929 . S
C812 N808 1.418 . S
C812 C811 1.251 . S
C813 H780 0.930 . S
C813 C815 1.406 . S
C813 C818 1.261 . S
C814 H781 0.930 . S
C814 N816 1.325 . S
C814 C817 1.357 . S
C815 H783 0.928 . S
C815 C813 1.406 . S
C815 N816 1.261 . S
N816 Co767 2.214 . S
N816 C814 1.325 . S
N816 C815 1.261 . S
C817 H787 0.931 . S
C817 C814 1.357 . S
C817 C818 1.312 . S
C818 H789 0.930 . S
C818 C813 1.261 . S
C818 C817 1.312 . S
C819 O791 1.214 . S
C819 O799 1.234 . S
C820 H792 0.929 . S
C820 C823 1.391 . S
C820 C825 1.391 . S
C821 H793 0.929 . S
C821 C822 1.390 . S
C821 N824 1.391 . S
C822 H794 0.930 . S
C822 C821 1.390 . S
C822 C823 1.392 . S
C823 H795 0.929 . S
C823 C820 1.391 . S
C823 C822 1.392 . S
N824 Co768 2.257 . S
N824 C821 1.391 . S
N824 C825 1.388 . S
C825 H796 0.930 . S
C825 C820 1.391 . S
C825 N824 1.388 . S
Co826 O828 2.143 . S
Co826 O834 2.074 . S
Co826 O837 2.093 . S
Co826 O850 2.097 . S
Co826 N867 2.151 . S
Co826 N875 2.214 . S
Co827 O828 2.160 . S
Co827 O833 2.058 . S
Co827 O843 2.057 . S
Co827 O858 2.037 . S
Co827 N862 2.145 . S
Co827 N883 2.257 . S
O828 Co826 2.143 . S
O828 Co827 2.160 . S
C829 O830 1.278 . S
C829 O837 1.224 . S
O830 C829 1.278 . S
C831 O832 1.245 . S
C831 O843 1.232 . S
O832 C831 1.245 . S
O833 Co827 2.058 . S
O833 C859 1.269 . S
O834 Co826 2.074 . S
O834 C859 1.257 . S
H835 C860 0.930 . S
H836 C866 0.930 . S
O837 Co826 2.093 . S
O837 C829 1.224 . S
H838 C870 0.929 . S
H839 C872 0.930 . S
H840 C873 0.930 . S
H841 C871 0.929 . S
H842 C874 0.928 . S
O843 Co827 2.057 . S
O843 C831 1.232 . S
H844 C863 0.929 . S
H845 C864 0.929 . S
H846 C876 0.931 . S
H847 C868 0.929 . S
H848 C877 0.930 . S
H849 C869 0.931 . S
O850 Co826 2.097 . S
O850 C878 1.214 . S
H851 C879 0.929 . S
H852 C880 0.929 . S
H853 C881 0.930 . S
H854 C882 0.929 . S
H855 C884 0.930 . S
H856 C861 0.930 . S
H857 C865 0.930 1_655 S
O858 Co827 2.037 . S
O858 C878 1.234 . S
C859 O833 1.269 . S
C859 O834 1.257 . S
C860 H835 0.930 . S
C860 C863 1.388 1_655 S
C860 C865 1.418 1_655 S
C861 H856 0.930 . S
C861 C864 1.404 . S
C861 C865 1.353 . S
N862 Co827 2.145 . S
N862 C863 1.397 . S
N862 C864 1.334 . S
C863 H844 0.929 . S
C863 C860 1.388 1_455 S
C863 N862 1.397 . S
C864 H845 0.929 . S
C864 C861 1.404 . S
C864 N862 1.334 . S
C865 H857 0.930 1_455 S
C865 C860 1.418 1_455 S
C865 C861 1.353 . S
C866 H836 0.930 . S
C866 N867 1.330 . S
C866 C868 1.446 . S
N867 Co826 2.151 . S
N867 C866 1.330 . S
N867 C871 1.418 . S
C868 H847 0.929 . S
C868 C866 1.446 . S
C868 C869 1.332 . S
C869 H849 0.931 . S
C869 C868 1.332 . S
C869 C870 1.267 . S
C870 H838 0.929 . S
C870 C869 1.267 . S
C870 C871 1.251 . S
C871 H841 0.929 . S
C871 N867 1.418 . S
C871 C870 1.251 . S
C872 H839 0.930 . S
C872 C874 1.406 . S
C872 C877 1.261 . S
C873 H840 0.930 . S
C873 N875 1.325 . S
C873 C876 1.357 . S
C874 H842 0.928 . S
C874 C872 1.406 . S
C874 N875 1.261 . S
N875 Co826 2.214 . S
N875 C873 1.325 . S
N875 C874 1.261 . S
C876 H846 0.931 . S
C876 C873 1.357 . S
C876 C877 1.312 . S
C877 H848 0.930 . S
C877 C872 1.261 . S
C877 C876 1.312 . S
C878 O850 1.214 . S
C878 O858 1.234 . S
C879 H851 0.929 . S
C879 C882 1.391 . S
C879 C884 1.391 . S
C880 H852 0.929 . S
C880 C881 1.390 . S
C880 N883 1.391 . S
C881 H853 0.930 . S
C881 C880 1.390 . S
C881 C882 1.392 . S
C882 H854 0.929 . S
C882 C879 1.391 . S
C882 C881 1.392 . S
N883 Co827 2.257 . S
N883 C880 1.391 . S
N883 C884 1.388 . S
C884 H855 0.930 . S
C884 C879 1.391 . S
C884 N883 1.388 . S
Co885 O887 2.143 . S
Co885 O893 2.074 . S
Co885 O896 2.093 . S
Co885 O909 2.097 1_655 S
Co885 N926 2.151 . S
Co885 N934 2.214 . S
Co886 O887 2.160 . S
Co886 O892 2.058 . S
Co886 O902 2.057 . S
Co886 O917 2.037 1_655 S
Co886 N921 2.145 1_655 S
Co886 N942 2.257 1_655 S
O887 Co885 2.143 . S
O887 Co886 2.160 . S
C888 O889 1.278 . S
C888 O896 1.224 1_455 S
O889 C888 1.278 . S
C890 O891 1.245 . S
C890 O902 1.232 . S
O891 C890 1.245 . S
O892 Co886 2.058 . S
O892 C918 1.269 . S
O893 Co885 2.074 . S
O893 C918 1.257 . S
H894 C919 0.930 . S
H895 C925 0.930 . S
O896 Co885 2.093 . S
O896 C888 1.224 1_655 S
H897 C929 0.929 . S
H898 C931 0.930 . S
H899 C932 0.930 . S
H900 C930 0.929 . S
H901 C933 0.928 . S
O902 Co886 2.057 . S
O902 C890 1.232 . S
H903 C922 0.929 . S
H904 C923 0.929 . S
H905 C935 0.931 . S
H906 C927 0.929 . S
H907 C936 0.930 . S
H908 C928 0.931 . S
O909 Co885 2.097 1_455 S
O909 C937 1.214 . S
H910 C938 0.929 . S
H911 C939 0.929 . S
H912 C940 0.930 . S
H913 C941 0.929 . S
H914 C943 0.930 . S
H915 C920 0.930 . S
H916 C924 0.930 . S
O917 Co886 2.037 1_455 S
O917 C937 1.234 . S
C918 O892 1.269 . S
C918 O893 1.257 . S
C919 H894 0.930 . S
C919 C922 1.388 . S
C919 C924 1.418 . S
C920 H915 0.930 . S
C920 C923 1.404 . S
C920 C924 1.353 . S
N921 Co886 2.145 1_455 S
N921 C922 1.397 . S
N921 C923 1.334 . S
C922 H903 0.929 . S
C922 C919 1.388 . S
C922 N921 1.397 . S
C923 H904 0.929 . S
C923 C920 1.404 . S
C923 N921 1.334 . S
C924 H916 0.930 . S
C924 C919 1.418 . S
C924 C920 1.353 . S
C925 H895 0.930 . S
C925 N926 1.330 . S
C925 C927 1.446 . S
N926 Co885 2.151 . S
N926 C925 1.330 . S
N926 C930 1.418 . S
C927 H906 0.929 . S
C927 C925 1.446 . S
C927 C928 1.332 . S
C928 H908 0.931 . S
C928 C927 1.332 . S
C928 C929 1.267 . S
C929 H897 0.929 . S
C929 C928 1.267 . S
C929 C930 1.251 . S
C930 H900 0.929 . S
C930 N926 1.418 . S
C930 C929 1.251 . S
C931 H898 0.930 . S
C931 C933 1.406 . S
C931 C936 1.261 . S
C932 H899 0.930 . S
C932 N934 1.325 . S
C932 C935 1.357 . S
C933 H901 0.928 . S
C933 C931 1.406 . S
C933 N934 1.261 . S
N934 Co885 2.214 . S
N934 C932 1.325 . S
N934 C933 1.261 . S
C935 H905 0.931 . S
C935 C932 1.357 . S
C935 C936 1.312 . S
C936 H907 0.930 . S
C936 C931 1.261 . S
C936 C935 1.312 . S
C937 O909 1.214 . S
C937 O917 1.234 . S
C938 H910 0.929 . S
C938 C941 1.391 . S
C938 C943 1.391 . S
C939 H911 0.929 . S
C939 C940 1.390 . S
C939 N942 1.391 . S
C940 H912 0.930 . S
C940 C939 1.390 . S
C940 C941 1.392 . S
C941 H913 0.929 . S
C941 C938 1.391 . S
C941 C940 1.392 . S
N942 Co886 2.257 1_455 S
N942 C939 1.391 . S
N942 C943 1.388 . S
C943 H914 0.930 . S
C943 C938 1.391 . S
C943 N942 1.388 . S
Co944 O946 2.143 . S
Co944 O952 2.074 . S
Co944 O955 2.093 . S
Co944 O968 2.097 . S
Co944 N985 2.151 . S
Co944 N993 2.214 . S
Co945 O946 2.160 . S
Co945 O951 2.058 . S
Co945 O961 2.057 . S
Co945 O976 2.037 . S
Co945 N980 2.145 . S
Co945 N1001 2.257 . S
O946 Co944 2.143 . S
O946 Co945 2.160 . S
C947 O948 1.278 . S
C947 O955 1.224 . S
O948 C947 1.278 . S
C949 O950 1.245 . S
C949 O961 1.232 . S
O950 C949 1.245 . S
O951 Co945 2.058 . S
O951 C977 1.269 . S
O952 Co944 2.074 . S
O952 C977 1.257 . S
H953 C978 0.930 . S
H954 C984 0.930 . S
O955 Co944 2.093 . S
O955 C947 1.224 . S
H956 C988 0.929 . S
H957 C990 0.930 . S
H958 C991 0.930 . S
H959 C989 0.929 . S
H960 C992 0.928 . S
O961 Co945 2.057 . S
O961 C949 1.232 . S
H962 C981 0.929 . S
H963 C982 0.929 . S
H964 C994 0.931 . S
H965 C986 0.929 . S
H966 C995 0.930 . S
H967 C987 0.931 . S
O968 Co944 2.097 . S
O968 C996 1.214 . S
H969 C997 0.929 . S
H970 C998 0.929 . S
H971 C999 0.930 . S
H972 C1000 0.929 . S
H973 C1002 0.930 . S
H974 C979 0.930 . S
H975 C983 0.930 . S
O976 Co945 2.037 . S
O976 C996 1.234 . S
C977 O951 1.269 . S
C977 O952 1.257 . S
C978 H953 0.930 . S
C978 C981 1.388 . S
C978 C983 1.418 . S
C979 H974 0.930 . S
C979 C982 1.404 . S
C979 C983 1.353 . S
N980 Co945 2.145 . S
N980 C981 1.397 . S
N980 C982 1.334 . S
C981 H962 0.929 . S
C981 C978 1.388 . S
C981 N980 1.397 . S
C982 H963 0.929 . S
C982 C979 1.404 . S
C982 N980 1.334 . S
C983 H975 0.930 . S
C983 C978 1.418 . S
C983 C979 1.353 . S
C984 H954 0.930 . S
C984 N985 1.330 . S
C984 C986 1.446 . S
N985 Co944 2.151 . S
N985 C984 1.330 . S
N985 C989 1.418 . S
C986 H965 0.929 . S
C986 C984 1.446 . S
C986 C987 1.332 . S
C987 H967 0.931 . S
C987 C986 1.332 . S
C987 C988 1.267 . S
C988 H956 0.929 . S
C988 C987 1.267 . S
C988 C989 1.251 . S
C989 H959 0.929 . S
C989 N985 1.418 . S
C989 C988 1.251 . S
C990 H957 0.930 . S
C990 C992 1.406 . S
C990 C995 1.261 . S
C991 H958 0.930 . S
C991 N993 1.325 . S
C991 C994 1.357 . S
C992 H960 0.928 . S
C992 C990 1.406 . S
C992 N993 1.261 . S
N993 Co944 2.214 . S
N993 C991 1.325 . S
N993 C992 1.261 . S
C994 H964 0.931 . S
C994 C991 1.357 . S
C994 C995 1.312 . S
C995 H966 0.930 . S
C995 C990 1.261 . S
C995 C994 1.312 . S
C996 O968 1.214 . S
C996 O976 1.234 . S
C997 H969 0.929 . S
C997 C1000 1.391 . S
C997 C1002 1.391 . S
C998 H970 0.929 . S
C998 C999 1.390 . S
C998 N1001 1.391 . S
C999 H971 0.930 . S
C999 C998 1.390 . S
C999 C1000 1.392 . S
C1000 H972 0.929 . S
C1000 C997 1.391 . S
C1000 C999 1.392 . S
N1001 Co945 2.257 . S
N1001 C998 1.391 . S
N1001 C1002 1.388 . S
C1002 H973 0.930 . S
C1002 C997 1.391 . S
C1002 N1001 1.388 . S
Co1003 O1005 2.143 . S
Co1003 O1011 2.074 . S
Co1003 O1014 2.093 . S
Co1003 O1027 2.097 . S
Co1003 N1044 2.151 . S
Co1003 N1052 2.214 . S
Co1004 O1005 2.160 1_565 S
Co1004 O1010 2.058 . S
Co1004 O1020 2.057 . S
Co1004 O1035 2.037 1_565 S
Co1004 N1039 2.145 . S
Co1004 N1060 2.257 . S
O1005 Co1003 2.143 . S
O1005 Co1004 2.160 1_545 S
C1006 O1007 1.278 . S
C1006 O1014 1.224 . S
O1007 C1006 1.278 . S
C1008 O1009 1.245 . S
C1008 O1020 1.232 . S
O1009 C1008 1.245 . S
O1010 Co1004 2.058 . S
O1010 C1036 1.269 . S
O1011 Co1003 2.074 . S
O1011 C1036 1.257 1_545 S
H1012 C1037 0.930 . S
H1013 C1043 0.930 . S
O1014 Co1003 2.093 . S
O1014 C1006 1.224 . S
H1015 C1047 0.929 . S
H1016 C1049 0.930 . S
H1017 C1050 0.930 . S
H1018 C1048 0.929 . S
H1019 C1051 0.928 . S
O1020 Co1004 2.057 . S
O1020 C1008 1.232 . S
H1021 C1040 0.929 . S
H1022 C1041 0.929 . S
H1023 C1053 0.931 . S
H1024 C1045 0.929 . S
H1025 C1054 0.930 . S
H1026 C1046 0.931 . S
O1027 Co1003 2.097 . S
O1027 C1055 1.214 . S
H1028 C1056 0.929 . S
H1029 C1057 0.929 . S
H1030 C1058 0.930 . S
H1031 C1059 0.929 . S
H1032 C1061 0.930 . S
H1033 C1038 0.930 . S
H1034 C1042 0.930 . S
O1035 Co1004 2.037 1_545 S
O1035 C1055 1.234 . S
C1036 O1010 1.269 . S
C1036 O1011 1.257 1_565 S
C1037 H1012 0.930 . S
C1037 C1040 1.388 . S
C1037 C1042 1.418 . S
C1038 H1033 0.930 . S
C1038 C1041 1.404 . S
C1038 C1042 1.353 . S
N1039 Co1004 2.145 . S
N1039 C1040 1.397 . S
N1039 C1041 1.334 . S
C1040 H1021 0.929 . S
C1040 C1037 1.388 . S
C1040 N1039 1.397 . S
C1041 H1022 0.929 . S
C1041 C1038 1.404 . S
C1041 N1039 1.334 . S
C1042 H1034 0.930 . S
C1042 C1037 1.418 . S
C1042 C1038 1.353 . S
C1043 H1013 0.930 . S
C1043 N1044 1.330 . S
C1043 C1045 1.446 . S
N1044 Co1003 2.151 . S
N1044 C1043 1.330 . S
N1044 C1048 1.418 . S
C1045 H1024 0.929 . S
C1045 C1043 1.446 . S
C1045 C1046 1.332 . S
C1046 H1026 0.931 . S
C1046 C1045 1.332 . S
C1046 C1047 1.267 . S
C1047 H1015 0.929 . S
C1047 C1046 1.267 . S
C1047 C1048 1.251 . S
C1048 H1018 0.929 . S
C1048 N1044 1.418 . S
C1048 C1047 1.251 . S
C1049 H1016 0.930 . S
C1049 C1051 1.406 . S
C1049 C1054 1.261 . S
C1050 H1017 0.930 . S
C1050 N1052 1.325 . S
C1050 C1053 1.357 . S
C1051 H1019 0.928 . S
C1051 C1049 1.406 . S
C1051 N1052 1.261 . S
N1052 Co1003 2.214 . S
N1052 C1050 1.325 . S
N1052 C1051 1.261 . S
C1053 H1023 0.931 . S
C1053 C1050 1.357 . S
C1053 C1054 1.312 . S
C1054 H1025 0.930 . S
C1054 C1049 1.261 . S
C1054 C1053 1.312 . S
C1055 O1027 1.214 . S
C1055 O1035 1.234 . S
C1056 H1028 0.929 . S
C1056 C1059 1.391 . S
C1056 C1061 1.391 . S
C1057 H1029 0.929 . S
C1057 C1058 1.390 . S
C1057 N1060 1.391 . S
C1058 H1030 0.930 . S
C1058 C1057 1.390 . S
C1058 C1059 1.392 . S
C1059 H1031 0.929 . S
C1059 C1056 1.391 . S
C1059 C1058 1.392 . S
N1060 Co1004 2.257 . S
N1060 C1057 1.391 . S
N1060 C1061 1.388 . S
C1061 H1032 0.930 . S
C1061 C1056 1.391 . S
C1061 N1060 1.388 . S
H1062 C1070 0.929 . S
H1063 C1072 0.930 1_556 S
H1064 C1074 0.930 1_545 S
H1065 C1077 0.929 . S
H1066 C1080 0.930 1_545 S
H1067 C1082 0.960 . S
H1068 C1082 0.960 . S
H1069 C1082 0.960 . S
C1070 H1062 0.929 . S
C1070 C1071 1.377 1_565 S
C1070 C1072 1.384 . S
C1071 C1070 1.377 1_545 S
C1071 C1077 1.390 . S
C1072 H1063 0.930 1_554 S
C1072 C1070 1.384 . S
C1072 C1073 1.372 . S
C1073 C1072 1.372 . S
C1073 C1074 1.400 . S
C1073 C1078 1.490 . S
C1074 H1064 0.930 1_565 S
C1074 C1073 1.400 . S
C1074 C1077 1.386 1_565 S
H1075 C1091 0.930 . S
H1076 C1092 0.931 . S
C1077 H1065 0.929 . S
C1077 C1071 1.390 . S
C1077 C1074 1.386 1_545 S
C1078 C1073 1.490 . S
C1078 C1080 1.395 1_554 S
C1078 C1081 1.403 . S
H1079 C1085 0.930 . S
C1080 H1066 0.930 1_565 S
C1080 C1078 1.395 1_556 S
C1080 C1083 1.403 . S
C1081 C1078 1.403 . S
C1081 C1082 1.524 . S
C1081 C1085 1.400 . S
C1082 H1067 0.960 . S
C1082 H1068 0.960 . S
C1082 H1069 0.960 . S
C1082 C1081 1.524 . S
C1083 C1080 1.403 . S
C1083 C1084 1.392 . S
C1083 C1087 1.492 1_565 S
C1084 C1083 1.392 . S
C1084 C1085 1.385 1_556 S
C1084 C1086 1.478 . S
C1085 H1079 0.930 . S
C1085 C1081 1.400 . S
C1085 C1084 1.385 1_554 S
C1086 C1084 1.478 . S
C1086 C1088 1.381 . S
C1086 C1092 1.383 . S
C1087 C1083 1.492 1_545 S
C1087 H1093 0.968 . S
C1087 H1094 0.962 . S
C1087 H1095 0.953 1_545 S
C1088 C1086 1.381 . S
C1088 C1089 1.394 . S
C1088 H1096 0.930 . S
C1089 C1088 1.394 . S
C1089 C1090 1.383 . S
C1089 H1097 0.929 . S
C1090 C1089 1.383 . S
C1090 C1091 1.377 . S
C1091 H1075 0.930 . S
C1091 C1090 1.377 . S
C1091 C1092 1.379 . S
C1092 H1076 0.931 . S
C1092 C1086 1.383 . S
C1092 C1091 1.379 . S
H1093 C1087 0.968 . S
H1094 C1087 0.962 . S
H1095 C1087 0.953 1_565 S
H1096 C1088 0.930 . S
H1097 C1089 0.929 . S
H1098 C1106 0.929 . S
H1099 C1108 0.930 . S
H1100 C1110 0.930 . S
H1101 C1113 0.929 . S
H1102 C1116 0.930 . S
H1103 C1118 0.960 . S
H1104 C1118 0.960 1_556 S
H1105 C1118 0.960 . S
C1106 H1098 0.929 . S
C1106 C1107 1.377 1_556 S
C1106 C1108 1.384 . S
C1107 C1106 1.377 1_554 S
C1107 C1113 1.390 . S
C1108 H1099 0.930 . S
C1108 C1106 1.384 . S
C1108 C1109 1.372 . S
C1109 C1108 1.372 . S
C1109 C1110 1.400 1_556 S
C1109 C1114 1.490 . S
C1110 H1100 0.930 . S
C1110 C1109 1.400 1_554 S
C1110 C1113 1.386 . S
H1111 C1127 0.930 . S
H1112 C1128 0.931 . S
C1113 H1101 0.929 . S
C1113 C1107 1.390 . S
C1113 C1110 1.386 . S
C1114 C1109 1.490 . S
C1114 C1116 1.395 . S
C1114 C1117 1.403 1_655 S
H1115 C1121 0.930 . S
C1116 H1102 0.930 . S
C1116 C1114 1.395 . S
C1116 C1119 1.403 . S
C1117 C1114 1.403 1_455 S
C1117 C1118 1.524 1_556 S
C1117 C1121 1.400 . S
C1118 H1103 0.960 . S
C1118 H1104 0.960 1_554 S
C1118 H1105 0.960 . S
C1118 C1117 1.524 1_554 S
C1119 C1116 1.403 . S
C1119 C1120 1.392 1_655 S
C1119 C1123 1.495 . S
C1120 C1119 1.392 1_455 S
C1120 C1121 1.385 . S
C1120 C1122 1.478 . S
C1121 H1115 0.930 . S
C1121 C1117 1.400 . S
C1121 C1120 1.385 . S
C1122 C1120 1.478 . S
C1122 C1124 1.381 . S
C1122 C1128 1.383 . S
C1123 C1119 1.495 . S
C1123 H1129 0.959 . S
C1123 H1130 0.961 . S
C1123 H1131 0.960 . S
C1124 C1122 1.381 . S
C1124 C1125 1.394 . S
C1124 H1132 0.930 . S
C1125 C1124 1.394 . S
C1125 C1126 1.383 . S
C1125 H1133 0.929 . S
C1126 C1125 1.383 . S
C1126 C1127 1.377 . S
C1127 H1111 0.930 . S
C1127 C1126 1.377 . S
C1127 C1128 1.379 . S
C1128 H1112 0.931 . S
C1128 C1122 1.383 . S
C1128 C1127 1.379 . S
H1129 C1123 0.959 . S
H1130 C1123 0.961 . S
H1131 C1123 0.960 . S
H1132 C1124 0.930 . S
H1133 C1125 0.929 . S
H1134 C1142 0.929 . S
H1135 C1144 0.930 . S
H1136 C1146 0.930 . S
H1137 C1149 0.929 . S
H1138 C1152 0.930 1_556 S
H1139 C1154 0.960 . S
H1140 C1154 0.960 1_556 S
H1141 C1154 0.960 . S
C1142 H1134 0.929 . S
C1142 C1143 1.377 . S
C1142 C1144 1.384 . S
C1143 C1142 1.377 . S
C1143 C1149 1.390 . S
C1144 H1135 0.930 . S
C1144 C1142 1.384 . S
C1144 C1145 1.372 . S
C1145 C1144 1.372 . S
C1145 C1146 1.400 1_556 S
C1145 C1150 1.490 1_556 S
C1146 H1136 0.930 . S
C1146 C1145 1.400 1_554 S
C1146 C1149 1.386 1_554 S
H1147 C1163 0.930 . S
H1148 C1164 0.931 . S
C1149 H1137 0.929 . S
C1149 C1143 1.390 . S
C1149 C1146 1.386 1_556 S
C1150 C1145 1.490 1_554 S
C1150 C1152 1.395 . S
C1150 C1153 1.403 . S
H1151 C1157 0.930 . S
C1152 H1138 0.930 1_554 S
C1152 C1150 1.395 . S
C1152 C1155 1.403 . S
C1153 C1150 1.403 . S
C1153 C1154 1.524 . S
C1153 C1157 1.400 . S
C1154 H1139 0.960 . S
C1154 H1140 0.960 1_554 S
C1154 H1141 0.960 . S
C1154 C1153 1.524 . S
C1155 C1152 1.403 . S
C1155 C1156 1.392 . S
C1155 C1159 1.495 . S
C1156 C1155 1.392 . S
C1156 C1157 1.385 . S
C1156 C1158 1.478 . S
C1157 H1151 0.930 . S
C1157 C1153 1.400 . S
C1157 C1156 1.385 . S
C1158 C1156 1.478 . S
C1158 C1160 1.381 . S
C1158 C1164 1.383 . S
C1159 C1155 1.495 . S
C1159 H1165 0.959 . S
C1159 H1166 0.961 . S
C1159 H1167 0.960 . S
C1160 C1158 1.381 . S
C1160 C1161 1.394 . S
C1160 H1168 0.930 . S
C1161 C1160 1.394 . S
C1161 C1162 1.383 . S
C1161 H1169 0.929 . S
C1162 C1161 1.383 . S
C1162 C1163 1.377 . S
C1163 H1147 0.930 . S
C1163 C1162 1.377 . S
C1163 C1164 1.379 . S
C1164 H1148 0.931 . S
C1164 C1158 1.383 . S
C1164 C1163 1.379 . S
H1165 C1159 0.959 . S
H1166 C1159 0.961 . S
H1167 C1159 0.960 . S
H1168 C1160 0.930 . S
H1169 C1161 0.929 . S
H1170 C1178 0.929 . S
H1171 C1180 0.930 . S
H1172 C1182 0.930 . S
H1173 C1185 0.929 . S
H1174 C1188 0.930 . S
H1175 C1190 0.960 . S
H1176 C1190 0.960 . S
H1177 C1190 0.960 . S
C1178 H1170 0.929 . S
C1178 C1179 1.377 . S
C1178 C1180 1.384 . S
C1179 C1178 1.377 . S
C1179 C1185 1.390 . S
C1180 H1171 0.930 . S
C1180 C1178 1.384 . S
C1180 C1181 1.372 . S
C1181 C1180 1.372 . S
C1181 C1182 1.400 . S
C1181 C1186 1.490 . S
C1182 H1172 0.930 . S
C1182 C1181 1.400 . S
C1182 C1185 1.386 . S
H1183 C1199 0.930 . S
H1184 C1200 0.931 . S
C1185 H1173 0.929 . S
C1185 C1179 1.390 . S
C1185 C1182 1.386 . S
C1186 C1181 1.490 . S
C1186 C1188 1.395 . S
C1186 C1189 1.403 . S
H1187 C1193 0.930 . S
C1188 H1174 0.930 . S
C1188 C1186 1.395 . S
C1188 C1191 1.403 . S
C1189 C1186 1.403 . S
C1189 C1190 1.524 . S
C1189 C1193 1.400 . S
C1190 H1175 0.960 . S
C1190 H1176 0.960 . S
C1190 H1177 0.960 . S
C1190 C1189 1.524 . S
C1191 C1188 1.403 . S
C1191 C1192 1.392 . S
C1191 C1195 1.495 . S
C1192 C1191 1.392 . S
C1192 C1193 1.385 . S
C1192 C1194 1.478 . S
C1193 H1187 0.930 . S
C1193 C1189 1.400 . S
C1193 C1192 1.385 . S
C1194 C1192 1.478 . S
C1194 C1196 1.381 . S
C1194 C1200 1.383 . S
C1195 C1191 1.495 . S
C1195 H1201 0.959 . S
C1195 H1202 0.961 . S
C1195 H1203 0.960 . S
C1196 C1194 1.381 . S
C1196 C1197 1.394 . S
C1196 H1204 0.930 . S
C1197 C1196 1.394 . S
C1197 C1198 1.383 . S
C1197 H1205 0.929 . S
C1198 C1197 1.383 . S
C1198 C1199 1.377 . S
C1199 H1183 0.930 . S
C1199 C1198 1.377 . S
C1199 C1200 1.379 . S
C1200 H1184 0.931 . S
C1200 C1194 1.383 . S
C1200 C1199 1.379 . S
H1201 C1195 0.959 . S
H1202 C1195 0.961 . S
H1203 C1195 0.960 . S
H1204 C1196 0.930 . S
H1205 C1197 0.929 . S
H1206 C1214 0.929 . S
H1207 C1216 0.930 . S
H1208 C1218 0.930 . S
H1209 C1221 0.929 . S
H1210 C1224 0.930 . S
H1211 C1226 0.960 . S
H1212 C1226 0.960 . S
H1213 C1226 0.960 . S
C1214 H1206 0.929 . S
C1214 C1215 1.377 . S
C1214 C1216 1.384 . S
C1215 C1214 1.377 . S
C1215 C1221 1.390 . S
C1216 H1207 0.930 . S
C1216 C1214 1.384 . S
C1216 C1217 1.372 . S
C1217 C1216 1.372 . S
C1217 C1218 1.400 . S
C1217 C1222 1.490 . S
C1218 H1208 0.930 . S
C1218 C1217 1.400 . S
C1218 C1221 1.386 . S
H1219 C1235 0.930 . S
H1220 C1236 0.931 . S
C1221 H1209 0.929 . S
C1221 C1215 1.390 . S
C1221 C1218 1.386 . S
C1222 C1217 1.490 . S
C1222 C1224 1.395 . S
C1222 C1225 1.403 . S
H1223 C1229 0.930 . S
C1224 H1210 0.930 . S
C1224 C1222 1.395 . S
C1224 C1227 1.403 . S
C1225 C1222 1.403 . S
C1225 C1226 1.524 . S
C1225 C1229 1.400 . S
C1226 H1211 0.960 . S
C1226 H1212 0.960 . S
C1226 H1213 0.960 . S
C1226 C1225 1.524 . S
C1227 C1224 1.403 . S
C1227 C1228 1.392 . S
C1227 C1231 1.495 . S
C1228 C1227 1.392 . S
C1228 C1229 1.385 . S
C1228 C1230 1.478 . S
C1229 H1223 0.930 . S
C1229 C1225 1.400 . S
C1229 C1228 1.385 . S
C1230 C1228 1.478 . S
C1230 C1232 1.381 . S
C1230 C1236 1.383 . S
C1231 C1227 1.495 . S
C1231 H1237 0.959 . S
C1231 H1238 0.961 . S
C1231 H1239 0.960 . S
C1232 C1230 1.381 . S
C1232 C1233 1.394 . S
C1232 H1240 0.930 . S
C1233 C1232 1.394 . S
C1233 C1234 1.383 . S
C1233 H1241 0.929 . S
C1234 C1233 1.383 . S
C1234 C1235 1.377 . S
C1235 H1219 0.930 . S
C1235 C1234 1.377 . S
C1235 C1236 1.379 . S
C1236 H1220 0.931 . S
C1236 C1230 1.383 . S
C1236 C1235 1.379 . S
H1237 C1231 0.959 . S
H1238 C1231 0.961 . S
H1239 C1231 0.960 . S
H1240 C1232 0.930 . S
H1241 C1233 0.929 . S
H1242 C1250 0.929 . S
H1243 C1252 0.930 . S
H1244 C1254 0.930 . S
H1245 C1257 0.929 . S
H1246 C1260 0.930 . S
H1247 C1262 0.960 . S
H1248 C1262 0.960 . S
H1249 C1262 0.960 . S
C1250 H1242 0.929 . S
C1250 C1251 1.377 . S
C1250 C1252 1.384 . S
C1251 C1250 1.377 . S
C1251 C1257 1.390 . S
C1252 H1243 0.930 . S
C1252 C1250 1.384 . S
C1252 C1253 1.372 . S
C1253 C1252 1.372 . S
C1253 C1254 1.400 . S
C1253 C1258 1.490 . S
C1254 H1244 0.930 . S
C1254 C1253 1.400 . S
C1254 C1257 1.386 . S
H1255 C1271 0.930 . S
H1256 C1272 0.931 . S
C1257 H1245 0.929 . S
C1257 C1251 1.390 . S
C1257 C1254 1.386 . S
C1258 C1253 1.490 . S
C1258 C1260 1.395 . S
C1258 C1261 1.403 . S
H1259 C1265 0.930 . S
C1260 H1246 0.930 . S
C1260 C1258 1.395 . S
C1260 C1263 1.403 . S
C1261 C1258 1.403 . S
C1261 C1262 1.524 . S
C1261 C1265 1.400 . S
C1262 H1247 0.960 . S
C1262 H1248 0.960 . S
C1262 H1249 0.960 . S
C1262 C1261 1.524 . S
C1263 C1260 1.403 . S
C1263 C1264 1.392 . S
C1263 C1267 1.495 . S
C1264 C1263 1.392 . S
C1264 C1265 1.385 . S
C1264 C1266 1.478 . S
C1265 H1259 0.930 . S
C1265 C1261 1.400 . S
C1265 C1264 1.385 . S
C1266 C1264 1.478 . S
C1266 C1268 1.381 . S
C1266 C1272 1.383 . S
C1267 C1263 1.495 . S
C1267 H1273 0.959 . S
C1267 H1274 0.961 . S
C1267 H1275 0.960 . S
C1268 C1266 1.381 . S
C1268 C1269 1.394 . S
C1268 H1276 0.930 . S
C1269 C1268 1.394 . S
C1269 C1270 1.383 . S
C1269 H1277 0.929 . S
C1270 C1269 1.383 . S
C1270 C1271 1.377 . S
C1271 H1255 0.930 . S
C1271 C1270 1.377 . S
C1271 C1272 1.379 . S
C1272 H1256 0.931 . S
C1272 C1266 1.383 . S
C1272 C1271 1.379 . S
H1273 C1267 0.959 . S
H1274 C1267 0.961 . S
H1275 C1267 0.960 . S
H1276 C1268 0.930 . S
H1277 C1269 0.929 . S
H1278 C1286 0.929 . S
H1279 C1288 0.930 . S
H1280 C1290 0.930 . S
H1281 C1293 0.929 . S
H1282 C1296 0.930 . S
H1283 C1298 0.960 . S
H1284 C1298 0.960 . S
H1285 C1298 0.960 . S
C1286 H1278 0.929 . S
C1286 C1287 1.377 . S
C1286 C1288 1.384 . S
C1287 C1286 1.377 . S
C1287 C1293 1.390 . S
C1288 H1279 0.930 . S
C1288 C1286 1.384 . S
C1288 C1289 1.372 . S
C1289 C1288 1.372 . S
C1289 C1290 1.400 . S
C1289 C1294 1.490 . S
C1290 H1280 0.930 . S
C1290 C1289 1.400 . S
C1290 C1293 1.386 . S
H1291 C1307 0.930 . S
H1292 C1308 0.931 . S
C1293 H1281 0.929 . S
C1293 C1287 1.390 . S
C1293 C1290 1.386 . S
C1294 C1289 1.490 . S
C1294 C1296 1.395 . S
C1294 C1297 1.403 . S
H1295 C1301 0.930 . S
C1296 H1282 0.930 . S
C1296 C1294 1.395 . S
C1296 C1299 1.403 . S
C1297 C1294 1.403 . S
C1297 C1298 1.524 . S
C1297 C1301 1.400 . S
C1298 H1283 0.960 . S
C1298 H1284 0.960 . S
C1298 H1285 0.960 . S
C1298 C1297 1.524 . S
C1299 C1296 1.403 . S
C1299 C1300 1.392 . S
C1299 C1303 1.495 . S
C1300 C1299 1.392 . S
C1300 C1301 1.385 . S
C1300 C1302 1.478 . S
C1301 H1295 0.930 . S
C1301 C1297 1.400 . S
C1301 C1300 1.385 . S
C1302 C1300 1.478 . S
C1302 C1304 1.381 . S
C1302 C1308 1.383 . S
C1303 C1299 1.495 . S
C1303 H1309 0.959 . S
C1303 H1310 0.961 . S
C1303 H1311 0.960 . S
C1304 C1302 1.381 . S
C1304 C1305 1.394 . S
C1304 H1312 0.930 . S
C1305 C1304 1.394 . S
C1305 C1306 1.383 . S
C1305 H1313 0.929 . S
C1306 C1305 1.383 . S
C1306 C1307 1.377 . S
C1307 H1291 0.930 . S
C1307 C1306 1.377 . S
C1307 C1308 1.379 . S
C1308 H1292 0.931 . S
C1308 C1302 1.383 . S
C1308 C1307 1.379 . S
H1309 C1303 0.959 . S
H1310 C1303 0.961 . S
H1311 C1303 0.960 . S
H1312 C1304 0.930 . S
H1313 C1305 0.929 . S
H1314 C1322 0.929 . S
H1315 C1324 0.930 . S
H1316 C1326 0.930 . S
H1317 C1329 0.929 . S
H1318 C1332 0.930 . S
H1319 C1334 0.960 . S
H1320 C1334 0.960 . S
H1321 C1334 0.960 . S
C1322 H1314 0.929 . S
C1322 C1323 1.377 . S
C1322 C1324 1.384 . S
C1323 C1322 1.377 . S
C1323 C1329 1.390 . S
C1324 H1315 0.930 . S
C1324 C1322 1.384 . S
C1324 C1325 1.372 . S
C1325 C1324 1.372 . S
C1325 C1326 1.400 . S
C1325 C1330 1.490 . S
C1326 H1316 0.930 . S
C1326 C1325 1.400 . S
C1326 C1329 1.386 . S
H1327 C1343 0.930 . S
H1328 C1344 0.931 . S
C1329 H1317 0.929 . S
C1329 C1323 1.390 . S
C1329 C1326 1.386 . S
C1330 C1325 1.490 . S
C1330 C1332 1.395 . S
C1330 C1333 1.403 . S
H1331 C1337 0.930 . S
C1332 H1318 0.930 . S
C1332 C1330 1.395 . S
C1332 C1335 1.403 . S
C1333 C1330 1.403 . S
C1333 C1334 1.524 . S
C1333 C1337 1.400 . S
C1334 H1319 0.960 . S
C1334 H1320 0.960 . S
C1334 H1321 0.960 . S
C1334 C1333 1.524 . S
C1335 C1332 1.403 . S
C1335 C1336 1.392 . S
C1335 C1339 1.495 . S
C1336 C1335 1.392 . S
C1336 C1337 1.385 . S
C1336 C1338 1.478 . S
C1337 H1331 0.930 . S
C1337 C1333 1.400 . S
C1337 C1336 1.385 . S
C1338 C1336 1.478 . S
C1338 C1340 1.381 . S
C1338 C1344 1.383 . S
C1339 C1335 1.495 . S
C1339 H1345 0.959 . S
C1339 H1346 0.961 . S
C1339 H1347 0.960 . S
C1340 C1338 1.381 . S
C1340 C1341 1.394 . S
C1340 H1348 0.930 . S
C1341 C1340 1.394 . S
C1341 C1342 1.383 . S
C1341 H1349 0.929 . S
C1342 C1341 1.383 . S
C1342 C1343 1.377 . S
C1343 H1327 0.930 . S
C1343 C1342 1.377 . S
C1343 C1344 1.379 . S
C1344 H1328 0.931 . S
C1344 C1338 1.383 . S
C1344 C1343 1.379 . S
H1345 C1339 0.959 . S
H1346 C1339 0.961 . S
H1347 C1339 0.960 . S
H1348 C1340 0.930 . S
H1349 C1341 0.929 . S
H1350 C1358 0.929 . S
H1351 C1360 0.930 . S
H1352 C1362 0.930 . S
H1353 C1365 0.929 . S
H1354 C1368 0.930 . S
H1355 C1370 0.960 . S
H1356 C1370 0.960 . S
H1357 C1370 0.960 . S
C1358 H1350 0.929 . S
C1358 C1359 1.377 . S
C1358 C1360 1.384 . S
C1359 C1358 1.377 . S
C1359 C1365 1.390 . S
C1360 H1351 0.930 . S
C1360 C1358 1.384 . S
C1360 C1361 1.372 . S
C1361 C1360 1.372 . S
C1361 C1362 1.400 . S
C1361 C1366 1.490 . S
C1362 H1352 0.930 . S
C1362 C1361 1.400 . S
C1362 C1365 1.386 . S
H1363 C1379 0.930 . S
H1364 C1380 0.931 . S
C1365 H1353 0.929 . S
C1365 C1359 1.390 . S
C1365 C1362 1.386 . S
C1366 C1361 1.490 . S
C1366 C1368 1.395 . S
C1366 C1369 1.403 . S
H1367 C1373 0.930 . S
C1368 H1354 0.930 . S
C1368 C1366 1.395 . S
C1368 C1371 1.403 . S
C1369 C1366 1.403 . S
C1369 C1370 1.524 . S
C1369 C1373 1.400 . S
C1370 H1355 0.960 . S
C1370 H1356 0.960 . S
C1370 H1357 0.960 . S
C1370 C1369 1.524 . S
C1371 C1368 1.403 . S
C1371 C1372 1.392 . S
C1371 C1375 1.495 . S
C1372 C1371 1.392 . S
C1372 C1373 1.385 . S
C1372 C1374 1.478 . S
C1373 H1367 0.930 . S
C1373 C1369 1.400 . S
C1373 C1372 1.385 . S
C1374 C1372 1.478 . S
C1374 C1376 1.381 . S
C1374 C1380 1.383 . S
C1375 C1371 1.495 . S
C1375 H1381 0.959 . S
C1375 H1382 0.961 . S
C1375 H1383 0.960 . S
C1376 C1374 1.381 . S
C1376 C1377 1.394 . S
C1376 H1384 0.930 . S
C1377 C1376 1.394 . S
C1377 C1378 1.383 . S
C1377 H1385 0.929 . S
C1378 C1377 1.383 . S
C1378 C1379 1.377 . S
C1379 H1363 0.930 . S
C1379 C1378 1.377 . S
C1379 C1380 1.379 . S
C1380 H1364 0.931 . S
C1380 C1374 1.383 . S
C1380 C1379 1.379 . S
H1381 C1375 0.959 . S
H1382 C1375 0.961 . S
H1383 C1375 0.960 . S
H1384 C1376 0.930 . S
H1385 C1377 0.929 . S
H1386 C1394 0.929 . S
H1387 C1396 0.930 . S
H1388 C1398 0.930 . S
H1389 C1401 0.929 . S
H1390 C1404 0.930 . S
H1391 C1406 0.960 . S
H1392 C1406 0.960 . S
H1393 C1406 0.960 . S
C1394 H1386 0.929 . S
C1394 C1395 1.377 . S
C1394 C1396 1.384 . S
C1395 C1394 1.377 . S
C1395 C1401 1.390 . S
C1396 H1387 0.930 . S
C1396 C1394 1.384 . S
C1396 C1397 1.372 . S
C1397 C1396 1.372 . S
C1397 C1398 1.400 . S
C1397 C1402 1.490 . S
C1398 H1388 0.930 . S
C1398 C1397 1.400 . S
C1398 C1401 1.386 . S
H1399 C1415 0.930 . S
H1400 C1416 0.931 . S
C1401 H1389 0.929 . S
C1401 C1395 1.390 . S
C1401 C1398 1.386 . S
C1402 C1397 1.490 . S
C1402 C1404 1.395 . S
C1402 C1405 1.403 . S
H1403 C1409 0.930 . S
C1404 H1390 0.930 . S
C1404 C1402 1.395 . S
C1404 C1407 1.403 . S
C1405 C1402 1.403 . S
C1405 C1406 1.524 . S
C1405 C1409 1.400 . S
C1406 H1391 0.960 . S
C1406 H1392 0.960 . S
C1406 H1393 0.960 . S
C1406 C1405 1.524 . S
C1407 C1404 1.403 . S
C1407 C1408 1.392 . S
C1407 C1411 1.495 . S
C1408 C1407 1.392 . S
C1408 C1409 1.385 . S
C1408 C1410 1.478 . S
C1409 H1403 0.930 . S
C1409 C1405 1.400 . S
C1409 C1408 1.385 . S
C1410 C1408 1.478 . S
C1410 C1412 1.381 . S
C1410 C1416 1.383 . S
C1411 C1407 1.495 . S
C1411 H1417 0.959 . S
C1411 H1418 0.961 . S
C1411 H1419 0.960 . S
C1412 C1410 1.381 . S
C1412 C1413 1.394 . S
C1412 H1420 0.930 . S
C1413 C1412 1.394 . S
C1413 C1414 1.383 . S
C1413 H1421 0.929 . S
C1414 C1413 1.383 . S
C1414 C1415 1.377 . S
C1415 H1399 0.930 . S
C1415 C1414 1.377 . S
C1415 C1416 1.379 . S
C1416 H1400 0.931 . S
C1416 C1410 1.383 . S
C1416 C1415 1.379 . S
H1417 C1411 0.959 . S
H1418 C1411 0.961 . S
H1419 C1411 0.960 . S
H1420 C1412 0.930 . S
H1421 C1413 0.929 . S
H1422 C1430 0.929 . S
H1423 C1432 0.930 . S
H1424 C1434 0.930 . S
H1425 C1437 0.929 . S
H1426 C1440 0.930 . S
H1427 C1442 0.960 . S
H1428 C1442 0.960 . S
H1429 C1442 0.960 . S
C1430 H1422 0.929 . S
C1430 C1431 1.377 . S
C1430 C1432 1.384 . S
C1431 C1430 1.377 . S
C1431 C1437 1.390 . S
C1432 H1423 0.930 . S
C1432 C1430 1.384 . S
C1432 C1433 1.372 . S
C1433 C1432 1.372 . S
C1433 C1434 1.400 . S
C1433 C1438 1.490 . S
C1434 H1424 0.930 . S
C1434 C1433 1.400 . S
C1434 C1437 1.386 . S
H1435 C1451 0.930 . S
H1436 C1452 0.931 . S
C1437 H1425 0.929 . S
C1437 C1431 1.390 . S
C1437 C1434 1.386 . S
C1438 C1433 1.490 . S
C1438 C1440 1.395 . S
C1438 C1441 1.403 . S
H1439 C1445 0.930 . S
C1440 H1426 0.930 . S
C1440 C1438 1.395 . S
C1440 C1443 1.403 . S
C1441 C1438 1.403 . S
C1441 C1442 1.524 . S
C1441 C1445 1.400 . S
C1442 H1427 0.960 . S
C1442 H1428 0.960 . S
C1442 H1429 0.960 . S
C1442 C1441 1.524 . S
C1443 C1440 1.403 . S
C1443 C1444 1.392 . S
C1443 C1447 1.495 . S
C1444 C1443 1.392 . S
C1444 C1445 1.385 . S
C1444 C1446 1.478 . S
C1445 H1439 0.930 . S
C1445 C1441 1.400 . S
C1445 C1444 1.385 . S
C1446 C1444 1.478 . S
C1446 C1448 1.381 . S
C1446 C1452 1.383 . S
C1447 C1443 1.495 . S
C1447 H1453 0.959 . S
C1447 H1454 0.961 . S
C1447 H1455 0.960 . S
C1448 C1446 1.381 . S
C1448 C1449 1.394 . S
C1448 H1456 0.930 . S
C1449 C1448 1.394 . S
C1449 C1450 1.383 . S
C1449 H1457 0.929 . S
C1450 C1449 1.383 . S
C1450 C1451 1.377 . S
C1451 H1435 0.930 . S
C1451 C1450 1.377 . S
C1451 C1452 1.379 . S
C1452 H1436 0.931 . S
C1452 C1446 1.383 . S
C1452 C1451 1.379 . S
H1453 C1447 0.959 . S
H1454 C1447 0.961 . S
H1455 C1447 0.960 . S
H1456 C1448 0.930 . S
H1457 C1449 0.929 . S
H1458 C1466 0.929 . S
H1459 C1468 0.930 . S
H1460 C1470 0.930 . S
H1461 C1473 0.929 . S
H1462 C1476 0.930 . S
H1463 C1478 0.960 . S
H1464 C1478 0.960 . S
H1465 C1478 0.960 . S
C1466 H1458 0.929 . S
C1466 C1467 1.377 . S
C1466 C1468 1.384 . S
C1467 C1466 1.377 . S
C1467 C1473 1.390 . S
C1468 H1459 0.930 . S
C1468 C1466 1.384 . S
C1468 C1469 1.372 . S
C1469 C1468 1.372 . S
C1469 C1470 1.400 . S
C1469 C1474 1.490 . S
C1470 H1460 0.930 . S
C1470 C1469 1.400 . S
C1470 C1473 1.386 . S
H1471 C1487 0.930 . S
H1472 C1488 0.931 . S
C1473 H1461 0.929 . S
C1473 C1467 1.390 . S
C1473 C1470 1.386 . S
C1474 C1469 1.490 . S
C1474 C1476 1.395 . S
C1474 C1477 1.403 . S
H1475 C1481 0.930 . S
C1476 H1462 0.930 . S
C1476 C1474 1.395 . S
C1476 C1479 1.403 . S
C1477 C1474 1.403 . S
C1477 C1478 1.524 . S
C1477 C1481 1.400 . S
C1478 H1463 0.960 . S
C1478 H1464 0.960 . S
C1478 H1465 0.960 . S
C1478 C1477 1.524 . S
C1479 C1476 1.403 . S
C1479 C1480 1.392 . S
C1479 C1483 1.495 . S
C1480 C1479 1.392 . S
C1480 C1481 1.385 . S
C1480 C1482 1.478 . S
C1481 H1475 0.930 . S
C1481 C1477 1.400 . S
C1481 C1480 1.385 . S
C1482 C1480 1.478 . S
C1482 C1484 1.381 . S
C1482 C1488 1.383 . S
C1483 C1479 1.495 . S
C1483 H1489 0.959 . S
C1483 H1490 0.961 . S
C1483 H1491 0.960 . S
C1484 C1482 1.381 . S
C1484 C1485 1.394 . S
C1484 H1492 0.930 . S
C1485 C1484 1.394 . S
C1485 C1486 1.383 . S
C1485 H1493 0.929 . S
C1486 C1485 1.383 . S
C1486 C1487 1.377 . S
C1487 H1471 0.930 . S
C1487 C1486 1.377 . S
C1487 C1488 1.379 . S
C1488 H1472 0.931 . S
C1488 C1482 1.383 . S
C1488 C1487 1.379 . S
H1489 C1483 0.959 . S
H1490 C1483 0.961 . S
H1491 C1483 0.960 . S
H1492 C1484 0.930 . S
H1493 C1485 0.929 . S
H1494 C1502 0.929 . S
H1495 C1504 0.930 . S
H1496 C1506 0.930 . S
H1497 C1509 0.929 . S
H1498 C1512 0.930 . S
H1499 C1514 0.960 . S
H1500 C1514 0.960 . S
H1501 C1514 0.960 . S
C1502 H1494 0.929 . S
C1502 C1503 1.377 . S
C1502 C1504 1.384 . S
C1503 C1502 1.377 . S
C1503 C1509 1.390 . S
C1504 H1495 0.930 . S
C1504 C1502 1.384 . S
C1504 C1505 1.372 . S
C1505 C1504 1.372 . S
C1505 C1506 1.400 . S
C1505 C1510 1.490 . S
C1506 H1496 0.930 . S
C1506 C1505 1.400 . S
C1506 C1509 1.386 . S
H1507 C1523 0.930 . S
H1508 C1524 0.931 . S
C1509 H1497 0.929 . S
C1509 C1503 1.390 . S
C1509 C1506 1.386 . S
C1510 C1505 1.490 . S
C1510 C1512 1.395 . S
C1510 C1513 1.403 . S
H1511 C1517 0.930 . S
C1512 H1498 0.930 . S
C1512 C1510 1.395 . S
C1512 C1515 1.403 . S
C1513 C1510 1.403 . S
C1513 C1514 1.524 . S
C1513 C1517 1.400 . S
C1514 H1499 0.960 . S
C1514 H1500 0.960 . S
C1514 H1501 0.960 . S
C1514 C1513 1.524 . S
C1515 C1512 1.403 . S
C1515 C1516 1.392 . S
C1515 C1519 1.495 . S
C1516 C1515 1.392 . S
C1516 C1517 1.385 . S
C1516 C1518 1.478 . S
C1517 H1511 0.930 . S
C1517 C1513 1.400 . S
C1517 C1516 1.385 . S
C1518 C1516 1.478 . S
C1518 C1520 1.381 . S
C1518 C1524 1.383 . S
C1519 C1515 1.495 . S
C1519 H1525 0.959 . S
C1519 H1526 0.961 . S
C1519 H1527 0.960 . S
C1520 C1518 1.381 . S
C1520 C1521 1.394 . S
C1520 H1528 0.930 . S
C1521 C1520 1.394 . S
C1521 C1522 1.383 . S
C1521 H1529 0.929 . S
C1522 C1521 1.383 . S
C1522 C1523 1.377 . S
C1523 H1507 0.930 . S
C1523 C1522 1.377 . S
C1523 C1524 1.379 . S
C1524 H1508 0.931 . S
C1524 C1518 1.383 . S
C1524 C1523 1.379 . S
H1525 C1519 0.959 . S
H1526 C1519 0.961 . S
H1527 C1519 0.960 . S
H1528 C1520 0.930 . S
H1529 C1521 0.929 . S
H1530 C1538 0.929 . S
H1531 C1540 0.930 . S
H1532 C1542 0.930 . S
H1533 C1545 0.929 . S
H1534 C1548 0.930 . S
H1535 C1550 0.960 . S
H1536 C1550 0.960 . S
H1537 C1550 0.960 . S
C1538 H1530 0.929 . S
C1538 C1539 1.377 . S
C1538 C1540 1.384 . S
C1539 C1538 1.377 . S
C1539 C1545 1.390 . S
C1540 H1531 0.930 . S
C1540 C1538 1.384 . S
C1540 C1541 1.372 . S
C1541 C1540 1.372 . S
C1541 C1542 1.400 . S
C1541 C1546 1.490 . S
C1542 H1532 0.930 . S
C1542 C1541 1.400 . S
C1542 C1545 1.386 . S
H1543 C1559 0.930 . S
H1544 C1560 0.931 . S
C1545 H1533 0.929 . S
C1545 C1539 1.390 . S
C1545 C1542 1.386 . S
C1546 C1541 1.490 . S
C1546 C1548 1.395 . S
C1546 C1549 1.403 . S
H1547 C1553 0.930 . S
C1548 H1534 0.930 . S
C1548 C1546 1.395 . S
C1548 C1551 1.403 . S
C1549 C1546 1.403 . S
C1549 C1550 1.524 . S
C1549 C1553 1.400 . S
C1550 H1535 0.960 . S
C1550 H1536 0.960 . S
C1550 H1537 0.960 . S
C1550 C1549 1.524 . S
C1551 C1548 1.403 . S
C1551 C1552 1.392 . S
C1551 C1555 1.495 . S
C1552 C1551 1.392 . S
C1552 C1553 1.385 . S
C1552 C1554 1.478 . S
C1553 H1547 0.930 . S
C1553 C1549 1.400 . S
C1553 C1552 1.385 . S
C1554 C1552 1.478 . S
C1554 C1556 1.381 . S
C1554 C1560 1.383 . S
C1555 C1551 1.495 . S
C1555 H1561 0.959 . S
C1555 H1562 0.961 . S
C1555 H1563 0.960 . S
C1556 C1554 1.381 . S
C1556 C1557 1.394 . S
C1556 H1564 0.930 . S
C1557 C1556 1.394 . S
C1557 C1558 1.383 . S
C1557 H1565 0.929 . S
C1558 C1557 1.383 . S
C1558 C1559 1.377 . S
C1559 H1543 0.930 . S
C1559 C1558 1.377 . S
C1559 C1560 1.379 . S
C1560 H1544 0.931 . S
C1560 C1554 1.383 . S
C1560 C1559 1.379 . S
H1561 C1555 0.959 . S
H1562 C1555 0.961 . S
H1563 C1555 0.960 . S
H1564 C1556 0.930 . S
H1565 C1557 0.929 . S
H1566 C1574 0.929 . S
H1567 C1576 0.930 . S
H1568 C1578 0.930 . S
H1569 C1581 0.929 . S
H1570 C1584 0.930 . S
H1571 C1586 0.960 . S
H1572 C1586 0.960 . S
H1573 C1586 0.960 . S
C1574 H1566 0.929 . S
C1574 C1575 1.377 . S
C1574 C1576 1.384 . S
C1575 C1574 1.377 . S
C1575 C1581 1.390 . S
C1576 H1567 0.930 . S
C1576 C1574 1.384 . S
C1576 C1577 1.372 . S
C1577 C1576 1.372 . S
C1577 C1578 1.400 . S
C1577 C1582 1.490 . S
C1578 H1568 0.930 . S
C1578 C1577 1.400 . S
C1578 C1581 1.386 . S
H1579 C1595 0.930 . S
H1580 C1596 0.931 . S
C1581 H1569 0.929 . S
C1581 C1575 1.390 . S
C1581 C1578 1.386 . S
C1582 C1577 1.490 . S
C1582 C1584 1.395 . S
C1582 C1585 1.403 . S
H1583 C1589 0.930 . S
C1584 H1570 0.930 . S
C1584 C1582 1.395 . S
C1584 C1587 1.403 . S
C1585 C1582 1.403 . S
C1585 C1586 1.524 . S
C1585 C1589 1.400 . S
C1586 H1571 0.960 . S
C1586 H1572 0.960 . S
C1586 H1573 0.960 . S
C1586 C1585 1.524 . S
C1587 C1584 1.403 . S
C1587 C1588 1.392 . S
C1587 C1591 1.495 . S
C1588 C1587 1.392 . S
C1588 C1589 1.385 . S
C1588 C1590 1.478 . S
C1589 H1583 0.930 . S
C1589 C1585 1.400 . S
C1589 C1588 1.385 . S
C1590 C1588 1.478 . S
C1590 C1592 1.381 . S
C1590 C1596 1.383 . S
C1591 C1587 1.495 . S
C1591 H1597 0.959 . S
C1591 H1598 0.961 . S
C1591 H1599 0.960 . S
C1592 C1590 1.381 . S
C1592 C1593 1.394 . S
C1592 H1600 0.930 . S
C1593 C1592 1.394 . S
C1593 C1594 1.383 . S
C1593 H1601 0.929 . S
C1594 C1593 1.383 . S
C1594 C1595 1.377 . S
C1595 H1579 0.930 . S
C1595 C1594 1.377 . S
C1595 C1596 1.379 . S
C1596 H1580 0.931 . S
C1596 C1590 1.383 . S
C1596 C1595 1.379 . S
H1597 C1591 0.959 . S
H1598 C1591 0.961 . S
H1599 C1591 0.960 . S
H1600 C1592 0.930 . S
H1601 C1593 0.929 . S
H1602 C1610 0.929 . S
H1603 C1612 0.930 . S
H1604 C1614 0.930 . S
H1605 C1617 0.929 . S
H1606 C1620 0.930 . S
H1607 C1622 0.960 . S
H1608 C1622 0.960 . S
H1609 C1622 0.960 . S
C1610 H1602 0.929 . S
C1610 C1611 1.377 . S
C1610 C1612 1.384 . S
C1611 C1610 1.377 . S
C1611 C1617 1.390 1_455 S
C1612 H1603 0.930 . S
C1612 C1610 1.384 . S
C1612 C1613 1.372 . S
C1613 C1612 1.372 . S
C1613 C1614 1.400 1_455 S
C1613 C1618 1.490 . S
C1614 H1604 0.930 . S
C1614 C1613 1.400 1_655 S
C1614 C1617 1.386 . S
H1615 C1631 0.930 . S
H1616 C1632 0.931 . S
C1617 H1605 0.929 . S
C1617 C1611 1.390 1_655 S
C1617 C1614 1.386 . S
C1618 C1613 1.490 . S
C1618 C1620 1.395 . S
C1618 C1621 1.403 1_455 S
H1619 C1625 0.930 . S
C1620 H1606 0.930 . S
C1620 C1618 1.395 . S
C1620 C1623 1.403 . S
C1621 C1618 1.403 1_655 S
C1621 C1622 1.524 . S
C1621 C1625 1.400 . S
C1622 H1607 0.960 . S
C1622 H1608 0.960 . S
C1622 H1609 0.960 . S
C1622 C1621 1.524 . S
C1623 C1620 1.403 . S
C1623 C1624 1.392 1_455 S
C1623 C1627 1.495 . S
C1624 C1623 1.392 1_655 S
C1624 C1625 1.385 . S
C1624 C1626 1.478 . S
C1625 H1619 0.930 . S
C1625 C1621 1.400 . S
C1625 C1624 1.385 . S
C1626 C1624 1.478 . S
C1626 C1628 1.381 . S
C1626 C1632 1.383 . S
C1627 C1623 1.495 . S
C1627 H1633 0.959 . S
C1627 H1634 0.961 . S
C1627 H1635 0.960 . S
C1628 C1626 1.381 . S
C1628 C1629 1.394 . S
C1628 H1636 0.930 1_655 S
C1629 C1628 1.394 . S
C1629 C1630 1.383 . S
C1629 H1637 0.929 . S
C1630 C1629 1.383 . S
C1630 C1631 1.377 . S
C1631 H1615 0.930 . S
C1631 C1630 1.377 . S
C1631 C1632 1.379 . S
C1632 H1616 0.931 . S
C1632 C1626 1.383 . S
C1632 C1631 1.379 . S
H1633 C1627 0.959 . S
H1634 C1627 0.961 . S
H1635 C1627 0.960 . S
H1636 C1628 0.930 1_455 S
H1637 C1629 0.929 . S
H1638 C1646 0.929 . S
H1639 C1648 0.930 . S
H1640 C1650 0.930 . S
H1641 C1653 0.929 . S
H1642 C1656 0.930 . S
H1643 C1658 0.960 . S
H1644 C1658 0.960 . S
H1645 C1658 0.960 . S
C1646 H1638 0.929 . S
C1646 C1647 1.377 . S
C1646 C1648 1.384 . S
C1647 C1646 1.377 . S
C1647 C1653 1.390 . S
C1648 H1639 0.930 . S
C1648 C1646 1.384 . S
C1648 C1649 1.372 . S
C1649 C1648 1.372 . S
C1649 C1650 1.400 . S
C1649 C1654 1.490 . S
C1650 H1640 0.930 . S
C1650 C1649 1.400 . S
C1650 C1653 1.386 . S
H1651 C1667 0.930 . S
H1652 C1668 0.931 . S
C1653 H1641 0.929 . S
C1653 C1647 1.390 . S
C1653 C1650 1.386 . S
C1654 C1649 1.490 . S
C1654 C1656 1.395 . S
C1654 C1657 1.403 . S
H1655 C1661 0.930 . S
C1656 H1642 0.930 . S
C1656 C1654 1.395 . S
C1656 C1659 1.403 . S
C1657 C1654 1.403 . S
C1657 C1658 1.524 . S
C1657 C1661 1.400 . S
C1658 H1643 0.960 . S
C1658 H1644 0.960 . S
C1658 H1645 0.960 . S
C1658 C1657 1.524 . S
C1659 C1656 1.403 . S
C1659 C1660 1.392 . S
C1659 C1663 1.495 . S
C1660 C1659 1.392 . S
C1660 C1661 1.385 . S
C1660 C1662 1.478 . S
C1661 H1655 0.930 . S
C1661 C1657 1.400 . S
C1661 C1660 1.385 . S
C1662 C1660 1.478 . S
C1662 C1664 1.381 . S
C1662 C1668 1.383 . S
C1663 C1659 1.495 . S
C1663 H1669 0.959 . S
C1663 H1670 0.961 . S
C1663 H1671 0.960 . S
C1664 C1662 1.381 . S
C1664 C1665 1.394 . S
C1664 H1672 0.930 . S
C1665 C1664 1.394 . S
C1665 C1666 1.383 . S
C1665 H1673 0.929 . S
C1666 C1665 1.383 . S
C1666 C1667 1.377 . S
C1667 H1651 0.930 . S
C1667 C1666 1.377 . S
C1667 C1668 1.379 . S
C1668 H1652 0.931 . S
C1668 C1662 1.383 . S
C1668 C1667 1.379 . S
H1669 C1663 0.959 . S
H1670 C1663 0.961 . S
H1671 C1663 0.960 . S
H1672 C1664 0.930 . S
H1673 C1665 0.929 . S
H1674 C1682 0.929 . S
H1675 C1684 0.930 . S
H1676 C1686 0.930 . S
H1677 C1689 0.929 . S
H1678 C1692 0.930 . S
H1679 C1694 0.960 . S
H1680 C1694 0.960 . S
H1681 C1694 0.960 . S
C1682 H1674 0.929 . S
C1682 C1683 1.377 . S
C1682 C1684 1.384 . S
C1683 C1682 1.377 . S
C1683 C1689 1.390 . S
C1684 H1675 0.930 . S
C1684 C1682 1.384 . S
C1684 C1685 1.372 . S
C1685 C1684 1.372 . S
C1685 C1686 1.400 . S
C1685 C1690 1.490 . S
C1686 H1676 0.930 . S
C1686 C1685 1.400 . S
C1686 C1689 1.386 . S
H1687 C1703 0.930 . S
H1688 C1704 0.931 . S
C1689 H1677 0.929 . S
C1689 C1683 1.390 . S
C1689 C1686 1.386 . S
C1690 C1685 1.490 . S
C1690 C1692 1.395 1_545 S
C1690 C1693 1.403 . S
H1691 C1697 0.930 . S
C1692 H1678 0.930 . S
C1692 C1690 1.395 1_565 S
C1692 C1695 1.403 . S
C1693 C1690 1.403 . S
C1693 C1694 1.524 . S
C1693 C1697 1.400 . S
C1694 H1679 0.960 . S
C1694 H1680 0.960 . S
C1694 H1681 0.960 . S
C1694 C1693 1.524 . S
C1695 C1692 1.403 . S
C1695 C1696 1.392 . S
C1695 C1699 1.495 . S
C1696 C1695 1.392 . S
C1696 C1697 1.385 1_565 S
C1696 C1698 1.478 . S
C1697 H1691 0.930 . S
C1697 C1693 1.400 . S
C1697 C1696 1.385 1_545 S
C1698 C1696 1.478 . S
C1698 C1700 1.381 1_565 S
C1698 C1704 1.383 . S
C1699 C1695 1.495 . S
C1699 H1705 0.959 . S
C1699 H1706 0.961 . S
C1699 H1707 0.960 . S
C1700 C1698 1.381 1_545 S
C1700 C1701 1.394 1_545 S
C1700 H1708 0.930 . S
C1701 C1700 1.394 1_565 S
C1701 C1702 1.383 . S
C1701 H1709 0.929 1_565 S
C1702 C1701 1.383 . S
C1702 C1703 1.377 . S
C1703 H1687 0.930 . S
C1703 C1702 1.377 . S
C1703 C1704 1.379 . S
C1704 H1688 0.931 . S
C1704 C1698 1.383 . S
C1704 C1703 1.379 . S
H1705 C1699 0.959 . S
H1706 C1699 0.961 . S
H1707 C1699 0.960 . S
H1708 C1700 0.930 . S
H1709 C1701 0.929 1_545 S
H1710 C1718 0.929 1_545 S
H1711 C1720 0.930 . S
H1712 C1722 0.930 . S
H1713 C1725 0.929 . S
H1714 C1728 0.930 . S
H1715 C1730 0.960 . S
H1716 C1730 0.960 . S
H1717 C1730 0.960 . S
C1718 H1710 0.929 1_565 S
C1718 C1719 1.377 . S
C1718 C1720 1.384 . S
C1719 C1718 1.377 . S
C1719 C1725 1.390 . S
C1720 H1711 0.930 . S
C1720 C1718 1.384 . S
C1720 C1721 1.372 . S
C1721 C1720 1.372 . S
C1721 C1722 1.400 . S
C1721 C1726 1.490 . S
C1722 H1712 0.930 . S
C1722 C1721 1.400 . S
C1722 C1725 1.386 . S
H1723 C1739 0.930 . S
H1724 C1740 0.931 . S
C1725 H1713 0.929 . S
C1725 C1719 1.390 . S
C1725 C1722 1.386 . S
C1726 C1721 1.490 . S
C1726 C1728 1.395 1_554 S
C1726 C1729 1.403 . S
H1727 C1733 0.930 . S
C1728 H1714 0.930 . S
C1728 C1726 1.395 1_556 S
C1728 C1731 1.403 . S
C1729 C1726 1.403 . S
C1729 C1730 1.524 . S
C1729 C1733 1.400 . S
C1730 H1715 0.960 . S
C1730 H1716 0.960 . S
C1730 H1717 0.960 . S
C1730 C1729 1.524 . S
C1731 C1728 1.403 . S
C1731 C1732 1.392 . S
C1731 C1735 1.495 . S
C1732 C1731 1.392 . S
C1732 C1733 1.385 1_556 S
C1732 C1734 1.478 . S
C1733 H1727 0.930 . S
C1733 C1729 1.400 . S
C1733 C1732 1.385 1_554 S
C1734 C1732 1.478 . S
C1734 C1736 1.381 . S
C1734 C1740 1.383 . S
C1735 C1731 1.495 . S
C1735 H1741 0.959 . S
C1735 H1742 0.961 . S
C1735 H1743 0.960 . S
C1736 C1734 1.381 . S
C1736 C1737 1.394 . S
C1736 H1744 0.930 . S
C1737 C1736 1.394 . S
C1737 C1738 1.383 . S
C1737 H1745 0.929 . S
C1738 C1737 1.383 . S
C1738 C1739 1.377 . S
C1739 H1723 0.930 . S
C1739 C1738 1.377 . S
C1739 C1740 1.379 . S
C1740 H1724 0.931 . S
C1740 C1734 1.383 . S
C1740 C1739 1.379 . S
H1741 C1735 0.959 . S
H1742 C1735 0.961 . S
H1743 C1735 0.960 . S
H1744 C1736 0.930 . S
H1745 C1737 0.929 . S
H1746 C1754 0.929 . S
H1747 C1756 0.930 . S
H1748 C1758 0.930 . S
H1749 C1761 0.924 1_656 S
H1750 C1764 0.930 . S
H1751 C1766 0.960 . S
H1752 C1766 0.960 . S
H1753 C1766 0.960 . S
C1754 H1746 0.929 . S
C1754 C1755 1.377 . S
C1754 C1756 1.384 1_655 S
C1755 C1754 1.377 . S
C1755 C1761 1.412 1_655 S
C1756 H1747 0.930 . S
C1756 C1754 1.384 1_455 S
C1756 C1757 1.372 1_554 S
C1757 C1756 1.372 1_556 S
C1757 C1758 1.400 . S
C1757 C1762 1.490 . S
C1758 H1748 0.930 . S
C1758 C1757 1.400 . S
C1758 C1761 1.373 1_556 S
H1759 C1775 0.930 . S
H1760 C1776 0.931 . S
C1761 H1749 0.924 1_454 S
C1761 C1755 1.412 1_455 S
C1761 C1758 1.373 1_554 S
C1762 C1757 1.490 . S
C1762 C1764 1.395 . S
C1762 C1765 1.403 1_556 S
H1763 C1769 0.930 1_554 S
C1764 H1750 0.930 . S
C1764 C1762 1.395 . S
C1764 C1767 1.403 . S
C1765 C1762 1.403 1_554 S
C1765 C1766 1.524 . S
C1765 C1769 1.400 1_554 S
C1766 H1751 0.960 . S
C1766 H1752 0.960 . S
C1766 H1753 0.960 . S
C1766 C1765 1.524 . S
C1767 C1764 1.403 . S
C1767 C1768 1.392 . S
C1767 C1771 1.495 . S
C1768 C1767 1.392 . S
C1768 C1769 1.385 . S
C1768 C1770 1.478 . S
C1769 H1763 0.930 1_556 S
C1769 C1765 1.400 1_556 S
C1769 C1768 1.385 . S
C1770 C1768 1.478 . S
C1770 C1772 1.381 . S
C1770 C1776 1.383 . S
C1771 C1767 1.495 . S
C1771 H1777 0.959 . S
C1771 H1778 0.961 . S
C1771 H1779 0.960 . S
C1772 C1770 1.381 . S
C1772 C1773 1.394 . S
C1772 H1780 0.930 . S
C1773 C1772 1.394 . S
C1773 C1774 1.383 . S
C1773 H1781 0.929 . S
C1774 C1773 1.383 . S
C1774 C1775 1.377 . S
C1775 H1759 0.930 . S
C1775 C1774 1.377 . S
C1775 C1776 1.379 . S
C1776 H1760 0.931 . S
C1776 C1770 1.383 . S
C1776 C1775 1.379 . S
H1777 C1771 0.959 . S
H1778 C1771 0.961 . S
H1779 C1771 0.960 . S
H1780 C1772 0.930 . S
H1781 C1773 0.929 . S
H1782 C1790 0.929 . S
H1783 C1792 0.930 . S
H1784 C1794 0.930 . S
H1785 C1797 0.929 . S
H1786 C1800 0.930 . S
H1787 C1802 0.960 . S
H1788 C1802 0.960 . S
H1789 C1802 0.960 . S
C1790 H1782 0.929 . S
C1790 C1791 1.377 . S
C1790 C1792 1.384 . S
C1791 C1790 1.377 . S
C1791 C1797 1.390 . S
C1792 H1783 0.930 . S
C1792 C1790 1.384 . S
C1792 C1793 1.372 . S
C1793 C1792 1.372 . S
C1793 C1794 1.400 . S
C1793 C1798 1.490 . S
C1794 H1784 0.930 . S
C1794 C1793 1.400 . S
C1794 C1797 1.386 . S
H1795 C1811 0.930 . S
H1796 C1812 0.931 . S
C1797 H1785 0.929 . S
C1797 C1791 1.390 . S
C1797 C1794 1.386 . S
C1798 C1793 1.490 . S
C1798 C1800 1.395 . S
C1798 C1801 1.403 . S
H1799 C1805 0.930 . S
C1800 H1786 0.930 . S
C1800 C1798 1.395 . S
C1800 C1803 1.412 . S
C1801 C1798 1.403 . S
C1801 C1802 1.524 . S
C1801 C1805 1.400 . S
C1802 H1787 0.960 . S
C1802 H1788 0.960 . S
C1802 H1789 0.960 . S
C1802 C1801 1.524 . S
C1803 C1800 1.412 . S
C1803 C1804 1.388 1_554 S
C1803 C1807 1.488 1_554 S
C1804 C1803 1.388 1_556 S
C1804 C1805 1.361 1_556 S
C1804 C1806 1.508 . S
C1805 H1799 0.930 . S
C1805 C1801 1.400 . S
C1805 C1804 1.361 1_554 S
C1806 C1804 1.508 . S
C1806 C1808 1.381 . S
C1806 C1812 1.383 . S
C1807 C1803 1.488 1_556 S
C1807 H1813 0.959 . S
C1807 H1814 0.961 . S
C1807 H1815 0.960 . S
C1808 C1806 1.381 . S
C1808 C1809 1.394 . S
C1808 H1816 0.930 1_556 S
C1809 C1808 1.394 . S
C1809 C1810 1.383 . S
C1809 H1817 0.929 . S
C1810 C1809 1.383 . S
C1810 C1811 1.377 . S
C1811 H1795 0.930 . S
C1811 C1810 1.377 . S
C1811 C1812 1.379 . S
C1812 H1796 0.931 . S
C1812 C1806 1.383 . S
C1812 C1811 1.379 . S
H1813 C1807 0.959 . S
H1814 C1807 0.961 . S
H1815 C1807 0.960 . S
H1816 C1808 0.930 1_554 S
H1817 C1809 0.929 . S
H1818 C1826 0.929 . S
H1819 C1828 0.930 . S
H1820 C1830 0.930 . S
H1821 C1833 0.929 . S
H1822 C1836 0.927 1_554 S
H1823 C1838 0.960 . S
H1824 C1838 0.960 . S
H1825 C1838 0.960 . S
C1826 H1818 0.929 . S
C1826 C1827 1.377 . S
C1826 C1828 1.384 1_565 S
C1827 C1826 1.377 . S
C1827 C1833 1.390 . S
C1828 H1819 0.930 . S
C1828 C1826 1.384 1_545 S
C1828 C1829 1.372 . S
C1829 C1828 1.372 . S
C1829 C1830 1.400 . S
C1829 C1834 1.490 . S
C1830 H1820 0.930 . S
C1830 C1829 1.400 . S
C1830 C1833 1.386 1_545 S
H1831 C1847 0.930 . S
H1832 C1848 0.931 . S
C1833 H1821 0.929 . S
C1833 C1827 1.390 . S
C1833 C1830 1.386 1_565 S
C1834 C1829 1.490 . S
C1834 C1836 1.400 . S
C1834 C1837 1.403 . S
H1835 C1841 0.930 . S
C1836 H1822 0.927 1_556 S
C1836 C1834 1.400 . S
C1836 C1839 1.402 1_556 S
C1837 C1834 1.403 . S
C1837 C1838 1.524 . S
C1837 C1841 1.400 . S
C1838 H1823 0.960 . S
C1838 H1824 0.960 . S
C1838 H1825 0.960 . S
C1838 C1837 1.524 . S
C1839 C1836 1.402 1_554 S
C1839 C1840 1.392 1_554 S
C1839 C1843 1.495 . S
C1840 C1839 1.392 1_556 S
C1840 C1841 1.385 . S
C1840 C1842 1.491 . S
C1841 H1835 0.930 . S
C1841 C1837 1.400 . S
C1841 C1840 1.385 . S
C1842 C1840 1.491 . S
C1842 C1844 1.348 1_556 S
C1842 C1848 1.406 . S
C1843 C1839 1.495 . S
C1843 H1849 0.959 . S
C1843 H1850 0.961 . S
C1843 H1851 0.960 . S
C1844 C1842 1.348 1_554 S
C1844 C1845 1.394 . S
C1844 H1852 0.930 . S
C1845 C1844 1.394 . S
C1845 C1846 1.383 . S
C1845 H1853 0.929 . S
C1846 C1845 1.383 . S
C1846 C1847 1.377 1_554 S
C1847 H1831 0.930 . S
C1847 C1846 1.377 1_556 S
C1847 C1848 1.379 . S
C1848 H1832 0.931 . S
C1848 C1842 1.406 . S
C1848 C1847 1.379 . S
H1849 C1843 0.959 . S
H1850 C1843 0.961 . S
H1851 C1843 0.960 . S
H1852 C1844 0.930 . S
H1853 C1845 0.929 . S
H1854 C1862 0.929 . S
H1855 C1864 0.930 . S
H1856 C1866 0.930 . S
H1857 C1869 0.929 . S
H1858 C1872 0.930 . S
H1859 C1874 0.960 . S
H1860 C1874 0.960 . S
H1861 C1874 0.960 . S
C1862 H1854 0.929 . S
C1862 C1863 1.377 . S
C1862 C1864 1.384 . S
C1863 C1862 1.377 . S
C1863 C1869 1.390 . S
C1864 H1855 0.930 . S
C1864 C1862 1.384 . S
C1864 C1865 1.372 . S
C1865 C1864 1.372 . S
C1865 C1866 1.400 . S
C1865 C1870 1.490 . S
C1866 H1856 0.930 . S
C1866 C1865 1.400 . S
C1866 C1869 1.386 . S
H1867 C1883 0.930 . S
H1868 C1884 0.931 . S
C1869 H1857 0.929 . S
C1869 C1863 1.390 . S
C1869 C1866 1.386 . S
C1870 C1865 1.490 . S
C1870 C1872 1.395 . S
C1870 C1873 1.403 1_554 S
H1871 C1877 0.930 . S
C1872 H1858 0.930 . S
C1872 C1870 1.395 . S
C1872 C1875 1.403 . S
C1873 C1870 1.403 1_556 S
C1873 C1874 1.524 . S
C1873 C1877 1.400 . S
C1874 H1859 0.960 . S
C1874 H1860 0.960 . S
C1874 H1861 0.960 . S
C1874 C1873 1.524 . S
C1875 C1872 1.403 . S
C1875 C1876 1.392 1_554 S
C1875 C1879 1.495 . S
C1876 C1875 1.392 1_556 S
C1876 C1877 1.385 . S
C1876 C1878 1.478 . S
C1877 H1871 0.930 . S
C1877 C1873 1.400 . S
C1877 C1876 1.385 . S
C1878 C1876 1.478 . S
C1878 C1880 1.381 . S
C1878 C1884 1.383 . S
C1879 C1875 1.495 . S
C1879 H1885 0.959 . S
C1879 H1886 0.961 . S
C1879 H1887 0.960 . S
C1880 C1878 1.381 . S
C1880 C1881 1.394 1_655 S
C1880 H1888 0.930 . S
C1881 C1880 1.394 1_455 S
C1881 C1882 1.383 . S
C1881 H1889 0.929 . S
C1882 C1881 1.383 . S
C1882 C1883 1.377 . S
C1883 H1867 0.930 . S
C1883 C1882 1.377 . S
C1883 C1884 1.379 1_455 S
C1884 H1868 0.931 . S
C1884 C1878 1.383 . S
C1884 C1883 1.379 1_655 S
H1885 C1879 0.959 . S
H1886 C1879 0.961 . S
H1887 C1879 0.960 . S
H1888 C1880 0.930 . S
H1889 C1881 0.929 . S
H1890 C1898 0.929 . S
H1891 C1900 0.930 1_554 S
H1892 C1902 0.930 . S
H1893 C1905 0.929 . S
H1894 C1908 0.930 . S
H1895 C1910 0.960 . S
H1896 C1910 0.960 . S
H1897 C1910 0.960 . S
C1898 H1890 0.929 . S
C1898 C1899 1.377 . S
C1898 C1900 1.384 . S
C1899 C1898 1.377 . S
C1899 C1905 1.390 . S
C1900 H1891 0.930 1_556 S
C1900 C1898 1.384 . S
C1900 C1901 1.372 . S
C1901 C1900 1.372 . S
C1901 C1902 1.400 . S
C1901 C1906 1.490 . S
C1902 H1892 0.930 . S
C1902 C1901 1.400 . S
C1902 C1905 1.386 . S
H1903 C1919 0.930 . S
H1904 C1920 0.931 . S
C1905 H1893 0.929 . S
C1905 C1899 1.390 . S
C1905 C1902 1.386 . S
C1906 C1901 1.490 . S
C1906 C1908 1.395 1_556 S
C1906 C1909 1.402 . S
H1907 C1913 0.930 . S
C1908 H1894 0.930 . S
C1908 C1906 1.395 1_554 S
C1908 C1911 1.403 . S
C1909 C1906 1.402 . S
C1909 C1910 1.524 . S
C1909 C1913 1.400 . S
C1910 H1895 0.960 . S
C1910 H1896 0.960 . S
C1910 H1897 0.960 . S
C1910 C1909 1.524 . S
C1911 C1908 1.403 . S
C1911 C1912 1.392 . S
C1911 C1915 1.495 . S
C1912 C1911 1.392 . S
C1912 C1913 1.385 1_554 S
C1912 C1914 1.478 . S
C1913 H1907 0.930 . S
C1913 C1909 1.400 . S
C1913 C1912 1.385 1_556 S
C1914 C1912 1.478 . S
C1914 C1916 1.381 . S
C1914 C1920 1.383 . S
C1915 C1911 1.495 . S
C1915 H1921 0.959 . S
C1915 H1922 0.961 . S
C1915 H1923 0.960 . S
C1916 C1914 1.381 . S
C1916 C1917 1.394 . S
C1916 H1924 0.930 . S
C1917 C1916 1.394 . S
C1917 C1918 1.383 . S
C1917 H1925 0.929 . S
C1918 C1917 1.383 . S
C1918 C1919 1.377 . S
C1919 H1903 0.930 . S
C1919 C1918 1.377 . S
C1919 C1920 1.379 . S
C1920 H1904 0.931 . S
C1920 C1914 1.383 . S
C1920 C1919 1.379 . S
H1921 C1915 0.959 . S
H1922 C1915 0.961 . S
H1923 C1915 0.960 . S
H1924 C1916 0.930 . S
H1925 C1917 0.929 . S
H1926 C1934 0.929 . S
H1927 C1936 0.930 . S
H1928 C1938 0.930 . S
H1929 C1941 0.929 . S
H1930 C1944 0.930 . S
H1931 C1946 0.960 . S
H1932 C1946 0.960 . S
H1933 C1946 0.960 . S
C1934 H1926 0.929 . S
C1934 C1935 1.377 . S
C1934 C1936 1.384 . S
C1935 C1934 1.377 . S
C1935 C1941 1.390 . S
C1936 H1927 0.930 . S
C1936 C1934 1.384 . S
C1936 C1937 1.372 . S
C1937 C1936 1.372 . S
C1937 C1938 1.400 . S
C1937 C1942 1.490 . S
C1938 H1928 0.930 . S
C1938 C1937 1.400 . S
C1938 C1941 1.386 . S
H1939 C1955 0.930 . S
H1940 C1956 0.931 . S
C1941 H1929 0.929 . S
C1941 C1935 1.390 . S
C1941 C1938 1.386 . S
C1942 C1937 1.490 . S
C1942 C1944 1.395 . S
C1942 C1945 1.403 . S
H1943 C1949 0.930 . S
C1944 H1930 0.930 . S
C1944 C1942 1.395 . S
C1944 C1947 1.403 . S
C1945 C1942 1.403 . S
C1945 C1946 1.524 . S
C1945 C1949 1.400 . S
C1946 H1931 0.960 . S
C1946 H1932 0.960 . S
C1946 H1933 0.960 . S
C1946 C1945 1.524 . S
C1947 C1944 1.403 . S
C1947 C1948 1.392 . S
C1947 C1951 1.495 . S
C1948 C1947 1.392 . S
C1948 C1949 1.385 . S
C1948 C1950 1.478 . S
C1949 H1943 0.930 . S
C1949 C1945 1.400 . S
C1949 C1948 1.385 . S
C1950 C1948 1.478 . S
C1950 C1952 1.381 . S
C1950 C1956 1.383 . S
C1951 C1947 1.495 . S
C1951 H1957 0.959 . S
C1951 H1958 0.961 . S
C1951 H1959 0.960 . S
C1952 C1950 1.381 . S
C1952 C1953 1.394 . S
C1952 H1960 0.930 . S
C1953 C1952 1.394 . S
C1953 C1954 1.383 . S
C1953 H1961 0.929 . S
C1954 C1953 1.383 . S
C1954 C1955 1.377 . S
C1955 H1939 0.930 . S
C1955 C1954 1.377 . S
C1955 C1956 1.379 . S
C1956 H1940 0.931 . S
C1956 C1950 1.383 . S
C1956 C1955 1.379 . S
H1957 C1951 0.959 . S
H1958 C1951 0.961 . S
H1959 C1951 0.960 . S
H1960 C1952 0.930 . S
H1961 C1953 0.929 . S
H1962 C1970 0.929 . S
H1963 C1972 0.930 . S
H1964 C1974 0.930 . S
H1965 C1977 0.929 . S
H1966 C1980 0.930 . S
H1967 C1982 0.960 . S
H1968 C1982 0.960 . S
H1969 C1982 0.960 . S
C1970 H1962 0.929 . S
C1970 C1971 1.377 . S
C1970 C1972 1.384 . S
C1971 C1970 1.377 . S
C1971 C1977 1.390 . S
C1972 H1963 0.930 . S
C1972 C1970 1.384 . S
C1972 C1973 1.372 . S
C1973 C1972 1.372 . S
C1973 C1974 1.400 . S
C1973 C1978 1.490 . S
C1974 H1964 0.930 . S
C1974 C1973 1.400 . S
C1974 C1977 1.386 . S
H1975 C1991 0.930 . S
H1976 C1992 0.931 . S
C1977 H1965 0.929 . S
C1977 C1971 1.390 . S
C1977 C1974 1.386 . S
C1978 C1973 1.490 . S
C1978 C1980 1.395 . S
C1978 C1981 1.403 . S
H1979 C1985 0.930 . S
C1980 H1966 0.930 . S
C1980 C1978 1.395 . S
C1980 C1983 1.403 . S
C1981 C1978 1.403 . S
C1981 C1982 1.524 . S
C1981 C1985 1.400 . S
C1982 H1967 0.960 . S
C1982 H1968 0.960 . S
C1982 H1969 0.960 . S
C1982 C1981 1.524 . S
C1983 C1980 1.403 . S
C1983 C1984 1.392 . S
C1983 C1987 1.495 . S
C1984 C1983 1.392 . S
C1984 C1985 1.385 . S
C1984 C1986 1.478 . S
C1985 H1979 0.930 . S
C1985 C1981 1.400 . S
C1985 C1984 1.385 . S
C1986 C1984 1.478 . S
C1986 C1988 1.381 . S
C1986 C1992 1.383 . S
C1987 C1983 1.495 . S
C1987 H1993 0.959 . S
C1987 H1994 0.961 . S
C1987 H1995 0.960 . S
C1988 C1986 1.381 . S
C1988 C1989 1.394 . S
C1988 H1996 0.930 . S
C1989 C1988 1.394 . S
C1989 C1990 1.383 . S
C1989 H1997 0.929 . S
C1990 C1989 1.383 . S
C1990 C1991 1.377 . S
C1991 H1975 0.930 . S
C1991 C1990 1.377 . S
C1991 C1992 1.379 . S
C1992 H1976 0.931 . S
C1992 C1986 1.383 . S
C1992 C1991 1.379 . S
H1993 C1987 0.959 . S
H1994 C1987 0.961 . S
H1995 C1987 0.960 . S
H1996 C1988 0.930 . S
H1997 C1989 0.929 . S
H1998 C2006 0.929 . S
H1999 C2008 0.930 . S
H2000 C2010 0.930 . S
H2001 C2013 0.929 . S
H2002 C2016 0.930 . S
H2003 C2018 0.960 . S
H2004 C2018 0.960 . S
H2005 C2018 0.960 . S
C2006 H1998 0.929 . S
C2006 C2007 1.377 . S
C2006 C2008 1.384 . S
C2007 C2006 1.377 . S
C2007 C2013 1.390 . S
C2008 H1999 0.930 . S
C2008 C2006 1.384 . S
C2008 C2009 1.372 . S
C2009 C2008 1.372 . S
C2009 C2010 1.400 . S
C2009 C2014 1.490 . S
C2010 H2000 0.930 . S
C2010 C2009 1.400 . S
C2010 C2013 1.386 . S
H2011 C2027 0.930 . S
H2012 C2028 0.931 . S
C2013 H2001 0.929 . S
C2013 C2007 1.390 . S
C2013 C2010 1.386 . S
C2014 C2009 1.490 . S
C2014 C2016 1.395 . S
C2014 C2017 1.403 . S
H2015 C2021 0.930 . S
C2016 H2002 0.930 . S
C2016 C2014 1.395 . S
C2016 C2019 1.403 . S
C2017 C2014 1.403 . S
C2017 C2018 1.524 . S
C2017 C2021 1.400 . S
C2018 H2003 0.960 . S
C2018 H2004 0.960 . S
C2018 H2005 0.960 . S
C2018 C2017 1.524 . S
C2019 C2016 1.403 . S
C2019 C2020 1.392 . S
C2019 C2023 1.495 . S
C2020 C2019 1.392 . S
C2020 C2021 1.385 . S
C2020 C2022 1.478 . S
C2021 H2015 0.930 . S
C2021 C2017 1.400 . S
C2021 C2020 1.385 . S
C2022 C2020 1.478 . S
C2022 C2024 1.381 . S
C2022 C2028 1.383 . S
C2023 C2019 1.495 . S
C2023 H2029 0.959 . S
C2023 H2030 0.961 . S
C2023 H2031 0.960 . S
C2024 C2022 1.381 . S
C2024 C2025 1.394 . S
C2024 H2032 0.930 . S
C2025 C2024 1.394 . S
C2025 C2026 1.383 . S
C2025 H2033 0.929 . S
C2026 C2025 1.383 . S
C2026 C2027 1.377 . S
C2027 H2011 0.930 . S
C2027 C2026 1.377 . S
C2027 C2028 1.379 . S
C2028 H2012 0.931 . S
C2028 C2022 1.383 . S
C2028 C2027 1.379 . S
H2029 C2023 0.959 . S
H2030 C2023 0.961 . S
H2031 C2023 0.960 . S
H2032 C2024 0.930 . S
H2033 C2025 0.929 . S
H2034 C2042 0.929 . S
H2035 C2044 0.930 . S
H2036 C2046 0.930 . S
H2037 C2049 0.929 . S
H2038 C2052 0.930 . S
H2039 C2054 0.960 . S
H2040 C2054 0.960 . S
H2041 C2054 0.960 . S
C2042 H2034 0.929 . S
C2042 C2043 1.377 . S
C2042 C2044 1.384 . S
C2043 C2042 1.377 . S
C2043 C2049 1.390 . S
C2044 H2035 0.930 . S
C2044 C2042 1.384 . S
C2044 C2045 1.372 . S
C2045 C2044 1.372 . S
C2045 C2046 1.400 . S
C2045 C2050 1.490 . S
C2046 H2036 0.930 . S
C2046 C2045 1.400 . S
C2046 C2049 1.386 . S
H2047 C2063 0.930 . S
H2048 C2064 0.931 . S
C2049 H2037 0.929 . S
C2049 C2043 1.390 . S
C2049 C2046 1.386 . S
C2050 C2045 1.490 . S
C2050 C2052 1.395 . S
C2050 C2053 1.403 . S
H2051 C2057 0.930 . S
C2052 H2038 0.930 . S
C2052 C2050 1.395 . S
C2052 C2055 1.403 . S
C2053 C2050 1.403 . S
C2053 C2054 1.524 . S
C2053 C2057 1.400 . S
C2054 H2039 0.960 . S
C2054 H2040 0.960 . S
C2054 H2041 0.960 . S
C2054 C2053 1.524 . S
C2055 C2052 1.403 . S
C2055 C2056 1.392 . S
C2055 C2059 1.495 . S
C2056 C2055 1.392 . S
C2056 C2057 1.385 . S
C2056 C2058 1.478 . S
C2057 H2051 0.930 . S
C2057 C2053 1.400 . S
C2057 C2056 1.385 . S
C2058 C2056 1.478 . S
C2058 C2060 1.381 . S
C2058 C2064 1.383 . S
C2059 C2055 1.495 . S
C2059 H2065 0.959 . S
C2059 H2066 0.961 . S
C2059 H2067 0.960 . S
C2060 C2058 1.381 . S
C2060 C2061 1.394 . S
C2060 H2068 0.930 . S
C2061 C2060 1.394 . S
C2061 C2062 1.383 . S
C2061 H2069 0.929 . S
C2062 C2061 1.383 . S
C2062 C2063 1.377 . S
C2063 H2047 0.930 . S
C2063 C2062 1.377 . S
C2063 C2064 1.379 . S
C2064 H2048 0.931 . S
C2064 C2058 1.383 . S
C2064 C2063 1.379 . S
H2065 C2059 0.959 . S
H2066 C2059 0.961 . S
H2067 C2059 0.960 . S
H2068 C2060 0.930 . S
H2069 C2061 0.929 . S
H2070 C2078 0.929 1_565 S
H2071 C2080 0.930 1_565 S
H2072 C2082 0.930 . S
H2073 C2085 0.929 . S
H2074 C2088 0.930 1_565 S
H2075 C2090 0.960 . S
H2076 C2090 0.960 . S
H2077 C2090 0.960 . S
C2078 H2070 0.929 1_545 S
C2078 C2079 1.377 . S
C2078 C2080 1.384 . S
C2079 C2078 1.377 . S
C2079 C2085 1.390 . S
C2080 H2071 0.930 1_545 S
C2080 C2078 1.384 . S
C2080 C2081 1.372 . S
C2081 C2080 1.372 . S
C2081 C2082 1.400 . S
C2081 C2086 1.490 . S
C2082 H2072 0.930 . S
C2082 C2081 1.400 . S
C2082 C2085 1.386 . S
H2083 C2099 0.930 . S
H2084 C2100 0.931 . S
C2085 H2073 0.929 . S
C2085 C2079 1.390 . S
C2085 C2082 1.386 . S
C2086 C2081 1.490 . S
C2086 C2088 1.395 . S
C2086 C2089 1.403 . S
H2087 C2093 0.930 . S
C2088 H2074 0.930 1_545 S
C2088 C2086 1.395 . S
C2088 C2091 1.403 . S
C2089 C2086 1.403 . S
C2089 C2090 1.524 . S
C2089 C2093 1.400 . S
C2090 H2075 0.960 . S
C2090 H2076 0.960 . S
C2090 H2077 0.960 . S
C2090 C2089 1.524 . S
C2091 C2088 1.403 . S
C2091 C2092 1.392 . S
C2091 C2095 1.495 1_545 S
C2092 C2091 1.392 . S
C2092 C2093 1.385 . S
C2092 C2094 1.478 . S
C2093 H2087 0.930 . S
C2093 C2089 1.400 . S
C2093 C2092 1.385 . S
C2094 C2092 1.478 . S
C2094 C2096 1.381 1_545 S
C2094 C2100 1.383 . S
C2095 C2091 1.495 1_565 S
C2095 H2101 0.959 . S
C2095 H2102 0.961 . S
C2095 H2103 0.960 . S
C2096 C2094 1.381 1_565 S
C2096 C2097 1.394 . S
C2096 H2104 0.930 . S
C2097 C2096 1.394 . S
C2097 C2098 1.383 1_565 S
C2097 H2105 0.929 . S
C2098 C2097 1.383 1_545 S
C2098 C2099 1.377 . S
C2099 H2083 0.930 . S
C2099 C2098 1.377 . S
C2099 C2100 1.379 . S
C2100 H2084 0.931 . S
C2100 C2094 1.383 . S
C2100 C2099 1.379 . S
H2101 C2095 0.959 . S
H2102 C2095 0.961 . S
H2103 C2095 0.960 . S
H2104 C2096 0.930 . S
H2105 C2097 0.929 . S
H2106 C2114 0.929 . S
H2107 C2116 0.899 1_455 S
H2108 C2118 0.930 . S
H2109 C2121 0.929 . S
H2110 C2124 0.930 . S
H2111 C2126 0.960 . S
H2112 C2126 0.960 . S
H2113 C2126 0.960 . S
C2114 H2106 0.929 . S
C2114 C2115 1.377 . S
C2114 C2116 1.384 . S
C2115 C2114 1.377 . S
C2115 C2121 1.390 . S
C2116 H2107 0.899 1_655 S
C2116 C2114 1.384 . S
C2116 C2117 1.372 . S
C2117 C2116 1.372 . S
C2117 C2118 1.400 . S
C2117 C2122 1.490 . S
C2118 H2108 0.930 . S
C2118 C2117 1.400 . S
C2118 C2121 1.386 . S
H2119 C2135 0.930 . S
H2120 C2136 0.931 . S
C2121 H2109 0.929 . S
C2121 C2115 1.390 . S
C2121 C2118 1.386 . S
C2122 C2117 1.490 . S
C2122 C2124 1.395 1_655 S
C2122 C2125 1.403 . S
H2123 C2129 0.930 . S
C2124 H2110 0.930 . S
C2124 C2122 1.395 1_455 S
C2124 C2127 1.403 . S
C2125 C2122 1.403 . S
C2125 C2126 1.524 . S
C2125 C2129 1.400 . S
C2126 H2111 0.960 . S
C2126 H2112 0.960 . S
C2126 H2113 0.960 . S
C2126 C2125 1.524 . S
C2127 C2124 1.403 . S
C2127 C2128 1.392 1_455 S
C2127 C2131 1.495 . S
C2128 C2127 1.392 1_655 S
C2128 C2129 1.385 . S
C2128 C2130 1.478 . S
C2129 H2123 0.930 . S
C2129 C2125 1.400 . S
C2129 C2128 1.385 . S
C2130 C2128 1.478 . S
C2130 C2132 1.381 1_655 S
C2130 C2136 1.383 . S
C2131 C2127 1.495 . S
C2131 H2137 0.959 . S
C2131 H2138 0.961 . S
C2131 H2139 0.960 . S
C2132 C2130 1.381 1_455 S
C2132 C2133 1.394 . S
C2132 H2140 0.930 . S
C2133 C2132 1.394 . S
C2133 C2134 1.383 1_455 S
C2133 H2141 0.929 . S
C2134 C2133 1.383 1_655 S
C2134 C2135 1.377 . S
C2135 H2119 0.930 . S
C2135 C2134 1.377 . S
C2135 C2136 1.379 . S
C2136 H2120 0.931 . S
C2136 C2130 1.383 . S
C2136 C2135 1.379 . S
H2137 C2131 0.959 . S
H2138 C2131 0.961 . S
H2139 C2131 0.960 . S
H2140 C2132 0.930 . S
H2141 C2133 0.929 . S
H2142 C2150 0.929 . S
H2143 C2152 0.930 . S
H2144 C2154 0.930 . S
H2145 C2157 0.929 . S
H2146 C2160 0.930 . S
H2147 C2162 0.960 . S
H2148 C2162 0.960 . S
H2149 C2162 0.960 . S
C2150 H2142 0.929 . S
C2150 C2151 1.377 . S
C2150 C2152 1.384 . S
C2151 C2150 1.377 . S
C2151 C2157 1.390 . S
C2152 H2143 0.930 . S
C2152 C2150 1.384 . S
C2152 C2153 1.372 . S
C2153 C2152 1.372 . S
C2153 C2154 1.400 . S
C2153 C2158 1.490 . S
C2154 H2144 0.930 . S
C2154 C2153 1.400 . S
C2154 C2157 1.386 . S
H2155 C2171 0.930 . S
H2156 C2172 0.931 . S
C2157 H2145 0.929 . S
C2157 C2151 1.390 . S
C2157 C2154 1.386 . S
C2158 C2153 1.490 . S
C2158 C2160 1.395 . S
C2158 C2161 1.403 . S
H2159 C2165 0.930 . S
C2160 H2146 0.930 . S
C2160 C2158 1.395 . S
C2160 C2163 1.403 . S
C2161 C2158 1.403 . S
C2161 C2162 1.524 . S
C2161 C2165 1.400 . S
C2162 H2147 0.960 . S
C2162 H2148 0.960 . S
C2162 H2149 0.960 . S
C2162 C2161 1.524 . S
C2163 C2160 1.403 . S
C2163 C2164 1.392 . S
C2163 C2167 1.495 . S
C2164 C2163 1.392 . S
C2164 C2165 1.385 . S
C2164 C2166 1.478 . S
C2165 H2159 0.930 . S
C2165 C2161 1.400 . S
C2165 C2164 1.385 . S
C2166 C2164 1.478 . S
C2166 C2168 1.381 . S
C2166 C2172 1.383 . S
C2167 C2163 1.495 . S
C2167 H2173 0.959 . S
C2167 H2174 0.961 . S
C2167 H2175 0.960 . S
C2168 C2166 1.381 . S
C2168 C2169 1.394 . S
C2168 H2176 0.930 . S
C2169 C2168 1.394 . S
C2169 C2170 1.383 . S
C2169 H2177 0.929 . S
C2170 C2169 1.383 . S
C2170 C2171 1.377 . S
C2171 H2155 0.930 . S
C2171 C2170 1.377 . S
C2171 C2172 1.379 . S
C2172 H2156 0.931 . S
C2172 C2166 1.383 . S
C2172 C2171 1.379 . S
H2173 C2167 0.959 . S
H2174 C2167 0.961 . S
H2175 C2167 0.960 . S
H2176 C2168 0.930 . S
H2177 C2169 0.929 . S
H2178 C2186 0.929 . S
H2179 C2188 0.930 . S
H2180 C2190 0.930 . S
H2181 C2193 0.929 . S
H2182 C2196 0.930 1_545 S
H2183 C2198 0.960 . S
H2184 C2198 0.960 . S
H2185 C2198 0.960 . S
C2186 H2178 0.929 . S
C2186 C2187 1.377 1_545 S
C2186 C2188 1.384 . S
C2187 C2186 1.377 1_565 S
C2187 C2193 1.390 . S
C2188 H2179 0.930 . S
C2188 C2186 1.384 . S
C2188 C2189 1.372 1_545 S
C2189 C2188 1.372 1_565 S
C2189 C2190 1.400 . S
C2189 C2194 1.490 . S
C2190 H2180 0.930 . S
C2190 C2189 1.400 . S
C2190 C2193 1.386 . S
H2191 C2207 0.930 . S
H2192 C2208 0.931 . S
C2193 H2181 0.929 . S
C2193 C2187 1.390 . S
C2193 C2190 1.386 . S
C2194 C2189 1.490 . S
C2194 C2196 1.395 . S
C2194 C2197 1.403 . S
H2195 C2201 0.930 . S
C2196 H2182 0.930 1_565 S
C2196 C2194 1.395 . S
C2196 C2199 1.403 . S
C2197 C2194 1.403 . S
C2197 C2198 1.524 . S
C2197 C2201 1.400 . S
C2198 H2183 0.960 . S
C2198 H2184 0.960 . S
C2198 H2185 0.960 . S
C2198 C2197 1.524 . S
C2199 C2196 1.403 . S
C2199 C2200 1.392 . S
C2199 C2203 1.495 1_565 S
C2200 C2199 1.392 . S
C2200 C2201 1.385 . S
C2200 C2202 1.478 . S
C2201 H2195 0.930 . S
C2201 C2197 1.400 . S
C2201 C2200 1.385 . S
C2202 C2200 1.478 . S
C2202 C2204 1.381 . S
C2202 C2208 1.383 . S
C2203 C2199 1.495 1_545 S
C2203 H2209 0.959 . S
C2203 H2210 0.953 1_545 S
C2203 H2211 0.960 . S
C2204 C2202 1.381 . S
C2204 C2205 1.394 . S
C2204 H2212 0.910 1_565 S
C2205 C2204 1.394 . S
C2205 C2206 1.383 . S
C2205 H2213 0.929 . S
C2206 C2205 1.383 . S
C2206 C2207 1.377 . S
C2207 H2191 0.930 . S
C2207 C2206 1.377 . S
C2207 C2208 1.379 . S
C2208 H2192 0.931 . S
C2208 C2202 1.383 . S
C2208 C2207 1.379 . S
H2209 C2203 0.959 . S
H2210 C2203 0.953 1_565 S
H2211 C2203 0.960 . S
H2212 C2204 0.910 1_545 S
H2213 C2205 0.929 . S
H2214 C2222 0.929 . S
H2215 C2224 0.930 . S
H2216 C2226 0.930 . S
H2217 C2229 0.929 . S
H2218 C2232 0.930 . S
H2219 C2234 0.960 . S
H2220 C2234 0.960 . S
H2221 C2234 0.960 1_455 S
C2222 H2214 0.929 . S
C2222 C2223 1.377 . S
C2222 C2224 1.384 . S
C2223 C2222 1.377 . S
C2223 C2229 1.390 . S
C2224 H2215 0.930 . S
C2224 C2222 1.384 . S
C2224 C2225 1.372 . S
C2225 C2224 1.372 . S
C2225 C2226 1.400 . S
C2225 C2230 1.490 . S
C2226 H2216 0.930 . S
C2226 C2225 1.400 . S
C2226 C2229 1.386 . S
H2227 C2243 0.930 . S
H2228 C2244 0.931 . S
C2229 H2217 0.929 . S
C2229 C2223 1.390 . S
C2229 C2226 1.386 . S
C2230 C2225 1.490 . S
C2230 C2232 1.395 . S
C2230 C2233 1.403 . S
H2231 C2237 0.930 1_655 S
C2232 H2218 0.930 . S
C2232 C2230 1.395 . S
C2232 C2235 1.403 . S
C2233 C2230 1.403 . S
C2233 C2234 1.524 1_455 S
C2233 C2237 1.400 . S
C2234 H2219 0.960 . S
C2234 H2220 0.960 . S
C2234 H2221 0.960 1_655 S
C2234 C2233 1.524 1_655 S
C2235 C2232 1.403 . S
C2235 C2236 1.392 . S
C2235 C2239 1.495 . S
C2236 C2235 1.392 . S
C2236 C2237 1.385 . S
C2236 C2238 1.478 . S
C2237 H2231 0.930 1_455 S
C2237 C2233 1.400 . S
C2237 C2236 1.385 . S
C2238 C2236 1.478 . S
C2238 C2240 1.381 . S
C2238 C2244 1.383 . S
C2239 C2235 1.495 . S
C2239 H2245 0.959 . S
C2239 H2246 0.961 . S
C2239 H2247 0.960 . S
C2240 C2238 1.381 . S
C2240 C2241 1.394 . S
C2240 H2248 0.930 . S
C2241 C2240 1.394 . S
C2241 C2242 1.383 . S
C2241 H2249 0.929 1_455 S
C2242 C2241 1.383 . S
C2242 C2243 1.377 . S
C2243 H2227 0.930 . S
C2243 C2242 1.377 . S
C2243 C2244 1.379 . S
C2244 H2228 0.931 . S
C2244 C2238 1.383 . S
C2244 C2243 1.379 . S
H2245 C2239 0.959 . S
H2246 C2239 0.961 . S
H2247 C2239 0.960 . S
H2248 C2240 0.930 . S
H2249 C2241 0.929 1_655 S
H2250 C2258 0.929 . S
H2251 C2260 0.930 . S
H2252 C2262 0.930 . S
H2253 C2265 0.929 . S
H2254 C2268 0.930 . S
H2255 C2270 0.960 . S
H2256 C2270 0.960 . S
H2257 C2270 0.960 . S
C2258 H2250 0.929 . S
C2258 C2259 1.377 . S
C2258 C2260 1.384 . S
C2259 C2258 1.377 . S
C2259 C2265 1.390 . S
C2260 H2251 0.930 . S
C2260 C2258 1.384 . S
C2260 C2261 1.372 . S
C2261 C2260 1.372 . S
C2261 C2262 1.400 . S
C2261 C2266 1.490 . S
C2262 H2252 0.930 . S
C2262 C2261 1.400 . S
C2262 C2265 1.386 . S
H2263 C2279 0.930 . S
H2264 C2280 0.931 . S
C2265 H2253 0.929 . S
C2265 C2259 1.390 . S
C2265 C2262 1.386 . S
C2266 C2261 1.490 . S
C2266 C2268 1.395 . S
C2266 C2269 1.403 . S
H2267 C2273 0.930 . S
C2268 H2254 0.930 . S
C2268 C2266 1.395 . S
C2268 C2271 1.403 . S
C2269 C2266 1.403 . S
C2269 C2270 1.524 . S
C2269 C2273 1.400 . S
C2270 H2255 0.960 . S
C2270 H2256 0.960 . S
C2270 H2257 0.960 . S
C2270 C2269 1.524 . S
C2271 C2268 1.403 . S
C2271 C2272 1.392 . S
C2271 C2275 1.495 . S
C2272 C2271 1.392 . S
C2272 C2273 1.385 . S
C2272 C2274 1.478 . S
C2273 H2267 0.930 . S
C2273 C2269 1.400 . S
C2273 C2272 1.385 . S
C2274 C2272 1.478 . S
C2274 C2276 1.381 . S
C2274 C2280 1.383 . S
C2275 C2271 1.495 . S
C2275 H2281 0.959 . S
C2275 H2282 0.961 . S
C2275 H2283 0.960 . S
C2276 C2274 1.381 . S
C2276 C2277 1.394 . S
C2276 H2284 0.930 . S
C2277 C2276 1.394 . S
C2277 C2278 1.383 . S
C2277 H2285 0.929 . S
C2278 C2277 1.383 . S
C2278 C2279 1.377 . S
C2279 H2263 0.930 . S
C2279 C2278 1.377 . S
C2279 C2280 1.379 . S
C2280 H2264 0.931 . S
C2280 C2274 1.383 . S
C2280 C2279 1.379 . S
H2281 C2275 0.959 . S
H2282 C2275 0.961 . S
H2283 C2275 0.960 . S
H2284 C2276 0.930 . S
H2285 C2277 0.929 . S
H2286 C2294 0.929 . S
H2287 C2296 0.930 . S
H2288 C2298 0.930 . S
H2289 C2301 0.929 . S
H2290 C2304 0.930 . S
H2291 C2306 0.960 . S
H2292 C2306 0.960 . S
H2293 C2306 0.960 . S
C2294 H2286 0.929 . S
C2294 C2295 1.377 . S
C2294 C2296 1.384 . S
C2295 C2294 1.377 . S
C2295 C2301 1.390 . S
C2296 H2287 0.930 . S
C2296 C2294 1.384 . S
C2296 C2297 1.372 . S
C2297 C2296 1.372 . S
C2297 C2298 1.400 . S
C2297 C2302 1.490 . S
C2298 H2288 0.930 . S
C2298 C2297 1.400 . S
C2298 C2301 1.386 . S
H2299 C2315 0.930 . S
H2300 C2316 0.931 . S
C2301 H2289 0.929 . S
C2301 C2295 1.390 . S
C2301 C2298 1.386 . S
C2302 C2297 1.490 . S
C2302 C2304 1.395 . S
C2302 C2305 1.403 . S
H2303 C2309 0.930 . S
C2304 H2290 0.930 . S
C2304 C2302 1.395 . S
C2304 C2307 1.403 . S
C2305 C2302 1.403 . S
C2305 C2306 1.524 . S
C2305 C2309 1.400 . S
C2306 H2291 0.960 . S
C2306 H2292 0.960 . S
C2306 H2293 0.960 . S
C2306 C2305 1.524 . S
C2307 C2304 1.403 . S
C2307 C2308 1.392 . S
C2307 C2311 1.495 . S
C2308 C2307 1.392 . S
C2308 C2309 1.385 . S
C2308 C2310 1.478 . S
C2309 H2303 0.930 . S
C2309 C2305 1.400 . S
C2309 C2308 1.385 . S
C2310 C2308 1.478 . S
C2310 C2312 1.381 . S
C2310 C2316 1.383 . S
C2311 C2307 1.495 . S
C2311 H2317 0.959 . S
C2311 H2318 0.961 . S
C2311 H2319 0.960 . S
C2312 C2310 1.381 . S
C2312 C2313 1.394 . S
C2312 H2320 0.930 . S
C2313 C2312 1.394 . S
C2313 C2314 1.383 . S
C2313 H2321 0.929 . S
C2314 C2313 1.383 . S
C2314 C2315 1.377 . S
C2315 H2299 0.930 . S
C2315 C2314 1.377 . S
C2315 C2316 1.379 . S
C2316 H2300 0.931 . S
C2316 C2310 1.383 . S
C2316 C2315 1.379 . S
H2317 C2311 0.959 . S
H2318 C2311 0.961 . S
H2319 C2311 0.960 . S
H2320 C2312 0.930 . S
H2321 C2313 0.929 . S
H2322 C2330 0.929 . S
H2323 C2332 0.930 . S
H2324 C2334 0.930 . S
H2325 C2337 0.929 . S
H2326 C2340 0.930 . S
H2327 C2342 0.960 . S
H2328 C2342 0.960 . S
H2329 C2342 0.960 . S
C2330 H2322 0.929 . S
C2330 C2331 1.377 . S
C2330 C2332 1.384 . S
C2331 C2330 1.377 . S
C2331 C2337 1.390 . S
C2332 H2323 0.930 . S
C2332 C2330 1.384 . S
C2332 C2333 1.372 . S
C2333 C2332 1.372 . S
C2333 C2334 1.400 . S
C2333 C2338 1.490 . S
C2334 H2324 0.930 . S
C2334 C2333 1.400 . S
C2334 C2337 1.386 . S
H2335 C2351 0.930 . S
H2336 C2352 0.931 . S
C2337 H2325 0.929 . S
C2337 C2331 1.390 . S
C2337 C2334 1.386 . S
C2338 C2333 1.490 . S
C2338 C2340 1.395 . S
C2338 C2341 1.403 . S
H2339 C2345 0.930 . S
C2340 H2326 0.930 . S
C2340 C2338 1.395 . S
C2340 C2343 1.403 . S
C2341 C2338 1.403 . S
C2341 C2342 1.524 . S
C2341 C2345 1.400 . S
C2342 H2327 0.960 . S
C2342 H2328 0.960 . S
C2342 H2329 0.960 . S
C2342 C2341 1.524 . S
C2343 C2340 1.403 . S
C2343 C2344 1.392 . S
C2343 C2347 1.495 . S
C2344 C2343 1.392 . S
C2344 C2345 1.385 . S
C2344 C2346 1.478 . S
C2345 H2339 0.930 . S
C2345 C2341 1.400 . S
C2345 C2344 1.385 . S
C2346 C2344 1.478 . S
C2346 C2348 1.381 . S
C2346 C2352 1.383 . S
C2347 C2343 1.495 . S
C2347 H2353 0.959 . S
C2347 H2354 0.961 . S
C2347 H2355 0.960 . S
C2348 C2346 1.381 . S
C2348 C2349 1.394 . S
C2348 H2356 0.930 . S
C2349 C2348 1.394 . S
C2349 C2350 1.383 . S
C2349 H2357 0.929 . S
C2350 C2349 1.383 . S
C2350 C2351 1.377 . S
C2351 H2335 0.930 . S
C2351 C2350 1.377 . S
C2351 C2352 1.379 . S
C2352 H2336 0.931 . S
C2352 C2346 1.383 . S
C2352 C2351 1.379 . S
H2353 C2347 0.959 . S
H2354 C2347 0.961 . S
H2355 C2347 0.960 . S
H2356 C2348 0.930 . S
H2357 C2349 0.929 . S
C1071 C33 2.391 . S
C1090 C210 2.392 . S
C1107 C92 2.481 . S
C1126 C269 2.474 . S
C1143 C298 2.476 . S
C1162 C151 2.423 . S
C1179 C387 2.390 . S
C1198 C564 2.391 . S
C1215 C446 2.485 . S
C1234 C623 2.474 . S
C1251 C652 2.476 . S
C1270 C505 2.442 . S
C1287 C918 2.386 . S
C1306 C741 2.384 . S
C1323 C977 2.478 . S
C1342 C800 2.472 1_545 S
C1359 C1006 2.474 . S
C1378 C859 2.414 1_655 S
C1395 C5 1.619 . S
C1414 C536 1.602 . S
C1431 C64 1.848 . S
C1450 C595 1.864 . S
C1467 C701 1.770 . S
C1486 C123 1.773 . S
C1503 C182 1.625 . S
C1522 C713 1.637 . S
C1539 C241 1.853 . S
C1558 C772 1.823 . S
C1575 C347 1.764 . S
C1594 C831 1.752 . S
C1611 C359 1.622 . S
C1630 C890 1.611 . S
C1647 C418 1.840 . S
C1666 C949 1.844 . S
C1683 C1055 1.770 . S
C1702 C477 1.767 . S
C1719 C52 0.055 . S
C1738 C239 0.262 . S
C1755 C111 0.522 . S
C1774 C328 0.518 . S
C1791 C170 0.107 . S
C1810 C180 0.198 . S
C1827 C229 0.234 . S
C1846 C62 0.195 . S
C1863 C121 0.301 . S
C1882 C288 0.298 . S
C1899 C300 0.150 . S
C1918 C3 0.182 . S
C1935 C406 0.085 . S
C1954 C593 0.221 . S
C1971 C682 0.524 . S
C1990 C465 0.561 . S
C2007 C534 0.168 . S
C2026 C524 0.080 . S
C2043 C416 0.195 . S
C2062 C583 0.288 . S
C2079 C642 0.307 . S
C2098 C475 0.352 . S
C2115 C654 0.135 . S
C2134 C357 0.161 . S
C2151 C947 0.168 . S
C2170 C760 0.162 . S
C2187 C1036 0.523 . S
C2206 C819 0.567 . S
C2223 C878 0.118 . S
C2242 C888 0.126 . S
C2259 C770 0.207 . S
C2278 C937 0.184 . S
C2295 C829 0.309 . S
C2314 C996 0.290 . S
C2331 C711 0.135 . S
C2350 C1008 0.153 . S
