# Generated by pormake.
# Topology qtz-a, (4)-cn, num edge types: 1
# Building blocks:
#     Node 0, Type 0, BuildingBlock: AZAVOO_clean_sbu_0, # of connection points: 4
#     Node 1, Type 0, BuildingBlock: AZAVOO_clean_sbu_0, # of connection points: 4
#     Node 2, Type 0, BuildingBlock: AZAVOO_clean_sbu_0, # of connection points: 4
#     Node 3, Type 0, BuildingBlock: AZAVOO_clean_sbu_0, # of connection points: 4
#     Node 4, Type 0, BuildingBlock: AZAVOO_clean_sbu_0, # of connection points: 4
#     Node 5, Type 0, BuildingBlock: AZAVOO_clean_sbu_0, # of connection points: 4
#     Node 6, Type 0, BuildingBlock: AZAVOO_clean_sbu_0, # of connection points: 4
#     Node 7, Type 0, BuildingBlock: AZAVOO_clean_sbu_0, # of connection points: 4
#     Node 8, Type 0, BuildingBlock: AZAVOO_clean_sbu_0, # of connection points: 4
#     Node 9, Type 0, BuildingBlock: AZAVOO_clean_sbu_0, # of connection points: 4
#     Node 10, Type 0, BuildingBlock: AZAVOO_clean_sbu_0, # of connection points: 4
#     Node 11, Type 0, BuildingBlock: AZAVOO_clean_sbu_0, # of connection points: 4
#     Edge 12, Type (0, 0), BuildingBlock: XIVTED_clean_linker_0, # of connection points: 2
#     Edge 13, Type (0, 0), BuildingBlock: XIVTED_clean_linker_0, # of connection points: 2
#     Edge 14, Type (0, 0), BuildingBlock: XIVTED_clean_linker_0, # of connection points: 2
#     Edge 15, Type (0, 0), BuildingBlock: XIVTED_clean_linker_0, # of connection points: 2
#     Edge 16, Type (0, 0), BuildingBlock: XIVTED_clean_linker_0, # of connection points: 2
#     Edge 17, Type (0, 0), BuildingBlock: XIVTED_clean_linker_0, # of connection points: 2
#     Edge 18, Type (0, 0), BuildingBlock: XIVTED_clean_linker_0, # of connection points: 2
#     Edge 19, Type (0, 0), BuildingBlock: XIVTED_clean_linker_0, # of connection points: 2
#     Edge 20, Type (0, 0), BuildingBlock: XIVTED_clean_linker_0, # of connection points: 2
#     Edge 21, Type (0, 0), BuildingBlock: XIVTED_clean_linker_0, # of connection points: 2
#     Edge 22, Type (0, 0), BuildingBlock: XIVTED_clean_linker_0, # of connection points: 2
#     Edge 23, Type (0, 0), BuildingBlock: XIVTED_clean_linker_0, # of connection points: 2
#     Edge 24, Type (0, 0), BuildingBlock: XIVTED_clean_linker_0, # of connection points: 2
#     Edge 25, Type (0, 0), BuildingBlock: XIVTED_clean_linker_0, # of connection points: 2
#     Edge 26, Type (0, 0), BuildingBlock: XIVTED_clean_linker_0, # of connection points: 2
#     Edge 27, Type (0, 0), BuildingBlock: XIVTED_clean_linker_0, # of connection points: 2
#     Edge 28, Type (0, 0), BuildingBlock: XIVTED_clean_linker_0, # of connection points: 2
#     Edge 29, Type (0, 0), BuildingBlock: XIVTED_clean_linker_0, # of connection points: 2
#     Edge 30, Type (0, 0), BuildingBlock: XIVTED_clean_linker_0, # of connection points: 2
#     Edge 31, Type (0, 0), BuildingBlock: XIVTED_clean_linker_0, # of connection points: 2
#     Edge 32, Type (0, 0), BuildingBlock: XIVTED_clean_linker_0, # of connection points: 2
#     Edge 33, Type (0, 0), BuildingBlock: XIVTED_clean_linker_0, # of connection points: 2
#     Edge 34, Type (0, 0), BuildingBlock: XIVTED_clean_linker_0, # of connection points: 2
#     Edge 35, Type (0, 0), BuildingBlock: XIVTED_clean_linker_0, # of connection points: 2
# Relax obj value: 0.795
# Max RMSD: 0.293
# Mean RMSD: 0.293
data_MOF--net-qtz-a--node1-AZAVOO_clean_sbu_0--edge1-XIVTED_clean_linker_0
_symmetry_space_group_name_H-M    P1
_symmetry_Int_Tables_number       1
_symmetry_cell_setting            triclinic
loop_
_symmetry_equiv_pos_as_xyz
'x, y, z'
_cell_length_a     38.545478
_cell_length_b     38.499604
_cell_length_c     50.995246
_cell_angle_alpha  89.971465
_cell_angle_beta   90.097631
_cell_angle_gamma 95.6359
loop_
_atom_site_label
_atom_site_type_symbol
_atom_site_fract_x
_atom_site_fract_y
_atom_site_fract_z
_atom_type_partial_charge
Mg0 Mg 0.44693 0.1749 0.06411 0.0
O1 O 0.50001 0.18858 0.04294 0.0
O2 O 0.48331 0.13981 0.02356 0.0
Mg3 Mg 0.44563 0.09428 0.01957 0.0
C4 C 0.5051 0.16603 0.02579 0.0
C5 C 0.45992 0.25275 0.0914 0.0
O6 O 0.45981 0.28672 0.08891 0.0
O7 O 0.41349 0.18405 0.02728 0.0
O8 O 0.41075 0.1338 0.00442 0.0
O9 O 0.47261 0.13837 0.09377 0.0
O10 O 0.44508 0.11933 0.05863 0.0
C11 C 0.40233 0.16472 0.00798 0.0
C12 C 0.46201 0.11222 0.07901 0.0
O13 O 0.4496 0.23341 0.07224 0.0
Mg14 Mg 0.30847 0.45804 0.44442 0.0
O15 O 0.29578 0.50859 0.42398 0.0
O16 O 0.3237 0.50889 0.38565 0.0
Mg17 Mg 0.3577 0.46378 0.38328 0.0
C18 C 0.30381 0.52259 0.40183 0.0
C19 C 0.26386 0.48751 0.48735 0.0
O20 O 0.28429 0.51563 0.4811 0.0
O21 O 0.27518 0.42167 0.41696 0.0
O22 O 0.31145 0.42165 0.38293 0.0
O23 O 0.35332 0.48711 0.4649 0.0
O24 O 0.35726 0.46169 0.42636 0.0
C25 C 0.28396 0.40927 0.395 0.0
C26 C 0.37217 0.48027 0.44494 0.0
O27 O 0.26448 0.46037 0.47328 0.0
Mg28 Mg 0.98288 0.30975 0.90472 0.0
O29 O 0.9533 0.33506 0.87233 0.0
O30 O 0.98724 0.38024 0.85602 0.0
Mg31 Mg 0.03782 0.38551 0.88004 0.0
C32 C 0.95882 0.36026 0.85628 0.0
C33 C 0.93048 0.24304 0.91785 0.0
O34 O 0.94381 0.24542 0.94158 0.0
O35 O 0.01843 0.28552 0.87506 0.0
O36 O 0.05208 0.33382 0.86347 0.0
O37 O 0.96096 0.3461 0.93305 0.0
O38 O 0.01173 0.35715 0.91318 0.0
C39 C 0.04405 0.30091 0.86241 0.0
C40 C 0.98802 0.36775 0.92804 0.0
O41 O 0.94188 0.26438 0.90024 0.0
Mg42 Mg 0.5429 0.81164 0.0641 0.0
O43 O 0.49934 0.81378 0.03355 0.0
O44 O 0.50784 0.86565 0.01366 0.0
Mg45 Mg 0.5549 0.8973 0.03186 0.0
C46 C 0.4909 0.83576 0.01659 0.0
C47 C 0.51685 0.7329 0.08315 0.0
O48 O 0.5087 0.69961 0.07816 0.0
O49 O 0.58479 0.80484 0.03289 0.0
O50 O 0.59064 0.85871 0.0159 0.0
O51 O 0.50815 0.83703 0.09274 0.0
O52 O 0.54774 0.86615 0.0679 0.0
C53 C 0.59908 0.82755 0.01701 0.0
C54 C 0.52289 0.86667 0.08449 0.0
O55 O 0.52904 0.75265 0.06471 0.0
Mg56 Mg 0.69846 0.52618 0.44877 0.0
O57 O 0.69905 0.47404 0.42524 0.0
O58 O 0.66312 0.47578 0.39055 0.0
Mg59 Mg 0.65492 0.53247 0.38539 0.0
C60 C 0.68291 0.45962 0.40543 0.0
C61 C 0.75435 0.53097 0.4926 0.0
O62 O 0.75461 0.56403 0.48611 0.0
O63 O 0.7401 0.5595 0.42454 0.0
O64 O 0.71285 0.53481 0.39189 0.0
O65 O 0.64823 0.50474 0.46546 0.0
O66 O 0.65112 0.5365 0.42917 0.0
C67 C 0.72876 0.56219 0.40133 0.0
C68 C 0.63236 0.51803 0.44606 0.0
O69 O 0.73698 0.50826 0.47851 0.0
Mg70 Mg -0.00237 0.68317 0.91243 0.0
O71 O 0.03348 0.66218 0.88175 0.0
O72 O 0.00635 0.61384 0.86408 0.0
Mg73 Mg 0.95349 0.60278 0.88464 0.0
C74 C 0.03249 0.63677 0.86576 0.0
C75 C 0.06598 0.7296 0.91598 0.0
O76 O 0.07478 0.69907 0.92361 0.0
O77 O 0.96227 0.70343 0.88044 0.0
O78 O 0.93524 0.65222 0.86719 0.0
O79 O 0.02031 0.6481 0.94199 0.0
O80 O 0.97267 0.63344 0.91887 0.0
C81 C 0.93956 0.68547 0.86643 0.0
C82 C -0.00436 0.62461 0.93514 0.0
O83 O 0.03412 0.73296 0.91126 0.0
Mg84 Mg 0.80016 0.54211 0.69606 0.0
O85 O 0.81254 0.50656 0.73003 0.0
O86 O 0.86792 0.52195 0.74167 0.0
Mg87 Mg 0.89059 0.56753 0.71612 0.0
C88 C 0.8391 0.50293 0.74428 0.0
C89 C 0.72509 0.50763 0.68156 0.0
O90 O 0.69328 0.49348 0.68618 0.0
O91 O 0.79474 0.58841 0.72432 0.0
O92 O 0.85155 0.60187 0.73266 0.0
O93 O 0.8235 0.50324 0.66992 0.0
O94 O 0.85265 0.55079 0.68589 0.0
C95 C 0.81975 0.6078 0.73495 0.0
C96 C 0.85288 0.52197 0.6734 0.0
O97 O 0.74306 0.52156 0.70042 0.0
Mg98 Mg 0.30143 0.97889 0.86347 0.0
O99 O 0.31982 0.94644 0.89758 0.0
O100 O 0.36556 0.97626 0.91677 0.0
Mg101 Mg 0.37765 0.02734 0.89417 0.0
C102 C 0.34344 0.94945 0.91513 0.0
C103 C 0.25697 0.90908 0.86094 0.0
O104 O 0.28869 0.90018 0.85751 0.0
O105 O 0.27651 0.01653 0.89139 0.0
O106 O 0.32583 0.04491 0.90689 0.0
O107 O 0.34015 0.9549 0.83779 0.0
O108 O 0.35123 0.00461 0.85916 0.0
C109 C 0.29266 0.04024 0.9056 0.0
C110 C 0.36223 0.98081 0.84466 0.0
O111 O 0.25244 0.94123 0.86277 0.0
Mg112 Mg 0.4697 0.30643 0.3157 0.0
O113 O 0.51711 0.29581 0.34052 0.0
O114 O 0.5118 0.32347 0.37849 0.0
Mg115 Mg 0.46459 0.35466 0.37718 0.0
C116 C 0.528 0.30402 0.36353 0.0
C117 C 0.45908 0.24283 0.27632 0.0
O118 O 0.42646 0.24215 0.2839 0.0
O119 O 0.43088 0.27077 0.3401 0.0
O120 O 0.42635 0.30566 0.37465 0.0
O121 O 0.49971 0.35386 0.29884 0.0
O122 O 0.46656 0.35464 0.33411 0.0
C123 C 0.4165 0.278 0.36175 0.0
C124 C 0.48779 0.37118 0.31798 0.0
O125 O 0.48199 0.26381 0.28743 0.0
Mg126 Mg 0.15574 0.44665 0.70863 0.0
O127 O 0.16303 0.49202 0.73842 0.0
O128 O 0.12088 0.47891 0.76798 0.0
Mg129 Mg 0.08566 0.43052 0.75641 0.0
C130 C 0.14735 0.49827 0.7597 0.0
C131 C 0.21599 0.43722 0.67539 0.0
O132 O 0.20156 0.40556 0.6804 0.0
O133 O 0.17781 0.4079 0.73669 0.0
O134 O 0.13106 0.3976 0.76253 0.0
O135 O 0.12045 0.47639 0.68472 0.0
O136 O 0.10226 0.43921 0.71584 0.0
C137 C 0.16175 0.39173 0.7556 0.0
C138 C 0.09492 0.46144 0.69834 0.0
O139 O 0.20755 0.462 0.68967 0.0
Mg140 Mg 0.68044 0.01059 0.86109 0.0
O141 O 0.65593 0.04378 0.89214 0.0
O142 O 0.60793 0.01263 0.90693 0.0
Mg143 Mg 0.60582 0.95769 0.89014 0.0
C144 C 0.6285 0.04064 0.90618 0.0
C145 C 0.75701 0.04583 0.86504 0.0
O146 O 0.76374 0.01323 0.86773 0.0
O147 O 0.70614 0.97941 0.89283 0.0
O148 O 0.65821 0.94899 0.90855 0.0
O149 O 0.64145 0.02789 0.83225 0.0
O150 O 0.63347 0.97944 0.85554 0.0
C151 C 0.69111 0.9571 0.90863 0.0
C152 C 0.62108 0.00091 0.83965 0.0
O153 O 0.72594 0.05257 0.86072 0.0
Mg154 Mg 0.52242 0.69789 0.31591 0.0
O155 O 0.4729 0.69918 0.34246 0.0
O156 O 0.47975 0.66556 0.37781 0.0
Mg157 Mg 0.53712 0.65862 0.37977 0.0
C158 C 0.46119 0.68377 0.36346 0.0
C159 C 0.52406 0.75384 0.27259 0.0
O160 O 0.55691 0.75629 0.27988 0.0
O161 O 0.55722 0.7416 0.33663 0.0
O162 O 0.53901 0.71646 0.37213 0.0
O163 O 0.49943 0.64689 0.30207 0.0
O164 O 0.5356 0.65176 0.336 0.0
C165 C 0.56436 0.73139 0.35946 0.0
C166 C 0.51501 0.6321 0.32093 0.0
O167 O 0.50192 0.73464 0.28593 0.0
H168 H 0.49569 0.17537 0.97485 0.0
H169 H 0.66619 0.08356 0.94128 0.0
H170 H 0.57468 0.16084 0.03254 0.0
H171 H 0.56687 0.06725 0.90194 0.0
H172 H 0.64347 0.12995 0.96786 0.0
H173 H 0.53357 0.15628 0.94074 0.0
C174 C 0.52195 0.17002 0.98002 0.0
C175 C 0.53257 0.17022 0.00626 0.0
C176 C 0.62704 0.11658 0.95302 0.0
C177 C 0.57528 0.14662 0.96772 0.0
C178 C 0.63989 0.09024 0.93798 0.0
C179 C 0.61792 0.07131 0.91998 0.0
C180 C 0.59246 0.12421 0.94937 0.0
C181 C 0.58424 0.08087 0.91609 0.0
C182 C 0.54333 0.15858 0.96066 0.0
C183 C 0.56611 0.16164 0.01233 0.0
N184 N 0.57248 0.10654 0.93076 0.0
N185 N 0.58621 0.14941 -0.00684 0.0
H186 H 0.40561 0.68306 0.32978 0.0
H187 H 0.30382 0.57428 0.43851 0.0
H188 H 0.43162 0.68049 0.41196 0.0
H189 H 0.29525 0.55603 0.35527 0.0
H190 H 0.32761 0.63425 0.42978 0.0
H191 H 0.3459 0.6595 0.34036 0.0
C192 C 0.39841 0.6789 0.35015 0.0
C193 C 0.42377 0.68251 0.36996 0.0
C194 C 0.31913 0.6176 0.4134 0.0
C195 C 0.35595 0.65527 0.38211 0.0
C196 C 0.30516 0.58335 0.41838 0.0
C197 C 0.29903 0.55977 0.3975 0.0
C198 C 0.32697 0.62793 0.38745 0.0
C199 C 0.30087 0.57315 0.3719 0.0
C200 C 0.36435 0.66532 0.35618 0.0
C201 C 0.413 0.677 0.39602 0.0
N202 N 0.31578 0.60607 0.36753 0.0
N203 N 0.38011 0.66285 0.4013 0.0
H204 H 0.83501 0.50107 0.79763 0.0
H205 H 0.96018 0.36578 0.80316 0.0
H206 H 0.84444 0.43642 0.72962 0.0
H207 H 0.8935 0.37382 0.87016 0.0
H208 H 0.91597 0.38912 0.77538 0.0
H209 H 0.85172 0.45335 0.82548 0.0
C210 C 0.83952 0.47636 0.78874 0.0
C211 C 0.83878 0.47245 0.76148 0.0
C212 C 0.91061 0.38495 0.79605 0.0
C213 C 0.85914 0.41883 0.79271 0.0
C214 C 0.93589 0.37194 0.81184 0.0
C215 C 0.93041 0.36844 0.83885 0.0
C216 C 0.88048 0.39589 0.80763 0.0
C217 C 0.89855 0.37648 0.84934 0.0
C218 C 0.84897 0.44918 0.80454 0.0
C219 C 0.84502 0.44023 0.75066 0.0
N220 N 0.87508 0.39091 0.83381 0.0
N221 N 0.85603 0.41489 0.76625 0.0
H222 H 0.42746 0.83752 0.03836 0.0
H223 H 0.34618 0.88179 0.90048 0.0
H224 H 0.47849 0.82373 0.96456 0.0
H225 H 0.35288 0.94937 0.96803 0.0
H226 H 0.36995 0.83612 0.92696 0.0
H227 H 0.37532 0.85187 0.01458 0.0
C228 C 0.42695 0.83574 0.01715 0.0
C229 C 0.45715 0.82992 0.00324 0.0
C230 C 0.36488 0.86049 0.93612 0.0
C231 C 0.39815 0.84614 0.9762 0.0
C232 C 0.35139 0.88647 0.92113 0.0
C233 C 0.3483 0.91943 0.93213 0.0
C234 C 0.37431 0.86747 0.96231 0.0
C235 C 0.35547 0.9244 0.95885 0.0
C236 C 0.39735 0.84405 0.00366 0.0
C237 C 0.45562 0.82837 0.97584 0.0
N238 N 0.36848 0.89877 0.97302 0.0
N239 N 0.42668 0.83704 0.9631 0.0
H240 H 0.68077 0.40675 0.44145 0.0
H241 H 0.58356 0.29923 0.33088 0.0
H242 H 0.68573 0.4271 0.35837 0.0
H243 H 0.55555 0.29875 0.4127 0.0
H244 H 0.64316 0.32067 0.34273 0.0
H245 H 0.65955 0.34586 0.43215 0.0
C246 C 0.67886 0.39801 0.42126 0.0
C247 C 0.6837 0.42202 0.40061 0.0
C248 C 0.62436 0.31442 0.35821 0.0
C249 C 0.65921 0.35303 0.38991 0.0
C250 C 0.59027 0.30194 0.35146 0.0
C251 C 0.56426 0.29894 0.3708 0.0
C252 C 0.63202 0.32409 0.38433 0.0
C253 C 0.57464 0.3022 0.39712 0.0
C254 C 0.66668 0.36331 0.41595 0.0
C255 C 0.68115 0.40945 0.37483 0.0
N256 N 0.60753 0.31573 0.40312 0.0
N257 N 0.66827 0.37598 0.37018 0.0
H258 H 0.14481 0.56353 0.74022 0.0
H259 H 0.09564 0.62144 0.88352 0.0
H260 H 0.16512 0.50773 0.81092 0.0
H261 H 0.03943 0.64052 0.81274 0.0
H262 H 0.14271 0.60091 0.85688 0.0
H263 H 0.13048 0.61315 0.76689 0.0
C264 C 0.14812 0.56251 0.7613 0.0
C265 C 0.15552 0.53149 0.77355 0.0
C266 C 0.12059 0.61067 0.8472 0.0
C267 C 0.13863 0.58741 0.80395 0.0
C268 C 0.09381 0.62228 0.86233 0.0
C269 C 0.06361 0.63193 0.85013 0.0
C270 C 0.11706 0.60919 0.81978 0.0
C271 C 0.0622 0.63266 0.82273 0.0
C272 C 0.13957 0.59063 0.7765 0.0
C273 C 0.15908 0.53119 0.80089 0.0
N274 N 0.08842 0.62103 0.80842 0.0
N275 N 0.14986 0.55848 0.81527 0.0
H276 H 0.40064 0.17699 0.95553 0.0
H277 H 0.27019 0.03978 0.95607 0.0
H278 H 0.33674 0.16837 0.02479 0.0
H279 H 0.27864 0.10232 0.88606 0.0
H280 H 0.28143 0.09255 0.98233 0.0
H281 H 0.34912 0.16027 0.92885 0.0
C282 C 0.37533 0.17362 0.96493 0.0
C283 C 0.37274 0.17395 -0.0077 0.0
C284 C 0.27894 0.09513 0.96127 0.0
C285 C 0.31423 0.15252 0.96226 0.0
C286 C 0.272 0.06489 0.94627 0.0
C287 C 0.27437 0.06677 0.91891 0.0
C288 C 0.28944 0.12687 0.94858 0.0
C289 C 0.27722 0.09991 0.90721 0.0
C290 C 0.34586 0.16377 0.94975 0.0
C291 C 0.33957 0.16846 0.00366 0.0
N292 N 0.28655 0.12865 0.92201 0.0
N293 N 0.31173 0.1564 0.98871 0.0
H294 H 0.38632 0.26566 0.40981 0.0
H295 H 0.27626 0.38041 0.34604 0.0
H296 H 0.36451 0.25742 0.32711 0.0
H297 H 0.26384 0.35525 0.428 0.0
H298 H 0.2895 0.32102 0.3375 0.0
H299 H 0.32686 0.27908 0.41745 0.0
C300 C 0.36839 0.26468 0.39337 0.0
C301 C 0.38086 0.26225 0.36766 0.0
C302 C 0.28246 0.32781 0.35727 0.0
C303 C 0.31325 0.27936 0.37602 0.0
C304 C 0.2745 0.36184 0.36207 0.0
C305 C 0.27051 0.37322 0.38791 0.0
C306 C 0.28758 0.30565 0.3786 0.0
C307 C 0.26792 0.34788 0.40783 0.0
C308 C 0.33435 0.27283 0.39768 0.0
C309 C 0.35633 0.26049 0.34721 0.0
N310 N 0.27818 0.31568 0.403 0.0
N311 N 0.32411 0.27084 0.35162 0.0
H312 H 0.19107 0.38548 0.80363 0.0
H313 H 0.03625 0.28043 0.8116 0.0
H314 H 0.15754 0.3272 0.73469 0.0
H315 H 0.10613 0.28088 0.87749 0.0
H316 H 0.08591 0.28071 0.78206 0.0
H317 H 0.17347 0.33457 0.83043 0.0
C318 C 0.18207 0.36117 0.79398 0.0
C319 C 0.17473 0.36067 0.7671 0.0
C320 C 0.09047 0.27882 0.80296 0.0
C321 C 0.15208 0.30323 0.79763 0.0
C322 C 0.06191 0.27836 0.81982 0.0
C323 C 0.06736 0.28119 0.8469 0.0
C324 C 0.12443 0.28373 0.81343 0.0
C325 C 0.10112 0.27909 0.8566 0.0
C326 C 0.17151 0.33204 0.80931 0.0
C327 C 0.16286 0.32864 0.75555 0.0
N328 N 0.12866 0.28192 0.8399 0.0
N329 N 0.1501 0.30158 0.77098 0.0
H330 H 0.60284 0.81128 0.96536 0.0
H331 H 0.70745 0.96457 0.96032 0.0
H332 H 0.66535 0.83348 0.03443 0.0
H333 H 0.71598 0.89733 0.89378 0.0
H334 H 0.70517 0.91381 0.98911 0.0
H335 H 0.65227 0.83342 0.93828 0.0
C336 C 0.62771 0.81878 0.97472 0.0
C337 C 0.63014 0.82084 0.00207 0.0
C338 C 0.70949 0.91019 0.96834 0.0
C339 C 0.68591 0.84826 0.9715 0.0
C340 C 0.71114 0.93934 0.95194 0.0
C341 C 0.7113 0.93485 0.92472 0.0
C342 C 0.70633 0.87664 0.95714 0.0
C343 C 0.71545 0.90158 0.91477 0.0
C344 C 0.65595 0.83172 0.9593 0.0
C345 C 0.66263 0.83164 0.01332 0.0
N346 N 0.71103 0.87335 0.93085 0.0
N347 N 0.6889 0.84649 -0.00195 0.0
H348 H 0.59876 0.72713 0.40532 0.0
H349 H 0.70866 0.57965 0.35254 0.0
H350 H 0.60549 0.7018 0.32327 0.0
H351 H 0.7186 0.62009 0.43136 0.0
H352 H 0.67665 0.62882 0.34023 0.0
H353 H 0.64803 0.69343 0.41425 0.0
C354 C 0.61121 0.71506 0.38912 0.0
C355 C 0.59812 0.7172 0.36359 0.0
C356 C 0.68638 0.62739 0.3601 0.0
C357 C 0.65382 0.67778 0.37366 0.0
C358 C 0.70469 0.59931 0.36713 0.0
C359 C 0.71592 0.59551 0.39308 0.0
C360 C 0.67884 0.65172 0.37924 0.0
C361 C 0.71026 0.62183 0.41117 0.0
C362 C 0.63926 0.69578 0.39421 0.0
C363 C 0.61495 0.70098 0.34324 0.0
N364 N 0.69156 0.6485 0.40401 0.0
N365 N 0.64156 0.68141 0.3488 0.0
H366 H 0.95189 0.71209 0.81752 0.0
H367 H 0.78931 0.60673 0.78311 0.0
H368 H 0.87195 0.69231 0.87594 0.0
H369 H 0.84058 0.67552 0.72556 0.0
H370 H 0.81003 0.64783 0.81751 0.0
H371 H 0.90682 0.7112 0.78368 0.0
C372 C 0.92473 0.70959 0.82334 0.0
C373 C 0.91543 0.7022 0.8494 0.0
C374 C 0.8154 0.65489 0.79725 0.0
C375 C 0.86387 0.69914 0.81089 0.0
C376 C 0.80309 0.63153 0.77757 0.0
C377 C 0.81367 0.63767 0.7516 0.0
C378 C 0.83913 0.68379 0.79075 0.0
C379 C 0.83221 0.66985 0.7455 0.0
C380 C 0.8989 0.70871 0.80401 0.0
C381 C 0.87995 0.6981 0.85593 0.0
N382 N 0.84553 0.69116 0.76501 0.0
N383 N 0.8554 0.69544 0.83671 0.0
H384 H 0.54033 0.91428 0.12316 0.0
H385 H 0.43026 0.05511 0.05505 0.0
H386 H 0.4742 0.89502 0.05557 0.0
H387 H 0.50765 0.08454 0.11432 0.0
H388 H 0.44184 -0.00494 0.05937 0.0
H389 H 0.52359 0.97445 0.12517 0.0
C390 C 0.52164 0.92258 0.10916 0.0
C391 C 0.50806 0.89976 0.08944 0.0
C392 C 0.45646 0.01442 0.07152 0.0
C393 C 0.48981 0.96833 0.09102 0.0
C394 C 0.45014 0.04909 0.06886 0.0
C395 C 0.46878 0.07538 0.08376 0.0
C396 C 0.48145 0.00524 0.08952 0.0
C397 C 0.49299 0.06524 0.10218 0.0
C398 C 0.51242 0.9569 0.11014 0.0
C399 C 0.48473 0.91173 0.07132 0.0
N400 N 0.4988 0.03087 0.10447 0.0
N401 N 0.47649 0.94519 0.07247 0.0
H402 H 0.59003 0.53679 0.40594 0.0
H403 H 0.41497 0.49099 0.48706 0.0
H404 H 0.58704 0.48862 0.48251 0.0
H405 H 0.41526 0.4923 0.40246 0.0
H406 H 0.47856 0.50139 0.48684 0.0
H407 H 0.52597 0.53048 0.4052 0.0
C408 C 0.57598 0.52477 0.4225 0.0
C409 C 0.59391 0.5131 0.44428 0.0
C410 C 0.46467 0.49967 0.46833 0.0
C411 C 0.52104 0.50652 0.44374 0.0
C412 C 0.42842 0.49404 0.46843 0.0
C413 C 0.40996 0.49066 0.44472 0.0
C414 C 0.48252 0.50259 0.44434 0.0
C415 C 0.42863 0.49446 0.42114 0.0
C416 C 0.53951 0.52124 0.42206 0.0
C417 C 0.57436 0.49789 0.46527 0.0
N418 N 0.46401 0.50033 0.42152 0.0
N419 N 0.53903 0.49525 0.46454 0.0
H420 H 0.052 0.58828 0.94547 0.0
H421 H 0.9352 0.40414 0.94595 0.0
H422 H 0.93984 0.57662 0.93945 0.0
H423 H 0.045 0.4157 0.92761 0.0
H424 H 0.93798 0.46706 0.95398 0.0
H425 H 0.05115 0.52451 0.94933 0.0
C426 C 0.02722 0.57235 0.9456 0.0
C427 C -0.00405 0.58752 0.94205 0.0
C428 C 0.96152 0.45572 0.94844 0.0
C429 C -0.00526 0.51511 0.94632 0.0
C430 C 0.95996 0.41983 0.94396 0.0
C431 C 0.98981 0.4048 0.93582 0.0
C432 C 0.9932 0.47659 0.94496 0.0
C433 C 0.02125 0.42635 0.93352 0.0
C434 C 0.02674 0.53606 0.94758 0.0
C435 C 0.96453 0.56581 0.942 0.0
N436 N 0.0221 0.46121 0.93791 0.0
N437 N 0.96472 0.53071 0.94396 0.0
H438 H 0.91104 0.55678 0.65353 0.0
H439 H 0.03499 0.42876 0.71936 0.0
H440 H 0.87173 0.45757 0.68637 0.0
H441 H 0.07229 0.51079 0.66572 0.0
H442 H 0.97503 0.43983 0.70899 0.0
H443 H 0.97039 0.54032 0.65765 0.0
C444 C 0.91499 0.53105 0.66089 0.0
C445 C 0.88665 0.50824 0.66928 0.0
C446 C -0.00364 0.45526 0.69942 0.0
C447 C 0.9544 0.4898 0.67521 0.0
C448 C 0.03059 0.44921 0.70551 0.0
C449 C 0.05867 0.46902 0.69347 0.0
C450 C 0.99024 0.48147 0.68132 0.0
C451 C 0.05144 0.49497 0.67552 0.0
C452 C 0.94883 0.52177 0.66348 0.0
C453 C 0.89299 0.47554 0.67925 0.0
N454 N 0.01794 0.50053 0.67008 0.0
N455 N 0.92635 0.46746 0.68237 0.0
H456 H 0.40183 0.92615 0.83703 0.0
H457 H 0.57994 0.05164 0.82434 0.0
H458 H 0.4077 0.03855 0.8397 0.0
H459 H 0.57617 0.94212 0.84342 0.0
H460 H 0.51611 0.04585 0.82162 0.0
H461 H 0.46548 0.93018 0.83164 0.0
C462 C 0.41647 0.95161 0.83601 0.0
C463 C 0.39969 0.98206 0.83876 0.0
C464 C 0.52934 0.02304 0.82617 0.0
C465 C 0.47197 0.98693 0.83256 0.0
C466 C 0.56573 0.0263 0.82751 0.0
C467 C 0.58328 -0.00263 0.83423 0.0
C468 C 0.51053 0.99059 0.83137 0.0
C469 C 0.56359 0.96516 0.83838 0.0
C470 C 0.45271 0.95393 0.83311 0.0
C471 C 0.41977 0.01445 0.83773 0.0
N472 N 0.52827 0.96266 0.83702 0.0
N473 N 0.45484 0.01605 0.8347 0.0
H474 H 0.45012 0.4153 0.2924 0.0
H475 H 0.5528 0.58957 0.35099 0.0
H476 H 0.53668 0.41294 0.34565 0.0
H477 H 0.46626 0.58718 0.29696 0.0
H478 H 0.54696 0.52537 0.35113 0.0
H479 H 0.4558 0.47892 0.29488 0.0
C480 C 0.47054 0.42846 0.30447 0.0
C481 C 0.49312 0.40933 0.31871 0.0
C482 C 0.52919 0.539 0.33938 0.0
C483 C 0.4998 0.48198 0.32194 0.0
C484 C 0.53237 0.57558 0.33942 0.0
C485 C 0.51008 0.59373 0.32385 0.0
C486 C 0.5035 0.52066 0.32371 0.0
C487 C 0.48419 0.57435 0.30913 0.0
C488 C 0.47374 0.46471 0.30601 0.0
C489 C 0.51895 0.42716 0.33432 0.0
N490 N 0.48173 0.539 0.30937 0.0
N491 N 0.52169 0.46269 0.33552 0.0
H492 H 0.41678 0.19898 0.24478 0.0
H493 H 0.51041 0.28071 0.12408 0.0
H494 H 0.52065 0.25199 0.2494 0.0
H495 H 0.43276 0.19286 0.11586 0.0
H496 H 0.51931 0.26438 0.16956 0.0
H497 H 0.42595 0.18846 0.19815 0.0
C498 C 0.44182 0.20763 0.23618 0.0
C499 C 0.46754 0.22739 0.25083 0.0
C500 C 0.50096 0.24802 0.15772 0.0
C501 C 0.47794 0.21597 0.1975 0.0
C502 C 0.49581 0.25745 0.13179 0.0
C503 C 0.47056 0.2383 0.11647 0.0
C504 C 0.47982 0.21991 0.16866 0.0
C505 C 0.45242 0.2083 0.1272 0.0
C506 C 0.44707 0.20155 0.20954 0.0
C507 C 0.49972 0.23738 0.23875 0.0
N508 N 0.45672 0.2005 0.15296 0.0
N509 N 0.50365 0.23242 0.21263 0.0
H510 H 0.22481 0.39129 0.63584 0.0
H511 H 0.26564 0.53694 0.52619 0.0
H512 H 0.23576 0.50149 0.65376 0.0
H513 H 0.23029 0.42916 0.50983 0.0
H514 H 0.25571 0.52562 0.57291 0.0
H515 H 0.23216 0.40529 0.58954 0.0
C516 C 0.2294 0.41846 0.63012 0.0
C517 C 0.22921 0.44526 0.64871 0.0
C518 C 0.2498 0.5046 0.55902 0.0
C519 C 0.23702 0.46148 0.59559 0.0
C520 C 0.25518 0.51108 0.53233 0.0
C521 C 0.24951 0.48376 0.51412 0.0
C522 C 0.23898 0.47054 0.56744 0.0
C523 C 0.23559 0.45089 0.52318 0.0
C524 C 0.23313 0.42644 0.60361 0.0
C525 C 0.23548 0.47998 0.64008 0.0
N526 N 0.23134 0.44508 0.54925 0.0
N527 N 0.23887 0.48713 0.61406 0.0
H528 H 0.81891 0.04206 0.89047 0.0
H529 H 0.88411 0.24294 0.87758 0.0
H530 H 0.75609 0.1151 0.85345 0.0
H531 H 0.91471 0.18 0.94212 0.0
H532 H 0.8417 0.19497 0.86393 0.0
H533 H 0.86032 0.09093 0.90418 0.0
C534 C 0.81403 0.06832 0.88496 0.0
C535 C 0.784 0.07459 0.87087 0.0
C536 C 0.85758 0.19177 0.88114 0.0
C537 C 0.83108 0.13035 0.88656 0.0
C538 C 0.88181 0.21902 0.88892 0.0
C539 C 0.90308 0.21522 0.91091 0.0
C540 C 0.85512 0.16032 0.89515 0.0
C541 C 0.89882 0.1839 0.92505 0.0
C542 C 0.83747 0.09615 0.89302 0.0
C543 C 0.77888 0.10916 0.86439 0.0
N544 N 0.87553 0.15739 0.91673 0.0
N545 N 0.80227 0.13582 0.87223 0.0
H546 H 0.46343 0.73641 0.24532 0.0
H547 H 0.55544 0.78637 0.10859 0.0
H548 H 0.56458 0.79461 0.23825 0.0
H549 H 0.46781 0.70886 0.11857 0.0
H550 H 0.5505 0.80284 0.15478 0.0
H551 H 0.45585 0.74064 0.19794 0.0
C552 C 0.4837 0.75086 0.23393 0.0
C553 C 0.5151 0.76443 0.24571 0.0
C554 C 0.532 0.78265 0.14671 0.0
C555 C 0.50669 0.76898 0.19143 0.0
C556 C 0.53467 0.77341 0.12034 0.0
C557 C 0.51196 0.74627 0.10982 0.0
C558 C 0.50651 0.76448 0.16257 0.0
C559 C 0.48598 0.72979 0.12601 0.0
C560 C 0.47943 0.75306 0.20683 0.0
C561 C 0.54026 0.78314 0.22992 0.0
N562 N 0.48411 0.73898 0.15162 0.0
N563 N 0.53578 0.78435 0.20351 0.0
H564 H 0.76898 0.55786 0.65729 0.0
H565 H 0.74251 0.46756 0.51739 0.0
H566 H 0.71245 0.45699 0.64448 0.0
H567 H 0.78891 0.57303 0.52944 0.0
H568 H 0.74481 0.45759 0.56461 0.0
H569 H 0.7887 0.55828 0.61178 0.0
C570 C 0.76143 0.5354 0.64507 0.0
C571 C 0.73941 0.50715 0.65473 0.0
C572 C 0.75507 0.48272 0.55688 0.0
C573 C 0.76083 0.50797 0.60233 0.0
C574 C 0.75398 0.4884 0.52986 0.0
C575 C 0.76464 0.52155 0.51948 0.0
C576 C 0.76688 0.51037 0.57361 0.0
C577 C 0.77967 0.54732 0.53662 0.0
C578 C 0.77244 0.53578 0.619 0.0
C579 C 0.72937 0.47932 0.63774 0.0
N580 N 0.77975 0.5414 0.56289 0.0
N581 N 0.73995 0.48053 0.61231 0.0
H582 H 0.05766 0.79502 0.8971 0.0
H583 H 0.2609 0.83955 0.86904 0.0
H584 H 0.13648 0.72792 0.91882 0.0
H585 H 0.18737 0.91716 0.86564 0.0
H586 H 0.21395 0.79626 0.88256 0.0
H587 H 0.10363 0.83877 0.88197 0.0
C588 C 0.08461 0.78961 0.89892 0.0
C589 C 0.09326 0.75775 0.90922 0.0
C590 C 0.20805 0.82273 0.87879 0.0
C591 C 0.14576 0.80738 0.89165 0.0
C592 C 0.2348 0.84743 0.87088 0.0
C593 C 0.22805 0.88207 0.86637 0.0
C594 C 0.17425 0.83266 0.88204 0.0
C595 C 0.19372 0.89076 0.86909 0.0
C596 C 0.11079 0.81453 0.8902 0.0
C597 C 0.12858 0.75209 0.91101 0.0
N598 N 0.16805 0.8662 0.87681 0.0
N599 N 0.15352 0.77658 0.90217 0.0
loop_
_geom_bond_atom_site_label_1
_geom_bond_atom_site_label_2
_geom_bond_distance
_geom_bond_site_symmetry_2
_ccdc_geom_bond_type
Mg0 O1 2.028 . S
Mg0 O7 1.986 . S
Mg0 O9 2.114 . S
Mg0 O10 2.251 . S
Mg0 O13 2.010 . S
O1 Mg0 2.028 . S
O1 C4 1.250 . S
O2 Mg3 2.028 . S
O2 C4 1.248 . S
Mg3 O2 2.028 . S
Mg3 O8 2.032 . S
Mg3 O10 2.079 . S
C4 O1 1.250 . S
C4 O2 1.248 . S
C5 O6 1.264 . S
C5 O13 1.249 . S
O6 C5 1.264 . S
O7 Mg0 1.986 . S
O7 C11 1.246 . S
O8 Mg3 2.032 . S
O8 C11 1.259 . S
O9 Mg0 2.114 . S
O9 C12 1.252 . S
O10 Mg0 2.251 . S
O10 Mg3 2.079 . S
O10 C12 1.273 . S
C11 O7 1.246 . S
C11 O8 1.259 . S
C12 O9 1.252 . S
C12 O10 1.273 . S
O13 Mg0 2.010 . S
O13 C5 1.249 . S
Mg14 O15 2.028 . S
Mg14 O21 1.986 . S
Mg14 O23 2.114 . S
Mg14 O24 2.251 . S
Mg14 O27 2.010 . S
O15 Mg14 2.028 . S
O15 C18 1.250 . S
O16 Mg17 2.028 . S
O16 C18 1.248 . S
Mg17 O16 2.028 . S
Mg17 O22 2.032 . S
Mg17 O24 2.079 . S
C18 O15 1.250 . S
C18 O16 1.248 . S
C19 O20 1.264 . S
C19 O27 1.249 . S
O20 C19 1.264 . S
O21 Mg14 1.986 . S
O21 C25 1.246 . S
O22 Mg17 2.032 . S
O22 C25 1.259 . S
O23 Mg14 2.114 . S
O23 C26 1.252 . S
O24 Mg14 2.251 . S
O24 Mg17 2.079 . S
O24 C26 1.273 . S
C25 O21 1.246 . S
C25 O22 1.259 . S
C26 O23 1.252 . S
C26 O24 1.273 . S
O27 Mg14 2.010 . S
O27 C19 1.249 . S
Mg28 O29 2.028 . S
Mg28 O35 1.986 1_655 S
Mg28 O37 2.114 . S
Mg28 O38 2.251 . S
Mg28 O41 2.010 . S
O29 Mg28 2.028 . S
O29 C32 1.250 . S
O30 Mg31 2.028 1_655 S
O30 C32 1.248 . S
Mg31 O30 2.028 1_455 S
Mg31 O36 2.032 . S
Mg31 O38 2.079 1_455 S
C32 O29 1.250 . S
C32 O30 1.248 . S
C33 O34 1.264 . S
C33 O41 1.249 . S
O34 C33 1.264 . S
O35 Mg28 1.986 1_455 S
O35 C39 1.246 . S
O36 Mg31 2.032 . S
O36 C39 1.259 . S
O37 Mg28 2.114 . S
O37 C40 1.252 . S
O38 Mg28 2.251 . S
O38 Mg31 2.079 1_655 S
O38 C40 1.273 . S
C39 O35 1.246 . S
C39 O36 1.259 . S
C40 O37 1.252 . S
C40 O38 1.273 . S
O41 Mg28 2.010 . S
O41 C33 1.249 . S
Mg42 O43 2.028 . S
Mg42 O49 1.986 . S
Mg42 O51 2.114 . S
Mg42 O52 2.251 . S
Mg42 O55 2.010 . S
O43 Mg42 2.028 . S
O43 C46 1.250 . S
O44 Mg45 2.028 . S
O44 C46 1.248 . S
Mg45 O44 2.028 . S
Mg45 O50 2.032 . S
Mg45 O52 2.079 . S
C46 O43 1.250 . S
C46 O44 1.248 . S
C47 O48 1.264 . S
C47 O55 1.249 . S
O48 C47 1.264 . S
O49 Mg42 1.986 . S
O49 C53 1.246 . S
O50 Mg45 2.032 . S
O50 C53 1.259 . S
O51 Mg42 2.114 . S
O51 C54 1.252 . S
O52 Mg42 2.251 . S
O52 Mg45 2.079 . S
O52 C54 1.273 . S
C53 O49 1.246 . S
C53 O50 1.259 . S
C54 O51 1.252 . S
C54 O52 1.273 . S
O55 Mg42 2.010 . S
O55 C47 1.249 . S
Mg56 O57 2.028 . S
Mg56 O63 1.986 . S
Mg56 O65 2.114 . S
Mg56 O66 2.251 . S
Mg56 O69 2.010 . S
O57 Mg56 2.028 . S
O57 C60 1.250 . S
O58 Mg59 2.028 . S
O58 C60 1.248 . S
Mg59 O58 2.028 . S
Mg59 O64 2.032 . S
Mg59 O66 2.079 . S
C60 O57 1.250 . S
C60 O58 1.248 . S
C61 O62 1.264 . S
C61 O69 1.249 . S
O62 C61 1.264 . S
O63 Mg56 1.986 . S
O63 C67 1.246 . S
O64 Mg59 2.032 . S
O64 C67 1.259 . S
O65 Mg56 2.114 . S
O65 C68 1.252 . S
O66 Mg56 2.251 . S
O66 Mg59 2.079 . S
O66 C68 1.273 . S
C67 O63 1.246 . S
C67 O64 1.259 . S
C68 O65 1.252 . S
C68 O66 1.273 . S
O69 Mg56 2.010 . S
O69 C61 1.249 . S
Mg70 O71 2.028 . S
Mg70 O77 1.986 1_455 S
Mg70 O79 2.114 . S
Mg70 O80 2.251 . S
Mg70 O83 2.010 . S
O71 Mg70 2.028 . S
O71 C74 1.250 . S
O72 Mg73 2.028 1_455 S
O72 C74 1.248 . S
Mg73 O72 2.028 1_655 S
Mg73 O78 2.032 . S
Mg73 O80 2.079 1_655 S
C74 O71 1.250 . S
C74 O72 1.248 . S
C75 O76 1.264 . S
C75 O83 1.249 . S
O76 C75 1.264 . S
O77 Mg70 1.986 1_655 S
O77 C81 1.246 . S
O78 Mg73 2.032 . S
O78 C81 1.259 . S
O79 Mg70 2.114 . S
O79 C82 1.252 . S
O80 Mg70 2.251 . S
O80 Mg73 2.079 1_455 S
O80 C82 1.273 . S
C81 O77 1.246 . S
C81 O78 1.259 . S
C82 O79 1.252 . S
C82 O80 1.273 . S
O83 Mg70 2.010 . S
O83 C75 1.249 . S
Mg84 O85 2.028 . S
Mg84 O91 1.986 . S
Mg84 O93 2.114 . S
Mg84 O94 2.251 . S
Mg84 O97 2.010 . S
O85 Mg84 2.028 . S
O85 C88 1.250 . S
O86 Mg87 2.028 . S
O86 C88 1.248 . S
Mg87 O86 2.028 . S
Mg87 O92 2.032 . S
Mg87 O94 2.079 . S
C88 O85 1.250 . S
C88 O86 1.248 . S
C89 O90 1.264 . S
C89 O97 1.249 . S
O90 C89 1.264 . S
O91 Mg84 1.986 . S
O91 C95 1.246 . S
O92 Mg87 2.032 . S
O92 C95 1.259 . S
O93 Mg84 2.114 . S
O93 C96 1.252 . S
O94 Mg84 2.251 . S
O94 Mg87 2.079 . S
O94 C96 1.273 . S
C95 O91 1.246 . S
C95 O92 1.259 . S
C96 O93 1.252 . S
C96 O94 1.273 . S
O97 Mg84 2.010 . S
O97 C89 1.249 . S
Mg98 O99 2.028 . S
Mg98 O105 1.986 1_565 S
Mg98 O107 2.114 . S
Mg98 O108 2.251 . S
Mg98 O111 2.010 . S
O99 Mg98 2.028 . S
O99 C102 1.250 . S
O100 Mg101 2.028 1_565 S
O100 C102 1.248 . S
Mg101 O100 2.028 1_545 S
Mg101 O106 2.032 . S
Mg101 O108 2.079 1_545 S
C102 O99 1.250 . S
C102 O100 1.248 . S
C103 O104 1.264 . S
C103 O111 1.249 . S
O104 C103 1.264 . S
O105 Mg98 1.986 1_545 S
O105 C109 1.246 . S
O106 Mg101 2.032 . S
O106 C109 1.259 . S
O107 Mg98 2.114 . S
O107 C110 1.252 . S
O108 Mg98 2.251 . S
O108 Mg101 2.079 1_565 S
O108 C110 1.273 . S
C109 O105 1.246 . S
C109 O106 1.259 . S
C110 O107 1.252 . S
C110 O108 1.273 . S
O111 Mg98 2.010 . S
O111 C103 1.249 . S
Mg112 O113 2.028 . S
Mg112 O119 1.986 . S
Mg112 O121 2.114 . S
Mg112 O122 2.251 . S
Mg112 O125 2.010 . S
O113 Mg112 2.028 . S
O113 C116 1.250 . S
O114 Mg115 2.028 . S
O114 C116 1.248 . S
Mg115 O114 2.028 . S
Mg115 O120 2.032 . S
Mg115 O122 2.079 . S
C116 O113 1.250 . S
C116 O114 1.248 . S
C117 O118 1.264 . S
C117 O125 1.249 . S
O118 C117 1.264 . S
O119 Mg112 1.986 . S
O119 C123 1.246 . S
O120 Mg115 2.032 . S
O120 C123 1.259 . S
O121 Mg112 2.114 . S
O121 C124 1.252 . S
O122 Mg112 2.251 . S
O122 Mg115 2.079 . S
O122 C124 1.273 . S
C123 O119 1.246 . S
C123 O120 1.259 . S
C124 O121 1.252 . S
C124 O122 1.273 . S
O125 Mg112 2.010 . S
O125 C117 1.249 . S
Mg126 O127 2.028 . S
Mg126 O133 1.986 . S
Mg126 O135 2.114 . S
Mg126 O136 2.251 . S
Mg126 O139 2.010 . S
O127 Mg126 2.028 . S
O127 C130 1.250 . S
O128 Mg129 2.028 . S
O128 C130 1.248 . S
Mg129 O128 2.028 . S
Mg129 O134 2.032 . S
Mg129 O136 2.079 . S
C130 O127 1.250 . S
C130 O128 1.248 . S
C131 O132 1.264 . S
C131 O139 1.249 . S
O132 C131 1.264 . S
O133 Mg126 1.986 . S
O133 C137 1.246 . S
O134 Mg129 2.032 . S
O134 C137 1.259 . S
O135 Mg126 2.114 . S
O135 C138 1.252 . S
O136 Mg126 2.251 . S
O136 Mg129 2.079 . S
O136 C138 1.273 . S
C137 O133 1.246 . S
C137 O134 1.259 . S
C138 O135 1.252 . S
C138 O136 1.273 . S
O139 Mg126 2.010 . S
O139 C131 1.249 . S
Mg140 O141 2.028 . S
Mg140 O147 1.986 1_545 S
Mg140 O149 2.114 . S
Mg140 O150 2.251 . S
Mg140 O153 2.010 . S
O141 Mg140 2.028 . S
O141 C144 1.250 . S
O142 Mg143 2.028 1_545 S
O142 C144 1.248 . S
Mg143 O142 2.028 1_565 S
Mg143 O148 2.032 . S
Mg143 O150 2.079 1_565 S
C144 O141 1.250 . S
C144 O142 1.248 . S
C145 O146 1.264 . S
C145 O153 1.249 . S
O146 C145 1.264 . S
O147 Mg140 1.986 1_565 S
O147 C151 1.246 . S
O148 Mg143 2.032 . S
O148 C151 1.259 . S
O149 Mg140 2.114 . S
O149 C152 1.252 . S
O150 Mg140 2.251 . S
O150 Mg143 2.079 1_545 S
O150 C152 1.273 . S
C151 O147 1.246 . S
C151 O148 1.259 . S
C152 O149 1.252 . S
C152 O150 1.273 . S
O153 Mg140 2.010 . S
O153 C145 1.249 . S
Mg154 O155 2.028 . S
Mg154 O161 1.986 . S
Mg154 O163 2.114 . S
Mg154 O164 2.251 . S
Mg154 O167 2.010 . S
O155 Mg154 2.028 . S
O155 C158 1.250 . S
O156 Mg157 2.028 . S
O156 C158 1.248 . S
Mg157 O156 2.028 . S
Mg157 O162 2.032 . S
Mg157 O164 2.079 . S
C158 O155 1.250 . S
C158 O156 1.248 . S
C159 O160 1.264 . S
C159 O167 1.249 . S
O160 C159 1.264 . S
O161 Mg154 1.986 . S
O161 C165 1.246 . S
O162 Mg157 2.032 . S
O162 C165 1.259 . S
O163 Mg154 2.114 . S
O163 C166 1.252 . S
O164 Mg154 2.251 . S
O164 Mg157 2.079 . S
O164 C166 1.273 . S
C165 O161 1.246 . S
C165 O162 1.259 . S
C166 O163 1.252 . S
C166 O164 1.273 . S
O167 Mg154 2.010 . S
O167 C159 1.249 . S
H168 C174 0.930 . S
H169 C178 0.930 . S
H170 C183 0.929 . S
H171 C181 0.929 . S
H172 C176 0.929 . S
H173 C182 0.929 . S
C174 H168 0.930 . S
C174 C175 1.367 . S
C174 C182 1.378 1_554 S
C175 C174 1.367 . S
C175 C183 1.433 . S
C176 H172 0.929 . S
C176 C178 1.378 . S
C176 C180 1.350 . S
C177 C180 1.463 . S
C177 C182 1.350 . S
C177 N185 1.427 1_556 S
C178 H169 0.930 . S
C178 C176 1.378 . S
C178 C179 1.367 . S
C179 C178 1.367 . S
C179 C181 1.433 . S
C180 C176 1.350 . S
C180 C177 1.463 . S
C180 N184 1.427 . S
C181 H171 0.929 . S
C181 C179 1.433 . S
C181 N184 1.384 . S
C182 H173 0.929 . S
C182 C174 1.378 1_556 S
C182 C177 1.350 . S
C183 H170 0.929 . S
C183 C175 1.433 . S
C183 N185 1.384 . S
N184 C180 1.427 . S
N184 C181 1.384 . S
N185 C177 1.427 1_554 S
N185 C183 1.384 . S
H186 C192 0.930 . S
H187 C196 0.930 . S
H188 C201 0.929 . S
H189 C199 0.929 . S
H190 C194 0.929 . S
H191 C200 0.929 . S
C192 H186 0.930 . S
C192 C193 1.367 . S
C192 C200 1.378 . S
C193 C192 1.367 . S
C193 C201 1.433 . S
C194 H190 0.929 . S
C194 C196 1.378 . S
C194 C198 1.350 . S
C195 C198 1.463 . S
C195 C200 1.350 . S
C195 N203 1.427 . S
C196 H187 0.930 . S
C196 C194 1.378 . S
C196 C197 1.367 . S
C197 C196 1.367 . S
C197 C199 1.433 . S
C198 C194 1.350 . S
C198 C195 1.463 . S
C198 N202 1.427 . S
C199 H189 0.929 . S
C199 C197 1.433 . S
C199 N202 1.384 . S
C200 H191 0.929 . S
C200 C192 1.378 . S
C200 C195 1.350 . S
C201 H188 0.929 . S
C201 C193 1.433 . S
C201 N203 1.384 . S
N202 C198 1.427 . S
N202 C199 1.384 . S
N203 C195 1.427 . S
N203 C201 1.384 . S
H204 C210 0.930 . S
H205 C214 0.930 . S
H206 C219 0.929 . S
H207 C217 0.929 . S
H208 C212 0.929 . S
H209 C218 0.929 . S
C210 H204 0.930 . S
C210 C211 1.367 . S
C210 C218 1.378 . S
C211 C210 1.367 . S
C211 C219 1.433 . S
C212 H208 0.929 . S
C212 C214 1.378 . S
C212 C216 1.350 . S
C213 C216 1.463 . S
C213 C218 1.350 . S
C213 N221 1.427 . S
C214 H205 0.930 . S
C214 C212 1.378 . S
C214 C215 1.367 . S
C215 C214 1.367 . S
C215 C217 1.433 . S
C216 C212 1.350 . S
C216 C213 1.463 . S
C216 N220 1.427 . S
C217 H207 0.929 . S
C217 C215 1.433 . S
C217 N220 1.384 . S
C218 H209 0.929 . S
C218 C210 1.378 . S
C218 C213 1.350 . S
C219 H206 0.929 . S
C219 C211 1.433 . S
C219 N221 1.384 . S
N220 C216 1.427 . S
N220 C217 1.384 . S
N221 C213 1.427 . S
N221 C219 1.384 . S
H222 C228 0.930 . S
H223 C232 0.930 . S
H224 C237 0.929 . S
H225 C235 0.929 . S
H226 C230 0.929 . S
H227 C236 0.929 . S
C228 H222 0.930 . S
C228 C229 1.367 . S
C228 C236 1.378 . S
C229 C228 1.367 . S
C229 C237 1.433 . S
C230 H226 0.929 . S
C230 C232 1.378 . S
C230 C234 1.350 . S
C231 C234 1.463 . S
C231 C236 1.350 1_556 S
C231 N239 1.427 . S
C232 H223 0.930 . S
C232 C230 1.378 . S
C232 C233 1.367 . S
C233 C232 1.367 . S
C233 C235 1.433 . S
C234 C230 1.350 . S
C234 C231 1.463 . S
C234 N238 1.427 . S
C235 H225 0.929 . S
C235 C233 1.433 . S
C235 N238 1.384 . S
C236 H227 0.929 . S
C236 C228 1.378 . S
C236 C231 1.350 1_554 S
C237 H224 0.929 . S
C237 C229 1.433 . S
C237 N239 1.384 1_554 S
N238 C234 1.427 . S
N238 C235 1.384 . S
N239 C231 1.427 . S
N239 C237 1.384 1_556 S
H240 C246 0.930 . S
H241 C250 0.930 . S
H242 C255 0.929 . S
H243 C253 0.929 . S
H244 C248 0.929 . S
H245 C254 0.929 . S
C246 H240 0.930 . S
C246 C247 1.367 . S
C246 C254 1.378 . S
C247 C246 1.367 . S
C247 C255 1.433 . S
C248 H244 0.929 . S
C248 C250 1.378 . S
C248 C252 1.350 . S
C249 C252 1.463 . S
C249 C254 1.350 . S
C249 N257 1.427 . S
C250 H241 0.930 . S
C250 C248 1.378 . S
C250 C251 1.367 . S
C251 C250 1.367 . S
C251 C253 1.433 . S
C252 C248 1.350 . S
C252 C249 1.463 . S
C252 N256 1.427 . S
C253 H243 0.929 . S
C253 C251 1.433 . S
C253 N256 1.384 . S
C254 H245 0.929 . S
C254 C246 1.378 . S
C254 C249 1.350 . S
C255 H242 0.929 . S
C255 C247 1.433 . S
C255 N257 1.384 . S
N256 C252 1.427 . S
N256 C253 1.384 . S
N257 C249 1.427 . S
N257 C255 1.384 . S
H258 C264 0.930 . S
H259 C268 0.930 . S
H260 C273 0.929 . S
H261 C271 0.929 . S
H262 C266 0.929 . S
H263 C272 0.929 . S
C264 H258 0.930 . S
C264 C265 1.367 . S
C264 C272 1.378 . S
C265 C264 1.367 . S
C265 C273 1.433 . S
C266 H262 0.929 . S
C266 C268 1.378 . S
C266 C270 1.350 . S
C267 C270 1.463 . S
C267 C272 1.350 . S
C267 N275 1.427 . S
C268 H259 0.930 . S
C268 C266 1.378 . S
C268 C269 1.367 . S
C269 C268 1.367 . S
C269 C271 1.433 . S
C270 C266 1.350 . S
C270 C267 1.463 . S
C270 N274 1.427 . S
C271 H261 0.929 . S
C271 C269 1.433 . S
C271 N274 1.384 . S
C272 H263 0.929 . S
C272 C264 1.378 . S
C272 C267 1.350 . S
C273 H260 0.929 . S
C273 C265 1.433 . S
C273 N275 1.384 . S
N274 C270 1.427 . S
N274 C271 1.384 . S
N275 C267 1.427 . S
N275 C273 1.384 . S
H276 C282 0.930 1_556 S
H277 C286 0.930 . S
H278 C291 0.929 . S
H279 C289 0.929 . S
H280 C284 0.929 . S
H281 C290 0.929 . S
C282 H276 0.930 1_554 S
C282 C283 1.367 . S
C282 C290 1.378 1_554 S
C283 C282 1.367 . S
C283 C291 1.433 . S
C284 H280 0.929 . S
C284 C286 1.378 . S
C284 C288 1.350 . S
C285 C288 1.463 . S
C285 C290 1.350 . S
C285 N293 1.427 1_556 S
C286 H277 0.930 . S
C286 C284 1.378 . S
C286 C287 1.367 . S
C287 C286 1.367 . S
C287 C289 1.433 . S
C288 C284 1.350 . S
C288 C285 1.463 . S
C288 N292 1.427 . S
C289 H279 0.929 . S
C289 C287 1.433 . S
C289 N292 1.384 . S
C290 H281 0.929 . S
C290 C282 1.378 1_556 S
C290 C285 1.350 . S
C291 H278 0.929 . S
C291 C283 1.433 . S
C291 N293 1.384 . S
N292 C288 1.427 . S
N292 C289 1.384 . S
N293 C285 1.427 1_554 S
N293 C291 1.384 . S
H294 C300 0.930 . S
H295 C304 0.930 . S
H296 C309 0.929 . S
H297 C307 0.929 . S
H298 C302 0.929 . S
H299 C308 0.929 . S
C300 H294 0.930 . S
C300 C301 1.367 . S
C300 C308 1.378 . S
C301 C300 1.367 . S
C301 C309 1.433 . S
C302 H298 0.929 . S
C302 C304 1.378 . S
C302 C306 1.350 . S
C303 C306 1.463 . S
C303 C308 1.350 . S
C303 N311 1.427 . S
C304 H295 0.930 . S
C304 C302 1.378 . S
C304 C305 1.367 . S
C305 C304 1.367 . S
C305 C307 1.433 . S
C306 C302 1.350 . S
C306 C303 1.463 . S
C306 N310 1.427 . S
C307 H297 0.929 . S
C307 C305 1.433 . S
C307 N310 1.384 . S
C308 H299 0.929 . S
C308 C300 1.378 . S
C308 C303 1.350 . S
C309 H296 0.929 . S
C309 C301 1.433 . S
C309 N311 1.384 . S
N310 C306 1.427 . S
N310 C307 1.384 . S
N311 C303 1.427 . S
N311 C309 1.384 . S
H312 C318 0.930 . S
H313 C322 0.930 . S
H314 C327 0.929 . S
H315 C325 0.929 . S
H316 C320 0.929 . S
H317 C326 0.929 . S
C318 H312 0.930 . S
C318 C319 1.367 . S
C318 C326 1.378 . S
C319 C318 1.367 . S
C319 C327 1.433 . S
C320 H316 0.929 . S
C320 C322 1.378 . S
C320 C324 1.350 . S
C321 C324 1.463 . S
C321 C326 1.350 . S
C321 N329 1.427 . S
C322 H313 0.930 . S
C322 C320 1.378 . S
C322 C323 1.367 . S
C323 C322 1.367 . S
C323 C325 1.433 . S
C324 C320 1.350 . S
C324 C321 1.463 . S
C324 N328 1.427 . S
C325 H315 0.929 . S
C325 C323 1.433 . S
C325 N328 1.384 . S
C326 H317 0.929 . S
C326 C318 1.378 . S
C326 C321 1.350 . S
C327 H314 0.929 . S
C327 C319 1.433 . S
C327 N329 1.384 . S
N328 C324 1.427 . S
N328 C325 1.384 . S
N329 C321 1.427 . S
N329 C327 1.384 . S
H330 C336 0.930 . S
H331 C340 0.930 . S
H332 C345 0.929 . S
H333 C343 0.929 . S
H334 C338 0.932 . S
H335 C344 0.929 . S
C336 H330 0.930 . S
C336 C337 1.367 1_556 S
C336 C344 1.378 . S
C337 C336 1.367 1_554 S
C337 C345 1.433 . S
C338 H334 0.932 . S
C338 C340 1.378 . S
C338 C342 1.350 . S
C339 C342 1.463 . S
C339 C344 1.350 . S
C339 N347 1.427 1_556 S
C340 H331 0.930 . S
C340 C338 1.378 . S
C340 C341 1.367 . S
C341 C340 1.367 . S
C341 C343 1.433 . S
C342 C338 1.350 . S
C342 C339 1.463 . S
C342 N346 1.427 . S
C343 H333 0.929 . S
C343 C341 1.433 . S
C343 N346 1.384 . S
C344 H335 0.929 . S
C344 C336 1.378 . S
C344 C339 1.350 . S
C345 H332 0.929 . S
C345 C337 1.433 . S
C345 N347 1.384 . S
N346 C342 1.427 . S
N346 C343 1.384 . S
N347 C339 1.427 1_554 S
N347 C345 1.384 . S
H348 C354 0.930 . S
H349 C358 0.930 . S
H350 C363 0.929 . S
H351 C361 0.929 . S
H352 C356 0.929 . S
H353 C362 0.929 . S
C354 H348 0.930 . S
C354 C355 1.367 . S
C354 C362 1.378 . S
C355 C354 1.367 . S
C355 C363 1.433 . S
C356 H352 0.929 . S
C356 C358 1.378 . S
C356 C360 1.350 . S
C357 C360 1.463 . S
C357 C362 1.350 . S
C357 N365 1.427 . S
C358 H349 0.930 . S
C358 C356 1.378 . S
C358 C359 1.367 . S
C359 C358 1.367 . S
C359 C361 1.433 . S
C360 C356 1.350 . S
C360 C357 1.463 . S
C360 N364 1.427 . S
C361 H351 0.929 . S
C361 C359 1.433 . S
C361 N364 1.384 . S
C362 H353 0.929 . S
C362 C354 1.378 . S
C362 C357 1.350 . S
C363 H350 0.929 . S
C363 C355 1.433 . S
C363 N365 1.384 . S
N364 C360 1.427 . S
N364 C361 1.384 . S
N365 C357 1.427 . S
N365 C363 1.384 . S
H366 C372 0.930 . S
H367 C376 0.930 . S
H368 C381 0.929 . S
H369 C379 0.929 . S
H370 C374 0.929 . S
H371 C380 0.929 . S
C372 H366 0.930 . S
C372 C373 1.367 . S
C372 C380 1.378 . S
C373 C372 1.367 . S
C373 C381 1.433 . S
C374 H370 0.929 . S
C374 C376 1.378 . S
C374 C378 1.350 . S
C375 C378 1.463 . S
C375 C380 1.350 . S
C375 N383 1.427 . S
C376 H367 0.930 . S
C376 C374 1.378 . S
C376 C377 1.367 . S
C377 C376 1.367 . S
C377 C379 1.433 . S
C378 C374 1.350 . S
C378 C375 1.463 . S
C378 N382 1.427 . S
C379 H369 0.929 . S
C379 C377 1.433 . S
C379 N382 1.384 . S
C380 H371 0.929 . S
C380 C372 1.378 . S
C380 C375 1.350 . S
C381 H368 0.929 . S
C381 C373 1.433 . S
C381 N383 1.384 . S
N382 C378 1.427 . S
N382 C379 1.384 . S
N383 C375 1.427 . S
N383 C381 1.384 . S
H384 C390 0.930 . S
H385 C394 0.930 . S
H386 C399 0.929 . S
H387 C397 0.929 . S
H388 C392 0.929 . S
H389 C398 0.929 . S
C390 H384 0.930 . S
C390 C391 1.367 . S
C390 C398 1.378 . S
C391 C390 1.367 . S
C391 C399 1.433 . S
C392 H388 0.929 . S
C392 C394 1.378 . S
C392 C396 1.350 . S
C393 C396 1.463 1_565 S
C393 C398 1.350 . S
C393 N401 1.427 . S
C394 H385 0.930 . S
C394 C392 1.378 . S
C394 C395 1.367 . S
C395 C394 1.367 . S
C395 C397 1.433 . S
C396 C392 1.350 . S
C396 C393 1.463 1_545 S
C396 N400 1.427 . S
C397 H387 0.929 . S
C397 C395 1.433 . S
C397 N400 1.384 . S
C398 H389 0.929 . S
C398 C390 1.378 . S
C398 C393 1.350 . S
C399 H386 0.929 . S
C399 C391 1.433 . S
C399 N401 1.384 . S
N400 C396 1.427 . S
N400 C397 1.384 . S
N401 C393 1.427 . S
N401 C399 1.384 . S
H402 C408 0.930 . S
H403 C412 0.930 . S
H404 C417 0.929 . S
H405 C415 0.929 . S
H406 C410 0.929 . S
H407 C416 0.929 . S
C408 H402 0.930 . S
C408 C409 1.367 . S
C408 C416 1.378 . S
C409 C408 1.367 . S
C409 C417 1.433 . S
C410 H406 0.929 . S
C410 C412 1.378 . S
C410 C414 1.350 . S
C411 C414 1.463 . S
C411 C416 1.350 . S
C411 N419 1.427 . S
C412 H403 0.930 . S
C412 C410 1.378 . S
C412 C413 1.367 . S
C413 C412 1.367 . S
C413 C415 1.433 . S
C414 C410 1.350 . S
C414 C411 1.463 . S
C414 N418 1.427 . S
C415 H405 0.929 . S
C415 C413 1.433 . S
C415 N418 1.384 . S
C416 H407 0.929 . S
C416 C408 1.378 . S
C416 C411 1.350 . S
C417 H404 0.929 . S
C417 C409 1.433 . S
C417 N419 1.384 . S
N418 C414 1.427 . S
N418 C415 1.384 . S
N419 C411 1.427 . S
N419 C417 1.384 . S
H420 C426 0.930 . S
H421 C430 0.930 . S
H422 C435 0.929 . S
H423 C433 0.929 . S
H424 C428 0.929 . S
H425 C434 0.929 . S
C426 H420 0.930 . S
C426 C427 1.367 . S
C426 C434 1.378 . S
C427 C426 1.367 . S
C427 C435 1.433 1_455 S
C428 H424 0.929 . S
C428 C430 1.378 . S
C428 C432 1.350 . S
C429 C432 1.463 1_455 S
C429 C434 1.350 . S
C429 N437 1.427 1_455 S
C430 H421 0.930 . S
C430 C428 1.378 . S
C430 C431 1.367 . S
C431 C430 1.367 . S
C431 C433 1.433 1_655 S
C432 C428 1.350 . S
C432 C429 1.463 1_655 S
C432 N436 1.427 1_655 S
C433 H423 0.929 . S
C433 C431 1.433 1_455 S
C433 N436 1.384 . S
C434 H425 0.929 . S
C434 C426 1.378 . S
C434 C429 1.350 . S
C435 H422 0.929 . S
C435 C427 1.433 1_655 S
C435 N437 1.384 . S
N436 C432 1.427 1_455 S
N436 C433 1.384 . S
N437 C429 1.427 1_655 S
N437 C435 1.384 . S
H438 C444 0.930 . S
H439 C448 0.930 . S
H440 C453 0.929 . S
H441 C451 0.929 . S
H442 C446 0.929 . S
H443 C452 0.929 . S
C444 H438 0.930 . S
C444 C445 1.367 . S
C444 C452 1.378 . S
C445 C444 1.367 . S
C445 C453 1.433 . S
C446 H442 0.929 . S
C446 C448 1.378 . S
C446 C450 1.350 . S
C447 C450 1.463 1_655 S
C447 C452 1.350 . S
C447 N455 1.427 . S
C448 H439 0.930 . S
C448 C446 1.378 . S
C448 C449 1.367 . S
C449 C448 1.367 . S
C449 C451 1.433 . S
C450 C446 1.350 . S
C450 C447 1.463 1_455 S
C450 N454 1.427 . S
C451 H441 0.929 . S
C451 C449 1.433 . S
C451 N454 1.384 . S
C452 H443 0.929 . S
C452 C444 1.378 . S
C452 C447 1.350 . S
C453 H440 0.929 . S
C453 C445 1.433 . S
C453 N455 1.384 . S
N454 C450 1.427 . S
N454 C451 1.384 . S
N455 C447 1.427 . S
N455 C453 1.384 . S
H456 C462 0.930 . S
H457 C466 0.930 . S
H458 C471 0.929 . S
H459 C469 0.929 . S
H460 C464 0.929 . S
H461 C470 0.929 . S
C462 H456 0.930 . S
C462 C463 1.367 . S
C462 C470 1.378 . S
C463 C462 1.367 . S
C463 C471 1.433 . S
C464 H460 0.929 . S
C464 C466 1.378 . S
C464 C468 1.350 . S
C465 C468 1.463 1_565 S
C465 C470 1.350 . S
C465 N473 1.430 . S
C466 H457 0.930 . S
C466 C464 1.378 . S
C466 C467 1.367 . S
C467 C466 1.367 . S
C467 C469 1.433 . S
C468 C464 1.350 . S
C468 C465 1.463 1_545 S
C468 N472 1.430 . S
C469 H459 0.929 . S
C469 C467 1.433 . S
C469 N472 1.385 . S
C470 H461 0.929 . S
C470 C462 1.378 . S
C470 C465 1.350 . S
C471 H458 0.929 . S
C471 C463 1.433 . S
C471 N473 1.385 . S
N472 C468 1.430 . S
N472 C469 1.385 . S
N473 C465 1.430 . S
N473 C471 1.385 . S
H474 C480 0.930 . S
H475 C484 0.930 . S
H476 C489 0.929 . S
H477 C487 0.929 . S
H478 C482 0.929 . S
H479 C488 0.929 . S
C480 H474 0.930 . S
C480 C481 1.367 . S
C480 C488 1.378 . S
C481 C480 1.367 . S
C481 C489 1.433 . S
C482 H478 0.929 . S
C482 C484 1.378 . S
C482 C486 1.350 . S
C483 C486 1.463 . S
C483 C488 1.350 . S
C483 N491 1.427 . S
C484 H475 0.930 . S
C484 C482 1.378 . S
C484 C485 1.367 . S
C485 C484 1.367 . S
C485 C487 1.433 . S
C486 C482 1.350 . S
C486 C483 1.463 . S
C486 N490 1.427 . S
C487 H477 0.929 . S
C487 C485 1.433 . S
C487 N490 1.384 . S
C488 H479 0.929 . S
C488 C480 1.378 . S
C488 C483 1.350 . S
C489 H476 0.929 . S
C489 C481 1.433 . S
C489 N491 1.384 . S
N490 C486 1.427 . S
N490 C487 1.384 . S
N491 C483 1.427 . S
N491 C489 1.384 . S
H492 C498 0.930 . S
H493 C502 0.930 . S
H494 C507 0.929 . S
H495 C505 0.929 . S
H496 C500 0.929 . S
H497 C506 0.929 . S
C498 H492 0.930 . S
C498 C499 1.367 . S
C498 C506 1.378 . S
C499 C498 1.367 . S
C499 C507 1.433 . S
C500 H496 0.929 . S
C500 C502 1.378 . S
C500 C504 1.350 . S
C501 C504 1.463 . S
C501 C506 1.350 . S
C501 N509 1.427 . S
C502 H493 0.930 . S
C502 C500 1.378 . S
C502 C503 1.367 . S
C503 C502 1.367 . S
C503 C505 1.433 . S
C504 C500 1.350 . S
C504 C501 1.463 . S
C504 N508 1.427 . S
C505 H495 0.929 . S
C505 C503 1.433 . S
C505 N508 1.384 . S
C506 H497 0.929 . S
C506 C498 1.378 . S
C506 C501 1.350 . S
C507 H494 0.929 . S
C507 C499 1.433 . S
C507 N509 1.384 . S
N508 C504 1.427 . S
N508 C505 1.384 . S
N509 C501 1.427 . S
N509 C507 1.384 . S
H510 C516 0.930 . S
H511 C520 0.930 . S
H512 C525 0.929 . S
H513 C523 0.929 . S
H514 C518 0.929 . S
H515 C524 0.929 . S
C516 H510 0.930 . S
C516 C517 1.367 . S
C516 C524 1.378 . S
C517 C516 1.367 . S
C517 C525 1.433 . S
C518 H514 0.929 . S
C518 C520 1.378 . S
C518 C522 1.350 . S
C519 C522 1.463 . S
C519 C524 1.350 . S
C519 N527 1.427 . S
C520 H511 0.930 . S
C520 C518 1.378 . S
C520 C521 1.367 . S
C521 C520 1.367 . S
C521 C523 1.433 . S
C522 C518 1.350 . S
C522 C519 1.463 . S
C522 N526 1.427 . S
C523 H513 0.929 . S
C523 C521 1.433 . S
C523 N526 1.384 . S
C524 H515 0.929 . S
C524 C516 1.378 . S
C524 C519 1.350 . S
C525 H512 0.929 . S
C525 C517 1.433 . S
C525 N527 1.384 . S
N526 C522 1.427 . S
N526 C523 1.384 . S
N527 C519 1.427 . S
N527 C525 1.384 . S
H528 C534 0.930 . S
H529 C538 0.930 . S
H530 C543 0.929 . S
H531 C541 0.929 . S
H532 C536 0.929 . S
H533 C542 0.929 . S
C534 H528 0.930 . S
C534 C535 1.367 . S
C534 C542 1.378 . S
C535 C534 1.367 . S
C535 C543 1.433 . S
C536 H532 0.929 . S
C536 C538 1.378 . S
C536 C540 1.350 . S
C537 C540 1.463 . S
C537 C542 1.350 . S
C537 N545 1.427 . S
C538 H529 0.930 . S
C538 C536 1.378 . S
C538 C539 1.367 . S
C539 C538 1.367 . S
C539 C541 1.433 . S
C540 C536 1.350 . S
C540 C537 1.463 . S
C540 N544 1.427 . S
C541 H531 0.929 . S
C541 C539 1.433 . S
C541 N544 1.384 . S
C542 H533 0.929 . S
C542 C534 1.378 . S
C542 C537 1.350 . S
C543 H530 0.929 . S
C543 C535 1.433 . S
C543 N545 1.384 . S
N544 C540 1.427 . S
N544 C541 1.384 . S
N545 C537 1.427 . S
N545 C543 1.384 . S
H546 C552 0.930 . S
H547 C556 0.930 . S
H548 C561 0.929 . S
H549 C559 0.929 . S
H550 C554 0.929 . S
H551 C560 0.929 . S
C552 H546 0.930 . S
C552 C553 1.367 . S
C552 C560 1.378 . S
C553 C552 1.367 . S
C553 C561 1.433 . S
C554 H550 0.929 . S
C554 C556 1.378 . S
C554 C558 1.350 . S
C555 C558 1.463 . S
C555 C560 1.350 . S
C555 N563 1.427 . S
C556 H547 0.930 . S
C556 C554 1.378 . S
C556 C557 1.367 . S
C557 C556 1.367 . S
C557 C559 1.433 . S
C558 C554 1.350 . S
C558 C555 1.463 . S
C558 N562 1.427 . S
C559 H549 0.929 . S
C559 C557 1.433 . S
C559 N562 1.384 . S
C560 H551 0.929 . S
C560 C552 1.378 . S
C560 C555 1.350 . S
C561 H548 0.929 . S
C561 C553 1.433 . S
C561 N563 1.384 . S
N562 C558 1.427 . S
N562 C559 1.384 . S
N563 C555 1.427 . S
N563 C561 1.384 . S
H564 C570 0.930 . S
H565 C574 0.930 . S
H566 C579 0.929 . S
H567 C577 0.929 . S
H568 C572 0.929 . S
H569 C578 0.929 . S
C570 H564 0.930 . S
C570 C571 1.367 . S
C570 C578 1.378 . S
C571 C570 1.367 . S
C571 C579 1.433 . S
C572 H568 0.929 . S
C572 C574 1.378 . S
C572 C576 1.350 . S
C573 C576 1.463 . S
C573 C578 1.350 . S
C573 N581 1.427 . S
C574 H565 0.930 . S
C574 C572 1.378 . S
C574 C575 1.367 . S
C575 C574 1.367 . S
C575 C577 1.433 . S
C576 C572 1.350 . S
C576 C573 1.463 . S
C576 N580 1.427 . S
C577 H567 0.929 . S
C577 C575 1.433 . S
C577 N580 1.384 . S
C578 H569 0.929 . S
C578 C570 1.378 . S
C578 C573 1.350 . S
C579 H566 0.929 . S
C579 C571 1.433 . S
C579 N581 1.384 . S
N580 C576 1.427 . S
N580 C577 1.384 . S
N581 C573 1.427 . S
N581 C579 1.384 . S
H582 C588 0.930 . S
H583 C592 0.930 . S
H584 C597 0.929 . S
H585 C595 0.929 . S
H586 C590 0.929 . S
H587 C596 0.929 . S
C588 H582 0.930 . S
C588 C589 1.367 . S
C588 C596 1.378 . S
C589 C588 1.367 . S
C589 C597 1.433 . S
C590 H586 0.929 . S
C590 C592 1.378 . S
C590 C594 1.350 . S
C591 C594 1.463 . S
C591 C596 1.350 . S
C591 N599 1.427 . S
C592 H583 0.930 . S
C592 C590 1.378 . S
C592 C593 1.367 . S
C593 C592 1.367 . S
C593 C595 1.433 . S
C594 C590 1.350 . S
C594 C591 1.463 . S
C594 N598 1.427 . S
C595 H585 0.929 . S
C595 C593 1.433 . S
C595 N598 1.384 . S
C596 H587 0.929 . S
C596 C588 1.378 . S
C596 C591 1.350 . S
C597 H584 0.929 . S
C597 C589 1.433 . S
C597 N599 1.384 . S
N598 C594 1.427 . S
N598 C595 1.384 . S
N599 C591 1.427 . S
N599 C597 1.384 . S
C175 C4 0.716 . S
C179 C144 0.732 . S
C193 C158 0.746 . S
C197 C18 0.698 . S
C211 C88 0.751 . S
C215 C32 0.713 . S
C229 C46 0.712 . S
C233 C102 0.732 . S
C247 C60 0.740 . S
C251 C116 0.702 . S
C265 C130 0.744 . S
C269 C74 0.710 . S
C283 C11 0.675 . S
C287 C109 0.661 . S
C301 C123 0.692 . S
C305 C25 0.706 . S
C319 C137 0.686 . S
C323 C39 0.651 . S
C337 C53 0.689 . S
C341 C151 0.649 . S
C355 C165 0.718 . S
C359 C67 0.668 . S
C373 C81 0.651 . S
C377 C95 0.686 . S
C391 C54 0.395 . S
C395 C12 0.367 . S
C409 C68 0.642 . S
C413 C26 0.650 . S
C427 C82 0.909 . S
C431 C40 0.914 . S
C445 C96 0.395 . S
C449 C138 0.367 . S
C463 C110 0.898 . S
C467 C152 0.928 . S
C481 C124 0.647 . S
C485 C166 0.644 . S
C499 C117 1.030 . S
C503 C5 1.093 . S
C517 C131 1.062 . S
C521 C19 1.033 . S
C535 C145 1.364 . S
C539 C33 1.374 . S
C553 C159 1.011 . S
C557 C47 1.061 . S
C571 C89 1.058 . S
C575 C61 1.022 . S
C589 C75 1.362 . S
C593 C103 1.375 . S
