# Generated by pormake.
# Topology qtz-f, (3)-cn, num edge types: 1
# Building blocks:
#     Node 0, Type 0, BuildingBlock: OLANEW_clean_sbu_2, # of connection points: 3
#     Node 1, Type 0, BuildingBlock: OLANEW_clean_sbu_2, # of connection points: 3
#     Node 2, Type 0, BuildingBlock: OLANEW_clean_sbu_2, # of connection points: 3
#     Node 3, Type 0, BuildingBlock: OLANEW_clean_sbu_2, # of connection points: 3
#     Node 4, Type 0, BuildingBlock: OLANEW_clean_sbu_2, # of connection points: 3
#     Node 5, Type 0, BuildingBlock: OLANEW_clean_sbu_2, # of connection points: 3
#     Node 6, Type 0, BuildingBlock: OLANEW_clean_sbu_2, # of connection points: 3
#     Node 7, Type 0, BuildingBlock: OLANEW_clean_sbu_2, # of connection points: 3
#     Node 8, Type 0, BuildingBlock: OLANEW_clean_sbu_2, # of connection points: 3
#     Node 9, Type 0, BuildingBlock: OLANEW_clean_sbu_2, # of connection points: 3
#     Node 10, Type 0, BuildingBlock: OLANEW_clean_sbu_2, # of connection points: 3
#     Node 11, Type 0, BuildingBlock: OLANEW_clean_sbu_2, # of connection points: 3
#     Edge 12, Type (0, 0), BuildingBlock: TEMPAE_clean_linker_10, # of connection points: 2
#     Edge 13, Type (0, 0), BuildingBlock: TEMPAE_clean_linker_10, # of connection points: 2
#     Edge 14, Type (0, 0), BuildingBlock: TEMPAE_clean_linker_10, # of connection points: 2
#     Edge 15, Type (0, 0), BuildingBlock: TEMPAE_clean_linker_10, # of connection points: 2
#     Edge 16, Type (0, 0), BuildingBlock: TEMPAE_clean_linker_10, # of connection points: 2
#     Edge 17, Type (0, 0), BuildingBlock: TEMPAE_clean_linker_10, # of connection points: 2
#     Edge 18, Type (0, 0), BuildingBlock: TEMPAE_clean_linker_10, # of connection points: 2
#     Edge 19, Type (0, 0), BuildingBlock: TEMPAE_clean_linker_10, # of connection points: 2
#     Edge 20, Type (0, 0), BuildingBlock: TEMPAE_clean_linker_10, # of connection points: 2
#     Edge 21, Type (0, 0), BuildingBlock: TEMPAE_clean_linker_10, # of connection points: 2
#     Edge 22, Type (0, 0), BuildingBlock: TEMPAE_clean_linker_10, # of connection points: 2
#     Edge 23, Type (0, 0), BuildingBlock: TEMPAE_clean_linker_10, # of connection points: 2
#     Edge 24, Type (0, 0), BuildingBlock: TEMPAE_clean_linker_10, # of connection points: 2
#     Edge 25, Type (0, 0), BuildingBlock: TEMPAE_clean_linker_10, # of connection points: 2
#     Edge 26, Type (0, 0), BuildingBlock: TEMPAE_clean_linker_10, # of connection points: 2
#     Edge 27, Type (0, 0), BuildingBlock: TEMPAE_clean_linker_10, # of connection points: 2
#     Edge 28, Type (0, 0), BuildingBlock: TEMPAE_clean_linker_10, # of connection points: 2
#     Edge 29, Type (0, 0), BuildingBlock: TEMPAE_clean_linker_10, # of connection points: 2
# Relax obj value: 0.008
# Max RMSD: 0.022
# Mean RMSD: 0.022
data_MOF--net-qtz-f--node1-OLANEW_clean_sbu_2--edge1-TEMPAE_clean_linker_10
_symmetry_space_group_name_H-M    P1
_symmetry_Int_Tables_number       1
_symmetry_cell_setting            triclinic
loop_
_symmetry_equiv_pos_as_xyz
'x, y, z'
_cell_length_a     74.735547
_cell_length_b     74.737043
_cell_length_c     24.887961
_cell_angle_alpha  89.992473
_cell_angle_beta   90.006575
_cell_angle_gamma 120.01126
loop_
_atom_site_label
_atom_site_type_symbol
_atom_site_fract_x
_atom_site_fract_y
_atom_site_fract_z
_atom_type_partial_charge
O0 O 0.14467 0.49377 0.1578 0.0
Cd1 Cd 0.13966 0.45883 0.15725 0.0
O2 O 0.1226 0.48632 0.22407 0.0
Cd3 Cd 0.10936 0.45289 0.21874 0.0
O4 O 0.07947 0.42514 0.20498 0.0
C5 C 0.06977 0.42567 0.16359 0.0
O6 O 0.07906 0.44158 0.13101 0.0
C7 C 0.13595 0.49951 0.19207 0.0
C8 C 0.17099 0.4574 0.1 0.0
O9 O 0.15353 0.45206 0.07789 0.0
O10 O 0.17356 0.46328 0.14915 0.0
O11 O 0.64907 0.1421 0.46439 0.0
Cd12 Cd 0.67868 0.13659 0.4666 0.0
O13 O 0.64 0.13015 0.54655 0.0
Cd14 Cd 0.65904 0.11555 0.54708 0.0
O15 O 0.65634 0.08529 0.53617 0.0
C16 C 0.64746 0.07586 0.49315 0.0
O17 O 0.64239 0.08554 0.45752 0.0
C18 C 0.63759 0.13876 0.50527 0.0
C19 C 0.71372 0.17009 0.42248 0.0
O20 O 0.70267 0.15374 0.39471 0.0
O21 O 0.70827 0.17054 0.47104 0.0
O22 O 0.50185 0.65592 0.81981 0.0
Cd23 Cd 0.5361 0.68657 0.82856 0.0
O24 O 0.51032 0.63822 0.87441 0.0
Cd25 Cd 0.54351 0.66009 0.87577 0.0
O26 O 0.57182 0.65872 0.86554 0.0
C27 C 0.5698 0.64497 0.83211 0.0
O28 O 0.55222 0.63469 0.80606 0.0
C29 C 0.49682 0.63951 0.84623 0.0
C30 C 0.53871 0.72075 0.77604 0.0
O31 O 0.54525 0.70968 0.7535 0.0
O32 O 0.53096 0.71566 0.82328 0.0
O33 O 0.87285 0.50972 0.11784 0.0
Cd34 Cd 0.87906 0.5449 0.10733 0.0
O35 O 0.85615 0.50444 0.19434 0.0
Cd36 Cd 0.86927 0.53779 0.20254 0.0
O37 O 0.90017 0.56507 0.19949 0.0
C38 C 0.91427 0.5607 0.20882 0.0
O39 O 0.90875 0.54155 0.22149 0.0
C40 C 0.86218 0.4976 0.1557 0.0
C41 C 0.84561 0.54454 0.05668 0.0
O42 O 0.8617 0.54803 0.02996 0.0
O43 O 0.84542 0.54141 0.10735 0.0
O44 O 0.35878 0.86772 0.45578 0.0
Cd45 Cd 0.32896 0.87293 0.45498 0.0
O46 O 0.35236 0.85515 0.53795 0.0
Cd47 Cd 0.33282 0.86881 0.55129 0.0
O48 O 0.33685 0.89991 0.55104 0.0
C49 C 0.35414 0.91318 0.53113 0.0
O50 O 0.36658 0.90681 0.51345 0.0
C51 C 0.36271 0.85913 0.49462 0.0
C52 C 0.29453 0.83881 0.41084 0.0
O53 O 0.30571 0.85493 0.38245 0.0
O54 O 0.29953 0.83888 0.46012 0.0
O55 O 0.49678 0.35028 0.82368 0.0
Cd56 Cd 0.46173 0.32064 0.82842 0.0
O57 O 0.49474 0.36151 0.90378 0.0
Cd58 Cd 0.46115 0.34219 0.90654 0.0
O59 O 0.43349 0.34445 0.89269 0.0
C60 C 0.4347 0.3553 0.85203 0.0
O61 O 0.45116 0.36243 0.82128 0.0
C62 C 0.50533 0.36282 0.86242 0.0
C63 C 0.45923 0.28748 0.77079 0.0
O64 O 0.45342 0.2994 0.74973 0.0
O65 O 0.46597 0.29111 0.8192 0.0
O66 O 0.51087 0.87265 0.54393 0.0
Cd67 Cd 0.54628 0.87899 0.54834 0.0
O68 O 0.50698 0.86229 0.45982 0.0
Cd69 Cd 0.54053 0.87786 0.45096 0.0
O70 O 0.56728 0.9091 0.45574 0.0
C71 C 0.56331 0.92168 0.48005 0.0
O72 O 0.54466 0.91466 0.49973 0.0
C73 C 0.49932 0.86466 0.50307 0.0
C74 C 0.54672 0.84531 0.59503 0.0
O75 O 0.5425 0.84525 0.5451 0.0
O76 O 0.55097 0.86139 0.62282 0.0
O77 O 0.65711 0.49892 0.82587 0.0
Cd78 Cd 0.68821 0.53243 0.81155 0.0
O79 O 0.63746 0.50934 0.78712 0.0
Cd80 Cd 0.66036 0.54217 0.78151 0.0
O81 O 0.66 0.57109 0.78931 0.0
C82 C 0.65055 0.57203 0.83073 0.0
O83 O 0.64392 0.55693 0.86597 0.0
C84 C 0.6395 0.49505 0.80879 0.0
C85 C 0.72222 0.53547 0.86601 0.0
O86 O 0.71171 0.54313 0.88605 0.0
O87 O 0.71666 0.52641 0.82033 0.0
O88 O 0.14604 0.64897 0.19828 0.0
Cd89 Cd 0.14124 0.67901 0.19537 0.0
O90 O 0.12026 0.63178 0.14218 0.0
Cd91 Cd 0.10759 0.6525 0.14664 0.0
O92 O 0.07815 0.65145 0.15932 0.0
C93 C 0.0646 0.64289 0.12274 0.0
O94 O 0.06978 0.63718 0.07818 0.0
C95 C 0.13526 0.63308 0.16945 0.0
C96 C 0.17407 0.71356 0.24334 0.0
O97 O 0.17531 0.70851 0.19486 0.0
O98 O 0.15728 0.70229 0.26927 0.0
O99 O 0.49801 0.14895 0.49512 0.0
Cd100 Cd 0.46336 0.14461 0.49167 0.0
O101 O 0.48686 0.11699 0.46878 0.0
Cd102 Cd 0.45369 0.1057 0.47167 0.0
O103 O 0.42504 0.07633 0.4824 0.0
C104 C 0.42324 0.06695 0.52642 0.0
O105 O 0.43742 0.07634 0.56358 0.0
C106 C 0.5017 0.13471 0.48167 0.0
C107 C 0.46102 0.1748 0.55203 0.0
O108 O 0.45516 0.15687 0.57181 0.0
O109 O 0.46788 0.17839 0.50373 0.0
O110 O 0.3505 0.49768 0.83671 0.0
Cd111 Cd 0.32092 0.46256 0.83272 0.0
O112 O 0.3648 0.4929 0.76505 0.0
Cd113 Cd 0.34515 0.45932 0.76585 0.0
O114 O 0.34727 0.43165 0.7811 0.0
C115 C 0.35935 0.43365 0.81952 0.0
O116 O 0.36777 0.4509 0.84739 0.0
C117 C 0.36465 0.50484 0.80125 0.0
C118 C 0.28743 0.45969 0.88952 0.0
O119 O 0.29118 0.4665 0.84119 0.0
O120 O 0.29943 0.45407 0.911 0.0
O121 O 0.8661 0.35779 0.21689 0.0
Cd122 Cd 0.87218 0.32851 0.21951 0.0
O123 O 0.85728 0.35282 0.13152 0.0
Cd124 Cd 0.87213 0.33419 0.12226 0.0
O125 O 0.90321 0.33827 0.12642 0.0
C126 C 0.91566 0.35397 0.15385 0.0
O127 O 0.90858 0.36501 0.17693 0.0
C128 C 0.85905 0.36222 0.17556 0.0
C129 C 0.83834 0.29356 0.26272 0.0
O130 O 0.85417 0.30508 0.29173 0.0
O131 O 0.83857 0.2985 0.21332 0.0
C132 C 0.26181 0.47128 0.90534 0.0
C133 C 0.26993 0.45864 0.91986 0.0
C134 C 0.24562 0.47095 0.93469 0.0
C135 C 0.237 0.45727 0.97877 0.0
C136 C 0.24487 0.44416 0.99294 0.0
C137 C 0.26144 0.4452 0.96371 0.0
C138 C 0.23796 0.48549 0.91909 0.0
C139 C 0.23577 0.42903 0.03889 0.0
C140 C 0.20837 0.46929 0.08597 0.0
C141 C 0.18778 0.45703 0.06952 0.0
C142 C 0.22456 0.46958 0.05664 0.0
C143 C 0.21997 0.45692 0.01053 0.0
C144 C 0.19916 0.44421 0.99435 0.0
C145 C 0.18332 0.44462 0.02368 0.0
C146 C 0.24657 0.48369 0.07449 0.0
C147 C 0.19364 0.43016 0.94612 0.0
H148 H 0.26843 0.4818 0.87168 0.0
H149 H 0.26759 0.4353 0.9748 0.0
H150 H 0.22129 0.47658 0.90888 0.0
H151 H 0.23964 0.49564 0.95355 0.0
H152 H 0.24649 0.49536 0.88419 0.0
H153 H 0.24309 0.41932 0.04331 0.0
H154 H 0.23774 0.43748 0.07707 0.0
H155 H 0.21893 0.41876 0.03259 0.0
H156 H 0.21189 0.47901 0.1212 0.0
H157 H 0.1674 0.43501 0.01107 0.0
H158 H 0.25546 0.4946 0.04166 0.0
H159 H 0.25418 0.47452 0.08332 0.0
H160 H 0.24753 0.49275 0.11085 0.0
H161 H 0.20058 0.43946 0.90933 0.0
H162 H 0.17667 0.42061 0.94018 0.0
H163 H 0.20009 0.41972 0.95084 0.0
C164 C 0.73903 0.20792 0.41908 0.0
C165 C 0.73216 0.18799 0.3991 0.0
C166 C 0.75625 0.22515 0.39659 0.0
C167 C 0.76719 0.22228 0.35416 0.0
C168 C 0.76051 0.20213 0.33446 0.0
C169 C 0.74287 0.18524 0.35666 0.0
C170 C 0.76257 0.24644 0.41777 0.0
C171 C 0.77209 0.1984 0.29021 0.0
C172 C 0.80067 0.26751 0.26245 0.0
C173 C 0.82024 0.27519 0.28569 0.0
C174 C 0.78323 0.2504 0.2846 0.0
C175 C 0.78555 0.2404 0.33019 0.0
C176 C 0.80536 0.24786 0.35321 0.0
C177 C 0.82244 0.26536 0.33111 0.0
C178 C 0.76229 0.24323 0.25972 0.0
C179 C 0.80854 0.23731 0.40101 0.0
H180 H 0.73067 0.21009 0.45163 0.0
H181 H 0.73767 0.16982 0.34142 0.0
H182 H 0.77852 0.25382 0.43393 0.0
H183 H 0.76258 0.25636 0.38458 0.0
H184 H 0.75211 0.24606 0.45002 0.0
H185 H 0.76531 0.18172 0.28078 0.0
H186 H 0.77199 0.20659 0.25316 0.0
H187 H 0.78848 0.20472 0.30204 0.0
H188 H 0.7989 0.27518 0.22755 0.0
H189 H 0.83759 0.27118 0.34893 0.0
H190 H 0.75164 0.2436 0.29021 0.0
H191 H 0.75547 0.227 0.24594 0.0
H192 H 0.76307 0.25293 0.22499 0.0
H193 H 0.79962 0.23791 0.4359 0.0
H194 H 0.82506 0.24454 0.41275 0.0
H195 H 0.80266 0.22077 0.39178 0.0
C196 C 0.55742 0.82938 0.66732 0.0
C197 C 0.54628 0.82716 0.62009 0.0
C198 C 0.55687 0.81221 0.69195 0.0
C199 C 0.54443 0.7923 0.66956 0.0
C200 C 0.5331 0.78997 0.62193 0.0
C201 C 0.53438 0.80749 0.59737 0.0
C202 C 0.56955 0.81537 0.74198 0.0
C203 C 0.5193 0.76895 0.59753 0.0
C204 C 0.5545 0.74881 0.70718 0.0
C205 C 0.5401 0.73893 0.74849 0.0
C206 C 0.55625 0.76635 0.6815 0.0
C207 C 0.54292 0.77384 0.69663 0.0
C208 C 0.52814 0.76371 0.73776 0.0
C209 C 0.52709 0.74653 0.76367 0.0
C210 C 0.57251 0.77701 0.63865 0.0
C211 C 0.51333 0.77094 0.75418 0.0
H212 H 0.56675 0.8446 0.68477 0.0
H213 H 0.52562 0.8057 0.56105 0.0
H214 H 0.55922 0.80711 0.7763 0.0
H215 H 0.5798 0.80875 0.73615 0.0
H216 H 0.57921 0.83195 0.75272 0.0
H217 H 0.51145 0.76978 0.56049 0.0
H218 H 0.52845 0.76143 0.58754 0.0
H219 H 0.50735 0.75888 0.62707 0.0
H220 H 0.56469 0.74306 0.69559 0.0
H221 H 0.51583 0.73884 0.79533 0.0
H222 H 0.58295 0.79339 0.64991 0.0
H223 H 0.56511 0.77697 0.6 0.0
H224 H 0.58195 0.76949 0.63236 0.0
H225 H 0.52206 0.78699 0.76964 0.0
H226 H 0.50232 0.76097 0.78569 0.0
H227 H 0.50439 0.77108 0.71874 0.0
C228 C 0.74704 0.52299 0.88362 0.0
C229 C 0.74027 0.53702 0.89469 0.0
C230 C 0.76406 0.52415 0.91074 0.0
C231 C 0.77487 0.54007 0.94884 0.0
C232 C 0.76822 0.55443 0.95974 0.0
C233 C 0.75082 0.55257 0.93301 0.0
C234 C 0.77038 0.50826 0.89892 0.0
C235 C 0.77962 0.57188 0.99921 0.0
C236 C 0.808 0.53318 0.05335 0.0
C237 C 0.82764 0.54384 0.0297 0.0
C238 C 0.79067 0.53177 0.02738 0.0
C239 C 0.79314 0.54167 0.9772 0.0
C240 C 0.81301 0.55281 0.95368 0.0
C241 C 0.83 0.55354 0.97992 0.0
C242 C 0.76966 0.51937 0.05318 0.0
C243 C 0.81634 0.56396 0.90079 0.0
H244 H 0.73883 0.51085 0.85428 0.0
H245 H 0.7457 0.56354 0.94139 0.0
H246 H 0.78636 0.51596 0.88286 0.0
H247 H 0.77032 0.50026 0.93655 0.0
H248 H 0.75997 0.49651 0.86938 0.0
H249 H 0.77274 0.58202 0.00227 0.0
H250 H 0.7795 0.56558 0.03964 0.0
H251 H 0.79603 0.58143 0.98686 0.0
H252 H 0.8061 0.52554 0.09168 0.0
H253 H 0.84519 0.56191 0.96169 0.0
H254 H 0.75912 0.50674 0.02581 0.0
H255 H 0.76278 0.52932 0.06013 0.0
H256 H 0.77035 0.51248 0.09214 0.0
H257 H 0.80757 0.5527 0.86855 0.0
H258 H 0.8329 0.57269 0.88911 0.0
H259 H 0.8104 0.57489 0.90327 0.0
C260 C 0.1881 0.74193 0.31148 0.0
C261 C 0.19154 0.73188 0.26856 0.0
C262 C 0.20453 0.75958 0.33508 0.0
C263 C 0.22492 0.76697 0.31622 0.0
C264 C 0.2285 0.75667 0.27342 0.0
C265 C 0.21171 0.7394 0.24962 0.0
C266 C 0.20005 0.77043 0.37978 0.0
C267 C 0.25006 0.76377 0.25306 0.0
C268 C 0.26659 0.8226 0.34186 0.0
C269 C 0.2765 0.82053 0.38726 0.0
C270 C 0.2495 0.80534 0.31898 0.0
C271 C 0.24254 0.78549 0.3412 0.0
C272 C 0.25261 0.78331 0.38684 0.0
C273 C 0.26931 0.8009 0.40976 0.0
C274 C 0.23886 0.80836 0.27113 0.0
C275 C 0.24596 0.76235 0.4109 0.0
H276 H 0.17249 0.73623 0.32596 0.0
H277 H 0.21444 0.73157 0.21669 0.0
H278 H 0.20829 0.77047 0.41687 0.0
H279 H 0.20582 0.7868 0.36863 0.0
H280 H 0.18328 0.76302 0.38885 0.0
H281 H 0.25027 0.75368 0.22059 0.0
H282 H 0.25706 0.77978 0.23742 0.0
H283 H 0.25998 0.76399 0.28654 0.0
H284 H 0.27203 0.83778 0.32461 0.0
H285 H 0.27704 0.79923 0.44464 0.0
H286 H 0.22218 0.80187 0.27984 0.0
H287 H 0.24002 0.7999 0.23592 0.0
H288 H 0.24562 0.82491 0.26014 0.0
H289 H 0.2296 0.75493 0.42395 0.0
H290 H 0.25559 0.76327 0.44597 0.0
H291 H 0.24699 0.75215 0.38014 0.0
C292 C 0.47136 0.26232 0.75425 0.0
C293 C 0.4586 0.27031 0.73978 0.0
C294 C 0.47158 0.2466 0.72397 0.0
C295 C 0.45835 0.23833 0.67893 0.0
C296 C 0.44508 0.24601 0.66487 0.0
C297 C 0.44555 0.26211 0.69509 0.0
C298 C 0.48627 0.23912 0.73955 0.0
C299 C 0.43043 0.23727 0.61784 0.0
C300 C 0.47225 0.21183 0.56988 0.0
C301 C 0.46009 0.19097 0.58411 0.0
C302 C 0.47191 0.22741 0.60058 0.0
C303 C 0.45874 0.22194 0.64588 0.0
C304 C 0.44616 0.20087 0.65992 0.0
C305 C 0.44717 0.18563 0.6292 0.0
C306 C 0.48587 0.24973 0.58497 0.0
C307 C 0.43161 0.19442 0.70727 0.0
H308 H 0.48157 0.26873 0.78856 0.0
H309 H 0.43556 0.26815 0.68401 0.0
H310 H 0.47754 0.2223 0.74794 0.0
H311 H 0.49692 0.24157 0.70569 0.0
H312 H 0.49561 0.24722 0.77556 0.0
H313 H 0.42043 0.24428 0.61378 0.0
H314 H 0.4393 0.23997 0.58007 0.0
H315 H 0.42043 0.2203 0.62251 0.0
H316 H 0.48236 0.21604 0.53525 0.0
H317 H 0.43763 0.16951 0.64012 0.0
H318 H 0.49632 0.25829 0.61887 0.0
H319 H 0.47651 0.25715 0.57635 0.0
H320 H 0.49541 0.25139 0.54907 0.0
H321 H 0.44048 0.20103 0.74484 0.0
H322 H 0.42233 0.17736 0.71169 0.0
H323 H 0.4209 0.20057 0.70268 0.0
C324 C 0.15445 0.61563 0.20287 0.0
C325 C 0.13917 0.61547 0.16974 0.0
C326 C 0.15686 0.59818 0.20686 0.0
C327 C 0.14361 0.58016 0.17721 0.0
C328 C 0.12872 0.58021 0.14214 0.0
C329 C 0.12672 0.59784 0.13876 0.0
C330 C 0.17303 0.59876 0.2443 0.0
C331 C 0.11429 0.56131 0.10977 0.0
C332 C 0.15369 0.53566 0.15522 0.0
C333 C 0.14004 0.5211 0.19243 0.0
C334 C 0.15585 0.55541 0.15154 0.0
C335 C 0.14401 0.56066 0.18564 0.0
C336 C 0.13097 0.54638 0.22492 0.0
C337 C 0.12919 0.52683 0.22792 0.0
C338 C 0.17008 0.57031 0.10954 0.0
C339 C 0.11807 0.55137 0.26207 0.0
H340 H 0.16422 0.6292 0.22678 0.0
H341 H 0.11494 0.59757 0.11277 0.0
H342 H 0.16536 0.58826 0.27879 0.0
H343 H 0.18243 0.59318 0.2234 0.0
H344 H 0.18349 0.61453 0.26009 0.0
H345 H 0.10441 0.56427 0.082 0.0
H346 H 0.12323 0.55594 0.08586 0.0
H347 H 0.10411 0.54855 0.13729 0.0
H348 H 0.16224 0.53143 0.12785 0.0
H349 H 0.1187 0.51577 0.25705 0.0
H350 H 0.18012 0.58578 0.12747 0.0
H351 H 0.16078 0.57215 0.07758 0.0
H352 H 0.18002 0.5649 0.0907 0.0
H353 H 0.12791 0.56632 0.28264 0.0
H354 H 0.10992 0.53923 0.29301 0.0
H355 H 0.10636 0.55295 0.23833 0.0
C356 C 0.5398 0.15734 0.49867 0.0
C357 C 0.5231 0.13828 0.48243 0.0
C358 C 0.5599 0.16031 0.50193 0.0
C359 C 0.56332 0.14382 0.48881 0.0
C360 C 0.54661 0.12473 0.47127 0.0
C361 C 0.52676 0.12222 0.46824 0.0
C362 C 0.57738 0.1809 0.52051 0.0
C363 C 0.54959 0.10675 0.45689 0.0
C364 C 0.61585 0.15033 0.45601 0.0
C365 C 0.6203 0.14313 0.5034 0.0
C366 C 0.59789 0.15182 0.45162 0.0
C367 C 0.58407 0.14593 0.49561 0.0
C368 C 0.5891 0.13982 0.54453 0.0
C369 C 0.60715 0.13852 0.54785 0.0
C370 C 0.59314 0.15856 0.39892 0.0
C371 C 0.57481 0.13348 0.59246 0.0
H372 H 0.53715 0.16985 0.50957 0.0
H373 H 0.51401 0.10745 0.45544 0.0
H374 H 0.58347 0.17897 0.55941 0.0
H375 H 0.59029 0.18692 0.49122 0.0
H376 H 0.57245 0.19257 0.52574 0.0
H377 H 0.53512 0.09317 0.44222 0.0
H378 H 0.56158 0.1114 0.4253 0.0
H379 H 0.55507 0.10198 0.49261 0.0
H380 H 0.62597 0.15407 0.42154 0.0
H381 H 0.61052 0.13311 0.58481 0.0
H382 H 0.58839 0.17027 0.40577 0.0
H383 H 0.58004 0.1451 0.37903 0.0
H384 H 0.60658 0.16513 0.37116 0.0
H385 H 0.5704 0.14531 0.60117 0.0
H386 H 0.58192 0.13115 0.62906 0.0
H387 H 0.5604 0.11881 0.58336 0.0
C388 C 0.46043 0.62212 0.81083 0.0
C389 C 0.47567 0.62138 0.84216 0.0
C390 C 0.4409 0.60445 0.8037 0.0
C391 C 0.4366 0.58561 0.82818 0.0
C392 C 0.45169 0.58494 0.86112 0.0
C393 C 0.47097 0.60281 0.86783 0.0
C394 C 0.4251 0.60579 0.76875 0.0
C395 C 0.44775 0.56513 0.88784 0.0
C396 C 0.3825 0.5397 0.84548 0.0
C397 C 0.38181 0.52655 0.80427 0.0
C398 C 0.39984 0.55947 0.85218 0.0
C399 C 0.4169 0.56618 0.81701 0.0
C400 C 0.41588 0.55338 0.77384 0.0
C401 C 0.39835 0.53376 0.76792 0.0
C402 C 0.40027 0.57278 0.89836 0.0
C403 C 0.43376 0.55994 0.73548 0.0
H404 H 0.46387 0.63641 0.79102 0.0
H405 H 0.48258 0.60204 0.89226 0.0
H406 H 0.42234 0.59635 0.73201 0.0
H407 H 0.41014 0.59939 0.79025 0.0
H408 H 0.43015 0.62192 0.75649 0.0
H409 H 0.46075 0.56742 0.91409 0.0
H410 H 0.43348 0.55863 0.91244 0.0
H411 H 0.44534 0.55349 0.85676 0.0
H412 H 0.36976 0.53434 0.87358 0.0
H413 H 0.39795 0.52379 0.73575 0.0
H414 H 0.40531 0.58869 0.88428 0.0
H415 H 0.41163 0.5739 0.92884 0.0
H416 H 0.38495 0.56643 0.91807 0.0
H417 H 0.4386 0.57548 0.71886 0.0
H418 H 0.4299 0.54894 0.70158 0.0
H419 H 0.4472 0.56101 0.75738 0.0
C420 C 0.8648 0.39525 0.21585 0.0
C421 C 0.85502 0.3797 0.1771 0.0
C422 C 0.86371 0.41343 0.21341 0.0
C423 C 0.85214 0.4159 0.17194 0.0
C424 C 0.84114 0.39967 0.13477 0.0
C425 C 0.84293 0.38185 0.13736 0.0
C426 C 0.87597 0.4305 0.25326 0.0
C427 C 0.82819 0.4015 0.0909 0.0
C428 C 0.8426 0.46103 0.189 0.0
C429 C 0.85825 0.47612 0.15665 0.0
C430 C 0.83981 0.44102 0.19269 0.0
C431 C 0.85333 0.43622 0.16448 0.0
C432 C 0.8689 0.4513 0.13106 0.0
C433 C 0.871 0.47097 0.12708 0.0
C434 C 0.82269 0.42516 0.22758 0.0
C435 C 0.88388 0.44694 0.10104 0.0
H436 H 0.87425 0.39373 0.24653 0.0
H437 H 0.83518 0.36979 0.10758 0.0
H438 H 0.88844 0.44405 0.2319 0.0
H439 H 0.86595 0.43563 0.27269 0.0
H440 H 0.88311 0.42565 0.28504 0.0
H441 H 0.81843 0.38656 0.07002 0.0
H442 H 0.81805 0.40701 0.10767 0.0
H443 H 0.83842 0.41303 0.06078 0.0
H444 H 0.83261 0.46489 0.21165 0.0
H445 H 0.8832 0.48259 0.10225 0.0
H446 H 0.8294 0.42139 0.26257 0.0
H447 H 0.81334 0.41063 0.20476 0.0
H448 H 0.81232 0.43069 0.24268 0.0
H449 H 0.89283 0.44321 0.13002 0.0
H450 H 0.8949 0.46025 0.07608 0.0
H451 H 0.87535 0.43331 0.07452 0.0
C452 C 0.46311 0.84612 0.46739 0.0
C453 C 0.47759 0.85993 0.50437 0.0
C454 C 0.44295 0.84301 0.46543 0.0
C455 C 0.43741 0.85445 0.5002 0.0
C456 C 0.45184 0.86801 0.5385 0.0
C457 C 0.47166 0.87038 0.54057 0.0
C458 C 0.4278 0.82796 0.42516 0.0
C459 C 0.44671 0.88082 0.57557 0.0
C460 C 0.39704 0.86801 0.45669 0.0
C461 C 0.38063 0.85585 0.4915 0.0
C462 C 0.41539 0.86724 0.45804 0.0
C463 C 0.41718 0.85356 0.49411 0.0
C464 C 0.40022 0.84036 0.52714 0.0
C465 C 0.38222 0.84188 0.52602 0.0
C466 C 0.43325 0.88188 0.42291 0.0
C467 C 0.40133 0.82516 0.56494 0.0
H468 H 0.46759 0.83788 0.43961 0.0
H469 H 0.48283 0.88117 0.56902 0.0
H470 H 0.41284 0.81744 0.44499 0.0
H471 H 0.42471 0.83651 0.39351 0.0
H472 H 0.43366 0.81852 0.40562 0.0
H473 H 0.45943 0.89016 0.60417 0.0
H474 H 0.44355 0.89144 0.5515 0.0
H475 H 0.43253 0.87071 0.5989 0.0
H476 H 0.39595 0.87894 0.43016 0.0
H477 H 0.36951 0.83233 0.55272 0.0
H478 H 0.43876 0.87321 0.39837 0.0
H479 H 0.44635 0.8928 0.44853 0.0
H480 H 0.42907 0.89095 0.39552 0.0
H481 H 0.40727 0.81614 0.54359 0.0
H482 H 0.38604 0.81426 0.58271 0.0
H483 H 0.41226 0.83362 0.59807 0.0
C484 C 0.60159 0.47064 0.7992 0.0
C485 C 0.62109 0.47422 0.81549 0.0
C486 C 0.58377 0.45143 0.80733 0.0
C487 C 0.58542 0.43529 0.83218 0.0
C488 C 0.60506 0.43859 0.84775 0.0
C489 C 0.62269 0.45805 0.83933 0.0
C490 C 0.56309 0.44856 0.79021 0.0
C491 C 0.60741 0.42167 0.87406 0.0
C492 C 0.53576 0.39496 0.89818 0.0
C493 C 0.52701 0.37993 0.8577 0.0
C494 C 0.55527 0.41259 0.89148 0.0
C495 C 0.56635 0.41525 0.84322 0.0
C496 C 0.55812 0.39963 0.80344 0.0
C497 C 0.53853 0.38216 0.81111 0.0
C498 C 0.56351 0.4289 0.93489 0.0
C499 C 0.56954 0.40183 0.7516 0.0
H500 H 0.60014 0.48298 0.78069 0.0
H501 H 0.63769 0.46065 0.85193 0.0
H502 H 0.55538 0.43534 0.76204 0.0
H503 H 0.55288 0.44492 0.82576 0.0
H504 H 0.56452 0.46253 0.77031 0.0
H505 H 0.62385 0.42638 0.88136 0.0
H506 H 0.5991 0.4174 0.91305 0.0
H507 H 0.60033 0.40763 0.84851 0.0
H508 H 0.52706 0.39334 0.93447 0.0
H509 H 0.53198 0.37058 0.77973 0.0
H510 H 0.56377 0.44302 0.91994 0.0
H511 H 0.57961 0.43327 0.94531 0.0
H512 H 0.55396 0.42366 0.97196 0.0
H513 H 0.56979 0.41434 0.72701 0.0
H514 H 0.56223 0.38736 0.7276 0.0
H515 H 0.58583 0.40625 0.75989 0.0
C516 C 0.0363 0.41347 0.11557 0.0
C517 C 0.04747 0.4106 0.1567 0.0
C518 C 0.01469 0.40155 0.11332 0.0
C519 C 0.00396 0.38624 0.15287 0.0
C520 C 0.01521 0.38224 0.19218 0.0
C521 C 0.03686 0.39454 0.19379 0.0
C522 C 0.00329 0.40635 0.07075 0.0
C523 C 0.00434 0.36583 0.23453 0.0
C524 C 0.95114 0.37836 0.1873 0.0
C525 C 0.93798 0.36081 0.15696 0.0
C526 C 0.97255 0.38632 0.1876 0.0
C527 C 0.98109 0.37646 0.15696 0.0
C528 C 0.96787 0.35826 0.12787 0.0
C529 C 0.94643 0.35065 0.12811 0.0
C530 C 0.98608 0.40576 0.21922 0.0
C531 C 0.97643 0.34723 0.09518 0.0
H532 H 0.04435 0.42572 0.08644 0.0
H533 H 0.04536 0.39208 0.22542 0.0
H534 H 0.99164 0.39197 0.05055 0.0
H535 H 0.9949 0.41342 0.08985 0.0
H536 H 0.01389 0.41719 0.03981 0.0
H537 H 0.01522 0.36248 0.25684 0.0
H538 H 0.99671 0.37108 0.26371 0.0
H539 H 0.99212 0.3513 0.21613 0.0
H540 H 0.94477 0.38625 0.21004 0.0
H541 H 0.93636 0.33704 0.10473 0.0
H542 H 0.99634 0.41836 0.1914 0.0
H543 H 0.99613 0.40318 0.24719 0.0
H544 H 0.97694 0.411 0.24286 0.0
H545 H 0.98533 0.35704 0.06065 0.0
H546 H 0.96404 0.33217 0.07948 0.0
H547 H 0.98723 0.34452 0.11977 0.0
C548 C 0.62744 0.04265 0.443 0.0
C549 C 0.63994 0.05346 0.48697 0.0
C550 C 0.61742 0.02103 0.44049 0.0
C551 C 0.6201 0.00991 0.48277 0.0
C552 C 0.63385 0.02078 0.52537 0.0
C553 C 0.64356 0.04245 0.52709 0.0
C554 C 0.60287 0.01004 0.39435 0.0
C555 C 0.63733 0.00949 0.57082 0.0
C556 C 0.57346 0.95734 0.51009 0.0
C557 C 0.57872 0.94402 0.48376 0.0
C558 C 0.58706 0.97871 0.51123 0.0
C559 C 0.60652 0.98707 0.4856 0.0
C560 C 0.61227 0.97369 0.46043 0.0
C561 C 0.59826 0.95228 0.45969 0.0
C562 C 0.5803 0.99242 0.53852 0.0
C563 C 0.63295 0.98204 0.43311 0.0
H564 H 0.62466 0.05101 0.41156 0.0
H565 H 0.65335 0.05068 0.56099 0.0
H566 H 0.606 0.99823 0.37684 0.0
H567 H 0.58672 0.00188 0.40931 0.0
H568 H 0.60414 0.02087 0.36204 0.0
H569 H 0.65065 0.02008 0.59641 0.0
H570 H 0.6233 0.00191 0.5964 0.0
H571 H 0.64007 0.99719 0.55499 0.0
H572 H 0.55846 0.95112 0.52908 0.0
H573 H 0.60248 0.94209 0.43944 0.0
H574 H 0.57937 0.00292 0.50855 0.0
H575 H 0.59182 0.00222 0.56922 0.0
H576 H 0.56499 0.98342 0.55834 0.0
H577 H 0.63367 0.99136 0.39762 0.0
H578 H 0.63582 0.96953 0.41958 0.0
H579 H 0.64557 0.99243 0.4607 0.0
C580 C 0.58128 0.62107 0.7972 0.0
C581 C 0.58564 0.63865 0.82737 0.0
C582 C 0.59473 0.61312 0.79728 0.0
C583 C 0.61319 0.62313 0.8277 0.0
C584 C 0.61832 0.64158 0.8557 0.0
C585 C 0.60439 0.64906 0.85554 0.0
C586 C 0.58859 0.59333 0.76707 0.0
C587 C 0.63807 0.65292 0.88763 0.0
C588 C 0.63021 0.58594 0.8756 0.0
C589 C 0.64399 0.58769 0.83492 0.0
C590 C 0.62099 0.59829 0.87543 0.0
C591 C 0.62586 0.61299 0.83395 0.0
C592 C 0.64095 0.61595 0.79511 0.0
C593 C 0.64976 0.60316 0.79582 0.0
C594 C 0.60491 0.59455 0.91752 0.0
C595 C 0.6469 0.63179 0.75099 0.0
H596 H 0.5669 0.61297 0.77506 0.0
H597 H 0.60796 0.66275 0.8786 0.0
H598 H 0.6012 0.59542 0.73968 0.0
H599 H 0.58595 0.58093 0.79594 0.0
H600 H 0.57429 0.5881 0.74302 0.0
H601 H 0.64123 0.66846 0.90048 0.0
H602 H 0.63698 0.64385 0.92402 0.0
H603 H 0.65138 0.65466 0.86368 0.0
H604 H 0.62577 0.57417 0.90626 0.0
H605 H 0.66056 0.60477 0.76454 0.0
H606 H 0.58948 0.58775 0.89826 0.0
H607 H 0.60818 0.60933 0.93633 0.0
H608 H 0.60421 0.58388 0.94961 0.0
H609 H 0.63417 0.62628 0.72125 0.0
H610 H 0.66114 0.6346 0.72971 0.0
H611 H 0.64937 0.64665 0.76745 0.0
C612 C 0.9514 0.57044 0.2106 0.0
C613 C 0.93642 0.57612 0.20101 0.0
C614 C 0.97228 0.58395 0.19899 0.0
C615 C 0.97844 0.60372 0.17745 0.0
C616 C 0.96355 0.60992 0.16959 0.0
C617 C 0.94266 0.596 0.18136 0.0
C618 C 0.98766 0.57671 0.20804 0.0
C619 C 0.96957 0.63095 0.14715 0.0
C620 C 0.03644 0.63965 0.18395 0.0
C621 C 0.04261 0.63616 0.13361 0.0
C622 C 0.01542 0.63033 0.19765 0.0
C623 C 0.00027 0.61715 0.16021 0.0
C624 C 0.00637 0.61477 0.10809 0.0
C625 C 0.02745 0.62435 0.09538 0.0
C626 C 0.00952 0.63349 0.25338 0.0
C627 C 0.9907 0.60089 0.0669 0.0
H628 H 0.94678 0.55518 0.22605 0.0
H629 H 0.93118 0.60053 0.17398 0.0
H630 H 0.99446 0.57596 0.16906 0.0
H631 H 0.00051 0.58786 0.2339 0.0
H632 H 0.98051 0.56123 0.22722 0.0
H633 H 0.95661 0.6342 0.14859 0.0
H634 H 0.98286 0.64318 0.16979 0.0
H635 H 0.97455 0.63191 0.10475 0.0
H636 H 0.04803 0.64891 0.21362 0.0
H637 H 0.03203 0.62172 0.05619 0.0
H638 H 0.00441 0.61923 0.27741 0.0
H639 H 0.99642 0.63649 0.25167 0.0
H640 H 0.02266 0.64653 0.27457 0.0
H641 H 0.98378 0.58455 0.07989 0.0
H642 H 0.99772 0.60248 0.02657 0.0
H643 H 0.97798 0.6044 0.06351 0.0
C644 C 0.39411 0.03384 0.48996 0.0
C645 C 0.40783 0.04467 0.53198 0.0
C646 C 0.3821 0.01217 0.49088 0.0
C647 C 0.38398 0.00112 0.53466 0.0
C648 C 0.39662 0.01206 0.57895 0.0
C649 C 0.40833 0.0337 0.57717 0.0
C650 C 0.36856 0.00109 0.44324 0.0
C651 C 0.39907 0.00088 0.62646 0.0
C652 C 0.34859 0.94305 0.5514 0.0
C653 C 0.36084 0.93548 0.52959 0.0
C654 C 0.35561 0.96438 0.55217 0.0
C655 C 0.37532 0.97839 0.53083 0.0
C656 C 0.38749 0.97076 0.50767 0.0
C657 C 0.3801 0.94946 0.50726 0.0
C658 C 0.34216 0.97197 0.57681 0.0
C659 C 0.40862 0.98514 0.48443 0.0
H660 H 0.39345 0.04219 0.45511 0.0
H661 H 0.41871 0.04191 0.61011 0.0
H662 H 0.37591 0.99406 0.419 0.0
H663 H 0.35329 0.98839 0.45666 0.0
H664 H 0.36614 0.01172 0.41698 0.0
H665 H 0.40737 0.01152 0.66033 0.0
H666 H 0.38377 0.98861 0.64095 0.0
H667 H 0.40793 0.9933 0.61399 0.0
H668 H 0.33366 0.93234 0.56858 0.0
H669 H 0.38965 0.94379 0.49005 0.0
H670 H 0.34034 0.98242 0.54853 0.0
H671 H 0.34966 0.98103 0.61358 0.0
H672 H 0.3266 0.95907 0.58771 0.0
H673 H 0.40749 0.99504 0.45294 0.0
H674 H 0.41586 0.97668 0.46654 0.0
H675 H 0.41898 0.99552 0.51636 0.0
C676 C 0.40222 0.3555 0.87708 0.0
C677 C 0.41951 0.36228 0.84349 0.0
C678 C 0.3893 0.36411 0.87329 0.0
C679 C 0.39397 0.38003 0.83552 0.0
C680 C 0.41077 0.38616 0.79975 0.0
C681 C 0.42324 0.37713 0.80396 0.0
C682 C 0.37128 0.35689 0.91139 0.0
C683 C 0.41636 0.40316 0.75904 0.0
C684 C 0.35784 0.40007 0.79789 0.0
C685 C 0.36606 0.41827 0.82843 0.0
C686 C 0.36597 0.38673 0.80193 0.0
C687 C 0.38285 0.3919 0.83678 0.0
C688 C 0.39052 0.40973 0.86951 0.0
C689 C 0.38196 0.4226 0.86517 0.0
C690 C 0.35712 0.36764 0.76717 0.0
C691 C 0.40857 0.41587 0.90704 0.0
H692 H 0.39912 0.3439 0.90744 0.0
H693 H 0.43647 0.3824 0.77758 0.0
H694 H 0.37474 0.36907 0.94173 0.0
H695 H 0.3572 0.35412 0.88943 0.0
H696 H 0.36795 0.34249 0.93277 0.0
H697 H 0.42897 0.4051 0.73173 0.0
H698 H 0.40268 0.39989 0.73443 0.0
H699 H 0.42143 0.418 0.78021 0.0
H700 H 0.34544 0.39651 0.76971 0.0
H701 H 0.38835 0.43656 0.88918 0.0
H702 H 0.35448 0.35403 0.79122 0.0
H703 H 0.3683 0.36981 0.735 0.0
H704 H 0.34232 0.36428 0.74806 0.0
H705 H 0.40556 0.40282 0.93391 0.0
H706 H 0.41183 0.42945 0.9322 0.0
H707 H 0.42262 0.41972 0.88331 0.0
loop_
_geom_bond_atom_site_label_1
_geom_bond_atom_site_label_2
_geom_bond_distance
_geom_bond_site_symmetry_2
_ccdc_geom_bond_type
O0 Cd1 2.300 . S
O0 C7 1.275 . S
Cd1 O0 2.300 . S
Cd1 O9 2.381 . S
Cd1 O10 2.378 . S
O2 Cd3 2.385 . S
O2 C7 1.255 . S
Cd3 O2 2.385 . S
Cd3 O4 2.317 . S
O4 Cd3 2.317 . S
O4 C5 1.232 . S
C5 O4 1.232 . S
C5 O6 1.218 . S
O6 C5 1.218 . S
C7 O0 1.275 . S
C7 O2 1.255 . S
C8 O9 1.258 . S
C8 O10 1.256 . S
O9 Cd1 2.381 . S
O9 C8 1.258 . S
O10 Cd1 2.378 . S
O10 C8 1.256 . S
O11 Cd12 2.300 . S
O11 C18 1.275 . S
Cd12 O11 2.300 . S
Cd12 O20 2.381 . S
Cd12 O21 2.378 . S
O13 Cd14 2.385 . S
O13 C18 1.255 . S
Cd14 O13 2.385 . S
Cd14 O15 2.317 . S
O15 Cd14 2.317 . S
O15 C16 1.232 . S
C16 O15 1.232 . S
C16 O17 1.218 . S
O17 C16 1.218 . S
C18 O11 1.275 . S
C18 O13 1.255 . S
C19 O20 1.258 . S
C19 O21 1.256 . S
O20 Cd12 2.381 . S
O20 C19 1.258 . S
O21 Cd12 2.378 . S
O21 C19 1.256 . S
O22 Cd23 2.300 . S
O22 C29 1.275 . S
Cd23 O22 2.300 . S
Cd23 O31 2.381 . S
Cd23 O32 2.378 . S
O24 Cd25 2.385 . S
O24 C29 1.255 . S
Cd25 O24 2.385 . S
Cd25 O26 2.317 . S
O26 Cd25 2.317 . S
O26 C27 1.232 . S
C27 O26 1.232 . S
C27 O28 1.218 . S
O28 C27 1.218 . S
C29 O22 1.275 . S
C29 O24 1.255 . S
C30 O31 1.258 . S
C30 O32 1.256 . S
O31 Cd23 2.381 . S
O31 C30 1.258 . S
O32 Cd23 2.378 . S
O32 C30 1.256 . S
O33 Cd34 2.300 . S
O33 C40 1.275 . S
Cd34 O33 2.300 . S
Cd34 O42 2.381 . S
Cd34 O43 2.378 . S
O35 Cd36 2.385 . S
O35 C40 1.255 . S
Cd36 O35 2.385 . S
Cd36 O37 2.317 . S
O37 Cd36 2.317 . S
O37 C38 1.232 . S
C38 O37 1.232 . S
C38 O39 1.218 . S
O39 C38 1.218 . S
C40 O33 1.275 . S
C40 O35 1.255 . S
C41 O42 1.258 . S
C41 O43 1.256 . S
O42 Cd34 2.381 . S
O42 C41 1.258 . S
O43 Cd34 2.378 . S
O43 C41 1.256 . S
O44 Cd45 2.300 . S
O44 C51 1.275 . S
Cd45 O44 2.300 . S
Cd45 O53 2.381 . S
Cd45 O54 2.378 . S
O46 Cd47 2.385 . S
O46 C51 1.255 . S
Cd47 O46 2.385 . S
Cd47 O48 2.317 . S
O48 Cd47 2.317 . S
O48 C49 1.232 . S
C49 O48 1.232 . S
C49 O50 1.218 . S
O50 C49 1.218 . S
C51 O44 1.275 . S
C51 O46 1.255 . S
C52 O53 1.258 . S
C52 O54 1.256 . S
O53 Cd45 2.381 . S
O53 C52 1.258 . S
O54 Cd45 2.378 . S
O54 C52 1.256 . S
O55 Cd56 2.300 . S
O55 C62 1.275 . S
Cd56 O55 2.300 . S
Cd56 O64 2.381 . S
Cd56 O65 2.378 . S
O57 Cd58 2.385 . S
O57 C62 1.255 . S
Cd58 O57 2.385 . S
Cd58 O59 2.317 . S
O59 Cd58 2.317 . S
O59 C60 1.232 . S
C60 O59 1.232 . S
C60 O61 1.218 . S
O61 C60 1.218 . S
C62 O55 1.275 . S
C62 O57 1.255 . S
C63 O64 1.258 . S
C63 O65 1.256 . S
O64 Cd56 2.381 . S
O64 C63 1.258 . S
O65 Cd56 2.378 . S
O65 C63 1.256 . S
O66 Cd67 2.300 . S
O66 C73 1.275 . S
Cd67 O66 2.300 . S
Cd67 O75 2.381 . S
Cd67 O76 2.378 . S
O68 Cd69 2.385 . S
O68 C73 1.255 . S
Cd69 O68 2.385 . S
Cd69 O70 2.317 . S
O70 Cd69 2.317 . S
O70 C71 1.232 . S
C71 O70 1.232 . S
C71 O72 1.218 . S
O72 C71 1.218 . S
C73 O66 1.275 . S
C73 O68 1.255 . S
C74 O75 1.258 . S
C74 O76 1.256 . S
O75 Cd67 2.381 . S
O75 C74 1.258 . S
O76 Cd67 2.378 . S
O76 C74 1.256 . S
O77 Cd78 2.300 . S
O77 C84 1.275 . S
Cd78 O77 2.300 . S
Cd78 O86 2.381 . S
Cd78 O87 2.378 . S
O79 Cd80 2.385 . S
O79 C84 1.255 . S
Cd80 O79 2.385 . S
Cd80 O81 2.317 . S
O81 Cd80 2.317 . S
O81 C82 1.232 . S
C82 O81 1.232 . S
C82 O83 1.218 . S
O83 C82 1.218 . S
C84 O77 1.275 . S
C84 O79 1.255 . S
C85 O86 1.258 . S
C85 O87 1.256 . S
O86 Cd78 2.381 . S
O86 C85 1.258 . S
O87 Cd78 2.378 . S
O87 C85 1.256 . S
O88 Cd89 2.300 . S
O88 C95 1.275 . S
Cd89 O88 2.300 . S
Cd89 O97 2.381 . S
Cd89 O98 2.378 . S
O90 Cd91 2.385 . S
O90 C95 1.255 . S
Cd91 O90 2.385 . S
Cd91 O92 2.317 . S
O92 Cd91 2.317 . S
O92 C93 1.232 . S
C93 O92 1.232 . S
C93 O94 1.218 . S
O94 C93 1.218 . S
C95 O88 1.275 . S
C95 O90 1.255 . S
C96 O97 1.258 . S
C96 O98 1.256 . S
O97 Cd89 2.381 . S
O97 C96 1.258 . S
O98 Cd89 2.378 . S
O98 C96 1.256 . S
O99 Cd100 2.300 . S
O99 C106 1.275 . S
Cd100 O99 2.300 . S
Cd100 O108 2.381 . S
Cd100 O109 2.378 . S
O101 Cd102 2.385 . S
O101 C106 1.255 . S
Cd102 O101 2.385 . S
Cd102 O103 2.317 . S
O103 Cd102 2.317 . S
O103 C104 1.232 . S
C104 O103 1.232 . S
C104 O105 1.218 . S
O105 C104 1.218 . S
C106 O99 1.275 . S
C106 O101 1.255 . S
C107 O108 1.258 . S
C107 O109 1.256 . S
O108 Cd100 2.381 . S
O108 C107 1.258 . S
O109 Cd100 2.378 . S
O109 C107 1.256 . S
O110 Cd111 2.300 . S
O110 C117 1.275 . S
Cd111 O110 2.300 . S
Cd111 O119 2.381 . S
Cd111 O120 2.378 . S
O112 Cd113 2.385 . S
O112 C117 1.255 . S
Cd113 O112 2.385 . S
Cd113 O114 2.317 . S
O114 Cd113 2.317 . S
O114 C115 1.232 . S
C115 O114 1.232 . S
C115 O116 1.218 . S
O116 C115 1.218 . S
C117 O110 1.275 . S
C117 O112 1.255 . S
C118 O119 1.258 . S
C118 O120 1.256 . S
O119 Cd111 2.381 . S
O119 C118 1.258 . S
O120 Cd111 2.378 . S
O120 C118 1.256 . S
O121 Cd122 2.300 . S
O121 C128 1.275 . S
Cd122 O121 2.300 . S
Cd122 O130 2.381 . S
Cd122 O131 2.378 . S
O123 Cd124 2.385 . S
O123 C128 1.255 . S
Cd124 O123 2.385 . S
Cd124 O125 2.317 . S
O125 Cd124 2.317 . S
O125 C126 1.232 . S
C126 O125 1.232 . S
C126 O127 1.218 . S
O127 C126 1.218 . S
C128 O121 1.275 . S
C128 O123 1.255 . S
C129 O130 1.258 . S
C129 O131 1.256 . S
O130 Cd122 2.381 . S
O130 C129 1.258 . S
O131 Cd122 2.378 . S
O131 C129 1.256 . S
C132 C133 1.391 . S
C132 C134 1.394 . S
C132 H148 0.931 . S
C133 C132 1.391 . S
C133 C137 1.376 . S
C134 C132 1.394 . S
C134 C135 1.369 . S
C134 C138 1.531 . S
C135 C134 1.369 . S
C135 C136 1.410 . S
C135 C143 1.503 1_556 S
C136 C135 1.410 . S
C136 C137 1.392 . S
C136 C139 1.509 1_556 S
C137 C133 1.376 . S
C137 C136 1.392 . S
C137 H149 0.929 . S
C138 C134 1.531 . S
C138 H150 0.960 . S
C138 H151 0.962 . S
C138 H152 0.960 . S
C139 C136 1.509 1_554 S
C139 H153 0.962 . S
C139 H154 0.966 . S
C139 H155 0.957 1_554 S
C140 C141 1.370 . S
C140 C142 1.363 . S
C140 H156 0.931 . S
C141 C140 1.370 . S
C141 C145 1.408 . S
C142 C140 1.363 . S
C142 C143 1.370 . S
C142 C146 1.524 . S
C143 C135 1.503 1_554 S
C143 C142 1.370 . S
C143 C144 1.403 1_554 S
C144 C143 1.403 1_556 S
C144 C145 1.404 1_556 S
C144 C147 1.539 . S
C145 C141 1.408 . S
C145 C144 1.404 1_554 S
C145 H157 0.930 . S
C146 C142 1.524 . S
C146 H158 0.956 . S
C146 H159 0.961 . S
C146 H160 0.961 . S
C147 C144 1.539 . S
C147 H161 0.958 . S
C147 H162 0.961 . S
C147 H163 0.960 . S
H148 C132 0.931 . S
H149 C137 0.929 . S
H150 C138 0.960 . S
H151 C138 0.962 . S
H152 C138 0.960 . S
H153 C139 0.962 . S
H154 C139 0.966 . S
H155 C139 0.957 1_556 S
H156 C140 0.931 . S
H157 C145 0.930 . S
H158 C146 0.956 . S
H159 C146 0.961 . S
H160 C146 0.961 . S
H161 C147 0.958 . S
H162 C147 0.961 . S
H163 C147 0.960 . S
C164 C165 1.391 . S
C164 C166 1.394 . S
C164 H180 0.931 . S
C165 C164 1.391 . S
C165 C169 1.376 . S
C166 C164 1.394 . S
C166 C167 1.369 . S
C166 C170 1.531 . S
C167 C166 1.369 . S
C167 C168 1.410 . S
C167 C175 1.503 . S
C168 C167 1.410 . S
C168 C169 1.392 . S
C168 C171 1.511 . S
C169 C165 1.376 . S
C169 C168 1.392 . S
C169 H181 0.929 . S
C170 C166 1.531 . S
C170 H182 0.960 . S
C170 H183 0.962 . S
C170 H184 0.960 . S
C171 C168 1.511 . S
C171 H185 0.961 . S
C171 H186 0.961 . S
C171 H187 0.961 . S
C172 C173 1.370 . S
C172 C174 1.363 . S
C172 H188 0.931 . S
C173 C172 1.370 . S
C173 C177 1.408 . S
C174 C172 1.363 . S
C174 C175 1.370 . S
C174 C178 1.524 . S
C175 C167 1.503 . S
C175 C174 1.370 . S
C175 C176 1.403 . S
C176 C175 1.403 . S
C176 C177 1.404 . S
C176 C179 1.539 . S
C177 C173 1.408 . S
C177 C176 1.404 . S
C177 H189 0.930 . S
C178 C174 1.524 . S
C178 H190 0.956 . S
C178 H191 0.961 . S
C178 H192 0.961 . S
C179 C176 1.539 . S
C179 H193 0.958 . S
C179 H194 0.961 . S
C179 H195 0.960 . S
H180 C164 0.931 . S
H181 C169 0.929 . S
H182 C170 0.960 . S
H183 C170 0.962 . S
H184 C170 0.960 . S
H185 C171 0.961 . S
H186 C171 0.961 . S
H187 C171 0.961 . S
H188 C172 0.931 . S
H189 C177 0.930 . S
H190 C178 0.956 . S
H191 C178 0.961 . S
H192 C178 0.961 . S
H193 C179 0.958 . S
H194 C179 0.961 . S
H195 C179 0.960 . S
C196 C197 1.391 . S
C196 C198 1.394 . S
C196 H212 0.931 . S
C197 C196 1.391 . S
C197 C201 1.376 . S
C198 C196 1.394 . S
C198 C199 1.369 . S
C198 C202 1.531 . S
C199 C198 1.369 . S
C199 C200 1.410 . S
C199 C207 1.503 . S
C200 C199 1.410 . S
C200 C201 1.392 . S
C200 C203 1.511 . S
C201 C197 1.376 . S
C201 C200 1.392 . S
C201 H213 0.929 . S
C202 C198 1.531 . S
C202 H214 0.960 . S
C202 H215 0.962 . S
C202 H216 0.960 . S
C203 C200 1.511 . S
C203 H217 0.961 . S
C203 H218 0.961 . S
C203 H219 0.961 . S
C204 C205 1.370 . S
C204 C206 1.363 . S
C204 H220 0.931 . S
C205 C204 1.370 . S
C205 C209 1.408 . S
C206 C204 1.363 . S
C206 C207 1.370 . S
C206 C210 1.524 . S
C207 C199 1.503 . S
C207 C206 1.370 . S
C207 C208 1.403 . S
C208 C207 1.403 . S
C208 C209 1.404 . S
C208 C211 1.539 . S
C209 C205 1.408 . S
C209 C208 1.404 . S
C209 H221 0.930 . S
C210 C206 1.524 . S
C210 H222 0.956 . S
C210 H223 0.961 . S
C210 H224 0.961 . S
C211 C208 1.539 . S
C211 H225 0.958 . S
C211 H226 0.961 . S
C211 H227 0.960 . S
H212 C196 0.931 . S
H213 C201 0.929 . S
H214 C202 0.960 . S
H215 C202 0.962 . S
H216 C202 0.960 . S
H217 C203 0.961 . S
H218 C203 0.961 . S
H219 C203 0.961 . S
H220 C204 0.931 . S
H221 C209 0.930 . S
H222 C210 0.956 . S
H223 C210 0.961 . S
H224 C210 0.961 . S
H225 C211 0.958 . S
H226 C211 0.961 . S
H227 C211 0.960 . S
C228 C229 1.391 . S
C228 C230 1.394 . S
C228 H244 0.931 . S
C229 C228 1.391 . S
C229 C233 1.376 . S
C230 C228 1.394 . S
C230 C231 1.369 . S
C230 C234 1.531 . S
C231 C230 1.369 . S
C231 C232 1.410 . S
C231 C239 1.503 1_556 S
C232 C231 1.410 . S
C232 C233 1.392 . S
C232 C235 1.511 . S
C233 C229 1.376 . S
C233 C232 1.392 . S
C233 H245 0.929 . S
C234 C230 1.531 . S
C234 H246 0.960 . S
C234 H247 0.962 1_556 S
C234 H248 0.960 . S
C235 C232 1.511 . S
C235 H249 0.961 . S
C235 H250 0.977 . S
C235 H251 0.961 . S
C236 C237 1.370 . S
C236 C238 1.363 . S
C236 H252 0.931 . S
C237 C236 1.370 . S
C237 C241 1.408 . S
C238 C236 1.363 . S
C238 C239 1.370 . S
C238 C242 1.524 . S
C239 C231 1.503 1_554 S
C239 C238 1.370 . S
C239 C240 1.403 1_554 S
C240 C239 1.403 1_556 S
C240 C241 1.404 1_556 S
C240 C243 1.539 . S
C241 C237 1.408 . S
C241 C240 1.404 1_554 S
C241 H253 0.930 . S
C242 C238 1.524 . S
C242 H254 0.956 . S
C242 H255 0.961 . S
C242 H256 0.961 . S
C243 C240 1.539 . S
C243 H257 0.958 . S
C243 H258 0.961 . S
C243 H259 0.960 . S
H244 C228 0.931 . S
H245 C233 0.929 . S
H246 C234 0.960 . S
H247 C234 0.962 1_554 S
H248 C234 0.960 . S
H249 C235 0.961 . S
H250 C235 0.977 . S
H251 C235 0.961 . S
H252 C236 0.931 . S
H253 C241 0.930 . S
H254 C242 0.956 . S
H255 C242 0.961 . S
H256 C242 0.961 . S
H257 C243 0.958 . S
H258 C243 0.961 . S
H259 C243 0.960 . S
C260 C261 1.391 . S
C260 C262 1.394 . S
C260 H276 0.931 . S
C261 C260 1.391 . S
C261 C265 1.376 . S
C262 C260 1.394 . S
C262 C263 1.369 . S
C262 C266 1.531 . S
C263 C262 1.369 . S
C263 C264 1.410 . S
C263 C271 1.503 . S
C264 C263 1.410 . S
C264 C265 1.392 . S
C264 C267 1.511 . S
C265 C261 1.376 . S
C265 C264 1.392 . S
C265 H277 0.929 . S
C266 C262 1.531 . S
C266 H278 0.960 . S
C266 H279 0.962 . S
C266 H280 0.960 . S
C267 C264 1.511 . S
C267 H281 0.961 . S
C267 H282 0.961 . S
C267 H283 0.961 . S
C268 C269 1.370 . S
C268 C270 1.363 . S
C268 H284 0.931 . S
C269 C268 1.370 . S
C269 C273 1.408 . S
C270 C268 1.363 . S
C270 C271 1.370 . S
C270 C274 1.524 . S
C271 C263 1.503 . S
C271 C270 1.370 . S
C271 C272 1.403 . S
C272 C271 1.403 . S
C272 C273 1.404 . S
C272 C275 1.539 . S
C273 C269 1.408 . S
C273 C272 1.404 . S
C273 H285 0.930 . S
C274 C270 1.524 . S
C274 H286 0.956 . S
C274 H287 0.961 . S
C274 H288 0.961 . S
C275 C272 1.539 . S
C275 H289 0.958 . S
C275 H290 0.961 . S
C275 H291 0.960 . S
H276 C260 0.931 . S
H277 C265 0.929 . S
H278 C266 0.960 . S
H279 C266 0.962 . S
H280 C266 0.960 . S
H281 C267 0.961 . S
H282 C267 0.961 . S
H283 C267 0.961 . S
H284 C268 0.931 . S
H285 C273 0.930 . S
H286 C274 0.956 . S
H287 C274 0.961 . S
H288 C274 0.961 . S
H289 C275 0.958 . S
H290 C275 0.961 . S
H291 C275 0.960 . S
C292 C293 1.391 . S
C292 C294 1.394 . S
C292 H308 0.931 . S
C293 C292 1.391 . S
C293 C297 1.376 . S
C294 C292 1.394 . S
C294 C295 1.369 . S
C294 C298 1.531 . S
C295 C294 1.369 . S
C295 C296 1.410 . S
C295 C303 1.503 . S
C296 C295 1.410 . S
C296 C297 1.392 . S
C296 C299 1.511 . S
C297 C293 1.376 . S
C297 C296 1.392 . S
C297 H309 0.929 . S
C298 C294 1.531 . S
C298 H310 0.960 . S
C298 H311 0.962 . S
C298 H312 0.960 . S
C299 C296 1.511 . S
C299 H313 0.961 . S
C299 H314 0.961 . S
C299 H315 0.961 . S
C300 C301 1.370 . S
C300 C302 1.363 . S
C300 H316 0.931 . S
C301 C300 1.370 . S
C301 C305 1.408 . S
C302 C300 1.363 . S
C302 C303 1.370 . S
C302 C306 1.524 . S
C303 C295 1.503 . S
C303 C302 1.370 . S
C303 C304 1.403 . S
C304 C303 1.403 . S
C304 C305 1.404 . S
C304 C307 1.539 . S
C305 C301 1.408 . S
C305 C304 1.404 . S
C305 H317 0.930 . S
C306 C302 1.524 . S
C306 H318 0.956 . S
C306 H319 0.961 . S
C306 H320 0.961 . S
C307 C304 1.539 . S
C307 H321 0.958 . S
C307 H322 0.961 . S
C307 H323 0.960 . S
H308 C292 0.931 . S
H309 C297 0.929 . S
H310 C298 0.960 . S
H311 C298 0.962 . S
H312 C298 0.960 . S
H313 C299 0.961 . S
H314 C299 0.961 . S
H315 C299 0.961 . S
H316 C300 0.931 . S
H317 C305 0.930 . S
H318 C306 0.956 . S
H319 C306 0.961 . S
H320 C306 0.961 . S
H321 C307 0.958 . S
H322 C307 0.961 . S
H323 C307 0.960 . S
C324 C325 1.391 . S
C324 C326 1.394 . S
C324 H340 0.931 . S
C325 C324 1.391 . S
C325 C329 1.376 . S
C326 C324 1.394 . S
C326 C327 1.369 . S
C326 C330 1.531 . S
C327 C326 1.369 . S
C327 C328 1.410 . S
C327 C335 1.503 . S
C328 C327 1.410 . S
C328 C329 1.392 . S
C328 C331 1.511 . S
C329 C325 1.376 . S
C329 C328 1.392 . S
C329 H341 0.929 . S
C330 C326 1.531 . S
C330 H342 0.960 . S
C330 H343 0.962 . S
C330 H344 0.960 . S
C331 C328 1.511 . S
C331 H345 0.961 . S
C331 H346 0.961 . S
C331 H347 0.961 . S
C332 C333 1.370 . S
C332 C334 1.363 . S
C332 H348 0.931 . S
C333 C332 1.370 . S
C333 C337 1.408 . S
C334 C332 1.363 . S
C334 C335 1.370 . S
C334 C338 1.524 . S
C335 C327 1.503 . S
C335 C334 1.370 . S
C335 C336 1.403 . S
C336 C335 1.403 . S
C336 C337 1.404 . S
C336 C339 1.539 . S
C337 C333 1.408 . S
C337 C336 1.404 . S
C337 H349 0.930 . S
C338 C334 1.524 . S
C338 H350 0.956 . S
C338 H351 0.961 . S
C338 H352 0.961 . S
C339 C336 1.539 . S
C339 H353 0.958 . S
C339 H354 0.961 . S
C339 H355 0.960 . S
H340 C324 0.931 . S
H341 C329 0.929 . S
H342 C330 0.960 . S
H343 C330 0.962 . S
H344 C330 0.960 . S
H345 C331 0.961 . S
H346 C331 0.961 . S
H347 C331 0.961 . S
H348 C332 0.931 . S
H349 C337 0.930 . S
H350 C338 0.956 . S
H351 C338 0.961 . S
H352 C338 0.961 . S
H353 C339 0.958 . S
H354 C339 0.961 . S
H355 C339 0.960 . S
C356 C357 1.391 . S
C356 C358 1.394 . S
C356 H372 0.931 . S
C357 C356 1.391 . S
C357 C361 1.376 . S
C358 C356 1.394 . S
C358 C359 1.369 . S
C358 C362 1.531 . S
C359 C358 1.369 . S
C359 C360 1.410 . S
C359 C367 1.503 . S
C360 C359 1.410 . S
C360 C361 1.392 . S
C360 C363 1.511 . S
C361 C357 1.376 . S
C361 C360 1.392 . S
C361 H373 0.929 . S
C362 C358 1.531 . S
C362 H374 0.960 . S
C362 H375 0.962 . S
C362 H376 0.960 . S
C363 C360 1.511 . S
C363 H377 0.961 . S
C363 H378 0.961 . S
C363 H379 0.961 . S
C364 C365 1.370 . S
C364 C366 1.363 . S
C364 H380 0.931 . S
C365 C364 1.370 . S
C365 C369 1.408 . S
C366 C364 1.363 . S
C366 C367 1.370 . S
C366 C370 1.524 . S
C367 C359 1.503 . S
C367 C366 1.370 . S
C367 C368 1.403 . S
C368 C367 1.403 . S
C368 C369 1.404 . S
C368 C371 1.539 . S
C369 C365 1.408 . S
C369 C368 1.404 . S
C369 H381 0.930 . S
C370 C366 1.524 . S
C370 H382 0.956 . S
C370 H383 0.961 . S
C370 H384 0.961 . S
C371 C368 1.539 . S
C371 H385 0.958 . S
C371 H386 0.961 . S
C371 H387 0.960 . S
H372 C356 0.931 . S
H373 C361 0.929 . S
H374 C362 0.960 . S
H375 C362 0.962 . S
H376 C362 0.960 . S
H377 C363 0.961 . S
H378 C363 0.961 . S
H379 C363 0.961 . S
H380 C364 0.931 . S
H381 C369 0.930 . S
H382 C370 0.956 . S
H383 C370 0.961 . S
H384 C370 0.961 . S
H385 C371 0.958 . S
H386 C371 0.961 . S
H387 C371 0.960 . S
C388 C389 1.391 . S
C388 C390 1.394 . S
C388 H404 0.931 . S
C389 C388 1.391 . S
C389 C393 1.376 . S
C390 C388 1.394 . S
C390 C391 1.369 . S
C390 C394 1.531 . S
C391 C390 1.369 . S
C391 C392 1.410 . S
C391 C399 1.503 . S
C392 C391 1.410 . S
C392 C393 1.392 . S
C392 C395 1.511 . S
C393 C389 1.376 . S
C393 C392 1.392 . S
C393 H405 0.929 . S
C394 C390 1.531 . S
C394 H406 0.960 . S
C394 H407 0.962 . S
C394 H408 0.960 . S
C395 C392 1.511 . S
C395 H409 0.961 . S
C395 H410 0.961 . S
C395 H411 0.961 . S
C396 C397 1.370 . S
C396 C398 1.363 . S
C396 H412 0.931 . S
C397 C396 1.370 . S
C397 C401 1.408 . S
C398 C396 1.363 . S
C398 C399 1.370 . S
C398 C402 1.524 . S
C399 C391 1.503 . S
C399 C398 1.370 . S
C399 C400 1.403 . S
C400 C399 1.403 . S
C400 C401 1.404 . S
C400 C403 1.539 . S
C401 C397 1.408 . S
C401 C400 1.404 . S
C401 H413 0.930 . S
C402 C398 1.524 . S
C402 H414 0.956 . S
C402 H415 0.961 . S
C402 H416 0.961 . S
C403 C400 1.539 . S
C403 H417 0.958 . S
C403 H418 0.961 . S
C403 H419 0.960 . S
H404 C388 0.931 . S
H405 C393 0.929 . S
H406 C394 0.960 . S
H407 C394 0.962 . S
H408 C394 0.960 . S
H409 C395 0.961 . S
H410 C395 0.961 . S
H411 C395 0.961 . S
H412 C396 0.931 . S
H413 C401 0.930 . S
H414 C402 0.956 . S
H415 C402 0.961 . S
H416 C402 0.961 . S
H417 C403 0.958 . S
H418 C403 0.961 . S
H419 C403 0.960 . S
C420 C421 1.391 . S
C420 C422 1.394 . S
C420 H436 0.931 . S
C421 C420 1.391 . S
C421 C425 1.376 . S
C422 C420 1.394 . S
C422 C423 1.369 . S
C422 C426 1.531 . S
C423 C422 1.369 . S
C423 C424 1.410 . S
C423 C431 1.503 . S
C424 C423 1.410 . S
C424 C425 1.392 . S
C424 C427 1.511 . S
C425 C421 1.376 . S
C425 C424 1.392 . S
C425 H437 0.929 . S
C426 C422 1.531 . S
C426 H438 0.960 . S
C426 H439 0.962 . S
C426 H440 0.960 . S
C427 C424 1.511 . S
C427 H441 0.961 . S
C427 H442 0.961 . S
C427 H443 0.961 . S
C428 C429 1.370 . S
C428 C430 1.363 . S
C428 H444 0.931 . S
C429 C428 1.370 . S
C429 C433 1.408 . S
C430 C428 1.363 . S
C430 C431 1.370 . S
C430 C434 1.524 . S
C431 C423 1.503 . S
C431 C430 1.370 . S
C431 C432 1.403 . S
C432 C431 1.403 . S
C432 C433 1.404 . S
C432 C435 1.539 . S
C433 C429 1.408 . S
C433 C432 1.404 . S
C433 H445 0.930 . S
C434 C430 1.524 . S
C434 H446 0.956 . S
C434 H447 0.961 . S
C434 H448 0.961 . S
C435 C432 1.539 . S
C435 H449 0.958 . S
C435 H450 0.961 . S
C435 H451 0.960 . S
H436 C420 0.931 . S
H437 C425 0.929 . S
H438 C426 0.960 . S
H439 C426 0.962 . S
H440 C426 0.960 . S
H441 C427 0.961 . S
H442 C427 0.961 . S
H443 C427 0.961 . S
H444 C428 0.931 . S
H445 C433 0.930 . S
H446 C434 0.956 . S
H447 C434 0.961 . S
H448 C434 0.961 . S
H449 C435 0.958 . S
H450 C435 0.961 . S
H451 C435 0.960 . S
C452 C453 1.391 . S
C452 C454 1.394 . S
C452 H468 0.931 . S
C453 C452 1.391 . S
C453 C457 1.376 . S
C454 C452 1.394 . S
C454 C455 1.369 . S
C454 C458 1.531 . S
C455 C454 1.369 . S
C455 C456 1.410 . S
C455 C463 1.503 . S
C456 C455 1.410 . S
C456 C457 1.392 . S
C456 C459 1.511 . S
C457 C453 1.376 . S
C457 C456 1.392 . S
C457 H469 0.929 . S
C458 C454 1.531 . S
C458 H470 0.960 . S
C458 H471 0.962 . S
C458 H472 0.960 . S
C459 C456 1.511 . S
C459 H473 0.961 . S
C459 H474 0.961 . S
C459 H475 0.961 . S
C460 C461 1.370 . S
C460 C462 1.363 . S
C460 H476 0.931 . S
C461 C460 1.370 . S
C461 C465 1.408 . S
C462 C460 1.363 . S
C462 C463 1.370 . S
C462 C466 1.524 . S
C463 C455 1.503 . S
C463 C462 1.370 . S
C463 C464 1.403 . S
C464 C463 1.403 . S
C464 C465 1.404 . S
C464 C467 1.539 . S
C465 C461 1.408 . S
C465 C464 1.404 . S
C465 H477 0.930 . S
C466 C462 1.524 . S
C466 H478 0.956 . S
C466 H479 0.961 . S
C466 H480 0.961 . S
C467 C464 1.539 . S
C467 H481 0.958 . S
C467 H482 0.961 . S
C467 H483 0.960 . S
H468 C452 0.931 . S
H469 C457 0.929 . S
H470 C458 0.960 . S
H471 C458 0.962 . S
H472 C458 0.960 . S
H473 C459 0.961 . S
H474 C459 0.961 . S
H475 C459 0.961 . S
H476 C460 0.931 . S
H477 C465 0.930 . S
H478 C466 0.956 . S
H479 C466 0.961 . S
H480 C466 0.961 . S
H481 C467 0.958 . S
H482 C467 0.961 . S
H483 C467 0.960 . S
C484 C485 1.391 . S
C484 C486 1.394 . S
C484 H500 0.931 . S
C485 C484 1.391 . S
C485 C489 1.376 . S
C486 C484 1.394 . S
C486 C487 1.369 . S
C486 C490 1.531 . S
C487 C486 1.369 . S
C487 C488 1.410 . S
C487 C495 1.503 . S
C488 C487 1.410 . S
C488 C489 1.392 . S
C488 C491 1.511 . S
C489 C485 1.376 . S
C489 C488 1.392 . S
C489 H501 0.929 . S
C490 C486 1.531 . S
C490 H502 0.960 . S
C490 H503 0.962 . S
C490 H504 0.960 . S
C491 C488 1.511 . S
C491 H505 0.961 . S
C491 H506 0.961 . S
C491 H507 0.961 . S
C492 C493 1.370 . S
C492 C494 1.363 . S
C492 H508 0.931 . S
C493 C492 1.370 . S
C493 C497 1.408 . S
C494 C492 1.363 . S
C494 C495 1.370 . S
C494 C498 1.524 . S
C495 C487 1.503 . S
C495 C494 1.370 . S
C495 C496 1.403 . S
C496 C495 1.403 . S
C496 C497 1.404 . S
C496 C499 1.539 . S
C497 C493 1.408 . S
C497 C496 1.404 . S
C497 H509 0.930 . S
C498 C494 1.524 . S
C498 H510 0.956 . S
C498 H511 0.961 . S
C498 H512 0.961 . S
C499 C496 1.539 . S
C499 H513 0.958 . S
C499 H514 0.961 . S
C499 H515 0.960 . S
H500 C484 0.931 . S
H501 C489 0.929 . S
H502 C490 0.960 . S
H503 C490 0.962 . S
H504 C490 0.960 . S
H505 C491 0.961 . S
H506 C491 0.961 . S
H507 C491 0.961 . S
H508 C492 0.931 . S
H509 C497 0.930 . S
H510 C498 0.956 . S
H511 C498 0.961 . S
H512 C498 0.961 . S
H513 C499 0.958 . S
H514 C499 0.961 . S
H515 C499 0.960 . S
C516 C517 1.391 . S
C516 C518 1.394 . S
C516 H532 0.931 . S
C517 C516 1.391 . S
C517 C521 1.376 . S
C518 C516 1.394 . S
C518 C519 1.369 . S
C518 C522 1.531 . S
C519 C518 1.369 . S
C519 C520 1.410 . S
C519 C527 1.503 1_455 S
C520 C519 1.410 . S
C520 C521 1.392 . S
C520 C523 1.511 . S
C521 C517 1.376 . S
C521 C520 1.392 . S
C521 H533 0.929 . S
C522 C518 1.531 . S
C522 H534 0.974 . S
C522 H535 0.962 . S
C522 H536 0.960 . S
C523 C520 1.511 . S
C523 H537 0.961 . S
C523 H538 0.961 1_455 S
C523 H539 0.961 . S
C524 C525 1.370 . S
C524 C526 1.363 . S
C524 H540 0.931 . S
C525 C524 1.370 . S
C525 C529 1.408 . S
C526 C524 1.363 . S
C526 C527 1.370 . S
C526 C530 1.524 . S
C527 C519 1.503 1_655 S
C527 C526 1.370 . S
C527 C528 1.403 . S
C528 C527 1.403 . S
C528 C529 1.404 . S
C528 C531 1.539 . S
C529 C525 1.408 . S
C529 C528 1.404 . S
C529 H541 0.930 . S
C530 C526 1.524 . S
C530 H542 0.956 . S
C530 H543 0.961 . S
C530 H544 0.961 . S
C531 C528 1.539 . S
C531 H545 0.958 . S
C531 H546 0.961 . S
C531 H547 0.960 1_655 S
H532 C516 0.931 . S
H533 C521 0.929 . S
H534 C522 0.974 . S
H535 C522 0.962 . S
H536 C522 0.960 . S
H537 C523 0.961 . S
H538 C523 0.961 1_655 S
H539 C523 0.961 . S
H540 C524 0.931 . S
H541 C529 0.930 . S
H542 C530 0.956 . S
H543 C530 0.961 . S
H544 C530 0.961 . S
H545 C531 0.958 . S
H546 C531 0.961 . S
H547 C531 0.960 1_455 S
C548 C549 1.391 . S
C548 C550 1.394 . S
C548 H564 0.931 . S
C549 C548 1.391 . S
C549 C553 1.376 . S
C550 C548 1.394 . S
C550 C551 1.369 . S
C550 C554 1.531 . S
C551 C550 1.369 . S
C551 C552 1.410 . S
C551 C559 1.503 1_545 S
C552 C551 1.410 . S
C552 C553 1.392 . S
C552 C555 1.511 . S
C553 C549 1.376 . S
C553 C552 1.392 . S
C553 H565 0.929 . S
C554 C550 1.531 . S
C554 H566 0.960 . S
C554 H567 0.962 . S
C554 H568 0.960 . S
C555 C552 1.511 . S
C555 H569 0.961 . S
C555 H570 0.961 1_545 S
C555 H571 0.961 . S
C556 C557 1.370 . S
C556 C558 1.363 . S
C556 H572 0.931 . S
C557 C556 1.370 . S
C557 C561 1.408 . S
C558 C556 1.363 . S
C558 C559 1.370 . S
C558 C562 1.524 . S
C559 C551 1.503 1_565 S
C559 C558 1.370 . S
C559 C560 1.403 . S
C560 C559 1.403 . S
C560 C561 1.404 . S
C560 C563 1.539 . S
C561 C557 1.408 . S
C561 C560 1.404 . S
C561 H573 0.930 . S
C562 C558 1.524 . S
C562 H574 0.956 . S
C562 H575 0.961 . S
C562 H576 0.961 . S
C563 C560 1.539 . S
C563 H577 0.958 . S
C563 H578 0.961 . S
C563 H579 0.960 1_565 S
H564 C548 0.931 . S
H565 C553 0.929 . S
H566 C554 0.960 . S
H567 C554 0.962 . S
H568 C554 0.960 . S
H569 C555 0.961 . S
H570 C555 0.961 1_565 S
H571 C555 0.961 . S
H572 C556 0.931 . S
H573 C561 0.930 . S
H574 C562 0.956 . S
H575 C562 0.961 . S
H576 C562 0.961 . S
H577 C563 0.958 . S
H578 C563 0.961 . S
H579 C563 0.960 1_545 S
C580 C581 1.391 . S
C580 C582 1.394 . S
C580 H596 0.931 . S
C581 C580 1.391 . S
C581 C585 1.376 . S
C582 C580 1.394 . S
C582 C583 1.369 . S
C582 C586 1.531 . S
C583 C582 1.369 . S
C583 C584 1.410 . S
C583 C591 1.503 . S
C584 C583 1.410 . S
C584 C585 1.392 . S
C584 C587 1.511 . S
C585 C581 1.376 . S
C585 C584 1.392 . S
C585 H597 0.929 . S
C586 C582 1.531 . S
C586 H598 0.960 . S
C586 H599 0.962 . S
C586 H600 0.960 . S
C587 C584 1.511 . S
C587 H601 0.961 . S
C587 H602 0.961 . S
C587 H603 0.961 . S
C588 C589 1.370 . S
C588 C590 1.363 . S
C588 H604 0.931 . S
C589 C588 1.370 . S
C589 C593 1.408 . S
C590 C588 1.363 . S
C590 C591 1.370 . S
C590 C594 1.524 . S
C591 C583 1.503 . S
C591 C590 1.370 . S
C591 C592 1.403 . S
C592 C591 1.403 . S
C592 C593 1.404 . S
C592 C595 1.539 . S
C593 C589 1.408 . S
C593 C592 1.404 . S
C593 H605 0.930 . S
C594 C590 1.524 . S
C594 H606 0.956 . S
C594 H607 0.961 . S
C594 H608 0.961 . S
C595 C592 1.539 . S
C595 H609 0.958 . S
C595 H610 0.961 . S
C595 H611 0.960 . S
H596 C580 0.931 . S
H597 C585 0.929 . S
H598 C586 0.960 . S
H599 C586 0.962 . S
H600 C586 0.960 . S
H601 C587 0.961 . S
H602 C587 0.961 . S
H603 C587 0.961 . S
H604 C588 0.931 . S
H605 C593 0.930 . S
H606 C594 0.956 . S
H607 C594 0.961 . S
H608 C594 0.961 . S
H609 C595 0.958 . S
H610 C595 0.961 . S
H611 C595 0.960 . S
C612 C613 1.391 . S
C612 C614 1.394 . S
C612 H628 0.931 . S
C613 C612 1.391 . S
C613 C617 1.376 . S
C614 C612 1.394 . S
C614 C615 1.369 . S
C614 C618 1.531 . S
C615 C614 1.369 . S
C615 C616 1.410 . S
C615 C623 1.503 1_655 S
C616 C615 1.410 . S
C616 C617 1.392 . S
C616 C619 1.511 . S
C617 C613 1.376 . S
C617 C616 1.392 . S
C617 H629 0.929 . S
C618 C614 1.531 . S
C618 H630 0.960 1_655 S
C618 H631 0.962 . S
C618 H632 0.960 . S
C619 C616 1.511 . S
C619 H633 0.961 . S
C619 H634 0.961 1_655 S
C619 H635 0.961 . S
C620 C621 1.370 . S
C620 C622 1.363 . S
C620 H636 0.931 . S
C621 C620 1.370 . S
C621 C625 1.408 . S
C622 C620 1.363 . S
C622 C623 1.370 . S
C622 C626 1.524 . S
C623 C615 1.503 1_455 S
C623 C622 1.370 . S
C623 C624 1.403 . S
C624 C623 1.403 . S
C624 C625 1.404 . S
C624 C627 1.539 . S
C625 C621 1.408 . S
C625 C624 1.404 . S
C625 H637 0.930 . S
C626 C622 1.524 . S
C626 H638 0.956 . S
C626 H639 0.961 . S
C626 H640 0.961 . S
C627 C624 1.539 . S
C627 H641 0.958 . S
C627 H642 0.961 . S
C627 H643 0.960 1_455 S
H628 C612 0.931 . S
H629 C617 0.929 . S
H630 C618 0.960 1_455 S
H631 C618 0.962 . S
H632 C618 0.960 . S
H633 C619 0.961 . S
H634 C619 0.961 1_455 S
H635 C619 0.961 . S
H636 C620 0.931 . S
H637 C625 0.930 . S
H638 C626 0.956 . S
H639 C626 0.961 . S
H640 C626 0.961 . S
H641 C627 0.958 . S
H642 C627 0.961 . S
H643 C627 0.960 1_655 S
C644 C645 1.391 . S
C644 C646 1.394 . S
C644 H660 0.931 . S
C645 C644 1.391 . S
C645 C649 1.376 . S
C646 C644 1.394 . S
C646 C647 1.369 . S
C646 C650 1.531 . S
C647 C646 1.369 . S
C647 C648 1.410 . S
C647 C655 1.503 1_545 S
C648 C647 1.410 . S
C648 C649 1.392 . S
C648 C651 1.511 . S
C649 C645 1.376 . S
C649 C648 1.392 . S
C649 H661 0.929 . S
C650 C646 1.531 . S
C650 H662 0.960 1_545 S
C650 H663 0.962 . S
C650 H664 0.960 . S
C651 C648 1.511 . S
C651 H665 0.961 . S
C651 H666 0.972 . S
C651 H667 0.961 . S
C652 C653 1.370 . S
C652 C654 1.363 . S
C652 H668 0.931 . S
C653 C652 1.370 . S
C653 C657 1.408 . S
C654 C652 1.363 . S
C654 C655 1.370 . S
C654 C658 1.524 . S
C655 C647 1.503 1_565 S
C655 C654 1.370 . S
C655 C656 1.403 . S
C656 C655 1.403 . S
C656 C657 1.404 . S
C656 C659 1.539 . S
C657 C653 1.408 . S
C657 C656 1.404 . S
C657 H669 0.930 . S
C658 C654 1.524 . S
C658 H670 0.956 1_565 S
C658 H671 0.961 1_565 S
C658 H672 0.961 . S
C659 C656 1.539 . S
C659 H673 0.958 . S
C659 H674 0.961 . S
C659 H675 0.960 . S
H660 C644 0.931 . S
H661 C649 0.929 . S
H662 C650 0.960 1_565 S
H663 C650 0.962 . S
H664 C650 0.960 . S
H665 C651 0.961 . S
H666 C651 0.972 . S
H667 C651 0.961 . S
H668 C652 0.931 . S
H669 C657 0.930 . S
H670 C658 0.956 1_545 S
H671 C658 0.961 1_545 S
H672 C658 0.961 . S
H673 C659 0.958 . S
H674 C659 0.961 . S
H675 C659 0.960 . S
C676 C677 1.391 . S
C676 C678 1.394 . S
C676 H692 0.931 . S
C677 C676 1.391 . S
C677 C681 1.376 . S
C678 C676 1.394 . S
C678 C679 1.369 . S
C678 C682 1.531 . S
C679 C678 1.369 . S
C679 C680 1.410 . S
C679 C687 1.503 . S
C680 C679 1.410 . S
C680 C681 1.392 . S
C680 C683 1.511 . S
C681 C677 1.376 . S
C681 C680 1.392 . S
C681 H693 0.929 . S
C682 C678 1.531 . S
C682 H694 0.960 . S
C682 H695 0.962 . S
C682 H696 0.960 . S
C683 C680 1.511 . S
C683 H697 0.961 . S
C683 H698 0.961 . S
C683 H699 0.961 . S
C684 C685 1.370 . S
C684 C686 1.363 . S
C684 H700 0.931 . S
C685 C684 1.370 . S
C685 C689 1.408 . S
C686 C684 1.363 . S
C686 C687 1.370 . S
C686 C690 1.524 . S
C687 C679 1.503 . S
C687 C686 1.370 . S
C687 C688 1.403 . S
C688 C687 1.403 . S
C688 C689 1.404 . S
C688 C691 1.539 . S
C689 C685 1.408 . S
C689 C688 1.404 . S
C689 H701 0.930 . S
C690 C686 1.524 . S
C690 H702 0.956 . S
C690 H703 0.961 . S
C690 H704 0.961 . S
C691 C688 1.539 . S
C691 H705 0.958 . S
C691 H706 0.961 . S
C691 H707 0.960 . S
H692 C676 0.931 . S
H693 C681 0.929 . S
H694 C682 0.960 . S
H695 C682 0.962 . S
H696 C682 0.960 . S
H697 C683 0.961 . S
H698 C683 0.961 . S
H699 C683 0.961 . S
H700 C684 0.931 . S
H701 C689 0.930 . S
H702 C690 0.956 . S
H703 C690 0.961 . S
H704 C690 0.961 . S
H705 C691 0.958 . S
H706 C691 0.961 . S
H707 C691 0.960 . S
C133 C118 1.604 . S
C141 C8 1.602 . S
C165 C19 1.601 . S
C173 C129 1.600 . S
C197 C74 1.592 . S
C205 C30 1.602 . S
C229 C85 1.602 . S
C237 C41 1.601 . S
C261 C96 1.592 . S
C269 C52 1.602 . S
C293 C63 1.601 . S
C301 C107 1.600 . S
C325 C95 1.617 . S
C333 C7 1.614 . S
C357 C106 1.599 . S
C365 C18 1.607 . S
C389 C29 1.608 . S
C397 C117 1.611 . S
C421 C128 1.614 . S
C429 C40 1.611 . S
C453 C73 1.588 . S
C461 C51 1.602 . S
C485 C84 1.605 . S
C493 C62 1.606 . S
C517 C5 1.478 . S
C525 C126 1.425 . S
C549 C16 1.469 . S
C557 C71 1.432 . S
C581 C27 1.477 . S
C589 C82 1.427 . S
C613 C38 1.471 . S
C621 C93 1.419 . S
C645 C104 1.400 . S
C653 C49 1.443 . S
C677 C60 1.398 . S
C685 C115 1.444 . S
