# Generated by pormake.
# Topology wmi, (6)-cn, num edge types: 1
# Building blocks:
#     Node 0, Type 0, BuildingBlock: BETFEN_clean_sbu_0, # of connection points: 6
#     Node 1, Type 0, BuildingBlock: BETFEN_clean_sbu_0, # of connection points: 6
#     Node 2, Type 0, BuildingBlock: BETFEN_clean_sbu_0, # of connection points: 6
#     Node 3, Type 0, BuildingBlock: BETFEN_clean_sbu_0, # of connection points: 6
#     Node 4, Type 0, BuildingBlock: BETFEN_clean_sbu_0, # of connection points: 6
#     Node 5, Type 0, BuildingBlock: BETFEN_clean_sbu_0, # of connection points: 6
#     Node 6, Type 0, BuildingBlock: BETFEN_clean_sbu_0, # of connection points: 6
#     Node 7, Type 0, BuildingBlock: BETFEN_clean_sbu_0, # of connection points: 6
#     Node 8, Type 0, BuildingBlock: BETFEN_clean_sbu_0, # of connection points: 6
#     Node 9, Type 0, BuildingBlock: BETFEN_clean_sbu_0, # of connection points: 6
#     Node 10, Type 0, BuildingBlock: BETFEN_clean_sbu_0, # of connection points: 6
#     Node 11, Type 0, BuildingBlock: BETFEN_clean_sbu_0, # of connection points: 6
#     Node 12, Type 0, BuildingBlock: BETFEN_clean_sbu_0, # of connection points: 6
#     Node 13, Type 0, BuildingBlock: BETFEN_clean_sbu_0, # of connection points: 6
#     Node 14, Type 0, BuildingBlock: BETFEN_clean_sbu_0, # of connection points: 6
#     Node 15, Type 0, BuildingBlock: BETFEN_clean_sbu_0, # of connection points: 6
#     Node 16, Type 0, BuildingBlock: BETFEN_clean_sbu_0, # of connection points: 6
#     Node 17, Type 0, BuildingBlock: BETFEN_clean_sbu_0, # of connection points: 6
#     Edge 18, Type (0, 0), BuildingBlock: EZIPEK_clean_linker_0, # of connection points: 2
#     Edge 19, Type (0, 0), BuildingBlock: EZIPEK_clean_linker_0, # of connection points: 2
#     Edge 20, Type (0, 0), BuildingBlock: EZIPEK_clean_linker_0, # of connection points: 2
#     Edge 21, Type (0, 0), BuildingBlock: EZIPEK_clean_linker_0, # of connection points: 2
#     Edge 22, Type (0, 0), BuildingBlock: EZIPEK_clean_linker_0, # of connection points: 2
#     Edge 23, Type (0, 0), BuildingBlock: EZIPEK_clean_linker_0, # of connection points: 2
#     Edge 24, Type (0, 0), BuildingBlock: EZIPEK_clean_linker_0, # of connection points: 2
#     Edge 25, Type (0, 0), BuildingBlock: EZIPEK_clean_linker_0, # of connection points: 2
#     Edge 26, Type (0, 0), BuildingBlock: EZIPEK_clean_linker_0, # of connection points: 2
#     Edge 27, Type (0, 0), BuildingBlock: EZIPEK_clean_linker_0, # of connection points: 2
#     Edge 28, Type (0, 0), BuildingBlock: EZIPEK_clean_linker_0, # of connection points: 2
#     Edge 29, Type (0, 0), BuildingBlock: EZIPEK_clean_linker_0, # of connection points: 2
#     Edge 30, Type (0, 0), BuildingBlock: EZIPEK_clean_linker_0, # of connection points: 2
#     Edge 31, Type (0, 0), BuildingBlock: EZIPEK_clean_linker_0, # of connection points: 2
#     Edge 32, Type (0, 0), BuildingBlock: EZIPEK_clean_linker_0, # of connection points: 2
#     Edge 33, Type (0, 0), BuildingBlock: EZIPEK_clean_linker_0, # of connection points: 2
#     Edge 34, Type (0, 0), BuildingBlock: EZIPEK_clean_linker_0, # of connection points: 2
#     Edge 35, Type (0, 0), BuildingBlock: EZIPEK_clean_linker_0, # of connection points: 2
#     Edge 36, Type (0, 0), BuildingBlock: EZIPEK_clean_linker_0, # of connection points: 2
#     Edge 37, Type (0, 0), BuildingBlock: EZIPEK_clean_linker_0, # of connection points: 2
#     Edge 38, Type (0, 0), BuildingBlock: EZIPEK_clean_linker_0, # of connection points: 2
#     Edge 39, Type (0, 0), BuildingBlock: EZIPEK_clean_linker_0, # of connection points: 2
#     Edge 40, Type (0, 0), BuildingBlock: EZIPEK_clean_linker_0, # of connection points: 2
#     Edge 41, Type (0, 0), BuildingBlock: EZIPEK_clean_linker_0, # of connection points: 2
#     Edge 42, Type (0, 0), BuildingBlock: EZIPEK_clean_linker_0, # of connection points: 2
#     Edge 43, Type (0, 0), BuildingBlock: EZIPEK_clean_linker_0, # of connection points: 2
#     Edge 44, Type (0, 0), BuildingBlock: EZIPEK_clean_linker_0, # of connection points: 2
#     Edge 45, Type (0, 0), BuildingBlock: EZIPEK_clean_linker_0, # of connection points: 2
#     Edge 46, Type (0, 0), BuildingBlock: EZIPEK_clean_linker_0, # of connection points: 2
#     Edge 47, Type (0, 0), BuildingBlock: EZIPEK_clean_linker_0, # of connection points: 2
#     Edge 48, Type (0, 0), BuildingBlock: EZIPEK_clean_linker_0, # of connection points: 2
#     Edge 49, Type (0, 0), BuildingBlock: EZIPEK_clean_linker_0, # of connection points: 2
#     Edge 50, Type (0, 0), BuildingBlock: EZIPEK_clean_linker_0, # of connection points: 2
#     Edge 51, Type (0, 0), BuildingBlock: EZIPEK_clean_linker_0, # of connection points: 2
#     Edge 52, Type (0, 0), BuildingBlock: EZIPEK_clean_linker_0, # of connection points: 2
#     Edge 53, Type (0, 0), BuildingBlock: EZIPEK_clean_linker_0, # of connection points: 2
#     Edge 54, Type (0, 0), BuildingBlock: EZIPEK_clean_linker_0, # of connection points: 2
#     Edge 55, Type (0, 0), BuildingBlock: EZIPEK_clean_linker_0, # of connection points: 2
#     Edge 56, Type (0, 0), BuildingBlock: EZIPEK_clean_linker_0, # of connection points: 2
#     Edge 57, Type (0, 0), BuildingBlock: EZIPEK_clean_linker_0, # of connection points: 2
#     Edge 58, Type (0, 0), BuildingBlock: EZIPEK_clean_linker_0, # of connection points: 2
#     Edge 59, Type (0, 0), BuildingBlock: EZIPEK_clean_linker_0, # of connection points: 2
#     Edge 60, Type (0, 0), BuildingBlock: EZIPEK_clean_linker_0, # of connection points: 2
#     Edge 61, Type (0, 0), BuildingBlock: EZIPEK_clean_linker_0, # of connection points: 2
#     Edge 62, Type (0, 0), BuildingBlock: EZIPEK_clean_linker_0, # of connection points: 2
#     Edge 63, Type (0, 0), BuildingBlock: EZIPEK_clean_linker_0, # of connection points: 2
#     Edge 64, Type (0, 0), BuildingBlock: EZIPEK_clean_linker_0, # of connection points: 2
#     Edge 65, Type (0, 0), BuildingBlock: EZIPEK_clean_linker_0, # of connection points: 2
#     Edge 66, Type (0, 0), BuildingBlock: EZIPEK_clean_linker_0, # of connection points: 2
#     Edge 67, Type (0, 0), BuildingBlock: EZIPEK_clean_linker_0, # of connection points: 2
#     Edge 68, Type (0, 0), BuildingBlock: EZIPEK_clean_linker_0, # of connection points: 2
#     Edge 69, Type (0, 0), BuildingBlock: EZIPEK_clean_linker_0, # of connection points: 2
#     Edge 70, Type (0, 0), BuildingBlock: EZIPEK_clean_linker_0, # of connection points: 2
#     Edge 71, Type (0, 0), BuildingBlock: EZIPEK_clean_linker_0, # of connection points: 2
# Relax obj value: 0.113
# Max RMSD: 0.240
# Mean RMSD: 0.240
data_MOF--net-wmi--node1-BETFEN_clean_sbu_0--edge1-EZIPEK_clean_linker_0
_symmetry_space_group_name_H-M    P1
_symmetry_Int_Tables_number       1
_symmetry_cell_setting            triclinic
loop_
_symmetry_equiv_pos_as_xyz
'x, y, z'
_cell_length_a     32.167943
_cell_length_b     32.228377
_cell_length_c     57.623913
_cell_angle_alpha  89.927607
_cell_angle_beta   89.971532
_cell_angle_gamma 119.79813
loop_
_atom_site_label
_atom_site_type_symbol
_atom_site_fract_x
_atom_site_fract_y
_atom_site_fract_z
_atom_type_partial_charge
Pr0 Pr 0.55399 0.06557 0.11666 0.0
Pr1 Pr 0.4502 1.00988 0.09699 0.0
C2 C 0.64524 0.12413 0.1307 0.0
C3 C 0.69333 0.16177 0.12331 0.0
C4 C 0.72486 0.19331 0.14001 0.0
C5 C 0.77144 0.22808 0.13385 0.0
C6 C 0.78738 0.23187 0.11085 0.0
C7 C 0.75576 0.2004 0.09405 0.0
C8 C 0.70895 0.16567 0.10021 0.0
C9 C 0.47801 1.02108 0.14887 0.0
C10 C 0.50222 0.12732 0.1 0.0
C11 C 0.35624 0.94511 0.0996 0.0
C12 C 0.3267 0.89256 0.09735 0.0
C13 C 0.32881 0.86818 0.07755 0.0
C14 C 0.30243 0.8181 0.07666 0.0
C15 C 0.27387 0.79176 0.09559 0.0
C16 C 0.27224 0.81605 0.11543 0.0
C17 C 0.29835 0.86597 0.11628 0.0
C18 C 0.50973 0.03417 0.05845 0.0
C19 C 0.51679 0.95729 0.10091 0.0
O20 O 0.62984 0.08099 0.12269 0.0
O21 O 0.61157 0.13547 0.13227 0.0
O22 O 0.48054 0.04526 0.1314 0.0
O23 O 0.51721 1.01923 0.15087 0.0
O24 O 0.46 0.08738 0.09976 0.0
O25 O 0.54292 0.12675 0.10161 0.0
O26 O 0.38481 0.95945 0.11751 0.0
O27 O 0.37577 0.9709 0.0809 0.0
O28 O 0.52558 0.04539 0.0791 0.0
O29 O 0.46328 1.01214 0.05751 0.0
O30 O 0.55515 0.99976 0.10193 0.0
O31 O 0.47325 0.95138 0.10301 0.0
H32 H 0.71356 0.19076 0.15793 0.0
H33 H 0.7952 0.25198 0.14706 0.0
H34 H 0.76736 0.2028 0.0762 0.0
H35 H 0.68516 0.14168 0.08704 0.0
H36 H 0.35102 0.88767 0.06287 0.0
H37 H 0.30408 0.79986 0.06121 0.0
H38 H 0.25046 0.79633 0.13019 0.0
H39 H 0.29677 0.8839 0.13189 0.0
Pr40 Pr 1.03233 0.5087 0.11211 0.0
Pr41 Pr 0.09202 0.4685 0.09572 0.0
C42 C 0.96172 0.52916 0.12039 0.0
C43 C 0.93582 0.55455 0.11406 0.0
C44 C 0.90486 0.55683 0.13048 0.0
C45 C 0.87345 0.57305 0.12413 0.0
C46 C 0.87256 0.58754 0.10123 0.0
C47 C 0.90527 0.58757 0.085 0.0
C48 C 0.93643 0.57073 0.09132 0.0
C49 C 0.07203 0.47829 0.14753 0.0
C50 C 0.97784 0.39228 0.09879 0.0
C51 C 0.16161 0.44559 0.09569 0.0
C52 C 0.21401 0.47146 0.09832 0.0
C53 C 0.24366 0.51007 0.08379 0.0
C54 C 0.29335 0.53325 0.08641 0.0
C55 C 0.31389 0.51828 0.10362 0.0
C56 C 0.28431 0.48113 0.11874 0.0
C57 C 0.23465 0.45786 0.1161 0.0
C58 C 0.05353 0.49072 0.05791 0.0
C59 C 0.14115 0.58836 0.10046 0.0
O60 O 0.95767 0.4957 0.10627 0.0
O61 O 1.00369 0.55238 0.1304 0.0
O62 O 0.05186 0.45659 0.12933 0.0
O63 O 0.0708 0.51787 0.14884 0.0
O64 O 1.02009 0.39529 0.09666 0.0
O65 O 0.97414 0.43068 0.10228 0.0
O66 O 0.13758 0.44387 0.11429 0.0
O67 O 0.14371 0.45227 0.07656 0.0
O68 O 0.06925 0.51691 0.07595 0.0
O69 O 0.05632 0.45192 0.05978 0.0
O70 O 0.0973 0.58132 0.10178 0.0
O71 O 0.14878 0.55153 0.10049 0.0
H72 H 0.90353 0.54412 0.14804 0.0
H73 H 0.84874 0.57293 0.13696 0.0
H74 H 0.90534 0.59887 0.06729 0.0
H75 H 0.95976 0.56881 0.07832 0.0
H76 H 0.22861 0.5218 0.07019 0.0
H77 H 0.31589 0.56163 0.07447 0.0
H78 H 0.29974 0.46897 0.13197 0.0
H79 H 0.21234 0.42862 0.12769 0.0
Pr80 Pr 0.59882 0.55541 0.11108 0.0
Pr81 Pr 0.62927 0.65027 0.09201 0.0
C82 C 0.57199 0.46525 0.1254 0.0
C83 C 0.55692 0.41569 0.11805 0.0
C84 C 0.52004 0.37755 0.13041 0.0
C85 C 0.50731 0.33022 0.12538 0.0
C86 C 0.53119 0.32003 0.10785 0.0
C87 C 0.56699 0.35798 0.09487 0.0
C88 C 0.57977 0.40552 0.09991 0.0
C89 C 0.63444 0.63226 0.1439 0.0
C90 C 0.70889 0.61273 0.0915 0.0
C91 C 0.65348 0.7424 0.08578 0.0
C92 C 0.627 0.76772 0.08074 0.0
C93 C 0.65196 0.81639 0.07493 0.0
C94 C 0.62894 0.84355 0.07605 0.0
C95 C 0.58102 0.82243 0.08345 0.0
C96 C 0.55535 0.7732 0.08798 0.0
C97 C 0.57797 0.74591 0.08631 0.0
C98 C 0.5839 0.5821 0.05727 0.0
C99 C 0.51628 0.57984 0.10359 0.0
O100 O 0.54188 0.4807 0.12206 0.0
O101 O 0.6166 0.49842 0.12238 0.0
O102 O 0.65208 0.63023 0.12515 0.0
O103 O 0.59387 0.59298 0.14635 0.0
O104 O 0.70337 0.65071 0.08902 0.0
O105 O 0.67276 0.57054 0.09717 0.0
O106 O 0.64189 0.72029 0.10572 0.0
O107 O 0.65865 0.71735 0.06925 0.0
O108 O 0.61189 0.58026 0.07221 0.0
O109 O 0.57617 0.61699 0.06179 0.0
O110 O 0.52601 0.54582 0.09914 0.0
O111 O 0.55179 0.6235 0.10745 0.0
H112 H 0.50195 0.38447 0.14448 0.0
H113 H 0.47999 0.30156 0.13576 0.0
H114 H 0.58617 0.35088 0.08143 0.0
H115 H 0.60824 0.43425 0.09007 0.0
H116 H 0.68985 0.83397 0.0709 0.0
H117 H 0.6493 0.8816 0.07259 0.0
H118 H 0.51847 0.75638 0.09379 0.0
H119 H 0.55806 0.70842 0.09103 0.0
Pr120 Pr 0.0816 0.53378 0.90667 0.0
Pr121 Pr 1.02722 0.43478 0.92386 0.0
C122 C 0.14368 0.62567 0.89446 0.0
C123 C 0.18166 0.67305 0.90277 0.0
C124 C 0.2231 0.69885 0.88924 0.0
C125 C 0.25813 0.74517 0.89556 0.0
C126 C 0.25245 0.76674 0.91556 0.0
C127 C 0.21143 0.74073 0.9294 0.0
C128 C 0.17633 0.6942 0.92309 0.0
C129 C 1.03792 0.46229 0.87185 0.0
C130 C 0.14305 0.48264 0.92161 0.0
C131 C 0.96049 0.3417 0.92898 0.0
C132 C 0.90797 0.31238 0.92588 0.0
C133 C 0.88005 0.27925 0.94306 0.0
C134 C 0.83035 0.25112 0.94039 0.0
C135 C 0.80775 0.25562 0.92048 0.0
C136 C 0.83549 0.28915 0.90339 0.0
C137 C 0.88519 0.3173 0.90607 0.0
C138 C 0.06772 0.49713 0.96113 0.0
C139 C 0.97249 0.49916 0.91738 0.0
O140 O 0.09959 0.6106 0.90106 0.0
O141 O 0.15395 0.59135 0.89295 0.0
O142 O 0.06171 0.46195 0.88892 0.0
O143 O 1.03681 0.50192 0.87156 0.0
O144 O 0.10309 0.44136 0.91873 0.0
O145 O 0.1419 0.52279 0.92301 0.0
O146 O 0.98637 0.35908 0.91022 0.0
O147 O 0.9754 0.37201 0.94619 0.0
O148 O 0.04895 0.50573 0.94362 0.0
O149 O 0.06737 0.45684 0.95885 0.0
O150 O 1.01509 0.53716 0.91867 0.0
O151 O 0.96797 0.45631 0.91486 0.0
H152 H 0.22795 0.68348 0.87346 0.0
H153 H 0.28935 0.76461 0.88459 0.0
H154 H 0.20627 0.75676 0.94484 0.0
H155 H 0.14475 0.67515 0.93385 0.0
H156 H 0.89674 0.27503 0.95853 0.0
H157 H 0.8095 0.22556 0.95379 0.0
H158 H 0.81869 0.29324 0.88793 0.0
H159 H 0.90576 0.34278 0.89264 0.0
Pr160 Pr 0.57137 0.58054 0.9049 0.0
Pr161 Pr 0.66816 0.61604 0.92312 0.0
C162 C 0.47998 0.55082 0.89158 0.0
C163 C 0.43133 0.53801 0.89989 0.0
C164 C 0.39238 0.4933 0.8938 0.0
C165 C 0.34543 0.48153 0.89944 0.0
C166 C 0.33648 0.51425 0.91132 0.0
C167 C 0.37536 0.55841 0.91812 0.0
C168 C 0.42246 0.57025 0.91246 0.0
C169 C 0.64709 0.61561 0.87112 0.0
C170 C 0.62597 0.69171 0.92329 0.0
C171 C 0.76144 0.64293 0.92784 0.0
C172 C 0.78693 0.61623 0.93217 0.0
C173 C 0.83526 0.64027 0.93875 0.0
C174 C 0.86204 0.61675 0.93787 0.0
C175 C 0.84096 0.56931 0.92988 0.0
C176 C 0.79211 0.54473 0.92433 0.0
C177 C 0.76518 0.56773 0.92581 0.0
C178 C 0.60189 0.57235 0.95889 0.0
C179 C 0.59889 0.50076 0.9155 0.0
O180 O 0.49575 0.52166 0.89675 0.0
O181 O 0.51364 0.5957 0.89176 0.0
O182 O 0.64497 0.63425 0.88953 0.0
O183 O 0.60872 0.57393 0.86976 0.0
O184 O 0.6654 0.68843 0.92537 0.0
O185 O 0.5842 0.65409 0.91834 0.0
O186 O 0.73858 0.6319 0.90812 0.0
O187 O 0.73675 0.64739 0.94482 0.0
O188 O 0.59798 0.59794 0.94325 0.0
O189 O 0.63942 0.56832 0.95535 0.0
O190 O 0.56383 0.50953 0.91891 0.0
O191 O 0.64199 0.53652 0.91055 0.0
H192 H 0.39818 0.4679 0.88403 0.0
H193 H 0.31593 0.44752 0.89383 0.0
H194 H 0.3691 0.58433 0.92708 0.0
H195 H 0.45169 0.60498 0.91739 0.0
H196 H 0.85283 0.67773 0.94345 0.0
H197 H 0.89979 0.63629 0.94217 0.0
H198 H 0.77525 0.50823 0.91811 0.0
H199 H 0.72798 0.54841 0.92057 0.0
Pr200 Pr 0.52094 1.01507 0.90972 0.0
Pr201 Pr 0.48654 0.07437 0.92654 0.0
C202 C 0.54115 0.94621 0.89653 0.0
C203 C 0.5634 0.91723 0.90282 0.0
C204 C 0.56248 0.88449 0.88654 0.0
C205 C 0.57826 0.85256 0.89256 0.0
C206 C 0.59548 0.8528 0.91498 0.0
C207 C 0.59792 0.8867 0.93113 0.0
C208 C 0.58158 0.91848 0.92514 0.0
C209 C 0.48067 0.04908 0.87508 0.0
C210 C 0.41113 0.95931 0.92785 0.0
C211 C 0.46726 0.14697 0.92861 0.0
C212 C 0.4925 0.19949 0.92893 0.0
C213 C 0.4663 0.22291 0.93276 0.0
C214 C 0.48784 0.27233 0.92958 0.0
C215 C 0.53577 0.29889 0.92232 0.0
C216 C 0.56237 0.27568 0.91889 0.0
C217 C 0.54084 0.22622 0.92215 0.0
C218 C 0.51262 0.03997 0.96463 0.0
C219 C 0.60417 0.12061 0.91669 0.0
O220 O 0.56871 0.9914 0.89147 0.0
O221 O 0.50287 0.93786 0.90806 0.0
O222 O 0.46303 0.02985 0.89404 0.0
O223 O 0.52319 0.05409 0.87374 0.0
O224 O 0.41295 1.001 0.92557 0.0
O225 O 0.451 0.95754 0.92786 0.0
O226 O 0.47282 0.12884 0.90952 0.0
O227 O 0.46841 0.12406 0.94713 0.0
O228 O 0.53726 0.05389 0.94597 0.0
O229 O 0.47315 0.04158 0.96302 0.0
O230 O 0.596 0.07685 0.91921 0.0
O231 O 0.5675 0.12818 0.91499 0.0
H232 H 0.54832 0.88274 0.86929 0.0
H233 H 0.57624 0.82697 0.87978 0.0
H234 H 0.61133 0.88771 0.94848 0.0
H235 H 0.58222 0.94325 0.93802 0.0
H236 H 0.42883 0.20279 0.93762 0.0
H237 H 0.46705 0.28988 0.93259 0.0
H238 H 0.59958 0.29581 0.91361 0.0
H239 H 0.56149 0.20869 0.91878 0.0
Pr240 Pr 0.22068 0.39766 0.44603 0.0
Pr241 Pr 0.12027 0.34408 0.42878 0.0
C242 C 0.31398 0.456 0.45729 0.0
C243 C 0.35976 0.49793 0.45007 0.0
C244 C 0.39346 0.52508 0.46697 0.0
C245 C 0.43761 0.56422 0.46069 0.0
C246 C 0.44909 0.57945 0.43728 0.0
C247 C 0.41584 0.54916 0.42032 0.0
C248 C 0.37176 0.50951 0.42667 0.0
C249 C 0.14792 0.35554 0.48047 0.0
C250 C 0.16994 0.45974 0.43116 0.0
C251 C 1.02689 0.27816 0.42806 0.0
C252 C 1.0007 0.22546 0.42871 0.0
C253 C 1.00945 0.19851 0.41225 0.0
C254 C 0.98561 0.14867 0.41382 0.0
C255 C 0.95293 0.12516 0.43189 0.0
C256 C 0.94503 0.15198 0.44865 0.0
C257 C 0.96876 0.2018 0.44706 0.0
C258 C 0.18142 0.38307 0.39139 0.0
C259 C 0.18482 0.28749 0.4337 0.0
O260 O 0.2985 0.41703 0.44506 0.0
O261 O 0.2795 0.46317 0.46448 0.0
O262 O 0.14915 0.3794 0.46313 0.0
O263 O 0.18709 0.35333 0.48125 0.0
O264 O 0.12826 0.4201 0.43368 0.0
O265 O 0.21021 0.4585 0.43007 0.0
O266 O 0.04989 0.29869 0.4471 0.0
O267 O 0.05099 0.29917 0.40918 0.0
O268 O 0.19098 0.36524 0.40906 0.0
O269 O 0.14057 0.382 0.39344 0.0
O270 O 0.22223 0.32864 0.43889 0.0
O271 O 0.14203 0.28326 0.43079 0.0
H272 H 0.38582 0.5158 0.48516 0.0
H273 H 0.46266 0.58312 0.47455 0.0
H274 H 0.42188 0.5543 0.40206 0.0
H275 H 0.34702 0.48777 0.4132 0.0
H276 H 1.03458 0.21582 0.39817 0.0
H277 H 0.9918 0.12832 0.40068 0.0
H278 H 0.91975 0.13428 0.46264 0.0
H279 H 0.96216 0.22192 0.46018 0.0
Pr280 Pr 0.70812 0.85448 0.44802 0.0
Pr281 Pr 0.76209 0.80644 0.43229 0.0
C282 C 0.65338 0.89363 0.45919 0.0
C283 C 0.61258 0.89998 0.45264 0.0
C284 C 0.60325 0.93082 0.46596 0.0
C285 C 0.56543 0.93855 0.46023 0.0
C286 C 0.53616 0.91554 0.44103 0.0
C287 C 0.54571 0.88495 0.42746 0.0
C288 C 0.58385 0.8773 0.4332 0.0
C289 C 0.75134 0.82649 0.48331 0.0
C290 C 0.64344 0.74097 0.43279 0.0
C291 C 0.82075 0.76979 0.43052 0.0
C292 C 0.87398 0.795 0.43103 0.0
C293 C 0.90016 0.79011 0.41274 0.0
C294 C 0.95045 0.81447 0.41332 0.0
C295 C 0.97523 0.84404 0.4322 0.0
C296 C 0.94925 0.84965 0.45025 0.0
C297 C 0.89925 0.82562 0.44964 0.0
C298 C 0.74322 0.85057 0.39513 0.0
C299 C 0.81886 0.92368 0.43702 0.0
O300 O 0.6917 0.91494 0.4462 0.0
O301 O 0.64455 0.8517 0.46675 0.0
O302 O 0.72686 0.803 0.46645 0.0
O303 O 0.75573 0.86869 0.48257 0.0
O304 O 0.68359 0.73884 0.4314 0.0
O305 O 0.64419 0.78186 0.43603 0.0
O306 O 0.80003 0.77196 0.44965 0.0
O307 O 0.80043 0.77478 0.41181 0.0
O308 O 0.71345 0.82745 0.41113 0.0
O309 O 0.78379 0.85241 0.39899 0.0
O310 O 0.77659 0.91942 0.43394 0.0
O311 O 0.82246 0.88545 0.44186 0.0
H312 H 0.62516 0.9488 0.48095 0.0
H313 H 0.55832 0.96177 0.47107 0.0
H314 H 0.52313 0.86641 0.41276 0.0
H315 H 0.5907 0.85355 0.42263 0.0
H316 H 0.88174 0.76724 0.39811 0.0
H317 H 0.97001 0.80949 0.39932 0.0
H318 H 0.96773 0.87201 0.46503 0.0
H319 H 0.8805 0.83096 0.4639 0.0
Pr320 Pr 0.25464 0.88257 0.44441 0.0
Pr321 Pr 0.29536 0.98154 0.42954 0.0
C322 C 0.21984 0.79019 0.45679 0.0
C323 C 0.21141 0.74247 0.45023 0.0
C324 C 0.17222 0.70227 0.46013 0.0
C325 C 0.16387 0.65632 0.45524 0.0
C326 C 0.19452 0.64982 0.44028 0.0
C327 C 0.23325 0.68993 0.4299 0.0
C328 C 0.24169 0.73612 0.43485 0.0
C329 C 0.28336 0.95264 0.48039 0.0
C330 C 0.36634 0.93371 0.429 0.0
C331 C 0.33028 0.07635 0.42828 0.0
C332 C 0.30661 0.1056 0.42658 0.0
C333 C 0.28293 0.10666 0.40624 0.0
C334 C 0.25751 0.13151 0.40581 0.0
C335 C 0.2552 0.15541 0.42571 0.0
C336 C 0.27854 0.15422 0.44601 0.0
C337 C 0.30413 0.12971 0.44642 0.0
C338 C 0.25204 0.92121 0.3915 0.0
C339 C 0.17915 0.91598 0.43642 0.0
O340 O 0.19427 0.80578 0.4463 0.0
O341 O 0.26371 0.82382 0.46116 0.0
O342 O 0.30616 0.95269 0.46297 0.0
O343 O 0.24159 0.91456 0.4799 0.0
O344 O 0.36569 0.97459 0.42925 0.0
O345 O 0.32643 0.89233 0.4303 0.0
O346 O 0.32143 0.05196 0.44755 0.0
O347 O 0.33048 0.05228 0.40996 0.0
O348 O 0.2768 0.91462 0.40677 0.0
O349 O 0.24697 0.95742 0.39694 0.0
O350 O 0.18653 0.88085 0.43099 0.0
O351 O 0.21597 0.9581 0.44191 0.0
H352 H 0.14847 0.70649 0.47202 0.0
H353 H 0.13413 0.62583 0.46355 0.0
H354 H 0.2575 0.6855 0.41847 0.0
H355 H 0.27208 0.76673 0.427 0.0
H356 H 0.2837 0.08808 0.39074 0.0
H357 H 0.24009 0.13261 0.38993 0.0
H358 H 0.27747 0.17286 0.46143 0.0
H359 H 0.32162 0.12914 0.46239 0.0
Pr360 Pr 0.75209 0.86966 0.2429 0.0
Pr361 Pr 0.69001 0.77514 0.26061 0.0
C362 C 0.81306 0.95947 0.22769 0.0
C363 C 0.84866 1.00873 0.23446 0.0
C364 C 0.85225 0.04684 0.22112 0.0
C365 C 0.88731 0.09389 0.22606 0.0
C366 C 0.91936 0.10365 0.24447 0.0
C367 C 0.91509 0.06573 0.25827 0.0
C368 C 0.87987 1.01847 0.25332 0.0
C369 C 0.71403 0.79388 0.20935 0.0
C370 C 0.80806 0.81636 0.26214 0.0
C371 C 0.6245 0.68148 0.26322 0.0
C372 C 0.57228 0.65032 0.26614 0.0
C373 C 0.54741 0.65104 0.28607 0.0
C374 C 0.49716 0.62402 0.28675 0.0
C375 C 0.47149 0.59644 0.26747 0.0
C376 C 0.4964 0.59572 0.24772 0.0
C377 C 0.54618 0.62218 0.24711 0.0
C378 C 0.70861 0.84014 0.29661 0.0
C379 C 0.64562 0.8441 0.24942 0.0
O380 O 0.76841 0.94449 0.23305 0.0
O381 O 0.82483 0.9262 0.22949 0.0
O382 O 0.73415 0.79646 0.22798 0.0
O383 O 0.70934 0.83147 0.20772 0.0
O384 O 0.76522 0.77723 0.26337 0.0
O385 O 0.81256 0.85848 0.25792 0.0
O386 O 0.63578 0.70704 0.24431 0.0
O387 O 0.65178 0.70471 0.28099 0.0
O388 O 0.73971 0.84407 0.28181 0.0
O389 O 0.66681 0.80497 0.29135 0.0
O390 O 0.68844 0.87812 0.25491 0.0
O391 O 0.639 0.80128 0.24463 0.0
H392 H 0.82853 0.04008 0.20651 0.0
H393 H 0.89038 0.12261 0.21508 0.0
H394 H 0.93986 0.0726 0.27241 0.0
H395 H 0.87765 0.9896 0.26387 0.0
H396 H 0.56658 0.67288 0.30086 0.0
H397 H 0.47829 0.6247 0.30218 0.0
H398 H 0.47721 0.57465 0.23272 0.0
H399 H 0.56434 0.62157 0.23141 0.0
Pr400 Pr 0.23249 0.90721 0.23948 0.0
Pr401 Pr 0.33386 0.94974 0.25421 0.0
C402 C 0.1389 0.87359 0.2295 0.0
C403 C 0.0927 0.86754 0.23811 0.0
C404 C 0.06748 0.88384 0.2245 0.0
C405 C 1.02127 0.87357 0.23083 0.0
C406 C 0.99926 0.8466 0.25086 0.0
C407 C 1.02473 0.83112 0.2648 0.0
C408 C 0.07109 0.8416 0.25853 0.0
C409 C 0.30202 0.93186 0.20346 0.0
C410 C 0.2865 1.0209 0.25372 0.0
C411 C 0.42911 0.98556 0.25499 0.0
C412 C 0.4582 0.96163 0.25471 0.0
C413 C 0.497 0.9759 0.26993 0.0
C414 C 0.52489 0.95357 0.26917 0.0
C415 C 0.51436 0.9169 0.2531 0.0
C416 C 0.47525 0.90214 0.23815 0.0
C417 C 0.44721 0.92401 0.23906 0.0
C418 C 0.27321 0.90909 0.29242 0.0
C419 C 0.26693 0.83236 0.24971 0.0
O420 O 0.15538 0.84818 0.2394 0.0
O421 O 0.17269 0.91626 0.22331 0.0
O422 O 0.30302 0.95613 0.22042 0.0
O423 O 0.26246 0.89135 0.204 0.0
O424 O 0.32715 1.01982 0.25487 0.0
O425 O 0.24486 0.98156 0.25112 0.0
O426 O 0.40501 0.98105 0.236 0.0
O427 O 0.4046 0.9813 0.27387 0.0
O428 O 0.26629 0.93242 0.27649 0.0
O429 O 0.31132 0.90643 0.28814 0.0
O430 O 0.23102 0.83953 0.25375 0.0
O431 O 0.30962 0.86884 0.24435 0.0
H432 H 0.08299 0.9034 0.20857 0.0
H433 H 1.00214 0.88565 0.21977 0.0
H434 H 1.00832 0.81008 0.28025 0.0
H435 H 0.08943 0.82829 0.26936 0.0
H436 H 0.50592 1.00451 0.28224 0.0
H437 H 0.55511 0.96537 0.28081 0.0
H438 H 0.4667 0.87395 0.22564 0.0
H439 H 0.41713 0.91168 0.22734 0.0
Pr440 Pr 0.1943 0.35516 0.23969 0.0
Pr441 Pr 0.15042 0.4099 0.25719 0.0
C442 C 0.22217 0.29148 0.2274 0.0
C443 C 0.24015 0.25971 0.23562 0.0
C444 C 0.27715 0.25851 0.22324 0.0
C445 C 0.29013 0.22396 0.22827 0.0
C446 C 0.26623 0.18985 0.24576 0.0
C447 C 0.23078 0.19235 0.25894 0.0
C448 C 0.21785 0.22705 0.25394 0.0
C449 C 0.16169 0.39516 0.20501 0.0
C450 C 0.08205 0.29493 0.25476 0.0
C451 C 0.12407 0.47707 0.25958 0.0
C452 C 0.15032 0.5296 0.25889 0.0
C453 C 0.1289 0.55525 0.26732 0.0
C454 C 0.15293 0.60512 0.26559 0.0
C455 C 0.1986 0.62977 0.2554 0.0
C456 C 0.22041 0.60422 0.2473 0.0
C457 C 0.19632 0.5544 0.24898 0.0
C458 C 0.17282 0.37046 0.29457 0.0
C459 C 0.2709 0.46239 0.25432 0.0
O460 O 0.25131 0.33764 0.22743 0.0
O461 O 0.17814 0.27969 0.23255 0.0
O462 O 0.13999 0.37274 0.22279 0.0
O463 O 0.20312 0.39765 0.20407 0.0
O464 O 0.08096 0.33508 0.25208 0.0
O465 O 0.1232 0.29566 0.25626 0.0
O466 O 0.12485 0.45622 0.24029 0.0
O467 O 0.12997 0.45691 0.27804 0.0
O468 O 0.19955 0.3878 0.27674 0.0
O469 O 0.13307 0.37159 0.29257 0.0
O470 O 0.26506 0.41927 0.25234 0.0
O471 O 0.23335 0.46888 0.25342 0.0
H472 H 0.29461 0.28302 0.20895 0.0
H473 H 0.3172 0.22231 0.21776 0.0
H474 H 0.21164 0.16608 0.27236 0.0
H475 H 0.18915 0.22707 0.26377 0.0
H476 H 0.09341 0.53669 0.27493 0.0
H477 H 0.1357 0.62449 0.2719 0.0
H478 H 0.25561 0.62276 0.23938 0.0
H479 H 0.21323 0.5352 0.24218 0.0
Pr480 Pr 0.8894 0.73358 0.77478 0.0
Pr481 Pr 0.80142 0.68328 0.75295 0.0
C482 C 0.98124 0.78961 0.78852 0.0
C483 C 1.02692 0.83292 0.78311 0.0
C484 C 0.06373 0.84967 0.79941 0.0
C485 C 0.10882 0.88839 0.79425 0.0
C486 C 0.11815 0.91404 0.77306 0.0
C487 C 0.08179 0.89297 0.75591 0.0
C488 C 1.03651 0.85399 0.76107 0.0
C489 C 0.80999 0.69321 0.80587 0.0
C490 C 0.83932 0.79717 0.7603 0.0
C491 C 0.71777 0.6021 0.75192 0.0
C492 C 0.67236 0.55684 0.75367 0.0
C493 C 0.65063 0.53072 0.73354 0.0
C494 C 0.6165 0.48216 0.73511 0.0
C495 C 0.60274 0.45954 0.75689 0.0
C496 C 0.62196 0.48662 0.77708 0.0
C497 C 0.65713 0.53465 0.77547 0.0
C498 C 0.86522 0.72202 0.71716 0.0
C499 C 0.86512 0.6289 0.76479 0.0
O500 O 0.96731 0.7543 0.77393 0.0
O501 O 0.94592 0.79444 0.79665 0.0
O502 O 0.81571 0.7181 0.78831 0.0
O503 O 0.84675 0.68705 0.80804 0.0
O504 O 0.7995 0.75555 0.75735 0.0
O505 O 0.88042 0.79827 0.76338 0.0
O506 O 0.75058 0.61199 0.7677 0.0
O507 O 0.72691 0.63625 0.73677 0.0
O508 O 0.87472 0.70635 0.73577 0.0
O509 O 0.82323 0.71897 0.71752 0.0
O510 O 0.88916 0.66299 0.77951 0.0
O511 O 0.83437 0.63168 0.75077 0.0
H512 H 0.05811 0.83174 0.816 0.0
H513 H 0.13636 0.89656 0.80699 0.0
H514 H 0.08781 0.90456 0.73808 0.0
H515 H 1.00947 0.83937 0.74761 0.0
H516 H 0.66265 0.54681 0.71656 0.0
H517 H 0.60186 0.46182 0.71933 0.0
H518 H 0.61153 0.46994 0.79403 0.0
H519 H 0.67427 0.55371 0.79124 0.0
Pr520 Pr 0.3646 0.16934 0.77434 0.0
Pr521 Pr 0.42625 0.13932 0.75457 0.0
C522 C 0.29422 0.18539 0.79002 0.0
C523 C 0.26379 0.2061 0.78378 0.0
C524 C 0.23633 0.21157 0.80114 0.0
C525 C 0.20412 0.22735 0.79559 0.0
C526 C 0.19884 0.23814 0.77253 0.0
C527 C 0.22764 0.23434 0.7552 0.0
C528 C 0.2597 0.21813 0.76076 0.0
C529 C 0.40374 0.13019 0.80669 0.0
C530 C 0.31216 0.06319 0.75364 0.0
C531 C 0.50224 0.1256 0.75119 0.0
C532 C 0.55483 0.1544 0.74962 0.0
C533 C 0.58092 0.13425 0.74019 0.0
C534 C 0.63077 0.15749 0.74265 0.0
C535 C 0.65496 0.20088 0.75483 0.0
C536 C 0.62914 0.22202 0.76344 0.0
C537 C 0.57948 0.19918 0.76067 0.0
C538 C 0.38779 0.16473 0.71837 0.0
C539 C 0.46748 0.25664 0.76435 0.0
O540 O 0.33969 0.21469 0.79368 0.0
O541 O 0.28625 0.14667 0.77911 0.0
O542 O 0.38365 0.11302 0.78786 0.0
O543 O 0.40689 0.17163 0.80904 0.0
O544 O 0.35384 0.06507 0.75637 0.0
O545 O 0.31041 0.10292 0.7534 0.0
O546 O 0.48447 0.13033 0.77067 0.0
O547 O 0.47644 0.1231 0.73312 0.0
O548 O 0.40094 0.18815 0.73737 0.0
O549 O 0.39299 0.1272 0.71845 0.0
O550 O 0.42284 0.24597 0.76639 0.0
O551 O 0.47835 0.22222 0.76253 0.0
H552 H 0.23899 0.20255 0.81899 0.0
H553 H 0.18249 0.23017 0.80924 0.0
H554 H 0.22428 0.24264 0.73731 0.0
H555 H 0.28057 0.21413 0.74709 0.0
H556 H 0.56257 0.09955 0.73188 0.0
H557 H 0.65025 0.14059 0.73605 0.0
H558 H 0.64722 0.25535 0.77296 0.0
H559 H 0.56012 0.21533 0.76825 0.0
Pr560 Pr 0.9244 0.22048 0.77863 0.0
Pr561 Pr 0.96951 0.32041 0.76183 0.0
C562 C 0.88517 0.12698 0.79029 0.0
C563 C 0.87808 0.07907 0.78454 0.0
C564 C 0.88437 0.05212 0.80195 0.0
C565 C 0.87446 1.00532 0.79756 0.0
C566 C 0.85795 0.98457 0.77567 0.0
C567 C 0.85157 1.01137 0.75821 0.0
C568 C 0.86147 0.0582 0.7626 0.0
C569 C 0.95119 0.29196 0.81337 0.0
C570 C 1.03859 0.27107 0.76367 0.0
C571 C 1.00916 0.41562 0.75877 0.0
C572 C 0.98763 0.44661 0.75694 0.0
C573 C 0.95281 0.43851 0.74004 0.0
C574 C 0.92915 0.46505 0.74025 0.0
C575 C 0.93955 0.49952 0.7575 0.0
C576 C 0.97413 0.50755 0.77438 0.0
C577 C 0.998 0.48133 0.77409 0.0
C578 C 0.92428 0.25676 0.72503 0.0
C579 C 0.85371 0.26145 0.7691 0.0
O580 O 0.86405 0.14409 0.77718 0.0
O581 O 0.92693 0.1599 0.79799 0.0
O582 O 0.97517 0.29159 0.79646 0.0
O583 O 0.91 0.25304 0.81335 0.0
O584 O 1.03774 0.31116 0.75982 0.0
O585 O 0.99954 0.23088 0.76927 0.0
O586 O 1.00107 0.39295 0.77854 0.0
O587 O 1.00575 0.38912 0.74082 0.0
O588 O 0.94843 0.25061 0.74084 0.0
O589 O 0.92095 0.29447 0.72932 0.0
O590 O 0.85789 0.22352 0.76573 0.0
O591 O 0.89199 0.30319 0.77333 0.0
H592 H 0.89659 0.06716 0.81906 0.0
H593 H 0.88003 0.9854 0.81118 0.0
H594 H 0.83923 0.9961 0.74116 0.0
H595 H 0.85588 0.07791 0.74888 0.0
H596 H 0.94337 0.41128 0.7269 0.0
H597 H 0.90281 0.45881 0.72699 0.0
H598 H 0.98274 0.53429 0.78771 0.0
H599 H 1.024 0.48754 0.78754 0.0
Pr600 Pr 0.41709 0.20322 0.5678 0.0
Pr601 Pr 0.36288 0.10661 0.58718 0.0
C602 C 0.48055 0.29341 0.55387 0.0
C603 C 0.51508 0.34251 0.56168 0.0
C604 C 0.51869 0.38146 0.54906 0.0
C605 C 0.55454 0.42818 0.55418 0.0
C606 C 0.58752 0.43685 0.57204 0.0
C607 C 0.58291 0.39815 0.58532 0.0
C608 C 0.54692 0.35127 0.5802 0.0
C609 C 0.37237 0.12886 0.53459 0.0
C610 C 0.47746 0.15153 0.5849 0.0
C611 C 0.29458 1.01458 0.59157 0.0
C612 C 0.24161 0.98898 0.59053 0.0
C613 C 0.21422 0.98058 0.61083 0.0
C614 C 0.16422 0.9558 0.60977 0.0
C615 C 0.14083 0.93865 0.58845 0.0
C616 C 0.16791 0.94792 0.5681 0.0
C617 C 0.21786 0.97282 0.56912 0.0
C618 C 0.40364 0.17106 0.62332 0.0
C619 C 0.30994 0.17378 0.58266 0.0
O620 O 0.4349 0.27813 0.55659 0.0
O621 O 0.49175 0.26006 0.55715 0.0
O622 O 0.39667 0.13014 0.55176 0.0
O623 O 0.371 0.16828 0.53334 0.0
O624 O 0.43721 0.11025 0.58349 0.0
O625 O 0.47693 0.19209 0.58464 0.0
O626 O 0.31706 0.03312 0.57209 0.0
O627 O 0.315 0.04225 0.60949 0.0
O628 O 0.38582 0.17914 0.60529 0.0
O629 O 0.40264 0.13025 0.62209 0.0
O630 O 0.35305 0.21067 0.58001 0.0
O631 O 0.30347 0.12988 0.5828 0.0
H632 H 0.49472 0.3756 0.53467 0.0
H633 H 0.55771 0.45746 0.54363 0.0
H634 H 0.60823 0.40408 0.59906 0.0
H635 H 0.54492 0.32187 0.59021 0.0
H636 H 0.23137 0.99251 0.62757 0.0
H637 H 0.14371 0.94843 0.62566 0.0
H638 H 0.15036 0.93455 0.55155 0.0
H639 H 0.23781 0.97868 0.55314 0.0
Pr640 Pr 0.90363 0.23785 0.5728 0.0
Pr641 Pr 1.00311 0.28049 0.58836 0.0
C642 C 0.81036 0.20083 0.56146 0.0
C643 C 0.76385 0.19777 0.56587 0.0
C644 C 0.72761 0.17499 0.54947 0.0
C645 C 0.68249 0.17004 0.55309 0.0
C646 C 0.67262 0.19068 0.57256 0.0
C647 C 0.70808 0.20834 0.59025 0.0
C648 C 0.75347 0.21312 0.58667 0.0
C649 C 0.97403 0.2645 0.53717 0.0
C650 C 0.95527 0.35099 0.58734 0.0
C651 C 0.09844 0.31874 0.59057 0.0
C652 C 0.12914 0.29674 0.59217 0.0
C653 C 0.12832 0.27041 0.61183 0.0
C654 C 0.15392 0.24579 0.6119 0.0
C655 C 0.18038 0.24697 0.5923 0.0
C656 C 0.18139 0.27324 0.57272 0.0
C657 C 0.15614 0.29808 0.57269 0.0
C658 C 0.94076 0.23691 0.62591 0.0
C659 C 0.94098 0.16427 0.5806 0.0
O660 O 0.82571 0.18161 0.57676 0.0
O661 O 0.84457 0.23987 0.55204 0.0
O662 O 0.97438 0.28855 0.55416 0.0
O663 O 0.93541 0.22317 0.5378 0.0
O664 O 0.99581 0.35008 0.58952 0.0
O665 O 0.91419 0.31191 0.58337 0.0
O666 O 0.07501 0.31049 0.57104 0.0
O667 O 0.07274 0.31628 0.60874 0.0
O668 O 0.93495 0.26162 0.61032 0.0
O669 O 0.97738 0.23194 0.62099 0.0
O670 O 0.90399 0.16968 0.58467 0.0
O671 O 0.98343 0.2021 0.57666 0.0
H672 H 0.73386 0.15994 0.53393 0.0
H673 H 0.65542 0.14877 0.5405 0.0
H674 H 0.70135 0.21727 0.60731 0.0
H675 H 0.78008 0.22792 0.60031 0.0
H676 H 0.10743 0.26819 0.62701 0.0
H677 H 0.15318 0.22588 0.62721 0.0
H678 H 0.20191 0.27467 0.55753 0.0
H679 H 0.15695 0.31763 0.55721 0.0
Pr680 Pr 0.8683 0.68866 0.56717 0.0
Pr681 Pr 0.82072 0.74217 0.58612 0.0
C682 C 0.90634 0.63294 0.55591 0.0
C683 C 0.91012 0.59021 0.56136 0.0
C684 C 0.93586 0.57752 0.54628 0.0
C685 C 0.94205 0.53847 0.55118 0.0
C686 C 0.91977 0.50821 0.57055 0.0
C687 C 0.89925 0.52558 0.58707 0.0
C688 C 0.89323 0.56504 0.58224 0.0
C689 C 0.83862 0.73341 0.53404 0.0
C690 C 0.75439 0.62647 0.58163 0.0
C691 C 0.79429 0.80879 0.59099 0.0
C692 C 0.82143 0.86154 0.58957 0.0
C693 C 0.81262 0.88915 0.60551 0.0
C694 C 0.83796 0.93915 0.604 0.0
C695 C 0.8725 0.96212 0.58656 0.0
C696 C 0.88215 0.93463 0.57094 0.0
C697 C 0.85689 0.88476 0.57247 0.0
C698 C 0.84774 0.70321 0.62203 0.0
C699 C 0.94072 0.80013 0.57807 0.0
O700 O 0.92589 0.66842 0.57054 0.0
O701 O 0.86655 0.62719 0.54682 0.0
O702 O 0.81568 0.70894 0.55119 0.0
O703 O 0.87913 0.73392 0.53241 0.0
O704 O 0.75259 0.66658 0.58067 0.0
O705 O 0.79572 0.62703 0.58182 0.0
O706 O 0.78956 0.78588 0.57156 0.0
O707 O 0.80364 0.78949 0.60875 0.0
O708 O 0.87262 0.72172 0.6038 0.0
O709 O 0.80686 0.70233 0.62104 0.0
O710 O 0.93783 0.75899 0.57349 0.0
O711 O 0.90184 0.80377 0.58098 0.0
H712 H 0.95235 0.59863 0.53084 0.0
H713 H 0.96561 0.53342 0.53967 0.0
H714 H 0.88894 0.51044 0.6042 0.0
H715 H 0.87633 0.5765 0.59502 0.0
H716 H 0.78573 0.87202 0.61892 0.0
H717 H 0.82984 0.9599 0.61606 0.0
H718 H 0.9084 0.95177 0.55726 0.0
H719 H 0.86463 0.86433 0.56007 0.0
C720 C 0.50859 0.88673 0.07821 0.0
C721 C 0.52427 0.91566 0.09844 0.0
C722 C 0.57347 0.88032 0.10974 0.0
C723 C 0.55942 0.85271 0.08905 0.0
N724 N 0.50782 0.8226 0.05565 0.0
N725 N 0.5606 0.93133 0.13626 0.0
C726 C 0.52481 0.85347 0.07402 0.0
C727 C 0.55346 0.90979 0.11505 0.0
N728 N 0.48036 0.89289 0.06243 0.0
N729 N 0.60654 0.87886 0.12414 0.0
H730 H 0.5454 0.95219 0.14084 0.0
H731 H 0.57764 0.9252 0.1501 0.0
H732 H 0.61928 0.85502 0.12196 0.0
H733 H 0.62322 0.90272 0.13772 0.0
H734 H 0.47213 0.87728 0.04607 0.0
H735 H 0.467 0.91607 0.06507 0.0
H736 H 0.47886 0.81723 0.04549 0.0
H737 H 0.521 0.79991 0.05125 0.0
C738 C 0.25733 0.70935 0.10697 0.0
C739 C 0.24382 0.73872 0.09443 0.0
C740 C 0.17242 0.66728 0.08034 0.0
C741 C 0.1809 0.63844 0.0962 0.0
N742 N 0.23276 0.63254 0.12484 0.0
N743 N 0.18576 0.74613 0.07097 0.0
C744 C 0.22411 0.65943 0.10935 0.0
C745 C 0.20078 0.71781 0.08147 0.0
N746 N 0.30229 0.72915 0.11624 0.0
N747 N 0.13823 0.64627 0.06353 0.0
H748 H 0.20549 0.78339 0.07122 0.0
H749 H 0.15184 0.73267 0.06369 0.0
H750 H 0.11828 0.60936 0.06133 0.0
H751 H 0.13365 0.66538 0.05014 0.0
H752 H 0.31638 0.70913 0.12345 0.0
H753 H 0.32721 0.76554 0.1149 0.0
H754 H 0.25988 0.64706 0.13721 0.0
H755 H 0.21166 0.59567 0.12608 0.0
C756 C 0.39608 0.56888 0.12081 0.0
C757 C 0.36612 0.53648 0.10356 0.0
C758 C 0.43575 0.54123 0.08431 0.0
C759 C 0.4654 0.56854 0.1031 0.0
N760 N 0.47156 0.60178 0.14138 0.0
N761 N 0.35607 0.48378 0.07166 0.0
C762 C 0.44512 0.58101 0.12192 0.0
C763 C 0.38554 0.52026 0.08615 0.0
N764 N 0.37782 0.58835 0.13593 0.0
N765 N 0.45549 0.53717 0.06411 0.0
H766 H 0.31879 0.46706 0.07234 0.0
H767 H 0.36856 0.467 0.06047 0.0
H768 H 0.49211 0.55454 0.06141 0.0
H769 H 0.43569 0.52171 0.04912 0.0
H770 H 0.39899 0.61591 0.14733 0.0
H771 H 0.34193 0.57964 0.13571 0.0
H772 H 0.45702 0.60699 0.15651 0.0
H773 H 0.50701 0.60985 0.14329 0.0
C774 C 0.93043 0.54017 0.90134 0.0
C775 C 0.93044 0.50679 0.91739 0.0
C776 C 0.86616 0.50864 0.93972 0.0
C777 C 0.87068 0.54652 0.92529 0.0
N778 N 0.90467 0.5972 0.89168 0.0
N779 N 0.89345 0.4525 0.94934 0.0
C780 C 0.9019 0.56169 0.90578 0.0
C781 C 0.89624 0.48843 0.93565 0.0
N782 N 0.95656 0.54966 0.88134 0.0
N783 N 0.83331 0.49247 0.95738 0.0
H784 H 0.91037 0.4332 0.94505 0.0
H785 H 0.87381 0.44064 0.96462 0.0
H786 H 0.81303 0.50842 0.96174 0.0
H787 H 0.82493 0.46277 0.96762 0.0
H788 H 0.95551 0.57035 0.86773 0.0
H789 H 0.97629 0.53295 0.87734 0.0
H790 H 0.93092 0.6145 0.87907 0.0
H791 H 0.88162 0.61109 0.89308 0.0
C792 C 0.5632 0.37317 0.89784 0.0
C793 C 0.55853 0.35161 0.91991 0.0
C794 C 0.5816 0.42751 0.93899 0.0
C795 C 0.58889 0.45036 0.91699 0.0
N796 N 0.59361 0.4465 0.87535 0.0
N797 N 0.57496 0.36034 0.96089 0.0
C798 C 0.58224 0.42368 0.89635 0.0
C799 C 0.57167 0.37957 0.94026 0.0
N800 N 0.54757 0.34509 0.87847 0.0
N801 N 0.58171 0.45058 0.95879 0.0
H802 H 0.56756 0.32506 0.96253 0.0
H803 H 0.58954 0.38056 0.97584 0.0
H804 H 0.58836 0.48532 0.95875 0.0
H805 H 0.57066 0.43383 0.97489 0.0
H806 H 0.54478 0.35758 0.86221 0.0
H807 H 0.53438 0.30827 0.87896 0.0
H808 H 0.594 0.43007 0.85987 0.0
H809 H 0.60614 0.48304 0.8736 0.0
C810 C 0.67331 0.19917 0.93111 0.0
C811 C 0.65487 0.16037 0.91517 0.0
C812 C 0.73669 0.1854 0.90193 0.0
C813 C 0.75496 0.22461 0.9175 0.0
N814 N 0.74054 0.27535 0.94295 0.0
N815 N 0.66771 0.12498 0.88105 0.0
C816 C 0.72315 0.23353 0.93084 0.0
C817 C 0.68626 0.15611 0.89924 0.0
N818 N 0.64386 0.20205 0.9473 0.0
N819 N 0.76744 0.17487 0.89038 0.0
H820 H 0.63095 0.10414 0.87813 0.0
H821 H 0.68849 0.12353 0.86755 0.0
H822 H 0.8046 0.1955 0.89175 0.0
H823 H 0.75615 0.14361 0.88088 0.0
H824 H 0.65621 0.22545 0.96133 0.0
H825 H 0.60708 0.17906 0.94756 0.0
H826 H 0.71873 0.28641 0.95102 0.0
H827 H 0.77681 0.30118 0.94319 0.0
C828 C 0.1867 0.16947 0.43538 0.0
C829 C 0.23212 0.18546 0.42486 0.0
C830 C 0.23516 0.25991 0.41355 0.0
C831 C 0.19454 0.2481 0.42772 0.0
N832 N 0.13043 0.19075 0.452 0.0
N833 N 0.30258 0.24831 0.40619 0.0
C834 C 0.16938 0.20226 0.43834 0.0
C835 C 0.257 0.23117 0.41438 0.0
N836 N 0.16006 0.12287 0.44228 0.0
N837 N 0.25239 0.29826 0.39885 0.0
H838 H 0.32017 0.22849 0.40633 0.0
H839 H 0.32451 0.28373 0.40108 0.0
H840 H 0.23657 0.31952 0.39715 0.0
H841 H 0.2789 0.30573 0.38651 0.0
H842 H 0.12475 0.10754 0.44799 0.0
H843 H 0.17208 0.09833 0.44047 0.0
H844 H 0.11433 0.16056 0.46258 0.0
H845 H 0.11515 0.21246 0.45354 0.0
C846 C 0.93194 0.0444 0.44819 0.0
C847 C 0.92324 0.07231 0.43193 0.0
C848 C 0.85951 0.99966 0.41454 0.0
C849 C 0.86142 0.9722 0.43338 0.0
N850 N 0.90062 0.96884 0.46853 0.0
N851 N 0.8738 0.07683 0.40161 0.0
C852 C 0.89844 0.99448 0.45019 0.0
C853 C 0.88578 0.05005 0.41558 0.0
N854 N 0.9725 0.0655 0.46144 0.0
N855 N 0.83367 0.9774 0.39519 0.0
H856 H 0.89177 0.11411 0.40188 0.0
H857 H 0.84314 0.06187 0.39131 0.0
H858 H 0.81719 0.94058 0.39316 0.0
H859 H 0.83404 0.9956 0.38016 0.0
H860 H 0.98347 0.04639 0.47192 0.0
H861 H 0.99738 0.10195 0.46043 0.0
H862 H 0.92245 0.98439 0.48293 0.0
H863 H 0.87925 0.93199 0.4698 0.0
C864 C 0.09685 0.86485 0.4521 0.0
C865 C 0.12848 0.90476 0.43832 0.0
C866 C 0.05959 0.90954 0.42308 0.0
C867 C 1.02813 0.86566 0.43434 0.0
N868 N 1.01658 0.79828 0.45746 0.0
N869 N 0.14038 0.96398 0.4095 0.0
C870 C 0.04672 0.84252 0.44836 0.0
C871 C 0.11006 0.92729 0.42367 0.0
N872 N 0.11486 0.84897 0.46925 0.0
N873 N 1.04119 0.93445 0.41209 0.0
H874 H 0.17746 0.97877 0.40994 0.0
H875 H 0.12873 0.97807 0.39641 0.0
H876 H 1.00447 0.92191 0.41095 0.0
H877 H 0.06221 0.96898 0.40565 0.0
H878 H 0.09357 0.8231 0.4814 0.0
H879 H 0.15134 0.86531 0.4729 0.0
H880 H 1.02858 0.77716 0.46545 0.0
H881 H 0.97949 0.78074 0.45536 0.0
C882 C 0.58585 0.9167 0.23595 0.0
C883 C 0.54562 0.89531 0.25099 0.0
C884 C 0.56668 0.83478 0.26277 0.0
C885 C 0.60676 0.85606 0.24757 0.0
N886 N 0.64756 0.90891 0.21553 0.0
N887 N 0.49218 0.82956 0.27547 0.0
C888 C 0.61421 0.89458 0.2329 0.0
C889 C 0.53425 0.85283 0.26335 0.0
N890 N 0.59758 0.95881 0.22499 0.0
N891 N 0.56087 0.79893 0.27745 0.0
H892 H 0.4685 0.8427 0.27698 0.0
H893 H 0.47903 0.79568 0.28269 0.0
H894 H 0.58217 0.78302 0.27676 0.0
H895 H 0.53638 0.78632 0.29108 0.0
H896 H 0.62959 0.9792 0.21604 0.0
H897 H 0.57677 0.97529 0.22611 0.0
H898 H 0.65179 0.93365 0.2028 0.0
H899 H 0.66791 0.89242 0.21244 0.0
C900 C 0.25923 0.76096 0.27148 0.0
C901 C 0.25701 0.78199 0.25013 0.0
C902 C 0.21931 0.70271 0.23153 0.0
C903 C 0.22282 0.68249 0.25279 0.0
N904 N 0.25448 0.69243 0.29145 0.0
N905 N 0.23699 0.77359 0.20943 0.0
C906 C 0.24552 0.71174 0.27226 0.0
C907 C 0.23816 0.75305 0.22997 0.0
N908 N 0.27169 0.78725 0.2914 0.0
N909 N 0.19554 0.67332 0.21325 0.0
H910 H 0.24434 0.80871 0.20829 0.0
H911 H 0.23035 0.75664 0.19341 0.0
H912 H 0.18218 0.63648 0.21361 0.0
H913 H 0.18671 0.68455 0.19804 0.0
H914 H 0.2673 0.77253 0.30793 0.0
H915 H 0.28324 0.82351 0.29156 0.0
H916 H 0.27548 0.71274 0.30531 0.0
H917 H 0.24447 0.65634 0.29267 0.0
C918 C 0.39629 0.52203 0.27919 0.0
C919 C 0.41842 0.56673 0.26768 0.0
C920 C 0.34212 0.54662 0.24895 0.0
C921 C 0.31963 0.50196 0.26084 0.0
N922 N 0.32247 0.45594 0.29338 0.0
N923 N 0.41081 0.6268 0.24632 0.0
C924 C 0.34588 0.49245 0.27788 0.0
C925 C 0.39067 0.58075 0.25414 0.0
N926 N 0.42349 0.50664 0.29052 0.0
N927 N 0.31843 0.55559 0.23179 0.0
H928 H 0.4463 0.65242 0.24982 0.0
H929 H 0.39132 0.6407 0.23833 0.0
H930 H 0.28292 0.53222 0.22769 0.0
H931 H 0.33489 0.58477 0.22059 0.0
H932 H 0.40961 0.4718 0.29666 0.0
H933 H 0.46059 0.52736 0.29218 0.0
H934 H 0.33934 0.4503 0.30748 0.0
H935 H 0.28534 0.43484 0.29382 0.0
C936 C 0.85228 0.54559 0.76841 0.0
C937 C 0.8808 0.59347 0.76061 0.0
C938 C 0.94349 0.57664 0.74749 0.0
C939 C 0.91712 0.53014 0.75708 0.0
N940 N 0.84592 0.46786 0.77526 0.0
N941 N 0.95449 0.65628 0.74411 0.0
C942 C 0.87107 0.51371 0.76702 0.0
C943 C 0.92652 0.60935 0.7504 0.0
N944 N 0.8081 0.53149 0.77777 0.0
N945 N 0.98419 0.58897 0.73495 0.0
H946 H 0.94244 0.68089 0.74429 0.0
H947 H 0.99058 0.67179 0.73979 0.0
H948 H 0.99806 0.56609 0.7326 0.0
H949 H 1.00223 0.62019 0.72521 0.0
H950 H 0.7848 0.49744 0.78406 0.0
H951 H 0.79394 0.55432 0.77912 0.0
H952 H 0.81223 0.4527 0.78286 0.0
H953 H 0.85899 0.44404 0.77447 0.0
C954 C 0.58359 0.37654 0.76908 0.0
C955 C 0.56905 0.4072 0.7585 0.0
C956 C 0.4935 0.33753 0.74741 0.0
C957 C 0.5044 0.30773 0.76136 0.0
N958 N 0.55743 0.30167 0.7892 0.0
N959 N 0.50513 0.41691 0.74235 0.0
C960 C 0.54891 0.32786 0.7732 0.0
C961 C 0.5225 0.38773 0.74906 0.0
N962 N 0.63061 0.39332 0.77452 0.0
N963 N 0.45684 0.31819 0.73172 0.0
H964 H 0.52456 0.45401 0.74409 0.0
H965 H 0.46959 0.40381 0.73741 0.0
H966 H 0.4367 0.28163 0.7285 0.0
H967 H 0.4505 0.33887 0.71986 0.0
H968 H 0.64356 0.37116 0.78021 0.0
H969 H 0.65744 0.42829 0.77103 0.0
H970 H 0.58764 0.31643 0.79981 0.0
H971 H 0.53226 0.26664 0.79363 0.0
C972 C 0.7204 0.20196 0.77887 0.0
C973 C 0.70663 0.22181 0.76043 0.0
C974 C 0.79111 0.27626 0.75068 0.0
C975 C 0.80475 0.25518 0.76863 0.0
N976 N 0.78423 0.20771 0.80345 0.0
N977 N 0.72745 0.28325 0.7316 0.0
C978 C 0.76982 0.22098 0.78385 0.0
C979 C 0.74164 0.26091 0.7473 0.0
N980 N 0.68616 0.16415 0.79129 0.0
N981 N 0.82514 0.30906 0.73611 0.0
H982 H 0.69157 0.27151 0.72789 0.0
H983 H 0.75086 0.31514 0.72328 0.0
H984 H 0.86171 0.32356 0.73892 0.0
H985 H 0.81742 0.32092 0.72078 0.0
H986 H 0.69371 0.14396 0.80286 0.0
H987 H 0.64952 0.15109 0.78921 0.0
H988 H 0.76108 0.1865 0.81654 0.0
H989 H 0.8202 0.22177 0.80774 0.0
C990 C 0.19333 0.179 0.58081 0.0
C991 C 0.20951 0.223 0.5926 0.0
C992 C 0.28197 0.22231 0.60434 0.0
C993 C 0.27071 0.18386 0.58883 0.0
N994 N 0.2137 0.12356 0.56282 0.0
N995 N 0.27135 0.28939 0.61391 0.0
C996 C 0.22545 0.16102 0.57746 0.0
C997 C 0.25424 0.24526 0.60407 0.0
N998 N 0.14705 0.15418 0.57315 0.0
N999 N 0.31841 0.23596 0.61996 0.0
H1000 H 0.25205 0.30751 0.61432 0.0
H1001 H 0.30634 0.30972 0.61997 0.0
H1002 H 0.33813 0.2185 0.62149 0.0
H1003 H 0.32522 0.26062 0.63315 0.0
H1004 H 0.13134 0.11957 0.56658 0.0
H1005 H 0.12295 0.16671 0.5752 0.0
H1006 H 0.18467 0.11012 0.55151 0.0
H1007 H 0.23372 0.1065 0.56143 0.0
C1008 C 0.87491 0.03252 0.56685 0.0
C1009 C 0.89504 1.01467 0.5832 0.0
C1010 C 0.95221 0.09665 0.5956 0.0
C1011 C 0.9322 0.11444 0.57906 0.0
N1012 N 0.88402 0.1004 0.54482 0.0
N1013 N 0.95841 0.02881 0.6098 0.0
C1014 C 0.89651 0.08259 0.5634 0.0
C1015 C 0.93561 0.04653 0.59649 0.0
N1016 N 0.83394 1.00168 0.55524 0.0
N1017 N 0.98516 0.12717 0.6112 0.0
H1018 H 0.94657 0.9923 0.61108 0.0
H1019 H 0.99094 0.05021 0.6181 0.0
H1020 H 0.99945 0.16409 0.61053 0.0
H1021 H 0.99663 0.11584 0.62552 0.0
H1022 H 0.81418 1.01281 0.54534 0.0
H1023 H 0.81741 0.96459 0.55684 0.0
H1024 H 0.86189 0.07929 0.53144 0.0
H1025 H 0.89998 0.13684 0.54149 0.0
C1026 C 0.05757 0.92098 0.57773 0.0
C1027 C 0.08829 0.90603 0.58776 0.0
C1028 C 1.01903 0.82935 0.59781 0.0
C1029 C 0.98928 0.84028 0.58388 0.0
N1030 N 0.98054 0.89722 0.56007 0.0
N1031 N 0.09878 0.84251 0.60383 0.0
C1032 C 1.00839 0.88659 0.5739 0.0
C1033 C 0.06918 0.85932 0.59692 0.0
N1034 N 0.07527 0.96805 0.5722 0.0
N1035 N 0.99927 0.79093 0.6125 0.0
H1036 H 0.13604 0.86279 0.60305 0.0
H1037 H 0.08618 0.80681 0.60818 0.0
H1038 H 0.96243 0.76961 0.61478 0.0
H1039 H 1.01935 0.78394 0.62445 0.0
H1040 H 0.05379 0.98215 0.56703 0.0
H1041 H 0.1111 0.99387 0.57475 0.0
H1042 H 0.99393 0.92828 0.55014 0.0
H1043 H 0.94429 0.87372 0.5575 0.0
C1044 C 0.54355 1.01437 0.0243 0.0
C1045 C 0.53829 0.0493 0.03673 0.0
C1046 C 0.5421 0.09008 1.00031 0.0
C1047 C 0.53491 0.0488 0.988 0.0
N1048 N 0.53526 0.9745 0.9873 0.0
N1049 N 0.54192 0.12523 0.03764 0.0
C1050 C 0.53888 1.01227 0.99966 0.0
C1051 C 0.54204 0.08951 0.02499 0.0
N1052 N 0.5524 0.98322 0.03637 0.0
N1053 N 0.54715 0.12883 0.98826 0.0
H1054 H 0.54441 0.12602 0.05569 0.0
H1055 H 0.53886 0.15332 0.03059 0.0
H1056 H 0.54571 0.12916 0.97021 0.0
H1057 H 0.5557 0.16143 0.99579 0.0
H1058 H 0.55926 0.95806 0.02864 0.0
H1059 H 0.55716 0.98616 0.05433 0.0
H1060 H 0.53288 0.94406 0.99488 0.0
H1061 H 0.53336 0.9734 0.9692 0.0
C1062 C 1.01805 0.48939 0.99647 0.0
C1063 C 0.06343 0.51152 0.98515 0.0
C1064 C 0.10348 0.53424 0.02292 0.0
C1065 C 0.058 0.51058 0.03415 0.0
N1066 N 0.97351 0.48085 0.03193 0.0
N1067 N 0.14793 0.56653 0.98699 0.0
C1068 C 1.01582 0.49378 0.02092 0.0
C1069 C 0.10568 0.53828 0.99825 0.0
N1070 N 0.97739 0.46074 0.98425 0.0
N1071 N 0.14438 0.54968 0.03562 0.0
H1072 H 0.14996 0.56955 0.96892 0.0
H1073 H 0.17953 0.59014 0.99548 0.0
H1074 H 0.14439 0.54803 0.05366 0.0
H1075 H 0.17805 0.56186 0.02825 0.0
H1076 H 0.94422 0.43911 0.99203 0.0
H1077 H 0.97753 0.45576 0.96644 0.0
H1078 H 0.94175 0.47153 0.02316 0.0
H1079 H 0.97177 0.48449 0.04986 0.0
C1080 C 0.55426 0.53604 0.99524 0.0
C1081 C 0.59127 0.57609 0.98346 0.0
C1082 C 0.62762 0.61375 0.02032 0.0
C1083 C 0.58941 0.57524 0.03235 0.0
N1084 N 0.51663 0.49942 0.03218 0.0
N1085 N 0.65701 0.65742 0.98457 0.0
C1086 C 0.55264 0.53615 0.02004 0.0
C1087 C 0.6259 0.61625 0.99596 0.0
N1088 N 0.52112 0.49818 0.9826 0.0
N1089 N 0.66666 0.6475 0.03214 0.0
H1090 H 0.65835 0.66079 0.96663 0.0
H1091 H 0.67851 0.68982 0.99292 0.0
H1092 H 0.66963 0.64782 0.05006 0.0
H1093 H 0.6983 0.67263 0.02412 0.0
H1094 H 0.49527 0.4659 0.98971 0.0
H1095 H 0.52 0.49913 0.96451 0.0
H1096 H 0.48633 0.47139 0.02465 0.0
H1097 H 0.51712 0.49735 0.05025 0.0
C1098 C 0.2186 0.4236 0.35424 0.0
C1099 C 0.19726 0.38083 0.36736 0.0
C1100 C 0.18194 0.33475 0.33124 0.0
C1101 C 0.19285 0.37619 0.31836 0.0
N1102 N 0.22254 0.46131 0.31729 0.0
N1103 N 0.15649 0.29431 0.36821 0.0
C1104 C 0.21258 0.42127 0.32971 0.0
C1105 C 0.17949 0.33597 0.35589 0.0
N1106 N 0.2435 0.46639 0.36545 0.0
N1107 N 0.17266 0.29398 0.31977 0.0
H1108 H 0.15329 0.29322 0.38617 0.0
H1109 H 0.13788 0.26073 0.36051 0.0
H1110 H 0.17408 0.29268 0.30169 0.0
H1111 H 0.16849 0.26346 0.32813 0.0
H1112 H 0.26328 0.49898 0.35691 0.0
H1113 H 0.24806 0.4685 0.38344 0.0
H1114 H 0.23126 0.49395 0.32487 0.0
H1115 H 0.21967 0.46138 0.29929 0.0
C1116 C 0.72588 0.80803 0.35757 0.0
C1117 C 0.72824 0.84638 0.37058 0.0
C1118 C 0.71654 0.88128 0.33491 0.0
C1119 C 0.71988 0.84581 0.32175 0.0
N1120 N 0.73313 0.77809 0.32046 0.0
N1121 N 0.72601 0.91971 0.37248 0.0
C1122 C 0.72624 0.8101 0.33307 0.0
C1123 C 0.72344 0.88309 0.3595 0.0
N1124 N 0.72154 0.76854 0.36872 0.0
N1125 N 0.70593 0.91247 0.32393 0.0
H1126 H 0.72805 0.92005 0.39056 0.0
H1127 H 0.72792 0.95037 0.36546 0.0
H1128 H 0.70248 0.91294 0.30593 0.0
H1129 H 0.69829 0.93623 0.33256 0.0
H1130 H 0.7138 0.73696 0.36027 0.0
H1131 H 0.72066 0.76521 0.38672 0.0
H1132 H 0.74515 0.7563 0.32768 0.0
H1133 H 0.7303 0.77534 0.30253 0.0
C1134 C 0.2988 0.95266 0.32999 0.0
C1135 C 0.26345 0.91315 0.31728 0.0
C1136 C 0.21983 0.87724 0.3536 0.0
C1137 C 0.25749 0.91476 0.36634 0.0
N1138 N 0.33707 0.98374 0.36694 0.0
N1139 N 0.19286 0.83536 0.31672 0.0
C1140 C 0.2982 0.95113 0.35458 0.0
C1141 C 0.22454 0.87469 0.32901 0.0
N1142 N 0.33277 0.99224 0.31849 0.0
N1143 N 0.17934 0.84465 0.36496 0.0
H1144 H 0.19437 0.83352 0.29869 0.0
H1145 H 0.16677 0.80383 0.3244 0.0
H1146 H 0.17584 0.84461 0.38297 0.0
H1147 H 0.14845 0.81937 0.35654 0.0
H1148 H 0.35582 1.02438 0.3267 0.0
H1149 H 0.33522 0.99474 0.30047 0.0
H1150 H 0.36992 1.00731 0.35938 0.0
H1151 H 0.33834 0.98453 0.38499 0.0
C1152 C 0.87478 0.67856 0.68306 0.0
C1153 C 0.88535 0.72242 0.69373 0.0
C1154 C 0.89094 0.75804 0.65541 0.0
C1155 C 0.87055 0.71167 0.64531 0.0
N1156 N 0.84798 0.62879 0.6484 0.0
N1157 N 0.91436 0.80606 0.69058 0.0
C1158 C 0.86487 0.67236 0.65876 0.0
C1159 C 0.89797 0.76306 0.67983 0.0
N1160 N 0.87445 0.64323 0.69621 0.0
N1161 N 0.90254 0.79702 0.64176 0.0
H1162 H 0.92549 0.8104 0.70784 0.0
H1163 H 0.91734 0.83658 0.68281 0.0
H1164 H 0.89549 0.79468 0.6241 0.0
H1165 H 0.92131 0.8322 0.6475 0.0
H1166 H 0.86992 0.61124 0.68958 0.0
H1167 H 0.88407 0.64837 0.71361 0.0
H1168 H 0.83783 0.59716 0.65739 0.0
H1169 H 0.84281 0.62415 0.63049 0.0
C1170 C 0.43869 0.21649 0.65983 0.0
C1171 C 0.39741 0.18627 0.64677 0.0
C1172 C 0.34848 0.16654 0.68214 0.0
C1173 C 0.39069 0.18693 0.69548 0.0
N1174 N 0.47679 0.23439 0.69762 0.0
N1175 N 0.31181 0.13208 0.64529 0.0
C1176 C 0.43607 0.21414 0.68452 0.0
C1177 C 0.35165 0.16217 0.65776 0.0
N1178 N 0.48046 0.24619 0.64852 0.0
N1179 N 0.30539 0.14962 0.6931 0.0
H1180 H 0.31233 0.12789 0.62742 0.0
H1181 H 0.27869 0.10917 0.65279 0.0
H1182 H 0.30308 0.15248 0.71106 0.0
H1183 H 0.27302 0.13735 0.68438 0.0
H1184 H 0.51127 0.27187 0.65684 0.0
H1185 H 0.48271 0.24785 0.63043 0.0
H1186 H 0.51118 0.24951 0.6907 0.0
H1187 H 0.47607 0.23443 0.71568 0.0
C1188 C 0.96908 0.28231 0.66306 0.0
C1189 C 0.93289 0.24225 0.65097 0.0
C1190 C 0.89039 0.20956 0.68796 0.0
C1191 C 0.92896 0.2475 0.70008 0.0
N1192 N 1.00945 0.31492 0.69941 0.0
N1193 N 0.86129 0.16526 0.65177 0.0
C1194 C 0.96962 0.28224 0.68767 0.0
C1195 C 0.89407 0.20507 0.6634 0.0
N1196 N 1.00247 0.32131 0.65101 0.0
N1197 N 0.84998 0.17851 0.69985 0.0
H1198 H 0.86215 0.16204 0.63378 0.0
H1199 H 0.83492 0.13464 0.65997 0.0
H1200 H 0.84722 0.1799 0.71785 0.0
H1201 H 0.81852 0.15315 0.69186 0.0
H1202 H 1.02612 0.35371 0.65884 0.0
H1203 H 1.00364 0.32321 0.63297 0.0
H1204 H 1.04213 0.33727 0.69136 0.0
H1205 H 1.01154 0.31676 0.71742 0.0
C1206 C 0.36241 0.99702 0.17826 0.0
C1207 C 0.34286 0.94948 0.18646 0.0
C1208 C 0.41126 0.94651 0.16862 0.0
C1209 C 0.43385 0.99637 0.16369 0.0
N1210 N 0.43433 0.07086 0.16901 0.0
N1211 N 0.35166 0.87983 0.19113 0.0
C1212 C 0.41029 1.02206 0.16998 0.0
C1213 C 0.36795 0.92427 0.18198 0.0
N1214 N 0.33444 1.01786 0.17762 0.0
N1215 N 0.42965 0.91975 0.15972 0.0
H1216 H 0.31997 0.86217 0.20044 0.0
H1217 H 0.37125 0.86203 0.19089 0.0
H1218 H 0.46098 0.93426 0.14994 0.0
H1219 H 0.41165 0.88253 0.16033 0.0
H1220 H 0.34548 0.05117 0.17009 0.0
H1221 H 0.29812 0.99896 0.18185 0.0
H1222 H 0.42018 0.09153 0.17533 0.0
H1223 H 0.47044 0.09069 0.16456 0.0
C1224 C 0.14423 0.48806 0.1705 0.0
C1225 C 0.09514 0.45994 0.16417 0.0
C1226 C 0.09396 0.38887 0.18064 0.0
C1227 C 0.1417 0.41729 0.18868 0.0
N1228 N 0.21089 0.49545 0.19341 0.0
N1229 N 1.02058 0.38614 0.16853 0.0
C1230 C 0.16655 0.46732 0.18409 0.0
C1231 C 0.06931 0.41107 0.17078 0.0
N1232 N 0.17021 0.53417 0.16289 0.0
N1233 N 0.07271 0.34017 0.18142 0.0
H1234 H 1.001 0.40156 0.16218 0.0
H1235 H 0.99921 0.35188 0.17524 0.0
H1236 H 0.09067 0.32273 0.18726 0.0
H1237 H 1.03974 0.31738 0.17378 0.0
H1238 H 0.20733 0.55454 0.16421 0.0
H1239 H 0.15502 0.55147 0.15402 0.0
H1240 H 0.22821 0.53265 0.19361 0.0
H1241 H 0.22934 0.48147 0.20223 0.0
C1242 C 0.69855 0.76017 0.16824 0.0
C1243 C 0.69754 0.75253 0.19253 0.0
C1244 C 0.65643 0.66541 0.18498 0.0
C1245 C 0.65892 0.67345 0.16072 0.0
N1246 N 0.71225 0.73219 0.13233 0.0
N1247 N 0.69978 0.69602 0.22033 0.0
C1248 C 0.68844 0.72173 0.15298 0.0
C1249 C 0.68358 0.70476 0.20006 0.0
N1250 N 0.71247 0.80431 0.15914 0.0
N1251 N 0.63158 0.62027 0.19398 0.0
H1252 H 0.72131 0.72183 0.23211 0.0
H1253 H 0.69518 0.66251 0.22456 0.0
H1254 H 0.61666 0.58928 0.18406 0.0
H1255 H 0.62531 0.61397 0.21174 0.0
H1256 H 0.70833 0.80906 0.14153 0.0
H1257 H 0.72676 0.83564 0.16876 0.0
H1258 H 0.73828 0.76689 0.12776 0.0
H1259 H 0.70984 0.70695 0.12058 0.0
C1260 C 0.96444 0.39803 0.85032 0.0
C1261 C 1.01447 0.42134 0.85507 0.0
C1262 C 1.01849 0.35445 0.83699 0.0
C1263 C 0.96975 0.33307 0.83012 0.0
N1264 N 0.89755 0.33846 0.82782 0.0
N1265 N 0.09064 0.42802 0.84623 0.0
C1266 C 0.9429 0.35582 0.83619 0.0
C1267 C 1.04184 0.40125 0.84648 0.0
N1268 N 0.93701 0.41509 0.85986 0.0
N1269 N 1.04236 0.3294 0.83518 0.0
H1270 H 0.10855 0.4639 0.85105 0.0
H1271 H 0.11255 0.41682 0.83835 0.0
H1272 H 1.02594 0.29401 0.82952 0.0
H1273 H 0.07665 0.34178 0.84183 0.0
H1274 H 0.89972 0.3965 0.85953 0.0
H1275 H 0.95129 0.44643 0.86951 0.0
H1276 H 0.87865 0.35685 0.82902 0.0
H1277 H 0.87969 0.307 0.81832 0.0
C1278 C 0.73591 0.6728 0.86107 0.0
C1279 C 0.68805 0.63949 0.85384 0.0
C1280 C 0.71946 0.65555 0.81386 0.0
C1281 C 0.76771 0.6758 0.82216 0.0
N1282 N 0.81996 0.70124 0.85574 0.0
N1283 N 0.63495 0.60298 0.82115 0.0
C1284 C 0.7752 0.68261 0.84638 0.0
C1285 C 0.68015 0.63125 0.8296 0.0
N1286 N 0.74491 0.69965 0.88066 0.0
N1287 N 0.71027 0.66241 0.7915 0.0
H1288 H 0.60403 0.59078 0.83107 0.0
H1289 H 0.62824 0.59124 0.80401 0.0
H1290 H 0.73652 0.68209 0.77939 0.0
H1291 H 0.67614 0.65311 0.78556 0.0
H1292 H 0.77885 0.72808 0.88459 0.0
H1293 H 0.71904 0.69718 0.89204 0.0
H1294 H 0.82531 0.70141 0.87362 0.0
H1295 H 0.85127 0.71458 0.84602 0.0
C1296 C 0.43761 0.07461 0.81704 0.0
C1297 C 0.41893 0.10484 0.82407 0.0
C1298 C 0.42398 0.08135 0.86402 0.0
C1299 C 0.45616 0.06475 0.85736 0.0
N1300 N 0.49274 0.04628 0.82512 0.0
N1301 N 0.39562 0.13651 0.85669 0.0
C1302 C 0.46354 0.06258 0.83319 0.0
C1303 C 0.4136 0.10901 0.84827 0.0
N1304 N 0.42727 0.05301 0.79586 0.0
N1305 N 0.39876 0.06724 0.88426 0.0
H1306 H 0.37973 0.15144 0.84653 0.0
H1307 H 0.39759 0.14506 0.87428 0.0
H1308 H 0.40063 0.04398 0.89589 0.0
H1309 H 0.37146 0.07461 0.88828 0.0
H1310 H 0.43599 1.02693 0.79133 0.0
H1311 H 0.40568 0.05649 0.78369 0.0
H1312 H 0.50368 0.05041 0.8078 0.0
H1313 H 0.50682 0.02976 0.83542 0.0
C1314 C 1.04064 0.25858 0.51564 0.0
C1315 C 1.01457 0.28282 0.51997 0.0
C1316 C 0.07952 0.35526 0.50191 0.0
C1317 C 0.10445 0.33062 0.49597 0.0
N1318 N 0.10367 0.25532 0.49395 0.0
N1319 N 1.00312 0.34919 0.51064 0.0
C1320 C 0.08375 0.28132 0.50204 0.0
C1321 C 1.03227 0.32961 0.51107 0.0
N1322 N 1.02509 0.21429 0.52494 0.0
N1323 N 0.10187 0.4039 0.49994 0.0
H1324 H 0.96777 0.3309 0.51656 0.0
H1325 H 1.01223 0.3811 0.50207 0.0
H1326 H 0.13757 0.42454 0.49492 0.0
H1327 H 0.08695 0.42409 0.506 0.0
H1328 H 0.04591 0.19783 0.52548 0.0
H1329 H 0.99198 0.19471 0.53304 0.0
H1330 H 0.08715 0.21827 0.49537 0.0
H1331 H 0.13499 0.27003 0.48418 0.0
C1332 C 0.82206 0.83324 0.50707 0.0
C1333 C 0.77363 0.80649 0.49962 0.0
C1334 C 0.77139 0.73216 0.51183 0.0
C1335 C 0.81988 0.75841 0.51895 0.0
N1336 N 0.8945 0.83303 0.51887 0.0
N1337 N 0.69847 0.73316 0.50302 0.0
C1338 C 0.84618 0.80874 0.5153 0.0
C1339 C 0.74734 0.75662 0.50427 0.0
N1340 N 0.84404 0.88191 0.50792 0.0
N1341 N 0.74895 0.68335 0.51104 0.0
H1342 H 0.67957 0.75108 0.49978 0.0
H1343 H 0.67667 0.6978 0.5082 0.0
H1344 H 0.76645 0.66438 0.51509 0.0
H1345 H 0.71522 0.66214 0.50375 0.0
H1346 H 0.87755 0.90342 0.51533 0.0
H1347 H 0.82667 0.9008 0.5037 0.0
H1348 H 0.91668 0.86842 0.51386 0.0
H1349 H 0.91337 0.81674 0.52491 0.0
C1350 C 0.35161 1.01792 0.50233 0.0
C1351 C 0.30217 0.99489 0.49653 0.0
C1352 C 0.29762 0.06155 0.51527 0.0
C1353 C 0.34807 0.08616 0.51888 0.0
N1354 N 0.42396 0.09304 0.50922 0.0
N1355 N 0.2289 0.99854 0.4952 0.0
C1356 C 0.37524 0.06581 0.51045 0.0
C1357 C 0.27522 1.01759 0.50246 0.0
N1358 N 0.37587 0.99323 0.50105 0.0
N1359 N 0.27071 0.07928 0.52466 0.0
H1360 H 0.21011 0.96557 0.48702 0.0
H1361 H 0.20977 1.01674 0.49614 0.0
H1362 H 0.28584 0.11236 0.53285 0.0
H1363 H 0.23345 0.06005 0.52546 0.0
H1364 H 0.41095 1.00698 0.50688 0.0
H1365 H 0.35887 0.95696 0.49699 0.0
H1366 H 0.44531 0.08153 0.50101 0.0
H1367 H 0.44238 0.12898 0.51407 0.0
C1368 C 0.54301 0.25294 0.12186 0.0
C1369 C 0.52274 0.27026 0.10529 0.0
C1370 C 0.488 0.19327 0.08457 0.0
C1371 C 0.50548 0.17502 0.10216 0.0
N1372 N 0.5398 0.18417 0.14041 0.0
N1373 N 0.47039 0.25542 0.07269 0.0
C1374 C 0.53016 0.20396 0.12162 0.0
C1375 C 0.49354 0.23993 0.08715 0.0
N1376 N 0.57587 0.28369 0.13748 0.0
N1377 N 0.46794 0.16693 0.06501 0.0
H1378 H 0.47446 0.28955 0.07388 0.0
H1379 H 0.44468 0.23349 0.06068 0.0
H1380 H 0.46302 0.13268 0.0627 0.0
H1381 H 0.45928 0.18017 0.05042 0.0
H1382 H 0.59608 0.27434 0.14813 0.0
H1383 H 0.58633 0.31991 0.13836 0.0
H1384 H 0.5527 0.20205 0.15609 0.0
H1385 H 0.53042 0.14828 0.14125 0.0
C1386 C 0.84566 0.30874 0.09066 0.0
C1387 C 0.83734 0.26906 0.10461 0.0
C1388 C 0.92374 0.3065 0.11241 0.0
C1389 C 0.93212 0.34556 0.09778 0.0
N1390 N 0.90267 0.37513 0.06721 0.0
N1391 N 0.8693 0.22413 0.12343 0.0
C1392 C 0.89347 0.3437 0.08502 0.0
C1393 C 0.87675 0.26598 0.11372 0.0
N1394 N 0.80824 0.31459 0.0838 0.0
N1395 N 0.95942 0.30896 0.1262 0.0
H1396 H 0.83543 0.19376 0.12453 0.0
H1397 H 0.89708 0.21812 0.12826 0.0
H1398 H 0.99437 0.33742 0.12597 0.0
H1399 H 0.95347 0.28416 0.13923 0.0
H1400 H 0.81292 0.3457 0.07585 0.0
H1401 H 0.77264 0.29032 0.08787 0.0
H1402 H 0.87623 0.37318 0.05608 0.0
H1403 H 0.9375 0.39955 0.06198 0.0
C1404 C 0.79459 0.645 0.10486 0.0
C1405 C 0.75667 0.61607 0.0894 0.0
C1406 C 0.79706 0.57067 0.07975 0.0
C1407 C 0.83579 0.60082 0.09452 0.0
N1408 N 0.87737 0.67459 0.11583 0.0
N1409 N 0.72867 0.56067 0.05749 0.0
C1410 C 0.83657 0.64081 0.10518 0.0
C1411 C 0.76045 0.58215 0.07522 0.0
N1412 N 0.7892 0.6735 0.12066 0.0
N1413 N 0.79328 0.52933 0.0713 0.0
H1414 H 0.70196 0.56902 0.05361 0.0
H1415 H 0.73196 0.53862 0.0453 0.0
H1416 H 0.81852 0.51876 0.07458 0.0
H1417 H 0.76295 0.50343 0.06272 0.0
H1418 H 0.8134 0.69092 0.13407 0.0
H1419 H 0.75846 0.67624 0.12177 0.0
H1420 H 0.88144 0.70673 0.12208 0.0
H1421 H 0.90875 0.67257 0.11625 0.0
C1422 C 0.25998 0.48277 0.93473 0.0
C1423 C 0.28622 0.50442 0.91412 0.0
C1424 C 0.21623 0.50536 0.89769 0.0
C1425 C 0.19092 0.48657 0.91884 0.0
N1426 N 0.18961 0.46227 0.95843 0.0
N1427 N 0.29186 0.5411 0.87689 0.0
C1428 C 0.21296 0.47632 0.93761 0.0
C1429 C 0.26491 0.51681 0.89581 0.0
N1430 N 0.27988 0.46777 0.95135 0.0
N1431 N 0.19329 0.51163 0.8792 0.0
H1432 H 0.32719 0.54904 0.87449 0.0
H1433 H 0.28064 0.55643 0.86424 0.0
H1434 H 0.15868 0.50631 0.88026 0.0
H1435 H 0.20706 0.51906 0.86241 0.0
H1436 H 0.26128 0.44747 0.96574 0.0
H1437 H 0.31456 0.47314 0.95001 0.0
H1438 H 0.20538 0.45933 0.97364 0.0
H1439 H 0.1549 0.45624 0.96085 0.0
C1440 C 0.5822 0.7785 0.93663 0.0
C1441 C 0.61015 0.81673 0.92111 0.0
C1442 C 0.65364 0.77585 0.9089 0.0
C1443 C 0.62721 0.73855 0.92512 0.0
N1444 N 0.57539 0.71097 0.95853 0.0
N1445 N 0.68125 0.85798 0.89763 0.0
C1446 C 0.59459 0.74225 0.9404 0.0
C1447 C 0.649 0.8175 0.90908 0.0
N1448 N 0.54204 0.77496 0.94664 0.0
N1449 N 0.67993 0.77004 0.89194 0.0
H1450 H 0.67893 0.88916 0.89756 0.0
H1451 H 0.71271 0.86207 0.89031 0.0
H1452 H 0.68188 0.739 0.89021 0.0
H1453 H 0.6956 0.79387 0.87819 0.0
H1454 H 0.51737 0.74499 0.95592 0.0
H1455 H 0.53114 0.80015 0.94411 0.0
H1456 H 0.55469 0.71437 0.97148 0.0
H1457 H 0.58432 0.68449 0.96185 0.0
C1458 C 0.3334 0.90088 0.90788 0.0
C1459 C 0.36493 0.91282 0.92721 0.0
C1460 C 0.32152 0.82849 0.93964 0.0
C1461 C 0.28861 0.81749 0.9211 0.0
N1462 N 0.25599 0.84567 0.89138 0.0
N1463 N 0.38223 0.88992 0.96419 0.0
C1464 C 0.29214 0.85461 0.90656 0.0
C1465 C 0.35669 0.87713 0.94397 0.0
N1466 N 0.3446 0.93189 0.8897 0.0
N1467 N 0.32075 0.79238 0.95242 0.0
H1468 H 0.40754 0.9253 0.96802 0.0
H1469 H 0.37504 0.86645 0.97801 0.0
H1470 H 0.29558 0.75645 0.94981 0.0
H1471 H 0.34726 0.79769 0.96435 0.0
H1472 H 0.3257 0.92271 0.87412 0.0
H1473 H 0.37559 0.96497 0.88903 0.0
H1474 H 0.25434 0.87249 0.88201 0.0
H1475 H 0.22526 0.81219 0.8899 0.0
C1476 C 0.20845 0.58408 0.45407 0.0
C1477 C 0.18826 0.60117 0.43734 0.0
C1478 C 0.15596 0.52538 0.41593 0.0
C1479 C 0.17358 0.50731 0.43351 0.0
N1480 N 0.20878 0.51586 0.47145 0.0
N1481 N 0.13793 0.58712 0.40397 0.0
C1482 C 0.1977 0.53572 0.45316 0.0
C1483 C 0.16054 0.57149 0.41871 0.0
N1484 N 0.23889 0.61448 0.47057 0.0
N1485 N 0.13656 0.49925 0.39624 0.0
H1486 H 0.14171 0.62114 0.40514 0.0
H1487 H 0.11306 0.56553 0.39157 0.0
H1488 H 0.13221 0.46524 0.39385 0.0
H1489 H 0.12778 0.51235 0.38164 0.0
H1490 H 0.25929 0.60588 0.48149 0.0
H1491 H 0.2469 0.64992 0.47219 0.0
H1492 H 0.22104 0.53279 0.48738 0.0
H1493 H 0.20175 0.48062 0.47155 0.0
C1494 C 0.56374 0.69337 0.45176 0.0
C1495 C 0.59493 0.69721 0.43339 0.0
C1496 C 0.5257 0.63386 0.41252 0.0
C1497 C 0.49586 0.62614 0.43228 0.0
N1498 N 0.48245 0.66899 0.46279 0.0
N1499 N 0.60624 0.66796 0.39682 0.0
C1500 C 0.51379 0.66207 0.44962 0.0
C1501 C 0.57625 0.66597 0.41409 0.0
N1502 N 0.58203 0.71836 0.47185 0.0
N1503 N 0.50547 0.61988 0.39116 0.0
H1504 H 0.64282 0.6924 0.3968 0.0
H1505 H 0.5954 0.6427 0.38358 0.0
H1506 H 0.47219 0.61663 0.38785 0.0
H1507 H 0.5249 0.62453 0.37599 0.0
H1508 H 0.56129 0.71301 0.48665 0.0
H1509 H 0.61864 0.74055 0.47455 0.0
H1510 H 0.49325 0.69759 0.47421 0.0
H1511 H 0.44552 0.64959 0.45997 0.0
C1512 C 0.49181 0.94987 0.41892 0.0
C1513 C 0.49277 0.92007 0.43689 0.0
C1514 C 0.41571 0.90725 0.45135 0.0
C1515 C 0.41192 0.93268 0.432 0.0
N1516 N 0.44387 0.97375 0.3958 0.0
N1517 N 0.45128 0.86273 0.46734 0.0
C1518 C 0.44944 0.95305 0.41536 0.0
C1519 C 0.4534 0.89652 0.45224 0.0
N1520 N 0.53174 0.97595 0.40564 0.0
N1521 N 0.38436 0.89498 0.46951 0.0
H1522 H 0.47804 0.85351 0.46851 0.0
H1523 H 0.42089 0.84053 0.47708 0.0
H1524 H 0.35677 0.903 0.47002 0.0
H1525 H 0.38872 0.88135 0.48515 0.0
H1526 H 0.53527 1.00211 0.39391 0.0
H1527 H 0.56284 0.97374 0.40754 0.0
H1528 H 0.46755 0.98475 0.38184 0.0
H1529 H 0.41355 0.97684 0.39283 0.0
C1530 C 0.88856 0.84084 0.27923 0.0
C1531 C 0.85319 0.81402 0.26236 0.0
C1532 C 0.91141 0.7992 0.24167 0.0
C1533 C 0.94844 0.83236 0.25631 0.0
N1534 N 0.97333 0.88819 0.28811 0.0
N1535 N 0.83348 0.77394 0.22521 0.0
C1536 C 0.93726 0.85374 0.27505 0.0
C1537 C 0.86502 0.79422 0.24311 0.0
N1538 N 0.87538 0.8539 0.29925 0.0
N1539 N 0.92055 0.77234 0.22636 0.0
H1540 H 0.79983 0.77095 0.22506 0.0
H1541 H 0.84237 0.76416 0.20955 0.0
H1542 H 0.95412 0.77501 0.22484 0.0
H1543 H 0.89384 0.74425 0.21687 0.0
H1544 H 0.89843 0.86979 0.31321 0.0
H1545 H 0.83992 0.84459 0.30271 0.0
H1546 H 0.968 0.90894 0.30029 0.0
H1547 H 1.00932 0.89865 0.28555 0.0
C1548 C 0.2645 0.07378 0.23144 0.0
C1549 C 0.28651 0.06705 0.2514 0.0
C1550 C 0.30078 0.14441 0.2666 0.0
C1551 C 0.27369 0.14785 0.24797 0.0
N1552 N 0.22241 0.11136 0.21486 0.0
N1553 N 0.32153 0.09355 0.28922 0.0
C1554 C 0.25357 0.11131 0.23099 0.0
C1555 C 0.30395 0.10193 0.26929 0.0
N1556 N 0.2554 0.04512 0.21246 0.0
N1557 N 0.32409 0.18207 0.28145 0.0
H1558 H 0.32453 0.0631 0.29161 0.0
H1559 H 0.32996 0.11491 0.30394 0.0
H1560 H 0.32183 0.21318 0.28011 0.0
H1561 H 0.34836 0.184 0.29393 0.0
H1562 H 0.24448 0.05168 0.19652 0.0
H1563 H 0.26344 1.01759 0.21184 0.0
H1564 H 0.20229 0.08266 0.20382 0.0
H1565 H 0.21309 0.13803 0.21386 0.0
C1566 C 1.00027 0.16943 0.23237 0.0
C1567 C 0.96044 0.15303 0.24752 0.0
C1568 C 0.99986 0.23032 0.26793 0.0
C1569 C 1.03816 0.24755 0.25175 0.0
N1570 N 0.0693 0.23724 0.21538 0.0
N1571 N 0.91845 0.16918 0.27762 0.0
C1572 C 1.03675 0.21812 0.23306 0.0
C1573 C 0.95907 0.18391 0.26472 0.0
N1574 N 1.00402 0.13807 0.21772 0.0
N1575 N 1.0033 0.25746 0.28681 0.0
H1576 H 0.88849 0.13519 0.27599 0.0
H1577 H 0.91309 0.19157 0.28871 0.0
H1578 H 1.03236 0.29163 0.28948 0.0
H1579 H 0.97914 0.24501 0.30058 0.0
H1580 H 1.03489 0.14667 0.20827 0.0
H1581 H 0.97795 0.10206 0.21651 0.0
H1582 H 0.06679 0.21908 0.20004 0.0
H1583 H 0.09626 0.27294 0.21495 0.0
C1584 C 0.87777 0.88552 0.75171 0.0
C1585 C 0.83941 0.84384 0.76208 0.0
C1586 C 0.80917 0.89438 0.77861 0.0
C1587 C 0.85069 0.93599 0.77057 0.0
N1588 N 0.92898 0.97158 0.75302 0.0
N1589 N 0.7745 0.81146 0.79007 0.0
C1590 C 0.8863 0.93166 0.75816 0.0
C1591 C 0.80631 0.84884 0.77665 0.0
N1592 N 0.90513 0.88097 0.73493 0.0
N1593 N 0.77231 0.89828 0.78806 0.0
H1594 H 0.77264 0.7783 0.79046 0.0
H1595 H 0.75326 0.81484 0.80273 0.0
H1596 H 0.77356 0.93106 0.79009 0.0
H1597 H 0.73909 0.86879 0.79196 0.0
H1598 H 0.93121 0.90961 0.72542 0.0
H1599 H 0.89748 0.84778 0.7286 0.0
H1600 H 0.9585 0.97018 0.74655 0.0
H1601 H 0.93649 1.00614 0.75713 0.0
C1602 C 0.22944 1.00765 0.73987 0.0
C1603 C 0.26543 1.01857 0.75677 0.0
C1604 C 0.20266 0.9775 0.7859 0.0
C1605 C 0.16712 0.95829 0.76835 0.0
N1606 N 0.14766 0.98862 0.73431 0.0
N1607 N 0.28521 1.00712 0.79588 0.0
C1608 C 0.1802 0.98188 0.74644 0.0
C1609 C 0.2517 1.0008 0.77967 0.0
N1610 N 0.24241 1.0228 0.71754 0.0
N1611 N 0.19013 0.9819 0.808 0.0
H1612 H 0.32145 1.02245 0.792 0.0
H1613 H 0.27594 0.99195 0.81241 0.0
H1614 H 0.15526 0.97376 0.81216 0.0
H1615 H 0.21521 0.99996 0.82103 0.0
H1616 H 0.21772 1.01248 0.70402 0.0
H1617 H 0.27825 0.04186 0.71234 0.0
H1618 H 0.15606 1.00899 0.71918 0.0
H1619 H 0.11488 0.9809 0.74163 0.0
C1620 C 0.16551 0.29417 0.77589 0.0
C1621 C 0.16155 0.25142 0.76678 0.0
C1622 C 0.08441 0.23217 0.74934 0.0
C1623 C 0.08424 0.26975 0.76207 0.0
N1624 N 0.1234 0.33397 0.78989 0.0
N1625 N 0.11343 0.17597 0.74725 0.0
C1626 C 0.12475 0.30062 0.77576 0.0
C1627 C 0.12018 0.21958 0.75392 0.0
N1628 N 0.20836 0.32875 0.78454 0.0
N1629 N 0.05058 0.20883 0.73262 0.0
H1630 H 0.13799 0.16459 0.75066 0.0
H1631 H 0.0814 0.14936 0.74018 0.0
H1632 H 1.02481 0.21826 0.72835 0.0
H1633 H 0.05142 0.18399 0.72136 0.0
H1634 H 0.21476 0.36258 0.78935 0.0
H1635 H 0.23891 0.32523 0.7847 0.0
H1636 H 0.14969 0.3534 0.80219 0.0
H1637 H 0.09425 0.33959 0.79084 0.0
C1638 C 0.55984 0.1818 0.60075 0.0
C1639 C 0.52523 0.155 0.58359 0.0
C1640 C 0.59001 0.17025 0.55672 0.0
C1641 C 0.62397 0.18831 0.57502 0.0
N1642 N 0.64178 0.24297 0.60687 0.0
N1643 N 0.50807 0.11766 0.54582 0.0
C1644 C 0.60956 0.20273 0.59543 0.0
C1645 C 0.5405 0.14683 0.56189 0.0
N1646 N 0.54518 0.1875 0.62215 0.0
N1647 N 0.6047 0.18336 0.53436 0.0
H1648 H 0.47137 0.0988 0.54898 0.0
H1649 H 0.5185 0.1085 0.53039 0.0
H1650 H 0.64018 0.20843 0.53037 0.0
H1651 H 0.58088 0.17494 0.52056 0.0
H1652 H 0.56871 0.20313 0.63601 0.0
H1653 H 0.509 0.17236 0.62652 0.0
H1654 H 0.63261 0.25751 0.62077 0.0
H1655 H 0.67537 0.26619 0.59978 0.0
C1656 C 0.96653 0.42054 0.56404 0.0
C1657 C 0.95459 0.39665 0.58567 0.0
C1658 C 0.90564 0.43372 0.59463 0.0
C1659 C 0.92306 0.46265 0.57429 0.0
N1660 N 0.93477 0.44885 0.53431 0.0
N1661 N 0.91671 0.38419 0.62293 0.0
C1662 C 0.94431 0.4471 0.55725 0.0
C1663 C 0.92566 0.40479 0.60146 0.0
N1664 N 0.99782 0.41671 0.54943 0.0
N1665 N 0.86365 0.4256 0.60442 0.0
H1666 H 0.931 0.36286 0.62826 0.0
H1667 H 0.89928 0.39219 0.63595 0.0
H1668 H 0.84132 0.43576 0.59606 0.0
H1669 H 0.84714 0.40195 0.61816 0.0
H1670 H 1.01 0.43669 0.53417 0.0
H1671 H 1.01502 0.39757 0.55371 0.0
H1672 H 0.94566 0.43382 0.5213 0.0
H1673 H 0.90987 0.45865 0.52889 0.0
C1674 C 0.66822 0.50195 0.55887 0.0
C1675 C 0.62986 0.48572 0.57496 0.0
C1676 C 0.67335 0.56183 0.59622 0.0
C1677 C 0.70996 0.57917 0.57909 0.0
N1678 N 0.73693 0.56951 0.5414 0.0
N1679 N 0.59224 0.5019 0.60713 0.0
C1680 C 0.70587 0.55025 0.55966 0.0
C1681 C 0.63135 0.5162 0.59314 0.0
N1682 N 0.66952 0.47073 0.54322 0.0
N1683 N 0.67955 0.58807 0.61583 0.0
H1684 H 0.56143 0.4685 0.60558 0.0
H1685 H 0.58888 0.52422 0.6191 0.0
H1686 H 0.70962 0.62156 0.61853 0.0
H1687 H 0.65678 0.57532 0.63013 0.0
H1688 H 0.69924 0.47899 0.53289 0.0
H1689 H 0.64266 0.43503 0.54197 0.0
H1690 H 0.73242 0.55193 0.52566 0.0
H1691 H 0.76468 0.6049 0.54103 0.0
loop_
_geom_bond_atom_site_label_1
_geom_bond_atom_site_label_2
_geom_bond_distance
_geom_bond_site_symmetry_2
_ccdc_geom_bond_type
Pr0 C2 2.880 . S
Pr0 O20 2.562 . S
Pr0 O21 2.490 . S
Pr0 O22 2.695 1_545 S
Pr0 O23 2.512 . S
Pr0 O25 2.437 . S
Pr0 O28 2.436 . S
Pr0 O30 2.438 1_545 S
Pr1 C11 2.880 . S
Pr1 O22 2.436 . S
Pr1 O24 2.438 1_565 S
Pr1 O26 2.562 . S
Pr1 O27 2.490 . S
Pr1 O28 2.695 1_565 S
Pr1 O29 2.512 . S
Pr1 O31 2.437 . S
C2 Pr0 2.880 . S
C2 C3 1.491 . S
C2 O20 1.254 . S
C2 O21 1.225 . S
C3 C2 1.491 . S
C3 C4 1.392 . S
C3 C8 1.356 . S
C4 C3 1.392 . S
C4 C5 1.368 . S
C4 H32 0.929 . S
C5 C4 1.368 . S
C5 C6 1.386 . S
C5 H33 0.929 . S
C6 C5 1.386 . S
C6 C7 1.373 . S
C7 C6 1.373 . S
C7 C8 1.409 . S
C7 H34 0.931 . S
C8 C3 1.356 . S
C8 C7 1.409 . S
C8 H35 0.930 . S
C9 O22 1.270 1_545 S
C9 O23 1.248 . S
C10 O24 1.267 . S
C10 O25 1.278 . S
C11 Pr1 2.880 . S
C11 C12 1.491 . S
C11 O26 1.254 . S
C11 O27 1.225 . S
C12 C11 1.491 . S
C12 C13 1.392 . S
C12 C17 1.356 . S
C13 C12 1.392 . S
C13 C14 1.368 . S
C13 H36 0.929 . S
C14 C13 1.368 . S
C14 C15 1.386 . S
C14 H37 0.929 . S
C15 C14 1.386 . S
C15 C16 1.373 . S
C16 C15 1.373 . S
C16 C17 1.409 . S
C16 H38 0.931 . S
C17 C12 1.356 . S
C17 C16 1.409 . S
C17 H39 0.930 . S
C18 O28 1.270 . S
C18 O29 1.248 1_545 S
C19 O30 1.267 . S
C19 O31 1.278 . S
O20 Pr0 2.562 . S
O20 C2 1.254 . S
O21 Pr0 2.490 . S
O21 C2 1.225 . S
O22 Pr0 2.695 1_565 S
O22 Pr1 2.436 . S
O22 C9 1.270 1_565 S
O23 Pr0 2.512 . S
O23 C9 1.248 . S
O24 Pr1 2.438 1_545 S
O24 C10 1.267 . S
O25 Pr0 2.437 . S
O25 C10 1.278 . S
O26 Pr1 2.562 . S
O26 C11 1.254 . S
O27 Pr1 2.490 . S
O27 C11 1.225 . S
O28 Pr0 2.436 . S
O28 Pr1 2.695 1_545 S
O28 C18 1.270 . S
O29 Pr1 2.512 . S
O29 C18 1.248 1_565 S
O30 Pr0 2.438 1_565 S
O30 C19 1.267 . S
O31 Pr1 2.437 . S
O31 C19 1.278 . S
H32 C4 0.929 . S
H33 C5 0.929 . S
H34 C7 0.931 . S
H35 C8 0.930 . S
H36 C13 0.929 . S
H37 C14 0.929 . S
H38 C16 0.931 . S
H39 C17 0.930 . S
Pr40 C42 2.880 . S
Pr40 O60 2.562 . S
Pr40 O61 2.490 . S
Pr40 O62 2.695 1_655 S
Pr40 O63 2.512 1_655 S
Pr40 O65 2.437 . S
Pr40 O68 2.436 1_655 S
Pr40 O70 2.438 1_655 S
Pr41 C51 2.880 . S
Pr41 O62 2.436 . S
Pr41 O64 2.438 1_455 S
Pr41 O66 2.562 . S
Pr41 O67 2.490 . S
Pr41 O68 2.695 . S
Pr41 O69 2.512 . S
Pr41 O71 2.437 . S
C42 Pr40 2.880 . S
C42 C43 1.491 . S
C42 O60 1.254 . S
C42 O61 1.225 . S
C43 C42 1.491 . S
C43 C44 1.392 . S
C43 C48 1.356 . S
C44 C43 1.392 . S
C44 C45 1.368 . S
C44 H72 0.929 . S
C45 C44 1.368 . S
C45 C46 1.386 . S
C45 H73 0.929 . S
C46 C45 1.386 . S
C46 C47 1.373 . S
C47 C46 1.373 . S
C47 C48 1.409 . S
C47 H74 0.931 . S
C48 C43 1.356 . S
C48 C47 1.409 . S
C48 H75 0.930 . S
C49 O62 1.270 . S
C49 O63 1.248 . S
C50 O64 1.267 . S
C50 O65 1.278 . S
C51 Pr41 2.880 . S
C51 C52 1.491 . S
C51 O66 1.254 . S
C51 O67 1.225 . S
C52 C51 1.491 . S
C52 C53 1.392 . S
C52 C57 1.356 . S
C53 C52 1.392 . S
C53 C54 1.368 . S
C53 H76 0.929 . S
C54 C53 1.368 . S
C54 C55 1.386 . S
C54 H77 0.929 . S
C55 C54 1.386 . S
C55 C56 1.373 . S
C56 C55 1.373 . S
C56 C57 1.409 . S
C56 H78 0.931 . S
C57 C52 1.356 . S
C57 C56 1.409 . S
C57 H79 0.930 . S
C58 O68 1.270 . S
C58 O69 1.248 . S
C59 O70 1.267 . S
C59 O71 1.278 . S
O60 Pr40 2.562 . S
O60 C42 1.254 . S
O61 Pr40 2.490 . S
O61 C42 1.225 . S
O62 Pr40 2.695 1_455 S
O62 Pr41 2.436 . S
O62 C49 1.270 . S
O63 Pr40 2.512 1_455 S
O63 C49 1.248 . S
O64 Pr41 2.438 1_655 S
O64 C50 1.267 . S
O65 Pr40 2.437 . S
O65 C50 1.278 . S
O66 Pr41 2.562 . S
O66 C51 1.254 . S
O67 Pr41 2.490 . S
O67 C51 1.225 . S
O68 Pr40 2.436 1_455 S
O68 Pr41 2.695 . S
O68 C58 1.270 . S
O69 Pr41 2.512 . S
O69 C58 1.248 . S
O70 Pr40 2.438 1_455 S
O70 C59 1.267 . S
O71 Pr41 2.437 . S
O71 C59 1.278 . S
H72 C44 0.929 . S
H73 C45 0.929 . S
H74 C47 0.931 . S
H75 C48 0.930 . S
H76 C53 0.929 . S
H77 C54 0.929 . S
H78 C56 0.931 . S
H79 C57 0.930 . S
Pr80 C82 2.880 . S
Pr80 O100 2.562 . S
Pr80 O101 2.490 . S
Pr80 O102 2.695 . S
Pr80 O103 2.512 . S
Pr80 O105 2.437 . S
Pr80 O108 2.436 . S
Pr80 O110 2.438 . S
Pr81 C91 2.880 . S
Pr81 O102 2.436 . S
Pr81 O104 2.438 . S
Pr81 O106 2.562 . S
Pr81 O107 2.490 . S
Pr81 O108 2.695 . S
Pr81 O109 2.512 . S
Pr81 O111 2.437 . S
C82 Pr80 2.880 . S
C82 C83 1.491 . S
C82 O100 1.254 . S
C82 O101 1.225 . S
C83 C82 1.491 . S
C83 C84 1.392 . S
C83 C88 1.356 . S
C84 C83 1.392 . S
C84 C85 1.368 . S
C84 H112 0.929 . S
C85 C84 1.368 . S
C85 C86 1.386 . S
C85 H113 0.929 . S
C86 C85 1.386 . S
C86 C87 1.373 . S
C87 C86 1.373 . S
C87 C88 1.409 . S
C87 H114 0.931 . S
C88 C83 1.356 . S
C88 C87 1.409 . S
C88 H115 0.930 . S
C89 O102 1.270 . S
C89 O103 1.248 . S
C90 O104 1.267 . S
C90 O105 1.278 . S
C91 Pr81 2.880 . S
C91 C92 1.491 . S
C91 O106 1.254 . S
C91 O107 1.225 . S
C92 C91 1.491 . S
C92 C93 1.392 . S
C92 C97 1.356 . S
C93 C92 1.392 . S
C93 C94 1.368 . S
C93 H116 0.929 . S
C94 C93 1.368 . S
C94 C95 1.386 . S
C94 H117 0.929 . S
C95 C94 1.386 . S
C95 C96 1.373 . S
C96 C95 1.373 . S
C96 C97 1.409 . S
C96 H118 0.931 . S
C97 C92 1.356 . S
C97 C96 1.409 . S
C97 H119 0.930 . S
C98 O108 1.270 . S
C98 O109 1.248 . S
C99 O110 1.267 . S
C99 O111 1.278 . S
O100 Pr80 2.562 . S
O100 C82 1.254 . S
O101 Pr80 2.490 . S
O101 C82 1.225 . S
O102 Pr80 2.695 . S
O102 Pr81 2.436 . S
O102 C89 1.270 . S
O103 Pr80 2.512 . S
O103 C89 1.248 . S
O104 Pr81 2.438 . S
O104 C90 1.267 . S
O105 Pr80 2.437 . S
O105 C90 1.278 . S
O106 Pr81 2.562 . S
O106 C91 1.254 . S
O107 Pr81 2.490 . S
O107 C91 1.225 . S
O108 Pr80 2.436 . S
O108 Pr81 2.695 . S
O108 C98 1.270 . S
O109 Pr81 2.512 . S
O109 C98 1.248 . S
O110 Pr80 2.438 . S
O110 C99 1.267 . S
O111 Pr81 2.437 . S
O111 C99 1.278 . S
H112 C84 0.929 . S
H113 C85 0.929 . S
H114 C87 0.931 . S
H115 C88 0.930 . S
H116 C93 0.929 . S
H117 C94 0.929 . S
H118 C96 0.931 . S
H119 C97 0.930 . S
Pr120 C122 2.880 . S
Pr120 O140 2.562 . S
Pr120 O141 2.490 . S
Pr120 O142 2.695 1_455 S
Pr120 O143 2.512 . S
Pr120 O145 2.437 . S
Pr120 O148 2.436 . S
Pr120 O150 2.438 1_455 S
Pr121 C131 2.880 . S
Pr121 O142 2.436 . S
Pr121 O144 2.438 1_655 S
Pr121 O146 2.562 . S
Pr121 O147 2.490 . S
Pr121 O148 2.695 1_655 S
Pr121 O149 2.512 . S
Pr121 O151 2.437 . S
C122 Pr120 2.880 . S
C122 C123 1.491 . S
C122 O140 1.254 . S
C122 O141 1.225 . S
C123 C122 1.491 . S
C123 C124 1.392 . S
C123 C128 1.356 . S
C124 C123 1.392 . S
C124 C125 1.368 . S
C124 H152 0.929 . S
C125 C124 1.368 . S
C125 C126 1.386 . S
C125 H153 0.929 . S
C126 C125 1.386 . S
C126 C127 1.373 . S
C127 C126 1.373 . S
C127 C128 1.409 . S
C127 H154 0.931 . S
C128 C123 1.356 . S
C128 C127 1.409 . S
C128 H155 0.930 . S
C129 O142 1.270 1_455 S
C129 O143 1.248 . S
C130 O144 1.267 . S
C130 O145 1.278 . S
C131 Pr121 2.880 . S
C131 C132 1.491 . S
C131 O146 1.254 . S
C131 O147 1.225 . S
C132 C131 1.491 . S
C132 C133 1.392 . S
C132 C137 1.356 . S
C133 C132 1.392 . S
C133 C134 1.368 . S
C133 H156 0.929 . S
C134 C133 1.368 . S
C134 C135 1.386 . S
C134 H157 0.929 . S
C135 C134 1.386 . S
C135 C136 1.373 . S
C136 C135 1.373 . S
C136 C137 1.409 . S
C136 H158 0.931 . S
C137 C132 1.356 . S
C137 C136 1.409 . S
C137 H159 0.930 . S
C138 O148 1.270 . S
C138 O149 1.248 1_455 S
C139 O150 1.267 . S
C139 O151 1.278 . S
O140 Pr120 2.562 . S
O140 C122 1.254 . S
O141 Pr120 2.490 . S
O141 C122 1.225 . S
O142 Pr120 2.695 1_655 S
O142 Pr121 2.436 . S
O142 C129 1.270 1_655 S
O143 Pr120 2.512 . S
O143 C129 1.248 . S
O144 Pr121 2.438 1_455 S
O144 C130 1.267 . S
O145 Pr120 2.437 . S
O145 C130 1.278 . S
O146 Pr121 2.562 . S
O146 C131 1.254 . S
O147 Pr121 2.490 . S
O147 C131 1.225 . S
O148 Pr120 2.436 . S
O148 Pr121 2.695 1_455 S
O148 C138 1.270 . S
O149 Pr121 2.512 . S
O149 C138 1.248 1_655 S
O150 Pr120 2.438 1_655 S
O150 C139 1.267 . S
O151 Pr121 2.437 . S
O151 C139 1.278 . S
H152 C124 0.929 . S
H153 C125 0.929 . S
H154 C127 0.931 . S
H155 C128 0.930 . S
H156 C133 0.929 . S
H157 C134 0.929 . S
H158 C136 0.931 . S
H159 C137 0.930 . S
Pr160 C162 2.880 . S
Pr160 O180 2.562 . S
Pr160 O181 2.490 . S
Pr160 O182 2.695 . S
Pr160 O183 2.512 . S
Pr160 O185 2.437 . S
Pr160 O188 2.436 . S
Pr160 O190 2.438 . S
Pr161 C171 2.880 . S
Pr161 O182 2.436 . S
Pr161 O184 2.438 . S
Pr161 O186 2.562 . S
Pr161 O187 2.490 . S
Pr161 O188 2.695 . S
Pr161 O189 2.512 . S
Pr161 O191 2.437 . S
C162 Pr160 2.880 . S
C162 C163 1.491 . S
C162 O180 1.254 . S
C162 O181 1.225 . S
C163 C162 1.491 . S
C163 C164 1.392 . S
C163 C168 1.356 . S
C164 C163 1.392 . S
C164 C165 1.368 . S
C164 H192 0.929 . S
C165 C164 1.368 . S
C165 C166 1.386 . S
C165 H193 0.929 . S
C166 C165 1.386 . S
C166 C167 1.373 . S
C167 C166 1.373 . S
C167 C168 1.409 . S
C167 H194 0.931 . S
C168 C163 1.356 . S
C168 C167 1.409 . S
C168 H195 0.930 . S
C169 O182 1.270 . S
C169 O183 1.248 . S
C170 O184 1.267 . S
C170 O185 1.278 . S
C171 Pr161 2.880 . S
C171 C172 1.491 . S
C171 O186 1.254 . S
C171 O187 1.225 . S
C172 C171 1.491 . S
C172 C173 1.392 . S
C172 C177 1.356 . S
C173 C172 1.392 . S
C173 C174 1.368 . S
C173 H196 0.929 . S
C174 C173 1.368 . S
C174 C175 1.386 . S
C174 H197 0.929 . S
C175 C174 1.386 . S
C175 C176 1.373 . S
C176 C175 1.373 . S
C176 C177 1.409 . S
C176 H198 0.931 . S
C177 C172 1.356 . S
C177 C176 1.409 . S
C177 H199 0.930 . S
C178 O188 1.270 . S
C178 O189 1.248 . S
C179 O190 1.267 . S
C179 O191 1.278 . S
O180 Pr160 2.562 . S
O180 C162 1.254 . S
O181 Pr160 2.490 . S
O181 C162 1.225 . S
O182 Pr160 2.695 . S
O182 Pr161 2.436 . S
O182 C169 1.270 . S
O183 Pr160 2.512 . S
O183 C169 1.248 . S
O184 Pr161 2.438 . S
O184 C170 1.267 . S
O185 Pr160 2.437 . S
O185 C170 1.278 . S
O186 Pr161 2.562 . S
O186 C171 1.254 . S
O187 Pr161 2.490 . S
O187 C171 1.225 . S
O188 Pr160 2.436 . S
O188 Pr161 2.695 . S
O188 C178 1.270 . S
O189 Pr161 2.512 . S
O189 C178 1.248 . S
O190 Pr160 2.438 . S
O190 C179 1.267 . S
O191 Pr161 2.437 . S
O191 C179 1.278 . S
H192 C164 0.929 . S
H193 C165 0.929 . S
H194 C167 0.931 . S
H195 C168 0.930 . S
H196 C173 0.929 . S
H197 C174 0.929 . S
H198 C176 0.931 . S
H199 C177 0.930 . S
Pr200 C202 2.880 . S
Pr200 O220 2.562 . S
Pr200 O221 2.490 . S
Pr200 O222 2.695 1_565 S
Pr200 O223 2.512 1_565 S
Pr200 O225 2.437 . S
Pr200 O228 2.436 1_565 S
Pr200 O230 2.438 1_565 S
Pr201 C211 2.880 . S
Pr201 O222 2.436 . S
Pr201 O224 2.438 1_545 S
Pr201 O226 2.562 . S
Pr201 O227 2.490 . S
Pr201 O228 2.695 . S
Pr201 O229 2.512 . S
Pr201 O231 2.437 . S
C202 Pr200 2.880 . S
C202 C203 1.491 . S
C202 O220 1.254 . S
C202 O221 1.225 . S
C203 C202 1.491 . S
C203 C204 1.392 . S
C203 C208 1.356 . S
C204 C203 1.392 . S
C204 C205 1.368 . S
C204 H232 0.929 . S
C205 C204 1.368 . S
C205 C206 1.386 . S
C205 H233 0.929 . S
C206 C205 1.386 . S
C206 C207 1.373 . S
C207 C206 1.373 . S
C207 C208 1.409 . S
C207 H234 0.931 . S
C208 C203 1.356 . S
C208 C207 1.409 . S
C208 H235 0.930 . S
C209 O222 1.270 . S
C209 O223 1.248 . S
C210 O224 1.267 . S
C210 O225 1.278 . S
C211 Pr201 2.880 . S
C211 C212 1.491 . S
C211 O226 1.254 . S
C211 O227 1.225 . S
C212 C211 1.491 . S
C212 C213 1.392 . S
C212 C217 1.356 . S
C213 C212 1.392 . S
C213 C214 1.368 . S
C213 H236 0.929 . S
C214 C213 1.368 . S
C214 C215 1.386 . S
C214 H237 0.929 . S
C215 C214 1.386 . S
C215 C216 1.373 . S
C216 C215 1.373 . S
C216 C217 1.409 . S
C216 H238 0.931 . S
C217 C212 1.356 . S
C217 C216 1.409 . S
C217 H239 0.930 . S
C218 O228 1.270 . S
C218 O229 1.248 . S
C219 O230 1.267 . S
C219 O231 1.278 . S
O220 Pr200 2.562 . S
O220 C202 1.254 . S
O221 Pr200 2.490 . S
O221 C202 1.225 . S
O222 Pr200 2.695 1_545 S
O222 Pr201 2.436 . S
O222 C209 1.270 . S
O223 Pr200 2.512 1_545 S
O223 C209 1.248 . S
O224 Pr201 2.438 1_565 S
O224 C210 1.267 . S
O225 Pr200 2.437 . S
O225 C210 1.278 . S
O226 Pr201 2.562 . S
O226 C211 1.254 . S
O227 Pr201 2.490 . S
O227 C211 1.225 . S
O228 Pr200 2.436 1_545 S
O228 Pr201 2.695 . S
O228 C218 1.270 . S
O229 Pr201 2.512 . S
O229 C218 1.248 . S
O230 Pr200 2.438 1_545 S
O230 C219 1.267 . S
O231 Pr201 2.437 . S
O231 C219 1.278 . S
H232 C204 0.929 . S
H233 C205 0.929 . S
H234 C207 0.931 . S
H235 C208 0.930 . S
H236 C213 0.929 . S
H237 C214 0.929 . S
H238 C216 0.931 . S
H239 C217 0.930 . S
Pr240 C242 2.880 . S
Pr240 O260 2.562 . S
Pr240 O261 2.490 . S
Pr240 O262 2.695 . S
Pr240 O263 2.512 . S
Pr240 O265 2.437 . S
Pr240 O268 2.436 . S
Pr240 O270 2.438 . S
Pr241 C251 2.880 . S
Pr241 O262 2.436 . S
Pr241 O264 2.438 . S
Pr241 O266 2.562 . S
Pr241 O267 2.490 . S
Pr241 O268 2.695 . S
Pr241 O269 2.512 . S
Pr241 O271 2.437 . S
C242 Pr240 2.880 . S
C242 C243 1.491 . S
C242 O260 1.254 . S
C242 O261 1.225 . S
C243 C242 1.491 . S
C243 C244 1.392 . S
C243 C248 1.356 . S
C244 C243 1.392 . S
C244 C245 1.368 . S
C244 H272 0.929 . S
C245 C244 1.368 . S
C245 C246 1.386 . S
C245 H273 0.929 . S
C246 C245 1.386 . S
C246 C247 1.373 . S
C247 C246 1.373 . S
C247 C248 1.409 . S
C247 H274 0.931 . S
C248 C243 1.356 . S
C248 C247 1.409 . S
C248 H275 0.930 . S
C249 O262 1.270 . S
C249 O263 1.248 . S
C250 O264 1.267 . S
C250 O265 1.278 . S
C251 Pr241 2.880 . S
C251 C252 1.491 1_455 S
C251 O266 1.254 . S
C251 O267 1.225 . S
C252 C251 1.491 1_655 S
C252 C253 1.392 . S
C252 C257 1.356 . S
C253 C252 1.392 . S
C253 C254 1.368 . S
C253 H276 0.929 . S
C254 C253 1.368 . S
C254 C255 1.386 . S
C254 H277 0.929 . S
C255 C254 1.386 . S
C255 C256 1.373 . S
C256 C255 1.373 . S
C256 C257 1.409 . S
C256 H278 0.931 . S
C257 C252 1.356 . S
C257 C256 1.409 . S
C257 H279 0.930 . S
C258 O268 1.270 . S
C258 O269 1.248 . S
C259 O270 1.267 . S
C259 O271 1.278 . S
O260 Pr240 2.562 . S
O260 C242 1.254 . S
O261 Pr240 2.490 . S
O261 C242 1.225 . S
O262 Pr240 2.695 . S
O262 Pr241 2.436 . S
O262 C249 1.270 . S
O263 Pr240 2.512 . S
O263 C249 1.248 . S
O264 Pr241 2.438 . S
O264 C250 1.267 . S
O265 Pr240 2.437 . S
O265 C250 1.278 . S
O266 Pr241 2.562 . S
O266 C251 1.254 . S
O267 Pr241 2.490 . S
O267 C251 1.225 . S
O268 Pr240 2.436 . S
O268 Pr241 2.695 . S
O268 C258 1.270 . S
O269 Pr241 2.512 . S
O269 C258 1.248 . S
O270 Pr240 2.438 . S
O270 C259 1.267 . S
O271 Pr241 2.437 . S
O271 C259 1.278 . S
H272 C244 0.929 . S
H273 C245 0.929 . S
H274 C247 0.931 . S
H275 C248 0.930 . S
H276 C253 0.929 . S
H277 C254 0.929 . S
H278 C256 0.931 . S
H279 C257 0.930 . S
Pr280 C282 2.880 . S
Pr280 O300 2.562 . S
Pr280 O301 2.490 . S
Pr280 O302 2.695 . S
Pr280 O303 2.512 . S
Pr280 O305 2.437 . S
Pr280 O308 2.436 . S
Pr280 O310 2.438 . S
Pr281 C291 2.880 . S
Pr281 O302 2.436 . S
Pr281 O304 2.438 . S
Pr281 O306 2.562 . S
Pr281 O307 2.490 . S
Pr281 O308 2.695 . S
Pr281 O309 2.512 . S
Pr281 O311 2.437 . S
C282 Pr280 2.880 . S
C282 C283 1.491 . S
C282 O300 1.254 . S
C282 O301 1.225 . S
C283 C282 1.491 . S
C283 C284 1.392 . S
C283 C288 1.356 . S
C284 C283 1.392 . S
C284 C285 1.368 . S
C284 H312 0.929 . S
C285 C284 1.368 . S
C285 C286 1.386 . S
C285 H313 0.929 . S
C286 C285 1.386 . S
C286 C287 1.373 . S
C287 C286 1.373 . S
C287 C288 1.409 . S
C287 H314 0.931 . S
C288 C283 1.356 . S
C288 C287 1.409 . S
C288 H315 0.930 . S
C289 O302 1.270 . S
C289 O303 1.248 . S
C290 O304 1.267 . S
C290 O305 1.278 . S
C291 Pr281 2.880 . S
C291 C292 1.491 . S
C291 O306 1.254 . S
C291 O307 1.225 . S
C292 C291 1.491 . S
C292 C293 1.392 . S
C292 C297 1.356 . S
C293 C292 1.392 . S
C293 C294 1.368 . S
C293 H316 0.929 . S
C294 C293 1.368 . S
C294 C295 1.386 . S
C294 H317 0.929 . S
C295 C294 1.386 . S
C295 C296 1.373 . S
C296 C295 1.373 . S
C296 C297 1.409 . S
C296 H318 0.931 . S
C297 C292 1.356 . S
C297 C296 1.409 . S
C297 H319 0.930 . S
C298 O308 1.270 . S
C298 O309 1.248 . S
C299 O310 1.267 . S
C299 O311 1.278 . S
O300 Pr280 2.562 . S
O300 C282 1.254 . S
O301 Pr280 2.490 . S
O301 C282 1.225 . S
O302 Pr280 2.695 . S
O302 Pr281 2.436 . S
O302 C289 1.270 . S
O303 Pr280 2.512 . S
O303 C289 1.248 . S
O304 Pr281 2.438 . S
O304 C290 1.267 . S
O305 Pr280 2.437 . S
O305 C290 1.278 . S
O306 Pr281 2.562 . S
O306 C291 1.254 . S
O307 Pr281 2.490 . S
O307 C291 1.225 . S
O308 Pr280 2.436 . S
O308 Pr281 2.695 . S
O308 C298 1.270 . S
O309 Pr281 2.512 . S
O309 C298 1.248 . S
O310 Pr280 2.438 . S
O310 C299 1.267 . S
O311 Pr281 2.437 . S
O311 C299 1.278 . S
H312 C284 0.929 . S
H313 C285 0.929 . S
H314 C287 0.931 . S
H315 C288 0.930 . S
H316 C293 0.929 . S
H317 C294 0.929 . S
H318 C296 0.931 . S
H319 C297 0.930 . S
Pr320 C322 2.880 . S
Pr320 O340 2.562 . S
Pr320 O341 2.490 . S
Pr320 O342 2.695 . S
Pr320 O343 2.512 . S
Pr320 O345 2.437 . S
Pr320 O348 2.436 . S
Pr320 O350 2.438 . S
Pr321 C331 2.880 1_565 S
Pr321 O342 2.436 . S
Pr321 O344 2.438 . S
Pr321 O346 2.562 1_565 S
Pr321 O347 2.490 1_565 S
Pr321 O348 2.695 . S
Pr321 O349 2.512 . S
Pr321 O351 2.437 . S
C322 Pr320 2.880 . S
C322 C323 1.491 . S
C322 O340 1.254 . S
C322 O341 1.225 . S
C323 C322 1.491 . S
C323 C324 1.392 . S
C323 C328 1.356 . S
C324 C323 1.392 . S
C324 C325 1.368 . S
C324 H352 0.929 . S
C325 C324 1.368 . S
C325 C326 1.386 . S
C325 H353 0.929 . S
C326 C325 1.386 . S
C326 C327 1.373 . S
C327 C326 1.373 . S
C327 C328 1.409 . S
C327 H354 0.931 . S
C328 C323 1.356 . S
C328 C327 1.409 . S
C328 H355 0.930 . S
C329 O342 1.270 . S
C329 O343 1.248 . S
C330 O344 1.267 . S
C330 O345 1.278 . S
C331 Pr321 2.880 1_545 S
C331 C332 1.491 . S
C331 O346 1.254 . S
C331 O347 1.225 . S
C332 C331 1.491 . S
C332 C333 1.392 . S
C332 C337 1.356 . S
C333 C332 1.392 . S
C333 C334 1.368 . S
C333 H356 0.929 . S
C334 C333 1.368 . S
C334 C335 1.386 . S
C334 H357 0.929 . S
C335 C334 1.386 . S
C335 C336 1.373 . S
C336 C335 1.373 . S
C336 C337 1.409 . S
C336 H358 0.931 . S
C337 C332 1.356 . S
C337 C336 1.409 . S
C337 H359 0.930 . S
C338 O348 1.270 . S
C338 O349 1.248 . S
C339 O350 1.267 . S
C339 O351 1.278 . S
O340 Pr320 2.562 . S
O340 C322 1.254 . S
O341 Pr320 2.490 . S
O341 C322 1.225 . S
O342 Pr320 2.695 . S
O342 Pr321 2.436 . S
O342 C329 1.270 . S
O343 Pr320 2.512 . S
O343 C329 1.248 . S
O344 Pr321 2.438 . S
O344 C330 1.267 . S
O345 Pr320 2.437 . S
O345 C330 1.278 . S
O346 Pr321 2.562 1_545 S
O346 C331 1.254 . S
O347 Pr321 2.490 1_545 S
O347 C331 1.225 . S
O348 Pr320 2.436 . S
O348 Pr321 2.695 . S
O348 C338 1.270 . S
O349 Pr321 2.512 . S
O349 C338 1.248 . S
O350 Pr320 2.438 . S
O350 C339 1.267 . S
O351 Pr321 2.437 . S
O351 C339 1.278 . S
H352 C324 0.929 . S
H353 C325 0.929 . S
H354 C327 0.931 . S
H355 C328 0.930 . S
H356 C333 0.929 . S
H357 C334 0.929 . S
H358 C336 0.931 . S
H359 C337 0.930 . S
Pr360 C362 2.880 . S
Pr360 O380 2.562 . S
Pr360 O381 2.490 . S
Pr360 O382 2.695 . S
Pr360 O383 2.512 . S
Pr360 O385 2.437 . S
Pr360 O388 2.436 . S
Pr360 O390 2.438 . S
Pr361 C371 2.880 . S
Pr361 O382 2.436 . S
Pr361 O384 2.438 . S
Pr361 O386 2.562 . S
Pr361 O387 2.490 . S
Pr361 O388 2.695 . S
Pr361 O389 2.512 . S
Pr361 O391 2.437 . S
C362 Pr360 2.880 . S
C362 C363 1.491 . S
C362 O380 1.254 . S
C362 O381 1.225 . S
C363 C362 1.491 . S
C363 C364 1.392 1_565 S
C363 C368 1.356 1_565 S
C364 C363 1.392 1_545 S
C364 C365 1.368 . S
C364 H392 0.929 . S
C365 C364 1.368 . S
C365 C366 1.386 . S
C365 H393 0.929 . S
C366 C365 1.386 . S
C366 C367 1.373 . S
C367 C366 1.373 . S
C367 C368 1.409 . S
C367 H394 0.931 . S
C368 C363 1.356 1_545 S
C368 C367 1.409 . S
C368 H395 0.930 1_545 S
C369 O382 1.270 . S
C369 O383 1.248 . S
C370 O384 1.267 . S
C370 O385 1.278 . S
C371 Pr361 2.880 . S
C371 C372 1.491 . S
C371 O386 1.254 . S
C371 O387 1.225 . S
C372 C371 1.491 . S
C372 C373 1.392 . S
C372 C377 1.356 . S
C373 C372 1.392 . S
C373 C374 1.368 . S
C373 H396 0.929 . S
C374 C373 1.368 . S
C374 C375 1.386 . S
C374 H397 0.929 . S
C375 C374 1.386 . S
C375 C376 1.373 . S
C376 C375 1.373 . S
C376 C377 1.409 . S
C376 H398 0.931 . S
C377 C372 1.356 . S
C377 C376 1.409 . S
C377 H399 0.930 . S
C378 O388 1.270 . S
C378 O389 1.248 . S
C379 O390 1.267 . S
C379 O391 1.278 . S
O380 Pr360 2.562 . S
O380 C362 1.254 . S
O381 Pr360 2.490 . S
O381 C362 1.225 . S
O382 Pr360 2.695 . S
O382 Pr361 2.436 . S
O382 C369 1.270 . S
O383 Pr360 2.512 . S
O383 C369 1.248 . S
O384 Pr361 2.438 . S
O384 C370 1.267 . S
O385 Pr360 2.437 . S
O385 C370 1.278 . S
O386 Pr361 2.562 . S
O386 C371 1.254 . S
O387 Pr361 2.490 . S
O387 C371 1.225 . S
O388 Pr360 2.436 . S
O388 Pr361 2.695 . S
O388 C378 1.270 . S
O389 Pr361 2.512 . S
O389 C378 1.248 . S
O390 Pr360 2.438 . S
O390 C379 1.267 . S
O391 Pr361 2.437 . S
O391 C379 1.278 . S
H392 C364 0.929 . S
H393 C365 0.929 . S
H394 C367 0.931 . S
H395 C368 0.930 1_565 S
H396 C373 0.929 . S
H397 C374 0.929 . S
H398 C376 0.931 . S
H399 C377 0.930 . S
Pr400 C402 2.880 . S
Pr400 O420 2.562 . S
Pr400 O421 2.490 . S
Pr400 O422 2.695 . S
Pr400 O423 2.512 . S
Pr400 O425 2.437 . S
Pr400 O428 2.436 . S
Pr400 O430 2.438 . S
Pr401 C411 2.880 . S
Pr401 O422 2.436 . S
Pr401 O424 2.438 . S
Pr401 O426 2.562 . S
Pr401 O427 2.490 . S
Pr401 O428 2.695 . S
Pr401 O429 2.512 . S
Pr401 O431 2.437 . S
C402 Pr400 2.880 . S
C402 C403 1.491 . S
C402 O420 1.254 . S
C402 O421 1.225 . S
C403 C402 1.491 . S
C403 C404 1.392 . S
C403 C408 1.356 . S
C404 C403 1.392 . S
C404 C405 1.368 1_455 S
C404 H432 0.929 . S
C405 C404 1.368 1_655 S
C405 C406 1.386 . S
C405 H433 0.929 . S
C406 C405 1.386 . S
C406 C407 1.373 . S
C407 C406 1.373 . S
C407 C408 1.409 1_655 S
C407 H434 0.931 . S
C408 C403 1.356 . S
C408 C407 1.409 1_455 S
C408 H435 0.930 . S
C409 O422 1.270 . S
C409 O423 1.248 . S
C410 O424 1.267 . S
C410 O425 1.278 . S
C411 Pr401 2.880 . S
C411 C412 1.491 . S
C411 O426 1.254 . S
C411 O427 1.225 . S
C412 C411 1.491 . S
C412 C413 1.392 . S
C412 C417 1.356 . S
C413 C412 1.392 . S
C413 C414 1.368 . S
C413 H436 0.929 . S
C414 C413 1.368 . S
C414 C415 1.386 . S
C414 H437 0.929 . S
C415 C414 1.386 . S
C415 C416 1.373 . S
C416 C415 1.373 . S
C416 C417 1.409 . S
C416 H438 0.931 . S
C417 C412 1.356 . S
C417 C416 1.409 . S
C417 H439 0.930 . S
C418 O428 1.270 . S
C418 O429 1.248 . S
C419 O430 1.267 . S
C419 O431 1.278 . S
O420 Pr400 2.562 . S
O420 C402 1.254 . S
O421 Pr400 2.490 . S
O421 C402 1.225 . S
O422 Pr400 2.695 . S
O422 Pr401 2.436 . S
O422 C409 1.270 . S
O423 Pr400 2.512 . S
O423 C409 1.248 . S
O424 Pr401 2.438 . S
O424 C410 1.267 . S
O425 Pr400 2.437 . S
O425 C410 1.278 . S
O426 Pr401 2.562 . S
O426 C411 1.254 . S
O427 Pr401 2.490 . S
O427 C411 1.225 . S
O428 Pr400 2.436 . S
O428 Pr401 2.695 . S
O428 C418 1.270 . S
O429 Pr401 2.512 . S
O429 C418 1.248 . S
O430 Pr400 2.438 . S
O430 C419 1.267 . S
O431 Pr401 2.437 . S
O431 C419 1.278 . S
H432 C404 0.929 . S
H433 C405 0.929 . S
H434 C407 0.931 . S
H435 C408 0.930 . S
H436 C413 0.929 . S
H437 C414 0.929 . S
H438 C416 0.931 . S
H439 C417 0.930 . S
Pr440 C442 2.880 . S
Pr440 O460 2.562 . S
Pr440 O461 2.490 . S
Pr440 O462 2.695 . S
Pr440 O463 2.512 . S
Pr440 O465 2.437 . S
Pr440 O468 2.436 . S
Pr440 O470 2.438 . S
Pr441 C451 2.880 . S
Pr441 O462 2.436 . S
Pr441 O464 2.438 . S
Pr441 O466 2.562 . S
Pr441 O467 2.490 . S
Pr441 O468 2.695 . S
Pr441 O469 2.512 . S
Pr441 O471 2.437 . S
C442 Pr440 2.880 . S
C442 C443 1.491 . S
C442 O460 1.254 . S
C442 O461 1.225 . S
C443 C442 1.491 . S
C443 C444 1.392 . S
C443 C448 1.356 . S
C444 C443 1.392 . S
C444 C445 1.368 . S
C444 H472 0.929 . S
C445 C444 1.368 . S
C445 C446 1.386 . S
C445 H473 0.929 . S
C446 C445 1.386 . S
C446 C447 1.373 . S
C447 C446 1.373 . S
C447 C448 1.409 . S
C447 H474 0.931 . S
C448 C443 1.356 . S
C448 C447 1.409 . S
C448 H475 0.930 . S
C449 O462 1.270 . S
C449 O463 1.248 . S
C450 O464 1.267 . S
C450 O465 1.278 . S
C451 Pr441 2.880 . S
C451 C452 1.491 . S
C451 O466 1.254 . S
C451 O467 1.225 . S
C452 C451 1.491 . S
C452 C453 1.392 . S
C452 C457 1.356 . S
C453 C452 1.392 . S
C453 C454 1.368 . S
C453 H476 0.929 . S
C454 C453 1.368 . S
C454 C455 1.386 . S
C454 H477 0.929 . S
C455 C454 1.386 . S
C455 C456 1.373 . S
C456 C455 1.373 . S
C456 C457 1.409 . S
C456 H478 0.931 . S
C457 C452 1.356 . S
C457 C456 1.409 . S
C457 H479 0.930 . S
C458 O468 1.270 . S
C458 O469 1.248 . S
C459 O470 1.267 . S
C459 O471 1.278 . S
O460 Pr440 2.562 . S
O460 C442 1.254 . S
O461 Pr440 2.490 . S
O461 C442 1.225 . S
O462 Pr440 2.695 . S
O462 Pr441 2.436 . S
O462 C449 1.270 . S
O463 Pr440 2.512 . S
O463 C449 1.248 . S
O464 Pr441 2.438 . S
O464 C450 1.267 . S
O465 Pr440 2.437 . S
O465 C450 1.278 . S
O466 Pr441 2.562 . S
O466 C451 1.254 . S
O467 Pr441 2.490 . S
O467 C451 1.225 . S
O468 Pr440 2.436 . S
O468 Pr441 2.695 . S
O468 C458 1.270 . S
O469 Pr441 2.512 . S
O469 C458 1.248 . S
O470 Pr440 2.438 . S
O470 C459 1.267 . S
O471 Pr441 2.437 . S
O471 C459 1.278 . S
H472 C444 0.929 . S
H473 C445 0.929 . S
H474 C447 0.931 . S
H475 C448 0.930 . S
H476 C453 0.929 . S
H477 C454 0.929 . S
H478 C456 0.931 . S
H479 C457 0.930 . S
Pr480 C482 2.880 . S
Pr480 O500 2.562 . S
Pr480 O501 2.490 . S
Pr480 O502 2.695 . S
Pr480 O503 2.512 . S
Pr480 O505 2.437 . S
Pr480 O508 2.436 . S
Pr480 O510 2.438 . S
Pr481 C491 2.880 . S
Pr481 O502 2.436 . S
Pr481 O504 2.438 . S
Pr481 O506 2.562 . S
Pr481 O507 2.490 . S
Pr481 O508 2.695 . S
Pr481 O509 2.512 . S
Pr481 O511 2.437 . S
C482 Pr480 2.880 . S
C482 C483 1.491 . S
C482 O500 1.254 . S
C482 O501 1.225 . S
C483 C482 1.491 . S
C483 C484 1.392 1_655 S
C483 C488 1.356 1_655 S
C484 C483 1.392 1_455 S
C484 C485 1.368 . S
C484 H512 0.929 . S
C485 C484 1.368 . S
C485 C486 1.386 . S
C485 H513 0.929 . S
C486 C485 1.386 . S
C486 C487 1.373 . S
C487 C486 1.373 . S
C487 C488 1.409 . S
C487 H514 0.931 . S
C488 C483 1.356 1_455 S
C488 C487 1.409 . S
C488 H515 0.930 1_455 S
C489 O502 1.270 . S
C489 O503 1.248 . S
C490 O504 1.267 . S
C490 O505 1.278 . S
C491 Pr481 2.880 . S
C491 C492 1.491 . S
C491 O506 1.254 . S
C491 O507 1.225 . S
C492 C491 1.491 . S
C492 C493 1.392 . S
C492 C497 1.356 . S
C493 C492 1.392 . S
C493 C494 1.368 . S
C493 H516 0.929 . S
C494 C493 1.368 . S
C494 C495 1.386 . S
C494 H517 0.929 . S
C495 C494 1.386 . S
C495 C496 1.373 . S
C496 C495 1.373 . S
C496 C497 1.409 . S
C496 H518 0.931 . S
C497 C492 1.356 . S
C497 C496 1.409 . S
C497 H519 0.930 . S
C498 O508 1.270 . S
C498 O509 1.248 . S
C499 O510 1.267 . S
C499 O511 1.278 . S
O500 Pr480 2.562 . S
O500 C482 1.254 . S
O501 Pr480 2.490 . S
O501 C482 1.225 . S
O502 Pr480 2.695 . S
O502 Pr481 2.436 . S
O502 C489 1.270 . S
O503 Pr480 2.512 . S
O503 C489 1.248 . S
O504 Pr481 2.438 . S
O504 C490 1.267 . S
O505 Pr480 2.437 . S
O505 C490 1.278 . S
O506 Pr481 2.562 . S
O506 C491 1.254 . S
O507 Pr481 2.490 . S
O507 C491 1.225 . S
O508 Pr480 2.436 . S
O508 Pr481 2.695 . S
O508 C498 1.270 . S
O509 Pr481 2.512 . S
O509 C498 1.248 . S
O510 Pr480 2.438 . S
O510 C499 1.267 . S
O511 Pr481 2.437 . S
O511 C499 1.278 . S
H512 C484 0.929 . S
H513 C485 0.929 . S
H514 C487 0.931 . S
H515 C488 0.930 1_655 S
H516 C493 0.929 . S
H517 C494 0.929 . S
H518 C496 0.931 . S
H519 C497 0.930 . S
Pr520 C522 2.880 . S
Pr520 O540 2.562 . S
Pr520 O541 2.490 . S
Pr520 O542 2.695 . S
Pr520 O543 2.512 . S
Pr520 O545 2.437 . S
Pr520 O548 2.436 . S
Pr520 O550 2.438 . S
Pr521 C531 2.880 . S
Pr521 O542 2.436 . S
Pr521 O544 2.438 . S
Pr521 O546 2.562 . S
Pr521 O547 2.490 . S
Pr521 O548 2.695 . S
Pr521 O549 2.512 . S
Pr521 O551 2.437 . S
C522 Pr520 2.880 . S
C522 C523 1.491 . S
C522 O540 1.254 . S
C522 O541 1.225 . S
C523 C522 1.491 . S
C523 C524 1.392 . S
C523 C528 1.356 . S
C524 C523 1.392 . S
C524 C525 1.368 . S
C524 H552 0.929 . S
C525 C524 1.368 . S
C525 C526 1.386 . S
C525 H553 0.929 . S
C526 C525 1.386 . S
C526 C527 1.373 . S
C527 C526 1.373 . S
C527 C528 1.409 . S
C527 H554 0.931 . S
C528 C523 1.356 . S
C528 C527 1.409 . S
C528 H555 0.930 . S
C529 O542 1.270 . S
C529 O543 1.248 . S
C530 O544 1.267 . S
C530 O545 1.278 . S
C531 Pr521 2.880 . S
C531 C532 1.491 . S
C531 O546 1.254 . S
C531 O547 1.225 . S
C532 C531 1.491 . S
C532 C533 1.392 . S
C532 C537 1.356 . S
C533 C532 1.392 . S
C533 C534 1.368 . S
C533 H556 0.929 . S
C534 C533 1.368 . S
C534 C535 1.386 . S
C534 H557 0.929 . S
C535 C534 1.386 . S
C535 C536 1.373 . S
C536 C535 1.373 . S
C536 C537 1.409 . S
C536 H558 0.931 . S
C537 C532 1.356 . S
C537 C536 1.409 . S
C537 H559 0.930 . S
C538 O548 1.270 . S
C538 O549 1.248 . S
C539 O550 1.267 . S
C539 O551 1.278 . S
O540 Pr520 2.562 . S
O540 C522 1.254 . S
O541 Pr520 2.490 . S
O541 C522 1.225 . S
O542 Pr520 2.695 . S
O542 Pr521 2.436 . S
O542 C529 1.270 . S
O543 Pr520 2.512 . S
O543 C529 1.248 . S
O544 Pr521 2.438 . S
O544 C530 1.267 . S
O545 Pr520 2.437 . S
O545 C530 1.278 . S
O546 Pr521 2.562 . S
O546 C531 1.254 . S
O547 Pr521 2.490 . S
O547 C531 1.225 . S
O548 Pr520 2.436 . S
O548 Pr521 2.695 . S
O548 C538 1.270 . S
O549 Pr521 2.512 . S
O549 C538 1.248 . S
O550 Pr520 2.438 . S
O550 C539 1.267 . S
O551 Pr521 2.437 . S
O551 C539 1.278 . S
H552 C524 0.929 . S
H553 C525 0.929 . S
H554 C527 0.931 . S
H555 C528 0.930 . S
H556 C533 0.929 . S
H557 C534 0.929 . S
H558 C536 0.931 . S
H559 C537 0.930 . S
Pr560 C562 2.880 . S
Pr560 O580 2.562 . S
Pr560 O581 2.490 . S
Pr560 O582 2.695 . S
Pr560 O583 2.512 . S
Pr560 O585 2.437 . S
Pr560 O588 2.436 . S
Pr560 O590 2.438 . S
Pr561 C571 2.880 . S
Pr561 O582 2.436 . S
Pr561 O584 2.438 . S
Pr561 O586 2.562 . S
Pr561 O587 2.490 . S
Pr561 O588 2.695 . S
Pr561 O589 2.512 . S
Pr561 O591 2.437 . S
C562 Pr560 2.880 . S
C562 C563 1.491 . S
C562 O580 1.254 . S
C562 O581 1.225 . S
C563 C562 1.491 . S
C563 C564 1.392 . S
C563 C568 1.356 . S
C564 C563 1.392 . S
C564 C565 1.368 1_545 S
C564 H592 0.929 . S
C565 C564 1.368 1_565 S
C565 C566 1.386 . S
C565 H593 0.929 . S
C566 C565 1.386 . S
C566 C567 1.373 . S
C567 C566 1.373 . S
C567 C568 1.409 1_565 S
C567 H594 0.931 . S
C568 C563 1.356 . S
C568 C567 1.409 1_545 S
C568 H595 0.930 . S
C569 O582 1.270 . S
C569 O583 1.248 . S
C570 O584 1.267 . S
C570 O585 1.278 . S
C571 Pr561 2.880 . S
C571 C572 1.491 . S
C571 O586 1.254 . S
C571 O587 1.225 . S
C572 C571 1.491 . S
C572 C573 1.392 . S
C572 C577 1.356 . S
C573 C572 1.392 . S
C573 C574 1.368 . S
C573 H596 0.929 . S
C574 C573 1.368 . S
C574 C575 1.386 . S
C574 H597 0.929 . S
C575 C574 1.386 . S
C575 C576 1.373 . S
C576 C575 1.373 . S
C576 C577 1.409 . S
C576 H598 0.931 . S
C577 C572 1.356 . S
C577 C576 1.409 . S
C577 H599 0.930 . S
C578 O588 1.270 . S
C578 O589 1.248 . S
C579 O590 1.267 . S
C579 O591 1.278 . S
O580 Pr560 2.562 . S
O580 C562 1.254 . S
O581 Pr560 2.490 . S
O581 C562 1.225 . S
O582 Pr560 2.695 . S
O582 Pr561 2.436 . S
O582 C569 1.270 . S
O583 Pr560 2.512 . S
O583 C569 1.248 . S
O584 Pr561 2.438 . S
O584 C570 1.267 . S
O585 Pr560 2.437 . S
O585 C570 1.278 . S
O586 Pr561 2.562 . S
O586 C571 1.254 . S
O587 Pr561 2.490 . S
O587 C571 1.225 . S
O588 Pr560 2.436 . S
O588 Pr561 2.695 . S
O588 C578 1.270 . S
O589 Pr561 2.512 . S
O589 C578 1.248 . S
O590 Pr560 2.438 . S
O590 C579 1.267 . S
O591 Pr561 2.437 . S
O591 C579 1.278 . S
H592 C564 0.929 . S
H593 C565 0.929 . S
H594 C567 0.931 . S
H595 C568 0.930 . S
H596 C573 0.929 . S
H597 C574 0.929 . S
H598 C576 0.931 . S
H599 C577 0.930 . S
Pr600 C602 2.880 . S
Pr600 O620 2.562 . S
Pr600 O621 2.490 . S
Pr600 O622 2.695 . S
Pr600 O623 2.512 . S
Pr600 O625 2.437 . S
Pr600 O628 2.436 . S
Pr600 O630 2.438 . S
Pr601 C611 2.880 . S
Pr601 O622 2.436 . S
Pr601 O624 2.438 . S
Pr601 O626 2.562 . S
Pr601 O627 2.490 . S
Pr601 O628 2.695 . S
Pr601 O629 2.512 . S
Pr601 O631 2.437 . S
C602 Pr600 2.880 . S
C602 C603 1.491 . S
C602 O620 1.254 . S
C602 O621 1.225 . S
C603 C602 1.491 . S
C603 C604 1.392 . S
C603 C608 1.356 . S
C604 C603 1.392 . S
C604 C605 1.368 . S
C604 H632 0.929 . S
C605 C604 1.368 . S
C605 C606 1.386 . S
C605 H633 0.929 . S
C606 C605 1.386 . S
C606 C607 1.373 . S
C607 C606 1.373 . S
C607 C608 1.409 . S
C607 H634 0.931 . S
C608 C603 1.356 . S
C608 C607 1.409 . S
C608 H635 0.930 . S
C609 O622 1.270 . S
C609 O623 1.248 . S
C610 O624 1.267 . S
C610 O625 1.278 . S
C611 Pr601 2.880 . S
C611 C612 1.491 1_545 S
C611 O626 1.254 . S
C611 O627 1.225 . S
C612 C611 1.491 1_565 S
C612 C613 1.392 . S
C612 C617 1.356 . S
C613 C612 1.392 . S
C613 C614 1.368 . S
C613 H636 0.929 . S
C614 C613 1.368 . S
C614 C615 1.386 . S
C614 H637 0.929 . S
C615 C614 1.386 . S
C615 C616 1.373 . S
C616 C615 1.373 . S
C616 C617 1.409 . S
C616 H638 0.931 . S
C617 C612 1.356 . S
C617 C616 1.409 . S
C617 H639 0.930 . S
C618 O628 1.270 . S
C618 O629 1.248 . S
C619 O630 1.267 . S
C619 O631 1.278 . S
O620 Pr600 2.562 . S
O620 C602 1.254 . S
O621 Pr600 2.490 . S
O621 C602 1.225 . S
O622 Pr600 2.695 . S
O622 Pr601 2.436 . S
O622 C609 1.270 . S
O623 Pr600 2.512 . S
O623 C609 1.248 . S
O624 Pr601 2.438 . S
O624 C610 1.267 . S
O625 Pr600 2.437 . S
O625 C610 1.278 . S
O626 Pr601 2.562 . S
O626 C611 1.254 . S
O627 Pr601 2.490 . S
O627 C611 1.225 . S
O628 Pr600 2.436 . S
O628 Pr601 2.695 . S
O628 C618 1.270 . S
O629 Pr601 2.512 . S
O629 C618 1.248 . S
O630 Pr600 2.438 . S
O630 C619 1.267 . S
O631 Pr601 2.437 . S
O631 C619 1.278 . S
H632 C604 0.929 . S
H633 C605 0.929 . S
H634 C607 0.931 . S
H635 C608 0.930 . S
H636 C613 0.929 . S
H637 C614 0.929 . S
H638 C616 0.931 . S
H639 C617 0.930 . S
Pr640 C642 2.880 . S
Pr640 O660 2.562 . S
Pr640 O661 2.490 . S
Pr640 O662 2.695 . S
Pr640 O663 2.512 . S
Pr640 O665 2.437 . S
Pr640 O668 2.436 . S
Pr640 O670 2.438 . S
Pr641 C651 2.880 1_655 S
Pr641 O662 2.436 . S
Pr641 O664 2.438 . S
Pr641 O666 2.562 1_655 S
Pr641 O667 2.490 1_655 S
Pr641 O668 2.695 . S
Pr641 O669 2.512 . S
Pr641 O671 2.437 . S
C642 Pr640 2.880 . S
C642 C643 1.491 . S
C642 O660 1.254 . S
C642 O661 1.225 . S
C643 C642 1.491 . S
C643 C644 1.392 . S
C643 C648 1.356 . S
C644 C643 1.392 . S
C644 C645 1.368 . S
C644 H672 0.929 . S
C645 C644 1.368 . S
C645 C646 1.386 . S
C645 H673 0.929 . S
C646 C645 1.386 . S
C646 C647 1.373 . S
C647 C646 1.373 . S
C647 C648 1.409 . S
C647 H674 0.931 . S
C648 C643 1.356 . S
C648 C647 1.409 . S
C648 H675 0.930 . S
C649 O662 1.270 . S
C649 O663 1.248 . S
C650 O664 1.267 . S
C650 O665 1.278 . S
C651 Pr641 2.880 1_455 S
C651 C652 1.491 . S
C651 O666 1.254 . S
C651 O667 1.225 . S
C652 C651 1.491 . S
C652 C653 1.392 . S
C652 C657 1.356 . S
C653 C652 1.392 . S
C653 C654 1.368 . S
C653 H676 0.929 . S
C654 C653 1.368 . S
C654 C655 1.386 . S
C654 H677 0.929 . S
C655 C654 1.386 . S
C655 C656 1.373 . S
C656 C655 1.373 . S
C656 C657 1.409 . S
C656 H678 0.931 . S
C657 C652 1.356 . S
C657 C656 1.409 . S
C657 H679 0.930 . S
C658 O668 1.270 . S
C658 O669 1.248 . S
C659 O670 1.267 . S
C659 O671 1.278 . S
O660 Pr640 2.562 . S
O660 C642 1.254 . S
O661 Pr640 2.490 . S
O661 C642 1.225 . S
O662 Pr640 2.695 . S
O662 Pr641 2.436 . S
O662 C649 1.270 . S
O663 Pr640 2.512 . S
O663 C649 1.248 . S
O664 Pr641 2.438 . S
O664 C650 1.267 . S
O665 Pr640 2.437 . S
O665 C650 1.278 . S
O666 Pr641 2.562 1_455 S
O666 C651 1.254 . S
O667 Pr641 2.490 1_455 S
O667 C651 1.225 . S
O668 Pr640 2.436 . S
O668 Pr641 2.695 . S
O668 C658 1.270 . S
O669 Pr641 2.512 . S
O669 C658 1.248 . S
O670 Pr640 2.438 . S
O670 C659 1.267 . S
O671 Pr641 2.437 . S
O671 C659 1.278 . S
H672 C644 0.929 . S
H673 C645 0.929 . S
H674 C647 0.931 . S
H675 C648 0.930 . S
H676 C653 0.929 . S
H677 C654 0.929 . S
H678 C656 0.931 . S
H679 C657 0.930 . S
Pr680 C682 2.880 . S
Pr680 O700 2.562 . S
Pr680 O701 2.490 . S
Pr680 O702 2.695 . S
Pr680 O703 2.512 . S
Pr680 O705 2.437 . S
Pr680 O708 2.436 . S
Pr680 O710 2.438 . S
Pr681 C691 2.880 . S
Pr681 O702 2.436 . S
Pr681 O704 2.438 . S
Pr681 O706 2.562 . S
Pr681 O707 2.490 . S
Pr681 O708 2.695 . S
Pr681 O709 2.512 . S
Pr681 O711 2.437 . S
C682 Pr680 2.880 . S
C682 C683 1.491 . S
C682 O700 1.254 . S
C682 O701 1.225 . S
C683 C682 1.491 . S
C683 C684 1.392 . S
C683 C688 1.356 . S
C684 C683 1.392 . S
C684 C685 1.368 . S
C684 H712 0.929 . S
C685 C684 1.368 . S
C685 C686 1.386 . S
C685 H713 0.929 . S
C686 C685 1.386 . S
C686 C687 1.373 . S
C687 C686 1.373 . S
C687 C688 1.409 . S
C687 H714 0.931 . S
C688 C683 1.356 . S
C688 C687 1.409 . S
C688 H715 0.930 . S
C689 O702 1.270 . S
C689 O703 1.248 . S
C690 O704 1.267 . S
C690 O705 1.278 . S
C691 Pr681 2.880 . S
C691 C692 1.491 . S
C691 O706 1.254 . S
C691 O707 1.225 . S
C692 C691 1.491 . S
C692 C693 1.392 . S
C692 C697 1.356 . S
C693 C692 1.392 . S
C693 C694 1.368 . S
C693 H716 0.929 . S
C694 C693 1.368 . S
C694 C695 1.386 . S
C694 H717 0.929 . S
C695 C694 1.386 . S
C695 C696 1.373 . S
C696 C695 1.373 . S
C696 C697 1.409 . S
C696 H718 0.931 . S
C697 C692 1.356 . S
C697 C696 1.409 . S
C697 H719 0.930 . S
C698 O708 1.270 . S
C698 O709 1.248 . S
C699 O710 1.267 . S
C699 O711 1.278 . S
O700 Pr680 2.562 . S
O700 C682 1.254 . S
O701 Pr680 2.490 . S
O701 C682 1.225 . S
O702 Pr680 2.695 . S
O702 Pr681 2.436 . S
O702 C689 1.270 . S
O703 Pr680 2.512 . S
O703 C689 1.248 . S
O704 Pr681 2.438 . S
O704 C690 1.267 . S
O705 Pr680 2.437 . S
O705 C690 1.278 . S
O706 Pr681 2.562 . S
O706 C691 1.254 . S
O707 Pr681 2.490 . S
O707 C691 1.225 . S
O708 Pr680 2.436 . S
O708 Pr681 2.695 . S
O708 C698 1.270 . S
O709 Pr681 2.512 . S
O709 C698 1.248 . S
O710 Pr680 2.438 . S
O710 C699 1.267 . S
O711 Pr681 2.437 . S
O711 C699 1.278 . S
H712 C684 0.929 . S
H713 C685 0.929 . S
H714 C687 0.931 . S
H715 C688 0.930 . S
H716 C693 0.929 . S
H717 C694 0.929 . S
H718 C696 0.931 . S
H719 C697 0.930 . S
C720 C721 1.363 . S
C720 C726 1.379 . S
C720 N728 1.356 . S
C721 C720 1.363 . S
C721 C727 1.363 . S
C722 C723 1.363 . S
C722 C727 1.379 . S
C722 N729 1.356 . S
C723 C722 1.363 . S
C723 C726 1.363 . S
N724 C726 1.356 . S
N724 H736 0.984 . S
N724 H737 0.985 . S
N725 C727 1.356 . S
N725 H730 0.984 . S
N725 H731 0.985 . S
C726 C720 1.379 . S
C726 C723 1.363 . S
C726 N724 1.356 . S
C727 C721 1.363 . S
C727 C722 1.379 . S
C727 N725 1.356 . S
N728 C720 1.356 . S
N728 H734 0.984 . S
N728 H735 0.984 . S
N729 C722 1.356 . S
N729 H732 0.984 . S
N729 H733 0.985 . S
H730 N725 0.984 . S
H731 N725 0.985 . S
H732 N729 0.984 . S
H733 N729 0.985 . S
H734 N728 0.984 . S
H735 N728 0.984 . S
H736 N724 0.984 . S
H737 N724 0.985 . S
C738 C739 1.363 . S
C738 C744 1.379 . S
C738 N746 1.356 . S
C739 C738 1.363 . S
C739 C745 1.363 . S
C740 C741 1.363 . S
C740 C745 1.379 . S
C740 N747 1.356 . S
C741 C740 1.363 . S
C741 C744 1.363 . S
N742 C744 1.356 . S
N742 H754 0.984 . S
N742 H755 0.985 . S
N743 C745 1.356 . S
N743 H748 0.984 . S
N743 H749 0.985 . S
C744 C738 1.379 . S
C744 C741 1.363 . S
C744 N742 1.356 . S
C745 C739 1.363 . S
C745 C740 1.379 . S
C745 N743 1.356 . S
N746 C738 1.356 . S
N746 H752 0.984 . S
N746 H753 0.984 . S
N747 C740 1.356 . S
N747 H750 0.984 . S
N747 H751 0.985 . S
H748 N743 0.984 . S
H749 N743 0.985 . S
H750 N747 0.984 . S
H751 N747 0.985 . S
H752 N746 0.984 . S
H753 N746 0.984 . S
H754 N742 0.984 . S
H755 N742 0.985 . S
C756 C757 1.363 . S
C756 C762 1.379 . S
C756 N764 1.356 . S
C757 C756 1.363 . S
C757 C763 1.363 . S
C758 C759 1.363 . S
C758 C763 1.379 . S
C758 N765 1.356 . S
C759 C758 1.363 . S
C759 C762 1.363 . S
N760 C762 1.356 . S
N760 H772 0.984 . S
N760 H773 0.985 . S
N761 C763 1.356 . S
N761 H766 0.984 . S
N761 H767 0.985 . S
C762 C756 1.379 . S
C762 C759 1.363 . S
C762 N760 1.356 . S
C763 C757 1.363 . S
C763 C758 1.379 . S
C763 N761 1.356 . S
N764 C756 1.356 . S
N764 H770 0.984 . S
N764 H771 0.984 . S
N765 C758 1.356 . S
N765 H768 0.984 . S
N765 H769 0.985 . S
H766 N761 0.984 . S
H767 N761 0.985 . S
H768 N765 0.984 . S
H769 N765 0.985 . S
H770 N764 0.984 . S
H771 N764 0.984 . S
H772 N760 0.984 . S
H773 N760 0.985 . S
C774 C775 1.363 . S
C774 C780 1.379 . S
C774 N782 1.356 . S
C775 C774 1.363 . S
C775 C781 1.363 . S
C776 C777 1.363 . S
C776 C781 1.379 . S
C776 N783 1.356 . S
C777 C776 1.363 . S
C777 C780 1.363 . S
N778 C780 1.356 . S
N778 H790 0.984 . S
N778 H791 0.985 . S
N779 C781 1.356 . S
N779 H784 0.984 . S
N779 H785 0.985 . S
C780 C774 1.379 . S
C780 C777 1.363 . S
C780 N778 1.356 . S
C781 C775 1.363 . S
C781 C776 1.379 . S
C781 N779 1.356 . S
N782 C774 1.356 . S
N782 H788 0.984 . S
N782 H789 0.984 . S
N783 C776 1.356 . S
N783 H786 0.984 . S
N783 H787 0.985 . S
H784 N779 0.984 . S
H785 N779 0.985 . S
H786 N783 0.984 . S
H787 N783 0.985 . S
H788 N782 0.984 . S
H789 N782 0.984 . S
H790 N778 0.984 . S
H791 N778 0.985 . S
C792 C793 1.363 . S
C792 C798 1.379 . S
C792 N800 1.356 . S
C793 C792 1.363 . S
C793 C799 1.363 . S
C794 C795 1.363 . S
C794 C799 1.379 . S
C794 N801 1.356 . S
C795 C794 1.363 . S
C795 C798 1.363 . S
N796 C798 1.356 . S
N796 H808 0.984 . S
N796 H809 0.985 . S
N797 C799 1.356 . S
N797 H802 0.984 . S
N797 H803 0.985 . S
C798 C792 1.379 . S
C798 C795 1.363 . S
C798 N796 1.356 . S
C799 C793 1.363 . S
C799 C794 1.379 . S
C799 N797 1.356 . S
N800 C792 1.356 . S
N800 H806 0.984 . S
N800 H807 0.984 . S
N801 C794 1.356 . S
N801 H804 0.984 . S
N801 H805 0.985 . S
H802 N797 0.984 . S
H803 N797 0.985 . S
H804 N801 0.984 . S
H805 N801 0.985 . S
H806 N800 0.984 . S
H807 N800 0.984 . S
H808 N796 0.984 . S
H809 N796 0.985 . S
C810 C811 1.363 . S
C810 C816 1.379 . S
C810 N818 1.356 . S
C811 C810 1.363 . S
C811 C817 1.363 . S
C812 C813 1.363 . S
C812 C817 1.379 . S
C812 N819 1.356 . S
C813 C812 1.363 . S
C813 C816 1.363 . S
N814 C816 1.356 . S
N814 H826 0.984 . S
N814 H827 0.985 . S
N815 C817 1.356 . S
N815 H820 0.984 . S
N815 H821 0.985 . S
C816 C810 1.379 . S
C816 C813 1.363 . S
C816 N814 1.356 . S
C817 C811 1.363 . S
C817 C812 1.379 . S
C817 N815 1.356 . S
N818 C810 1.356 . S
N818 H824 0.984 . S
N818 H825 0.984 . S
N819 C812 1.356 . S
N819 H822 0.984 . S
N819 H823 0.985 . S
H820 N815 0.984 . S
H821 N815 0.985 . S
H822 N819 0.984 . S
H823 N819 0.985 . S
H824 N818 0.984 . S
H825 N818 0.984 . S
H826 N814 0.984 . S
H827 N814 0.985 . S
C828 C829 1.363 . S
C828 C834 1.379 . S
C828 N836 1.356 . S
C829 C828 1.363 . S
C829 C835 1.363 . S
C830 C831 1.363 . S
C830 C835 1.379 . S
C830 N837 1.356 . S
C831 C830 1.363 . S
C831 C834 1.363 . S
N832 C834 1.356 . S
N832 H844 0.984 . S
N832 H845 0.985 . S
N833 C835 1.356 . S
N833 H838 0.984 . S
N833 H839 0.985 . S
C834 C828 1.379 . S
C834 C831 1.363 . S
C834 N832 1.356 . S
C835 C829 1.363 . S
C835 C830 1.379 . S
C835 N833 1.356 . S
N836 C828 1.356 . S
N836 H842 0.984 . S
N836 H843 0.984 . S
N837 C830 1.356 . S
N837 H840 0.984 . S
N837 H841 0.985 . S
H838 N833 0.984 . S
H839 N833 0.985 . S
H840 N837 0.984 . S
H841 N837 0.985 . S
H842 N836 0.984 . S
H843 N836 0.984 . S
H844 N832 0.984 . S
H845 N832 0.985 . S
C846 C847 1.363 . S
C846 C852 1.379 1_545 S
C846 N854 1.356 . S
C847 C846 1.363 . S
C847 C853 1.363 . S
C848 C849 1.363 . S
C848 C853 1.379 1_565 S
C848 N855 1.356 . S
C849 C848 1.363 . S
C849 C852 1.363 . S
N850 C852 1.356 . S
N850 H862 0.984 . S
N850 H863 0.985 . S
N851 C853 1.356 . S
N851 H856 0.984 . S
N851 H857 0.985 . S
C852 C846 1.379 1_565 S
C852 C849 1.363 . S
C852 N850 1.356 . S
C853 C847 1.363 . S
C853 C848 1.379 1_545 S
C853 N851 1.356 . S
N854 C846 1.356 . S
N854 H860 0.984 . S
N854 H861 0.984 . S
N855 C848 1.356 . S
N855 H858 0.984 . S
N855 H859 0.985 . S
H856 N851 0.984 . S
H857 N851 0.985 . S
H858 N855 0.984 . S
H859 N855 0.985 . S
H860 N854 0.984 . S
H861 N854 0.984 . S
H862 N850 0.984 . S
H863 N850 0.985 . S
C864 C865 1.363 . S
C864 C870 1.379 . S
C864 N872 1.356 . S
C865 C864 1.363 . S
C865 C871 1.363 . S
C866 C867 1.363 1_455 S
C866 C871 1.379 . S
C866 N873 1.356 . S
C867 C866 1.363 1_655 S
C867 C870 1.363 1_655 S
N868 C870 1.356 1_655 S
N868 H880 0.984 . S
N868 H881 0.985 . S
N869 C871 1.356 . S
N869 H874 0.984 . S
N869 H875 0.985 . S
C870 C864 1.379 . S
C870 C867 1.363 1_455 S
C870 N868 1.356 1_455 S
C871 C865 1.363 . S
C871 C866 1.379 . S
C871 N869 1.356 . S
N872 C864 1.356 . S
N872 H878 0.984 . S
N872 H879 0.984 . S
N873 C866 1.356 . S
N873 H876 0.984 1_455 S
N873 H877 0.985 . S
H874 N869 0.984 . S
H875 N869 0.985 . S
H876 N873 0.984 1_655 S
H877 N873 0.985 . S
H878 N872 0.984 . S
H879 N872 0.984 . S
H880 N868 0.984 . S
H881 N868 0.985 . S
C882 C883 1.363 . S
C882 C888 1.379 . S
C882 N890 1.356 . S
C883 C882 1.363 . S
C883 C889 1.363 . S
C884 C885 1.363 . S
C884 C889 1.379 . S
C884 N891 1.356 . S
C885 C884 1.363 . S
C885 C888 1.363 . S
N886 C888 1.356 . S
N886 H898 0.984 . S
N886 H899 0.985 . S
N887 C889 1.356 . S
N887 H892 0.984 . S
N887 H893 0.985 . S
C888 C882 1.379 . S
C888 C885 1.363 . S
C888 N886 1.356 . S
C889 C883 1.363 . S
C889 C884 1.379 . S
C889 N887 1.356 . S
N890 C882 1.356 . S
N890 H896 0.984 . S
N890 H897 0.984 . S
N891 C884 1.356 . S
N891 H894 0.984 . S
N891 H895 0.985 . S
H892 N887 0.984 . S
H893 N887 0.985 . S
H894 N891 0.984 . S
H895 N891 0.985 . S
H896 N890 0.984 . S
H897 N890 0.984 . S
H898 N886 0.984 . S
H899 N886 0.985 . S
C900 C901 1.363 . S
C900 C906 1.379 . S
C900 N908 1.356 . S
C901 C900 1.363 . S
C901 C907 1.363 . S
C902 C903 1.363 . S
C902 C907 1.379 . S
C902 N909 1.356 . S
C903 C902 1.363 . S
C903 C906 1.363 . S
N904 C906 1.356 . S
N904 H916 0.984 . S
N904 H917 0.985 . S
N905 C907 1.356 . S
N905 H910 0.984 . S
N905 H911 0.985 . S
C906 C900 1.379 . S
C906 C903 1.363 . S
C906 N904 1.356 . S
C907 C901 1.363 . S
C907 C902 1.379 . S
C907 N905 1.356 . S
N908 C900 1.356 . S
N908 H914 0.984 . S
N908 H915 0.984 . S
N909 C902 1.356 . S
N909 H912 0.984 . S
N909 H913 0.985 . S
H910 N905 0.984 . S
H911 N905 0.985 . S
H912 N909 0.984 . S
H913 N909 0.985 . S
H914 N908 0.984 . S
H915 N908 0.984 . S
H916 N904 0.984 . S
H917 N904 0.985 . S
C918 C919 1.363 . S
C918 C924 1.379 . S
C918 N926 1.356 . S
C919 C918 1.363 . S
C919 C925 1.363 . S
C920 C921 1.363 . S
C920 C925 1.379 . S
C920 N927 1.356 . S
C921 C920 1.363 . S
C921 C924 1.363 . S
N922 C924 1.356 . S
N922 H934 0.984 . S
N922 H935 0.985 . S
N923 C925 1.356 . S
N923 H928 0.984 . S
N923 H929 0.985 . S
C924 C918 1.379 . S
C924 C921 1.363 . S
C924 N922 1.356 . S
C925 C919 1.363 . S
C925 C920 1.379 . S
C925 N923 1.356 . S
N926 C918 1.356 . S
N926 H932 0.984 . S
N926 H933 0.984 . S
N927 C920 1.356 . S
N927 H930 0.984 . S
N927 H931 0.985 . S
H928 N923 0.984 . S
H929 N923 0.985 . S
H930 N927 0.984 . S
H931 N927 0.985 . S
H932 N926 0.984 . S
H933 N926 0.984 . S
H934 N922 0.984 . S
H935 N922 0.985 . S
C936 C937 1.363 . S
C936 C942 1.379 . S
C936 N944 1.356 . S
C937 C936 1.363 . S
C937 C943 1.363 . S
C938 C939 1.363 . S
C938 C943 1.379 . S
C938 N945 1.356 . S
C939 C938 1.363 . S
C939 C942 1.363 . S
N940 C942 1.356 . S
N940 H952 0.984 . S
N940 H953 0.985 . S
N941 C943 1.356 . S
N941 H946 0.984 . S
N941 H947 0.985 . S
C942 C936 1.379 . S
C942 C939 1.363 . S
C942 N940 1.356 . S
C943 C937 1.363 . S
C943 C938 1.379 . S
C943 N941 1.356 . S
N944 C936 1.356 . S
N944 H950 0.984 . S
N944 H951 0.984 . S
N945 C938 1.356 . S
N945 H948 0.984 . S
N945 H949 0.985 . S
H946 N941 0.984 . S
H947 N941 0.985 . S
H948 N945 0.984 . S
H949 N945 0.985 . S
H950 N944 0.984 . S
H951 N944 0.984 . S
H952 N940 0.984 . S
H953 N940 0.985 . S
C954 C955 1.363 . S
C954 C960 1.379 . S
C954 N962 1.356 . S
C955 C954 1.363 . S
C955 C961 1.363 . S
C956 C957 1.363 . S
C956 C961 1.379 . S
C956 N963 1.356 . S
C957 C956 1.363 . S
C957 C960 1.363 . S
N958 C960 1.356 . S
N958 H970 0.984 . S
N958 H971 0.985 . S
N959 C961 1.356 . S
N959 H964 0.984 . S
N959 H965 0.985 . S
C960 C954 1.379 . S
C960 C957 1.363 . S
C960 N958 1.356 . S
C961 C955 1.363 . S
C961 C956 1.379 . S
C961 N959 1.356 . S
N962 C954 1.356 . S
N962 H968 0.984 . S
N962 H969 0.984 . S
N963 C956 1.356 . S
N963 H966 0.984 . S
N963 H967 0.985 . S
H964 N959 0.984 . S
H965 N959 0.985 . S
H966 N963 0.984 . S
H967 N963 0.985 . S
H968 N962 0.984 . S
H969 N962 0.984 . S
H970 N958 0.984 . S
H971 N958 0.985 . S
C972 C973 1.363 . S
C972 C978 1.379 . S
C972 N980 1.356 . S
C973 C972 1.363 . S
C973 C979 1.363 . S
C974 C975 1.363 . S
C974 C979 1.379 . S
C974 N981 1.356 . S
C975 C974 1.363 . S
C975 C978 1.363 . S
N976 C978 1.356 . S
N976 H988 0.984 . S
N976 H989 0.985 . S
N977 C979 1.356 . S
N977 H982 0.984 . S
N977 H983 0.985 . S
C978 C972 1.379 . S
C978 C975 1.363 . S
C978 N976 1.356 . S
C979 C973 1.363 . S
C979 C974 1.379 . S
C979 N977 1.356 . S
N980 C972 1.356 . S
N980 H986 0.984 . S
N980 H987 0.984 . S
N981 C974 1.356 . S
N981 H984 0.984 . S
N981 H985 0.985 . S
H982 N977 0.984 . S
H983 N977 0.985 . S
H984 N981 0.984 . S
H985 N981 0.985 . S
H986 N980 0.984 . S
H987 N980 0.984 . S
H988 N976 0.984 . S
H989 N976 0.985 . S
C990 C991 1.363 . S
C990 C996 1.379 . S
C990 N998 1.356 . S
C991 C990 1.363 . S
C991 C997 1.363 . S
C992 C993 1.363 . S
C992 C997 1.379 . S
C992 N999 1.356 . S
C993 C992 1.363 . S
C993 C996 1.363 . S
N994 C996 1.356 . S
N994 H1006 0.984 . S
N994 H1007 0.985 . S
N995 C997 1.356 . S
N995 H1000 0.984 . S
N995 H1001 0.985 . S
C996 C990 1.379 . S
C996 C993 1.363 . S
C996 N994 1.356 . S
C997 C991 1.363 . S
C997 C992 1.379 . S
C997 N995 1.356 . S
N998 C990 1.356 . S
N998 H1004 0.984 . S
N998 H1005 0.984 . S
N999 C992 1.356 . S
N999 H1002 0.984 . S
N999 H1003 0.985 . S
H1000 N995 0.984 . S
H1001 N995 0.985 . S
H1002 N999 0.984 . S
H1003 N999 0.985 . S
H1004 N998 0.984 . S
H1005 N998 0.984 . S
H1006 N994 0.984 . S
H1007 N994 0.985 . S
C1008 C1009 1.363 1_545 S
C1008 C1014 1.379 . S
C1008 N1016 1.356 1_545 S
C1009 C1008 1.363 1_565 S
C1009 C1015 1.363 1_565 S
C1010 C1011 1.363 . S
C1010 C1015 1.379 . S
C1010 N1017 1.356 . S
C1011 C1010 1.363 . S
C1011 C1014 1.363 . S
N1012 C1014 1.356 . S
N1012 H1024 0.984 . S
N1012 H1025 0.985 . S
N1013 C1015 1.356 . S
N1013 H1018 0.984 1_545 S
N1013 H1019 0.985 . S
C1014 C1008 1.379 . S
C1014 C1011 1.363 . S
C1014 N1012 1.356 . S
C1015 C1009 1.363 1_545 S
C1015 C1010 1.379 . S
C1015 N1013 1.356 . S
N1016 C1008 1.356 1_565 S
N1016 H1022 0.984 . S
N1016 H1023 0.984 . S
N1017 C1010 1.356 . S
N1017 H1020 0.984 . S
N1017 H1021 0.985 . S
H1018 N1013 0.984 1_565 S
H1019 N1013 0.985 . S
H1020 N1017 0.984 . S
H1021 N1017 0.985 . S
H1022 N1016 0.984 . S
H1023 N1016 0.984 . S
H1024 N1012 0.984 . S
H1025 N1012 0.985 . S
C1026 C1027 1.363 . S
C1026 C1032 1.379 1_455 S
C1026 N1034 1.356 . S
C1027 C1026 1.363 . S
C1027 C1033 1.363 . S
C1028 C1029 1.363 . S
C1028 C1033 1.379 1_655 S
C1028 N1035 1.356 . S
C1029 C1028 1.363 . S
C1029 C1032 1.363 . S
N1030 C1032 1.356 . S
N1030 H1042 0.984 . S
N1030 H1043 0.985 . S
N1031 C1033 1.356 . S
N1031 H1036 0.984 . S
N1031 H1037 0.985 . S
C1032 C1026 1.379 1_655 S
C1032 C1029 1.363 . S
C1032 N1030 1.356 . S
C1033 C1027 1.363 . S
C1033 C1028 1.379 1_455 S
C1033 N1031 1.356 . S
N1034 C1026 1.356 . S
N1034 H1040 0.984 . S
N1034 H1041 0.984 . S
N1035 C1028 1.356 . S
N1035 H1038 0.984 . S
N1035 H1039 0.985 . S
H1036 N1031 0.984 . S
H1037 N1031 0.985 . S
H1038 N1035 0.984 . S
H1039 N1035 0.985 . S
H1040 N1034 0.984 . S
H1041 N1034 0.984 . S
H1042 N1030 0.984 . S
H1043 N1030 0.985 . S
C1044 C1045 1.363 1_565 S
C1044 C1050 1.379 1_554 S
C1044 N1052 1.356 . S
C1045 C1044 1.363 1_545 S
C1045 C1051 1.363 . S
C1046 C1047 1.363 . S
C1046 C1051 1.379 1_556 S
C1046 N1053 1.356 . S
C1047 C1046 1.363 . S
C1047 C1050 1.363 1_545 S
N1048 C1050 1.356 . S
N1048 H1060 0.984 . S
N1048 H1061 0.985 . S
N1049 C1051 1.356 . S
N1049 H1054 0.984 . S
N1049 H1055 0.985 . S
C1050 C1044 1.379 1_556 S
C1050 C1047 1.363 1_565 S
C1050 N1048 1.356 . S
C1051 C1045 1.363 . S
C1051 C1046 1.379 1_554 S
C1051 N1049 1.356 . S
N1052 C1044 1.356 . S
N1052 H1058 0.984 . S
N1052 H1059 0.984 . S
N1053 C1046 1.356 . S
N1053 H1056 0.984 . S
N1053 H1057 0.985 . S
H1054 N1049 0.984 . S
H1055 N1049 0.985 . S
H1056 N1053 0.984 . S
H1057 N1053 0.985 . S
H1058 N1052 0.984 . S
H1059 N1052 0.984 . S
H1060 N1048 0.984 . S
H1061 N1048 0.985 . S
C1062 C1063 1.363 1_655 S
C1062 C1068 1.379 1_556 S
C1062 N1070 1.356 . S
C1063 C1062 1.363 1_455 S
C1063 C1069 1.363 . S
C1064 C1065 1.363 . S
C1064 C1069 1.379 1_554 S
C1064 N1071 1.356 . S
C1065 C1064 1.363 . S
C1065 C1068 1.363 1_455 S
N1066 C1068 1.356 . S
N1066 H1078 0.984 . S
N1066 H1079 0.985 . S
N1067 C1069 1.356 . S
N1067 H1072 0.984 . S
N1067 H1073 0.985 . S
C1068 C1062 1.379 1_554 S
C1068 C1065 1.363 1_655 S
C1068 N1066 1.356 . S
C1069 C1063 1.363 . S
C1069 C1064 1.379 1_556 S
C1069 N1067 1.356 . S
N1070 C1062 1.356 . S
N1070 H1076 0.984 . S
N1070 H1077 0.984 . S
N1071 C1064 1.356 . S
N1071 H1074 0.984 . S
N1071 H1075 0.985 . S
H1072 N1067 0.984 . S
H1073 N1067 0.985 . S
H1074 N1071 0.984 . S
H1075 N1071 0.985 . S
H1076 N1070 0.984 . S
H1077 N1070 0.984 . S
H1078 N1066 0.984 . S
H1079 N1066 0.985 . S
C1080 C1081 1.363 . S
C1080 C1086 1.379 1_556 S
C1080 N1088 1.356 . S
C1081 C1080 1.363 . S
C1081 C1087 1.363 . S
C1082 C1083 1.363 . S
C1082 C1087 1.379 1_554 S
C1082 N1089 1.356 . S
C1083 C1082 1.363 . S
C1083 C1086 1.363 . S
N1084 C1086 1.356 . S
N1084 H1096 0.984 . S
N1084 H1097 0.985 . S
N1085 C1087 1.356 . S
N1085 H1090 0.984 . S
N1085 H1091 0.985 . S
C1086 C1080 1.379 1_554 S
C1086 C1083 1.363 . S
C1086 N1084 1.356 . S
C1087 C1081 1.363 . S
C1087 C1082 1.379 1_556 S
C1087 N1085 1.356 . S
N1088 C1080 1.356 . S
N1088 H1094 0.984 . S
N1088 H1095 0.984 . S
N1089 C1082 1.356 . S
N1089 H1092 0.984 . S
N1089 H1093 0.985 . S
H1090 N1085 0.984 . S
H1091 N1085 0.985 . S
H1092 N1089 0.984 . S
H1093 N1089 0.985 . S
H1094 N1088 0.984 . S
H1095 N1088 0.984 . S
H1096 N1084 0.984 . S
H1097 N1084 0.985 . S
C1098 C1099 1.363 . S
C1098 C1104 1.379 . S
C1098 N1106 1.356 . S
C1099 C1098 1.363 . S
C1099 C1105 1.363 . S
C1100 C1101 1.363 . S
C1100 C1105 1.379 . S
C1100 N1107 1.356 . S
C1101 C1100 1.363 . S
C1101 C1104 1.363 . S
N1102 C1104 1.356 . S
N1102 H1114 0.984 . S
N1102 H1115 0.985 . S
N1103 C1105 1.356 . S
N1103 H1108 0.984 . S
N1103 H1109 0.985 . S
C1104 C1098 1.379 . S
C1104 C1101 1.363 . S
C1104 N1102 1.356 . S
C1105 C1099 1.363 . S
C1105 C1100 1.379 . S
C1105 N1103 1.356 . S
N1106 C1098 1.356 . S
N1106 H1112 0.984 . S
N1106 H1113 0.984 . S
N1107 C1100 1.356 . S
N1107 H1110 0.984 . S
N1107 H1111 0.985 . S
H1108 N1103 0.984 . S
H1109 N1103 0.985 . S
H1110 N1107 0.984 . S
H1111 N1107 0.985 . S
H1112 N1106 0.984 . S
H1113 N1106 0.984 . S
H1114 N1102 0.984 . S
H1115 N1102 0.985 . S
C1116 C1117 1.363 . S
C1116 C1122 1.379 . S
C1116 N1124 1.356 . S
C1117 C1116 1.363 . S
C1117 C1123 1.363 . S
C1118 C1119 1.363 . S
C1118 C1123 1.379 . S
C1118 N1125 1.356 . S
C1119 C1118 1.363 . S
C1119 C1122 1.363 . S
N1120 C1122 1.356 . S
N1120 H1132 0.984 . S
N1120 H1133 0.985 . S
N1121 C1123 1.356 . S
N1121 H1126 0.984 . S
N1121 H1127 0.985 . S
C1122 C1116 1.379 . S
C1122 C1119 1.363 . S
C1122 N1120 1.356 . S
C1123 C1117 1.363 . S
C1123 C1118 1.379 . S
C1123 N1121 1.356 . S
N1124 C1116 1.356 . S
N1124 H1130 0.984 . S
N1124 H1131 0.984 . S
N1125 C1118 1.356 . S
N1125 H1128 0.984 . S
N1125 H1129 0.985 . S
H1126 N1121 0.984 . S
H1127 N1121 0.985 . S
H1128 N1125 0.984 . S
H1129 N1125 0.985 . S
H1130 N1124 0.984 . S
H1131 N1124 0.984 . S
H1132 N1120 0.984 . S
H1133 N1120 0.985 . S
C1134 C1135 1.363 . S
C1134 C1140 1.379 . S
C1134 N1142 1.356 . S
C1135 C1134 1.363 . S
C1135 C1141 1.363 . S
C1136 C1137 1.363 . S
C1136 C1141 1.379 . S
C1136 N1143 1.356 . S
C1137 C1136 1.363 . S
C1137 C1140 1.363 . S
N1138 C1140 1.356 . S
N1138 H1150 0.984 . S
N1138 H1151 0.985 . S
N1139 C1141 1.356 . S
N1139 H1144 0.984 . S
N1139 H1145 0.985 . S
C1140 C1134 1.379 . S
C1140 C1137 1.363 . S
C1140 N1138 1.356 . S
C1141 C1135 1.363 . S
C1141 C1136 1.379 . S
C1141 N1139 1.356 . S
N1142 C1134 1.356 . S
N1142 H1148 0.984 . S
N1142 H1149 0.984 . S
N1143 C1136 1.356 . S
N1143 H1146 0.984 . S
N1143 H1147 0.985 . S
H1144 N1139 0.984 . S
H1145 N1139 0.985 . S
H1146 N1143 0.984 . S
H1147 N1143 0.985 . S
H1148 N1142 0.984 . S
H1149 N1142 0.984 . S
H1150 N1138 0.984 . S
H1151 N1138 0.985 . S
C1152 C1153 1.363 . S
C1152 C1158 1.379 . S
C1152 N1160 1.356 . S
C1153 C1152 1.363 . S
C1153 C1159 1.363 . S
C1154 C1155 1.363 . S
C1154 C1159 1.379 . S
C1154 N1161 1.356 . S
C1155 C1154 1.363 . S
C1155 C1158 1.363 . S
N1156 C1158 1.356 . S
N1156 H1168 0.984 . S
N1156 H1169 0.985 . S
N1157 C1159 1.356 . S
N1157 H1162 0.984 . S
N1157 H1163 0.985 . S
C1158 C1152 1.379 . S
C1158 C1155 1.363 . S
C1158 N1156 1.356 . S
C1159 C1153 1.363 . S
C1159 C1154 1.379 . S
C1159 N1157 1.356 . S
N1160 C1152 1.356 . S
N1160 H1166 0.984 . S
N1160 H1167 0.984 . S
N1161 C1154 1.356 . S
N1161 H1164 0.984 . S
N1161 H1165 0.985 . S
H1162 N1157 0.984 . S
H1163 N1157 0.985 . S
H1164 N1161 0.984 . S
H1165 N1161 0.985 . S
H1166 N1160 0.984 . S
H1167 N1160 0.984 . S
H1168 N1156 0.984 . S
H1169 N1156 0.985 . S
C1170 C1171 1.363 . S
C1170 C1176 1.379 . S
C1170 N1178 1.356 . S
C1171 C1170 1.363 . S
C1171 C1177 1.363 . S
C1172 C1173 1.363 . S
C1172 C1177 1.379 . S
C1172 N1179 1.356 . S
C1173 C1172 1.363 . S
C1173 C1176 1.363 . S
N1174 C1176 1.356 . S
N1174 H1186 0.984 . S
N1174 H1187 0.985 . S
N1175 C1177 1.356 . S
N1175 H1180 0.984 . S
N1175 H1181 0.985 . S
C1176 C1170 1.379 . S
C1176 C1173 1.363 . S
C1176 N1174 1.356 . S
C1177 C1171 1.363 . S
C1177 C1172 1.379 . S
C1177 N1175 1.356 . S
N1178 C1170 1.356 . S
N1178 H1184 0.984 . S
N1178 H1185 0.984 . S
N1179 C1172 1.356 . S
N1179 H1182 0.984 . S
N1179 H1183 0.985 . S
H1180 N1175 0.984 . S
H1181 N1175 0.985 . S
H1182 N1179 0.984 . S
H1183 N1179 0.985 . S
H1184 N1178 0.984 . S
H1185 N1178 0.984 . S
H1186 N1174 0.984 . S
H1187 N1174 0.985 . S
C1188 C1189 1.363 . S
C1188 C1194 1.379 . S
C1188 N1196 1.356 . S
C1189 C1188 1.363 . S
C1189 C1195 1.363 . S
C1190 C1191 1.363 . S
C1190 C1195 1.379 . S
C1190 N1197 1.356 . S
C1191 C1190 1.363 . S
C1191 C1194 1.363 . S
N1192 C1194 1.356 . S
N1192 H1204 0.984 . S
N1192 H1205 0.985 . S
N1193 C1195 1.356 . S
N1193 H1198 0.984 . S
N1193 H1199 0.985 . S
C1194 C1188 1.379 . S
C1194 C1191 1.363 . S
C1194 N1192 1.356 . S
C1195 C1189 1.363 . S
C1195 C1190 1.379 . S
C1195 N1193 1.356 . S
N1196 C1188 1.356 . S
N1196 H1202 0.984 . S
N1196 H1203 0.984 . S
N1197 C1190 1.356 . S
N1197 H1200 0.984 . S
N1197 H1201 0.985 . S
H1198 N1193 0.984 . S
H1199 N1193 0.985 . S
H1200 N1197 0.984 . S
H1201 N1197 0.985 . S
H1202 N1196 0.984 . S
H1203 N1196 0.984 . S
H1204 N1192 0.984 . S
H1205 N1192 0.985 . S
C1206 C1207 1.363 . S
C1206 C1212 1.379 . S
C1206 N1214 1.356 . S
C1207 C1206 1.363 . S
C1207 C1213 1.363 . S
C1208 C1209 1.363 . S
C1208 C1213 1.379 . S
C1208 N1215 1.356 . S
C1209 C1208 1.363 . S
C1209 C1212 1.363 . S
N1210 C1212 1.356 1_545 S
N1210 H1222 0.984 . S
N1210 H1223 0.985 . S
N1211 C1213 1.356 . S
N1211 H1216 0.984 . S
N1211 H1217 0.985 . S
C1212 C1206 1.379 . S
C1212 C1209 1.363 . S
C1212 N1210 1.356 1_565 S
C1213 C1207 1.363 . S
C1213 C1208 1.379 . S
C1213 N1211 1.356 . S
N1214 C1206 1.356 . S
N1214 H1220 0.984 1_565 S
N1214 H1221 0.984 . S
N1215 C1208 1.356 . S
N1215 H1218 0.984 . S
N1215 H1219 0.985 . S
H1216 N1211 0.984 . S
H1217 N1211 0.985 . S
H1218 N1215 0.984 . S
H1219 N1215 0.985 . S
H1220 N1214 0.984 1_545 S
H1221 N1214 0.984 . S
H1222 N1210 0.984 . S
H1223 N1210 0.985 . S
C1224 C1225 1.363 . S
C1224 C1230 1.379 . S
C1224 N1232 1.356 . S
C1225 C1224 1.363 . S
C1225 C1231 1.363 . S
C1226 C1227 1.363 . S
C1226 C1231 1.379 . S
C1226 N1233 1.356 . S
C1227 C1226 1.363 . S
C1227 C1230 1.363 . S
N1228 C1230 1.356 . S
N1228 H1240 0.984 . S
N1228 H1241 0.985 . S
N1229 C1231 1.356 . S
N1229 H1234 0.984 . S
N1229 H1235 0.985 1_455 S
C1230 C1224 1.379 . S
C1230 C1227 1.363 . S
C1230 N1228 1.356 . S
C1231 C1225 1.363 . S
C1231 C1226 1.379 . S
C1231 N1229 1.356 . S
N1232 C1224 1.356 . S
N1232 H1238 0.984 . S
N1232 H1239 0.984 . S
N1233 C1226 1.356 . S
N1233 H1236 0.984 . S
N1233 H1237 0.985 . S
H1234 N1229 0.984 . S
H1235 N1229 0.985 1_655 S
H1236 N1233 0.984 . S
H1237 N1233 0.985 . S
H1238 N1232 0.984 . S
H1239 N1232 0.984 . S
H1240 N1228 0.984 . S
H1241 N1228 0.985 . S
C1242 C1243 1.363 . S
C1242 C1248 1.379 . S
C1242 N1250 1.356 . S
C1243 C1242 1.363 . S
C1243 C1249 1.363 . S
C1244 C1245 1.363 . S
C1244 C1249 1.379 . S
C1244 N1251 1.356 . S
C1245 C1244 1.363 . S
C1245 C1248 1.363 . S
N1246 C1248 1.356 . S
N1246 H1258 0.984 . S
N1246 H1259 0.985 . S
N1247 C1249 1.356 . S
N1247 H1252 0.984 . S
N1247 H1253 0.985 . S
C1248 C1242 1.379 . S
C1248 C1245 1.363 . S
C1248 N1246 1.356 . S
C1249 C1243 1.363 . S
C1249 C1244 1.379 . S
C1249 N1247 1.356 . S
N1250 C1242 1.356 . S
N1250 H1256 0.984 . S
N1250 H1257 0.984 . S
N1251 C1244 1.356 . S
N1251 H1254 0.984 . S
N1251 H1255 0.985 . S
H1252 N1247 0.984 . S
H1253 N1247 0.985 . S
H1254 N1251 0.984 . S
H1255 N1251 0.985 . S
H1256 N1250 0.984 . S
H1257 N1250 0.984 . S
H1258 N1246 0.984 . S
H1259 N1246 0.985 . S
C1260 C1261 1.363 . S
C1260 C1266 1.379 . S
C1260 N1268 1.356 . S
C1261 C1260 1.363 . S
C1261 C1267 1.363 . S
C1262 C1263 1.363 . S
C1262 C1267 1.379 . S
C1262 N1269 1.356 . S
C1263 C1262 1.363 . S
C1263 C1266 1.363 . S
N1264 C1266 1.356 . S
N1264 H1276 0.984 . S
N1264 H1277 0.985 . S
N1265 C1267 1.356 1_455 S
N1265 H1270 0.984 . S
N1265 H1271 0.985 . S
C1266 C1260 1.379 . S
C1266 C1263 1.363 . S
C1266 N1264 1.356 . S
C1267 C1261 1.363 . S
C1267 C1262 1.379 . S
C1267 N1265 1.356 1_655 S
N1268 C1260 1.356 . S
N1268 H1274 0.984 . S
N1268 H1275 0.984 . S
N1269 C1262 1.356 . S
N1269 H1272 0.984 . S
N1269 H1273 0.985 1_655 S
H1270 N1265 0.984 . S
H1271 N1265 0.985 . S
H1272 N1269 0.984 . S
H1273 N1269 0.985 1_455 S
H1274 N1268 0.984 . S
H1275 N1268 0.984 . S
H1276 N1264 0.984 . S
H1277 N1264 0.985 . S
C1278 C1279 1.363 . S
C1278 C1284 1.379 . S
C1278 N1286 1.356 . S
C1279 C1278 1.363 . S
C1279 C1285 1.363 . S
C1280 C1281 1.363 . S
C1280 C1285 1.379 . S
C1280 N1287 1.356 . S
C1281 C1280 1.363 . S
C1281 C1284 1.363 . S
N1282 C1284 1.356 . S
N1282 H1294 0.984 . S
N1282 H1295 0.985 . S
N1283 C1285 1.356 . S
N1283 H1288 0.984 . S
N1283 H1289 0.985 . S
C1284 C1278 1.379 . S
C1284 C1281 1.363 . S
C1284 N1282 1.356 . S
C1285 C1279 1.363 . S
C1285 C1280 1.379 . S
C1285 N1283 1.356 . S
N1286 C1278 1.356 . S
N1286 H1292 0.984 . S
N1286 H1293 0.984 . S
N1287 C1280 1.356 . S
N1287 H1290 0.984 . S
N1287 H1291 0.985 . S
H1288 N1283 0.984 . S
H1289 N1283 0.985 . S
H1290 N1287 0.984 . S
H1291 N1287 0.985 . S
H1292 N1286 0.984 . S
H1293 N1286 0.984 . S
H1294 N1282 0.984 . S
H1295 N1282 0.985 . S
C1296 C1297 1.363 . S
C1296 C1302 1.379 . S
C1296 N1304 1.356 . S
C1297 C1296 1.363 . S
C1297 C1303 1.363 . S
C1298 C1299 1.363 . S
C1298 C1303 1.379 . S
C1298 N1305 1.356 . S
C1299 C1298 1.363 . S
C1299 C1302 1.363 . S
N1300 C1302 1.356 . S
N1300 H1312 0.984 . S
N1300 H1313 0.985 . S
N1301 C1303 1.356 . S
N1301 H1306 0.984 . S
N1301 H1307 0.985 . S
C1302 C1296 1.379 . S
C1302 C1299 1.363 . S
C1302 N1300 1.356 . S
C1303 C1297 1.363 . S
C1303 C1298 1.379 . S
C1303 N1301 1.356 . S
N1304 C1296 1.356 . S
N1304 H1310 0.984 . S
N1304 H1311 0.984 . S
N1305 C1298 1.356 . S
N1305 H1308 0.984 . S
N1305 H1309 0.985 . S
H1306 N1301 0.984 . S
H1307 N1301 0.985 . S
H1308 N1305 0.984 . S
H1309 N1305 0.985 . S
H1310 N1304 0.984 . S
H1311 N1304 0.984 . S
H1312 N1300 0.984 . S
H1313 N1300 0.985 . S
C1314 C1315 1.363 . S
C1314 C1320 1.379 1_655 S
C1314 N1322 1.356 . S
C1315 C1314 1.363 . S
C1315 C1321 1.363 . S
C1316 C1317 1.363 . S
C1316 C1321 1.379 1_455 S
C1316 N1323 1.356 . S
C1317 C1316 1.363 . S
C1317 C1320 1.363 . S
N1318 C1320 1.356 . S
N1318 H1330 0.984 . S
N1318 H1331 0.985 . S
N1319 C1321 1.356 . S
N1319 H1324 0.984 . S
N1319 H1325 0.985 . S
C1320 C1314 1.379 1_455 S
C1320 C1317 1.363 . S
C1320 N1318 1.356 . S
C1321 C1315 1.363 . S
C1321 C1316 1.379 1_655 S
C1321 N1319 1.356 . S
N1322 C1314 1.356 . S
N1322 H1328 0.984 . S
N1322 H1329 0.984 . S
N1323 C1316 1.356 . S
N1323 H1326 0.984 . S
N1323 H1327 0.985 . S
H1324 N1319 0.984 . S
H1325 N1319 0.985 . S
H1326 N1323 0.984 . S
H1327 N1323 0.985 . S
H1328 N1322 0.984 . S
H1329 N1322 0.984 . S
H1330 N1318 0.984 . S
H1331 N1318 0.985 . S
C1332 C1333 1.363 . S
C1332 C1338 1.379 . S
C1332 N1340 1.356 . S
C1333 C1332 1.363 . S
C1333 C1339 1.363 . S
C1334 C1335 1.363 . S
C1334 C1339 1.379 . S
C1334 N1341 1.356 . S
C1335 C1334 1.363 . S
C1335 C1338 1.363 . S
N1336 C1338 1.356 . S
N1336 H1348 0.984 . S
N1336 H1349 0.985 . S
N1337 C1339 1.356 . S
N1337 H1342 0.984 . S
N1337 H1343 0.985 . S
C1338 C1332 1.379 . S
C1338 C1335 1.363 . S
C1338 N1336 1.356 . S
C1339 C1333 1.363 . S
C1339 C1334 1.379 . S
C1339 N1337 1.356 . S
N1340 C1332 1.356 . S
N1340 H1346 0.984 . S
N1340 H1347 0.984 . S
N1341 C1334 1.356 . S
N1341 H1344 0.984 . S
N1341 H1345 0.985 . S
H1342 N1337 0.984 . S
H1343 N1337 0.985 . S
H1344 N1341 0.984 . S
H1345 N1341 0.985 . S
H1346 N1340 0.984 . S
H1347 N1340 0.984 . S
H1348 N1336 0.984 . S
H1349 N1336 0.985 . S
C1350 C1351 1.363 1_545 S
C1350 C1356 1.379 . S
C1350 N1358 1.356 1_545 S
C1351 C1350 1.363 1_565 S
C1351 C1357 1.363 . S
C1352 C1353 1.363 . S
C1352 C1357 1.379 1_545 S
C1352 N1359 1.356 . S
C1353 C1352 1.363 . S
C1353 C1356 1.363 . S
N1354 C1356 1.356 . S
N1354 H1366 0.984 . S
N1354 H1367 0.985 . S
N1355 C1357 1.356 . S
N1355 H1360 0.984 . S
N1355 H1361 0.985 . S
C1356 C1350 1.379 . S
C1356 C1353 1.363 . S
C1356 N1354 1.356 . S
C1357 C1351 1.363 . S
C1357 C1352 1.379 1_565 S
C1357 N1355 1.356 . S
N1358 C1350 1.356 1_565 S
N1358 H1364 0.984 . S
N1358 H1365 0.984 . S
N1359 C1352 1.356 . S
N1359 H1362 0.984 . S
N1359 H1363 0.985 . S
H1360 N1355 0.984 . S
H1361 N1355 0.985 . S
H1362 N1359 0.984 . S
H1363 N1359 0.985 . S
H1364 N1358 0.984 . S
H1365 N1358 0.984 . S
H1366 N1354 0.984 . S
H1367 N1354 0.985 . S
C1368 C1369 1.363 . S
C1368 C1374 1.379 . S
C1368 N1376 1.356 . S
C1369 C1368 1.363 . S
C1369 C1375 1.363 . S
C1370 C1371 1.363 . S
C1370 C1375 1.379 . S
C1370 N1377 1.356 . S
C1371 C1370 1.363 . S
C1371 C1374 1.363 . S
N1372 C1374 1.356 . S
N1372 H1384 0.984 . S
N1372 H1385 0.985 . S
N1373 C1375 1.356 . S
N1373 H1378 0.984 . S
N1373 H1379 0.985 . S
C1374 C1368 1.379 . S
C1374 C1371 1.363 . S
C1374 N1372 1.356 . S
C1375 C1369 1.363 . S
C1375 C1370 1.379 . S
C1375 N1373 1.356 . S
N1376 C1368 1.356 . S
N1376 H1382 0.984 . S
N1376 H1383 0.984 . S
N1377 C1370 1.356 . S
N1377 H1380 0.984 . S
N1377 H1381 0.985 . S
H1378 N1373 0.984 . S
H1379 N1373 0.985 . S
H1380 N1377 0.984 . S
H1381 N1377 0.985 . S
H1382 N1376 0.984 . S
H1383 N1376 0.984 . S
H1384 N1372 0.984 . S
H1385 N1372 0.985 . S
C1386 C1387 1.363 . S
C1386 C1392 1.379 . S
C1386 N1394 1.356 . S
C1387 C1386 1.363 . S
C1387 C1393 1.363 . S
C1388 C1389 1.363 . S
C1388 C1393 1.379 . S
C1388 N1395 1.356 . S
C1389 C1388 1.363 . S
C1389 C1392 1.363 . S
N1390 C1392 1.356 . S
N1390 H1402 0.984 . S
N1390 H1403 0.985 . S
N1391 C1393 1.356 . S
N1391 H1396 0.984 . S
N1391 H1397 0.985 . S
C1392 C1386 1.379 . S
C1392 C1389 1.363 . S
C1392 N1390 1.356 . S
C1393 C1387 1.363 . S
C1393 C1388 1.379 . S
C1393 N1391 1.356 . S
N1394 C1386 1.356 . S
N1394 H1400 0.984 . S
N1394 H1401 0.984 . S
N1395 C1388 1.356 . S
N1395 H1398 0.984 . S
N1395 H1399 0.985 . S
H1396 N1391 0.984 . S
H1397 N1391 0.985 . S
H1398 N1395 0.984 . S
H1399 N1395 0.985 . S
H1400 N1394 0.984 . S
H1401 N1394 0.984 . S
H1402 N1390 0.984 . S
H1403 N1390 0.985 . S
C1404 C1405 1.363 . S
C1404 C1410 1.379 . S
C1404 N1412 1.356 . S
C1405 C1404 1.363 . S
C1405 C1411 1.363 . S
C1406 C1407 1.363 . S
C1406 C1411 1.379 . S
C1406 N1413 1.356 . S
C1407 C1406 1.363 . S
C1407 C1410 1.363 . S
N1408 C1410 1.356 . S
N1408 H1420 0.984 . S
N1408 H1421 0.985 . S
N1409 C1411 1.356 . S
N1409 H1414 0.984 . S
N1409 H1415 0.985 . S
C1410 C1404 1.379 . S
C1410 C1407 1.363 . S
C1410 N1408 1.356 . S
C1411 C1405 1.363 . S
C1411 C1406 1.379 . S
C1411 N1409 1.356 . S
N1412 C1404 1.356 . S
N1412 H1418 0.984 . S
N1412 H1419 0.984 . S
N1413 C1406 1.356 . S
N1413 H1416 0.984 . S
N1413 H1417 0.985 . S
H1414 N1409 0.984 . S
H1415 N1409 0.985 . S
H1416 N1413 0.984 . S
H1417 N1413 0.985 . S
H1418 N1412 0.984 . S
H1419 N1412 0.984 . S
H1420 N1408 0.984 . S
H1421 N1408 0.985 . S
C1422 C1423 1.363 . S
C1422 C1428 1.379 . S
C1422 N1430 1.356 . S
C1423 C1422 1.363 . S
C1423 C1429 1.363 . S
C1424 C1425 1.363 . S
C1424 C1429 1.379 . S
C1424 N1431 1.356 . S
C1425 C1424 1.363 . S
C1425 C1428 1.363 . S
N1426 C1428 1.356 . S
N1426 H1438 0.984 . S
N1426 H1439 0.985 . S
N1427 C1429 1.356 . S
N1427 H1432 0.984 . S
N1427 H1433 0.985 . S
C1428 C1422 1.379 . S
C1428 C1425 1.363 . S
C1428 N1426 1.356 . S
C1429 C1423 1.363 . S
C1429 C1424 1.379 . S
C1429 N1427 1.356 . S
N1430 C1422 1.356 . S
N1430 H1436 0.984 . S
N1430 H1437 0.984 . S
N1431 C1424 1.356 . S
N1431 H1434 0.984 . S
N1431 H1435 0.985 . S
H1432 N1427 0.984 . S
H1433 N1427 0.985 . S
H1434 N1431 0.984 . S
H1435 N1431 0.985 . S
H1436 N1430 0.984 . S
H1437 N1430 0.984 . S
H1438 N1426 0.984 . S
H1439 N1426 0.985 . S
C1440 C1441 1.363 . S
C1440 C1446 1.379 . S
C1440 N1448 1.356 . S
C1441 C1440 1.363 . S
C1441 C1447 1.363 . S
C1442 C1443 1.363 . S
C1442 C1447 1.379 . S
C1442 N1449 1.356 . S
C1443 C1442 1.363 . S
C1443 C1446 1.363 . S
N1444 C1446 1.356 . S
N1444 H1456 0.984 . S
N1444 H1457 0.985 . S
N1445 C1447 1.356 . S
N1445 H1450 0.984 . S
N1445 H1451 0.985 . S
C1446 C1440 1.379 . S
C1446 C1443 1.363 . S
C1446 N1444 1.356 . S
C1447 C1441 1.363 . S
C1447 C1442 1.379 . S
C1447 N1445 1.356 . S
N1448 C1440 1.356 . S
N1448 H1454 0.984 . S
N1448 H1455 0.984 . S
N1449 C1442 1.356 . S
N1449 H1452 0.984 . S
N1449 H1453 0.985 . S
H1450 N1445 0.984 . S
H1451 N1445 0.985 . S
H1452 N1449 0.984 . S
H1453 N1449 0.985 . S
H1454 N1448 0.984 . S
H1455 N1448 0.984 . S
H1456 N1444 0.984 . S
H1457 N1444 0.985 . S
C1458 C1459 1.363 . S
C1458 C1464 1.379 . S
C1458 N1466 1.356 . S
C1459 C1458 1.363 . S
C1459 C1465 1.363 . S
C1460 C1461 1.363 . S
C1460 C1465 1.379 . S
C1460 N1467 1.356 . S
C1461 C1460 1.363 . S
C1461 C1464 1.363 . S
N1462 C1464 1.356 . S
N1462 H1474 0.984 . S
N1462 H1475 0.985 . S
N1463 C1465 1.356 . S
N1463 H1468 0.984 . S
N1463 H1469 0.985 . S
C1464 C1458 1.379 . S
C1464 C1461 1.363 . S
C1464 N1462 1.356 . S
C1465 C1459 1.363 . S
C1465 C1460 1.379 . S
C1465 N1463 1.356 . S
N1466 C1458 1.356 . S
N1466 H1472 0.984 . S
N1466 H1473 0.984 . S
N1467 C1460 1.356 . S
N1467 H1470 0.984 . S
N1467 H1471 0.985 . S
H1468 N1463 0.984 . S
H1469 N1463 0.985 . S
H1470 N1467 0.984 . S
H1471 N1467 0.985 . S
H1472 N1466 0.984 . S
H1473 N1466 0.984 . S
H1474 N1462 0.984 . S
H1475 N1462 0.985 . S
C1476 C1477 1.363 . S
C1476 C1482 1.379 . S
C1476 N1484 1.356 . S
C1477 C1476 1.363 . S
C1477 C1483 1.363 . S
C1478 C1479 1.363 . S
C1478 C1483 1.379 . S
C1478 N1485 1.356 . S
C1479 C1478 1.363 . S
C1479 C1482 1.363 . S
N1480 C1482 1.356 . S
N1480 H1492 0.984 . S
N1480 H1493 0.985 . S
N1481 C1483 1.356 . S
N1481 H1486 0.984 . S
N1481 H1487 0.985 . S
C1482 C1476 1.379 . S
C1482 C1479 1.363 . S
C1482 N1480 1.356 . S
C1483 C1477 1.363 . S
C1483 C1478 1.379 . S
C1483 N1481 1.356 . S
N1484 C1476 1.356 . S
N1484 H1490 0.984 . S
N1484 H1491 0.984 . S
N1485 C1478 1.356 . S
N1485 H1488 0.984 . S
N1485 H1489 0.985 . S
H1486 N1481 0.984 . S
H1487 N1481 0.985 . S
H1488 N1485 0.984 . S
H1489 N1485 0.985 . S
H1490 N1484 0.984 . S
H1491 N1484 0.984 . S
H1492 N1480 0.984 . S
H1493 N1480 0.985 . S
C1494 C1495 1.363 . S
C1494 C1500 1.379 . S
C1494 N1502 1.356 . S
C1495 C1494 1.363 . S
C1495 C1501 1.363 . S
C1496 C1497 1.363 . S
C1496 C1501 1.379 . S
C1496 N1503 1.356 . S
C1497 C1496 1.363 . S
C1497 C1500 1.363 . S
N1498 C1500 1.356 . S
N1498 H1510 0.984 . S
N1498 H1511 0.985 . S
N1499 C1501 1.356 . S
N1499 H1504 0.984 . S
N1499 H1505 0.985 . S
C1500 C1494 1.379 . S
C1500 C1497 1.363 . S
C1500 N1498 1.356 . S
C1501 C1495 1.363 . S
C1501 C1496 1.379 . S
C1501 N1499 1.356 . S
N1502 C1494 1.356 . S
N1502 H1508 0.984 . S
N1502 H1509 0.984 . S
N1503 C1496 1.356 . S
N1503 H1506 0.984 . S
N1503 H1507 0.985 . S
H1504 N1499 0.984 . S
H1505 N1499 0.985 . S
H1506 N1503 0.984 . S
H1507 N1503 0.985 . S
H1508 N1502 0.984 . S
H1509 N1502 0.984 . S
H1510 N1498 0.984 . S
H1511 N1498 0.985 . S
C1512 C1513 1.363 . S
C1512 C1518 1.379 . S
C1512 N1520 1.356 . S
C1513 C1512 1.363 . S
C1513 C1519 1.363 . S
C1514 C1515 1.363 . S
C1514 C1519 1.379 . S
C1514 N1521 1.356 . S
C1515 C1514 1.363 . S
C1515 C1518 1.363 . S
N1516 C1518 1.356 . S
N1516 H1528 0.984 . S
N1516 H1529 0.985 . S
N1517 C1519 1.356 . S
N1517 H1522 0.984 . S
N1517 H1523 0.985 . S
C1518 C1512 1.379 . S
C1518 C1515 1.363 . S
C1518 N1516 1.356 . S
C1519 C1513 1.363 . S
C1519 C1514 1.379 . S
C1519 N1517 1.356 . S
N1520 C1512 1.356 . S
N1520 H1526 0.984 . S
N1520 H1527 0.984 . S
N1521 C1514 1.356 . S
N1521 H1524 0.984 . S
N1521 H1525 0.985 . S
H1522 N1517 0.984 . S
H1523 N1517 0.985 . S
H1524 N1521 0.984 . S
H1525 N1521 0.985 . S
H1526 N1520 0.984 . S
H1527 N1520 0.984 . S
H1528 N1516 0.984 . S
H1529 N1516 0.985 . S
C1530 C1531 1.363 . S
C1530 C1536 1.379 . S
C1530 N1538 1.356 . S
C1531 C1530 1.363 . S
C1531 C1537 1.363 . S
C1532 C1533 1.363 . S
C1532 C1537 1.379 . S
C1532 N1539 1.356 . S
C1533 C1532 1.363 . S
C1533 C1536 1.363 . S
N1534 C1536 1.356 . S
N1534 H1546 0.984 . S
N1534 H1547 0.985 . S
N1535 C1537 1.356 . S
N1535 H1540 0.984 . S
N1535 H1541 0.985 . S
C1536 C1530 1.379 . S
C1536 C1533 1.363 . S
C1536 N1534 1.356 . S
C1537 C1531 1.363 . S
C1537 C1532 1.379 . S
C1537 N1535 1.356 . S
N1538 C1530 1.356 . S
N1538 H1544 0.984 . S
N1538 H1545 0.984 . S
N1539 C1532 1.356 . S
N1539 H1542 0.984 . S
N1539 H1543 0.985 . S
H1540 N1535 0.984 . S
H1541 N1535 0.985 . S
H1542 N1539 0.984 . S
H1543 N1539 0.985 . S
H1544 N1538 0.984 . S
H1545 N1538 0.984 . S
H1546 N1534 0.984 . S
H1547 N1534 0.985 . S
C1548 C1549 1.363 . S
C1548 C1554 1.379 1_565 S
C1548 N1556 1.356 . S
C1549 C1548 1.363 . S
C1549 C1555 1.363 1_565 S
C1550 C1551 1.363 . S
C1550 C1555 1.379 . S
C1550 N1557 1.356 . S
C1551 C1550 1.363 . S
C1551 C1554 1.363 . S
N1552 C1554 1.356 . S
N1552 H1564 0.984 . S
N1552 H1565 0.985 . S
N1553 C1555 1.356 . S
N1553 H1558 0.984 . S
N1553 H1559 0.985 . S
C1554 C1548 1.379 1_545 S
C1554 C1551 1.363 . S
C1554 N1552 1.356 . S
C1555 C1549 1.363 1_545 S
C1555 C1550 1.379 . S
C1555 N1553 1.356 . S
N1556 C1548 1.356 . S
N1556 H1562 0.984 . S
N1556 H1563 0.984 . S
N1557 C1550 1.356 . S
N1557 H1560 0.984 . S
N1557 H1561 0.985 . S
H1558 N1553 0.984 . S
H1559 N1553 0.985 . S
H1560 N1557 0.984 . S
H1561 N1557 0.985 . S
H1562 N1556 0.984 . S
H1563 N1556 0.984 . S
H1564 N1552 0.984 . S
H1565 N1552 0.985 . S
C1566 C1567 1.363 1_455 S
C1566 C1572 1.379 . S
C1566 N1574 1.356 . S
C1567 C1566 1.363 1_655 S
C1567 C1573 1.363 . S
C1568 C1569 1.347 1_655 S
C1568 C1573 1.382 . S
C1568 N1575 1.358 . S
C1569 C1568 1.347 1_455 S
C1569 C1572 1.363 . S
N1570 C1572 1.356 . S
N1570 H1582 0.984 . S
N1570 H1583 0.985 . S
N1571 C1573 1.356 . S
N1571 H1576 0.984 . S
N1571 H1577 0.985 . S
C1572 C1566 1.379 . S
C1572 C1569 1.363 . S
C1572 N1570 1.356 . S
C1573 C1567 1.363 . S
C1573 C1568 1.382 . S
C1573 N1571 1.356 . S
N1574 C1566 1.356 . S
N1574 H1580 0.984 . S
N1574 H1581 0.984 1_455 S
N1575 C1568 1.358 . S
N1575 H1578 0.978 1_655 S
N1575 H1579 0.999 . S
H1576 N1571 0.984 . S
H1577 N1571 0.985 . S
H1578 N1575 0.978 1_455 S
H1579 N1575 0.999 . S
H1580 N1574 0.984 . S
H1581 N1574 0.984 1_655 S
H1582 N1570 0.984 . S
H1583 N1570 0.985 . S
C1584 C1585 1.363 . S
C1584 C1590 1.379 . S
C1584 N1592 1.356 . S
C1585 C1584 1.363 . S
C1585 C1591 1.363 . S
C1586 C1587 1.363 . S
C1586 C1591 1.379 . S
C1586 N1593 1.356 . S
C1587 C1586 1.363 . S
C1587 C1590 1.363 . S
N1588 C1590 1.356 . S
N1588 H1600 0.984 . S
N1588 H1601 0.985 . S
N1589 C1591 1.356 . S
N1589 H1594 0.984 . S
N1589 H1595 0.985 . S
C1590 C1584 1.379 . S
C1590 C1587 1.363 . S
C1590 N1588 1.356 . S
C1591 C1585 1.363 . S
C1591 C1586 1.379 . S
C1591 N1589 1.356 . S
N1592 C1584 1.356 . S
N1592 H1598 0.984 . S
N1592 H1599 0.984 . S
N1593 C1586 1.356 . S
N1593 H1596 0.984 . S
N1593 H1597 0.985 . S
H1594 N1589 0.984 . S
H1595 N1589 0.985 . S
H1596 N1593 0.984 . S
H1597 N1593 0.985 . S
H1598 N1592 0.984 . S
H1599 N1592 0.984 . S
H1600 N1588 0.984 . S
H1601 N1588 0.985 . S
C1602 C1603 1.363 . S
C1602 C1608 1.379 1_545 S
C1602 N1610 1.356 . S
C1603 C1602 1.363 . S
C1603 C1609 1.363 . S
C1604 C1605 1.363 . S
C1604 C1609 1.379 1_565 S
C1604 N1611 1.356 . S
C1605 C1604 1.363 . S
C1605 C1608 1.363 . S
N1606 C1608 1.356 . S
N1606 H1618 0.984 . S
N1606 H1619 0.985 . S
N1607 C1609 1.356 . S
N1607 H1612 0.984 . S
N1607 H1613 0.985 . S
C1608 C1602 1.379 1_565 S
C1608 C1605 1.363 . S
C1608 N1606 1.356 . S
C1609 C1603 1.363 . S
C1609 C1604 1.379 1_545 S
C1609 N1607 1.356 . S
N1610 C1602 1.356 . S
N1610 H1616 0.984 . S
N1610 H1617 0.984 . S
N1611 C1604 1.356 . S
N1611 H1614 0.984 . S
N1611 H1615 0.985 . S
H1612 N1607 0.984 . S
H1613 N1607 0.985 . S
H1614 N1611 0.984 . S
H1615 N1611 0.985 . S
H1616 N1610 0.984 . S
H1617 N1610 0.984 . S
H1618 N1606 0.984 . S
H1619 N1606 0.985 . S
C1620 C1621 1.363 . S
C1620 C1626 1.379 . S
C1620 N1628 1.356 . S
C1621 C1620 1.363 . S
C1621 C1627 1.363 . S
C1622 C1623 1.363 . S
C1622 C1627 1.379 1_655 S
C1622 N1629 1.356 . S
C1623 C1622 1.363 . S
C1623 C1626 1.363 1_655 S
N1624 C1626 1.356 . S
N1624 H1636 0.984 . S
N1624 H1637 0.985 . S
N1625 C1627 1.355 . S
N1625 H1630 0.988 . S
N1625 H1631 0.982 1_455 S
C1626 C1620 1.379 . S
C1626 C1623 1.363 1_455 S
C1626 N1624 1.356 . S
C1627 C1621 1.363 . S
C1627 C1622 1.379 1_455 S
C1627 N1625 1.355 . S
N1628 C1620 1.356 . S
N1628 H1634 0.984 . S
N1628 H1635 0.984 . S
N1629 C1622 1.356 . S
N1629 H1632 0.984 . S
N1629 H1633 0.985 . S
H1630 N1625 0.988 . S
H1631 N1625 0.982 1_655 S
H1632 N1629 0.984 . S
H1633 N1629 0.985 . S
H1634 N1628 0.984 . S
H1635 N1628 0.984 . S
H1636 N1624 0.984 . S
H1637 N1624 0.985 . S
C1638 C1639 1.363 . S
C1638 C1644 1.379 . S
C1638 N1646 1.356 . S
C1639 C1638 1.363 . S
C1639 C1645 1.363 . S
C1640 C1641 1.363 . S
C1640 C1645 1.379 . S
C1640 N1647 1.356 . S
C1641 C1640 1.363 . S
C1641 C1644 1.363 . S
N1642 C1644 1.356 . S
N1642 H1654 0.984 . S
N1642 H1655 0.985 . S
N1643 C1645 1.356 . S
N1643 H1648 0.984 . S
N1643 H1649 0.985 . S
C1644 C1638 1.379 . S
C1644 C1641 1.363 . S
C1644 N1642 1.356 . S
C1645 C1639 1.363 . S
C1645 C1640 1.379 . S
C1645 N1643 1.356 . S
N1646 C1638 1.356 . S
N1646 H1652 0.984 . S
N1646 H1653 0.984 . S
N1647 C1640 1.356 . S
N1647 H1650 0.984 . S
N1647 H1651 0.985 . S
H1648 N1643 0.984 . S
H1649 N1643 0.985 . S
H1650 N1647 0.984 . S
H1651 N1647 0.985 . S
H1652 N1646 0.984 . S
H1653 N1646 0.984 . S
H1654 N1642 0.984 . S
H1655 N1642 0.985 . S
C1656 C1657 1.363 . S
C1656 C1662 1.379 . S
C1656 N1664 1.356 . S
C1657 C1656 1.363 . S
C1657 C1663 1.363 . S
C1658 C1659 1.363 . S
C1658 C1663 1.379 . S
C1658 N1665 1.356 . S
C1659 C1658 1.363 . S
C1659 C1662 1.363 . S
N1660 C1662 1.356 . S
N1660 H1672 0.984 . S
N1660 H1673 0.985 . S
N1661 C1663 1.356 . S
N1661 H1666 0.984 . S
N1661 H1667 0.985 . S
C1662 C1656 1.379 . S
C1662 C1659 1.363 . S
C1662 N1660 1.356 . S
C1663 C1657 1.363 . S
C1663 C1658 1.379 . S
C1663 N1661 1.356 . S
N1664 C1656 1.356 . S
N1664 H1670 0.984 . S
N1664 H1671 0.984 . S
N1665 C1658 1.356 . S
N1665 H1668 0.984 . S
N1665 H1669 0.985 . S
H1666 N1661 0.984 . S
H1667 N1661 0.985 . S
H1668 N1665 0.984 . S
H1669 N1665 0.985 . S
H1670 N1664 0.984 . S
H1671 N1664 0.984 . S
H1672 N1660 0.984 . S
H1673 N1660 0.985 . S
C1674 C1675 1.363 . S
C1674 C1680 1.379 . S
C1674 N1682 1.356 . S
C1675 C1674 1.363 . S
C1675 C1681 1.363 . S
C1676 C1677 1.363 . S
C1676 C1681 1.379 . S
C1676 N1683 1.356 . S
C1677 C1676 1.363 . S
C1677 C1680 1.363 . S
N1678 C1680 1.356 . S
N1678 H1690 0.984 . S
N1678 H1691 0.985 . S
N1679 C1681 1.356 . S
N1679 H1684 0.984 . S
N1679 H1685 0.985 . S
C1680 C1674 1.379 . S
C1680 C1677 1.363 . S
C1680 N1678 1.356 . S
C1681 C1675 1.363 . S
C1681 C1676 1.379 . S
C1681 N1679 1.356 . S
N1682 C1674 1.356 . S
N1682 H1688 0.984 . S
N1682 H1689 0.984 . S
N1683 C1676 1.356 . S
N1683 H1686 0.984 . S
N1683 H1687 0.985 . S
H1684 N1679 0.984 . S
H1685 N1679 0.985 . S
H1686 N1683 0.984 . S
H1687 N1683 0.985 . S
H1688 N1682 0.984 . S
H1689 N1682 0.984 . S
H1690 N1678 0.984 . S
H1691 N1678 0.985 . S
C721 C19 1.330 . S
C723 C95 1.391 . S
C739 C15 1.391 . S
C741 C59 1.330 . S
C757 C55 1.391 . S
C759 C99 1.330 . S
C775 C139 1.330 . S
C777 C175 1.391 . S
C793 C215 1.391 . S
C795 C179 1.330 . S
C811 C219 1.330 . S
C813 C135 1.391 . S
C829 C335 1.391 . S
C831 C259 1.330 . S
C847 C255 1.391 . S
C849 C299 1.330 . S
C865 C339 1.330 . S
C867 C295 1.391 . S
C883 C415 1.391 . S
C885 C379 1.330 . S
C901 C419 1.330 . S
C903 C455 1.391 . S
C919 C375 1.391 . S
C921 C459 1.330 . S
C937 C499 1.330 . S
C939 C575 1.391 . S
C955 C495 1.391 . S
C957 C539 1.330 . S
C973 C535 1.391 . S
C975 C579 1.330 . S
C991 C655 1.391 . S
C993 C619 1.330 . S
C1009 C695 1.391 . S
C1011 C659 1.330 . S
C1027 C615 1.391 . S
C1029 C699 1.330 . S
C1045 C18 1.656 . S
C1047 C218 1.656 . S
C1063 C138 1.656 . S
C1065 C58 1.656 . S
C1081 C178 1.656 . S
C1083 C98 1.656 . S
C1099 C258 1.656 . S
C1101 C458 1.656 . S
C1117 C298 1.656 . S
C1119 C378 1.656 . S
C1135 C418 1.656 . S
C1137 C338 1.656 . S
C1153 C498 1.656 . S
C1155 C698 1.656 . S
C1171 C618 1.656 . S
C1173 C538 1.656 . S
C1189 C658 1.656 . S
C1191 C578 1.656 . S
C1207 C409 2.552 . S
C1209 C9 2.552 1_565 S
C1225 C49 2.552 . S
C1227 C449 2.552 . S
C1243 C369 2.552 . S
C1245 C89 2.552 . S
C1261 C129 2.552 1_655 S
C1263 C569 2.552 . S
C1279 C169 2.552 . S
C1281 C489 2.552 . S
C1297 C529 2.552 . S
C1299 C209 2.552 . S
C1315 C649 2.552 . S
C1317 C249 2.552 . S
C1333 C289 2.552 . S
C1335 C689 2.552 . S
C1351 C329 2.552 . S
C1353 C609 2.552 . S
C1369 C86 1.873 . S
C1371 C10 1.906 . S
C1387 C6 1.873 . S
C1389 C50 1.906 . S
C1405 C90 1.906 . S
C1407 C46 1.873 . S
C1423 C166 1.873 . S
C1425 C130 1.906 . S
C1441 C206 1.873 . S
C1443 C170 1.906 . S
C1459 C210 1.906 . S
C1461 C126 1.873 . S
C1477 C326 1.873 . S
C1479 C250 1.905 . S
C1495 C290 1.905 . S
C1497 C246 1.873 . S
C1513 C286 1.873 . S
C1515 C330 1.906 . S
C1531 C370 1.906 . S
C1533 C406 1.873 . S
C1549 C410 1.906 . S
C1551 C446 1.873 . S
C1567 C366 1.873 . S
C1569 C450 1.905 . S
C1585 C490 1.905 . S
C1587 C566 1.873 . S
C1603 C530 1.905 . S
C1605 C486 1.873 . S
C1621 C526 1.873 . S
C1623 C570 1.906 . S
C1639 C610 1.905 . S
C1641 C646 1.873 . S
C1657 C650 1.906 . S
C1659 C686 1.873 . S
C1675 C606 1.873 . S
C1677 C690 1.905 . S
