# Generated by pormake.
# Topology umn, (4)-cn, num edge types: 1
# Building blocks:
#     Node 0, Type 0, BuildingBlock: NAHDIM_clean_sbu_0, # of connection points: 4
#     Node 1, Type 0, BuildingBlock: NAHDIM_clean_sbu_0, # of connection points: 4
#     Node 2, Type 0, BuildingBlock: NAHDIM_clean_sbu_0, # of connection points: 4
#     Node 3, Type 0, BuildingBlock: NAHDIM_clean_sbu_0, # of connection points: 4
#     Node 4, Type 0, BuildingBlock: NAHDIM_clean_sbu_0, # of connection points: 4
#     Node 5, Type 0, BuildingBlock: NAHDIM_clean_sbu_0, # of connection points: 4
#     Node 6, Type 0, BuildingBlock: NAHDIM_clean_sbu_0, # of connection points: 4
#     Node 7, Type 0, BuildingBlock: NAHDIM_clean_sbu_0, # of connection points: 4
#     Node 8, Type 0, BuildingBlock: NAHDIM_clean_sbu_0, # of connection points: 4
#     Node 9, Type 0, BuildingBlock: NAHDIM_clean_sbu_0, # of connection points: 4
#     Node 10, Type 0, BuildingBlock: NAHDIM_clean_sbu_0, # of connection points: 4
#     Node 11, Type 0, BuildingBlock: NAHDIM_clean_sbu_0, # of connection points: 4
#     Node 12, Type 0, BuildingBlock: NAHDIM_clean_sbu_0, # of connection points: 4
#     Node 13, Type 0, BuildingBlock: NAHDIM_clean_sbu_0, # of connection points: 4
#     Node 14, Type 0, BuildingBlock: NAHDIM_clean_sbu_0, # of connection points: 4
#     Node 15, Type 0, BuildingBlock: NAHDIM_clean_sbu_0, # of connection points: 4
#     Node 16, Type 0, BuildingBlock: NAHDIM_clean_sbu_0, # of connection points: 4
#     Node 17, Type 0, BuildingBlock: NAHDIM_clean_sbu_0, # of connection points: 4
#     Node 18, Type 0, BuildingBlock: NAHDIM_clean_sbu_0, # of connection points: 4
#     Node 19, Type 0, BuildingBlock: NAHDIM_clean_sbu_0, # of connection points: 4
#     Node 20, Type 0, BuildingBlock: NAHDIM_clean_sbu_0, # of connection points: 4
#     Node 21, Type 0, BuildingBlock: NAHDIM_clean_sbu_0, # of connection points: 4
#     Node 22, Type 0, BuildingBlock: NAHDIM_clean_sbu_0, # of connection points: 4
#     Node 23, Type 0, BuildingBlock: NAHDIM_clean_sbu_0, # of connection points: 4
#     Node 24, Type 0, BuildingBlock: NAHDIM_clean_sbu_0, # of connection points: 4
#     Node 25, Type 0, BuildingBlock: NAHDIM_clean_sbu_0, # of connection points: 4
#     Node 26, Type 0, BuildingBlock: NAHDIM_clean_sbu_0, # of connection points: 4
#     Node 27, Type 0, BuildingBlock: NAHDIM_clean_sbu_0, # of connection points: 4
#     Node 28, Type 0, BuildingBlock: NAHDIM_clean_sbu_0, # of connection points: 4
#     Node 29, Type 0, BuildingBlock: NAHDIM_clean_sbu_0, # of connection points: 4
#     Node 30, Type 0, BuildingBlock: NAHDIM_clean_sbu_0, # of connection points: 4
#     Node 31, Type 0, BuildingBlock: NAHDIM_clean_sbu_0, # of connection points: 4
#     Node 32, Type 0, BuildingBlock: NAHDIM_clean_sbu_0, # of connection points: 4
#     Node 33, Type 0, BuildingBlock: NAHDIM_clean_sbu_0, # of connection points: 4
#     Node 34, Type 0, BuildingBlock: NAHDIM_clean_sbu_0, # of connection points: 4
#     Node 35, Type 0, BuildingBlock: NAHDIM_clean_sbu_0, # of connection points: 4
#     Edge 36, Type (0, 0), BuildingBlock: XIVTED_clean_linker_0, # of connection points: 2
#     Edge 37, Type (0, 0), BuildingBlock: XIVTED_clean_linker_0, # of connection points: 2
#     Edge 38, Type (0, 0), BuildingBlock: XIVTED_clean_linker_0, # of connection points: 2
#     Edge 39, Type (0, 0), BuildingBlock: XIVTED_clean_linker_0, # of connection points: 2
#     Edge 40, Type (0, 0), BuildingBlock: XIVTED_clean_linker_0, # of connection points: 2
#     Edge 41, Type (0, 0), BuildingBlock: XIVTED_clean_linker_0, # of connection points: 2
#     Edge 42, Type (0, 0), BuildingBlock: XIVTED_clean_linker_0, # of connection points: 2
#     Edge 43, Type (0, 0), BuildingBlock: XIVTED_clean_linker_0, # of connection points: 2
#     Edge 44, Type (0, 0), BuildingBlock: XIVTED_clean_linker_0, # of connection points: 2
#     Edge 45, Type (0, 0), BuildingBlock: XIVTED_clean_linker_0, # of connection points: 2
#     Edge 46, Type (0, 0), BuildingBlock: XIVTED_clean_linker_0, # of connection points: 2
#     Edge 47, Type (0, 0), BuildingBlock: XIVTED_clean_linker_0, # of connection points: 2
#     Edge 48, Type (0, 0), BuildingBlock: XIVTED_clean_linker_0, # of connection points: 2
#     Edge 49, Type (0, 0), BuildingBlock: XIVTED_clean_linker_0, # of connection points: 2
#     Edge 50, Type (0, 0), BuildingBlock: XIVTED_clean_linker_0, # of connection points: 2
#     Edge 51, Type (0, 0), BuildingBlock: XIVTED_clean_linker_0, # of connection points: 2
#     Edge 52, Type (0, 0), BuildingBlock: XIVTED_clean_linker_0, # of connection points: 2
#     Edge 53, Type (0, 0), BuildingBlock: XIVTED_clean_linker_0, # of connection points: 2
#     Edge 54, Type (0, 0), BuildingBlock: XIVTED_clean_linker_0, # of connection points: 2
#     Edge 55, Type (0, 0), BuildingBlock: XIVTED_clean_linker_0, # of connection points: 2
#     Edge 56, Type (0, 0), BuildingBlock: XIVTED_clean_linker_0, # of connection points: 2
#     Edge 57, Type (0, 0), BuildingBlock: XIVTED_clean_linker_0, # of connection points: 2
#     Edge 58, Type (0, 0), BuildingBlock: XIVTED_clean_linker_0, # of connection points: 2
#     Edge 59, Type (0, 0), BuildingBlock: XIVTED_clean_linker_0, # of connection points: 2
#     Edge 60, Type (0, 0), BuildingBlock: XIVTED_clean_linker_0, # of connection points: 2
#     Edge 61, Type (0, 0), BuildingBlock: XIVTED_clean_linker_0, # of connection points: 2
#     Edge 62, Type (0, 0), BuildingBlock: XIVTED_clean_linker_0, # of connection points: 2
#     Edge 63, Type (0, 0), BuildingBlock: XIVTED_clean_linker_0, # of connection points: 2
#     Edge 64, Type (0, 0), BuildingBlock: XIVTED_clean_linker_0, # of connection points: 2
#     Edge 65, Type (0, 0), BuildingBlock: XIVTED_clean_linker_0, # of connection points: 2
#     Edge 66, Type (0, 0), BuildingBlock: XIVTED_clean_linker_0, # of connection points: 2
#     Edge 67, Type (0, 0), BuildingBlock: XIVTED_clean_linker_0, # of connection points: 2
#     Edge 68, Type (0, 0), BuildingBlock: XIVTED_clean_linker_0, # of connection points: 2
#     Edge 69, Type (0, 0), BuildingBlock: XIVTED_clean_linker_0, # of connection points: 2
#     Edge 70, Type (0, 0), BuildingBlock: XIVTED_clean_linker_0, # of connection points: 2
#     Edge 71, Type (0, 0), BuildingBlock: XIVTED_clean_linker_0, # of connection points: 2
#     Edge 72, Type (0, 0), BuildingBlock: XIVTED_clean_linker_0, # of connection points: 2
#     Edge 73, Type (0, 0), BuildingBlock: XIVTED_clean_linker_0, # of connection points: 2
#     Edge 74, Type (0, 0), BuildingBlock: XIVTED_clean_linker_0, # of connection points: 2
#     Edge 75, Type (0, 0), BuildingBlock: XIVTED_clean_linker_0, # of connection points: 2
#     Edge 76, Type (0, 0), BuildingBlock: XIVTED_clean_linker_0, # of connection points: 2
#     Edge 77, Type (0, 0), BuildingBlock: XIVTED_clean_linker_0, # of connection points: 2
#     Edge 78, Type (0, 0), BuildingBlock: XIVTED_clean_linker_0, # of connection points: 2
#     Edge 79, Type (0, 0), BuildingBlock: XIVTED_clean_linker_0, # of connection points: 2
#     Edge 80, Type (0, 0), BuildingBlock: XIVTED_clean_linker_0, # of connection points: 2
#     Edge 81, Type (0, 0), BuildingBlock: XIVTED_clean_linker_0, # of connection points: 2
#     Edge 82, Type (0, 0), BuildingBlock: XIVTED_clean_linker_0, # of connection points: 2
#     Edge 83, Type (0, 0), BuildingBlock: XIVTED_clean_linker_0, # of connection points: 2
#     Edge 84, Type (0, 0), BuildingBlock: XIVTED_clean_linker_0, # of connection points: 2
#     Edge 85, Type (0, 0), BuildingBlock: XIVTED_clean_linker_0, # of connection points: 2
#     Edge 86, Type (0, 0), BuildingBlock: XIVTED_clean_linker_0, # of connection points: 2
#     Edge 87, Type (0, 0), BuildingBlock: XIVTED_clean_linker_0, # of connection points: 2
#     Edge 88, Type (0, 0), BuildingBlock: XIVTED_clean_linker_0, # of connection points: 2
#     Edge 89, Type (0, 0), BuildingBlock: XIVTED_clean_linker_0, # of connection points: 2
#     Edge 90, Type (0, 0), BuildingBlock: XIVTED_clean_linker_0, # of connection points: 2
#     Edge 91, Type (0, 0), BuildingBlock: XIVTED_clean_linker_0, # of connection points: 2
#     Edge 92, Type (0, 0), BuildingBlock: XIVTED_clean_linker_0, # of connection points: 2
#     Edge 93, Type (0, 0), BuildingBlock: XIVTED_clean_linker_0, # of connection points: 2
#     Edge 94, Type (0, 0), BuildingBlock: XIVTED_clean_linker_0, # of connection points: 2
#     Edge 95, Type (0, 0), BuildingBlock: XIVTED_clean_linker_0, # of connection points: 2
#     Edge 96, Type (0, 0), BuildingBlock: XIVTED_clean_linker_0, # of connection points: 2
#     Edge 97, Type (0, 0), BuildingBlock: XIVTED_clean_linker_0, # of connection points: 2
#     Edge 98, Type (0, 0), BuildingBlock: XIVTED_clean_linker_0, # of connection points: 2
#     Edge 99, Type (0, 0), BuildingBlock: XIVTED_clean_linker_0, # of connection points: 2
#     Edge 100, Type (0, 0), BuildingBlock: XIVTED_clean_linker_0, # of connection points: 2
#     Edge 101, Type (0, 0), BuildingBlock: XIVTED_clean_linker_0, # of connection points: 2
#     Edge 102, Type (0, 0), BuildingBlock: XIVTED_clean_linker_0, # of connection points: 2
#     Edge 103, Type (0, 0), BuildingBlock: XIVTED_clean_linker_0, # of connection points: 2
#     Edge 104, Type (0, 0), BuildingBlock: XIVTED_clean_linker_0, # of connection points: 2
#     Edge 105, Type (0, 0), BuildingBlock: XIVTED_clean_linker_0, # of connection points: 2
#     Edge 106, Type (0, 0), BuildingBlock: XIVTED_clean_linker_0, # of connection points: 2
#     Edge 107, Type (0, 0), BuildingBlock: XIVTED_clean_linker_0, # of connection points: 2
# Relax obj value: 0.321
# Max RMSD: 0.319
# Mean RMSD: 0.319
data_MOF--net-umn--node1-NAHDIM_clean_sbu_0--edge1-XIVTED_clean_linker_0
_symmetry_space_group_name_H-M    P1
_symmetry_Int_Tables_number       1
_symmetry_cell_setting            triclinic
loop_
_symmetry_equiv_pos_as_xyz
'x, y, z'
_cell_length_a     84.016724
_cell_length_b     84.005099
_cell_length_c     35.206749
_cell_angle_alpha  90.002057
_cell_angle_beta   89.995844
_cell_angle_gamma 119.98603
loop_
_atom_site_label
_atom_site_type_symbol
_atom_site_fract_x
_atom_site_fract_y
_atom_site_fract_z
_atom_type_partial_charge
C0 C 0.36152 0.12588 0.18923 0.0
O1 O 0.37852 0.13376 0.20178 0.0
O2 O 0.3877 0.10335 0.17431 0.0
Zn3 Zn 0.36504 0.09536 0.2059 0.0
O4 O 0.36898 0.09982 0.26209 0.0
C5 C 0.33367 0.06034 0.21918 0.0
O6 O 0.328 0.07057 0.23604 0.0
O7 O 0.35223 0.10847 0.18753 0.0
C8 C 0.36953 0.08752 0.28215 0.0
O9 O 0.37178 0.07488 0.26509 0.0
C10 C 0.40288 0.10476 0.1842 0.0
O11 O 0.4053 0.10151 0.21962 0.0
O12 O 0.34876 0.06811 0.20103 0.0
C13 C 0.87277 0.23005 0.19407 0.0
O14 O 0.86541 0.2377 0.21483 0.0
O15 O 0.89556 0.28065 0.16769 0.0
Zn16 Zn 0.90284 0.2658 0.20083 0.0
O17 O 0.89856 0.26575 0.2572 0.0
C18 C 0.93717 0.26762 0.21257 0.0
O19 O 0.92647 0.25156 0.2284 0.0
O20 O 0.88936 0.23971 0.18343 0.0
C21 C 0.91155 0.27775 0.27748 0.0
O22 O 0.92504 0.29216 0.26073 0.0
C23 C 0.90063 0.2975 0.1727 0.0
O24 O 0.90972 0.30578 0.20367 0.0
O25 O 0.92993 0.27583 0.19578 0.0
C26 C 0.75999 0.63009 0.19156 0.0
O27 O 0.75216 0.61471 0.21112 0.0
O28 O 0.70921 0.60373 0.16776 0.0
Zn29 Zn 0.72459 0.62621 0.19977 0.0
O30 O 0.72426 0.62259 0.25649 0.0
C31 C 0.69955 0.63957 0.18415 0.0
O32 O 0.6881 0.62216 0.17682 0.0
O33 O 0.75064 0.63763 0.18272 0.0
C34 C 0.71138 0.62223 0.27611 0.0
O35 O 0.69673 0.62032 0.25861 0.0
C36 C 0.69466 0.58902 0.17687 0.0
O37 O 0.68867 0.58676 0.21203 0.0
O38 O 0.71614 0.64462 0.19232 0.0
C39 C 0.12453 0.33954 0.31659 0.0
O40 O 0.117 0.34549 0.34134 0.0
O41 O 0.11564 0.37533 0.294 0.0
Zn42 Zn 0.10715 0.35188 0.26437 0.0
O43 O 0.10912 0.35429 0.20742 0.0
C44 C 0.06958 0.33982 0.28557 0.0
O45 O 0.07642 0.35726 0.294 0.0
O46 O 0.12197 0.34064 0.28139 0.0
C47 C 0.09617 0.35439 0.18897 0.0
O48 O 0.08381 0.35652 0.20757 0.0
C49 C 0.11536 0.38979 0.28461 0.0
O50 O 0.10991 0.39109 0.25037 0.0
O51 O 0.08036 0.33418 0.27488 0.0
C52 C 0.62044 0.75874 0.27012 0.0
O53 O 0.60551 0.75155 0.24912 0.0
O54 O 0.59117 0.70876 0.28282 0.0
Zn55 Zn 0.6154 0.72381 0.25607 0.0
O56 O 0.6151 0.72662 0.19923 0.0
C57 C 0.64685 0.71946 0.25088 0.0
O58 O 0.65396 0.73588 0.23559 0.0
O59 O 0.62773 0.74907 0.27805 0.0
C60 C 0.61651 0.71499 0.1785 0.0
O61 O 0.61317 0.69933 0.19368 0.0
C62 C 0.58244 0.6913 0.28181 0.0
O63 O 0.58789 0.68287 0.25822 0.0
O64 O 0.63075 0.71205 0.26478 0.0
C65 C 0.22474 0.88125 0.33301 0.0
O66 O 0.23669 0.89577 0.35215 0.0
O67 O 0.27107 0.88341 0.31445 0.0
Zn68 Zn 0.25563 0.89106 0.28428 0.0
O69 O 0.25488 0.88782 0.22749 0.0
C70 C 0.28125 0.9295 0.29969 0.0
O71 O 0.29265 0.92345 0.30677 0.0
O72 O 0.22986 0.87664 0.30308 0.0
C73 C 0.26746 0.90054 0.20769 0.0
O74 O 0.28258 0.91278 0.22468 0.0
C75 C 0.28588 0.88384 0.30509 0.0
O76 O 0.2924 0.88892 0.27057 0.0
O77 O 0.26458 0.91804 0.292 0.0
C78 C 0.62119 0.85605 0.78048 0.0
O79 O 0.60582 0.847 0.76116 0.0
O80 O 0.59039 0.87537 0.80574 0.0
Zn81 Zn 0.6125 0.88431 0.77172 0.0
O82 O 0.60826 0.87987 0.71543 0.0
C83 C 0.64349 0.91951 0.75981 0.0
O84 O 0.64947 0.90938 0.74372 0.0
O85 O 0.62703 0.87276 0.78896 0.0
C86 C 0.60769 0.8923 0.69587 0.0
O87 O 0.60503 0.90456 0.71346 0.0
C88 C 0.57979 0.88209 0.80586 0.0
O89 O 0.58166 0.89386 0.77927 0.0
O90 O 0.62805 0.91165 0.77668 0.0
C91 C 0.1328 0.76448 0.79234 0.0
O92 O 0.14131 0.75779 0.77229 0.0
O93 O 0.11259 0.71421 0.80489 0.0
Zn94 Zn 0.1035 0.72908 0.77707 0.0
O95 O 0.10701 0.73191 0.72035 0.0
C96 C 0.0676 0.72421 0.76929 0.0
O97 O 0.07695 0.74057 0.75374 0.0
O98 O 0.11576 0.75434 0.79911 0.0
C99 C 0.09416 0.72009 0.69952 0.0
O100 O 0.08246 0.70409 0.71435 0.0
C101 C 0.10467 0.69683 0.80207 0.0
O102 O 0.09196 0.68854 0.776 0.0
O103 O 0.07626 0.71701 0.78435 0.0
C104 C 0.24728 0.38021 0.78713 0.0
O105 O 0.25658 0.37789 0.81445 0.0
O106 O 0.29307 0.4054 0.80806 0.0
Zn107 Zn 0.28291 0.39819 0.75488 0.0
O108 O 0.2951 0.41998 0.71948 0.0
C109 C 0.27558 0.36142 0.73374 0.0
O110 O 0.25864 0.35619 0.74399 0.0
O111 O 0.25571 0.38877 0.75728 0.0
C112 C 0.29764 0.4187 0.68425 0.0
O113 O 0.30732 0.43374 0.66429 0.0
C114 C 0.30225 0.42166 0.82101 0.0
O115 O 0.30651 0.43568 0.79843 0.0
O116 O 0.28786 0.37827 0.73651 0.0
C117 C 0.86397 0.63154 0.71496 0.0
O118 O 0.85817 0.61806 0.7397 0.0
O119 O 0.89071 0.60588 0.703 0.0
Zn120 Zn 0.89688 0.63056 0.72512 0.0
O121 O 0.89537 0.63143 0.78207 0.0
C122 C 0.93465 0.64334 0.70686 0.0
O123 O 0.92848 0.62561 0.70412 0.0
O124 O 0.88054 0.63927 0.70372 0.0
C125 C 0.90827 0.63219 0.80227 0.0
O126 O 0.92032 0.62867 0.78636 0.0
C127 C 0.8821 0.60067 0.67161 0.0
O128 O 0.87514 0.61021 0.65684 0.0
O129 O 0.92332 0.6489 0.71303 0.0
C130 C 0.3376 0.22599 0.71106 0.0
O131 O 0.35271 0.23613 0.73057 0.0
O132 O 0.36049 0.27443 0.69918 0.0
Zn133 Zn 0.33539 0.25794 0.72168 0.0
O134 O 0.33437 0.25743 0.7791 0.0
C135 C 0.32091 0.27652 0.67466 0.0
O136 O 0.33486 0.28035 0.65219 0.0
O137 O 0.32715 0.23245 0.70336 0.0
C138 C 0.33039 0.2682 0.79674 0.0
O139 O 0.32913 0.28094 0.77756 0.0
C140 C 0.36926 0.29187 0.70126 0.0
O141 O 0.36281 0.30011 0.72288 0.0
O142 O 0.31813 0.26646 0.70367 0.0
C143 C 0.76599 0.12138 0.70336 0.0
O144 O 0.75753 0.1289 0.72071 0.0
O145 O 0.7178 0.10086 0.68456 0.0
Zn146 Zn 0.73122 0.09078 0.71454 0.0
O147 O 0.73189 0.09376 0.77142 0.0
C148 C 0.70356 0.05334 0.69743 0.0
O149 O 0.69315 0.06074 0.69255 0.0
O150 O 0.75725 0.10421 0.69691 0.0
C151 C 0.71927 0.08144 0.79183 0.0
O152 O 0.7041 0.06894 0.77542 0.0
C153 C 0.70334 0.1015 0.69211 0.0
O154 O 0.69511 0.09537 0.72497 0.0
O155 O 0.72052 0.06369 0.70474 0.0
C156 C 0.04101 0.46461 0.52309 0.0
O157 O 0.05597 0.47071 0.54373 0.0
O158 O 0.0665 0.4395 0.49384 0.0
Zn159 Zn 0.04412 0.4328 0.52574 0.0
O160 O 0.04744 0.43484 0.58258 0.0
C161 C 0.0107 0.39916 0.53509 0.0
O162 O 0.00619 0.41005 0.55308 0.0
O163 O 0.03324 0.44823 0.51071 0.0
C164 C 0.04545 0.42087 0.60076 0.0
O165 O 0.04622 0.40775 0.58203 0.0
C166 C 0.07879 0.43539 0.50142 0.0
O167 O 0.0783 0.42772 0.53422 0.0
O168 O 0.02588 0.40622 0.5173 0.0
C169 C 0.52853 0.56058 0.50777 0.0
O170 O 0.53622 0.57224 0.47961 0.0
O171 O 0.53671 0.60708 0.51856 0.0
Zn172 Zn 0.54443 0.59334 0.55401 0.0
O173 O 0.54163 0.59545 0.61028 0.0
C174 C 0.57891 0.59512 0.5643 0.0
O175 O 0.56853 0.57976 0.58284 0.0
O176 O 0.53037 0.56662 0.54146 0.0
C177 C 0.55539 0.60785 0.62825 0.0
O178 O 0.56829 0.62173 0.60908 0.0
C179 C 0.54268 0.62426 0.51991 0.0
O180 O 0.55291 0.63377 0.5488 0.0
O181 O 0.57134 0.60279 0.54664 0.0
C182 C 0.43267 0.97589 0.50792 0.0
O183 O 0.42281 0.97962 0.48447 0.0
O184 O 0.38303 0.93605 0.51576 0.0
Zn185 Zn 0.39891 0.95737 0.55004 0.0
O186 O 0.39638 0.95265 0.60631 0.0
C187 C 0.37748 0.97468 0.53297 0.0
O188 O 0.36499 0.9578 0.52401 0.0
O189 O 0.42519 0.96643 0.53747 0.0
C190 C 0.38387 0.95374 0.62443 0.0
O191 O 0.37002 0.95287 0.60543 0.0
C192 C 0.36779 0.9218 0.52339 0.0
O193 O 0.36114 0.91939 0.558 0.0
O194 O 0.39345 0.978 0.54239 0.0
C195 C 0.78157 0.67701 0.61946 0.0
O196 O 0.78819 0.69202 0.5988 0.0
O197 O 0.7592 0.70377 0.63844 0.0
Zn198 Zn 0.75018 0.68003 0.6097 0.0
O199 O 0.75298 0.68194 0.5527 0.0
C200 C 0.71259 0.66919 0.62695 0.0
O201 O 0.71969 0.68697 0.63174 0.0
O202 O 0.76467 0.66872 0.62843 0.0
C203 C 0.74041 0.68177 0.53234 0.0
O204 O 0.7276 0.68394 0.54881 0.0
C205 C 0.75991 0.71868 0.62877 0.0
O206 O 0.75475 0.72031 0.59445 0.0
O207 O 0.72321 0.66288 0.61972 0.0
C208 C 0.30482 0.10028 0.61927 0.0
O209 O 0.28961 0.09041 0.59986 0.0
O210 O 0.28037 0.0521 0.63578 0.0
Zn211 Zn 0.30441 0.0675 0.60856 0.0
O212 O 0.30323 0.06812 0.55142 0.0
C213 C 0.33645 0.06372 0.60387 0.0
O214 O 0.34307 0.07933 0.58532 0.0
O215 O 0.31477 0.09329 0.62736 0.0
C216 C 0.30444 0.0559 0.53238 0.0
O217 O 0.30266 0.04134 0.55008 0.0
C218 C 0.27025 0.03479 0.63268 0.0
O219 O 0.27433 0.02603 0.6071 0.0
O220 O 0.32083 0.0571 0.61978 0.0
C221 C 0.89635 0.19832 0.61671 0.0
O222 O 0.90504 0.19108 0.59921 0.0
O223 O 0.94613 0.22321 0.63011 0.0
Zn224 Zn 0.93001 0.23075 0.6021 0.0
O225 O 0.92914 0.22838 0.54503 0.0
C226 C 0.95522 0.26881 0.61984 0.0
O227 O 0.96646 0.26256 0.62685 0.0
O228 O 0.90446 0.21559 0.62161 0.0
C229 C 0.94184 0.24123 0.5257 0.0
O230 O 0.95682 0.25344 0.54317 0.0
C231 C 0.96074 0.22363 0.61906 0.0
O232 O 0.96648 0.22859 0.58405 0.0
O233 O 0.93857 0.2575 0.61167 0.0
C234 C 0.30123 0.20078 0.1403 0.0
O235 O 0.28425 0.19341 0.12786 0.0
O236 O 0.27851 0.22542 0.18167 0.0
Zn237 Zn 0.29804 0.23289 0.14127 0.0
O238 O 0.29003 0.23027 0.08646 0.0
C239 C 0.31615 0.26994 0.17279 0.0
O240 O 0.30227 0.2632 0.19659 0.0
O241 O 0.31004 0.21779 0.14826 0.0
C242 C 0.291 0.24405 0.06931 0.0
O243 O 0.29371 0.25839 0.08934 0.0
C244 C 0.2653 0.2287 0.1828 0.0
O245 O 0.26218 0.23629 0.15324 0.0
O246 O 0.31735 0.25943 0.14844 0.0
C247 C 0.79716 0.09687 0.12588 0.0
O248 O 0.8037 0.08934 0.10251 0.0
O249 O 0.77113 0.04421 0.14426 0.0
Zn250 Zn 0.76497 0.06189 0.11807 0.0
O251 O 0.76701 0.06291 0.06097 0.0
C252 C 0.72696 0.0372 0.13546 0.0
O253 O 0.73292 0.02555 0.1401 0.0
O254 O 0.78066 0.0875 0.13724 0.0
C255 C 0.75418 0.05041 0.04125 0.0
O256 O 0.7419 0.03528 0.05816 0.0
C257 C 0.77783 0.04809 0.17763 0.0
O258 O 0.78266 0.06437 0.19169 0.0
O259 O 0.73846 0.05394 0.12835 0.0
C260 C 0.89391 0.69469 0.12618 0.0
O261 O 0.9015 0.7104 0.10778 0.0
O262 O 0.9427 0.72482 0.15098 0.0
Zn263 Zn 0.93001 0.70201 0.11891 0.0
O264 O 0.92992 0.70544 0.06233 0.0
C265 C 0.9354 0.67137 0.11049 0.0
O266 O 0.91927 0.66448 0.09394 0.0
O267 O 0.90378 0.68777 0.13527 0.0
C268 C 0.94259 0.70535 0.04273 0.0
O269 O 0.95748 0.70778 0.06009 0.0
C270 C 0.95963 0.73684 0.1489 0.0
O271 O 0.96962 0.73572 0.12146 0.0
O272 O 0.94227 0.68702 0.12637 0.0
C273 C 0.53052 0.9653 0.05562 0.0
O274 O 0.52257 0.95225 0.0812 0.0
O275 O 0.54712 0.93153 0.04302 0.0
Zn276 Zn 0.55807 0.95636 0.06784 0.0
O277 O 0.55543 0.95728 0.12453 0.0
C278 C 0.59438 0.98649 0.07135 0.0
O279 O 0.58556 0.99442 0.0853 0.0
O280 O 0.54658 0.96981 0.04433 0.0
C281 C 0.56824 0.95829 0.14541 0.0
O282 O 0.57962 0.95343 0.13106 0.0
C283 C 0.55519 0.92215 0.04333 0.0
O284 O 0.56963 0.92744 0.06523 0.0
O285 O 0.5852 0.97019 0.05864 0.0
C286 C 0.02042 0.56519 0.01902 0.0
O287 O 0.02592 0.57728 0.99134 0.0
O288 O 0.05369 0.61159 0.03071 0.0
Zn289 Zn 0.032 0.59717 0.06527 0.0
O290 O 0.03703 0.59983 0.12147 0.0
C291 C 0.01715 0.62052 0.04608 0.0
O292 O 0.03436 0.63212 0.03746 0.0
O293 O 0.02145 0.57058 0.05307 0.0
C294 C 0.03671 0.61273 0.13972 0.0
O295 O 0.03706 0.62634 0.12073 0.0
C296 C 0.06845 0.62671 0.03612 0.0
O297 O 0.07152 0.63486 0.06932 0.0
O298 O 0.0127 0.60433 0.05644 0.0
C299 C 0.41983 0.46576 0.06537 0.0
O300 O 0.41305 0.47531 0.08103 0.0
O301 O 0.37216 0.44555 0.08132 0.0
Zn302 Zn 0.38987 0.43878 0.10491 0.0
O303 O 0.40028 0.44854 0.15663 0.0
C304 C 0.38764 0.40374 0.11444 0.0
O305 O 0.40566 0.41367 0.1145 0.0
O306 O 0.41165 0.44851 0.07061 0.0
C307 C 0.39299 0.43839 0.18553 0.0
O308 O 0.37584 0.42504 0.18335 0.0
C309 C 0.3553 0.43344 0.07785 0.0
O310 O 0.34897 0.41795 0.09672 0.0
O311 O 0.37817 0.41148 0.10886 0.0
C312 C 0.69215 0.79547 0.86349 0.0
O313 O 0.70727 0.80437 0.88365 0.0
O314 O 0.72205 0.77414 0.8461 0.0
Zn315 Zn 0.69919 0.76639 0.87725 0.0
O316 O 0.70166 0.77078 0.93387 0.0
C317 C 0.66759 0.73143 0.88874 0.0
O318 O 0.66155 0.74174 0.9038 0.0
O319 O 0.68588 0.77855 0.85634 0.0
C320 C 0.70101 0.75803 0.95451 0.0
O321 O 0.70419 0.74574 0.93865 0.0
C322 C 0.73354 0.76875 0.85193 0.0
O323 O 0.73222 0.75963 0.88316 0.0
O324 O 0.68317 0.73912 0.87242 0.0
C325 C 0.19814 0.89572 0.87829 0.0
O326 O 0.18944 0.9025 0.89738 0.0
O327 O 0.21796 0.94572 0.86019 0.0
Zn328 Zn 0.22683 0.9316 0.89135 0.0
O329 O 0.22214 0.92971 0.94773 0.0
C330 C 0.26294 0.9372 0.90251 0.0
O331 O 0.25371 0.92107 0.91908 0.0
O332 O 0.21513 0.90598 0.87124 0.0
C333 C 0.23444 0.94181 0.96909 0.0
O334 O 0.24708 0.95727 0.95383 0.0
C335 C 0.22541 0.9631 0.86211 0.0
O336 O 0.23736 0.97189 0.88924 0.0
O337 O 0.25419 0.94393 0.886 0.0
C338 C 0.11069 0.32269 0.81234 0.0
O339 O 0.10035 0.32516 0.78778 0.0
O340 O 0.06227 0.27832 0.82199 0.0
Zn341 Zn 0.07687 0.30033 0.85558 0.0
O342 O 0.07568 0.29542 0.9118 0.0
C343 C 0.07439 0.33279 0.86686 0.0
O344 O 0.09027 0.33855 0.88381 0.0
O345 O 0.1034 0.31281 0.84152 0.0
C346 C 0.06347 0.29634 0.93149 0.0
O347 O 0.04961 0.29623 0.91401 0.0
C348 C 0.0464 0.26508 0.83007 0.0
O349 O 0.03942 0.26453 0.86374 0.0
O350 O 0.06689 0.31744 0.84965 0.0
C351 C 0.46427 0.02625 0.94731 0.0
O352 O 0.47076 0.03748 0.91816 0.0
O353 O 0.44158 0.05768 0.95837 0.0
Zn354 Zn 0.43406 0.03246 0.93757 0.0
O355 O 0.43555 0.03069 0.88085 0.0
C356 C 0.39643 0.02151 0.95508 0.0
O357 O 0.40302 0.03936 0.95596 0.0
O358 O 0.44872 0.02225 0.96101 0.0
C359 C 0.42281 0.03003 0.86027 0.0
O360 O 0.41123 0.03443 0.87535 0.0
C361 C 0.45334 0.06483 0.98494 0.0
O362 O 0.46274 0.0569 0.99523 0.0
O363 O 0.40738 0.0154 0.94993 0.0
C364 C 0.98399 0.43434 0.96412 0.0
O365 O 0.97785 0.42207 0.9915 0.0
O366 O 0.95347 0.38733 0.94977 0.0
Zn367 Zn 0.97586 0.40307 0.91781 0.0
O368 O 0.97268 0.4007 0.86106 0.0
C369 C 0.99194 0.3813 0.941 0.0
O370 O 0.97488 0.36955 0.95038 0.0
O371 O 0.98469 0.42933 0.93044 0.0
C372 C 0.9744 0.38834 0.84386 0.0
O373 O 0.97376 0.37479 0.86368 0.0
C374 C 0.9395 0.37178 0.94267 0.0
O375 O 0.93789 0.36421 0.9092 0.0
O376 O 0.99588 0.39713 0.9291 0.0
C377 C 0.54699 0.5308 0.9585 0.0
O378 O 0.55419 0.52218 0.94055 0.0
O379 O 0.59723 0.55224 0.97312 0.0
Zn380 Zn 0.58245 0.56132 0.94478 0.0
O381 O 0.58086 0.55842 0.88786 0.0
C382 C 0.60972 0.59905 0.96158 0.0
O383 O 0.62041 0.59202 0.96698 0.0
O384 O 0.55677 0.54797 0.96431 0.0
C385 C 0.59298 0.57117 0.86732 0.0
O386 O 0.60835 0.58361 0.88324 0.0
C387 C 0.61155 0.55204 0.96232 0.0
O388 O 0.61761 0.55711 0.9275 0.0
O389 O 0.59282 0.5884 0.95421 0.0
C390 C 0.98521 0.54427 0.48106 0.0
O391 O 0.96988 0.53777 0.46152 0.0
O392 O 0.95712 0.56527 0.50237 0.0
Zn393 Zn 0.98135 0.57523 0.47524 0.0
O394 O 0.97994 0.57359 0.41813 0.0
C395 C 0.99042 0.61186 0.4961 0.0
O396 O 0.9726 0.60369 0.50177 0.0
O397 O 0.99322 0.56092 0.49182 0.0
C398 C 0.98001 0.58634 0.39855 0.0
O399 O 0.97767 0.59888 0.41578 0.0
C400 C 0.94209 0.56299 0.48893 0.0
O401 O 0.94114 0.56638 0.45282 0.0
O402 O -0.0024 0.60217 0.48717 0.0
C403 C 0.45553 0.42448 0.46633 0.0
O404 O 0.44804 0.41305 0.4949 0.0
O405 O 0.44089 0.37781 0.46914 0.0
Zn406 Zn 0.44136 0.39106 0.42107 0.0
O407 O 0.45557 0.38721 0.37882 0.0
C408 C 0.40588 0.38874 0.41698 0.0
O409 O 0.4142 0.40362 0.438 0.0
O410 O 0.45417 0.41815 0.433 0.0
C411 C 0.45879 0.39205 0.34396 0.0
O412 O 0.46904 0.38716 0.32464 0.0
C413 C 0.43368 0.36046 0.47083 0.0
O414 O 0.42776 0.35079 0.43941 0.0
O415 O 0.41476 0.38098 0.40609 0.0
C416 C 0.56778 0.02953 0.46489 0.0
O417 O 0.57759 0.02558 0.488 0.0
O418 O 0.61713 0.07132 0.46164 0.0
Zn419 Zn 0.60218 0.05041 0.42569 0.0
O420 O 0.60548 0.0552 0.36942 0.0
C421 C 0.60073 0.01605 0.41524 0.0
O422 O 0.58602 0.01251 0.3956 0.0
O423 O 0.57553 0.04005 0.43677 0.0
C424 C 0.6171 0.05195 0.35322 0.0
O425 O 0.63068 0.05297 0.37358 0.0
C426 C 0.63434 0.08222 0.4591 0.0
O427 O 0.64308 0.08165 0.42868 0.0
O428 O 0.60909 0.03101 0.4338 0.0
C429 C 0.21417 0.3016 0.4033 0.0
O430 O 0.22125 0.29505 0.37883 0.0
O431 O 0.23189 0.27312 0.43211 0.0
Zn432 Zn 0.23842 0.29774 0.45466 0.0
O433 O 0.24045 0.30078 0.51169 0.0
C434 C 0.27026 0.31602 0.40313 0.0
O435 O 0.2611 0.30205 0.38009 0.0
O436 O 0.21953 0.30397 0.4376 0.0
C437 C 0.25619 0.30702 0.52695 0.0
O438 O 0.26932 0.30673 0.50721 0.0
C439 C 0.24308 0.26713 0.43031 0.0
O440 O 0.25842 0.2755 0.44992 0.0
O441 O 0.26295 0.31684 0.43411 0.0
C442 C 0.67564 0.88908 0.35838 0.0
O443 O 0.69052 0.89634 0.37953 0.0
O444 O 0.70456 0.93879 0.34998 0.0
Zn445 Zn 0.67959 0.92356 0.37385 0.0
O446 O 0.67904 0.92019 0.43063 0.0
C447 C 0.67135 0.95226 0.35757 0.0
O448 O 0.68932 0.96211 0.35495 0.0
O449 O 0.66803 0.89852 0.35101 0.0
C450 C 0.67822 0.93186 0.45231 0.0
O451 O 0.68135 0.94758 0.43792 0.0
C452 C 0.71916 0.95166 0.36463 0.0
O453 O 0.71928 0.95563 0.40076 0.0
O454 O 0.66389 0.93506 0.36326 0.0
C455 C 0.09349 0.80874 0.41685 0.0
O456 O 0.08683 0.81484 0.44324 0.0
O457 O 0.04148 0.78513 0.38798 0.0
Zn458 Zn 0.05715 0.77834 0.41965 0.0
O459 O 0.05714 0.78108 0.47649 0.0
C460 C 0.05774 0.74513 0.42814 0.0
O461 O 0.07368 0.75651 0.44362 0.0
O462 O 0.08311 0.79315 0.40188 0.0
C463 C 0.04574 0.76693 0.49499 0.0
O464 O 0.03093 0.75443 0.47748 0.0
C465 C 0.02403 0.77668 0.38906 0.0
O466 O 0.01547 0.76434 0.41567 0.0
O467 O 0.04857 0.7516 0.41233 0.0
H468 H 0.26185 0.94758 0.2916 0.0
H469 H 0.34739 0.03736 0.20719 0.0
H470 H 0.31701 0.95623 0.28986 0.0
H471 H 0.30005 0.03833 0.25211 0.0
H472 H 0.33438 0.00572 0.22903 0.0
H473 H 0.27396 0.97948 0.27102 0.0
C474 C 0.27651 0.95624 0.28732 0.0
C475 C 0.28845 0.94925 0.29242 0.0
C476 C 0.32682 0.01284 0.23398 0.0
C477 C 0.30223 0.98545 0.26812 0.0
C478 C 0.33413 0.03085 0.22118 0.0
C479 C 0.32479 0.04052 0.22788 0.0
C480 C 0.30993 0.00433 0.2532 0.0
C481 C 0.30771 0.03138 0.24643 0.0
C482 C 0.28338 0.97439 0.27551 0.0
C483 C 0.30731 0.96104 0.28641 0.0
N484 N 0.30079 0.01375 0.25844 0.0
N485 N 0.31359 0.9785 0.27416 0.0
H486 H 0.05006 0.30252 0.27417 0.0
H487 H 0.96123 0.30428 0.20383 0.0
H488 H 0.04365 0.35027 0.28328 0.0
H489 H 0.95824 0.25389 0.24121 0.0
H490 H 0.99318 0.32127 0.2245 0.0
H491 H 0.0176 0.28417 0.25604 0.0
C492 C 0.04179 0.30908 0.27283 0.0
C493 C 0.04958 0.32796 0.28014 0.0
C494 C 0.98554 0.30648 0.22808 0.0
C495 C 0.01275 0.30721 0.25864 0.0
C496 C 0.96736 0.29674 0.21592 0.0
C497 C 0.95706 0.27763 0.2208 0.0
C498 C 0.9936 0.29705 0.24478 0.0
C499 C 0.96571 0.26863 0.23697 0.0
C500 C 0.02332 0.29862 0.26242 0.0
C501 C 0.03825 0.33578 0.27795 0.0
N502 N 0.98354 0.27843 0.24834 0.0
N503 N 0.02046 0.32541 0.26694 0.0
H504 H 0.71923 0.67699 0.19343 0.0
H505 H 0.63193 0.68257 0.26242 0.0
H506 H 0.66377 0.63102 0.19019 0.0
H507 H 0.6816 0.73065 0.22453 0.0
H508 H 0.64513 0.66356 0.24464 0.0
H509 H 0.70706 0.69709 0.21124 0.0
C510 C 0.7045 0.67116 0.19608 0.0
C511 C 0.69249 0.6523 0.19033 0.0
C512 C 0.65317 0.67828 0.24035 0.0
C513 C 0.67861 0.67508 0.21141 0.0
C514 C 0.64572 0.68918 0.25083 0.0
C515 C 0.65568 0.70825 0.24487 0.0
C516 C 0.67077 0.68649 0.22417 0.0
C517 C 0.67344 0.716 0.22954 0.0
C518 C 0.6976 0.68262 0.20631 0.0
C519 C 0.67354 0.64548 0.19421 0.0
N520 N 0.68045 0.70507 0.21968 0.0
N521 N 0.66721 0.65683 0.20487 0.0
H522 H 0.63033 0.94299 0.77153 0.0
H523 H 0.72073 0.03294 0.70214 0.0
H524 H 0.67808 0.94145 0.73122 0.0
H525 H 0.66708 0.02808 0.70436 0.0
H526 H 0.70647 0.00022 0.71774 0.0
H527 H 0.64503 0.97538 0.75392 0.0
C528 C 0.644 0.94951 0.75937 0.0
C529 C 0.65301 0.93951 0.75285 0.0
C530 C 0.69785 0.00632 0.71447 0.0
C531 C 0.66983 0.97654 0.73238 0.0
C532 C 0.70595 0.02496 0.7055 0.0
C533 C 0.69507 0.03325 0.70201 0.0
C534 C 0.67881 0.99602 0.72054 0.0
C535 C 0.676 0.02227 0.7067 0.0
C536 C 0.6523 0.96796 0.74901 0.0
C537 C 0.67065 0.94865 0.73671 0.0
N538 N 0.6685 0.00426 0.7161 0.0
N539 N 0.67852 0.9667 0.72707 0.0
H540 H 0.04567 0.68743 0.78214 0.0
H541 H 0.95275 0.68103 0.71108 0.0
H542 H 0.04415 0.73498 0.74028 0.0
H543 H 0.96188 0.63481 0.71333 0.0
H544 H 0.98524 0.7014 0.72677 0.0
H545 H 0.01352 0.6682 0.76432 0.0
C546 C 0.03852 0.69388 0.76962 0.0
C547 C 0.04762 0.71286 0.76269 0.0
C548 C 0.98011 0.68681 0.72346 0.0
C549 C 0.01082 0.69084 0.74191 0.0
C550 C 0.96161 0.67519 0.71442 0.0
C551 C 0.95458 0.65618 0.71101 0.0
C552 C 0.9915 0.67928 0.72968 0.0
C553 C 0.96667 0.64936 0.71567 0.0
C554 C 0.02021 0.68285 0.75912 0.0
C555 C 0.03766 0.72041 0.74613 0.0
N556 N 0.98448 0.66088 0.72517 0.0
N557 N 0.01974 0.70936 0.73631 0.0
H558 H 0.33157 0.30861 0.63617 0.0
H559 H 0.25353 0.32407 0.72875 0.0
H560 H 0.28815 0.26835 0.70702 0.0
H561 H 0.30805 0.36815 0.70164 0.0
H562 H 0.26198 0.30197 0.70458 0.0
H563 H 0.31837 0.32869 0.64277 0.0
C564 C 0.31902 0.3038 0.65235 0.0
C565 C 0.31107 0.28691 0.67155 0.0
C566 C 0.272 0.3165 0.7037 0.0
C567 C 0.29605 0.30979 0.67928 0.0
C568 C 0.26723 0.32912 0.71756 0.0
C569 C 0.28021 0.34796 0.7178 0.0
C570 C 0.28978 0.3228 0.6896 0.0
C571 C 0.2977 0.35373 0.70254 0.0
C572 C 0.3116 0.31532 0.65631 0.0
C573 C 0.29484 0.28138 0.69217 0.0
N574 N 0.302 0.34118 0.68916 0.0
N575 N 0.28794 0.29288 0.69579 0.0
H576 H 0.0221 0.37451 0.5206 0.0
H577 H 0.93633 0.28742 0.61121 0.0
H578 H 0.97726 0.37868 0.57 0.0
H579 H 0.9911 0.29503 0.60973 0.0
H580 H 0.94893 0.31921 0.58915 0.0
H581 H 0.00817 0.34299 0.54356 0.0
C582 C 0.00916 0.36872 0.53574 0.0
C583 C 0.00085 0.37928 0.54349 0.0
C584 C 0.95814 0.3139 0.59406 0.0
C585 C 0.98496 0.34323 0.5701 0.0
C586 C 0.95101 0.29583 0.60673 0.0
C587 C 0.96269 0.28857 0.61227 0.0
C588 C 0.97698 0.32455 0.58619 0.0
C589 C 0.98158 0.30004 0.60596 0.0
C590 C 0.00134 0.35079 0.54918 0.0
C591 C 0.98414 0.37102 0.56347 0.0
N592 N 0.9881 0.31738 0.5928 0.0
N593 N 0.9767 0.35343 0.57614 0.0
H594 H 0.60308 0.63104 0.54764 0.0
H595 H 0.69256 0.63153 0.62274 0.0
H596 H 0.60036 0.58247 0.59585 0.0
H597 H 0.68708 0.67995 0.61868 0.0
H598 H 0.65989 0.61272 0.60651 0.0
H599 H 0.63548 0.64863 0.56492 0.0
C600 C 0.60935 0.624 0.5614 0.0
C601 C 0.59899 0.60525 0.57036 0.0
C602 C 0.66587 0.62745 0.60952 0.0
C603 C 0.63606 0.62538 0.59046 0.0
C604 C 0.68446 0.63818 0.61884 0.0
C605 C 0.69255 0.65734 0.62203 0.0
C606 C 0.65546 0.63602 0.6027 0.0
C607 C 0.68143 0.66523 0.61663 0.0
C608 C 0.62781 0.6341 0.57159 0.0
C609 C 0.60785 0.59691 0.58847 0.0
N610 N 0.66351 0.65456 0.60683 0.0
N611 N 0.62593 0.60705 0.59793 0.0
H612 H 0.37034 0.07309 0.57462 0.0
H613 H 0.34272 0.9692 0.5384 0.0
H614 H 0.32061 0.02697 0.61827 0.0
H615 H 0.39971 0.01178 0.54461 0.0
H616 H 0.33376 0.99148 0.55787 0.0
H617 H 0.38115 0.0519 0.5561 0.0
C618 C 0.36182 0.05859 0.58079 0.0
C619 C 0.34454 0.0518 0.598 0.0
C620 C 0.34822 0.99595 0.55484 0.0
C621 C 0.35657 0.02759 0.57601 0.0
C622 C 0.35336 0.9833 0.54334 0.0
C623 C 0.372 0.98863 0.53996 0.0
C624 C 0.36179 0.01416 0.56249 0.0
C625 C 0.38518 0.00709 0.54699 0.0
C626 C 0.36797 0.04653 0.57011 0.0
C627 C 0.33404 0.03286 0.60519 0.0
N628 N 0.37982 0.01925 0.5579 0.0
N629 N 0.34012 0.02141 0.59372 0.0
H630 H 0.40157 0.38037 0.11271 0.0
H631 H 0.31197 0.29709 0.20555 0.0
H632 H 0.35265 0.38262 0.14025 0.0
H633 H 0.34862 0.28837 0.13382 0.0
H634 H 0.33063 0.33011 0.19412 0.0
H635 H 0.38561 0.34782 0.13134 0.0
C636 C 0.38751 0.37402 0.12265 0.0
C637 C 0.37834 0.38411 0.12462 0.0
C638 C 0.33465 0.32095 0.18115 0.0
C639 C 0.36029 0.34727 0.14659 0.0
C640 C 0.32409 0.30213 0.18785 0.0
C641 C 0.32866 0.28997 0.17029 0.0
C642 C 0.34999 0.32766 0.15713 0.0
C643 C 0.34453 0.29728 0.14762 0.0
C644 C 0.37845 0.35552 0.13325 0.0
C645 C 0.36016 0.37529 0.13786 0.0
N646 N 0.35462 0.31569 0.14155 0.0
N647 N 0.35176 0.35739 0.1485 0.0
H648 H 0.61545 0.97041 0.06161 0.0
H649 H 0.7094 0.05717 0.12841 0.0
H650 H 0.61868 0.02127 0.09628 0.0
H651 H 0.69941 0.00151 0.12992 0.0
H652 H 0.6771 0.04536 0.1117 0.0
H653 H 0.64757 0.983 0.07937 0.0
C654 C 0.62297 0.98432 0.07251 0.0
C655 C 0.61435 0.99481 0.07751 0.0
C656 C 0.68199 0.03577 0.11602 0.0
C657 C 0.65111 0.00921 0.09824 0.0
C658 C 0.70038 0.04247 0.12566 0.0
C659 C 0.70712 0.03031 0.13048 0.0
C660 C 0.67038 0.01681 0.11067 0.0
C661 C 0.69483 0.0114 0.12653 0.0
C662 C 0.64127 0.99142 0.08298 0.0
C663 C 0.62479 0.01271 0.09199 0.0
N664 N 0.67711 0.00526 0.11648 0.0
N665 N 0.64265 0.01937 0.10188 0.0
H666 H 0.97237 0.68692 0.12156 0.0
H667 H 0.97982 0.60027 0.05647 0.0
H668 H 0.92478 0.6368 0.08388 0.0
H669 H 0.02482 0.65611 0.049 0.0
H670 H 0.95924 0.61203 0.07313 0.0
H671 H 0.9918 0.67417 0.10384 0.0
C672 C 0.96596 0.67313 0.11003 0.0
C673 C 0.94691 0.6629 0.10417 0.0
C674 C 0.9736 0.62166 0.0675 0.0
C675 C 0.96913 0.64831 0.08357 0.0
C676 C 0.98533 0.61498 0.05794 0.0
C677 C 0.00407 0.62723 0.05137 0.0
C678 C 0.98076 0.64067 0.07118 0.0
C679 C 0.01048 0.64616 0.05371 0.0
C680 C 0.97709 0.66594 0.09958 0.0
C681 C 0.93941 0.64515 0.08882 0.0
N682 N -0.00111 0.65229 0.06383 0.0
N683 N 0.95055 0.63838 0.07908 0.0
H684 H 0.59191 0.61879 0.95501 0.0
H685 H 0.68093 0.708 0.87896 0.0
H686 H 0.64603 0.62475 0.95421 0.0
H687 H 0.63325 0.70979 0.91888 0.0
H688 H 0.66676 0.67607 0.89953 0.0
H689 H 0.60557 0.65119 0.93701 0.0
C690 C 0.60667 0.62695 0.9515 0.0
C691 C 0.61785 0.61905 0.95602 0.0
C692 C 0.65938 0.68344 0.90371 0.0
C693 C 0.63343 0.65588 0.93472 0.0
C694 C 0.66738 0.70162 0.89163 0.0
C695 C 0.65824 0.71157 0.89717 0.0
C696 C 0.64203 0.67506 0.92109 0.0
C697 C 0.64076 0.70261 0.91406 0.0
C698 C 0.61443 0.6454 0.94116 0.0
C699 C 0.63688 0.63025 0.95109 0.0
N700 N 0.63318 0.68481 0.92539 0.0
N701 N 0.64404 0.64804 0.94029 0.0
H702 H 0.36947 0.03044 0.94773 0.0
H703 H 0.28672 0.92707 0.93239 0.0
H704 H 0.3778 0.98381 0.95558 0.0
H705 H 0.28451 0.9739 0.8883 0.0
H706 H 0.31918 0.94738 0.94829 0.0
H707 H 0.33695 0.00953 0.9351 0.0
C708 C 0.36443 0.01579 0.94729 0.0
C709 C 0.3764 0.00887 0.95251 0.0
C710 C 0.31157 0.95313 0.93493 0.0
C711 C 0.33919 0.98488 0.93778 0.0
C712 C 0.29309 0.94157 0.92576 0.0
C713 C 0.28291 0.94879 0.90887 0.0
C714 C 0.3198 0.97205 0.92766 0.0
C715 C 0.29183 0.9677 0.90108 0.0
C716 C 0.34588 0.00388 0.93976 0.0
C717 C 0.36906 0.98974 0.95154 0.0
N718 N 0.30972 0.97868 0.91078 0.0
N719 N 0.35091 0.97839 0.9442 0.0
H720 H 0.08624 0.36728 0.89584 0.0
H721 H 0.98495 0.34593 0.94209 0.0
H722 H 0.03745 0.31827 0.85814 0.0
H723 H 0.02899 0.40179 0.92662 0.0
H724 H 0.00577 0.33497 0.92351 0.0
H725 H 0.06686 0.37991 0.91684 0.0
C726 C 0.07151 0.35928 0.8916 0.0
C727 C 0.06345 0.34172 0.87513 0.0
C728 C 0.01089 0.34963 0.92442 0.0
C729 C 0.04135 0.3558 0.89998 0.0
C730 C -0.00092 0.35592 0.93538 0.0
C731 C 0.00521 0.37481 0.93567 0.0
C732 C 0.02905 0.3623 0.91419 0.0
C733 C 0.02369 0.3871 0.92656 0.0
C734 C 0.06051 0.36646 0.90367 0.0
C735 C 0.04429 0.3319 0.87047 0.0
N736 N 0.035 0.38062 0.91612 0.0
N737 N 0.0339 0.33898 0.88323 0.0
H738 H 0.07363 0.72588 0.45598 0.0
H739 H 0.9774 0.6358 0.49503 0.0
H740 H 0.02153 0.71927 0.41999 0.0
H741 H 0.02767 0.63384 0.48613 0.0
H742 H 0.99437 0.66832 0.47844 0.0
H743 H 0.0578 0.69355 0.47582 0.0
C744 C 0.05892 0.7176 0.45187 0.0
C745 C 0.04889 0.72525 0.43612 0.0
C746 C 0.0017 0.66078 0.48033 0.0
C747 C 0.03076 0.68857 0.45956 0.0
C748 C 0.99206 0.64225 0.49013 0.0
C749 C 0.00111 0.63204 0.49173 0.0
C750 C 0.02056 0.66926 0.47247 0.0
C751 C 0.02014 0.64118 0.48502 0.0
C752 C 0.04992 0.69921 0.4633 0.0
C753 C 0.02984 0.71393 0.43171 0.0
N754 N 0.02926 0.65931 0.47558 0.0
N755 N 0.02138 0.69622 0.44367 0.0
H756 H 0.29361 0.31349 0.35219 0.0
H757 H 0.38219 0.40004 0.44108 0.0
H758 H 0.29164 0.34865 0.43928 0.0
H759 H 0.38465 0.35884 0.37205 0.0
H760 H 0.34908 0.38472 0.43047 0.0
H761 H 0.32702 0.33346 0.34887 0.0
C762 C 0.30015 0.32557 0.37013 0.0
C763 C 0.28987 0.3293 0.39639 0.0
C764 C 0.35689 0.37911 0.4174 0.0
C765 C 0.32798 0.35208 0.39285 0.0
C766 C 0.3758 0.38786 0.42343 0.0
C767 C 0.38616 0.38055 0.40791 0.0
C768 C 0.34826 0.36295 0.39564 0.0
C769 C 0.37715 0.36481 0.38498 0.0
C770 C 0.31921 0.3369 0.36836 0.0
C771 C 0.29905 0.34513 0.41894 0.0
N772 N 0.35868 0.35644 0.37978 0.0
N773 N 0.31759 0.35585 0.41686 0.0
H774 H 0.6841 0.98894 0.36588 0.0
H775 H 0.58663 0.98245 0.3804 0.0
H776 H 0.63377 0.93669 0.35906 0.0
H777 H 0.63565 0.02492 0.43462 0.0
H778 H 0.60338 0.96643 0.36377 0.0
H779 H 0.66621 0.00376 0.38036 0.0
C780 C 0.66927 0.9806 0.36694 0.0
C781 C 0.66042 0.96152 0.36145 0.0
C782 C 0.61035 0.97918 0.37959 0.0
C783 C 0.63989 0.97845 0.37821 0.0
C784 C 0.60082 0.98829 0.38919 0.0
C785 C 0.60974 0.00501 0.40907 0.0
C786 C 0.62897 0.98706 0.38933 0.0
C787 C 0.62817 0.01202 0.41951 0.0
C788 C 0.65908 0.98906 0.37553 0.0
C789 C 0.64114 0.95143 0.36328 0.0
N790 N 0.63722 0.00311 0.40919 0.0
N791 N 0.63147 0.96003 0.37153 0.0
H792 H 0.31317 0.08634 0.48893 0.0
H793 H 0.36376 0.05947 0.3299 0.0
H794 H 0.31427 0.03549 0.48811 0.0
H795 H 0.35885 0.10819 0.32391 0.0
H796 H 0.34731 0.0516 0.3902 0.0
H797 H 0.33039 0.09505 0.42928 0.0
C798 C 0.3168 0.07689 0.47598 0.0
C799 C 0.31226 0.06015 0.49361 0.0
C800 C 0.34993 0.06408 0.37585 0.0
C801 C 0.33228 0.07021 0.42574 0.0
C802 C 0.35949 0.06869 0.34153 0.0
C803 C 0.36264 0.08449 0.32167 0.0
C804 C 0.34347 0.07535 0.39054 0.0
C805 C 0.35671 0.09586 0.33818 0.0
C806 C 0.32675 0.08194 0.44205 0.0
C807 C 0.31742 0.04851 0.47558 0.0
N808 N 0.3473 0.091 0.37154 0.0
N809 N 0.32724 0.05381 0.4428 0.0
H810 H 0.96463 0.26959 0.47925 0.0
H811 H 0.88876 0.24683 0.31881 0.0
H812 H 0.91014 0.22209 0.48394 0.0
H813 H 0.94076 0.29748 0.32464 0.0
H814 H 0.89621 0.23701 0.37838 0.0
H815 H 0.95653 0.27879 0.42003 0.0
C816 C 0.95103 0.26094 0.46758 0.0
C817 C 0.93802 0.24508 0.48676 0.0
C818 C 0.9059 0.25034 0.36675 0.0
C819 C 0.92854 0.25573 0.41906 0.0
C820 C 0.9016 0.25602 0.33289 0.0
C821 C 0.91417 0.273 0.31658 0.0
C822 C 0.92293 0.26166 0.3843 0.0
C823 C 0.93064 0.28428 0.33606 0.0
C824 C 0.94635 0.2663 0.43387 0.0
C825 C 0.9206 0.23444 0.47017 0.0
N826 N 0.93459 0.27834 0.36866 0.0
N827 N 0.91633 0.24001 0.43736 0.0
H828 H 0.7625 0.6729 0.49049 0.0
H829 H 0.68847 0.62704 0.32377 0.0
H830 H 0.71191 0.67437 0.48452 0.0
H831 H 0.74226 0.63231 0.31924 0.0
H832 H 0.69613 0.64225 0.38542 0.0
H833 H 0.7552 0.65716 0.42908 0.0
C834 C 0.74998 0.67014 0.47607 0.0
C835 C 0.73777 0.67493 0.4928 0.0
C836 C 0.70624 0.64 0.37107 0.0
C837 C 0.72919 0.6566 0.4229 0.0
C838 C 0.70181 0.63116 0.33595 0.0
C839 C 0.71477 0.62847 0.31612 0.0
C840 C 0.72376 0.6462 0.38665 0.0
C841 C 0.73185 0.63412 0.33344 0.0
C842 C 0.74578 0.66105 0.44112 0.0
C843 C 0.72174 0.67095 0.47281 0.0
N844 N 0.73589 0.64282 0.36763 0.0
N845 N 0.71787 0.66191 0.43911 0.0
H846 H 0.06786 0.34976 0.14328 0.0
H847 H 0.09294 0.30197 0.97509 0.0
H848 H 0.11593 0.34365 0.1443 0.0
H849 H 0.04334 0.30536 0.97865 0.0
H850 H 0.10164 0.31704 0.03708 0.0
H851 H 0.0594 0.33455 0.08162 0.0
C852 C 0.07678 0.34545 0.13034 0.0
C853 C 0.0926 0.34794 0.14913 0.0
C854 C 0.08879 0.31435 0.02441 0.0
C855 C 0.0828 0.3302 0.07865 0.0
C856 C 0.08373 0.30562 0.98913 0.0
C857 C 0.0674 0.30242 0.97153 0.0
C858 C 0.07746 0.32 0.04217 0.0
C859 C 0.05606 0.30753 0.99106 0.0
C860 C 0.07185 0.33661 0.09521 0.0
C861 C 0.1036 0.34201 0.1309 0.0
N862 N 0.06137 0.31617 0.02516 0.0
N863 N 0.09844 0.33333 0.09677 0.0
H864 H 0.62905 0.74793 0.14132 0.0
H865 H 0.69251 0.72883 0.00097 0.0
H866 H 0.6286 0.69637 0.13452 0.0
H867 H 0.68621 0.77663 0.991 0.0
H868 H 0.67118 0.7183 0.05424 0.0
H869 H 0.65089 0.75957 0.08843 0.0
C870 C 0.63329 0.73895 0.12835 0.0
C871 C 0.62696 0.72113 0.14248 0.0
C872 C 0.67455 0.73116 0.0406 0.0
C873 C 0.65227 0.73454 0.08259 0.0
C874 C 0.6869 0.7373 0.01036 0.0
C875 C 0.69113 0.75362 0.99127 0.0
C876 C 0.66636 0.74141 0.05209 0.0
C877 C 0.68335 0.76396 0.00482 0.0
C878 C 0.64587 0.74566 0.09835 0.0
C879 C 0.63304 0.71018 0.12464 0.0
N880 N 0.67124 0.75762 0.03427 0.0
N881 N 0.64545 0.71711 0.0959 0.0
H882 H 0.23582 0.88054 0.16619 0.0
H883 H 0.26303 0.96204 0.01732 0.0
H884 H 0.28877 0.93018 0.16267 0.0
H885 H 0.21381 0.90905 0.00664 0.0
H886 H 0.27134 0.95112 0.07385 0.0
H887 H 0.22686 0.89067 0.10898 0.0
C888 C 0.24568 0.89341 0.15308 0.0
C889 C 0.26306 0.90457 0.16944 0.0
C890 C 0.25867 0.9419 0.05929 0.0
C891 C 0.25272 0.91641 0.10451 0.0
C892 C 0.25379 0.94819 0.02718 0.0
C893 C 0.23771 0.93643 0.00704 0.0
C894 C 0.24736 0.92372 0.07159 0.0
C895 C 0.22635 0.9186 0.02123 0.0
C896 C 0.24049 0.89925 0.12058 0.0
C897 C 0.27522 0.92113 0.15121 0.0
N898 N 0.23144 0.91275 0.05254 0.0
N899 N 0.26975 0.92662 0.11999 0.0
H900 H 0.61348 0.9209 0.64997 0.0
H901 H 0.66745 0.89928 0.48962 0.0
H902 H 0.62012 0.87315 0.65363 0.0
H903 H 0.6688 0.95113 0.50094 0.0
H904 H 0.64894 0.8885 0.54759 0.0
H905 H 0.63134 0.93055 0.5915 0.0
C906 C 0.61843 0.91226 0.63818 0.0
C907 C 0.61534 0.89622 0.65693 0.0
C908 C 0.65342 0.90228 0.53748 0.0
C909 C 0.63613 0.9074 0.59008 0.0
C910 C 0.66408 0.90849 0.50453 0.0
C911 C 0.66965 0.92613 0.49027 0.0
C912 C 0.64818 0.91373 0.55611 0.0
C913 C 0.66482 0.93743 0.51077 0.0
C914 C 0.6288 0.91789 0.60493 0.0
C915 C 0.62216 0.88563 0.6402 0.0
N916 N 0.65425 0.93098 0.54242 0.0
N917 N 0.63233 0.89147 0.60782 0.0
H918 H 0.0781 0.78711 0.53411 0.0
H919 H 0.06418 0.70017 0.65426 0.0
H920 H 0.02865 0.73397 0.53224 0.0
H921 H 0.11137 0.75446 0.66712 0.0
H922 H 0.05211 0.71209 0.60598 0.0
H923 H 0.09096 0.77555 0.58183 0.0
C924 C 0.0698 0.77312 0.5442 0.0
C925 C 0.05224 0.76151 0.52905 0.0
C926 C 0.06518 0.72139 0.61914 0.0
C927 C 0.06708 0.74808 0.58299 0.0
C928 C 0.07219 0.71454 0.64649 0.0
C929 C 0.0888 0.72634 0.66499 0.0
C930 C 0.07482 0.74018 0.61009 0.0
C931 C 0.09851 0.74485 0.65368 0.0
C932 C 0.07723 0.76649 0.5712 0.0
C933 C 0.04221 0.74347 0.54307 0.0
N934 N 0.09131 0.75123 0.62715 0.0
N935 N 0.04983 0.73729 0.56897 0.0
H936 H 0.28965 0.32618 0.5621 0.0
H937 H 0.26228 0.39037 0.68055 0.0
H938 H 0.23421 0.31666 0.56716 0.0
H939 H 0.3175 0.40642 0.64622 0.0
H940 H 0.25124 0.36054 0.64896 0.0
H941 H 0.29939 0.35211 0.60543 0.0
C942 C 0.27943 0.3293 0.57284 0.0
C943 C 0.26113 0.31943 0.56025 0.0
C944 C 0.26577 0.37056 0.6485 0.0
C945 C 0.27231 0.34932 0.60948 0.0
C946 C 0.27205 0.38749 0.66659 0.0
C947 C 0.2908 0.40066 0.66614 0.0
C948 C 0.27842 0.36678 0.63033 0.0
C949 C 0.30294 0.39652 0.64723 0.0
C950 C 0.28505 0.34422 0.59734 0.0
C951 C 0.2485 0.32401 0.57564 0.0
N952 N 0.29656 0.3799 0.63022 0.0
N953 N 0.25437 0.33879 0.59905 0.0
H954 H 0.91155 0.69511 0.00019 0.0
H955 H 0.93755 0.64076 0.84874 0.0
H956 H 0.9635 0.69625 0.99822 0.0
H957 H 0.88832 0.64467 0.84114 0.0
H958 H 0.94637 0.65979 0.90571 0.0
H959 H 0.90252 0.67653 0.94233 0.0
C960 C 0.92119 0.69173 0.98728 0.0
C961 C 0.9383 0.69722 0.00422 0.0
C962 C 0.93359 0.65642 0.8917 0.0
C963 C 0.92788 0.67562 0.93846 0.0
C964 C 0.92845 0.6454 0.85931 0.0
C965 C 0.91219 0.64114 0.83999 0.0
C966 C 0.92238 0.66324 0.90501 0.0
C967 C 0.90099 0.64762 0.85506 0.0
C968 C 0.91596 0.68099 0.95439 0.0
C969 C 0.95018 0.69235 0.98624 0.0
N970 N 0.90634 0.65841 0.88659 0.0
N971 N 0.94468 0.6817 0.95457 0.0
H972 H 0.29341 0.22006 0.01982 0.0
H973 H 0.32167 0.28893 0.84287 0.0
H974 H 0.29486 0.27215 0.02367 0.0
H975 H 0.32596 0.23982 0.84262 0.0
H976 H 0.31009 0.28208 0.90789 0.0
H977 H 0.30261 0.22567 0.95308 0.0
C978 C 0.29537 0.23255 0.00652 0.0
C979 C 0.29345 0.24571 0.02753 0.0
C980 C 0.3136 0.27281 0.89368 0.0
C981 C 0.30426 0.25232 0.9512 0.0
C982 C 0.3203 0.27676 0.85655 0.0
C983 C 0.32485 0.26496 0.83722 0.0
C984 C 0.31134 0.25689 0.91168 0.0
C985 C 0.32271 0.24936 0.85644 0.0
C986 C 0.30078 0.2358 0.96846 0.0
C987 C 0.29625 0.26165 0.00871 0.0
N988 N 0.31606 0.24575 0.89255 0.0
N989 N 0.30162 0.26455 0.97173 0.0
H990 H 0.69741 0.05348 0.8402 0.0
H991 H 0.77515 0.08149 0.99889 0.0
H992 H 0.75094 0.1022 0.83263 0.0
H993 H 0.7246 0.02933 0.99582 0.0
H994 H 0.76636 0.09004 0.93935 0.0
H995 H 0.70643 0.0458 0.9002 0.0
C996 C 0.71098 0.06273 0.85139 0.0
C997 C 0.72346 0.07846 0.83115 0.0
C998 C 0.75726 0.07668 0.9516 0.0
C999 C 0.734 0.06957 0.89972 0.0
C1000 C 0.76233 0.07173 0.98547 0.0
C1001 C 0.75058 0.05467 0.00247 0.0
C1002 C 0.74028 0.06454 0.93476 0.0
C1003 C 0.7341 0.04262 0.98382 0.0
C1004 C 0.71618 0.05823 0.88554 0.0
C1005 C 0.74087 0.0899 0.84717 0.0
N1006 N 0.7294 0.04784 0.95116 0.0
N1007 N 0.74566 0.08516 0.8804 0.0
H1008 H 0.0351 0.3903 0.64444 0.0
H1009 H 0.98282 0.41794 0.798 0.0
H1010 H 0.03569 0.44201 0.64344 0.0
H1011 H 0.9843 0.36731 0.80164 0.0
H1012 H 0.00085 0.42629 0.73952 0.0
H1013 H 0.01639 0.38161 0.70189 0.0
C1014 C 0.03156 0.39997 0.65661 0.0
C1015 C 0.037 0.41693 0.63901 0.0
C1016 C -0.00288 0.41329 0.75297 0.0
C1017 C 0.01522 0.40687 0.70451 0.0
C1018 C 0.98667 0.40843 0.78621 0.0
C1019 C 0.98212 0.39193 0.80497 0.0
C1020 C 0.00307 0.4016 0.73832 0.0
C1021 C 0.98753 0.38019 0.7883 0.0
C1022 C 0.02072 0.39492 0.68928 0.0
C1023 C 0.03187 0.42882 0.65603 0.0
N1024 N -0.00217 0.38531 0.75611 0.0
N1025 N 0.02117 0.42351 0.68769 0.0
H1026 H 0.56049 0.5509 0.82879 0.0
H1027 H 0.58635 0.62846 0.67048 0.0
H1028 H 0.61354 0.60016 0.82008 0.0
H1029 H 0.5346 0.57745 0.67258 0.0
H1030 H 0.59579 0.61884 0.72739 0.0
H1031 H 0.55057 0.56023 0.77187 0.0
C1032 C 0.57016 0.56353 0.81461 0.0
C1033 C 0.58787 0.5748 0.8294 0.0
C1034 C 0.58231 0.60979 0.71559 0.0
C1035 C 0.57645 0.58573 0.76466 0.0
C1036 C 0.57682 0.61536 0.68325 0.0
C1037 C 0.55966 0.60373 0.66656 0.0
C1038 C 0.57057 0.59246 0.73152 0.0
C1039 C 0.54796 0.58687 0.68441 0.0
C1040 C 0.56442 0.56892 0.78227 0.0
C1041 C 0.59975 0.59104 0.80982 0.0
N1042 N 0.55368 0.58169 0.71577 0.0
N1043 N 0.59378 0.59608 0.77868 0.0
H1044 H 0.4419 0.01608 0.82319 0.0
H1045 H 0.36312 0.9636 0.66765 0.0
H1046 H 0.39311 0.02073 0.81457 0.0
H1047 H 0.41401 0.96257 0.66892 0.0
H1048 H 0.37289 0.98246 0.72487 0.0
H1049 H 0.4316 0.99565 0.76809 0.0
C1050 C 0.42915 0.01302 0.80943 0.0
C1051 C 0.41834 0.02013 0.8236 0.0
C1052 C 0.38186 0.97799 0.71282 0.0
C1053 C 0.40631 0.99645 0.76098 0.0
C1054 C 0.37621 0.96705 0.68031 0.0
C1055 C 0.38783 0.96161 0.66318 0.0
C1056 C 0.39925 0.98355 0.72841 0.0
C1057 C 0.40463 0.96652 0.68098 0.0
C1058 C 0.42321 0.00123 0.77814 0.0
C1059 C 0.40191 0.0156 0.80466 0.0
N1060 N 0.40991 0.97735 0.71243 0.0
N1061 N 0.39635 0.00398 0.7745 0.0
H1062 H 0.55087 0.97521 0.17798 0.0
H1063 H 0.63445 0.03555 0.319 0.0
H1064 H 0.59864 0.96901 0.18988 0.0
H1065 H 0.58641 0.04144 0.30923 0.0
H1066 H 0.62189 0.01182 0.27023 0.0
H1067 H 0.56331 -0.0009 0.22672 0.0
C1068 C 0.56382 0.97863 0.19127 0.0
C1069 C 0.57373 0.97008 0.17968 0.0
C1070 C 0.61416 0.01841 0.27847 0.0
C1071 C 0.58824 0.99772 0.23499 0.0
C1072 C 0.62142 0.03214 0.3061 0.0
C1073 C 0.61147 0.04053 0.31838 0.0
C1074 C 0.59681 0.013 0.26286 0.0
C1075 C 0.59458 0.03537 0.3007 0.0
C1076 C 0.571 0.9924 0.21887 0.0
C1077 C 0.59049 0.97518 0.19785 0.0
N1078 N 0.58773 0.02185 0.27404 0.0
N1079 N 0.59727 0.98875 0.22436 0.0
H1080 H 0.98569 0.61441 0.35084 0.0
H1081 H 0.03097 0.58419 0.18644 0.0
H1082 H 0.99009 0.56539 0.3562 0.0
H1083 H 0.02908 0.63462 0.18474 0.0
H1084 H 0.01655 0.57727 0.24909 0.0
H1085 H 0.00088 0.62154 0.28909 0.0
C1086 C 0.98964 0.60501 0.33885 0.0
C1087 C 0.98665 0.58929 0.35885 0.0
C1088 C 0.01942 0.58992 0.23513 0.0
C1089 C 0.00434 0.59756 0.2883 0.0
C1090 C 0.02779 0.59395 0.19945 0.0
C1091 C 0.03116 0.60997 0.18015 0.0
C1092 C 0.01433 0.60195 0.25159 0.0
C1093 C 0.02671 0.62209 0.19846 0.0
C1094 C -0.00154 0.60918 0.30368 0.0
C1095 C 0.99212 0.57766 0.34185 0.0
N1096 N 0.01839 0.61775 0.23299 0.0
N1097 N 0.00078 0.58208 0.30764 0.0
H1098 H 0.42955 0.44975 0.179 0.0
H1099 H 0.43865 0.40722 0.37304 0.0
H1100 H 0.38386 0.42325 0.25673 0.0
H1101 H 0.46212 0.40162 0.26886 0.0
H1102 H 0.42386 0.42131 0.33833 0.0
H1103 H 0.44742 0.44112 0.22027 0.0
C1104 C 0.42343 0.44259 0.20529 0.0
C1105 C 0.40512 0.43714 0.2144 0.0
C1106 C 0.43229 0.41699 0.32319 0.0
C1107 C 0.42557 0.4273 0.26153 0.0
C1108 C 0.44056 0.40867 0.34306 0.0
C1109 C 0.45105 0.40238 0.32415 0.0
C1110 C 0.4351 0.41972 0.28403 0.0
C1111 C 0.45389 0.40586 0.28491 0.0
C1112 C 0.4336 0.43753 0.22855 0.0
C1113 C 0.3979 0.42767 0.24863 0.0
N1114 N 0.44596 0.41428 0.26616 0.0
N1115 N 0.40814 0.42299 0.27098 0.0
H1116 H 0.28612 0.16373 0.12889 0.0
H1117 H 0.37748 0.16326 0.19122 0.0
H1118 H 0.33643 0.21217 0.16275 0.0
H1119 H 0.32646 0.11403 0.16428 0.0
H1120 H 0.36303 0.18153 0.17715 0.0
H1121 H 0.30101 0.14538 0.13828 0.0
C1122 C 0.3003 0.17051 0.13823 0.0
C1123 C 0.31003 0.18949 0.14519 0.0
C1124 C 0.35499 0.16674 0.17421 0.0
C1125 C 0.32713 0.16862 0.15591 0.0
C1126 C 0.36325 0.15629 0.1822 0.0
C1127 C 0.35313 0.13709 0.17908 0.0
C1128 C 0.33648 0.15794 0.16302 0.0
C1129 C 0.33475 0.12881 0.16717 0.0
C1130 C 0.30878 0.16003 0.14358 0.0
C1131 C 0.32837 0.19756 0.15718 0.0
N1132 N 0.32699 0.13929 0.15968 0.0
N1133 N 0.33631 0.18708 0.1622 0.0
H1134 H 0.78754 0.11657 0.17291 0.0
H1135 H 0.88366 0.20995 0.15129 0.0
H1136 H 0.83266 0.12129 0.10553 0.0
H1137 H 0.83742 0.20538 0.21416 0.0
H1138 H 0.8656 0.1773 0.13563 0.0
H1139 H 0.80612 0.14889 0.19012 0.0
C1140 C 0.80139 0.12439 0.1618 0.0
C1141 C 0.80855 0.11623 0.13763 0.0
C1142 C 0.85941 0.18345 0.15285 0.0
C1143 C 0.82989 0.15329 0.15718 0.0
C1144 C 0.8697 0.20209 0.16178 0.0
C1145 C 0.86201 0.2104 0.18402 0.0
C1146 C 0.84131 0.17306 0.16631 0.0
C1147 C 0.84389 0.19955 0.19688 0.0
C1148 C 0.81198 0.14287 0.17161 0.0
C1149 C 0.82658 0.12703 0.12418 0.0
N1150 N 0.83416 0.18144 0.18784 0.0
N1151 N 0.83663 0.14503 0.13408 0.0
H1152 H 0.78439 0.61833 0.20727 0.0
H1153 H 0.86908 0.70567 0.10983 0.0
H1154 H 0.78026 0.66205 0.15213 0.0
H1155 H 0.87372 0.66195 0.16358 0.0
H1156 H 0.8364 0.68965 0.12493 0.0
H1157 H 0.81704 0.63381 0.19107 0.0
C1158 C 0.79033 0.63115 0.19168 0.0
C1159 C 0.77959 0.63893 0.18109 0.0
C1160 C 0.84455 0.68354 0.13344 0.0
C1161 C 0.81691 0.65671 0.16257 0.0
C1162 C 0.86323 0.6927 0.12485 0.0
C1163 C 0.87415 0.68514 0.1355 0.0
C1164 C 0.8367 0.66669 0.15285 0.0
C1165 C 0.86581 0.66828 0.15486 0.0
C1166 C 0.80897 0.63998 0.18247 0.0
C1167 C 0.78801 0.65556 0.16092 0.0
N1168 N 0.84756 0.65961 0.16294 0.0
N1169 N 0.80617 0.6639 0.15238 0.0
H1170 H 0.14152 0.3255 0.27287 0.0
H1171 H 0.19604 0.31429 0.44729 0.0
H1172 H 0.13515 0.33767 0.38919 0.0
H1173 H 0.20043 0.29957 0.33181 0.0
H1174 H 0.17332 0.32243 0.42665 0.0
H1175 H 0.16262 0.31532 0.29408 0.0
C1176 C 0.1445 0.32597 0.30291 0.0
C1177 C 0.13661 0.33252 0.32931 0.0
C1178 C 0.17921 0.31737 0.40582 0.0
C1179 C 0.16082 0.32094 0.35375 0.0
C1180 C 0.19221 0.31274 0.41758 0.0
C1181 C 0.20019 0.30629 0.39119 0.0
C1182 C 0.17417 0.31559 0.36738 0.0
C1183 C 0.19466 0.30452 0.3531 0.0
C1184 C 0.15656 0.32015 0.315 0.0
C1185 C 0.14094 0.33276 0.36786 0.0
N1186 N 0.18201 0.3092 0.34231 0.0
N1187 N 0.15282 0.32713 0.3789 0.0
H1188 H 0.64484 0.86981 0.31478 0.0
H1189 H 0.65154 0.77806 0.31298 0.0
H1190 H 0.6881 0.865 0.37019 0.0
H1191 H 0.60836 0.78305 0.25767 0.0
H1192 H 0.66524 0.80993 0.33408 0.0
H1193 H 0.63142 0.83807 0.29316 0.0
C1194 C 0.65154 0.86209 0.32234 0.0
C1195 C 0.66761 0.87005 0.34436 0.0
C1196 C 0.65276 0.80405 0.31734 0.0
C1197 C 0.6523 0.83371 0.31977 0.0
C1198 C 0.64493 0.78585 0.30531 0.0
C1199 C 0.62878 0.77789 0.28354 0.0
C1200 C 0.64439 0.81436 0.30752 0.0
C1201 C 0.62081 0.78863 0.27441 0.0
C1202 C 0.64386 0.84396 0.31001 0.0
C1203 C 0.6757 0.8594 0.35329 0.0
N1204 N 0.6287 0.80631 0.28645 0.0
N1205 N 0.66794 0.84176 0.341 0.0
H1206 H 0.12003 0.84172 0.44563 0.0
H1207 H 0.19733 0.84961 0.30185 0.0
H1208 H 0.11112 0.80075 0.36126 0.0
H1209 H 0.20822 0.88823 0.39281 0.0
H1210 H 0.16544 0.83204 0.3224 0.0
H1211 H 0.15215 0.85951 0.42575 0.0
C1212 C 0.12482 0.83647 0.4229 0.0
C1213 C 0.11288 0.81973 0.40505 0.0
C1214 C 0.17479 0.84434 0.33793 0.0
C1215 C 0.14957 0.83999 0.38222 0.0
C1216 C 0.19302 0.8544 0.32619 0.0
C1217 C 0.20546 0.87043 0.34565 0.0
C1218 C 0.1689 0.85035 0.3693 0.0
C1219 C 0.19909 0.87595 0.37701 0.0
C1220 C 0.14316 0.84662 0.41163 0.0
C1221 C 0.11983 0.81358 0.37582 0.0
N1222 N 0.18121 0.86593 0.38784 0.0
N1223 N 0.13771 0.82372 0.36531 0.0
H1224 H 0.61263 0.82056 0.7671 0.0
H1225 H 0.70141 0.83132 0.87468 0.0
H1226 H 0.65356 0.87095 0.81993 0.0
H1227 H 0.66028 0.78086 0.82242 0.0
H1228 H 0.68435 0.84625 0.85391 0.0
H1229 H 0.63015 0.80589 0.78638 0.0
C1230 C 0.6253 0.82855 0.78276 0.0
C1231 C 0.63163 0.847 0.79196 0.0
C1232 C 0.67907 0.83192 0.84694 0.0
C1233 C 0.65175 0.8303 0.81409 0.0
C1234 C 0.68882 0.82339 0.85877 0.0
C1235 C 0.68225 0.80481 0.85031 0.0
C1236 C 0.66263 0.82179 0.82653 0.0
C1237 C 0.66585 0.79521 0.8296 0.0
C1238 C 0.6353 0.82016 0.79375 0.0
C1239 C 0.64815 0.85668 0.81226 0.0
N1240 N 0.65659 0.80381 0.81847 0.0
N1241 N 0.65763 0.84821 0.82266 0.0
H1242 H 0.16911 0.78988 0.78222 0.0
H1243 H 0.16199 0.87011 0.88932 0.0
H1244 H 0.11917 0.78285 0.83284 0.0
H1245 H 0.21202 0.87719 0.83908 0.0
H1246 H 0.14611 0.83804 0.86909 0.0
H1247 H 0.18516 0.82183 0.80333 0.0
C1248 C 0.16152 0.79504 0.79785 0.0
C1249 C 0.14277 0.78369 0.80575 0.0
C1250 C 0.16056 0.84661 0.86248 0.0
C1251 C 0.16104 0.82026 0.82991 0.0
C1252 C 0.16964 0.86493 0.874 0.0
C1253 C 0.18836 0.87635 0.86585 0.0
C1254 C 0.17027 0.83964 0.84266 0.0
C1255 C 0.19757 0.86888 0.84594 0.0
C1256 C 0.1707 0.8133 0.80986 0.0
C1257 C 0.13364 0.79111 0.8261 0.0
N1258 N 0.18843 0.85099 0.83502 0.0
N1259 N 0.14287 0.80894 0.83743 0.0
H1260 H 0.13167 0.34407 0.75266 0.0
H1261 H 0.22559 0.36098 0.84691 0.0
H1262 H 0.13552 0.32147 0.86019 0.0
H1263 H 0.22325 0.38121 0.73548 0.0
H1264 H 0.19247 0.34732 0.8524 0.0
H1265 H 0.16512 0.3586 0.74578 0.0
C1266 C 0.13952 0.34216 0.77477 0.0
C1267 C 0.13078 0.33153 0.80702 0.0
C1268 C 0.19915 0.35474 0.8267 0.0
C1269 C 0.16891 0.34809 0.79941 0.0
C1270 C 0.21811 0.36258 0.82356 0.0
C1271 C 0.22721 0.37224 0.79067 0.0
C1272 C 0.18913 0.35655 0.79674 0.0
C1273 C 0.21677 0.37387 0.76136 0.0
C1274 C 0.15859 0.35044 0.77082 0.0
C1275 C 0.14161 0.32951 0.8348 0.0
N1276 N 0.19824 0.36607 0.76507 0.0
N1277 N 0.16007 0.33771 0.83034 0.0
H1278 H 0.82759 0.61762 0.73184 0.0
H1279 H 0.81797 0.69094 0.60342 0.0
H1280 H 0.87185 0.65942 0.66495 0.0
H1281 H 0.77277 0.64734 0.66511 0.0
H1282 H 0.83793 0.67958 0.62593 0.0
H1283 H 0.80726 0.62831 0.70793 0.0
C1284 C 0.83303 0.62903 0.7121 0.0
C1285 C 0.85145 0.63767 0.70041 0.0
C1286 C 0.82364 0.67247 0.63451 0.0
C1287 C 0.82828 0.64997 0.67299 0.0
C1288 C 0.81223 0.67896 0.62168 0.0
C1289 C 0.79368 0.67008 0.63245 0.0
C1290 C 0.81646 0.65702 0.65837 0.0
C1291 C 0.78699 0.65461 0.65611 0.0
C1292 C 0.82141 0.63512 0.69844 0.0
C1293 C 0.85775 0.65237 0.67475 0.0
N1294 N 0.79839 0.64858 0.66835 0.0
N1295 N 0.84619 0.65808 0.66196 0.0
H1296 H 0.35703 0.20825 0.72266 0.0
H1297 H 0.28617 0.11863 0.60662 0.0
H1298 H 0.30784 0.20165 0.66919 0.0
H1299 H 0.33486 0.12445 0.66107 0.0
H1300 H 0.29421 0.14923 0.62876 0.0
H1301 H 0.34939 0.17775 0.70002 0.0
C1302 C 0.34461 0.20039 0.70619 0.0
C1303 C 0.33305 0.20751 0.69782 0.0
C1304 C 0.30316 0.14384 0.63587 0.0
C1305 C 0.32424 0.17261 0.67178 0.0
C1306 C 0.29859 0.12636 0.62321 0.0
C1307 C 0.30986 0.11896 0.63205 0.0
C1308 C 0.31913 0.15405 0.65758 0.0
C1309 C 0.32577 0.12962 0.65362 0.0
C1310 C 0.34026 0.18298 0.69325 0.0
C1311 C 0.31715 0.19671 0.67634 0.0
N1312 N 0.32993 0.14664 0.66569 0.0
N1313 N 0.31322 0.17981 0.66406 0.0
H1314 H 0.87462 0.161 0.60984 0.0
H1315 H 0.78837 0.15838 0.71256 0.0
H1316 H 0.87469 0.209 0.65401 0.0
H1317 H 0.78761 0.11028 0.66697 0.0
H1318 H 0.82024 0.17703 0.69221 0.0
H1319 H 0.84293 0.14203 0.63153 0.0
C1320 C 0.86799 0.16755 0.62413 0.0
C1321 C 0.8773 0.18661 0.63007 0.0
C1322 C 0.81312 0.16239 0.68666 0.0
C1323 C 0.84107 0.16501 0.65492 0.0
C1324 C 0.79491 0.15173 0.69829 0.0
C1325 C 0.78531 0.13275 0.69141 0.0
C1326 C 0.82181 0.15403 0.66801 0.0
C1327 C 0.79449 0.12487 0.67282 0.0
C1328 C 0.8499 0.15671 0.6365 0.0
C1329 C 0.86803 0.19436 0.64877 0.0
N1330 N 0.81224 0.13556 0.66173 0.0
N1331 N 0.85043 0.18352 0.6605 0.0
H1332 H 0.00952 0.45581 0.48399 0.0
H1333 H 0.01702 0.55344 0.51944 0.0
H1334 H 0.05385 0.50007 0.54619 0.0
H1335 H 0.97211 0.50859 0.45968 0.0
H1336 H 0.03079 0.53415 0.52956 0.0
H1337 H 0.99578 0.47512 0.47428 0.0
C1338 C 0.0164 0.46961 0.49551 0.0
C1339 C 0.03286 0.47634 0.51594 0.0
C1340 C 0.0179 0.52852 0.51429 0.0
C1341 C 0.01717 0.4985 0.50505 0.0
C1342 C 0.01002 0.53952 0.50855 0.0
C1343 C 0.9934 0.53262 0.48865 0.0
C1344 C 0.00911 0.5105 0.49999 0.0
C1345 C 0.98495 0.51449 0.47517 0.0
C1346 C 0.00853 0.48062 0.49002 0.0
C1347 C 0.04115 0.49432 0.53027 0.0
N1348 N 0.99291 0.50407 0.48103 0.0
N1349 N 0.0332 0.50477 0.52457 0.0
H1350 H 0.52108 0.54249 0.43951 0.0
H1351 H 0.46219 0.44287 0.53387 0.0
H1352 H 0.51125 0.53316 0.56003 0.0
H1353 H 0.47215 0.45174 0.41329 0.0
H1354 H 0.47976 0.47605 0.54377 0.0
H1355 H 0.50291 0.50931 0.42902 0.0
C1356 C 0.51512 0.53348 0.46375 0.0
C1357 C 0.51769 0.54061 0.50068 0.0
C1358 C 0.47809 0.47074 0.51513 0.0
C1359 C 0.4969 0.50269 0.48893 0.0
C1360 C 0.46804 0.45179 0.50947 0.0
C1361 C 0.46574 0.44452 0.47273 0.0
C1362 C 0.4859 0.48252 0.48383 0.0
C1363 C 0.47362 0.45674 0.44215 0.0
C1364 C 0.50474 0.51455 0.45775 0.0
C1365 C 0.50963 0.52829 0.53104 0.0
N1366 N 0.48337 0.47514 0.4484 0.0
N1367 N 0.49961 0.50995 0.52448 0.0
H1368 H 0.54365 0.03435 0.42112 0.0
H1369 H 0.45665 0.97049 0.55092 0.0
H1370 H 0.54644 0.0065 0.52184 0.0
H1371 H 0.45375 0.99776 0.44936 0.0
H1372 H 0.48947 0.98325 0.54029 0.0
H1373 H 0.51068 0.0209 0.4308 0.0
C1374 C 0.53734 0.02542 0.44533 0.0
C1375 C 0.54784 0.02156 0.47078 0.0
C1376 C 0.48166 0.98642 0.52028 0.0
C1377 C 0.51004 0.00608 0.48194 0.0
C1378 C 0.4629 0.97913 0.5263 0.0
C1379 C 0.45244 0.9831 0.50101 0.0
C1380 C 0.49006 0.9978 0.48875 0.0
C1381 C 0.46129 0.99436 0.4696 0.0
C1382 C 0.51849 0.01772 0.45079 0.0
C1383 C 0.53889 0.00986 0.50156 0.0
N1384 N 0.47961 0.00135 0.46441 0.0
N1385 N 0.52049 0.00254 0.50629 0.0
H1386 H 0.49803 0.03188 0.92573 0.0
H1387 H 0.49677 0.9598 0.07594 0.0
H1388 H 0.45423 0.00197 0.00627 0.0
H1389 H 0.54239 0.99192 0.00068 0.0
H1390 H 0.48098 0.97513 0.05032 0.0
H1391 H 0.51459 0.01747 0.95255 0.0
C1392 C 0.49192 0.02232 0.94909 0.0
C1393 C 0.47471 0.01808 0.96372 0.0
C1394 C 0.49446 0.97886 0.03942 0.0
C1395 C 0.49353 0.00153 0.99444 0.0
C1396 C 0.50348 0.97008 0.05401 0.0
C1397 C 0.52091 0.97457 0.04038 0.0
C1398 C 0.5029 0.99219 0.01089 0.0
C1399 C 0.52895 0.98803 0.01199 0.0
C1400 C 0.50138 0.0141 0.96439 0.0
C1401 C 0.46745 0.00562 0.99404 0.0
N1402 N 0.51985 0.99635 0.99812 0.0
N1403 N 0.47688 0.99776 0.00831 0.0
H1404 H 0.00776 0.53678 0.06973 0.0
H1405 H 0.99635 0.46273 0.91346 0.0
H1406 H 0.01873 0.54914 0.9503 0.0
H1407 H 0.98382 0.44993 0.03235 0.0
H1408 H 0.00458 0.49444 0.92647 0.0
H1409 H -0.00136 0.50485 0.05651 0.0
C1410 C 0.00819 0.53277 0.04068 0.0
C1411 C 0.01407 0.54567 0.01106 0.0
C1412 C 3e-05 0.48471 0.94973 0.0
C1413 C 0.00371 0.50912 0.99578 0.0
C1414 C 0.99536 0.46659 0.94235 0.0
C1415 C 0.9894 0.45366 0.9719 0.0
C1416 C -0.00124 0.48996 0.98694 0.0
C1417 C 0.98836 0.45945 0.00872 0.0
C1418 C 0.003 0.51453 0.03317 0.0
C1419 C 0.01431 0.53967 0.974 0.0
N1420 N 0.993 0.47719 0.0152 0.0
N1421 N 0.00926 0.52183 0.96743 0.0
H1422 H 0.44133 0.50255 0.05222 0.0
H1423 H 0.5228 0.49373 0.95578 0.0
H1424 H 0.43873 0.45055 0.03253 0.0
H1425 H 0.52725 0.54512 0.99043 0.0
H1426 H 0.49097 0.47757 0.97812 0.0
H1427 H 0.47173 0.51827 0.02327 0.0
C1428 C 0.4471 0.49441 0.04158 0.0
C1429 C 0.43754 0.47522 0.04505 0.0
C1430 C 0.49892 0.49238 0.98075 0.0
C1431 C 0.47241 0.49315 0.01202 0.0
C1432 C 0.51709 0.50161 0.96801 0.0
C1433 C 0.52772 0.52079 0.97143 0.0
C1434 C 0.49136 0.50243 0.99682 0.0
C1435 C 0.5196 0.53032 0.98742 0.0
C1436 C 0.46449 0.50341 0.02513 0.0
C1437 C 0.44567 0.46539 0.03058 0.0
N1438 N 0.50192 0.52103 -0.00046 0.0
N1439 N 0.4627 0.47449 0.01484 0.0
H1440 H 0.47125 0.07812 0.05262 0.0
H1441 H 0.40297 0.11381 0.10965 0.0
H1442 H 0.43405 0.08291 0.97505 0.0
H1443 H 0.43302 0.10028 0.19049 0.0
H1444 H 0.42095 0.11106 0.0584 0.0
H1445 H 0.46418 0.09471 0.1005 0.0
C1446 C 0.46192 0.08302 0.04529 0.0
C1447 C 0.45287 0.07871 0.01005 0.0
C1448 C 0.42382 0.10897 0.08739 0.0
C1449 C 0.44465 0.09758 0.06487 0.0
C1450 C 0.41356 0.11054 0.11672 0.0
C1451 C 0.41618 0.10682 0.15437 0.0
C1452 C 0.43675 0.10353 0.09566 0.0
C1453 C 0.43034 0.10299 0.16184 0.0
C1454 C 0.45784 0.09244 0.07275 0.0
C1455 C 0.44109 0.08562 0.00207 0.0
N1456 N 0.43988 0.10112 0.13264 0.0
N1457 N 0.43709 0.09444 0.0295 0.0
H1458 H 0.91284 0.33448 0.17017 0.0
H1459 H 0.91333 0.3351 0.94448 0.0
H1460 H 0.88668 0.28538 0.10142 0.0
H1461 H 0.93835 0.38398 0.014 0.0
H1462 H 0.89825 0.31685 0.00109 0.0
H1463 H 0.91694 0.35284 0.11343 0.0
C1464 C 0.90766 0.32752 0.14328 0.0
C1465 C 0.89976 0.30838 0.14047 0.0
C1466 C 0.9068 0.33161 0.00385 0.0
C1467 C 0.90462 0.32935 0.07521 0.0
C1468 C 0.91537 0.34205 0.97148 0.0
C1469 C 0.92742 0.36105 0.9746 0.0
C1470 C 0.91037 0.34025 0.03955 0.0
C1471 C 0.92945 0.36931 0.01032 0.0
C1472 C 0.91004 0.33803 0.11081 0.0
C1473 C 0.89312 0.30012 0.10488 0.0
N1474 N 0.92125 0.35884 0.04143 0.0
N1475 N 0.89599 0.31067 0.07356 0.0
H1476 H 0.64758 0.56065 0.95616 0.0
H1477 H 0.65844 0.56189 0.18105 0.0
H1478 H 0.60227 0.53958 0.03522 0.0
H1479 H 0.70377 0.58848 0.10253 0.0
H1480 H 0.6378 0.54674 0.12746 0.0
H1481 H 0.66811 0.56386 0.00852 0.0
C1482 C 0.64186 0.55632 0.98435 0.0
C1483 C 0.62325 0.55021 0.99144 0.0
C1484 C 0.65232 0.55564 0.12202 0.0
C1485 C 0.64669 0.55403 0.05154 0.0
C1486 C 0.66413 0.56424 0.15265 0.0
C1487 C 0.6828 0.57677 0.14621 0.0
C1488 C 0.65924 0.55963 0.08474 0.0
C1489 C 0.68941 0.57919 0.10878 0.0
C1490 C 0.65361 0.55823 0.01429 0.0
C1491 C 0.6166 0.54469 0.02854 0.0
N1492 N 0.67761 0.57093 0.07944 0.0
N1493 N 0.62835 0.547 0.05727 0.0
H1494 H 0.12893 0.39252 0.35632 0.0
H1495 H 0.08219 0.44892 0.42921 0.0
H1496 H 0.10575 0.4166 0.2822 0.0
H1497 H 0.10275 0.42217 0.50287 0.0
H1498 H 0.09705 0.44334 0.37538 0.0
H1499 H 0.12589 0.40934 0.40962 0.0
C1500 C 0.12349 0.4016 0.3511 0.0
C1501 C 0.11724 0.40286 0.31484 0.0
C1502 C 0.09857 0.43896 0.40341 0.0
C1503 C 0.11351 0.42201 0.37598 0.0
C1504 C 0.09011 0.44216 0.43423 0.0
C1505 C 0.09088 0.43564 0.47054 0.0
C1506 C 0.10781 0.42907 0.40885 0.0
C1507 C 0.10155 0.4272 0.47533 0.0
C1508 C 0.12173 0.41119 0.38161 0.0
C1509 C 0.11055 0.41504 0.30972 0.0
N1510 N 0.10933 0.42389 0.44473 0.0
N1511 N 0.10856 0.4239 0.3401 0.0
H1512 H 0.55467 0.66098 0.51074 0.0
H1513 H 0.56065 0.65398 0.28875 0.0
H1514 H 0.52865 0.60939 0.45018 0.0
H1515 H 0.57523 0.70482 0.34642 0.0
H1516 H 0.54507 0.63711 0.34624 0.0
H1517 H 0.55859 0.67708 0.45063 0.0
C1518 C 0.54946 0.653 0.48493 0.0
C1519 C 0.54163 0.63383 0.48547 0.0
C1520 C 0.55137 0.65194 0.34613 0.0
C1521 C 0.54632 0.65218 0.41644 0.0
C1522 C 0.56027 0.66158 0.31324 0.0
C1523 C 0.56956 0.68086 0.31294 0.0
C1524 C 0.55202 0.66166 0.37915 0.0
C1525 C 0.56844 0.68997 0.34545 0.0
C1526 C 0.55171 0.66221 0.45056 0.0
C1527 C 0.53499 0.62421 0.45113 0.0
N1528 N 0.56019 0.68031 0.37747 0.0
N1529 N 0.5378 0.6335 0.41795 0.0
H1530 H 0.37834 0.92131 0.45016 0.0
H1531 H 0.27535 0.87031 0.37691 0.0
H1532 H 0.33109 0.89588 0.52415 0.0
H1533 H 0.32258 0.89465 0.30277 0.0
H1534 H 0.29545 0.87413 0.43029 0.0
H1535 H 0.35832 0.90645 0.39585 0.0
C1536 C 0.36377 0.91236 0.45508 0.0
C1537 C 0.35633 0.91012 0.49171 0.0
C1538 C 0.30141 0.87837 0.40227 0.0
C1539 C 0.33328 0.89319 0.42947 0.0
C1540 C 0.28993 0.87617 0.37172 0.0
C1541 C 0.29734 0.8825 0.33542 0.0
C1542 C 0.32049 0.88714 0.39663 0.0
C1543 C 0.31629 0.88975 0.33032 0.0
C1544 C 0.35234 0.90387 0.42399 0.0
C1545 C 0.3374 0.89816 0.49639 0.0
N1546 N 0.32726 0.89218 0.36073 0.0
N1547 N 0.32648 0.89039 0.46554 0.0
H1548 H 0.57892 0.86509 0.87293 0.0
H1549 H 0.53224 0.91428 0.98214 0.0
H1550 H 0.55604 0.89506 0.81781 0.0
H1551 H 0.56979 0.89963 0.03371 0.0
H1552 H 0.53212 0.89804 0.92451 0.0
H1553 H 0.56675 0.86849 0.93349 0.0
C1554 C 0.57098 0.87202 0.87333 0.0
C1555 C 0.56886 0.88019 0.84032 0.0
C1556 C 0.54008 0.89808 0.94874 0.0
C1557 C 0.55495 0.88412 0.90964 0.0
C1558 C 0.54012 0.90728 0.98176 0.0
C1559 C 0.5514 0.90869 0.01256 0.0
C1560 C 0.5513 0.89013 0.94658 0.0
C1561 C 0.56115 0.89918 0.01043 0.0
C1562 C 0.5641 0.874 0.908 0.0
C1563 C 0.55828 0.88884 0.84263 0.0
N1564 N 0.5611 0.89053 0.97777 0.0
N1565 N 0.55195 0.89082 0.87682 0.0
H1566 H 0.09636 0.66264 0.03086 0.0
H1567 H 0.08991 0.65953 0.80624 0.0
H1568 H 0.06693 0.61277 0.9653 0.0
H1569 H 0.12262 0.70938 0.87008 0.0
H1570 H 0.08646 0.64168 0.8634 0.0
H1571 H 0.11096 0.67938 0.97242 0.0
C1572 C 0.09323 0.65514 0.00434 0.0
C1573 C 0.08011 0.63636 0.00288 0.0
C1574 C 0.09467 0.65652 0.86482 0.0
C1575 C 0.09662 0.65542 0.93589 0.0
C1576 C 0.09668 0.66673 0.83209 0.0
C1577 C 0.10623 0.68599 0.83352 0.0
C1578 C 0.10206 0.66563 0.89937 0.0
C1579 C 0.11491 0.69455 0.86774 0.0
C1580 C 0.10155 0.66471 0.97093 0.0
C1581 C 0.0767 0.62733 0.96771 0.0
N1582 N 0.1123 0.68432 0.8995 0.0
N1583 N 0.08467 0.63699 0.9356 0.0
H1584 H 0.29002 0.39623 0.87802 0.0
H1585 H 0.36545 0.46173 0.02695 0.0
H1586 H 0.32731 0.45376 0.8561 0.0
H1587 H 0.32096 0.40746 0.05422 0.0
H1588 H 0.35055 0.46021 0.96633 0.0
H1589 H 0.30032 0.40081 0.94386 0.0
C1590 C 0.30037 0.40986 0.88707 0.0
C1591 C 0.30795 0.4246 0.86137 0.0
C1592 C 0.3439 0.44876 0.98585 0.0
C1593 C 0.31987 0.42996 0.93698 0.0
C1594 C 0.35236 0.44964 0.02059 0.0
C1595 C 0.34459 0.43457 0.04554 0.0
C1596 C 0.32765 0.43265 0.97588 0.0
C1597 C 0.32758 0.41933 0.03577 0.0
C1598 C 0.30618 0.41249 0.9248 0.0
C1599 C 0.32116 0.44199 0.8749 0.0
N1600 N 0.31985 0.41865 0.00149 0.0
N1601 N 0.32685 0.44415 0.91169 0.0
H1602 H 0.86824 0.58872 0.60032 0.0
H1603 H 0.93897 0.55377 0.56409 0.0
H1604 H 0.90039 0.58207 0.68797 0.0
H1605 H 0.91181 0.56648 0.47494 0.0
H1606 H 0.91866 0.55604 0.61052 0.0
H1607 H 0.87761 0.57261 0.55593 0.0
C1608 C 0.87696 0.58354 0.61051 0.0
C1609 C 0.8839 0.58716 0.64772 0.0
C1610 C 0.91692 0.55803 0.58075 0.0
C1611 C 0.8948 0.56885 0.59686 0.0
C1612 C 0.92851 0.55673 0.55416 0.0
C1613 C 0.92737 0.56037 0.51563 0.0
C1614 C 0.90417 0.56315 0.56881 0.0
C1615 C 0.91335 0.56382 0.5044 0.0
C1616 C 0.88234 0.57437 0.58505 0.0
C1617 C 0.89494 0.57987 0.65939 0.0
N1618 N 0.90251 0.56546 0.53097 0.0
N1619 N 0.90031 0.57135 0.63386 0.0
H1620 H 0.3825 0.27873 0.64571 0.0
H1621 H 0.43789 0.37595 0.54131 0.0
H1622 H 0.38918 0.32932 0.69198 0.0
H1623 H 0.4193 0.32376 0.48576 0.0
H1624 H 0.42638 0.35985 0.60167 0.0
H1625 H 0.40233 0.29598 0.59263 0.0
C1626 C 0.38838 0.29351 0.64511 0.0
C1627 C 0.38392 0.30255 0.67314 0.0
C1628 C 0.42503 0.35195 0.57635 0.0
C1629 C 0.4066 0.32236 0.61218 0.0
C1630 C 0.43165 0.36112 0.54185 0.0
C1631 C 0.42934 0.35116 0.50825 0.0
C1632 C 0.41613 0.33269 0.57736 0.0
C1633 C 0.4212 0.33199 0.51082 0.0
C1634 C 0.39965 0.30333 0.61465 0.0
C1635 C 0.39208 0.32175 0.67087 0.0
N1636 N 0.41476 0.32336 0.54471 0.0
N1637 N 0.40287 0.33099 0.64068 0.0
H1638 H 0.6208 0.08301 0.52955 0.0
H1639 H 0.71855 0.11884 0.62522 0.0
H1640 H 0.67165 0.10376 0.46736 0.0
H1641 H 0.66748 0.09369 0.68754 0.0
H1642 H 0.7023 0.12023 0.56911 0.0
H1643 H 0.63829 0.09362 0.58854 0.0
C1644 C 0.63566 0.09012 0.52815 0.0
C1645 C 0.64475 0.09214 0.49346 0.0
C1646 C 0.69466 0.11466 0.59517 0.0
C1647 C 0.66484 0.10419 0.56104 0.0
C1648 C 0.70394 0.11387 0.62728 0.0
C1649 C 0.69428 0.10579 0.66093 0.0
C1650 C 0.67553 0.10716 0.59651 0.0
C1651 C 0.67543 0.09985 0.66209 0.0
C1652 C 0.64564 0.09614 0.56193 0.0
C1653 C 0.66403 0.10164 0.49346 0.0
N1654 N 0.6666 0.10035 0.63011 0.0
N1655 N 0.67341 0.10705 0.52679 0.0
H1656 H 0.75284 0.74729 0.62634 0.0
H1657 H 0.75755 0.75561 0.85125 0.0
H1658 H 0.7742 0.72115 0.69956 0.0
H1659 H 0.73522 0.78128 0.77924 0.0
H1660 H 0.77023 0.74891 0.79515 0.0
H1661 H 0.75265 0.76551 0.68044 0.0
C1662 C 0.75784 0.74565 0.65357 0.0
C1663 C 0.76317 0.7324 0.65862 0.0
C1664 C 0.76282 0.75629 0.79164 0.0
C1665 C 0.76284 0.75305 0.72066 0.0
C1666 C 0.75561 0.76018 0.82374 0.0
C1667 C 0.74492 0.76863 0.81991 0.0
C1668 C 0.75917 0.76073 0.75539 0.0
C1669 C 0.74309 0.77444 0.78354 0.0
C1670 C 0.75768 0.75601 0.6845 0.0
C1671 C 0.76962 0.73094 0.69451 0.0
N1672 N 0.74982 0.77006 0.75262 0.0
N1673 N 0.76902 0.74092 0.72423 0.0
H1674 H 0.2629 0.04842 0.6969 0.0
H1675 H 0.20921 0.94942 0.79305 0.0
H1676 H 0.24698 0.99755 0.63795 0.0
H1677 H 0.2396 0.00026 0.85515 0.0
H1678 H 0.21426 0.96701 0.73464 0.0
H1679 H 0.24574 0.03086 0.7525 0.0
C1680 C 0.25549 0.03356 0.6953 0.0
C1681 C 0.25673 0.02444 0.66294 0.0
C1682 C 0.2195 0.9743 0.76119 0.0
C1683 C 0.23709 0.00431 0.7266 0.0
C1684 C 0.21657 0.96428 0.79463 0.0
C1685 C 0.22436 0.97339 0.82897 0.0
C1686 C 0.2302 0.99354 0.76214 0.0
C1687 C 0.23362 0.99267 0.82923 0.0
C1688 C 0.24574 0.02355 0.72714 0.0
C1689 C 0.24666 0.00516 0.66248 0.0
N1690 N 0.23651 0.00211 0.7962 0.0
N1691 N 0.23747 0.99572 0.69406 0.0
H1692 H 0.95175 0.20991 0.69107 0.0
H1693 H 0.05605 0.26343 0.7564 0.0
H1694 H -0.00244 0.23529 0.61344 0.0
H1695 H 0.00995 0.2387 0.83351 0.0
H1696 H 0.03524 0.24754 0.70365 0.0
H1697 H 0.97299 0.21442 0.74258 0.0
C1698 C 0.96627 0.21615 0.68471 0.0
C1699 C 0.97293 0.22258 0.64803 0.0
C1700 C 0.0297 0.24534 0.73217 0.0
C1701 C -0.00261 0.22802 0.70709 0.0
C1702 C 0.04159 0.2544 0.76238 0.0
C1703 C 0.03468 0.25271 0.79939 0.0
C1704 C 0.01075 0.23459 0.73897 0.0
C1705 C 0.01587 0.24064 0.80541 0.0
C1706 C 0.97841 0.21874 0.71419 0.0
C1707 C 0.99184 0.2303 0.64136 0.0
N1708 N 0.00452 0.23229 0.77543 0.0
N1709 N 0.00345 0.23312 0.67077 0.0
H1710 H 0.23853 0.2374 0.19907 0.0
H1711 H 0.26378 0.25078 0.41705 0.0
H1712 H 0.27257 0.21853 0.25163 0.0
H1713 H 0.21887 0.25571 0.37065 0.0
H1714 H 0.26508 0.23612 0.3581 0.0
H1715 H 0.22891 0.24145 0.26221 0.0
C1716 C 0.24373 0.23379 0.2238 0.0
C1717 C 0.25661 0.22789 0.21996 0.0
C1718 C 0.25471 0.2401 0.36106 0.0
C1719 C 0.24585 0.23275 0.29236 0.0
C1720 C 0.25394 0.24845 0.3948 0.0
C1721 C 0.24136 0.2547 0.3987 0.0
C1722 C 0.24301 0.23826 0.33075 0.0
C1723 C 0.2289 0.25123 0.36888 0.0
C1724 C 0.23824 0.23612 0.25989 0.0
C1725 C 0.26279 0.22334 0.25311 0.0
N1726 N 0.23027 0.24357 0.33592 0.0
N1727 N 0.25761 0.22616 0.28786 0.0
H1728 H 0.7635 0.01143 0.16173 0.0
H1729 H 0.74839 0.98586 0.38073 0.0
H1730 H 0.78804 0.05108 0.25225 0.0
H1731 H 0.72382 0.94651 0.28972 0.0
H1732 H 0.76856 0.00885 0.33449 0.0
H1733 H 0.75467 0.98675 0.20793 0.0
C1734 C 0.76737 0.01498 0.19119 0.0
C1735 C 0.77616 0.03336 0.20324 0.0
C1736 C 0.75898 0.99508 0.32473 0.0
C1737 C 0.76585 0.00513 0.25643 0.0
C1738 C 0.74749 0.98192 0.35118 0.0
C1739 C 0.73411 0.96436 0.33898 0.0
C1740 C 0.75699 0.99064 0.28586 0.0
C1741 C 0.73369 0.96 0.30033 0.0
C1742 C 0.76227 0.00086 0.21763 0.0
C1743 C 0.78098 0.0371 0.24175 0.0
N1744 N 0.74472 0.97313 0.2751 0.0
N1745 N 0.77546 0.02311 0.26707 0.0
H1746 H 0.98671 0.76025 0.38002 0.0
H1747 H 0.99595 0.76309 0.15734 0.0
H1748 H 0.03787 0.79454 0.32152 0.0
H1749 H 0.94373 0.73867 0.21542 0.0
H1750 H 0.01118 0.7785 0.21631 0.0
H1751 H 0.97027 0.75598 0.3203 0.0
C1752 C 0.99446 0.76719 0.35479 0.0
C1753 C 0.01372 0.77745 0.35567 0.0
C1754 C 0.99635 0.77004 0.21599 0.0
C1755 C 0.99503 0.77237 0.287 0.0
C1756 C 0.98764 0.76123 0.18227 0.0
C1757 C 0.96857 0.74925 0.18159 0.0
C1758 C 0.98594 0.76664 0.24936 0.0
C1759 C 0.9585 0.74754 0.21472 0.0
C1760 C 0.98507 0.76473 0.32063 0.0
C1761 C 0.02303 0.78628 0.32213 0.0
N1762 N 0.96734 0.75583 0.24741 0.0
N1763 N 0.01363 0.78323 0.28902 0.0
loop_
_geom_bond_atom_site_label_1
_geom_bond_atom_site_label_2
_geom_bond_distance
_geom_bond_site_symmetry_2
_ccdc_geom_bond_type
C0 O1 1.160 . S
C0 O7 1.185 . S
O1 C0 1.160 . S
O2 Zn3 1.899 . S
O2 C10 1.284 . S
Zn3 O2 1.899 . S
Zn3 O4 2.032 . S
Zn3 O7 2.086 . S
Zn3 O12 1.977 . S
O4 Zn3 2.032 . S
O4 C8 1.278 . S
C5 O6 1.203 . S
C5 O12 1.267 . S
O6 C5 1.203 . S
O7 C0 1.185 . S
O7 Zn3 2.086 . S
C8 O4 1.278 . S
C8 O9 1.211 . S
O9 C8 1.211 . S
C10 O2 1.284 . S
C10 O11 1.273 . S
O11 C10 1.273 . S
O12 Zn3 1.977 . S
O12 C5 1.267 . S
C13 O14 1.160 . S
C13 O20 1.185 . S
O14 C13 1.160 . S
O15 Zn16 1.899 . S
O15 C23 1.284 . S
Zn16 O15 1.899 . S
Zn16 O17 2.032 . S
Zn16 O20 2.086 . S
Zn16 O25 1.977 . S
O17 Zn16 2.032 . S
O17 C21 1.278 . S
C18 O19 1.203 . S
C18 O25 1.267 . S
O19 C18 1.203 . S
O20 C13 1.185 . S
O20 Zn16 2.086 . S
C21 O17 1.278 . S
C21 O22 1.211 . S
O22 C21 1.211 . S
C23 O15 1.284 . S
C23 O24 1.273 . S
O24 C23 1.273 . S
O25 Zn16 1.977 . S
O25 C18 1.267 . S
C26 O27 1.160 . S
C26 O33 1.185 . S
O27 C26 1.160 . S
O28 Zn29 1.899 . S
O28 C36 1.284 . S
Zn29 O28 1.899 . S
Zn29 O30 2.032 . S
Zn29 O33 2.086 . S
Zn29 O38 1.977 . S
O30 Zn29 2.032 . S
O30 C34 1.278 . S
C31 O32 1.203 . S
C31 O38 1.267 . S
O32 C31 1.203 . S
O33 C26 1.185 . S
O33 Zn29 2.086 . S
C34 O30 1.278 . S
C34 O35 1.211 . S
O35 C34 1.211 . S
C36 O28 1.284 . S
C36 O37 1.273 . S
O37 C36 1.273 . S
O38 Zn29 1.977 . S
O38 C31 1.267 . S
C39 O40 1.160 . S
C39 O46 1.185 . S
O40 C39 1.160 . S
O41 Zn42 1.899 . S
O41 C49 1.284 . S
Zn42 O41 1.899 . S
Zn42 O43 2.032 . S
Zn42 O46 2.086 . S
Zn42 O51 1.977 . S
O43 Zn42 2.032 . S
O43 C47 1.278 . S
C44 O45 1.203 . S
C44 O51 1.267 . S
O45 C44 1.203 . S
O46 C39 1.185 . S
O46 Zn42 2.086 . S
C47 O43 1.278 . S
C47 O48 1.211 . S
O48 C47 1.211 . S
C49 O41 1.284 . S
C49 O50 1.273 . S
O50 C49 1.273 . S
O51 Zn42 1.977 . S
O51 C44 1.267 . S
C52 O53 1.160 . S
C52 O59 1.185 . S
O53 C52 1.160 . S
O54 Zn55 1.899 . S
O54 C62 1.284 . S
Zn55 O54 1.899 . S
Zn55 O56 2.032 . S
Zn55 O59 2.086 . S
Zn55 O64 1.977 . S
O56 Zn55 2.032 . S
O56 C60 1.278 . S
C57 O58 1.203 . S
C57 O64 1.267 . S
O58 C57 1.203 . S
O59 C52 1.185 . S
O59 Zn55 2.086 . S
C60 O56 1.278 . S
C60 O61 1.211 . S
O61 C60 1.211 . S
C62 O54 1.284 . S
C62 O63 1.273 . S
O63 C62 1.273 . S
O64 Zn55 1.977 . S
O64 C57 1.267 . S
C65 O66 1.160 . S
C65 O72 1.185 . S
O66 C65 1.160 . S
O67 Zn68 1.899 . S
O67 C75 1.284 . S
Zn68 O67 1.899 . S
Zn68 O69 2.032 . S
Zn68 O72 2.086 . S
Zn68 O77 1.977 . S
O69 Zn68 2.032 . S
O69 C73 1.278 . S
C70 O71 1.203 . S
C70 O77 1.267 . S
O71 C70 1.203 . S
O72 C65 1.185 . S
O72 Zn68 2.086 . S
C73 O69 1.278 . S
C73 O74 1.211 . S
O74 C73 1.211 . S
C75 O67 1.284 . S
C75 O76 1.273 . S
O76 C75 1.273 . S
O77 Zn68 1.977 . S
O77 C70 1.267 . S
C78 O79 1.160 . S
C78 O85 1.185 . S
O79 C78 1.160 . S
O80 Zn81 1.899 . S
O80 C88 1.284 . S
Zn81 O80 1.899 . S
Zn81 O82 2.032 . S
Zn81 O85 2.086 . S
Zn81 O90 1.977 . S
O82 Zn81 2.032 . S
O82 C86 1.278 . S
C83 O84 1.203 . S
C83 O90 1.267 . S
O84 C83 1.203 . S
O85 C78 1.185 . S
O85 Zn81 2.086 . S
C86 O82 1.278 . S
C86 O87 1.211 . S
O87 C86 1.211 . S
C88 O80 1.284 . S
C88 O89 1.273 . S
O89 C88 1.273 . S
O90 Zn81 1.977 . S
O90 C83 1.267 . S
C91 O92 1.160 . S
C91 O98 1.185 . S
O92 C91 1.160 . S
O93 Zn94 1.899 . S
O93 C101 1.284 . S
Zn94 O93 1.899 . S
Zn94 O95 2.032 . S
Zn94 O98 2.086 . S
Zn94 O103 1.977 . S
O95 Zn94 2.032 . S
O95 C99 1.278 . S
C96 O97 1.203 . S
C96 O103 1.267 . S
O97 C96 1.203 . S
O98 C91 1.185 . S
O98 Zn94 2.086 . S
C99 O95 1.278 . S
C99 O100 1.211 . S
O100 C99 1.211 . S
C101 O93 1.284 . S
C101 O102 1.273 . S
O102 C101 1.273 . S
O103 Zn94 1.977 . S
O103 C96 1.267 . S
C104 O105 1.160 . S
C104 O111 1.185 . S
O105 C104 1.160 . S
O106 Zn107 1.899 . S
O106 C114 1.284 . S
Zn107 O106 1.899 . S
Zn107 O108 2.032 . S
Zn107 O111 2.086 . S
Zn107 O116 1.977 . S
O108 Zn107 2.032 . S
O108 C112 1.278 . S
C109 O110 1.203 . S
C109 O116 1.267 . S
O110 C109 1.203 . S
O111 C104 1.185 . S
O111 Zn107 2.086 . S
C112 O108 1.278 . S
C112 O113 1.211 . S
O113 C112 1.211 . S
C114 O106 1.284 . S
C114 O115 1.273 . S
O115 C114 1.273 . S
O116 Zn107 1.977 . S
O116 C109 1.267 . S
C117 O118 1.160 . S
C117 O124 1.185 . S
O118 C117 1.160 . S
O119 Zn120 1.899 . S
O119 C127 1.284 . S
Zn120 O119 1.899 . S
Zn120 O121 2.032 . S
Zn120 O124 2.086 . S
Zn120 O129 1.977 . S
O121 Zn120 2.032 . S
O121 C125 1.278 . S
C122 O123 1.203 . S
C122 O129 1.267 . S
O123 C122 1.203 . S
O124 C117 1.185 . S
O124 Zn120 2.086 . S
C125 O121 1.278 . S
C125 O126 1.211 . S
O126 C125 1.211 . S
C127 O119 1.284 . S
C127 O128 1.273 . S
O128 C127 1.273 . S
O129 Zn120 1.977 . S
O129 C122 1.267 . S
C130 O131 1.160 . S
C130 O137 1.185 . S
O131 C130 1.160 . S
O132 Zn133 1.899 . S
O132 C140 1.284 . S
Zn133 O132 1.899 . S
Zn133 O134 2.032 . S
Zn133 O137 2.086 . S
Zn133 O142 1.977 . S
O134 Zn133 2.032 . S
O134 C138 1.278 . S
C135 O136 1.203 . S
C135 O142 1.267 . S
O136 C135 1.203 . S
O137 C130 1.185 . S
O137 Zn133 2.086 . S
C138 O134 1.278 . S
C138 O139 1.211 . S
O139 C138 1.211 . S
C140 O132 1.284 . S
C140 O141 1.273 . S
O141 C140 1.273 . S
O142 Zn133 1.977 . S
O142 C135 1.267 . S
C143 O144 1.160 . S
C143 O150 1.185 . S
O144 C143 1.160 . S
O145 Zn146 1.899 . S
O145 C153 1.284 . S
Zn146 O145 1.899 . S
Zn146 O147 2.032 . S
Zn146 O150 2.086 . S
Zn146 O155 1.977 . S
O147 Zn146 2.032 . S
O147 C151 1.278 . S
C148 O149 1.203 . S
C148 O155 1.267 . S
O149 C148 1.203 . S
O150 C143 1.185 . S
O150 Zn146 2.086 . S
C151 O147 1.278 . S
C151 O152 1.211 . S
O152 C151 1.211 . S
C153 O145 1.284 . S
C153 O154 1.273 . S
O154 C153 1.273 . S
O155 Zn146 1.977 . S
O155 C148 1.267 . S
C156 O157 1.160 . S
C156 O163 1.185 . S
O157 C156 1.160 . S
O158 Zn159 1.899 . S
O158 C166 1.284 . S
Zn159 O158 1.899 . S
Zn159 O160 2.032 . S
Zn159 O163 2.086 . S
Zn159 O168 1.977 1_455 S
O160 Zn159 2.032 . S
O160 C164 1.278 . S
C161 O162 1.203 1_655 S
C161 O168 1.267 . S
O162 C161 1.203 1_455 S
O163 C156 1.185 . S
O163 Zn159 2.086 . S
C164 O160 1.278 . S
C164 O165 1.211 . S
O165 C164 1.211 . S
C166 O158 1.284 . S
C166 O167 1.273 . S
O167 C166 1.273 . S
O168 Zn159 1.977 1_655 S
O168 C161 1.267 . S
C169 O170 1.160 . S
C169 O176 1.185 . S
O170 C169 1.160 . S
O171 Zn172 1.899 . S
O171 C179 1.284 . S
Zn172 O171 1.899 . S
Zn172 O173 2.032 . S
Zn172 O176 2.086 . S
Zn172 O181 1.977 . S
O173 Zn172 2.032 . S
O173 C177 1.278 . S
C174 O175 1.203 . S
C174 O181 1.267 . S
O175 C174 1.203 . S
O176 C169 1.185 . S
O176 Zn172 2.086 . S
C177 O173 1.278 . S
C177 O178 1.211 . S
O178 C177 1.211 . S
C179 O171 1.284 . S
C179 O180 1.273 . S
O180 C179 1.273 . S
O181 Zn172 1.977 . S
O181 C174 1.267 . S
C182 O183 1.160 . S
C182 O189 1.185 . S
O183 C182 1.160 . S
O184 Zn185 1.899 . S
O184 C192 1.284 . S
Zn185 O184 1.899 . S
Zn185 O186 2.032 . S
Zn185 O189 2.086 . S
Zn185 O194 1.977 1_565 S
O186 Zn185 2.032 . S
O186 C190 1.278 . S
C187 O188 1.203 1_545 S
C187 O194 1.267 . S
O188 C187 1.203 1_565 S
O189 C182 1.185 . S
O189 Zn185 2.086 . S
C190 O186 1.278 . S
C190 O191 1.211 . S
O191 C190 1.211 . S
C192 O184 1.284 . S
C192 O193 1.273 . S
O193 C192 1.273 . S
O194 Zn185 1.977 1_545 S
O194 C187 1.267 . S
C195 O196 1.160 . S
C195 O202 1.185 . S
O196 C195 1.160 . S
O197 Zn198 1.899 . S
O197 C205 1.284 . S
Zn198 O197 1.899 . S
Zn198 O199 2.032 . S
Zn198 O202 2.086 . S
Zn198 O207 1.977 . S
O199 Zn198 2.032 . S
O199 C203 1.278 . S
C200 O201 1.203 . S
C200 O207 1.267 . S
O201 C200 1.203 . S
O202 C195 1.185 . S
O202 Zn198 2.086 . S
C203 O199 1.278 . S
C203 O204 1.211 . S
O204 C203 1.211 . S
C205 O197 1.284 . S
C205 O206 1.273 . S
O206 C205 1.273 . S
O207 Zn198 1.977 . S
O207 C200 1.267 . S
C208 O209 1.160 . S
C208 O215 1.185 . S
O209 C208 1.160 . S
O210 Zn211 1.899 . S
O210 C218 1.284 . S
Zn211 O210 1.899 . S
Zn211 O212 2.032 . S
Zn211 O215 2.086 . S
Zn211 O220 1.977 . S
O212 Zn211 2.032 . S
O212 C216 1.278 . S
C213 O214 1.203 . S
C213 O220 1.267 . S
O214 C213 1.203 . S
O215 C208 1.185 . S
O215 Zn211 2.086 . S
C216 O212 1.278 . S
C216 O217 1.211 . S
O217 C216 1.211 . S
C218 O210 1.284 . S
C218 O219 1.273 . S
O219 C218 1.273 . S
O220 Zn211 1.977 . S
O220 C213 1.267 . S
C221 O222 1.160 . S
C221 O228 1.185 . S
O222 C221 1.160 . S
O223 Zn224 1.899 . S
O223 C231 1.284 . S
Zn224 O223 1.899 . S
Zn224 O225 2.032 . S
Zn224 O228 2.086 . S
Zn224 O233 1.977 . S
O225 Zn224 2.032 . S
O225 C229 1.278 . S
C226 O227 1.203 . S
C226 O233 1.267 . S
O227 C226 1.203 . S
O228 C221 1.185 . S
O228 Zn224 2.086 . S
C229 O225 1.278 . S
C229 O230 1.211 . S
O230 C229 1.211 . S
C231 O223 1.284 . S
C231 O232 1.273 . S
O232 C231 1.273 . S
O233 Zn224 1.977 . S
O233 C226 1.267 . S
C234 O235 1.160 . S
C234 O241 1.185 . S
O235 C234 1.160 . S
O236 Zn237 1.899 . S
O236 C244 1.284 . S
Zn237 O236 1.899 . S
Zn237 O238 2.032 . S
Zn237 O241 2.086 . S
Zn237 O246 1.977 . S
O238 Zn237 2.032 . S
O238 C242 1.278 . S
C239 O240 1.203 . S
C239 O246 1.267 . S
O240 C239 1.203 . S
O241 C234 1.185 . S
O241 Zn237 2.086 . S
C242 O238 1.278 . S
C242 O243 1.211 . S
O243 C242 1.211 . S
C244 O236 1.284 . S
C244 O245 1.273 . S
O245 C244 1.273 . S
O246 Zn237 1.977 . S
O246 C239 1.267 . S
C247 O248 1.160 . S
C247 O254 1.185 . S
O248 C247 1.160 . S
O249 Zn250 1.899 . S
O249 C257 1.284 . S
Zn250 O249 1.899 . S
Zn250 O251 2.032 . S
Zn250 O254 2.086 . S
Zn250 O259 1.977 . S
O251 Zn250 2.032 . S
O251 C255 1.278 . S
C252 O253 1.203 . S
C252 O259 1.267 . S
O253 C252 1.203 . S
O254 C247 1.185 . S
O254 Zn250 2.086 . S
C255 O251 1.278 . S
C255 O256 1.211 . S
O256 C255 1.211 . S
C257 O249 1.284 . S
C257 O258 1.273 . S
O258 C257 1.273 . S
O259 Zn250 1.977 . S
O259 C252 1.267 . S
C260 O261 1.160 . S
C260 O267 1.185 . S
O261 C260 1.160 . S
O262 Zn263 1.899 . S
O262 C270 1.284 . S
Zn263 O262 1.899 . S
Zn263 O264 2.032 . S
Zn263 O267 2.086 . S
Zn263 O272 1.977 . S
O264 Zn263 2.032 . S
O264 C268 1.278 . S
C265 O266 1.203 . S
C265 O272 1.267 . S
O266 C265 1.203 . S
O267 C260 1.185 . S
O267 Zn263 2.086 . S
C268 O264 1.278 . S
C268 O269 1.211 . S
O269 C268 1.211 . S
C270 O262 1.284 . S
C270 O271 1.273 . S
O271 C270 1.273 . S
O272 Zn263 1.977 . S
O272 C265 1.267 . S
C273 O274 1.160 . S
C273 O280 1.185 . S
O274 C273 1.160 . S
O275 Zn276 1.899 . S
O275 C283 1.284 . S
Zn276 O275 1.899 . S
Zn276 O277 2.032 . S
Zn276 O280 2.086 . S
Zn276 O285 1.977 1_565 S
O277 Zn276 2.032 . S
O277 C281 1.278 . S
C278 O279 1.203 1_545 S
C278 O285 1.267 . S
O279 C278 1.203 1_565 S
O280 C273 1.185 . S
O280 Zn276 2.086 . S
C281 O277 1.278 . S
C281 O282 1.211 . S
O282 C281 1.211 . S
C283 O275 1.284 . S
C283 O284 1.273 . S
O284 C283 1.273 . S
O285 Zn276 1.977 1_545 S
O285 C278 1.267 . S
C286 O287 1.160 . S
C286 O293 1.185 . S
O287 C286 1.160 . S
O288 Zn289 1.899 . S
O288 C296 1.284 . S
Zn289 O288 1.899 . S
Zn289 O290 2.032 . S
Zn289 O293 2.086 . S
Zn289 O298 1.977 1_455 S
O290 Zn289 2.032 . S
O290 C294 1.278 . S
C291 O292 1.203 1_655 S
C291 O298 1.267 . S
O292 C291 1.203 1_455 S
O293 C286 1.185 . S
O293 Zn289 2.086 . S
C294 O290 1.278 . S
C294 O295 1.211 . S
O295 C294 1.211 . S
C296 O288 1.284 . S
C296 O297 1.273 . S
O297 C296 1.273 . S
O298 Zn289 1.977 1_655 S
O298 C291 1.267 . S
C299 O300 1.160 . S
C299 O306 1.185 . S
O300 C299 1.160 . S
O301 Zn302 1.899 . S
O301 C309 1.284 . S
Zn302 O301 1.899 . S
Zn302 O303 2.032 . S
Zn302 O306 2.086 . S
Zn302 O311 1.977 . S
O303 Zn302 2.032 . S
O303 C307 1.278 . S
C304 O305 1.203 . S
C304 O311 1.267 . S
O305 C304 1.203 . S
O306 C299 1.185 . S
O306 Zn302 2.086 . S
C307 O303 1.278 . S
C307 O308 1.211 . S
O308 C307 1.211 . S
C309 O301 1.284 . S
C309 O310 1.273 . S
O310 C309 1.273 . S
O311 Zn302 1.977 . S
O311 C304 1.267 . S
C312 O313 1.160 . S
C312 O319 1.185 . S
O313 C312 1.160 . S
O314 Zn315 1.899 . S
O314 C322 1.284 . S
Zn315 O314 1.899 . S
Zn315 O316 2.032 . S
Zn315 O319 2.086 . S
Zn315 O324 1.977 . S
O316 Zn315 2.032 . S
O316 C320 1.278 . S
C317 O318 1.203 . S
C317 O324 1.267 . S
O318 C317 1.203 . S
O319 C312 1.185 . S
O319 Zn315 2.086 . S
C320 O316 1.278 . S
C320 O321 1.211 . S
O321 C320 1.211 . S
C322 O314 1.284 . S
C322 O323 1.273 . S
O323 C322 1.273 . S
O324 Zn315 1.977 . S
O324 C317 1.267 . S
C325 O326 1.160 . S
C325 O332 1.185 . S
O326 C325 1.160 . S
O327 Zn328 1.899 . S
O327 C335 1.284 . S
Zn328 O327 1.899 . S
Zn328 O329 2.032 . S
Zn328 O332 2.086 . S
Zn328 O337 1.977 . S
O329 Zn328 2.032 . S
O329 C333 1.278 . S
C330 O331 1.203 . S
C330 O337 1.267 . S
O331 C330 1.203 . S
O332 C325 1.185 . S
O332 Zn328 2.086 . S
C333 O329 1.278 . S
C333 O334 1.211 . S
O334 C333 1.211 . S
C335 O327 1.284 . S
C335 O336 1.273 . S
O336 C335 1.273 . S
O337 Zn328 1.977 . S
O337 C330 1.267 . S
C338 O339 1.160 . S
C338 O345 1.185 . S
O339 C338 1.160 . S
O340 Zn341 1.899 . S
O340 C348 1.284 . S
Zn341 O340 1.899 . S
Zn341 O342 2.032 . S
Zn341 O345 2.086 . S
Zn341 O350 1.977 . S
O342 Zn341 2.032 . S
O342 C346 1.278 . S
C343 O344 1.203 . S
C343 O350 1.267 . S
O344 C343 1.203 . S
O345 C338 1.185 . S
O345 Zn341 2.086 . S
C346 O342 1.278 . S
C346 O347 1.211 . S
O347 C346 1.211 . S
C348 O340 1.284 . S
C348 O349 1.273 . S
O349 C348 1.273 . S
O350 Zn341 1.977 . S
O350 C343 1.267 . S
C351 O352 1.160 . S
C351 O358 1.185 . S
O352 C351 1.160 . S
O353 Zn354 1.899 . S
O353 C361 1.284 . S
Zn354 O353 1.899 . S
Zn354 O355 2.032 . S
Zn354 O358 2.086 . S
Zn354 O363 1.977 1_545 S
O355 Zn354 2.032 . S
O355 C359 1.278 . S
C356 O357 1.203 1_565 S
C356 O363 1.267 . S
O357 C356 1.203 1_545 S
O358 C351 1.185 . S
O358 Zn354 2.086 . S
C359 O355 1.278 . S
C359 O360 1.211 . S
O360 C359 1.211 . S
C361 O353 1.284 . S
C361 O362 1.273 . S
O362 C361 1.273 . S
O363 Zn354 1.977 1_565 S
O363 C356 1.267 . S
C364 O365 1.160 . S
C364 O371 1.185 . S
O365 C364 1.160 . S
O366 Zn367 1.899 . S
O366 C374 1.284 . S
Zn367 O366 1.899 . S
Zn367 O368 2.032 . S
Zn367 O371 2.086 . S
Zn367 O376 1.977 1_655 S
O368 Zn367 2.032 . S
O368 C372 1.278 . S
C369 O370 1.203 1_455 S
C369 O376 1.267 . S
O370 C369 1.203 1_655 S
O371 C364 1.185 . S
O371 Zn367 2.086 . S
C372 O368 1.278 . S
C372 O373 1.211 . S
O373 C372 1.211 . S
C374 O366 1.284 . S
C374 O375 1.273 . S
O375 C374 1.273 . S
O376 Zn367 1.977 1_455 S
O376 C369 1.267 . S
C377 O378 1.160 . S
C377 O384 1.185 . S
O378 C377 1.160 . S
O379 Zn380 1.899 . S
O379 C387 1.284 . S
Zn380 O379 1.899 . S
Zn380 O381 2.032 . S
Zn380 O384 2.086 . S
Zn380 O389 1.977 . S
O381 Zn380 2.032 . S
O381 C385 1.278 . S
C382 O383 1.203 . S
C382 O389 1.267 . S
O383 C382 1.203 . S
O384 C377 1.185 . S
O384 Zn380 2.086 . S
C385 O381 1.278 . S
C385 O386 1.211 . S
O386 C385 1.211 . S
C387 O379 1.284 . S
C387 O388 1.273 . S
O388 C387 1.273 . S
O389 Zn380 1.977 . S
O389 C382 1.267 . S
C390 O391 1.160 . S
C390 O397 1.185 . S
O391 C390 1.160 . S
O392 Zn393 1.899 . S
O392 C400 1.284 . S
Zn393 O392 1.899 . S
Zn393 O394 2.032 . S
Zn393 O397 2.086 . S
Zn393 O402 1.977 1_655 S
O394 Zn393 2.032 . S
O394 C398 1.278 . S
C395 O396 1.203 1_455 S
C395 O402 1.267 . S
O396 C395 1.203 1_655 S
O397 C390 1.185 . S
O397 Zn393 2.086 . S
C398 O394 1.278 . S
C398 O399 1.211 . S
O399 C398 1.211 . S
C400 O392 1.284 . S
C400 O401 1.273 . S
O401 C400 1.273 . S
O402 Zn393 1.977 1_455 S
O402 C395 1.267 . S
C403 O404 1.160 . S
C403 O410 1.185 . S
O404 C403 1.160 . S
O405 Zn406 1.899 . S
O405 C413 1.284 . S
Zn406 O405 1.899 . S
Zn406 O407 2.032 . S
Zn406 O410 2.086 . S
Zn406 O415 1.977 . S
O407 Zn406 2.032 . S
O407 C411 1.278 . S
C408 O409 1.203 . S
C408 O415 1.267 . S
O409 C408 1.203 . S
O410 C403 1.185 . S
O410 Zn406 2.086 . S
C411 O407 1.278 . S
C411 O412 1.211 . S
O412 C411 1.211 . S
C413 O405 1.284 . S
C413 O414 1.273 . S
O414 C413 1.273 . S
O415 Zn406 1.977 . S
O415 C408 1.267 . S
C416 O417 1.160 . S
C416 O423 1.185 . S
O417 C416 1.160 . S
O418 Zn419 1.899 . S
O418 C426 1.284 . S
Zn419 O418 1.899 . S
Zn419 O420 2.032 . S
Zn419 O423 2.086 . S
Zn419 O428 1.977 1_545 S
O420 Zn419 2.032 . S
O420 C424 1.278 . S
C421 O422 1.203 1_565 S
C421 O428 1.267 . S
O422 C421 1.203 1_545 S
O423 C416 1.185 . S
O423 Zn419 2.086 . S
C424 O420 1.278 . S
C424 O425 1.211 . S
O425 C424 1.211 . S
C426 O418 1.284 . S
C426 O427 1.273 . S
O427 C426 1.273 . S
O428 Zn419 1.977 1_565 S
O428 C421 1.267 . S
C429 O430 1.160 . S
C429 O436 1.185 . S
O430 C429 1.160 . S
O431 Zn432 1.899 . S
O431 C439 1.284 . S
Zn432 O431 1.899 . S
Zn432 O433 2.032 . S
Zn432 O436 2.086 . S
Zn432 O441 1.977 . S
O433 Zn432 2.032 . S
O433 C437 1.278 . S
C434 O435 1.203 . S
C434 O441 1.267 . S
O435 C434 1.203 . S
O436 C429 1.185 . S
O436 Zn432 2.086 . S
C437 O433 1.278 . S
C437 O438 1.211 . S
O438 C437 1.211 . S
C439 O431 1.284 . S
C439 O440 1.273 . S
O440 C439 1.273 . S
O441 Zn432 1.977 . S
O441 C434 1.267 . S
C442 O443 1.160 . S
C442 O449 1.185 . S
O443 C442 1.160 . S
O444 Zn445 1.899 . S
O444 C452 1.284 . S
Zn445 O444 1.899 . S
Zn445 O446 2.032 . S
Zn445 O449 2.086 . S
Zn445 O454 1.977 . S
O446 Zn445 2.032 . S
O446 C450 1.278 . S
C447 O448 1.203 . S
C447 O454 1.267 . S
O448 C447 1.203 . S
O449 C442 1.185 . S
O449 Zn445 2.086 . S
C450 O446 1.278 . S
C450 O451 1.211 . S
O451 C450 1.211 . S
C452 O444 1.284 . S
C452 O453 1.273 . S
O453 C452 1.273 . S
O454 Zn445 1.977 . S
O454 C447 1.267 . S
C455 O456 1.160 . S
C455 O462 1.185 . S
O456 C455 1.160 . S
O457 Zn458 1.899 . S
O457 C465 1.284 . S
Zn458 O457 1.899 . S
Zn458 O459 2.032 . S
Zn458 O462 2.086 . S
Zn458 O467 1.977 . S
O459 Zn458 2.032 . S
O459 C463 1.278 . S
C460 O461 1.203 . S
C460 O467 1.267 . S
O461 C460 1.203 . S
O462 C455 1.185 . S
O462 Zn458 2.086 . S
C463 O459 1.278 . S
C463 O464 1.211 . S
O464 C463 1.211 . S
C465 O457 1.284 . S
C465 O466 1.273 . S
O466 C465 1.273 . S
O467 Zn458 1.977 . S
O467 C460 1.267 . S
H468 C474 0.930 . S
H469 C478 0.930 . S
H470 C483 0.929 . S
H471 C481 0.929 . S
H472 C476 0.929 . S
H473 C482 0.929 . S
C474 H468 0.930 . S
C474 C475 1.367 . S
C474 C482 1.378 . S
C475 C474 1.367 . S
C475 C483 1.433 . S
C476 H472 0.929 . S
C476 C478 1.378 . S
C476 C480 1.350 . S
C477 C480 1.463 1_565 S
C477 C482 1.350 . S
C477 N485 1.427 . S
C478 H469 0.930 . S
C478 C476 1.378 . S
C478 C479 1.367 . S
C479 C478 1.367 . S
C479 C481 1.433 . S
C480 C476 1.350 . S
C480 C477 1.463 1_545 S
C480 N484 1.427 . S
C481 H471 0.929 . S
C481 C479 1.433 . S
C481 N484 1.384 . S
C482 H473 0.929 . S
C482 C474 1.378 . S
C482 C477 1.350 . S
C483 H470 0.929 . S
C483 C475 1.433 . S
C483 N485 1.384 . S
N484 C480 1.427 . S
N484 C481 1.384 . S
N485 C477 1.427 . S
N485 C483 1.384 . S
H486 C492 0.930 . S
H487 C496 0.930 . S
H488 C501 0.929 . S
H489 C499 0.929 . S
H490 C494 0.929 . S
H491 C500 0.929 . S
C492 H486 0.930 . S
C492 C493 1.367 . S
C492 C500 1.378 . S
C493 C492 1.367 . S
C493 C501 1.433 . S
C494 H490 0.929 . S
C494 C496 1.378 . S
C494 C498 1.350 . S
C495 C498 1.463 1_455 S
C495 C500 1.350 . S
C495 N503 1.427 . S
C496 H487 0.930 . S
C496 C494 1.378 . S
C496 C497 1.367 . S
C497 C496 1.367 . S
C497 C499 1.433 . S
C498 C494 1.350 . S
C498 C495 1.463 1_655 S
C498 N502 1.427 . S
C499 H489 0.929 . S
C499 C497 1.433 . S
C499 N502 1.384 . S
C500 H491 0.929 . S
C500 C492 1.378 . S
C500 C495 1.350 . S
C501 H488 0.929 . S
C501 C493 1.433 . S
C501 N503 1.384 . S
N502 C498 1.427 . S
N502 C499 1.384 . S
N503 C495 1.427 . S
N503 C501 1.384 . S
H504 C510 0.930 . S
H505 C514 0.930 . S
H506 C519 0.929 . S
H507 C517 0.929 . S
H508 C512 0.929 . S
H509 C518 0.929 . S
C510 H504 0.930 . S
C510 C511 1.367 . S
C510 C518 1.378 . S
C511 C510 1.367 . S
C511 C519 1.433 . S
C512 H508 0.929 . S
C512 C514 1.378 . S
C512 C516 1.350 . S
C513 C516 1.463 . S
C513 C518 1.350 . S
C513 N521 1.427 . S
C514 H505 0.930 . S
C514 C512 1.378 . S
C514 C515 1.367 . S
C515 C514 1.367 . S
C515 C517 1.433 . S
C516 C512 1.350 . S
C516 C513 1.463 . S
C516 N520 1.427 . S
C517 H507 0.929 . S
C517 C515 1.433 . S
C517 N520 1.384 . S
C518 H509 0.929 . S
C518 C510 1.378 . S
C518 C513 1.350 . S
C519 H506 0.929 . S
C519 C511 1.433 . S
C519 N521 1.384 . S
N520 C516 1.427 . S
N520 C517 1.384 . S
N521 C513 1.427 . S
N521 C519 1.384 . S
H522 C528 0.930 . S
H523 C532 0.930 . S
H524 C537 0.929 . S
H525 C535 0.929 . S
H526 C530 0.929 . S
H527 C536 0.929 . S
C528 H522 0.930 . S
C528 C529 1.367 . S
C528 C536 1.378 . S
C529 C528 1.367 . S
C529 C537 1.433 . S
C530 H526 0.929 . S
C530 C532 1.378 . S
C530 C534 1.350 . S
C531 C534 1.463 1_565 S
C531 C536 1.350 . S
C531 N539 1.427 . S
C532 H523 0.930 . S
C532 C530 1.378 . S
C532 C533 1.367 . S
C533 C532 1.367 . S
C533 C535 1.433 . S
C534 C530 1.350 . S
C534 C531 1.463 1_545 S
C534 N538 1.427 . S
C535 H525 0.929 . S
C535 C533 1.433 . S
C535 N538 1.384 . S
C536 H527 0.929 . S
C536 C528 1.378 . S
C536 C531 1.350 . S
C537 H524 0.929 . S
C537 C529 1.433 . S
C537 N539 1.384 . S
N538 C534 1.427 . S
N538 C535 1.384 . S
N539 C531 1.427 . S
N539 C537 1.384 . S
H540 C546 0.930 . S
H541 C550 0.930 . S
H542 C555 0.929 . S
H543 C553 0.929 . S
H544 C548 0.929 . S
H545 C554 0.929 . S
C546 H540 0.930 . S
C546 C547 1.367 . S
C546 C554 1.378 . S
C547 C546 1.367 . S
C547 C555 1.433 . S
C548 H544 0.929 . S
C548 C550 1.378 . S
C548 C552 1.350 . S
C549 C552 1.463 1_455 S
C549 C554 1.350 . S
C549 N557 1.427 . S
C550 H541 0.930 . S
C550 C548 1.378 . S
C550 C551 1.367 . S
C551 C550 1.367 . S
C551 C553 1.433 . S
C552 C548 1.350 . S
C552 C549 1.463 1_655 S
C552 N556 1.427 . S
C553 H543 0.929 . S
C553 C551 1.433 . S
C553 N556 1.384 . S
C554 H545 0.929 . S
C554 C546 1.378 . S
C554 C549 1.350 . S
C555 H542 0.929 . S
C555 C547 1.433 . S
C555 N557 1.384 . S
N556 C552 1.427 . S
N556 C553 1.384 . S
N557 C549 1.427 . S
N557 C555 1.384 . S
H558 C564 0.930 . S
H559 C568 0.930 . S
H560 C573 0.929 . S
H561 C571 0.929 . S
H562 C566 0.929 . S
H563 C572 0.929 . S
C564 H558 0.930 . S
C564 C565 1.367 . S
C564 C572 1.378 . S
C565 C564 1.367 . S
C565 C573 1.433 . S
C566 H562 0.929 . S
C566 C568 1.378 . S
C566 C570 1.350 . S
C567 C570 1.463 . S
C567 C572 1.350 . S
C567 N575 1.427 . S
C568 H559 0.930 . S
C568 C566 1.378 . S
C568 C569 1.367 . S
C569 C568 1.367 . S
C569 C571 1.433 . S
C570 C566 1.350 . S
C570 C567 1.463 . S
C570 N574 1.427 . S
C571 H561 0.929 . S
C571 C569 1.433 . S
C571 N574 1.384 . S
C572 H563 0.929 . S
C572 C564 1.378 . S
C572 C567 1.350 . S
C573 H560 0.929 . S
C573 C565 1.433 . S
C573 N575 1.384 . S
N574 C570 1.427 . S
N574 C571 1.384 . S
N575 C567 1.427 . S
N575 C573 1.384 . S
H576 C582 0.930 . S
H577 C586 0.930 . S
H578 C591 0.929 . S
H579 C589 0.929 . S
H580 C584 0.929 . S
H581 C590 0.929 . S
C582 H576 0.930 . S
C582 C583 1.367 . S
C582 C590 1.378 . S
C583 C582 1.367 . S
C583 C591 1.433 . S
C584 H580 0.929 . S
C584 C586 1.378 . S
C584 C588 1.350 . S
C585 C588 1.463 . S
C585 C590 1.350 . S
C585 N593 1.427 . S
C586 H577 0.930 . S
C586 C584 1.378 . S
C586 C587 1.367 . S
C587 C586 1.367 . S
C587 C589 1.433 . S
C588 C584 1.350 . S
C588 C585 1.463 . S
C588 N592 1.427 . S
C589 H579 0.929 . S
C589 C587 1.433 . S
C589 N592 1.384 . S
C590 H581 0.929 . S
C590 C582 1.378 . S
C590 C585 1.350 . S
C591 H578 0.929 . S
C591 C583 1.433 . S
C591 N593 1.384 . S
N592 C588 1.427 . S
N592 C589 1.384 . S
N593 C585 1.427 . S
N593 C591 1.384 . S
H594 C600 0.930 . S
H595 C604 0.930 . S
H596 C609 0.929 . S
H597 C607 0.929 . S
H598 C602 0.929 . S
H599 C608 0.929 . S
C600 H594 0.930 . S
C600 C601 1.367 . S
C600 C608 1.378 . S
C601 C600 1.367 . S
C601 C609 1.433 . S
C602 H598 0.929 . S
C602 C604 1.378 . S
C602 C606 1.350 . S
C603 C606 1.463 . S
C603 C608 1.350 . S
C603 N611 1.427 . S
C604 H595 0.930 . S
C604 C602 1.378 . S
C604 C605 1.367 . S
C605 C604 1.367 . S
C605 C607 1.433 . S
C606 C602 1.350 . S
C606 C603 1.463 . S
C606 N610 1.427 . S
C607 H597 0.929 . S
C607 C605 1.433 . S
C607 N610 1.384 . S
C608 H599 0.929 . S
C608 C600 1.378 . S
C608 C603 1.350 . S
C609 H596 0.929 . S
C609 C601 1.433 . S
C609 N611 1.384 . S
N610 C606 1.427 . S
N610 C607 1.384 . S
N611 C603 1.427 . S
N611 C609 1.384 . S
H612 C618 0.930 . S
H613 C622 0.930 . S
H614 C627 0.929 . S
H615 C625 0.929 . S
H616 C620 0.929 . S
H617 C626 0.929 . S
C618 H612 0.930 . S
C618 C619 1.367 . S
C618 C626 1.378 . S
C619 C618 1.367 . S
C619 C627 1.433 . S
C620 H616 0.929 . S
C620 C622 1.378 . S
C620 C624 1.350 . S
C621 C624 1.463 . S
C621 C626 1.350 . S
C621 N629 1.427 . S
C622 H613 0.930 . S
C622 C620 1.378 . S
C622 C623 1.367 . S
C623 C622 1.367 . S
C623 C625 1.433 . S
C624 C620 1.350 . S
C624 C621 1.463 . S
C624 N628 1.427 . S
C625 H615 0.929 . S
C625 C623 1.433 . S
C625 N628 1.384 . S
C626 H617 0.929 . S
C626 C618 1.378 . S
C626 C621 1.350 . S
C627 H614 0.929 . S
C627 C619 1.433 . S
C627 N629 1.384 . S
N628 C624 1.427 . S
N628 C625 1.384 . S
N629 C621 1.427 . S
N629 C627 1.384 . S
H630 C636 0.930 . S
H631 C640 0.930 . S
H632 C645 0.929 . S
H633 C643 0.929 . S
H634 C638 0.929 . S
H635 C644 0.929 . S
C636 H630 0.930 . S
C636 C637 1.367 . S
C636 C644 1.378 . S
C637 C636 1.367 . S
C637 C645 1.433 . S
C638 H634 0.929 . S
C638 C640 1.378 . S
C638 C642 1.350 . S
C639 C642 1.463 . S
C639 C644 1.350 . S
C639 N647 1.427 . S
C640 H631 0.930 . S
C640 C638 1.378 . S
C640 C641 1.367 . S
C641 C640 1.367 . S
C641 C643 1.433 . S
C642 C638 1.350 . S
C642 C639 1.463 . S
C642 N646 1.427 . S
C643 H633 0.929 . S
C643 C641 1.433 . S
C643 N646 1.384 . S
C644 H635 0.929 . S
C644 C636 1.378 . S
C644 C639 1.350 . S
C645 H632 0.929 . S
C645 C637 1.433 . S
C645 N647 1.384 . S
N646 C642 1.427 . S
N646 C643 1.384 . S
N647 C639 1.427 . S
N647 C645 1.384 . S
H648 C654 0.930 1_565 S
H649 C658 0.930 . S
H650 C663 0.929 . S
H651 C661 0.929 . S
H652 C656 0.929 . S
H653 C662 0.929 . S
C654 H648 0.930 1_545 S
C654 C655 1.367 . S
C654 C662 1.378 . S
C655 C654 1.367 . S
C655 C663 1.433 . S
C656 H652 0.929 . S
C656 C658 1.378 . S
C656 C660 1.350 . S
C657 C660 1.463 . S
C657 C662 1.350 . S
C657 N665 1.427 . S
C658 H649 0.930 . S
C658 C656 1.378 . S
C658 C659 1.367 . S
C659 C658 1.367 . S
C659 C661 1.433 . S
C660 C656 1.350 . S
C660 C657 1.463 . S
C660 N664 1.427 . S
C661 H651 0.929 . S
C661 C659 1.433 . S
C661 N664 1.384 . S
C662 H653 0.929 . S
C662 C654 1.378 . S
C662 C657 1.350 . S
C663 H650 0.929 . S
C663 C655 1.433 . S
C663 N665 1.384 . S
N664 C660 1.427 . S
N664 C661 1.384 . S
N665 C657 1.427 . S
N665 C663 1.384 . S
H666 C672 0.930 . S
H667 C676 0.930 . S
H668 C681 0.929 . S
H669 C679 0.929 1_455 S
H670 C674 0.929 . S
H671 C680 0.929 . S
C672 H666 0.930 . S
C672 C673 1.367 . S
C672 C680 1.378 . S
C673 C672 1.367 . S
C673 C681 1.433 . S
C674 H670 0.929 . S
C674 C676 1.378 . S
C674 C678 1.350 . S
C675 C678 1.463 . S
C675 C680 1.350 . S
C675 N683 1.427 . S
C676 H667 0.930 . S
C676 C674 1.378 . S
C676 C677 1.367 . S
C677 C676 1.367 . S
C677 C679 1.433 . S
C678 C674 1.350 . S
C678 C675 1.463 . S
C678 N682 1.427 . S
C679 H669 0.929 1_655 S
C679 C677 1.433 . S
C679 N682 1.384 . S
C680 H671 0.929 . S
C680 C672 1.378 . S
C680 C675 1.350 . S
C681 H668 0.929 . S
C681 C673 1.433 . S
C681 N683 1.384 . S
N682 C678 1.427 . S
N682 C679 1.384 . S
N683 C675 1.427 . S
N683 C681 1.384 . S
H684 C690 0.930 . S
H685 C694 0.930 . S
H686 C699 0.929 . S
H687 C697 0.929 . S
H688 C692 0.929 . S
H689 C698 0.929 . S
C690 H684 0.930 . S
C690 C691 1.367 . S
C690 C698 1.378 . S
C691 C690 1.367 . S
C691 C699 1.433 . S
C692 H688 0.929 . S
C692 C694 1.378 . S
C692 C696 1.350 . S
C693 C696 1.463 . S
C693 C698 1.350 . S
C693 N701 1.427 . S
C694 H685 0.930 . S
C694 C692 1.378 . S
C694 C695 1.367 . S
C695 C694 1.367 . S
C695 C697 1.433 . S
C696 C692 1.350 . S
C696 C693 1.463 . S
C696 N700 1.427 . S
C697 H687 0.929 . S
C697 C695 1.433 . S
C697 N700 1.384 . S
C698 H689 0.929 . S
C698 C690 1.378 . S
C698 C693 1.350 . S
C699 H686 0.929 . S
C699 C691 1.433 . S
C699 N701 1.384 . S
N700 C696 1.427 . S
N700 C697 1.384 . S
N701 C693 1.427 . S
N701 C699 1.384 . S
H702 C708 0.930 . S
H703 C712 0.930 . S
H704 C717 0.931 . S
H705 C715 0.929 . S
H706 C710 0.929 . S
H707 C716 0.929 . S
C708 H702 0.930 . S
C708 C709 1.367 . S
C708 C716 1.378 . S
C709 C708 1.367 . S
C709 C717 1.433 . S
C710 H706 0.929 . S
C710 C712 1.378 . S
C710 C714 1.350 . S
C711 C714 1.463 . S
C711 C716 1.350 . S
C711 N719 1.427 . S
C712 H703 0.930 . S
C712 C710 1.378 . S
C712 C713 1.367 . S
C713 C712 1.367 . S
C713 C715 1.433 . S
C714 C710 1.350 . S
C714 C711 1.463 . S
C714 N718 1.427 . S
C715 H705 0.929 . S
C715 C713 1.433 . S
C715 N718 1.384 . S
C716 H707 0.929 . S
C716 C708 1.378 . S
C716 C711 1.350 . S
C717 H704 0.931 . S
C717 C709 1.433 . S
C717 N719 1.384 . S
N718 C714 1.427 . S
N718 C715 1.384 . S
N719 C711 1.427 . S
N719 C717 1.384 . S
H720 C726 0.930 . S
H721 C730 0.930 1_655 S
H722 C735 0.929 . S
H723 C733 0.929 . S
H724 C728 0.929 . S
H725 C734 0.929 . S
C726 H720 0.930 . S
C726 C727 1.367 . S
C726 C734 1.378 . S
C727 C726 1.367 . S
C727 C735 1.433 . S
C728 H724 0.929 . S
C728 C730 1.378 . S
C728 C732 1.350 . S
C729 C732 1.463 . S
C729 C734 1.350 . S
C729 N737 1.427 . S
C730 H721 0.930 1_455 S
C730 C728 1.378 . S
C730 C731 1.367 . S
C731 C730 1.367 . S
C731 C733 1.433 . S
C732 C728 1.350 . S
C732 C729 1.463 . S
C732 N736 1.427 . S
C733 H723 0.929 . S
C733 C731 1.433 . S
C733 N736 1.384 . S
C734 H725 0.929 . S
C734 C726 1.378 . S
C734 C729 1.350 . S
C735 H722 0.929 . S
C735 C727 1.433 . S
C735 N737 1.384 . S
N736 C732 1.427 . S
N736 C733 1.384 . S
N737 C729 1.427 . S
N737 C735 1.384 . S
H738 C744 0.930 . S
H739 C748 0.930 1_655 S
H740 C753 0.929 . S
H741 C751 0.929 . S
H742 C746 0.929 . S
H743 C752 0.929 . S
C744 H738 0.930 . S
C744 C745 1.367 . S
C744 C752 1.378 . S
C745 C744 1.367 . S
C745 C753 1.433 . S
C746 H742 0.929 . S
C746 C748 1.378 . S
C746 C750 1.350 . S
C747 C750 1.463 . S
C747 C752 1.350 . S
C747 N755 1.427 . S
C748 H739 0.930 1_455 S
C748 C746 1.378 . S
C748 C749 1.367 . S
C749 C748 1.367 . S
C749 C751 1.433 . S
C750 C746 1.350 . S
C750 C747 1.463 . S
C750 N754 1.427 . S
C751 H741 0.929 . S
C751 C749 1.433 . S
C751 N754 1.384 . S
C752 H743 0.929 . S
C752 C744 1.378 . S
C752 C747 1.350 . S
C753 H740 0.929 . S
C753 C745 1.433 . S
C753 N755 1.384 . S
N754 C750 1.427 . S
N754 C751 1.384 . S
N755 C747 1.427 . S
N755 C753 1.384 . S
H756 C762 0.930 . S
H757 C766 0.930 . S
H758 C771 0.929 . S
H759 C769 0.929 . S
H760 C764 0.929 . S
H761 C770 0.929 . S
C762 H756 0.930 . S
C762 C763 1.367 . S
C762 C770 1.378 . S
C763 C762 1.367 . S
C763 C771 1.433 . S
C764 H760 0.929 . S
C764 C766 1.378 . S
C764 C768 1.350 . S
C765 C768 1.463 . S
C765 C770 1.350 . S
C765 N773 1.427 . S
C766 H757 0.930 . S
C766 C764 1.378 . S
C766 C767 1.367 . S
C767 C766 1.367 . S
C767 C769 1.433 . S
C768 C764 1.350 . S
C768 C765 1.463 . S
C768 N772 1.427 . S
C769 H759 0.929 . S
C769 C767 1.433 . S
C769 N772 1.384 . S
C770 H761 0.929 . S
C770 C762 1.378 . S
C770 C765 1.350 . S
C771 H758 0.929 . S
C771 C763 1.433 . S
C771 N773 1.384 . S
N772 C768 1.427 . S
N772 C769 1.384 . S
N773 C765 1.427 . S
N773 C771 1.384 . S
H774 C780 0.930 . S
H775 C784 0.930 . S
H776 C789 0.929 . S
H777 C787 0.929 1_545 S
H778 C782 0.929 . S
H779 C788 0.929 . S
C780 H774 0.930 . S
C780 C781 1.367 . S
C780 C788 1.378 . S
C781 C780 1.367 . S
C781 C789 1.433 . S
C782 H778 0.929 . S
C782 C784 1.378 . S
C782 C786 1.350 . S
C783 C786 1.463 . S
C783 C788 1.350 . S
C783 N791 1.427 . S
C784 H775 0.930 . S
C784 C782 1.378 . S
C784 C785 1.367 . S
C785 C784 1.367 . S
C785 C787 1.433 . S
C786 C782 1.350 . S
C786 C783 1.463 . S
C786 N790 1.427 . S
C787 H777 0.929 1_565 S
C787 C785 1.433 . S
C787 N790 1.384 . S
C788 H779 0.929 . S
C788 C780 1.378 . S
C788 C783 1.350 . S
C789 H776 0.929 . S
C789 C781 1.433 . S
C789 N791 1.384 . S
N790 C786 1.427 . S
N790 C787 1.384 . S
N791 C783 1.427 . S
N791 C789 1.384 . S
H792 C798 0.930 . S
H793 C802 0.930 . S
H794 C807 0.929 . S
H795 C805 0.929 . S
H796 C800 0.929 . S
H797 C806 0.929 . S
C798 H792 0.930 . S
C798 C799 1.367 . S
C798 C806 1.378 . S
C799 C798 1.367 . S
C799 C807 1.433 . S
C800 H796 0.929 . S
C800 C802 1.378 . S
C800 C804 1.350 . S
C801 C804 1.463 . S
C801 C806 1.350 . S
C801 N809 1.427 . S
C802 H793 0.930 . S
C802 C800 1.378 . S
C802 C803 1.367 . S
C803 C802 1.367 . S
C803 C805 1.433 . S
C804 C800 1.350 . S
C804 C801 1.463 . S
C804 N808 1.427 . S
C805 H795 0.929 . S
C805 C803 1.433 . S
C805 N808 1.384 . S
C806 H797 0.929 . S
C806 C798 1.378 . S
C806 C801 1.350 . S
C807 H794 0.929 . S
C807 C799 1.433 . S
C807 N809 1.384 . S
N808 C804 1.427 . S
N808 C805 1.384 . S
N809 C801 1.427 . S
N809 C807 1.384 . S
H810 C816 0.930 . S
H811 C820 0.930 . S
H812 C825 0.929 . S
H813 C823 0.929 . S
H814 C818 0.929 . S
H815 C824 0.929 . S
C816 H810 0.930 . S
C816 C817 1.367 . S
C816 C824 1.378 . S
C817 C816 1.367 . S
C817 C825 1.433 . S
C818 H814 0.929 . S
C818 C820 1.378 . S
C818 C822 1.350 . S
C819 C822 1.463 . S
C819 C824 1.350 . S
C819 N827 1.427 . S
C820 H811 0.930 . S
C820 C818 1.378 . S
C820 C821 1.367 . S
C821 C820 1.367 . S
C821 C823 1.433 . S
C822 C818 1.350 . S
C822 C819 1.463 . S
C822 N826 1.427 . S
C823 H813 0.929 . S
C823 C821 1.433 . S
C823 N826 1.384 . S
C824 H815 0.929 . S
C824 C816 1.378 . S
C824 C819 1.350 . S
C825 H812 0.929 . S
C825 C817 1.433 . S
C825 N827 1.384 . S
N826 C822 1.427 . S
N826 C823 1.384 . S
N827 C819 1.427 . S
N827 C825 1.384 . S
H828 C834 0.930 . S
H829 C838 0.930 . S
H830 C843 0.929 . S
H831 C841 0.929 . S
H832 C836 0.929 . S
H833 C842 0.929 . S
C834 H828 0.930 . S
C834 C835 1.367 . S
C834 C842 1.378 . S
C835 C834 1.367 . S
C835 C843 1.433 . S
C836 H832 0.929 . S
C836 C838 1.378 . S
C836 C840 1.350 . S
C837 C840 1.463 . S
C837 C842 1.350 . S
C837 N845 1.427 . S
C838 H829 0.930 . S
C838 C836 1.378 . S
C838 C839 1.367 . S
C839 C838 1.367 . S
C839 C841 1.433 . S
C840 C836 1.350 . S
C840 C837 1.463 . S
C840 N844 1.427 . S
C841 H831 0.929 . S
C841 C839 1.433 . S
C841 N844 1.384 . S
C842 H833 0.929 . S
C842 C834 1.378 . S
C842 C837 1.350 . S
C843 H830 0.929 . S
C843 C835 1.433 . S
C843 N845 1.384 . S
N844 C840 1.427 . S
N844 C841 1.384 . S
N845 C837 1.427 . S
N845 C843 1.384 . S
H846 C852 0.930 . S
H847 C856 0.930 1_556 S
H848 C861 0.929 . S
H849 C859 0.929 . S
H850 C854 0.929 . S
H851 C860 0.929 . S
C852 H846 0.930 . S
C852 C853 1.367 . S
C852 C860 1.378 . S
C853 C852 1.367 . S
C853 C861 1.433 . S
C854 H850 0.929 . S
C854 C856 1.378 . S
C854 C858 1.350 . S
C855 C858 1.463 . S
C855 C860 1.350 . S
C855 N863 1.427 . S
C856 H847 0.930 1_554 S
C856 C854 1.378 . S
C856 C857 1.367 . S
C857 C856 1.367 . S
C857 C859 1.433 . S
C858 C854 1.350 . S
C858 C855 1.463 . S
C858 N862 1.427 . S
C859 H849 0.929 . S
C859 C857 1.433 . S
C859 N862 1.384 . S
C860 H851 0.929 . S
C860 C852 1.378 . S
C860 C855 1.350 . S
C861 H848 0.929 . S
C861 C853 1.433 . S
C861 N863 1.384 . S
N862 C858 1.427 . S
N862 C859 1.384 . S
N863 C855 1.427 . S
N863 C861 1.384 . S
H864 C870 0.930 . S
H865 C874 0.958 . S
H866 C879 0.929 . S
H867 C877 0.929 . S
H868 C872 0.929 . S
H869 C878 0.929 . S
C870 H864 0.930 . S
C870 C871 1.367 . S
C870 C878 1.378 . S
C871 C870 1.367 . S
C871 C879 1.433 . S
C872 H868 0.929 . S
C872 C874 1.352 1_554 S
C872 C876 1.350 . S
C873 C876 1.463 . S
C873 C878 1.350 . S
C873 N881 1.427 . S
C874 H865 0.958 . S
C874 C872 1.352 1_556 S
C874 C875 1.365 1_556 S
C875 C874 1.365 1_554 S
C875 C877 1.433 . S
C876 C872 1.350 . S
C876 C873 1.463 . S
C876 N880 1.427 . S
C877 H867 0.929 . S
C877 C875 1.433 . S
C877 N880 1.384 . S
C878 H869 0.929 . S
C878 C870 1.378 . S
C878 C873 1.350 . S
C879 H866 0.929 . S
C879 C871 1.433 . S
C879 N881 1.384 . S
N880 C876 1.427 . S
N880 C877 1.384 . S
N881 C873 1.427 . S
N881 C879 1.384 . S
H882 C888 0.930 . S
H883 C892 0.930 . S
H884 C897 0.929 . S
H885 C895 0.929 1_556 S
H886 C890 0.929 . S
H887 C896 0.929 . S
C888 H882 0.930 . S
C888 C889 1.367 . S
C888 C896 1.378 . S
C889 C888 1.367 . S
C889 C897 1.433 . S
C890 H886 0.929 . S
C890 C892 1.378 . S
C890 C894 1.350 . S
C891 C894 1.463 . S
C891 C896 1.350 . S
C891 N899 1.427 . S
C892 H883 0.930 . S
C892 C890 1.378 . S
C892 C893 1.367 . S
C893 C892 1.367 . S
C893 C895 1.433 . S
C894 C890 1.350 . S
C894 C891 1.463 . S
C894 N898 1.427 . S
C895 H885 0.929 1_554 S
C895 C893 1.433 . S
C895 N898 1.384 . S
C896 H887 0.929 . S
C896 C888 1.378 . S
C896 C891 1.350 . S
C897 H884 0.929 . S
C897 C889 1.433 . S
C897 N899 1.384 . S
N898 C894 1.427 . S
N898 C895 1.384 . S
N899 C891 1.427 . S
N899 C897 1.384 . S
H900 C906 0.930 . S
H901 C910 0.930 . S
H902 C915 0.929 . S
H903 C913 0.929 . S
H904 C908 0.929 . S
H905 C914 0.929 . S
C906 H900 0.930 . S
C906 C907 1.367 . S
C906 C914 1.378 . S
C907 C906 1.367 . S
C907 C915 1.433 . S
C908 H904 0.929 . S
C908 C910 1.378 . S
C908 C912 1.350 . S
C909 C912 1.463 . S
C909 C914 1.350 . S
C909 N917 1.427 . S
C910 H901 0.930 . S
C910 C908 1.378 . S
C910 C911 1.367 . S
C911 C910 1.367 . S
C911 C913 1.433 . S
C912 C908 1.350 . S
C912 C909 1.463 . S
C912 N916 1.427 . S
C913 H903 0.929 . S
C913 C911 1.433 . S
C913 N916 1.384 . S
C914 H905 0.929 . S
C914 C906 1.378 . S
C914 C909 1.350 . S
C915 H902 0.929 . S
C915 C907 1.433 . S
C915 N917 1.384 . S
N916 C912 1.427 . S
N916 C913 1.384 . S
N917 C909 1.427 . S
N917 C915 1.384 . S
H918 C924 0.930 . S
H919 C928 0.930 . S
H920 C933 0.929 . S
H921 C931 0.929 . S
H922 C926 0.929 . S
H923 C932 0.929 . S
C924 H918 0.930 . S
C924 C925 1.367 . S
C924 C932 1.378 . S
C925 C924 1.367 . S
C925 C933 1.433 . S
C926 H922 0.929 . S
C926 C928 1.378 . S
C926 C930 1.350 . S
C927 C930 1.463 . S
C927 C932 1.350 . S
C927 N935 1.427 . S
C928 H919 0.930 . S
C928 C926 1.378 . S
C928 C929 1.367 . S
C929 C928 1.367 . S
C929 C931 1.433 . S
C930 C926 1.350 . S
C930 C927 1.463 . S
C930 N934 1.427 . S
C931 H921 0.929 . S
C931 C929 1.433 . S
C931 N934 1.384 . S
C932 H923 0.929 . S
C932 C924 1.378 . S
C932 C927 1.350 . S
C933 H920 0.929 . S
C933 C925 1.433 . S
C933 N935 1.384 . S
N934 C930 1.427 . S
N934 C931 1.384 . S
N935 C927 1.427 . S
N935 C933 1.384 . S
H936 C942 0.930 . S
H937 C946 0.930 . S
H938 C951 0.929 . S
H939 C949 0.929 . S
H940 C944 0.929 . S
H941 C950 0.929 . S
C942 H936 0.930 . S
C942 C943 1.367 . S
C942 C950 1.378 . S
C943 C942 1.367 . S
C943 C951 1.433 . S
C944 H940 0.929 . S
C944 C946 1.378 . S
C944 C948 1.350 . S
C945 C948 1.463 . S
C945 C950 1.350 . S
C945 N953 1.427 . S
C946 H937 0.930 . S
C946 C944 1.378 . S
C946 C947 1.367 . S
C947 C946 1.367 . S
C947 C949 1.433 . S
C948 C944 1.350 . S
C948 C945 1.463 . S
C948 N952 1.427 . S
C949 H939 0.929 . S
C949 C947 1.433 . S
C949 N952 1.384 . S
C950 H941 0.929 . S
C950 C942 1.378 . S
C950 C945 1.350 . S
C951 H938 0.929 . S
C951 C943 1.433 . S
C951 N953 1.384 . S
N952 C948 1.427 . S
N952 C949 1.384 . S
N953 C945 1.427 . S
N953 C951 1.384 . S
H954 C960 0.930 . S
H955 C964 0.930 . S
H956 C969 0.921 1_554 S
H957 C967 0.929 . S
H958 C962 0.929 . S
H959 C968 0.929 . S
C960 H954 0.930 . S
C960 C961 1.367 . S
C960 C968 1.378 . S
C961 C960 1.367 . S
C961 C969 1.434 . S
C962 H958 0.929 . S
C962 C964 1.378 . S
C962 C966 1.350 . S
C963 C966 1.463 . S
C963 C968 1.350 . S
C963 N971 1.427 . S
C964 H955 0.930 . S
C964 C962 1.378 . S
C964 C965 1.367 . S
C965 C964 1.367 . S
C965 C967 1.433 . S
C966 C962 1.350 . S
C966 C963 1.463 . S
C966 N970 1.427 . S
C967 H957 0.929 . S
C967 C965 1.433 . S
C967 N970 1.384 . S
C968 H959 0.929 . S
C968 C960 1.378 . S
C968 C963 1.350 . S
C969 H956 0.921 1_556 S
C969 C961 1.434 . S
C969 N971 1.391 . S
N970 C966 1.427 . S
N970 C967 1.384 . S
N971 C963 1.427 . S
N971 C969 1.391 . S
H972 C978 0.930 . S
H973 C982 0.930 . S
H974 C987 0.929 1_554 S
H975 C985 0.929 . S
H976 C980 0.929 . S
H977 C986 0.929 . S
C978 H972 0.930 . S
C978 C979 1.367 . S
C978 C986 1.378 . S
C979 C978 1.367 . S
C979 C987 1.433 . S
C980 H976 0.929 . S
C980 C982 1.378 . S
C980 C984 1.350 . S
C981 C984 1.463 . S
C981 C986 1.350 . S
C981 N989 1.427 . S
C982 H973 0.930 . S
C982 C980 1.378 . S
C982 C983 1.367 . S
C983 C982 1.367 . S
C983 C985 1.433 . S
C984 C980 1.350 . S
C984 C981 1.463 . S
C984 N988 1.427 . S
C985 H975 0.929 . S
C985 C983 1.433 . S
C985 N988 1.384 . S
C986 H977 0.929 . S
C986 C978 1.378 . S
C986 C981 1.350 . S
C987 H974 0.929 1_556 S
C987 C979 1.433 . S
C987 N989 1.384 . S
N988 C984 1.427 . S
N988 C985 1.384 . S
N989 C981 1.427 . S
N989 C987 1.384 . S
H990 C996 0.930 . S
H991 C1000 0.943 . S
H992 C1005 0.929 . S
H993 C1003 0.929 . S
H994 C998 0.929 . S
H995 C1004 0.929 . S
C996 H990 0.930 . S
C996 C997 1.367 . S
C996 C1004 1.378 . S
C997 C996 1.367 . S
C997 C1005 1.433 . S
C998 H994 0.929 . S
C998 C1000 1.366 1_556 S
C998 C1002 1.350 . S
C999 C1002 1.463 . S
C999 C1004 1.350 . S
C999 N1007 1.427 . S
C1000 H991 0.943 . S
C1000 C998 1.366 1_554 S
C1000 C1001 1.366 1_554 S
C1001 C1000 1.366 1_556 S
C1001 C1003 1.433 . S
C1002 C998 1.350 . S
C1002 C999 1.463 . S
C1002 N1006 1.427 . S
C1003 H993 0.929 . S
C1003 C1001 1.433 . S
C1003 N1006 1.384 . S
C1004 H995 0.929 . S
C1004 C996 1.378 . S
C1004 C999 1.350 . S
C1005 H992 0.929 . S
C1005 C997 1.433 . S
C1005 N1007 1.384 . S
N1006 C1002 1.427 . S
N1006 C1003 1.384 . S
N1007 C999 1.427 . S
N1007 C1005 1.384 . S
H1008 C1014 0.930 . S
H1009 C1018 0.930 . S
H1010 C1023 0.929 . S
H1011 C1021 0.929 . S
H1012 C1016 0.929 . S
H1013 C1022 0.929 . S
C1014 H1008 0.930 . S
C1014 C1015 1.367 . S
C1014 C1022 1.378 . S
C1015 C1014 1.367 . S
C1015 C1023 1.433 . S
C1016 H1012 0.929 . S
C1016 C1018 1.378 . S
C1016 C1020 1.350 . S
C1017 C1020 1.463 1_455 S
C1017 C1022 1.350 . S
C1017 N1025 1.427 . S
C1018 H1009 0.930 . S
C1018 C1016 1.378 . S
C1018 C1019 1.367 . S
C1019 C1018 1.367 . S
C1019 C1021 1.433 . S
C1020 C1016 1.350 . S
C1020 C1017 1.463 1_655 S
C1020 N1024 1.427 . S
C1021 H1011 0.929 . S
C1021 C1019 1.433 . S
C1021 N1024 1.384 . S
C1022 H1013 0.929 . S
C1022 C1014 1.378 . S
C1022 C1017 1.350 . S
C1023 H1010 0.929 . S
C1023 C1015 1.433 . S
C1023 N1025 1.384 . S
N1024 C1020 1.427 . S
N1024 C1021 1.384 . S
N1025 C1017 1.427 . S
N1025 C1023 1.384 . S
H1026 C1032 0.930 . S
H1027 C1036 0.930 . S
H1028 C1041 0.929 . S
H1029 C1039 0.929 . S
H1030 C1034 0.929 . S
H1031 C1040 0.929 . S
C1032 H1026 0.930 . S
C1032 C1033 1.367 . S
C1032 C1040 1.378 . S
C1033 C1032 1.367 . S
C1033 C1041 1.433 . S
C1034 H1030 0.929 . S
C1034 C1036 1.378 . S
C1034 C1038 1.350 . S
C1035 C1038 1.463 . S
C1035 C1040 1.350 . S
C1035 N1043 1.427 . S
C1036 H1027 0.930 . S
C1036 C1034 1.378 . S
C1036 C1037 1.367 . S
C1037 C1036 1.367 . S
C1037 C1039 1.433 . S
C1038 C1034 1.350 . S
C1038 C1035 1.463 . S
C1038 N1042 1.427 . S
C1039 H1029 0.929 . S
C1039 C1037 1.433 . S
C1039 N1042 1.384 . S
C1040 H1031 0.929 . S
C1040 C1032 1.378 . S
C1040 C1035 1.350 . S
C1041 H1028 0.929 . S
C1041 C1033 1.433 . S
C1041 N1043 1.384 . S
N1042 C1038 1.427 . S
N1042 C1039 1.384 . S
N1043 C1035 1.427 . S
N1043 C1041 1.384 . S
H1044 C1050 0.930 . S
H1045 C1054 0.930 . S
H1046 C1059 0.929 . S
H1047 C1057 0.929 . S
H1048 C1052 0.929 . S
H1049 C1058 0.929 . S
C1050 H1044 0.930 . S
C1050 C1051 1.367 . S
C1050 C1058 1.378 . S
C1051 C1050 1.367 . S
C1051 C1059 1.433 . S
C1052 H1048 0.929 . S
C1052 C1054 1.378 . S
C1052 C1056 1.350 . S
C1053 C1056 1.463 1_545 S
C1053 C1058 1.350 . S
C1053 N1061 1.427 . S
C1054 H1045 0.930 . S
C1054 C1052 1.378 . S
C1054 C1055 1.367 . S
C1055 C1054 1.367 . S
C1055 C1057 1.433 . S
C1056 C1052 1.350 . S
C1056 C1053 1.463 1_565 S
C1056 N1060 1.427 . S
C1057 H1047 0.929 . S
C1057 C1055 1.433 . S
C1057 N1060 1.384 . S
C1058 H1049 0.929 . S
C1058 C1050 1.378 . S
C1058 C1053 1.350 . S
C1059 H1046 0.929 . S
C1059 C1051 1.433 . S
C1059 N1061 1.384 . S
N1060 C1056 1.427 . S
N1060 C1057 1.384 . S
N1061 C1053 1.427 . S
N1061 C1059 1.384 . S
H1062 C1068 0.930 . S
H1063 C1072 0.930 . S
H1064 C1077 0.929 . S
H1065 C1075 0.929 . S
H1066 C1070 0.896 1_565 S
H1067 C1076 0.896 1_545 S
C1068 H1062 0.930 . S
C1068 C1069 1.367 . S
C1068 C1076 1.394 . S
C1069 C1068 1.367 . S
C1069 C1077 1.433 . S
C1070 H1066 0.896 1_545 S
C1070 C1072 1.394 . S
C1070 C1074 1.367 . S
C1071 C1074 1.463 1_565 S
C1071 C1076 1.367 . S
C1071 N1079 1.427 . S
C1072 H1063 0.930 . S
C1072 C1070 1.394 . S
C1072 C1073 1.367 . S
C1073 C1072 1.367 . S
C1073 C1075 1.433 . S
C1074 C1070 1.367 . S
C1074 C1071 1.463 1_545 S
C1074 N1078 1.427 . S
C1075 H1065 0.929 . S
C1075 C1073 1.433 . S
C1075 N1078 1.384 . S
C1076 H1067 0.896 1_565 S
C1076 C1068 1.394 . S
C1076 C1071 1.367 . S
C1077 H1064 0.929 . S
C1077 C1069 1.433 . S
C1077 N1079 1.384 . S
N1078 C1074 1.427 . S
N1078 C1075 1.384 . S
N1079 C1071 1.427 . S
N1079 C1077 1.384 . S
H1080 C1086 0.930 . S
H1081 C1090 0.930 . S
H1082 C1095 0.929 . S
H1083 C1093 0.929 . S
H1084 C1088 0.929 . S
H1085 C1094 0.929 . S
C1086 H1080 0.930 . S
C1086 C1087 1.367 . S
C1086 C1094 1.378 1_655 S
C1087 C1086 1.367 . S
C1087 C1095 1.433 . S
C1088 H1084 0.929 . S
C1088 C1090 1.378 1_655 S
C1088 C1092 1.350 1_655 S
C1089 C1092 1.463 1_655 S
C1089 C1094 1.350 1_655 S
C1089 N1097 1.427 . S
C1090 H1081 0.930 . S
C1090 C1088 1.378 1_455 S
C1090 C1091 1.367 . S
C1091 C1090 1.367 . S
C1091 C1093 1.433 . S
C1092 C1088 1.350 1_455 S
C1092 C1089 1.463 1_455 S
C1092 N1096 1.427 . S
C1093 H1083 0.929 . S
C1093 C1091 1.433 . S
C1093 N1096 1.384 . S
C1094 H1085 0.929 . S
C1094 C1086 1.378 1_455 S
C1094 C1089 1.350 1_455 S
C1095 H1082 0.929 . S
C1095 C1087 1.433 . S
C1095 N1097 1.384 . S
N1096 C1092 1.427 . S
N1096 C1093 1.384 . S
N1097 C1089 1.427 . S
N1097 C1095 1.384 . S
H1098 C1104 0.930 . S
H1099 C1108 0.930 . S
H1100 C1113 0.929 . S
H1101 C1111 0.929 . S
H1102 C1106 0.929 . S
H1103 C1112 0.929 . S
C1104 H1098 0.930 . S
C1104 C1105 1.367 . S
C1104 C1112 1.378 . S
C1105 C1104 1.367 . S
C1105 C1113 1.433 . S
C1106 H1102 0.929 . S
C1106 C1108 1.378 . S
C1106 C1110 1.350 . S
C1107 C1110 1.463 . S
C1107 C1112 1.350 . S
C1107 N1115 1.427 . S
C1108 H1099 0.930 . S
C1108 C1106 1.378 . S
C1108 C1109 1.367 . S
C1109 C1108 1.367 . S
C1109 C1111 1.433 . S
C1110 C1106 1.350 . S
C1110 C1107 1.463 . S
C1110 N1114 1.427 . S
C1111 H1101 0.929 . S
C1111 C1109 1.433 . S
C1111 N1114 1.384 . S
C1112 H1103 0.929 . S
C1112 C1104 1.378 . S
C1112 C1107 1.350 . S
C1113 H1100 0.929 . S
C1113 C1105 1.433 . S
C1113 N1115 1.384 . S
N1114 C1110 1.427 . S
N1114 C1111 1.384 . S
N1115 C1107 1.427 . S
N1115 C1113 1.384 . S
H1116 C1122 0.930 . S
H1117 C1126 0.930 . S
H1118 C1131 0.929 . S
H1119 C1129 0.929 . S
H1120 C1124 0.929 . S
H1121 C1130 0.929 . S
C1122 H1116 0.930 . S
C1122 C1123 1.367 . S
C1122 C1130 1.378 . S
C1123 C1122 1.367 . S
C1123 C1131 1.433 . S
C1124 H1120 0.929 . S
C1124 C1126 1.378 . S
C1124 C1128 1.350 . S
C1125 C1128 1.463 . S
C1125 C1130 1.350 . S
C1125 N1133 1.427 . S
C1126 H1117 0.930 . S
C1126 C1124 1.378 . S
C1126 C1127 1.367 . S
C1127 C1126 1.367 . S
C1127 C1129 1.433 . S
C1128 C1124 1.350 . S
C1128 C1125 1.463 . S
C1128 N1132 1.427 . S
C1129 H1119 0.929 . S
C1129 C1127 1.433 . S
C1129 N1132 1.384 . S
C1130 H1121 0.929 . S
C1130 C1122 1.378 . S
C1130 C1125 1.350 . S
C1131 H1118 0.929 . S
C1131 C1123 1.433 . S
C1131 N1133 1.384 . S
N1132 C1128 1.427 . S
N1132 C1129 1.384 . S
N1133 C1125 1.427 . S
N1133 C1131 1.384 . S
H1134 C1140 0.930 . S
H1135 C1144 0.930 . S
H1136 C1149 0.929 . S
H1137 C1147 0.929 . S
H1138 C1142 0.929 . S
H1139 C1148 0.929 . S
C1140 H1134 0.930 . S
C1140 C1141 1.367 . S
C1140 C1148 1.378 . S
C1141 C1140 1.367 . S
C1141 C1149 1.433 . S
C1142 H1138 0.929 . S
C1142 C1144 1.378 . S
C1142 C1146 1.350 . S
C1143 C1146 1.463 . S
C1143 C1148 1.350 . S
C1143 N1151 1.427 . S
C1144 H1135 0.930 . S
C1144 C1142 1.378 . S
C1144 C1145 1.367 . S
C1145 C1144 1.367 . S
C1145 C1147 1.433 . S
C1146 C1142 1.350 . S
C1146 C1143 1.463 . S
C1146 N1150 1.427 . S
C1147 H1137 0.929 . S
C1147 C1145 1.433 . S
C1147 N1150 1.384 . S
C1148 H1139 0.929 . S
C1148 C1140 1.378 . S
C1148 C1143 1.350 . S
C1149 H1136 0.929 . S
C1149 C1141 1.433 . S
C1149 N1151 1.384 . S
N1150 C1146 1.427 . S
N1150 C1147 1.384 . S
N1151 C1143 1.427 . S
N1151 C1149 1.384 . S
H1152 C1158 0.930 . S
H1153 C1162 0.930 . S
H1154 C1167 0.929 . S
H1155 C1165 0.929 . S
H1156 C1160 0.929 . S
H1157 C1166 0.929 . S
C1158 H1152 0.930 . S
C1158 C1159 1.367 . S
C1158 C1166 1.378 . S
C1159 C1158 1.367 . S
C1159 C1167 1.433 . S
C1160 H1156 0.929 . S
C1160 C1162 1.378 . S
C1160 C1164 1.350 . S
C1161 C1164 1.463 . S
C1161 C1166 1.350 . S
C1161 N1169 1.427 . S
C1162 H1153 0.930 . S
C1162 C1160 1.378 . S
C1162 C1163 1.367 . S
C1163 C1162 1.367 . S
C1163 C1165 1.433 . S
C1164 C1160 1.350 . S
C1164 C1161 1.463 . S
C1164 N1168 1.427 . S
C1165 H1155 0.929 . S
C1165 C1163 1.433 . S
C1165 N1168 1.384 . S
C1166 H1157 0.929 . S
C1166 C1158 1.378 . S
C1166 C1161 1.350 . S
C1167 H1154 0.929 . S
C1167 C1159 1.433 . S
C1167 N1169 1.384 . S
N1168 C1164 1.427 . S
N1168 C1165 1.384 . S
N1169 C1161 1.427 . S
N1169 C1167 1.384 . S
H1170 C1176 0.930 . S
H1171 C1180 0.930 . S
H1172 C1185 0.929 . S
H1173 C1183 0.929 . S
H1174 C1178 0.929 . S
H1175 C1184 0.929 . S
C1176 H1170 0.930 . S
C1176 C1177 1.367 . S
C1176 C1184 1.378 . S
C1177 C1176 1.367 . S
C1177 C1185 1.433 . S
C1178 H1174 0.929 . S
C1178 C1180 1.378 . S
C1178 C1182 1.350 . S
C1179 C1182 1.463 . S
C1179 C1184 1.350 . S
C1179 N1187 1.427 . S
C1180 H1171 0.930 . S
C1180 C1178 1.378 . S
C1180 C1181 1.367 . S
C1181 C1180 1.367 . S
C1181 C1183 1.433 . S
C1182 C1178 1.350 . S
C1182 C1179 1.463 . S
C1182 N1186 1.427 . S
C1183 H1173 0.929 . S
C1183 C1181 1.433 . S
C1183 N1186 1.384 . S
C1184 H1175 0.929 . S
C1184 C1176 1.378 . S
C1184 C1179 1.350 . S
C1185 H1172 0.929 . S
C1185 C1177 1.433 . S
C1185 N1187 1.384 . S
N1186 C1182 1.427 . S
N1186 C1183 1.384 . S
N1187 C1179 1.427 . S
N1187 C1185 1.384 . S
H1188 C1194 0.930 . S
H1189 C1198 0.930 . S
H1190 C1203 0.929 . S
H1191 C1201 0.929 . S
H1192 C1196 0.929 . S
H1193 C1202 0.929 . S
C1194 H1188 0.930 . S
C1194 C1195 1.367 . S
C1194 C1202 1.378 . S
C1195 C1194 1.367 . S
C1195 C1203 1.433 . S
C1196 H1192 0.929 . S
C1196 C1198 1.378 . S
C1196 C1200 1.350 . S
C1197 C1200 1.463 . S
C1197 C1202 1.350 . S
C1197 N1205 1.427 . S
C1198 H1189 0.930 . S
C1198 C1196 1.378 . S
C1198 C1199 1.367 . S
C1199 C1198 1.367 . S
C1199 C1201 1.433 . S
C1200 C1196 1.350 . S
C1200 C1197 1.463 . S
C1200 N1204 1.427 . S
C1201 H1191 0.929 . S
C1201 C1199 1.433 . S
C1201 N1204 1.384 . S
C1202 H1193 0.929 . S
C1202 C1194 1.378 . S
C1202 C1197 1.350 . S
C1203 H1190 0.929 . S
C1203 C1195 1.433 . S
C1203 N1205 1.384 . S
N1204 C1200 1.427 . S
N1204 C1201 1.384 . S
N1205 C1197 1.427 . S
N1205 C1203 1.384 . S
H1206 C1212 0.930 . S
H1207 C1216 0.930 . S
H1208 C1221 0.929 . S
H1209 C1219 0.929 . S
H1210 C1214 0.929 . S
H1211 C1220 0.929 . S
C1212 H1206 0.930 . S
C1212 C1213 1.367 . S
C1212 C1220 1.378 . S
C1213 C1212 1.367 . S
C1213 C1221 1.433 . S
C1214 H1210 0.929 . S
C1214 C1216 1.378 . S
C1214 C1218 1.350 . S
C1215 C1218 1.463 . S
C1215 C1220 1.350 . S
C1215 N1223 1.427 . S
C1216 H1207 0.930 . S
C1216 C1214 1.378 . S
C1216 C1217 1.367 . S
C1217 C1216 1.367 . S
C1217 C1219 1.433 . S
C1218 C1214 1.350 . S
C1218 C1215 1.463 . S
C1218 N1222 1.427 . S
C1219 H1209 0.929 . S
C1219 C1217 1.433 . S
C1219 N1222 1.384 . S
C1220 H1211 0.929 . S
C1220 C1212 1.378 . S
C1220 C1215 1.350 . S
C1221 H1208 0.929 . S
C1221 C1213 1.433 . S
C1221 N1223 1.384 . S
N1222 C1218 1.427 . S
N1222 C1219 1.384 . S
N1223 C1215 1.427 . S
N1223 C1221 1.384 . S
H1224 C1230 0.930 . S
H1225 C1234 0.930 . S
H1226 C1239 0.929 . S
H1227 C1237 0.929 . S
H1228 C1232 0.929 . S
H1229 C1238 0.929 . S
C1230 H1224 0.930 . S
C1230 C1231 1.367 . S
C1230 C1238 1.378 . S
C1231 C1230 1.367 . S
C1231 C1239 1.433 . S
C1232 H1228 0.929 . S
C1232 C1234 1.378 . S
C1232 C1236 1.350 . S
C1233 C1236 1.463 . S
C1233 C1238 1.350 . S
C1233 N1241 1.427 . S
C1234 H1225 0.930 . S
C1234 C1232 1.378 . S
C1234 C1235 1.367 . S
C1235 C1234 1.367 . S
C1235 C1237 1.433 . S
C1236 C1232 1.350 . S
C1236 C1233 1.463 . S
C1236 N1240 1.427 . S
C1237 H1227 0.929 . S
C1237 C1235 1.433 . S
C1237 N1240 1.384 . S
C1238 H1229 0.929 . S
C1238 C1230 1.378 . S
C1238 C1233 1.350 . S
C1239 H1226 0.929 . S
C1239 C1231 1.433 . S
C1239 N1241 1.384 . S
N1240 C1236 1.427 . S
N1240 C1237 1.384 . S
N1241 C1233 1.427 . S
N1241 C1239 1.384 . S
H1242 C1248 0.930 . S
H1243 C1252 0.930 . S
H1244 C1257 0.929 . S
H1245 C1255 0.929 . S
H1246 C1250 0.929 . S
H1247 C1256 0.929 . S
C1248 H1242 0.930 . S
C1248 C1249 1.367 . S
C1248 C1256 1.378 . S
C1249 C1248 1.367 . S
C1249 C1257 1.433 . S
C1250 H1246 0.929 . S
C1250 C1252 1.378 . S
C1250 C1254 1.350 . S
C1251 C1254 1.463 . S
C1251 C1256 1.350 . S
C1251 N1259 1.427 . S
C1252 H1243 0.930 . S
C1252 C1250 1.378 . S
C1252 C1253 1.367 . S
C1253 C1252 1.367 . S
C1253 C1255 1.433 . S
C1254 C1250 1.350 . S
C1254 C1251 1.463 . S
C1254 N1258 1.427 . S
C1255 H1245 0.929 . S
C1255 C1253 1.433 . S
C1255 N1258 1.384 . S
C1256 H1247 0.929 . S
C1256 C1248 1.378 . S
C1256 C1251 1.350 . S
C1257 H1244 0.929 . S
C1257 C1249 1.433 . S
C1257 N1259 1.384 . S
N1258 C1254 1.427 . S
N1258 C1255 1.384 . S
N1259 C1251 1.427 . S
N1259 C1257 1.384 . S
H1260 C1266 0.930 . S
H1261 C1270 0.930 . S
H1262 C1275 0.929 . S
H1263 C1273 0.929 . S
H1264 C1268 0.929 . S
H1265 C1274 0.929 . S
C1266 H1260 0.930 . S
C1266 C1267 1.367 . S
C1266 C1274 1.378 . S
C1267 C1266 1.367 . S
C1267 C1275 1.433 . S
C1268 H1264 0.929 . S
C1268 C1270 1.378 . S
C1268 C1272 1.350 . S
C1269 C1272 1.463 . S
C1269 C1274 1.350 . S
C1269 N1277 1.427 . S
C1270 H1261 0.930 . S
C1270 C1268 1.378 . S
C1270 C1271 1.367 . S
C1271 C1270 1.367 . S
C1271 C1273 1.433 . S
C1272 C1268 1.350 . S
C1272 C1269 1.463 . S
C1272 N1276 1.427 . S
C1273 H1263 0.929 . S
C1273 C1271 1.433 . S
C1273 N1276 1.384 . S
C1274 H1265 0.929 . S
C1274 C1266 1.378 . S
C1274 C1269 1.350 . S
C1275 H1262 0.929 . S
C1275 C1267 1.433 . S
C1275 N1277 1.384 . S
N1276 C1272 1.427 . S
N1276 C1273 1.384 . S
N1277 C1269 1.427 . S
N1277 C1275 1.384 . S
H1278 C1284 0.930 . S
H1279 C1288 0.930 . S
H1280 C1293 0.929 . S
H1281 C1291 0.929 . S
H1282 C1286 0.929 . S
H1283 C1292 0.929 . S
C1284 H1278 0.930 . S
C1284 C1285 1.367 . S
C1284 C1292 1.378 . S
C1285 C1284 1.367 . S
C1285 C1293 1.433 . S
C1286 H1282 0.929 . S
C1286 C1288 1.378 . S
C1286 C1290 1.350 . S
C1287 C1290 1.463 . S
C1287 C1292 1.350 . S
C1287 N1295 1.427 . S
C1288 H1279 0.930 . S
C1288 C1286 1.378 . S
C1288 C1289 1.367 . S
C1289 C1288 1.367 . S
C1289 C1291 1.433 . S
C1290 C1286 1.350 . S
C1290 C1287 1.463 . S
C1290 N1294 1.427 . S
C1291 H1281 0.929 . S
C1291 C1289 1.433 . S
C1291 N1294 1.384 . S
C1292 H1283 0.929 . S
C1292 C1284 1.378 . S
C1292 C1287 1.350 . S
C1293 H1280 0.929 . S
C1293 C1285 1.433 . S
C1293 N1295 1.384 . S
N1294 C1290 1.427 . S
N1294 C1291 1.384 . S
N1295 C1287 1.427 . S
N1295 C1293 1.384 . S
H1296 C1302 0.930 . S
H1297 C1306 0.930 . S
H1298 C1311 0.929 . S
H1299 C1309 0.929 . S
H1300 C1304 0.929 . S
H1301 C1310 0.929 . S
C1302 H1296 0.930 . S
C1302 C1303 1.367 . S
C1302 C1310 1.378 . S
C1303 C1302 1.367 . S
C1303 C1311 1.433 . S
C1304 H1300 0.929 . S
C1304 C1306 1.378 . S
C1304 C1308 1.350 . S
C1305 C1308 1.463 . S
C1305 C1310 1.350 . S
C1305 N1313 1.427 . S
C1306 H1297 0.930 . S
C1306 C1304 1.378 . S
C1306 C1307 1.367 . S
C1307 C1306 1.367 . S
C1307 C1309 1.433 . S
C1308 C1304 1.350 . S
C1308 C1305 1.463 . S
C1308 N1312 1.427 . S
C1309 H1299 0.929 . S
C1309 C1307 1.433 . S
C1309 N1312 1.384 . S
C1310 H1301 0.929 . S
C1310 C1302 1.378 . S
C1310 C1305 1.350 . S
C1311 H1298 0.929 . S
C1311 C1303 1.433 . S
C1311 N1313 1.384 . S
N1312 C1308 1.427 . S
N1312 C1309 1.384 . S
N1313 C1305 1.427 . S
N1313 C1311 1.384 . S
H1314 C1320 0.930 . S
H1315 C1324 0.930 . S
H1316 C1329 0.929 . S
H1317 C1327 0.929 . S
H1318 C1322 0.929 . S
H1319 C1328 0.929 . S
C1320 H1314 0.930 . S
C1320 C1321 1.367 . S
C1320 C1328 1.378 . S
C1321 C1320 1.367 . S
C1321 C1329 1.433 . S
C1322 H1318 0.929 . S
C1322 C1324 1.378 . S
C1322 C1326 1.350 . S
C1323 C1326 1.463 . S
C1323 C1328 1.350 . S
C1323 N1331 1.427 . S
C1324 H1315 0.930 . S
C1324 C1322 1.378 . S
C1324 C1325 1.367 . S
C1325 C1324 1.367 . S
C1325 C1327 1.433 . S
C1326 C1322 1.350 . S
C1326 C1323 1.463 . S
C1326 N1330 1.427 . S
C1327 H1317 0.929 . S
C1327 C1325 1.433 . S
C1327 N1330 1.384 . S
C1328 H1319 0.929 . S
C1328 C1320 1.378 . S
C1328 C1323 1.350 . S
C1329 H1316 0.929 . S
C1329 C1321 1.433 . S
C1329 N1331 1.384 . S
N1330 C1326 1.427 . S
N1330 C1327 1.384 . S
N1331 C1323 1.427 . S
N1331 C1329 1.384 . S
H1332 C1338 0.930 . S
H1333 C1342 0.930 . S
H1334 C1347 0.929 . S
H1335 C1345 0.929 . S
H1336 C1340 0.929 . S
H1337 C1346 0.929 . S
C1338 H1332 0.930 . S
C1338 C1339 1.367 1_655 S
C1338 C1346 1.378 . S
C1339 C1338 1.367 1_455 S
C1339 C1347 1.433 . S
C1340 H1336 0.929 . S
C1340 C1342 1.378 . S
C1340 C1344 1.350 1_455 S
C1341 C1344 1.463 1_455 S
C1341 C1346 1.350 1_455 S
C1341 N1349 1.427 . S
C1342 H1333 0.930 . S
C1342 C1340 1.378 . S
C1342 C1343 1.367 1_455 S
C1343 C1342 1.367 1_655 S
C1343 C1345 1.433 . S
C1344 C1340 1.350 1_655 S
C1344 C1341 1.463 1_655 S
C1344 N1348 1.427 . S
C1345 H1335 0.929 . S
C1345 C1343 1.433 . S
C1345 N1348 1.384 . S
C1346 H1337 0.929 . S
C1346 C1338 1.378 . S
C1346 C1341 1.350 1_655 S
C1347 H1334 0.929 . S
C1347 C1339 1.433 . S
C1347 N1349 1.384 . S
N1348 C1344 1.427 . S
N1348 C1345 1.384 . S
N1349 C1341 1.427 . S
N1349 C1347 1.384 . S
H1350 C1356 0.930 . S
H1351 C1360 0.930 . S
H1352 C1365 0.929 . S
H1353 C1363 0.929 . S
H1354 C1358 0.929 . S
H1355 C1364 0.929 . S
C1356 H1350 0.930 . S
C1356 C1357 1.367 . S
C1356 C1364 1.378 . S
C1357 C1356 1.367 . S
C1357 C1365 1.433 . S
C1358 H1354 0.929 . S
C1358 C1360 1.378 . S
C1358 C1362 1.350 . S
C1359 C1362 1.463 . S
C1359 C1364 1.350 . S
C1359 N1367 1.427 . S
C1360 H1351 0.930 . S
C1360 C1358 1.378 . S
C1360 C1361 1.367 . S
C1361 C1360 1.367 . S
C1361 C1363 1.433 . S
C1362 C1358 1.350 . S
C1362 C1359 1.463 . S
C1362 N1366 1.427 . S
C1363 H1353 0.929 . S
C1363 C1361 1.433 . S
C1363 N1366 1.384 . S
C1364 H1355 0.929 . S
C1364 C1356 1.378 . S
C1364 C1359 1.350 . S
C1365 H1352 0.929 . S
C1365 C1357 1.433 . S
C1365 N1367 1.384 . S
N1366 C1362 1.427 . S
N1366 C1363 1.384 . S
N1367 C1359 1.427 . S
N1367 C1365 1.384 . S
H1368 C1374 0.928 . S
H1369 C1378 0.928 . S
H1370 C1383 0.929 . S
H1371 C1381 0.929 . S
H1372 C1376 0.929 . S
H1373 C1382 0.929 . S
C1374 H1368 0.928 . S
C1374 C1375 1.367 1_565 S
C1374 C1382 1.380 . S
C1375 C1374 1.367 1_545 S
C1375 C1383 1.433 . S
C1376 H1372 0.929 . S
C1376 C1378 1.380 . S
C1376 C1380 1.350 1_545 S
C1377 C1380 1.463 1_545 S
C1377 C1382 1.350 1_545 S
C1377 N1385 1.427 . S
C1378 H1369 0.928 . S
C1378 C1376 1.380 . S
C1378 C1379 1.367 1_545 S
C1379 C1378 1.367 1_565 S
C1379 C1381 1.433 . S
C1380 C1376 1.350 1_565 S
C1380 C1377 1.463 1_565 S
C1380 N1384 1.427 . S
C1381 H1371 0.929 . S
C1381 C1379 1.433 . S
C1381 N1384 1.384 . S
C1382 H1373 0.929 . S
C1382 C1374 1.380 . S
C1382 C1377 1.350 1_565 S
C1383 H1370 0.929 . S
C1383 C1375 1.433 . S
C1383 N1385 1.384 . S
N1384 C1380 1.427 . S
N1384 C1381 1.384 . S
N1385 C1377 1.427 . S
N1385 C1383 1.384 . S
H1386 C1392 0.930 . S
H1387 C1396 0.930 . S
H1388 C1401 0.929 . S
H1389 C1399 0.929 . S
H1390 C1394 0.929 . S
H1391 C1400 0.929 . S
C1392 H1386 0.930 . S
C1392 C1393 1.367 . S
C1392 C1400 1.378 . S
C1393 C1392 1.367 . S
C1393 C1401 1.433 1_546 S
C1394 H1390 0.929 . S
C1394 C1396 1.378 . S
C1394 C1398 1.350 . S
C1395 C1398 1.463 1_546 S
C1395 C1400 1.350 . S
C1395 N1403 1.427 1_546 S
C1396 H1387 0.930 . S
C1396 C1394 1.378 . S
C1396 C1397 1.367 . S
C1397 C1396 1.367 . S
C1397 C1399 1.433 1_564 S
C1398 C1394 1.350 . S
C1398 C1395 1.463 1_564 S
C1398 N1402 1.427 1_564 S
C1399 H1389 0.929 . S
C1399 C1397 1.433 1_546 S
C1399 N1402 1.384 . S
C1400 H1391 0.929 . S
C1400 C1392 1.378 . S
C1400 C1395 1.350 . S
C1401 H1388 0.929 . S
C1401 C1393 1.433 1_564 S
C1401 N1403 1.384 . S
N1402 C1398 1.427 1_546 S
N1402 C1399 1.384 . S
N1403 C1395 1.427 1_564 S
N1403 C1401 1.384 . S
H1404 C1410 0.930 . S
H1405 C1414 0.930 . S
H1406 C1419 0.929 . S
H1407 C1417 0.929 . S
H1408 C1412 0.929 . S
H1409 C1418 0.929 . S
C1410 H1404 0.930 . S
C1410 C1411 1.367 1_655 S
C1410 C1418 1.378 . S
C1411 C1410 1.367 1_455 S
C1411 C1419 1.433 1_554 S
C1412 H1408 0.929 . S
C1412 C1414 1.378 . S
C1412 C1416 1.350 1_455 S
C1413 C1416 1.463 1_454 S
C1413 C1418 1.350 1_455 S
C1413 N1421 1.427 1_554 S
C1414 H1405 0.930 . S
C1414 C1412 1.378 . S
C1414 C1415 1.367 1_455 S
C1415 C1414 1.367 1_655 S
C1415 C1417 1.433 1_556 S
C1416 C1412 1.350 1_655 S
C1416 C1413 1.463 1_656 S
C1416 N1420 1.427 1_556 S
C1417 H1407 0.929 . S
C1417 C1415 1.433 1_554 S
C1417 N1420 1.384 . S
C1418 H1409 0.929 . S
C1418 C1410 1.378 . S
C1418 C1413 1.350 1_655 S
C1419 H1406 0.929 . S
C1419 C1411 1.433 1_556 S
C1419 N1421 1.384 . S
N1420 C1416 1.427 1_554 S
N1420 C1417 1.384 . S
N1421 C1413 1.427 1_556 S
N1421 C1419 1.384 . S
H1422 C1428 0.930 . S
H1423 C1432 0.930 . S
H1424 C1437 0.929 . S
H1425 C1435 0.929 . S
H1426 C1430 0.929 . S
H1427 C1436 0.929 . S
C1428 H1422 0.930 . S
C1428 C1429 1.367 1_556 S
C1428 C1436 1.378 . S
C1429 C1428 1.367 1_554 S
C1429 C1437 1.433 . S
C1430 H1426 0.929 . S
C1430 C1432 1.378 . S
C1430 C1434 1.350 1_554 S
C1431 C1434 1.463 1_554 S
C1431 C1436 1.350 1_554 S
C1431 N1439 1.427 . S
C1432 H1423 0.930 . S
C1432 C1430 1.378 . S
C1432 C1433 1.367 1_554 S
C1433 C1432 1.367 1_556 S
C1433 C1435 1.433 . S
C1434 C1430 1.350 1_556 S
C1434 C1431 1.463 1_556 S
C1434 N1438 1.427 . S
C1435 H1425 0.929 . S
C1435 C1433 1.433 . S
C1435 N1438 1.384 . S
C1436 H1427 0.929 . S
C1436 C1428 1.378 . S
C1436 C1431 1.350 1_556 S
C1437 H1424 0.929 . S
C1437 C1429 1.433 . S
C1437 N1439 1.384 . S
N1438 C1434 1.427 . S
N1438 C1435 1.384 . S
N1439 C1431 1.427 . S
N1439 C1437 1.384 . S
H1440 C1446 0.930 . S
H1441 C1450 0.930 . S
H1442 C1455 0.929 . S
H1443 C1453 0.929 . S
H1444 C1448 0.929 . S
H1445 C1454 0.929 . S
C1446 H1440 0.930 . S
C1446 C1447 1.367 . S
C1446 C1454 1.378 . S
C1447 C1446 1.367 . S
C1447 C1455 1.433 . S
C1448 H1444 0.929 . S
C1448 C1450 1.378 . S
C1448 C1452 1.350 . S
C1449 C1452 1.463 . S
C1449 C1454 1.350 . S
C1449 N1457 1.427 . S
C1450 H1441 0.930 . S
C1450 C1448 1.378 . S
C1450 C1451 1.367 . S
C1451 C1450 1.367 . S
C1451 C1453 1.433 . S
C1452 C1448 1.350 . S
C1452 C1449 1.463 . S
C1452 N1456 1.427 . S
C1453 H1443 0.929 . S
C1453 C1451 1.433 . S
C1453 N1456 1.384 . S
C1454 H1445 0.929 . S
C1454 C1446 1.378 . S
C1454 C1449 1.350 . S
C1455 H1442 0.929 . S
C1455 C1447 1.433 . S
C1455 N1457 1.384 . S
N1456 C1452 1.427 . S
N1456 C1453 1.384 . S
N1457 C1449 1.427 . S
N1457 C1455 1.384 . S
H1458 C1464 0.930 . S
H1459 C1468 0.914 1_556 S
H1460 C1473 0.929 . S
H1461 C1471 0.929 . S
H1462 C1466 0.929 . S
H1463 C1472 0.929 . S
C1464 H1458 0.930 . S
C1464 C1465 1.367 . S
C1464 C1472 1.378 . S
C1465 C1464 1.367 . S
C1465 C1473 1.433 . S
C1466 H1462 0.929 . S
C1466 C1468 1.392 . S
C1466 C1470 1.350 . S
C1467 C1470 1.463 . S
C1467 C1472 1.350 . S
C1467 N1475 1.427 . S
C1468 H1459 0.914 1_554 S
C1468 C1466 1.392 . S
C1468 C1469 1.369 . S
C1469 C1468 1.369 . S
C1469 C1471 1.433 . S
C1470 C1466 1.350 . S
C1470 C1467 1.463 . S
C1470 N1474 1.427 . S
C1471 H1461 0.929 . S
C1471 C1469 1.433 . S
C1471 N1474 1.384 . S
C1472 H1463 0.929 . S
C1472 C1464 1.378 . S
C1472 C1467 1.350 . S
C1473 H1460 0.929 . S
C1473 C1465 1.433 . S
C1473 N1475 1.384 . S
N1474 C1470 1.427 . S
N1474 C1471 1.384 . S
N1475 C1467 1.427 . S
N1475 C1473 1.384 . S
H1476 C1482 0.930 . S
H1477 C1486 0.930 . S
H1478 C1491 0.929 . S
H1479 C1489 0.929 . S
H1480 C1484 0.929 . S
H1481 C1490 0.929 . S
C1482 H1476 0.930 . S
C1482 C1483 1.367 . S
C1482 C1490 1.378 . S
C1483 C1482 1.367 . S
C1483 C1491 1.433 . S
C1484 H1480 0.929 . S
C1484 C1486 1.378 . S
C1484 C1488 1.350 . S
C1485 C1488 1.463 . S
C1485 C1490 1.350 . S
C1485 N1493 1.427 . S
C1486 H1477 0.930 . S
C1486 C1484 1.378 . S
C1486 C1487 1.367 . S
C1487 C1486 1.367 . S
C1487 C1489 1.433 . S
C1488 C1484 1.350 . S
C1488 C1485 1.463 . S
C1488 N1492 1.427 . S
C1489 H1479 0.929 . S
C1489 C1487 1.433 . S
C1489 N1492 1.384 . S
C1490 H1481 0.929 . S
C1490 C1482 1.378 . S
C1490 C1485 1.350 . S
C1491 H1478 0.929 . S
C1491 C1483 1.433 . S
C1491 N1493 1.384 . S
N1492 C1488 1.427 . S
N1492 C1489 1.384 . S
N1493 C1485 1.427 . S
N1493 C1491 1.384 . S
H1494 C1500 0.930 . S
H1495 C1504 0.930 . S
H1496 C1509 0.929 . S
H1497 C1507 0.929 . S
H1498 C1502 0.929 . S
H1499 C1508 0.929 . S
C1500 H1494 0.930 . S
C1500 C1501 1.367 . S
C1500 C1508 1.378 . S
C1501 C1500 1.367 . S
C1501 C1509 1.433 . S
C1502 H1498 0.929 . S
C1502 C1504 1.378 . S
C1502 C1506 1.350 . S
C1503 C1506 1.463 . S
C1503 C1508 1.350 . S
C1503 N1511 1.427 . S
C1504 H1495 0.930 . S
C1504 C1502 1.378 . S
C1504 C1505 1.367 . S
C1505 C1504 1.367 . S
C1505 C1507 1.433 . S
C1506 C1502 1.350 . S
C1506 C1503 1.463 . S
C1506 N1510 1.427 . S
C1507 H1497 0.929 . S
C1507 C1505 1.433 . S
C1507 N1510 1.384 . S
C1508 H1499 0.929 . S
C1508 C1500 1.378 . S
C1508 C1503 1.350 . S
C1509 H1496 0.929 . S
C1509 C1501 1.433 . S
C1509 N1511 1.384 . S
N1510 C1506 1.427 . S
N1510 C1507 1.384 . S
N1511 C1503 1.427 . S
N1511 C1509 1.384 . S
H1512 C1518 0.930 . S
H1513 C1522 0.930 . S
H1514 C1527 0.929 . S
H1515 C1525 0.929 . S
H1516 C1520 0.929 . S
H1517 C1526 0.929 . S
C1518 H1512 0.930 . S
C1518 C1519 1.367 . S
C1518 C1526 1.378 . S
C1519 C1518 1.367 . S
C1519 C1527 1.433 . S
C1520 H1516 0.929 . S
C1520 C1522 1.378 . S
C1520 C1524 1.350 . S
C1521 C1524 1.463 . S
C1521 C1526 1.350 . S
C1521 N1529 1.427 . S
C1522 H1513 0.930 . S
C1522 C1520 1.378 . S
C1522 C1523 1.367 . S
C1523 C1522 1.367 . S
C1523 C1525 1.433 . S
C1524 C1520 1.350 . S
C1524 C1521 1.463 . S
C1524 N1528 1.427 . S
C1525 H1515 0.929 . S
C1525 C1523 1.433 . S
C1525 N1528 1.384 . S
C1526 H1517 0.929 . S
C1526 C1518 1.378 . S
C1526 C1521 1.350 . S
C1527 H1514 0.929 . S
C1527 C1519 1.433 . S
C1527 N1529 1.384 . S
N1528 C1524 1.427 . S
N1528 C1525 1.384 . S
N1529 C1521 1.427 . S
N1529 C1527 1.384 . S
H1530 C1536 0.930 . S
H1531 C1540 0.930 . S
H1532 C1545 0.929 . S
H1533 C1543 0.929 . S
H1534 C1538 0.929 . S
H1535 C1544 0.929 . S
C1536 H1530 0.930 . S
C1536 C1537 1.367 . S
C1536 C1544 1.378 . S
C1537 C1536 1.367 . S
C1537 C1545 1.433 . S
C1538 H1534 0.929 . S
C1538 C1540 1.378 . S
C1538 C1542 1.350 . S
C1539 C1542 1.463 . S
C1539 C1544 1.350 . S
C1539 N1547 1.427 . S
C1540 H1531 0.930 . S
C1540 C1538 1.378 . S
C1540 C1541 1.367 . S
C1541 C1540 1.367 . S
C1541 C1543 1.433 . S
C1542 C1538 1.350 . S
C1542 C1539 1.463 . S
C1542 N1546 1.427 . S
C1543 H1533 0.929 . S
C1543 C1541 1.433 . S
C1543 N1546 1.384 . S
C1544 H1535 0.929 . S
C1544 C1536 1.378 . S
C1544 C1539 1.350 . S
C1545 H1532 0.929 . S
C1545 C1537 1.433 . S
C1545 N1547 1.384 . S
N1546 C1542 1.427 . S
N1546 C1543 1.384 . S
N1547 C1539 1.427 . S
N1547 C1545 1.384 . S
H1548 C1554 0.930 . S
H1549 C1558 0.930 . S
H1550 C1563 0.929 . S
H1551 C1561 0.918 1_554 S
H1552 C1556 0.929 . S
H1553 C1562 0.929 . S
C1554 H1548 0.930 . S
C1554 C1555 1.367 . S
C1554 C1562 1.378 . S
C1555 C1554 1.367 . S
C1555 C1563 1.433 . S
C1556 H1552 0.929 . S
C1556 C1558 1.378 . S
C1556 C1560 1.350 . S
C1557 C1560 1.463 . S
C1557 C1562 1.350 . S
C1557 N1565 1.427 . S
C1558 H1549 0.930 . S
C1558 C1556 1.378 . S
C1558 C1559 1.367 . S
C1559 C1558 1.367 . S
C1559 C1561 1.435 . S
C1560 C1556 1.350 . S
C1560 C1557 1.463 . S
C1560 N1564 1.427 . S
C1561 H1551 0.918 1_556 S
C1561 C1559 1.435 . S
C1561 N1564 1.393 . S
C1562 H1553 0.929 . S
C1562 C1554 1.378 . S
C1562 C1557 1.350 . S
C1563 H1550 0.929 . S
C1563 C1555 1.433 . S
C1563 N1565 1.384 . S
N1564 C1560 1.427 . S
N1564 C1561 1.393 . S
N1565 C1557 1.427 . S
N1565 C1563 1.384 . S
H1566 C1572 0.930 1_554 S
H1567 C1576 0.930 . S
H1568 C1581 0.929 . S
H1569 C1579 0.929 . S
H1570 C1574 0.929 . S
H1571 C1580 0.929 . S
C1572 H1566 0.930 1_556 S
C1572 C1573 1.367 . S
C1572 C1580 1.378 . S
C1573 C1572 1.367 . S
C1573 C1581 1.433 . S
C1574 H1570 0.929 . S
C1574 C1576 1.378 . S
C1574 C1578 1.350 . S
C1575 C1578 1.463 . S
C1575 C1580 1.350 . S
C1575 N1583 1.427 . S
C1576 H1567 0.930 . S
C1576 C1574 1.378 . S
C1576 C1577 1.367 . S
C1577 C1576 1.367 . S
C1577 C1579 1.433 . S
C1578 C1574 1.350 . S
C1578 C1575 1.463 . S
C1578 N1582 1.427 . S
C1579 H1569 0.929 . S
C1579 C1577 1.433 . S
C1579 N1582 1.384 . S
C1580 H1571 0.929 . S
C1580 C1572 1.378 . S
C1580 C1575 1.350 . S
C1581 H1568 0.929 . S
C1581 C1573 1.433 . S
C1581 N1583 1.384 . S
N1582 C1578 1.427 . S
N1582 C1579 1.384 . S
N1583 C1575 1.427 . S
N1583 C1581 1.384 . S
H1584 C1590 0.930 . S
H1585 C1594 0.930 . S
H1586 C1599 0.929 . S
H1587 C1597 0.926 1_554 S
H1588 C1592 0.929 . S
H1589 C1598 0.929 . S
C1590 H1584 0.930 . S
C1590 C1591 1.367 . S
C1590 C1598 1.378 . S
C1591 C1590 1.367 . S
C1591 C1599 1.433 . S
C1592 H1588 0.929 . S
C1592 C1594 1.378 . S
C1592 C1596 1.350 . S
C1593 C1596 1.463 . S
C1593 C1598 1.350 . S
C1593 N1601 1.427 . S
C1594 H1585 0.930 . S
C1594 C1592 1.378 . S
C1594 C1595 1.367 . S
C1595 C1594 1.367 . S
C1595 C1597 1.433 . S
C1596 C1592 1.350 . S
C1596 C1593 1.463 . S
C1596 N1600 1.427 . S
C1597 H1587 0.926 1_556 S
C1597 C1595 1.433 . S
C1597 N1600 1.384 . S
C1598 H1589 0.929 . S
C1598 C1590 1.378 . S
C1598 C1593 1.350 . S
C1599 H1586 0.929 . S
C1599 C1591 1.433 . S
C1599 N1601 1.384 . S
N1600 C1596 1.427 . S
N1600 C1597 1.384 . S
N1601 C1593 1.427 . S
N1601 C1599 1.384 . S
H1602 C1608 0.930 . S
H1603 C1612 0.930 . S
H1604 C1617 0.929 . S
H1605 C1615 0.929 . S
H1606 C1610 0.929 . S
H1607 C1616 0.929 . S
C1608 H1602 0.930 . S
C1608 C1609 1.367 . S
C1608 C1616 1.378 . S
C1609 C1608 1.367 . S
C1609 C1617 1.433 . S
C1610 H1606 0.929 . S
C1610 C1612 1.378 . S
C1610 C1614 1.350 . S
C1611 C1614 1.463 . S
C1611 C1616 1.350 . S
C1611 N1619 1.427 . S
C1612 H1603 0.930 . S
C1612 C1610 1.378 . S
C1612 C1613 1.367 . S
C1613 C1612 1.367 . S
C1613 C1615 1.433 . S
C1614 C1610 1.350 . S
C1614 C1611 1.463 . S
C1614 N1618 1.427 . S
C1615 H1605 0.929 . S
C1615 C1613 1.433 . S
C1615 N1618 1.384 . S
C1616 H1607 0.929 . S
C1616 C1608 1.378 . S
C1616 C1611 1.350 . S
C1617 H1604 0.929 . S
C1617 C1609 1.433 . S
C1617 N1619 1.384 . S
N1618 C1614 1.427 . S
N1618 C1615 1.384 . S
N1619 C1611 1.427 . S
N1619 C1617 1.384 . S
H1620 C1626 0.930 . S
H1621 C1630 0.930 . S
H1622 C1635 0.929 . S
H1623 C1633 0.929 . S
H1624 C1628 0.929 . S
H1625 C1634 0.929 . S
C1626 H1620 0.930 . S
C1626 C1627 1.367 . S
C1626 C1634 1.378 . S
C1627 C1626 1.367 . S
C1627 C1635 1.433 . S
C1628 H1624 0.929 . S
C1628 C1630 1.378 . S
C1628 C1632 1.350 . S
C1629 C1632 1.463 . S
C1629 C1634 1.350 . S
C1629 N1637 1.427 . S
C1630 H1621 0.930 . S
C1630 C1628 1.378 . S
C1630 C1631 1.367 . S
C1631 C1630 1.367 . S
C1631 C1633 1.433 . S
C1632 C1628 1.350 . S
C1632 C1629 1.463 . S
C1632 N1636 1.427 . S
C1633 H1623 0.929 . S
C1633 C1631 1.433 . S
C1633 N1636 1.384 . S
C1634 H1625 0.929 . S
C1634 C1626 1.378 . S
C1634 C1629 1.350 . S
C1635 H1622 0.929 . S
C1635 C1627 1.433 . S
C1635 N1637 1.384 . S
N1636 C1632 1.427 . S
N1636 C1633 1.384 . S
N1637 C1629 1.427 . S
N1637 C1635 1.384 . S
H1638 C1644 0.930 . S
H1639 C1648 0.930 . S
H1640 C1653 0.929 . S
H1641 C1651 0.929 . S
H1642 C1646 0.929 . S
H1643 C1652 0.929 . S
C1644 H1638 0.930 . S
C1644 C1645 1.367 . S
C1644 C1652 1.378 . S
C1645 C1644 1.367 . S
C1645 C1653 1.433 . S
C1646 H1642 0.929 . S
C1646 C1648 1.378 . S
C1646 C1650 1.350 . S
C1647 C1650 1.463 . S
C1647 C1652 1.350 . S
C1647 N1655 1.427 . S
C1648 H1639 0.930 . S
C1648 C1646 1.378 . S
C1648 C1649 1.367 . S
C1649 C1648 1.367 . S
C1649 C1651 1.433 . S
C1650 C1646 1.350 . S
C1650 C1647 1.463 . S
C1650 N1654 1.427 . S
C1651 H1641 0.929 . S
C1651 C1649 1.433 . S
C1651 N1654 1.384 . S
C1652 H1643 0.929 . S
C1652 C1644 1.378 . S
C1652 C1647 1.350 . S
C1653 H1640 0.929 . S
C1653 C1645 1.433 . S
C1653 N1655 1.384 . S
N1654 C1650 1.427 . S
N1654 C1651 1.384 . S
N1655 C1647 1.427 . S
N1655 C1653 1.384 . S
H1656 C1662 0.930 . S
H1657 C1666 0.930 . S
H1658 C1671 0.929 . S
H1659 C1669 0.929 . S
H1660 C1664 0.929 . S
H1661 C1670 0.929 . S
C1662 H1656 0.930 . S
C1662 C1663 1.367 . S
C1662 C1670 1.378 . S
C1663 C1662 1.367 . S
C1663 C1671 1.433 . S
C1664 H1660 0.929 . S
C1664 C1666 1.378 . S
C1664 C1668 1.350 . S
C1665 C1668 1.463 . S
C1665 C1670 1.350 . S
C1665 N1673 1.427 . S
C1666 H1657 0.930 . S
C1666 C1664 1.378 . S
C1666 C1667 1.367 . S
C1667 C1666 1.367 . S
C1667 C1669 1.433 . S
C1668 C1664 1.350 . S
C1668 C1665 1.463 . S
C1668 N1672 1.427 . S
C1669 H1659 0.929 . S
C1669 C1667 1.433 . S
C1669 N1672 1.384 . S
C1670 H1661 0.929 . S
C1670 C1662 1.378 . S
C1670 C1665 1.350 . S
C1671 H1658 0.929 . S
C1671 C1663 1.433 . S
C1671 N1673 1.384 . S
N1672 C1668 1.427 . S
N1672 C1669 1.384 . S
N1673 C1665 1.427 . S
N1673 C1671 1.384 . S
H1674 C1680 0.930 . S
H1675 C1684 0.930 . S
H1676 C1689 0.929 . S
H1677 C1687 0.929 . S
H1678 C1682 0.929 . S
H1679 C1688 0.929 . S
C1680 H1674 0.930 . S
C1680 C1681 1.367 . S
C1680 C1688 1.378 . S
C1681 C1680 1.367 . S
C1681 C1689 1.433 . S
C1682 H1678 0.929 . S
C1682 C1684 1.378 . S
C1682 C1686 1.350 . S
C1683 C1686 1.463 1_545 S
C1683 C1688 1.350 . S
C1683 N1691 1.452 . S
C1684 H1675 0.930 . S
C1684 C1682 1.378 . S
C1684 C1685 1.367 . S
C1685 C1684 1.367 . S
C1685 C1687 1.433 . S
C1686 C1682 1.350 . S
C1686 C1683 1.463 1_565 S
C1686 N1690 1.451 . S
C1687 H1677 0.929 . S
C1687 C1685 1.433 . S
C1687 N1690 1.409 . S
C1688 H1679 0.929 . S
C1688 C1680 1.378 . S
C1688 C1683 1.350 . S
C1689 H1676 0.929 . S
C1689 C1681 1.433 . S
C1689 N1691 1.410 . S
N1690 C1686 1.451 . S
N1690 C1687 1.409 . S
N1691 C1683 1.452 . S
N1691 C1689 1.410 . S
H1692 C1698 0.930 . S
H1693 C1702 0.930 . S
H1694 C1707 0.929 . S
H1695 C1705 0.929 . S
H1696 C1700 0.929 . S
H1697 C1706 0.929 . S
C1698 H1692 0.930 . S
C1698 C1699 1.367 . S
C1698 C1706 1.378 . S
C1699 C1698 1.367 . S
C1699 C1707 1.433 . S
C1700 H1696 0.929 . S
C1700 C1702 1.378 . S
C1700 C1704 1.350 . S
C1701 C1704 1.463 1_655 S
C1701 C1706 1.350 . S
C1701 N1709 1.427 . S
C1702 H1693 0.930 . S
C1702 C1700 1.378 . S
C1702 C1703 1.367 . S
C1703 C1702 1.367 . S
C1703 C1705 1.433 . S
C1704 C1700 1.350 . S
C1704 C1701 1.463 1_455 S
C1704 N1708 1.427 . S
C1705 H1695 0.929 . S
C1705 C1703 1.433 . S
C1705 N1708 1.384 . S
C1706 H1697 0.929 . S
C1706 C1698 1.378 . S
C1706 C1701 1.350 . S
C1707 H1694 0.929 . S
C1707 C1699 1.433 . S
C1707 N1709 1.384 . S
N1708 C1704 1.427 . S
N1708 C1705 1.384 . S
N1709 C1701 1.427 . S
N1709 C1707 1.384 . S
H1710 C1716 0.930 . S
H1711 C1720 0.930 . S
H1712 C1725 0.929 . S
H1713 C1723 0.929 . S
H1714 C1718 0.929 . S
H1715 C1724 0.929 . S
C1716 H1710 0.930 . S
C1716 C1717 1.367 . S
C1716 C1724 1.378 . S
C1717 C1716 1.367 . S
C1717 C1725 1.433 . S
C1718 H1714 0.929 . S
C1718 C1720 1.378 . S
C1718 C1722 1.350 . S
C1719 C1722 1.463 . S
C1719 C1724 1.350 . S
C1719 N1727 1.427 . S
C1720 H1711 0.930 . S
C1720 C1718 1.378 . S
C1720 C1721 1.367 . S
C1721 C1720 1.367 . S
C1721 C1723 1.433 . S
C1722 C1718 1.350 . S
C1722 C1719 1.463 . S
C1722 N1726 1.427 . S
C1723 H1713 0.929 . S
C1723 C1721 1.433 . S
C1723 N1726 1.384 . S
C1724 H1715 0.929 . S
C1724 C1716 1.378 . S
C1724 C1719 1.350 . S
C1725 H1712 0.929 . S
C1725 C1717 1.433 . S
C1725 N1727 1.384 . S
N1726 C1722 1.427 . S
N1726 C1723 1.384 . S
N1727 C1719 1.427 . S
N1727 C1725 1.384 . S
H1728 C1734 0.930 . S
H1729 C1738 0.930 . S
H1730 C1743 0.929 . S
H1731 C1741 0.929 . S
H1732 C1736 0.929 . S
H1733 C1742 0.929 . S
C1734 H1728 0.930 . S
C1734 C1735 1.367 . S
C1734 C1742 1.378 . S
C1735 C1734 1.367 . S
C1735 C1743 1.433 . S
C1736 H1732 0.929 . S
C1736 C1738 1.378 . S
C1736 C1740 1.350 . S
C1737 C1740 1.463 1_545 S
C1737 C1742 1.350 . S
C1737 N1745 1.427 . S
C1738 H1729 0.930 . S
C1738 C1736 1.378 . S
C1738 C1739 1.367 . S
C1739 C1738 1.367 . S
C1739 C1741 1.433 . S
C1740 C1736 1.350 . S
C1740 C1737 1.463 1_565 S
C1740 N1744 1.427 . S
C1741 H1731 0.929 . S
C1741 C1739 1.433 . S
C1741 N1744 1.384 . S
C1742 H1733 0.929 . S
C1742 C1734 1.378 . S
C1742 C1737 1.350 . S
C1743 H1730 0.929 . S
C1743 C1735 1.433 . S
C1743 N1745 1.384 . S
N1744 C1740 1.427 . S
N1744 C1741 1.384 . S
N1745 C1737 1.427 . S
N1745 C1743 1.384 . S
H1746 C1752 0.930 . S
H1747 C1756 0.930 . S
H1748 C1761 0.929 . S
H1749 C1759 0.929 . S
H1750 C1754 0.967 . S
H1751 C1760 0.969 . S
C1752 H1746 0.930 . S
C1752 C1753 1.367 . S
C1752 C1760 1.350 1_455 S
C1753 C1752 1.367 . S
C1753 C1761 1.433 . S
C1754 H1750 0.967 . S
C1754 C1756 1.351 1_455 S
C1754 C1758 1.340 1_455 S
C1755 C1758 1.463 1_455 S
C1755 C1760 1.340 1_455 S
C1755 N1763 1.427 . S
C1756 H1747 0.930 . S
C1756 C1754 1.351 1_655 S
C1756 C1757 1.367 . S
C1757 C1756 1.367 . S
C1757 C1759 1.433 . S
C1758 C1754 1.340 1_655 S
C1758 C1755 1.463 1_655 S
C1758 N1762 1.427 . S
C1759 H1749 0.929 . S
C1759 C1757 1.433 . S
C1759 N1762 1.384 . S
C1760 H1751 0.969 . S
C1760 C1752 1.350 1_655 S
C1760 C1755 1.340 1_655 S
C1761 H1748 0.929 . S
C1761 C1753 1.433 . S
C1761 N1763 1.384 . S
N1762 C1758 1.427 . S
N1762 C1759 1.384 . S
N1763 C1755 1.427 . S
N1763 C1761 1.384 . S
C475 C70 0.616 . S
C479 C5 0.581 . S
C493 C44 0.601 . S
C497 C18 0.591 . S
C511 C31 0.584 . S
C515 C57 0.612 . S
C529 C83 0.581 . S
C533 C148 0.621 . S
C547 C96 0.589 . S
C551 C122 0.603 . S
C565 C135 0.616 . S
C569 C109 0.602 . S
C583 C161 0.594 . S
C587 C226 0.597 . S
C601 C174 0.581 . S
C605 C200 0.618 . S
C619 C213 0.613 . S
C623 C187 0.606 . S
C637 C304 0.610 . S
C641 C239 0.609 . S
C655 C278 0.581 . S
C659 C252 0.617 . S
C673 C265 0.581 . S
C677 C291 0.618 . S
C691 C382 0.602 . S
C695 C317 0.590 . S
C709 C356 0.618 . S
C713 C330 0.600 . S
C727 C343 0.624 . S
C731 C369 0.587 . S
C745 C460 0.622 . S
C749 C395 0.592 . S
C763 C434 0.619 . S
C767 C408 0.598 . S
C781 C447 0.582 . S
C785 C421 0.623 . S
C799 C216 1.255 . S
C803 C8 1.248 . S
C817 C229 1.237 . S
C821 C21 1.251 . S
C835 C203 1.255 . S
C839 C34 1.245 . S
C853 C47 1.224 . S
C857 C346 1.233 1_554 S
C871 C60 1.228 . S
C875 C320 1.225 1_554 S
C889 C73 1.255 . S
C893 C333 1.244 1_554 S
C907 C86 1.237 . S
C911 C450 1.251 . S
C925 C463 1.229 . S
C929 C99 1.224 . S
C943 C437 1.244 . S
C947 C112 1.255 . S
C961 C268 1.255 1_556 S
C965 C125 1.248 . S
C979 C242 1.253 1_556 S
C983 C138 1.241 . S
C997 C151 1.225 . S
C1001 C255 1.229 1_556 S
C1015 C164 1.238 . S
C1019 C372 1.252 . S
C1033 C385 1.239 . S
C1037 C177 1.226 . S
C1051 C359 1.250 . S
C1055 C190 1.236 . S
C1069 C281 1.235 . S
C1073 C424 1.225 . S
C1087 C398 1.224 . S
C1091 C294 1.230 . S
C1105 C307 1.226 . S
C1109 C411 1.226 . S
C1123 C234 1.226 . S
C1127 C0 1.226 . S
C1141 C247 1.232 . S
C1145 C13 1.232 . S
C1159 C26 1.231 . S
C1163 C260 1.231 . S
C1177 C39 1.237 . S
C1181 C429 1.237 . S
C1195 C442 1.234 . S
C1199 C52 1.234 . S
C1213 C455 1.235 . S
C1217 C65 1.235 . S
C1231 C78 1.226 . S
C1235 C312 1.226 . S
C1249 C91 1.229 . S
C1253 C325 1.229 . S
C1267 C338 1.228 . S
C1271 C104 1.228 . S
C1285 C117 1.227 . S
C1289 C195 1.227 . S
C1303 C130 1.231 . S
C1307 C208 1.231 . S
C1321 C221 1.232 . S
C1325 C143 1.232 . S
C1339 C156 1.236 . S
C1343 C390 1.236 . S
C1357 C169 1.227 . S
C1361 C403 1.227 . S
C1375 C416 1.238 . S
C1379 C182 1.238 . S
C1393 C351 1.230 . S
C1397 C273 1.230 . S
C1411 C286 1.239 . S
C1415 C364 1.239 . S
C1429 C299 1.227 . S
C1433 C377 1.227 . S
C1447 C361 1.650 1_554 S
C1451 C10 1.641 . S
C1465 C23 1.645 . S
C1469 C374 1.647 1_554 S
C1483 C387 1.650 1_554 S
C1487 C36 1.642 . S
C1501 C49 1.643 . S
C1505 C166 1.648 . S
C1519 C179 1.645 . S
C1523 C62 1.647 . S
C1537 C192 1.644 . S
C1541 C75 1.647 . S
C1555 C88 1.646 . S
C1559 C283 1.644 1_556 S
C1573 C296 1.649 1_556 S
C1577 C101 1.643 . S
C1591 C114 1.642 . S
C1595 C309 1.649 1_556 S
C1609 C127 1.650 . S
C1613 C400 1.641 . S
C1627 C140 1.647 . S
C1631 C413 1.644 . S
C1645 C426 1.649 . S
C1649 C153 1.642 . S
C1663 C205 1.649 . S
C1667 C322 1.642 . S
C1681 C218 1.647 . S
C1685 C335 1.643 . S
C1699 C231 1.649 . S
C1703 C348 1.642 . S
C1717 C244 1.644 . S
C1721 C439 1.647 . S
C1735 C257 1.641 . S
C1739 C452 1.650 . S
C1753 C465 1.645 . S
C1757 C270 1.647 . S
