# Generated by pormake.
# Topology uoz, (4)-cn, num edge types: 1
# Building blocks:
#     Node 0, Type 0, BuildingBlock: ICAMEG_clean_sbu_1, # of connection points: 4
#     Node 1, Type 0, BuildingBlock: ICAMEG_clean_sbu_1, # of connection points: 4
#     Node 2, Type 0, BuildingBlock: ICAMEG_clean_sbu_1, # of connection points: 4
#     Node 3, Type 0, BuildingBlock: ICAMEG_clean_sbu_1, # of connection points: 4
#     Node 4, Type 0, BuildingBlock: ICAMEG_clean_sbu_1, # of connection points: 4
#     Node 5, Type 0, BuildingBlock: ICAMEG_clean_sbu_1, # of connection points: 4
#     Node 6, Type 0, BuildingBlock: ICAMEG_clean_sbu_1, # of connection points: 4
#     Node 7, Type 0, BuildingBlock: ICAMEG_clean_sbu_1, # of connection points: 4
#     Node 8, Type 0, BuildingBlock: ICAMEG_clean_sbu_1, # of connection points: 4
#     Node 9, Type 0, BuildingBlock: ICAMEG_clean_sbu_1, # of connection points: 4
#     Node 10, Type 0, BuildingBlock: ICAMEG_clean_sbu_1, # of connection points: 4
#     Node 11, Type 0, BuildingBlock: ICAMEG_clean_sbu_1, # of connection points: 4
#     Node 12, Type 0, BuildingBlock: ICAMEG_clean_sbu_1, # of connection points: 4
#     Node 13, Type 0, BuildingBlock: ICAMEG_clean_sbu_1, # of connection points: 4
#     Node 14, Type 0, BuildingBlock: ICAMEG_clean_sbu_1, # of connection points: 4
#     Node 15, Type 0, BuildingBlock: ICAMEG_clean_sbu_1, # of connection points: 4
#     Edge 16, Type (0, 0), BuildingBlock: KIFKEQ_clean_linker_1, # of connection points: 2
#     Edge 17, Type (0, 0), BuildingBlock: KIFKEQ_clean_linker_1, # of connection points: 2
#     Edge 18, Type (0, 0), BuildingBlock: KIFKEQ_clean_linker_1, # of connection points: 2
#     Edge 19, Type (0, 0), BuildingBlock: KIFKEQ_clean_linker_1, # of connection points: 2
#     Edge 20, Type (0, 0), BuildingBlock: KIFKEQ_clean_linker_1, # of connection points: 2
#     Edge 21, Type (0, 0), BuildingBlock: KIFKEQ_clean_linker_1, # of connection points: 2
#     Edge 22, Type (0, 0), BuildingBlock: KIFKEQ_clean_linker_1, # of connection points: 2
#     Edge 23, Type (0, 0), BuildingBlock: KIFKEQ_clean_linker_1, # of connection points: 2
#     Edge 24, Type (0, 0), BuildingBlock: KIFKEQ_clean_linker_1, # of connection points: 2
#     Edge 25, Type (0, 0), BuildingBlock: KIFKEQ_clean_linker_1, # of connection points: 2
#     Edge 26, Type (0, 0), BuildingBlock: KIFKEQ_clean_linker_1, # of connection points: 2
#     Edge 27, Type (0, 0), BuildingBlock: KIFKEQ_clean_linker_1, # of connection points: 2
#     Edge 28, Type (0, 0), BuildingBlock: KIFKEQ_clean_linker_1, # of connection points: 2
#     Edge 29, Type (0, 0), BuildingBlock: KIFKEQ_clean_linker_1, # of connection points: 2
#     Edge 30, Type (0, 0), BuildingBlock: KIFKEQ_clean_linker_1, # of connection points: 2
#     Edge 31, Type (0, 0), BuildingBlock: KIFKEQ_clean_linker_1, # of connection points: 2
#     Edge 32, Type (0, 0), BuildingBlock: KIFKEQ_clean_linker_1, # of connection points: 2
#     Edge 33, Type (0, 0), BuildingBlock: KIFKEQ_clean_linker_1, # of connection points: 2
#     Edge 34, Type (0, 0), BuildingBlock: KIFKEQ_clean_linker_1, # of connection points: 2
#     Edge 35, Type (0, 0), BuildingBlock: KIFKEQ_clean_linker_1, # of connection points: 2
#     Edge 36, Type (0, 0), BuildingBlock: KIFKEQ_clean_linker_1, # of connection points: 2
#     Edge 37, Type (0, 0), BuildingBlock: KIFKEQ_clean_linker_1, # of connection points: 2
#     Edge 38, Type (0, 0), BuildingBlock: KIFKEQ_clean_linker_1, # of connection points: 2
#     Edge 39, Type (0, 0), BuildingBlock: KIFKEQ_clean_linker_1, # of connection points: 2
#     Edge 40, Type (0, 0), BuildingBlock: KIFKEQ_clean_linker_1, # of connection points: 2
#     Edge 41, Type (0, 0), BuildingBlock: KIFKEQ_clean_linker_1, # of connection points: 2
#     Edge 42, Type (0, 0), BuildingBlock: KIFKEQ_clean_linker_1, # of connection points: 2
#     Edge 43, Type (0, 0), BuildingBlock: KIFKEQ_clean_linker_1, # of connection points: 2
#     Edge 44, Type (0, 0), BuildingBlock: KIFKEQ_clean_linker_1, # of connection points: 2
#     Edge 45, Type (0, 0), BuildingBlock: KIFKEQ_clean_linker_1, # of connection points: 2
#     Edge 46, Type (0, 0), BuildingBlock: KIFKEQ_clean_linker_1, # of connection points: 2
#     Edge 47, Type (0, 0), BuildingBlock: KIFKEQ_clean_linker_1, # of connection points: 2
# Relax obj value: 0.289
# Max RMSD: 0.241
# Mean RMSD: 0.240
data_MOF--net-uoz--node1-ICAMEG_clean_sbu_1--edge1-KIFKEQ_clean_linker_1
_symmetry_space_group_name_H-M    P1
_symmetry_Int_Tables_number       1
_symmetry_cell_setting            triclinic
loop_
_symmetry_equiv_pos_as_xyz
'x, y, z'
_cell_length_a     62.603785
_cell_length_b     62.586242
_cell_length_c     23.189964
_cell_angle_alpha  90.01451
_cell_angle_beta   89.971639
_cell_angle_gamma 89.986326
loop_
_atom_site_label
_atom_site_type_symbol
_atom_site_fract_x
_atom_site_fract_y
_atom_site_fract_z
_atom_type_partial_charge
Co0 Co 1.01285 0.59255 0.2142 0.0
Co1 Co 0.01657 0.61187 0.3529 0.0
O2 O 1.01064 0.58887 0.29754 0.0
C3 C 0.97149 0.57708 0.17145 0.0
O4 O 0.96943 0.59601 0.14773 0.0
C5 C 0.03719 0.57117 0.40125 0.0
O6 O 0.04248 0.56563 0.3486 0.0
O7 O 0.0454 0.61772 0.316 0.0
O8 O 0.03779 0.61209 0.22265 0.0
H9 H 0.04087 0.68499 0.41355 0.0
H10 H 1.0109 0.54829 0.2592 0.0
O11 O 0.98761 0.57315 0.2035 0.0
H12 H 0.08006 0.55323 0.15832 0.0
H13 H 0.01331 0.56775 1.00718 0.0
H14 H 0.01893 0.62985 0.13726 0.0
H15 H 0.05579 0.58419 0.16198 0.0
H16 H 1.01095 0.56307 0.11255 0.0
O17 O 0.02893 0.5897 0.4099 0.0
H18 H 0.0328 0.65622 0.34419 0.0
H19 H 0.01334 0.61553 0.48105 0.0
H20 H 0.02146 0.63523 0.03211 0.0
H21 H 0.03448 0.51677 0.25552 0.0
H22 H 0.01862 0.60405 0.9663 0.0
H23 H 0.06941 0.51915 0.20505 0.0
O24 O 0.9933 0.61736 0.21876 0.0
H25 H 0.95668 0.56647 0.43001 0.0
H26 H 0.9806 0.64003 0.3897 0.0
H27 H 0.94487 0.63404 0.43135 0.0
H28 H 0.93273 0.59704 0.45206 0.0
H29 H 0.99217 0.57314 0.38778 0.0
H30 H 0.02135 0.6438 0.5519 0.0
H31 H 0.03515 0.67885 0.51825 0.0
O32 O 1.00292 0.63427 0.30009 0.0
C33 C 0.04977 0.61968 0.26206 0.0
C34 C 0.03484 0.66979 0.42874 0.0
C35 C 0.02392 0.64666 0.5064 0.0
N36 N 0.02259 0.63423 0.40851 0.0
C37 C 0.03021 0.65345 0.38966 0.0
C38 C 0.01949 0.63068 0.46607 0.0
C39 C 0.03165 0.66633 0.48748 0.0
C40 C 0.02595 0.54939 0.23656 0.0
N41 N 0.03195 0.56811 0.21096 0.0
C42 C 0.0393 0.53151 0.2349 0.0
C43 C 0.05891 0.53288 0.20669 0.0
C44 C 0.06491 0.552 0.18058 0.0
C45 C 0.05116 0.56956 0.18317 0.0
C46 C 0.01461 0.58146 0.0354 0.0
C47 C 0.01775 0.61619 0.10891 0.0
C48 C 0.01331 0.57891 0.09512 0.0
N49 N 0.01489 0.59617 0.13109 0.0
C50 C 0.01917 0.61934 0.04941 0.0
C51 C 0.01758 0.60183 1.01251 0.0
C52 C 0.99237 0.63332 0.25266 0.0
C53 C 0.96183 0.58267 0.42145 0.0
C54 C 0.97544 0.62387 0.39845 0.0
C55 C 0.95519 0.62058 0.42213 0.0
C56 C 0.94839 0.59983 0.43374 0.0
N57 N 0.98862 0.60697 0.3869 0.0
C58 C 0.98198 0.58656 0.39776 0.0
Co59 Co 0.68503 0.76572 0.46338 0.0
Co60 Co 0.66624 0.7676 0.60363 0.0
O61 O 0.68874 0.76229 0.54652 0.0
C62 C 0.69814 0.72365 0.41842 0.0
O63 O 0.67892 0.72224 0.39609 0.0
C64 C 0.70712 0.7882 0.65112 0.0
O65 O 0.71273 0.79321 0.59834 0.0
O66 O 0.6595 0.79659 0.56845 0.0
O67 O 0.66693 0.79153 0.47458 0.0
H68 H 0.59314 0.79003 0.66938 0.0
H69 H 0.72916 0.76065 0.50787 0.0
O70 O 0.70296 0.73957 0.45035 0.0
H71 H 0.72804 0.83125 0.41366 0.0
H72 H 0.70991 0.7667 0.25655 0.0
H73 H 0.64828 0.77535 0.38702 0.0
H74 H 0.69576 0.80873 0.4154 0.0
H75 H 0.71433 0.76292 0.3617 0.0
O76 O 0.68855 0.7801 0.65999 0.0
H77 H 0.62152 0.78293 0.59812 0.0
H78 H 0.66365 0.76366 0.73189 0.0
H79 H 0.64317 0.77937 0.28215 0.0
H80 H 0.76194 0.78245 0.50607 0.0
H81 H 0.67412 0.77501 0.21612 0.0
H82 H 0.76149 0.81809 0.45897 0.0
O83 O 0.65898 0.74778 0.46538 0.0
H84 H 0.71342 0.70806 0.67468 0.0
H85 H 0.63911 0.73101 0.64142 0.0
H86 H 0.64612 0.69517 0.68106 0.0
H87 H 0.6835 0.6835 0.69823 0.0
H88 H 0.70572 0.74365 0.63444 0.0
H89 H 0.63579 0.77071 0.80461 0.0
H90 H 0.6002 0.78392 0.77348 0.0
O91 O 0.64384 0.75383 0.5516 0.0
C92 C 0.65856 0.80237 0.51526 0.0
C93 C 0.60857 0.78426 0.68348 0.0
C94 C 0.63252 0.77345 0.75939 0.0
N95 N 0.64422 0.77289 0.66078 0.0
C96 C 0.6247 0.78018 0.64332 0.0
C97 C 0.64828 0.76958 0.71801 0.0
C98 C 0.61255 0.78085 0.74189 0.0
C99 C 0.72888 0.77602 0.48668 0.0
N100 N 0.71051 0.78341 0.46185 0.0
C101 C 0.74747 0.78835 0.48609 0.0
C102 C 0.7472 0.80836 0.45977 0.0
C103 C 0.72842 0.81578 0.43445 0.0
C104 C 0.71013 0.80301 0.43593 0.0
C105 C 0.69631 0.76867 0.28487 0.0
C106 C 0.66185 0.77352 0.3586 0.0
C107 C 0.69871 0.76656 0.34446 0.0
N108 N 0.68159 0.76899 0.38053 0.0
C109 C 0.65885 0.77578 0.29924 0.0
C110 C 0.67622 0.77333 0.26222 0.0
C111 C 0.64363 0.74558 0.50089 0.0
C112 C 0.69706 0.71299 0.66764 0.0
C113 C 0.65543 0.72606 0.64854 0.0
C114 C 0.65929 0.70574 0.67113 0.0
C115 C 0.68027 0.69921 0.68077 0.0
N116 N 0.67197 0.73956 0.63613 0.0
C117 C 0.69258 0.73319 0.64508 0.0
Co118 Co 0.51542 0.4345 0.71646 0.0
Co119 Co 0.51238 0.41498 0.85542 0.0
O120 O 0.51831 0.4378 0.7998 0.0
C121 C 0.55746 0.44861 0.67352 0.0
O122 O 0.55944 0.42948 0.65085 0.0
C123 C 0.49182 0.45565 0.90383 0.0
O124 O 0.48639 0.46111 0.85124 0.0
O125 O 0.48341 0.40918 0.81925 0.0
O126 O 0.48973 0.41603 0.72568 0.0
H127 H 0.48818 0.34192 0.91683 0.0
H128 H 0.51955 0.47841 0.76328 0.0
O129 O 0.54136 0.4529 0.70533 0.0
H130 H 0.44973 0.477 0.66511 0.0
H131 H 0.51546 0.46036 0.51051 0.0
H132 H 0.50691 0.39797 0.63832 0.0
H133 H 0.47266 0.44499 0.66655 0.0
H134 H 0.51837 0.46436 0.61597 0.0
O135 O 0.5002 0.43719 0.91248 0.0
H136 H 0.4961 0.37063 0.84721 0.0
H137 H 0.51584 0.41142 0.98355 0.0
H138 H 0.50377 0.39329 0.53308 0.0
H139 H 0.49732 0.51092 0.76187 0.0
H140 H 0.50808 0.42462 0.46839 0.0
H141 H 0.46208 0.51032 0.71276 0.0
O142 O 0.53368 0.40864 0.7185 0.0
H143 H 0.57257 0.46026 0.93114 0.0
H144 H 0.54831 0.38674 0.89188 0.0
H145 H 0.58414 0.39265 0.93287 0.0
H146 H 0.59645 0.42963 0.95305 0.0
H147 H 0.53697 0.45366 0.88956 0.0
H148 H 0.50796 0.38322 0.05466 0.0
H149 H 0.4941 0.34814 0.02141 0.0
O150 O 0.52577 0.3926 0.80239 0.0
C151 C 0.47827 0.40803 0.76563 0.0
C152 C 0.49423 0.35713 0.93185 0.0
C153 C 0.5053 0.38032 1.00922 0.0
N154 N 0.50643 0.39268 0.91125 0.0
C155 C 0.49878 0.37344 0.89263 0.0
C156 C 0.50964 0.39627 0.96875 0.0
C157 C 0.49754 0.36063 0.99053 0.0
C158 C 0.50435 0.47807 0.74123 0.0
N159 N 0.49742 0.45977 0.71509 0.0
C160 C 0.49178 0.49651 0.74085 0.0
C161 C 0.47199 0.49615 0.71341 0.0
C162 C 0.46503 0.47744 0.68677 0.0
C163 C 0.47802 0.45931 0.68808 0.0
C164 C 0.51351 0.44659 0.53823 0.0
C165 C 0.50872 0.41171 0.61048 0.0
C166 C 0.51513 0.44875 0.598 0.0
N167 N 0.51275 0.43142 0.63334 0.0
C168 C 0.50695 0.40895 0.55091 0.0
C169 C 0.50938 0.42653 0.51464 0.0
C170 C 0.53487 0.39278 0.75274 0.0
C171 C 0.56735 0.44406 0.92278 0.0
C172 C 0.55355 0.40289 0.90032 0.0
C173 C 0.57386 0.40613 0.92366 0.0
C174 C 0.58075 0.42688 0.93499 0.0
N175 N 0.54042 0.41982 0.88882 0.0
C176 C 0.54715 0.44021 0.89944 0.0
Co177 Co 0.84096 0.2624 0.96596 0.0
Co178 Co 0.86089 0.26068 0.10302 0.0
O179 O 0.83738 0.26516 0.04891 0.0
C180 C 0.82233 0.30232 0.92234 0.0
O181 O 0.84093 0.30553 0.89771 0.0
C182 C 0.82261 0.23731 0.15671 0.0
O183 O 0.81933 0.22722 0.10786 0.0
O184 O 0.86675 0.23136 0.06902 0.0
O185 O 0.86235 0.23904 0.97536 0.0
H186 H 0.93466 0.23811 0.16257 0.0
H187 H 0.79723 0.26089 1.01455 0.0
O188 O 0.81961 0.28599 0.95453 0.0
H189 H 0.80701 0.19181 0.91568 0.0
H190 H 0.81545 0.25845 0.75998 0.0
H191 H 0.87833 0.25883 0.88798 0.0
H192 H 0.83579 0.2187 0.91571 0.0
H193 H 0.81104 0.26116 0.86542 0.0
O194 O 0.83912 0.24929 0.16207 0.0
H195 H 0.90533 0.24471 0.09387 0.0
H196 H 0.86538 0.26602 0.23038 0.0
H197 H 0.88346 0.25604 0.7828 0.0
H198 H 0.76792 0.23456 1.01492 0.0
H199 H 0.85187 0.25584 0.71803 0.0
H200 H 0.77274 0.19971 0.96533 0.0
O201 O 0.86432 0.28369 0.96883 0.0
H202 H 0.81528 0.3212 0.17539 0.0
H203 H 0.88885 0.29756 0.13399 0.0
H204 H 0.88266 0.33386 0.17176 0.0
H205 H 0.84566 0.34587 0.19299 0.0
H206 H 0.82214 0.28513 0.137 0.0
H207 H 0.89422 0.2595 0.30061 0.0
H208 H 0.92919 0.24552 0.26678 0.0
O209 O 0.88276 0.27373 0.04723 0.0
C210 C 0.86969 0.22713 1.01532 0.0
C211 C 0.91951 0.24425 0.17783 0.0
C212 C 0.8968 0.25622 0.25531 0.0
N213 N 0.8837 0.25582 0.15804 0.0
C214 C 0.90286 0.24806 0.13911 0.0
C215 C 0.88051 0.25981 0.21535 0.0
C216 C 0.91642 0.24839 0.2363 0.0
C217 C 0.79937 0.24585 0.99239 0.0
N218 N 0.81815 0.24141 0.96488 0.0
C219 C 0.78275 0.23097 0.99296 0.0
C220 C 0.78548 0.2114 0.96522 0.0
C221 C 0.80471 0.20695 0.93741 0.0
C222 C 0.82099 0.22221 0.93777 0.0
C223 C 0.82934 0.25845 0.78776 0.0
C224 C 0.8645 0.25867 0.8601 0.0
C225 C 0.82694 0.25995 0.8475 0.0
N226 N 0.84442 0.25999 0.88289 0.0
C227 C 0.86751 0.25711 0.80057 0.0
C228 C 0.84978 0.257 0.76425 0.0
C229 C 0.88091 0.28461 1.00049 0.0
C230 C 0.83148 0.31613 0.16653 0.0
C231 C 0.87269 0.30266 0.14296 0.0
C232 C 0.86929 0.32324 0.16443 0.0
C233 C 0.84853 0.32997 0.17634 0.0
N234 N 0.85589 0.28911 0.13383 0.0
C235 C 0.83548 0.29568 0.14498 0.0
Co236 Co 1.01166 0.43304 0.90874 0.0
Co237 Co 0.01632 0.41563 0.76936 0.0
O238 O 1.01065 0.43829 0.82587 0.0
C239 C 0.97101 0.45096 0.94965 0.0
O240 O 0.96709 0.43185 0.97041 0.0
C241 C 0.03674 0.45673 0.72231 0.0
O242 O 0.04125 0.46253 0.77526 0.0
O243 O 0.04499 0.40949 0.80673 0.0
O244 O 0.03506 0.41158 0.89953 0.0
H245 H 0.04041 0.34278 0.70556 0.0
H246 H 0.0139 0.47824 0.87095 0.0
O247 O 0.98794 0.45423 0.92013 0.0
H248 H 0.08142 0.46501 0.97433 0.0
H249 H 1.01175 0.45416 0.11868 0.0
H250 H 1.01288 0.39405 0.98121 0.0
H251 H 0.05465 0.43641 0.96423 0.0
H252 H 1.01123 0.4608 1.01389 0.0
O253 O 0.02897 0.43801 0.71332 0.0
H254 H 0.03247 0.37118 0.77614 0.0
H255 H 1.01316 0.41273 0.64105 0.0
H256 H 0.01351 0.38668 0.08565 0.0
H257 H 0.04006 0.50744 0.88113 0.0
H258 H 1.01294 0.41686 0.15519 0.0
H259 H 0.07417 0.50088 0.93289 0.0
O260 O 0.99032 0.41014 0.8991 0.0
H261 H 0.95678 0.46201 0.6947 0.0
H262 H 0.98029 0.38798 0.73023 0.0
H263 H 0.94466 0.39454 0.68866 0.0
H264 H 0.93273 0.43178 0.67037 0.0
H265 H 0.99216 0.45477 0.73679 0.0
H266 H 0.02107 0.38485 0.56901 0.0
H267 H 0.03471 0.34954 0.60115 0.0
O268 O 1.00233 0.39285 0.82092 0.0
C269 C 0.04793 0.40526 0.86041 0.0
C270 C 0.03444 0.35809 0.69103 0.0
C271 C 0.02362 0.38171 0.61438 0.0
N272 N 0.02231 0.39357 0.71279 0.0
C273 C 0.02988 0.37422 0.7308 0.0
C274 C 0.01925 0.39747 0.65538 0.0
C275 C 0.03126 0.3619 0.63245 0.0
C276 C 0.02858 0.47532 0.89411 0.0
N277 N 0.03272 0.45562 0.91687 0.0
C278 C 0.0434 0.49189 0.89947 0.0
C279 C 0.06254 0.48819 0.92841 0.0
C280 C 0.06664 0.46806 0.95157 0.0
C281 C 0.05147 0.45187 0.94535 0.0
C282 C 1.01211 0.44087 0.08882 0.0
C283 C 1.0128 0.40727 1.01117 0.0
C284 C 1.01187 0.44453 0.02942 0.0
N285 N 1.0123 0.42782 0.99139 0.0
C286 C 1.01309 0.403 0.07027 0.0
C287 C 1.01276 0.41994 0.10927 0.0
C288 C 0.99027 0.39405 0.86568 0.0
C289 C 0.96184 0.44571 0.70218 0.0
C290 C 0.97523 0.40424 0.72248 0.0
C291 C 0.95503 0.40785 0.69887 0.0
C292 C 0.94834 0.42874 0.68861 0.0
N293 N 0.98847 0.42096 0.73528 0.0
C294 C 0.98193 0.44149 0.72577 0.0
Co295 Co 0.84113 0.76349 0.16006 0.0
Co296 Co 0.86132 0.76712 0.02249 0.0
O297 O 0.83792 0.76146 0.07663 0.0
C298 C 0.82419 0.72237 0.20108 0.0
O299 O 0.84276 0.71977 0.22634 0.0
C300 C 0.82126 0.7883 0.97262 0.0
O301 O 0.81576 0.79399 0.02499 0.0
O302 O 0.86715 0.79588 0.05966 0.0
O303 O 0.8613 0.78803 0.15278 0.0
H304 H 0.93503 0.79074 0.96534 0.0
H305 H 0.79712 0.76272 0.11295 0.0
O306 O 0.82102 0.73873 0.1693 0.0
H307 H 0.8031 0.83153 0.2152 0.0
H308 H 0.815 0.76414 0.36588 0.0
H309 H 0.87803 0.76861 0.23881 0.0
H310 H 0.83348 0.80652 0.21247 0.0
H311 H 0.81096 0.76205 0.26026 0.0
O312 O 0.83962 0.77964 0.96449 0.0
H313 H 0.90575 0.78294 0.03332 0.0
H314 H 0.8658 0.76386 0.89456 0.0
H315 H 0.88278 0.77085 0.34421 0.0
H316 H 0.76616 0.78705 0.11567 0.0
H317 H 0.85112 0.76859 0.40851 0.0
H318 H 0.76907 0.8218 0.16683 0.0
O319 O 0.86556 0.7434 0.15641 0.0
H320 H 0.81597 0.7076 0.94318 0.0
H321 H 0.88941 0.73088 0.98725 0.0
H322 H 0.88341 0.6952 0.94531 0.0
H323 H 0.84647 0.68338 0.92273 0.0
H324 H 0.82264 0.74305 0.98571 0.0
H325 H 0.89459 0.7716 0.82506 0.0
H326 H 0.92954 0.78508 0.86036 0.0
O327 O 0.88323 0.75331 0.07653 0.0
C328 C 0.8691 0.80005 0.11371 0.0
C329 C 0.91989 0.78485 0.94943 0.0
C330 C 0.89718 0.77415 0.87069 0.0
N331 N 0.8841 0.77293 0.96798 0.0
C332 C 0.90326 0.78037 0.98773 0.0
C333 C 0.8809 0.76987 0.91025 0.0
C334 C 0.91679 0.78169 0.89053 0.0
C335 C 0.79844 0.77769 0.13591 0.0
N336 N 0.81714 0.78318 0.16244 0.0
C337 C 0.78089 0.79146 0.13702 0.0
C338 C 0.78255 0.81097 0.16561 0.0
C339 C 0.80165 0.81646 0.19264 0.0
C340 C 0.81887 0.80229 0.19059 0.0
C341 C 0.82892 0.76519 0.33831 0.0
C342 C 0.86417 0.76769 0.26649 0.0
C343 C 0.82673 0.76403 0.27847 0.0
N344 N 0.84425 0.7653 0.24334 0.0
C345 C 0.86696 0.76894 0.32615 0.0
C346 C 0.84919 0.76767 0.3622 0.0
C347 C 0.88187 0.74259 0.12363 0.0
C348 C 0.83214 0.71261 0.95257 0.0
C349 C 0.87328 0.72587 0.97768 0.0
C350 C 0.86998 0.70564 0.95384 0.0
C351 C 0.84926 0.69902 0.94118 0.0
N352 N 0.85642 0.73919 0.98834 0.0
C353 C 0.83604 0.73273 0.97645 0.0
Co354 Co 0.51627 0.59261 0.41219 0.0
Co355 Co 0.51228 0.61074 0.27295 0.0
O356 O 0.51797 0.58803 0.32908 0.0
C357 C 0.55743 0.57545 0.45291 0.0
O358 O 0.56114 0.59454 0.4742 0.0
C359 C 0.49179 0.56988 0.22518 0.0
O360 O 0.4868 0.56422 0.27794 0.0
O361 O 0.48345 0.61672 0.30978 0.0
O362 O 0.49218 0.61325 0.40316 0.0
H363 H 0.4881 0.68365 0.21018 0.0
H364 H 0.51592 0.54769 0.37108 0.0
O365 O 0.54062 0.57212 0.42308 0.0
H366 H 0.44742 0.55748 0.47274 0.0
H367 H 0.51618 0.56951 0.62052 0.0
H368 H 0.51272 0.63081 0.48733 0.0
H369 H 0.47316 0.58714 0.46555 0.0
H370 H 0.51741 0.56391 0.51533 0.0
O371 O 0.49987 0.58846 0.2164 0.0
H372 H 0.49596 0.6551 0.28033 0.0
H373 H 0.51575 0.61395 0.14474 0.0
H374 H 0.51138 0.63713 0.59221 0.0
H375 H 0.49081 0.51747 0.37835 0.0
H376 H 0.51311 0.60634 0.65961 0.0
H377 H 0.45623 0.52229 0.42924 0.0
O378 O 0.53668 0.61659 0.4056 0.0
H379 H 0.57214 0.56475 0.19816 0.0
H380 H 0.5483 0.6386 0.2349 0.0
H381 H 0.58405 0.63228 0.19372 0.0
H382 H 0.59615 0.59513 0.17481 0.0
H383 H 0.53663 0.57177 0.2399 0.0
H384 H 0.50794 0.64199 0.07312 0.0
H385 H 0.49409 0.67717 0.10573 0.0
O386 O 0.52598 0.63333 0.3252 0.0
C387 C 0.47979 0.62011 0.36361 0.0
C388 C 0.49416 0.6684 0.19545 0.0
C389 C 0.50526 0.645 0.11851 0.0
N390 N 0.50636 0.6329 0.21671 0.0
C391 C 0.49868 0.65218 0.23498 0.0
C392 C 0.50958 0.62916 0.15927 0.0
C393 C 0.49751 0.66475 0.13684 0.0
C394 C 0.50102 0.54986 0.39391 0.0
N395 N 0.49605 0.56919 0.41782 0.0
C396 C 0.48681 0.53271 0.3976 0.0
C397 C 0.46739 0.53544 0.42604 0.0
C398 C 0.46242 0.55519 0.45037 0.0
C399 C 0.47702 0.57198 0.44581 0.0
C400 C 0.51533 0.58305 0.5916 0.0
C401 C 0.51336 0.61732 0.51634 0.0
C402 C 0.51598 0.57998 0.53197 0.0
N403 N 0.51494 0.59701 0.49513 0.0
C404 C 0.51264 0.621 0.57571 0.0
C405 C 0.51363 0.60372 0.6135 0.0
C406 C 0.53679 0.63274 0.37229 0.0
C407 C 0.56701 0.58102 0.20594 0.0
C408 C 0.55345 0.62238 0.22697 0.0
C409 C 0.57371 0.61891 0.20353 0.0
C410 C 0.58048 0.59807 0.19292 0.0
N411 N 0.54024 0.60559 0.23925 0.0
C412 C 0.54686 0.5851 0.22936 0.0
Co413 Co 0.68332 0.26031 0.6529 0.0
Co414 Co 0.66412 0.25995 0.51352 0.0
O415 O 0.68673 0.26466 0.57022 0.0
C416 C 0.69663 0.30182 0.70059 0.0
O417 O 0.6774 0.30309 0.7229 0.0
C418 C 0.70336 0.23712 0.46276 0.0
O419 O 0.70661 0.22735 0.51209 0.0
O420 O 0.65771 0.23045 0.5461 0.0
O421 O 0.66515 0.2347 0.64022 0.0
H422 H 0.59109 0.2379 0.44647 0.0
H423 H 0.72673 0.26522 0.60384 0.0
O424 O 0.70143 0.28621 0.66751 0.0
H425 H 0.72651 0.19425 0.69614 0.0
H426 H 0.70904 0.25702 0.85872 0.0
H427 H 0.64685 0.24995 0.72962 0.0
H428 H 0.69448 0.21715 0.69922 0.0
H429 H 0.71304 0.26191 0.75376 0.0
O430 O 0.68663 0.24872 0.45632 0.0
H431 H 0.6195 0.24428 0.51808 0.0
H432 H 0.66141 0.2654 0.38576 0.0
H433 H 0.64217 0.2448 0.8343 0.0
H434 H 0.75923 0.24298 0.60037 0.0
H435 H 0.6734 0.24835 0.89963 0.0
H436 H 0.75923 0.20718 0.64661 0.0
O437 O 0.65726 0.27836 0.65302 0.0
H438 H 0.7106 0.3207 0.44696 0.0
H439 H 0.63656 0.29683 0.48002 0.0
H440 H 0.64319 0.33323 0.4437 0.0
H441 H 0.68044 0.34536 0.42666 0.0
H442 H 0.70327 0.28452 0.48392 0.0
H443 H 0.63351 0.25909 0.31268 0.0
H444 H 0.59803 0.24532 0.34291 0.0
O445 O 0.64169 0.27277 0.56718 0.0
C446 C 0.65684 0.22418 0.59891 0.0
C447 C 0.60648 0.24392 0.43276 0.0
C448 C 0.63031 0.25578 0.35766 0.0
N449 N 0.64208 0.2552 0.45616 0.0
C450 C 0.62262 0.24759 0.47312 0.0
C451 C 0.64607 0.25923 0.39923 0.0
C452 C 0.61039 0.24807 0.37466 0.0
C453 C 0.72666 0.24973 0.62448 0.0
N454 N 0.70872 0.2425 0.65178 0.0
C455 C 0.74509 0.23718 0.62218 0.0
C456 C 0.74507 0.21708 0.64805 0.0
C457 C 0.7267 0.20981 0.67578 0.0
C458 C 0.70856 0.2228 0.67714 0.0
C459 C 0.69531 0.25539 0.8307 0.0
C460 C 0.66054 0.25143 0.75773 0.0
C461 C 0.69748 0.25814 0.77123 0.0
N462 N 0.6802 0.25614 0.73554 0.0
C463 C 0.65778 0.24853 0.81698 0.0
C464 C 0.67531 0.25053 0.85362 0.0
C465 C 0.64171 0.28072 0.61823 0.0
C466 C 0.6943 0.31558 0.45403 0.0
C467 C 0.65281 0.30199 0.473 0.0
C468 C 0.65647 0.32262 0.45227 0.0
C469 C 0.67737 0.32941 0.4427 0.0
N470 N 0.66949 0.28846 0.4837 0.0
C471 C 0.69003 0.29507 0.47478 0.0
Co472 Co 0.34303 0.26494 0.65782 0.0
Co473 Co 0.36241 0.26728 0.51842 0.0
O474 O 0.33959 0.26194 0.57452 0.0
C475 C 0.32866 0.22301 0.701 0.0
O476 O 0.34773 0.22098 0.72387 0.0
C477 C 0.32203 0.28843 0.47029 0.0
O478 O 0.31651 0.29377 0.52291 0.0
O479 O 0.36899 0.29615 0.55437 0.0
O480 O 0.36173 0.29042 0.64803 0.0
H481 H 0.43588 0.28969 0.45571 0.0
H482 H 0.29903 0.26113 0.6116 0.0
O483 O 0.32442 0.23918 0.6694 0.0
H484 H 0.30126 0.33117 0.70874 0.0
H485 H 0.31739 0.26565 0.86399 0.0
H486 H 0.3797 0.27335 0.73547 0.0
H487 H 0.33302 0.30792 0.70725 0.0
H488 H 0.31328 0.26239 0.75861 0.0
O489 O 0.34044 0.27994 0.46165 0.0
H490 H 0.40712 0.2825 0.52582 0.0
H491 H 0.36563 0.26361 0.39022 0.0
H492 H 0.3845 0.27683 0.8406 0.0
H493 H 0.26674 0.28368 0.61309 0.0
H494 H 0.3532 0.27295 0.90564 0.0
H495 H 0.26776 0.31904 0.66167 0.0
O496 O 0.36871 0.2464 0.65581 0.0
H497 H 0.31547 0.20807 0.44437 0.0
H498 H 0.38965 0.23068 0.48112 0.0
H499 H 0.38276 0.19494 0.44058 0.0
H500 H 0.34544 0.18346 0.42166 0.0
H501 H 0.32305 0.24355 0.48553 0.0
H502 H 0.39387 0.27075 0.31863 0.0
H503 H 0.42932 0.28381 0.35126 0.0
O504 O 0.38451 0.25337 0.57099 0.0
C505 C 0.37006 0.30153 0.60784 0.0
C506 C 0.4205 0.28398 0.44096 0.0
C507 C 0.39691 0.27339 0.36402 0.0
N508 N 0.38473 0.27264 0.46218 0.0
C509 C 0.40417 0.27986 0.48046 0.0
C510 C 0.38095 0.26946 0.40476 0.0
C511 C 0.41681 0.2807 0.38236 0.0
C512 C 0.29954 0.27638 0.63343 0.0
N513 N 0.31794 0.28319 0.65923 0.0
C514 C 0.28123 0.28913 0.63385 0.0
C515 C 0.28183 0.30899 0.661 0.0
C516 C 0.30063 0.31582 0.6873 0.0
C517 C 0.31863 0.30265 0.68597 0.0
C518 C 0.33114 0.26741 0.8361 0.0
C519 C 0.36599 0.27172 0.76346 0.0
C520 C 0.32892 0.26558 0.77639 0.0
N521 N 0.34623 0.26775 0.74086 0.0
C522 C 0.36881 0.27368 0.82297 0.0
C523 C 0.35124 0.2715 0.85943 0.0
C524 C 0.38433 0.24456 0.62098 0.0
C525 C 0.33181 0.21293 0.45219 0.0
C526 C 0.37336 0.2258 0.47325 0.0
C527 C 0.36956 0.20554 0.45014 0.0
C528 C 0.34863 0.19911 0.43952 0.0
N529 N 0.3568 0.23933 0.48522 0.0
C530 C 0.33621 0.23306 0.47528 0.0
Co531 Co 0.18433 0.76279 0.15724 0.0
Co532 Co 0.16598 0.76149 1.01619 0.0
O533 O 0.18824 0.76644 0.07411 0.0
C534 C 0.19717 0.80479 0.20346 0.0
O535 O 0.17799 0.80604 0.2262 0.0
C536 C 0.20665 0.74014 0.96992 0.0
O537 O 0.21235 0.73556 0.0229 0.0
O538 O 0.15831 0.73275 0.05165 0.0
O539 O 0.16661 0.73684 0.14533 0.0
H540 H 0.09263 0.74071 0.9488 0.0
H541 H 0.22847 0.7685 0.11315 0.0
O542 O 0.20196 0.78908 0.17079 0.0
H543 H 0.22811 0.6977 0.20632 0.0
H544 H 0.2089 0.76161 0.36429 0.0
H545 H 0.14769 0.75206 0.23303 0.0
H546 H 0.19555 0.71983 0.20464 0.0
H547 H 0.21341 0.76583 0.25929 0.0
O548 O 0.18811 0.74824 0.96079 0.0
H549 H 0.12087 0.7474 0.02072 0.0
H550 H 0.16407 0.76499 0.88765 0.0
H551 H 0.14249 0.74761 0.33774 0.0
H552 H 0.26152 0.7471 0.11493 0.0
H553 H 0.17323 0.75242 0.40417 0.0
H554 H 0.26145 0.71136 0.1615 0.0
O555 O 0.15794 0.78043 0.15554 0.0
H556 H 0.21511 0.81971 0.94675 0.0
H557 H 0.14003 0.79836 0.97465 0.0
H558 H 0.14818 0.83388 0.93443 0.0
H559 H 0.18596 0.84473 0.91996 0.0
H560 H 0.20626 0.78448 0.98756 0.0
H561 H 0.13637 0.75831 0.8143 0.0
H562 H 0.10032 0.74616 0.84474 0.0
O563 O 0.14384 0.77608 0.06712 0.0
C564 C 0.15781 0.72648 0.10449 0.0
C565 C 0.10827 0.74602 0.935 0.0
C566 C 0.13283 0.75586 0.85951 0.0
N567 N 0.14409 0.75658 0.95846 0.0
C568 C 0.12431 0.74987 0.97553 0.0
C569 C 0.14849 0.75952 0.90125 0.0
C570 C 0.1126 0.74906 0.87662 0.0
C571 C 0.22836 0.75308 0.13412 0.0
N572 N 0.21004 0.74542 0.15867 0.0
C573 C 0.2471 0.74098 0.1347 0.0
C574 C 0.24704 0.72091 0.16072 0.0
C575 C 0.22832 0.71322 0.18576 0.0
C576 C 0.20987 0.72576 0.18431 0.0
C577 C 0.19538 0.75947 0.3358 0.0
C578 C 0.16115 0.75416 0.26162 0.0
C579 C 0.19783 0.76185 0.27629 0.0
N580 N 0.18081 0.75923 0.24 0.0
C581 C 0.15811 0.75162 0.32089 0.0
C582 C 0.17536 0.75432 0.35814 0.0
C583 C 0.14316 0.78349 0.1187 0.0
C584 C 0.19858 0.81514 0.95267 0.0
C585 C 0.15651 0.803 0.96885 0.0
C586 C 0.16102 0.82312 0.94586 0.0
C587 C 0.18222 0.82919 0.93772 0.0
N588 N 0.17262 0.78925 0.98317 0.0
C589 C 0.19345 0.79515 0.97558 0.0
Co590 Co 0.18656 0.26325 0.96171 0.0
Co591 Co 0.16777 0.26667 0.10108 0.0
O592 O 0.19053 0.26101 0.045 0.0
C593 C 0.20227 0.22156 0.9203 0.0
O594 O 0.18317 0.21867 0.89821 0.0
C595 C 0.20829 0.28773 0.14859 0.0
O596 O 0.21385 0.29279 0.09581 0.0
O597 O 0.16146 0.29544 0.06433 0.0
O598 O 0.16694 0.28809 0.97073 0.0
H599 H 0.09462 0.29028 0.1634 0.0
H600 H 0.23107 0.26146 1.0054 0.0
O601 O 0.20606 0.23811 0.95085 0.0
H602 H 0.22516 0.33078 0.9057 0.0
H603 H 0.2111 0.26324 0.75456 0.0
H604 H 0.14917 0.26944 0.88501 0.0
H605 H 0.19435 0.30634 0.91026 0.0
H606 H 0.21588 0.2611 0.85993 0.0
O607 O 0.18985 0.27938 0.15747 0.0
H608 H 0.12328 0.28252 0.09342 0.0
H609 H 0.16451 0.26338 0.22935 0.0
H610 H 0.14369 0.27175 0.7799 0.0
H611 H 0.26241 0.28524 1.00082 0.0
H612 H 0.1748 0.26863 0.71389 0.0
H613 H 0.25954 0.32024 0.95092 0.0
O614 O 0.16167 0.24384 0.96601 0.0
H615 H 0.21433 0.20736 0.17632 0.0
H616 H 0.14028 0.23046 0.13978 0.0
H617 H 0.14694 0.19483 0.18123 0.0
H618 H 0.1842 0.1831 0.20005 0.0
H619 H 0.20697 0.24274 0.13426 0.0
H620 H 0.13636 0.27109 0.30081 0.0
H621 H 0.10109 0.28456 0.26794 0.0
O622 O 0.14546 0.25268 0.04896 0.0
C623 C 0.15931 0.2999 1.0105 0.0
C624 C 0.10991 0.28438 0.17825 0.0
C625 C 0.13335 0.27364 0.25538 0.0
N626 N 0.14552 0.27245 0.15723 0.0
C627 C 0.12618 0.27992 0.13882 0.0
C628 C 0.14926 0.26938 0.21471 0.0
C629 C 0.11356 0.28119 0.2369 0.0
C630 C 0.22976 0.27654 0.98298 0.0
N631 N 0.21088 0.28247 0.95812 0.0
C632 C 0.24753 0.29 0.98082 0.0
C633 C 0.2459 0.30965 0.95293 0.0
C634 C 0.2266 0.31559 0.92765 0.0
C635 C 0.20916 0.30173 0.9307 0.0
C636 C 0.19743 0.26467 0.78287 0.0
C637 C 0.1628 0.26814 0.85659 0.0
C638 C 0.20003 0.26348 0.84259 0.0
N639 N 0.18282 0.26523 0.87866 0.0
C640 C 0.1596 0.26944 0.7971 0.0
C641 C 0.17705 0.26768 0.76009 0.0
C642 C 0.14583 0.24284 1.00034 0.0
C643 C 0.19802 0.21232 0.16854 0.0
C644 C 0.15654 0.22547 0.14758 0.0
C645 C 0.16021 0.20527 0.17121 0.0
C646 C 0.18111 0.19871 0.18177 0.0
N647 N 0.17319 0.23881 0.13503 0.0
C648 C 0.19374 0.2324 0.14493 0.0
Co649 Co 0.34175 0.76449 0.46015 0.0
Co650 Co 0.36055 0.76077 0.59891 0.0
O651 O 0.33762 0.76631 0.54341 0.0
C652 C 0.32445 0.80575 0.42009 0.0
O653 O 0.34336 0.80942 0.39767 0.0
C654 C 0.32018 0.7397 0.6474 0.0
O655 O 0.31459 0.73442 0.59481 0.0
O656 O 0.36664 0.732 0.56198 0.0
O657 O 0.36227 0.74027 0.46855 0.0
H658 H 0.43382 0.73709 0.65965 0.0
H659 H 0.29713 0.76442 0.50353 0.0
O660 O 0.32132 0.78892 0.45003 0.0
H661 H 0.30577 0.69582 0.40157 0.0
H662 H 0.31745 0.7644 0.25285 0.0
H663 H 0.37944 0.7602 0.38349 0.0
H664 H 0.33565 0.72137 0.40724 0.0
H665 H 0.31248 0.7659 0.35825 0.0
O666 O 0.3386 0.74817 0.65587 0.0
H667 H 0.40498 0.74481 0.5903 0.0
H668 H 0.36419 0.76421 0.72705 0.0
H669 H 0.38513 0.75857 0.27836 0.0
H670 H 0.26671 0.73951 0.49784 0.0
H671 H 0.35399 0.76068 0.21224 0.0
H672 H 0.27096 0.70487 0.44679 0.0
O673 O 0.3659 0.78478 0.46538 0.0
H674 H 0.3143 0.82021 0.67498 0.0
H675 H 0.38821 0.79701 0.6365 0.0
H676 H 0.38171 0.8327 0.67788 0.0
H677 H 0.34453 0.84448 0.69767 0.0
H678 H 0.32149 0.78477 0.633 0.0
H679 H 0.39252 0.75654 0.7979 0.0
H680 H 0.42767 0.74296 0.7643 0.0
O681 O 0.38277 0.77468 0.54617 0.0
C682 C 0.3695 0.72808 0.50807 0.0
C683 C 0.41859 0.74304 0.67482 0.0
C684 C 0.3954 0.75392 0.75241 0.0
N685 N 0.38295 0.75501 0.65455 0.0
C686 C 0.40221 0.74747 0.63574 0.0
C687 C 0.37938 0.75816 0.71209 0.0
C688 C 0.41512 0.74632 0.73353 0.0
C689 C 0.29904 0.7495 0.48062 0.0
N690 N 0.31817 0.74439 0.45575 0.0
C691 C 0.28179 0.7354 0.47783 0.0
C692 C 0.28419 0.71595 0.4493 0.0
C693 C 0.30374 0.71084 0.42401 0.0
C694 C 0.32065 0.72533 0.4277 0.0
C695 C 0.33115 0.7634 0.2812 0.0
C696 C 0.3658 0.76104 0.35503 0.0
C697 C 0.32843 0.76422 0.34094 0.0
N698 N 0.34566 0.76301 0.37706 0.0
C699 C 0.36912 0.76014 0.29552 0.0
C700 C 0.35165 0.76133 0.25846 0.0
C701 C 0.38204 0.78525 0.49871 0.0
C702 C 0.33058 0.81522 0.6668 0.0
C703 C 0.37198 0.80202 0.64477 0.0
C704 C 0.3684 0.82225 0.66834 0.0
C705 C 0.34754 0.82885 0.67944 0.0
N706 N 0.35527 0.78868 0.63282 0.0
C707 C 0.33476 0.79511 0.64323 0.0
Co708 Co 0.51151 0.09094 0.71115 0.0
Co709 Co 0.51573 0.11067 0.84957 0.0
O710 O 0.50941 0.0877 0.79469 0.0
C711 C 0.46924 0.07623 0.67137 0.0
O712 O 0.46678 0.09529 0.64865 0.0
C713 C 0.53644 0.07007 0.89779 0.0
O714 O 0.54141 0.06433 0.84506 0.0
O715 O 0.54442 0.11633 0.8116 0.0
O716 O 0.53704 0.10974 0.71848 0.0
H717 H 0.54058 0.18383 0.9082 0.0
H718 H 0.50836 0.04699 0.75824 0.0
O719 O 0.48571 0.0722 0.70198 0.0
H720 H 0.57727 0.04928 0.6554 0.0
H721 H 0.50993 0.06484 0.50543 0.0
H722 H 0.51885 0.12748 0.63222 0.0
H723 H 0.55397 0.081 0.65852 0.0
H724 H 0.50799 0.06094 0.61109 0.0
O725 O 0.52828 0.08863 0.90638 0.0
H726 H 0.53209 0.15494 0.83961 0.0
H727 H 0.51316 0.11462 0.9778 0.0
H728 H 0.521 0.13208 0.52677 0.0
H729 H 0.53096 0.01474 0.75517 0.0
H730 H 0.51649 0.10062 0.4626 0.0
H731 H 0.56574 0.01579 0.7037 0.0
O732 O 0.49295 0.11657 0.71436 0.0
H733 H 0.45602 0.06565 0.92913 0.0
H734 H 0.48013 0.13904 0.88778 0.0
H735 H 0.44459 0.13328 0.93077 0.0
H736 H 0.43235 0.09636 0.95201 0.0
H737 H 0.49132 0.0721 0.88553 0.0
H738 H 0.5216 0.14301 0.0479 0.0
H739 H 0.53534 0.17795 1.0132 0.0
O740 O 0.50198 0.13292 0.79696 0.0
C741 C 0.54895 0.11766 0.75759 0.0
C742 C 0.53457 0.16869 0.92386 0.0
C743 C 0.52396 0.14576 1.00226 0.0
N744 N 0.52212 0.13312 0.90463 0.0
C745 C 0.52971 0.15228 0.88521 0.0
C746 C 0.51929 0.12971 0.96236 0.0
C747 C 0.53165 0.16537 0.98276 0.0
C748 C 0.52335 0.04751 0.73516 0.0
N749 N 0.52982 0.0659 0.70863 0.0
C750 C 0.53614 0.02923 0.73385 0.0
C751 C 0.55567 0.02984 0.70508 0.0
C752 C 0.56216 0.04864 0.67808 0.0
C753 C 0.54897 0.06662 0.68033 0.0
C754 C 0.51195 0.07867 0.53293 0.0
C755 C 0.51696 0.11369 0.60461 0.0
C756 C 0.51088 0.07656 0.59281 0.0
N757 N 0.51337 0.09396 0.62786 0.0
C758 C 0.51816 0.1164 0.54491 0.0
C759 C 0.51563 0.09875 0.50893 0.0
C760 C 0.49223 0.13256 0.74825 0.0
C761 C 0.46121 0.08181 0.92031 0.0
C762 C 0.47492 0.12292 0.89667 0.0
C763 C 0.45478 0.11976 0.92115 0.0
C764 C 0.44792 0.09905 0.93307 0.0
N765 N 0.48794 0.10595 0.88462 0.0
C766 C 0.48124 0.08558 0.89582 0.0
Co767 Co 1.01298 0.93364 0.21859 0.0
Co768 Co 1.01172 0.91547 0.35989 0.0
O769 O 0.0167 0.93765 0.30169 0.0
C770 C 0.05503 0.94609 0.17197 0.0
O771 O 0.05611 0.92685 0.14949 0.0
C772 C 0.99056 0.95631 0.40598 0.0
O773 O 0.98617 0.96212 0.35297 0.0
O774 O 0.98297 0.90777 0.32454 0.0
O775 O 0.98693 0.91612 0.23082 0.0
H776 H 0.99084 0.84222 0.42805 0.0
H777 H 0.01903 0.97781 0.26216 0.0
O778 O 0.03939 0.95106 0.20468 0.0
H779 H 0.94822 0.97784 0.16921 0.0
H780 H 1.01187 0.95791 1.01125 0.0
H781 H 1.00199 0.89695 0.14328 0.0
H782 H 0.9701 0.94511 0.17121 0.0
H783 H 0.01615 0.96256 0.11618 0.0
O784 O 0.99849 0.93769 0.41512 0.0
H785 H 0.99758 0.87036 0.35584 0.0
H786 H 0.01522 0.91372 0.48846 0.0
H787 H 0.99747 0.89161 0.03865 0.0
H788 H 0.99788 1.01103 0.26005 0.0
H789 H 1.00244 0.92223 0.97183 0.0
H790 H 0.96215 1.01116 0.21359 0.0
O791 O 0.03044 0.90713 0.22048 0.0
H792 H 0.06999 0.96466 0.42868 0.0
H793 H 0.04854 0.88954 0.40178 0.0
H794 H 0.08406 0.89771 0.44191 0.0
H795 H 0.09496 0.93551 0.45588 0.0
H796 H 0.03477 0.95578 0.38796 0.0
H797 H 1.0085 0.88612 0.56209 0.0
H798 H 0.9963 0.85004 0.53203 0.0
O799 O 0.0263 0.89326 0.30922 0.0
C800 C 0.9766 0.90734 0.27179 0.0
C801 C 0.99618 0.85788 0.44169 0.0
C802 C 1.00605 0.88253 0.51692 0.0
N803 N 1.00679 0.89366 0.41786 0.0
C804 C 1.00005 0.87386 0.40099 0.0
C805 C 1.00973 0.89813 0.47502 0.0
C806 C 0.99922 0.86228 0.50002 0.0
C807 C 1.00361 0.97778 0.24125 0.0
N808 N 0.9958 0.95948 0.21694 0.0
C809 C 0.99165 0.99663 0.24048 0.0
C810 C 0.97158 0.99668 0.21452 0.0
C811 C 0.96374 0.97797 0.18973 0.0
C812 C 0.97614 0.95943 0.19137 0.0
C813 C 1.00966 0.94444 0.03991 0.0
C814 C 1.00415 0.91036 0.11452 0.0
C815 C 1.01207 0.94697 0.09938 0.0
N816 N 1.00936 0.93002 0.13589 0.0
C817 C 1.00158 0.90724 0.05529 0.0
C818 C 1.00437 0.92442 0.01783 0.0
C819 C 0.03359 0.89245 0.25754 0.0
C820 C 0.0654 0.94812 0.42298 0.0
C821 C 0.05319 0.90602 0.40737 0.0
C822 C 0.07331 0.91055 0.43031 0.0
C823 C 0.07941 0.93176 0.43817 0.0
N824 N 0.03947 0.92214 0.39283 0.0
C825 C 0.04541 0.94298 0.40013 0.0
Co826 Co 0.51302 0.93578 0.40927 0.0
Co827 Co 0.51588 0.9164 0.26998 0.0
O828 O 0.51021 0.93922 0.3259 0.0
C829 C 0.47096 0.95007 0.45188 0.0
O830 O 0.46891 0.93097 0.47468 0.0
C831 C 0.53666 0.95698 0.22159 0.0
O832 O 0.54176 0.9627 0.27422 0.0
O833 O 0.54475 0.91014 0.30631 0.0
O834 O 0.53859 0.91715 0.3999 0.0
H835 H 0.53924 0.84311 0.20805 0.0
H836 H 0.50917 0.97981 0.36311 0.0
O837 O 0.48718 0.95433 0.42046 0.0
H838 H 0.57897 0.97773 0.46133 0.0
H839 H 0.5131 0.96141 0.61546 0.0
H840 H 0.52134 0.89912 0.48706 0.0
H841 H 0.55585 0.94588 0.45929 0.0
H842 H 0.51014 0.96552 0.51003 0.0
O843 O 0.52841 0.93845 0.21313 0.0
H844 H 0.53162 0.87186 0.27786 0.0
H845 H 0.51243 0.91301 0.14177 0.0
H846 H 0.52451 0.89431 0.59225 0.0
H847 H 0.53158 1.01218 0.36515 0.0
H848 H 0.52036 0.92559 0.65723 0.0
H849 H 0.56682 1.01125 0.41429 0.0
O850 O 0.49458 0.91005 0.40696 0.0
H851 H 0.45633 0.96271 0.19504 0.0
H852 H 0.47965 0.88876 0.23234 0.0
H853 H 0.44393 0.89527 0.19135 0.0
H854 H 0.43208 0.93247 0.17215 0.0
H855 H 0.4918 0.95551 0.23665 0.0
H856 H 0.52 0.88478 0.07047 0.0
H857 H 0.53343 0.84949 0.1035 0.0
O858 O 0.50209 0.89419 0.32255 0.0
C859 C 0.54994 0.909 0.35989 0.0
C860 C 0.53337 0.85841 0.19312 0.0
C861 C 0.52261 0.88181 0.1159 0.0
N862 N 0.52157 0.89408 0.21396 0.0
C863 C 0.529 0.87474 0.23246 0.0
C864 C 0.51844 0.89777 0.15648 0.0
C865 C 0.53013 0.86201 0.13447 0.0
C866 C 0.52436 0.97933 0.38518 0.0
N867 N 0.53119 0.96092 0.41099 0.0
C868 C 0.53704 0.99769 0.38591 0.0
C869 C 0.55683 0.99714 0.41337 0.0
C870 C 0.56367 0.97833 0.43966 0.0
C871 C 0.55058 0.96028 0.43801 0.0
C872 C 0.51497 0.94766 0.5876 0.0
C873 C 0.51959 0.91283 0.51503 0.0
C874 C 0.51332 0.94989 0.52786 0.0
N875 N 0.51563 0.93258 0.49236 0.0
C876 C 0.52138 0.91 0.57457 0.0
C877 C 0.51904 0.92756 0.611 0.0
C878 C 0.49306 0.89435 0.37228 0.0
C879 C 0.46134 0.94642 0.20298 0.0
C880 C 0.47461 0.905 0.22436 0.0
C881 C 0.45437 0.90858 0.20099 0.0
C882 C 0.44773 0.92945 0.19022 0.0
N883 N 0.48794 0.92171 0.23643 0.0
C884 C 0.48147 0.94223 0.22633 0.0
Co885 Co 0.01625 0.09126 0.91591 0.0
Co886 Co 1.01181 0.10995 0.7774 0.0
O887 O 0.01752 0.08698 0.83264 0.0
C888 C 0.05739 0.07328 0.95442 0.0
O889 O 0.06154 0.09217 0.97636 0.0
C890 C 0.99062 0.06958 0.72919 0.0
O891 O 0.98558 0.06387 0.78188 0.0
O892 O 0.9832 0.11598 0.81532 0.0
O893 O 0.99236 0.11224 0.90835 0.0
H894 H 0.98796 0.18332 0.71772 0.0
H895 H 0.01509 0.04655 0.87327 0.0
O896 O 0.04035 0.0704 0.92521 0.0
H897 H 0.94727 0.05672 0.97796 0.0
H898 H 0.01691 0.06726 0.12347 0.0
H899 H 0.01343 0.12917 0.99234 0.0
H900 H 0.97335 0.08609 0.97075 0.0
H901 H 0.0176 0.06211 0.01808 0.0
O902 O 0.99899 0.08804 0.72067 0.0
H903 H 0.9959 0.1544 0.7867 0.0
H904 H 0.01473 0.11369 0.64918 0.0
H905 H 1.01263 0.13504 0.09745 0.0
H906 H 0.98963 0.01662 0.88049 0.0
H907 H 0.01438 0.10395 0.16382 0.0
H908 H 0.95539 0.02164 0.93291 0.0
O909 O 0.03693 0.11503 0.90934 0.0
H910 H 0.07093 0.06375 0.69942 0.0
H911 H 0.04787 0.13765 0.73877 0.0
H912 H 0.08338 0.13118 0.69627 0.0
H913 H 0.09509 0.09401 0.67604 0.0
H914 H 0.03568 0.0709 0.74252 0.0
H915 H 1.00682 0.1421 0.57871 0.0
H916 H 0.99342 0.17725 0.61288 0.0
O917 O 0.02592 0.13216 0.82984 0.0
C918 C 0.97982 0.11926 0.86933 0.0
C919 C 0.99383 0.16809 0.7023 0.0
C920 C 1.00438 0.14494 0.62428 0.0
N921 N 1.00583 0.1324 0.72204 0.0
C922 C 0.99839 0.15166 0.74117 0.0
C923 C 1.00875 0.12888 0.66439 0.0
C924 C 0.99687 0.16466 0.64348 0.0
C925 C 1.00035 0.04879 0.89677 0.0
N926 N 0.99575 0.06807 0.92154 0.0
C927 C 0.98593 0.03182 0.90042 0.0
C928 C 0.9667 0.03466 0.92973 0.0
C929 C 0.96212 0.05435 0.95492 0.0
C930 C 0.97691 0.07097 0.95036 0.0
C931 C 0.01606 0.08094 0.09501 0.0
C932 C 0.01407 0.11555 0.0209 0.0
C933 C 0.01641 0.07812 0.03528 0.0
N934 N 0.01537 0.09532 0.99901 0.0
C935 C 0.01366 0.11898 0.0804 0.0
C936 C 0.01466 0.10152 0.11761 0.0
C937 C 0.037 0.13129 0.87644 0.0
C938 C 0.06597 0.08002 0.7078 0.0
C939 C 0.05285 0.12142 0.73031 0.0
C940 C 0.07297 0.11786 0.70611 0.0
C941 C 0.07953 0.097 0.69476 0.0
N942 N 0.03957 0.1047 0.74263 0.0
C943 C 0.04597 0.08419 0.732 0.0
H944 H 0.12467 0.7062 0.04687 0.0
H945 H 0.16066 0.70409 0.20549 0.0
H946 H 0.09994 0.67963 0.08604 0.0
H947 H 0.13655 0.67736 0.24372 0.0
H948 H 0.07485 0.64887 0.32208 0.0
H949 H 0.10181 0.6731 0.28219 0.0
H950 H 0.09397 0.64401 0.11464 0.0
H951 H 0.0669 0.62059 0.1536 0.0
C952 C 0.12768 0.69973 0.0894 0.0
C953 C 0.14483 0.70744 0.1226 0.0
C954 C 0.11342 0.68445 0.11219 0.0
C955 C 0.11594 0.67632 0.16876 0.0
C956 C 0.13362 0.68344 0.20075 0.0
C957 C 0.14772 0.6987 0.17821 0.0
C958 C 0.07911 0.64744 0.27699 0.0
C959 C 0.06854 0.63259 0.24153 0.0
C960 C 0.09463 0.66139 0.25384 0.0
C961 C 0.10011 0.66082 0.1946 0.0
C962 C 0.09002 0.64544 0.15993 0.0
C963 C 0.07454 0.63169 0.18282 0.0
H964 H 0.56909 0.90969 0.46592 0.0
H965 H 0.57355 0.87856 0.30017 0.0
H966 H 0.59635 0.88624 0.50419 0.0
H967 H 0.6007 0.85443 0.33933 0.0
H968 H 0.66009 0.82324 0.41168 0.0
H969 H 0.63598 0.85002 0.3738 0.0
H970 H 0.60202 0.85081 0.53593 0.0
H971 H 0.62678 0.82418 0.57471 0.0
C972 C 0.57601 0.89796 0.43714 0.0
C973 C 0.56896 0.89625 0.37945 0.0
C974 C 0.5916 0.88422 0.45964 0.0
C975 C 0.60077 0.86808 0.42554 0.0
C976 C 0.59426 0.86673 0.36718 0.0
C977 C 0.57864 0.88063 0.34445 0.0
C978 C 0.64775 0.8293 0.43998 0.0
C979 C 0.6456 0.82139 0.49674 0.0
C980 C 0.63363 0.84459 0.41768 0.0
C981 C 0.61667 0.85258 0.45106 0.0
C982 C 0.61493 0.84529 0.50866 0.0
C983 C 0.6292 0.82996 0.5312 0.0
H984 H 0.45481 0.37739 0.82483 0.0
H985 H 0.45893 0.40912 0.65991 0.0
H986 H 0.4278 0.35323 0.78523 0.0
H987 H 0.43175 0.38568 0.62122 0.0
H988 H 0.40159 0.32386 0.54889 0.0
H989 H 0.4262 0.35048 0.58834 0.0
H990 H 0.39267 0.34846 0.75106 0.0
H991 H 0.36877 0.32164 0.71256 0.0
C992 C 0.44966 0.3796 0.78066 0.0
C993 C 0.45922 0.39537 0.74599 0.0
C994 C 0.43411 0.36568 0.75767 0.0
C995 C 0.42754 0.36719 0.69939 0.0
C996 C 0.43656 0.38352 0.66567 0.0
C997 C 0.4521 0.39726 0.68842 0.0
C998 C 0.39925 0.32936 0.59272 0.0
C999 C 0.38303 0.32043 0.62712 0.0
C1000 C 0.41343 0.34469 0.61563 0.0
C1001 C 0.41175 0.35166 0.67354 0.0
C1002 C 0.39497 0.3433 0.70693 0.0
C1003 C 0.38097 0.32798 0.68427 0.0
H1004 H 0.88991 0.19546 0.08016 0.0
H1005 H 0.88113 0.21707 0.90493 0.0
H1006 H 0.91385 0.1674 0.04515 0.0
H1007 H 0.90577 0.19053 0.87082 0.0
H1008 H 0.94394 0.13379 0.80987 0.0
H1009 H 0.91538 0.15681 0.84638 0.0
H1010 H 0.94714 0.16003 1.01171 0.0
H1011 H 0.97439 0.13627 0.97669 0.0
C1012 C 0.89302 0.19429 0.03432 0.0
C1013 C 0.88344 0.20877 0.99586 0.0
C1014 C 0.90703 0.17828 1.01396 0.0
C1015 C 0.9122 0.17646 0.95458 0.0
C1016 C 0.9022 0.19077 0.91646 0.0
C1017 C 0.88804 0.2064 0.93654 0.0
C1018 C 0.94465 0.13927 0.85414 0.0
C1019 C 0.96163 0.13298 0.88993 0.0
C1020 C 0.9283 0.15271 0.87529 0.0
C1021 C 0.92865 0.16066 0.93258 0.0
C1022 C 0.94566 0.15414 0.96804 0.0
C1023 C 0.96163 0.14049 0.94737 0.0
H1024 H 0.04991 0.38271 0.96042 0.0
H1025 H 0.08677 0.39564 0.80708 0.0
H1026 H 0.07778 0.35993 0.99668 0.0
H1027 H 0.11572 0.3733 0.84511 0.0
H1028 H 0.15266 0.31332 0.89964 0.0
H1029 H 0.1275 0.33925 0.86386 0.0
H1030 H 0.11053 0.35585 0.03894 0.0
H1031 H 0.13509 0.32858 0.075 0.0
C1032 C 0.06418 0.38098 0.9345 0.0
C1033 C 0.06593 0.39126 0.88054 0.0
C1034 C 0.08046 0.3679 0.95592 0.0
C1035 C 0.09946 0.36468 0.92478 0.0
C1036 C 0.10134 0.37502 0.87059 0.0
C1037 C 0.08474 0.38798 0.84858 0.0
C1038 C 0.14371 0.32249 0.93101 0.0
C1039 C 0.14595 0.31847 0.99069 0.0
C1040 C 0.12924 0.3377 0.91009 0.0
C1041 C 0.11651 0.34982 0.94789 0.0
C1042 C 0.1195 0.34658 1.00786 0.0
C1043 C 0.13387 0.33106 0.0289 0.0
H1044 H 0.9539 0.91053 0.17141 0.0
H1045 H 0.95644 0.87407 0.32922 0.0
H1046 H 0.92703 0.88656 0.13329 0.0
H1047 H 0.92974 0.84946 0.29013 0.0
H1048 H 0.87044 0.81664 0.22279 0.0
H1049 H 0.89406 0.8435 0.26208 0.0
H1050 H 0.92268 0.85196 0.09415 0.0
H1051 H 0.89829 0.82523 0.05399 0.0
C1052 C 0.94858 0.89751 0.19854 0.0
C1053 C 0.95748 0.89445 0.25388 0.0
C1054 C 0.93324 0.88349 0.17606 0.0
C1055 C 0.92621 0.86571 0.20782 0.0
C1056 C 0.93449 0.86302 0.26416 0.0
C1057 C 0.94985 0.87721 0.2869 0.0
C1058 C 0.88149 0.82436 0.19359 0.0
C1059 C 0.88221 0.81862 0.13469 0.0
C1060 C 0.89535 0.83973 0.21665 0.0
C1061 C 0.91064 0.84996 0.18193 0.0
C1062 C 0.91104 0.84469 0.12254 0.0
C1063 C 0.897 0.82929 0.09925 0.0
H1064 H 0.38114 0.71837 0.39744 0.0
H1065 H 0.38904 0.69589 0.57215 0.0
H1066 H 0.40576 0.69172 0.36318 0.0
H1067 H 0.41288 0.66781 0.53705 0.0
H1068 H 0.4736 0.63683 0.47096 0.0
H1069 H 0.44628 0.66061 0.505 0.0
H1070 H 0.41564 0.65805 0.33805 0.0
H1071 H 0.44435 0.63497 0.30251 0.0
C1072 C 0.38784 0.70748 0.42885 0.0
C1073 C 0.38305 0.70964 0.48812 0.0
C1074 C 0.40199 0.69182 0.40871 0.0
C1075 C 0.41175 0.6773 0.44673 0.0
C1076 C 0.40629 0.67887 0.50596 0.0
C1077 C 0.39233 0.6949 0.52637 0.0
C1078 C 0.46109 0.64118 0.44103 0.0
C1079 C 0.46146 0.63381 0.38346 0.0
C1080 C 0.44504 0.65485 0.46115 0.0
C1081 C 0.4283 0.66154 0.42501 0.0
C1082 C 0.42832 0.65378 0.36752 0.0
C1083 C 0.44476 0.6403 0.34692 0.0
H1084 H 0.624 0.20355 0.54061 0.0
H1085 H 0.65981 0.20168 0.69954 0.0
H1086 H 0.59934 0.17685 0.57975 0.0
H1087 H 0.63581 0.17488 0.73767 0.0
H1088 H 0.57395 0.14716 0.81647 0.0
H1089 H 0.60092 0.17115 0.77584 0.0
H1090 H 0.59339 0.14109 0.60945 0.0
H1091 H 0.56633 0.11775 0.64928 0.0
C1092 C 0.62699 0.19711 0.58318 0.0
C1093 C 0.64404 0.20495 0.61654 0.0
C1094 C 0.61277 0.18177 0.60594 0.0
C1095 C 0.61525 0.17374 0.66263 0.0
C1096 C 0.63289 0.18091 0.69464 0.0
C1097 C 0.64694 0.19621 0.67214 0.0
C1098 C 0.57829 0.14544 0.7715 0.0
C1099 C 0.5678 0.13034 0.73661 0.0
C1100 C 0.59382 0.15926 0.74792 0.0
C1101 C 0.59939 0.15835 0.68879 0.0
C1102 C 0.58937 0.14275 0.65465 0.0
C1103 C 0.5739 0.12907 0.67802 0.0
H1104 H 0.95108 0.39848 0.91281 0.0
H1105 H 0.99505 0.35001 0.85439 0.0
H1106 H 0.92663 0.37113 0.94645 0.0
H1107 H 0.97008 0.32211 0.8885 0.0
H1108 H 0.92452 0.2836 0.02482 0.0
H1109 H 0.95223 0.30841 0.98903 0.0
H1110 H 0.90397 0.34365 0.89656 0.0
H1111 H 0.87682 0.31952 0.93191 0.0
C1112 C 0.95557 0.3819 0.90714 0.0
C1113 C 0.9751 0.37651 0.88091 0.0
C1114 C 0.94144 0.36617 0.92634 0.0
C1115 C 0.94634 0.34437 0.92044 0.0
C1116 C 0.9659 0.33877 0.89415 0.0
C1117 C 0.98007 0.3547 0.874 0.0
C1118 C 0.91991 0.29666 0.99685 0.0
C1119 C 0.89833 0.29939 0.98111 0.0
C1120 C 0.93579 0.31074 0.97591 0.0
C1121 C 0.93034 0.32803 0.93976 0.0
C1122 C 0.90881 0.33061 0.92436 0.0
C1123 C 0.89316 0.31658 0.94452 0.0
H1124 H 0.47425 0.13955 0.64224 0.0
H1125 H 0.48008 0.1683 0.81083 0.0
H1126 H 0.45047 0.16803 0.61236 0.0
H1127 H 0.45643 0.19731 0.7802 0.0
H1128 H 0.41866 0.22976 0.55699 0.0
H1129 H 0.44668 0.20499 0.58765 0.0
H1130 H 0.41943 0.20327 0.75867 0.0
H1131 H 0.39192 0.22819 0.72867 0.0
C1132 C 0.47061 0.15202 0.67306 0.0
C1133 C 0.47901 0.1513 0.72947 0.0
C1134 C 0.45703 0.1686 0.65551 0.0
C1135 C 0.45132 0.18511 0.69366 0.0
C1136 C 0.46016 0.18476 0.74968 0.0
C1137 C 0.47386 0.16814 0.76728 0.0
C1138 C 0.41874 0.22425 0.60124 0.0
C1139 C 0.40272 0.23089 0.6399 0.0
C1140 C 0.43479 0.2099 0.61886 0.0
C1141 C 0.43537 0.20185 0.67575 0.0
C1142 C 0.41977 0.20914 0.71477 0.0
C1143 C 0.40376 0.22338 0.69719 0.0
H1144 H 0.54749 0.66933 0.31099 0.0
H1145 H 0.55637 0.63892 0.47644 0.0
H1146 H 0.57075 0.69868 0.34198 0.0
H1147 H 0.57966 0.66768 0.50654 0.0
H1148 H 0.6102 0.72926 0.56572 0.0
H1149 H 0.58243 0.70431 0.53451 0.0
H1150 H 0.60776 0.70581 0.36134 0.0
H1151 H 0.635 0.73094 0.39195 0.0
C1152 C 0.5543 0.66887 0.35389 0.0
C1153 C 0.55007 0.6515 0.39074 0.0
C1154 C 0.56776 0.68568 0.37169 0.0
C1155 C 0.57725 0.68569 0.42699 0.0
C1156 C 0.57254 0.66856 0.46406 0.0
C1157 C 0.55924 0.65181 0.44631 0.0
C1158 C 0.60972 0.72445 0.52089 0.0
C1159 C 0.62518 0.73201 0.48181 0.0
C1160 C 0.59383 0.70999 0.50292 0.0
C1161 C 0.59283 0.70273 0.44527 0.0
C1162 C 0.60776 0.71102 0.40587 0.0
C1163 C 0.62362 0.72538 0.42378 0.0
H1164 H 0.12526 0.78607 0.22595 0.0
H1165 H 0.11956 0.81196 0.05451 0.0
H1166 H 0.09717 0.80974 0.25946 0.0
H1167 H 0.09264 0.83696 0.08833 0.0
H1168 H 0.0358 0.87402 0.15091 0.0
H1169 H 0.05967 0.84607 0.11752 0.0
H1170 H 0.08777 0.84271 0.28779 0.0
H1171 H 0.0626 0.86949 0.32155 0.0
C1172 C 0.118 0.79691 0.19529 0.0
C1173 C 0.12468 0.79697 0.13735 0.0
C1174 C 0.10195 0.81082 0.21474 0.0
C1175 C 0.0924 0.82582 0.17731 0.0
C1176 C 0.099 0.82559 0.11893 0.0
C1177 C 0.11466 0.81122 0.09919 0.0
C1178 C 0.04687 0.86704 0.18141 0.0
C1179 C 0.04713 0.87399 0.23911 0.0
C1180 C 0.0609 0.85107 0.16203 0.0
C1181 C 0.07621 0.8419 0.19924 0.0
C1182 C 0.07617 0.84877 0.25738 0.0
C1183 C 0.06169 0.86434 0.27709 0.0
H1184 H 0.95414 0.62891 0.19987 0.0
H1185 H 0.9962 0.6773 0.26793 0.0
H1186 H 0.92952 0.65623 0.16713 0.0
H1187 H 0.97101 0.70517 0.23487 0.0
H1188 H 0.92548 0.74487 0.10042 0.0
H1189 H 0.9536 0.72008 0.13392 0.0
H1190 H 0.90578 0.6823 0.22065 0.0
H1191 H 0.87822 0.70648 0.1876 0.0
C1192 C 0.95827 0.64545 0.20741 0.0
C1193 C 0.97732 0.65082 0.2361 0.0
C1194 C 0.94401 0.66117 0.1889 0.0
C1195 C 0.94826 0.68294 0.19807 0.0
C1196 C 0.96736 0.68854 0.22663 0.0
C1197 C 0.98166 0.6726 0.24607 0.0
C1198 C 0.92106 0.73126 0.12666 0.0
C1199 C 0.8995 0.72785 0.14159 0.0
C1200 C 0.93717 0.71719 0.14629 0.0
C1201 C 0.93196 0.6992 0.18017 0.0
C1202 C 0.91043 0.69591 0.19465 0.0
C1203 C 0.89456 0.70996 0.17588 0.0
H1204 H 0.05653 0.13753 0.98068 0.0
H1205 H 0.04842 0.16737 0.81417 0.0
H1206 H 0.08039 0.16604 1.00999 0.0
H1207 H 0.07241 0.19627 0.8441 0.0
H1208 H 0.13803 0.22612 0.89326 0.0
H1209 H 0.11023 0.20139 0.86391 0.0
H1210 H 0.08336 0.2036 0.03527 0.0
H1211 H 0.11153 0.22841 0.06515 0.0
C1212 C 0.0597 0.15024 0.95018 0.0
C1213 C 0.05058 0.14986 0.89455 0.0
C1214 C 0.07333 0.1668 0.96742 0.0
C1215 C 0.07847 0.18358 0.92962 0.0
C1216 C 0.06904 0.18351 0.8743 0.0
C1217 C 0.05519 0.16695 0.85712 0.0
C1218 C 0.12619 0.2215 0.92493 0.0
C1219 C 0.12735 0.22918 0.98207 0.0
C1220 C 0.11004 0.20737 0.90774 0.0
C1221 C 0.09449 0.20029 0.94707 0.0
C1222 C 0.09521 0.20843 1.00385 0.0
C1223 C 0.11134 0.22277 0.02102 0.0
H1224 H 0.60736 0.29626 0.55565 0.0
H1225 H 0.63408 0.29589 0.72729 0.0
H1226 H 0.57955 0.32093 0.58817 0.0
H1227 H 0.60691 0.32086 0.7591 0.0
H1228 H 0.55208 0.38578 0.64573 0.0
H1229 H 0.57557 0.35731 0.61436 0.0
H1230 H 0.57058 0.32778 0.78213 0.0
H1231 H 0.54735 0.3569 0.81439 0.0
C1232 C 0.60732 0.30133 0.60029 0.0
C1233 C 0.62331 0.29419 0.63836 0.0
C1234 C 0.59141 0.31565 0.619 0.0
C1235 C 0.59093 0.32323 0.6764 0.0
C1236 C 0.60646 0.3154 0.71482 0.0
C1237 C 0.6223 0.30113 0.69619 0.0
C1238 C 0.55589 0.37327 0.67627 0.0
C1239 C 0.5479 0.37398 0.73314 0.0
C1240 C 0.56929 0.35668 0.65784 0.0
C1241 C 0.5752 0.34006 0.69545 0.0
C1242 C 0.56674 0.3404 0.75195 0.0
C1243 C 0.55325 0.35708 0.77049 0.0
H1244 H 0.41792 0.79721 0.56098 0.0
H1245 H 0.38838 0.80427 0.39378 0.0
H1246 H 0.4467 0.82126 0.5306 0.0
H1247 H 0.41668 0.8283 0.36411 0.0
H1248 H 0.47841 0.86003 0.30805 0.0
H1249 H 0.45381 0.83183 0.33862 0.0
H1250 H 0.45219 0.8587 0.51005 0.0
H1251 H 0.47687 0.88647 0.48005 0.0
C1252 C 0.41754 0.80378 0.51779 0.0
C1253 C 0.40056 0.79884 0.48029 0.0
C1254 C 0.43402 0.81768 0.50035 0.0
C1255 C 0.43411 0.82689 0.44474 0.0
C1256 C 0.41744 0.82143 0.40692 0.0
C1257 C 0.40098 0.80771 0.42436 0.0
C1258 C 0.47296 0.85983 0.35236 0.0
C1259 C 0.47954 0.87584 0.39113 0.0
C1260 C 0.45872 0.84368 0.36994 0.0
C1261 C 0.45076 0.84295 0.42691 0.0
C1262 C 0.458 0.8585 0.46606 0.0
C1263 C 0.4721 0.87465 0.4485 0.0
H1264 H 0.94482 0.57748 0.07824 0.0
H1265 H 0.97137 0.53558 0.208 0.0
H1266 H 0.9346 0.54653 0.0208 0.0
H1267 H 0.961 0.50475 0.15064 0.0
H1268 H 0.97335 0.49259 0.91513 0.0
H1269 H 0.96302 0.52362 0.97184 0.0
H1270 H 0.93314 0.48243 0.09757 0.0
H1271 H 0.94331 0.45129 0.04068 0.0
C1272 C 0.94778 0.56169 0.09561 0.0
C1273 C 0.95941 0.55896 0.14699 0.0
C1274 C 0.94193 0.544 0.06256 0.0
C1275 C 0.9473 0.52332 0.08085 0.0
C1276 C 0.95657 0.52052 0.13554 0.0
C1277 C 0.96264 0.53821 0.16829 0.0
C1278 C 0.96391 0.49017 0.95377 0.0
C1279 C 0.95956 0.4695 0.97404 0.0
C1280 C 0.95786 0.50796 0.98612 0.0
C1281 C 0.94751 0.50536 0.03946 0.0
C1282 C 0.94126 0.48482 0.0568 0.0
C1283 C 0.94708 0.46702 0.02409 0.0
H1284 H 0.82314 0.69352 0.28956 0.0
H1285 H 0.78291 0.72453 0.16328 0.0
H1286 H 0.79154 0.68294 0.34388 0.0
H1287 H 0.75147 0.71399 0.21763 0.0
H1288 H 0.73934 0.72083 0.45583 0.0
H1289 H 0.76982 0.70979 0.39826 0.0
H1290 H 0.72735 0.68725 0.26473 0.0
H1291 H 0.69672 0.69834 0.32237 0.0
C1292 C 0.80756 0.69745 0.27225 0.0
C1293 C 0.80553 0.71039 0.22295 0.0
C1294 C 0.78948 0.69139 0.3035 0.0
C1295 C 0.7691 0.69796 0.28559 0.0
C1296 C 0.76696 0.70861 0.23252 0.0
C1297 C 0.78503 0.7148 0.20149 0.0
C1298 C 0.73645 0.71281 0.41516 0.0
C1299 C 0.71566 0.71095 0.39304 0.0
C1300 C 0.75394 0.70633 0.38224 0.0
C1301 C 0.75094 0.69797 0.32653 0.0
C1302 C 0.73009 0.69388 0.30725 0.0
C1303 C 0.71256 0.7002 0.34042 0.0
H1304 H 0.585 0.57475 0.54435 0.0
H1305 H 0.55534 0.53398 0.41699 0.0
H1306 H 0.59525 0.54334 0.60005 0.0
H1307 H 0.56554 0.50272 0.47267 0.0
H1308 H 0.55879 0.48991 0.71108 0.0
H1309 H 0.56878 0.52081 0.65368 0.0
H1310 H 0.5928 0.4792 0.51996 0.0
H1311 H 0.58277 0.44815 0.57738 0.0
C1312 C 0.5813 0.55909 0.52715 0.0
C1313 C 0.56894 0.55684 0.47687 0.0
C1314 C 0.58714 0.54112 0.55923 0.0
C1315 C 0.58094 0.52062 0.54117 0.0
C1316 C 0.57067 0.51829 0.48763 0.0
C1317 C 0.56467 0.53624 0.45584 0.0
C1318 C 0.56691 0.48732 0.67039 0.0
C1319 C 0.56952 0.4666 0.64821 0.0
C1320 C 0.57276 0.50506 0.63756 0.0
C1321 C 0.58125 0.50239 0.58188 0.0
C1322 C 0.58604 0.48168 0.56245 0.0
C1323 C 0.58034 0.46391 0.59553 0.0
H1324 H 0.78084 0.29852 0.9576 0.0
H1325 H 0.82107 0.33174 0.83535 0.0
H1326 H 0.74946 0.30898 0.90276 0.0
H1327 H 0.78956 0.34214 0.78048 0.0
H1328 H 0.69495 0.3263 0.79808 0.0
H1329 H 0.72538 0.33669 0.8573 0.0
H1330 H 0.76833 0.31507 0.72369 0.0
H1331 H 0.73804 0.30463 0.66456 0.0
C1332 C 0.78295 0.30867 0.92019 0.0
C1333 C 0.80346 0.3138 0.89999 0.0
C1334 C 0.76493 0.31481 0.88891 0.0
C1335 C 0.76714 0.3261 0.83684 0.0
C1336 C 0.78747 0.33323 0.82013 0.0
C1337 C 0.80549 0.32724 0.85166 0.0
C1338 C 0.71086 0.32448 0.78039 0.0
C1339 C 0.71414 0.31416 0.72721 0.0
C1340 C 0.72826 0.3304 0.81446 0.0
C1341 C 0.74916 0.32638 0.79549 0.0
C1342 C 0.75238 0.31846 0.73941 0.0
C1343 C 0.73501 0.31234 0.70561 0.0
H1344 H 0.24359 0.22199 0.95759 0.0
H1345 H 0.20251 0.19479 0.82705 0.0
H1346 H 0.27473 0.21189 0.90138 0.0
H1347 H 0.23381 0.18458 0.77083 0.0
H1348 H 0.28735 0.22217 0.66356 0.0
H1349 H 0.25648 0.21137 0.71991 0.0
H1350 H 0.29811 0.18555 0.85103 0.0
H1351 H 0.32913 0.19646 0.79469 0.0
C1352 C 0.24122 0.21317 0.9179 0.0
C1353 C 0.22059 0.20966 0.89613 0.0
C1354 C 0.2591 0.20722 0.88578 0.0
C1355 C 0.25668 0.19775 0.83119 0.0
C1356 C 0.23611 0.19212 0.81243 0.0
C1357 C 0.2182 0.19792 0.84481 0.0
C1358 C 0.28995 0.21353 0.70341 0.0
C1359 C 0.31067 0.21066 0.72531 0.0
C1360 C 0.27223 0.20718 0.73562 0.0
C1361 C 0.2749 0.19793 0.79039 0.0
C1362 C 0.29561 0.19291 0.80928 0.0
C1363 C 0.31337 0.19912 0.77684 0.0
H1364 H 0.32303 0.83389 0.32987 0.0
H1365 H 0.28324 0.80331 0.45792 0.0
H1366 H 0.29122 0.84423 0.27599 0.0
H1367 H 0.25161 0.81347 0.40396 0.0
H1368 H 0.19628 0.82914 0.30146 0.0
H1369 H 0.22723 0.83974 0.35848 0.0
H1370 H 0.26897 0.81841 0.22169 0.0
H1371 H 0.23817 0.808 0.16466 0.0
C1372 C 0.30751 0.82999 0.3476 0.0
C1373 C 0.30565 0.81733 0.39747 0.0
C1374 C 0.2893 0.83587 0.31657 0.0
C1375 C 0.26896 0.82937 0.33518 0.0
C1376 C 0.26704 0.81884 0.3885 0.0
C1377 C 0.28521 0.81285 0.4193 0.0
C1378 C 0.21202 0.82746 0.28262 0.0
C1379 C 0.21482 0.81726 0.2291 0.0
C1380 C 0.22975 0.83346 0.31547 0.0
C1381 C 0.25052 0.82955 0.29506 0.0
C1382 C 0.25319 0.82172 0.23867 0.0
C1383 C 0.23551 0.8156 0.20603 0.0
H1384 H 0.44418 0.94952 0.54513 0.0
H1385 H 0.47022 0.99144 0.41473 0.0
H1386 H 0.43308 0.9805 0.60143 0.0
H1387 H 0.45925 0.02226 0.47105 0.0
H1388 H 0.46908 0.03494 0.70911 0.0
H1389 H 0.45903 1.00385 0.65267 0.0
H1390 H 0.43244 0.04494 0.52141 0.0
H1391 H 0.44262 0.07619 0.57784 0.0
C1392 C 0.44688 0.96531 0.52743 0.0
C1393 C 0.45856 0.96805 0.47612 0.0
C1394 C 0.44056 0.98304 0.55985 0.0
C1395 C 0.44562 1.00378 0.54119 0.0
C1396 C 0.45503 1.00649 0.4866 0.0
C1397 C 0.46147 0.98879 0.4544 0.0
C1398 C 0.46041 0.03736 0.66923 0.0
C1399 C 0.45714 0.05802 0.6473 0.0
C1400 C 0.4545 0.01951 0.63695 0.0
C1401 C 0.44528 0.02199 0.58207 0.0
C1402 C 0.4398 0.04259 0.56321 0.0
C1403 C 0.44558 0.06048 0.59573 0.0
H1404 H 0.08571 0.07149 0.04413 0.0
H1405 H 0.05416 0.03207 0.91698 0.0
H1406 H 0.09562 0.03956 0.09813 0.0
H1407 H 0.06393 1.00032 0.97104 0.0
H1408 H 0.0587 0.98712 0.21031 0.0
H1409 H 0.0694 0.01775 0.1529 0.0
H1410 H 0.09007 0.9756 1.01629 0.0
H1411 H 0.07921 0.94483 0.0737 0.0
C1412 C 0.08151 0.05601 0.0266 0.0
C1413 C 0.06871 0.05431 0.97697 0.0
C1414 C 0.08714 0.03773 0.05771 0.0
C1415 C 0.08026 0.01748 0.03937 0.0
C1416 C 0.06958 0.01567 0.98626 0.0
C1417 C 0.06383 0.03392 0.95541 0.0
C1418 C 0.06622 0.98432 0.16889 0.0
C1419 C 0.06763 0.96359 0.14601 0.0
C1420 C 0.07251 1.0019 0.13604 0.0
C1421 C 0.08024 0.99908 0.07962 0.0
C1422 C 0.08388 0.97824 0.05934 0.0
C1423 C 0.07772 0.96062 0.09241 0.0
H1424 H 0.028 0.45205 0.60538 0.0
H1425 H 0.04882 0.49899 0.72937 0.0
H1426 H 0.02863 0.47936 0.52972 0.0
H1427 H 0.04959 0.52615 0.65405 0.0
H1428 H 0.0274 0.57559 0.51759 0.0
H1429 H 0.02783 0.54824 0.59311 0.0
H1430 H 0.05045 0.50184 0.46975 0.0
H1431 H 0.04987 0.52906 0.39451 0.0
C1432 C 0.03294 0.4681 0.61662 0.0
C1433 C 0.03846 0.47302 0.67409 0.0
C1434 C 0.03334 0.4839 0.57292 0.0
C1435 C 0.0391 0.50531 0.58499 0.0
C1436 C 0.04476 0.51011 0.64246 0.0
C1437 C 0.0445 0.49432 0.68594 0.0
C1438 C 0.03265 0.55962 0.50654 0.0
C1439 C 0.03872 0.55483 0.44938 0.0
C1440 C 0.03295 0.5438 0.55017 0.0
C1441 C 0.03914 0.52249 0.53833 0.0
C1442 C 0.04529 0.5178 0.48115 0.0
C1443 C 0.04515 0.53362 0.43773 0.0
H1444 H 0.82575 0.77819 0.85649 0.0
H1445 H 0.77929 0.8014 0.97875 0.0
H1446 H 0.79851 0.7787 0.78069 0.0
H1447 H 0.75218 0.80203 0.90327 0.0
H1448 H 0.70242 0.77942 0.76794 0.0
H1449 H 0.7297 0.77996 0.84362 0.0
H1450 H 0.77659 0.80073 0.71932 0.0
H1451 H 0.74944 0.80007 0.64394 0.0
C1452 C 0.80982 0.78362 0.8673 0.0
C1453 C 0.80501 0.78987 0.9243 0.0
C1454 C 0.79407 0.78396 0.82352 0.0
C1455 C 0.77281 0.79036 0.83509 0.0
C1456 C 0.76811 0.79671 0.89211 0.0
C1457 C 0.78386 0.79653 0.93565 0.0
C1458 C 0.71849 0.78429 0.7567 0.0
C1459 C 0.72343 0.78982 0.69925 0.0
C1460 C 0.73426 0.78465 0.80041 0.0
C1461 C 0.75568 0.79035 0.78836 0.0
C1462 C 0.76053 0.79597 0.73088 0.0
C1463 C 0.74475 0.79577 0.68738 0.0
H1464 H 0.4795 0.52767 0.23195 0.0
H1465 H 0.50096 0.57455 0.10857 0.0
H1466 H 0.47884 0.50054 0.15647 0.0
H1467 H 0.50043 0.54728 0.03279 0.0
H1468 H 0.47919 0.49777 0.89707 0.0
H1469 H 0.47849 0.52495 0.97248 0.0
H1470 H 0.50089 0.47847 0.09581 0.0
H1471 H 0.50144 0.45117 0.02014 0.0
C1472 C 0.48398 0.53233 0.18862 0.0
C1473 C 0.49016 0.5536 0.17695 0.0
C1474 C 0.48379 0.51656 0.14507 0.0
C1475 C 0.48965 0.52138 0.08775 0.0
C1476 C 0.49556 0.54275 0.07588 0.0
C1477 C 0.49591 0.55852 0.11964 0.0
C1478 C 0.48384 0.49319 0.94032 0.0
C1479 C 0.49025 0.47198 0.95194 0.0
C1480 C 0.48362 0.50897 0.98382 0.0
C1481 C 0.48968 0.50424 0.04102 0.0
C1482 C 0.49584 0.48293 0.05283 0.0
C1483 C 0.49622 0.46715 1.00913 0.0
H1484 H 0.81375 0.26706 0.24146 0.0
H1485 H 0.79294 0.20567 0.17856 0.0
H1486 H 0.78477 0.26681 0.31289 0.0
H1487 H 0.76454 0.20506 0.25171 0.0
H1488 H 0.73364 0.20587 0.44259 0.0
H1489 H 0.76218 0.20534 0.36978 0.0
H1490 H 0.7411 0.26649 0.30634 0.0
H1491 H 0.71201 0.26664 0.37743 0.0
C1492 C 0.80322 0.25335 0.24324 0.0
C1493 C 0.80592 0.23634 0.20389 0.0
C1494 C 0.78646 0.25327 0.28414 0.0
C1495 C 0.77217 0.23592 0.28835 0.0
C1496 C 0.7752 0.21867 0.25007 0.0
C1497 C 0.79155 0.21903 0.208 0.0
C1498 C 0.73489 0.21912 0.41275 0.0
C1499 C 0.72024 0.23622 0.41608 0.0
C1500 C 0.75132 0.2188 0.37088 0.0
C1501 C 0.75414 0.23591 0.33203 0.0
C1502 C 0.73958 0.25307 0.33554 0.0
C1503 C 0.72275 0.25308 0.37624 0.0
H1504 H 0.3267 0.27884 0.35407 0.0
H1505 H 0.27995 0.30116 0.47677 0.0
H1506 H 0.29951 0.27932 0.27823 0.0
H1507 H 0.25287 0.30178 0.40116 0.0
H1508 H 0.20358 0.2787 0.26513 0.0
H1509 H 0.23076 0.27951 0.341 0.0
H1510 H 0.27744 0.30134 0.2174 0.0
H1511 H 0.25038 0.30038 0.14178 0.0
C1512 C 0.31071 0.28408 0.36496 0.0
C1513 C 0.3058 0.29007 0.42208 0.0
C1514 C 0.295 0.2844 0.32116 0.0
C1515 C 0.27368 0.29054 0.33283 0.0
C1516 C 0.26887 0.29666 0.38996 0.0
C1517 C 0.28459 0.2965 0.43356 0.0
C1518 C 0.21958 0.28386 0.2541 0.0
C1519 C 0.22451 0.28958 0.19678 0.0
C1520 C 0.23529 0.28438 0.29791 0.0
C1521 C 0.25661 0.29045 0.28606 0.0
C1522 C 0.26144 0.29629 0.22875 0.0
C1523 C 0.24573 0.29593 0.18513 0.0
H1524 H 0.27825 0.72649 0.64152 0.0
H1525 H 0.32485 0.74956 0.76345 0.0
H1526 H 0.25125 0.72572 0.71737 0.0
H1527 H 0.29773 0.74897 0.83953 0.0
H1528 H 0.24889 0.72795 0.97684 0.0
H1529 H 0.27592 0.72702 0.90107 0.0
H1530 H 0.22892 0.74779 0.77715 0.0
H1531 H 0.20177 0.74855 0.85313 0.0
C1532 C 0.28287 0.7313 0.68461 0.0
C1533 C 0.30401 0.73797 0.6958 0.0
C1534 C 0.26719 0.73104 0.72836 0.0
C1535 C 0.27198 0.73734 0.78534 0.0
C1536 C 0.29324 0.74374 0.79673 0.0
C1537 C 0.30891 0.74413 0.75279 0.0
C1538 C 0.24416 0.73217 0.93338 0.0
C1539 C 0.22286 0.73821 0.92168 0.0
C1540 C 0.25986 0.73182 0.88968 0.0
C1541 C 0.25493 0.73739 0.83223 0.0
C1542 C 0.23353 0.74313 0.82034 0.0
C1543 C 0.21783 0.74362 0.86422 0.0
H1544 H 0.52729 0.95202 0.10531 0.0
H1545 H 0.54924 0.99913 0.22742 0.0
H1546 H 0.52784 0.97904 0.02899 0.0
H1547 H 0.54996 0.02603 0.15134 0.0
H1548 H 0.52733 0.07506 1.01423 0.0
H1549 H 0.52798 0.04804 0.09056 0.0
H1550 H 0.54973 1.00099 0.96783 0.0
H1551 H 0.54891 0.02789 0.89175 0.0
C1552 C 0.53246 0.96805 0.11597 0.0
C1553 C 0.53833 0.97311 0.17309 0.0
C1554 C 0.53283 0.98367 0.07189 0.0
C1555 C 0.5389 1.00504 0.08323 0.0
C1556 C 0.54489 1.01 0.14035 0.0
C1557 C 0.54467 0.99437 0.18425 0.0
C1558 C 0.53244 0.05901 1.00349 0.0
C1559 C 0.53817 0.05393 0.94627 0.0
C1560 C 0.53287 0.04339 0.04757 0.0
C1561 C 0.53887 0.02201 0.03613 0.0
C1562 C 0.54473 0.01703 0.9789 0.0
C1563 C 0.54444 0.03266 0.935 0.0
H1564 H 1.00034 0.07435 0.61307 0.0
H1565 H 0.97727 0.02767 0.73487 0.0
H1566 H 0.99961 0.0473 0.53682 0.0
H1567 H 0.97636 1.00075 0.65885 0.0
H1568 H 0.99888 0.95129 0.52277 0.0
H1569 H 0.99821 0.97838 0.59888 0.0
H1570 H 0.9777 0.0256 0.47517 0.0
H1571 H 0.97856 0.99862 0.39927 0.0
C1572 C 0.99488 0.05841 0.62367 0.0
C1573 C 0.98877 0.05347 0.68068 0.0
C1574 C 0.9944 0.04277 0.57963 0.0
C1575 C 0.98797 0.02151 0.59092 0.0
C1576 C 0.98171 0.01669 0.64792 0.0
C1577 C 0.98205 0.03233 0.69177 0.0
C1578 C 0.99403 0.96739 0.51175 0.0
C1579 C 0.98867 0.97249 0.45431 0.0
C1580 C 0.99359 0.98305 0.55571 0.0
C1581 C 0.98795 1.0045 0.54394 0.0
C1582 C 0.98243 1.0095 0.4865 0.0
C1583 C 0.98273 0.99383 0.4427 0.0
loop_
_geom_bond_atom_site_label_1
_geom_bond_atom_site_label_2
_geom_bond_distance
_geom_bond_site_symmetry_2
_ccdc_geom_bond_type
Co0 O2 2.143 . S
Co0 O8 2.074 . S
Co0 O11 2.093 1_455 S
Co0 O24 2.097 1_455 S
Co0 N41 2.151 . S
Co0 N49 2.214 . S
Co1 O2 2.160 1_655 S
Co1 O7 2.058 1_655 S
Co1 O17 2.057 1_655 S
Co1 O32 2.037 . S
Co1 N36 2.145 . S
Co1 N57 2.257 . S
O2 Co0 2.143 . S
O2 Co1 2.160 1_455 S
C3 O4 1.278 . S
C3 O11 1.224 . S
O4 C3 1.278 . S
C5 O6 1.245 . S
C5 O17 1.232 . S
O6 C5 1.245 . S
O7 Co1 2.058 1_455 S
O7 C33 1.269 . S
O8 Co0 2.074 . S
O8 C33 1.257 . S
H9 C34 0.930 . S
H10 C40 0.930 . S
O11 Co0 2.093 1_655 S
O11 C3 1.224 . S
H12 C44 0.929 . S
H13 C46 0.930 1_556 S
H14 C47 0.930 . S
H15 C45 0.929 . S
H16 C48 0.928 . S
O17 Co1 2.057 1_455 S
O17 C5 1.232 . S
H18 C37 0.929 . S
H19 C38 0.929 . S
H20 C50 0.931 . S
H21 C42 0.929 . S
H22 C51 0.930 1_556 S
H23 C43 0.931 . S
O24 Co0 2.097 1_655 S
O24 C52 1.214 . S
H25 C53 0.929 . S
H26 C54 0.929 . S
H27 C55 0.930 . S
H28 C56 0.929 . S
H29 C58 0.930 . S
H30 C35 0.930 . S
H31 C39 0.930 . S
O32 Co1 2.037 . S
O32 C52 1.234 . S
C33 O7 1.269 . S
C33 O8 1.257 . S
C34 H9 0.930 . S
C34 C37 1.388 . S
C34 C39 1.418 . S
C35 H30 0.930 . S
C35 C38 1.404 . S
C35 C39 1.353 . S
N36 Co1 2.145 . S
N36 C37 1.397 . S
N36 C38 1.334 . S
C37 H18 0.929 . S
C37 C34 1.388 . S
C37 N36 1.397 . S
C38 H19 0.929 . S
C38 C35 1.404 . S
C38 N36 1.334 . S
C39 H31 0.930 . S
C39 C34 1.418 . S
C39 C35 1.353 . S
C40 H10 0.930 . S
C40 N41 1.330 . S
C40 C42 1.446 . S
N41 Co0 2.151 . S
N41 C40 1.330 . S
N41 C45 1.418 . S
C42 H21 0.929 . S
C42 C40 1.446 . S
C42 C43 1.332 . S
C43 H23 0.931 . S
C43 C42 1.332 . S
C43 C44 1.267 . S
C44 H12 0.929 . S
C44 C43 1.267 . S
C44 C45 1.251 . S
C45 H15 0.929 . S
C45 N41 1.418 . S
C45 C44 1.251 . S
C46 H13 0.930 1_554 S
C46 C48 1.406 . S
C46 C51 1.261 . S
C47 H14 0.930 . S
C47 N49 1.325 . S
C47 C50 1.357 . S
C48 H16 0.928 . S
C48 C46 1.406 . S
C48 N49 1.261 . S
N49 Co0 2.214 . S
N49 C47 1.325 . S
N49 C48 1.261 . S
C50 H20 0.931 . S
C50 C47 1.357 . S
C50 C51 1.312 . S
C51 H22 0.930 1_554 S
C51 C46 1.261 . S
C51 C50 1.312 . S
C52 O24 1.214 . S
C52 O32 1.234 . S
C53 H25 0.929 . S
C53 C56 1.391 . S
C53 C58 1.391 . S
C54 H26 0.929 . S
C54 C55 1.390 . S
C54 N57 1.391 . S
C55 H27 0.930 . S
C55 C54 1.390 . S
C55 C56 1.392 . S
C56 H28 0.929 . S
C56 C53 1.391 . S
C56 C55 1.392 . S
N57 Co1 2.257 . S
N57 C54 1.391 . S
N57 C58 1.388 . S
C58 H29 0.930 . S
C58 C53 1.391 . S
C58 N57 1.388 . S
Co59 O61 2.143 . S
Co59 O67 2.074 . S
Co59 O70 2.093 . S
Co59 O83 2.097 . S
Co59 N100 2.151 . S
Co59 N108 2.214 . S
Co60 O61 2.160 . S
Co60 O66 2.058 . S
Co60 O76 2.057 . S
Co60 O91 2.037 . S
Co60 N95 2.145 . S
Co60 N116 2.257 . S
O61 Co59 2.143 . S
O61 Co60 2.160 . S
C62 O63 1.278 . S
C62 O70 1.224 . S
O63 C62 1.278 . S
C64 O65 1.245 . S
C64 O76 1.232 . S
O65 C64 1.245 . S
O66 Co60 2.058 . S
O66 C92 1.269 . S
O67 Co59 2.074 . S
O67 C92 1.257 . S
H68 C93 0.930 . S
H69 C99 0.930 . S
O70 Co59 2.093 . S
O70 C62 1.224 . S
H71 C103 0.929 . S
H72 C105 0.930 . S
H73 C106 0.930 . S
H74 C104 0.929 . S
H75 C107 0.928 . S
O76 Co60 2.057 . S
O76 C64 1.232 . S
H77 C96 0.929 . S
H78 C97 0.929 . S
H79 C109 0.931 . S
H80 C101 0.929 . S
H81 C110 0.930 . S
H82 C102 0.931 . S
O83 Co59 2.097 . S
O83 C111 1.214 . S
H84 C112 0.929 . S
H85 C113 0.929 . S
H86 C114 0.930 . S
H87 C115 0.929 . S
H88 C117 0.930 . S
H89 C94 0.930 . S
H90 C98 0.930 . S
O91 Co60 2.037 . S
O91 C111 1.234 . S
C92 O66 1.269 . S
C92 O67 1.257 . S
C93 H68 0.930 . S
C93 C96 1.388 . S
C93 C98 1.418 . S
C94 H89 0.930 . S
C94 C97 1.404 . S
C94 C98 1.353 . S
N95 Co60 2.145 . S
N95 C96 1.397 . S
N95 C97 1.334 . S
C96 H77 0.929 . S
C96 C93 1.388 . S
C96 N95 1.397 . S
C97 H78 0.929 . S
C97 C94 1.404 . S
C97 N95 1.334 . S
C98 H90 0.930 . S
C98 C93 1.418 . S
C98 C94 1.353 . S
C99 H69 0.930 . S
C99 N100 1.330 . S
C99 C101 1.446 . S
N100 Co59 2.151 . S
N100 C99 1.330 . S
N100 C104 1.418 . S
C101 H80 0.929 . S
C101 C99 1.446 . S
C101 C102 1.332 . S
C102 H82 0.931 . S
C102 C101 1.332 . S
C102 C103 1.267 . S
C103 H71 0.929 . S
C103 C102 1.267 . S
C103 C104 1.251 . S
C104 H74 0.929 . S
C104 N100 1.418 . S
C104 C103 1.251 . S
C105 H72 0.930 . S
C105 C107 1.406 . S
C105 C110 1.261 . S
C106 H73 0.930 . S
C106 N108 1.325 . S
C106 C109 1.357 . S
C107 H75 0.928 . S
C107 C105 1.406 . S
C107 N108 1.261 . S
N108 Co59 2.214 . S
N108 C106 1.325 . S
N108 C107 1.261 . S
C109 H79 0.931 . S
C109 C106 1.357 . S
C109 C110 1.312 . S
C110 H81 0.930 . S
C110 C105 1.261 . S
C110 C109 1.312 . S
C111 O83 1.214 . S
C111 O91 1.234 . S
C112 H84 0.929 . S
C112 C115 1.391 . S
C112 C117 1.391 . S
C113 H85 0.929 . S
C113 C114 1.390 . S
C113 N116 1.391 . S
C114 H86 0.930 . S
C114 C113 1.390 . S
C114 C115 1.392 . S
C115 H87 0.929 . S
C115 C112 1.391 . S
C115 C114 1.392 . S
N116 Co60 2.257 . S
N116 C113 1.391 . S
N116 C117 1.388 . S
C117 H88 0.930 . S
C117 C112 1.391 . S
C117 N116 1.388 . S
Co118 O120 2.143 . S
Co118 O126 2.074 . S
Co118 O129 2.093 . S
Co118 O142 2.097 . S
Co118 N159 2.151 . S
Co118 N167 2.214 . S
Co119 O120 2.160 . S
Co119 O125 2.058 . S
Co119 O135 2.057 . S
Co119 O150 2.037 . S
Co119 N154 2.145 . S
Co119 N175 2.257 . S
O120 Co118 2.143 . S
O120 Co119 2.160 . S
C121 O122 1.278 . S
C121 O129 1.224 . S
O122 C121 1.278 . S
C123 O124 1.245 . S
C123 O135 1.232 . S
O124 C123 1.245 . S
O125 Co119 2.058 . S
O125 C151 1.269 . S
O126 Co118 2.074 . S
O126 C151 1.257 . S
H127 C152 0.930 . S
H128 C158 0.930 . S
O129 Co118 2.093 . S
O129 C121 1.224 . S
H130 C162 0.929 . S
H131 C164 0.930 . S
H132 C165 0.930 . S
H133 C163 0.929 . S
H134 C166 0.928 . S
O135 Co119 2.057 . S
O135 C123 1.232 . S
H136 C155 0.929 . S
H137 C156 0.929 . S
H138 C168 0.931 . S
H139 C160 0.929 . S
H140 C169 0.930 . S
H141 C161 0.931 . S
O142 Co118 2.097 . S
O142 C170 1.214 . S
H143 C171 0.929 . S
H144 C172 0.929 . S
H145 C173 0.930 . S
H146 C174 0.929 . S
H147 C176 0.930 . S
H148 C153 0.930 1_554 S
H149 C157 0.930 . S
O150 Co119 2.037 . S
O150 C170 1.234 . S
C151 O125 1.269 . S
C151 O126 1.257 . S
C152 H127 0.930 . S
C152 C155 1.388 . S
C152 C157 1.418 . S
C153 H148 0.930 1_556 S
C153 C156 1.404 . S
C153 C157 1.353 . S
N154 Co119 2.145 . S
N154 C155 1.397 . S
N154 C156 1.334 . S
C155 H136 0.929 . S
C155 C152 1.388 . S
C155 N154 1.397 . S
C156 H137 0.929 . S
C156 C153 1.404 . S
C156 N154 1.334 . S
C157 H149 0.930 . S
C157 C152 1.418 . S
C157 C153 1.353 . S
C158 H128 0.930 . S
C158 N159 1.330 . S
C158 C160 1.446 . S
N159 Co118 2.151 . S
N159 C158 1.330 . S
N159 C163 1.418 . S
C160 H139 0.929 . S
C160 C158 1.446 . S
C160 C161 1.332 . S
C161 H141 0.931 . S
C161 C160 1.332 . S
C161 C162 1.267 . S
C162 H130 0.929 . S
C162 C161 1.267 . S
C162 C163 1.251 . S
C163 H133 0.929 . S
C163 N159 1.418 . S
C163 C162 1.251 . S
C164 H131 0.930 . S
C164 C166 1.406 . S
C164 C169 1.261 . S
C165 H132 0.930 . S
C165 N167 1.325 . S
C165 C168 1.357 . S
C166 H134 0.928 . S
C166 C164 1.406 . S
C166 N167 1.261 . S
N167 Co118 2.214 . S
N167 C165 1.325 . S
N167 C166 1.261 . S
C168 H138 0.931 . S
C168 C165 1.357 . S
C168 C169 1.312 . S
C169 H140 0.930 . S
C169 C164 1.261 . S
C169 C168 1.312 . S
C170 O142 1.214 . S
C170 O150 1.234 . S
C171 H143 0.929 . S
C171 C174 1.391 . S
C171 C176 1.391 . S
C172 H144 0.929 . S
C172 C173 1.390 . S
C172 N175 1.391 . S
C173 H145 0.930 . S
C173 C172 1.390 . S
C173 C174 1.392 . S
C174 H146 0.929 . S
C174 C171 1.391 . S
C174 C173 1.392 . S
N175 Co119 2.257 . S
N175 C172 1.391 . S
N175 C176 1.388 . S
C176 H147 0.930 . S
C176 C171 1.391 . S
C176 N175 1.388 . S
Co177 O179 2.143 1_556 S
Co177 O185 2.074 . S
Co177 O188 2.093 . S
Co177 O201 2.097 . S
Co177 N218 2.151 . S
Co177 N226 2.214 . S
Co178 O179 2.160 . S
Co178 O184 2.058 . S
Co178 O194 2.057 . S
Co178 O209 2.037 . S
Co178 N213 2.145 . S
Co178 N234 2.257 . S
O179 Co177 2.143 1_554 S
O179 Co178 2.160 . S
C180 O181 1.278 . S
C180 O188 1.224 . S
O181 C180 1.278 . S
C182 O183 1.245 . S
C182 O194 1.232 . S
O183 C182 1.245 . S
O184 Co178 2.058 . S
O184 C210 1.269 . S
O185 Co177 2.074 . S
O185 C210 1.257 1_556 S
H186 C211 0.930 . S
H187 C217 0.930 . S
O188 Co177 2.093 . S
O188 C180 1.224 . S
H189 C221 0.929 . S
H190 C223 0.930 . S
H191 C224 0.930 . S
H192 C222 0.929 . S
H193 C225 0.928 . S
O194 Co178 2.057 . S
O194 C182 1.232 . S
H195 C214 0.929 . S
H196 C215 0.929 . S
H197 C227 0.931 . S
H198 C219 0.929 . S
H199 C228 0.930 . S
H200 C220 0.931 . S
O201 Co177 2.097 . S
O201 C229 1.214 . S
H202 C230 0.929 . S
H203 C231 0.929 . S
H204 C232 0.930 . S
H205 C233 0.929 . S
H206 C235 0.930 . S
H207 C212 0.930 . S
H208 C216 0.930 . S
O209 Co178 2.037 . S
O209 C229 1.234 1_554 S
C210 O184 1.269 . S
C210 O185 1.257 1_554 S
C211 H186 0.930 . S
C211 C214 1.388 . S
C211 C216 1.418 . S
C212 H207 0.930 . S
C212 C215 1.404 . S
C212 C216 1.353 . S
N213 Co178 2.145 . S
N213 C214 1.397 . S
N213 C215 1.334 . S
C214 H195 0.929 . S
C214 C211 1.388 . S
C214 N213 1.397 . S
C215 H196 0.929 . S
C215 C212 1.404 . S
C215 N213 1.334 . S
C216 H208 0.930 . S
C216 C211 1.418 . S
C216 C212 1.353 . S
C217 H187 0.930 . S
C217 N218 1.330 . S
C217 C219 1.446 . S
N218 Co177 2.151 . S
N218 C217 1.330 . S
N218 C222 1.418 . S
C219 H198 0.929 . S
C219 C217 1.446 . S
C219 C220 1.332 . S
C220 H200 0.931 . S
C220 C219 1.332 . S
C220 C221 1.267 . S
C221 H189 0.929 . S
C221 C220 1.267 . S
C221 C222 1.251 . S
C222 H192 0.929 . S
C222 N218 1.418 . S
C222 C221 1.251 . S
C223 H190 0.930 . S
C223 C225 1.406 . S
C223 C228 1.261 . S
C224 H191 0.930 . S
C224 N226 1.325 . S
C224 C227 1.357 . S
C225 H193 0.928 . S
C225 C223 1.406 . S
C225 N226 1.261 . S
N226 Co177 2.214 . S
N226 C224 1.325 . S
N226 C225 1.261 . S
C227 H197 0.931 . S
C227 C224 1.357 . S
C227 C228 1.312 . S
C228 H199 0.930 . S
C228 C223 1.261 . S
C228 C227 1.312 . S
C229 O201 1.214 . S
C229 O209 1.234 1_556 S
C230 H202 0.929 . S
C230 C233 1.391 . S
C230 C235 1.391 . S
C231 H203 0.929 . S
C231 C232 1.390 . S
C231 N234 1.391 . S
C232 H204 0.930 . S
C232 C231 1.390 . S
C232 C233 1.392 . S
C233 H205 0.929 . S
C233 C230 1.391 . S
C233 C232 1.392 . S
N234 Co178 2.257 . S
N234 C231 1.391 . S
N234 C235 1.388 . S
C235 H206 0.930 . S
C235 C230 1.391 . S
C235 N234 1.388 . S
Co236 O238 2.143 . S
Co236 O244 2.074 . S
Co236 O247 2.093 1_455 S
Co236 O260 2.097 1_455 S
Co236 N277 2.151 . S
Co236 N285 2.214 . S
Co237 O238 2.160 1_655 S
Co237 O243 2.058 1_655 S
Co237 O253 2.057 1_655 S
Co237 O268 2.037 . S
Co237 N272 2.145 . S
Co237 N293 2.257 . S
O238 Co236 2.143 . S
O238 Co237 2.160 1_455 S
C239 O240 1.278 . S
C239 O247 1.224 . S
O240 C239 1.278 . S
C241 O242 1.245 . S
C241 O253 1.232 . S
O242 C241 1.245 . S
O243 Co237 2.058 1_455 S
O243 C269 1.269 . S
O244 Co236 2.074 . S
O244 C269 1.257 . S
H245 C270 0.930 . S
H246 C276 0.930 . S
O247 Co236 2.093 1_655 S
O247 C239 1.224 . S
H248 C280 0.929 . S
H249 C282 0.930 . S
H250 C283 0.930 . S
H251 C281 0.929 . S
H252 C284 0.928 . S
O253 Co237 2.057 1_455 S
O253 C241 1.232 . S
H254 C273 0.929 . S
H255 C274 0.929 . S
H256 C286 0.931 . S
H257 C278 0.929 . S
H258 C287 0.930 . S
H259 C279 0.931 . S
O260 Co236 2.097 1_655 S
O260 C288 1.214 . S
H261 C289 0.929 . S
H262 C290 0.929 . S
H263 C291 0.930 . S
H264 C292 0.929 . S
H265 C294 0.930 . S
H266 C271 0.930 . S
H267 C275 0.930 . S
O268 Co237 2.037 . S
O268 C288 1.234 . S
C269 O243 1.269 . S
C269 O244 1.257 . S
C270 H245 0.930 . S
C270 C273 1.388 . S
C270 C275 1.418 . S
C271 H266 0.930 . S
C271 C274 1.404 . S
C271 C275 1.353 . S
N272 Co237 2.145 . S
N272 C273 1.397 . S
N272 C274 1.334 . S
C273 H254 0.929 . S
C273 C270 1.388 . S
C273 N272 1.397 . S
C274 H255 0.929 . S
C274 C271 1.404 . S
C274 N272 1.334 . S
C275 H267 0.930 . S
C275 C270 1.418 . S
C275 C271 1.353 . S
C276 H246 0.930 . S
C276 N277 1.330 . S
C276 C278 1.446 . S
N277 Co236 2.151 . S
N277 C276 1.330 . S
N277 C281 1.418 . S
C278 H257 0.929 . S
C278 C276 1.446 . S
C278 C279 1.332 . S
C279 H259 0.931 . S
C279 C278 1.332 . S
C279 C280 1.267 . S
C280 H248 0.929 . S
C280 C279 1.267 . S
C280 C281 1.251 . S
C281 H251 0.929 . S
C281 N277 1.418 . S
C281 C280 1.251 . S
C282 H249 0.930 . S
C282 C284 1.406 . S
C282 C287 1.261 . S
C283 H250 0.930 . S
C283 N285 1.325 . S
C283 C286 1.357 1_556 S
C284 H252 0.928 . S
C284 C282 1.406 . S
C284 N285 1.261 1_554 S
N285 Co236 2.214 . S
N285 C283 1.325 . S
N285 C284 1.261 1_556 S
C286 H256 0.931 . S
C286 C283 1.357 1_554 S
C286 C287 1.312 . S
C287 H258 0.930 . S
C287 C282 1.261 . S
C287 C286 1.312 . S
C288 O260 1.214 . S
C288 O268 1.234 . S
C289 H261 0.929 . S
C289 C292 1.391 . S
C289 C294 1.391 . S
C290 H262 0.929 . S
C290 C291 1.390 . S
C290 N293 1.391 . S
C291 H263 0.930 . S
C291 C290 1.390 . S
C291 C292 1.392 . S
C292 H264 0.929 . S
C292 C289 1.391 . S
C292 C291 1.392 . S
N293 Co237 2.257 . S
N293 C290 1.391 . S
N293 C294 1.388 . S
C294 H265 0.930 . S
C294 C289 1.391 . S
C294 N293 1.388 . S
Co295 O297 2.143 . S
Co295 O303 2.074 . S
Co295 O306 2.093 . S
Co295 O319 2.097 . S
Co295 N336 2.151 . S
Co295 N344 2.214 . S
Co296 O297 2.160 . S
Co296 O302 2.058 . S
Co296 O312 2.057 1_554 S
Co296 O327 2.037 . S
Co296 N331 2.145 1_554 S
Co296 N352 2.257 . S
O297 Co295 2.143 . S
O297 Co296 2.160 . S
C298 O299 1.278 . S
C298 O306 1.224 . S
O299 C298 1.278 . S
C300 O301 1.245 1_556 S
C300 O312 1.232 . S
O301 C300 1.245 1_554 S
O302 Co296 2.058 . S
O302 C328 1.269 . S
O303 Co295 2.074 . S
O303 C328 1.257 . S
H304 C329 0.930 . S
H305 C335 0.930 . S
O306 Co295 2.093 . S
O306 C298 1.224 . S
H307 C339 0.929 . S
H308 C341 0.930 . S
H309 C342 0.930 . S
H310 C340 0.929 . S
H311 C343 0.928 . S
O312 Co296 2.057 1_556 S
O312 C300 1.232 . S
H313 C332 0.929 1_554 S
H314 C333 0.929 . S
H315 C345 0.931 . S
H316 C337 0.929 . S
H317 C346 0.930 . S
H318 C338 0.931 . S
O319 Co295 2.097 . S
O319 C347 1.214 . S
H320 C348 0.929 . S
H321 C349 0.929 . S
H322 C350 0.930 . S
H323 C351 0.929 . S
H324 C353 0.930 . S
H325 C330 0.930 . S
H326 C334 0.930 . S
O327 Co296 2.037 . S
O327 C347 1.234 . S
C328 O302 1.269 . S
C328 O303 1.257 . S
C329 H304 0.930 . S
C329 C332 1.388 . S
C329 C334 1.418 . S
C330 H325 0.930 . S
C330 C333 1.404 . S
C330 C334 1.353 . S
N331 Co296 2.145 1_556 S
N331 C332 1.397 . S
N331 C333 1.334 . S
C332 H313 0.929 1_556 S
C332 C329 1.388 . S
C332 N331 1.397 . S
C333 H314 0.929 . S
C333 C330 1.404 . S
C333 N331 1.334 . S
C334 H326 0.930 . S
C334 C329 1.418 . S
C334 C330 1.353 . S
C335 H305 0.930 . S
C335 N336 1.330 . S
C335 C337 1.446 . S
N336 Co295 2.151 . S
N336 C335 1.330 . S
N336 C340 1.418 . S
C337 H316 0.929 . S
C337 C335 1.446 . S
C337 C338 1.332 . S
C338 H318 0.931 . S
C338 C337 1.332 . S
C338 C339 1.267 . S
C339 H307 0.929 . S
C339 C338 1.267 . S
C339 C340 1.251 . S
C340 H310 0.929 . S
C340 N336 1.418 . S
C340 C339 1.251 . S
C341 H308 0.930 . S
C341 C343 1.406 . S
C341 C346 1.261 . S
C342 H309 0.930 . S
C342 N344 1.325 . S
C342 C345 1.357 . S
C343 H311 0.928 . S
C343 C341 1.406 . S
C343 N344 1.261 . S
N344 Co295 2.214 . S
N344 C342 1.325 . S
N344 C343 1.261 . S
C345 H315 0.931 . S
C345 C342 1.357 . S
C345 C346 1.312 . S
C346 H317 0.930 . S
C346 C341 1.261 . S
C346 C345 1.312 . S
C347 O319 1.214 . S
C347 O327 1.234 . S
C348 H320 0.929 . S
C348 C351 1.391 . S
C348 C353 1.391 . S
C349 H321 0.929 . S
C349 C350 1.390 . S
C349 N352 1.391 . S
C350 H322 0.930 . S
C350 C349 1.390 . S
C350 C351 1.392 . S
C351 H323 0.929 . S
C351 C348 1.391 . S
C351 C350 1.392 . S
N352 Co296 2.257 . S
N352 C349 1.391 . S
N352 C353 1.388 . S
C353 H324 0.930 . S
C353 C348 1.391 . S
C353 N352 1.388 . S
Co354 O356 2.143 . S
Co354 O362 2.074 . S
Co354 O365 2.093 . S
Co354 O378 2.097 . S
Co354 N395 2.151 . S
Co354 N403 2.214 . S
Co355 O356 2.160 . S
Co355 O361 2.058 . S
Co355 O371 2.057 . S
Co355 O386 2.037 . S
Co355 N390 2.145 . S
Co355 N411 2.257 . S
O356 Co354 2.143 . S
O356 Co355 2.160 . S
C357 O358 1.278 . S
C357 O365 1.224 . S
O358 C357 1.278 . S
C359 O360 1.245 . S
C359 O371 1.232 . S
O360 C359 1.245 . S
O361 Co355 2.058 . S
O361 C387 1.269 . S
O362 Co354 2.074 . S
O362 C387 1.257 . S
H363 C388 0.930 . S
H364 C394 0.930 . S
O365 Co354 2.093 . S
O365 C357 1.224 . S
H366 C398 0.929 . S
H367 C400 0.930 . S
H368 C401 0.930 . S
H369 C399 0.929 . S
H370 C402 0.928 . S
O371 Co355 2.057 . S
O371 C359 1.232 . S
H372 C391 0.929 . S
H373 C392 0.929 . S
H374 C404 0.931 . S
H375 C396 0.929 . S
H376 C405 0.930 . S
H377 C397 0.931 . S
O378 Co354 2.097 . S
O378 C406 1.214 . S
H379 C407 0.929 . S
H380 C408 0.929 . S
H381 C409 0.930 . S
H382 C410 0.929 . S
H383 C412 0.930 . S
H384 C389 0.930 . S
H385 C393 0.930 . S
O386 Co355 2.037 . S
O386 C406 1.234 . S
C387 O361 1.269 . S
C387 O362 1.257 . S
C388 H363 0.930 . S
C388 C391 1.388 . S
C388 C393 1.418 . S
C389 H384 0.930 . S
C389 C392 1.404 . S
C389 C393 1.353 . S
N390 Co355 2.145 . S
N390 C391 1.397 . S
N390 C392 1.334 . S
C391 H372 0.929 . S
C391 C388 1.388 . S
C391 N390 1.397 . S
C392 H373 0.929 . S
C392 C389 1.404 . S
C392 N390 1.334 . S
C393 H385 0.930 . S
C393 C388 1.418 . S
C393 C389 1.353 . S
C394 H364 0.930 . S
C394 N395 1.330 . S
C394 C396 1.446 . S
N395 Co354 2.151 . S
N395 C394 1.330 . S
N395 C399 1.418 . S
C396 H375 0.929 . S
C396 C394 1.446 . S
C396 C397 1.332 . S
C397 H377 0.931 . S
C397 C396 1.332 . S
C397 C398 1.267 . S
C398 H366 0.929 . S
C398 C397 1.267 . S
C398 C399 1.251 . S
C399 H369 0.929 . S
C399 N395 1.418 . S
C399 C398 1.251 . S
C400 H367 0.930 . S
C400 C402 1.406 . S
C400 C405 1.261 . S
C401 H368 0.930 . S
C401 N403 1.325 . S
C401 C404 1.357 . S
C402 H370 0.928 . S
C402 C400 1.406 . S
C402 N403 1.261 . S
N403 Co354 2.214 . S
N403 C401 1.325 . S
N403 C402 1.261 . S
C404 H374 0.931 . S
C404 C401 1.357 . S
C404 C405 1.312 . S
C405 H376 0.930 . S
C405 C400 1.261 . S
C405 C404 1.312 . S
C406 O378 1.214 . S
C406 O386 1.234 . S
C407 H379 0.929 . S
C407 C410 1.391 . S
C407 C412 1.391 . S
C408 H380 0.929 . S
C408 C409 1.390 . S
C408 N411 1.391 . S
C409 H381 0.930 . S
C409 C408 1.390 . S
C409 C410 1.392 . S
C410 H382 0.929 . S
C410 C407 1.391 . S
C410 C409 1.392 . S
N411 Co355 2.257 . S
N411 C408 1.391 . S
N411 C412 1.388 . S
C412 H383 0.930 . S
C412 C407 1.391 . S
C412 N411 1.388 . S
Co413 O415 2.143 . S
Co413 O421 2.074 . S
Co413 O424 2.093 . S
Co413 O437 2.097 . S
Co413 N454 2.151 . S
Co413 N462 2.214 . S
Co414 O415 2.160 . S
Co414 O420 2.058 . S
Co414 O430 2.057 . S
Co414 O445 2.037 . S
Co414 N449 2.145 . S
Co414 N470 2.257 . S
O415 Co413 2.143 . S
O415 Co414 2.160 . S
C416 O417 1.278 . S
C416 O424 1.224 . S
O417 C416 1.278 . S
C418 O419 1.245 . S
C418 O430 1.232 . S
O419 C418 1.245 . S
O420 Co414 2.058 . S
O420 C446 1.269 . S
O421 Co413 2.074 . S
O421 C446 1.257 . S
H422 C447 0.930 . S
H423 C453 0.930 . S
O424 Co413 2.093 . S
O424 C416 1.224 . S
H425 C457 0.929 . S
H426 C459 0.930 . S
H427 C460 0.930 . S
H428 C458 0.929 . S
H429 C461 0.928 . S
O430 Co414 2.057 . S
O430 C418 1.232 . S
H431 C450 0.929 . S
H432 C451 0.929 . S
H433 C463 0.931 . S
H434 C455 0.929 . S
H435 C464 0.930 . S
H436 C456 0.931 . S
O437 Co413 2.097 . S
O437 C465 1.214 . S
H438 C466 0.929 . S
H439 C467 0.929 . S
H440 C468 0.930 . S
H441 C469 0.929 . S
H442 C471 0.930 . S
H443 C448 0.930 . S
H444 C452 0.930 . S
O445 Co414 2.037 . S
O445 C465 1.234 . S
C446 O420 1.269 . S
C446 O421 1.257 . S
C447 H422 0.930 . S
C447 C450 1.388 . S
C447 C452 1.418 . S
C448 H443 0.930 . S
C448 C451 1.404 . S
C448 C452 1.353 . S
N449 Co414 2.145 . S
N449 C450 1.397 . S
N449 C451 1.334 . S
C450 H431 0.929 . S
C450 C447 1.388 . S
C450 N449 1.397 . S
C451 H432 0.929 . S
C451 C448 1.404 . S
C451 N449 1.334 . S
C452 H444 0.930 . S
C452 C447 1.418 . S
C452 C448 1.353 . S
C453 H423 0.930 . S
C453 N454 1.330 . S
C453 C455 1.446 . S
N454 Co413 2.151 . S
N454 C453 1.330 . S
N454 C458 1.418 . S
C455 H434 0.929 . S
C455 C453 1.446 . S
C455 C456 1.332 . S
C456 H436 0.931 . S
C456 C455 1.332 . S
C456 C457 1.267 . S
C457 H425 0.929 . S
C457 C456 1.267 . S
C457 C458 1.251 . S
C458 H428 0.929 . S
C458 N454 1.418 . S
C458 C457 1.251 . S
C459 H426 0.930 . S
C459 C461 1.406 . S
C459 C464 1.261 . S
C460 H427 0.930 . S
C460 N462 1.325 . S
C460 C463 1.357 . S
C461 H429 0.928 . S
C461 C459 1.406 . S
C461 N462 1.261 . S
N462 Co413 2.214 . S
N462 C460 1.325 . S
N462 C461 1.261 . S
C463 H433 0.931 . S
C463 C460 1.357 . S
C463 C464 1.312 . S
C464 H435 0.930 . S
C464 C459 1.261 . S
C464 C463 1.312 . S
C465 O437 1.214 . S
C465 O445 1.234 . S
C466 H438 0.929 . S
C466 C469 1.391 . S
C466 C471 1.391 . S
C467 H439 0.929 . S
C467 C468 1.390 . S
C467 N470 1.391 . S
C468 H440 0.930 . S
C468 C467 1.390 . S
C468 C469 1.392 . S
C469 H441 0.929 . S
C469 C466 1.391 . S
C469 C468 1.392 . S
N470 Co414 2.257 . S
N470 C467 1.391 . S
N470 C471 1.388 . S
C471 H442 0.930 . S
C471 C466 1.391 . S
C471 N470 1.388 . S
Co472 O474 2.143 . S
Co472 O480 2.074 . S
Co472 O483 2.093 . S
Co472 O496 2.097 . S
Co472 N513 2.151 . S
Co472 N521 2.214 . S
Co473 O474 2.160 . S
Co473 O479 2.058 . S
Co473 O489 2.057 . S
Co473 O504 2.037 . S
Co473 N508 2.145 . S
Co473 N529 2.257 . S
O474 Co472 2.143 . S
O474 Co473 2.160 . S
C475 O476 1.278 . S
C475 O483 1.224 . S
O476 C475 1.278 . S
C477 O478 1.245 . S
C477 O489 1.232 . S
O478 C477 1.245 . S
O479 Co473 2.058 . S
O479 C505 1.269 . S
O480 Co472 2.074 . S
O480 C505 1.257 . S
H481 C506 0.930 . S
H482 C512 0.930 . S
O483 Co472 2.093 . S
O483 C475 1.224 . S
H484 C516 0.929 . S
H485 C518 0.930 . S
H486 C519 0.930 . S
H487 C517 0.929 . S
H488 C520 0.928 . S
O489 Co473 2.057 . S
O489 C477 1.232 . S
H490 C509 0.929 . S
H491 C510 0.929 . S
H492 C522 0.931 . S
H493 C514 0.929 . S
H494 C523 0.930 . S
H495 C515 0.931 . S
O496 Co472 2.097 . S
O496 C524 1.214 . S
H497 C525 0.929 . S
H498 C526 0.929 . S
H499 C527 0.930 . S
H500 C528 0.929 . S
H501 C530 0.930 . S
H502 C507 0.930 . S
H503 C511 0.930 . S
O504 Co473 2.037 . S
O504 C524 1.234 . S
C505 O479 1.269 . S
C505 O480 1.257 . S
C506 H481 0.930 . S
C506 C509 1.388 . S
C506 C511 1.418 . S
C507 H502 0.930 . S
C507 C510 1.404 . S
C507 C511 1.353 . S
N508 Co473 2.145 . S
N508 C509 1.397 . S
N508 C510 1.334 . S
C509 H490 0.929 . S
C509 C506 1.388 . S
C509 N508 1.397 . S
C510 H491 0.929 . S
C510 C507 1.404 . S
C510 N508 1.334 . S
C511 H503 0.930 . S
C511 C506 1.418 . S
C511 C507 1.353 . S
C512 H482 0.930 . S
C512 N513 1.330 . S
C512 C514 1.446 . S
N513 Co472 2.151 . S
N513 C512 1.330 . S
N513 C517 1.418 . S
C514 H493 0.929 . S
C514 C512 1.446 . S
C514 C515 1.332 . S
C515 H495 0.931 . S
C515 C514 1.332 . S
C515 C516 1.267 . S
C516 H484 0.929 . S
C516 C515 1.267 . S
C516 C517 1.251 . S
C517 H487 0.929 . S
C517 N513 1.418 . S
C517 C516 1.251 . S
C518 H485 0.930 . S
C518 C520 1.406 . S
C518 C523 1.261 . S
C519 H486 0.930 . S
C519 N521 1.325 . S
C519 C522 1.357 . S
C520 H488 0.928 . S
C520 C518 1.406 . S
C520 N521 1.261 . S
N521 Co472 2.214 . S
N521 C519 1.325 . S
N521 C520 1.261 . S
C522 H492 0.931 . S
C522 C519 1.357 . S
C522 C523 1.312 . S
C523 H494 0.930 . S
C523 C518 1.261 . S
C523 C522 1.312 . S
C524 O496 1.214 . S
C524 O504 1.234 . S
C525 H497 0.929 . S
C525 C528 1.391 . S
C525 C530 1.391 . S
C526 H498 0.929 . S
C526 C527 1.390 . S
C526 N529 1.391 . S
C527 H499 0.930 . S
C527 C526 1.390 . S
C527 C528 1.392 . S
C528 H500 0.929 . S
C528 C525 1.391 . S
C528 C527 1.392 . S
N529 Co473 2.257 . S
N529 C526 1.391 . S
N529 C530 1.388 . S
C530 H501 0.930 . S
C530 C525 1.391 . S
C530 N529 1.388 . S
Co531 O533 2.143 . S
Co531 O539 2.074 . S
Co531 O542 2.093 . S
Co531 O555 2.097 . S
Co531 N572 2.151 . S
Co531 N580 2.214 . S
Co532 O533 2.160 . S
Co532 O538 2.058 . S
Co532 O548 2.057 1_554 S
Co532 O563 2.037 . S
Co532 N567 2.145 1_554 S
Co532 N588 2.257 . S
O533 Co531 2.143 . S
O533 Co532 2.160 . S
C534 O535 1.278 . S
C534 O542 1.224 . S
O535 C534 1.278 . S
C536 O537 1.245 1_556 S
C536 O548 1.232 . S
O537 C536 1.245 1_554 S
O538 Co532 2.058 . S
O538 C564 1.269 . S
O539 Co531 2.074 . S
O539 C564 1.257 . S
H540 C565 0.930 . S
H541 C571 0.930 . S
O542 Co531 2.093 . S
O542 C534 1.224 . S
H543 C575 0.929 . S
H544 C577 0.930 . S
H545 C578 0.930 . S
H546 C576 0.929 . S
H547 C579 0.928 . S
O548 Co532 2.057 1_556 S
O548 C536 1.232 . S
H549 C568 0.929 1_554 S
H550 C569 0.929 . S
H551 C581 0.931 . S
H552 C573 0.929 . S
H553 C582 0.930 . S
H554 C574 0.931 . S
O555 Co531 2.097 . S
O555 C583 1.214 . S
H556 C584 0.929 . S
H557 C585 0.929 . S
H558 C586 0.930 . S
H559 C587 0.929 . S
H560 C589 0.930 . S
H561 C566 0.930 . S
H562 C570 0.930 . S
O563 Co532 2.037 . S
O563 C583 1.234 . S
C564 O538 1.269 . S
C564 O539 1.257 . S
C565 H540 0.930 . S
C565 C568 1.388 . S
C565 C570 1.418 . S
C566 H561 0.930 . S
C566 C569 1.404 . S
C566 C570 1.353 . S
N567 Co532 2.145 1_556 S
N567 C568 1.397 . S
N567 C569 1.334 . S
C568 H549 0.929 1_556 S
C568 C565 1.388 . S
C568 N567 1.397 . S
C569 H550 0.929 . S
C569 C566 1.404 . S
C569 N567 1.334 . S
C570 H562 0.930 . S
C570 C565 1.418 . S
C570 C566 1.353 . S
C571 H541 0.930 . S
C571 N572 1.330 . S
C571 C573 1.446 . S
N572 Co531 2.151 . S
N572 C571 1.330 . S
N572 C576 1.418 . S
C573 H552 0.929 . S
C573 C571 1.446 . S
C573 C574 1.332 . S
C574 H554 0.931 . S
C574 C573 1.332 . S
C574 C575 1.267 . S
C575 H543 0.929 . S
C575 C574 1.267 . S
C575 C576 1.251 . S
C576 H546 0.929 . S
C576 N572 1.418 . S
C576 C575 1.251 . S
C577 H544 0.930 . S
C577 C579 1.406 . S
C577 C582 1.261 . S
C578 H545 0.930 . S
C578 N580 1.325 . S
C578 C581 1.357 . S
C579 H547 0.928 . S
C579 C577 1.406 . S
C579 N580 1.261 . S
N580 Co531 2.214 . S
N580 C578 1.325 . S
N580 C579 1.261 . S
C581 H551 0.931 . S
C581 C578 1.357 . S
C581 C582 1.312 . S
C582 H553 0.930 . S
C582 C577 1.261 . S
C582 C581 1.312 . S
C583 O555 1.214 . S
C583 O563 1.234 . S
C584 H556 0.929 . S
C584 C587 1.391 . S
C584 C589 1.391 . S
C585 H557 0.929 . S
C585 C586 1.390 . S
C585 N588 1.391 . S
C586 H558 0.930 . S
C586 C585 1.390 . S
C586 C587 1.392 . S
C587 H559 0.929 . S
C587 C584 1.391 . S
C587 C586 1.392 . S
N588 Co532 2.257 . S
N588 C585 1.391 . S
N588 C589 1.388 . S
C589 H560 0.930 . S
C589 C584 1.391 . S
C589 N588 1.388 . S
Co590 O592 2.143 1_556 S
Co590 O598 2.074 . S
Co590 O601 2.093 . S
Co590 O614 2.097 . S
Co590 N631 2.151 . S
Co590 N639 2.214 . S
Co591 O592 2.160 . S
Co591 O597 2.058 . S
Co591 O607 2.057 . S
Co591 O622 2.037 . S
Co591 N626 2.145 . S
Co591 N647 2.257 . S
O592 Co590 2.143 1_554 S
O592 Co591 2.160 . S
C593 O594 1.278 . S
C593 O601 1.224 . S
O594 C593 1.278 . S
C595 O596 1.245 . S
C595 O607 1.232 . S
O596 C595 1.245 . S
O597 Co591 2.058 . S
O597 C623 1.269 . S
O598 Co590 2.074 . S
O598 C623 1.257 1_556 S
H599 C624 0.930 . S
H600 C630 0.930 . S
O601 Co590 2.093 . S
O601 C593 1.224 . S
H602 C634 0.929 . S
H603 C636 0.930 . S
H604 C637 0.930 . S
H605 C635 0.929 . S
H606 C638 0.928 . S
O607 Co591 2.057 . S
O607 C595 1.232 . S
H608 C627 0.929 . S
H609 C628 0.929 . S
H610 C640 0.931 . S
H611 C632 0.929 . S
H612 C641 0.930 . S
H613 C633 0.931 . S
O614 Co590 2.097 . S
O614 C642 1.214 . S
H615 C643 0.929 . S
H616 C644 0.929 . S
H617 C645 0.930 . S
H618 C646 0.929 . S
H619 C648 0.930 . S
H620 C625 0.930 . S
H621 C629 0.930 . S
O622 Co591 2.037 . S
O622 C642 1.234 1_554 S
C623 O597 1.269 . S
C623 O598 1.257 1_554 S
C624 H599 0.930 . S
C624 C627 1.388 . S
C624 C629 1.418 . S
C625 H620 0.930 . S
C625 C628 1.404 . S
C625 C629 1.353 . S
N626 Co591 2.145 . S
N626 C627 1.397 . S
N626 C628 1.334 . S
C627 H608 0.929 . S
C627 C624 1.388 . S
C627 N626 1.397 . S
C628 H609 0.929 . S
C628 C625 1.404 . S
C628 N626 1.334 . S
C629 H621 0.930 . S
C629 C624 1.418 . S
C629 C625 1.353 . S
C630 H600 0.930 . S
C630 N631 1.330 . S
C630 C632 1.446 . S
N631 Co590 2.151 . S
N631 C630 1.330 . S
N631 C635 1.418 . S
C632 H611 0.929 . S
C632 C630 1.446 . S
C632 C633 1.332 . S
C633 H613 0.931 . S
C633 C632 1.332 . S
C633 C634 1.267 . S
C634 H602 0.929 . S
C634 C633 1.267 . S
C634 C635 1.251 . S
C635 H605 0.929 . S
C635 N631 1.418 . S
C635 C634 1.251 . S
C636 H603 0.930 . S
C636 C638 1.406 . S
C636 C641 1.261 . S
C637 H604 0.930 . S
C637 N639 1.325 . S
C637 C640 1.357 . S
C638 H606 0.928 . S
C638 C636 1.406 . S
C638 N639 1.261 . S
N639 Co590 2.214 . S
N639 C637 1.325 . S
N639 C638 1.261 . S
C640 H610 0.931 . S
C640 C637 1.357 . S
C640 C641 1.312 . S
C641 H612 0.930 . S
C641 C636 1.261 . S
C641 C640 1.312 . S
C642 O614 1.214 . S
C642 O622 1.234 1_556 S
C643 H615 0.929 . S
C643 C646 1.391 . S
C643 C648 1.391 . S
C644 H616 0.929 . S
C644 C645 1.390 . S
C644 N647 1.391 . S
C645 H617 0.930 . S
C645 C644 1.390 . S
C645 C646 1.392 . S
C646 H618 0.929 . S
C646 C643 1.391 . S
C646 C645 1.392 . S
N647 Co591 2.257 . S
N647 C644 1.391 . S
N647 C648 1.388 . S
C648 H619 0.930 . S
C648 C643 1.391 . S
C648 N647 1.388 . S
Co649 O651 2.143 . S
Co649 O657 2.074 . S
Co649 O660 2.093 . S
Co649 O673 2.097 . S
Co649 N690 2.151 . S
Co649 N698 2.214 . S
Co650 O651 2.160 . S
Co650 O656 2.058 . S
Co650 O666 2.057 . S
Co650 O681 2.037 . S
Co650 N685 2.145 . S
Co650 N706 2.257 . S
O651 Co649 2.143 . S
O651 Co650 2.160 . S
C652 O653 1.278 . S
C652 O660 1.224 . S
O653 C652 1.278 . S
C654 O655 1.245 . S
C654 O666 1.232 . S
O655 C654 1.245 . S
O656 Co650 2.058 . S
O656 C682 1.269 . S
O657 Co649 2.074 . S
O657 C682 1.257 . S
H658 C683 0.930 . S
H659 C689 0.930 . S
O660 Co649 2.093 . S
O660 C652 1.224 . S
H661 C693 0.929 . S
H662 C695 0.930 . S
H663 C696 0.930 . S
H664 C694 0.929 . S
H665 C697 0.928 . S
O666 Co650 2.057 . S
O666 C654 1.232 . S
H667 C686 0.929 . S
H668 C687 0.929 . S
H669 C699 0.931 . S
H670 C691 0.929 . S
H671 C700 0.930 . S
H672 C692 0.931 . S
O673 Co649 2.097 . S
O673 C701 1.214 . S
H674 C702 0.929 . S
H675 C703 0.929 . S
H676 C704 0.930 . S
H677 C705 0.929 . S
H678 C707 0.930 . S
H679 C684 0.930 . S
H680 C688 0.930 . S
O681 Co650 2.037 . S
O681 C701 1.234 . S
C682 O656 1.269 . S
C682 O657 1.257 . S
C683 H658 0.930 . S
C683 C686 1.388 . S
C683 C688 1.418 . S
C684 H679 0.930 . S
C684 C687 1.404 . S
C684 C688 1.353 . S
N685 Co650 2.145 . S
N685 C686 1.397 . S
N685 C687 1.334 . S
C686 H667 0.929 . S
C686 C683 1.388 . S
C686 N685 1.397 . S
C687 H668 0.929 . S
C687 C684 1.404 . S
C687 N685 1.334 . S
C688 H680 0.930 . S
C688 C683 1.418 . S
C688 C684 1.353 . S
C689 H659 0.930 . S
C689 N690 1.330 . S
C689 C691 1.446 . S
N690 Co649 2.151 . S
N690 C689 1.330 . S
N690 C694 1.418 . S
C691 H670 0.929 . S
C691 C689 1.446 . S
C691 C692 1.332 . S
C692 H672 0.931 . S
C692 C691 1.332 . S
C692 C693 1.267 . S
C693 H661 0.929 . S
C693 C692 1.267 . S
C693 C694 1.251 . S
C694 H664 0.929 . S
C694 N690 1.418 . S
C694 C693 1.251 . S
C695 H662 0.930 . S
C695 C697 1.406 . S
C695 C700 1.261 . S
C696 H663 0.930 . S
C696 N698 1.325 . S
C696 C699 1.357 . S
C697 H665 0.928 . S
C697 C695 1.406 . S
C697 N698 1.261 . S
N698 Co649 2.214 . S
N698 C696 1.325 . S
N698 C697 1.261 . S
C699 H669 0.931 . S
C699 C696 1.357 . S
C699 C700 1.312 . S
C700 H671 0.930 . S
C700 C695 1.261 . S
C700 C699 1.312 . S
C701 O673 1.214 . S
C701 O681 1.234 . S
C702 H674 0.929 . S
C702 C705 1.391 . S
C702 C707 1.391 . S
C703 H675 0.929 . S
C703 C704 1.390 . S
C703 N706 1.391 . S
C704 H676 0.930 . S
C704 C703 1.390 . S
C704 C705 1.392 . S
C705 H677 0.929 . S
C705 C702 1.391 . S
C705 C704 1.392 . S
N706 Co650 2.257 . S
N706 C703 1.391 . S
N706 C707 1.388 . S
C707 H678 0.930 . S
C707 C702 1.391 . S
C707 N706 1.388 . S
Co708 O710 2.143 . S
Co708 O716 2.074 . S
Co708 O719 2.093 . S
Co708 O732 2.097 . S
Co708 N749 2.151 . S
Co708 N757 2.214 . S
Co709 O710 2.160 . S
Co709 O715 2.058 . S
Co709 O725 2.057 . S
Co709 O740 2.037 . S
Co709 N744 2.145 . S
Co709 N765 2.257 . S
O710 Co708 2.143 . S
O710 Co709 2.160 . S
C711 O712 1.278 . S
C711 O719 1.224 . S
O712 C711 1.278 . S
C713 O714 1.245 . S
C713 O725 1.232 . S
O714 C713 1.245 . S
O715 Co709 2.058 . S
O715 C741 1.269 . S
O716 Co708 2.074 . S
O716 C741 1.257 . S
H717 C742 0.930 . S
H718 C748 0.930 . S
O719 Co708 2.093 . S
O719 C711 1.224 . S
H720 C752 0.929 . S
H721 C754 0.930 . S
H722 C755 0.930 . S
H723 C753 0.929 . S
H724 C756 0.928 . S
O725 Co709 2.057 . S
O725 C713 1.232 . S
H726 C745 0.929 . S
H727 C746 0.929 . S
H728 C758 0.931 . S
H729 C750 0.929 . S
H730 C759 0.930 . S
H731 C751 0.931 . S
O732 Co708 2.097 . S
O732 C760 1.214 . S
H733 C761 0.929 . S
H734 C762 0.929 . S
H735 C763 0.930 . S
H736 C764 0.929 . S
H737 C766 0.930 . S
H738 C743 0.930 1_554 S
H739 C747 0.930 . S
O740 Co709 2.037 . S
O740 C760 1.234 . S
C741 O715 1.269 . S
C741 O716 1.257 . S
C742 H717 0.930 . S
C742 C745 1.388 . S
C742 C747 1.418 . S
C743 H738 0.930 1_556 S
C743 C746 1.404 . S
C743 C747 1.353 . S
N744 Co709 2.145 . S
N744 C745 1.397 . S
N744 C746 1.334 . S
C745 H726 0.929 . S
C745 C742 1.388 . S
C745 N744 1.397 . S
C746 H727 0.929 . S
C746 C743 1.404 . S
C746 N744 1.334 . S
C747 H739 0.930 . S
C747 C742 1.418 . S
C747 C743 1.353 . S
C748 H718 0.930 . S
C748 N749 1.330 . S
C748 C750 1.446 . S
N749 Co708 2.151 . S
N749 C748 1.330 . S
N749 C753 1.418 . S
C750 H729 0.929 . S
C750 C748 1.446 . S
C750 C751 1.332 . S
C751 H731 0.931 . S
C751 C750 1.332 . S
C751 C752 1.267 . S
C752 H720 0.929 . S
C752 C751 1.267 . S
C752 C753 1.251 . S
C753 H723 0.929 . S
C753 N749 1.418 . S
C753 C752 1.251 . S
C754 H721 0.930 . S
C754 C756 1.406 . S
C754 C759 1.261 . S
C755 H722 0.930 . S
C755 N757 1.325 . S
C755 C758 1.357 . S
C756 H724 0.928 . S
C756 C754 1.406 . S
C756 N757 1.261 . S
N757 Co708 2.214 . S
N757 C755 1.325 . S
N757 C756 1.261 . S
C758 H728 0.931 . S
C758 C755 1.357 . S
C758 C759 1.312 . S
C759 H730 0.930 . S
C759 C754 1.261 . S
C759 C758 1.312 . S
C760 O732 1.214 . S
C760 O740 1.234 . S
C761 H733 0.929 . S
C761 C764 1.391 . S
C761 C766 1.391 . S
C762 H734 0.929 . S
C762 C763 1.390 . S
C762 N765 1.391 . S
C763 H735 0.930 . S
C763 C762 1.390 . S
C763 C764 1.392 . S
C764 H736 0.929 . S
C764 C761 1.391 . S
C764 C763 1.392 . S
N765 Co709 2.257 . S
N765 C762 1.391 . S
N765 C766 1.388 . S
C766 H737 0.930 . S
C766 C761 1.391 . S
C766 N765 1.388 . S
Co767 O769 2.155 . S
Co767 O775 2.074 . S
Co767 O778 2.093 1_655 S
Co767 O791 2.097 1_655 S
Co767 N808 2.151 . S
Co767 N816 2.214 . S
Co768 O769 2.145 1_455 S
Co768 O774 2.058 1_455 S
Co768 O784 2.052 1_455 S
Co768 O799 2.037 . S
Co768 N803 2.145 . S
Co768 N824 2.257 . S
O769 Co767 2.155 . S
O769 Co768 2.145 1_655 S
C770 O771 1.278 . S
C770 O778 1.224 . S
O771 C770 1.278 . S
C772 O773 1.245 . S
C772 O784 1.243 . S
O773 C772 1.245 . S
O774 Co768 2.058 1_655 S
O774 C800 1.269 . S
O775 Co767 2.074 . S
O775 C800 1.257 . S
H776 C801 0.930 . S
H777 C807 0.930 . S
O778 Co767 2.093 1_455 S
O778 C770 1.224 . S
H779 C811 0.929 . S
H780 C813 0.930 1_556 S
H781 C814 0.930 . S
H782 C812 0.929 . S
H783 C815 0.928 . S
O784 Co768 2.052 1_655 S
O784 C772 1.243 . S
H785 C804 0.929 . S
H786 C805 0.929 . S
H787 C817 0.931 . S
H788 C809 0.929 . S
H789 C818 0.930 1_556 S
H790 C810 0.931 . S
O791 Co767 2.097 1_455 S
O791 C819 1.214 . S
H792 C820 0.929 . S
H793 C821 0.929 . S
H794 C822 0.930 . S
H795 C823 0.929 . S
H796 C825 0.930 . S
H797 C802 0.930 . S
H798 C806 0.930 . S
O799 Co768 2.037 . S
O799 C819 1.234 . S
C800 O774 1.269 . S
C800 O775 1.257 . S
C801 H776 0.930 . S
C801 C804 1.388 . S
C801 C806 1.418 . S
C802 H797 0.930 . S
C802 C805 1.404 . S
C802 C806 1.353 . S
N803 Co768 2.145 . S
N803 C804 1.397 . S
N803 C805 1.334 . S
C804 H785 0.929 . S
C804 C801 1.388 . S
C804 N803 1.397 . S
C805 H786 0.929 . S
C805 C802 1.404 . S
C805 N803 1.334 . S
C806 H798 0.930 . S
C806 C801 1.418 . S
C806 C802 1.353 . S
C807 H777 0.930 . S
C807 N808 1.330 . S
C807 C809 1.446 . S
N808 Co767 2.151 . S
N808 C807 1.330 . S
N808 C812 1.418 . S
C809 H788 0.929 . S
C809 C807 1.446 . S
C809 C810 1.332 . S
C810 H790 0.931 . S
C810 C809 1.332 . S
C810 C811 1.267 . S
C811 H779 0.929 . S
C811 C810 1.267 . S
C811 C812 1.251 . S
C812 H782 0.929 . S
C812 N808 1.418 . S
C812 C811 1.251 . S
C813 H780 0.930 1_554 S
C813 C815 1.406 . S
C813 C818 1.261 . S
C814 H781 0.930 . S
C814 N816 1.325 . S
C814 C817 1.357 . S
C815 H783 0.928 . S
C815 C813 1.406 . S
C815 N816 1.261 . S
N816 Co767 2.214 . S
N816 C814 1.325 . S
N816 C815 1.261 . S
C817 H787 0.931 . S
C817 C814 1.357 . S
C817 C818 1.312 . S
C818 H789 0.930 1_554 S
C818 C813 1.261 . S
C818 C817 1.312 . S
C819 O791 1.214 . S
C819 O799 1.234 . S
C820 H792 0.929 . S
C820 C823 1.391 . S
C820 C825 1.391 . S
C821 H793 0.929 . S
C821 C822 1.390 . S
C821 N824 1.391 . S
C822 H794 0.930 . S
C822 C821 1.390 . S
C822 C823 1.392 . S
C823 H795 0.929 . S
C823 C820 1.391 . S
C823 C822 1.392 . S
N824 Co768 2.257 . S
N824 C821 1.391 . S
N824 C825 1.388 . S
C825 H796 0.930 . S
C825 C820 1.391 . S
C825 N824 1.388 . S
Co826 O828 2.143 . S
Co826 O834 2.074 . S
Co826 O837 2.093 . S
Co826 O850 2.097 . S
Co826 N867 2.151 . S
Co826 N875 2.214 . S
Co827 O828 2.160 . S
Co827 O833 2.058 . S
Co827 O843 2.057 . S
Co827 O858 2.037 . S
Co827 N862 2.145 . S
Co827 N883 2.257 . S
O828 Co826 2.143 . S
O828 Co827 2.160 . S
C829 O830 1.278 . S
C829 O837 1.224 . S
O830 C829 1.278 . S
C831 O832 1.245 . S
C831 O843 1.232 . S
O832 C831 1.245 . S
O833 Co827 2.058 . S
O833 C859 1.269 . S
O834 Co826 2.074 . S
O834 C859 1.257 . S
H835 C860 0.930 . S
H836 C866 0.930 . S
O837 Co826 2.093 . S
O837 C829 1.224 . S
H838 C870 0.929 . S
H839 C872 0.930 . S
H840 C873 0.930 . S
H841 C871 0.929 . S
H842 C874 0.928 . S
O843 Co827 2.057 . S
O843 C831 1.232 . S
H844 C863 0.929 . S
H845 C864 0.929 . S
H846 C876 0.931 . S
H847 C868 0.929 . S
H848 C877 0.930 . S
H849 C869 0.931 . S
O850 Co826 2.097 . S
O850 C878 1.214 . S
H851 C879 0.929 . S
H852 C880 0.929 . S
H853 C881 0.930 . S
H854 C882 0.929 . S
H855 C884 0.930 . S
H856 C861 0.930 . S
H857 C865 0.930 . S
O858 Co827 2.037 . S
O858 C878 1.234 . S
C859 O833 1.269 . S
C859 O834 1.257 . S
C860 H835 0.930 . S
C860 C863 1.388 . S
C860 C865 1.418 . S
C861 H856 0.930 . S
C861 C864 1.404 . S
C861 C865 1.353 . S
N862 Co827 2.145 . S
N862 C863 1.397 . S
N862 C864 1.334 . S
C863 H844 0.929 . S
C863 C860 1.388 . S
C863 N862 1.397 . S
C864 H845 0.929 . S
C864 C861 1.404 . S
C864 N862 1.334 . S
C865 H857 0.930 . S
C865 C860 1.418 . S
C865 C861 1.353 . S
C866 H836 0.930 . S
C866 N867 1.330 . S
C866 C868 1.446 . S
N867 Co826 2.151 . S
N867 C866 1.330 . S
N867 C871 1.418 . S
C868 H847 0.929 . S
C868 C866 1.446 . S
C868 C869 1.332 . S
C869 H849 0.931 . S
C869 C868 1.332 . S
C869 C870 1.267 . S
C870 H838 0.929 . S
C870 C869 1.267 . S
C870 C871 1.251 . S
C871 H841 0.929 . S
C871 N867 1.418 . S
C871 C870 1.251 . S
C872 H839 0.930 . S
C872 C874 1.406 . S
C872 C877 1.261 . S
C873 H840 0.930 . S
C873 N875 1.325 . S
C873 C876 1.357 . S
C874 H842 0.928 . S
C874 C872 1.406 . S
C874 N875 1.261 . S
N875 Co826 2.214 . S
N875 C873 1.325 . S
N875 C874 1.261 . S
C876 H846 0.931 . S
C876 C873 1.357 . S
C876 C877 1.312 . S
C877 H848 0.930 . S
C877 C872 1.261 . S
C877 C876 1.312 . S
C878 O850 1.214 . S
C878 O858 1.234 . S
C879 H851 0.929 . S
C879 C882 1.391 . S
C879 C884 1.391 . S
C880 H852 0.929 . S
C880 C881 1.390 . S
C880 N883 1.391 . S
C881 H853 0.930 . S
C881 C880 1.390 . S
C881 C882 1.392 . S
C882 H854 0.929 . S
C882 C879 1.391 . S
C882 C881 1.392 . S
N883 Co827 2.257 . S
N883 C880 1.391 . S
N883 C884 1.388 . S
C884 H855 0.930 . S
C884 C879 1.391 . S
C884 N883 1.388 . S
Co885 O887 2.155 . S
Co885 O893 2.074 . S
Co885 O896 2.093 1_655 S
Co885 O909 2.097 1_655 S
Co885 N926 2.151 . S
Co885 N934 2.214 . S
Co886 O887 2.145 1_455 S
Co886 O892 2.058 1_455 S
Co886 O902 2.052 1_455 S
Co886 O917 2.037 . S
Co886 N921 2.145 . S
Co886 N942 2.257 . S
O887 Co885 2.155 . S
O887 Co886 2.145 1_655 S
C888 O889 1.278 . S
C888 O896 1.224 . S
O889 C888 1.278 . S
C890 O891 1.245 . S
C890 O902 1.242 . S
O891 C890 1.245 . S
O892 Co886 2.058 1_655 S
O892 C918 1.269 . S
O893 Co885 2.074 . S
O893 C918 1.257 . S
H894 C919 0.930 . S
H895 C925 0.930 . S
O896 Co885 2.093 1_455 S
O896 C888 1.224 . S
H897 C929 0.929 . S
H898 C931 0.930 . S
H899 C932 0.930 . S
H900 C930 0.929 . S
H901 C933 0.928 . S
O902 Co886 2.052 1_655 S
O902 C890 1.242 . S
H903 C922 0.929 . S
H904 C923 0.929 . S
H905 C935 0.931 . S
H906 C927 0.929 . S
H907 C936 0.930 . S
H908 C928 0.931 . S
O909 Co885 2.097 1_455 S
O909 C937 1.214 . S
H910 C938 0.929 . S
H911 C939 0.929 . S
H912 C940 0.930 . S
H913 C941 0.929 . S
H914 C943 0.930 . S
H915 C920 0.930 . S
H916 C924 0.930 . S
O917 Co886 2.037 . S
O917 C937 1.234 . S
C918 O892 1.269 . S
C918 O893 1.257 . S
C919 H894 0.930 . S
C919 C922 1.388 . S
C919 C924 1.418 . S
C920 H915 0.930 . S
C920 C923 1.404 . S
C920 C924 1.353 . S
N921 Co886 2.145 . S
N921 C922 1.397 . S
N921 C923 1.334 . S
C922 H903 0.929 . S
C922 C919 1.388 . S
C922 N921 1.397 . S
C923 H904 0.929 . S
C923 C920 1.404 . S
C923 N921 1.334 . S
C924 H916 0.930 . S
C924 C919 1.418 . S
C924 C920 1.353 . S
C925 H895 0.930 . S
C925 N926 1.330 . S
C925 C927 1.446 . S
N926 Co885 2.151 . S
N926 C925 1.330 . S
N926 C930 1.418 . S
C927 H906 0.929 . S
C927 C925 1.446 . S
C927 C928 1.332 . S
C928 H908 0.931 . S
C928 C927 1.332 . S
C928 C929 1.267 . S
C929 H897 0.929 . S
C929 C928 1.267 . S
C929 C930 1.251 . S
C930 H900 0.929 . S
C930 N926 1.418 . S
C930 C929 1.251 . S
C931 H898 0.930 . S
C931 C933 1.406 . S
C931 C936 1.261 . S
C932 H899 0.930 . S
C932 N934 1.325 . S
C932 C935 1.357 1_556 S
C933 H901 0.928 . S
C933 C931 1.406 . S
C933 N934 1.261 1_554 S
N934 Co885 2.214 . S
N934 C932 1.325 . S
N934 C933 1.261 1_556 S
C935 H905 0.931 . S
C935 C932 1.357 1_554 S
C935 C936 1.312 . S
C936 H907 0.930 . S
C936 C931 1.261 . S
C936 C935 1.312 . S
C937 O909 1.214 . S
C937 O917 1.234 . S
C938 H910 0.929 . S
C938 C941 1.391 . S
C938 C943 1.391 . S
C939 H911 0.929 . S
C939 C940 1.390 . S
C939 N942 1.391 . S
C940 H912 0.930 . S
C940 C939 1.390 . S
C940 C941 1.392 . S
C941 H913 0.929 . S
C941 C938 1.391 . S
C941 C940 1.392 . S
N942 Co886 2.257 . S
N942 C939 1.391 . S
N942 C943 1.388 . S
C943 H914 0.930 . S
C943 C938 1.391 . S
C943 N942 1.388 . S
H944 C952 0.950 . S
H945 C957 0.950 . S
H946 C954 0.950 . S
H947 C956 0.950 . S
H948 C958 0.950 . S
H949 C960 0.950 . S
H950 C962 0.950 . S
H951 C963 0.950 . S
C952 H944 0.950 . S
C952 C953 1.386 . S
C952 C954 1.391 . S
C953 C952 1.386 . S
C953 C957 1.393 . S
C954 H946 0.950 . S
C954 C952 1.391 . S
C954 C955 1.400 . S
C955 C954 1.400 . S
C955 C956 1.398 . S
C955 C961 1.491 . S
C956 H947 0.950 . S
C956 C955 1.398 . S
C956 C957 1.391 . S
C957 H945 0.950 . S
C957 C953 1.393 . S
C957 C956 1.391 . S
C958 H948 0.950 . S
C958 C959 1.386 . S
C958 C960 1.391 . S
C959 C958 1.386 . S
C959 C963 1.393 . S
C960 H949 0.950 . S
C960 C958 1.391 . S
C960 C961 1.400 . S
C961 C955 1.491 . S
C961 C960 1.400 . S
C961 C962 1.398 . S
C962 H950 0.950 . S
C962 C961 1.398 . S
C962 C963 1.391 . S
C963 H951 0.950 . S
C963 C959 1.393 . S
C963 C962 1.391 . S
H964 C972 0.950 . S
H965 C977 0.950 . S
H966 C974 0.950 . S
H967 C976 0.950 . S
H968 C978 0.950 . S
H969 C980 0.950 . S
H970 C982 0.950 . S
H971 C983 0.950 . S
C972 H964 0.950 . S
C972 C973 1.386 . S
C972 C974 1.391 . S
C973 C972 1.386 . S
C973 C977 1.393 . S
C974 H966 0.950 . S
C974 C972 1.391 . S
C974 C975 1.400 . S
C975 C974 1.400 . S
C975 C976 1.398 . S
C975 C981 1.491 . S
C976 H967 0.950 . S
C976 C975 1.398 . S
C976 C977 1.391 . S
C977 H965 0.950 . S
C977 C973 1.393 . S
C977 C976 1.391 . S
C978 H968 0.950 . S
C978 C979 1.386 . S
C978 C980 1.391 . S
C979 C978 1.386 . S
C979 C983 1.393 . S
C980 H969 0.950 . S
C980 C978 1.391 . S
C980 C981 1.400 . S
C981 C975 1.491 . S
C981 C980 1.400 . S
C981 C982 1.398 . S
C982 H970 0.950 . S
C982 C981 1.398 . S
C982 C983 1.391 . S
C983 H971 0.950 . S
C983 C979 1.393 . S
C983 C982 1.391 . S
H984 C992 0.950 . S
H985 C997 0.950 . S
H986 C994 0.950 . S
H987 C996 0.950 . S
H988 C998 0.950 . S
H989 C1000 0.950 . S
H990 C1002 0.950 . S
H991 C1003 0.950 . S
C992 H984 0.950 . S
C992 C993 1.386 . S
C992 C994 1.391 . S
C993 C992 1.386 . S
C993 C997 1.393 . S
C994 H986 0.950 . S
C994 C992 1.391 . S
C994 C995 1.400 . S
C995 C994 1.400 . S
C995 C996 1.398 . S
C995 C1001 1.491 . S
C996 H987 0.950 . S
C996 C995 1.398 . S
C996 C997 1.391 . S
C997 H985 0.950 . S
C997 C993 1.393 . S
C997 C996 1.391 . S
C998 H988 0.950 . S
C998 C999 1.386 . S
C998 C1000 1.391 . S
C999 C998 1.386 . S
C999 C1003 1.393 . S
C1000 H989 0.950 . S
C1000 C998 1.391 . S
C1000 C1001 1.400 . S
C1001 C995 1.491 . S
C1001 C1000 1.400 . S
C1001 C1002 1.398 . S
C1002 H990 0.950 . S
C1002 C1001 1.398 . S
C1002 C1003 1.391 . S
C1003 H991 0.950 . S
C1003 C999 1.393 . S
C1003 C1002 1.391 . S
H1004 C1012 0.950 . S
H1005 C1017 0.950 . S
H1006 C1014 0.950 1_554 S
H1007 C1016 0.950 . S
H1008 C1018 0.950 . S
H1009 C1020 0.950 . S
H1010 C1022 0.950 . S
H1011 C1023 0.950 . S
C1012 H1004 0.950 . S
C1012 C1013 1.386 1_554 S
C1012 C1014 1.391 1_554 S
C1013 C1012 1.386 1_556 S
C1013 C1017 1.393 . S
C1014 H1006 0.950 1_556 S
C1014 C1012 1.391 1_556 S
C1014 C1015 1.400 . S
C1015 C1014 1.400 . S
C1015 C1016 1.398 . S
C1015 C1021 1.491 . S
C1016 H1007 0.950 . S
C1016 C1015 1.398 . S
C1016 C1017 1.391 . S
C1017 H1005 0.950 . S
C1017 C1013 1.393 . S
C1017 C1016 1.391 . S
C1018 H1008 0.950 . S
C1018 C1019 1.386 . S
C1018 C1020 1.391 . S
C1019 C1018 1.386 . S
C1019 C1023 1.393 . S
C1020 H1009 0.950 . S
C1020 C1018 1.391 . S
C1020 C1021 1.400 . S
C1021 C1015 1.491 . S
C1021 C1020 1.400 . S
C1021 C1022 1.398 . S
C1022 H1010 0.950 . S
C1022 C1021 1.398 . S
C1022 C1023 1.391 . S
C1023 H1011 0.950 . S
C1023 C1019 1.393 . S
C1023 C1022 1.391 . S
H1024 C1032 0.950 . S
H1025 C1037 0.950 . S
H1026 C1034 0.950 . S
H1027 C1036 0.950 . S
H1028 C1038 0.950 . S
H1029 C1040 0.950 . S
H1030 C1042 0.950 1_554 S
H1031 C1043 0.950 . S
C1032 H1024 0.950 . S
C1032 C1033 1.386 . S
C1032 C1034 1.391 . S
C1033 C1032 1.386 . S
C1033 C1037 1.393 . S
C1034 H1026 0.950 . S
C1034 C1032 1.391 . S
C1034 C1035 1.400 . S
C1035 C1034 1.400 . S
C1035 C1036 1.398 . S
C1035 C1041 1.491 . S
C1036 H1027 0.950 . S
C1036 C1035 1.398 . S
C1036 C1037 1.391 . S
C1037 H1025 0.950 . S
C1037 C1033 1.393 . S
C1037 C1036 1.391 . S
C1038 H1028 0.950 . S
C1038 C1039 1.386 . S
C1038 C1040 1.391 . S
C1039 C1038 1.386 . S
C1039 C1043 1.393 1_556 S
C1040 H1029 0.950 . S
C1040 C1038 1.391 . S
C1040 C1041 1.400 . S
C1041 C1035 1.491 . S
C1041 C1040 1.400 . S
C1041 C1042 1.398 . S
C1042 H1030 0.950 1_556 S
C1042 C1041 1.398 . S
C1042 C1043 1.391 1_556 S
C1043 H1031 0.950 . S
C1043 C1039 1.393 1_554 S
C1043 C1042 1.391 1_554 S
H1044 C1052 0.950 . S
H1045 C1057 0.950 . S
H1046 C1054 0.950 . S
H1047 C1056 0.950 . S
H1048 C1058 0.950 . S
H1049 C1060 0.950 . S
H1050 C1062 0.950 . S
H1051 C1063 0.950 . S
C1052 H1044 0.950 . S
C1052 C1053 1.386 . S
C1052 C1054 1.391 . S
C1053 C1052 1.386 . S
C1053 C1057 1.393 . S
C1054 H1046 0.950 . S
C1054 C1052 1.391 . S
C1054 C1055 1.400 . S
C1055 C1054 1.400 . S
C1055 C1056 1.398 . S
C1055 C1061 1.491 . S
C1056 H1047 0.950 . S
C1056 C1055 1.398 . S
C1056 C1057 1.391 . S
C1057 H1045 0.950 . S
C1057 C1053 1.393 . S
C1057 C1056 1.391 . S
C1058 H1048 0.950 . S
C1058 C1059 1.386 . S
C1058 C1060 1.391 . S
C1059 C1058 1.386 . S
C1059 C1063 1.393 . S
C1060 H1049 0.950 . S
C1060 C1058 1.391 . S
C1060 C1061 1.400 . S
C1061 C1055 1.491 . S
C1061 C1060 1.400 . S
C1061 C1062 1.398 . S
C1062 H1050 0.950 . S
C1062 C1061 1.398 . S
C1062 C1063 1.391 . S
C1063 H1051 0.950 . S
C1063 C1059 1.393 . S
C1063 C1062 1.391 . S
H1064 C1072 0.950 . S
H1065 C1077 0.950 . S
H1066 C1074 0.950 . S
H1067 C1076 0.950 . S
H1068 C1078 0.950 . S
H1069 C1080 0.950 . S
H1070 C1082 0.950 . S
H1071 C1083 0.950 . S
C1072 H1064 0.950 . S
C1072 C1073 1.386 . S
C1072 C1074 1.391 . S
C1073 C1072 1.386 . S
C1073 C1077 1.393 . S
C1074 H1066 0.950 . S
C1074 C1072 1.391 . S
C1074 C1075 1.400 . S
C1075 C1074 1.400 . S
C1075 C1076 1.398 . S
C1075 C1081 1.491 . S
C1076 H1067 0.950 . S
C1076 C1075 1.398 . S
C1076 C1077 1.391 . S
C1077 H1065 0.950 . S
C1077 C1073 1.393 . S
C1077 C1076 1.391 . S
C1078 H1068 0.950 . S
C1078 C1079 1.386 . S
C1078 C1080 1.391 . S
C1079 C1078 1.386 . S
C1079 C1083 1.393 . S
C1080 H1069 0.950 . S
C1080 C1078 1.391 . S
C1080 C1081 1.400 . S
C1081 C1075 1.491 . S
C1081 C1080 1.400 . S
C1081 C1082 1.398 . S
C1082 H1070 0.950 . S
C1082 C1081 1.398 . S
C1082 C1083 1.391 . S
C1083 H1071 0.950 . S
C1083 C1079 1.393 . S
C1083 C1082 1.391 . S
H1084 C1092 0.950 . S
H1085 C1097 0.950 . S
H1086 C1094 0.950 . S
H1087 C1096 0.950 . S
H1088 C1098 0.950 . S
H1089 C1100 0.950 . S
H1090 C1102 0.950 . S
H1091 C1103 0.950 . S
C1092 H1084 0.950 . S
C1092 C1093 1.386 . S
C1092 C1094 1.391 . S
C1093 C1092 1.386 . S
C1093 C1097 1.393 . S
C1094 H1086 0.950 . S
C1094 C1092 1.391 . S
C1094 C1095 1.400 . S
C1095 C1094 1.400 . S
C1095 C1096 1.398 . S
C1095 C1101 1.491 . S
C1096 H1087 0.950 . S
C1096 C1095 1.398 . S
C1096 C1097 1.391 . S
C1097 H1085 0.950 . S
C1097 C1093 1.393 . S
C1097 C1096 1.391 . S
C1098 H1088 0.950 . S
C1098 C1099 1.386 . S
C1098 C1100 1.391 . S
C1099 C1098 1.386 . S
C1099 C1103 1.393 . S
C1100 H1089 0.950 . S
C1100 C1098 1.391 . S
C1100 C1101 1.400 . S
C1101 C1095 1.491 . S
C1101 C1100 1.400 . S
C1101 C1102 1.398 . S
C1102 H1090 0.950 . S
C1102 C1101 1.398 . S
C1102 C1103 1.391 . S
C1103 H1091 0.950 . S
C1103 C1099 1.393 . S
C1103 C1102 1.391 . S
H1104 C1112 0.950 . S
H1105 C1117 0.950 . S
H1106 C1114 0.950 . S
H1107 C1116 0.950 . S
H1108 C1118 0.950 . S
H1109 C1120 0.950 . S
H1110 C1122 0.950 . S
H1111 C1123 0.950 . S
C1112 H1104 0.950 . S
C1112 C1113 1.386 . S
C1112 C1114 1.391 . S
C1113 C1112 1.386 . S
C1113 C1117 1.393 . S
C1114 H1106 0.950 . S
C1114 C1112 1.391 . S
C1114 C1115 1.400 . S
C1115 C1114 1.400 . S
C1115 C1116 1.398 . S
C1115 C1121 1.491 . S
C1116 H1107 0.950 . S
C1116 C1115 1.398 . S
C1116 C1117 1.391 . S
C1117 H1105 0.950 . S
C1117 C1113 1.393 . S
C1117 C1116 1.391 . S
C1118 H1108 0.950 . S
C1118 C1119 1.386 . S
C1118 C1120 1.391 . S
C1119 C1118 1.386 . S
C1119 C1123 1.393 . S
C1120 H1109 0.950 . S
C1120 C1118 1.391 . S
C1120 C1121 1.400 . S
C1121 C1115 1.491 . S
C1121 C1120 1.400 . S
C1121 C1122 1.398 . S
C1122 H1110 0.950 . S
C1122 C1121 1.398 . S
C1122 C1123 1.391 . S
C1123 H1111 0.950 . S
C1123 C1119 1.393 . S
C1123 C1122 1.391 . S
H1124 C1132 0.950 . S
H1125 C1137 0.950 . S
H1126 C1134 0.950 . S
H1127 C1136 0.950 . S
H1128 C1138 0.950 . S
H1129 C1140 0.950 . S
H1130 C1142 0.950 . S
H1131 C1143 0.950 . S
C1132 H1124 0.950 . S
C1132 C1133 1.386 . S
C1132 C1134 1.391 . S
C1133 C1132 1.386 . S
C1133 C1137 1.393 . S
C1134 H1126 0.950 . S
C1134 C1132 1.391 . S
C1134 C1135 1.400 . S
C1135 C1134 1.400 . S
C1135 C1136 1.398 . S
C1135 C1141 1.491 . S
C1136 H1127 0.950 . S
C1136 C1135 1.398 . S
C1136 C1137 1.391 . S
C1137 H1125 0.950 . S
C1137 C1133 1.393 . S
C1137 C1136 1.391 . S
C1138 H1128 0.950 . S
C1138 C1139 1.386 . S
C1138 C1140 1.391 . S
C1139 C1138 1.386 . S
C1139 C1143 1.393 . S
C1140 H1129 0.950 . S
C1140 C1138 1.391 . S
C1140 C1141 1.400 . S
C1141 C1135 1.491 . S
C1141 C1140 1.400 . S
C1141 C1142 1.398 . S
C1142 H1130 0.950 . S
C1142 C1141 1.398 . S
C1142 C1143 1.391 . S
C1143 H1131 0.950 . S
C1143 C1139 1.393 . S
C1143 C1142 1.391 . S
H1144 C1152 0.950 . S
H1145 C1157 0.950 . S
H1146 C1154 0.950 . S
H1147 C1156 0.950 . S
H1148 C1158 0.950 . S
H1149 C1160 0.950 . S
H1150 C1162 0.950 . S
H1151 C1163 0.950 . S
C1152 H1144 0.950 . S
C1152 C1153 1.386 . S
C1152 C1154 1.391 . S
C1153 C1152 1.386 . S
C1153 C1157 1.393 . S
C1154 H1146 0.950 . S
C1154 C1152 1.391 . S
C1154 C1155 1.400 . S
C1155 C1154 1.400 . S
C1155 C1156 1.398 . S
C1155 C1161 1.491 . S
C1156 H1147 0.950 . S
C1156 C1155 1.398 . S
C1156 C1157 1.391 . S
C1157 H1145 0.950 . S
C1157 C1153 1.393 . S
C1157 C1156 1.391 . S
C1158 H1148 0.950 . S
C1158 C1159 1.386 . S
C1158 C1160 1.391 . S
C1159 C1158 1.386 . S
C1159 C1163 1.393 . S
C1160 H1149 0.950 . S
C1160 C1158 1.391 . S
C1160 C1161 1.400 . S
C1161 C1155 1.491 . S
C1161 C1160 1.400 . S
C1161 C1162 1.398 . S
C1162 H1150 0.950 . S
C1162 C1161 1.398 . S
C1162 C1163 1.391 . S
C1163 H1151 0.950 . S
C1163 C1159 1.393 . S
C1163 C1162 1.391 . S
H1164 C1172 0.950 . S
H1165 C1177 0.950 . S
H1166 C1174 0.950 . S
H1167 C1176 0.950 . S
H1168 C1178 0.950 . S
H1169 C1180 0.950 . S
H1170 C1182 0.950 . S
H1171 C1183 0.950 . S
C1172 H1164 0.950 . S
C1172 C1173 1.386 . S
C1172 C1174 1.391 . S
C1173 C1172 1.386 . S
C1173 C1177 1.393 . S
C1174 H1166 0.950 . S
C1174 C1172 1.391 . S
C1174 C1175 1.400 . S
C1175 C1174 1.400 . S
C1175 C1176 1.398 . S
C1175 C1181 1.491 . S
C1176 H1167 0.950 . S
C1176 C1175 1.398 . S
C1176 C1177 1.391 . S
C1177 H1165 0.950 . S
C1177 C1173 1.393 . S
C1177 C1176 1.391 . S
C1178 H1168 0.950 . S
C1178 C1179 1.386 . S
C1178 C1180 1.391 . S
C1179 C1178 1.386 . S
C1179 C1183 1.393 . S
C1180 H1169 0.950 . S
C1180 C1178 1.391 . S
C1180 C1181 1.400 . S
C1181 C1175 1.491 . S
C1181 C1180 1.400 . S
C1181 C1182 1.398 . S
C1182 H1170 0.950 . S
C1182 C1181 1.398 . S
C1182 C1183 1.391 . S
C1183 H1171 0.950 . S
C1183 C1179 1.393 . S
C1183 C1182 1.391 . S
H1184 C1192 0.950 . S
H1185 C1197 0.950 . S
H1186 C1194 0.950 . S
H1187 C1196 0.950 . S
H1188 C1198 0.950 . S
H1189 C1200 0.950 . S
H1190 C1202 0.950 . S
H1191 C1203 0.950 . S
C1192 H1184 0.950 . S
C1192 C1193 1.386 . S
C1192 C1194 1.391 . S
C1193 C1192 1.386 . S
C1193 C1197 1.393 . S
C1194 H1186 0.950 . S
C1194 C1192 1.391 . S
C1194 C1195 1.400 . S
C1195 C1194 1.400 . S
C1195 C1196 1.398 . S
C1195 C1201 1.491 . S
C1196 H1187 0.950 . S
C1196 C1195 1.398 . S
C1196 C1197 1.391 . S
C1197 H1185 0.950 . S
C1197 C1193 1.393 . S
C1197 C1196 1.391 . S
C1198 H1188 0.950 . S
C1198 C1199 1.386 . S
C1198 C1200 1.391 . S
C1199 C1198 1.386 . S
C1199 C1203 1.393 . S
C1200 H1189 0.950 . S
C1200 C1198 1.391 . S
C1200 C1201 1.400 . S
C1201 C1195 1.491 . S
C1201 C1200 1.400 . S
C1201 C1202 1.398 . S
C1202 H1190 0.950 . S
C1202 C1201 1.398 . S
C1202 C1203 1.391 . S
C1203 H1191 0.950 . S
C1203 C1199 1.393 . S
C1203 C1202 1.391 . S
H1204 C1212 0.950 . S
H1205 C1217 0.950 . S
H1206 C1214 0.950 . S
H1207 C1216 0.950 . S
H1208 C1218 0.950 . S
H1209 C1220 0.950 . S
H1210 C1222 0.950 . S
H1211 C1223 0.937 1_554 S
C1212 H1204 0.950 . S
C1212 C1213 1.386 . S
C1212 C1214 1.391 . S
C1213 C1212 1.386 . S
C1213 C1217 1.393 . S
C1214 H1206 0.950 . S
C1214 C1212 1.391 . S
C1214 C1215 1.400 . S
C1215 C1214 1.400 . S
C1215 C1216 1.398 . S
C1215 C1221 1.491 . S
C1216 H1207 0.950 . S
C1216 C1215 1.398 . S
C1216 C1217 1.391 . S
C1217 H1205 0.950 . S
C1217 C1213 1.393 . S
C1217 C1216 1.391 . S
C1218 H1208 0.950 . S
C1218 C1219 1.386 . S
C1218 C1220 1.391 . S
C1219 C1218 1.386 . S
C1219 C1223 1.393 . S
C1220 H1209 0.950 . S
C1220 C1218 1.391 . S
C1220 C1221 1.400 . S
C1221 C1215 1.491 . S
C1221 C1220 1.400 . S
C1221 C1222 1.398 . S
C1222 H1210 0.950 . S
C1222 C1221 1.398 . S
C1222 C1223 1.391 . S
C1223 H1211 0.937 1_556 S
C1223 C1219 1.393 . S
C1223 C1222 1.391 . S
H1224 C1232 0.950 . S
H1225 C1237 0.950 . S
H1226 C1234 0.950 . S
H1227 C1236 0.950 . S
H1228 C1238 0.950 . S
H1229 C1240 0.950 . S
H1230 C1242 0.950 . S
H1231 C1243 0.950 . S
C1232 H1224 0.950 . S
C1232 C1233 1.386 . S
C1232 C1234 1.391 . S
C1233 C1232 1.386 . S
C1233 C1237 1.393 . S
C1234 H1226 0.950 . S
C1234 C1232 1.391 . S
C1234 C1235 1.400 . S
C1235 C1234 1.400 . S
C1235 C1236 1.398 . S
C1235 C1241 1.491 . S
C1236 H1227 0.950 . S
C1236 C1235 1.398 . S
C1236 C1237 1.391 . S
C1237 H1225 0.950 . S
C1237 C1233 1.393 . S
C1237 C1236 1.391 . S
C1238 H1228 0.950 . S
C1238 C1239 1.386 . S
C1238 C1240 1.391 . S
C1239 C1238 1.386 . S
C1239 C1243 1.393 . S
C1240 H1229 0.950 . S
C1240 C1238 1.391 . S
C1240 C1241 1.400 . S
C1241 C1235 1.491 . S
C1241 C1240 1.400 . S
C1241 C1242 1.398 . S
C1242 H1230 0.950 . S
C1242 C1241 1.398 . S
C1242 C1243 1.391 . S
C1243 H1231 0.950 . S
C1243 C1239 1.393 . S
C1243 C1242 1.391 . S
H1244 C1252 0.950 . S
H1245 C1257 0.950 . S
H1246 C1254 0.950 . S
H1247 C1256 0.950 . S
H1248 C1258 0.950 . S
H1249 C1260 0.950 . S
H1250 C1262 0.950 . S
H1251 C1263 0.950 . S
C1252 H1244 0.950 . S
C1252 C1253 1.386 . S
C1252 C1254 1.391 . S
C1253 C1252 1.386 . S
C1253 C1257 1.393 . S
C1254 H1246 0.950 . S
C1254 C1252 1.391 . S
C1254 C1255 1.400 . S
C1255 C1254 1.400 . S
C1255 C1256 1.398 . S
C1255 C1261 1.491 . S
C1256 H1247 0.950 . S
C1256 C1255 1.398 . S
C1256 C1257 1.391 . S
C1257 H1245 0.950 . S
C1257 C1253 1.393 . S
C1257 C1256 1.391 . S
C1258 H1248 0.950 . S
C1258 C1259 1.386 . S
C1258 C1260 1.391 . S
C1259 C1258 1.386 . S
C1259 C1263 1.393 . S
C1260 H1249 0.950 . S
C1260 C1258 1.391 . S
C1260 C1261 1.400 . S
C1261 C1255 1.491 . S
C1261 C1260 1.400 . S
C1261 C1262 1.398 . S
C1262 H1250 0.950 . S
C1262 C1261 1.398 . S
C1262 C1263 1.391 . S
C1263 H1251 0.950 . S
C1263 C1259 1.393 . S
C1263 C1262 1.391 . S
H1264 C1272 0.950 . S
H1265 C1277 0.950 . S
H1266 C1274 0.950 . S
H1267 C1276 0.950 . S
H1268 C1278 0.950 . S
H1269 C1280 0.950 1_554 S
H1270 C1282 0.950 . S
H1271 C1283 0.950 . S
C1272 H1264 0.950 . S
C1272 C1273 1.386 . S
C1272 C1274 1.391 . S
C1273 C1272 1.386 . S
C1273 C1277 1.393 1_655 S
C1274 H1266 0.950 . S
C1274 C1272 1.391 . S
C1274 C1275 1.400 . S
C1275 C1274 1.400 . S
C1275 C1276 1.398 1_655 S
C1275 C1281 1.491 . S
C1276 H1267 0.950 . S
C1276 C1275 1.398 1_455 S
C1276 C1277 1.391 . S
C1277 H1265 0.950 . S
C1277 C1273 1.393 1_455 S
C1277 C1276 1.391 . S
C1278 H1268 0.950 . S
C1278 C1279 1.386 1_455 S
C1278 C1280 1.391 . S
C1279 C1278 1.386 1_655 S
C1279 C1283 1.393 . S
C1280 H1269 0.950 1_556 S
C1280 C1278 1.391 . S
C1280 C1281 1.400 1_456 S
C1281 C1275 1.491 . S
C1281 C1280 1.400 1_654 S
C1281 C1282 1.398 . S
C1282 H1270 0.950 . S
C1282 C1281 1.398 . S
C1282 C1283 1.391 1_554 S
C1283 H1271 0.950 . S
C1283 C1279 1.393 . S
C1283 C1282 1.391 1_556 S
H1284 C1292 0.950 . S
H1285 C1297 0.950 . S
H1286 C1294 0.950 . S
H1287 C1296 0.950 . S
H1288 C1298 0.950 . S
H1289 C1300 0.950 . S
H1290 C1302 0.950 . S
H1291 C1303 0.950 . S
C1292 H1284 0.950 . S
C1292 C1293 1.386 . S
C1292 C1294 1.391 . S
C1293 C1292 1.386 . S
C1293 C1297 1.393 . S
C1294 H1286 0.950 . S
C1294 C1292 1.391 . S
C1294 C1295 1.400 . S
C1295 C1294 1.400 . S
C1295 C1296 1.398 . S
C1295 C1301 1.491 . S
C1296 H1287 0.950 . S
C1296 C1295 1.398 . S
C1296 C1297 1.391 . S
C1297 H1285 0.950 . S
C1297 C1293 1.393 . S
C1297 C1296 1.391 . S
C1298 H1288 0.950 . S
C1298 C1299 1.386 . S
C1298 C1300 1.391 . S
C1299 C1298 1.386 . S
C1299 C1303 1.393 . S
C1300 H1289 0.950 . S
C1300 C1298 1.391 . S
C1300 C1301 1.400 . S
C1301 C1295 1.491 . S
C1301 C1300 1.400 . S
C1301 C1302 1.398 . S
C1302 H1290 0.950 . S
C1302 C1301 1.398 . S
C1302 C1303 1.391 . S
C1303 H1291 0.950 . S
C1303 C1299 1.393 . S
C1303 C1302 1.391 . S
H1304 C1312 0.950 . S
H1305 C1317 0.950 . S
H1306 C1314 0.950 . S
H1307 C1316 0.950 . S
H1308 C1318 0.950 . S
H1309 C1320 0.950 . S
H1310 C1322 0.950 . S
H1311 C1323 0.950 . S
C1312 H1304 0.950 . S
C1312 C1313 1.386 . S
C1312 C1314 1.391 . S
C1313 C1312 1.386 . S
C1313 C1317 1.393 . S
C1314 H1306 0.950 . S
C1314 C1312 1.391 . S
C1314 C1315 1.400 . S
C1315 C1314 1.400 . S
C1315 C1316 1.398 . S
C1315 C1321 1.491 . S
C1316 H1307 0.950 . S
C1316 C1315 1.398 . S
C1316 C1317 1.391 . S
C1317 H1305 0.950 . S
C1317 C1313 1.393 . S
C1317 C1316 1.391 . S
C1318 H1308 0.950 . S
C1318 C1319 1.386 . S
C1318 C1320 1.391 . S
C1319 C1318 1.386 . S
C1319 C1323 1.393 . S
C1320 H1309 0.950 . S
C1320 C1318 1.391 . S
C1320 C1321 1.400 . S
C1321 C1315 1.491 . S
C1321 C1320 1.400 . S
C1321 C1322 1.398 . S
C1322 H1310 0.950 . S
C1322 C1321 1.398 . S
C1322 C1323 1.391 . S
C1323 H1311 0.950 . S
C1323 C1319 1.393 . S
C1323 C1322 1.391 . S
H1324 C1332 0.950 . S
H1325 C1337 0.950 . S
H1326 C1334 0.950 . S
H1327 C1336 0.950 . S
H1328 C1338 0.950 . S
H1329 C1340 0.950 . S
H1330 C1342 0.950 . S
H1331 C1343 0.950 . S
C1332 H1324 0.950 . S
C1332 C1333 1.386 . S
C1332 C1334 1.391 . S
C1333 C1332 1.386 . S
C1333 C1337 1.393 . S
C1334 H1326 0.950 . S
C1334 C1332 1.391 . S
C1334 C1335 1.400 . S
C1335 C1334 1.400 . S
C1335 C1336 1.398 . S
C1335 C1341 1.491 . S
C1336 H1327 0.950 . S
C1336 C1335 1.398 . S
C1336 C1337 1.391 . S
C1337 H1325 0.950 . S
C1337 C1333 1.393 . S
C1337 C1336 1.391 . S
C1338 H1328 0.950 . S
C1338 C1339 1.386 . S
C1338 C1340 1.391 . S
C1339 C1338 1.386 . S
C1339 C1343 1.393 . S
C1340 H1329 0.950 . S
C1340 C1338 1.391 . S
C1340 C1341 1.400 . S
C1341 C1335 1.491 . S
C1341 C1340 1.400 . S
C1341 C1342 1.398 . S
C1342 H1330 0.950 . S
C1342 C1341 1.398 . S
C1342 C1343 1.391 . S
C1343 H1331 0.950 . S
C1343 C1339 1.393 . S
C1343 C1342 1.391 . S
H1344 C1352 0.950 . S
H1345 C1357 0.950 . S
H1346 C1354 0.950 . S
H1347 C1356 0.950 . S
H1348 C1358 0.950 . S
H1349 C1360 0.950 . S
H1350 C1362 0.950 . S
H1351 C1363 0.950 . S
C1352 H1344 0.950 . S
C1352 C1353 1.386 . S
C1352 C1354 1.391 . S
C1353 C1352 1.386 . S
C1353 C1357 1.393 . S
C1354 H1346 0.950 . S
C1354 C1352 1.391 . S
C1354 C1355 1.400 . S
C1355 C1354 1.400 . S
C1355 C1356 1.398 . S
C1355 C1361 1.491 . S
C1356 H1347 0.950 . S
C1356 C1355 1.398 . S
C1356 C1357 1.391 . S
C1357 H1345 0.950 . S
C1357 C1353 1.393 . S
C1357 C1356 1.391 . S
C1358 H1348 0.950 . S
C1358 C1359 1.386 . S
C1358 C1360 1.391 . S
C1359 C1358 1.386 . S
C1359 C1363 1.393 . S
C1360 H1349 0.950 . S
C1360 C1358 1.391 . S
C1360 C1361 1.400 . S
C1361 C1355 1.491 . S
C1361 C1360 1.400 . S
C1361 C1362 1.398 . S
C1362 H1350 0.950 . S
C1362 C1361 1.398 . S
C1362 C1363 1.391 . S
C1363 H1351 0.950 . S
C1363 C1359 1.393 . S
C1363 C1362 1.391 . S
H1364 C1372 0.950 . S
H1365 C1377 0.950 . S
H1366 C1374 0.950 . S
H1367 C1376 0.950 . S
H1368 C1378 0.950 . S
H1369 C1380 0.950 . S
H1370 C1382 0.950 . S
H1371 C1383 0.950 . S
C1372 H1364 0.950 . S
C1372 C1373 1.386 . S
C1372 C1374 1.391 . S
C1373 C1372 1.386 . S
C1373 C1377 1.393 . S
C1374 H1366 0.950 . S
C1374 C1372 1.391 . S
C1374 C1375 1.400 . S
C1375 C1374 1.400 . S
C1375 C1376 1.398 . S
C1375 C1381 1.491 . S
C1376 H1367 0.950 . S
C1376 C1375 1.398 . S
C1376 C1377 1.391 . S
C1377 H1365 0.950 . S
C1377 C1373 1.393 . S
C1377 C1376 1.391 . S
C1378 H1368 0.950 . S
C1378 C1379 1.386 . S
C1378 C1380 1.391 . S
C1379 C1378 1.386 . S
C1379 C1383 1.393 . S
C1380 H1369 0.950 . S
C1380 C1378 1.391 . S
C1380 C1381 1.400 . S
C1381 C1375 1.491 . S
C1381 C1380 1.400 . S
C1381 C1382 1.398 . S
C1382 H1370 0.950 . S
C1382 C1381 1.398 . S
C1382 C1383 1.391 . S
C1383 H1371 0.950 . S
C1383 C1379 1.393 . S
C1383 C1382 1.391 . S
H1384 C1392 0.950 . S
H1385 C1397 0.950 . S
H1386 C1394 0.950 . S
H1387 C1396 0.950 . S
H1388 C1398 0.950 . S
H1389 C1400 0.950 . S
H1390 C1402 0.950 . S
H1391 C1403 0.950 . S
C1392 H1384 0.950 . S
C1392 C1393 1.386 . S
C1392 C1394 1.391 . S
C1393 C1392 1.386 . S
C1393 C1397 1.393 . S
C1394 H1386 0.950 . S
C1394 C1392 1.391 . S
C1394 C1395 1.400 . S
C1395 C1394 1.400 . S
C1395 C1396 1.398 . S
C1395 C1401 1.491 1_565 S
C1396 H1387 0.950 . S
C1396 C1395 1.398 . S
C1396 C1397 1.391 . S
C1397 H1385 0.950 . S
C1397 C1393 1.393 . S
C1397 C1396 1.391 . S
C1398 H1388 0.950 . S
C1398 C1399 1.386 . S
C1398 C1400 1.391 . S
C1399 C1398 1.386 . S
C1399 C1403 1.393 . S
C1400 H1389 0.950 . S
C1400 C1398 1.391 . S
C1400 C1401 1.400 . S
C1401 C1395 1.491 1_545 S
C1401 C1400 1.400 . S
C1401 C1402 1.398 . S
C1402 H1390 0.950 . S
C1402 C1401 1.398 . S
C1402 C1403 1.391 . S
C1403 H1391 0.950 . S
C1403 C1399 1.393 . S
C1403 C1402 1.391 . S
H1404 C1412 0.950 . S
H1405 C1417 0.950 . S
H1406 C1414 0.950 . S
H1407 C1416 0.950 . S
H1408 C1418 0.950 . S
H1409 C1420 0.950 . S
H1410 C1422 0.950 . S
H1411 C1423 0.950 . S
C1412 H1404 0.950 . S
C1412 C1413 1.386 . S
C1412 C1414 1.391 1_556 S
C1413 C1412 1.386 . S
C1413 C1417 1.393 1_455 S
C1414 H1406 0.950 . S
C1414 C1412 1.391 1_554 S
C1414 C1415 1.400 . S
C1415 C1414 1.400 . S
C1415 C1416 1.398 1_454 S
C1415 C1421 1.491 1_545 S
C1416 H1407 0.950 . S
C1416 C1415 1.398 1_656 S
C1416 C1417 1.391 . S
C1417 H1405 0.950 . S
C1417 C1413 1.393 1_655 S
C1417 C1416 1.391 . S
C1418 H1408 0.950 . S
C1418 C1419 1.386 1_655 S
C1418 C1420 1.391 . S
C1419 C1418 1.386 1_455 S
C1419 C1423 1.393 . S
C1420 H1409 0.950 . S
C1420 C1418 1.391 . S
C1420 C1421 1.400 1_655 S
C1421 C1415 1.491 1_565 S
C1421 C1420 1.400 1_455 S
C1421 C1422 1.398 . S
C1422 H1410 0.950 . S
C1422 C1421 1.398 . S
C1422 C1423 1.391 . S
C1423 H1411 0.950 . S
C1423 C1419 1.393 . S
C1423 C1422 1.391 . S
H1424 C1432 0.950 . S
H1425 C1437 0.950 . S
H1426 C1434 0.950 . S
H1427 C1436 0.950 . S
H1428 C1438 0.950 . S
H1429 C1440 0.950 . S
H1430 C1442 0.950 . S
H1431 C1443 0.950 . S
C1432 H1424 0.950 . S
C1432 C1433 1.386 . S
C1432 C1434 1.391 . S
C1433 C1432 1.386 . S
C1433 C1437 1.393 . S
C1434 H1426 0.950 . S
C1434 C1432 1.391 . S
C1434 C1435 1.400 . S
C1435 C1434 1.400 . S
C1435 C1436 1.398 . S
C1435 C1441 1.491 . S
C1436 H1427 0.950 . S
C1436 C1435 1.398 . S
C1436 C1437 1.391 . S
C1437 H1425 0.950 . S
C1437 C1433 1.393 . S
C1437 C1436 1.391 . S
C1438 H1428 0.950 . S
C1438 C1439 1.386 . S
C1438 C1440 1.391 . S
C1439 C1438 1.386 . S
C1439 C1443 1.393 . S
C1440 H1429 0.950 . S
C1440 C1438 1.391 . S
C1440 C1441 1.400 . S
C1441 C1435 1.491 . S
C1441 C1440 1.400 . S
C1441 C1442 1.398 . S
C1442 H1430 0.950 . S
C1442 C1441 1.398 . S
C1442 C1443 1.391 . S
C1443 H1431 0.950 . S
C1443 C1439 1.393 . S
C1443 C1442 1.391 . S
H1444 C1452 0.950 . S
H1445 C1457 0.950 . S
H1446 C1454 0.950 . S
H1447 C1456 0.950 . S
H1448 C1458 0.950 . S
H1449 C1460 0.950 . S
H1450 C1462 0.950 . S
H1451 C1463 0.950 . S
C1452 H1444 0.950 . S
C1452 C1453 1.386 . S
C1452 C1454 1.391 . S
C1453 C1452 1.386 . S
C1453 C1457 1.393 . S
C1454 H1446 0.950 . S
C1454 C1452 1.391 . S
C1454 C1455 1.400 . S
C1455 C1454 1.400 . S
C1455 C1456 1.398 . S
C1455 C1461 1.491 . S
C1456 H1447 0.950 . S
C1456 C1455 1.398 . S
C1456 C1457 1.391 . S
C1457 H1445 0.950 . S
C1457 C1453 1.393 . S
C1457 C1456 1.391 . S
C1458 H1448 0.950 . S
C1458 C1459 1.386 . S
C1458 C1460 1.391 . S
C1459 C1458 1.386 . S
C1459 C1463 1.393 . S
C1460 H1449 0.950 . S
C1460 C1458 1.391 . S
C1460 C1461 1.400 . S
C1461 C1455 1.491 . S
C1461 C1460 1.400 . S
C1461 C1462 1.398 . S
C1462 H1450 0.950 . S
C1462 C1461 1.398 . S
C1462 C1463 1.391 . S
C1463 H1451 0.950 . S
C1463 C1459 1.393 . S
C1463 C1462 1.391 . S
H1464 C1472 0.950 . S
H1465 C1477 0.950 . S
H1466 C1474 0.950 . S
H1467 C1476 0.950 . S
H1468 C1478 0.950 . S
H1469 C1480 0.950 . S
H1470 C1482 0.950 . S
H1471 C1483 0.950 1_554 S
C1472 H1464 0.950 . S
C1472 C1473 1.386 . S
C1472 C1474 1.391 . S
C1473 C1472 1.386 . S
C1473 C1477 1.393 . S
C1474 H1466 0.950 . S
C1474 C1472 1.391 . S
C1474 C1475 1.400 . S
C1475 C1474 1.400 . S
C1475 C1476 1.398 . S
C1475 C1481 1.491 . S
C1476 H1467 0.950 . S
C1476 C1475 1.398 . S
C1476 C1477 1.391 . S
C1477 H1465 0.950 . S
C1477 C1473 1.393 . S
C1477 C1476 1.391 . S
C1478 H1468 0.950 . S
C1478 C1479 1.386 . S
C1478 C1480 1.391 . S
C1479 C1478 1.386 . S
C1479 C1483 1.393 . S
C1480 H1469 0.950 . S
C1480 C1478 1.391 . S
C1480 C1481 1.400 1_556 S
C1481 C1475 1.491 . S
C1481 C1480 1.400 1_554 S
C1481 C1482 1.398 . S
C1482 H1470 0.950 . S
C1482 C1481 1.398 . S
C1482 C1483 1.391 1_554 S
C1483 H1471 0.950 1_556 S
C1483 C1479 1.393 . S
C1483 C1482 1.391 1_556 S
H1484 C1492 0.950 . S
H1485 C1497 0.950 . S
H1486 C1494 0.950 . S
H1487 C1496 0.950 . S
H1488 C1498 0.950 . S
H1489 C1500 0.950 . S
H1490 C1502 0.950 . S
H1491 C1503 0.950 . S
C1492 H1484 0.950 . S
C1492 C1493 1.386 . S
C1492 C1494 1.391 . S
C1493 C1492 1.386 . S
C1493 C1497 1.393 . S
C1494 H1486 0.950 . S
C1494 C1492 1.391 . S
C1494 C1495 1.400 . S
C1495 C1494 1.400 . S
C1495 C1496 1.398 . S
C1495 C1501 1.491 . S
C1496 H1487 0.950 . S
C1496 C1495 1.398 . S
C1496 C1497 1.391 . S
C1497 H1485 0.950 . S
C1497 C1493 1.393 . S
C1497 C1496 1.391 . S
C1498 H1488 0.950 . S
C1498 C1499 1.386 . S
C1498 C1500 1.391 . S
C1499 C1498 1.386 . S
C1499 C1503 1.393 . S
C1500 H1489 0.950 . S
C1500 C1498 1.391 . S
C1500 C1501 1.400 . S
C1501 C1495 1.491 . S
C1501 C1500 1.400 . S
C1501 C1502 1.398 . S
C1502 H1490 0.950 . S
C1502 C1501 1.398 . S
C1502 C1503 1.391 . S
C1503 H1491 0.950 . S
C1503 C1499 1.393 . S
C1503 C1502 1.391 . S
H1504 C1512 0.950 . S
H1505 C1517 0.950 . S
H1506 C1514 0.950 . S
H1507 C1516 0.950 . S
H1508 C1518 0.950 . S
H1509 C1520 0.950 . S
H1510 C1522 0.950 . S
H1511 C1523 0.950 . S
C1512 H1504 0.950 . S
C1512 C1513 1.386 . S
C1512 C1514 1.391 . S
C1513 C1512 1.386 . S
C1513 C1517 1.393 . S
C1514 H1506 0.950 . S
C1514 C1512 1.391 . S
C1514 C1515 1.400 . S
C1515 C1514 1.400 . S
C1515 C1516 1.398 . S
C1515 C1521 1.491 . S
C1516 H1507 0.950 . S
C1516 C1515 1.398 . S
C1516 C1517 1.391 . S
C1517 H1505 0.950 . S
C1517 C1513 1.393 . S
C1517 C1516 1.391 . S
C1518 H1508 0.950 . S
C1518 C1519 1.386 . S
C1518 C1520 1.391 . S
C1519 C1518 1.386 . S
C1519 C1523 1.393 . S
C1520 H1509 0.950 . S
C1520 C1518 1.391 . S
C1520 C1521 1.400 . S
C1521 C1515 1.491 . S
C1521 C1520 1.400 . S
C1521 C1522 1.398 . S
C1522 H1510 0.950 . S
C1522 C1521 1.398 . S
C1522 C1523 1.391 . S
C1523 H1511 0.950 . S
C1523 C1519 1.393 . S
C1523 C1522 1.391 . S
H1524 C1532 0.950 . S
H1525 C1537 0.950 . S
H1526 C1534 0.950 . S
H1527 C1536 0.950 . S
H1528 C1538 0.950 . S
H1529 C1540 0.950 . S
H1530 C1542 0.950 . S
H1531 C1543 0.950 . S
C1532 H1524 0.950 . S
C1532 C1533 1.386 . S
C1532 C1534 1.391 . S
C1533 C1532 1.386 . S
C1533 C1537 1.393 . S
C1534 H1526 0.950 . S
C1534 C1532 1.391 . S
C1534 C1535 1.400 . S
C1535 C1534 1.400 . S
C1535 C1536 1.398 . S
C1535 C1541 1.491 . S
C1536 H1527 0.950 . S
C1536 C1535 1.398 . S
C1536 C1537 1.391 . S
C1537 H1525 0.950 . S
C1537 C1533 1.393 . S
C1537 C1536 1.391 . S
C1538 H1528 0.950 . S
C1538 C1539 1.386 . S
C1538 C1540 1.391 . S
C1539 C1538 1.386 . S
C1539 C1543 1.393 . S
C1540 H1529 0.950 . S
C1540 C1538 1.391 . S
C1540 C1541 1.400 . S
C1541 C1535 1.491 . S
C1541 C1540 1.400 . S
C1541 C1542 1.398 . S
C1542 H1530 0.950 . S
C1542 C1541 1.398 . S
C1542 C1543 1.391 . S
C1543 H1531 0.950 . S
C1543 C1539 1.393 . S
C1543 C1542 1.391 . S
H1544 C1552 0.950 . S
H1545 C1557 0.950 . S
H1546 C1554 0.950 . S
H1547 C1556 0.950 1_545 S
H1548 C1558 0.950 1_554 S
H1549 C1560 0.950 . S
H1550 C1562 0.950 1_565 S
H1551 C1563 0.950 . S
C1552 H1544 0.950 . S
C1552 C1553 1.386 . S
C1552 C1554 1.391 . S
C1553 C1552 1.386 . S
C1553 C1557 1.393 . S
C1554 H1546 0.950 . S
C1554 C1552 1.391 . S
C1554 C1555 1.400 . S
C1555 C1554 1.400 . S
C1555 C1556 1.398 . S
C1555 C1561 1.491 1_565 S
C1556 H1547 0.950 1_565 S
C1556 C1555 1.398 . S
C1556 C1557 1.391 . S
C1557 H1545 0.950 . S
C1557 C1553 1.393 . S
C1557 C1556 1.391 . S
C1558 H1548 0.950 1_556 S
C1558 C1559 1.386 . S
C1558 C1560 1.391 1_556 S
C1559 C1558 1.386 . S
C1559 C1563 1.393 . S
C1560 H1549 0.950 . S
C1560 C1558 1.391 1_554 S
C1560 C1561 1.400 . S
C1561 C1555 1.491 1_545 S
C1561 C1560 1.400 . S
C1561 C1562 1.398 1_554 S
C1562 H1550 0.950 1_545 S
C1562 C1561 1.398 1_556 S
C1562 C1563 1.391 . S
C1563 H1551 0.950 . S
C1563 C1559 1.393 . S
C1563 C1562 1.391 . S
H1564 C1572 0.950 . S
H1565 C1577 0.950 . S
H1566 C1574 0.950 . S
H1567 C1576 0.950 1_565 S
H1568 C1578 0.950 . S
H1569 C1580 0.950 . S
H1570 C1582 0.950 1_545 S
H1571 C1583 0.950 . S
C1572 H1564 0.950 . S
C1572 C1573 1.386 1_455 S
C1572 C1574 1.391 . S
C1573 C1572 1.386 1_655 S
C1573 C1577 1.393 . S
C1574 H1566 0.950 . S
C1574 C1572 1.391 . S
C1574 C1575 1.400 1_455 S
C1575 C1574 1.400 1_655 S
C1575 C1576 1.398 . S
C1575 C1581 1.491 1_545 S
C1576 H1567 0.950 1_545 S
C1576 C1575 1.398 . S
C1576 C1577 1.391 . S
C1577 H1565 0.950 . S
C1577 C1573 1.393 . S
C1577 C1576 1.391 . S
C1578 H1568 0.950 . S
C1578 C1579 1.386 . S
C1578 C1580 1.391 . S
C1579 C1578 1.386 . S
C1579 C1583 1.393 1_655 S
C1580 H1569 0.950 . S
C1580 C1578 1.391 . S
C1580 C1581 1.400 . S
C1581 C1575 1.491 1_565 S
C1581 C1580 1.400 . S
C1581 C1582 1.398 1_655 S
C1582 H1570 0.950 1_565 S
C1582 C1581 1.398 1_455 S
C1582 C1583 1.391 . S
C1583 H1571 0.950 . S
C1583 C1579 1.393 1_455 S
C1583 C1582 1.391 . S
C953 C564 1.804 . S
C959 C33 1.805 . S
C973 C859 1.807 . S
C979 C92 1.808 . S
C993 C151 1.789 . S
C999 C505 1.789 . S
C1013 C210 1.801 1_556 S
C1019 C918 1.802 . S
C1033 C269 1.801 . S
C1039 C623 1.800 1_556 S
C1053 C800 1.787 . S
C1059 C328 1.787 . S
C1073 C682 1.795 . S
C1079 C387 1.794 . S
C1093 C446 1.807 . S
C1099 C741 1.807 . S
C1113 C288 1.514 . S
C1119 C229 1.512 . S
C1133 C760 1.513 . S
C1139 C524 1.512 . S
C1153 C406 1.519 . S
C1159 C111 1.516 . S
C1173 C583 1.518 . S
C1179 C819 1.521 . S
C1193 C52 1.512 . S
C1199 C347 1.512 . S
C1213 C937 1.517 . S
C1219 C642 1.520 . S
C1233 C465 1.519 . S
C1239 C170 1.520 . S
C1253 C701 1.520 . S
C1259 C878 1.517 . S
C1273 C3 0.490 . S
C1279 C239 0.489 . S
C1293 C298 0.489 . S
C1299 C62 0.494 . S
C1313 C357 0.491 . S
C1319 C121 0.489 . S
C1333 C180 0.530 . S
C1339 C416 0.522 . S
C1353 C593 0.522 . S
C1359 C475 0.510 . S
C1373 C652 0.506 . S
C1379 C534 0.518 . S
C1393 C829 0.489 . S
C1399 C711 0.492 . S
C1413 C888 0.489 . S
C1419 C770 0.495 . S
C1433 C241 1.977 . S
C1439 C5 1.982 . S
C1453 C300 1.977 . S
C1459 C64 1.980 . S
C1473 C359 1.985 . S
C1479 C123 1.979 . S
C1493 C182 1.977 . S
C1499 C418 1.978 . S
C1513 C477 1.978 . S
C1519 C595 1.983 . S
C1533 C654 1.986 . S
C1539 C536 1.982 . S
C1553 C831 1.979 . S
C1559 C713 1.984 . S
C1573 C890 1.977 . S
C1579 C772 1.979 . S
