# Generated by pormake.
# Topology tzs, (4)-cn, num edge types: 1
# Building blocks:
#     Node 0, Type 0, BuildingBlock: TATPOV_clean_sbu_0, # of connection points: 4
#     Node 1, Type 0, BuildingBlock: TATPOV_clean_sbu_0, # of connection points: 4
#     Node 2, Type 0, BuildingBlock: TATPOV_clean_sbu_0, # of connection points: 4
#     Node 3, Type 0, BuildingBlock: TATPOV_clean_sbu_0, # of connection points: 4
#     Node 4, Type 0, BuildingBlock: TATPOV_clean_sbu_0, # of connection points: 4
#     Node 5, Type 0, BuildingBlock: TATPOV_clean_sbu_0, # of connection points: 4
#     Node 6, Type 0, BuildingBlock: TATPOV_clean_sbu_0, # of connection points: 4
#     Node 7, Type 0, BuildingBlock: TATPOV_clean_sbu_0, # of connection points: 4
#     Node 8, Type 0, BuildingBlock: TATPOV_clean_sbu_0, # of connection points: 4
#     Node 9, Type 0, BuildingBlock: TATPOV_clean_sbu_0, # of connection points: 4
#     Node 10, Type 0, BuildingBlock: TATPOV_clean_sbu_0, # of connection points: 4
#     Node 11, Type 0, BuildingBlock: TATPOV_clean_sbu_0, # of connection points: 4
#     Node 12, Type 0, BuildingBlock: TATPOV_clean_sbu_0, # of connection points: 4
#     Node 13, Type 0, BuildingBlock: TATPOV_clean_sbu_0, # of connection points: 4
#     Node 14, Type 0, BuildingBlock: TATPOV_clean_sbu_0, # of connection points: 4
#     Node 15, Type 0, BuildingBlock: TATPOV_clean_sbu_0, # of connection points: 4
#     Edge 16, Type (0, 0), BuildingBlock: KIFKEQ_clean_linker_1, # of connection points: 2
#     Edge 17, Type (0, 0), BuildingBlock: KIFKEQ_clean_linker_1, # of connection points: 2
#     Edge 18, Type (0, 0), BuildingBlock: KIFKEQ_clean_linker_1, # of connection points: 2
#     Edge 19, Type (0, 0), BuildingBlock: KIFKEQ_clean_linker_1, # of connection points: 2
#     Edge 20, Type (0, 0), BuildingBlock: KIFKEQ_clean_linker_1, # of connection points: 2
#     Edge 21, Type (0, 0), BuildingBlock: KIFKEQ_clean_linker_1, # of connection points: 2
#     Edge 22, Type (0, 0), BuildingBlock: KIFKEQ_clean_linker_1, # of connection points: 2
#     Edge 23, Type (0, 0), BuildingBlock: KIFKEQ_clean_linker_1, # of connection points: 2
#     Edge 24, Type (0, 0), BuildingBlock: KIFKEQ_clean_linker_1, # of connection points: 2
#     Edge 25, Type (0, 0), BuildingBlock: KIFKEQ_clean_linker_1, # of connection points: 2
#     Edge 26, Type (0, 0), BuildingBlock: KIFKEQ_clean_linker_1, # of connection points: 2
#     Edge 27, Type (0, 0), BuildingBlock: KIFKEQ_clean_linker_1, # of connection points: 2
#     Edge 28, Type (0, 0), BuildingBlock: KIFKEQ_clean_linker_1, # of connection points: 2
#     Edge 29, Type (0, 0), BuildingBlock: KIFKEQ_clean_linker_1, # of connection points: 2
#     Edge 30, Type (0, 0), BuildingBlock: KIFKEQ_clean_linker_1, # of connection points: 2
#     Edge 31, Type (0, 0), BuildingBlock: KIFKEQ_clean_linker_1, # of connection points: 2
#     Edge 32, Type (0, 0), BuildingBlock: KIFKEQ_clean_linker_1, # of connection points: 2
#     Edge 33, Type (0, 0), BuildingBlock: KIFKEQ_clean_linker_1, # of connection points: 2
#     Edge 34, Type (0, 0), BuildingBlock: KIFKEQ_clean_linker_1, # of connection points: 2
#     Edge 35, Type (0, 0), BuildingBlock: KIFKEQ_clean_linker_1, # of connection points: 2
#     Edge 36, Type (0, 0), BuildingBlock: KIFKEQ_clean_linker_1, # of connection points: 2
#     Edge 37, Type (0, 0), BuildingBlock: KIFKEQ_clean_linker_1, # of connection points: 2
#     Edge 38, Type (0, 0), BuildingBlock: KIFKEQ_clean_linker_1, # of connection points: 2
#     Edge 39, Type (0, 0), BuildingBlock: KIFKEQ_clean_linker_1, # of connection points: 2
#     Edge 40, Type (0, 0), BuildingBlock: KIFKEQ_clean_linker_1, # of connection points: 2
#     Edge 41, Type (0, 0), BuildingBlock: KIFKEQ_clean_linker_1, # of connection points: 2
#     Edge 42, Type (0, 0), BuildingBlock: KIFKEQ_clean_linker_1, # of connection points: 2
#     Edge 43, Type (0, 0), BuildingBlock: KIFKEQ_clean_linker_1, # of connection points: 2
#     Edge 44, Type (0, 0), BuildingBlock: KIFKEQ_clean_linker_1, # of connection points: 2
#     Edge 45, Type (0, 0), BuildingBlock: KIFKEQ_clean_linker_1, # of connection points: 2
#     Edge 46, Type (0, 0), BuildingBlock: KIFKEQ_clean_linker_1, # of connection points: 2
#     Edge 47, Type (0, 0), BuildingBlock: KIFKEQ_clean_linker_1, # of connection points: 2
# Relax obj value: 0.049
# Max RMSD: 0.075
# Mean RMSD: 0.075
data_MOF--net-tzs--node1-TATPOV_clean_sbu_0--edge1-KIFKEQ_clean_linker_1
_symmetry_space_group_name_H-M    P1
_symmetry_Int_Tables_number       1
_symmetry_cell_setting            triclinic
loop_
_symmetry_equiv_pos_as_xyz
'x, y, z'
_cell_length_a     48.670953
_cell_length_b     48.743863
_cell_length_c     42.173098
_cell_angle_alpha  89.999812
_cell_angle_beta   90.023137
_cell_angle_gamma 90.001123
loop_
_atom_site_label
_atom_site_type_symbol
_atom_site_fract_x
_atom_site_fract_y
_atom_site_fract_z
_atom_type_partial_charge
Zn0 Zn 0.08777 0.34326 0.12084 0.0
Zn1 Zn 0.12844 0.3162 0.15011 0.0
O2 O 0.09319 0.30272 0.17287 0.0
O3 O 0.0596 0.32299 0.14675 0.0
O4 O 0.15891 0.29334 0.16846 0.0
O5 O 0.09886 0.32852 0.07831 0.0
O6 O 0.13407 0.30926 0.1023 0.0
C7 C 0.0676 0.30702 0.16851 0.0
C8 C 0.12679 0.37803 0.15552 0.0
O9 O 0.13807 0.3553 0.16271 0.0
O10 O 0.10556 0.37839 0.13801 0.0
C11 C 0.16345 0.29027 0.1979 0.0
O12 O 0.14733 0.30248 0.21852 0.0
C13 C 0.12087 0.31478 0.07702 0.0
Zn14 Zn 0.62117 0.08586 0.16582 0.0
Zn15 Zn 0.64877 0.12008 0.20406 0.0
O16 O 0.65806 0.08176 0.22179 0.0
O17 O 0.63706 0.05348 0.18894 0.0
O18 O 0.67212 0.14514 0.23061 0.0
O19 O 0.64125 0.09991 0.12782 0.0
O20 O 0.66214 0.12977 0.15875 0.0
C21 C 0.65217 0.05749 0.2129 0.0
C22 C 0.58626 0.12215 0.20321 0.0
O23 O 0.60905 0.13068 0.21436 0.0
O24 O 0.58597 0.10386 0.18181 0.0
C25 C 0.67032 0.17104 0.22783 0.0
O26 O 0.65195 0.18141 0.20839 0.0
C27 C 0.65789 0.11958 0.13136 0.0
Zn28 Zn 0.8651 0.59414 0.14252 0.0
Zn29 Zn 0.84038 0.62867 0.1816 0.0
O30 O 0.88023 0.63613 0.19396 0.0
O31 O 0.90124 0.60958 0.15933 0.0
O32 O 0.81777 0.65477 0.2078 0.0
O33 O 0.84725 0.61037 0.10413 0.0
O34 O 0.83126 0.64214 0.13622 0.0
C35 C 0.90231 0.62675 0.18191 0.0
C36 C 0.8333 0.56568 0.18809 0.0
O37 O 0.82834 0.59014 0.19727 0.0
O38 O 0.84824 0.56159 0.16401 0.0
C39 C 0.79179 0.65206 0.20724 0.0
O40 O 0.78104 0.63176 0.1909 0.0
C41 C 0.83443 0.63263 0.10833 0.0
Zn42 Zn 0.36295 0.88854 0.13633 0.0
Zn43 Zn 0.32985 0.85096 0.16323 0.0
O44 O 0.31731 0.88751 0.18328 0.0
O45 O 0.34322 0.91859 0.15982 0.0
O46 O 0.30334 0.82365 0.18155 0.0
O47 O 0.34883 0.87834 0.09332 0.0
O48 O 0.32354 0.8459 0.11509 0.0
C49 C 0.32428 0.91244 0.17909 0.0
C50 C 0.39175 0.84779 0.17454 0.0
O51 O 0.36759 0.8387 0.17957 0.0
O52 O 0.39529 0.86837 0.15658 0.0
C53 C 0.30734 0.79799 0.17884 0.0
O54 O 0.3297 0.78922 0.16465 0.0
C55 C 0.33196 0.85875 0.09066 0.0
Zn56 Zn 0.11872 0.57941 0.3237 0.0
Zn57 Zn 0.14642 0.61258 0.28453 0.0
O58 O 0.10678 0.62336 0.27445 0.0
O59 O 0.08366 0.59805 0.30849 0.0
O60 O 0.1693 0.63851 0.25842 0.0
O61 O 0.13905 0.59328 0.36176 0.0
O62 O 0.1591 0.62283 0.32983 0.0
C63 C 0.08402 0.61583 0.28653 0.0
C64 C 0.14884 0.54994 0.27619 0.0
O65 O 0.15577 0.57397 0.26724 0.0
O66 O 0.13343 0.5468 0.30008 0.0
C67 C 0.16908 0.66359 0.26671 0.0
O68 O 0.1531 0.67117 0.29024 0.0
C69 C 0.15516 0.61329 0.35755 0.0
Zn70 Zn 0.36955 0.0958 0.35602 0.0
Zn71 Zn 0.34511 0.1356 0.32199 0.0
O72 O 0.32785 0.09948 0.30583 0.0
O73 O 0.34651 0.06684 0.33488 0.0
O74 O 0.32311 0.16487 0.29977 0.0
O75 O 0.35606 0.11216 0.39665 0.0
O76 O 0.33935 0.14658 0.36886 0.0
C77 C 0.33012 0.07422 0.31322 0.0
C78 C 0.4065 0.12774 0.31504 0.0
O79 O 0.38468 0.14017 0.30653 0.0
O80 O 0.4054 0.10891 0.33581 0.0
C81 C 0.31262 0.16174 0.2724 0.0
O82 O 0.31748 0.13902 0.25662 0.0
C83 C 0.34397 0.13508 0.39545 0.0
Zn84 Zn 0.89364 0.36689 0.35804 0.0
Zn85 Zn 0.85272 0.33787 0.33075 0.0
O86 O 0.88827 0.32154 0.31155 0.0
O87 O 0.92188 0.34392 0.33522 0.0
O88 O 0.82277 0.31442 0.3119 0.0
O89 O 0.8811 0.35496 0.40131 0.0
O90 O 0.84589 0.33419 0.37894 0.0
C91 C 0.91386 0.32577 0.31586 0.0
C92 C 0.85581 0.39932 0.31907 0.0
O93 O 0.84436 0.37623 0.31405 0.0
O94 O 0.87674 0.40082 0.33696 0.0
C95 C 0.81639 0.29174 0.32485 0.0
O96 O 0.82985 0.28372 0.35022 0.0
C97 C 0.85906 0.34136 0.40368 0.0
Zn98 Zn 0.58439 0.85122 0.35947 0.0
Zn99 Zn 0.61655 0.82019 0.32314 0.0
O100 O 0.62947 0.85825 0.31 0.0
O101 O 0.60683 0.88407 0.34408 0.0
O102 O 0.64132 0.7944 0.29905 0.0
O103 O 0.59571 0.83188 0.39931 0.0
O104 O 0.62669 0.81132 0.36974 0.0
C105 C 0.62421 0.88168 0.32185 0.0
C106 C 0.55377 0.82153 0.31277 0.0
O107 O 0.5775 0.81213 0.30585 0.0
O108 O 0.55109 0.83865 0.33513 0.0
C109 C 0.66636 0.79268 0.30748 0.0
O110 O 0.67524 0.80831 0.33071 0.0
C111 C 0.61649 0.81647 0.3969 0.0
Zn112 Zn 0.91429 0.64794 0.86249 0.0
Zn113 Zn 0.88063 0.68011 0.82856 0.0
O114 O 0.86892 0.64206 0.81368 0.0
O115 O 0.89271 0.61505 0.84541 0.0
O116 O 0.85562 0.70551 0.80464 0.0
O117 O 0.902 0.66621 0.9029 0.0
O118 O 0.87054 0.68803 0.87514 0.0
C119 C 0.87496 0.61817 0.82368 0.0
C120 C 0.94321 0.68185 0.81794 0.0
O121 O 0.91907 0.69083 0.81247 0.0
O122 O 0.94684 0.66303 0.83823 0.0
C123 C 0.83045 0.70742 0.81235 0.0
O124 O 0.82102 0.69224 0.83568 0.0
C125 C 0.88131 0.68191 0.90172 0.0
Zn126 Zn 0.39812 0.8889 0.83669 0.0
Zn127 Zn 0.36322 0.86354 0.7977 0.0
O128 O 0.40101 0.85009 0.78189 0.0
O129 O 0.4297 0.8712 0.81411 0.0
O130 O 0.33632 0.84296 0.77038 0.0
O131 O 0.3823 0.86992 0.87444 0.0
O132 O 0.35092 0.85208 0.84292 0.0
C133 C 0.42547 0.85526 0.79093 0.0
C134 C 0.36635 0.9261 0.79788 0.0
O135 O 0.35701 0.9039 0.78611 0.0
O136 O 0.3832 0.92531 0.82078 0.0
C137 C 0.33297 0.8175 0.77561 0.0
O138 O 0.3477 0.80561 0.79783 0.0
C139 C 0.36108 0.85537 0.8705 0.0
Zn140 Zn 0.12521 0.40861 0.83072 0.0
Zn141 Zn 0.15052 0.37278 0.79286 0.0
O142 O 0.16368 0.41067 0.77696 0.0
O143 O 0.14334 0.44027 0.80859 0.0
O144 O 0.17405 0.3465 0.768 0.0
O145 O 0.14213 0.39282 0.87 0.0
O146 O 0.15884 0.36071 0.83888 0.0
C147 C 0.15901 0.43537 0.78533 0.0
C148 C 0.08869 0.37522 0.79091 0.0
O149 O 0.11086 0.36541 0.77955 0.0
O150 O 0.08953 0.39283 0.81306 0.0
C151 C 0.17636 0.32168 0.77686 0.0
O152 O 0.1614 0.31287 0.8007 0.0
C153 C 0.15514 0.37059 0.86649 0.0
Zn154 Zn 0.62305 0.12522 0.86983 0.0
Zn155 Zn 0.65992 0.15733 0.83963 0.0
O156 O 0.62268 0.17299 0.82514 0.0
O157 O 0.59232 0.14692 0.84963 0.0
O158 O 0.68738 0.18205 0.81808 0.0
O159 O 0.63721 0.13821 0.9117 0.0
O160 O 0.66975 0.16157 0.88729 0.0
C161 C 0.59782 0.16671 0.83125 0.0
C162 C 0.65843 0.0956 0.82644 0.0
O163 O 0.66746 0.11951 0.82017 0.0
O164 O 0.64025 0.0922 0.8476 0.0
C165 C 0.6923 0.20574 0.82936 0.0
O166 O 0.67918 0.21376 0.85495 0.0
C167 C 0.65816 0.1535 0.91272 0.0
Zn168 Zn 0.86855 0.42075 0.65494 0.0
Zn169 Zn 0.84324 0.38511 0.69308 0.0
O170 O 0.83438 0.42325 0.7121 0.0
O171 O 0.8531 0.45278 0.67894 0.0
O172 O 0.82073 0.35936 0.71983 0.0
O173 O 0.84855 0.40672 0.61685 0.0
O174 O 0.83071 0.37487 0.64759 0.0
C175 C 0.83939 0.4479 0.70376 0.0
C176 C 0.90525 0.384 0.69008 0.0
O177 O 0.88306 0.37475 0.70195 0.0
O178 O 0.90446 0.40294 0.66944 0.0
C179 C 0.82441 0.33357 0.71844 0.0
O180 O 0.84383 0.32383 0.69997 0.0
C181 C 0.83385 0.38555 0.62025 0.0
Zn182 Zn 0.63504 0.90586 0.63859 0.0
Zn183 Zn 0.66061 0.86867 0.67511 0.0
O184 O 0.62116 0.85871 0.68481 0.0
O185 O 0.5992 0.88864 0.65498 0.0
O186 O 0.68296 0.84194 0.70047 0.0
O187 O 0.65293 0.89052 0.59935 0.0
O188 O 0.67087 0.8582 0.62932 0.0
C189 C 0.59877 0.86878 0.67448 0.0
C190 C 0.66678 0.93129 0.68679 0.0
O191 O 0.67095 0.90631 0.69434 0.0
O192 O 0.65274 0.93716 0.66246 0.0
C193 C 0.70877 0.84552 0.70237 0.0
O194 O 0.71982 0.86691 0.68833 0.0
C195 C 0.66677 0.86867 0.60207 0.0
Zn196 Zn 0.11246 0.63498 0.61711 0.0
Zn197 Zn 0.15302 0.66306 0.64498 0.0
O198 O 0.16133 0.62392 0.6594 0.0
O199 O 0.1296 0.59994 0.63459 0.0
O200 O 0.18342 0.68498 0.66493 0.0
O201 O 0.12363 0.64972 0.57463 0.0
O202 O 0.15946 0.66934 0.5971 0.0
C203 C 0.15031 0.60092 0.65282 0.0
C204 C 0.09223 0.67337 0.66257 0.0
O205 O 0.11776 0.6786 0.6658 0.0
O206 O 0.08441 0.65544 0.64281 0.0
C207 C 0.18199 0.71095 0.66698 0.0
O208 O 0.16011 0.7236 0.65606 0.0
C209 C 0.14558 0.66346 0.57241 0.0
Zn210 Zn 0.41539 0.14391 0.65322 0.0
Zn211 Zn 0.37414 0.16841 0.68466 0.0
O212 O 0.40882 0.18413 0.70634 0.0
O213 O 0.44263 0.16571 0.67878 0.0
O214 O 0.34259 0.18833 0.70492 0.0
O215 O 0.40241 0.15921 0.61176 0.0
O216 O 0.36719 0.17686 0.63735 0.0
C217 C 0.43442 0.1813 0.70081 0.0
C218 C 0.38004 0.10648 0.68871 0.0
O219 O 0.36779 0.12846 0.69681 0.0
O220 O 0.40043 0.10745 0.66999 0.0
C221 C 0.34113 0.21424 0.7021 0.0
O222 O 0.36108 0.22734 0.68756 0.0
C223 C 0.38013 0.17255 0.61159 0.0
H224 H 0.29853 0.21107 0.29872 0.0
H225 H 0.28202 0.15883 0.21813 0.0
H226 H 0.26382 0.24335 0.28024 0.0
H227 H 0.24687 0.19077 0.20008 0.0
H228 H 0.2023 0.26526 0.16121 0.0
H229 H 0.23994 0.23595 0.17839 0.0
H230 H 0.21431 0.24585 0.27582 0.0
H231 H 0.17699 0.27578 0.25868 0.0
C232 C 0.28757 0.20651 0.277 0.0
C233 C 0.29301 0.18232 0.25994 0.0
C234 C 0.26752 0.22493 0.26654 0.0
C235 C 0.25241 0.21958 0.2388 0.0
C236 C 0.25832 0.1957 0.22136 0.0
C237 C 0.27841 0.17731 0.23178 0.0
C238 C 0.20471 0.26127 0.18633 0.0
C239 C 0.18657 0.27281 0.20858 0.0
C240 C 0.22624 0.24434 0.19615 0.0
C241 C 0.23012 0.23845 0.22847 0.0
C242 C 0.21214 0.25024 0.25077 0.0
C243 C 0.19063 0.26726 0.24094 0.0
H244 H 0.79368 0.24574 0.35084 0.0
H245 H 0.78835 0.29909 0.26924 0.0
H246 H 0.75693 0.21742 0.32934 0.0
H247 H 0.75215 0.27027 0.24722 0.0
H248 H 0.67099 0.22715 0.22933 0.0
H249 H 0.70509 0.25683 0.25421 0.0
H250 H 0.74912 0.18539 0.28746 0.0
H251 H 0.71466 0.15583 0.26347 0.0
C252 C 0.78476 0.25136 0.32822 0.0
C253 C 0.794 0.27463 0.31171 0.0
C254 C 0.76376 0.23503 0.31582 0.0
C255 C 0.7516 0.24149 0.28649 0.0
C256 C 0.76075 0.2649 0.27008 0.0
C257 C 0.78165 0.28133 0.2826 0.0
C258 C 0.68784 0.2178 0.24217 0.0
C259 C 0.69012 0.18912 0.24437 0.0
C260 C 0.7075 0.23481 0.25624 0.0
C261 C 0.72996 0.22352 0.27272 0.0
C262 C 0.73193 0.19483 0.27534 0.0
C263 C 0.71221 0.17784 0.26142 0.0
H264 H 0.73628 0.64909 0.21581 0.0
H265 H 0.80648 0.70096 0.23423 0.0
H266 H 0.70628 0.68301 0.24019 0.0
H267 H 0.77637 0.73535 0.25767 0.0
H268 H 0.71819 0.77865 0.32609 0.0
H269 H 0.7484 0.7444 0.30277 0.0
H270 H 0.68737 0.72744 0.2309 0.0
H271 H 0.65676 0.7611 0.25494 0.0
C272 C 0.74531 0.66778 0.22499 0.0
C273 C 0.77377 0.67231 0.2231 0.0
C274 C 0.72806 0.68735 0.23876 0.0
C275 C 0.73883 0.71204 0.25076 0.0
C276 C 0.76737 0.71644 0.24906 0.0
C277 C 0.78465 0.69676 0.2355 0.0
C278 C 0.71123 0.76766 0.30526 0.0
C279 C 0.68504 0.77257 0.29241 0.0
C280 C 0.72863 0.74809 0.29178 0.0
C281 C 0.72036 0.73308 0.26494 0.0
C282 C 0.69425 0.73825 0.25187 0.0
C283 C 0.67675 0.7577 0.26552 0.0
H284 H 0.25572 0.80922 0.20059 0.0
H285 H 0.31205 0.74225 0.1839 0.0
H286 H 0.22137 0.77693 0.21961 0.0
H287 H 0.27801 0.70996 0.204 0.0
H288 H 0.20212 0.65629 0.21477 0.0
H289 H 0.23475 0.6889 0.1922 0.0
H290 H 0.21226 0.74824 0.26382 0.0
H291 H 0.17913 0.7161 0.28557 0.0
C292 C 0.26085 0.78761 0.20121 0.0
C293 C 0.28665 0.77831 0.19081 0.0
C294 C 0.24118 0.76907 0.21225 0.0
C295 C 0.2469 0.74081 0.21345 0.0
C296 C 0.27272 0.73152 0.20296 0.0
C297 C 0.29233 0.75006 0.19166 0.0
C298 C 0.20403 0.67638 0.22551 0.0
C299 C 0.18802 0.68361 0.25194 0.0
C300 C 0.22288 0.69502 0.21273 0.0
C301 C 0.22623 0.72121 0.22623 0.0
C302 C 0.20996 0.72845 0.25247 0.0
C303 C 0.19101 0.70993 0.26507 0.0
H304 H 0.69343 0.79621 0.72772 0.0
H305 H 0.76366 0.84932 0.71493 0.0
H306 H 0.72263 0.76242 0.75375 0.0
H307 H 0.79269 0.81591 0.74177 0.0
H308 H 0.84208 0.73833 0.76 0.0
H309 H 0.81234 0.77133 0.7335 0.0
H310 H 0.74819 0.75469 0.80168 0.0
H311 H 0.77765 0.7211 0.82763 0.0
C312 C 0.71506 0.80077 0.7307 0.0
C313 C 0.72624 0.82542 0.71919 0.0
C314 C 0.73178 0.78145 0.74576 0.0
C315 C 0.76003 0.78641 0.74979 0.0
C316 C 0.77112 0.81122 0.73857 0.0
C317 C 0.75443 0.83047 0.72337 0.0
C318 C 0.8216 0.74166 0.76929 0.0
C319 C 0.81223 0.72711 0.79593 0.0
C320 C 0.80461 0.76072 0.75421 0.0
C321 C 0.77791 0.76577 0.76554 0.0
C322 C 0.7685 0.75106 0.79208 0.0
C323 C 0.78545 0.73189 0.80706 0.0
H324 H 0.18323 0.76567 0.68117 0.0
H325 H 0.23215 0.6918 0.68586 0.0
H326 H 0.22023 0.79128 0.70646 0.0
H327 H 0.26945 0.71754 0.71024 0.0
H328 H 0.31663 0.76477 0.7863 0.0
H329 H 0.28053 0.73933 0.75938 0.0
H330 H 0.2658 0.80875 0.6979 0.0
H331 H 0.30145 0.83454 0.72555 0.0
C332 C 0.20196 0.75494 0.68737 0.0
C333 C 0.20469 0.72668 0.68163 0.0
C334 C 0.22326 0.76966 0.70168 0.0
C335 C 0.24784 0.75649 0.71043 0.0
C336 C 0.25065 0.72827 0.7043 0.0
C337 C 0.2293 0.71352 0.69016 0.0
C338 C 0.30578 0.77459 0.76696 0.0
C339 C 0.31188 0.80171 0.75812 0.0
C340 C 0.28515 0.75993 0.75139 0.0
C341 C 0.27022 0.77197 0.72645 0.0
C342 C 0.2766 0.79899 0.71732 0.0
C343 C 0.29716 0.81372 0.73303 0.0
H344 H 0.19412 0.27203 0.79874 0.0
H345 H 0.20833 0.33175 0.72483 0.0
H346 H 0.23348 0.24567 0.78047 0.0
H347 H 0.24718 0.30488 0.70581 0.0
H348 H 0.33383 0.26968 0.7054 0.0
H349 H 0.29293 0.29447 0.72214 0.0
H350 H 0.25138 0.21749 0.7392 0.0
H351 H 0.29265 0.19272 0.72347 0.0
C352 C 0.20535 0.27929 0.77823 0.0
C353 C 0.1982 0.30409 0.76337 0.0
C354 C 0.22791 0.2641 0.76766 0.0
C355 C 0.24371 0.27325 0.74182 0.0
C356 C 0.23586 0.29753 0.72622 0.0
C357 C 0.21343 0.31283 0.73694 0.0
C358 C 0.316 0.25805 0.71283 0.0
C359 C 0.31652 0.22924 0.71317 0.0
C360 C 0.29244 0.27226 0.72217 0.0
C361 C 0.26873 0.25801 0.73182 0.0
C362 C 0.26933 0.22916 0.73227 0.0
C363 C 0.29299 0.21494 0.72316 0.0
H364 H 0.71919 0.19781 0.77311 0.0
H365 H 0.7111 0.25523 0.85062 0.0
H366 H 0.75162 0.22859 0.7472 0.0
H367 H 0.74411 0.28562 0.82519 0.0
H368 H 0.77903 0.34675 0.75344 0.0
H369 H 0.74771 0.31565 0.78046 0.0
H370 H 0.79742 0.24667 0.75128 0.0
H371 H 0.82835 0.27776 0.72344 0.0
C372 C 0.72448 0.21691 0.78474 0.0
C373 C 0.71247 0.22411 0.81387 0.0
C374 C 0.74323 0.23449 0.76998 0.0
C375 C 0.75051 0.25962 0.78409 0.0
C376 C 0.73867 0.26665 0.8134 0.0
C377 C 0.71982 0.24914 0.82807 0.0
C378 C 0.78335 0.32496 0.75287 0.0
C379 C 0.80616 0.31474 0.7362 0.0
C380 C 0.76545 0.30711 0.76853 0.0
C381 C 0.76999 0.27862 0.76805 0.0
C382 C 0.79305 0.26845 0.75173 0.0
C383 C 0.81089 0.2863 0.73594 0.0
H384 H 0.15133 0.31532 0.87442 0.0
H385 H 0.17391 0.3901 0.92267 0.0
H386 H 0.1505 0.29105 0.92537 0.0
H387 H 0.17405 0.36572 0.9732 0.0
H388 H 0.09415 0.30185 0.0225 0.0
H389 H 0.11241 0.30643 0.96888 0.0
H390 H 0.19306 0.32253 0.00714 0.0
H391 H 0.17495 0.31703 0.06096 0.0
C392 C 0.15732 0.32622 0.89572 0.0
C393 C 0.16241 0.35459 0.89485 0.0
C394 C 0.15681 0.31236 0.92477 0.0
C395 C 0.16221 0.32656 0.95307 0.0
C396 C 0.17012 0.35424 0.95166 0.0
C397 C 0.16988 0.36823 0.92283 0.0
C398 C 0.116 0.30516 0.01939 0.0
C399 C 0.13311 0.30934 0.04574 0.0
C400 C 0.12649 0.30763 0.98874 0.0
C401 C 0.15409 0.31496 0.98402 0.0
C402 C 0.17174 0.31675 0.01028 0.0
C403 C 0.16137 0.31357 0.04099 0.0
H404 H 0.70853 0.14163 0.93713 0.0
H405 H 0.63121 0.18043 0.95888 0.0
H406 H 0.71995 0.14067 0.99385 0.0
H407 H 0.64269 0.18015 0.01512 0.0
H408 H 0.66418 0.17358 0.11566 0.0
H409 H 0.67484 0.19138 0.06255 0.0
H410 H 0.69155 0.10892 0.03045 0.0
H411 H 0.68028 0.09131 0.08286 0.0
C412 C 0.69466 0.15117 0.95393 0.0
C413 C 0.669 0.161 0.94399 0.0
C414 C 0.70113 0.15057 0.98629 0.0
C415 C 0.68214 0.16022 0.00885 0.0
C416 C 0.65786 0.17286 -0.00168 0.0
C417 C 0.65119 0.17291 0.96617 0.0
C418 C 0.6711 0.1595 0.09746 0.0
C419 C 0.67111 0.13111 0.10299 0.0
C420 C 0.67718 0.16965 0.06718 0.0
C421 C 0.68396 0.15152 0.04242 0.0
C422 C 0.68671 0.12342 0.0491 0.0
C423 C 0.68002 0.11329 0.07901 0.0
H424 H 0.8263 0.68422 0.91297 0.0
H425 H 0.90531 0.69456 0.95792 0.0
H426 H 0.80439 0.68176 0.96522 0.0
H427 H 0.88341 0.69302 0.00987 0.0
H428 H 0.84134 0.6876 0.1009 0.0
H429 H 0.84518 0.71149 0.04995 0.0
H430 H 0.81678 0.63871 0.00172 0.0
H431 H 0.81384 0.61469 0.05231 0.0
C432 C 0.83877 0.68729 0.93396 0.0
C433 C 0.8675 0.68923 0.93159 0.0
C434 C 0.82624 0.68585 0.96378 0.0
C435 C 0.84224 0.68712 0.99147 0.0
C436 C 0.87055 0.69227 0.9889 0.0
C437 C 0.88313 0.69298 0.9592 0.0
C438 C 0.83477 0.67717 0.07952 0.0
C439 C 0.82757 0.64927 0.08032 0.0
C440 C 0.83703 0.69081 0.05043 0.0
C441 C 0.8314 0.67688 0.022 0.0
C442 C 0.821 0.65002 0.02331 0.0
C443 C 0.81943 0.63621 0.05222 0.0
H444 H 0.31343 0.89207 0.04438 0.0
H445 H 0.33225 0.80744 0.06492 0.0
H446 H 0.31037 0.88138 0.98805 0.0
H447 H 0.33006 0.79675 0.00801 0.0
H448 H 0.38554 0.82637 0.91702 0.0
H449 H 0.36745 0.81818 0.97005 0.0
H450 H 0.28926 0.85199 0.94152 0.0
H451 H 0.30732 0.85941 0.88781 0.0
C452 C 0.31598 0.87097 0.0368 0.0
C453 C 0.32326 0.85058 0.05869 0.0
C454 C 0.31402 0.86479 0.00463 0.0
C455 C 0.32003 0.83824 0.99372 0.0
C456 C 0.32519 0.81732 0.01592 0.0
C457 C 0.32645 0.82341 0.04835 0.0
C458 C 0.36413 0.83092 0.92175 0.0
C459 C 0.3478 0.84365 0.89865 0.0
C460 C 0.3537 0.82607 0.95201 0.0
C461 C 0.32699 0.83457 0.95986 0.0
C462 C 0.30988 0.84517 0.93594 0.0
C463 C 0.32016 0.84939 0.90531 0.0
H464 H 0.1173 0.68306 0.52204 0.0
H465 H 0.19753 0.65491 0.55093 0.0
H466 H 0.13069 0.67887 0.46652 0.0
H467 H 0.2107 0.64974 0.4951 0.0
H468 H 0.17549 0.58932 0.41049 0.0
H469 H 0.18341 0.6114 0.46157 0.0
H470 H 0.16656 0.6904 0.4196 0.0
H471 H 0.15958 0.66825 0.36793 0.0
C472 C 0.13817 0.67703 0.51642 0.0
C473 C 0.15637 0.66917 0.54055 0.0
C474 C 0.1459 0.67475 0.48469 0.0
C475 C 0.17168 0.66387 0.47663 0.0
C476 C 0.19077 0.65832 0.5008 0.0
C477 C 0.18326 0.66132 0.53265 0.0
C478 C 0.17459 0.6115 0.41193 0.0
C479 C 0.16675 0.62712 0.38552 0.0
C480 C 0.17931 0.62416 0.44107 0.0
C481 C 0.17555 0.65258 0.44443 0.0
C482 C 0.16975 0.66848 0.41746 0.0
C483 C 0.16577 0.65583 0.38801 0.0
H484 H 0.32598 0.17198 0.5951 0.0
H485 H 0.40709 0.18896 0.55867 0.0
H486 H 0.30783 0.17175 0.54085 0.0
H487 H 0.38891 0.18948 0.50481 0.0
H488 H 0.32347 0.11233 0.4489 0.0
H489 H 0.32409 0.13227 0.50189 0.0
H490 H 0.35299 0.20897 0.46307 0.0
H491 H 0.35153 0.18911 0.40959 0.0
C492 C 0.33965 0.17683 0.57562 0.0
C493 C 0.36796 0.1801 0.58085 0.0
C494 C 0.32928 0.17669 0.54467 0.0
C495 C 0.34701 0.18051 0.51875 0.0
C496 C 0.37475 0.18674 0.52438 0.0
C497 C 0.3852 0.18624 0.55516 0.0
C498 C 0.32891 0.13377 0.45158 0.0
C499 C 0.33767 0.14917 0.42539 0.0
C500 C 0.32907 0.14525 0.48185 0.0
C501 C 0.33866 0.17212 0.48649 0.0
C502 C 0.3454 0.18825 0.45998 0.0
C503 C 0.34455 0.17692 0.4295 0.0
H504 H 0.80562 0.3453 0.42246 0.0
H505 H 0.88725 0.32723 0.45656 0.0
H506 H 0.78919 0.3484 0.4774 0.0
H507 H 0.87073 0.32935 0.51111 0.0
H508 H 0.81124 0.40894 0.56818 0.0
H509 H 0.8086 0.38849 0.51546 0.0
H510 H 0.83436 0.31061 0.55404 0.0
H511 H 0.8361 0.33097 0.60719 0.0
C512 C 0.81973 0.34088 0.44166 0.0
C513 C 0.84772 0.33629 0.43549 0.0
C514 C 0.81035 0.34265 0.47298 0.0
C515 C 0.8287 0.33903 0.49837 0.0
C516 C 0.85609 0.33187 0.49197 0.0
C517 C 0.86559 0.33085 0.46081 0.0
C518 C 0.81508 0.38716 0.56558 0.0
C519 C 0.82401 0.37152 0.59154 0.0
C520 C 0.81346 0.37542 0.53548 0.0
C521 C 0.82143 0.34804 0.53076 0.0
C522 C 0.82801 0.33174 0.55718 0.0
C523 C 0.82893 0.34335 0.58752 0.0
H524 H 0.68198 0.88898 0.54468 0.0
H525 H 0.66469 0.81336 0.59405 0.0
H526 H 0.67878 0.86497 0.49405 0.0
H527 H 0.6605 0.78949 0.54317 0.0
H528 H 0.59513 0.80156 0.45381 0.0
H529 H 0.61839 0.80512 0.5049 0.0
H530 H 0.6949 0.82216 0.45713 0.0
H531 H 0.67176 0.81755 0.4058 0.0
C532 C 0.67855 0.86702 0.54469 0.0
C533 C 0.67338 0.85305 0.57316 0.0
C534 C 0.67684 0.85323 0.51575 0.0
C535 C 0.66926 0.82543 0.51481 0.0
C536 C 0.6665 0.8109 0.54337 0.0
C537 C 0.66895 0.82456 0.57242 0.0
C538 C 0.61716 0.8047 0.45423 0.0
C539 C 0.63164 0.80944 0.426 0.0
C540 C 0.63051 0.80666 0.48343 0.0
C541 C 0.65838 0.81408 0.48484 0.0
C542 C 0.67343 0.81631 0.45656 0.0
C543 C 0.6602 0.81359 0.42726 0.0
H544 H 0.16058 0.54746 0.21272 0.0
H545 H 0.15213 0.49722 0.29651 0.0
H546 H 0.16221 0.50599 0.17993 0.0
H547 H 0.15373 0.45608 0.26399 0.0
H548 H 0.11086 0.43039 0.14121 0.0
H549 H 0.12436 0.47257 0.16795 0.0
H550 H 0.1805 0.4268 0.22704 0.0
H551 H 0.1669 0.38444 0.20045 0.0
C552 C 0.15987 0.52759 0.2242 0.0
C553 C 0.15594 0.52554 0.25712 0.0
C554 C 0.16059 0.50389 0.20543 0.0
C555 C 0.15785 0.47781 0.21937 0.0
C556 C 0.15609 0.47583 0.25253 0.0
C557 C 0.15501 0.49943 0.27117 0.0
C558 C 0.12638 0.42933 0.15958 0.0
C559 C 0.13749 0.40398 0.169 0.0
C560 C 0.13432 0.45357 0.1747 0.0
C561 C 0.15341 0.45297 0.19968 0.0
C562 C 0.16557 0.42783 0.20803 0.0
C563 C 0.15777 0.4036 0.19276 0.0
H564 H 0.57844 0.14837 0.25989 0.0
H565 H 0.53454 0.11582 0.17913 0.0
H566 H 0.53482 0.15594 0.28724 0.0
H567 H 0.49108 0.12351 0.20645 0.0
H568 H 0.41533 0.15393 0.25845 0.0
H569 H 0.45908 0.1592 0.23044 0.0
H570 H 0.50132 0.12071 0.30872 0.0
H571 H 0.45781 0.11529 0.33657 0.0
C572 C 0.5595 0.1434 0.24769 0.0
C573 C 0.55997 0.13122 0.21747 0.0
C574 C 0.53455 0.14762 0.26342 0.0
C575 C 0.50959 0.14012 0.24906 0.0
C576 C 0.50997 0.12965 0.21803 0.0
C577 C 0.5349 0.1251 0.20247 0.0
C578 C 0.43402 0.147 0.26987 0.0
C579 C 0.4331 0.13398 0.29961 0.0
C580 C 0.45901 0.14993 0.25379 0.0
C581 C 0.48358 0.14034 0.26739 0.0
C582 C 0.48277 0.12856 0.29778 0.0
C583 C 0.45781 0.12526 0.31362 0.0
H584 H 0.82044 0.56515 0.25129 0.0
H585 H 0.8297 0.51226 0.16981 0.0
H586 H 0.81915 0.52486 0.28585 0.0
H587 H 0.82852 0.47222 0.2042 0.0
H588 H 0.81675 0.40275 0.27243 0.0
H589 H 0.8029 0.44348 0.2427 0.0
H590 H 0.85758 0.49301 0.29952 0.0
H591 H 0.87132 0.45249 0.32933 0.0
C592 C 0.82136 0.54494 0.24066 0.0
C593 C 0.82551 0.54187 0.20788 0.0
C594 C 0.82086 0.5219 0.26048 0.0
C595 C 0.82412 0.49541 0.24778 0.0
C596 C 0.82584 0.49231 0.21473 0.0
C597 C 0.82664 0.51529 0.19501 0.0
C598 C 0.82554 0.42239 0.27888 0.0
C599 C 0.8454 0.4243 0.30303 0.0
C600 C 0.81761 0.44569 0.26181 0.0
C601 C 0.82916 0.47143 0.26873 0.0
C602 C 0.84803 0.47354 0.29386 0.0
C603 C 0.85612 0.45024 0.31074 0.0
H604 H 0.49978 0.82634 0.32862 0.0
H605 H 0.55318 0.80367 0.25115 0.0
H606 H 0.46045 0.82555 0.29297 0.0
H607 H 0.51359 0.80291 0.2153 0.0
H608 H 0.44626 0.85667 0.16302 0.0
H609 H 0.48517 0.84237 0.19537 0.0
H610 H 0.43035 0.79777 0.25716 0.0
H611 H 0.39124 0.81211 0.22477 0.0
C612 C 0.50302 0.82056 0.3041 0.0
C613 C 0.52962 0.81533 0.29264 0.0
C614 C 0.48043 0.81995 0.28369 0.0
C615 C 0.48396 0.81439 0.25126 0.0
C616 C 0.51032 0.8075 0.24014 0.0
C617 C 0.53293 0.80775 0.2607 0.0
C618 C 0.4425 0.84344 0.18319 0.0
C619 C 0.41559 0.83582 0.19152 0.0
C620 C 0.46486 0.83505 0.20159 0.0
C621 C 0.46081 0.81904 0.2289 0.0
C622 C 0.43406 0.81028 0.23637 0.0
C623 C 0.41169 0.81844 0.21775 0.0
H624 H 0.86015 0.57008 0.85193 0.0
H625 H 0.86176 0.61161 0.7617 0.0
H626 H 0.8423 0.52893 0.82643 0.0
H627 H 0.84647 0.57013 0.73549 0.0
H628 H 0.81508 0.49657 0.68953 0.0
H629 H 0.81561 0.53802 0.72177 0.0
H630 H 0.85577 0.49278 0.79715 0.0
H631 H 0.85247 0.4512 0.76586 0.0
C632 C 0.85674 0.57027 0.82655 0.0
C633 C 0.86243 0.59387 0.80871 0.0
C634 C 0.84671 0.5466 0.81177 0.0
C635 C 0.8431 0.54568 0.7786 0.0
C636 C 0.84823 0.5698 0.76105 0.0
C637 C 0.85735 0.59368 0.77601 0.0
C638 C 0.82302 0.49551 0.7135 0.0
C639 C 0.83365 0.47085 0.72536 0.0
C640 C 0.82385 0.51935 0.73188 0.0
C641 C 0.83655 0.51932 0.76196 0.0
C642 C 0.84556 0.494 0.77442 0.0
C643 C 0.84375 0.46997 0.75644 0.0
H644 H 0.547 0.8854 0.65798 0.0
H645 H 0.59045 0.82857 0.71869 0.0
H646 H 0.50392 0.87284 0.68347 0.0
H647 H 0.54723 0.81581 0.74388 0.0
H648 H 0.47759 0.84813 0.81211 0.0
H649 H 0.51877 0.84348 0.78007 0.0
H650 H 0.4689 0.83693 0.69563 0.0
H651 H 0.42737 0.84172 0.72797 0.0
C652 C 0.54732 0.86984 0.67635 0.0
C653 C 0.57224 0.85838 0.68671 0.0
C654 C 0.52256 0.86244 0.69073 0.0
C655 C 0.52223 0.84346 0.71582 0.0
C656 C 0.54691 0.83072 0.72482 0.0
C657 C 0.57167 0.83806 0.71039 0.0
C658 C 0.47536 0.84495 0.7868 0.0
C659 C 0.44933 0.84565 0.77246 0.0
C660 C 0.49897 0.84211 0.76844 0.0
C661 C 0.49708 0.84014 0.73528 0.0
C662 C 0.47094 0.83872 0.72113 0.0
C663 C 0.4472 0.84125 0.73963 0.0
H664 H 0.16297 0.489 0.80267 0.0
H665 H 0.17608 0.43431 0.72348 0.0
H666 H 0.16872 0.52831 0.7678 0.0
H667 H 0.18195 0.47389 0.68844 0.0
H668 H 0.13525 0.5481 0.63986 0.0
H669 H 0.14617 0.50718 0.67043 0.0
H670 H 0.19869 0.55514 0.73161 0.0
H671 H 0.18765 0.59628 0.70112 0.0
C672 C 0.16779 0.48538 0.77794 0.0
C673 C 0.16871 0.45857 0.76574 0.0
C674 C 0.17126 0.50793 0.75797 0.0
C675 C 0.1755 0.50418 0.72531 0.0
C676 C 0.1784 0.47736 0.71348 0.0
C677 C 0.17522 0.45473 0.73357 0.0
C678 C 0.1495 0.54988 0.65949 0.0
C679 C 0.16024 0.57554 0.66834 0.0
C680 C 0.15597 0.52635 0.67684 0.0
C681 C 0.17318 0.52798 0.70354 0.0
C682 C 0.18517 0.55333 0.71131 0.0
C683 C 0.17887 0.57686 0.69379 0.0
H684 H 0.43545 0.1756 0.76446 0.0
H685 H 0.48034 0.21032 0.68613 0.0
H686 H 0.47537 0.18052 0.79825 0.0
H687 H 0.51983 0.21805 0.7205 0.0
H688 H 0.59497 0.17942 0.76884 0.0
H689 H 0.55422 0.19208 0.7393 0.0
H690 H 0.50891 0.19953 0.82734 0.0
H691 H 0.5494 0.18412 0.85625 0.0
C692 C 0.45357 0.18559 0.75498 0.0
C693 C 0.45503 0.19239 0.72278 0.0
C694 C 0.47665 0.18855 0.7744 0.0
C695 C 0.5015 0.19912 0.76217 0.0
C696 C 0.50166 0.20877 0.73064 0.0
C697 C 0.47888 0.20483 0.71097 0.0
C698 C 0.57636 0.18428 0.78178 0.0
C699 C 0.5751 0.18048 0.81465 0.0
C700 C 0.55284 0.1918 0.76488 0.0
C701 C 0.52767 0.19648 0.78064 0.0
C702 C 0.52739 0.19514 0.81404 0.0
C703 C 0.55068 0.18664 0.83077 0.0
H704 H 0.66415 0.09363 0.76263 0.0
H705 H 0.67188 0.04435 0.84696 0.0
H706 H 0.67155 0.05344 0.72994 0.0
H707 H 0.68222 0.00424 0.81469 0.0
H708 H 0.65996 0.93225 0.7504 0.0
H709 H 0.66276 0.97183 0.78496 0.0
H710 H 0.69564 0.01988 0.70724 0.0
H711 H 0.68988 0.98061 0.67219 0.0
C712 C 0.66835 0.07419 0.77411 0.0
C713 C 0.66724 0.07195 0.8072 0.0
C714 C 0.67288 0.05098 0.75537 0.0
C715 C 0.67735 0.02502 0.7693 0.0
C716 C 0.67797 0.0234 0.80272 0.0
C717 C 0.67238 0.04647 0.82139 0.0
C718 C 0.66821 0.95123 0.74098 0.0
C719 C 0.67457 0.95351 0.70869 0.0
C720 C 0.67 0.9741 0.76087 0.0
C721 C 0.67907 -0.00032 0.74916 0.0
C722 C 0.68754 0.00109 0.71718 0.0
C723 C 0.68472 0.97845 0.69705 0.0
H724 H 0.99763 0.67046 0.82666 0.0
H725 H 0.94196 0.71374 0.76441 0.0
H726 H 0.03485 0.67774 0.78917 0.0
H727 H 0.97946 0.72131 0.72696 0.0
H728 H 0.03699 0.67627 0.65353 0.0
H729 H 0.0022 0.68733 0.69275 0.0
H730 H 0.06567 0.70913 0.75981 0.0
H731 H 0.10075 0.69778 0.72035 0.0
C732 C 0.99346 0.6821 0.80531 0.0
C733 C 0.96669 0.69108 0.79828 0.0
C734 C 0.0149 0.68649 0.78391 0.0
C735 C 0.01005 0.69987 0.75493 0.0
C736 C 0.98374 0.71063 0.74894 0.0
C737 C 0.96229 0.70636 0.77046 0.0
C738 C 0.04356 0.68401 0.67639 0.0
C739 C 0.07162 0.68575 0.68401 0.0
C740 C 0.02358 0.69059 0.69883 0.0
C741 C 0.03117 0.69888 0.72951 0.0
C742 C 0.05922 0.7025 0.73645 0.0
C743 C 0.07929 0.69615 0.71381 0.0
H744 H 0.34747 0.09783 0.7406 0.0
H745 H 0.39377 0.05504 0.66849 0.0
H746 H 0.33776 0.05415 0.7668 0.0
H747 H 0.38386 0.01149 0.6946 0.0
H748 H 0.34687 0.93524 0.73797 0.0
H749 H 0.34456 0.9792 0.71012 0.0
H750 H 0.37006 0.02101 0.79543 0.0
H751 H 0.3726 0.97721 0.82322 0.0
C752 C 0.3552 0.0791 0.73005 0.0
C753 C 0.37159 0.0799 0.70261 0.0
C754 C 0.34969 0.05414 0.74512 0.0
C755 C 0.36008 0.02948 0.73274 0.0
C756 C 0.37536 0.03016 0.70449 0.0
C757 C 0.38121 0.05512 0.68969 0.0
C758 C 0.3514 0.95387 0.75097 0.0
C759 C 0.36015 0.95276 0.78272 0.0
C760 C 0.35022 0.97898 0.73496 0.0
C761 C 0.35731 0.00344 0.75058 0.0
C762 C 0.36432 0.00249 0.78287 0.0
C763 C 0.3659 0.97739 0.79873 0.0
H764 H 0.07855 0.35243 0.7327 0.0
H765 H 0.03807 0.38206 0.8172 0.0
H766 H 0.03384 0.34731 0.70674 0.0
H767 H 0.99366 0.37692 0.79136 0.0
H768 H 0.91538 0.35332 0.74317 0.0
H769 H 0.96003 0.34375 0.76726 0.0
H770 H 0.00044 0.3838 0.68876 0.0
H771 H 0.95598 0.39336 0.66464 0.0
C772 C 0.06012 0.3573 0.74594 0.0
C773 C 0.06182 0.36795 0.77686 0.0
C774 C 0.03457 0.35447 0.73104 0.0
C775 C 0.01031 0.36184 0.74698 0.0
C776 C 0.01197 0.37084 0.77856 0.0
C777 C 0.03745 0.37399 0.79328 0.0
C778 C 0.93381 0.35961 0.73074 0.0
C779 C 0.93213 0.37443 0.7022 0.0
C780 C 0.95934 0.35419 0.7446 0.0
C781 C 0.98367 0.36319 0.72999 0.0
C782 C 0.98206 0.37642 0.70046 0.0
C783 C 0.95655 0.38209 0.68677 0.0
H784 H 0.32572 0.07303 0.24929 0.0
H785 H 0.30571 0.02719 0.33356 0.0
H786 H 0.31546 0.03338 0.21688 0.0
H787 H 0.29265 0.98791 0.30118 0.0
H788 H 0.32207 0.91375 0.24307 0.0
H789 H 0.3146 0.95385 0.27591 0.0
H790 H 0.29142 0.00035 0.19246 0.0
H791 H 0.30177 0.96053 0.15964 0.0
C792 C 0.31792 0.0547 0.26072 0.0
C793 C 0.31683 0.05294 0.29383 0.0
C794 C 0.31182 0.03179 0.2421 0.0
C795 C 0.30369 0.0068 0.2562 0.0
C796 C 0.29988 0.00623 0.28933 0.0
C797 C 0.30697 0.02886 0.30798 0.0
C798 C 0.31479 0.93245 0.23201 0.0
C799 C 0.31271 0.93429 0.19899 0.0
C800 C 0.31029 0.9556 0.25083 0.0
C801 C 0.30286 0.98094 0.23703 0.0
C802 C 0.29814 0.98172 0.20405 0.0
C803 C 0.30365 0.95881 0.18517 0.0
H804 H 0.96288 0.30421 0.33431 0.0
H805 H 0.91153 0.31717 0.25243 0.0
H806 H 0.00015 0.28868 0.30026 0.0
H807 H 0.94919 0.3044 0.21793 0.0
H808 H 0.0179 0.28375 0.15631 0.0
H809 H 0.98018 0.27777 0.1936 0.0
H810 H 0.03289 0.30674 0.26939 0.0
H811 H 0.07083 0.30986 0.23245 0.0
C812 C 0.9596 0.30348 0.30891 0.0
C813 C 0.93447 0.31192 0.2959 0.0
C814 C 0.98109 0.29495 0.28923 0.0
C815 C 0.97833 0.2958 0.25595 0.0
C816 C 0.95244 0.30291 0.24324 0.0
C817 C 0.93068 0.31047 0.26303 0.0
C818 C 0.02147 0.2878 0.18124 0.0
C819 C 0.04715 0.29725 0.19161 0.0
C820 C -0.00027 0.28486 0.20265 0.0
C821 C 0.00285 0.29255 0.2347 0.0
C822 C 0.0293 0.30025 0.24523 0.0
C823 C 0.05126 0.30218 0.22398 0.0
H824 H 0.64026 0.92791 0.35306 0.0
H825 H 0.63637 0.89122 0.26014 0.0
H826 H 0.65703 0.97052 0.32987 0.0
H827 H 0.65059 0.93414 0.2364 0.0
H828 H 0.6779 0.01077 0.19442 0.0
H829 H 0.68029 0.96783 0.22389 0.0
H830 H 0.64084 0.00753 0.30376 0.0
H831 H 0.64121 0.05067 0.27511 0.0
C832 C 0.64303 0.92908 0.3276 0.0
C833 C 0.63689 0.90646 0.3083 0.0
C834 C 0.65242 0.95357 0.31418 0.0
C835 C 0.65488 0.9563 0.28103 0.0
C836 C 0.64961 0.93308 0.26199 0.0
C837 C 0.64114 0.90837 0.27554 0.0
C838 C 0.67074 0.0103 0.21874 0.0
C839 C 0.65941 0.0338 0.23265 0.0
C840 C 0.67163 0.98562 0.23554 0.0
C841 C 0.65998 0.98366 0.26607 0.0
C842 C 0.65031 0.00789 0.28057 0.0
C843 C 0.65039 0.03278 0.26414 0.0
H844 H 0.0759 0.64427 0.23131 0.0
H845 H 0.03262 0.6098 0.31143 0.0
H846 H 0.03202 0.65447 0.20573 0.0
H847 H 0.98896 0.61988 0.28582 0.0
H848 H 0.91267 0.6513 0.23912 0.0
H849 H 0.95722 0.65609 0.26534 0.0
H850 H 0.9973 0.62246 0.18269 0.0
H851 H 0.95301 0.61777 0.15647 0.0
C852 C 0.05707 0.63934 0.24373 0.0
C853 C 0.05775 0.6259 0.27322 0.0
C854 C 0.03196 0.6451 0.22902 0.0
C855 C 0.00708 0.63781 0.24368 0.0
C856 C 0.00777 0.62597 0.27404 0.0
C857 C 0.03282 0.61999 0.2886 0.0
C858 C 0.93105 0.64547 0.22631 0.0
C859 C 0.92929 0.63383 0.19587 0.0
C860 C 0.95652 0.64811 0.24138 0.0
C861 C 0.9807 0.63948 0.22615 0.0
C862 C 0.97907 0.62951 0.19495 0.0
C863 C 0.95364 0.62662 0.18002 0.0
loop_
_geom_bond_atom_site_label_1
_geom_bond_atom_site_label_2
_geom_bond_distance
_geom_bond_site_symmetry_2
_ccdc_geom_bond_type
Zn0 O3 2.031 . S
Zn0 O5 2.049 . S
Zn0 O10 2.067 . S
Zn1 O2 1.962 . S
Zn1 O4 1.986 . S
Zn1 O6 1.996 . S
Zn1 O9 1.943 . S
O2 Zn1 1.962 . S
O2 C7 1.254 . S
O3 Zn0 2.031 . S
O3 C7 1.269 . S
O4 Zn1 1.986 . S
O4 C11 1.262 . S
O5 Zn0 2.049 . S
O5 C13 1.260 . S
O6 Zn1 1.996 . S
O6 C13 1.257 . S
C7 O2 1.254 . S
C7 O3 1.269 . S
C8 O9 1.249 . S
C8 O10 1.270 . S
O9 Zn1 1.943 . S
O9 C8 1.249 . S
O10 Zn0 2.067 . S
O10 C8 1.270 . S
C11 O4 1.262 . S
C11 O12 1.232 . S
O12 C11 1.232 . S
C13 O5 1.260 . S
C13 O6 1.257 . S
Zn14 O17 2.031 . S
Zn14 O19 2.049 . S
Zn14 O24 2.067 . S
Zn15 O16 1.962 . S
Zn15 O18 1.986 . S
Zn15 O20 1.996 . S
Zn15 O23 1.943 . S
O16 Zn15 1.962 . S
O16 C21 1.254 . S
O17 Zn14 2.031 . S
O17 C21 1.269 . S
O18 Zn15 1.986 . S
O18 C25 1.262 . S
O19 Zn14 2.049 . S
O19 C27 1.260 . S
O20 Zn15 1.996 . S
O20 C27 1.257 . S
C21 O16 1.254 . S
C21 O17 1.269 . S
C22 O23 1.249 . S
C22 O24 1.270 . S
O23 Zn15 1.943 . S
O23 C22 1.249 . S
O24 Zn14 2.067 . S
O24 C22 1.270 . S
C25 O18 1.262 . S
C25 O26 1.232 . S
O26 C25 1.232 . S
C27 O19 1.260 . S
C27 O20 1.257 . S
Zn28 O31 2.031 . S
Zn28 O33 2.049 . S
Zn28 O38 2.067 . S
Zn29 O30 1.962 . S
Zn29 O32 1.986 . S
Zn29 O34 1.996 . S
Zn29 O37 1.943 . S
O30 Zn29 1.962 . S
O30 C35 1.254 . S
O31 Zn28 2.031 . S
O31 C35 1.269 . S
O32 Zn29 1.986 . S
O32 C39 1.262 . S
O33 Zn28 2.049 . S
O33 C41 1.260 . S
O34 Zn29 1.996 . S
O34 C41 1.257 . S
C35 O30 1.254 . S
C35 O31 1.269 . S
C36 O37 1.249 . S
C36 O38 1.270 . S
O37 Zn29 1.943 . S
O37 C36 1.249 . S
O38 Zn28 2.067 . S
O38 C36 1.270 . S
C39 O32 1.262 . S
C39 O40 1.232 . S
O40 C39 1.232 . S
C41 O33 1.260 . S
C41 O34 1.257 . S
Zn42 O45 2.031 . S
Zn42 O47 2.049 . S
Zn42 O52 2.067 . S
Zn43 O44 1.962 . S
Zn43 O46 1.986 . S
Zn43 O48 1.996 . S
Zn43 O51 1.943 . S
O44 Zn43 1.962 . S
O44 C49 1.254 . S
O45 Zn42 2.031 . S
O45 C49 1.269 . S
O46 Zn43 1.986 . S
O46 C53 1.262 . S
O47 Zn42 2.049 . S
O47 C55 1.260 . S
O48 Zn43 1.996 . S
O48 C55 1.257 . S
C49 O44 1.254 . S
C49 O45 1.269 . S
C50 O51 1.249 . S
C50 O52 1.270 . S
O51 Zn43 1.943 . S
O51 C50 1.249 . S
O52 Zn42 2.067 . S
O52 C50 1.270 . S
C53 O46 1.262 . S
C53 O54 1.232 . S
O54 C53 1.232 . S
C55 O47 1.260 . S
C55 O48 1.257 . S
Zn56 O59 2.031 . S
Zn56 O61 2.049 . S
Zn56 O66 2.067 . S
Zn57 O58 1.962 . S
Zn57 O60 1.986 . S
Zn57 O62 1.996 . S
Zn57 O65 1.943 . S
O58 Zn57 1.962 . S
O58 C63 1.254 . S
O59 Zn56 2.031 . S
O59 C63 1.269 . S
O60 Zn57 1.986 . S
O60 C67 1.262 . S
O61 Zn56 2.049 . S
O61 C69 1.260 . S
O62 Zn57 1.996 . S
O62 C69 1.257 . S
C63 O58 1.254 . S
C63 O59 1.269 . S
C64 O65 1.249 . S
C64 O66 1.270 . S
O65 Zn57 1.943 . S
O65 C64 1.249 . S
O66 Zn56 2.067 . S
O66 C64 1.270 . S
C67 O60 1.262 . S
C67 O68 1.232 . S
O68 C67 1.232 . S
C69 O61 1.260 . S
C69 O62 1.257 . S
Zn70 O73 2.031 . S
Zn70 O75 2.049 . S
Zn70 O80 2.067 . S
Zn71 O72 1.962 . S
Zn71 O74 1.986 . S
Zn71 O76 1.996 . S
Zn71 O79 1.943 . S
O72 Zn71 1.962 . S
O72 C77 1.254 . S
O73 Zn70 2.031 . S
O73 C77 1.269 . S
O74 Zn71 1.986 . S
O74 C81 1.262 . S
O75 Zn70 2.049 . S
O75 C83 1.260 . S
O76 Zn71 1.996 . S
O76 C83 1.257 . S
C77 O72 1.254 . S
C77 O73 1.269 . S
C78 O79 1.249 . S
C78 O80 1.270 . S
O79 Zn71 1.943 . S
O79 C78 1.249 . S
O80 Zn70 2.067 . S
O80 C78 1.270 . S
C81 O74 1.262 . S
C81 O82 1.232 . S
O82 C81 1.232 . S
C83 O75 1.260 . S
C83 O76 1.257 . S
Zn84 O87 2.031 . S
Zn84 O89 2.049 . S
Zn84 O94 2.067 . S
Zn85 O86 1.962 . S
Zn85 O88 1.986 . S
Zn85 O90 1.996 . S
Zn85 O93 1.943 . S
O86 Zn85 1.962 . S
O86 C91 1.254 . S
O87 Zn84 2.031 . S
O87 C91 1.269 . S
O88 Zn85 1.986 . S
O88 C95 1.262 . S
O89 Zn84 2.049 . S
O89 C97 1.260 . S
O90 Zn85 1.996 . S
O90 C97 1.257 . S
C91 O86 1.254 . S
C91 O87 1.269 . S
C92 O93 1.249 . S
C92 O94 1.270 . S
O93 Zn85 1.943 . S
O93 C92 1.249 . S
O94 Zn84 2.067 . S
O94 C92 1.270 . S
C95 O88 1.262 . S
C95 O96 1.232 . S
O96 C95 1.232 . S
C97 O89 1.260 . S
C97 O90 1.257 . S
Zn98 O101 2.031 . S
Zn98 O103 2.049 . S
Zn98 O108 2.067 . S
Zn99 O100 1.962 . S
Zn99 O102 1.986 . S
Zn99 O104 1.996 . S
Zn99 O107 1.943 . S
O100 Zn99 1.962 . S
O100 C105 1.254 . S
O101 Zn98 2.031 . S
O101 C105 1.269 . S
O102 Zn99 1.986 . S
O102 C109 1.262 . S
O103 Zn98 2.049 . S
O103 C111 1.260 . S
O104 Zn99 1.996 . S
O104 C111 1.257 . S
C105 O100 1.254 . S
C105 O101 1.269 . S
C106 O107 1.249 . S
C106 O108 1.270 . S
O107 Zn99 1.943 . S
O107 C106 1.249 . S
O108 Zn98 2.067 . S
O108 C106 1.270 . S
C109 O102 1.262 . S
C109 O110 1.232 . S
O110 C109 1.232 . S
C111 O103 1.260 . S
C111 O104 1.257 . S
Zn112 O115 2.031 . S
Zn112 O117 2.049 . S
Zn112 O122 2.067 . S
Zn113 O114 1.962 . S
Zn113 O116 1.986 . S
Zn113 O118 1.996 . S
Zn113 O121 1.943 . S
O114 Zn113 1.962 . S
O114 C119 1.254 . S
O115 Zn112 2.031 . S
O115 C119 1.269 . S
O116 Zn113 1.986 . S
O116 C123 1.262 . S
O117 Zn112 2.049 . S
O117 C125 1.260 . S
O118 Zn113 1.996 . S
O118 C125 1.257 . S
C119 O114 1.254 . S
C119 O115 1.269 . S
C120 O121 1.249 . S
C120 O122 1.270 . S
O121 Zn113 1.943 . S
O121 C120 1.249 . S
O122 Zn112 2.067 . S
O122 C120 1.270 . S
C123 O116 1.262 . S
C123 O124 1.232 . S
O124 C123 1.232 . S
C125 O117 1.260 . S
C125 O118 1.257 . S
Zn126 O129 2.031 . S
Zn126 O131 2.049 . S
Zn126 O136 2.067 . S
Zn127 O128 1.962 . S
Zn127 O130 1.986 . S
Zn127 O132 1.996 . S
Zn127 O135 1.943 . S
O128 Zn127 1.962 . S
O128 C133 1.254 . S
O129 Zn126 2.031 . S
O129 C133 1.269 . S
O130 Zn127 1.986 . S
O130 C137 1.262 . S
O131 Zn126 2.049 . S
O131 C139 1.260 . S
O132 Zn127 1.996 . S
O132 C139 1.257 . S
C133 O128 1.254 . S
C133 O129 1.269 . S
C134 O135 1.249 . S
C134 O136 1.270 . S
O135 Zn127 1.943 . S
O135 C134 1.249 . S
O136 Zn126 2.067 . S
O136 C134 1.270 . S
C137 O130 1.262 . S
C137 O138 1.232 . S
O138 C137 1.232 . S
C139 O131 1.260 . S
C139 O132 1.257 . S
Zn140 O143 2.031 . S
Zn140 O145 2.049 . S
Zn140 O150 2.067 . S
Zn141 O142 1.962 . S
Zn141 O144 1.986 . S
Zn141 O146 1.996 . S
Zn141 O149 1.943 . S
O142 Zn141 1.962 . S
O142 C147 1.254 . S
O143 Zn140 2.031 . S
O143 C147 1.269 . S
O144 Zn141 1.986 . S
O144 C151 1.262 . S
O145 Zn140 2.049 . S
O145 C153 1.260 . S
O146 Zn141 1.996 . S
O146 C153 1.257 . S
C147 O142 1.254 . S
C147 O143 1.269 . S
C148 O149 1.249 . S
C148 O150 1.270 . S
O149 Zn141 1.943 . S
O149 C148 1.249 . S
O150 Zn140 2.067 . S
O150 C148 1.270 . S
C151 O144 1.262 . S
C151 O152 1.232 . S
O152 C151 1.232 . S
C153 O145 1.260 . S
C153 O146 1.257 . S
Zn154 O157 2.031 . S
Zn154 O159 2.049 . S
Zn154 O164 2.067 . S
Zn155 O156 1.962 . S
Zn155 O158 1.986 . S
Zn155 O160 1.996 . S
Zn155 O163 1.943 . S
O156 Zn155 1.962 . S
O156 C161 1.254 . S
O157 Zn154 2.031 . S
O157 C161 1.269 . S
O158 Zn155 1.986 . S
O158 C165 1.262 . S
O159 Zn154 2.049 . S
O159 C167 1.260 . S
O160 Zn155 1.996 . S
O160 C167 1.257 . S
C161 O156 1.254 . S
C161 O157 1.269 . S
C162 O163 1.249 . S
C162 O164 1.270 . S
O163 Zn155 1.943 . S
O163 C162 1.249 . S
O164 Zn154 2.067 . S
O164 C162 1.270 . S
C165 O158 1.262 . S
C165 O166 1.232 . S
O166 C165 1.232 . S
C167 O159 1.260 . S
C167 O160 1.257 . S
Zn168 O171 2.031 . S
Zn168 O173 2.049 . S
Zn168 O178 2.067 . S
Zn169 O170 1.962 . S
Zn169 O172 1.986 . S
Zn169 O174 1.996 . S
Zn169 O177 1.943 . S
O170 Zn169 1.962 . S
O170 C175 1.254 . S
O171 Zn168 2.031 . S
O171 C175 1.269 . S
O172 Zn169 1.986 . S
O172 C179 1.262 . S
O173 Zn168 2.049 . S
O173 C181 1.260 . S
O174 Zn169 1.996 . S
O174 C181 1.257 . S
C175 O170 1.254 . S
C175 O171 1.269 . S
C176 O177 1.249 . S
C176 O178 1.270 . S
O177 Zn169 1.943 . S
O177 C176 1.249 . S
O178 Zn168 2.067 . S
O178 C176 1.270 . S
C179 O172 1.262 . S
C179 O180 1.232 . S
O180 C179 1.232 . S
C181 O173 1.260 . S
C181 O174 1.257 . S
Zn182 O185 2.031 . S
Zn182 O187 2.049 . S
Zn182 O192 2.067 . S
Zn183 O184 1.962 . S
Zn183 O186 1.986 . S
Zn183 O188 1.996 . S
Zn183 O191 1.943 . S
O184 Zn183 1.962 . S
O184 C189 1.254 . S
O185 Zn182 2.031 . S
O185 C189 1.269 . S
O186 Zn183 1.986 . S
O186 C193 1.262 . S
O187 Zn182 2.049 . S
O187 C195 1.260 . S
O188 Zn183 1.996 . S
O188 C195 1.257 . S
C189 O184 1.254 . S
C189 O185 1.269 . S
C190 O191 1.249 . S
C190 O192 1.270 . S
O191 Zn183 1.943 . S
O191 C190 1.249 . S
O192 Zn182 2.067 . S
O192 C190 1.270 . S
C193 O186 1.262 . S
C193 O194 1.232 . S
O194 C193 1.232 . S
C195 O187 1.260 . S
C195 O188 1.257 . S
Zn196 O199 2.031 . S
Zn196 O201 2.049 . S
Zn196 O206 2.067 . S
Zn197 O198 1.962 . S
Zn197 O200 1.986 . S
Zn197 O202 1.996 . S
Zn197 O205 1.943 . S
O198 Zn197 1.962 . S
O198 C203 1.254 . S
O199 Zn196 2.031 . S
O199 C203 1.269 . S
O200 Zn197 1.986 . S
O200 C207 1.262 . S
O201 Zn196 2.049 . S
O201 C209 1.260 . S
O202 Zn197 1.996 . S
O202 C209 1.257 . S
C203 O198 1.254 . S
C203 O199 1.269 . S
C204 O205 1.249 . S
C204 O206 1.270 . S
O205 Zn197 1.943 . S
O205 C204 1.249 . S
O206 Zn196 2.067 . S
O206 C204 1.270 . S
C207 O200 1.262 . S
C207 O208 1.232 . S
O208 C207 1.232 . S
C209 O201 1.260 . S
C209 O202 1.257 . S
Zn210 O213 2.031 . S
Zn210 O215 2.049 . S
Zn210 O220 2.067 . S
Zn211 O212 1.962 . S
Zn211 O214 1.986 . S
Zn211 O216 1.996 . S
Zn211 O219 1.943 . S
O212 Zn211 1.962 . S
O212 C217 1.254 . S
O213 Zn210 2.031 . S
O213 C217 1.269 . S
O214 Zn211 1.986 . S
O214 C221 1.262 . S
O215 Zn210 2.049 . S
O215 C223 1.260 . S
O216 Zn211 1.996 . S
O216 C223 1.257 . S
C217 O212 1.254 . S
C217 O213 1.269 . S
C218 O219 1.249 . S
C218 O220 1.270 . S
O219 Zn211 1.943 . S
O219 C218 1.249 . S
O220 Zn210 2.067 . S
O220 C218 1.270 . S
C221 O214 1.262 . S
C221 O222 1.232 . S
O222 C221 1.232 . S
C223 O215 1.260 . S
C223 O216 1.257 . S
H224 C232 0.950 . S
H225 C237 0.950 . S
H226 C234 0.950 . S
H227 C236 0.950 . S
H228 C238 0.950 . S
H229 C240 0.950 . S
H230 C242 0.950 . S
H231 C243 0.950 . S
C232 H224 0.950 . S
C232 C233 1.386 . S
C232 C234 1.391 . S
C233 C232 1.386 . S
C233 C237 1.393 . S
C234 H226 0.950 . S
C234 C232 1.391 . S
C234 C235 1.400 . S
C235 C234 1.400 . S
C235 C236 1.398 . S
C235 C241 1.491 . S
C236 H227 0.950 . S
C236 C235 1.398 . S
C236 C237 1.391 . S
C237 H225 0.950 . S
C237 C233 1.393 . S
C237 C236 1.391 . S
C238 H228 0.950 . S
C238 C239 1.386 . S
C238 C240 1.391 . S
C239 C238 1.386 . S
C239 C243 1.393 . S
C240 H229 0.950 . S
C240 C238 1.391 . S
C240 C241 1.400 . S
C241 C235 1.491 . S
C241 C240 1.400 . S
C241 C242 1.398 . S
C242 H230 0.950 . S
C242 C241 1.398 . S
C242 C243 1.391 . S
C243 H231 0.950 . S
C243 C239 1.393 . S
C243 C242 1.391 . S
H244 C252 0.950 . S
H245 C257 0.950 . S
H246 C254 0.950 . S
H247 C256 0.950 . S
H248 C258 0.950 . S
H249 C260 0.950 . S
H250 C262 0.950 . S
H251 C263 0.950 . S
C252 H244 0.950 . S
C252 C253 1.386 . S
C252 C254 1.391 . S
C253 C252 1.386 . S
C253 C257 1.393 . S
C254 H246 0.950 . S
C254 C252 1.391 . S
C254 C255 1.400 . S
C255 C254 1.400 . S
C255 C256 1.398 . S
C255 C261 1.491 . S
C256 H247 0.950 . S
C256 C255 1.398 . S
C256 C257 1.391 . S
C257 H245 0.950 . S
C257 C253 1.393 . S
C257 C256 1.391 . S
C258 H248 0.950 . S
C258 C259 1.386 . S
C258 C260 1.391 . S
C259 C258 1.386 . S
C259 C263 1.393 . S
C260 H249 0.950 . S
C260 C258 1.391 . S
C260 C261 1.400 . S
C261 C255 1.491 . S
C261 C260 1.400 . S
C261 C262 1.398 . S
C262 H250 0.950 . S
C262 C261 1.398 . S
C262 C263 1.391 . S
C263 H251 0.950 . S
C263 C259 1.393 . S
C263 C262 1.391 . S
H264 C272 0.950 . S
H265 C277 0.950 . S
H266 C274 0.950 . S
H267 C276 0.950 . S
H268 C278 0.950 . S
H269 C280 0.950 . S
H270 C282 0.950 . S
H271 C283 0.950 . S
C272 H264 0.950 . S
C272 C273 1.386 . S
C272 C274 1.391 . S
C273 C272 1.386 . S
C273 C277 1.393 . S
C274 H266 0.950 . S
C274 C272 1.391 . S
C274 C275 1.400 . S
C275 C274 1.400 . S
C275 C276 1.398 . S
C275 C281 1.491 . S
C276 H267 0.950 . S
C276 C275 1.398 . S
C276 C277 1.391 . S
C277 H265 0.950 . S
C277 C273 1.393 . S
C277 C276 1.391 . S
C278 H268 0.950 . S
C278 C279 1.386 . S
C278 C280 1.391 . S
C279 C278 1.386 . S
C279 C283 1.393 . S
C280 H269 0.950 . S
C280 C278 1.391 . S
C280 C281 1.400 . S
C281 C275 1.491 . S
C281 C280 1.400 . S
C281 C282 1.398 . S
C282 H270 0.950 . S
C282 C281 1.398 . S
C282 C283 1.391 . S
C283 H271 0.950 . S
C283 C279 1.393 . S
C283 C282 1.391 . S
H284 C292 0.950 . S
H285 C297 0.950 . S
H286 C294 0.950 . S
H287 C296 0.950 . S
H288 C298 0.950 . S
H289 C300 0.950 . S
H290 C302 0.950 . S
H291 C303 0.950 . S
C292 H284 0.950 . S
C292 C293 1.386 . S
C292 C294 1.391 . S
C293 C292 1.386 . S
C293 C297 1.393 . S
C294 H286 0.950 . S
C294 C292 1.391 . S
C294 C295 1.400 . S
C295 C294 1.400 . S
C295 C296 1.398 . S
C295 C301 1.491 . S
C296 H287 0.950 . S
C296 C295 1.398 . S
C296 C297 1.391 . S
C297 H285 0.950 . S
C297 C293 1.393 . S
C297 C296 1.391 . S
C298 H288 0.950 . S
C298 C299 1.386 . S
C298 C300 1.391 . S
C299 C298 1.386 . S
C299 C303 1.393 . S
C300 H289 0.950 . S
C300 C298 1.391 . S
C300 C301 1.400 . S
C301 C295 1.491 . S
C301 C300 1.400 . S
C301 C302 1.398 . S
C302 H290 0.950 . S
C302 C301 1.398 . S
C302 C303 1.391 . S
C303 H291 0.950 . S
C303 C299 1.393 . S
C303 C302 1.391 . S
H304 C312 0.950 . S
H305 C317 0.950 . S
H306 C314 0.950 . S
H307 C316 0.950 . S
H308 C318 0.950 . S
H309 C320 0.950 . S
H310 C322 0.950 . S
H311 C323 0.950 . S
C312 H304 0.950 . S
C312 C313 1.386 . S
C312 C314 1.391 . S
C313 C312 1.386 . S
C313 C317 1.393 . S
C314 H306 0.950 . S
C314 C312 1.391 . S
C314 C315 1.400 . S
C315 C314 1.400 . S
C315 C316 1.398 . S
C315 C321 1.491 . S
C316 H307 0.950 . S
C316 C315 1.398 . S
C316 C317 1.391 . S
C317 H305 0.950 . S
C317 C313 1.393 . S
C317 C316 1.391 . S
C318 H308 0.950 . S
C318 C319 1.386 . S
C318 C320 1.391 . S
C319 C318 1.386 . S
C319 C323 1.393 . S
C320 H309 0.950 . S
C320 C318 1.391 . S
C320 C321 1.400 . S
C321 C315 1.491 . S
C321 C320 1.400 . S
C321 C322 1.398 . S
C322 H310 0.950 . S
C322 C321 1.398 . S
C322 C323 1.391 . S
C323 H311 0.950 . S
C323 C319 1.393 . S
C323 C322 1.391 . S
H324 C332 0.950 . S
H325 C337 0.950 . S
H326 C334 0.950 . S
H327 C336 0.950 . S
H328 C338 0.950 . S
H329 C340 0.950 . S
H330 C342 0.950 . S
H331 C343 0.950 . S
C332 H324 0.950 . S
C332 C333 1.386 . S
C332 C334 1.391 . S
C333 C332 1.386 . S
C333 C337 1.393 . S
C334 H326 0.950 . S
C334 C332 1.391 . S
C334 C335 1.400 . S
C335 C334 1.400 . S
C335 C336 1.398 . S
C335 C341 1.491 . S
C336 H327 0.950 . S
C336 C335 1.398 . S
C336 C337 1.391 . S
C337 H325 0.950 . S
C337 C333 1.393 . S
C337 C336 1.391 . S
C338 H328 0.950 . S
C338 C339 1.386 . S
C338 C340 1.391 . S
C339 C338 1.386 . S
C339 C343 1.393 . S
C340 H329 0.950 . S
C340 C338 1.391 . S
C340 C341 1.400 . S
C341 C335 1.491 . S
C341 C340 1.400 . S
C341 C342 1.398 . S
C342 H330 0.950 . S
C342 C341 1.398 . S
C342 C343 1.391 . S
C343 H331 0.950 . S
C343 C339 1.393 . S
C343 C342 1.391 . S
H344 C352 0.950 . S
H345 C357 0.950 . S
H346 C354 0.950 . S
H347 C356 0.950 . S
H348 C358 0.950 . S
H349 C360 0.950 . S
H350 C362 0.950 . S
H351 C363 0.950 . S
C352 H344 0.950 . S
C352 C353 1.386 . S
C352 C354 1.391 . S
C353 C352 1.386 . S
C353 C357 1.393 . S
C354 H346 0.950 . S
C354 C352 1.391 . S
C354 C355 1.400 . S
C355 C354 1.400 . S
C355 C356 1.398 . S
C355 C361 1.491 . S
C356 H347 0.950 . S
C356 C355 1.398 . S
C356 C357 1.391 . S
C357 H345 0.950 . S
C357 C353 1.393 . S
C357 C356 1.391 . S
C358 H348 0.950 . S
C358 C359 1.386 . S
C358 C360 1.391 . S
C359 C358 1.386 . S
C359 C363 1.393 . S
C360 H349 0.950 . S
C360 C358 1.391 . S
C360 C361 1.400 . S
C361 C355 1.491 . S
C361 C360 1.400 . S
C361 C362 1.398 . S
C362 H350 0.950 . S
C362 C361 1.398 . S
C362 C363 1.391 . S
C363 H351 0.950 . S
C363 C359 1.393 . S
C363 C362 1.391 . S
H364 C372 0.950 . S
H365 C377 0.950 . S
H366 C374 0.950 . S
H367 C376 0.950 . S
H368 C378 0.950 . S
H369 C380 0.950 . S
H370 C382 0.950 . S
H371 C383 0.950 . S
C372 H364 0.950 . S
C372 C373 1.386 . S
C372 C374 1.391 . S
C373 C372 1.386 . S
C373 C377 1.393 . S
C374 H366 0.950 . S
C374 C372 1.391 . S
C374 C375 1.400 . S
C375 C374 1.400 . S
C375 C376 1.398 . S
C375 C381 1.491 . S
C376 H367 0.950 . S
C376 C375 1.398 . S
C376 C377 1.391 . S
C377 H365 0.950 . S
C377 C373 1.393 . S
C377 C376 1.391 . S
C378 H368 0.950 . S
C378 C379 1.386 . S
C378 C380 1.391 . S
C379 C378 1.386 . S
C379 C383 1.393 . S
C380 H369 0.950 . S
C380 C378 1.391 . S
C380 C381 1.400 . S
C381 C375 1.491 . S
C381 C380 1.400 . S
C381 C382 1.398 . S
C382 H370 0.950 . S
C382 C381 1.398 . S
C382 C383 1.391 . S
C383 H371 0.950 . S
C383 C379 1.393 . S
C383 C382 1.391 . S
H384 C392 0.950 . S
H385 C397 0.950 . S
H386 C394 0.950 . S
H387 C396 0.950 . S
H388 C398 0.950 . S
H389 C400 0.950 . S
H390 C402 0.950 . S
H391 C403 0.950 . S
C392 H384 0.950 . S
C392 C393 1.386 . S
C392 C394 1.391 . S
C393 C392 1.386 . S
C393 C397 1.393 . S
C394 H386 0.950 . S
C394 C392 1.391 . S
C394 C395 1.400 . S
C395 C394 1.400 . S
C395 C396 1.398 . S
C395 C401 1.491 1_556 S
C396 H387 0.950 . S
C396 C395 1.398 . S
C396 C397 1.391 . S
C397 H385 0.950 . S
C397 C393 1.393 . S
C397 C396 1.391 . S
C398 H388 0.950 . S
C398 C399 1.386 . S
C398 C400 1.391 . S
C399 C398 1.386 . S
C399 C403 1.393 . S
C400 H389 0.950 . S
C400 C398 1.391 . S
C400 C401 1.400 . S
C401 C395 1.491 1_554 S
C401 C400 1.400 . S
C401 C402 1.398 . S
C402 H390 0.950 . S
C402 C401 1.398 . S
C402 C403 1.391 . S
C403 H391 0.950 . S
C403 C399 1.393 . S
C403 C402 1.391 . S
H404 C412 0.950 . S
H405 C417 0.950 . S
H406 C414 0.950 . S
H407 C416 0.950 . S
H408 C418 0.950 . S
H409 C420 0.950 . S
H410 C422 0.950 . S
H411 C423 0.950 . S
C412 H404 0.950 . S
C412 C413 1.386 . S
C412 C414 1.391 . S
C413 C412 1.386 . S
C413 C417 1.393 . S
C414 H406 0.950 . S
C414 C412 1.391 . S
C414 C415 1.400 . S
C415 C414 1.400 . S
C415 C416 1.398 . S
C415 C421 1.491 1_556 S
C416 H407 0.950 . S
C416 C415 1.398 . S
C416 C417 1.391 . S
C417 H405 0.950 . S
C417 C413 1.393 . S
C417 C416 1.391 . S
C418 H408 0.950 . S
C418 C419 1.386 . S
C418 C420 1.391 . S
C419 C418 1.386 . S
C419 C423 1.393 . S
C420 H409 0.950 . S
C420 C418 1.391 . S
C420 C421 1.400 . S
C421 C415 1.491 1_554 S
C421 C420 1.400 . S
C421 C422 1.398 . S
C422 H410 0.950 . S
C422 C421 1.398 . S
C422 C423 1.391 . S
C423 H411 0.950 . S
C423 C419 1.393 . S
C423 C422 1.391 . S
H424 C432 0.950 . S
H425 C437 0.950 . S
H426 C434 0.950 . S
H427 C436 0.950 . S
H428 C438 0.950 . S
H429 C440 0.950 . S
H430 C442 0.950 . S
H431 C443 0.950 . S
C432 H424 0.950 . S
C432 C433 1.386 . S
C432 C434 1.391 . S
C433 C432 1.386 . S
C433 C437 1.393 . S
C434 H426 0.950 . S
C434 C432 1.391 . S
C434 C435 1.400 . S
C435 C434 1.400 . S
C435 C436 1.398 . S
C435 C441 1.491 1_556 S
C436 H427 0.950 . S
C436 C435 1.398 . S
C436 C437 1.391 . S
C437 H425 0.950 . S
C437 C433 1.393 . S
C437 C436 1.391 . S
C438 H428 0.950 . S
C438 C439 1.386 . S
C438 C440 1.391 . S
C439 C438 1.386 . S
C439 C443 1.393 . S
C440 H429 0.950 . S
C440 C438 1.391 . S
C440 C441 1.400 . S
C441 C435 1.491 1_554 S
C441 C440 1.400 . S
C441 C442 1.398 . S
C442 H430 0.950 . S
C442 C441 1.398 . S
C442 C443 1.391 . S
C443 H431 0.950 . S
C443 C439 1.393 . S
C443 C442 1.391 . S
H444 C452 0.950 . S
H445 C457 0.950 . S
H446 C454 0.950 . S
H447 C456 0.950 . S
H448 C458 0.950 . S
H449 C460 0.950 . S
H450 C462 0.950 . S
H451 C463 0.950 . S
C452 H444 0.950 . S
C452 C453 1.386 . S
C452 C454 1.391 . S
C453 C452 1.386 . S
C453 C457 1.393 . S
C454 H446 0.950 . S
C454 C452 1.391 . S
C454 C455 1.400 . S
C455 C454 1.400 . S
C455 C456 1.398 . S
C455 C461 1.491 1_554 S
C456 H447 0.950 . S
C456 C455 1.398 . S
C456 C457 1.391 . S
C457 H445 0.950 . S
C457 C453 1.393 . S
C457 C456 1.391 . S
C458 H448 0.950 . S
C458 C459 1.386 . S
C458 C460 1.391 . S
C459 C458 1.386 . S
C459 C463 1.393 . S
C460 H449 0.950 . S
C460 C458 1.391 . S
C460 C461 1.400 . S
C461 C455 1.491 1_556 S
C461 C460 1.400 . S
C461 C462 1.398 . S
C462 H450 0.950 . S
C462 C461 1.398 . S
C462 C463 1.391 . S
C463 H451 0.950 . S
C463 C459 1.393 . S
C463 C462 1.391 . S
H464 C472 0.950 . S
H465 C477 0.950 . S
H466 C474 0.950 . S
H467 C476 0.950 . S
H468 C478 0.950 . S
H469 C480 0.950 . S
H470 C482 0.950 . S
H471 C483 0.950 . S
C472 H464 0.950 . S
C472 C473 1.386 . S
C472 C474 1.391 . S
C473 C472 1.386 . S
C473 C477 1.393 . S
C474 H466 0.950 . S
C474 C472 1.391 . S
C474 C475 1.400 . S
C475 C474 1.400 . S
C475 C476 1.398 . S
C475 C481 1.491 . S
C476 H467 0.950 . S
C476 C475 1.398 . S
C476 C477 1.391 . S
C477 H465 0.950 . S
C477 C473 1.393 . S
C477 C476 1.391 . S
C478 H468 0.950 . S
C478 C479 1.386 . S
C478 C480 1.391 . S
C479 C478 1.386 . S
C479 C483 1.393 . S
C480 H469 0.950 . S
C480 C478 1.391 . S
C480 C481 1.400 . S
C481 C475 1.491 . S
C481 C480 1.400 . S
C481 C482 1.398 . S
C482 H470 0.950 . S
C482 C481 1.398 . S
C482 C483 1.391 . S
C483 H471 0.950 . S
C483 C479 1.393 . S
C483 C482 1.391 . S
H484 C492 0.950 . S
H485 C497 0.950 . S
H486 C494 0.950 . S
H487 C496 0.950 . S
H488 C498 0.950 . S
H489 C500 0.950 . S
H490 C502 0.950 . S
H491 C503 0.950 . S
C492 H484 0.950 . S
C492 C493 1.386 . S
C492 C494 1.391 . S
C493 C492 1.386 . S
C493 C497 1.393 . S
C494 H486 0.950 . S
C494 C492 1.391 . S
C494 C495 1.400 . S
C495 C494 1.400 . S
C495 C496 1.398 . S
C495 C501 1.491 . S
C496 H487 0.950 . S
C496 C495 1.398 . S
C496 C497 1.391 . S
C497 H485 0.950 . S
C497 C493 1.393 . S
C497 C496 1.391 . S
C498 H488 0.950 . S
C498 C499 1.386 . S
C498 C500 1.391 . S
C499 C498 1.386 . S
C499 C503 1.393 . S
C500 H489 0.950 . S
C500 C498 1.391 . S
C500 C501 1.400 . S
C501 C495 1.491 . S
C501 C500 1.400 . S
C501 C502 1.398 . S
C502 H490 0.950 . S
C502 C501 1.398 . S
C502 C503 1.391 . S
C503 H491 0.950 . S
C503 C499 1.393 . S
C503 C502 1.391 . S
H504 C512 0.950 . S
H505 C517 0.950 . S
H506 C514 0.950 . S
H507 C516 0.950 . S
H508 C518 0.950 . S
H509 C520 0.950 . S
H510 C522 0.950 . S
H511 C523 0.950 . S
C512 H504 0.950 . S
C512 C513 1.386 . S
C512 C514 1.391 . S
C513 C512 1.386 . S
C513 C517 1.393 . S
C514 H506 0.950 . S
C514 C512 1.391 . S
C514 C515 1.400 . S
C515 C514 1.400 . S
C515 C516 1.398 . S
C515 C521 1.491 . S
C516 H507 0.950 . S
C516 C515 1.398 . S
C516 C517 1.391 . S
C517 H505 0.950 . S
C517 C513 1.393 . S
C517 C516 1.391 . S
C518 H508 0.950 . S
C518 C519 1.386 . S
C518 C520 1.391 . S
C519 C518 1.386 . S
C519 C523 1.393 . S
C520 H509 0.950 . S
C520 C518 1.391 . S
C520 C521 1.400 . S
C521 C515 1.491 . S
C521 C520 1.400 . S
C521 C522 1.398 . S
C522 H510 0.950 . S
C522 C521 1.398 . S
C522 C523 1.391 . S
C523 H511 0.950 . S
C523 C519 1.393 . S
C523 C522 1.391 . S
H524 C532 0.950 . S
H525 C537 0.950 . S
H526 C534 0.950 . S
H527 C536 0.950 . S
H528 C538 0.950 . S
H529 C540 0.950 . S
H530 C542 0.950 . S
H531 C543 0.950 . S
C532 H524 0.950 . S
C532 C533 1.386 . S
C532 C534 1.391 . S
C533 C532 1.386 . S
C533 C537 1.393 . S
C534 H526 0.950 . S
C534 C532 1.391 . S
C534 C535 1.400 . S
C535 C534 1.400 . S
C535 C536 1.398 . S
C535 C541 1.491 . S
C536 H527 0.950 . S
C536 C535 1.398 . S
C536 C537 1.391 . S
C537 H525 0.950 . S
C537 C533 1.393 . S
C537 C536 1.391 . S
C538 H528 0.950 . S
C538 C539 1.386 . S
C538 C540 1.391 . S
C539 C538 1.386 . S
C539 C543 1.393 . S
C540 H529 0.950 . S
C540 C538 1.391 . S
C540 C541 1.400 . S
C541 C535 1.491 . S
C541 C540 1.400 . S
C541 C542 1.398 . S
C542 H530 0.950 . S
C542 C541 1.398 . S
C542 C543 1.391 . S
C543 H531 0.950 . S
C543 C539 1.393 . S
C543 C542 1.391 . S
H544 C552 0.950 . S
H545 C557 0.950 . S
H546 C554 0.950 . S
H547 C556 0.950 . S
H548 C558 0.950 . S
H549 C560 0.950 . S
H550 C562 0.950 . S
H551 C563 0.950 . S
C552 H544 0.950 . S
C552 C553 1.386 . S
C552 C554 1.391 . S
C553 C552 1.386 . S
C553 C557 1.393 . S
C554 H546 0.950 . S
C554 C552 1.391 . S
C554 C555 1.400 . S
C555 C554 1.400 . S
C555 C556 1.398 . S
C555 C561 1.491 . S
C556 H547 0.950 . S
C556 C555 1.398 . S
C556 C557 1.391 . S
C557 H545 0.950 . S
C557 C553 1.393 . S
C557 C556 1.391 . S
C558 H548 0.950 . S
C558 C559 1.386 . S
C558 C560 1.391 . S
C559 C558 1.386 . S
C559 C563 1.393 . S
C560 H549 0.950 . S
C560 C558 1.391 . S
C560 C561 1.400 . S
C561 C555 1.491 . S
C561 C560 1.400 . S
C561 C562 1.398 . S
C562 H550 0.950 . S
C562 C561 1.398 . S
C562 C563 1.391 . S
C563 H551 0.950 . S
C563 C559 1.393 . S
C563 C562 1.391 . S
H564 C572 0.950 . S
H565 C577 0.950 . S
H566 C574 0.950 . S
H567 C576 0.950 . S
H568 C578 0.950 . S
H569 C580 0.950 . S
H570 C582 0.950 . S
H571 C583 0.950 . S
C572 H564 0.950 . S
C572 C573 1.386 . S
C572 C574 1.391 . S
C573 C572 1.386 . S
C573 C577 1.393 . S
C574 H566 0.950 . S
C574 C572 1.391 . S
C574 C575 1.400 . S
C575 C574 1.400 . S
C575 C576 1.398 . S
C575 C581 1.491 . S
C576 H567 0.950 . S
C576 C575 1.398 . S
C576 C577 1.391 . S
C577 H565 0.950 . S
C577 C573 1.393 . S
C577 C576 1.391 . S
C578 H568 0.950 . S
C578 C579 1.386 . S
C578 C580 1.391 . S
C579 C578 1.386 . S
C579 C583 1.393 . S
C580 H569 0.950 . S
C580 C578 1.391 . S
C580 C581 1.400 . S
C581 C575 1.491 . S
C581 C580 1.400 . S
C581 C582 1.398 . S
C582 H570 0.950 . S
C582 C581 1.398 . S
C582 C583 1.391 . S
C583 H571 0.950 . S
C583 C579 1.393 . S
C583 C582 1.391 . S
H584 C592 0.950 . S
H585 C597 0.950 . S
H586 C594 0.950 . S
H587 C596 0.950 . S
H588 C598 0.950 . S
H589 C600 0.950 . S
H590 C602 0.950 . S
H591 C603 0.950 . S
C592 H584 0.950 . S
C592 C593 1.386 . S
C592 C594 1.391 . S
C593 C592 1.386 . S
C593 C597 1.393 . S
C594 H586 0.950 . S
C594 C592 1.391 . S
C594 C595 1.400 . S
C595 C594 1.400 . S
C595 C596 1.398 . S
C595 C601 1.491 . S
C596 H587 0.950 . S
C596 C595 1.398 . S
C596 C597 1.391 . S
C597 H585 0.950 . S
C597 C593 1.393 . S
C597 C596 1.391 . S
C598 H588 0.950 . S
C598 C599 1.386 . S
C598 C600 1.391 . S
C599 C598 1.386 . S
C599 C603 1.393 . S
C600 H589 0.950 . S
C600 C598 1.391 . S
C600 C601 1.400 . S
C601 C595 1.491 . S
C601 C600 1.400 . S
C601 C602 1.398 . S
C602 H590 0.950 . S
C602 C601 1.398 . S
C602 C603 1.391 . S
C603 H591 0.950 . S
C603 C599 1.393 . S
C603 C602 1.391 . S
H604 C612 0.950 . S
H605 C617 0.950 . S
H606 C614 0.950 . S
H607 C616 0.950 . S
H608 C618 0.950 . S
H609 C620 0.950 . S
H610 C622 0.950 . S
H611 C623 0.950 . S
C612 H604 0.950 . S
C612 C613 1.386 . S
C612 C614 1.391 . S
C613 C612 1.386 . S
C613 C617 1.393 . S
C614 H606 0.950 . S
C614 C612 1.391 . S
C614 C615 1.400 . S
C615 C614 1.400 . S
C615 C616 1.398 . S
C615 C621 1.491 . S
C616 H607 0.950 . S
C616 C615 1.398 . S
C616 C617 1.391 . S
C617 H605 0.950 . S
C617 C613 1.393 . S
C617 C616 1.391 . S
C618 H608 0.950 . S
C618 C619 1.386 . S
C618 C620 1.391 . S
C619 C618 1.386 . S
C619 C623 1.393 . S
C620 H609 0.950 . S
C620 C618 1.391 . S
C620 C621 1.400 . S
C621 C615 1.491 . S
C621 C620 1.400 . S
C621 C622 1.398 . S
C622 H610 0.950 . S
C622 C621 1.398 . S
C622 C623 1.391 . S
C623 H611 0.950 . S
C623 C619 1.393 . S
C623 C622 1.391 . S
H624 C632 0.950 . S
H625 C637 0.950 . S
H626 C634 0.950 . S
H627 C636 0.950 . S
H628 C638 0.950 . S
H629 C640 0.950 . S
H630 C642 0.950 . S
H631 C643 0.950 . S
C632 H624 0.950 . S
C632 C633 1.386 . S
C632 C634 1.391 . S
C633 C632 1.386 . S
C633 C637 1.393 . S
C634 H626 0.950 . S
C634 C632 1.391 . S
C634 C635 1.400 . S
C635 C634 1.400 . S
C635 C636 1.398 . S
C635 C641 1.491 . S
C636 H627 0.950 . S
C636 C635 1.398 . S
C636 C637 1.391 . S
C637 H625 0.950 . S
C637 C633 1.393 . S
C637 C636 1.391 . S
C638 H628 0.950 . S
C638 C639 1.386 . S
C638 C640 1.391 . S
C639 C638 1.386 . S
C639 C643 1.393 . S
C640 H629 0.950 . S
C640 C638 1.391 . S
C640 C641 1.400 . S
C641 C635 1.491 . S
C641 C640 1.400 . S
C641 C642 1.398 . S
C642 H630 0.950 . S
C642 C641 1.398 . S
C642 C643 1.391 . S
C643 H631 0.950 . S
C643 C639 1.393 . S
C643 C642 1.391 . S
H644 C652 0.950 . S
H645 C657 0.950 . S
H646 C654 0.950 . S
H647 C656 0.950 . S
H648 C658 0.950 . S
H649 C660 0.950 . S
H650 C662 0.950 . S
H651 C663 0.950 . S
C652 H644 0.950 . S
C652 C653 1.386 . S
C652 C654 1.391 . S
C653 C652 1.386 . S
C653 C657 1.393 . S
C654 H646 0.950 . S
C654 C652 1.391 . S
C654 C655 1.400 . S
C655 C654 1.400 . S
C655 C656 1.398 . S
C655 C661 1.491 . S
C656 H647 0.950 . S
C656 C655 1.398 . S
C656 C657 1.391 . S
C657 H645 0.950 . S
C657 C653 1.393 . S
C657 C656 1.391 . S
C658 H648 0.950 . S
C658 C659 1.386 . S
C658 C660 1.391 . S
C659 C658 1.386 . S
C659 C663 1.393 . S
C660 H649 0.950 . S
C660 C658 1.391 . S
C660 C661 1.400 . S
C661 C655 1.491 . S
C661 C660 1.400 . S
C661 C662 1.398 . S
C662 H650 0.950 . S
C662 C661 1.398 . S
C662 C663 1.391 . S
C663 H651 0.950 . S
C663 C659 1.393 . S
C663 C662 1.391 . S
H664 C672 0.950 . S
H665 C677 0.950 . S
H666 C674 0.950 . S
H667 C676 0.950 . S
H668 C678 0.950 . S
H669 C680 0.950 . S
H670 C682 0.950 . S
H671 C683 0.950 . S
C672 H664 0.950 . S
C672 C673 1.386 . S
C672 C674 1.391 . S
C673 C672 1.386 . S
C673 C677 1.393 . S
C674 H666 0.950 . S
C674 C672 1.391 . S
C674 C675 1.400 . S
C675 C674 1.400 . S
C675 C676 1.398 . S
C675 C681 1.491 . S
C676 H667 0.950 . S
C676 C675 1.398 . S
C676 C677 1.391 . S
C677 H665 0.950 . S
C677 C673 1.393 . S
C677 C676 1.391 . S
C678 H668 0.950 . S
C678 C679 1.386 . S
C678 C680 1.391 . S
C679 C678 1.386 . S
C679 C683 1.393 . S
C680 H669 0.950 . S
C680 C678 1.391 . S
C680 C681 1.400 . S
C681 C675 1.491 . S
C681 C680 1.400 . S
C681 C682 1.398 . S
C682 H670 0.950 . S
C682 C681 1.398 . S
C682 C683 1.391 . S
C683 H671 0.950 . S
C683 C679 1.393 . S
C683 C682 1.391 . S
H684 C692 0.950 . S
H685 C697 0.950 . S
H686 C694 0.950 . S
H687 C696 0.950 . S
H688 C698 0.950 . S
H689 C700 0.950 . S
H690 C702 0.950 . S
H691 C703 0.950 . S
C692 H684 0.950 . S
C692 C693 1.386 . S
C692 C694 1.391 . S
C693 C692 1.386 . S
C693 C697 1.393 . S
C694 H686 0.950 . S
C694 C692 1.391 . S
C694 C695 1.400 . S
C695 C694 1.400 . S
C695 C696 1.398 . S
C695 C701 1.491 . S
C696 H687 0.950 . S
C696 C695 1.398 . S
C696 C697 1.391 . S
C697 H685 0.950 . S
C697 C693 1.393 . S
C697 C696 1.391 . S
C698 H688 0.950 . S
C698 C699 1.386 . S
C698 C700 1.391 . S
C699 C698 1.386 . S
C699 C703 1.393 . S
C700 H689 0.950 . S
C700 C698 1.391 . S
C700 C701 1.400 . S
C701 C695 1.491 . S
C701 C700 1.400 . S
C701 C702 1.398 . S
C702 H690 0.950 . S
C702 C701 1.398 . S
C702 C703 1.391 . S
C703 H691 0.950 . S
C703 C699 1.393 . S
C703 C702 1.391 . S
H704 C712 0.950 . S
H705 C717 0.950 . S
H706 C714 0.950 . S
H707 C716 0.950 . S
H708 C718 0.950 . S
H709 C720 0.950 . S
H710 C722 0.950 . S
H711 C723 0.950 . S
C712 H704 0.950 . S
C712 C713 1.386 . S
C712 C714 1.391 . S
C713 C712 1.386 . S
C713 C717 1.393 . S
C714 H706 0.950 . S
C714 C712 1.391 . S
C714 C715 1.400 . S
C715 C714 1.400 . S
C715 C716 1.398 . S
C715 C721 1.491 1_545 S
C716 H707 0.950 . S
C716 C715 1.398 . S
C716 C717 1.391 . S
C717 H705 0.950 . S
C717 C713 1.393 . S
C717 C716 1.391 . S
C718 H708 0.950 . S
C718 C719 1.386 . S
C718 C720 1.391 . S
C719 C718 1.386 . S
C719 C723 1.393 . S
C720 H709 0.950 . S
C720 C718 1.391 . S
C720 C721 1.400 . S
C721 C715 1.491 1_565 S
C721 C720 1.400 . S
C721 C722 1.398 . S
C722 H710 0.950 . S
C722 C721 1.398 . S
C722 C723 1.391 . S
C723 H711 0.950 . S
C723 C719 1.393 . S
C723 C722 1.391 . S
H724 C732 0.950 . S
H725 C737 0.950 . S
H726 C734 0.950 . S
H727 C736 0.950 . S
H728 C738 0.950 . S
H729 C740 0.950 . S
H730 C742 0.950 . S
H731 C743 0.950 . S
C732 H724 0.950 . S
C732 C733 1.386 . S
C732 C734 1.391 . S
C733 C732 1.386 . S
C733 C737 1.393 . S
C734 H726 0.950 . S
C734 C732 1.391 . S
C734 C735 1.400 . S
C735 C734 1.400 . S
C735 C736 1.398 . S
C735 C741 1.491 1_655 S
C736 H727 0.950 . S
C736 C735 1.398 . S
C736 C737 1.391 . S
C737 H725 0.950 . S
C737 C733 1.393 . S
C737 C736 1.391 . S
C738 H728 0.950 . S
C738 C739 1.386 . S
C738 C740 1.391 . S
C739 C738 1.386 . S
C739 C743 1.393 . S
C740 H729 0.950 . S
C740 C738 1.391 . S
C740 C741 1.400 . S
C741 C735 1.491 1_455 S
C741 C740 1.400 . S
C741 C742 1.398 . S
C742 H730 0.950 . S
C742 C741 1.398 . S
C742 C743 1.391 . S
C743 H731 0.950 . S
C743 C739 1.393 . S
C743 C742 1.391 . S
H744 C752 0.950 . S
H745 C757 0.950 . S
H746 C754 0.950 . S
H747 C756 0.950 . S
H748 C758 0.950 . S
H749 C760 0.950 . S
H750 C762 0.950 . S
H751 C763 0.950 . S
C752 H744 0.950 . S
C752 C753 1.386 . S
C752 C754 1.391 . S
C753 C752 1.386 . S
C753 C757 1.393 . S
C754 H746 0.950 . S
C754 C752 1.391 . S
C754 C755 1.400 . S
C755 C754 1.400 . S
C755 C756 1.398 . S
C755 C761 1.491 1_545 S
C756 H747 0.950 . S
C756 C755 1.398 . S
C756 C757 1.391 . S
C757 H745 0.950 . S
C757 C753 1.393 . S
C757 C756 1.391 . S
C758 H748 0.950 . S
C758 C759 1.386 . S
C758 C760 1.391 . S
C759 C758 1.386 . S
C759 C763 1.393 . S
C760 H749 0.950 . S
C760 C758 1.391 . S
C760 C761 1.400 . S
C761 C755 1.491 1_565 S
C761 C760 1.400 . S
C761 C762 1.398 . S
C762 H750 0.950 . S
C762 C761 1.398 . S
C762 C763 1.391 . S
C763 H751 0.950 . S
C763 C759 1.393 . S
C763 C762 1.391 . S
H764 C772 0.950 . S
H765 C777 0.950 . S
H766 C774 0.950 . S
H767 C776 0.950 . S
H768 C778 0.950 . S
H769 C780 0.950 . S
H770 C782 0.950 . S
H771 C783 0.950 . S
C772 H764 0.950 . S
C772 C773 1.386 . S
C772 C774 1.391 . S
C773 C772 1.386 . S
C773 C777 1.393 . S
C774 H766 0.950 . S
C774 C772 1.391 . S
C774 C775 1.400 . S
C775 C774 1.400 . S
C775 C776 1.398 . S
C775 C781 1.491 1_455 S
C776 H767 0.950 . S
C776 C775 1.398 . S
C776 C777 1.391 . S
C777 H765 0.950 . S
C777 C773 1.393 . S
C777 C776 1.391 . S
C778 H768 0.950 . S
C778 C779 1.386 . S
C778 C780 1.391 . S
C779 C778 1.386 . S
C779 C783 1.393 . S
C780 H769 0.950 . S
C780 C778 1.391 . S
C780 C781 1.400 . S
C781 C775 1.491 1_655 S
C781 C780 1.400 . S
C781 C782 1.398 . S
C782 H770 0.950 . S
C782 C781 1.398 . S
C782 C783 1.391 . S
C783 H771 0.950 . S
C783 C779 1.393 . S
C783 C782 1.391 . S
H784 C792 0.950 . S
H785 C797 0.950 . S
H786 C794 0.950 . S
H787 C796 0.950 . S
H788 C798 0.950 . S
H789 C800 0.950 . S
H790 C802 0.950 . S
H791 C803 0.950 . S
C792 H784 0.950 . S
C792 C793 1.386 . S
C792 C794 1.391 . S
C793 C792 1.386 . S
C793 C797 1.393 . S
C794 H786 0.950 . S
C794 C792 1.391 . S
C794 C795 1.400 . S
C795 C794 1.400 . S
C795 C796 1.398 . S
C795 C801 1.491 1_545 S
C796 H787 0.950 . S
C796 C795 1.398 . S
C796 C797 1.391 . S
C797 H785 0.950 . S
C797 C793 1.393 . S
C797 C796 1.391 . S
C798 H788 0.950 . S
C798 C799 1.386 . S
C798 C800 1.391 . S
C799 C798 1.386 . S
C799 C803 1.393 . S
C800 H789 0.950 . S
C800 C798 1.391 . S
C800 C801 1.400 . S
C801 C795 1.491 1_565 S
C801 C800 1.400 . S
C801 C802 1.398 . S
C802 H790 0.950 . S
C802 C801 1.398 . S
C802 C803 1.391 . S
C803 H791 0.950 . S
C803 C799 1.393 . S
C803 C802 1.391 . S
H804 C812 0.950 . S
H805 C817 0.950 . S
H806 C814 0.950 . S
H807 C816 0.950 . S
H808 C818 0.950 . S
H809 C820 0.950 . S
H810 C822 0.950 . S
H811 C823 0.950 . S
C812 H804 0.950 . S
C812 C813 1.386 . S
C812 C814 1.391 . S
C813 C812 1.386 . S
C813 C817 1.393 . S
C814 H806 0.950 . S
C814 C812 1.391 . S
C814 C815 1.400 . S
C815 C814 1.400 . S
C815 C816 1.398 . S
C815 C821 1.491 1_655 S
C816 H807 0.950 . S
C816 C815 1.398 . S
C816 C817 1.391 . S
C817 H805 0.950 . S
C817 C813 1.393 . S
C817 C816 1.391 . S
C818 H808 0.950 . S
C818 C819 1.386 . S
C818 C820 1.391 . S
C819 C818 1.386 . S
C819 C823 1.393 . S
C820 H809 0.950 . S
C820 C818 1.391 . S
C820 C821 1.400 . S
C821 C815 1.491 1_455 S
C821 C820 1.400 . S
C821 C822 1.398 . S
C822 H810 0.950 . S
C822 C821 1.398 . S
C822 C823 1.391 . S
C823 H811 0.950 . S
C823 C819 1.393 . S
C823 C822 1.391 . S
H824 C832 0.950 . S
H825 C837 0.950 . S
H826 C834 0.950 . S
H827 C836 0.950 . S
H828 C838 0.950 . S
H829 C840 0.950 . S
H830 C842 0.950 . S
H831 C843 0.950 . S
C832 H824 0.950 . S
C832 C833 1.386 . S
C832 C834 1.391 . S
C833 C832 1.386 . S
C833 C837 1.393 . S
C834 H826 0.950 . S
C834 C832 1.391 . S
C834 C835 1.400 . S
C835 C834 1.400 . S
C835 C836 1.398 . S
C835 C841 1.491 1_565 S
C836 H827 0.950 . S
C836 C835 1.398 . S
C836 C837 1.391 . S
C837 H825 0.950 . S
C837 C833 1.393 . S
C837 C836 1.391 . S
C838 H828 0.950 . S
C838 C839 1.386 . S
C838 C840 1.391 . S
C839 C838 1.386 . S
C839 C843 1.393 . S
C840 H829 0.950 . S
C840 C838 1.391 . S
C840 C841 1.400 . S
C841 C835 1.491 1_545 S
C841 C840 1.400 . S
C841 C842 1.398 . S
C842 H830 0.950 . S
C842 C841 1.398 . S
C842 C843 1.391 . S
C843 H831 0.950 . S
C843 C839 1.393 . S
C843 C842 1.391 . S
H844 C852 0.950 . S
H845 C857 0.950 . S
H846 C854 0.950 . S
H847 C856 0.950 . S
H848 C858 0.950 . S
H849 C860 0.950 . S
H850 C862 0.950 . S
H851 C863 0.950 . S
C852 H844 0.950 . S
C852 C853 1.386 . S
C852 C854 1.391 . S
C853 C852 1.386 . S
C853 C857 1.393 . S
C854 H846 0.950 . S
C854 C852 1.391 . S
C854 C855 1.400 . S
C855 C854 1.400 . S
C855 C856 1.398 . S
C855 C861 1.491 1_455 S
C856 H847 0.950 . S
C856 C855 1.398 . S
C856 C857 1.391 . S
C857 H845 0.950 . S
C857 C853 1.393 . S
C857 C856 1.391 . S
C858 H848 0.950 . S
C858 C859 1.386 . S
C858 C860 1.391 . S
C859 C858 1.386 . S
C859 C863 1.393 . S
C860 H849 0.950 . S
C860 C858 1.391 . S
C860 C861 1.400 . S
C861 C855 1.491 1_655 S
C861 C860 1.400 . S
C861 C862 1.398 . S
C862 H850 0.950 . S
C862 C861 1.398 . S
C862 C863 1.391 . S
C863 H851 0.950 . S
C863 C859 1.393 . S
C863 C862 1.391 . S
C233 C81 1.313 . S
C239 C11 1.307 . S
C253 C95 1.311 . S
C259 C25 1.312 . S
C273 C39 1.306 . S
C279 C109 1.313 . S
C293 C53 1.313 . S
C299 C67 1.310 . S
C313 C193 1.313 . S
C319 C123 1.310 . S
C333 C207 1.305 . S
C339 C137 1.311 . S
C353 C151 1.305 . S
C359 C221 1.308 . S
C373 C165 1.309 . S
C379 C179 1.305 . S
C393 C153 1.386 . S
C399 C13 1.390 . S
C413 C167 1.412 . S
C419 C27 1.377 . S
C433 C125 1.378 . S
C439 C41 1.412 . S
C453 C55 1.387 . S
C459 C139 1.410 . S
C473 C209 1.412 . S
C479 C69 1.378 . S
C493 C223 1.387 . S
C499 C83 1.389 . S
C513 C97 1.376 . S
C519 C181 1.404 . S
C533 C195 1.403 . S
C539 C111 1.377 . S
C553 C64 1.578 . S
C559 C8 1.570 . S
C573 C22 1.572 . S
C579 C78 1.571 . S
C593 C36 1.577 . S
C599 C92 1.570 . S
C613 C106 1.580 . S
C619 C50 1.588 . S
C633 C119 1.223 . S
C639 C175 1.209 . S
C653 C189 1.210 . S
C659 C133 1.208 . S
C673 C147 1.226 . S
C679 C203 1.218 . S
C693 C217 1.207 . S
C699 C161 1.222 . S
C713 C162 1.582 . S
C719 C190 1.572 . S
C733 C120 1.585 . S
C739 C204 1.589 . S
C753 C218 1.572 . S
C759 C134 1.572 . S
C773 C148 1.589 . S
C779 C176 1.582 . S
C793 C77 1.208 . S
C799 C49 1.223 . S
C813 C91 1.216 . S
C819 C7 1.206 . S
C833 C105 1.226 . S
C839 C21 1.215 . S
C853 C63 1.216 . S
C859 C35 1.226 . S
