# Generated by pormake.
# Topology crb, (4)-cn, num edge types: 1
# Building blocks:
#     Node 0, Type 0, BuildingBlock: AZAVOO_clean_sbu_0, # of connection points: 4
#     Node 1, Type 0, BuildingBlock: AZAVOO_clean_sbu_0, # of connection points: 4
#     Node 2, Type 0, BuildingBlock: AZAVOO_clean_sbu_0, # of connection points: 4
#     Node 3, Type 0, BuildingBlock: AZAVOO_clean_sbu_0, # of connection points: 4
#     Node 4, Type 0, BuildingBlock: AZAVOO_clean_sbu_0, # of connection points: 4
#     Node 5, Type 0, BuildingBlock: AZAVOO_clean_sbu_0, # of connection points: 4
#     Node 6, Type 0, BuildingBlock: AZAVOO_clean_sbu_0, # of connection points: 4
#     Node 7, Type 0, BuildingBlock: AZAVOO_clean_sbu_0, # of connection points: 4
#     Edge 8, Type (0, 0), BuildingBlock: FUNLAD_clean_linker_0, # of connection points: 2
#     Edge 9, Type (0, 0), BuildingBlock: FUNLAD_clean_linker_0, # of connection points: 2
#     Edge 10, Type (0, 0), BuildingBlock: FUNLAD_clean_linker_0, # of connection points: 2
#     Edge 11, Type (0, 0), BuildingBlock: FUNLAD_clean_linker_0, # of connection points: 2
#     Edge 12, Type (0, 0), BuildingBlock: FUNLAD_clean_linker_0, # of connection points: 2
#     Edge 13, Type (0, 0), BuildingBlock: FUNLAD_clean_linker_0, # of connection points: 2
#     Edge 14, Type (0, 0), BuildingBlock: FUNLAD_clean_linker_0, # of connection points: 2
#     Edge 15, Type (0, 0), BuildingBlock: FUNLAD_clean_linker_0, # of connection points: 2
#     Edge 16, Type (0, 0), BuildingBlock: FUNLAD_clean_linker_0, # of connection points: 2
#     Edge 17, Type (0, 0), BuildingBlock: FUNLAD_clean_linker_0, # of connection points: 2
#     Edge 18, Type (0, 0), BuildingBlock: FUNLAD_clean_linker_0, # of connection points: 2
#     Edge 19, Type (0, 0), BuildingBlock: FUNLAD_clean_linker_0, # of connection points: 2
#     Edge 20, Type (0, 0), BuildingBlock: FUNLAD_clean_linker_0, # of connection points: 2
#     Edge 21, Type (0, 0), BuildingBlock: FUNLAD_clean_linker_0, # of connection points: 2
#     Edge 22, Type (0, 0), BuildingBlock: FUNLAD_clean_linker_0, # of connection points: 2
#     Edge 23, Type (0, 0), BuildingBlock: FUNLAD_clean_linker_0, # of connection points: 2
# Relax obj value: 0.038
# Max RMSD: 0.067
# Mean RMSD: 0.067
data_MOF--net-crb--node1-AZAVOO_clean_sbu_0--edge1-FUNLAD_clean_linker_0
_symmetry_space_group_name_H-M    P1
_symmetry_Int_Tables_number       1
_symmetry_cell_setting            triclinic
loop_
_symmetry_equiv_pos_as_xyz
'x, y, z'
_cell_length_a     52.472047
_cell_length_b     44.095751
_cell_length_c     29.975711
_cell_angle_alpha  89.995842
_cell_angle_beta   89.918959
_cell_angle_gamma 90.051161
loop_
_atom_site_label
_atom_site_type_symbol
_atom_site_fract_x
_atom_site_fract_y
_atom_site_fract_z
_atom_type_partial_charge
Mg0 Mg 0.32901 0.29655 0.95093 0.0
O1 O 0.31886 0.34458 0.9749 0.0
O2 O 0.27649 0.34895 0.96923 0.0
Mg3 Mg 0.25982 0.30614 0.93734 0.0
C4 C 0.29826 0.35967 0.98006 0.0
C5 C 0.38516 0.28148 0.96348 0.0
O6 O 0.37707 0.26153 0.93416 0.0
O7 O 0.31216 0.27616 0.01511 0.0
O8 O 0.27054 0.27894 -0.00091 0.0
O9 O 0.33341 0.31219 0.87978 0.0
O10 O 0.29734 0.29663 0.90984 0.0
C11 C 0.28882 0.2702 0.02401 0.0
C12 C 0.30917 0.30746 0.87594 0.0
O13 O 0.36922 0.30017 0.97976 0.0
Mg14 Mg 0.67011 0.2938 0.06832 0.0
O15 O 0.68161 0.34162 0.0447 0.0
O16 O 0.72405 0.34431 0.05029 0.0
Mg17 Mg 0.73951 0.30053 0.08061 0.0
C18 C 0.70261 0.35594 0.03968 0.0
C19 C 0.6193 0.27685 0.02087 0.0
O20 O 0.63211 0.25143 0.01654 0.0
O21 O 0.68604 0.27353 0.00347 0.0
O22 O 0.72788 0.27533 0.01745 0.0
O23 O 0.66667 0.30976 0.13928 0.0
O24 O 0.70194 0.29178 0.10941 0.0
C25 C 0.70912 0.26754 -0.00709 0.0
C26 C 0.69065 0.30344 0.14336 0.0
O27 O 0.63006 0.29942 0.03937 0.0
Mg28 Mg 0.68197 0.69839 0.94628 0.0
O29 O 0.68648 0.64645 0.94534 0.0
O30 O 0.72746 0.63656 0.93124 0.0
Mg31 Mg 0.74892 0.68098 0.92045 0.0
C32 C 0.7048 0.62773 0.93984 0.0
C33 C 0.62486 0.68033 0.95599 0.0
O34 O 0.6305 0.66794 0.91736 0.0
O35 O 0.70197 0.70068 0.01409 0.0
O36 O 0.74249 0.69262 -0.00614 0.0
O37 O 0.67494 0.70067 0.8724 0.0
O38 O 0.71293 0.70314 0.90348 0.0
C39 C 0.72569 0.69863 0.02344 0.0
C40 C 0.6994 0.70285 0.86782 0.0
O41 O 0.64232 0.69396 0.97757 0.0
Mg42 Mg 0.33678 0.70134 0.05689 0.0
O43 O 0.32842 0.65015 0.05984 0.0
O44 O 0.28728 0.64408 0.07681 0.0
Mg45 Mg 0.26908 0.69072 0.08487 0.0
C46 C 0.30916 0.63316 0.06743 0.0
C47 C 0.39472 0.70461 0.0458 0.0
O48 O 0.39008 0.72242 0.08001 0.0
O49 O 0.31673 0.70451 -0.01098 0.0
O50 O 0.27606 0.69919 0.01072 0.0
O51 O 0.34366 0.70302 0.13096 0.0
O52 O 0.30638 0.71051 0.09912 0.0
C53 C 0.29285 0.70342 0.98043 0.0
C54 C 0.31955 0.70859 0.13501 0.0
O55 O 0.37602 0.6918 0.02646 0.0
Mg56 Mg 0.833 0.80827 0.44684 0.0
O57 O 0.82793 0.86019 0.44525 0.0
O58 O 0.7868 0.86956 0.43181 0.0
Mg59 Mg 0.7654 0.82481 0.42554 0.0
C60 C 0.80949 0.87866 0.43924 0.0
C61 C 0.89058 0.79973 0.45125 0.0
O62 O 0.8833 0.78329 0.41699 0.0
O63 O 0.81482 0.80632 0.51636 0.0
O64 O 0.77397 0.81481 0.49878 0.0
O65 O 0.83807 0.80593 0.37256 0.0
O66 O 0.80094 0.80227 0.40653 0.0
C67 C 0.79135 0.80899 0.52731 0.0
C68 C 0.81361 0.80277 0.36984 0.0
O69 O 0.87366 0.81373 0.47367 0.0
Mg70 Mg 0.17552 0.80259 0.56299 0.0
O71 O 0.18406 0.85384 0.55827 0.0
O72 O 0.22591 0.8594 0.56987 0.0
Mg73 Mg 0.24414 0.81327 0.58246 0.0
C74 C 0.20394 0.87049 0.56159 0.0
C75 C 0.12294 0.78528 0.52643 0.0
O76 O 0.13412 0.75894 0.53244 0.0
O77 O 0.19344 0.79521 0.4941 0.0
O78 O 0.23483 0.79976 0.51079 0.0
O79 O 0.1701 0.80471 0.63735 0.0
O80 O 0.20697 0.7966 0.60403 0.0
C81 C 0.21697 0.7944 0.48295 0.0
C82 C 0.19443 0.80034 0.64041 0.0
O83 O 0.13551 0.80931 0.53453 0.0
Mg84 Mg 0.17184 0.21251 0.45623 0.0
O85 O 0.17789 0.16093 0.46294 0.0
O86 O 0.21954 0.15176 0.45532 0.0
Mg87 Mg 0.24048 0.19659 0.44608 0.0
C88 C 0.19673 0.14259 0.4615 0.0
C89 C 0.1135 0.21749 0.45209 0.0
O90 O 0.121 0.23038 0.41478 0.0
O91 O 0.18665 0.21968 0.52748 0.0
O92 O 0.22811 0.21 0.51624 0.0
O93 O 0.17088 0.20882 0.38121 0.0
O94 O 0.20561 0.21707 0.42059 0.0
C95 C 0.20957 0.21739 0.54162 0.0
C96 C 0.19532 0.21284 0.38235 0.0
O97 O 0.13032 0.20723 0.47864 0.0
Mg98 Mg 0.82943 0.21303 0.56818 0.0
O99 O 0.81891 0.16443 0.54703 0.0
O100 O 0.77671 0.15984 0.55477 0.0
Mg101 Mg 0.76023 0.20419 0.58148 0.0
C102 C 0.79841 0.14889 0.5441 0.0
C103 C 0.88099 0.23126 0.52532 0.0
O104 O 0.86906 0.25743 0.52665 0.0
O105 O 0.81314 0.23154 0.50267 0.0
O106 O 0.77137 0.22801 0.51673 0.0
O107 O 0.83314 0.19849 0.63974 0.0
O108 O 0.79757 0.21513 0.60945 0.0
C109 C 0.7899 0.23615 0.4918 0.0
C110 C 0.80905 0.20425 0.64369 0.0
O111 O 0.8694 0.20765 0.53884 0.0
C112 C 0.32287 0.40613 0.00296 0.0
C113 C 0.29948 0.39074 -0.00113 0.0
C114 C 0.32367 0.43586 0.01934 0.0
C115 C 0.30108 0.45072 0.03213 0.0
C116 C 0.27789 0.43498 0.02927 0.0
C117 C 0.27705 0.40547 0.01254 0.0
C118 C 0.30064 0.48252 0.04853 0.0
C119 C 0.31784 0.50373 0.03637 0.0
C120 C 0.31553 0.53649 0.04804 0.0
C121 C 0.33701 0.55531 0.04354 0.0
C122 C 0.33521 0.58657 0.05096 0.0
C123 C 0.31178 0.59979 0.06285 0.0
H124 H 0.27486 0.53654 0.06308 0.0
C125 C 0.29039 0.5809 0.06806 0.0
C126 C 0.29216 0.54974 0.06053 0.0
H127 H 0.27198 0.59025 0.07684 0.0
H128 H 0.34053 0.39537 -0.00695 0.0
H129 H 0.34201 0.44693 0.02226 0.0
H130 H 0.26023 0.44577 0.03922 0.0
H131 H 0.25872 0.39423 0.01031 0.0
H132 H 0.28458 0.48879 0.06934 0.0
H133 H 0.33392 0.49725 0.01566 0.0
H134 H 0.35521 0.54585 0.03364 0.0
H135 H 0.35209 0.60041 0.04653 0.0
C136 C 0.42952 0.26106 0.95814 0.0
C137 C 0.41263 0.28301 0.9749 0.0
C138 C 0.45563 0.26294 0.96677 0.0
C139 C 0.46561 0.28709 -0.00793 0.0
C140 C 0.44862 0.30859 0.00981 0.0
C141 C 0.42242 0.30665 0.00126 0.0
C142 C 0.4934 0.29008 0.00171 0.0
C143 C 0.51176 0.27683 0.97686 0.0
C144 C 0.53942 0.27827 -0.01244 0.0
C145 C 0.55523 0.25466 0.97271 0.0
C146 C 0.58121 0.25448 0.98292 0.0
C147 C 0.5921 0.27822 0.00767 0.0
H148 H 0.53904 0.32157 0.02225 0.0
C149 C 0.5765 0.30245 0.02127 0.0
C150 C 0.55041 0.30247 0.01142 0.0
H151 H 0.58433 0.32118 0.0402 0.0
H152 H 0.4226 0.24232 0.93818 0.0
H153 H 0.46771 0.24511 0.95394 0.0
H154 H 0.45566 0.32721 0.02991 0.0
H155 H 0.40991 0.32388 0.01481 0.0
H156 H 0.49873 0.3037 0.03038 0.0
H157 H 0.50652 0.26331 0.94808 0.0
H158 H 0.54736 0.23589 0.95386 0.0
H159 H 0.59269 0.23556 0.97167 0.0
C160 C 0.67967 0.40363 0.01682 0.0
C161 C 0.7024 0.3869 0.02039 0.0
C162 C 0.67991 0.43307 -0.0008 0.0
C163 C 0.7029 0.44622 0.98453 0.0
C164 C 0.72541 0.42918 0.98714 0.0
C165 C 0.72523 0.40003 0.00515 0.0
C166 C 0.70452 0.47748 0.96623 0.0
C167 C 0.6886 0.50016 0.97779 0.0
C168 C 0.6927 0.53236 0.96435 0.0
C169 C 0.67229 0.55289 0.96721 0.0
C170 C 0.67592 0.58375 0.95805 0.0
C171 C 0.70014 0.5948 0.94611 0.0
H172 H 0.73341 0.52891 0.95064 0.0
C173 C 0.72045 0.57416 0.9426 0.0
C174 C 0.71686 0.54345 0.95183 0.0
H175 H 0.73943 0.5818 0.93384 0.0
H176 H 0.66173 0.39409 0.02797 0.0
H177 H 0.66206 0.44521 -0.00333 0.0
H178 H 0.74335 0.43866 0.97583 0.0
H179 H 0.74307 0.38774 0.00692 0.0
H180 H 0.72055 0.48212 0.94438 0.0
H181 H 0.67242 0.49539 -0.00071 0.0
H182 H 0.65353 0.54511 0.97714 0.0
H183 H 0.65984 0.599 0.96123 0.0
C184 C 0.44161 0.71344 0.05376 0.0
C185 C 0.42136 0.69932 0.03114 0.0
C186 C 0.46684 0.70847 0.04073 0.0
C187 C 0.47251 0.68903 0.00483 0.0
C188 C 0.45224 0.67526 0.9818 0.0
C189 C 0.42695 0.68021 -0.00509 0.0
C190 C 0.49914 0.68374 -0.0107 0.0
C191 C 0.51976 0.68699 0.01582 0.0
C192 C 0.54663 0.68365 0.00031 0.0
C193 C 0.56616 0.69664 0.02607 0.0
C194 C 0.5916 0.69511 0.01223 0.0
C195 C 0.59816 0.68033 0.97233 0.0
H196 H 0.53911 0.65675 0.94084 0.0
C197 C 0.57876 0.66646 0.94721 0.0
C198 C 0.55331 0.66801 0.96103 0.0
H199 H 0.58317 0.6546 0.91652 0.0
H200 H 0.43802 0.72854 0.08156 0.0
H201 H 0.4817 0.72048 0.0584 0.0
H202 H 0.456 0.66047 0.95369 0.0
H203 H 0.4118 0.66906 0.97666 0.0
H204 H 0.50154 0.67706 0.95473 0.0
H205 H 0.51709 0.6933 0.0505 0.0
H206 H 0.56169 0.70856 0.0567 0.0
H207 H 0.60605 0.70592 0.03252 0.0
C208 C 0.79542 0.93235 0.42883 0.0
C209 C 0.81397 0.91171 0.44364 0.0
C210 C 0.79808 0.96334 0.43701 0.0
C211 C 0.81918 0.97445 0.46094 0.0
C212 C 0.83843 0.95405 0.4735 0.0
C213 C 0.83587 0.92296 0.46499 0.0
C214 C 0.8213 0.00692 0.47413 0.0
C215 C 0.80062 0.0245 0.48091 0.0
C216 C 0.80123 0.05646 0.49696 0.0
C217 C 0.77825 0.06943 0.51149 0.0
C218 C 0.77742 0.09928 0.52677 0.0
C219 C 0.79961 0.11713 0.52786 0.0
H220 H 0.84154 0.06562 0.48586 0.0
C221 C 0.82268 0.10432 0.51308 0.0
C222 C 0.8235 0.07434 0.49763 0.0
H223 H 0.84011 0.11749 0.51314 0.0
H224 H 0.77857 0.92454 0.41142 0.0
H225 H 0.7834 0.97842 0.4248 0.0
H226 H 0.85508 0.96202 0.49135 0.0
H227 H 0.85059 0.90769 0.4766 0.0
H228 H 0.84017 0.01554 0.48158 0.0
H229 H 0.78184 0.01455 0.47681 0.0
H230 H 0.76075 0.05636 0.51121 0.0
H231 H 0.75927 0.10829 0.53779 0.0
C232 C 0.08212 0.81402 0.51381 0.0
C233 C 0.09572 0.78655 0.51327 0.0
C234 C 0.05606 0.81459 0.50354 0.0
C235 C 0.04311 0.78763 0.49247 0.0
C236 C 0.05692 0.7604 0.49096 0.0
C237 C 0.08283 0.7598 0.50146 0.0
C238 C 0.01553 0.7868 0.48085 0.0
C239 C 0.99835 0.80784 0.49368 0.0
C240 C 0.97074 0.80575 0.48221 0.0
C241 C 0.95265 0.82028 0.50945 0.0
C242 C 0.92656 0.8184 0.49971 0.0
C243 C 0.91806 0.80208 0.46229 0.0
H244 H 0.97543 0.77947 0.42132 0.0
C245 C 0.93621 0.78806 0.43462 0.0
C246 C 0.96218 0.79 0.44424 0.0
H247 H 0.93042 0.77566 0.40513 0.0
H248 H 0.09153 0.83506 0.52259 0.0
H249 H 0.04631 0.83619 0.50383 0.0
H250 H 0.04755 0.73933 0.4821 0.0
H251 H 0.0927 0.73825 0.50048 0.0
H252 H 0.00899 0.76688 0.46291 0.0
H253 H 0.00427 0.82634 0.51519 0.0
H254 H 0.95869 0.83286 0.53863 0.0
H255 H 0.91309 0.82965 0.52154 0.0
C256 C 0.21259 0.08913 0.46398 0.0
C257 C 0.19239 0.10975 0.46924 0.0
C258 C 0.20935 0.05852 0.47426 0.0
C259 C 0.18589 0.04773 0.49059 0.0
C260 C 0.16535 0.068 0.49398 0.0
C261 C 0.16857 0.09875 0.48358 0.0
C262 C 0.18246 0.01548 0.50399 0.0
C263 C 0.20185 0.99891 0.5206 0.0
C264 C 0.20046 0.9663 0.53339 0.0
C265 C 0.22192 0.95344 0.55394 0.0
C266 C 0.2227 0.92259 0.564 0.0
C267 C 0.20197 0.90363 0.55388 0.0
H268 H 0.16252 0.9562 0.50789 0.0
C269 C 0.18012 0.9165 0.53445 0.0
C270 C 0.17938 0.9475 0.52408 0.0
H271 H 0.16385 0.9025 0.52606 0.0
H272 H 0.23109 0.09662 0.45225 0.0
H273 H 0.22534 0.04339 0.46924 0.0
H274 H 0.14695 0.0602 0.50579 0.0
H275 H 0.15254 0.11397 0.48773 0.0
H276 H 0.16345 0.00598 0.50174 0.0
H277 H 0.22012 0.00998 0.52572 0.0
H278 H 0.23844 0.96723 0.56161 0.0
H279 H 0.2398 0.91357 0.57921 0.0
C280 C 0.92227 0.20299 0.51598 0.0
C281 C 0.90805 0.22981 0.51113 0.0
C282 C 0.94819 0.20231 0.50478 0.0
C283 C 0.96043 0.22851 0.48847 0.0
C284 C 0.946 0.255 0.48252 0.0
C285 C 0.92019 0.25573 0.49394 0.0
C286 C 0.98794 0.2291 0.47624 0.0
C287 C 0.00555 0.21017 0.49351 0.0
C288 C 0.03316 0.21196 0.48202 0.0
C289 C 0.05126 0.20072 0.51233 0.0
C290 C 0.07737 0.20241 0.50281 0.0
C291 C 0.08593 0.21519 0.46252 0.0
H292 H 0.02852 0.23203 0.41623 0.0
C293 C 0.0678 0.22585 0.43181 0.0
C294 C 0.04176 0.22414 0.44128 0.0
H295 H 0.07368 0.23548 0.40018 0.0
H296 H 0.91346 0.18257 0.52888 0.0
H297 H 0.95842 0.18118 0.50855 0.0
H298 H 0.95482 0.27542 0.46956 0.0
H299 H 0.9098 0.27673 0.48953 0.0
H300 H 0.99403 0.2472 0.45409 0.0
H301 H 0.99994 0.1939 0.51888 0.0
H302 H 0.04519 0.19092 0.54375 0.0
H303 H 0.09082 0.19381 0.52709 0.0
C304 C 0.20105 0.20553 0.29987 0.0
C305 C 0.21128 0.21286 0.34173 0.0
C306 C 0.21603 0.20809 0.26137 0.0
C307 C 0.24154 0.21801 0.26418 0.0
C308 C 0.25177 0.22474 0.30614 0.0
C309 C 0.23689 0.22209 0.34446 0.0
C310 C 0.25715 0.2248 0.22409 0.0
C311 C 0.25313 0.21193 0.18407 0.0
C312 C 0.26482 0.22376 0.14252 0.0
C313 C 0.25062 0.22174 0.10313 0.0
C314 C 0.25897 0.23613 0.06447 0.0
C315 C 0.282 0.25246 0.06405 0.0
H316 H 0.30049 0.23972 0.17109 0.0
C317 C 0.29722 0.25274 0.10251 0.0
C318 C 0.28865 0.23859 0.14161 0.0
H319 H 0.31518 0.26486 0.1029 0.0
H320 H 0.18133 0.19859 0.29671 0.0
H321 H 0.20715 0.20358 0.22951 0.0
H322 H 0.27122 0.23277 0.30922 0.0
H323 H 0.24533 0.22833 0.37609 0.0
H324 H 0.27153 0.24236 0.22751 0.0
H325 H 0.23876 0.19435 0.1807 0.0
H326 H 0.23238 0.21018 0.10276 0.0
H327 H 0.24704 0.23499 0.03504 0.0
C328 C 0.73075 0.30184 0.18823 0.0
C329 C 0.70457 0.30828 0.18566 0.0
C330 C 0.74345 0.30254 0.22902 0.0
C331 C 0.73009 0.30905 0.26856 0.0
C332 C 0.70428 0.31737 0.26565 0.0
C333 C 0.69161 0.31699 0.22461 0.0
C334 C 0.74165 0.30518 0.31348 0.0
C335 C 0.76216 0.2875 0.32139 0.0
C336 C 0.76982 0.27762 0.36677 0.0
C337 C 0.79493 0.26776 0.37425 0.0
C338 C 0.80188 0.255 0.41526 0.0
C339 C 0.78365 0.25141 0.44923 0.0
H340 H 0.73209 0.28096 0.39655 0.0
C341 C 0.75868 0.26181 0.4419 0.0
C342 C 0.75182 0.27467 0.40125 0.0
H343 H 0.74412 0.25951 0.46735 0.0
H344 H 0.74145 0.29522 0.15904 0.0
H345 H 0.76355 0.29724 0.22919 0.0
H346 H 0.69355 0.32283 0.29549 0.0
H347 H 0.67146 0.32225 0.22376 0.0
H348 H 0.7314 0.315 0.34145 0.0
H349 H 0.77296 0.27794 0.29395 0.0
H350 H 0.80909 0.26942 0.34801 0.0
H351 H 0.82126 0.2472 0.41986 0.0
C352 C 0.81469 0.78693 0.28984 0.0
C353 C 0.80075 0.79747 0.32672 0.0
C354 C 0.80209 0.77723 0.25134 0.0
C355 C 0.77532 0.77821 0.24896 0.0
C356 C 0.76156 0.79063 0.28457 0.0
C357 C 0.77411 0.79983 0.3233 0.0
C358 C 0.76128 0.76599 0.2101 0.0
C359 C 0.76886 0.74063 0.18897 0.0
C360 C 0.75597 0.72782 0.14914 0.0
C361 C 0.77011 0.70872 0.12112 0.0
C362 C 0.75974 0.69805 0.08134 0.0
C363 C 0.73481 0.70597 0.06882 0.0
H364 H 0.71857 0.74801 0.15955 0.0
C365 C 0.71998 0.72345 0.09818 0.0
C366 C 0.73046 0.73433 0.13802 0.0
H367 H 0.70066 0.72975 0.0896 0.0
H368 H 0.83525 0.78493 0.29138 0.0
H369 H 0.81328 0.76865 0.22373 0.0
H370 H 0.74095 0.79202 0.2832 0.0
H371 H 0.76277 0.80802 0.35083 0.0
H372 H 0.74401 0.77765 0.20009 0.0
H373 H 0.78601 0.72918 0.20034 0.0
H374 H 0.78963 0.7029 0.12919 0.0
H375 H 0.7716 0.68429 0.05975 0.0
C376 C 0.24971 0.78956 0.42306 0.0
C377 C 0.22445 0.78512 0.43736 0.0
C378 C 0.25803 0.77799 0.38236 0.0
C379 C 0.24135 0.76135 0.35505 0.0
C380 C 0.21576 0.7582 0.36817 0.0
C381 C 0.20736 0.76991 0.40906 0.0
C382 C 0.25004 0.74794 0.31222 0.0
C383 C 0.27447 0.73969 0.30491 0.0
C384 C 0.28463 0.72896 0.26131 0.0
C385 C 0.30963 0.71748 0.25953 0.0
C386 C 0.32089 0.70987 0.2187 0.0
C387 C 0.3073 0.71355 0.1788 0.0
H388 H 0.2519 0.74131 0.22046 0.0
C389 C 0.28209 0.72423 0.18065 0.0
C390 C 0.27091 0.73196 0.22127 0.0
H391 H 0.27118 0.72777 0.15048 0.0
H392 H 0.26327 0.8017 0.44362 0.0
H393 H 0.27754 0.78226 0.37248 0.0
H394 H 0.2024 0.746 0.34728 0.0
H395 H 0.18776 0.76621 0.41905 0.0
H396 H 0.23565 0.74424 0.2869 0.0
H397 H 0.288 0.74104 0.33222 0.0
H398 H 0.32074 0.71505 0.28976 0.0
H399 H 0.34037 0.70178 0.21833 0.0
C400 C 0.19486 0.7828 0.71935 0.0
C401 C 0.20731 0.79725 0.68379 0.0
C402 C 0.20851 0.77429 0.75735 0.0
C403 C 0.23478 0.78043 0.76047 0.0
C404 C 0.24667 0.79709 0.72652 0.0
C405 C 0.23313 0.80515 0.68826 0.0
C406 C 0.25028 0.76915 0.79825 0.0
C407 C 0.24607 0.74173 0.81659 0.0
C408 C 0.26025 0.72984 0.85561 0.0
C409 C 0.24809 0.70837 0.88277 0.0
C410 C 0.25945 0.69855 0.92216 0.0
C411 C 0.28346 0.70961 0.93496 0.0
H412 H 0.29538 0.75529 0.84592 0.0
C413 C 0.29656 0.72942 0.90627 0.0
C414 C 0.28501 0.73958 0.86691 0.0
H415 H 0.31513 0.73823 0.9153 0.0
H416 H 0.17494 0.77657 0.7168 0.0
H417 H 0.19859 0.76243 0.78382 0.0
H418 H 0.26676 0.80264 0.72864 0.0
H419 H 0.24305 0.81695 0.66185 0.0
H420 H 0.26581 0.78334 0.8099 0.0
H421 H 0.23063 0.72779 0.8038 0.0
H422 H 0.22922 0.7001 0.87449 0.0
H423 H 0.24901 0.68299 0.9434 0.0
C424 C 0.30726 0.30083 0.79383 0.0
C425 C 0.2957 0.31096 0.83329 0.0
C426 C 0.29252 0.29591 0.75576 0.0
C427 C 0.26613 0.30152 0.75656 0.0
C428 C 0.25517 0.31475 0.79443 0.0
C429 C 0.26982 0.31913 0.83279 0.0
C430 C 0.2496 0.29089 0.71985 0.0
C431 C 0.25196 0.26234 0.70453 0.0
C432 C 0.23759 0.24927 0.66649 0.0
C433 C 0.24694 0.22236 0.64769 0.0
C434 C 0.23644 0.21082 0.60863 0.0
C435 C 0.21607 0.22568 0.58777 0.0
H436 H 0.20766 0.28331 0.66155 0.0
C437 C 0.2052 0.2512 0.6083 0.0
C438 C 0.21595 0.26305 0.64739 0.0
H439 H 0.18949 0.26306 0.5927 0.0
H440 H 0.32718 0.29438 0.79342 0.0
H441 H 0.30148 0.2863 0.72641 0.0
H442 H 0.23495 0.31966 0.79542 0.0
H443 H 0.26062 0.32761 0.86259 0.0
H444 H 0.23504 0.30607 0.70733 0.0
H445 H 0.26632 0.24785 0.71973 0.0
H446 H 0.26329 0.21095 0.66199 0.0
H447 H 0.24506 0.19096 0.59358 0.0
C448 C 0.73951 0.23961 0.94401 0.0
C449 C 0.71499 0.25166 0.95066 0.0
C450 C 0.7464 0.22706 0.90313 0.0
C451 C 0.72887 0.22607 0.86775 0.0
C452 C 0.70408 0.23723 0.87476 0.0
C453 C 0.69711 0.2497 0.91598 0.0
C454 C 0.73685 0.2172 0.82203 0.0
C455 C 0.75727 0.19949 0.81344 0.0
C456 C 0.76913 0.19679 0.76852 0.0
C457 C 0.79496 0.18853 0.76551 0.0
C458 C 0.80784 0.18972 0.72463 0.0
C459 C 0.79507 0.19917 0.68593 0.0
H460 H 0.73591 0.20959 0.72939 0.0
C461 C 0.7689 0.20576 0.68857 0.0
C462 C 0.75601 0.20425 0.72918 0.0
H463 H 0.75836 0.21306 0.65959 0.0
H464 H 0.75376 0.24058 0.97009 0.0
H465 H 0.7659 0.21965 0.89902 0.0
H466 H 0.69029 0.23703 0.84791 0.0
H467 H 0.67808 0.2588 0.92007 0.0
H468 H 0.72646 0.22771 0.79492 0.0
H469 H 0.76722 0.18871 0.84091 0.0
H470 H 0.80553 0.18238 0.7952 0.0
H471 H 0.82796 0.18433 0.7237 0.0
C472 C 0.69847 0.72405 0.79078 0.0
C473 C 0.71145 0.70781 0.82396 0.0
C474 C 0.71141 0.73401 0.7527 0.0
C475 C 0.73749 0.72758 0.74704 0.0
C476 C 0.74987 0.70934 0.77852 0.0
C477 C 0.73705 0.69982 0.8169 0.0
C478 C 0.75227 0.73994 0.70902 0.0
C479 C 0.74802 0.76795 0.69284 0.0
C480 C 0.76147 0.78072 0.65351 0.0
C481 C 0.74897 0.80297 0.62836 0.0
C482 C 0.75951 0.81347 0.58855 0.0
C483 C 0.78303 0.80227 0.57334 0.0
H484 H 0.7965 0.75465 0.65935 0.0
C485 C 0.79655 0.78173 0.60015 0.0
C486 C 0.78583 0.77094 0.63991 0.0
H487 H 0.81477 0.77281 0.58932 0.0
H488 H 0.67871 0.73045 0.79531 0.0
H489 H 0.70109 0.74714 0.72812 0.0
H490 H 0.76981 0.70357 0.7744 0.0
H491 H 0.74742 0.68681 0.84143 0.0
H492 H 0.76732 0.7259 0.69523 0.0
H493 H 0.73305 0.78172 0.70762 0.0
H494 H 0.73041 0.81131 0.63846 0.0
H495 H 0.74876 0.82959 0.56884 0.0
loop_
_geom_bond_atom_site_label_1
_geom_bond_atom_site_label_2
_geom_bond_distance
_geom_bond_site_symmetry_2
_ccdc_geom_bond_type
Mg0 O1 2.028 . S
Mg0 O7 1.986 . S
Mg0 O9 2.114 1_554 S
Mg0 O10 2.251 1_554 S
Mg0 O13 2.010 . S
O1 Mg0 2.028 . S
O1 C4 1.250 . S
O2 Mg3 2.028 . S
O2 C4 1.248 . S
Mg3 O2 2.028 . S
Mg3 O8 2.032 . S
Mg3 O10 2.079 1_554 S
C4 O1 1.250 . S
C4 O2 1.248 . S
C5 O6 1.264 . S
C5 O13 1.249 . S
O6 C5 1.264 . S
O7 Mg0 1.986 . S
O7 C11 1.246 . S
O8 Mg3 2.032 . S
O8 C11 1.259 . S
O9 Mg0 2.114 1_556 S
O9 C12 1.252 . S
O10 Mg0 2.251 1_556 S
O10 Mg3 2.079 1_556 S
O10 C12 1.273 . S
C11 O7 1.246 . S
C11 O8 1.259 . S
C12 O9 1.252 . S
C12 O10 1.273 . S
O13 Mg0 2.010 . S
O13 C5 1.249 . S
Mg14 O15 2.028 . S
Mg14 O21 1.986 1_554 S
Mg14 O23 2.114 . S
Mg14 O24 2.251 . S
Mg14 O27 2.010 . S
O15 Mg14 2.028 . S
O15 C18 1.250 . S
O16 Mg17 2.028 . S
O16 C18 1.248 . S
Mg17 O16 2.028 . S
Mg17 O22 2.032 1_554 S
Mg17 O24 2.079 . S
C18 O15 1.250 . S
C18 O16 1.248 . S
C19 O20 1.264 . S
C19 O27 1.249 . S
O20 C19 1.264 . S
O21 Mg14 1.986 1_556 S
O21 C25 1.246 . S
O22 Mg17 2.032 1_556 S
O22 C25 1.259 . S
O23 Mg14 2.114 . S
O23 C26 1.252 . S
O24 Mg14 2.251 . S
O24 Mg17 2.079 . S
O24 C26 1.273 . S
C25 O21 1.246 . S
C25 O22 1.259 . S
C26 O23 1.252 . S
C26 O24 1.273 . S
O27 Mg14 2.010 . S
O27 C19 1.249 . S
Mg28 O29 2.028 . S
Mg28 O35 1.986 . S
Mg28 O37 2.114 1_554 S
Mg28 O38 2.251 1_554 S
Mg28 O41 2.010 . S
O29 Mg28 2.028 . S
O29 C32 1.250 . S
O30 Mg31 2.028 . S
O30 C32 1.248 . S
Mg31 O30 2.028 . S
Mg31 O36 2.032 . S
Mg31 O38 2.079 1_554 S
C32 O29 1.250 . S
C32 O30 1.248 . S
C33 O34 1.264 . S
C33 O41 1.249 . S
O34 C33 1.264 . S
O35 Mg28 1.986 . S
O35 C39 1.246 . S
O36 Mg31 2.032 . S
O36 C39 1.259 . S
O37 Mg28 2.114 1_556 S
O37 C40 1.252 . S
O38 Mg28 2.251 1_556 S
O38 Mg31 2.079 1_556 S
O38 C40 1.273 . S
C39 O35 1.246 . S
C39 O36 1.259 . S
C40 O37 1.252 . S
C40 O38 1.273 . S
O41 Mg28 2.010 . S
O41 C33 1.249 . S
Mg42 O43 2.028 . S
Mg42 O49 1.986 1_554 S
Mg42 O51 2.114 . S
Mg42 O52 2.251 . S
Mg42 O55 2.010 . S
O43 Mg42 2.028 . S
O43 C46 1.250 . S
O44 Mg45 2.028 . S
O44 C46 1.248 . S
Mg45 O44 2.028 . S
Mg45 O50 2.032 1_554 S
Mg45 O52 2.079 . S
C46 O43 1.250 . S
C46 O44 1.248 . S
C47 O48 1.264 . S
C47 O55 1.249 . S
O48 C47 1.264 . S
O49 Mg42 1.986 1_556 S
O49 C53 1.246 . S
O50 Mg45 2.032 1_556 S
O50 C53 1.259 . S
O51 Mg42 2.114 . S
O51 C54 1.252 . S
O52 Mg42 2.251 . S
O52 Mg45 2.079 . S
O52 C54 1.273 . S
C53 O49 1.246 . S
C53 O50 1.259 . S
C54 O51 1.252 . S
C54 O52 1.273 . S
O55 Mg42 2.010 . S
O55 C47 1.249 . S
Mg56 O57 2.028 . S
Mg56 O63 1.986 . S
Mg56 O65 2.114 . S
Mg56 O66 2.251 . S
Mg56 O69 2.010 . S
O57 Mg56 2.028 . S
O57 C60 1.250 . S
O58 Mg59 2.028 . S
O58 C60 1.248 . S
Mg59 O58 2.028 . S
Mg59 O64 2.032 . S
Mg59 O66 2.079 . S
C60 O57 1.250 . S
C60 O58 1.248 . S
C61 O62 1.264 . S
C61 O69 1.249 . S
O62 C61 1.264 . S
O63 Mg56 1.986 . S
O63 C67 1.246 . S
O64 Mg59 2.032 . S
O64 C67 1.259 . S
O65 Mg56 2.114 . S
O65 C68 1.252 . S
O66 Mg56 2.251 . S
O66 Mg59 2.079 . S
O66 C68 1.273 . S
C67 O63 1.246 . S
C67 O64 1.259 . S
C68 O65 1.252 . S
C68 O66 1.273 . S
O69 Mg56 2.010 . S
O69 C61 1.249 . S
Mg70 O71 2.028 . S
Mg70 O77 1.986 . S
Mg70 O79 2.114 . S
Mg70 O80 2.251 . S
Mg70 O83 2.010 . S
O71 Mg70 2.028 . S
O71 C74 1.250 . S
O72 Mg73 2.028 . S
O72 C74 1.248 . S
Mg73 O72 2.028 . S
Mg73 O78 2.032 . S
Mg73 O80 2.079 . S
C74 O71 1.250 . S
C74 O72 1.248 . S
C75 O76 1.264 . S
C75 O83 1.249 . S
O76 C75 1.264 . S
O77 Mg70 1.986 . S
O77 C81 1.246 . S
O78 Mg73 2.032 . S
O78 C81 1.259 . S
O79 Mg70 2.114 . S
O79 C82 1.252 . S
O80 Mg70 2.251 . S
O80 Mg73 2.079 . S
O80 C82 1.273 . S
C81 O77 1.246 . S
C81 O78 1.259 . S
C82 O79 1.252 . S
C82 O80 1.273 . S
O83 Mg70 2.010 . S
O83 C75 1.249 . S
Mg84 O85 2.028 . S
Mg84 O91 1.986 . S
Mg84 O93 2.114 . S
Mg84 O94 2.251 . S
Mg84 O97 2.010 . S
O85 Mg84 2.028 . S
O85 C88 1.250 . S
O86 Mg87 2.028 . S
O86 C88 1.248 . S
Mg87 O86 2.028 . S
Mg87 O92 2.032 . S
Mg87 O94 2.079 . S
C88 O85 1.250 . S
C88 O86 1.248 . S
C89 O90 1.264 . S
C89 O97 1.249 . S
O90 C89 1.264 . S
O91 Mg84 1.986 . S
O91 C95 1.246 . S
O92 Mg87 2.032 . S
O92 C95 1.259 . S
O93 Mg84 2.114 . S
O93 C96 1.252 . S
O94 Mg84 2.251 . S
O94 Mg87 2.079 . S
O94 C96 1.273 . S
C95 O91 1.246 . S
C95 O92 1.259 . S
C96 O93 1.252 . S
C96 O94 1.273 . S
O97 Mg84 2.010 . S
O97 C89 1.249 . S
Mg98 O99 2.028 . S
Mg98 O105 1.986 . S
Mg98 O107 2.114 . S
Mg98 O108 2.251 . S
Mg98 O111 2.010 . S
O99 Mg98 2.028 . S
O99 C102 1.250 . S
O100 Mg101 2.028 . S
O100 C102 1.248 . S
Mg101 O100 2.028 . S
Mg101 O106 2.032 . S
Mg101 O108 2.079 . S
C102 O99 1.250 . S
C102 O100 1.248 . S
C103 O104 1.264 . S
C103 O111 1.249 . S
O104 C103 1.264 . S
O105 Mg98 1.986 . S
O105 C109 1.246 . S
O106 Mg101 2.032 . S
O106 C109 1.259 . S
O107 Mg98 2.114 . S
O107 C110 1.252 . S
O108 Mg98 2.251 . S
O108 Mg101 2.079 . S
O108 C110 1.273 . S
C109 O105 1.246 . S
C109 O106 1.259 . S
C110 O107 1.252 . S
C110 O108 1.273 . S
O111 Mg98 2.010 . S
O111 C103 1.249 . S
C112 C113 1.386 . S
C112 C114 1.383 . S
C112 H128 0.951 . S
C113 C112 1.386 . S
C113 C117 1.383 1_554 S
C114 C112 1.383 . S
C114 C115 1.402 1_554 S
C114 H129 0.951 . S
C115 C114 1.402 1_556 S
C115 C116 1.375 . S
C115 C118 1.481 . S
C116 C115 1.375 . S
C116 C117 1.367 . S
C116 H130 0.951 . S
C117 C113 1.383 1_556 S
C117 C116 1.367 . S
C117 H131 0.950 . S
C118 C115 1.481 . S
C118 C119 1.297 1_556 S
C118 H132 0.950 . S
C119 C118 1.297 1_554 S
C119 C120 1.479 . S
C119 H133 0.950 . S
C120 C119 1.479 . S
C120 C121 1.375 . S
C120 C126 1.404 1_554 S
C121 C120 1.375 . S
C121 C122 1.369 . S
C121 H134 0.950 . S
C122 C121 1.369 . S
C122 C123 1.392 . S
C122 H135 0.951 . S
C123 C122 1.392 . S
C123 C125 1.384 1_554 S
H124 C126 0.949 . S
C125 C123 1.384 1_556 S
C125 C126 1.385 . S
C125 H127 0.950 . S
C126 C120 1.404 1_556 S
C126 H124 0.949 . S
C126 C125 1.385 . S
H127 C125 0.950 . S
H128 C112 0.951 . S
H129 C114 0.951 . S
H130 C116 0.951 . S
H131 C117 0.950 . S
H132 C118 0.950 . S
H133 C119 0.950 . S
H134 C121 0.950 . S
H135 C122 0.951 . S
C136 C137 1.386 . S
C136 C138 1.383 . S
C136 H152 0.951 . S
C137 C136 1.386 . S
C137 C141 1.383 1_554 S
C138 C136 1.383 . S
C138 C139 1.389 1_554 S
C138 H153 0.951 . S
C139 C138 1.389 1_556 S
C139 C140 1.384 . S
C139 C142 1.485 . S
C140 C139 1.384 . S
C140 C141 1.367 . S
C140 H154 0.951 . S
C141 C137 1.383 1_556 S
C141 C140 1.367 . S
C141 H155 0.950 . S
C142 C139 1.485 . S
C142 C143 1.297 1_556 S
C142 H156 0.950 . S
C143 C142 1.297 1_554 S
C143 C144 1.479 1_554 S
C143 H157 0.950 . S
C144 C143 1.479 1_556 S
C144 C145 1.365 1_556 S
C144 C150 1.414 . S
C145 C144 1.365 1_554 S
C145 C146 1.369 . S
C145 H158 0.950 . S
C146 C145 1.369 . S
C146 C147 1.392 . S
C146 H159 0.951 . S
C147 C146 1.392 . S
C147 C149 1.384 1_554 S
H148 C150 0.949 . S
C149 C147 1.384 1_556 S
C149 C150 1.385 . S
C149 H151 0.950 . S
C150 C144 1.414 . S
C150 H148 0.949 . S
C150 C149 1.385 . S
H151 C149 0.950 . S
H152 C136 0.951 . S
H153 C138 0.951 . S
H154 C140 0.951 . S
H155 C141 0.950 . S
H156 C142 0.950 . S
H157 C143 0.950 . S
H158 C145 0.950 . S
H159 C146 0.951 . S
C160 C161 1.386 . S
C160 C162 1.383 . S
C160 H176 0.951 . S
C161 C160 1.386 . S
C161 C165 1.383 1_554 S
C162 C160 1.383 . S
C162 C163 1.402 . S
C162 H177 0.951 . S
C163 C162 1.402 . S
C163 C164 1.375 1_554 S
C163 C166 1.481 . S
C164 C163 1.375 1_556 S
C164 C165 1.367 . S
C164 H178 0.951 . S
C165 C161 1.383 1_556 S
C165 C164 1.367 . S
C165 H179 0.950 . S
C166 C163 1.481 . S
C166 C167 1.297 . S
C166 H180 0.950 1_554 S
C167 C166 1.297 . S
C167 C168 1.479 . S
C167 H181 0.950 . S
C168 C167 1.479 . S
C168 C169 1.375 . S
C168 C174 1.404 . S
C169 C168 1.375 . S
C169 C170 1.369 . S
C169 H182 0.950 . S
C170 C169 1.369 . S
C170 C171 1.392 . S
C170 H183 0.951 . S
C171 C170 1.392 . S
C171 C173 1.384 . S
H172 C174 0.949 . S
C173 C171 1.384 . S
C173 C174 1.385 . S
C173 H175 0.950 1_554 S
C174 C168 1.404 . S
C174 H172 0.949 . S
C174 C173 1.385 . S
H175 C173 0.950 1_556 S
H176 C160 0.951 . S
H177 C162 0.951 . S
H178 C164 0.951 . S
H179 C165 0.950 . S
H180 C166 0.950 1_556 S
H181 C167 0.950 . S
H182 C169 0.950 . S
H183 C170 0.951 . S
C184 C185 1.386 . S
C184 C186 1.383 . S
C184 H200 0.951 . S
C185 C184 1.386 . S
C185 C189 1.383 1_554 S
C186 C184 1.383 . S
C186 C187 1.402 . S
C186 H201 0.951 . S
C187 C186 1.402 . S
C187 C188 1.375 1_554 S
C187 C190 1.481 . S
C188 C187 1.375 1_556 S
C188 C189 1.367 . S
C188 H202 0.951 . S
C189 C185 1.383 1_556 S
C189 C188 1.367 . S
C189 H203 0.950 . S
C190 C187 1.481 . S
C190 C191 1.297 . S
C190 H204 0.950 1_554 S
C191 C190 1.297 . S
C191 C192 1.479 . S
C191 H205 0.950 . S
C192 C191 1.479 . S
C192 C193 1.375 . S
C192 C198 1.404 1_554 S
C193 C192 1.375 . S
C193 C194 1.369 . S
C193 H206 0.950 . S
C194 C193 1.369 . S
C194 C195 1.392 . S
C194 H207 0.951 . S
C195 C194 1.392 . S
C195 C197 1.384 1_554 S
H196 C198 0.949 . S
C197 C195 1.384 1_556 S
C197 C198 1.385 . S
C197 H199 0.950 . S
C198 C192 1.404 1_556 S
C198 H196 0.949 . S
C198 C197 1.385 . S
H199 C197 0.950 . S
H200 C184 0.951 . S
H201 C186 0.951 . S
H202 C188 0.951 . S
H203 C189 0.950 . S
H204 C190 0.950 1_556 S
H205 C191 0.950 . S
H206 C193 0.950 . S
H207 C194 0.951 . S
C208 C209 1.386 . S
C208 C210 1.383 . S
C208 H224 0.951 . S
C209 C208 1.386 . S
C209 C213 1.383 . S
C210 C208 1.383 . S
C210 C211 1.402 . S
C210 H225 0.951 . S
C211 C210 1.402 . S
C211 C212 1.375 . S
C211 C214 1.481 . S
C212 C211 1.375 . S
C212 C213 1.367 . S
C212 H226 0.951 . S
C213 C209 1.383 . S
C213 C212 1.367 . S
C213 H227 0.950 . S
C214 C211 1.481 . S
C214 C215 1.297 1_565 S
C214 H228 0.950 . S
C215 C214 1.297 1_545 S
C215 C216 1.479 . S
C215 H229 0.950 . S
C216 C215 1.479 . S
C216 C217 1.375 . S
C216 C222 1.404 . S
C217 C216 1.375 . S
C217 C218 1.369 . S
C217 H230 0.950 . S
C218 C217 1.369 . S
C218 C219 1.392 . S
C218 H231 0.951 . S
C219 C218 1.392 . S
C219 C221 1.384 . S
H220 C222 0.949 . S
C221 C219 1.384 . S
C221 C222 1.385 . S
C221 H223 0.950 . S
C222 C216 1.404 . S
C222 H220 0.949 . S
C222 C221 1.385 . S
H223 C221 0.950 . S
H224 C208 0.951 . S
H225 C210 0.951 . S
H226 C212 0.951 . S
H227 C213 0.950 . S
H228 C214 0.950 . S
H229 C215 0.950 . S
H230 C217 0.950 . S
H231 C218 0.951 . S
C232 C233 1.386 . S
C232 C234 1.383 . S
C232 H248 0.951 . S
C233 C232 1.386 . S
C233 C237 1.383 . S
C234 C232 1.383 . S
C234 C235 1.402 . S
C234 H249 0.951 . S
C235 C234 1.402 . S
C235 C236 1.375 . S
C235 C238 1.481 . S
C236 C235 1.375 . S
C236 C237 1.367 . S
C236 H250 0.951 . S
C237 C233 1.383 . S
C237 C236 1.367 . S
C237 H251 0.950 . S
C238 C235 1.481 . S
C238 C239 1.297 1_455 S
C238 H252 0.950 . S
C239 C238 1.297 1_655 S
C239 C240 1.479 . S
C239 H253 0.950 . S
C240 C239 1.479 . S
C240 C241 1.375 . S
C240 C246 1.404 . S
C241 C240 1.375 . S
C241 C242 1.369 . S
C241 H254 0.950 . S
C242 C241 1.369 . S
C242 C243 1.392 . S
C242 H255 0.951 . S
C243 C242 1.392 . S
C243 C245 1.384 . S
H244 C246 0.949 . S
C245 C243 1.384 . S
C245 C246 1.385 . S
C245 H247 0.950 . S
C246 C240 1.404 . S
C246 H244 0.949 . S
C246 C245 1.385 . S
H247 C245 0.950 . S
H248 C232 0.951 . S
H249 C234 0.951 . S
H250 C236 0.951 . S
H251 C237 0.950 . S
H252 C238 0.950 . S
H253 C239 0.950 . S
H254 C241 0.950 . S
H255 C242 0.951 . S
C256 C257 1.386 . S
C256 C258 1.383 . S
C256 H272 0.951 . S
C257 C256 1.386 . S
C257 C261 1.383 . S
C258 C256 1.383 . S
C258 C259 1.402 . S
C258 H273 0.951 . S
C259 C258 1.402 . S
C259 C260 1.375 . S
C259 C262 1.481 . S
C260 C259 1.375 . S
C260 C261 1.367 . S
C260 H274 0.951 . S
C261 C257 1.383 . S
C261 C260 1.367 . S
C261 H275 0.950 . S
C262 C259 1.481 . S
C262 C263 1.297 1_545 S
C262 H276 0.950 . S
C263 C262 1.297 1_565 S
C263 C264 1.479 . S
C263 H277 0.950 . S
C264 C263 1.479 . S
C264 C265 1.375 . S
C264 C270 1.404 . S
C265 C264 1.375 . S
C265 C266 1.369 . S
C265 H278 0.950 . S
C266 C265 1.369 . S
C266 C267 1.392 . S
C266 H279 0.951 . S
C267 C266 1.392 . S
C267 C269 1.384 . S
H268 C270 0.949 . S
C269 C267 1.384 . S
C269 C270 1.385 . S
C269 H271 0.950 . S
C270 C264 1.404 . S
C270 H268 0.949 . S
C270 C269 1.385 . S
H271 C269 0.950 . S
H272 C256 0.951 . S
H273 C258 0.951 . S
H274 C260 0.951 . S
H275 C261 0.950 . S
H276 C262 0.950 . S
H277 C263 0.950 . S
H278 C265 0.950 . S
H279 C266 0.951 . S
C280 C281 1.386 . S
C280 C282 1.383 . S
C280 H296 0.951 . S
C281 C280 1.386 . S
C281 C285 1.383 . S
C282 C280 1.383 . S
C282 C283 1.402 . S
C282 H297 0.951 . S
C283 C282 1.402 . S
C283 C284 1.375 . S
C283 C286 1.481 . S
C284 C283 1.375 . S
C284 C285 1.367 . S
C284 H298 0.951 . S
C285 C281 1.383 . S
C285 C284 1.367 . S
C285 H299 0.950 . S
C286 C283 1.481 . S
C286 C287 1.297 1_655 S
C286 H300 0.950 . S
C287 C286 1.297 1_455 S
C287 C288 1.479 . S
C287 H301 0.950 . S
C288 C287 1.479 . S
C288 C289 1.375 . S
C288 C294 1.404 . S
C289 C288 1.375 . S
C289 C290 1.369 . S
C289 H302 0.950 . S
C290 C289 1.369 . S
C290 C291 1.392 . S
C290 H303 0.951 . S
C291 C290 1.392 . S
C291 C293 1.384 . S
H292 C294 0.949 . S
C293 C291 1.384 . S
C293 C294 1.385 . S
C293 H295 0.950 . S
C294 C288 1.404 . S
C294 H292 0.949 . S
C294 C293 1.385 . S
H295 C293 0.950 . S
H296 C280 0.951 . S
H297 C282 0.951 . S
H298 C284 0.951 . S
H299 C285 0.950 . S
H300 C286 0.950 . S
H301 C287 0.950 . S
H302 C289 0.950 . S
H303 C290 0.951 . S
C304 C305 1.386 . S
C304 C306 1.383 . S
C304 H320 0.951 . S
C305 C304 1.386 . S
C305 C309 1.383 . S
C306 C304 1.383 . S
C306 C307 1.402 . S
C306 H321 0.951 . S
C307 C306 1.402 . S
C307 C308 1.375 . S
C307 C310 1.481 . S
C308 C307 1.375 . S
C308 C309 1.367 . S
C308 H322 0.951 . S
C309 C305 1.383 . S
C309 C308 1.367 . S
C309 H323 0.950 . S
C310 C307 1.481 . S
C310 C311 1.297 . S
C310 H324 0.950 . S
C311 C310 1.297 . S
C311 C312 1.479 . S
C311 H325 0.950 . S
C312 C311 1.479 . S
C312 C313 1.375 . S
C312 C318 1.404 . S
C313 C312 1.375 . S
C313 C314 1.369 . S
C313 H326 0.950 . S
C314 C313 1.369 . S
C314 C315 1.392 . S
C314 H327 0.951 . S
C315 C314 1.392 . S
C315 C317 1.384 . S
H316 C318 0.949 . S
C317 C315 1.384 . S
C317 C318 1.385 . S
C317 H319 0.950 . S
C318 C312 1.404 . S
C318 H316 0.949 . S
C318 C317 1.385 . S
H319 C317 0.950 . S
H320 C304 0.951 . S
H321 C306 0.951 . S
H322 C308 0.951 . S
H323 C309 0.950 . S
H324 C310 0.950 . S
H325 C311 0.950 . S
H326 C313 0.950 . S
H327 C314 0.951 . S
C328 C329 1.386 . S
C328 C330 1.383 . S
C328 H344 0.951 . S
C329 C328 1.386 . S
C329 C333 1.383 . S
C330 C328 1.383 . S
C330 C331 1.402 . S
C330 H345 0.951 . S
C331 C330 1.402 . S
C331 C332 1.375 . S
C331 C334 1.481 . S
C332 C331 1.375 . S
C332 C333 1.367 . S
C332 H346 0.951 . S
C333 C329 1.383 . S
C333 C332 1.367 . S
C333 H347 0.950 . S
C334 C331 1.481 . S
C334 C335 1.297 . S
C334 H348 0.950 . S
C335 C334 1.297 . S
C335 C336 1.479 . S
C335 H349 0.950 . S
C336 C335 1.479 . S
C336 C337 1.375 . S
C336 C342 1.404 . S
C337 C336 1.375 . S
C337 C338 1.369 . S
C337 H350 0.950 . S
C338 C337 1.369 . S
C338 C339 1.392 . S
C338 H351 0.951 . S
C339 C338 1.392 . S
C339 C341 1.384 . S
H340 C342 0.949 . S
C341 C339 1.384 . S
C341 C342 1.385 . S
C341 H343 0.950 . S
C342 C336 1.404 . S
C342 H340 0.949 . S
C342 C341 1.385 . S
H343 C341 0.950 . S
H344 C328 0.951 . S
H345 C330 0.951 . S
H346 C332 0.951 . S
H347 C333 0.950 . S
H348 C334 0.950 . S
H349 C335 0.950 . S
H350 C337 0.950 . S
H351 C338 0.951 . S
C352 C353 1.386 . S
C352 C354 1.383 . S
C352 H368 0.951 . S
C353 C352 1.386 . S
C353 C357 1.383 . S
C354 C352 1.383 . S
C354 C355 1.402 . S
C354 H369 0.951 . S
C355 C354 1.402 . S
C355 C356 1.375 . S
C355 C358 1.481 . S
C356 C355 1.375 . S
C356 C357 1.367 . S
C356 H370 0.951 . S
C357 C353 1.383 . S
C357 C356 1.367 . S
C357 H371 0.950 . S
C358 C355 1.481 . S
C358 C359 1.297 . S
C358 H372 0.950 . S
C359 C358 1.297 . S
C359 C360 1.479 . S
C359 H373 0.950 . S
C360 C359 1.479 . S
C360 C361 1.375 . S
C360 C366 1.404 . S
C361 C360 1.375 . S
C361 C362 1.369 . S
C361 H374 0.950 . S
C362 C361 1.369 . S
C362 C363 1.392 . S
C362 H375 0.951 . S
C363 C362 1.392 . S
C363 C365 1.384 . S
H364 C366 0.949 . S
C365 C363 1.384 . S
C365 C366 1.385 . S
C365 H367 0.950 . S
C366 C360 1.404 . S
C366 H364 0.949 . S
C366 C365 1.385 . S
H367 C365 0.950 . S
H368 C352 0.951 . S
H369 C354 0.951 . S
H370 C356 0.951 . S
H371 C357 0.950 . S
H372 C358 0.950 . S
H373 C359 0.950 . S
H374 C361 0.950 . S
H375 C362 0.951 . S
C376 C377 1.386 . S
C376 C378 1.383 . S
C376 H392 0.951 . S
C377 C376 1.386 . S
C377 C381 1.383 . S
C378 C376 1.383 . S
C378 C379 1.402 . S
C378 H393 0.951 . S
C379 C378 1.402 . S
C379 C380 1.375 . S
C379 C382 1.481 . S
C380 C379 1.375 . S
C380 C381 1.367 . S
C380 H394 0.951 . S
C381 C377 1.383 . S
C381 C380 1.367 . S
C381 H395 0.950 . S
C382 C379 1.481 . S
C382 C383 1.297 . S
C382 H396 0.950 . S
C383 C382 1.297 . S
C383 C384 1.479 . S
C383 H397 0.950 . S
C384 C383 1.479 . S
C384 C385 1.375 . S
C384 C390 1.404 . S
C385 C384 1.375 . S
C385 C386 1.369 . S
C385 H398 0.950 . S
C386 C385 1.369 . S
C386 C387 1.392 . S
C386 H399 0.951 . S
C387 C386 1.392 . S
C387 C389 1.384 . S
H388 C390 0.949 . S
C389 C387 1.384 . S
C389 C390 1.385 . S
C389 H391 0.950 . S
C390 C384 1.404 . S
C390 H388 0.949 . S
C390 C389 1.385 . S
H391 C389 0.950 . S
H392 C376 0.951 . S
H393 C378 0.951 . S
H394 C380 0.951 . S
H395 C381 0.950 . S
H396 C382 0.950 . S
H397 C383 0.950 . S
H398 C385 0.950 . S
H399 C386 0.951 . S
C400 C401 1.386 . S
C400 C402 1.383 . S
C400 H416 0.951 . S
C401 C400 1.386 . S
C401 C405 1.383 . S
C402 C400 1.383 . S
C402 C403 1.402 . S
C402 H417 0.951 . S
C403 C402 1.402 . S
C403 C404 1.375 . S
C403 C406 1.481 . S
C404 C403 1.375 . S
C404 C405 1.367 . S
C404 H418 0.951 . S
C405 C401 1.383 . S
C405 C404 1.367 . S
C405 H419 0.950 . S
C406 C403 1.481 . S
C406 C407 1.297 . S
C406 H420 0.950 . S
C407 C406 1.297 . S
C407 C408 1.479 . S
C407 H421 0.950 . S
C408 C407 1.479 . S
C408 C409 1.375 . S
C408 C414 1.404 . S
C409 C408 1.375 . S
C409 C410 1.369 . S
C409 H422 0.950 . S
C410 C409 1.369 . S
C410 C411 1.392 . S
C410 H423 0.951 . S
C411 C410 1.392 . S
C411 C413 1.384 . S
H412 C414 0.949 . S
C413 C411 1.384 . S
C413 C414 1.385 . S
C413 H415 0.950 . S
C414 C408 1.404 . S
C414 H412 0.949 . S
C414 C413 1.385 . S
H415 C413 0.950 . S
H416 C400 0.951 . S
H417 C402 0.951 . S
H418 C404 0.951 . S
H419 C405 0.950 . S
H420 C406 0.950 . S
H421 C407 0.950 . S
H422 C409 0.950 . S
H423 C410 0.951 . S
C424 C425 1.386 . S
C424 C426 1.383 . S
C424 H440 0.951 . S
C425 C424 1.386 . S
C425 C429 1.383 . S
C426 C424 1.383 . S
C426 C427 1.402 . S
C426 H441 0.951 . S
C427 C426 1.402 . S
C427 C428 1.375 . S
C427 C430 1.481 . S
C428 C427 1.375 . S
C428 C429 1.367 . S
C428 H442 0.951 . S
C429 C425 1.383 . S
C429 C428 1.367 . S
C429 H443 0.950 . S
C430 C427 1.481 . S
C430 C431 1.297 . S
C430 H444 0.950 . S
C431 C430 1.297 . S
C431 C432 1.479 . S
C431 H445 0.950 . S
C432 C431 1.479 . S
C432 C433 1.375 . S
C432 C438 1.404 . S
C433 C432 1.375 . S
C433 C434 1.369 . S
C433 H446 0.950 . S
C434 C433 1.369 . S
C434 C435 1.392 . S
C434 H447 0.951 . S
C435 C434 1.392 . S
C435 C437 1.384 . S
H436 C438 0.949 . S
C437 C435 1.384 . S
C437 C438 1.385 . S
C437 H439 0.950 . S
C438 C432 1.404 . S
C438 H436 0.949 . S
C438 C437 1.385 . S
H439 C437 0.950 . S
H440 C424 0.951 . S
H441 C426 0.951 . S
H442 C428 0.951 . S
H443 C429 0.950 . S
H444 C430 0.950 . S
H445 C431 0.950 . S
H446 C433 0.950 . S
H447 C434 0.951 . S
C448 C449 1.386 . S
C448 C450 1.383 . S
C448 H464 0.951 . S
C449 C448 1.386 . S
C449 C453 1.383 . S
C450 C448 1.383 . S
C450 C451 1.402 . S
C450 H465 0.951 . S
C451 C450 1.402 . S
C451 C452 1.375 . S
C451 C454 1.481 . S
C452 C451 1.375 . S
C452 C453 1.367 . S
C452 H466 0.951 . S
C453 C449 1.383 . S
C453 C452 1.367 . S
C453 H467 0.950 . S
C454 C451 1.481 . S
C454 C455 1.297 . S
C454 H468 0.950 . S
C455 C454 1.297 . S
C455 C456 1.479 . S
C455 H469 0.950 . S
C456 C455 1.479 . S
C456 C457 1.375 . S
C456 C462 1.404 . S
C457 C456 1.375 . S
C457 C458 1.369 . S
C457 H470 0.950 . S
C458 C457 1.369 . S
C458 C459 1.392 . S
C458 H471 0.951 . S
C459 C458 1.392 . S
C459 C461 1.384 . S
H460 C462 0.949 . S
C461 C459 1.384 . S
C461 C462 1.385 . S
C461 H463 0.950 . S
C462 C456 1.404 . S
C462 H460 0.949 . S
C462 C461 1.385 . S
H463 C461 0.950 . S
H464 C448 0.951 . S
H465 C450 0.951 . S
H466 C452 0.951 . S
H467 C453 0.950 . S
H468 C454 0.950 . S
H469 C455 0.950 . S
H470 C457 0.950 . S
H471 C458 0.951 . S
C472 C473 1.386 . S
C472 C474 1.383 . S
C472 H488 0.951 . S
C473 C472 1.386 . S
C473 C477 1.383 . S
C474 C472 1.383 . S
C474 C475 1.402 . S
C474 H489 0.951 . S
C475 C474 1.402 . S
C475 C476 1.375 . S
C475 C478 1.481 . S
C476 C475 1.375 . S
C476 C477 1.367 . S
C476 H490 0.951 . S
C477 C473 1.383 . S
C477 C476 1.367 . S
C477 H491 0.950 . S
C478 C475 1.481 . S
C478 C479 1.297 . S
C478 H492 0.950 . S
C479 C478 1.297 . S
C479 C480 1.479 . S
C479 H493 0.950 . S
C480 C479 1.479 . S
C480 C481 1.375 . S
C480 C486 1.404 . S
C481 C480 1.375 . S
C481 C482 1.369 . S
C481 H494 0.950 . S
C482 C481 1.369 . S
C482 C483 1.392 . S
C482 H495 0.951 . S
C483 C482 1.392 . S
C483 C485 1.384 . S
H484 C486 0.949 . S
C485 C483 1.384 . S
C485 C486 1.385 . S
C485 H487 0.950 . S
C486 C480 1.404 . S
C486 H484 0.949 . S
C486 C485 1.385 . S
H487 C485 0.950 . S
H488 C472 0.951 . S
H489 C474 0.951 . S
H490 C476 0.951 . S
H491 C477 0.950 . S
H492 C478 0.950 . S
H493 C479 0.950 . S
H494 C481 0.950 . S
H495 C482 0.951 . S
C113 C4 1.454 . S
C123 C46 1.473 . S
C137 C5 1.298 . S
C147 C19 1.225 . S
C161 C18 1.437 . S
C171 C32 1.434 . S
C185 C47 1.334 . S
C195 C33 1.348 . S
C209 C60 1.459 . S
C219 C102 1.425 . S
C233 C75 1.246 . S
C243 C61 1.293 . S
C257 C88 1.466 . S
C267 C74 1.435 . S
C281 C103 1.240 . S
C291 C89 1.280 . S
C305 C96 1.406 . S
C315 C11 1.338 . S
C329 C26 1.403 . S
C339 C109 1.369 . S
C353 C68 1.407 . S
C363 C39 1.370 . S
C377 C81 1.398 . S
C387 C54 1.393 . S
C401 C82 1.407 . S
C411 C53 1.368 . S
C425 C12 1.405 . S
C435 C95 1.402 . S
C449 C25 1.376 . S
C459 C110 1.394 . S
C473 C40 1.408 . S
C483 C67 1.352 . S
