# Generated by pormake.
# Topology smu, (6)-cn, num edge types: 1
# Building blocks:
#     Node 0, Type 0, BuildingBlock: CUKXOW_clean_sbu_0, # of connection points: 6
#     Node 1, Type 0, BuildingBlock: CUKXOW_clean_sbu_0, # of connection points: 6
#     Node 2, Type 0, BuildingBlock: CUKXOW_clean_sbu_0, # of connection points: 6
#     Node 3, Type 0, BuildingBlock: CUKXOW_clean_sbu_0, # of connection points: 6
#     Node 4, Type 0, BuildingBlock: CUKXOW_clean_sbu_0, # of connection points: 6
#     Node 5, Type 0, BuildingBlock: CUKXOW_clean_sbu_0, # of connection points: 6
#     Edge 6, Type (0, 0), BuildingBlock: TEMPAE_clean_linker_10, # of connection points: 2
#     Edge 7, Type (0, 0), BuildingBlock: TEMPAE_clean_linker_10, # of connection points: 2
#     Edge 8, Type (0, 0), BuildingBlock: TEMPAE_clean_linker_10, # of connection points: 2
#     Edge 9, Type (0, 0), BuildingBlock: TEMPAE_clean_linker_10, # of connection points: 2
#     Edge 10, Type (0, 0), BuildingBlock: TEMPAE_clean_linker_10, # of connection points: 2
#     Edge 11, Type (0, 0), BuildingBlock: TEMPAE_clean_linker_10, # of connection points: 2
#     Edge 12, Type (0, 0), BuildingBlock: TEMPAE_clean_linker_10, # of connection points: 2
#     Edge 13, Type (0, 0), BuildingBlock: TEMPAE_clean_linker_10, # of connection points: 2
#     Edge 14, Type (0, 0), BuildingBlock: TEMPAE_clean_linker_10, # of connection points: 2
#     Edge 15, Type (0, 0), BuildingBlock: TEMPAE_clean_linker_10, # of connection points: 2
#     Edge 16, Type (0, 0), BuildingBlock: TEMPAE_clean_linker_10, # of connection points: 2
#     Edge 17, Type (0, 0), BuildingBlock: TEMPAE_clean_linker_10, # of connection points: 2
#     Edge 18, Type (0, 0), BuildingBlock: TEMPAE_clean_linker_10, # of connection points: 2
#     Edge 19, Type (0, 0), BuildingBlock: TEMPAE_clean_linker_10, # of connection points: 2
#     Edge 20, Type (0, 0), BuildingBlock: TEMPAE_clean_linker_10, # of connection points: 2
#     Edge 21, Type (0, 0), BuildingBlock: TEMPAE_clean_linker_10, # of connection points: 2
#     Edge 22, Type (0, 0), BuildingBlock: TEMPAE_clean_linker_10, # of connection points: 2
#     Edge 23, Type (0, 0), BuildingBlock: TEMPAE_clean_linker_10, # of connection points: 2
# Relax obj value: 0.192
# Max RMSD: 0.297
# Mean RMSD: 0.276
data_MOF--net-smu--node1-CUKXOW_clean_sbu_0--edge1-TEMPAE_clean_linker_10
_symmetry_space_group_name_H-M    P1
_symmetry_Int_Tables_number       1
_symmetry_cell_setting            triclinic
loop_
_symmetry_equiv_pos_as_xyz
'x, y, z'
_cell_length_a     30.952804
_cell_length_b     30.967691
_cell_length_c     29.088341
_cell_angle_alpha  93.692626
_cell_angle_beta   91.309671
_cell_angle_gamma 120.08371
loop_
_atom_site_label
_atom_site_type_symbol
_atom_site_fract_x
_atom_site_fract_y
_atom_site_fract_z
_atom_type_partial_charge
Tb0 Tb 0.39944 0.15431 0.26947 0.0
C1 C 0.35062 0.08435 0.35208 0.0
Tb2 Tb 0.3146 0.04782 0.24679 0.0
O3 O 0.3478 0.17736 0.29295 0.0
O4 O 0.3248 0.12075 0.24002 0.0
O5 O 0.39295 0.12293 0.33839 0.0
C6 C 0.21748 0.98011 0.24061 0.0
O7 O 0.31342 0.05409 0.32157 0.0
C8 C 0.40687 0.0618 0.2535 0.0
C9 C 0.37068 0.09951 0.1648 0.0
O10 O 0.25295 0.96942 0.2347 0.0
O11 O 0.23712 0.02781 0.25019 0.0
O12 O 0.37042 0.02456 0.22766 0.0
O13 O 0.38843 0.08359 0.27583 0.0
O14 O 0.32607 0.06704 0.17729 0.0
O15 O 0.40678 0.13338 0.19547 0.0
C16 C 0.47722 0.24881 0.2711 0.0
O17 O 0.4627 0.21458 0.23695 0.0
O18 O 0.45009 0.22861 0.30533 0.0
C19 C 0.31026 0.14384 0.2669 0.0
Tb20 Tb 0.75623 0.71863 0.2618 0.0
C21 C 0.75518 0.68736 0.36352 0.0
Tb22 Tb 0.78437 0.63939 0.27663 0.0
O23 O 0.67798 0.65862 0.2377 0.0
O24 O 0.72163 0.6459 0.2832 0.0
O25 O 0.76043 0.72267 0.33687 0.0
C26 C 0.80661 0.5655 0.27443 0.0
O27 O 0.75654 0.64675 0.34588 0.0
C28 C 0.85972 0.73181 0.27957 0.0
C29 C 0.76105 0.66283 0.17454 0.0
O30 O 0.81756 0.59937 0.30819 0.0
O31 O 0.78027 0.57132 0.24267 0.0
O32 O 0.85845 0.69774 0.30353 0.0
O33 O 0.82102 0.71198 0.25272 0.0
O34 O 0.75923 0.62807 0.20107 0.0
O35 O 0.77058 0.70701 0.19228 0.0
C36 C 0.78162 0.81432 0.2631 0.0
O37 O 0.80856 0.79726 0.28001 0.0
O38 O 0.73826 0.77694 0.24674 0.0
C39 C 0.68148 0.62451 0.25915 0.0
Tb40 Tb 0.8805 0.25602 0.27652 0.0
C41 C 0.95939 0.29046 0.36435 0.0
Tb42 Tb 0.9856 0.27637 0.26159 0.0
O43 O 0.86019 0.18427 0.3012 0.0
O44 O 0.91197 0.21221 0.25154 0.0
O45 O 0.91775 0.28898 0.34737 0.0
C46 C 0.05415 0.24862 0.25882 0.0
O47 O 0.98828 0.28162 0.33685 0.0
C48 C 0.97194 0.35479 0.26325 0.0
C49 C 0.92521 0.26917 0.1754 0.0
O50 O 1.00997 0.22336 0.27392 0.0
O51 O 0.06114 0.2914 0.24654 0.0
O52 O 1.00713 0.35293 0.24065 0.0
O53 O 0.95204 0.31724 0.28553 0.0
O54 O 0.95642 0.25582 0.19138 0.0
O55 O 0.89562 0.27722 0.2034 0.0
C56 C 0.78552 0.23793 0.27262 0.0
O57 O 0.81487 0.25031 0.23881 0.0
O58 O 0.81092 0.2391 0.30919 0.0
C59 C 0.89159 0.17768 0.27803 0.0
Tb60 Tb 0.0536 0.30997 0.77942 0.0
C61 C 0.10604 0.35885 0.69188 0.0
Tb62 Tb 0.16206 0.39686 0.79186 0.0
O63 O 0.02982 0.36083 0.75112 0.0
O64 O 0.0911 0.38755 0.79768 0.0
O65 O 0.07523 0.31621 0.70907 0.0
C66 C 0.25835 0.4674 0.81197 0.0
O67 O 0.1399 0.39926 0.71881 0.0
C68 C 0.14898 0.30749 0.76777 0.0
C69 C 0.09318 0.35782 0.88037 0.0
O70 O 0.22563 0.47402 0.78906 0.0
O71 O 0.23573 0.42245 0.82528 0.0
O72 O 0.18241 0.34842 0.7523 0.0
O73 O 0.1248 0.318 0.79619 0.0
O74 O 0.13559 0.39372 0.86396 0.0
O75 O 0.05789 0.31952 0.85362 0.0
C76 C 0.98341 0.21346 0.77533 0.0
O77 O 0.97687 0.25045 0.78995 0.0
O78 O 0.02832 0.23129 0.76167 0.0
C79 C 0.0676 0.40107 0.77249 0.0
Tb80 Tb 0.28263 0.98141 0.77257 0.0
C81 C 0.28203 0.94549 0.6673 0.0
Tb82 Tb 0.2528 0.87202 0.74876 0.0
O83 O 0.36076 1.00271 0.79553 0.0
O84 O 0.31749 0.94156 0.74875 0.0
O85 O 0.28327 0.97959 0.69812 0.0
C86 C 0.22121 0.77349 0.74796 0.0
O87 O 0.27527 0.90136 0.67942 0.0
C88 C 0.18024 0.89231 0.74388 0.0
C89 C 0.27815 0.92395 0.85387 0.0
O90 O 0.25486 0.80421 0.72187 0.0
O91 O 0.20728 0.79874 0.77461 0.0
O92 O 0.18375 0.86036 0.71574 0.0
O93 O 0.21628 0.91033 0.77398 0.0
O94 O 0.28161 0.8914 0.82361 0.0
O95 O 0.26615 0.95641 0.84011 0.0
C96 C 0.2577 0.05219 0.77296 0.0
O97 O 0.23274 1.0077 0.75195 0.0
O98 O 0.2986 0.05811 0.79346 0.0
C99 C 0.35777 0.96314 0.77319 0.0
Tb100 Tb 0.72359 0.75446 0.78816 0.0
C101 C 0.68047 0.7547 0.68882 0.0
Tb102 Tb 0.63554 0.77107 0.78219 0.0
O103 O 0.67234 0.67538 0.8036 0.0
O104 O 0.64729 0.71202 0.76388 0.0
O105 O 0.71901 0.76032 0.7146 0.0
C106 C 0.55864 0.78769 0.79086 0.0
O107 O 0.63958 0.75092 0.70765 0.0
C108 C 0.72292 0.85134 0.77804 0.0
C109 C 0.67314 0.74713 0.87751 0.0
O110 O 0.56374 0.76211 0.7563 0.0
O111 O 0.59536 0.80129 0.82124 0.0
O112 O 0.68238 0.84327 0.75653 0.0
O113 O 0.71278 0.81658 0.80388 0.0
O114 O 0.63376 0.74114 0.8514 0.0
O115 O 0.7173 0.76388 0.86068 0.0
C116 C 0.8205 0.78408 0.78496 0.0
O117 O 0.7853 0.73811 0.78934 0.0
O118 O 0.80077 0.81209 0.78226 0.0
C119 C 0.63307 0.67236 0.7826 0.0
C120 C 0.35217 0.97062 0.90911 0.0
C121 C 0.30075 0.93598 0.90182 0.0
C122 C 0.37262 1.00006 0.95149 0.0
C123 C 0.34119 0.99378 0.98823 0.0
C124 C 0.29005 0.95555 0.98228 0.0
C125 C 0.27027 0.92808 0.93892 0.0
C126 C 0.42685 0.04097 0.95529 0.0
C127 C 0.25535 0.94579 0.02085 0.0
C128 C 0.3932 0.04919 0.112 0.0
C129 C 0.38102 0.08713 0.11775 0.0
C130 C 0.38255 0.01982 0.06965 0.0
C131 C 0.36031 0.02936 0.03141 0.0
C132 C 0.35227 0.07074 0.03594 0.0
C133 C 0.3616 0.09829 0.07924 0.0
C134 C 0.39071 0.97562 0.06736 0.0
C135 C 0.33054 0.08385 0.99584 0.0
H136 H 0.37572 0.97809 0.88024 0.0
H137 H 0.23032 0.90254 0.93321 0.0
H138 H 0.42906 0.07785 0.95495 0.0
H139 H 0.4456 0.0412 0.98832 0.0
H140 H 0.44774 0.03699 0.92632 0.0
H141 H 0.21903 0.91045 1.0132 0.0
H142 H 0.27295 0.94367 0.05365 0.0
H143 H 0.24783 0.97715 0.02619 0.0
H144 H 0.40672 0.03925 0.14193 0.0
H145 H 0.35062 0.12643 0.08369 0.0
H146 H 0.40838 0.97344 0.03524 0.0
H147 H 0.35395 0.94057 0.0669 0.0
H148 H 0.41444 0.97727 0.09744 0.0
H149 H 0.34971 0.0839 0.96405 0.0
H150 H 0.33375 0.1211 1.00266 0.0
H151 H 0.29037 0.05526 0.98917 0.0
C152 C 0.6434 0.70741 0.61057 0.0
C153 C 0.68347 0.74615 0.63833 0.0
C154 C 0.65068 0.69275 0.56561 0.0
C155 C 0.69907 0.71739 0.54811 0.0
C156 C 0.73904 0.75752 0.57571 0.0
C157 C 0.73072 0.7713 0.6201 0.0
C158 C 0.60695 0.65009 0.53724 0.0
C159 C 0.79107 0.78559 0.55866 0.0
C160 C 0.73971 0.6632 0.44638 0.0
C161 C 0.73819 0.69095 0.41074 0.0
C162 C 0.72512 0.66969 0.49098 0.0
C163 C 0.70805 0.7042 0.49998 0.0
C164 C 0.70454 0.73053 0.46354 0.0
C165 C 0.71968 0.72378 0.41989 0.0
C166 C 0.72955 0.6409 0.5289 0.0
C167 C 0.68651 0.76753 0.47099 0.0
H168 H 0.60709 0.68704 0.62474 0.0
H169 H 0.76197 0.80113 0.64143 0.0
H170 H 0.60168 0.66254 0.50371 0.0
H171 H 0.61467 0.61914 0.52951 0.0
H172 H 0.57161 0.63539 0.5552 0.0
H173 H 0.81834 0.81519 0.58476 0.0
H174 H 0.80449 0.75916 0.54952 0.0
H175 H 0.79043 0.80338 0.52694 0.0
H176 H 0.75344 0.63749 0.4398 0.0
H177 H 0.71711 0.74492 0.39275 0.0
H178 H 0.69401 0.62201 0.54641 0.0
H179 H 0.75918 0.66723 0.55526 0.0
H180 H 0.73897 0.61234 0.51573 0.0
H181 H 0.65029 0.75001 0.48749 0.0
H182 H 0.68173 0.78169 0.43825 0.0
H183 H 0.71384 0.79997 0.49466 0.0
C184 C 0.96415 0.33885 0.12451 0.0
C185 C 0.9355 0.28713 0.12857 0.0
C186 C 0.99241 0.35781 0.08571 0.0
C187 C 0.9913 0.32428 0.0494 0.0
C188 C 0.95944 0.27202 0.05196 0.0
C189 C 0.93284 0.25419 0.09172 0.0
C190 C 0.02624 0.41367 0.08526 0.0
C191 C 0.9554 0.23463 1.01368 0.0
C192 C 0.032 0.36453 0.92906 0.0
C193 C 0.0769 0.36367 0.92702 0.0
C194 C 1.00513 0.35427 0.96916 0.0
C195 C 0.02359 0.34321 1.00899 0.0
C196 C 0.07084 0.34581 1.00826 0.0
C197 C 0.09671 0.35546 0.96713 0.0
C198 C 0.95495 0.35138 0.96754 0.0
C199 C 0.09268 0.33546 0.05014 0.0
H200 H 0.96798 0.36456 0.15349 0.0
H201 H 0.91213 0.21423 0.09521 0.0
H202 H 0.06582 0.42298 0.08893 0.0
H203 H 0.02097 0.4264 0.05191 0.0
H204 H 1.01954 0.43488 0.11373 0.0
H205 H 0.92577 0.19579 0.01888 0.0
H206 H 0.9471 0.24454 0.97991 0.0
H207 H 0.99162 0.23557 1.01188 0.0
H208 H 1.01601 0.36995 0.8979 0.0
H209 H 0.13066 0.35353 0.96562 0.0
H210 H 0.95208 0.37296 0.99807 0.0
H211 H 0.92485 0.3118 0.96848 0.0
H212 H 0.94812 0.36582 0.93583 0.0
H213 H 0.09084 0.35676 0.08147 0.0
H214 H 0.13219 0.34545 0.04639 0.0
H215 H 0.07044 0.29506 0.05555 0.0
C216 C 0.38585 0.08282 0.43194 0.0
C217 C 0.34513 0.06735 0.39987 0.0
C218 C 0.37925 0.06138 0.47476 0.0
C219 C 0.33096 0.02333 0.48567 0.0
C220 C 0.29002 1.00785 0.45334 0.0
C221 C 0.29747 0.03018 0.41155 0.0
C222 C 0.42384 0.07962 0.50851 0.0
C223 C 0.23777 0.96792 0.46308 0.0
C224 C 0.30761 0.93884 0.58507 0.0
C225 C 0.29318 0.96219 0.61942 0.0
C226 C 0.3215 0.95889 0.54171 0.0
C227 C 0.32135 1.00346 0.53258 0.0
C228 C 0.3069 0.02692 0.56723 0.0
C229 C 0.29268 1.00594 0.60946 0.0
C230 C 0.33597 0.93225 0.50549 0.0
C231 C 0.30561 0.0741 0.55953 0.0
H232 H 0.42285 0.11097 0.42335 0.0
H233 H 0.26533 0.01778 0.38757 0.0
H234 H 0.41816 0.09695 0.54066 0.0
H235 H 0.4277 0.04756 0.51808 0.0
H236 H 0.45918 0.10758 0.49431 0.0
H237 H 0.21064 0.95713 0.43291 0.0
H238 H 0.23782 0.93392 0.47293 0.0
H239 H 0.22447 0.98166 0.49256 0.0
H240 H 0.30856 0.90539 0.59216 0.0
H241 H 0.28122 0.02457 0.63505 0.0
H242 H 0.37353 0.95849 0.49394 0.0
H243 H 0.30916 0.9192 0.47482 0.0
H244 H 0.33646 0.89946 0.51831 0.0
H245 H 0.34205 0.10304 0.54799 0.0
H246 H 0.29722 0.08995 0.59115 0.0
H247 H 0.27661 0.06599 0.53188 0.0
C248 C 0.67066 0.67837 0.91888 0.0
C249 C 0.66743 0.72216 0.92095 0.0
C250 C 0.67982 0.65992 0.95858 0.0
C251 C 0.68773 0.68661 1.00213 0.0
C252 C 0.68262 0.72989 1.00502 0.0
C253 C 0.67279 0.74731 0.96438 0.0
C254 C 0.68483 0.61381 0.95324 0.0
C255 C 0.69067 0.75962 0.05072 0.0
C256 C 0.69213 0.62852 0.11365 0.0
C257 C 0.74377 0.65262 0.12512 0.0
C258 C 0.67318 0.63799 0.07322 0.0
C259 C 0.70665 0.67232 0.04335 0.0
C260 C 0.75888 0.69373 0.05313 0.0
C261 C 0.77666 0.68396 0.09392 0.0
C262 C 0.61733 0.61405 0.0643 0.0
C263 C 0.79622 0.7297 0.02208 0.0
H264 H 0.66901 0.65974 0.88567 0.0
H265 H 0.67234 0.78215 0.96634 0.0
H266 H 0.72477 0.62488 0.95891 0.0
H267 H 0.66385 0.58767 0.97939 0.0
H268 H 0.67102 0.59358 0.91836 0.0
H269 H 0.67994 0.78871 0.04825 0.0
H270 H 0.6687 0.73439 0.07712 0.0
H271 H 0.73073 0.77832 0.06288 0.0
H272 H 0.66642 0.60591 0.13846 0.0
H273 H 0.81651 0.70414 0.10336 0.0
H274 H 0.60586 0.5972 0.02815 0.0
H275 H 0.60653 0.64315 0.0691 0.0
H276 H 0.59633 0.5846 0.08796 0.0
H277 H 0.78776 0.71273 0.98589 0.0
H278 H 0.83529 0.74055 0.03278 0.0
H279 H 0.7935 0.76412 0.02268 0.0
C280 C 0.95121 0.30152 0.45073 0.0
C281 C 0.98081 0.31075 0.41275 0.0
C282 C 0.9734 0.31591 0.49643 0.0
C283 C 0.02637 0.34064 0.50429 0.0
C284 C 0.05618 0.35266 0.46581 0.0
C285 C 0.0332 0.33751 0.42093 0.0
C286 C 0.94009 0.3024 0.53637 0.0
C287 C 0.11257 0.3792 0.47193 0.0
C288 C 0.09071 0.39896 0.62522 0.0
C289 C 0.09587 0.36011 0.64181 0.0
C290 C 0.06814 0.39345 0.58066 0.0
C291 C 0.05059 0.34817 0.55193 0.0
C292 C 0.05789 0.30994 0.56805 0.0
C293 C 0.08015 0.31634 0.6125 0.0
C294 C 0.06137 0.4353 0.56504 0.0
C295 C 0.04085 0.26138 0.5388 0.0
H296 H 0.91084 0.28108 0.44489 0.0
H297 H 0.0567 0.34587 0.39193 0.0
H298 H 0.94191 0.27263 0.55411 0.0
H299 H 0.95325 0.33529 0.56198 0.0
H300 H 0.90047 0.28866 0.52502 0.0
H301 H 0.13056 0.39083 0.43884 0.0
H302 H 0.12696 0.41288 0.49676 0.0
H303 H 0.12408 0.35392 0.48636 0.0
H304 H 0.10171 0.43243 0.64793 0.0
H305 H 0.08359 0.28595 0.62519 0.0
H306 H 0.02087 0.42241 0.56075 0.0
H307 H 0.07711 0.4458 0.53095 0.0
H308 H 0.07953 0.46912 0.59005 0.0
H309 H 0.9999 0.24227 0.53047 0.0
H310 H 0.0494 0.23542 0.55627 0.0
H311 H 0.05927 0.26906 0.50564 0.0
C312 C 0.49304 0.13247 0.27361 0.0
C313 C 0.46204 0.08442 0.25114 0.0
C314 C 0.54522 0.15686 0.2732 0.0
C315 C 0.56802 0.13212 0.25118 0.0
C316 C 0.53722 0.08338 0.22838 0.0
C317 C 0.48441 0.06027 0.22808 0.0
C318 C 0.57598 0.2092 0.2969 0.0
C319 C 0.5601 0.05527 0.20536 0.0
C320 C 0.70573 0.21605 0.22768 0.0
C321 C 0.73006 0.21286 0.26748 0.0
C322 C 0.65305 0.18901 0.22118 0.0
C323 C 0.62402 0.15695 0.25471 0.0
C324 C 0.64869 0.15303 0.29453 0.0
C325 C 0.70119 0.18145 0.30068 0.0
C326 C 0.62841 0.1956 0.17896 0.0
C327 C 0.61954 0.11915 0.33103 0.0
H328 H 0.47651 0.1516 0.29183 0.0
H329 H 0.46084 0.02317 0.21077 0.0
H330 H 0.60048 0.20958 0.32553 0.0
H331 H 0.60058 0.23517 0.27214 0.0
H332 H 0.55239 0.22384 0.31124 0.0
H333 H 0.53135 0.01856 0.18784 0.0
H334 H 0.5861 0.07791 0.17962 0.0
H335 H 0.58237 0.04872 0.23153 0.0
H336 H 0.7279 0.23994 0.20172 0.0
H337 H 0.71976 0.17812 0.33117 0.0
H338 H 0.60559 0.21257 0.18958 0.0
H339 H 0.60265 0.15867 0.16008 0.0
H340 H 0.65611 0.21991 0.15503 0.0
H341 H 0.59723 0.13356 0.34853 0.0
H342 H 0.64429 0.11647 0.35756 0.0
H343 H 0.5929 0.08096 0.31492 0.0
C344 C 0.66739 0.54094 0.27501 0.0
C345 C 0.64897 0.56899 0.25469 0.0
C346 C 0.6392 0.48872 0.27389 0.0
C347 C 0.5901 0.46307 0.25306 0.0
C348 C 0.57097 0.49081 0.23196 0.0
C349 C 0.60091 0.54361 0.23259 0.0
C350 C 0.66189 0.46115 0.29602 0.0
C351 C 0.51852 0.46483 0.20988 0.0
C352 C 0.53421 0.32187 0.22758 0.0
C353 C 0.50832 0.30353 0.26726 0.0
C354 C 0.55972 0.37354 0.2217 0.0
C355 C 0.55875 0.40768 0.25602 0.0
C356 C 0.53225 0.38912 0.29597 0.0
C357 C 0.50775 0.33745 0.30124 0.0
C358 C 0.58842 0.39171 0.17914 0.0
C359 C 0.53019 0.42398 0.33348 0.0
H360 H 0.70428 0.55989 0.29247 0.0
H361 H 0.58637 0.56494 0.21691 0.0
H362 H 0.64057 0.44272 0.32592 0.0
H363 H 0.65965 0.43133 0.27109 0.0
H364 H 0.7017 0.48641 0.30825 0.0
H365 H 0.50995 0.49108 0.19299 0.0
H366 H 0.51305 0.43449 0.18378 0.0
H367 H 0.49129 0.4471 0.23649 0.0
H368 H 0.53437 0.29576 0.20101 0.0
H369 H 0.48723 0.32347 0.33169 0.0
H370 H 0.62892 0.4159 0.18921 0.0
H371 H 0.57636 0.41484 0.16126 0.0
H372 H 0.58328 0.36031 0.1545 0.0
H373 H 0.56816 0.44904 0.3502 0.0
H374 H 0.50467 0.40339 0.36045 0.0
H375 H 0.51752 0.4481 0.31844 0.0
C376 C 0.97176 0.43074 0.2347 0.0
C377 C 0.94987 0.38746 0.25846 0.0
C378 C 0.94945 0.46093 0.23266 0.0
C379 C 0.90418 0.44711 0.25453 0.0
C380 C 0.88151 0.40263 0.27723 0.0
C381 C 0.90474 0.37394 0.27923 0.0
C382 C 0.97484 0.50815 0.20816 0.0
C383 C 0.83307 0.38572 0.30056 0.0
C384 C 0.86794 0.54129 0.30164 0.0
C385 C 0.83025 0.53408 0.26911 0.0
C386 C 0.89394 0.5151 0.29597 0.0
C387 C 0.88166 0.48015 0.25705 0.0
C388 C 0.8437 0.47282 0.2239 0.0
C389 C 0.81863 0.50008 0.2302 0.0
C390 C 0.93392 0.52412 0.33228 0.0
C391 C 0.82884 0.43539 0.18233 0.0
H392 H 1.00648 0.44137 0.21848 0.0
H393 H 0.88723 0.34059 0.29763 0.0
H394 H 0.94791 0.50912 0.18301 0.0
H395 H 0.98815 0.5412 0.23361 0.0
H396 H 1.00728 0.51157 0.18966 0.0
H397 H 0.81886 0.3487 0.31447 0.0
H398 H 0.83871 0.41358 0.32946 0.0
H399 H 0.80389 0.38318 0.27585 0.0
H400 H 0.87759 0.56797 0.33151 0.0
H401 H 0.78987 0.49472 0.20472 0.0
H402 H 0.96903 0.53255 0.31591 0.0
H403 H 0.92176 0.48977 0.3504 0.0
H404 H 0.94204 0.55553 0.35832 0.0
H405 H 0.86234 0.44235 0.16374 0.0
H406 H 0.80152 0.43682 0.15795 0.0
H407 H 0.81187 0.39699 0.19367 0.0
C408 C 0.12877 0.49134 0.79185 0.0
C409 C 0.08725 0.45444 0.76407 0.0
C410 C 0.151 0.54226 0.78467 0.0
C411 C 0.13095 0.5574 0.74908 0.0
C412 C 0.08903 0.52035 0.72059 0.0
C413 C 0.06761 0.46918 0.72841 0.0
C414 C 0.19564 0.57996 0.81587 0.0
C415 C 0.06659 0.53484 0.68219 0.0
C416 C 0.15704 0.69089 0.77246 0.0
C417 C 0.19819 0.71812 0.74615 0.0
C418 C 0.1336 0.63854 0.77198 0.0
C419 C 0.15181 0.61227 0.74475 0.0
C420 C 0.19296 0.63943 0.71745 0.0
C421 C 0.21561 0.69209 0.71835 0.0
C422 C 0.09008 0.6115 0.80176 0.0
C423 C 0.21389 0.61301 0.6883 0.0
H424 H 0.14415 0.48038 0.81963 0.0
H425 H 0.03587 0.44084 0.70656 0.0
H426 H 0.22713 0.604 0.79501 0.0
H427 H 0.1858 0.60482 0.83655 0.0
H428 H 0.20871 0.5618 0.83991 0.0
H429 H 0.03603 0.50163 0.66147 0.0
H430 H 0.05141 0.5581 0.69689 0.0
H431 H 0.09587 0.55787 0.65892 0.0
H432 H 0.14306 0.71063 0.79381 0.0
H433 H 0.24726 0.71289 0.69783 0.0
H434 H 0.10074 0.59486 0.82938 0.0
H435 H 0.05775 0.58034 0.78086 0.0
H436 H 0.07801 0.63678 0.81819 0.0
H437 H 0.23067 0.59709 0.71099 0.0
H438 H 0.24301 0.63858 0.66608 0.0
H439 H 0.18352 0.58131 0.66606 0.0
C440 C 0.44158 0.96931 0.78985 0.0
C441 C 0.3896 0.94046 0.78101 0.0
C442 C 0.4709 0.94609 0.79272 0.0
C443 C 0.44732 0.89291 0.78867 0.0
C444 C 0.39468 0.86404 0.78199 0.0
C445 C 0.36704 0.88815 0.77699 0.0
C446 C 0.5271 0.97831 0.79824 0.0
C447 C 0.36726 0.80743 0.77929 0.0
C448 C 0.51229 0.82132 0.74842 0.0
C449 C 0.52655 0.81062 0.79031 0.0
C450 C 0.48847 0.8499 0.74753 0.0
C451 C 0.47699 0.86675 0.78952 0.0
C452 C 0.49018 0.85479 0.83189 0.0
C453 C 0.51566 0.82775 0.83179 0.0
C454 C 0.47611 0.86258 0.70161 0.0
C455 C 0.47664 0.86982 0.87729 0.0
H456 H 0.45943 1.0098 0.79254 0.0
H457 H 0.32723 0.86561 0.77027 0.0
H458 H 0.54178 0.96917 0.82898 0.0
H459 H 0.54376 0.97038 0.76775 0.0
H460 H 0.53972 0.01892 0.80179 0.0
H461 H 0.32622 0.79102 0.78115 0.0
H462 H 0.37412 0.79253 0.7463 0.0
H463 H 0.38111 0.79444 0.80776 0.0
H464 H 0.52159 0.80908 0.7163 0.0
H465 H 0.52704 0.81987 0.86424 0.0
H466 H 0.49106 0.90354 0.70216 0.0
H467 H 0.43495 0.8438 0.695 0.0
H468 H 0.49164 0.8508 0.67253 0.0
H469 H 0.49331 0.91106 0.88192 0.0
H470 H 0.48958 0.85772 0.9072 0.0
H471 H 0.43543 0.85298 0.87734 0.0
C472 C 0.33851 0.55064 0.81057 0.0
C473 C 0.31372 0.49844 0.81134 0.0
C474 C 0.39106 0.5788 0.80822 0.0
C475 C 0.41908 0.5539 0.80431 0.0
C476 C 0.3938 0.50108 0.8044 0.0
C477 C 0.34186 0.4743 0.80892 0.0
C478 C 0.41661 0.63517 0.80998 0.0
C479 C 0.42132 0.47252 0.79814 0.0
C480 C 0.54499 0.62246 0.74985 0.0
C481 C 0.57928 0.63636 0.78796 0.0
C482 C 0.49301 0.59465 0.75446 0.0
C483 C 0.47449 0.58253 0.79877 0.0
C484 C 0.50906 0.59669 0.83745 0.0
C485 C 0.56091 0.62236 0.83137 0.0
C486 C 0.45796 0.57853 0.71184 0.0
C487 C 0.49137 0.58649 0.88558 0.0
H488 H 0.31693 0.56944 0.81237 0.0
H489 H 0.32284 0.43384 0.80875 0.0
H490 H 0.44793 0.65243 0.83695 0.0
H491 H 0.43287 0.64803 0.77654 0.0
H492 H 0.39046 0.64911 0.81737 0.0
H493 H 0.39598 0.43138 0.79764 0.0
H494 H 0.44028 0.48082 0.76524 0.0
H495 H 0.45073 0.48459 0.82639 0.0
H496 H 0.55897 0.63372 0.71624 0.0
H497 H 0.58686 0.63387 0.86108 0.0
H498 H 0.43585 0.5977 0.71347 0.0
H499 H 0.43111 0.53762 0.71 0.0
H500 H 0.47827 0.58724 0.67964 0.0
H501 H 0.46803 0.60362 0.8935 0.0
H502 H 0.52294 0.60159 0.91222 0.0
H503 H 0.46756 0.54561 0.88798 0.0
C504 C 0.2506 0.16553 0.29998 0.0
C505 C 0.2639 0.1458 0.26184 0.0
C506 C 0.21309 0.17782 0.29571 0.0
C507 C 0.18818 0.17028 0.25203 0.0
C508 C 0.1993 0.14745 0.21379 0.0
C509 C 0.23722 0.13529 0.21918 0.0
C510 C 0.20187 0.20115 0.33761 0.0
C511 C 0.17306 0.13833 0.16684 0.0
C512 C 0.07048 0.17804 0.26031 0.0
C513 C 0.08818 0.22851 0.25342 0.0
C514 C 0.10181 0.15759 0.25696 0.0
C515 C 0.15224 0.18852 0.2469 0.0
C516 C 0.16982 0.23906 0.23814 0.0
C517 C 0.1374 0.25847 0.24134 0.0
C518 C 0.08147 0.10347 0.26604 0.0
C519 C 0.22348 0.27324 0.22752 0.0
H520 H 0.27107 0.17323 0.33309 0.0
H521 H 0.24774 0.1202 0.18966 0.0
H522 H 0.2117 0.24004 0.33193 0.0
H523 H 0.16132 0.17992 0.34324 0.0
H524 H 0.22297 0.2022 0.36948 0.0
H525 H 0.18134 0.11478 0.14234 0.0
H526 H 0.13199 0.11984 0.16951 0.0
H527 H 0.18531 0.17474 0.15242 0.0
H528 H 0.03207 0.15446 0.26892 0.0
H529 H 0.15091 0.29731 0.23556 0.0
H530 H 0.10009 0.10143 0.29821 0.0
H531 H 0.0897 0.08364 0.23754 0.0
H532 H 0.04044 0.08342 0.2697 0.0
H533 H 0.24847 0.28022 0.25848 0.0
H534 H 0.23001 0.30987 0.21719 0.0
H535 H 0.23423 0.25523 0.1994 0.0
C536 C 0.94544 0.79682 0.30681 0.0
C537 C 0.90773 0.77589 0.27119 0.0
C538 C 0.99463 0.83217 0.29845 0.0
C539 C 1.00642 0.8464 0.25311 0.0
C540 C 0.96791 0.82724 0.21735 0.0
C541 C 0.91865 0.79226 0.22692 0.0
C542 C 0.03432 0.85267 0.33781 0.0
C543 C 0.97915 0.84165 0.16864 0.0
C544 C 0.1312 0.96444 0.24664 0.0
C545 C 0.1631 0.94507 0.23897 0.0
C546 C 0.07966 0.93273 0.24916 0.0
C547 C 0.05946 0.88033 0.24354 0.0
C548 C 0.09116 0.86052 0.23369 0.0
C549 C 0.14286 0.89326 0.23165 0.0
C550 C 0.04726 0.95532 0.26004 0.0
C551 C 0.07073 0.80473 0.22721 0.0
H552 H 0.93673 0.78411 0.34107 0.0
H553 H 0.88942 0.77566 0.1993 0.0
H554 H 0.06183 0.84037 0.33116 0.0
H555 H 0.05501 0.89422 0.3405 0.0
H556 H 1.01834 0.84 0.37147 0.0
H557 H 0.94456 0.82679 0.14577 0.0
H558 H 1.00094 0.88298 0.16828 0.0
H559 H 1.00245 0.82677 0.15418 0.0
H560 H 0.14671 1.00463 0.25195 0.0
H561 H 0.16748 0.87834 0.22546 0.0
H562 H 0.03176 0.94495 0.29423 0.0
H563 H 1.01508 0.94029 0.23418 0.0
H564 H 0.06835 0.99681 0.2607 0.0
H565 H 0.05759 0.78815 0.26036 0.0
H566 H 0.09923 0.79546 0.21536 0.0
H567 H 0.03805 0.78685 0.20171 0.0
C568 C 0.87036 0.09832 0.30985 0.0
C569 C 0.88784 0.12837 0.27299 0.0
C570 C 0.85653 0.04778 0.3047 0.0
C571 C 0.86015 0.02663 0.26142 0.0
C572 C 0.88051 0.05749 0.22465 0.0
C573 C 0.89436 0.1084 0.23092 0.0
C574 C 0.836 0.01657 0.34512 0.0
C575 C 0.88538 0.03624 0.1782 0.0
C576 C 0.85238 0.90174 0.26963 0.0
C577 C 0.80118 0.86813 0.25923 0.0
C578 C 0.87281 0.95334 0.26748 0.0
C579 C 0.84111 0.97189 0.25519 0.0
C580 C 0.78966 0.93797 0.24292 0.0
C581 C 0.77026 0.88624 0.24489 0.0
C582 C 0.92787 0.98809 0.2804 0.0
C583 C 0.75473 0.95649 0.22968 0.0
H584 H 0.86569 0.11405 0.3425 0.0
H585 H 0.90767 0.13171 0.20237 0.0
H586 H 0.79645 0.98705 0.33653 0.0
H587 H 0.8573 0.99749 0.3525 0.0
H588 H 0.83765 0.03935 0.37693 0.0
H589 H 0.90665 0.066 0.15491 0.0
H590 H 0.90429 1.0142 0.18225 0.0
H591 H 0.84757 1.01035 0.16152 0.0
H592 H 0.87667 0.88776 0.27997 0.0
H593 H 0.73083 0.86019 0.23634 0.0
H594 H 0.93257 1.00975 0.31388 0.0
H595 H 0.94527 0.01545 0.25427 0.0
H596 H 0.94844 0.96746 0.28365 0.0
H597 H 0.75038 0.97712 0.26017 0.0
H598 H 0.71711 0.92536 0.21677 0.0
H599 H 0.77061 0.98301 0.20265 0.0
C600 C 0.18216 0.25616 0.73239 0.0
C601 C 0.15489 0.26311 0.76693 0.0
C602 C 0.19617 0.21974 0.73433 0.0
C603 C 0.18291 0.18976 0.77203 0.0
C604 C 0.15334 0.19503 0.806 0.0
C605 C 0.13938 0.23162 0.80291 0.0
C606 C 0.22661 0.21454 0.6968 0.0
C607 C 0.13823 0.16349 0.84651 0.0
C608 C 0.19148 0.07212 0.75404 0.0
C609 C 0.23904 0.08773 0.7747 0.0
C610 C 0.17197 0.10431 0.75441 0.0
C611 C 0.20086 0.15356 0.77578 0.0
C612 C 0.24853 0.16927 0.79764 0.0
C613 C 0.26711 0.13604 0.79689 0.0
C614 C 0.12103 0.08599 0.73075 0.0
C615 C 0.28028 0.22153 0.82094 0.0
H616 H 0.19389 0.28038 0.7044 0.0
H617 H 0.11842 0.23712 0.82973 0.0
H618 H 0.26403 0.22426 0.7117 0.0
H619 H 0.20815 0.17516 0.68154 0.0
H620 H 0.23175 0.23911 0.66875 0.0
H621 H 0.11269 0.16999 0.86833 0.0
H622 H 0.11945 0.12314 0.83434 0.0
H623 H 0.17211 0.17235 0.86818 0.0
H624 H 0.16936 0.03454 0.73718 0.0
H625 H 0.30367 0.14798 0.81317 0.0
H626 H 0.12511 0.10698 0.70009 0.0
H627 H 0.09703 0.09303 0.75418 0.0
H628 H 0.10157 0.04535 0.71932 0.0
H629 H 0.29096 0.24927 0.79491 0.0
H630 H 0.31493 0.22691 0.83887 0.0
H631 H 0.25859 0.22963 0.84643 0.0
C632 C 0.11839 0.8966 0.79504 0.0
C633 C 0.13129 0.88796 0.75095 0.0
C634 C 0.06863 0.88266 0.80318 0.0
C635 C 0.03146 0.86028 0.7662 0.0
C636 C 0.04516 0.85447 0.72113 0.0
C637 C 0.09489 0.86817 0.71413 0.0
C638 C 0.05542 0.88954 0.85168 0.0
C639 C 1.00693 0.83185 0.68056 0.0
C640 C 0.89478 0.77201 0.78709 0.0
C641 C 0.87457 0.80312 0.78238 0.0
C642 C 0.94627 0.79063 0.7834 0.0
C643 C 0.97788 0.84133 0.77444 0.0
C644 C 0.95759 0.87298 0.77039 0.0
C645 C 0.90624 0.85354 0.77463 0.0
C646 C 0.96672 0.75585 0.78815 0.0
C647 C 0.98988 0.92705 0.76044 0.0
H648 H 0.14653 0.91169 0.82359 0.0
H649 H 0.10502 0.86174 0.67998 0.0
H650 H 0.03414 0.90962 0.85213 0.0
H651 H 0.03095 0.85233 0.86441 0.0
H652 H 0.08909 0.91071 0.87589 0.0
H653 H 0.0243 0.83294 0.64733 0.0
H654 H 0.97941 0.79226 0.68552 0.0
H655 H 0.98594 0.85209 0.67819 0.0
H656 H 0.87035 0.73313 0.79329 0.0
H657 H 0.89073 0.87783 0.77114 0.0
H658 H 0.99844 0.77246 0.81466 0.0
H659 H 0.98133 0.75075 0.755 0.0
H660 H 0.9379 0.71846 0.79786 0.0
H661 H 0.02059 0.94738 0.7877 0.0
H662 H 0.96823 0.94668 0.75846 0.0
H663 H 1.00746 0.9291 0.72722 0.0
C664 C 0.96386 0.12489 0.76627 0.0
C665 C 0.94836 0.15944 0.77823 0.0
C666 C 0.93204 0.07338 0.76932 0.0
C667 C 0.88336 0.0559 0.78448 0.0
C668 C 0.86791 0.09079 0.79759 0.0
C669 C 0.90068 0.14224 0.79437 0.0
C670 C 0.95009 0.0376 0.75522 0.0
C671 C 0.81625 0.07361 0.81386 0.0
C672 C 0.77763 0.92734 0.73997 0.0
C673 C 0.76956 0.90007 0.7786 0.0
C674 C 0.81586 0.97737 0.74097 0.0
C675 C 0.84675 1.00107 0.78187 0.0
C676 C 0.84064 0.97288 0.82029 0.0
C677 C 0.80204 0.92235 0.81815 0.0
C678 C 0.82156 1.00551 0.69886 0.0
C679 C 0.8731 0.99678 0.86437 0.0
H680 H 1.00102 0.1381 0.75433 0.0
H681 H 0.88885 0.16893 0.8041 0.0
H682 H 0.94446 1.01254 0.78286 0.0
H683 H 0.92789 1.01349 0.72386 0.0
H684 H 0.99029 0.05743 0.74783 0.0
H685 H 0.81128 0.10551 0.82603 0.0
H686 H 0.78781 0.05113 0.78521 0.0
H687 H 0.80885 0.04912 0.84237 0.0
H688 H 0.75269 0.90987 0.7092 0.0
H689 H 0.79561 0.90127 0.84809 0.0
H690 H 0.8608 0.02375 0.68876 0.0
H691 H 0.81259 0.03555 0.70694 0.0
H692 H 0.79664 0.98071 0.66888 0.0
H693 H 0.91319 0.01751 0.85693 0.0
H694 H 0.8674 0.96871 0.88905 0.0
H695 H 0.86417 0.02432 0.88116 0.0
loop_
_geom_bond_atom_site_label_1
_geom_bond_atom_site_label_2
_geom_bond_distance
_geom_bond_site_symmetry_2
_ccdc_geom_bond_type
Tb0 O3 2.453 . S
Tb0 O4 2.596 . S
Tb0 O5 2.374 . S
Tb0 O13 2.343 . S
Tb0 O15 2.353 . S
Tb0 O17 2.427 . S
Tb0 O18 2.513 . S
C1 O5 1.251 . S
C1 O7 1.263 . S
Tb2 O4 2.343 . S
Tb2 O7 2.353 . S
Tb2 O10 2.427 1_545 S
Tb2 O11 2.513 1_545 S
Tb2 O12 2.453 . S
Tb2 O13 2.596 . S
Tb2 O14 2.374 . S
O3 Tb0 2.453 . S
O3 C19 1.245 . S
O4 Tb0 2.596 . S
O4 Tb2 2.343 . S
O4 C19 1.259 . S
O5 Tb0 2.374 . S
O5 C1 1.251 . S
C6 O10 1.275 . S
C6 O11 1.246 . S
O7 C1 1.263 . S
O7 Tb2 2.353 . S
C8 O12 1.245 . S
C8 O13 1.259 . S
C9 O14 1.250 . S
C9 O15 1.263 . S
O10 Tb2 2.427 1_565 S
O10 C6 1.275 . S
O11 Tb2 2.513 1_565 S
O11 C6 1.246 . S
O12 Tb2 2.453 . S
O12 C8 1.245 . S
O13 Tb0 2.343 . S
O13 Tb2 2.596 . S
O13 C8 1.259 . S
O14 Tb2 2.374 . S
O14 C9 1.250 . S
O15 Tb0 2.353 . S
O15 C9 1.263 . S
C16 O17 1.275 . S
C16 O18 1.246 . S
O17 Tb0 2.427 . S
O17 C16 1.275 . S
O18 Tb0 2.513 . S
O18 C16 1.246 . S
C19 O3 1.245 . S
C19 O4 1.259 . S
Tb20 O23 2.453 . S
Tb20 O24 2.596 . S
Tb20 O25 2.374 . S
Tb20 O33 2.343 . S
Tb20 O35 2.353 . S
Tb20 O37 2.427 . S
Tb20 O38 2.513 . S
C21 O25 1.251 . S
C21 O27 1.263 . S
Tb22 O24 2.343 . S
Tb22 O27 2.353 . S
Tb22 O30 2.427 . S
Tb22 O31 2.513 . S
Tb22 O32 2.453 . S
Tb22 O33 2.596 . S
Tb22 O34 2.374 . S
O23 Tb20 2.453 . S
O23 C39 1.245 . S
O24 Tb20 2.596 . S
O24 Tb22 2.343 . S
O24 C39 1.259 . S
O25 Tb20 2.374 . S
O25 C21 1.251 . S
C26 O30 1.275 . S
C26 O31 1.246 . S
O27 C21 1.263 . S
O27 Tb22 2.353 . S
C28 O32 1.245 . S
C28 O33 1.259 . S
C29 O34 1.250 . S
C29 O35 1.263 . S
O30 Tb22 2.427 . S
O30 C26 1.275 . S
O31 Tb22 2.513 . S
O31 C26 1.246 . S
O32 Tb22 2.453 . S
O32 C28 1.245 . S
O33 Tb20 2.343 . S
O33 Tb22 2.596 . S
O33 C28 1.259 . S
O34 Tb22 2.374 . S
O34 C29 1.250 . S
O35 Tb20 2.353 . S
O35 C29 1.263 . S
C36 O37 1.275 . S
C36 O38 1.246 . S
O37 Tb20 2.427 . S
O37 C36 1.275 . S
O38 Tb20 2.513 . S
O38 C36 1.246 . S
C39 O23 1.245 . S
C39 O24 1.259 . S
Tb40 O43 2.453 . S
Tb40 O44 2.596 . S
Tb40 O45 2.374 . S
Tb40 O53 2.343 . S
Tb40 O55 2.353 . S
Tb40 O57 2.427 . S
Tb40 O58 2.513 . S
C41 O45 1.251 . S
C41 O47 1.263 . S
Tb42 O44 2.343 . S
Tb42 O47 2.353 . S
Tb42 O50 2.427 1_655 S
Tb42 O51 2.513 1_655 S
Tb42 O52 2.453 . S
Tb42 O53 2.596 . S
Tb42 O54 2.374 . S
O43 Tb40 2.453 . S
O43 C59 1.245 . S
O44 Tb40 2.596 . S
O44 Tb42 2.343 . S
O44 C59 1.259 . S
O45 Tb40 2.374 . S
O45 C41 1.251 . S
C46 O50 1.275 . S
C46 O51 1.246 . S
O47 C41 1.263 . S
O47 Tb42 2.353 . S
C48 O52 1.245 . S
C48 O53 1.259 . S
C49 O54 1.250 . S
C49 O55 1.263 . S
O50 Tb42 2.427 1_455 S
O50 C46 1.275 . S
O51 Tb42 2.513 1_455 S
O51 C46 1.246 . S
O52 Tb42 2.453 . S
O52 C48 1.245 . S
O53 Tb40 2.343 . S
O53 Tb42 2.596 . S
O53 C48 1.259 . S
O54 Tb42 2.374 . S
O54 C49 1.250 . S
O55 Tb40 2.353 . S
O55 C49 1.263 . S
C56 O57 1.275 . S
C56 O58 1.246 . S
O57 Tb40 2.427 . S
O57 C56 1.275 . S
O58 Tb40 2.513 . S
O58 C56 1.246 . S
C59 O43 1.245 . S
C59 O44 1.259 . S
Tb60 O63 2.453 . S
Tb60 O64 2.596 . S
Tb60 O65 2.374 . S
Tb60 O73 2.343 . S
Tb60 O75 2.353 . S
Tb60 O77 2.427 1_455 S
Tb60 O78 2.513 1_455 S
C61 O65 1.251 . S
C61 O67 1.263 . S
Tb62 O64 2.343 . S
Tb62 O67 2.353 . S
Tb62 O70 2.427 . S
Tb62 O71 2.513 . S
Tb62 O72 2.453 . S
Tb62 O73 2.596 . S
Tb62 O74 2.374 . S
O63 Tb60 2.453 . S
O63 C79 1.245 . S
O64 Tb60 2.596 . S
O64 Tb62 2.343 . S
O64 C79 1.259 . S
O65 Tb60 2.374 . S
O65 C61 1.251 . S
C66 O70 1.275 . S
C66 O71 1.246 . S
O67 C61 1.263 . S
O67 Tb62 2.353 . S
C68 O72 1.245 . S
C68 O73 1.259 . S
C69 O74 1.250 . S
C69 O75 1.263 . S
O70 Tb62 2.427 . S
O70 C66 1.275 . S
O71 Tb62 2.513 . S
O71 C66 1.246 . S
O72 Tb62 2.453 . S
O72 C68 1.245 . S
O73 Tb60 2.343 . S
O73 Tb62 2.596 . S
O73 C68 1.259 . S
O74 Tb62 2.374 . S
O74 C69 1.250 . S
O75 Tb60 2.353 . S
O75 C69 1.263 . S
C76 O77 1.275 . S
C76 O78 1.246 . S
O77 Tb60 2.427 1_655 S
O77 C76 1.275 . S
O78 Tb60 2.513 1_655 S
O78 C76 1.246 . S
C79 O63 1.245 . S
C79 O64 1.259 . S
Tb80 O83 2.453 . S
Tb80 O84 2.596 . S
Tb80 O85 2.374 . S
Tb80 O93 2.343 . S
Tb80 O95 2.353 . S
Tb80 O97 2.427 1_565 S
Tb80 O98 2.513 1_565 S
C81 O85 1.251 . S
C81 O87 1.263 . S
Tb82 O84 2.343 . S
Tb82 O87 2.353 . S
Tb82 O90 2.427 . S
Tb82 O91 2.513 . S
Tb82 O92 2.453 . S
Tb82 O93 2.596 . S
Tb82 O94 2.374 . S
O83 Tb80 2.453 . S
O83 C99 1.245 . S
O84 Tb80 2.596 . S
O84 Tb82 2.343 . S
O84 C99 1.259 . S
O85 Tb80 2.374 . S
O85 C81 1.251 . S
C86 O90 1.275 . S
C86 O91 1.246 . S
O87 C81 1.263 . S
O87 Tb82 2.353 . S
C88 O92 1.245 . S
C88 O93 1.259 . S
C89 O94 1.250 . S
C89 O95 1.263 . S
O90 Tb82 2.427 . S
O90 C86 1.275 . S
O91 Tb82 2.513 . S
O91 C86 1.246 . S
O92 Tb82 2.453 . S
O92 C88 1.245 . S
O93 Tb80 2.343 . S
O93 Tb82 2.596 . S
O93 C88 1.259 . S
O94 Tb82 2.374 . S
O94 C89 1.250 . S
O95 Tb80 2.353 . S
O95 C89 1.263 . S
C96 O97 1.275 . S
C96 O98 1.246 . S
O97 Tb80 2.427 1_545 S
O97 C96 1.275 . S
O98 Tb80 2.513 1_545 S
O98 C96 1.246 . S
C99 O83 1.245 . S
C99 O84 1.259 . S
Tb100 O103 2.453 . S
Tb100 O104 2.596 . S
Tb100 O105 2.374 . S
Tb100 O113 2.343 . S
Tb100 O115 2.353 . S
Tb100 O117 2.427 . S
Tb100 O118 2.513 . S
C101 O105 1.251 . S
C101 O107 1.263 . S
Tb102 O104 2.343 . S
Tb102 O107 2.353 . S
Tb102 O110 2.427 . S
Tb102 O111 2.513 . S
Tb102 O112 2.453 . S
Tb102 O113 2.596 . S
Tb102 O114 2.374 . S
O103 Tb100 2.453 . S
O103 C119 1.245 . S
O104 Tb100 2.596 . S
O104 Tb102 2.343 . S
O104 C119 1.259 . S
O105 Tb100 2.374 . S
O105 C101 1.251 . S
C106 O110 1.275 . S
C106 O111 1.246 . S
O107 C101 1.263 . S
O107 Tb102 2.353 . S
C108 O112 1.245 . S
C108 O113 1.259 . S
C109 O114 1.250 . S
C109 O115 1.263 . S
O110 Tb102 2.427 . S
O110 C106 1.275 . S
O111 Tb102 2.513 . S
O111 C106 1.246 . S
O112 Tb102 2.453 . S
O112 C108 1.245 . S
O113 Tb100 2.343 . S
O113 Tb102 2.596 . S
O113 C108 1.259 . S
O114 Tb102 2.374 . S
O114 C109 1.250 . S
O115 Tb100 2.353 . S
O115 C109 1.263 . S
C116 O117 1.275 . S
C116 O118 1.246 . S
O117 Tb100 2.427 . S
O117 C116 1.275 . S
O118 Tb100 2.513 . S
O118 C116 1.246 . S
C119 O103 1.245 . S
C119 O104 1.259 . S
C120 C121 1.391 . S
C120 C122 1.394 . S
C120 H136 0.931 . S
C121 C120 1.391 . S
C121 C125 1.376 . S
C122 C120 1.394 . S
C122 C123 1.369 . S
C122 C126 1.531 1_565 S
C123 C122 1.369 . S
C123 C124 1.410 . S
C123 C131 1.503 1_566 S
C124 C123 1.410 . S
C124 C125 1.392 . S
C124 C127 1.511 1_556 S
C125 C121 1.376 . S
C125 C124 1.392 . S
C125 H137 0.929 . S
C126 C122 1.531 1_545 S
C126 H138 0.960 . S
C126 H139 0.962 . S
C126 H140 0.960 . S
C127 C124 1.511 1_554 S
C127 H141 0.960 . S
C127 H142 0.961 . S
C127 H143 0.959 1_554 S
C128 C129 1.370 . S
C128 C130 1.363 . S
C128 H144 0.931 . S
C129 C128 1.370 . S
C129 C133 1.408 . S
C130 C128 1.363 . S
C130 C131 1.370 . S
C130 C134 1.524 1_545 S
C131 C123 1.503 1_544 S
C131 C130 1.370 . S
C131 C132 1.403 . S
C132 C131 1.403 . S
C132 C133 1.404 . S
C132 C135 1.539 1_554 S
C133 C129 1.408 . S
C133 C132 1.404 . S
C133 H145 0.930 . S
C134 C130 1.524 1_565 S
C134 H146 0.956 . S
C134 H147 0.961 . S
C134 H148 0.961 . S
C135 C132 1.539 1_556 S
C135 H149 0.958 . S
C135 H150 0.961 1_556 S
C135 H151 0.960 . S
H136 C120 0.931 . S
H137 C125 0.929 . S
H138 C126 0.960 . S
H139 C126 0.962 . S
H140 C126 0.960 . S
H141 C127 0.960 . S
H142 C127 0.961 . S
H143 C127 0.959 1_556 S
H144 C128 0.931 . S
H145 C133 0.930 . S
H146 C134 0.956 . S
H147 C134 0.961 . S
H148 C134 0.961 . S
H149 C135 0.958 . S
H150 C135 0.961 1_554 S
H151 C135 0.960 . S
C152 C153 1.391 . S
C152 C154 1.394 . S
C152 H168 0.931 . S
C153 C152 1.391 . S
C153 C157 1.376 . S
C154 C152 1.394 . S
C154 C155 1.369 . S
C154 C158 1.531 . S
C155 C154 1.369 . S
C155 C156 1.410 . S
C155 C163 1.503 . S
C156 C155 1.410 . S
C156 C157 1.392 . S
C156 C159 1.511 . S
C157 C153 1.376 . S
C157 C156 1.392 . S
C157 H169 0.929 . S
C158 C154 1.531 . S
C158 H170 0.960 . S
C158 H171 0.962 . S
C158 H172 0.960 . S
C159 C156 1.511 . S
C159 H173 0.961 . S
C159 H174 0.961 . S
C159 H175 0.961 . S
C160 C161 1.370 . S
C160 C162 1.363 . S
C160 H176 0.931 . S
C161 C160 1.370 . S
C161 C165 1.408 . S
C162 C160 1.363 . S
C162 C163 1.370 . S
C162 C166 1.524 . S
C163 C155 1.503 . S
C163 C162 1.370 . S
C163 C164 1.403 . S
C164 C163 1.403 . S
C164 C165 1.404 . S
C164 C167 1.539 . S
C165 C161 1.408 . S
C165 C164 1.404 . S
C165 H177 0.930 . S
C166 C162 1.524 . S
C166 H178 0.956 . S
C166 H179 0.961 . S
C166 H180 0.961 . S
C167 C164 1.539 . S
C167 H181 0.958 . S
C167 H182 0.961 . S
C167 H183 0.960 . S
H168 C152 0.931 . S
H169 C157 0.929 . S
H170 C158 0.960 . S
H171 C158 0.962 . S
H172 C158 0.960 . S
H173 C159 0.961 . S
H174 C159 0.961 . S
H175 C159 0.961 . S
H176 C160 0.931 . S
H177 C165 0.930 . S
H178 C166 0.956 . S
H179 C166 0.961 . S
H180 C166 0.961 . S
H181 C167 0.958 . S
H182 C167 0.961 . S
H183 C167 0.960 . S
C184 C185 1.391 . S
C184 C186 1.394 1_655 S
C184 H200 0.931 . S
C185 C184 1.391 . S
C185 C189 1.376 . S
C186 C184 1.394 1_455 S
C186 C187 1.369 1_455 S
C186 C190 1.531 . S
C187 C186 1.369 1_655 S
C187 C188 1.410 . S
C187 C195 1.503 1_654 S
C188 C187 1.410 . S
C188 C189 1.392 . S
C188 C191 1.511 1_554 S
C189 C185 1.376 . S
C189 C188 1.392 . S
C189 H201 0.929 . S
C190 C186 1.531 . S
C190 H202 0.960 . S
C190 H203 0.962 . S
C190 H204 0.960 . S
C191 C188 1.511 1_556 S
C191 H205 0.961 . S
C191 H206 0.961 . S
C191 H207 0.961 . S
C192 C193 1.370 . S
C192 C194 1.363 . S
C192 H208 0.931 . S
C193 C192 1.370 . S
C193 C197 1.408 . S
C194 C192 1.363 . S
C194 C195 1.370 . S
C194 C198 1.524 . S
C195 C187 1.503 1_456 S
C195 C194 1.370 . S
C195 C196 1.403 . S
C196 C195 1.403 . S
C196 C197 1.404 . S
C196 C199 1.539 . S
C197 C193 1.408 . S
C197 C196 1.404 . S
C197 H209 0.930 . S
C198 C194 1.524 . S
C198 H210 0.956 1_556 S
C198 H211 0.961 1_455 S
C198 H212 0.961 . S
C199 C196 1.539 . S
C199 H213 0.958 1_556 S
C199 H214 0.961 . S
C199 H215 0.960 1_455 S
H200 C184 0.931 . S
H201 C189 0.929 . S
H202 C190 0.960 . S
H203 C190 0.962 . S
H204 C190 0.960 . S
H205 C191 0.961 . S
H206 C191 0.961 . S
H207 C191 0.961 . S
H208 C192 0.931 . S
H209 C197 0.930 . S
H210 C198 0.956 1_554 S
H211 C198 0.961 1_655 S
H212 C198 0.961 . S
H213 C199 0.958 1_554 S
H214 C199 0.961 . S
H215 C199 0.960 1_655 S
C216 C217 1.391 . S
C216 C218 1.394 . S
C216 H232 0.931 . S
C217 C216 1.391 . S
C217 C221 1.376 . S
C218 C216 1.394 . S
C218 C219 1.369 . S
C218 C222 1.531 . S
C219 C218 1.369 . S
C219 C220 1.410 . S
C219 C227 1.503 1_545 S
C220 C219 1.410 . S
C220 C221 1.392 . S
C220 C223 1.511 1_545 S
C221 C217 1.376 . S
C221 C220 1.392 . S
C221 H233 0.929 . S
C222 C218 1.531 . S
C222 H234 0.960 . S
C222 H235 0.962 . S
C222 H236 0.960 . S
C223 C220 1.511 1_565 S
C223 H237 0.961 . S
C223 H238 0.961 . S
C223 H239 0.961 . S
C224 C225 1.370 . S
C224 C226 1.363 . S
C224 H240 0.931 . S
C225 C224 1.370 . S
C225 C229 1.408 . S
C226 C224 1.363 . S
C226 C227 1.370 . S
C226 C230 1.524 . S
C227 C219 1.503 1_565 S
C227 C226 1.370 . S
C227 C228 1.403 1_565 S
C228 C227 1.403 1_545 S
C228 C229 1.404 1_545 S
C228 C231 1.539 . S
C229 C225 1.408 . S
C229 C228 1.404 1_565 S
C229 H241 0.930 . S
C230 C226 1.524 . S
C230 H242 0.956 . S
C230 H243 0.961 . S
C230 H244 0.961 . S
C231 C228 1.539 . S
C231 H245 0.958 . S
C231 H246 0.961 . S
C231 H247 0.960 . S
H232 C216 0.931 . S
H233 C221 0.929 . S
H234 C222 0.960 . S
H235 C222 0.962 . S
H236 C222 0.960 . S
H237 C223 0.961 . S
H238 C223 0.961 . S
H239 C223 0.961 . S
H240 C224 0.931 . S
H241 C229 0.930 . S
H242 C230 0.956 . S
H243 C230 0.961 . S
H244 C230 0.961 . S
H245 C231 0.958 . S
H246 C231 0.961 . S
H247 C231 0.960 . S
C248 C249 1.391 . S
C248 C250 1.394 . S
C248 H264 0.931 . S
C249 C248 1.391 . S
C249 C253 1.376 . S
C250 C248 1.394 . S
C250 C251 1.369 . S
C250 C254 1.531 . S
C251 C250 1.369 . S
C251 C252 1.410 . S
C251 C259 1.503 1_556 S
C252 C251 1.410 . S
C252 C253 1.392 . S
C252 C255 1.511 1_556 S
C253 C249 1.376 . S
C253 C252 1.392 . S
C253 H265 0.929 . S
C254 C250 1.531 . S
C254 H266 0.960 . S
C254 H267 0.962 . S
C254 H268 0.960 . S
C255 C252 1.511 1_554 S
C255 H269 0.961 . S
C255 H270 0.961 . S
C255 H271 0.961 . S
C256 C257 1.370 . S
C256 C258 1.363 . S
C256 H272 0.931 . S
C257 C256 1.370 . S
C257 C261 1.408 . S
C258 C256 1.363 . S
C258 C259 1.370 . S
C258 C262 1.524 1_554 S
C259 C251 1.503 1_554 S
C259 C258 1.370 . S
C259 C260 1.403 . S
C260 C259 1.403 . S
C260 C261 1.404 . S
C260 C263 1.539 . S
C261 C257 1.408 . S
C261 C260 1.404 . S
C261 H273 0.930 . S
C262 C258 1.524 1_556 S
C262 H274 0.956 . S
C262 H275 0.961 . S
C262 H276 0.961 . S
C263 C260 1.539 . S
C263 H277 0.958 . S
C263 H278 0.961 . S
C263 H279 0.960 . S
H264 C248 0.931 . S
H265 C253 0.929 . S
H266 C254 0.960 . S
H267 C254 0.962 . S
H268 C254 0.960 . S
H269 C255 0.961 . S
H270 C255 0.961 . S
H271 C255 0.961 . S
H272 C256 0.931 . S
H273 C261 0.930 . S
H274 C262 0.956 . S
H275 C262 0.961 . S
H276 C262 0.961 . S
H277 C263 0.958 . S
H278 C263 0.961 . S
H279 C263 0.960 . S
C280 C281 1.391 . S
C280 C282 1.394 . S
C280 H296 0.931 . S
C281 C280 1.391 . S
C281 C285 1.376 . S
C282 C280 1.394 . S
C282 C283 1.369 . S
C282 C286 1.531 . S
C283 C282 1.369 . S
C283 C284 1.410 . S
C283 C291 1.503 1_655 S
C284 C283 1.410 . S
C284 C285 1.392 . S
C284 C287 1.511 1_655 S
C285 C281 1.376 . S
C285 C284 1.392 . S
C285 H297 0.929 . S
C286 C282 1.531 . S
C286 H298 0.960 . S
C286 H299 0.962 . S
C286 H300 0.960 . S
C287 C284 1.511 1_455 S
C287 H301 0.961 . S
C287 H302 0.961 . S
C287 H303 0.961 . S
C288 C289 1.370 . S
C288 C290 1.363 . S
C288 H304 0.931 . S
C289 C288 1.370 . S
C289 C293 1.408 . S
C290 C288 1.363 . S
C290 C291 1.370 . S
C290 C294 1.524 . S
C291 C283 1.503 1_455 S
C291 C290 1.370 . S
C291 C292 1.403 1_455 S
C292 C291 1.403 1_655 S
C292 C293 1.404 1_655 S
C292 C295 1.539 . S
C293 C289 1.408 . S
C293 C292 1.404 1_455 S
C293 H305 0.930 . S
C294 C290 1.524 . S
C294 H306 0.956 . S
C294 H307 0.961 . S
C294 H308 0.961 . S
C295 C292 1.539 . S
C295 H309 0.958 . S
C295 H310 0.961 . S
C295 H311 0.960 . S
H296 C280 0.931 . S
H297 C285 0.929 . S
H298 C286 0.960 . S
H299 C286 0.962 . S
H300 C286 0.960 . S
H301 C287 0.961 . S
H302 C287 0.961 . S
H303 C287 0.961 . S
H304 C288 0.931 . S
H305 C293 0.930 . S
H306 C294 0.956 . S
H307 C294 0.961 . S
H308 C294 0.961 . S
H309 C295 0.958 . S
H310 C295 0.961 . S
H311 C295 0.960 . S
C312 C313 1.391 . S
C312 C314 1.394 . S
C312 H328 0.931 . S
C313 C312 1.391 . S
C313 C317 1.376 . S
C314 C312 1.394 . S
C314 C315 1.369 . S
C314 C318 1.531 . S
C315 C314 1.369 . S
C315 C316 1.410 . S
C315 C323 1.503 . S
C316 C315 1.410 . S
C316 C317 1.392 . S
C316 C319 1.511 . S
C317 C313 1.376 . S
C317 C316 1.392 . S
C317 H329 0.929 . S
C318 C314 1.531 . S
C318 H330 0.960 . S
C318 H331 0.962 . S
C318 H332 0.960 . S
C319 C316 1.511 . S
C319 H333 0.961 . S
C319 H334 0.961 . S
C319 H335 0.961 . S
C320 C321 1.370 . S
C320 C322 1.363 . S
C320 H336 0.931 . S
C321 C320 1.370 . S
C321 C325 1.408 . S
C322 C320 1.363 . S
C322 C323 1.370 . S
C322 C326 1.524 . S
C323 C315 1.503 . S
C323 C322 1.370 . S
C323 C324 1.403 . S
C324 C323 1.403 . S
C324 C325 1.404 . S
C324 C327 1.539 . S
C325 C321 1.408 . S
C325 C324 1.404 . S
C325 H337 0.930 . S
C326 C322 1.524 . S
C326 H338 0.956 . S
C326 H339 0.961 . S
C326 H340 0.961 . S
C327 C324 1.539 . S
C327 H341 0.958 . S
C327 H342 0.961 . S
C327 H343 0.960 . S
H328 C312 0.931 . S
H329 C317 0.929 . S
H330 C318 0.960 . S
H331 C318 0.962 . S
H332 C318 0.960 . S
H333 C319 0.961 . S
H334 C319 0.961 . S
H335 C319 0.961 . S
H336 C320 0.931 . S
H337 C325 0.930 . S
H338 C326 0.956 . S
H339 C326 0.961 . S
H340 C326 0.961 . S
H341 C327 0.958 . S
H342 C327 0.961 . S
H343 C327 0.960 . S
C344 C345 1.391 . S
C344 C346 1.394 . S
C344 H360 0.931 . S
C345 C344 1.391 . S
C345 C349 1.376 . S
C346 C344 1.394 . S
C346 C347 1.369 . S
C346 C350 1.531 . S
C347 C346 1.369 . S
C347 C348 1.410 . S
C347 C355 1.503 . S
C348 C347 1.410 . S
C348 C349 1.392 . S
C348 C351 1.511 . S
C349 C345 1.376 . S
C349 C348 1.392 . S
C349 H361 0.929 . S
C350 C346 1.531 . S
C350 H362 0.960 . S
C350 H363 0.962 . S
C350 H364 0.960 . S
C351 C348 1.511 . S
C351 H365 0.961 . S
C351 H366 0.961 . S
C351 H367 0.961 . S
C352 C353 1.370 . S
C352 C354 1.363 . S
C352 H368 0.931 . S
C353 C352 1.370 . S
C353 C357 1.408 . S
C354 C352 1.363 . S
C354 C355 1.370 . S
C354 C358 1.524 . S
C355 C347 1.503 . S
C355 C354 1.370 . S
C355 C356 1.403 . S
C356 C355 1.403 . S
C356 C357 1.404 . S
C356 C359 1.539 . S
C357 C353 1.408 . S
C357 C356 1.404 . S
C357 H369 0.930 . S
C358 C354 1.524 . S
C358 H370 0.956 . S
C358 H371 0.961 . S
C358 H372 0.961 . S
C359 C356 1.539 . S
C359 H373 0.958 . S
C359 H374 0.961 . S
C359 H375 0.960 . S
H360 C344 0.931 . S
H361 C349 0.929 . S
H362 C350 0.960 . S
H363 C350 0.962 . S
H364 C350 0.960 . S
H365 C351 0.961 . S
H366 C351 0.961 . S
H367 C351 0.961 . S
H368 C352 0.931 . S
H369 C357 0.930 . S
H370 C358 0.956 . S
H371 C358 0.961 . S
H372 C358 0.961 . S
H373 C359 0.958 . S
H374 C359 0.961 . S
H375 C359 0.960 . S
C376 C377 1.391 . S
C376 C378 1.394 . S
C376 H392 0.931 . S
C377 C376 1.391 . S
C377 C381 1.376 . S
C378 C376 1.394 . S
C378 C379 1.369 . S
C378 C382 1.531 . S
C379 C378 1.369 . S
C379 C380 1.410 . S
C379 C387 1.503 . S
C380 C379 1.410 . S
C380 C381 1.392 . S
C380 C383 1.511 . S
C381 C377 1.376 . S
C381 C380 1.392 . S
C381 H393 0.929 . S
C382 C378 1.531 . S
C382 H394 0.960 . S
C382 H395 0.962 . S
C382 H396 0.960 . S
C383 C380 1.511 . S
C383 H397 0.961 . S
C383 H398 0.961 . S
C383 H399 0.961 . S
C384 C385 1.370 . S
C384 C386 1.363 . S
C384 H400 0.931 . S
C385 C384 1.370 . S
C385 C389 1.408 . S
C386 C384 1.363 . S
C386 C387 1.370 . S
C386 C390 1.524 . S
C387 C379 1.503 . S
C387 C386 1.370 . S
C387 C388 1.403 . S
C388 C387 1.403 . S
C388 C389 1.404 . S
C388 C391 1.539 . S
C389 C385 1.408 . S
C389 C388 1.404 . S
C389 H401 0.930 . S
C390 C386 1.524 . S
C390 H402 0.956 . S
C390 H403 0.961 . S
C390 H404 0.961 . S
C391 C388 1.539 . S
C391 H405 0.958 . S
C391 H406 0.961 . S
C391 H407 0.960 . S
H392 C376 0.931 . S
H393 C381 0.929 . S
H394 C382 0.960 . S
H395 C382 0.962 . S
H396 C382 0.960 . S
H397 C383 0.961 . S
H398 C383 0.961 . S
H399 C383 0.961 . S
H400 C384 0.931 . S
H401 C389 0.930 . S
H402 C390 0.956 . S
H403 C390 0.961 . S
H404 C390 0.961 . S
H405 C391 0.958 . S
H406 C391 0.961 . S
H407 C391 0.960 . S
C408 C409 1.391 . S
C408 C410 1.394 . S
C408 H424 0.931 . S
C409 C408 1.391 . S
C409 C413 1.376 . S
C410 C408 1.394 . S
C410 C411 1.369 . S
C410 C414 1.531 . S
C411 C410 1.369 . S
C411 C412 1.410 . S
C411 C419 1.503 . S
C412 C411 1.410 . S
C412 C413 1.392 . S
C412 C415 1.511 . S
C413 C409 1.376 . S
C413 C412 1.392 . S
C413 H425 0.929 . S
C414 C410 1.531 . S
C414 H426 0.960 . S
C414 H427 0.962 . S
C414 H428 0.960 . S
C415 C412 1.511 . S
C415 H429 0.961 . S
C415 H430 0.961 . S
C415 H431 0.961 . S
C416 C417 1.370 . S
C416 C418 1.363 . S
C416 H432 0.931 . S
C417 C416 1.370 . S
C417 C421 1.408 . S
C418 C416 1.363 . S
C418 C419 1.370 . S
C418 C422 1.524 . S
C419 C411 1.503 . S
C419 C418 1.370 . S
C419 C420 1.403 . S
C420 C419 1.403 . S
C420 C421 1.404 . S
C420 C423 1.539 . S
C421 C417 1.408 . S
C421 C420 1.404 . S
C421 H433 0.930 . S
C422 C418 1.524 . S
C422 H434 0.956 . S
C422 H435 0.961 . S
C422 H436 0.961 . S
C423 C420 1.539 . S
C423 H437 0.958 . S
C423 H438 0.961 . S
C423 H439 0.960 . S
H424 C408 0.931 . S
H425 C413 0.929 . S
H426 C414 0.960 . S
H427 C414 0.962 . S
H428 C414 0.960 . S
H429 C415 0.961 . S
H430 C415 0.961 . S
H431 C415 0.961 . S
H432 C416 0.931 . S
H433 C421 0.930 . S
H434 C422 0.956 . S
H435 C422 0.961 . S
H436 C422 0.961 . S
H437 C423 0.958 . S
H438 C423 0.961 . S
H439 C423 0.960 . S
C440 C441 1.391 . S
C440 C442 1.394 . S
C440 H456 0.931 . S
C441 C440 1.391 . S
C441 C445 1.376 . S
C442 C440 1.394 . S
C442 C443 1.369 . S
C442 C446 1.531 . S
C443 C442 1.369 . S
C443 C444 1.410 . S
C443 C451 1.503 . S
C444 C443 1.410 . S
C444 C445 1.392 . S
C444 C447 1.511 . S
C445 C441 1.376 . S
C445 C444 1.392 . S
C445 H457 0.929 . S
C446 C442 1.531 . S
C446 H458 0.960 . S
C446 H459 0.962 . S
C446 H460 0.960 . S
C447 C444 1.511 . S
C447 H461 0.961 . S
C447 H462 0.961 . S
C447 H463 0.961 . S
C448 C449 1.370 . S
C448 C450 1.363 . S
C448 H464 0.931 . S
C449 C448 1.370 . S
C449 C453 1.408 . S
C450 C448 1.363 . S
C450 C451 1.370 . S
C450 C454 1.524 . S
C451 C443 1.503 . S
C451 C450 1.370 . S
C451 C452 1.403 . S
C452 C451 1.403 . S
C452 C453 1.404 . S
C452 C455 1.539 . S
C453 C449 1.408 . S
C453 C452 1.404 . S
C453 H465 0.930 . S
C454 C450 1.524 . S
C454 H466 0.956 . S
C454 H467 0.961 . S
C454 H468 0.961 . S
C455 C452 1.539 . S
C455 H469 0.958 . S
C455 H470 0.961 . S
C455 H471 0.960 . S
H456 C440 0.931 . S
H457 C445 0.929 . S
H458 C446 0.960 . S
H459 C446 0.962 . S
H460 C446 0.960 . S
H461 C447 0.961 . S
H462 C447 0.961 . S
H463 C447 0.961 . S
H464 C448 0.931 . S
H465 C453 0.930 . S
H466 C454 0.956 . S
H467 C454 0.961 . S
H468 C454 0.961 . S
H469 C455 0.958 . S
H470 C455 0.961 . S
H471 C455 0.960 . S
C472 C473 1.391 . S
C472 C474 1.394 . S
C472 H488 0.931 . S
C473 C472 1.391 . S
C473 C477 1.376 . S
C474 C472 1.394 . S
C474 C475 1.369 . S
C474 C478 1.531 . S
C475 C474 1.369 . S
C475 C476 1.410 . S
C475 C483 1.503 . S
C476 C475 1.410 . S
C476 C477 1.392 . S
C476 C479 1.511 . S
C477 C473 1.376 . S
C477 C476 1.392 . S
C477 H489 0.929 . S
C478 C474 1.531 . S
C478 H490 0.960 . S
C478 H491 0.962 . S
C478 H492 0.960 . S
C479 C476 1.511 . S
C479 H493 0.961 . S
C479 H494 0.961 . S
C479 H495 0.961 . S
C480 C481 1.370 . S
C480 C482 1.363 . S
C480 H496 0.931 . S
C481 C480 1.370 . S
C481 C485 1.408 . S
C482 C480 1.363 . S
C482 C483 1.370 . S
C482 C486 1.524 . S
C483 C475 1.503 . S
C483 C482 1.370 . S
C483 C484 1.403 . S
C484 C483 1.403 . S
C484 C485 1.404 . S
C484 C487 1.539 . S
C485 C481 1.408 . S
C485 C484 1.404 . S
C485 H497 0.930 . S
C486 C482 1.524 . S
C486 H498 0.956 . S
C486 H499 0.961 . S
C486 H500 0.961 . S
C487 C484 1.539 . S
C487 H501 0.958 . S
C487 H502 0.961 . S
C487 H503 0.960 . S
H488 C472 0.931 . S
H489 C477 0.929 . S
H490 C478 0.960 . S
H491 C478 0.962 . S
H492 C478 0.960 . S
H493 C479 0.961 . S
H494 C479 0.961 . S
H495 C479 0.961 . S
H496 C480 0.931 . S
H497 C485 0.930 . S
H498 C486 0.956 . S
H499 C486 0.961 . S
H500 C486 0.961 . S
H501 C487 0.958 . S
H502 C487 0.961 . S
H503 C487 0.960 . S
C504 C505 1.391 . S
C504 C506 1.394 . S
C504 H520 0.931 . S
C505 C504 1.391 . S
C505 C509 1.376 . S
C506 C504 1.394 . S
C506 C507 1.369 . S
C506 C510 1.531 . S
C507 C506 1.369 . S
C507 C508 1.410 . S
C507 C515 1.503 . S
C508 C507 1.410 . S
C508 C509 1.392 . S
C508 C511 1.511 . S
C509 C505 1.376 . S
C509 C508 1.392 . S
C509 H521 0.929 . S
C510 C506 1.531 . S
C510 H522 0.960 . S
C510 H523 0.962 . S
C510 H524 0.960 . S
C511 C508 1.511 . S
C511 H525 0.961 . S
C511 H526 0.961 . S
C511 H527 0.961 . S
C512 C513 1.370 . S
C512 C514 1.363 . S
C512 H528 0.931 . S
C513 C512 1.370 . S
C513 C517 1.408 . S
C514 C512 1.363 . S
C514 C515 1.370 . S
C514 C518 1.524 . S
C515 C507 1.503 . S
C515 C514 1.370 . S
C515 C516 1.403 . S
C516 C515 1.403 . S
C516 C517 1.404 . S
C516 C519 1.539 . S
C517 C513 1.408 . S
C517 C516 1.404 . S
C517 H529 0.930 . S
C518 C514 1.524 . S
C518 H530 0.956 . S
C518 H531 0.961 . S
C518 H532 0.961 . S
C519 C516 1.539 . S
C519 H533 0.958 . S
C519 H534 0.961 . S
C519 H535 0.960 . S
H520 C504 0.931 . S
H521 C509 0.929 . S
H522 C510 0.960 . S
H523 C510 0.962 . S
H524 C510 0.960 . S
H525 C511 0.961 . S
H526 C511 0.961 . S
H527 C511 0.961 . S
H528 C512 0.931 . S
H529 C517 0.930 . S
H530 C518 0.956 . S
H531 C518 0.961 . S
H532 C518 0.961 . S
H533 C519 0.958 . S
H534 C519 0.961 . S
H535 C519 0.960 . S
C536 C537 1.391 . S
C536 C538 1.394 . S
C536 H552 0.931 . S
C537 C536 1.391 . S
C537 C541 1.376 . S
C538 C536 1.394 . S
C538 C539 1.369 . S
C538 C542 1.531 . S
C539 C538 1.369 . S
C539 C540 1.410 . S
C539 C547 1.503 1_655 S
C540 C539 1.410 . S
C540 C541 1.392 . S
C540 C543 1.490 1_655 S
C541 C537 1.376 . S
C541 C540 1.392 . S
C541 H553 0.929 . S
C542 C538 1.531 . S
C542 H554 0.960 1_655 S
C542 H555 0.962 . S
C542 H556 0.960 . S
C543 C540 1.490 1_455 S
C543 H557 0.951 1_455 S
C543 H558 0.975 . S
C543 H559 0.979 . S
C544 C545 1.370 . S
C544 C546 1.363 . S
C544 H560 0.931 . S
C545 C544 1.370 . S
C545 C549 1.408 . S
C546 C544 1.363 . S
C546 C547 1.370 . S
C546 C550 1.524 . S
C547 C539 1.503 1_455 S
C547 C546 1.370 . S
C547 C548 1.403 . S
C548 C547 1.403 . S
C548 C549 1.404 . S
C548 C551 1.539 . S
C549 C545 1.408 . S
C549 C548 1.404 . S
C549 H561 0.930 . S
C550 C546 1.524 . S
C550 H562 0.956 . S
C550 H563 0.961 . S
C550 H564 0.961 . S
C551 C548 1.539 . S
C551 H565 0.958 . S
C551 H566 0.961 . S
C551 H567 0.960 . S
H552 C536 0.931 . S
H553 C541 0.929 . S
H554 C542 0.960 1_455 S
H555 C542 0.962 . S
H556 C542 0.960 . S
H557 C543 0.951 1_655 S
H558 C543 0.975 . S
H559 C543 0.979 . S
H560 C544 0.931 . S
H561 C549 0.930 . S
H562 C550 0.956 . S
H563 C550 0.961 . S
H564 C550 0.961 . S
H565 C551 0.958 . S
H566 C551 0.961 . S
H567 C551 0.960 . S
C568 C569 1.391 . S
C568 C570 1.394 . S
C568 H584 0.931 . S
C569 C568 1.391 . S
C569 C573 1.376 . S
C570 C568 1.394 . S
C570 C571 1.369 . S
C570 C574 1.531 . S
C571 C570 1.369 . S
C571 C572 1.410 . S
C571 C579 1.503 1_545 S
C572 C571 1.410 . S
C572 C573 1.392 . S
C572 C575 1.511 1_545 S
C573 C569 1.376 . S
C573 C572 1.392 . S
C573 H585 0.929 . S
C574 C570 1.531 . S
C574 H586 0.960 1_545 S
C574 H587 0.962 . S
C574 H588 0.960 . S
C575 C572 1.511 1_565 S
C575 H589 0.961 1_565 S
C575 H590 0.961 . S
C575 H591 0.961 . S
C576 C577 1.370 . S
C576 C578 1.363 . S
C576 H592 0.931 . S
C577 C576 1.370 . S
C577 C581 1.408 . S
C578 C576 1.363 . S
C578 C579 1.370 . S
C578 C582 1.524 . S
C579 C571 1.503 1_565 S
C579 C578 1.370 . S
C579 C580 1.403 . S
C580 C579 1.403 . S
C580 C581 1.404 . S
C580 C583 1.539 . S
C581 C577 1.408 . S
C581 C580 1.404 . S
C581 H593 0.930 . S
C582 C578 1.524 . S
C582 H594 0.956 . S
C582 H595 0.961 . S
C582 H596 0.961 . S
C583 C580 1.539 . S
C583 H597 0.958 . S
C583 H598 0.961 . S
C583 H599 0.960 . S
H584 C568 0.931 . S
H585 C573 0.929 . S
H586 C574 0.960 1_565 S
H587 C574 0.962 . S
H588 C574 0.960 . S
H589 C575 0.961 1_545 S
H590 C575 0.961 . S
H591 C575 0.961 . S
H592 C576 0.931 . S
H593 C581 0.930 . S
H594 C582 0.956 . S
H595 C582 0.961 . S
H596 C582 0.961 . S
H597 C583 0.958 . S
H598 C583 0.961 . S
H599 C583 0.960 . S
C600 C601 1.391 . S
C600 C602 1.394 . S
C600 H616 0.931 . S
C601 C600 1.391 . S
C601 C605 1.376 . S
C602 C600 1.394 . S
C602 C603 1.369 . S
C602 C606 1.531 . S
C603 C602 1.369 . S
C603 C604 1.410 . S
C603 C611 1.503 . S
C604 C603 1.410 . S
C604 C605 1.392 . S
C604 C607 1.511 . S
C605 C601 1.376 . S
C605 C604 1.392 . S
C605 H617 0.929 . S
C606 C602 1.531 . S
C606 H618 0.960 . S
C606 H619 0.962 . S
C606 H620 0.960 . S
C607 C604 1.511 . S
C607 H621 0.961 . S
C607 H622 0.961 . S
C607 H623 0.961 . S
C608 C609 1.370 . S
C608 C610 1.363 . S
C608 H624 0.931 . S
C609 C608 1.370 . S
C609 C613 1.408 . S
C610 C608 1.363 . S
C610 C611 1.370 . S
C610 C614 1.524 . S
C611 C603 1.503 . S
C611 C610 1.370 . S
C611 C612 1.403 . S
C612 C611 1.403 . S
C612 C613 1.404 . S
C612 C615 1.539 . S
C613 C609 1.408 . S
C613 C612 1.404 . S
C613 H625 0.930 . S
C614 C610 1.524 . S
C614 H626 0.956 . S
C614 H627 0.961 . S
C614 H628 0.961 . S
C615 C612 1.539 . S
C615 H629 0.958 . S
C615 H630 0.961 . S
C615 H631 0.960 . S
H616 C600 0.931 . S
H617 C605 0.929 . S
H618 C606 0.960 . S
H619 C606 0.962 . S
H620 C606 0.960 . S
H621 C607 0.961 . S
H622 C607 0.961 . S
H623 C607 0.961 . S
H624 C608 0.931 . S
H625 C613 0.930 . S
H626 C614 0.956 . S
H627 C614 0.961 . S
H628 C614 0.961 . S
H629 C615 0.958 . S
H630 C615 0.961 . S
H631 C615 0.960 . S
C632 C633 1.391 . S
C632 C634 1.394 . S
C632 H648 0.931 . S
C633 C632 1.391 . S
C633 C637 1.376 . S
C634 C632 1.394 . S
C634 C635 1.369 . S
C634 C638 1.531 . S
C635 C634 1.369 . S
C635 C636 1.410 . S
C635 C643 1.503 1_455 S
C636 C635 1.410 . S
C636 C637 1.392 . S
C636 C639 1.511 . S
C637 C633 1.376 . S
C637 C636 1.392 . S
C637 H649 0.929 . S
C638 C634 1.531 . S
C638 H650 0.960 1_455 S
C638 H651 0.962 1_455 S
C638 H652 0.960 . S
C639 C636 1.511 . S
C639 H653 0.961 . S
C639 H654 0.961 1_455 S
C639 H655 0.961 . S
C640 C641 1.370 . S
C640 C642 1.363 . S
C640 H656 0.931 . S
C641 C640 1.370 . S
C641 C645 1.408 . S
C642 C640 1.363 . S
C642 C643 1.370 . S
C642 C646 1.524 . S
C643 C635 1.503 1_655 S
C643 C642 1.370 . S
C643 C644 1.403 . S
C644 C643 1.403 . S
C644 C645 1.404 . S
C644 C647 1.539 . S
C645 C641 1.408 . S
C645 C644 1.404 . S
C645 H657 0.930 . S
C646 C642 1.524 . S
C646 H658 0.956 . S
C646 H659 0.961 . S
C646 H660 0.961 . S
C647 C644 1.539 . S
C647 H661 0.958 . S
C647 H662 0.961 . S
C647 H663 0.960 . S
H648 C632 0.931 . S
H649 C637 0.929 . S
H650 C638 0.960 1_655 S
H651 C638 0.962 1_655 S
H652 C638 0.960 . S
H653 C639 0.961 . S
H654 C639 0.961 1_655 S
H655 C639 0.961 . S
H656 C640 0.931 . S
H657 C645 0.930 . S
H658 C646 0.956 . S
H659 C646 0.961 . S
H660 C646 0.961 . S
H661 C647 0.958 . S
H662 C647 0.961 . S
H663 C647 0.960 . S
C664 C665 1.391 . S
C664 C666 1.394 . S
C664 H680 0.931 . S
C665 C664 1.391 . S
C665 C669 1.376 . S
C666 C664 1.394 . S
C666 C667 1.369 . S
C666 C670 1.531 . S
C667 C666 1.369 . S
C667 C668 1.410 . S
C667 C675 1.503 1_545 S
C668 C667 1.410 . S
C668 C669 1.392 . S
C668 C671 1.511 . S
C669 C665 1.376 . S
C669 C668 1.392 . S
C669 H681 0.929 . S
C670 C666 1.531 . S
C670 H682 0.960 . S
C670 H683 0.962 . S
C670 H684 0.960 . S
C671 C668 1.511 . S
C671 H685 0.961 . S
C671 H686 0.961 . S
C671 H687 0.961 . S
C672 C673 1.370 . S
C672 C674 1.363 . S
C672 H688 0.931 . S
C673 C672 1.370 . S
C673 C677 1.408 . S
C674 C672 1.363 . S
C674 C675 1.370 . S
C674 C678 1.524 1_565 S
C675 C667 1.503 1_565 S
C675 C674 1.370 . S
C675 C676 1.403 . S
C676 C675 1.403 . S
C676 C677 1.404 . S
C676 C679 1.539 . S
C677 C673 1.408 . S
C677 C676 1.404 . S
C677 H689 0.930 . S
C678 C674 1.524 1_545 S
C678 H690 0.956 . S
C678 H691 0.961 . S
C678 H692 0.961 . S
C679 C676 1.539 . S
C679 H693 0.958 . S
C679 H694 0.961 . S
C679 H695 0.960 1_565 S
H680 C664 0.931 . S
H681 C669 0.929 . S
H682 C670 0.960 . S
H683 C670 0.962 . S
H684 C670 0.960 . S
H685 C671 0.961 . S
H686 C671 0.961 . S
H687 C671 0.961 . S
H688 C672 0.931 . S
H689 C677 0.930 . S
H690 C678 0.956 . S
H691 C678 0.961 . S
H692 C678 0.961 . S
H693 C679 0.958 . S
H694 C679 0.961 . S
H695 C679 0.960 1_545 S
C121 C89 1.877 . S
C129 C9 1.860 . S
C153 C101 2.053 . S
C161 C21 2.062 . S
C185 C49 2.221 . S
C193 C69 2.288 . S
C217 C1 2.372 . S
C225 C81 2.298 . S
C249 C109 2.181 . S
C257 C29 2.183 . S
C281 C41 1.962 . S
C289 C61 1.901 . S
C313 C8 1.753 . S
C321 C56 1.658 . S
C345 C39 1.773 . S
C353 C16 1.652 . S
C377 C48 1.782 . S
C385 C26 1.666 . S
C409 C79 1.786 . S
C417 C86 1.662 . S
C441 C99 1.764 . S
C449 C106 1.686 . S
C473 C66 1.713 . S
C481 C119 1.775 . S
C505 C19 0.941 . S
C513 C46 1.147 . S
C537 C28 0.945 . S
C545 C6 1.140 . S
C569 C59 0.988 . S
C577 C36 1.131 . S
C601 C68 0.964 . S
C609 C96 1.139 . S
C633 C88 1.084 . S
C641 C116 1.133 . S
C665 C76 1.164 . S
C673 C108 1.051 . S
