# Generated by pormake.
# Topology vbn, (6)-cn, num edge types: 1
# Building blocks:
#     Node 0, Type 0, BuildingBlock: IZENUY_clean_sbu_0, # of connection points: 6
#     Node 1, Type 0, BuildingBlock: IZENUY_clean_sbu_0, # of connection points: 6
#     Node 2, Type 0, BuildingBlock: IZENUY_clean_sbu_0, # of connection points: 6
#     Node 3, Type 0, BuildingBlock: IZENUY_clean_sbu_0, # of connection points: 6
#     Node 4, Type 0, BuildingBlock: IZENUY_clean_sbu_0, # of connection points: 6
#     Node 5, Type 0, BuildingBlock: IZENUY_clean_sbu_0, # of connection points: 6
#     Node 6, Type 0, BuildingBlock: IZENUY_clean_sbu_0, # of connection points: 6
#     Node 7, Type 0, BuildingBlock: IZENUY_clean_sbu_0, # of connection points: 6
#     Edge 8, Type (0, 0), BuildingBlock: XIVTED_clean_linker_0, # of connection points: 2
#     Edge 9, Type (0, 0), BuildingBlock: XIVTED_clean_linker_0, # of connection points: 2
#     Edge 10, Type (0, 0), BuildingBlock: XIVTED_clean_linker_0, # of connection points: 2
#     Edge 11, Type (0, 0), BuildingBlock: XIVTED_clean_linker_0, # of connection points: 2
#     Edge 12, Type (0, 0), BuildingBlock: XIVTED_clean_linker_0, # of connection points: 2
#     Edge 13, Type (0, 0), BuildingBlock: XIVTED_clean_linker_0, # of connection points: 2
#     Edge 14, Type (0, 0), BuildingBlock: XIVTED_clean_linker_0, # of connection points: 2
#     Edge 15, Type (0, 0), BuildingBlock: XIVTED_clean_linker_0, # of connection points: 2
#     Edge 16, Type (0, 0), BuildingBlock: XIVTED_clean_linker_0, # of connection points: 2
#     Edge 17, Type (0, 0), BuildingBlock: XIVTED_clean_linker_0, # of connection points: 2
#     Edge 18, Type (0, 0), BuildingBlock: XIVTED_clean_linker_0, # of connection points: 2
#     Edge 19, Type (0, 0), BuildingBlock: XIVTED_clean_linker_0, # of connection points: 2
#     Edge 20, Type (0, 0), BuildingBlock: XIVTED_clean_linker_0, # of connection points: 2
#     Edge 21, Type (0, 0), BuildingBlock: XIVTED_clean_linker_0, # of connection points: 2
#     Edge 22, Type (0, 0), BuildingBlock: XIVTED_clean_linker_0, # of connection points: 2
#     Edge 23, Type (0, 0), BuildingBlock: XIVTED_clean_linker_0, # of connection points: 2
#     Edge 24, Type (0, 0), BuildingBlock: XIVTED_clean_linker_0, # of connection points: 2
#     Edge 25, Type (0, 0), BuildingBlock: XIVTED_clean_linker_0, # of connection points: 2
#     Edge 26, Type (0, 0), BuildingBlock: XIVTED_clean_linker_0, # of connection points: 2
#     Edge 27, Type (0, 0), BuildingBlock: XIVTED_clean_linker_0, # of connection points: 2
#     Edge 28, Type (0, 0), BuildingBlock: XIVTED_clean_linker_0, # of connection points: 2
#     Edge 29, Type (0, 0), BuildingBlock: XIVTED_clean_linker_0, # of connection points: 2
#     Edge 30, Type (0, 0), BuildingBlock: XIVTED_clean_linker_0, # of connection points: 2
#     Edge 31, Type (0, 0), BuildingBlock: XIVTED_clean_linker_0, # of connection points: 2
# Relax obj value: 0.241
# Max RMSD: 0.242
# Mean RMSD: 0.242
data_MOF--net-vbn--node1-IZENUY_clean_sbu_0--edge1-XIVTED_clean_linker_0
_symmetry_space_group_name_H-M    P1
_symmetry_Int_Tables_number       1
_symmetry_cell_setting            triclinic
loop_
_symmetry_equiv_pos_as_xyz
'x, y, z'
_cell_length_a     25.656902
_cell_length_b     28.216706
_cell_length_c     46.445885
_cell_angle_alpha  89.968102
_cell_angle_beta   90.042709
_cell_angle_gamma 89.93177
loop_
_atom_site_label
_atom_site_type_symbol
_atom_site_fract_x
_atom_site_fract_y
_atom_site_fract_z
_atom_type_partial_charge
Fe0 Fe 0.42405 0.35284 0.40885 0.0
Fe1 Fe 0.37983 0.28071 0.45102 0.0
O2 O 0.377 0.30972 0.41739 0.0
Fe3 Fe 0.32683 0.29661 0.39256 0.0
O4 O 0.30335 0.35693 0.39347 0.0
O5 O 0.37992 0.38933 0.38665 0.0
O6 O 0.40353 0.38889 0.43858 0.0
C7 C 0.40754 0.37603 0.46434 0.0
C8 C 0.41766 0.30717 0.3576 0.0
O9 O 0.40829 0.33215 0.47066 0.0
C10 C 0.34658 0.20806 0.41192 0.0
O11 O 0.47679 0.32495 0.43027 0.0
O12 O 0.44362 0.25659 0.44307 0.0
O13 O 0.36817 0.30726 0.36025 0.0
O14 O 0.44634 0.31883 0.37845 0.0
C15 C 0.27552 0.29584 0.44699 0.0
O16 O 0.35162 0.22429 0.43736 0.0
O17 O 0.34683 0.23558 0.39058 0.0
C18 C 0.48265 0.28316 0.43999 0.0
O19 O 0.3167 0.30357 0.46091 0.0
O20 O 0.27727 0.28336 0.42068 0.0
C21 C 0.33079 0.39293 0.38862 0.0
Fe22 Fe 0.18783 0.2204 0.89286 0.0
Fe23 Fe 0.09094 0.16236 0.9073 0.0
O24 O 0.13793 0.20464 0.91726 0.0
Fe25 Fe 0.1356 0.23011 0.95186 0.0
O26 O 0.19882 0.20617 0.96059 0.0
O27 O 0.23734 0.2318 0.92132 0.0
O28 O 0.21182 0.16002 0.89202 0.0
C29 C 0.18436 0.12422 0.88641 0.0
C30 C 0.16736 0.30678 0.91535 0.0
O31 O 0.13531 0.12821 0.88399 0.0
C32 C 0.03261 0.22916 0.94069 0.0
O33 O 0.14667 0.21201 0.86025 0.0
O34 O 0.06857 0.19916 0.87808 0.0
O35 O 0.16394 0.28761 0.94012 0.0
O36 O 0.16692 0.28166 0.89291 0.0
C37 C 0.10811 0.13374 0.96187 0.0
O38 O 0.03824 0.18828 0.92961 0.0
O39 O 0.07178 0.25511 0.94501 0.0
C40 C 0.09722 0.21219 0.85754 0.0
O41 O 0.11146 0.12343 0.9357 0.0
O42 O 0.10719 0.17692 0.96972 0.0
C43 C 0.23969 0.21686 0.94715 0.0
Fe44 Fe 0.92429 0.16241 0.61479 0.0
Fe45 Fe 0.87976 0.23396 0.57221 0.0
O46 O 0.87715 0.20541 0.60599 0.0
Fe47 Fe 0.82706 0.21885 0.63077 0.0
O48 O 0.80368 0.15861 0.63004 0.0
O49 O 0.88032 0.12642 0.63727 0.0
O50 O 0.90365 0.12583 0.58535 0.0
C51 C 0.90682 0.13824 0.55947 0.0
C52 C 0.91793 0.20895 0.66571 0.0
O53 O 0.90786 0.18201 0.55282 0.0
C54 C 0.84634 0.30706 0.6111 0.0
O55 O 0.97686 0.18972 0.5931 0.0
O56 O 0.94373 0.25794 0.57986 0.0
O57 O 0.86846 0.20847 0.66309 0.0
O58 O 0.94666 0.19702 0.64493 0.0
C59 C 0.77543 0.21947 0.57638 0.0
O60 O 0.85167 0.29069 0.58569 0.0
O61 O 0.84714 0.27974 0.63251 0.0
C62 C 0.98272 0.23122 0.58298 0.0
O63 O 0.81651 0.21124 0.5625 0.0
O64 O 0.77737 0.232 0.60267 0.0
C65 C 0.83124 0.12271 0.63512 0.0
Fe66 Fe 0.59151 0.35321 0.11464 0.0
Fe67 Fe 0.63063 0.27974 0.07179 0.0
O68 O 0.63591 0.30815 0.10541 0.0
Fe69 Fe 0.68601 0.29232 0.12957 0.0
O70 O 0.71268 0.35114 0.12813 0.0
O71 O 0.63868 0.38734 0.13647 0.0
O72 O 0.61261 0.38864 0.08473 0.0
C73 C 0.60651 0.37617 0.05902 0.0
C74 C 0.59737 0.30664 0.16562 0.0
O75 O 0.60351 0.33239 0.05268 0.0
C76 C 0.66126 0.20534 0.11024 0.0
O77 O 0.53653 0.32759 0.09378 0.0
O78 O 0.56645 0.25803 0.08068 0.0
O79 O 0.64672 0.3048 0.16245 0.0
O80 O 0.56864 0.3199 0.14515 0.0
C81 C 0.7355 0.29023 0.07469 0.0
O82 O 0.6569 0.22221 0.08491 0.0
O83 O 0.66232 0.23253 0.13168 0.0
C84 C 0.52863 0.28582 0.08443 0.0
O85 O 0.69436 0.3003 0.06123 0.0
O86 O 0.73372 0.27696 0.10087 0.0
C87 C 0.68779 0.38851 0.13332 0.0
Fe88 Fe 0.58738 0.66409 0.61505 0.0
Fe89 Fe 0.63113 0.73128 0.56993 0.0
O90 O 0.63379 0.70656 0.60464 0.0
Fe91 Fe 0.6837 0.72357 0.62864 0.0
O92 O 0.70869 0.66403 0.62934 0.0
O93 O 0.63339 0.63018 0.63792 0.0
O94 O 0.6069 0.62498 0.58653 0.0
C95 C 0.602 0.63517 0.56042 0.0
C96 C 0.5944 0.71459 0.66456 0.0
O97 O 0.60189 0.67826 0.55248 0.0
C98 C 0.66154 0.80884 0.60566 0.0
O99 O 0.53374 0.69039 0.59321 0.0
O100 O 0.56812 0.75649 0.57707 0.0
O101 O 0.64374 0.71479 0.66162 0.0
O102 O 0.56559 0.70079 0.64432 0.0
C103 C 0.73488 0.71855 0.57444 0.0
O104 O 0.65956 0.7889 0.5811 0.0
O105 O 0.66128 0.78429 0.62833 0.0
C106 C 0.52866 0.73116 0.58168 0.0
O107 O 0.69401 0.70682 0.5613 0.0
O108 O 0.73242 0.7352 0.59986 0.0
C109 C 0.68251 0.62746 0.63473 0.0
Fe110 Fe 0.92935 0.85204 0.11279 0.0
Fe111 Fe 0.89619 0.77474 0.07106 0.0
O112 O 0.88623 0.80601 0.10339 0.0
Fe113 Fe 0.83366 0.79203 0.12624 0.0
O114 O 0.80755 0.85088 0.1227 0.0
O115 O 0.88051 0.88711 0.13284 0.0
O116 O 0.91011 0.88513 0.08156 0.0
C117 C 0.91869 0.87088 0.0564 0.0
C118 C 0.91969 0.80728 0.1641 0.0
O119 O 0.92407 0.82671 0.0514 0.0
C120 C 0.86057 0.70331 0.11018 0.0
O121 O 0.98645 0.82613 0.09397 0.0
O122 O 0.9593 0.75494 0.0833 0.0
O123 O 0.87047 0.80579 0.15994 0.0
O124 O 0.94986 0.82053 0.14433 0.0
C125 C 0.79107 0.78408 0.0694 0.0
O126 O 0.86934 0.71798 0.08475 0.0
O127 O 0.85608 0.73215 0.13063 0.0
C128 C 0.99619 0.7837 0.08656 0.0
O129 O 0.83389 0.79258 0.0573 0.0
O130 O 0.78873 0.77568 0.09634 0.0
C131 C 0.83183 0.8883 0.12828 0.0
Fe132 Fe 0.08541 0.85345 0.40718 0.0
Fe133 Fe 0.11966 0.77997 0.45115 0.0
O134 O 0.12856 0.80805 0.41768 0.0
Fe135 Fe 0.18036 0.79143 0.39489 0.0
O136 O 0.20725 0.85041 0.39644 0.0
O137 O 0.13424 0.88663 0.38602 0.0
O138 O 0.105 0.88909 0.43729 0.0
C139 C 0.09652 0.87699 0.46286 0.0
C140 C 0.09398 0.80512 0.35702 0.0
O141 O 0.09171 0.8333 0.46924 0.0
C142 C 0.15297 0.70464 0.41437 0.0
O143 O 0.02862 0.82896 0.42691 0.0
O144 O 0.05637 0.7589 0.44018 0.0
O145 O 0.14319 0.80309 0.36104 0.0
O146 O 0.06428 0.81971 0.37664 0.0
C147 C 0.22445 0.78823 0.45152 0.0
O148 O 0.14665 0.72227 0.4393 0.0
O149 O 0.15686 0.73113 0.39266 0.0
C150 C 0.01929 0.78713 0.43566 0.0
O151 O 0.18229 0.79932 0.46358 0.0
O152 O 0.22571 0.7769 0.42496 0.0
C153 C 0.183 0.88781 0.39038 0.0
Fe154 Fe 0.3795 0.72892 0.95142 0.0
Fe155 Fe 0.32941 0.71896 0.89195 0.0
O156 O 0.37918 0.7039 0.91669 0.0
Fe157 Fe 0.42778 0.66292 0.90702 0.0
O158 O 0.40866 0.62335 0.93537 0.0
O159 O 0.40974 0.67678 0.96943 0.0
O160 O 0.31722 0.70269 0.95926 0.0
C161 C 0.27641 0.713 0.94565 0.0
C162 C 0.48257 0.73157 0.94111 0.0
O163 O 0.27903 0.72906 0.92008 0.0
C164 C 0.42066 0.71281 0.85722 0.0
O165 O 0.34947 0.78572 0.93969 0.0
O166 O 0.34883 0.7806 0.89243 0.0
O167 O 0.4793 0.69087 0.92941 0.0
O168 O 0.44212 0.75589 0.94537 0.0
C169 C 0.33543 0.62282 0.88553 0.0
O170 O 0.37123 0.71162 0.85959 0.0
O171 O 0.44924 0.70012 0.87786 0.0
C172 C 0.34722 0.80534 0.91501 0.0
O173 O 0.30708 0.65826 0.8907 0.0
O174 O 0.38458 0.62731 0.88373 0.0
C175 C 0.41122 0.63371 0.96155 0.0
H176 H 0.27354 0.90733 0.41855 0.0
H177 H 0.29816 0.17271 0.36425 0.0
H178 H 0.15629 0.97255 0.36483 0.0
H179 H 0.35239 0.13119 0.44864 0.0
H180 H 0.26052 0.09418 0.35783 0.0
H181 H 0.31677 0.98418 0.42336 0.0
C182 C 0.25727 0.93768 0.40739 0.0
C183 C 0.21131 0.93348 0.39107 0.0
C184 C 0.28092 0.10221 0.37766 0.0
C185 C 0.26089 0.0213 0.39652 0.0
C186 C 0.30286 0.14693 0.38135 0.0
C187 C 0.3286 0.15872 0.40712 0.0
C188 C 0.2855 0.06846 0.3996 0.0
C189 C 0.33288 0.1237 0.42848 0.0
C190 C 0.28178 0.98151 0.4104 0.0
C191 C 0.19164 0.97417 0.37752 0.0
N192 N 0.3117 0.07998 0.4242 0.0
N193 N 0.21676 0.01639 0.38039 0.0
H194 H 0.23457 0.35408 0.95073 0.0
H195 H 0.23677 0.59888 0.86834 0.0
H196 H 0.14525 0.37055 0.87265 0.0
H197 H 0.37783 0.53905 0.90359 0.0
H198 H 0.19294 0.5224 0.87566 0.0
H199 H 0.27673 0.4306 0.94121 0.0
C200 C 0.22294 0.37432 0.93196 0.0
C201 C 0.18612 0.35616 0.91252 0.0
C202 C 0.23362 0.52604 0.88148 0.0
C203 C 0.2342 0.44336 0.90156 0.0
C204 C 0.25871 0.56946 0.87721 0.0
C205 C 0.31117 0.57519 0.88514 0.0
C206 C 0.26068 0.48865 0.89469 0.0
C207 C 0.33757 0.53605 0.89686 0.0
C208 C 0.24749 0.41757 0.92636 0.0
C209 C 0.1733 0.38345 0.88821 0.0
N210 N 0.31181 0.49466 0.90174 0.0
N211 N 0.19705 0.42588 0.88348 0.0
H212 H 0.77365 0.60724 0.60769 0.0
H213 H 0.79381 0.34026 0.65792 0.0
H214 H 0.65185 0.54163 0.65785 0.0
H215 H 0.85226 0.38478 0.57503 0.0
H216 H 0.75448 0.41812 0.66446 0.0
H217 H 0.81531 0.53003 0.60194 0.0
C218 C 0.75599 0.57669 0.6179 0.0
C219 C 0.70931 0.581 0.63356 0.0
C220 C 0.77608 0.41087 0.64492 0.0
C221 C 0.75717 0.49255 0.62694 0.0
C222 C 0.79905 0.36657 0.64118 0.0
C223 C 0.8267 0.35589 0.61583 0.0
C224 C 0.78156 0.44534 0.62349 0.0
C225 C 0.83142 0.39146 0.59487 0.0
C226 C 0.77963 0.53263 0.61431 0.0
C227 C 0.68787 0.53996 0.64577 0.0
N228 N 0.80933 0.43482 0.59926 0.0
N229 N 0.71225 0.49739 0.6424 0.0
H230 H 0.70569 0.16759 0.15848 0.0
H231 H 0.74292 0.90732 0.09876 0.0
H232 H 0.65865 0.13064 0.07201 0.0
H233 H 0.85594 0.97252 0.15505 0.0
H234 H 0.69726 0.98316 0.09489 0.0
H235 H 0.74549 0.08968 0.16376 0.0
C236 C 0.70293 0.1429 0.14069 0.0
C237 C 0.67881 0.15586 0.11463 0.0
C238 C 0.7319 0.98071 0.10816 0.0
C239 C 0.72439 0.06647 0.12085 0.0
C240 C 0.7578 0.93749 0.1106 0.0
C241 C 0.80317 0.93364 0.12743 0.0
C242 C 0.7508 0.02012 0.12315 0.0
C243 C 0.8211 0.97401 0.14192 0.0
C244 C 0.72614 0.09859 0.14374 0.0
C245 C 0.67689 0.12222 0.09241 0.0
N246 N 0.79456 0.01563 0.13963 0.0
N247 N 0.69935 0.07888 0.09605 0.0
H248 H 0.73251 0.1001 0.65239 0.0
H249 H 0.72779 0.85586 0.56979 0.0
H250 H 0.8723 0.03912 0.61642 0.0
H251 H 0.63886 0.87287 0.64791 0.0
H252 H 0.76991 0.93237 0.57899 0.0
H253 H 0.68752 0.02425 0.64488 0.0
C254 C 0.75387 0.07054 0.64331 0.0
C255 C 0.80628 0.07564 0.63523 0.0
C256 C 0.74074 0.91946 0.5939 0.0
C257 C 0.75464 0.99006 0.62554 0.0
C258 C 0.71622 0.87624 0.58849 0.0
C259 C 0.67967 0.85825 0.60809 0.0
C260 C 0.72768 0.94526 0.61869 0.0
C261 C 0.66679 0.88569 0.63228 0.0
C262 C 0.72818 0.02752 0.63894 0.0
C263 C 0.83208 0.03646 0.62328 0.0
N264 N 0.69062 0.92805 0.63687 0.0
N265 N 0.80575 0.99547 0.61835 0.0
H266 H 0.8706 0.62542 0.07477 0.0
H267 H 0.65886 0.47394 0.15714 0.0
H268 H 0.80885 0.66926 0.15709 0.0
H269 H 0.78094 0.40667 0.10791 0.0
H270 H 0.70572 0.54958 0.15292 0.0
H271 H 0.83104 0.54701 0.08215 0.0
C272 C 0.84933 0.61847 0.09446 0.0
C273 C 0.84314 0.654 0.11529 0.0
C274 C 0.72228 0.51802 0.1433 0.0
C275 C 0.79687 0.56533 0.12345 0.0
C276 C 0.69559 0.47502 0.14568 0.0
C277 C 0.71628 0.43397 0.13312 0.0
C278 C 0.7691 0.52002 0.12762 0.0
C279 C 0.7639 0.43737 0.11826 0.0
C280 C 0.82676 0.57387 0.09863 0.0
C281 C 0.8149 0.64304 0.14042 0.0
N282 N 0.78841 0.47974 0.11564 0.0
N283 N 0.79224 0.59996 0.14359 0.0
H284 H 0.37135 0.47679 0.40711 0.0
H285 H 0.13352 0.64282 0.37033 0.0
H286 H 0.23209 0.4155 0.37078 0.0
H287 H 0.21676 0.65586 0.45063 0.0
H288 H 0.17643 0.56586 0.36217 0.0
H289 H 0.32411 0.55156 0.41412 0.0
C290 C 0.33121 0.4794 0.40002 0.0
C291 C 0.30556 0.44002 0.38827 0.0
C292 C 0.18465 0.58546 0.3817 0.0
C293 C 0.25166 0.52514 0.39618 0.0
C294 C 0.16012 0.62905 0.38642 0.0
C295 C 0.17115 0.65526 0.41136 0.0
C296 C 0.22178 0.56905 0.40154 0.0
C297 C 0.20651 0.63633 0.43138 0.0
C298 C 0.30421 0.52179 0.40434 0.0
C299 C 0.25323 0.44512 0.37988 0.0
N300 N 0.23125 0.59471 0.42581 0.0
N301 N 0.22798 0.48706 0.38383 0.0
H302 H 0.28464 0.10072 0.87165 0.0
H303 H 0.28011 0.85302 0.95025 0.0
H304 H 0.14083 0.04017 0.90253 0.0
H305 H 0.37114 0.86948 0.87285 0.0
H306 H 0.24006 0.9307 0.94124 0.0
H307 H 0.32753 0.02348 0.87864 0.0
C308 C 0.26198 0.07106 0.87954 0.0
C309 C 0.20899 0.07673 0.88629 0.0
C310 C 0.26921 0.91738 0.92643 0.0
C311 C 0.25822 0.98942 0.89544 0.0
C312 C 0.29248 0.87342 0.93171 0.0
C313 C 0.32911 0.85495 0.91229 0.0
C314 C 0.28365 0.94354 0.902 0.0
C315 C 0.34309 0.88258 0.88834 0.0
C316 C 0.28648 0.02722 0.8836 0.0
C317 C 0.18156 0.03725 0.89673 0.0
N318 N 0.32058 0.92571 0.88393 0.0
N319 N 0.20668 0.99548 0.90144 0.0
H320 H 0.47745 0.36473 0.50856 0.0
H321 H 0.53287 0.64413 0.51576 0.0
H322 H 0.38581 0.47004 0.464 0.0
H323 H 0.61939 0.54046 0.5647 0.0
H324 H 0.48111 0.58003 0.49478 0.0
H325 H 0.52861 0.42839 0.53062 0.0
C326 C 0.46708 0.40124 0.50413 0.0
C327 C 0.42759 0.41221 0.48434 0.0
C328 C 0.51184 0.57125 0.50986 0.0
C329 C 0.48679 0.48498 0.50862 0.0
C330 C 0.54198 0.6078 0.52143 0.0
C331 C 0.58045 0.59752 0.54194 0.0
C332 C 0.52037 0.52423 0.51888 0.0
C333 C 0.58994 0.54984 0.54897 0.0
C334 C 0.49681 0.43757 0.51633 0.0
C335 C 0.41623 0.46013 0.47903 0.0
N336 N 0.55983 0.515 0.53765 0.0
N337 N 0.44605 0.4947 0.49081 0.0
H338 H 0.88843 0.96265 0.05305 0.0
H339 H 0.1353 0.04092 0.95995 0.0
H340 H 0.99638 0.86255 0.01599 0.0
H341 H 0.03522 0.13907 1.00478 0.0
H342 H 0.0857 0.97496 0.9801 0.0
H343 H 0.93843 0.02746 0.03216 0.0
C344 C 0.92203 0.95431 0.03984 0.0
C345 C 0.93857 0.9072 0.03641 0.0
C346 C 0.07496 0.01084 0.98588 0.0
C347 C 0.99699 0.98136 0.01318 0.0
C348 C 0.10363 0.04847 0.97468 0.0
C349 C 0.08922 0.09546 0.98071 0.0
C350 C 0.03123 0.02027 1.00305 0.0
C351 C 0.04785 0.10339 0.99977 0.0
C352 C 0.95099 0.99137 0.02829 0.0
C353 C 0.98227 0.89835 0.01913 0.0
N354 N 0.01981 0.06611 1.00997 0.0
N355 N 0.01047 0.93521 1.00844 0.0
H356 H 0.87852 0.04585 0.55871 0.0
H357 H 0.12246 0.97015 0.46227 0.0
H358 H 0.98006 0.14615 0.51685 0.0
H359 H 0.02178 0.86991 0.50492 0.0
H360 H 0.07212 0.03503 0.48303 0.0
H361 H 0.92783 0.98097 0.53715 0.0
C362 C 0.91044 0.05415 0.54429 0.0
C363 C 0.92536 0.10136 0.53955 0.0
C364 C 0.06129 0.99892 0.48813 0.0
C365 C 0.98308 0.0273 0.5156 0.0
C366 C 0.0904 0.96185 0.4766 0.0
C367 C 0.07608 0.91458 0.4818 0.0
C368 C 0.0173 0.98873 0.50492 0.0
C369 C 0.03427 0.9058 0.50045 0.0
C370 C 0.939 0.0171 0.53232 0.0
C371 C 0.96704 0.11026 0.52085 0.0
N372 N 1.00589 0.9426 0.51107 0.0
N373 N 0.99496 0.07348 0.50984 0.0
H374 H 0.38852 0.53997 0.95969 0.0
H375 H 0.6304 0.46977 0.05951 0.0
H376 H 0.48325 0.64208 1.00471 0.0
H377 H 0.5345 0.36707 0.01567 0.0
H378 H 0.57937 0.53338 0.03776 0.0
H379 H 0.43998 0.47603 0.98092 0.0
C380 C 0.41943 0.5488 0.97466 0.0
C381 C 0.43165 0.59629 0.98055 0.0
C382 C 0.56978 0.497 0.03259 0.0
C383 C 0.49177 0.52344 1.00418 0.0
C384 C 0.59932 0.46068 0.04469 0.0
C385 C 0.58647 0.41309 0.03946 0.0
C386 C 0.52684 0.48574 0.0152 0.0
C387 C 0.54586 0.40326 0.02017 0.0
C388 C 0.44918 0.51233 0.98649 0.0
C389 C 0.47215 0.60591 0.99993 0.0
N390 N 0.51698 0.43934 1.00901 0.0
N391 N 0.50121 0.56975 1.01081 0.0
H392 H 0.64409 0.29647 0.21894 0.0
H393 H 0.37147 0.29752 0.30422 0.0
H394 H 0.49343 0.30006 0.17753 0.0
H395 H 0.52185 0.2998 0.34597 0.0
H396 H 0.41556 0.29146 0.25755 0.0
H397 H 0.6002 0.2907 0.26574 0.0
C398 C 0.60191 0.29568 0.21963 0.0
C399 C 0.57255 0.29925 0.19421 0.0
C400 C 0.43888 0.29304 0.27697 0.0
C401 C 0.52196 0.29275 0.2477 0.0
C402 C 0.41366 0.29639 0.30364 0.0
C403 C 0.44285 0.29964 0.32912 0.0
C404 C 0.49372 0.29284 0.27573 0.0
C405 C 0.49756 0.29788 0.32694 0.0
C406 C 0.57681 0.2925 0.24636 0.0
C407 C 0.51785 0.29794 0.1965 0.0
N408 N 0.52111 0.29487 0.3008 0.0
N409 N 0.49446 0.29505 0.22268 0.0
H410 H 0.14372 0.2223 0.80434 0.0
H411 H 0.87147 0.22007 0.71884 0.0
H412 H 0.99317 0.22055 0.8458 0.0
H413 H 0.02204 0.21675 0.67744 0.0
H414 H 0.91528 0.22763 0.76552 0.0
H415 H 0.09986 0.22791 0.75756 0.0
C416 C 0.10154 0.22356 0.80367 0.0
C417 C 0.07221 0.22045 0.82909 0.0
C418 C 0.93869 0.22552 0.74618 0.0
C419 C 0.02164 0.22664 0.77559 0.0
C420 C 0.91364 0.22127 0.71951 0.0
C421 C 0.94299 0.21728 0.69413 0.0
C422 C 0.99352 0.22585 0.74752 0.0
C423 C 0.99766 0.21921 0.69639 0.0
C424 C 0.07646 0.22661 0.77693 0.0
C425 C 0.01753 0.22233 0.82681 0.0
N426 N 0.02105 0.22308 0.72255 0.0
N427 N 0.99412 0.22498 0.8006 0.0
H428 H 0.52465 0.72401 0.84652 0.0
H429 H 0.49083 0.72683 0.67558 0.0
H430 H 0.37521 0.72327 0.80371 0.0
H431 H 0.6405 0.72334 0.71807 0.0
H432 H 0.44836 0.73374 0.72223 0.0
H433 H 0.56746 0.73186 0.79997 0.0
C434 C 0.50068 0.7258 0.82733 0.0
C435 C 0.44607 0.72242 0.82909 0.0
C436 C 0.49049 0.73179 0.72142 0.0
C437 C 0.49533 0.7314 0.77547 0.0
C438 C 0.51492 0.72782 0.69473 0.0
C439 C 0.56947 0.72392 0.69284 0.0
C440 C 0.5206 0.73177 0.74663 0.0
C441 C 0.59841 0.72602 0.71846 0.0
C442 C 0.52532 0.73032 0.80071 0.0
C443 C 0.41732 0.7255 0.80344 0.0
N444 N 0.57358 0.72937 0.74431 0.0
N445 N 0.44233 0.72942 0.77769 0.0
H446 H 0.87114 0.79848 0.21707 0.0
H447 H 0.14209 0.79507 0.30406 0.0
H448 H 0.02266 0.79642 0.17667 0.0
H449 H 0.99074 0.79555 0.34466 0.0
H450 H 0.09895 0.78876 0.25703 0.0
H451 H 0.91399 0.79084 0.26416 0.0
C452 C 0.91323 0.79607 0.21805 0.0
C453 C 0.94322 0.79875 0.19287 0.0
C454 C 0.07525 0.78994 0.2763 0.0
C455 C 0.99259 0.79009 0.24656 0.0
C456 C 0.09995 0.7934 0.30314 0.0
C457 C 0.07012 0.79647 0.32836 0.0
C458 C 0.02039 0.7895 0.2747 0.0
C459 C 0.01548 0.794 0.32581 0.0
C460 C 0.93776 0.79179 0.24491 0.0
C461 C 0.99779 0.79524 0.19548 0.0
N462 N 0.99248 0.79103 0.29954 0.0
N463 N 0.0206 0.79142 0.22175 0.0
H464 H 0.52212 0.19526 0.45268 0.0
H465 H 0.70164 0.28923 0.57978 0.0
H466 H 0.54912 0.34436 0.46685 0.0
H467 H 0.74129 0.1618 0.53349 0.0
H468 H 0.63114 0.30411 0.54499 0.0
H469 H 0.59149 0.17698 0.48752 0.0
C470 C 0.5432 0.22409 0.46276 0.0
C471 C 0.53016 0.27138 0.45665 0.0
C472 C 0.65496 0.27261 0.54273 0.0
C473 C 0.60757 0.25072 0.49728 0.0
C474 C 0.69456 0.26379 0.56276 0.0
C475 C 0.72694 0.22411 0.55951 0.0
C476 C 0.64718 0.24101 0.51975 0.0
C477 C 0.71694 0.19272 0.53672 0.0
C478 C 0.58241 0.21364 0.48272 0.0
C479 C 0.55828 0.3074 0.4706 0.0
N480 N 0.67781 0.20173 0.51772 0.0
N481 N 0.59512 0.29634 0.49057 0.0
H482 H 0.99299 0.31657 0.95416 0.0
H483 H 0.80808 0.21927 0.07752 0.0
H484 H 0.96462 0.16704 0.96554 0.0
H485 H 0.77019 0.34794 0.03192 0.0
H486 H 0.87922 0.20479 0.04312 0.0
H487 H 0.92177 0.33365 0.98799 0.0
C488 C 0.97125 0.28742 0.96342 0.0
C489 C 0.98442 0.24035 0.95683 0.0
C490 C 0.85556 0.2364 0.04089 0.0
C491 C 0.90481 0.25959 0.99632 0.0
C492 C 0.81556 0.24497 0.06068 0.0
C493 C 0.78356 0.28494 0.05754 0.0
C494 C 0.86417 0.26858 0.01829 0.0
C495 C 0.79416 0.31673 0.03503 0.0
C496 C 0.93095 0.29717 0.9828 0.0
C497 C 0.95539 0.20385 0.96971 0.0
N498 N 0.83374 0.30801 0.0163 0.0
N499 N 0.91748 0.21421 0.98917 0.0
H500 H 0.05109 0.16882 0.55854 0.0
H501 H 0.23976 0.35673 0.48772 0.0
H502 H 0.02063 0.31855 0.56751 0.0
H503 H 0.20381 0.22433 0.446 0.0
H504 H 0.16861 0.3426 0.52201 0.0
H505 H 0.11914 0.18685 0.52334 0.0
C506 C 0.05946 0.20556 0.55362 0.0
C507 C 0.03017 0.2423 0.5661 0.0
C508 C 0.17585 0.31703 0.5051 0.0
C509 C 0.10784 0.26296 0.52568 0.0
C510 C 0.21611 0.32515 0.48549 0.0
C511 C 0.22703 0.29191 0.46384 0.0
C512 C 0.14753 0.27462 0.50361 0.0
C513 C 0.19595 0.25117 0.46209 0.0
C514 C 0.0978 0.21571 0.53322 0.0
C515 C 0.04234 0.28919 0.55847 0.0
N516 N 0.15807 0.24326 0.48204 0.0
N517 N 0.08044 0.29824 0.53883 0.0
H518 H 0.48545 0.19884 0.07494 0.0
H519 H 0.31119 0.28855 0.94434 0.0
H520 H 0.46357 0.34742 0.05655 0.0
H521 H 0.2741 0.16046 0.99064 0.0
H522 H 0.37928 0.30586 0.98007 0.0
H523 H 0.41645 0.1799 0.04024 0.0
C524 C 0.46537 0.22749 0.06402 0.0
C525 C 0.47999 0.27476 0.06876 0.0
C526 C 0.35651 0.27374 0.98217 0.0
C527 C 0.40285 0.25326 0.02827 0.0
C528 C 0.31833 0.26351 0.96159 0.0
C529 C 0.28735 0.22289 0.96453 0.0
C530 C 0.36425 0.24265 1.00545 0.0
C531 C 0.29738 0.19206 0.98762 0.0
C532 C 0.42638 0.21665 0.0441 0.0
C533 C 0.45316 0.31053 0.05379 0.0
N534 N 0.33507 0.20249 1.00717 0.0
N535 N 0.41643 0.29901 0.03385 0.0
H536 H 0.51358 0.80538 0.54476 0.0
H537 H 0.22172 0.74676 0.50393 0.0
H538 H 0.43418 0.68461 0.58143 0.0
H539 H 0.32828 0.80767 0.44244 0.0
H540 H 0.29426 0.73362 0.53711 0.0
H541 H 0.44007 0.81801 0.51248 0.0
C542 C 0.4804 0.78184 0.54642 0.0
C543 C 0.48031 0.74358 0.56589 0.0
C544 C 0.30179 0.74971 0.51635 0.0
C545 C 0.396 0.75823 0.52873 0.0
C546 C 0.26054 0.75743 0.49745 0.0
C547 C 0.26922 0.7786 0.4705 0.0
C548 C 0.35195 0.76421 0.50854 0.0
C549 C 0.32018 0.79122 0.46301 0.0
C550 C 0.43872 0.78893 0.5277 0.0
C551 C 0.43601 0.71448 0.56683 0.0
N552 N 0.35975 0.78435 0.48215 0.0
N553 N 0.39551 0.72245 0.54849 0.0
H554 H 0.04009 0.6968 0.07794 0.0
H555 H 0.20647 0.78603 0.94427 0.0
H556 H 0.06101 0.84511 0.05847 0.0
H557 H 0.24142 0.65481 0.98788 0.0
H558 H 0.14116 0.8039 0.98137 0.0
H559 H 0.1066 0.67719 0.04206 0.0
C560 C 0.05957 0.72527 0.06658 0.0
C561 C 0.04502 0.77262 0.07117 0.0
C562 C 0.16276 0.77096 0.98257 0.0
C563 C 0.1193 0.75036 0.02938 0.0
C564 C 0.19925 0.76039 0.96118 0.0
C565 C 0.22893 0.71877 0.96303 0.0
C566 C 0.15556 0.73928 1.00558 0.0
C567 C 0.21901 0.68717 0.9857 0.0
C568 C 0.09708 0.71404 0.04596 0.0
C569 C 0.07118 0.80815 0.05572 0.0
N570 N 0.18313 0.69806 1.00613 0.0
N571 N 0.10643 0.79624 0.03511 0.0
H572 H 0.97432 0.70077 0.44392 0.0
H573 H 0.80498 0.79135 0.57593 0.0
H574 H 0.95455 0.84931 0.46308 0.0
H575 H 0.76916 0.66109 0.53163 0.0
H576 H 0.87114 0.80885 0.53925 0.0
H577 H 0.90604 0.68199 0.47894 0.0
C578 C 0.9547 0.72946 0.45501 0.0
C579 C 0.96993 0.77663 0.45056 0.0
C580 C 0.84906 0.77625 0.53778 0.0
C581 C 0.89369 0.75532 0.49138 0.0
C582 C 0.81205 0.76591 0.55891 0.0
C583 C 0.78194 0.72464 0.55676 0.0
C584 C 0.8564 0.74467 0.51474 0.0
C585 C 0.79179 0.69323 0.53399 0.0
C586 C 0.91617 0.71872 0.47514 0.0
C587 C 0.9437 0.81249 0.4657 0.0
N588 N 0.82825 0.70385 0.51384 0.0
N589 N 0.90743 0.80104 0.48584 0.0
H590 H 0.79198 0.75142 0.01456 0.0
H591 H 0.49292 0.79949 0.98277 0.0
H592 H 0.6869 0.79974 0.08087 0.0
H593 H 0.58058 0.69247 0.93718 0.0
H594 H 0.56755 0.81233 0.01441 0.0
H595 H 0.71819 0.74092 0.98211 0.0
C596 C 0.75326 0.75997 0.02229 0.0
C597 C 0.74549 0.77664 0.05047 0.0
C598 C 0.57044 0.78627 0.99737 0.0
C599 C 0.66094 0.7651 0.01316 0.0
C600 C 0.52811 0.77918 0.97903 0.0
C601 C 0.53037 0.7447 0.95717 0.0
C602 C 0.61582 0.7594 0.99358 0.0
C603 C 0.57704 0.71937 0.95367 0.0
C604 C 0.71122 0.75374 1.00375 0.0
C605 C 0.69446 0.78666 0.05937 0.0
N606 N 0.61798 0.72729 0.97167 0.0
N607 N 0.65399 0.78115 0.04063 0.0
loop_
_geom_bond_atom_site_label_1
_geom_bond_atom_site_label_2
_geom_bond_distance
_geom_bond_site_symmetry_2
_ccdc_geom_bond_type
Fe0 O2 1.918 . S
Fe0 O5 1.997 . S
Fe0 O6 2.002 . S
Fe0 O11 1.976 . S
Fe0 O14 1.996 . S
Fe1 O2 1.918 . S
Fe1 O9 1.997 . S
Fe1 O12 1.996 . S
Fe1 O16 1.976 . S
Fe1 O19 2.002 . S
O2 Fe0 1.918 . S
O2 Fe1 1.918 . S
O2 Fe3 1.918 . S
Fe3 O2 1.918 . S
Fe3 O4 2.002 . S
Fe3 O13 1.976 . S
Fe3 O17 1.996 . S
Fe3 O20 1.997 . S
O4 Fe3 2.002 . S
O4 C21 1.295 . S
O5 Fe0 1.997 . S
O5 C21 1.235 . S
O6 Fe0 2.002 . S
O6 C7 1.295 . S
C7 O6 1.295 . S
C7 O9 1.235 . S
C8 O13 1.287 . S
C8 O14 1.255 . S
O9 Fe1 1.997 . S
O9 C7 1.235 . S
C10 O16 1.287 . S
C10 O17 1.255 . S
O11 Fe0 1.976 . S
O11 C18 1.287 . S
O12 Fe1 1.996 . S
O12 C18 1.255 . S
O13 Fe3 1.976 . S
O13 C8 1.287 . S
O14 Fe0 1.996 . S
O14 C8 1.255 . S
C15 O19 1.295 . S
C15 O20 1.235 . S
O16 Fe1 1.976 . S
O16 C10 1.287 . S
O17 Fe3 1.996 . S
O17 C10 1.255 . S
C18 O11 1.287 . S
C18 O12 1.255 . S
O19 Fe1 2.002 . S
O19 C15 1.295 . S
O20 Fe3 1.997 . S
O20 C15 1.235 . S
C21 O4 1.295 . S
C21 O5 1.235 . S
Fe22 O24 1.918 . S
Fe22 O27 1.997 . S
Fe22 O28 2.002 . S
Fe22 O33 1.976 . S
Fe22 O36 1.996 . S
Fe23 O24 1.918 . S
Fe23 O31 1.997 . S
Fe23 O34 1.996 . S
Fe23 O38 1.976 . S
Fe23 O41 2.002 . S
O24 Fe22 1.918 . S
O24 Fe23 1.918 . S
O24 Fe25 1.918 . S
Fe25 O24 1.918 . S
Fe25 O26 2.002 . S
Fe25 O35 1.976 . S
Fe25 O39 1.996 . S
Fe25 O42 1.997 . S
O26 Fe25 2.002 . S
O26 C43 1.295 . S
O27 Fe22 1.997 . S
O27 C43 1.235 . S
O28 Fe22 2.002 . S
O28 C29 1.295 . S
C29 O28 1.295 . S
C29 O31 1.235 . S
C30 O35 1.287 . S
C30 O36 1.255 . S
O31 Fe23 1.997 . S
O31 C29 1.235 . S
C32 O38 1.287 1_655 S
C32 O39 1.255 1_655 S
O33 Fe22 1.976 . S
O33 C40 1.287 . S
O34 Fe23 1.996 . S
O34 C40 1.255 . S
O35 Fe25 1.976 . S
O35 C30 1.287 . S
O36 Fe22 1.996 . S
O36 C30 1.255 . S
C37 O41 1.295 . S
C37 O42 1.235 . S
O38 Fe23 1.976 . S
O38 C32 1.287 1_455 S
O39 Fe25 1.996 . S
O39 C32 1.255 1_455 S
C40 O33 1.287 . S
C40 O34 1.255 . S
O41 Fe23 2.002 . S
O41 C37 1.295 . S
O42 Fe25 1.997 . S
O42 C37 1.235 . S
C43 O26 1.295 . S
C43 O27 1.235 . S
Fe44 O46 1.918 . S
Fe44 O49 1.997 . S
Fe44 O50 2.002 . S
Fe44 O55 1.976 . S
Fe44 O58 1.996 . S
Fe45 O46 1.918 . S
Fe45 O53 1.997 . S
Fe45 O56 1.996 . S
Fe45 O60 1.976 . S
Fe45 O63 2.002 . S
O46 Fe44 1.918 . S
O46 Fe45 1.918 . S
O46 Fe47 1.918 . S
Fe47 O46 1.918 . S
Fe47 O48 2.002 . S
Fe47 O57 1.976 . S
Fe47 O61 1.996 . S
Fe47 O64 1.997 . S
O48 Fe47 2.002 . S
O48 C65 1.295 . S
O49 Fe44 1.997 . S
O49 C65 1.235 . S
O50 Fe44 2.002 . S
O50 C51 1.295 . S
C51 O50 1.295 . S
C51 O53 1.235 . S
C52 O57 1.287 . S
C52 O58 1.255 . S
O53 Fe45 1.997 . S
O53 C51 1.235 . S
C54 O60 1.287 . S
C54 O61 1.255 . S
O55 Fe44 1.976 . S
O55 C62 1.287 1_655 S
O56 Fe45 1.996 . S
O56 C62 1.255 1_655 S
O57 Fe47 1.976 . S
O57 C52 1.287 . S
O58 Fe44 1.996 . S
O58 C52 1.255 . S
C59 O63 1.295 . S
C59 O64 1.235 . S
O60 Fe45 1.976 . S
O60 C54 1.287 . S
O61 Fe47 1.996 . S
O61 C54 1.255 . S
C62 O55 1.287 1_455 S
C62 O56 1.255 1_455 S
O63 Fe45 2.002 . S
O63 C59 1.295 . S
O64 Fe47 1.997 . S
O64 C59 1.235 . S
C65 O48 1.295 . S
C65 O49 1.235 . S
Fe66 O68 1.918 . S
Fe66 O71 1.997 . S
Fe66 O72 2.002 . S
Fe66 O77 1.976 . S
Fe66 O80 1.996 . S
Fe67 O68 1.918 . S
Fe67 O75 1.997 . S
Fe67 O78 1.996 . S
Fe67 O82 1.976 . S
Fe67 O85 2.002 . S
O68 Fe66 1.918 . S
O68 Fe67 1.918 . S
O68 Fe69 1.918 . S
Fe69 O68 1.918 . S
Fe69 O70 2.002 . S
Fe69 O79 1.976 . S
Fe69 O83 1.996 . S
Fe69 O86 1.997 . S
O70 Fe69 2.002 . S
O70 C87 1.295 . S
O71 Fe66 1.997 . S
O71 C87 1.235 . S
O72 Fe66 2.002 . S
O72 C73 1.295 . S
C73 O72 1.295 . S
C73 O75 1.235 . S
C74 O79 1.287 . S
C74 O80 1.255 . S
O75 Fe67 1.997 . S
O75 C73 1.235 . S
C76 O82 1.287 . S
C76 O83 1.255 . S
O77 Fe66 1.976 . S
O77 C84 1.287 . S
O78 Fe67 1.996 . S
O78 C84 1.255 . S
O79 Fe69 1.976 . S
O79 C74 1.287 . S
O80 Fe66 1.996 . S
O80 C74 1.255 . S
C81 O85 1.295 . S
C81 O86 1.235 . S
O82 Fe67 1.976 . S
O82 C76 1.287 . S
O83 Fe69 1.996 . S
O83 C76 1.255 . S
C84 O77 1.287 . S
C84 O78 1.255 . S
O85 Fe67 2.002 . S
O85 C81 1.295 . S
O86 Fe69 1.997 . S
O86 C81 1.235 . S
C87 O70 1.295 . S
C87 O71 1.235 . S
Fe88 O90 1.918 . S
Fe88 O93 1.997 . S
Fe88 O94 2.002 . S
Fe88 O99 1.976 . S
Fe88 O102 1.996 . S
Fe89 O90 1.918 . S
Fe89 O97 1.997 . S
Fe89 O100 1.996 . S
Fe89 O104 1.976 . S
Fe89 O107 2.002 . S
O90 Fe88 1.918 . S
O90 Fe89 1.918 . S
O90 Fe91 1.918 . S
Fe91 O90 1.918 . S
Fe91 O92 2.002 . S
Fe91 O101 1.976 . S
Fe91 O105 1.996 . S
Fe91 O108 1.997 . S
O92 Fe91 2.002 . S
O92 C109 1.295 . S
O93 Fe88 1.997 . S
O93 C109 1.235 . S
O94 Fe88 2.002 . S
O94 C95 1.295 . S
C95 O94 1.295 . S
C95 O97 1.235 . S
C96 O101 1.287 . S
C96 O102 1.255 . S
O97 Fe89 1.997 . S
O97 C95 1.235 . S
C98 O104 1.287 . S
C98 O105 1.255 . S
O99 Fe88 1.976 . S
O99 C106 1.287 . S
O100 Fe89 1.996 . S
O100 C106 1.255 . S
O101 Fe91 1.976 . S
O101 C96 1.287 . S
O102 Fe88 1.996 . S
O102 C96 1.255 . S
C103 O107 1.295 . S
C103 O108 1.235 . S
O104 Fe89 1.976 . S
O104 C98 1.287 . S
O105 Fe91 1.996 . S
O105 C98 1.255 . S
C106 O99 1.287 . S
C106 O100 1.255 . S
O107 Fe89 2.002 . S
O107 C103 1.295 . S
O108 Fe91 1.997 . S
O108 C103 1.235 . S
C109 O92 1.295 . S
C109 O93 1.235 . S
Fe110 O112 1.918 . S
Fe110 O115 1.997 . S
Fe110 O116 2.002 . S
Fe110 O121 1.976 . S
Fe110 O124 1.996 . S
Fe111 O112 1.918 . S
Fe111 O119 1.997 . S
Fe111 O122 1.996 . S
Fe111 O126 1.976 . S
Fe111 O129 2.002 . S
O112 Fe110 1.918 . S
O112 Fe111 1.918 . S
O112 Fe113 1.918 . S
Fe113 O112 1.918 . S
Fe113 O114 2.002 . S
Fe113 O123 1.976 . S
Fe113 O127 1.996 . S
Fe113 O130 1.997 . S
O114 Fe113 2.002 . S
O114 C131 1.295 . S
O115 Fe110 1.997 . S
O115 C131 1.235 . S
O116 Fe110 2.002 . S
O116 C117 1.295 . S
C117 O116 1.295 . S
C117 O119 1.235 . S
C118 O123 1.287 . S
C118 O124 1.255 . S
O119 Fe111 1.997 . S
O119 C117 1.235 . S
C120 O126 1.287 . S
C120 O127 1.255 . S
O121 Fe110 1.976 . S
O121 C128 1.287 1_655 S
O122 Fe111 1.996 . S
O122 C128 1.255 1_655 S
O123 Fe113 1.976 . S
O123 C118 1.287 . S
O124 Fe110 1.996 . S
O124 C118 1.255 . S
C125 O129 1.295 . S
C125 O130 1.235 . S
O126 Fe111 1.976 . S
O126 C120 1.287 . S
O127 Fe113 1.996 . S
O127 C120 1.255 . S
C128 O121 1.287 1_455 S
C128 O122 1.255 1_455 S
O129 Fe111 2.002 . S
O129 C125 1.295 . S
O130 Fe113 1.997 . S
O130 C125 1.235 . S
C131 O114 1.295 . S
C131 O115 1.235 . S
Fe132 O134 1.918 . S
Fe132 O137 1.997 . S
Fe132 O138 2.002 . S
Fe132 O143 1.976 . S
Fe132 O146 1.996 . S
Fe133 O134 1.918 . S
Fe133 O141 1.997 . S
Fe133 O144 1.996 . S
Fe133 O148 1.976 . S
Fe133 O151 2.002 . S
O134 Fe132 1.918 . S
O134 Fe133 1.918 . S
O134 Fe135 1.918 . S
Fe135 O134 1.918 . S
Fe135 O136 2.002 . S
Fe135 O145 1.976 . S
Fe135 O149 1.996 . S
Fe135 O152 1.997 . S
O136 Fe135 2.002 . S
O136 C153 1.295 . S
O137 Fe132 1.997 . S
O137 C153 1.235 . S
O138 Fe132 2.002 . S
O138 C139 1.295 . S
C139 O138 1.295 . S
C139 O141 1.235 . S
C140 O145 1.287 . S
C140 O146 1.255 . S
O141 Fe133 1.997 . S
O141 C139 1.235 . S
C142 O148 1.287 . S
C142 O149 1.255 . S
O143 Fe132 1.976 . S
O143 C150 1.287 1_455 S
O144 Fe133 1.996 . S
O144 C150 1.255 1_455 S
O145 Fe135 1.976 . S
O145 C140 1.287 . S
O146 Fe132 1.996 . S
O146 C140 1.255 . S
C147 O151 1.295 . S
C147 O152 1.235 . S
O148 Fe133 1.976 . S
O148 C142 1.287 . S
O149 Fe135 1.996 . S
O149 C142 1.255 . S
C150 O143 1.287 1_655 S
C150 O144 1.255 1_655 S
O151 Fe133 2.002 . S
O151 C147 1.295 . S
O152 Fe135 1.997 . S
O152 C147 1.235 . S
C153 O136 1.295 . S
C153 O137 1.235 . S
Fe154 O156 1.918 . S
Fe154 O159 1.997 . S
Fe154 O160 2.002 . S
Fe154 O165 1.976 . S
Fe154 O168 1.996 . S
Fe155 O156 1.918 . S
Fe155 O163 1.997 . S
Fe155 O166 1.996 . S
Fe155 O170 1.976 . S
Fe155 O173 2.002 . S
O156 Fe154 1.918 . S
O156 Fe155 1.918 . S
O156 Fe157 1.918 . S
Fe157 O156 1.918 . S
Fe157 O158 2.002 . S
Fe157 O167 1.976 . S
Fe157 O171 1.996 . S
Fe157 O174 1.997 . S
O158 Fe157 2.002 . S
O158 C175 1.295 . S
O159 Fe154 1.997 . S
O159 C175 1.235 . S
O160 Fe154 2.002 . S
O160 C161 1.295 . S
C161 O160 1.295 . S
C161 O163 1.235 . S
C162 O167 1.287 . S
C162 O168 1.255 . S
O163 Fe155 1.997 . S
O163 C161 1.235 . S
C164 O170 1.287 . S
C164 O171 1.255 . S
O165 Fe154 1.976 . S
O165 C172 1.287 . S
O166 Fe155 1.996 . S
O166 C172 1.255 . S
O167 Fe157 1.976 . S
O167 C162 1.287 . S
O168 Fe154 1.996 . S
O168 C162 1.255 . S
C169 O173 1.295 . S
C169 O174 1.235 . S
O170 Fe155 1.976 . S
O170 C164 1.287 . S
O171 Fe157 1.996 . S
O171 C164 1.255 . S
C172 O165 1.287 . S
C172 O166 1.255 . S
O173 Fe155 2.002 . S
O173 C169 1.295 . S
O174 Fe157 1.997 . S
O174 C169 1.235 . S
C175 O158 1.295 . S
C175 O159 1.235 . S
H176 C182 0.930 . S
H177 C186 0.930 . S
H178 C191 0.929 . S
H179 C189 0.929 . S
H180 C184 0.929 . S
H181 C190 0.929 . S
C182 H176 0.930 . S
C182 C183 1.367 . S
C182 C190 1.378 . S
C183 C182 1.367 . S
C183 C191 1.433 . S
C184 H180 0.929 . S
C184 C186 1.378 . S
C184 C188 1.350 . S
C185 C188 1.463 . S
C185 C190 1.350 1_545 S
C185 N193 1.427 . S
C186 H177 0.930 . S
C186 C184 1.378 . S
C186 C187 1.367 . S
C187 C186 1.367 . S
C187 C189 1.433 . S
C188 C184 1.350 . S
C188 C185 1.463 . S
C188 N192 1.427 . S
C189 H179 0.929 . S
C189 C187 1.433 . S
C189 N192 1.384 . S
C190 H181 0.929 . S
C190 C182 1.378 . S
C190 C185 1.350 1_565 S
C191 H178 0.929 . S
C191 C183 1.433 . S
C191 N193 1.384 1_565 S
N192 C188 1.427 . S
N192 C189 1.384 . S
N193 C185 1.427 . S
N193 C191 1.384 1_545 S
H194 C200 0.930 . S
H195 C204 0.930 . S
H196 C209 0.929 . S
H197 C207 0.929 . S
H198 C202 0.929 . S
H199 C208 0.929 . S
C200 H194 0.930 . S
C200 C201 1.367 . S
C200 C208 1.378 . S
C201 C200 1.367 . S
C201 C209 1.433 . S
C202 H198 0.929 . S
C202 C204 1.378 . S
C202 C206 1.350 . S
C203 C206 1.463 . S
C203 C208 1.350 . S
C203 N211 1.427 . S
C204 H195 0.930 . S
C204 C202 1.378 . S
C204 C205 1.367 . S
C205 C204 1.367 . S
C205 C207 1.433 . S
C206 C202 1.350 . S
C206 C203 1.463 . S
C206 N210 1.427 . S
C207 H197 0.929 . S
C207 C205 1.433 . S
C207 N210 1.384 . S
C208 H199 0.929 . S
C208 C200 1.378 . S
C208 C203 1.350 . S
C209 H196 0.929 . S
C209 C201 1.433 . S
C209 N211 1.384 . S
N210 C206 1.427 . S
N210 C207 1.384 . S
N211 C203 1.427 . S
N211 C209 1.384 . S
H212 C218 0.930 . S
H213 C222 0.930 . S
H214 C227 0.929 . S
H215 C225 0.929 . S
H216 C220 0.929 . S
H217 C226 0.929 . S
C218 H212 0.930 . S
C218 C219 1.367 . S
C218 C226 1.378 . S
C219 C218 1.367 . S
C219 C227 1.433 . S
C220 H216 0.929 . S
C220 C222 1.378 . S
C220 C224 1.350 . S
C221 C224 1.463 . S
C221 C226 1.350 . S
C221 N229 1.427 . S
C222 H213 0.930 . S
C222 C220 1.378 . S
C222 C223 1.367 . S
C223 C222 1.367 . S
C223 C225 1.433 . S
C224 C220 1.350 . S
C224 C221 1.463 . S
C224 N228 1.427 . S
C225 H215 0.929 . S
C225 C223 1.433 . S
C225 N228 1.384 . S
C226 H217 0.929 . S
C226 C218 1.378 . S
C226 C221 1.350 . S
C227 H214 0.929 . S
C227 C219 1.433 . S
C227 N229 1.384 . S
N228 C224 1.427 . S
N228 C225 1.384 . S
N229 C221 1.427 . S
N229 C227 1.384 . S
H230 C236 0.930 . S
H231 C240 0.930 . S
H232 C245 0.929 . S
H233 C243 0.929 . S
H234 C238 0.930 . S
H235 C244 0.929 . S
C236 H230 0.930 . S
C236 C237 1.367 . S
C236 C244 1.378 . S
C237 C236 1.367 . S
C237 C245 1.433 . S
C238 H234 0.930 . S
C238 C240 1.367 1_545 S
C238 C242 1.360 . S
C239 C242 1.463 . S
C239 C244 1.350 . S
C239 N247 1.427 . S
C240 H231 0.930 . S
C240 C238 1.367 1_565 S
C240 C241 1.367 . S
C241 C240 1.367 . S
C241 C243 1.433 . S
C242 C238 1.360 . S
C242 C239 1.463 . S
C242 N246 1.427 . S
C243 H233 0.929 . S
C243 C241 1.433 . S
C243 N246 1.384 1_565 S
C244 H235 0.929 . S
C244 C236 1.378 . S
C244 C239 1.350 . S
C245 H232 0.929 . S
C245 C237 1.433 . S
C245 N247 1.384 . S
N246 C242 1.427 . S
N246 C243 1.384 1_545 S
N247 C239 1.427 . S
N247 C245 1.384 . S
H248 C254 0.930 . S
H249 C258 0.930 . S
H250 C263 0.929 . S
H251 C261 0.929 . S
H252 C256 0.929 . S
H253 C262 0.929 . S
C254 H248 0.930 . S
C254 C255 1.367 . S
C254 C262 1.378 1_545 S
C255 C254 1.367 . S
C255 C263 1.433 . S
C256 H252 0.929 . S
C256 C258 1.378 . S
C256 C260 1.350 . S
C257 C260 1.463 . S
C257 C262 1.350 . S
C257 N265 1.427 . S
C258 H249 0.930 . S
C258 C256 1.378 . S
C258 C259 1.367 . S
C259 C258 1.367 . S
C259 C261 1.433 . S
C260 C256 1.350 . S
C260 C257 1.463 . S
C260 N264 1.427 . S
C261 H251 0.929 . S
C261 C259 1.433 . S
C261 N264 1.384 . S
C262 H253 0.929 . S
C262 C254 1.378 1_565 S
C262 C257 1.350 . S
C263 H250 0.929 . S
C263 C255 1.433 . S
C263 N265 1.384 1_545 S
N264 C260 1.427 . S
N264 C261 1.384 . S
N265 C257 1.427 . S
N265 C263 1.384 1_565 S
H266 C272 0.930 . S
H267 C276 0.930 . S
H268 C281 0.929 . S
H269 C279 0.929 . S
H270 C274 0.929 . S
H271 C280 0.929 . S
C272 H266 0.930 . S
C272 C273 1.367 . S
C272 C280 1.378 . S
C273 C272 1.367 . S
C273 C281 1.433 . S
C274 H270 0.929 . S
C274 C276 1.378 . S
C274 C278 1.350 . S
C275 C278 1.463 . S
C275 C280 1.350 . S
C275 N283 1.427 . S
C276 H267 0.930 . S
C276 C274 1.378 . S
C276 C277 1.367 . S
C277 C276 1.367 . S
C277 C279 1.433 . S
C278 C274 1.350 . S
C278 C275 1.463 . S
C278 N282 1.427 . S
C279 H269 0.929 . S
C279 C277 1.433 . S
C279 N282 1.384 . S
C280 H271 0.929 . S
C280 C272 1.378 . S
C280 C275 1.350 . S
C281 H268 0.929 . S
C281 C273 1.433 . S
C281 N283 1.384 . S
N282 C278 1.427 . S
N282 C279 1.384 . S
N283 C275 1.427 . S
N283 C281 1.384 . S
H284 C290 0.930 . S
H285 C294 0.930 . S
H286 C299 0.929 . S
H287 C297 0.929 . S
H288 C292 0.929 . S
H289 C298 0.929 . S
C290 H284 0.930 . S
C290 C291 1.367 . S
C290 C298 1.378 . S
C291 C290 1.367 . S
C291 C299 1.433 . S
C292 H288 0.929 . S
C292 C294 1.378 . S
C292 C296 1.350 . S
C293 C296 1.463 . S
C293 C298 1.350 . S
C293 N301 1.427 . S
C294 H285 0.930 . S
C294 C292 1.378 . S
C294 C295 1.367 . S
C295 C294 1.367 . S
C295 C297 1.433 . S
C296 C292 1.350 . S
C296 C293 1.463 . S
C296 N300 1.427 . S
C297 H287 0.929 . S
C297 C295 1.433 . S
C297 N300 1.384 . S
C298 H289 0.929 . S
C298 C290 1.378 . S
C298 C293 1.350 . S
C299 H286 0.929 . S
C299 C291 1.433 . S
C299 N301 1.384 . S
N300 C296 1.427 . S
N300 C297 1.384 . S
N301 C293 1.427 . S
N301 C299 1.384 . S
H302 C308 0.930 . S
H303 C312 0.930 . S
H304 C317 0.929 . S
H305 C315 0.929 . S
H306 C310 0.929 . S
H307 C316 0.929 . S
C308 H302 0.930 . S
C308 C309 1.367 . S
C308 C316 1.378 1_545 S
C309 C308 1.367 . S
C309 C317 1.433 . S
C310 H306 0.929 . S
C310 C312 1.378 . S
C310 C314 1.350 . S
C311 C314 1.463 . S
C311 C316 1.350 . S
C311 N319 1.427 . S
C312 H303 0.930 . S
C312 C310 1.378 . S
C312 C313 1.367 . S
C313 C312 1.367 . S
C313 C315 1.433 . S
C314 C310 1.350 . S
C314 C311 1.463 . S
C314 N318 1.427 . S
C315 H305 0.929 . S
C315 C313 1.433 . S
C315 N318 1.384 . S
C316 H307 0.929 . S
C316 C308 1.378 1_565 S
C316 C311 1.350 . S
C317 H304 0.929 . S
C317 C309 1.433 . S
C317 N319 1.384 1_545 S
N318 C314 1.427 . S
N318 C315 1.384 . S
N319 C311 1.427 . S
N319 C317 1.384 1_565 S
H320 C326 0.930 . S
H321 C330 0.930 . S
H322 C335 0.929 . S
H323 C333 0.929 . S
H324 C328 0.929 . S
H325 C334 0.929 . S
C326 H320 0.930 . S
C326 C327 1.367 . S
C326 C334 1.378 . S
C327 C326 1.367 . S
C327 C335 1.433 . S
C328 H324 0.929 . S
C328 C330 1.378 . S
C328 C332 1.350 . S
C329 C332 1.463 . S
C329 C334 1.350 . S
C329 N337 1.427 . S
C330 H321 0.930 . S
C330 C328 1.378 . S
C330 C331 1.367 . S
C331 C330 1.367 . S
C331 C333 1.433 . S
C332 C328 1.350 . S
C332 C329 1.463 . S
C332 N336 1.427 . S
C333 H323 0.929 . S
C333 C331 1.433 . S
C333 N336 1.384 . S
C334 H325 0.929 . S
C334 C326 1.378 . S
C334 C329 1.350 . S
C335 H322 0.929 . S
C335 C327 1.433 . S
C335 N337 1.384 . S
N336 C332 1.427 . S
N336 C333 1.384 . S
N337 C329 1.427 . S
N337 C335 1.384 . S
H338 C344 0.930 . S
H339 C348 0.930 . S
H340 C353 0.929 . S
H341 C351 0.929 . S
H342 C346 0.929 . S
H343 C352 0.929 . S
C344 H338 0.930 . S
C344 C345 1.367 1_556 S
C344 C352 1.378 . S
C345 C344 1.367 1_554 S
C345 C353 1.433 . S
C346 H342 0.929 . S
C346 C348 1.378 . S
C346 C350 1.350 1_554 S
C347 C350 1.463 1_664 S
C347 C352 1.350 1_554 S
C347 N355 1.427 . S
C348 H339 0.930 . S
C348 C346 1.378 . S
C348 C349 1.367 1_554 S
C349 C348 1.367 1_556 S
C349 C351 1.433 . S
C350 C346 1.350 1_556 S
C350 C347 1.463 1_446 S
C350 N354 1.427 . S
C351 H341 0.929 . S
C351 C349 1.433 . S
C351 N354 1.384 . S
C352 H343 0.929 . S
C352 C344 1.378 . S
C352 C347 1.350 1_556 S
C353 H340 0.929 . S
C353 C345 1.433 . S
C353 N355 1.384 . S
N354 C350 1.427 . S
N354 C351 1.384 . S
N355 C347 1.427 . S
N355 C353 1.384 . S
H356 C362 0.930 . S
H357 C366 0.930 . S
H358 C371 0.929 . S
H359 C369 0.929 . S
H360 C364 0.929 1_545 S
H361 C370 0.929 1_565 S
C362 H356 0.930 . S
C362 C363 1.367 . S
C362 C370 1.378 . S
C363 C362 1.367 . S
C363 C371 1.433 . S
C364 H360 0.929 1_565 S
C364 C366 1.378 . S
C364 C368 1.350 . S
C365 C368 1.463 1_645 S
C365 C370 1.350 . S
C365 N373 1.427 1_655 S
C366 H357 0.930 . S
C366 C364 1.378 . S
C366 C367 1.367 . S
C367 C366 1.367 . S
C367 C369 1.433 . S
C368 C364 1.350 . S
C368 C365 1.463 1_465 S
C368 N372 1.427 1_455 S
C369 H359 0.929 . S
C369 C367 1.433 . S
C369 N372 1.384 1_455 S
C370 H361 0.929 1_545 S
C370 C362 1.378 . S
C370 C365 1.350 . S
C371 H358 0.929 . S
C371 C363 1.433 . S
C371 N373 1.384 1_655 S
N372 C368 1.427 1_655 S
N372 C369 1.384 1_655 S
N373 C365 1.427 1_455 S
N373 C371 1.384 1_455 S
H374 C380 0.930 . S
H375 C384 0.930 . S
H376 C389 0.929 . S
H377 C387 0.929 . S
H378 C382 0.929 . S
H379 C388 0.929 . S
C380 H374 0.930 . S
C380 C381 1.367 . S
C380 C388 1.378 . S
C381 C380 1.367 . S
C381 C389 1.433 1_556 S
C382 H378 0.929 . S
C382 C384 1.378 . S
C382 C386 1.350 . S
C383 C386 1.463 1_556 S
C383 C388 1.350 . S
C383 N391 1.427 1_556 S
C384 H375 0.930 . S
C384 C382 1.378 . S
C384 C385 1.367 . S
C385 C384 1.367 . S
C385 C387 1.433 1_554 S
C386 C382 1.350 . S
C386 C383 1.463 1_554 S
C386 N390 1.427 1_554 S
C387 H377 0.929 . S
C387 C385 1.433 1_556 S
C387 N390 1.384 . S
C388 H379 0.929 . S
C388 C380 1.378 . S
C388 C383 1.350 . S
C389 H376 0.929 . S
C389 C381 1.433 1_554 S
C389 N391 1.384 . S
N390 C386 1.427 1_556 S
N390 C387 1.384 . S
N391 C383 1.427 1_554 S
N391 C389 1.384 . S
H392 C398 0.930 . S
H393 C402 0.930 . S
H394 C407 0.929 . S
H395 C405 0.929 . S
H396 C400 0.929 . S
H397 C406 0.929 . S
C398 H392 0.930 . S
C398 C399 1.367 . S
C398 C406 1.378 . S
C399 C398 1.367 . S
C399 C407 1.433 . S
C400 H396 0.929 . S
C400 C402 1.378 . S
C400 C404 1.350 . S
C401 C404 1.463 . S
C401 C406 1.350 . S
C401 N409 1.427 . S
C402 H393 0.930 . S
C402 C400 1.378 . S
C402 C403 1.367 . S
C403 C402 1.367 . S
C403 C405 1.433 . S
C404 C400 1.350 . S
C404 C401 1.463 . S
C404 N408 1.427 . S
C405 H395 0.929 . S
C405 C403 1.433 . S
C405 N408 1.384 . S
C406 H397 0.929 . S
C406 C398 1.378 . S
C406 C401 1.350 . S
C407 H394 0.929 . S
C407 C399 1.433 . S
C407 N409 1.384 . S
N408 C404 1.427 . S
N408 C405 1.384 . S
N409 C401 1.427 . S
N409 C407 1.384 . S
H410 C416 0.930 . S
H411 C420 0.930 . S
H412 C425 0.929 . S
H413 C423 0.929 . S
H414 C418 0.929 . S
H415 C424 0.929 . S
C416 H410 0.930 . S
C416 C417 1.367 . S
C416 C424 1.378 . S
C417 C416 1.367 . S
C417 C425 1.433 . S
C418 H414 0.929 . S
C418 C420 1.378 . S
C418 C422 1.350 . S
C419 C422 1.463 1_455 S
C419 C424 1.350 . S
C419 N427 1.427 . S
C420 H411 0.930 . S
C420 C418 1.378 . S
C420 C421 1.367 . S
C421 C420 1.367 . S
C421 C423 1.433 . S
C422 C418 1.350 . S
C422 C419 1.463 1_655 S
C422 N426 1.427 . S
C423 H413 0.929 . S
C423 C421 1.433 . S
C423 N426 1.384 . S
C424 H415 0.929 . S
C424 C416 1.378 . S
C424 C419 1.350 . S
C425 H412 0.929 . S
C425 C417 1.433 . S
C425 N427 1.384 . S
N426 C422 1.427 . S
N426 C423 1.384 . S
N427 C419 1.427 . S
N427 C425 1.384 . S
H428 C434 0.930 . S
H429 C438 0.930 . S
H430 C443 0.929 . S
H431 C441 0.929 . S
H432 C436 0.929 . S
H433 C442 0.929 . S
C434 H428 0.930 . S
C434 C435 1.367 . S
C434 C442 1.378 . S
C435 C434 1.367 . S
C435 C443 1.433 . S
C436 H432 0.929 . S
C436 C438 1.378 . S
C436 C440 1.350 . S
C437 C440 1.463 . S
C437 C442 1.350 . S
C437 N445 1.427 . S
C438 H429 0.930 . S
C438 C436 1.378 . S
C438 C439 1.367 . S
C439 C438 1.367 . S
C439 C441 1.433 . S
C440 C436 1.350 . S
C440 C437 1.463 . S
C440 N444 1.427 . S
C441 H431 0.929 . S
C441 C439 1.433 . S
C441 N444 1.384 . S
C442 H433 0.929 . S
C442 C434 1.378 . S
C442 C437 1.350 . S
C443 H430 0.929 . S
C443 C435 1.433 . S
C443 N445 1.384 . S
N444 C440 1.427 . S
N444 C441 1.384 . S
N445 C437 1.427 . S
N445 C443 1.384 . S
H446 C452 0.930 . S
H447 C456 0.930 . S
H448 C461 0.929 . S
H449 C459 0.929 . S
H450 C454 0.929 . S
H451 C460 0.929 . S
C452 H446 0.930 . S
C452 C453 1.367 . S
C452 C460 1.378 . S
C453 C452 1.367 . S
C453 C461 1.433 . S
C454 H450 0.929 . S
C454 C456 1.378 . S
C454 C458 1.350 . S
C455 C458 1.463 1_655 S
C455 C460 1.350 . S
C455 N463 1.427 . S
C456 H447 0.930 . S
C456 C454 1.378 . S
C456 C457 1.367 . S
C457 C456 1.367 . S
C457 C459 1.433 . S
C458 C454 1.350 . S
C458 C455 1.463 1_455 S
C458 N462 1.427 . S
C459 H449 0.929 . S
C459 C457 1.433 . S
C459 N462 1.384 . S
C460 H451 0.929 . S
C460 C452 1.378 . S
C460 C455 1.350 . S
C461 H448 0.929 . S
C461 C453 1.433 . S
C461 N463 1.384 . S
N462 C458 1.427 . S
N462 C459 1.384 . S
N463 C455 1.427 . S
N463 C461 1.384 . S
H464 C470 0.930 . S
H465 C474 0.930 . S
H466 C479 0.929 . S
H467 C477 0.929 . S
H468 C472 0.929 . S
H469 C478 0.929 . S
C470 H464 0.930 . S
C470 C471 1.367 . S
C470 C478 1.378 . S
C471 C470 1.367 . S
C471 C479 1.433 . S
C472 H468 0.929 . S
C472 C474 1.378 . S
C472 C476 1.350 . S
C473 C476 1.463 . S
C473 C478 1.350 . S
C473 N481 1.427 . S
C474 H465 0.930 . S
C474 C472 1.378 . S
C474 C475 1.367 . S
C475 C474 1.367 . S
C475 C477 1.433 . S
C476 C472 1.350 . S
C476 C473 1.463 . S
C476 N480 1.427 . S
C477 H467 0.929 . S
C477 C475 1.433 . S
C477 N480 1.384 . S
C478 H469 0.929 . S
C478 C470 1.378 . S
C478 C473 1.350 . S
C479 H466 0.929 . S
C479 C471 1.433 . S
C479 N481 1.384 . S
N480 C476 1.427 . S
N480 C477 1.384 . S
N481 C473 1.427 . S
N481 C479 1.384 . S
H482 C488 0.930 . S
H483 C492 0.930 . S
H484 C497 0.929 . S
H485 C495 0.929 . S
H486 C490 0.929 . S
H487 C496 0.929 . S
C488 H482 0.930 . S
C488 C489 1.367 . S
C488 C496 1.378 . S
C489 C488 1.367 . S
C489 C497 1.433 . S
C490 H486 0.929 . S
C490 C492 1.378 . S
C490 C494 1.328 1_554 S
C491 C494 1.488 . S
C491 C496 1.350 . S
C491 N499 1.427 . S
C492 H483 0.930 . S
C492 C490 1.378 . S
C492 C493 1.367 . S
C493 C492 1.367 . S
C493 C495 1.433 . S
C494 C490 1.328 1_556 S
C494 C491 1.488 . S
C494 N498 1.426 1_556 S
C495 H485 0.929 . S
C495 C493 1.433 . S
C495 N498 1.395 . S
C496 H487 0.929 . S
C496 C488 1.378 . S
C496 C491 1.350 . S
C497 H484 0.929 . S
C497 C489 1.433 . S
C497 N499 1.384 . S
N498 C494 1.426 1_554 S
N498 C495 1.395 . S
N499 C491 1.427 . S
N499 C497 1.384 . S
H500 C506 0.930 . S
H501 C510 0.930 . S
H502 C515 0.929 . S
H503 C513 0.929 . S
H504 C508 0.929 . S
H505 C514 0.929 . S
C506 H500 0.930 . S
C506 C507 1.367 . S
C506 C514 1.378 . S
C507 C506 1.367 . S
C507 C515 1.433 . S
C508 H504 0.929 . S
C508 C510 1.378 . S
C508 C512 1.350 . S
C509 C512 1.463 . S
C509 C514 1.350 . S
C509 N517 1.427 . S
C510 H501 0.930 . S
C510 C508 1.378 . S
C510 C511 1.367 . S
C511 C510 1.367 . S
C511 C513 1.433 . S
C512 C508 1.350 . S
C512 C509 1.463 . S
C512 N516 1.427 . S
C513 H503 0.929 . S
C513 C511 1.433 . S
C513 N516 1.384 . S
C514 H505 0.929 . S
C514 C506 1.378 . S
C514 C509 1.350 . S
C515 H502 0.929 . S
C515 C507 1.433 . S
C515 N517 1.384 . S
N516 C512 1.427 . S
N516 C513 1.384 . S
N517 C509 1.427 . S
N517 C515 1.384 . S
H518 C524 0.930 . S
H519 C528 0.930 . S
H520 C533 0.929 . S
H521 C531 0.929 . S
H522 C526 0.929 . S
H523 C532 0.929 . S
C524 H518 0.930 . S
C524 C525 1.367 . S
C524 C532 1.378 . S
C525 C524 1.367 . S
C525 C533 1.433 . S
C526 H522 0.929 . S
C526 C528 1.378 . S
C526 C530 1.329 1_556 S
C527 C530 1.479 . S
C527 C532 1.350 . S
C527 N535 1.427 . S
C528 H519 0.930 . S
C528 C526 1.378 . S
C528 C529 1.367 . S
C529 C528 1.367 . S
C529 C531 1.433 . S
C530 C526 1.329 1_554 S
C530 C527 1.479 . S
C530 N534 1.433 . S
C531 H521 0.929 . S
C531 C529 1.433 . S
C531 N534 1.384 1_556 S
C532 H523 0.929 . S
C532 C524 1.378 . S
C532 C527 1.350 . S
C533 H520 0.929 . S
C533 C525 1.433 . S
C533 N535 1.384 . S
N534 C530 1.433 . S
N534 C531 1.384 1_554 S
N535 C527 1.427 . S
N535 C533 1.384 . S
H536 C542 0.930 . S
H537 C546 0.930 . S
H538 C551 0.929 . S
H539 C549 0.929 . S
H540 C544 0.929 . S
H541 C550 0.929 . S
C542 H536 0.930 . S
C542 C543 1.367 . S
C542 C550 1.378 . S
C543 C542 1.367 . S
C543 C551 1.433 . S
C544 H540 0.929 . S
C544 C546 1.378 . S
C544 C548 1.350 . S
C545 C548 1.463 . S
C545 C550 1.350 . S
C545 N553 1.427 . S
C546 H537 0.930 . S
C546 C544 1.378 . S
C546 C547 1.367 . S
C547 C546 1.367 . S
C547 C549 1.433 . S
C548 C544 1.350 . S
C548 C545 1.463 . S
C548 N552 1.427 . S
C549 H539 0.929 . S
C549 C547 1.433 . S
C549 N552 1.384 . S
C550 H541 0.929 . S
C550 C542 1.378 . S
C550 C545 1.350 . S
C551 H538 0.929 . S
C551 C543 1.433 . S
C551 N553 1.384 . S
N552 C548 1.427 . S
N552 C549 1.384 . S
N553 C545 1.427 . S
N553 C551 1.384 . S
H554 C560 0.930 . S
H555 C564 0.930 . S
H556 C569 0.929 . S
H557 C567 0.929 . S
H558 C562 0.929 1_554 S
H559 C568 0.929 . S
C560 H554 0.930 . S
C560 C561 1.367 . S
C560 C568 1.378 . S
C561 C560 1.367 . S
C561 C569 1.433 . S
C562 H558 0.929 1_556 S
C562 C564 1.378 . S
C562 C566 1.350 1_556 S
C563 C566 1.463 . S
C563 C568 1.350 . S
C563 N571 1.427 . S
C564 H555 0.930 . S
C564 C562 1.378 . S
C564 C565 1.367 . S
C565 C564 1.367 . S
C565 C567 1.433 . S
C566 C562 1.350 1_554 S
C566 C563 1.463 . S
C566 N570 1.427 1_554 S
C567 H557 0.929 . S
C567 C565 1.433 . S
C567 N570 1.384 . S
C568 H559 0.929 . S
C568 C560 1.378 . S
C568 C563 1.350 . S
C569 H556 0.929 . S
C569 C561 1.433 . S
C569 N571 1.384 . S
N570 C566 1.427 1_556 S
N570 C567 1.384 . S
N571 C563 1.427 . S
N571 C569 1.384 . S
H572 C578 0.930 . S
H573 C582 0.930 . S
H574 C587 0.929 . S
H575 C585 0.929 . S
H576 C580 0.929 . S
H577 C586 0.929 . S
C578 H572 0.930 . S
C578 C579 1.367 . S
C578 C586 1.378 . S
C579 C578 1.367 . S
C579 C587 1.433 . S
C580 H576 0.929 . S
C580 C582 1.378 . S
C580 C584 1.350 . S
C581 C584 1.463 . S
C581 C586 1.350 . S
C581 N589 1.427 . S
C582 H573 0.930 . S
C582 C580 1.378 . S
C582 C583 1.367 . S
C583 C582 1.367 . S
C583 C585 1.433 . S
C584 C580 1.350 . S
C584 C581 1.463 . S
C584 N588 1.427 . S
C585 H575 0.929 . S
C585 C583 1.433 . S
C585 N588 1.384 . S
C586 H577 0.929 . S
C586 C578 1.378 . S
C586 C581 1.350 . S
C587 H574 0.929 . S
C587 C579 1.433 . S
C587 N589 1.384 . S
N588 C584 1.427 . S
N588 C585 1.384 . S
N589 C581 1.427 . S
N589 C587 1.384 . S
H590 C596 0.930 . S
H591 C600 0.930 . S
H592 C605 0.929 . S
H593 C603 0.929 . S
H594 C598 0.953 . S
H595 C604 0.929 . S
C596 H590 0.930 . S
C596 C597 1.367 . S
C596 C604 1.378 1_554 S
C597 C596 1.367 . S
C597 C605 1.433 . S
C598 H594 0.953 . S
C598 C600 1.378 . S
C598 C602 1.350 . S
C599 C602 1.463 . S
C599 C604 1.350 . S
C599 N607 1.427 1_556 S
C600 H591 0.930 . S
C600 C598 1.378 . S
C600 C601 1.367 . S
C601 C600 1.367 . S
C601 C603 1.433 . S
C602 C598 1.350 . S
C602 C599 1.463 . S
C602 N606 1.427 . S
C603 H593 0.929 . S
C603 C601 1.433 . S
C603 N606 1.384 . S
C604 H595 0.929 . S
C604 C596 1.378 1_556 S
C604 C599 1.350 . S
C605 H592 0.929 . S
C605 C597 1.433 . S
C605 N607 1.384 . S
N606 C602 1.427 . S
N606 C603 1.384 . S
N607 C599 1.427 1_554 S
N607 C605 1.384 . S
C183 C153 1.558 . S
C187 C10 1.537 . S
C201 C30 1.537 . S
C205 C169 1.559 . S
C219 C109 1.555 . S
C223 C54 1.541 . S
C237 C76 1.538 . S
C241 C131 1.560 . S
C255 C65 1.562 . S
C259 C98 1.540 . S
C273 C120 1.544 . S
C277 C87 1.563 . S
C291 C21 1.557 . S
C295 C142 1.546 . S
C309 C29 1.562 . S
C313 C172 1.541 . S
C327 C7 0.980 . S
C331 C95 0.980 . S
C345 C117 1.006 . S
C349 C37 1.006 . S
C363 C51 0.990 . S
C367 C139 0.990 . S
C381 C175 0.981 . S
C385 C73 0.981 . S
C399 C74 1.556 . S
C403 C8 1.552 . S
C417 C40 1.555 . S
C421 C52 1.551 . S
C435 C164 1.554 . S
C439 C96 1.550 . S
C453 C118 1.553 . S
C457 C140 1.556 . S
C471 C18 1.481 . S
C475 C59 1.503 . S
C489 C32 1.480 . S
C493 C81 1.502 . S
C507 C62 1.474 . S
C511 C15 1.512 . S
C525 C84 1.484 . S
C529 C43 1.505 . S
C543 C106 1.472 . S
C547 C147 1.501 . S
C561 C128 1.474 . S
C565 C161 1.501 . S
C579 C150 1.478 . S
C583 C103 1.501 . S
C597 C125 1.502 . S
C601 C162 1.470 . S
