# Generated by pormake.
# Topology snk, (6)-cn, num edge types: 1
# Building blocks:
#     Node 0, Type 0, BuildingBlock: CUKXOW_clean_sbu_0, # of connection points: 6
#     Node 1, Type 0, BuildingBlock: CUKXOW_clean_sbu_0, # of connection points: 6
#     Node 2, Type 0, BuildingBlock: CUKXOW_clean_sbu_0, # of connection points: 6
#     Node 3, Type 0, BuildingBlock: CUKXOW_clean_sbu_0, # of connection points: 6
#     Node 4, Type 0, BuildingBlock: CUKXOW_clean_sbu_0, # of connection points: 6
#     Node 5, Type 0, BuildingBlock: CUKXOW_clean_sbu_0, # of connection points: 6
#     Node 6, Type 0, BuildingBlock: CUKXOW_clean_sbu_0, # of connection points: 6
#     Node 7, Type 0, BuildingBlock: CUKXOW_clean_sbu_0, # of connection points: 6
#     Edge 8, Type (0, 0), BuildingBlock: KIFKEQ_clean_linker_1, # of connection points: 2
#     Edge 9, Type (0, 0), BuildingBlock: KIFKEQ_clean_linker_1, # of connection points: 2
#     Edge 10, Type (0, 0), BuildingBlock: KIFKEQ_clean_linker_1, # of connection points: 2
#     Edge 11, Type (0, 0), BuildingBlock: KIFKEQ_clean_linker_1, # of connection points: 2
#     Edge 12, Type (0, 0), BuildingBlock: KIFKEQ_clean_linker_1, # of connection points: 2
#     Edge 13, Type (0, 0), BuildingBlock: KIFKEQ_clean_linker_1, # of connection points: 2
#     Edge 14, Type (0, 0), BuildingBlock: KIFKEQ_clean_linker_1, # of connection points: 2
#     Edge 15, Type (0, 0), BuildingBlock: KIFKEQ_clean_linker_1, # of connection points: 2
#     Edge 16, Type (0, 0), BuildingBlock: KIFKEQ_clean_linker_1, # of connection points: 2
#     Edge 17, Type (0, 0), BuildingBlock: KIFKEQ_clean_linker_1, # of connection points: 2
#     Edge 18, Type (0, 0), BuildingBlock: KIFKEQ_clean_linker_1, # of connection points: 2
#     Edge 19, Type (0, 0), BuildingBlock: KIFKEQ_clean_linker_1, # of connection points: 2
#     Edge 20, Type (0, 0), BuildingBlock: KIFKEQ_clean_linker_1, # of connection points: 2
#     Edge 21, Type (0, 0), BuildingBlock: KIFKEQ_clean_linker_1, # of connection points: 2
#     Edge 22, Type (0, 0), BuildingBlock: KIFKEQ_clean_linker_1, # of connection points: 2
#     Edge 23, Type (0, 0), BuildingBlock: KIFKEQ_clean_linker_1, # of connection points: 2
#     Edge 24, Type (0, 0), BuildingBlock: KIFKEQ_clean_linker_1, # of connection points: 2
#     Edge 25, Type (0, 0), BuildingBlock: KIFKEQ_clean_linker_1, # of connection points: 2
#     Edge 26, Type (0, 0), BuildingBlock: KIFKEQ_clean_linker_1, # of connection points: 2
#     Edge 27, Type (0, 0), BuildingBlock: KIFKEQ_clean_linker_1, # of connection points: 2
#     Edge 28, Type (0, 0), BuildingBlock: KIFKEQ_clean_linker_1, # of connection points: 2
#     Edge 29, Type (0, 0), BuildingBlock: KIFKEQ_clean_linker_1, # of connection points: 2
#     Edge 30, Type (0, 0), BuildingBlock: KIFKEQ_clean_linker_1, # of connection points: 2
#     Edge 31, Type (0, 0), BuildingBlock: KIFKEQ_clean_linker_1, # of connection points: 2
# Relax obj value: 0.074
# Max RMSD: 0.180
# Mean RMSD: 0.129
data_MOF--net-snk--node1-CUKXOW_clean_sbu_0--edge1-KIFKEQ_clean_linker_1
_symmetry_space_group_name_H-M    P1
_symmetry_Int_Tables_number       1
_symmetry_cell_setting            triclinic
loop_
_symmetry_equiv_pos_as_xyz
'x, y, z'
_cell_length_a     46.821934
_cell_length_b     46.801989
_cell_length_c     14.759026
_cell_angle_alpha  100.23659
_cell_angle_beta   100.12374
_cell_angle_gamma 90.524549
loop_
_atom_site_label
_atom_site_type_symbol
_atom_site_fract_x
_atom_site_fract_y
_atom_site_fract_z
_atom_type_partial_charge
Tb0 Tb 0.02804 0.02501 0.56402 0.0
C1 C 0.04117 0.95905 0.57167 0.0
Tb2 Tb 0.97671 0.97965 0.53836 0.0
O3 O 0.0368 0.03588 0.71869 0.0
O4 O 0.00537 0.00545 0.64805 0.0
O5 O 0.05055 0.98442 0.55722 0.0
C6 C 0.93363 0.95043 0.57322 0.0
O7 O 0.01371 0.95347 0.57734 0.0
C8 C 0.9866 0.98779 0.37278 0.0
C9 C 0.96357 0.04541 0.52953 0.0
O10 O 0.9525 0.93914 0.52401 0.0
O11 O 0.93946 0.97786 0.60492 0.0
O12 O 0.96649 0.97015 0.38391 0.0
O13 O 0.99946 0.99913 0.45372 0.0
O14 O 0.95434 0.02028 0.54618 0.0
O15 O 0.99093 0.05075 0.52209 0.0
C16 C 0.0714 0.05431 0.53086 0.0
O17 O 0.05148 0.06579 0.57515 0.0
O18 O 0.06655 0.02659 0.50334 0.0
C19 C 0.01717 0.0176 0.7292 0.0
Tb20 Tb 0.22748 0.77522 0.79005 0.0
C21 C 0.29564 0.79485 0.84705 0.0
Tb22 Tb 0.27502 0.728 0.82279 0.0
O23 O 0.21657 0.78237 0.93238 0.0
O24 O 0.24763 0.75429 0.89801 0.0
O25 O 0.26892 0.80074 0.80703 0.0
C26 C 0.31168 0.69082 0.89357 0.0
O27 O 0.30209 0.76865 0.86719 0.0
C28 C 0.26639 0.73764 0.64678 0.0
C29 C 0.20696 0.7084 0.76764 0.0
O30 O 0.31329 0.71885 0.92138 0.0
O31 O 0.28924 0.68388 0.82747 0.0
O32 O 0.28439 0.71928 0.67858 0.0
O33 O 0.2551 0.74916 0.71506 0.0
O34 O 0.23363 0.7028 0.80888 0.0
O35 O 0.20052 0.73442 0.7457 0.0
C36 C 0.19139 0.81279 0.71886 0.0
O37 O 0.19065 0.78497 0.68701 0.0
O38 O 0.21265 0.8193 0.78935 0.0
C39 C 0.23525 0.76471 0.96497 0.0
Tb40 Tb 0.47773 0.02526 0.06645 0.0
C41 C 0.45818 0.95714 1.01014 0.0
Tb42 Tb 0.52494 0.97775 1.03315 0.0
O43 O 0.469 0.03464 0.92236 0.0
O44 O 0.49902 0.0055 0.95866 0.0
O45 O 0.45247 0.9838 0.0516 0.0
C46 C 0.56196 0.94128 0.96051 0.0
O47 O 0.48422 0.95078 0.98839 0.0
C48 C 0.51438 0.98542 0.20813 0.0
C49 C 0.54463 0.04586 0.09077 0.0
O50 O 0.53416 0.9408 0.92941 0.0
O51 O 0.5688 0.96252 1.03106 0.0
O52 O 0.53214 0.96683 0.17537 0.0
O53 O 0.50387 0.99775 0.14127 0.0
O54 O 0.55053 0.01914 0.0505 0.0
O55 O 0.51842 0.05232 0.11091 0.0
C56 C 0.44081 0.06211 0.13823 0.0
O57 O 0.46881 0.06356 0.1657 0.0
O58 O 0.43373 0.0397 0.07191 0.0
C59 C 0.48743 0.01672 0.89043 0.0
Tb60 Tb 0.22962 0.22645 0.28645 0.0
C61 C 0.29551 0.21387 0.28014 0.0
Tb62 Tb 0.27454 0.27821 0.31274 0.0
O63 O 0.22054 0.21603 0.13206 0.0
O64 O 0.24902 0.2494 0.20214 0.0
O65 O 0.27041 0.2045 0.29645 0.0
C66 C 0.30363 0.3216 0.27893 0.0
O67 O 0.30066 0.24121 0.27202 0.0
C68 C 0.26714 0.26728 0.47768 0.0
C69 C 0.20859 0.29082 0.32097 0.0
O70 O 0.31512 0.302 0.32452 0.0
O71 O 0.276 0.31641 0.25056 0.0
O72 O 0.28523 0.28711 0.46727 0.0
O73 O 0.25514 0.25527 0.39654 0.0
O74 O 0.23394 0.30063 0.30776 0.0
O75 O 0.20315 0.2632 0.32517 0.0
C76 C 0.20014 0.18315 0.31909 0.0
O77 O 0.18902 0.20234 0.27109 0.0
O78 O 0.22756 0.18881 0.35102 0.0
C79 C 0.23795 0.23636 0.12114 0.0
Tb80 Tb 0.72778 0.27492 0.27899 0.0
C81 C 0.79581 0.29469 0.33536 0.0
Tb82 Tb 0.77533 0.22771 0.31175 0.0
O83 O 0.71684 0.28201 0.42131 0.0
O84 O 0.7479 0.25394 0.38692 0.0
O85 O 0.76907 0.30048 0.29543 0.0
C86 C 0.81206 0.19068 0.38338 0.0
O87 O 0.80237 0.26849 0.35555 0.0
C88 C 0.76677 0.23738 0.13582 0.0
C89 C 0.70719 0.20816 0.25528 0.0
O90 O 0.81349 0.2187 0.41114 0.0
O91 O 0.78975 0.18365 0.31681 0.0
O92 O 0.78477 0.21903 0.16765 0.0
O93 O 0.75545 0.24889 0.20406 0.0
O94 O 0.73383 0.20244 0.29664 0.0
O95 O 0.70084 0.23422 0.23373 0.0
C96 C 0.69166 0.31247 0.2082 0.0
O97 O 0.69085 0.28466 0.17639 0.0
O98 O 0.713 0.319 0.2784 0.0
C99 C 0.73552 0.26434 0.45389 0.0
Tb100 Tb 0.72761 0.72547 0.77474 0.0
C101 C 0.79352 0.7133 0.76806 0.0
Tb102 Tb 0.77235 0.77734 0.80006 0.0
O103 O 0.7185 0.71486 0.62024 0.0
O104 O 0.74687 0.74834 0.6899 0.0
O105 O 0.76873 0.7039 0.78657 0.0
C106 C 0.80205 0.82088 0.76982 0.0
O107 O 0.79816 0.74044 0.75721 0.0
C108 C 0.7649 0.76651 0.96544 0.0
C109 C 0.70644 0.78984 0.80692 0.0
O110 O 0.8132 0.8008 0.81377 0.0
O111 O 0.7744 0.81605 0.74057 0.0
O112 O 0.78292 0.78634 0.95484 0.0
O113 O 0.753 0.7545 0.88428 0.0
O114 O 0.73159 0.79933 0.79132 0.0
O115 O 0.7012 0.7624 0.81386 0.0
C116 C 0.69852 0.68222 0.80931 0.0
O117 O 0.68707 0.70146 0.76206 0.0
O118 O 0.72604 0.68775 0.83912 0.0
C119 C 0.73582 0.73523 0.60902 0.0
Tb120 Tb 0.52777 0.52459 0.06142 0.0
C121 C 0.54092 0.45858 0.06724 0.0
Tb122 Tb 0.47651 0.47915 1.03531 0.0
O123 O 0.53669 0.53518 0.21604 0.0
O124 O 0.50523 0.50478 0.14533 0.0
O125 O 0.55021 0.48399 0.05284 0.0
C126 C 0.43332 0.44955 0.06799 0.0
O127 O 0.51354 0.45297 0.07372 0.0
C128 C 0.48622 0.48765 0.86992 0.0
C129 C 0.46337 0.54504 1.02916 0.0
O130 O 0.45255 0.43843 1.02001 0.0
O131 O 0.43891 0.477 0.09999 0.0
O132 O 0.46615 0.46995 0.88091 0.0
O133 O 0.49912 0.4989 0.95086 0.0
O134 O 0.45425 0.51984 1.0456 0.0
O135 O 0.49063 0.55039 1.02065 0.0
C136 C 0.5712 0.5541 1.02952 0.0
O137 O 0.55118 0.56546 0.07357 0.0
O138 O 0.56636 0.5264 1.00129 0.0
C139 C 0.5171 0.51686 0.22648 0.0
Tb140 Tb 0.97765 0.52564 0.56716 0.0
C141 C 0.95657 0.45873 0.50115 0.0
Tb142 Tb 0.02445 0.47774 0.53403 0.0
O143 O 0.96628 0.53256 0.42062 0.0
O144 O 0.99679 0.50378 0.45711 0.0
O145 O 0.95081 0.48501 0.54502 0.0
C146 C 0.05862 0.43777 0.46209 0.0
O147 O 0.98267 0.45281 0.4791 0.0
C148 C 0.017 0.4888 0.71249 0.0
C149 C 0.0461 0.54441 0.6026 0.0
O150 O 0.03889 0.4333 0.51013 0.0
O151 O 0.05905 0.46495 0.45333 0.0
O152 O 0.03503 0.47047 0.68026 0.0
O153 O 0.00528 0.49983 0.64402 0.0
O154 O 0.05233 0.51782 0.56242 0.0
O155 O 0.01955 0.55074 0.62028 0.0
C156 C 0.94308 0.56449 0.64287 0.0
O157 O 0.96679 0.57052 0.61478 0.0
O158 O 0.93895 0.53645 0.62949 0.0
C159 C 0.98446 0.51438 0.38835 0.0
H160 H 0.08072 0.11232 0.57186 0.0
H161 H 0.11389 0.03258 0.43943 0.0
H162 H 0.11548 0.14031 0.51412 0.0
H163 H 0.14886 0.06089 0.38199 0.0
H164 H 0.22134 0.14142 0.4144 0.0
H165 H 0.19254 0.10588 0.46759 0.0
H166 H 0.11401 0.13672 0.32166 0.0
H167 H 0.14253 0.1721 0.26816 0.0
C168 C 0.09577 0.10089 0.53174 0.0
C169 C 0.09464 0.07058 0.5083 0.0
C170 C 0.11544 0.11678 0.49889 0.0
C171 C 0.13406 0.10235 0.44317 0.0
C172 C 0.13434 0.07205 0.42482 0.0
C173 C 0.11447 0.05608 0.45725 0.0
C174 C 0.19796 0.14013 0.39256 0.0
C175 C 0.1838 0.15952 0.33915 0.0
C176 C 0.18172 0.11989 0.42238 0.0
C177 C 0.15147 0.11933 0.39901 0.0
C178 C 0.13748 0.13736 0.3405 0.0
C179 C 0.15367 0.15742 0.31028 0.0
H180 H 0.09953 0.96351 0.57355 0.0
H181 H 0.03206 0.9032 0.59857 0.0
H182 H 0.13555 0.92747 0.60018 0.0
H183 H 0.06848 0.86711 0.62622 0.0
H184 H 0.14061 0.80109 0.59207 0.0
H185 H 0.10376 0.83566 0.54942 0.0
H186 H 0.15703 0.90557 0.7344 0.0
H187 H 0.19365 0.87121 0.77619 0.0
C188 C 0.09228 0.94255 0.58451 0.0
C189 C 0.0628 0.9364 0.58445 0.0
C190 C 0.11304 0.92191 0.60016 0.0
C191 C 0.10493 0.89448 0.61587 0.0
C192 C 0.07539 0.88797 0.61361 0.0
C193 C 0.05455 0.90874 0.59834 0.0
C194 C 0.14446 0.8239 0.62272 0.0
C195 C 0.16997 0.83353 0.68722 0.0
C196 C 0.12332 0.84363 0.59892 0.0
C197 C 0.12747 0.87336 0.63854 0.0
C198 C 0.15329 0.8829 0.70174 0.0
C199 C 0.17424 0.86321 0.72596 0.0
H200 H 0.2918 0.85292 0.83057 0.0
H201 H 0.3542 0.79146 0.91732 0.0
H202 H 0.33013 0.8912 0.86894 0.0
H203 H 0.39244 0.82975 0.95668 0.0
H204 H 0.46128 0.89864 0.93745 0.0
H205 H 0.42292 0.86046 0.89814 0.0
H206 H 0.36201 0.92272 0.99102 0.0
H207 H 0.40035 0.96098 1.02934 0.0
C208 C 0.31366 0.84742 0.85789 0.0
C209 C 0.31949 0.81867 0.87029 0.0
C210 C 0.33582 0.86963 0.88074 0.0
C211 C 0.36488 0.86407 0.91646 0.0
C212 C 0.37069 0.83525 0.92843 0.0
C213 C 0.3485 0.81309 0.90616 0.0
C214 C 0.43975 0.90434 0.94977 0.0
C215 C 0.43434 0.93331 0.98706 0.0
C216 C 0.41756 0.88219 0.92752 0.0
C217 C 0.38886 0.888 0.94093 0.0
C218 C 0.38347 0.91703 0.97809 0.0
C219 C 0.40572 0.93915 1.00092 0.0
H220 H 0.38221 0.05925 0.08752 0.0
H221 H 0.45336 0.11447 0.25659 0.0
H222 H 0.34823 0.09649 0.12758 0.0
H223 H 0.41917 0.15194 0.2977 0.0
H224 H 0.35053 0.22245 0.24505 0.0
H225 H 0.38658 0.18582 0.21841 0.0
H226 H 0.32797 0.11999 0.26276 0.0
H227 H 0.29202 0.15614 0.28822 0.0
C228 C 0.39052 0.07928 0.13416 0.0
C229 C 0.42037 0.08398 0.16918 0.0
C230 C 0.37106 0.1006 0.15737 0.0
C231 C 0.381 0.12719 0.2159 0.0
C232 C 0.41089 0.13178 0.25179 0.0
C233 C 0.43041 0.11029 0.22893 0.0
C234 C 0.34539 0.20019 0.2495 0.0
C235 C 0.31823 0.19229 0.26807 0.0
C236 C 0.36612 0.17924 0.2348 0.0
C237 C 0.36004 0.14997 0.23789 0.0
C238 C 0.33316 0.14226 0.25847 0.0
C239 C 0.31257 0.16311 0.27344 0.0
H240 H 0.8923 0.97208 0.66999 0.0
H241 H 0.92202 0.89288 0.52183 0.0
H242 H 0.85609 0.94362 0.72165 0.0
H243 H 0.886 0.86474 0.57384 0.0
H244 H 0.85973 0.8311 0.82006 0.0
H245 H 0.8886 0.86674 0.76914 0.0
H246 H 0.81046 0.89941 0.62721 0.0
H247 H 0.78125 0.86356 0.67786 0.0
C248 C 0.8907 0.94869 0.64757 0.0
C249 C 0.90994 0.93432 0.59378 0.0
C250 C 0.87008 0.93266 0.67652 0.0
C251 C 0.86901 0.90241 0.65191 0.0
C252 C 0.88703 0.88822 0.59353 0.0
C253 C 0.90746 0.90419 0.56419 0.0
C254 C 0.84874 0.8462 0.77933 0.0
C255 C 0.81859 0.84457 0.75097 0.0
C256 C 0.86513 0.86641 0.75059 0.0
C257 C 0.85134 0.88507 0.69401 0.0
C258 C 0.8211 0.88491 0.67094 0.0
C259 C 0.80464 0.86451 0.69937 0.0
H260 H 0.97213 0.10048 0.49495 0.0
H261 H 0.90561 0.04155 0.53441 0.0
H262 H 0.93551 0.13638 0.46697 0.0
H263 H 0.86942 0.07739 0.50763 0.0
H264 H 0.8092 0.13199 0.33236 0.0
H265 H 0.84623 0.09792 0.37317 0.0
H266 H 0.90142 0.16887 0.54463 0.0
H267 H 0.86418 0.20313 0.50278 0.0
C268 C 0.94981 0.09521 0.49827 0.0
C269 C 0.94188 0.06798 0.51631 0.0
C270 C 0.92886 0.11587 0.48281 0.0
C271 C 0.89952 0.10968 0.48457 0.0
C272 C 0.89174 0.08269 0.5044 0.0
C273 C 0.91261 0.06216 0.52015 0.0
C274 C 0.82913 0.14029 0.37943 0.0
C275 C 0.83382 0.17017 0.41458 0.0
C276 C 0.85032 0.12076 0.4031 0.0
C277 C 0.8768 0.13066 0.46221 0.0
C278 C 0.88137 0.1606 0.49825 0.0
C279 C 0.86 0.18017 0.47495 0.0
H280 H 0.71089 0.15025 0.27395 0.0
H281 H 0.64878 0.21139 0.18297 0.0
H282 H 0.67256 0.11196 0.23544 0.0
H283 H 0.61054 0.17311 0.14348 0.0
H284 H 0.54135 0.10447 0.16182 0.0
H285 H 0.57972 0.14266 0.20167 0.0
H286 H 0.64101 0.08017 0.11316 0.0
H287 H 0.60266 0.04191 0.0743 0.0
C288 C 0.6891 0.15568 0.24569 0.0
C289 C 0.68334 0.18434 0.23213 0.0
C290 C 0.66693 0.13346 0.22275 0.0
C291 C 0.63795 0.13894 0.18579 0.0
C292 C 0.63223 0.16768 0.1727 0.0
C293 C 0.65442 0.18983 0.19506 0.0
C294 C 0.56297 0.09872 0.15059 0.0
C295 C 0.56848 0.06969 0.11435 0.0
C296 C 0.58517 0.12087 0.17316 0.0
C297 C 0.61397 0.115 0.16112 0.0
C298 C 0.61947 0.08591 0.12504 0.0
C299 C 0.59721 0.06379 0.1019 0.0
H300 H 0.65099 0.78089 0.83795 0.0
H301 H 0.71058 0.84801 0.80595 0.0
H302 H 0.61514 0.81754 0.86742 0.0
H303 H 0.67485 0.88418 0.83451 0.0
H304 H 0.62039 0.94297 1.01551 0.0
H305 H 0.65417 0.90585 0.97221 0.0
H306 H 0.58339 0.85301 0.79051 0.0
H307 H 0.5494 0.89038 0.83454 0.0
C308 C 0.65641 0.80333 0.83652 0.0
C309 C 0.6838 0.81144 0.8202 0.0
C310 C 0.6358 0.82429 0.85287 0.0
C311 C 0.64225 0.85377 0.85385 0.0
C312 C 0.66937 0.86172 0.83554 0.0
C313 C 0.68983 0.84086 0.81878 0.0
C314 C 0.61208 0.92355 0.96568 0.0
C315 C 0.58233 0.91955 0.92814 0.0
C316 C 0.63143 0.90231 0.94064 0.0
C317 C 0.62145 0.87649 0.87787 0.0
C318 C 0.59166 0.87258 0.83962 0.0
C319 C 0.57228 0.89402 0.86418 0.0
H320 H 0.5807 0.61209 0.0727 0.0
H321 H 0.61375 0.5326 0.93815 0.0
H322 H 0.61535 0.6403 1.01519 0.0
H323 H 0.64857 0.56111 0.88087 0.0
H324 H 0.7204 0.64058 0.90388 0.0
H325 H 0.69223 0.60568 0.96194 0.0
H326 H 0.6128 0.63711 0.82358 0.0
H327 H 0.64069 0.67184 0.76524 0.0
C328 C 0.59573 0.60076 1.03227 0.0
C329 C 0.59454 0.57047 1.00792 0.0
C330 C 0.61535 0.61678 0.99962 0.0
C331 C 0.63384 0.60247 0.94316 0.0
C332 C 0.63416 0.57218 0.92432 0.0
C333 C 0.61437 0.5561 0.9566 0.0
C334 C 0.69694 0.63957 0.8848 0.0
C335 C 0.68239 0.65891 0.83197 0.0
C336 C 0.68105 0.61972 0.91751 0.0
C337 C 0.65077 0.61951 0.89765 0.0
C338 C 0.63632 0.63753 0.83992 0.0
C339 C 0.65214 0.65719 0.80679 0.0
H340 H 0.64067 0.30072 0.0826 0.0
H341 H 0.69399 0.37087 0.26554 0.0
H342 H 0.60363 0.33525 1.04121 0.0
H343 H 0.65718 0.40518 0.22503 0.0
H344 H 0.59909 0.46306 0.06627 0.0
H345 H 0.63522 0.42702 0.09106 0.0
H346 H 0.56862 0.36661 0.12016 0.0
H347 H 0.53207 0.40272 0.09433 0.0
C348 C 0.64454 0.32353 0.11322 0.0
C349 C 0.67017 0.33318 0.17704 0.0
C350 C 0.62329 0.34323 0.09015 0.0
C351 C 0.62747 0.37294 0.12987 0.0
C352 C 0.65343 0.38252 0.19233 0.0
C353 C 0.67448 0.36286 0.21581 0.0
C354 C 0.59196 0.44209 0.07752 0.0
C355 C 0.56259 0.43592 0.07889 0.0
C356 C 0.61279 0.42144 0.09209 0.0
C357 C 0.60484 0.39402 0.10814 0.0
C358 C 0.57539 0.38749 0.10725 0.0
C359 C 0.55448 0.40825 0.09305 0.0
H360 H 0.96011 0.40065 0.42443 0.0
H361 H 0.89863 0.4618 0.51962 0.0
H362 H 0.92222 0.362 0.38436 0.0
H363 H 0.86074 0.42306 0.48045 0.0
H364 H 0.79124 0.3527 0.31971 0.0
H365 H 0.82908 0.39141 0.35785 0.0
H366 H 0.89241 0.33059 0.44353 0.0
H367 H 0.85459 0.29183 0.40446 0.0
C368 C 0.93854 0.40601 0.43705 0.0
C369 C 0.93283 0.43478 0.47557 0.0
C370 C 0.91663 0.38357 0.41446 0.0
C371 C 0.88794 0.3889 0.42876 0.0
C372 C 0.88222 0.41775 0.46685 0.0
C373 C 0.90419 0.44015 0.49006 0.0
C374 C 0.81322 0.34742 0.34652 0.0
C375 C 0.81946 0.3187 0.35846 0.0
C376 C 0.8351 0.36989 0.36924 0.0
C377 C 0.86429 0.36464 0.40434 0.0
C378 C 0.87052 0.33585 0.4158 0.0
C379 C 0.84859 0.31342 0.39369 0.0
H380 H 0.84071 0.71744 0.68399 0.0
H381 H 0.79865 0.66139 0.82825 0.0
H382 H 0.87733 0.6816 0.66039 0.0
H383 H 0.83589 0.62612 0.80852 0.0
H384 H 0.88702 0.55493 0.66076 0.0
H385 H 0.85156 0.59126 0.69508 0.0
H386 H 0.91783 0.65944 0.73185 0.0
H387 H 0.95274 0.62299 0.6929 0.0
C388 C 0.8395 0.69763 0.71176 0.0
C389 C 0.81667 0.69223 0.7575 0.0
C390 C 0.86063 0.67709 0.69879 0.0
C391 C 0.85968 0.65079 0.73241 0.0
C392 C 0.83711 0.64576 0.77993 0.0
C393 C 0.81579 0.66612 0.79176 0.0
C394 C 0.89398 0.57769 0.67704 0.0
C395 C 0.92253 0.5862 0.67389 0.0
C396 C 0.87371 0.59858 0.69717 0.0
C397 C 0.88167 0.62845 0.71584 0.0
C398 C 0.91065 0.63676 0.71583 0.0
C399 C 0.93077 0.61587 0.69442 0.0
H400 H 0.28194 0.36335 0.1843 0.0
H401 H 0.3615 0.33138 0.32142 0.0
H402 H 0.31032 0.39803 0.12583 0.0
H403 H 0.38956 0.36582 0.2626 0.0
H404 H 0.4223 0.39187 1.01704 0.0
H405 H 0.38646 0.36347 0.069 0.0
H406 H 0.35518 0.44224 0.21295 0.0
H407 H 0.39117 0.47092 0.16133 0.0
C408 C 0.30541 0.36414 0.20289 0.0
C409 C 0.31985 0.34472 0.25564 0.0
C410 C 0.32141 0.38382 0.16983 0.0
C411 C 0.35169 0.38376 0.18925 0.0
C412 C 0.36604 0.36558 0.24653 0.0
C413 C 0.35012 0.34611 0.28002 0.0
C414 C 0.40743 0.40308 0.05836 0.0
C415 C 0.40953 0.43325 0.08723 0.0
C416 C 0.38709 0.38697 0.08762 0.0
C417 C 0.36879 0.40107 0.14515 0.0
C418 C 0.36937 0.43134 0.16842 0.0
C419 C 0.38989 0.44751 0.13956 0.0
H420 H 0.40567 0.54121 1.03738 0.0
H421 H 0.47172 0.60023 0.99536 0.0
H422 H 0.36945 0.57721 1.01365 0.0
H423 H 0.43505 0.63628 0.97041 0.0
H424 H 0.36409 0.70307 1.01137 0.0
H425 H 0.40143 0.66866 0.051 0.0
H426 H 0.34567 0.59799 0.88045 0.0
H427 H 0.30855 0.63219 0.84191 0.0
C428 C 0.41256 0.56187 1.02319 0.0
C429 C 0.44169 0.56768 1.01771 0.0
C430 C 0.39167 0.5825 1.00921 0.0
C431 C 0.3993 0.60954 0.98955 0.0
C432 C 0.42852 0.61572 0.98618 0.0
C433 C 0.4495 0.59497 0.99989 0.0
C434 C 0.35981 0.68013 0.98333 0.0
C435 C 0.33345 0.67023 0.92384 0.0
C436 C 0.38123 0.66048 1.00533 0.0
C437 C 0.37653 0.63059 0.96883 0.0
C438 C 0.34987 0.62079 0.9107 0.0
C439 C 0.32862 0.64039 0.88834 0.0
H440 H 0.21125 0.65078 0.78838 0.0
H441 H 0.14842 0.71092 0.69467 0.0
H442 H 0.17339 0.61209 0.75096 0.0
H443 H 0.1106 0.67217 0.65618 0.0
H444 H 0.04217 0.60284 0.67449 0.0
H445 H 0.08008 0.64148 0.71472 0.0
H446 H 0.14239 0.57968 0.62953 0.0
H447 H 0.10451 0.54097 0.59033 0.0
C448 C 0.18939 0.6559 0.75973 0.0
C449 C 0.1833 0.68441 0.74508 0.0
C450 C 0.16749 0.63345 0.73742 0.0
C451 C 0.13844 0.63849 0.69996 0.0
C452 C 0.13236 0.66708 0.68581 0.0
C453 C 0.1543 0.68949 0.70758 0.0
C454 C 0.06394 0.59731 0.66437 0.0
C455 C 0.06987 0.56834 0.62886 0.0
C456 C 0.08586 0.61974 0.68703 0.0
C457 C 0.11479 0.61422 0.67577 0.0
C458 C 0.12073 0.58517 0.64078 0.0
C459 C 0.09875 0.56277 0.61756 0.0
H460 H 0.15074 0.27955 0.31615 0.0
H461 H 0.21435 0.35014 0.3541 0.0
H462 H 0.11327 0.31452 0.33894 0.0
H463 H 0.17723 0.38503 0.38046 0.0
H464 H 0.10019 0.44277 0.35574 0.0
H465 H 0.13517 0.40663 0.31208 0.0
H466 H 0.09824 0.34765 0.45939 0.0
H467 H 0.06285 0.3832 0.49915 0.0
C468 C 0.15677 0.30252 0.32982 0.0
C469 C 0.18559 0.31199 0.33358 0.0
C470 C 0.13529 0.32262 0.34331 0.0
C471 C 0.14214 0.35271 0.36198 0.0
C472 C 0.17095 0.36211 0.36473 0.0
C473 C 0.19235 0.34203 0.35028 0.0
C474 C 0.09947 0.42193 0.3777 0.0
C475 C 0.07888 0.41575 0.43075 0.0
C476 C 0.11961 0.40128 0.35339 0.0
C477 C 0.11968 0.37415 0.38239 0.0
C478 C 0.09864 0.368 0.4343 0.0
C479 C 0.07842 0.38849 0.45775 0.0
H480 H 0.98646 0.97245 0.77118 0.0
H481 H 0.03419 0.05316 0.89587 0.0
H482 H 0.98013 0.965 0.92671 0.0
H483 H 0.02675 0.04684 0.04984 0.0
H484 H 0.03284 0.01658 0.32901 0.0
H485 H 0.04012 0.02278 0.17329 0.0
H486 H 0.957 0.97855 0.05244 0.0
H487 H 0.95082 0.97116 0.2065 0.0
C488 C 0.99518 0.9888 0.83172 0.0
C489 C 0.0108 0.01336 0.82123 0.0
C490 C 0.99152 0.98468 0.92128 0.0
C491 C 0.00303 0.00525 1.00245 0.0
C492 C 0.01813 0.03006 0.99054 0.0
C493 C 0.02213 0.0339 0.90161 0.0
C494 C 0.01625 0.00822 0.26896 0.0
C495 C 0.99135 0.99332 0.28021 0.0
C496 C 0.02024 0.01188 0.17926 0.0
C497 C 0.99918 1.00113 0.09868 0.0
C498 C 0.97412 0.98661 0.11124 0.0
C499 C 0.9704 0.9826 0.20028 0.0
H500 H 0.28307 0.70346 0.49919 0.0
H501 H 0.23696 0.78124 0.56914 0.0
H502 H 0.27539 0.70889 0.33641 0.0
H503 H 0.23033 0.78783 0.40569 0.0
H504 H 0.20007 0.77924 0.09154 0.0
H505 H 0.20664 0.77277 0.25344 0.0
H506 H 0.28826 0.73271 0.22515 0.0
H507 H 0.28058 0.73803 0.06064 0.0
C508 C 0.27137 0.72195 0.47968 0.0
C509 C 0.26055 0.74187 0.54739 0.0
C510 C 0.2672 0.72527 0.38579 0.0
C511 C 0.25237 0.74894 0.35604 0.0
C512 C 0.24148 0.76898 0.42436 0.0
C513 C 0.24536 0.76538 0.51863 0.0
C514 C 0.21935 0.76883 0.1197 0.0
C515 C 0.23974 0.75903 0.06277 0.0
C516 C 0.22333 0.76539 0.21352 0.0
C517 C 0.24813 0.75237 0.25453 0.0
C518 C 0.26857 0.74244 0.19692 0.0
C519 C 0.26432 0.74554 0.10221 0.0
H520 H 0.53111 0.98742 0.81247 0.0
H521 H 0.45311 0.03314 0.74296 0.0
H522 H 0.53767 0.98076 0.64893 0.0
H523 H 0.45853 0.02542 0.58008 0.0
H524 H 0.48753 0.03066 0.30405 0.0
H525 H 0.48223 0.03837 0.46865 0.0
H526 H 0.52275 0.95696 0.49671 0.0
H527 H 0.52921 0.95037 0.33472 0.0
C528 C 0.51519 0.99572 0.76204 0.0
C529 C 0.49163 0.01082 0.79095 0.0
C530 C 0.51879 0.99183 0.66771 0.0
C531 C 0.49869 0.0026 0.59949 0.0
C532 C 0.47496 0.01732 0.62938 0.0
C533 C 0.47165 0.02152 0.72333 0.0
C534 C 0.49516 0.01446 0.34559 0.0
C535 C 0.50876 0.98993 0.30606 0.0
C536 C 0.49206 0.01872 0.44036 0.0
C537 C 0.50212 0.99835 0.49793 0.0
C538 C 0.51527 0.9736 0.45683 0.0
C539 C 0.5187 0.96961 0.36296 0.0
H540 H 0.222 0.20025 0.95512 0.0
H541 H 0.26607 0.28301 0.07734 0.0
H542 H 0.22924 0.20653 0.80102 0.0
H543 H 0.27212 0.29038 0.92157 0.0
H544 H 0.30254 0.28476 0.64415 0.0
H545 H 0.29639 0.27723 0.79818 0.0
H546 H 0.21514 0.22958 0.67543 0.0
H547 H 0.22241 0.23601 0.51978 0.0
C548 C 0.23312 0.22001 0.94884 0.0
C549 C 0.2435 0.24114 1.02867 0.0
C550 C 0.23703 0.22378 0.85979 0.0
C551 C 0.25111 0.24908 0.84716 0.0
C552 C 0.26155 0.27032 0.92764 0.0
C553 C 0.25799 0.26628 1.01736 0.0
C554 C 0.28344 0.27245 0.64998 0.0
C555 C 0.263 0.26087 0.5697 0.0
C556 C 0.27971 0.2684 0.73893 0.0
C557 C 0.25511 0.25299 0.75092 0.0
C558 C 0.23464 0.24122 0.66987 0.0
C559 C 0.23866 0.24494 0.58027 0.0
H560 H 0.78352 0.20323 0.9883 0.0
H561 H 0.73724 0.28092 0.05808 0.0
H562 H 0.77581 0.20863 0.82549 0.0
H563 H 0.73059 0.28747 0.8946 0.0
H564 H 0.70031 0.27881 0.58044 0.0
H565 H 0.70692 0.27236 0.74236 0.0
H566 H 0.7886 0.23245 0.71414 0.0
H567 H 0.78089 0.23774 0.54961 0.0
C568 C 0.77179 0.2217 0.96875 0.0
C569 C 0.76092 0.2416 1.03642 0.0
C570 C 0.76759 0.225 0.87483 0.0
C571 C 0.75271 0.24863 0.84503 0.0
C572 C 0.74179 0.26866 0.91332 0.0
C573 C 0.74568 0.26507 1.00761 0.0
C574 C 0.71962 0.26843 0.60862 0.0
C575 C 0.74002 0.25866 0.55169 0.0
C576 C 0.72361 0.26501 0.70246 0.0
C577 C 0.74844 0.25204 0.7435 0.0
C578 C 0.76889 0.24214 0.68589 0.0
C579 C 0.76463 0.24523 0.59116 0.0
H580 H 0.71996 0.69909 0.44286 0.0
H581 H 0.76374 0.78198 0.56526 0.0
H582 H 0.72721 0.70545 0.28878 0.0
H583 H 0.76978 0.78942 0.40955 0.0
H584 H 0.80014 0.78423 0.13217 0.0
H585 H 0.79404 0.77659 0.28614 0.0
H586 H 0.71312 0.72837 0.16301 0.0
H587 H 0.72036 0.73492 1.00745 0.0
C588 C 0.73102 0.71889 0.43661 0.0
C589 C 0.74132 0.74003 0.51649 0.0
C590 C 0.73493 0.72271 0.34757 0.0
C591 C 0.74893 0.74807 0.33498 0.0
C592 C 0.75929 0.76932 0.41554 0.0
C593 C 0.75572 0.76523 0.50523 0.0
C594 C 0.78112 0.77178 0.1379 0.0
C595 C 0.76078 0.76007 0.05751 0.0
C596 C 0.77741 0.76765 0.22683 0.0
C597 C 0.75292 0.75205 0.23874 0.0
C598 C 0.73255 0.74016 0.15757 0.0
C599 C 0.73655 0.74395 0.068 0.0
H600 H 0.53262 0.51615 0.82619 0.0
H601 H 0.45033 0.47126 0.70384 0.0
H602 H 0.54 0.52218 0.67039 0.0
H603 H 0.45661 0.47848 0.54972 0.0
H604 H 0.48624 0.47184 0.26858 0.0
H605 H 0.47982 0.46455 0.42422 0.0
H606 H 0.52668 0.54629 0.54692 0.0
H607 H 0.5342 0.55246 0.39291 0.0
C608 C 0.51599 0.50788 0.76616 0.0
C609 C 0.49098 0.49317 0.77743 0.0
C610 C 0.52004 0.51144 0.67644 0.0
C611 C 0.49893 0.50077 0.59592 0.0
C612 C 0.47376 0.48646 0.60852 0.0
C613 C 0.46999 0.48255 0.69757 0.0
C614 C 0.495 0.4882 0.32906 0.0
C615 C 0.51071 0.51268 0.31848 0.0
C616 C 0.49129 0.48417 0.41866 0.0
C617 C 0.50284 0.50477 0.49969 0.0
C618 C 0.51803 0.52951 0.48769 0.0
C619 C 0.52208 0.53325 0.39875 0.0
H620 H 0.9864 0.53171 0.80513 0.0
H621 H 0.03486 0.45544 0.8415 0.0
H622 H 0.97938 0.53804 0.96826 0.0
H623 H 0.02675 0.46053 1.00114 0.0
H624 H 0.03052 0.48909 0.31435 0.0
H625 H 0.03862 0.48436 0.15321 0.0
H626 H 0.956 0.52237 0.07682 0.0
H627 H 0.94899 0.52829 0.23828 0.0
C628 C 0.9953 0.51617 0.8477 0.0
C629 C 0.01126 0.49316 0.81026 0.0
C630 C 0.99117 0.51959 0.94144 0.0
C631 C 0.00255 0.49985 0.99982 0.0
C632 C 0.01817 0.4767 0.96078 0.0
C633 C 0.02262 0.47359 0.86817 0.0
C634 C 0.01409 0.4962 0.2628 0.0
C635 C 0.9891 0.50894 0.28932 0.0
C636 C 0.0186 0.49347 0.16974 0.0
C637 C 0.99801 0.503 0.1001 0.0
C638 C 0.97279 0.5153 0.12737 0.0
C639 C 0.96857 0.5184 0.22035 0.0
loop_
_geom_bond_atom_site_label_1
_geom_bond_atom_site_label_2
_geom_bond_distance
_geom_bond_site_symmetry_2
_ccdc_geom_bond_type
Tb0 O3 2.453 . S
Tb0 O4 2.596 1_445 S
Tb0 O5 2.374 1_545 S
Tb0 O13 2.343 . S
Tb0 O15 2.353 1_455 S
Tb0 O17 2.427 . S
Tb0 O18 2.513 . S
C1 O5 1.251 . S
C1 O7 1.263 . S
Tb2 O4 2.343 . S
Tb2 O7 2.353 1_655 S
Tb2 O10 2.427 . S
Tb2 O11 2.513 . S
Tb2 O12 2.453 . S
Tb2 O13 2.596 1_665 S
Tb2 O14 2.374 1_565 S
O3 Tb0 2.453 . S
O3 C19 1.249 . S
O4 Tb0 2.596 1_665 S
O4 Tb2 2.343 . S
O4 C19 1.258 1_665 S
O5 Tb0 2.374 1_565 S
O5 C1 1.251 . S
C6 O10 1.275 . S
C6 O11 1.246 . S
O7 C1 1.263 . S
O7 Tb2 2.353 1_455 S
C8 O12 1.244 . S
C8 O13 1.260 1_665 S
C9 O14 1.250 . S
C9 O15 1.263 . S
O10 Tb2 2.427 . S
O10 C6 1.275 . S
O11 Tb2 2.513 . S
O11 C6 1.246 . S
O12 Tb2 2.453 . S
O12 C8 1.244 . S
O13 Tb0 2.343 . S
O13 Tb2 2.596 1_445 S
O13 C8 1.260 1_445 S
O14 Tb2 2.374 1_545 S
O14 C9 1.250 . S
O15 Tb0 2.353 1_655 S
O15 C9 1.263 . S
C16 O17 1.275 . S
C16 O18 1.246 . S
O17 Tb0 2.427 . S
O17 C16 1.275 . S
O18 Tb0 2.513 . S
O18 C16 1.246 . S
C19 O3 1.249 . S
C19 O4 1.258 1_445 S
Tb20 O23 2.453 . S
Tb20 O24 2.596 . S
Tb20 O25 2.374 . S
Tb20 O33 2.343 . S
Tb20 O35 2.353 . S
Tb20 O37 2.427 . S
Tb20 O38 2.513 . S
C21 O25 1.251 . S
C21 O27 1.263 . S
Tb22 O24 2.343 . S
Tb22 O27 2.353 . S
Tb22 O30 2.427 . S
Tb22 O31 2.513 . S
Tb22 O32 2.453 . S
Tb22 O33 2.596 . S
Tb22 O34 2.374 . S
O23 Tb20 2.453 . S
O23 C39 1.245 . S
O24 Tb20 2.596 . S
O24 Tb22 2.343 . S
O24 C39 1.259 . S
O25 Tb20 2.374 . S
O25 C21 1.251 . S
C26 O30 1.275 . S
C26 O31 1.246 . S
O27 C21 1.263 . S
O27 Tb22 2.353 . S
C28 O32 1.245 . S
C28 O33 1.259 . S
C29 O34 1.250 . S
C29 O35 1.263 . S
O30 Tb22 2.427 . S
O30 C26 1.275 . S
O31 Tb22 2.513 . S
O31 C26 1.246 . S
O32 Tb22 2.453 . S
O32 C28 1.245 . S
O33 Tb20 2.343 . S
O33 Tb22 2.596 . S
O33 C28 1.259 . S
O34 Tb22 2.374 . S
O34 C29 1.250 . S
O35 Tb20 2.353 . S
O35 C29 1.263 . S
C36 O37 1.275 . S
C36 O38 1.246 . S
O37 Tb20 2.427 . S
O37 C36 1.275 . S
O38 Tb20 2.513 . S
O38 C36 1.246 . S
C39 O23 1.245 . S
C39 O24 1.259 . S
Tb40 O43 2.453 . S
Tb40 O44 2.596 1_545 S
Tb40 O45 2.374 1_545 S
Tb40 O53 2.343 1_556 S
Tb40 O55 2.353 1_556 S
Tb40 O57 2.427 1_556 S
Tb40 O58 2.513 1_556 S
C41 O45 1.251 . S
C41 O47 1.263 . S
Tb42 O44 2.343 1_554 S
Tb42 O47 2.353 1_554 S
Tb42 O50 2.427 1_554 S
Tb42 O51 2.513 1_554 S
Tb42 O52 2.453 . S
Tb42 O53 2.596 1_565 S
Tb42 O54 2.374 1_565 S
O43 Tb40 2.453 . S
O43 C59 1.245 1_545 S
O44 Tb40 2.596 1_565 S
O44 Tb42 2.343 1_556 S
O44 C59 1.259 . S
O45 Tb40 2.374 1_565 S
O45 C41 1.251 . S
C46 O50 1.275 . S
C46 O51 1.246 . S
O47 C41 1.263 . S
O47 Tb42 2.353 1_556 S
C48 O52 1.245 1_545 S
C48 O53 1.259 . S
C49 O54 1.250 . S
C49 O55 1.263 . S
O50 Tb42 2.427 1_556 S
O50 C46 1.275 . S
O51 Tb42 2.513 1_556 S
O51 C46 1.246 . S
O52 Tb42 2.453 . S
O52 C48 1.245 1_565 S
O53 Tb40 2.343 1_554 S
O53 Tb42 2.596 1_545 S
O53 C48 1.259 . S
O54 Tb42 2.374 1_545 S
O54 C49 1.250 . S
O55 Tb40 2.353 1_554 S
O55 C49 1.263 . S
C56 O57 1.275 . S
C56 O58 1.246 . S
O57 Tb40 2.427 1_554 S
O57 C56 1.275 . S
O58 Tb40 2.513 1_554 S
O58 C56 1.246 . S
C59 O43 1.245 1_565 S
C59 O44 1.259 . S
Tb60 O63 2.453 . S
Tb60 O64 2.596 . S
Tb60 O65 2.374 . S
Tb60 O73 2.343 . S
Tb60 O75 2.353 . S
Tb60 O77 2.427 . S
Tb60 O78 2.513 . S
C61 O65 1.251 . S
C61 O67 1.263 . S
Tb62 O64 2.343 . S
Tb62 O67 2.353 . S
Tb62 O70 2.427 . S
Tb62 O71 2.513 . S
Tb62 O72 2.453 . S
Tb62 O73 2.596 . S
Tb62 O74 2.374 . S
O63 Tb60 2.453 . S
O63 C79 1.245 . S
O64 Tb60 2.596 . S
O64 Tb62 2.343 . S
O64 C79 1.259 . S
O65 Tb60 2.374 . S
O65 C61 1.251 . S
C66 O70 1.275 . S
C66 O71 1.246 . S
O67 C61 1.263 . S
O67 Tb62 2.353 . S
C68 O72 1.245 . S
C68 O73 1.259 . S
C69 O74 1.250 . S
C69 O75 1.263 . S
O70 Tb62 2.427 . S
O70 C66 1.275 . S
O71 Tb62 2.513 . S
O71 C66 1.246 . S
O72 Tb62 2.453 . S
O72 C68 1.245 . S
O73 Tb60 2.343 . S
O73 Tb62 2.596 . S
O73 C68 1.259 . S
O74 Tb62 2.374 . S
O74 C69 1.250 . S
O75 Tb60 2.353 . S
O75 C69 1.263 . S
C76 O77 1.275 . S
C76 O78 1.246 . S
O77 Tb60 2.427 . S
O77 C76 1.275 . S
O78 Tb60 2.513 . S
O78 C76 1.246 . S
C79 O63 1.245 . S
C79 O64 1.259 . S
Tb80 O83 2.453 . S
Tb80 O84 2.596 . S
Tb80 O85 2.374 . S
Tb80 O93 2.343 . S
Tb80 O95 2.353 . S
Tb80 O97 2.427 . S
Tb80 O98 2.513 . S
C81 O85 1.251 . S
C81 O87 1.263 . S
Tb82 O84 2.343 . S
Tb82 O87 2.353 . S
Tb82 O90 2.427 . S
Tb82 O91 2.513 . S
Tb82 O92 2.453 . S
Tb82 O93 2.596 . S
Tb82 O94 2.374 . S
O83 Tb80 2.453 . S
O83 C99 1.245 . S
O84 Tb80 2.596 . S
O84 Tb82 2.343 . S
O84 C99 1.259 . S
O85 Tb80 2.374 . S
O85 C81 1.251 . S
C86 O90 1.275 . S
C86 O91 1.246 . S
O87 C81 1.263 . S
O87 Tb82 2.353 . S
C88 O92 1.245 . S
C88 O93 1.259 . S
C89 O94 1.250 . S
C89 O95 1.263 . S
O90 Tb82 2.427 . S
O90 C86 1.275 . S
O91 Tb82 2.513 . S
O91 C86 1.246 . S
O92 Tb82 2.453 . S
O92 C88 1.245 . S
O93 Tb80 2.343 . S
O93 Tb82 2.596 . S
O93 C88 1.259 . S
O94 Tb82 2.374 . S
O94 C89 1.250 . S
O95 Tb80 2.353 . S
O95 C89 1.263 . S
C96 O97 1.275 . S
C96 O98 1.246 . S
O97 Tb80 2.427 . S
O97 C96 1.275 . S
O98 Tb80 2.513 . S
O98 C96 1.246 . S
C99 O83 1.245 . S
C99 O84 1.259 . S
Tb100 O103 2.453 . S
Tb100 O104 2.596 . S
Tb100 O105 2.374 . S
Tb100 O113 2.343 . S
Tb100 O115 2.353 . S
Tb100 O117 2.427 . S
Tb100 O118 2.513 . S
C101 O105 1.251 . S
C101 O107 1.263 . S
Tb102 O104 2.343 . S
Tb102 O107 2.353 . S
Tb102 O110 2.427 . S
Tb102 O111 2.513 . S
Tb102 O112 2.453 . S
Tb102 O113 2.596 . S
Tb102 O114 2.374 . S
O103 Tb100 2.453 . S
O103 C119 1.245 . S
O104 Tb100 2.596 . S
O104 Tb102 2.343 . S
O104 C119 1.259 . S
O105 Tb100 2.374 . S
O105 C101 1.251 . S
C106 O110 1.275 . S
C106 O111 1.246 . S
O107 C101 1.263 . S
O107 Tb102 2.353 . S
C108 O112 1.245 . S
C108 O113 1.259 . S
C109 O114 1.250 . S
C109 O115 1.263 . S
O110 Tb102 2.427 . S
O110 C106 1.275 . S
O111 Tb102 2.513 . S
O111 C106 1.246 . S
O112 Tb102 2.453 . S
O112 C108 1.245 . S
O113 Tb100 2.343 . S
O113 Tb102 2.596 . S
O113 C108 1.259 . S
O114 Tb102 2.374 . S
O114 C109 1.250 . S
O115 Tb100 2.353 . S
O115 C109 1.263 . S
C116 O117 1.275 . S
C116 O118 1.246 . S
O117 Tb100 2.427 . S
O117 C116 1.275 . S
O118 Tb100 2.513 . S
O118 C116 1.246 . S
C119 O103 1.245 . S
C119 O104 1.259 . S
Tb120 O123 2.453 . S
Tb120 O124 2.596 . S
Tb120 O125 2.374 . S
Tb120 O133 2.343 1_554 S
Tb120 O135 2.353 . S
Tb120 O137 2.427 1_554 S
Tb120 O138 2.513 1_554 S
C121 O125 1.251 . S
C121 O127 1.263 1_554 S
Tb122 O124 2.343 1_556 S
Tb122 O127 2.353 . S
Tb122 O130 2.427 1_556 S
Tb122 O131 2.513 1_556 S
Tb122 O132 2.453 . S
Tb122 O133 2.596 . S
Tb122 O134 2.374 . S
O123 Tb120 2.453 . S
O123 C139 1.245 . S
O124 Tb120 2.596 . S
O124 Tb122 2.343 1_554 S
O124 C139 1.259 . S
O125 Tb120 2.374 . S
O125 C121 1.251 . S
C126 O130 1.275 . S
C126 O131 1.246 . S
O127 C121 1.263 1_556 S
O127 Tb122 2.353 . S
C128 O132 1.245 . S
C128 O133 1.259 . S
C129 O134 1.250 . S
C129 O135 1.263 1_556 S
O130 Tb122 2.427 1_554 S
O130 C126 1.275 . S
O131 Tb122 2.513 1_554 S
O131 C126 1.246 . S
O132 Tb122 2.453 . S
O132 C128 1.245 . S
O133 Tb120 2.343 1_556 S
O133 Tb122 2.596 . S
O133 C128 1.259 . S
O134 Tb122 2.374 . S
O134 C129 1.250 . S
O135 Tb120 2.353 . S
O135 C129 1.263 1_554 S
C136 O137 1.275 . S
C136 O138 1.246 . S
O137 Tb120 2.427 1_556 S
O137 C136 1.275 . S
O138 Tb120 2.513 1_556 S
O138 C136 1.246 . S
C139 O123 1.245 . S
C139 O124 1.259 . S
Tb140 O143 2.453 . S
Tb140 O144 2.596 1_655 S
Tb140 O145 2.374 . S
Tb140 O153 2.343 . S
Tb140 O155 2.353 1_655 S
Tb140 O157 2.427 . S
Tb140 O158 2.513 . S
C141 O145 1.251 . S
C141 O147 1.263 . S
Tb142 O144 2.343 . S
Tb142 O147 2.353 1_455 S
Tb142 O150 2.427 . S
Tb142 O151 2.513 . S
Tb142 O152 2.453 . S
Tb142 O153 2.596 1_455 S
Tb142 O154 2.374 . S
O143 Tb140 2.453 . S
O143 C159 1.247 . S
O144 Tb140 2.596 1_455 S
O144 Tb142 2.343 . S
O144 C159 1.259 1_455 S
O145 Tb140 2.374 . S
O145 C141 1.251 . S
C146 O150 1.275 . S
C146 O151 1.246 . S
O147 C141 1.263 . S
O147 Tb142 2.353 1_655 S
C148 O152 1.252 . S
C148 O153 1.257 1_455 S
C149 O154 1.250 . S
C149 O155 1.263 . S
O150 Tb142 2.427 . S
O150 C146 1.275 . S
O151 Tb142 2.513 . S
O151 C146 1.246 . S
O152 Tb142 2.453 . S
O152 C148 1.252 . S
O153 Tb140 2.343 . S
O153 Tb142 2.596 1_655 S
O153 C148 1.257 1_655 S
O154 Tb142 2.374 . S
O154 C149 1.250 . S
O155 Tb140 2.353 1_455 S
O155 C149 1.263 . S
C156 O157 1.275 . S
C156 O158 1.246 . S
O157 Tb140 2.427 . S
O157 C156 1.275 . S
O158 Tb140 2.513 . S
O158 C156 1.246 . S
C159 O143 1.247 . S
C159 O144 1.259 1_655 S
H160 C168 0.950 . S
H161 C173 0.950 . S
H162 C170 0.950 . S
H163 C172 0.950 . S
H164 C174 0.950 . S
H165 C176 0.950 . S
H166 C178 0.950 . S
H167 C179 0.950 . S
C168 H160 0.950 . S
C168 C169 1.386 . S
C168 C170 1.391 . S
C169 C168 1.386 . S
C169 C173 1.393 . S
C170 H162 0.950 . S
C170 C168 1.391 . S
C170 C171 1.400 . S
C171 C170 1.400 . S
C171 C172 1.398 . S
C171 C177 1.491 . S
C172 H163 0.950 . S
C172 C171 1.398 . S
C172 C173 1.391 . S
C173 H161 0.950 . S
C173 C169 1.393 . S
C173 C172 1.391 . S
C174 H164 0.950 . S
C174 C175 1.386 . S
C174 C176 1.391 . S
C175 C174 1.386 . S
C175 C179 1.393 . S
C176 H165 0.950 . S
C176 C174 1.391 . S
C176 C177 1.400 . S
C177 C171 1.491 . S
C177 C176 1.400 . S
C177 C178 1.398 . S
C178 H166 0.950 . S
C178 C177 1.398 . S
C178 C179 1.391 . S
C179 H167 0.950 . S
C179 C175 1.393 . S
C179 C178 1.391 . S
H180 C188 0.950 . S
H181 C193 0.950 . S
H182 C190 0.950 . S
H183 C192 0.950 . S
H184 C194 0.950 . S
H185 C196 0.950 . S
H186 C198 0.950 . S
H187 C199 0.950 . S
C188 H180 0.950 . S
C188 C189 1.386 . S
C188 C190 1.391 . S
C189 C188 1.386 . S
C189 C193 1.393 . S
C190 H182 0.950 . S
C190 C188 1.391 . S
C190 C191 1.400 . S
C191 C190 1.400 . S
C191 C192 1.398 . S
C191 C197 1.491 . S
C192 H183 0.950 . S
C192 C191 1.398 . S
C192 C193 1.391 . S
C193 H181 0.950 . S
C193 C189 1.393 . S
C193 C192 1.391 . S
C194 H184 0.950 . S
C194 C195 1.386 . S
C194 C196 1.391 . S
C195 C194 1.386 . S
C195 C199 1.393 . S
C196 H185 0.950 . S
C196 C194 1.391 . S
C196 C197 1.400 . S
C197 C191 1.491 . S
C197 C196 1.400 . S
C197 C198 1.398 . S
C198 H186 0.950 . S
C198 C197 1.398 . S
C198 C199 1.391 . S
C199 H187 0.950 . S
C199 C195 1.393 . S
C199 C198 1.391 . S
H200 C208 0.950 . S
H201 C213 0.950 . S
H202 C210 0.950 . S
H203 C212 0.950 . S
H204 C214 0.950 . S
H205 C216 0.950 . S
H206 C218 0.950 . S
H207 C219 0.950 1_554 S
C208 H200 0.950 . S
C208 C209 1.386 . S
C208 C210 1.391 . S
C209 C208 1.386 . S
C209 C213 1.393 . S
C210 H202 0.950 . S
C210 C208 1.391 . S
C210 C211 1.400 . S
C211 C210 1.400 . S
C211 C212 1.398 . S
C211 C217 1.491 . S
C212 H203 0.950 . S
C212 C211 1.398 . S
C212 C213 1.391 . S
C213 H201 0.950 . S
C213 C209 1.393 . S
C213 C212 1.391 . S
C214 H204 0.950 . S
C214 C215 1.386 . S
C214 C216 1.391 . S
C215 C214 1.386 . S
C215 C219 1.393 . S
C216 H205 0.950 . S
C216 C214 1.391 . S
C216 C217 1.400 . S
C217 C211 1.491 . S
C217 C216 1.400 . S
C217 C218 1.398 . S
C218 H206 0.950 . S
C218 C217 1.398 . S
C218 C219 1.391 . S
C219 H207 0.950 1_556 S
C219 C215 1.393 . S
C219 C218 1.391 . S
H220 C228 0.950 . S
H221 C233 0.950 . S
H222 C230 0.950 . S
H223 C232 0.950 . S
H224 C234 0.950 . S
H225 C236 0.950 . S
H226 C238 0.950 . S
H227 C239 0.950 . S
C228 H220 0.950 . S
C228 C229 1.386 . S
C228 C230 1.391 . S
C229 C228 1.386 . S
C229 C233 1.393 . S
C230 H222 0.950 . S
C230 C228 1.391 . S
C230 C231 1.400 . S
C231 C230 1.400 . S
C231 C232 1.398 . S
C231 C237 1.491 . S
C232 H223 0.950 . S
C232 C231 1.398 . S
C232 C233 1.391 . S
C233 H221 0.950 . S
C233 C229 1.393 . S
C233 C232 1.391 . S
C234 H224 0.950 . S
C234 C235 1.386 . S
C234 C236 1.391 . S
C235 C234 1.386 . S
C235 C239 1.393 . S
C236 H225 0.950 . S
C236 C234 1.391 . S
C236 C237 1.400 . S
C237 C231 1.491 . S
C237 C236 1.400 . S
C237 C238 1.398 . S
C238 H226 0.950 . S
C238 C237 1.398 . S
C238 C239 1.391 . S
C239 H227 0.950 . S
C239 C235 1.393 . S
C239 C238 1.391 . S
H240 C248 0.950 . S
H241 C253 0.950 . S
H242 C250 0.950 . S
H243 C252 0.950 . S
H244 C254 0.950 . S
H245 C256 0.950 . S
H246 C258 0.950 . S
H247 C259 0.950 . S
C248 H240 0.950 . S
C248 C249 1.386 . S
C248 C250 1.391 . S
C249 C248 1.386 . S
C249 C253 1.393 . S
C250 H242 0.950 . S
C250 C248 1.391 . S
C250 C251 1.400 . S
C251 C250 1.400 . S
C251 C252 1.398 . S
C251 C257 1.491 . S
C252 H243 0.950 . S
C252 C251 1.398 . S
C252 C253 1.391 . S
C253 H241 0.950 . S
C253 C249 1.393 . S
C253 C252 1.391 . S
C254 H244 0.950 . S
C254 C255 1.386 . S
C254 C256 1.391 . S
C255 C254 1.386 . S
C255 C259 1.393 . S
C256 H245 0.950 . S
C256 C254 1.391 . S
C256 C257 1.400 . S
C257 C251 1.491 . S
C257 C256 1.400 . S
C257 C258 1.398 . S
C258 H246 0.950 . S
C258 C257 1.398 . S
C258 C259 1.391 . S
C259 H247 0.950 . S
C259 C255 1.393 . S
C259 C258 1.391 . S
H260 C268 0.950 . S
H261 C273 0.950 . S
H262 C270 0.950 . S
H263 C272 0.950 . S
H264 C274 0.950 . S
H265 C276 0.950 . S
H266 C278 0.950 . S
H267 C279 0.950 . S
C268 H260 0.950 . S
C268 C269 1.386 . S
C268 C270 1.391 . S
C269 C268 1.386 . S
C269 C273 1.393 . S
C270 H262 0.950 . S
C270 C268 1.391 . S
C270 C271 1.400 . S
C271 C270 1.400 . S
C271 C272 1.398 . S
C271 C277 1.491 . S
C272 H263 0.950 . S
C272 C271 1.398 . S
C272 C273 1.391 . S
C273 H261 0.950 . S
C273 C269 1.393 . S
C273 C272 1.391 . S
C274 H264 0.950 . S
C274 C275 1.386 . S
C274 C276 1.391 . S
C275 C274 1.386 . S
C275 C279 1.393 . S
C276 H265 0.950 . S
C276 C274 1.391 . S
C276 C277 1.400 . S
C277 C271 1.491 . S
C277 C276 1.400 . S
C277 C278 1.398 . S
C278 H266 0.950 . S
C278 C277 1.398 . S
C278 C279 1.391 . S
C279 H267 0.950 . S
C279 C275 1.393 . S
C279 C278 1.391 . S
H280 C288 0.950 . S
H281 C293 0.950 . S
H282 C290 0.950 . S
H283 C292 0.950 . S
H284 C294 0.950 . S
H285 C296 0.950 . S
H286 C298 0.950 . S
H287 C299 0.950 . S
C288 H280 0.950 . S
C288 C289 1.386 . S
C288 C290 1.391 . S
C289 C288 1.386 . S
C289 C293 1.393 . S
C290 H282 0.950 . S
C290 C288 1.391 . S
C290 C291 1.400 . S
C291 C290 1.400 . S
C291 C292 1.398 . S
C291 C297 1.491 . S
C292 H283 0.950 . S
C292 C291 1.398 . S
C292 C293 1.391 . S
C293 H281 0.950 . S
C293 C289 1.393 . S
C293 C292 1.391 . S
C294 H284 0.950 . S
C294 C295 1.386 . S
C294 C296 1.391 . S
C295 C294 1.386 . S
C295 C299 1.393 . S
C296 H285 0.950 . S
C296 C294 1.391 . S
C296 C297 1.400 . S
C297 C291 1.491 . S
C297 C296 1.400 . S
C297 C298 1.398 . S
C298 H286 0.950 . S
C298 C297 1.398 . S
C298 C299 1.391 . S
C299 H287 0.950 . S
C299 C295 1.393 . S
C299 C298 1.391 . S
H300 C308 0.950 . S
H301 C313 0.950 . S
H302 C310 0.950 . S
H303 C312 0.950 . S
H304 C314 0.950 . S
H305 C316 0.950 . S
H306 C318 0.950 . S
H307 C319 0.950 . S
C308 H300 0.950 . S
C308 C309 1.386 . S
C308 C310 1.391 . S
C309 C308 1.386 . S
C309 C313 1.393 . S
C310 H302 0.950 . S
C310 C308 1.391 . S
C310 C311 1.400 . S
C311 C310 1.400 . S
C311 C312 1.398 . S
C311 C317 1.491 . S
C312 H303 0.950 . S
C312 C311 1.398 . S
C312 C313 1.391 . S
C313 H301 0.950 . S
C313 C309 1.393 . S
C313 C312 1.391 . S
C314 H304 0.950 . S
C314 C315 1.386 . S
C314 C316 1.391 . S
C315 C314 1.386 . S
C315 C319 1.393 . S
C316 H305 0.950 . S
C316 C314 1.391 . S
C316 C317 1.400 . S
C317 C311 1.491 . S
C317 C316 1.400 . S
C317 C318 1.398 . S
C318 H306 0.950 . S
C318 C317 1.398 . S
C318 C319 1.391 . S
C319 H307 0.950 . S
C319 C315 1.393 . S
C319 C318 1.391 . S
H320 C328 0.950 . S
H321 C333 0.950 . S
H322 C330 0.950 . S
H323 C332 0.950 . S
H324 C334 0.950 . S
H325 C336 0.950 . S
H326 C338 0.950 . S
H327 C339 0.950 . S
C328 H320 0.950 . S
C328 C329 1.386 . S
C328 C330 1.391 . S
C329 C328 1.386 . S
C329 C333 1.393 . S
C330 H322 0.950 . S
C330 C328 1.391 . S
C330 C331 1.400 . S
C331 C330 1.400 . S
C331 C332 1.398 . S
C331 C337 1.491 . S
C332 H323 0.950 . S
C332 C331 1.398 . S
C332 C333 1.391 . S
C333 H321 0.950 . S
C333 C329 1.393 . S
C333 C332 1.391 . S
C334 H324 0.950 . S
C334 C335 1.386 . S
C334 C336 1.391 . S
C335 C334 1.386 . S
C335 C339 1.393 . S
C336 H325 0.950 . S
C336 C334 1.391 . S
C336 C337 1.400 . S
C337 C331 1.491 . S
C337 C336 1.400 . S
C337 C338 1.398 . S
C338 H326 0.950 . S
C338 C337 1.398 . S
C338 C339 1.391 . S
C339 H327 0.950 . S
C339 C335 1.393 . S
C339 C338 1.391 . S
H340 C348 0.950 . S
H341 C353 0.950 1_556 S
H342 C350 0.950 . S
H343 C352 0.950 1_556 S
H344 C354 0.950 . S
H345 C356 0.950 1_556 S
H346 C358 0.950 . S
H347 C359 0.950 . S
C348 H340 0.950 . S
C348 C349 1.386 . S
C348 C350 1.391 . S
C349 C348 1.386 . S
C349 C353 1.393 . S
C350 H342 0.950 . S
C350 C348 1.391 . S
C350 C351 1.400 . S
C351 C350 1.400 . S
C351 C352 1.398 . S
C351 C357 1.491 . S
C352 H343 0.950 1_554 S
C352 C351 1.398 . S
C352 C353 1.391 . S
C353 H341 0.950 1_554 S
C353 C349 1.393 . S
C353 C352 1.391 . S
C354 H344 0.950 . S
C354 C355 1.386 1_556 S
C354 C356 1.391 1_556 S
C355 C354 1.386 1_554 S
C355 C359 1.393 . S
C356 H345 0.950 1_554 S
C356 C354 1.391 1_554 S
C356 C357 1.400 . S
C357 C351 1.491 . S
C357 C356 1.400 . S
C357 C358 1.398 . S
C358 H346 0.950 . S
C358 C357 1.398 . S
C358 C359 1.391 . S
C359 H347 0.950 . S
C359 C355 1.393 . S
C359 C358 1.391 . S
H360 C368 0.950 . S
H361 C373 0.950 . S
H362 C370 0.950 . S
H363 C372 0.950 . S
H364 C374 0.950 . S
H365 C376 0.950 . S
H366 C378 0.950 . S
H367 C379 0.950 . S
C368 H360 0.950 . S
C368 C369 1.386 . S
C368 C370 1.391 . S
C369 C368 1.386 . S
C369 C373 1.393 . S
C370 H362 0.950 . S
C370 C368 1.391 . S
C370 C371 1.400 . S
C371 C370 1.400 . S
C371 C372 1.398 . S
C371 C377 1.491 . S
C372 H363 0.950 . S
C372 C371 1.398 . S
C372 C373 1.391 . S
C373 H361 0.950 . S
C373 C369 1.393 . S
C373 C372 1.391 . S
C374 H364 0.950 . S
C374 C375 1.386 . S
C374 C376 1.391 . S
C375 C374 1.386 . S
C375 C379 1.393 . S
C376 H365 0.950 . S
C376 C374 1.391 . S
C376 C377 1.400 . S
C377 C371 1.491 . S
C377 C376 1.400 . S
C377 C378 1.398 . S
C378 H366 0.950 . S
C378 C377 1.398 . S
C378 C379 1.391 . S
C379 H367 0.950 . S
C379 C375 1.393 . S
C379 C378 1.391 . S
H380 C388 0.950 . S
H381 C393 0.950 . S
H382 C390 0.950 . S
H383 C392 0.950 . S
H384 C394 0.950 . S
H385 C396 0.950 . S
H386 C398 0.950 . S
H387 C399 0.950 . S
C388 H380 0.950 . S
C388 C389 1.386 . S
C388 C390 1.391 . S
C389 C388 1.386 . S
C389 C393 1.393 . S
C390 H382 0.950 . S
C390 C388 1.391 . S
C390 C391 1.400 . S
C391 C390 1.400 . S
C391 C392 1.398 . S
C391 C397 1.491 . S
C392 H383 0.950 . S
C392 C391 1.398 . S
C392 C393 1.391 . S
C393 H381 0.950 . S
C393 C389 1.393 . S
C393 C392 1.391 . S
C394 H384 0.950 . S
C394 C395 1.386 . S
C394 C396 1.391 . S
C395 C394 1.386 . S
C395 C399 1.393 . S
C396 H385 0.950 . S
C396 C394 1.391 . S
C396 C397 1.400 . S
C397 C391 1.491 . S
C397 C396 1.400 . S
C397 C398 1.398 . S
C398 H386 0.950 . S
C398 C397 1.398 . S
C398 C399 1.391 . S
C399 H387 0.950 . S
C399 C395 1.393 . S
C399 C398 1.391 . S
H400 C408 0.950 . S
H401 C413 0.950 . S
H402 C410 0.950 . S
H403 C412 0.950 . S
H404 C414 0.950 . S
H405 C416 0.950 . S
H406 C418 0.952 . S
H407 C419 0.950 1_556 S
C408 H400 0.950 . S
C408 C409 1.386 . S
C408 C410 1.391 . S
C409 C408 1.386 . S
C409 C413 1.393 . S
C410 H402 0.950 . S
C410 C408 1.391 . S
C410 C411 1.400 . S
C411 C410 1.400 . S
C411 C412 1.398 . S
C411 C417 1.491 . S
C412 H403 0.950 . S
C412 C411 1.398 . S
C412 C413 1.391 . S
C413 H401 0.950 . S
C413 C409 1.393 . S
C413 C412 1.391 . S
C414 H404 0.950 . S
C414 C415 1.386 . S
C414 C416 1.391 . S
C415 C414 1.386 . S
C415 C419 1.393 . S
C416 H405 0.950 . S
C416 C414 1.391 . S
C416 C417 1.400 . S
C417 C411 1.491 . S
C417 C416 1.400 . S
C417 C418 1.398 . S
C418 H406 0.952 . S
C418 C417 1.398 . S
C418 C419 1.391 . S
C419 H407 0.950 1_554 S
C419 C415 1.393 . S
C419 C418 1.391 . S
H420 C428 0.950 1_554 S
H421 C433 0.950 . S
H422 C430 0.950 1_554 S
H423 C432 0.950 . S
H424 C434 0.950 . S
H425 C436 0.950 . S
H426 C438 0.950 1_554 S
H427 C439 0.950 . S
C428 H420 0.950 1_556 S
C428 C429 1.386 . S
C428 C430 1.391 . S
C429 C428 1.386 . S
C429 C433 1.393 . S
C430 H422 0.950 1_556 S
C430 C428 1.391 . S
C430 C431 1.400 . S
C431 C430 1.400 . S
C431 C432 1.398 . S
C431 C437 1.491 . S
C432 H423 0.950 . S
C432 C431 1.398 . S
C432 C433 1.391 . S
C433 H421 0.950 . S
C433 C429 1.393 . S
C433 C432 1.391 . S
C434 H424 0.950 . S
C434 C435 1.386 . S
C434 C436 1.391 . S
C435 C434 1.386 . S
C435 C439 1.393 . S
C436 H425 0.950 . S
C436 C434 1.391 . S
C436 C437 1.400 . S
C437 C431 1.491 . S
C437 C436 1.400 . S
C437 C438 1.398 . S
C438 H426 0.950 1_556 S
C438 C437 1.398 . S
C438 C439 1.391 . S
C439 H427 0.950 . S
C439 C435 1.393 . S
C439 C438 1.391 . S
H440 C448 0.950 . S
H441 C453 0.950 . S
H442 C450 0.950 . S
H443 C452 0.950 . S
H444 C454 0.950 . S
H445 C456 0.950 . S
H446 C458 0.950 . S
H447 C459 0.950 . S
C448 H440 0.950 . S
C448 C449 1.386 . S
C448 C450 1.391 . S
C449 C448 1.386 . S
C449 C453 1.393 . S
C450 H442 0.950 . S
C450 C448 1.391 . S
C450 C451 1.400 . S
C451 C450 1.400 . S
C451 C452 1.398 . S
C451 C457 1.491 . S
C452 H443 0.950 . S
C452 C451 1.398 . S
C452 C453 1.391 . S
C453 H441 0.950 . S
C453 C449 1.393 . S
C453 C452 1.391 . S
C454 H444 0.950 . S
C454 C455 1.386 . S
C454 C456 1.391 . S
C455 C454 1.386 . S
C455 C459 1.393 . S
C456 H445 0.950 . S
C456 C454 1.391 . S
C456 C457 1.400 . S
C457 C451 1.491 . S
C457 C456 1.400 . S
C457 C458 1.398 . S
C458 H446 0.950 . S
C458 C457 1.398 . S
C458 C459 1.391 . S
C459 H447 0.950 . S
C459 C455 1.393 . S
C459 C458 1.391 . S
H460 C468 0.950 . S
H461 C473 0.950 . S
H462 C470 0.950 . S
H463 C472 0.950 . S
H464 C474 0.950 . S
H465 C476 0.950 . S
H466 C478 0.950 . S
H467 C479 0.950 . S
C468 H460 0.950 . S
C468 C469 1.386 . S
C468 C470 1.391 . S
C469 C468 1.386 . S
C469 C473 1.393 . S
C470 H462 0.950 . S
C470 C468 1.391 . S
C470 C471 1.400 . S
C471 C470 1.400 . S
C471 C472 1.398 . S
C471 C477 1.491 . S
C472 H463 0.950 . S
C472 C471 1.398 . S
C472 C473 1.391 . S
C473 H461 0.950 . S
C473 C469 1.393 . S
C473 C472 1.391 . S
C474 H464 0.950 . S
C474 C475 1.386 . S
C474 C476 1.391 . S
C475 C474 1.386 . S
C475 C479 1.393 . S
C476 H465 0.950 . S
C476 C474 1.391 . S
C476 C477 1.400 . S
C477 C471 1.491 . S
C477 C476 1.400 . S
C477 C478 1.398 . S
C478 H466 0.950 . S
C478 C477 1.398 . S
C478 C479 1.391 . S
C479 H467 0.950 . S
C479 C475 1.393 . S
C479 C478 1.391 . S
H480 C488 0.950 . S
H481 C493 0.950 . S
H482 C490 0.950 . S
H483 C492 0.950 . S
H484 C494 0.950 . S
H485 C496 0.950 . S
H486 C498 0.950 . S
H487 C499 0.950 . S
C488 H480 0.950 . S
C488 C489 1.386 1_545 S
C488 C490 1.391 . S
C489 C488 1.386 1_565 S
C489 C493 1.393 1_655 S
C490 H482 0.950 . S
C490 C488 1.391 . S
C490 C491 1.419 1_545 S
C491 C490 1.419 1_565 S
C491 C492 1.378 1_655 S
C491 C497 1.499 1_666 S
C492 H483 0.950 . S
C492 C491 1.378 1_455 S
C492 C493 1.391 . S
C493 H481 0.950 . S
C493 C489 1.393 1_455 S
C493 C492 1.391 . S
C494 H484 0.950 . S
C494 C495 1.386 1_565 S
C494 C496 1.391 . S
C495 C494 1.386 1_545 S
C495 C499 1.393 1_455 S
C496 H485 0.950 . S
C496 C494 1.391 . S
C496 C497 1.426 1_565 S
C497 C491 1.499 1_444 S
C497 C496 1.426 1_545 S
C497 C498 1.370 1_455 S
C498 H486 0.950 . S
C498 C497 1.370 1_655 S
C498 C499 1.391 . S
C499 H487 0.950 . S
C499 C495 1.393 1_655 S
C499 C498 1.391 . S
H500 C508 0.950 . S
H501 C513 0.950 . S
H502 C510 0.950 . S
H503 C512 0.950 . S
H504 C514 0.950 . S
H505 C516 0.950 . S
H506 C518 0.950 . S
H507 C519 0.950 . S
C508 H500 0.950 . S
C508 C509 1.386 . S
C508 C510 1.391 . S
C509 C508 1.386 . S
C509 C513 1.393 . S
C510 H502 0.950 . S
C510 C508 1.391 . S
C510 C511 1.400 . S
C511 C510 1.400 . S
C511 C512 1.398 . S
C511 C517 1.491 . S
C512 H503 0.950 . S
C512 C511 1.398 . S
C512 C513 1.391 . S
C513 H501 0.950 . S
C513 C509 1.393 . S
C513 C512 1.391 . S
C514 H504 0.950 . S
C514 C515 1.386 . S
C514 C516 1.391 . S
C515 C514 1.386 . S
C515 C519 1.393 . S
C516 H505 0.950 . S
C516 C514 1.391 . S
C516 C517 1.400 . S
C517 C511 1.491 . S
C517 C516 1.400 . S
C517 C518 1.398 . S
C518 H506 0.950 . S
C518 C517 1.398 . S
C518 C519 1.391 . S
C519 H507 0.950 . S
C519 C515 1.393 . S
C519 C518 1.391 . S
H520 C528 0.950 . S
H521 C533 0.950 . S
H522 C530 0.950 . S
H523 C532 0.950 . S
H524 C534 0.950 . S
H525 C536 0.950 . S
H526 C538 0.950 . S
H527 C539 0.950 . S
C528 H520 0.950 . S
C528 C529 1.386 . S
C528 C530 1.391 . S
C529 C528 1.386 . S
C529 C533 1.393 1_565 S
C530 H522 0.950 . S
C530 C528 1.391 . S
C530 C531 1.400 . S
C531 C530 1.400 . S
C531 C532 1.398 1_565 S
C531 C537 1.491 1_565 S
C532 H523 0.950 . S
C532 C531 1.398 1_545 S
C532 C533 1.391 . S
C533 H521 0.950 . S
C533 C529 1.393 1_545 S
C533 C532 1.391 . S
C534 H524 0.950 . S
C534 C535 1.386 . S
C534 C536 1.391 . S
C535 C534 1.386 . S
C535 C539 1.393 1_545 S
C536 H525 0.950 . S
C536 C534 1.391 . S
C536 C537 1.400 . S
C537 C531 1.491 1_545 S
C537 C536 1.400 . S
C537 C538 1.398 1_545 S
C538 H526 0.950 . S
C538 C537 1.398 1_565 S
C538 C539 1.391 . S
C539 H527 0.950 . S
C539 C535 1.393 1_565 S
C539 C538 1.391 . S
H540 C548 0.950 . S
H541 C553 0.950 . S
H542 C550 0.950 . S
H543 C552 0.950 . S
H544 C554 0.950 . S
H545 C556 0.950 . S
H546 C558 0.950 . S
H547 C559 0.950 . S
C548 H540 0.950 . S
C548 C549 1.386 . S
C548 C550 1.391 . S
C549 C548 1.386 . S
C549 C553 1.393 . S
C550 H542 0.950 . S
C550 C548 1.391 . S
C550 C551 1.400 . S
C551 C550 1.400 . S
C551 C552 1.398 . S
C551 C557 1.491 . S
C552 H543 0.950 . S
C552 C551 1.398 . S
C552 C553 1.391 . S
C553 H541 0.950 . S
C553 C549 1.393 . S
C553 C552 1.391 . S
C554 H544 0.950 . S
C554 C555 1.386 . S
C554 C556 1.391 . S
C555 C554 1.386 . S
C555 C559 1.393 . S
C556 H545 0.950 . S
C556 C554 1.391 . S
C556 C557 1.400 . S
C557 C551 1.491 . S
C557 C556 1.400 . S
C557 C558 1.398 . S
C558 H546 0.950 . S
C558 C557 1.398 . S
C558 C559 1.391 . S
C559 H547 0.950 . S
C559 C555 1.393 . S
C559 C558 1.391 . S
H560 C568 0.950 . S
H561 C573 0.950 . S
H562 C570 0.950 . S
H563 C572 0.950 . S
H564 C574 0.950 . S
H565 C576 0.950 . S
H566 C578 0.950 . S
H567 C579 0.950 . S
C568 H560 0.950 . S
C568 C569 1.386 . S
C568 C570 1.391 . S
C569 C568 1.386 . S
C569 C573 1.393 . S
C570 H562 0.950 . S
C570 C568 1.391 . S
C570 C571 1.400 . S
C571 C570 1.400 . S
C571 C572 1.398 . S
C571 C577 1.491 . S
C572 H563 0.950 . S
C572 C571 1.398 . S
C572 C573 1.391 . S
C573 H561 0.950 . S
C573 C569 1.393 . S
C573 C572 1.391 . S
C574 H564 0.950 . S
C574 C575 1.386 . S
C574 C576 1.391 . S
C575 C574 1.386 . S
C575 C579 1.393 . S
C576 H565 0.950 . S
C576 C574 1.391 . S
C576 C577 1.400 . S
C577 C571 1.491 . S
C577 C576 1.400 . S
C577 C578 1.398 . S
C578 H566 0.950 . S
C578 C577 1.398 . S
C578 C579 1.391 . S
C579 H567 0.950 . S
C579 C575 1.393 . S
C579 C578 1.391 . S
H580 C588 0.950 . S
H581 C593 0.950 . S
H582 C590 0.950 . S
H583 C592 0.950 . S
H584 C594 0.950 . S
H585 C596 0.950 . S
H586 C598 0.950 . S
H587 C599 0.950 . S
C588 H580 0.950 . S
C588 C589 1.386 . S
C588 C590 1.391 . S
C589 C588 1.386 . S
C589 C593 1.393 . S
C590 H582 0.950 . S
C590 C588 1.391 . S
C590 C591 1.400 . S
C591 C590 1.400 . S
C591 C592 1.398 . S
C591 C597 1.491 . S
C592 H583 0.950 . S
C592 C591 1.398 . S
C592 C593 1.391 . S
C593 H581 0.950 . S
C593 C589 1.393 . S
C593 C592 1.391 . S
C594 H584 0.950 . S
C594 C595 1.386 . S
C594 C596 1.391 . S
C595 C594 1.386 . S
C595 C599 1.393 . S
C596 H585 0.950 . S
C596 C594 1.391 . S
C596 C597 1.400 . S
C597 C591 1.491 . S
C597 C596 1.400 . S
C597 C598 1.398 . S
C598 H586 0.950 . S
C598 C597 1.398 . S
C598 C599 1.391 . S
C599 H587 0.950 . S
C599 C595 1.393 . S
C599 C598 1.391 . S
H600 C608 0.950 . S
H601 C613 0.950 . S
H602 C610 0.950 . S
H603 C612 0.950 . S
H604 C614 0.950 . S
H605 C616 0.950 . S
H606 C618 0.950 . S
H607 C619 0.950 . S
C608 H600 0.950 . S
C608 C609 1.386 . S
C608 C610 1.391 . S
C609 C608 1.386 . S
C609 C613 1.393 . S
C610 H602 0.950 . S
C610 C608 1.391 . S
C610 C611 1.400 . S
C611 C610 1.400 . S
C611 C612 1.398 . S
C611 C617 1.491 . S
C612 H603 0.950 . S
C612 C611 1.398 . S
C612 C613 1.391 . S
C613 H601 0.950 . S
C613 C609 1.393 . S
C613 C612 1.391 . S
C614 H604 0.950 . S
C614 C615 1.386 . S
C614 C616 1.391 . S
C615 C614 1.386 . S
C615 C619 1.393 . S
C616 H605 0.950 . S
C616 C614 1.391 . S
C616 C617 1.400 . S
C617 C611 1.491 . S
C617 C616 1.400 . S
C617 C618 1.398 . S
C618 H606 0.950 . S
C618 C617 1.398 . S
C618 C619 1.391 . S
C619 H607 0.950 . S
C619 C615 1.393 . S
C619 C618 1.391 . S
H620 C628 0.950 . S
H621 C633 0.950 . S
H622 C630 0.950 . S
H623 C632 0.950 . S
H624 C634 0.950 . S
H625 C636 0.950 . S
H626 C638 0.950 . S
H627 C639 0.950 . S
C628 H620 0.950 . S
C628 C629 1.386 . S
C628 C630 1.391 . S
C629 C628 1.386 . S
C629 C633 1.393 1_655 S
C630 H622 0.950 . S
C630 C628 1.391 . S
C630 C631 1.411 . S
C631 C630 1.411 . S
C631 C632 1.387 1_655 S
C631 C637 1.495 1_656 S
C632 H623 0.950 . S
C632 C631 1.387 1_455 S
C632 C633 1.391 . S
C633 H621 0.950 . S
C633 C629 1.393 1_455 S
C633 C632 1.391 . S
C634 H624 0.950 . S
C634 C635 1.386 . S
C634 C636 1.391 . S
C635 C634 1.386 . S
C635 C639 1.393 1_455 S
C636 H625 0.950 . S
C636 C634 1.391 . S
C636 C637 1.420 . S
C637 C631 1.495 1_454 S
C637 C636 1.420 . S
C637 C638 1.376 1_455 S
C638 H626 0.950 . S
C638 C637 1.376 1_655 S
C638 C639 1.391 . S
C639 H627 0.950 . S
C639 C635 1.393 1_655 S
C639 C638 1.391 . S
C169 C16 1.183 . S
C175 C76 1.183 . S
C189 C1 1.542 . S
C195 C36 1.491 . S
C209 C21 1.842 . S
C215 C41 1.839 . S
C229 C56 1.496 . S
C235 C61 1.545 . S
C249 C6 1.188 . S
C255 C106 1.188 . S
C269 C9 1.539 . S
C275 C86 1.486 . S
C289 C89 1.828 . S
C295 C49 1.828 . S
C309 C109 1.549 . S
C315 C46 1.502 . S
C329 C136 1.190 . S
C335 C116 1.191 . S
C349 C96 1.486 . S
C355 C121 1.543 . S
C369 C141 1.828 . S
C375 C81 1.828 . S
C389 C101 1.538 . S
C395 C156 1.478 . S
C409 C66 1.190 . S
C415 C126 1.189 . S
C429 C129 1.541 . S
C435 C26 1.483 . S
C449 C29 1.829 . S
C455 C149 1.828 . S
C469 C69 1.551 . S
C475 C146 1.501 . S
C489 C19 1.919 1_665 S
C495 C8 1.921 1_445 S
C509 C28 1.936 . S
C515 C39 1.936 1_554 S
C529 C59 1.924 . S
C535 C48 1.924 . S
C549 C79 1.911 1_556 S
C555 C68 1.911 . S
C569 C88 1.939 1_556 S
C575 C99 1.939 . S
C589 C119 1.896 . S
C595 C108 1.896 1_554 S
C609 C128 1.898 . S
C615 C139 1.898 . S
C629 C148 1.913 1_655 S
C635 C159 1.916 1_455 S
