# Generated by pormake.
# Topology zfm, (5)-cn, num edge types: 1
# Building blocks:
#     Node 0, Type 0, BuildingBlock: BEQFEK_clean_sbu_0, # of connection points: 5
#     Node 1, Type 0, BuildingBlock: BEQFEK_clean_sbu_0, # of connection points: 5
#     Node 2, Type 0, BuildingBlock: BEQFEK_clean_sbu_0, # of connection points: 5
#     Node 3, Type 0, BuildingBlock: BEQFEK_clean_sbu_0, # of connection points: 5
#     Node 4, Type 0, BuildingBlock: BEQFEK_clean_sbu_0, # of connection points: 5
#     Node 5, Type 0, BuildingBlock: BEQFEK_clean_sbu_0, # of connection points: 5
#     Node 6, Type 0, BuildingBlock: BEQFEK_clean_sbu_0, # of connection points: 5
#     Node 7, Type 0, BuildingBlock: BEQFEK_clean_sbu_0, # of connection points: 5
#     Node 8, Type 0, BuildingBlock: BEQFEK_clean_sbu_0, # of connection points: 5
#     Node 9, Type 0, BuildingBlock: BEQFEK_clean_sbu_0, # of connection points: 5
#     Node 10, Type 0, BuildingBlock: BEQFEK_clean_sbu_0, # of connection points: 5
#     Node 11, Type 0, BuildingBlock: BEQFEK_clean_sbu_0, # of connection points: 5
#     Node 12, Type 0, BuildingBlock: BEQFEK_clean_sbu_0, # of connection points: 5
#     Node 13, Type 0, BuildingBlock: BEQFEK_clean_sbu_0, # of connection points: 5
#     Node 14, Type 0, BuildingBlock: BEQFEK_clean_sbu_0, # of connection points: 5
#     Node 15, Type 0, BuildingBlock: BEQFEK_clean_sbu_0, # of connection points: 5
#     Edge 16, Type (0, 0), None
#     Edge 17, Type (0, 0), None
#     Edge 18, Type (0, 0), None
#     Edge 19, Type (0, 0), None
#     Edge 20, Type (0, 0), None
#     Edge 21, Type (0, 0), None
#     Edge 22, Type (0, 0), None
#     Edge 23, Type (0, 0), None
#     Edge 24, Type (0, 0), None
#     Edge 25, Type (0, 0), None
#     Edge 26, Type (0, 0), None
#     Edge 27, Type (0, 0), None
#     Edge 28, Type (0, 0), None
#     Edge 29, Type (0, 0), None
#     Edge 30, Type (0, 0), None
#     Edge 31, Type (0, 0), None
#     Edge 32, Type (0, 0), None
#     Edge 33, Type (0, 0), None
#     Edge 34, Type (0, 0), None
#     Edge 35, Type (0, 0), None
#     Edge 36, Type (0, 0), None
#     Edge 37, Type (0, 0), None
#     Edge 38, Type (0, 0), None
#     Edge 39, Type (0, 0), None
#     Edge 40, Type (0, 0), None
#     Edge 41, Type (0, 0), None
#     Edge 42, Type (0, 0), None
#     Edge 43, Type (0, 0), None
#     Edge 44, Type (0, 0), None
#     Edge 45, Type (0, 0), None
#     Edge 46, Type (0, 0), None
#     Edge 47, Type (0, 0), None
#     Edge 48, Type (0, 0), None
#     Edge 49, Type (0, 0), None
#     Edge 50, Type (0, 0), None
#     Edge 51, Type (0, 0), None
#     Edge 52, Type (0, 0), None
#     Edge 53, Type (0, 0), None
#     Edge 54, Type (0, 0), None
#     Edge 55, Type (0, 0), None
# Relax obj value: 0.089
# Max RMSD: 0.184
# Mean RMSD: 0.184
data_MOF--net-zfm--node1-BEQFEK_clean_sbu_0--edge1-none
_symmetry_space_group_name_H-M    P1
_symmetry_Int_Tables_number       1
_symmetry_cell_setting            triclinic
loop_
_symmetry_equiv_pos_as_xyz
'x, y, z'
_cell_length_a     13.564352
_cell_length_b     13.564322
_cell_length_c     45.191403
_cell_angle_alpha  90.001169
_cell_angle_beta   89.99878
_cell_angle_gamma 90.000092
loop_
_atom_site_label
_atom_site_type_symbol
_atom_site_fract_x
_atom_site_fract_y
_atom_site_fract_z
_atom_type_partial_charge
Co0 Co 0.42036 0.09982 0.16281 0.0
Co1 Co 0.42076 0.06627 0.09377 0.0
C2 C 0.30489 0.93833 0.13144 0.0
O3 O 0.32895 0.98722 0.15447 0.0
O4 O 0.3533 0.94642 0.10747 0.0
C5 C 0.4017 0.07426 0.22626 0.0
O6 O 0.33502 0.00734 0.21997 0.0
C7 C 0.44129 0.994 0.03097 0.0
C8 C 0.52209 0.12089 0.01249 0.0
C9 C 0.48987 0.02683 0.00566 0.0
N10 N 0.44705 0.06467 0.05192 0.0
N11 N 0.49382 0.14074 0.04038 0.0
C12 C 0.39354 0.89578 0.03519 0.0
H13 H 0.3762 0.88134 0.05861 0.0
H14 H 0.44285 0.83726 0.02689 0.0
H15 H 0.32458 0.89294 0.022 0.0
C16 C 0.63582 0.11133 0.15237 0.0
N17 N 0.54225 0.10283 0.14251 0.0
N18 N 0.54323 0.0846 0.11403 0.0
C19 C 0.63776 0.07521 0.1051 0.0
C20 C 0.70074 0.09397 0.12907 0.0
C21 C 0.66235 0.12908 0.18406 0.0
H22 H 0.61752 0.19082 0.19289 0.0
H23 H 0.6452 0.06212 0.19719 0.0
H24 H 0.74159 0.14763 0.18654 0.0
O25 O 0.33514 0.20456 0.14969 0.0
O26 O 0.32075 0.1733 0.10143 0.0
H27 H 0.68058 0.0891 0.0597 0.0
H28 H 0.73072 0.98172 0.07743 0.0
C29 C 0.66527 0.02979 0.07593 0.0
H30 H 0.60473 0.98268 0.06774 0.0
H31 H 0.51114 0.20394 0.0524 0.0
O32 O 0.44501 0.12005 0.20556 0.0
C33 C 0.2933 0.21807 0.12484 0.0
Co34 Co 0.39958 0.42037 0.66281 0.0
Co35 Co 0.43314 0.42076 0.59377 0.0
C36 C 0.56108 0.3049 0.63144 0.0
O37 O 0.51219 0.32896 0.65446 0.0
O38 O 0.55299 0.3533 0.60747 0.0
C39 C 0.42512 0.40166 0.72625 0.0
O40 O 0.49196 0.33489 0.71997 0.0
C41 C 0.50538 0.44128 0.53097 0.0
C42 C 0.3785 0.5221 0.51249 0.0
C43 C 0.47256 0.48987 0.50566 0.0
N44 N 0.43472 0.44705 0.55192 0.0
N45 N 0.35866 0.49383 0.54038 0.0
C46 C 0.6036 0.39351 0.53518 0.0
H47 H 0.61804 0.37617 0.55861 0.0
H48 H 0.66213 0.4428 0.52688 0.0
H49 H 0.60641 0.32455 0.52199 0.0
C50 C 0.38806 0.63583 0.65236 0.0
N51 N 0.39657 0.54225 0.64251 0.0
N52 N 0.4148 0.54324 0.61403 0.0
C53 C 0.42418 0.63776 0.60509 0.0
C54 C 0.40541 0.70075 0.62907 0.0
C55 C 0.37029 0.66235 0.68405 0.0
H56 H 0.30855 0.61753 0.69289 0.0
H57 H 0.43725 0.64521 0.69719 0.0
H58 H 0.35174 0.7416 0.68654 0.0
O59 O 0.29485 0.33515 0.64969 0.0
O60 O 0.3261 0.32075 0.60142 0.0
H61 H 0.41029 0.6806 0.5597 0.0
H62 H 0.51767 0.73072 0.57743 0.0
C63 C 0.4696 0.66527 0.57593 0.0
H64 H 0.5167 0.60473 0.56773 0.0
H65 H 0.29547 0.51116 0.5524 0.0
O66 O 0.37939 0.44504 0.70556 0.0
C67 C 0.28134 0.29331 0.62484 0.0
Co68 Co 0.07901 0.39966 0.16281 0.0
Co69 Co 0.07862 0.4332 0.09377 0.0
C70 C 0.19449 0.56115 0.13144 0.0
O71 O 0.17042 0.51226 0.15446 0.0
O72 O 0.14609 0.55305 0.10747 0.0
C73 C 0.09777 0.42514 0.22626 0.0
O74 O 0.16467 0.49185 0.21997 0.0
C75 C 0.05809 0.50542 0.03097 0.0
C76 C 0.97733 0.3785 0.01249 0.0
C77 C 0.00952 0.47257 0.00566 0.0
N78 N 0.05234 0.43476 0.05193 0.0
N79 N 0.0056 0.35867 0.04038 0.0
C80 C 0.1058 0.60366 0.03519 0.0
H81 H 0.12312 0.61812 0.05861 0.0
H82 H 0.05647 0.66216 0.02689 0.0
H83 H 0.17477 0.60652 0.022 0.0
C84 C 0.86355 0.38813 0.15236 0.0
N85 N 0.95713 0.39664 0.14251 0.0
N86 N 0.95614 0.41487 0.11403 0.0
C87 C 0.86162 0.42424 0.10509 0.0
C88 C 0.79863 0.40548 0.12906 0.0
C89 C 0.83702 0.37035 0.18405 0.0
H90 H 0.88185 0.30862 0.19288 0.0
H91 H 0.85415 0.43731 0.19719 0.0
H92 H 0.75778 0.35179 0.18653 0.0
O93 O 0.16422 0.29491 0.1497 0.0
O94 O 0.17862 0.32616 0.10143 0.0
H95 H 0.81883 0.41033 0.05969 0.0
H96 H 0.76865 0.5177 0.07742 0.0
C97 C 0.83412 0.46965 0.07593 0.0
H98 H 0.89465 0.51678 0.06774 0.0
H99 H 0.9883 0.29548 0.0524 0.0
O100 O 0.05431 0.37949 0.20556 0.0
C101 C 0.20605 0.28138 0.12484 0.0
Co102 Co 0.09976 0.07902 0.66281 0.0
Co103 Co 0.0662 0.07862 0.59377 0.0
C104 C 0.93826 0.19449 0.63144 0.0
O105 O 0.98716 0.17043 0.65447 0.0
O106 O 0.94635 0.14609 0.60747 0.0
C107 C 0.07424 0.09772 0.72626 0.0
O108 O 0.00741 0.16449 0.71997 0.0
C109 C 0.99397 0.05809 0.53097 0.0
C110 C 0.12087 0.97729 0.51249 0.0
C111 C 0.02681 0.00951 0.50566 0.0
N112 N 0.06462 0.05233 0.55193 0.0
N113 N 0.1407 0.00555 0.54039 0.0
C114 C 0.89574 0.10584 0.53518 0.0
H115 H 0.88129 0.12317 0.55861 0.0
H116 H 0.83723 0.05654 0.52688 0.0
H117 H 0.89292 0.17481 0.522 0.0
C118 C 0.11126 0.86356 0.65236 0.0
N119 N 0.10276 0.95713 0.64251 0.0
N120 N 0.08452 0.95614 0.61403 0.0
C121 C 0.07514 0.86162 0.6051 0.0
C122 C 0.09389 0.79864 0.62907 0.0
C123 C 0.12903 0.83703 0.68406 0.0
H124 H 0.19076 0.88186 0.69289 0.0
H125 H 0.06206 0.85416 0.6972 0.0
H126 H 0.14758 0.75778 0.68653 0.0
O127 O 0.2045 0.16422 0.64969 0.0
O128 O 0.17324 0.17862 0.60143 0.0
H129 H 0.08902 0.8188 0.5597 0.0
H130 H 0.98165 0.76866 0.57743 0.0
C131 C 0.02972 0.83412 0.57593 0.0
H132 H 0.9826 0.89466 0.56774 0.0
H133 H 0.20388 0.98823 0.55241 0.0
O134 O 0.11997 0.05434 0.70556 0.0
C135 C 0.21802 0.20605 0.62484 0.0
Co136 Co 0.42037 0.39959 0.82054 0.0
Co137 Co 0.42076 0.43314 0.88958 0.0
C138 C 0.3049 0.56108 0.85191 0.0
O139 O 0.32897 0.51219 0.82889 0.0
O140 O 0.3533 0.55299 0.87588 0.0
C141 C 0.40165 0.42512 0.7571 0.0
O142 O 0.33485 0.49192 0.76338 0.0
C143 C 0.44127 0.50538 0.95238 0.0
C144 C 0.5221 0.3785 0.97086 0.0
C145 C 0.48987 0.47256 0.97769 0.0
N146 N 0.44705 0.43472 0.93143 0.0
N147 N 0.49383 0.35866 0.94297 0.0
C148 C 0.39351 0.6036 0.94817 0.0
H149 H 0.37616 0.61804 0.92475 0.0
H150 H 0.4428 0.66213 0.95647 0.0
H151 H 0.32454 0.60641 0.96136 0.0
C152 C 0.63583 0.38806 0.83099 0.0
N153 N 0.54225 0.39657 0.84084 0.0
N154 N 0.54324 0.4148 0.86932 0.0
C155 C 0.63776 0.42418 0.87826 0.0
C156 C 0.70075 0.40541 0.85429 0.0
C157 C 0.66236 0.37029 0.7993 0.0
H158 H 0.61753 0.30855 0.79046 0.0
H159 H 0.64521 0.43725 0.78616 0.0
H160 H 0.7416 0.35174 0.79681 0.0
O161 O 0.33515 0.29485 0.83366 0.0
O162 O 0.32075 0.3261 0.88192 0.0
H163 H 0.6806 0.41029 0.92365 0.0
H164 H 0.73072 0.51768 0.90592 0.0
C165 C 0.66527 0.4696 0.90742 0.0
H166 H 0.60473 0.5167 0.91562 0.0
H167 H 0.51117 0.29547 0.93095 0.0
O168 O 0.44504 0.3794 0.77779 0.0
C169 C 0.29331 0.28134 0.85851 0.0
Co170 Co 0.09983 0.42036 0.32054 0.0
Co171 Co 0.06627 0.42076 0.38958 0.0
C172 C 0.93833 0.3049 0.35191 0.0
O173 O 0.98722 0.32895 0.32888 0.0
O174 O 0.94642 0.3533 0.37588 0.0
C175 C 0.07426 0.40171 0.25709 0.0
O176 O 0.00733 0.33504 0.26338 0.0
C177 C 0.994 0.44129 0.45238 0.0
C178 C 0.12089 0.52209 0.47086 0.0
C179 C 0.02682 0.48987 0.47769 0.0
N180 N 0.06467 0.44705 0.43143 0.0
N181 N 0.14074 0.49383 0.44297 0.0
C182 C 0.89578 0.39354 0.44816 0.0
H183 H 0.88134 0.3762 0.42474 0.0
H184 H 0.83726 0.44284 0.45646 0.0
H185 H 0.89295 0.32457 0.46135 0.0
C186 C 0.11133 0.63583 0.33098 0.0
N187 N 0.10283 0.54225 0.34084 0.0
N188 N 0.0846 0.54324 0.36932 0.0
C189 C 0.07521 0.63776 0.37825 0.0
C190 C 0.09396 0.70075 0.35428 0.0
C191 C 0.12908 0.66235 0.29929 0.0
H192 H 0.19082 0.61753 0.29046 0.0
H193 H 0.06212 0.6452 0.28616 0.0
H194 H 0.14763 0.7416 0.29681 0.0
O195 O 0.20456 0.33515 0.33366 0.0
O196 O 0.1733 0.32076 0.38193 0.0
H197 H 0.0891 0.68058 0.42365 0.0
H198 H 0.98172 0.73073 0.40592 0.0
C199 C 0.02979 0.66527 0.40742 0.0
H200 H 0.98267 0.60473 0.41561 0.0
H201 H 0.20393 0.51115 0.43095 0.0
O202 O 0.12006 0.44501 0.27779 0.0
C203 C 0.21807 0.29331 0.35851 0.0
Co204 Co 0.07902 0.09975 0.82054 0.0
Co205 Co 0.07863 0.0662 0.88958 0.0
C206 C 0.1945 0.93826 0.85191 0.0
O207 O 0.17044 0.98716 0.82889 0.0
O208 O 0.14609 0.94635 0.87588 0.0
C209 C 0.09773 0.07424 0.75709 0.0
O210 O 0.16452 0.00743 0.76338 0.0
C211 C 0.0581 0.99397 0.95238 0.0
C212 C 0.9773 0.12087 0.97086 0.0
C213 C 0.00951 0.02681 0.97769 0.0
N214 N 0.05233 0.06463 0.93142 0.0
N215 N 0.00556 0.1407 0.94296 0.0
C216 C 0.10584 0.89574 0.94817 0.0
H217 H 0.12317 0.88129 0.92474 0.0
H218 H 0.05653 0.83723 0.95647 0.0
H219 H 0.17481 0.89292 0.96136 0.0
C220 C 0.86356 0.11126 0.83099 0.0
N221 N 0.95713 0.10275 0.84084 0.0
N222 N 0.95615 0.08452 0.86932 0.0
C223 C 0.86162 0.07514 0.87826 0.0
C224 C 0.79864 0.09389 0.85428 0.0
C225 C 0.83703 0.12902 0.7993 0.0
H226 H 0.88186 0.19076 0.79046 0.0
H227 H 0.85416 0.06206 0.78616 0.0
H228 H 0.75779 0.14758 0.79682 0.0
O229 O 0.16423 0.2045 0.83366 0.0
O230 O 0.17862 0.17324 0.88192 0.0
H231 H 0.81881 0.08903 0.92365 0.0
H232 H 0.76866 0.98165 0.90592 0.0
C233 C 0.83412 0.02972 0.90742 0.0
H234 H 0.89466 0.9826 0.91561 0.0
H235 H 0.98824 0.20389 0.93094 0.0
O236 O 0.05434 0.11995 0.77779 0.0
C237 C 0.20606 0.21802 0.85851 0.0
Co238 Co 0.39966 0.07901 0.32054 0.0
Co239 Co 0.4332 0.07863 0.38958 0.0
C240 C 0.56115 0.19449 0.35191 0.0
O241 O 0.51225 0.17042 0.32889 0.0
O242 O 0.55305 0.14609 0.37588 0.0
C243 C 0.42514 0.09777 0.2571 0.0
O244 O 0.49186 0.16465 0.26338 0.0
C245 C 0.50542 0.05809 0.45238 0.0
C246 C 0.3785 0.97733 0.47086 0.0
C247 C 0.47257 0.00952 0.47769 0.0
N248 N 0.43476 0.05234 0.43142 0.0
N249 N 0.35867 0.0056 0.44297 0.0
C250 C 0.60366 0.10579 0.44816 0.0
H251 H 0.61812 0.12311 0.42474 0.0
H252 H 0.66216 0.05647 0.45646 0.0
H253 H 0.60652 0.17476 0.46135 0.0
C254 C 0.38813 0.86355 0.33099 0.0
N255 N 0.39664 0.95713 0.34085 0.0
N256 N 0.41487 0.95615 0.36932 0.0
C257 C 0.42424 0.86162 0.37826 0.0
C258 C 0.40548 0.79863 0.35429 0.0
C259 C 0.37035 0.83702 0.2993 0.0
H260 H 0.30862 0.88185 0.29047 0.0
H261 H 0.43731 0.85415 0.28616 0.0
H262 H 0.35179 0.75778 0.29682 0.0
O263 O 0.29491 0.16423 0.33366 0.0
O264 O 0.32616 0.17862 0.38192 0.0
H265 H 0.41033 0.81883 0.42366 0.0
H266 H 0.5177 0.76865 0.40593 0.0
C267 C 0.46965 0.83412 0.40742 0.0
H268 H 0.51678 0.89465 0.41561 0.0
H269 H 0.29547 0.9883 0.43095 0.0
O270 O 0.37949 0.05431 0.27779 0.0
C271 C 0.28138 0.20606 0.35851 0.0
Co272 Co 0.57912 0.89958 0.82055 0.0
Co273 Co 0.57863 0.93313 0.8896 0.0
C274 C 0.69446 0.06115 0.85193 0.0
O275 O 0.67053 0.01219 0.82891 0.0
O276 O 0.64611 0.05298 0.87591 0.0
C277 C 0.59778 0.92507 0.75709 0.0
O278 O 0.66446 0.99202 0.76336 0.0
C279 C 0.55794 0.00543 0.95238 0.0
C280 C 0.47728 0.87847 0.97089 0.0
C281 C 0.50936 0.9726 0.9777 0.0
N282 N 0.55228 0.93473 0.93144 0.0
N283 N 0.50559 0.85862 0.943 0.0
C284 C 0.60556 0.10371 0.94816 0.0
H285 H 0.62279 0.11818 0.92473 0.0
H286 H 0.55623 0.16217 0.95648 0.0
H287 H 0.67459 0.1066 0.96132 0.0
C288 C 0.36364 0.88821 0.83097 0.0
N289 N 0.45721 0.89662 0.84084 0.0
N290 N 0.45619 0.91484 0.86933 0.0
C291 C 0.36166 0.92432 0.87825 0.0
C292 C 0.29875 0.90577 0.85425 0.0
C293 C 0.33714 0.87043 0.79928 0.0
H294 H 0.38196 0.80868 0.79045 0.0
H295 H 0.35429 0.93738 0.78614 0.0
H296 H 0.25789 0.85189 0.79679 0.0
O297 O 0.66427 0.79485 0.83368 0.0
O298 O 0.67863 0.82609 0.88195 0.0
H299 H 0.31901 0.91037 0.92366 0.0
H300 H 0.26859 0.01764 0.90594 0.0
C301 C 0.33415 0.9697 0.90742 0.0
H302 H 0.39464 0.01692 0.91559 0.0
H303 H 0.48838 0.79537 0.93099 0.0
O304 O 0.55449 0.87932 0.7778 0.0
C305 C 0.70609 0.78132 0.85854 0.0
Co306 Co 0.59978 0.57911 0.32055 0.0
Co307 Co 0.56624 0.57863 0.3896 0.0
C308 C 0.43821 0.69445 0.35194 0.0
O309 O 0.48717 0.67052 0.32891 0.0
O310 O 0.44639 0.6461 0.37591 0.0
C311 C 0.57431 0.59782 0.25709 0.0
O312 O 0.50746 0.66458 0.26337 0.0
C313 C 0.49395 0.55795 0.45239 0.0
C314 C 0.6209 0.47727 0.47088 0.0
C315 C 0.52678 0.50936 0.4777 0.0
N316 N 0.56465 0.55228 0.43144 0.0
N317 N 0.64076 0.50558 0.44299 0.0
C318 C 0.39568 0.6056 0.44817 0.0
H319 H 0.38121 0.62282 0.42474 0.0
H320 H 0.33721 0.55628 0.45648 0.0
H321 H 0.39281 0.67462 0.46133 0.0
C322 C 0.61118 0.36364 0.33097 0.0
N323 N 0.60276 0.4572 0.34085 0.0
N324 N 0.58453 0.45619 0.36933 0.0
C325 C 0.57507 0.36166 0.37825 0.0
C326 C 0.59362 0.29875 0.35426 0.0
C327 C 0.62897 0.33713 0.29928 0.0
H328 H 0.69071 0.38195 0.29045 0.0
H329 H 0.56202 0.35428 0.28614 0.0
H330 H 0.64751 0.25788 0.2968 0.0
O331 O 0.70452 0.66427 0.33369 0.0
O332 O 0.67328 0.67863 0.38196 0.0
H333 H 0.58901 0.31898 0.42366 0.0
H334 H 0.48174 0.26859 0.40594 0.0
C335 C 0.52968 0.33414 0.40742 0.0
H336 H 0.48247 0.39463 0.4156 0.0
H337 H 0.704 0.48836 0.43098 0.0
O338 O 0.62002 0.55447 0.27779 0.0
C339 C 0.71805 0.70609 0.35854 0.0
Co340 Co 0.92029 0.5997 0.82055 0.0
Co341 Co 0.92076 0.56618 0.8896 0.0
C342 C 0.80493 0.43815 0.85194 0.0
O343 O 0.82887 0.4871 0.82891 0.0
O344 O 0.85328 0.44633 0.87591 0.0
C345 C 0.90152 0.57429 0.75709 0.0
O346 O 0.83463 0.50756 0.76336 0.0
C347 C 0.94146 0.49391 0.95238 0.0
C348 C 0.02207 0.62091 0.97088 0.0
C349 C 0.99002 0.52677 0.9777 0.0
N350 N 0.9471 0.56461 0.93144 0.0
N351 N 0.99376 0.64074 0.94299 0.0
C352 C 0.89387 0.39562 0.94816 0.0
H353 H 0.87666 0.38113 0.92473 0.0
H354 H 0.94322 0.33718 0.95648 0.0
H355 H 0.82484 0.39271 0.96132 0.0
C356 C 0.13575 0.61111 0.83097 0.0
N357 N 0.04219 0.60268 0.84085 0.0
N358 N 0.0432 0.58447 0.86933 0.0
C359 C 0.13773 0.575 0.87825 0.0
C360 C 0.20064 0.59356 0.85426 0.0
C361 C 0.16227 0.62891 0.79928 0.0
H362 H 0.11744 0.69065 0.79046 0.0
H363 H 0.14513 0.56195 0.78614 0.0
H364 H 0.24151 0.64746 0.7968 0.0
O365 O 0.83513 0.70446 0.83368 0.0
O366 O 0.82077 0.67323 0.88195 0.0
H367 H 0.18035 0.58897 0.92366 0.0
H368 H 0.2308 0.48171 0.90594 0.0
C369 C 0.16524 0.52963 0.90742 0.0
H370 H 0.10475 0.4824 0.91559 0.0
H371 H 0.01095 0.70399 0.93098 0.0
O372 O 0.94496 0.61991 0.7778 0.0
C373 C 0.79333 0.718 0.85854 0.0
Co374 Co 0.89965 0.92027 0.32055 0.0
Co375 Co 0.9332 0.92076 0.3896 0.0
C376 C 0.06122 0.80493 0.35193 0.0
O377 O 0.01225 0.82885 0.32891 0.0
O378 O 0.05305 0.85328 0.37591 0.0
C379 C 0.92509 0.90157 0.25709 0.0
O380 O 0.99195 0.83481 0.26336 0.0
C381 C 0.00547 0.94145 0.45238 0.0
C382 C 0.87849 0.02211 0.47088 0.0
C383 C 0.97262 0.99003 0.4777 0.0
N384 N 0.93477 0.94712 0.43144 0.0
N385 N 0.85866 0.9938 0.44299 0.0
C386 C 0.10374 0.89382 0.44816 0.0
H387 H 0.11823 0.87661 0.42473 0.0
H388 H 0.1622 0.94315 0.45649 0.0
H389 H 0.10662 0.8248 0.46132 0.0
C390 C 0.88828 0.13575 0.33097 0.0
N391 N 0.89669 0.04218 0.34084 0.0
N392 N 0.91491 0.0432 0.36933 0.0
C393 C 0.92439 0.13773 0.37825 0.0
C394 C 0.90584 0.20064 0.35425 0.0
C395 C 0.87049 0.16226 0.29928 0.0
H396 H 0.80875 0.11743 0.29045 0.0
H397 H 0.93744 0.14512 0.28614 0.0
H398 H 0.85194 0.2415 0.2968 0.0
O399 O 0.7949 0.83513 0.33368 0.0
O400 O 0.82615 0.82077 0.38195 0.0
H401 H 0.91045 0.18038 0.42366 0.0
H402 H 0.01771 0.2308 0.40594 0.0
C403 C 0.96978 0.16524 0.40741 0.0
H404 H 0.017 0.10475 0.41559 0.0
H405 H 0.79542 0.01102 0.43098 0.0
O406 O 0.8794 0.94492 0.2778 0.0
C407 C 0.78137 0.79333 0.35854 0.0
Co408 Co 0.57911 0.59977 0.1628 0.0
Co409 Co 0.57863 0.56623 0.09375 0.0
C410 C 0.69445 0.43821 0.13141 0.0
O411 O 0.67052 0.48717 0.15444 0.0
O412 O 0.6461 0.44638 0.10744 0.0
C413 C 0.59783 0.57432 0.22626 0.0
O414 O 0.66463 0.50749 0.21998 0.0
C415 C 0.55795 0.49395 0.03096 0.0
C416 C 0.47727 0.6209 0.01247 0.0
C417 C 0.50935 0.52678 0.00565 0.0
N418 N 0.55228 0.56465 0.05191 0.0
N419 N 0.50558 0.64076 0.04036 0.0
C420 C 0.6056 0.39569 0.03518 0.0
H421 H 0.62283 0.38121 0.05861 0.0
H422 H 0.55629 0.33721 0.02686 0.0
H423 H 0.67462 0.39282 0.02202 0.0
C424 C 0.36364 0.61117 0.15238 0.0
N425 N 0.4572 0.60275 0.1425 0.0
N426 N 0.45619 0.58453 0.11402 0.0
C427 C 0.36166 0.57506 0.1051 0.0
C428 C 0.29875 0.59362 0.12909 0.0
C429 C 0.33713 0.62897 0.18407 0.0
H430 H 0.38195 0.69071 0.1929 0.0
H431 H 0.35428 0.56202 0.19721 0.0
H432 H 0.25788 0.64751 0.18655 0.0
O433 O 0.66427 0.70452 0.14967 0.0
O434 O 0.67863 0.67328 0.1014 0.0
H435 H 0.31898 0.58901 0.05969 0.0
H436 H 0.26859 0.48173 0.07741 0.0
C437 C 0.33414 0.52968 0.07593 0.0
H438 H 0.39463 0.48247 0.06775 0.0
H439 H 0.48836 0.70399 0.05237 0.0
O440 O 0.55446 0.62 0.20556 0.0
C441 C 0.70608 0.71804 0.12481 0.0
Co442 Co 0.89958 0.57912 0.6628 0.0
Co443 Co 0.93313 0.57862 0.59375 0.0
C444 C 0.06115 0.69446 0.63142 0.0
O445 O 0.01219 0.67053 0.65444 0.0
O446 O 0.05298 0.64611 0.60744 0.0
C447 C 0.92508 0.59777 0.72626 0.0
O448 O 0.99203 0.66444 0.71999 0.0
C449 C 0.00543 0.55794 0.53097 0.0
C450 C 0.87848 0.47728 0.51247 0.0
C451 C 0.9726 0.50935 0.50565 0.0
N452 N 0.93473 0.55227 0.55191 0.0
N453 N 0.85862 0.50559 0.54035 0.0
C454 C 0.10371 0.60557 0.53519 0.0
H455 H 0.11818 0.62279 0.55862 0.0
H456 H 0.16217 0.55624 0.52687 0.0
H457 H 0.10659 0.67459 0.52203 0.0
C458 C 0.88821 0.36364 0.65238 0.0
N459 N 0.89662 0.45721 0.64251 0.0
N460 N 0.91484 0.45619 0.61402 0.0
C461 C 0.92432 0.36166 0.6051 0.0
C462 C 0.90577 0.29875 0.6291 0.0
C463 C 0.87043 0.33713 0.68407 0.0
H464 H 0.80868 0.38195 0.6929 0.0
H465 H 0.93738 0.35429 0.69721 0.0
H466 H 0.85189 0.25789 0.68656 0.0
O467 O 0.79484 0.66427 0.64967 0.0
O468 O 0.82609 0.67863 0.6014 0.0
H469 H 0.91037 0.319 0.55969 0.0
H470 H 0.01764 0.26859 0.57741 0.0
C471 C 0.9697 0.33415 0.57594 0.0
H472 H 0.01692 0.39464 0.56776 0.0
H473 H 0.79537 0.48837 0.55236 0.0
O474 O 0.87931 0.55449 0.70556 0.0
C475 C 0.78132 0.70608 0.62481 0.0
Co476 Co 0.92027 0.89966 0.1628 0.0
Co477 Co 0.92076 0.9332 0.09375 0.0
C478 C 0.80492 0.06122 0.13142 0.0
O479 O 0.82885 0.01226 0.15444 0.0
O480 O 0.85327 0.05305 0.10744 0.0
C481 C 0.90156 0.9251 0.22626 0.0
O482 O 0.83477 0.99193 0.21999 0.0
C483 C 0.94145 0.00547 0.03097 0.0
C484 C 0.0221 0.87849 0.01247 0.0
C485 C 0.99003 0.97262 0.00565 0.0
N486 N 0.94711 0.93477 0.05191 0.0
N487 N 0.9938 0.85865 0.04036 0.0
C488 C 0.89383 0.10374 0.03519 0.0
H489 H 0.87661 0.11823 0.05862 0.0
H490 H 0.94316 0.1622 0.02686 0.0
H491 H 0.8248 0.10663 0.02203 0.0
C492 C 0.13575 0.88828 0.15238 0.0
N493 N 0.04218 0.89669 0.14251 0.0
N494 N 0.0432 0.91491 0.11402 0.0
C495 C 0.13772 0.92439 0.1051 0.0
C496 C 0.20064 0.90584 0.1291 0.0
C497 C 0.16226 0.87049 0.18407 0.0
H498 H 0.11743 0.80875 0.1929 0.0
H499 H 0.14512 0.93744 0.19721 0.0
H500 H 0.2415 0.85194 0.18655 0.0
O501 O 0.83513 0.7949 0.14967 0.0
O502 O 0.82076 0.82615 0.1014 0.0
H503 H 0.18038 0.91044 0.05969 0.0
H504 H 0.23079 0.01771 0.07741 0.0
C505 C 0.16524 0.96977 0.07594 0.0
H506 H 0.10475 0.01699 0.06776 0.0
H507 H 0.01101 0.79542 0.05237 0.0
O508 O 0.94492 0.87941 0.20555 0.0
C509 C 0.79332 0.78137 0.12481 0.0
Co510 Co 0.59971 0.92028 0.6628 0.0
Co511 Co 0.56618 0.92076 0.59375 0.0
C512 C 0.43815 0.80493 0.63142 0.0
O513 O 0.48711 0.82887 0.65444 0.0
O514 O 0.44633 0.85327 0.60744 0.0
C515 C 0.57429 0.90152 0.72626 0.0
O516 O 0.50755 0.83465 0.71999 0.0
C517 C 0.49391 0.94146 0.53097 0.0
C518 C 0.62091 0.02207 0.51247 0.0
C519 C 0.52677 0.99002 0.50565 0.0
N520 N 0.56461 0.9471 0.55191 0.0
N521 N 0.64074 0.99376 0.54036 0.0
C522 C 0.39562 0.89387 0.53519 0.0
H523 H 0.38113 0.87667 0.55862 0.0
H524 H 0.33718 0.94322 0.52687 0.0
H525 H 0.39271 0.82484 0.52203 0.0
C526 C 0.61111 0.13575 0.65238 0.0
N527 N 0.60269 0.04219 0.6425 0.0
N528 N 0.58447 0.0432 0.61402 0.0
C529 C 0.575 0.13773 0.6051 0.0
C530 C 0.59355 0.20064 0.62909 0.0
C531 C 0.6289 0.16227 0.68407 0.0
H532 H 0.69064 0.11744 0.69289 0.0
H533 H 0.56195 0.14514 0.69721 0.0
H534 H 0.64746 0.24151 0.68655 0.0
O535 O 0.70446 0.83513 0.64967 0.0
O536 O 0.67323 0.82077 0.6014 0.0
H537 H 0.58897 0.18035 0.55969 0.0
H538 H 0.48171 0.2308 0.57741 0.0
C539 C 0.52963 0.16524 0.57593 0.0
H540 H 0.4824 0.10475 0.56776 0.0
H541 H 0.70399 0.01095 0.55237 0.0
O542 O 0.61992 0.94495 0.70555 0.0
C543 C 0.718 0.79332 0.62481 0.0
loop_
_geom_bond_atom_site_label_1
_geom_bond_atom_site_label_2
_geom_bond_distance
_geom_bond_site_symmetry_2
_ccdc_geom_bond_type
Co0 O3 1.968 1_545 S
Co0 N17 1.989 . S
Co0 O25 1.967 . S
Co0 O32 1.920 . S
Co1 O4 1.966 . S
Co1 N10 2.022 . S
Co1 N18 1.993 . S
Co1 O26 1.941 . S
C2 O3 1.258 . S
C2 O4 1.263 1_565 S
O3 Co0 1.968 1_565 S
O3 C2 1.258 . S
O4 Co1 1.966 . S
O4 C2 1.263 1_545 S
C5 O6 1.235 1_545 S
C5 O32 1.289 . S
O6 C5 1.235 1_565 S
C7 C9 1.400 . S
C7 N10 1.351 . S
C7 C12 1.501 1_545 S
C8 C9 1.387 . S
C8 N11 1.341 . S
C9 C7 1.400 . S
C9 C8 1.387 . S
N10 Co1 2.022 . S
N10 C7 1.351 . S
N10 N11 1.365 . S
N11 C8 1.341 . S
N11 N10 1.365 . S
N11 H31 0.862 . S
C12 C7 1.501 1_565 S
C12 H13 0.961 . S
C12 H14 0.961 . S
C12 H15 0.960 . S
H13 C12 0.961 . S
H14 C12 0.961 . S
H15 C12 0.960 . S
C16 N17 1.342 . S
C16 C20 1.401 . S
C16 C21 1.499 . S
N17 Co0 1.989 . S
N17 C16 1.342 . S
N17 N18 1.388 . S
N18 Co1 1.993 . S
N18 N17 1.388 . S
N18 C19 1.346 . S
C19 N18 1.346 . S
C19 C20 1.396 . S
C19 C29 1.510 . S
C20 C16 1.401 . S
C20 C19 1.396 . S
C21 C16 1.499 . S
C21 H22 0.959 . S
C21 H23 0.960 . S
C21 H24 0.961 . S
H22 C21 0.959 . S
H23 C21 0.960 . S
H24 C21 0.961 . S
O25 Co0 1.967 . S
O25 C33 1.258 . S
O26 Co1 1.941 . S
O26 C33 1.266 . S
H27 C29 0.959 . S
H28 C29 0.961 1_565 S
C29 C19 1.510 . S
C29 H27 0.959 . S
C29 H28 0.961 1_545 S
C29 H30 0.960 . S
H30 C29 0.960 . S
H31 N11 0.862 . S
O32 Co0 1.920 . S
O32 C5 1.289 . S
C33 O25 1.258 . S
C33 O26 1.266 . S
Co34 O37 1.970 . S
Co34 N51 1.989 . S
Co34 O59 1.967 . S
Co34 O66 1.920 . S
Co35 O38 1.966 . S
Co35 N44 2.022 . S
Co35 N52 1.993 . S
Co35 O60 1.941 . S
C36 O37 1.258 . S
C36 O38 1.263 . S
O37 Co34 1.970 . S
O37 C36 1.258 . S
O38 Co35 1.966 . S
O38 C36 1.263 . S
C39 O40 1.235 . S
C39 O66 1.289 . S
O40 C39 1.235 . S
C41 C43 1.400 . S
C41 N44 1.351 . S
C41 C46 1.501 . S
C42 C43 1.387 . S
C42 N45 1.341 . S
C43 C41 1.400 . S
C43 C42 1.387 . S
N44 Co35 2.022 . S
N44 C41 1.351 . S
N44 N45 1.365 . S
N45 C42 1.341 . S
N45 N44 1.365 . S
N45 H65 0.862 . S
C46 C41 1.501 . S
C46 H47 0.961 . S
C46 H48 0.961 . S
C46 H49 0.960 . S
H47 C46 0.961 . S
H48 C46 0.961 . S
H49 C46 0.960 . S
C50 N51 1.342 . S
C50 C54 1.401 . S
C50 C55 1.499 . S
N51 Co34 1.989 . S
N51 C50 1.342 . S
N51 N52 1.388 . S
N52 Co35 1.993 . S
N52 N51 1.388 . S
N52 C53 1.346 . S
C53 N52 1.346 . S
C53 C54 1.396 . S
C53 C63 1.510 . S
C54 C50 1.401 . S
C54 C53 1.396 . S
C55 C50 1.499 . S
C55 H56 0.959 . S
C55 H57 0.960 . S
C55 H58 0.961 . S
H56 C55 0.959 . S
H57 C55 0.960 . S
H58 C55 0.961 . S
O59 Co34 1.967 . S
O59 C67 1.258 . S
O60 Co35 1.941 . S
O60 C67 1.266 . S
H61 C63 0.959 . S
H62 C63 0.961 . S
C63 C53 1.510 . S
C63 H61 0.959 . S
C63 H62 0.961 . S
C63 H64 0.960 . S
H64 C63 0.960 . S
H65 N45 0.862 . S
O66 Co34 1.920 . S
O66 C39 1.289 . S
C67 O59 1.258 . S
C67 O60 1.266 . S
Co68 O71 1.970 . S
Co68 N85 1.989 1_455 S
Co68 O93 1.967 . S
Co68 O100 1.920 . S
Co69 O72 1.966 . S
Co69 N78 2.022 . S
Co69 N86 1.993 1_455 S
Co69 O94 1.941 . S
C70 O71 1.258 . S
C70 O72 1.263 . S
O71 Co68 1.970 . S
O71 C70 1.258 . S
O72 Co69 1.966 . S
O72 C70 1.263 . S
C73 O74 1.235 . S
C73 O100 1.289 . S
O74 C73 1.235 . S
C75 C77 1.400 . S
C75 N78 1.351 . S
C75 C80 1.501 . S
C76 C77 1.387 1_655 S
C76 N79 1.341 1_655 S
C77 C75 1.400 . S
C77 C76 1.387 1_455 S
N78 Co69 2.022 . S
N78 C75 1.351 . S
N78 N79 1.365 . S
N79 C76 1.341 1_455 S
N79 N78 1.365 . S
N79 H99 0.862 1_455 S
C80 C75 1.501 . S
C80 H81 0.961 . S
C80 H82 0.961 . S
C80 H83 0.960 . S
H81 C80 0.961 . S
H82 C80 0.961 . S
H83 C80 0.960 . S
C84 N85 1.342 . S
C84 C88 1.401 . S
C84 C89 1.499 . S
N85 Co68 1.989 1_655 S
N85 C84 1.342 . S
N85 N86 1.388 . S
N86 Co69 1.993 1_655 S
N86 N85 1.388 . S
N86 C87 1.346 . S
C87 N86 1.346 . S
C87 C88 1.396 . S
C87 C97 1.510 . S
C88 C84 1.401 . S
C88 C87 1.396 . S
C89 C84 1.499 . S
C89 H90 0.959 . S
C89 H91 0.960 . S
C89 H92 0.961 . S
H90 C89 0.959 . S
H91 C89 0.960 . S
H92 C89 0.961 . S
O93 Co68 1.967 . S
O93 C101 1.258 . S
O94 Co69 1.941 . S
O94 C101 1.266 . S
H95 C97 0.959 . S
H96 C97 0.961 . S
C97 C87 1.510 . S
C97 H95 0.959 . S
C97 H96 0.961 . S
C97 H98 0.960 . S
H98 C97 0.960 . S
H99 N79 0.862 1_655 S
O100 Co68 1.920 . S
O100 C73 1.289 . S
C101 O93 1.258 . S
C101 O94 1.266 . S
Co102 O105 1.969 1_455 S
Co102 N119 1.989 1_545 S
Co102 O127 1.967 . S
Co102 O134 1.920 . S
Co103 O106 1.966 . S
Co103 N112 2.022 . S
Co103 N120 1.993 1_545 S
Co103 O128 1.941 . S
C104 O105 1.258 . S
C104 O106 1.263 1_655 S
O105 Co102 1.969 1_655 S
O105 C104 1.258 . S
O106 Co103 1.966 . S
O106 C104 1.263 1_455 S
C107 O108 1.235 1_455 S
C107 O134 1.289 . S
O108 C107 1.235 1_655 S
C109 C111 1.400 . S
C109 N112 1.351 . S
C109 C114 1.501 1_455 S
C110 C111 1.387 1_565 S
C110 N113 1.341 1_565 S
C111 C109 1.400 . S
C111 C110 1.387 1_545 S
N112 Co103 2.022 . S
N112 C109 1.351 . S
N112 N113 1.365 . S
N113 C110 1.341 1_545 S
N113 N112 1.365 . S
N113 H133 0.862 1_545 S
C114 C109 1.501 1_655 S
C114 H115 0.961 . S
C114 H116 0.961 . S
C114 H117 0.960 . S
H115 C114 0.961 . S
H116 C114 0.961 . S
H117 C114 0.960 . S
C118 N119 1.342 . S
C118 C122 1.401 . S
C118 C123 1.499 . S
N119 Co102 1.989 1_565 S
N119 C118 1.342 . S
N119 N120 1.388 . S
N120 Co103 1.993 1_565 S
N120 N119 1.388 . S
N120 C121 1.346 . S
C121 N120 1.346 . S
C121 C122 1.396 . S
C121 C131 1.510 . S
C122 C118 1.401 . S
C122 C121 1.396 . S
C123 C118 1.499 . S
C123 H124 0.959 . S
C123 H125 0.960 . S
C123 H126 0.961 . S
H124 C123 0.959 . S
H125 C123 0.960 . S
H126 C123 0.961 . S
O127 Co102 1.967 . S
O127 C135 1.258 . S
O128 Co103 1.941 . S
O128 C135 1.266 . S
H129 C131 0.959 . S
H130 C131 0.961 1_655 S
C131 C121 1.510 . S
C131 H129 0.959 . S
C131 H130 0.961 1_455 S
C131 H132 0.960 . S
H132 C131 0.960 . S
H133 N113 0.862 1_565 S
O134 Co102 1.920 . S
O134 C107 1.289 . S
C135 O127 1.258 . S
C135 O128 1.266 . S
Co136 O139 1.970 . S
Co136 N153 1.989 . S
Co136 O161 1.967 . S
Co136 O168 1.920 . S
Co137 O140 1.966 . S
Co137 N146 2.022 . S
Co137 N154 1.993 . S
Co137 O162 1.941 . S
C138 O139 1.258 . S
C138 O140 1.263 . S
O139 Co136 1.970 . S
O139 C138 1.258 . S
O140 Co137 1.966 . S
O140 C138 1.263 . S
C141 O142 1.235 . S
C141 O168 1.289 . S
O142 C141 1.235 . S
C143 C145 1.400 . S
C143 N146 1.351 . S
C143 C148 1.501 . S
C144 C145 1.387 . S
C144 N147 1.341 . S
C145 C143 1.400 . S
C145 C144 1.387 . S
N146 Co137 2.022 . S
N146 C143 1.351 . S
N146 N147 1.365 . S
N147 C144 1.341 . S
N147 N146 1.365 . S
N147 H167 0.862 . S
C148 C143 1.501 . S
C148 H149 0.961 . S
C148 H150 0.961 . S
C148 H151 0.960 . S
H149 C148 0.961 . S
H150 C148 0.961 . S
H151 C148 0.960 . S
C152 N153 1.342 . S
C152 C156 1.401 . S
C152 C157 1.499 . S
N153 Co136 1.989 . S
N153 C152 1.342 . S
N153 N154 1.388 . S
N154 Co137 1.993 . S
N154 N153 1.388 . S
N154 C155 1.346 . S
C155 N154 1.346 . S
C155 C156 1.396 . S
C155 C165 1.510 . S
C156 C152 1.401 . S
C156 C155 1.396 . S
C157 C152 1.499 . S
C157 H158 0.959 . S
C157 H159 0.960 . S
C157 H160 0.961 . S
H158 C157 0.959 . S
H159 C157 0.960 . S
H160 C157 0.961 . S
O161 Co136 1.967 . S
O161 C169 1.258 . S
O162 Co137 1.941 . S
O162 C169 1.266 . S
H163 C165 0.959 . S
H164 C165 0.961 . S
C165 C155 1.510 . S
C165 H163 0.959 . S
C165 H164 0.961 . S
C165 H166 0.960 . S
H166 C165 0.960 . S
H167 N147 0.862 . S
O168 Co136 1.920 . S
O168 C141 1.289 . S
C169 O161 1.258 . S
C169 O162 1.266 . S
Co170 O173 1.969 1_455 S
Co170 N187 1.989 . S
Co170 O195 1.967 . S
Co170 O202 1.920 . S
Co171 O174 1.966 . S
Co171 N180 2.022 . S
Co171 N188 1.993 . S
Co171 O196 1.941 . S
C172 O173 1.258 . S
C172 O174 1.263 1_655 S
O173 Co170 1.969 1_655 S
O173 C172 1.258 . S
O174 Co171 1.966 . S
O174 C172 1.263 1_455 S
C175 O176 1.235 1_455 S
C175 O202 1.289 . S
O176 C175 1.235 1_655 S
C177 C179 1.400 . S
C177 N180 1.351 . S
C177 C182 1.501 1_455 S
C178 C179 1.387 . S
C178 N181 1.341 . S
C179 C177 1.400 . S
C179 C178 1.387 . S
N180 Co171 2.022 . S
N180 C177 1.351 . S
N180 N181 1.365 . S
N181 C178 1.341 . S
N181 N180 1.365 . S
N181 H201 0.862 . S
C182 C177 1.501 1_655 S
C182 H183 0.961 . S
C182 H184 0.961 . S
C182 H185 0.960 . S
H183 C182 0.961 . S
H184 C182 0.961 . S
H185 C182 0.960 . S
C186 N187 1.342 . S
C186 C190 1.401 . S
C186 C191 1.499 . S
N187 Co170 1.989 . S
N187 C186 1.342 . S
N187 N188 1.388 . S
N188 Co171 1.993 . S
N188 N187 1.388 . S
N188 C189 1.346 . S
C189 N188 1.346 . S
C189 C190 1.396 . S
C189 C199 1.510 . S
C190 C186 1.401 . S
C190 C189 1.396 . S
C191 C186 1.499 . S
C191 H192 0.959 . S
C191 H193 0.960 . S
C191 H194 0.961 . S
H192 C191 0.959 . S
H193 C191 0.960 . S
H194 C191 0.961 . S
O195 Co170 1.967 . S
O195 C203 1.258 . S
O196 Co171 1.941 . S
O196 C203 1.266 . S
H197 C199 0.959 . S
H198 C199 0.961 1_655 S
C199 C189 1.510 . S
C199 H197 0.959 . S
C199 H198 0.961 1_455 S
C199 H200 0.960 . S
H200 C199 0.960 . S
H201 N181 0.862 . S
O202 Co170 1.920 . S
O202 C175 1.289 . S
C203 O195 1.258 . S
C203 O196 1.266 . S
Co204 O207 1.968 1_545 S
Co204 N221 1.989 1_455 S
Co204 O229 1.967 . S
Co204 O236 1.920 . S
Co205 O208 1.966 . S
Co205 N214 2.022 . S
Co205 N222 1.993 1_455 S
Co205 O230 1.941 . S
C206 O207 1.258 . S
C206 O208 1.263 1_565 S
O207 Co204 1.968 1_565 S
O207 C206 1.258 . S
O208 Co205 1.966 . S
O208 C206 1.263 1_545 S
C209 O210 1.235 1_545 S
C209 O236 1.289 . S
O210 C209 1.235 1_565 S
C211 C213 1.400 . S
C211 N214 1.351 . S
C211 C216 1.501 1_545 S
C212 C213 1.387 1_655 S
C212 N215 1.341 1_655 S
C213 C211 1.400 . S
C213 C212 1.387 1_455 S
N214 Co205 2.022 . S
N214 C211 1.351 . S
N214 N215 1.365 . S
N215 C212 1.341 1_455 S
N215 N214 1.365 . S
N215 H235 0.862 1_455 S
C216 C211 1.501 1_565 S
C216 H217 0.961 . S
C216 H218 0.961 . S
C216 H219 0.960 . S
H217 C216 0.961 . S
H218 C216 0.961 . S
H219 C216 0.960 . S
C220 N221 1.342 . S
C220 C224 1.401 . S
C220 C225 1.499 . S
N221 Co204 1.989 1_655 S
N221 C220 1.342 . S
N221 N222 1.388 . S
N222 Co205 1.993 1_655 S
N222 N221 1.388 . S
N222 C223 1.346 . S
C223 N222 1.346 . S
C223 C224 1.396 . S
C223 C233 1.510 . S
C224 C220 1.401 . S
C224 C223 1.396 . S
C225 C220 1.499 . S
C225 H226 0.959 . S
C225 H227 0.960 . S
C225 H228 0.961 . S
H226 C225 0.959 . S
H227 C225 0.960 . S
H228 C225 0.961 . S
O229 Co204 1.967 . S
O229 C237 1.258 . S
O230 Co205 1.941 . S
O230 C237 1.266 . S
H231 C233 0.959 . S
H232 C233 0.961 1_565 S
C233 C223 1.510 . S
C233 H231 0.959 . S
C233 H232 0.961 1_545 S
C233 H234 0.960 . S
H234 C233 0.960 . S
H235 N215 0.862 1_655 S
O236 Co204 1.920 . S
O236 C209 1.289 . S
C237 O229 1.258 . S
C237 O230 1.266 . S
Co238 O241 1.970 . S
Co238 N255 1.989 1_545 S
Co238 O263 1.967 . S
Co238 O270 1.920 . S
Co239 O242 1.966 . S
Co239 N248 2.022 . S
Co239 N256 1.993 1_545 S
Co239 O264 1.941 . S
C240 O241 1.258 . S
C240 O242 1.263 . S
O241 Co238 1.970 . S
O241 C240 1.258 . S
O242 Co239 1.966 . S
O242 C240 1.263 . S
C243 O244 1.235 . S
C243 O270 1.289 . S
O244 C243 1.235 . S
C245 C247 1.400 . S
C245 N248 1.351 . S
C245 C250 1.501 . S
C246 C247 1.387 1_565 S
C246 N249 1.341 1_565 S
C247 C245 1.400 . S
C247 C246 1.387 1_545 S
N248 Co239 2.022 . S
N248 C245 1.351 . S
N248 N249 1.365 . S
N249 C246 1.341 1_545 S
N249 N248 1.365 . S
N249 H269 0.862 1_545 S
C250 C245 1.501 . S
C250 H251 0.961 . S
C250 H252 0.961 . S
C250 H253 0.960 . S
H251 C250 0.961 . S
H252 C250 0.961 . S
H253 C250 0.960 . S
C254 N255 1.342 . S
C254 C258 1.401 . S
C254 C259 1.499 . S
N255 Co238 1.989 1_565 S
N255 C254 1.342 . S
N255 N256 1.388 . S
N256 Co239 1.993 1_565 S
N256 N255 1.388 . S
N256 C257 1.346 . S
C257 N256 1.346 . S
C257 C258 1.396 . S
C257 C267 1.510 . S
C258 C254 1.401 . S
C258 C257 1.396 . S
C259 C254 1.499 . S
C259 H260 0.959 . S
C259 H261 0.960 . S
C259 H262 0.961 . S
H260 C259 0.959 . S
H261 C259 0.960 . S
H262 C259 0.961 . S
O263 Co238 1.967 . S
O263 C271 1.258 . S
O264 Co239 1.941 . S
O264 C271 1.266 . S
H265 C267 0.959 . S
H266 C267 0.961 . S
C267 C257 1.510 . S
C267 H265 0.959 . S
C267 H266 0.961 . S
C267 H268 0.960 . S
H268 C267 0.960 . S
H269 N249 0.862 1_565 S
O270 Co238 1.920 . S
O270 C243 1.289 . S
C271 O263 1.258 . S
C271 O264 1.266 . S
Co272 O275 1.968 1_565 S
Co272 N289 1.989 . S
Co272 O297 1.967 . S
Co272 O304 1.920 . S
Co273 O276 1.966 . S
Co273 N282 2.022 . S
Co273 N290 1.993 . S
Co273 O298 1.941 . S
C274 O275 1.258 . S
C274 O276 1.263 1_545 S
O275 Co272 1.968 1_545 S
O275 C274 1.258 . S
O276 Co273 1.966 . S
O276 C274 1.263 1_565 S
C277 O278 1.235 1_565 S
C277 O304 1.289 . S
O278 C277 1.235 1_545 S
C279 C281 1.400 . S
C279 N282 1.351 . S
C279 C284 1.501 1_565 S
C280 C281 1.387 . S
C280 N283 1.341 . S
C281 C279 1.400 . S
C281 C280 1.387 . S
N282 Co273 2.022 . S
N282 C279 1.351 . S
N282 N283 1.365 . S
N283 C280 1.341 . S
N283 N282 1.365 . S
N283 H303 0.862 . S
C284 C279 1.501 1_545 S
C284 H285 0.961 . S
C284 H286 0.961 . S
C284 H287 0.960 . S
H285 C284 0.961 . S
H286 C284 0.961 . S
H287 C284 0.960 . S
C288 N289 1.342 . S
C288 C292 1.401 . S
C288 C293 1.499 . S
N289 Co272 1.989 . S
N289 C288 1.342 . S
N289 N290 1.388 . S
N290 Co273 1.993 . S
N290 N289 1.388 . S
N290 C291 1.346 . S
C291 N290 1.346 . S
C291 C292 1.396 . S
C291 C301 1.510 . S
C292 C288 1.401 . S
C292 C291 1.396 . S
C293 C288 1.499 . S
C293 H294 0.959 . S
C293 H295 0.960 . S
C293 H296 0.961 . S
H294 C293 0.959 . S
H295 C293 0.960 . S
H296 C293 0.961 . S
O297 Co272 1.967 . S
O297 C305 1.258 . S
O298 Co273 1.941 . S
O298 C305 1.266 . S
H299 C301 0.959 . S
H300 C301 0.961 1_545 S
C301 C291 1.510 . S
C301 H299 0.959 . S
C301 H300 0.961 1_565 S
C301 H302 0.960 . S
H302 C301 0.960 . S
H303 N283 0.862 . S
O304 Co272 1.920 . S
O304 C277 1.289 . S
C305 O297 1.258 . S
C305 O298 1.266 . S
Co306 O309 1.970 . S
Co306 N323 1.989 . S
Co306 O331 1.967 . S
Co306 O338 1.920 . S
Co307 O310 1.966 . S
Co307 N316 2.022 . S
Co307 N324 1.993 . S
Co307 O332 1.941 . S
C308 O309 1.258 . S
C308 O310 1.263 . S
O309 Co306 1.970 . S
O309 C308 1.258 . S
O310 Co307 1.966 . S
O310 C308 1.263 . S
C311 O312 1.235 . S
C311 O338 1.289 . S
O312 C311 1.235 . S
C313 C315 1.400 . S
C313 N316 1.351 . S
C313 C318 1.501 . S
C314 C315 1.387 . S
C314 N317 1.341 . S
C315 C313 1.400 . S
C315 C314 1.387 . S
N316 Co307 2.022 . S
N316 C313 1.351 . S
N316 N317 1.365 . S
N317 C314 1.341 . S
N317 N316 1.365 . S
N317 H337 0.862 . S
C318 C313 1.501 . S
C318 H319 0.961 . S
C318 H320 0.961 . S
C318 H321 0.960 . S
H319 C318 0.961 . S
H320 C318 0.961 . S
H321 C318 0.960 . S
C322 N323 1.342 . S
C322 C326 1.401 . S
C322 C327 1.499 . S
N323 Co306 1.989 . S
N323 C322 1.342 . S
N323 N324 1.388 . S
N324 Co307 1.993 . S
N324 N323 1.388 . S
N324 C325 1.346 . S
C325 N324 1.346 . S
C325 C326 1.396 . S
C325 C335 1.510 . S
C326 C322 1.401 . S
C326 C325 1.396 . S
C327 C322 1.499 . S
C327 H328 0.959 . S
C327 H329 0.960 . S
C327 H330 0.961 . S
H328 C327 0.959 . S
H329 C327 0.960 . S
H330 C327 0.961 . S
O331 Co306 1.967 . S
O331 C339 1.258 . S
O332 Co307 1.941 . S
O332 C339 1.266 . S
H333 C335 0.959 . S
H334 C335 0.961 . S
C335 C325 1.510 . S
C335 H333 0.959 . S
C335 H334 0.961 . S
C335 H336 0.960 . S
H336 C335 0.960 . S
H337 N317 0.862 . S
O338 Co306 1.920 . S
O338 C311 1.289 . S
C339 O331 1.258 . S
C339 O332 1.266 . S
Co340 O343 1.970 . S
Co340 N357 1.989 1_655 S
Co340 O365 1.967 . S
Co340 O372 1.920 . S
Co341 O344 1.966 . S
Co341 N350 2.022 . S
Co341 N358 1.993 1_655 S
Co341 O366 1.941 . S
C342 O343 1.258 . S
C342 O344 1.263 . S
O343 Co340 1.970 . S
O343 C342 1.258 . S
O344 Co341 1.966 . S
O344 C342 1.263 . S
C345 O346 1.235 . S
C345 O372 1.289 . S
O346 C345 1.235 . S
C347 C349 1.400 . S
C347 N350 1.351 . S
C347 C352 1.501 . S
C348 C349 1.387 1_455 S
C348 N351 1.341 1_455 S
C349 C347 1.400 . S
C349 C348 1.387 1_655 S
N350 Co341 2.022 . S
N350 C347 1.351 . S
N350 N351 1.365 . S
N351 C348 1.341 1_655 S
N351 N350 1.365 . S
N351 H371 0.862 1_655 S
C352 C347 1.501 . S
C352 H353 0.961 . S
C352 H354 0.961 . S
C352 H355 0.960 . S
H353 C352 0.961 . S
H354 C352 0.961 . S
H355 C352 0.960 . S
C356 N357 1.342 . S
C356 C360 1.401 . S
C356 C361 1.499 . S
N357 Co340 1.989 1_455 S
N357 C356 1.342 . S
N357 N358 1.388 . S
N358 Co341 1.993 1_455 S
N358 N357 1.388 . S
N358 C359 1.346 . S
C359 N358 1.346 . S
C359 C360 1.396 . S
C359 C369 1.510 . S
C360 C356 1.401 . S
C360 C359 1.396 . S
C361 C356 1.499 . S
C361 H362 0.959 . S
C361 H363 0.960 . S
C361 H364 0.961 . S
H362 C361 0.959 . S
H363 C361 0.960 . S
H364 C361 0.961 . S
O365 Co340 1.967 . S
O365 C373 1.258 . S
O366 Co341 1.941 . S
O366 C373 1.266 . S
H367 C369 0.959 . S
H368 C369 0.961 . S
C369 C359 1.510 . S
C369 H367 0.959 . S
C369 H368 0.961 . S
C369 H370 0.960 . S
H370 C369 0.960 . S
H371 N351 0.862 1_455 S
O372 Co340 1.920 . S
O372 C345 1.289 . S
C373 O365 1.258 . S
C373 O366 1.266 . S
Co374 O377 1.969 1_655 S
Co374 N391 1.989 1_565 S
Co374 O399 1.967 . S
Co374 O406 1.920 . S
Co375 O378 1.966 . S
Co375 N384 2.022 . S
Co375 N392 1.993 1_565 S
Co375 O400 1.941 . S
C376 O377 1.258 . S
C376 O378 1.263 1_455 S
O377 Co374 1.969 1_455 S
O377 C376 1.258 . S
O378 Co375 1.966 . S
O378 C376 1.263 1_655 S
C379 O380 1.235 1_655 S
C379 O406 1.289 . S
O380 C379 1.235 1_455 S
C381 C383 1.400 . S
C381 N384 1.351 . S
C381 C386 1.501 1_655 S
C382 C383 1.387 1_545 S
C382 N385 1.341 1_545 S
C383 C381 1.400 . S
C383 C382 1.387 1_565 S
N384 Co375 2.022 . S
N384 C381 1.351 . S
N384 N385 1.365 . S
N385 C382 1.341 1_565 S
N385 N384 1.365 . S
N385 H405 0.862 1_565 S
C386 C381 1.501 1_455 S
C386 H387 0.961 . S
C386 H388 0.961 . S
C386 H389 0.960 . S
H387 C386 0.961 . S
H388 C386 0.961 . S
H389 C386 0.960 . S
C390 N391 1.342 . S
C390 C394 1.401 . S
C390 C395 1.499 . S
N391 Co374 1.989 1_545 S
N391 C390 1.342 . S
N391 N392 1.388 . S
N392 Co375 1.993 1_545 S
N392 N391 1.388 . S
N392 C393 1.346 . S
C393 N392 1.346 . S
C393 C394 1.396 . S
C393 C403 1.510 . S
C394 C390 1.401 . S
C394 C393 1.396 . S
C395 C390 1.499 . S
C395 H396 0.959 . S
C395 H397 0.960 . S
C395 H398 0.961 . S
H396 C395 0.959 . S
H397 C395 0.960 . S
H398 C395 0.961 . S
O399 Co374 1.967 . S
O399 C407 1.258 . S
O400 Co375 1.941 . S
O400 C407 1.266 . S
H401 C403 0.959 . S
H402 C403 0.961 1_455 S
C403 C393 1.510 . S
C403 H401 0.959 . S
C403 H402 0.961 1_655 S
C403 H404 0.960 . S
H404 C403 0.960 . S
H405 N385 0.862 1_545 S
O406 Co374 1.920 . S
O406 C379 1.289 . S
C407 O399 1.258 . S
C407 O400 1.266 . S
Co408 O411 1.970 . S
Co408 N425 1.989 . S
Co408 O433 1.967 . S
Co408 O440 1.920 . S
Co409 O412 1.966 . S
Co409 N418 2.022 . S
Co409 N426 1.993 . S
Co409 O434 1.941 . S
C410 O411 1.258 . S
C410 O412 1.263 . S
O411 Co408 1.970 . S
O411 C410 1.258 . S
O412 Co409 1.966 . S
O412 C410 1.263 . S
C413 O414 1.235 . S
C413 O440 1.289 . S
O414 C413 1.235 . S
C415 C417 1.400 . S
C415 N418 1.351 . S
C415 C420 1.501 . S
C416 C417 1.387 . S
C416 N419 1.341 . S
C417 C415 1.400 . S
C417 C416 1.387 . S
N418 Co409 2.022 . S
N418 C415 1.351 . S
N418 N419 1.365 . S
N419 C416 1.341 . S
N419 N418 1.365 . S
N419 H439 0.862 . S
C420 C415 1.501 . S
C420 H421 0.961 . S
C420 H422 0.961 . S
C420 H423 0.960 . S
H421 C420 0.961 . S
H422 C420 0.961 . S
H423 C420 0.960 . S
C424 N425 1.342 . S
C424 C428 1.401 . S
C424 C429 1.499 . S
N425 Co408 1.989 . S
N425 C424 1.342 . S
N425 N426 1.388 . S
N426 Co409 1.993 . S
N426 N425 1.388 . S
N426 C427 1.346 . S
C427 N426 1.346 . S
C427 C428 1.396 . S
C427 C437 1.510 . S
C428 C424 1.401 . S
C428 C427 1.396 . S
C429 C424 1.499 . S
C429 H430 0.959 . S
C429 H431 0.960 . S
C429 H432 0.961 . S
H430 C429 0.959 . S
H431 C429 0.960 . S
H432 C429 0.961 . S
O433 Co408 1.967 . S
O433 C441 1.258 . S
O434 Co409 1.941 . S
O434 C441 1.266 . S
H435 C437 0.959 . S
H436 C437 0.961 . S
C437 C427 1.510 . S
C437 H435 0.959 . S
C437 H436 0.961 . S
C437 H438 0.960 . S
H438 C437 0.960 . S
H439 N419 0.862 . S
O440 Co408 1.920 . S
O440 C413 1.289 . S
C441 O433 1.258 . S
C441 O434 1.266 . S
Co442 O445 1.969 1_655 S
Co442 N459 1.989 . S
Co442 O467 1.967 . S
Co442 O474 1.920 . S
Co443 O446 1.966 . S
Co443 N452 2.022 . S
Co443 N460 1.993 . S
Co443 O468 1.941 . S
C444 O445 1.258 . S
C444 O446 1.263 1_455 S
O445 Co442 1.969 1_455 S
O445 C444 1.258 . S
O446 Co443 1.966 . S
O446 C444 1.263 1_655 S
C447 O448 1.235 1_655 S
C447 O474 1.289 . S
O448 C447 1.235 1_455 S
C449 C451 1.400 . S
C449 N452 1.351 . S
C449 C454 1.501 1_655 S
C450 C451 1.387 . S
C450 N453 1.341 . S
C451 C449 1.400 . S
C451 C450 1.387 . S
N452 Co443 2.022 . S
N452 C449 1.351 . S
N452 N453 1.365 . S
N453 C450 1.341 . S
N453 N452 1.365 . S
N453 H473 0.862 . S
C454 C449 1.501 1_455 S
C454 H455 0.961 . S
C454 H456 0.961 . S
C454 H457 0.960 . S
H455 C454 0.961 . S
H456 C454 0.961 . S
H457 C454 0.960 . S
C458 N459 1.342 . S
C458 C462 1.401 . S
C458 C463 1.499 . S
N459 Co442 1.989 . S
N459 C458 1.342 . S
N459 N460 1.388 . S
N460 Co443 1.993 . S
N460 N459 1.388 . S
N460 C461 1.346 . S
C461 N460 1.346 . S
C461 C462 1.396 . S
C461 C471 1.510 . S
C462 C458 1.401 . S
C462 C461 1.396 . S
C463 C458 1.499 . S
C463 H464 0.959 . S
C463 H465 0.960 . S
C463 H466 0.961 . S
H464 C463 0.959 . S
H465 C463 0.960 . S
H466 C463 0.961 . S
O467 Co442 1.967 . S
O467 C475 1.258 . S
O468 Co443 1.941 . S
O468 C475 1.266 . S
H469 C471 0.959 . S
H470 C471 0.961 1_455 S
C471 C461 1.510 . S
C471 H469 0.959 . S
C471 H470 0.961 1_655 S
C471 H472 0.960 . S
H472 C471 0.960 . S
H473 N453 0.862 . S
O474 Co442 1.920 . S
O474 C447 1.289 . S
C475 O467 1.258 . S
C475 O468 1.266 . S
Co476 O479 1.968 1_565 S
Co476 N493 1.989 1_655 S
Co476 O501 1.967 . S
Co476 O508 1.920 . S
Co477 O480 1.966 . S
Co477 N486 2.022 . S
Co477 N494 1.993 1_655 S
Co477 O502 1.941 . S
C478 O479 1.258 . S
C478 O480 1.263 1_545 S
O479 Co476 1.968 1_545 S
O479 C478 1.258 . S
O480 Co477 1.966 . S
O480 C478 1.263 1_565 S
C481 O482 1.235 1_565 S
C481 O508 1.289 . S
O482 C481 1.235 1_545 S
C483 C485 1.400 . S
C483 N486 1.351 . S
C483 C488 1.501 1_565 S
C484 C485 1.387 1_455 S
C484 N487 1.341 1_455 S
C485 C483 1.400 . S
C485 C484 1.387 1_655 S
N486 Co477 2.022 . S
N486 C483 1.351 . S
N486 N487 1.365 . S
N487 C484 1.341 1_655 S
N487 N486 1.365 . S
N487 H507 0.862 1_655 S
C488 C483 1.501 1_545 S
C488 H489 0.961 . S
C488 H490 0.961 . S
C488 H491 0.960 . S
H489 C488 0.961 . S
H490 C488 0.961 . S
H491 C488 0.960 . S
C492 N493 1.342 . S
C492 C496 1.401 . S
C492 C497 1.499 . S
N493 Co476 1.989 1_455 S
N493 C492 1.342 . S
N493 N494 1.388 . S
N494 Co477 1.993 1_455 S
N494 N493 1.388 . S
N494 C495 1.346 . S
C495 N494 1.346 . S
C495 C496 1.396 . S
C495 C505 1.510 . S
C496 C492 1.401 . S
C496 C495 1.396 . S
C497 C492 1.499 . S
C497 H498 0.959 . S
C497 H499 0.960 . S
C497 H500 0.961 . S
H498 C497 0.959 . S
H499 C497 0.960 . S
H500 C497 0.961 . S
O501 Co476 1.967 . S
O501 C509 1.258 . S
O502 Co477 1.941 . S
O502 C509 1.266 . S
H503 C505 0.959 . S
H504 C505 0.961 1_545 S
C505 C495 1.510 . S
C505 H503 0.959 . S
C505 H504 0.961 1_565 S
C505 H506 0.960 . S
H506 C505 0.960 . S
H507 N487 0.862 1_455 S
O508 Co476 1.920 . S
O508 C481 1.289 . S
C509 O501 1.258 . S
C509 O502 1.266 . S
Co510 O513 1.970 . S
Co510 N527 1.989 1_565 S
Co510 O535 1.967 . S
Co510 O542 1.920 . S
Co511 O514 1.966 . S
Co511 N520 2.022 . S
Co511 N528 1.993 1_565 S
Co511 O536 1.941 . S
C512 O513 1.258 . S
C512 O514 1.263 . S
O513 Co510 1.970 . S
O513 C512 1.258 . S
O514 Co511 1.966 . S
O514 C512 1.263 . S
C515 O516 1.235 . S
C515 O542 1.289 . S
O516 C515 1.235 . S
C517 C519 1.400 . S
C517 N520 1.351 . S
C517 C522 1.501 . S
C518 C519 1.387 1_545 S
C518 N521 1.341 1_545 S
C519 C517 1.400 . S
C519 C518 1.387 1_565 S
N520 Co511 2.022 . S
N520 C517 1.351 . S
N520 N521 1.365 . S
N521 C518 1.341 1_565 S
N521 N520 1.365 . S
N521 H541 0.862 1_565 S
C522 C517 1.501 . S
C522 H523 0.961 . S
C522 H524 0.961 . S
C522 H525 0.960 . S
H523 C522 0.961 . S
H524 C522 0.961 . S
H525 C522 0.960 . S
C526 N527 1.342 . S
C526 C530 1.401 . S
C526 C531 1.499 . S
N527 Co510 1.989 1_545 S
N527 C526 1.342 . S
N527 N528 1.388 . S
N528 Co511 1.993 1_545 S
N528 N527 1.388 . S
N528 C529 1.346 . S
C529 N528 1.346 . S
C529 C530 1.396 . S
C529 C539 1.510 . S
C530 C526 1.401 . S
C530 C529 1.396 . S
C531 C526 1.499 . S
C531 H532 0.959 . S
C531 H533 0.960 . S
C531 H534 0.961 . S
H532 C531 0.959 . S
H533 C531 0.960 . S
H534 C531 0.961 . S
O535 Co510 1.967 . S
O535 C543 1.258 . S
O536 Co511 1.941 . S
O536 C543 1.266 . S
H537 C539 0.959 . S
H538 C539 0.961 . S
C539 C529 1.510 . S
C539 H537 0.959 . S
C539 H538 0.961 . S
C539 H540 0.960 . S
H540 C539 0.960 . S
H541 N521 0.862 1_545 S
O542 Co510 1.920 . S
O542 C515 1.289 . S
C543 O535 1.258 . S
C543 O536 1.266 . S
C5 C243 1.777 . S
C141 C39 1.777 . S
C175 C73 1.777 . S
C209 C107 1.777 . S
C277 C515 1.777 . S
C311 C413 1.777 . S
C447 C345 1.777 . S
C379 C481 1.777 . S
C9 C281 1.579 1_544 S
C315 C43 1.580 . S
C349 C77 1.579 1_656 S
C111 C383 1.580 1_445 S
C417 C145 1.580 1_554 S
C451 C179 1.580 1_655 S
C213 C485 1.580 1_446 S
C519 C247 1.580 1_565 S
C20 C478 1.082 . S
C512 C54 1.082 . S
C88 C410 1.082 . S
C444 C122 1.082 . S
C156 C342 1.082 . S
C190 C376 1.082 . S
C224 C274 1.082 . S
C258 C308 1.082 . S
C206 C292 1.082 . S
C240 C326 1.082 . S
C360 C138 1.082 . S
C172 C394 1.082 . S
C70 C428 1.082 . S
C104 C462 1.082 . S
C496 C2 1.082 . S
C36 C530 1.082 . S
C101 C33 2.301 . S
C135 C67 2.301 . S
C169 C237 2.301 . S
C271 C203 2.301 . S
C305 C373 2.301 . S
C407 C339 2.301 . S
C441 C509 2.301 . S
C475 C543 2.301 . S
