# Generated by pormake.
# Topology mer, (4)-cn, num edge types: 1
# Building blocks:
#     Node 0, Type 0, BuildingBlock: ICAMEG_clean_sbu_1, # of connection points: 4
#     Node 1, Type 0, BuildingBlock: ICAMEG_clean_sbu_1, # of connection points: 4
#     Node 2, Type 0, BuildingBlock: ICAMEG_clean_sbu_1, # of connection points: 4
#     Node 3, Type 0, BuildingBlock: ICAMEG_clean_sbu_1, # of connection points: 4
#     Node 4, Type 0, BuildingBlock: ICAMEG_clean_sbu_1, # of connection points: 4
#     Node 5, Type 0, BuildingBlock: ICAMEG_clean_sbu_1, # of connection points: 4
#     Node 6, Type 0, BuildingBlock: ICAMEG_clean_sbu_1, # of connection points: 4
#     Node 7, Type 0, BuildingBlock: ICAMEG_clean_sbu_1, # of connection points: 4
#     Node 8, Type 0, BuildingBlock: ICAMEG_clean_sbu_1, # of connection points: 4
#     Node 9, Type 0, BuildingBlock: ICAMEG_clean_sbu_1, # of connection points: 4
#     Node 10, Type 0, BuildingBlock: ICAMEG_clean_sbu_1, # of connection points: 4
#     Node 11, Type 0, BuildingBlock: ICAMEG_clean_sbu_1, # of connection points: 4
#     Node 12, Type 0, BuildingBlock: ICAMEG_clean_sbu_1, # of connection points: 4
#     Node 13, Type 0, BuildingBlock: ICAMEG_clean_sbu_1, # of connection points: 4
#     Node 14, Type 0, BuildingBlock: ICAMEG_clean_sbu_1, # of connection points: 4
#     Node 15, Type 0, BuildingBlock: ICAMEG_clean_sbu_1, # of connection points: 4
#     Node 16, Type 0, BuildingBlock: ICAMEG_clean_sbu_1, # of connection points: 4
#     Node 17, Type 0, BuildingBlock: ICAMEG_clean_sbu_1, # of connection points: 4
#     Node 18, Type 0, BuildingBlock: ICAMEG_clean_sbu_1, # of connection points: 4
#     Node 19, Type 0, BuildingBlock: ICAMEG_clean_sbu_1, # of connection points: 4
#     Node 20, Type 0, BuildingBlock: ICAMEG_clean_sbu_1, # of connection points: 4
#     Node 21, Type 0, BuildingBlock: ICAMEG_clean_sbu_1, # of connection points: 4
#     Node 22, Type 0, BuildingBlock: ICAMEG_clean_sbu_1, # of connection points: 4
#     Node 23, Type 0, BuildingBlock: ICAMEG_clean_sbu_1, # of connection points: 4
#     Node 24, Type 0, BuildingBlock: ICAMEG_clean_sbu_1, # of connection points: 4
#     Node 25, Type 0, BuildingBlock: ICAMEG_clean_sbu_1, # of connection points: 4
#     Node 26, Type 0, BuildingBlock: ICAMEG_clean_sbu_1, # of connection points: 4
#     Node 27, Type 0, BuildingBlock: ICAMEG_clean_sbu_1, # of connection points: 4
#     Node 28, Type 0, BuildingBlock: ICAMEG_clean_sbu_1, # of connection points: 4
#     Node 29, Type 0, BuildingBlock: ICAMEG_clean_sbu_1, # of connection points: 4
#     Node 30, Type 0, BuildingBlock: ICAMEG_clean_sbu_1, # of connection points: 4
#     Node 31, Type 0, BuildingBlock: ICAMEG_clean_sbu_1, # of connection points: 4
#     Edge 32, Type (0, 0), BuildingBlock: KIFKEQ_clean_linker_1, # of connection points: 2
#     Edge 33, Type (0, 0), BuildingBlock: KIFKEQ_clean_linker_1, # of connection points: 2
#     Edge 34, Type (0, 0), BuildingBlock: KIFKEQ_clean_linker_1, # of connection points: 2
#     Edge 35, Type (0, 0), BuildingBlock: KIFKEQ_clean_linker_1, # of connection points: 2
#     Edge 36, Type (0, 0), BuildingBlock: KIFKEQ_clean_linker_1, # of connection points: 2
#     Edge 37, Type (0, 0), BuildingBlock: KIFKEQ_clean_linker_1, # of connection points: 2
#     Edge 38, Type (0, 0), BuildingBlock: KIFKEQ_clean_linker_1, # of connection points: 2
#     Edge 39, Type (0, 0), BuildingBlock: KIFKEQ_clean_linker_1, # of connection points: 2
#     Edge 40, Type (0, 0), BuildingBlock: KIFKEQ_clean_linker_1, # of connection points: 2
#     Edge 41, Type (0, 0), BuildingBlock: KIFKEQ_clean_linker_1, # of connection points: 2
#     Edge 42, Type (0, 0), BuildingBlock: KIFKEQ_clean_linker_1, # of connection points: 2
#     Edge 43, Type (0, 0), BuildingBlock: KIFKEQ_clean_linker_1, # of connection points: 2
#     Edge 44, Type (0, 0), BuildingBlock: KIFKEQ_clean_linker_1, # of connection points: 2
#     Edge 45, Type (0, 0), BuildingBlock: KIFKEQ_clean_linker_1, # of connection points: 2
#     Edge 46, Type (0, 0), BuildingBlock: KIFKEQ_clean_linker_1, # of connection points: 2
#     Edge 47, Type (0, 0), BuildingBlock: KIFKEQ_clean_linker_1, # of connection points: 2
#     Edge 48, Type (0, 0), BuildingBlock: KIFKEQ_clean_linker_1, # of connection points: 2
#     Edge 49, Type (0, 0), BuildingBlock: KIFKEQ_clean_linker_1, # of connection points: 2
#     Edge 50, Type (0, 0), BuildingBlock: KIFKEQ_clean_linker_1, # of connection points: 2
#     Edge 51, Type (0, 0), BuildingBlock: KIFKEQ_clean_linker_1, # of connection points: 2
#     Edge 52, Type (0, 0), BuildingBlock: KIFKEQ_clean_linker_1, # of connection points: 2
#     Edge 53, Type (0, 0), BuildingBlock: KIFKEQ_clean_linker_1, # of connection points: 2
#     Edge 54, Type (0, 0), BuildingBlock: KIFKEQ_clean_linker_1, # of connection points: 2
#     Edge 55, Type (0, 0), BuildingBlock: KIFKEQ_clean_linker_1, # of connection points: 2
#     Edge 56, Type (0, 0), BuildingBlock: KIFKEQ_clean_linker_1, # of connection points: 2
#     Edge 57, Type (0, 0), BuildingBlock: KIFKEQ_clean_linker_1, # of connection points: 2
#     Edge 58, Type (0, 0), BuildingBlock: KIFKEQ_clean_linker_1, # of connection points: 2
#     Edge 59, Type (0, 0), BuildingBlock: KIFKEQ_clean_linker_1, # of connection points: 2
#     Edge 60, Type (0, 0), BuildingBlock: KIFKEQ_clean_linker_1, # of connection points: 2
#     Edge 61, Type (0, 0), BuildingBlock: KIFKEQ_clean_linker_1, # of connection points: 2
#     Edge 62, Type (0, 0), BuildingBlock: KIFKEQ_clean_linker_1, # of connection points: 2
#     Edge 63, Type (0, 0), BuildingBlock: KIFKEQ_clean_linker_1, # of connection points: 2
#     Edge 64, Type (0, 0), BuildingBlock: KIFKEQ_clean_linker_1, # of connection points: 2
#     Edge 65, Type (0, 0), BuildingBlock: KIFKEQ_clean_linker_1, # of connection points: 2
#     Edge 66, Type (0, 0), BuildingBlock: KIFKEQ_clean_linker_1, # of connection points: 2
#     Edge 67, Type (0, 0), BuildingBlock: KIFKEQ_clean_linker_1, # of connection points: 2
#     Edge 68, Type (0, 0), BuildingBlock: KIFKEQ_clean_linker_1, # of connection points: 2
#     Edge 69, Type (0, 0), BuildingBlock: KIFKEQ_clean_linker_1, # of connection points: 2
#     Edge 70, Type (0, 0), BuildingBlock: KIFKEQ_clean_linker_1, # of connection points: 2
#     Edge 71, Type (0, 0), BuildingBlock: KIFKEQ_clean_linker_1, # of connection points: 2
#     Edge 72, Type (0, 0), BuildingBlock: KIFKEQ_clean_linker_1, # of connection points: 2
#     Edge 73, Type (0, 0), BuildingBlock: KIFKEQ_clean_linker_1, # of connection points: 2
#     Edge 74, Type (0, 0), BuildingBlock: KIFKEQ_clean_linker_1, # of connection points: 2
#     Edge 75, Type (0, 0), BuildingBlock: KIFKEQ_clean_linker_1, # of connection points: 2
#     Edge 76, Type (0, 0), BuildingBlock: KIFKEQ_clean_linker_1, # of connection points: 2
#     Edge 77, Type (0, 0), BuildingBlock: KIFKEQ_clean_linker_1, # of connection points: 2
#     Edge 78, Type (0, 0), BuildingBlock: KIFKEQ_clean_linker_1, # of connection points: 2
#     Edge 79, Type (0, 0), BuildingBlock: KIFKEQ_clean_linker_1, # of connection points: 2
#     Edge 80, Type (0, 0), BuildingBlock: KIFKEQ_clean_linker_1, # of connection points: 2
#     Edge 81, Type (0, 0), BuildingBlock: KIFKEQ_clean_linker_1, # of connection points: 2
#     Edge 82, Type (0, 0), BuildingBlock: KIFKEQ_clean_linker_1, # of connection points: 2
#     Edge 83, Type (0, 0), BuildingBlock: KIFKEQ_clean_linker_1, # of connection points: 2
#     Edge 84, Type (0, 0), BuildingBlock: KIFKEQ_clean_linker_1, # of connection points: 2
#     Edge 85, Type (0, 0), BuildingBlock: KIFKEQ_clean_linker_1, # of connection points: 2
#     Edge 86, Type (0, 0), BuildingBlock: KIFKEQ_clean_linker_1, # of connection points: 2
#     Edge 87, Type (0, 0), BuildingBlock: KIFKEQ_clean_linker_1, # of connection points: 2
#     Edge 88, Type (0, 0), BuildingBlock: KIFKEQ_clean_linker_1, # of connection points: 2
#     Edge 89, Type (0, 0), BuildingBlock: KIFKEQ_clean_linker_1, # of connection points: 2
#     Edge 90, Type (0, 0), BuildingBlock: KIFKEQ_clean_linker_1, # of connection points: 2
#     Edge 91, Type (0, 0), BuildingBlock: KIFKEQ_clean_linker_1, # of connection points: 2
#     Edge 92, Type (0, 0), BuildingBlock: KIFKEQ_clean_linker_1, # of connection points: 2
#     Edge 93, Type (0, 0), BuildingBlock: KIFKEQ_clean_linker_1, # of connection points: 2
#     Edge 94, Type (0, 0), BuildingBlock: KIFKEQ_clean_linker_1, # of connection points: 2
#     Edge 95, Type (0, 0), BuildingBlock: KIFKEQ_clean_linker_1, # of connection points: 2
# Relax obj value: 0.031
# Max RMSD: 0.078
# Mean RMSD: 0.078
data_MOF--net-mer--node1-ICAMEG_clean_sbu_1--edge1-KIFKEQ_clean_linker_1
_symmetry_space_group_name_H-M    P1
_symmetry_Int_Tables_number       1
_symmetry_cell_setting            triclinic
loop_
_symmetry_equiv_pos_as_xyz
'x, y, z'
_cell_length_a     66.172344
_cell_length_b     66.173368
_cell_length_c     60.388967
_cell_angle_alpha  89.993083
_cell_angle_beta   90.005949
_cell_angle_gamma 89.998278
loop_
_atom_site_label
_atom_site_type_symbol
_atom_site_fract_x
_atom_site_fract_y
_atom_site_fract_z
_atom_type_partial_charge
Co0 Co 0.1452 0.30955 0.37456 0.0
Co1 Co 0.11238 0.2688 0.37534 0.0
O2 O 0.12118 0.29506 0.36418 0.0
C3 C 0.1521 0.30382 0.32668 0.0
O4 O 0.14627 0.28506 0.32967 0.0
C5 C 0.07609 0.29476 0.38212 0.0
O6 O 0.08786 0.30918 0.38966 0.0
O7 O 0.11552 0.27798 0.40658 0.0
O8 O 0.13818 0.30335 0.40608 0.0
H9 H 0.11659 0.20743 0.42411 0.0
H10 H 0.11641 0.32957 0.34397 0.0
O11 O 0.15263 0.31598 0.34305 0.0
H12 H 0.11725 0.37196 0.41112 0.0
H13 H 0.19521 0.36686 0.37368 0.0
H14 H 0.1764 0.3023 0.40889 0.0
H15 H 0.1387 0.34157 0.40858 0.0
H16 H 0.16494 0.34822 0.36138 0.0
O17 O 0.08362 0.2781 0.37556 0.0
H18 H 0.12763 0.24042 0.40942 0.0
H19 H 0.07777 0.24138 0.36515 0.0
H20 H 0.20671 0.32052 0.42183 0.0
H21 H 0.09484 0.35993 0.34572 0.0
H22 H 0.21628 0.35305 0.40417 0.0
H23 H 0.09513 0.38133 0.37951 0.0
O24 O 0.16231 0.28468 0.37311 0.0
H25 H 0.08999 0.27604 0.29626 0.0
H26 H 0.12483 0.23208 0.34998 0.0
H27 H 0.12201 0.22125 0.31104 0.0
H28 H 0.10447 0.24331 0.28387 0.0
H29 H 0.09335 0.28636 0.33534 0.0
H30 H 0.06608 0.2085 0.37949 0.0
H31 H 0.08559 0.19126 0.40913 0.0
O32 O 0.14067 0.25864 0.37528 0.0
C33 C 0.12646 0.29117 0.41631 0.0
C34 C 0.10798 0.21476 0.41115 0.0
C35 C 0.07962 0.21538 0.38614 0.0
N36 N 0.10342 0.24276 0.38637 0.0
C37 C 0.1142 0.23341 0.40273 0.0
C38 C 0.08628 0.23403 0.37812 0.0
C39 C 0.09058 0.20571 0.40276 0.0
C40 C 0.11674 0.3389 0.35866 0.0
N41 N 0.12884 0.33384 0.37613 0.0
C42 C 0.10444 0.35603 0.35958 0.0
C43 C 0.10459 0.36801 0.37856 0.0
C44 C 0.11699 0.36276 0.39631 0.0
C45 C 0.12906 0.3455 0.39481 0.0
C46 C 0.19118 0.35272 0.38153 0.0
C47 C 0.18041 0.31651 0.40122 0.0
C48 C 0.17408 0.34208 0.3746 0.0
N49 N 0.16885 0.32426 0.38451 0.0
C50 C 0.19761 0.32673 0.40857 0.0
C51 C 0.20299 0.34497 0.39865 0.0
C52 C 0.15851 0.2658 0.37412 0.0
C53 C 0.09765 0.26628 0.30794 0.0
C54 C 0.1173 0.2418 0.33825 0.0
C55 C 0.11567 0.23556 0.31623 0.0
C56 C 0.1058 0.24793 0.301 0.0
N57 N 0.1093 0.25984 0.34493 0.0
C58 C 0.09953 0.27201 0.33011 0.0
Co59 Co 0.69191 0.14447 0.37612 0.0
Co60 Co 0.7326 0.11161 0.37653 0.0
O61 O 0.70626 0.12042 0.36571 0.0
C62 C 0.6975 0.15107 0.32821 0.0
O63 O 0.71625 0.14523 0.33126 0.0
C64 C 0.70645 0.07572 0.38431 0.0
O65 O 0.69248 0.08776 0.39233 0.0
O66 O 0.72387 0.11503 0.40787 0.0
O67 O 0.69829 0.13747 0.40764 0.0
H68 H 0.7947 0.11579 0.42418 0.0
H69 H 0.67165 0.11565 0.34575 0.0
O70 O 0.68536 0.15182 0.3446 0.0
H71 H 0.6296 0.11682 0.41316 0.0
H72 H 0.63475 0.19466 0.3754 0.0
H73 H 0.69939 0.1757 0.41035 0.0
H74 H 0.66004 0.13817 0.41035 0.0
H75 H 0.65327 0.16431 0.36307 0.0
O76 O 0.72305 0.08294 0.37714 0.0
H77 H 0.76158 0.12695 0.40997 0.0
H78 H 0.7596 0.07672 0.36625 0.0
H79 H 0.68131 0.20609 0.42332 0.0
H80 H 0.64123 0.09418 0.34777 0.0
H81 H 0.64874 0.21573 0.40579 0.0
H82 H 0.62001 0.09464 0.38169 0.0
O83 O 0.71682 0.1615 0.37448 0.0
H84 H 0.72433 0.08862 0.29778 0.0
H85 H 0.76894 0.12394 0.35049 0.0
H86 H 0.77926 0.12082 0.3114 0.0
H87 H 0.75687 0.10305 0.28474 0.0
H88 H 0.71452 0.09225 0.33699 0.0
H89 H 0.79262 0.06492 0.38011 0.0
H90 H 0.81043 0.08456 0.40923 0.0
O91 O 0.7429 0.13985 0.37612 0.0
C92 C 0.7107 0.12589 0.41774 0.0
C93 C 0.78712 0.10714 0.41144 0.0
C94 C 0.78593 0.07857 0.38674 0.0
N95 N 0.75873 0.10257 0.38721 0.0
C96 C 0.76839 0.11341 0.4033 0.0
C97 C 0.76721 0.08529 0.37899 0.0
C98 C 0.79592 0.0896 0.40307 0.0
C99 C 0.6624 0.11605 0.3605 0.0
N100 N 0.66758 0.12819 0.37789 0.0
C101 C 0.64523 0.10381 0.36157 0.0
C102 C 0.63334 0.10406 0.38062 0.0
C103 C 0.63873 0.11649 0.39829 0.0
C104 C 0.65601 0.1285 0.39664 0.0
C105 C 0.64891 0.19059 0.38319 0.0
C106 C 0.68517 0.17974 0.40275 0.0
C107 C 0.65948 0.17346 0.37625 0.0
N108 N 0.67731 0.16818 0.3861 0.0
C109 C 0.67503 0.19699 0.41011 0.0
C110 C 0.65677 0.20241 0.40025 0.0
C111 C 0.73571 0.1577 0.37516 0.0
C112 C 0.73423 0.09637 0.30924 0.0
C113 C 0.75909 0.11626 0.33898 0.0
C114 C 0.76504 0.11449 0.31688 0.0
C115 C 0.75248 0.10449 0.30193 0.0
N116 N 0.74115 0.10829 0.34602 0.0
C117 C 0.72879 0.0984 0.33148 0.0
Co118 Co 0.8553 0.69226 0.37646 0.0
Co119 Co 0.88824 0.73258 0.3789 0.0
O120 O 0.87925 0.70693 0.36638 0.0
C121 C 0.8488 0.69808 0.32868 0.0
O122 O 0.85388 0.71701 0.33204 0.0
C123 C 0.92473 0.70672 0.38215 0.0
O124 O 0.91322 0.6923 0.39015 0.0
O125 O 0.88697 0.7213 0.4093 0.0
O126 O 0.86161 0.69866 0.40823 0.0
H127 H 0.88647 0.79042 0.43274 0.0
H128 H 0.88453 0.67208 0.34654 0.0
O129 O 0.8485 0.6857 0.34486 0.0
H130 H 0.88315 0.63039 0.41422 0.0
H131 H 0.80582 0.63451 0.37491 0.0
H132 H 0.82324 0.69959 0.40982 0.0
H133 H 0.86162 0.66068 0.41104 0.0
H134 H 0.83618 0.65333 0.36319 0.0
O135 O 0.91703 0.72359 0.37648 0.0
H136 H 0.87492 0.7583 0.41633 0.0
H137 H 0.92181 0.7611 0.36842 0.0
H138 H 0.79284 0.6812 0.42219 0.0
H139 H 0.90619 0.64181 0.34895 0.0
H140 H 0.78396 0.64841 0.40469 0.0
H141 H 0.90562 0.62077 0.383 0.0
O142 O 0.83826 0.71699 0.37441 0.0
H143 H 0.90678 0.73153 0.29824 0.0
H144 H 0.87299 0.77024 0.35739 0.0
H145 H 0.8735 0.78379 0.31934 0.0
H146 H 0.8905 0.76439 0.28946 0.0
H147 H 0.90576 0.71845 0.33649 0.0
H148 H 0.93399 0.79317 0.38442 0.0
H149 H 0.91622 0.80808 0.41676 0.0
O150 O 0.8598 0.74236 0.38167 0.0
C151 C 0.87476 0.7091 0.41871 0.0
C152 C 0.8943 0.78412 0.4186 0.0
C153 C 0.92098 0.78565 0.39149 0.0
N154 N 0.89756 0.75794 0.39132 0.0
C155 C 0.88779 0.76597 0.4092 0.0
C156 C 0.91404 0.76747 0.38253 0.0
C157 C 0.911 0.79401 0.40964 0.0
C158 C 0.88407 0.66289 0.36133 0.0
N159 N 0.87176 0.66808 0.37858 0.0
C160 C 0.89642 0.64582 0.36263 0.0
C161 C 0.89611 0.63404 0.38176 0.0
C162 C 0.88352 0.63943 0.39929 0.0
C163 C 0.8714 0.65663 0.39741 0.0
C164 C 0.80956 0.64876 0.3827 0.0
C165 C 0.81955 0.68526 0.40224 0.0
C166 C 0.8267 0.6595 0.37611 0.0
N167 N 0.83156 0.67744 0.38596 0.0
C168 C 0.80228 0.67495 0.40926 0.0
C169 C 0.7973 0.65656 0.39941 0.0
C170 C 0.84202 0.73553 0.3784 0.0
C171 C 0.89939 0.74015 0.31113 0.0
C172 C 0.88039 0.76169 0.34447 0.0
C173 C 0.88066 0.76946 0.32297 0.0
C174 C 0.89022 0.75857 0.30621 0.0
N175 N 0.88942 0.74361 0.34916 0.0
C176 C 0.89884 0.73287 0.33283 0.0
Co177 Co 0.3084 0.85581 0.37622 0.0
Co178 Co 0.2676 0.88865 0.37701 0.0
O179 O 0.29402 0.88 0.36606 0.0
C180 C 0.30305 0.85031 0.32805 0.0
O181 O 0.28483 0.85774 0.33058 0.0
C182 C 0.29365 0.92469 0.38487 0.0
O183 O 0.30804 0.91275 0.39215 0.0
O184 O 0.27637 0.88487 0.40829 0.0
O185 O 0.30221 0.86274 0.40779 0.0
H186 H 0.20558 0.8836 0.42465 0.0
H187 H 0.32855 0.88465 0.34583 0.0
O188 O 0.31476 0.84833 0.34468 0.0
H189 H 0.371 0.88316 0.41293 0.0
H190 H 0.36538 0.80541 0.37509 0.0
H191 H 0.30094 0.8245 0.41037 0.0
H192 H 0.34047 0.86191 0.41027 0.0
H193 H 0.34694 0.83587 0.36294 0.0
O194 O 0.27698 0.91734 0.3781 0.0
H195 H 0.23875 0.87279 0.41026 0.0
H196 H 0.2404 0.92352 0.36721 0.0
H197 H 0.31896 0.79401 0.42316 0.0
H198 H 0.35905 0.90603 0.34769 0.0
H199 H 0.35142 0.7843 0.40546 0.0
H200 H 0.38047 0.90541 0.38146 0.0
O201 O 0.2835 0.83884 0.37456 0.0
H202 H 0.27557 0.91326 0.2988 0.0
H203 H 0.23136 0.87648 0.35069 0.0
H204 H 0.22092 0.88035 0.31173 0.0
H205 H 0.2431 0.89888 0.28548 0.0
H206 H 0.28551 0.90884 0.33786 0.0
H207 H 0.20734 0.93498 0.38127 0.0
H208 H 0.18966 0.91491 0.41014 0.0
O209 O 0.25738 0.86041 0.37611 0.0
C210 C 0.28972 0.87413 0.41802 0.0
C211 C 0.2131 0.89244 0.41203 0.0
C212 C 0.21411 0.9213 0.38771 0.0
N213 N 0.24144 0.89745 0.38783 0.0
C214 C 0.23186 0.88637 0.40377 0.0
C215 C 0.23285 0.91477 0.37985 0.0
C216 C 0.20419 0.91003 0.4039 0.0
C217 C 0.33789 0.88418 0.3605 0.0
N218 N 0.33278 0.87201 0.37789 0.0
C219 C 0.3551 0.89637 0.3615 0.0
C220 C 0.3671 0.89603 0.38046 0.0
C221 C 0.36178 0.88357 0.39813 0.0
C222 C 0.34445 0.87161 0.39655 0.0
C223 C 0.35127 0.80951 0.38295 0.0
C224 C 0.31513 0.82044 0.4027 0.0
C225 C 0.34074 0.82671 0.37612 0.0
N226 N 0.32296 0.83202 0.38606 0.0
C227 C 0.32523 0.80313 0.40996 0.0
C228 C 0.34343 0.79767 0.4 0.0
C229 C 0.2646 0.8426 0.37506 0.0
C230 C 0.26575 0.90519 0.31008 0.0
C231 C 0.24113 0.88445 0.33936 0.0
C232 C 0.23511 0.88667 0.31732 0.0
C233 C 0.24755 0.89709 0.30261 0.0
N234 N 0.25902 0.89241 0.34655 0.0
C235 C 0.27126 0.90271 0.33224 0.0
Co236 Co 0.1456 0.6903 0.62699 0.0
Co237 Co 0.11254 0.73076 0.62486 0.0
O238 O 0.12154 0.70492 0.63708 0.0
C239 C 0.15148 0.69605 0.67496 0.0
O240 O 0.14443 0.71441 0.67228 0.0
C241 C 0.07609 0.70488 0.62001 0.0
O242 O 0.08764 0.69053 0.61192 0.0
O243 O 0.11461 0.72015 0.59421 0.0
O244 O 0.13874 0.69621 0.59529 0.0
H245 H 0.11492 0.7896 0.57233 0.0
H246 H 0.11663 0.67055 0.65751 0.0
O247 O 0.15304 0.68411 0.6585 0.0
H248 H 0.11796 0.62754 0.59085 0.0
H249 H 0.19569 0.63306 0.62856 0.0
H250 H 0.17698 0.69742 0.59285 0.0
H251 H 0.13939 0.65794 0.59325 0.0
H252 H 0.16533 0.65173 0.64056 0.0
O253 O 0.08379 0.72156 0.6263 0.0
H254 H 0.12636 0.75725 0.58828 0.0
H255 H 0.07859 0.75889 0.6352 0.0
H256 H 0.20737 0.67916 0.5802 0.0
H257 H 0.09506 0.64017 0.65591 0.0
H258 H 0.2169 0.64674 0.59811 0.0
H259 H 0.0956 0.61846 0.62236 0.0
O260 O 0.16257 0.71517 0.62855 0.0
H261 H 0.09162 0.72831 0.70479 0.0
H262 H 0.12718 0.76801 0.64769 0.0
H263 H 0.12545 0.78094 0.68594 0.0
H264 H 0.10755 0.76105 0.71479 0.0
H265 H 0.09389 0.71584 0.66637 0.0
H266 H 0.06651 0.79118 0.61964 0.0
H267 H 0.08477 0.80679 0.58804 0.0
O268 O 0.14088 0.74076 0.62301 0.0
C269 C 0.12621 0.70737 0.58481 0.0
C270 C 0.10687 0.783 0.58616 0.0
C271 C 0.07969 0.78386 0.61269 0.0
N272 N 0.10328 0.7563 0.61278 0.0
C273 C 0.11333 0.76472 0.5953 0.0
C274 C 0.08658 0.76556 0.6214 0.0
C275 C 0.08995 0.79262 0.59496 0.0
C276 C 0.11706 0.66108 0.64294 0.0
N277 N 0.12929 0.66598 0.62552 0.0
C278 C 0.10477 0.64394 0.64209 0.0
C279 C 0.10506 0.63178 0.62325 0.0
C280 C 0.11758 0.63687 0.60556 0.0
C281 C 0.12965 0.65414 0.60698 0.0
C282 C 0.19168 0.64715 0.6206 0.0
C283 C 0.18097 0.68325 0.60062 0.0
C284 C 0.17454 0.65781 0.62735 0.0
N285 N 0.16933 0.67556 0.61729 0.0
C286 C 0.19822 0.67301 0.59343 0.0
C287 C 0.20357 0.65483 0.60351 0.0
C288 C 0.1587 0.73383 0.62548 0.0
C289 C 0.09941 0.73715 0.69235 0.0
C290 C 0.11942 0.75923 0.66016 0.0
C291 C 0.11845 0.76665 0.68178 0.0
C292 C 0.10838 0.7555 0.69796 0.0
N293 N 0.11058 0.74121 0.65479 0.0
C294 C 0.10065 0.73021 0.67055 0.0
Co295 Co 0.31157 0.14743 0.62854 0.0
Co296 Co 0.27286 0.11243 0.62853 0.0
O297 O 0.29857 0.12282 0.63935 0.0
C298 C 0.30613 0.15417 0.67624 0.0
O299 O 0.28751 0.14792 0.67321 0.0
C300 C 0.29962 0.07682 0.62117 0.0
O301 O 0.3117 0.08817 0.60923 0.0
O302 O 0.28211 0.11491 0.59727 0.0
O303 O 0.30491 0.14019 0.59721 0.0
H304 H 0.21157 0.11146 0.57944 0.0
H305 H 0.33384 0.11975 0.65849 0.0
O306 O 0.31827 0.15509 0.65987 0.0
H307 H 0.37421 0.12254 0.58992 0.0
H308 H 0.36641 0.20013 0.62789 0.0
H309 H 0.30187 0.17844 0.59469 0.0
H310 H 0.34282 0.14238 0.59341 0.0
H311 H 0.34955 0.16895 0.6406 0.0
O312 O 0.28383 0.08428 0.63004 0.0
H313 H 0.24385 0.12483 0.59368 0.0
H314 H 0.24746 0.07669 0.64004 0.0
H315 H 0.31828 0.20962 0.58135 0.0
H316 H 0.36523 0.09978 0.65576 0.0
H317 H 0.35079 0.22065 0.59799 0.0
H318 H 0.38562 0.10108 0.62127 0.0
O319 O 0.28597 0.16316 0.63064 0.0
H320 H 0.28032 0.09339 0.70866 0.0
H321 H 0.23546 0.12429 0.65296 0.0
H322 H 0.22436 0.12244 0.69188 0.0
H323 H 0.24688 0.10689 0.72005 0.0
H324 H 0.29089 0.09574 0.66958 0.0
H325 H 0.2153 0.0627 0.62618 0.0
H326 H 0.19709 0.08017 0.59572 0.0
O327 O 0.26118 0.14022 0.62709 0.0
C328 C 0.29399 0.1271 0.58728 0.0
C329 C 0.21933 0.10375 0.59277 0.0
C330 C 0.22144 0.07637 0.61898 0.0
N331 N 0.24743 0.10165 0.61779 0.0
C332 C 0.23758 0.11128 0.60094 0.0
C333 C 0.23966 0.08433 0.62673 0.0
C334 C 0.21122 0.08618 0.6019 0.0
C335 C 0.34273 0.12051 0.64349 0.0
N336 N 0.33658 0.13231 0.62619 0.0
C337 C 0.36044 0.10912 0.64202 0.0
C338 C 0.37187 0.10984 0.62264 0.0
C339 C 0.36547 0.12187 0.60504 0.0
C340 C 0.34766 0.13304 0.6071 0.0
C341 C 0.35227 0.19546 0.62047 0.0
C342 C 0.31609 0.18307 0.60189 0.0
C343 C 0.34264 0.17784 0.62762 0.0
N344 N 0.32485 0.1718 0.61824 0.0
C345 C 0.32527 0.20077 0.59432 0.0
C346 C 0.3435 0.20696 0.60369 0.0
C347 C 0.26738 0.15841 0.62875 0.0
C348 C 0.27037 0.10017 0.69654 0.0
C349 C 0.24537 0.11759 0.66512 0.0
C350 C 0.23898 0.11652 0.68713 0.0
C351 C 0.25161 0.10778 0.70292 0.0
N352 N 0.2638 0.11014 0.65899 0.0
C353 C 0.27623 0.10147 0.67437 0.0
Co354 Co 0.85365 0.31138 0.62808 0.0
Co355 Co 0.88819 0.2722 0.62701 0.0
O356 O 0.87814 0.29785 0.63857 0.0
C357 C 0.84772 0.30592 0.67604 0.0
O358 O 0.85515 0.2877 0.67344 0.0
C359 C 0.92409 0.29872 0.62084 0.0
O360 O 0.91285 0.31132 0.6094 0.0
O361 O 0.88595 0.28219 0.59607 0.0
O362 O 0.86088 0.30519 0.59654 0.0
H363 H 0.88874 0.21233 0.57584 0.0
H364 H 0.88183 0.33262 0.65829 0.0
O365 O 0.84589 0.31773 0.65949 0.0
H366 H 0.87896 0.3746 0.59088 0.0
H367 H 0.8014 0.36667 0.62837 0.0
H368 H 0.82273 0.30256 0.5939 0.0
H369 H 0.8587 0.34343 0.59378 0.0
H370 H 0.83239 0.34934 0.64086 0.0
O371 O 0.91649 0.28268 0.62898 0.0
H372 H 0.87576 0.24442 0.59096 0.0
H373 H 0.92333 0.24586 0.63815 0.0
H374 H 0.79173 0.31946 0.58076 0.0
H375 H 0.90223 0.36378 0.65619 0.0
H376 H 0.78089 0.35175 0.59805 0.0
H377 H 0.9009 0.38497 0.62227 0.0
O378 O 0.83765 0.28591 0.63 0.0
H379 H 0.90799 0.27659 0.7072 0.0
H380 H 0.87483 0.23471 0.65026 0.0
H381 H 0.87664 0.22235 0.68874 0.0
H382 H 0.89334 0.24334 0.71751 0.0
H383 H 0.90565 0.28848 0.66858 0.0
H384 H 0.93692 0.21385 0.62343 0.0
H385 H 0.91954 0.19683 0.59211 0.0
O386 O 0.86027 0.26104 0.62493 0.0
C387 C 0.87387 0.29433 0.58634 0.0
C388 C 0.8964 0.21955 0.58955 0.0
C389 C 0.92346 0.22043 0.61624 0.0
N390 N 0.89864 0.24689 0.61557 0.0
C391 C 0.88908 0.23769 0.59823 0.0
C392 C 0.91571 0.23856 0.62449 0.0
C393 C 0.91369 0.21088 0.59867 0.0
C394 C 0.88107 0.34185 0.64354 0.0
N395 N 0.86905 0.33625 0.62621 0.0
C396 C 0.8927 0.35944 0.64242 0.0
C397 C 0.89196 0.37131 0.62337 0.0
C398 C 0.87967 0.36549 0.60575 0.0
C399 C 0.86827 0.3478 0.60746 0.0
C400 C 0.80599 0.35263 0.62068 0.0
C401 C 0.81817 0.31668 0.6014 0.0
C402 C 0.82349 0.34273 0.62772 0.0
N403 N 0.82943 0.32505 0.61799 0.0
C404 C 0.80058 0.32615 0.59394 0.0
C405 C 0.79449 0.34425 0.60366 0.0
C406 C 0.84219 0.26737 0.62722 0.0
C407 C 0.90074 0.26728 0.6948 0.0
C408 C 0.88205 0.24397 0.6627 0.0
C409 C 0.88308 0.23687 0.68445 0.0
C410 C 0.89248 0.24864 0.70058 0.0
N411 N 0.89019 0.26227 0.65716 0.0
C412 C 0.89945 0.27389 0.67288 0.0
Co413 Co 0.68921 0.85288 0.62705 0.0
Co414 Co 0.72797 0.88763 0.62574 0.0
O415 O 0.70248 0.87748 0.63743 0.0
C416 C 0.69435 0.84672 0.675 0.0
O417 O 0.71311 0.85252 0.67199 0.0
C418 C 0.70135 0.9235 0.62011 0.0
O419 O 0.68878 0.91227 0.60864 0.0
O420 O 0.7176 0.88578 0.59494 0.0
O421 O 0.69604 0.85947 0.59544 0.0
H422 H 0.78733 0.88885 0.57388 0.0
H423 H 0.66714 0.88136 0.65623 0.0
O424 O 0.68228 0.84586 0.65855 0.0
H425 H 0.62693 0.87762 0.58759 0.0
H426 H 0.63387 0.80071 0.62728 0.0
H427 H 0.69875 0.82119 0.59395 0.0
H428 H 0.65811 0.85754 0.59167 0.0
H429 H 0.65098 0.83194 0.6394 0.0
O430 O 0.71743 0.91591 0.6282 0.0
H431 H 0.75539 0.87565 0.5892 0.0
H432 H 0.75436 0.92267 0.63705 0.0
H433 H 0.68209 0.78993 0.58119 0.0
H434 H 0.63597 0.90159 0.65291 0.0
H435 H 0.64941 0.77952 0.59791 0.0
H436 H 0.61565 0.89981 0.61837 0.0
O437 O 0.71468 0.83703 0.62977 0.0
H438 H 0.72407 0.90585 0.7064 0.0
H439 H 0.76578 0.87418 0.64831 0.0
H440 H 0.77839 0.87526 0.68672 0.0
H441 H 0.75747 0.89119 0.71608 0.0
H442 H 0.71196 0.90429 0.6678 0.0
H443 H 0.78621 0.93648 0.62214 0.0
H444 H 0.80295 0.91948 0.59039 0.0
O445 O 0.7392 0.85969 0.62316 0.0
C446 C 0.70617 0.87303 0.58521 0.0
C447 C 0.78022 0.89634 0.58778 0.0
C448 C 0.77958 0.92309 0.61485 0.0
N449 N 0.75315 0.89825 0.61414 0.0
C450 C 0.76217 0.8889 0.59656 0.0
C451 C 0.76154 0.91522 0.6232 0.0
C452 C 0.78897 0.91354 0.59703 0.0
C453 C 0.65829 0.88039 0.64122 0.0
N454 N 0.66437 0.8682 0.62422 0.0
C455 C 0.64069 0.89193 0.63941 0.0
C456 C 0.62932 0.89095 0.62001 0.0
C457 C 0.63564 0.87851 0.60273 0.0
C458 C 0.65333 0.8672 0.60512 0.0
C459 C 0.64809 0.80511 0.61984 0.0
C460 C 0.68446 0.81682 0.60118 0.0
C461 C 0.65786 0.82276 0.62666 0.0
N462 N 0.67575 0.82846 0.61724 0.0
C463 C 0.67513 0.79908 0.59394 0.0
C464 C 0.65681 0.79323 0.60335 0.0
C465 C 0.73311 0.84162 0.62624 0.0
C466 C 0.73334 0.89892 0.69374 0.0
C467 C 0.75657 0.8811 0.66099 0.0
C468 C 0.76381 0.88171 0.68271 0.0
C469 C 0.75207 0.89067 0.69917 0.0
N470 N 0.73818 0.88924 0.6558 0.0
C471 C 0.72661 0.89808 0.67184 0.0
Co472 Co 0.85434 0.6908 0.62745 0.0
Co473 Co 0.88867 0.73025 0.62761 0.0
O474 O 0.87879 0.70421 0.63819 0.0
C475 C 0.84825 0.69631 0.67532 0.0
O476 O 0.85584 0.71446 0.6727 0.0
C477 C 0.92422 0.70363 0.61924 0.0
O478 O 0.91266 0.69139 0.60773 0.0
O479 O 0.88542 0.72163 0.5962 0.0
O480 O 0.86194 0.69699 0.59611 0.0
H481 H 0.88768 0.79249 0.57996 0.0
H482 H 0.88215 0.66949 0.65806 0.0
O483 O 0.84628 0.68451 0.65878 0.0
H484 H 0.8799 0.6275 0.59065 0.0
H485 H 0.80194 0.63565 0.62724 0.0
H486 H 0.82383 0.69959 0.5928 0.0
H487 H 0.8597 0.65874 0.59325 0.0
H488 H 0.83285 0.65292 0.64007 0.0
O489 O 0.91693 0.71954 0.628 0.0
H490 H 0.875 0.75983 0.59392 0.0
H491 H 0.92452 0.75576 0.63846 0.0
H492 H 0.79291 0.68275 0.57934 0.0
H493 H 0.90246 0.63827 0.65625 0.0
H494 H 0.78179 0.65055 0.59661 0.0
H495 H 0.90144 0.61706 0.62233 0.0
O496 O 0.8383 0.71627 0.62902 0.0
H497 H 0.91051 0.72174 0.70677 0.0
H498 H 0.87707 0.76703 0.65328 0.0
H499 H 0.88018 0.77755 0.6923 0.0
H500 H 0.89703 0.75483 0.71935 0.0
H501 H 0.90685 0.71172 0.66764 0.0
H502 H 0.93783 0.7883 0.62486 0.0
H503 H 0.91932 0.80692 0.59545 0.0
O504 O 0.86077 0.74163 0.62736 0.0
C505 C 0.87413 0.70891 0.58619 0.0
C506 C 0.89585 0.78455 0.59283 0.0
C507 C 0.924 0.78218 0.61801 0.0
N508 N 0.89891 0.75599 0.61711 0.0
C509 C 0.8887 0.76609 0.60085 0.0
C510 C 0.91642 0.76375 0.62561 0.0
C511 C 0.91361 0.79263 0.60151 0.0
C512 C 0.88152 0.66026 0.64331 0.0
N513 N 0.8697 0.66589 0.62581 0.0
C514 C 0.8931 0.64264 0.64235 0.0
C515 C 0.89254 0.63076 0.62331 0.0
C516 C 0.88047 0.63661 0.60552 0.0
C517 C 0.86911 0.65434 0.60706 0.0
C518 C 0.80665 0.64966 0.61956 0.0
C519 C 0.81915 0.68551 0.60029 0.0
C520 C 0.82411 0.65953 0.62678 0.0
N521 N 0.8302 0.67716 0.61707 0.0
C522 C 0.8016 0.67608 0.59265 0.0
C523 C 0.79536 0.65802 0.60236 0.0
C524 C 0.8427 0.73502 0.62826 0.0
C525 C 0.90317 0.73179 0.69513 0.0
C526 C 0.88431 0.75702 0.66497 0.0
C527 C 0.8861 0.76309 0.68703 0.0
C528 C 0.89557 0.75034 0.70219 0.0
N529 N 0.89176 0.73878 0.65818 0.0
C530 C 0.90113 0.72623 0.67294 0.0
Co531 Co 0.30938 0.85555 0.62756 0.0
Co532 Co 0.26921 0.88895 0.62667 0.0
O533 O 0.29532 0.87982 0.63783 0.0
C534 C 0.30407 0.84941 0.67549 0.0
O535 O 0.28526 0.85501 0.67235 0.0
C536 C 0.29543 0.92501 0.62028 0.0
O537 O 0.30946 0.91321 0.61196 0.0
O538 O 0.27866 0.88623 0.59554 0.0
O539 O 0.30259 0.86203 0.59598 0.0
H540 H 0.20818 0.88606 0.57729 0.0
H541 H 0.33042 0.88446 0.65718 0.0
O542 O 0.31623 0.84863 0.65912 0.0
H543 H 0.37113 0.88243 0.58882 0.0
H544 H 0.3663 0.8051 0.62825 0.0
H545 H 0.30114 0.82369 0.59421 0.0
H546 H 0.34055 0.86138 0.5925 0.0
H547 H 0.34812 0.83576 0.64027 0.0
O548 O 0.27881 0.91759 0.6271 0.0
H549 H 0.24099 0.87452 0.59202 0.0
H550 H 0.24203 0.92361 0.63729 0.0
H551 H 0.31888 0.793 0.58155 0.0
H552 H 0.36098 0.90564 0.65427 0.0
H553 H 0.3517 0.78354 0.59862 0.0
H554 H 0.38154 0.90474 0.61987 0.0
O555 O 0.28442 0.83878 0.62986 0.0
H556 H 0.27593 0.91015 0.7062 0.0
H557 H 0.23227 0.87623 0.65149 0.0
H558 H 0.22116 0.87852 0.69038 0.0
H559 H 0.24307 0.89559 0.71805 0.0
H560 H 0.28653 0.90733 0.66716 0.0
H561 H 0.20932 0.9358 0.62292 0.0
H562 H 0.19214 0.91692 0.59277 0.0
O563 O 0.25876 0.86069 0.6261 0.0
C564 C 0.29112 0.87449 0.58578 0.0
C565 C 0.21549 0.89438 0.59048 0.0
C566 C 0.21615 0.92232 0.61607 0.0
N567 N 0.24334 0.8983 0.61559 0.0
C568 C 0.23404 0.88789 0.59892 0.0
C569 C 0.23469 0.91538 0.62409 0.0
C570 C 0.20651 0.91171 0.59915 0.0
C571 C 0.33939 0.88385 0.64224 0.0
N572 N 0.33377 0.87162 0.62508 0.0
C573 C 0.35663 0.89594 0.64065 0.0
C574 C 0.36815 0.89544 0.62133 0.0
C575 C 0.36231 0.88294 0.6039 0.0
C576 C 0.34496 0.87109 0.60606 0.0
C577 C 0.35203 0.80909 0.62065 0.0
C578 C 0.31549 0.81974 0.6016 0.0
C579 C 0.34165 0.8264 0.62742 0.0
N580 N 0.32368 0.83158 0.61781 0.0
C581 C 0.32543 0.80232 0.59442 0.0
C582 C 0.34383 0.797 0.60402 0.0
C583 C 0.26565 0.84279 0.62806 0.0
C584 C 0.26624 0.9027 0.69429 0.0
C585 C 0.24192 0.88358 0.66344 0.0
C586 C 0.23553 0.8849 0.68543 0.0
C587 C 0.24782 0.8945 0.70094 0.0
N588 N 0.26003 0.89161 0.65706 0.0
C589 C 0.27212 0.90112 0.67215 0.0
Co590 Co 0.1454 0.30885 0.62643 0.0
Co591 Co 0.11225 0.26873 0.62373 0.0
O592 O 0.12127 0.29435 0.63628 0.0
C593 C 0.15135 0.30318 0.6744 0.0
O594 O 0.14627 0.28425 0.67104 0.0
C595 C 0.07587 0.29471 0.62006 0.0
O596 O 0.08743 0.30902 0.61192 0.0
O597 O 0.11379 0.27999 0.59334 0.0
O598 O 0.13935 0.30238 0.59455 0.0
H599 H 0.11404 0.21085 0.56994 0.0
H600 H 0.11596 0.32928 0.6559 0.0
O601 O 0.1519 0.31549 0.65815 0.0
H602 H 0.11835 0.37077 0.58811 0.0
H603 H 0.19525 0.36627 0.6284 0.0
H604 H 0.17771 0.30123 0.59345 0.0
H605 H 0.13965 0.34036 0.59167 0.0
H606 H 0.16465 0.34767 0.63982 0.0
O607 O 0.08351 0.27787 0.62594 0.0
H608 H 0.12565 0.24293 0.5864 0.0
H609 H 0.07849 0.24038 0.634 0.0
H610 H 0.20836 0.3194 0.58139 0.0
H611 H 0.09452 0.35967 0.65311 0.0
H612 H 0.21729 0.35216 0.59892 0.0
H613 H 0.0956 0.38062 0.61899 0.0
O614 O 0.16226 0.28401 0.62879 0.0
H615 H 0.0932 0.26992 0.70424 0.0
H616 H 0.12719 0.23101 0.64539 0.0
H617 H 0.12638 0.2175 0.68344 0.0
H618 H 0.10928 0.237 0.71318 0.0
H619 H 0.09453 0.28297 0.666 0.0
H620 H 0.06625 0.20836 0.61795 0.0
H621 H 0.08412 0.19335 0.58574 0.0
O622 O 0.14066 0.2588 0.62117 0.0
C623 C 0.12617 0.29204 0.58398 0.0
C624 C 0.10617 0.2172 0.58402 0.0
C625 C 0.07933 0.21581 0.61096 0.0
N626 N 0.10288 0.24341 0.61126 0.0
C627 C 0.11271 0.23533 0.59345 0.0
C628 C 0.08631 0.23396 0.61995 0.0
C629 C 0.08937 0.2074 0.59288 0.0
C630 C 0.11664 0.33842 0.64108 0.0
N631 N 0.12911 0.33311 0.62402 0.0
C632 C 0.10441 0.35557 0.63956 0.0
C633 C 0.10501 0.3673 0.6204 0.0
C634 C 0.11776 0.36177 0.60306 0.0
C635 C 0.12975 0.34451 0.60516 0.0
C636 C 0.19149 0.35203 0.62061 0.0
C637 C 0.18144 0.31555 0.60104 0.0
C638 C 0.17421 0.34142 0.62703 0.0
N639 N 0.16933 0.32348 0.61717 0.0
C640 C 0.19884 0.32574 0.59419 0.0
C641 C 0.20385 0.34411 0.60405 0.0
C642 C 0.15843 0.26551 0.6247 0.0
C643 C 0.10064 0.26126 0.69142 0.0
C644 C 0.11976 0.23961 0.65825 0.0
C645 C 0.1193 0.23186 0.67975 0.0
C646 C 0.10969 0.2428 0.69642 0.0
N647 N 0.11084 0.25773 0.65347 0.0
C648 C 0.10135 0.26852 0.66971 0.0
Co649 Co 0.69231 0.14507 0.62711 0.0
Co650 Co 0.7322 0.11121 0.6265 0.0
O651 O 0.70602 0.12054 0.63745 0.0
C652 C 0.69692 0.15031 0.67529 0.0
O653 O 0.71521 0.14299 0.67292 0.0
C654 C 0.70568 0.07531 0.61985 0.0
O655 O 0.69159 0.0872 0.61181 0.0
O656 O 0.72303 0.11419 0.59528 0.0
O657 O 0.69917 0.13844 0.59562 0.0
H658 H 0.79363 0.11385 0.57772 0.0
H659 H 0.67073 0.1165 0.65662 0.0
O660 O 0.68536 0.15232 0.65854 0.0
H661 H 0.63038 0.11902 0.58801 0.0
H662 H 0.63613 0.19635 0.62716 0.0
H663 H 0.70127 0.17675 0.5938 0.0
H664 H 0.66124 0.13963 0.59184 0.0
H665 H 0.65374 0.16544 0.63941 0.0
O666 O 0.72238 0.08265 0.62657 0.0
H667 H 0.76081 0.12559 0.59222 0.0
H668 H 0.75902 0.07625 0.63716 0.0
H669 H 0.6841 0.20769 0.58092 0.0
H670 H 0.63988 0.09575 0.65357 0.0
H671 H 0.65128 0.21766 0.59765 0.0
H672 H 0.6195 0.09691 0.61904 0.0
O673 O 0.71743 0.16147 0.62969 0.0
H674 H 0.72484 0.08888 0.7056 0.0
H675 H 0.76897 0.1235 0.65188 0.0
H676 H 0.77983 0.12054 0.6908 0.0
H677 H 0.75769 0.1031 0.71797 0.0
H678 H 0.71448 0.09241 0.66655 0.0
H679 H 0.79171 0.06386 0.62301 0.0
H680 H 0.80928 0.08276 0.59314 0.0
O681 O 0.74296 0.13937 0.6263 0.0
C682 C 0.71064 0.12596 0.58547 0.0
C683 C 0.78615 0.10551 0.59079 0.0
C684 C 0.78506 0.07744 0.61618 0.0
N685 N 0.75808 0.10169 0.61561 0.0
C686 C 0.7676 0.11212 0.5991 0.0
C687 C 0.76652 0.08449 0.62408 0.0
C688 C 0.79491 0.08806 0.59942 0.0
C689 C 0.66184 0.11721 0.64163 0.0
N690 N 0.66771 0.12934 0.62449 0.0
C691 C 0.64443 0.10538 0.63996 0.0
C692 C 0.63302 0.10601 0.62057 0.0
C693 C 0.63912 0.11841 0.60315 0.0
C694 C 0.65663 0.13001 0.60539 0.0
C695 C 0.65039 0.19214 0.6197 0.0
C696 C 0.68692 0.18092 0.60104 0.0
C697 C 0.66045 0.17468 0.6266 0.0
N698 N 0.67842 0.16922 0.61718 0.0
C699 C 0.6773 0.19849 0.59373 0.0
C700 C 0.6589 0.20409 0.60314 0.0
C701 C 0.73619 0.15732 0.62821 0.0
C702 C 0.73464 0.09649 0.69391 0.0
C703 C 0.7592 0.11603 0.66362 0.0
C704 C 0.76547 0.11431 0.68562 0.0
C705 C 0.75305 0.1045 0.70085 0.0
N706 N 0.7411 0.10818 0.65695 0.0
C707 C 0.72888 0.09846 0.67176 0.0
Co708 Co 0.85347 0.31155 0.3769 0.0
Co709 Co 0.88763 0.27229 0.37864 0.0
O710 O 0.87785 0.29779 0.3666 0.0
C711 C 0.84709 0.30602 0.32909 0.0
O712 O 0.85263 0.2872 0.3323 0.0
C713 C 0.92399 0.29837 0.38358 0.0
O714 O 0.91298 0.31135 0.39474 0.0
O715 O 0.88611 0.28313 0.40926 0.0
O716 O 0.86002 0.30494 0.40854 0.0
H717 H 0.888 0.21361 0.43146 0.0
H718 H 0.88222 0.33287 0.34737 0.0
O719 O 0.84648 0.31827 0.34537 0.0
H720 H 0.87934 0.3738 0.41553 0.0
H721 H 0.80221 0.36773 0.37614 0.0
H722 H 0.82168 0.30283 0.41016 0.0
H723 H 0.85873 0.34292 0.41188 0.0
H724 H 0.83314 0.35 0.36416 0.0
O725 O 0.91609 0.28227 0.37587 0.0
H726 H 0.87533 0.24559 0.4157 0.0
H727 H 0.92214 0.24511 0.36759 0.0
H728 H 0.79072 0.32011 0.42278 0.0
H729 H 0.90298 0.36373 0.35025 0.0
H730 H 0.78081 0.35281 0.40572 0.0
H731 H 0.90163 0.3844 0.38455 0.0
O732 O 0.8372 0.28632 0.37452 0.0
H733 H 0.90556 0.27476 0.29784 0.0
H734 H 0.87342 0.23441 0.35678 0.0
H735 H 0.8741 0.22126 0.31858 0.0
H736 H 0.89028 0.24149 0.2888 0.0
H737 H 0.90438 0.28742 0.33624 0.0
H738 H 0.93542 0.21321 0.38293 0.0
H739 H 0.91826 0.1972 0.41504 0.0
O740 O 0.85951 0.26158 0.38154 0.0
C741 C 0.87352 0.29482 0.41886 0.0
C742 C 0.89557 0.22039 0.41741 0.0
C743 C 0.92219 0.22018 0.39019 0.0
N744 N 0.89786 0.24709 0.39061 0.0
C745 C 0.88842 0.23847 0.40838 0.0
C746 C 0.91463 0.23826 0.3816 0.0
C747 C 0.91255 0.21121 0.4082 0.0
C748 C 0.88144 0.34188 0.36227 0.0
N749 N 0.8692 0.33617 0.37938 0.0
C750 C 0.89328 0.3593 0.36384 0.0
C751 C 0.89253 0.37087 0.3831 0.0
C752 C 0.88003 0.36493 0.40049 0.0
C753 C 0.86843 0.34741 0.39835 0.0
C754 C 0.80639 0.35351 0.38374 0.0
C755 C 0.81754 0.31712 0.40278 0.0
C756 C 0.82386 0.3434 0.377 0.0
N757 N 0.82929 0.3255 0.38661 0.0
C758 C 0.79996 0.32681 0.40994 0.0
C759 C 0.79439 0.34514 0.40034 0.0
C760 C 0.84152 0.26788 0.37836 0.0
C761 C 0.89853 0.26578 0.31068 0.0
C762 C 0.88044 0.24332 0.34391 0.0
C763 C 0.88083 0.23578 0.32231 0.0
C764 C 0.88992 0.24713 0.30562 0.0
N765 N 0.88892 0.26164 0.34875 0.0
C766 C 0.89789 0.27283 0.33247 0.0
Co767 Co 0.68848 0.85348 0.37617 0.0
Co768 Co 0.72759 0.88823 0.37615 0.0
O769 O 0.70163 0.87815 0.36553 0.0
C770 C 0.69374 0.84762 0.32814 0.0
O771 O 0.7118 0.85546 0.33059 0.0
C772 C 0.70115 0.92393 0.38503 0.0
O773 O 0.68916 0.91259 0.3971 0.0
O774 O 0.71897 0.88488 0.40758 0.0
O775 O 0.69476 0.86096 0.40754 0.0
H776 H 0.78979 0.88765 0.42386 0.0
H777 H 0.66676 0.88124 0.34586 0.0
O778 O 0.6821 0.8455 0.3448 0.0
H779 H 0.62514 0.87827 0.41351 0.0
H780 H 0.63382 0.80059 0.37637 0.0
H781 H 0.69774 0.82286 0.41054 0.0
H782 H 0.65655 0.85838 0.4106 0.0
H783 H 0.65074 0.83172 0.36365 0.0
O784 O 0.71672 0.91643 0.37576 0.0
H785 H 0.75723 0.87476 0.40988 0.0
H786 H 0.75289 0.92425 0.36532 0.0
H787 H 0.68126 0.79172 0.4239 0.0
H788 H 0.63536 0.90125 0.34797 0.0
H789 H 0.64906 0.7804 0.40677 0.0
H790 H 0.61434 0.89986 0.38201 0.0
O791 O 0.7141 0.83768 0.37434 0.0
H792 H 0.71897 0.91005 0.29701 0.0
H793 H 0.76446 0.8769 0.3505 0.0
H794 H 0.77498 0.88009 0.31149 0.0
H795 H 0.75216 0.8968 0.28444 0.0
H796 H 0.70896 0.90631 0.33613 0.0
H797 H 0.78533 0.93775 0.37895 0.0
H798 H 0.80405 0.91937 0.40837 0.0
O799 O 0.73917 0.86045 0.37641 0.0
C800 C 0.70648 0.87331 0.41754 0.0
C801 C 0.78181 0.89576 0.41099 0.0
C802 C 0.77929 0.9239 0.3858 0.0
N803 N 0.75325 0.89865 0.38669 0.0
C804 C 0.7634 0.8885 0.40296 0.0
C805 C 0.76091 0.9162 0.37819 0.0
C806 C 0.78979 0.91357 0.4023 0.0
C807 C 0.65762 0.88046 0.36066 0.0
N808 N 0.66344 0.86861 0.37805 0.0
C809 C 0.63989 0.89186 0.36179 0.0
C810 C 0.62811 0.8911 0.3809 0.0
C811 C 0.63416 0.87899 0.39858 0.0
C812 C 0.652 0.86781 0.39687 0.0
C813 C 0.64782 0.80538 0.38399 0.0
C814 C 0.68366 0.81809 0.40311 0.0
C815 C 0.65749 0.82297 0.37683 0.0
N816 N 0.67512 0.82916 0.38646 0.0
C817 C 0.67443 0.80042 0.41069 0.0
C818 C 0.65638 0.79407 0.40106 0.0
C819 C 0.73279 0.84231 0.37528 0.0
C820 C 0.72906 0.90278 0.30864 0.0
C821 C 0.7544 0.88407 0.33881 0.0
C822 C 0.76047 0.88591 0.31676 0.0
C823 C 0.74767 0.89531 0.3016 0.0
N824 N 0.73611 0.8914 0.3456 0.0
C825 C 0.72351 0.90069 0.33084 0.0
Co826 Co 0.14701 0.68862 0.3757 0.0
Co827 Co 0.11297 0.728 0.37731 0.0
O828 O 0.12277 0.70253 0.36525 0.0
C829 C 0.15375 0.69463 0.3281 0.0
O830 O 0.14828 0.71343 0.33156 0.0
C831 C 0.07659 0.70196 0.38174 0.0
O832 O 0.08753 0.68889 0.39288 0.0
O833 O 0.11426 0.71703 0.40789 0.0
O834 O 0.14019 0.69501 0.4073 0.0
H835 H 0.11234 0.78642 0.43044 0.0
H836 H 0.11848 0.6676 0.34565 0.0
O837 O 0.15424 0.68216 0.3442 0.0
H838 H 0.12062 0.62616 0.41349 0.0
H839 H 0.1981 0.63228 0.37499 0.0
H840 H 0.17851 0.69696 0.40942 0.0
H841 H 0.14134 0.65701 0.41034 0.0
H842 H 0.16735 0.65022 0.36281 0.0
O843 O 0.08453 0.71811 0.37423 0.0
H844 H 0.12505 0.75449 0.41463 0.0
H845 H 0.07862 0.75532 0.36607 0.0
H846 H 0.20928 0.67945 0.42225 0.0
H847 H 0.09762 0.63677 0.34803 0.0
H848 H 0.21925 0.64687 0.40498 0.0
H849 H 0.09859 0.61584 0.38216 0.0
O850 O 0.16339 0.71381 0.37375 0.0
H851 H 0.09566 0.72587 0.29633 0.0
H852 H 0.12744 0.76593 0.35575 0.0
H853 H 0.12709 0.77921 0.31759 0.0
H854 H 0.11111 0.75913 0.28757 0.0
H855 H 0.09651 0.71307 0.33469 0.0
H856 H 0.0653 0.78718 0.38146 0.0
H857 H 0.08225 0.80298 0.41382 0.0
O858 O 0.14108 0.73861 0.38052 0.0
C859 C 0.12669 0.70519 0.41753 0.0
C860 C 0.10487 0.77973 0.41628 0.0
C861 C 0.07846 0.78014 0.38881 0.0
N862 N 0.10272 0.75318 0.38931 0.0
C863 C 0.11204 0.76169 0.40721 0.0
C864 C 0.08605 0.76209 0.38018 0.0
C865 C 0.08797 0.789 0.40696 0.0
C866 C 0.1191 0.65848 0.36048 0.0
N867 N 0.13119 0.66403 0.37778 0.0
C868 C 0.1072 0.64108 0.36177 0.0
C869 C 0.10773 0.62935 0.38093 0.0
C870 C 0.12009 0.63514 0.39852 0.0
C871 C 0.13175 0.65264 0.39666 0.0
C872 C 0.19389 0.64644 0.38268 0.0
C873 C 0.18268 0.68271 0.40195 0.0
C874 C 0.17652 0.65668 0.37582 0.0
N875 N 0.17106 0.67451 0.38555 0.0
C876 C 0.20015 0.6729 0.40923 0.0
C877 C 0.20574 0.65463 0.39951 0.0
C878 C 0.15908 0.73225 0.37758 0.0
C879 C 0.10262 0.73479 0.30928 0.0
C880 C 0.12049 0.75708 0.34277 0.0
C881 C 0.1203 0.7647 0.3212 0.0
C882 C 0.11131 0.75344 0.30437 0.0
N883 N 0.11193 0.73877 0.34745 0.0
C884 C 0.10306 0.72766 0.33105 0.0
Co885 Co 0.31138 0.14651 0.37824 0.0
Co886 Co 0.27146 0.11282 0.3789 0.0
O887 O 0.29741 0.12232 0.36765 0.0
C888 C 0.30607 0.15257 0.33034 0.0
O889 O 0.28771 0.1455 0.33297 0.0
C890 C 0.29748 0.07664 0.38556 0.0
O891 O 0.31028 0.0879 0.39669 0.0
O892 O 0.28108 0.11508 0.40996 0.0
O893 O 0.30497 0.13931 0.40973 0.0
H894 H 0.21089 0.11376 0.42908 0.0
H895 H 0.33212 0.11799 0.34798 0.0
O896 O 0.31793 0.1542 0.34687 0.0
H897 H 0.374 0.11981 0.41551 0.0
H898 H 0.36771 0.19764 0.37816 0.0
H899 H 0.30316 0.17751 0.41251 0.0
H900 H 0.34325 0.14071 0.4126 0.0
H901 H 0.34978 0.16703 0.36557 0.0
O902 O 0.28148 0.08432 0.37739 0.0
H903 H 0.24342 0.12604 0.41436 0.0
H904 H 0.24465 0.07805 0.36768 0.0
H905 H 0.32066 0.20814 0.42575 0.0
H906 H 0.36285 0.09696 0.3501 0.0
H907 H 0.35317 0.21837 0.40852 0.0
H908 H 0.384 0.09776 0.38408 0.0
O909 O 0.28626 0.16306 0.3763 0.0
H910 H 0.27653 0.09234 0.29896 0.0
H911 H 0.23452 0.12667 0.35495 0.0
H912 H 0.22263 0.1248 0.31629 0.0
H913 H 0.24369 0.10751 0.28801 0.0
H914 H 0.28796 0.09476 0.33775 0.0
H915 H 0.21221 0.06515 0.38201 0.0
H916 H 0.19507 0.0831 0.41287 0.0
O917 O 0.2608 0.14097 0.38055 0.0
C918 C 0.29356 0.12671 0.41981 0.0
C919 C 0.21817 0.10586 0.41556 0.0
C920 C 0.21893 0.07856 0.38917 0.0
N921 N 0.24581 0.10291 0.39003 0.0
C922 C 0.23655 0.11278 0.40711 0.0
C923 C 0.23731 0.08592 0.38115 0.0
C924 C 0.20931 0.08864 0.40648 0.0
C925 C 0.34133 0.11852 0.36276 0.0
N926 N 0.33594 0.13061 0.38012 0.0
C927 C 0.35868 0.10654 0.36389 0.0
C928 C 0.37052 0.10698 0.38297 0.0
C929 C 0.36491 0.11934 0.40061 0.0
C930 C 0.34746 0.13109 0.3989 0.0
C931 C 0.35357 0.19331 0.38583 0.0
C932 C 0.31737 0.1818 0.40504 0.0
C933 C 0.34333 0.17603 0.37873 0.0
N934 N 0.32553 0.17042 0.38842 0.0
C935 C 0.32718 0.19919 0.41256 0.0
C936 C 0.34541 0.20494 0.40287 0.0
C937 C 0.26757 0.15892 0.37859 0.0
C938 C 0.26719 0.09986 0.31115 0.0
C939 C 0.24381 0.11919 0.34272 0.0
C940 C 0.23697 0.11813 0.32087 0.0
C941 C 0.24878 0.1084 0.30501 0.0
N942 N 0.26189 0.11077 0.34862 0.0
C943 C 0.27354 0.10118 0.33316 0.0
Co944 Co 0.64471 0.80815 0.87607 0.0
Co945 Co 0.6111 0.76815 0.87691 0.0
O946 O 0.62037 0.79422 0.86576 0.0
C947 C 0.6509 0.80294 0.82811 0.0
O948 O 0.6452 0.78414 0.83113 0.0
C949 C 0.57519 0.79452 0.88344 0.0
O950 O 0.58707 0.80844 0.89186 0.0
O951 O 0.61385 0.77759 0.90806 0.0
O952 O 0.63816 0.80138 0.90761 0.0
H953 H 0.61359 0.70713 0.92633 0.0
H954 H 0.61591 0.82936 0.84645 0.0
O955 O 0.65169 0.81502 0.84454 0.0
H956 H 0.61812 0.87002 0.91484 0.0
H957 H 0.69543 0.86482 0.87556 0.0
H958 H 0.67649 0.7997 0.90944 0.0
H959 H 0.63901 0.83933 0.91116 0.0
H960 H 0.6647 0.84682 0.86346 0.0
O961 O 0.58253 0.77791 0.87646 0.0
H962 H 0.62534 0.73986 0.91161 0.0
H963 H 0.5763 0.74116 0.86625 0.0
H964 H 0.70726 0.81727 0.92218 0.0
H965 H 0.59488 0.86003 0.84937 0.0
H966 H 0.71689 0.85008 0.90519 0.0
H967 H 0.59587 0.88056 0.88378 0.0
O968 O 0.66132 0.7831 0.87376 0.0
H969 H 0.58999 0.77496 0.79737 0.0
H970 H 0.62368 0.73116 0.85212 0.0
H971 H 0.62138 0.72006 0.81323 0.0
H972 H 0.60442 0.74204 0.78554 0.0
H973 H 0.59282 0.78555 0.83641 0.0
H974 H 0.56391 0.70854 0.88061 0.0
H975 H 0.58266 0.69126 0.91082 0.0
O976 O 0.6393 0.75754 0.87754 0.0
C977 C 0.62565 0.78998 0.91781 0.0
C978 C 0.60532 0.71448 0.91313 0.0
C979 C 0.57743 0.71529 0.88749 0.0
N980 N 0.6016 0.74234 0.888 0.0
C981 C 0.61193 0.73299 0.90469 0.0
C982 C 0.58448 0.73378 0.87946 0.0
C983 C 0.58796 0.7056 0.90443 0.0
C984 C 0.61655 0.83832 0.8614 0.0
N985 N 0.62875 0.83263 0.87856 0.0
C986 C 0.60456 0.85562 0.86299 0.0
C987 C 0.6051 0.86712 0.88231 0.0
C988 C 0.61757 0.86121 0.89975 0.0
C989 C 0.62933 0.8438 0.89759 0.0
C990 C 0.69136 0.85056 0.88313 0.0
C991 C 0.68052 0.81404 0.90208 0.0
C992 C 0.67401 0.84028 0.87631 0.0
N993 N 0.66874 0.82232 0.88587 0.0
C994 C 0.69799 0.82389 0.90931 0.0
C995 C 0.7034 0.84228 0.89976 0.0
C996 C 0.65723 0.76434 0.87561 0.0
C997 C 0.59739 0.76524 0.80928 0.0
C998 C 0.61638 0.74084 0.84016 0.0
C999 C 0.61505 0.73445 0.81817 0.0
C1000 C 0.60551 0.74678 0.80265 0.0
N1001 N 0.60842 0.75899 0.84653 0.0
C1002 C 0.59897 0.77112 0.83143 0.0
Co1003 Co 0.19071 0.64552 0.87539 0.0
Co1004 Co 0.23027 0.61159 0.87784 0.0
O1005 O 0.2047 0.62105 0.86539 0.0
C1006 C 0.19573 0.65076 0.82729 0.0
O1007 O 0.21408 0.64364 0.82982 0.0
C1008 C 0.20405 0.57529 0.88181 0.0
O1009 O 0.18981 0.58682 0.89014 0.0
O1010 O 0.21911 0.61323 0.90825 0.0
O1011 O 0.19722 0.63922 0.90711 0.0
H1012 H 0.28827 0.61253 0.93152 0.0
H1013 H 0.16955 0.61661 0.84596 0.0
O1014 O 0.18399 0.65253 0.84389 0.0
H1015 H 0.12849 0.61955 0.91403 0.0
H1016 H 0.13428 0.69654 0.87435 0.0
H1017 H 0.19932 0.67756 0.90839 0.0
H1018 H 0.15928 0.64029 0.91035 0.0
H1019 H 0.15212 0.66562 0.86256 0.0
O1020 O 0.22079 0.58296 0.87566 0.0
H1021 H 0.25631 0.62457 0.91515 0.0
H1022 H 0.25821 0.57748 0.86742 0.0
H1023 H 0.18192 0.70852 0.92082 0.0
H1024 H 0.13877 0.59573 0.84887 0.0
H1025 H 0.14915 0.71818 0.90375 0.0
H1026 H 0.11804 0.5971 0.88313 0.0
O1027 O 0.21583 0.66187 0.87281 0.0
H1028 H 0.22893 0.59188 0.79752 0.0
H1029 H 0.26806 0.62617 0.856 0.0
H1030 H 0.28159 0.62487 0.81798 0.0
H1031 H 0.26199 0.6076 0.78844 0.0
H1032 H 0.21585 0.59373 0.83572 0.0
H1033 H 0.2901 0.56482 0.88338 0.0
H1034 H 0.30539 0.58244 0.91561 0.0
O1035 O 0.24066 0.63984 0.88041 0.0
C1036 C 0.20729 0.62581 0.91762 0.0
C1037 C 0.2818 0.60477 0.91743 0.0
C1038 C 0.28281 0.57797 0.89043 0.0
N1039 N 0.25551 0.60186 0.89023 0.0
C1040 C 0.26374 0.61155 0.90805 0.0
C1041 C 0.26473 0.58519 0.88149 0.0
C1042 C 0.29138 0.58787 0.90851 0.0
C1043 C 0.1605 0.61741 0.86084 0.0
N1044 N 0.16614 0.62972 0.87791 0.0
C1045 C 0.14313 0.6055 0.86243 0.0
C1046 C 0.13153 0.60625 0.88166 0.0
C1047 C 0.13739 0.61884 0.89902 0.0
C1048 C 0.15486 0.63051 0.89685 0.0
C1049 C 0.14852 0.69246 0.88195 0.0
C1050 C 0.185 0.6816 0.901 0.0
C1051 C 0.15871 0.675 0.87532 0.0
N1052 N 0.17665 0.66971 0.88493 0.0
C1053 C 0.17525 0.69917 0.90805 0.0
C1054 C 0.15687 0.7046 0.89845 0.0
C1055 C 0.23426 0.65773 0.87686 0.0
C1056 C 0.23764 0.59939 0.81026 0.0
C1057 C 0.25939 0.6187 0.84322 0.0
C1058 C 0.26716 0.61796 0.82173 0.0
C1059 C 0.25617 0.60825 0.80517 0.0
N1060 N 0.2412 0.60999 0.84808 0.0
C1061 C 0.23036 0.6004 0.83194 0.0
Co1062 Co 0.35573 0.19092 0.87717 0.0
Co1063 Co 0.3882 0.23175 0.87961 0.0
O1064 O 0.37951 0.20594 0.86724 0.0
C1065 C 0.34897 0.19746 0.82952 0.0
O1066 O 0.35411 0.21634 0.83309 0.0
C1067 C 0.42465 0.20601 0.88444 0.0
O1068 O 0.413 0.19169 0.89243 0.0
O1069 O 0.38614 0.221 0.91021 0.0
O1070 O 0.36235 0.19672 0.90895 0.0
H1071 H 0.38514 0.29044 0.93229 0.0
H1072 H 0.38507 0.17177 0.84658 0.0
O1073 O 0.34871 0.1849 0.84553 0.0
H1074 H 0.38419 0.12835 0.91295 0.0
H1075 H 0.30655 0.13293 0.87471 0.0
H1076 H 0.3241 0.19724 0.91125 0.0
H1077 H 0.36234 0.15847 0.9107 0.0
H1078 H 0.33666 0.1522 0.86308 0.0
O1079 O 0.41703 0.22274 0.87819 0.0
H1080 H 0.37401 0.25804 0.9162 0.0
H1081 H 0.42197 0.26014 0.86954 0.0
H1082 H 0.29395 0.17838 0.92354 0.0
H1083 H 0.40705 0.14169 0.84804 0.0
H1084 H 0.28501 0.14598 0.90521 0.0
H1085 H 0.40674 0.11977 0.88144 0.0
O1086 O 0.33838 0.21559 0.87587 0.0
H1087 H 0.40858 0.22946 0.79952 0.0
H1088 H 0.37341 0.26904 0.85699 0.0
H1089 H 0.37477 0.28198 0.81871 0.0
H1090 H 0.39246 0.26214 0.78968 0.0
H1091 H 0.40673 0.21699 0.83797 0.0
H1092 H 0.43374 0.29249 0.88524 0.0
H1093 H 0.41522 0.30789 0.91679 0.0
O1094 O 0.35975 0.24146 0.88143 0.0
C1095 C 0.37468 0.20803 0.91952 0.0
C1096 C 0.39329 0.28392 0.91849 0.0
C1097 C 0.42059 0.28506 0.8921 0.0
N1098 N 0.39721 0.25732 0.89182 0.0
C1099 C 0.38702 0.26562 0.90926 0.0
C1100 C 0.41387 0.26673 0.88331 0.0
C1101 C 0.41018 0.29369 0.9098 0.0
C1102 C 0.38473 0.16221 0.86109 0.0
N1103 N 0.3724 0.16684 0.87851 0.0
C1104 C 0.39726 0.14524 0.86186 0.0
C1105 C 0.3971 0.13297 0.88061 0.0
C1106 C 0.38446 0.13778 0.8983 0.0
C1107 C 0.37216 0.15489 0.89697 0.0
C1108 C 0.31031 0.14701 0.88285 0.0
C1109 C 0.32037 0.18309 0.9033 0.0
C1110 C 0.3273 0.15801 0.8763 0.0
N1111 N 0.33219 0.17574 0.88659 0.0
C1112 C 0.30325 0.17251 0.91028 0.0
C1113 C 0.29823 0.15434 0.89997 0.0
C1114 C 0.34202 0.23431 0.87898 0.0
C1115 C 0.40089 0.23827 0.81204 0.0
C1116 C 0.38112 0.26031 0.84444 0.0
C1117 C 0.38187 0.26773 0.8228 0.0
C1118 C 0.39181 0.2566 0.80652 0.0
N1119 N 0.39007 0.24232 0.84972 0.0
C1120 C 0.39987 0.23134 0.83386 0.0
Co1121 Co 0.80896 0.35556 0.87691 0.0
Co1122 Co 0.76841 0.38857 0.87828 0.0
O1123 O 0.79442 0.37957 0.86657 0.0
C1124 C 0.80338 0.34953 0.82895 0.0
O1125 O 0.785 0.35653 0.83163 0.0
C1126 C 0.79455 0.42476 0.88344 0.0
O1127 O 0.8088 0.41299 0.89137 0.0
O1128 O 0.77845 0.38632 0.90915 0.0
O1129 O 0.80281 0.36258 0.90854 0.0
H1130 H 0.70857 0.38603 0.9294 0.0
H1131 H 0.82896 0.38434 0.84634 0.0
O1132 O 0.81531 0.34799 0.84544 0.0
H1133 H 0.87148 0.38337 0.9134 0.0
H1134 H 0.86619 0.30544 0.87601 0.0
H1135 H 0.80164 0.32435 0.9112 0.0
H1136 H 0.84106 0.36196 0.91089 0.0
H1137 H 0.84759 0.33575 0.86371 0.0
O1138 O 0.77775 0.4173 0.8772 0.0
H1139 H 0.74116 0.37456 0.91409 0.0
H1140 H 0.74063 0.42273 0.86761 0.0
H1141 H 0.81983 0.29401 0.92415 0.0
H1142 H 0.85935 0.40587 0.84805 0.0
H1143 H 0.85234 0.28439 0.9065 0.0
H1144 H 0.88081 0.40552 0.8818 0.0
O1145 O 0.78411 0.33858 0.87527 0.0
H1146 H 0.7724 0.40979 0.79851 0.0
H1147 H 0.73151 0.37421 0.85457 0.0
H1148 H 0.71929 0.37614 0.81605 0.0
H1149 H 0.73978 0.39405 0.78772 0.0
H1150 H 0.78416 0.40733 0.83718 0.0
H1151 H 0.70811 0.43483 0.88254 0.0
H1152 H 0.69183 0.41639 0.91361 0.0
O1153 O 0.75831 0.36024 0.87972 0.0
C1154 C 0.79128 0.37493 0.9188 0.0
C1155 C 0.71547 0.39416 0.91581 0.0
C1156 C 0.71523 0.42156 0.88953 0.0
N1157 N 0.74269 0.39785 0.88985 0.0
C1158 C 0.73389 0.38769 0.90702 0.0
C1159 C 0.73366 0.41466 0.88117 0.0
C1160 C 0.7061 0.4112 0.90696 0.0
C1161 C 0.83832 0.38398 0.861 0.0
N1162 N 0.83328 0.37187 0.87847 0.0
C1163 C 0.85547 0.39626 0.86191 0.0
C1164 C 0.86749 0.39607 0.88086 0.0
C1165 C 0.86225 0.38366 0.8986 0.0
C1166 C 0.84498 0.37161 0.89712 0.0
C1167 C 0.85205 0.3095 0.88386 0.0
C1168 C 0.81585 0.32032 0.90355 0.0
C1169 C 0.84144 0.32661 0.87693 0.0
N1170 N 0.82363 0.33188 0.88685 0.0
C1171 C 0.82605 0.3031 0.9109 0.0
C1172 C 0.84428 0.2977 0.90097 0.0
C1173 C 0.76536 0.34242 0.87769 0.0
C1174 C 0.7633 0.40201 0.81072 0.0
C1175 C 0.74055 0.38198 0.84233 0.0
C1176 C 0.73352 0.38307 0.82055 0.0
C1177 C 0.74502 0.39314 0.80467 0.0
N1178 N 0.7585 0.39072 0.84813 0.0
C1179 C 0.76984 0.40065 0.83266 0.0
Co1180 Co 0.64737 0.18932 0.12712 0.0
Co1181 Co 0.61315 0.22851 0.12567 0.0
O1182 O 0.62304 0.203 0.13758 0.0
C1183 C 0.65388 0.19455 0.175 0.0
O1184 O 0.64839 0.2134 0.17191 0.0
C1185 C 0.57694 0.20227 0.12117 0.0
O1186 O 0.58797 0.18935 0.10994 0.0
O1187 O 0.61447 0.21775 0.095 0.0
O1188 O 0.64073 0.19614 0.09549 0.0
H1189 H 0.61225 0.28724 0.07293 0.0
H1190 H 0.61871 0.16778 0.15657 0.0
O1191 O 0.65444 0.18239 0.15862 0.0
H1192 H 0.62144 0.12731 0.08807 0.0
H1193 H 0.69866 0.13317 0.12729 0.0
H1194 H 0.67904 0.19824 0.09378 0.0
H1195 H 0.64204 0.15817 0.0919 0.0
H1196 H 0.66777 0.15081 0.13952 0.0
O1197 O 0.58475 0.21847 0.12871 0.0
H1198 H 0.62509 0.25527 0.08851 0.0
H1199 H 0.57872 0.25564 0.13713 0.0
H1200 H 0.70996 0.18104 0.08091 0.0
H1201 H 0.59797 0.13693 0.1535 0.0
H1202 H 0.71995 0.14826 0.09771 0.0
H1203 H 0.59923 0.11648 0.11903 0.0
O1204 O 0.6636 0.21455 0.12963 0.0
H1205 H 0.59584 0.2259 0.20663 0.0
H1206 H 0.62753 0.26635 0.14748 0.0
H1207 H 0.62713 0.27943 0.18571 0.0
H1208 H 0.61119 0.25916 0.2156 0.0
H1209 H 0.59673 0.2133 0.1682 0.0
H1210 H 0.56526 0.28754 0.12197 0.0
H1211 H 0.58212 0.3036 0.0897 0.0
O1212 O 0.64125 0.23924 0.1225 0.0
C1213 C 0.62715 0.20625 0.08526 0.0
C1214 C 0.60482 0.28044 0.08706 0.0
C1215 C 0.57844 0.28059 0.11456 0.0
N1216 N 0.6028 0.25372 0.11385 0.0
C1217 C 0.61207 0.26237 0.09599 0.0
C1218 C 0.58611 0.26252 0.12305 0.0
C1219 C 0.5879 0.28959 0.09645 0.0
C1220 C 0.61946 0.15887 0.14159 0.0
N1221 N 0.63165 0.1647 0.12449 0.0
C1222 C 0.60763 0.14146 0.13992 0.0
C1223 C 0.60833 0.13001 0.12056 0.0
C1224 C 0.62078 0.13607 0.10318 0.0
C1225 C 0.63238 0.15359 0.10543 0.0
C1226 C 0.69445 0.14742 0.11981 0.0
C1227 C 0.68322 0.18391 0.10105 0.0
C1228 C 0.677 0.15749 0.12669 0.0
N1229 N 0.67153 0.17544 0.11722 0.0
C1230 C 0.70078 0.17427 0.09375 0.0
C1231 C 0.70638 0.15589 0.10321 0.0
C1232 C 0.65924 0.23296 0.12569 0.0
C1233 C 0.60277 0.2349 0.19374 0.0
C1234 C 0.6206 0.25742 0.1604 0.0
C1235 C 0.62038 0.26492 0.18201 0.0
C1236 C 0.61142 0.25355 0.19877 0.0
N1237 N 0.61209 0.23911 0.1556 0.0
C1238 C 0.60324 0.22789 0.17193 0.0
Co1239 Co 0.8121 0.64725 0.1278 0.0
Co1240 Co 0.77256 0.61322 0.12691 0.0
O1241 O 0.79823 0.62307 0.13844 0.0
C1242 C 0.80611 0.65437 0.17543 0.0
O1243 O 0.78737 0.64859 0.1722 0.0
C1244 C 0.79883 0.57714 0.12107 0.0
O1245 O 0.81153 0.58833 0.10972 0.0
O1246 O 0.7826 0.61516 0.09597 0.0
O1247 O 0.8059 0.63996 0.09629 0.0
H1248 H 0.71269 0.61294 0.07571 0.0
H1249 H 0.83288 0.61893 0.15829 0.0
O1250 O 0.81845 0.65489 0.15923 0.0
H1251 H 0.87503 0.6208 0.09098 0.0
H1252 H 0.86817 0.69864 0.12816 0.0
H1253 H 0.80393 0.67813 0.09337 0.0
H1254 H 0.84414 0.64152 0.09364 0.0
H1255 H 0.8503 0.66798 0.14071 0.0
O1256 O 0.78278 0.58483 0.12913 0.0
H1257 H 0.74491 0.62571 0.09076 0.0
H1258 H 0.74588 0.57842 0.1383 0.0
H1259 H 0.82138 0.7088 0.08016 0.0
H1260 H 0.86374 0.59808 0.15642 0.0
H1261 H 0.85373 0.71923 0.09761 0.0
H1262 H 0.88503 0.59891 0.12255 0.0
O1263 O 0.78682 0.66365 0.12939 0.0
H1264 H 0.777 0.59465 0.20745 0.0
H1265 H 0.7351 0.62699 0.14994 0.0
H1266 H 0.72283 0.6259 0.18848 0.0
H1267 H 0.74384 0.60963 0.21754 0.0
H1268 H 0.78877 0.59622 0.16873 0.0
H1269 H 0.71374 0.56504 0.12366 0.0
H1270 H 0.6969 0.58239 0.0922 0.0
O1271 O 0.76171 0.64125 0.12459 0.0
C1272 C 0.79488 0.62705 0.08617 0.0
C1273 C 0.71984 0.6053 0.08948 0.0
C1274 C 0.72045 0.5784 0.11638 0.0
N1275 N 0.74715 0.60295 0.11553 0.0
C1276 C 0.73805 0.6125 0.09812 0.0
C1277 C 0.73865 0.58603 0.12457 0.0
C1278 C 0.711 0.58814 0.09873 0.0
C1279 C 0.84215 0.61947 0.14356 0.0
N1280 N 0.83675 0.63147 0.12612 0.0
C1281 C 0.85957 0.60759 0.14257 0.0
C1282 C 0.87149 0.60804 0.12355 0.0
C1283 C 0.86588 0.62031 0.10583 0.0
C1284 C 0.84835 0.63197 0.1074 0.0
C1285 C 0.8541 0.69423 0.1204 0.0
C1286 C 0.81807 0.68251 0.10093 0.0
C1287 C 0.84389 0.67692 0.12747 0.0
N1288 N 0.82617 0.67121 0.11766 0.0
C1289 C 0.82785 0.69992 0.09344 0.0
C1290 C 0.84599 0.70578 0.10325 0.0
C1291 C 0.76821 0.65928 0.12663 0.0
C1292 C 0.76768 0.60172 0.19492 0.0
C1293 C 0.74435 0.61991 0.1625 0.0
C1294 C 0.7373 0.6193 0.18429 0.0
C1295 C 0.74909 0.61016 0.20058 0.0
N1296 N 0.7626 0.61159 0.15708 0.0
C1297 C 0.77423 0.60258 0.17295 0.0
Co1298 Co 0.35354 0.81124 0.12707 0.0
Co1299 Co 0.38802 0.77189 0.12767 0.0
O1300 O 0.37812 0.79806 0.13786 0.0
C1301 C 0.34766 0.80644 0.17517 0.0
O1302 O 0.35546 0.78834 0.1729 0.0
C1303 C 0.4237 0.79815 0.11814 0.0
O1304 O 0.41224 0.8101 0.10616 0.0
O1305 O 0.38451 0.77999 0.09609 0.0
O1306 O 0.36104 0.80464 0.09576 0.0
H1307 H 0.38685 0.70889 0.08126 0.0
H1308 H 0.38138 0.83307 0.15719 0.0
O1309 O 0.34555 0.81793 0.15838 0.0
H1310 H 0.37866 0.87414 0.08911 0.0
H1311 H 0.3009 0.86615 0.12624 0.0
H1312 H 0.32292 0.80186 0.09272 0.0
H1313 H 0.35863 0.84285 0.09232 0.0
H1314 H 0.33194 0.84919 0.13918 0.0
O1315 O 0.41628 0.78264 0.1276 0.0
H1316 H 0.37418 0.74173 0.09468 0.0
H1317 H 0.42401 0.74663 0.13871 0.0
H1318 H 0.29187 0.81839 0.07916 0.0
H1319 H 0.40154 0.86435 0.15477 0.0
H1320 H 0.28068 0.85077 0.09596 0.0
H1321 H 0.40028 0.8851 0.12052 0.0
O1322 O 0.33759 0.78573 0.12914 0.0
H1323 H 0.41037 0.78178 0.20646 0.0
H1324 H 0.37677 0.73548 0.15416 0.0
H1325 H 0.38018 0.72561 0.19336 0.0
H1326 H 0.39711 0.74884 0.21981 0.0
H1327 H 0.40641 0.79113 0.16716 0.0
H1328 H 0.4373 0.71392 0.12563 0.0
H1329 H 0.41864 0.69478 0.09676 0.0
O1330 O 0.36016 0.76043 0.12788 0.0
C1331 C 0.37316 0.79256 0.08593 0.0
C1332 C 0.39509 0.71705 0.0939 0.0
C1333 C 0.42342 0.71989 0.11878 0.0
N1334 N 0.39826 0.74601 0.11758 0.0
C1335 C 0.38796 0.73563 0.10161 0.0
C1336 C 0.41584 0.73843 0.12608 0.0
C1337 C 0.41293 0.70916 0.10258 0.0
C1338 C 0.38065 0.84209 0.14229 0.0
N1339 N 0.36879 0.83618 0.12494 0.0
C1340 C 0.39214 0.85976 0.14099 0.0
C1341 C 0.39145 0.87138 0.12176 0.0
C1342 C 0.37933 0.86524 0.10412 0.0
C1343 C 0.36807 0.84747 0.10601 0.0
C1344 C 0.30564 0.85207 0.11876 0.0
C1345 C 0.31821 0.81602 0.10001 0.0
C1346 C 0.32317 0.84237 0.12605 0.0
N1347 N 0.3293 0.82463 0.1166 0.0
C1348 C 0.30059 0.82527 0.09231 0.0
C1349 C 0.29431 0.84343 0.10177 0.0
C1350 C 0.34207 0.76699 0.12873 0.0
C1351 C 0.403 0.77151 0.19509 0.0
C1352 C 0.38403 0.74571 0.16558 0.0
C1353 C 0.38599 0.74001 0.18775 0.0
C1354 C 0.39552 0.75304 0.20257 0.0
N1355 N 0.39136 0.76386 0.15837 0.0
C1356 C 0.40078 0.77669 0.1728 0.0
Co1357 Co 0.19155 0.35557 0.12652 0.0
Co1358 Co 0.23238 0.38826 0.1258 0.0
O1359 O 0.20608 0.37954 0.1369 0.0
C1360 C 0.19715 0.34867 0.17441 0.0
O1361 O 0.21594 0.35443 0.17146 0.0
C1362 C 0.20657 0.42463 0.11907 0.0
O1363 O 0.19212 0.41296 0.11141 0.0
O1364 O 0.22324 0.38522 0.09453 0.0
O1365 O 0.19787 0.36255 0.09499 0.0
H1366 H 0.29385 0.38394 0.07721 0.0
H1367 H 0.17156 0.38446 0.15699 0.0
O1368 O 0.18501 0.34818 0.15802 0.0
H1369 H 0.12927 0.3836 0.08975 0.0
H1370 H 0.13411 0.3057 0.12729 0.0
H1371 H 0.19882 0.32431 0.09227 0.0
H1372 H 0.1596 0.36207 0.09241 0.0
H1373 H 0.1528 0.33594 0.1396 0.0
O1374 O 0.22319 0.41702 0.12565 0.0
H1375 H 0.26077 0.373 0.09173 0.0
H1376 H 0.25991 0.42272 0.13619 0.0
H1377 H 0.18055 0.29403 0.07931 0.0
H1378 H 0.14125 0.40611 0.15513 0.0
H1379 H 0.14795 0.28456 0.09688 0.0
H1380 H 0.11991 0.4058 0.12129 0.0
O1381 O 0.21637 0.33838 0.12811 0.0
H1382 H 0.22517 0.41057 0.20491 0.0
H1383 H 0.26894 0.37544 0.15124 0.0
H1384 H 0.27972 0.37812 0.19021 0.0
H1385 H 0.25776 0.3958 0.21736 0.0
H1386 H 0.2149 0.40736 0.1658 0.0
H1387 H 0.2929 0.4343 0.12201 0.0
H1388 H 0.31013 0.4148 0.09237 0.0
O1389 O 0.24243 0.35996 0.12579 0.0
C1390 C 0.21005 0.37429 0.08478 0.0
C1391 C 0.28652 0.39253 0.09017 0.0
C1392 C 0.28597 0.42082 0.11529 0.0
N1393 N 0.25848 0.39715 0.11486 0.0
C1394 C 0.26781 0.38639 0.09849 0.0
C1395 C 0.26727 0.41422 0.1232 0.0
C1396 C 0.29563 0.40986 0.09866 0.0
C1397 C 0.16225 0.38413 0.14228 0.0
N1398 N 0.16731 0.37199 0.12485 0.0
C1399 C 0.14515 0.39647 0.14129 0.0
C1400 C 0.1332 0.39631 0.12229 0.0
C1401 C 0.13845 0.38387 0.10458 0.0
C1402 C 0.15567 0.37176 0.10615 0.0
C1403 C 0.14828 0.30969 0.11948 0.0
C1404 C 0.18457 0.32035 0.09989 0.0
C1405 C 0.15895 0.32677 0.12642 0.0
N1406 N 0.1768 0.33194 0.11655 0.0
C1407 C 0.17433 0.30316 0.09253 0.0
C1408 C 0.15605 0.29784 0.10241 0.0
C1409 C 0.23525 0.34215 0.12706 0.0
C1410 C 0.23488 0.40285 0.19323 0.0
C1411 C 0.25927 0.38306 0.16296 0.0
C1412 C 0.26548 0.3846 0.185 0.0
C1413 C 0.25316 0.39454 0.20021 0.0
N1414 N 0.24131 0.39122 0.15624 0.0
C1415 C 0.22918 0.40106 0.17105 0.0
Co1416 Co 0.35492 0.18977 0.12906 0.0
Co1417 Co 0.38833 0.22974 0.12622 0.0
O1418 O 0.37915 0.20422 0.13901 0.0
C1419 C 0.34945 0.19549 0.17699 0.0
O1420 O 0.35619 0.21394 0.17406 0.0
C1421 C 0.42495 0.20391 0.12317 0.0
O1422 O 0.41359 0.18932 0.11527 0.0
O1423 O 0.38705 0.21811 0.09602 0.0
O1424 O 0.36131 0.19594 0.09726 0.0
H1425 H 0.38695 0.28693 0.07152 0.0
H1426 H 0.38394 0.1694 0.15905 0.0
O1427 O 0.34787 0.18343 0.16064 0.0
H1428 H 0.38198 0.12741 0.09162 0.0
H1429 H 0.30468 0.13267 0.13078 0.0
H1430 H 0.32296 0.19744 0.09568 0.0
H1431 H 0.36079 0.15795 0.09466 0.0
H1432 H 0.33528 0.15112 0.14246 0.0
O1433 O 0.41708 0.22071 0.12878 0.0
H1434 H 0.37526 0.25503 0.08832 0.0
H1435 H 0.42194 0.25832 0.13646 0.0
H1436 H 0.29231 0.17942 0.08336 0.0
H1437 H 0.40527 0.13889 0.15678 0.0
H1438 H 0.283 0.14679 0.10097 0.0
H1439 H 0.4044 0.11769 0.12285 0.0
O1440 O 0.33818 0.21468 0.13108 0.0
H1441 H 0.40754 0.22984 0.2067 0.0
H1442 H 0.37304 0.26761 0.14729 0.0
H1443 H 0.3739 0.2817 0.18508 0.0
H1444 H 0.39127 0.2628 0.21509 0.0
H1445 H 0.40612 0.21619 0.16873 0.0
H1446 H 0.43425 0.29017 0.12006 0.0
H1447 H 0.41666 0.30472 0.08741 0.0
O1448 O 0.35995 0.23966 0.12323 0.0
C1449 C 0.37468 0.20602 0.08672 0.0
C1450 C 0.3947 0.28078 0.08579 0.0
C1451 C 0.42126 0.28258 0.11302 0.0
N1452 N 0.39778 0.25493 0.11347 0.0
C1453 C 0.38811 0.26276 0.09542 0.0
C1454 C 0.41424 0.26453 0.12221 0.0
C1455 C 0.41138 0.29074 0.0947 0.0
C1456 C 0.38336 0.16015 0.14432 0.0
N1457 N 0.37107 0.16539 0.12706 0.0
C1458 C 0.39552 0.14294 0.14309 0.0
C1459 C 0.39504 0.13106 0.12403 0.0
C1460 C 0.38248 0.13652 0.1065 0.0
C1461 C 0.37055 0.15385 0.1083 0.0
C1462 C 0.3086 0.14685 0.12295 0.0
C1463 C 0.31908 0.18317 0.1033 0.0
C1464 C 0.32589 0.15738 0.12951 0.0
N1465 N 0.33099 0.17523 0.11961 0.0
C1466 C 0.30168 0.17307 0.09631 0.0
C1467 C 0.29645 0.15478 0.10622 0.0
C1468 C 0.34211 0.23309 0.1267 0.0
C1469 C 0.39998 0.23826 0.19375 0.0
C1470 C 0.38055 0.25924 0.16028 0.0
C1471 C 0.38105 0.26733 0.18163 0.0
C1472 C 0.39082 0.25673 0.19845 0.0
N1473 N 0.38957 0.24111 0.1558 0.0
C1474 C 0.39922 0.23065 0.1722 0.0
Co1475 Co 0.80908 0.35557 0.12813 0.0
Co1476 Co 0.76899 0.38906 0.12692 0.0
O1477 O 0.79494 0.3798 0.13844 0.0
C1478 C 0.80346 0.3491 0.17594 0.0
O1479 O 0.78465 0.3547 0.17276 0.0
C1480 C 0.79524 0.42523 0.12144 0.0
O1481 O 0.80944 0.41353 0.11329 0.0
O1482 O 0.77896 0.38672 0.09594 0.0
O1483 O 0.80259 0.36223 0.09657 0.0
H1484 H 0.70879 0.38676 0.07631 0.0
H1485 H 0.8299 0.3843 0.15814 0.0
O1486 O 0.81569 0.34846 0.15964 0.0
H1487 H 0.87119 0.38259 0.09018 0.0
H1488 H 0.86596 0.30508 0.12893 0.0
H1489 H 0.80102 0.32388 0.09454 0.0
H1490 H 0.84056 0.36156 0.09341 0.0
H1491 H 0.84773 0.33569 0.14101 0.0
O1492 O 0.77855 0.4177 0.12791 0.0
H1493 H 0.74136 0.37505 0.0915 0.0
H1494 H 0.74161 0.42356 0.13754 0.0
H1495 H 0.81881 0.29324 0.08183 0.0
H1496 H 0.86052 0.40545 0.15568 0.0
H1497 H 0.85153 0.28367 0.09907 0.0
H1498 H 0.88137 0.40471 0.12149 0.0
O1499 O 0.78407 0.33884 0.13008 0.0
H1500 H 0.77444 0.40936 0.20684 0.0
H1501 H 0.73169 0.376 0.15086 0.0
H1502 H 0.71997 0.37783 0.18957 0.0
H1503 H 0.74142 0.39462 0.21787 0.0
H1504 H 0.78565 0.40699 0.16797 0.0
H1505 H 0.70914 0.43591 0.12271 0.0
H1506 H 0.69247 0.41741 0.09193 0.0
O1507 O 0.75854 0.36081 0.12575 0.0
C1508 C 0.79144 0.37492 0.08631 0.0
C1509 C 0.71587 0.39492 0.08976 0.0
C1510 C 0.71608 0.42252 0.11579 0.0
N1511 N 0.7433 0.39853 0.11548 0.0
C1512 C 0.73429 0.38833 0.09847 0.0
C1513 C 0.73449 0.41549 0.12407 0.0
C1514 C 0.70674 0.41213 0.09852 0.0
C1515 C 0.839 0.38376 0.14328 0.0
N1516 N 0.83351 0.37163 0.12599 0.0
C1517 C 0.85627 0.39583 0.14195 0.0
C1518 C 0.86795 0.39543 0.12275 0.0
C1519 C 0.86224 0.38303 0.10518 0.0
C1520 C 0.84486 0.37119 0.10708 0.0
C1521 C 0.85174 0.30912 0.12125 0.0
C1522 C 0.81532 0.31989 0.10201 0.0
C1523 C 0.84134 0.3264 0.12805 0.0
N1524 N 0.82343 0.33164 0.11834 0.0
C1525 C 0.82529 0.30249 0.09479 0.0
C1526 C 0.84364 0.29712 0.10449 0.0
C1527 C 0.76535 0.34289 0.12783 0.0
C1528 C 0.76495 0.40203 0.19466 0.0
C1529 C 0.74114 0.38323 0.16309 0.0
C1530 C 0.7344 0.38429 0.18497 0.0
C1531 C 0.74643 0.39373 0.20084 0.0
N1532 N 0.75934 0.39136 0.15716 0.0
C1533 C 0.77118 0.40072 0.17261 0.0
Co1534 Co 0.64438 0.8084 0.12713 0.0
Co1535 Co 0.6115 0.76763 0.12672 0.0
O1536 O 0.62018 0.79411 0.13741 0.0
C1537 C 0.64995 0.80319 0.17525 0.0
O1538 O 0.6425 0.78497 0.17277 0.0
C1539 C 0.57558 0.79369 0.11827 0.0
O1540 O 0.58761 0.80779 0.1105 0.0
O1541 O 0.61538 0.7761 0.09536 0.0
O1542 O 0.63737 0.80207 0.09563 0.0
H1543 H 0.61648 0.70515 0.07979 0.0
H1544 H 0.61561 0.82872 0.15746 0.0
O1545 O 0.65191 0.81487 0.1586 0.0
H1546 H 0.61705 0.87087 0.09012 0.0
H1547 H 0.69487 0.86529 0.12787 0.0
H1548 H 0.6756 0.80074 0.09293 0.0
H1549 H 0.63826 0.84033 0.09291 0.0
H1550 H 0.6644 0.84696 0.14016 0.0
O1551 O 0.58284 0.77712 0.12547 0.0
H1552 H 0.62738 0.73841 0.09386 0.0
H1553 H 0.5765 0.74066 0.13666 0.0
H1554 H 0.7061 0.81865 0.08 0.0
H1555 H 0.59427 0.85924 0.15546 0.0
H1556 H 0.71591 0.85116 0.09752 0.0
H1557 H 0.59487 0.88052 0.12158 0.0
O1558 O 0.66131 0.78348 0.12889 0.0
H1559 H 0.58677 0.77636 0.20478 0.0
H1560 H 0.62348 0.73156 0.15344 0.0
H1561 H 0.61949 0.72147 0.1925 0.0
H1562 H 0.601 0.74395 0.21847 0.0
H1563 H 0.59131 0.78595 0.16563 0.0
H1564 H 0.56495 0.70751 0.12291 0.0
H1565 H 0.58505 0.6895 0.09433 0.0
O1566 O 0.63975 0.75733 0.12782 0.0
C1567 C 0.62605 0.78943 0.08551 0.0
C1568 C 0.60762 0.71283 0.09229 0.0
C1569 C 0.57869 0.71417 0.11647 0.0
N1570 N 0.60265 0.7414 0.11616 0.0
C1571 C 0.61375 0.73163 0.10036 0.0
C1572 C 0.58527 0.73296 0.12414 0.0
C1573 C 0.58997 0.70406 0.10044 0.0
C1574 C 0.61607 0.838 0.14273 0.0
N1575 N 0.62821 0.83279 0.12535 0.0
C1576 C 0.6039 0.85522 0.14166 0.0
C1577 C 0.60423 0.86714 0.12264 0.0
C1578 C 0.61666 0.86172 0.10498 0.0
C1579 C 0.62859 0.84438 0.10662 0.0
C1580 C 0.69074 0.85115 0.12008 0.0
C1581 C 0.6797 0.81495 0.10053 0.0
C1582 C 0.67353 0.84069 0.127 0.0
N1583 N 0.66817 0.82288 0.11716 0.0
C1584 C 0.69702 0.82499 0.09319 0.0
C1585 C 0.70253 0.84322 0.10305 0.0
C1586 C 0.65757 0.76459 0.12869 0.0
C1587 C 0.59482 0.76642 0.19362 0.0
C1588 C 0.61552 0.74147 0.16466 0.0
C1589 C 0.61324 0.73564 0.18674 0.0
C1590 C 0.60284 0.74825 0.2013 0.0
N1591 N 0.60765 0.75933 0.15726 0.0
C1592 C 0.59737 0.77173 0.17141 0.0
Co1593 Co 0.19038 0.64624 0.12669 0.0
Co1594 Co 0.23032 0.61268 0.12561 0.0
O1595 O 0.20452 0.62216 0.13715 0.0
C1596 C 0.19651 0.65308 0.17431 0.0
O1597 O 0.21529 0.64753 0.17091 0.0
C1598 C 0.20415 0.57661 0.11945 0.0
O1599 O 0.1913 0.58796 0.10851 0.0
O1600 O 0.22035 0.61485 0.09466 0.0
O1601 O 0.19654 0.63915 0.09513 0.0
H1602 H 0.29036 0.61346 0.07469 0.0
H1603 H 0.16999 0.61757 0.15711 0.0
O1604 O 0.18408 0.65363 0.15818 0.0
H1605 H 0.12756 0.61936 0.09001 0.0
H1606 H 0.13382 0.69708 0.12763 0.0
H1607 H 0.19809 0.67736 0.09239 0.0
H1608 H 0.15826 0.64035 0.09264 0.0
H1609 H 0.15203 0.66653 0.1399 0.0
O1610 O 0.2203 0.58419 0.12739 0.0
H1611 H 0.25799 0.6258 0.08976 0.0
H1612 H 0.25724 0.57798 0.13666 0.0
H1613 H 0.18029 0.70793 0.07947 0.0
H1614 H 0.13931 0.59645 0.15527 0.0
H1615 H 0.14792 0.71797 0.09714 0.0
H1616 H 0.11789 0.59724 0.1215 0.0
O1617 O 0.21548 0.66289 0.12828 0.0
H1618 H 0.22573 0.59324 0.20589 0.0
H1619 H 0.26757 0.62651 0.14898 0.0
H1620 H 0.27971 0.62513 0.18757 0.0
H1621 H 0.25872 0.6084 0.21633 0.0
H1622 H 0.2141 0.5951 0.16714 0.0
H1623 H 0.28953 0.56502 0.12199 0.0
H1624 H 0.30635 0.58286 0.09084 0.0
O1625 O 0.24094 0.64083 0.12371 0.0
C1626 C 0.20781 0.62652 0.08494 0.0
C1627 C 0.28323 0.60561 0.08833 0.0
C1628 C 0.28274 0.5784 0.11485 0.0
N1629 N 0.25585 0.60275 0.11421 0.0
C1630 C 0.26493 0.61256 0.09697 0.0
C1631 C 0.26445 0.58579 0.12307 0.0
C1632 C 0.29217 0.58842 0.09738 0.0
C1633 C 0.16066 0.61809 0.14243 0.0
N1634 N 0.16587 0.63022 0.12503 0.0
C1635 C 0.14335 0.60606 0.14145 0.0
C1636 C 0.13134 0.60649 0.12249 0.0
C1637 C 0.13677 0.61889 0.10481 0.0
C1638 C 0.1542 0.6307 0.10637 0.0
C1639 C 0.14789 0.69285 0.11978 0.0
C1640 C 0.18394 0.68157 0.10006 0.0
C1641 C 0.15829 0.67559 0.12669 0.0
N1642 N 0.17602 0.67011 0.11675 0.0
C1643 C 0.17396 0.69892 0.09272 0.0
C1644 C 0.15581 0.70455 0.10266 0.0
C1645 C 0.23417 0.65877 0.12572 0.0
C1646 C 0.23504 0.60052 0.1935 0.0
C1647 C 0.25834 0.61922 0.16141 0.0
C1648 C 0.26531 0.61846 0.18322 0.0
C1649 C 0.25354 0.60905 0.19935 0.0
N1650 N 0.24019 0.61081 0.1558 0.0
C1651 C 0.22857 0.60154 0.17151 0.0
Co1652 Co 0.353 0.8104 0.87679 0.0
Co1653 Co 0.38787 0.7716 0.87673 0.0
O1654 O 0.37766 0.79744 0.86612 0.0
C1655 C 0.34682 0.80561 0.82883 0.0
O1656 O 0.35287 0.78691 0.83168 0.0
C1657 C 0.42347 0.79826 0.88454 0.0
O1658 O 0.41211 0.81023 0.89661 0.0
O1659 O 0.38519 0.78054 0.9081 0.0
O1660 O 0.35988 0.8033 0.90817 0.0
H1661 H 0.38829 0.70979 0.92505 0.0
H1662 H 0.38111 0.83292 0.84756 0.0
O1663 O 0.34573 0.81753 0.8454 0.0
H1664 H 0.37769 0.87245 0.91668 0.0
H1665 H 0.3005 0.86541 0.87751 0.0
H1666 H 0.32162 0.80043 0.91012 0.0
H1667 H 0.35777 0.84119 0.91245 0.0
H1668 H 0.33174 0.84858 0.86496 0.0
O1669 O 0.41605 0.78251 0.87556 0.0
H1670 H 0.37513 0.74227 0.9111 0.0
H1671 H 0.42363 0.74621 0.86524 0.0
H1672 H 0.29036 0.81681 0.9233 0.0
H1673 H 0.40117 0.86418 0.85103 0.0
H1674 H 0.27962 0.84954 0.90695 0.0
H1675 H 0.39956 0.88416 0.88581 0.0
O1676 O 0.33721 0.78487 0.87408 0.0
H1677 H 0.40746 0.77982 0.79684 0.0
H1678 H 0.37614 0.73445 0.85175 0.0
H1679 H 0.37822 0.72375 0.81271 0.0
H1680 H 0.39399 0.74652 0.78495 0.0
H1681 H 0.40487 0.79 0.83603 0.0
H1682 H 0.43741 0.71386 0.87882 0.0
H1683 H 0.41965 0.69539 0.90888 0.0
O1684 O 0.36004 0.75999 0.87777 0.0
C1685 C 0.3729 0.79228 0.91813 0.0
C1686 C 0.39613 0.71767 0.9119 0.0
C1687 C 0.42371 0.71997 0.88597 0.0
N1688 N 0.3985 0.74603 0.88726 0.0
C1689 C 0.38872 0.73603 0.90389 0.0
C1690 C 0.41586 0.73829 0.87838 0.0
C1691 C 0.41374 0.7096 0.90283 0.0
C1692 C 0.38021 0.84162 0.86268 0.0
N1693 N 0.36819 0.83531 0.87972 0.0
C1694 C 0.39165 0.85927 0.86458 0.0
C1695 C 0.39076 0.87046 0.8841 0.0
C1696 C 0.3785 0.86389 0.90144 0.0
C1697 C 0.36728 0.84616 0.89896 0.0
C1698 C 0.30504 0.85118 0.8848 0.0
C1699 C 0.31711 0.81474 0.90305 0.0
C1700 C 0.32269 0.84156 0.87773 0.0
N1701 N 0.32857 0.82364 0.88695 0.0
C1702 C 0.29937 0.82391 0.91052 0.0
C1703 C 0.29334 0.84227 0.90132 0.0
C1704 C 0.34189 0.76625 0.87586 0.0
C1705 C 0.40059 0.76976 0.80879 0.0
C1706 C 0.38293 0.74447 0.83977 0.0
C1707 C 0.38413 0.73831 0.81769 0.0
C1708 C 0.393 0.75108 0.80212 0.0
N1709 N 0.39036 0.76283 0.84618 0.0
C1710 C 0.39915 0.7754 0.83102 0.0
Co1711 Co 0.18918 0.35301 0.87588 0.0
Co1712 Co 0.22831 0.38754 0.87535 0.0
O1713 O 0.20235 0.37746 0.86491 0.0
C1714 C 0.19403 0.34633 0.82801 0.0
O1715 O 0.21275 0.35232 0.83089 0.0
C1716 C 0.2019 0.42338 0.8828 0.0
O1717 O 0.18977 0.41211 0.89479 0.0
O1718 O 0.21941 0.38517 0.90676 0.0
O1719 O 0.19632 0.36017 0.9072 0.0
H1720 H 0.29019 0.38778 0.92355 0.0
H1721 H 0.16692 0.38099 0.84624 0.0
O1722 O 0.18204 0.34546 0.84454 0.0
H1723 H 0.12732 0.37867 0.91537 0.0
H1724 H 0.13373 0.30099 0.87717 0.0
H1725 H 0.19883 0.32192 0.90965 0.0
H1726 H 0.15841 0.35843 0.91143 0.0
H1727 H 0.15085 0.33194 0.86424 0.0
O1728 O 0.21765 0.41582 0.87396 0.0
H1729 H 0.25758 0.3748 0.90978 0.0
H1730 H 0.25399 0.42298 0.86347 0.0
H1731 H 0.18216 0.29094 0.9232 0.0
H1732 H 0.13584 0.40137 0.84942 0.0
H1733 H 0.14936 0.2803 0.90692 0.0
H1734 H 0.11583 0.40031 0.8842 0.0
O1735 O 0.21457 0.33696 0.87341 0.0
H1736 H 0.22009 0.40662 0.79532 0.0
H1737 H 0.26529 0.37529 0.85039 0.0
H1738 H 0.27594 0.377 0.81131 0.0
H1739 H 0.25325 0.39277 0.78346 0.0
H1740 H 0.20997 0.40441 0.83455 0.0
H1741 H 0.28648 0.43658 0.87687 0.0
H1742 H 0.30485 0.41889 0.90705 0.0
O1743 O 0.23966 0.35961 0.87663 0.0
C1744 C 0.20754 0.37313 0.91697 0.0
C1745 C 0.28237 0.39558 0.91033 0.0
C1746 C 0.28027 0.42299 0.88415 0.0
N1747 N 0.25399 0.39802 0.88572 0.0
C1748 C 0.26393 0.38827 0.90242 0.0
C1749 C 0.26186 0.41524 0.87667 0.0
C1750 C 0.29057 0.41305 0.90109 0.0
C1751 C 0.1582 0.38033 0.86136 0.0
N1752 N 0.1644 0.36844 0.87857 0.0
C1753 C 0.14066 0.39195 0.86309 0.0
C1754 C 0.12945 0.39137 0.88262 0.0
C1755 C 0.13589 0.37924 0.90012 0.0
C1756 C 0.15353 0.36784 0.89781 0.0
C1757 C 0.14799 0.30549 0.88443 0.0
C1758 C 0.18449 0.31745 0.9026 0.0
C1759 C 0.15777 0.32298 0.87715 0.0
N1760 N 0.17572 0.3288 0.88633 0.0
C1761 C 0.17515 0.29987 0.91029 0.0
C1762 C 0.15677 0.2939 0.90113 0.0
C1763 C 0.23324 0.34149 0.87504 0.0
C1764 C 0.23012 0.39974 0.8073 0.0
C1765 C 0.25531 0.38208 0.83837 0.0
C1766 C 0.26144 0.38307 0.81627 0.0
C1767 C 0.24871 0.39194 0.80065 0.0
N1768 N 0.23703 0.38973 0.84476 0.0
C1769 C 0.22451 0.39852 0.82955 0.0
Co1770 Co 0.64672 0.18926 0.8761 0.0
Co1771 Co 0.61235 0.2287 0.87616 0.0
O1772 O 0.62217 0.20264 0.86553 0.0
C1773 C 0.6525 0.19441 0.82804 0.0
O1774 O 0.6448 0.21254 0.83047 0.0
C1775 C 0.57654 0.20244 0.88493 0.0
O1776 O 0.58789 0.19022 0.8967 0.0
O1777 O 0.61572 0.22008 0.9076 0.0
O1778 O 0.63937 0.1956 0.9075 0.0
H1779 H 0.61375 0.29095 0.92377 0.0
H1780 H 0.61867 0.16784 0.84588 0.0
O1781 O 0.65458 0.18279 0.84473 0.0
H1782 H 0.62138 0.12617 0.91352 0.0
H1783 H 0.69907 0.13407 0.87619 0.0
H1784 H 0.67751 0.19821 0.91039 0.0
H1785 H 0.6416 0.15736 0.91054 0.0
H1786 H 0.66808 0.1513 0.86354 0.0
O1787 O 0.58406 0.21811 0.8759 0.0
H1788 H 0.62626 0.25824 0.90976 0.0
H1789 H 0.57652 0.25433 0.8655 0.0
H1790 H 0.70852 0.18142 0.92368 0.0
H1791 H 0.59832 0.13666 0.84806 0.0
H1792 H 0.71948 0.14911 0.90653 0.0
H1793 H 0.59956 0.11562 0.8821 0.0
O1794 O 0.66278 0.21472 0.87421 0.0
H1795 H 0.59022 0.22013 0.79712 0.0
H1796 H 0.62373 0.26552 0.85042 0.0
H1797 H 0.62046 0.27602 0.8114 0.0
H1798 H 0.60357 0.25325 0.78445 0.0
H1799 H 0.59405 0.21013 0.83624 0.0
H1800 H 0.56339 0.28691 0.87915 0.0
H1801 H 0.58209 0.30549 0.90843 0.0
O1802 O 0.64025 0.24002 0.87623 0.0
C1803 C 0.62717 0.20744 0.91754 0.0
C1804 C 0.6055 0.28303 0.91095 0.0
C1805 C 0.57722 0.28075 0.88594 0.0
N1806 N 0.60222 0.25447 0.88671 0.0
C1807 C 0.61254 0.26454 0.90291 0.0
C1808 C 0.5847 0.26229 0.87831 0.0
C1809 C 0.58773 0.29117 0.90236 0.0
C1810 C 0.61939 0.15868 0.86068 0.0
N1811 N 0.63135 0.16437 0.87803 0.0
C1812 C 0.60779 0.14108 0.86185 0.0
C1813 C 0.60848 0.12929 0.88096 0.0
C1814 C 0.62071 0.13521 0.8986 0.0
C1815 C 0.63208 0.15291 0.89685 0.0
C1816 C 0.69444 0.14812 0.88382 0.0
C1817 C 0.68212 0.18409 0.90296 0.0
C1818 C 0.67693 0.15796 0.87669 0.0
N1819 N 0.67094 0.17566 0.88634 0.0
C1820 C 0.69972 0.17468 0.9105 0.0
C1821 C 0.70587 0.15657 0.90085 0.0
C1822 C 0.65833 0.23345 0.87505 0.0
C1823 C 0.59758 0.2302 0.80871 0.0
C1824 C 0.61651 0.25548 0.83877 0.0
C1825 C 0.61461 0.26154 0.81671 0.0
C1826 C 0.60511 0.24877 0.80161 0.0
N1827 N 0.60913 0.23722 0.84561 0.0
C1828 C 0.59972 0.22465 0.8309 0.0
Co1829 Co 0.81126 0.6474 0.87674 0.0
Co1830 Co 0.77263 0.61245 0.87858 0.0
O1831 O 0.79802 0.62264 0.86656 0.0
C1832 C 0.80599 0.65263 0.82877 0.0
O1833 O 0.78772 0.6454 0.83154 0.0
C1834 C 0.79927 0.57652 0.88387 0.0
O1835 O 0.81199 0.58765 0.89526 0.0
O1836 O 0.78337 0.61434 0.9092 0.0
O1837 O 0.80477 0.64077 0.90839 0.0
H1838 H 0.71387 0.6113 0.93125 0.0
H1839 H 0.83324 0.61905 0.84736 0.0
O1840 O 0.81785 0.65461 0.84526 0.0
H1841 H 0.87403 0.62304 0.91557 0.0
H1842 H 0.86626 0.69993 0.87605 0.0
H1843 H 0.80173 0.67904 0.90988 0.0
H1844 H 0.84271 0.64295 0.9118 0.0
H1845 H 0.84928 0.66858 0.86408 0.0
O1846 O 0.78313 0.5842 0.87602 0.0
H1847 H 0.74564 0.62446 0.91549 0.0
H1848 H 0.74611 0.57737 0.8677 0.0
H1849 H 0.81827 0.71042 0.92249 0.0
H1850 H 0.86455 0.59899 0.85036 0.0
H1851 H 0.85077 0.72104 0.90552 0.0
H1852 H 0.88516 0.60089 0.88468 0.0
O1853 O 0.78574 0.66307 0.87414 0.0
H1854 H 0.77529 0.59336 0.79809 0.0
H1855 H 0.73462 0.62599 0.85644 0.0
H1856 H 0.72144 0.62451 0.81828 0.0
H1857 H 0.74181 0.60808 0.7888 0.0
H1858 H 0.78801 0.59538 0.83641 0.0
H1859 H 0.71443 0.5636 0.88306 0.0
H1860 H 0.69805 0.58065 0.915 0.0
O1861 O 0.76137 0.64038 0.88125 0.0
C1862 C 0.79486 0.62714 0.91875 0.0
C1863 C 0.72082 0.60378 0.91727 0.0
C1864 C 0.72115 0.577 0.89024 0.0
N1865 N 0.74759 0.60183 0.89055 0.0
C1866 C 0.73877 0.6112 0.90823 0.0
C1867 C 0.7391 0.58485 0.88164 0.0
C1868 C 0.71196 0.58657 0.90816 0.0
C1869 C 0.84222 0.62007 0.86227 0.0
N1870 N 0.83623 0.63224 0.87933 0.0
C1871 C 0.85989 0.60863 0.86391 0.0
C1872 C 0.87144 0.60969 0.88318 0.0
C1873 C 0.8652 0.6221 0.90052 0.0
C1874 C 0.84743 0.63331 0.89831 0.0
C1875 C 0.85213 0.69544 0.8836 0.0
C1876 C 0.81594 0.6835 0.90255 0.0
C1877 C 0.84243 0.67772 0.87687 0.0
N1878 N 0.82464 0.67191 0.88643 0.0
C1879 C 0.8252 0.70131 0.90969 0.0
C1880 C 0.84343 0.70727 0.90015 0.0
C1881 C 0.76737 0.65845 0.87793 0.0
C1882 C 0.76624 0.6005 0.8108 0.0
C1883 C 0.74362 0.61889 0.84369 0.0
C1884 C 0.73605 0.61804 0.82212 0.0
C1885 C 0.74748 0.6088 0.80559 0.0
N1886 N 0.76205 0.61073 0.84867 0.0
C1887 C 0.77332 0.6016 0.83256 0.0
H1888 H 0.27233 0.19778 0.36331 0.0
H1889 H 0.22911 0.15796 0.3945 0.0
H1890 H 0.24674 0.22443 0.36179 0.0
H1891 H 0.20404 0.1846 0.39389 0.0
H1892 H 0.15636 0.22519 0.36716 0.0
H1893 H 0.18335 0.20067 0.36785 0.0
H1894 H 0.22633 0.24801 0.38247 0.0
H1895 H 0.1991 0.27301 0.38072 0.0
C1896 C 0.25747 0.19479 0.37007 0.0
C1897 C 0.2527 0.17566 0.37878 0.0
C1898 C 0.24282 0.2101 0.3693 0.0
C1899 C 0.22319 0.20662 0.37743 0.0
C1900 C 0.21877 0.18769 0.38687 0.0
C1901 C 0.23324 0.1724 0.38736 0.0
C1902 C 0.17153 0.23052 0.37038 0.0
C1903 C 0.17548 0.25114 0.37393 0.0
C1904 C 0.18707 0.21635 0.37099 0.0
C1905 C 0.20704 0.22224 0.3756 0.0
C1906 C 0.21115 0.24293 0.37876 0.0
C1907 C 0.19553 0.25725 0.37785 0.0
H1908 H 0.72829 0.1983 0.38113 0.0
H1909 H 0.77642 0.15563 0.36862 0.0
H1910 H 0.75308 0.22568 0.38258 0.0
H1911 H 0.80081 0.1828 0.36913 0.0
H1912 H 0.84288 0.22973 0.39526 0.0
H1913 H 0.81659 0.20425 0.3949 0.0
H1914 H 0.77651 0.24576 0.36134 0.0
H1915 H 0.80277 0.27172 0.3625 0.0
C1916 C 0.74408 0.19477 0.37843 0.0
C1917 C 0.75033 0.17471 0.37487 0.0
C1918 C 0.75829 0.21048 0.37918 0.0
C1919 C 0.77902 0.20646 0.37623 0.0
C1920 C 0.78508 0.18646 0.37206 0.0
C1921 C 0.77099 0.17082 0.37156 0.0
C1922 C 0.82846 0.23351 0.38785 0.0
C1923 C 0.82501 0.25275 0.37876 0.0
C1924 C 0.81337 0.21881 0.38751 0.0
C1925 C 0.79447 0.22279 0.37777 0.0
C1926 C 0.79082 0.24219 0.3691 0.0
C1927 C 0.80591 0.25705 0.36968 0.0
H1928 H 0.80362 0.73085 0.36187 0.0
H1929 H 0.84209 0.7734 0.39609 0.0
H1930 H 0.77666 0.75607 0.36078 0.0
H1931 H 0.81509 0.79814 0.39581 0.0
H1932 H 0.77357 0.84599 0.36995 0.0
H1933 H 0.7989 0.81965 0.37046 0.0
H1934 H 0.75245 0.77494 0.38198 0.0
H1935 H 0.72677 0.80144 0.3805 0.0
C1936 C 0.80624 0.74548 0.36939 0.0
C1937 C 0.82508 0.75017 0.37887 0.0
C1938 C 0.79076 0.75991 0.36885 0.0
C1939 C 0.79374 0.77927 0.37796 0.0
C1940 C 0.81238 0.78362 0.38808 0.0
C1941 C 0.82787 0.76934 0.38838 0.0
C1942 C 0.76864 0.83057 0.37246 0.0
C1943 C 0.74806 0.8259 0.37518 0.0
C1944 C 0.78326 0.81541 0.37297 0.0
C1945 C 0.77781 0.79514 0.37655 0.0
C1946 C 0.7572 0.79036 0.379 0.0
C1947 C 0.74247 0.80557 0.37825 0.0
H1948 H 0.19787 0.72846 0.36186 0.0
H1949 H 0.1577 0.77026 0.39479 0.0
H1950 H 0.2241 0.75446 0.36085 0.0
H1951 H 0.18395 0.79578 0.39457 0.0
H1952 H 0.22392 0.84454 0.3683 0.0
H1953 H 0.19962 0.81728 0.36869 0.0
H1954 H 0.24745 0.77456 0.38228 0.0
H1955 H 0.27216 0.80202 0.38095 0.0
C1956 C 0.19472 0.74309 0.36911 0.0
C1957 C 0.1756 0.74734 0.37818 0.0
C1958 C 0.20978 0.75797 0.36862 0.0
C1959 C 0.20608 0.77734 0.37736 0.0
C1960 C 0.18719 0.78125 0.38712 0.0
C1961 C 0.17213 0.76653 0.38738 0.0
C1962 C 0.22939 0.82937 0.37124 0.0
C1963 C 0.25005 0.82555 0.37463 0.0
C1964 C 0.21535 0.81368 0.37167 0.0
C1965 C 0.22148 0.79371 0.37586 0.0
C1966 C 0.2422 0.78974 0.37887 0.0
C1967 C 0.25636 0.8055 0.3782 0.0
H1968 H 0.15854 0.77117 0.60676 0.0
H1969 H 0.19699 0.7298 0.64267 0.0
H1970 H 0.18515 0.79624 0.60688 0.0
H1971 H 0.22362 0.75547 0.64369 0.0
H1972 H 0.27292 0.80196 0.62417 0.0
H1973 H 0.24797 0.77472 0.62286 0.0
H1974 H 0.20017 0.81842 0.63218 0.0
H1975 H 0.22472 0.84542 0.63238 0.0
C1976 C 0.17267 0.76745 0.61483 0.0
C1977 C 0.17556 0.74853 0.62489 0.0
C1978 C 0.18795 0.78193 0.61504 0.0
C1979 C 0.20646 0.77809 0.62567 0.0
C1980 C 0.2096 0.75894 0.63526 0.0
C1981 C 0.19432 0.74425 0.63476 0.0
C1982 C 0.25706 0.8057 0.62595 0.0
C1983 C 0.25086 0.82593 0.62828 0.0
C1984 C 0.24277 0.79007 0.62531 0.0
C1985 C 0.22199 0.79434 0.62715 0.0
C1986 C 0.21595 0.81453 0.6301 0.0
C1987 C 0.23013 0.83009 0.63044 0.0
H1988 H 0.22641 0.15451 0.63218 0.0
H1989 H 0.27343 0.19934 0.62461 0.0
H1990 H 0.20107 0.18085 0.63149 0.0
H1991 H 0.2478 0.22582 0.62285 0.0
H1992 H 0.19646 0.26964 0.64235 0.0
H1993 H 0.22323 0.24425 0.64363 0.0
H1994 H 0.18537 0.20305 0.60665 0.0
H1995 H 0.15851 0.22795 0.60624 0.0
C1996 C 0.23138 0.16999 0.63027 0.0
C1997 C 0.25202 0.17474 0.6285 0.0
C1998 C 0.21676 0.18516 0.62965 0.0
C1999 C 0.2223 0.20552 0.62686 0.0
C2000 C 0.24296 0.21034 0.62525 0.0
C2001 C 0.25767 0.19513 0.62614 0.0
C2002 C 0.19392 0.25517 0.63446 0.0
C2003 C 0.17528 0.25077 0.62438 0.0
C2004 C 0.2093 0.24063 0.63509 0.0
C2005 C 0.20643 0.22146 0.62546 0.0
C2006 C 0.18798 0.2174 0.61478 0.0
C2007 C 0.17258 0.23178 0.6144 0.0
H2008 H 0.77705 0.15462 0.6336 0.0
H2009 H 0.7291 0.19806 0.6237 0.0
H2010 H 0.80163 0.18164 0.63394 0.0
H2011 H 0.75403 0.22525 0.62288 0.0
H2012 H 0.80352 0.27079 0.64332 0.0
H2013 H 0.77739 0.24469 0.64408 0.0
H2014 H 0.81761 0.20389 0.60965 0.0
H2015 H 0.84379 0.22945 0.60986 0.0
C2016 C 0.77171 0.16994 0.6314 0.0
C2017 C 0.75104 0.1741 0.62866 0.0
C2018 C 0.78591 0.18551 0.63136 0.0
C2019 C 0.77992 0.20569 0.62815 0.0
C2020 C 0.7592 0.20993 0.62561 0.0
C2021 C 0.7449 0.19431 0.62597 0.0
C2022 C 0.80671 0.25622 0.6359 0.0
C2023 C 0.8258 0.25214 0.62673 0.0
C2024 C 0.7917 0.24128 0.63623 0.0
C2025 C 0.79541 0.22203 0.62715 0.0
C2026 C 0.81433 0.21828 0.61738 0.0
C2027 C 0.82936 0.23304 0.61735 0.0
H2028 H 0.84566 0.77579 0.63445 0.0
H2029 H 0.80204 0.72844 0.62236 0.0
H2030 H 0.81884 0.80065 0.63439 0.0
H2031 H 0.7751 0.75362 0.62128 0.0
H2032 H 0.72954 0.80282 0.64191 0.0
H2033 H 0.75557 0.77668 0.64281 0.0
H2034 H 0.79702 0.81725 0.60985 0.0
H2035 H 0.77144 0.84346 0.60981 0.0
C2036 C 0.83034 0.77065 0.63167 0.0
C2037 C 0.82607 0.75005 0.62843 0.0
C2038 C 0.81491 0.785 0.63143 0.0
C2039 C 0.79475 0.77925 0.62759 0.0
C2040 C 0.7904 0.75861 0.62452 0.0
C2041 C 0.80587 0.74416 0.62503 0.0
C2042 C 0.74422 0.80611 0.63484 0.0
C2043 C 0.74844 0.8253 0.62596 0.0
C2044 C 0.75913 0.79108 0.63525 0.0
C2045 C 0.77852 0.79485 0.62658 0.0
C2046 C 0.78248 0.81391 0.6172 0.0
C2047 C 0.76771 0.82895 0.61704 0.0
H2048 H 0.65448 0.72338 0.87142 0.0
H2049 H 0.69801 0.7715 0.87969 0.0
H2050 H 0.68146 0.69877 0.87159 0.0
H2051 H 0.72518 0.74656 0.881 0.0
H2052 H 0.77039 0.69676 0.86085 0.0
H2053 H 0.74428 0.72281 0.85996 0.0
H2054 H 0.70402 0.68321 0.89598 0.0
H2055 H 0.72965 0.65703 0.89596 0.0
C2056 C 0.66982 0.72875 0.87337 0.0
C2057 C 0.67401 0.74949 0.87549 0.0
C2058 C 0.68536 0.71454 0.8737 0.0
C2059 C 0.70556 0.72057 0.87658 0.0
C2060 C 0.70984 0.74135 0.87853 0.0
C2061 C 0.69424 0.75566 0.87789 0.0
C2062 C 0.75595 0.69367 0.86859 0.0
C2063 C 0.75204 0.67474 0.87829 0.0
C2064 C 0.741 0.70865 0.86819 0.0
C2065 C 0.72191 0.7051 0.8777 0.0
C2066 C 0.71831 0.68635 0.88796 0.0
C2067 C 0.7331 0.67133 0.88808 0.0
H2068 H 0.23054 0.69599 0.85975 0.0
H2069 H 0.27186 0.65715 0.89524 0.0
H2070 H 0.25609 0.72261 0.85915 0.0
H2071 H 0.29691 0.68386 0.89554 0.0
H2072 H 0.34576 0.72534 0.87173 0.0
H2073 H 0.31938 0.70004 0.87152 0.0
H2074 H 0.2744 0.74671 0.88053 0.0
H2075 H 0.30094 0.77231 0.87963 0.0
C2076 C 0.24498 0.69321 0.86763 0.0
C2077 C 0.24922 0.67437 0.87735 0.0
C2078 C 0.25961 0.70851 0.8674 0.0
C2079 C 0.2787 0.70538 0.87711 0.0
C2080 C 0.28262 0.6867 0.88737 0.0
C2081 C 0.26816 0.67137 0.88733 0.0
C2082 C 0.33027 0.73031 0.87353 0.0
C2083 C 0.32553 0.75092 0.87564 0.0
C2084 C 0.31508 0.71571 0.87363 0.0
C2085 C 0.29469 0.72123 0.87625 0.0
C2086 C 0.28989 0.74188 0.87824 0.0
C2087 C 0.30513 0.75657 0.87784 0.0
H2088 H 0.30373 0.22961 0.86201 0.0
H2089 H 0.34178 0.27192 0.89708 0.0
H2090 H 0.2768 0.25492 0.86066 0.0
H2091 H 0.31486 0.29668 0.89661 0.0
H2092 H 0.27414 0.34495 0.87064 0.0
H2093 H 0.29925 0.31842 0.87124 0.0
H2094 H 0.25232 0.27392 0.88132 0.0
H2095 H 0.22686 0.30062 0.87965 0.0
C2096 C 0.30625 0.24419 0.86968 0.0
C2097 C 0.32498 0.24882 0.87943 0.0
C2098 C 0.2908 0.25868 0.86899 0.0
C2099 C 0.29371 0.278 0.87825 0.0
C2100 C 0.31222 0.28223 0.88872 0.0
C2101 C 0.32767 0.26793 0.88914 0.0
C2102 C 0.26906 0.32954 0.87284 0.0
C2103 C 0.24842 0.32499 0.8751 0.0
C2104 C 0.28355 0.31426 0.87341 0.0
C2105 C 0.27791 0.29398 0.87664 0.0
C2106 C 0.25723 0.28934 0.87862 0.0
C2107 C 0.24263 0.30467 0.87778 0.0
H2108 H 0.69908 0.22731 0.88124 0.0
H2109 H 0.65504 0.27403 0.86809 0.0
H2110 H 0.72572 0.25288 0.88241 0.0
H2111 H 0.6815 0.29919 0.8682 0.0
H2112 H 0.72699 0.34289 0.89385 0.0
H2113 H 0.70231 0.31591 0.8936 0.0
H2114 H 0.74534 0.27659 0.86129 0.0
H2115 H 0.77057 0.3036 0.86245 0.0
C2116 C 0.6951 0.24296 0.87834 0.0
C2117 C 0.67486 0.24859 0.87469 0.0
C2118 C 0.71039 0.25762 0.87891 0.0
C2119 C 0.70578 0.27818 0.87565 0.0
C2120 C 0.68561 0.28362 0.87137 0.0
C2121 C 0.67038 0.26909 0.8711 0.0
C2122 C 0.73128 0.3285 0.88673 0.0
C2123 C 0.75073 0.32548 0.87802 0.0
C2124 C 0.71703 0.31301 0.88644 0.0
C2125 C 0.72165 0.29411 0.87707 0.0
C2126 C 0.74127 0.29089 0.86875 0.0
C2127 C 0.75571 0.3064 0.86933 0.0
H2128 H 0.69734 0.23001 0.1434 0.0
H2129 H 0.65845 0.27012 0.10636 0.0
H2130 H 0.72354 0.25602 0.14406 0.0
H2131 H 0.68475 0.2956 0.1061 0.0
H2132 H 0.77266 0.30205 0.12463 0.0
H2133 H 0.74778 0.2748 0.12321 0.0
H2134 H 0.69974 0.31859 0.13037 0.0
H2135 H 0.72429 0.34561 0.13064 0.0
C2136 C 0.69449 0.24427 0.13516 0.0
C2137 C 0.67573 0.24807 0.12504 0.0
C2138 C 0.70955 0.25916 0.13544 0.0
C2139 C 0.70624 0.27806 0.12536 0.0
C2140 C 0.6877 0.28149 0.11459 0.0
C2141 C 0.6726 0.26678 0.1146 0.0
C2142 C 0.75677 0.30582 0.12589 0.0
C2143 C 0.75052 0.32607 0.12772 0.0
C2144 C 0.74249 0.29018 0.12519 0.0
C2145 C 0.72168 0.29444 0.12649 0.0
C2146 C 0.71556 0.31469 0.12876 0.0
C2147 C 0.72973 0.33026 0.12916 0.0
H2148 H 0.77231 0.69845 0.14128 0.0
H2149 H 0.72978 0.65747 0.11071 0.0
H2150 H 0.74623 0.72464 0.14238 0.0
H2151 H 0.70422 0.68363 0.11098 0.0
H2152 H 0.65585 0.72409 0.13684 0.0
H2153 H 0.6832 0.69988 0.13679 0.0
H2154 H 0.72555 0.74745 0.12094 0.0
H2155 H 0.69803 0.77209 0.12195 0.0
C2156 C 0.7575 0.6951 0.13457 0.0
C2157 C 0.75308 0.67579 0.12614 0.0
C2158 C 0.74257 0.71014 0.13511 0.0
C2159 C 0.72299 0.7062 0.12705 0.0
C2160 C 0.71891 0.68708 0.11793 0.0
C2161 C 0.73367 0.67206 0.11763 0.0
C2162 C 0.67097 0.72952 0.13347 0.0
C2163 C 0.67466 0.75009 0.12933 0.0
C2164 C 0.68671 0.71553 0.13324 0.0
C2165 C 0.7066 0.7216 0.12851 0.0
C2166 C 0.71044 0.74225 0.12478 0.0
C2167 C 0.69464 0.75636 0.12527 0.0
H2168 H 0.22926 0.6978 0.14038 0.0
H2169 H 0.27286 0.65762 0.1104 0.0
H2170 H 0.25477 0.72449 0.14172 0.0
H2171 H 0.29789 0.68431 0.11085 0.0
H2172 H 0.34516 0.72646 0.13639 0.0
H2173 H 0.31858 0.70136 0.13616 0.0
H2174 H 0.27475 0.74768 0.12058 0.0
H2175 H 0.30145 0.77315 0.12183 0.0
C2176 C 0.24419 0.69473 0.13385 0.0
C2177 C 0.24906 0.67551 0.12548 0.0
C2178 C 0.2588 0.71006 0.13453 0.0
C2179 C 0.27851 0.70653 0.12664 0.0
C2180 C 0.28308 0.68747 0.11765 0.0
C2181 C 0.26863 0.67214 0.11724 0.0
C2182 C 0.32987 0.73141 0.13305 0.0
C2183 C 0.32551 0.75188 0.1291 0.0
C2184 C 0.31458 0.71692 0.13271 0.0
C2185 C 0.29449 0.72238 0.12805 0.0
C2186 C 0.29001 0.74292 0.12441 0.0
C2187 C 0.30534 0.75752 0.12503 0.0
H2188 H 0.27609 0.34456 0.13208 0.0
H2189 H 0.22785 0.30129 0.12289 0.0
H2190 H 0.30055 0.31754 0.13216 0.0
H2191 H 0.2528 0.27396 0.12198 0.0
H2192 H 0.30368 0.22932 0.14351 0.0
H2193 H 0.27698 0.2549 0.14371 0.0
H2194 H 0.31576 0.29528 0.10683 0.0
H2195 H 0.34247 0.27027 0.10744 0.0
C2196 C 0.27064 0.32926 0.12999 0.0
C2197 C 0.24992 0.32518 0.12745 0.0
C2198 C 0.28479 0.3137 0.12981 0.0
C2199 C 0.27874 0.29354 0.12672 0.0
C2200 C 0.25798 0.28931 0.12451 0.0
C2201 C 0.24369 0.30498 0.12494 0.0
C2202 C 0.30643 0.24366 0.13541 0.0
C2203 C 0.3253 0.24785 0.12572 0.0
C2204 C 0.29109 0.25828 0.13542 0.0
C2205 C 0.29429 0.27729 0.12557 0.0
C2206 C 0.31292 0.28106 0.11515 0.0
C2207 C 0.32825 0.26663 0.11538 0.0
H2208 H 0.94873 0.281 0.35317 0.0
H2209 H 0.9491 0.32226 0.40857 0.0
H2210 H 0.98537 0.28251 0.3514 0.0
H2211 H 0.98605 0.32318 0.40739 0.0
H2212 H 0.05368 0.32926 0.38929 0.0
H2213 H 0.01679 0.33264 0.38795 0.0
H2214 H 0.01167 0.26892 0.37326 0.0
H2215 H 0.04804 0.26573 0.37392 0.0
C2216 C 0.95667 0.29046 0.36496 0.0
C2217 C 0.94604 0.30132 0.38118 0.0
C2218 C 0.97771 0.29123 0.36404 0.0
C2219 C 0.98875 0.30263 0.37955 0.0
C2220 C 0.97807 0.3143 0.39514 0.0
C2221 C 0.95689 0.31372 0.39588 0.0
C2222 C 0.04461 0.31604 0.3857 0.0
C2223 C 0.05384 0.29727 0.38157 0.0
C2224 C 0.02348 0.31795 0.38501 0.0
C2225 C 0.01122 0.3011 0.38023 0.0
C2226 C 0.02057 0.28235 0.37639 0.0
C2227 C 0.04152 0.28049 0.37693 0.0
H2228 H 0.67225 0.05395 0.39483 0.0
H2229 H 0.73404 0.04715 0.37285 0.0
H2230 H 0.66803 0.01714 0.39368 0.0
H2231 H 0.73003 0.01086 0.37227 0.0
H2232 H 0.67999 0.94891 0.41305 0.0
H2233 H 0.67917 0.98594 0.41219 0.0
H2234 H 0.71343 0.98533 0.35128 0.0
H2235 H 0.71484 0.94869 0.35259 0.0
C2236 C 0.68491 0.04465 0.3898 0.0
C2237 C 0.70344 0.05353 0.38381 0.0
C2238 C 0.68252 0.02357 0.38923 0.0
C2239 C 0.69861 0.01103 0.38263 0.0
C2240 C 0.71713 0.02002 0.37689 0.0
C2241 C 0.71948 0.04092 0.37737 0.0
C2242 C 0.68708 0.95675 0.39935 0.0
C2243 C 0.69776 0.94595 0.38309 0.0
C2244 C 0.68657 0.97794 0.39882 0.0
C2245 C 0.69659 0.98863 0.3819 0.0
C2246 C 0.70606 0.97764 0.3649 0.0
C2247 C 0.70678 0.9566 0.36558 0.0
H2248 H 0.05132 0.67841 0.40682 0.0
H2249 H 0.0521 0.71918 0.35099 0.0
H2250 H 0.01438 0.67775 0.40557 0.0
H2251 H 0.01544 0.7179 0.3491 0.0
H2252 H 0.95274 0.73533 0.37196 0.0
H2253 H 0.98909 0.73182 0.37048 0.0
H2254 H 0.98372 0.66837 0.3865 0.0
H2255 H 0.94696 0.6721 0.38873 0.0
C2256 C 0.04361 0.68687 0.394 0.0
C2257 C 0.05456 0.69908 0.37922 0.0
C2258 C 0.02244 0.68645 0.39321 0.0
C2259 C 0.01187 0.69806 0.37747 0.0
C2260 C 0.02301 0.70924 0.36186 0.0
C2261 C 0.04406 0.70987 0.36284 0.0
C2262 C 0.95921 0.72056 0.37507 0.0
C2263 C 0.94689 0.70399 0.38046 0.0
C2264 C 0.98015 0.7185 0.37405 0.0
C2265 C 0.98942 0.69975 0.37815 0.0
C2266 C 0.97711 0.68307 0.38342 0.0
C2267 C 0.95605 0.68518 0.38459 0.0
H2268 H 0.26478 0.95291 0.37683 0.0
H2269 H 0.32823 0.94689 0.39251 0.0
H2270 H 0.2682 0.98925 0.37615 0.0
H2271 H 0.33181 0.98378 0.39122 0.0
H2272 H 0.32096 0.05185 0.41144 0.0
H2273 H 0.32198 0.01485 0.41066 0.0
H2274 H 0.28251 0.01499 0.35363 0.0
H2275 H 0.28094 0.05163 0.35494 0.0
C2276 C 0.27957 0.95933 0.37994 0.0
C2277 C 0.29627 0.94693 0.3846 0.0
C2278 C 0.28156 0.98027 0.3794 0.0
C2279 C 0.30035 0.98949 0.38328 0.0
C2280 C 0.3171 0.97716 0.38821 0.0
C2281 C 0.31507 0.95604 0.38887 0.0
C2282 C 0.31272 0.04392 0.39861 0.0
C2283 C 0.3006 0.0546 0.38349 0.0
C2284 C 0.31336 0.02274 0.3981 0.0
C2285 C 0.302 0.01192 0.38235 0.0
C2286 C 0.29096 0.02278 0.3664 0.0
C2287 C 0.29014 0.04382 0.36707 0.0
H2288 H 0.04841 0.73327 0.63175 0.0
H2289 H 0.05333 0.67109 0.61049 0.0
H2290 H 0.01203 0.73034 0.63249 0.0
H2291 H 0.01644 0.66795 0.6119 0.0
H2292 H 0.94884 0.68132 0.59197 0.0
H2293 H 0.98581 0.67951 0.5932 0.0
H2294 H 0.98569 0.71517 0.65316 0.0
H2295 H 0.94912 0.71761 0.6514 0.0
C2296 C 0.04175 0.71884 0.62747 0.0
C2297 C 0.05385 0.7024 0.6211 0.0
C2298 C 0.02078 0.71711 0.62805 0.0
C2299 C 0.01124 0.69882 0.62251 0.0
C2300 C 0.0233 0.68228 0.61615 0.0
C2301 C 0.04442 0.68405 0.61545 0.0
C2302 C 0.95677 0.68853 0.60552 0.0
C2303 C 0.94615 0.69989 0.62137 0.0
C2304 C 0.97793 0.68744 0.60629 0.0
C2305 C 0.98877 0.69753 0.62305 0.0
C2306 C 0.97791 0.70773 0.63964 0.0
C2307 C 0.95691 0.70904 0.63871 0.0
H2308 H 0.26762 0.9532 0.63221 0.0
H2309 H 0.32961 0.94716 0.61063 0.0
H2310 H 0.27135 0.98949 0.63343 0.0
H2311 H 0.33355 0.98397 0.61249 0.0
H2312 H 0.32147 0.05208 0.59362 0.0
H2313 H 0.32258 0.0151 0.59435 0.0
H2314 H 0.28719 0.01523 0.6545 0.0
H2315 H 0.28547 0.05187 0.65325 0.0
C2316 C 0.28217 0.9596 0.62793 0.0
C2317 C 0.29834 0.9472 0.62137 0.0
C2318 C 0.28436 0.98051 0.62881 0.0
C2319 C 0.30284 0.98972 0.62335 0.0
C2320 C 0.31908 0.97738 0.61671 0.0
C2321 C 0.31685 0.9563 0.61573 0.0
C2322 C 0.31419 0.04416 0.60713 0.0
C2323 C 0.30311 0.05483 0.62318 0.0
C2324 C 0.31487 0.02297 0.6076 0.0
C2325 C 0.30464 0.01215 0.62425 0.0
C2326 C 0.29474 0.02301 0.64107 0.0
C2327 C 0.29385 0.04405 0.64044 0.0
H2328 H 0.0479 0.26648 0.63153 0.0
H2329 H 0.05359 0.32908 0.61206 0.0
H2330 H 0.01156 0.27002 0.63298 0.0
H2331 H 0.01681 0.33283 0.6142 0.0
H2332 H 0.94905 0.32147 0.59446 0.0
H2333 H 0.98601 0.32249 0.59555 0.0
H2334 H 0.98543 0.28489 0.65409 0.0
H2335 H 0.94879 0.28324 0.65242 0.0
C2336 C 0.04141 0.28112 0.6278 0.0
C2337 C 0.0537 0.2975 0.62169 0.0
C2338 C 0.02048 0.2832 0.6288 0.0
C2339 C 0.01119 0.30178 0.62394 0.0
C2340 C 0.02346 0.31827 0.61791 0.0
C2341 C 0.04452 0.31615 0.61679 0.0
C2342 C 0.95687 0.31367 0.6077 0.0
C2343 C 0.94608 0.30202 0.62314 0.0
C2344 C 0.97804 0.3143 0.60838 0.0
C2345 C 0.98874 0.30346 0.62467 0.0
C2346 C 0.97775 0.29293 0.64092 0.0
C2347 C 0.95671 0.29208 0.64006 0.0
H2348 H 0.73385 0.04703 0.63034 0.0
H2349 H 0.67118 0.05324 0.61136 0.0
H2350 H 0.73014 0.01076 0.63156 0.0
H2351 H 0.66725 0.01642 0.61325 0.0
H2352 H 0.67848 0.94836 0.59374 0.0
H2353 H 0.67743 0.98533 0.59467 0.0
H2354 H 0.71514 0.98495 0.65312 0.0
H2355 H 0.71682 0.94831 0.6516 0.0
C2356 C 0.71916 0.04068 0.62664 0.0
C2357 C 0.70279 0.05312 0.62081 0.0
C2358 C 0.71698 0.01977 0.62752 0.0
C2359 C 0.69831 0.0106 0.62281 0.0
C2360 C 0.68187 0.02298 0.61688 0.0
C2361 C 0.68409 0.04407 0.61588 0.0
C2362 C 0.6863 0.95623 0.60692 0.0
C2363 C 0.698 0.94549 0.62238 0.0
C2364 C 0.68565 0.97741 0.60751 0.0
C2365 C 0.69653 0.98817 0.62371 0.0
C2366 C 0.70708 0.97723 0.64001 0.0
C2367 C 0.70795 0.95619 0.63923 0.0
H2368 H 0.54692 0.76695 0.87112 0.0
H2369 H 0.55313 0.82855 0.89394 0.0
H2370 H 0.51062 0.77066 0.8704 0.0
H2371 H 0.51629 0.83249 0.89259 0.0
H2372 H 0.44841 0.81974 0.91223 0.0
H2373 H 0.48539 0.82107 0.91097 0.0
H2374 H 0.48467 0.78687 0.85 0.0
H2375 H 0.44806 0.7849 0.85177 0.0
C2376 C 0.54056 0.78142 0.87577 0.0
C2377 C 0.553 0.79747 0.88255 0.0
C2378 C 0.51964 0.7836 0.87519 0.0
C2379 C 0.51047 0.80197 0.88116 0.0
C2380 C 0.52286 0.81811 0.88797 0.0
C2381 C 0.54395 0.81588 0.88866 0.0
C2382 C 0.45621 0.81277 0.89844 0.0
C2383 C 0.4454 0.80193 0.88231 0.0
C2384 C 0.47738 0.81358 0.89766 0.0
C2385 C 0.48804 0.80373 0.88061 0.0
C2386 C 0.47701 0.79411 0.86372 0.0
C2387 C 0.456 0.79308 0.86466 0.0
H2388 H 0.21613 0.44802 0.85046 0.0
H2389 H 0.17978 0.44835 0.90984 0.0
H2390 H 0.21393 0.48461 0.84844 0.0
H2391 H 0.17823 0.48528 0.90837 0.0
H2392 H 0.17019 0.55265 0.89132 0.0
H2393 H 0.16686 0.51579 0.88978 0.0
H2394 H 0.22907 0.51116 0.86859 0.0
H2395 H 0.23217 0.54753 0.86943 0.0
C2396 C 0.2076 0.45595 0.86307 0.0
C2397 C 0.19834 0.44534 0.88047 0.0
C2398 C 0.20643 0.47696 0.862 0.0
C2399 C 0.19627 0.48798 0.8785 0.0
C2400 C 0.18612 0.4773 0.89533 0.0
C2401 C 0.18706 0.45614 0.89624 0.0
C2402 C 0.18307 0.54371 0.88618 0.0
C2403 C 0.20142 0.55307 0.88043 0.0
C2404 C 0.1812 0.52259 0.8854 0.0
C2405 C 0.19764 0.51046 0.87889 0.0
C2406 C 0.21592 0.51995 0.87316 0.0
C2407 C 0.21774 0.54091 0.87381 0.0
H2408 H 0.45267 0.23414 0.87284 0.0
H2409 H 0.44698 0.17196 0.89386 0.0
H2410 H 0.48904 0.23073 0.87208 0.0
H2411 H 0.48382 0.16835 0.89247 0.0
H2412 H 0.55158 0.18062 0.91235 0.0
H2413 H 0.51459 0.1795 0.91127 0.0
H2414 H 0.51516 0.21512 0.85128 0.0
H2415 H 0.55177 0.21682 0.85284 0.0
C2416 C 0.45917 0.21963 0.87708 0.0
C2417 C 0.44686 0.20331 0.88337 0.0
C2418 C 0.48011 0.21762 0.87649 0.0
C2419 C 0.48942 0.19919 0.88198 0.0
C2420 C 0.47715 0.18279 0.88827 0.0
C2421 C 0.45605 0.18483 0.88896 0.0
C2422 C 0.54375 0.18796 0.89881 0.0
C2423 C 0.55453 0.19908 0.88289 0.0
C2424 C 0.52257 0.18728 0.89814 0.0
C2425 C 0.51186 0.19755 0.88141 0.0
C2426 C 0.52284 0.20754 0.86476 0.0
C2427 C 0.54387 0.20842 0.86558 0.0
H2428 H 0.76631 0.45302 0.87297 0.0
H2429 H 0.82912 0.44678 0.89138 0.0
H2430 H 0.77004 0.48933 0.87183 0.0
H2431 H 0.83306 0.48357 0.88957 0.0
H2432 H 0.82224 0.55137 0.90979 0.0
H2433 H 0.8231 0.51441 0.90853 0.0
H2434 H 0.78486 0.51538 0.8505 0.0
H2435 H 0.78339 0.55202 0.85234 0.0
C2436 C 0.78103 0.45938 0.87654 0.0
C2437 C 0.79743 0.44693 0.88224 0.0
C2438 C 0.78322 0.4803 0.87572 0.0
C2439 C 0.80193 0.48944 0.88034 0.0
C2440 C 0.81841 0.47703 0.88603 0.0
C2441 C 0.81618 0.45596 0.88699 0.0
C2442 C 0.81427 0.54364 0.89662 0.0
C2443 C 0.80249 0.55454 0.88138 0.0
C2444 C 0.81481 0.52247 0.89584 0.0
C2445 C 0.80373 0.51188 0.87966 0.0
C2446 C 0.79308 0.52298 0.86358 0.0
C2447 C 0.79233 0.54401 0.86455 0.0
H2448 H 0.45251 0.233 0.13317 0.0
H2449 H 0.44782 0.16974 0.11613 0.0
H2450 H 0.48892 0.23027 0.13401 0.0
H2451 H 0.48469 0.16679 0.11774 0.0
H2452 H 0.55178 0.17831 0.0964 0.0
H2453 H 0.5149 0.17685 0.09827 0.0
H2454 H 0.5159 0.21697 0.15476 0.0
H2455 H 0.55248 0.21906 0.15224 0.0
C2456 C 0.45924 0.21838 0.12988 0.0
C2457 C 0.44719 0.20157 0.1246 0.0
C2458 C 0.48022 0.21677 0.13053 0.0
C2459 C 0.48984 0.19825 0.12617 0.0
C2460 C 0.47781 0.18133 0.12102 0.0
C2461 C 0.45669 0.18299 0.12021 0.0
C2462 C 0.54408 0.18661 0.10935 0.0
C2463 C 0.55498 0.19903 0.12396 0.0
C2464 C 0.52294 0.18572 0.11049 0.0
C2465 C 0.51234 0.19707 0.12644 0.0
C2466 C 0.52346 0.20849 0.14186 0.0
C2467 C 0.54447 0.2096 0.14051 0.0
H2468 H 0.78305 0.55241 0.15247 0.0
H2469 H 0.8218 0.55217 0.09494 0.0
H2470 H 0.78482 0.51578 0.15423 0.0
H2471 H 0.82293 0.51522 0.0961 0.0
H2472 H 0.82957 0.44757 0.1131 0.0
H2473 H 0.83318 0.48441 0.11484 0.0
H2474 H 0.77023 0.48959 0.13308 0.0
H2475 H 0.76685 0.45327 0.13205 0.0
C2476 C 0.79202 0.54449 0.14021 0.0
C2477 C 0.80208 0.55514 0.1234 0.0
C2478 C 0.79294 0.52346 0.14113 0.0
C2479 C 0.80365 0.51247 0.12501 0.0
C2480 C 0.81459 0.52318 0.10882 0.0
C2481 C 0.81389 0.54435 0.10809 0.0
C2482 C 0.81658 0.45664 0.1176 0.0
C2483 C 0.79796 0.44744 0.12254 0.0
C2484 C 0.81862 0.47774 0.1185 0.0
C2485 C 0.80206 0.49001 0.12433 0.0
C2486 C 0.78348 0.48069 0.1291 0.0
C2487 C 0.78149 0.45975 0.12834 0.0
H2488 H 0.44877 0.78451 0.15032 0.0
H2489 H 0.44841 0.81939 0.08988 0.0
H2490 H 0.48541 0.7861 0.15133 0.0
H2491 H 0.48544 0.82041 0.09044 0.0
H2492 H 0.55358 0.82778 0.10772 0.0
H2493 H 0.51673 0.83174 0.10889 0.0
H2494 H 0.51086 0.76963 0.13001 0.0
H2495 H 0.54716 0.76585 0.1294 0.0
C2496 C 0.45655 0.79261 0.13727 0.0
C2497 C 0.44573 0.80158 0.11985 0.0
C2498 C 0.47759 0.79343 0.13777 0.0
C2499 C 0.48842 0.80298 0.1207 0.0
C2500 C 0.47757 0.81295 0.10387 0.0
C2501 C 0.45637 0.81233 0.1035 0.0
C2502 C 0.54436 0.81503 0.11267 0.0
C2503 C 0.55336 0.79654 0.1186 0.0
C2504 C 0.52327 0.81728 0.11326 0.0
C2505 C 0.51083 0.80109 0.11982 0.0
C2506 C 0.51993 0.7826 0.12544 0.0
C2507 C 0.54085 0.78038 0.12493 0.0
H2508 H 0.17222 0.44725 0.11167 0.0
H2509 H 0.23562 0.45246 0.12793 0.0
H2510 H 0.169 0.48415 0.11342 0.0
H2511 H 0.23258 0.48881 0.12901 0.0
H2512 H 0.22065 0.55141 0.14994 0.0
H2513 H 0.21869 0.51479 0.15126 0.0
H2514 H 0.17903 0.5151 0.09438 0.0
H2515 H 0.18039 0.55207 0.09366 0.0
C2516 C 0.18544 0.45623 0.11555 0.0
C2517 C 0.20413 0.44688 0.11981 0.0
C2518 C 0.18362 0.47735 0.11647 0.0
C2519 C 0.20047 0.48947 0.12163 0.0
C2520 C 0.21914 0.48001 0.12559 0.0
C2521 C 0.22092 0.45906 0.1248 0.0
C2522 C 0.21132 0.54369 0.13786 0.0
C2523 C 0.20089 0.55459 0.12151 0.0
C2524 C 0.21028 0.52267 0.13852 0.0
C2525 C 0.19907 0.51192 0.12262 0.0
C2526 C 0.18778 0.52288 0.10692 0.0
C2527 C 0.18861 0.54405 0.10644 0.0
H2528 H 0.10985 0.26379 0.44501 0.0
H2529 H 0.14165 0.32082 0.44337 0.0
H2530 H 0.10969 0.26484 0.48521 0.0
H2531 H 0.1407 0.32232 0.48361 0.0
H2532 H 0.15495 0.30766 0.55614 0.0
H2533 H 0.15474 0.30788 0.51581 0.0
H2534 H 0.09526 0.28083 0.51606 0.0
H2535 H 0.09588 0.27981 0.55628 0.0
C2536 C 0.11659 0.2767 0.4532 0.0
C2537 C 0.12574 0.29223 0.44087 0.0
C2538 C 0.11638 0.27738 0.47633 0.0
C2539 C 0.12511 0.29372 0.48781 0.0
C2540 C 0.1341 0.30934 0.47544 0.0
C2541 C 0.13451 0.30855 0.45229 0.0
C2542 C 0.14179 0.30184 0.54758 0.0
C2543 C 0.1255 0.29359 0.55948 0.0
C2544 C 0.14161 0.30206 0.5244 0.0
C2545 C 0.12503 0.29425 0.51253 0.0
C2546 C 0.10851 0.28654 0.52453 0.0
C2547 C 0.1088 0.28609 0.54766 0.0
H2548 H 0.72517 0.09655 0.55787 0.0
H2549 H 0.694 0.15393 0.55745 0.0
H2550 H 0.72416 0.09575 0.51762 0.0
H2551 H 0.69381 0.15362 0.5172 0.0
H2552 H 0.68074 0.13975 0.44519 0.0
H2553 H 0.6798 0.13881 0.48545 0.0
H2554 H 0.73871 0.11055 0.48622 0.0
H2555 H 0.73919 0.11063 0.44601 0.0
C2556 C 0.71821 0.10907 0.54919 0.0
C2557 C 0.7097 0.12532 0.56094 0.0
C2558 C 0.71775 0.10869 0.52604 0.0
C2559 C 0.709 0.12467 0.51399 0.0
C2560 C 0.70038 0.14086 0.5258 0.0
C2561 C 0.70061 0.14111 0.54896 0.0
C2562 C 0.69344 0.13323 0.45394 0.0
C2563 C 0.71 0.1252 0.4423 0.0
C2564 C 0.69298 0.13282 0.4771 0.0
C2565 C 0.70919 0.12462 0.48925 0.0
C2566 C 0.72575 0.11662 0.47754 0.0
C2567 C 0.72609 0.11679 0.4544 0.0
H2568 H 0.84606 0.69343 0.44649 0.0
H2569 H 0.90514 0.72125 0.44635 0.0
H2570 H 0.84634 0.693 0.48676 0.0
H2571 H 0.90586 0.71998 0.48658 0.0
H2572 H 0.89113 0.73642 0.55793 0.0
H2573 H 0.89154 0.73566 0.5177 0.0
H2574 H 0.86038 0.67822 0.51861 0.0
H2575 H 0.85913 0.67948 0.55882 0.0
C2576 C 0.85924 0.69919 0.45504 0.0
C2577 C 0.87552 0.70749 0.44317 0.0
C2578 C 0.85947 0.69884 0.4782 0.0
C2579 C 0.87609 0.70654 0.49006 0.0
C2580 C 0.89259 0.71433 0.4781 0.0
C2581 C 0.89225 0.71492 0.45498 0.0
C2582 C 0.88441 0.72359 0.54956 0.0
C2583 C 0.87509 0.70802 0.56167 0.0
C2584 C 0.88476 0.72307 0.52643 0.0
C2585 C 0.87603 0.70685 0.51477 0.0
C2586 C 0.86696 0.69114 0.52693 0.0
C2587 C 0.86637 0.69178 0.55006 0.0
H2588 H 0.27635 0.90375 0.55814 0.0
H2589 H 0.30788 0.84657 0.55777 0.0
H2590 H 0.27703 0.90437 0.51788 0.0
H2591 H 0.30775 0.8467 0.5175 0.0
H2592 H 0.26134 0.88911 0.4466 0.0
H2593 H 0.2622 0.88928 0.4868 0.0
H2594 H 0.3213 0.86144 0.48543 0.0
H2595 H 0.31999 0.86042 0.44519 0.0
C2596 C 0.28334 0.89124 0.54946 0.0
C2597 C 0.29202 0.87509 0.56123 0.0
C2598 C 0.2836 0.89151 0.52631 0.0
C2599 C 0.29232 0.87552 0.51427 0.0
C2600 C 0.30117 0.85945 0.5261 0.0
C2601 C 0.30114 0.85931 0.54926 0.0
C2602 C 0.27455 0.88306 0.45485 0.0
C2603 C 0.2906 0.87477 0.44258 0.0
C2604 C 0.27512 0.88327 0.47799 0.0
C2605 C 0.29186 0.87543 0.48953 0.0
C2606 C 0.308 0.86731 0.47722 0.0
C2607 C 0.30732 0.86686 0.45407 0.0
H2608 H 0.09548 0.71606 0.44468 0.0
H2609 H 0.15572 0.69087 0.44572 0.0
H2610 H 0.09442 0.71495 0.48491 0.0
H2611 H 0.15508 0.69063 0.48598 0.0
H2612 H 0.14257 0.67792 0.55832 0.0
H2613 H 0.14151 0.67576 0.5181 0.0
H2614 H 0.10794 0.73178 0.51565 0.0
H2615 H 0.10815 0.73339 0.55577 0.0
C2616 C 0.10855 0.71035 0.4535 0.0
C2617 C 0.12572 0.70364 0.44197 0.0
C2618 C 0.108 0.70984 0.47662 0.0
C2619 C 0.12474 0.70288 0.48882 0.0
C2620 C 0.14178 0.69583 0.47722 0.0
C2621 C 0.14221 0.69608 0.45408 0.0
C2622 C 0.13482 0.68969 0.54921 0.0
C2623 C 0.12537 0.70578 0.56034 0.0
C2624 C 0.13434 0.68853 0.52608 0.0
C2625 C 0.12464 0.70359 0.5135 0.0
C2626 C 0.1152 0.71966 0.52471 0.0
C2627 C 0.11544 0.72067 0.5478 0.0
H2628 H 0.26649 0.10918 0.44811 0.0
H2629 H 0.32279 0.14227 0.4471 0.0
H2630 H 0.2672 0.10894 0.4883 0.0
H2631 H 0.32406 0.14114 0.48732 0.0
H2632 H 0.30872 0.15581 0.55903 0.0
H2633 H 0.309 0.15517 0.51883 0.0
H2634 H 0.28273 0.09533 0.51979 0.0
H2635 H 0.28155 0.09643 0.56007 0.0
C2636 C 0.27919 0.11617 0.45645 0.0
C2637 C 0.29458 0.12577 0.44431 0.0
C2638 C 0.27967 0.11591 0.47957 0.0
C2639 C 0.29569 0.12501 0.49121 0.0
C2640 C 0.31127 0.1343 0.47902 0.0
C2641 C 0.31064 0.13481 0.45588 0.0
C2642 C 0.30303 0.14249 0.55068 0.0
C2643 C 0.29501 0.12622 0.56279 0.0
C2644 C 0.30333 0.14205 0.52755 0.0
C2645 C 0.29588 0.1252 0.51591 0.0
C2646 C 0.28822 0.10875 0.5281 0.0
C2647 C 0.28766 0.10931 0.55124 0.0
H2648 H 0.90475 0.28438 0.4462 0.0
H2649 H 0.84413 0.30863 0.44691 0.0
H2650 H 0.90571 0.28573 0.48643 0.0
H2651 H 0.84467 0.30908 0.48717 0.0
H2652 H 0.8568 0.32292 0.55927 0.0
H2653 H 0.85779 0.32449 0.51903 0.0
H2654 H 0.89276 0.26929 0.51761 0.0
H2655 H 0.89263 0.26833 0.55778 0.0
C2656 C 0.89157 0.28991 0.45496 0.0
C2657 C 0.87434 0.29633 0.44332 0.0
C2658 C 0.89206 0.29056 0.47808 0.0
C2659 C 0.87521 0.29737 0.49021 0.0
C2660 C 0.85806 0.30404 0.47849 0.0
C2661 C 0.85769 0.30366 0.45534 0.0
C2662 C 0.86485 0.31121 0.55038 0.0
C2663 C 0.87471 0.29555 0.56183 0.0
C2664 C 0.86528 0.31201 0.52724 0.0
C2665 C 0.87534 0.29701 0.51492 0.0
C2666 C 0.88521 0.28136 0.52644 0.0
C2667 C 0.88501 0.28073 0.54956 0.0
H2668 H 0.69171 0.84396 0.55709 0.0
H2669 H 0.71801 0.90373 0.55776 0.0
H2670 H 0.69154 0.8444 0.51683 0.0
H2671 H 0.71701 0.90457 0.51751 0.0
H2672 H 0.73359 0.89086 0.4459 0.0
H2673 H 0.73293 0.89096 0.48614 0.0
H2674 H 0.67638 0.85824 0.48512 0.0
H2675 H 0.67755 0.85733 0.44491 0.0
C2676 C 0.69722 0.85731 0.54866 0.0
C2677 C 0.70497 0.87376 0.56069 0.0
C2678 C 0.69701 0.85763 0.5255 0.0
C2679 C 0.70431 0.87451 0.51376 0.0
C2680 C 0.71165 0.89113 0.52588 0.0
C2681 C 0.7121 0.89071 0.54902 0.0
C2682 C 0.72098 0.88373 0.45424 0.0
C2683 C 0.70563 0.87409 0.44209 0.0
C2684 C 0.72052 0.88389 0.47739 0.0
C2685 C 0.70458 0.87463 0.48904 0.0
C2686 C 0.6891 0.86523 0.47683 0.0
C2687 C 0.68968 0.86484 0.45369 0.0
H2688 H 0.63959 0.81959 0.05813 0.0
H2689 H 0.61114 0.76082 0.05717 0.0
H2690 H 0.63854 0.82066 0.01789 0.0
H2691 H 0.61093 0.76145 0.01695 0.0
H2692 H 0.59639 0.77527 0.94549 0.0
H2693 H 0.59576 0.77611 0.98575 0.0
H2694 H 0.65342 0.80685 0.98601 0.0
H2695 H 0.65357 0.80681 0.94575 0.0
C2696 C 0.6332 0.80684 0.04935 0.0
C2697 C 0.62538 0.79016 0.06096 0.0
C2698 C 0.63272 0.80738 0.0262 0.0
C2699 C 0.62466 0.79114 0.01402 0.0
C2700 C 0.6169 0.77443 0.02568 0.0
C2701 C 0.61713 0.77401 0.04882 0.0
C2702 C 0.6089 0.78229 0.95414 0.0
C2703 C 0.62505 0.79093 0.94235 0.0
C2704 C 0.60861 0.78265 0.97729 0.0
C2705 C 0.6246 0.79144 0.98929 0.0
C2706 C 0.64067 0.80023 0.97744 0.0
C2707 C 0.64083 0.80009 0.95428 0.0
H2708 H 0.1929 0.6552 0.94535 0.0
H2709 H 0.21792 0.59488 0.94523 0.0
H2710 H 0.19237 0.65492 0.98563 0.0
H2711 H 0.21652 0.5942 0.98545 0.0
H2712 H 0.2342 0.6083 0.05642 0.0
H2713 H 0.23309 0.60791 0.01627 0.0
H2714 H 0.1771 0.64159 0.01767 0.0
H2715 H 0.17875 0.64282 0.05791 0.0
C2716 C 0.19802 0.64176 0.95391 0.0
C2717 C 0.20561 0.62513 0.94206 0.0
C2718 C 0.1976 0.64154 0.97706 0.0
C2719 C 0.20451 0.62457 0.98892 0.0
C2720 C 0.21152 0.60772 0.97696 0.0
C2721 C 0.2122 0.60805 0.95385 0.0
C2722 C 0.2216 0.61558 0.04821 0.0
C2723 C 0.20656 0.62558 0.06046 0.0
C2724 C 0.22088 0.61523 0.0251 0.0
C2725 C 0.20496 0.62465 0.0136 0.0
C2726 C 0.18977 0.63444 0.02589 0.0
C2727 C 0.19063 0.63501 0.04902 0.0
H2728 H 0.4058 0.21646 0.05935 0.0
H2729 H 0.34549 0.19141 0.05884 0.0
H2730 H 0.40665 0.21521 0.01915 0.0
H2731 H 0.34595 0.19101 0.01852 0.0
H2732 H 0.35839 0.17843 0.94591 0.0
H2733 H 0.35945 0.17618 0.98615 0.0
H2734 H 0.39279 0.23232 0.98874 0.0
H2735 H 0.39255 0.23406 0.94865 0.0
C2736 C 0.39268 0.21074 0.05064 0.0
C2737 C 0.37553 0.20415 0.06231 0.0
C2738 C 0.3931 0.21015 0.02754 0.0
C2739 C 0.37628 0.20323 0.01547 0.0
C2740 C 0.35929 0.19621 0.0272 0.0
C2741 C 0.35897 0.19654 0.05035 0.0
C2742 C 0.36609 0.19021 0.95507 0.0
C2743 C 0.37548 0.20637 0.94398 0.0
C2744 C 0.36657 0.18899 0.97819 0.0
C2745 C 0.37624 0.20404 0.9908 0.0
C2746 C 0.38558 0.2202 0.97965 0.0
C2747 C 0.38532 0.22128 0.95657 0.0
H2748 H 0.77878 0.40521 0.05881 0.0
H2749 H 0.80721 0.34644 0.05838 0.0
H2750 H 0.78022 0.40618 0.01858 0.0
H2751 H 0.80775 0.3469 0.01813 0.0
H2752 H 0.8209 0.35976 0.94596 0.0
H2753 H 0.82229 0.3609 0.98622 0.0
H2754 H 0.76487 0.39209 0.98741 0.0
H2755 H 0.76403 0.39186 0.94727 0.0
C2756 C 0.78523 0.39243 0.05011 0.0
C2757 C 0.79281 0.37572 0.06183 0.0
C2758 C 0.78594 0.39291 0.02699 0.0
C2759 C 0.79396 0.37655 0.01494 0.0
C2760 C 0.80175 0.35993 0.02674 0.0
C2761 C 0.80131 0.35959 0.04989 0.0
C2762 C 0.80866 0.367 0.95481 0.0
C2763 C 0.79241 0.37579 0.94332 0.0
C2764 C 0.80936 0.36752 0.97797 0.0
C2765 C 0.79368 0.37658 0.99022 0.0
C2766 C 0.77745 0.38535 0.97864 0.0
C2767 C 0.77689 0.38509 0.95553 0.0
H2768 H 0.65606 0.19151 0.05711 0.0
H2769 H 0.59659 0.21847 0.0578 0.0
H2770 H 0.65572 0.19159 0.01685 0.0
H2771 H 0.59583 0.21773 0.01754 0.0
H2772 H 0.64287 0.17825 0.94477 0.0
H2773 H 0.64185 0.17685 0.98496 0.0
H2774 H 0.60966 0.23369 0.9863 0.0
H2775 H 0.60985 0.23459 0.94605 0.0
C2776 C 0.64278 0.1972 0.04868 0.0
C2777 C 0.6264 0.20507 0.06073 0.0
C2778 C 0.64252 0.19715 0.02552 0.0
C2779 C 0.62576 0.20472 0.01378 0.0
C2780 C 0.60919 0.21216 0.0259 0.0
C2781 C 0.60955 0.21245 0.04906 0.0
C2782 C 0.63545 0.1904 0.95361 0.0
C2783 C 0.62638 0.2065 0.94209 0.0
C2784 C 0.63501 0.18968 0.97675 0.0
C2785 C 0.62571 0.20517 0.98904 0.0
C2786 C 0.61663 0.22127 0.97748 0.0
C2787 C 0.61685 0.22187 0.95433 0.0
H2788 H 0.76878 0.60826 0.05774 0.0
H2789 H 0.8235 0.64392 0.05899 0.0
H2790 H 0.76965 0.60805 0.01757 0.0
H2791 H 0.82493 0.64287 0.01875 0.0
H2792 H 0.80864 0.65663 0.94671 0.0
H2793 H 0.80926 0.6561 0.98698 0.0
H2794 H 0.78613 0.59498 0.98638 0.0
H2795 H 0.78463 0.59591 0.94616 0.0
C2796 C 0.78118 0.61582 0.04947 0.0
C2797 C 0.79607 0.62611 0.06167 0.0
C2798 C 0.78176 0.61558 0.02635 0.0
C2799 C 0.79739 0.6254 0.01477 0.0
C2800 C 0.81247 0.63543 0.02702 0.0
C2801 C 0.81174 0.63589 0.05016 0.0
C2802 C 0.80375 0.64305 0.95518 0.0
C2803 C 0.79644 0.62637 0.9432 0.0
C2804 C 0.80422 0.64269 0.97832 0.0
C2805 C 0.79767 0.62552 0.99007 0.0
C2806 C 0.79087 0.60864 0.978 0.0
C2807 C 0.79013 0.60911 0.95488 0.0
H2808 H 0.40289 0.77855 0.94558 0.0
H2809 H 0.34442 0.80762 0.94635 0.0
H2810 H 0.40378 0.77946 0.98587 0.0
H2811 H 0.34485 0.8077 0.98656 0.0
H2812 H 0.35834 0.82176 0.05816 0.0
H2813 H 0.35931 0.82247 0.01796 0.0
H2814 H 0.38978 0.76467 0.01768 0.0
H2815 H 0.38967 0.76447 0.05795 0.0
C2816 C 0.39016 0.78502 0.95434 0.0
C2817 C 0.37359 0.79302 0.94268 0.0
C2818 C 0.3906 0.78543 0.97751 0.0
C2819 C 0.37437 0.79361 0.98964 0.0
C2820 C 0.35782 0.80161 0.9779 0.0
C2821 C 0.3575 0.80145 0.95475 0.0
C2822 C 0.36536 0.80925 0.04955 0.0
C2823 C 0.37397 0.79309 0.06137 0.0
C2824 C 0.36578 0.80957 0.0264 0.0
C2825 C 0.37455 0.79359 0.01439 0.0
C2826 C 0.3832 0.77744 0.02625 0.0
C2827 C 0.38303 0.77725 0.04942 0.0
H2828 H 0.19184 0.34519 0.94565 0.0
H2829 H 0.22202 0.40308 0.94399 0.0
H2830 H 0.19232 0.34586 0.98587 0.0
H2831 H 0.22168 0.40421 0.98427 0.0
H2832 H 0.23787 0.3901 0.05598 0.0
H2833 H 0.23685 0.39003 0.01574 0.0
H2834 H 0.17848 0.36071 0.01761 0.0
H2835 H 0.17998 0.35992 0.05781 0.0
C2836 C 0.19836 0.3582 0.95386 0.0
C2837 C 0.20697 0.37404 0.94153 0.0
C2838 C 0.19853 0.35865 0.97701 0.0
C2839 C 0.20705 0.37509 0.9885 0.0
C2840 C 0.21534 0.3911 0.97611 0.0
C2841 C 0.2154 0.39053 0.95294 0.0
C2842 C 0.22478 0.38368 0.04782 0.0
C2843 C 0.20901 0.375 0.06021 0.0
C2844 C 0.22412 0.38375 0.02466 0.0
C2845 C 0.20757 0.37537 0.01325 0.0
C2846 C 0.19166 0.36697 0.0257 0.0
C2847 C 0.19244 0.36666 0.04885 0.0
H2848 H 0.16114 0.33109 0.18568 0.0
H2849 H 0.21723 0.35262 0.21375 0.0
H2850 H 0.14983 0.32072 0.22245 0.0
H2851 H 0.20594 0.3421 0.25045 0.0
H2852 H 0.16977 0.33978 0.31538 0.0
H2853 H 0.18017 0.35103 0.2786 0.0
H2854 H 0.15868 0.29494 0.25066 0.0
H2855 H 0.14813 0.28371 0.28737 0.0
C2856 C 0.17105 0.33362 0.19968 0.0
C2857 C 0.19012 0.34263 0.19676 0.0
C2858 C 0.16461 0.32758 0.22073 0.0
C2859 C 0.177 0.33055 0.23936 0.0
C2860 C 0.19596 0.33976 0.23647 0.0
C2861 C 0.20248 0.34567 0.2154 0.0
C2862 C 0.16721 0.32986 0.30139 0.0
C2863 C 0.15817 0.31081 0.30433 0.0
C2864 C 0.17328 0.33627 0.28033 0.0
C2865 C 0.17028 0.32387 0.26171 0.0
C2866 C 0.16103 0.30493 0.26463 0.0
C2867 C 0.1551 0.29844 0.2857 0.0
H2868 H 0.6496 0.21488 0.2141 0.0
H2869 H 0.67093 0.15839 0.18681 0.0
H2870 H 0.65963 0.20381 0.25101 0.0
H2871 H 0.68083 0.14729 0.22384 0.0
H2872 H 0.71761 0.14633 0.28902 0.0
H2873 H 0.70649 0.1563 0.2521 0.0
H2874 H 0.65042 0.17846 0.27947 0.0
H2875 H 0.66158 0.16864 0.3165 0.0
C2876 C 0.65638 0.20008 0.21597 0.0
C2877 C 0.65954 0.18755 0.19748 0.0
C2878 C 0.66201 0.19369 0.23717 0.0
C2879 C 0.67105 0.17468 0.24037 0.0
C2880 C 0.67409 0.16211 0.22189 0.0
C2881 C 0.66833 0.16843 0.20069 0.0
C2882 C 0.7029 0.15333 0.28719 0.0
C2883 C 0.69052 0.15677 0.30574 0.0
C2884 C 0.69648 0.15891 0.26599 0.0
C2885 C 0.67758 0.16819 0.26285 0.0
C2886 C 0.66515 0.17154 0.28138 0.0
C2887 C 0.67151 0.16581 0.30258 0.0
H2888 H 0.84181 0.67225 0.18727 0.0
H2889 H 0.78572 0.64976 0.21444 0.0
H2890 H 0.85267 0.68231 0.22432 0.0
H2891 H 0.79656 0.65994 0.2514 0.0
H2892 H 0.83223 0.66182 0.31664 0.0
H2893 H 0.82247 0.65081 0.27957 0.0
H2894 H 0.84288 0.70777 0.25275 0.0
H2895 H 0.85277 0.71877 0.28976 0.0
C2896 C 0.8318 0.66944 0.20113 0.0
C2897 C 0.81287 0.66026 0.1979 0.0
C2898 C 0.83799 0.6753 0.22233 0.0
C2899 C 0.82546 0.67194 0.24077 0.0
C2900 C 0.80663 0.66256 0.23755 0.0
C2901 C 0.80037 0.65685 0.21634 0.0
C2902 C 0.83469 0.67198 0.30284 0.0
C2903 C 0.84322 0.6912 0.30617 0.0
C2904 C 0.829 0.66571 0.28162 0.0
C2905 C 0.83187 0.67844 0.26325 0.0
C2906 C 0.84064 0.69755 0.26655 0.0
C2907 C 0.84618 0.70389 0.28778 0.0
H2908 H 0.3149 0.82928 0.18594 0.0
H2909 H 0.36673 0.79945 0.2142 0.0
H2910 H 0.30388 0.83945 0.2227 0.0
H2911 H 0.35707 0.81113 0.25084 0.0
H2912 H 0.3266 0.81815 0.31711 0.0
H2913 H 0.33688 0.80739 0.28032 0.0
H2914 H 0.30692 0.85971 0.25228 0.0
H2915 H 0.29515 0.86909 0.289 0.0
C2916 C 0.32411 0.82524 0.2001 0.0
C2917 C 0.34156 0.81351 0.19733 0.0
C2918 C 0.31794 0.83122 0.22127 0.0
C2919 C 0.32948 0.82622 0.24017 0.0
C2920 C 0.34731 0.81488 0.23707 0.0
C2921 C 0.35306 0.80831 0.21598 0.0
C2922 C 0.32221 0.82723 0.30297 0.0
C2923 C 0.31003 0.84435 0.3058 0.0
C2924 C 0.32827 0.82121 0.28178 0.0
C2925 C 0.32289 0.83261 0.26291 0.0
C2926 C 0.31101 0.85009 0.26605 0.0
C2927 C 0.30438 0.85567 0.28717 0.0
H2928 H 0.17283 0.68344 0.81682 0.0
H2929 H 0.20305 0.63205 0.78809 0.0
H2930 H 0.16265 0.69473 0.78019 0.0
H2931 H 0.19131 0.64196 0.75152 0.0
H2932 H 0.18391 0.67288 0.68561 0.0
H2933 H 0.19486 0.66245 0.72228 0.0
H2934 H 0.14234 0.69177 0.75069 0.0
H2935 H 0.13279 0.70375 0.71409 0.0
C2936 C 0.17695 0.67438 0.80257 0.0
C2937 C 0.18877 0.65697 0.80516 0.0
C2938 C 0.17095 0.68071 0.78147 0.0
C2939 C 0.17602 0.66935 0.76249 0.0
C2940 C 0.18749 0.65156 0.7654 0.0
C2941 C 0.1941 0.64568 0.78642 0.0
C2942 C 0.17485 0.67712 0.69982 0.0
C2943 C 0.15761 0.68917 0.69715 0.0
C2944 C 0.18097 0.67096 0.72093 0.0
C2945 C 0.16955 0.67609 0.73985 0.0
C2946 C 0.15197 0.68787 0.73687 0.0
C2947 C 0.1463 0.69462 0.71583 0.0
H2948 H 0.2861 0.14903 0.71535 0.0
H2949 H 0.34158 0.1727 0.68786 0.0
H2950 H 0.29697 0.15926 0.75225 0.0
H2951 H 0.35249 0.18278 0.7249 0.0
H2952 H 0.35247 0.21862 0.79082 0.0
H2953 H 0.34257 0.20781 0.75373 0.0
H2954 H 0.32311 0.15032 0.78004 0.0
H2955 H 0.33283 0.16114 0.81716 0.0
C2956 C 0.30063 0.15639 0.71717 0.0
C2957 C 0.31295 0.16011 0.69865 0.0
C2958 C 0.3069 0.16213 0.73835 0.0
C2959 C 0.32558 0.17183 0.74148 0.0
C2960 C 0.33793 0.17552 0.72297 0.0
C2961 C 0.33172 0.16964 0.70179 0.0
C2962 C 0.34608 0.20367 0.7887 0.0
C2963 C 0.34335 0.19077 0.80696 0.0
C2964 C 0.34054 0.19744 0.76743 0.0
C2965 C 0.33202 0.17823 0.76397 0.0
C2966 C 0.32942 0.1653 0.78221 0.0
C2967 C 0.33509 0.17146 0.80346 0.0
H2968 H 0.86677 0.29857 0.71501 0.0
H2969 H 0.81496 0.3286 0.68693 0.0
H2970 H 0.85714 0.31015 0.75171 0.0
H2971 H 0.80396 0.33863 0.72373 0.0
H2972 H 0.79542 0.3683 0.78995 0.0
H2973 H 0.80714 0.35889 0.75322 0.0
H2974 H 0.83701 0.3065 0.78124 0.0
H2975 H 0.82682 0.31732 0.81804 0.0
C2976 C 0.8531 0.30744 0.71685 0.0
C2977 C 0.84161 0.31276 0.69825 0.0
C2978 C 0.84738 0.31395 0.73796 0.0
C2979 C 0.82958 0.32534 0.74111 0.0
C2980 C 0.81801 0.33039 0.72226 0.0
C2981 C 0.82416 0.32448 0.70107 0.0
C2982 C 0.80462 0.35485 0.78811 0.0
C2983 C 0.81028 0.34354 0.80672 0.0
C2984 C 0.81122 0.34926 0.76698 0.0
C2985 C 0.82305 0.33175 0.76384 0.0
C2986 C 0.82843 0.32034 0.7827 0.0
C2987 C 0.82242 0.32639 0.8039 0.0
H2988 H 0.65833 0.82934 0.68669 0.0
H2989 H 0.71447 0.85135 0.71418 0.0
H2990 H 0.64717 0.81946 0.7237 0.0
H2991 H 0.70337 0.84131 0.75108 0.0
H2992 H 0.66808 0.83905 0.81642 0.0
H2993 H 0.67786 0.85028 0.77941 0.0
H2994 H 0.65629 0.79399 0.75202 0.0
H2995 H 0.64634 0.7828 0.78892 0.0
C2996 C 0.66828 0.8321 0.70061 0.0
C2997 C 0.68732 0.84107 0.69746 0.0
C2998 C 0.66192 0.82634 0.7218 0.0
C2999 C 0.6744 0.82957 0.74032 0.0
C3000 C 0.69332 0.83879 0.73719 0.0
C3001 C 0.69973 0.84442 0.716 0.0
C3002 C 0.66537 0.82909 0.80249 0.0
C3003 C 0.6565 0.81 0.80565 0.0
C3004 C 0.67107 0.83549 0.78131 0.0
C3005 C 0.66789 0.82301 0.76278 0.0
C3006 C 0.65877 0.80404 0.76591 0.0
C3007 C 0.6532 0.79758 0.7871 0.0
H3008 H 0.81572 0.67348 0.68669 0.0
H3009 H 0.86779 0.70369 0.71394 0.0
H3010 H 0.80529 0.66334 0.72368 0.0
H3011 H 0.85873 0.69204 0.75078 0.0
H3012 H 0.82905 0.685 0.81749 0.0
H3013 H 0.83877 0.69579 0.78052 0.0
H3014 H 0.80926 0.64295 0.75308 0.0
H3015 H 0.79802 0.63352 0.78999 0.0
C3016 C 0.82509 0.67763 0.70068 0.0
C3017 C 0.84244 0.68944 0.6976 0.0
C3018 C 0.81928 0.67166 0.72196 0.0
C3019 C 0.8311 0.67675 0.74061 0.0
C3020 C 0.8488 0.68821 0.73719 0.0
C3021 C 0.85418 0.69477 0.716 0.0
C3022 C 0.82465 0.67581 0.80344 0.0
C3023 C 0.81275 0.65853 0.80647 0.0
C3024 C 0.83038 0.68185 0.78216 0.0
C3025 C 0.82493 0.67032 0.76343 0.0
C3026 C 0.81337 0.65266 0.76677 0.0
C3027 C 0.80706 0.64706 0.78799 0.0
H3028 H 0.35199 0.78583 0.78955 0.0
H3029 H 0.32921 0.84158 0.81725 0.0
H3030 H 0.34224 0.79711 0.75264 0.0
H3031 H 0.31964 0.85293 0.7802 0.0
H3032 H 0.28363 0.85381 0.7145 0.0
H3033 H 0.29458 0.84386 0.75148 0.0
H3034 H 0.35126 0.82277 0.7246 0.0
H3035 H 0.34026 0.83254 0.6875 0.0
C3036 C 0.34494 0.80052 0.78777 0.0
C3037 C 0.34128 0.81276 0.80638 0.0
C3038 C 0.33949 0.80704 0.76658 0.0
C3039 C 0.33016 0.82591 0.76348 0.0
C3040 C 0.32662 0.83822 0.78207 0.0
C3041 C 0.33219 0.83175 0.80327 0.0
C3042 C 0.29844 0.84706 0.71645 0.0
C3043 C 0.31103 0.84387 0.69802 0.0
C3044 C 0.30477 0.8415 0.73769 0.0
C3045 C 0.32378 0.8325 0.74098 0.0
C3046 C 0.33644 0.82947 0.72257 0.0
C3047 C 0.33017 0.83516 0.70134 0.0
H3048 H 0.16746 0.3396 0.6867 0.0
H3049 H 0.14717 0.28247 0.71331 0.0
H3050 H 0.17689 0.35063 0.72388 0.0
H3051 H 0.15675 0.29347 0.75042 0.0
H3052 H 0.15831 0.32821 0.81638 0.0
H3053 H 0.14717 0.31843 0.77929 0.0
H3054 H 0.20273 0.34178 0.75186 0.0
H3055 H 0.21381 0.35169 0.78878 0.0
C3056 C 0.16497 0.32941 0.70047 0.0
C3057 C 0.15665 0.31012 0.69701 0.0
C3058 C 0.17047 0.33569 0.72175 0.0
C3059 C 0.16762 0.3229 0.74009 0.0
C3060 C 0.15898 0.30375 0.73667 0.0
C3061 C 0.15362 0.2974 0.71537 0.0
C3062 C 0.16811 0.33131 0.80242 0.0
C3063 C 0.18698 0.34066 0.80556 0.0
C3064 C 0.16178 0.32561 0.78119 0.0
C3065 C 0.17408 0.32931 0.76263 0.0
C3066 C 0.19281 0.3389 0.76577 0.0
C3067 C 0.19921 0.34445 0.78698 0.0
H3068 H 0.70437 0.13137 0.71431 0.0
H3069 H 0.67349 0.1826 0.68607 0.0
H3070 H 0.69257 0.14085 0.75098 0.0
H3071 H 0.66319 0.19346 0.72283 0.0
H3072 H 0.68511 0.17146 0.81719 0.0
H3073 H 0.69599 0.16122 0.78041 0.0
H3074 H 0.64297 0.18996 0.75237 0.0
H3075 H 0.63345 0.20171 0.78904 0.0
C3076 C 0.69525 0.14487 0.7161 0.0
C3077 C 0.68978 0.15625 0.69746 0.0
C3078 C 0.6886 0.15051 0.7372 0.0
C3079 C 0.67692 0.16812 0.74029 0.0
C3080 C 0.67167 0.17956 0.7214 0.0
C3081 C 0.67773 0.17348 0.70023 0.0
C3082 C 0.67591 0.17559 0.80304 0.0
C3083 C 0.65855 0.18744 0.80584 0.0
C3084 C 0.68199 0.16956 0.78187 0.0
C3085 C 0.67044 0.17462 0.76301 0.0
C3086 C 0.65271 0.18613 0.76613 0.0
C3087 C 0.64706 0.19275 0.78723 0.0
H3088 H 0.78314 0.35359 0.21501 0.0
H3089 H 0.83948 0.33185 0.18773 0.0
H3090 H 0.79423 0.34363 0.25196 0.0
H3091 H 0.85059 0.32205 0.22476 0.0
H3092 H 0.85143 0.28556 0.29009 0.0
H3093 H 0.84133 0.2965 0.25314 0.0
H3094 H 0.81993 0.353 0.28016 0.0
H3095 H 0.82988 0.34204 0.3172 0.0
C3096 C 0.7979 0.34672 0.21689 0.0
C3097 C 0.81039 0.34343 0.19841 0.0
C3098 C 0.8043 0.34115 0.23809 0.0
C3099 C 0.82327 0.33204 0.24127 0.0
C3100 C 0.8358 0.32884 0.2228 0.0
C3101 C 0.82947 0.33456 0.20161 0.0
C3102 C 0.84458 0.30033 0.28817 0.0
C3103 C 0.84139 0.3129 0.30661 0.0
C3104 C 0.83892 0.30664 0.26697 0.0
C3105 C 0.82981 0.3256 0.26374 0.0
C3106 C 0.82672 0.33822 0.28216 0.0
C3107 C 0.83252 0.33198 0.30335 0.0
H3108 H 0.68226 0.82655 0.18615 0.0
H3109 H 0.63109 0.79548 0.21427 0.0
H3110 H 0.69308 0.83678 0.22294 0.0
H3111 H 0.64054 0.80721 0.25098 0.0
H3112 H 0.67097 0.81488 0.31727 0.0
H3113 H 0.66087 0.8039 0.28047 0.0
H3114 H 0.68942 0.85701 0.25245 0.0
H3115 H 0.70103 0.86664 0.28914 0.0
C3116 C 0.67315 0.82224 0.20029 0.0
C3117 C 0.65594 0.81017 0.19747 0.0
C3118 C 0.6792 0.82826 0.22148 0.0
C3119 C 0.66777 0.82297 0.24034 0.0
C3120 C 0.65019 0.81123 0.23721 0.0
C3121 C 0.64457 0.80462 0.21609 0.0
C3122 C 0.67509 0.82408 0.30312 0.0
C3123 C 0.68684 0.8415 0.30593 0.0
C3124 C 0.66914 0.81793 0.28194 0.0
C3125 C 0.67419 0.82949 0.26308 0.0
C3126 C 0.68561 0.84727 0.26621 0.0
C3127 C 0.69214 0.85299 0.28732 0.0
H3128 H 0.17093 0.65874 0.31573 0.0
H3129 H 0.14933 0.71554 0.28943 0.0
H3130 H 0.18073 0.64818 0.2785 0.0
H3131 H 0.15927 0.705 0.25231 0.0
H3132 H 0.16056 0.67017 0.18655 0.0
H3133 H 0.14971 0.67962 0.22378 0.0
H3134 H 0.20636 0.65801 0.25026 0.0
H3135 H 0.2172 0.64842 0.21311 0.0
C3136 C 0.16825 0.66896 0.30202 0.0
C3137 C 0.15941 0.68801 0.30555 0.0
C3138 C 0.17397 0.66294 0.28073 0.0
C3139 C 0.1708 0.67577 0.26249 0.0
C3140 C 0.16173 0.69471 0.266 0.0
C3141 C 0.15617 0.70079 0.2873 0.0
C3142 C 0.17069 0.6674 0.20032 0.0
C3143 C 0.18978 0.65862 0.19686 0.0
C3144 C 0.1645 0.6729 0.22161 0.0
C3145 C 0.17719 0.66958 0.23993 0.0
C3146 C 0.19617 0.66058 0.2365 0.0
C3147 C 0.20243 0.65522 0.21519 0.0
H3148 H 0.29876 0.13313 0.29164 0.0
H3149 H 0.32891 0.18512 0.31915 0.0
H3150 H 0.3104 0.14237 0.25484 0.0
H3151 H 0.33898 0.19575 0.28222 0.0
H3152 H 0.31729 0.1722 0.18826 0.0
H3153 H 0.30661 0.16231 0.2252 0.0
H3154 H 0.35919 0.19227 0.25269 0.0
H3155 H 0.36846 0.2037 0.21579 0.0
C3156 C 0.30767 0.14675 0.28965 0.0
C3157 C 0.313 0.15842 0.3081 0.0
C3158 C 0.31422 0.15225 0.26848 0.0
C3159 C 0.32563 0.17 0.26514 0.0
C3160 C 0.33072 0.18173 0.28385 0.0
C3161 C 0.32478 0.1758 0.3051 0.0
C3162 C 0.32644 0.17667 0.20232 0.0
C3163 C 0.3436 0.18875 0.19931 0.0
C3164 C 0.32047 0.17084 0.22359 0.0
C3165 C 0.33197 0.17633 0.24233 0.0
C3166 C 0.3495 0.1881 0.23901 0.0
C3167 C 0.35501 0.19453 0.2178 0.0
loop_
_geom_bond_atom_site_label_1
_geom_bond_atom_site_label_2
_geom_bond_distance
_geom_bond_site_symmetry_2
_ccdc_geom_bond_type
Co0 O2 2.143 . S
Co0 O8 2.074 . S
Co0 O11 2.093 . S
Co0 O24 2.097 . S
Co0 N41 2.151 . S
Co0 N49 2.214 . S
Co1 O2 2.160 . S
Co1 O7 2.058 . S
Co1 O17 2.057 . S
Co1 O32 2.037 . S
Co1 N36 2.145 . S
Co1 N57 2.257 . S
O2 Co0 2.143 . S
O2 Co1 2.160 . S
C3 O4 1.278 . S
C3 O11 1.224 . S
O4 C3 1.278 . S
C5 O6 1.245 . S
C5 O17 1.232 . S
O6 C5 1.245 . S
O7 Co1 2.058 . S
O7 C33 1.269 . S
O8 Co0 2.074 . S
O8 C33 1.257 . S
H9 C34 0.930 . S
H10 C40 0.930 . S
O11 Co0 2.093 . S
O11 C3 1.224 . S
H12 C44 0.929 . S
H13 C46 0.930 . S
H14 C47 0.930 . S
H15 C45 0.929 . S
H16 C48 0.928 . S
O17 Co1 2.057 . S
O17 C5 1.232 . S
H18 C37 0.929 . S
H19 C38 0.929 . S
H20 C50 0.931 . S
H21 C42 0.929 . S
H22 C51 0.930 . S
H23 C43 0.931 . S
O24 Co0 2.097 . S
O24 C52 1.214 . S
H25 C53 0.929 . S
H26 C54 0.929 . S
H27 C55 0.930 . S
H28 C56 0.929 . S
H29 C58 0.930 . S
H30 C35 0.930 . S
H31 C39 0.930 . S
O32 Co1 2.037 . S
O32 C52 1.234 . S
C33 O7 1.269 . S
C33 O8 1.257 . S
C34 H9 0.930 . S
C34 C37 1.388 . S
C34 C39 1.418 . S
C35 H30 0.930 . S
C35 C38 1.404 . S
C35 C39 1.353 . S
N36 Co1 2.145 . S
N36 C37 1.397 . S
N36 C38 1.334 . S
C37 H18 0.929 . S
C37 C34 1.388 . S
C37 N36 1.397 . S
C38 H19 0.929 . S
C38 C35 1.404 . S
C38 N36 1.334 . S
C39 H31 0.930 . S
C39 C34 1.418 . S
C39 C35 1.353 . S
C40 H10 0.930 . S
C40 N41 1.330 . S
C40 C42 1.446 . S
N41 Co0 2.151 . S
N41 C40 1.330 . S
N41 C45 1.418 . S
C42 H21 0.929 . S
C42 C40 1.446 . S
C42 C43 1.332 . S
C43 H23 0.931 . S
C43 C42 1.332 . S
C43 C44 1.267 . S
C44 H12 0.929 . S
C44 C43 1.267 . S
C44 C45 1.251 . S
C45 H15 0.929 . S
C45 N41 1.418 . S
C45 C44 1.251 . S
C46 H13 0.930 . S
C46 C48 1.406 . S
C46 C51 1.261 . S
C47 H14 0.930 . S
C47 N49 1.325 . S
C47 C50 1.357 . S
C48 H16 0.928 . S
C48 C46 1.406 . S
C48 N49 1.261 . S
N49 Co0 2.214 . S
N49 C47 1.325 . S
N49 C48 1.261 . S
C50 H20 0.931 . S
C50 C47 1.357 . S
C50 C51 1.312 . S
C51 H22 0.930 . S
C51 C46 1.261 . S
C51 C50 1.312 . S
C52 O24 1.214 . S
C52 O32 1.234 . S
C53 H25 0.929 . S
C53 C56 1.391 . S
C53 C58 1.391 . S
C54 H26 0.929 . S
C54 C55 1.390 . S
C54 N57 1.391 . S
C55 H27 0.930 . S
C55 C54 1.390 . S
C55 C56 1.392 . S
C56 H28 0.929 . S
C56 C53 1.391 . S
C56 C55 1.392 . S
N57 Co1 2.257 . S
N57 C54 1.391 . S
N57 C58 1.388 . S
C58 H29 0.930 . S
C58 C53 1.391 . S
C58 N57 1.388 . S
Co59 O61 2.143 . S
Co59 O67 2.074 . S
Co59 O70 2.093 . S
Co59 O83 2.097 . S
Co59 N100 2.151 . S
Co59 N108 2.214 . S
Co60 O61 2.160 . S
Co60 O66 2.058 . S
Co60 O76 2.057 . S
Co60 O91 2.037 . S
Co60 N95 2.145 . S
Co60 N116 2.257 . S
O61 Co59 2.143 . S
O61 Co60 2.160 . S
C62 O63 1.278 . S
C62 O70 1.224 . S
O63 C62 1.278 . S
C64 O65 1.245 . S
C64 O76 1.232 . S
O65 C64 1.245 . S
O66 Co60 2.058 . S
O66 C92 1.269 . S
O67 Co59 2.074 . S
O67 C92 1.257 . S
H68 C93 0.930 . S
H69 C99 0.930 . S
O70 Co59 2.093 . S
O70 C62 1.224 . S
H71 C103 0.929 . S
H72 C105 0.930 . S
H73 C106 0.930 . S
H74 C104 0.929 . S
H75 C107 0.928 . S
O76 Co60 2.057 . S
O76 C64 1.232 . S
H77 C96 0.929 . S
H78 C97 0.929 . S
H79 C109 0.931 . S
H80 C101 0.929 . S
H81 C110 0.930 . S
H82 C102 0.931 . S
O83 Co59 2.097 . S
O83 C111 1.214 . S
H84 C112 0.929 . S
H85 C113 0.929 . S
H86 C114 0.930 . S
H87 C115 0.929 . S
H88 C117 0.930 . S
H89 C94 0.930 . S
H90 C98 0.930 . S
O91 Co60 2.037 . S
O91 C111 1.234 . S
C92 O66 1.269 . S
C92 O67 1.257 . S
C93 H68 0.930 . S
C93 C96 1.388 . S
C93 C98 1.418 . S
C94 H89 0.930 . S
C94 C97 1.404 . S
C94 C98 1.353 . S
N95 Co60 2.145 . S
N95 C96 1.397 . S
N95 C97 1.334 . S
C96 H77 0.929 . S
C96 C93 1.388 . S
C96 N95 1.397 . S
C97 H78 0.929 . S
C97 C94 1.404 . S
C97 N95 1.334 . S
C98 H90 0.930 . S
C98 C93 1.418 . S
C98 C94 1.353 . S
C99 H69 0.930 . S
C99 N100 1.330 . S
C99 C101 1.446 . S
N100 Co59 2.151 . S
N100 C99 1.330 . S
N100 C104 1.418 . S
C101 H80 0.929 . S
C101 C99 1.446 . S
C101 C102 1.332 . S
C102 H82 0.931 . S
C102 C101 1.332 . S
C102 C103 1.267 . S
C103 H71 0.929 . S
C103 C102 1.267 . S
C103 C104 1.251 . S
C104 H74 0.929 . S
C104 N100 1.418 . S
C104 C103 1.251 . S
C105 H72 0.930 . S
C105 C107 1.406 . S
C105 C110 1.261 . S
C106 H73 0.930 . S
C106 N108 1.325 . S
C106 C109 1.357 . S
C107 H75 0.928 . S
C107 C105 1.406 . S
C107 N108 1.261 . S
N108 Co59 2.214 . S
N108 C106 1.325 . S
N108 C107 1.261 . S
C109 H79 0.931 . S
C109 C106 1.357 . S
C109 C110 1.312 . S
C110 H81 0.930 . S
C110 C105 1.261 . S
C110 C109 1.312 . S
C111 O83 1.214 . S
C111 O91 1.234 . S
C112 H84 0.929 . S
C112 C115 1.391 . S
C112 C117 1.391 . S
C113 H85 0.929 . S
C113 C114 1.390 . S
C113 N116 1.391 . S
C114 H86 0.930 . S
C114 C113 1.390 . S
C114 C115 1.392 . S
C115 H87 0.929 . S
C115 C112 1.391 . S
C115 C114 1.392 . S
N116 Co60 2.257 . S
N116 C113 1.391 . S
N116 C117 1.388 . S
C117 H88 0.930 . S
C117 C112 1.391 . S
C117 N116 1.388 . S
Co118 O120 2.143 . S
Co118 O126 2.074 . S
Co118 O129 2.093 . S
Co118 O142 2.097 . S
Co118 N159 2.151 . S
Co118 N167 2.214 . S
Co119 O120 2.160 . S
Co119 O125 2.058 . S
Co119 O135 2.057 . S
Co119 O150 2.037 . S
Co119 N154 2.145 . S
Co119 N175 2.257 . S
O120 Co118 2.143 . S
O120 Co119 2.160 . S
C121 O122 1.278 . S
C121 O129 1.224 . S
O122 C121 1.278 . S
C123 O124 1.245 . S
C123 O135 1.232 . S
O124 C123 1.245 . S
O125 Co119 2.058 . S
O125 C151 1.269 . S
O126 Co118 2.074 . S
O126 C151 1.257 . S
H127 C152 0.930 . S
H128 C158 0.930 . S
O129 Co118 2.093 . S
O129 C121 1.224 . S
H130 C162 0.929 . S
H131 C164 0.930 . S
H132 C165 0.930 . S
H133 C163 0.929 . S
H134 C166 0.928 . S
O135 Co119 2.057 . S
O135 C123 1.232 . S
H136 C155 0.929 . S
H137 C156 0.929 . S
H138 C168 0.931 . S
H139 C160 0.929 . S
H140 C169 0.930 . S
H141 C161 0.931 . S
O142 Co118 2.097 . S
O142 C170 1.214 . S
H143 C171 0.929 . S
H144 C172 0.929 . S
H145 C173 0.930 . S
H146 C174 0.929 . S
H147 C176 0.930 . S
H148 C153 0.930 . S
H149 C157 0.930 . S
O150 Co119 2.037 . S
O150 C170 1.234 . S
C151 O125 1.269 . S
C151 O126 1.257 . S
C152 H127 0.930 . S
C152 C155 1.388 . S
C152 C157 1.418 . S
C153 H148 0.930 . S
C153 C156 1.404 . S
C153 C157 1.353 . S
N154 Co119 2.145 . S
N154 C155 1.397 . S
N154 C156 1.334 . S
C155 H136 0.929 . S
C155 C152 1.388 . S
C155 N154 1.397 . S
C156 H137 0.929 . S
C156 C153 1.404 . S
C156 N154 1.334 . S
C157 H149 0.930 . S
C157 C152 1.418 . S
C157 C153 1.353 . S
C158 H128 0.930 . S
C158 N159 1.330 . S
C158 C160 1.446 . S
N159 Co118 2.151 . S
N159 C158 1.330 . S
N159 C163 1.418 . S
C160 H139 0.929 . S
C160 C158 1.446 . S
C160 C161 1.332 . S
C161 H141 0.931 . S
C161 C160 1.332 . S
C161 C162 1.267 . S
C162 H130 0.929 . S
C162 C161 1.267 . S
C162 C163 1.251 . S
C163 H133 0.929 . S
C163 N159 1.418 . S
C163 C162 1.251 . S
C164 H131 0.930 . S
C164 C166 1.406 . S
C164 C169 1.261 . S
C165 H132 0.930 . S
C165 N167 1.325 . S
C165 C168 1.357 . S
C166 H134 0.928 . S
C166 C164 1.406 . S
C166 N167 1.261 . S
N167 Co118 2.214 . S
N167 C165 1.325 . S
N167 C166 1.261 . S
C168 H138 0.931 . S
C168 C165 1.357 . S
C168 C169 1.312 . S
C169 H140 0.930 . S
C169 C164 1.261 . S
C169 C168 1.312 . S
C170 O142 1.214 . S
C170 O150 1.234 . S
C171 H143 0.929 . S
C171 C174 1.391 . S
C171 C176 1.391 . S
C172 H144 0.929 . S
C172 C173 1.390 . S
C172 N175 1.391 . S
C173 H145 0.930 . S
C173 C172 1.390 . S
C173 C174 1.392 . S
C174 H146 0.929 . S
C174 C171 1.391 . S
C174 C173 1.392 . S
N175 Co119 2.257 . S
N175 C172 1.391 . S
N175 C176 1.388 . S
C176 H147 0.930 . S
C176 C171 1.391 . S
C176 N175 1.388 . S
Co177 O179 2.143 . S
Co177 O185 2.074 . S
Co177 O188 2.093 . S
Co177 O201 2.097 . S
Co177 N218 2.151 . S
Co177 N226 2.214 . S
Co178 O179 2.160 . S
Co178 O184 2.058 . S
Co178 O194 2.057 . S
Co178 O209 2.037 . S
Co178 N213 2.145 . S
Co178 N234 2.257 . S
O179 Co177 2.143 . S
O179 Co178 2.160 . S
C180 O181 1.278 . S
C180 O188 1.224 . S
O181 C180 1.278 . S
C182 O183 1.245 . S
C182 O194 1.232 . S
O183 C182 1.245 . S
O184 Co178 2.058 . S
O184 C210 1.269 . S
O185 Co177 2.074 . S
O185 C210 1.257 . S
H186 C211 0.930 . S
H187 C217 0.930 . S
O188 Co177 2.093 . S
O188 C180 1.224 . S
H189 C221 0.929 . S
H190 C223 0.930 . S
H191 C224 0.930 . S
H192 C222 0.929 . S
H193 C225 0.928 . S
O194 Co178 2.057 . S
O194 C182 1.232 . S
H195 C214 0.929 . S
H196 C215 0.929 . S
H197 C227 0.931 . S
H198 C219 0.929 . S
H199 C228 0.930 . S
H200 C220 0.931 . S
O201 Co177 2.097 . S
O201 C229 1.214 . S
H202 C230 0.929 . S
H203 C231 0.929 . S
H204 C232 0.930 . S
H205 C233 0.929 . S
H206 C235 0.930 . S
H207 C212 0.930 . S
H208 C216 0.930 . S
O209 Co178 2.037 . S
O209 C229 1.234 . S
C210 O184 1.269 . S
C210 O185 1.257 . S
C211 H186 0.930 . S
C211 C214 1.388 . S
C211 C216 1.418 . S
C212 H207 0.930 . S
C212 C215 1.404 . S
C212 C216 1.353 . S
N213 Co178 2.145 . S
N213 C214 1.397 . S
N213 C215 1.334 . S
C214 H195 0.929 . S
C214 C211 1.388 . S
C214 N213 1.397 . S
C215 H196 0.929 . S
C215 C212 1.404 . S
C215 N213 1.334 . S
C216 H208 0.930 . S
C216 C211 1.418 . S
C216 C212 1.353 . S
C217 H187 0.930 . S
C217 N218 1.330 . S
C217 C219 1.446 . S
N218 Co177 2.151 . S
N218 C217 1.330 . S
N218 C222 1.418 . S
C219 H198 0.929 . S
C219 C217 1.446 . S
C219 C220 1.332 . S
C220 H200 0.931 . S
C220 C219 1.332 . S
C220 C221 1.267 . S
C221 H189 0.929 . S
C221 C220 1.267 . S
C221 C222 1.251 . S
C222 H192 0.929 . S
C222 N218 1.418 . S
C222 C221 1.251 . S
C223 H190 0.930 . S
C223 C225 1.406 . S
C223 C228 1.261 . S
C224 H191 0.930 . S
C224 N226 1.325 . S
C224 C227 1.357 . S
C225 H193 0.928 . S
C225 C223 1.406 . S
C225 N226 1.261 . S
N226 Co177 2.214 . S
N226 C224 1.325 . S
N226 C225 1.261 . S
C227 H197 0.931 . S
C227 C224 1.357 . S
C227 C228 1.312 . S
C228 H199 0.930 . S
C228 C223 1.261 . S
C228 C227 1.312 . S
C229 O201 1.214 . S
C229 O209 1.234 . S
C230 H202 0.929 . S
C230 C233 1.391 . S
C230 C235 1.391 . S
C231 H203 0.929 . S
C231 C232 1.390 . S
C231 N234 1.391 . S
C232 H204 0.930 . S
C232 C231 1.390 . S
C232 C233 1.392 . S
C233 H205 0.929 . S
C233 C230 1.391 . S
C233 C232 1.392 . S
N234 Co178 2.257 . S
N234 C231 1.391 . S
N234 C235 1.388 . S
C235 H206 0.930 . S
C235 C230 1.391 . S
C235 N234 1.388 . S
Co236 O238 2.143 . S
Co236 O244 2.074 . S
Co236 O247 2.093 . S
Co236 O260 2.097 . S
Co236 N277 2.151 . S
Co236 N285 2.214 . S
Co237 O238 2.160 . S
Co237 O243 2.058 . S
Co237 O253 2.057 . S
Co237 O268 2.037 . S
Co237 N272 2.145 . S
Co237 N293 2.257 . S
O238 Co236 2.143 . S
O238 Co237 2.160 . S
C239 O240 1.278 . S
C239 O247 1.224 . S
O240 C239 1.278 . S
C241 O242 1.245 . S
C241 O253 1.232 . S
O242 C241 1.245 . S
O243 Co237 2.058 . S
O243 C269 1.269 . S
O244 Co236 2.074 . S
O244 C269 1.257 . S
H245 C270 0.930 . S
H246 C276 0.930 . S
O247 Co236 2.093 . S
O247 C239 1.224 . S
H248 C280 0.929 . S
H249 C282 0.930 . S
H250 C283 0.930 . S
H251 C281 0.929 . S
H252 C284 0.928 . S
O253 Co237 2.057 . S
O253 C241 1.232 . S
H254 C273 0.929 . S
H255 C274 0.929 . S
H256 C286 0.931 . S
H257 C278 0.929 . S
H258 C287 0.930 . S
H259 C279 0.931 . S
O260 Co236 2.097 . S
O260 C288 1.214 . S
H261 C289 0.929 . S
H262 C290 0.929 . S
H263 C291 0.930 . S
H264 C292 0.929 . S
H265 C294 0.930 . S
H266 C271 0.930 . S
H267 C275 0.930 . S
O268 Co237 2.037 . S
O268 C288 1.234 . S
C269 O243 1.269 . S
C269 O244 1.257 . S
C270 H245 0.930 . S
C270 C273 1.388 . S
C270 C275 1.418 . S
C271 H266 0.930 . S
C271 C274 1.404 . S
C271 C275 1.353 . S
N272 Co237 2.145 . S
N272 C273 1.397 . S
N272 C274 1.334 . S
C273 H254 0.929 . S
C273 C270 1.388 . S
C273 N272 1.397 . S
C274 H255 0.929 . S
C274 C271 1.404 . S
C274 N272 1.334 . S
C275 H267 0.930 . S
C275 C270 1.418 . S
C275 C271 1.353 . S
C276 H246 0.930 . S
C276 N277 1.330 . S
C276 C278 1.446 . S
N277 Co236 2.151 . S
N277 C276 1.330 . S
N277 C281 1.418 . S
C278 H257 0.929 . S
C278 C276 1.446 . S
C278 C279 1.332 . S
C279 H259 0.931 . S
C279 C278 1.332 . S
C279 C280 1.267 . S
C280 H248 0.929 . S
C280 C279 1.267 . S
C280 C281 1.251 . S
C281 H251 0.929 . S
C281 N277 1.418 . S
C281 C280 1.251 . S
C282 H249 0.930 . S
C282 C284 1.406 . S
C282 C287 1.261 . S
C283 H250 0.930 . S
C283 N285 1.325 . S
C283 C286 1.357 . S
C284 H252 0.928 . S
C284 C282 1.406 . S
C284 N285 1.261 . S
N285 Co236 2.214 . S
N285 C283 1.325 . S
N285 C284 1.261 . S
C286 H256 0.931 . S
C286 C283 1.357 . S
C286 C287 1.312 . S
C287 H258 0.930 . S
C287 C282 1.261 . S
C287 C286 1.312 . S
C288 O260 1.214 . S
C288 O268 1.234 . S
C289 H261 0.929 . S
C289 C292 1.391 . S
C289 C294 1.391 . S
C290 H262 0.929 . S
C290 C291 1.390 . S
C290 N293 1.391 . S
C291 H263 0.930 . S
C291 C290 1.390 . S
C291 C292 1.392 . S
C292 H264 0.929 . S
C292 C289 1.391 . S
C292 C291 1.392 . S
N293 Co237 2.257 . S
N293 C290 1.391 . S
N293 C294 1.388 . S
C294 H265 0.930 . S
C294 C289 1.391 . S
C294 N293 1.388 . S
Co295 O297 2.143 . S
Co295 O303 2.074 . S
Co295 O306 2.093 . S
Co295 O319 2.097 . S
Co295 N336 2.151 . S
Co295 N344 2.214 . S
Co296 O297 2.160 . S
Co296 O302 2.058 . S
Co296 O312 2.057 . S
Co296 O327 2.037 . S
Co296 N331 2.145 . S
Co296 N352 2.257 . S
O297 Co295 2.143 . S
O297 Co296 2.160 . S
C298 O299 1.278 . S
C298 O306 1.224 . S
O299 C298 1.278 . S
C300 O301 1.245 . S
C300 O312 1.232 . S
O301 C300 1.245 . S
O302 Co296 2.058 . S
O302 C328 1.269 . S
O303 Co295 2.074 . S
O303 C328 1.257 . S
H304 C329 0.930 . S
H305 C335 0.930 . S
O306 Co295 2.093 . S
O306 C298 1.224 . S
H307 C339 0.929 . S
H308 C341 0.930 . S
H309 C342 0.930 . S
H310 C340 0.929 . S
H311 C343 0.928 . S
O312 Co296 2.057 . S
O312 C300 1.232 . S
H313 C332 0.929 . S
H314 C333 0.929 . S
H315 C345 0.931 . S
H316 C337 0.929 . S
H317 C346 0.930 . S
H318 C338 0.931 . S
O319 Co295 2.097 . S
O319 C347 1.214 . S
H320 C348 0.929 . S
H321 C349 0.929 . S
H322 C350 0.930 . S
H323 C351 0.929 . S
H324 C353 0.930 . S
H325 C330 0.930 . S
H326 C334 0.930 . S
O327 Co296 2.037 . S
O327 C347 1.234 . S
C328 O302 1.269 . S
C328 O303 1.257 . S
C329 H304 0.930 . S
C329 C332 1.388 . S
C329 C334 1.418 . S
C330 H325 0.930 . S
C330 C333 1.404 . S
C330 C334 1.353 . S
N331 Co296 2.145 . S
N331 C332 1.397 . S
N331 C333 1.334 . S
C332 H313 0.929 . S
C332 C329 1.388 . S
C332 N331 1.397 . S
C333 H314 0.929 . S
C333 C330 1.404 . S
C333 N331 1.334 . S
C334 H326 0.930 . S
C334 C329 1.418 . S
C334 C330 1.353 . S
C335 H305 0.930 . S
C335 N336 1.330 . S
C335 C337 1.446 . S
N336 Co295 2.151 . S
N336 C335 1.330 . S
N336 C340 1.418 . S
C337 H316 0.929 . S
C337 C335 1.446 . S
C337 C338 1.332 . S
C338 H318 0.931 . S
C338 C337 1.332 . S
C338 C339 1.267 . S
C339 H307 0.929 . S
C339 C338 1.267 . S
C339 C340 1.251 . S
C340 H310 0.929 . S
C340 N336 1.418 . S
C340 C339 1.251 . S
C341 H308 0.930 . S
C341 C343 1.406 . S
C341 C346 1.261 . S
C342 H309 0.930 . S
C342 N344 1.325 . S
C342 C345 1.357 . S
C343 H311 0.928 . S
C343 C341 1.406 . S
C343 N344 1.261 . S
N344 Co295 2.214 . S
N344 C342 1.325 . S
N344 C343 1.261 . S
C345 H315 0.931 . S
C345 C342 1.357 . S
C345 C346 1.312 . S
C346 H317 0.930 . S
C346 C341 1.261 . S
C346 C345 1.312 . S
C347 O319 1.214 . S
C347 O327 1.234 . S
C348 H320 0.929 . S
C348 C351 1.391 . S
C348 C353 1.391 . S
C349 H321 0.929 . S
C349 C350 1.390 . S
C349 N352 1.391 . S
C350 H322 0.930 . S
C350 C349 1.390 . S
C350 C351 1.392 . S
C351 H323 0.929 . S
C351 C348 1.391 . S
C351 C350 1.392 . S
N352 Co296 2.257 . S
N352 C349 1.391 . S
N352 C353 1.388 . S
C353 H324 0.930 . S
C353 C348 1.391 . S
C353 N352 1.388 . S
Co354 O356 2.143 . S
Co354 O362 2.074 . S
Co354 O365 2.093 . S
Co354 O378 2.097 . S
Co354 N395 2.151 . S
Co354 N403 2.214 . S
Co355 O356 2.160 . S
Co355 O361 2.058 . S
Co355 O371 2.057 . S
Co355 O386 2.037 . S
Co355 N390 2.145 . S
Co355 N411 2.257 . S
O356 Co354 2.143 . S
O356 Co355 2.160 . S
C357 O358 1.278 . S
C357 O365 1.224 . S
O358 C357 1.278 . S
C359 O360 1.245 . S
C359 O371 1.232 . S
O360 C359 1.245 . S
O361 Co355 2.058 . S
O361 C387 1.269 . S
O362 Co354 2.074 . S
O362 C387 1.257 . S
H363 C388 0.930 . S
H364 C394 0.930 . S
O365 Co354 2.093 . S
O365 C357 1.224 . S
H366 C398 0.929 . S
H367 C400 0.930 . S
H368 C401 0.930 . S
H369 C399 0.929 . S
H370 C402 0.928 . S
O371 Co355 2.057 . S
O371 C359 1.232 . S
H372 C391 0.929 . S
H373 C392 0.929 . S
H374 C404 0.931 . S
H375 C396 0.929 . S
H376 C405 0.930 . S
H377 C397 0.931 . S
O378 Co354 2.097 . S
O378 C406 1.214 . S
H379 C407 0.929 . S
H380 C408 0.929 . S
H381 C409 0.930 . S
H382 C410 0.929 . S
H383 C412 0.930 . S
H384 C389 0.930 . S
H385 C393 0.930 . S
O386 Co355 2.037 . S
O386 C406 1.234 . S
C387 O361 1.269 . S
C387 O362 1.257 . S
C388 H363 0.930 . S
C388 C391 1.388 . S
C388 C393 1.418 . S
C389 H384 0.930 . S
C389 C392 1.404 . S
C389 C393 1.353 . S
N390 Co355 2.145 . S
N390 C391 1.397 . S
N390 C392 1.334 . S
C391 H372 0.929 . S
C391 C388 1.388 . S
C391 N390 1.397 . S
C392 H373 0.929 . S
C392 C389 1.404 . S
C392 N390 1.334 . S
C393 H385 0.930 . S
C393 C388 1.418 . S
C393 C389 1.353 . S
C394 H364 0.930 . S
C394 N395 1.330 . S
C394 C396 1.446 . S
N395 Co354 2.151 . S
N395 C394 1.330 . S
N395 C399 1.418 . S
C396 H375 0.929 . S
C396 C394 1.446 . S
C396 C397 1.332 . S
C397 H377 0.931 . S
C397 C396 1.332 . S
C397 C398 1.267 . S
C398 H366 0.929 . S
C398 C397 1.267 . S
C398 C399 1.251 . S
C399 H369 0.929 . S
C399 N395 1.418 . S
C399 C398 1.251 . S
C400 H367 0.930 . S
C400 C402 1.406 . S
C400 C405 1.261 . S
C401 H368 0.930 . S
C401 N403 1.325 . S
C401 C404 1.357 . S
C402 H370 0.928 . S
C402 C400 1.406 . S
C402 N403 1.261 . S
N403 Co354 2.214 . S
N403 C401 1.325 . S
N403 C402 1.261 . S
C404 H374 0.931 . S
C404 C401 1.357 . S
C404 C405 1.312 . S
C405 H376 0.930 . S
C405 C400 1.261 . S
C405 C404 1.312 . S
C406 O378 1.214 . S
C406 O386 1.234 . S
C407 H379 0.929 . S
C407 C410 1.391 . S
C407 C412 1.391 . S
C408 H380 0.929 . S
C408 C409 1.390 . S
C408 N411 1.391 . S
C409 H381 0.930 . S
C409 C408 1.390 . S
C409 C410 1.392 . S
C410 H382 0.929 . S
C410 C407 1.391 . S
C410 C409 1.392 . S
N411 Co355 2.257 . S
N411 C408 1.391 . S
N411 C412 1.388 . S
C412 H383 0.930 . S
C412 C407 1.391 . S
C412 N411 1.388 . S
Co413 O415 2.143 . S
Co413 O421 2.074 . S
Co413 O424 2.093 . S
Co413 O437 2.097 . S
Co413 N454 2.151 . S
Co413 N462 2.214 . S
Co414 O415 2.160 . S
Co414 O420 2.058 . S
Co414 O430 2.057 . S
Co414 O445 2.037 . S
Co414 N449 2.145 . S
Co414 N470 2.257 . S
O415 Co413 2.143 . S
O415 Co414 2.160 . S
C416 O417 1.278 . S
C416 O424 1.224 . S
O417 C416 1.278 . S
C418 O419 1.245 . S
C418 O430 1.232 . S
O419 C418 1.245 . S
O420 Co414 2.058 . S
O420 C446 1.269 . S
O421 Co413 2.074 . S
O421 C446 1.257 . S
H422 C447 0.930 . S
H423 C453 0.930 . S
O424 Co413 2.093 . S
O424 C416 1.224 . S
H425 C457 0.929 . S
H426 C459 0.930 . S
H427 C460 0.930 . S
H428 C458 0.929 . S
H429 C461 0.928 . S
O430 Co414 2.057 . S
O430 C418 1.232 . S
H431 C450 0.929 . S
H432 C451 0.929 . S
H433 C463 0.931 . S
H434 C455 0.929 . S
H435 C464 0.930 . S
H436 C456 0.931 . S
O437 Co413 2.097 . S
O437 C465 1.214 . S
H438 C466 0.929 . S
H439 C467 0.929 . S
H440 C468 0.930 . S
H441 C469 0.929 . S
H442 C471 0.930 . S
H443 C448 0.930 . S
H444 C452 0.930 . S
O445 Co414 2.037 . S
O445 C465 1.234 . S
C446 O420 1.269 . S
C446 O421 1.257 . S
C447 H422 0.930 . S
C447 C450 1.388 . S
C447 C452 1.418 . S
C448 H443 0.930 . S
C448 C451 1.404 . S
C448 C452 1.353 . S
N449 Co414 2.145 . S
N449 C450 1.397 . S
N449 C451 1.334 . S
C450 H431 0.929 . S
C450 C447 1.388 . S
C450 N449 1.397 . S
C451 H432 0.929 . S
C451 C448 1.404 . S
C451 N449 1.334 . S
C452 H444 0.930 . S
C452 C447 1.418 . S
C452 C448 1.353 . S
C453 H423 0.930 . S
C453 N454 1.330 . S
C453 C455 1.446 . S
N454 Co413 2.151 . S
N454 C453 1.330 . S
N454 C458 1.418 . S
C455 H434 0.929 . S
C455 C453 1.446 . S
C455 C456 1.332 . S
C456 H436 0.931 . S
C456 C455 1.332 . S
C456 C457 1.267 . S
C457 H425 0.929 . S
C457 C456 1.267 . S
C457 C458 1.251 . S
C458 H428 0.929 . S
C458 N454 1.418 . S
C458 C457 1.251 . S
C459 H426 0.930 . S
C459 C461 1.406 . S
C459 C464 1.261 . S
C460 H427 0.930 . S
C460 N462 1.325 . S
C460 C463 1.357 . S
C461 H429 0.928 . S
C461 C459 1.406 . S
C461 N462 1.261 . S
N462 Co413 2.214 . S
N462 C460 1.325 . S
N462 C461 1.261 . S
C463 H433 0.931 . S
C463 C460 1.357 . S
C463 C464 1.312 . S
C464 H435 0.930 . S
C464 C459 1.261 . S
C464 C463 1.312 . S
C465 O437 1.214 . S
C465 O445 1.234 . S
C466 H438 0.929 . S
C466 C469 1.391 . S
C466 C471 1.391 . S
C467 H439 0.929 . S
C467 C468 1.390 . S
C467 N470 1.391 . S
C468 H440 0.930 . S
C468 C467 1.390 . S
C468 C469 1.392 . S
C469 H441 0.929 . S
C469 C466 1.391 . S
C469 C468 1.392 . S
N470 Co414 2.257 . S
N470 C467 1.391 . S
N470 C471 1.388 . S
C471 H442 0.930 . S
C471 C466 1.391 . S
C471 N470 1.388 . S
Co472 O474 2.143 . S
Co472 O480 2.074 . S
Co472 O483 2.093 . S
Co472 O496 2.097 . S
Co472 N513 2.151 . S
Co472 N521 2.214 . S
Co473 O474 2.160 . S
Co473 O479 2.058 . S
Co473 O489 2.057 . S
Co473 O504 2.037 . S
Co473 N508 2.145 . S
Co473 N529 2.257 . S
O474 Co472 2.143 . S
O474 Co473 2.160 . S
C475 O476 1.278 . S
C475 O483 1.224 . S
O476 C475 1.278 . S
C477 O478 1.245 . S
C477 O489 1.232 . S
O478 C477 1.245 . S
O479 Co473 2.058 . S
O479 C505 1.269 . S
O480 Co472 2.074 . S
O480 C505 1.257 . S
H481 C506 0.930 . S
H482 C512 0.930 . S
O483 Co472 2.093 . S
O483 C475 1.224 . S
H484 C516 0.929 . S
H485 C518 0.930 . S
H486 C519 0.930 . S
H487 C517 0.929 . S
H488 C520 0.928 . S
O489 Co473 2.057 . S
O489 C477 1.232 . S
H490 C509 0.929 . S
H491 C510 0.929 . S
H492 C522 0.931 . S
H493 C514 0.929 . S
H494 C523 0.930 . S
H495 C515 0.931 . S
O496 Co472 2.097 . S
O496 C524 1.214 . S
H497 C525 0.929 . S
H498 C526 0.929 . S
H499 C527 0.930 . S
H500 C528 0.929 . S
H501 C530 0.930 . S
H502 C507 0.930 . S
H503 C511 0.930 . S
O504 Co473 2.037 . S
O504 C524 1.234 . S
C505 O479 1.269 . S
C505 O480 1.257 . S
C506 H481 0.930 . S
C506 C509 1.388 . S
C506 C511 1.418 . S
C507 H502 0.930 . S
C507 C510 1.404 . S
C507 C511 1.353 . S
N508 Co473 2.145 . S
N508 C509 1.397 . S
N508 C510 1.334 . S
C509 H490 0.929 . S
C509 C506 1.388 . S
C509 N508 1.397 . S
C510 H491 0.929 . S
C510 C507 1.404 . S
C510 N508 1.334 . S
C511 H503 0.930 . S
C511 C506 1.418 . S
C511 C507 1.353 . S
C512 H482 0.930 . S
C512 N513 1.330 . S
C512 C514 1.446 . S
N513 Co472 2.151 . S
N513 C512 1.330 . S
N513 C517 1.418 . S
C514 H493 0.929 . S
C514 C512 1.446 . S
C514 C515 1.332 . S
C515 H495 0.931 . S
C515 C514 1.332 . S
C515 C516 1.267 . S
C516 H484 0.929 . S
C516 C515 1.267 . S
C516 C517 1.251 . S
C517 H487 0.929 . S
C517 N513 1.418 . S
C517 C516 1.251 . S
C518 H485 0.930 . S
C518 C520 1.406 . S
C518 C523 1.261 . S
C519 H486 0.930 . S
C519 N521 1.325 . S
C519 C522 1.357 . S
C520 H488 0.928 . S
C520 C518 1.406 . S
C520 N521 1.261 . S
N521 Co472 2.214 . S
N521 C519 1.325 . S
N521 C520 1.261 . S
C522 H492 0.931 . S
C522 C519 1.357 . S
C522 C523 1.312 . S
C523 H494 0.930 . S
C523 C518 1.261 . S
C523 C522 1.312 . S
C524 O496 1.214 . S
C524 O504 1.234 . S
C525 H497 0.929 . S
C525 C528 1.391 . S
C525 C530 1.391 . S
C526 H498 0.929 . S
C526 C527 1.390 . S
C526 N529 1.391 . S
C527 H499 0.930 . S
C527 C526 1.390 . S
C527 C528 1.392 . S
C528 H500 0.929 . S
C528 C525 1.391 . S
C528 C527 1.392 . S
N529 Co473 2.257 . S
N529 C526 1.391 . S
N529 C530 1.388 . S
C530 H501 0.930 . S
C530 C525 1.391 . S
C530 N529 1.388 . S
Co531 O533 2.143 . S
Co531 O539 2.074 . S
Co531 O542 2.093 . S
Co531 O555 2.097 . S
Co531 N572 2.151 . S
Co531 N580 2.214 . S
Co532 O533 2.160 . S
Co532 O538 2.058 . S
Co532 O548 2.057 . S
Co532 O563 2.037 . S
Co532 N567 2.145 . S
Co532 N588 2.257 . S
O533 Co531 2.143 . S
O533 Co532 2.160 . S
C534 O535 1.278 . S
C534 O542 1.224 . S
O535 C534 1.278 . S
C536 O537 1.245 . S
C536 O548 1.232 . S
O537 C536 1.245 . S
O538 Co532 2.058 . S
O538 C564 1.269 . S
O539 Co531 2.074 . S
O539 C564 1.257 . S
H540 C565 0.930 . S
H541 C571 0.930 . S
O542 Co531 2.093 . S
O542 C534 1.224 . S
H543 C575 0.929 . S
H544 C577 0.930 . S
H545 C578 0.930 . S
H546 C576 0.929 . S
H547 C579 0.928 . S
O548 Co532 2.057 . S
O548 C536 1.232 . S
H549 C568 0.929 . S
H550 C569 0.929 . S
H551 C581 0.931 . S
H552 C573 0.929 . S
H553 C582 0.930 . S
H554 C574 0.931 . S
O555 Co531 2.097 . S
O555 C583 1.214 . S
H556 C584 0.929 . S
H557 C585 0.929 . S
H558 C586 0.930 . S
H559 C587 0.929 . S
H560 C589 0.930 . S
H561 C566 0.930 . S
H562 C570 0.930 . S
O563 Co532 2.037 . S
O563 C583 1.234 . S
C564 O538 1.269 . S
C564 O539 1.257 . S
C565 H540 0.930 . S
C565 C568 1.388 . S
C565 C570 1.418 . S
C566 H561 0.930 . S
C566 C569 1.404 . S
C566 C570 1.353 . S
N567 Co532 2.145 . S
N567 C568 1.397 . S
N567 C569 1.334 . S
C568 H549 0.929 . S
C568 C565 1.388 . S
C568 N567 1.397 . S
C569 H550 0.929 . S
C569 C566 1.404 . S
C569 N567 1.334 . S
C570 H562 0.930 . S
C570 C565 1.418 . S
C570 C566 1.353 . S
C571 H541 0.930 . S
C571 N572 1.330 . S
C571 C573 1.446 . S
N572 Co531 2.151 . S
N572 C571 1.330 . S
N572 C576 1.418 . S
C573 H552 0.929 . S
C573 C571 1.446 . S
C573 C574 1.332 . S
C574 H554 0.931 . S
C574 C573 1.332 . S
C574 C575 1.267 . S
C575 H543 0.929 . S
C575 C574 1.267 . S
C575 C576 1.251 . S
C576 H546 0.929 . S
C576 N572 1.418 . S
C576 C575 1.251 . S
C577 H544 0.930 . S
C577 C579 1.406 . S
C577 C582 1.261 . S
C578 H545 0.930 . S
C578 N580 1.325 . S
C578 C581 1.357 . S
C579 H547 0.928 . S
C579 C577 1.406 . S
C579 N580 1.261 . S
N580 Co531 2.214 . S
N580 C578 1.325 . S
N580 C579 1.261 . S
C581 H551 0.931 . S
C581 C578 1.357 . S
C581 C582 1.312 . S
C582 H553 0.930 . S
C582 C577 1.261 . S
C582 C581 1.312 . S
C583 O555 1.214 . S
C583 O563 1.234 . S
C584 H556 0.929 . S
C584 C587 1.391 . S
C584 C589 1.391 . S
C585 H557 0.929 . S
C585 C586 1.390 . S
C585 N588 1.391 . S
C586 H558 0.930 . S
C586 C585 1.390 . S
C586 C587 1.392 . S
C587 H559 0.929 . S
C587 C584 1.391 . S
C587 C586 1.392 . S
N588 Co532 2.257 . S
N588 C585 1.391 . S
N588 C589 1.388 . S
C589 H560 0.930 . S
C589 C584 1.391 . S
C589 N588 1.388 . S
Co590 O592 2.143 . S
Co590 O598 2.074 . S
Co590 O601 2.093 . S
Co590 O614 2.097 . S
Co590 N631 2.151 . S
Co590 N639 2.214 . S
Co591 O592 2.160 . S
Co591 O597 2.058 . S
Co591 O607 2.057 . S
Co591 O622 2.037 . S
Co591 N626 2.145 . S
Co591 N647 2.257 . S
O592 Co590 2.143 . S
O592 Co591 2.160 . S
C593 O594 1.278 . S
C593 O601 1.224 . S
O594 C593 1.278 . S
C595 O596 1.245 . S
C595 O607 1.232 . S
O596 C595 1.245 . S
O597 Co591 2.058 . S
O597 C623 1.269 . S
O598 Co590 2.074 . S
O598 C623 1.257 . S
H599 C624 0.930 . S
H600 C630 0.930 . S
O601 Co590 2.093 . S
O601 C593 1.224 . S
H602 C634 0.929 . S
H603 C636 0.930 . S
H604 C637 0.930 . S
H605 C635 0.929 . S
H606 C638 0.928 . S
O607 Co591 2.057 . S
O607 C595 1.232 . S
H608 C627 0.929 . S
H609 C628 0.929 . S
H610 C640 0.931 . S
H611 C632 0.929 . S
H612 C641 0.930 . S
H613 C633 0.931 . S
O614 Co590 2.097 . S
O614 C642 1.214 . S
H615 C643 0.929 . S
H616 C644 0.929 . S
H617 C645 0.930 . S
H618 C646 0.929 . S
H619 C648 0.930 . S
H620 C625 0.930 . S
H621 C629 0.930 . S
O622 Co591 2.037 . S
O622 C642 1.234 . S
C623 O597 1.269 . S
C623 O598 1.257 . S
C624 H599 0.930 . S
C624 C627 1.388 . S
C624 C629 1.418 . S
C625 H620 0.930 . S
C625 C628 1.404 . S
C625 C629 1.353 . S
N626 Co591 2.145 . S
N626 C627 1.397 . S
N626 C628 1.334 . S
C627 H608 0.929 . S
C627 C624 1.388 . S
C627 N626 1.397 . S
C628 H609 0.929 . S
C628 C625 1.404 . S
C628 N626 1.334 . S
C629 H621 0.930 . S
C629 C624 1.418 . S
C629 C625 1.353 . S
C630 H600 0.930 . S
C630 N631 1.330 . S
C630 C632 1.446 . S
N631 Co590 2.151 . S
N631 C630 1.330 . S
N631 C635 1.418 . S
C632 H611 0.929 . S
C632 C630 1.446 . S
C632 C633 1.332 . S
C633 H613 0.931 . S
C633 C632 1.332 . S
C633 C634 1.267 . S
C634 H602 0.929 . S
C634 C633 1.267 . S
C634 C635 1.251 . S
C635 H605 0.929 . S
C635 N631 1.418 . S
C635 C634 1.251 . S
C636 H603 0.930 . S
C636 C638 1.406 . S
C636 C641 1.261 . S
C637 H604 0.930 . S
C637 N639 1.325 . S
C637 C640 1.357 . S
C638 H606 0.928 . S
C638 C636 1.406 . S
C638 N639 1.261 . S
N639 Co590 2.214 . S
N639 C637 1.325 . S
N639 C638 1.261 . S
C640 H610 0.931 . S
C640 C637 1.357 . S
C640 C641 1.312 . S
C641 H612 0.930 . S
C641 C636 1.261 . S
C641 C640 1.312 . S
C642 O614 1.214 . S
C642 O622 1.234 . S
C643 H615 0.929 . S
C643 C646 1.391 . S
C643 C648 1.391 . S
C644 H616 0.929 . S
C644 C645 1.390 . S
C644 N647 1.391 . S
C645 H617 0.930 . S
C645 C644 1.390 . S
C645 C646 1.392 . S
C646 H618 0.929 . S
C646 C643 1.391 . S
C646 C645 1.392 . S
N647 Co591 2.257 . S
N647 C644 1.391 . S
N647 C648 1.388 . S
C648 H619 0.930 . S
C648 C643 1.391 . S
C648 N647 1.388 . S
Co649 O651 2.143 . S
Co649 O657 2.074 . S
Co649 O660 2.093 . S
Co649 O673 2.097 . S
Co649 N690 2.151 . S
Co649 N698 2.214 . S
Co650 O651 2.160 . S
Co650 O656 2.058 . S
Co650 O666 2.057 . S
Co650 O681 2.037 . S
Co650 N685 2.145 . S
Co650 N706 2.257 . S
O651 Co649 2.143 . S
O651 Co650 2.160 . S
C652 O653 1.278 . S
C652 O660 1.224 . S
O653 C652 1.278 . S
C654 O655 1.245 . S
C654 O666 1.232 . S
O655 C654 1.245 . S
O656 Co650 2.058 . S
O656 C682 1.269 . S
O657 Co649 2.074 . S
O657 C682 1.257 . S
H658 C683 0.930 . S
H659 C689 0.930 . S
O660 Co649 2.093 . S
O660 C652 1.224 . S
H661 C693 0.929 . S
H662 C695 0.930 . S
H663 C696 0.930 . S
H664 C694 0.929 . S
H665 C697 0.928 . S
O666 Co650 2.057 . S
O666 C654 1.232 . S
H667 C686 0.929 . S
H668 C687 0.929 . S
H669 C699 0.931 . S
H670 C691 0.929 . S
H671 C700 0.930 . S
H672 C692 0.931 . S
O673 Co649 2.097 . S
O673 C701 1.214 . S
H674 C702 0.929 . S
H675 C703 0.929 . S
H676 C704 0.930 . S
H677 C705 0.929 . S
H678 C707 0.930 . S
H679 C684 0.930 . S
H680 C688 0.930 . S
O681 Co650 2.037 . S
O681 C701 1.234 . S
C682 O656 1.269 . S
C682 O657 1.257 . S
C683 H658 0.930 . S
C683 C686 1.388 . S
C683 C688 1.418 . S
C684 H679 0.930 . S
C684 C687 1.404 . S
C684 C688 1.353 . S
N685 Co650 2.145 . S
N685 C686 1.397 . S
N685 C687 1.334 . S
C686 H667 0.929 . S
C686 C683 1.388 . S
C686 N685 1.397 . S
C687 H668 0.929 . S
C687 C684 1.404 . S
C687 N685 1.334 . S
C688 H680 0.930 . S
C688 C683 1.418 . S
C688 C684 1.353 . S
C689 H659 0.930 . S
C689 N690 1.330 . S
C689 C691 1.446 . S
N690 Co649 2.151 . S
N690 C689 1.330 . S
N690 C694 1.418 . S
C691 H670 0.929 . S
C691 C689 1.446 . S
C691 C692 1.332 . S
C692 H672 0.931 . S
C692 C691 1.332 . S
C692 C693 1.267 . S
C693 H661 0.929 . S
C693 C692 1.267 . S
C693 C694 1.251 . S
C694 H664 0.929 . S
C694 N690 1.418 . S
C694 C693 1.251 . S
C695 H662 0.930 . S
C695 C697 1.406 . S
C695 C700 1.261 . S
C696 H663 0.930 . S
C696 N698 1.325 . S
C696 C699 1.357 . S
C697 H665 0.928 . S
C697 C695 1.406 . S
C697 N698 1.261 . S
N698 Co649 2.214 . S
N698 C696 1.325 . S
N698 C697 1.261 . S
C699 H669 0.931 . S
C699 C696 1.357 . S
C699 C700 1.312 . S
C700 H671 0.930 . S
C700 C695 1.261 . S
C700 C699 1.312 . S
C701 O673 1.214 . S
C701 O681 1.234 . S
C702 H674 0.929 . S
C702 C705 1.391 . S
C702 C707 1.391 . S
C703 H675 0.929 . S
C703 C704 1.390 . S
C703 N706 1.391 . S
C704 H676 0.930 . S
C704 C703 1.390 . S
C704 C705 1.392 . S
C705 H677 0.929 . S
C705 C702 1.391 . S
C705 C704 1.392 . S
N706 Co650 2.257 . S
N706 C703 1.391 . S
N706 C707 1.388 . S
C707 H678 0.930 . S
C707 C702 1.391 . S
C707 N706 1.388 . S
Co708 O710 2.143 . S
Co708 O716 2.074 . S
Co708 O719 2.093 . S
Co708 O732 2.097 . S
Co708 N749 2.151 . S
Co708 N757 2.214 . S
Co709 O710 2.160 . S
Co709 O715 2.058 . S
Co709 O725 2.057 . S
Co709 O740 2.037 . S
Co709 N744 2.145 . S
Co709 N765 2.257 . S
O710 Co708 2.143 . S
O710 Co709 2.160 . S
C711 O712 1.278 . S
C711 O719 1.224 . S
O712 C711 1.278 . S
C713 O714 1.245 . S
C713 O725 1.232 . S
O714 C713 1.245 . S
O715 Co709 2.058 . S
O715 C741 1.269 . S
O716 Co708 2.074 . S
O716 C741 1.257 . S
H717 C742 0.930 . S
H718 C748 0.930 . S
O719 Co708 2.093 . S
O719 C711 1.224 . S
H720 C752 0.929 . S
H721 C754 0.930 . S
H722 C755 0.930 . S
H723 C753 0.929 . S
H724 C756 0.928 . S
O725 Co709 2.057 . S
O725 C713 1.232 . S
H726 C745 0.929 . S
H727 C746 0.929 . S
H728 C758 0.931 . S
H729 C750 0.929 . S
H730 C759 0.930 . S
H731 C751 0.931 . S
O732 Co708 2.097 . S
O732 C760 1.214 . S
H733 C761 0.929 . S
H734 C762 0.929 . S
H735 C763 0.930 . S
H736 C764 0.929 . S
H737 C766 0.930 . S
H738 C743 0.930 . S
H739 C747 0.930 . S
O740 Co709 2.037 . S
O740 C760 1.234 . S
C741 O715 1.269 . S
C741 O716 1.257 . S
C742 H717 0.930 . S
C742 C745 1.388 . S
C742 C747 1.418 . S
C743 H738 0.930 . S
C743 C746 1.404 . S
C743 C747 1.353 . S
N744 Co709 2.145 . S
N744 C745 1.397 . S
N744 C746 1.334 . S
C745 H726 0.929 . S
C745 C742 1.388 . S
C745 N744 1.397 . S
C746 H727 0.929 . S
C746 C743 1.404 . S
C746 N744 1.334 . S
C747 H739 0.930 . S
C747 C742 1.418 . S
C747 C743 1.353 . S
C748 H718 0.930 . S
C748 N749 1.330 . S
C748 C750 1.446 . S
N749 Co708 2.151 . S
N749 C748 1.330 . S
N749 C753 1.418 . S
C750 H729 0.929 . S
C750 C748 1.446 . S
C750 C751 1.332 . S
C751 H731 0.931 . S
C751 C750 1.332 . S
C751 C752 1.267 . S
C752 H720 0.929 . S
C752 C751 1.267 . S
C752 C753 1.251 . S
C753 H723 0.929 . S
C753 N749 1.418 . S
C753 C752 1.251 . S
C754 H721 0.930 . S
C754 C756 1.406 . S
C754 C759 1.261 . S
C755 H722 0.930 . S
C755 N757 1.325 . S
C755 C758 1.357 . S
C756 H724 0.928 . S
C756 C754 1.406 . S
C756 N757 1.261 . S
N757 Co708 2.214 . S
N757 C755 1.325 . S
N757 C756 1.261 . S
C758 H728 0.931 . S
C758 C755 1.357 . S
C758 C759 1.312 . S
C759 H730 0.930 . S
C759 C754 1.261 . S
C759 C758 1.312 . S
C760 O732 1.214 . S
C760 O740 1.234 . S
C761 H733 0.929 . S
C761 C764 1.391 . S
C761 C766 1.391 . S
C762 H734 0.929 . S
C762 C763 1.390 . S
C762 N765 1.391 . S
C763 H735 0.930 . S
C763 C762 1.390 . S
C763 C764 1.392 . S
C764 H736 0.929 . S
C764 C761 1.391 . S
C764 C763 1.392 . S
N765 Co709 2.257 . S
N765 C762 1.391 . S
N765 C766 1.388 . S
C766 H737 0.930 . S
C766 C761 1.391 . S
C766 N765 1.388 . S
Co767 O769 2.143 . S
Co767 O775 2.074 . S
Co767 O778 2.093 . S
Co767 O791 2.097 . S
Co767 N808 2.151 . S
Co767 N816 2.214 . S
Co768 O769 2.160 . S
Co768 O774 2.058 . S
Co768 O784 2.057 . S
Co768 O799 2.037 . S
Co768 N803 2.145 . S
Co768 N824 2.257 . S
O769 Co767 2.143 . S
O769 Co768 2.160 . S
C770 O771 1.278 . S
C770 O778 1.224 . S
O771 C770 1.278 . S
C772 O773 1.245 . S
C772 O784 1.232 . S
O773 C772 1.245 . S
O774 Co768 2.058 . S
O774 C800 1.269 . S
O775 Co767 2.074 . S
O775 C800 1.257 . S
H776 C801 0.930 . S
H777 C807 0.930 . S
O778 Co767 2.093 . S
O778 C770 1.224 . S
H779 C811 0.929 . S
H780 C813 0.930 . S
H781 C814 0.930 . S
H782 C812 0.929 . S
H783 C815 0.928 . S
O784 Co768 2.057 . S
O784 C772 1.232 . S
H785 C804 0.929 . S
H786 C805 0.929 . S
H787 C817 0.931 . S
H788 C809 0.929 . S
H789 C818 0.930 . S
H790 C810 0.931 . S
O791 Co767 2.097 . S
O791 C819 1.214 . S
H792 C820 0.929 . S
H793 C821 0.929 . S
H794 C822 0.930 . S
H795 C823 0.929 . S
H796 C825 0.930 . S
H797 C802 0.930 . S
H798 C806 0.930 . S
O799 Co768 2.037 . S
O799 C819 1.234 . S
C800 O774 1.269 . S
C800 O775 1.257 . S
C801 H776 0.930 . S
C801 C804 1.388 . S
C801 C806 1.418 . S
C802 H797 0.930 . S
C802 C805 1.404 . S
C802 C806 1.353 . S
N803 Co768 2.145 . S
N803 C804 1.397 . S
N803 C805 1.334 . S
C804 H785 0.929 . S
C804 C801 1.388 . S
C804 N803 1.397 . S
C805 H786 0.929 . S
C805 C802 1.404 . S
C805 N803 1.334 . S
C806 H798 0.930 . S
C806 C801 1.418 . S
C806 C802 1.353 . S
C807 H777 0.930 . S
C807 N808 1.330 . S
C807 C809 1.446 . S
N808 Co767 2.151 . S
N808 C807 1.330 . S
N808 C812 1.418 . S
C809 H788 0.929 . S
C809 C807 1.446 . S
C809 C810 1.332 . S
C810 H790 0.931 . S
C810 C809 1.332 . S
C810 C811 1.267 . S
C811 H779 0.929 . S
C811 C810 1.267 . S
C811 C812 1.251 . S
C812 H782 0.929 . S
C812 N808 1.418 . S
C812 C811 1.251 . S
C813 H780 0.930 . S
C813 C815 1.406 . S
C813 C818 1.261 . S
C814 H781 0.930 . S
C814 N816 1.325 . S
C814 C817 1.357 . S
C815 H783 0.928 . S
C815 C813 1.406 . S
C815 N816 1.261 . S
N816 Co767 2.214 . S
N816 C814 1.325 . S
N816 C815 1.261 . S
C817 H787 0.931 . S
C817 C814 1.357 . S
C817 C818 1.312 . S
C818 H789 0.930 . S
C818 C813 1.261 . S
C818 C817 1.312 . S
C819 O791 1.214 . S
C819 O799 1.234 . S
C820 H792 0.929 . S
C820 C823 1.391 . S
C820 C825 1.391 . S
C821 H793 0.929 . S
C821 C822 1.390 . S
C821 N824 1.391 . S
C822 H794 0.930 . S
C822 C821 1.390 . S
C822 C823 1.392 . S
C823 H795 0.929 . S
C823 C820 1.391 . S
C823 C822 1.392 . S
N824 Co768 2.257 . S
N824 C821 1.391 . S
N824 C825 1.388 . S
C825 H796 0.930 . S
C825 C820 1.391 . S
C825 N824 1.388 . S
Co826 O828 2.143 . S
Co826 O834 2.074 . S
Co826 O837 2.093 . S
Co826 O850 2.097 . S
Co826 N867 2.151 . S
Co826 N875 2.214 . S
Co827 O828 2.160 . S
Co827 O833 2.058 . S
Co827 O843 2.057 . S
Co827 O858 2.037 . S
Co827 N862 2.145 . S
Co827 N883 2.257 . S
O828 Co826 2.143 . S
O828 Co827 2.160 . S
C829 O830 1.278 . S
C829 O837 1.224 . S
O830 C829 1.278 . S
C831 O832 1.245 . S
C831 O843 1.232 . S
O832 C831 1.245 . S
O833 Co827 2.058 . S
O833 C859 1.269 . S
O834 Co826 2.074 . S
O834 C859 1.257 . S
H835 C860 0.930 . S
H836 C866 0.930 . S
O837 Co826 2.093 . S
O837 C829 1.224 . S
H838 C870 0.929 . S
H839 C872 0.930 . S
H840 C873 0.930 . S
H841 C871 0.929 . S
H842 C874 0.928 . S
O843 Co827 2.057 . S
O843 C831 1.232 . S
H844 C863 0.929 . S
H845 C864 0.929 . S
H846 C876 0.931 . S
H847 C868 0.929 . S
H848 C877 0.930 . S
H849 C869 0.931 . S
O850 Co826 2.097 . S
O850 C878 1.214 . S
H851 C879 0.929 . S
H852 C880 0.929 . S
H853 C881 0.930 . S
H854 C882 0.929 . S
H855 C884 0.930 . S
H856 C861 0.930 . S
H857 C865 0.930 . S
O858 Co827 2.037 . S
O858 C878 1.234 . S
C859 O833 1.269 . S
C859 O834 1.257 . S
C860 H835 0.930 . S
C860 C863 1.388 . S
C860 C865 1.418 . S
C861 H856 0.930 . S
C861 C864 1.404 . S
C861 C865 1.353 . S
N862 Co827 2.145 . S
N862 C863 1.397 . S
N862 C864 1.334 . S
C863 H844 0.929 . S
C863 C860 1.388 . S
C863 N862 1.397 . S
C864 H845 0.929 . S
C864 C861 1.404 . S
C864 N862 1.334 . S
C865 H857 0.930 . S
C865 C860 1.418 . S
C865 C861 1.353 . S
C866 H836 0.930 . S
C866 N867 1.330 . S
C866 C868 1.446 . S
N867 Co826 2.151 . S
N867 C866 1.330 . S
N867 C871 1.418 . S
C868 H847 0.929 . S
C868 C866 1.446 . S
C868 C869 1.332 . S
C869 H849 0.931 . S
C869 C868 1.332 . S
C869 C870 1.267 . S
C870 H838 0.929 . S
C870 C869 1.267 . S
C870 C871 1.251 . S
C871 H841 0.929 . S
C871 N867 1.418 . S
C871 C870 1.251 . S
C872 H839 0.930 . S
C872 C874 1.406 . S
C872 C877 1.261 . S
C873 H840 0.930 . S
C873 N875 1.325 . S
C873 C876 1.357 . S
C874 H842 0.928 . S
C874 C872 1.406 . S
C874 N875 1.261 . S
N875 Co826 2.214 . S
N875 C873 1.325 . S
N875 C874 1.261 . S
C876 H846 0.931 . S
C876 C873 1.357 . S
C876 C877 1.312 . S
C877 H848 0.930 . S
C877 C872 1.261 . S
C877 C876 1.312 . S
C878 O850 1.214 . S
C878 O858 1.234 . S
C879 H851 0.929 . S
C879 C882 1.391 . S
C879 C884 1.391 . S
C880 H852 0.929 . S
C880 C881 1.390 . S
C880 N883 1.391 . S
C881 H853 0.930 . S
C881 C880 1.390 . S
C881 C882 1.392 . S
C882 H854 0.929 . S
C882 C879 1.391 . S
C882 C881 1.392 . S
N883 Co827 2.257 . S
N883 C880 1.391 . S
N883 C884 1.388 . S
C884 H855 0.930 . S
C884 C879 1.391 . S
C884 N883 1.388 . S
Co885 O887 2.143 . S
Co885 O893 2.074 . S
Co885 O896 2.093 . S
Co885 O909 2.097 . S
Co885 N926 2.151 . S
Co885 N934 2.214 . S
Co886 O887 2.160 . S
Co886 O892 2.058 . S
Co886 O902 2.057 . S
Co886 O917 2.037 . S
Co886 N921 2.145 . S
Co886 N942 2.257 . S
O887 Co885 2.143 . S
O887 Co886 2.160 . S
C888 O889 1.278 . S
C888 O896 1.224 . S
O889 C888 1.278 . S
C890 O891 1.245 . S
C890 O902 1.232 . S
O891 C890 1.245 . S
O892 Co886 2.058 . S
O892 C918 1.269 . S
O893 Co885 2.074 . S
O893 C918 1.257 . S
H894 C919 0.930 . S
H895 C925 0.930 . S
O896 Co885 2.093 . S
O896 C888 1.224 . S
H897 C929 0.929 . S
H898 C931 0.930 . S
H899 C932 0.930 . S
H900 C930 0.929 . S
H901 C933 0.928 . S
O902 Co886 2.057 . S
O902 C890 1.232 . S
H903 C922 0.929 . S
H904 C923 0.929 . S
H905 C935 0.931 . S
H906 C927 0.929 . S
H907 C936 0.930 . S
H908 C928 0.931 . S
O909 Co885 2.097 . S
O909 C937 1.214 . S
H910 C938 0.929 . S
H911 C939 0.929 . S
H912 C940 0.930 . S
H913 C941 0.929 . S
H914 C943 0.930 . S
H915 C920 0.930 . S
H916 C924 0.930 . S
O917 Co886 2.037 . S
O917 C937 1.234 . S
C918 O892 1.269 . S
C918 O893 1.257 . S
C919 H894 0.930 . S
C919 C922 1.388 . S
C919 C924 1.418 . S
C920 H915 0.930 . S
C920 C923 1.404 . S
C920 C924 1.353 . S
N921 Co886 2.145 . S
N921 C922 1.397 . S
N921 C923 1.334 . S
C922 H903 0.929 . S
C922 C919 1.388 . S
C922 N921 1.397 . S
C923 H904 0.929 . S
C923 C920 1.404 . S
C923 N921 1.334 . S
C924 H916 0.930 . S
C924 C919 1.418 . S
C924 C920 1.353 . S
C925 H895 0.930 . S
C925 N926 1.330 . S
C925 C927 1.446 . S
N926 Co885 2.151 . S
N926 C925 1.330 . S
N926 C930 1.418 . S
C927 H906 0.929 . S
C927 C925 1.446 . S
C927 C928 1.332 . S
C928 H908 0.931 . S
C928 C927 1.332 . S
C928 C929 1.267 . S
C929 H897 0.929 . S
C929 C928 1.267 . S
C929 C930 1.251 . S
C930 H900 0.929 . S
C930 N926 1.418 . S
C930 C929 1.251 . S
C931 H898 0.930 . S
C931 C933 1.406 . S
C931 C936 1.261 . S
C932 H899 0.930 . S
C932 N934 1.325 . S
C932 C935 1.357 . S
C933 H901 0.928 . S
C933 C931 1.406 . S
C933 N934 1.261 . S
N934 Co885 2.214 . S
N934 C932 1.325 . S
N934 C933 1.261 . S
C935 H905 0.931 . S
C935 C932 1.357 . S
C935 C936 1.312 . S
C936 H907 0.930 . S
C936 C931 1.261 . S
C936 C935 1.312 . S
C937 O909 1.214 . S
C937 O917 1.234 . S
C938 H910 0.929 . S
C938 C941 1.391 . S
C938 C943 1.391 . S
C939 H911 0.929 . S
C939 C940 1.390 . S
C939 N942 1.391 . S
C940 H912 0.930 . S
C940 C939 1.390 . S
C940 C941 1.392 . S
C941 H913 0.929 . S
C941 C938 1.391 . S
C941 C940 1.392 . S
N942 Co886 2.257 . S
N942 C939 1.391 . S
N942 C943 1.388 . S
C943 H914 0.930 . S
C943 C938 1.391 . S
C943 N942 1.388 . S
Co944 O946 2.143 . S
Co944 O952 2.074 . S
Co944 O955 2.093 . S
Co944 O968 2.097 . S
Co944 N985 2.151 . S
Co944 N993 2.214 . S
Co945 O946 2.160 . S
Co945 O951 2.058 . S
Co945 O961 2.057 . S
Co945 O976 2.037 . S
Co945 N980 2.145 . S
Co945 N1001 2.257 . S
O946 Co944 2.143 . S
O946 Co945 2.160 . S
C947 O948 1.278 . S
C947 O955 1.224 . S
O948 C947 1.278 . S
C949 O950 1.245 . S
C949 O961 1.232 . S
O950 C949 1.245 . S
O951 Co945 2.058 . S
O951 C977 1.269 . S
O952 Co944 2.074 . S
O952 C977 1.257 . S
H953 C978 0.930 . S
H954 C984 0.930 . S
O955 Co944 2.093 . S
O955 C947 1.224 . S
H956 C988 0.929 . S
H957 C990 0.930 . S
H958 C991 0.930 . S
H959 C989 0.929 . S
H960 C992 0.928 . S
O961 Co945 2.057 . S
O961 C949 1.232 . S
H962 C981 0.929 . S
H963 C982 0.929 . S
H964 C994 0.931 . S
H965 C986 0.929 . S
H966 C995 0.930 . S
H967 C987 0.931 . S
O968 Co944 2.097 . S
O968 C996 1.214 . S
H969 C997 0.929 . S
H970 C998 0.929 . S
H971 C999 0.930 . S
H972 C1000 0.929 . S
H973 C1002 0.930 . S
H974 C979 0.930 . S
H975 C983 0.930 . S
O976 Co945 2.037 . S
O976 C996 1.234 . S
C977 O951 1.269 . S
C977 O952 1.257 . S
C978 H953 0.930 . S
C978 C981 1.388 . S
C978 C983 1.418 . S
C979 H974 0.930 . S
C979 C982 1.404 . S
C979 C983 1.353 . S
N980 Co945 2.145 . S
N980 C981 1.397 . S
N980 C982 1.334 . S
C981 H962 0.929 . S
C981 C978 1.388 . S
C981 N980 1.397 . S
C982 H963 0.929 . S
C982 C979 1.404 . S
C982 N980 1.334 . S
C983 H975 0.930 . S
C983 C978 1.418 . S
C983 C979 1.353 . S
C984 H954 0.930 . S
C984 N985 1.330 . S
C984 C986 1.446 . S
N985 Co944 2.151 . S
N985 C984 1.330 . S
N985 C989 1.418 . S
C986 H965 0.929 . S
C986 C984 1.446 . S
C986 C987 1.332 . S
C987 H967 0.931 . S
C987 C986 1.332 . S
C987 C988 1.267 . S
C988 H956 0.929 . S
C988 C987 1.267 . S
C988 C989 1.251 . S
C989 H959 0.929 . S
C989 N985 1.418 . S
C989 C988 1.251 . S
C990 H957 0.930 . S
C990 C992 1.406 . S
C990 C995 1.261 . S
C991 H958 0.930 . S
C991 N993 1.325 . S
C991 C994 1.357 . S
C992 H960 0.928 . S
C992 C990 1.406 . S
C992 N993 1.261 . S
N993 Co944 2.214 . S
N993 C991 1.325 . S
N993 C992 1.261 . S
C994 H964 0.931 . S
C994 C991 1.357 . S
C994 C995 1.312 . S
C995 H966 0.930 . S
C995 C990 1.261 . S
C995 C994 1.312 . S
C996 O968 1.214 . S
C996 O976 1.234 . S
C997 H969 0.929 . S
C997 C1000 1.391 . S
C997 C1002 1.391 . S
C998 H970 0.929 . S
C998 C999 1.390 . S
C998 N1001 1.391 . S
C999 H971 0.930 . S
C999 C998 1.390 . S
C999 C1000 1.392 . S
C1000 H972 0.929 . S
C1000 C997 1.391 . S
C1000 C999 1.392 . S
N1001 Co945 2.257 . S
N1001 C998 1.391 . S
N1001 C1002 1.388 . S
C1002 H973 0.930 . S
C1002 C997 1.391 . S
C1002 N1001 1.388 . S
Co1003 O1005 2.143 . S
Co1003 O1011 2.074 . S
Co1003 O1014 2.093 . S
Co1003 O1027 2.097 . S
Co1003 N1044 2.151 . S
Co1003 N1052 2.214 . S
Co1004 O1005 2.160 . S
Co1004 O1010 2.058 . S
Co1004 O1020 2.057 . S
Co1004 O1035 2.037 . S
Co1004 N1039 2.145 . S
Co1004 N1060 2.257 . S
O1005 Co1003 2.143 . S
O1005 Co1004 2.160 . S
C1006 O1007 1.278 . S
C1006 O1014 1.224 . S
O1007 C1006 1.278 . S
C1008 O1009 1.245 . S
C1008 O1020 1.232 . S
O1009 C1008 1.245 . S
O1010 Co1004 2.058 . S
O1010 C1036 1.269 . S
O1011 Co1003 2.074 . S
O1011 C1036 1.257 . S
H1012 C1037 0.930 . S
H1013 C1043 0.930 . S
O1014 Co1003 2.093 . S
O1014 C1006 1.224 . S
H1015 C1047 0.929 . S
H1016 C1049 0.930 . S
H1017 C1050 0.930 . S
H1018 C1048 0.929 . S
H1019 C1051 0.928 . S
O1020 Co1004 2.057 . S
O1020 C1008 1.232 . S
H1021 C1040 0.929 . S
H1022 C1041 0.929 . S
H1023 C1053 0.931 . S
H1024 C1045 0.929 . S
H1025 C1054 0.930 . S
H1026 C1046 0.931 . S
O1027 Co1003 2.097 . S
O1027 C1055 1.214 . S
H1028 C1056 0.929 . S
H1029 C1057 0.929 . S
H1030 C1058 0.930 . S
H1031 C1059 0.929 . S
H1032 C1061 0.930 . S
H1033 C1038 0.930 . S
H1034 C1042 0.930 . S
O1035 Co1004 2.037 . S
O1035 C1055 1.234 . S
C1036 O1010 1.269 . S
C1036 O1011 1.257 . S
C1037 H1012 0.930 . S
C1037 C1040 1.388 . S
C1037 C1042 1.418 . S
C1038 H1033 0.930 . S
C1038 C1041 1.404 . S
C1038 C1042 1.353 . S
N1039 Co1004 2.145 . S
N1039 C1040 1.397 . S
N1039 C1041 1.334 . S
C1040 H1021 0.929 . S
C1040 C1037 1.388 . S
C1040 N1039 1.397 . S
C1041 H1022 0.929 . S
C1041 C1038 1.404 . S
C1041 N1039 1.334 . S
C1042 H1034 0.930 . S
C1042 C1037 1.418 . S
C1042 C1038 1.353 . S
C1043 H1013 0.930 . S
C1043 N1044 1.330 . S
C1043 C1045 1.446 . S
N1044 Co1003 2.151 . S
N1044 C1043 1.330 . S
N1044 C1048 1.418 . S
C1045 H1024 0.929 . S
C1045 C1043 1.446 . S
C1045 C1046 1.332 . S
C1046 H1026 0.931 . S
C1046 C1045 1.332 . S
C1046 C1047 1.267 . S
C1047 H1015 0.929 . S
C1047 C1046 1.267 . S
C1047 C1048 1.251 . S
C1048 H1018 0.929 . S
C1048 N1044 1.418 . S
C1048 C1047 1.251 . S
C1049 H1016 0.930 . S
C1049 C1051 1.406 . S
C1049 C1054 1.261 . S
C1050 H1017 0.930 . S
C1050 N1052 1.325 . S
C1050 C1053 1.357 . S
C1051 H1019 0.928 . S
C1051 C1049 1.406 . S
C1051 N1052 1.261 . S
N1052 Co1003 2.214 . S
N1052 C1050 1.325 . S
N1052 C1051 1.261 . S
C1053 H1023 0.931 . S
C1053 C1050 1.357 . S
C1053 C1054 1.312 . S
C1054 H1025 0.930 . S
C1054 C1049 1.261 . S
C1054 C1053 1.312 . S
C1055 O1027 1.214 . S
C1055 O1035 1.234 . S
C1056 H1028 0.929 . S
C1056 C1059 1.391 . S
C1056 C1061 1.391 . S
C1057 H1029 0.929 . S
C1057 C1058 1.390 . S
C1057 N1060 1.391 . S
C1058 H1030 0.930 . S
C1058 C1057 1.390 . S
C1058 C1059 1.392 . S
C1059 H1031 0.929 . S
C1059 C1056 1.391 . S
C1059 C1058 1.392 . S
N1060 Co1004 2.257 . S
N1060 C1057 1.391 . S
N1060 C1061 1.388 . S
C1061 H1032 0.930 . S
C1061 C1056 1.391 . S
C1061 N1060 1.388 . S
Co1062 O1064 2.143 . S
Co1062 O1070 2.074 . S
Co1062 O1073 2.093 . S
Co1062 O1086 2.097 . S
Co1062 N1103 2.151 . S
Co1062 N1111 2.214 . S
Co1063 O1064 2.160 . S
Co1063 O1069 2.058 . S
Co1063 O1079 2.057 . S
Co1063 O1094 2.037 . S
Co1063 N1098 2.145 . S
Co1063 N1119 2.257 . S
O1064 Co1062 2.143 . S
O1064 Co1063 2.160 . S
C1065 O1066 1.278 . S
C1065 O1073 1.224 . S
O1066 C1065 1.278 . S
C1067 O1068 1.245 . S
C1067 O1079 1.232 . S
O1068 C1067 1.245 . S
O1069 Co1063 2.058 . S
O1069 C1095 1.269 . S
O1070 Co1062 2.074 . S
O1070 C1095 1.257 . S
H1071 C1096 0.930 . S
H1072 C1102 0.930 . S
O1073 Co1062 2.093 . S
O1073 C1065 1.224 . S
H1074 C1106 0.929 . S
H1075 C1108 0.930 . S
H1076 C1109 0.930 . S
H1077 C1107 0.929 . S
H1078 C1110 0.928 . S
O1079 Co1063 2.057 . S
O1079 C1067 1.232 . S
H1080 C1099 0.929 . S
H1081 C1100 0.929 . S
H1082 C1112 0.931 . S
H1083 C1104 0.929 . S
H1084 C1113 0.930 . S
H1085 C1105 0.931 . S
O1086 Co1062 2.097 . S
O1086 C1114 1.214 . S
H1087 C1115 0.929 . S
H1088 C1116 0.929 . S
H1089 C1117 0.930 . S
H1090 C1118 0.929 . S
H1091 C1120 0.930 . S
H1092 C1097 0.930 . S
H1093 C1101 0.930 . S
O1094 Co1063 2.037 . S
O1094 C1114 1.234 . S
C1095 O1069 1.269 . S
C1095 O1070 1.257 . S
C1096 H1071 0.930 . S
C1096 C1099 1.388 . S
C1096 C1101 1.418 . S
C1097 H1092 0.930 . S
C1097 C1100 1.404 . S
C1097 C1101 1.353 . S
N1098 Co1063 2.145 . S
N1098 C1099 1.397 . S
N1098 C1100 1.334 . S
C1099 H1080 0.929 . S
C1099 C1096 1.388 . S
C1099 N1098 1.397 . S
C1100 H1081 0.929 . S
C1100 C1097 1.404 . S
C1100 N1098 1.334 . S
C1101 H1093 0.930 . S
C1101 C1096 1.418 . S
C1101 C1097 1.353 . S
C1102 H1072 0.930 . S
C1102 N1103 1.330 . S
C1102 C1104 1.446 . S
N1103 Co1062 2.151 . S
N1103 C1102 1.330 . S
N1103 C1107 1.418 . S
C1104 H1083 0.929 . S
C1104 C1102 1.446 . S
C1104 C1105 1.332 . S
C1105 H1085 0.931 . S
C1105 C1104 1.332 . S
C1105 C1106 1.267 . S
C1106 H1074 0.929 . S
C1106 C1105 1.267 . S
C1106 C1107 1.251 . S
C1107 H1077 0.929 . S
C1107 N1103 1.418 . S
C1107 C1106 1.251 . S
C1108 H1075 0.930 . S
C1108 C1110 1.406 . S
C1108 C1113 1.261 . S
C1109 H1076 0.930 . S
C1109 N1111 1.325 . S
C1109 C1112 1.357 . S
C1110 H1078 0.928 . S
C1110 C1108 1.406 . S
C1110 N1111 1.261 . S
N1111 Co1062 2.214 . S
N1111 C1109 1.325 . S
N1111 C1110 1.261 . S
C1112 H1082 0.931 . S
C1112 C1109 1.357 . S
C1112 C1113 1.312 . S
C1113 H1084 0.930 . S
C1113 C1108 1.261 . S
C1113 C1112 1.312 . S
C1114 O1086 1.214 . S
C1114 O1094 1.234 . S
C1115 H1087 0.929 . S
C1115 C1118 1.391 . S
C1115 C1120 1.391 . S
C1116 H1088 0.929 . S
C1116 C1117 1.390 . S
C1116 N1119 1.391 . S
C1117 H1089 0.930 . S
C1117 C1116 1.390 . S
C1117 C1118 1.392 . S
C1118 H1090 0.929 . S
C1118 C1115 1.391 . S
C1118 C1117 1.392 . S
N1119 Co1063 2.257 . S
N1119 C1116 1.391 . S
N1119 C1120 1.388 . S
C1120 H1091 0.930 . S
C1120 C1115 1.391 . S
C1120 N1119 1.388 . S
Co1121 O1123 2.143 . S
Co1121 O1129 2.074 . S
Co1121 O1132 2.093 . S
Co1121 O1145 2.097 . S
Co1121 N1162 2.151 . S
Co1121 N1170 2.214 . S
Co1122 O1123 2.160 . S
Co1122 O1128 2.058 . S
Co1122 O1138 2.057 . S
Co1122 O1153 2.037 . S
Co1122 N1157 2.145 . S
Co1122 N1178 2.257 . S
O1123 Co1121 2.143 . S
O1123 Co1122 2.160 . S
C1124 O1125 1.278 . S
C1124 O1132 1.224 . S
O1125 C1124 1.278 . S
C1126 O1127 1.245 . S
C1126 O1138 1.232 . S
O1127 C1126 1.245 . S
O1128 Co1122 2.058 . S
O1128 C1154 1.269 . S
O1129 Co1121 2.074 . S
O1129 C1154 1.257 . S
H1130 C1155 0.930 . S
H1131 C1161 0.930 . S
O1132 Co1121 2.093 . S
O1132 C1124 1.224 . S
H1133 C1165 0.929 . S
H1134 C1167 0.930 . S
H1135 C1168 0.930 . S
H1136 C1166 0.929 . S
H1137 C1169 0.928 . S
O1138 Co1122 2.057 . S
O1138 C1126 1.232 . S
H1139 C1158 0.929 . S
H1140 C1159 0.929 . S
H1141 C1171 0.931 . S
H1142 C1163 0.929 . S
H1143 C1172 0.930 . S
H1144 C1164 0.931 . S
O1145 Co1121 2.097 . S
O1145 C1173 1.214 . S
H1146 C1174 0.929 . S
H1147 C1175 0.929 . S
H1148 C1176 0.930 . S
H1149 C1177 0.929 . S
H1150 C1179 0.930 . S
H1151 C1156 0.930 . S
H1152 C1160 0.930 . S
O1153 Co1122 2.037 . S
O1153 C1173 1.234 . S
C1154 O1128 1.269 . S
C1154 O1129 1.257 . S
C1155 H1130 0.930 . S
C1155 C1158 1.388 . S
C1155 C1160 1.418 . S
C1156 H1151 0.930 . S
C1156 C1159 1.404 . S
C1156 C1160 1.353 . S
N1157 Co1122 2.145 . S
N1157 C1158 1.397 . S
N1157 C1159 1.334 . S
C1158 H1139 0.929 . S
C1158 C1155 1.388 . S
C1158 N1157 1.397 . S
C1159 H1140 0.929 . S
C1159 C1156 1.404 . S
C1159 N1157 1.334 . S
C1160 H1152 0.930 . S
C1160 C1155 1.418 . S
C1160 C1156 1.353 . S
C1161 H1131 0.930 . S
C1161 N1162 1.330 . S
C1161 C1163 1.446 . S
N1162 Co1121 2.151 . S
N1162 C1161 1.330 . S
N1162 C1166 1.418 . S
C1163 H1142 0.929 . S
C1163 C1161 1.446 . S
C1163 C1164 1.332 . S
C1164 H1144 0.931 . S
C1164 C1163 1.332 . S
C1164 C1165 1.267 . S
C1165 H1133 0.929 . S
C1165 C1164 1.267 . S
C1165 C1166 1.251 . S
C1166 H1136 0.929 . S
C1166 N1162 1.418 . S
C1166 C1165 1.251 . S
C1167 H1134 0.930 . S
C1167 C1169 1.406 . S
C1167 C1172 1.261 . S
C1168 H1135 0.930 . S
C1168 N1170 1.325 . S
C1168 C1171 1.357 . S
C1169 H1137 0.928 . S
C1169 C1167 1.406 . S
C1169 N1170 1.261 . S
N1170 Co1121 2.214 . S
N1170 C1168 1.325 . S
N1170 C1169 1.261 . S
C1171 H1141 0.931 . S
C1171 C1168 1.357 . S
C1171 C1172 1.312 . S
C1172 H1143 0.930 . S
C1172 C1167 1.261 . S
C1172 C1171 1.312 . S
C1173 O1145 1.214 . S
C1173 O1153 1.234 . S
C1174 H1146 0.929 . S
C1174 C1177 1.391 . S
C1174 C1179 1.391 . S
C1175 H1147 0.929 . S
C1175 C1176 1.390 . S
C1175 N1178 1.391 . S
C1176 H1148 0.930 . S
C1176 C1175 1.390 . S
C1176 C1177 1.392 . S
C1177 H1149 0.929 . S
C1177 C1174 1.391 . S
C1177 C1176 1.392 . S
N1178 Co1122 2.257 . S
N1178 C1175 1.391 . S
N1178 C1179 1.388 . S
C1179 H1150 0.930 . S
C1179 C1174 1.391 . S
C1179 N1178 1.388 . S
Co1180 O1182 2.143 . S
Co1180 O1188 2.074 . S
Co1180 O1191 2.093 . S
Co1180 O1204 2.097 . S
Co1180 N1221 2.151 . S
Co1180 N1229 2.214 . S
Co1181 O1182 2.160 . S
Co1181 O1187 2.058 . S
Co1181 O1197 2.057 . S
Co1181 O1212 2.037 . S
Co1181 N1216 2.145 . S
Co1181 N1237 2.257 . S
O1182 Co1180 2.143 . S
O1182 Co1181 2.160 . S
C1183 O1184 1.278 . S
C1183 O1191 1.224 . S
O1184 C1183 1.278 . S
C1185 O1186 1.245 . S
C1185 O1197 1.232 . S
O1186 C1185 1.245 . S
O1187 Co1181 2.058 . S
O1187 C1213 1.269 . S
O1188 Co1180 2.074 . S
O1188 C1213 1.257 . S
H1189 C1214 0.930 . S
H1190 C1220 0.930 . S
O1191 Co1180 2.093 . S
O1191 C1183 1.224 . S
H1192 C1224 0.929 . S
H1193 C1226 0.930 . S
H1194 C1227 0.930 . S
H1195 C1225 0.929 . S
H1196 C1228 0.928 . S
O1197 Co1181 2.057 . S
O1197 C1185 1.232 . S
H1198 C1217 0.929 . S
H1199 C1218 0.929 . S
H1200 C1230 0.931 . S
H1201 C1222 0.929 . S
H1202 C1231 0.930 . S
H1203 C1223 0.931 . S
O1204 Co1180 2.097 . S
O1204 C1232 1.214 . S
H1205 C1233 0.929 . S
H1206 C1234 0.929 . S
H1207 C1235 0.930 . S
H1208 C1236 0.929 . S
H1209 C1238 0.930 . S
H1210 C1215 0.930 . S
H1211 C1219 0.930 . S
O1212 Co1181 2.037 . S
O1212 C1232 1.234 . S
C1213 O1187 1.269 . S
C1213 O1188 1.257 . S
C1214 H1189 0.930 . S
C1214 C1217 1.388 . S
C1214 C1219 1.418 . S
C1215 H1210 0.930 . S
C1215 C1218 1.404 . S
C1215 C1219 1.353 . S
N1216 Co1181 2.145 . S
N1216 C1217 1.397 . S
N1216 C1218 1.334 . S
C1217 H1198 0.929 . S
C1217 C1214 1.388 . S
C1217 N1216 1.397 . S
C1218 H1199 0.929 . S
C1218 C1215 1.404 . S
C1218 N1216 1.334 . S
C1219 H1211 0.930 . S
C1219 C1214 1.418 . S
C1219 C1215 1.353 . S
C1220 H1190 0.930 . S
C1220 N1221 1.330 . S
C1220 C1222 1.446 . S
N1221 Co1180 2.151 . S
N1221 C1220 1.330 . S
N1221 C1225 1.418 . S
C1222 H1201 0.929 . S
C1222 C1220 1.446 . S
C1222 C1223 1.332 . S
C1223 H1203 0.931 . S
C1223 C1222 1.332 . S
C1223 C1224 1.267 . S
C1224 H1192 0.929 . S
C1224 C1223 1.267 . S
C1224 C1225 1.251 . S
C1225 H1195 0.929 . S
C1225 N1221 1.418 . S
C1225 C1224 1.251 . S
C1226 H1193 0.930 . S
C1226 C1228 1.406 . S
C1226 C1231 1.261 . S
C1227 H1194 0.930 . S
C1227 N1229 1.325 . S
C1227 C1230 1.357 . S
C1228 H1196 0.928 . S
C1228 C1226 1.406 . S
C1228 N1229 1.261 . S
N1229 Co1180 2.214 . S
N1229 C1227 1.325 . S
N1229 C1228 1.261 . S
C1230 H1200 0.931 . S
C1230 C1227 1.357 . S
C1230 C1231 1.312 . S
C1231 H1202 0.930 . S
C1231 C1226 1.261 . S
C1231 C1230 1.312 . S
C1232 O1204 1.214 . S
C1232 O1212 1.234 . S
C1233 H1205 0.929 . S
C1233 C1236 1.391 . S
C1233 C1238 1.391 . S
C1234 H1206 0.929 . S
C1234 C1235 1.390 . S
C1234 N1237 1.391 . S
C1235 H1207 0.930 . S
C1235 C1234 1.390 . S
C1235 C1236 1.392 . S
C1236 H1208 0.929 . S
C1236 C1233 1.391 . S
C1236 C1235 1.392 . S
N1237 Co1181 2.257 . S
N1237 C1234 1.391 . S
N1237 C1238 1.388 . S
C1238 H1209 0.930 . S
C1238 C1233 1.391 . S
C1238 N1237 1.388 . S
Co1239 O1241 2.143 . S
Co1239 O1247 2.074 . S
Co1239 O1250 2.093 . S
Co1239 O1263 2.097 . S
Co1239 N1280 2.151 . S
Co1239 N1288 2.214 . S
Co1240 O1241 2.160 . S
Co1240 O1246 2.058 . S
Co1240 O1256 2.057 . S
Co1240 O1271 2.037 . S
Co1240 N1275 2.145 . S
Co1240 N1296 2.257 . S
O1241 Co1239 2.143 . S
O1241 Co1240 2.160 . S
C1242 O1243 1.278 . S
C1242 O1250 1.224 . S
O1243 C1242 1.278 . S
C1244 O1245 1.245 . S
C1244 O1256 1.232 . S
O1245 C1244 1.245 . S
O1246 Co1240 2.058 . S
O1246 C1272 1.269 . S
O1247 Co1239 2.074 . S
O1247 C1272 1.257 . S
H1248 C1273 0.930 . S
H1249 C1279 0.930 . S
O1250 Co1239 2.093 . S
O1250 C1242 1.224 . S
H1251 C1283 0.929 . S
H1252 C1285 0.930 . S
H1253 C1286 0.930 . S
H1254 C1284 0.929 . S
H1255 C1287 0.928 . S
O1256 Co1240 2.057 . S
O1256 C1244 1.232 . S
H1257 C1276 0.929 . S
H1258 C1277 0.929 . S
H1259 C1289 0.931 . S
H1260 C1281 0.929 . S
H1261 C1290 0.930 . S
H1262 C1282 0.931 . S
O1263 Co1239 2.097 . S
O1263 C1291 1.214 . S
H1264 C1292 0.929 . S
H1265 C1293 0.929 . S
H1266 C1294 0.930 . S
H1267 C1295 0.929 . S
H1268 C1297 0.930 . S
H1269 C1274 0.930 . S
H1270 C1278 0.930 . S
O1271 Co1240 2.037 . S
O1271 C1291 1.234 . S
C1272 O1246 1.269 . S
C1272 O1247 1.257 . S
C1273 H1248 0.930 . S
C1273 C1276 1.388 . S
C1273 C1278 1.418 . S
C1274 H1269 0.930 . S
C1274 C1277 1.404 . S
C1274 C1278 1.353 . S
N1275 Co1240 2.145 . S
N1275 C1276 1.397 . S
N1275 C1277 1.334 . S
C1276 H1257 0.929 . S
C1276 C1273 1.388 . S
C1276 N1275 1.397 . S
C1277 H1258 0.929 . S
C1277 C1274 1.404 . S
C1277 N1275 1.334 . S
C1278 H1270 0.930 . S
C1278 C1273 1.418 . S
C1278 C1274 1.353 . S
C1279 H1249 0.930 . S
C1279 N1280 1.330 . S
C1279 C1281 1.446 . S
N1280 Co1239 2.151 . S
N1280 C1279 1.330 . S
N1280 C1284 1.418 . S
C1281 H1260 0.929 . S
C1281 C1279 1.446 . S
C1281 C1282 1.332 . S
C1282 H1262 0.931 . S
C1282 C1281 1.332 . S
C1282 C1283 1.267 . S
C1283 H1251 0.929 . S
C1283 C1282 1.267 . S
C1283 C1284 1.251 . S
C1284 H1254 0.929 . S
C1284 N1280 1.418 . S
C1284 C1283 1.251 . S
C1285 H1252 0.930 . S
C1285 C1287 1.406 . S
C1285 C1290 1.261 . S
C1286 H1253 0.930 . S
C1286 N1288 1.325 . S
C1286 C1289 1.357 . S
C1287 H1255 0.928 . S
C1287 C1285 1.406 . S
C1287 N1288 1.261 . S
N1288 Co1239 2.214 . S
N1288 C1286 1.325 . S
N1288 C1287 1.261 . S
C1289 H1259 0.931 . S
C1289 C1286 1.357 . S
C1289 C1290 1.312 . S
C1290 H1261 0.930 . S
C1290 C1285 1.261 . S
C1290 C1289 1.312 . S
C1291 O1263 1.214 . S
C1291 O1271 1.234 . S
C1292 H1264 0.929 . S
C1292 C1295 1.391 . S
C1292 C1297 1.391 . S
C1293 H1265 0.929 . S
C1293 C1294 1.390 . S
C1293 N1296 1.391 . S
C1294 H1266 0.930 . S
C1294 C1293 1.390 . S
C1294 C1295 1.392 . S
C1295 H1267 0.929 . S
C1295 C1292 1.391 . S
C1295 C1294 1.392 . S
N1296 Co1240 2.257 . S
N1296 C1293 1.391 . S
N1296 C1297 1.388 . S
C1297 H1268 0.930 . S
C1297 C1292 1.391 . S
C1297 N1296 1.388 . S
Co1298 O1300 2.143 . S
Co1298 O1306 2.074 . S
Co1298 O1309 2.093 . S
Co1298 O1322 2.097 . S
Co1298 N1339 2.151 . S
Co1298 N1347 2.214 . S
Co1299 O1300 2.160 . S
Co1299 O1305 2.058 . S
Co1299 O1315 2.057 . S
Co1299 O1330 2.037 . S
Co1299 N1334 2.145 . S
Co1299 N1355 2.257 . S
O1300 Co1298 2.143 . S
O1300 Co1299 2.160 . S
C1301 O1302 1.278 . S
C1301 O1309 1.224 . S
O1302 C1301 1.278 . S
C1303 O1304 1.245 . S
C1303 O1315 1.232 . S
O1304 C1303 1.245 . S
O1305 Co1299 2.058 . S
O1305 C1331 1.269 . S
O1306 Co1298 2.074 . S
O1306 C1331 1.257 . S
H1307 C1332 0.930 . S
H1308 C1338 0.930 . S
O1309 Co1298 2.093 . S
O1309 C1301 1.224 . S
H1310 C1342 0.929 . S
H1311 C1344 0.930 . S
H1312 C1345 0.930 . S
H1313 C1343 0.929 . S
H1314 C1346 0.928 . S
O1315 Co1299 2.057 . S
O1315 C1303 1.232 . S
H1316 C1335 0.929 . S
H1317 C1336 0.929 . S
H1318 C1348 0.931 . S
H1319 C1340 0.929 . S
H1320 C1349 0.930 . S
H1321 C1341 0.931 . S
O1322 Co1298 2.097 . S
O1322 C1350 1.214 . S
H1323 C1351 0.929 . S
H1324 C1352 0.929 . S
H1325 C1353 0.930 . S
H1326 C1354 0.929 . S
H1327 C1356 0.930 . S
H1328 C1333 0.930 . S
H1329 C1337 0.930 . S
O1330 Co1299 2.037 . S
O1330 C1350 1.234 . S
C1331 O1305 1.269 . S
C1331 O1306 1.257 . S
C1332 H1307 0.930 . S
C1332 C1335 1.388 . S
C1332 C1337 1.418 . S
C1333 H1328 0.930 . S
C1333 C1336 1.404 . S
C1333 C1337 1.353 . S
N1334 Co1299 2.145 . S
N1334 C1335 1.397 . S
N1334 C1336 1.334 . S
C1335 H1316 0.929 . S
C1335 C1332 1.388 . S
C1335 N1334 1.397 . S
C1336 H1317 0.929 . S
C1336 C1333 1.404 . S
C1336 N1334 1.334 . S
C1337 H1329 0.930 . S
C1337 C1332 1.418 . S
C1337 C1333 1.353 . S
C1338 H1308 0.930 . S
C1338 N1339 1.330 . S
C1338 C1340 1.446 . S
N1339 Co1298 2.151 . S
N1339 C1338 1.330 . S
N1339 C1343 1.418 . S
C1340 H1319 0.929 . S
C1340 C1338 1.446 . S
C1340 C1341 1.332 . S
C1341 H1321 0.931 . S
C1341 C1340 1.332 . S
C1341 C1342 1.267 . S
C1342 H1310 0.929 . S
C1342 C1341 1.267 . S
C1342 C1343 1.251 . S
C1343 H1313 0.929 . S
C1343 N1339 1.418 . S
C1343 C1342 1.251 . S
C1344 H1311 0.930 . S
C1344 C1346 1.406 . S
C1344 C1349 1.261 . S
C1345 H1312 0.930 . S
C1345 N1347 1.325 . S
C1345 C1348 1.357 . S
C1346 H1314 0.928 . S
C1346 C1344 1.406 . S
C1346 N1347 1.261 . S
N1347 Co1298 2.214 . S
N1347 C1345 1.325 . S
N1347 C1346 1.261 . S
C1348 H1318 0.931 . S
C1348 C1345 1.357 . S
C1348 C1349 1.312 . S
C1349 H1320 0.930 . S
C1349 C1344 1.261 . S
C1349 C1348 1.312 . S
C1350 O1322 1.214 . S
C1350 O1330 1.234 . S
C1351 H1323 0.929 . S
C1351 C1354 1.391 . S
C1351 C1356 1.391 . S
C1352 H1324 0.929 . S
C1352 C1353 1.390 . S
C1352 N1355 1.391 . S
C1353 H1325 0.930 . S
C1353 C1352 1.390 . S
C1353 C1354 1.392 . S
C1354 H1326 0.929 . S
C1354 C1351 1.391 . S
C1354 C1353 1.392 . S
N1355 Co1299 2.257 . S
N1355 C1352 1.391 . S
N1355 C1356 1.388 . S
C1356 H1327 0.930 . S
C1356 C1351 1.391 . S
C1356 N1355 1.388 . S
Co1357 O1359 2.143 . S
Co1357 O1365 2.074 . S
Co1357 O1368 2.093 . S
Co1357 O1381 2.097 . S
Co1357 N1398 2.151 . S
Co1357 N1406 2.214 . S
Co1358 O1359 2.160 . S
Co1358 O1364 2.058 . S
Co1358 O1374 2.057 . S
Co1358 O1389 2.037 . S
Co1358 N1393 2.145 . S
Co1358 N1414 2.257 . S
O1359 Co1357 2.143 . S
O1359 Co1358 2.160 . S
C1360 O1361 1.278 . S
C1360 O1368 1.224 . S
O1361 C1360 1.278 . S
C1362 O1363 1.245 . S
C1362 O1374 1.232 . S
O1363 C1362 1.245 . S
O1364 Co1358 2.058 . S
O1364 C1390 1.269 . S
O1365 Co1357 2.074 . S
O1365 C1390 1.257 . S
H1366 C1391 0.930 . S
H1367 C1397 0.930 . S
O1368 Co1357 2.093 . S
O1368 C1360 1.224 . S
H1369 C1401 0.929 . S
H1370 C1403 0.930 . S
H1371 C1404 0.930 . S
H1372 C1402 0.929 . S
H1373 C1405 0.928 . S
O1374 Co1358 2.057 . S
O1374 C1362 1.232 . S
H1375 C1394 0.929 . S
H1376 C1395 0.929 . S
H1377 C1407 0.931 . S
H1378 C1399 0.929 . S
H1379 C1408 0.930 . S
H1380 C1400 0.931 . S
O1381 Co1357 2.097 . S
O1381 C1409 1.214 . S
H1382 C1410 0.929 . S
H1383 C1411 0.929 . S
H1384 C1412 0.930 . S
H1385 C1413 0.929 . S
H1386 C1415 0.930 . S
H1387 C1392 0.930 . S
H1388 C1396 0.930 . S
O1389 Co1358 2.037 . S
O1389 C1409 1.234 . S
C1390 O1364 1.269 . S
C1390 O1365 1.257 . S
C1391 H1366 0.930 . S
C1391 C1394 1.388 . S
C1391 C1396 1.418 . S
C1392 H1387 0.930 . S
C1392 C1395 1.404 . S
C1392 C1396 1.353 . S
N1393 Co1358 2.145 . S
N1393 C1394 1.397 . S
N1393 C1395 1.334 . S
C1394 H1375 0.929 . S
C1394 C1391 1.388 . S
C1394 N1393 1.397 . S
C1395 H1376 0.929 . S
C1395 C1392 1.404 . S
C1395 N1393 1.334 . S
C1396 H1388 0.930 . S
C1396 C1391 1.418 . S
C1396 C1392 1.353 . S
C1397 H1367 0.930 . S
C1397 N1398 1.330 . S
C1397 C1399 1.446 . S
N1398 Co1357 2.151 . S
N1398 C1397 1.330 . S
N1398 C1402 1.418 . S
C1399 H1378 0.929 . S
C1399 C1397 1.446 . S
C1399 C1400 1.332 . S
C1400 H1380 0.931 . S
C1400 C1399 1.332 . S
C1400 C1401 1.267 . S
C1401 H1369 0.929 . S
C1401 C1400 1.267 . S
C1401 C1402 1.251 . S
C1402 H1372 0.929 . S
C1402 N1398 1.418 . S
C1402 C1401 1.251 . S
C1403 H1370 0.930 . S
C1403 C1405 1.406 . S
C1403 C1408 1.261 . S
C1404 H1371 0.930 . S
C1404 N1406 1.325 . S
C1404 C1407 1.357 . S
C1405 H1373 0.928 . S
C1405 C1403 1.406 . S
C1405 N1406 1.261 . S
N1406 Co1357 2.214 . S
N1406 C1404 1.325 . S
N1406 C1405 1.261 . S
C1407 H1377 0.931 . S
C1407 C1404 1.357 . S
C1407 C1408 1.312 . S
C1408 H1379 0.930 . S
C1408 C1403 1.261 . S
C1408 C1407 1.312 . S
C1409 O1381 1.214 . S
C1409 O1389 1.234 . S
C1410 H1382 0.929 . S
C1410 C1413 1.391 . S
C1410 C1415 1.391 . S
C1411 H1383 0.929 . S
C1411 C1412 1.390 . S
C1411 N1414 1.391 . S
C1412 H1384 0.930 . S
C1412 C1411 1.390 . S
C1412 C1413 1.392 . S
C1413 H1385 0.929 . S
C1413 C1410 1.391 . S
C1413 C1412 1.392 . S
N1414 Co1358 2.257 . S
N1414 C1411 1.391 . S
N1414 C1415 1.388 . S
C1415 H1386 0.930 . S
C1415 C1410 1.391 . S
C1415 N1414 1.388 . S
Co1416 O1418 2.143 . S
Co1416 O1424 2.074 . S
Co1416 O1427 2.093 . S
Co1416 O1440 2.097 . S
Co1416 N1457 2.151 . S
Co1416 N1465 2.214 . S
Co1417 O1418 2.160 . S
Co1417 O1423 2.058 . S
Co1417 O1433 2.057 . S
Co1417 O1448 2.037 . S
Co1417 N1452 2.145 . S
Co1417 N1473 2.257 . S
O1418 Co1416 2.143 . S
O1418 Co1417 2.160 . S
C1419 O1420 1.278 . S
C1419 O1427 1.224 . S
O1420 C1419 1.278 . S
C1421 O1422 1.245 . S
C1421 O1433 1.232 . S
O1422 C1421 1.245 . S
O1423 Co1417 2.058 . S
O1423 C1449 1.269 . S
O1424 Co1416 2.074 . S
O1424 C1449 1.257 . S
H1425 C1450 0.930 . S
H1426 C1456 0.930 . S
O1427 Co1416 2.093 . S
O1427 C1419 1.224 . S
H1428 C1460 0.929 . S
H1429 C1462 0.930 . S
H1430 C1463 0.930 . S
H1431 C1461 0.929 . S
H1432 C1464 0.928 . S
O1433 Co1417 2.057 . S
O1433 C1421 1.232 . S
H1434 C1453 0.929 . S
H1435 C1454 0.929 . S
H1436 C1466 0.931 . S
H1437 C1458 0.929 . S
H1438 C1467 0.930 . S
H1439 C1459 0.931 . S
O1440 Co1416 2.097 . S
O1440 C1468 1.214 . S
H1441 C1469 0.929 . S
H1442 C1470 0.929 . S
H1443 C1471 0.930 . S
H1444 C1472 0.929 . S
H1445 C1474 0.930 . S
H1446 C1451 0.930 . S
H1447 C1455 0.930 . S
O1448 Co1417 2.037 . S
O1448 C1468 1.234 . S
C1449 O1423 1.269 . S
C1449 O1424 1.257 . S
C1450 H1425 0.930 . S
C1450 C1453 1.388 . S
C1450 C1455 1.418 . S
C1451 H1446 0.930 . S
C1451 C1454 1.404 . S
C1451 C1455 1.353 . S
N1452 Co1417 2.145 . S
N1452 C1453 1.397 . S
N1452 C1454 1.334 . S
C1453 H1434 0.929 . S
C1453 C1450 1.388 . S
C1453 N1452 1.397 . S
C1454 H1435 0.929 . S
C1454 C1451 1.404 . S
C1454 N1452 1.334 . S
C1455 H1447 0.930 . S
C1455 C1450 1.418 . S
C1455 C1451 1.353 . S
C1456 H1426 0.930 . S
C1456 N1457 1.330 . S
C1456 C1458 1.446 . S
N1457 Co1416 2.151 . S
N1457 C1456 1.330 . S
N1457 C1461 1.418 . S
C1458 H1437 0.929 . S
C1458 C1456 1.446 . S
C1458 C1459 1.332 . S
C1459 H1439 0.931 . S
C1459 C1458 1.332 . S
C1459 C1460 1.267 . S
C1460 H1428 0.929 . S
C1460 C1459 1.267 . S
C1460 C1461 1.251 . S
C1461 H1431 0.929 . S
C1461 N1457 1.418 . S
C1461 C1460 1.251 . S
C1462 H1429 0.930 . S
C1462 C1464 1.406 . S
C1462 C1467 1.261 . S
C1463 H1430 0.930 . S
C1463 N1465 1.325 . S
C1463 C1466 1.357 . S
C1464 H1432 0.928 . S
C1464 C1462 1.406 . S
C1464 N1465 1.261 . S
N1465 Co1416 2.214 . S
N1465 C1463 1.325 . S
N1465 C1464 1.261 . S
C1466 H1436 0.931 . S
C1466 C1463 1.357 . S
C1466 C1467 1.312 . S
C1467 H1438 0.930 . S
C1467 C1462 1.261 . S
C1467 C1466 1.312 . S
C1468 O1440 1.214 . S
C1468 O1448 1.234 . S
C1469 H1441 0.929 . S
C1469 C1472 1.391 . S
C1469 C1474 1.391 . S
C1470 H1442 0.929 . S
C1470 C1471 1.390 . S
C1470 N1473 1.391 . S
C1471 H1443 0.930 . S
C1471 C1470 1.390 . S
C1471 C1472 1.392 . S
C1472 H1444 0.929 . S
C1472 C1469 1.391 . S
C1472 C1471 1.392 . S
N1473 Co1417 2.257 . S
N1473 C1470 1.391 . S
N1473 C1474 1.388 . S
C1474 H1445 0.930 . S
C1474 C1469 1.391 . S
C1474 N1473 1.388 . S
Co1475 O1477 2.143 . S
Co1475 O1483 2.074 . S
Co1475 O1486 2.093 . S
Co1475 O1499 2.097 . S
Co1475 N1516 2.151 . S
Co1475 N1524 2.214 . S
Co1476 O1477 2.160 . S
Co1476 O1482 2.058 . S
Co1476 O1492 2.057 . S
Co1476 O1507 2.037 . S
Co1476 N1511 2.145 . S
Co1476 N1532 2.257 . S
O1477 Co1475 2.143 . S
O1477 Co1476 2.160 . S
C1478 O1479 1.278 . S
C1478 O1486 1.224 . S
O1479 C1478 1.278 . S
C1480 O1481 1.245 . S
C1480 O1492 1.232 . S
O1481 C1480 1.245 . S
O1482 Co1476 2.058 . S
O1482 C1508 1.269 . S
O1483 Co1475 2.074 . S
O1483 C1508 1.257 . S
H1484 C1509 0.930 . S
H1485 C1515 0.930 . S
O1486 Co1475 2.093 . S
O1486 C1478 1.224 . S
H1487 C1519 0.929 . S
H1488 C1521 0.930 . S
H1489 C1522 0.930 . S
H1490 C1520 0.929 . S
H1491 C1523 0.928 . S
O1492 Co1476 2.057 . S
O1492 C1480 1.232 . S
H1493 C1512 0.929 . S
H1494 C1513 0.929 . S
H1495 C1525 0.931 . S
H1496 C1517 0.929 . S
H1497 C1526 0.930 . S
H1498 C1518 0.931 . S
O1499 Co1475 2.097 . S
O1499 C1527 1.214 . S
H1500 C1528 0.929 . S
H1501 C1529 0.929 . S
H1502 C1530 0.930 . S
H1503 C1531 0.929 . S
H1504 C1533 0.930 . S
H1505 C1510 0.930 . S
H1506 C1514 0.930 . S
O1507 Co1476 2.037 . S
O1507 C1527 1.234 . S
C1508 O1482 1.269 . S
C1508 O1483 1.257 . S
C1509 H1484 0.930 . S
C1509 C1512 1.388 . S
C1509 C1514 1.418 . S
C1510 H1505 0.930 . S
C1510 C1513 1.404 . S
C1510 C1514 1.353 . S
N1511 Co1476 2.145 . S
N1511 C1512 1.397 . S
N1511 C1513 1.334 . S
C1512 H1493 0.929 . S
C1512 C1509 1.388 . S
C1512 N1511 1.397 . S
C1513 H1494 0.929 . S
C1513 C1510 1.404 . S
C1513 N1511 1.334 . S
C1514 H1506 0.930 . S
C1514 C1509 1.418 . S
C1514 C1510 1.353 . S
C1515 H1485 0.930 . S
C1515 N1516 1.330 . S
C1515 C1517 1.446 . S
N1516 Co1475 2.151 . S
N1516 C1515 1.330 . S
N1516 C1520 1.418 . S
C1517 H1496 0.929 . S
C1517 C1515 1.446 . S
C1517 C1518 1.332 . S
C1518 H1498 0.931 . S
C1518 C1517 1.332 . S
C1518 C1519 1.267 . S
C1519 H1487 0.929 . S
C1519 C1518 1.267 . S
C1519 C1520 1.251 . S
C1520 H1490 0.929 . S
C1520 N1516 1.418 . S
C1520 C1519 1.251 . S
C1521 H1488 0.930 . S
C1521 C1523 1.406 . S
C1521 C1526 1.261 . S
C1522 H1489 0.930 . S
C1522 N1524 1.325 . S
C1522 C1525 1.357 . S
C1523 H1491 0.928 . S
C1523 C1521 1.406 . S
C1523 N1524 1.261 . S
N1524 Co1475 2.214 . S
N1524 C1522 1.325 . S
N1524 C1523 1.261 . S
C1525 H1495 0.931 . S
C1525 C1522 1.357 . S
C1525 C1526 1.312 . S
C1526 H1497 0.930 . S
C1526 C1521 1.261 . S
C1526 C1525 1.312 . S
C1527 O1499 1.214 . S
C1527 O1507 1.234 . S
C1528 H1500 0.929 . S
C1528 C1531 1.391 . S
C1528 C1533 1.391 . S
C1529 H1501 0.929 . S
C1529 C1530 1.390 . S
C1529 N1532 1.391 . S
C1530 H1502 0.930 . S
C1530 C1529 1.390 . S
C1530 C1531 1.392 . S
C1531 H1503 0.929 . S
C1531 C1528 1.391 . S
C1531 C1530 1.392 . S
N1532 Co1476 2.257 . S
N1532 C1529 1.391 . S
N1532 C1533 1.388 . S
C1533 H1504 0.930 . S
C1533 C1528 1.391 . S
C1533 N1532 1.388 . S
Co1534 O1536 2.143 . S
Co1534 O1542 2.074 . S
Co1534 O1545 2.093 . S
Co1534 O1558 2.097 . S
Co1534 N1575 2.151 . S
Co1534 N1583 2.214 . S
Co1535 O1536 2.160 . S
Co1535 O1541 2.058 . S
Co1535 O1551 2.057 . S
Co1535 O1566 2.037 . S
Co1535 N1570 2.145 . S
Co1535 N1591 2.257 . S
O1536 Co1534 2.143 . S
O1536 Co1535 2.160 . S
C1537 O1538 1.278 . S
C1537 O1545 1.224 . S
O1538 C1537 1.278 . S
C1539 O1540 1.245 . S
C1539 O1551 1.232 . S
O1540 C1539 1.245 . S
O1541 Co1535 2.058 . S
O1541 C1567 1.269 . S
O1542 Co1534 2.074 . S
O1542 C1567 1.257 . S
H1543 C1568 0.930 . S
H1544 C1574 0.930 . S
O1545 Co1534 2.093 . S
O1545 C1537 1.224 . S
H1546 C1578 0.929 . S
H1547 C1580 0.930 . S
H1548 C1581 0.930 . S
H1549 C1579 0.929 . S
H1550 C1582 0.928 . S
O1551 Co1535 2.057 . S
O1551 C1539 1.232 . S
H1552 C1571 0.929 . S
H1553 C1572 0.929 . S
H1554 C1584 0.931 . S
H1555 C1576 0.929 . S
H1556 C1585 0.930 . S
H1557 C1577 0.931 . S
O1558 Co1534 2.097 . S
O1558 C1586 1.214 . S
H1559 C1587 0.929 . S
H1560 C1588 0.929 . S
H1561 C1589 0.930 . S
H1562 C1590 0.929 . S
H1563 C1592 0.930 . S
H1564 C1569 0.930 . S
H1565 C1573 0.930 . S
O1566 Co1535 2.037 . S
O1566 C1586 1.234 . S
C1567 O1541 1.269 . S
C1567 O1542 1.257 . S
C1568 H1543 0.930 . S
C1568 C1571 1.388 . S
C1568 C1573 1.418 . S
C1569 H1564 0.930 . S
C1569 C1572 1.404 . S
C1569 C1573 1.353 . S
N1570 Co1535 2.145 . S
N1570 C1571 1.397 . S
N1570 C1572 1.334 . S
C1571 H1552 0.929 . S
C1571 C1568 1.388 . S
C1571 N1570 1.397 . S
C1572 H1553 0.929 . S
C1572 C1569 1.404 . S
C1572 N1570 1.334 . S
C1573 H1565 0.930 . S
C1573 C1568 1.418 . S
C1573 C1569 1.353 . S
C1574 H1544 0.930 . S
C1574 N1575 1.330 . S
C1574 C1576 1.446 . S
N1575 Co1534 2.151 . S
N1575 C1574 1.330 . S
N1575 C1579 1.418 . S
C1576 H1555 0.929 . S
C1576 C1574 1.446 . S
C1576 C1577 1.332 . S
C1577 H1557 0.931 . S
C1577 C1576 1.332 . S
C1577 C1578 1.267 . S
C1578 H1546 0.929 . S
C1578 C1577 1.267 . S
C1578 C1579 1.251 . S
C1579 H1549 0.929 . S
C1579 N1575 1.418 . S
C1579 C1578 1.251 . S
C1580 H1547 0.930 . S
C1580 C1582 1.406 . S
C1580 C1585 1.261 . S
C1581 H1548 0.930 . S
C1581 N1583 1.325 . S
C1581 C1584 1.357 . S
C1582 H1550 0.928 . S
C1582 C1580 1.406 . S
C1582 N1583 1.261 . S
N1583 Co1534 2.214 . S
N1583 C1581 1.325 . S
N1583 C1582 1.261 . S
C1584 H1554 0.931 . S
C1584 C1581 1.357 . S
C1584 C1585 1.312 . S
C1585 H1556 0.930 . S
C1585 C1580 1.261 . S
C1585 C1584 1.312 . S
C1586 O1558 1.214 . S
C1586 O1566 1.234 . S
C1587 H1559 0.929 . S
C1587 C1590 1.391 . S
C1587 C1592 1.391 . S
C1588 H1560 0.929 . S
C1588 C1589 1.390 . S
C1588 N1591 1.391 . S
C1589 H1561 0.930 . S
C1589 C1588 1.390 . S
C1589 C1590 1.392 . S
C1590 H1562 0.929 . S
C1590 C1587 1.391 . S
C1590 C1589 1.392 . S
N1591 Co1535 2.257 . S
N1591 C1588 1.391 . S
N1591 C1592 1.388 . S
C1592 H1563 0.930 . S
C1592 C1587 1.391 . S
C1592 N1591 1.388 . S
Co1593 O1595 2.143 . S
Co1593 O1601 2.074 . S
Co1593 O1604 2.093 . S
Co1593 O1617 2.097 . S
Co1593 N1634 2.151 . S
Co1593 N1642 2.214 . S
Co1594 O1595 2.160 . S
Co1594 O1600 2.058 . S
Co1594 O1610 2.057 . S
Co1594 O1625 2.037 . S
Co1594 N1629 2.145 . S
Co1594 N1650 2.257 . S
O1595 Co1593 2.143 . S
O1595 Co1594 2.160 . S
C1596 O1597 1.278 . S
C1596 O1604 1.224 . S
O1597 C1596 1.278 . S
C1598 O1599 1.245 . S
C1598 O1610 1.232 . S
O1599 C1598 1.245 . S
O1600 Co1594 2.058 . S
O1600 C1626 1.269 . S
O1601 Co1593 2.074 . S
O1601 C1626 1.257 . S
H1602 C1627 0.930 . S
H1603 C1633 0.930 . S
O1604 Co1593 2.093 . S
O1604 C1596 1.224 . S
H1605 C1637 0.929 . S
H1606 C1639 0.930 . S
H1607 C1640 0.930 . S
H1608 C1638 0.929 . S
H1609 C1641 0.928 . S
O1610 Co1594 2.057 . S
O1610 C1598 1.232 . S
H1611 C1630 0.929 . S
H1612 C1631 0.929 . S
H1613 C1643 0.931 . S
H1614 C1635 0.929 . S
H1615 C1644 0.930 . S
H1616 C1636 0.931 . S
O1617 Co1593 2.097 . S
O1617 C1645 1.214 . S
H1618 C1646 0.929 . S
H1619 C1647 0.929 . S
H1620 C1648 0.930 . S
H1621 C1649 0.929 . S
H1622 C1651 0.930 . S
H1623 C1628 0.930 . S
H1624 C1632 0.930 . S
O1625 Co1594 2.037 . S
O1625 C1645 1.234 . S
C1626 O1600 1.269 . S
C1626 O1601 1.257 . S
C1627 H1602 0.930 . S
C1627 C1630 1.388 . S
C1627 C1632 1.418 . S
C1628 H1623 0.930 . S
C1628 C1631 1.404 . S
C1628 C1632 1.353 . S
N1629 Co1594 2.145 . S
N1629 C1630 1.397 . S
N1629 C1631 1.334 . S
C1630 H1611 0.929 . S
C1630 C1627 1.388 . S
C1630 N1629 1.397 . S
C1631 H1612 0.929 . S
C1631 C1628 1.404 . S
C1631 N1629 1.334 . S
C1632 H1624 0.930 . S
C1632 C1627 1.418 . S
C1632 C1628 1.353 . S
C1633 H1603 0.930 . S
C1633 N1634 1.330 . S
C1633 C1635 1.446 . S
N1634 Co1593 2.151 . S
N1634 C1633 1.330 . S
N1634 C1638 1.418 . S
C1635 H1614 0.929 . S
C1635 C1633 1.446 . S
C1635 C1636 1.332 . S
C1636 H1616 0.931 . S
C1636 C1635 1.332 . S
C1636 C1637 1.267 . S
C1637 H1605 0.929 . S
C1637 C1636 1.267 . S
C1637 C1638 1.251 . S
C1638 H1608 0.929 . S
C1638 N1634 1.418 . S
C1638 C1637 1.251 . S
C1639 H1606 0.930 . S
C1639 C1641 1.406 . S
C1639 C1644 1.261 . S
C1640 H1607 0.930 . S
C1640 N1642 1.325 . S
C1640 C1643 1.357 . S
C1641 H1609 0.928 . S
C1641 C1639 1.406 . S
C1641 N1642 1.261 . S
N1642 Co1593 2.214 . S
N1642 C1640 1.325 . S
N1642 C1641 1.261 . S
C1643 H1613 0.931 . S
C1643 C1640 1.357 . S
C1643 C1644 1.312 . S
C1644 H1615 0.930 . S
C1644 C1639 1.261 . S
C1644 C1643 1.312 . S
C1645 O1617 1.214 . S
C1645 O1625 1.234 . S
C1646 H1618 0.929 . S
C1646 C1649 1.391 . S
C1646 C1651 1.391 . S
C1647 H1619 0.929 . S
C1647 C1648 1.390 . S
C1647 N1650 1.391 . S
C1648 H1620 0.930 . S
C1648 C1647 1.390 . S
C1648 C1649 1.392 . S
C1649 H1621 0.929 . S
C1649 C1646 1.391 . S
C1649 C1648 1.392 . S
N1650 Co1594 2.257 . S
N1650 C1647 1.391 . S
N1650 C1651 1.388 . S
C1651 H1622 0.930 . S
C1651 C1646 1.391 . S
C1651 N1650 1.388 . S
Co1652 O1654 2.143 . S
Co1652 O1660 2.074 . S
Co1652 O1663 2.093 . S
Co1652 O1676 2.097 . S
Co1652 N1693 2.151 . S
Co1652 N1701 2.214 . S
Co1653 O1654 2.160 . S
Co1653 O1659 2.058 . S
Co1653 O1669 2.057 . S
Co1653 O1684 2.037 . S
Co1653 N1688 2.145 . S
Co1653 N1709 2.257 . S
O1654 Co1652 2.143 . S
O1654 Co1653 2.160 . S
C1655 O1656 1.278 . S
C1655 O1663 1.224 . S
O1656 C1655 1.278 . S
C1657 O1658 1.245 . S
C1657 O1669 1.232 . S
O1658 C1657 1.245 . S
O1659 Co1653 2.058 . S
O1659 C1685 1.269 . S
O1660 Co1652 2.074 . S
O1660 C1685 1.257 . S
H1661 C1686 0.930 . S
H1662 C1692 0.930 . S
O1663 Co1652 2.093 . S
O1663 C1655 1.224 . S
H1664 C1696 0.929 . S
H1665 C1698 0.930 . S
H1666 C1699 0.930 . S
H1667 C1697 0.929 . S
H1668 C1700 0.928 . S
O1669 Co1653 2.057 . S
O1669 C1657 1.232 . S
H1670 C1689 0.929 . S
H1671 C1690 0.929 . S
H1672 C1702 0.931 . S
H1673 C1694 0.929 . S
H1674 C1703 0.930 . S
H1675 C1695 0.931 . S
O1676 Co1652 2.097 . S
O1676 C1704 1.214 . S
H1677 C1705 0.929 . S
H1678 C1706 0.929 . S
H1679 C1707 0.930 . S
H1680 C1708 0.929 . S
H1681 C1710 0.930 . S
H1682 C1687 0.930 . S
H1683 C1691 0.930 . S
O1684 Co1653 2.037 . S
O1684 C1704 1.234 . S
C1685 O1659 1.269 . S
C1685 O1660 1.257 . S
C1686 H1661 0.930 . S
C1686 C1689 1.388 . S
C1686 C1691 1.418 . S
C1687 H1682 0.930 . S
C1687 C1690 1.404 . S
C1687 C1691 1.353 . S
N1688 Co1653 2.145 . S
N1688 C1689 1.397 . S
N1688 C1690 1.334 . S
C1689 H1670 0.929 . S
C1689 C1686 1.388 . S
C1689 N1688 1.397 . S
C1690 H1671 0.929 . S
C1690 C1687 1.404 . S
C1690 N1688 1.334 . S
C1691 H1683 0.930 . S
C1691 C1686 1.418 . S
C1691 C1687 1.353 . S
C1692 H1662 0.930 . S
C1692 N1693 1.330 . S
C1692 C1694 1.446 . S
N1693 Co1652 2.151 . S
N1693 C1692 1.330 . S
N1693 C1697 1.418 . S
C1694 H1673 0.929 . S
C1694 C1692 1.446 . S
C1694 C1695 1.332 . S
C1695 H1675 0.931 . S
C1695 C1694 1.332 . S
C1695 C1696 1.267 . S
C1696 H1664 0.929 . S
C1696 C1695 1.267 . S
C1696 C1697 1.251 . S
C1697 H1667 0.929 . S
C1697 N1693 1.418 . S
C1697 C1696 1.251 . S
C1698 H1665 0.930 . S
C1698 C1700 1.406 . S
C1698 C1703 1.261 . S
C1699 H1666 0.930 . S
C1699 N1701 1.325 . S
C1699 C1702 1.357 . S
C1700 H1668 0.928 . S
C1700 C1698 1.406 . S
C1700 N1701 1.261 . S
N1701 Co1652 2.214 . S
N1701 C1699 1.325 . S
N1701 C1700 1.261 . S
C1702 H1672 0.931 . S
C1702 C1699 1.357 . S
C1702 C1703 1.312 . S
C1703 H1674 0.930 . S
C1703 C1698 1.261 . S
C1703 C1702 1.312 . S
C1704 O1676 1.214 . S
C1704 O1684 1.234 . S
C1705 H1677 0.929 . S
C1705 C1708 1.391 . S
C1705 C1710 1.391 . S
C1706 H1678 0.929 . S
C1706 C1707 1.390 . S
C1706 N1709 1.391 . S
C1707 H1679 0.930 . S
C1707 C1706 1.390 . S
C1707 C1708 1.392 . S
C1708 H1680 0.929 . S
C1708 C1705 1.391 . S
C1708 C1707 1.392 . S
N1709 Co1653 2.257 . S
N1709 C1706 1.391 . S
N1709 C1710 1.388 . S
C1710 H1681 0.930 . S
C1710 C1705 1.391 . S
C1710 N1709 1.388 . S
Co1711 O1713 2.143 . S
Co1711 O1719 2.074 . S
Co1711 O1722 2.093 . S
Co1711 O1735 2.097 . S
Co1711 N1752 2.151 . S
Co1711 N1760 2.214 . S
Co1712 O1713 2.160 . S
Co1712 O1718 2.058 . S
Co1712 O1728 2.057 . S
Co1712 O1743 2.037 . S
Co1712 N1747 2.145 . S
Co1712 N1768 2.257 . S
O1713 Co1711 2.143 . S
O1713 Co1712 2.160 . S
C1714 O1715 1.278 . S
C1714 O1722 1.224 . S
O1715 C1714 1.278 . S
C1716 O1717 1.245 . S
C1716 O1728 1.232 . S
O1717 C1716 1.245 . S
O1718 Co1712 2.058 . S
O1718 C1744 1.269 . S
O1719 Co1711 2.074 . S
O1719 C1744 1.257 . S
H1720 C1745 0.930 . S
H1721 C1751 0.930 . S
O1722 Co1711 2.093 . S
O1722 C1714 1.224 . S
H1723 C1755 0.929 . S
H1724 C1757 0.930 . S
H1725 C1758 0.930 . S
H1726 C1756 0.929 . S
H1727 C1759 0.928 . S
O1728 Co1712 2.057 . S
O1728 C1716 1.232 . S
H1729 C1748 0.929 . S
H1730 C1749 0.929 . S
H1731 C1761 0.931 . S
H1732 C1753 0.929 . S
H1733 C1762 0.930 . S
H1734 C1754 0.931 . S
O1735 Co1711 2.097 . S
O1735 C1763 1.214 . S
H1736 C1764 0.929 . S
H1737 C1765 0.929 . S
H1738 C1766 0.930 . S
H1739 C1767 0.929 . S
H1740 C1769 0.930 . S
H1741 C1746 0.930 . S
H1742 C1750 0.930 . S
O1743 Co1712 2.037 . S
O1743 C1763 1.234 . S
C1744 O1718 1.269 . S
C1744 O1719 1.257 . S
C1745 H1720 0.930 . S
C1745 C1748 1.388 . S
C1745 C1750 1.418 . S
C1746 H1741 0.930 . S
C1746 C1749 1.404 . S
C1746 C1750 1.353 . S
N1747 Co1712 2.145 . S
N1747 C1748 1.397 . S
N1747 C1749 1.334 . S
C1748 H1729 0.929 . S
C1748 C1745 1.388 . S
C1748 N1747 1.397 . S
C1749 H1730 0.929 . S
C1749 C1746 1.404 . S
C1749 N1747 1.334 . S
C1750 H1742 0.930 . S
C1750 C1745 1.418 . S
C1750 C1746 1.353 . S
C1751 H1721 0.930 . S
C1751 N1752 1.330 . S
C1751 C1753 1.446 . S
N1752 Co1711 2.151 . S
N1752 C1751 1.330 . S
N1752 C1756 1.418 . S
C1753 H1732 0.929 . S
C1753 C1751 1.446 . S
C1753 C1754 1.332 . S
C1754 H1734 0.931 . S
C1754 C1753 1.332 . S
C1754 C1755 1.267 . S
C1755 H1723 0.929 . S
C1755 C1754 1.267 . S
C1755 C1756 1.251 . S
C1756 H1726 0.929 . S
C1756 N1752 1.418 . S
C1756 C1755 1.251 . S
C1757 H1724 0.930 . S
C1757 C1759 1.406 . S
C1757 C1762 1.261 . S
C1758 H1725 0.930 . S
C1758 N1760 1.325 . S
C1758 C1761 1.357 . S
C1759 H1727 0.928 . S
C1759 C1757 1.406 . S
C1759 N1760 1.261 . S
N1760 Co1711 2.214 . S
N1760 C1758 1.325 . S
N1760 C1759 1.261 . S
C1761 H1731 0.931 . S
C1761 C1758 1.357 . S
C1761 C1762 1.312 . S
C1762 H1733 0.930 . S
C1762 C1757 1.261 . S
C1762 C1761 1.312 . S
C1763 O1735 1.214 . S
C1763 O1743 1.234 . S
C1764 H1736 0.929 . S
C1764 C1767 1.391 . S
C1764 C1769 1.391 . S
C1765 H1737 0.929 . S
C1765 C1766 1.390 . S
C1765 N1768 1.391 . S
C1766 H1738 0.930 . S
C1766 C1765 1.390 . S
C1766 C1767 1.392 . S
C1767 H1739 0.929 . S
C1767 C1764 1.391 . S
C1767 C1766 1.392 . S
N1768 Co1712 2.257 . S
N1768 C1765 1.391 . S
N1768 C1769 1.388 . S
C1769 H1740 0.930 . S
C1769 C1764 1.391 . S
C1769 N1768 1.388 . S
Co1770 O1772 2.143 . S
Co1770 O1778 2.074 . S
Co1770 O1781 2.093 . S
Co1770 O1794 2.097 . S
Co1770 N1811 2.151 . S
Co1770 N1819 2.214 . S
Co1771 O1772 2.160 . S
Co1771 O1777 2.058 . S
Co1771 O1787 2.057 . S
Co1771 O1802 2.037 . S
Co1771 N1806 2.145 . S
Co1771 N1827 2.257 . S
O1772 Co1770 2.143 . S
O1772 Co1771 2.160 . S
C1773 O1774 1.278 . S
C1773 O1781 1.224 . S
O1774 C1773 1.278 . S
C1775 O1776 1.245 . S
C1775 O1787 1.232 . S
O1776 C1775 1.245 . S
O1777 Co1771 2.058 . S
O1777 C1803 1.269 . S
O1778 Co1770 2.074 . S
O1778 C1803 1.257 . S
H1779 C1804 0.930 . S
H1780 C1810 0.930 . S
O1781 Co1770 2.093 . S
O1781 C1773 1.224 . S
H1782 C1814 0.929 . S
H1783 C1816 0.930 . S
H1784 C1817 0.930 . S
H1785 C1815 0.929 . S
H1786 C1818 0.928 . S
O1787 Co1771 2.057 . S
O1787 C1775 1.232 . S
H1788 C1807 0.929 . S
H1789 C1808 0.929 . S
H1790 C1820 0.931 . S
H1791 C1812 0.929 . S
H1792 C1821 0.930 . S
H1793 C1813 0.931 . S
O1794 Co1770 2.097 . S
O1794 C1822 1.214 . S
H1795 C1823 0.929 . S
H1796 C1824 0.929 . S
H1797 C1825 0.930 . S
H1798 C1826 0.929 . S
H1799 C1828 0.930 . S
H1800 C1805 0.930 . S
H1801 C1809 0.930 . S
O1802 Co1771 2.037 . S
O1802 C1822 1.234 . S
C1803 O1777 1.269 . S
C1803 O1778 1.257 . S
C1804 H1779 0.930 . S
C1804 C1807 1.388 . S
C1804 C1809 1.418 . S
C1805 H1800 0.930 . S
C1805 C1808 1.404 . S
C1805 C1809 1.353 . S
N1806 Co1771 2.145 . S
N1806 C1807 1.397 . S
N1806 C1808 1.334 . S
C1807 H1788 0.929 . S
C1807 C1804 1.388 . S
C1807 N1806 1.397 . S
C1808 H1789 0.929 . S
C1808 C1805 1.404 . S
C1808 N1806 1.334 . S
C1809 H1801 0.930 . S
C1809 C1804 1.418 . S
C1809 C1805 1.353 . S
C1810 H1780 0.930 . S
C1810 N1811 1.330 . S
C1810 C1812 1.446 . S
N1811 Co1770 2.151 . S
N1811 C1810 1.330 . S
N1811 C1815 1.418 . S
C1812 H1791 0.929 . S
C1812 C1810 1.446 . S
C1812 C1813 1.332 . S
C1813 H1793 0.931 . S
C1813 C1812 1.332 . S
C1813 C1814 1.267 . S
C1814 H1782 0.929 . S
C1814 C1813 1.267 . S
C1814 C1815 1.251 . S
C1815 H1785 0.929 . S
C1815 N1811 1.418 . S
C1815 C1814 1.251 . S
C1816 H1783 0.930 . S
C1816 C1818 1.406 . S
C1816 C1821 1.261 . S
C1817 H1784 0.930 . S
C1817 N1819 1.325 . S
C1817 C1820 1.357 . S
C1818 H1786 0.928 . S
C1818 C1816 1.406 . S
C1818 N1819 1.261 . S
N1819 Co1770 2.214 . S
N1819 C1817 1.325 . S
N1819 C1818 1.261 . S
C1820 H1790 0.931 . S
C1820 C1817 1.357 . S
C1820 C1821 1.312 . S
C1821 H1792 0.930 . S
C1821 C1816 1.261 . S
C1821 C1820 1.312 . S
C1822 O1794 1.214 . S
C1822 O1802 1.234 . S
C1823 H1795 0.929 . S
C1823 C1826 1.391 . S
C1823 C1828 1.391 . S
C1824 H1796 0.929 . S
C1824 C1825 1.390 . S
C1824 N1827 1.391 . S
C1825 H1797 0.930 . S
C1825 C1824 1.390 . S
C1825 C1826 1.392 . S
C1826 H1798 0.929 . S
C1826 C1823 1.391 . S
C1826 C1825 1.392 . S
N1827 Co1771 2.257 . S
N1827 C1824 1.391 . S
N1827 C1828 1.388 . S
C1828 H1799 0.930 . S
C1828 C1823 1.391 . S
C1828 N1827 1.388 . S
Co1829 O1831 2.143 . S
Co1829 O1837 2.074 . S
Co1829 O1840 2.093 . S
Co1829 O1853 2.097 . S
Co1829 N1870 2.151 . S
Co1829 N1878 2.214 . S
Co1830 O1831 2.160 . S
Co1830 O1836 2.058 . S
Co1830 O1846 2.057 . S
Co1830 O1861 2.037 . S
Co1830 N1865 2.145 . S
Co1830 N1886 2.257 . S
O1831 Co1829 2.143 . S
O1831 Co1830 2.160 . S
C1832 O1833 1.278 . S
C1832 O1840 1.224 . S
O1833 C1832 1.278 . S
C1834 O1835 1.245 . S
C1834 O1846 1.232 . S
O1835 C1834 1.245 . S
O1836 Co1830 2.058 . S
O1836 C1862 1.269 . S
O1837 Co1829 2.074 . S
O1837 C1862 1.257 . S
H1838 C1863 0.930 . S
H1839 C1869 0.930 . S
O1840 Co1829 2.093 . S
O1840 C1832 1.224 . S
H1841 C1873 0.929 . S
H1842 C1875 0.930 . S
H1843 C1876 0.930 . S
H1844 C1874 0.929 . S
H1845 C1877 0.928 . S
O1846 Co1830 2.057 . S
O1846 C1834 1.232 . S
H1847 C1866 0.929 . S
H1848 C1867 0.929 . S
H1849 C1879 0.931 . S
H1850 C1871 0.929 . S
H1851 C1880 0.930 . S
H1852 C1872 0.931 . S
O1853 Co1829 2.097 . S
O1853 C1881 1.214 . S
H1854 C1882 0.929 . S
H1855 C1883 0.929 . S
H1856 C1884 0.930 . S
H1857 C1885 0.929 . S
H1858 C1887 0.930 . S
H1859 C1864 0.930 . S
H1860 C1868 0.930 . S
O1861 Co1830 2.037 . S
O1861 C1881 1.234 . S
C1862 O1836 1.269 . S
C1862 O1837 1.257 . S
C1863 H1838 0.930 . S
C1863 C1866 1.388 . S
C1863 C1868 1.418 . S
C1864 H1859 0.930 . S
C1864 C1867 1.404 . S
C1864 C1868 1.353 . S
N1865 Co1830 2.145 . S
N1865 C1866 1.397 . S
N1865 C1867 1.334 . S
C1866 H1847 0.929 . S
C1866 C1863 1.388 . S
C1866 N1865 1.397 . S
C1867 H1848 0.929 . S
C1867 C1864 1.404 . S
C1867 N1865 1.334 . S
C1868 H1860 0.930 . S
C1868 C1863 1.418 . S
C1868 C1864 1.353 . S
C1869 H1839 0.930 . S
C1869 N1870 1.330 . S
C1869 C1871 1.446 . S
N1870 Co1829 2.151 . S
N1870 C1869 1.330 . S
N1870 C1874 1.418 . S
C1871 H1850 0.929 . S
C1871 C1869 1.446 . S
C1871 C1872 1.332 . S
C1872 H1852 0.931 . S
C1872 C1871 1.332 . S
C1872 C1873 1.267 . S
C1873 H1841 0.929 . S
C1873 C1872 1.267 . S
C1873 C1874 1.251 . S
C1874 H1844 0.929 . S
C1874 N1870 1.418 . S
C1874 C1873 1.251 . S
C1875 H1842 0.930 . S
C1875 C1877 1.406 . S
C1875 C1880 1.261 . S
C1876 H1843 0.930 . S
C1876 N1878 1.325 . S
C1876 C1879 1.357 . S
C1877 H1845 0.928 . S
C1877 C1875 1.406 . S
C1877 N1878 1.261 . S
N1878 Co1829 2.214 . S
N1878 C1876 1.325 . S
N1878 C1877 1.261 . S
C1879 H1849 0.931 . S
C1879 C1876 1.357 . S
C1879 C1880 1.312 . S
C1880 H1851 0.930 . S
C1880 C1875 1.261 . S
C1880 C1879 1.312 . S
C1881 O1853 1.214 . S
C1881 O1861 1.234 . S
C1882 H1854 0.929 . S
C1882 C1885 1.391 . S
C1882 C1887 1.391 . S
C1883 H1855 0.929 . S
C1883 C1884 1.390 . S
C1883 N1886 1.391 . S
C1884 H1856 0.930 . S
C1884 C1883 1.390 . S
C1884 C1885 1.392 . S
C1885 H1857 0.929 . S
C1885 C1882 1.391 . S
C1885 C1884 1.392 . S
N1886 Co1830 2.257 . S
N1886 C1883 1.391 . S
N1886 C1887 1.388 . S
C1887 H1858 0.930 . S
C1887 C1882 1.391 . S
C1887 N1886 1.388 . S
H1888 C1896 0.950 . S
H1889 C1901 0.950 . S
H1890 C1898 0.950 . S
H1891 C1900 0.950 . S
H1892 C1902 0.950 . S
H1893 C1904 0.950 . S
H1894 C1906 0.950 . S
H1895 C1907 0.950 . S
C1896 H1888 0.950 . S
C1896 C1897 1.386 . S
C1896 C1898 1.391 . S
C1897 C1896 1.386 . S
C1897 C1901 1.393 . S
C1898 H1890 0.950 . S
C1898 C1896 1.391 . S
C1898 C1899 1.400 . S
C1899 C1898 1.400 . S
C1899 C1900 1.398 . S
C1899 C1905 1.491 . S
C1900 H1891 0.950 . S
C1900 C1899 1.398 . S
C1900 C1901 1.391 . S
C1901 H1889 0.950 . S
C1901 C1897 1.393 . S
C1901 C1900 1.391 . S
C1902 H1892 0.950 . S
C1902 C1903 1.386 . S
C1902 C1904 1.391 . S
C1903 C1902 1.386 . S
C1903 C1907 1.393 . S
C1904 H1893 0.950 . S
C1904 C1902 1.391 . S
C1904 C1905 1.400 . S
C1905 C1899 1.491 . S
C1905 C1904 1.400 . S
C1905 C1906 1.398 . S
C1906 H1894 0.950 . S
C1906 C1905 1.398 . S
C1906 C1907 1.391 . S
C1907 H1895 0.950 . S
C1907 C1903 1.393 . S
C1907 C1906 1.391 . S
H1908 C1916 0.950 . S
H1909 C1921 0.950 . S
H1910 C1918 0.950 . S
H1911 C1920 0.950 . S
H1912 C1922 0.950 . S
H1913 C1924 0.950 . S
H1914 C1926 0.950 . S
H1915 C1927 0.950 . S
C1916 H1908 0.950 . S
C1916 C1917 1.386 . S
C1916 C1918 1.391 . S
C1917 C1916 1.386 . S
C1917 C1921 1.393 . S
C1918 H1910 0.950 . S
C1918 C1916 1.391 . S
C1918 C1919 1.400 . S
C1919 C1918 1.400 . S
C1919 C1920 1.398 . S
C1919 C1925 1.491 . S
C1920 H1911 0.950 . S
C1920 C1919 1.398 . S
C1920 C1921 1.391 . S
C1921 H1909 0.950 . S
C1921 C1917 1.393 . S
C1921 C1920 1.391 . S
C1922 H1912 0.950 . S
C1922 C1923 1.386 . S
C1922 C1924 1.391 . S
C1923 C1922 1.386 . S
C1923 C1927 1.393 . S
C1924 H1913 0.950 . S
C1924 C1922 1.391 . S
C1924 C1925 1.400 . S
C1925 C1919 1.491 . S
C1925 C1924 1.400 . S
C1925 C1926 1.398 . S
C1926 H1914 0.950 . S
C1926 C1925 1.398 . S
C1926 C1927 1.391 . S
C1927 H1915 0.950 . S
C1927 C1923 1.393 . S
C1927 C1926 1.391 . S
H1928 C1936 0.950 . S
H1929 C1941 0.950 . S
H1930 C1938 0.950 . S
H1931 C1940 0.950 . S
H1932 C1942 0.950 . S
H1933 C1944 0.950 . S
H1934 C1946 0.950 . S
H1935 C1947 0.950 . S
C1936 H1928 0.950 . S
C1936 C1937 1.386 . S
C1936 C1938 1.391 . S
C1937 C1936 1.386 . S
C1937 C1941 1.393 . S
C1938 H1930 0.950 . S
C1938 C1936 1.391 . S
C1938 C1939 1.400 . S
C1939 C1938 1.400 . S
C1939 C1940 1.398 . S
C1939 C1945 1.491 . S
C1940 H1931 0.950 . S
C1940 C1939 1.398 . S
C1940 C1941 1.391 . S
C1941 H1929 0.950 . S
C1941 C1937 1.393 . S
C1941 C1940 1.391 . S
C1942 H1932 0.950 . S
C1942 C1943 1.386 . S
C1942 C1944 1.391 . S
C1943 C1942 1.386 . S
C1943 C1947 1.393 . S
C1944 H1933 0.950 . S
C1944 C1942 1.391 . S
C1944 C1945 1.400 . S
C1945 C1939 1.491 . S
C1945 C1944 1.400 . S
C1945 C1946 1.398 . S
C1946 H1934 0.950 . S
C1946 C1945 1.398 . S
C1946 C1947 1.391 . S
C1947 H1935 0.950 . S
C1947 C1943 1.393 . S
C1947 C1946 1.391 . S
H1948 C1956 0.950 . S
H1949 C1961 0.950 . S
H1950 C1958 0.950 . S
H1951 C1960 0.950 . S
H1952 C1962 0.950 . S
H1953 C1964 0.950 . S
H1954 C1966 0.950 . S
H1955 C1967 0.950 . S
C1956 H1948 0.950 . S
C1956 C1957 1.386 . S
C1956 C1958 1.391 . S
C1957 C1956 1.386 . S
C1957 C1961 1.393 . S
C1958 H1950 0.950 . S
C1958 C1956 1.391 . S
C1958 C1959 1.400 . S
C1959 C1958 1.400 . S
C1959 C1960 1.398 . S
C1959 C1965 1.491 . S
C1960 H1951 0.950 . S
C1960 C1959 1.398 . S
C1960 C1961 1.391 . S
C1961 H1949 0.950 . S
C1961 C1957 1.393 . S
C1961 C1960 1.391 . S
C1962 H1952 0.950 . S
C1962 C1963 1.386 . S
C1962 C1964 1.391 . S
C1963 C1962 1.386 . S
C1963 C1967 1.393 . S
C1964 H1953 0.950 . S
C1964 C1962 1.391 . S
C1964 C1965 1.400 . S
C1965 C1959 1.491 . S
C1965 C1964 1.400 . S
C1965 C1966 1.398 . S
C1966 H1954 0.950 . S
C1966 C1965 1.398 . S
C1966 C1967 1.391 . S
C1967 H1955 0.950 . S
C1967 C1963 1.393 . S
C1967 C1966 1.391 . S
H1968 C1976 0.950 . S
H1969 C1981 0.950 . S
H1970 C1978 0.950 . S
H1971 C1980 0.950 . S
H1972 C1982 0.950 . S
H1973 C1984 0.950 . S
H1974 C1986 0.950 . S
H1975 C1987 0.950 . S
C1976 H1968 0.950 . S
C1976 C1977 1.386 . S
C1976 C1978 1.391 . S
C1977 C1976 1.386 . S
C1977 C1981 1.393 . S
C1978 H1970 0.950 . S
C1978 C1976 1.391 . S
C1978 C1979 1.400 . S
C1979 C1978 1.400 . S
C1979 C1980 1.398 . S
C1979 C1985 1.491 . S
C1980 H1971 0.950 . S
C1980 C1979 1.398 . S
C1980 C1981 1.391 . S
C1981 H1969 0.950 . S
C1981 C1977 1.393 . S
C1981 C1980 1.391 . S
C1982 H1972 0.950 . S
C1982 C1983 1.386 . S
C1982 C1984 1.391 . S
C1983 C1982 1.386 . S
C1983 C1987 1.393 . S
C1984 H1973 0.950 . S
C1984 C1982 1.391 . S
C1984 C1985 1.400 . S
C1985 C1979 1.491 . S
C1985 C1984 1.400 . S
C1985 C1986 1.398 . S
C1986 H1974 0.950 . S
C1986 C1985 1.398 . S
C1986 C1987 1.391 . S
C1987 H1975 0.950 . S
C1987 C1983 1.393 . S
C1987 C1986 1.391 . S
H1988 C1996 0.950 . S
H1989 C2001 0.950 . S
H1990 C1998 0.950 . S
H1991 C2000 0.950 . S
H1992 C2002 0.950 . S
H1993 C2004 0.950 . S
H1994 C2006 0.950 . S
H1995 C2007 0.950 . S
C1996 H1988 0.950 . S
C1996 C1997 1.386 . S
C1996 C1998 1.391 . S
C1997 C1996 1.386 . S
C1997 C2001 1.393 . S
C1998 H1990 0.950 . S
C1998 C1996 1.391 . S
C1998 C1999 1.400 . S
C1999 C1998 1.400 . S
C1999 C2000 1.398 . S
C1999 C2005 1.491 . S
C2000 H1991 0.950 . S
C2000 C1999 1.398 . S
C2000 C2001 1.391 . S
C2001 H1989 0.950 . S
C2001 C1997 1.393 . S
C2001 C2000 1.391 . S
C2002 H1992 0.950 . S
C2002 C2003 1.386 . S
C2002 C2004 1.391 . S
C2003 C2002 1.386 . S
C2003 C2007 1.393 . S
C2004 H1993 0.950 . S
C2004 C2002 1.391 . S
C2004 C2005 1.400 . S
C2005 C1999 1.491 . S
C2005 C2004 1.400 . S
C2005 C2006 1.398 . S
C2006 H1994 0.950 . S
C2006 C2005 1.398 . S
C2006 C2007 1.391 . S
C2007 H1995 0.950 . S
C2007 C2003 1.393 . S
C2007 C2006 1.391 . S
H2008 C2016 0.950 . S
H2009 C2021 0.950 . S
H2010 C2018 0.950 . S
H2011 C2020 0.950 . S
H2012 C2022 0.950 . S
H2013 C2024 0.950 . S
H2014 C2026 0.950 . S
H2015 C2027 0.950 . S
C2016 H2008 0.950 . S
C2016 C2017 1.386 . S
C2016 C2018 1.391 . S
C2017 C2016 1.386 . S
C2017 C2021 1.393 . S
C2018 H2010 0.950 . S
C2018 C2016 1.391 . S
C2018 C2019 1.400 . S
C2019 C2018 1.400 . S
C2019 C2020 1.398 . S
C2019 C2025 1.491 . S
C2020 H2011 0.950 . S
C2020 C2019 1.398 . S
C2020 C2021 1.391 . S
C2021 H2009 0.950 . S
C2021 C2017 1.393 . S
C2021 C2020 1.391 . S
C2022 H2012 0.950 . S
C2022 C2023 1.386 . S
C2022 C2024 1.391 . S
C2023 C2022 1.386 . S
C2023 C2027 1.393 . S
C2024 H2013 0.950 . S
C2024 C2022 1.391 . S
C2024 C2025 1.400 . S
C2025 C2019 1.491 . S
C2025 C2024 1.400 . S
C2025 C2026 1.398 . S
C2026 H2014 0.950 . S
C2026 C2025 1.398 . S
C2026 C2027 1.391 . S
C2027 H2015 0.950 . S
C2027 C2023 1.393 . S
C2027 C2026 1.391 . S
H2028 C2036 0.950 . S
H2029 C2041 0.950 . S
H2030 C2038 0.950 . S
H2031 C2040 0.950 . S
H2032 C2042 0.950 . S
H2033 C2044 0.950 . S
H2034 C2046 0.950 . S
H2035 C2047 0.950 . S
C2036 H2028 0.950 . S
C2036 C2037 1.386 . S
C2036 C2038 1.391 . S
C2037 C2036 1.386 . S
C2037 C2041 1.393 . S
C2038 H2030 0.950 . S
C2038 C2036 1.391 . S
C2038 C2039 1.400 . S
C2039 C2038 1.400 . S
C2039 C2040 1.398 . S
C2039 C2045 1.491 . S
C2040 H2031 0.950 . S
C2040 C2039 1.398 . S
C2040 C2041 1.391 . S
C2041 H2029 0.950 . S
C2041 C2037 1.393 . S
C2041 C2040 1.391 . S
C2042 H2032 0.950 . S
C2042 C2043 1.386 . S
C2042 C2044 1.391 . S
C2043 C2042 1.386 . S
C2043 C2047 1.393 . S
C2044 H2033 0.950 . S
C2044 C2042 1.391 . S
C2044 C2045 1.400 . S
C2045 C2039 1.491 . S
C2045 C2044 1.400 . S
C2045 C2046 1.398 . S
C2046 H2034 0.950 . S
C2046 C2045 1.398 . S
C2046 C2047 1.391 . S
C2047 H2035 0.950 . S
C2047 C2043 1.393 . S
C2047 C2046 1.391 . S
H2048 C2056 0.950 . S
H2049 C2061 0.950 . S
H2050 C2058 0.950 . S
H2051 C2060 0.950 . S
H2052 C2062 0.950 . S
H2053 C2064 0.950 . S
H2054 C2066 0.950 . S
H2055 C2067 0.950 . S
C2056 H2048 0.950 . S
C2056 C2057 1.386 . S
C2056 C2058 1.391 . S
C2057 C2056 1.386 . S
C2057 C2061 1.393 . S
C2058 H2050 0.950 . S
C2058 C2056 1.391 . S
C2058 C2059 1.400 . S
C2059 C2058 1.400 . S
C2059 C2060 1.398 . S
C2059 C2065 1.491 . S
C2060 H2051 0.950 . S
C2060 C2059 1.398 . S
C2060 C2061 1.391 . S
C2061 H2049 0.950 . S
C2061 C2057 1.393 . S
C2061 C2060 1.391 . S
C2062 H2052 0.950 . S
C2062 C2063 1.386 . S
C2062 C2064 1.391 . S
C2063 C2062 1.386 . S
C2063 C2067 1.393 . S
C2064 H2053 0.950 . S
C2064 C2062 1.391 . S
C2064 C2065 1.400 . S
C2065 C2059 1.491 . S
C2065 C2064 1.400 . S
C2065 C2066 1.398 . S
C2066 H2054 0.950 . S
C2066 C2065 1.398 . S
C2066 C2067 1.391 . S
C2067 H2055 0.950 . S
C2067 C2063 1.393 . S
C2067 C2066 1.391 . S
H2068 C2076 0.950 . S
H2069 C2081 0.950 . S
H2070 C2078 0.950 . S
H2071 C2080 0.950 . S
H2072 C2082 0.950 . S
H2073 C2084 0.950 . S
H2074 C2086 0.950 . S
H2075 C2087 0.950 . S
C2076 H2068 0.950 . S
C2076 C2077 1.386 . S
C2076 C2078 1.391 . S
C2077 C2076 1.386 . S
C2077 C2081 1.393 . S
C2078 H2070 0.950 . S
C2078 C2076 1.391 . S
C2078 C2079 1.400 . S
C2079 C2078 1.400 . S
C2079 C2080 1.398 . S
C2079 C2085 1.491 . S
C2080 H2071 0.950 . S
C2080 C2079 1.398 . S
C2080 C2081 1.391 . S
C2081 H2069 0.950 . S
C2081 C2077 1.393 . S
C2081 C2080 1.391 . S
C2082 H2072 0.950 . S
C2082 C2083 1.386 . S
C2082 C2084 1.391 . S
C2083 C2082 1.386 . S
C2083 C2087 1.393 . S
C2084 H2073 0.950 . S
C2084 C2082 1.391 . S
C2084 C2085 1.400 . S
C2085 C2079 1.491 . S
C2085 C2084 1.400 . S
C2085 C2086 1.398 . S
C2086 H2074 0.950 . S
C2086 C2085 1.398 . S
C2086 C2087 1.391 . S
C2087 H2075 0.950 . S
C2087 C2083 1.393 . S
C2087 C2086 1.391 . S
H2088 C2096 0.950 . S
H2089 C2101 0.950 . S
H2090 C2098 0.950 . S
H2091 C2100 0.950 . S
H2092 C2102 0.950 . S
H2093 C2104 0.950 . S
H2094 C2106 0.950 . S
H2095 C2107 0.950 . S
C2096 H2088 0.950 . S
C2096 C2097 1.386 . S
C2096 C2098 1.391 . S
C2097 C2096 1.386 . S
C2097 C2101 1.393 . S
C2098 H2090 0.950 . S
C2098 C2096 1.391 . S
C2098 C2099 1.400 . S
C2099 C2098 1.400 . S
C2099 C2100 1.398 . S
C2099 C2105 1.491 . S
C2100 H2091 0.950 . S
C2100 C2099 1.398 . S
C2100 C2101 1.391 . S
C2101 H2089 0.950 . S
C2101 C2097 1.393 . S
C2101 C2100 1.391 . S
C2102 H2092 0.950 . S
C2102 C2103 1.386 . S
C2102 C2104 1.391 . S
C2103 C2102 1.386 . S
C2103 C2107 1.393 . S
C2104 H2093 0.950 . S
C2104 C2102 1.391 . S
C2104 C2105 1.400 . S
C2105 C2099 1.491 . S
C2105 C2104 1.400 . S
C2105 C2106 1.398 . S
C2106 H2094 0.950 . S
C2106 C2105 1.398 . S
C2106 C2107 1.391 . S
C2107 H2095 0.950 . S
C2107 C2103 1.393 . S
C2107 C2106 1.391 . S
H2108 C2116 0.950 . S
H2109 C2121 0.950 . S
H2110 C2118 0.950 . S
H2111 C2120 0.950 . S
H2112 C2122 0.950 . S
H2113 C2124 0.950 . S
H2114 C2126 0.950 . S
H2115 C2127 0.950 . S
C2116 H2108 0.950 . S
C2116 C2117 1.386 . S
C2116 C2118 1.391 . S
C2117 C2116 1.386 . S
C2117 C2121 1.393 . S
C2118 H2110 0.950 . S
C2118 C2116 1.391 . S
C2118 C2119 1.400 . S
C2119 C2118 1.400 . S
C2119 C2120 1.398 . S
C2119 C2125 1.491 . S
C2120 H2111 0.950 . S
C2120 C2119 1.398 . S
C2120 C2121 1.391 . S
C2121 H2109 0.950 . S
C2121 C2117 1.393 . S
C2121 C2120 1.391 . S
C2122 H2112 0.950 . S
C2122 C2123 1.386 . S
C2122 C2124 1.391 . S
C2123 C2122 1.386 . S
C2123 C2127 1.393 . S
C2124 H2113 0.950 . S
C2124 C2122 1.391 . S
C2124 C2125 1.400 . S
C2125 C2119 1.491 . S
C2125 C2124 1.400 . S
C2125 C2126 1.398 . S
C2126 H2114 0.950 . S
C2126 C2125 1.398 . S
C2126 C2127 1.391 . S
C2127 H2115 0.950 . S
C2127 C2123 1.393 . S
C2127 C2126 1.391 . S
H2128 C2136 0.950 . S
H2129 C2141 0.950 . S
H2130 C2138 0.950 . S
H2131 C2140 0.950 . S
H2132 C2142 0.950 . S
H2133 C2144 0.950 . S
H2134 C2146 0.950 . S
H2135 C2147 0.950 . S
C2136 H2128 0.950 . S
C2136 C2137 1.386 . S
C2136 C2138 1.391 . S
C2137 C2136 1.386 . S
C2137 C2141 1.393 . S
C2138 H2130 0.950 . S
C2138 C2136 1.391 . S
C2138 C2139 1.400 . S
C2139 C2138 1.400 . S
C2139 C2140 1.398 . S
C2139 C2145 1.491 . S
C2140 H2131 0.950 . S
C2140 C2139 1.398 . S
C2140 C2141 1.391 . S
C2141 H2129 0.950 . S
C2141 C2137 1.393 . S
C2141 C2140 1.391 . S
C2142 H2132 0.950 . S
C2142 C2143 1.386 . S
C2142 C2144 1.391 . S
C2143 C2142 1.386 . S
C2143 C2147 1.393 . S
C2144 H2133 0.950 . S
C2144 C2142 1.391 . S
C2144 C2145 1.400 . S
C2145 C2139 1.491 . S
C2145 C2144 1.400 . S
C2145 C2146 1.398 . S
C2146 H2134 0.950 . S
C2146 C2145 1.398 . S
C2146 C2147 1.391 . S
C2147 H2135 0.950 . S
C2147 C2143 1.393 . S
C2147 C2146 1.391 . S
H2148 C2156 0.950 . S
H2149 C2161 0.950 . S
H2150 C2158 0.950 . S
H2151 C2160 0.950 . S
H2152 C2162 0.950 . S
H2153 C2164 0.950 . S
H2154 C2166 0.950 . S
H2155 C2167 0.950 . S
C2156 H2148 0.950 . S
C2156 C2157 1.386 . S
C2156 C2158 1.391 . S
C2157 C2156 1.386 . S
C2157 C2161 1.393 . S
C2158 H2150 0.950 . S
C2158 C2156 1.391 . S
C2158 C2159 1.400 . S
C2159 C2158 1.400 . S
C2159 C2160 1.398 . S
C2159 C2165 1.491 . S
C2160 H2151 0.950 . S
C2160 C2159 1.398 . S
C2160 C2161 1.391 . S
C2161 H2149 0.950 . S
C2161 C2157 1.393 . S
C2161 C2160 1.391 . S
C2162 H2152 0.950 . S
C2162 C2163 1.386 . S
C2162 C2164 1.391 . S
C2163 C2162 1.386 . S
C2163 C2167 1.393 . S
C2164 H2153 0.950 . S
C2164 C2162 1.391 . S
C2164 C2165 1.400 . S
C2165 C2159 1.491 . S
C2165 C2164 1.400 . S
C2165 C2166 1.398 . S
C2166 H2154 0.950 . S
C2166 C2165 1.398 . S
C2166 C2167 1.391 . S
C2167 H2155 0.950 . S
C2167 C2163 1.393 . S
C2167 C2166 1.391 . S
H2168 C2176 0.950 . S
H2169 C2181 0.950 . S
H2170 C2178 0.950 . S
H2171 C2180 0.950 . S
H2172 C2182 0.950 . S
H2173 C2184 0.950 . S
H2174 C2186 0.950 . S
H2175 C2187 0.950 . S
C2176 H2168 0.950 . S
C2176 C2177 1.386 . S
C2176 C2178 1.391 . S
C2177 C2176 1.386 . S
C2177 C2181 1.393 . S
C2178 H2170 0.950 . S
C2178 C2176 1.391 . S
C2178 C2179 1.400 . S
C2179 C2178 1.400 . S
C2179 C2180 1.398 . S
C2179 C2185 1.491 . S
C2180 H2171 0.950 . S
C2180 C2179 1.398 . S
C2180 C2181 1.391 . S
C2181 H2169 0.950 . S
C2181 C2177 1.393 . S
C2181 C2180 1.391 . S
C2182 H2172 0.950 . S
C2182 C2183 1.386 . S
C2182 C2184 1.391 . S
C2183 C2182 1.386 . S
C2183 C2187 1.393 . S
C2184 H2173 0.950 . S
C2184 C2182 1.391 . S
C2184 C2185 1.400 . S
C2185 C2179 1.491 . S
C2185 C2184 1.400 . S
C2185 C2186 1.398 . S
C2186 H2174 0.950 . S
C2186 C2185 1.398 . S
C2186 C2187 1.391 . S
C2187 H2175 0.950 . S
C2187 C2183 1.393 . S
C2187 C2186 1.391 . S
H2188 C2196 0.950 . S
H2189 C2201 0.950 . S
H2190 C2198 0.950 . S
H2191 C2200 0.950 . S
H2192 C2202 0.950 . S
H2193 C2204 0.950 . S
H2194 C2206 0.950 . S
H2195 C2207 0.950 . S
C2196 H2188 0.950 . S
C2196 C2197 1.386 . S
C2196 C2198 1.391 . S
C2197 C2196 1.386 . S
C2197 C2201 1.393 . S
C2198 H2190 0.950 . S
C2198 C2196 1.391 . S
C2198 C2199 1.400 . S
C2199 C2198 1.400 . S
C2199 C2200 1.398 . S
C2199 C2205 1.491 . S
C2200 H2191 0.950 . S
C2200 C2199 1.398 . S
C2200 C2201 1.391 . S
C2201 H2189 0.950 . S
C2201 C2197 1.393 . S
C2201 C2200 1.391 . S
C2202 H2192 0.950 . S
C2202 C2203 1.386 . S
C2202 C2204 1.391 . S
C2203 C2202 1.386 . S
C2203 C2207 1.393 . S
C2204 H2193 0.950 . S
C2204 C2202 1.391 . S
C2204 C2205 1.400 . S
C2205 C2199 1.491 . S
C2205 C2204 1.400 . S
C2205 C2206 1.398 . S
C2206 H2194 0.950 . S
C2206 C2205 1.398 . S
C2206 C2207 1.391 . S
C2207 H2195 0.950 . S
C2207 C2203 1.393 . S
C2207 C2206 1.391 . S
H2208 C2216 0.950 . S
H2209 C2221 0.950 . S
H2210 C2218 0.950 . S
H2211 C2220 0.950 . S
H2212 C2222 0.950 . S
H2213 C2224 0.950 . S
H2214 C2226 0.950 . S
H2215 C2227 0.950 . S
C2216 H2208 0.950 . S
C2216 C2217 1.386 . S
C2216 C2218 1.391 . S
C2217 C2216 1.386 . S
C2217 C2221 1.393 . S
C2218 H2210 0.950 . S
C2218 C2216 1.391 . S
C2218 C2219 1.400 . S
C2219 C2218 1.400 . S
C2219 C2220 1.398 . S
C2219 C2225 1.491 1_655 S
C2220 H2211 0.950 . S
C2220 C2219 1.398 . S
C2220 C2221 1.391 . S
C2221 H2209 0.950 . S
C2221 C2217 1.393 . S
C2221 C2220 1.391 . S
C2222 H2212 0.950 . S
C2222 C2223 1.386 . S
C2222 C2224 1.391 . S
C2223 C2222 1.386 . S
C2223 C2227 1.393 . S
C2224 H2213 0.950 . S
C2224 C2222 1.391 . S
C2224 C2225 1.400 . S
C2225 C2219 1.491 1_455 S
C2225 C2224 1.400 . S
C2225 C2226 1.398 . S
C2226 H2214 0.950 . S
C2226 C2225 1.398 . S
C2226 C2227 1.391 . S
C2227 H2215 0.950 . S
C2227 C2223 1.393 . S
C2227 C2226 1.391 . S
H2228 C2236 0.950 . S
H2229 C2241 0.950 . S
H2230 C2238 0.950 . S
H2231 C2240 0.950 . S
H2232 C2242 0.950 . S
H2233 C2244 0.950 . S
H2234 C2246 0.950 . S
H2235 C2247 0.950 . S
C2236 H2228 0.950 . S
C2236 C2237 1.386 . S
C2236 C2238 1.391 . S
C2237 C2236 1.386 . S
C2237 C2241 1.393 . S
C2238 H2230 0.950 . S
C2238 C2236 1.391 . S
C2238 C2239 1.400 . S
C2239 C2238 1.400 . S
C2239 C2240 1.398 . S
C2239 C2245 1.491 1_545 S
C2240 H2231 0.950 . S
C2240 C2239 1.398 . S
C2240 C2241 1.391 . S
C2241 H2229 0.950 . S
C2241 C2237 1.393 . S
C2241 C2240 1.391 . S
C2242 H2232 0.950 . S
C2242 C2243 1.386 . S
C2242 C2244 1.391 . S
C2243 C2242 1.386 . S
C2243 C2247 1.393 . S
C2244 H2233 0.950 . S
C2244 C2242 1.391 . S
C2244 C2245 1.400 . S
C2245 C2239 1.491 1_565 S
C2245 C2244 1.400 . S
C2245 C2246 1.398 . S
C2246 H2234 0.950 . S
C2246 C2245 1.398 . S
C2246 C2247 1.391 . S
C2247 H2235 0.950 . S
C2247 C2243 1.393 . S
C2247 C2246 1.391 . S
H2248 C2256 0.950 . S
H2249 C2261 0.950 . S
H2250 C2258 0.950 . S
H2251 C2260 0.950 . S
H2252 C2262 0.950 . S
H2253 C2264 0.950 . S
H2254 C2266 0.950 . S
H2255 C2267 0.950 . S
C2256 H2248 0.950 . S
C2256 C2257 1.386 . S
C2256 C2258 1.391 . S
C2257 C2256 1.386 . S
C2257 C2261 1.393 . S
C2258 H2250 0.950 . S
C2258 C2256 1.391 . S
C2258 C2259 1.400 . S
C2259 C2258 1.400 . S
C2259 C2260 1.398 . S
C2259 C2265 1.491 1_455 S
C2260 H2251 0.950 . S
C2260 C2259 1.398 . S
C2260 C2261 1.391 . S
C2261 H2249 0.950 . S
C2261 C2257 1.393 . S
C2261 C2260 1.391 . S
C2262 H2252 0.950 . S
C2262 C2263 1.386 . S
C2262 C2264 1.391 . S
C2263 C2262 1.386 . S
C2263 C2267 1.393 . S
C2264 H2253 0.950 . S
C2264 C2262 1.391 . S
C2264 C2265 1.400 . S
C2265 C2259 1.491 1_655 S
C2265 C2264 1.400 . S
C2265 C2266 1.398 . S
C2266 H2254 0.950 . S
C2266 C2265 1.398 . S
C2266 C2267 1.391 . S
C2267 H2255 0.950 . S
C2267 C2263 1.393 . S
C2267 C2266 1.391 . S
H2268 C2276 0.950 . S
H2269 C2281 0.950 . S
H2270 C2278 0.950 . S
H2271 C2280 0.950 . S
H2272 C2282 0.950 . S
H2273 C2284 0.950 . S
H2274 C2286 0.950 . S
H2275 C2287 0.950 . S
C2276 H2268 0.950 . S
C2276 C2277 1.386 . S
C2276 C2278 1.391 . S
C2277 C2276 1.386 . S
C2277 C2281 1.393 . S
C2278 H2270 0.950 . S
C2278 C2276 1.391 . S
C2278 C2279 1.400 . S
C2279 C2278 1.400 . S
C2279 C2280 1.398 . S
C2279 C2285 1.491 1_565 S
C2280 H2271 0.950 . S
C2280 C2279 1.398 . S
C2280 C2281 1.391 . S
C2281 H2269 0.950 . S
C2281 C2277 1.393 . S
C2281 C2280 1.391 . S
C2282 H2272 0.950 . S
C2282 C2283 1.386 . S
C2282 C2284 1.391 . S
C2283 C2282 1.386 . S
C2283 C2287 1.393 . S
C2284 H2273 0.950 . S
C2284 C2282 1.391 . S
C2284 C2285 1.400 . S
C2285 C2279 1.491 1_545 S
C2285 C2284 1.400 . S
C2285 C2286 1.398 . S
C2286 H2274 0.950 . S
C2286 C2285 1.398 . S
C2286 C2287 1.391 . S
C2287 H2275 0.950 . S
C2287 C2283 1.393 . S
C2287 C2286 1.391 . S
H2288 C2296 0.950 . S
H2289 C2301 0.950 . S
H2290 C2298 0.950 . S
H2291 C2300 0.950 . S
H2292 C2302 0.950 . S
H2293 C2304 0.950 . S
H2294 C2306 0.950 . S
H2295 C2307 0.950 . S
C2296 H2288 0.950 . S
C2296 C2297 1.386 . S
C2296 C2298 1.391 . S
C2297 C2296 1.386 . S
C2297 C2301 1.393 . S
C2298 H2290 0.950 . S
C2298 C2296 1.391 . S
C2298 C2299 1.400 . S
C2299 C2298 1.400 . S
C2299 C2300 1.398 . S
C2299 C2305 1.491 1_455 S
C2300 H2291 0.950 . S
C2300 C2299 1.398 . S
C2300 C2301 1.391 . S
C2301 H2289 0.950 . S
C2301 C2297 1.393 . S
C2301 C2300 1.391 . S
C2302 H2292 0.950 . S
C2302 C2303 1.386 . S
C2302 C2304 1.391 . S
C2303 C2302 1.386 . S
C2303 C2307 1.393 . S
C2304 H2293 0.950 . S
C2304 C2302 1.391 . S
C2304 C2305 1.400 . S
C2305 C2299 1.491 1_655 S
C2305 C2304 1.400 . S
C2305 C2306 1.398 . S
C2306 H2294 0.950 . S
C2306 C2305 1.398 . S
C2306 C2307 1.391 . S
C2307 H2295 0.950 . S
C2307 C2303 1.393 . S
C2307 C2306 1.391 . S
H2308 C2316 0.950 . S
H2309 C2321 0.950 . S
H2310 C2318 0.950 . S
H2311 C2320 0.950 . S
H2312 C2322 0.950 . S
H2313 C2324 0.950 . S
H2314 C2326 0.950 . S
H2315 C2327 0.950 . S
C2316 H2308 0.950 . S
C2316 C2317 1.386 . S
C2316 C2318 1.391 . S
C2317 C2316 1.386 . S
C2317 C2321 1.393 . S
C2318 H2310 0.950 . S
C2318 C2316 1.391 . S
C2318 C2319 1.400 . S
C2319 C2318 1.400 . S
C2319 C2320 1.398 . S
C2319 C2325 1.491 1_565 S
C2320 H2311 0.950 . S
C2320 C2319 1.398 . S
C2320 C2321 1.391 . S
C2321 H2309 0.950 . S
C2321 C2317 1.393 . S
C2321 C2320 1.391 . S
C2322 H2312 0.950 . S
C2322 C2323 1.386 . S
C2322 C2324 1.391 . S
C2323 C2322 1.386 . S
C2323 C2327 1.393 . S
C2324 H2313 0.950 . S
C2324 C2322 1.391 . S
C2324 C2325 1.400 . S
C2325 C2319 1.491 1_545 S
C2325 C2324 1.400 . S
C2325 C2326 1.398 . S
C2326 H2314 0.950 . S
C2326 C2325 1.398 . S
C2326 C2327 1.391 . S
C2327 H2315 0.950 . S
C2327 C2323 1.393 . S
C2327 C2326 1.391 . S
H2328 C2336 0.950 . S
H2329 C2341 0.950 . S
H2330 C2338 0.950 . S
H2331 C2340 0.950 . S
H2332 C2342 0.950 . S
H2333 C2344 0.950 . S
H2334 C2346 0.950 . S
H2335 C2347 0.950 . S
C2336 H2328 0.950 . S
C2336 C2337 1.386 . S
C2336 C2338 1.391 . S
C2337 C2336 1.386 . S
C2337 C2341 1.393 . S
C2338 H2330 0.950 . S
C2338 C2336 1.391 . S
C2338 C2339 1.400 . S
C2339 C2338 1.400 . S
C2339 C2340 1.398 . S
C2339 C2345 1.491 1_455 S
C2340 H2331 0.950 . S
C2340 C2339 1.398 . S
C2340 C2341 1.391 . S
C2341 H2329 0.950 . S
C2341 C2337 1.393 . S
C2341 C2340 1.391 . S
C2342 H2332 0.950 . S
C2342 C2343 1.386 . S
C2342 C2344 1.391 . S
C2343 C2342 1.386 . S
C2343 C2347 1.393 . S
C2344 H2333 0.950 . S
C2344 C2342 1.391 . S
C2344 C2345 1.400 . S
C2345 C2339 1.491 1_655 S
C2345 C2344 1.400 . S
C2345 C2346 1.398 . S
C2346 H2334 0.950 . S
C2346 C2345 1.398 . S
C2346 C2347 1.391 . S
C2347 H2335 0.950 . S
C2347 C2343 1.393 . S
C2347 C2346 1.391 . S
H2348 C2356 0.950 . S
H2349 C2361 0.950 . S
H2350 C2358 0.950 . S
H2351 C2360 0.950 . S
H2352 C2362 0.950 . S
H2353 C2364 0.950 . S
H2354 C2366 0.950 . S
H2355 C2367 0.950 . S
C2356 H2348 0.950 . S
C2356 C2357 1.386 . S
C2356 C2358 1.391 . S
C2357 C2356 1.386 . S
C2357 C2361 1.393 . S
C2358 H2350 0.950 . S
C2358 C2356 1.391 . S
C2358 C2359 1.400 . S
C2359 C2358 1.400 . S
C2359 C2360 1.398 . S
C2359 C2365 1.491 1_545 S
C2360 H2351 0.950 . S
C2360 C2359 1.398 . S
C2360 C2361 1.391 . S
C2361 H2349 0.950 . S
C2361 C2357 1.393 . S
C2361 C2360 1.391 . S
C2362 H2352 0.950 . S
C2362 C2363 1.386 . S
C2362 C2364 1.391 . S
C2363 C2362 1.386 . S
C2363 C2367 1.393 . S
C2364 H2353 0.950 . S
C2364 C2362 1.391 . S
C2364 C2365 1.400 . S
C2365 C2359 1.491 1_565 S
C2365 C2364 1.400 . S
C2365 C2366 1.398 . S
C2366 H2354 0.950 . S
C2366 C2365 1.398 . S
C2366 C2367 1.391 . S
C2367 H2355 0.950 . S
C2367 C2363 1.393 . S
C2367 C2366 1.391 . S
H2368 C2376 0.950 . S
H2369 C2381 0.950 . S
H2370 C2378 0.950 . S
H2371 C2380 0.950 . S
H2372 C2382 0.950 . S
H2373 C2384 0.950 . S
H2374 C2386 0.950 . S
H2375 C2387 0.950 . S
C2376 H2368 0.950 . S
C2376 C2377 1.386 . S
C2376 C2378 1.391 . S
C2377 C2376 1.386 . S
C2377 C2381 1.393 . S
C2378 H2370 0.950 . S
C2378 C2376 1.391 . S
C2378 C2379 1.400 . S
C2379 C2378 1.400 . S
C2379 C2380 1.398 . S
C2379 C2385 1.491 . S
C2380 H2371 0.950 . S
C2380 C2379 1.398 . S
C2380 C2381 1.391 . S
C2381 H2369 0.950 . S
C2381 C2377 1.393 . S
C2381 C2380 1.391 . S
C2382 H2372 0.950 . S
C2382 C2383 1.386 . S
C2382 C2384 1.391 . S
C2383 C2382 1.386 . S
C2383 C2387 1.393 . S
C2384 H2373 0.950 . S
C2384 C2382 1.391 . S
C2384 C2385 1.400 . S
C2385 C2379 1.491 . S
C2385 C2384 1.400 . S
C2385 C2386 1.398 . S
C2386 H2374 0.950 . S
C2386 C2385 1.398 . S
C2386 C2387 1.391 . S
C2387 H2375 0.950 . S
C2387 C2383 1.393 . S
C2387 C2386 1.391 . S
H2388 C2396 0.950 . S
H2389 C2401 0.950 . S
H2390 C2398 0.950 . S
H2391 C2400 0.950 . S
H2392 C2402 0.950 . S
H2393 C2404 0.950 . S
H2394 C2406 0.950 . S
H2395 C2407 0.950 . S
C2396 H2388 0.950 . S
C2396 C2397 1.386 . S
C2396 C2398 1.391 . S
C2397 C2396 1.386 . S
C2397 C2401 1.393 . S
C2398 H2390 0.950 . S
C2398 C2396 1.391 . S
C2398 C2399 1.400 . S
C2399 C2398 1.400 . S
C2399 C2400 1.398 . S
C2399 C2405 1.491 . S
C2400 H2391 0.950 . S
C2400 C2399 1.398 . S
C2400 C2401 1.391 . S
C2401 H2389 0.950 . S
C2401 C2397 1.393 . S
C2401 C2400 1.391 . S
C2402 H2392 0.950 . S
C2402 C2403 1.386 . S
C2402 C2404 1.391 . S
C2403 C2402 1.386 . S
C2403 C2407 1.393 . S
C2404 H2393 0.950 . S
C2404 C2402 1.391 . S
C2404 C2405 1.400 . S
C2405 C2399 1.491 . S
C2405 C2404 1.400 . S
C2405 C2406 1.398 . S
C2406 H2394 0.950 . S
C2406 C2405 1.398 . S
C2406 C2407 1.391 . S
C2407 H2395 0.950 . S
C2407 C2403 1.393 . S
C2407 C2406 1.391 . S
H2408 C2416 0.950 . S
H2409 C2421 0.950 . S
H2410 C2418 0.950 . S
H2411 C2420 0.950 . S
H2412 C2422 0.950 . S
H2413 C2424 0.950 . S
H2414 C2426 0.950 . S
H2415 C2427 0.950 . S
C2416 H2408 0.950 . S
C2416 C2417 1.386 . S
C2416 C2418 1.391 . S
C2417 C2416 1.386 . S
C2417 C2421 1.393 . S
C2418 H2410 0.950 . S
C2418 C2416 1.391 . S
C2418 C2419 1.400 . S
C2419 C2418 1.400 . S
C2419 C2420 1.398 . S
C2419 C2425 1.491 . S
C2420 H2411 0.950 . S
C2420 C2419 1.398 . S
C2420 C2421 1.391 . S
C2421 H2409 0.950 . S
C2421 C2417 1.393 . S
C2421 C2420 1.391 . S
C2422 H2412 0.950 . S
C2422 C2423 1.386 . S
C2422 C2424 1.391 . S
C2423 C2422 1.386 . S
C2423 C2427 1.393 . S
C2424 H2413 0.950 . S
C2424 C2422 1.391 . S
C2424 C2425 1.400 . S
C2425 C2419 1.491 . S
C2425 C2424 1.400 . S
C2425 C2426 1.398 . S
C2426 H2414 0.950 . S
C2426 C2425 1.398 . S
C2426 C2427 1.391 . S
C2427 H2415 0.950 . S
C2427 C2423 1.393 . S
C2427 C2426 1.391 . S
H2428 C2436 0.950 . S
H2429 C2441 0.950 . S
H2430 C2438 0.950 . S
H2431 C2440 0.950 . S
H2432 C2442 0.950 . S
H2433 C2444 0.950 . S
H2434 C2446 0.950 . S
H2435 C2447 0.950 . S
C2436 H2428 0.950 . S
C2436 C2437 1.386 . S
C2436 C2438 1.391 . S
C2437 C2436 1.386 . S
C2437 C2441 1.393 . S
C2438 H2430 0.950 . S
C2438 C2436 1.391 . S
C2438 C2439 1.400 . S
C2439 C2438 1.400 . S
C2439 C2440 1.398 . S
C2439 C2445 1.491 . S
C2440 H2431 0.950 . S
C2440 C2439 1.398 . S
C2440 C2441 1.391 . S
C2441 H2429 0.950 . S
C2441 C2437 1.393 . S
C2441 C2440 1.391 . S
C2442 H2432 0.950 . S
C2442 C2443 1.386 . S
C2442 C2444 1.391 . S
C2443 C2442 1.386 . S
C2443 C2447 1.393 . S
C2444 H2433 0.950 . S
C2444 C2442 1.391 . S
C2444 C2445 1.400 . S
C2445 C2439 1.491 . S
C2445 C2444 1.400 . S
C2445 C2446 1.398 . S
C2446 H2434 0.950 . S
C2446 C2445 1.398 . S
C2446 C2447 1.391 . S
C2447 H2435 0.950 . S
C2447 C2443 1.393 . S
C2447 C2446 1.391 . S
H2448 C2456 0.950 . S
H2449 C2461 0.950 . S
H2450 C2458 0.950 . S
H2451 C2460 0.950 . S
H2452 C2462 0.950 . S
H2453 C2464 0.950 . S
H2454 C2466 0.950 . S
H2455 C2467 0.950 . S
C2456 H2448 0.950 . S
C2456 C2457 1.386 . S
C2456 C2458 1.391 . S
C2457 C2456 1.386 . S
C2457 C2461 1.393 . S
C2458 H2450 0.950 . S
C2458 C2456 1.391 . S
C2458 C2459 1.400 . S
C2459 C2458 1.400 . S
C2459 C2460 1.398 . S
C2459 C2465 1.491 . S
C2460 H2451 0.950 . S
C2460 C2459 1.398 . S
C2460 C2461 1.391 . S
C2461 H2449 0.950 . S
C2461 C2457 1.393 . S
C2461 C2460 1.391 . S
C2462 H2452 0.950 . S
C2462 C2463 1.386 . S
C2462 C2464 1.391 . S
C2463 C2462 1.386 . S
C2463 C2467 1.393 . S
C2464 H2453 0.950 . S
C2464 C2462 1.391 . S
C2464 C2465 1.400 . S
C2465 C2459 1.491 . S
C2465 C2464 1.400 . S
C2465 C2466 1.398 . S
C2466 H2454 0.950 . S
C2466 C2465 1.398 . S
C2466 C2467 1.391 . S
C2467 H2455 0.950 . S
C2467 C2463 1.393 . S
C2467 C2466 1.391 . S
H2468 C2476 0.950 . S
H2469 C2481 0.950 . S
H2470 C2478 0.950 . S
H2471 C2480 0.950 . S
H2472 C2482 0.950 . S
H2473 C2484 0.950 . S
H2474 C2486 0.950 . S
H2475 C2487 0.950 . S
C2476 H2468 0.950 . S
C2476 C2477 1.386 . S
C2476 C2478 1.391 . S
C2477 C2476 1.386 . S
C2477 C2481 1.393 . S
C2478 H2470 0.950 . S
C2478 C2476 1.391 . S
C2478 C2479 1.400 . S
C2479 C2478 1.400 . S
C2479 C2480 1.398 . S
C2479 C2485 1.491 . S
C2480 H2471 0.950 . S
C2480 C2479 1.398 . S
C2480 C2481 1.391 . S
C2481 H2469 0.950 . S
C2481 C2477 1.393 . S
C2481 C2480 1.391 . S
C2482 H2472 0.950 . S
C2482 C2483 1.386 . S
C2482 C2484 1.391 . S
C2483 C2482 1.386 . S
C2483 C2487 1.393 . S
C2484 H2473 0.950 . S
C2484 C2482 1.391 . S
C2484 C2485 1.400 . S
C2485 C2479 1.491 . S
C2485 C2484 1.400 . S
C2485 C2486 1.398 . S
C2486 H2474 0.950 . S
C2486 C2485 1.398 . S
C2486 C2487 1.391 . S
C2487 H2475 0.950 . S
C2487 C2483 1.393 . S
C2487 C2486 1.391 . S
H2488 C2496 0.950 . S
H2489 C2501 0.950 . S
H2490 C2498 0.950 . S
H2491 C2500 0.950 . S
H2492 C2502 0.950 . S
H2493 C2504 0.950 . S
H2494 C2506 0.950 . S
H2495 C2507 0.950 . S
C2496 H2488 0.950 . S
C2496 C2497 1.386 . S
C2496 C2498 1.391 . S
C2497 C2496 1.386 . S
C2497 C2501 1.393 . S
C2498 H2490 0.950 . S
C2498 C2496 1.391 . S
C2498 C2499 1.400 . S
C2499 C2498 1.400 . S
C2499 C2500 1.398 . S
C2499 C2505 1.491 . S
C2500 H2491 0.950 . S
C2500 C2499 1.398 . S
C2500 C2501 1.391 . S
C2501 H2489 0.950 . S
C2501 C2497 1.393 . S
C2501 C2500 1.391 . S
C2502 H2492 0.950 . S
C2502 C2503 1.386 . S
C2502 C2504 1.391 . S
C2503 C2502 1.386 . S
C2503 C2507 1.393 . S
C2504 H2493 0.950 . S
C2504 C2502 1.391 . S
C2504 C2505 1.400 . S
C2505 C2499 1.491 . S
C2505 C2504 1.400 . S
C2505 C2506 1.398 . S
C2506 H2494 0.950 . S
C2506 C2505 1.398 . S
C2506 C2507 1.391 . S
C2507 H2495 0.950 . S
C2507 C2503 1.393 . S
C2507 C2506 1.391 . S
H2508 C2516 0.950 . S
H2509 C2521 0.950 . S
H2510 C2518 0.950 . S
H2511 C2520 0.950 . S
H2512 C2522 0.950 . S
H2513 C2524 0.950 . S
H2514 C2526 0.950 . S
H2515 C2527 0.950 . S
C2516 H2508 0.950 . S
C2516 C2517 1.386 . S
C2516 C2518 1.391 . S
C2517 C2516 1.386 . S
C2517 C2521 1.393 . S
C2518 H2510 0.950 . S
C2518 C2516 1.391 . S
C2518 C2519 1.400 . S
C2519 C2518 1.400 . S
C2519 C2520 1.398 . S
C2519 C2525 1.491 . S
C2520 H2511 0.950 . S
C2520 C2519 1.398 . S
C2520 C2521 1.391 . S
C2521 H2509 0.950 . S
C2521 C2517 1.393 . S
C2521 C2520 1.391 . S
C2522 H2512 0.950 . S
C2522 C2523 1.386 . S
C2522 C2524 1.391 . S
C2523 C2522 1.386 . S
C2523 C2527 1.393 . S
C2524 H2513 0.950 . S
C2524 C2522 1.391 . S
C2524 C2525 1.400 . S
C2525 C2519 1.491 . S
C2525 C2524 1.400 . S
C2525 C2526 1.398 . S
C2526 H2514 0.950 . S
C2526 C2525 1.398 . S
C2526 C2527 1.391 . S
C2527 H2515 0.950 . S
C2527 C2523 1.393 . S
C2527 C2526 1.391 . S
H2528 C2536 0.950 . S
H2529 C2541 0.950 . S
H2530 C2538 0.950 . S
H2531 C2540 0.950 . S
H2532 C2542 0.950 . S
H2533 C2544 0.950 . S
H2534 C2546 0.950 . S
H2535 C2547 0.950 . S
C2536 H2528 0.950 . S
C2536 C2537 1.386 . S
C2536 C2538 1.391 . S
C2537 C2536 1.386 . S
C2537 C2541 1.393 . S
C2538 H2530 0.950 . S
C2538 C2536 1.391 . S
C2538 C2539 1.400 . S
C2539 C2538 1.400 . S
C2539 C2540 1.398 . S
C2539 C2545 1.491 . S
C2540 H2531 0.950 . S
C2540 C2539 1.398 . S
C2540 C2541 1.391 . S
C2541 H2529 0.950 . S
C2541 C2537 1.393 . S
C2541 C2540 1.391 . S
C2542 H2532 0.950 . S
C2542 C2543 1.386 . S
C2542 C2544 1.391 . S
C2543 C2542 1.386 . S
C2543 C2547 1.393 . S
C2544 H2533 0.950 . S
C2544 C2542 1.391 . S
C2544 C2545 1.400 . S
C2545 C2539 1.491 . S
C2545 C2544 1.400 . S
C2545 C2546 1.398 . S
C2546 H2534 0.950 . S
C2546 C2545 1.398 . S
C2546 C2547 1.391 . S
C2547 H2535 0.950 . S
C2547 C2543 1.393 . S
C2547 C2546 1.391 . S
H2548 C2556 0.950 . S
H2549 C2561 0.950 . S
H2550 C2558 0.950 . S
H2551 C2560 0.950 . S
H2552 C2562 0.950 . S
H2553 C2564 0.950 . S
H2554 C2566 0.950 . S
H2555 C2567 0.950 . S
C2556 H2548 0.950 . S
C2556 C2557 1.386 . S
C2556 C2558 1.391 . S
C2557 C2556 1.386 . S
C2557 C2561 1.393 . S
C2558 H2550 0.950 . S
C2558 C2556 1.391 . S
C2558 C2559 1.400 . S
C2559 C2558 1.400 . S
C2559 C2560 1.398 . S
C2559 C2565 1.491 . S
C2560 H2551 0.950 . S
C2560 C2559 1.398 . S
C2560 C2561 1.391 . S
C2561 H2549 0.950 . S
C2561 C2557 1.393 . S
C2561 C2560 1.391 . S
C2562 H2552 0.950 . S
C2562 C2563 1.386 . S
C2562 C2564 1.391 . S
C2563 C2562 1.386 . S
C2563 C2567 1.393 . S
C2564 H2553 0.950 . S
C2564 C2562 1.391 . S
C2564 C2565 1.400 . S
C2565 C2559 1.491 . S
C2565 C2564 1.400 . S
C2565 C2566 1.398 . S
C2566 H2554 0.950 . S
C2566 C2565 1.398 . S
C2566 C2567 1.391 . S
C2567 H2555 0.950 . S
C2567 C2563 1.393 . S
C2567 C2566 1.391 . S
H2568 C2576 0.950 . S
H2569 C2581 0.950 . S
H2570 C2578 0.950 . S
H2571 C2580 0.950 . S
H2572 C2582 0.950 . S
H2573 C2584 0.950 . S
H2574 C2586 0.950 . S
H2575 C2587 0.950 . S
C2576 H2568 0.950 . S
C2576 C2577 1.386 . S
C2576 C2578 1.391 . S
C2577 C2576 1.386 . S
C2577 C2581 1.393 . S
C2578 H2570 0.950 . S
C2578 C2576 1.391 . S
C2578 C2579 1.400 . S
C2579 C2578 1.400 . S
C2579 C2580 1.398 . S
C2579 C2585 1.491 . S
C2580 H2571 0.950 . S
C2580 C2579 1.398 . S
C2580 C2581 1.391 . S
C2581 H2569 0.950 . S
C2581 C2577 1.393 . S
C2581 C2580 1.391 . S
C2582 H2572 0.950 . S
C2582 C2583 1.386 . S
C2582 C2584 1.391 . S
C2583 C2582 1.386 . S
C2583 C2587 1.393 . S
C2584 H2573 0.950 . S
C2584 C2582 1.391 . S
C2584 C2585 1.400 . S
C2585 C2579 1.491 . S
C2585 C2584 1.400 . S
C2585 C2586 1.398 . S
C2586 H2574 0.950 . S
C2586 C2585 1.398 . S
C2586 C2587 1.391 . S
C2587 H2575 0.950 . S
C2587 C2583 1.393 . S
C2587 C2586 1.391 . S
H2588 C2596 0.950 . S
H2589 C2601 0.950 . S
H2590 C2598 0.950 . S
H2591 C2600 0.950 . S
H2592 C2602 0.950 . S
H2593 C2604 0.950 . S
H2594 C2606 0.950 . S
H2595 C2607 0.950 . S
C2596 H2588 0.950 . S
C2596 C2597 1.386 . S
C2596 C2598 1.391 . S
C2597 C2596 1.386 . S
C2597 C2601 1.393 . S
C2598 H2590 0.950 . S
C2598 C2596 1.391 . S
C2598 C2599 1.400 . S
C2599 C2598 1.400 . S
C2599 C2600 1.398 . S
C2599 C2605 1.491 . S
C2600 H2591 0.950 . S
C2600 C2599 1.398 . S
C2600 C2601 1.391 . S
C2601 H2589 0.950 . S
C2601 C2597 1.393 . S
C2601 C2600 1.391 . S
C2602 H2592 0.950 . S
C2602 C2603 1.386 . S
C2602 C2604 1.391 . S
C2603 C2602 1.386 . S
C2603 C2607 1.393 . S
C2604 H2593 0.950 . S
C2604 C2602 1.391 . S
C2604 C2605 1.400 . S
C2605 C2599 1.491 . S
C2605 C2604 1.400 . S
C2605 C2606 1.398 . S
C2606 H2594 0.950 . S
C2606 C2605 1.398 . S
C2606 C2607 1.391 . S
C2607 H2595 0.950 . S
C2607 C2603 1.393 . S
C2607 C2606 1.391 . S
H2608 C2616 0.950 . S
H2609 C2621 0.950 . S
H2610 C2618 0.950 . S
H2611 C2620 0.950 . S
H2612 C2622 0.950 . S
H2613 C2624 0.950 . S
H2614 C2626 0.950 . S
H2615 C2627 0.950 . S
C2616 H2608 0.950 . S
C2616 C2617 1.386 . S
C2616 C2618 1.391 . S
C2617 C2616 1.386 . S
C2617 C2621 1.393 . S
C2618 H2610 0.950 . S
C2618 C2616 1.391 . S
C2618 C2619 1.400 . S
C2619 C2618 1.400 . S
C2619 C2620 1.398 . S
C2619 C2625 1.491 . S
C2620 H2611 0.950 . S
C2620 C2619 1.398 . S
C2620 C2621 1.391 . S
C2621 H2609 0.950 . S
C2621 C2617 1.393 . S
C2621 C2620 1.391 . S
C2622 H2612 0.950 . S
C2622 C2623 1.386 . S
C2622 C2624 1.391 . S
C2623 C2622 1.386 . S
C2623 C2627 1.393 . S
C2624 H2613 0.950 . S
C2624 C2622 1.391 . S
C2624 C2625 1.400 . S
C2625 C2619 1.491 . S
C2625 C2624 1.400 . S
C2625 C2626 1.398 . S
C2626 H2614 0.950 . S
C2626 C2625 1.398 . S
C2626 C2627 1.391 . S
C2627 H2615 0.950 . S
C2627 C2623 1.393 . S
C2627 C2626 1.391 . S
H2628 C2636 0.950 . S
H2629 C2641 0.950 . S
H2630 C2638 0.950 . S
H2631 C2640 0.950 . S
H2632 C2642 0.950 . S
H2633 C2644 0.950 . S
H2634 C2646 0.950 . S
H2635 C2647 0.950 . S
C2636 H2628 0.950 . S
C2636 C2637 1.386 . S
C2636 C2638 1.391 . S
C2637 C2636 1.386 . S
C2637 C2641 1.393 . S
C2638 H2630 0.950 . S
C2638 C2636 1.391 . S
C2638 C2639 1.400 . S
C2639 C2638 1.400 . S
C2639 C2640 1.398 . S
C2639 C2645 1.491 . S
C2640 H2631 0.950 . S
C2640 C2639 1.398 . S
C2640 C2641 1.391 . S
C2641 H2629 0.950 . S
C2641 C2637 1.393 . S
C2641 C2640 1.391 . S
C2642 H2632 0.950 . S
C2642 C2643 1.386 . S
C2642 C2644 1.391 . S
C2643 C2642 1.386 . S
C2643 C2647 1.393 . S
C2644 H2633 0.950 . S
C2644 C2642 1.391 . S
C2644 C2645 1.400 . S
C2645 C2639 1.491 . S
C2645 C2644 1.400 . S
C2645 C2646 1.398 . S
C2646 H2634 0.950 . S
C2646 C2645 1.398 . S
C2646 C2647 1.391 . S
C2647 H2635 0.950 . S
C2647 C2643 1.393 . S
C2647 C2646 1.391 . S
H2648 C2656 0.950 . S
H2649 C2661 0.950 . S
H2650 C2658 0.950 . S
H2651 C2660 0.950 . S
H2652 C2662 0.950 . S
H2653 C2664 0.950 . S
H2654 C2666 0.950 . S
H2655 C2667 0.950 . S
C2656 H2648 0.950 . S
C2656 C2657 1.386 . S
C2656 C2658 1.391 . S
C2657 C2656 1.386 . S
C2657 C2661 1.393 . S
C2658 H2650 0.950 . S
C2658 C2656 1.391 . S
C2658 C2659 1.400 . S
C2659 C2658 1.400 . S
C2659 C2660 1.398 . S
C2659 C2665 1.491 . S
C2660 H2651 0.950 . S
C2660 C2659 1.398 . S
C2660 C2661 1.391 . S
C2661 H2649 0.950 . S
C2661 C2657 1.393 . S
C2661 C2660 1.391 . S
C2662 H2652 0.950 . S
C2662 C2663 1.386 . S
C2662 C2664 1.391 . S
C2663 C2662 1.386 . S
C2663 C2667 1.393 . S
C2664 H2653 0.950 . S
C2664 C2662 1.391 . S
C2664 C2665 1.400 . S
C2665 C2659 1.491 . S
C2665 C2664 1.400 . S
C2665 C2666 1.398 . S
C2666 H2654 0.950 . S
C2666 C2665 1.398 . S
C2666 C2667 1.391 . S
C2667 H2655 0.950 . S
C2667 C2663 1.393 . S
C2667 C2666 1.391 . S
H2668 C2676 0.950 . S
H2669 C2681 0.950 . S
H2670 C2678 0.950 . S
H2671 C2680 0.950 . S
H2672 C2682 0.950 . S
H2673 C2684 0.950 . S
H2674 C2686 0.950 . S
H2675 C2687 0.950 . S
C2676 H2668 0.950 . S
C2676 C2677 1.386 . S
C2676 C2678 1.391 . S
C2677 C2676 1.386 . S
C2677 C2681 1.393 . S
C2678 H2670 0.950 . S
C2678 C2676 1.391 . S
C2678 C2679 1.400 . S
C2679 C2678 1.400 . S
C2679 C2680 1.398 . S
C2679 C2685 1.491 . S
C2680 H2671 0.950 . S
C2680 C2679 1.398 . S
C2680 C2681 1.391 . S
C2681 H2669 0.950 . S
C2681 C2677 1.393 . S
C2681 C2680 1.391 . S
C2682 H2672 0.950 . S
C2682 C2683 1.386 . S
C2682 C2684 1.391 . S
C2683 C2682 1.386 . S
C2683 C2687 1.393 . S
C2684 H2673 0.950 . S
C2684 C2682 1.391 . S
C2684 C2685 1.400 . S
C2685 C2679 1.491 . S
C2685 C2684 1.400 . S
C2685 C2686 1.398 . S
C2686 H2674 0.950 . S
C2686 C2685 1.398 . S
C2686 C2687 1.391 . S
C2687 H2675 0.950 . S
C2687 C2683 1.393 . S
C2687 C2686 1.391 . S
H2688 C2696 0.950 . S
H2689 C2701 0.950 . S
H2690 C2698 0.950 . S
H2691 C2700 0.950 . S
H2692 C2702 0.950 . S
H2693 C2704 0.950 . S
H2694 C2706 0.950 . S
H2695 C2707 0.950 . S
C2696 H2688 0.950 . S
C2696 C2697 1.386 . S
C2696 C2698 1.391 . S
C2697 C2696 1.386 . S
C2697 C2701 1.393 . S
C2698 H2690 0.950 . S
C2698 C2696 1.391 . S
C2698 C2699 1.400 . S
C2699 C2698 1.400 . S
C2699 C2700 1.398 . S
C2699 C2705 1.491 1_554 S
C2700 H2691 0.950 . S
C2700 C2699 1.398 . S
C2700 C2701 1.391 . S
C2701 H2689 0.950 . S
C2701 C2697 1.393 . S
C2701 C2700 1.391 . S
C2702 H2692 0.950 . S
C2702 C2703 1.386 . S
C2702 C2704 1.391 . S
C2703 C2702 1.386 . S
C2703 C2707 1.393 . S
C2704 H2693 0.950 . S
C2704 C2702 1.391 . S
C2704 C2705 1.400 . S
C2705 C2699 1.491 1_556 S
C2705 C2704 1.400 . S
C2705 C2706 1.398 . S
C2706 H2694 0.950 . S
C2706 C2705 1.398 . S
C2706 C2707 1.391 . S
C2707 H2695 0.950 . S
C2707 C2703 1.393 . S
C2707 C2706 1.391 . S
H2708 C2716 0.950 . S
H2709 C2721 0.950 . S
H2710 C2718 0.950 . S
H2711 C2720 0.950 . S
H2712 C2722 0.950 . S
H2713 C2724 0.950 . S
H2714 C2726 0.950 . S
H2715 C2727 0.950 . S
C2716 H2708 0.950 . S
C2716 C2717 1.386 . S
C2716 C2718 1.391 . S
C2717 C2716 1.386 . S
C2717 C2721 1.393 . S
C2718 H2710 0.950 . S
C2718 C2716 1.391 . S
C2718 C2719 1.400 . S
C2719 C2718 1.400 . S
C2719 C2720 1.398 . S
C2719 C2725 1.491 1_556 S
C2720 H2711 0.950 . S
C2720 C2719 1.398 . S
C2720 C2721 1.391 . S
C2721 H2709 0.950 . S
C2721 C2717 1.393 . S
C2721 C2720 1.391 . S
C2722 H2712 0.950 . S
C2722 C2723 1.386 . S
C2722 C2724 1.391 . S
C2723 C2722 1.386 . S
C2723 C2727 1.393 . S
C2724 H2713 0.950 . S
C2724 C2722 1.391 . S
C2724 C2725 1.400 . S
C2725 C2719 1.491 1_554 S
C2725 C2724 1.400 . S
C2725 C2726 1.398 . S
C2726 H2714 0.950 . S
C2726 C2725 1.398 . S
C2726 C2727 1.391 . S
C2727 H2715 0.950 . S
C2727 C2723 1.393 . S
C2727 C2726 1.391 . S
H2728 C2736 0.950 . S
H2729 C2741 0.950 . S
H2730 C2738 0.950 . S
H2731 C2740 0.950 . S
H2732 C2742 0.950 . S
H2733 C2744 0.950 . S
H2734 C2746 0.950 . S
H2735 C2747 0.950 . S
C2736 H2728 0.950 . S
C2736 C2737 1.386 . S
C2736 C2738 1.391 . S
C2737 C2736 1.386 . S
C2737 C2741 1.393 . S
C2738 H2730 0.950 . S
C2738 C2736 1.391 . S
C2738 C2739 1.400 . S
C2739 C2738 1.400 . S
C2739 C2740 1.398 . S
C2739 C2745 1.491 1_554 S
C2740 H2731 0.950 . S
C2740 C2739 1.398 . S
C2740 C2741 1.391 . S
C2741 H2729 0.950 . S
C2741 C2737 1.393 . S
C2741 C2740 1.391 . S
C2742 H2732 0.950 . S
C2742 C2743 1.386 . S
C2742 C2744 1.391 . S
C2743 C2742 1.386 . S
C2743 C2747 1.393 . S
C2744 H2733 0.950 . S
C2744 C2742 1.391 . S
C2744 C2745 1.400 . S
C2745 C2739 1.491 1_556 S
C2745 C2744 1.400 . S
C2745 C2746 1.398 . S
C2746 H2734 0.950 . S
C2746 C2745 1.398 . S
C2746 C2747 1.391 . S
C2747 H2735 0.950 . S
C2747 C2743 1.393 . S
C2747 C2746 1.391 . S
H2748 C2756 0.950 . S
H2749 C2761 0.950 . S
H2750 C2758 0.950 . S
H2751 C2760 0.950 . S
H2752 C2762 0.950 . S
H2753 C2764 0.950 . S
H2754 C2766 0.950 . S
H2755 C2767 0.950 . S
C2756 H2748 0.950 . S
C2756 C2757 1.386 . S
C2756 C2758 1.391 . S
C2757 C2756 1.386 . S
C2757 C2761 1.393 . S
C2758 H2750 0.950 . S
C2758 C2756 1.391 . S
C2758 C2759 1.400 . S
C2759 C2758 1.400 . S
C2759 C2760 1.398 . S
C2759 C2765 1.491 1_554 S
C2760 H2751 0.950 . S
C2760 C2759 1.398 . S
C2760 C2761 1.391 . S
C2761 H2749 0.950 . S
C2761 C2757 1.393 . S
C2761 C2760 1.391 . S
C2762 H2752 0.950 . S
C2762 C2763 1.386 . S
C2762 C2764 1.391 . S
C2763 C2762 1.386 . S
C2763 C2767 1.393 . S
C2764 H2753 0.950 . S
C2764 C2762 1.391 . S
C2764 C2765 1.400 . S
C2765 C2759 1.491 1_556 S
C2765 C2764 1.400 . S
C2765 C2766 1.398 . S
C2766 H2754 0.950 . S
C2766 C2765 1.398 . S
C2766 C2767 1.391 . S
C2767 H2755 0.950 . S
C2767 C2763 1.393 . S
C2767 C2766 1.391 . S
H2768 C2776 0.950 . S
H2769 C2781 0.950 . S
H2770 C2778 0.950 . S
H2771 C2780 0.950 . S
H2772 C2782 0.950 . S
H2773 C2784 0.950 . S
H2774 C2786 0.950 . S
H2775 C2787 0.950 . S
C2776 H2768 0.950 . S
C2776 C2777 1.386 . S
C2776 C2778 1.391 . S
C2777 C2776 1.386 . S
C2777 C2781 1.393 . S
C2778 H2770 0.950 . S
C2778 C2776 1.391 . S
C2778 C2779 1.400 . S
C2779 C2778 1.400 . S
C2779 C2780 1.398 . S
C2779 C2785 1.491 1_554 S
C2780 H2771 0.950 . S
C2780 C2779 1.398 . S
C2780 C2781 1.391 . S
C2781 H2769 0.950 . S
C2781 C2777 1.393 . S
C2781 C2780 1.391 . S
C2782 H2772 0.950 . S
C2782 C2783 1.386 . S
C2782 C2784 1.391 . S
C2783 C2782 1.386 . S
C2783 C2787 1.393 . S
C2784 H2773 0.950 . S
C2784 C2782 1.391 . S
C2784 C2785 1.400 . S
C2785 C2779 1.491 1_556 S
C2785 C2784 1.400 . S
C2785 C2786 1.398 . S
C2786 H2774 0.950 . S
C2786 C2785 1.398 . S
C2786 C2787 1.391 . S
C2787 H2775 0.950 . S
C2787 C2783 1.393 . S
C2787 C2786 1.391 . S
H2788 C2796 0.950 . S
H2789 C2801 0.950 . S
H2790 C2798 0.950 . S
H2791 C2800 0.950 . S
H2792 C2802 0.950 . S
H2793 C2804 0.950 . S
H2794 C2806 0.950 . S
H2795 C2807 0.950 . S
C2796 H2788 0.950 . S
C2796 C2797 1.386 . S
C2796 C2798 1.391 . S
C2797 C2796 1.386 . S
C2797 C2801 1.393 . S
C2798 H2790 0.950 . S
C2798 C2796 1.391 . S
C2798 C2799 1.400 . S
C2799 C2798 1.400 . S
C2799 C2800 1.398 . S
C2799 C2805 1.491 1_554 S
C2800 H2791 0.950 . S
C2800 C2799 1.398 . S
C2800 C2801 1.391 . S
C2801 H2789 0.950 . S
C2801 C2797 1.393 . S
C2801 C2800 1.391 . S
C2802 H2792 0.950 . S
C2802 C2803 1.386 . S
C2802 C2804 1.391 . S
C2803 C2802 1.386 . S
C2803 C2807 1.393 . S
C2804 H2793 0.950 . S
C2804 C2802 1.391 . S
C2804 C2805 1.400 . S
C2805 C2799 1.491 1_556 S
C2805 C2804 1.400 . S
C2805 C2806 1.398 . S
C2806 H2794 0.950 . S
C2806 C2805 1.398 . S
C2806 C2807 1.391 . S
C2807 H2795 0.950 . S
C2807 C2803 1.393 . S
C2807 C2806 1.391 . S
H2808 C2816 0.950 . S
H2809 C2821 0.950 . S
H2810 C2818 0.950 . S
H2811 C2820 0.950 . S
H2812 C2822 0.950 . S
H2813 C2824 0.950 . S
H2814 C2826 0.950 . S
H2815 C2827 0.950 . S
C2816 H2808 0.950 . S
C2816 C2817 1.386 . S
C2816 C2818 1.391 . S
C2817 C2816 1.386 . S
C2817 C2821 1.393 . S
C2818 H2810 0.950 . S
C2818 C2816 1.391 . S
C2818 C2819 1.400 . S
C2819 C2818 1.400 . S
C2819 C2820 1.398 . S
C2819 C2825 1.491 1_556 S
C2820 H2811 0.950 . S
C2820 C2819 1.398 . S
C2820 C2821 1.391 . S
C2821 H2809 0.950 . S
C2821 C2817 1.393 . S
C2821 C2820 1.391 . S
C2822 H2812 0.950 . S
C2822 C2823 1.386 . S
C2822 C2824 1.391 . S
C2823 C2822 1.386 . S
C2823 C2827 1.393 . S
C2824 H2813 0.950 . S
C2824 C2822 1.391 . S
C2824 C2825 1.400 . S
C2825 C2819 1.491 1_554 S
C2825 C2824 1.400 . S
C2825 C2826 1.398 . S
C2826 H2814 0.950 . S
C2826 C2825 1.398 . S
C2826 C2827 1.391 . S
C2827 H2815 0.950 . S
C2827 C2823 1.393 . S
C2827 C2826 1.391 . S
H2828 C2836 0.950 . S
H2829 C2841 0.950 . S
H2830 C2838 0.950 . S
H2831 C2840 0.950 . S
H2832 C2842 0.950 . S
H2833 C2844 0.950 . S
H2834 C2846 0.950 . S
H2835 C2847 0.950 . S
C2836 H2828 0.950 . S
C2836 C2837 1.386 . S
C2836 C2838 1.391 . S
C2837 C2836 1.386 . S
C2837 C2841 1.393 . S
C2838 H2830 0.950 . S
C2838 C2836 1.391 . S
C2838 C2839 1.400 . S
C2839 C2838 1.400 . S
C2839 C2840 1.398 . S
C2839 C2845 1.491 1_556 S
C2840 H2831 0.950 . S
C2840 C2839 1.398 . S
C2840 C2841 1.391 . S
C2841 H2829 0.950 . S
C2841 C2837 1.393 . S
C2841 C2840 1.391 . S
C2842 H2832 0.950 . S
C2842 C2843 1.386 . S
C2842 C2844 1.391 . S
C2843 C2842 1.386 . S
C2843 C2847 1.393 . S
C2844 H2833 0.950 . S
C2844 C2842 1.391 . S
C2844 C2845 1.400 . S
C2845 C2839 1.491 1_554 S
C2845 C2844 1.400 . S
C2845 C2846 1.398 . S
C2846 H2834 0.950 . S
C2846 C2845 1.398 . S
C2846 C2847 1.391 . S
C2847 H2835 0.950 . S
C2847 C2843 1.393 . S
C2847 C2846 1.391 . S
H2848 C2856 0.950 . S
H2849 C2861 0.950 . S
H2850 C2858 0.950 . S
H2851 C2860 0.950 . S
H2852 C2862 0.950 . S
H2853 C2864 0.950 . S
H2854 C2866 0.950 . S
H2855 C2867 0.950 . S
C2856 H2848 0.950 . S
C2856 C2857 1.386 . S
C2856 C2858 1.391 . S
C2857 C2856 1.386 . S
C2857 C2861 1.393 . S
C2858 H2850 0.950 . S
C2858 C2856 1.391 . S
C2858 C2859 1.400 . S
C2859 C2858 1.400 . S
C2859 C2860 1.398 . S
C2859 C2865 1.491 . S
C2860 H2851 0.950 . S
C2860 C2859 1.398 . S
C2860 C2861 1.391 . S
C2861 H2849 0.950 . S
C2861 C2857 1.393 . S
C2861 C2860 1.391 . S
C2862 H2852 0.950 . S
C2862 C2863 1.386 . S
C2862 C2864 1.391 . S
C2863 C2862 1.386 . S
C2863 C2867 1.393 . S
C2864 H2853 0.950 . S
C2864 C2862 1.391 . S
C2864 C2865 1.400 . S
C2865 C2859 1.491 . S
C2865 C2864 1.400 . S
C2865 C2866 1.398 . S
C2866 H2854 0.950 . S
C2866 C2865 1.398 . S
C2866 C2867 1.391 . S
C2867 H2855 0.950 . S
C2867 C2863 1.393 . S
C2867 C2866 1.391 . S
H2868 C2876 0.950 . S
H2869 C2881 0.950 . S
H2870 C2878 0.950 . S
H2871 C2880 0.950 . S
H2872 C2882 0.950 . S
H2873 C2884 0.950 . S
H2874 C2886 0.950 . S
H2875 C2887 0.950 . S
C2876 H2868 0.950 . S
C2876 C2877 1.386 . S
C2876 C2878 1.391 . S
C2877 C2876 1.386 . S
C2877 C2881 1.393 . S
C2878 H2870 0.950 . S
C2878 C2876 1.391 . S
C2878 C2879 1.400 . S
C2879 C2878 1.400 . S
C2879 C2880 1.398 . S
C2879 C2885 1.491 . S
C2880 H2871 0.950 . S
C2880 C2879 1.398 . S
C2880 C2881 1.391 . S
C2881 H2869 0.950 . S
C2881 C2877 1.393 . S
C2881 C2880 1.391 . S
C2882 H2872 0.950 . S
C2882 C2883 1.386 . S
C2882 C2884 1.391 . S
C2883 C2882 1.386 . S
C2883 C2887 1.393 . S
C2884 H2873 0.950 . S
C2884 C2882 1.391 . S
C2884 C2885 1.400 . S
C2885 C2879 1.491 . S
C2885 C2884 1.400 . S
C2885 C2886 1.398 . S
C2886 H2874 0.950 . S
C2886 C2885 1.398 . S
C2886 C2887 1.391 . S
C2887 H2875 0.950 . S
C2887 C2883 1.393 . S
C2887 C2886 1.391 . S
H2888 C2896 0.950 . S
H2889 C2901 0.950 . S
H2890 C2898 0.950 . S
H2891 C2900 0.950 . S
H2892 C2902 0.950 . S
H2893 C2904 0.950 . S
H2894 C2906 0.950 . S
H2895 C2907 0.950 . S
C2896 H2888 0.950 . S
C2896 C2897 1.386 . S
C2896 C2898 1.391 . S
C2897 C2896 1.386 . S
C2897 C2901 1.393 . S
C2898 H2890 0.950 . S
C2898 C2896 1.391 . S
C2898 C2899 1.400 . S
C2899 C2898 1.400 . S
C2899 C2900 1.398 . S
C2899 C2905 1.491 . S
C2900 H2891 0.950 . S
C2900 C2899 1.398 . S
C2900 C2901 1.391 . S
C2901 H2889 0.950 . S
C2901 C2897 1.393 . S
C2901 C2900 1.391 . S
C2902 H2892 0.950 . S
C2902 C2903 1.386 . S
C2902 C2904 1.391 . S
C2903 C2902 1.386 . S
C2903 C2907 1.393 . S
C2904 H2893 0.950 . S
C2904 C2902 1.391 . S
C2904 C2905 1.400 . S
C2905 C2899 1.491 . S
C2905 C2904 1.400 . S
C2905 C2906 1.398 . S
C2906 H2894 0.950 . S
C2906 C2905 1.398 . S
C2906 C2907 1.391 . S
C2907 H2895 0.950 . S
C2907 C2903 1.393 . S
C2907 C2906 1.391 . S
H2908 C2916 0.950 . S
H2909 C2921 0.950 . S
H2910 C2918 0.950 . S
H2911 C2920 0.950 . S
H2912 C2922 0.950 . S
H2913 C2924 0.950 . S
H2914 C2926 0.950 . S
H2915 C2927 0.950 . S
C2916 H2908 0.950 . S
C2916 C2917 1.386 . S
C2916 C2918 1.391 . S
C2917 C2916 1.386 . S
C2917 C2921 1.393 . S
C2918 H2910 0.950 . S
C2918 C2916 1.391 . S
C2918 C2919 1.400 . S
C2919 C2918 1.400 . S
C2919 C2920 1.398 . S
C2919 C2925 1.491 . S
C2920 H2911 0.950 . S
C2920 C2919 1.398 . S
C2920 C2921 1.391 . S
C2921 H2909 0.950 . S
C2921 C2917 1.393 . S
C2921 C2920 1.391 . S
C2922 H2912 0.950 . S
C2922 C2923 1.386 . S
C2922 C2924 1.391 . S
C2923 C2922 1.386 . S
C2923 C2927 1.393 . S
C2924 H2913 0.950 . S
C2924 C2922 1.391 . S
C2924 C2925 1.400 . S
C2925 C2919 1.491 . S
C2925 C2924 1.400 . S
C2925 C2926 1.398 . S
C2926 H2914 0.950 . S
C2926 C2925 1.398 . S
C2926 C2927 1.391 . S
C2927 H2915 0.950 . S
C2927 C2923 1.393 . S
C2927 C2926 1.391 . S
H2928 C2936 0.950 . S
H2929 C2941 0.950 . S
H2930 C2938 0.950 . S
H2931 C2940 0.950 . S
H2932 C2942 0.950 . S
H2933 C2944 0.950 . S
H2934 C2946 0.950 . S
H2935 C2947 0.950 . S
C2936 H2928 0.950 . S
C2936 C2937 1.386 . S
C2936 C2938 1.391 . S
C2937 C2936 1.386 . S
C2937 C2941 1.393 . S
C2938 H2930 0.950 . S
C2938 C2936 1.391 . S
C2938 C2939 1.400 . S
C2939 C2938 1.400 . S
C2939 C2940 1.398 . S
C2939 C2945 1.491 . S
C2940 H2931 0.950 . S
C2940 C2939 1.398 . S
C2940 C2941 1.391 . S
C2941 H2929 0.950 . S
C2941 C2937 1.393 . S
C2941 C2940 1.391 . S
C2942 H2932 0.950 . S
C2942 C2943 1.386 . S
C2942 C2944 1.391 . S
C2943 C2942 1.386 . S
C2943 C2947 1.393 . S
C2944 H2933 0.950 . S
C2944 C2942 1.391 . S
C2944 C2945 1.400 . S
C2945 C2939 1.491 . S
C2945 C2944 1.400 . S
C2945 C2946 1.398 . S
C2946 H2934 0.950 . S
C2946 C2945 1.398 . S
C2946 C2947 1.391 . S
C2947 H2935 0.950 . S
C2947 C2943 1.393 . S
C2947 C2946 1.391 . S
H2948 C2956 0.950 . S
H2949 C2961 0.950 . S
H2950 C2958 0.950 . S
H2951 C2960 0.950 . S
H2952 C2962 0.950 . S
H2953 C2964 0.950 . S
H2954 C2966 0.950 . S
H2955 C2967 0.950 . S
C2956 H2948 0.950 . S
C2956 C2957 1.386 . S
C2956 C2958 1.391 . S
C2957 C2956 1.386 . S
C2957 C2961 1.393 . S
C2958 H2950 0.950 . S
C2958 C2956 1.391 . S
C2958 C2959 1.400 . S
C2959 C2958 1.400 . S
C2959 C2960 1.398 . S
C2959 C2965 1.491 . S
C2960 H2951 0.950 . S
C2960 C2959 1.398 . S
C2960 C2961 1.391 . S
C2961 H2949 0.950 . S
C2961 C2957 1.393 . S
C2961 C2960 1.391 . S
C2962 H2952 0.950 . S
C2962 C2963 1.386 . S
C2962 C2964 1.391 . S
C2963 C2962 1.386 . S
C2963 C2967 1.393 . S
C2964 H2953 0.950 . S
C2964 C2962 1.391 . S
C2964 C2965 1.400 . S
C2965 C2959 1.491 . S
C2965 C2964 1.400 . S
C2965 C2966 1.398 . S
C2966 H2954 0.950 . S
C2966 C2965 1.398 . S
C2966 C2967 1.391 . S
C2967 H2955 0.950 . S
C2967 C2963 1.393 . S
C2967 C2966 1.391 . S
H2968 C2976 0.950 . S
H2969 C2981 0.950 . S
H2970 C2978 0.950 . S
H2971 C2980 0.950 . S
H2972 C2982 0.950 . S
H2973 C2984 0.950 . S
H2974 C2986 0.950 . S
H2975 C2987 0.950 . S
C2976 H2968 0.950 . S
C2976 C2977 1.386 . S
C2976 C2978 1.391 . S
C2977 C2976 1.386 . S
C2977 C2981 1.393 . S
C2978 H2970 0.950 . S
C2978 C2976 1.391 . S
C2978 C2979 1.400 . S
C2979 C2978 1.400 . S
C2979 C2980 1.398 . S
C2979 C2985 1.491 . S
C2980 H2971 0.950 . S
C2980 C2979 1.398 . S
C2980 C2981 1.391 . S
C2981 H2969 0.950 . S
C2981 C2977 1.393 . S
C2981 C2980 1.391 . S
C2982 H2972 0.950 . S
C2982 C2983 1.386 . S
C2982 C2984 1.391 . S
C2983 C2982 1.386 . S
C2983 C2987 1.393 . S
C2984 H2973 0.950 . S
C2984 C2982 1.391 . S
C2984 C2985 1.400 . S
C2985 C2979 1.491 . S
C2985 C2984 1.400 . S
C2985 C2986 1.398 . S
C2986 H2974 0.950 . S
C2986 C2985 1.398 . S
C2986 C2987 1.391 . S
C2987 H2975 0.950 . S
C2987 C2983 1.393 . S
C2987 C2986 1.391 . S
H2988 C2996 0.950 . S
H2989 C3001 0.950 . S
H2990 C2998 0.950 . S
H2991 C3000 0.950 . S
H2992 C3002 0.950 . S
H2993 C3004 0.950 . S
H2994 C3006 0.950 . S
H2995 C3007 0.950 . S
C2996 H2988 0.950 . S
C2996 C2997 1.386 . S
C2996 C2998 1.391 . S
C2997 C2996 1.386 . S
C2997 C3001 1.393 . S
C2998 H2990 0.950 . S
C2998 C2996 1.391 . S
C2998 C2999 1.400 . S
C2999 C2998 1.400 . S
C2999 C3000 1.398 . S
C2999 C3005 1.491 . S
C3000 H2991 0.950 . S
C3000 C2999 1.398 . S
C3000 C3001 1.391 . S
C3001 H2989 0.950 . S
C3001 C2997 1.393 . S
C3001 C3000 1.391 . S
C3002 H2992 0.950 . S
C3002 C3003 1.386 . S
C3002 C3004 1.391 . S
C3003 C3002 1.386 . S
C3003 C3007 1.393 . S
C3004 H2993 0.950 . S
C3004 C3002 1.391 . S
C3004 C3005 1.400 . S
C3005 C2999 1.491 . S
C3005 C3004 1.400 . S
C3005 C3006 1.398 . S
C3006 H2994 0.950 . S
C3006 C3005 1.398 . S
C3006 C3007 1.391 . S
C3007 H2995 0.950 . S
C3007 C3003 1.393 . S
C3007 C3006 1.391 . S
H3008 C3016 0.950 . S
H3009 C3021 0.950 . S
H3010 C3018 0.950 . S
H3011 C3020 0.950 . S
H3012 C3022 0.950 . S
H3013 C3024 0.950 . S
H3014 C3026 0.950 . S
H3015 C3027 0.950 . S
C3016 H3008 0.950 . S
C3016 C3017 1.386 . S
C3016 C3018 1.391 . S
C3017 C3016 1.386 . S
C3017 C3021 1.393 . S
C3018 H3010 0.950 . S
C3018 C3016 1.391 . S
C3018 C3019 1.400 . S
C3019 C3018 1.400 . S
C3019 C3020 1.398 . S
C3019 C3025 1.491 . S
C3020 H3011 0.950 . S
C3020 C3019 1.398 . S
C3020 C3021 1.391 . S
C3021 H3009 0.950 . S
C3021 C3017 1.393 . S
C3021 C3020 1.391 . S
C3022 H3012 0.950 . S
C3022 C3023 1.386 . S
C3022 C3024 1.391 . S
C3023 C3022 1.386 . S
C3023 C3027 1.393 . S
C3024 H3013 0.950 . S
C3024 C3022 1.391 . S
C3024 C3025 1.400 . S
C3025 C3019 1.491 . S
C3025 C3024 1.400 . S
C3025 C3026 1.398 . S
C3026 H3014 0.950 . S
C3026 C3025 1.398 . S
C3026 C3027 1.391 . S
C3027 H3015 0.950 . S
C3027 C3023 1.393 . S
C3027 C3026 1.391 . S
H3028 C3036 0.950 . S
H3029 C3041 0.950 . S
H3030 C3038 0.950 . S
H3031 C3040 0.950 . S
H3032 C3042 0.950 . S
H3033 C3044 0.950 . S
H3034 C3046 0.950 . S
H3035 C3047 0.950 . S
C3036 H3028 0.950 . S
C3036 C3037 1.386 . S
C3036 C3038 1.391 . S
C3037 C3036 1.386 . S
C3037 C3041 1.393 . S
C3038 H3030 0.950 . S
C3038 C3036 1.391 . S
C3038 C3039 1.400 . S
C3039 C3038 1.400 . S
C3039 C3040 1.398 . S
C3039 C3045 1.491 . S
C3040 H3031 0.950 . S
C3040 C3039 1.398 . S
C3040 C3041 1.391 . S
C3041 H3029 0.950 . S
C3041 C3037 1.393 . S
C3041 C3040 1.391 . S
C3042 H3032 0.950 . S
C3042 C3043 1.386 . S
C3042 C3044 1.391 . S
C3043 C3042 1.386 . S
C3043 C3047 1.393 . S
C3044 H3033 0.950 . S
C3044 C3042 1.391 . S
C3044 C3045 1.400 . S
C3045 C3039 1.491 . S
C3045 C3044 1.400 . S
C3045 C3046 1.398 . S
C3046 H3034 0.950 . S
C3046 C3045 1.398 . S
C3046 C3047 1.391 . S
C3047 H3035 0.950 . S
C3047 C3043 1.393 . S
C3047 C3046 1.391 . S
H3048 C3056 0.950 . S
H3049 C3061 0.950 . S
H3050 C3058 0.950 . S
H3051 C3060 0.950 . S
H3052 C3062 0.950 . S
H3053 C3064 0.950 . S
H3054 C3066 0.950 . S
H3055 C3067 0.950 . S
C3056 H3048 0.950 . S
C3056 C3057 1.386 . S
C3056 C3058 1.391 . S
C3057 C3056 1.386 . S
C3057 C3061 1.393 . S
C3058 H3050 0.950 . S
C3058 C3056 1.391 . S
C3058 C3059 1.400 . S
C3059 C3058 1.400 . S
C3059 C3060 1.398 . S
C3059 C3065 1.491 . S
C3060 H3051 0.950 . S
C3060 C3059 1.398 . S
C3060 C3061 1.391 . S
C3061 H3049 0.950 . S
C3061 C3057 1.393 . S
C3061 C3060 1.391 . S
C3062 H3052 0.950 . S
C3062 C3063 1.386 . S
C3062 C3064 1.391 . S
C3063 C3062 1.386 . S
C3063 C3067 1.393 . S
C3064 H3053 0.950 . S
C3064 C3062 1.391 . S
C3064 C3065 1.400 . S
C3065 C3059 1.491 . S
C3065 C3064 1.400 . S
C3065 C3066 1.398 . S
C3066 H3054 0.950 . S
C3066 C3065 1.398 . S
C3066 C3067 1.391 . S
C3067 H3055 0.950 . S
C3067 C3063 1.393 . S
C3067 C3066 1.391 . S
H3068 C3076 0.950 . S
H3069 C3081 0.950 . S
H3070 C3078 0.950 . S
H3071 C3080 0.950 . S
H3072 C3082 0.950 . S
H3073 C3084 0.950 . S
H3074 C3086 0.950 . S
H3075 C3087 0.950 . S
C3076 H3068 0.950 . S
C3076 C3077 1.386 . S
C3076 C3078 1.391 . S
C3077 C3076 1.386 . S
C3077 C3081 1.393 . S
C3078 H3070 0.950 . S
C3078 C3076 1.391 . S
C3078 C3079 1.400 . S
C3079 C3078 1.400 . S
C3079 C3080 1.398 . S
C3079 C3085 1.491 . S
C3080 H3071 0.950 . S
C3080 C3079 1.398 . S
C3080 C3081 1.391 . S
C3081 H3069 0.950 . S
C3081 C3077 1.393 . S
C3081 C3080 1.391 . S
C3082 H3072 0.950 . S
C3082 C3083 1.386 . S
C3082 C3084 1.391 . S
C3083 C3082 1.386 . S
C3083 C3087 1.393 . S
C3084 H3073 0.950 . S
C3084 C3082 1.391 . S
C3084 C3085 1.400 . S
C3085 C3079 1.491 . S
C3085 C3084 1.400 . S
C3085 C3086 1.398 . S
C3086 H3074 0.950 . S
C3086 C3085 1.398 . S
C3086 C3087 1.391 . S
C3087 H3075 0.950 . S
C3087 C3083 1.393 . S
C3087 C3086 1.391 . S
H3088 C3096 0.950 . S
H3089 C3101 0.950 . S
H3090 C3098 0.950 . S
H3091 C3100 0.950 . S
H3092 C3102 0.950 . S
H3093 C3104 0.950 . S
H3094 C3106 0.950 . S
H3095 C3107 0.950 . S
C3096 H3088 0.950 . S
C3096 C3097 1.386 . S
C3096 C3098 1.391 . S
C3097 C3096 1.386 . S
C3097 C3101 1.393 . S
C3098 H3090 0.950 . S
C3098 C3096 1.391 . S
C3098 C3099 1.400 . S
C3099 C3098 1.400 . S
C3099 C3100 1.398 . S
C3099 C3105 1.491 . S
C3100 H3091 0.950 . S
C3100 C3099 1.398 . S
C3100 C3101 1.391 . S
C3101 H3089 0.950 . S
C3101 C3097 1.393 . S
C3101 C3100 1.391 . S
C3102 H3092 0.950 . S
C3102 C3103 1.386 . S
C3102 C3104 1.391 . S
C3103 C3102 1.386 . S
C3103 C3107 1.393 . S
C3104 H3093 0.950 . S
C3104 C3102 1.391 . S
C3104 C3105 1.400 . S
C3105 C3099 1.491 . S
C3105 C3104 1.400 . S
C3105 C3106 1.398 . S
C3106 H3094 0.950 . S
C3106 C3105 1.398 . S
C3106 C3107 1.391 . S
C3107 H3095 0.950 . S
C3107 C3103 1.393 . S
C3107 C3106 1.391 . S
H3108 C3116 0.950 . S
H3109 C3121 0.950 . S
H3110 C3118 0.950 . S
H3111 C3120 0.950 . S
H3112 C3122 0.950 . S
H3113 C3124 0.950 . S
H3114 C3126 0.950 . S
H3115 C3127 0.950 . S
C3116 H3108 0.950 . S
C3116 C3117 1.386 . S
C3116 C3118 1.391 . S
C3117 C3116 1.386 . S
C3117 C3121 1.393 . S
C3118 H3110 0.950 . S
C3118 C3116 1.391 . S
C3118 C3119 1.400 . S
C3119 C3118 1.400 . S
C3119 C3120 1.398 . S
C3119 C3125 1.491 . S
C3120 H3111 0.950 . S
C3120 C3119 1.398 . S
C3120 C3121 1.391 . S
C3121 H3109 0.950 . S
C3121 C3117 1.393 . S
C3121 C3120 1.391 . S
C3122 H3112 0.950 . S
C3122 C3123 1.386 . S
C3122 C3124 1.391 . S
C3123 C3122 1.386 . S
C3123 C3127 1.393 . S
C3124 H3113 0.950 . S
C3124 C3122 1.391 . S
C3124 C3125 1.400 . S
C3125 C3119 1.491 . S
C3125 C3124 1.400 . S
C3125 C3126 1.398 . S
C3126 H3114 0.950 . S
C3126 C3125 1.398 . S
C3126 C3127 1.391 . S
C3127 H3115 0.950 . S
C3127 C3123 1.393 . S
C3127 C3126 1.391 . S
H3128 C3136 0.950 . S
H3129 C3141 0.950 . S
H3130 C3138 0.950 . S
H3131 C3140 0.950 . S
H3132 C3142 0.950 . S
H3133 C3144 0.950 . S
H3134 C3146 0.950 . S
H3135 C3147 0.950 . S
C3136 H3128 0.950 . S
C3136 C3137 1.386 . S
C3136 C3138 1.391 . S
C3137 C3136 1.386 . S
C3137 C3141 1.393 . S
C3138 H3130 0.950 . S
C3138 C3136 1.391 . S
C3138 C3139 1.400 . S
C3139 C3138 1.400 . S
C3139 C3140 1.398 . S
C3139 C3145 1.491 . S
C3140 H3131 0.950 . S
C3140 C3139 1.398 . S
C3140 C3141 1.391 . S
C3141 H3129 0.950 . S
C3141 C3137 1.393 . S
C3141 C3140 1.391 . S
C3142 H3132 0.950 . S
C3142 C3143 1.386 . S
C3142 C3144 1.391 . S
C3143 C3142 1.386 . S
C3143 C3147 1.393 . S
C3144 H3133 0.950 . S
C3144 C3142 1.391 . S
C3144 C3145 1.400 . S
C3145 C3139 1.491 . S
C3145 C3144 1.400 . S
C3145 C3146 1.398 . S
C3146 H3134 0.950 . S
C3146 C3145 1.398 . S
C3146 C3147 1.391 . S
C3147 H3135 0.950 . S
C3147 C3143 1.393 . S
C3147 C3146 1.391 . S
H3148 C3156 0.950 . S
H3149 C3161 0.950 . S
H3150 C3158 0.950 . S
H3151 C3160 0.950 . S
H3152 C3162 0.950 . S
H3153 C3164 0.950 . S
H3154 C3166 0.950 . S
H3155 C3167 0.950 . S
C3156 H3148 0.950 . S
C3156 C3157 1.386 . S
C3156 C3158 1.391 . S
C3157 C3156 1.386 . S
C3157 C3161 1.393 . S
C3158 H3150 0.950 . S
C3158 C3156 1.391 . S
C3158 C3159 1.400 . S
C3159 C3158 1.400 . S
C3159 C3160 1.398 . S
C3159 C3165 1.491 . S
C3160 H3151 0.950 . S
C3160 C3159 1.398 . S
C3160 C3161 1.391 . S
C3161 H3149 0.950 . S
C3161 C3157 1.393 . S
C3161 C3160 1.391 . S
C3162 H3152 0.950 . S
C3162 C3163 1.386 . S
C3162 C3164 1.391 . S
C3163 C3162 1.386 . S
C3163 C3167 1.393 . S
C3164 H3153 0.950 . S
C3164 C3162 1.391 . S
C3164 C3165 1.400 . S
C3165 C3159 1.491 . S
C3165 C3164 1.400 . S
C3165 C3166 1.398 . S
C3166 H3154 0.950 . S
C3166 C3165 1.398 . S
C3166 C3167 1.391 . S
C3167 H3155 0.950 . S
C3167 C3163 1.393 . S
C3167 C3166 1.391 . S
C1897 C937 1.591 . S
C1903 C52 1.595 . S
C1917 C111 1.594 . S
C1923 C760 1.592 . S
C1937 C170 1.596 . S
C1943 C819 1.590 . S
C1957 C878 1.591 . S
C1963 C229 1.595 . S
C1977 C288 1.591 . S
C1983 C583 1.595 . S
C1997 C347 1.591 . S
C2003 C642 1.595 . S
C2017 C701 1.595 . S
C2023 C406 1.591 . S
C2037 C524 1.593 . S
C2043 C465 1.593 . S
C2057 C996 1.590 . S
C2063 C1881 1.595 . S
C2077 C1055 1.595 . S
C2083 C1704 1.591 . S
C2097 C1114 1.594 . S
C2103 C1763 1.592 . S
C2117 C1822 1.591 . S
C2123 C1173 1.594 . S
C2137 C1232 1.593 . S
C2143 C1527 1.593 . S
C2157 C1291 1.595 . S
C2163 C1586 1.591 . S
C2177 C1645 1.590 . S
C2183 C1350 1.595 . S
C2197 C1409 1.592 . S
C2203 C1468 1.594 . S
C2217 C713 1.542 . S
C2223 C5 1.539 . S
C2237 C64 1.539 . S
C2243 C772 1.542 . S
C2257 C831 1.538 . S
C2263 C123 1.543 . S
C2277 C182 1.538 . S
C2283 C890 1.543 . S
C2297 C241 1.538 . S
C2303 C477 1.542 . S
C2317 C536 1.543 . S
C2323 C300 1.537 . S
C2337 C595 1.542 . S
C2343 C359 1.539 . S
C2357 C654 1.542 . S
C2363 C418 1.539 . S
C2377 C949 1.539 . S
C2383 C1657 1.542 . S
C2397 C1716 1.542 . S
C2403 C1008 1.538 . S
C2417 C1067 1.538 . S
C2423 C1775 1.542 . S
C2437 C1126 1.541 . S
C2443 C1834 1.540 . S
C2457 C1421 1.543 . S
C2463 C1185 1.538 . S
C2477 C1244 1.538 . S
C2483 C1480 1.543 . S
C2497 C1303 1.538 . S
C2503 C1539 1.543 . S
C2517 C1362 1.543 . S
C2523 C1598 1.538 . S
C2537 C33 1.325 . S
C2543 C623 1.326 . S
C2557 C682 1.324 . S
C2563 C92 1.327 . S
C2577 C151 1.331 . S
C2583 C505 1.320 . S
C2597 C564 1.330 . S
C2603 C210 1.321 . S
C2617 C859 1.326 . S
C2623 C269 1.325 . S
C2637 C918 1.331 . S
C2643 C328 1.320 . S
C2657 C741 1.329 . S
C2663 C387 1.322 . S
C2677 C446 1.329 . S
C2683 C800 1.323 . S
C2697 C1567 1.321 . S
C2703 C977 1.330 . S
C2717 C1036 1.325 . S
C2723 C1626 1.326 . S
C2737 C1449 1.329 . S
C2743 C1095 1.322 . S
C2757 C1508 1.331 . S
C2763 C1154 1.320 . S
C2777 C1213 1.331 . S
C2783 C1803 1.320 . S
C2797 C1272 1.321 . S
C2803 C1862 1.330 . S
C2817 C1685 1.322 . S
C2823 C1331 1.329 . S
C2837 C1744 1.320 . S
C2843 C1390 1.331 . S
C2857 C1360 1.345 . S
C2863 C3 1.359 . S
C2877 C1183 1.359 . S
C2883 C62 1.345 . S
C2897 C1242 1.345 . S
C2903 C121 1.346 . S
C2917 C1301 1.340 . S
C2923 C180 1.357 . S
C2937 C1006 1.340 . S
C2943 C239 1.357 . S
C2957 C298 1.354 . S
C2963 C1065 1.340 . S
C2977 C357 1.359 . S
C2983 C1124 1.342 . S
C2997 C416 1.342 . S
C3003 C947 1.350 . S
C3017 C475 1.354 . S
C3023 C1832 1.341 . S
C3037 C1655 1.341 . S
C3043 C534 1.352 . S
C3057 C593 1.358 . S
C3063 C1714 1.349 . S
C3077 C652 1.344 . S
C3083 C1773 1.348 . S
C3097 C1478 1.350 . S
C3103 C711 1.357 . S
C3117 C1537 1.353 . S
C3123 C770 1.341 . S
C3137 C829 1.351 . S
C3143 C1596 1.342 . S
C3157 C888 1.346 . S
C3163 C1419 1.346 . S
