# Generated by pormake.
# Topology uod, (4)-cn, num edge types: 1
# Building blocks:
#     Node 0, Type 0, BuildingBlock: CEKHIL_clean_sbu_0, # of connection points: 4
#     Node 1, Type 0, BuildingBlock: CEKHIL_clean_sbu_0, # of connection points: 4
#     Node 2, Type 0, BuildingBlock: CEKHIL_clean_sbu_0, # of connection points: 4
#     Node 3, Type 0, BuildingBlock: CEKHIL_clean_sbu_0, # of connection points: 4
#     Node 4, Type 0, BuildingBlock: CEKHIL_clean_sbu_0, # of connection points: 4
#     Node 5, Type 0, BuildingBlock: CEKHIL_clean_sbu_0, # of connection points: 4
#     Node 6, Type 0, BuildingBlock: CEKHIL_clean_sbu_0, # of connection points: 4
#     Node 7, Type 0, BuildingBlock: CEKHIL_clean_sbu_0, # of connection points: 4
#     Node 8, Type 0, BuildingBlock: CEKHIL_clean_sbu_0, # of connection points: 4
#     Node 9, Type 0, BuildingBlock: CEKHIL_clean_sbu_0, # of connection points: 4
#     Node 10, Type 0, BuildingBlock: CEKHIL_clean_sbu_0, # of connection points: 4
#     Node 11, Type 0, BuildingBlock: CEKHIL_clean_sbu_0, # of connection points: 4
#     Node 12, Type 0, BuildingBlock: CEKHIL_clean_sbu_0, # of connection points: 4
#     Node 13, Type 0, BuildingBlock: CEKHIL_clean_sbu_0, # of connection points: 4
#     Node 14, Type 0, BuildingBlock: CEKHIL_clean_sbu_0, # of connection points: 4
#     Node 15, Type 0, BuildingBlock: CEKHIL_clean_sbu_0, # of connection points: 4
#     Node 16, Type 0, BuildingBlock: CEKHIL_clean_sbu_0, # of connection points: 4
#     Node 17, Type 0, BuildingBlock: CEKHIL_clean_sbu_0, # of connection points: 4
#     Node 18, Type 0, BuildingBlock: CEKHIL_clean_sbu_0, # of connection points: 4
#     Node 19, Type 0, BuildingBlock: CEKHIL_clean_sbu_0, # of connection points: 4
#     Node 20, Type 0, BuildingBlock: CEKHIL_clean_sbu_0, # of connection points: 4
#     Node 21, Type 0, BuildingBlock: CEKHIL_clean_sbu_0, # of connection points: 4
#     Node 22, Type 0, BuildingBlock: CEKHIL_clean_sbu_0, # of connection points: 4
#     Node 23, Type 0, BuildingBlock: CEKHIL_clean_sbu_0, # of connection points: 4
#     Node 24, Type 0, BuildingBlock: CEKHIL_clean_sbu_0, # of connection points: 4
#     Node 25, Type 0, BuildingBlock: CEKHIL_clean_sbu_0, # of connection points: 4
#     Node 26, Type 0, BuildingBlock: CEKHIL_clean_sbu_0, # of connection points: 4
#     Node 27, Type 0, BuildingBlock: CEKHIL_clean_sbu_0, # of connection points: 4
#     Node 28, Type 0, BuildingBlock: CEKHIL_clean_sbu_0, # of connection points: 4
#     Node 29, Type 0, BuildingBlock: CEKHIL_clean_sbu_0, # of connection points: 4
#     Node 30, Type 0, BuildingBlock: CEKHIL_clean_sbu_0, # of connection points: 4
#     Node 31, Type 0, BuildingBlock: CEKHIL_clean_sbu_0, # of connection points: 4
#     Edge 32, Type (0, 0), BuildingBlock: CIFDUS_clean_linker_0, # of connection points: 2
#     Edge 33, Type (0, 0), BuildingBlock: CIFDUS_clean_linker_0, # of connection points: 2
#     Edge 34, Type (0, 0), BuildingBlock: CIFDUS_clean_linker_0, # of connection points: 2
#     Edge 35, Type (0, 0), BuildingBlock: CIFDUS_clean_linker_0, # of connection points: 2
#     Edge 36, Type (0, 0), BuildingBlock: CIFDUS_clean_linker_0, # of connection points: 2
#     Edge 37, Type (0, 0), BuildingBlock: CIFDUS_clean_linker_0, # of connection points: 2
#     Edge 38, Type (0, 0), BuildingBlock: CIFDUS_clean_linker_0, # of connection points: 2
#     Edge 39, Type (0, 0), BuildingBlock: CIFDUS_clean_linker_0, # of connection points: 2
#     Edge 40, Type (0, 0), BuildingBlock: CIFDUS_clean_linker_0, # of connection points: 2
#     Edge 41, Type (0, 0), BuildingBlock: CIFDUS_clean_linker_0, # of connection points: 2
#     Edge 42, Type (0, 0), BuildingBlock: CIFDUS_clean_linker_0, # of connection points: 2
#     Edge 43, Type (0, 0), BuildingBlock: CIFDUS_clean_linker_0, # of connection points: 2
#     Edge 44, Type (0, 0), BuildingBlock: CIFDUS_clean_linker_0, # of connection points: 2
#     Edge 45, Type (0, 0), BuildingBlock: CIFDUS_clean_linker_0, # of connection points: 2
#     Edge 46, Type (0, 0), BuildingBlock: CIFDUS_clean_linker_0, # of connection points: 2
#     Edge 47, Type (0, 0), BuildingBlock: CIFDUS_clean_linker_0, # of connection points: 2
#     Edge 48, Type (0, 0), BuildingBlock: CIFDUS_clean_linker_0, # of connection points: 2
#     Edge 49, Type (0, 0), BuildingBlock: CIFDUS_clean_linker_0, # of connection points: 2
#     Edge 50, Type (0, 0), BuildingBlock: CIFDUS_clean_linker_0, # of connection points: 2
#     Edge 51, Type (0, 0), BuildingBlock: CIFDUS_clean_linker_0, # of connection points: 2
#     Edge 52, Type (0, 0), BuildingBlock: CIFDUS_clean_linker_0, # of connection points: 2
#     Edge 53, Type (0, 0), BuildingBlock: CIFDUS_clean_linker_0, # of connection points: 2
#     Edge 54, Type (0, 0), BuildingBlock: CIFDUS_clean_linker_0, # of connection points: 2
#     Edge 55, Type (0, 0), BuildingBlock: CIFDUS_clean_linker_0, # of connection points: 2
#     Edge 56, Type (0, 0), BuildingBlock: CIFDUS_clean_linker_0, # of connection points: 2
#     Edge 57, Type (0, 0), BuildingBlock: CIFDUS_clean_linker_0, # of connection points: 2
#     Edge 58, Type (0, 0), BuildingBlock: CIFDUS_clean_linker_0, # of connection points: 2
#     Edge 59, Type (0, 0), BuildingBlock: CIFDUS_clean_linker_0, # of connection points: 2
#     Edge 60, Type (0, 0), BuildingBlock: CIFDUS_clean_linker_0, # of connection points: 2
#     Edge 61, Type (0, 0), BuildingBlock: CIFDUS_clean_linker_0, # of connection points: 2
#     Edge 62, Type (0, 0), BuildingBlock: CIFDUS_clean_linker_0, # of connection points: 2
#     Edge 63, Type (0, 0), BuildingBlock: CIFDUS_clean_linker_0, # of connection points: 2
#     Edge 64, Type (0, 0), BuildingBlock: CIFDUS_clean_linker_0, # of connection points: 2
#     Edge 65, Type (0, 0), BuildingBlock: CIFDUS_clean_linker_0, # of connection points: 2
#     Edge 66, Type (0, 0), BuildingBlock: CIFDUS_clean_linker_0, # of connection points: 2
#     Edge 67, Type (0, 0), BuildingBlock: CIFDUS_clean_linker_0, # of connection points: 2
#     Edge 68, Type (0, 0), BuildingBlock: CIFDUS_clean_linker_0, # of connection points: 2
#     Edge 69, Type (0, 0), BuildingBlock: CIFDUS_clean_linker_0, # of connection points: 2
#     Edge 70, Type (0, 0), BuildingBlock: CIFDUS_clean_linker_0, # of connection points: 2
#     Edge 71, Type (0, 0), BuildingBlock: CIFDUS_clean_linker_0, # of connection points: 2
#     Edge 72, Type (0, 0), BuildingBlock: CIFDUS_clean_linker_0, # of connection points: 2
#     Edge 73, Type (0, 0), BuildingBlock: CIFDUS_clean_linker_0, # of connection points: 2
#     Edge 74, Type (0, 0), BuildingBlock: CIFDUS_clean_linker_0, # of connection points: 2
#     Edge 75, Type (0, 0), BuildingBlock: CIFDUS_clean_linker_0, # of connection points: 2
#     Edge 76, Type (0, 0), BuildingBlock: CIFDUS_clean_linker_0, # of connection points: 2
#     Edge 77, Type (0, 0), BuildingBlock: CIFDUS_clean_linker_0, # of connection points: 2
#     Edge 78, Type (0, 0), BuildingBlock: CIFDUS_clean_linker_0, # of connection points: 2
#     Edge 79, Type (0, 0), BuildingBlock: CIFDUS_clean_linker_0, # of connection points: 2
#     Edge 80, Type (0, 0), BuildingBlock: CIFDUS_clean_linker_0, # of connection points: 2
#     Edge 81, Type (0, 0), BuildingBlock: CIFDUS_clean_linker_0, # of connection points: 2
#     Edge 82, Type (0, 0), BuildingBlock: CIFDUS_clean_linker_0, # of connection points: 2
#     Edge 83, Type (0, 0), BuildingBlock: CIFDUS_clean_linker_0, # of connection points: 2
#     Edge 84, Type (0, 0), BuildingBlock: CIFDUS_clean_linker_0, # of connection points: 2
#     Edge 85, Type (0, 0), BuildingBlock: CIFDUS_clean_linker_0, # of connection points: 2
#     Edge 86, Type (0, 0), BuildingBlock: CIFDUS_clean_linker_0, # of connection points: 2
#     Edge 87, Type (0, 0), BuildingBlock: CIFDUS_clean_linker_0, # of connection points: 2
#     Edge 88, Type (0, 0), BuildingBlock: CIFDUS_clean_linker_0, # of connection points: 2
#     Edge 89, Type (0, 0), BuildingBlock: CIFDUS_clean_linker_0, # of connection points: 2
#     Edge 90, Type (0, 0), BuildingBlock: CIFDUS_clean_linker_0, # of connection points: 2
#     Edge 91, Type (0, 0), BuildingBlock: CIFDUS_clean_linker_0, # of connection points: 2
#     Edge 92, Type (0, 0), BuildingBlock: CIFDUS_clean_linker_0, # of connection points: 2
#     Edge 93, Type (0, 0), BuildingBlock: CIFDUS_clean_linker_0, # of connection points: 2
#     Edge 94, Type (0, 0), BuildingBlock: CIFDUS_clean_linker_0, # of connection points: 2
#     Edge 95, Type (0, 0), BuildingBlock: CIFDUS_clean_linker_0, # of connection points: 2
# Relax obj value: 0.166
# Max RMSD: 0.162
# Mean RMSD: 0.162
data_MOF--net-uod--node1-CEKHIL_clean_sbu_0--edge1-CIFDUS_clean_linker_0
_symmetry_space_group_name_H-M    P1
_symmetry_Int_Tables_number       1
_symmetry_cell_setting            triclinic
loop_
_symmetry_equiv_pos_as_xyz
'x, y, z'
_cell_length_a     80.163219
_cell_length_b     23.090147
_cell_length_c     52.686928
_cell_angle_alpha  89.979041
_cell_angle_beta   89.931585
_cell_angle_gamma 89.991441
loop_
_atom_site_label
_atom_site_type_symbol
_atom_site_fract_x
_atom_site_fract_y
_atom_site_fract_z
_atom_type_partial_charge
Co0 Co 0.05425 0.36178 0.08362 0.0
O1 O 0.03258 0.36424 0.06775 0.0
O2 O 0.05502 0.40791 0.05266 0.0
C3 C 0.0546 0.2669 0.09281 0.0
O4 O 0.07877 0.36688 0.09507 0.0
Co5 Co 0.05605 0.33169 0.14117 0.0
O6 O 0.08052 0.33516 0.13549 0.0
C7 C 0.04323 0.44428 0.12544 0.0
C8 C 0.03906 0.39801 0.05072 0.0
C9 C 0.08729 0.35382 0.11515 0.0
O10 O 0.04848 0.43338 0.10295 0.0
O11 O 0.04374 0.40731 0.14351 0.0
O12 O 0.05847 0.28436 0.07005 0.0
O13 O 0.04884 0.30619 0.10786 0.0
Co14 Co 0.21881 0.86761 0.08751 0.0
O15 O 0.23957 0.86854 0.06922 0.0
O16 O 0.21718 0.8209 0.05666 0.0
C17 C 0.21783 0.96245 0.0966 0.0
O18 O 0.19508 0.85944 0.10243 0.0
Co19 Co 0.22092 0.89748 0.14511 0.0
O20 O 0.19629 0.89091 0.14301 0.0
C21 C 0.23308 0.78572 0.12748 0.0
C22 C 0.23288 0.83345 0.05302 0.0
C23 C 0.18812 0.87165 0.12401 0.0
O24 O 0.2264 0.79685 0.10595 0.0
O25 O 0.23359 0.82236 0.14568 0.0
O26 O 0.21292 0.94423 0.07446 0.0
O27 O 0.22494 0.92416 0.11076 0.0
Co28 Co 0.05829 0.86233 0.1672 0.0
O29 O 0.03816 0.85639 0.18712 0.0
O30 O 0.06203 0.81475 0.19725 0.0
C31 C 0.05713 0.95769 0.1591 0.0
O32 O 0.08164 0.86047 0.15058 0.0
Co33 Co 0.05419 0.89556 0.11017 0.0
O34 O 0.07895 0.89548 0.11079 0.0
C35 C 0.04381 0.78127 0.12744 0.0
C36 C 0.04623 0.82213 0.20224 0.0
C37 C 0.0879 0.87621 0.12894 0.0
O38 O 0.05142 0.79124 0.14838 0.0
O39 O 0.04215 0.81927 0.10995 0.0
O40 O 0.06305 0.93962 0.1807 0.0
O41 O 0.05036 0.9185 0.14505 0.0
Co42 Co 0.21928 0.36774 0.17016 0.0
O43 O 0.24109 0.36984 0.18536 0.0
O44 O 0.21898 0.41484 0.20086 0.0
C45 C 0.21864 0.27279 0.16142 0.0
O46 O 0.19466 0.37288 0.15912 0.0
Co47 Co 0.21733 0.33733 0.11272 0.0
O48 O 0.1929 0.3401 0.11885 0.0
C49 C 0.23059 0.44923 0.12816 0.0
C50 C 0.23496 0.40456 0.20228 0.0
C51 C 0.18613 0.35895 0.13916 0.0
O52 O 0.22502 0.43885 0.1505 0.0
O53 O 0.23009 0.4121 0.11016 0.0
O54 O 0.21502 0.29078 0.18419 0.0
O55 O 0.22438 0.31162 0.14611 0.0
Co56 Co 0.97607 0.62634 0.91509 0.0
O57 O 0.99747 0.62468 0.93166 0.0
O58 O 0.97432 0.58876 0.94815 0.0
C59 C 0.97755 0.71754 0.90101 0.0
O60 O 0.9516 0.62252 0.90331 0.0
Co61 Co 0.97483 0.64281 0.85646 0.0
O62 O 0.95033 0.64711 0.86194 0.0
C63 C 0.98717 0.53437 0.87799 0.0
C64 C 0.99039 0.59643 0.95 0.0
C65 C 0.94326 0.63392 0.88288 0.0
O66 O 0.98115 0.54963 0.89954 0.0
O67 O 0.98735 0.56768 0.85858 0.0
O68 O 0.97268 0.7077 0.92422 0.0
O69 O 0.98277 0.67335 0.88847 0.0
Co70 Co 0.80306 0.1203 0.91625 0.0
O71 O 0.78236 0.12783 0.93478 0.0
O72 O 0.80625 0.16731 0.94645 0.0
C73 C 0.80185 0.02504 0.90789 0.0
O74 O 0.82689 0.12107 0.90154 0.0
Co75 Co 0.80082 0.08749 0.85893 0.0
O76 O 0.82552 0.08832 0.86125 0.0
C77 C 0.79152 0.20386 0.87492 0.0
C78 C 0.79029 0.16131 0.95042 0.0
C79 C 0.83383 0.1067 0.88026 0.0
O80 O 0.79736 0.19205 0.89697 0.0
O81 O 0.79041 0.16644 0.85711 0.0
O82 O 0.80701 0.04274 0.92999 0.0
O83 O 0.79562 0.06454 0.89341 0.0
Co84 Co 0.96361 0.12917 0.84174 0.0
O85 O 0.98358 0.13501 0.82133 0.0
O86 O 0.9599 0.17986 0.81277 0.0
C87 C 0.96383 0.03389 0.84831 0.0
O88 O 0.94046 0.13204 0.85865 0.0
Co89 Co 0.96736 0.09019 0.89817 0.0
O90 O 0.94264 0.09541 0.89823 0.0
C91 C 0.98008 0.20224 0.88218 0.0
C92 C 0.97556 0.17157 0.80716 0.0
C93 C 0.93398 0.11617 0.88007 0.0
O94 O 0.97154 0.19697 0.86174 0.0
O95 O 0.98132 0.16231 0.89888 0.0
O96 O 0.95781 0.0539 0.82711 0.0
O97 O 0.9712 0.07068 0.86282 0.0
Co98 Co 0.81097 0.62437 0.82961 0.0
O99 O 0.78947 0.61509 0.81338 0.0
O100 O 0.81317 0.57992 0.79851 0.0
C101 C 0.80874 0.71881 0.8393 0.0
O102 O 0.83553 0.62598 0.84103 0.0
Co103 Co 0.81253 0.65435 0.88715 0.0
O104 O 0.83703 0.656 0.88167 0.0
C105 C 0.80069 0.54077 0.87077 0.0
C106 C 0.79703 0.58409 0.79633 0.0
C107 C 0.84398 0.63984 0.86106 0.0
O108 O 0.8068 0.55109 0.84872 0.0
O109 O 0.80029 0.57849 0.88854 0.0
O110 O 0.8132 0.70334 0.8165 0.0
O111 O 0.80413 0.67736 0.85413 0.0
Co112 Co 0.05503 0.85905 0.58187 0.0
O113 O 0.03366 0.85483 0.56507 0.0
O114 O 0.05607 0.89528 0.54835 0.0
C115 C 0.05562 0.76912 0.59754 0.0
O116 O 0.07934 0.86897 0.59447 0.0
Co117 Co 0.05493 0.84851 0.64115 0.0
O118 O 0.0795 0.85241 0.63676 0.0
C119 C 0.03986 0.94772 0.61619 0.0
C120 C 0.04014 0.88422 0.54658 0.0
C121 C 0.08709 0.86297 0.61596 0.0
O122 O 0.0483 0.93522 0.59627 0.0
O123 O 0.03934 0.91514 0.6358 0.0
O124 O 0.05984 0.77752 0.57392 0.0
O125 O 0.04934 0.81297 0.60907 0.0
Co126 Co 0.21247 0.37817 0.57902 0.0
O127 O 0.23414 0.37197 0.56339 0.0
O128 O 0.21079 0.33983 0.54621 0.0
C129 C 0.2146 0.47022 0.59249 0.0
O130 O 0.18787 0.37792 0.59055 0.0
Co131 Co 0.21184 0.39328 0.6376 0.0
O132 O 0.18734 0.39818 0.63245 0.0
C133 C 0.22225 0.28321 0.61566 0.0
C134 C 0.22703 0.34342 0.54521 0.0
C135 C 0.1799 0.38745 0.61156 0.0
O136 O 0.21614 0.30067 0.5946 0.0
O137 O 0.22323 0.31562 0.63531 0.0
O138 O 0.21041 0.45947 0.5691 0.0
O139 O 0.21926 0.42581 0.60557 0.0
Co140 Co 0.0497 0.36974 0.67598 0.0
O141 O 0.02881 0.36723 0.69433 0.0
O142 O 0.05302 0.33834 0.70982 0.0
C143 C 0.04721 0.45767 0.65868 0.0
O144 O 0.07382 0.36712 0.66231 0.0
Co145 Co 0.0489 0.37542 0.61678 0.0
O146 O 0.07348 0.3833 0.62008 0.0
C147 C 0.037 0.27311 0.64377 0.0
C148 C 0.03691 0.34261 0.71272 0.0
C149 C 0.08136 0.37541 0.64083 0.0
O150 O 0.04502 0.29021 0.6634 0.0
O151 O 0.03552 0.30374 0.62366 0.0
O152 O 0.05231 0.45287 0.68209 0.0
O153 O 0.04191 0.4108 0.64832 0.0
Co154 Co 0.21683 0.85781 0.68381 0.0
O155 O 0.23805 0.86102 0.70103 0.0
O156 O 0.21462 0.89726 0.71633 0.0
C157 C 0.21802 0.76507 0.67098 0.0
O158 O 0.19259 0.86159 0.67058 0.0
Co159 Co 0.21746 0.84016 0.62528 0.0
O160 O 0.19282 0.83885 0.62891 0.0
C161 C 0.22762 0.95133 0.64658 0.0
C162 C 0.23072 0.89081 0.71866 0.0
C163 C 0.18501 0.85209 0.64922 0.0
O164 O 0.22196 0.93419 0.66802 0.0
O165 O 0.22831 0.91867 0.62699 0.0
O166 O 0.21335 0.77731 0.69403 0.0
O167 O 0.22372 0.80812 0.65796 0.0
Co168 Co 0.97244 0.11254 0.41433 0.0
O169 O 0.99366 0.11165 0.43146 0.0
O170 O 0.97138 0.06563 0.4454 0.0
C171 C 0.97199 0.20774 0.40528 0.0
O172 O 0.94826 0.10644 0.40058 0.0
Co173 Co 0.97353 0.14378 0.35663 0.0
O174 O 0.94893 0.14082 0.36042 0.0
C175 C 0.98513 0.03038 0.37324 0.0
C176 C 0.98722 0.0771 0.44814 0.0
C177 C 0.94095 0.12089 0.37951 0.0
O178 O 0.97911 0.04144 0.39528 0.0
O179 O 0.9855 0.06749 0.35522 0.0
O180 O 0.96742 0.18997 0.42769 0.0
O181 O 0.97843 0.16869 0.39084 0.0
Co182 Co 0.80832 0.61513 0.42828 0.0
O183 O 0.78729 0.623 0.44598 0.0
O184 O 0.81101 0.66211 0.45861 0.0
C185 C 0.80711 0.52001 0.41993 0.0
O186 O 0.83244 0.61519 0.41475 0.0
Co187 Co 0.80769 0.58274 0.37095 0.0
O188 O 0.83236 0.58249 0.37441 0.0
C189 C 0.79639 0.6969 0.387 0.0
C190 C 0.79499 0.65629 0.46198 0.0
C191 C 0.84008 0.60028 0.39408 0.0
O192 O 0.80288 0.68675 0.40877 0.0
O193 O 0.79565 0.65902 0.36932 0.0
O194 O 0.81189 0.53771 0.44223 0.0
O195 O 0.8013 0.55953 0.40503 0.0
Co196 Co 0.97015 0.61041 0.32861 0.0
O197 O 0.99127 0.61791 0.311 0.0
O198 O 0.96755 0.65643 0.298 0.0
C199 C 0.97148 0.51547 0.3375 0.0
O200 O 0.94594 0.61081 0.34182 0.0
Co201 Co 0.97035 0.57882 0.38609 0.0
O202 O 0.94572 0.57906 0.38232 0.0
C203 C 0.98171 0.69292 0.36978 0.0
C204 C 0.98358 0.65053 0.29471 0.0
C205 C 0.93816 0.59659 0.36246 0.0
O206 O 0.97546 0.68258 0.34785 0.0
O207 O 0.98232 0.65514 0.38752 0.0
O208 O 0.96672 0.53244 0.31507 0.0
O209 O 0.97711 0.55555 0.35222 0.0
Co210 Co 0.80906 0.11506 0.34511 0.0
O211 O 0.78792 0.11505 0.32777 0.0
O212 O 0.81016 0.06823 0.31411 0.0
C213 C 0.80967 0.21016 0.3542 0.0
O214 O 0.83314 0.10787 0.35904 0.0
Co215 Co 0.80791 0.14538 0.40278 0.0
O216 O 0.83252 0.14025 0.39951 0.0
C217 C 0.7955 0.03352 0.38565 0.0
C218 C 0.79436 0.08013 0.31124 0.0
C219 C 0.84045 0.12082 0.38028 0.0
O220 O 0.80203 0.04414 0.36393 0.0
O221 O 0.79515 0.0705 0.40372 0.0
O222 O 0.81435 0.19229 0.33186 0.0
O223 O 0.80311 0.17124 0.36861 0.0
Co224 Co 0.5577 0.34984 0.57657 0.0
O225 O 0.53656 0.3517 0.55898 0.0
O226 O 0.55985 0.39125 0.54466 0.0
C227 C 0.55747 0.25723 0.58872 0.0
O228 O 0.58181 0.3557 0.58975 0.0
Co229 Co 0.55752 0.32835 0.63504 0.0
O230 O 0.58212 0.33405 0.63151 0.0
C231 C 0.54459 0.43652 0.61459 0.0
C232 C 0.54384 0.38347 0.54192 0.0
C233 C 0.58961 0.34755 0.61096 0.0
O234 O 0.55149 0.42409 0.59334 0.0
O235 O 0.54419 0.40177 0.63348 0.0
O236 O 0.56216 0.27014 0.56573 0.0
O237 O 0.55127 0.29885 0.60194 0.0
Co238 Co 0.71786 0.87453 0.5845 0.0
O239 O 0.73921 0.86491 0.56785 0.0
O240 O 0.71543 0.82928 0.55363 0.0
C241 C 0.72003 0.96905 0.59378 0.0
O242 O 0.69341 0.87648 0.59661 0.0
Co243 Co 0.71699 0.90605 0.64203 0.0
O244 O 0.69247 0.90901 0.63693 0.0
C245 C 0.72784 0.791 0.6261 0.0
C246 C 0.73155 0.83344 0.5511 0.0
C247 C 0.68524 0.89178 0.61674 0.0
O248 O 0.72211 0.80173 0.60386 0.0
O249 O 0.7284 0.8288 0.64382 0.0
O250 O 0.71547 0.95322 0.5711 0.0
O251 O 0.72488 0.92796 0.60859 0.0
Co252 Co 0.5542 0.86901 0.67652 0.0
O253 O 0.53302 0.86277 0.69357 0.0
O254 O 0.55724 0.84045 0.71099 0.0
C255 C 0.54978 0.95534 0.65843 0.0
O256 O 0.57858 0.87124 0.66412 0.0
Co257 Co 0.55448 0.87194 0.61741 0.0
O258 O 0.57883 0.88446 0.6217 0.0
C259 C 0.54519 0.76618 0.64459 0.0
C260 C 0.541 0.84124 0.71276 0.0
C261 C 0.5864 0.8793 0.64288 0.0
O262 O 0.55155 0.78752 0.66482 0.0
O263 O 0.54357 0.79513 0.62402 0.0
O264 O 0.55503 0.95294 0.68181 0.0
O265 O 0.54591 0.90671 0.64815 0.0
Co266 Co 0.72004 0.36837 0.67321 0.0
O267 O 0.74123 0.37758 0.69021 0.0
O268 O 0.71739 0.41372 0.70406 0.0
C269 C 0.72203 0.2738 0.66401 0.0
O270 O 0.69574 0.36668 0.6606 0.0
Co271 Co 0.72 0.33711 0.61562 0.0
O272 O 0.69543 0.33457 0.62016 0.0
C273 C 0.73019 0.45261 0.63173 0.0
C274 C 0.73349 0.40918 0.70683 0.0
C275 C 0.68791 0.35158 0.64016 0.0
O276 O 0.72452 0.44119 0.65395 0.0
O277 O 0.73096 0.4151 0.61391 0.0
O278 O 0.71736 0.28987 0.68662 0.0
O279 O 0.72721 0.31464 0.64931 0.0
Co280 Co 0.46505 0.60608 0.42453 0.0
O281 O 0.48618 0.59668 0.44146 0.0
O282 O 0.46245 0.55917 0.45502 0.0
C283 C 0.46703 0.70087 0.41608 0.0
O284 O 0.44084 0.60834 0.41138 0.0
Co285 Co 0.46591 0.63762 0.36711 0.0
O286 O 0.44128 0.64077 0.37095 0.0
C287 C 0.47726 0.5243 0.38397 0.0
C288 C 0.47857 0.56369 0.45767 0.0
C289 C 0.43337 0.62415 0.39069 0.0
O290 O 0.4698 0.53405 0.40505 0.0
O291 O 0.47855 0.56231 0.36641 0.0
O292 O 0.4622 0.68386 0.43849 0.0
O293 O 0.47235 0.66062 0.40115 0.0
Co294 Co 0.30844 0.12225 0.43243 0.0
O295 O 0.28667 0.12978 0.44761 0.0
O296 O 0.31003 0.16039 0.4653 0.0
C297 C 0.30604 0.03043 0.4189 0.0
O298 O 0.33313 0.12059 0.4214 0.0
Co299 Co 0.30946 0.10737 0.37384 0.0
O300 O 0.33388 0.10074 0.37945 0.0
C301 C 0.29932 0.21775 0.39568 0.0
C302 C 0.29377 0.1577 0.46599 0.0
C303 C 0.3412 0.1105 0.40053 0.0
O304 O 0.30534 0.20002 0.41677 0.0
O305 O 0.29827 0.18535 0.37604 0.0
O306 O 0.31001 0.04091 0.44241 0.0
O307 O 0.30166 0.07507 0.40573 0.0
Co308 Co 0.47288 0.10579 0.34237 0.0
O309 O 0.4946 0.10778 0.32672 0.0
O310 O 0.47242 0.15302 0.31168 0.0
C311 C 0.4722 0.01091 0.35111 0.0
O312 O 0.44835 0.11128 0.35397 0.0
Co313 Co 0.47131 0.07517 0.39985 0.0
O314 O 0.44685 0.07781 0.39417 0.0
C315 C 0.48367 0.18841 0.3844 0.0
C316 C 0.48838 0.14261 0.30994 0.0
C317 C 0.43994 0.09725 0.37409 0.0
O318 O 0.47869 0.17678 0.36189 0.0
O319 O 0.48313 0.15175 0.4026 0.0
O320 O 0.46847 0.02898 0.32841 0.0
O321 O 0.47812 0.04958 0.36632 0.0
Co322 Co 0.30293 0.64368 0.32694 0.0
O323 O 0.28139 0.64409 0.31084 0.0
O324 O 0.30399 0.60425 0.29426 0.0
C325 C 0.30286 0.73624 0.34013 0.0
O326 O 0.32736 0.63686 0.33887 0.0
Co327 Co 0.30357 0.66022 0.38553 0.0
O328 O 0.3281 0.65951 0.38053 0.0
C329 C 0.29259 0.54971 0.3645 0.0
C330 C 0.28797 0.6137 0.29275 0.0
C331 C 0.33539 0.64563 0.35987 0.0
O332 O 0.29743 0.56747 0.3427 0.0
O333 O 0.29269 0.58179 0.3843 0.0
O334 O 0.307 0.72398 0.31684 0.0
O335 O 0.29705 0.69354 0.35325 0.0
Co336 Co 0.56371 0.86402 0.08073 0.0
O337 O 0.54227 0.86404 0.06441 0.0
O338 O 0.56501 0.9015 0.04741 0.0
C339 C 0.56276 0.77217 0.09475 0.0
O340 O 0.58813 0.869 0.09329 0.0
Co341 Co 0.56336 0.8513 0.13942 0.0
O342 O 0.58794 0.84741 0.13511 0.0
C343 C 0.55224 0.95944 0.11642 0.0
C344 C 0.54896 0.89257 0.04589 0.0
C345 C 0.59574 0.85925 0.11463 0.0
O346 O 0.55847 0.94145 0.09548 0.0
O347 O 0.55152 0.92794 0.13638 0.0
O348 O 0.5673 0.78302 0.0715 0.0
O349 O 0.5572 0.81606 0.10735 0.0
Co350 Co 0.71568 0.37159 0.07763 0.0
O351 O 0.73643 0.36526 0.05928 0.0
O352 O 0.71216 0.334 0.045 0.0
C353 C 0.71863 0.46343 0.091 0.0
O354 O 0.69173 0.37196 0.09197 0.0
Co355 Co 0.71773 0.38618 0.13613 0.0
O356 O 0.69306 0.39221 0.13381 0.0
C357 C 0.72701 0.27605 0.11301 0.0
C358 C 0.72827 0.33766 0.04184 0.0
C359 C 0.68471 0.38191 0.11371 0.0
O360 O 0.72003 0.29371 0.09259 0.0
O361 O 0.72887 0.30837 0.13253 0.0
O362 O 0.71325 0.45295 0.06815 0.0
O363 O 0.72388 0.41885 0.10346 0.0
Co364 Co 0.55545 0.38387 0.18434 0.0
O365 O 0.53418 0.38372 0.20128 0.0
O366 O 0.55695 0.34276 0.21664 0.0
C367 C 0.55539 0.47696 0.17205 0.0
O368 O 0.57968 0.37784 0.17124 0.0
Co369 Co 0.55485 0.40278 0.12588 0.0
O370 O 0.57944 0.40429 0.12997 0.0
C371 C 0.54444 0.29126 0.14645 0.0
C372 C 0.54097 0.35243 0.21885 0.0
C373 C 0.58724 0.38919 0.15001 0.0
O374 O 0.54963 0.30844 0.16814 0.0
O375 O 0.5442 0.32391 0.12682 0.0
O376 O 0.55978 0.46347 0.19509 0.0
O377 O 0.54922 0.43514 0.15878 0.0
Co378 Co 0.72603 0.85143 0.18144 0.0
O379 O 0.74756 0.85092 0.19777 0.0
O380 O 0.72509 0.89189 0.21404 0.0
C381 C 0.72592 0.75834 0.16882 0.0
O382 O 0.70158 0.85822 0.16906 0.0
Co383 Co 0.72573 0.83291 0.1229 0.0
O384 O 0.70119 0.83281 0.12767 0.0
C385 C 0.7364 0.94443 0.14329 0.0
C386 C 0.74107 0.88175 0.21576 0.0
C387 C 0.69371 0.84789 0.148 0.0
O388 O 0.73172 0.92707 0.16525 0.0
O389 O 0.73627 0.91192 0.12363 0.0
O390 O 0.72177 0.7715 0.19201 0.0
O391 O 0.73189 0.80045 0.15551 0.0
Co392 Co 0.47761 0.12529 0.92066 0.0
O393 O 0.49984 0.12376 0.93462 0.0
O394 O 0.47822 0.07902 0.9517 0.0
C395 C 0.47661 0.2201 0.91151 0.0
O396 O 0.45269 0.11951 0.91097 0.0
Co397 Co 0.47428 0.15509 0.86318 0.0
O398 O 0.45004 0.15162 0.87068 0.0
C399 C 0.4865 0.04114 0.87801 0.0
C400 C 0.4942 0.08973 0.95219 0.0
C401 C 0.44372 0.13263 0.89131 0.0
O402 O 0.48271 0.05367 0.90099 0.0
O403 O 0.48539 0.07749 0.85976 0.0
O404 O 0.47363 0.20256 0.93456 0.0
O405 O 0.48206 0.18103 0.89609 0.0
Co406 Co 0.30041 0.59747 0.92418 0.0
O407 O 0.27848 0.59954 0.93925 0.0
O408 O 0.30062 0.64317 0.95528 0.0
C409 C 0.30105 0.5028 0.91476 0.0
O410 O 0.32512 0.60271 0.91351 0.0
Co411 Co 0.30287 0.5681 0.86655 0.0
O412 O 0.32722 0.5707 0.87315 0.0
C413 C 0.29112 0.68233 0.88199 0.0
C414 C 0.28464 0.63297 0.95663 0.0
C415 C 0.33382 0.58943 0.89359 0.0
O416 O 0.29514 0.66955 0.90485 0.0
O417 O 0.29191 0.64604 0.86368 0.0
O418 O 0.30446 0.51994 0.93772 0.0
O419 O 0.29541 0.54218 0.89967 0.0
Co420 Co 0.46494 0.62224 0.83605 0.0
O421 O 0.48622 0.63279 0.81942 0.0
O422 O 0.46228 0.66743 0.80522 0.0
C423 C 0.46749 0.52785 0.84521 0.0
O424 O 0.44058 0.61901 0.84833 0.0
Co425 Co 0.46461 0.592 0.89356 0.0
O426 O 0.44002 0.58896 0.88907 0.0
C427 C 0.47618 0.70517 0.87654 0.0
C428 C 0.47843 0.66413 0.80277 0.0
C429 C 0.43261 0.60444 0.86875 0.0
O430 O 0.46906 0.69521 0.85523 0.0
O431 O 0.47723 0.66727 0.89418 0.0
O432 O 0.46278 0.54371 0.82261 0.0
O433 O 0.47226 0.56904 0.86006 0.0
Co434 Co 0.3116 0.10205 0.83767 0.0
O435 O 0.28992 0.09305 0.82211 0.0
O436 O 0.31329 0.05695 0.80654 0.0
C437 C 0.30959 0.19654 0.84711 0.0
O438 O 0.33626 0.10392 0.84886 0.0
Co439 Co 0.31308 0.13206 0.89523 0.0
O440 O 0.33755 0.13434 0.88951 0.0
C441 C 0.3011 0.01891 0.87879 0.0
C442 C 0.29711 0.06146 0.80494 0.0
C443 C 0.34461 0.11835 0.86896 0.0
O444 O 0.30754 0.02905 0.85696 0.0
O445 O 0.30056 0.05669 0.89653 0.0
O446 O 0.31382 0.18075 0.82427 0.0
O447 O 0.30498 0.15534 0.86208 0.0
H448 H 0.03833 0.69923 0.16297 0.0
H449 H 0.03648 0.72917 0.08209 0.0
H450 H 0.03295 0.62537 0.07479 0.0
H451 H 0.0353 0.52661 0.091 0.0
H452 H 0.03935 0.49672 0.17173 0.0
H453 H 0.03677 0.60059 0.17952 0.0
C454 C 0.03695 0.68317 0.14373 0.0
C455 C 0.03815 0.72147 0.12303 0.0
C456 C 0.03545 0.62362 0.13968 0.0
C457 C 0.03582 0.70039 0.0983 0.0
C458 C 0.03389 0.64109 0.09413 0.0
C459 C 0.0354 0.54266 0.11036 0.0
C460 C 0.03801 0.50427 0.13074 0.0
C461 C 0.03448 0.60229 0.11462 0.0
C462 C 0.0376 0.52548 0.15571 0.0
C463 C 0.03621 0.58485 0.16016 0.0
H464 H 0.23869 0.70417 0.09168 0.0
H465 H 0.23992 0.73202 0.17275 0.0
H466 H 0.24244 0.62775 0.17964 0.0
H467 H 0.23912 0.52981 0.16298 0.0
H468 H 0.23529 0.50218 0.08208 0.0
H469 H 0.23922 0.60581 0.07475 0.0
C470 C 0.23974 0.6876 0.11089 0.0
C471 C 0.23862 0.72558 0.13173 0.0
C472 C 0.24052 0.62778 0.11471 0.0
C473 C 0.24052 0.70363 0.15641 0.0
C474 C 0.24185 0.64403 0.16036 0.0
C475 C 0.23933 0.54626 0.14368 0.0
C476 C 0.23642 0.50869 0.12311 0.0
C477 C 0.24101 0.60579 0.13969 0.0
C478 C 0.23727 0.53034 0.09824 0.0
C479 C 0.23943 0.58957 0.09406 0.0
H480 H 0.99123 0.27611 0.84683 0.0
H481 H 0.98579 0.25518 0.92781 0.0
H482 H 0.99127 0.35853 0.93395 0.0
H483 H 0.99165 0.45566 0.91547 0.0
H484 H 0.99449 0.47649 0.83403 0.0
H485 H 0.99635 0.37177 0.82889 0.0
C486 C 0.99156 0.29408 0.86587 0.0
C487 C 0.98762 0.25904 0.88681 0.0
C488 C 0.99404 0.35336 0.86908 0.0
C489 C 0.98858 0.28185 0.91143 0.0
C490 C 0.99159 0.34086 0.91489 0.0
C491 C 0.99293 0.43742 0.89659 0.0
C492 C 0.99231 0.47354 0.87509 0.0
C493 C 0.99337 0.37732 0.89373 0.0
C494 C 0.99458 0.44949 0.85085 0.0
C495 C 0.99558 0.38965 0.84788 0.0
H496 H 0.79331 0.45842 0.83607 0.0
H497 H 0.79435 0.49051 0.91685 0.0
H498 H 0.78838 0.38848 0.92499 0.0
H499 H 0.78705 0.28927 0.90928 0.0
H500 H 0.78786 0.25628 0.82857 0.0
H501 H 0.78846 0.36035 0.82027 0.0
C502 C 0.79212 0.44325 0.85549 0.0
C503 C 0.79473 0.48155 0.87586 0.0
C504 C 0.78903 0.38458 0.86001 0.0
C505 C 0.79264 0.46167 0.90086 0.0
C506 C 0.78926 0.40338 0.90552 0.0
C507 C 0.78713 0.30476 0.88983 0.0
C508 C 0.78786 0.26518 0.86956 0.0
C509 C 0.78807 0.36425 0.88525 0.0
C510 C 0.78748 0.28588 0.8445 0.0
C511 C 0.78795 0.34533 0.83976 0.0
H512 H 0.03225 0.00837 0.65848 0.0
H513 H 0.0308 0.01637 0.57663 0.0
H514 H 0.02576 0.12038 0.57842 0.0
H515 H 0.02825 0.20968 0.60274 0.0
H516 H 0.0323 0.20207 0.68443 0.0
H517 H 0.02946 0.09708 0.68324 0.0
C518 C 0.03036 0.03263 0.64108 0.0
C519 C 0.03243 0.00557 0.6175 0.0
C520 C 0.0282 0.09255 0.64221 0.0
C521 C 0.02971 0.03701 0.59503 0.0
C522 C 0.02685 0.09636 0.59602 0.0
C523 C 0.0281 0.18521 0.62032 0.0
C524 C 0.0311 0.21302 0.64351 0.0
C525 C 0.02712 0.12491 0.61944 0.0
C526 C 0.03052 0.18111 0.66623 0.0
C527 C 0.02889 0.12116 0.66559 0.0
H528 H 0.23051 0.01526 0.60348 0.0
H529 H 0.23402 0.02665 0.68511 0.0
H530 H 0.23474 0.13189 0.68262 0.0
H531 H 0.23009 0.22025 0.65781 0.0
H532 H 0.22604 0.20827 0.5762 0.0
H533 H 0.22999 0.10409 0.57824 0.0
C534 C 0.23181 0.04071 0.62067 0.0
C535 C 0.23178 0.0133 0.64441 0.0
C536 C 0.23185 0.10128 0.6192 0.0
C537 C 0.23364 0.04685 0.66655 0.0
C538 C 0.23403 0.10707 0.6652 0.0
C539 C 0.23033 0.19498 0.64046 0.0
C540 C 0.22729 0.22182 0.61704 0.0
C541 C 0.23242 0.13476 0.6417 0.0
C542 C 0.22791 0.18854 0.59464 0.0
C543 C 0.23022 0.12886 0.59571 0.0
H544 H 0.99085 0.94651 0.40798 0.0
H545 H 0.9903 0.97836 0.32716 0.0
H546 H 0.99192 0.87436 0.31915 0.0
H547 H 0.9887 0.77565 0.33509 0.0
H548 H 0.98723 0.74412 0.4159 0.0
H549 H 0.99137 0.84729 0.42393 0.0
C550 C 0.99132 0.93084 0.38857 0.0
C551 C 0.98999 0.96993 0.36817 0.0
C552 C 0.99167 0.87121 0.38413 0.0
C553 C 0.9911 0.94911 0.34318 0.0
C554 C 0.99191 0.88966 0.3386 0.0
C555 C 0.98946 0.7912 0.35449 0.0
C556 C 0.9872 0.75264 0.37489 0.0
C557 C 0.99141 0.85046 0.35893 0.0
C558 C 0.98871 0.77309 0.39988 0.0
C559 C 0.99102 0.83205 0.40447 0.0
H560 H 0.78901 0.77833 0.42196 0.0
H561 H 0.7912 0.74951 0.34102 0.0
H562 H 0.78772 0.85331 0.33358 0.0
H563 H 0.78908 0.95187 0.35025 0.0
H564 H 0.78924 0.98068 0.43128 0.0
H565 H 0.78639 0.87665 0.43852 0.0
C566 C 0.78853 0.79462 0.40265 0.0
C567 C 0.79086 0.75667 0.38206 0.0
C568 C 0.78707 0.85418 0.39858 0.0
C569 C 0.78968 0.77803 0.35718 0.0
C570 C 0.78777 0.83734 0.35293 0.0
C571 C 0.78827 0.93555 0.36953 0.0
C572 C 0.78988 0.97366 0.39024 0.0
C573 C 0.78725 0.87584 0.37353 0.0
C574 C 0.78827 0.95213 0.41504 0.0
C575 C 0.78675 0.89267 0.41918 0.0
H576 H 0.53452 0.70159 0.60482 0.0
H577 H 0.54586 0.69172 0.68489 0.0
H578 H 0.5434 0.58671 0.68355 0.0
H579 H 0.54281 0.49792 0.65821 0.0
H580 H 0.53316 0.50826 0.57774 0.0
H581 H 0.5298 0.61294 0.58083 0.0
C582 C 0.53621 0.67663 0.62208 0.0
C583 C 0.54088 0.70423 0.64468 0.0
C584 C 0.53516 0.61629 0.6211 0.0
C585 C 0.54266 0.67135 0.66702 0.0
C586 C 0.54124 0.61128 0.66633 0.0
C587 C 0.53952 0.52298 0.64152 0.0
C588 C 0.5386 0.49603 0.61774 0.0
C589 C 0.53821 0.58324 0.64324 0.0
C590 C 0.53426 0.52862 0.5962 0.0
C591 C 0.53237 0.58837 0.59792 0.0
H592 H 0.73417 0.70656 0.59195 0.0
H593 H 0.7328 0.74072 0.67255 0.0
H594 H 0.73621 0.63753 0.68125 0.0
H595 H 0.73533 0.53789 0.66593 0.0
H596 H 0.7349 0.50355 0.58531 0.0
H597 H 0.73675 0.60721 0.57665 0.0
C598 C 0.73477 0.69157 0.61145 0.0
C599 C 0.73278 0.73091 0.63159 0.0
C600 C 0.7363 0.63235 0.61628 0.0
C601 C 0.73407 0.71114 0.65672 0.0
C602 C 0.73596 0.65218 0.6617 0.0
C603 C 0.73582 0.55295 0.64643 0.0
C604 C 0.73452 0.5133 0.62628 0.0
C605 C 0.7364 0.61238 0.64161 0.0
C606 C 0.73566 0.5333 0.60116 0.0
C607 C 0.73663 0.59253 0.59619 0.0
H608 H 0.48377 0.44466 0.42005 0.0
H609 H 0.48537 0.47169 0.33894 0.0
H610 H 0.49117 0.36873 0.33254 0.0
H611 H 0.49096 0.2705 0.34958 0.0
H612 H 0.48667 0.24284 0.43046 0.0
H613 H 0.48724 0.34744 0.43744 0.0
C614 C 0.48551 0.42819 0.40094 0.0
C615 C 0.48362 0.46522 0.37991 0.0
C616 C 0.48833 0.36907 0.39742 0.0
C617 C 0.4865 0.44378 0.35537 0.0
C618 C 0.48977 0.38499 0.35173 0.0
C619 C 0.49038 0.28721 0.36882 0.0
C620 C 0.48826 0.24911 0.38945 0.0
C621 C 0.48996 0.34705 0.37256 0.0
C622 C 0.48807 0.27131 0.41425 0.0
C623 C 0.48826 0.33106 0.41822 0.0
H624 H 0.29055 0.48575 0.4077 0.0
H625 H 0.28596 0.47376 0.3262 0.0
H626 H 0.28578 0.36851 0.32882 0.0
H627 H 0.29104 0.28044 0.35361 0.0
H628 H 0.29614 0.29323 0.43507 0.0
H629 H 0.29187 0.39722 0.43299 0.0
C630 C 0.28913 0.46018 0.39057 0.0
C631 C 0.28867 0.48752 0.36682 0.0
C632 C 0.28941 0.39963 0.39209 0.0
C633 C 0.28668 0.45372 0.34477 0.0
C634 C 0.28661 0.39347 0.34619 0.0
C635 C 0.29099 0.30585 0.37092 0.0
C636 C 0.29438 0.27925 0.3943 0.0
C637 C 0.28868 0.36599 0.36966 0.0
C638 C 0.29399 0.31273 0.41665 0.0
C639 C 0.29149 0.37231 0.41556 0.0
H640 H 0.54286 0.22697 0.10327 0.0
H641 H 0.53722 0.21578 0.18465 0.0
H642 H 0.53712 0.11051 0.18228 0.0
H643 H 0.54292 0.02234 0.15792 0.0
H644 H 0.54912 0.03403 0.07659 0.0
H645 H 0.54454 0.13795 0.07822 0.0
C646 C 0.54121 0.20155 0.1204 0.0
C647 C 0.54045 0.22912 0.14409 0.0
C648 C 0.54154 0.14093 0.11903 0.0
C649 C 0.53818 0.19553 0.16615 0.0
C650 C 0.53815 0.13527 0.16487 0.0
C651 C 0.54301 0.04745 0.14052 0.0
C652 C 0.54683 0.02058 0.11734 0.0
C653 C 0.54055 0.10754 0.14153 0.0
C654 C 0.54662 0.05372 0.09487 0.0
C655 C 0.54396 0.11328 0.09571 0.0
H656 H 0.73647 0.00837 0.10002 0.0
H657 H 0.74437 0.02055 0.1809 0.0
H658 H 0.74399 0.12587 0.17831 0.0
H659 H 0.73733 0.21366 0.15411 0.0
H660 H 0.72869 0.2006 0.07336 0.0
H661 H 0.73356 0.09684 0.07496 0.0
C662 C 0.73851 0.03403 0.11697 0.0
C663 C 0.74009 0.00671 0.14062 0.0
C664 C 0.73785 0.09457 0.11551 0.0
C665 C 0.74282 0.04061 0.16245 0.0
C666 C 0.74256 0.10087 0.16104 0.0
C667 C 0.73674 0.18826 0.13682 0.0
C668 C 0.73222 0.21471 0.11385 0.0
C669 C 0.73938 0.12825 0.13783 0.0
C670 C 0.73175 0.18122 0.09151 0.0
C671 C 0.73459 0.12178 0.09232 0.0
H672 H 0.48248 0.7861 0.84079 0.0
H673 H 0.48484 0.75598 0.92166 0.0
H674 H 0.49178 0.85782 0.92855 0.0
H675 H 0.49283 0.95648 0.91216 0.0
H676 H 0.48813 0.9876 0.83158 0.0
H677 H 0.48697 0.88338 0.82395 0.0
C678 C 0.4846 0.80165 0.85995 0.0
C679 C 0.48266 0.76405 0.88078 0.0
C680 C 0.48817 0.86019 0.86378 0.0
C681 C 0.48599 0.78434 0.90537 0.0
C682 C 0.48994 0.84249 0.9093 0.0
C683 C 0.49178 0.94061 0.89284 0.0
C684 C 0.49008 0.97977 0.87251 0.0
C685 C 0.4904 0.88106 0.88872 0.0
C686 C 0.48924 0.95842 0.84759 0.0
C687 C 0.48844 0.89887 0.84324 0.0
H688 H 0.28588 0.7677 0.91626 0.0
H689 H 0.28852 0.73535 0.83556 0.0
H690 H 0.28948 0.83941 0.8275 0.0
H691 H 0.29419 0.9371 0.8437 0.0
H692 H 0.29369 0.96857 0.92454 0.0
H693 H 0.28719 0.86669 0.93221 0.0
C694 C 0.28643 0.78327 0.89684 0.0
C695 C 0.28759 0.74379 0.87656 0.0
C696 C 0.28765 0.84277 0.89242 0.0
C697 C 0.28783 0.76477 0.85153 0.0
C698 C 0.28851 0.82423 0.84692 0.0
C699 C 0.29257 0.92184 0.86303 0.0
C700 C 0.29489 0.95988 0.88358 0.0
C701 C 0.28922 0.86326 0.86729 0.0
C702 C 0.29222 0.9399 0.90843 0.0
C703 C 0.28853 0.88171 0.91282 0.0
H704 H 0.98272 0.50318 0.97995 0.0
H705 H 0.02181 0.62636 0.96418 0.0
H706 H 0.04055 0.57514 0.99297 0.0
H707 H 0.04622 0.49371 0.02203 0.0
H708 H 1.0072 0.37015 0.03767 0.0
H709 H 0.98829 0.42232 0.00947 0.0
C710 C 0.99524 0.5193 0.98314 0.0
C711 C 1.00077 0.56888 0.97004 0.0
C712 C 1.00614 0.48885 0.99943 0.0
C713 C 0.01718 0.58848 0.97408 0.0
C714 C 0.02797 0.559 0.99045 0.0
C715 C 0.03364 0.47788 0.01905 0.0
C716 C 0.02823 0.42771 0.03182 0.0
C717 C 0.02268 0.50867 1.003 0.0
C718 C 1.01176 0.40844 0.02802 0.0
C719 C 1.00088 0.43844 0.01195 0.0
H720 H 0.29 0.73387 0.98239 0.0
H721 H 0.25373 0.59827 0.97174 0.0
H722 H 0.23402 0.64922 0.99926 0.0
H723 H 0.22697 0.73291 0.02661 0.0
H724 H 0.26323 0.86905 0.03641 0.0
H725 H 0.28277 0.81815 0.00885 0.0
C726 C 0.27786 0.71516 0.98636 0.0
C727 C 0.27345 0.66196 0.97524 0.0
C728 C 0.26641 0.74539 1.0018 0.0
C729 C 0.25751 0.63897 0.98017 0.0
C730 C 0.24618 0.66826 0.99583 0.0
C731 C 0.23904 0.75181 0.02238 0.0
C732 C 0.24353 0.80498 0.03351 0.0
C733 C 0.25041 0.72178 0.00664 0.0
C734 C 0.25937 0.82831 0.02809 0.0
C735 C 0.27064 0.79905 0.0124 0.0
H736 H 1.01274 0.81767 0.2103 0.0
H737 H 0.05926 0.7489 0.23829 0.0
H738 H 0.044 0.6885 0.26872 0.0
H739 H 0.01734 0.65468 0.2872 0.0
H740 H 0.97094 0.72318 0.25853 0.0
H741 H 0.98626 0.78363 0.2284 0.0
C742 C 0.0196 0.78987 0.22318 0.0
C743 C 0.03719 0.78834 0.22209 0.0
C744 C 1.01073 0.75464 0.24035 0.0
C745 C 0.04577 0.75138 0.23878 0.0
C746 C 0.03702 0.7166 0.25613 0.0
C747 C 1.01055 0.68248 0.27423 0.0
C748 C 0.99294 0.68398 0.27511 0.0
C749 C 0.01949 0.71761 0.257 0.0
C750 C 0.98443 0.72074 0.25825 0.0
C751 C 0.99321 0.75559 0.24106 0.0
H752 H 0.22965 0.50752 0.2267 0.0
H753 H 0.26612 0.37213 0.21668 0.0
H754 H 0.28627 0.42656 0.2419 0.0
H755 H 0.29367 0.5129 0.26706 0.0
H756 H 0.25718 0.64803 0.27736 0.0
H757 H 0.23716 0.5944 0.25151 0.0
C758 C 0.24192 0.48962 0.23035 0.0
C759 C 0.24627 0.43546 0.22004 0.0
C760 C 0.25362 0.52176 0.24456 0.0
C761 C 0.26238 0.4135 0.22453 0.0
C762 C 0.27397 0.4448 0.23884 0.0
C763 C 0.28145 0.53106 0.26322 0.0
C764 C 0.27702 0.58475 0.27389 0.0
C765 C 0.26981 0.49922 0.2488 0.0
C766 C 0.26097 0.60701 0.26922 0.0
C767 C 0.24945 0.57614 0.25458 0.0
H768 H 0.75662 0.17202 0.95616 0.0
H769 H 0.80333 0.22995 0.98785 0.0
H770 H 0.78827 0.29165 0.01788 0.0
H771 H 0.76187 0.32904 0.03522 0.0
H772 H 0.71512 0.27148 1.00353 0.0
H773 H 0.73017 0.21048 0.97318 0.0
C774 C 0.76353 0.19776 0.96977 0.0
C775 C 0.78114 0.19582 0.96985 0.0
C776 C 0.75477 0.23381 0.98678 0.0
C777 C 0.78983 0.23017 0.98743 0.0
C778 C 0.7812 0.26571 0.00455 0.0
C779 C 0.75493 0.30365 0.02151 0.0
C780 C 0.73733 0.30528 0.02161 0.0
C781 C 0.76368 0.26807 0.00433 0.0
C782 C 0.72863 0.27155 1.00381 0.0
C783 C 0.73725 0.23633 0.98654 0.0
H784 H 1.0091 0.18368 0.8011 0.0
H785 H 0.9621 0.23992 0.76984 0.0
H786 H 0.9769 0.30046 0.73895 0.0
H787 H 1.00324 0.33605 0.7203 0.0
H788 H 0.05018 0.28058 0.75213 0.0
H789 H 0.03535 0.22196 0.78352 0.0
C790 C 1.00206 0.20882 0.78741 0.0
C791 C 0.98447 0.20651 0.7876 0.0
C792 C 1.01066 0.24426 0.76997 0.0
C793 C 0.97561 0.24037 0.77001 0.0
C794 C 0.98408 0.2752 0.75239 0.0
C795 C 1.01025 0.31172 0.73429 0.0
C796 C 0.02787 0.31303 0.73381 0.0
C797 C 1.00161 0.27749 0.75218 0.0
C798 C 0.03667 0.28081 0.75206 0.0
C799 C 0.02817 0.2469 0.76995 0.0
H800 H 0.76721 0.41903 0.71171 0.0
H801 H 0.72096 0.47678 0.74516 0.0
H802 H 0.73645 0.53724 0.77513 0.0
H803 H 0.76319 0.57433 0.79171 0.0
H804 H 0.80937 0.51668 0.75798 0.0
H805 H 0.79386 0.45617 0.72816 0.0
C806 C 0.76049 0.44447 0.72568 0.0
C807 C 0.74289 0.44292 0.72623 0.0
C808 C 0.76949 0.47972 0.74267 0.0
C809 C 0.73446 0.47675 0.74434 0.0
C810 C 0.74333 0.51157 0.76144 0.0
C811 C 0.76988 0.5489 0.77771 0.0
C812 C 0.78748 0.55049 0.77705 0.0
C813 C 0.76085 0.51367 0.7607 0.0
C814 C 0.79587 0.51671 0.75889 0.0
C815 C 0.78699 0.48183 0.74187 0.0
H816 H 0.98211 0.97602 0.47502 0.0
H817 H 0.01759 0.11411 0.46387 0.0
H818 H 0.03752 0.06532 0.49146 0.0
H819 H 0.04522 0.98301 0.5189 0.0
H820 H 1.00976 0.84545 0.53094 0.0
H821 H 0.98982 0.89343 0.50281 0.0
C822 C 0.9941 -0.00425 0.47892 0.0
C823 C 0.99822 0.04903 0.46743 0.0
C824 C 1.00574 0.96687 0.4947 0.0
C825 C 0.01399 0.07333 0.47245 0.0
C826 C 0.02549 0.04526 0.48817 0.0
C827 C 0.03325 0.96304 0.515 0.0
C828 C 0.02914 0.91018 0.52678 0.0
C829 C 0.02161 -0.00828 0.49924 0.0
C830 C 0.01335 0.8858 0.52197 0.0
C831 C 1.00187 0.91346 0.50599 0.0
H832 H 0.26009 0.17282 0.46563 0.0
H833 H 0.30444 0.22178 0.50671 0.0
H834 H 0.28778 0.28567 0.53383 0.0
H835 H 0.26071 0.32838 0.54554 0.0
H836 H 0.21635 0.27929 0.5045 0.0
H837 H 0.23301 0.21544 0.47737 0.0
C838 C 0.26614 0.19695 0.48068 0.0
C839 C 0.28354 0.19197 0.48423 0.0
C840 C 0.2565 0.23432 0.49593 0.0
C841 C 0.2911 0.22426 0.50366 0.0
C842 C 0.28157 0.26113 0.51907 0.0
C843 C 0.25466 0.30425 0.53049 0.0
C844 C 0.23725 0.30921 0.52695 0.0
C845 C 0.26429 0.26687 0.51524 0.0
C846 C 0.2297 0.27686 0.50754 0.0
C847 C 0.23922 0.24001 0.49212 0.0
H848 H 0.26458 0.89704 0.72232 0.0
H849 H 0.21942 0.9575 0.75822 0.0
H850 H 0.23594 0.01663 0.78745 0.0
H851 H 0.2632 0.05268 0.80231 0.0
H852 H 0.30831 -0.00743 0.76615 0.0
H853 H 0.29181 0.93239 0.73737 0.0
C854 C 0.25831 0.92264 0.7367 0.0
C855 C 0.24071 0.92234 0.73812 0.0
C856 C 0.2679 0.95726 0.75321 0.0
C857 C 0.23289 0.95643 0.75676 0.0
C858 C 0.24235 0.99055 0.7734 0.0
C859 C 0.26945 0.02675 0.78802 0.0
C860 C 0.28704 0.02765 0.78633 0.0
C861 C 0.25986 -0.00826 0.77166 0.0
C862 C 0.29485 -0.00683 0.76783 0.0
C863 C 0.28539 0.95849 0.75142 0.0
H864 H 0.76124 0.66507 0.46743 0.0
H865 H 0.80753 0.7265 0.49928 0.0
H866 H 0.79205 0.78804 0.52889 0.0
H867 H 0.76535 0.82488 0.54567 0.0
H868 H 0.71909 0.76372 0.51363 0.0
H869 H 0.73457 0.70223 0.48405 0.0
C870 C 0.76797 0.69152 0.48098 0.0
C871 C 0.78558 0.69065 0.48121 0.0
C872 C 0.75898 0.72742 0.49778 0.0
C873 C 0.79402 0.72588 0.49875 0.0
C874 C 0.78516 0.76133 0.51564 0.0
C875 C 0.75863 0.79847 0.53209 0.0
C876 C 0.74102 0.79933 0.53185 0.0
C877 C 0.76764 0.76269 0.51525 0.0
C878 C 0.73259 0.76431 0.51421 0.0
C879 C 0.74145 0.72887 0.49734 0.0
H880 H 0.73624 0.9833 0.24157 0.0
H881 H 0.77121 0.84312 0.23227 0.0
H882 H 0.79124 0.89264 0.25964 0.0
H883 H 0.79919 0.97714 0.28598 0.0
H884 H 0.76424 0.11778 0.29459 0.0
H885 H 0.74419 0.06768 0.26764 0.0
C886 C 0.74812 0.96319 0.2459 0.0
C887 C 0.75208 0.90914 0.23511 0.0
C888 C 0.75983 -0.00729 0.26122 0.0
C889 C 0.76775 0.88444 0.24046 0.0
C890 C 0.77929 0.91296 0.25601 0.0
C891 C 0.78729 -0.00285 0.28163 0.0
C892 C 0.78335 0.05152 0.29218 0.0
C893 C 0.77559 0.96751 0.26629 0.0
C894 C 0.7677 0.07618 0.28668 0.0
C895 C 0.75613 0.04736 0.27134 0.0
H896 H 0.51229 0.55278 0.46065 0.0
H897 H 0.46672 0.49221 0.49527 0.0
H898 H 0.48283 0.42867 0.52329 0.0
H899 H 0.50993 0.3908 0.53815 0.0
H900 H 0.5554 0.45175 0.50327 0.0
H901 H 0.53923 0.51393 0.47491 0.0
C902 C 0.50584 0.52607 0.47445 0.0
C903 C 0.48826 0.52787 0.47599 0.0
C904 C 0.51518 0.48909 0.49026 0.0
C905 C 0.48019 0.4922 0.49379 0.0
C906 C 0.48942 0.4556 0.50974 0.0
C907 C 0.51632 0.41712 0.52414 0.0
C908 C 0.53392 0.41617 0.52279 0.0
C909 C 0.50692 0.45354 0.50809 0.0
C910 C 0.54192 0.4512 0.50467 0.0
C911 C 0.53266 0.48709 0.48853 0.0
H912 H 0.50742 0.82833 0.71722 0.0
H913 H 0.55371 0.78407 0.75418 0.0
H914 H 0.53846 0.7244 0.78485 0.0
H915 H 0.51203 0.68216 0.80028 0.0
H916 H 0.46584 0.72657 0.76303 0.0
H917 H 0.48105 0.78821 0.73317 0.0
C918 C 0.51421 0.80623 0.73215 0.0
C919 C 0.53174 0.81102 0.7334 0.0
C920 C 0.50538 0.77124 0.74945 0.0
C921 C 0.54025 0.78161 0.75283 0.0
C922 C 0.53152 0.7471 0.77027 0.0
C923 C 0.50528 0.70498 0.78551 0.0
C924 C 0.48778 0.69913 0.78376 0.0
C925 C 0.51411 0.74097 0.76856 0.0
C926 C 0.47927 0.72981 0.76473 0.0
C927 C 0.48797 0.7653 0.7477 0.0
H928 H 0.4832 0.24666 0.28639 0.0
H929 H 0.5192 0.10908 0.29422 0.0
H930 H 0.53923 0.16334 0.26858 0.0
H931 H 0.54665 0.25023 0.24364 0.0
H932 H 0.51062 0.38768 0.23577 0.0
H933 H 0.49076 0.3341 0.26197 0.0
C934 C 0.49534 0.22825 0.28216 0.0
C935 C 0.49959 0.17351 0.29196 0.0
C936 C 0.50698 0.26031 0.26775 0.0
C937 C 0.51553 0.15091 0.28676 0.0
C938 C 0.52706 0.1821 0.27221 0.0
C939 C 0.53458 0.26887 0.24809 0.0
C940 C 0.53022 0.32322 0.23797 0.0
C941 C 0.523 0.23709 0.26275 0.0
C942 C 0.51435 0.34613 0.24345 0.0
C943 C 0.50292 0.3153 0.2583 0.0
H944 H 0.48993 0.98796 0.97809 0.0
H945 H 0.52536 0.12538 0.9653 0.0
H946 H 0.54602 0.07497 0.99124 0.0
H947 H 0.55411 -0.00828 0.01819 0.0
H948 H 0.51862 0.85433 0.0307 0.0
H949 H 0.49823 0.90382 0.00405 0.0
C950 C 0.5021 0.00716 0.98125 0.0
C951 C 0.50597 0.06079 0.96999 0.0
C952 C 0.51411 0.97728 0.99585 0.0
C953 C 0.52196 0.08438 0.97387 0.0
C954 C 0.53386 0.05539 0.98861 0.0
C955 C 0.54204 0.97213 0.01463 0.0
C956 C 0.538 0.91905 0.02627 0.0
C957 C 0.53014 0.00157 0.99961 0.0
C958 C 0.52213 0.89495 0.02189 0.0
C959 C 0.51038 0.92346 0.00677 0.0
H960 H 0.16545 0.36384 0.09822 0.0
H961 H 0.16492 0.36505 0.18015 0.0
H962 H 0.13437 0.36524 0.17977 0.0
H963 H 0.1079 0.36053 0.1562 0.0
H964 H 0.10848 0.36141 0.07426 0.0
H965 H 0.139 0.36517 0.07467 0.0
C966 C 0.1587 0.36429 0.11606 0.0
C967 C 0.16757 0.36384 0.13924 0.0
C968 C 0.14114 0.3646 0.11568 0.0
C969 C 0.1585 0.36536 0.16207 0.0
C970 C 0.14101 0.36524 0.16184 0.0
C971 C 0.11466 0.36163 0.13836 0.0
C972 C 0.10581 0.36006 0.11517 0.0
C973 C 0.13221 0.36411 0.13876 0.0
C974 C 0.11487 0.36249 0.09235 0.0
C975 C 0.13235 0.36446 0.09259 0.0
H976 H 0.11342 0.85495 0.1628 0.0
H977 H 0.10387 0.88727 0.0834 0.0
H978 H 0.13356 0.88441 0.07435 0.0
H979 H 0.16274 0.87758 0.08897 0.0
H980 H 0.17235 0.84816 0.16847 0.0
H981 H 0.14253 0.84448 0.17716 0.0
C982 C 0.11781 0.86103 0.14351 0.0
C983 C 0.10624 0.87173 0.12398 0.0
C984 C 0.13511 0.85989 0.13828 0.0
C985 C 0.11233 0.87948 0.09904 0.0
C986 C 0.12941 0.87773 0.09372 0.0
C987 C 0.15829 0.86958 0.10811 0.0
C988 C 0.16985 0.86344 0.12797 0.0
C989 C 0.14098 0.86859 0.11319 0.0
C990 C 0.16379 0.85359 0.15275 0.0
C991 C 0.14668 0.85148 0.15781 0.0
H992 H 0.86512 0.63841 0.90166 0.0
H993 H 0.86484 0.63287 0.81975 0.0
H994 H 0.89535 0.62977 0.81943 0.0
H995 H 0.92209 0.63061 0.84231 0.0
H996 H 0.92235 0.63347 0.92425 0.0
H997 H 0.89183 0.63537 0.92458 0.0
C998 C 0.87169 0.63662 0.88367 0.0
C999 C 0.86258 0.63637 0.86071 0.0
C1000 C 0.88925 0.63431 0.88364 0.0
C1001 C 0.87142 0.6332 0.83769 0.0
C1002 C 0.8889 0.63152 0.83751 0.0
C1003 C 0.91552 0.63162 0.86031 0.0
C1004 C 0.92463 0.63226 0.88327 0.0
C1005 C 0.89795 0.63236 0.86036 0.0
C1006 C 0.91577 0.63288 0.90631 0.0
C1007 C 0.89829 0.63415 0.9065 0.0
H1008 H 0.9092 0.12226 0.8444 0.0
H1009 H 0.91738 0.11839 0.9253 0.0
H1010 H 0.88738 0.11767 0.93282 0.0
H1011 H 0.85851 0.11384 0.91649 0.0
H1012 H 0.8506 0.11395 0.83545 0.0
H1013 H 0.88047 0.12056 0.82815 0.0
C1014 C 0.90442 0.12191 0.86367 0.0
C1015 C 0.91562 0.12033 0.88418 0.0
C1016 C 0.88705 0.1204 0.86795 0.0
C1017 C 0.90912 0.11931 0.90906 0.0
C1018 C 0.89191 0.11889 0.91344 0.0
C1019 C 0.86332 0.11566 0.89726 0.0
C1020 C 0.8522 0.11297 0.87664 0.0
C1021 C 0.88071 0.11871 0.89304 0.0
C1022 C 0.85876 0.11523 0.85181 0.0
C1023 C 0.87592 0.11922 0.84752 0.0
H1024 H 0.16595 0.85429 0.60619 0.0
H1025 H 0.1621 0.86286 0.68789 0.0
H1026 H 0.13172 0.86962 0.68445 0.0
H1027 H 0.10633 0.87022 0.65851 0.0
H1028 H 0.11002 0.86205 0.5768 0.0
H1029 H 0.1405 0.85867 0.58009 0.0
C1030 C 0.15853 0.85757 0.62335 0.0
C1031 C 0.16645 0.85753 0.64737 0.0
C1032 C 0.14104 0.86172 0.62121 0.0
C1033 C 0.15648 0.86258 0.66921 0.0
C1034 C 0.13907 0.86644 0.66723 0.0
C1035 C 0.11372 0.8679 0.64129 0.0
C1036 C 0.10572 0.86607 0.61735 0.0
C1037 C 0.13122 0.86566 0.64335 0.0
C1038 C 0.1157 0.86365 0.59543 0.0
C1039 C 0.13316 0.86143 0.59733 0.0
H1040 H 0.10124 0.37611 0.59854 0.0
H1041 H 0.10363 0.37662 0.68044 0.0
H1042 H 0.13407 0.3807 0.67835 0.0
H1043 H 0.15991 0.38501 0.65349 0.0
H1044 H 0.15775 0.38269 0.5716 0.0
H1045 H 0.12724 0.37844 0.57358 0.0
C1046 C 0.10836 0.37711 0.61602 0.0
C1047 C 0.09999 0.37622 0.63969 0.0
C1048 C 0.12592 0.37923 0.61468 0.0
C1049 C 0.1096 0.37715 0.66199 0.0
C1050 C 0.12705 0.37961 0.6608 0.0
C1051 C 0.15285 0.38377 0.63597 0.0
C1052 C 0.16127 0.38456 0.61235 0.0
C1053 C 0.13532 0.38088 0.63726 0.0
C1054 C 0.15173 0.38223 0.59001 0.0
C1055 C 0.13425 0.37983 0.59115 0.0
H1056 H 0.86524 0.11539 0.34387 0.0
H1057 H 0.85729 0.10932 0.42484 0.0
H1058 H 0.88721 0.10552 0.43209 0.0
H1059 H 0.91614 0.10954 0.41582 0.0
H1060 H 0.92399 0.11742 0.33482 0.0
H1061 H 0.89411 0.11461 0.32754 0.0
C1062 C 0.87004 0.11258 0.36306 0.0
C1063 C 0.85887 0.11317 0.38367 0.0
C1064 C 0.88748 0.11112 0.36729 0.0
C1065 C 0.86547 0.10969 0.40846 0.0
C1066 C 0.88268 0.10742 0.41274 0.0
C1067 C 0.91133 0.11006 0.39659 0.0
C1068 C 0.9225 0.11425 0.37604 0.0
C1069 C 0.89388 0.10903 0.39234 0.0
C1070 C 0.91585 0.11495 0.35121 0.0
C1071 C 0.89866 0.11323 0.3469 0.0
H1072 H 0.91879 0.60225 0.40493 0.0
H1073 H 0.91566 0.60057 0.32315 0.0
H1074 H 0.88516 0.60245 0.32586 0.0
H1075 H 0.85943 0.60166 0.35144 0.0
H1076 H 0.86263 0.60629 0.43321 0.0
H1077 H 0.89311 0.60641 0.43045 0.0
C1078 C 0.91148 0.60229 0.38763 0.0
C1079 C 0.9196 0.60072 0.36382 0.0
C1080 C 0.89395 0.60386 0.38935 0.0
C1081 C 0.90982 0.60173 0.3417 0.0
C1082 C 0.89236 0.60264 0.34326 0.0
C1083 C 0.86676 0.60272 0.36873 0.0
C1084 C 0.85865 0.60345 0.39257 0.0
C1085 C 0.88429 0.60323 0.36698 0.0
C1086 C 0.86844 0.60568 0.41465 0.0
C1087 C 0.8859 0.60558 0.41306 0.0
H1088 H 0.60932 0.35527 0.65303 0.0
H1089 H 0.61179 0.35017 0.57117 0.0
H1090 H 0.64227 0.35171 0.57318 0.0
H1091 H 0.66815 0.35143 0.59811 0.0
H1092 H 0.66574 0.35852 0.67992 0.0
H1093 H 0.63523 0.35936 0.67791 0.0
C1094 C 0.61648 0.35461 0.63555 0.0
C1095 C 0.60816 0.35221 0.61193 0.0
C1096 C 0.63401 0.35567 0.63685 0.0
C1097 C 0.61775 0.35206 0.58958 0.0
C1098 C 0.63521 0.35274 0.59074 0.0
C1099 C 0.661 0.35311 0.61557 0.0
C1100 C 0.66933 0.35438 0.6392 0.0
C1101 C 0.64347 0.354 0.61426 0.0
C1102 C 0.65975 0.35744 0.66151 0.0
C1103 C 0.64228 0.35781 0.66036 0.0
H1104 H 0.60696 0.87329 0.60158 0.0
H1105 H 0.60791 0.89115 0.68316 0.0
H1106 H 0.63838 0.8971 0.68206 0.0
H1107 H 0.66468 0.89768 0.65803 0.0
H1108 H 0.66378 0.87719 0.57657 0.0
H1109 H 0.6333 0.87184 0.57764 0.0
C1110 C 0.61377 0.87862 0.61919 0.0
C1111 C 0.60501 0.88203 0.64246 0.0
C1112 C 0.63132 0.88156 0.61844 0.0
C1113 C 0.61421 0.88833 0.665 0.0
C1114 C 0.63166 0.89185 0.66437 0.0
C1115 C 0.65787 0.89223 0.64042 0.0
C1116 C 0.66664 0.8882 0.61717 0.0
C1117 C 0.64034 0.88863 0.6412 0.0
C1118 C 0.65747 0.88046 0.5947 0.0
C1119 C 0.64001 0.87746 0.59531 0.0
H1120 H 0.414 0.63033 0.34816 0.0
H1121 H 0.41072 0.61697 0.42978 0.0
H1122 H 0.38027 0.62148 0.42715 0.0
H1123 H 0.35472 0.63207 0.40192 0.0
H1124 H 0.35784 0.64343 0.32026 0.0
H1125 H 0.3883 0.63661 0.32274 0.0
C1126 C 0.40667 0.62835 0.36545 0.0
C1127 C 0.41477 0.62375 0.38922 0.0
C1128 C 0.38915 0.63071 0.36378 0.0
C1129 C 0.40493 0.6205 0.41127 0.0
C1130 C 0.3875 0.62325 0.40977 0.0
C1131 C 0.36201 0.63314 0.38457 0.0
C1132 C 0.3539 0.63887 0.36088 0.0
C1133 C 0.37949 0.62885 0.38616 0.0
C1134 C 0.36366 0.63917 0.33871 0.0
C1135 C 0.3811 0.6354 0.34015 0.0
H1136 H 0.41955 0.09656 0.41559 0.0
H1137 H 0.41846 0.11293 0.33396 0.0
H1138 H 0.38798 0.11927 0.33521 0.0
H1139 H 0.3617 0.11762 0.35929 0.0
H1140 H 0.3628 0.1033 0.44099 0.0
H1141 H 0.39332 0.09888 0.43983 0.0
C1142 C 0.4127 0.1015 0.39799 0.0
C1143 C 0.4214 0.10377 0.37463 0.0
C1144 C 0.39518 0.10542 0.39888 0.0
C1145 C 0.4122 0.11099 0.35217 0.0
C1146 C 0.39474 0.11448 0.35289 0.0
C1147 C 0.36856 0.11349 0.37693 0.0
C1148 C 0.35983 0.1103 0.40025 0.0
C1149 C 0.3861 0.11131 0.37611 0.0
C1150 C 0.36908 0.10581 0.42281 0.0
C1151 C 0.38655 0.10314 0.42213 0.0
H1152 H 0.67462 0.853 0.10519 0.0
H1153 H 0.67079 0.85672 0.18694 0.0
H1154 H 0.64033 0.86209 0.18355 0.0
H1155 H 0.61488 0.86269 0.15748 0.0
H1156 H 0.61878 0.86014 0.07572 0.0
H1157 H 0.64924 0.85762 0.07912 0.0
C1158 C 0.6672 0.85496 0.12238 0.0
C1159 C 0.67514 0.85391 0.14639 0.0
C1160 C 0.6497 0.85823 0.12026 0.0
C1161 C 0.66515 0.85734 0.16827 0.0
C1162 C 0.6477 0.86029 0.16631 0.0
C1163 C 0.62233 0.86165 0.14029 0.0
C1164 C 0.61438 0.86117 0.11628 0.0
C1165 C 0.63985 0.86028 0.14241 0.0
C1166 C 0.62441 0.86054 0.09439 0.0
C1167 C 0.64187 0.85892 0.09636 0.0
H1168 H 0.66618 0.37886 0.15729 0.0
H1169 H 0.66126 0.38275 0.07568 0.0
H1170 H 0.63088 0.38431 0.07999 0.0
H1171 H 0.60584 0.38661 0.10673 0.0
H1172 H 0.61054 0.38105 0.18834 0.0
H1173 H 0.64098 0.37779 0.18412 0.0
C1174 C 0.65851 0.38011 0.14036 0.0
C1175 C 0.66614 0.38112 0.11611 0.0
C1176 C 0.64102 0.38067 0.14299 0.0
C1177 C 0.65586 0.38201 0.09453 0.0
C1178 C 0.63845 0.38299 0.097 0.0
C1179 C 0.61345 0.38473 0.12371 0.0
C1180 C 0.60578 0.38455 0.14791 0.0
C1181 C 0.63092 0.38267 0.12112 0.0
C1182 C 0.61599 0.38129 0.16952 0.0
C1183 C 0.63343 0.37958 0.16709 0.0
H1184 H 0.42275 0.12443 0.85087 0.0
H1185 H 0.42287 0.12466 0.9328 0.0
H1186 H 0.39233 0.11918 0.93294 0.0
H1187 H 0.36562 0.11782 0.90976 0.0
H1188 H 0.36569 0.11523 0.82781 0.0
H1189 H 0.39621 0.118 0.82778 0.0
C1190 C 0.41615 0.12326 0.86884 0.0
C1191 C 0.4252 0.12556 0.89186 0.0
C1192 C 0.39861 0.1198 0.86875 0.0
C1193 C 0.41633 0.12301 0.91484 0.0
C1194 C 0.39883 0.12007 0.9149 0.0
C1195 C 0.37226 0.1178 0.89183 0.0
C1196 C 0.36324 0.11682 0.86875 0.0
C1197 C 0.38985 0.11902 0.89197 0.0
C1198 C 0.3722 0.11599 0.84582 0.0
C1199 C 0.38968 0.11773 0.84581 0.0
H1200 H 0.41204 0.60436 0.91015 0.0
H1201 H 0.41117 0.60674 0.8282 0.0
H1202 H 0.38068 0.60355 0.82892 0.0
H1203 H 0.35439 0.59712 0.85263 0.0
H1204 H 0.355 0.59729 0.93456 0.0
H1205 H 0.38554 0.60281 0.93397 0.0
C1206 C 0.40521 0.6042 0.89239 0.0
C1207 C 0.414 0.60528 0.8691 0.0
C1208 C 0.38764 0.60279 0.89295 0.0
C1209 C 0.40484 0.60589 0.84637 0.0
C1210 C 0.38738 0.60392 0.84678 0.0
C1211 C 0.36115 0.59834 0.87044 0.0
C1212 C 0.35232 0.59617 0.89366 0.0
C1213 C 0.37867 0.60186 0.86994 0.0
C1214 C 0.36139 0.59881 0.91644 0.0
C1215 C 0.37887 0.60179 0.91609 0.0
H1216 H 0.05659 -0.00228 0.11091 0.0
H1217 H 0.06021 0.05364 0.1888 0.0
H1218 H 0.06007 0.15499 0.17505 0.0
H1219 H 0.05765 0.2272 0.14092 0.0
H1220 H 0.05569 0.17093 0.06292 0.0
H1221 H 0.05657 0.06972 0.07665 0.0
C1222 C 0.0574 0.0321 0.12486 0.0
C1223 C 0.0582 0.01849 0.15083 0.0
C1224 C 0.05759 0.08994 0.11679 0.0
C1225 C 0.05954 0.06328 0.1687 0.0
C1226 C 0.05941 0.1211 0.16086 0.0
C1227 C 0.05747 0.19275 0.12695 0.0
C1228 C 0.0564 0.20624 0.10098 0.0
C1229 C 0.05824 0.13488 0.13497 0.0
C1230 C 0.05647 0.1614 0.08302 0.0
C1231 C 0.05692 0.10364 0.09086 0.0
H1232 H 0.21764 0.00308 0.14473 0.0
H1233 H 0.21389 0.05736 0.06661 0.0
H1234 H 0.21329 0.15884 0.07992 0.0
H1235 H 0.21543 0.23184 0.11364 0.0
H1236 H 0.21775 0.17763 0.1919 0.0
H1237 H 0.2172 0.07602 0.17871 0.0
C1238 C 0.21661 0.03717 0.13066 0.0
C1239 C 0.21602 0.02308 0.10474 0.0
C1240 C 0.21606 0.09518 0.13847 0.0
C1241 C 0.2144 0.06738 0.08668 0.0
C1242 C 0.21411 0.12531 0.09426 0.0
C1243 C 0.21573 0.19774 0.12779 0.0
C1244 C 0.21685 0.21191 0.15365 0.0
C1245 C 0.21519 0.13968 0.12008 0.0
C1246 C 0.21694 0.16754 0.17186 0.0
C1247 C 0.21668 0.10956 0.16433 0.0
H1248 H 0.9539 0.80062 0.90701 0.0
H1249 H 0.99943 0.76024 0.86714 0.0
H1250 H 0.99843 0.85336 0.84524 0.0
H1251 H 0.98518 0.94795 0.83872 0.0
H1252 H 0.93912 0.98779 0.87695 0.0
H1253 H 0.93943 0.89292 0.89787 0.0
C1254 C 0.9636 0.81268 0.89364 0.0
C1255 C 0.97686 0.7746 0.8889 0.0
C1256 C 0.96268 0.86562 0.88059 0.0
C1257 C 0.98919 0.78949 0.87113 0.0
C1258 C 0.98859 0.84248 0.85855 0.0
C1259 C 0.97505 0.93496 0.85117 0.0
C1260 C 0.96209 0.97373 0.85627 0.0
C1261 C 0.97543 0.88089 0.86317 0.0
C1262 C 0.94912 0.95779 0.87272 0.0
C1263 C 0.94938 0.90393 0.88479 0.0
H1264 H 0.80297 0.98688 0.85931 0.0
H1265 H 0.80581 0.92849 0.93696 0.0
H1266 H 0.80852 0.82821 0.92247 0.0
H1267 H 0.80923 0.75737 0.88774 0.0
H1268 H 0.80803 0.81625 0.81005 0.0
H1269 H 0.8057 0.91668 0.82454 0.0
C1270 C 0.80418 0.95224 0.87306 0.0
C1271 C 0.804 0.96484 0.89917 0.0
C1272 C 0.80607 0.89504 0.86457 0.0
C1273 C 0.80586 0.91968 0.91677 0.0
C1274 C 0.80739 0.86244 0.90849 0.0
C1275 C 0.80852 0.79221 0.87398 0.0
C1276 C 0.80864 0.77956 0.84788 0.0
C1277 C 0.80739 0.84964 0.88245 0.0
C1278 C 0.80795 0.82506 0.83025 0.0
C1279 C 0.80655 0.88237 0.83852 0.0
H1280 H 0.05043 0.66133 0.57926 0.0
H1281 H 0.06504 0.75492 0.64639 0.0
H1282 H 0.0648 0.666 0.67114 0.0
H1283 H 0.05813 0.5628 0.67462 0.0
H1284 H 0.04096 0.47072 0.60832 0.0
H1285 H 0.04435 0.55727 0.58254 0.0
C1286 C 0.05387 0.66174 0.59917 0.0
C1287 C 0.05785 0.71416 0.61099 0.0
C1288 C 0.05294 0.61078 0.6136 0.0
C1289 C 0.06198 0.71485 0.63689 0.0
C1290 C 0.06175 0.66408 0.65112 0.0
C1291 C 0.05519 0.56175 0.65453 0.0
C1292 C 0.0493 0.5106 0.64346 0.0
C1293 C 0.05683 0.61203 0.63984 0.0
C1294 C 0.04552 0.50968 0.61738 0.0
C1295 C 0.04747 0.55915 0.60254 0.0
H1296 H 0.21423 0.50025 0.64223 0.0
H1297 H 0.21462 0.57237 0.5667 0.0
H1298 H 0.21583 0.67024 0.58434 0.0
H1299 H 0.21745 0.73504 0.62126 0.0
H1300 H 0.21544 0.6633 0.69679 0.0
H1301 H 0.21416 0.56539 0.67916 0.0
C1302 C 0.21456 0.53743 0.62966 0.0
C1303 C 0.21448 0.52922 0.60323 0.0
C1304 C 0.21499 0.5935 0.63994 0.0
C1305 C 0.21468 0.57769 0.58713 0.0
C1306 C 0.21541 0.6336 0.5972 0.0
C1307 C 0.21673 0.69796 0.63384 0.0
C1308 C 0.21669 0.70622 0.66027 0.0
C1309 C 0.2157 0.64198 0.62357 0.0
C1310 C 0.21551 0.65792 0.67637 0.0
C1311 C 0.21481 0.60198 0.66631 0.0
H1312 H 0.96965 0.4766 0.38587 0.0
H1313 H 0.97037 0.41866 0.30806 0.0
H1314 H 0.97016 0.31771 0.32229 0.0
H1315 H 0.97109 0.24653 0.35689 0.0
H1316 H 0.96883 0.30429 0.43466 0.0
H1317 H 0.96818 0.40523 0.42041 0.0
C1318 C 0.96971 0.44187 0.37204 0.0
C1319 C 0.97024 0.45483 0.34598 0.0
C1320 C 0.96932 0.38418 0.38036 0.0
C1321 C 0.97001 0.40955 0.32823 0.0
C1322 C 0.96993 0.35195 0.33635 0.0
C1323 C 0.97038 0.2812 0.37071 0.0
C1324 C 0.9702 0.26822 0.39678 0.0
C1325 C 0.96979 0.33883 0.36237 0.0
C1326 C 0.96901 0.3134 0.41449 0.0
C1327 C 0.9687 0.37101 0.40636 0.0
H1328 H 0.80995 0.25053 0.40233 0.0
H1329 H 0.81225 0.30595 0.32422 0.0
H1330 H 0.81176 0.40737 0.33776 0.0
H1331 H 0.80934 0.47977 0.37178 0.0
H1332 H 0.80864 0.4243 0.44995 0.0
H1333 H 0.80986 0.32299 0.43643 0.0
C1334 C 0.81043 0.28484 0.38829 0.0
C1335 C 0.81096 0.27102 0.36233 0.0
C1336 C 0.81034 0.3428 0.39623 0.0
C1337 C 0.81183 0.31572 0.34432 0.0
C1338 C 0.81148 0.3736 0.35205 0.0
C1339 C 0.80948 0.44549 0.38584 0.0
C1340 C 0.80869 0.45923 0.4118 0.0
C1341 C 0.8105 0.38758 0.37793 0.0
C1342 C 0.80918 0.41458 0.42985 0.0
C1343 C 0.80986 0.35675 0.42214 0.0
H1344 H 0.57144 0.04538 0.65986 0.0
H1345 H 0.52701 0.98296 0.6229 0.0
H1346 H 0.52615 0.0694 0.59616 0.0
H1347 H 0.53759 0.16447 0.58427 0.0
H1348 H 0.58275 0.22482 0.61956 0.0
H1349 H 0.58406 0.13732 0.64567 0.0
C1350 C 0.56154 0.05123 0.64608 0.0
C1351 C 0.54914 0.0089 0.64354 0.0
C1352 C 0.56141 0.10016 0.63027 0.0
C1353 C 0.53658 0.01566 0.62523 0.0
C1354 C 0.53612 0.0648 0.60989 0.0
C1355 C 0.54787 0.15753 0.5973 0.0
C1356 C 0.56006 0.20033 0.60014 0.0
C1357 C 0.54846 0.10734 0.61225 0.0
C1358 C 0.57323 0.19206 0.61724 0.0
C1359 C 0.57394 0.14226 0.63221 0.0
H1360 H 0.72104 0.23707 0.61528 0.0
H1361 H 0.7198 0.17577 0.69263 0.0
H1362 H 0.71883 0.07557 0.67753 0.0
H1363 H 0.71929 0.00606 0.6424 0.0
H1364 H 0.71901 0.06731 0.56504 0.0
H1365 H 0.71951 0.16763 0.58012 0.0
C1366 C 0.72053 0.20183 0.62884 0.0
C1367 C 0.72068 0.21359 0.65503 0.0
C1368 C 0.7197 0.14466 0.62002 0.0
C1369 C 0.71975 0.16761 0.67238 0.0
C1370 C 0.71923 0.11044 0.66376 0.0
C1371 C 0.71929 0.04132 0.62882 0.0
C1372 C 0.71929 0.02948 0.60265 0.0
C1373 C 0.71935 0.09854 0.63763 0.0
C1374 C 0.71904 0.07553 0.58528 0.0
C1375 C 0.71938 0.13275 0.59389 0.0
H1376 H 0.46699 0.74188 0.36806 0.0
H1377 H 0.46602 0.7964 0.44634 0.0
H1378 H 0.46725 0.89788 0.43304 0.0
H1379 H 0.46982 0.97042 0.39915 0.0
H1380 H 0.46939 0.91598 0.32083 0.0
H1381 H 0.4674 0.81469 0.33414 0.0
C1382 C 0.467 0.77601 0.38219 0.0
C1383 C 0.46661 0.76192 0.40812 0.0
C1384 C 0.46749 0.834 0.37439 0.0
C1385 C 0.46635 0.8064 0.42626 0.0
C1386 C 0.4671 0.8643 0.41867 0.0
C1387 C 0.46925 0.93636 0.38501 0.0
C1388 C 0.46994 0.95034 0.35908 0.0
C1389 C 0.46788 0.87851 0.3928 0.0
C1390 C 0.46891 0.90606 0.34092 0.0
C1391 C 0.46782 0.84824 0.34851 0.0
H1392 H 0.30356 0.7659 0.38984 0.0
H1393 H 0.30595 0.838 0.31438 0.0
H1394 H 0.30724 0.9358 0.33213 0.0
H1395 H 0.30684 0.00075 0.36913 0.0
H1396 H 0.3059 0.92818 0.44458 0.0
H1397 H 0.30496 0.83042 0.42681 0.0
C1398 C 0.30439 0.80303 0.37729 0.0
C1399 C 0.3045 0.79493 0.35086 0.0
C1400 C 0.30537 0.85892 0.38763 0.0
C1401 C 0.30583 0.84327 0.33481 0.0
C1402 C 0.30652 0.89914 0.34494 0.0
C1403 C 0.30645 0.9635 0.38166 0.0
C1404 C 0.30627 0.97154 0.4081 0.0
C1405 C 0.30616 0.90748 0.37131 0.0
C1406 C 0.30601 0.92298 0.42415 0.0
C1407 C 0.30544 0.86714 0.41401 0.0
H1408 H 0.5579 0.50746 0.12257 0.0
H1409 H 0.55799 0.57789 0.19837 0.0
H1410 H 0.56055 0.67594 0.18115 0.0
H1411 H 0.5619 0.74164 0.14441 0.0
H1412 H 0.56351 0.67048 0.06876 0.0
H1413 H 0.56131 0.5725 0.08603 0.0
C1414 C 0.55849 0.54429 0.13529 0.0
C1415 C 0.55757 0.53572 0.16165 0.0
C1416 C 0.56031 0.60026 0.12528 0.0
C1417 C 0.55863 0.58361 0.17798 0.0
C1418 C 0.56008 0.6396 0.16815 0.0
C1419 C 0.56184 0.70461 0.13175 0.0
C1420 C 0.56271 0.71312 0.10538 0.0
C1421 C 0.5608 0.64845 0.14183 0.0
C1422 C 0.56285 0.66489 0.08915 0.0
C1423 C 0.56152 0.60893 0.099 0.0
H1424 H 0.71988 0.49357 0.14073 0.0
H1425 H 0.71837 0.56542 0.06518 0.0
H1426 H 0.72056 0.66325 0.08261 0.0
H1427 H 0.72364 0.72808 0.11927 0.0
H1428 H 0.72337 0.65697 0.19497 0.0
H1429 H 0.72109 0.55901 0.17758 0.0
C1430 C 0.72001 0.5307 0.12812 0.0
C1431 C 0.71913 0.52241 0.10172 0.0
C1432 C 0.72098 0.58682 0.1383 0.0
C1433 C 0.71905 0.57081 0.08558 0.0
C1434 C 0.72035 0.6267 0.09552 0.0
C1435 C 0.72307 0.69113 0.13194 0.0
C1436 C 0.72384 0.69955 0.15833 0.0
C1437 C 0.72144 0.63518 0.12183 0.0
C1438 C 0.72283 0.65144 0.17457 0.0
C1439 C 0.72156 0.59548 0.16464 0.0
H1440 H 0.47318 0.25913 0.86334 0.0
H1441 H 0.47353 0.31568 0.94138 0.0
H1442 H 0.4703 0.41627 0.92765 0.0
H1443 H 0.46852 0.48801 0.89342 0.0
H1444 H 0.46693 0.43131 0.81545 0.0
H1445 H 0.46938 0.3304 0.82921 0.0
C1446 C 0.47251 0.29347 0.87733 0.0
C1447 C 0.47377 0.28027 0.90331 0.0
C1448 C 0.47044 0.35092 0.86932 0.0
C1449 C 0.47263 0.32496 0.92127 0.0
C1450 C 0.47082 0.38239 0.91344 0.0
C1451 C 0.46865 0.45354 0.87945 0.0
C1452 C 0.46772 0.46691 0.85347 0.0
C1453 C 0.46989 0.39586 0.88751 0.0
C1454 C 0.46765 0.42192 0.83557 0.0
C1455 C 0.46911 0.36434 0.84341 0.0
H1456 H 0.30942 0.23556 0.89542 0.0
H1457 H 0.30974 0.29366 0.81759 0.0
H1458 H 0.30735 0.3943 0.83178 0.0
H1459 H 0.30385 0.46483 0.86631 0.0
H1460 H 0.30473 0.40671 0.94414 0.0
H1461 H 0.30801 0.30652 0.92993 0.0
C1462 C 0.30904 0.27026 0.88156 0.0
C1463 C 0.30957 0.25737 0.85551 0.0
C1464 C 0.30781 0.32774 0.88986 0.0
C1465 C 0.30932 0.30269 0.83776 0.0
C1466 C 0.30789 0.36011 0.84586 0.0
C1467 C 0.30479 0.43024 0.88015 0.0
C1468 C 0.30386 0.44287 0.90622 0.0
C1469 C 0.3069 0.37301 0.87185 0.0
C1470 C 0.30536 0.39787 0.92397 0.0
C1471 C 0.30721 0.34066 0.91586 0.0
loop_
_geom_bond_atom_site_label_1
_geom_bond_atom_site_label_2
_geom_bond_distance
_geom_bond_site_symmetry_2
_ccdc_geom_bond_type
Co0 O1 2.216 . S
Co0 O2 2.091 . S
Co0 O4 2.004 . S
Co0 O10 2.021 . S
Co0 O12 2.137 . S
Co0 O13 2.244 . S
O1 Co0 2.216 . S
O1 C8 1.247 . S
O2 Co0 2.091 . S
O2 C8 1.261 . S
C3 O12 1.247 . S
C3 O13 1.272 . S
O4 Co0 2.004 . S
O4 C9 1.259 . S
Co5 O6 2.061 . S
Co5 O11 2.052 . S
Co5 O13 2.135 . S
O6 Co5 2.061 . S
O6 C9 1.235 . S
C7 O10 1.238 . S
C7 O11 1.241 . S
C8 O1 1.247 . S
C8 O2 1.261 . S
C9 O4 1.259 . S
C9 O6 1.235 . S
O10 Co0 2.021 . S
O10 C7 1.238 . S
O11 Co5 2.052 . S
O11 C7 1.241 . S
O12 Co0 2.137 . S
O12 C3 1.247 . S
O13 Co0 2.244 . S
O13 C3 1.272 . S
O13 Co5 2.135 . S
Co14 O15 2.216 . S
Co14 O16 2.091 . S
Co14 O18 2.004 . S
Co14 O24 2.021 . S
Co14 O26 2.137 . S
Co14 O27 2.244 . S
O15 Co14 2.216 . S
O15 C22 1.247 . S
O16 Co14 2.091 . S
O16 C22 1.261 . S
C17 O26 1.247 . S
C17 O27 1.272 . S
O18 Co14 2.004 . S
O18 C23 1.259 . S
Co19 O20 2.061 . S
Co19 O25 2.052 . S
Co19 O27 2.135 . S
O20 Co19 2.061 . S
O20 C23 1.235 . S
C21 O24 1.238 . S
C21 O25 1.241 . S
C22 O15 1.247 . S
C22 O16 1.261 . S
C23 O18 1.259 . S
C23 O20 1.235 . S
O24 Co14 2.021 . S
O24 C21 1.238 . S
O25 Co19 2.052 . S
O25 C21 1.241 . S
O26 Co14 2.137 . S
O26 C17 1.247 . S
O27 Co14 2.244 . S
O27 C17 1.272 . S
O27 Co19 2.135 . S
Co28 O29 2.216 . S
Co28 O30 2.091 . S
Co28 O32 2.004 . S
Co28 O38 2.021 . S
Co28 O40 2.137 . S
Co28 O41 2.244 . S
O29 Co28 2.216 . S
O29 C36 1.247 . S
O30 Co28 2.091 . S
O30 C36 1.261 . S
C31 O40 1.247 . S
C31 O41 1.272 . S
O32 Co28 2.004 . S
O32 C37 1.259 . S
Co33 O34 2.061 . S
Co33 O39 2.052 . S
Co33 O41 2.135 . S
O34 Co33 2.061 . S
O34 C37 1.235 . S
C35 O38 1.238 . S
C35 O39 1.241 . S
C36 O29 1.247 . S
C36 O30 1.261 . S
C37 O32 1.259 . S
C37 O34 1.235 . S
O38 Co28 2.021 . S
O38 C35 1.238 . S
O39 Co33 2.052 . S
O39 C35 1.241 . S
O40 Co28 2.137 . S
O40 C31 1.247 . S
O41 Co28 2.244 . S
O41 C31 1.272 . S
O41 Co33 2.135 . S
Co42 O43 2.216 . S
Co42 O44 2.091 . S
Co42 O46 2.004 . S
Co42 O52 2.021 . S
Co42 O54 2.137 . S
Co42 O55 2.244 . S
O43 Co42 2.216 . S
O43 C50 1.247 . S
O44 Co42 2.091 . S
O44 C50 1.261 . S
C45 O54 1.247 . S
C45 O55 1.272 . S
O46 Co42 2.004 . S
O46 C51 1.259 . S
Co47 O48 2.061 . S
Co47 O53 2.052 . S
Co47 O55 2.135 . S
O48 Co47 2.061 . S
O48 C51 1.235 . S
C49 O52 1.238 . S
C49 O53 1.241 . S
C50 O43 1.247 . S
C50 O44 1.261 . S
C51 O46 1.259 . S
C51 O48 1.235 . S
O52 Co42 2.021 . S
O52 C49 1.238 . S
O53 Co47 2.052 . S
O53 C49 1.241 . S
O54 Co42 2.137 . S
O54 C45 1.247 . S
O55 Co42 2.244 . S
O55 C45 1.272 . S
O55 Co47 2.135 . S
Co56 O57 2.216 . S
Co56 O58 2.091 . S
Co56 O60 2.004 . S
Co56 O66 2.021 . S
Co56 O68 2.137 . S
Co56 O69 2.244 . S
O57 Co56 2.216 . S
O57 C64 1.247 . S
O58 Co56 2.091 . S
O58 C64 1.261 . S
C59 O68 1.247 . S
C59 O69 1.272 . S
O60 Co56 2.004 . S
O60 C65 1.259 . S
Co61 O62 2.061 . S
Co61 O67 2.052 . S
Co61 O69 2.135 . S
O62 Co61 2.061 . S
O62 C65 1.235 . S
C63 O66 1.238 . S
C63 O67 1.241 . S
C64 O57 1.247 . S
C64 O58 1.261 . S
C65 O60 1.259 . S
C65 O62 1.235 . S
O66 Co56 2.021 . S
O66 C63 1.238 . S
O67 Co61 2.052 . S
O67 C63 1.241 . S
O68 Co56 2.137 . S
O68 C59 1.247 . S
O69 Co56 2.244 . S
O69 C59 1.272 . S
O69 Co61 2.135 . S
Co70 O71 2.216 . S
Co70 O72 2.091 . S
Co70 O74 2.004 . S
Co70 O80 2.021 . S
Co70 O82 2.137 . S
Co70 O83 2.244 . S
O71 Co70 2.216 . S
O71 C78 1.247 . S
O72 Co70 2.091 . S
O72 C78 1.261 . S
C73 O82 1.247 . S
C73 O83 1.272 . S
O74 Co70 2.004 . S
O74 C79 1.259 . S
Co75 O76 2.061 . S
Co75 O81 2.052 . S
Co75 O83 2.135 . S
O76 Co75 2.061 . S
O76 C79 1.235 . S
C77 O80 1.238 . S
C77 O81 1.241 . S
C78 O71 1.247 . S
C78 O72 1.261 . S
C79 O74 1.259 . S
C79 O76 1.235 . S
O80 Co70 2.021 . S
O80 C77 1.238 . S
O81 Co75 2.052 . S
O81 C77 1.241 . S
O82 Co70 2.137 . S
O82 C73 1.247 . S
O83 Co70 2.244 . S
O83 C73 1.272 . S
O83 Co75 2.135 . S
Co84 O85 2.216 . S
Co84 O86 2.091 . S
Co84 O88 2.004 . S
Co84 O94 2.021 . S
Co84 O96 2.137 . S
Co84 O97 2.244 . S
O85 Co84 2.216 . S
O85 C92 1.247 . S
O86 Co84 2.091 . S
O86 C92 1.261 . S
C87 O96 1.247 . S
C87 O97 1.272 . S
O88 Co84 2.004 . S
O88 C93 1.259 . S
Co89 O90 2.061 . S
Co89 O95 2.052 . S
Co89 O97 2.135 . S
O90 Co89 2.061 . S
O90 C93 1.235 . S
C91 O94 1.238 . S
C91 O95 1.241 . S
C92 O85 1.247 . S
C92 O86 1.261 . S
C93 O88 1.259 . S
C93 O90 1.235 . S
O94 Co84 2.021 . S
O94 C91 1.238 . S
O95 Co89 2.052 . S
O95 C91 1.241 . S
O96 Co84 2.137 . S
O96 C87 1.247 . S
O97 Co84 2.244 . S
O97 C87 1.272 . S
O97 Co89 2.135 . S
Co98 O99 2.216 . S
Co98 O100 2.091 . S
Co98 O102 2.004 . S
Co98 O108 2.021 . S
Co98 O110 2.137 . S
Co98 O111 2.244 . S
O99 Co98 2.216 . S
O99 C106 1.247 . S
O100 Co98 2.091 . S
O100 C106 1.261 . S
C101 O110 1.247 . S
C101 O111 1.272 . S
O102 Co98 2.004 . S
O102 C107 1.259 . S
Co103 O104 2.061 . S
Co103 O109 2.052 . S
Co103 O111 2.135 . S
O104 Co103 2.061 . S
O104 C107 1.235 . S
C105 O108 1.238 . S
C105 O109 1.241 . S
C106 O99 1.247 . S
C106 O100 1.261 . S
C107 O102 1.259 . S
C107 O104 1.235 . S
O108 Co98 2.021 . S
O108 C105 1.238 . S
O109 Co103 2.052 . S
O109 C105 1.241 . S
O110 Co98 2.137 . S
O110 C101 1.247 . S
O111 Co98 2.244 . S
O111 C101 1.272 . S
O111 Co103 2.135 . S
Co112 O113 2.216 . S
Co112 O114 2.091 . S
Co112 O116 2.004 . S
Co112 O122 2.021 . S
Co112 O124 2.137 . S
Co112 O125 2.244 . S
O113 Co112 2.216 . S
O113 C120 1.247 . S
O114 Co112 2.091 . S
O114 C120 1.261 . S
C115 O124 1.247 . S
C115 O125 1.272 . S
O116 Co112 2.004 . S
O116 C121 1.259 . S
Co117 O118 2.061 . S
Co117 O123 2.052 . S
Co117 O125 2.135 . S
O118 Co117 2.061 . S
O118 C121 1.235 . S
C119 O122 1.238 . S
C119 O123 1.241 . S
C120 O113 1.247 . S
C120 O114 1.261 . S
C121 O116 1.259 . S
C121 O118 1.235 . S
O122 Co112 2.021 . S
O122 C119 1.238 . S
O123 Co117 2.052 . S
O123 C119 1.241 . S
O124 Co112 2.137 . S
O124 C115 1.247 . S
O125 Co112 2.244 . S
O125 C115 1.272 . S
O125 Co117 2.135 . S
Co126 O127 2.216 . S
Co126 O128 2.091 . S
Co126 O130 2.004 . S
Co126 O136 2.021 . S
Co126 O138 2.137 . S
Co126 O139 2.244 . S
O127 Co126 2.216 . S
O127 C134 1.247 . S
O128 Co126 2.091 . S
O128 C134 1.261 . S
C129 O138 1.247 . S
C129 O139 1.272 . S
O130 Co126 2.004 . S
O130 C135 1.259 . S
Co131 O132 2.061 . S
Co131 O137 2.052 . S
Co131 O139 2.135 . S
O132 Co131 2.061 . S
O132 C135 1.235 . S
C133 O136 1.238 . S
C133 O137 1.241 . S
C134 O127 1.247 . S
C134 O128 1.261 . S
C135 O130 1.259 . S
C135 O132 1.235 . S
O136 Co126 2.021 . S
O136 C133 1.238 . S
O137 Co131 2.052 . S
O137 C133 1.241 . S
O138 Co126 2.137 . S
O138 C129 1.247 . S
O139 Co126 2.244 . S
O139 C129 1.272 . S
O139 Co131 2.135 . S
Co140 O141 2.216 . S
Co140 O142 2.091 . S
Co140 O144 2.004 . S
Co140 O150 2.021 . S
Co140 O152 2.137 . S
Co140 O153 2.244 . S
O141 Co140 2.216 . S
O141 C148 1.247 . S
O142 Co140 2.091 . S
O142 C148 1.261 . S
C143 O152 1.247 . S
C143 O153 1.272 . S
O144 Co140 2.004 . S
O144 C149 1.259 . S
Co145 O146 2.061 . S
Co145 O151 2.052 . S
Co145 O153 2.135 . S
O146 Co145 2.061 . S
O146 C149 1.235 . S
C147 O150 1.238 . S
C147 O151 1.241 . S
C148 O141 1.247 . S
C148 O142 1.261 . S
C149 O144 1.259 . S
C149 O146 1.235 . S
O150 Co140 2.021 . S
O150 C147 1.238 . S
O151 Co145 2.052 . S
O151 C147 1.241 . S
O152 Co140 2.137 . S
O152 C143 1.247 . S
O153 Co140 2.244 . S
O153 C143 1.272 . S
O153 Co145 2.135 . S
Co154 O155 2.216 . S
Co154 O156 2.091 . S
Co154 O158 2.004 . S
Co154 O164 2.021 . S
Co154 O166 2.137 . S
Co154 O167 2.244 . S
O155 Co154 2.216 . S
O155 C162 1.247 . S
O156 Co154 2.091 . S
O156 C162 1.261 . S
C157 O166 1.247 . S
C157 O167 1.272 . S
O158 Co154 2.004 . S
O158 C163 1.259 . S
Co159 O160 2.061 . S
Co159 O165 2.052 . S
Co159 O167 2.135 . S
O160 Co159 2.061 . S
O160 C163 1.235 . S
C161 O164 1.238 . S
C161 O165 1.241 . S
C162 O155 1.247 . S
C162 O156 1.261 . S
C163 O158 1.259 . S
C163 O160 1.235 . S
O164 Co154 2.021 . S
O164 C161 1.238 . S
O165 Co159 2.052 . S
O165 C161 1.241 . S
O166 Co154 2.137 . S
O166 C157 1.247 . S
O167 Co154 2.244 . S
O167 C157 1.272 . S
O167 Co159 2.135 . S
Co168 O169 2.216 . S
Co168 O170 2.091 . S
Co168 O172 2.004 . S
Co168 O178 2.021 . S
Co168 O180 2.137 . S
Co168 O181 2.244 . S
O169 Co168 2.216 . S
O169 C176 1.247 . S
O170 Co168 2.091 . S
O170 C176 1.261 . S
C171 O180 1.247 . S
C171 O181 1.272 . S
O172 Co168 2.004 . S
O172 C177 1.259 . S
Co173 O174 2.061 . S
Co173 O179 2.052 . S
Co173 O181 2.135 . S
O174 Co173 2.061 . S
O174 C177 1.235 . S
C175 O178 1.238 . S
C175 O179 1.241 . S
C176 O169 1.247 . S
C176 O170 1.261 . S
C177 O172 1.259 . S
C177 O174 1.235 . S
O178 Co168 2.021 . S
O178 C175 1.238 . S
O179 Co173 2.052 . S
O179 C175 1.241 . S
O180 Co168 2.137 . S
O180 C171 1.247 . S
O181 Co168 2.244 . S
O181 C171 1.272 . S
O181 Co173 2.135 . S
Co182 O183 2.216 . S
Co182 O184 2.091 . S
Co182 O186 2.004 . S
Co182 O192 2.021 . S
Co182 O194 2.137 . S
Co182 O195 2.244 . S
O183 Co182 2.216 . S
O183 C190 1.247 . S
O184 Co182 2.091 . S
O184 C190 1.261 . S
C185 O194 1.247 . S
C185 O195 1.272 . S
O186 Co182 2.004 . S
O186 C191 1.259 . S
Co187 O188 2.061 . S
Co187 O193 2.052 . S
Co187 O195 2.135 . S
O188 Co187 2.061 . S
O188 C191 1.235 . S
C189 O192 1.238 . S
C189 O193 1.241 . S
C190 O183 1.247 . S
C190 O184 1.261 . S
C191 O186 1.259 . S
C191 O188 1.235 . S
O192 Co182 2.021 . S
O192 C189 1.238 . S
O193 Co187 2.052 . S
O193 C189 1.241 . S
O194 Co182 2.137 . S
O194 C185 1.247 . S
O195 Co182 2.244 . S
O195 C185 1.272 . S
O195 Co187 2.135 . S
Co196 O197 2.216 . S
Co196 O198 2.091 . S
Co196 O200 2.004 . S
Co196 O206 2.021 . S
Co196 O208 2.137 . S
Co196 O209 2.244 . S
O197 Co196 2.216 . S
O197 C204 1.247 . S
O198 Co196 2.091 . S
O198 C204 1.261 . S
C199 O208 1.247 . S
C199 O209 1.272 . S
O200 Co196 2.004 . S
O200 C205 1.259 . S
Co201 O202 2.061 . S
Co201 O207 2.052 . S
Co201 O209 2.135 . S
O202 Co201 2.061 . S
O202 C205 1.235 . S
C203 O206 1.238 . S
C203 O207 1.241 . S
C204 O197 1.247 . S
C204 O198 1.261 . S
C205 O200 1.259 . S
C205 O202 1.235 . S
O206 Co196 2.021 . S
O206 C203 1.238 . S
O207 Co201 2.052 . S
O207 C203 1.241 . S
O208 Co196 2.137 . S
O208 C199 1.247 . S
O209 Co196 2.244 . S
O209 C199 1.272 . S
O209 Co201 2.135 . S
Co210 O211 2.216 . S
Co210 O212 2.091 . S
Co210 O214 2.004 . S
Co210 O220 2.021 . S
Co210 O222 2.137 . S
Co210 O223 2.244 . S
O211 Co210 2.216 . S
O211 C218 1.247 . S
O212 Co210 2.091 . S
O212 C218 1.261 . S
C213 O222 1.247 . S
C213 O223 1.272 . S
O214 Co210 2.004 . S
O214 C219 1.259 . S
Co215 O216 2.061 . S
Co215 O221 2.052 . S
Co215 O223 2.135 . S
O216 Co215 2.061 . S
O216 C219 1.235 . S
C217 O220 1.238 . S
C217 O221 1.241 . S
C218 O211 1.247 . S
C218 O212 1.261 . S
C219 O214 1.259 . S
C219 O216 1.235 . S
O220 Co210 2.021 . S
O220 C217 1.238 . S
O221 Co215 2.052 . S
O221 C217 1.241 . S
O222 Co210 2.137 . S
O222 C213 1.247 . S
O223 Co210 2.244 . S
O223 C213 1.272 . S
O223 Co215 2.135 . S
Co224 O225 2.216 . S
Co224 O226 2.091 . S
Co224 O228 2.004 . S
Co224 O234 2.021 . S
Co224 O236 2.137 . S
Co224 O237 2.244 . S
O225 Co224 2.216 . S
O225 C232 1.247 . S
O226 Co224 2.091 . S
O226 C232 1.261 . S
C227 O236 1.247 . S
C227 O237 1.272 . S
O228 Co224 2.004 . S
O228 C233 1.259 . S
Co229 O230 2.061 . S
Co229 O235 2.052 . S
Co229 O237 2.135 . S
O230 Co229 2.061 . S
O230 C233 1.235 . S
C231 O234 1.238 . S
C231 O235 1.241 . S
C232 O225 1.247 . S
C232 O226 1.261 . S
C233 O228 1.259 . S
C233 O230 1.235 . S
O234 Co224 2.021 . S
O234 C231 1.238 . S
O235 Co229 2.052 . S
O235 C231 1.241 . S
O236 Co224 2.137 . S
O236 C227 1.247 . S
O237 Co224 2.244 . S
O237 C227 1.272 . S
O237 Co229 2.135 . S
Co238 O239 2.216 . S
Co238 O240 2.091 . S
Co238 O242 2.004 . S
Co238 O248 2.021 . S
Co238 O250 2.137 . S
Co238 O251 2.244 . S
O239 Co238 2.216 . S
O239 C246 1.247 . S
O240 Co238 2.091 . S
O240 C246 1.261 . S
C241 O250 1.247 . S
C241 O251 1.272 . S
O242 Co238 2.004 . S
O242 C247 1.259 . S
Co243 O244 2.061 . S
Co243 O249 2.052 . S
Co243 O251 2.135 . S
O244 Co243 2.061 . S
O244 C247 1.235 . S
C245 O248 1.238 . S
C245 O249 1.241 . S
C246 O239 1.247 . S
C246 O240 1.261 . S
C247 O242 1.259 . S
C247 O244 1.235 . S
O248 Co238 2.021 . S
O248 C245 1.238 . S
O249 Co243 2.052 . S
O249 C245 1.241 . S
O250 Co238 2.137 . S
O250 C241 1.247 . S
O251 Co238 2.244 . S
O251 C241 1.272 . S
O251 Co243 2.135 . S
Co252 O253 2.216 . S
Co252 O254 2.091 . S
Co252 O256 2.004 . S
Co252 O262 2.021 . S
Co252 O264 2.137 . S
Co252 O265 2.244 . S
O253 Co252 2.216 . S
O253 C260 1.247 . S
O254 Co252 2.091 . S
O254 C260 1.261 . S
C255 O264 1.247 . S
C255 O265 1.272 . S
O256 Co252 2.004 . S
O256 C261 1.259 . S
Co257 O258 2.061 . S
Co257 O263 2.052 . S
Co257 O265 2.135 . S
O258 Co257 2.061 . S
O258 C261 1.235 . S
C259 O262 1.238 . S
C259 O263 1.241 . S
C260 O253 1.247 . S
C260 O254 1.261 . S
C261 O256 1.259 . S
C261 O258 1.235 . S
O262 Co252 2.021 . S
O262 C259 1.238 . S
O263 Co257 2.052 . S
O263 C259 1.241 . S
O264 Co252 2.137 . S
O264 C255 1.247 . S
O265 Co252 2.244 . S
O265 C255 1.272 . S
O265 Co257 2.135 . S
Co266 O267 2.216 . S
Co266 O268 2.091 . S
Co266 O270 2.004 . S
Co266 O276 2.021 . S
Co266 O278 2.137 . S
Co266 O279 2.244 . S
O267 Co266 2.216 . S
O267 C274 1.247 . S
O268 Co266 2.091 . S
O268 C274 1.261 . S
C269 O278 1.247 . S
C269 O279 1.272 . S
O270 Co266 2.004 . S
O270 C275 1.259 . S
Co271 O272 2.061 . S
Co271 O277 2.052 . S
Co271 O279 2.135 . S
O272 Co271 2.061 . S
O272 C275 1.235 . S
C273 O276 1.238 . S
C273 O277 1.241 . S
C274 O267 1.247 . S
C274 O268 1.261 . S
C275 O270 1.259 . S
C275 O272 1.235 . S
O276 Co266 2.021 . S
O276 C273 1.238 . S
O277 Co271 2.052 . S
O277 C273 1.241 . S
O278 Co266 2.137 . S
O278 C269 1.247 . S
O279 Co266 2.244 . S
O279 C269 1.272 . S
O279 Co271 2.135 . S
Co280 O281 2.216 . S
Co280 O282 2.091 . S
Co280 O284 2.004 . S
Co280 O290 2.021 . S
Co280 O292 2.137 . S
Co280 O293 2.244 . S
O281 Co280 2.216 . S
O281 C288 1.247 . S
O282 Co280 2.091 . S
O282 C288 1.261 . S
C283 O292 1.247 . S
C283 O293 1.272 . S
O284 Co280 2.004 . S
O284 C289 1.259 . S
Co285 O286 2.061 . S
Co285 O291 2.052 . S
Co285 O293 2.135 . S
O286 Co285 2.061 . S
O286 C289 1.235 . S
C287 O290 1.238 . S
C287 O291 1.241 . S
C288 O281 1.247 . S
C288 O282 1.261 . S
C289 O284 1.259 . S
C289 O286 1.235 . S
O290 Co280 2.021 . S
O290 C287 1.238 . S
O291 Co285 2.052 . S
O291 C287 1.241 . S
O292 Co280 2.137 . S
O292 C283 1.247 . S
O293 Co280 2.244 . S
O293 C283 1.272 . S
O293 Co285 2.135 . S
Co294 O295 2.216 . S
Co294 O296 2.091 . S
Co294 O298 2.004 . S
Co294 O304 2.021 . S
Co294 O306 2.137 . S
Co294 O307 2.244 . S
O295 Co294 2.216 . S
O295 C302 1.247 . S
O296 Co294 2.091 . S
O296 C302 1.261 . S
C297 O306 1.247 . S
C297 O307 1.272 . S
O298 Co294 2.004 . S
O298 C303 1.259 . S
Co299 O300 2.061 . S
Co299 O305 2.052 . S
Co299 O307 2.135 . S
O300 Co299 2.061 . S
O300 C303 1.235 . S
C301 O304 1.238 . S
C301 O305 1.241 . S
C302 O295 1.247 . S
C302 O296 1.261 . S
C303 O298 1.259 . S
C303 O300 1.235 . S
O304 Co294 2.021 . S
O304 C301 1.238 . S
O305 Co299 2.052 . S
O305 C301 1.241 . S
O306 Co294 2.137 . S
O306 C297 1.247 . S
O307 Co294 2.244 . S
O307 C297 1.272 . S
O307 Co299 2.135 . S
Co308 O309 2.216 . S
Co308 O310 2.091 . S
Co308 O312 2.004 . S
Co308 O318 2.021 . S
Co308 O320 2.137 . S
Co308 O321 2.244 . S
O309 Co308 2.216 . S
O309 C316 1.247 . S
O310 Co308 2.091 . S
O310 C316 1.261 . S
C311 O320 1.247 . S
C311 O321 1.272 . S
O312 Co308 2.004 . S
O312 C317 1.259 . S
Co313 O314 2.061 . S
Co313 O319 2.052 . S
Co313 O321 2.135 . S
O314 Co313 2.061 . S
O314 C317 1.235 . S
C315 O318 1.238 . S
C315 O319 1.241 . S
C316 O309 1.247 . S
C316 O310 1.261 . S
C317 O312 1.259 . S
C317 O314 1.235 . S
O318 Co308 2.021 . S
O318 C315 1.238 . S
O319 Co313 2.052 . S
O319 C315 1.241 . S
O320 Co308 2.137 . S
O320 C311 1.247 . S
O321 Co308 2.244 . S
O321 C311 1.272 . S
O321 Co313 2.135 . S
Co322 O323 2.216 . S
Co322 O324 2.091 . S
Co322 O326 2.004 . S
Co322 O332 2.021 . S
Co322 O334 2.137 . S
Co322 O335 2.244 . S
O323 Co322 2.216 . S
O323 C330 1.247 . S
O324 Co322 2.091 . S
O324 C330 1.261 . S
C325 O334 1.247 . S
C325 O335 1.272 . S
O326 Co322 2.004 . S
O326 C331 1.259 . S
Co327 O328 2.061 . S
Co327 O333 2.052 . S
Co327 O335 2.135 . S
O328 Co327 2.061 . S
O328 C331 1.235 . S
C329 O332 1.238 . S
C329 O333 1.241 . S
C330 O323 1.247 . S
C330 O324 1.261 . S
C331 O326 1.259 . S
C331 O328 1.235 . S
O332 Co322 2.021 . S
O332 C329 1.238 . S
O333 Co327 2.052 . S
O333 C329 1.241 . S
O334 Co322 2.137 . S
O334 C325 1.247 . S
O335 Co322 2.244 . S
O335 C325 1.272 . S
O335 Co327 2.135 . S
Co336 O337 2.216 . S
Co336 O338 2.091 . S
Co336 O340 2.004 . S
Co336 O346 2.021 . S
Co336 O348 2.137 . S
Co336 O349 2.244 . S
O337 Co336 2.216 . S
O337 C344 1.247 . S
O338 Co336 2.091 . S
O338 C344 1.261 . S
C339 O348 1.247 . S
C339 O349 1.272 . S
O340 Co336 2.004 . S
O340 C345 1.259 . S
Co341 O342 2.061 . S
Co341 O347 2.052 . S
Co341 O349 2.135 . S
O342 Co341 2.061 . S
O342 C345 1.235 . S
C343 O346 1.238 . S
C343 O347 1.241 . S
C344 O337 1.247 . S
C344 O338 1.261 . S
C345 O340 1.259 . S
C345 O342 1.235 . S
O346 Co336 2.021 . S
O346 C343 1.238 . S
O347 Co341 2.052 . S
O347 C343 1.241 . S
O348 Co336 2.137 . S
O348 C339 1.247 . S
O349 Co336 2.244 . S
O349 C339 1.272 . S
O349 Co341 2.135 . S
Co350 O351 2.216 . S
Co350 O352 2.091 . S
Co350 O354 2.004 . S
Co350 O360 2.021 . S
Co350 O362 2.137 . S
Co350 O363 2.244 . S
O351 Co350 2.216 . S
O351 C358 1.247 . S
O352 Co350 2.091 . S
O352 C358 1.261 . S
C353 O362 1.247 . S
C353 O363 1.272 . S
O354 Co350 2.004 . S
O354 C359 1.259 . S
Co355 O356 2.061 . S
Co355 O361 2.052 . S
Co355 O363 2.135 . S
O356 Co355 2.061 . S
O356 C359 1.235 . S
C357 O360 1.238 . S
C357 O361 1.241 . S
C358 O351 1.247 . S
C358 O352 1.261 . S
C359 O354 1.259 . S
C359 O356 1.235 . S
O360 Co350 2.021 . S
O360 C357 1.238 . S
O361 Co355 2.052 . S
O361 C357 1.241 . S
O362 Co350 2.137 . S
O362 C353 1.247 . S
O363 Co350 2.244 . S
O363 C353 1.272 . S
O363 Co355 2.135 . S
Co364 O365 2.216 . S
Co364 O366 2.091 . S
Co364 O368 2.004 . S
Co364 O374 2.021 . S
Co364 O376 2.137 . S
Co364 O377 2.244 . S
O365 Co364 2.216 . S
O365 C372 1.247 . S
O366 Co364 2.091 . S
O366 C372 1.261 . S
C367 O376 1.247 . S
C367 O377 1.272 . S
O368 Co364 2.004 . S
O368 C373 1.259 . S
Co369 O370 2.061 . S
Co369 O375 2.052 . S
Co369 O377 2.135 . S
O370 Co369 2.061 . S
O370 C373 1.235 . S
C371 O374 1.238 . S
C371 O375 1.241 . S
C372 O365 1.247 . S
C372 O366 1.261 . S
C373 O368 1.259 . S
C373 O370 1.235 . S
O374 Co364 2.021 . S
O374 C371 1.238 . S
O375 Co369 2.052 . S
O375 C371 1.241 . S
O376 Co364 2.137 . S
O376 C367 1.247 . S
O377 Co364 2.244 . S
O377 C367 1.272 . S
O377 Co369 2.135 . S
Co378 O379 2.216 . S
Co378 O380 2.091 . S
Co378 O382 2.004 . S
Co378 O388 2.021 . S
Co378 O390 2.137 . S
Co378 O391 2.244 . S
O379 Co378 2.216 . S
O379 C386 1.247 . S
O380 Co378 2.091 . S
O380 C386 1.261 . S
C381 O390 1.247 . S
C381 O391 1.272 . S
O382 Co378 2.004 . S
O382 C387 1.259 . S
Co383 O384 2.061 . S
Co383 O389 2.052 . S
Co383 O391 2.135 . S
O384 Co383 2.061 . S
O384 C387 1.235 . S
C385 O388 1.238 . S
C385 O389 1.241 . S
C386 O379 1.247 . S
C386 O380 1.261 . S
C387 O382 1.259 . S
C387 O384 1.235 . S
O388 Co378 2.021 . S
O388 C385 1.238 . S
O389 Co383 2.052 . S
O389 C385 1.241 . S
O390 Co378 2.137 . S
O390 C381 1.247 . S
O391 Co378 2.244 . S
O391 C381 1.272 . S
O391 Co383 2.135 . S
Co392 O393 2.216 . S
Co392 O394 2.091 . S
Co392 O396 2.004 . S
Co392 O402 2.021 . S
Co392 O404 2.137 . S
Co392 O405 2.244 . S
O393 Co392 2.216 . S
O393 C400 1.247 . S
O394 Co392 2.091 . S
O394 C400 1.261 . S
C395 O404 1.247 . S
C395 O405 1.272 . S
O396 Co392 2.004 . S
O396 C401 1.259 . S
Co397 O398 2.061 . S
Co397 O403 2.052 . S
Co397 O405 2.135 . S
O398 Co397 2.061 . S
O398 C401 1.235 . S
C399 O402 1.238 . S
C399 O403 1.241 . S
C400 O393 1.247 . S
C400 O394 1.261 . S
C401 O396 1.259 . S
C401 O398 1.235 . S
O402 Co392 2.021 . S
O402 C399 1.238 . S
O403 Co397 2.052 . S
O403 C399 1.241 . S
O404 Co392 2.137 . S
O404 C395 1.247 . S
O405 Co392 2.244 . S
O405 C395 1.272 . S
O405 Co397 2.135 . S
Co406 O407 2.216 . S
Co406 O408 2.091 . S
Co406 O410 2.004 . S
Co406 O416 2.021 . S
Co406 O418 2.137 . S
Co406 O419 2.244 . S
O407 Co406 2.216 . S
O407 C414 1.247 . S
O408 Co406 2.091 . S
O408 C414 1.261 . S
C409 O418 1.247 . S
C409 O419 1.272 . S
O410 Co406 2.004 . S
O410 C415 1.259 . S
Co411 O412 2.061 . S
Co411 O417 2.052 . S
Co411 O419 2.135 . S
O412 Co411 2.061 . S
O412 C415 1.235 . S
C413 O416 1.238 . S
C413 O417 1.241 . S
C414 O407 1.247 . S
C414 O408 1.261 . S
C415 O410 1.259 . S
C415 O412 1.235 . S
O416 Co406 2.021 . S
O416 C413 1.238 . S
O417 Co411 2.052 . S
O417 C413 1.241 . S
O418 Co406 2.137 . S
O418 C409 1.247 . S
O419 Co406 2.244 . S
O419 C409 1.272 . S
O419 Co411 2.135 . S
Co420 O421 2.216 . S
Co420 O422 2.091 . S
Co420 O424 2.004 . S
Co420 O430 2.021 . S
Co420 O432 2.137 . S
Co420 O433 2.244 . S
O421 Co420 2.216 . S
O421 C428 1.247 . S
O422 Co420 2.091 . S
O422 C428 1.261 . S
C423 O432 1.247 . S
C423 O433 1.272 . S
O424 Co420 2.004 . S
O424 C429 1.259 . S
Co425 O426 2.061 . S
Co425 O431 2.052 . S
Co425 O433 2.135 . S
O426 Co425 2.061 . S
O426 C429 1.235 . S
C427 O430 1.238 . S
C427 O431 1.241 . S
C428 O421 1.247 . S
C428 O422 1.261 . S
C429 O424 1.259 . S
C429 O426 1.235 . S
O430 Co420 2.021 . S
O430 C427 1.238 . S
O431 Co425 2.052 . S
O431 C427 1.241 . S
O432 Co420 2.137 . S
O432 C423 1.247 . S
O433 Co420 2.244 . S
O433 C423 1.272 . S
O433 Co425 2.135 . S
Co434 O435 2.216 . S
Co434 O436 2.091 . S
Co434 O438 2.004 . S
Co434 O444 2.021 . S
Co434 O446 2.137 . S
Co434 O447 2.244 . S
O435 Co434 2.216 . S
O435 C442 1.247 . S
O436 Co434 2.091 . S
O436 C442 1.261 . S
C437 O446 1.247 . S
C437 O447 1.272 . S
O438 Co434 2.004 . S
O438 C443 1.259 . S
Co439 O440 2.061 . S
Co439 O445 2.052 . S
Co439 O447 2.135 . S
O440 Co439 2.061 . S
O440 C443 1.235 . S
C441 O444 1.238 . S
C441 O445 1.241 . S
C442 O435 1.247 . S
C442 O436 1.261 . S
C443 O438 1.259 . S
C443 O440 1.235 . S
O444 Co434 2.021 . S
O444 C441 1.238 . S
O445 Co439 2.052 . S
O445 C441 1.241 . S
O446 Co434 2.137 . S
O446 C437 1.247 . S
O447 Co434 2.244 . S
O447 C437 1.272 . S
O447 Co439 2.135 . S
H448 C454 0.930 . S
H449 C457 0.930 . S
H450 C458 0.930 . S
H451 C459 0.930 . S
H452 C462 0.930 . S
H453 C463 0.930 . S
C454 H448 0.930 . S
C454 C455 1.355 . S
C454 C456 1.415 . S
C455 C454 1.355 . S
C455 C457 1.419 . S
C456 C454 1.415 . S
C456 C461 1.425 . S
C456 C463 1.409 . S
C457 H449 0.930 . S
C457 C455 1.419 . S
C457 C458 1.362 . S
C458 H450 0.930 . S
C458 C457 1.362 . S
C458 C461 1.409 . S
C459 H451 0.930 . S
C459 C460 1.355 . S
C459 C461 1.415 . S
C460 C459 1.355 . S
C460 C462 1.419 . S
C461 C456 1.425 . S
C461 C458 1.409 . S
C461 C459 1.415 . S
C462 H452 0.930 . S
C462 C460 1.419 . S
C462 C463 1.362 . S
C463 H453 0.930 . S
C463 C456 1.409 . S
C463 C462 1.362 . S
H464 C470 0.930 . S
H465 C473 0.930 . S
H466 C474 0.930 . S
H467 C475 0.930 . S
H468 C478 0.930 . S
H469 C479 0.930 . S
C470 H464 0.930 . S
C470 C471 1.355 . S
C470 C472 1.415 . S
C471 C470 1.355 . S
C471 C473 1.419 . S
C472 C470 1.415 . S
C472 C477 1.425 . S
C472 C479 1.409 . S
C473 H465 0.930 . S
C473 C471 1.419 . S
C473 C474 1.362 . S
C474 H466 0.930 . S
C474 C473 1.362 . S
C474 C477 1.409 . S
C475 H467 0.930 . S
C475 C476 1.355 . S
C475 C477 1.415 . S
C476 C475 1.355 . S
C476 C478 1.419 . S
C477 C472 1.425 . S
C477 C474 1.409 . S
C477 C475 1.415 . S
C478 H468 0.930 . S
C478 C476 1.419 . S
C478 C479 1.362 . S
C479 H469 0.930 . S
C479 C472 1.409 . S
C479 C478 1.362 . S
H480 C486 0.930 . S
H481 C489 0.930 . S
H482 C490 0.930 . S
H483 C491 0.930 . S
H484 C494 0.930 . S
H485 C495 0.930 . S
C486 H480 0.930 . S
C486 C487 1.355 . S
C486 C488 1.415 . S
C487 C486 1.355 . S
C487 C489 1.419 . S
C488 C486 1.415 . S
C488 C493 1.425 . S
C488 C495 1.409 . S
C489 H481 0.930 . S
C489 C487 1.419 . S
C489 C490 1.362 . S
C490 H482 0.930 . S
C490 C489 1.362 . S
C490 C493 1.409 . S
C491 H483 0.930 . S
C491 C492 1.355 . S
C491 C493 1.415 . S
C492 C491 1.355 . S
C492 C494 1.419 . S
C493 C488 1.425 . S
C493 C490 1.409 . S
C493 C491 1.415 . S
C494 H484 0.930 . S
C494 C492 1.419 . S
C494 C495 1.362 . S
C495 H485 0.930 . S
C495 C488 1.409 . S
C495 C494 1.362 . S
H496 C502 0.930 . S
H497 C505 0.930 . S
H498 C506 0.930 . S
H499 C507 0.930 . S
H500 C510 0.930 . S
H501 C511 0.930 . S
C502 H496 0.930 . S
C502 C503 1.355 . S
C502 C504 1.415 . S
C503 C502 1.355 . S
C503 C505 1.419 . S
C504 C502 1.415 . S
C504 C509 1.425 . S
C504 C511 1.409 . S
C505 H497 0.930 . S
C505 C503 1.419 . S
C505 C506 1.362 . S
C506 H498 0.930 . S
C506 C505 1.362 . S
C506 C509 1.409 . S
C507 H499 0.930 . S
C507 C508 1.355 . S
C507 C509 1.415 . S
C508 C507 1.355 . S
C508 C510 1.419 . S
C509 C504 1.425 . S
C509 C506 1.409 . S
C509 C507 1.415 . S
C510 H500 0.930 . S
C510 C508 1.419 . S
C510 C511 1.362 . S
C511 H501 0.930 . S
C511 C504 1.409 . S
C511 C510 1.362 . S
H512 C518 0.930 . S
H513 C521 0.930 . S
H514 C522 0.930 . S
H515 C523 0.930 . S
H516 C526 0.930 . S
H517 C527 0.930 . S
C518 H512 0.930 . S
C518 C519 1.355 . S
C518 C520 1.415 . S
C519 C518 1.355 . S
C519 C521 1.419 . S
C520 C518 1.415 . S
C520 C525 1.425 . S
C520 C527 1.409 . S
C521 H513 0.930 . S
C521 C519 1.419 . S
C521 C522 1.362 . S
C522 H514 0.930 . S
C522 C521 1.362 . S
C522 C525 1.409 . S
C523 H515 0.930 . S
C523 C524 1.355 . S
C523 C525 1.415 . S
C524 C523 1.355 . S
C524 C526 1.419 . S
C525 C520 1.425 . S
C525 C522 1.409 . S
C525 C523 1.415 . S
C526 H516 0.930 . S
C526 C524 1.419 . S
C526 C527 1.362 . S
C527 H517 0.930 . S
C527 C520 1.409 . S
C527 C526 1.362 . S
H528 C534 0.930 . S
H529 C537 0.930 . S
H530 C538 0.930 . S
H531 C539 0.930 . S
H532 C542 0.930 . S
H533 C543 0.930 . S
C534 H528 0.930 . S
C534 C535 1.355 . S
C534 C536 1.415 . S
C535 C534 1.355 . S
C535 C537 1.419 . S
C536 C534 1.415 . S
C536 C541 1.425 . S
C536 C543 1.409 . S
C537 H529 0.930 . S
C537 C535 1.419 . S
C537 C538 1.362 . S
C538 H530 0.930 . S
C538 C537 1.362 . S
C538 C541 1.409 . S
C539 H531 0.930 . S
C539 C540 1.355 . S
C539 C541 1.415 . S
C540 C539 1.355 . S
C540 C542 1.419 . S
C541 C536 1.425 . S
C541 C538 1.409 . S
C541 C539 1.415 . S
C542 H532 0.930 . S
C542 C540 1.419 . S
C542 C543 1.362 . S
C543 H533 0.930 . S
C543 C536 1.409 . S
C543 C542 1.362 . S
H544 C550 0.930 . S
H545 C553 0.930 . S
H546 C554 0.930 . S
H547 C555 0.930 . S
H548 C558 0.930 . S
H549 C559 0.930 . S
C550 H544 0.930 . S
C550 C551 1.355 . S
C550 C552 1.415 . S
C551 C550 1.355 . S
C551 C553 1.419 . S
C552 C550 1.415 . S
C552 C557 1.425 . S
C552 C559 1.409 . S
C553 H545 0.930 . S
C553 C551 1.419 . S
C553 C554 1.362 . S
C554 H546 0.930 . S
C554 C553 1.362 . S
C554 C557 1.409 . S
C555 H547 0.930 . S
C555 C556 1.355 . S
C555 C557 1.415 . S
C556 C555 1.355 . S
C556 C558 1.419 . S
C557 C552 1.425 . S
C557 C554 1.409 . S
C557 C555 1.415 . S
C558 H548 0.930 . S
C558 C556 1.419 . S
C558 C559 1.362 . S
C559 H549 0.930 . S
C559 C552 1.409 . S
C559 C558 1.362 . S
H560 C566 0.930 . S
H561 C569 0.930 . S
H562 C570 0.930 . S
H563 C571 0.930 . S
H564 C574 0.930 . S
H565 C575 0.930 . S
C566 H560 0.930 . S
C566 C567 1.355 . S
C566 C568 1.415 . S
C567 C566 1.355 . S
C567 C569 1.419 . S
C568 C566 1.415 . S
C568 C573 1.425 . S
C568 C575 1.409 . S
C569 H561 0.930 . S
C569 C567 1.419 . S
C569 C570 1.362 . S
C570 H562 0.930 . S
C570 C569 1.362 . S
C570 C573 1.409 . S
C571 H563 0.930 . S
C571 C572 1.355 . S
C571 C573 1.415 . S
C572 C571 1.355 . S
C572 C574 1.419 . S
C573 C568 1.425 . S
C573 C570 1.409 . S
C573 C571 1.415 . S
C574 H564 0.930 . S
C574 C572 1.419 . S
C574 C575 1.362 . S
C575 H565 0.930 . S
C575 C568 1.409 . S
C575 C574 1.362 . S
H576 C582 0.930 . S
H577 C585 0.930 . S
H578 C586 0.930 . S
H579 C587 0.930 . S
H580 C590 0.930 . S
H581 C591 0.930 . S
C582 H576 0.930 . S
C582 C583 1.355 . S
C582 C584 1.415 . S
C583 C582 1.355 . S
C583 C585 1.419 . S
C584 C582 1.415 . S
C584 C589 1.425 . S
C584 C591 1.409 . S
C585 H577 0.930 . S
C585 C583 1.419 . S
C585 C586 1.362 . S
C586 H578 0.930 . S
C586 C585 1.362 . S
C586 C589 1.409 . S
C587 H579 0.930 . S
C587 C588 1.355 . S
C587 C589 1.415 . S
C588 C587 1.355 . S
C588 C590 1.419 . S
C589 C584 1.425 . S
C589 C586 1.409 . S
C589 C587 1.415 . S
C590 H580 0.930 . S
C590 C588 1.419 . S
C590 C591 1.362 . S
C591 H581 0.930 . S
C591 C584 1.409 . S
C591 C590 1.362 . S
H592 C598 0.930 . S
H593 C601 0.930 . S
H594 C602 0.930 . S
H595 C603 0.930 . S
H596 C606 0.930 . S
H597 C607 0.930 . S
C598 H592 0.930 . S
C598 C599 1.355 . S
C598 C600 1.415 . S
C599 C598 1.355 . S
C599 C601 1.419 . S
C600 C598 1.415 . S
C600 C605 1.425 . S
C600 C607 1.409 . S
C601 H593 0.930 . S
C601 C599 1.419 . S
C601 C602 1.362 . S
C602 H594 0.930 . S
C602 C601 1.362 . S
C602 C605 1.409 . S
C603 H595 0.930 . S
C603 C604 1.355 . S
C603 C605 1.415 . S
C604 C603 1.355 . S
C604 C606 1.419 . S
C605 C600 1.425 . S
C605 C602 1.409 . S
C605 C603 1.415 . S
C606 H596 0.930 . S
C606 C604 1.419 . S
C606 C607 1.362 . S
C607 H597 0.930 . S
C607 C600 1.409 . S
C607 C606 1.362 . S
H608 C614 0.930 . S
H609 C617 0.930 . S
H610 C618 0.930 . S
H611 C619 0.930 . S
H612 C622 0.930 . S
H613 C623 0.930 . S
C614 H608 0.930 . S
C614 C615 1.355 . S
C614 C616 1.415 . S
C615 C614 1.355 . S
C615 C617 1.419 . S
C616 C614 1.415 . S
C616 C621 1.425 . S
C616 C623 1.409 . S
C617 H609 0.930 . S
C617 C615 1.419 . S
C617 C618 1.362 . S
C618 H610 0.930 . S
C618 C617 1.362 . S
C618 C621 1.409 . S
C619 H611 0.930 . S
C619 C620 1.355 . S
C619 C621 1.415 . S
C620 C619 1.355 . S
C620 C622 1.419 . S
C621 C616 1.425 . S
C621 C618 1.409 . S
C621 C619 1.415 . S
C622 H612 0.930 . S
C622 C620 1.419 . S
C622 C623 1.362 . S
C623 H613 0.930 . S
C623 C616 1.409 . S
C623 C622 1.362 . S
H624 C630 0.930 . S
H625 C633 0.930 . S
H626 C634 0.930 . S
H627 C635 0.930 . S
H628 C638 0.930 . S
H629 C639 0.930 . S
C630 H624 0.930 . S
C630 C631 1.355 . S
C630 C632 1.415 . S
C631 C630 1.355 . S
C631 C633 1.419 . S
C632 C630 1.415 . S
C632 C637 1.425 . S
C632 C639 1.409 . S
C633 H625 0.930 . S
C633 C631 1.419 . S
C633 C634 1.362 . S
C634 H626 0.930 . S
C634 C633 1.362 . S
C634 C637 1.409 . S
C635 H627 0.930 . S
C635 C636 1.355 . S
C635 C637 1.415 . S
C636 C635 1.355 . S
C636 C638 1.419 . S
C637 C632 1.425 . S
C637 C634 1.409 . S
C637 C635 1.415 . S
C638 H628 0.930 . S
C638 C636 1.419 . S
C638 C639 1.362 . S
C639 H629 0.930 . S
C639 C632 1.409 . S
C639 C638 1.362 . S
H640 C646 0.930 . S
H641 C649 0.930 . S
H642 C650 0.930 . S
H643 C651 0.930 . S
H644 C654 0.930 . S
H645 C655 0.930 . S
C646 H640 0.930 . S
C646 C647 1.355 . S
C646 C648 1.415 . S
C647 C646 1.355 . S
C647 C649 1.419 . S
C648 C646 1.415 . S
C648 C653 1.425 . S
C648 C655 1.409 . S
C649 H641 0.930 . S
C649 C647 1.419 . S
C649 C650 1.362 . S
C650 H642 0.930 . S
C650 C649 1.362 . S
C650 C653 1.409 . S
C651 H643 0.930 . S
C651 C652 1.355 . S
C651 C653 1.415 . S
C652 C651 1.355 . S
C652 C654 1.419 . S
C653 C648 1.425 . S
C653 C650 1.409 . S
C653 C651 1.415 . S
C654 H644 0.930 . S
C654 C652 1.419 . S
C654 C655 1.362 . S
C655 H645 0.930 . S
C655 C648 1.409 . S
C655 C654 1.362 . S
H656 C662 0.930 . S
H657 C665 0.930 . S
H658 C666 0.930 . S
H659 C667 0.930 . S
H660 C670 0.930 . S
H661 C671 0.930 . S
C662 H656 0.930 . S
C662 C663 1.355 . S
C662 C664 1.415 . S
C663 C662 1.355 . S
C663 C665 1.419 . S
C664 C662 1.415 . S
C664 C669 1.425 . S
C664 C671 1.409 . S
C665 H657 0.930 . S
C665 C663 1.419 . S
C665 C666 1.362 . S
C666 H658 0.930 . S
C666 C665 1.362 . S
C666 C669 1.409 . S
C667 H659 0.930 . S
C667 C668 1.355 . S
C667 C669 1.415 . S
C668 C667 1.355 . S
C668 C670 1.419 . S
C669 C664 1.425 . S
C669 C666 1.409 . S
C669 C667 1.415 . S
C670 H660 0.930 . S
C670 C668 1.419 . S
C670 C671 1.362 . S
C671 H661 0.930 . S
C671 C664 1.409 . S
C671 C670 1.362 . S
H672 C678 0.930 . S
H673 C681 0.930 . S
H674 C682 0.930 . S
H675 C683 0.930 . S
H676 C686 0.930 . S
H677 C687 0.930 . S
C678 H672 0.930 . S
C678 C679 1.355 . S
C678 C680 1.415 . S
C679 C678 1.355 . S
C679 C681 1.419 . S
C680 C678 1.415 . S
C680 C685 1.425 . S
C680 C687 1.409 . S
C681 H673 0.930 . S
C681 C679 1.419 . S
C681 C682 1.362 . S
C682 H674 0.930 . S
C682 C681 1.362 . S
C682 C685 1.409 . S
C683 H675 0.930 . S
C683 C684 1.355 . S
C683 C685 1.415 . S
C684 C683 1.355 . S
C684 C686 1.419 . S
C685 C680 1.425 . S
C685 C682 1.409 . S
C685 C683 1.415 . S
C686 H676 0.930 . S
C686 C684 1.419 . S
C686 C687 1.362 . S
C687 H677 0.930 . S
C687 C680 1.409 . S
C687 C686 1.362 . S
H688 C694 0.930 . S
H689 C697 0.930 . S
H690 C698 0.930 . S
H691 C699 0.930 . S
H692 C702 0.930 . S
H693 C703 0.930 . S
C694 H688 0.930 . S
C694 C695 1.355 . S
C694 C696 1.415 . S
C695 C694 1.355 . S
C695 C697 1.419 . S
C696 C694 1.415 . S
C696 C701 1.425 . S
C696 C703 1.409 . S
C697 H689 0.930 . S
C697 C695 1.419 . S
C697 C698 1.362 . S
C698 H690 0.930 . S
C698 C697 1.362 . S
C698 C701 1.409 . S
C699 H691 0.930 . S
C699 C700 1.355 . S
C699 C701 1.415 . S
C700 C699 1.355 . S
C700 C702 1.419 . S
C701 C696 1.425 . S
C701 C698 1.409 . S
C701 C699 1.415 . S
C702 H692 0.930 . S
C702 C700 1.419 . S
C702 C703 1.362 . S
C703 H693 0.930 . S
C703 C696 1.409 . S
C703 C702 1.362 . S
H704 C710 0.930 . S
H705 C713 0.930 . S
H706 C714 0.930 . S
H707 C715 0.930 . S
H708 C718 0.930 . S
H709 C719 0.930 . S
C710 H704 0.930 . S
C710 C711 1.355 . S
C710 C712 1.415 1_556 S
C711 C710 1.355 . S
C711 C713 1.419 . S
C712 C710 1.415 1_554 S
C712 C717 1.425 1_654 S
C712 C719 1.409 . S
C713 H705 0.930 . S
C713 C711 1.419 . S
C713 C714 1.362 1_655 S
C714 H706 0.930 . S
C714 C713 1.362 1_455 S
C714 C717 1.409 . S
C715 H707 0.930 . S
C715 C716 1.355 . S
C715 C717 1.415 1_554 S
C716 C715 1.355 . S
C716 C718 1.419 . S
C717 C712 1.425 1_456 S
C717 C714 1.409 . S
C717 C715 1.415 1_556 S
C718 H708 0.930 . S
C718 C716 1.419 . S
C718 C719 1.362 1_455 S
C719 H709 0.930 . S
C719 C712 1.409 . S
C719 C718 1.362 1_655 S
H720 C726 0.930 . S
H721 C729 0.930 . S
H722 C730 0.930 . S
H723 C731 0.930 . S
H724 C734 0.930 . S
H725 C735 0.930 . S
C726 H720 0.930 . S
C726 C727 1.355 . S
C726 C728 1.415 1_556 S
C727 C726 1.355 . S
C727 C729 1.419 . S
C728 C726 1.415 1_554 S
C728 C733 1.425 1_554 S
C728 C735 1.409 . S
C729 H721 0.930 . S
C729 C727 1.419 . S
C729 C730 1.362 . S
C730 H722 0.930 . S
C730 C729 1.362 . S
C730 C733 1.409 . S
C731 H723 0.930 . S
C731 C732 1.355 . S
C731 C733 1.415 1_554 S
C732 C731 1.355 . S
C732 C734 1.419 . S
C733 C728 1.425 1_556 S
C733 C730 1.409 . S
C733 C731 1.415 1_556 S
C734 H724 0.930 . S
C734 C732 1.419 . S
C734 C735 1.362 . S
C735 H725 0.930 . S
C735 C728 1.409 . S
C735 C734 1.362 . S
H736 C742 0.930 . S
H737 C745 0.930 . S
H738 C746 0.930 . S
H739 C747 0.930 . S
H740 C750 0.930 . S
H741 C751 0.930 . S
C742 H736 0.930 . S
C742 C743 1.355 . S
C742 C744 1.415 1_455 S
C743 C742 1.355 . S
C743 C745 1.419 . S
C744 C742 1.415 1_655 S
C744 C749 1.425 1_655 S
C744 C751 1.409 . S
C745 H737 0.930 . S
C745 C743 1.419 . S
C745 C746 1.362 . S
C746 H738 0.930 . S
C746 C745 1.362 . S
C746 C749 1.409 . S
C747 H739 0.930 . S
C747 C748 1.355 . S
C747 C749 1.415 1_655 S
C748 C747 1.355 . S
C748 C750 1.419 . S
C749 C744 1.425 1_455 S
C749 C746 1.409 . S
C749 C747 1.415 1_455 S
C750 H740 0.930 . S
C750 C748 1.419 . S
C750 C751 1.362 . S
C751 H741 0.930 . S
C751 C744 1.409 . S
C751 C750 1.362 . S
H752 C758 0.930 . S
H753 C761 0.930 . S
H754 C762 0.930 . S
H755 C763 0.930 . S
H756 C766 0.930 . S
H757 C767 0.930 . S
C758 H752 0.930 . S
C758 C759 1.355 . S
C758 C760 1.415 . S
C759 C758 1.355 . S
C759 C761 1.419 . S
C760 C758 1.415 . S
C760 C765 1.425 . S
C760 C767 1.409 . S
C761 H753 0.930 . S
C761 C759 1.419 . S
C761 C762 1.362 . S
C762 H754 0.930 . S
C762 C761 1.362 . S
C762 C765 1.409 . S
C763 H755 0.930 . S
C763 C764 1.355 . S
C763 C765 1.415 . S
C764 C763 1.355 . S
C764 C766 1.419 . S
C765 C760 1.425 . S
C765 C762 1.409 . S
C765 C763 1.415 . S
C766 H756 0.930 . S
C766 C764 1.419 . S
C766 C767 1.362 . S
C767 H757 0.930 . S
C767 C760 1.409 . S
C767 C766 1.362 . S
H768 C774 0.930 . S
H769 C777 0.930 . S
H770 C778 0.930 . S
H771 C779 0.930 . S
H772 C782 0.930 . S
H773 C783 0.930 . S
C774 H768 0.930 . S
C774 C775 1.355 . S
C774 C776 1.415 . S
C775 C774 1.355 . S
C775 C777 1.419 . S
C776 C774 1.415 . S
C776 C781 1.425 1_556 S
C776 C783 1.409 1_556 S
C777 H769 0.930 . S
C777 C775 1.419 . S
C777 C778 1.362 . S
C778 H770 0.930 . S
C778 C777 1.362 . S
C778 C781 1.409 1_556 S
C779 H771 0.930 . S
C779 C780 1.355 . S
C779 C781 1.415 . S
C780 C779 1.355 . S
C780 C782 1.419 . S
C781 C776 1.425 1_554 S
C781 C778 1.409 1_554 S
C781 C779 1.415 . S
C782 H772 0.930 . S
C782 C780 1.419 . S
C782 C783 1.362 . S
C783 H773 0.930 . S
C783 C776 1.409 1_554 S
C783 C782 1.362 . S
H784 C790 0.930 . S
H785 C793 0.930 . S
H786 C794 0.930 . S
H787 C795 0.930 . S
H788 C798 0.930 . S
H789 C799 0.930 . S
C790 H784 0.930 . S
C790 C791 1.355 . S
C790 C792 1.415 1_655 S
C791 C790 1.355 . S
C791 C793 1.419 . S
C792 C790 1.415 1_455 S
C792 C797 1.425 1_455 S
C792 C799 1.409 . S
C793 H785 0.930 . S
C793 C791 1.419 . S
C793 C794 1.362 . S
C794 H786 0.930 . S
C794 C793 1.362 . S
C794 C797 1.409 . S
C795 H787 0.930 . S
C795 C796 1.355 . S
C795 C797 1.415 1_455 S
C796 C795 1.355 . S
C796 C798 1.419 . S
C797 C792 1.425 1_655 S
C797 C794 1.409 . S
C797 C795 1.415 1_655 S
C798 H788 0.930 . S
C798 C796 1.419 . S
C798 C799 1.362 . S
C799 H789 0.930 . S
C799 C792 1.409 . S
C799 C798 1.362 . S
H800 C806 0.930 . S
H801 C809 0.930 . S
H802 C810 0.930 . S
H803 C811 0.930 . S
H804 C814 0.930 . S
H805 C815 0.930 . S
C806 H800 0.930 . S
C806 C807 1.355 . S
C806 C808 1.415 . S
C807 C806 1.355 . S
C807 C809 1.419 . S
C808 C806 1.415 . S
C808 C813 1.425 . S
C808 C815 1.409 . S
C809 H801 0.930 . S
C809 C807 1.419 . S
C809 C810 1.362 . S
C810 H802 0.930 . S
C810 C809 1.362 . S
C810 C813 1.409 . S
C811 H803 0.930 . S
C811 C812 1.355 . S
C811 C813 1.415 . S
C812 C811 1.355 . S
C812 C814 1.419 . S
C813 C808 1.425 . S
C813 C810 1.409 . S
C813 C811 1.415 . S
C814 H804 0.930 . S
C814 C812 1.419 . S
C814 C815 1.362 . S
C815 H805 0.930 . S
C815 C808 1.409 . S
C815 C814 1.362 . S
H816 C822 0.930 . S
H817 C825 0.930 . S
H818 C826 0.930 . S
H819 C827 0.930 . S
H820 C830 0.930 . S
H821 C831 0.930 . S
C822 H816 0.930 . S
C822 C823 1.355 . S
C822 C824 1.415 1_545 S
C823 C822 1.355 . S
C823 C825 1.419 1_655 S
C824 C822 1.415 1_565 S
C824 C829 1.425 1_665 S
C824 C831 1.409 . S
C825 H817 0.930 . S
C825 C823 1.419 1_455 S
C825 C826 1.362 . S
C826 H818 0.930 . S
C826 C825 1.362 . S
C826 C829 1.409 . S
C827 H819 0.930 . S
C827 C828 1.355 . S
C827 C829 1.415 1_565 S
C828 C827 1.355 . S
C828 C830 1.419 1_455 S
C829 C824 1.425 1_445 S
C829 C826 1.409 . S
C829 C827 1.415 1_545 S
C830 H820 0.930 . S
C830 C828 1.419 1_655 S
C830 C831 1.362 . S
C831 H821 0.930 . S
C831 C824 1.409 . S
C831 C830 1.362 . S
H832 C838 0.930 . S
H833 C841 0.930 . S
H834 C842 0.930 . S
H835 C843 0.930 . S
H836 C846 0.930 . S
H837 C847 0.930 . S
C838 H832 0.930 . S
C838 C839 1.355 . S
C838 C840 1.415 . S
C839 C838 1.355 . S
C839 C841 1.419 . S
C840 C838 1.415 . S
C840 C845 1.425 . S
C840 C847 1.409 . S
C841 H833 0.930 . S
C841 C839 1.419 . S
C841 C842 1.362 . S
C842 H834 0.930 . S
C842 C841 1.362 . S
C842 C845 1.409 . S
C843 H835 0.930 . S
C843 C844 1.355 . S
C843 C845 1.415 . S
C844 C843 1.355 . S
C844 C846 1.419 . S
C845 C840 1.425 . S
C845 C842 1.409 . S
C845 C843 1.415 . S
C846 H836 0.930 . S
C846 C844 1.419 . S
C846 C847 1.362 . S
C847 H837 0.930 . S
C847 C840 1.409 . S
C847 C846 1.362 . S
H848 C854 0.930 . S
H849 C857 0.930 . S
H850 C858 0.930 . S
H851 C859 0.930 . S
H852 C862 0.930 . S
H853 C863 0.930 . S
C854 H848 0.930 . S
C854 C855 1.355 . S
C854 C856 1.415 . S
C855 C854 1.355 . S
C855 C857 1.419 1_565 S
C856 C854 1.415 . S
C856 C861 1.425 1_565 S
C856 C863 1.409 . S
C857 H849 0.930 . S
C857 C855 1.419 1_545 S
C857 C858 1.362 . S
C858 H850 0.930 . S
C858 C857 1.362 . S
C858 C861 1.409 . S
C859 H851 0.930 . S
C859 C860 1.355 . S
C859 C861 1.415 . S
C860 C859 1.355 . S
C860 C862 1.419 1_545 S
C861 C856 1.425 1_545 S
C861 C858 1.409 . S
C861 C859 1.415 . S
C862 H852 0.930 . S
C862 C860 1.419 1_565 S
C862 C863 1.362 . S
C863 H853 0.930 . S
C863 C856 1.409 . S
C863 C862 1.362 . S
H864 C870 0.930 . S
H865 C873 0.930 . S
H866 C874 0.930 . S
H867 C875 0.930 . S
H868 C878 0.930 . S
H869 C879 0.930 . S
C870 H864 0.930 . S
C870 C871 1.355 . S
C870 C872 1.415 . S
C871 C870 1.355 . S
C871 C873 1.419 . S
C872 C870 1.415 . S
C872 C877 1.425 . S
C872 C879 1.409 . S
C873 H865 0.930 . S
C873 C871 1.419 . S
C873 C874 1.362 . S
C874 H866 0.930 . S
C874 C873 1.362 . S
C874 C877 1.409 . S
C875 H867 0.930 . S
C875 C876 1.355 . S
C875 C877 1.415 . S
C876 C875 1.355 . S
C876 C878 1.419 . S
C877 C872 1.425 . S
C877 C874 1.409 . S
C877 C875 1.415 . S
C878 H868 0.930 . S
C878 C876 1.419 . S
C878 C879 1.362 . S
C879 H869 0.930 . S
C879 C872 1.409 . S
C879 C878 1.362 . S
H880 C886 0.930 1_545 S
H881 C889 0.930 . S
H882 C890 0.930 . S
H883 C891 0.930 1_565 S
H884 C894 0.930 . S
H885 C895 0.930 . S
C886 H880 0.930 1_565 S
C886 C887 1.355 . S
C886 C888 1.415 1_565 S
C887 C886 1.355 . S
C887 C889 1.419 . S
C888 C886 1.415 1_545 S
C888 C893 1.425 1_545 S
C888 C895 1.409 . S
C889 H881 0.930 . S
C889 C887 1.419 . S
C889 C890 1.362 . S
C890 H882 0.930 . S
C890 C889 1.362 . S
C890 C893 1.409 . S
C891 H883 0.930 1_545 S
C891 C892 1.355 . S
C891 C893 1.415 1_545 S
C892 C891 1.355 . S
C892 C894 1.419 . S
C893 C888 1.425 1_565 S
C893 C890 1.409 . S
C893 C891 1.415 1_565 S
C894 H884 0.930 . S
C894 C892 1.419 . S
C894 C895 1.362 . S
C895 H885 0.930 . S
C895 C888 1.409 . S
C895 C894 1.362 . S
H896 C902 0.930 . S
H897 C905 0.930 . S
H898 C906 0.930 . S
H899 C907 0.930 . S
H900 C910 0.930 . S
H901 C911 0.930 . S
C902 H896 0.930 . S
C902 C903 1.355 . S
C902 C904 1.415 . S
C903 C902 1.355 . S
C903 C905 1.419 . S
C904 C902 1.415 . S
C904 C909 1.425 . S
C904 C911 1.409 . S
C905 H897 0.930 . S
C905 C903 1.419 . S
C905 C906 1.362 . S
C906 H898 0.930 . S
C906 C905 1.362 . S
C906 C909 1.409 . S
C907 H899 0.930 . S
C907 C908 1.355 . S
C907 C909 1.415 . S
C908 C907 1.355 . S
C908 C910 1.419 . S
C909 C904 1.425 . S
C909 C906 1.409 . S
C909 C907 1.415 . S
C910 H900 0.930 . S
C910 C908 1.419 . S
C910 C911 1.362 . S
C911 H901 0.930 . S
C911 C904 1.409 . S
C911 C910 1.362 . S
H912 C918 0.930 . S
H913 C921 0.930 . S
H914 C922 0.930 . S
H915 C923 0.930 . S
H916 C926 0.930 . S
H917 C927 0.930 . S
C918 H912 0.930 . S
C918 C919 1.355 . S
C918 C920 1.415 . S
C919 C918 1.355 . S
C919 C921 1.419 . S
C920 C918 1.415 . S
C920 C925 1.425 . S
C920 C927 1.409 . S
C921 H913 0.930 . S
C921 C919 1.419 . S
C921 C922 1.362 . S
C922 H914 0.930 . S
C922 C921 1.362 . S
C922 C925 1.409 . S
C923 H915 0.930 . S
C923 C924 1.355 . S
C923 C925 1.415 . S
C924 C923 1.355 . S
C924 C926 1.419 . S
C925 C920 1.425 . S
C925 C922 1.409 . S
C925 C923 1.415 . S
C926 H916 0.930 . S
C926 C924 1.419 . S
C926 C927 1.362 . S
C927 H917 0.930 . S
C927 C920 1.409 . S
C927 C926 1.362 . S
H928 C934 0.930 . S
H929 C937 0.930 . S
H930 C938 0.930 . S
H931 C939 0.930 . S
H932 C942 0.930 . S
H933 C943 0.930 . S
C934 H928 0.930 . S
C934 C935 1.355 . S
C934 C936 1.415 . S
C935 C934 1.355 . S
C935 C937 1.419 . S
C936 C934 1.415 . S
C936 C941 1.425 . S
C936 C943 1.409 . S
C937 H929 0.930 . S
C937 C935 1.419 . S
C937 C938 1.362 . S
C938 H930 0.930 . S
C938 C937 1.362 . S
C938 C941 1.409 . S
C939 H931 0.930 . S
C939 C940 1.355 . S
C939 C941 1.415 . S
C940 C939 1.355 . S
C940 C942 1.419 . S
C941 C936 1.425 . S
C941 C938 1.409 . S
C941 C939 1.415 . S
C942 H932 0.930 . S
C942 C940 1.419 . S
C942 C943 1.362 . S
C943 H933 0.930 . S
C943 C936 1.409 . S
C943 C942 1.362 . S
H944 C950 0.930 . S
H945 C953 0.930 . S
H946 C954 0.930 . S
H947 C955 0.930 . S
H948 C958 0.930 . S
H949 C959 0.930 . S
C950 H944 0.930 . S
C950 C951 1.355 . S
C950 C952 1.415 1_556 S
C951 C950 1.355 . S
C951 C953 1.419 . S
C952 C950 1.415 1_554 S
C952 C957 1.425 1_544 S
C952 C959 1.409 . S
C953 H945 0.930 . S
C953 C951 1.419 . S
C953 C954 1.362 1_545 S
C954 H946 0.930 . S
C954 C953 1.362 1_565 S
C954 C957 1.409 . S
C955 H947 0.930 . S
C955 C956 1.355 . S
C955 C957 1.415 1_554 S
C956 C955 1.355 . S
C956 C958 1.419 . S
C957 C952 1.425 1_566 S
C957 C954 1.409 . S
C957 C955 1.415 1_556 S
C958 H948 0.930 . S
C958 C956 1.419 . S
C958 C959 1.362 1_565 S
C959 H949 0.930 . S
C959 C952 1.409 . S
C959 C958 1.362 1_545 S
H960 C966 0.930 . S
H961 C969 0.930 . S
H962 C970 0.930 . S
H963 C971 0.930 . S
H964 C974 0.930 . S
H965 C975 0.930 . S
C966 H960 0.930 . S
C966 C967 1.355 . S
C966 C968 1.415 . S
C967 C966 1.355 . S
C967 C969 1.419 . S
C968 C966 1.415 . S
C968 C973 1.425 . S
C968 C975 1.409 . S
C969 H961 0.930 . S
C969 C967 1.419 . S
C969 C970 1.362 . S
C970 H962 0.930 . S
C970 C969 1.362 . S
C970 C973 1.409 . S
C971 H963 0.930 . S
C971 C972 1.355 . S
C971 C973 1.415 . S
C972 C971 1.355 . S
C972 C974 1.419 . S
C973 C968 1.425 . S
C973 C970 1.409 . S
C973 C971 1.415 . S
C974 H964 0.930 . S
C974 C972 1.419 . S
C974 C975 1.362 . S
C975 H965 0.930 . S
C975 C968 1.409 . S
C975 C974 1.362 . S
H976 C982 0.930 . S
H977 C985 0.930 . S
H978 C986 0.930 . S
H979 C987 0.930 . S
H980 C990 0.930 . S
H981 C991 0.930 . S
C982 H976 0.930 . S
C982 C983 1.355 . S
C982 C984 1.415 . S
C983 C982 1.355 . S
C983 C985 1.419 . S
C984 C982 1.415 . S
C984 C989 1.425 . S
C984 C991 1.409 . S
C985 H977 0.930 . S
C985 C983 1.419 . S
C985 C986 1.362 . S
C986 H978 0.930 . S
C986 C985 1.362 . S
C986 C989 1.409 . S
C987 H979 0.930 . S
C987 C988 1.355 . S
C987 C989 1.415 . S
C988 C987 1.355 . S
C988 C990 1.419 . S
C989 C984 1.425 . S
C989 C986 1.409 . S
C989 C987 1.415 . S
C990 H980 0.930 . S
C990 C988 1.419 . S
C990 C991 1.362 . S
C991 H981 0.930 . S
C991 C984 1.409 . S
C991 C990 1.362 . S
H992 C998 0.930 . S
H993 C1001 0.930 . S
H994 C1002 0.930 . S
H995 C1003 0.930 . S
H996 C1006 0.930 . S
H997 C1007 0.930 . S
C998 H992 0.930 . S
C998 C999 1.355 . S
C998 C1000 1.415 . S
C999 C998 1.355 . S
C999 C1001 1.419 . S
C1000 C998 1.415 . S
C1000 C1005 1.425 . S
C1000 C1007 1.409 . S
C1001 H993 0.930 . S
C1001 C999 1.419 . S
C1001 C1002 1.362 . S
C1002 H994 0.930 . S
C1002 C1001 1.362 . S
C1002 C1005 1.409 . S
C1003 H995 0.930 . S
C1003 C1004 1.355 . S
C1003 C1005 1.415 . S
C1004 C1003 1.355 . S
C1004 C1006 1.419 . S
C1005 C1000 1.425 . S
C1005 C1002 1.409 . S
C1005 C1003 1.415 . S
C1006 H996 0.930 . S
C1006 C1004 1.419 . S
C1006 C1007 1.362 . S
C1007 H997 0.930 . S
C1007 C1000 1.409 . S
C1007 C1006 1.362 . S
H1008 C1014 0.930 . S
H1009 C1017 0.930 . S
H1010 C1018 0.930 . S
H1011 C1019 0.930 . S
H1012 C1022 0.930 . S
H1013 C1023 0.930 . S
C1014 H1008 0.930 . S
C1014 C1015 1.355 . S
C1014 C1016 1.415 . S
C1015 C1014 1.355 . S
C1015 C1017 1.419 . S
C1016 C1014 1.415 . S
C1016 C1021 1.425 . S
C1016 C1023 1.409 . S
C1017 H1009 0.930 . S
C1017 C1015 1.419 . S
C1017 C1018 1.362 . S
C1018 H1010 0.930 . S
C1018 C1017 1.362 . S
C1018 C1021 1.409 . S
C1019 H1011 0.930 . S
C1019 C1020 1.355 . S
C1019 C1021 1.415 . S
C1020 C1019 1.355 . S
C1020 C1022 1.419 . S
C1021 C1016 1.425 . S
C1021 C1018 1.409 . S
C1021 C1019 1.415 . S
C1022 H1012 0.930 . S
C1022 C1020 1.419 . S
C1022 C1023 1.362 . S
C1023 H1013 0.930 . S
C1023 C1016 1.409 . S
C1023 C1022 1.362 . S
H1024 C1030 0.930 . S
H1025 C1033 0.930 . S
H1026 C1034 0.930 1_545 S
H1027 C1035 0.930 . S
H1028 C1038 0.930 . S
H1029 C1039 0.930 . S
C1030 H1024 0.930 . S
C1030 C1031 1.355 . S
C1030 C1032 1.415 . S
C1031 C1030 1.355 . S
C1031 C1033 1.419 . S
C1032 C1030 1.415 . S
C1032 C1037 1.425 . S
C1032 C1039 1.409 . S
C1033 H1025 0.930 . S
C1033 C1031 1.419 . S
C1033 C1034 1.362 . S
C1034 H1026 0.930 1_565 S
C1034 C1033 1.362 . S
C1034 C1037 1.409 . S
C1035 H1027 0.930 . S
C1035 C1036 1.355 . S
C1035 C1037 1.415 . S
C1036 C1035 1.355 . S
C1036 C1038 1.419 . S
C1037 C1032 1.425 . S
C1037 C1034 1.409 . S
C1037 C1035 1.415 . S
C1038 H1028 0.930 . S
C1038 C1036 1.419 . S
C1038 C1039 1.362 . S
C1039 H1029 0.930 . S
C1039 C1032 1.409 . S
C1039 C1038 1.362 . S
H1040 C1046 0.930 . S
H1041 C1049 0.930 . S
H1042 C1050 0.930 . S
H1043 C1051 0.930 . S
H1044 C1054 0.930 . S
H1045 C1055 0.930 . S
C1046 H1040 0.930 . S
C1046 C1047 1.355 . S
C1046 C1048 1.415 . S
C1047 C1046 1.355 . S
C1047 C1049 1.419 . S
C1048 C1046 1.415 . S
C1048 C1053 1.425 . S
C1048 C1055 1.409 . S
C1049 H1041 0.930 . S
C1049 C1047 1.419 . S
C1049 C1050 1.362 . S
C1050 H1042 0.930 . S
C1050 C1049 1.362 . S
C1050 C1053 1.409 . S
C1051 H1043 0.930 . S
C1051 C1052 1.355 . S
C1051 C1053 1.415 . S
C1052 C1051 1.355 . S
C1052 C1054 1.419 . S
C1053 C1048 1.425 . S
C1053 C1050 1.409 . S
C1053 C1051 1.415 . S
C1054 H1044 0.930 . S
C1054 C1052 1.419 . S
C1054 C1055 1.362 . S
C1055 H1045 0.930 . S
C1055 C1048 1.409 . S
C1055 C1054 1.362 . S
H1056 C1062 0.930 . S
H1057 C1065 0.930 . S
H1058 C1066 0.930 . S
H1059 C1067 0.930 . S
H1060 C1070 0.930 . S
H1061 C1071 0.930 . S
C1062 H1056 0.930 . S
C1062 C1063 1.355 . S
C1062 C1064 1.415 . S
C1063 C1062 1.355 . S
C1063 C1065 1.419 . S
C1064 C1062 1.415 . S
C1064 C1069 1.425 . S
C1064 C1071 1.409 . S
C1065 H1057 0.930 . S
C1065 C1063 1.419 . S
C1065 C1066 1.362 . S
C1066 H1058 0.930 . S
C1066 C1065 1.362 . S
C1066 C1069 1.409 . S
C1067 H1059 0.930 . S
C1067 C1068 1.355 . S
C1067 C1069 1.415 . S
C1068 C1067 1.355 . S
C1068 C1070 1.419 . S
C1069 C1064 1.425 . S
C1069 C1066 1.409 . S
C1069 C1067 1.415 . S
C1070 H1060 0.930 . S
C1070 C1068 1.419 . S
C1070 C1071 1.362 . S
C1071 H1061 0.930 . S
C1071 C1064 1.409 . S
C1071 C1070 1.362 . S
H1072 C1078 0.930 . S
H1073 C1081 0.930 . S
H1074 C1082 0.930 . S
H1075 C1083 0.930 . S
H1076 C1086 0.930 . S
H1077 C1087 0.930 . S
C1078 H1072 0.930 . S
C1078 C1079 1.355 . S
C1078 C1080 1.415 . S
C1079 C1078 1.355 . S
C1079 C1081 1.419 . S
C1080 C1078 1.415 . S
C1080 C1085 1.425 . S
C1080 C1087 1.409 . S
C1081 H1073 0.930 . S
C1081 C1079 1.419 . S
C1081 C1082 1.362 . S
C1082 H1074 0.930 . S
C1082 C1081 1.362 . S
C1082 C1085 1.409 . S
C1083 H1075 0.930 . S
C1083 C1084 1.355 . S
C1083 C1085 1.415 . S
C1084 C1083 1.355 . S
C1084 C1086 1.419 . S
C1085 C1080 1.425 . S
C1085 C1082 1.409 . S
C1085 C1083 1.415 . S
C1086 H1076 0.930 . S
C1086 C1084 1.419 . S
C1086 C1087 1.362 . S
C1087 H1077 0.930 . S
C1087 C1080 1.409 . S
C1087 C1086 1.362 . S
H1088 C1094 0.930 . S
H1089 C1097 0.930 . S
H1090 C1098 0.930 . S
H1091 C1099 0.930 . S
H1092 C1102 0.930 . S
H1093 C1103 0.930 . S
C1094 H1088 0.930 . S
C1094 C1095 1.355 . S
C1094 C1096 1.415 . S
C1095 C1094 1.355 . S
C1095 C1097 1.419 . S
C1096 C1094 1.415 . S
C1096 C1101 1.425 . S
C1096 C1103 1.409 . S
C1097 H1089 0.930 . S
C1097 C1095 1.419 . S
C1097 C1098 1.362 . S
C1098 H1090 0.930 . S
C1098 C1097 1.362 . S
C1098 C1101 1.409 . S
C1099 H1091 0.930 . S
C1099 C1100 1.355 . S
C1099 C1101 1.415 . S
C1100 C1099 1.355 . S
C1100 C1102 1.419 . S
C1101 C1096 1.425 . S
C1101 C1098 1.409 . S
C1101 C1099 1.415 . S
C1102 H1092 0.930 . S
C1102 C1100 1.419 . S
C1102 C1103 1.362 . S
C1103 H1093 0.930 . S
C1103 C1096 1.409 . S
C1103 C1102 1.362 . S
H1104 C1110 0.930 . S
H1105 C1113 0.930 . S
H1106 C1114 0.930 . S
H1107 C1115 0.930 . S
H1108 C1118 0.930 . S
H1109 C1119 0.930 . S
C1110 H1104 0.930 . S
C1110 C1111 1.355 . S
C1110 C1112 1.415 . S
C1111 C1110 1.355 . S
C1111 C1113 1.419 . S
C1112 C1110 1.415 . S
C1112 C1117 1.425 . S
C1112 C1119 1.409 . S
C1113 H1105 0.930 . S
C1113 C1111 1.419 . S
C1113 C1114 1.362 . S
C1114 H1106 0.930 . S
C1114 C1113 1.362 . S
C1114 C1117 1.409 . S
C1115 H1107 0.930 . S
C1115 C1116 1.355 . S
C1115 C1117 1.415 . S
C1116 C1115 1.355 . S
C1116 C1118 1.419 . S
C1117 C1112 1.425 . S
C1117 C1114 1.409 . S
C1117 C1115 1.415 . S
C1118 H1108 0.930 . S
C1118 C1116 1.419 . S
C1118 C1119 1.362 . S
C1119 H1109 0.930 . S
C1119 C1112 1.409 . S
C1119 C1118 1.362 . S
H1120 C1126 0.930 . S
H1121 C1129 0.930 . S
H1122 C1130 0.930 . S
H1123 C1131 0.930 . S
H1124 C1134 0.930 . S
H1125 C1135 0.930 . S
C1126 H1120 0.930 . S
C1126 C1127 1.355 . S
C1126 C1128 1.415 . S
C1127 C1126 1.355 . S
C1127 C1129 1.419 . S
C1128 C1126 1.415 . S
C1128 C1133 1.425 . S
C1128 C1135 1.409 . S
C1129 H1121 0.930 . S
C1129 C1127 1.419 . S
C1129 C1130 1.362 . S
C1130 H1122 0.930 . S
C1130 C1129 1.362 . S
C1130 C1133 1.409 . S
C1131 H1123 0.930 . S
C1131 C1132 1.355 . S
C1131 C1133 1.415 . S
C1132 C1131 1.355 . S
C1132 C1134 1.419 . S
C1133 C1128 1.425 . S
C1133 C1130 1.409 . S
C1133 C1131 1.415 . S
C1134 H1124 0.930 . S
C1134 C1132 1.419 . S
C1134 C1135 1.362 . S
C1135 H1125 0.930 . S
C1135 C1128 1.409 . S
C1135 C1134 1.362 . S
H1136 C1142 0.930 . S
H1137 C1145 0.930 . S
H1138 C1146 0.930 . S
H1139 C1147 0.930 . S
H1140 C1150 0.930 . S
H1141 C1151 0.930 . S
C1142 H1136 0.930 . S
C1142 C1143 1.355 . S
C1142 C1144 1.415 . S
C1143 C1142 1.355 . S
C1143 C1145 1.419 . S
C1144 C1142 1.415 . S
C1144 C1149 1.425 . S
C1144 C1151 1.409 . S
C1145 H1137 0.930 . S
C1145 C1143 1.419 . S
C1145 C1146 1.362 . S
C1146 H1138 0.930 . S
C1146 C1145 1.362 . S
C1146 C1149 1.409 . S
C1147 H1139 0.930 . S
C1147 C1148 1.355 . S
C1147 C1149 1.415 . S
C1148 C1147 1.355 . S
C1148 C1150 1.419 . S
C1149 C1144 1.425 . S
C1149 C1146 1.409 . S
C1149 C1147 1.415 . S
C1150 H1140 0.930 . S
C1150 C1148 1.419 . S
C1150 C1151 1.362 . S
C1151 H1141 0.930 . S
C1151 C1144 1.409 . S
C1151 C1150 1.362 . S
H1152 C1158 0.930 . S
H1153 C1161 0.930 . S
H1154 C1162 0.930 . S
H1155 C1163 0.930 . S
H1156 C1166 0.930 . S
H1157 C1167 0.930 . S
C1158 H1152 0.930 . S
C1158 C1159 1.355 . S
C1158 C1160 1.415 . S
C1159 C1158 1.355 . S
C1159 C1161 1.419 . S
C1160 C1158 1.415 . S
C1160 C1165 1.425 . S
C1160 C1167 1.409 . S
C1161 H1153 0.930 . S
C1161 C1159 1.419 . S
C1161 C1162 1.362 . S
C1162 H1154 0.930 . S
C1162 C1161 1.362 . S
C1162 C1165 1.409 . S
C1163 H1155 0.930 . S
C1163 C1164 1.355 . S
C1163 C1165 1.415 . S
C1164 C1163 1.355 . S
C1164 C1166 1.419 . S
C1165 C1160 1.425 . S
C1165 C1162 1.409 . S
C1165 C1163 1.415 . S
C1166 H1156 0.930 . S
C1166 C1164 1.419 . S
C1166 C1167 1.362 . S
C1167 H1157 0.930 . S
C1167 C1160 1.409 . S
C1167 C1166 1.362 . S
H1168 C1174 0.930 . S
H1169 C1177 0.930 . S
H1170 C1178 0.930 . S
H1171 C1179 0.930 . S
H1172 C1182 0.930 . S
H1173 C1183 0.930 . S
C1174 H1168 0.930 . S
C1174 C1175 1.355 . S
C1174 C1176 1.415 . S
C1175 C1174 1.355 . S
C1175 C1177 1.419 . S
C1176 C1174 1.415 . S
C1176 C1181 1.425 . S
C1176 C1183 1.409 . S
C1177 H1169 0.930 . S
C1177 C1175 1.419 . S
C1177 C1178 1.362 . S
C1178 H1170 0.930 . S
C1178 C1177 1.362 . S
C1178 C1181 1.409 . S
C1179 H1171 0.930 . S
C1179 C1180 1.355 . S
C1179 C1181 1.415 . S
C1180 C1179 1.355 . S
C1180 C1182 1.419 . S
C1181 C1176 1.425 . S
C1181 C1178 1.409 . S
C1181 C1179 1.415 . S
C1182 H1172 0.930 . S
C1182 C1180 1.419 . S
C1182 C1183 1.362 . S
C1183 H1173 0.930 . S
C1183 C1176 1.409 . S
C1183 C1182 1.362 . S
H1184 C1190 0.930 . S
H1185 C1193 0.930 . S
H1186 C1194 0.930 . S
H1187 C1195 0.930 . S
H1188 C1198 0.930 . S
H1189 C1199 0.930 . S
C1190 H1184 0.930 . S
C1190 C1191 1.355 . S
C1190 C1192 1.415 . S
C1191 C1190 1.355 . S
C1191 C1193 1.419 . S
C1192 C1190 1.415 . S
C1192 C1197 1.425 . S
C1192 C1199 1.409 . S
C1193 H1185 0.930 . S
C1193 C1191 1.419 . S
C1193 C1194 1.362 . S
C1194 H1186 0.930 . S
C1194 C1193 1.362 . S
C1194 C1197 1.409 . S
C1195 H1187 0.930 . S
C1195 C1196 1.355 . S
C1195 C1197 1.415 . S
C1196 C1195 1.355 . S
C1196 C1198 1.419 . S
C1197 C1192 1.425 . S
C1197 C1194 1.409 . S
C1197 C1195 1.415 . S
C1198 H1188 0.930 . S
C1198 C1196 1.419 . S
C1198 C1199 1.362 . S
C1199 H1189 0.930 . S
C1199 C1192 1.409 . S
C1199 C1198 1.362 . S
H1200 C1206 0.930 . S
H1201 C1209 0.930 . S
H1202 C1210 0.930 . S
H1203 C1211 0.930 . S
H1204 C1214 0.930 . S
H1205 C1215 0.930 . S
C1206 H1200 0.930 . S
C1206 C1207 1.355 . S
C1206 C1208 1.415 . S
C1207 C1206 1.355 . S
C1207 C1209 1.419 . S
C1208 C1206 1.415 . S
C1208 C1213 1.425 . S
C1208 C1215 1.409 . S
C1209 H1201 0.930 . S
C1209 C1207 1.419 . S
C1209 C1210 1.362 . S
C1210 H1202 0.930 . S
C1210 C1209 1.362 . S
C1210 C1213 1.409 . S
C1211 H1203 0.930 . S
C1211 C1212 1.355 . S
C1211 C1213 1.415 . S
C1212 C1211 1.355 . S
C1212 C1214 1.419 . S
C1213 C1208 1.425 . S
C1213 C1210 1.409 . S
C1213 C1211 1.415 . S
C1214 H1204 0.930 . S
C1214 C1212 1.419 . S
C1214 C1215 1.362 . S
C1215 H1205 0.930 . S
C1215 C1208 1.409 . S
C1215 C1214 1.362 . S
H1216 C1222 0.930 . S
H1217 C1225 0.930 . S
H1218 C1226 0.930 . S
H1219 C1227 0.930 . S
H1220 C1230 0.930 . S
H1221 C1231 0.930 . S
C1222 H1216 0.930 . S
C1222 C1223 1.355 . S
C1222 C1224 1.415 . S
C1223 C1222 1.355 . S
C1223 C1225 1.419 . S
C1224 C1222 1.415 . S
C1224 C1229 1.425 . S
C1224 C1231 1.409 . S
C1225 H1217 0.930 . S
C1225 C1223 1.419 . S
C1225 C1226 1.362 . S
C1226 H1218 0.930 . S
C1226 C1225 1.362 . S
C1226 C1229 1.409 . S
C1227 H1219 0.930 . S
C1227 C1228 1.355 . S
C1227 C1229 1.415 . S
C1228 C1227 1.355 . S
C1228 C1230 1.419 . S
C1229 C1224 1.425 . S
C1229 C1226 1.409 . S
C1229 C1227 1.415 . S
C1230 H1220 0.930 . S
C1230 C1228 1.419 . S
C1230 C1231 1.362 . S
C1231 H1221 0.930 . S
C1231 C1224 1.409 . S
C1231 C1230 1.362 . S
H1232 C1238 0.930 . S
H1233 C1241 0.930 . S
H1234 C1242 0.930 . S
H1235 C1243 0.930 . S
H1236 C1246 0.930 . S
H1237 C1247 0.930 . S
C1238 H1232 0.930 . S
C1238 C1239 1.355 . S
C1238 C1240 1.415 . S
C1239 C1238 1.355 . S
C1239 C1241 1.419 . S
C1240 C1238 1.415 . S
C1240 C1245 1.425 . S
C1240 C1247 1.409 . S
C1241 H1233 0.930 . S
C1241 C1239 1.419 . S
C1241 C1242 1.362 . S
C1242 H1234 0.930 . S
C1242 C1241 1.362 . S
C1242 C1245 1.409 . S
C1243 H1235 0.930 . S
C1243 C1244 1.355 . S
C1243 C1245 1.415 . S
C1244 C1243 1.355 . S
C1244 C1246 1.419 . S
C1245 C1240 1.425 . S
C1245 C1242 1.409 . S
C1245 C1243 1.415 . S
C1246 H1236 0.930 . S
C1246 C1244 1.419 . S
C1246 C1247 1.362 . S
C1247 H1237 0.930 . S
C1247 C1240 1.409 . S
C1247 C1246 1.362 . S
H1248 C1254 0.930 . S
H1249 C1257 0.930 . S
H1250 C1258 0.930 . S
H1251 C1259 0.930 . S
H1252 C1262 0.930 1_545 S
H1253 C1263 0.930 . S
C1254 H1248 0.930 . S
C1254 C1255 1.355 . S
C1254 C1256 1.415 . S
C1255 C1254 1.355 . S
C1255 C1257 1.419 . S
C1256 C1254 1.415 . S
C1256 C1261 1.425 . S
C1256 C1263 1.409 . S
C1257 H1249 0.930 . S
C1257 C1255 1.419 . S
C1257 C1258 1.362 . S
C1258 H1250 0.930 . S
C1258 C1257 1.362 . S
C1258 C1261 1.409 . S
C1259 H1251 0.930 . S
C1259 C1260 1.355 . S
C1259 C1261 1.415 . S
C1260 C1259 1.355 . S
C1260 C1262 1.419 . S
C1261 C1256 1.425 . S
C1261 C1258 1.409 . S
C1261 C1259 1.415 . S
C1262 H1252 0.930 1_565 S
C1262 C1260 1.419 . S
C1262 C1263 1.362 . S
C1263 H1253 0.930 . S
C1263 C1256 1.409 . S
C1263 C1262 1.362 . S
H1264 C1270 0.930 . S
H1265 C1273 0.930 . S
H1266 C1274 0.930 . S
H1267 C1275 0.930 . S
H1268 C1278 0.930 . S
H1269 C1279 0.930 . S
C1270 H1264 0.930 . S
C1270 C1271 1.355 . S
C1270 C1272 1.415 . S
C1271 C1270 1.355 . S
C1271 C1273 1.419 . S
C1272 C1270 1.415 . S
C1272 C1277 1.425 . S
C1272 C1279 1.409 . S
C1273 H1265 0.930 . S
C1273 C1271 1.419 . S
C1273 C1274 1.362 . S
C1274 H1266 0.930 . S
C1274 C1273 1.362 . S
C1274 C1277 1.409 . S
C1275 H1267 0.930 . S
C1275 C1276 1.355 . S
C1275 C1277 1.415 . S
C1276 C1275 1.355 . S
C1276 C1278 1.419 . S
C1277 C1272 1.425 . S
C1277 C1274 1.409 . S
C1277 C1275 1.415 . S
C1278 H1268 0.930 . S
C1278 C1276 1.419 . S
C1278 C1279 1.362 . S
C1279 H1269 0.930 . S
C1279 C1272 1.409 . S
C1279 C1278 1.362 . S
H1280 C1286 0.930 . S
H1281 C1289 0.930 . S
H1282 C1290 0.930 . S
H1283 C1291 0.930 . S
H1284 C1294 0.930 . S
H1285 C1295 0.930 . S
C1286 H1280 0.930 . S
C1286 C1287 1.355 . S
C1286 C1288 1.415 . S
C1287 C1286 1.355 . S
C1287 C1289 1.419 . S
C1288 C1286 1.415 . S
C1288 C1293 1.425 . S
C1288 C1295 1.409 . S
C1289 H1281 0.930 . S
C1289 C1287 1.419 . S
C1289 C1290 1.362 . S
C1290 H1282 0.930 . S
C1290 C1289 1.362 . S
C1290 C1293 1.409 . S
C1291 H1283 0.930 . S
C1291 C1292 1.355 . S
C1291 C1293 1.415 . S
C1292 C1291 1.355 . S
C1292 C1294 1.419 . S
C1293 C1288 1.425 . S
C1293 C1290 1.409 . S
C1293 C1291 1.415 . S
C1294 H1284 0.930 . S
C1294 C1292 1.419 . S
C1294 C1295 1.362 . S
C1295 H1285 0.930 . S
C1295 C1288 1.409 . S
C1295 C1294 1.362 . S
H1296 C1302 0.930 . S
H1297 C1305 0.930 . S
H1298 C1306 0.930 . S
H1299 C1307 0.930 . S
H1300 C1310 0.930 . S
H1301 C1311 0.930 . S
C1302 H1296 0.930 . S
C1302 C1303 1.355 . S
C1302 C1304 1.415 . S
C1303 C1302 1.355 . S
C1303 C1305 1.419 . S
C1304 C1302 1.415 . S
C1304 C1309 1.425 . S
C1304 C1311 1.409 . S
C1305 H1297 0.930 . S
C1305 C1303 1.419 . S
C1305 C1306 1.362 . S
C1306 H1298 0.930 . S
C1306 C1305 1.362 . S
C1306 C1309 1.409 . S
C1307 H1299 0.930 . S
C1307 C1308 1.355 . S
C1307 C1309 1.415 . S
C1308 C1307 1.355 . S
C1308 C1310 1.419 . S
C1309 C1304 1.425 . S
C1309 C1306 1.409 . S
C1309 C1307 1.415 . S
C1310 H1300 0.930 . S
C1310 C1308 1.419 . S
C1310 C1311 1.362 . S
C1311 H1301 0.930 . S
C1311 C1304 1.409 . S
C1311 C1310 1.362 . S
H1312 C1318 0.930 . S
H1313 C1321 0.930 . S
H1314 C1322 0.930 . S
H1315 C1323 0.930 . S
H1316 C1326 0.930 . S
H1317 C1327 0.930 . S
C1318 H1312 0.930 . S
C1318 C1319 1.355 . S
C1318 C1320 1.415 . S
C1319 C1318 1.355 . S
C1319 C1321 1.419 . S
C1320 C1318 1.415 . S
C1320 C1325 1.425 . S
C1320 C1327 1.409 . S
C1321 H1313 0.930 . S
C1321 C1319 1.419 . S
C1321 C1322 1.362 . S
C1322 H1314 0.930 . S
C1322 C1321 1.362 . S
C1322 C1325 1.409 . S
C1323 H1315 0.930 . S
C1323 C1324 1.355 . S
C1323 C1325 1.415 . S
C1324 C1323 1.355 . S
C1324 C1326 1.419 . S
C1325 C1320 1.425 . S
C1325 C1322 1.409 . S
C1325 C1323 1.415 . S
C1326 H1316 0.930 . S
C1326 C1324 1.419 . S
C1326 C1327 1.362 . S
C1327 H1317 0.930 . S
C1327 C1320 1.409 . S
C1327 C1326 1.362 . S
H1328 C1334 0.930 . S
H1329 C1337 0.930 . S
H1330 C1338 0.930 . S
H1331 C1339 0.930 . S
H1332 C1342 0.930 . S
H1333 C1343 0.930 . S
C1334 H1328 0.930 . S
C1334 C1335 1.355 . S
C1334 C1336 1.415 . S
C1335 C1334 1.355 . S
C1335 C1337 1.419 . S
C1336 C1334 1.415 . S
C1336 C1341 1.425 . S
C1336 C1343 1.409 . S
C1337 H1329 0.930 . S
C1337 C1335 1.419 . S
C1337 C1338 1.362 . S
C1338 H1330 0.930 . S
C1338 C1337 1.362 . S
C1338 C1341 1.409 . S
C1339 H1331 0.930 . S
C1339 C1340 1.355 . S
C1339 C1341 1.415 . S
C1340 C1339 1.355 . S
C1340 C1342 1.419 . S
C1341 C1336 1.425 . S
C1341 C1338 1.409 . S
C1341 C1339 1.415 . S
C1342 H1332 0.930 . S
C1342 C1340 1.419 . S
C1342 C1343 1.362 . S
C1343 H1333 0.930 . S
C1343 C1336 1.409 . S
C1343 C1342 1.362 . S
H1344 C1350 0.930 . S
H1345 C1353 0.930 1_565 S
H1346 C1354 0.930 . S
H1347 C1355 0.930 . S
H1348 C1358 0.930 . S
H1349 C1359 0.930 . S
C1350 H1344 0.930 . S
C1350 C1351 1.355 . S
C1350 C1352 1.415 . S
C1351 C1350 1.355 . S
C1351 C1353 1.419 . S
C1352 C1350 1.415 . S
C1352 C1357 1.425 . S
C1352 C1359 1.409 . S
C1353 H1345 0.930 1_545 S
C1353 C1351 1.419 . S
C1353 C1354 1.362 . S
C1354 H1346 0.930 . S
C1354 C1353 1.362 . S
C1354 C1357 1.409 . S
C1355 H1347 0.930 . S
C1355 C1356 1.355 . S
C1355 C1357 1.415 . S
C1356 C1355 1.355 . S
C1356 C1358 1.419 . S
C1357 C1352 1.425 . S
C1357 C1354 1.409 . S
C1357 C1355 1.415 . S
C1358 H1348 0.930 . S
C1358 C1356 1.419 . S
C1358 C1359 1.362 . S
C1359 H1349 0.930 . S
C1359 C1352 1.409 . S
C1359 C1358 1.362 . S
H1360 C1366 0.930 . S
H1361 C1369 0.930 . S
H1362 C1370 0.930 . S
H1363 C1371 0.930 . S
H1364 C1374 0.930 . S
H1365 C1375 0.930 . S
C1366 H1360 0.930 . S
C1366 C1367 1.355 . S
C1366 C1368 1.415 . S
C1367 C1366 1.355 . S
C1367 C1369 1.419 . S
C1368 C1366 1.415 . S
C1368 C1373 1.425 . S
C1368 C1375 1.409 . S
C1369 H1361 0.930 . S
C1369 C1367 1.419 . S
C1369 C1370 1.362 . S
C1370 H1362 0.930 . S
C1370 C1369 1.362 . S
C1370 C1373 1.409 . S
C1371 H1363 0.930 . S
C1371 C1372 1.355 . S
C1371 C1373 1.415 . S
C1372 C1371 1.355 . S
C1372 C1374 1.419 . S
C1373 C1368 1.425 . S
C1373 C1370 1.409 . S
C1373 C1371 1.415 . S
C1374 H1364 0.930 . S
C1374 C1372 1.419 . S
C1374 C1375 1.362 . S
C1375 H1365 0.930 . S
C1375 C1368 1.409 . S
C1375 C1374 1.362 . S
H1376 C1382 0.930 . S
H1377 C1385 0.930 . S
H1378 C1386 0.930 . S
H1379 C1387 0.930 . S
H1380 C1390 0.930 . S
H1381 C1391 0.930 . S
C1382 H1376 0.930 . S
C1382 C1383 1.355 . S
C1382 C1384 1.415 . S
C1383 C1382 1.355 . S
C1383 C1385 1.419 . S
C1384 C1382 1.415 . S
C1384 C1389 1.425 . S
C1384 C1391 1.409 . S
C1385 H1377 0.930 . S
C1385 C1383 1.419 . S
C1385 C1386 1.362 . S
C1386 H1378 0.930 . S
C1386 C1385 1.362 . S
C1386 C1389 1.409 . S
C1387 H1379 0.930 . S
C1387 C1388 1.355 . S
C1387 C1389 1.415 . S
C1388 C1387 1.355 . S
C1388 C1390 1.419 . S
C1389 C1384 1.425 . S
C1389 C1386 1.409 . S
C1389 C1387 1.415 . S
C1390 H1380 0.930 . S
C1390 C1388 1.419 . S
C1390 C1391 1.362 . S
C1391 H1381 0.930 . S
C1391 C1384 1.409 . S
C1391 C1390 1.362 . S
H1392 C1398 0.930 . S
H1393 C1401 0.930 . S
H1394 C1402 0.930 . S
H1395 C1403 0.930 . S
H1396 C1406 0.930 . S
H1397 C1407 0.930 . S
C1398 H1392 0.930 . S
C1398 C1399 1.355 . S
C1398 C1400 1.415 . S
C1399 C1398 1.355 . S
C1399 C1401 1.419 . S
C1400 C1398 1.415 . S
C1400 C1405 1.425 . S
C1400 C1407 1.409 . S
C1401 H1393 0.930 . S
C1401 C1399 1.419 . S
C1401 C1402 1.362 . S
C1402 H1394 0.930 . S
C1402 C1401 1.362 . S
C1402 C1405 1.409 . S
C1403 H1395 0.930 . S
C1403 C1404 1.355 . S
C1403 C1405 1.415 . S
C1404 C1403 1.355 . S
C1404 C1406 1.419 . S
C1405 C1400 1.425 . S
C1405 C1402 1.409 . S
C1405 C1403 1.415 . S
C1406 H1396 0.930 . S
C1406 C1404 1.419 . S
C1406 C1407 1.362 . S
C1407 H1397 0.930 . S
C1407 C1400 1.409 . S
C1407 C1406 1.362 . S
H1408 C1414 0.930 . S
H1409 C1417 0.930 . S
H1410 C1418 0.930 . S
H1411 C1419 0.930 . S
H1412 C1422 0.930 . S
H1413 C1423 0.930 . S
C1414 H1408 0.930 . S
C1414 C1415 1.355 . S
C1414 C1416 1.415 . S
C1415 C1414 1.355 . S
C1415 C1417 1.419 . S
C1416 C1414 1.415 . S
C1416 C1421 1.425 . S
C1416 C1423 1.409 . S
C1417 H1409 0.930 . S
C1417 C1415 1.419 . S
C1417 C1418 1.362 . S
C1418 H1410 0.930 . S
C1418 C1417 1.362 . S
C1418 C1421 1.409 . S
C1419 H1411 0.930 . S
C1419 C1420 1.355 . S
C1419 C1421 1.415 . S
C1420 C1419 1.355 . S
C1420 C1422 1.419 . S
C1421 C1416 1.425 . S
C1421 C1418 1.409 . S
C1421 C1419 1.415 . S
C1422 H1412 0.930 . S
C1422 C1420 1.419 . S
C1422 C1423 1.362 . S
C1423 H1413 0.930 . S
C1423 C1416 1.409 . S
C1423 C1422 1.362 . S
H1424 C1430 0.930 . S
H1425 C1433 0.930 . S
H1426 C1434 0.930 . S
H1427 C1435 0.930 . S
H1428 C1438 0.930 . S
H1429 C1439 0.930 . S
C1430 H1424 0.930 . S
C1430 C1431 1.355 . S
C1430 C1432 1.415 . S
C1431 C1430 1.355 . S
C1431 C1433 1.419 . S
C1432 C1430 1.415 . S
C1432 C1437 1.425 . S
C1432 C1439 1.409 . S
C1433 H1425 0.930 . S
C1433 C1431 1.419 . S
C1433 C1434 1.362 . S
C1434 H1426 0.930 . S
C1434 C1433 1.362 . S
C1434 C1437 1.409 . S
C1435 H1427 0.930 . S
C1435 C1436 1.355 . S
C1435 C1437 1.415 . S
C1436 C1435 1.355 . S
C1436 C1438 1.419 . S
C1437 C1432 1.425 . S
C1437 C1434 1.409 . S
C1437 C1435 1.415 . S
C1438 H1428 0.930 . S
C1438 C1436 1.419 . S
C1438 C1439 1.362 . S
C1439 H1429 0.930 . S
C1439 C1432 1.409 . S
C1439 C1438 1.362 . S
H1440 C1446 0.930 . S
H1441 C1449 0.930 . S
H1442 C1450 0.930 . S
H1443 C1451 0.930 . S
H1444 C1454 0.930 . S
H1445 C1455 0.930 . S
C1446 H1440 0.930 . S
C1446 C1447 1.355 . S
C1446 C1448 1.415 . S
C1447 C1446 1.355 . S
C1447 C1449 1.419 . S
C1448 C1446 1.415 . S
C1448 C1453 1.425 . S
C1448 C1455 1.409 . S
C1449 H1441 0.930 . S
C1449 C1447 1.419 . S
C1449 C1450 1.362 . S
C1450 H1442 0.930 . S
C1450 C1449 1.362 . S
C1450 C1453 1.409 . S
C1451 H1443 0.930 . S
C1451 C1452 1.355 . S
C1451 C1453 1.415 . S
C1452 C1451 1.355 . S
C1452 C1454 1.419 . S
C1453 C1448 1.425 . S
C1453 C1450 1.409 . S
C1453 C1451 1.415 . S
C1454 H1444 0.930 . S
C1454 C1452 1.419 . S
C1454 C1455 1.362 . S
C1455 H1445 0.930 . S
C1455 C1448 1.409 . S
C1455 C1454 1.362 . S
H1456 C1462 0.930 . S
H1457 C1465 0.930 . S
H1458 C1466 0.930 . S
H1459 C1467 0.930 . S
H1460 C1470 0.930 . S
H1461 C1471 0.930 . S
C1462 H1456 0.930 . S
C1462 C1463 1.355 . S
C1462 C1464 1.415 . S
C1463 C1462 1.355 . S
C1463 C1465 1.419 . S
C1464 C1462 1.415 . S
C1464 C1469 1.425 . S
C1464 C1471 1.409 . S
C1465 H1457 0.930 . S
C1465 C1463 1.419 . S
C1465 C1466 1.362 . S
C1466 H1458 0.930 . S
C1466 C1465 1.362 . S
C1466 C1469 1.409 . S
C1467 H1459 0.930 . S
C1467 C1468 1.355 . S
C1467 C1469 1.415 . S
C1468 C1467 1.355 . S
C1468 C1470 1.419 . S
C1469 C1464 1.425 . S
C1469 C1466 1.409 . S
C1469 C1467 1.415 . S
C1470 H1460 0.930 . S
C1470 C1468 1.419 . S
C1470 C1471 1.362 . S
C1471 H1461 0.930 . S
C1471 C1464 1.409 . S
C1471 C1470 1.362 . S
C455 C35 0.506 . S
C460 C7 0.604 . S
C471 C21 0.633 . S
C476 C49 0.571 . S
C487 C91 0.560 . S
C492 C63 0.636 . S
C503 C105 0.564 . S
C508 C77 0.635 . S
C519 C119 0.589 1_545 S
C524 C147 0.510 . S
C535 C161 0.627 1_545 S
C540 C133 0.512 . S
C551 C175 0.590 1_565 S
C556 C203 0.509 . S
C567 C189 0.638 . S
C572 C217 0.551 1_565 S
C583 C259 0.507 . S
C588 C231 0.598 . S
C599 C245 0.635 . S
C604 C273 0.523 . S
C615 C287 0.518 . S
C620 C315 0.633 . S
C631 C329 0.577 . S
C636 C301 0.515 . S
C647 C371 0.572 . S
C652 C343 0.518 1_545 S
C663 C385 0.625 1_545 S
C668 C357 0.511 . S
C679 C427 0.607 . S
C684 C399 0.609 1_565 S
C695 C413 0.572 . S
C700 C441 0.632 1_565 S
C711 C64 1.606 . S
C716 C8 1.606 . S
C727 C414 1.609 . S
C732 C22 1.609 . S
C743 C36 1.589 . S
C748 C204 1.589 . S
C759 C50 1.604 . S
C764 C330 1.604 . S
C775 C78 1.589 . S
C780 C358 1.589 . S
C791 C92 1.591 . S
C796 C148 1.591 . S
C807 C274 1.589 . S
C812 C106 1.589 . S
C823 C176 1.631 . S
C828 C120 1.631 . S
C839 C302 1.611 . S
C844 C134 1.611 . S
C855 C162 1.589 . S
C860 C442 1.589 . S
C871 C190 1.598 . S
C876 C246 1.598 . S
C887 C386 1.633 . S
C892 C218 1.633 . S
C903 C288 1.592 . S
C908 C232 1.592 . S
C919 C260 1.608 . S
C924 C428 1.608 . S
C935 C316 1.632 . S
C940 C372 1.632 . S
C951 C400 1.613 . S
C956 C344 1.613 . S
C967 C51 1.494 . S
C972 C9 1.496 . S
C983 C37 1.454 . S
C988 C23 1.455 . S
C999 C107 1.497 . S
C1004 C65 1.499 . S
C1015 C93 1.455 . S
C1020 C79 1.454 . S
C1031 C163 1.473 . S
C1036 C121 1.470 . S
C1047 C149 1.470 . S
C1052 C135 1.472 . S
C1063 C219 1.458 . S
C1068 C177 1.457 . S
C1079 C205 1.508 . S
C1084 C191 1.508 . S
C1095 C233 1.478 . S
C1100 C275 1.480 . S
C1111 C261 1.493 . S
C1116 C247 1.490 . S
C1127 C289 1.504 . S
C1132 C331 1.503 . S
C1143 C317 1.503 . S
C1148 C303 1.505 . S
C1159 C387 1.507 . S
C1164 C345 1.508 . S
C1175 C359 1.507 . S
C1180 C373 1.507 . S
C1191 C401 1.501 . S
C1196 C443 1.502 . S
C1207 C429 1.508 . S
C1212 C415 1.508 . S
C1223 C31 1.481 1_545 S
C1228 C3 1.487 . S
C1239 C17 1.481 1_545 S
C1244 C45 1.487 . S
C1255 C59 1.521 . S
C1260 C87 1.514 1_565 S
C1271 C73 1.487 1_565 S
C1276 C101 1.521 . S
C1287 C115 1.507 . S
C1292 C143 1.524 . S
C1303 C129 1.498 . S
C1308 C157 1.477 . S
C1319 C199 1.498 . S
C1324 C171 1.477 . S
C1335 C213 1.514 . S
C1340 C185 1.480 . S
C1351 C255 1.525 1_545 S
C1356 C227 1.503 . S
C1367 C269 1.481 . S
C1372 C241 1.515 1_545 S
C1383 C283 1.491 . S
C1388 C311 1.479 1_565 S
C1399 C325 1.498 . S
C1404 C297 1.477 1_565 S
C1415 C367 1.478 . S
C1420 C339 1.509 . S
C1431 C353 1.483 . S
C1436 C381 1.517 . S
C1447 C395 1.514 . S
C1452 C423 1.480 . S
C1463 C437 1.478 . S
C1468 C409 1.495 . S
