# Generated by pormake.
# Topology ske, (6)-cn, num edge types: 1
# Building blocks:
#     Node 0, Type 0, BuildingBlock: KUMJIN_clean_sbu_0, # of connection points: 6
#     Node 1, Type 0, BuildingBlock: KUMJIN_clean_sbu_0, # of connection points: 6
#     Node 2, Type 0, BuildingBlock: KUMJIN_clean_sbu_0, # of connection points: 6
#     Node 3, Type 0, BuildingBlock: KUMJIN_clean_sbu_0, # of connection points: 6
#     Node 4, Type 0, BuildingBlock: KUMJIN_clean_sbu_0, # of connection points: 6
#     Node 5, Type 0, BuildingBlock: KUMJIN_clean_sbu_0, # of connection points: 6
#     Node 6, Type 0, BuildingBlock: KUMJIN_clean_sbu_0, # of connection points: 6
#     Node 7, Type 0, BuildingBlock: KUMJIN_clean_sbu_0, # of connection points: 6
#     Edge 8, Type (0, 0), BuildingBlock: OJICUG_clean_linker_0, # of connection points: 2
#     Edge 9, Type (0, 0), BuildingBlock: OJICUG_clean_linker_0, # of connection points: 2
#     Edge 10, Type (0, 0), BuildingBlock: OJICUG_clean_linker_0, # of connection points: 2
#     Edge 11, Type (0, 0), BuildingBlock: OJICUG_clean_linker_0, # of connection points: 2
#     Edge 12, Type (0, 0), BuildingBlock: OJICUG_clean_linker_0, # of connection points: 2
#     Edge 13, Type (0, 0), BuildingBlock: OJICUG_clean_linker_0, # of connection points: 2
#     Edge 14, Type (0, 0), BuildingBlock: OJICUG_clean_linker_0, # of connection points: 2
#     Edge 15, Type (0, 0), BuildingBlock: OJICUG_clean_linker_0, # of connection points: 2
#     Edge 16, Type (0, 0), BuildingBlock: OJICUG_clean_linker_0, # of connection points: 2
#     Edge 17, Type (0, 0), BuildingBlock: OJICUG_clean_linker_0, # of connection points: 2
#     Edge 18, Type (0, 0), BuildingBlock: OJICUG_clean_linker_0, # of connection points: 2
#     Edge 19, Type (0, 0), BuildingBlock: OJICUG_clean_linker_0, # of connection points: 2
#     Edge 20, Type (0, 0), BuildingBlock: OJICUG_clean_linker_0, # of connection points: 2
#     Edge 21, Type (0, 0), BuildingBlock: OJICUG_clean_linker_0, # of connection points: 2
#     Edge 22, Type (0, 0), BuildingBlock: OJICUG_clean_linker_0, # of connection points: 2
#     Edge 23, Type (0, 0), BuildingBlock: OJICUG_clean_linker_0, # of connection points: 2
#     Edge 24, Type (0, 0), BuildingBlock: OJICUG_clean_linker_0, # of connection points: 2
#     Edge 25, Type (0, 0), BuildingBlock: OJICUG_clean_linker_0, # of connection points: 2
#     Edge 26, Type (0, 0), BuildingBlock: OJICUG_clean_linker_0, # of connection points: 2
#     Edge 27, Type (0, 0), BuildingBlock: OJICUG_clean_linker_0, # of connection points: 2
#     Edge 28, Type (0, 0), BuildingBlock: OJICUG_clean_linker_0, # of connection points: 2
#     Edge 29, Type (0, 0), BuildingBlock: OJICUG_clean_linker_0, # of connection points: 2
#     Edge 30, Type (0, 0), BuildingBlock: OJICUG_clean_linker_0, # of connection points: 2
#     Edge 31, Type (0, 0), BuildingBlock: OJICUG_clean_linker_0, # of connection points: 2
# Relax obj value: 0.195
# Max RMSD: 0.285
# Mean RMSD: 0.224
data_MOF--net-ske--node1-KUMJIN_clean_sbu_0--edge1-OJICUG_clean_linker_0
_symmetry_space_group_name_H-M    P1
_symmetry_Int_Tables_number       1
_symmetry_cell_setting            triclinic
loop_
_symmetry_equiv_pos_as_xyz
'x, y, z'
_cell_length_a     83.281437
_cell_length_b     22.334093
_cell_length_c     10.720104
_cell_angle_alpha  100.68687
_cell_angle_beta   90.430431
_cell_angle_gamma 102.70016
loop_
_atom_site_label
_atom_site_type_symbol
_atom_site_fract_x
_atom_site_fract_y
_atom_site_fract_z
_atom_type_partial_charge
Eu0 Eu 0.10954 0.21659 0.48789 0.0
C1 C 0.17777 0.33848 0.34734 0.0
C2 C 0.17976 0.2849 0.13138 0.0
C3 C 0.19469 0.39279 0.20073 0.0
C4 C 0.17323 0.2855 0.25263 0.0
C5 C 0.18871 0.3924 0.32281 0.0
C6 C 0.19023 0.33915 0.1053 0.0
C7 C 0.18784 0.44041 0.54359 0.0
N8 N 0.17185 0.33672 0.46464 0.0
C9 C 0.17708 0.38583 0.56361 0.0
C10 C 0.19357 0.44395 0.42242 0.0
Eu11 Eu 0.1537 0.24261 0.48932 0.0
N12 N 0.16313 0.23357 0.28068 0.0
C13 C 0.16004 0.17834 0.19513 0.0
C14 C 0.17589 0.22929 0.0409 0.0
C15 C 0.16617 0.17559 0.07354 0.0
H16 H 0.1726 0.3832 0.65726 0.0
H17 H 0.16337 0.13207 1.00505 0.0
H18 H 0.19523 0.33971 1.01235 0.0
H19 H 0.1917 0.4797 0.62152 0.0
H20 H 0.15259 0.13648 0.21932 0.0
H21 H 0.0982 0.30992 0.97981 0.0
H22 H 0.18062 0.22699 0.94665 0.0
H23 H 0.08884 0.0838 0.29288 0.0
H24 H 0.1098 0.31414 0.77007 0.0
H25 H 0.06847 0.98782 0.31029 0.0
H26 H 0.20302 0.43393 0.17984 0.0
H27 H 0.08027 0.21207 1.01885 0.0
H28 H 0.06537 0.10131 0.9341 0.0
H29 H 0.20193 0.48626 0.40728 0.0
H30 H 0.05707 0.01437 0.75227 0.0
N31 N 0.09911 0.21859 0.69232 0.0
C32 C 0.10208 0.27092 0.78586 0.0
C33 C 0.08539 0.21338 0.92668 0.0
C34 C 0.08156 0.16105 0.82796 0.0
C35 C 0.09548 0.26882 0.90489 0.0
C36 C 0.08852 0.16524 0.70939 0.0
H37 H 0.05787 0.97227 0.51947 0.0
N38 N 0.09011 0.12208 0.4911 0.0
C39 C 0.07276 0.02328 0.39424 0.0
C40 C 0.08381 0.11595 0.60612 0.0
C41 C 0.08431 0.07787 0.38475 0.0
C42 C 0.06682 0.01467 0.51255 0.0
C43 C 0.07215 0.06154 0.61999 0.0
O44 O 0.09693 0.2506 0.34464 0.0
O45 O 0.13124 0.23871 0.36344 0.0
O46 O 0.14621 0.32981 0.4579 0.0
O47 O 0.12226 0.31796 0.56593 0.0
O48 O 0.11111 0.17281 0.27768 0.0
O49 O 0.08731 0.2537 0.52971 0.0
O50 O 0.17611 0.2571 0.61114 0.0
O51 O 0.13206 0.21978 0.61374 0.0
O52 O 0.11513 0.12371 0.49798 0.0
O53 O 0.14211 0.1383 0.43363 0.0
O54 O 0.15232 0.28247 0.70231 0.0
O55 O 0.16849 0.17214 0.47052 0.0
C56 C 0.12547 0.20431 0.25566 0.0
C57 C 0.06778 0.22854 0.35482 0.0
C58 C 0.03772 0.2183 0.34773 0.0
C59 C 0.05364 0.24818 0.40358 0.0
C60 C 0.03632 0.16852 0.24332 0.0
C61 C 0.0658 0.17859 0.25052 0.0
C62 C 0.05021 0.149 0.19562 0.0
C63 C 0.13426 0.35278 0.51384 0.0
C64 C 0.08453 0.25883 0.4134 0.0
C65 C 0.06588 0.05614 0.73959 0.0
C66 C 0.0706 0.10569 0.84324 0.0
C67 C 0.13786 0.25191 0.7231 0.0
C68 C 0.19737 0.2115 0.51443 0.0
C69 C 0.2103 0.21611 0.60436 0.0
C70 C 0.22675 0.22031 0.56659 0.0
C71 C 0.22997 0.22144 0.43825 0.0
C72 C 0.20107 0.21097 0.38674 0.0
C73 C 0.21723 0.21659 0.34944 0.0
C74 C 0.12828 0.1025 0.46258 0.0
C75 C 0.18008 0.20602 0.55327 0.0
H76 H 0.05505 0.28644 0.48438 0.0
H77 H 0.02437 0.14311 0.20024 0.0
H78 H 0.07631 0.16194 0.21136 0.0
H79 H 0.04882 0.11003 0.11656 0.0
H80 H 0.20749 0.21505 0.70255 0.0
H81 H 0.2424 0.22637 0.40605 0.0
H82 H 0.19152 0.20564 0.31485 0.0
H83 H 0.21988 0.21684 0.2508 0.0
Eu84 Eu 0.85858 0.25983 0.55521 0.0
C85 C 0.9152 0.28256 0.8641 0.0
C86 C 0.92915 0.38963 0.95141 0.0
C87 C 0.92678 0.31082 0.08247 0.0
C88 C 0.9204 0.34407 0.84985 0.0
C89 C 0.91868 0.2652 0.98023 0.0
C90 C 0.93193 0.37296 0.06829 0.0
C91 C 0.90632 0.15833 0.88605 0.0
N92 N 0.90701 0.23944 0.76452 0.0
C93 C 0.90301 0.1776 0.77371 0.0
C94 C 0.91399 0.20239 0.99043 0.0
Eu95 Eu 0.90253 0.27655 0.57396 0.0
N96 N 0.9178 0.35883 0.73513 0.0
C97 C 0.92538 0.41665 0.71262 0.0
C98 C 0.93543 0.45027 0.93141 0.0
C99 C 0.93382 0.46346 0.81067 0.0
H100 H 0.89812 0.14176 0.69373 0.0
H101 H 0.93936 0.50937 0.79227 0.0
H102 H 0.93846 0.4075 0.14732 0.0
H103 H 0.90308 0.10923 0.89142 0.0
H104 H 0.92524 0.42709 0.61823 0.0
H105 H 0.82373 0.02781 0.31179 0.0
H106 H 0.94217 0.48643 1.00693 0.0
H107 H 0.85994 0.39817 0.45666 0.0
H108 H 0.83673 0.10733 0.49378 0.0
H109 H 0.85578 0.43588 0.2631 0.0
H110 H 0.92929 0.29837 0.17252 0.0
H111 H 0.82128 0.056 0.10152 0.0
H112 H 0.82467 0.13929 0.97132 0.0
H113 H 0.91647 0.18734 0.07769 0.0
H114 H 0.83294 0.25046 0.95902 0.0
N115 N 0.84406 0.17979 0.38616 0.0
C116 C 0.83681 0.12036 0.40164 0.0
C117 C 0.82756 0.0911 0.18069 0.0
C118 C 0.83338 0.15316 0.16792 0.0
C119 C 0.82897 0.07497 0.29892 0.0
C120 C 0.84154 0.19722 0.27405 0.0
H121 H 0.84444 0.36089 0.06667 0.0
N122 N 0.8536 0.30141 0.37155 0.0
C123 C 0.85336 0.3861 0.26168 0.0
C124 C 0.84619 0.25983 0.26714 0.0
C125 C 0.85636 0.36413 0.37142 0.0
C126 C 0.84682 0.34375 0.1516 0.0
C127 C 0.84281 0.2799 0.15388 0.0
O128 O 0.84422 0.32547 0.64593 0.0
O129 O 0.88056 0.28418 0.69989 0.0
O130 O 0.88983 0.17399 0.50957 0.0
O131 O 0.86282 0.16497 0.5693 0.0
O132 O 0.85944 0.22231 0.73818 0.0
O133 O 0.83276 0.22745 0.59991 0.0
O134 O 0.91604 0.20829 0.48083 0.0
O135 O 0.88055 0.25266 0.42981 0.0
O136 O 0.87151 0.36224 0.6214 0.0
O137 O 0.8983 0.37134 0.55698 0.0
O138 O 0.90165 0.31407 0.39055 0.0
O139 O 0.92881 0.30426 0.53495 0.0
C140 C 0.87398 0.25272 0.7837 0.0
C141 C 0.81518 0.29835 0.60216 0.0
C142 C 0.78593 0.29939 0.63378 0.0
C143 C 0.80047 0.28052 0.66387 0.0
C144 C 0.78655 0.3353 0.53783 0.0
C145 C 0.81516 0.33307 0.50597 0.0
C146 C 0.80093 0.35106 0.47377 0.0
C147 C 0.87531 0.14039 0.5313 0.0
C148 C 0.83061 0.28322 0.64363 0.0
C149 C 0.83537 0.2359 0.04693 0.0
C150 C 0.83072 0.17261 0.05381 0.0
C151 C 0.887 0.28423 0.3459 0.0
C152 C 0.9445 0.22776 0.54273 0.0
C153 C 0.9606 0.24578 0.50032 0.0
C154 C 0.97394 0.2256 0.54955 0.0
C155 C 0.97083 0.18778 0.64207 0.0
C156 C 0.94196 0.18902 0.63315 0.0
C157 C 0.95501 0.16982 0.68326 0.0
C158 C 0.88579 0.39593 0.59499 0.0
C159 C 0.93029 0.24762 0.49093 0.0
H160 H 0.80057 0.25245 0.73589 0.0
H161 H 0.77611 0.35309 0.51359 0.0
H162 H 0.82619 0.34749 0.45723 0.0
H163 H 0.80117 0.37883 0.40078 0.0
H164 H 0.96267 0.27488 0.42898 0.0
H165 H 0.98054 0.16992 0.67975 0.0
H166 H 0.92983 0.17218 0.66335 0.0
H167 H 0.95277 0.13967 0.75254 0.0
Eu168 Eu 0.15229 0.75295 0.52656 0.0
C169 C 0.0866 0.58534 0.29651 0.0
C170 C 0.08403 0.61591 0.09322 0.0
C171 C 0.07263 0.50876 0.11467 0.0
C172 C 0.09013 0.6303 0.22105 0.0
C173 C 0.07733 0.52465 0.24476 0.0
C174 C 0.07593 0.5544 0.03906 0.0
C175 C 0.07571 0.50259 0.45691 0.0
N176 N 0.09087 0.60256 0.4228 0.0
C177 C 0.08468 0.5634 0.50406 0.0
C178 C 0.0723 0.48266 0.32638 0.0
Eu179 Eu 0.10754 0.70535 0.49065 0.0
N180 N 0.09783 0.68968 0.27598 0.0
C181 C 0.09772 0.73789 0.21397 0.0
C182 C 0.08533 0.66451 0.02581 0.0
C183 C 0.09175 0.72596 0.08747 0.0
H184 H 0.0875 0.57763 0.6049 0.0
H185 H 0.09222 0.76413 0.03739 0.0
H186 H 0.07146 0.54239 0.94035 0.0
H187 H 0.07146 0.47109 0.52134 0.0
H188 H 0.10256 0.78574 0.26004 0.0
H189 H 0.16288 0.62967 0.9068 0.0
H190 H 0.08077 0.65532 0.92807 0.0
H191 H 0.17284 0.89807 0.50475 0.0
H192 H 0.15473 0.63899 0.69297 0.0
H193 H 0.18649 0.99709 0.64637 0.0
H194 H 0.06573 0.46214 0.07301 0.0
H195 H 0.17336 0.72443 0.07045 0.0
H196 H 0.18192 0.84125 0.12722 0.0
H197 H 0.0652 0.43564 0.29022 0.0
H198 H 0.18778 0.94233 0.05718 0.0
N199 N 0.15996 0.73886 0.73239 0.0
C200 C 0.15917 0.68122 0.76183 0.0
C201 C 0.16976 0.72904 0.97593 0.0
C202 C 0.17147 0.78788 0.94368 0.0
C203 C 0.16389 0.6755 0.88379 0.0
C204 C 0.16654 0.79136 0.81922 0.0
H205 H 0.18982 0.00085 0.87739 0.0
N206 N 0.16696 0.84838 0.65537 0.0
C207 C 0.18168 0.95583 0.68565 0.0
C208 C 0.1699 0.84812 0.77983 0.0
C209 C 0.17383 0.89992 0.60591 0.0
C210 C 0.18349 0.95778 0.81594 0.0
C211 C 0.17814 0.90297 0.86389 0.0
O212 O 0.17421 0.78129 0.42062 0.0
O213 O 0.13089 0.71587 0.37692 0.0
O214 O 0.11574 0.61552 0.47674 0.0
O215 O 0.14445 0.64702 0.4934 0.0
O216 O 0.15013 0.7841 0.33664 0.0
O217 O 0.17112 0.69744 0.49726 0.0
O218 O 0.09498 0.75247 0.64614 0.0
O219 O 0.12892 0.74199 0.63944 0.0
O220 O 0.14261 0.84101 0.55912 0.0
O221 O 0.11625 0.80522 0.46337 0.0
O222 O 0.10971 0.67231 0.67774 0.0
O223 O 0.08279 0.72067 0.46174 0.0
C224 C 0.13626 0.74782 0.29076 0.0
C225 C 0.19847 0.75605 0.48938 0.0
C226 C 0.22819 0.7751 0.45296 0.0
C227 C 0.2115 0.75271 0.40657 0.0
C228 C 0.2313 0.80158 0.58342 0.0
C229 C 0.2022 0.7802 0.61894 0.0
C230 C 0.21844 0.80318 0.66534 0.0
C231 C 0.13053 0.6041 0.4823 0.0
C232 C 0.18102 0.73666 0.44089 0.0
C233 C 0.18172 0.90051 0.99079 0.0
C234 C 0.17844 0.84296 0.03055 0.0
C235 C 0.12364 0.70851 0.72375 0.0
C236 C 0.06576 0.71859 0.63533 0.0
C237 C 0.05159 0.74154 0.6189 0.0
C238 C 0.03638 0.71409 0.66438 0.0
C239 C 0.03559 0.66345 0.72648 0.0
C240 C 0.06468 0.66866 0.69931 0.0
C241 C 0.0497 0.64125 0.74445 0.0
C242 C 0.12904 0.85037 0.51008 0.0
C243 C 0.08133 0.74466 0.57954 0.0
H244 H 0.20854 0.73245 0.30706 0.0
H245 H 0.24368 0.82217 0.6233 0.0
H246 H 0.19256 0.78183 0.6845 0.0
H247 H 0.22109 0.82299 0.7654 0.0
H248 H 0.05234 0.78003 0.56906 0.0
H249 H 0.02414 0.64186 0.76336 0.0
H250 H 0.07543 0.65085 0.714 0.0
H251 H 0.04903 0.60267 0.79368 0.0
Eu252 Eu 0.85824 0.74119 0.54639 0.0
C253 C 0.92085 0.90113 0.40817 0.0
C254 C 0.92653 0.84907 0.19897 0.0
C255 C 0.93493 0.96234 0.25954 0.0
C256 C 0.91987 0.84642 0.31897 0.0
C257 C 0.92864 0.95951 0.38002 0.0
C258 C 0.93385 0.90731 0.16924 0.0
C259 C 0.92427 0.00787 0.59477 0.0
N260 N 0.91458 0.89715 0.52407 0.0
C261 C 0.91674 0.949 0.61892 0.0
C262 C 0.93011 0.01324 0.47454 0.0
Eu263 Eu 0.90234 0.79508 0.5547 0.0
N264 N 0.91264 0.79063 0.34981 0.0
C265 C 0.91232 0.73573 0.26779 0.0
C266 C 0.92572 0.79302 0.11259 0.0
C267 C 0.9187 0.73611 0.14757 0.0
H268 H 0.91224 0.94478 0.71192 0.0
H269 H 0.91815 0.69255 0.08181 0.0
H270 H 0.93891 0.91024 0.07715 0.0
H271 H 0.92555 0.049 0.66884 0.0
H272 H 0.90686 0.6916 0.29413 0.0
H273 H 0.84344 0.83367 0.02913 0.0
H274 H 0.93061 0.79314 1.01921 0.0
H275 H 0.8457 0.59613 0.37124 0.0
H276 H 0.8546 0.83914 0.81784 0.0
H277 H 0.83104 0.49097 0.40075 0.0
H278 H 0.94084 0.00681 0.2358 0.0
H279 H 0.83011 0.73132 0.08042 0.0
H280 H 0.82032 0.61518 1.00828 0.0
H281 H 0.93597 0.05892 0.45626 0.0
H282 H 0.81678 0.52235 0.83734 0.0
N283 N 0.84812 0.74069 0.75156 0.0
C284 C 0.84884 0.79419 0.83912 0.0
C285 C 0.83499 0.73341 0.98748 0.0
C286 C 0.83349 0.67909 0.89474 0.0
C287 C 0.84249 0.79129 0.95887 0.0
C288 C 0.84009 0.68434 0.77539 0.0
H289 H 0.82065 0.47577 0.61086 0.0
N290 N 0.84382 0.63925 0.56321 0.0
C291 C 0.83286 0.53032 0.47947 0.0
C292 C 0.83779 0.63221 0.67835 0.0
C293 C 0.8411 0.58984 0.46297 0.0
C294 C 0.82702 0.52189 0.59826 0.0
C295 C 0.82928 0.57321 0.69914 0.0
O296 O 0.83541 0.71595 0.42527 0.0
O297 O 0.87937 0.7736 0.42429 0.0
O298 O 0.88998 0.86799 0.5024 0.0
O299 O 0.86581 0.84789 0.60528 0.0
O300 O 0.86105 0.70332 0.33334 0.0
O301 O 0.84089 0.80246 0.56327 0.0
O302 O 0.92338 0.82555 0.69231 0.0
O303 O 0.88133 0.76018 0.67605 0.0
O304 O 0.86951 0.66368 0.58855 0.0
O305 O 0.89563 0.68746 0.51095 0.0
O306 O 0.89901 0.83411 0.76583 0.0
O307 O 0.92335 0.74955 0.53482 0.0
C308 C 0.87481 0.73951 0.31453 0.0
C309 C 0.81258 0.75339 0.51659 0.0
C310 C 0.78324 0.74525 0.46563 0.0
C311 C 0.79977 0.75271 0.42883 0.0
C312 C 0.77977 0.73711 0.59036 0.0
C313 C 0.80863 0.74599 0.6407 0.0
C314 C 0.79238 0.73744 0.67682 0.0
C315 C 0.87692 0.88556 0.55139 0.0
C316 C 0.83001 0.76446 0.48009 0.0
C317 C 0.82326 0.56737 0.81934 0.0
C318 C 0.82531 0.6202 0.91678 0.0
C319 C 0.88574 0.7952 0.78526 0.0
C320 C 0.94938 0.81733 0.6092 0.0
C321 C 0.96234 0.78675 0.62167 0.0
C322 C 0.97885 0.81598 0.60249 0.0
C323 C 0.9819 0.87428 0.56419 0.0
C324 C 0.95328 0.87736 0.57986 0.0
C325 C 0.96925 0.90484 0.55453 0.0
C326 C 0.8834 0.64819 0.55223 0.0
C327 C 0.93199 0.78825 0.63076 0.0
H328 H 0.80272 0.75948 0.3334 0.0
H329 H 0.76725 0.73 0.6211 0.0
H330 H 0.81806 0.74762 0.71088 0.0
H331 H 0.78955 0.73149 0.77279 0.0
H332 H 0.95962 0.74158 0.64978 0.0
H333 H 0.99417 0.89702 0.54297 0.0
H334 H 0.94412 0.90404 0.57836 0.0
H335 H 0.97188 0.9506 0.52908 0.0
Eu336 Eu 0.61055 0.73039 0.02646 0.0
C337 C 0.67722 0.83757 0.8531 0.0
C338 C 0.67689 0.77079 0.64632 0.0
C339 C 0.69234 0.8788 0.68266 0.0
C340 C 0.67172 0.7801 0.77219 0.0
C341 C 0.68788 0.88703 0.80976 0.0
C342 C 0.68686 0.82084 0.60116 0.0
C343 C 0.6902 0.94744 1.02379 0.0
N344 N 0.67286 0.84416 0.97592 0.0
C345 C 0.67964 0.89711 0.0626 0.0
C346 C 0.69416 0.94271 0.89647 0.0
Eu347 Eu 0.65484 0.75661 0.03152 0.0
N348 N 0.66225 0.73214 0.81872 0.0
C349 C 0.65845 0.67301 0.74741 0.0
C350 C 0.67228 0.71097 0.57056 0.0
C351 C 0.66323 0.66172 0.62199 0.0
H352 H 0.67644 0.90089 0.16093 0.0
H353 H 0.65987 0.61507 0.56488 0.0
H354 H 0.69076 0.81472 0.50428 0.0
H355 H 0.69524 0.98987 0.09193 0.0
H356 H 0.65138 0.63458 0.78557 0.0
H357 H 0.60085 0.83075 0.51818 0.0
H358 H 0.67595 0.70204 0.47333 0.0
H359 H 0.58718 0.5997 0.84227 0.0
H360 H 0.61069 0.83273 0.30266 0.0
H361 H 0.56792 0.50258 0.87179 0.0
H362 H 0.70038 0.91648 0.64736 0.0
H363 H 0.58547 0.73182 0.57157 0.0
H364 H 0.57227 0.61778 0.49948 0.0
H365 H 0.70239 0.98174 0.86675 0.0
H366 H 0.56302 0.52865 0.3232 0.0
N367 N 0.60144 0.73507 0.23536 0.0
C368 C 0.60399 0.78909 0.32435 0.0
C369 C 0.58972 0.73218 0.47663 0.0
C370 C 0.58607 0.67801 0.38216 0.0
C371 C 0.59838 0.78825 0.44674 0.0
C372 C 0.59187 0.68119 0.25972 0.0
H373 H 0.56093 0.48598 0.0885 0.0
N374 N 0.59136 0.63661 0.04051 0.0
C375 C 0.57322 0.53797 0.95354 0.0
C376 C 0.5867 0.63062 0.15976 0.0
C377 C 0.58402 0.59312 0.93706 0.0
C378 C 0.56935 0.5287 0.07609 0.0
C379 C 0.57577 0.57587 0.18083 0.0
O380 O 0.59793 0.76723 0.8874 0.0
O381 O 0.63239 0.75249 0.90413 0.0
O382 O 0.64764 0.84444 1.00057 0.0
O383 O 0.62288 0.83305 0.09845 0.0
O384 O 0.61204 0.68793 0.81572 0.0
O385 O 0.58741 0.76096 0.06703 0.0
O386 O 0.67748 0.78009 0.15451 0.0
O387 O 0.63305 0.73394 0.15472 0.0
O388 O 0.61541 0.63408 1.00844 0.0
O389 O 0.64409 0.65237 1.00739 0.0
O390 O 0.65302 0.80018 0.24146 0.0
O391 O 0.67073 0.6905 0.02654 0.0
C392 C 0.62656 0.71898 0.79543 0.0
C393 C 0.56865 0.74032 0.88907 0.0
C394 C 0.53852 0.72766 0.87466 0.0
C395 C 0.55413 0.7577 0.93582 0.0
C396 C 0.53778 0.68 0.76718 0.0
C397 C 0.56732 0.69225 0.78193 0.0
C398 C 0.55201 0.66251 0.7218 0.0
C399 C 0.63529 0.8674 0.04918 0.0
C400 C 0.58505 0.77072 0.95363 0.0
C401 C 0.57112 0.57087 0.30475 0.0
C402 C 0.5763 0.62176 0.40518 0.0
C403 C 0.63878 0.76776 0.26309 0.0
C404 C 0.69935 0.73495 0.06775 0.0
C405 C 0.71223 0.73776 0.15676 0.0
C406 C 0.72865 0.74186 0.11846 0.0
C407 C 0.73191 0.74511 0.99094 0.0
C408 C 0.70307 0.73599 0.94063 0.0
C409 C 0.71921 0.74191 0.90306 0.0
C410 C 0.62931 0.61512 1.00319 0.0
C411 C 0.68205 0.72871 0.1061 0.0
H412 H 0.55501 0.79427 1.01925 0.0
H413 H 0.52607 0.65456 0.71989 0.0
H414 H 0.57812 0.67713 0.7449 0.0
H415 H 0.55108 0.62492 0.64052 0.0
H416 H 0.70938 0.7351 0.25431 0.0
H417 H 0.74433 0.75015 0.95858 0.0
H418 H 0.6935 0.7313 0.86939 0.0
H419 H 0.72187 0.74344 0.80485 0.0
Eu420 Eu 0.35778 0.75132 0.04918 0.0
C421 C 0.41458 0.77781 0.35884 0.0
C422 C 0.42805 0.88543 0.4465 0.0
C423 C 0.42609 0.80673 0.57743 0.0
C424 C 0.41948 0.83948 0.34473 0.0
C425 C 0.41816 0.76076 0.47507 0.0
C426 C 0.43095 0.86897 0.56337 0.0
C427 C 0.40618 0.65353 0.38105 0.0
N428 N 0.40653 0.73431 0.25924 0.0
C429 C 0.40275 0.67248 0.26859 0.0
C430 C 0.41373 0.69791 0.48537 0.0
Eu431 Eu 0.40186 0.77101 0.06868 0.0
N432 N 0.41676 0.8541 0.23005 0.0
C433 C 0.42406 0.91228 0.20784 0.0
C434 C 0.43402 0.94631 0.42677 0.0
C435 C 0.4323 0.95943 0.3061 0.0
H436 H 0.39778 0.63646 0.189 0.0
H437 H 0.43762 0.00558 0.28791 0.0
H438 H 0.43733 0.9038 0.64253 0.0
H439 H 0.40307 0.60446 0.38668 0.0
H440 H 0.42388 0.92276 0.11351 0.0
H441 H 0.32171 0.51673 0.83289 0.0
H442 H 0.44061 0.98276 0.50246 0.0
H443 H 0.35892 0.88535 0.93516 0.0
H444 H 0.33539 0.6003 1.00672 0.0
H445 H 0.35396 0.91771 0.7367 0.0
H446 H 0.42868 0.79448 0.66754 0.0
H447 H 0.31898 0.53844 0.61701 0.0
H448 H 0.32234 0.61695 0.47531 0.0
H449 H 0.41627 0.68311 0.57275 0.0
H450 H 0.3306 0.72645 0.45026 0.0
N451 N 0.34257 0.66821 0.88873 0.0
C452 C 0.33518 0.61032 0.91196 0.0
C453 C 0.3255 0.5752 0.69252 0.0
C454 C 0.33147 0.63591 0.67185 0.0
C455 C 0.32704 0.56273 0.81398 0.0
C456 C 0.33993 0.68221 0.77346 0.0
H457 H 0.34217 0.83852 0.54699 0.0
N458 N 0.35219 0.78754 0.85999 0.0
C459 C 0.35156 0.86847 0.7406 0.0
C460 C 0.34459 0.74377 0.75935 0.0
C461 C 0.35493 0.84954 0.85324 0.0
C462 C 0.34479 0.82376 0.63426 0.0
C463 C 0.3409 0.76067 0.64326 0.0
O464 O 0.3438 0.81869 0.13831 0.0
O465 O 0.37976 0.77688 0.19405 0.0
O466 O 0.38974 0.66804 1.00356 0.0
O467 O 0.36259 0.657 0.06043 0.0
O468 O 0.35886 0.71376 0.23179 0.0
O469 O 0.33221 0.72076 0.10125 0.0
O470 O 0.41551 0.70415 0.97221 0.0
O471 O 0.37987 0.74599 0.92443 0.0
O472 O 0.37024 0.8545 0.10873 0.0
O473 O 0.39729 0.86495 0.04932 0.0
O474 O 0.40082 0.80804 0.88474 0.0
O475 O 0.42828 0.79967 0.03482 0.0
C476 C 0.37331 0.74497 0.27758 0.0
C477 C 0.31468 0.79145 0.10103 0.0
C478 C 0.28566 0.79436 0.13813 0.0
C479 C 0.30033 0.77634 0.16833 0.0
C480 C 0.28581 0.82669 0.03664 0.0
C481 C 0.31419 0.82247 0.99935 0.0
C482 C 0.29983 0.83959 0.96715 0.0
C483 C 0.37525 0.6335 1.02263 0.0
C484 C 0.33022 0.77703 0.14158 0.0
C485 C 0.33325 0.71436 0.54039 0.0
C486 C 0.32861 0.65203 0.55451 0.0
C487 C 0.38622 0.77753 0.84012 0.0
C488 C 0.44374 0.72213 0.03932 0.0
C489 C 0.46014 0.74382 1.00653 0.0
C490 C 0.47327 0.72239 0.0555 0.0
C491 C 0.46964 0.67981 0.13863 0.0
C492 C 0.44067 0.67834 0.11967 0.0
C493 C 0.45351 0.65813 0.17017 0.0
C494 C 0.3845 0.88861 0.08306 0.0
C495 C 0.42979 0.74341 0.98738 0.0
H496 H 0.30078 0.75092 0.24446 0.0
H497 H 0.27527 0.84374 1.01179 0.0
H498 H 0.32495 0.83456 0.94609 0.0
H499 H 0.2997 0.8645 0.88972 0.0
H500 H 0.46262 0.77666 0.94251 0.0
H501 H 0.47922 0.66109 0.17579 0.0
H502 H 0.42829 0.65848 0.14156 0.0
H503 H 0.4509 0.62432 0.23196 0.0
Eu504 Eu 0.65199 0.26264 1.00224 0.0
C505 C 0.58767 0.09197 0.75727 0.0
C506 C 0.58487 0.12684 0.55875 0.0
C507 C 0.57416 0.01789 0.57045 0.0
C508 C 0.59088 0.13904 0.68655 0.0
C509 C 0.57877 0.0314 0.70067 0.0
C510 C 0.57715 0.06561 0.49968 0.0
C511 C 0.57712 0.00477 0.90915 0.0
N512 N 0.59179 0.10687 0.88393 0.0
C513 C 0.58567 0.06562 0.96115 0.0
C514 C 0.57396 0.98714 0.77794 0.0
Eu515 Eu 0.60757 0.21008 0.96046 0.0
N516 N 0.59824 0.19808 0.74612 0.0
C517 C 0.59803 0.24768 0.68856 0.0
C518 C 0.58592 0.17712 0.49625 0.0
C519 C 0.59214 0.23792 0.56232 0.0
H520 H 0.58808 0.07871 0.06257 0.0
H521 H 0.59249 0.27726 0.51591 0.0
H522 H 0.57277 0.05528 0.40086 0.0
H523 H 0.57292 0.9716 0.97037 0.0
H524 H 0.60271 0.29499 0.73824 0.0
H525 H 0.66769 0.19345 0.4426 0.0
H526 H 0.5814 0.16973 0.39877 0.0
H527 H 0.66731 0.39809 0.90722 0.0
H528 H 0.65685 0.17717 0.22171 0.0
H529 H 0.68257 0.50541 0.99915 0.0
H530 H 0.56755 0.97143 0.52506 0.0
H531 H 0.67946 0.30048 0.56122 0.0
H532 H 0.68829 0.41532 0.55975 0.0
H533 H 0.56715 0.94014 0.73801 0.0
H534 H 0.69256 0.50034 0.43826 0.0
N535 N 0.66173 0.27427 0.21581 0.0
C536 C 0.66186 0.22422 0.272 0.0
C537 C 0.67464 0.29369 0.46419 0.0
C538 C 0.67556 0.34445 0.40308 0.0
C539 C 0.66806 0.2332 0.39741 0.0
C540 C 0.6691 0.33302 0.27659 0.0
H541 H 0.69092 0.53397 0.22826 0.0
N542 N 0.66673 0.36654 0.08305 0.0
C543 C 0.67958 0.47083 0.05898 0.0
C544 C 0.6718 0.38059 0.20775 0.0
C545 C 0.67095 0.40996 1.0072 0.0
C546 C 0.68421 0.48683 0.18846 0.0
C547 C 0.68058 0.44126 0.26418 0.0
O548 O 0.67388 0.27907 0.88918 0.0
O549 O 0.63104 0.22278 0.84914 0.0
O550 O 0.61678 0.12155 0.94381 0.0
O551 O 0.64466 0.15889 1.00694 0.0
O552 O 0.64973 0.29269 0.81085 0.0
O553 O 0.67003 0.20398 0.99341 0.0
O554 O 0.59406 0.25311 0.11461 0.0
O555 O 0.62851 0.24717 0.11146 0.0
O556 O 0.64058 0.34496 0.06882 0.0
O557 O 0.61667 0.31172 0.94095 0.0
O558 O 0.60948 0.17717 0.14912 0.0
O559 O 0.58261 0.2228 0.92761 0.0
C560 C 0.63617 0.25507 0.76337 0.0
C561 C 0.69779 0.25655 0.97416 0.0
C562 C 0.72754 0.27554 0.93782 0.0
C563 C 0.71084 0.25394 0.89094 0.0
C564 C 0.73066 0.30115 0.06855 0.0
C565 C 0.7016 0.27945 0.10418 0.0
C566 C 0.71784 0.30219 0.15061 0.0
C567 C 0.63132 0.11344 0.97682 0.0
C568 C 0.68025 0.23665 0.92637 0.0
C569 C 0.68595 0.45387 0.3928 0.0
C570 C 0.68348 0.4055 0.46208 0.0
C571 C 0.62333 0.2139 0.19602 0.0
C572 C 0.565 0.21369 0.09661 0.0
C573 C 0.55016 0.23139 0.07386 0.0
C574 C 0.53509 0.20042 0.11651 0.0
C575 C 0.53526 0.15142 0.18204 0.0
C576 C 0.56471 0.165 0.16278 0.0
C577 C 0.54996 0.13418 0.20529 0.0
C578 C 0.62789 0.35659 1.01119 0.0
C579 C 0.58052 0.244 0.04573 0.0
H580 H 0.70793 0.23461 0.79098 0.0
H581 H 0.74306 0.32125 0.10861 0.0
H582 H 0.69207 0.27999 0.17068 0.0
H583 H 0.7205 0.32105 0.25103 0.0
H584 H 0.55045 0.26951 1.02382 0.0
H585 H 0.52398 0.12566 0.21412 0.0
H586 H 0.57591 0.15063 0.18115 0.0
H587 H 0.54991 0.09643 0.25579 0.0
Eu588 Eu 0.35636 0.23123 1.00949 0.0
C589 C 0.41999 0.38853 0.87551 0.0
C590 C 0.42539 0.33708 0.665 0.0
C591 C 0.43471 0.4499 0.72962 0.0
C592 C 0.4186 0.33419 0.78449 0.0
C593 C 0.42828 0.44678 0.84956 0.0
C594 C 0.43325 0.39524 0.63758 0.0
C595 C 0.42394 0.49437 0.06492 0.0
N596 N 0.41354 0.38427 0.99069 0.0
C597 C 0.4159 0.43562 0.0868 0.0
C598 C 0.43004 0.50009 0.94557 0.0
Eu599 Eu 0.40049 0.28246 1.0177 0.0
N600 N 0.41085 0.27849 0.8131 0.0
C601 C 0.41018 0.22377 0.72956 0.0
C602 C 0.42419 0.2813 0.57688 0.0
C603 C 0.41668 0.22438 0.60974 0.0
H604 H 0.41121 0.43119 0.17915 0.0
H605 H 0.41584 0.181 0.5427 0.0
H606 H 0.43843 0.39837 0.54594 0.0
H607 H 0.4254 0.53513 0.14005 0.0
H608 H 0.40435 0.17965 0.75443 0.0
H609 H 0.34167 0.32503 0.4919 0.0
H610 H 0.42917 0.28162 0.48384 0.0
H611 H 0.34362 0.08624 0.83478 0.0
H612 H 0.35309 0.3298 0.28139 0.0
H613 H 0.32841 0.98172 0.86375 0.0
H614 H 0.44102 0.49429 0.70759 0.0
H615 H 0.32758 0.2233 0.54201 0.0
H616 H 0.31715 0.10752 0.46917 0.0
H617 H 0.43629 0.54569 0.92909 0.0
H618 H 0.31339 0.01455 0.29837 0.0
N619 N 0.34602 0.23148 0.21417 0.0
C620 C 0.34701 0.28509 0.30207 0.0
C621 C 0.33257 0.22508 0.44938 0.0
C622 C 0.33085 0.1707 0.35646 0.0
C623 C 0.34051 0.2826 0.42144 0.0
C624 C 0.33762 0.17552 0.23752 0.0
H625 H 0.31749 0.96743 0.07288 0.0
N626 N 0.34153 0.12985 0.02609 0.0
C627 C 0.33024 0.02117 0.94226 0.0
C628 C 0.33523 0.12331 0.14063 0.0
C629 C 0.3388 0.08033 0.92608 0.0
C630 C 0.32411 0.01324 0.06046 0.0
C631 C 0.32641 0.06468 0.16107 0.0
O632 O 0.33372 0.20712 0.88647 0.0
O633 O 0.37757 0.26305 0.88733 0.0
O634 O 0.38869 0.35732 0.96821 0.0
O635 O 0.36443 0.33761 0.07058 0.0
O636 O 0.35919 0.19266 0.79704 0.0
O637 O 0.33923 0.29334 1.02523 0.0
O638 O 0.42162 0.30993 0.15437 0.0
O639 O 0.37938 0.24903 0.13925 0.0
O640 O 0.36725 0.15321 0.05378 0.0
O641 O 0.39322 0.17498 0.97335 0.0
O642 O 0.39741 0.32163 0.22909 0.0
O643 O 0.42093 0.234 0.99521 0.0
C644 C 0.37295 0.22875 0.77789 0.0
C645 C 0.31088 0.2449 0.97655 0.0
C646 C 0.28151 0.23411 0.92165 0.0
C647 C 0.2981 0.24164 0.8863 0.0
C648 C 0.27796 0.22844 0.04755 0.0
C649 C 0.30684 0.24 0.10169 0.0
C650 C 0.29053 0.23134 0.13645 0.0
C651 C 0.37577 0.37541 1.01872 0.0
C652 C 0.32837 0.25575 0.94127 0.0
C653 C 0.32013 0.05929 0.28069 0.0
C654 C 0.3223 0.11219 0.37804 0.0
C655 C 0.38394 0.2838 0.2485 0.0
C656 C 0.44731 0.29918 0.06815 0.0
C657 C 0.45967 0.26478 0.06906 0.0
C658 C 0.47618 0.29166 0.04601 0.0
C659 C 0.48005 0.35256 1.02062 0.0
C660 C 0.45188 0.36093 0.04816 0.0
C661 C 0.46799 0.38692 1.02247 0.0
C662 C 0.38101 0.13671 1.01713 0.0
C663 C 0.42985 0.27176 0.09091 0.0
H664 H 0.30112 0.24646 0.78996 0.0
H665 H 0.26539 0.22129 0.07741 0.0
H666 H 0.31624 0.24364 0.17367 0.0
H667 H 0.28762 0.22728 0.23323 0.0
H668 H 0.45651 0.21771 0.08806 0.0
H669 H 0.49259 0.37459 1.00396 0.0
H670 H 0.44316 0.39004 0.05467 0.0
H671 H 0.4712 0.43446 1.00639 0.0
C672 C 0.25347 0.19279 0.62119 0.0
C673 C 0.24065 0.22336 0.65869 0.0
H674 H 0.27633 0.17237 0.67341 0.0
C675 C 0.24159 0.25822 0.783 0.0
H676 H 0.25309 0.16453 0.52705 0.0
C677 C 0.25495 0.26249 0.86705 0.0
C678 C 0.26775 0.23198 0.82934 0.0
H679 H 0.23215 0.28323 0.81487 0.0
H680 H 0.25531 0.29029 0.96167 0.0
C681 C 0.26686 0.1973 0.70505 0.0
C682 C 0.75723 0.26937 0.9035 0.0
C683 C 0.74188 0.27359 0.85356 0.0
H684 H 0.78288 0.27697 0.87922 0.0
C685 C 0.74083 0.27956 0.7256 0.0
H686 H 0.75862 0.26197 0.99956 0.0
C687 C 0.75483 0.28443 0.65264 0.0
C688 C 0.77049 0.28546 0.70611 0.0
H689 H 0.72933 0.28262 0.6822 0.0
H690 H 0.75328 0.28853 0.55456 0.0
C691 C 0.7713 0.27645 0.83231 0.0
C692 C 0.27188 0.77735 0.34317 0.0
C693 C 0.27057 0.78274 0.21491 0.0
H694 H 0.25981 0.76643 0.51445 0.0
C695 C 0.25471 0.77985 0.16284 0.0
H696 H 0.28365 0.77957 0.38912 0.0
C697 C 0.24096 0.77623 0.2383 0.0
C698 C 0.24244 0.77321 0.36773 0.0
H699 H 0.25279 0.78128 0.06366 0.0
H700 H 0.22931 0.77767 0.1951 0.0
C701 C 0.25805 0.7714 0.41713 0.0
C702 C 0.74356 0.77487 0.33501 0.0
C703 C 0.74247 0.74217 0.20879 0.0
H704 H 0.7574 0.80281 0.51356 0.0
C705 C 0.75506 0.711 0.16767 0.0
H706 H 0.73428 0.80016 0.36974 0.0
C707 C 0.76841 0.71301 0.24974 0.0
C708 C 0.76949 0.74566 0.37579 0.0
H709 H 0.75453 0.68424 0.07195 0.0
H710 H 0.77771 0.68776 0.2152 0.0
C711 C 0.75689 0.7766 0.41733 0.0
C712 C 0.14206 0.95075 0.44558 0.0
C713 C 0.12865 0.91404 0.49489 0.0
H714 H 0.1524 0.03865 0.39404 0.0
C715 C 0.11463 0.93773 0.52483 0.0
H716 H 0.15266 0.93228 0.41587 0.0
C717 C 0.11435 -0.00149 0.51145 0.0
C718 C 0.12798 0.03626 0.46541 0.0
H719 H 0.10405 0.90978 0.56144 0.0
H720 H 0.10359 0.01619 0.54019 0.0
C721 C 0.14176 0.0113 0.43096 0.0
C722 C 0.87559 0.49338 0.66259 0.0
C723 C 0.88703 0.46342 0.59686 0.0
H724 H 0.86567 0.57448 0.70104 0.0
C725 C 0.89822 0.49646 0.52193 0.0
H726 H 0.86686 0.46959 0.72169 0.0
C727 C 0.89743 0.55723 0.5087 0.0
C728 C 0.8854 0.58575 0.56983 0.0
H729 H 0.90711 0.47444 0.46914 0.0
H730 H 0.90586 0.58094 0.44764 0.0
C731 C 0.87481 0.55356 0.64939 0.0
C732 C 0.86386 0.97822 0.61159 0.0
C733 C 0.87481 0.94839 0.5385 0.0
H734 H 0.85528 0.06289 0.66567 0.0
C735 C 0.88445 0.98018 0.4534 0.0
H736 H 0.85617 0.95481 0.67715 0.0
C737 C 0.88409 0.04163 0.44771 0.0
C738 C 0.87376 0.07261 0.52476 0.0
H739 H 0.89264 0.95814 0.39241 0.0
H740 H 0.89217 0.06534 0.38461 0.0
C741 C 0.8633 0.03989 0.60444 0.0
C742 C 0.11994 0.50406 0.55529 0.0
C743 C 0.13154 0.5398 0.48827 0.0
H744 H 0.11177 0.41736 0.61755 0.0
C745 C 0.14449 0.51481 0.43423 0.0
H746 H 0.11026 0.52323 0.60266 0.0
C747 C 0.14548 0.45416 0.44365 0.0
C748 C 0.13372 0.41799 0.50951 0.0
H749 H 0.15369 0.54179 0.3833 0.0
H750 H 0.15534 0.43552 0.39783 0.0
C751 C 0.12098 0.44374 0.56572 0.0
C752 C 0.63937 0.53335 0.08806 0.0
C753 C 0.62849 0.54895 1.00564 0.0
H754 H 0.64687 0.46071 0.16117 0.0
C755 C 0.61661 0.50125 0.93066 0.0
H756 H 0.64835 0.56954 0.14951 0.0
C757 C 0.61613 0.43851 0.93396 0.0
C758 C 0.62733 0.42268 1.01435 0.0
H759 H 0.608 0.5124 0.86721 0.0
H760 H 0.60717 0.40257 0.87216 0.0
C761 C 0.63857 0.47098 0.09424 0.0
C762 C 0.39666 0.98766 1.00406 0.0
C763 C 0.38532 0.95526 0.07896 0.0
H764 H 0.40418 0.07044 0.92414 0.0
C765 C 0.37334 0.98457 0.13789 0.0
H766 H 0.40596 0.96605 0.95625 0.0
C767 C 0.37222 0.04346 0.11829 0.0
C768 C 0.38304 0.07502 0.03915 0.0
H769 H 0.36446 0.96122 0.19658 0.0
H770 H 0.36269 0.06392 0.16504 0.0
C771 C 0.39555 0.04715 0.98453 0.0
C772 C 0.38422 0.47331 0.93235 0.0
C773 C 0.37416 0.43954 1.01245 0.0
H774 H 0.39252 0.56085 0.87353 0.0
C775 C 0.36322 0.46853 0.08741 0.0
H776 H 0.39241 0.45196 0.87006 0.0
C777 C 0.36299 0.53107 0.08667 0.0
C778 C 0.37378 0.56557 1.01173 0.0
H779 H 0.35523 0.44362 0.14929 0.0
H780 H 0.35488 0.55314 0.14876 0.0
C781 C 0.38419 0.53571 0.93325 0.0
C782 C 0.64567 0.02535 0.95014 0.0
C783 C 0.63238 0.05072 0.99488 0.0
H784 H 0.65679 0.94691 0.92913 0.0
C785 C 0.62049 0.01706 0.06324 0.0
H786 H 0.65508 0.05083 0.8983 0.0
C787 C 0.6216 0.95813 0.08386 0.0
C788 C 0.63469 0.93176 0.03646 0.0
H789 H 0.61053 0.03688 0.1036 0.0
H790 H 0.61216 0.93319 0.13619 0.0
C791 C 0.64671 0.9661 0.9693 0.0
C792 C 0.12275 0.17047 1.01033 0.0
C793 C 0.12909 0.21689 0.11967 0.0
H794 H 0.12034 0.14314 0.80458 0.0
C795 C 0.13769 0.27512 0.09455 0.0
H796 H 0.11585 0.12507 1.02292 0.0
C797 C 0.14017 0.2856 0.96778 0.0
C798 C 0.13389 0.23917 0.85842 0.0
H799 H 0.14249 0.3131 0.17325 0.0
H800 H 0.14709 0.331 0.95533 0.0
C801 C 0.12519 0.18101 0.8834 0.0
C802 C 0.88719 0.32691 0.13938 0.0
C803 C 0.88266 0.27567 0.20293 0.0
H804 H 0.8881 0.36143 0.96273 0.0
C805 C 0.87604 0.21699 0.12479 0.0
H806 H 0.89263 0.37287 0.19426 0.0
C807 C 0.87354 0.21047 0.99081 0.0
C808 C 0.87814 0.26162 0.92714 0.0
H809 H 0.87284 0.17579 0.16709 0.0
H810 H 0.8681 0.1645 0.93598 0.0
C811 C 0.88478 0.32033 1.00523 0.0
C812 C 0.13488 0.78773 0.08141 0.0
C813 C 0.13197 0.73661 0.14647 0.0
H814 H 0.13455 0.82076 0.90348 0.0
C815 C 0.12683 0.67672 0.06878 0.0
H816 H 0.13904 0.83479 0.13563 0.0
C817 C 0.12451 0.66874 0.93393 0.0
C818 C 0.12763 0.71982 0.86866 0.0
H819 H 0.12469 0.63573 0.11203 0.0
H820 H 0.12033 0.62169 0.87969 0.0
C821 C 0.1325 0.77973 0.94662 0.0
C822 C 0.88663 0.82773 0.03072 0.0
C823 C 0.88253 0.78 0.92009 0.0
H824 H 0.88736 0.85441 0.23611 0.0
C825 C 0.87652 0.71887 0.94331 0.0
H826 H 0.89144 0.87553 1.01992 0.0
C827 C 0.8744 0.70661 0.06936 0.0
C828 C 0.87848 0.75437 0.18001 0.0
H829 H 0.87346 0.68003 0.86373 0.0
H830 H 0.8695 0.65887 0.0802 0.0
C831 C 0.88447 0.81547 0.1567 0.0
C832 C 0.64086 0.8017 0.5084 0.0
C833 C 0.63526 0.75448 0.39883 0.0
H834 H 0.64261 0.82949 0.714 0.0
C835 C 0.62744 0.69519 0.42367 0.0
H836 H 0.64712 0.84798 0.49614 0.0
C837 C 0.62497 0.68444 0.55042 0.0
C838 C 0.63053 0.73171 0.65997 0.0
H839 H 0.6232 0.65668 0.34478 0.0
H840 H 0.61864 0.63824 0.56273 0.0
C841 C 0.6384 0.79093 0.63513 0.0
C842 C 0.3863 0.81984 0.63332 0.0
C843 C 0.38183 0.76869 0.69718 0.0
H844 H 0.38717 0.8541 0.45643 0.0
C845 C 0.37529 0.70987 0.6193 0.0
H846 H 0.39168 0.86591 0.68802 0.0
C847 C 0.37285 0.70312 0.4852 0.0
C848 C 0.37739 0.75419 0.42122 0.0
H849 H 0.37211 0.66876 0.66189 0.0
H850 H 0.36748 0.65703 0.43054 0.0
C851 C 0.38391 0.81305 0.49912 0.0
C852 C 0.63277 0.2854 0.41745 0.0
C853 C 0.62749 0.22537 0.34061 0.0
H854 H 0.63953 0.34101 0.60563 0.0
C855 C 0.62445 0.17458 0.40664 0.0
H856 H 0.63495 0.32618 0.37351 0.0
C857 C 0.6269 0.18305 0.54154 0.0
C858 C 0.63214 0.24313 0.61841 0.0
H859 H 0.62012 0.12745 0.35314 0.0
H860 H 0.6247 0.14229 0.58551 0.0
C861 C 0.63523 0.29386 0.55223 0.0
C862 C 0.38511 0.31641 0.49388 0.0
C863 C 0.38061 0.26886 0.38331 0.0
H864 H 0.38621 0.34312 0.69942 0.0
C865 C 0.37416 0.20804 0.40656 0.0
H866 H 0.39028 0.36395 0.48297 0.0
C867 C 0.37204 0.19591 0.53265 0.0
C868 C 0.37654 0.24346 0.64324 0.0
H869 H 0.37078 0.16933 0.327 0.0
H870 H 0.36681 0.14841 0.54356 0.0
C871 C 0.38296 0.3043 0.61995 0.0
C872 C 0.00857 0.23116 0.32007 0.0
C873 C 0.02231 0.2346 0.40114 0.0
H874 H 0.98259 0.22559 0.30258 0.0
C875 C 0.02043 0.24591 0.53297 0.0
H876 H 0.00961 0.22405 0.21801 0.0
C877 C 1.00494 0.24811 0.58159 0.0
C878 C 0.99087 0.23855 0.4998 0.0
H879 H 0.03067 0.24902 0.59858 0.0
H880 H 1.00384 0.25414 0.68352 0.0
C881 C 0.99305 0.23288 0.36865 0.0
C882 C 0.00841 0.82748 0.67429 0.0
C883 C 0.99319 0.78814 0.62427 0.0
H884 H 0.03385 0.8352 0.72381 0.0
C885 C 0.9922 0.72341 0.59118 0.0
H886 H 0.00963 0.87734 0.70497 0.0
C887 C 0.00618 0.69914 0.60475 0.0
C888 C 0.02146 0.73911 0.6503 0.0
H889 H 0.98078 0.69168 0.55185 0.0
H890 H 1.00513 0.64921 0.57703 0.0
C891 C 0.02236 0.80343 0.68562 0.0
C892 C 0.50946 0.73993 0.8413 0.0
C893 C 0.52273 0.74136 0.92522 0.0
H894 H 0.48351 0.73293 0.81602 0.0
C895 C 0.52 0.74749 0.05566 0.0
H896 H 0.51118 0.73658 0.7404 0.0
C897 C 0.50412 0.74646 0.09932 0.0
C898 C 0.49055 0.73895 1.0137 0.0
H899 H 0.52987 0.74886 0.12321 0.0
H900 H 0.50233 0.7483 0.19981 0.0
C901 C 0.49358 0.73858 0.88485 0.0
C902 C 0.49263 0.2372 0.16617 0.0
C903 C 0.48988 0.2595 0.05566 0.0
H904 H 0.50917 0.20334 0.2743 0.0
C905 C 0.50164 0.25902 0.96213 0.0
H906 H 0.48394 0.23808 0.24083 0.0
C907 C 0.51609 0.23877 0.98052 0.0
C908 C 0.51925 0.21894 0.09358 0.0
H909 H 0.49983 0.27582 0.8757 0.0
H910 H 0.52484 0.23918 0.9063 0.0
C911 C 0.50717 0.2175 0.18526 0.0
loop_
_geom_bond_atom_site_label_1
_geom_bond_atom_site_label_2
_geom_bond_distance
_geom_bond_site_symmetry_2
_ccdc_geom_bond_type
Eu0 N31 2.657 . S
Eu0 N38 2.609 . S
Eu0 O44 2.558 . S
Eu0 O45 2.612 . S
Eu0 O47 2.339 . S
Eu0 O48 2.563 . S
Eu0 O49 2.419 . S
Eu0 O51 2.380 . S
Eu0 O52 2.432 . S
Eu0 C64 2.848 . S
C1 C4 1.429 . S
C1 C5 1.411 . S
C1 N8 1.377 . S
C2 C4 1.420 . S
C2 C6 1.423 1_554 S
C2 C14 1.392 1_554 S
C3 C5 1.420 . S
C3 C6 1.351 1_554 S
C3 H26 0.931 1_554 S
C4 C1 1.429 . S
C4 C2 1.420 . S
C4 N12 1.362 . S
C5 C1 1.411 . S
C5 C3 1.420 . S
C5 C10 1.395 . S
C6 C2 1.423 1_556 S
C6 C3 1.351 1_556 S
C6 H18 0.930 . S
C7 C9 1.400 . S
C7 C10 1.386 . S
C7 H19 0.930 . S
N8 C1 1.377 . S
N8 C9 1.321 . S
N8 Eu11 2.609 . S
C9 C7 1.400 . S
C9 N8 1.321 . S
C9 H16 0.930 . S
C10 C5 1.395 . S
C10 C7 1.386 . S
C10 H29 0.930 . S
Eu11 N8 2.609 . S
Eu11 N12 2.657 . S
Eu11 O45 2.380 . S
Eu11 O46 2.432 . S
Eu11 O50 2.558 . S
Eu11 O51 2.612 . S
Eu11 O53 2.339 . S
Eu11 O54 2.563 . S
Eu11 O55 2.419 . S
Eu11 C75 2.848 . S
N12 C4 1.362 . S
N12 Eu11 2.657 . S
N12 C13 1.334 . S
C13 N12 1.334 . S
C13 C15 1.413 . S
C13 H20 0.929 . S
C14 C2 1.392 1_556 S
C14 C15 1.367 1_556 S
C14 H22 0.930 . S
C15 C13 1.413 . S
C15 C14 1.367 1_554 S
C15 H17 0.930 . S
H16 C9 0.930 . S
H17 C15 0.930 . S
H18 C6 0.930 . S
H19 C7 0.930 . S
H20 C13 0.929 . S
H21 C35 0.930 . S
H22 C14 0.930 . S
H23 C41 0.930 . S
H24 C32 0.929 . S
H25 C39 0.930 . S
H26 C3 0.931 1_556 S
H27 C33 0.930 1_554 S
H28 C66 0.930 1_554 S
H29 C10 0.930 . S
H30 C65 0.931 . S
N31 Eu0 2.657 . S
N31 C32 1.334 . S
N31 C36 1.362 . S
C32 H24 0.929 . S
C32 N31 1.334 . S
C32 C35 1.413 . S
C33 H27 0.930 1_556 S
C33 C34 1.392 . S
C33 C35 1.367 . S
C34 C33 1.392 . S
C34 C36 1.420 . S
C34 C66 1.423 . S
C35 H21 0.930 . S
C35 C32 1.413 . S
C35 C33 1.367 . S
C36 N31 1.362 . S
C36 C34 1.420 . S
C36 C40 1.429 . S
H37 C42 0.930 . S
N38 Eu0 2.609 . S
N38 C40 1.377 . S
N38 C41 1.321 . S
C39 H25 0.930 . S
C39 C41 1.400 . S
C39 C42 1.386 . S
C40 C36 1.429 . S
C40 N38 1.377 . S
C40 C43 1.411 . S
C41 H23 0.930 . S
C41 N38 1.321 . S
C41 C39 1.400 . S
C42 H37 0.930 . S
C42 C39 1.386 . S
C42 C43 1.395 . S
C43 C40 1.411 . S
C43 C42 1.395 . S
C43 C65 1.420 . S
O44 Eu0 2.558 . S
O44 C64 1.257 . S
O45 Eu0 2.612 . S
O45 Eu11 2.380 . S
O45 C56 1.276 . S
O46 Eu11 2.432 . S
O46 C63 1.264 . S
O47 Eu0 2.339 . S
O47 C63 1.254 . S
O48 Eu0 2.563 . S
O48 C56 1.235 . S
O49 Eu0 2.419 . S
O49 C64 1.249 . S
O50 Eu11 2.558 . S
O50 C75 1.257 . S
O51 Eu0 2.380 . S
O51 Eu11 2.612 . S
O51 C67 1.276 . S
O52 Eu0 2.432 . S
O52 C74 1.264 . S
O53 Eu11 2.339 . S
O53 C74 1.254 . S
O54 Eu11 2.563 . S
O54 C67 1.235 . S
O55 Eu11 2.419 . S
O55 C75 1.249 . S
C56 O45 1.276 . S
C56 O48 1.235 . S
C57 C59 1.393 . S
C57 C61 1.395 . S
C57 C64 1.492 . S
C58 C59 1.392 . S
C58 C60 1.386 . S
C59 C57 1.393 . S
C59 C58 1.392 . S
C59 H76 0.930 . S
C60 C58 1.386 . S
C60 C62 1.395 . S
C60 H77 0.930 . S
C61 C57 1.395 . S
C61 C62 1.379 . S
C61 H78 0.930 . S
C62 C60 1.395 . S
C62 C61 1.379 . S
C62 H79 0.930 . S
C63 O46 1.264 . S
C63 O47 1.254 . S
C64 Eu0 2.848 . S
C64 O44 1.257 . S
C64 O49 1.249 . S
C64 C57 1.492 . S
C65 H30 0.931 . S
C65 C43 1.420 . S
C65 C66 1.351 . S
C66 H28 0.930 1_556 S
C66 C34 1.423 . S
C66 C65 1.351 . S
C67 O51 1.276 . S
C67 O54 1.235 . S
C68 C69 1.393 . S
C68 C72 1.395 . S
C68 C75 1.492 . S
C69 C68 1.393 . S
C69 C70 1.392 . S
C69 H80 0.930 . S
C70 C69 1.392 . S
C70 C71 1.386 . S
C71 C70 1.386 . S
C71 C73 1.395 . S
C71 H81 0.930 . S
C72 C68 1.395 . S
C72 C73 1.379 . S
C72 H82 0.930 . S
C73 C71 1.395 . S
C73 C72 1.379 . S
C73 H83 0.930 . S
C74 O52 1.264 . S
C74 O53 1.254 . S
C75 Eu11 2.848 . S
C75 O50 1.257 . S
C75 O55 1.249 . S
C75 C68 1.492 . S
H76 C59 0.930 . S
H77 C60 0.930 . S
H78 C61 0.930 . S
H79 C62 0.930 . S
H80 C69 0.930 . S
H81 C71 0.930 . S
H82 C72 0.930 . S
H83 C73 0.930 . S
Eu84 N115 2.657 . S
Eu84 N122 2.609 . S
Eu84 O128 2.558 . S
Eu84 O129 2.612 . S
Eu84 O131 2.339 . S
Eu84 O132 2.563 . S
Eu84 O133 2.419 . S
Eu84 O135 2.380 . S
Eu84 O136 2.432 . S
Eu84 C148 2.848 . S
C85 C88 1.429 . S
C85 C89 1.411 . S
C85 N92 1.377 . S
C86 C88 1.420 . S
C86 C90 1.423 . S
C86 C98 1.392 . S
C87 C89 1.420 . S
C87 C90 1.351 . S
C87 H110 0.931 . S
C88 C85 1.429 . S
C88 C86 1.420 . S
C88 N96 1.362 . S
C89 C85 1.411 . S
C89 C87 1.420 . S
C89 C94 1.395 . S
C90 C86 1.423 . S
C90 C87 1.351 . S
C90 H102 0.930 1_556 S
C91 C93 1.400 . S
C91 C94 1.386 . S
C91 H103 0.930 . S
N92 C85 1.377 . S
N92 C93 1.321 . S
N92 Eu95 2.609 . S
C93 C91 1.400 . S
C93 N92 1.321 . S
C93 H100 0.930 . S
C94 C89 1.395 . S
C94 C91 1.386 . S
C94 H113 0.930 . S
Eu95 N92 2.609 . S
Eu95 N96 2.657 . S
Eu95 O129 2.380 . S
Eu95 O130 2.432 . S
Eu95 O134 2.558 . S
Eu95 O135 2.612 . S
Eu95 O137 2.339 . S
Eu95 O138 2.563 . S
Eu95 O139 2.419 . S
Eu95 C159 2.848 . S
N96 C88 1.362 . S
N96 Eu95 2.657 . S
N96 C97 1.334 . S
C97 N96 1.334 . S
C97 C99 1.413 . S
C97 H104 0.929 . S
C98 C86 1.392 . S
C98 C99 1.367 . S
C98 H106 0.930 . S
C99 C97 1.413 . S
C99 C98 1.367 . S
C99 H101 0.930 . S
H100 C93 0.930 . S
H101 C99 0.930 . S
H102 C90 0.930 1_554 S
H103 C91 0.930 . S
H104 C97 0.929 . S
H105 C119 0.930 . S
H106 C98 0.930 . S
H107 C125 0.930 . S
H108 C116 0.929 . S
H109 C123 0.930 . S
H110 C87 0.931 . S
H111 C117 0.930 . S
H112 C150 0.930 . S
H113 C94 0.930 . S
H114 C149 0.931 . S
N115 Eu84 2.657 . S
N115 C116 1.334 . S
N115 C120 1.362 . S
C116 H108 0.929 . S
C116 N115 1.334 . S
C116 C119 1.413 . S
C117 H111 0.930 . S
C117 C118 1.393 . S
C117 C119 1.367 1_556 S
C118 C117 1.393 . S
C118 C120 1.414 1_556 S
C118 C150 1.427 . S
C119 H105 0.930 . S
C119 C116 1.413 . S
C119 C117 1.367 1_554 S
C120 N115 1.362 . S
C120 C118 1.414 1_554 S
C120 C124 1.429 . S
H121 C126 0.930 . S
N122 Eu84 2.609 . S
N122 C124 1.377 . S
N122 C125 1.321 . S
C123 H109 0.930 . S
C123 C125 1.400 . S
C123 C126 1.386 . S
C124 C120 1.429 . S
C124 N122 1.377 . S
C124 C127 1.411 . S
C125 H107 0.930 . S
C125 N122 1.321 . S
C125 C123 1.400 . S
C126 H121 0.930 . S
C126 C123 1.386 . S
C126 C127 1.395 . S
C127 C124 1.411 . S
C127 C126 1.395 . S
C127 C149 1.420 1_554 S
O128 Eu84 2.558 . S
O128 C148 1.257 . S
O129 Eu84 2.612 . S
O129 Eu95 2.380 . S
O129 C140 1.276 . S
O130 Eu95 2.432 . S
O130 C147 1.264 . S
O131 Eu84 2.339 . S
O131 C147 1.254 . S
O132 Eu84 2.563 . S
O132 C140 1.235 . S
O133 Eu84 2.419 . S
O133 C148 1.249 . S
O134 Eu95 2.558 . S
O134 C159 1.257 . S
O135 Eu84 2.380 . S
O135 Eu95 2.612 . S
O135 C151 1.276 . S
O136 Eu84 2.432 . S
O136 C158 1.264 . S
O137 Eu95 2.339 . S
O137 C158 1.254 . S
O138 Eu95 2.563 . S
O138 C151 1.235 . S
O139 Eu95 2.419 . S
O139 C159 1.249 . S
C140 O129 1.276 . S
C140 O132 1.235 . S
C141 C143 1.393 . S
C141 C145 1.395 . S
C141 C148 1.492 . S
C142 C143 1.392 . S
C142 C144 1.386 . S
C143 C141 1.393 . S
C143 C142 1.392 . S
C143 H160 0.930 . S
C144 C142 1.386 . S
C144 C146 1.395 . S
C144 H161 0.930 . S
C145 C141 1.395 . S
C145 C146 1.379 . S
C145 H162 0.930 . S
C146 C144 1.395 . S
C146 C145 1.379 . S
C146 H163 0.930 . S
C147 O130 1.264 . S
C147 O131 1.254 . S
C148 Eu84 2.848 . S
C148 O128 1.257 . S
C148 O133 1.249 . S
C148 C141 1.492 . S
C149 H114 0.931 . S
C149 C127 1.420 1_556 S
C149 C150 1.351 . S
C150 H112 0.930 . S
C150 C118 1.427 . S
C150 C149 1.351 . S
C151 O135 1.276 . S
C151 O138 1.235 . S
C152 C153 1.393 . S
C152 C156 1.395 . S
C152 C159 1.492 . S
C153 C152 1.393 . S
C153 C154 1.392 . S
C153 H164 0.930 . S
C154 C153 1.392 . S
C154 C155 1.386 . S
C155 C154 1.386 . S
C155 C157 1.395 . S
C155 H165 0.930 . S
C156 C152 1.395 . S
C156 C157 1.379 . S
C156 H166 0.930 . S
C157 C155 1.395 . S
C157 C156 1.379 . S
C157 H167 0.930 . S
C158 O136 1.264 . S
C158 O137 1.254 . S
C159 Eu95 2.848 . S
C159 O134 1.257 . S
C159 O139 1.249 . S
C159 C152 1.492 . S
H160 C143 0.930 . S
H161 C144 0.930 . S
H162 C145 0.930 . S
H163 C146 0.930 . S
H164 C153 0.930 . S
H165 C155 0.930 . S
H166 C156 0.930 . S
H167 C157 0.930 . S
Eu168 N199 2.657 . S
Eu168 N206 2.609 . S
Eu168 O212 2.558 . S
Eu168 O213 2.612 . S
Eu168 O215 2.339 . S
Eu168 O216 2.563 . S
Eu168 O217 2.419 . S
Eu168 O219 2.380 . S
Eu168 O220 2.432 . S
Eu168 C232 2.848 . S
C169 C172 1.429 . S
C169 C173 1.411 . S
C169 N176 1.377 . S
C170 C172 1.420 . S
C170 C174 1.423 . S
C170 C182 1.392 . S
C171 C173 1.420 . S
C171 C174 1.351 . S
C171 H194 0.931 1_554 S
C172 C169 1.429 . S
C172 C170 1.420 . S
C172 N180 1.362 . S
C173 C169 1.411 . S
C173 C171 1.420 . S
C173 C178 1.395 . S
C174 C170 1.423 . S
C174 C171 1.351 . S
C174 H186 0.930 1_554 S
C175 C177 1.400 . S
C175 C178 1.386 . S
C175 H187 0.930 . S
N176 C169 1.377 . S
N176 C177 1.321 . S
N176 Eu179 2.609 . S
C177 C175 1.400 . S
C177 N176 1.321 . S
C177 H184 0.930 . S
C178 C173 1.395 . S
C178 C175 1.386 . S
C178 H197 0.930 . S
Eu179 N176 2.609 . S
Eu179 N180 2.657 . S
Eu179 O213 2.380 . S
Eu179 O214 2.432 . S
Eu179 O218 2.558 . S
Eu179 O219 2.612 . S
Eu179 O221 2.339 . S
Eu179 O222 2.563 . S
Eu179 O223 2.419 . S
Eu179 C243 2.848 . S
N180 C172 1.362 . S
N180 Eu179 2.657 . S
N180 C181 1.334 . S
C181 N180 1.334 . S
C181 C183 1.413 . S
C181 H188 0.929 . S
C182 C170 1.392 . S
C182 C183 1.367 . S
C182 H190 0.930 . S
C183 C181 1.413 . S
C183 C182 1.367 . S
C183 H185 0.930 . S
H184 C177 0.930 . S
H185 C183 0.930 . S
H186 C174 0.930 1_556 S
H187 C175 0.930 . S
H188 C181 0.929 . S
H189 C203 0.930 . S
H190 C182 0.930 . S
H191 C209 0.930 . S
H192 C200 0.929 . S
H193 C207 0.930 . S
H194 C171 0.931 1_556 S
H195 C201 0.930 . S
H196 C234 0.930 . S
H197 C178 0.930 . S
H198 C233 0.931 . S
N199 Eu168 2.657 . S
N199 C200 1.334 . S
N199 C204 1.362 . S
C200 H192 0.929 . S
C200 N199 1.334 . S
C200 C203 1.413 . S
C201 H195 0.930 . S
C201 C202 1.392 1_554 S
C201 C203 1.367 1_554 S
C202 C201 1.392 1_556 S
C202 C204 1.420 . S
C202 C234 1.423 1_556 S
C203 H189 0.930 . S
C203 C200 1.413 . S
C203 C201 1.367 1_556 S
C204 N199 1.362 . S
C204 C202 1.420 . S
C204 C208 1.429 . S
H205 C210 0.930 . S
N206 Eu168 2.609 . S
N206 C208 1.377 . S
N206 C209 1.321 . S
C207 H193 0.930 . S
C207 C209 1.400 . S
C207 C210 1.386 . S
C208 C204 1.429 . S
C208 N206 1.377 . S
C208 C211 1.411 . S
C209 H191 0.930 . S
C209 N206 1.321 . S
C209 C207 1.400 . S
C210 H205 0.930 . S
C210 C207 1.386 . S
C210 C211 1.395 . S
C211 C208 1.411 . S
C211 C210 1.395 . S
C211 C233 1.420 1_556 S
O212 Eu168 2.558 . S
O212 C232 1.257 . S
O213 Eu168 2.612 . S
O213 Eu179 2.380 . S
O213 C224 1.276 . S
O214 Eu179 2.432 . S
O214 C231 1.264 . S
O215 Eu168 2.339 . S
O215 C231 1.254 . S
O216 Eu168 2.563 . S
O216 C224 1.235 . S
O217 Eu168 2.419 . S
O217 C232 1.249 . S
O218 Eu179 2.558 . S
O218 C243 1.257 . S
O219 Eu168 2.380 . S
O219 Eu179 2.612 . S
O219 C235 1.276 . S
O220 Eu168 2.432 . S
O220 C242 1.264 . S
O221 Eu179 2.339 . S
O221 C242 1.254 . S
O222 Eu179 2.563 . S
O222 C235 1.235 . S
O223 Eu179 2.419 . S
O223 C243 1.249 . S
C224 O213 1.276 . S
C224 O216 1.235 . S
C225 C227 1.393 . S
C225 C229 1.395 . S
C225 C232 1.492 . S
C226 C227 1.392 . S
C226 C228 1.386 . S
C227 C225 1.393 . S
C227 C226 1.392 . S
C227 H244 0.930 . S
C228 C226 1.386 . S
C228 C230 1.395 . S
C228 H245 0.930 . S
C229 C225 1.395 . S
C229 C230 1.379 . S
C229 H246 0.930 . S
C230 C228 1.395 . S
C230 C229 1.379 . S
C230 H247 0.930 . S
C231 O214 1.264 . S
C231 O215 1.254 . S
C232 Eu168 2.848 . S
C232 O212 1.257 . S
C232 O217 1.249 . S
C232 C225 1.492 . S
C233 H198 0.931 . S
C233 C211 1.420 1_554 S
C233 C234 1.351 . S
C234 H196 0.930 . S
C234 C202 1.423 1_554 S
C234 C233 1.351 . S
C235 O219 1.276 . S
C235 O222 1.235 . S
C236 C237 1.393 . S
C236 C240 1.395 . S
C236 C243 1.492 . S
C237 C236 1.393 . S
C237 C238 1.392 . S
C237 H248 0.930 . S
C238 C237 1.392 . S
C238 C239 1.386 . S
C239 C238 1.386 . S
C239 C241 1.395 . S
C239 H249 0.930 . S
C240 C236 1.395 . S
C240 C241 1.379 . S
C240 H250 0.930 . S
C241 C239 1.395 . S
C241 C240 1.379 . S
C241 H251 0.930 . S
C242 O220 1.264 . S
C242 O221 1.254 . S
C243 Eu179 2.848 . S
C243 O218 1.257 . S
C243 O223 1.249 . S
C243 C236 1.492 . S
H244 C227 0.930 . S
H245 C228 0.930 . S
H246 C229 0.930 . S
H247 C230 0.930 . S
H248 C237 0.930 . S
H249 C239 0.930 . S
H250 C240 0.930 . S
H251 C241 0.930 . S
Eu252 N283 2.657 . S
Eu252 N290 2.609 . S
Eu252 O296 2.558 . S
Eu252 O297 2.612 . S
Eu252 O299 2.339 . S
Eu252 O300 2.563 . S
Eu252 O301 2.419 . S
Eu252 O303 2.380 . S
Eu252 O304 2.432 . S
Eu252 C316 2.848 . S
C253 C256 1.429 . S
C253 C257 1.411 . S
C253 N260 1.377 . S
C254 C256 1.420 . S
C254 C258 1.423 . S
C254 C266 1.392 . S
C255 C257 1.420 . S
C255 C258 1.351 . S
C255 H278 0.931 . S
C256 C253 1.429 . S
C256 C254 1.420 . S
C256 N264 1.362 . S
C257 C253 1.411 . S
C257 C255 1.420 . S
C257 C262 1.395 . S
C258 C254 1.423 . S
C258 C255 1.351 . S
C258 H270 0.930 1_554 S
C259 C261 1.400 . S
C259 C262 1.386 . S
C259 H271 0.930 1_565 S
N260 C253 1.377 . S
N260 C261 1.321 . S
N260 Eu263 2.609 . S
C261 C259 1.400 . S
C261 N260 1.321 . S
C261 H268 0.930 . S
C262 C257 1.395 . S
C262 C259 1.386 . S
C262 H281 0.930 . S
Eu263 N260 2.609 . S
Eu263 N264 2.657 . S
Eu263 O297 2.380 . S
Eu263 O298 2.432 . S
Eu263 O302 2.558 . S
Eu263 O303 2.612 . S
Eu263 O305 2.339 . S
Eu263 O306 2.563 . S
Eu263 O307 2.419 . S
Eu263 C327 2.848 . S
N264 C256 1.362 . S
N264 Eu263 2.657 . S
N264 C265 1.334 . S
C265 N264 1.334 . S
C265 C267 1.413 . S
C265 H272 0.929 . S
C266 C254 1.392 . S
C266 C267 1.367 . S
C266 H274 0.930 . S
C267 C265 1.413 . S
C267 C266 1.367 . S
C267 H269 0.930 . S
H268 C261 0.930 . S
H269 C267 0.930 . S
H270 C258 0.930 1_556 S
H271 C259 0.930 1_545 S
H272 C265 0.929 . S
H273 C287 0.929 1_554 S
H274 C266 0.930 . S
H275 C293 0.930 . S
H276 C284 0.929 . S
H277 C291 0.930 . S
H278 C255 0.931 . S
H279 C285 0.930 . S
H280 C318 0.930 . S
H281 C262 0.930 . S
H282 C317 0.931 . S
N283 Eu252 2.657 . S
N283 C284 1.334 . S
N283 C288 1.362 . S
C284 H276 0.929 . S
C284 N283 1.334 . S
C284 C287 1.413 . S
C285 H279 0.930 . S
C285 C286 1.392 1_554 S
C285 C287 1.367 1_554 S
C286 C285 1.392 1_556 S
C286 C288 1.420 . S
C286 C318 1.423 1_556 S
C287 H273 0.929 1_556 S
C287 C284 1.413 . S
C287 C285 1.367 1_556 S
C288 N283 1.362 . S
C288 C286 1.420 . S
C288 C292 1.429 . S
H289 C294 0.930 . S
N290 Eu252 2.609 . S
N290 C292 1.377 . S
N290 C293 1.321 . S
C291 H277 0.930 . S
C291 C293 1.400 . S
C291 C294 1.386 . S
C292 C288 1.429 . S
C292 N290 1.377 . S
C292 C295 1.411 . S
C293 H275 0.930 . S
C293 N290 1.321 . S
C293 C291 1.400 . S
C294 H289 0.930 . S
C294 C291 1.386 . S
C294 C295 1.395 . S
C295 C292 1.411 . S
C295 C294 1.395 . S
C295 C317 1.420 1_556 S
O296 Eu252 2.558 . S
O296 C316 1.257 . S
O297 Eu252 2.612 . S
O297 Eu263 2.380 . S
O297 C308 1.276 . S
O298 Eu263 2.432 . S
O298 C315 1.264 . S
O299 Eu252 2.339 . S
O299 C315 1.254 . S
O300 Eu252 2.563 . S
O300 C308 1.235 . S
O301 Eu252 2.419 . S
O301 C316 1.249 . S
O302 Eu263 2.558 . S
O302 C327 1.257 . S
O303 Eu252 2.380 . S
O303 Eu263 2.612 . S
O303 C319 1.276 . S
O304 Eu252 2.432 . S
O304 C326 1.264 . S
O305 Eu263 2.339 . S
O305 C326 1.254 . S
O306 Eu263 2.563 . S
O306 C319 1.235 . S
O307 Eu263 2.419 . S
O307 C327 1.249 . S
C308 O297 1.276 . S
C308 O300 1.235 . S
C309 C311 1.393 . S
C309 C313 1.395 . S
C309 C316 1.492 . S
C310 C311 1.392 . S
C310 C312 1.386 . S
C311 C309 1.393 . S
C311 C310 1.392 . S
C311 H328 0.930 . S
C312 C310 1.386 . S
C312 C314 1.395 . S
C312 H329 0.930 . S
C313 C309 1.395 . S
C313 C314 1.379 . S
C313 H330 0.930 . S
C314 C312 1.395 . S
C314 C313 1.379 . S
C314 H331 0.930 . S
C315 O298 1.264 . S
C315 O299 1.254 . S
C316 Eu252 2.848 . S
C316 O296 1.257 . S
C316 O301 1.249 . S
C316 C309 1.492 . S
C317 H282 0.931 . S
C317 C295 1.420 1_554 S
C317 C318 1.351 . S
C318 H280 0.930 . S
C318 C286 1.423 1_554 S
C318 C317 1.351 . S
C319 O303 1.276 . S
C319 O306 1.235 . S
C320 C321 1.393 . S
C320 C324 1.395 . S
C320 C327 1.492 . S
C321 C320 1.393 . S
C321 C322 1.392 . S
C321 H332 0.930 . S
C322 C321 1.392 . S
C322 C323 1.386 . S
C323 C322 1.386 . S
C323 C325 1.395 . S
C323 H333 0.930 . S
C324 C320 1.395 . S
C324 C325 1.379 . S
C324 H334 0.930 . S
C325 C323 1.395 . S
C325 C324 1.379 . S
C325 H335 0.930 . S
C326 O304 1.264 . S
C326 O305 1.254 . S
C327 Eu263 2.848 . S
C327 O302 1.257 . S
C327 O307 1.249 . S
C327 C320 1.492 . S
H328 C311 0.930 . S
H329 C312 0.930 . S
H330 C313 0.930 . S
H331 C314 0.930 . S
H332 C321 0.930 . S
H333 C323 0.930 . S
H334 C324 0.930 . S
H335 C325 0.930 . S
Eu336 N367 2.657 . S
Eu336 N374 2.609 . S
Eu336 O380 2.558 1_554 S
Eu336 O381 2.612 1_554 S
Eu336 O383 2.339 . S
Eu336 O384 2.563 1_554 S
Eu336 O385 2.419 1_554 S
Eu336 O387 2.380 . S
Eu336 O388 2.432 1_554 S
Eu336 C400 2.848 1_554 S
C337 C340 1.429 . S
C337 C341 1.411 . S
C337 N344 1.377 . S
C338 C340 1.420 . S
C338 C342 1.423 . S
C338 C350 1.392 . S
C339 C341 1.420 . S
C339 C342 1.351 . S
C339 H362 0.931 . S
C340 C337 1.429 . S
C340 C338 1.420 . S
C340 N348 1.362 . S
C341 C337 1.411 . S
C341 C339 1.420 . S
C341 C346 1.395 . S
C342 C338 1.423 . S
C342 C339 1.351 . S
C342 H354 0.930 . S
C343 C345 1.400 . S
C343 C346 1.386 . S
C343 H355 0.930 1_565 S
N344 C337 1.377 . S
N344 C345 1.321 . S
N344 Eu347 2.609 . S
C345 C343 1.400 . S
C345 N344 1.321 . S
C345 H352 0.930 . S
C346 C341 1.395 . S
C346 C343 1.386 . S
C346 H365 0.930 1_565 S
Eu347 N344 2.609 . S
Eu347 N348 2.657 . S
Eu347 O381 2.380 . S
Eu347 O382 2.432 1_556 S
Eu347 O386 2.558 1_556 S
Eu347 O387 2.612 1_556 S
Eu347 O389 2.339 . S
Eu347 O390 2.563 1_556 S
Eu347 O391 2.419 1_556 S
Eu347 C411 2.848 1_556 S
N348 C340 1.362 . S
N348 Eu347 2.657 . S
N348 C349 1.334 . S
C349 N348 1.334 . S
C349 C351 1.413 . S
C349 H356 0.929 . S
C350 C338 1.392 . S
C350 C351 1.367 . S
C350 H358 0.930 . S
C351 C349 1.413 . S
C351 C350 1.367 . S
C351 H353 0.930 . S
H352 C345 0.930 . S
H353 C351 0.930 . S
H354 C342 0.930 . S
H355 C343 0.930 1_545 S
H356 C349 0.929 . S
H357 C371 0.930 . S
H358 C350 0.930 . S
H359 C377 0.930 . S
H360 C368 0.929 . S
H361 C375 0.930 . S
H362 C339 0.931 . S
H363 C369 0.930 . S
H364 C402 0.930 . S
H365 C346 0.930 1_545 S
H366 C401 0.931 . S
N367 Eu336 2.657 . S
N367 C368 1.334 . S
N367 C372 1.362 . S
C368 H360 0.929 . S
C368 N367 1.334 . S
C368 C371 1.413 . S
C369 H363 0.930 . S
C369 C370 1.392 . S
C369 C371 1.367 . S
C370 C369 1.392 . S
C370 C372 1.420 . S
C370 C402 1.423 . S
C371 H357 0.930 . S
C371 C368 1.413 . S
C371 C369 1.367 . S
C372 N367 1.362 . S
C372 C370 1.420 . S
C372 C376 1.429 . S
H373 C378 0.930 . S
N374 Eu336 2.609 . S
N374 C376 1.377 . S
N374 C377 1.321 . S
C375 H361 0.930 . S
C375 C377 1.400 . S
C375 C378 1.386 . S
C376 C372 1.429 . S
C376 N374 1.377 . S
C376 C379 1.411 . S
C377 H359 0.930 . S
C377 N374 1.321 . S
C377 C375 1.400 . S
C378 H373 0.930 . S
C378 C375 1.386 . S
C378 C379 1.395 . S
C379 C376 1.411 . S
C379 C378 1.395 . S
C379 C401 1.420 . S
O380 Eu336 2.558 1_556 S
O380 C400 1.257 . S
O381 Eu336 2.612 1_556 S
O381 Eu347 2.380 . S
O381 C392 1.276 . S
O382 Eu347 2.432 1_554 S
O382 C399 1.264 . S
O383 Eu336 2.339 . S
O383 C399 1.254 . S
O384 Eu336 2.563 1_556 S
O384 C392 1.235 . S
O385 Eu336 2.419 1_556 S
O385 C400 1.249 . S
O386 Eu347 2.558 1_554 S
O386 C411 1.257 . S
O387 Eu336 2.380 . S
O387 Eu347 2.612 1_554 S
O387 C403 1.276 . S
O388 Eu336 2.432 1_556 S
O388 C410 1.264 . S
O389 Eu347 2.339 . S
O389 C410 1.254 . S
O390 Eu347 2.563 1_554 S
O390 C403 1.235 . S
O391 Eu347 2.419 1_554 S
O391 C411 1.249 . S
C392 O381 1.276 . S
C392 O384 1.235 . S
C393 C395 1.393 . S
C393 C397 1.395 . S
C393 C400 1.492 . S
C394 C395 1.392 . S
C394 C396 1.386 . S
C395 C393 1.393 . S
C395 C394 1.392 . S
C395 H412 0.930 . S
C396 C394 1.386 . S
C396 C398 1.395 . S
C396 H413 0.930 . S
C397 C393 1.395 . S
C397 C398 1.379 . S
C397 H414 0.930 . S
C398 C396 1.395 . S
C398 C397 1.379 . S
C398 H415 0.930 . S
C399 O382 1.264 . S
C399 O383 1.254 . S
C400 Eu336 2.848 1_556 S
C400 O380 1.257 . S
C400 O385 1.249 . S
C400 C393 1.492 . S
C401 H366 0.931 . S
C401 C379 1.420 . S
C401 C402 1.351 . S
C402 H364 0.930 . S
C402 C370 1.423 . S
C402 C401 1.351 . S
C403 O387 1.276 . S
C403 O390 1.235 . S
C404 C405 1.393 . S
C404 C408 1.395 . S
C404 C411 1.492 . S
C405 C404 1.393 . S
C405 C406 1.392 . S
C405 H416 0.930 . S
C406 C405 1.392 . S
C406 C407 1.386 . S
C407 C406 1.386 . S
C407 C409 1.395 . S
C407 H417 0.930 . S
C408 C404 1.395 . S
C408 C409 1.379 . S
C408 H418 0.930 . S
C409 C407 1.395 . S
C409 C408 1.379 . S
C409 H419 0.930 . S
C410 O388 1.264 . S
C410 O389 1.254 . S
C411 Eu347 2.848 1_554 S
C411 O386 1.257 . S
C411 O391 1.249 . S
C411 C404 1.492 . S
H412 C395 0.930 . S
H413 C396 0.930 . S
H414 C397 0.930 . S
H415 C398 0.930 . S
H416 C405 0.930 . S
H417 C407 0.930 . S
H418 C408 0.930 . S
H419 C409 0.930 . S
Eu420 N451 2.657 . S
Eu420 N458 2.609 . S
Eu420 O464 2.558 1_556 S
Eu420 O465 2.612 1_556 S
Eu420 O467 2.339 . S
Eu420 O468 2.563 1_556 S
Eu420 O469 2.419 1_556 S
Eu420 O471 2.380 . S
Eu420 O472 2.432 1_556 S
Eu420 C484 2.848 1_556 S
C421 C424 1.429 . S
C421 C425 1.411 . S
C421 N428 1.377 . S
C422 C424 1.420 . S
C422 C426 1.423 . S
C422 C434 1.392 . S
C423 C425 1.420 . S
C423 C426 1.351 . S
C423 H446 0.931 . S
C424 C421 1.429 . S
C424 C422 1.420 . S
C424 N432 1.362 . S
C425 C421 1.411 . S
C425 C423 1.420 . S
C425 C430 1.395 . S
C426 C422 1.423 . S
C426 C423 1.351 . S
C426 H438 0.930 . S
C427 C429 1.400 . S
C427 C430 1.386 . S
C427 H439 0.930 . S
N428 C421 1.377 . S
N428 C429 1.321 . S
N428 Eu431 2.609 . S
C429 C427 1.400 . S
C429 N428 1.321 . S
C429 H436 0.930 . S
C430 C425 1.395 . S
C430 C427 1.386 . S
C430 H449 0.930 . S
Eu431 N428 2.609 . S
Eu431 N432 2.657 . S
Eu431 O465 2.380 . S
Eu431 O466 2.432 1_554 S
Eu431 O470 2.558 1_554 S
Eu431 O471 2.612 1_554 S
Eu431 O473 2.339 . S
Eu431 O474 2.563 1_554 S
Eu431 O475 2.419 1_554 S
Eu431 C495 2.848 1_554 S
N432 C424 1.362 . S
N432 Eu431 2.657 . S
N432 C433 1.334 . S
C433 N432 1.334 . S
C433 C435 1.413 . S
C433 H440 0.929 . S
C434 C422 1.392 . S
C434 C435 1.367 . S
C434 H442 0.930 . S
C435 C433 1.413 . S
C435 C434 1.367 . S
C435 H437 0.930 . S
H436 C429 0.930 . S
H437 C435 0.930 . S
H438 C426 0.930 . S
H439 C427 0.930 . S
H440 C433 0.929 . S
H441 C455 0.930 . S
H442 C434 0.930 . S
H443 C461 0.930 . S
H444 C452 0.929 . S
H445 C459 0.930 . S
H446 C423 0.931 . S
H447 C453 0.930 . S
H448 C486 0.930 . S
H449 C430 0.930 . S
H450 C485 0.931 . S
N451 Eu420 2.657 . S
N451 C452 1.334 . S
N451 C456 1.362 . S
C452 H444 0.929 . S
C452 N451 1.334 . S
C452 C455 1.413 . S
C453 H447 0.930 . S
C453 C454 1.392 . S
C453 C455 1.367 . S
C454 C453 1.392 . S
C454 C456 1.420 . S
C454 C486 1.423 . S
C455 H441 0.930 . S
C455 C452 1.413 . S
C455 C453 1.367 . S
C456 N451 1.362 . S
C456 C454 1.420 . S
C456 C460 1.429 . S
H457 C462 0.930 . S
N458 Eu420 2.609 . S
N458 C460 1.377 . S
N458 C461 1.321 . S
C459 H445 0.930 . S
C459 C461 1.400 . S
C459 C462 1.386 . S
C460 C456 1.429 . S
C460 N458 1.377 . S
C460 C463 1.411 . S
C461 H443 0.930 . S
C461 N458 1.321 . S
C461 C459 1.400 . S
C462 H457 0.930 . S
C462 C459 1.386 . S
C462 C463 1.395 . S
C463 C460 1.411 . S
C463 C462 1.395 . S
C463 C485 1.420 . S
O464 Eu420 2.558 1_554 S
O464 C484 1.257 . S
O465 Eu420 2.612 1_554 S
O465 Eu431 2.380 . S
O465 C476 1.276 . S
O466 Eu431 2.432 1_556 S
O466 C483 1.264 . S
O467 Eu420 2.339 . S
O467 C483 1.254 . S
O468 Eu420 2.563 1_554 S
O468 C476 1.235 . S
O469 Eu420 2.419 1_554 S
O469 C484 1.249 . S
O470 Eu431 2.558 1_556 S
O470 C495 1.257 . S
O471 Eu420 2.380 . S
O471 Eu431 2.612 1_556 S
O471 C487 1.276 . S
O472 Eu420 2.432 1_554 S
O472 C494 1.264 . S
O473 Eu431 2.339 . S
O473 C494 1.254 . S
O474 Eu431 2.563 1_556 S
O474 C487 1.235 . S
O475 Eu431 2.419 1_556 S
O475 C495 1.249 . S
C476 O465 1.276 . S
C476 O468 1.235 . S
C477 C479 1.393 . S
C477 C481 1.395 . S
C477 C484 1.492 . S
C478 C479 1.392 . S
C478 C480 1.386 . S
C479 C477 1.393 . S
C479 C478 1.392 . S
C479 H496 0.930 . S
C480 C478 1.386 . S
C480 C482 1.395 . S
C480 H497 0.930 . S
C481 C477 1.395 . S
C481 C482 1.379 . S
C481 H498 0.930 . S
C482 C480 1.395 . S
C482 C481 1.379 . S
C482 H499 0.930 . S
C483 O466 1.264 . S
C483 O467 1.254 . S
C484 Eu420 2.848 1_554 S
C484 O464 1.257 . S
C484 O469 1.249 . S
C484 C477 1.492 . S
C485 H450 0.931 . S
C485 C463 1.420 . S
C485 C486 1.351 . S
C486 H448 0.930 . S
C486 C454 1.423 . S
C486 C485 1.351 . S
C487 O471 1.276 . S
C487 O474 1.235 . S
C488 C489 1.393 . S
C488 C492 1.395 . S
C488 C495 1.492 . S
C489 C488 1.393 . S
C489 C490 1.392 . S
C489 H500 0.930 . S
C490 C489 1.392 . S
C490 C491 1.386 . S
C491 C490 1.386 . S
C491 C493 1.395 . S
C491 H501 0.930 . S
C492 C488 1.395 . S
C492 C493 1.379 . S
C492 H502 0.930 . S
C493 C491 1.395 . S
C493 C492 1.379 . S
C493 H503 0.930 . S
C494 O472 1.264 . S
C494 O473 1.254 . S
C495 Eu431 2.848 1_556 S
C495 O470 1.257 . S
C495 O475 1.249 . S
C495 C488 1.492 . S
H496 C479 0.930 . S
H497 C480 0.930 . S
H498 C481 0.930 . S
H499 C482 0.930 . S
H500 C489 0.930 . S
H501 C491 0.930 . S
H502 C492 0.930 . S
H503 C493 0.930 . S
Eu504 N535 2.657 . S
Eu504 N542 2.609 . S
Eu504 O548 2.558 1_554 S
Eu504 O549 2.612 1_554 S
Eu504 O551 2.339 . S
Eu504 O552 2.563 1_554 S
Eu504 O553 2.419 1_554 S
Eu504 O555 2.380 . S
Eu504 O556 2.432 . S
Eu504 C568 2.848 1_554 S
C505 C508 1.429 . S
C505 C509 1.411 . S
C505 N512 1.377 . S
C506 C508 1.420 . S
C506 C510 1.423 . S
C506 C518 1.392 . S
C507 C509 1.420 . S
C507 C510 1.351 . S
C507 H530 0.931 . S
C508 C505 1.429 . S
C508 C506 1.420 . S
C508 N516 1.362 . S
C509 C505 1.411 . S
C509 C507 1.420 . S
C509 C514 1.395 1_545 S
C510 C506 1.423 . S
C510 C507 1.351 . S
C510 H522 0.930 . S
C511 C513 1.400 1_565 S
C511 C514 1.386 . S
C511 H523 0.930 . S
N512 C505 1.377 . S
N512 C513 1.321 . S
N512 Eu515 2.609 . S
C513 C511 1.400 1_545 S
C513 N512 1.321 . S
C513 H520 0.930 . S
C514 C509 1.395 1_565 S
C514 C511 1.386 . S
C514 H533 0.930 . S
Eu515 N512 2.609 . S
Eu515 N516 2.657 . S
Eu515 O549 2.380 . S
Eu515 O550 2.432 . S
Eu515 O554 2.558 1_556 S
Eu515 O555 2.612 1_556 S
Eu515 O557 2.339 . S
Eu515 O558 2.563 1_556 S
Eu515 O559 2.419 1_556 S
Eu515 C579 2.848 1_556 S
N516 C508 1.362 . S
N516 Eu515 2.657 . S
N516 C517 1.334 . S
C517 N516 1.334 . S
C517 C519 1.413 . S
C517 H524 0.929 . S
C518 C506 1.392 . S
C518 C519 1.367 . S
C518 H526 0.930 . S
C519 C517 1.413 . S
C519 C518 1.367 . S
C519 H521 0.930 . S
H520 C513 0.930 . S
H521 C519 0.930 . S
H522 C510 0.930 . S
H523 C511 0.930 . S
H524 C517 0.929 . S
H525 C539 0.930 . S
H526 C518 0.930 . S
H527 C545 0.930 . S
H528 C536 0.929 . S
H529 C543 0.930 . S
H530 C507 0.931 . S
H531 C537 0.930 . S
H532 C570 0.930 . S
H533 C514 0.930 . S
H534 C569 0.931 . S
N535 Eu504 2.657 . S
N535 C536 1.334 . S
N535 C540 1.362 . S
C536 H528 0.929 . S
C536 N535 1.334 . S
C536 C539 1.413 . S
C537 H531 0.930 . S
C537 C538 1.392 . S
C537 C539 1.367 . S
C538 C537 1.392 . S
C538 C540 1.420 . S
C538 C570 1.423 . S
C539 H525 0.930 . S
C539 C536 1.413 . S
C539 C537 1.367 . S
C540 N535 1.362 . S
C540 C538 1.420 . S
C540 C544 1.429 . S
H541 C546 0.930 . S
N542 Eu504 2.609 . S
N542 C544 1.377 . S
N542 C545 1.321 . S
C543 H529 0.930 . S
C543 C545 1.400 . S
C543 C546 1.386 . S
C544 C540 1.429 . S
C544 N542 1.377 . S
C544 C547 1.411 . S
C545 H527 0.930 . S
C545 N542 1.321 . S
C545 C543 1.400 . S
C546 H541 0.930 . S
C546 C543 1.386 . S
C546 C547 1.395 . S
C547 C544 1.411 . S
C547 C546 1.395 . S
C547 C569 1.420 . S
O548 Eu504 2.558 1_556 S
O548 C568 1.257 . S
O549 Eu504 2.612 1_556 S
O549 Eu515 2.380 . S
O549 C560 1.276 . S
O550 Eu515 2.432 . S
O550 C567 1.264 . S
O551 Eu504 2.339 . S
O551 C567 1.254 1_554 S
O552 Eu504 2.563 1_556 S
O552 C560 1.235 . S
O553 Eu504 2.419 1_556 S
O553 C568 1.249 . S
O554 Eu515 2.558 1_554 S
O554 C579 1.257 . S
O555 Eu504 2.380 . S
O555 Eu515 2.612 1_554 S
O555 C571 1.276 . S
O556 Eu504 2.432 . S
O556 C578 1.264 . S
O557 Eu515 2.339 . S
O557 C578 1.254 1_556 S
O558 Eu515 2.563 1_554 S
O558 C571 1.235 . S
O559 Eu515 2.419 1_554 S
O559 C579 1.249 . S
C560 O549 1.276 . S
C560 O552 1.235 . S
C561 C563 1.393 . S
C561 C565 1.395 . S
C561 C568 1.492 . S
C562 C563 1.392 . S
C562 C564 1.386 . S
C563 C561 1.393 . S
C563 C562 1.392 . S
C563 H580 0.930 . S
C564 C562 1.386 . S
C564 C566 1.395 . S
C564 H581 0.930 . S
C565 C561 1.395 . S
C565 C566 1.379 . S
C565 H582 0.930 . S
C566 C564 1.395 . S
C566 C565 1.379 . S
C566 H583 0.930 . S
C567 O550 1.264 . S
C567 O551 1.254 1_556 S
C568 Eu504 2.848 1_556 S
C568 O548 1.257 . S
C568 O553 1.249 . S
C568 C561 1.492 . S
C569 H534 0.931 . S
C569 C547 1.420 . S
C569 C570 1.351 . S
C570 H532 0.930 . S
C570 C538 1.423 . S
C570 C569 1.351 . S
C571 O555 1.276 . S
C571 O558 1.235 . S
C572 C573 1.393 . S
C572 C576 1.395 . S
C572 C579 1.492 . S
C573 C572 1.393 . S
C573 C574 1.392 . S
C573 H584 0.930 . S
C574 C573 1.392 . S
C574 C575 1.386 . S
C575 C574 1.386 . S
C575 C577 1.395 . S
C575 H585 0.930 . S
C576 C572 1.395 . S
C576 C577 1.379 . S
C576 H586 0.930 . S
C577 C575 1.395 . S
C577 C576 1.379 . S
C577 H587 0.930 . S
C578 O556 1.264 . S
C578 O557 1.254 1_554 S
C579 Eu515 2.848 1_554 S
C579 O554 1.257 . S
C579 O559 1.249 . S
C579 C572 1.492 . S
H580 C563 0.930 . S
H581 C564 0.930 . S
H582 C565 0.930 . S
H583 C566 0.930 . S
H584 C573 0.930 . S
H585 C575 0.930 . S
H586 C576 0.930 . S
H587 C577 0.930 . S
Eu588 N619 2.657 . S
Eu588 N626 2.609 . S
Eu588 O632 2.558 1_554 S
Eu588 O633 2.612 1_554 S
Eu588 O635 2.339 . S
Eu588 O636 2.563 1_554 S
Eu588 O637 2.419 1_554 S
Eu588 O639 2.380 . S
Eu588 O640 2.432 1_554 S
Eu588 C652 2.848 1_554 S
C589 C592 1.429 . S
C589 C593 1.411 . S
C589 N596 1.377 . S
C590 C592 1.420 . S
C590 C594 1.423 . S
C590 C602 1.392 . S
C591 C593 1.420 . S
C591 C594 1.351 . S
C591 H614 0.931 . S
C592 C589 1.429 . S
C592 C590 1.420 . S
C592 N600 1.362 . S
C593 C589 1.411 . S
C593 C591 1.420 . S
C593 C598 1.395 . S
C594 C590 1.423 . S
C594 C591 1.351 . S
C594 H606 0.930 . S
C595 C597 1.400 . S
C595 C598 1.386 . S
C595 H607 0.930 . S
N596 C589 1.377 . S
N596 C597 1.321 . S
N596 Eu599 2.609 . S
C597 C595 1.400 . S
C597 N596 1.321 . S
C597 H604 0.930 . S
C598 C593 1.395 . S
C598 C595 1.386 . S
C598 H617 0.930 . S
Eu599 N596 2.609 . S
Eu599 N600 2.657 . S
Eu599 O633 2.380 . S
Eu599 O634 2.432 1_556 S
Eu599 O638 2.558 1_556 S
Eu599 O639 2.612 1_556 S
Eu599 O641 2.339 . S
Eu599 O642 2.563 1_556 S
Eu599 O643 2.419 1_556 S
Eu599 C663 2.848 1_556 S
N600 C592 1.362 . S
N600 Eu599 2.657 . S
N600 C601 1.334 . S
C601 N600 1.334 . S
C601 C603 1.413 . S
C601 H608 0.929 . S
C602 C590 1.392 . S
C602 C603 1.367 . S
C602 H610 0.930 . S
C603 C601 1.413 . S
C603 C602 1.367 . S
C603 H605 0.930 . S
H604 C597 0.930 . S
H605 C603 0.930 . S
H606 C594 0.930 . S
H607 C595 0.930 . S
H608 C601 0.929 . S
H609 C623 0.930 . S
H610 C602 0.930 . S
H611 C629 0.930 . S
H612 C620 0.929 . S
H613 C627 0.930 . S
H614 C591 0.931 . S
H615 C621 0.930 . S
H616 C654 0.930 . S
H617 C598 0.930 . S
H618 C653 0.931 . S
N619 Eu588 2.657 . S
N619 C620 1.334 . S
N619 C624 1.362 . S
C620 H612 0.929 . S
C620 N619 1.334 . S
C620 C623 1.413 . S
C621 H615 0.930 . S
C621 C622 1.392 . S
C621 C623 1.367 . S
C622 C621 1.392 . S
C622 C624 1.420 . S
C622 C654 1.423 . S
C623 H609 0.930 . S
C623 C620 1.413 . S
C623 C621 1.367 . S
C624 N619 1.362 . S
C624 C622 1.420 . S
C624 C628 1.429 . S
H625 C630 0.930 . S
N626 Eu588 2.609 . S
N626 C628 1.377 . S
N626 C629 1.321 . S
C627 H613 0.930 . S
C627 C629 1.400 . S
C627 C630 1.386 . S
C628 C624 1.429 . S
C628 N626 1.377 . S
C628 C631 1.411 . S
C629 H611 0.930 . S
C629 N626 1.321 . S
C629 C627 1.400 . S
C630 H625 0.930 . S
C630 C627 1.386 . S
C630 C631 1.395 . S
C631 C628 1.411 . S
C631 C630 1.395 . S
C631 C653 1.420 . S
O632 Eu588 2.558 1_556 S
O632 C652 1.257 . S
O633 Eu588 2.612 1_556 S
O633 Eu599 2.380 . S
O633 C644 1.276 . S
O634 Eu599 2.432 1_554 S
O634 C651 1.264 . S
O635 Eu588 2.339 . S
O635 C651 1.254 . S
O636 Eu588 2.563 1_556 S
O636 C644 1.235 . S
O637 Eu588 2.419 1_556 S
O637 C652 1.249 . S
O638 Eu599 2.558 1_554 S
O638 C663 1.257 . S
O639 Eu588 2.380 . S
O639 Eu599 2.612 1_554 S
O639 C655 1.276 . S
O640 Eu588 2.432 1_556 S
O640 C662 1.264 . S
O641 Eu599 2.339 . S
O641 C662 1.254 . S
O642 Eu599 2.563 1_554 S
O642 C655 1.235 . S
O643 Eu599 2.419 1_554 S
O643 C663 1.249 . S
C644 O633 1.276 . S
C644 O636 1.235 . S
C645 C647 1.393 . S
C645 C649 1.395 . S
C645 C652 1.492 . S
C646 C647 1.392 . S
C646 C648 1.386 . S
C647 C645 1.393 . S
C647 C646 1.392 . S
C647 H664 0.930 . S
C648 C646 1.386 . S
C648 C650 1.395 . S
C648 H665 0.930 . S
C649 C645 1.395 . S
C649 C650 1.379 . S
C649 H666 0.930 . S
C650 C648 1.395 . S
C650 C649 1.379 . S
C650 H667 0.930 . S
C651 O634 1.264 . S
C651 O635 1.254 . S
C652 Eu588 2.848 1_556 S
C652 O632 1.257 . S
C652 O637 1.249 . S
C652 C645 1.492 . S
C653 H618 0.931 . S
C653 C631 1.420 . S
C653 C654 1.351 . S
C654 H616 0.930 . S
C654 C622 1.423 . S
C654 C653 1.351 . S
C655 O639 1.276 . S
C655 O642 1.235 . S
C656 C657 1.393 . S
C656 C660 1.395 . S
C656 C663 1.492 . S
C657 C656 1.393 . S
C657 C658 1.392 . S
C657 H668 0.930 . S
C658 C657 1.392 . S
C658 C659 1.386 . S
C659 C658 1.386 . S
C659 C661 1.395 . S
C659 H669 0.930 . S
C660 C656 1.395 . S
C660 C661 1.379 . S
C660 H670 0.930 . S
C661 C659 1.395 . S
C661 C660 1.379 . S
C661 H671 0.930 . S
C662 O640 1.264 . S
C662 O641 1.254 . S
C663 Eu599 2.848 1_554 S
C663 O638 1.257 . S
C663 O643 1.249 . S
C663 C656 1.492 . S
H664 C647 0.930 . S
H665 C648 0.930 . S
H666 C649 0.930 . S
H667 C650 0.930 . S
H668 C657 0.930 . S
H669 C659 0.930 . S
H670 C660 0.930 . S
H671 C661 0.930 . S
C672 C673 1.387 . S
C672 H676 0.950 . S
C672 C681 1.390 . S
C673 C672 1.387 . S
C673 C675 1.387 . S
H674 C681 0.950 . S
C675 C673 1.387 . S
C675 C677 1.390 . S
C675 H679 0.950 . S
H676 C672 0.950 . S
C677 C675 1.390 . S
C677 C678 1.387 . S
C677 H680 0.950 . S
C678 C677 1.387 . S
C678 C681 1.387 . S
H679 C675 0.950 . S
H680 C677 0.950 . S
C681 C672 1.390 . S
C681 H674 0.950 . S
C681 C678 1.387 . S
C682 C683 1.387 . S
C682 H686 0.950 . S
C682 C691 1.390 . S
C683 C682 1.387 . S
C683 C685 1.387 . S
H684 C691 0.950 . S
C685 C683 1.387 . S
C685 C687 1.390 . S
C685 H689 0.950 . S
H686 C682 0.950 . S
C687 C685 1.390 . S
C687 C688 1.387 . S
C687 H690 0.950 . S
C688 C687 1.387 . S
C688 C691 1.387 . S
H689 C685 0.950 . S
H690 C687 0.950 . S
C691 C682 1.390 . S
C691 H684 0.950 . S
C691 C688 1.387 . S
C692 C693 1.387 . S
C692 H696 0.950 . S
C692 C701 1.390 . S
C693 C692 1.387 . S
C693 C695 1.387 . S
H694 C701 0.950 . S
C695 C693 1.387 . S
C695 C697 1.390 . S
C695 H699 0.950 . S
H696 C692 0.950 . S
C697 C695 1.390 . S
C697 C698 1.387 . S
C697 H700 0.950 . S
C698 C697 1.387 . S
C698 C701 1.387 . S
H699 C695 0.950 . S
H700 C697 0.950 . S
C701 C692 1.390 . S
C701 H694 0.950 . S
C701 C698 1.387 . S
C702 C703 1.387 . S
C702 H706 0.950 . S
C702 C711 1.390 . S
C703 C702 1.387 . S
C703 C705 1.387 . S
H704 C711 0.950 . S
C705 C703 1.387 . S
C705 C707 1.390 . S
C705 H709 0.950 . S
H706 C702 0.950 . S
C707 C705 1.390 . S
C707 C708 1.387 . S
C707 H710 0.950 . S
C708 C707 1.387 . S
C708 C711 1.387 . S
H709 C705 0.950 . S
H710 C707 0.950 . S
C711 C702 1.390 . S
C711 H704 0.950 . S
C711 C708 1.387 . S
C712 C713 1.387 . S
C712 H716 0.950 . S
C712 C721 1.390 1_565 S
C713 C712 1.387 . S
C713 C715 1.387 . S
H714 C721 0.950 . S
C715 C713 1.387 . S
C715 C717 1.390 1_565 S
C715 H719 0.950 . S
H716 C712 0.950 . S
C717 C715 1.390 1_545 S
C717 C718 1.387 . S
C717 H720 0.950 . S
C718 C717 1.387 . S
C718 C721 1.387 . S
H719 C715 0.950 . S
H720 C717 0.950 . S
C721 C712 1.390 1_545 S
C721 H714 0.950 . S
C721 C718 1.387 . S
C722 C723 1.387 . S
C722 H726 0.950 . S
C722 C731 1.390 . S
C723 C722 1.387 . S
C723 C725 1.387 . S
H724 C731 0.950 . S
C725 C723 1.387 . S
C725 C727 1.390 . S
C725 H729 0.950 . S
H726 C722 0.950 . S
C727 C725 1.390 . S
C727 C728 1.387 . S
C727 H730 0.950 . S
C728 C727 1.387 . S
C728 C731 1.387 . S
H729 C725 0.950 . S
H730 C727 0.950 . S
C731 C722 1.390 . S
C731 H724 0.950 . S
C731 C728 1.387 . S
C732 C733 1.387 . S
C732 H736 0.950 . S
C732 C741 1.390 1_565 S
C733 C732 1.387 . S
C733 C735 1.387 . S
H734 C741 0.950 . S
C735 C733 1.387 . S
C735 C737 1.390 1_565 S
C735 H739 0.950 . S
H736 C732 0.950 . S
C737 C735 1.390 1_545 S
C737 C738 1.387 . S
C737 H740 0.950 . S
C738 C737 1.387 . S
C738 C741 1.387 . S
H739 C735 0.950 . S
H740 C737 0.950 . S
C741 C732 1.390 1_545 S
C741 H734 0.950 . S
C741 C738 1.387 . S
C742 C743 1.387 . S
C742 H746 0.950 . S
C742 C751 1.390 . S
C743 C742 1.387 . S
C743 C745 1.387 . S
H744 C751 0.950 . S
C745 C743 1.387 . S
C745 C747 1.390 . S
C745 H749 0.950 . S
H746 C742 0.950 . S
C747 C745 1.390 . S
C747 C748 1.387 . S
C747 H750 0.950 . S
C748 C747 1.387 . S
C748 C751 1.387 . S
H749 C745 0.950 . S
H750 C747 0.950 . S
C751 C742 1.390 . S
C751 H744 0.950 . S
C751 C748 1.387 . S
C752 C753 1.387 . S
C752 H756 0.950 . S
C752 C761 1.390 . S
C753 C752 1.387 . S
C753 C755 1.387 . S
H754 C761 0.950 . S
C755 C753 1.387 . S
C755 C757 1.390 . S
C755 H759 0.950 1_554 S
H756 C752 0.950 . S
C757 C755 1.390 . S
C757 C758 1.387 . S
C757 H760 0.950 . S
C758 C757 1.387 . S
C758 C761 1.387 . S
H759 C755 0.950 1_556 S
H760 C757 0.950 . S
C761 C752 1.390 . S
C761 H754 0.950 . S
C761 C758 1.387 . S
C762 C763 1.387 . S
C762 H766 0.950 . S
C762 C771 1.390 1_565 S
C763 C762 1.387 . S
C763 C765 1.387 1_556 S
H764 C771 0.950 . S
C765 C763 1.387 1_554 S
C765 C767 1.390 1_565 S
C765 H769 0.950 . S
H766 C762 0.950 . S
C767 C765 1.390 1_545 S
C767 C768 1.387 . S
C767 H770 0.950 . S
C768 C767 1.387 . S
C768 C771 1.387 1_554 S
H769 C765 0.950 . S
H770 C767 0.950 . S
C771 C762 1.390 1_545 S
C771 H764 0.950 . S
C771 C768 1.387 1_556 S
C772 C773 1.387 . S
C772 H776 0.950 . S
C772 C781 1.390 . S
C773 C772 1.387 . S
C773 C775 1.387 1_556 S
H774 C781 0.950 . S
C775 C773 1.387 1_554 S
C775 C777 1.390 . S
C775 H779 0.950 . S
H776 C772 0.950 . S
C777 C775 1.390 . S
C777 C778 1.387 . S
C777 H780 0.950 . S
C778 C777 1.387 . S
C778 C781 1.387 1_554 S
H779 C775 0.950 . S
H780 C777 0.950 . S
C781 C772 1.390 . S
C781 H774 0.950 . S
C781 C778 1.387 1_556 S
C782 C783 1.387 . S
C782 H786 0.950 . S
C782 C791 1.390 1_545 S
C783 C782 1.387 . S
C783 C785 1.387 . S
H784 C791 0.950 . S
C785 C783 1.387 . S
C785 C787 1.390 1_545 S
C785 H789 0.950 . S
H786 C782 0.950 . S
C787 C785 1.390 1_565 S
C787 C788 1.387 . S
C787 H790 0.950 1_556 S
C788 C787 1.387 . S
C788 C791 1.387 . S
H789 C785 0.950 . S
H790 C787 0.950 1_554 S
C791 C782 1.390 1_565 S
C791 H784 0.950 . S
C791 C788 1.387 . S
C792 C793 1.387 1_556 S
C792 H796 0.950 1_556 S
C792 C801 1.390 . S
C793 C792 1.387 1_554 S
C793 C795 1.387 . S
H794 C801 0.950 . S
C795 C793 1.387 . S
C795 C797 1.390 1_554 S
C795 H799 0.950 . S
H796 C792 0.950 1_554 S
C797 C795 1.390 1_556 S
C797 C798 1.387 . S
C797 H800 0.950 . S
C798 C797 1.387 . S
C798 C801 1.387 . S
H799 C795 0.950 . S
H800 C797 0.950 . S
C801 C792 1.390 . S
C801 H794 0.950 . S
C801 C798 1.387 . S
C802 C803 1.387 . S
C802 H806 0.950 . S
C802 C811 1.390 1_554 S
C803 C802 1.387 . S
C803 C805 1.387 1_554 S
H804 C811 0.950 . S
C805 C803 1.387 1_556 S
C805 C807 1.390 . S
C805 H809 0.950 1_556 S
H806 C802 0.950 . S
C807 C805 1.390 . S
C807 C808 1.387 . S
C807 H810 0.950 . S
C808 C807 1.387 . S
C808 C811 1.387 . S
H809 C805 0.950 1_554 S
H810 C807 0.950 . S
C811 C802 1.390 1_556 S
C811 H804 0.950 . S
C811 C808 1.387 . S
C812 C813 1.387 . S
C812 H816 0.950 . S
C812 C821 1.390 1_554 S
C813 C812 1.387 . S
C813 C815 1.387 . S
H814 C821 0.950 . S
C815 C813 1.387 . S
C815 C817 1.390 . S
C815 H819 0.950 . S
H816 C812 0.950 . S
C817 C815 1.390 . S
C817 C818 1.387 1_554 S
C817 H820 0.950 1_554 S
C818 C817 1.387 1_556 S
C818 C821 1.387 . S
H819 C815 0.950 . S
H820 C817 0.950 1_556 S
C821 C812 1.390 1_556 S
C821 H814 0.950 . S
C821 C818 1.387 . S
C822 C823 1.387 1_554 S
C822 H826 0.950 1_554 S
C822 C831 1.390 . S
C823 C822 1.387 1_556 S
C823 C825 1.387 . S
H824 C831 0.950 . S
C825 C823 1.387 . S
C825 C827 1.390 1_556 S
C825 H829 0.950 . S
H826 C822 0.950 1_556 S
C827 C825 1.390 1_554 S
C827 C828 1.387 . S
C827 H830 0.950 . S
C828 C827 1.387 . S
C828 C831 1.387 . S
H829 C825 0.950 . S
H830 C827 0.950 . S
C831 C822 1.390 . S
C831 H824 0.950 . S
C831 C828 1.387 . S
C832 C833 1.387 . S
C832 H836 0.950 . S
C832 C841 1.390 . S
C833 C832 1.387 . S
C833 C835 1.387 . S
H834 C841 0.950 . S
C835 C833 1.387 . S
C835 C837 1.390 . S
C835 H839 0.950 . S
H836 C832 0.950 . S
C837 C835 1.390 . S
C837 C838 1.387 . S
C837 H840 0.950 . S
C838 C837 1.387 . S
C838 C841 1.387 . S
H839 C835 0.950 . S
H840 C837 0.950 . S
C841 C832 1.390 . S
C841 H834 0.950 . S
C841 C838 1.387 . S
C842 C843 1.387 . S
C842 H846 0.950 . S
C842 C851 1.390 . S
C843 C842 1.387 . S
C843 C845 1.387 . S
H844 C851 0.950 . S
C845 C843 1.387 . S
C845 C847 1.390 . S
C845 H849 0.950 . S
H846 C842 0.950 . S
C847 C845 1.390 . S
C847 C848 1.387 . S
C847 H850 0.950 . S
C848 C847 1.387 . S
C848 C851 1.387 . S
H849 C845 0.950 . S
H850 C847 0.950 . S
C851 C842 1.390 . S
C851 H844 0.950 . S
C851 C848 1.387 . S
C852 C853 1.387 . S
C852 H856 0.950 . S
C852 C861 1.390 . S
C853 C852 1.387 . S
C853 C855 1.387 . S
H854 C861 0.950 . S
C855 C853 1.387 . S
C855 C857 1.390 . S
C855 H859 0.950 . S
H856 C852 0.950 . S
C857 C855 1.390 . S
C857 C858 1.387 . S
C857 H860 0.950 . S
C858 C857 1.387 . S
C858 C861 1.387 . S
H859 C855 0.950 . S
H860 C857 0.950 . S
C861 C852 1.390 . S
C861 H854 0.950 . S
C861 C858 1.387 . S
C862 C863 1.387 . S
C862 H866 0.950 . S
C862 C871 1.390 . S
C863 C862 1.387 . S
C863 C865 1.387 . S
H864 C871 0.950 . S
C865 C863 1.387 . S
C865 C867 1.390 . S
C865 H869 0.950 . S
H866 C862 0.950 . S
C867 C865 1.390 . S
C867 C868 1.387 . S
C867 H870 0.950 . S
C868 C867 1.387 . S
C868 C871 1.387 . S
H869 C865 0.950 . S
H870 C867 0.950 . S
C871 C862 1.390 . S
C871 H864 0.950 . S
C871 C868 1.387 . S
C872 C873 1.387 . S
C872 H876 0.950 . S
C872 C881 1.390 1_455 S
C873 C872 1.387 . S
C873 C875 1.387 . S
H874 C881 0.950 . S
C875 C873 1.387 . S
C875 C877 1.390 1_455 S
C875 H879 0.950 . S
H876 C872 0.950 . S
C877 C875 1.390 1_655 S
C877 C878 1.387 . S
C877 H880 0.950 . S
C878 C877 1.387 . S
C878 C881 1.387 . S
H879 C875 0.950 . S
H880 C877 0.950 . S
C881 C872 1.390 1_655 S
C881 H874 0.950 . S
C881 C878 1.387 . S
C882 C883 1.387 . S
C882 H886 0.950 . S
C882 C891 1.390 1_655 S
C883 C882 1.387 . S
C883 C885 1.387 . S
H884 C891 0.950 . S
C885 C883 1.387 . S
C885 C887 1.390 1_655 S
C885 H889 0.950 . S
H886 C882 0.950 . S
C887 C885 1.390 1_455 S
C887 C888 1.387 . S
C887 H890 0.950 . S
C888 C887 1.387 . S
C888 C891 1.387 . S
H889 C885 0.950 . S
H890 C887 0.950 . S
C891 C882 1.390 1_455 S
C891 H884 0.950 . S
C891 C888 1.387 . S
C892 C893 1.387 . S
C892 H896 0.950 . S
C892 C901 1.390 . S
C893 C892 1.387 . S
C893 C895 1.387 . S
H894 C901 0.950 . S
C895 C893 1.387 . S
C895 C897 1.390 . S
C895 H899 0.950 . S
H896 C892 0.950 . S
C897 C895 1.390 . S
C897 C898 1.387 . S
C897 H900 0.950 . S
C898 C897 1.387 . S
C898 C901 1.387 . S
H899 C895 0.950 . S
H900 C897 0.950 . S
C901 C892 1.390 . S
C901 H894 0.950 . S
C901 C898 1.387 . S
C902 C903 1.387 . S
C902 H906 0.950 . S
C902 C911 1.390 . S
C903 C902 1.387 . S
C903 C905 1.387 . S
H904 C911 0.950 . S
C905 C903 1.387 . S
C905 C907 1.390 . S
C905 H909 0.950 . S
H906 C902 0.950 . S
C907 C905 1.390 . S
C907 C908 1.387 . S
C907 H910 0.950 . S
C908 C907 1.387 . S
C908 C911 1.387 . S
H909 C905 0.950 . S
H910 C907 0.950 . S
C911 C902 1.390 . S
C911 H904 0.950 . S
C911 C908 1.387 . S
C673 C70 1.347 . S
C678 C646 1.337 . S
C683 C562 1.714 . S
C688 C142 1.412 . S
C693 C478 1.403 . S
C698 C226 1.698 . S
C703 C406 1.354 . S
C708 C310 1.344 . S
C713 C242 2.244 . S
C718 C74 2.441 . S
C723 C158 1.653 . S
C728 C326 1.723 . S
C733 C315 1.543 . S
C738 C147 1.482 . S
C743 C231 0.798 . S
C748 C63 0.798 . S
C753 C410 2.389 1_554 S
C758 C578 2.283 . S
C763 C494 1.514 1_556 S
C768 C662 1.577 1_554 S
C773 C651 1.517 1_556 S
C778 C483 1.455 1_554 S
C783 C567 0.753 . S
C788 C399 0.749 1_556 S
C793 C56 1.899 . S
C798 C67 1.899 . S
C803 C151 1.870 . S
C808 C140 1.870 . S
C813 C224 1.991 . S
C818 C235 1.991 . S
C823 C319 1.894 . S
C828 C308 1.894 . S
C833 C403 1.899 . S
C838 C392 1.899 . S
C843 C487 1.869 . S
C848 C476 1.869 . S
C853 C571 1.992 . S
C858 C560 1.992 . S
C863 C655 1.895 . S
C868 C644 1.895 . S
C873 C58 2.063 . S
C878 C154 1.758 . S
C883 C322 1.622 . S
C888 C238 1.687 . S
C893 C394 2.061 . S
C898 C490 1.770 . S
C903 C658 1.626 . S
C908 C574 1.677 . S
