# Generated by pormake.
# Topology uot, (4)-cn, num edge types: 1
# Building blocks:
#     Node 0, Type 0, BuildingBlock: AZAVOO_clean_sbu_0, # of connection points: 4
#     Node 1, Type 0, BuildingBlock: AZAVOO_clean_sbu_0, # of connection points: 4
#     Node 2, Type 0, BuildingBlock: AZAVOO_clean_sbu_0, # of connection points: 4
#     Node 3, Type 0, BuildingBlock: AZAVOO_clean_sbu_0, # of connection points: 4
#     Node 4, Type 0, BuildingBlock: AZAVOO_clean_sbu_0, # of connection points: 4
#     Node 5, Type 0, BuildingBlock: AZAVOO_clean_sbu_0, # of connection points: 4
#     Node 6, Type 0, BuildingBlock: AZAVOO_clean_sbu_0, # of connection points: 4
#     Node 7, Type 0, BuildingBlock: AZAVOO_clean_sbu_0, # of connection points: 4
#     Node 8, Type 0, BuildingBlock: AZAVOO_clean_sbu_0, # of connection points: 4
#     Node 9, Type 0, BuildingBlock: AZAVOO_clean_sbu_0, # of connection points: 4
#     Node 10, Type 0, BuildingBlock: AZAVOO_clean_sbu_0, # of connection points: 4
#     Node 11, Type 0, BuildingBlock: AZAVOO_clean_sbu_0, # of connection points: 4
#     Node 12, Type 0, BuildingBlock: AZAVOO_clean_sbu_0, # of connection points: 4
#     Node 13, Type 0, BuildingBlock: AZAVOO_clean_sbu_0, # of connection points: 4
#     Node 14, Type 0, BuildingBlock: AZAVOO_clean_sbu_0, # of connection points: 4
#     Node 15, Type 0, BuildingBlock: AZAVOO_clean_sbu_0, # of connection points: 4
#     Edge 16, Type (0, 0), BuildingBlock: XIVTED_clean_linker_0, # of connection points: 2
#     Edge 17, Type (0, 0), BuildingBlock: XIVTED_clean_linker_0, # of connection points: 2
#     Edge 18, Type (0, 0), BuildingBlock: XIVTED_clean_linker_0, # of connection points: 2
#     Edge 19, Type (0, 0), BuildingBlock: XIVTED_clean_linker_0, # of connection points: 2
#     Edge 20, Type (0, 0), BuildingBlock: XIVTED_clean_linker_0, # of connection points: 2
#     Edge 21, Type (0, 0), BuildingBlock: XIVTED_clean_linker_0, # of connection points: 2
#     Edge 22, Type (0, 0), BuildingBlock: XIVTED_clean_linker_0, # of connection points: 2
#     Edge 23, Type (0, 0), BuildingBlock: XIVTED_clean_linker_0, # of connection points: 2
#     Edge 24, Type (0, 0), BuildingBlock: XIVTED_clean_linker_0, # of connection points: 2
#     Edge 25, Type (0, 0), BuildingBlock: XIVTED_clean_linker_0, # of connection points: 2
#     Edge 26, Type (0, 0), BuildingBlock: XIVTED_clean_linker_0, # of connection points: 2
#     Edge 27, Type (0, 0), BuildingBlock: XIVTED_clean_linker_0, # of connection points: 2
#     Edge 28, Type (0, 0), BuildingBlock: XIVTED_clean_linker_0, # of connection points: 2
#     Edge 29, Type (0, 0), BuildingBlock: XIVTED_clean_linker_0, # of connection points: 2
#     Edge 30, Type (0, 0), BuildingBlock: XIVTED_clean_linker_0, # of connection points: 2
#     Edge 31, Type (0, 0), BuildingBlock: XIVTED_clean_linker_0, # of connection points: 2
#     Edge 32, Type (0, 0), BuildingBlock: XIVTED_clean_linker_0, # of connection points: 2
#     Edge 33, Type (0, 0), BuildingBlock: XIVTED_clean_linker_0, # of connection points: 2
#     Edge 34, Type (0, 0), BuildingBlock: XIVTED_clean_linker_0, # of connection points: 2
#     Edge 35, Type (0, 0), BuildingBlock: XIVTED_clean_linker_0, # of connection points: 2
#     Edge 36, Type (0, 0), BuildingBlock: XIVTED_clean_linker_0, # of connection points: 2
#     Edge 37, Type (0, 0), BuildingBlock: XIVTED_clean_linker_0, # of connection points: 2
#     Edge 38, Type (0, 0), BuildingBlock: XIVTED_clean_linker_0, # of connection points: 2
#     Edge 39, Type (0, 0), BuildingBlock: XIVTED_clean_linker_0, # of connection points: 2
#     Edge 40, Type (0, 0), BuildingBlock: XIVTED_clean_linker_0, # of connection points: 2
#     Edge 41, Type (0, 0), BuildingBlock: XIVTED_clean_linker_0, # of connection points: 2
#     Edge 42, Type (0, 0), BuildingBlock: XIVTED_clean_linker_0, # of connection points: 2
#     Edge 43, Type (0, 0), BuildingBlock: XIVTED_clean_linker_0, # of connection points: 2
#     Edge 44, Type (0, 0), BuildingBlock: XIVTED_clean_linker_0, # of connection points: 2
#     Edge 45, Type (0, 0), BuildingBlock: XIVTED_clean_linker_0, # of connection points: 2
#     Edge 46, Type (0, 0), BuildingBlock: XIVTED_clean_linker_0, # of connection points: 2
#     Edge 47, Type (0, 0), BuildingBlock: XIVTED_clean_linker_0, # of connection points: 2
# Relax obj value: 0.217
# Max RMSD: 0.317
# Mean RMSD: 0.231
data_MOF--net-uot--node1-AZAVOO_clean_sbu_0--edge1-XIVTED_clean_linker_0
_symmetry_space_group_name_H-M    P1
_symmetry_Int_Tables_number       1
_symmetry_cell_setting            triclinic
loop_
_symmetry_equiv_pos_as_xyz
'x, y, z'
_cell_length_a     48.631176
_cell_length_b     35.249998
_cell_length_c     40.663102
_cell_angle_alpha  90.150846
_cell_angle_beta   89.818104
_cell_angle_gamma 89.882472
loop_
_atom_site_label
_atom_site_type_symbol
_atom_site_fract_x
_atom_site_fract_y
_atom_site_fract_z
_atom_type_partial_charge
Mg0 Mg 0.19361 0.42652 0.32312 0.0
O1 O 0.17637 0.47749 0.29406 0.0
O2 O 0.20002 0.52812 0.31104 0.0
Mg3 Mg 0.23067 0.51056 0.35074 0.0
C4 C 0.18148 0.51304 0.29311 0.0
C5 C 0.16102 0.35792 0.30829 0.0
O6 O 0.16507 0.35844 0.34022 0.0
O7 O 0.23329 0.42486 0.29299 0.0
O8 O 0.25574 0.47465 0.31397 0.0
O9 O 0.16295 0.43688 0.36264 0.0
O10 O 0.20481 0.46125 0.36182 0.0
C11 C 0.25472 0.44566 0.29504 0.0
C12 C 0.18134 0.45814 0.3763 0.0
O13 O 0.17158 0.38406 0.29085 0.0
Mg14 Mg 0.47851 0.69733 0.69744 0.0
O15 O 0.46014 0.75675 0.69513 0.0
O16 O 0.4929 0.79997 0.68758 0.0
Mg17 Mg 0.53346 0.76646 0.68219 0.0
C18 C 0.46773 0.79115 0.69215 0.0
C19 C 0.42653 0.65075 0.71732 0.0
O20 O 0.44447 0.63715 0.73834 0.0
O21 O 0.48401 0.69543 0.64115 0.0
O22 O 0.51912 0.73596 0.63564 0.0
O23 O 0.48665 0.70803 0.75102 0.0
O24 O 0.51646 0.71943 0.71114 0.0
C25 C 0.50215 0.71217 0.62351 0.0
C26 C 0.51004 0.72189 0.74169 0.0
O27 O 0.43447 0.67475 0.69602 0.0
Mg28 Mg 0.8232 0.51144 0.32385 0.0
O29 O 0.83962 0.46238 0.29194 0.0
O30 O 0.81448 0.41172 0.30499 0.0
Mg31 Mg 0.7831 0.42808 0.34468 0.0
C32 C 0.83381 0.42726 0.28859 0.0
C33 C 0.85865 0.57803 0.31665 0.0
O34 O 0.85346 0.57332 0.3481 0.0
O35 O 0.78459 0.51865 0.29303 0.0
O36 O 0.75989 0.46906 0.31033 0.0
O37 O 0.8523 0.49594 0.363 0.0
O38 O 0.8095 0.47525 0.36073 0.0
C39 C 0.7623 0.49951 0.29353 0.0
C40 C 0.83261 0.47654 0.37613 0.0
O41 O 0.84773 0.55546 0.296 0.0
Mg42 Mg 0.5292 0.3241 0.66251 0.0
O43 O 0.54853 0.2673 0.67792 0.0
O44 O 0.51899 0.22013 0.66907 0.0
Mg45 Mg 0.48156 0.24666 0.64374 0.0
C46 C 0.54204 0.23229 0.67961 0.0
C47 C 0.57233 0.38133 0.68851 0.0
O48 O 0.54951 0.39733 0.69904 0.0
O49 O 0.53738 0.31241 0.60763 0.0
O50 O 0.50753 0.26493 0.59966 0.0
O51 O 0.50874 0.32593 0.71188 0.0
O52 O 0.48999 0.30182 0.66692 0.0
C53 C 0.52593 0.28769 0.5891 0.0
C54 C 0.48872 0.30783 0.69802 0.0
O55 O 0.57092 0.35132 0.67118 0.0
Mg56 Mg 0.17394 0.57877 0.6619 0.0
O57 O 0.15704 0.52785 0.69185 0.0
O58 O 0.18419 0.47863 0.6793 0.0
Mg59 Mg 0.21662 0.4961 0.64164 0.0
C60 C 0.1638 0.49291 0.69487 0.0
C61 C 0.13271 0.64194 0.67125 0.0
O62 O 0.13403 0.63637 0.63934 0.0
O63 O 0.21187 0.58595 0.695 0.0
O64 O 0.23718 0.53627 0.67839 0.0
O65 O 0.14724 0.56294 0.61945 0.0
O66 O 0.18979 0.54272 0.62635 0.0
C67 C 0.23406 0.56634 0.69562 0.0
C68 C 0.16779 0.54292 0.60895 0.0
O69 O 0.14758 0.62158 0.69001 0.0
Mg70 Mg 0.53282 0.67432 0.30466 0.0
O71 O 0.55261 0.7325 0.29673 0.0
O72 O 0.522 0.77748 0.30932 0.0
Mg73 Mg 0.48167 0.74792 0.3241 0.0
C74 C 0.54588 0.76736 0.29948 0.0
C75 C 0.57803 0.61682 0.28348 0.0
O76 O 0.55602 0.60043 0.27136 0.0
O77 O 0.53544 0.67986 0.36135 0.0
O78 O 0.50075 0.72092 0.3693 0.0
O79 O 0.51585 0.67719 0.25289 0.0
O80 O 0.494 0.69664 0.29745 0.0
C81 C 0.51908 0.69835 0.3803 0.0
C82 C 0.49449 0.69312 0.26613 0.0
O83 O 0.57535 0.64759 0.29957 0.0
Mg84 Mg 0.81768 0.47276 0.67545 0.0
O85 O 0.83305 0.52791 0.69877 0.0
O86 O 0.80915 0.57564 0.67712 0.0
Mg87 Mg 0.7798 0.55088 0.63867 0.0
C88 C 0.82753 0.56318 0.69665 0.0
C89 C 0.86769 0.44253 0.7095 0.0
O90 O 0.87662 0.47369 0.69544 0.0
O91 O 0.77796 0.47382 0.7052 0.0
O92 O 0.75487 0.51877 0.67792 0.0
O93 O 0.84786 0.47724 0.6351 0.0
O94 O 0.8055 0.49974 0.63241 0.0
C95 C 0.75604 0.49291 0.69988 0.0
C96 C 0.82887 0.49385 0.61824 0.0
O97 O 0.84189 0.4371 0.71136 0.0
Mg98 Mg 0.49371 0.29457 0.27157 0.0
O99 O 0.47349 0.23593 0.27068 0.0
O100 O 0.50511 0.19037 0.27523 0.0
Mg101 Mg 0.54625 0.22098 0.28281 0.0
C102 C 0.48018 0.20093 0.2716 0.0
C103 C 0.4452 0.35203 0.26157 0.0
O104 O 0.46512 0.37158 0.24784 0.0
O105 O 0.49858 0.29176 0.32803 0.0
O106 O 0.53064 0.24624 0.3311 0.0
O107 O 0.50224 0.28731 0.21724 0.0
O108 O 0.53095 0.27145 0.257 0.0
C109 C 0.51456 0.2703 0.34474 0.0
C110 C 0.52519 0.27193 0.22626 0.0
O111 O 0.45065 0.32011 0.27449 0.0
Mg112 Mg 0.66167 0.98354 0.86782 0.0
O113 O 0.64768 0.03031 0.83195 0.0
O114 O 0.67277 0.0816 0.84355 0.0
Mg115 Mg 0.70047 0.06914 0.88778 0.0
C116 C 0.65442 0.06477 0.82652 0.0
C117 C 0.6139 0.93562 0.8413 0.0
O118 O 0.60095 0.96154 0.85871 0.0
O119 O 0.70271 0.97523 0.84052 0.0
O120 O 0.7261 0.0258 0.85816 0.0
O121 O 0.63011 0.00111 0.90504 0.0
O122 O 0.67222 0.02391 0.90309 0.0
C123 C 0.72496 0.99441 0.84239 0.0
C124 C 0.6484 0.02375 0.91701 0.0
O125 O 0.63987 0.93789 0.83804 0.0
Mg126 Mg 0.98721 0.16001 0.16783 0.0
O127 O 0.96393 0.21541 0.17977 0.0
O128 O 0.99034 0.26509 0.16745 0.0
Mg129 Mg 0.03011 0.24175 0.14501 0.0
C130 C 0.96799 0.25117 0.17859 0.0
C131 C 0.93459 0.13143 0.20407 0.0
O132 O 0.94414 0.15555 0.2259 0.0
O133 O 0.97856 0.16717 0.11254 0.0
O134 O 0.00569 0.21721 0.10238 0.0
O135 O 0.00857 0.16335 0.21696 0.0
O136 O 0.02455 0.18785 0.17085 0.0
C137 C 0.98869 0.19191 0.09299 0.0
C138 C 0.0272 0.18299 0.20189 0.0
O139 O 0.94762 0.12677 0.17715 0.0
Mg140 Mg 0.3188 0.06449 0.81036 0.0
O141 O 0.33738 0.0127 0.78383 0.0
O142 O 0.31289 0.96239 0.79951 0.0
Mg143 Mg 0.28081 0.98114 0.83765 0.0
C144 C 0.33227 0.97721 0.78267 0.0
C145 C 0.36856 0.10379 0.78158 0.0
O146 O 0.37938 0.07694 0.79978 0.0
O147 O 0.2807 0.0647 0.77793 0.0
O148 O 0.25708 0.01627 0.79944 0.0
O149 O 0.34705 0.0565 0.85245 0.0
O150 O 0.30549 0.03154 0.84948 0.0
C151 C 0.25897 0.04445 0.77982 0.0
C152 C 0.32802 0.0359 0.86557 0.0
O153 O 0.34265 0.10463 0.77771 0.0
Mg154 Mg 0.0319 0.79085 0.19953 0.0
O155 O 0.05253 0.7324 0.20245 0.0
O156 O 0.02271 0.68672 0.18996 0.0
Mg157 Mg 0.98252 0.71681 0.17614 0.0
C158 C 0.04662 0.6974 0.19882 0.0
C159 C 0.07884 0.84804 0.21985 0.0
O160 O 0.05785 0.86746 0.23146 0.0
O161 O 0.03405 0.79098 0.14292 0.0
O162 O 0.00308 0.74551 0.1326 0.0
O163 O 0.01513 0.78221 0.25105 0.0
O164 O 0.9935 0.76701 0.20528 0.0
C165 C 0.02022 0.77049 0.12289 0.0
C166 C 0.99393 0.76743 0.23673 0.0
O167 O 0.07454 0.81672 0.20521 0.0
Mg168 Mg 0.68416 0.06096 0.20922 0.0
O169 O 0.66816 0.00126 0.2179 0.0
O170 O 0.6832 0.96182 0.17905 0.0
Mg171 Mg 0.70824 0.99882 0.14307 0.0
C172 C 0.66945 0.96825 0.20526 0.0
C173 C 0.65134 0.09136 0.27216 0.0
O174 O 0.64568 0.09242 0.30376 0.0
O175 O 0.72815 0.04541 0.22417 0.0
O176 O 0.74203 0.01108 0.18084 0.0
O177 O 0.64753 0.07335 0.17643 0.0
O178 O 0.68767 0.05186 0.15913 0.0
C179 C 0.74687 0.02748 0.20829 0.0
C180 C 0.6633 0.06312 0.1523 0.0
O181 O 0.67243 0.07323 0.2624 0.0
Mg182 Mg 0.02354 0.20212 0.77644 0.0
O183 O 0.04181 0.26236 0.77677 0.0
O184 O 0.00817 0.30476 0.78377 0.0
Mg185 Mg 0.9685 0.27109 0.79241 0.0
C186 C 0.03344 0.29666 0.77883 0.0
C187 C 0.07107 0.14676 0.76104 0.0
O188 O 0.04995 0.1286 0.74858 0.0
O189 O 0.0201 0.20173 0.83306 0.0
O190 O 0.98628 0.24449 0.83859 0.0
O191 O 0.01346 0.21131 0.72309 0.0
O192 O 0.98514 0.22296 0.7646 0.0
C193 C 0.00349 0.22118 0.85093 0.0
C194 C 0.99024 0.2246 0.73372 0.0
O195 O 0.06704 0.17818 0.77572 0.0
Mg196 Mg 0.3234 0.93669 0.15588 0.0
O197 O 0.34278 0.98592 0.18514 0.0
O198 O 0.3178 0.03743 0.17371 0.0
Mg199 Mg 0.28412 0.02209 0.1369 0.0
C200 C 0.33774 0.02132 0.18854 0.0
C201 C 0.36062 0.86997 0.16433 0.0
O202 O 0.35725 0.87363 0.13246 0.0
O203 O 0.28633 0.93297 0.19029 0.0
O204 O 0.26216 0.98372 0.17434 0.0
O205 O 0.35055 0.94966 0.1136 0.0
O206 O 0.30879 0.97341 0.12023 0.0
C207 C 0.26473 0.95366 0.1916 0.0
C208 C 0.33096 0.97117 0.10293 0.0
O209 O 0.34824 0.89286 0.18362 0.0
Mg210 Mg 0.96705 0.84361 0.81462 0.0
O211 O 0.94693 0.78563 0.80447 0.0
O212 O 0.97881 0.74021 0.80845 0.0
Mg213 Mg 0.01898 0.76819 0.8244 0.0
C214 C 0.9542 0.75084 0.80261 0.0
C215 C 0.90474 0.8645 0.79689 0.0
O216 O 0.90837 0.8389 0.77375 0.0
O217 O 0.96705 0.83243 0.87054 0.0
O218 O 0.99884 0.78628 0.87228 0.0
O219 O 0.9817 0.84442 0.76137 0.0
O220 O 0.00541 0.82184 0.80307 0.0
C221 C 0.98155 0.80825 0.88634 0.0
C222 C 0.00351 0.8274 0.77212 0.0
O223 O 0.92441 0.87201 0.81644 0.0
H224 H 0.26835 0.37402 0.27421 0.0
H225 H 0.42733 0.42391 0.24736 0.0
H226 H 0.30068 0.48766 0.28171 0.0
H227 H 0.39786 0.31278 0.27431 0.0
H228 H 0.37981 0.44718 0.24779 0.0
H229 H 0.31451 0.35095 0.26058 0.0
C230 C 0.28498 0.39427 0.2722 0.0
C231 C 0.2807 0.43279 0.27949 0.0
C232 C 0.3838 0.41767 0.25343 0.0
C233 C 0.33353 0.40648 0.26423 0.0
C234 C 0.41088 0.40437 0.25323 0.0
C235 C 0.41659 0.36644 0.26116 0.0
C236 C 0.36225 0.39275 0.26118 0.0
C237 C 0.39444 0.34235 0.26843 0.0
C238 C 0.31137 0.38101 0.26474 0.0
C239 C 0.30311 0.45767 0.27664 0.0
N240 N 0.36826 0.35591 0.26828 0.0
N241 N 0.32861 0.44405 0.2695 0.0
H242 H 0.40444 0.58979 0.74945 0.0
H243 H 0.24914 0.64073 0.70171 0.0
H244 H 0.38182 0.68688 0.69094 0.0
H245 H 0.27649 0.52699 0.72305 0.0
H246 H 0.29583 0.66384 0.71237 0.0
H247 H 0.35585 0.57188 0.75274 0.0
C248 C 0.38926 0.60741 0.73739 0.0
C249 C 0.39723 0.63964 0.71955 0.0
C250 C 0.29141 0.63395 0.71537 0.0
C251 C 0.34162 0.61971 0.72382 0.0
C252 C 0.2647 0.62082 0.70976 0.0
C253 C 0.25901 0.58185 0.71134 0.0
C254 C 0.31237 0.60797 0.72303 0.0
C255 C 0.28009 0.55723 0.72139 0.0
C256 C 0.36156 0.59721 0.73935 0.0
C257 C 0.37663 0.66153 0.70457 0.0
N258 N 0.30589 0.57063 0.72659 0.0
N259 N 0.34978 0.65118 0.70706 0.0
H260 H 0.59034 0.54535 0.26131 0.0
H261 H 0.75288 0.57386 0.27748 0.0
H262 H 0.62837 0.64957 0.29339 0.0
H263 H 0.71358 0.46417 0.27949 0.0
H264 H 0.70801 0.60344 0.26853 0.0
H265 H 0.63605 0.51699 0.25474 0.0
C266 C 0.60829 0.56235 0.26679 0.0
C267 C 0.60553 0.59975 0.2783 0.0
C268 C 0.70932 0.57284 0.27038 0.0
C269 C 0.65781 0.56762 0.27038 0.0
C270 C 0.73496 0.55586 0.27515 0.0
C271 C 0.73697 0.51646 0.2797 0.0
C272 C 0.68558 0.55025 0.26983 0.0
C273 C 0.71296 0.49467 0.27653 0.0
C274 C 0.63434 0.54614 0.263 0.0
C275 C 0.62953 0.62049 0.28485 0.0
N276 N 0.68822 0.51188 0.27213 0.0
N277 N 0.65465 0.60412 0.28086 0.0
H278 H 0.62246 0.34619 0.68656 0.0
H279 H 0.70802 0.53262 0.70754 0.0
H280 H 0.58358 0.45257 0.7118 0.0
H281 H 0.74358 0.42156 0.72138 0.0
H282 H 0.6622 0.50488 0.71274 0.0
H283 H 0.66705 0.37351 0.70061 0.0
C284 C 0.62331 0.37531 0.69509 0.0
C285 C 0.59933 0.39731 0.69764 0.0
C286 C 0.68004 0.48673 0.71546 0.0
C287 C 0.65029 0.42873 0.71381 0.0
C288 C 0.70621 0.50258 0.71265 0.0
C289 C 0.72965 0.47929 0.71356 0.0
C290 C 0.67733 0.44725 0.71847 0.0
C291 C 0.72609 0.44058 0.72036 0.0
C292 C 0.64874 0.39077 0.70343 0.0
C293 C 0.6016 0.4347 0.70927 0.0
N294 N 0.70039 0.42559 0.72172 0.0
N295 N 0.62669 0.44944 0.71649 0.0
H296 H 0.77653 0.02509 0.84571 0.0
H297 H 0.85516 0.84578 0.76907 0.0
H298 H 0.73343 0.92618 0.81018 0.0
H299 H 0.89328 0.92878 0.83234 0.0
H300 H 0.81106 0.87889 0.77593 0.0
H301 H 0.82002 0.99467 0.83182 0.0
C302 C 0.7761 0.99713 0.83461 0.0
C303 C 0.7511 0.9781 0.82943 0.0
C304 C 0.82912 0.88983 0.78821 0.0
C305 C 0.80125 0.94293 0.81356 0.0
C306 C 0.85431 0.87103 0.78427 0.0
C307 C 0.87797 0.88445 0.80026 0.0
C308 C 0.82766 0.92259 0.80788 0.0
C309 C 0.87559 0.91726 0.8197 0.0
C310 C 0.80106 0.97969 0.82686 0.0
C311 C 0.75212 0.94192 0.81479 0.0
N312 N 0.85095 0.93521 0.82287 0.0
N313 N 0.77679 0.92542 0.80752 0.0
H314 H 0.79179 0.98985 0.1838 0.0
H315 H 0.89735 0.14336 0.25379 0.0
H316 H 0.76884 0.07693 0.25362 0.0
H317 H 0.91275 0.07223 0.16911 0.0
H318 H 0.85344 0.11092 0.26224 0.0
H319 H 0.83955 0.01003 0.18798 0.0
C320 C 0.79683 0.01268 0.2006 0.0
C321 C 0.77608 0.03219 0.21789 0.0
C322 C 0.86656 0.10223 0.24199 0.0
C323 C 0.83086 0.05581 0.22237 0.0
C324 C 0.89162 0.12073 0.23711 0.0
C325 C 0.90865 0.11075 0.21048 0.0
C326 C 0.85854 0.07333 0.22024 0.0
C327 C 0.90017 0.08114 0.18975 0.0
C328 C 0.82414 0.02436 0.20278 0.0
C329 C 0.78404 0.06125 0.23958 0.0
N330 N 0.87569 0.06361 0.195 0.0
N331 N 0.81075 0.07261 0.24078 0.0
H332 H 0.08612 0.07485 0.74279 0.0
H333 H 0.24717 0.11618 0.75826 0.0
H334 H 0.12003 0.18348 0.77016 0.0
H335 H 0.21206 0.00426 0.76709 0.0
H336 H 0.20133 0.14156 0.74699 0.0
H337 H 0.13285 0.04938 0.73791 0.0
C338 C 0.10338 0.0934 0.74761 0.0
C339 C 0.09918 0.13123 0.75729 0.0
C340 C 0.20379 0.11135 0.75082 0.0
C341 C 0.15259 0.10243 0.7512 0.0
C342 C 0.22999 0.09673 0.75689 0.0
C343 C 0.2334 0.05808 0.76412 0.0
C344 C 0.18095 0.08708 0.75164 0.0
C345 C 0.21031 0.03432 0.76209 0.0
C346 C 0.13001 0.07885 0.74476 0.0
C347 C 0.12232 0.15402 0.76305 0.0
N348 N 0.185 0.04926 0.7564 0.0
N349 N 0.14803 0.13924 0.75996 0.0
H350 H 0.2192 0.99372 0.21108 0.0
H351 H 0.12702 0.80954 0.20973 0.0
H352 H 0.25314 0.88049 0.20944 0.0
H353 H 0.09539 0.91942 0.23803 0.0
H354 H 0.17367 0.83474 0.21253 0.0
H355 H 0.17439 0.96731 0.22549 0.0
C356 C 0.21738 0.96335 0.21448 0.0
C357 C 0.23991 0.93925 0.2086 0.0
C358 C 0.15656 0.85327 0.21848 0.0
C359 C 0.18848 0.90877 0.22434 0.0
C360 C 0.12988 0.83896 0.21666 0.0
C361 C 0.10723 0.86254 0.22328 0.0
C362 C 0.16068 0.89161 0.22649 0.0
C363 C 0.11223 0.90029 0.23252 0.0
C364 C 0.19174 0.94828 0.22263 0.0
C365 C 0.23636 0.90016 0.21359 0.0
N366 N 0.1384 0.9138 0.23344 0.0
N367 N 0.21099 0.88607 0.22051 0.0
H368 H 0.19017 0.58781 0.27853 0.0
H369 H 0.04137 0.61961 0.19981 0.0
H370 H 0.13268 0.49664 0.26188 0.0
H371 H 0.10022 0.70907 0.21681 0.0
H372 H 0.07566 0.5732 0.21776 0.0
H373 H 0.15887 0.63132 0.25109 0.0
C374 C 0.17106 0.57679 0.26885 0.0
C375 C 0.16401 0.53845 0.27284 0.0
C376 C 0.08111 0.60296 0.21731 0.0
C377 C 0.12775 0.58853 0.24146 0.0
C378 C 0.06154 0.62953 0.20702 0.0
C379 C 0.06777 0.66845 0.207 0.0
C380 C 0.10712 0.61535 0.22769 0.0
C381 C 0.09432 0.67947 0.2166 0.0
C382 C 0.15313 0.60175 0.25316 0.0
C383 C 0.13899 0.52593 0.25947 0.0
N384 N 0.11288 0.65314 0.2267 0.0
N385 N 0.12164 0.55097 0.24467 0.0
H386 H 0.5648 0.73391 0.73736 0.0
H387 H 0.55947 0.91894 0.8499 0.0
H388 H 0.49302 0.76672 0.7932 0.0
H389 H 0.63377 0.87627 0.8045 0.0
H390 H 0.53503 0.86268 0.8308 0.0
H391 H 0.591 0.7838 0.76444 0.0
C392 C 0.55471 0.75127 0.75585 0.0
C393 C 0.52674 0.74639 0.76304 0.0
C394 C 0.5567 0.86555 0.82512 0.0
C395 C 0.55639 0.80417 0.79358 0.0
C396 C 0.57065 0.89781 0.83581 0.0
C397 C 0.59871 0.90244 0.82861 0.0
C398 C 0.57084 0.83779 0.80693 0.0
C399 C 0.61213 0.87399 0.81048 0.0
C400 C 0.56964 0.77985 0.7712 0.0
C401 C 0.51462 0.76951 0.78714 0.0
N402 N 0.59804 0.84295 0.80016 0.0
N403 N 0.52945 0.79787 0.80126 0.0
H404 H 0.91747 0.23308 0.2046 0.0
H405 H 0.87988 0.44743 0.2533 0.0
H406 H 0.96918 0.32901 0.18175 0.0
H407 H 0.82831 0.35123 0.27567 0.0
H408 H 0.91117 0.40521 0.22341 0.0
H409 H 0.8832 0.27649 0.22753 0.0
C410 C 0.92162 0.26326 0.20425 0.0
C411 C 0.94641 0.2773 0.19133 0.0
C412 C 0.8929 0.3934 0.23467 0.0
C413 C 0.90711 0.3273 0.21769 0.0
C414 C 0.87494 0.41754 0.25168 0.0
C415 C 0.85144 0.40293 0.2673 0.0
C416 C 0.88741 0.35429 0.23326 0.0
C417 C 0.84621 0.36386 0.26425 0.0
C418 C 0.90199 0.28807 0.21737 0.0
C419 C 0.95048 0.31678 0.19153 0.0
N420 N 0.86411 0.34095 0.24781 0.0
N421 N 0.93112 0.34032 0.20462 0.0
H422 H 0.43567 0.29705 0.68143 0.0
H423 H 0.42227 0.11758 0.7967 0.0
H424 H 0.49528 0.27011 0.75608 0.0
H425 H 0.35374 0.16339 0.74227 0.0
H426 H 0.44944 0.17304 0.78178 0.0
H427 H 0.40458 0.24984 0.70461 0.0
C428 C 0.44183 0.2818 0.70332 0.0
C429 C 0.46791 0.28733 0.71701 0.0
C430 C 0.42842 0.17104 0.77323 0.0
C431 C 0.43302 0.23246 0.7429 0.0
C432 C 0.41297 0.13918 0.78142 0.0
C433 C 0.38573 0.13576 0.77052 0.0
C434 C 0.41666 0.19948 0.75373 0.0
C435 C 0.37471 0.1648 0.75106 0.0
C436 C 0.4242 0.25473 0.7164 0.0
C437 C 0.47517 0.2668 0.7451 0.0
N438 N 0.39028 0.19539 0.74314 0.0
N439 N 0.45796 0.23964 0.75684 0.0
H440 H 0.17628 0.42115 0.71537 0.0
H441 H 0.02319 0.37332 0.77429 0.0
H442 H 0.11126 0.50464 0.71873 0.0
H443 H 0.08923 0.2914 0.76939 0.0
H444 H 0.05579 0.42326 0.75943 0.0
H445 H 0.1456 0.37528 0.74085 0.0
C446 C 0.1556 0.43002 0.72175 0.0
C447 C 0.14632 0.46684 0.71454 0.0
C448 C 0.06317 0.39441 0.7619 0.0
C449 C 0.11077 0.41394 0.74363 0.0
C450 C 0.04457 0.36581 0.77045 0.0
C451 C 0.05336 0.3279 0.77292 0.0
C452 C 0.09082 0.38511 0.75573 0.0
C453 C 0.08137 0.32007 0.76761 0.0
C454 C 0.13803 0.40369 0.73632 0.0
C455 C 0.11933 0.47661 0.72374 0.0
N456 N 0.09898 0.34832 0.75909 0.0
N457 N 0.10241 0.4502 0.73747 0.0
H458 H 0.39841 0.82808 0.13001 0.0
H459 H 0.44307 0.70859 0.28713 0.0
H460 H 0.36479 0.84418 0.22747 0.0
H461 H 0.49581 0.71933 0.20212 0.0
H462 H 0.40885 0.74806 0.26039 0.0
H463 H 0.42952 0.77958 0.15176 0.0
C464 C 0.39747 0.82128 0.15595 0.0
C465 C 0.37905 0.84024 0.17706 0.0
C466 C 0.4278 0.74165 0.24742 0.0
C467 C 0.41429 0.78471 0.20179 0.0
C468 C 0.44733 0.71902 0.2626 0.0
C469 C 0.47249 0.71128 0.24698 0.0
C470 C 0.43335 0.75674 0.21629 0.0
C471 C 0.47669 0.72486 0.215 0.0
C472 C 0.41525 0.79369 0.16827 0.0
C473 C 0.37875 0.83042 0.21039 0.0
N474 N 0.45735 0.74742 0.20072 0.0
N475 N 0.39608 0.80325 0.22171 0.0
H476 H 0.81956 0.63998 0.7033 0.0
H477 H 0.96077 0.67362 0.7986 0.0
H478 H 0.87309 0.54906 0.7344 0.0
H479 H 0.9013 0.7624 0.78109 0.0
H480 H 0.92848 0.62747 0.77623 0.0
H481 H 0.84874 0.68511 0.73253 0.0
C482 C 0.83734 0.62942 0.71641 0.0
C483 C 0.84391 0.5906 0.71618 0.0
C484 C 0.92241 0.65702 0.77748 0.0
C485 C 0.87755 0.64229 0.7496 0.0
C486 C 0.94088 0.68346 0.79025 0.0
C487 C 0.93391 0.72214 0.79153 0.0
C488 C 0.8968 0.66925 0.76561 0.0
C489 C 0.90771 0.73301 0.78044 0.0
C490 C 0.85399 0.65525 0.73315 0.0
C491 C 0.86719 0.57868 0.73378 0.0
N492 N 0.89023 0.70677 0.76772 0.0
N493 N 0.88326 0.60444 0.74954 0.0
H494 H 0.66634 0.1373 0.22122 0.0
H495 H 0.5768 0.28432 0.20441 0.0
H496 H 0.59561 0.09131 0.27108 0.0
H497 H 0.51159 0.20206 0.20417 0.0
H498 H 0.61033 0.23328 0.19981 0.0
H499 H 0.63572 0.17841 0.18902 0.0
C500 C 0.64431 0.13544 0.22489 0.0
C501 C 0.63335 0.11135 0.24893 0.0
C502 C 0.58871 0.22617 0.19889 0.0
C503 C 0.59845 0.1584 0.21296 0.0
C504 C 0.5695 0.25552 0.20119 0.0
C505 C 0.54151 0.24723 0.20478 0.0
C506 C 0.57968 0.18841 0.2011 0.0
C507 C 0.53307 0.20948 0.20139 0.0
C508 C 0.6269 0.15898 0.2067 0.0
C509 C 0.60478 0.10987 0.25294 0.0
N510 N 0.55216 0.18125 0.2011 0.0
N511 N 0.58832 0.13331 0.23531 0.0
H512 H 0.6098 0.04307 0.78938 0.0
H513 H 0.59296 0.24728 0.7054 0.0
H514 H 0.6652 0.13692 0.80509 0.0
H515 H 0.53427 0.15658 0.69325 0.0
H516 H 0.62184 0.20493 0.73776 0.0
H517 H 0.58408 0.0819 0.75017 0.0
C518 C 0.61672 0.07169 0.78445 0.0
C519 C 0.63966 0.08674 0.80083 0.0
C520 C 0.60273 0.19417 0.72786 0.0
C521 C 0.6102 0.13141 0.75594 0.0
C522 C 0.5862 0.21837 0.70927 0.0
C523 C 0.56097 0.20566 0.69665 0.0
C524 C 0.59406 0.15686 0.73406 0.0
C525 C 0.55347 0.16775 0.70251 0.0
C526 C 0.60196 0.09388 0.76208 0.0
C527 C 0.64759 0.12407 0.79332 0.0
N528 N 0.56984 0.1448 0.72094 0.0
N529 N 0.63285 0.14508 0.7716 0.0
H530 H 0.12863 0.30667 0.3404 0.0
H531 H 0.07317 0.2129 0.17482 0.0
H532 H 0.15283 0.34238 0.24304 0.0
H533 H 0.03201 0.19869 0.26818 0.0
H534 H 0.10745 0.2524 0.20134 0.0
H535 H 0.09778 0.25986 0.3159 0.0
C536 C 0.1276 0.30453 0.31386 0.0
C537 C 0.14326 0.32856 0.29367 0.0
C538 C 0.091 0.24063 0.21612 0.0
C539 C 0.10813 0.275 0.26566 0.0
C540 C 0.07137 0.21805 0.20101 0.0
C541 C 0.04941 0.20308 0.21926 0.0
C542 C 0.08883 0.24829 0.24984 0.0
C543 C 0.04853 0.20992 0.25322 0.0
C544 C 0.10993 0.27787 0.29996 0.0
C545 C 0.14105 0.32456 0.2595 0.0
N546 N 0.06792 0.23237 0.26747 0.0
N547 N 0.1238 0.29827 0.24658 0.0
H548 H 0.32333 0.90312 0.76561 0.0
H549 H 0.47565 0.86835 0.69804 0.0
H550 H 0.38262 0.99328 0.75491 0.0
H551 H 0.41212 0.78292 0.6995 0.0
H552 H 0.44144 0.9158 0.71478 0.0
H553 H 0.35499 0.86 0.73779 0.0
C554 C 0.34294 0.91397 0.75721 0.0
C555 C 0.35035 0.95189 0.7629 0.0
C556 C 0.43497 0.88674 0.71105 0.0
C557 C 0.387 0.90233 0.73108 0.0
C558 C 0.45448 0.85962 0.70139 0.0
C559 C 0.44689 0.82141 0.69764 0.0
C560 C 0.40769 0.87556 0.71713 0.0
C561 C 0.4191 0.81188 0.70237 0.0
C562 C 0.36105 0.88928 0.74123 0.0
C563 C 0.37602 0.96429 0.75114 0.0
N564 N 0.40066 0.83863 0.71214 0.0
N565 N 0.39354 0.93948 0.73612 0.0
H566 H 0.86514 0.60796 0.25512 0.0
H567 H 0.99572 0.733 0.29775 0.0
H568 H 0.89492 0.6172 0.35472 0.0
H569 H 0.94266 0.75431 0.21492 0.0
H570 H 0.96106 0.68871 0.31964 0.0
H571 H 0.89658 0.65867 0.23895 0.0
C572 C 0.8783 0.62066 0.27354 0.0
C573 C 0.87742 0.60849 0.30624 0.0
C574 C 0.95698 0.7036 0.29691 0.0
C575 C 0.91345 0.66624 0.28803 0.0
C576 C 0.97662 0.72896 0.2846 0.0
C577 C 0.97215 0.74677 0.25431 0.0
C578 C 0.93312 0.69612 0.27851 0.0
C579 C 0.94713 0.74055 0.23808 0.0
C580 C 0.89611 0.64972 0.2644 0.0
C581 C 0.89488 0.62595 0.32922 0.0
N582 N 0.92876 0.71538 0.25013 0.0
N583 N 0.91239 0.65382 0.31964 0.0
H584 H 0.67007 0.8917 0.19098 0.0
H585 H 0.54303 0.84444 0.30907 0.0
H586 H 0.63174 0.97425 0.25512 0.0
H587 H 0.59396 0.75763 0.26484 0.0
H588 H 0.57442 0.89262 0.2878 0.0
H589 H 0.64146 0.84223 0.2159 0.0
C590 C 0.65577 0.89944 0.21034 0.0
C591 C 0.65335 0.93729 0.22087 0.0
C592 C 0.57883 0.86301 0.28293 0.0
C593 C 0.6204 0.88084 0.24931 0.0
C594 C 0.56088 0.83545 0.29506 0.0
C595 C 0.56578 0.79683 0.28876 0.0
C596 C 0.60174 0.85204 0.26397 0.0
C597 C 0.58933 0.787 0.27043 0.0
C598 C 0.63948 0.87117 0.2246 0.0
C599 C 0.63442 0.94554 0.24614 0.0
N600 N 0.60629 0.8144 0.25848 0.0
N601 N 0.61861 0.91766 0.25929 0.0
H602 H 0.92352 0.44217 0.70128 0.0
H603 H 0.9358 0.21831 0.72402 0.0
H604 H 0.85511 0.36864 0.72385 0.0
H605 H 0.00533 0.29015 0.70391 0.0
H606 H 0.90508 0.27201 0.7149 0.0
H607 H 0.95343 0.38662 0.69737 0.0
C608 C 0.91483 0.4144 0.70585 0.0
C609 C 0.88673 0.41009 0.71295 0.0
C610 C 0.92699 0.27596 0.71159 0.0
C611 C 0.92076 0.34634 0.70772 0.0
C612 C 0.94445 0.24512 0.71613 0.0
C613 C 0.97297 0.24994 0.71431 0.0
C614 C 0.93826 0.31198 0.70586 0.0
C615 C 0.98335 0.28531 0.70492 0.0
C616 C 0.93188 0.38267 0.70322 0.0
C617 C 0.87664 0.37339 0.71846 0.0
N618 N 0.96599 0.31534 0.7017 0.0
N619 N 0.89363 0.34295 0.71561 0.0
H620 H 0.48604 0.12354 0.26486 0.0
H621 H 0.33006 0.09468 0.20881 0.0
H622 H 0.42474 0.21237 0.26492 0.0
H623 H 0.38925 0.0033 0.21186 0.0
H624 H 0.36366 0.13653 0.23426 0.0
H625 H 0.45032 0.07773 0.25021 0.0
C626 C 0.46507 0.1334 0.26215 0.0
C627 C 0.45851 0.17203 0.2659 0.0
C628 C 0.36929 0.10725 0.22966 0.0
C629 C 0.41751 0.11966 0.24895 0.0
C630 C 0.35005 0.08325 0.21511 0.0
C631 C 0.35686 0.0454 0.20785 0.0
C632 C 0.39573 0.09357 0.23686 0.0
C633 C 0.38308 0.03226 0.21689 0.0
C634 C 0.44467 0.10719 0.25373 0.0
C635 C 0.43091 0.18301 0.26207 0.0
N636 N 0.40166 0.05641 0.23059 0.0
N637 N 0.41155 0.15707 0.2536 0.0
H638 H 0.13282 0.67319 0.73297 0.0
H639 H 0.9969 0.79588 0.71031 0.0
H640 H 0.09116 0.67899 0.63952 0.0
H641 H 0.0568 0.81597 0.78635 0.0
H642 H 0.02981 0.75269 0.68302 0.0
H643 H 0.10288 0.72366 0.75369 0.0
C644 C 0.11734 0.68503 0.71685 0.0
C645 C 0.11448 0.6719 0.68452 0.0
C646 C 0.03583 0.76717 0.70538 0.0
C647 C 0.08012 0.72966 0.70799 0.0
C648 C 0.01718 0.79202 0.72071 0.0
C649 C 0.02414 0.80914 0.75068 0.0
C650 C 0.06126 0.75947 0.72047 0.0
C651 C 0.05054 0.80291 0.76343 0.0
C652 C 0.10037 0.71403 0.72857 0.0
C653 C 0.09411 0.6884 0.66462 0.0
N654 N 0.06795 0.77822 0.74854 0.0
N655 N 0.07755 0.71627 0.67674 0.0
H656 H 0.21061 0.5089 0.57737 0.0
H657 H 0.13299 0.46303 0.41093 0.0
H658 H 0.12468 0.53699 0.56582 0.0
H659 H 0.21953 0.48943 0.4167 0.0
H660 H 0.12785 0.48147 0.46891 0.0
H661 H 0.21238 0.48935 0.52001 0.0
C662 C 0.19196 0.51036 0.56294 0.0
C663 C 0.16749 0.52485 0.5763 0.0
C664 C 0.14784 0.48351 0.45723 0.0
C665 C 0.16956 0.50298 0.51052 0.0
C666 C 0.15079 0.47317 0.42425 0.0
C667 C 0.17676 0.47462 0.40911 0.0
C668 C 0.17111 0.49455 0.47509 0.0
C669 C 0.19915 0.4879 0.42739 0.0
C670 C 0.19309 0.49958 0.5301 0.0
C671 C 0.14399 0.52613 0.55636 0.0
N672 N 0.19587 0.49691 0.45956 0.0
N673 N 0.1456 0.51544 0.52425 0.0
H674 H 0.56267 0.68997 0.42317 0.0
H675 H 0.46381 0.68109 0.5816 0.0
H676 H 0.47408 0.69115 0.41848 0.0
H677 H 0.54743 0.72183 0.58489 0.0
H678 H 0.46932 0.66974 0.52232 0.0
H679 H 0.55941 0.68647 0.48367 0.0
C680 C 0.54264 0.68889 0.43485 0.0
C681 C 0.51863 0.69142 0.41604 0.0
C682 C 0.48647 0.68093 0.53618 0.0
C683 C 0.5147 0.68708 0.4845 0.0
C684 C 0.48333 0.68739 0.56995 0.0
C685 C 0.505 0.70303 0.5881 0.0
C686 C 0.51158 0.68965 0.52067 0.0
C687 C 0.52996 0.71041 0.57175 0.0
C688 C 0.54075 0.68708 0.46922 0.0
C689 C 0.4931 0.6899 0.43223 0.0
N690 N 0.53255 0.70375 0.539 0.0
N691 N 0.4918 0.68795 0.46547 0.0
H692 H 0.79034 0.45585 0.41655 0.0
H693 H 0.87566 0.48683 0.58137 0.0
H694 H 0.87775 0.47727 0.41596 0.0
H695 H 0.78801 0.50415 0.57341 0.0
H696 H 0.87788 0.47551 0.52202 0.0
H697 H 0.79043 0.46061 0.4764 0.0
C698 C 0.80969 0.4605 0.42903 0.0
C699 C 0.834 0.46689 0.41126 0.0
C700 C 0.85824 0.48215 0.5333 0.0
C701 C 0.83408 0.47318 0.47949 0.0
C702 C 0.85699 0.489 0.56704 0.0
C703 C 0.8316 0.49636 0.5823 0.0
C704 C 0.83389 0.48216 0.51492 0.0
C705 C 0.80802 0.49868 0.56265 0.0
C706 C 0.80964 0.46379 0.46315 0.0
C707 C 0.85849 0.47267 0.42875 0.0
N708 N 0.80969 0.49112 0.52999 0.0
N709 N 0.85786 0.47619 0.46198 0.0
H710 H 0.53008 0.21554 0.38751 0.0
H711 H 0.53145 0.34816 0.54726 0.0
H712 H 0.50319 0.33224 0.38441 0.0
H713 H 0.53038 0.22592 0.54985 0.0
H714 H 0.5292 0.34545 0.48675 0.0
H715 H 0.53709 0.22136 0.44643 0.0
C716 C 0.52549 0.24243 0.3993 0.0
C717 C 0.51594 0.27344 0.38099 0.0
C718 C 0.52984 0.3193 0.50065 0.0
C719 C 0.52433 0.28043 0.44877 0.0
C720 C 0.53155 0.32082 0.53503 0.0
C721 C 0.53121 0.28717 0.5534 0.0
C722 C 0.52818 0.28389 0.48481 0.0
C723 C 0.53072 0.25248 0.53653 0.0
C724 C 0.52956 0.24573 0.43299 0.0
C725 C 0.51032 0.30754 0.39768 0.0
N726 N 0.52916 0.25175 0.50325 0.0
N727 N 0.51476 0.31023 0.43072 0.0
H728 H 0.61248 0.05252 0.12306 0.0
H729 H 0.68052 0.07817 0.94533 0.0
H730 H 0.69657 0.08358 0.10287 0.0
H731 H 0.60584 0.01458 0.96059 0.0
H732 H 0.67879 0.09872 0.00248 0.0
H733 H 0.60308 0.05441 0.06333 0.0
C734 C 0.62876 0.06019 0.10612 0.0
C735 C 0.65544 0.06712 0.11759 0.0
C736 C 0.66251 0.08074 0.99322 0.0
C737 C 0.64485 0.07028 0.05021 0.0
C738 C 0.66344 0.06914 0.9605 0.0
C739 C 0.64368 0.04392 0.94839 0.0
C740 C 0.6419 0.0666 0.01414 0.0
C741 C 0.62175 0.03362 0.96912 0.0
C742 C 0.62343 0.06131 0.07222 0.0
C743 C 0.67585 0.07723 0.0949 0.0
N744 N 0.62174 0.04434 0.0013 0.0
N745 N 0.67017 0.07837 0.06239 0.0
H746 H 0.98456 0.27151 0.89594 0.0
H747 H 0.99424 0.13203 0.05041 0.0
H748 H 0.01823 0.15847 0.88778 0.0
H749 H 0.97237 0.25041 0.05543 0.0
H750 H 0.99743 0.13714 0.99006 0.0
H751 H 0.97608 0.26108 0.95389 0.0
C752 C 0.9904 0.24447 0.90645 0.0
C753 C 1.00214 0.21581 0.88693 0.0
C754 C 0.99143 0.16175 0.00439 0.0
C755 C 0.99216 0.20342 0.9538 0.0
C756 C 0.98916 0.15867 0.03866 0.0
C757 C 0.98283 0.19083 0.05763 0.0
C758 C 0.98719 0.19717 0.98939 0.0
C759 C 0.97715 0.22497 0.04153 0.0
C760 C 0.98543 0.23845 0.93964 0.0
C761 C 0.00936 0.18142 0.90204 0.0
N762 N 0.97963 0.22728 0.00842 0.0
N763 N 0.00413 0.17607 0.93468 0.0
H764 H 0.37444 0.03258 0.90322 0.0
H765 H 0.28916 0.00312 0.06815 0.0
H766 H 0.28717 0.01037 0.90562 0.0
H767 H 0.37558 0.9754 0.062 0.0
H768 H 0.2895 0.01824 0.00965 0.0
H769 H 0.3765 0.02035 0.96248 0.0
C770 C 0.35582 0.02462 0.91613 0.0
C771 C 0.33059 0.02249 0.8996 0.0
C772 C 0.30842 0.00912 0.02121 0.0
C773 C 0.33271 0.00967 0.96707 0.0
C774 C 0.30833 1.00092 0.05465 0.0
C775 C 0.33233 0.98766 0.06981 0.0
C776 C 0.33272 0.00441 0.00297 0.0
C777 C 0.35658 0.98528 0.05112 0.0
C778 C 0.357 0.01787 0.94987 0.0
C779 C 0.30706 0.01219 0.91741 0.0
N780 N 0.35616 0.9934 0.0185 0.0
N781 N 0.30863 0.00659 0.95032 0.0
H782 H 0.97478 0.7451 0.92218 0.0
H783 H 0.02392 0.8393 0.09143 0.0
H784 H 0.98845 0.86536 0.93146 0.0
H785 H 0.01503 0.71925 0.07388 0.0
H786 H 0.01137 0.85125 0.03373 0.0
H787 H 0.98639 0.73709 0.97985 0.0
C788 C 0.97951 0.76999 0.9368 0.0
C789 C 0.98043 0.80592 0.92233 0.0
C790 C 0.01255 0.82232 0.04249 0.0
C791 C 0.99506 0.79696 0.98813 0.0
C792 C 0.02015 0.81547 0.07519 0.0
C793 C 0.02048 0.77823 0.08731 0.0
C794 C 0.0053 0.79163 0.02214 0.0
C795 C 0.01491 0.7484 0.06552 0.0
C796 C 0.98657 0.76541 0.96961 0.0
C797 C 0.9871 0.83727 0.94204 0.0
N798 N 0.00735 0.75577 0.03418 0.0
N799 N 0.99452 0.83204 0.97402 0.0
loop_
_geom_bond_atom_site_label_1
_geom_bond_atom_site_label_2
_geom_bond_distance
_geom_bond_site_symmetry_2
_ccdc_geom_bond_type
Mg0 O1 2.028 . S
Mg0 O7 1.986 . S
Mg0 O9 2.114 . S
Mg0 O10 2.251 . S
Mg0 O13 2.010 . S
O1 Mg0 2.028 . S
O1 C4 1.250 . S
O2 Mg3 2.028 . S
O2 C4 1.248 . S
Mg3 O2 2.028 . S
Mg3 O8 2.032 . S
Mg3 O10 2.079 . S
C4 O1 1.250 . S
C4 O2 1.248 . S
C5 O6 1.264 . S
C5 O13 1.249 . S
O6 C5 1.264 . S
O7 Mg0 1.986 . S
O7 C11 1.246 . S
O8 Mg3 2.032 . S
O8 C11 1.259 . S
O9 Mg0 2.114 . S
O9 C12 1.252 . S
O10 Mg0 2.251 . S
O10 Mg3 2.079 . S
O10 C12 1.273 . S
C11 O7 1.246 . S
C11 O8 1.259 . S
C12 O9 1.252 . S
C12 O10 1.273 . S
O13 Mg0 2.010 . S
O13 C5 1.249 . S
Mg14 O15 2.028 . S
Mg14 O21 1.986 . S
Mg14 O23 2.114 . S
Mg14 O24 2.251 . S
Mg14 O27 2.010 . S
O15 Mg14 2.028 . S
O15 C18 1.250 . S
O16 Mg17 2.028 . S
O16 C18 1.248 . S
Mg17 O16 2.028 . S
Mg17 O22 2.032 . S
Mg17 O24 2.079 . S
C18 O15 1.250 . S
C18 O16 1.248 . S
C19 O20 1.264 . S
C19 O27 1.249 . S
O20 C19 1.264 . S
O21 Mg14 1.986 . S
O21 C25 1.246 . S
O22 Mg17 2.032 . S
O22 C25 1.259 . S
O23 Mg14 2.114 . S
O23 C26 1.252 . S
O24 Mg14 2.251 . S
O24 Mg17 2.079 . S
O24 C26 1.273 . S
C25 O21 1.246 . S
C25 O22 1.259 . S
C26 O23 1.252 . S
C26 O24 1.273 . S
O27 Mg14 2.010 . S
O27 C19 1.249 . S
Mg28 O29 2.028 . S
Mg28 O35 1.986 . S
Mg28 O37 2.114 . S
Mg28 O38 2.251 . S
Mg28 O41 2.010 . S
O29 Mg28 2.028 . S
O29 C32 1.250 . S
O30 Mg31 2.028 . S
O30 C32 1.248 . S
Mg31 O30 2.028 . S
Mg31 O36 2.032 . S
Mg31 O38 2.079 . S
C32 O29 1.250 . S
C32 O30 1.248 . S
C33 O34 1.264 . S
C33 O41 1.249 . S
O34 C33 1.264 . S
O35 Mg28 1.986 . S
O35 C39 1.246 . S
O36 Mg31 2.032 . S
O36 C39 1.259 . S
O37 Mg28 2.114 . S
O37 C40 1.252 . S
O38 Mg28 2.251 . S
O38 Mg31 2.079 . S
O38 C40 1.273 . S
C39 O35 1.246 . S
C39 O36 1.259 . S
C40 O37 1.252 . S
C40 O38 1.273 . S
O41 Mg28 2.010 . S
O41 C33 1.249 . S
Mg42 O43 2.028 . S
Mg42 O49 1.986 . S
Mg42 O51 2.114 . S
Mg42 O52 2.251 . S
Mg42 O55 2.010 . S
O43 Mg42 2.028 . S
O43 C46 1.250 . S
O44 Mg45 2.028 . S
O44 C46 1.248 . S
Mg45 O44 2.028 . S
Mg45 O50 2.032 . S
Mg45 O52 2.079 . S
C46 O43 1.250 . S
C46 O44 1.248 . S
C47 O48 1.264 . S
C47 O55 1.249 . S
O48 C47 1.264 . S
O49 Mg42 1.986 . S
O49 C53 1.246 . S
O50 Mg45 2.032 . S
O50 C53 1.259 . S
O51 Mg42 2.114 . S
O51 C54 1.252 . S
O52 Mg42 2.251 . S
O52 Mg45 2.079 . S
O52 C54 1.273 . S
C53 O49 1.246 . S
C53 O50 1.259 . S
C54 O51 1.252 . S
C54 O52 1.273 . S
O55 Mg42 2.010 . S
O55 C47 1.249 . S
Mg56 O57 2.028 . S
Mg56 O63 1.986 . S
Mg56 O65 2.114 . S
Mg56 O66 2.251 . S
Mg56 O69 2.010 . S
O57 Mg56 2.028 . S
O57 C60 1.250 . S
O58 Mg59 2.028 . S
O58 C60 1.248 . S
Mg59 O58 2.028 . S
Mg59 O64 2.032 . S
Mg59 O66 2.079 . S
C60 O57 1.250 . S
C60 O58 1.248 . S
C61 O62 1.264 . S
C61 O69 1.249 . S
O62 C61 1.264 . S
O63 Mg56 1.986 . S
O63 C67 1.246 . S
O64 Mg59 2.032 . S
O64 C67 1.259 . S
O65 Mg56 2.114 . S
O65 C68 1.252 . S
O66 Mg56 2.251 . S
O66 Mg59 2.079 . S
O66 C68 1.273 . S
C67 O63 1.246 . S
C67 O64 1.259 . S
C68 O65 1.252 . S
C68 O66 1.273 . S
O69 Mg56 2.010 . S
O69 C61 1.249 . S
Mg70 O71 2.028 . S
Mg70 O77 1.986 . S
Mg70 O79 2.114 . S
Mg70 O80 2.251 . S
Mg70 O83 2.010 . S
O71 Mg70 2.028 . S
O71 C74 1.250 . S
O72 Mg73 2.028 . S
O72 C74 1.248 . S
Mg73 O72 2.028 . S
Mg73 O78 2.032 . S
Mg73 O80 2.079 . S
C74 O71 1.250 . S
C74 O72 1.248 . S
C75 O76 1.264 . S
C75 O83 1.249 . S
O76 C75 1.264 . S
O77 Mg70 1.986 . S
O77 C81 1.246 . S
O78 Mg73 2.032 . S
O78 C81 1.259 . S
O79 Mg70 2.114 . S
O79 C82 1.252 . S
O80 Mg70 2.251 . S
O80 Mg73 2.079 . S
O80 C82 1.273 . S
C81 O77 1.246 . S
C81 O78 1.259 . S
C82 O79 1.252 . S
C82 O80 1.273 . S
O83 Mg70 2.010 . S
O83 C75 1.249 . S
Mg84 O85 2.028 . S
Mg84 O91 1.986 . S
Mg84 O93 2.114 . S
Mg84 O94 2.251 . S
Mg84 O97 2.010 . S
O85 Mg84 2.028 . S
O85 C88 1.250 . S
O86 Mg87 2.028 . S
O86 C88 1.248 . S
Mg87 O86 2.028 . S
Mg87 O92 2.032 . S
Mg87 O94 2.079 . S
C88 O85 1.250 . S
C88 O86 1.248 . S
C89 O90 1.264 . S
C89 O97 1.249 . S
O90 C89 1.264 . S
O91 Mg84 1.986 . S
O91 C95 1.246 . S
O92 Mg87 2.032 . S
O92 C95 1.259 . S
O93 Mg84 2.114 . S
O93 C96 1.252 . S
O94 Mg84 2.251 . S
O94 Mg87 2.079 . S
O94 C96 1.273 . S
C95 O91 1.246 . S
C95 O92 1.259 . S
C96 O93 1.252 . S
C96 O94 1.273 . S
O97 Mg84 2.010 . S
O97 C89 1.249 . S
Mg98 O99 2.028 . S
Mg98 O105 1.986 . S
Mg98 O107 2.114 . S
Mg98 O108 2.251 . S
Mg98 O111 2.010 . S
O99 Mg98 2.028 . S
O99 C102 1.250 . S
O100 Mg101 2.028 . S
O100 C102 1.248 . S
Mg101 O100 2.028 . S
Mg101 O106 2.032 . S
Mg101 O108 2.079 . S
C102 O99 1.250 . S
C102 O100 1.248 . S
C103 O104 1.264 . S
C103 O111 1.249 . S
O104 C103 1.264 . S
O105 Mg98 1.986 . S
O105 C109 1.246 . S
O106 Mg101 2.032 . S
O106 C109 1.259 . S
O107 Mg98 2.114 . S
O107 C110 1.252 . S
O108 Mg98 2.251 . S
O108 Mg101 2.079 . S
O108 C110 1.273 . S
C109 O105 1.246 . S
C109 O106 1.259 . S
C110 O107 1.252 . S
C110 O108 1.273 . S
O111 Mg98 2.010 . S
O111 C103 1.249 . S
Mg112 O113 2.028 . S
Mg112 O119 1.986 . S
Mg112 O121 2.114 . S
Mg112 O122 2.251 . S
Mg112 O125 2.010 . S
O113 Mg112 2.028 . S
O113 C116 1.250 . S
O114 Mg115 2.028 1_545 S
O114 C116 1.248 1_545 S
Mg115 O114 2.028 1_565 S
Mg115 O120 2.032 . S
Mg115 O122 2.079 . S
C116 O113 1.250 . S
C116 O114 1.248 1_565 S
C117 O118 1.264 . S
C117 O125 1.249 . S
O118 C117 1.264 . S
O119 Mg112 1.986 . S
O119 C123 1.246 . S
O120 Mg115 2.032 . S
O120 C123 1.259 . S
O121 Mg112 2.114 . S
O121 C124 1.252 . S
O122 Mg112 2.251 . S
O122 Mg115 2.079 . S
O122 C124 1.273 . S
C123 O119 1.246 . S
C123 O120 1.259 . S
C124 O121 1.252 . S
C124 O122 1.273 . S
O125 Mg112 2.010 . S
O125 C117 1.249 . S
Mg126 O127 2.028 . S
Mg126 O133 1.986 . S
Mg126 O135 2.114 . S
Mg126 O136 2.251 . S
Mg126 O139 2.010 . S
O127 Mg126 2.028 . S
O127 C130 1.250 . S
O128 Mg129 2.028 . S
O128 C130 1.248 . S
Mg129 O128 2.028 . S
Mg129 O134 2.032 . S
Mg129 O136 2.079 . S
C130 O127 1.250 . S
C130 O128 1.248 . S
C131 O132 1.264 . S
C131 O139 1.249 . S
O132 C131 1.264 . S
O133 Mg126 1.986 . S
O133 C137 1.246 . S
O134 Mg129 2.032 . S
O134 C137 1.259 . S
O135 Mg126 2.114 . S
O135 C138 1.252 . S
O136 Mg126 2.251 . S
O136 Mg129 2.079 . S
O136 C138 1.273 . S
C137 O133 1.246 . S
C137 O134 1.259 . S
C138 O135 1.252 . S
C138 O136 1.273 . S
O139 Mg126 2.010 . S
O139 C131 1.249 . S
Mg140 O141 2.028 . S
Mg140 O147 1.986 . S
Mg140 O149 2.114 . S
Mg140 O150 2.251 . S
Mg140 O153 2.010 . S
O141 Mg140 2.028 . S
O141 C144 1.250 . S
O142 Mg143 2.028 1_565 S
O142 C144 1.248 1_565 S
Mg143 O142 2.028 1_545 S
Mg143 O148 2.032 . S
Mg143 O150 2.079 . S
C144 O141 1.250 . S
C144 O142 1.248 1_545 S
C145 O146 1.264 . S
C145 O153 1.249 . S
O146 C145 1.264 . S
O147 Mg140 1.986 . S
O147 C151 1.246 . S
O148 Mg143 2.032 . S
O148 C151 1.259 . S
O149 Mg140 2.114 . S
O149 C152 1.252 . S
O150 Mg140 2.251 . S
O150 Mg143 2.079 . S
O150 C152 1.273 . S
C151 O147 1.246 . S
C151 O148 1.259 . S
C152 O149 1.252 . S
C152 O150 1.273 . S
O153 Mg140 2.010 . S
O153 C145 1.249 . S
Mg154 O155 2.028 . S
Mg154 O161 1.986 . S
Mg154 O163 2.114 . S
Mg154 O164 2.251 . S
Mg154 O167 2.010 . S
O155 Mg154 2.028 . S
O155 C158 1.250 . S
O156 Mg157 2.028 . S
O156 C158 1.248 . S
Mg157 O156 2.028 . S
Mg157 O162 2.032 . S
Mg157 O164 2.079 . S
C158 O155 1.250 . S
C158 O156 1.248 . S
C159 O160 1.264 . S
C159 O167 1.249 . S
O160 C159 1.264 . S
O161 Mg154 1.986 . S
O161 C165 1.246 . S
O162 Mg157 2.032 . S
O162 C165 1.259 . S
O163 Mg154 2.114 . S
O163 C166 1.252 . S
O164 Mg154 2.251 . S
O164 Mg157 2.079 . S
O164 C166 1.273 . S
C165 O161 1.246 . S
C165 O162 1.259 . S
C166 O163 1.252 . S
C166 O164 1.273 . S
O167 Mg154 2.010 . S
O167 C159 1.249 . S
Mg168 O169 2.028 . S
Mg168 O175 1.986 . S
Mg168 O177 2.114 . S
Mg168 O178 2.251 . S
Mg168 O181 2.010 . S
O169 Mg168 2.028 . S
O169 C172 1.250 . S
O170 Mg171 2.028 1_565 S
O170 C172 1.248 1_565 S
Mg171 O170 2.028 1_545 S
Mg171 O176 2.032 . S
Mg171 O178 2.079 . S
C172 O169 1.250 . S
C172 O170 1.248 1_545 S
C173 O174 1.264 . S
C173 O181 1.249 . S
O174 C173 1.264 . S
O175 Mg168 1.986 . S
O175 C179 1.246 . S
O176 Mg171 2.032 . S
O176 C179 1.259 . S
O177 Mg168 2.114 . S
O177 C180 1.252 . S
O178 Mg168 2.251 . S
O178 Mg171 2.079 . S
O178 C180 1.273 . S
C179 O175 1.246 . S
C179 O176 1.259 . S
C180 O177 1.252 . S
C180 O178 1.273 . S
O181 Mg168 2.010 . S
O181 C173 1.249 . S
Mg182 O183 2.028 . S
Mg182 O189 1.986 . S
Mg182 O191 2.114 . S
Mg182 O192 2.251 . S
Mg182 O195 2.010 . S
O183 Mg182 2.028 . S
O183 C186 1.250 . S
O184 Mg185 2.028 . S
O184 C186 1.248 . S
Mg185 O184 2.028 . S
Mg185 O190 2.032 . S
Mg185 O192 2.079 . S
C186 O183 1.250 . S
C186 O184 1.248 . S
C187 O188 1.264 . S
C187 O195 1.249 . S
O188 C187 1.264 . S
O189 Mg182 1.986 . S
O189 C193 1.246 . S
O190 Mg185 2.032 . S
O190 C193 1.259 . S
O191 Mg182 2.114 . S
O191 C194 1.252 . S
O192 Mg182 2.251 . S
O192 Mg185 2.079 . S
O192 C194 1.273 . S
C193 O189 1.246 . S
C193 O190 1.259 . S
C194 O191 1.252 . S
C194 O192 1.273 . S
O195 Mg182 2.010 . S
O195 C187 1.249 . S
Mg196 O197 2.028 . S
Mg196 O203 1.986 . S
Mg196 O205 2.114 . S
Mg196 O206 2.251 . S
Mg196 O209 2.010 . S
O197 Mg196 2.028 . S
O197 C200 1.250 . S
O198 Mg199 2.028 1_545 S
O198 C200 1.248 1_545 S
Mg199 O198 2.028 1_565 S
Mg199 O204 2.032 . S
Mg199 O206 2.079 . S
C200 O197 1.250 . S
C200 O198 1.248 1_565 S
C201 O202 1.264 . S
C201 O209 1.249 . S
O202 C201 1.264 . S
O203 Mg196 1.986 . S
O203 C207 1.246 . S
O204 Mg199 2.032 . S
O204 C207 1.259 . S
O205 Mg196 2.114 . S
O205 C208 1.252 . S
O206 Mg196 2.251 . S
O206 Mg199 2.079 . S
O206 C208 1.273 . S
C207 O203 1.246 . S
C207 O204 1.259 . S
C208 O205 1.252 . S
C208 O206 1.273 . S
O209 Mg196 2.010 . S
O209 C201 1.249 . S
Mg210 O211 2.028 . S
Mg210 O217 1.986 . S
Mg210 O219 2.114 . S
Mg210 O220 2.251 . S
Mg210 O223 2.010 . S
O211 Mg210 2.028 . S
O211 C214 1.250 . S
O212 Mg213 2.028 . S
O212 C214 1.248 . S
Mg213 O212 2.028 . S
Mg213 O218 2.032 . S
Mg213 O220 2.079 . S
C214 O211 1.250 . S
C214 O212 1.248 . S
C215 O216 1.264 . S
C215 O223 1.249 . S
O216 C215 1.264 . S
O217 Mg210 1.986 . S
O217 C221 1.246 . S
O218 Mg213 2.032 . S
O218 C221 1.259 . S
O219 Mg210 2.114 . S
O219 C222 1.252 . S
O220 Mg210 2.251 . S
O220 Mg213 2.079 . S
O220 C222 1.273 . S
C221 O217 1.246 . S
C221 O218 1.259 . S
C222 O219 1.252 . S
C222 O220 1.273 . S
O223 Mg210 2.010 . S
O223 C215 1.249 . S
H224 C230 0.930 . S
H225 C234 0.930 . S
H226 C239 0.929 . S
H227 C237 0.929 . S
H228 C232 0.929 . S
H229 C238 0.929 . S
C230 H224 0.930 . S
C230 C231 1.367 . S
C230 C238 1.378 . S
C231 C230 1.367 . S
C231 C239 1.433 . S
C232 H228 0.929 . S
C232 C234 1.378 . S
C232 C236 1.350 . S
C233 C236 1.463 . S
C233 C238 1.350 . S
C233 N241 1.427 . S
C234 H225 0.930 . S
C234 C232 1.378 . S
C234 C235 1.367 . S
C235 C234 1.367 . S
C235 C237 1.433 . S
C236 C232 1.350 . S
C236 C233 1.463 . S
C236 N240 1.427 . S
C237 H227 0.929 . S
C237 C235 1.433 . S
C237 N240 1.384 . S
C238 H229 0.929 . S
C238 C230 1.378 . S
C238 C233 1.350 . S
C239 H226 0.929 . S
C239 C231 1.433 . S
C239 N241 1.384 . S
N240 C236 1.427 . S
N240 C237 1.384 . S
N241 C233 1.427 . S
N241 C239 1.384 . S
H242 C248 0.930 . S
H243 C252 0.930 . S
H244 C257 0.929 . S
H245 C255 0.929 . S
H246 C250 0.929 . S
H247 C256 0.929 . S
C248 H242 0.930 . S
C248 C249 1.367 . S
C248 C256 1.378 . S
C249 C248 1.367 . S
C249 C257 1.433 . S
C250 H246 0.929 . S
C250 C252 1.378 . S
C250 C254 1.350 . S
C251 C254 1.463 . S
C251 C256 1.350 . S
C251 N259 1.427 . S
C252 H243 0.930 . S
C252 C250 1.378 . S
C252 C253 1.367 . S
C253 C252 1.367 . S
C253 C255 1.433 . S
C254 C250 1.350 . S
C254 C251 1.463 . S
C254 N258 1.427 . S
C255 H245 0.929 . S
C255 C253 1.433 . S
C255 N258 1.384 . S
C256 H247 0.929 . S
C256 C248 1.378 . S
C256 C251 1.350 . S
C257 H244 0.929 . S
C257 C249 1.433 . S
C257 N259 1.384 . S
N258 C254 1.427 . S
N258 C255 1.384 . S
N259 C251 1.427 . S
N259 C257 1.384 . S
H260 C266 0.930 . S
H261 C270 0.930 . S
H262 C275 0.929 . S
H263 C273 0.929 . S
H264 C268 0.929 . S
H265 C274 0.929 . S
C266 H260 0.930 . S
C266 C267 1.367 . S
C266 C274 1.378 . S
C267 C266 1.367 . S
C267 C275 1.433 . S
C268 H264 0.929 . S
C268 C270 1.378 . S
C268 C272 1.350 . S
C269 C272 1.463 . S
C269 C274 1.350 . S
C269 N277 1.427 . S
C270 H261 0.930 . S
C270 C268 1.378 . S
C270 C271 1.367 . S
C271 C270 1.367 . S
C271 C273 1.433 . S
C272 C268 1.350 . S
C272 C269 1.463 . S
C272 N276 1.427 . S
C273 H263 0.929 . S
C273 C271 1.433 . S
C273 N276 1.384 . S
C274 H265 0.929 . S
C274 C266 1.378 . S
C274 C269 1.350 . S
C275 H262 0.929 . S
C275 C267 1.433 . S
C275 N277 1.384 . S
N276 C272 1.427 . S
N276 C273 1.384 . S
N277 C269 1.427 . S
N277 C275 1.384 . S
H278 C284 0.930 . S
H279 C288 0.930 . S
H280 C293 0.929 . S
H281 C291 0.929 . S
H282 C286 0.929 . S
H283 C292 0.929 . S
C284 H278 0.930 . S
C284 C285 1.367 . S
C284 C292 1.378 . S
C285 C284 1.367 . S
C285 C293 1.433 . S
C286 H282 0.929 . S
C286 C288 1.378 . S
C286 C290 1.350 . S
C287 C290 1.463 . S
C287 C292 1.350 . S
C287 N295 1.427 . S
C288 H279 0.930 . S
C288 C286 1.378 . S
C288 C289 1.367 . S
C289 C288 1.367 . S
C289 C291 1.433 . S
C290 C286 1.350 . S
C290 C287 1.463 . S
C290 N294 1.427 . S
C291 H281 0.929 . S
C291 C289 1.433 . S
C291 N294 1.384 . S
C292 H283 0.929 . S
C292 C284 1.378 . S
C292 C287 1.350 . S
C293 H280 0.929 . S
C293 C285 1.433 . S
C293 N295 1.384 . S
N294 C290 1.427 . S
N294 C291 1.384 . S
N295 C287 1.427 . S
N295 C293 1.384 . S
H296 C302 0.930 . S
H297 C306 0.930 . S
H298 C311 0.929 . S
H299 C309 0.929 . S
H300 C304 0.929 . S
H301 C310 0.929 . S
C302 H296 0.930 . S
C302 C303 1.367 . S
C302 C310 1.378 . S
C303 C302 1.367 . S
C303 C311 1.433 . S
C304 H300 0.929 . S
C304 C306 1.378 . S
C304 C308 1.350 . S
C305 C308 1.463 . S
C305 C310 1.350 . S
C305 N313 1.427 . S
C306 H297 0.930 . S
C306 C304 1.378 . S
C306 C307 1.367 . S
C307 C306 1.367 . S
C307 C309 1.433 . S
C308 C304 1.350 . S
C308 C305 1.463 . S
C308 N312 1.427 . S
C309 H299 0.929 . S
C309 C307 1.433 . S
C309 N312 1.384 . S
C310 H301 0.929 . S
C310 C302 1.378 . S
C310 C305 1.350 . S
C311 H298 0.929 . S
C311 C303 1.433 . S
C311 N313 1.384 . S
N312 C308 1.427 . S
N312 C309 1.384 . S
N313 C305 1.427 . S
N313 C311 1.384 . S
H314 C320 0.930 . S
H315 C324 0.930 . S
H316 C329 0.929 . S
H317 C327 0.929 . S
H318 C322 0.929 . S
H319 C328 0.929 . S
C320 H314 0.930 . S
C320 C321 1.367 . S
C320 C328 1.378 . S
C321 C320 1.367 . S
C321 C329 1.433 . S
C322 H318 0.929 . S
C322 C324 1.378 . S
C322 C326 1.350 . S
C323 C326 1.463 . S
C323 C328 1.350 . S
C323 N331 1.427 . S
C324 H315 0.930 . S
C324 C322 1.378 . S
C324 C325 1.367 . S
C325 C324 1.367 . S
C325 C327 1.433 . S
C326 C322 1.350 . S
C326 C323 1.463 . S
C326 N330 1.427 . S
C327 H317 0.929 . S
C327 C325 1.433 . S
C327 N330 1.384 . S
C328 H319 0.929 . S
C328 C320 1.378 . S
C328 C323 1.350 . S
C329 H316 0.929 . S
C329 C321 1.433 . S
C329 N331 1.384 . S
N330 C326 1.427 . S
N330 C327 1.384 . S
N331 C323 1.427 . S
N331 C329 1.384 . S
H332 C338 0.930 . S
H333 C342 0.930 . S
H334 C347 0.929 . S
H335 C345 0.929 . S
H336 C340 0.929 . S
H337 C346 0.929 . S
C338 H332 0.930 . S
C338 C339 1.367 . S
C338 C346 1.378 . S
C339 C338 1.367 . S
C339 C347 1.433 . S
C340 H336 0.929 . S
C340 C342 1.378 . S
C340 C344 1.350 . S
C341 C344 1.463 . S
C341 C346 1.350 . S
C341 N349 1.427 . S
C342 H333 0.930 . S
C342 C340 1.378 . S
C342 C343 1.367 . S
C343 C342 1.367 . S
C343 C345 1.433 . S
C344 C340 1.350 . S
C344 C341 1.463 . S
C344 N348 1.427 . S
C345 H335 0.929 . S
C345 C343 1.433 . S
C345 N348 1.384 . S
C346 H337 0.929 . S
C346 C338 1.378 . S
C346 C341 1.350 . S
C347 H334 0.929 . S
C347 C339 1.433 . S
C347 N349 1.384 . S
N348 C344 1.427 . S
N348 C345 1.384 . S
N349 C341 1.427 . S
N349 C347 1.384 . S
H350 C356 0.930 . S
H351 C360 0.930 . S
H352 C365 0.929 . S
H353 C363 0.929 . S
H354 C358 0.929 . S
H355 C364 0.929 . S
C356 H350 0.930 . S
C356 C357 1.367 . S
C356 C364 1.378 . S
C357 C356 1.367 . S
C357 C365 1.433 . S
C358 H354 0.929 . S
C358 C360 1.378 . S
C358 C362 1.350 . S
C359 C362 1.463 . S
C359 C364 1.350 . S
C359 N367 1.427 . S
C360 H351 0.930 . S
C360 C358 1.378 . S
C360 C361 1.367 . S
C361 C360 1.367 . S
C361 C363 1.433 . S
C362 C358 1.350 . S
C362 C359 1.463 . S
C362 N366 1.427 . S
C363 H353 0.929 . S
C363 C361 1.433 . S
C363 N366 1.384 . S
C364 H355 0.929 . S
C364 C356 1.378 . S
C364 C359 1.350 . S
C365 H352 0.929 . S
C365 C357 1.433 . S
C365 N367 1.384 . S
N366 C362 1.427 . S
N366 C363 1.384 . S
N367 C359 1.427 . S
N367 C365 1.384 . S
H368 C374 0.930 . S
H369 C378 0.930 . S
H370 C383 0.929 . S
H371 C381 0.929 . S
H372 C376 0.929 . S
H373 C382 0.929 . S
C374 H368 0.930 . S
C374 C375 1.367 . S
C374 C382 1.378 . S
C375 C374 1.367 . S
C375 C383 1.433 . S
C376 H372 0.929 . S
C376 C378 1.378 . S
C376 C380 1.350 . S
C377 C380 1.463 . S
C377 C382 1.350 . S
C377 N385 1.427 . S
C378 H369 0.930 . S
C378 C376 1.378 . S
C378 C379 1.367 . S
C379 C378 1.367 . S
C379 C381 1.433 . S
C380 C376 1.350 . S
C380 C377 1.463 . S
C380 N384 1.427 . S
C381 H371 0.929 . S
C381 C379 1.433 . S
C381 N384 1.384 . S
C382 H373 0.929 . S
C382 C374 1.378 . S
C382 C377 1.350 . S
C383 H370 0.929 . S
C383 C375 1.433 . S
C383 N385 1.384 . S
N384 C380 1.427 . S
N384 C381 1.384 . S
N385 C377 1.427 . S
N385 C383 1.384 . S
H386 C392 0.930 . S
H387 C396 0.930 . S
H388 C401 0.929 . S
H389 C399 0.929 . S
H390 C394 0.929 . S
H391 C400 0.929 . S
C392 H386 0.930 . S
C392 C393 1.367 . S
C392 C400 1.378 . S
C393 C392 1.367 . S
C393 C401 1.433 . S
C394 H390 0.929 . S
C394 C396 1.378 . S
C394 C398 1.350 . S
C395 C398 1.463 . S
C395 C400 1.350 . S
C395 N403 1.427 . S
C396 H387 0.930 . S
C396 C394 1.378 . S
C396 C397 1.367 . S
C397 C396 1.367 . S
C397 C399 1.433 . S
C398 C394 1.350 . S
C398 C395 1.463 . S
C398 N402 1.427 . S
C399 H389 0.929 . S
C399 C397 1.433 . S
C399 N402 1.384 . S
C400 H391 0.929 . S
C400 C392 1.378 . S
C400 C395 1.350 . S
C401 H388 0.929 . S
C401 C393 1.433 . S
C401 N403 1.384 . S
N402 C398 1.427 . S
N402 C399 1.384 . S
N403 C395 1.427 . S
N403 C401 1.384 . S
H404 C410 0.930 . S
H405 C414 0.930 . S
H406 C419 0.929 . S
H407 C417 0.929 . S
H408 C412 0.929 . S
H409 C418 0.929 . S
C410 H404 0.930 . S
C410 C411 1.367 . S
C410 C418 1.378 . S
C411 C410 1.367 . S
C411 C419 1.433 . S
C412 H408 0.929 . S
C412 C414 1.378 . S
C412 C416 1.350 . S
C413 C416 1.463 . S
C413 C418 1.350 . S
C413 N421 1.427 . S
C414 H405 0.930 . S
C414 C412 1.378 . S
C414 C415 1.367 . S
C415 C414 1.367 . S
C415 C417 1.433 . S
C416 C412 1.350 . S
C416 C413 1.463 . S
C416 N420 1.427 . S
C417 H407 0.929 . S
C417 C415 1.433 . S
C417 N420 1.384 . S
C418 H409 0.929 . S
C418 C410 1.378 . S
C418 C413 1.350 . S
C419 H406 0.929 . S
C419 C411 1.433 . S
C419 N421 1.384 . S
N420 C416 1.427 . S
N420 C417 1.384 . S
N421 C413 1.427 . S
N421 C419 1.384 . S
H422 C428 0.930 . S
H423 C432 0.930 . S
H424 C437 0.929 . S
H425 C435 0.929 . S
H426 C430 0.929 . S
H427 C436 0.929 . S
C428 H422 0.930 . S
C428 C429 1.367 . S
C428 C436 1.378 . S
C429 C428 1.367 . S
C429 C437 1.433 . S
C430 H426 0.929 . S
C430 C432 1.378 . S
C430 C434 1.350 . S
C431 C434 1.463 . S
C431 C436 1.350 . S
C431 N439 1.427 . S
C432 H423 0.930 . S
C432 C430 1.378 . S
C432 C433 1.367 . S
C433 C432 1.367 . S
C433 C435 1.433 . S
C434 C430 1.350 . S
C434 C431 1.463 . S
C434 N438 1.427 . S
C435 H425 0.929 . S
C435 C433 1.433 . S
C435 N438 1.384 . S
C436 H427 0.929 . S
C436 C428 1.378 . S
C436 C431 1.350 . S
C437 H424 0.929 . S
C437 C429 1.433 . S
C437 N439 1.384 . S
N438 C434 1.427 . S
N438 C435 1.384 . S
N439 C431 1.427 . S
N439 C437 1.384 . S
H440 C446 0.930 . S
H441 C450 0.930 . S
H442 C455 0.929 . S
H443 C453 0.929 . S
H444 C448 0.929 . S
H445 C454 0.929 . S
C446 H440 0.930 . S
C446 C447 1.367 . S
C446 C454 1.378 . S
C447 C446 1.367 . S
C447 C455 1.433 . S
C448 H444 0.929 . S
C448 C450 1.378 . S
C448 C452 1.350 . S
C449 C452 1.463 . S
C449 C454 1.350 . S
C449 N457 1.427 . S
C450 H441 0.930 . S
C450 C448 1.378 . S
C450 C451 1.367 . S
C451 C450 1.367 . S
C451 C453 1.433 . S
C452 C448 1.350 . S
C452 C449 1.463 . S
C452 N456 1.427 . S
C453 H443 0.929 . S
C453 C451 1.433 . S
C453 N456 1.384 . S
C454 H445 0.929 . S
C454 C446 1.378 . S
C454 C449 1.350 . S
C455 H442 0.929 . S
C455 C447 1.433 . S
C455 N457 1.384 . S
N456 C452 1.427 . S
N456 C453 1.384 . S
N457 C449 1.427 . S
N457 C455 1.384 . S
H458 C464 0.930 . S
H459 C468 0.930 . S
H460 C473 0.929 . S
H461 C471 0.929 . S
H462 C466 0.929 . S
H463 C472 0.929 . S
C464 H458 0.930 . S
C464 C465 1.367 . S
C464 C472 1.378 . S
C465 C464 1.367 . S
C465 C473 1.433 . S
C466 H462 0.929 . S
C466 C468 1.378 . S
C466 C470 1.350 . S
C467 C470 1.463 . S
C467 C472 1.350 . S
C467 N475 1.427 . S
C468 H459 0.930 . S
C468 C466 1.378 . S
C468 C469 1.367 . S
C469 C468 1.367 . S
C469 C471 1.433 . S
C470 C466 1.350 . S
C470 C467 1.463 . S
C470 N474 1.427 . S
C471 H461 0.929 . S
C471 C469 1.433 . S
C471 N474 1.384 . S
C472 H463 0.929 . S
C472 C464 1.378 . S
C472 C467 1.350 . S
C473 H460 0.929 . S
C473 C465 1.433 . S
C473 N475 1.384 . S
N474 C470 1.427 . S
N474 C471 1.384 . S
N475 C467 1.427 . S
N475 C473 1.384 . S
H476 C482 0.930 . S
H477 C486 0.930 . S
H478 C491 0.929 . S
H479 C489 0.929 . S
H480 C484 0.929 . S
H481 C490 0.929 . S
C482 H476 0.930 . S
C482 C483 1.367 . S
C482 C490 1.378 . S
C483 C482 1.367 . S
C483 C491 1.433 . S
C484 H480 0.929 . S
C484 C486 1.378 . S
C484 C488 1.350 . S
C485 C488 1.463 . S
C485 C490 1.350 . S
C485 N493 1.427 . S
C486 H477 0.930 . S
C486 C484 1.378 . S
C486 C487 1.367 . S
C487 C486 1.367 . S
C487 C489 1.433 . S
C488 C484 1.350 . S
C488 C485 1.463 . S
C488 N492 1.427 . S
C489 H479 0.929 . S
C489 C487 1.433 . S
C489 N492 1.384 . S
C490 H481 0.929 . S
C490 C482 1.378 . S
C490 C485 1.350 . S
C491 H478 0.929 . S
C491 C483 1.433 . S
C491 N493 1.384 . S
N492 C488 1.427 . S
N492 C489 1.384 . S
N493 C485 1.427 . S
N493 C491 1.384 . S
H494 C500 0.930 . S
H495 C504 0.930 . S
H496 C509 0.929 . S
H497 C507 0.929 . S
H498 C502 0.929 . S
H499 C508 0.929 . S
C500 H494 0.930 . S
C500 C501 1.367 . S
C500 C508 1.378 . S
C501 C500 1.367 . S
C501 C509 1.433 . S
C502 H498 0.929 . S
C502 C504 1.378 . S
C502 C506 1.350 . S
C503 C506 1.463 . S
C503 C508 1.350 . S
C503 N511 1.427 . S
C504 H495 0.930 . S
C504 C502 1.378 . S
C504 C505 1.367 . S
C505 C504 1.367 . S
C505 C507 1.433 . S
C506 C502 1.350 . S
C506 C503 1.463 . S
C506 N510 1.427 . S
C507 H497 0.929 . S
C507 C505 1.433 . S
C507 N510 1.384 . S
C508 H499 0.929 . S
C508 C500 1.378 . S
C508 C503 1.350 . S
C509 H496 0.929 . S
C509 C501 1.433 . S
C509 N511 1.384 . S
N510 C506 1.427 . S
N510 C507 1.384 . S
N511 C503 1.427 . S
N511 C509 1.384 . S
H512 C518 0.930 1_565 S
H513 C522 0.930 . S
H514 C527 0.929 . S
H515 C525 0.929 . S
H516 C520 0.929 . S
H517 C526 0.929 . S
C518 H512 0.930 1_545 S
C518 C519 1.367 . S
C518 C526 1.378 . S
C519 C518 1.367 . S
C519 C527 1.433 . S
C520 H516 0.929 . S
C520 C522 1.378 . S
C520 C524 1.350 . S
C521 C524 1.463 . S
C521 C526 1.350 . S
C521 N529 1.427 . S
C522 H513 0.930 . S
C522 C520 1.378 . S
C522 C523 1.367 . S
C523 C522 1.367 . S
C523 C525 1.433 . S
C524 C520 1.350 . S
C524 C521 1.463 . S
C524 N528 1.427 . S
C525 H515 0.929 . S
C525 C523 1.433 . S
C525 N528 1.384 . S
C526 H517 0.929 . S
C526 C518 1.378 . S
C526 C521 1.350 . S
C527 H514 0.929 . S
C527 C519 1.433 . S
C527 N529 1.384 . S
N528 C524 1.427 . S
N528 C525 1.384 . S
N529 C521 1.427 . S
N529 C527 1.384 . S
H530 C536 0.930 . S
H531 C540 0.930 . S
H532 C545 0.929 . S
H533 C543 0.929 1_655 S
H534 C538 0.929 . S
H535 C544 0.929 . S
C536 H530 0.930 . S
C536 C537 1.367 . S
C536 C544 1.378 . S
C537 C536 1.367 . S
C537 C545 1.433 . S
C538 H534 0.929 . S
C538 C540 1.378 . S
C538 C542 1.350 . S
C539 C542 1.463 . S
C539 C544 1.350 . S
C539 N547 1.427 . S
C540 H531 0.930 . S
C540 C538 1.378 . S
C540 C541 1.367 1_455 S
C541 C540 1.367 1_655 S
C541 C543 1.433 1_655 S
C542 C538 1.350 . S
C542 C539 1.463 . S
C542 N546 1.427 . S
C543 H533 0.929 1_455 S
C543 C541 1.433 1_455 S
C543 N546 1.384 . S
C544 H535 0.929 . S
C544 C536 1.378 . S
C544 C539 1.350 . S
C545 H532 0.929 . S
C545 C537 1.433 . S
C545 N547 1.384 . S
N546 C542 1.427 . S
N546 C543 1.384 . S
N547 C539 1.427 . S
N547 C545 1.384 . S
H548 C554 0.930 . S
H549 C558 0.930 . S
H550 C563 0.929 1_545 S
H551 C561 0.929 . S
H552 C556 0.929 . S
H553 C562 0.929 . S
C554 H548 0.930 . S
C554 C555 1.367 . S
C554 C562 1.378 . S
C555 C554 1.367 . S
C555 C563 1.433 . S
C556 H552 0.929 . S
C556 C558 1.378 . S
C556 C560 1.350 . S
C557 C560 1.463 . S
C557 C562 1.350 . S
C557 N565 1.427 . S
C558 H549 0.930 . S
C558 C556 1.378 . S
C558 C559 1.367 . S
C559 C558 1.367 . S
C559 C561 1.433 . S
C560 C556 1.350 . S
C560 C557 1.463 . S
C560 N564 1.427 . S
C561 H551 0.929 . S
C561 C559 1.433 . S
C561 N564 1.384 . S
C562 H553 0.929 . S
C562 C554 1.378 . S
C562 C557 1.350 . S
C563 H550 0.929 1_565 S
C563 C555 1.433 . S
C563 N565 1.384 . S
N564 C560 1.427 . S
N564 C561 1.384 . S
N565 C557 1.427 . S
N565 C563 1.384 . S
H566 C572 0.930 . S
H567 C576 0.930 . S
H568 C581 0.929 . S
H569 C579 0.929 . S
H570 C574 0.929 . S
H571 C580 0.929 . S
C572 H566 0.930 . S
C572 C573 1.367 . S
C572 C580 1.378 . S
C573 C572 1.367 . S
C573 C581 1.433 . S
C574 H570 0.929 . S
C574 C576 1.378 1_655 S
C574 C578 1.350 . S
C575 C578 1.463 . S
C575 C580 1.350 . S
C575 N583 1.427 . S
C576 H567 0.930 . S
C576 C574 1.378 1_455 S
C576 C577 1.367 . S
C577 C576 1.367 . S
C577 C579 1.433 1_455 S
C578 C574 1.350 . S
C578 C575 1.463 . S
C578 N582 1.427 . S
C579 H569 0.929 . S
C579 C577 1.433 1_655 S
C579 N582 1.384 . S
C580 H571 0.929 . S
C580 C572 1.378 . S
C580 C575 1.350 . S
C581 H568 0.929 . S
C581 C573 1.433 . S
C581 N583 1.384 . S
N582 C578 1.427 . S
N582 C579 1.384 . S
N583 C575 1.427 . S
N583 C581 1.384 . S
H584 C590 0.930 . S
H585 C594 0.930 . S
H586 C599 0.929 1_545 S
H587 C597 0.929 . S
H588 C592 0.929 . S
H589 C598 0.929 . S
C590 H584 0.930 . S
C590 C591 1.367 . S
C590 C598 1.378 . S
C591 C590 1.367 . S
C591 C599 1.433 . S
C592 H588 0.929 . S
C592 C594 1.378 . S
C592 C596 1.350 . S
C593 C596 1.463 . S
C593 C598 1.350 . S
C593 N601 1.427 . S
C594 H585 0.930 . S
C594 C592 1.378 . S
C594 C595 1.367 . S
C595 C594 1.367 . S
C595 C597 1.433 . S
C596 C592 1.350 . S
C596 C593 1.463 . S
C596 N600 1.427 . S
C597 H587 0.929 . S
C597 C595 1.433 . S
C597 N600 1.384 . S
C598 H589 0.929 . S
C598 C590 1.378 . S
C598 C593 1.350 . S
C599 H586 0.929 1_565 S
C599 C591 1.433 . S
C599 N601 1.384 . S
N600 C596 1.427 . S
N600 C597 1.384 . S
N601 C593 1.427 . S
N601 C599 1.384 . S
H602 C608 0.930 . S
H603 C612 0.930 . S
H604 C617 0.929 . S
H605 C615 0.929 . S
H606 C610 0.929 . S
H607 C616 0.929 . S
C608 H602 0.930 . S
C608 C609 1.367 . S
C608 C616 1.378 . S
C609 C608 1.367 . S
C609 C617 1.433 . S
C610 H606 0.929 . S
C610 C612 1.378 . S
C610 C614 1.350 . S
C611 C614 1.463 . S
C611 C616 1.350 . S
C611 N619 1.427 . S
C612 H603 0.930 . S
C612 C610 1.378 . S
C612 C613 1.367 1_655 S
C613 C612 1.367 1_455 S
C613 C615 1.433 . S
C614 C610 1.350 . S
C614 C611 1.463 . S
C614 N618 1.427 . S
C615 H605 0.929 . S
C615 C613 1.433 . S
C615 N618 1.384 1_455 S
C616 H607 0.929 . S
C616 C608 1.378 . S
C616 C611 1.350 . S
C617 H604 0.929 . S
C617 C609 1.433 . S
C617 N619 1.384 . S
N618 C614 1.427 . S
N618 C615 1.384 1_655 S
N619 C611 1.427 . S
N619 C617 1.384 . S
H620 C626 0.930 . S
H621 C630 0.930 . S
H622 C635 0.929 . S
H623 C633 0.929 . S
H624 C628 0.929 . S
H625 C634 0.929 . S
C626 H620 0.930 . S
C626 C627 1.367 . S
C626 C634 1.378 . S
C627 C626 1.367 . S
C627 C635 1.433 . S
C628 H624 0.929 . S
C628 C630 1.378 . S
C628 C632 1.350 . S
C629 C632 1.463 . S
C629 C634 1.350 . S
C629 N637 1.427 . S
C630 H621 0.930 . S
C630 C628 1.378 . S
C630 C631 1.367 . S
C631 C630 1.367 . S
C631 C633 1.433 . S
C632 C628 1.350 . S
C632 C629 1.463 . S
C632 N636 1.427 . S
C633 H623 0.929 . S
C633 C631 1.433 . S
C633 N636 1.384 . S
C634 H625 0.929 . S
C634 C626 1.378 . S
C634 C629 1.350 . S
C635 H622 0.929 . S
C635 C627 1.433 . S
C635 N637 1.384 . S
N636 C632 1.427 . S
N636 C633 1.384 . S
N637 C629 1.427 . S
N637 C635 1.384 . S
H638 C644 0.930 . S
H639 C648 0.930 1_655 S
H640 C653 0.929 . S
H641 C651 0.929 . S
H642 C646 0.929 . S
H643 C652 0.929 . S
C644 H638 0.930 . S
C644 C645 1.367 . S
C644 C652 1.378 . S
C645 C644 1.367 . S
C645 C653 1.433 . S
C646 H642 0.929 . S
C646 C648 1.378 . S
C646 C650 1.350 . S
C647 C650 1.463 . S
C647 C652 1.350 . S
C647 N655 1.427 . S
C648 H639 0.930 1_455 S
C648 C646 1.378 . S
C648 C649 1.367 1_455 S
C649 C648 1.367 1_655 S
C649 C651 1.433 1_655 S
C650 C646 1.350 . S
C650 C647 1.463 . S
C650 N654 1.427 . S
C651 H641 0.929 . S
C651 C649 1.433 1_455 S
C651 N654 1.384 . S
C652 H643 0.929 . S
C652 C644 1.378 . S
C652 C647 1.350 . S
C653 H640 0.929 . S
C653 C645 1.433 . S
C653 N655 1.384 . S
N654 C650 1.427 . S
N654 C651 1.384 . S
N655 C647 1.427 . S
N655 C653 1.384 . S
H656 C662 0.930 . S
H657 C666 0.930 . S
H658 C671 0.929 . S
H659 C669 0.929 . S
H660 C664 0.929 . S
H661 C670 0.929 . S
C662 H656 0.930 . S
C662 C663 1.367 . S
C662 C670 1.378 . S
C663 C662 1.367 . S
C663 C671 1.433 . S
C664 H660 0.929 . S
C664 C666 1.378 . S
C664 C668 1.350 . S
C665 C668 1.463 . S
C665 C670 1.350 . S
C665 N673 1.427 . S
C666 H657 0.930 . S
C666 C664 1.378 . S
C666 C667 1.367 . S
C667 C666 1.367 . S
C667 C669 1.433 . S
C668 C664 1.350 . S
C668 C665 1.463 . S
C668 N672 1.427 . S
C669 H659 0.929 . S
C669 C667 1.433 . S
C669 N672 1.384 . S
C670 H661 0.929 . S
C670 C662 1.378 . S
C670 C665 1.350 . S
C671 H658 0.929 . S
C671 C663 1.433 . S
C671 N673 1.384 . S
N672 C668 1.427 . S
N672 C669 1.384 . S
N673 C665 1.427 . S
N673 C671 1.384 . S
H674 C680 0.930 . S
H675 C684 0.930 . S
H676 C689 0.929 . S
H677 C687 0.929 . S
H678 C682 0.929 . S
H679 C688 0.929 . S
C680 H674 0.930 . S
C680 C681 1.367 . S
C680 C688 1.378 . S
C681 C680 1.367 . S
C681 C689 1.433 . S
C682 H678 0.929 . S
C682 C684 1.378 . S
C682 C686 1.350 . S
C683 C686 1.463 . S
C683 C688 1.350 . S
C683 N691 1.427 . S
C684 H675 0.930 . S
C684 C682 1.378 . S
C684 C685 1.367 . S
C685 C684 1.367 . S
C685 C687 1.433 . S
C686 C682 1.350 . S
C686 C683 1.463 . S
C686 N690 1.427 . S
C687 H677 0.929 . S
C687 C685 1.433 . S
C687 N690 1.384 . S
C688 H679 0.929 . S
C688 C680 1.378 . S
C688 C683 1.350 . S
C689 H676 0.929 . S
C689 C681 1.433 . S
C689 N691 1.384 . S
N690 C686 1.427 . S
N690 C687 1.384 . S
N691 C683 1.427 . S
N691 C689 1.384 . S
H692 C698 0.930 . S
H693 C702 0.930 . S
H694 C707 0.929 . S
H695 C705 0.929 . S
H696 C700 0.929 . S
H697 C706 0.929 . S
C698 H692 0.930 . S
C698 C699 1.367 . S
C698 C706 1.378 . S
C699 C698 1.367 . S
C699 C707 1.433 . S
C700 H696 0.929 . S
C700 C702 1.378 . S
C700 C704 1.350 . S
C701 C704 1.463 . S
C701 C706 1.350 . S
C701 N709 1.427 . S
C702 H693 0.930 . S
C702 C700 1.378 . S
C702 C703 1.367 . S
C703 C702 1.367 . S
C703 C705 1.433 . S
C704 C700 1.350 . S
C704 C701 1.463 . S
C704 N708 1.427 . S
C705 H695 0.929 . S
C705 C703 1.433 . S
C705 N708 1.384 . S
C706 H697 0.929 . S
C706 C698 1.378 . S
C706 C701 1.350 . S
C707 H694 0.929 . S
C707 C699 1.433 . S
C707 N709 1.384 . S
N708 C704 1.427 . S
N708 C705 1.384 . S
N709 C701 1.427 . S
N709 C707 1.384 . S
H710 C716 0.930 . S
H711 C720 0.930 . S
H712 C725 0.929 . S
H713 C723 0.929 . S
H714 C718 0.929 . S
H715 C724 0.929 . S
C716 H710 0.930 . S
C716 C717 1.367 . S
C716 C724 1.378 . S
C717 C716 1.367 . S
C717 C725 1.433 . S
C718 H714 0.929 . S
C718 C720 1.378 . S
C718 C722 1.350 . S
C719 C722 1.463 . S
C719 C724 1.350 . S
C719 N727 1.427 . S
C720 H711 0.930 . S
C720 C718 1.378 . S
C720 C721 1.367 . S
C721 C720 1.367 . S
C721 C723 1.433 . S
C722 C718 1.350 . S
C722 C719 1.463 . S
C722 N726 1.427 . S
C723 H713 0.929 . S
C723 C721 1.433 . S
C723 N726 1.384 . S
C724 H715 0.929 . S
C724 C716 1.378 . S
C724 C719 1.350 . S
C725 H712 0.929 . S
C725 C717 1.433 . S
C725 N727 1.384 . S
N726 C722 1.427 . S
N726 C723 1.384 . S
N727 C719 1.427 . S
N727 C725 1.384 . S
H728 C734 0.930 1_565 S
H729 C738 0.930 1_545 S
H730 C743 0.929 . S
H731 C741 0.929 . S
H732 C736 0.929 . S
H733 C742 0.929 . S
C734 H728 0.930 1_545 S
C734 C735 1.367 . S
C734 C742 1.378 1_545 S
C735 C734 1.367 . S
C735 C743 1.433 . S
C736 H732 0.929 . S
C736 C738 1.378 1_545 S
C736 C740 1.350 1_545 S
C737 C740 1.463 1_544 S
C737 C742 1.350 1_545 S
C737 N745 1.427 . S
C738 H729 0.930 1_565 S
C738 C736 1.378 1_565 S
C738 C739 1.367 . S
C739 C738 1.367 . S
C739 C741 1.433 . S
C740 C736 1.350 1_565 S
C740 C737 1.463 1_566 S
C740 N744 1.427 . S
C741 H731 0.929 . S
C741 C739 1.433 . S
C741 N744 1.384 . S
C742 H733 0.929 . S
C742 C734 1.378 1_565 S
C742 C737 1.350 1_565 S
C743 H730 0.929 . S
C743 C735 1.433 . S
C743 N745 1.384 . S
N744 C740 1.427 . S
N744 C741 1.384 . S
N745 C737 1.427 . S
N745 C743 1.384 . S
H746 C752 0.930 1_655 S
H747 C756 0.930 1_455 S
H748 C761 0.929 . S
H749 C759 0.929 . S
H750 C754 0.929 . S
H751 C760 0.929 . S
C752 H746 0.930 1_455 S
C752 C753 1.367 . S
C752 C760 1.378 1_455 S
C753 C752 1.367 . S
C753 C761 1.433 . S
C754 H750 0.929 . S
C754 C756 1.378 1_455 S
C754 C758 1.350 1_455 S
C755 C758 1.463 1_456 S
C755 C760 1.350 1_455 S
C755 N763 1.427 . S
C756 H747 0.930 1_655 S
C756 C754 1.378 1_655 S
C756 C757 1.367 . S
C757 C756 1.367 . S
C757 C759 1.433 . S
C758 C754 1.350 1_655 S
C758 C755 1.463 1_654 S
C758 N762 1.427 . S
C759 H749 0.929 . S
C759 C757 1.433 . S
C759 N762 1.384 . S
C760 H751 0.929 . S
C760 C752 1.378 1_655 S
C760 C755 1.350 1_655 S
C761 H748 0.929 . S
C761 C753 1.433 . S
C761 N763 1.384 . S
N762 C758 1.427 . S
N762 C759 1.384 . S
N763 C755 1.427 . S
N763 C761 1.384 . S
H764 C770 0.930 . S
H765 C774 0.930 . S
H766 C779 0.929 . S
H767 C777 0.929 . S
H768 C772 0.929 . S
H769 C778 0.929 . S
C770 H764 0.930 . S
C770 C771 1.367 1_565 S
C770 C778 1.378 . S
C771 C770 1.367 1_545 S
C771 C779 1.433 . S
C772 H768 0.929 . S
C772 C774 1.378 . S
C772 C776 1.350 1_545 S
C773 C776 1.463 1_546 S
C773 C778 1.350 1_545 S
C773 N781 1.427 . S
C774 H765 0.930 . S
C774 C772 1.378 . S
C774 C775 1.367 1_545 S
C775 C774 1.367 1_565 S
C775 C777 1.433 . S
C776 C772 1.350 1_565 S
C776 C773 1.463 1_564 S
C776 N780 1.427 . S
C777 H767 0.929 . S
C777 C775 1.433 . S
C777 N780 1.384 . S
C778 H769 0.929 . S
C778 C770 1.378 . S
C778 C773 1.350 1_565 S
C779 H766 0.929 . S
C779 C771 1.433 . S
C779 N781 1.384 . S
N780 C776 1.427 . S
N780 C777 1.384 . S
N781 C773 1.427 . S
N781 C779 1.384 . S
H782 C788 0.930 . S
H783 C792 0.930 . S
H784 C797 0.929 . S
H785 C795 0.929 . S
H786 C790 0.929 . S
H787 C796 0.929 . S
C788 H782 0.930 . S
C788 C789 1.367 . S
C788 C796 1.378 1_655 S
C789 C788 1.367 . S
C789 C797 1.433 . S
C790 H786 0.929 . S
C790 C792 1.378 1_655 S
C790 C794 1.350 1_655 S
C791 C794 1.463 1_656 S
C791 C796 1.350 1_655 S
C791 N799 1.427 . S
C792 H783 0.930 . S
C792 C790 1.378 1_455 S
C792 C793 1.367 . S
C793 C792 1.367 . S
C793 C795 1.433 . S
C794 C790 1.350 1_455 S
C794 C791 1.463 1_454 S
C794 N798 1.427 . S
C795 H785 0.929 . S
C795 C793 1.433 . S
C795 N798 1.384 . S
C796 H787 0.929 . S
C796 C788 1.378 1_455 S
C796 C791 1.350 1_455 S
C797 H784 0.929 . S
C797 C789 1.433 . S
C797 N799 1.384 . S
N798 C794 1.427 . S
N798 C795 1.384 . S
N799 C791 1.427 . S
N799 C797 1.384 . S
C231 C11 1.319 . S
C235 C103 1.279 . S
C249 C19 1.284 . S
C253 C67 1.316 . S
C267 C75 1.277 . S
C271 C39 1.320 . S
C285 C47 1.267 . S
C289 C95 1.329 . S
C303 C123 1.315 . S
C307 C215 1.286 . S
C321 C179 1.318 . S
C325 C131 1.281 . S
C339 C187 1.280 . S
C343 C151 1.319 . S
C357 C207 1.323 . S
C361 C159 1.276 . S
C375 C4 1.262 . S
C379 C158 1.232 . S
C393 C26 1.034 . S
C397 C117 0.938 . S
C411 C130 1.243 . S
C415 C32 1.268 . S
C429 C54 1.036 . S
C433 C145 0.941 . S
C447 C60 1.258 . S
C451 C186 1.241 . S
C465 C201 0.907 . S
C469 C82 1.014 . S
C483 C88 1.263 . S
C487 C214 1.232 . S
C501 C173 0.903 . S
C505 C110 1.010 . S
C519 C116 1.269 1_545 S
C523 C46 1.244 . S
C537 C5 0.907 . S
C541 C138 1.014 . S
C555 C144 1.257 1_565 S
C559 C18 1.235 . S
C573 C33 0.925 . S
C577 C166 1.021 . S
C591 C172 1.257 1_565 S
C595 C74 1.238 . S
C609 C89 0.941 . S
C613 C194 1.036 . S
C627 C102 1.244 . S
C631 C200 1.259 1_545 S
C645 C61 0.938 . S
C649 C222 1.031 . S
C663 C68 1.415 . S
C667 C12 1.417 . S
C681 C81 1.693 . S
C685 C25 1.691 . S
C699 C40 1.417 . S
C703 C96 1.417 . S
C717 C109 1.682 . S
C721 C53 1.687 . S
C735 C180 1.416 . S
C739 C124 1.414 . S
C753 C193 1.682 . S
C757 C137 1.685 . S
C771 C152 1.415 . S
C775 C208 1.414 . S
C789 C221 1.682 . S
C793 C165 1.687 . S
