# Generated by pormake.
# Topology bcs, (6)-cn, num edge types: 1
# Building blocks:
#     Node 0, Type 0, BuildingBlock: BETGAK_clean_sbu_0, # of connection points: 6
#     Node 1, Type 0, BuildingBlock: BETGAK_clean_sbu_0, # of connection points: 6
#     Node 2, Type 0, BuildingBlock: BETGAK_clean_sbu_0, # of connection points: 6
#     Node 3, Type 0, BuildingBlock: BETGAK_clean_sbu_0, # of connection points: 6
#     Node 4, Type 0, BuildingBlock: BETGAK_clean_sbu_0, # of connection points: 6
#     Node 5, Type 0, BuildingBlock: BETGAK_clean_sbu_0, # of connection points: 6
#     Node 6, Type 0, BuildingBlock: BETGAK_clean_sbu_0, # of connection points: 6
#     Node 7, Type 0, BuildingBlock: BETGAK_clean_sbu_0, # of connection points: 6
#     Node 8, Type 0, BuildingBlock: BETGAK_clean_sbu_0, # of connection points: 6
#     Node 9, Type 0, BuildingBlock: BETGAK_clean_sbu_0, # of connection points: 6
#     Node 10, Type 0, BuildingBlock: BETGAK_clean_sbu_0, # of connection points: 6
#     Node 11, Type 0, BuildingBlock: BETGAK_clean_sbu_0, # of connection points: 6
#     Node 12, Type 0, BuildingBlock: BETGAK_clean_sbu_0, # of connection points: 6
#     Node 13, Type 0, BuildingBlock: BETGAK_clean_sbu_0, # of connection points: 6
#     Node 14, Type 0, BuildingBlock: BETGAK_clean_sbu_0, # of connection points: 6
#     Node 15, Type 0, BuildingBlock: BETGAK_clean_sbu_0, # of connection points: 6
#     Edge 16, Type (0, 0), BuildingBlock: OJICUG_clean_linker_0, # of connection points: 2
#     Edge 17, Type (0, 0), BuildingBlock: OJICUG_clean_linker_0, # of connection points: 2
#     Edge 18, Type (0, 0), BuildingBlock: OJICUG_clean_linker_0, # of connection points: 2
#     Edge 19, Type (0, 0), BuildingBlock: OJICUG_clean_linker_0, # of connection points: 2
#     Edge 20, Type (0, 0), BuildingBlock: OJICUG_clean_linker_0, # of connection points: 2
#     Edge 21, Type (0, 0), BuildingBlock: OJICUG_clean_linker_0, # of connection points: 2
#     Edge 22, Type (0, 0), BuildingBlock: OJICUG_clean_linker_0, # of connection points: 2
#     Edge 23, Type (0, 0), BuildingBlock: OJICUG_clean_linker_0, # of connection points: 2
#     Edge 24, Type (0, 0), BuildingBlock: OJICUG_clean_linker_0, # of connection points: 2
#     Edge 25, Type (0, 0), BuildingBlock: OJICUG_clean_linker_0, # of connection points: 2
#     Edge 26, Type (0, 0), BuildingBlock: OJICUG_clean_linker_0, # of connection points: 2
#     Edge 27, Type (0, 0), BuildingBlock: OJICUG_clean_linker_0, # of connection points: 2
#     Edge 28, Type (0, 0), BuildingBlock: OJICUG_clean_linker_0, # of connection points: 2
#     Edge 29, Type (0, 0), BuildingBlock: OJICUG_clean_linker_0, # of connection points: 2
#     Edge 30, Type (0, 0), BuildingBlock: OJICUG_clean_linker_0, # of connection points: 2
#     Edge 31, Type (0, 0), BuildingBlock: OJICUG_clean_linker_0, # of connection points: 2
#     Edge 32, Type (0, 0), BuildingBlock: OJICUG_clean_linker_0, # of connection points: 2
#     Edge 33, Type (0, 0), BuildingBlock: OJICUG_clean_linker_0, # of connection points: 2
#     Edge 34, Type (0, 0), BuildingBlock: OJICUG_clean_linker_0, # of connection points: 2
#     Edge 35, Type (0, 0), BuildingBlock: OJICUG_clean_linker_0, # of connection points: 2
#     Edge 36, Type (0, 0), BuildingBlock: OJICUG_clean_linker_0, # of connection points: 2
#     Edge 37, Type (0, 0), BuildingBlock: OJICUG_clean_linker_0, # of connection points: 2
#     Edge 38, Type (0, 0), BuildingBlock: OJICUG_clean_linker_0, # of connection points: 2
#     Edge 39, Type (0, 0), BuildingBlock: OJICUG_clean_linker_0, # of connection points: 2
#     Edge 40, Type (0, 0), BuildingBlock: OJICUG_clean_linker_0, # of connection points: 2
#     Edge 41, Type (0, 0), BuildingBlock: OJICUG_clean_linker_0, # of connection points: 2
#     Edge 42, Type (0, 0), BuildingBlock: OJICUG_clean_linker_0, # of connection points: 2
#     Edge 43, Type (0, 0), BuildingBlock: OJICUG_clean_linker_0, # of connection points: 2
#     Edge 44, Type (0, 0), BuildingBlock: OJICUG_clean_linker_0, # of connection points: 2
#     Edge 45, Type (0, 0), BuildingBlock: OJICUG_clean_linker_0, # of connection points: 2
#     Edge 46, Type (0, 0), BuildingBlock: OJICUG_clean_linker_0, # of connection points: 2
#     Edge 47, Type (0, 0), BuildingBlock: OJICUG_clean_linker_0, # of connection points: 2
#     Edge 48, Type (0, 0), BuildingBlock: OJICUG_clean_linker_0, # of connection points: 2
#     Edge 49, Type (0, 0), BuildingBlock: OJICUG_clean_linker_0, # of connection points: 2
#     Edge 50, Type (0, 0), BuildingBlock: OJICUG_clean_linker_0, # of connection points: 2
#     Edge 51, Type (0, 0), BuildingBlock: OJICUG_clean_linker_0, # of connection points: 2
#     Edge 52, Type (0, 0), BuildingBlock: OJICUG_clean_linker_0, # of connection points: 2
#     Edge 53, Type (0, 0), BuildingBlock: OJICUG_clean_linker_0, # of connection points: 2
#     Edge 54, Type (0, 0), BuildingBlock: OJICUG_clean_linker_0, # of connection points: 2
#     Edge 55, Type (0, 0), BuildingBlock: OJICUG_clean_linker_0, # of connection points: 2
#     Edge 56, Type (0, 0), BuildingBlock: OJICUG_clean_linker_0, # of connection points: 2
#     Edge 57, Type (0, 0), BuildingBlock: OJICUG_clean_linker_0, # of connection points: 2
#     Edge 58, Type (0, 0), BuildingBlock: OJICUG_clean_linker_0, # of connection points: 2
#     Edge 59, Type (0, 0), BuildingBlock: OJICUG_clean_linker_0, # of connection points: 2
#     Edge 60, Type (0, 0), BuildingBlock: OJICUG_clean_linker_0, # of connection points: 2
#     Edge 61, Type (0, 0), BuildingBlock: OJICUG_clean_linker_0, # of connection points: 2
#     Edge 62, Type (0, 0), BuildingBlock: OJICUG_clean_linker_0, # of connection points: 2
#     Edge 63, Type (0, 0), BuildingBlock: OJICUG_clean_linker_0, # of connection points: 2
# Relax obj value: 0.228
# Max RMSD: 0.265
# Mean RMSD: 0.194
data_MOF--net-bcs--node1-BETGAK_clean_sbu_0--edge1-OJICUG_clean_linker_0
_symmetry_space_group_name_H-M    P1
_symmetry_Int_Tables_number       1
_symmetry_cell_setting            triclinic
loop_
_symmetry_equiv_pos_as_xyz
'x, y, z'
_cell_length_a     33.905546
_cell_length_b     35.212055
_cell_length_c     29.340489
_cell_angle_alpha  87.936093
_cell_angle_beta   95.980133
_cell_angle_gamma 127.61231
loop_
_atom_site_label
_atom_site_type_symbol
_atom_site_fract_x
_atom_site_fract_y
_atom_site_fract_z
_atom_type_partial_charge
La0 La 0.10522 0.03657 0.05626 0.0
La1 La 1.02139 0.982 0.98288 0.0
C2 C 0.16166 0.0601 0.12923 0.0
C3 C 0.2119 0.07317 0.1353 0.0
C4 C 0.2393 0.08797 0.09715 0.0
C5 C 0.275 0.08076 0.09501 0.0
C6 C 0.28438 0.05957 0.13141 0.0
C7 C 0.26273 0.05212 0.17246 0.0
C8 C 0.22619 0.05852 0.17422 0.0
C9 C 0.13862 0.08225 0.97806 0.0
C10 C 0.1009 0.96301 0.98886 0.0
C11 C 0.95254 0.94995 0.91851 0.0
C12 C 0.90601 0.94423 0.91704 0.0
C13 C 0.88434 0.93725 0.95781 0.0
C14 C 0.84987 0.94622 0.95977 0.0
C15 C 0.83742 0.96313 0.92123 0.0
C16 C 0.85475 0.9644 0.87911 0.0
C17 C 0.88889 0.95498 0.8771 0.0
C18 C 1.00623 0.93734 0.06173 0.0
C19 C 1.02852 0.06097 0.04627 0.0
O20 O 0.15718 0.09002 0.10615 0.0
O21 O 0.1268 0.01537 0.11508 0.0
O22 O 0.16397 0.09644 1.01777 0.0
O23 O 0.09585 0.04434 0.98393 0.0
O24 O 0.11524 0.98376 0.03074 0.0
O25 O 0.06989 0.96593 0.96032 0.0
O26 O 0.95621 0.92272 0.947 0.0
O27 O 0.99314 0.99451 0.92195 0.0
O28 O 0.9946 0.91751 0.02148 0.0
O29 O 1.02598 0.98127 0.05681 0.0
O30 O 1.00497 0.02966 1.01036 0.0
O31 O 0.06718 0.06699 0.07074 0.0
H32 H 0.22958 0.10019 0.06697 0.0
H33 H 0.29194 0.08768 0.06338 0.0
H34 H 0.26921 0.03571 0.20117 0.0
H35 H 0.20542 0.04699 0.20393 0.0
H36 H 0.89702 0.9287 0.98911 0.0
H37 H 0.83605 0.94356 0.99231 0.0
H38 H 0.84616 0.97734 0.84862 0.0
H39 H 0.90525 0.96036 0.84541 0.0
La40 La 0.35338 0.72891 0.28759 0.0
La41 La 0.30019 0.7707 0.25391 0.0
C42 C 0.41396 0.71391 0.3201 0.0
C43 C 0.41656 0.68654 0.35733 0.0
C44 C 0.37529 0.63927 0.36487 0.0
C45 C 0.38066 0.61237 0.39733 0.0
C46 C 0.42715 0.63264 0.42283 0.0
C47 C 0.46726 0.681 0.41731 0.0
C48 C 0.46199 0.70768 0.38467 0.0
C49 C 0.27499 0.67633 0.22709 0.0
C50 C 0.26301 0.70076 0.33702 0.0
C51 C 0.24524 0.79013 0.21627 0.0
C52 C 0.26037 0.82814 0.18393 0.0
C53 C 0.31152 0.86296 0.1792 0.0
C54 C 0.32779 0.90317 0.15369 0.0
C55 C 0.29304 0.90929 0.13298 0.0
C56 C 0.24143 0.87219 0.13408 0.0
C57 C 0.22515 0.83171 0.15966 0.0
C58 C 0.38066 0.82625 0.31138 0.0
C59 C 0.39417 0.80395 0.20836 0.0
O60 O 0.38033 0.6892 0.28521 0.0
O61 O 0.41641 0.75059 0.33269 0.0
O62 O 0.2862 0.65807 0.26032 0.0
O63 O 0.30793 0.72081 0.22795 0.0
O64 O 0.30545 0.70622 0.34154 0.0
O65 O 0.25048 0.71708 0.30161 0.0
O66 O 0.26783 0.80542 0.2579 0.0
O67 O 0.24499 0.75545 0.2014 0.0
O68 O 0.36591 0.84212 0.27887 0.0
O69 O 0.34847 0.78151 0.31298 0.0
O70 O 0.35177 0.79812 0.2029 0.0
O71 O 0.40438 0.78354 0.24105 0.0
H72 H 0.33954 0.62259 0.3446 0.0
H73 H 0.34919 0.5752 0.40117 0.0
H74 H 0.50371 0.69733 0.43604 0.0
H75 H 0.49402 0.74427 0.37949 0.0
H76 H 0.33929 0.86084 0.19773 0.0
H77 H 0.36763 0.93137 0.15347 0.0
H78 H 0.21388 0.87644 0.11882 0.0
H79 H 0.18555 0.80482 0.16262 0.0
La80 La 0.5279 0.98544 0.54479 0.0
La81 La 0.60816 0.04462 0.48957 0.0
C82 C 0.45811 0.95039 0.59496 0.0
C83 C 0.41434 0.9497 0.58852 0.0
C84 C 0.3946 0.94944 0.54381 0.0
C85 C 0.36698 0.96672 0.53637 0.0
C86 C 0.35949 0.98462 0.57349 0.0
C87 C 0.37274 0.97823 0.61845 0.0
C88 C 0.40031 0.96086 0.62598 0.0
C89 C 0.51517 0.94343 0.46641 0.0
C90 C 0.52777 0.06108 0.47679 0.0
C91 C 0.67905 0.08056 0.44052 0.0
C92 C 0.72138 0.07896 0.44614 0.0
C93 C 0.73903 0.07526 0.49037 0.0
C94 C 0.76404 0.0552 0.49596 0.0
C95 C 0.77102 0.03853 0.45745 0.0
C96 C 0.76055 0.04921 0.41338 0.0
C97 C 0.73554 0.0693 0.4077 0.0
C98 C 0.62006 0.08576 0.56835 0.0
C99 C 0.60789 0.96862 0.5569 0.0
O100 O 0.45965 0.92515 0.56474 0.0
O101 O 0.50086 0.99332 0.60208 0.0
O102 O 0.5057 0.92324 0.5055 0.0
O103 O 0.53137 0.98626 0.4719 0.0
O104 O 0.51063 0.03375 0.51333 0.0
O105 O 0.56361 0.06576 0.45683 0.0
O106 O 0.67813 0.10472 0.47249 0.0
O107 O 0.63542 0.03878 0.43125 0.0
O108 O 0.62959 0.10642 0.52948 0.0
O109 O 0.60453 0.04331 0.5623 0.0
O110 O 0.62389 0.99475 0.51955 0.0
O111 O 0.57347 0.96556 0.57785 0.0
H112 H 0.40501 0.94094 0.51432 0.0
H113 H 0.35668 0.97131 0.50156 0.0
H114 H 0.36716 0.9921 0.64746 0.0
H115 H 0.41521 0.96123 0.66062 0.0
H116 H 0.72857 0.08262 0.5206 0.0
H117 H 0.77195 0.04711 0.53012 0.0
H118 H 0.76577 0.03634 0.3833 0.0
H119 H 0.72234 0.07208 0.37341 0.0
La120 La 0.32316 0.23311 0.76293 0.0
La121 La 0.29166 0.29318 0.76327 0.0
C122 C 0.34952 0.18428 0.7411 0.0
C123 C 0.35697 0.17298 0.69694 0.0
C124 C 0.39724 0.17208 0.69427 0.0
C125 C 0.4005 0.15407 0.65468 0.0
C126 C 0.363 0.13608 0.61755 0.0
C127 C 0.32563 0.14181 0.61853 0.0
C128 C 0.32282 0.16053 0.65803 0.0
C129 C 0.36584 0.29611 0.83278 0.0
C130 C 0.37063 0.32213 0.69737 0.0
C131 C 0.26929 0.34426 0.78852 0.0
C132 C 0.26226 0.35385 0.83379 0.0
C133 C 0.22592 0.36013 0.83752 0.0
C134 C 0.2221 0.37413 0.87947 0.0
C135 C 0.25493 0.38241 0.91837 0.0
C136 C 0.2891 0.37282 0.9152 0.0
C137 C 0.29245 0.35817 0.87315 0.0
C138 C 0.2495 0.23254 0.69205 0.0
C139 C 0.24239 0.20099 0.8262 0.0
O140 O 0.38142 0.22907 0.75545 0.0
O141 O 0.30334 0.16582 0.74696 0.0
O142 O 0.35311 0.25327 0.83543 0.0
O143 O 0.35709 0.30274 0.79194 0.0
O144 O 0.35582 0.27781 0.70299 0.0
O145 O 0.35394 0.33924 0.72209 0.0
O146 O 0.23583 0.30044 0.77187 0.0
O147 O 0.31501 0.36102 0.7828 0.0
O148 O 0.26132 0.2751 0.69137 0.0
O149 O 0.25779 0.224 0.73252 0.0
O150 O 0.25768 0.24572 0.82223 0.0
O151 O 0.25894 0.18469 0.80043 0.0
H152 H 0.42437 0.18249 0.72376 0.0
H153 H 0.42953 0.1497 0.65518 0.0
H154 H 0.29646 0.12831 0.5903 0.0
H155 H 0.29222 0.16242 0.65908 0.0
H156 H 0.20201 0.35633 0.80757 0.0
H157 H 0.19598 0.38212 0.88035 0.0
H158 H 0.31484 0.37906 0.94453 0.0
H159 H 0.32007 0.3523 0.87099 0.0
La160 La 0.09906 1.00116 0.53255 0.0
La161 La 1.02615 0.01941 0.50124 0.0
C162 C 0.17091 1.00014 0.56136 0.0
C163 C 0.17678 0.96784 0.58958 0.0
C164 C 0.1712 0.9292 0.56884 0.0
C165 C 0.18086 0.90116 0.59475 0.0
C166 C 0.19663 0.91133 0.64184 0.0
C167 C 0.20067 0.94888 0.66296 0.0
C168 C 0.19093 0.97696 0.63706 0.0
C169 C 1.01939 0.9323 0.48024 0.0
C170 C 1.00611 0.95256 0.58842 0.0
C171 C 0.95367 0.01921 0.47156 0.0
C172 C 0.94683 0.05047 0.44255 0.0
C173 C 0.95783 0.09256 0.46119 0.0
C174 C 0.94708 0.11961 0.4349 0.0
C175 C 0.92478 0.10507 0.3895 0.0
C176 C 0.9153 0.0639 0.3703 0.0
C177 C 0.92627 0.03689 0.39657 0.0
C178 C 0.10585 0.0882 0.5538 0.0
C179 C 0.11948 0.06848 0.44578 0.0
O180 O 0.14593 0.98333 0.52081 0.0
O181 O 0.15968 0.02427 0.58205 0.0
O182 O 1.04126 0.92489 0.51423 0.0
O183 O 1.04362 0.9766 0.47527 0.0
O184 O 1.0535 0.96932 0.59059 0.0
O185 O 0.98617 0.96252 0.55289 0.0
O186 O 0.97868 0.03675 0.51201 0.0
O187 O 0.96551 0.99536 0.45139 0.0
O188 O 0.08389 0.09575 0.51998 0.0
O189 O 0.08148 0.04387 0.5585 0.0
O190 O 0.07208 0.05172 0.44353 0.0
O191 O 0.1393 0.05838 0.48127 0.0
H192 H 0.1606 0.92129 0.53234 0.0
H193 H 0.17704 0.87211 0.57775 0.0
H194 H 0.21299 0.95757 0.6992 0.0
H195 H 0.19598 1.0067 0.65399 0.0
H196 H 0.9737 0.10417 0.49645 0.0
H197 H 0.95558 0.15162 0.45041 0.0
H198 H 0.89782 0.05164 0.33551 0.0
H199 H 0.91706 1.00444 0.38138 0.0
La200 La 0.23615 0.73485 0.82726 0.0
La201 La 0.30322 0.7563 0.7556 0.0
C202 C 0.1969 0.75001 0.88816 0.0
C203 C 0.18292 0.78186 0.90089 0.0
C204 C 0.1614 0.77482 0.9421 0.0
C205 C 0.14957 0.80468 0.9562 0.0
C206 C 0.15815 0.84287 0.92949 0.0
C207 C 0.17957 0.84978 0.88803 0.0
C208 C 0.19235 0.82039 0.87443 0.0
C209 C 0.19458 0.66999 0.75641 0.0
C210 C 0.24984 0.80175 0.74243 0.0
C211 C 0.34683 0.7504 0.69533 0.0
C212 C 0.37667 0.7329 0.69637 0.0
C213 C 0.42534 0.76303 0.68324 0.0
C214 C 0.45581 0.74864 0.68805 0.0
C215 C 0.43809 0.70391 0.70631 0.0
C216 C 0.38908 0.67362 0.71895 0.0
C217 C 0.35856 0.68785 0.71374 0.0
C218 C 0.34573 0.82277 0.82221 0.0
C219 C 0.29481 0.6906 0.83998 0.0
O220 O 0.17134 0.71879 0.85367 0.0
O221 O 0.2444 0.76944 0.88918 0.0
O222 O 0.18408 0.65919 0.79879 0.0
O223 O 0.22468 0.71509 0.75555 0.0
O224 O 0.24032 0.79086 0.78567 0.0
O225 O 0.26882 0.78548 0.72025 0.0
O226 O 0.367 0.78926 0.72047 0.0
O227 O 0.29903 0.71821 0.69966 0.0
O228 O 0.35357 0.83122 0.77948 0.0
O229 O 0.31599 0.77784 0.82661 0.0
O230 O 0.30688 0.70516 0.79783 0.0
O231 O 0.26912 0.70085 0.86129 0.0
H232 H 0.15391 0.74607 0.96392 0.0
H233 H 0.13294 0.79728 0.98805 0.0
H234 H 0.18767 0.87884 0.86639 0.0
H235 H 0.21034 0.8283 0.84347 0.0
H236 H 0.43997 0.79793 0.66976 0.0
H237 H 0.49302 0.77232 0.67702 0.0
H238 H 0.37444 0.63907 0.73332 0.0
H239 H 0.32102 0.66382 0.72388 0.0
La240 La 0.58625 0.98465 1.00298 0.0
La241 La 0.53702 0.03384 0.03094 0.0
C242 C 0.62129 0.94627 0.96551 0.0
C243 C 0.64385 0.92377 0.94498 0.0
C244 C 0.68169 0.92319 0.96998 0.0
C245 C 0.70303 0.90309 0.95133 0.0
C246 C 0.68914 0.88336 0.90576 0.0
C247 C 0.65093 0.88381 0.88095 0.0
C248 C 0.62885 0.90301 0.9 0.0
C249 C 0.63315 0.04813 0.0734 0.0
C250 C 0.60534 0.07642 0.95195 0.0
C251 C 0.50196 0.07205 0.06863 0.0
C252 C 0.47938 0.09436 0.08948 0.0
C253 C 0.43939 0.0924 0.06577 0.0
C254 C 0.41835 0.11271 0.0846 0.0
C255 C 0.43496 0.13533 0.12902 0.0
C256 C 0.47493 0.13704 0.15273 0.0
C257 C 0.49669 0.11764 0.13345 0.0
C258 C 0.49042 0.97053 0.96031 0.0
C259 C 0.51865 0.94277 0.08238 0.0
O260 O 0.64403 0.97722 1.00024 0.0
O261 O 0.57792 0.93689 0.95151 0.0
O262 O 0.63187 0.01091 0.06902 0.0
O263 O 0.61062 0.05072 0.03771 0.0
O264 O 0.60298 0.03728 0.95083 0.0
O265 O 0.58863 0.08646 0.98487 0.0
O266 O 0.4779 0.039 0.03567 0.0
O267 O 0.54658 0.08353 0.08076 0.0
O268 O 0.49186 1.00787 0.96463 0.0
O269 O 0.51267 0.96781 0.99618 0.0
O270 O 0.52174 0.98226 0.08367 0.0
O271 O 0.53426 0.93206 0.04894 0.0
H272 H 0.69513 0.93846 1.0046 0.0
H273 H 0.73197 0.90461 0.97273 0.0
H274 H 0.63721 0.86881 0.84631 0.0
H275 H 0.60007 0.90204 0.87888 0.0
H276 H 0.4241 0.07506 0.03203 0.0
H277 H 0.38774 0.10935 0.06437 0.0
H278 H 0.49027 0.15406 0.18657 0.0
H279 H 0.52709 0.12051 0.15358 0.0
La280 La 0.35234 0.27096 0.30947 0.0
La281 La 0.27772 0.25385 0.22904 0.0
C282 C 0.3864 0.24418 0.37403 0.0
C283 C 0.41112 0.22061 0.38637 0.0
C284 C 0.43576 0.21376 0.35562 0.0
C285 C 0.45545 0.18856 0.36858 0.0
C286 C 0.45061 0.16887 0.41252 0.0
C287 C 0.42632 0.17649 0.44308 0.0
C288 C 0.40711 0.20177 0.43026 0.0
C289 C 0.39266 0.33552 0.24317 0.0
C290 C 0.33908 0.21119 0.21766 0.0
C291 C 0.24076 0.27901 0.16577 0.0
C292 C 0.21634 0.30356 0.15692 0.0
C293 C 0.16563 0.27806 0.13928 0.0
C294 C 0.14509 0.30217 0.12509 0.0
C295 C 0.17471 0.35288 0.12727 0.0
C296 C 0.2251 0.37807 0.14591 0.0
C297 C 0.2454 0.35406 0.16032 0.0
C298 C 0.23766 0.18917 0.29491 0.0
C299 C 0.29298 0.31512 0.32138 0.0
O300 O 0.41204 0.28791 0.3587 0.0
O301 O 0.34097 0.21699 0.35319 0.0
O302 O 0.41066 0.34434 0.2864 0.0
O303 O 0.3565 0.29115 0.23925 0.0
O304 O 0.35523 0.22442 0.26186 0.0
O305 O 0.30925 0.22104 0.19588 0.0
O306 O 0.21579 0.23531 0.18127 0.0
O307 O 0.28739 0.30572 0.18382 0.0
O308 O 0.22058 0.18018 0.25146 0.0
O309 O 0.27334 0.23372 0.2992 0.0
O310 O 0.27555 0.30076 0.27741 0.0
O311 O 0.32327 0.30574 0.34274 0.0
H312 H 0.43964 0.2277 0.32155 0.0
H313 H 0.47355 0.18364 0.3437 0.0
H314 H 0.42223 0.16304 0.47739 0.0
H315 H 0.38836 0.20615 0.45489 0.0
H316 H 0.14207 0.23937 0.13516 0.0
H317 H 0.10628 0.28095 0.11082 0.0
H318 H 0.24941 0.41683 0.14928 0.0
H319 H 0.28467 0.37557 0.17311 0.0
La320 La 0.59421 0.49201 0.02517 0.0
La321 La 0.52988 0.52713 1.00853 0.0
C322 C 0.64594 0.46502 0.05822 0.0
C323 C 0.67586 0.44768 0.07665 0.0
C324 C 0.66931 0.40855 0.05539 0.0
C325 C 0.69573 0.39105 0.0732 0.0
C326 C 0.72968 0.41163 0.11337 0.0
C327 C 0.73612 0.45088 0.13459 0.0
C328 C 0.70979 0.46845 0.11665 0.0
C329 C 0.51952 0.44675 0.9593 0.0
C330 C 0.50328 0.45478 0.08805 0.0
C331 C 0.4778 0.55392 0.97599 0.0
C332 C 0.44763 0.57112 0.95781 0.0
C333 C 0.45406 0.61011 0.97924 0.0
C334 C 0.42737 0.62743 0.96174 0.0
C335 C 0.39296 0.60662 0.92184 0.0
C336 C 0.3866 0.56742 0.90051 0.0
C337 C 0.41345 0.55024 0.91798 0.0
C338 C 0.60458 0.57217 0.0742 0.0
C339 C 0.62129 0.56474 0.94523 0.0
O340 O 0.60683 0.43996 0.02792 0.0
O341 O 0.65684 0.5065 0.06929 0.0
O342 O 0.56172 0.45388 0.95881 0.0
O343 O 0.51856 0.46138 0.99741 0.0
O344 O 0.54751 0.46446 0.08426 0.0
O345 O 0.4846 0.47038 0.05736 0.0
O346 O 0.51331 0.57613 1.00993 0.0
O347 O 0.47052 0.51518 0.96097 0.0
O348 O 0.56197 0.56407 0.0756 0.0
O349 O 0.60548 0.55782 0.03594 0.0
O350 O 0.57877 0.55792 0.95104 0.0
O351 O 0.63827 0.5462 0.97399 0.0
H352 H 0.64339 0.3911 0.02478 0.0
H353 H 0.68859 0.36055 0.05573 0.0
H354 H 0.76224 0.46883 0.16495 0.0
H355 H 0.71603 0.49846 0.1343 0.0
H356 H 0.48021 0.62771 1.00969 0.0
H357 H 0.43466 0.65794 0.9793 0.0
H358 H 0.3601 0.54909 0.87046 0.0
H359 H 0.40719 0.52029 0.90021 0.0
La360 La 0.81951 0.26134 0.27974 0.0
La361 La 0.88686 0.28425 0.20896 0.0
C362 C 0.77452 0.26191 0.3424 0.0
C363 C 0.73263 0.26349 0.34454 0.0
C364 C 0.70483 0.24483 0.38233 0.0
C365 C 0.66594 0.24767 0.38571 0.0
C366 C 0.65455 0.26948 0.35137 0.0
C367 C 0.68128 0.28634 0.3126 0.0
C368 C 0.71989 0.28316 0.30914 0.0
C369 C 0.77644 0.19544 0.21222 0.0
C370 C 0.82681 0.32711 0.19611 0.0
C371 C 0.93065 0.27213 0.15074 0.0
C372 C 0.94138 0.23778 0.13733 0.0
C373 C 0.92837 0.21869 0.09197 0.0
C374 C 0.941 0.18959 0.07739 0.0
C375 C 0.9675 0.17798 0.10745 0.0
C376 C 0.98007 0.19691 0.15315 0.0
C377 C 0.96757 0.22619 0.16762 0.0
C378 C 0.92775 0.34865 0.28042 0.0
C379 C 0.8728 0.21656 0.29092 0.0
O380 O 0.76284 0.22277 0.32357 0.0
O381 O 0.8154 0.30062 0.32846 0.0
O382 O 0.76797 0.18685 0.25468 0.0
O383 O 0.80666 0.24034 0.2082 0.0
O384 O 0.81356 0.31114 0.2377 0.0
O385 O 0.85396 0.3184 0.17515 0.0
O386 O 0.95289 0.29803 0.18893 0.0
O387 O 0.88472 0.25806 0.1437 0.0
O388 O 0.93773 0.3597 0.23802 0.0
O389 O 0.89837 0.30352 0.28107 0.0
O390 O 0.87711 0.22388 0.24661 0.0
O391 O 0.85973 0.23762 0.31446 0.0
H392 H 0.71371 0.22876 0.40955 0.0
H393 H 0.64548 0.23371 0.41563 0.0
H394 H 0.67384 0.30381 0.28581 0.0
H395 H 0.74044 0.29704 0.27933 0.0
H396 H 0.90894 0.22705 0.06712 0.0
H397 H 0.93078 0.17721 0.04185 0.0
H398 H 0.99954 0.18899 0.17838 0.0
H399 H 0.97886 0.24006 0.20274 0.0
La400 La 0.09194 0.48685 0.51465 0.0
La401 La 1.03377 0.53269 0.52191 0.0
C402 C 0.13283 0.45282 0.48031 0.0
C403 C 0.15677 0.43195 0.45911 0.0
C404 C 0.20393 0.44387 0.47657 0.0
C405 C 0.22638 0.42578 0.45589 0.0
C406 C 0.20339 0.39476 0.41603 0.0
C407 C 0.15601 0.38281 0.39889 0.0
C408 C 0.13357 0.4007 0.41966 0.0
C409 C 0.11524 0.54017 0.59134 0.0
C410 C 0.12665 0.5863 0.46765 0.0
C411 C 0.99272 0.5666 0.55613 0.0
C412 C 0.96874 0.58742 0.5773 0.0
C413 C 0.92161 0.57553 0.55974 0.0
C414 C 0.89914 0.59359 0.58038 0.0
C415 C 0.92207 0.62458 0.62026 0.0
C416 C 0.96941 0.63649 0.63751 0.0
C417 C 0.99187 0.6186 0.61679 0.0
C418 C 1.0104 0.47928 0.44527 0.0
C419 C 0.99961 0.43361 0.56946 0.0
O420 O 0.15338 0.48335 0.51555 0.0
O421 O 0.08848 0.44074 0.46572 0.0
O422 O 0.11897 0.50551 0.58862 0.0
O423 O 0.10288 0.54626 0.55086 0.0
O424 O 0.1268 0.5487 0.47113 0.0
O425 O 0.09635 0.59079 0.48776 0.0
O426 O 0.97228 0.53615 0.52085 0.0
O427 O 1.03704 0.57867 0.57084 0.0
O428 O 1.00683 0.51404 0.44796 0.0
O429 O 1.02272 0.47324 0.48578 0.0
O430 O 0.99922 0.47106 0.56568 0.0
O431 O 1.02976 0.42898 0.54927 0.0
H432 H 0.22411 0.4678 0.50647 0.0
H433 H 0.26268 0.43718 0.47106 0.0
H434 H 0.13527 0.3588 0.36917 0.0
H435 H 0.09754 0.38999 0.40429 0.0
H436 H 0.9015 0.55163 0.52981 0.0
H437 H 0.86286 0.58223 0.56515 0.0
H438 H 0.99009 0.66045 0.66726 0.0
H439 H 1.02786 0.62927 0.63222 0.0
La440 La 0.83745 0.72575 0.27169 0.0
La441 La 0.80421 0.78419 0.2689 0.0
C442 C 0.86076 0.67505 0.24774 0.0
C443 C 0.86679 0.6651 0.20219 0.0
C444 C 0.90186 0.65734 0.19752 0.0
C445 C 0.90455 0.64323 0.15506 0.0
C446 C 0.87184 0.63636 0.11664 0.0
C447 C 0.83898 0.64736 0.1208 0.0
C448 C 0.83681 0.66214 0.16333 0.0
C449 C 0.87817 0.787 0.34203 0.0
C450 C 0.88682 0.8172 0.20771 0.0
C451 C 0.77538 0.83211 0.28644 0.0
C452 C 0.76644 0.84446 0.32902 0.0
C453 C 0.72857 0.84937 0.32809 0.0
C454 C 0.72426 0.86811 0.36642 0.0
C455 C 0.75818 0.88259 0.40609 0.0
C456 C 0.7932 0.87341 0.40829 0.0
C457 C 0.79712 0.8541 0.36993 0.0
C458 C 0.76338 0.71976 0.20019 0.0
C459 C 0.75805 0.6973 0.33681 0.0
O460 O 0.89392 0.71925 0.26352 0.0
O461 O 0.81507 0.65775 0.25431 0.0
O462 O 0.8673 0.74483 0.34343 0.0
O463 O 0.86997 0.79513 0.3013 0.0
O464 O 0.87262 0.77294 0.21283 0.0
O465 O 0.86869 0.83289 0.23202 0.0
O466 O 0.74457 0.78686 0.27344 0.0
O467 O 0.82206 0.85114 0.28227 0.0
O468 O 0.77618 0.76251 0.19617 0.0
O469 O 0.77138 0.71424 0.24159 0.0
O470 O 0.77189 0.7411 0.32975 0.0
O471 O 0.77539 0.68014 0.31312 0.0
H472 H 0.92562 0.66011 0.22708 0.0
H473 H 0.92963 0.63409 0.15332 0.0
H474 H 0.81331 0.64211 0.09186 0.0
H475 H 0.81018 0.66915 0.16627 0.0
H476 H 0.70422 0.84135 0.29691 0.0
H477 H 0.69724 0.87526 0.36327 0.0
H478 H 0.81956 0.88407 0.43848 0.0
H479 H 0.82587 0.84928 0.37142 0.0
La480 La 0.82857 0.25362 0.78594 0.0
La481 La 0.77562 0.29556 0.75234 0.0
C482 C 0.88204 0.23295 0.8245 0.0
C483 C 0.86481 0.19426 0.85651 0.0
C484 C 0.81311 0.1593 0.85843 0.0
C485 C 0.79504 0.1193 0.88476 0.0
C486 C 0.82852 0.11335 0.90909 0.0
C487 C 0.88045 0.15044 0.91048 0.0
C488 C 0.89855 0.19083 0.88415 0.0
C489 C 0.74926 0.19909 0.72693 0.0
C490 C 0.73341 0.21906 0.83018 0.0
C491 C 0.71566 0.31093 0.71905 0.0
C492 C 0.71386 0.33752 0.68063 0.0
C493 C 0.75644 0.38323 0.67091 0.0
C494 C 0.75232 0.40973 0.63698 0.0
C495 C 0.70576 0.3905 0.61217 0.0
C496 C 0.66417 0.34339 0.61988 0.0
C497 C 0.66821 0.31717 0.65401 0.0
C498 C 0.85335 0.34756 0.81346 0.0
C499 C 0.86654 0.32397 0.70343 0.0
O500 O 0.86066 0.21856 0.7824 0.0
O501 O 0.88288 0.26807 0.83913 0.0
O502 O 0.76337 0.18262 0.75932 0.0
O503 O 0.78134 0.24386 0.72631 0.0
O504 O 0.77584 0.22498 0.83598 0.0
O505 O 0.72384 0.24033 0.79799 0.0
O506 O 0.74985 0.33638 0.75339 0.0
O507 O 0.712 0.2732 0.7079 0.0
O508 O 0.84248 0.36611 0.78028 0.0
O509 O 0.82032 0.30307 0.81228 0.0
O510 O 0.82394 0.31823 0.69868 0.0
O511 O 0.87906 0.30779 0.739 0.0
H512 H 0.78643 0.16125 0.83739 0.0
H513 H 0.75499 0.09116 0.88306 0.0
H514 H 0.9071 0.14634 0.92863 0.0
H515 H 0.93854 0.21789 0.88352 0.0
H516 H 0.79234 0.39911 0.69059 0.0
H517 H 0.78486 0.44594 0.63149 0.0
H518 H 0.62766 0.32796 0.60172 0.0
H519 H 0.63521 0.2817 0.66083 0.0
La520 La 0.84923 0.76769 0.80578 0.0
La521 La 0.77374 0.74912 0.72543 0.0
C522 C 0.88966 0.74651 0.86979 0.0
C523 C 0.91317 0.72115 0.87908 0.0
C524 C 0.963 0.74598 0.89922 0.0
C525 C 0.98288 0.72141 0.91391 0.0
C526 C 0.95354 0.67081 0.90957 0.0
C527 C 0.90405 0.64628 0.8884 0.0
C528 C 0.88435 0.67081 0.87356 0.0
C529 C 0.88807 0.83203 0.73951 0.0
C530 C 0.8328 0.70483 0.7142 0.0
C531 C 0.739 0.77606 0.66165 0.0
C532 C 0.71966 0.8051 0.652 0.0
C533 C 0.67019 0.78715 0.65703 0.0
C534 C 0.65222 0.81364 0.64338 0.0
C535 C 0.68315 0.85942 0.62405 0.0
C536 C 0.73307 0.87756 0.62016 0.0
C537 C 0.75069 0.85097 0.63351 0.0
C538 C 0.73535 0.68348 0.79095 0.0
C539 C 0.78692 0.80908 0.81709 0.0
O540 O 0.91397 0.7882 0.85024 0.0
O541 O 0.84194 0.71997 0.85549 0.0
O542 O 0.90475 0.84162 0.783 0.0
O543 O 0.85298 0.78732 0.73541 0.0
O544 O 0.85038 0.71956 0.75813 0.0
O545 O 0.80228 0.7138 0.69258 0.0
O546 O 0.71173 0.73366 0.67991 0.0
O547 O 0.78613 0.80014 0.67742 0.0
O548 O 0.71692 0.67524 0.74782 0.0
O549 O 0.77004 0.72831 0.79545 0.0
O550 O 0.77087 0.79572 0.77292 0.0
O551 O 0.81736 0.80003 0.83887 0.0
H552 H 0.98638 0.78452 0.9049 0.0
H553 H 1.02092 0.74218 0.9302 0.0
H554 H 0.88003 0.60768 0.88327 0.0
H555 H 0.84578 0.64985 0.85863 0.0
H556 H 0.64511 0.75227 0.67101 0.0
H557 H 0.6135 0.79739 0.64702 0.0
H558 H 0.75918 0.91271 0.60677 0.0
H559 H 0.78897 0.86635 0.62863 0.0
La560 La 0.54141 0.47693 0.47941 0.0
La561 La 0.59088 0.54492 0.55759 0.0
C562 C 0.50608 0.42992 0.40463 0.0
C563 C 0.50875 0.39186 0.39115 0.0
C564 C 0.50449 0.35979 0.42396 0.0
C565 C 0.51835 0.33106 0.4153 0.0
C566 C 0.53746 0.33423 0.37393 0.0
C567 C 0.53849 0.36394 0.33984 0.0
C568 C 0.52433 0.39267 0.3485 0.0
C569 C 0.50635 0.43748 0.55854 0.0
C570 C 0.62716 0.48347 0.5356 0.0
C571 C 0.62277 0.58651 0.63535 0.0
C572 C 0.60949 0.61375 0.65678 0.0
C573 C 0.59866 0.64031 0.62908 0.0
C574 C 0.57564 0.65766 0.64636 0.0
C575 C 0.56341 0.6491 0.6916 0.0
C576 C 0.57596 0.62439 0.72012 0.0
C577 C 0.59909 0.60679 0.70273 0.0
C578 C 0.62619 0.58478 0.47878 0.0
C579 C 0.50719 0.5399 0.49926 0.0
O580 O 0.47897 0.42028 0.43817 0.0
O581 O 0.54947 0.47242 0.41023 0.0
O582 O 0.51312 0.41806 0.52675 0.0
O583 O 0.51837 0.47744 0.54504 0.0
O584 O 0.59992 0.46979 0.49574 0.0
O585 O 0.62567 0.50913 0.56612 0.0
O586 O 0.64728 0.60528 0.59926 0.0
O587 O 0.58583 0.54081 0.62857 0.0
O588 O 0.62058 0.60472 0.51116 0.0
O589 O 0.61382 0.5446 0.49199 0.0
O590 O 0.5308 0.5501 0.54079 0.0
O591 O 0.51196 0.51725 0.46804 0.0
H592 H 0.49269 0.35841 0.45726 0.0
H593 H 0.51593 0.30768 0.4418 0.0
H594 H 0.55345 0.36754 0.30775 0.0
H595 H 0.52856 0.41766 0.32306 0.0
H596 H 0.60533 0.64536 0.59327 0.0
H597 H 0.56532 0.676 0.62378 0.0
H598 H 0.56572 0.61678 0.75489 0.0
H599 H 0.60635 0.58561 0.72428 0.0
La600 La 1.02349 0.48308 0.04598 0.0
La601 La 0.10504 0.54135 0.99399 0.0
C602 C 0.95244 0.44937 0.09405 0.0
C603 C 0.90965 0.45017 0.08483 0.0
C604 C 0.88941 0.44621 0.03922 0.0
C605 C 0.8643 0.46567 0.02759 0.0
C606 C 0.85989 0.48942 0.06137 0.0
C607 C 0.87319 0.48674 0.1077 0.0
C608 C 0.89817 0.46724 0.11941 0.0
C609 C 1.00684 0.44523 0.96371 0.0
C610 C 1.03031 0.56503 0.98283 0.0
C611 C 0.17604 0.57496 0.94577 0.0
C612 C 0.2173 0.57168 0.95291 0.0
C613 C 0.23951 0.5757 0.99766 0.0
C614 C 0.26305 0.55444 1.00759 0.0
C615 C 0.26375 0.5287 0.97301 0.0
C616 C 0.24847 0.53105 0.92731 0.0
C617 C 0.22527 0.55249 0.91726 0.0
C618 C 0.12141 0.5788 0.07658 0.0
C619 C 0.09776 0.45894 0.05627 0.0
O620 O 0.95448 0.42331 0.06533 0.0
O621 O 0.99566 0.49184 0.10204 0.0
O622 O 0.99725 0.42261 1.0015 0.0
O623 O 1.02739 0.48856 0.97313 0.0
O624 O 1.01025 0.53516 1.01727 0.0
O625 O 0.06648 0.56964 0.96369 0.0
O626 O 0.17548 0.60045 0.97652 0.0
O627 O 0.13188 0.5337 0.93643 0.0
O628 O 0.13075 0.60152 0.03883 0.0
O629 O 0.10118 0.53562 0.06687 0.0
O630 O 0.11716 0.48823 0.02137 0.0
O631 O 0.06263 0.45536 0.07636 0.0
H632 H 0.89777 0.4331 1.01182 0.0
H633 H 0.85377 0.46716 0.9918 0.0
H634 H 0.86973 0.5049 0.13423 0.0
H635 H 0.91323 0.47038 0.1547 0.0
H636 H 0.23399 0.5905 0.02586 0.0
H637 H 0.27519 0.55325 0.04289 0.0
H638 H 0.2493 0.51155 0.90014 0.0
H639 H 0.20879 0.54938 0.88258 0.0
C640 C 0.21193 0.19032 0.90385 0.0
C641 C 0.20997 0.16989 0.86262 0.0
H642 H 0.1911 0.17836 0.97251 0.0
C643 C 0.17938 0.11934 0.85797 0.0
H644 H 0.23516 0.22895 0.9088 0.0
C645 C 0.15266 0.09013 0.89415 0.0
C646 C 0.1571 0.11091 0.93619 0.0
H647 H 0.17692 0.10237 0.82662 0.0
H648 H 0.13098 0.05155 0.89017 0.0
C649 C 0.18656 0.16126 0.94034 0.0
C650 C 0.28468 1.00292 0.084 0.0
C651 C 0.30483 0.034 0.12293 0.0
H652 H 0.26569 0.93764 0.05629 0.0
C653 C 0.33404 0.031 0.15806 0.0
H654 H 0.26182 1.00425 0.05631 0.0
C655 C 0.33708 0.99345 0.15738 0.0
C656 C 0.3096 0.95774 0.12224 0.0
H657 H 0.35012 0.05457 0.18826 0.0
H658 H 0.35516 0.98895 0.18744 0.0
C659 C 0.28674 0.96466 0.08384 0.0
C660 C 0.46038 0.86466 0.42442 0.0
C661 C 0.48817 0.91476 0.4236 0.0
H662 H 0.40356 0.79729 0.3898 0.0
C663 C 0.48453 0.93586 0.38352 0.0
H664 H 0.46265 0.84747 0.45487 0.0
C665 C 0.45105 0.90695 0.34586 0.0
C666 C 0.42077 0.85673 0.34805 0.0
H667 H 0.50568 0.97443 0.38208 0.0
H668 H 0.44734 0.92381 0.31586 0.0
C669 C 0.42666 0.83588 0.38711 0.0
C670 C 0.31077 0.05367 0.58458 0.0
C671 C 0.35591 0.10053 0.58578 0.0
H672 H 0.27683 0.97869 0.58 0.0
C673 C 0.39786 0.10825 0.57017 0.0
H674 H 0.27822 0.04699 0.59694 0.0
C675 C 0.39709 0.06926 0.56148 0.0
C676 C 0.35382 0.02238 0.56631 0.0
H677 H 0.43307 0.14406 0.57087 0.0
H678 H 0.43195 0.07593 0.5564 0.0
C679 C 0.30991 0.01461 0.57538 0.0
C680 C 0.24302 0.87682 0.6511 0.0
C681 C 0.21086 0.88406 0.66828 0.0
H682 H 0.28119 0.84588 0.6614 0.0
C683 C 0.1924 0.86501 0.71057 0.0
H684 H 0.25829 0.89168 0.61883 0.0
C685 C 0.20517 0.8384 0.73485 0.0
C686 C 0.23725 0.831 0.71765 0.0
H687 H 0.16716 0.86975 0.72432 0.0
H688 H 0.18887 0.82268 0.76642 0.0
C689 C 0.25619 0.85068 0.67557 0.0
C690 C 0.40588 0.90792 0.85055 0.0
C691 C 0.3812 0.85916 0.85921 0.0
H692 H 0.45945 0.98074 0.87559 0.0
C693 C 0.39396 0.84683 0.90138 0.0
H694 H 0.39717 0.9186 0.81833 0.0
C695 C 0.43103 0.88282 0.93396 0.0
C696 C 0.4551 0.93161 0.92521 0.0
H697 H 0.376 0.80953 0.90879 0.0
H698 H 0.44002 0.87251 0.96626 0.0
C699 C 0.44185 0.94355 0.88324 0.0
C700 C 0.40842 0.15633 0.1989 0.0
C701 C 0.41009 0.15524 0.15085 0.0
H702 H 0.38487 0.17207 0.25609 0.0
C703 C 0.38653 0.17258 0.12461 0.0
H704 H 0.42484 0.14335 0.22149 0.0
C705 C 0.36253 0.18923 0.14508 0.0
C706 C 0.3608 0.18985 0.19317 0.0
H707 H 0.38657 0.1735 0.08772 0.0
H708 H 0.34584 0.20228 0.12296 0.0
C709 C 0.38461 0.17284 0.21918 0.0
C710 C 0.12963 0.08791 0.36119 0.0
C711 C 0.15059 0.09894 0.4074 0.0
H712 H 0.1403 0.10588 0.29022 0.0
C713 C 0.20097 0.13991 0.41613 0.0
H714 H 0.09106 0.05685 0.35279 0.0
C715 C 0.22886 0.16926 0.38012 0.0
C716 C 0.20823 0.15763 0.33375 0.0
H717 H 0.21849 0.15016 0.45108 0.0
H718 H 0.26666 0.20134 0.38882 0.0
C719 C 0.15809 0.11614 0.32508 0.0
C720 C 0.95577 0.11356 0.05373 0.0
C721 C 0.98249 0.14733 0.09132 0.0
H722 H 0.94814 0.06059 1.01012 0.0
C723 C 1.02435 0.15159 0.11312 0.0
H724 H 0.92311 0.10795 0.03571 0.0
C725 C 1.03847 0.12383 0.09853 0.0
C726 C 1.01174 0.0901 0.06115 0.0
H727 H 1.04728 0.17717 0.14141 0.0
H728 H 0.07109 0.12927 0.11681 0.0
C729 C 0.97002 0.08572 0.03899 0.0
C730 C 0.14963 0.64118 0.40278 0.0
C731 C 0.16379 0.62448 0.44002 0.0
H732 H 0.17024 0.67836 0.33987 0.0
C733 C 0.21197 0.63696 0.44556 0.0
H734 H 0.11222 0.63117 0.3978 0.0
C735 C 0.24468 0.66312 0.41269 0.0
C736 C 0.22964 0.6771 0.37351 0.0
H737 H 0.22339 0.62422 0.47424 0.0
H738 H 0.28103 0.67075 0.41732 0.0
C739 C 0.18251 0.66744 0.3695 0.0
C740 C 0.66714 0.94679 0.55605 0.0
C741 C 0.62775 0.94154 0.57505 0.0
H742 H 0.71452 0.92576 0.55481 0.0
C743 C 0.60683 0.90909 0.61098 0.0
H744 H 0.68434 0.97132 0.52877 0.0
C745 C 0.62442 0.88281 0.62679 0.0
C746 C 0.66386 0.8878 0.60743 0.0
H747 H 0.57642 0.90365 0.62694 0.0
H748 H 0.60721 0.85891 0.65472 0.0
C749 C 0.68476 0.9206 0.57165 0.0
C750 C 0.46526 0.42017 0.8856 0.0
C751 C 0.47478 0.40949 0.92989 0.0
H752 H 0.42203 0.3923 0.82018 0.0
C753 C 0.44543 0.36177 0.94354 0.0
H754 H 0.48794 0.45683 0.87447 0.0
C755 C 0.40848 0.32476 0.91238 0.0
C756 C 0.40022 0.33515 0.86735 0.0
H757 H 0.45273 0.35295 0.97757 0.0
H758 H 0.3875 0.28798 0.92303 0.0
C759 C 0.42778 0.38329 0.85466 0.0
C760 C 0.92208 0.81134 0.42106 0.0
C761 C 0.91029 0.82406 0.37879 0.0
H762 H 0.96585 0.83583 0.48642 0.0
C763 C 0.93178 0.87243 0.37138 0.0
H764 H 0.90568 0.77423 0.42782 0.0
C765 C 0.9663 0.90772 0.40501 0.0
C766 C 0.97967 0.89508 0.44649 0.0
H767 H 0.92309 0.88312 0.33917 0.0
H768 H 0.98365 0.94497 0.39793 0.0
C769 C 0.95651 0.84654 0.45458 0.0
C770 C 0.5521 0.70672 0.72139 0.0
C771 C 0.53133 0.66034 0.70561 0.0
H772 H 0.5384 0.75692 0.7347 0.0
C773 C 0.47953 0.62703 0.69458 0.0
H774 H 0.59211 0.73282 0.73 0.0
C775 C 0.44892 0.64067 0.69676 0.0
C776 C 0.46977 0.68797 0.70993 0.0
H777 H 0.46319 0.5913 0.68158 0.0
H778 H 0.40939 0.61494 0.68556 0.0
C779 C 0.52146 0.72048 0.72362 0.0
C780 C 0.6431 0.15732 0.91915 0.0
C781 C 0.63162 0.11164 0.91664 0.0
H782 H 0.68494 0.22825 0.89245 0.0
C783 C 0.6488 0.10069 0.88162 0.0
H784 H 0.63003 0.16659 0.94563 0.0
C785 C 0.67987 0.13564 0.85191 0.0
C786 C 0.69377 0.18185 0.85626 0.0
H787 H 0.64009 0.06571 0.87816 0.0
H788 H 0.69454 0.12701 0.82647 0.0
C789 C 0.67414 0.19243 0.88884 0.0
C790 C 0.08618 0.38728 0.09615 0.0
C791 C 0.11689 0.4314 0.0744 0.0
H792 H 0.07923 0.328 0.12914 0.0
C793 C 0.16647 0.44927 0.07093 0.0
H794 H 1.04774 0.37215 0.09994 0.0
C795 C 0.18491 0.42423 0.08805 0.0
C796 C 0.15426 0.37968 0.10919 0.0
H797 H 0.19135 0.48316 0.05526 0.0
H798 H 0.22336 0.43974 0.08391 0.0
C799 C 0.10432 0.36166 0.11277 0.0
C800 C 0.69655 0.60465 0.89777 0.0
C801 C 0.65057 0.59467 0.90533 0.0
H802 H 0.75805 0.63858 0.85614 0.0
C803 C 0.63272 0.61376 0.87384 0.0
H804 H 0.71187 0.59069 0.92048 0.0
C805 C 0.65972 0.64177 0.8369 0.0
C806 C 0.70588 0.65219 0.82983 0.0
H807 H 0.59764 0.6072 0.87771 0.0
H808 H 0.64467 0.65591 0.81405 0.0
C809 C 0.72355 0.63275 0.86079 0.0
C810 C 0.79582 0.35141 0.12534 0.0
C811 C 0.80666 0.3524 0.17323 0.0
H812 H 0.76384 0.36881 0.06896 0.0
C813 C 0.79306 0.37415 0.20059 0.0
H814 H 0.80515 0.33483 0.10286 0.0
C815 C 0.76915 0.39348 0.18131 0.0
C816 C 0.75715 0.39182 0.13353 0.0
H817 H 0.80033 0.37577 0.23757 0.0
H818 H 0.75875 0.40856 0.20444 0.0
C819 C 0.77128 0.37047 0.10589 0.0
C820 C 0.99059 0.46235 0.3585 0.0
C821 C 0.99178 0.4462 0.40311 0.0
H822 H 0.9712 0.44565 0.28562 0.0
C823 C 0.97247 0.39768 0.40653 0.0
H824 H 1.00484 0.49924 0.35405 0.0
C825 C 0.95172 0.36642 0.36712 0.0
C826 C 0.95073 0.38266 0.32247 0.0
H827 H 0.97215 0.38342 0.43994 0.0
H828 H 0.93651 0.32928 0.37168 0.0
C829 C 0.97119 0.43146 0.31898 0.0
C830 C 0.67413 0.59291 0.41375 0.0
C831 C 0.65797 0.61216 0.44094 0.0
H832 H 0.71841 0.60446 0.3599 0.0
C833 C 0.67432 0.65916 0.43304 0.0
H834 H 0.66232 0.55686 0.41898 0.0
C835 C 0.70648 0.6865 0.39931 0.0
C836 C 0.72339 0.66769 0.37246 0.0
H837 H 0.66259 0.67512 0.4533 0.0
H838 H 0.71835 0.72262 0.39456 0.0
C839 C 0.70649 0.62035 0.37998 0.0
C840 C 0.93483 0.42254 0.8475 0.0
C841 C 0.89532 0.37344 0.84965 0.0
H842 H 1.00243 0.48435 0.88245 0.0
C843 C 0.89526 0.34813 0.88765 0.0
H844 H 0.93548 0.44277 0.81849 0.0
C845 C 0.93396 0.37103 0.9228 0.0
C846 C 0.97261 0.42042 0.92185 0.0
H847 H 0.86449 0.31061 0.89095 0.0
H848 H 0.93201 0.35033 0.95193 0.0
C849 C 0.97323 0.44606 0.88366 0.0
C850 C 0.93098 0.83029 0.13767 0.0
C851 C 0.92109 0.84894 0.17252 0.0
H852 H 0.96558 0.84363 0.07572 0.0
C853 C 0.94291 0.89826 0.17243 0.0
H854 H 0.915 0.79266 0.13651 0.0
C855 C 0.97259 0.92773 0.13784 0.0
C856 C 0.98071 0.90853 0.10205 0.0
H857 H 0.93649 0.9141 0.19883 0.0
H858 H 0.98768 0.96513 0.13825 0.0
C859 C 0.96007 0.85961 0.10279 0.0
C860 C 0.78511 0.02864 0.88725 0.0
C861 C 0.81102 0.06501 0.92174 0.0
H862 H 0.77282 0.96659 0.86006 0.0
C863 C 0.83166 0.05858 0.96225 0.0
H864 H 0.76824 0.03244 0.85574 0.0
C865 C 0.83425 0.02058 0.96482 0.0
C866 C 0.81647 0.98904 0.9266 0.0
H867 H 0.85063 0.08582 0.98958 0.0
H868 H 0.85556 0.01976 0.99442 0.0
C869 C 0.78822 0.99108 0.88948 0.0
C870 C 0.6801 0.11925 0.69021 0.0
C871 C 0.7103 0.16951 0.68924 0.0
H872 H 0.62682 0.05273 0.65218 0.0
C873 C 0.70565 0.19139 0.6504 0.0
H874 H 0.68285 0.10163 0.72003 0.0
C875 C 0.67335 0.16358 0.61205 0.0
C876 C 0.6457 0.1135 0.61176 0.0
H877 H 0.72867 0.23008 0.64872 0.0
H878 H 0.67207 0.18151 0.58179 0.0
C879 C 0.64798 0.09134 0.6516 0.0
C880 C 0.72476 0.95146 0.45914 0.0
C881 C 0.7712 0.99718 0.46153 0.0
H882 H 0.6845 0.87695 0.44333 0.0
C883 C 0.81479 1.00194 0.45837 0.0
H884 H 0.69051 0.94731 0.46022 0.0
C885 C 0.81119 0.96159 0.44752 0.0
C886 C 0.76393 0.91677 0.43888 0.0
H887 H 0.85068 0.03707 0.46015 0.0
H888 H 0.84458 0.96645 0.44037 0.0
C889 C 0.72128 0.91124 0.44912 0.0
C890 C 0.90591 0.16917 0.29298 0.0
C891 C 0.88417 0.18612 0.31489 0.0
H892 H 0.93645 0.13066 0.29957 0.0
C893 C 0.87423 0.17462 0.36073 0.0
H894 H 0.91386 0.17729 0.25763 0.0
C895 C 0.88683 0.14782 0.38452 0.0
C896 C 0.90984 0.13196 0.36314 0.0
H897 H 0.85684 0.18648 0.37847 0.0
H898 H 0.8784 0.13939 0.41975 0.0
C899 C 0.91867 0.14234 0.31691 0.0
C900 C 0.71688 0.1105 0.18348 0.0
C901 C 0.74137 0.15926 0.17498 0.0
H902 H 0.66378 0.03775 0.15815 0.0
C903 C 0.7288 0.17169 0.13278 0.0
H904 H 0.72548 0.09976 0.21573 0.0
C905 C 0.69204 0.13574 0.10002 0.0
C906 C 0.66815 0.08695 0.10862 0.0
H907 H 0.74664 0.20899 0.12551 0.0
H908 H 0.68314 0.14609 0.06769 0.0
C909 C 0.68125 0.07494 0.15061 0.0
C910 C 0.76532 0.8331 0.8897 0.0
C911 C 0.765 0.83034 0.84148 0.0
H912 H 0.74226 0.84958 0.94718 0.0
C913 C 0.73918 0.84528 0.81541 0.0
H914 H 0.78377 0.82187 0.91193 0.0
C915 C 0.71542 0.86185 0.83576 0.0
C916 C 0.71506 0.86437 0.88393 0.0
H917 H 0.7371 0.84421 0.77834 0.0
H918 H 0.69768 0.87335 0.81293 0.0
C919 C 0.74091 0.84929 0.91021 0.0
C920 C 0.99507 0.93489 0.67325 0.0
C921 C 0.97507 0.92219 0.62686 0.0
H922 H 0.98355 0.91822 0.74438 0.0
C923 C 0.92577 0.87955 0.61797 0.0
H924 H 1.03284 0.96725 0.68175 0.0
C925 C 0.89801 0.85026 0.65404 0.0
C926 C 0.91749 0.86355 0.70059 0.0
H927 H 0.90912 0.86797 0.58288 0.0
H928 H 0.8613 0.81683 0.64522 0.0
C929 C 0.96658 0.90665 0.70938 0.0
C930 C 0.15321 0.89029 0.99117 0.0
C931 C 0.14488 0.87493 0.94478 0.0
H932 H 0.1477 0.9301 0.04117 0.0
C933 C 0.12309 0.89028 0.91329 0.0
H934 H 0.17016 0.88005 1.01687 0.0
C935 C 0.10947 0.91868 0.92748 0.0
C936 C 0.1178 0.93407 0.9738 0.0
H937 H 0.11539 0.87939 0.87742 0.0
H938 H 0.09212 0.92853 0.90179 0.0
C939 C 0.14046 0.91954 1.00525 0.0
C940 C 0.97882 0.38182 0.63648 0.0
C941 C 0.96331 0.39604 0.598 0.0
H942 H 0.96009 0.34801 0.70118 0.0
C943 C 0.91474 0.38258 0.59233 0.0
H944 H 1.01661 0.39276 0.64159 0.0
C945 C 0.88295 0.35795 0.62617 0.0
C946 C 0.8993 0.34648 0.66642 0.0
H947 H 0.90237 0.39357 0.56277 0.0
H948 H 0.84621 0.34949 0.62132 0.0
C949 C 0.94683 0.35703 0.6707 0.0
C950 C 0.46158 0.07464 0.47042 0.0
C951 C 0.50725 0.08749 0.45834 0.0
H952 H 0.40753 0.08827 0.46514 0.0
C953 C 0.53336 0.12648 0.42894 0.0
H954 H 0.43982 0.04441 0.49179 0.0
C955 C 0.51502 0.15225 0.41349 0.0
C956 C 0.4698 0.14011 0.42682 0.0
H957 H 0.56867 0.13781 0.41843 0.0
H958 H 0.53702 0.18247 0.3919 0.0
C959 C 0.44318 0.10021 0.45506 0.0
C960 C 0.69071 0.64894 0.08933 0.0
C961 C 0.64886 0.60671 0.10573 0.0
H962 H 0.75985 0.71894 0.10703 0.0
C963 C 0.64693 0.60036 0.15306 0.0
H964 H 0.69253 0.65458 0.05282 0.0
C965 C 0.68586 0.63625 0.1838 0.0
C966 C 0.72626 0.67979 0.16758 0.0
H967 H 0.61475 0.56807 0.16624 0.0
H968 H 0.68304 0.63093 0.22027 0.0
C969 C 0.72886 0.68567 0.12016 0.0
C970 C 0.19436 0.14719 0.66233 0.0
C971 C 0.21643 0.19574 0.65525 0.0
H972 H 0.14169 0.07483 0.63555 0.0
C973 C 0.20442 0.20885 0.61336 0.0
H974 H 0.20314 0.13617 0.69426 0.0
C975 C 0.1694 0.17389 0.57984 0.0
C976 C 0.14587 0.1252 0.58757 0.0
H977 H 0.22119 0.24609 0.60688 0.0
H978 H 0.15998 0.1849 0.54828 0.0
C979 C 0.15932 0.11217 0.62873 0.0
C980 C 0.62004 0.2965 0.40099 0.0
C981 C 0.61883 0.2793 0.35805 0.0
H982 H 0.59609 0.3279 0.43937 0.0
C983 C 0.58692 0.27609 0.32104 0.0
H984 H 0.64482 0.30022 0.43001 0.0
C985 C 0.55878 0.29217 0.32637 0.0
C986 C 0.56186 0.31144 0.36889 0.0
H987 H 0.58461 0.26221 0.28771 0.0
H988 H 0.53525 0.2902 0.2971 0.0
C989 C 0.59196 0.31241 0.40633 0.0
C990 C 0.47847 0.92078 0.15446 0.0
C991 C 0.49333 0.90835 0.11848 0.0
H992 H 0.43524 0.89652 0.21137 0.0
C993 C 0.48053 0.86214 0.11602 0.0
H994 H 0.48827 0.95621 0.1579 0.0
C995 C 0.45044 0.828 0.14746 0.0
C996 C 0.43313 0.84011 0.1811 0.0
H997 H 0.49177 0.85173 0.0888 0.0
H998 H 0.43851 0.79176 0.14395 0.0
C999 C 0.44832 0.8868 0.18526 0.0
C1000 C 0.96025 0.57248 0.96361 0.0
C1001 C 1.01092 0.59217 0.964 0.0
H1002 H 0.90262 0.58065 0.94733 0.0
C1003 C 1.04261 0.63774 0.94502 0.0
H1004 H 0.93456 0.53729 0.97675 0.0
C1005 C 1.02446 0.66315 0.92772 0.0
C1006 C 0.97358 0.64364 0.92787 0.0
H1007 H 0.08183 0.65414 0.94394 0.0
H1008 H 1.05038 0.69793 0.91354 0.0
C1009 C 0.94187 0.59748 0.94594 0.0
C1010 C 0.42443 0.383 0.12058 0.0
C1011 C 0.47422 0.42522 0.12779 0.0
H1012 H 0.36126 0.32083 0.1498 0.0
C1013 C 0.4967 0.43772 0.17354 0.0
H1014 H 0.40591 0.37151 0.08601 0.0
C1015 C 0.47009 0.40968 0.21068 0.0
C1016 C 0.42046 0.36698 0.2035 0.0
H1017 H 0.535 0.46968 0.18073 0.0
H1018 H 0.48889 0.42109 0.24513 0.0
C1019 C 0.39852 0.35394 0.15752 0.0
C1020 C 0.35303 0.64944 0.9298 0.0
C1021 C 0.36492 0.62608 0.90212 0.0
H1022 H 0.32109 0.68688 0.93308 0.0
C1023 C 0.35003 0.62203 0.85467 0.0
H1024 H 0.36249 0.65291 0.96655 0.0
C1025 C 0.32558 0.64093 0.83578 0.0
C1026 C 0.31472 0.66512 0.86302 0.0
H1027 H 0.35844 0.60534 0.83133 0.0
H1028 H 0.31563 0.63698 0.79913 0.0
C1029 C 0.32834 0.66848 0.91065 0.0
C1030 C 0.13401 0.55667 0.6783 0.0
C1031 C 0.13303 0.57288 0.63365 0.0
H1032 H 0.15244 0.57315 0.75128 0.0
C1033 C 0.15158 0.62117 0.63029 0.0
H1034 H 0.12031 0.51993 0.6827 0.0
C1035 C 0.17142 0.65219 0.66976 0.0
C1036 C 0.17223 0.63595 0.71444 0.0
H1037 H 0.152 0.63547 0.59689 0.0
H1038 H 0.18611 0.6892 0.66523 0.0
C1039 C 0.1525 0.58733 0.7179 0.0
C1040 C 0.42339 0.3341 0.63553 0.0
C1041 C 0.40606 0.35247 0.66241 0.0
H1042 H 0.46857 0.34644 0.58243 0.0
C1043 C 0.42351 0.40011 0.65572 0.0
H1044 H 0.41118 0.29779 0.63964 0.0
C1045 C 0.45682 0.42824 0.62275 0.0
C1046 C 0.47348 0.40944 0.5956 0.0
H1047 H 0.41131 0.41569 0.67585 0.0
H1048 H 0.46906 0.4645 0.61815 0.0
C1049 C 0.45654 0.36213 0.60268 0.0
C1050 C 0.1935 0.6012 0.19285 0.0
C1051 C 0.23299 0.65032 0.19084 0.0
H1052 H 0.12592 0.53947 0.15773 0.0
C1053 C 0.23306 0.67568 0.15285 0.0
H1054 H 0.19282 0.58091 0.2218 0.0
C1055 C 0.19441 0.65287 0.11764 0.0
C1056 C 0.15574 0.60349 0.11847 0.0
H1057 H 0.2638 0.71322 0.1496 0.0
H1058 H 0.19639 0.67365 0.08858 0.0
C1059 C 0.15513 0.57776 0.1566 0.0
C1060 C 0.71305 0.46479 0.60475 0.0
C1061 C 0.69767 0.42147 0.5848 0.0
H1062 H 0.70252 0.51869 0.60447 0.0
C1063 C 0.66615 0.40383 0.54349 0.0
H1064 H 0.73721 0.47908 0.63671 0.0
C1065 C 0.64607 0.42643 0.5251 0.0
C1066 C 0.65704 0.46664 0.54812 0.0
H1067 H 0.65426 0.37071 0.5273 0.0
H1068 H 0.61911 0.41023 0.49496 0.0
C1069 C 0.6927 0.48713 0.58662 0.0
C1070 C 0.90746 0.61471 0.06322 0.0
C1071 C 0.86515 0.60775 0.07693 0.0
H1072 H 0.93861 0.5796 0.04951 0.0
C1073 C 0.81775 0.56363 0.06596 0.0
H1074 H 0.94424 0.64877 0.07025 0.0
C1075 C 0.81435 0.5241 0.05213 0.0
C1076 C 0.85815 0.5291 0.04932 0.0
H1077 H 0.78424 0.55772 0.07489 0.0
H1078 H 0.77855 0.48895 0.04949 0.0
C1079 C 0.90418 0.5751 0.05083 0.0
C1080 C 0.90932 0.65832 0.691 0.0
C1081 C 0.89738 0.64389 0.64382 0.0
H1082 H 0.89947 0.68688 0.74886 0.0
C1083 C 0.86166 0.64867 0.62021 0.0
H1084 H 0.93529 0.65516 0.71199 0.0
C1085 C 0.84032 0.66734 0.64213 0.0
C1086 C 0.85289 0.68205 0.68923 0.0
H1087 H 0.85056 0.63883 0.58408 0.0
H1088 H 0.81409 0.67061 0.62172 0.0
C1089 C 0.88789 0.67658 0.71279 0.0
C1090 C 0.48713 0.5962 0.50964 0.0
C1091 C 0.47789 0.55721 0.4858 0.0
H1092 H 0.47721 0.65078 0.50836 0.0
C1093 C 0.44419 0.53805 0.44589 0.0
H1094 H 0.51262 0.61136 0.54077 0.0
C1095 C 0.42367 0.56022 0.42771 0.0
C1096 C 0.43689 0.60215 0.44899 0.0
H1097 H 0.43578 0.50746 0.42728 0.0
H1098 H 0.4008 0.54679 0.39505 0.0
C1099 C 0.46694 0.61873 0.49116 0.0
C1100 C 0.21712 0.40344 0.96986 0.0
C1101 C 0.26017 0.41096 0.95743 0.0
H1102 H 0.18484 0.43775 0.98279 0.0
C1103 C 0.30715 0.45525 0.96926 0.0
H1104 H 0.18063 0.36919 0.96237 0.0
C1105 C 0.30967 0.49437 0.98277 0.0
C1106 C 0.26542 0.48885 0.98429 0.0
H1107 H 0.3412 0.46161 0.96143 0.0
H1108 H 0.34532 0.52965 0.9863 0.0
C1109 C 0.21955 0.44266 0.98188 0.0
C1110 C 0.28531 0.35222 0.39378 0.0
C1111 C 0.27271 0.33759 0.34664 0.0
H1112 H 0.27507 0.38059 0.45196 0.0
C1113 C 0.23758 0.34298 0.32323 0.0
H1114 H 0.31165 0.34902 0.41408 0.0
C1115 C 0.2161 0.3611 0.34517 0.0
C1116 C 0.2281 0.3755 0.39236 0.0
H1117 H 0.22596 0.33274 0.28716 0.0
H1118 H 0.19003 0.36421 0.32426 0.0
C1119 C 0.26392 0.37077 0.41583 0.0
loop_
_geom_bond_atom_site_label_1
_geom_bond_atom_site_label_2
_geom_bond_distance
_geom_bond_site_symmetry_2
_ccdc_geom_bond_type
La0 C2 2.928 1_545 S
La0 O20 2.521 . S
La0 O21 2.628 1_545 S
La0 O22 2.554 1_554 S
La0 O23 2.757 1_554 S
La0 O24 2.470 1_544 S
La0 O29 2.482 1_445 S
La0 O31 2.503 . S
La1 C11 2.928 1_565 S
La1 O23 2.482 1_665 S
La1 O25 2.503 . S
La1 O26 2.521 . S
La1 O27 2.628 1_565 S
La1 O28 2.554 1_556 S
La1 O29 2.757 1_556 S
La1 O30 2.470 1_566 S
C2 La0 2.928 1_565 S
C2 C3 1.503 . S
C2 O20 1.261 1_565 S
C2 O21 1.243 . S
C3 C2 1.503 . S
C3 C4 1.394 1_565 S
C3 C8 1.373 . S
C4 C3 1.394 1_545 S
C4 C5 1.380 . S
C4 H32 0.930 . S
C5 C4 1.380 . S
C5 C6 1.376 1_545 S
C5 H33 0.930 . S
C6 C5 1.376 1_565 S
C6 C7 1.370 . S
C7 C6 1.370 . S
C7 C8 1.396 . S
C7 H34 0.929 . S
C8 C3 1.373 . S
C8 C7 1.396 . S
C8 H35 0.929 . S
C9 O22 1.240 . S
C9 O23 1.289 . S
C10 O24 1.258 . S
C10 O25 1.256 1_455 S
C11 La1 2.928 1_545 S
C11 C12 1.503 . S
C11 O26 1.261 1_545 S
C11 O27 1.243 . S
C12 C11 1.503 . S
C12 C13 1.394 1_545 S
C12 C17 1.373 . S
C13 C12 1.394 1_565 S
C13 C14 1.380 . S
C13 H36 0.930 . S
C14 C13 1.380 . S
C14 C15 1.376 1_565 S
C14 H37 0.930 . S
C15 C14 1.376 1_545 S
C15 C16 1.370 . S
C16 C15 1.370 . S
C16 C17 1.396 . S
C16 H38 0.929 . S
C17 C12 1.373 . S
C17 C16 1.396 . S
C17 H39 0.929 . S
C18 O28 1.240 . S
C18 O29 1.289 . S
C19 O30 1.258 . S
C19 O31 1.256 1_655 S
O20 La0 2.521 . S
O20 C2 1.261 1_545 S
O21 La0 2.628 1_565 S
O21 C2 1.243 . S
O22 La0 2.554 1_556 S
O22 C9 1.240 . S
O23 La0 2.757 1_556 S
O23 La1 2.482 1_445 S
O23 C9 1.289 . S
O24 La0 2.470 1_566 S
O24 C10 1.258 . S
O25 La1 2.503 . S
O25 C10 1.256 1_655 S
O26 La1 2.521 . S
O26 C11 1.261 1_565 S
O27 La1 2.628 1_545 S
O27 C11 1.243 . S
O28 La1 2.554 1_554 S
O28 C18 1.240 . S
O29 La0 2.482 1_665 S
O29 La1 2.757 1_554 S
O29 C18 1.289 . S
O30 La1 2.470 1_544 S
O30 C19 1.258 . S
O31 La0 2.503 . S
O31 C19 1.256 1_455 S
H32 C4 0.930 . S
H33 C5 0.930 . S
H34 C7 0.929 . S
H35 C8 0.929 . S
H36 C13 0.930 . S
H37 C14 0.930 . S
H38 C16 0.929 . S
H39 C17 0.929 . S
La40 C42 2.928 . S
La40 O60 2.521 . S
La40 O61 2.628 . S
La40 O62 2.554 . S
La40 O63 2.757 . S
La40 O64 2.470 . S
La40 O69 2.482 . S
La40 O71 2.503 . S
La41 C51 2.928 . S
La41 O63 2.482 . S
La41 O65 2.503 . S
La41 O66 2.521 . S
La41 O67 2.628 . S
La41 O68 2.554 . S
La41 O69 2.757 . S
La41 O70 2.470 . S
C42 La40 2.928 . S
C42 C43 1.503 . S
C42 O60 1.261 . S
C42 O61 1.243 . S
C43 C42 1.503 . S
C43 C44 1.394 . S
C43 C48 1.373 . S
C44 C43 1.394 . S
C44 C45 1.380 . S
C44 H72 0.930 . S
C45 C44 1.380 . S
C45 C46 1.376 . S
C45 H73 0.930 . S
C46 C45 1.376 . S
C46 C47 1.370 . S
C47 C46 1.370 . S
C47 C48 1.396 . S
C47 H74 0.929 . S
C48 C43 1.373 . S
C48 C47 1.396 . S
C48 H75 0.929 . S
C49 O62 1.240 . S
C49 O63 1.289 . S
C50 O64 1.258 . S
C50 O65 1.256 . S
C51 La41 2.928 . S
C51 C52 1.503 . S
C51 O66 1.261 . S
C51 O67 1.243 . S
C52 C51 1.503 . S
C52 C53 1.394 . S
C52 C57 1.373 . S
C53 C52 1.394 . S
C53 C54 1.380 . S
C53 H76 0.930 . S
C54 C53 1.380 . S
C54 C55 1.376 . S
C54 H77 0.930 . S
C55 C54 1.376 . S
C55 C56 1.370 . S
C56 C55 1.370 . S
C56 C57 1.396 . S
C56 H78 0.929 . S
C57 C52 1.373 . S
C57 C56 1.396 . S
C57 H79 0.929 . S
C58 O68 1.240 . S
C58 O69 1.289 . S
C59 O70 1.258 . S
C59 O71 1.256 . S
O60 La40 2.521 . S
O60 C42 1.261 . S
O61 La40 2.628 . S
O61 C42 1.243 . S
O62 La40 2.554 . S
O62 C49 1.240 . S
O63 La40 2.757 . S
O63 La41 2.482 . S
O63 C49 1.289 . S
O64 La40 2.470 . S
O64 C50 1.258 . S
O65 La41 2.503 . S
O65 C50 1.256 . S
O66 La41 2.521 . S
O66 C51 1.261 . S
O67 La41 2.628 . S
O67 C51 1.243 . S
O68 La41 2.554 . S
O68 C58 1.240 . S
O69 La40 2.482 . S
O69 La41 2.757 . S
O69 C58 1.289 . S
O70 La41 2.470 . S
O70 C59 1.258 . S
O71 La40 2.503 . S
O71 C59 1.256 . S
H72 C44 0.930 . S
H73 C45 0.930 . S
H74 C47 0.929 . S
H75 C48 0.929 . S
H76 C53 0.930 . S
H77 C54 0.930 . S
H78 C56 0.929 . S
H79 C57 0.929 . S
La80 C82 2.928 1_565 S
La80 O100 2.521 . S
La80 O101 2.628 1_565 S
La80 O102 2.554 . S
La80 O103 2.757 . S
La80 O104 2.470 1_565 S
La80 O109 2.482 1_565 S
La80 O111 2.503 . S
La81 C91 2.928 1_545 S
La81 O103 2.482 1_545 S
La81 O105 2.503 . S
La81 O106 2.521 . S
La81 O107 2.628 1_545 S
La81 O108 2.554 . S
La81 O109 2.757 . S
La81 O110 2.470 1_545 S
C82 La80 2.928 1_545 S
C82 C83 1.503 . S
C82 O100 1.261 1_545 S
C82 O101 1.243 . S
C83 C82 1.503 . S
C83 C84 1.394 1_545 S
C83 C88 1.373 . S
C84 C83 1.394 1_565 S
C84 C85 1.380 . S
C84 H112 0.930 . S
C85 C84 1.380 . S
C85 C86 1.376 1_565 S
C85 H113 0.930 . S
C86 C85 1.376 1_545 S
C86 C87 1.370 . S
C87 C86 1.370 . S
C87 C88 1.396 . S
C87 H114 0.929 . S
C88 C83 1.373 . S
C88 C87 1.396 . S
C88 H115 0.929 . S
C89 O102 1.240 . S
C89 O103 1.289 . S
C90 O104 1.258 . S
C90 O105 1.256 . S
C91 La81 2.928 1_565 S
C91 C92 1.503 . S
C91 O106 1.261 1_565 S
C91 O107 1.243 . S
C92 C91 1.503 . S
C92 C93 1.394 1_565 S
C92 C97 1.373 . S
C93 C92 1.394 1_545 S
C93 C94 1.380 . S
C93 H116 0.930 . S
C94 C93 1.380 . S
C94 C95 1.376 1_545 S
C94 H117 0.930 . S
C95 C94 1.376 1_565 S
C95 C96 1.370 . S
C96 C95 1.370 . S
C96 C97 1.396 . S
C96 H118 0.929 . S
C97 C92 1.373 . S
C97 C96 1.396 . S
C97 H119 0.929 . S
C98 O108 1.240 . S
C98 O109 1.289 . S
C99 O110 1.258 . S
C99 O111 1.256 . S
O100 La80 2.521 . S
O100 C82 1.261 1_565 S
O101 La80 2.628 1_545 S
O101 C82 1.243 . S
O102 La80 2.554 . S
O102 C89 1.240 . S
O103 La80 2.757 . S
O103 La81 2.482 1_565 S
O103 C89 1.289 . S
O104 La80 2.470 1_545 S
O104 C90 1.258 . S
O105 La81 2.503 . S
O105 C90 1.256 . S
O106 La81 2.521 . S
O106 C91 1.261 1_545 S
O107 La81 2.628 1_565 S
O107 C91 1.243 . S
O108 La81 2.554 . S
O108 C98 1.240 . S
O109 La80 2.482 1_545 S
O109 La81 2.757 . S
O109 C98 1.289 . S
O110 La81 2.470 1_565 S
O110 C99 1.258 . S
O111 La80 2.503 . S
O111 C99 1.256 . S
H112 C84 0.930 . S
H113 C85 0.930 . S
H114 C87 0.929 . S
H115 C88 0.929 . S
H116 C93 0.930 . S
H117 C94 0.930 . S
H118 C96 0.929 . S
H119 C97 0.929 . S
La120 C122 2.928 . S
La120 O140 2.521 . S
La120 O141 2.628 . S
La120 O142 2.554 . S
La120 O143 2.757 . S
La120 O144 2.470 . S
La120 O149 2.482 . S
La120 O151 2.503 . S
La121 C131 2.928 . S
La121 O143 2.482 . S
La121 O145 2.503 . S
La121 O146 2.521 . S
La121 O147 2.628 . S
La121 O148 2.554 . S
La121 O149 2.757 . S
La121 O150 2.470 . S
C122 La120 2.928 . S
C122 C123 1.503 . S
C122 O140 1.261 . S
C122 O141 1.243 . S
C123 C122 1.503 . S
C123 C124 1.394 . S
C123 C128 1.373 . S
C124 C123 1.394 . S
C124 C125 1.380 . S
C124 H152 0.930 . S
C125 C124 1.380 . S
C125 C126 1.376 . S
C125 H153 0.930 . S
C126 C125 1.376 . S
C126 C127 1.370 . S
C127 C126 1.370 . S
C127 C128 1.396 . S
C127 H154 0.929 . S
C128 C123 1.373 . S
C128 C127 1.396 . S
C128 H155 0.929 . S
C129 O142 1.240 . S
C129 O143 1.289 . S
C130 O144 1.258 . S
C130 O145 1.256 . S
C131 La121 2.928 . S
C131 C132 1.503 . S
C131 O146 1.261 . S
C131 O147 1.243 . S
C132 C131 1.503 . S
C132 C133 1.394 . S
C132 C137 1.373 . S
C133 C132 1.394 . S
C133 C134 1.380 . S
C133 H156 0.930 . S
C134 C133 1.380 . S
C134 C135 1.376 . S
C134 H157 0.930 . S
C135 C134 1.376 . S
C135 C136 1.370 . S
C136 C135 1.370 . S
C136 C137 1.396 . S
C136 H158 0.929 . S
C137 C132 1.373 . S
C137 C136 1.396 . S
C137 H159 0.929 . S
C138 O148 1.240 . S
C138 O149 1.289 . S
C139 O150 1.258 . S
C139 O151 1.256 . S
O140 La120 2.521 . S
O140 C122 1.261 . S
O141 La120 2.628 . S
O141 C122 1.243 . S
O142 La120 2.554 . S
O142 C129 1.240 . S
O143 La120 2.757 . S
O143 La121 2.482 . S
O143 C129 1.289 . S
O144 La120 2.470 . S
O144 C130 1.258 . S
O145 La121 2.503 . S
O145 C130 1.256 . S
O146 La121 2.521 . S
O146 C131 1.261 . S
O147 La121 2.628 . S
O147 C131 1.243 . S
O148 La121 2.554 . S
O148 C138 1.240 . S
O149 La120 2.482 . S
O149 La121 2.757 . S
O149 C138 1.289 . S
O150 La121 2.470 . S
O150 C139 1.258 . S
O151 La120 2.503 . S
O151 C139 1.256 . S
H152 C124 0.930 . S
H153 C125 0.930 . S
H154 C127 0.929 . S
H155 C128 0.929 . S
H156 C133 0.930 . S
H157 C134 0.930 . S
H158 C136 0.929 . S
H159 C137 0.929 . S
La160 C162 2.928 . S
La160 O180 2.521 . S
La160 O181 2.628 . S
La160 O182 2.554 1_455 S
La160 O183 2.757 1_455 S
La160 O184 2.470 1_455 S
La160 O189 2.482 1_565 S
La160 O191 2.503 1_565 S
La161 C171 2.928 . S
La161 O183 2.482 1_545 S
La161 O185 2.503 1_545 S
La161 O186 2.521 . S
La161 O187 2.628 . S
La161 O188 2.554 1_655 S
La161 O189 2.757 1_655 S
La161 O190 2.470 1_655 S
C162 La160 2.928 . S
C162 C163 1.503 . S
C162 O180 1.261 . S
C162 O181 1.243 . S
C163 C162 1.503 . S
C163 C164 1.394 . S
C163 C168 1.373 . S
C164 C163 1.394 . S
C164 C165 1.380 . S
C164 H192 0.930 . S
C165 C164 1.380 . S
C165 C166 1.376 . S
C165 H193 0.930 . S
C166 C165 1.376 . S
C166 C167 1.370 . S
C167 C166 1.370 . S
C167 C168 1.396 . S
C167 H194 0.929 . S
C168 C163 1.373 . S
C168 C167 1.396 . S
C168 H195 0.929 . S
C169 O182 1.240 . S
C169 O183 1.289 . S
C170 O184 1.258 . S
C170 O185 1.256 . S
C171 La161 2.928 . S
C171 C172 1.503 . S
C171 O186 1.261 . S
C171 O187 1.243 . S
C172 C171 1.503 . S
C172 C173 1.394 . S
C172 C177 1.373 . S
C173 C172 1.394 . S
C173 C174 1.380 . S
C173 H196 0.930 . S
C174 C173 1.380 . S
C174 C175 1.376 . S
C174 H197 0.930 . S
C175 C174 1.376 . S
C175 C176 1.370 . S
C176 C175 1.370 . S
C176 C177 1.396 . S
C176 H198 0.929 . S
C177 C172 1.373 . S
C177 C176 1.396 . S
C177 H199 0.929 . S
C178 O188 1.240 . S
C178 O189 1.289 . S
C179 O190 1.258 . S
C179 O191 1.256 . S
O180 La160 2.521 . S
O180 C162 1.261 . S
O181 La160 2.628 . S
O181 C162 1.243 . S
O182 La160 2.554 1_655 S
O182 C169 1.240 . S
O183 La160 2.757 1_655 S
O183 La161 2.482 1_565 S
O183 C169 1.289 . S
O184 La160 2.470 1_655 S
O184 C170 1.258 . S
O185 La161 2.503 1_565 S
O185 C170 1.256 . S
O186 La161 2.521 . S
O186 C171 1.261 . S
O187 La161 2.628 . S
O187 C171 1.243 . S
O188 La161 2.554 1_455 S
O188 C178 1.240 . S
O189 La160 2.482 1_545 S
O189 La161 2.757 1_455 S
O189 C178 1.289 . S
O190 La161 2.470 1_455 S
O190 C179 1.258 . S
O191 La160 2.503 1_545 S
O191 C179 1.256 . S
H192 C164 0.930 . S
H193 C165 0.930 . S
H194 C167 0.929 . S
H195 C168 0.929 . S
H196 C173 0.930 . S
H197 C174 0.930 . S
H198 C176 0.929 . S
H199 C177 0.929 . S
La200 C202 2.928 . S
La200 O220 2.521 . S
La200 O221 2.628 . S
La200 O222 2.554 . S
La200 O223 2.757 . S
La200 O224 2.470 . S
La200 O229 2.482 . S
La200 O231 2.503 . S
La201 C211 2.928 . S
La201 O223 2.482 . S
La201 O225 2.503 . S
La201 O226 2.521 . S
La201 O227 2.628 . S
La201 O228 2.554 . S
La201 O229 2.757 . S
La201 O230 2.470 . S
C202 La200 2.928 . S
C202 C203 1.503 . S
C202 O220 1.261 . S
C202 O221 1.243 . S
C203 C202 1.503 . S
C203 C204 1.394 . S
C203 C208 1.373 . S
C204 C203 1.394 . S
C204 C205 1.380 . S
C204 H232 0.930 . S
C205 C204 1.380 . S
C205 C206 1.376 . S
C205 H233 0.930 1_455 S
C206 C205 1.376 . S
C206 C207 1.370 . S
C207 C206 1.370 . S
C207 C208 1.396 . S
C207 H234 0.929 . S
C208 C203 1.373 . S
C208 C207 1.396 . S
C208 H235 0.929 . S
C209 O222 1.240 . S
C209 O223 1.289 . S
C210 O224 1.258 . S
C210 O225 1.256 . S
C211 La201 2.928 . S
C211 C212 1.503 . S
C211 O226 1.261 . S
C211 O227 1.243 . S
C212 C211 1.503 . S
C212 C213 1.394 . S
C212 C217 1.373 . S
C213 C212 1.394 . S
C213 C214 1.380 . S
C213 H236 0.930 . S
C214 C213 1.380 . S
C214 C215 1.376 . S
C214 H237 0.930 . S
C215 C214 1.376 . S
C215 C216 1.370 . S
C216 C215 1.370 . S
C216 C217 1.396 . S
C216 H238 0.929 . S
C217 C212 1.373 . S
C217 C216 1.396 . S
C217 H239 0.929 . S
C218 O228 1.240 . S
C218 O229 1.289 . S
C219 O230 1.258 . S
C219 O231 1.256 . S
O220 La200 2.521 . S
O220 C202 1.261 . S
O221 La200 2.628 . S
O221 C202 1.243 . S
O222 La200 2.554 . S
O222 C209 1.240 . S
O223 La200 2.757 . S
O223 La201 2.482 . S
O223 C209 1.289 . S
O224 La200 2.470 . S
O224 C210 1.258 . S
O225 La201 2.503 . S
O225 C210 1.256 . S
O226 La201 2.521 . S
O226 C211 1.261 . S
O227 La201 2.628 . S
O227 C211 1.243 . S
O228 La201 2.554 . S
O228 C218 1.240 . S
O229 La200 2.482 . S
O229 La201 2.757 . S
O229 C218 1.289 . S
O230 La201 2.470 . S
O230 C219 1.258 . S
O231 La200 2.503 . S
O231 C219 1.256 . S
H232 C204 0.930 . S
H233 C205 0.930 1_655 S
H234 C207 0.929 . S
H235 C208 0.929 . S
H236 C213 0.930 . S
H237 C214 0.930 . S
H238 C216 0.929 . S
H239 C217 0.929 . S
La240 C242 2.928 1_554 S
La240 O260 2.521 1_554 S
La240 O261 2.628 1_554 S
La240 O262 2.554 1_565 S
La240 O263 2.757 1_565 S
La240 O264 2.470 1_564 S
La240 O269 2.482 1_554 S
La240 O271 2.503 . S
La241 C251 2.928 1_556 S
La241 O263 2.482 1_556 S
La241 O265 2.503 . S
La241 O266 2.521 1_556 S
La241 O267 2.628 1_556 S
La241 O268 2.554 1_545 S
La241 O269 2.757 1_545 S
La241 O270 2.470 1_546 S
C242 La240 2.928 1_556 S
C242 C243 1.503 . S
C242 O260 1.261 . S
C242 O261 1.243 . S
C243 C242 1.503 . S
C243 C244 1.394 . S
C243 C248 1.373 . S
C244 C243 1.394 . S
C244 C245 1.380 . S
C244 H272 0.930 . S
C245 C244 1.380 . S
C245 C246 1.376 . S
C245 H273 0.930 . S
C246 C245 1.376 . S
C246 C247 1.370 . S
C247 C246 1.370 . S
C247 C248 1.396 . S
C247 H274 0.929 . S
C248 C243 1.373 . S
C248 C247 1.396 . S
C248 H275 0.929 . S
C249 O262 1.240 . S
C249 O263 1.289 . S
C250 O264 1.258 . S
C250 O265 1.256 . S
C251 La241 2.928 1_554 S
C251 C252 1.503 . S
C251 O266 1.261 . S
C251 O267 1.243 . S
C252 C251 1.503 . S
C252 C253 1.394 . S
C252 C257 1.373 . S
C253 C252 1.394 . S
C253 C254 1.380 . S
C253 H276 0.930 . S
C254 C253 1.380 . S
C254 C255 1.376 . S
C254 H277 0.930 . S
C255 C254 1.376 . S
C255 C256 1.370 . S
C256 C255 1.370 . S
C256 C257 1.396 . S
C256 H278 0.929 . S
C257 C252 1.373 . S
C257 C256 1.396 . S
C257 H279 0.929 . S
C258 O268 1.240 . S
C258 O269 1.289 . S
C259 O270 1.258 . S
C259 O271 1.256 . S
O260 La240 2.521 1_556 S
O260 C242 1.261 . S
O261 La240 2.628 1_556 S
O261 C242 1.243 . S
O262 La240 2.554 1_545 S
O262 C249 1.240 . S
O263 La240 2.757 1_545 S
O263 La241 2.482 1_554 S
O263 C249 1.289 . S
O264 La240 2.470 1_546 S
O264 C250 1.258 . S
O265 La241 2.503 . S
O265 C250 1.256 . S
O266 La241 2.521 1_554 S
O266 C251 1.261 . S
O267 La241 2.628 1_554 S
O267 C251 1.243 . S
O268 La241 2.554 1_565 S
O268 C258 1.240 . S
O269 La240 2.482 1_556 S
O269 La241 2.757 1_565 S
O269 C258 1.289 . S
O270 La241 2.470 1_564 S
O270 C259 1.258 . S
O271 La240 2.503 . S
O271 C259 1.256 . S
H272 C244 0.930 . S
H273 C245 0.930 . S
H274 C247 0.929 . S
H275 C248 0.929 . S
H276 C253 0.930 . S
H277 C254 0.930 . S
H278 C256 0.929 . S
H279 C257 0.929 . S
La280 C282 2.928 . S
La280 O300 2.521 . S
La280 O301 2.628 . S
La280 O302 2.554 . S
La280 O303 2.757 . S
La280 O304 2.470 . S
La280 O309 2.482 . S
La280 O311 2.503 . S
La281 C291 2.928 . S
La281 O303 2.482 . S
La281 O305 2.503 . S
La281 O306 2.521 . S
La281 O307 2.628 . S
La281 O308 2.554 . S
La281 O309 2.757 . S
La281 O310 2.470 . S
C282 La280 2.928 . S
C282 C283 1.503 . S
C282 O300 1.261 . S
C282 O301 1.243 . S
C283 C282 1.503 . S
C283 C284 1.394 . S
C283 C288 1.373 . S
C284 C283 1.394 . S
C284 C285 1.380 . S
C284 H312 0.930 . S
C285 C284 1.380 . S
C285 C286 1.376 . S
C285 H313 0.930 . S
C286 C285 1.376 . S
C286 C287 1.370 . S
C287 C286 1.370 . S
C287 C288 1.396 . S
C287 H314 0.929 . S
C288 C283 1.373 . S
C288 C287 1.396 . S
C288 H315 0.929 . S
C289 O302 1.240 . S
C289 O303 1.289 . S
C290 O304 1.258 . S
C290 O305 1.256 . S
C291 La281 2.928 . S
C291 C292 1.503 . S
C291 O306 1.261 . S
C291 O307 1.243 . S
C292 C291 1.503 . S
C292 C293 1.394 . S
C292 C297 1.373 . S
C293 C292 1.394 . S
C293 C294 1.380 . S
C293 H316 0.930 . S
C294 C293 1.380 . S
C294 C295 1.376 . S
C294 H317 0.939 . S
C295 C294 1.376 . S
C295 C296 1.370 . S
C296 C295 1.370 . S
C296 C297 1.396 . S
C296 H318 0.929 . S
C297 C292 1.373 . S
C297 C296 1.396 . S
C297 H319 0.929 . S
C298 O308 1.240 . S
C298 O309 1.289 . S
C299 O310 1.258 . S
C299 O311 1.256 . S
O300 La280 2.521 . S
O300 C282 1.261 . S
O301 La280 2.628 . S
O301 C282 1.243 . S
O302 La280 2.554 . S
O302 C289 1.240 . S
O303 La280 2.757 . S
O303 La281 2.482 . S
O303 C289 1.289 . S
O304 La280 2.470 . S
O304 C290 1.258 . S
O305 La281 2.503 . S
O305 C290 1.256 . S
O306 La281 2.521 . S
O306 C291 1.261 . S
O307 La281 2.628 . S
O307 C291 1.243 . S
O308 La281 2.554 . S
O308 C298 1.240 . S
O309 La280 2.482 . S
O309 La281 2.757 . S
O309 C298 1.289 . S
O310 La281 2.470 . S
O310 C299 1.258 . S
O311 La280 2.503 . S
O311 C299 1.256 . S
H312 C284 0.930 . S
H313 C285 0.930 . S
H314 C287 0.929 . S
H315 C288 0.929 . S
H316 C293 0.930 . S
H317 C294 0.939 . S
H318 C296 0.929 . S
H319 C297 0.929 . S
La320 C322 2.928 1_556 S
La320 O340 2.521 1_556 S
La320 O341 2.628 1_556 S
La320 O342 2.554 . S
La320 O343 2.757 . S
La320 O344 2.470 1_556 S
La320 O349 2.482 1_556 S
La320 O351 2.503 . S
La321 C331 2.928 1_554 S
La321 O343 2.482 1_554 S
La321 O345 2.503 . S
La321 O346 2.521 1_554 S
La321 O347 2.628 1_554 S
La321 O348 2.554 . S
La321 O349 2.757 . S
La321 O350 2.470 1_554 S
C322 La320 2.928 1_554 S
C322 C323 1.503 . S
C322 O340 1.261 . S
C322 O341 1.243 . S
C323 C322 1.503 . S
C323 C324 1.394 . S
C323 C328 1.373 . S
C324 C323 1.394 . S
C324 C325 1.380 . S
C324 H352 0.930 . S
C325 C324 1.380 . S
C325 C326 1.376 . S
C325 H353 0.930 . S
C326 C325 1.376 . S
C326 C327 1.370 . S
C327 C326 1.370 . S
C327 C328 1.396 . S
C327 H354 0.929 . S
C328 C323 1.373 . S
C328 C327 1.396 . S
C328 H355 0.929 . S
C329 O342 1.240 . S
C329 O343 1.289 . S
C330 O344 1.258 . S
C330 O345 1.256 . S
C331 La321 2.928 1_556 S
C331 C332 1.503 . S
C331 O346 1.261 . S
C331 O347 1.243 . S
C332 C331 1.503 . S
C332 C333 1.394 . S
C332 C337 1.373 . S
C333 C332 1.394 . S
C333 C334 1.380 . S
C333 H356 0.930 . S
C334 C333 1.380 . S
C334 C335 1.376 . S
C334 H357 0.930 . S
C335 C334 1.376 . S
C335 C336 1.370 . S
C336 C335 1.370 . S
C336 C337 1.396 . S
C336 H358 0.929 . S
C337 C332 1.373 . S
C337 C336 1.396 . S
C337 H359 0.929 . S
C338 O348 1.240 . S
C338 O349 1.289 . S
C339 O350 1.258 . S
C339 O351 1.256 . S
O340 La320 2.521 1_554 S
O340 C322 1.261 . S
O341 La320 2.628 1_554 S
O341 C322 1.243 . S
O342 La320 2.554 . S
O342 C329 1.240 . S
O343 La320 2.757 . S
O343 La321 2.482 1_556 S
O343 C329 1.289 . S
O344 La320 2.470 1_554 S
O344 C330 1.258 . S
O345 La321 2.503 . S
O345 C330 1.256 . S
O346 La321 2.521 1_556 S
O346 C331 1.261 . S
O347 La321 2.628 1_556 S
O347 C331 1.243 . S
O348 La321 2.554 . S
O348 C338 1.240 . S
O349 La320 2.482 1_554 S
O349 La321 2.757 . S
O349 C338 1.289 . S
O350 La321 2.470 1_556 S
O350 C339 1.258 . S
O351 La320 2.503 . S
O351 C339 1.256 . S
H352 C324 0.930 . S
H353 C325 0.930 . S
H354 C327 0.929 . S
H355 C328 0.929 . S
H356 C333 0.930 . S
H357 C334 0.930 . S
H358 C336 0.929 . S
H359 C337 0.929 . S
La360 C362 2.928 . S
La360 O380 2.521 . S
La360 O381 2.628 . S
La360 O382 2.554 . S
La360 O383 2.757 . S
La360 O384 2.470 . S
La360 O389 2.482 . S
La360 O391 2.503 . S
La361 C371 2.928 . S
La361 O383 2.482 . S
La361 O385 2.503 . S
La361 O386 2.521 . S
La361 O387 2.628 . S
La361 O388 2.554 . S
La361 O389 2.757 . S
La361 O390 2.470 . S
C362 La360 2.928 . S
C362 C363 1.503 . S
C362 O380 1.261 . S
C362 O381 1.243 . S
C363 C362 1.503 . S
C363 C364 1.394 . S
C363 C368 1.373 . S
C364 C363 1.394 . S
C364 C365 1.380 . S
C364 H392 0.930 . S
C365 C364 1.380 . S
C365 C366 1.376 . S
C365 H393 0.930 . S
C366 C365 1.376 . S
C366 C367 1.370 . S
C367 C366 1.370 . S
C367 C368 1.396 . S
C367 H394 0.929 . S
C368 C363 1.373 . S
C368 C367 1.396 . S
C368 H395 0.929 . S
C369 O382 1.240 . S
C369 O383 1.289 . S
C370 O384 1.258 . S
C370 O385 1.256 . S
C371 La361 2.928 . S
C371 C372 1.503 . S
C371 O386 1.261 . S
C371 O387 1.243 . S
C372 C371 1.503 . S
C372 C373 1.394 . S
C372 C377 1.373 . S
C373 C372 1.394 . S
C373 C374 1.380 . S
C373 H396 0.930 . S
C374 C373 1.380 . S
C374 C375 1.376 . S
C374 H397 0.930 1_655 S
C375 C374 1.376 . S
C375 C376 1.370 . S
C376 C375 1.370 . S
C376 C377 1.396 . S
C376 H398 0.929 . S
C377 C372 1.373 . S
C377 C376 1.396 . S
C377 H399 0.929 . S
C378 O388 1.240 . S
C378 O389 1.289 . S
C379 O390 1.258 . S
C379 O391 1.256 . S
O380 La360 2.521 . S
O380 C362 1.261 . S
O381 La360 2.628 . S
O381 C362 1.243 . S
O382 La360 2.554 . S
O382 C369 1.240 . S
O383 La360 2.757 . S
O383 La361 2.482 . S
O383 C369 1.289 . S
O384 La360 2.470 . S
O384 C370 1.258 . S
O385 La361 2.503 . S
O385 C370 1.256 . S
O386 La361 2.521 . S
O386 C371 1.261 . S
O387 La361 2.628 . S
O387 C371 1.243 . S
O388 La361 2.554 . S
O388 C378 1.240 . S
O389 La360 2.482 . S
O389 La361 2.757 . S
O389 C378 1.289 . S
O390 La361 2.470 . S
O390 C379 1.258 . S
O391 La360 2.503 . S
O391 C379 1.256 . S
H392 C364 0.930 . S
H393 C365 0.930 . S
H394 C367 0.929 . S
H395 C368 0.929 . S
H396 C373 0.930 . S
H397 C374 0.930 1_455 S
H398 C376 0.929 . S
H399 C377 0.929 . S
La400 C402 2.928 . S
La400 O420 2.521 . S
La400 O421 2.628 . S
La400 O422 2.554 . S
La400 O423 2.757 . S
La400 O424 2.470 . S
La400 O429 2.482 1_455 S
La400 O431 2.503 1_455 S
La401 C411 2.928 . S
La401 O423 2.482 1_655 S
La401 O425 2.503 1_655 S
La401 O426 2.521 . S
La401 O427 2.628 . S
La401 O428 2.554 . S
La401 O429 2.757 . S
La401 O430 2.470 . S
C402 La400 2.928 . S
C402 C403 1.503 . S
C402 O420 1.261 . S
C402 O421 1.243 . S
C403 C402 1.503 . S
C403 C404 1.394 . S
C403 C408 1.373 . S
C404 C403 1.394 . S
C404 C405 1.380 . S
C404 H432 0.930 . S
C405 C404 1.380 . S
C405 C406 1.376 . S
C405 H433 0.930 . S
C406 C405 1.376 . S
C406 C407 1.370 . S
C407 C406 1.370 . S
C407 C408 1.396 . S
C407 H434 0.929 . S
C408 C403 1.373 . S
C408 C407 1.396 . S
C408 H435 0.929 . S
C409 O422 1.240 . S
C409 O423 1.289 . S
C410 O424 1.258 . S
C410 O425 1.256 . S
C411 La401 2.928 . S
C411 C412 1.503 . S
C411 O426 1.261 . S
C411 O427 1.243 . S
C412 C411 1.503 . S
C412 C413 1.394 . S
C412 C417 1.373 . S
C413 C412 1.394 . S
C413 C414 1.380 . S
C413 H436 0.930 . S
C414 C413 1.380 . S
C414 C415 1.376 . S
C414 H437 0.930 . S
C415 C414 1.376 . S
C415 C416 1.370 . S
C416 C415 1.370 . S
C416 C417 1.396 . S
C416 H438 0.929 . S
C417 C412 1.373 . S
C417 C416 1.396 . S
C417 H439 0.929 . S
C418 O428 1.240 . S
C418 O429 1.289 . S
C419 O430 1.258 . S
C419 O431 1.256 . S
O420 La400 2.521 . S
O420 C402 1.261 . S
O421 La400 2.628 . S
O421 C402 1.243 . S
O422 La400 2.554 . S
O422 C409 1.240 . S
O423 La400 2.757 . S
O423 La401 2.482 1_455 S
O423 C409 1.289 . S
O424 La400 2.470 . S
O424 C410 1.258 . S
O425 La401 2.503 1_455 S
O425 C410 1.256 . S
O426 La401 2.521 . S
O426 C411 1.261 . S
O427 La401 2.628 . S
O427 C411 1.243 . S
O428 La401 2.554 . S
O428 C418 1.240 . S
O429 La400 2.482 1_655 S
O429 La401 2.757 . S
O429 C418 1.289 . S
O430 La401 2.470 . S
O430 C419 1.258 . S
O431 La400 2.503 1_655 S
O431 C419 1.256 . S
H432 C404 0.930 . S
H433 C405 0.930 . S
H434 C407 0.929 . S
H435 C408 0.929 . S
H436 C413 0.930 . S
H437 C414 0.930 . S
H438 C416 0.929 . S
H439 C417 0.929 . S
La440 C442 2.928 . S
La440 O460 2.521 . S
La440 O461 2.628 . S
La440 O462 2.554 . S
La440 O463 2.757 . S
La440 O464 2.470 . S
La440 O469 2.482 . S
La440 O471 2.503 . S
La441 C451 2.928 . S
La441 O463 2.482 . S
La441 O465 2.503 . S
La441 O466 2.521 . S
La441 O467 2.628 . S
La441 O468 2.554 . S
La441 O469 2.757 . S
La441 O470 2.470 . S
C442 La440 2.928 . S
C442 C443 1.503 . S
C442 O460 1.261 . S
C442 O461 1.243 . S
C443 C442 1.503 . S
C443 C444 1.394 . S
C443 C448 1.373 . S
C444 C443 1.394 . S
C444 C445 1.380 . S
C444 H472 0.930 . S
C445 C444 1.380 . S
C445 C446 1.376 . S
C445 H473 0.930 . S
C446 C445 1.376 . S
C446 C447 1.370 . S
C447 C446 1.370 . S
C447 C448 1.396 . S
C447 H474 0.929 . S
C448 C443 1.373 . S
C448 C447 1.396 . S
C448 H475 0.929 . S
C449 O462 1.240 . S
C449 O463 1.289 . S
C450 O464 1.258 . S
C450 O465 1.256 . S
C451 La441 2.928 . S
C451 C452 1.503 . S
C451 O466 1.261 . S
C451 O467 1.243 . S
C452 C451 1.503 . S
C452 C453 1.394 . S
C452 C457 1.373 . S
C453 C452 1.394 . S
C453 C454 1.380 . S
C453 H476 0.930 . S
C454 C453 1.380 . S
C454 C455 1.376 . S
C454 H477 0.930 . S
C455 C454 1.376 . S
C455 C456 1.370 . S
C456 C455 1.370 . S
C456 C457 1.396 . S
C456 H478 0.929 . S
C457 C452 1.373 . S
C457 C456 1.396 . S
C457 H479 0.929 . S
C458 O468 1.240 . S
C458 O469 1.289 . S
C459 O470 1.258 . S
C459 O471 1.256 . S
O460 La440 2.521 . S
O460 C442 1.261 . S
O461 La440 2.628 . S
O461 C442 1.243 . S
O462 La440 2.554 . S
O462 C449 1.240 . S
O463 La440 2.757 . S
O463 La441 2.482 . S
O463 C449 1.289 . S
O464 La440 2.470 . S
O464 C450 1.258 . S
O465 La441 2.503 . S
O465 C450 1.256 . S
O466 La441 2.521 . S
O466 C451 1.261 . S
O467 La441 2.628 . S
O467 C451 1.243 . S
O468 La441 2.554 . S
O468 C458 1.240 . S
O469 La440 2.482 . S
O469 La441 2.757 . S
O469 C458 1.289 . S
O470 La441 2.470 . S
O470 C459 1.258 . S
O471 La440 2.503 . S
O471 C459 1.256 . S
H472 C444 0.930 . S
H473 C445 0.930 . S
H474 C447 0.929 . S
H475 C448 0.929 . S
H476 C453 0.930 . S
H477 C454 0.930 . S
H478 C456 0.929 . S
H479 C457 0.929 . S
La480 C482 2.928 . S
La480 O500 2.521 . S
La480 O501 2.628 . S
La480 O502 2.554 . S
La480 O503 2.757 . S
La480 O504 2.470 . S
La480 O509 2.482 . S
La480 O511 2.503 . S
La481 C491 2.928 . S
La481 O503 2.482 . S
La481 O505 2.503 . S
La481 O506 2.521 . S
La481 O507 2.628 . S
La481 O508 2.554 . S
La481 O509 2.757 . S
La481 O510 2.470 . S
C482 La480 2.928 . S
C482 C483 1.503 . S
C482 O500 1.261 . S
C482 O501 1.243 . S
C483 C482 1.503 . S
C483 C484 1.394 . S
C483 C488 1.373 . S
C484 C483 1.394 . S
C484 C485 1.380 . S
C484 H512 0.930 . S
C485 C484 1.380 . S
C485 C486 1.376 . S
C485 H513 0.930 . S
C486 C485 1.376 . S
C486 C487 1.370 . S
C487 C486 1.370 . S
C487 C488 1.396 . S
C487 H514 0.929 . S
C488 C483 1.373 . S
C488 C487 1.396 . S
C488 H515 0.929 . S
C489 O502 1.240 . S
C489 O503 1.289 . S
C490 O504 1.258 . S
C490 O505 1.256 . S
C491 La481 2.928 . S
C491 C492 1.503 . S
C491 O506 1.261 . S
C491 O507 1.243 . S
C492 C491 1.503 . S
C492 C493 1.394 . S
C492 C497 1.373 . S
C493 C492 1.394 . S
C493 C494 1.380 . S
C493 H516 0.930 . S
C494 C493 1.380 . S
C494 C495 1.376 . S
C494 H517 0.930 . S
C495 C494 1.376 . S
C495 C496 1.370 . S
C496 C495 1.370 . S
C496 C497 1.396 . S
C496 H518 0.929 . S
C497 C492 1.373 . S
C497 C496 1.396 . S
C497 H519 0.929 . S
C498 O508 1.240 . S
C498 O509 1.289 . S
C499 O510 1.258 . S
C499 O511 1.256 . S
O500 La480 2.521 . S
O500 C482 1.261 . S
O501 La480 2.628 . S
O501 C482 1.243 . S
O502 La480 2.554 . S
O502 C489 1.240 . S
O503 La480 2.757 . S
O503 La481 2.482 . S
O503 C489 1.289 . S
O504 La480 2.470 . S
O504 C490 1.258 . S
O505 La481 2.503 . S
O505 C490 1.256 . S
O506 La481 2.521 . S
O506 C491 1.261 . S
O507 La481 2.628 . S
O507 C491 1.243 . S
O508 La481 2.554 . S
O508 C498 1.240 . S
O509 La480 2.482 . S
O509 La481 2.757 . S
O509 C498 1.289 . S
O510 La481 2.470 . S
O510 C499 1.258 . S
O511 La480 2.503 . S
O511 C499 1.256 . S
H512 C484 0.930 . S
H513 C485 0.930 . S
H514 C487 0.929 . S
H515 C488 0.929 . S
H516 C493 0.930 . S
H517 C494 0.930 . S
H518 C496 0.929 . S
H519 C497 0.929 . S
La520 C522 2.928 . S
La520 O540 2.521 . S
La520 O541 2.628 . S
La520 O542 2.554 . S
La520 O543 2.757 . S
La520 O544 2.470 . S
La520 O549 2.482 . S
La520 O551 2.503 . S
La521 C531 2.928 . S
La521 O543 2.482 . S
La521 O545 2.503 . S
La521 O546 2.521 . S
La521 O547 2.628 . S
La521 O548 2.554 . S
La521 O549 2.757 . S
La521 O550 2.470 . S
C522 La520 2.928 . S
C522 C523 1.503 . S
C522 O540 1.261 . S
C522 O541 1.243 . S
C523 C522 1.503 . S
C523 C524 1.394 . S
C523 C528 1.373 . S
C524 C523 1.394 . S
C524 C525 1.380 . S
C524 H552 0.930 . S
C525 C524 1.380 . S
C525 C526 1.376 . S
C525 H553 0.926 1_655 S
C526 C525 1.376 . S
C526 C527 1.370 . S
C527 C526 1.370 . S
C527 C528 1.396 . S
C527 H554 0.929 . S
C528 C523 1.373 . S
C528 C527 1.396 . S
C528 H555 0.929 . S
C529 O542 1.240 . S
C529 O543 1.289 . S
C530 O544 1.258 . S
C530 O545 1.256 . S
C531 La521 2.928 . S
C531 C532 1.503 . S
C531 O546 1.261 . S
C531 O547 1.243 . S
C532 C531 1.503 . S
C532 C533 1.394 . S
C532 C537 1.373 . S
C533 C532 1.394 . S
C533 C534 1.380 . S
C533 H556 0.930 . S
C534 C533 1.380 . S
C534 C535 1.376 . S
C534 H557 0.930 . S
C535 C534 1.376 . S
C535 C536 1.370 . S
C536 C535 1.370 . S
C536 C537 1.396 . S
C536 H558 0.929 . S
C537 C532 1.373 . S
C537 C536 1.396 . S
C537 H559 0.929 . S
C538 O548 1.240 . S
C538 O549 1.289 . S
C539 O550 1.258 . S
C539 O551 1.256 . S
O540 La520 2.521 . S
O540 C522 1.261 . S
O541 La520 2.628 . S
O541 C522 1.243 . S
O542 La520 2.554 . S
O542 C529 1.240 . S
O543 La520 2.757 . S
O543 La521 2.482 . S
O543 C529 1.289 . S
O544 La520 2.470 . S
O544 C530 1.258 . S
O545 La521 2.503 . S
O545 C530 1.256 . S
O546 La521 2.521 . S
O546 C531 1.261 . S
O547 La521 2.628 . S
O547 C531 1.243 . S
O548 La521 2.554 . S
O548 C538 1.240 . S
O549 La520 2.482 . S
O549 La521 2.757 . S
O549 C538 1.289 . S
O550 La521 2.470 . S
O550 C539 1.258 . S
O551 La520 2.503 . S
O551 C539 1.256 . S
H552 C524 0.930 . S
H553 C525 0.926 1_455 S
H554 C527 0.929 . S
H555 C528 0.929 . S
H556 C533 0.930 . S
H557 C534 0.930 . S
H558 C536 0.929 . S
H559 C537 0.929 . S
La560 C562 2.928 . S
La560 O580 2.521 . S
La560 O581 2.628 . S
La560 O582 2.554 . S
La560 O583 2.757 . S
La560 O584 2.470 . S
La560 O589 2.482 . S
La560 O591 2.503 . S
La561 C571 2.928 . S
La561 O583 2.482 . S
La561 O585 2.503 . S
La561 O586 2.521 . S
La561 O587 2.628 . S
La561 O588 2.554 . S
La561 O589 2.757 . S
La561 O590 2.470 . S
C562 La560 2.928 . S
C562 C563 1.503 . S
C562 O580 1.261 . S
C562 O581 1.243 . S
C563 C562 1.503 . S
C563 C564 1.394 . S
C563 C568 1.373 . S
C564 C563 1.394 . S
C564 C565 1.380 . S
C564 H592 0.930 . S
C565 C564 1.380 . S
C565 C566 1.376 . S
C565 H593 0.930 . S
C566 C565 1.376 . S
C566 C567 1.370 . S
C567 C566 1.370 . S
C567 C568 1.396 . S
C567 H594 0.929 . S
C568 C563 1.373 . S
C568 C567 1.396 . S
C568 H595 0.929 . S
C569 O582 1.240 . S
C569 O583 1.289 . S
C570 O584 1.258 . S
C570 O585 1.256 . S
C571 La561 2.928 . S
C571 C572 1.503 . S
C571 O586 1.261 . S
C571 O587 1.243 . S
C572 C571 1.503 . S
C572 C573 1.394 . S
C572 C577 1.373 . S
C573 C572 1.394 . S
C573 C574 1.380 . S
C573 H596 0.930 . S
C574 C573 1.380 . S
C574 C575 1.376 . S
C574 H597 0.930 . S
C575 C574 1.376 . S
C575 C576 1.370 . S
C576 C575 1.370 . S
C576 C577 1.396 . S
C576 H598 0.929 . S
C577 C572 1.373 . S
C577 C576 1.396 . S
C577 H599 0.929 . S
C578 O588 1.240 . S
C578 O589 1.289 . S
C579 O590 1.258 . S
C579 O591 1.256 . S
O580 La560 2.521 . S
O580 C562 1.261 . S
O581 La560 2.628 . S
O581 C562 1.243 . S
O582 La560 2.554 . S
O582 C569 1.240 . S
O583 La560 2.757 . S
O583 La561 2.482 . S
O583 C569 1.289 . S
O584 La560 2.470 . S
O584 C570 1.258 . S
O585 La561 2.503 . S
O585 C570 1.256 . S
O586 La561 2.521 . S
O586 C571 1.261 . S
O587 La561 2.628 . S
O587 C571 1.243 . S
O588 La561 2.554 . S
O588 C578 1.240 . S
O589 La560 2.482 . S
O589 La561 2.757 . S
O589 C578 1.289 . S
O590 La561 2.470 . S
O590 C579 1.258 . S
O591 La560 2.503 . S
O591 C579 1.256 . S
H592 C564 0.930 . S
H593 C565 0.930 . S
H594 C567 0.929 . S
H595 C568 0.929 . S
H596 C573 0.930 . S
H597 C574 0.930 . S
H598 C576 0.929 . S
H599 C577 0.929 . S
La600 C602 2.928 . S
La600 O620 2.521 . S
La600 O621 2.628 . S
La600 O622 2.554 1_554 S
La600 O623 2.757 1_554 S
La600 O624 2.470 1_554 S
La600 O629 2.482 1_655 S
La600 O631 2.503 . S
La601 C611 2.928 . S
La601 O623 2.482 1_455 S
La601 O625 2.503 . S
La601 O626 2.521 . S
La601 O627 2.628 . S
La601 O628 2.554 1_556 S
La601 O629 2.757 1_556 S
La601 O630 2.470 1_556 S
C602 La600 2.928 . S
C602 C603 1.503 . S
C602 O620 1.261 . S
C602 O621 1.243 . S
C603 C602 1.503 . S
C603 C604 1.394 . S
C603 C608 1.373 . S
C604 C603 1.394 . S
C604 C605 1.380 . S
C604 H632 0.930 . S
C605 C604 1.380 . S
C605 C606 1.376 . S
C605 H633 0.930 . S
C606 C605 1.376 . S
C606 C607 1.370 . S
C607 C606 1.370 . S
C607 C608 1.396 . S
C607 H634 0.929 . S
C608 C603 1.373 . S
C608 C607 1.396 . S
C608 H635 0.929 . S
C609 O622 1.240 . S
C609 O623 1.289 . S
C610 O624 1.258 . S
C610 O625 1.256 1_655 S
C611 La601 2.928 . S
C611 C612 1.503 . S
C611 O626 1.261 . S
C611 O627 1.243 . S
C612 C611 1.503 . S
C612 C613 1.394 . S
C612 C617 1.373 . S
C613 C612 1.394 . S
C613 C614 1.380 . S
C613 H636 0.930 . S
C614 C613 1.380 . S
C614 C615 1.376 . S
C614 H637 0.930 . S
C615 C614 1.376 . S
C615 C616 1.370 . S
C616 C615 1.370 . S
C616 C617 1.396 . S
C616 H638 0.929 . S
C617 C612 1.373 . S
C617 C616 1.396 . S
C617 H639 0.929 . S
C618 O628 1.240 . S
C618 O629 1.289 . S
C619 O630 1.258 . S
C619 O631 1.256 1_455 S
O620 La600 2.521 . S
O620 C602 1.261 . S
O621 La600 2.628 . S
O621 C602 1.243 . S
O622 La600 2.554 1_556 S
O622 C609 1.240 . S
O623 La600 2.757 1_556 S
O623 La601 2.482 1_655 S
O623 C609 1.289 . S
O624 La600 2.470 1_556 S
O624 C610 1.258 . S
O625 La601 2.503 . S
O625 C610 1.256 1_455 S
O626 La601 2.521 . S
O626 C611 1.261 . S
O627 La601 2.628 . S
O627 C611 1.243 . S
O628 La601 2.554 1_554 S
O628 C618 1.240 . S
O629 La600 2.482 1_455 S
O629 La601 2.757 1_554 S
O629 C618 1.289 . S
O630 La601 2.470 1_554 S
O630 C619 1.258 . S
O631 La600 2.503 . S
O631 C619 1.256 1_655 S
H632 C604 0.930 . S
H633 C605 0.930 . S
H634 C607 0.929 . S
H635 C608 0.929 . S
H636 C613 0.930 . S
H637 C614 0.930 . S
H638 C616 0.929 . S
H639 C617 0.929 . S
C640 C641 1.387 . S
C640 H644 0.950 . S
C640 C649 1.390 . S
C641 C640 1.387 . S
C641 C643 1.387 . S
H642 C649 0.950 . S
C643 C641 1.387 . S
C643 C645 1.390 . S
C643 H647 0.950 . S
H644 C640 0.950 . S
C645 C643 1.390 . S
C645 C646 1.387 . S
C645 H648 0.950 . S
C646 C645 1.387 . S
C646 C649 1.387 . S
H647 C643 0.950 . S
H648 C645 0.950 . S
C649 C640 1.390 . S
C649 H642 0.950 . S
C649 C646 1.387 . S
C650 C651 1.387 . S
C650 H654 0.950 . S
C650 C659 1.390 . S
C651 C650 1.387 . S
C651 C653 1.387 . S
H652 C659 0.950 . S
C653 C651 1.387 . S
C653 C655 1.390 . S
C653 H657 0.950 . S
H654 C650 0.950 . S
C655 C653 1.390 . S
C655 C656 1.387 . S
C655 H658 0.950 . S
C656 C655 1.387 . S
C656 C659 1.387 . S
H657 C653 0.950 . S
H658 C655 0.950 . S
C659 C650 1.390 . S
C659 H652 0.950 . S
C659 C656 1.387 . S
C660 C661 1.387 . S
C660 H664 0.950 . S
C660 C669 1.390 . S
C661 C660 1.387 . S
C661 C663 1.387 . S
H662 C669 0.950 . S
C663 C661 1.387 . S
C663 C665 1.390 . S
C663 H667 0.950 . S
H664 C660 0.950 . S
C665 C663 1.390 . S
C665 C666 1.387 . S
C665 H668 0.950 . S
C666 C665 1.387 . S
C666 C669 1.387 . S
H667 C663 0.950 . S
H668 C665 0.950 . S
C669 C660 1.390 . S
C669 H662 0.950 . S
C669 C666 1.387 . S
C670 C671 1.387 . S
C670 H674 0.950 . S
C670 C679 1.390 . S
C671 C670 1.387 . S
C671 C673 1.387 . S
H672 C679 0.950 . S
C673 C671 1.387 . S
C673 C675 1.390 . S
C673 H677 0.950 . S
H674 C670 0.950 . S
C675 C673 1.390 . S
C675 C676 1.387 . S
C675 H678 0.950 . S
C676 C675 1.387 . S
C676 C679 1.387 . S
H677 C673 0.950 . S
H678 C675 0.950 . S
C679 C670 1.390 . S
C679 H672 0.950 . S
C679 C676 1.387 . S
C680 C681 1.387 . S
C680 H684 0.950 . S
C680 C689 1.390 . S
C681 C680 1.387 . S
C681 C683 1.387 . S
H682 C689 0.950 . S
C683 C681 1.387 . S
C683 C685 1.390 . S
C683 H687 0.950 . S
H684 C680 0.950 . S
C685 C683 1.390 . S
C685 C686 1.387 . S
C685 H688 0.950 . S
C686 C685 1.387 . S
C686 C689 1.387 . S
H687 C683 0.950 . S
H688 C685 0.950 . S
C689 C680 1.390 . S
C689 H682 0.950 . S
C689 C686 1.387 . S
C690 C691 1.387 . S
C690 H694 0.950 . S
C690 C699 1.390 . S
C691 C690 1.387 . S
C691 C693 1.387 . S
H692 C699 0.950 . S
C693 C691 1.387 . S
C693 C695 1.390 . S
C693 H697 0.950 . S
H694 C690 0.950 . S
C695 C693 1.390 . S
C695 C696 1.387 . S
C695 H698 0.950 . S
C696 C695 1.387 . S
C696 C699 1.387 . S
H697 C693 0.950 . S
H698 C695 0.950 . S
C699 C690 1.390 . S
C699 H692 0.950 . S
C699 C696 1.387 . S
C700 C701 1.387 . S
C700 H704 0.950 . S
C700 C709 1.390 . S
C701 C700 1.387 . S
C701 C703 1.387 . S
H702 C709 0.950 . S
C703 C701 1.387 . S
C703 C705 1.390 . S
C703 H707 0.950 . S
H704 C700 0.950 . S
C705 C703 1.390 . S
C705 C706 1.387 . S
C705 H708 0.950 . S
C706 C705 1.387 . S
C706 C709 1.387 . S
H707 C703 0.950 . S
H708 C705 0.950 . S
C709 C700 1.390 . S
C709 H702 0.950 . S
C709 C706 1.387 . S
C710 C711 1.387 . S
C710 H714 0.950 . S
C710 C719 1.390 . S
C711 C710 1.387 . S
C711 C713 1.387 . S
H712 C719 0.950 . S
C713 C711 1.387 . S
C713 C715 1.390 . S
C713 H717 0.950 . S
H714 C710 0.950 . S
C715 C713 1.390 . S
C715 C716 1.387 . S
C715 H718 0.950 . S
C716 C715 1.387 . S
C716 C719 1.387 . S
H717 C713 0.950 . S
H718 C715 0.950 . S
C719 C710 1.390 . S
C719 H712 0.950 . S
C719 C716 1.387 . S
C720 C721 1.387 . S
C720 H724 0.950 . S
C720 C729 1.390 . S
C721 C720 1.387 . S
C721 C723 1.387 . S
H722 C729 0.950 1_556 S
C723 C721 1.387 . S
C723 C725 1.390 . S
C723 H727 0.950 . S
H724 C720 0.950 . S
C725 C723 1.390 . S
C725 C726 1.387 . S
C725 H728 0.950 . S
C726 C725 1.387 . S
C726 C729 1.387 . S
H727 C723 0.950 . S
H728 C725 0.950 . S
C729 C720 1.390 . S
C729 H722 0.950 1_554 S
C729 C726 1.387 . S
C730 C731 1.387 . S
C730 H734 0.950 . S
C730 C739 1.390 . S
C731 C730 1.387 . S
C731 C733 1.387 . S
H732 C739 0.950 . S
C733 C731 1.387 . S
C733 C735 1.390 . S
C733 H737 0.950 . S
H734 C730 0.950 . S
C735 C733 1.390 . S
C735 C736 1.387 . S
C735 H738 0.950 . S
C736 C735 1.387 . S
C736 C739 1.387 . S
H737 C733 0.950 . S
H738 C735 0.950 . S
C739 C730 1.390 . S
C739 H732 0.950 . S
C739 C736 1.387 . S
C740 C741 1.387 . S
C740 H744 0.950 . S
C740 C749 1.390 . S
C741 C740 1.387 . S
C741 C743 1.387 . S
H742 C749 0.950 . S
C743 C741 1.387 . S
C743 C745 1.390 . S
C743 H747 0.950 . S
H744 C740 0.950 . S
C745 C743 1.390 . S
C745 C746 1.387 . S
C745 H748 0.950 . S
C746 C745 1.387 . S
C746 C749 1.387 . S
H747 C743 0.950 . S
H748 C745 0.950 . S
C749 C740 1.390 . S
C749 H742 0.950 . S
C749 C746 1.387 . S
C750 C751 1.387 . S
C750 H754 0.950 . S
C750 C759 1.390 . S
C751 C750 1.387 . S
C751 C753 1.387 . S
H752 C759 0.950 . S
C753 C751 1.387 . S
C753 C755 1.390 . S
C753 H757 0.950 . S
H754 C750 0.950 . S
C755 C753 1.390 . S
C755 C756 1.387 . S
C755 H758 0.950 . S
C756 C755 1.387 . S
C756 C759 1.387 . S
H757 C753 0.950 . S
H758 C755 0.950 . S
C759 C750 1.390 . S
C759 H752 0.950 . S
C759 C756 1.387 . S
C760 C761 1.387 . S
C760 H764 0.950 . S
C760 C769 1.390 . S
C761 C760 1.387 . S
C761 C763 1.387 . S
H762 C769 0.950 . S
C763 C761 1.387 . S
C763 C765 1.390 . S
C763 H767 0.950 . S
H764 C760 0.950 . S
C765 C763 1.390 . S
C765 C766 1.387 . S
C765 H768 0.950 . S
C766 C765 1.387 . S
C766 C769 1.387 . S
H767 C763 0.950 . S
H768 C765 0.950 . S
C769 C760 1.390 . S
C769 H762 0.950 . S
C769 C766 1.387 . S
C770 C771 1.387 . S
C770 H774 0.950 . S
C770 C779 1.390 . S
C771 C770 1.387 . S
C771 C773 1.387 . S
H772 C779 0.950 . S
C773 C771 1.387 . S
C773 C775 1.390 . S
C773 H777 0.950 . S
H774 C770 0.950 . S
C775 C773 1.390 . S
C775 C776 1.387 . S
C775 H778 0.950 . S
C776 C775 1.387 . S
C776 C779 1.387 . S
H777 C773 0.950 . S
H778 C775 0.950 . S
C779 C770 1.390 . S
C779 H772 0.950 . S
C779 C776 1.387 . S
C780 C781 1.387 . S
C780 H784 0.950 . S
C780 C789 1.390 . S
C781 C780 1.387 . S
C781 C783 1.387 . S
H782 C789 0.950 . S
C783 C781 1.387 . S
C783 C785 1.390 . S
C783 H787 0.950 . S
H784 C780 0.950 . S
C785 C783 1.390 . S
C785 C786 1.387 . S
C785 H788 0.950 . S
C786 C785 1.387 . S
C786 C789 1.387 . S
H787 C783 0.950 . S
H788 C785 0.950 . S
C789 C780 1.390 . S
C789 H782 0.950 . S
C789 C786 1.387 . S
C790 C791 1.387 . S
C790 H794 0.950 . S
C790 C799 1.390 . S
C791 C790 1.387 . S
C791 C793 1.387 . S
H792 C799 0.950 . S
C793 C791 1.387 . S
C793 C795 1.390 . S
C793 H797 0.950 1_554 S
H794 C790 0.950 . S
C795 C793 1.390 . S
C795 C796 1.387 . S
C795 H798 0.950 . S
C796 C795 1.387 . S
C796 C799 1.387 . S
H797 C793 0.950 1_556 S
H798 C795 0.950 . S
C799 C790 1.390 . S
C799 H792 0.950 . S
C799 C796 1.387 . S
C800 C801 1.387 . S
C800 H804 0.950 . S
C800 C809 1.390 . S
C801 C800 1.387 . S
C801 C803 1.387 . S
H802 C809 0.950 . S
C803 C801 1.387 . S
C803 C805 1.390 . S
C803 H807 0.950 . S
H804 C800 0.950 . S
C805 C803 1.390 . S
C805 C806 1.387 . S
C805 H808 0.950 . S
C806 C805 1.387 . S
C806 C809 1.387 . S
H807 C803 0.950 . S
H808 C805 0.950 . S
C809 C800 1.390 . S
C809 H802 0.950 . S
C809 C806 1.387 . S
C810 C811 1.387 . S
C810 H814 0.950 . S
C810 C819 1.390 . S
C811 C810 1.387 . S
C811 C813 1.387 . S
H812 C819 0.950 . S
C813 C811 1.387 . S
C813 C815 1.390 . S
C813 H817 0.950 . S
H814 C810 0.950 . S
C815 C813 1.390 . S
C815 C816 1.387 . S
C815 H818 0.950 . S
C816 C815 1.387 . S
C816 C819 1.387 . S
H817 C813 0.950 . S
H818 C815 0.950 . S
C819 C810 1.390 . S
C819 H812 0.950 . S
C819 C816 1.387 . S
C820 C821 1.387 . S
C820 H824 0.950 . S
C820 C829 1.390 . S
C821 C820 1.387 . S
C821 C823 1.387 . S
H822 C829 0.950 . S
C823 C821 1.387 . S
C823 C825 1.390 . S
C823 H827 0.950 . S
H824 C820 0.950 . S
C825 C823 1.390 . S
C825 C826 1.387 . S
C825 H828 0.950 . S
C826 C825 1.387 . S
C826 C829 1.387 . S
H827 C823 0.950 . S
H828 C825 0.950 . S
C829 C820 1.390 . S
C829 H822 0.950 . S
C829 C826 1.387 . S
C830 C831 1.387 . S
C830 H834 0.950 . S
C830 C839 1.390 . S
C831 C830 1.387 . S
C831 C833 1.387 . S
H832 C839 0.950 . S
C833 C831 1.387 . S
C833 C835 1.390 . S
C833 H837 0.950 . S
H834 C830 0.950 . S
C835 C833 1.390 . S
C835 C836 1.387 . S
C835 H838 0.950 . S
C836 C835 1.387 . S
C836 C839 1.387 . S
H837 C833 0.950 . S
H838 C835 0.950 . S
C839 C830 1.390 . S
C839 H832 0.950 . S
C839 C836 1.387 . S
C840 C841 1.387 . S
C840 H844 0.950 . S
C840 C849 1.390 . S
C841 C840 1.387 . S
C841 C843 1.387 . S
H842 C849 0.950 . S
C843 C841 1.387 . S
C843 C845 1.390 . S
C843 H847 0.950 . S
H844 C840 0.950 . S
C845 C843 1.390 . S
C845 C846 1.387 . S
C845 H848 0.950 . S
C846 C845 1.387 . S
C846 C849 1.387 . S
H847 C843 0.950 . S
H848 C845 0.950 . S
C849 C840 1.390 . S
C849 H842 0.950 . S
C849 C846 1.387 . S
C850 C851 1.387 . S
C850 H854 0.950 . S
C850 C859 1.390 . S
C851 C850 1.387 . S
C851 C853 1.387 . S
H852 C859 0.950 . S
C853 C851 1.387 . S
C853 C855 1.390 . S
C853 H857 0.950 . S
H854 C850 0.950 . S
C855 C853 1.390 . S
C855 C856 1.387 . S
C855 H858 0.950 . S
C856 C855 1.387 . S
C856 C859 1.387 . S
H857 C853 0.950 . S
H858 C855 0.950 . S
C859 C850 1.390 . S
C859 H852 0.950 . S
C859 C856 1.387 . S
C860 C861 1.387 . S
C860 H864 0.950 . S
C860 C869 1.390 . S
C861 C860 1.387 . S
C861 C863 1.387 . S
H862 C869 0.950 . S
C863 C861 1.387 . S
C863 C865 1.390 . S
C863 H867 0.950 . S
H864 C860 0.950 . S
C865 C863 1.390 . S
C865 C866 1.387 . S
C865 H868 0.950 . S
C866 C865 1.387 . S
C866 C869 1.387 . S
H867 C863 0.950 . S
H868 C865 0.950 . S
C869 C860 1.390 . S
C869 H862 0.950 . S
C869 C866 1.387 . S
C870 C871 1.387 . S
C870 H874 0.950 . S
C870 C879 1.390 . S
C871 C870 1.387 . S
C871 C873 1.387 . S
H872 C879 0.950 . S
C873 C871 1.387 . S
C873 C875 1.390 . S
C873 H877 0.950 . S
H874 C870 0.950 . S
C875 C873 1.390 . S
C875 C876 1.387 . S
C875 H878 0.950 . S
C876 C875 1.387 . S
C876 C879 1.387 . S
H877 C873 0.950 . S
H878 C875 0.950 . S
C879 C870 1.390 . S
C879 H872 0.950 . S
C879 C876 1.387 . S
C880 C881 1.387 . S
C880 H884 0.950 . S
C880 C889 1.390 . S
C881 C880 1.387 . S
C881 C883 1.387 . S
H882 C889 0.950 . S
C883 C881 1.387 . S
C883 C885 1.390 . S
C883 H887 0.950 . S
H884 C880 0.950 . S
C885 C883 1.390 . S
C885 C886 1.387 . S
C885 H888 0.950 . S
C886 C885 1.387 . S
C886 C889 1.387 . S
H887 C883 0.950 . S
H888 C885 0.950 . S
C889 C880 1.390 . S
C889 H882 0.950 . S
C889 C886 1.387 . S
C890 C891 1.387 . S
C890 H894 0.950 . S
C890 C899 1.390 . S
C891 C890 1.387 . S
C891 C893 1.387 . S
H892 C899 0.950 . S
C893 C891 1.387 . S
C893 C895 1.390 . S
C893 H897 0.950 . S
H894 C890 0.950 . S
C895 C893 1.390 . S
C895 C896 1.387 . S
C895 H898 0.950 . S
C896 C895 1.387 . S
C896 C899 1.387 . S
H897 C893 0.950 . S
H898 C895 0.950 . S
C899 C890 1.390 . S
C899 H892 0.950 . S
C899 C896 1.387 . S
C900 C901 1.387 . S
C900 H904 0.950 . S
C900 C909 1.390 . S
C901 C900 1.387 . S
C901 C903 1.387 . S
H902 C909 0.950 . S
C903 C901 1.387 . S
C903 C905 1.390 . S
C903 H907 0.950 . S
H904 C900 0.950 . S
C905 C903 1.390 . S
C905 C906 1.387 . S
C905 H908 0.950 . S
C906 C905 1.387 . S
C906 C909 1.387 . S
H907 C903 0.950 . S
H908 C905 0.950 . S
C909 C900 1.390 . S
C909 H902 0.950 . S
C909 C906 1.387 . S
C910 C911 1.387 . S
C910 H914 0.950 . S
C910 C919 1.390 . S
C911 C910 1.387 . S
C911 C913 1.387 . S
H912 C919 0.950 . S
C913 C911 1.387 . S
C913 C915 1.390 . S
C913 H917 0.950 . S
H914 C910 0.950 . S
C915 C913 1.390 . S
C915 C916 1.387 . S
C915 H918 0.950 . S
C916 C915 1.387 . S
C916 C919 1.387 . S
H917 C913 0.950 . S
H918 C915 0.950 . S
C919 C910 1.390 . S
C919 H912 0.950 . S
C919 C916 1.387 . S
C920 C921 1.387 . S
C920 H924 0.950 . S
C920 C929 1.390 . S
C921 C920 1.387 . S
C921 C923 1.387 . S
H922 C929 0.950 . S
C923 C921 1.387 . S
C923 C925 1.390 . S
C923 H927 0.950 . S
H924 C920 0.950 . S
C925 C923 1.390 . S
C925 C926 1.387 . S
C925 H928 0.950 . S
C926 C925 1.387 . S
C926 C929 1.387 . S
H927 C923 0.950 . S
H928 C925 0.950 . S
C929 C920 1.390 . S
C929 H922 0.950 . S
C929 C926 1.387 . S
C930 C931 1.387 . S
C930 H934 0.950 . S
C930 C939 1.390 . S
C931 C930 1.387 . S
C931 C933 1.387 . S
H932 C939 0.950 1_554 S
C933 C931 1.387 . S
C933 C935 1.390 . S
C933 H937 0.950 . S
H934 C930 0.950 . S
C935 C933 1.390 . S
C935 C936 1.387 . S
C935 H938 0.950 . S
C936 C935 1.387 . S
C936 C939 1.387 . S
H937 C933 0.950 . S
H938 C935 0.950 . S
C939 C930 1.390 . S
C939 H932 0.950 1_556 S
C939 C936 1.387 . S
C940 C941 1.387 . S
C940 H944 0.950 . S
C940 C949 1.390 . S
C941 C940 1.387 . S
C941 C943 1.387 . S
H942 C949 0.950 . S
C943 C941 1.387 . S
C943 C945 1.390 . S
C943 H947 0.950 . S
H944 C940 0.950 . S
C945 C943 1.390 . S
C945 C946 1.387 . S
C945 H948 0.950 . S
C946 C945 1.387 . S
C946 C949 1.387 . S
H947 C943 0.950 . S
H948 C945 0.950 . S
C949 C940 1.390 . S
C949 H942 0.950 . S
C949 C946 1.387 . S
C950 C951 1.387 . S
C950 H954 0.950 . S
C950 C959 1.390 . S
C951 C950 1.387 . S
C951 C953 1.387 . S
H952 C959 0.950 . S
C953 C951 1.387 . S
C953 C955 1.390 . S
C953 H957 0.950 . S
H954 C950 0.950 . S
C955 C953 1.390 . S
C955 C956 1.387 . S
C955 H958 0.950 . S
C956 C955 1.387 . S
C956 C959 1.387 . S
H957 C953 0.950 . S
H958 C955 0.950 . S
C959 C950 1.390 . S
C959 H952 0.950 . S
C959 C956 1.387 . S
C960 C961 1.387 . S
C960 H964 0.950 . S
C960 C969 1.390 . S
C961 C960 1.387 . S
C961 C963 1.387 . S
H962 C969 0.950 . S
C963 C961 1.387 . S
C963 C965 1.390 . S
C963 H967 0.950 . S
H964 C960 0.950 . S
C965 C963 1.390 . S
C965 C966 1.387 . S
C965 H968 0.950 . S
C966 C965 1.387 . S
C966 C969 1.387 . S
H967 C963 0.950 . S
H968 C965 0.950 . S
C969 C960 1.390 . S
C969 H962 0.950 . S
C969 C966 1.387 . S
C970 C971 1.387 . S
C970 H974 0.950 . S
C970 C979 1.390 . S
C971 C970 1.387 . S
C971 C973 1.387 . S
H972 C979 0.950 . S
C973 C971 1.387 . S
C973 C975 1.390 . S
C973 H977 0.950 . S
H974 C970 0.950 . S
C975 C973 1.390 . S
C975 C976 1.387 . S
C975 H978 0.950 . S
C976 C975 1.387 . S
C976 C979 1.387 . S
H977 C973 0.950 . S
H978 C975 0.950 . S
C979 C970 1.390 . S
C979 H972 0.950 . S
C979 C976 1.387 . S
C980 C981 1.387 . S
C980 H984 0.950 . S
C980 C989 1.390 . S
C981 C980 1.387 . S
C981 C983 1.387 . S
H982 C989 0.950 . S
C983 C981 1.387 . S
C983 C985 1.390 . S
C983 H987 0.950 . S
H984 C980 0.950 . S
C985 C983 1.390 . S
C985 C986 1.387 . S
C985 H988 0.950 . S
C986 C985 1.387 . S
C986 C989 1.387 . S
H987 C983 0.950 . S
H988 C985 0.950 . S
C989 C980 1.390 . S
C989 H982 0.950 . S
C989 C986 1.387 . S
C990 C991 1.387 . S
C990 H994 0.950 . S
C990 C999 1.390 . S
C991 C990 1.387 . S
C991 C993 1.387 . S
H992 C999 0.950 . S
C993 C991 1.387 . S
C993 C995 1.390 . S
C993 H997 0.950 . S
H994 C990 0.950 . S
C995 C993 1.390 . S
C995 C996 1.387 . S
C995 H998 0.950 . S
C996 C995 1.387 . S
C996 C999 1.387 . S
H997 C993 0.950 . S
H998 C995 0.950 . S
C999 C990 1.390 . S
C999 H992 0.950 . S
C999 C996 1.387 . S
C1000 C1001 1.387 . S
C1000 H1004 0.948 1_656 S
C1000 C1009 1.390 . S
C1001 C1000 1.387 . S
C1001 C1003 1.387 . S
H1002 C1009 0.950 . S
C1003 C1001 1.387 . S
C1003 C1005 1.390 . S
C1003 H1007 0.950 . S
H1004 C1000 0.948 1_454 S
C1005 C1003 1.390 . S
C1005 C1006 1.387 . S
C1005 H1008 0.950 . S
C1006 C1005 1.387 . S
C1006 C1009 1.387 . S
H1007 C1003 0.950 . S
H1008 C1005 0.950 . S
C1009 C1000 1.390 . S
C1009 H1002 0.950 . S
C1009 C1006 1.387 . S
C1010 C1011 1.387 . S
C1010 H1014 0.950 . S
C1010 C1019 1.390 . S
C1011 C1010 1.387 . S
C1011 C1013 1.387 . S
H1012 C1019 0.950 . S
C1013 C1011 1.387 . S
C1013 C1015 1.390 . S
C1013 H1017 0.950 . S
H1014 C1010 0.950 . S
C1015 C1013 1.390 . S
C1015 C1016 1.387 . S
C1015 H1018 0.950 . S
C1016 C1015 1.387 . S
C1016 C1019 1.387 . S
H1017 C1013 0.950 . S
H1018 C1015 0.950 . S
C1019 C1010 1.390 . S
C1019 H1012 0.950 . S
C1019 C1016 1.387 . S
C1020 C1021 1.387 . S
C1020 H1024 0.950 . S
C1020 C1029 1.390 . S
C1021 C1020 1.387 . S
C1021 C1023 1.387 . S
H1022 C1029 0.950 . S
C1023 C1021 1.387 . S
C1023 C1025 1.390 . S
C1023 H1027 0.950 . S
H1024 C1020 0.950 . S
C1025 C1023 1.390 . S
C1025 C1026 1.387 . S
C1025 H1028 0.950 . S
C1026 C1025 1.387 . S
C1026 C1029 1.387 . S
H1027 C1023 0.950 . S
H1028 C1025 0.950 . S
C1029 C1020 1.390 . S
C1029 H1022 0.950 . S
C1029 C1026 1.387 . S
C1030 C1031 1.387 . S
C1030 H1034 0.950 . S
C1030 C1039 1.390 . S
C1031 C1030 1.387 . S
C1031 C1033 1.387 . S
H1032 C1039 0.950 . S
C1033 C1031 1.387 . S
C1033 C1035 1.390 . S
C1033 H1037 0.950 . S
H1034 C1030 0.950 . S
C1035 C1033 1.390 . S
C1035 C1036 1.387 . S
C1035 H1038 0.950 . S
C1036 C1035 1.387 . S
C1036 C1039 1.387 . S
H1037 C1033 0.950 . S
H1038 C1035 0.950 . S
C1039 C1030 1.390 . S
C1039 H1032 0.950 . S
C1039 C1036 1.387 . S
C1040 C1041 1.387 . S
C1040 H1044 0.950 . S
C1040 C1049 1.390 . S
C1041 C1040 1.387 . S
C1041 C1043 1.387 . S
H1042 C1049 0.950 . S
C1043 C1041 1.387 . S
C1043 C1045 1.390 . S
C1043 H1047 0.950 . S
H1044 C1040 0.950 . S
C1045 C1043 1.390 . S
C1045 C1046 1.387 . S
C1045 H1048 0.950 . S
C1046 C1045 1.387 . S
C1046 C1049 1.387 . S
H1047 C1043 0.950 . S
H1048 C1045 0.950 . S
C1049 C1040 1.390 . S
C1049 H1042 0.950 . S
C1049 C1046 1.387 . S
C1050 C1051 1.387 . S
C1050 H1054 0.950 . S
C1050 C1059 1.390 . S
C1051 C1050 1.387 . S
C1051 C1053 1.387 . S
H1052 C1059 0.950 . S
C1053 C1051 1.387 . S
C1053 C1055 1.390 . S
C1053 H1057 0.950 . S
H1054 C1050 0.950 . S
C1055 C1053 1.390 . S
C1055 C1056 1.387 . S
C1055 H1058 0.950 . S
C1056 C1055 1.387 . S
C1056 C1059 1.387 . S
H1057 C1053 0.950 . S
H1058 C1055 0.950 . S
C1059 C1050 1.390 . S
C1059 H1052 0.950 . S
C1059 C1056 1.387 . S
C1060 C1061 1.387 . S
C1060 H1064 0.950 . S
C1060 C1069 1.390 . S
C1061 C1060 1.387 . S
C1061 C1063 1.387 . S
H1062 C1069 0.950 . S
C1063 C1061 1.387 . S
C1063 C1065 1.390 . S
C1063 H1067 0.950 . S
H1064 C1060 0.950 . S
C1065 C1063 1.390 . S
C1065 C1066 1.387 . S
C1065 H1068 0.950 . S
C1066 C1065 1.387 . S
C1066 C1069 1.387 . S
H1067 C1063 0.950 . S
H1068 C1065 0.950 . S
C1069 C1060 1.390 . S
C1069 H1062 0.950 . S
C1069 C1066 1.387 . S
C1070 C1071 1.387 . S
C1070 H1074 0.950 . S
C1070 C1079 1.390 . S
C1071 C1070 1.387 . S
C1071 C1073 1.387 . S
H1072 C1079 0.950 . S
C1073 C1071 1.387 . S
C1073 C1075 1.390 . S
C1073 H1077 0.950 . S
H1074 C1070 0.950 . S
C1075 C1073 1.390 . S
C1075 C1076 1.387 . S
C1075 H1078 0.950 . S
C1076 C1075 1.387 . S
C1076 C1079 1.387 . S
H1077 C1073 0.950 . S
H1078 C1075 0.950 . S
C1079 C1070 1.390 . S
C1079 H1072 0.950 . S
C1079 C1076 1.387 . S
C1080 C1081 1.387 . S
C1080 H1084 0.950 . S
C1080 C1089 1.390 . S
C1081 C1080 1.387 . S
C1081 C1083 1.387 . S
H1082 C1089 0.950 . S
C1083 C1081 1.387 . S
C1083 C1085 1.390 . S
C1083 H1087 0.950 . S
H1084 C1080 0.950 . S
C1085 C1083 1.390 . S
C1085 C1086 1.387 . S
C1085 H1088 0.950 . S
C1086 C1085 1.387 . S
C1086 C1089 1.387 . S
H1087 C1083 0.950 . S
H1088 C1085 0.950 . S
C1089 C1080 1.390 . S
C1089 H1082 0.950 . S
C1089 C1086 1.387 . S
C1090 C1091 1.387 . S
C1090 H1094 0.950 . S
C1090 C1099 1.390 . S
C1091 C1090 1.387 . S
C1091 C1093 1.387 . S
H1092 C1099 0.950 . S
C1093 C1091 1.387 . S
C1093 C1095 1.390 . S
C1093 H1097 0.950 . S
H1094 C1090 0.950 . S
C1095 C1093 1.390 . S
C1095 C1096 1.387 . S
C1095 H1098 0.950 . S
C1096 C1095 1.387 . S
C1096 C1099 1.387 . S
H1097 C1093 0.950 . S
H1098 C1095 0.950 . S
C1099 C1090 1.390 . S
C1099 H1092 0.950 . S
C1099 C1096 1.387 . S
C1100 C1101 1.387 . S
C1100 H1104 0.950 . S
C1100 C1109 1.390 . S
C1101 C1100 1.387 . S
C1101 C1103 1.387 . S
H1102 C1109 0.950 . S
C1103 C1101 1.387 . S
C1103 C1105 1.390 . S
C1103 H1107 0.950 . S
H1104 C1100 0.950 . S
C1105 C1103 1.390 . S
C1105 C1106 1.387 . S
C1105 H1108 0.950 . S
C1106 C1105 1.387 . S
C1106 C1109 1.387 . S
H1107 C1103 0.950 . S
H1108 C1105 0.950 . S
C1109 C1100 1.390 . S
C1109 H1102 0.950 . S
C1109 C1106 1.387 . S
C1110 C1111 1.387 . S
C1110 H1114 0.950 . S
C1110 C1119 1.390 . S
C1111 C1110 1.387 . S
C1111 C1113 1.387 . S
H1112 C1119 0.950 . S
C1113 C1111 1.387 . S
C1113 C1115 1.390 . S
C1113 H1117 0.950 . S
H1114 C1110 0.950 . S
C1115 C1113 1.390 . S
C1115 C1116 1.387 . S
C1115 H1118 0.950 . S
C1116 C1115 1.387 . S
C1116 C1119 1.387 . S
H1117 C1113 0.950 . S
H1118 C1115 0.950 . S
C1119 C1110 1.390 . S
C1119 H1112 0.950 . S
C1119 C1116 1.387 . S
C641 C139 1.866 . S
C646 C9 1.879 . S
C651 C6 0.529 . S
C656 C55 0.465 . S
C661 C89 0.811 . S
C666 C58 0.788 . S
C671 C126 1.140 . S
C676 C86 1.138 . S
C681 C166 1.903 . S
C686 C210 1.838 . S
C691 C218 0.880 . S
C696 C258 0.891 . S
C701 C255 2.933 . S
C706 C290 2.912 . S
C711 C179 1.768 . S
C716 C298 1.754 . S
C721 C375 2.243 . S
C726 C19 2.297 . S
C731 C410 1.487 . S
C736 C50 1.404 . S
C741 C99 2.195 . S
C746 C535 2.134 . S
C751 C329 1.110 . S
C756 C129 1.139 . S
C761 C449 0.925 . S
C766 C169 0.906 . S
C771 C575 0.958 . S
C776 C215 0.979 . S
C781 C250 2.127 . S
C786 C490 2.177 . S
C791 C619 2.281 . S
C796 C295 2.264 . S
C801 C339 1.943 . S
C806 C538 1.949 . S
C811 C370 2.640 . S
C816 C326 2.669 . S
C821 C418 1.595 . S
C826 C378 1.628 . S
C831 C578 1.808 . S
C836 C459 1.797 . S
C841 C498 1.645 . S
C846 C609 1.619 . S
C851 C450 1.866 . S
C856 C18 1.876 . S
C861 C486 0.466 . S
C866 C15 0.530 . S
C871 C489 0.788 . S
C876 C98 0.811 . S
C881 C95 1.138 . S
C886 C455 1.140 . S
C891 C379 1.838 . S
C896 C175 1.903 . S
C901 C369 0.885 . S
C906 C249 0.891 . S
C911 C539 2.913 . S
C916 C246 2.934 . S
C921 C170 1.769 . S
C926 C529 1.755 . S
C931 C206 2.245 . S
C936 C10 2.297 . S
C941 C419 1.485 . S
C946 C499 1.400 . S
C951 C90 2.195 . S
C956 C286 2.135 . S
C961 C338 1.109 . S
C966 C458 1.139 . S
C971 C138 0.924 . S
C976 C178 0.908 . S
C981 C366 0.979 . S
C986 C566 0.956 . S
C991 C259 2.126 . S
C996 C59 2.174 . S
C1001 C610 2.281 . S
C1006 C526 2.265 . S
C1011 C330 1.943 . S
C1016 C289 1.947 . S
C1021 C335 2.667 . S
C1026 C219 2.638 . S
C1031 C409 1.593 . S
C1036 C209 1.627 . S
C1041 C130 1.797 . S
C1046 C569 1.808 . S
C1051 C49 1.644 . S
C1056 C618 1.619 . S
C1061 C495 1.212 . S
C1066 C570 1.241 . S
C1071 C446 1.042 . S
C1076 C606 1.066 . S
C1081 C415 3.017 . S
C1086 C530 2.986 . S
C1091 C579 1.241 . S
C1096 C46 1.212 . S
C1101 C135 1.050 . S
C1106 C615 1.075 . S
C1111 C299 2.985 . S
C1116 C406 3.017 . S
