# Generated by pormake.
# Topology kag, (6)-cn, num edge types: 1
# Building blocks:
#     Node 0, Type 0, BuildingBlock: BETGAK_clean_sbu_0, # of connection points: 6
#     Node 1, Type 0, BuildingBlock: BETGAK_clean_sbu_0, # of connection points: 6
#     Node 2, Type 0, BuildingBlock: BETGAK_clean_sbu_0, # of connection points: 6
#     Edge 3, Type (0, 0), BuildingBlock: XUDNAN_clean_linker_2, # of connection points: 2
#     Edge 4, Type (0, 0), BuildingBlock: XUDNAN_clean_linker_2, # of connection points: 2
#     Edge 5, Type (0, 0), BuildingBlock: XUDNAN_clean_linker_2, # of connection points: 2
#     Edge 6, Type (0, 0), BuildingBlock: XUDNAN_clean_linker_2, # of connection points: 2
#     Edge 7, Type (0, 0), BuildingBlock: XUDNAN_clean_linker_2, # of connection points: 2
#     Edge 8, Type (0, 0), BuildingBlock: XUDNAN_clean_linker_2, # of connection points: 2
#     Edge 9, Type (0, 0), BuildingBlock: XUDNAN_clean_linker_2, # of connection points: 2
#     Edge 10, Type (0, 0), BuildingBlock: XUDNAN_clean_linker_2, # of connection points: 2
#     Edge 11, Type (0, 0), BuildingBlock: XUDNAN_clean_linker_2, # of connection points: 2
# Relax obj value: 0.078
# Max RMSD: 0.194
# Mean RMSD: 0.103
data_MOF--net-kag--node1-BETGAK_clean_sbu_0--edge1-XUDNAN_clean_linker_2
_symmetry_space_group_name_H-M    P1
_symmetry_Int_Tables_number       1
_symmetry_cell_setting            triclinic
loop_
_symmetry_equiv_pos_as_xyz
'x, y, z'
_cell_length_a     31.687275
_cell_length_b     42.204036
_cell_length_c     14.686705
_cell_angle_alpha  95.393432
_cell_angle_beta   90.478245
_cell_angle_gamma 97.120587
loop_
_atom_site_label
_atom_site_type_symbol
_atom_site_fract_x
_atom_site_fract_y
_atom_site_fract_z
_atom_type_partial_charge
La0 La 1.0547 0.48172 1.00224 0.0
La1 La 0.06641 0.55443 0.9993 0.0
C2 C 1.0341 0.42503 0.04247 0.0
C3 C 0.9969 0.40039 0.03086 0.0
C4 C 0.95979 0.40587 0.98522 0.0
C5 C 0.92575 0.38133 0.97014 0.0
C6 C 0.92836 0.35089 1.00015 0.0
C7 C 0.96544 0.34585 0.0473 0.0
C8 C 0.99933 0.37039 0.06249 0.0
C9 C 0.06272 0.50284 0.83607 0.0
C10 C 0.97046 0.51922 0.99423 0.0
C11 C 0.08333 0.60882 0.94261 0.0
C12 C 0.11551 0.63681 0.96639 0.0
C13 C 0.12557 0.64818 0.05794 0.0
C14 C 0.15682 0.67433 0.07901 0.0
C15 C 0.17903 0.68947 1.00907 0.0
C16 C 0.16891 0.67788 0.91747 0.0
C17 C 0.13741 0.65186 0.89646 0.0
C18 C 0.07029 0.54029 0.17443 0.0
C19 C 0.14963 0.51763 0.01103 0.0
O20 O 1.05325 0.43226 0.96734 0.0
O21 O 1.03008 0.45057 0.09794 0.0
O22 O 0.07611 0.47683 0.85897 0.0
O23 O 1.04346 0.51453 0.90384 0.0
O24 O 0.98609 0.49148 1.00212 0.0
O25 O 0.99663 0.54603 0.98673 0.0
O26 O 1.05439 0.60226 1.00387 0.0
O27 O 0.09795 0.58302 0.90506 0.0
O28 O 0.07238 0.56885 0.14784 0.0
O29 O 0.06655 0.52168 0.10126 0.0
O30 O 0.1323 0.54292 0.98782 0.0
O31 O 0.12486 0.4913 0.03072 0.0
H32 H 0.95738 0.42889 0.96005 0.0
H33 H 0.89749 0.38616 0.93458 0.0
H34 H 0.96889 0.32262 0.0701 0.0
H35 H 1.02786 0.36571 0.09739 0.0
H36 H 0.10935 0.63687 0.11335 0.0
H37 H 0.16325 0.68286 0.15022 0.0
H38 H 0.18577 0.68856 0.86187 0.0
H39 H 0.1304 0.64328 0.82542 0.0
La40 La 0.60444 0.02659 1.00551 0.0
La41 La 0.5136 1.00957 0.01375 0.0
C42 C 0.67853 0.05084 0.96878 0.0
C43 C 0.69952 0.08354 0.9595 0.0
C44 C 0.73992 0.09325 0.99943 0.0
C45 C 0.76015 0.12433 0.99326 0.0
C46 C 0.74037 0.14636 0.9467 0.0
C47 C 0.69998 0.13638 0.90589 0.0
C48 C 0.6796 0.10538 0.91278 0.0
C49 C 0.57666 1.01706 0.17332 0.0
C50 C 0.54479 0.08308 0.02617 0.0
C51 C 0.43931 0.98658 0.05334 0.0
C52 C 0.41647 0.95441 0.0612 0.0
C53 C 0.37303 0.94833 0.03832 0.0
C54 C 0.35091 0.91774 0.04271 0.0
C55 C 0.37194 0.89253 0.06963 0.0
C56 C 0.41557 0.89883 0.09273 0.0
C57 C 0.43759 0.92949 0.08886 0.0
C58 C 0.5383 0.0232 0.84861 0.0
C59 C 0.57376 0.95322 0.9911 0.0
O60 O 0.66657 0.04499 0.05099 0.0
O61 O 0.64961 0.03878 0.9068 0.0
O62 O 0.61139 1.00789 0.13997 0.0
O63 O 0.55974 0.03138 0.1136 0.0
O64 O 0.58217 0.07435 1.00173 0.0
O65 O 0.51332 0.06122 0.04573 0.0
O66 O 0.45071 0.99268 0.97094 0.0
O67 O 0.46949 0.99694 0.11418 0.0
O68 O 0.50421 0.03088 0.88828 0.0
O69 O 0.5576 1.00696 0.90083 0.0
O70 O 0.53614 0.96179 0.01408 0.0
O71 O 0.60556 0.97517 0.97465 0.0
H72 H 0.75586 0.07676 0.03562 0.0
H73 H 0.79158 0.13091 0.02394 0.0
H74 H 0.68385 0.1526 0.8693 0.0
H75 H 0.64827 0.09857 0.88173 0.0
H76 H 0.35618 0.96729 0.01693 0.0
H77 H 0.31721 0.91396 0.02593 0.0
H78 H 0.43286 0.87996 0.11273 0.0
H79 H 0.4711 0.93366 0.10719 0.0
La80 La 0.56763 0.55313 0.01536 0.0
La81 La 0.55353 0.48283 1.00312 0.0
C82 C 0.56919 0.61291 1.0026 0.0
C83 C 0.57182 0.64852 0.99725 0.0
C84 C 0.60631 0.66921 0.03875 0.0
C85 C 0.60945 0.70256 0.03477 0.0
C86 C 0.57797 0.71664 0.99004 0.0
C87 C 0.54287 0.69604 0.95003 0.0
C88 C 0.54002 0.66243 0.95296 0.0
C89 C 0.56985 0.52851 0.17735 0.0
C90 C 0.47035 0.51782 0.01777 0.0
C91 C 0.55232 0.42333 0.01859 0.0
C92 C 0.5492 0.38769 0.02241 0.0
C93 C 0.52286 0.3669 0.95925 0.0
C94 C 0.51918 0.33346 0.96176 0.0
C95 C 0.54227 0.31953 0.02652 0.0
C96 C 0.56944 0.34026 0.08864 0.0
C97 C 0.57252 0.37393 0.08722 0.0
C98 C 0.54357 0.50633 0.84383 0.0
C99 C 0.64975 0.51909 0.99062 0.0
O100 O 0.59171 0.60074 0.06215 0.0
O101 O 0.54582 0.59113 0.9482 0.0
O102 O 0.59387 0.55349 0.15536 0.0
O103 O 0.54486 0.51902 0.11047 0.0
O104 O 0.49709 0.54398 1.00566 0.0
O105 O 0.48586 0.49044 0.02929 0.0
O106 O 0.54737 0.43549 0.94134 0.0
O107 O 0.55818 0.44495 0.08918 0.0
O108 O 0.52052 0.48219 0.87375 0.0
O109 O 0.57293 0.51688 0.90274 0.0
O110 O 0.62536 0.49306 0.01367 0.0
O111 O 0.63135 0.54432 0.97178 0.0
H112 H 0.63133 0.65957 0.07393 0.0
H113 H 0.63675 0.71746 0.06726 0.0
H114 H 0.51812 0.70584 0.9145 0.0
H115 H 0.51282 0.64732 0.92075 0.0
H116 H 0.50451 0.37654 0.90825 0.0
H117 H 0.4981 0.31839 0.91253 0.0
H118 H 0.58747 0.33048 0.13987 0.0
H119 H 0.5933 0.38921 0.13656 0.0
H120 H 0.09668 0.47588 0.67571 0.0
H121 H 1.02075 0.54998 0.7766 0.0
H122 H 1.01171 0.56419 0.61896 0.0
H123 H 0.15095 0.52098 0.50155 0.0
H124 H 0.15131 0.48666 0.41879 0.0
H125 H 0.15145 0.48159 0.53926 0.0
H126 H 0.08415 0.44009 0.51499 0.0
H127 H 0.08359 0.44524 0.39453 0.0
H128 H 1.03736 0.45115 0.46166 0.0
H129 H 1.01069 0.57104 0.45187 0.0
H130 H 1.02122 0.57284 0.28683 0.0
H131 H 0.09833 0.49473 0.28464 0.0
C132 C 0.07818 0.49511 0.66449 0.0
C133 C 0.05927 0.51175 0.73953 0.0
C134 C 1.03551 0.53682 0.72125 0.0
C135 C 1.03009 0.54501 0.63148 0.0
C136 C 1.04867 0.52807 0.55932 0.0
C137 C 0.07256 0.50379 0.57446 0.0
C138 C 0.08992 0.49017 0.48386 0.0
C139 C 0.13882 0.49515 0.48601 0.0
C140 C 0.07273 0.45454 0.46252 0.0
C141 C 0.07206 0.51059 0.41559 0.0
C142 C 1.04821 0.53214 0.46149 0.0
C143 C 1.02917 0.5542 0.41548 0.0
C144 C 1.03529 0.55493 0.3211 0.0
C145 C 0.0601 0.53373 0.27141 0.0
C146 C 0.07834 0.51082 0.3196 0.0
H147 H 0.60995 0.98861 0.31881 0.0
H148 H 0.5208 0.05397 0.25515 0.0
H149 H 0.5055 0.06347 0.41879 0.0
H150 H 0.54639 0.95352 0.50021 0.0
H151 H 0.59155 0.94955 0.57184 0.0
H152 H 0.5969 0.94802 0.44947 0.0
H153 H 0.65898 0.9942 0.47016 0.0
H154 H 0.65361 0.99602 0.59259 0.0
H155 H 0.65089 0.03146 0.53428 0.0
H156 H 0.50079 0.06782 0.58704 0.0
H157 H 0.50046 0.06278 0.75171 0.0
H158 H 0.5895 0.99238 0.71731 0.0
C159 C 0.58718 1.00486 0.33957 0.0
C160 C 0.56677 0.02074 0.27331 0.0
C161 C 0.53694 0.04158 0.30367 0.0
C162 C 0.52812 0.04723 0.39691 0.0
C163 C 0.54892 0.03163 0.46027 0.0
C164 C 0.5774 1.0105 0.43339 0.0
C165 C 0.59384 0.99619 0.51698 0.0
C166 C 0.58143 0.95965 0.50914 0.0
C167 C 0.64221 1.00499 0.5292 0.0
C168 C 0.57025 1.01275 0.59467 0.0
C169 C 0.54494 0.03328 0.55931 0.0
C170 C 0.5202 0.05163 0.6153 0.0
C171 C 0.52032 0.04854 0.70939 0.0
C172 C 0.54463 0.02703 0.74864 0.0
C173 C 0.5706 1.00912 0.69012 0.0
H174 H 0.60485 0.53674 0.7292 0.0
H175 H 0.47642 0.48708 0.73183 0.0
H176 H 0.47052 0.48693 0.56542 0.0
H177 H 0.58222 0.58726 0.54401 0.0
H178 H 0.63334 0.58546 0.49217 0.0
H179 H 0.62795 0.5829 0.61344 0.0
H180 H 0.66003 0.52924 0.59779 0.0
H181 H 0.66507 0.53147 0.47636 0.0
H182 H 0.63583 0.49665 0.51874 0.0
H183 H 0.47903 0.48731 0.39843 0.0
H184 H 0.49855 0.49507 0.23924 0.0
H185 H 0.6196 0.54766 0.33521 0.0
C186 C 0.57532 0.52641 0.69471 0.0
C187 C 0.54115 0.51169 0.74451 0.0
C188 C 0.50321 0.49826 0.69606 0.0
C189 C 0.49946 0.49797 0.60098 0.0
C190 C 0.53374 0.5116 0.55352 0.0
C191 C 0.57073 0.52618 0.59823 0.0
C192 C 0.60228 0.53921 0.52853 0.0
C193 C 0.61202 0.57589 0.54556 0.0
C194 C 0.64323 0.52318 0.53051 0.0
C195 C 0.5773 0.52925 0.43866 0.0
C196 C 0.53799 0.51306 0.45539 0.0
C197 C 0.50953 0.50033 0.38442 0.0
C198 C 0.521 0.50472 0.29389 0.0
C199 C 0.56044 0.52212 0.27413 0.0
C200 C 0.58908 0.5344 0.34794 0.0
H201 H 0.20822 0.47083 0.02516 0.0
H202 H 0.20394 0.57263 1.00727 0.0
H203 H 0.28152 0.58181 1.00909 0.0
H204 H 0.30394 0.48101 0.1768 0.0
H205 H 0.32671 0.44723 0.12202 0.0
H206 H 0.26981 0.44729 0.121 0.0
H207 H 0.26807 0.43777 0.94464 0.0
H208 H 0.32496 0.4377 0.94516 0.0
H209 H 0.30098 0.46498 0.87939 0.0
H210 H 0.35961 0.58188 1.01043 0.0
H211 H 0.43422 0.57281 0.01129 0.0
H212 H 0.39631 0.47098 0.02809 0.0
C213 C 0.22359 0.49507 0.02213 0.0
C214 C 0.19846 0.52093 0.01582 0.0
C215 C 0.22098 0.55209 0.01159 0.0
C216 C 0.26568 0.55773 0.01276 0.0
C217 C 0.28917 0.53214 0.01816 0.0
C218 C 0.26926 0.50133 0.02287 0.0
C219 C 0.30356 0.47851 0.02718 0.0
C220 C 0.30083 0.46255 0.1171 0.0
C221 C 0.29912 0.45323 0.94415 0.0
C222 C 0.34534 0.50139 0.02389 0.0
C223 C 0.33558 0.53218 0.01884 0.0
C224 C 0.36752 0.55783 0.01447 0.0
C225 C 0.4104 0.55226 0.01496 0.0
C226 C 0.42262 0.52113 0.0198 0.0
C227 C 0.38894 0.4952 0.02461 0.0
H228 H 0.78845 0.18561 0.07922 0.0
H229 H 0.74196 0.18198 0.79901 0.0
H230 H 0.7803 0.23592 0.78644 0.0
H231 H 0.7859 0.27131 0.13896 0.0
H232 H 0.83429 0.27581 0.20689 0.0
H233 H 0.80015 0.23813 0.19642 0.0
H234 H 0.86332 0.20883 0.13785 0.0
H235 H 0.89763 0.24636 0.14814 0.0
H236 H 0.89221 0.22198 0.04014 0.0
H237 H 0.82787 0.28871 0.80089 0.0
H238 H 0.88156 0.33568 0.84046 0.0
H239 H 0.8972 0.30463 0.11094 0.0
C240 C 0.78625 0.19609 0.01511 0.0
C241 C 0.76205 0.17944 0.94013 0.0
C242 C 0.7597 0.19435 0.85795 0.0
C243 C 0.78153 0.22497 0.84999 0.0
C244 C 0.80551 0.24046 0.92486 0.0
C245 C 0.80791 0.22655 1.00591 0.0
C246 C 0.83742 0.24757 0.07476 0.0
C247 C 0.81297 0.25888 0.15925 0.0
C248 C 0.87486 0.23014 0.10176 0.0
C249 C 0.85207 0.27515 0.01901 0.0
C250 C 0.83297 0.27078 0.93309 0.0
C251 C 0.84266 0.29256 0.86837 0.0
C252 C 0.87305 0.31929 0.89171 0.0
C253 C 0.8936 0.32398 0.97894 0.0
C254 C 0.88235 0.3017 0.04351 0.0
H255 H 0.51681 0.89883 0.02034 0.0
H256 H 0.64722 0.92799 0.94592 0.0
H257 H 0.66102 0.87167 0.93542 0.0
H258 H 0.54138 0.83571 0.15979 0.0
H259 H 0.49357 0.80949 0.12467 0.0
H260 H 0.49449 0.85233 0.12714 0.0
H261 H 0.4695 0.84489 0.95676 0.0
H262 H 0.46997 0.80216 0.95421 0.0
H263 H 0.50059 0.82447 0.87312 0.0
H264 H 0.66211 0.8123 0.93586 0.0
H265 H 0.65005 0.75389 0.94494 0.0
H266 H 0.51876 0.76078 0.01702 0.0
C267 C 0.54827 0.89344 1.00178 0.0
C268 C 0.58089 0.91839 0.98402 0.0
C269 C 0.62153 0.90979 0.95989 0.0
C270 C 0.62977 0.87767 0.95372 0.0
C271 C 0.59716 0.85384 0.97176 0.0
C272 C 0.55716 0.86121 0.99535 0.0
C273 C 0.52804 0.83072 0.01207 0.0
C274 C 0.5135 0.83215 0.11182 0.0
C275 C 0.48976 0.82524 0.94502 0.0
C276 C 0.55781 0.80513 0.9931 0.0
C277 C 0.59762 0.81923 0.97076 0.0
C278 C 0.63103 0.80105 0.95314 0.0
C279 C 0.62388 0.76775 0.95894 0.0
C280 C 0.58352 0.75235 0.98187 0.0
C281 C 0.54991 0.77154 0.99837 0.0
H282 H 0.89684 0.4743 0.02714 0.0
H283 H 0.93348 0.57015 0.94586 0.0
H284 H 0.85875 0.57825 0.93558 0.0
H285 H 0.79971 0.45658 0.87995 0.0
H286 H 0.76805 0.43568 0.9623 0.0
H287 H 0.825 0.43584 0.96291 0.0
H288 H 0.82911 0.45871 0.13248 0.0
H289 H 0.7722 0.45865 0.13241 0.0
H290 H 0.80673 0.4952 0.16604 0.0
H291 H 0.78076 0.57806 0.93336 0.0
H292 H 0.70331 0.56986 0.94166 0.0
H293 H 0.70871 0.47445 0.02628 0.0
C294 C 0.88915 0.49694 1.00684 0.0
C295 C 0.92255 0.52156 0.98757 0.0
C296 C 0.90991 0.5507 0.96167 0.0
C297 C 0.86695 0.55567 0.95529 0.0
C298 C 0.8353 0.53144 0.97497 0.0
C299 C 0.84542 0.50256 1.00038 0.0
C300 C 0.80385 0.48109 0.01855 0.0
C301 C 0.79887 0.45047 0.95198 0.0
C302 C 0.80293 0.47292 0.11832 0.0
C303 C 0.76934 0.50259 0.99977 0.0
C304 C 0.78891 0.53143 0.97435 0.0
C305 C 0.76517 0.55554 0.95323 0.0
C306 C 0.72056 0.5505 0.95826 0.0
C307 C 0.69842 0.52147 0.98464 0.0
C308 C 0.72379 0.49701 1.00559 0.0
H309 H 0.19623 0.74381 0.91879 0.0
H310 H 0.238 0.69799 0.15046 0.0
H311 H 0.29225 0.74453 0.19025 0.0
H312 H 0.30193 0.778 0.85647 0.0
H313 H 0.28381 0.81412 0.82298 0.0
H314 H 0.24843 0.77705 0.81261 0.0
H315 H 0.1933 0.8043 0.91171 0.0
H316 H 0.22858 0.84139 0.92276 0.0
H317 H 0.20904 0.82364 0.02366 0.0
H318 H 0.34099 0.79673 0.20689 0.0
H319 H 0.38074 0.85044 0.19842 0.0
H320 H 0.30948 0.86076 0.9513 0.0
C321 C 0.2171 0.74328 0.9772 0.0
C322 C 0.21256 0.71718 0.03167 0.0
C323 C 0.24023 0.71786 0.10847 0.0
C324 C 0.27141 0.7441 0.13128 0.0
C325 C 0.27481 0.76942 0.07632 0.0
C326 C 0.24856 0.76915 1.00061 0.0
C327 C 0.25864 0.79944 0.95309 0.0
C328 C 0.27413 0.79168 0.85551 0.0
C329 C 0.22009 0.8183 0.95285 0.0
C330 C 0.29428 0.817 0.01467 0.0
C331 C 0.30324 0.79925 0.08517 0.0
C332 C 0.33448 0.81074 0.15153 0.0
C333 C 0.35707 0.84123 0.1458 0.0
C334 C 0.34839 0.85993 0.07412 0.0
C335 C 0.31663 0.84736 1.00762 0.0
H336 H 0.60264 0.2766 0.03452 0.0
H337 H 0.46664 0.28101 0.0286 0.0
H338 H 0.4534 0.22227 0.03142 0.0
H339 H 0.59899 0.20299 0.885 0.0
H340 H 0.64085 0.18799 0.94559 0.0
H341 H 0.63975 0.23054 0.94689 0.0
H342 H 0.64131 0.23518 0.12402 0.0
H343 H 0.64197 0.19247 0.12188 0.0
H344 H 0.6012 0.2113 0.18317 0.0
H345 H 0.4541 0.16299 0.03571 0.0
H346 H 0.46844 0.10689 0.03292 0.0
H347 H 0.6041 0.13829 0.02763 0.0
C348 C 0.57011 0.26518 0.03473 0.0
C349 C 0.53563 0.28371 0.03147 0.0
C350 C 0.49359 0.26758 0.03051 0.0
C351 C 0.48573 0.23412 0.03247 0.0
C352 C 0.52018 0.21657 0.03465 0.0
C353 C 0.5616 0.23142 0.03529 0.0
C354 C 0.59263 0.20643 0.03402 0.0
C355 C 0.61963 0.20704 0.94765 0.0
C356 C 0.62095 0.21166 0.12096 0.0
C357 C 0.56218 0.17532 0.03233 0.0
C358 C 0.52055 0.18195 0.03382 0.0
C359 C 0.48659 0.15755 0.03429 0.0
C360 C 0.49513 0.12559 0.0329 0.0
C361 C 0.53738 0.11774 0.02997 0.0
C362 C 0.57137 0.14322 0.02952 0.0
loop_
_geom_bond_atom_site_label_1
_geom_bond_atom_site_label_2
_geom_bond_distance
_geom_bond_site_symmetry_2
_ccdc_geom_bond_type
La0 C2 2.928 . S
La0 O20 2.521 . S
La0 O21 2.628 1_556 S
La0 O22 2.554 . S
La0 O23 2.757 1_655 S
La0 O24 2.470 . S
La0 O29 2.482 1_556 S
La0 O31 2.503 1_655 S
La1 C11 2.928 . S
La1 O23 2.482 1_554 S
La1 O25 2.503 1_455 S
La1 O26 2.521 . S
La1 O27 2.628 1_554 S
La1 O28 2.554 . S
La1 O29 2.757 1_455 S
La1 O30 2.470 . S
C2 La0 2.928 . S
C2 C3 1.503 . S
C2 O20 1.261 . S
C2 O21 1.243 1_556 S
C3 C2 1.503 . S
C3 C4 1.394 . S
C3 C8 1.373 1_556 S
C4 C3 1.394 . S
C4 C5 1.380 . S
C4 H32 0.930 . S
C5 C4 1.380 . S
C5 C6 1.376 . S
C5 H33 0.930 . S
C6 C5 1.376 . S
C6 C7 1.370 1_556 S
C7 C6 1.370 1_554 S
C7 C8 1.396 . S
C7 H34 0.929 . S
C8 C3 1.373 1_554 S
C8 C7 1.396 . S
C8 H35 0.929 . S
C9 O22 1.240 1_455 S
C9 O23 1.289 . S
C10 O24 1.258 . S
C10 O25 1.256 1_556 S
C11 La1 2.928 . S
C11 C12 1.503 . S
C11 O26 1.261 . S
C11 O27 1.243 1_554 S
C12 C11 1.503 . S
C12 C13 1.394 . S
C12 C17 1.373 1_554 S
C13 C12 1.394 . S
C13 C14 1.380 . S
C13 H36 0.930 . S
C14 C13 1.380 . S
C14 C15 1.376 . S
C14 H37 0.930 . S
C15 C14 1.376 . S
C15 C16 1.370 1_554 S
C16 C15 1.370 1_556 S
C16 C17 1.396 . S
C16 H38 0.929 . S
C17 C12 1.373 1_556 S
C17 C16 1.396 . S
C17 H39 0.929 . S
C18 O28 1.240 . S
C18 O29 1.289 1_455 S
C19 O30 1.258 . S
C19 O31 1.256 1_554 S
O20 La0 2.521 . S
O20 C2 1.261 . S
O21 La0 2.628 1_554 S
O21 C2 1.243 1_554 S
O22 La0 2.554 . S
O22 C9 1.240 1_655 S
O23 La0 2.757 1_455 S
O23 La1 2.482 1_556 S
O23 C9 1.289 . S
O24 La0 2.470 . S
O24 C10 1.258 . S
O25 La1 2.503 1_655 S
O25 C10 1.256 1_554 S
O26 La1 2.521 . S
O26 C11 1.261 . S
O27 La1 2.628 1_556 S
O27 C11 1.243 1_556 S
O28 La1 2.554 . S
O28 C18 1.240 . S
O29 La0 2.482 1_554 S
O29 La1 2.757 1_655 S
O29 C18 1.289 1_655 S
O30 La1 2.470 . S
O30 C19 1.258 . S
O31 La0 2.503 1_455 S
O31 C19 1.256 1_556 S
H32 C4 0.930 . S
H33 C5 0.930 . S
H34 C7 0.929 . S
H35 C8 0.929 . S
H36 C13 0.930 . S
H37 C14 0.930 . S
H38 C16 0.929 . S
H39 C17 0.929 . S
La40 C42 2.926 1_554 S
La40 O60 2.521 . S
La40 O61 2.628 1_554 S
La40 O62 2.554 . S
La40 O63 2.757 1_545 S
La40 O64 2.470 . S
La40 O69 2.482 1_554 S
La40 O71 2.503 1_544 S
La41 C51 2.928 1_556 S
La41 O63 2.482 1_556 S
La41 O65 2.503 1_566 S
La41 O66 2.521 . S
La41 O67 2.628 1_556 S
La41 O68 2.554 . S
La41 O69 2.757 1_565 S
La41 O70 2.470 . S
C42 La40 2.926 1_556 S
C42 C43 1.504 . S
C42 O60 1.252 1_556 S
C42 O61 1.251 . S
C43 C42 1.504 . S
C43 C44 1.394 1_556 S
C43 C48 1.373 . S
C44 C43 1.394 1_554 S
C44 C45 1.380 . S
C44 H72 0.930 . S
C45 C44 1.380 . S
C45 C46 1.376 1_554 S
C45 H73 0.930 . S
C46 C45 1.376 1_556 S
C46 C47 1.370 . S
C47 C46 1.370 . S
C47 C48 1.396 . S
C47 H74 0.929 . S
C48 C43 1.373 . S
C48 C47 1.396 . S
C48 H75 0.929 . S
C49 O62 1.240 . S
C49 O63 1.289 1_545 S
C50 O64 1.258 . S
C50 O65 1.256 . S
C51 La41 2.928 1_554 S
C51 C52 1.503 . S
C51 O66 1.261 1_554 S
C51 O67 1.243 . S
C52 C51 1.503 . S
C52 C53 1.394 1_554 S
C52 C57 1.373 . S
C53 C52 1.394 1_556 S
C53 C54 1.380 . S
C53 H76 0.930 . S
C54 C53 1.380 . S
C54 C55 1.376 1_556 S
C54 H77 0.930 . S
C55 C54 1.376 1_554 S
C55 C56 1.370 . S
C56 C55 1.370 . S
C56 C57 1.396 . S
C56 H78 0.929 . S
C57 C52 1.373 . S
C57 C56 1.396 . S
C57 H79 0.929 . S
C58 O68 1.240 . S
C58 O69 1.289 1_565 S
C59 O70 1.258 . S
C59 O71 1.256 . S
O60 La40 2.521 . S
O60 C42 1.252 1_554 S
O61 La40 2.628 1_556 S
O61 C42 1.251 . S
O62 La40 2.554 . S
O62 C49 1.240 . S
O63 La40 2.757 1_565 S
O63 La41 2.482 1_554 S
O63 C49 1.289 1_565 S
O64 La40 2.470 . S
O64 C50 1.258 . S
O65 La41 2.503 1_544 S
O65 C50 1.256 . S
O66 La41 2.521 . S
O66 C51 1.261 1_556 S
O67 La41 2.628 1_554 S
O67 C51 1.243 . S
O68 La41 2.554 . S
O68 C58 1.240 . S
O69 La40 2.482 1_556 S
O69 La41 2.757 1_545 S
O69 C58 1.289 1_545 S
O70 La41 2.470 . S
O70 C59 1.258 . S
O71 La40 2.503 1_566 S
O71 C59 1.256 . S
H72 C44 0.930 . S
H73 C45 0.930 . S
H74 C47 0.929 . S
H75 C48 0.929 . S
H76 C53 0.930 . S
H77 C54 0.930 . S
H78 C56 0.929 . S
H79 C57 0.929 . S
La80 C82 2.928 . S
La80 O100 2.521 . S
La80 O101 2.628 1_554 S
La80 O102 2.554 . S
La80 O103 2.757 . S
La80 O104 2.470 . S
La80 O109 2.482 1_554 S
La80 O111 2.503 . S
La81 C91 2.928 . S
La81 O103 2.482 1_556 S
La81 O105 2.503 . S
La81 O106 2.521 . S
La81 O107 2.628 1_556 S
La81 O108 2.554 . S
La81 O109 2.757 . S
La81 O110 2.470 . S
C82 La80 2.928 . S
C82 C83 1.503 . S
C82 O100 1.261 . S
C82 O101 1.243 1_554 S
C83 C82 1.503 . S
C83 C84 1.394 . S
C83 C88 1.373 1_554 S
C84 C83 1.394 . S
C84 C85 1.380 . S
C84 H112 0.930 . S
C85 C84 1.380 . S
C85 C86 1.381 . S
C85 H113 0.930 . S
C86 C85 1.381 . S
C86 C87 1.366 1_554 S
C87 C86 1.366 1_556 S
C87 C88 1.396 . S
C87 H114 0.929 . S
C88 C83 1.373 1_556 S
C88 C87 1.396 . S
C88 H115 0.929 . S
C89 O102 1.240 . S
C89 O103 1.289 . S
C90 O104 1.258 . S
C90 O105 1.256 1_554 S
C91 La81 2.928 . S
C91 C92 1.503 . S
C91 O106 1.261 . S
C91 O107 1.243 1_556 S
C92 C91 1.503 . S
C92 C93 1.394 . S
C92 C97 1.373 1_556 S
C93 C92 1.394 . S
C93 C94 1.380 . S
C93 H116 0.930 . S
C94 C93 1.380 . S
C94 C95 1.375 . S
C94 H117 0.930 . S
C95 C94 1.375 . S
C95 C96 1.371 1_556 S
C96 C95 1.371 1_554 S
C96 C97 1.396 . S
C96 H118 0.929 . S
C97 C92 1.373 1_554 S
C97 C96 1.396 . S
C97 H119 0.929 . S
C98 O108 1.240 . S
C98 O109 1.289 . S
C99 O110 1.258 . S
C99 O111 1.256 1_556 S
O100 La80 2.521 . S
O100 C82 1.261 . S
O101 La80 2.628 1_556 S
O101 C82 1.243 1_556 S
O102 La80 2.554 . S
O102 C89 1.240 . S
O103 La80 2.757 . S
O103 La81 2.482 1_554 S
O103 C89 1.289 . S
O104 La80 2.470 . S
O104 C90 1.258 . S
O105 La81 2.503 . S
O105 C90 1.256 1_556 S
O106 La81 2.521 . S
O106 C91 1.261 . S
O107 La81 2.628 1_554 S
O107 C91 1.243 1_554 S
O108 La81 2.554 . S
O108 C98 1.240 . S
O109 La80 2.482 1_556 S
O109 La81 2.757 . S
O109 C98 1.289 . S
O110 La81 2.470 . S
O110 C99 1.258 . S
O111 La80 2.503 . S
O111 C99 1.256 1_554 S
H112 C84 0.930 . S
H113 C85 0.930 . S
H114 C87 0.929 . S
H115 C88 0.929 . S
H116 C93 0.930 . S
H117 C94 0.930 . S
H118 C96 0.929 . S
H119 C97 0.929 . S
H120 C132 0.930 . S
H121 C134 0.930 . S
H122 C135 0.930 . S
H123 C139 0.959 . S
H124 C139 0.959 . S
H125 C139 0.961 . S
H126 C140 0.960 . S
H127 C140 0.961 . S
H128 C140 0.959 . S
H129 C143 0.929 . S
H130 C144 0.931 . S
H131 C146 0.928 1_455 S
C132 H120 0.930 . S
C132 C133 1.399 . S
C132 C137 1.398 1_455 S
C133 C132 1.399 . S
C133 C134 1.376 1_455 S
C134 H121 0.930 . S
C134 C133 1.376 1_655 S
C134 C135 1.388 . S
C135 H122 0.930 . S
C135 C134 1.388 . S
C135 C136 1.390 . S
C136 C135 1.390 . S
C136 C137 1.395 . S
C136 C142 1.465 . S
C137 C132 1.398 1_655 S
C137 C136 1.395 . S
C137 C138 1.516 . S
C138 C137 1.516 . S
C138 C139 1.502 1_655 S
C138 C140 1.561 . S
C138 C141 1.526 . S
C139 H123 0.959 . S
C139 H124 0.959 . S
C139 H125 0.961 . S
C139 C138 1.502 1_455 S
C140 H126 0.960 . S
C140 H127 0.961 . S
C140 H128 0.959 . S
C140 C138 1.561 . S
C141 C138 1.526 . S
C141 C142 1.396 . S
C141 C146 1.390 . S
C142 C136 1.465 . S
C142 C141 1.396 . S
C142 C143 1.399 . S
C143 H129 0.929 . S
C143 C142 1.399 . S
C143 C144 1.385 . S
C144 H130 0.931 . S
C144 C143 1.385 . S
C144 C145 1.390 . S
C145 C144 1.390 . S
C145 C146 1.387 . S
C146 H131 0.928 1_655 S
C146 C141 1.390 . S
C146 C145 1.387 . S
H147 C159 0.930 . S
H148 C161 0.930 . S
H149 C162 0.930 . S
H150 C166 0.959 . S
H151 C166 0.959 . S
H152 C166 0.961 . S
H153 C167 0.960 . S
H154 C167 0.961 . S
H155 C167 0.959 . S
H156 C170 0.929 . S
H157 C171 0.931 . S
H158 C173 0.930 . S
C159 H147 0.930 . S
C159 C160 1.399 1_565 S
C159 C164 1.399 . S
C160 C159 1.399 1_545 S
C160 C161 1.376 . S
C161 H148 0.930 . S
C161 C160 1.376 . S
C161 C162 1.388 . S
C162 H149 0.930 . S
C162 C161 1.388 . S
C162 C163 1.390 . S
C163 C162 1.390 . S
C163 C164 1.394 1_545 S
C163 C169 1.465 . S
C164 C159 1.399 . S
C164 C163 1.394 1_565 S
C164 C165 1.516 . S
C165 C164 1.516 . S
C165 C166 1.502 . S
C165 C167 1.561 . S
C165 C168 1.526 . S
C166 H150 0.959 . S
C166 H151 0.959 . S
C166 H152 0.961 . S
C166 C165 1.502 . S
C167 H153 0.960 . S
C167 H154 0.961 . S
C167 H155 0.959 . S
C167 C165 1.561 . S
C168 C165 1.526 . S
C168 C169 1.396 1_565 S
C168 C173 1.390 . S
C169 C163 1.465 . S
C169 C168 1.396 1_545 S
C169 C170 1.399 . S
C170 H156 0.929 . S
C170 C169 1.399 . S
C170 C171 1.385 . S
C171 H157 0.931 . S
C171 C170 1.385 . S
C171 C172 1.389 . S
C172 C171 1.389 . S
C172 C173 1.387 1_545 S
C173 H158 0.930 . S
C173 C168 1.390 . S
C173 C172 1.387 1_565 S
H174 C186 0.930 . S
H175 C188 0.930 . S
H176 C189 0.930 . S
H177 C193 0.959 . S
H178 C193 0.959 . S
H179 C193 0.961 . S
H180 C194 0.960 . S
H181 C194 0.961 . S
H182 C194 0.959 . S
H183 C197 0.929 . S
H184 C198 0.931 . S
H185 C200 0.930 . S
C186 H174 0.930 . S
C186 C187 1.399 . S
C186 C191 1.399 . S
C187 C186 1.399 . S
C187 C188 1.376 . S
C188 H175 0.930 . S
C188 C187 1.376 . S
C188 C189 1.388 . S
C189 H176 0.930 . S
C189 C188 1.388 . S
C189 C190 1.390 . S
C190 C189 1.390 . S
C190 C191 1.394 . S
C190 C196 1.465 . S
C191 C186 1.399 . S
C191 C190 1.394 . S
C191 C192 1.516 . S
C192 C191 1.516 . S
C192 C193 1.502 . S
C192 C194 1.561 . S
C192 C195 1.526 . S
C193 H177 0.959 . S
C193 H178 0.959 . S
C193 H179 0.961 . S
C193 C192 1.502 . S
C194 H180 0.960 . S
C194 H181 0.961 . S
C194 H182 0.959 . S
C194 C192 1.561 . S
C195 C192 1.526 . S
C195 C196 1.396 . S
C195 C200 1.390 . S
C196 C190 1.465 . S
C196 C195 1.396 . S
C196 C197 1.399 . S
C197 H183 0.929 . S
C197 C196 1.399 . S
C197 C198 1.385 . S
C198 H184 0.931 . S
C198 C197 1.385 . S
C198 C199 1.389 . S
C199 C198 1.389 . S
C199 C200 1.387 . S
C200 H185 0.930 . S
C200 C195 1.390 . S
C200 C199 1.387 . S
H201 C213 0.930 . S
H202 C215 0.930 . S
H203 C216 0.930 . S
H204 C220 0.959 1_554 S
H205 C220 0.959 . S
H206 C220 0.961 . S
H207 C221 0.960 . S
H208 C221 0.961 . S
H209 C221 0.959 . S
H210 C224 0.929 . S
H211 C225 0.931 . S
H212 C227 0.930 . S
C213 H201 0.930 . S
C213 C214 1.399 . S
C213 C218 1.399 . S
C214 C213 1.399 . S
C214 C215 1.376 1_556 S
C215 H202 0.930 . S
C215 C214 1.376 1_554 S
C215 C216 1.388 . S
C216 H203 0.930 . S
C216 C215 1.388 . S
C216 C217 1.390 . S
C217 C216 1.390 . S
C217 C218 1.394 1_554 S
C217 C223 1.465 . S
C218 C213 1.399 . S
C218 C217 1.394 1_556 S
C218 C219 1.516 . S
C219 C218 1.516 . S
C219 C220 1.502 . S
C219 C221 1.561 . S
C219 C222 1.526 . S
C220 H204 0.959 1_556 S
C220 H205 0.959 . S
C220 H206 0.961 . S
C220 C219 1.502 . S
C221 H207 0.960 . S
C221 H208 0.961 . S
C221 H209 0.959 . S
C221 C219 1.561 . S
C222 C219 1.526 . S
C222 C223 1.396 1_556 S
C222 C227 1.390 . S
C223 C217 1.465 . S
C223 C222 1.396 1_554 S
C223 C224 1.399 . S
C224 H210 0.929 . S
C224 C223 1.399 . S
C224 C225 1.385 . S
C225 H211 0.931 . S
C225 C224 1.385 . S
C225 C226 1.389 1_554 S
C226 C225 1.389 1_556 S
C226 C227 1.387 . S
C227 H212 0.930 . S
C227 C222 1.390 . S
C227 C226 1.387 . S
H228 C240 0.930 . S
H229 C242 0.930 . S
H230 C243 0.930 . S
H231 C247 0.959 . S
H232 C247 0.959 . S
H233 C247 0.961 . S
H234 C248 0.960 . S
H235 C248 0.961 . S
H236 C248 0.959 . S
H237 C251 0.929 . S
H238 C252 0.931 . S
H239 C254 0.930 . S
C240 H228 0.930 . S
C240 C241 1.399 1_554 S
C240 C245 1.399 . S
C241 C240 1.399 1_556 S
C241 C242 1.376 . S
C242 H229 0.930 . S
C242 C241 1.376 . S
C242 C243 1.388 . S
C243 H230 0.930 . S
C243 C242 1.388 . S
C243 C244 1.390 . S
C244 C243 1.390 . S
C244 C245 1.394 1_556 S
C244 C250 1.465 . S
C245 C240 1.399 . S
C245 C244 1.394 1_554 S
C245 C246 1.516 . S
C246 C245 1.516 . S
C246 C247 1.502 . S
C246 C248 1.561 . S
C246 C249 1.526 . S
C247 H231 0.959 . S
C247 H232 0.959 . S
C247 H233 0.961 . S
C247 C246 1.502 . S
C248 H234 0.960 . S
C248 H235 0.961 . S
C248 H236 0.959 . S
C248 C246 1.561 . S
C249 C246 1.526 . S
C249 C250 1.396 1_554 S
C249 C254 1.390 . S
C250 C244 1.465 . S
C250 C249 1.396 1_556 S
C250 C251 1.399 . S
C251 H237 0.929 . S
C251 C250 1.399 . S
C251 C252 1.385 . S
C252 H238 0.931 . S
C252 C251 1.385 . S
C252 C253 1.389 . S
C253 C252 1.389 . S
C253 C254 1.387 1_556 S
C254 H239 0.930 . S
C254 C249 1.390 . S
C254 C253 1.387 1_554 S
H255 C267 0.930 . S
H256 C269 0.930 . S
H257 C270 0.930 . S
H258 C274 0.959 . S
H259 C274 0.959 . S
H260 C274 0.961 . S
H261 C275 0.960 . S
H262 C275 0.961 . S
H263 C275 0.959 . S
H264 C278 0.929 . S
H265 C279 0.931 . S
H266 C281 0.930 . S
C267 H255 0.930 . S
C267 C268 1.399 1_556 S
C267 C272 1.399 . S
C268 C267 1.399 1_554 S
C268 C269 1.376 . S
C269 H256 0.930 . S
C269 C268 1.376 . S
C269 C270 1.388 . S
C270 H257 0.930 . S
C270 C269 1.388 . S
C270 C271 1.390 . S
C271 C270 1.390 . S
C271 C272 1.394 1_554 S
C271 C277 1.465 . S
C272 C267 1.399 . S
C272 C271 1.394 1_556 S
C272 C273 1.516 . S
C273 C272 1.516 . S
C273 C274 1.502 . S
C273 C275 1.561 . S
C273 C276 1.526 . S
C274 H258 0.959 . S
C274 H259 0.959 . S
C274 H260 0.961 . S
C274 C273 1.502 . S
C275 H261 0.960 . S
C275 H262 0.961 . S
C275 H263 0.959 . S
C275 C273 1.561 . S
C276 C273 1.526 . S
C276 C277 1.396 1_556 S
C276 C281 1.390 . S
C277 C271 1.465 . S
C277 C276 1.396 1_554 S
C277 C278 1.399 . S
C278 H264 0.929 . S
C278 C277 1.399 . S
C278 C279 1.385 . S
C279 H265 0.931 . S
C279 C278 1.385 . S
C279 C280 1.389 . S
C280 C279 1.389 . S
C280 C281 1.387 1_554 S
C281 H266 0.930 . S
C281 C276 1.390 . S
C281 C280 1.387 1_556 S
H282 C294 0.930 . S
H283 C296 0.930 . S
H284 C297 0.930 . S
H285 C301 0.959 . S
H286 C301 0.959 . S
H287 C301 0.961 . S
H288 C302 0.960 . S
H289 C302 0.961 . S
H290 C302 0.959 . S
H291 C305 0.929 . S
H292 C306 0.931 . S
H293 C308 0.930 . S
C294 H282 0.930 . S
C294 C295 1.399 1_556 S
C294 C299 1.399 . S
C295 C294 1.399 1_554 S
C295 C296 1.376 . S
C296 H283 0.930 . S
C296 C295 1.376 . S
C296 C297 1.388 . S
C297 H284 0.930 . S
C297 C296 1.388 . S
C297 C298 1.390 . S
C298 C297 1.390 . S
C298 C299 1.394 1_554 S
C298 C304 1.465 . S
C299 C294 1.399 . S
C299 C298 1.394 1_556 S
C299 C300 1.516 . S
C300 C299 1.516 . S
C300 C301 1.502 . S
C300 C302 1.561 . S
C300 C303 1.526 . S
C301 H285 0.959 . S
C301 H286 0.959 . S
C301 H287 0.961 . S
C301 C300 1.502 . S
C302 H288 0.960 . S
C302 H289 0.961 . S
C302 H290 0.959 . S
C302 C300 1.561 . S
C303 C300 1.526 . S
C303 C304 1.396 1_556 S
C303 C308 1.390 . S
C304 C298 1.465 . S
C304 C303 1.396 1_554 S
C304 C305 1.399 . S
C305 H291 0.929 . S
C305 C304 1.399 . S
C305 C306 1.385 . S
C306 H292 0.931 . S
C306 C305 1.385 . S
C306 C307 1.389 . S
C307 C306 1.389 . S
C307 C308 1.387 1_554 S
C308 H293 0.930 . S
C308 C303 1.390 . S
C308 C307 1.387 1_556 S
H309 C321 0.930 . S
H310 C323 0.930 . S
H311 C324 0.930 . S
H312 C328 0.959 . S
H313 C328 0.959 . S
H314 C328 0.961 . S
H315 C329 0.960 . S
H316 C329 0.961 . S
H317 C329 0.959 . S
H318 C332 0.929 . S
H319 C333 0.931 . S
H320 C335 0.930 . S
C321 H309 0.930 . S
C321 C322 1.399 1_556 S
C321 C326 1.399 . S
C322 C321 1.399 1_554 S
C322 C323 1.376 . S
C323 H310 0.930 . S
C323 C322 1.376 . S
C323 C324 1.388 . S
C324 H311 0.930 . S
C324 C323 1.388 . S
C324 C325 1.390 . S
C325 C324 1.390 . S
C325 C326 1.394 1_554 S
C325 C331 1.465 . S
C326 C321 1.399 . S
C326 C325 1.394 1_556 S
C326 C327 1.516 . S
C327 C326 1.516 . S
C327 C328 1.502 . S
C327 C329 1.561 . S
C327 C330 1.526 . S
C328 H312 0.959 . S
C328 H313 0.959 . S
C328 H314 0.961 . S
C328 C327 1.502 . S
C329 H315 0.960 . S
C329 H316 0.961 . S
C329 H317 0.959 . S
C329 C327 1.561 . S
C330 C327 1.526 . S
C330 C331 1.396 1_556 S
C330 C335 1.390 . S
C331 C325 1.465 . S
C331 C330 1.396 1_554 S
C331 C332 1.399 . S
C332 H318 0.929 . S
C332 C331 1.399 . S
C332 C333 1.385 . S
C333 H319 0.931 . S
C333 C332 1.385 . S
C333 C334 1.389 . S
C334 C333 1.389 . S
C334 C335 1.387 1_554 S
C335 H320 0.930 . S
C335 C330 1.390 . S
C335 C334 1.387 1_556 S
H336 C348 0.930 . S
H337 C350 0.930 . S
H338 C351 0.930 . S
H339 C355 0.959 . S
H340 C355 0.959 . S
H341 C355 0.961 . S
H342 C356 0.960 . S
H343 C356 0.961 . S
H344 C356 0.959 . S
H345 C359 0.929 . S
H346 C360 0.931 . S
H347 C362 0.930 . S
C348 H336 0.930 . S
C348 C349 1.399 1_554 S
C348 C353 1.399 . S
C349 C348 1.399 1_556 S
C349 C350 1.376 . S
C350 H337 0.930 . S
C350 C349 1.376 . S
C350 C351 1.388 . S
C351 H338 0.930 . S
C351 C350 1.388 . S
C351 C352 1.390 . S
C352 C351 1.390 . S
C352 C353 1.394 1_556 S
C352 C358 1.465 . S
C353 C348 1.399 . S
C353 C352 1.394 1_554 S
C353 C354 1.516 . S
C354 C353 1.516 . S
C354 C355 1.502 . S
C354 C356 1.561 . S
C354 C357 1.526 . S
C355 H339 0.959 . S
C355 H340 0.959 . S
C355 H341 0.961 . S
C355 C354 1.502 . S
C356 H342 0.960 . S
C356 H343 0.961 . S
C356 H344 0.959 . S
C356 C354 1.561 . S
C357 C354 1.526 . S
C357 C358 1.396 1_554 S
C357 C362 1.390 . S
C358 C352 1.465 . S
C358 C357 1.396 1_556 S
C358 C359 1.399 . S
C359 H345 0.929 . S
C359 C358 1.399 . S
C359 C360 1.385 . S
C360 H346 0.931 . S
C360 C359 1.385 . S
C360 C361 1.389 . S
C361 C360 1.389 . S
C361 C362 1.387 1_556 S
C362 H347 0.930 . S
C362 C357 1.390 . S
C362 C361 1.387 1_554 S
C133 C9 1.475 . S
C145 C18 1.410 1_655 S
C160 C49 1.404 . S
C172 C58 1.471 1_545 S
C187 C98 1.417 . S
C199 C89 1.481 . S
C214 C19 2.609 1_556 S
C226 C90 2.567 1_556 S
C241 C46 0.891 . S
C253 C6 0.840 . S
C268 C59 2.039 1_554 S
C280 C86 1.963 . S
C295 C10 2.616 1_554 S
C307 C99 2.566 1_554 S
C322 C15 0.842 . S
C334 C55 0.878 . S
C349 C95 1.954 . S
C361 C50 2.038 1_556 S
