# Generated by pormake.
# Topology kag, (6)-cn, num edge types: 1
# Building blocks:
#     Node 0, Type 0, BuildingBlock: JUFBIX_clean_sbu_0, # of connection points: 6
#     Node 1, Type 0, BuildingBlock: JUFBIX_clean_sbu_0, # of connection points: 6
#     Node 2, Type 0, BuildingBlock: JUFBIX_clean_sbu_0, # of connection points: 6
#     Edge 3, Type (0, 0), BuildingBlock: MIFKUJ_clean_linker_0, # of connection points: 2
#     Edge 4, Type (0, 0), BuildingBlock: MIFKUJ_clean_linker_0, # of connection points: 2
#     Edge 5, Type (0, 0), BuildingBlock: MIFKUJ_clean_linker_0, # of connection points: 2
#     Edge 6, Type (0, 0), BuildingBlock: MIFKUJ_clean_linker_0, # of connection points: 2
#     Edge 7, Type (0, 0), BuildingBlock: MIFKUJ_clean_linker_0, # of connection points: 2
#     Edge 8, Type (0, 0), BuildingBlock: MIFKUJ_clean_linker_0, # of connection points: 2
#     Edge 9, Type (0, 0), BuildingBlock: MIFKUJ_clean_linker_0, # of connection points: 2
#     Edge 10, Type (0, 0), BuildingBlock: MIFKUJ_clean_linker_0, # of connection points: 2
#     Edge 11, Type (0, 0), BuildingBlock: MIFKUJ_clean_linker_0, # of connection points: 2
# Relax obj value: 0.226
# Max RMSD: 0.214
# Mean RMSD: 0.152
data_MOF--net-kag--node1-JUFBIX_clean_sbu_0--edge1-MIFKUJ_clean_linker_0
_symmetry_space_group_name_H-M    P1
_symmetry_Int_Tables_number       1
_symmetry_cell_setting            triclinic
loop_
_symmetry_equiv_pos_as_xyz
'x, y, z'
_cell_length_a     38.860635
_cell_length_b     46.748967
_cell_length_c     19.462422
_cell_angle_alpha  90.185182
_cell_angle_beta   93.055465
_cell_angle_gamma 120.62015
loop_
_atom_site_label
_atom_site_type_symbol
_atom_site_fract_x
_atom_site_fract_y
_atom_site_fract_z
_atom_type_partial_charge
Co0 Co 0.98512 0.46961 0.00837 0.0
C1 C -0.00094 0.49819 0.88002 0.0
Co2 Co 0.01355 0.52413 0.01284 0.0
C3 C 0.92845 0.40089 0.02966 0.0
C4 C 0.97486 0.40679 0.96632 0.0
N5 N 0.96235 0.4241 0.00243 0.0
N6 N 0.91905 0.36973 0.01156 0.0
C7 C 0.94833 0.37336 0.97192 0.0
H8 H 0.91069 0.40683 0.06126 0.0
H9 H 0.00091 0.4178 0.93611 0.0
C10 C -0.00039 0.49559 0.14116 0.0
N11 N 0.03634 0.56973 0.01876 0.0
C12 C 0.07148 0.59311 0.99532 0.0
C13 C 0.02185 0.58686 0.04976 0.0
N14 N 0.07977 0.6243 0.01064 0.0
C15 C 0.04829 0.6203 0.04464 0.0
C16 C 0.93017 0.49049 0.00544 0.0
O17 O 0.98593 0.46859 0.106 0.0
O18 O 0.01302 0.52278 0.11019 0.0
O19 O 0.96177 0.51896 0.00739 0.0
O20 O 0.93329 0.46475 0.00548 0.0
O21 O 0.01392 0.52529 0.91529 0.0
H22 H 0.99406 0.57576 0.07527 0.0
H23 H 0.09092 0.58714 0.96894 0.0
O24 O 0.9845 0.4709 0.91087 0.0
O25 O 0.03679 0.47468 0.01125 0.0
O26 O 0.06535 0.52889 0.01823 0.0
C27 C 0.06841 0.50315 0.01559 0.0
H28 H 0.94954 0.35336 0.94616 0.0
H29 H 0.04439 0.63997 0.06484 0.0
Co30 Co 0.51519 0.98572 0.98079 0.0
C31 C 0.49933 0.00079 0.84923 0.0
Co32 Co 0.47777 0.00889 0.9778 0.0
C33 C 0.53742 0.93652 0.00752 0.0
C34 C 0.5822 0.97791 0.95516 0.0
N35 N 0.54639 0.96623 0.9822 0.0
N36 N 0.56609 0.92908 0.99708 0.0
C37 C 0.59442 0.95518 0.96437 0.0
H38 H 0.51017 0.92053 0.0327 0.0
H39 H 0.59795 0.00109 0.92897 0.0
C40 C 0.49363 0.99373 0.10934 0.0
N41 N 0.4461 0.02812 0.97715 0.0
C42 C 0.4555 0.05898 0.95865 0.0
C43 C 0.40929 0.01474 1.00123 0.0
N44 N 0.42623 0.06551 0.97096 0.0
C45 C 0.39699 0.03754 0.99732 0.0
C46 C 0.43407 0.9403 0.96395 0.0
O47 O 0.51256 0.98267 0.0779 0.0
O48 O 0.47605 0.00622 0.07493 0.0
O49 O 0.43133 0.96616 0.96722 0.0
O50 O 0.46838 0.94319 0.96834 0.0
O51 O 0.47977 0.01139 0.88036 0.0
H52 H 0.3929 0.99034 0.02252 0.0
H53 H 0.48407 0.07686 0.93952 0.0
O54 O 0.51752 0.98891 0.88396 0.0
O55 O 0.56182 0.0285 0.99302 0.0
O56 O 0.52463 0.05137 0.98881 0.0
C57 C 0.55901 0.0544 0.99507 0.0
H58 H 0.62138 0.9572 0.94612 0.0
H59 H 0.36897 0.03391 0.01401 0.0
Co60 Co 0.48171 0.47194 0.00745 0.0
C61 C 0.50167 0.50029 0.14017 0.0
Co62 Co 0.51984 0.52677 0.01184 0.0
C63 C 0.45821 0.40301 0.98375 0.0
C64 C 0.41367 0.40819 0.033 0.0
N65 N 0.44972 0.42595 0.00628 0.0
N66 N 0.42912 0.37165 0.99603 0.0
C67 C 0.40092 0.37491 0.02663 0.0
H68 H 0.48602 0.4093 0.96141 0.0
H69 H 0.39809 0.41875 0.05741 0.0
C70 C 0.49985 0.49837 0.87913 0.0
N71 N 0.55152 0.57279 0.01323 0.0
C72 C 0.54266 0.59523 0.03752 0.0
C73 C 0.58702 0.59111 0.98501 0.0
N74 N 0.57099 0.62677 0.02505 0.0
C75 C 0.59911 0.62427 0.99236 0.0
C76 C 0.56322 0.49453 0.0156 0.0
O77 O 0.48138 0.47115 0.91008 0.0
O78 O 0.51848 0.52565 0.91418 0.0
O79 O 0.56634 0.52294 0.01555 0.0
O80 O 0.52858 0.46864 0.01318 0.0
O81 O 0.52098 0.52746 0.10938 0.0
H82 H 0.60243 0.58099 0.95845 0.0
H83 H 0.51552 0.58854 0.06272 0.0
O84 O 0.48224 0.47311 0.10495 0.0
O85 O 0.43531 0.4758 1.00173 0.0
O86 O 0.47294 0.53005 0.0082 0.0
C87 C 0.43835 0.50414 0.00387 0.0
H88 H 0.37326 0.35478 0.04431 0.0
H89 H 0.62552 0.64479 0.97212 0.0
H90 H 0.97652 0.44533 0.79145 0.0
H91 H 0.97695 0.44536 0.66602 0.0
H92 H 0.02164 0.55085 0.67073 0.0
H93 H 0.02124 0.5511 0.79655 0.0
H94 H 0.95995 0.51647 0.5711 0.0
H95 H 0.08426 0.52429 0.64443 0.0
H96 H 0.12762 0.50787 0.7084 0.0
H97 H 0.0661 0.41255 0.60177 0.0
H98 H 0.02192 0.42822 0.53787 0.0
H99 H 0.02125 0.5483 0.22965 0.0
H100 H 0.02069 0.54824 0.35504 0.0
H101 H 0.97752 0.44299 0.35045 0.0
H102 H 0.97816 0.4428 0.22468 0.0
H103 H 0.03835 0.4772 0.45007 0.0
H104 H 0.91407 0.46924 0.37666 0.0
H105 H 0.87059 0.48549 0.31258 0.0
H106 H 0.93175 0.58081 0.41921 0.0
H107 H 0.97604 0.5653 0.48323 0.0
C108 C 0.98641 0.46857 0.76591 0.0
C109 C -0.00105 0.49825 0.804 0.0
C110 C 0.98676 0.46854 0.69422 0.0
C111 C -0.00034 0.49815 0.6592 0.0
C112 C 0.01163 0.52774 0.69688 0.0
C113 C 0.0115 0.52785 0.76872 0.0
C114 C 0.00068 0.49815 0.5832 0.0
C115 C 0.97751 0.50834 0.54462 0.0
C116 C 0.02287 0.48676 0.54877 0.0
C117 C 0.04951 0.47731 0.58687 0.0
C118 C 0.07974 0.49972 0.63504 0.0
C119 C 0.10451 0.49057 0.67122 0.0
C120 C 0.09954 0.45915 0.6593 0.0
C121 C 0.06986 0.43686 0.61103 0.0
C122 C 0.04497 0.44587 0.57477 0.0
C123 C 0.01166 0.52511 0.25521 0.0
C124 C -0.00037 0.49551 0.21716 0.0
C125 C 0.01122 0.52511 0.32688 0.0
C126 C 0.99869 0.49555 0.36193 0.0
C127 C 0.98723 0.46605 0.32429 0.0
C128 C 0.9875 0.46598 0.25247 0.0
C129 C 0.99762 0.49552 0.43794 0.0
C130 C 0.02077 0.48533 0.47653 0.0
C131 C 0.97538 0.50688 0.47237 0.0
C132 C 0.94864 0.51622 0.43426 0.0
C133 C 0.91848 0.49377 0.38605 0.0
C134 C 0.89364 0.50283 0.3498 0.0
C135 C 0.89847 0.5342 0.36168 0.0
C136 C 0.92808 0.55654 0.40999 0.0
C137 C 0.95304 0.54761 0.44632 0.0
H138 H 0.87921 0.54117 0.33357 0.0
H139 H 0.11876 0.45212 0.68735 0.0
H140 H 0.52981 0.97059 0.19907 0.0
H141 H 0.5307 0.97161 0.32479 0.0
H142 H 0.45712 0.01631 0.31715 0.0
H143 H 0.45652 0.01585 0.19156 0.0
H144 H 0.51903 0.04759 0.41215 0.0
H145 H 0.41747 0.93435 0.35125 0.0
H146 H 0.3909 0.87958 0.2927 0.0
H147 H 0.48024 0.86665 0.40373 0.0
H148 H 0.50769 0.92157 0.46233 0.0
H149 H 0.46346 0.02384 0.75841 0.0
H150 H 0.46272 0.02234 0.63268 0.0
H151 H 0.53558 0.97698 0.64243 0.0
H152 H 0.53612 0.97802 0.76796 0.0
H153 H 0.47447 0.94584 0.54635 0.0
H154 H 0.57634 0.05813 0.60684 0.0
H155 H 0.60521 0.11353 0.66371 0.0
H156 H 0.51768 0.12872 0.5526 0.0
H157 H 0.48789 0.07317 0.49576 0.0
C158 C 0.51366 0.98051 0.2241 0.0
C159 C 0.49302 0.99308 0.18528 0.0
C160 C 0.51411 0.98098 0.29596 0.0
C161 C 0.49368 0.99378 0.3303 0.0
C162 C 0.47307 0.00633 0.29168 0.0
C163 C 0.47265 0.00592 0.21988 0.0
C164 C 0.49425 0.99456 0.40656 0.0
C165 C 0.50875 0.02528 0.44148 0.0
C166 C 0.48186 0.96556 0.44481 0.0
C167 C 0.46486 0.93221 0.41073 0.0
C168 C 0.43159 0.91991 0.36292 0.0
C169 C 0.41635 0.88883 0.32975 0.0
C170 C 0.43394 0.86969 0.34435 0.0
C171 C 0.46668 0.88152 0.39243 0.0
C172 C 0.48206 0.91261 0.4257 0.0
C173 C 0.47946 0.01366 0.73383 0.0
C174 C 0.49993 0.00113 0.77324 0.0
C175 C 0.47909 0.01289 0.66197 0.0
C176 C 0.49934 -0.00025 0.6282 0.0
C177 C 0.51972 0.98719 0.66741 0.0
C178 C 0.52013 0.98796 0.7392 0.0
C179 C 0.49904 -0.00113 0.55194 0.0
C180 C 0.48466 0.96814 0.51703 0.0
C181 C 0.51172 0.02788 0.51366 0.0
C182 C 0.52963 0.06134 0.54758 0.0
C183 C 0.56303 0.07317 0.59495 0.0
C184 C 0.5796 0.10461 0.62711 0.0
C185 C 0.56322 0.12459 0.61192 0.0
C186 C 0.53029 0.11319 0.56439 0.0
C187 C 0.51357 0.08174 0.53215 0.0
H188 H 0.57609 0.14893 0.63686 0.0
H189 H 0.42216 0.84566 0.31851 0.0
H190 H 0.4562 0.44576 0.78789 0.0
H191 H 0.45621 0.4461 0.66233 0.0
H192 H 0.54384 0.55109 0.67312 0.0
H193 H 0.54325 0.55114 0.79856 0.0
H194 H 0.4872 0.53767 0.57507 0.0
H195 H 0.56984 0.49175 0.64132 0.0
H196 H 0.58537 0.45265 0.70022 0.0
H197 H 0.48705 0.37066 0.58491 0.0
H198 H 0.47062 0.40925 0.52592 0.0
H199 H 0.54545 0.55274 0.23183 0.0
H200 H 0.54521 0.55217 0.35738 0.0
H201 H 0.45722 0.44728 0.34574 0.0
H202 H 0.45795 0.44745 0.22034 0.0
H203 H 0.51382 0.46046 0.44413 0.0
H204 H 0.43113 0.50601 0.37772 0.0
H205 H 0.41505 0.5448 0.31889 0.0
H206 H 0.51274 0.62712 0.43456 0.0
H207 H 0.52975 0.58885 0.49342 0.0
C208 C 0.47549 0.46892 0.76354 0.0
C209 C 0.49982 0.4984 0.80318 0.0
C210 C 0.47559 0.46905 0.69177 0.0
C211 C 0.50044 0.49854 0.65836 0.0
C212 C 0.52446 0.52805 0.69781 0.0
C213 C 0.52415 0.528 0.76952 0.0
C214 C 0.5013 0.49873 0.58224 0.0
C215 C 0.49355 0.5211 0.5465 0.0
C216 C 0.50864 0.47656 0.54485 0.0
C217 C 0.51879 0.45337 0.57965 0.0
C218 C 0.55139 0.46536 0.62882 0.0
C219 C 0.56037 0.4433 0.66218 0.0
C220 C 0.53715 0.40918 0.64643 0.0
C221 C 0.50499 0.39708 0.5971 0.0
C222 C 0.49585 0.41904 0.56363 0.0
C223 C 0.52603 0.52955 0.25598 0.0
C224 C 0.50162 0.50016 0.21612 0.0
C225 C 0.52582 0.52929 0.32774 0.0
C226 C 0.50081 0.49976 0.36091 0.0
C227 C 0.47672 0.47034 0.32124 0.0
C228 C 0.47711 0.47052 0.24954 0.0
C229 C 0.49981 0.49945 0.43699 0.0
C230 C 0.5075 0.47705 0.47271 0.0
C231 C 0.49236 0.52156 0.47436 0.0
C232 C 0.48193 0.54459 0.43951 0.0
C233 C 0.44935 0.53241 0.39028 0.0
C234 C 0.44004 0.5543 0.35697 0.0
C235 C 0.46292 0.58841 0.37285 0.0
C236 C 0.49507 0.60069 0.42225 0.0
C237 C 0.50454 0.57891 0.45564 0.0
H238 H 0.45568 0.60532 0.34699 0.0
H239 H 0.54413 0.39214 0.67236 0.0
H240 H 0.08426 0.45425 0.98564 0.0
H241 H 0.14934 0.4584 0.98608 0.0
H242 H 0.2076 0.56223 0.04817 0.0
H243 H 0.14228 0.5585 0.04562 0.0
H244 H 0.2481 0.55345 0.95341 0.0
H245 H 0.1953 0.50239 0.1647 0.0
H246 H 0.14469 0.46181 0.23905 0.0
H247 H 0.14605 0.38196 0.13203 0.0
H248 H 0.19627 0.42202 0.05638 0.0
H249 H 0.43375 0.55928 0.03385 0.0
H250 H 0.37322 0.5627 0.03942 0.0
H251 H 0.30064 0.45879 0.97796 0.0
H252 H 0.36086 0.45494 0.97456 0.0
H253 H 0.27025 0.47211 0.08185 0.0
H254 H 0.32067 0.52427 0.86567 0.0
H255 H 0.37197 0.56574 0.79347 0.0
H256 H 0.37637 0.64479 0.91392 0.0
H257 H 0.3254 0.60378 0.9873 0.0
C258 C 0.11087 0.47798 0.9996 0.0
C259 C 0.1081 0.50598 0.01626 0.0
C260 C 0.14809 0.48029 1.00005 0.0
C261 C 0.18334 0.51046 0.01856 0.0
C262 C 0.18078 0.53866 0.03411 0.0
C263 C 0.14346 0.53646 0.03285 0.0
C264 C 0.22269 0.5123 0.02133 0.0
C265 C 0.25319 0.536 0.98236 0.0
C266 C 0.22924 0.48935 0.05858 0.0
C267 C 0.19937 0.46521 0.10457 0.0
C268 C 0.18464 0.47616 0.15677 0.0
C269 C 0.15604 0.45325 0.19917 0.0
C270 C 0.14212 0.41933 0.1902 0.0
C271 C 0.15686 0.40825 0.13892 0.0
C272 C 0.18543 0.43105 0.09632 0.0
C273 C 0.40489 0.53722 0.02112 0.0
C274 C 0.40206 0.50683 0.00367 0.0
C275 C 0.37032 0.53924 0.02408 0.0
C276 C 0.33235 0.51108 0.0084 0.0
C277 C 0.32958 0.48083 0.99038 0.0
C278 C 0.36404 0.47869 0.98824 0.0
C279 C 0.29527 0.51263 0.0124 0.0
C280 C 0.26525 0.48965 0.0531 0.0
C281 C 0.28933 0.53637 0.9771 0.0
C282 C 0.3195 0.56097 0.93232 0.0
C283 C 0.33274 0.5505 0.87696 0.0
C284 C 0.36173 0.57392 0.8358 0.0
C285 C 0.37749 0.60787 0.8492 0.0
C286 C 0.36417 0.61848 0.90363 0.0
C287 C 0.3352 0.59516 0.94496 0.0
H288 H 0.39997 0.62597 0.81734 0.0
H289 H 0.11995 0.40163 0.22305 0.0
H290 H 0.63703 0.06981 0.00487 0.0
H291 H 0.69691 0.12497 0.02008 0.0
H292 H 0.623 0.16926 0.02398 0.0
H293 H 0.56291 0.11421 0.0076 0.0
H294 H 0.68277 0.20187 0.94207 0.0
H295 H 0.67025 0.16392 0.17127 0.0
H296 H 0.66183 0.12514 0.26323 0.0
H297 H 0.77221 0.13127 0.21733 0.0
H298 H 0.78101 0.16973 0.12434 0.0
H299 H 0.84644 0.36169 0.03448 0.0
H300 H 0.78404 0.30917 0.04598 0.0
H301 H 0.84683 0.25578 0.0273 0.0
H302 H 0.9097 0.30837 0.01782 0.0
H303 H 0.79034 0.22969 0.12462 0.0
H304 H 0.79898 0.26464 0.88914 0.0
H305 H 0.80691 0.30398 0.79863 0.0
H306 H 0.70212 0.30372 0.85921 0.0
H307 H 0.69402 0.26487 0.95102 0.0
C308 C 0.63349 0.09126 0.00918 0.0
C309 C 0.59525 0.08766 0.00505 0.0
C310 C 0.66773 0.12275 0.01827 0.0
C311 C 0.66434 0.15114 0.02406 0.0
C312 C 0.62623 0.14763 0.01983 0.0
C313 C 0.59195 0.11616 0.01052 0.0
C314 C 0.70071 0.18459 0.03185 0.0
C315 C 0.70595 0.20816 0.98276 0.0
C316 C 0.73118 0.19256 0.08434 0.0
C317 C 0.72611 0.16951 0.14041 0.0
C318 C 0.69258 0.1568 0.1804 0.0
C319 C 0.68776 0.13491 0.23278 0.0
C320 C 0.71643 0.12569 0.24601 0.0
C321 C 0.75002 0.13841 0.20698 0.0
C322 C 0.75495 0.16029 0.15447 0.0
C323 C 0.84722 0.33889 0.03434 0.0
C324 C 0.883 0.33917 0.02465 0.0
C325 C 0.81145 0.30888 0.0404 0.0
C326 C 0.81082 0.27865 0.03649 0.0
C327 C 0.84673 0.27889 0.03014 0.0
C328 C 0.88252 0.3089 0.02408 0.0
C329 C 0.77242 0.24668 0.03448 0.0
C330 C 0.76688 0.22343 0.0845 0.0
C331 C 0.74153 0.23903 0.98308 0.0
C332 C 0.74617 0.26215 0.92745 0.0
C333 C 0.77783 0.2732 0.88354 0.0
C334 C 0.78235 0.2954 0.832 0.0
C335 C 0.75515 0.30648 0.82339 0.0
C336 C 0.72328 0.29526 0.86616 0.0
C337 C 0.7187 0.27313 0.91793 0.0
H338 H 0.75868 0.32365 0.78344 0.0
H339 H 0.71265 0.10873 0.2866 0.0
H340 H 0.50055 0.86737 0.00372 0.0
H341 H 0.4999 0.81531 0.02091 0.0
H342 H 0.62911 0.86959 0.04236 0.0
H343 H 0.62994 0.92164 0.02478 0.0
H344 H 0.60209 0.81881 0.95288 0.0
H345 H 0.57005 0.83508 0.17956 0.0
H346 H 0.53129 0.84396 0.26459 0.0
H347 H 0.42642 0.75119 0.19951 0.0
H348 H 0.46425 0.74212 0.11285 0.0
H349 H 0.63375 0.68928 0.0485 0.0
H350 H 0.63134 0.74044 0.05586 0.0
H351 H 0.50223 0.68309 0.03306 0.0
H352 H 0.50448 0.63183 0.02624 0.0
H353 H 0.52732 0.73449 0.12467 0.0
H354 H 0.55587 0.71929 0.8955 0.0
H355 H 0.59207 0.70952 0.80672 0.0
H356 H 0.70052 0.79938 0.87338 0.0
H357 H 0.66508 0.80943 0.96327 0.0
C358 C 0.5288 0.86829 0.01329 0.0
C359 C 0.56536 0.89866 0.01255 0.0
C360 C 0.52837 0.83849 0.02315 0.0
C361 C 0.56446 0.83855 0.03332 0.0
C362 C 0.60091 0.86893 0.03435 0.0
C363 C 0.60136 0.89865 0.02407 0.0
C364 C 0.5646 0.80693 0.0384 0.0
C365 C 0.58626 0.80065 0.99125 0.0
C366 C 0.54272 0.78267 0.08683 0.0
C367 C 0.51994 0.78809 0.13913 0.0
C368 C 0.53862 0.81672 0.18285 0.0
C369 C 0.51681 0.82178 0.23141 0.0
C370 C 0.4764 0.7982 0.23734 0.0
C371 C 0.45774 0.76943 0.1949 0.0
C372 C 0.47933 0.76436 0.14593 0.0
C373 C 0.60487 0.68758 0.04541 0.0
C374 C 0.56936 0.65654 0.03614 0.0
C375 C 0.6035 0.7168 0.04972 0.0
C376 C 0.56662 0.71562 0.04382 0.0
C377 C 0.53102 0.68459 0.03771 0.0
C378 C 0.53236 0.6553 0.03391 0.0
C379 C 0.56538 0.7468 0.03993 0.0
C380 C 0.54331 0.75283 0.08673 0.0
C381 C 0.58655 0.77082 0.99078 0.0
C382 C 0.60791 0.76493 0.93655 0.0
C383 C 0.58751 0.73683 0.89156 0.0
C384 C 0.60788 0.73126 0.84099 0.0
C385 C 0.64859 0.75377 0.83453 0.0
C386 C 0.669 0.78194 0.87852 0.0
C387 C 0.64878 0.7876 0.92925 0.0
H388 H 0.66431 0.74941 0.79534 0.0
H389 H 0.45956 0.80219 0.2749 0.0
H390 H 0.85717 0.43469 0.02235 0.0
H391 H 0.79236 0.43131 0.02774 0.0
H392 H 0.8488 0.53642 0.99263 0.0
H393 H 0.91355 0.54014 0.989 0.0
H394 H 0.80086 0.52024 0.095 0.0
H395 H 0.79065 0.47425 0.86503 0.0
H396 H 0.79099 0.43426 0.78243 0.0
H397 H 0.69382 0.35342 0.88023 0.0
H398 H 0.69335 0.39287 0.96405 0.0
H399 H 0.64058 0.54412 0.00316 0.0
H400 H 0.70023 0.53931 0.00432 0.0
H401 H 0.62787 0.43384 0.034 0.0
H402 H 0.56773 0.4383 0.03089 0.0
H403 H 0.68079 0.44496 0.94335 0.0
H404 H 0.68691 0.48853 0.16795 0.0
H405 H 0.68562 0.52636 0.25499 0.0
H406 H 0.78908 0.6089 0.17417 0.0
H407 H 0.79065 0.57164 0.08597 0.0
C408 C 0.85568 0.45702 0.01537 0.0
C409 C 0.89049 0.48769 0.00521 0.0
C410 C 0.8186 0.45504 0.01828 0.0
C411 C 0.81564 0.48358 0.01006 0.0
C412 C 0.85034 0.51409 0.9993 0.0
C413 C 0.88735 0.51615 0.997 0.0
C414 C 0.77679 0.48223 0.01416 0.0
C415 C 0.77473 0.50403 0.06129 0.0
C416 C 0.74217 0.4601 0.97223 0.0
C417 C 0.74225 0.43648 0.92124 0.0
C418 C 0.76956 0.44792 0.8692 0.0
C419 C 0.76976 0.42534 0.82215 0.0
C420 C 0.74256 0.39129 0.82624 0.0
C421 C 0.71498 0.37977 0.87723 0.0
C422 C 0.71471 0.40222 0.92448 0.0
C423 C 0.63732 0.5199 0.01016 0.0
C424 C 0.59944 0.49163 0.0174 0.0
C425 C 0.6715 0.5172 0.01108 0.0
C426 C 0.66867 0.4863 0.02044 0.0
C427 C 0.63082 0.45795 0.02695 0.0
C428 C 0.5965 0.46057 0.0254 0.0
C429 C 0.70529 0.48372 0.02275 0.0
C430 C 0.70685 0.46108 0.97725 0.0
C431 C 0.73939 0.50481 0.06675 0.0
C432 C 0.7387 0.52731 0.11999 0.0
C433 C 0.70922 0.51478 0.16843 0.0
C434 C 0.70847 0.53612 0.21802 0.0
C435 C 0.7372 0.57002 0.22002 0.0
C436 C 0.76682 0.58264 0.17252 0.0
C437 C 0.76769 0.56141 0.12277 0.0
H438 H 0.73656 0.5865 0.25845 0.0
H439 H 0.74277 0.37386 0.78979 0.0
H440 H 0.10467 0.68586 0.06664 0.0
H441 H 0.1652 0.7376 0.04445 0.0
H442 H 0.19865 0.68581 0.90405 0.0
H443 H 0.13732 0.63378 0.92348 0.0
H444 H 0.26124 0.73101 0.00769 0.0
H445 H 0.16702 0.72865 0.83324 0.0
H446 H 0.10261 0.72238 0.79018 0.0
H447 H 0.12407 0.80455 0.92159 0.0
H448 H 0.18836 0.811 0.9662 0.0
H449 H 0.42624 0.88321 0.91032 0.0
H450 H 0.36593 0.8279 0.90298 0.0
H451 H 0.3006 0.86749 0.99929 0.0
H452 H 0.36006 0.92301 0.00287 0.0
H453 H 0.25462 0.82518 0.90445 0.0
H454 H 0.34211 0.82453 0.08992 0.0
H455 H 0.40713 0.83351 0.13765 0.0
H456 H 0.39818 0.75907 0.99601 0.0
H457 H 0.33322 0.74987 0.94693 0.0
C458 C 0.1243 0.68517 0.03026 0.0
C459 C 0.11557 0.65521 0.99693 0.0
C460 C 0.15915 0.71491 0.01802 0.0
C461 C 0.18618 0.71538 0.97262 0.0
C462 C 0.17807 0.68577 0.93953 0.0
C463 C 0.14292 0.65599 0.95104 0.0
C464 C 0.22288 0.74706 0.96007 0.0
C465 C 0.26002 0.7515 0.98404 0.0
C466 C 0.22088 0.7738 0.93064 0.0
C467 C 0.18238 0.77014 0.90343 0.0
C468 C 0.15786 0.74522 0.85334 0.0
C469 C 0.1214 0.74166 0.82858 0.0
C470 C 0.10922 0.76301 0.85322 0.0
C471 C 0.13353 0.78802 0.90256 0.0
C472 C 0.17001 0.79166 0.92754 0.0
C473 C 0.39886 0.88003 0.92942 0.0
C474 C 0.3977 0.90722 0.95744 0.0
C475 C 0.36451 0.84845 0.92553 0.0
C476 C 0.32893 0.8434 0.95186 0.0
C477 C 0.32767 0.87076 0.97861 0.0
C478 C 0.36167 0.90244 0.98086 0.0
C479 C 0.29317 0.80961 0.95352 0.0
C480 C 0.2561 0.8047 0.92747 0.0
C481 C 0.29518 0.78265 0.98232 0.0
C482 C 0.33304 0.78676 0.0143 0.0
C483 C 0.35402 0.81007 0.06897 0.0
C484 C 0.39086 0.81523 0.09619 0.0
C485 C 0.40686 0.79702 0.06954 0.0
C486 C 0.38577 0.77323 0.01638 0.0
C487 C 0.34891 0.76798 0.98893 0.0
H488 H 0.43564 0.80141 0.08998 0.0
H489 H 0.08097 0.76021 0.834 0.0
H490 H 0.47112 0.35994 0.90372 0.0
H491 H 0.47523 0.30967 0.89132 0.0
H492 H 0.39265 0.26435 0.05084 0.0
H493 H 0.38954 0.31464 0.06534 0.0
H494 H 0.45609 0.25678 0.07149 0.0
H495 H 0.36361 0.2427 0.87888 0.0
H496 H 0.34327 0.25955 0.77147 0.0
H497 H 0.44128 0.26306 0.67194 0.0
H498 H 0.46248 0.2466 0.77908 0.0
H499 H 0.38595 0.08736 0.04372 0.0
H500 H 0.39082 0.14122 0.03806 0.0
H501 H 0.47606 0.17004 0.88176 0.0
H502 H 0.47038 0.11538 0.88544 0.0
H503 H 0.42091 0.18973 0.8535 0.0
H504 H 0.50992 0.19898 0.04166 0.0
H505 H 0.53085 0.18214 0.14839 0.0
H506 H 0.44143 0.1888 0.25604 0.0
H507 H 0.41954 0.20521 0.14966 0.0
C508 C 0.45396 0.33934 0.93634 0.0
C509 C 0.42998 0.34145 0.98555 0.0
C510 C 0.45607 0.3105 0.92874 0.0
C511 C 0.43406 0.28318 0.96991 0.0
C512 C 0.40989 0.28512 0.0185 0.0
C513 C 0.40782 0.31387 0.02623 0.0
C514 C 0.43674 0.25273 0.96429 0.0
C515 C 0.44807 0.24199 0.02394 0.0
C516 C 0.42778 0.23412 0.90163 0.0
C517 C 0.41488 0.24379 0.83717 0.0
C518 C 0.38099 0.24731 0.83423 0.0
C519 C 0.36927 0.25674 0.77338 0.0
C520 C 0.39104 0.26247 0.71498 0.0
C521 C 0.42449 0.25867 0.71724 0.0
C522 C 0.43635 0.24926 0.77799 0.0
C523 C 0.40527 0.10478 0.00722 0.0
C524 C 0.42787 0.09694 0.96514 0.0
C525 C 0.40833 0.13578 0.00459 0.0
C526 C 0.43428 0.15981 0.96029 0.0
C527 C 0.45605 0.15189 0.91664 0.0
C528 C 0.45299 0.12075 0.91922 0.0
C529 C 0.43896 0.19332 0.96127 0.0
C530 C 0.42929 0.20472 0.90083 0.0
C531 C 0.44963 0.21271 0.02317 0.0
C532 C 0.46291 0.20311 0.0875 0.0
C533 C 0.49453 0.19663 0.08797 0.0
C534 C 0.50659 0.18719 0.14843 0.0
C535 C 0.48743 0.18435 0.20893 0.0
C536 C 0.45623 0.19101 0.20913 0.0
C537 C 0.44402 0.20042 0.14878 0.0
H538 H 0.49681 0.17703 0.25569 0.0
H539 H 0.38193 0.26978 0.66792 0.0
loop_
_geom_bond_atom_site_label_1
_geom_bond_atom_site_label_2
_geom_bond_distance
_geom_bond_site_symmetry_2
_ccdc_geom_bond_type
Co0 N5 2.057 1_554 S
Co0 O17 2.021 . S
Co0 O20 2.062 . S
Co0 O24 2.117 1_554 S
Co0 O25 2.020 1_655 S
C1 O21 1.259 . S
C1 O24 1.258 1_455 S
Co2 N11 2.057 1_556 S
Co2 O18 2.117 1_556 S
Co2 O19 2.020 1_455 S
Co2 O21 2.021 . S
Co2 O26 2.062 . S
C3 N5 1.316 1_554 S
C3 N6 1.347 1_554 S
C3 H8 0.931 . S
C4 N5 1.375 . S
C4 C7 1.350 . S
C4 H9 0.930 . S
N5 Co0 2.057 1_556 S
N5 C3 1.316 1_556 S
N5 C4 1.375 . S
N6 C3 1.347 1_556 S
N6 C7 1.373 . S
C7 C4 1.350 . S
C7 N6 1.373 . S
C7 H28 0.931 . S
H8 C3 0.931 . S
H9 C4 0.930 . S
C10 O17 1.262 . S
C10 O18 1.253 1_655 S
N11 Co2 2.057 1_554 S
N11 C12 1.316 1_554 S
N11 C13 1.375 . S
C12 N11 1.316 1_556 S
C12 N14 1.347 1_556 S
C12 H23 0.931 . S
C13 N11 1.375 . S
C13 C15 1.350 . S
C13 H22 0.930 . S
N14 C12 1.347 1_554 S
N14 C15 1.373 . S
C15 C13 1.350 . S
C15 N14 1.373 . S
C15 H29 0.931 . S
C16 O19 1.256 1_554 S
C16 O20 1.255 . S
O17 Co0 2.021 . S
O17 C10 1.262 . S
O18 Co2 2.117 1_554 S
O18 C10 1.253 1_455 S
O19 Co2 2.020 1_655 S
O19 C16 1.256 1_556 S
O20 Co0 2.062 . S
O20 C16 1.255 . S
O21 C1 1.259 . S
O21 Co2 2.021 . S
H22 C13 0.930 . S
H23 C12 0.931 . S
O24 Co0 2.117 1_556 S
O24 C1 1.258 1_655 S
O25 Co0 2.020 1_455 S
O25 C27 1.253 1_554 S
O26 Co2 2.062 . S
O26 C27 1.256 . S
C27 O25 1.253 1_556 S
C27 O26 1.256 . S
H28 C7 0.931 . S
H29 C15 0.931 . S
Co30 N35 2.057 1_554 S
Co30 O47 2.021 . S
Co30 O50 2.062 . S
Co30 O54 2.117 1_554 S
Co30 O55 2.020 1_565 S
C31 O51 1.259 . S
C31 O54 1.258 1_545 S
Co32 N41 2.057 1_556 S
Co32 O48 2.117 1_556 S
Co32 O49 2.020 1_545 S
Co32 O51 2.021 . S
Co32 O56 2.062 . S
C33 N35 1.316 1_554 S
C33 N36 1.347 1_554 S
C33 H38 0.931 . S
C34 N35 1.375 . S
C34 C37 1.350 . S
C34 H39 0.930 . S
N35 Co30 2.057 1_556 S
N35 C33 1.316 1_556 S
N35 C34 1.375 . S
N36 C33 1.347 1_556 S
N36 C37 1.373 . S
C37 C34 1.350 . S
C37 N36 1.373 . S
C37 H58 0.931 . S
H38 C33 0.931 . S
H39 C34 0.930 . S
C40 O47 1.259 . S
C40 O48 1.258 1_565 S
N41 Co32 2.057 1_554 S
N41 C42 1.316 1_554 S
N41 C43 1.375 . S
C42 N41 1.316 1_556 S
C42 N44 1.347 1_556 S
C42 H53 0.931 . S
C43 N41 1.375 . S
C43 C45 1.350 . S
C43 H52 0.930 . S
N44 C42 1.347 1_554 S
N44 C45 1.373 . S
C45 C43 1.350 . S
C45 N44 1.373 . S
C45 H59 0.931 . S
C46 O49 1.256 . S
C46 O50 1.254 1_556 S
O47 Co30 2.021 . S
O47 C40 1.259 . S
O48 Co32 2.117 1_554 S
O48 C40 1.258 1_545 S
O49 Co32 2.020 1_565 S
O49 C46 1.256 . S
O50 Co30 2.062 . S
O50 C46 1.254 1_554 S
O51 C31 1.259 . S
O51 Co32 2.021 . S
H52 C43 0.930 . S
H53 C42 0.931 . S
O54 Co30 2.117 1_556 S
O54 C31 1.258 1_565 S
O55 Co30 2.020 1_545 S
O55 C57 1.257 . S
O56 Co32 2.062 . S
O56 C57 1.254 1_556 S
C57 O55 1.257 . S
C57 O56 1.254 1_554 S
H58 C37 0.931 . S
H59 C45 0.931 . S
Co60 N65 2.057 1_556 S
Co60 O77 2.021 . S
Co60 O80 2.062 . S
Co60 O84 2.117 1_556 S
Co60 O85 2.020 . S
C61 O81 1.259 . S
C61 O84 1.258 . S
Co62 N71 2.057 1_554 S
Co62 O78 2.117 1_554 S
Co62 O79 2.020 . S
Co62 O81 2.021 . S
Co62 O86 2.062 . S
C63 N65 1.316 1_556 S
C63 N66 1.347 1_556 S
C63 H68 0.931 . S
C64 N65 1.375 . S
C64 C67 1.350 . S
C64 H69 0.930 . S
N65 Co60 2.057 1_554 S
N65 C63 1.316 1_554 S
N65 C64 1.375 . S
N66 C63 1.347 1_554 S
N66 C67 1.373 . S
C67 C64 1.350 . S
C67 N66 1.373 . S
C67 H88 0.931 . S
H68 C63 0.931 . S
H69 C64 0.930 . S
C70 O77 1.259 . S
C70 O78 1.258 . S
N71 Co62 2.057 1_556 S
N71 C72 1.316 1_556 S
N71 C73 1.375 . S
C72 N71 1.316 1_554 S
C72 N74 1.347 1_554 S
C72 H83 0.931 . S
C73 N71 1.375 . S
C73 C75 1.350 . S
C73 H82 0.930 . S
N74 C72 1.347 1_556 S
N74 C75 1.373 . S
C75 C73 1.350 . S
C75 N74 1.373 . S
C75 H89 0.931 . S
C76 O79 1.256 . S
C76 O80 1.254 1_554 S
O77 Co60 2.021 . S
O77 C70 1.259 . S
O78 Co62 2.117 1_556 S
O78 C70 1.258 . S
O79 Co62 2.020 . S
O79 C76 1.256 . S
O80 Co60 2.062 . S
O80 C76 1.254 1_556 S
O81 C61 1.259 . S
O81 Co62 2.021 . S
H82 C73 0.930 . S
H83 C72 0.931 . S
O84 Co60 2.117 1_554 S
O84 C61 1.258 . S
O85 Co60 2.020 . S
O85 C87 1.256 . S
O86 Co62 2.062 . S
O86 C87 1.255 1_554 S
C87 O85 1.256 . S
C87 O86 1.255 1_556 S
H88 C67 0.931 . S
H89 C75 0.931 . S
H90 C108 0.951 . S
H91 C110 0.951 . S
H92 C112 0.950 . S
H93 C113 0.950 . S
H94 C115 0.950 . S
H95 C118 0.950 . S
H96 C119 0.950 . S
H97 C121 0.950 . S
H98 C122 0.950 . S
H99 C123 0.951 . S
H100 C125 0.951 . S
H101 C127 0.950 . S
H102 C128 0.950 . S
H103 C130 0.950 . S
H104 C133 0.950 . S
H105 C134 0.950 . S
H106 C136 0.950 . S
H107 C137 0.950 . S
C108 H90 0.951 . S
C108 C109 1.367 . S
C108 C110 1.388 . S
C109 C108 1.367 . S
C109 C113 1.383 1_455 S
C110 H91 0.951 . S
C110 C108 1.388 . S
C110 C111 1.366 . S
C111 C110 1.366 . S
C111 C112 1.414 1_455 S
C111 C114 1.499 . S
C112 H92 0.950 . S
C112 C111 1.414 1_655 S
C112 C113 1.374 . S
C113 H93 0.950 . S
C113 C109 1.383 1_655 S
C113 C112 1.374 . S
C114 C111 1.499 . S
C114 C115 1.373 1_455 S
C114 C116 1.389 . S
C115 H94 0.950 . S
C115 C114 1.373 1_655 S
C115 C131 1.377 . S
C116 C114 1.389 . S
C116 C117 1.524 . S
C116 C130 1.377 . S
C117 C116 1.524 . S
C117 C118 1.397 . S
C117 C122 1.363 . S
C118 H95 0.950 . S
C118 C117 1.397 . S
C118 C119 1.334 . S
C119 H96 0.950 . S
C119 C118 1.334 . S
C119 C120 1.287 . S
C120 C119 1.287 . S
C120 C121 1.524 . S
C120 H139 0.913 . S
C121 H97 0.950 . S
C121 C120 1.524 . S
C121 C122 1.415 . S
C122 H98 0.950 . S
C122 C117 1.363 . S
C122 C121 1.415 . S
C123 H99 0.951 . S
C123 C124 1.367 1_655 S
C123 C125 1.388 . S
C124 C123 1.367 1_455 S
C124 C128 1.383 . S
C125 H100 0.951 . S
C125 C123 1.388 . S
C125 C126 1.366 . S
C126 C125 1.366 . S
C126 C127 1.414 1_655 S
C126 C129 1.499 . S
C127 H101 0.950 . S
C127 C126 1.414 1_455 S
C127 C128 1.374 . S
C128 H102 0.950 . S
C128 C124 1.383 . S
C128 C127 1.374 . S
C129 C126 1.499 . S
C129 C130 1.373 1_655 S
C129 C131 1.389 . S
C130 H103 0.950 . S
C130 C116 1.377 . S
C130 C129 1.373 1_455 S
C131 C115 1.377 . S
C131 C129 1.389 . S
C131 C132 1.524 . S
C132 C131 1.524 . S
C132 C133 1.397 . S
C132 C137 1.363 . S
C133 H104 0.950 . S
C133 C132 1.397 . S
C133 C134 1.334 . S
C134 H105 0.950 . S
C134 C133 1.334 . S
C134 C135 1.287 . S
C135 C134 1.287 . S
C135 C136 1.524 . S
C135 H138 0.999 . S
C136 H106 0.950 . S
C136 C135 1.524 . S
C136 C137 1.415 . S
C137 H107 0.950 . S
C137 C132 1.363 . S
C137 C136 1.415 . S
H138 C135 0.999 . S
H139 C120 0.913 . S
H140 C158 0.951 . S
H141 C160 0.951 . S
H142 C162 0.950 . S
H143 C163 0.950 . S
H144 C165 0.950 . S
H145 C168 0.950 . S
H146 C169 0.950 . S
H147 C171 0.950 . S
H148 C172 0.950 . S
H149 C173 0.951 . S
H150 C175 0.951 . S
H151 C177 0.950 . S
H152 C178 0.950 . S
H153 C180 0.950 . S
H154 C183 0.950 . S
H155 C184 0.950 . S
H156 C186 0.950 . S
H157 C187 0.950 . S
C158 H140 0.951 . S
C158 C159 1.366 . S
C158 C160 1.388 . S
C159 C158 1.366 . S
C159 C163 1.385 1_565 S
C160 H141 0.951 . S
C160 C158 1.388 . S
C160 C161 1.366 . S
C161 C160 1.366 . S
C161 C162 1.414 1_565 S
C161 C164 1.499 . S
C162 H142 0.950 . S
C162 C161 1.414 1_545 S
C162 C163 1.374 . S
C163 H143 0.950 . S
C163 C159 1.385 1_545 S
C163 C162 1.374 . S
C164 C161 1.499 . S
C164 C165 1.369 1_565 S
C164 C166 1.394 . S
C165 H144 0.950 . S
C165 C164 1.369 1_545 S
C165 C181 1.377 . S
C166 C164 1.394 . S
C166 C167 1.524 . S
C166 C180 1.377 . S
C167 C166 1.524 . S
C167 C168 1.397 . S
C167 C172 1.363 . S
C168 H145 0.950 . S
C168 C167 1.397 . S
C168 C169 1.334 . S
C169 H146 0.950 . S
C169 C168 1.334 . S
C169 C170 1.287 . S
C170 C169 1.287 . S
C170 C171 1.524 . S
C170 H189 0.913 . S
C171 H147 0.950 . S
C171 C170 1.524 . S
C171 C172 1.415 . S
C172 H148 0.950 . S
C172 C167 1.363 . S
C172 C171 1.415 . S
C173 H149 0.951 . S
C173 C174 1.366 . S
C173 C175 1.388 . S
C174 C173 1.366 . S
C174 C178 1.385 1_545 S
C175 H150 0.951 . S
C175 C173 1.388 . S
C175 C176 1.366 . S
C176 C175 1.366 . S
C176 C177 1.414 1_545 S
C176 C179 1.499 . S
C177 H151 0.950 . S
C177 C176 1.414 1_565 S
C177 C178 1.374 . S
C178 H152 0.950 . S
C178 C174 1.385 1_565 S
C178 C177 1.374 . S
C179 C176 1.499 . S
C179 C180 1.364 1_545 S
C179 C181 1.399 . S
C180 H153 0.950 . S
C180 C166 1.377 . S
C180 C179 1.364 1_565 S
C181 C165 1.377 . S
C181 C179 1.399 . S
C181 C182 1.524 . S
C182 C181 1.524 . S
C182 C183 1.397 . S
C182 C187 1.363 . S
C183 H154 0.950 . S
C183 C182 1.397 . S
C183 C184 1.334 . S
C184 H155 0.950 . S
C184 C183 1.334 . S
C184 C185 1.287 . S
C185 C184 1.287 . S
C185 C186 1.524 . S
C185 H188 0.999 . S
C186 H156 0.950 . S
C186 C185 1.524 . S
C186 C187 1.415 . S
C187 H157 0.950 . S
C187 C182 1.363 . S
C187 C186 1.415 . S
H188 C185 0.999 . S
H189 C170 0.913 . S
H190 C208 0.951 . S
H191 C210 0.951 . S
H192 C212 0.950 . S
H193 C213 0.950 . S
H194 C215 0.950 . S
H195 C218 0.950 . S
H196 C219 0.950 . S
H197 C221 0.950 . S
H198 C222 0.950 . S
H199 C223 0.951 . S
H200 C225 0.951 . S
H201 C227 0.950 . S
H202 C228 0.950 . S
H203 C230 0.950 . S
H204 C233 0.950 . S
H205 C234 0.950 . S
H206 C236 0.950 . S
H207 C237 0.950 . S
C208 H190 0.951 . S
C208 C209 1.366 . S
C208 C210 1.388 . S
C209 C208 1.366 . S
C209 C213 1.385 . S
C210 H191 0.951 . S
C210 C208 1.388 . S
C210 C211 1.366 . S
C211 C210 1.366 . S
C211 C212 1.414 . S
C211 C214 1.499 . S
C212 H192 0.950 . S
C212 C211 1.414 . S
C212 C213 1.374 . S
C213 H193 0.950 . S
C213 C209 1.385 . S
C213 C212 1.374 . S
C214 C211 1.499 . S
C214 C215 1.373 . S
C214 C216 1.389 . S
C215 H194 0.950 . S
C215 C214 1.373 . S
C215 C231 1.377 . S
C216 C214 1.389 . S
C216 C217 1.524 . S
C216 C230 1.377 . S
C217 C216 1.524 . S
C217 C218 1.397 . S
C217 C222 1.363 . S
C218 H195 0.950 . S
C218 C217 1.397 . S
C218 C219 1.334 . S
C219 H196 0.950 . S
C219 C218 1.334 . S
C219 C220 1.287 . S
C220 C219 1.287 . S
C220 C221 1.524 . S
C220 H239 0.913 . S
C221 H197 0.950 . S
C221 C220 1.524 . S
C221 C222 1.415 . S
C222 H198 0.950 . S
C222 C217 1.363 . S
C222 C221 1.415 . S
C223 H199 0.951 . S
C223 C224 1.366 . S
C223 C225 1.388 . S
C224 C223 1.366 . S
C224 C228 1.385 . S
C225 H200 0.951 . S
C225 C223 1.388 . S
C225 C226 1.366 . S
C226 C225 1.366 . S
C226 C227 1.414 . S
C226 C229 1.499 . S
C227 H201 0.950 . S
C227 C226 1.414 . S
C227 C228 1.374 . S
C228 H202 0.950 . S
C228 C224 1.385 . S
C228 C227 1.374 . S
C229 C226 1.499 . S
C229 C230 1.373 . S
C229 C231 1.389 . S
C230 H203 0.950 . S
C230 C216 1.377 . S
C230 C229 1.373 . S
C231 C215 1.377 . S
C231 C229 1.389 . S
C231 C232 1.524 . S
C232 C231 1.524 . S
C232 C233 1.397 . S
C232 C237 1.363 . S
C233 H204 0.950 . S
C233 C232 1.397 . S
C233 C234 1.334 . S
C234 H205 0.950 . S
C234 C233 1.334 . S
C234 C235 1.287 . S
C235 C234 1.287 . S
C235 C236 1.524 . S
C235 H238 0.999 . S
C236 H206 0.950 . S
C236 C235 1.524 . S
C236 C237 1.415 . S
C237 H207 0.950 . S
C237 C232 1.363 . S
C237 C236 1.415 . S
H238 C235 0.999 . S
H239 C220 0.913 . S
H240 C258 0.951 . S
H241 C260 0.951 . S
H242 C262 0.950 . S
H243 C263 0.950 . S
H244 C265 0.950 . S
H245 C268 0.950 . S
H246 C269 0.950 . S
H247 C271 0.950 . S
H248 C272 0.950 . S
H249 C273 0.951 . S
H250 C275 0.951 . S
H251 C277 0.950 . S
H252 C278 0.950 . S
H253 C280 0.950 . S
H254 C283 0.950 . S
H255 C284 0.950 . S
H256 C286 0.950 . S
H257 C287 0.950 . S
C258 H240 0.951 . S
C258 C259 1.366 . S
C258 C260 1.388 . S
C259 C258 1.366 . S
C259 C263 1.385 1_556 S
C260 H241 0.951 . S
C260 C258 1.388 . S
C260 C261 1.366 1_556 S
C261 C260 1.366 1_554 S
C261 C262 1.414 . S
C261 C264 1.499 . S
C262 H242 0.950 . S
C262 C261 1.414 . S
C262 C263 1.374 . S
C263 H243 0.950 . S
C263 C259 1.385 1_554 S
C263 C262 1.374 . S
C264 C261 1.499 . S
C264 C265 1.373 . S
C264 C266 1.389 1_554 S
C265 H244 0.950 . S
C265 C264 1.373 . S
C265 C281 1.377 . S
C266 C264 1.389 1_556 S
C266 C267 1.524 . S
C266 C280 1.377 . S
C267 C266 1.524 . S
C267 C268 1.397 1_556 S
C267 C272 1.363 . S
C268 H245 0.950 . S
C268 C267 1.397 1_554 S
C268 C269 1.334 . S
C269 H246 0.950 . S
C269 C268 1.334 . S
C269 C270 1.287 1_554 S
C270 C269 1.287 1_556 S
C270 C271 1.524 . S
C270 H289 0.913 . S
C271 H247 0.950 . S
C271 C270 1.524 . S
C271 C272 1.415 . S
C272 H248 0.950 . S
C272 C267 1.363 . S
C272 C271 1.415 . S
C273 H249 0.951 . S
C273 C274 1.366 1_554 S
C273 C275 1.388 . S
C274 C273 1.366 1_556 S
C274 C278 1.385 . S
C275 H250 0.951 . S
C275 C273 1.388 . S
C275 C276 1.366 1_554 S
C276 C275 1.366 1_556 S
C276 C277 1.414 . S
C276 C279 1.499 . S
C277 H251 0.950 . S
C277 C276 1.414 . S
C277 C278 1.374 . S
C278 H252 0.950 . S
C278 C274 1.385 . S
C278 C277 1.374 . S
C279 C276 1.499 . S
C279 C280 1.373 . S
C279 C281 1.389 1_556 S
C280 H253 0.950 . S
C280 C266 1.377 . S
C280 C279 1.373 . S
C281 C265 1.377 . S
C281 C279 1.389 1_554 S
C281 C282 1.524 . S
C282 C281 1.524 . S
C282 C283 1.397 1_554 S
C282 C287 1.363 . S
C283 H254 0.950 . S
C283 C282 1.397 1_556 S
C283 C284 1.334 . S
C284 H255 0.950 . S
C284 C283 1.334 . S
C284 C285 1.287 1_556 S
C285 C284 1.287 1_554 S
C285 C286 1.524 . S
C285 H288 0.999 . S
C286 H256 0.950 . S
C286 C285 1.524 . S
C286 C287 1.415 . S
C287 H257 0.950 . S
C287 C282 1.363 . S
C287 C286 1.415 . S
H288 C285 0.999 . S
H289 C270 0.913 . S
H290 C308 0.951 . S
H291 C310 0.951 . S
H292 C312 0.950 . S
H293 C313 0.950 . S
H294 C315 0.950 . S
H295 C318 0.950 . S
H296 C319 0.950 . S
H297 C321 0.950 . S
H298 C322 0.950 . S
H299 C323 0.951 . S
H300 C325 0.951 . S
H301 C327 0.950 . S
H302 C328 0.950 . S
H303 C330 0.950 . S
H304 C333 0.950 . S
H305 C334 0.950 . S
H306 C336 0.950 . S
H307 C337 0.950 . S
C308 H290 0.951 . S
C308 C309 1.366 . S
C308 C310 1.388 . S
C309 C308 1.366 . S
C309 C313 1.385 1_554 S
C310 H291 0.951 . S
C310 C308 1.388 . S
C310 C311 1.366 . S
C311 C310 1.366 . S
C311 C312 1.414 1_554 S
C311 C314 1.499 . S
C312 H292 0.950 . S
C312 C311 1.414 1_556 S
C312 C313 1.374 . S
C313 H293 0.950 . S
C313 C309 1.385 1_556 S
C313 C312 1.374 . S
C314 C311 1.499 . S
C314 C315 1.373 1_554 S
C314 C316 1.389 . S
C315 H294 0.950 . S
C315 C314 1.373 1_556 S
C315 C331 1.377 . S
C316 C314 1.389 . S
C316 C317 1.524 . S
C316 C330 1.377 . S
C317 C316 1.524 . S
C317 C318 1.397 . S
C317 C322 1.363 . S
C318 H295 0.950 . S
C318 C317 1.397 . S
C318 C319 1.334 . S
C319 H296 0.950 . S
C319 C318 1.334 . S
C319 C320 1.287 . S
C320 C319 1.287 . S
C320 C321 1.524 . S
C320 H339 0.913 . S
C321 H297 0.950 . S
C321 C320 1.524 . S
C321 C322 1.415 . S
C322 H298 0.950 . S
C322 C317 1.363 . S
C322 C321 1.415 . S
C323 H299 0.951 . S
C323 C324 1.361 1_556 S
C323 C325 1.388 . S
C324 C323 1.361 1_554 S
C324 C328 1.390 . S
C325 H300 0.951 . S
C325 C323 1.388 . S
C325 C326 1.366 . S
C326 C325 1.366 . S
C326 C327 1.414 1_556 S
C326 C329 1.499 . S
C327 H301 0.950 . S
C327 C326 1.414 1_554 S
C327 C328 1.374 . S
C328 H302 0.950 . S
C328 C324 1.390 . S
C328 C327 1.374 . S
C329 C326 1.499 . S
C329 C330 1.365 1_556 S
C329 C331 1.397 . S
C330 H303 0.950 . S
C330 C316 1.377 . S
C330 C329 1.365 1_554 S
C331 C315 1.377 . S
C331 C329 1.397 . S
C331 C332 1.524 . S
C332 C331 1.524 . S
C332 C333 1.397 . S
C332 C337 1.363 . S
C333 H304 0.950 . S
C333 C332 1.397 . S
C333 C334 1.334 . S
C334 H305 0.950 . S
C334 C333 1.334 . S
C334 C335 1.287 . S
C335 C334 1.287 . S
C335 C336 1.524 . S
C335 H338 0.999 . S
C336 H306 0.950 . S
C336 C335 1.524 . S
C336 C337 1.415 . S
C337 H307 0.950 . S
C337 C332 1.363 . S
C337 C336 1.415 . S
H338 C335 0.999 . S
H339 C320 0.913 . S
H340 C358 0.951 . S
H341 C360 0.951 . S
H342 C362 0.950 . S
H343 C363 0.950 . S
H344 C365 0.950 . S
H345 C368 0.950 . S
H346 C369 0.950 . S
H347 C371 0.950 . S
H348 C372 0.950 . S
H349 C373 0.951 . S
H350 C375 0.951 . S
H351 C377 0.950 . S
H352 C378 0.950 . S
H353 C380 0.950 . S
H354 C383 0.950 . S
H355 C384 0.950 . S
H356 C386 0.950 . S
H357 C387 0.950 . S
C358 H340 0.951 . S
C358 C359 1.366 . S
C358 C360 1.388 . S
C359 C358 1.366 . S
C359 C363 1.385 . S
C360 H341 0.951 . S
C360 C358 1.388 . S
C360 C361 1.366 . S
C361 C360 1.366 . S
C361 C362 1.414 . S
C361 C364 1.499 . S
C362 H342 0.950 . S
C362 C361 1.414 . S
C362 C363 1.374 . S
C363 H343 0.950 . S
C363 C359 1.385 . S
C363 C362 1.374 . S
C364 C361 1.499 . S
C364 C365 1.373 1_554 S
C364 C366 1.389 . S
C365 H344 0.950 . S
C365 C364 1.373 1_556 S
C365 C381 1.377 . S
C366 C364 1.389 . S
C366 C367 1.524 . S
C366 C380 1.377 . S
C367 C366 1.524 . S
C367 C368 1.397 . S
C367 C372 1.363 . S
C368 H345 0.950 . S
C368 C367 1.397 . S
C368 C369 1.334 . S
C369 H346 0.950 . S
C369 C368 1.334 . S
C369 C370 1.287 . S
C370 C369 1.287 . S
C370 C371 1.524 . S
C370 H389 0.913 . S
C371 H347 0.950 . S
C371 C370 1.524 . S
C371 C372 1.415 . S
C372 H348 0.950 . S
C372 C367 1.363 . S
C372 C371 1.415 . S
C373 H349 0.951 . S
C373 C374 1.366 . S
C373 C375 1.388 . S
C374 C373 1.366 . S
C374 C378 1.385 . S
C375 H350 0.951 . S
C375 C373 1.388 . S
C375 C376 1.366 . S
C376 C375 1.366 . S
C376 C377 1.414 . S
C376 C379 1.499 . S
C377 H351 0.950 . S
C377 C376 1.414 . S
C377 C378 1.374 . S
C378 H352 0.950 . S
C378 C374 1.385 . S
C378 C377 1.374 . S
C379 C376 1.499 . S
C379 C380 1.373 . S
C379 C381 1.389 1_554 S
C380 H353 0.950 . S
C380 C366 1.377 . S
C380 C379 1.373 . S
C381 C365 1.377 . S
C381 C379 1.389 1_556 S
C381 C382 1.524 . S
C382 C381 1.524 . S
C382 C383 1.397 . S
C382 C387 1.363 . S
C383 H354 0.950 . S
C383 C382 1.397 . S
C383 C384 1.334 . S
C384 H355 0.950 . S
C384 C383 1.334 . S
C384 C385 1.287 . S
C385 C384 1.287 . S
C385 C386 1.524 . S
C385 H388 0.999 . S
C386 H356 0.950 . S
C386 C385 1.524 . S
C386 C387 1.415 . S
C387 H357 0.950 . S
C387 C382 1.363 . S
C387 C386 1.415 . S
H388 C385 0.999 . S
H389 C370 0.913 . S
H390 C408 0.951 . S
H391 C410 0.951 . S
H392 C412 0.950 . S
H393 C413 0.950 . S
H394 C415 0.950 . S
H395 C418 0.950 . S
H396 C419 0.950 . S
H397 C421 0.950 . S
H398 C422 0.950 1_554 S
H399 C423 0.951 . S
H400 C425 0.951 . S
H401 C427 0.950 . S
H402 C428 0.950 . S
H403 C430 0.950 . S
H404 C433 0.950 . S
H405 C434 0.950 . S
H406 C436 0.950 . S
H407 C437 0.950 1_556 S
C408 H390 0.951 . S
C408 C409 1.368 . S
C408 C410 1.388 . S
C409 C408 1.368 . S
C409 C413 1.382 1_554 S
C410 H391 0.951 . S
C410 C408 1.388 . S
C410 C411 1.366 1_554 S
C411 C410 1.366 1_556 S
C411 C412 1.414 . S
C411 C414 1.499 . S
C412 H392 0.950 . S
C412 C411 1.414 . S
C412 C413 1.374 . S
C413 H393 0.950 . S
C413 C409 1.382 1_556 S
C413 C412 1.374 . S
C414 C411 1.499 . S
C414 C415 1.373 1_556 S
C414 C416 1.389 . S
C415 H394 0.950 . S
C415 C414 1.373 1_554 S
C415 C431 1.377 . S
C416 C414 1.389 . S
C416 C417 1.524 . S
C416 C430 1.377 . S
C417 C416 1.524 . S
C417 C418 1.397 . S
C417 C422 1.363 . S
C418 H395 0.950 . S
C418 C417 1.397 . S
C418 C419 1.334 . S
C419 H396 0.950 . S
C419 C418 1.334 . S
C419 C420 1.287 . S
C420 C419 1.287 . S
C420 C421 1.524 . S
C420 H439 0.913 . S
C421 H397 0.950 . S
C421 C420 1.524 . S
C421 C422 1.415 . S
C422 H398 0.950 1_556 S
C422 C417 1.363 . S
C422 C421 1.415 . S
C423 H399 0.951 . S
C423 C424 1.366 1_556 S
C423 C425 1.388 . S
C424 C423 1.366 1_554 S
C424 C428 1.385 . S
C425 H400 0.951 . S
C425 C423 1.388 . S
C425 C426 1.366 1_556 S
C426 C425 1.366 1_554 S
C426 C427 1.414 . S
C426 C429 1.499 . S
C427 H401 0.950 . S
C427 C426 1.414 . S
C427 C428 1.374 . S
C428 H402 0.950 . S
C428 C424 1.385 . S
C428 C427 1.374 . S
C429 C426 1.499 . S
C429 C430 1.373 1_554 S
C429 C431 1.389 . S
C430 H403 0.950 . S
C430 C416 1.377 . S
C430 C429 1.373 1_556 S
C431 C415 1.377 . S
C431 C429 1.389 . S
C431 C432 1.524 . S
C432 C431 1.524 . S
C432 C433 1.397 . S
C432 C437 1.363 . S
C433 H404 0.950 . S
C433 C432 1.397 . S
C433 C434 1.334 . S
C434 H405 0.950 . S
C434 C433 1.334 . S
C434 C435 1.287 . S
C435 C434 1.287 . S
C435 C436 1.524 . S
C435 H438 0.999 . S
C436 H406 0.950 . S
C436 C435 1.524 . S
C436 C437 1.415 . S
C437 H407 0.950 1_554 S
C437 C432 1.363 . S
C437 C436 1.415 . S
H438 C435 0.999 . S
H439 C420 0.913 . S
H440 C458 0.951 . S
H441 C460 0.951 . S
H442 C462 0.950 . S
H443 C463 0.950 . S
H444 C465 0.950 . S
H445 C468 0.950 . S
H446 C469 0.950 . S
H447 C471 0.950 . S
H448 C472 0.950 . S
H449 C473 0.951 . S
H450 C475 0.951 . S
H451 C477 0.950 . S
H452 C478 0.950 . S
H453 C480 0.950 . S
H454 C483 0.950 . S
H455 C484 0.950 . S
H456 C486 0.950 . S
H457 C487 0.950 . S
C458 H440 0.951 . S
C458 C459 1.363 1_554 S
C458 C460 1.388 . S
C459 C458 1.363 1_556 S
C459 C463 1.388 . S
C460 H441 0.951 . S
C460 C458 1.388 . S
C460 C461 1.366 1_554 S
C461 C460 1.366 1_556 S
C461 C462 1.414 . S
C461 C464 1.499 . S
C462 H442 0.950 . S
C462 C461 1.414 . S
C462 C463 1.374 . S
C463 H443 0.950 . S
C463 C459 1.388 . S
C463 C462 1.374 . S
C464 C461 1.499 . S
C464 C465 1.373 . S
C464 C466 1.389 1_556 S
C465 H444 0.950 . S
C465 C464 1.373 . S
C465 C481 1.377 . S
C466 C464 1.389 1_554 S
C466 C467 1.524 . S
C466 C480 1.377 . S
C467 C466 1.524 . S
C467 C468 1.397 1_554 S
C467 C472 1.363 . S
C468 H445 0.950 . S
C468 C467 1.397 1_556 S
C468 C469 1.334 . S
C469 H446 0.950 . S
C469 C468 1.334 . S
C469 C470 1.287 1_556 S
C470 C469 1.287 1_554 S
C470 C471 1.524 . S
C470 H489 0.913 . S
C471 H447 0.950 . S
C471 C470 1.524 . S
C471 C472 1.415 . S
C472 H448 0.950 . S
C472 C467 1.363 . S
C472 C471 1.415 . S
C473 H449 0.951 . S
C473 C474 1.366 . S
C473 C475 1.388 . S
C474 C473 1.366 . S
C474 C478 1.385 1_556 S
C475 H450 0.951 . S
C475 C473 1.388 . S
C475 C476 1.366 1_556 S
C476 C475 1.366 1_554 S
C476 C477 1.414 . S
C476 C479 1.499 . S
C477 H451 0.950 . S
C477 C476 1.414 . S
C477 C478 1.374 . S
C478 H452 0.950 . S
C478 C474 1.385 1_554 S
C478 C477 1.374 . S
C479 C476 1.499 . S
C479 C480 1.373 . S
C479 C481 1.389 1_554 S
C480 H453 0.950 . S
C480 C466 1.377 . S
C480 C479 1.373 . S
C481 C465 1.377 . S
C481 C479 1.389 1_556 S
C481 C482 1.524 . S
C482 C481 1.524 . S
C482 C483 1.397 1_556 S
C482 C487 1.363 . S
C483 H454 0.950 . S
C483 C482 1.397 1_554 S
C483 C484 1.334 . S
C484 H455 0.950 . S
C484 C483 1.334 . S
C484 C485 1.287 1_554 S
C485 C484 1.287 1_556 S
C485 C486 1.524 . S
C485 H488 0.999 . S
C486 H456 0.950 . S
C486 C485 1.524 . S
C486 C487 1.415 . S
C487 H457 0.950 . S
C487 C482 1.363 . S
C487 C486 1.415 . S
H488 C485 0.999 . S
H489 C470 0.913 . S
H490 C508 0.951 . S
H491 C510 0.951 . S
H492 C512 0.950 . S
H493 C513 0.950 . S
H494 C515 0.950 . S
H495 C518 0.950 . S
H496 C519 0.950 . S
H497 C521 0.950 . S
H498 C522 0.950 . S
H499 C523 0.951 . S
H500 C525 0.951 . S
H501 C527 0.950 . S
H502 C528 0.950 . S
H503 C530 0.950 . S
H504 C533 0.950 . S
H505 C534 0.950 . S
H506 C536 0.950 . S
H507 C537 0.950 . S
C508 H490 0.951 . S
C508 C509 1.366 . S
C508 C510 1.388 . S
C509 C508 1.366 . S
C509 C513 1.385 1_556 S
C510 H491 0.951 . S
C510 C508 1.388 . S
C510 C511 1.366 . S
C511 C510 1.366 . S
C511 C512 1.414 1_556 S
C511 C514 1.499 . S
C512 H492 0.950 . S
C512 C511 1.414 1_554 S
C512 C513 1.374 . S
C513 H493 0.950 . S
C513 C509 1.385 1_554 S
C513 C512 1.374 . S
C514 C511 1.499 . S
C514 C515 1.373 1_556 S
C514 C516 1.389 . S
C515 H494 0.950 . S
C515 C514 1.373 1_554 S
C515 C531 1.377 . S
C516 C514 1.389 . S
C516 C517 1.524 . S
C516 C530 1.377 . S
C517 C516 1.524 . S
C517 C518 1.397 . S
C517 C522 1.363 . S
C518 H495 0.950 . S
C518 C517 1.397 . S
C518 C519 1.334 . S
C519 H496 0.950 . S
C519 C518 1.334 . S
C519 C520 1.287 . S
C520 C519 1.287 . S
C520 C521 1.524 . S
C520 H539 0.913 . S
C521 H497 0.950 . S
C521 C520 1.524 . S
C521 C522 1.415 . S
C522 H498 0.950 . S
C522 C517 1.363 . S
C522 C521 1.415 . S
C523 H499 0.951 . S
C523 C524 1.366 1_554 S
C523 C525 1.388 . S
C524 C523 1.366 1_556 S
C524 C528 1.385 . S
C525 H500 0.951 . S
C525 C523 1.388 . S
C525 C526 1.366 1_554 S
C526 C525 1.366 1_556 S
C526 C527 1.414 . S
C526 C529 1.499 . S
C527 H501 0.950 . S
C527 C526 1.414 . S
C527 C528 1.374 . S
C528 H502 0.950 . S
C528 C524 1.385 . S
C528 C527 1.374 . S
C529 C526 1.499 . S
C529 C530 1.373 . S
C529 C531 1.389 1_556 S
C530 H503 0.950 . S
C530 C516 1.377 . S
C530 C529 1.373 . S
C531 C515 1.377 . S
C531 C529 1.389 1_554 S
C531 C532 1.524 . S
C532 C531 1.524 . S
C532 C533 1.397 . S
C532 C537 1.363 . S
C533 H504 0.950 . S
C533 C532 1.397 . S
C533 C534 1.334 . S
C534 H505 0.950 . S
C534 C533 1.334 . S
C534 C535 1.287 . S
C535 C534 1.287 . S
C535 C536 1.524 . S
C535 H538 0.999 . S
C536 H506 0.950 . S
C536 C535 1.524 . S
C536 C537 1.415 . S
C537 H507 0.950 . S
C537 C532 1.363 . S
C537 C536 1.415 . S
H538 C535 0.999 . S
H539 C520 0.913 . S
C109 C1 1.496 . S
C124 C10 1.499 1_455 S
C159 C40 1.500 . S
C174 C31 1.500 . S
C209 C70 1.500 . S
C224 C61 1.500 . S
C259 C27 1.496 . S
C274 C87 1.484 . S
C309 C57 1.013 . S
C324 N6 1.002 1_554 S
C359 N36 0.640 1_554 S
C374 N74 0.647 1_554 S
C409 C16 1.495 . S
C424 C76 1.491 . S
C459 N14 1.004 1_556 S
C474 C46 1.014 . S
C509 N66 0.641 1_556 S
C524 N44 0.638 1_556 S
