# Generated by pormake.
# Topology wns, (7)-cn, num edge types: 1
# Building blocks:
#     Node 0, Type 0, BuildingBlock: HICVOG_clean_sbu_0, # of connection points: 7
#     Node 1, Type 0, BuildingBlock: HICVOG_clean_sbu_0, # of connection points: 7
#     Node 2, Type 0, BuildingBlock: HICVOG_clean_sbu_0, # of connection points: 7
#     Node 3, Type 0, BuildingBlock: HICVOG_clean_sbu_0, # of connection points: 7
#     Node 4, Type 0, BuildingBlock: HICVOG_clean_sbu_0, # of connection points: 7
#     Node 5, Type 0, BuildingBlock: HICVOG_clean_sbu_0, # of connection points: 7
#     Node 6, Type 0, BuildingBlock: HICVOG_clean_sbu_0, # of connection points: 7
#     Node 7, Type 0, BuildingBlock: HICVOG_clean_sbu_0, # of connection points: 7
#     Node 8, Type 0, BuildingBlock: HICVOG_clean_sbu_0, # of connection points: 7
#     Node 9, Type 0, BuildingBlock: HICVOG_clean_sbu_0, # of connection points: 7
#     Node 10, Type 0, BuildingBlock: HICVOG_clean_sbu_0, # of connection points: 7
#     Node 11, Type 0, BuildingBlock: HICVOG_clean_sbu_0, # of connection points: 7
#     Edge 12, Type (0, 0), BuildingBlock: CIFDUS_clean_linker_0, # of connection points: 2
#     Edge 13, Type (0, 0), BuildingBlock: CIFDUS_clean_linker_0, # of connection points: 2
#     Edge 14, Type (0, 0), BuildingBlock: CIFDUS_clean_linker_0, # of connection points: 2
#     Edge 15, Type (0, 0), BuildingBlock: CIFDUS_clean_linker_0, # of connection points: 2
#     Edge 16, Type (0, 0), BuildingBlock: CIFDUS_clean_linker_0, # of connection points: 2
#     Edge 17, Type (0, 0), BuildingBlock: CIFDUS_clean_linker_0, # of connection points: 2
#     Edge 18, Type (0, 0), BuildingBlock: CIFDUS_clean_linker_0, # of connection points: 2
#     Edge 19, Type (0, 0), BuildingBlock: CIFDUS_clean_linker_0, # of connection points: 2
#     Edge 20, Type (0, 0), BuildingBlock: CIFDUS_clean_linker_0, # of connection points: 2
#     Edge 21, Type (0, 0), BuildingBlock: CIFDUS_clean_linker_0, # of connection points: 2
#     Edge 22, Type (0, 0), BuildingBlock: CIFDUS_clean_linker_0, # of connection points: 2
#     Edge 23, Type (0, 0), BuildingBlock: CIFDUS_clean_linker_0, # of connection points: 2
#     Edge 24, Type (0, 0), BuildingBlock: CIFDUS_clean_linker_0, # of connection points: 2
#     Edge 25, Type (0, 0), BuildingBlock: CIFDUS_clean_linker_0, # of connection points: 2
#     Edge 26, Type (0, 0), BuildingBlock: CIFDUS_clean_linker_0, # of connection points: 2
#     Edge 27, Type (0, 0), BuildingBlock: CIFDUS_clean_linker_0, # of connection points: 2
#     Edge 28, Type (0, 0), BuildingBlock: CIFDUS_clean_linker_0, # of connection points: 2
#     Edge 29, Type (0, 0), BuildingBlock: CIFDUS_clean_linker_0, # of connection points: 2
#     Edge 30, Type (0, 0), BuildingBlock: CIFDUS_clean_linker_0, # of connection points: 2
#     Edge 31, Type (0, 0), BuildingBlock: CIFDUS_clean_linker_0, # of connection points: 2
#     Edge 32, Type (0, 0), BuildingBlock: CIFDUS_clean_linker_0, # of connection points: 2
#     Edge 33, Type (0, 0), BuildingBlock: CIFDUS_clean_linker_0, # of connection points: 2
#     Edge 34, Type (0, 0), BuildingBlock: CIFDUS_clean_linker_0, # of connection points: 2
#     Edge 35, Type (0, 0), BuildingBlock: CIFDUS_clean_linker_0, # of connection points: 2
#     Edge 36, Type (0, 0), BuildingBlock: CIFDUS_clean_linker_0, # of connection points: 2
#     Edge 37, Type (0, 0), BuildingBlock: CIFDUS_clean_linker_0, # of connection points: 2
#     Edge 38, Type (0, 0), BuildingBlock: CIFDUS_clean_linker_0, # of connection points: 2
#     Edge 39, Type (0, 0), BuildingBlock: CIFDUS_clean_linker_0, # of connection points: 2
#     Edge 40, Type (0, 0), BuildingBlock: CIFDUS_clean_linker_0, # of connection points: 2
#     Edge 41, Type (0, 0), BuildingBlock: CIFDUS_clean_linker_0, # of connection points: 2
#     Edge 42, Type (0, 0), BuildingBlock: CIFDUS_clean_linker_0, # of connection points: 2
#     Edge 43, Type (0, 0), BuildingBlock: CIFDUS_clean_linker_0, # of connection points: 2
#     Edge 44, Type (0, 0), BuildingBlock: CIFDUS_clean_linker_0, # of connection points: 2
#     Edge 45, Type (0, 0), BuildingBlock: CIFDUS_clean_linker_0, # of connection points: 2
#     Edge 46, Type (0, 0), BuildingBlock: CIFDUS_clean_linker_0, # of connection points: 2
#     Edge 47, Type (0, 0), BuildingBlock: CIFDUS_clean_linker_0, # of connection points: 2
#     Edge 48, Type (0, 0), BuildingBlock: CIFDUS_clean_linker_0, # of connection points: 2
#     Edge 49, Type (0, 0), BuildingBlock: CIFDUS_clean_linker_0, # of connection points: 2
#     Edge 50, Type (0, 0), BuildingBlock: CIFDUS_clean_linker_0, # of connection points: 2
#     Edge 51, Type (0, 0), BuildingBlock: CIFDUS_clean_linker_0, # of connection points: 2
#     Edge 52, Type (0, 0), BuildingBlock: CIFDUS_clean_linker_0, # of connection points: 2
#     Edge 53, Type (0, 0), BuildingBlock: CIFDUS_clean_linker_0, # of connection points: 2
# Relax obj value: 0.156
# Max RMSD: 0.215
# Mean RMSD: 0.215
data_MOF--net-wns--node1-HICVOG_clean_sbu_0--edge1-CIFDUS_clean_linker_0
_symmetry_space_group_name_H-M    P1
_symmetry_Int_Tables_number       1
_symmetry_cell_setting            triclinic
loop_
_symmetry_equiv_pos_as_xyz
'x, y, z'
_cell_length_a     37.574304
_cell_length_b     37.631241
_cell_length_c     31.542037
_cell_angle_alpha  89.900551
_cell_angle_beta   89.815189
_cell_angle_gamma 120.08198
loop_
_atom_site_label
_atom_site_type_symbol
_atom_site_fract_x
_atom_site_fract_y
_atom_site_fract_z
_atom_type_partial_charge
Zn0 Zn 0.42892 0.28576 0.17003 0.0
C1 C 0.3316 0.24644 0.08911 0.0
N2 N 0.31714 0.26329 0.1161 0.0
C3 C 0.34345 0.27521 0.14877 0.0
N4 N 0.37445 0.26664 0.14143 0.0
N5 N 0.36568 0.24786 0.10395 0.0
C6 C 0.39376 0.23503 0.98804 0.0
O7 O 0.41879 0.27286 1.00042 0.0
O8 O 0.42112 0.26964 0.23322 0.0
Zn9 Zn 0.38155 0.21104 0.07939 0.0
N10 N 0.46292 0.34578 0.16094 0.0
C11 C 0.46492 0.40889 0.14586 0.0
C12 C 0.44309 0.36746 0.15645 0.0
C13 C 0.50447 0.3644 0.15397 0.0
N14 N 0.50582 0.42707 0.13835 0.0
C15 C 0.52658 0.4062 0.14165 0.0
O16 O 0.43827 0.22349 0.09139 0.0
C17 C 0.46756 0.24195 0.11736 0.0
O18 O 0.4657 0.26368 0.14724 0.0
H19 H 0.41036 0.35273 0.1594 0.0
H20 H 0.51965 0.34647 0.15592 0.0
C21 C 0.32181 0.12586 0.07255 0.0
C22 C 0.29767 0.08506 0.08662 0.0
C23 C 0.31976 0.1071 0.15699 0.0
C24 C 0.34391 0.14755 0.14272 0.0
N25 N 0.34475 0.15605 0.10074 0.0
N26 N 0.29762 0.07675 0.12865 0.0
H27 H 0.32363 0.13331 0.03921 0.0
C28 C 0.42311 0.23884 0.24713 0.0
O29 O 0.43053 0.21663 0.22034 0.0
O30 O 0.37532 0.20694 0.01562 0.0
H31 H 0.36241 0.17188 0.16472 0.0
H32 H 0.44924 0.42623 0.14234 0.0
H33 H 0.31911 0.09978 0.19026 0.0
Zn34 Zn 0.7349 0.16068 0.16406 0.0
C35 C 0.7662 0.09455 0.08641 0.0
N36 N 0.74348 0.06371 0.113 0.0
C37 C 0.7337 0.08174 0.1439 0.0
N38 N 0.74947 0.12263 0.13609 0.0
N39 N 0.77092 0.13055 0.10017 0.0
C40 C 0.82729 0.22036 0.9952 0.0
O41 O 0.84496 0.25434 0.01751 0.0
O42 O 0.74001 0.15959 0.22797 0.0
Zn43 Zn 0.81513 0.18257 0.07828 0.0
N44 N 0.67869 0.1454 0.14755 0.0
C45 C 0.61759 0.09752 0.11165 0.0
C46 C 0.65642 0.10892 0.12718 0.0
C47 C 0.66322 0.17114 0.15306 0.0
N48 N 0.60258 0.12332 0.11639 0.0
C49 C 0.6241 0.15997 0.13662 0.0
O50 O 0.81921 0.23366 0.10267 0.0
C51 C 0.80145 0.24588 0.12817 0.0
O52 O 0.77049 0.22089 0.15011 0.0
H53 H 0.66877 0.08887 0.12232 0.0
H54 H 0.68168 0.20042 0.16853 0.0
C55 C 0.90185 0.21718 0.07269 0.0
C56 C 0.94027 0.22019 0.07923 0.0
C57 C 0.9076 0.15978 0.12141 0.0
C58 C 0.86958 0.15713 0.11495 0.0
N59 N 0.86737 0.18561 0.09026 0.0
N60 N 0.94196 0.19097 0.10319 0.0
H61 H 0.89912 0.23914 0.0529 0.0
C62 C 0.77461 0.17813 0.24651 0.0
O63 O 0.80828 0.19816 0.22362 0.0
O64 O 0.81142 0.18593 0.01438 0.0
H65 H 0.84215 0.13244 0.12934 0.0
H66 H 0.59972 0.06863 0.09532 0.0
H67 H 0.90976 0.13709 0.1406 0.0
Zn68 Zn 0.85234 0.57744 0.18269 0.0
C69 C 0.92593 0.65163 0.08782 0.0
N70 N 0.95536 0.65878 0.11616 0.0
C71 C 0.93392 0.63701 0.14997 0.0
N72 N 0.89298 0.61702 0.14279 0.0
N73 N 0.88767 0.62659 0.10366 0.0
C74 C 0.82407 0.58178 0.9988 0.0
O75 O 0.81865 0.55036 0.02195 0.0
O76 O 0.84556 0.60332 0.23618 0.0
Zn77 Zn 0.83557 0.6182 0.08124 0.0
N78 N 0.87076 0.53983 0.20013 0.0
C79 C 0.91488 0.52534 0.24151 0.0
C80 C 0.90046 0.55167 0.23011 0.0
C81 C 0.85332 0.5017 0.18265 0.0
N82 N 0.89791 0.48754 0.22366 0.0
C83 C 0.86701 0.47466 0.19486 0.0
O84 O 0.78377 0.5661 0.10066 0.0
C85 C 0.7716 0.53915 0.12998 0.0
O86 O 0.79543 0.54165 0.15971 0.0
H87 H 0.91274 0.58119 0.24522 0.0
H88 H 0.82921 0.49264 0.15938 0.0
C89 C 0.80115 0.67001 0.07609 0.0
C90 C 0.79688 0.70429 0.08506 0.0
C91 C 0.84984 0.72579 0.13625 0.0
C92 C 0.85385 0.69163 0.12722 0.0
N93 N 0.82961 0.66461 0.09709 0.0
N94 N 0.82177 0.73153 0.11481 0.0
H95 H 0.78292 0.64827 0.05175 0.0
C96 C 0.81418 0.60712 0.24266 0.0
O97 O 0.78697 0.59729 0.21235 0.0
O98 O 0.83404 0.61557 0.01709 0.0
H99 H 0.87637 0.68696 0.14373 0.0
H100 H 0.939 0.53465 0.26479 0.0
H101 H 0.86914 0.74777 0.15989 0.0
Zn102 Zn 0.3027 0.43452 0.34145 0.0
C103 C 0.27795 0.34324 0.42596 0.0
N104 N 0.29915 0.33399 0.39826 0.0
C105 C 0.30353 0.35811 0.36502 0.0
N106 N 0.28698 0.38241 0.3724 0.0
N107 N 0.26978 0.37188 0.41068 0.0
C108 C 0.23475 0.42306 0.51265 0.0
O109 O 0.24459 0.45371 0.48634 0.0
O110 O 0.29863 0.42546 0.27769 0.0
Zn111 Zn 0.22705 0.38107 0.43315 0.0
N112 N 0.36044 0.47385 0.35506 0.0
C113 C 0.42545 0.48361 0.37665 0.0
C114 C 0.38452 0.45789 0.36626 0.0
C115 C 0.3762 0.51543 0.35421 0.0
N116 N 0.44098 0.52467 0.37599 0.0
C117 C 0.41781 0.54182 0.36527 0.0
O118 O 0.2266 0.42884 0.40637 0.0
C119 C 0.24081 0.45776 0.3793 0.0
O120 O 0.26936 0.46308 0.35373 0.0
H121 H 0.37236 0.42545 0.36765 0.0
H122 H 0.35636 0.5275 0.34596 0.0
C123 C 0.1397 0.33158 0.43632 0.0
C124 C 0.10081 0.29743 0.42769 0.0
C125 C 0.13295 0.26926 0.38559 0.0
C126 C 0.1714 0.30339 0.39393 0.0
N127 N 0.17408 0.33359 0.41965 0.0
N128 N 0.09864 0.2669 0.40282 0.0
H129 H 0.14286 0.35605 0.4568 0.0
C130 C 0.26485 0.41345 0.25821 0.0
O131 O 0.23179 0.40509 0.28022 0.0
O132 O 0.22877 0.38897 0.49782 0.0
H133 H 0.19884 0.30553 0.38032 0.0
H134 H 0.44474 0.47106 0.38552 0.0
H135 H 0.13041 0.24474 0.36564 0.0
Zn136 Zn 0.59383 0.86266 0.33445 0.0
C137 C 0.6875 0.94038 0.41089 0.0
N138 N 0.69522 0.96662 0.37861 0.0
C139 C 0.6684 0.94247 0.3492 0.0
N140 N 0.64478 0.90328 0.36281 0.0
N141 N 0.65764 0.90173 0.40156 0.0
C142 C 0.63183 0.81954 0.51359 0.0
O143 O 0.6173 0.7853 0.49205 0.0
O144 O 0.60527 0.86028 0.27199 0.0
Zn145 Zn 0.65218 0.85277 0.42872 0.0
N146 N 0.55331 0.88059 0.34034 0.0
C147 C 0.54082 0.93604 0.35131 0.0
C148 C 0.56785 0.92146 0.34555 0.0
C149 C 0.51199 0.85334 0.34118 0.0
N150 N 0.49998 0.90905 0.35279 0.0
C151 C 0.48447 0.86794 0.34815 0.0
O152 O 0.60276 0.80042 0.4096 0.0
C153 C 0.57255 0.78339 0.38429 0.0
O154 O 0.56655 0.80395 0.35608 0.0
H155 H 0.60012 0.94278 0.34616 0.0
H156 H 0.50092 0.82082 0.33797 0.0
C157 C 0.70344 0.81663 0.4296 0.0
C158 C 0.73869 0.81373 0.42122 0.0
C159 C 0.76626 0.87522 0.38096 0.0
C160 C 0.73118 0.87791 0.38941 0.0
N161 N 0.70062 0.84885 0.41406 0.0
N162 N 0.76944 0.84352 0.39736 0.0
H163 H 0.67893 0.79409 0.4493 0.0
C164 C 0.61332 0.83328 0.2582 0.0
O165 O 0.6145 0.80719 0.28506 0.0
O166 O 0.64828 0.85356 0.49345 0.0
H167 H 0.72862 0.90314 0.37656 0.0
H168 H 0.55221 0.96852 0.35542 0.0
H169 H 0.79096 0.89837 0.36178 0.0
Zn170 Zn 0.16418 0.72807 0.32862 0.0
C171 C 0.09505 0.75704 0.40611 0.0
N172 N 0.06564 0.73733 0.37739 0.0
C173 C 0.08507 0.7293 0.3462 0.0
N174 N 0.12515 0.74254 0.35629 0.0
N175 N 0.13108 0.76101 0.3937 0.0
C176 C 0.20766 0.80306 0.5085 0.0
O177 O 0.24207 0.81431 0.48787 0.0
O178 O 0.172 0.74366 0.26551 0.0
Zn179 Zn 0.18086 0.79875 0.42291 0.0
N180 N 0.14327 0.66892 0.33841 0.0
C181 C 0.08746 0.60479 0.36189 0.0
C182 C 0.10372 0.64607 0.35234 0.0
C183 C 0.16794 0.65187 0.33544 0.0
N184 N 0.11188 0.58803 0.35916 0.0
C185 C 0.15196 0.61017 0.34674 0.0
O186 O 0.22983 0.79575 0.40496 0.0
C187 C 0.24495 0.7812 0.379 0.0
O188 O 0.22322 0.75662 0.34992 0.0
H189 H 0.08474 0.65964 0.35675 0.0
H190 H 0.19983 0.67097 0.32623 0.0
C191 C 0.22717 0.88542 0.43059 0.0
C192 C 0.23861 0.92669 0.4232 0.0
C193 C 0.18283 0.90434 0.37535 0.0
C194 C 0.17203 0.86347 0.38251 0.0
N195 N 0.19418 0.85479 0.41036 0.0
N196 N 0.21564 0.93493 0.39591 0.0
H197 H 0.24387 0.87748 0.45284 0.0
C198 C 0.16853 0.7734 0.25102 0.0
O199 O 0.15808 0.79394 0.27697 0.0
O200 O 0.17494 0.79217 0.48739 0.0
H201 H 0.14608 0.83894 0.36623 0.0
H202 H 0.05591 0.58636 0.37248 0.0
H203 H 0.16523 0.9117 0.35361 0.0
Zn204 Zn 0.65052 0.81332 0.93075 0.0
C205 C 0.67279 0.74689 0.85002 0.0
N206 N 0.70075 0.75088 0.87888 0.0
C207 C 0.69205 0.76792 0.91174 0.0
N208 N 0.65992 0.77335 0.90355 0.0
N209 N 0.64719 0.75949 0.8648 0.0
C210 C 0.60061 0.76962 0.76229 0.0
O211 O 0.6109 0.80271 0.78479 0.0
O212 O 0.65427 0.8135 0.99452 0.0
Zn213 Zn 0.59022 0.73593 0.84576 0.0
N214 N 0.6919 0.86643 0.9093 0.0
C215 C 0.72402 0.91096 0.85034 0.0
C216 C 0.69672 0.87204 0.86664 0.0
C217 C 0.71381 0.89799 0.93639 0.0
N218 N 0.74515 0.9428 0.87736 0.0
C219 C 0.74106 0.9373 0.92012 0.0
O220 O 0.56067 0.76606 0.86466 0.0
C221 C 0.56519 0.79228 0.8927 0.0
O222 O 0.59641 0.80857 0.9168 0.0
H223 H 0.6789 0.84664 0.8455 0.0
H224 H 0.70875 0.89286 0.97019 0.0
C225 C 0.51804 0.65434 0.86397 0.0
C226 C 0.49842 0.61498 0.88335 0.0
C227 C 0.56301 0.62883 0.91075 0.0
C228 C 0.58196 0.66735 0.89194 0.0
N229 N 0.55954 0.67963 0.8687 0.0
N230 N 0.52206 0.60384 0.90608 0.0
H231 H 0.50097 0.66484 0.84537 0.0
C232 C 0.63834 0.78185 0.01818 0.0
O233 O 0.61992 0.74521 1.00091 0.0
O234 O 0.58979 0.73589 0.78154 0.0
H235 H 0.61438 0.68723 0.89655 0.0
H236 H 0.72785 0.91597 0.81644 0.0
H237 H 0.58066 0.61889 0.92925 0.0
Zn238 Zn 0.21351 0.83891 0.92209 0.0
C239 C 0.28836 0.94055 0.85155 0.0
N240 N 0.27574 0.95811 0.88033 0.0
C241 C 0.25476 0.92808 0.90866 0.0
N242 N 0.2537 0.89285 0.89768 0.0
N243 N 0.27576 0.90081 0.86215 0.0
C244 C 0.25614 0.84565 0.75586 0.0
O245 O 0.22269 0.82939 0.77938 0.0
O246 O 0.21455 0.83628 0.98676 0.0
Zn247 Zn 0.29603 0.86602 0.83808 0.0
N248 N 0.15857 0.82686 0.90651 0.0
C249 C 0.1103 0.81659 0.85238 0.0
C250 C 0.15068 0.83019 0.86514 0.0
C251 C 0.12771 0.81107 0.93585 0.0
N252 N 0.07934 0.79999 0.88149 0.0
C253 C 0.08695 0.79709 0.92311 0.0
O254 O 0.26624 0.80649 0.85373 0.0
C255 C 0.23685 0.77996 0.87613 0.0
O256 O 0.21624 0.78967 0.90066 0.0
H257 H 0.17544 0.84231 0.84212 0.0
H258 H 0.13459 0.80785 0.96844 0.0
C259 C 0.37105 0.86398 0.85349 0.0
C260 C 0.41038 0.87833 0.87103 0.0
C261 C 0.41043 0.93821 0.89488 0.0
C262 C 0.37132 0.92352 0.87831 0.0
N263 N 0.35243 0.88697 0.85755 0.0
N264 N 0.42884 0.9153 0.89109 0.0
H265 H 0.35469 0.83435 0.83821 0.0
C266 C 0.23091 0.81793 0.00526 0.0
O267 O 0.25054 0.80408 0.98226 0.0
O268 O 0.29109 0.86347 0.77385 0.0
H269 H 0.35611 0.94112 0.88245 0.0
H270 H 0.10354 0.81863 0.81945 0.0
H271 H 0.42584 0.96732 0.91126 0.0
Zn272 Zn 0.19249 0.38994 0.92279 0.0
C273 C 0.09751 0.36288 0.84844 0.0
N274 N 0.07649 0.33465 0.87846 0.0
C275 C 0.10439 0.34573 0.90956 0.0
N276 N 0.14065 0.37901 0.89914 0.0
N277 N 0.13607 0.39042 0.86079 0.0
C278 C 0.186 0.41734 0.76111 0.0
O279 O 0.19611 0.39919 0.79044 0.0
O280 O 0.19051 0.38863 0.98752 0.0
Zn281 Zn 0.16769 0.44552 0.83652 0.0
N282 N 0.20174 0.34598 0.9033 0.0
C283 C 0.18394 0.28854 0.85844 0.0
C284 C 0.17889 0.32134 0.8709 0.0
C285 C 0.23029 0.33964 0.92287 0.0
N286 N 0.21184 0.28171 0.87866 0.0
C287 C 0.2356 0.30674 0.91035 0.0
O288 O 0.22708 0.4783 0.85555 0.0
C289 C 0.25232 0.47501 0.87978 0.0
O290 O 0.24126 0.44381 0.90362 0.0
H291 H 0.15657 0.32672 0.85506 0.0
H292 H 0.24791 0.35929 0.94874 0.0
C293 C 0.15502 0.51699 0.84661 0.0
C294 C 0.13269 0.53578 0.86127 0.0
C295 C 0.08018 0.47103 0.88672 0.0
C296 C 0.10251 0.45299 0.87313 0.0
N297 N 0.13913 0.4757 0.8526 0.0
N298 N 0.09575 0.51169 0.88062 0.0
H299 H 0.18444 0.53468 0.83087 0.0
C300 C 0.22401 0.40505 0.00836 0.0
O301 O 0.25907 0.42398 0.98754 0.0
O302 O 0.17136 0.43996 0.77259 0.0
H303 H 0.09049 0.42107 0.87992 0.0
H304 H 0.16557 0.26846 0.83308 0.0
H305 H 0.05094 0.453 0.90273 0.0
Zn306 Zn 0.74137 0.59397 0.67145 0.0
C307 C 0.77292 0.68953 0.59107 0.0
N308 N 0.75201 0.69963 0.6181 0.0
C309 C 0.74261 0.67266 0.64998 0.0
N310 N 0.75646 0.64601 0.64206 0.0
N311 N 0.77638 0.65764 0.60517 0.0
C312 C 0.79289 0.63447 0.49026 0.0
O313 O 0.75434 0.61248 0.50249 0.0
O314 O 0.75819 0.60386 0.73396 0.0
Zn315 Zn 0.81702 0.64561 0.58169 0.0
N316 N 0.68235 0.55615 0.66198 0.0
C317 C 0.61806 0.54576 0.63672 0.0
C318 C 0.65865 0.57186 0.64835 0.0
C319 C 0.66682 0.51467 0.66315 0.0
N320 N 0.60292 0.50472 0.6373 0.0
C321 C 0.6261 0.48813 0.64984 0.0
O322 O 0.81113 0.5908 0.59587 0.0
C323 C 0.79277 0.56195 0.62269 0.0
O324 O 0.76843 0.56279 0.65012 0.0
H325 H 0.67111 0.60437 0.64513 0.0
H326 H 0.68659 0.5027 0.6721 0.0
C327 C 0.9036 0.68877 0.58086 0.0
C328 C 0.94356 0.72058 0.58999 0.0
C329 C 0.91578 0.74715 0.64006 0.0
C330 C 0.87607 0.71553 0.63067 0.0
N331 N 0.87082 0.68721 0.60095 0.0
N332 N 0.94855 0.74927 0.61921 0.0
H333 H 0.89828 0.66627 0.55668 0.0
C334 C 0.75902 0.57624 0.75653 0.0
O335 O 0.74778 0.54032 0.73952 0.0
O336 O 0.82106 0.65057 0.51791 0.0
H337 H 0.84971 0.71411 0.64626 0.0
H338 H 0.59904 0.55805 0.62603 0.0
H339 H 0.92047 0.77022 0.66328 0.0
Zn340 Zn 0.44711 0.17432 0.67926 0.0
C341 C 0.37951 0.09098 0.5892 0.0
N342 N 0.37502 0.06431 0.62004 0.0
C343 C 0.39253 0.08872 0.6536 0.0
N344 N 0.408 0.12876 0.6435 0.0
N345 N 0.39851 0.13016 0.60325 0.0
C346 C 0.41774 0.16587 0.48707 0.0
O347 O 0.44226 0.15404 0.50341 0.0
O348 O 0.42136 0.18169 0.73292 0.0
Zn349 Zn 0.40056 0.17778 0.57614 0.0
N350 N 0.48973 0.1625 0.69726 0.0
C351 C 0.50922 0.123 0.74015 0.0
C352 C 0.48007 0.13344 0.72771 0.0
C353 C 0.52838 0.18318 0.6802 0.0
N354 N 0.54738 0.14292 0.72255 0.0
C355 C 0.55811 0.17319 0.69319 0.0
O356 O 0.45199 0.23138 0.58786 0.0
C357 C 0.4789 0.24849 0.61663 0.0
O358 O 0.4781 0.22934 0.65012 0.0
H359 H 0.45001 0.11857 0.74236 0.0
H360 H 0.53576 0.20672 0.65649 0.0
C361 C 0.35188 0.2155 0.58086 0.0
C362 C 0.31828 0.22016 0.59244 0.0
C363 C 0.29282 0.16049 0.63549 0.0
C364 C 0.32629 0.15604 0.62383 0.0
N365 N 0.35493 0.18346 0.59642 0.0
N366 N 0.28934 0.19212 0.61927 0.0
H367 H 0.37487 0.23636 0.55855 0.0
C368 C 0.42096 0.21476 0.74019 0.0
O369 O 0.434 0.24322 0.71063 0.0
O370 O 0.39656 0.17482 0.51172 0.0
H371 H 0.32905 0.13064 0.63597 0.0
H372 H 0.50169 0.09945 0.76388 0.0
H373 H 0.26954 0.13868 0.65692 0.0
Zn374 Zn 0.85076 0.22547 0.57936 0.0
C375 C 0.95022 0.29494 0.64985 0.0
N376 N 0.96702 0.28315 0.61928 0.0
C377 C 0.9367 0.26431 0.59139 0.0
N378 N 0.90256 0.26448 0.60368 0.0
N379 N 0.9107 0.28456 0.64025 0.0
C380 C 0.85592 0.26886 0.74644 0.0
O381 O 0.83769 0.23519 0.72369 0.0
O382 O 0.85269 0.22919 0.51529 0.0
Zn383 Zn 0.87604 0.30611 0.66337 0.0
N384 N 0.84063 0.17166 0.5962 0.0
C385 C 0.82834 0.12401 0.65192 0.0
C386 C 0.83972 0.16366 0.63834 0.0
C387 C 0.8316 0.14184 0.56701 0.0
N388 N 0.81784 0.09382 0.62281 0.0
C389 C 0.81947 0.10175 0.58053 0.0
O390 O 0.81472 0.27489 0.64878 0.0
C391 C 0.78951 0.24566 0.62528 0.0
O392 O 0.80152 0.22747 0.60014 0.0
H393 H 0.84691 0.18772 0.66115 0.0
H394 H 0.83206 0.14879 0.53368 0.0
C395 C 0.877 0.38169 0.63703 0.0
C396 C 0.89559 0.42124 0.61844 0.0
C397 C 0.95847 0.42101 0.61275 0.0
C398 C 0.93993 0.38193 0.63037 0.0
N399 N 0.8997 0.36283 0.64247 0.0
N400 N 0.93595 0.43954 0.60705 0.0
H401 H 0.84477 0.3656 0.64576 0.0
C402 C 0.81897 0.20866 0.49545 0.0
O403 O 0.78488 0.18709 0.51735 0.0
O404 O 0.87453 0.30341 0.72759 0.0
H405 H 0.95773 0.36695 0.63365 0.0
H406 H 0.82699 0.11709 0.68539 0.0
H407 H 0.99044 0.43635 0.6031 0.0
H408 H 0.22242 0.97573 0.92562 0.0
H409 H 0.2745 0.90932 0.98515 0.0
H410 H 0.28512 0.94803 0.05049 0.0
H411 H 0.29374 1.01099 0.08447 0.0
H412 H 0.25101 0.08359 0.01982 0.0
H413 H 0.22339 0.03327 0.9627 0.0
C414 C 0.23442 0.96859 0.95362 0.0
C415 C 0.2462 0.93861 0.95108 0.0
C416 C 0.2438 0.99355 0.98964 0.0
C417 C 0.26292 0.93044 0.98702 0.0
C418 C 0.27026 0.95363 0.024 0.0
C419 C 0.2775 0.01519 0.05833 0.0
C420 C 0.27504 0.05127 0.05595 0.0
C421 C 0.26286 0.98672 0.02482 0.0
C422 C 0.25403 0.05648 0.0219 0.0
C423 C 0.23809 0.02763 0.98932 0.0
H424 H 1.00251 0.21355 0.04339 0.0
H425 H 0.96289 0.30099 0.06913 0.0
H426 H 0.01894 0.35231 0.02556 0.0
H427 H 0.07108 0.36797 0.97072 0.0
H428 H 0.10663 0.27892 0.93914 0.0
H429 H 0.06172 0.23313 0.99543 0.0
C430 C 1.00675 0.24413 0.04015 0.0
C431 C 0.97798 0.25312 0.05854 0.0
C432 C 0.03857 0.27326 0.01412 0.0
C433 C 0.98389 0.29292 0.05427 0.0
C434 C 1.01611 0.32238 0.02958 0.0
C435 C 0.0703 0.33931 0.97764 0.0
C436 C 0.09244 0.3269 0.9517 0.0
C437 C 0.04257 0.31236 0.00806 0.0
C438 C 0.09044 0.28928 0.95959 0.0
C439 C 0.06424 0.2629 0.99124 0.0
H440 H 0.80818 0.77763 0.05674 0.0
H441 H 0.71899 0.64808 0.06045 0.0
H442 H 0.67435 0.65887 0.01274 0.0
H443 H 0.66563 0.70295 0.96188 0.0
H444 H 0.75601 0.83139 0.95328 0.0
H445 H 0.79478 0.82379 0.01186 0.0
C446 C 0.77862 0.75195 0.04768 0.0
C447 C 0.76741 0.71196 0.06121 0.0
C448 C 0.75334 0.75829 0.01946 0.0
C449 C 0.72891 0.67896 0.04947 0.0
C450 C 0.70322 0.68514 0.0224 0.0
C451 C 0.69305 0.72951 0.97403 0.0
C452 C 0.7079 0.76773 0.95409 0.0
C453 C 0.71581 0.72435 0.00605 0.0
C454 C 0.74385 0.80189 0.96896 0.0
C455 C 0.76617 0.79734 1.00198 0.0
H456 H 0.0361 0.22911 0.46167 0.0
H457 H 0.08025 0.35715 0.43557 0.0
H458 H 0.02277 0.35353 0.47551 0.0
H459 H 0.9685 0.31786 0.5284 0.0
H460 H 0.92986 0.19296 0.56252 0.0
H461 H 0.97485 0.19041 0.50754 0.0
C462 C 0.03256 0.25593 0.46406 0.0
C463 C 0.06286 0.29359 0.44661 0.0
C464 C 1.00005 0.25392 0.48827 0.0
C465 C 0.05793 0.32812 0.44973 0.0
C466 C 0.02492 0.32599 0.47231 0.0
C467 C 0.96849 0.28949 0.52217 0.0
C468 C 0.94563 0.25545 0.54872 0.0
C469 C 0.99683 0.28956 0.49312 0.0
C470 C 0.94658 0.21916 0.54165 0.0
C471 C 0.97298 0.21809 0.51086 0.0
H472 H 0.72028 0.66545 0.52745 0.0
H473 H 0.84392 0.75507 0.56208 0.0
H474 H 0.84647 0.80062 0.50492 0.0
H475 H 0.80753 0.82038 0.4566 0.0
H476 H 0.68099 0.73245 0.42843 0.0
H477 H 0.68531 0.68066 0.47118 0.0
C478 C 0.74845 0.6941 0.52092 0.0
C479 C 0.78209 0.70685 0.54817 0.0
C480 C 0.74848 0.72095 0.49008 0.0
C481 C 0.81807 0.74443 0.5407 0.0
C482 C 0.81915 0.77071 0.50856 0.0
C483 C 0.78128 0.78956 0.45904 0.0
C484 C 0.74369 0.78052 0.44036 0.0
C485 C 0.78365 0.76025 0.4848 0.0
C486 C 0.7099 0.74045 0.44353 0.0
C487 C 0.71242 0.71078 0.46778 0.0
H488 H 0.24672 0.9992 0.45074 0.0
H489 H 0.31128 0.9313 0.44493 0.0
H490 H 0.36501 0.98167 0.49034 0.0
H491 H 0.38846 0.039 0.53961 0.0
H492 H 0.32404 0.10635 0.54865 0.0
H493 H 0.27638 0.06339 0.49297 0.0
C494 C 0.27291 0.99585 0.45885 0.0
C495 C 0.27411 0.96066 0.44563 0.0
C496 C 0.30388 0.02502 0.48538 0.0
C497 C 0.30859 0.95709 0.45597 0.0
C498 C 0.33962 0.98614 0.48166 0.0
C499 C 0.36476 0.04508 0.52829 0.0
C500 C 0.3598 0.07582 0.54776 0.0
C501 C 0.33681 0.01932 0.49772 0.0
C502 C 0.32883 0.0833 0.53347 0.0
C503 C 0.30125 0.05829 0.50212 0.0
H504 H 0.74243 1.00969 0.91496 0.0
H505 H 0.78641 0.94369 0.9897 0.0
H506 H 0.81066 0.99684 0.04417 0.0
H507 H 0.80631 0.05356 0.07628 0.0
H508 H 0.75089 0.11193 0.00723 0.0
H509 H 0.74629 0.07239 0.94399 0.0
C510 C 0.75834 1.00768 0.9427 0.0
C511 C 0.76227 0.97279 0.94879 0.0
C512 C 0.77045 0.03742 0.97474 0.0
C513 C 0.78262 0.97011 0.98483 0.0
C514 C 0.79651 1.00049 0.01586 0.0
C515 C 0.79504 0.05889 0.04666 0.0
C516 C 0.78005 0.08638 0.04589 0.0
C517 C 0.78887 0.03322 0.012 0.0
C518 C 0.76442 0.09242 0.00795 0.0
C519 C 0.76064 0.06881 0.97218 0.0
H520 H 1.01616 0.72338 0.91714 0.0
H521 H 0.0811 0.82868 0.99829 0.0
H522 H 0.02833 0.79524 0.05307 0.0
H523 H 0.97031 0.73279 0.08175 0.0
H524 H 0.91164 0.62323 0.00616 0.0
H525 H 0.95346 0.66168 0.94461 0.0
C526 C 0.01819 0.73912 0.94659 0.0
C527 C 0.05257 0.77823 0.954 0.0
C528 C 0.98842 0.71895 0.97866 0.0
C529 C 0.05518 0.79837 0.99224 0.0
C530 C 0.02494 0.77933 0.02343 0.0
C531 C 0.96561 0.71779 0.05124 0.0
C532 C 0.93719 0.67556 0.04806 0.0
C533 C 0.99223 0.7392 0.0175 0.0
C534 C 0.93201 0.65605 0.00886 0.0
C535 C 0.9568 0.67788 0.97403 0.0
H536 H 0.36565 0.30589 0.03208 0.0
H537 H 0.26863 0.18093 0.04933 0.0
H538 H 0.23228 0.18713 0.98777 0.0
H539 H 0.22151 0.23314 0.94009 0.0
H540 H 0.31508 0.36085 0.93084 0.0
H541 H 0.35958 0.34895 0.97793 0.0
C542 C 0.33754 0.27948 0.02089 0.0
C543 C 0.31999 0.24284 0.0444 0.0
C544 C 0.31562 0.28442 0.98779 0.0
C545 C 0.28295 0.20909 0.03093 0.0
C546 C 0.26191 0.21297 0.99627 0.0
C547 C 0.25205 0.25803 0.94767 0.0
C548 C 0.26483 0.29794 0.93279 0.0
C549 C 0.27681 0.25124 0.97613 0.0
C550 C 0.30438 0.33007 0.94271 0.0
C551 C 0.32984 0.32324 0.96947 0.0
H552 H 1.00557 0.78929 0.55348 0.0
H553 H 0.96117 0.66023 0.57267 0.0
H554 H 1.01279 0.66341 0.52317 0.0
H555 H 0.06175 0.69975 0.46576 0.0
H556 H 0.10115 0.82654 0.44028 0.0
H557 H 0.06161 0.82815 0.50159 0.0
C558 C 1.00798 0.76219 0.5475 0.0
C559 C 0.97928 0.72444 0.56606 0.0
C560 C 0.03692 0.76398 0.51784 0.0
C561 C 0.98249 0.68943 0.55809 0.0
C562 C 1.01204 0.69127 0.5299 0.0
C563 C 0.0629 0.72813 0.47485 0.0
C564 C 0.08467 0.76316 0.44933 0.0
C565 C 0.03823 0.72793 0.50836 0.0
C566 C 0.08527 0.79954 0.46023 0.0
C567 C 0.06214 0.80019 0.49485 0.0
H568 H 0.24814 0.21443 0.56157 0.0
H569 H 0.37687 0.30052 0.58151 0.0
H570 H 0.37154 0.35216 0.53953 0.0
H571 H 0.33406 0.36755 0.48628 0.0
H572 H 0.20785 0.27926 0.45934 0.0
H573 H 0.20751 0.2345 0.51602 0.0
C574 C 0.2747 0.24486 0.55752 0.0
C575 C 0.31306 0.2534 0.57374 0.0
C576 C 0.27167 0.27406 0.53215 0.0
C577 C 0.34727 0.29293 0.56842 0.0
C578 C 0.34419 0.32252 0.54459 0.0
C579 C 0.30594 0.33941 0.49439 0.0
C580 C 0.27087 0.32689 0.46934 0.0
C581 C 0.30706 0.31278 0.5248 0.0
C582 C 0.23487 0.28993 0.47896 0.0
C583 C 0.23502 0.26398 0.5108 0.0
H584 H 0.76823 0.99146 0.4189 0.0
H585 H 0.65632 0.92497 0.49126 0.0
H586 H 0.691 0.96526 0.55429 0.0
H587 H 0.74925 0.02816 0.58414 0.0
H588 H 0.85737 0.10036 0.50743 0.0
H589 H 0.82837 0.04968 0.45063 0.0
C590 C 0.75193 0.98496 0.44895 0.0
C591 C 0.7102 0.95461 0.45096 0.0
C592 C 0.77123 1.01025 0.48386 0.0
C593 C 0.68895 0.94685 0.48958 0.0
C594 C 0.70857 0.97064 0.52529 0.0
C595 C 0.76674 0.03213 0.55534 0.0
C596 C 0.8051 0.06797 0.54959 0.0
C597 C 0.74914 1.00364 0.52221 0.0
C598 C 0.82753 0.07318 0.51215 0.0
C599 C 0.81099 0.04423 0.47978 0.0
H600 H 0.38755 0.30731 0.22414 0.0
H601 H 0.28247 0.29331 0.15492 0.0
H602 H 0.26444 0.3231 0.21242 0.0
H603 H 0.27266 0.34561 0.28607 0.0
H604 H 0.37584 0.35896 0.35761 0.0
H605 H 0.40002 0.33681 0.29646 0.0
C606 C 0.36048 0.30993 0.22195 0.0
C607 C 0.33616 0.29631 0.1853 0.0
C608 C 0.34978 0.32745 0.25576 0.0
C609 C 0.30199 0.30245 0.18262 0.0
C610 C 0.29137 0.3198 0.21564 0.0
C611 C 0.30152 0.34568 0.28748 0.0
C612 C 0.32323 0.35537 0.32557 0.0
C613 C 0.31446 0.33165 0.25271 0.0
C614 C 0.35914 0.35256 0.32805 0.0
C615 C 0.3727 0.33939 0.29329 0.0
H616 H 0.7264 1.0099 0.16731 0.0
H617 H 0.68741 0.09507 0.20484 0.0
H618 H 0.66293 0.05899 0.27289 0.0
H619 H 0.65837 1.00574 0.32333 0.0
H620 H 0.6884 0.91551 0.27932 0.0
H621 H 0.70955 0.95037 0.21071 0.0
C622 C 0.71227 0.02077 0.18998 0.0
C623 C 0.71216 0.05771 0.18252 0.0
C624 C 0.69593 0.99822 0.22729 0.0
C625 C 0.69201 0.06967 0.21171 0.0
C626 C 0.67684 0.04813 0.25001 0.0
C627 C 0.66796 0.99287 0.29803 0.0
C628 C 0.67061 0.95734 0.30563 0.0
C629 C 0.67972 0.01295 0.25855 0.0
C630 C 0.68463 0.94181 0.27343 0.0
C631 C 0.6973 0.96212 0.23454 0.0
H632 H 1.0028 0.6365 0.17431 0.0
H633 H 0.91146 0.66576 0.21658 0.0
H634 H 0.9495 0.69467 0.2819 0.0
H635 H 1.01119 0.71728 0.32322 0.0
H636 H 0.10436 0.68996 0.28223 0.0
H637 H 0.06427 0.65625 0.2192 0.0
C638 C 0.99087 0.64822 0.19853 0.0
C639 C 0.95316 0.64689 0.192 0.0
C640 C 1.01406 0.66658 0.23522 0.0
C641 C 0.93872 0.66371 0.22247 0.0
C642 C 0.96112 0.68129 0.25922 0.0
C643 C 0.02303 0.70384 0.30084 0.0
C644 C 0.0619 0.70754 0.30729 0.0
C645 C 0.99915 0.68357 0.26545 0.0
C646 C 0.0759 0.68955 0.27759 0.0
C647 C 0.0524 0.66947 0.24177 0.0
H648 H 0.72421 0.73181 0.66733 0.0
H649 H 0.70638 0.61752 0.7172 0.0
H650 H 0.67972 0.62869 0.78317 0.0
H651 H 0.66747 0.67501 0.82898 0.0
H652 H 0.68255 0.78756 0.77677 0.0
H653 H 0.70181 0.77193 0.70814 0.0
C654 C 0.71436 0.70896 0.69235 0.0
C655 C 0.72046 0.67503 0.68828 0.0
C656 C 0.69734 0.71497 0.72933 0.0
C657 C 0.70587 0.6455 0.72073 0.0
C658 C 0.68937 0.65143 0.75808 0.0
C659 C 0.67373 0.6953 0.80203 0.0
C660 C 0.67263 0.73181 0.80721 0.0
C661 C 0.68611 0.68671 0.76318 0.0
C662 C 0.68168 0.75855 0.77275 0.0
C663 C 0.6935 0.75 0.73387 0.0
H664 H 0.39688 0.02439 0.68688 0.0
H665 H 0.35819 0.11196 0.71488 0.0
H666 H 0.32392 0.07431 0.77941 0.0
H667 H 0.29846 0.01263 0.82306 0.0
H668 H 0.34129 0.9277 0.79953 0.0
H669 H 0.37885 0.96683 0.73722 0.0
C670 C 0.38191 0.03573 0.70787 0.0
C671 C 0.38111 0.07161 0.69687 0.0
C672 C 0.36145 0.01332 0.74459 0.0
C673 C 0.36088 0.08559 0.72369 0.0
C674 C 0.34046 0.06349 0.7601 0.0
C675 C 0.31608 1.00247 0.80458 0.0
C676 C 0.31446 0.96512 0.81478 0.0
C677 C 0.33958 0.02671 0.77016 0.0
C678 C 0.33876 0.95384 0.79086 0.0
C679 C 0.36136 0.97713 0.75567 0.0
H680 H 0.01825 0.29501 0.67413 0.0
H681 H 0.943 0.34682 0.70906 0.0
H682 H 0.98258 0.37375 0.77443 0.0
H683 H 0.03769 0.37909 0.82307 0.0
H684 H 0.11703 0.33422 0.78045 0.0
H685 H 0.07845 0.31036 0.71466 0.0
C686 C 1.01024 0.31241 0.69561 0.0
C687 C 0.97508 0.31585 0.68817 0.0
C688 C 0.03511 0.33031 0.73096 0.0
C689 C 0.96675 0.3398 0.71605 0.0
C690 C 0.99052 0.35651 0.7527 0.0
C691 C 0.04721 0.36539 0.79859 0.0
C692 C 0.08085 0.35943 0.80574 0.0
C693 C 0.02442 0.35127 0.76085 0.0
C694 C 0.09227 0.34047 0.7747 0.0
C695 C 0.06975 0.32618 0.7375 0.0
H696 H 0.52264 0.248 0.17867 0.0
H697 H 0.49201 0.2197 0.04648 0.0
H698 H 0.5414 0.19632 0.04015 0.0
H699 H 0.58691 0.17608 0.07341 0.0
H700 H 0.6186 0.20251 0.20519 0.0
H701 H 0.57594 0.23498 0.21032 0.0
C702 C 0.52746 0.23751 0.14834 0.0
C703 C 0.50306 0.23504 0.11328 0.0
C704 C 0.55588 0.22341 0.14489 0.0
C705 C 0.50977 0.22136 0.07417 0.0
C706 C 0.53807 0.20794 0.07044 0.0
C707 C 0.58502 0.18957 0.10312 0.0
C708 C 0.60555 0.18666 0.13891 0.0
C709 C 0.56023 0.20756 0.10583 0.0
C710 C 0.60322 0.20458 0.17711 0.0
C711 C 0.57854 0.22282 0.18009 0.0
H712 H 0.76119 0.28637 0.15049 0.0
H713 H 0.88168 0.30537 0.12063 0.0
H714 H 0.91256 0.37824 0.13744 0.0
H715 H 0.90576 0.43588 0.16454 0.0
H716 H 0.78518 0.41836 0.1897 0.0
H717 H 0.75378 0.34577 0.17051 0.0
C718 C 0.79416 0.30659 0.14743 0.0
C719 C 0.81917 0.29048 0.1348 0.0
C720 C 0.81166 0.34868 0.15632 0.0
C721 C 0.86178 0.31706 0.13032 0.0
C722 C 0.87948 0.3587 0.14006 0.0
C723 C 0.87259 0.41616 0.16535 0.0
C724 C 0.84778 0.43222 0.17857 0.0
C725 C 0.8548 0.37472 0.15365 0.0
C726 C 0.80483 0.40664 0.17926 0.0
C727 C 0.78692 0.36512 0.16856 0.0
H728 H 0.70753 0.53161 0.08258 0.0
H729 H 0.73638 0.47251 0.18331 0.0
H730 H 0.66334 0.42335 0.19352 0.0
H731 H 0.59044 0.40091 0.17826 0.0
H732 H 0.56266 0.46215 0.07895 0.0
H733 H 0.63562 0.50613 0.06383 0.0
C734 C 0.69798 0.50765 0.10638 0.0
C735 C 0.72761 0.50618 0.13231 0.0
C736 C 0.6558 0.47982 0.11267 0.0
C737 C 0.71437 0.47477 0.16302 0.0
C738 C 0.67249 0.44656 0.16898 0.0
C739 C 0.60036 0.42331 0.15279 0.0
C740 C 0.57099 0.42827 0.12995 0.0
C741 C 0.64277 0.44931 0.14464 0.0
C742 C 0.58455 0.45789 0.09736 0.0
C743 C 0.62635 0.48313 0.08861 0.0
H744 H 0.14054 0.54961 0.39984 0.0
H745 H 0.21938 0.62358 0.29739 0.0
H746 H 0.25496 0.5838 0.29885 0.0
H747 H 0.26113 0.52512 0.32768 0.0
H748 H 0.1795 0.45222 0.42951 0.0
H749 H 0.14756 0.49422 0.42925 0.0
C750 C 0.16548 0.55721 0.37762 0.0
C751 C 0.17696 0.58947 0.3484 0.0
C752 C 0.18524 0.53406 0.37831 0.0
C753 C 0.20995 0.59916 0.32051 0.0
C754 C 0.23012 0.57615 0.32113 0.0
C755 C 0.23643 0.51854 0.34983 0.0
C756 C 0.22283 0.48519 0.37841 0.0
C757 C 0.21766 0.54309 0.34963 0.0
C758 C 0.19081 0.47738 0.407 0.0
C759 C 0.17235 0.50146 0.40698 0.0
H760 H 0.50075 0.73473 0.34081 0.0
H761 H 0.58245 0.72978 0.4338 0.0
H762 H 0.53947 0.65589 0.43846 0.0
H763 H 0.48128 0.59246 0.41442 0.0
H764 H 0.40037 0.59414 0.3186 0.0
H765 H 0.43997 0.66938 0.31747 0.0
C766 C 0.50902 0.71748 0.36221 0.0
C767 C 0.54483 0.73819 0.38718 0.0
C768 C 0.48427 0.67433 0.36436 0.0
C769 C 0.55497 0.71515 0.41466 0.0
C770 C 0.53045 0.67266 0.41723 0.0
C771 C 0.47205 0.60908 0.39319 0.0
C772 C 0.43788 0.5874 0.36656 0.0
C773 C 0.49539 0.65197 0.39198 0.0
C774 C 0.42621 0.60978 0.33985 0.0
C775 C 0.44914 0.6529 0.33889 0.0
H776 H 0.43637 0.87734 0.40377 0.0
H777 H 0.43173 0.79838 0.30257 0.0
H778 H 0.35611 0.76187 0.30493 0.0
H779 H 0.29146 0.75734 0.3319 0.0
H780 H 0.29997 0.84027 0.4313 0.0
H781 H 0.37367 0.87001 0.43342 0.0
C782 C 0.41884 0.85188 0.3824 0.0
C783 C 0.43948 0.84081 0.35282 0.0
C784 C 0.37593 0.83188 0.38344 0.0
C785 C 0.41646 0.80735 0.32581 0.0
C786 C 0.37327 0.78677 0.32693 0.0
C787 C 0.30944 0.78163 0.35425 0.0
C788 C 0.28977 0.7963 0.38144 0.0
C789 C 0.35263 0.79949 0.35497 0.0
C790 C 0.31373 0.82782 0.41026 0.0
C791 C 0.35618 0.84519 0.41142 0.0
H792 H 0.4625 0.8791 0.92971 0.0
H793 H 0.40752 0.8241 0.80991 0.0
H794 H 0.4484 0.78995 0.80751 0.0
H795 H 0.5036 0.7797 0.83741 0.0
H796 H 0.55865 0.83699 0.95665 0.0
H797 H 0.51396 0.8662 0.96104 0.0
C798 C 0.45929 0.85958 0.90302 0.0
C799 C 0.43203 0.85437 0.87003 0.0
C800 C 0.48315 0.84055 0.9016 0.0
C801 C 0.42791 0.82843 0.83603 0.0
C802 C 0.45154 0.80909 0.83448 0.0
C803 C 0.50548 0.7982 0.86456 0.0
C804 C 0.53482 0.80637 0.89644 0.0
C805 C 0.47977 0.81544 0.86682 0.0
C806 C 0.53676 0.83044 0.93139 0.0
C807 C 0.51116 0.84722 0.93401 0.0
H808 H 0.15999 0.71477 0.87528 0.0
H809 H 0.28729 0.7478 0.86528 0.0
H810 H 0.26711 0.67521 0.85739 0.0
H811 H 0.21268 0.60184 0.85618 0.0
H812 H 0.08535 0.57117 0.86058 0.0
H813 H 0.10622 0.64311 0.86735 0.0
C814 C 0.18328 0.70599 0.87156 0.0
C815 C 0.22497 0.73632 0.87161 0.0
C816 C 0.17144 0.66455 0.86573 0.0
C817 C 0.25491 0.72478 0.86568 0.0
C818 C 0.24338 0.68333 0.86108 0.0
C819 C 0.18945 0.61081 0.85765 0.0
C820 C 0.14737 0.58061 0.85826 0.0
C821 C 0.20163 0.65281 0.86119 0.0
C822 C 0.11797 0.59336 0.86064 0.0
C823 C 0.1298 0.63466 0.86457 0.0
H824 H 0.31714 0.46499 0.89655 0.0
H825 H 0.28669 0.55647 0.85797 0.0
H826 H 0.36004 0.60832 0.85438 0.0
H827 H 0.43304 0.62766 0.86383 0.0
H828 H 0.46128 0.53308 0.89797 0.0
H829 H 0.38879 0.4829 0.90158 0.0
C830 C 0.32648 0.49634 0.88758 0.0
C831 C 0.29649 0.50695 0.87808 0.0
C832 C 0.36849 0.52558 0.8846 0.0
C833 C 0.3092 0.54753 0.86565 0.0
C834 C 0.35115 0.57717 0.86354 0.0
C835 C 0.4236 0.59606 0.87135 0.0
C836 C 0.45333 0.58475 0.88084 0.0
C837 C 0.3812 0.56656 0.87297 0.0
C838 C 0.43965 0.54333 0.891 0.0
C839 C 0.39795 0.51428 0.89307 0.0
H840 H 0.84152 0.54892 0.56852 0.0
H841 H 0.76524 0.49837 0.67993 0.0
H842 H 0.7872 0.44758 0.68674 0.0
H843 H 0.83323 0.42156 0.66469 0.0
H844 H 0.90907 0.47302 0.55306 0.0
H845 H 0.88192 0.51898 0.54278 0.0
C846 C 0.82931 0.52659 0.5941 0.0
C847 C 0.80227 0.52807 0.62402 0.0
C848 C 0.84218 0.49757 0.59799 0.0
C849 C 0.7865 0.49843 0.65666 0.0
C850 C 0.79905 0.46928 0.66062 0.0
C851 C 0.8431 0.44214 0.63761 0.0
C852 C 0.87343 0.44394 0.60991 0.0
C853 C 0.82761 0.46909 0.63199 0.0
C854 C 0.88616 0.47127 0.57524 0.0
C855 C 0.87064 0.49764 0.56924 0.0
H856 H 0.54188 0.2959 0.67069 0.0
H857 H 0.48392 0.30156 0.5547 0.0
H858 H 0.52703 0.37597 0.55351 0.0
H859 H 0.57635 0.43962 0.58837 0.0
H860 H 0.63461 0.43552 0.70438 0.0
H861 H 0.59657 0.36022 0.70227 0.0
C862 C 0.53899 0.31334 0.64487 0.0
C863 C 0.50922 0.29301 0.61311 0.0
C864 C 0.56376 0.3564 0.64448 0.0
C865 C 0.50629 0.3162 0.5797 0.0
C866 C 0.53088 0.35886 0.57903 0.0
C867 C 0.58098 0.42225 0.61307 0.0
C868 C 0.60791 0.44305 0.64668 0.0
C869 C 0.5589 0.37927 0.61176 0.0
C870 C 0.61417 0.42022 0.67807 0.0
C871 C 0.5922 0.37719 0.677 0.0
H872 H 0.748 0.28435 0.65299 0.0
H873 H 0.72965 0.16723 0.61085 0.0
H874 H 0.6565 0.13508 0.62633 0.0
H875 H 0.59809 0.13872 0.65628 0.0
H876 H 0.61363 0.25558 0.69384 0.0
H877 H 0.68708 0.28937 0.67548 0.0
C878 C 0.72785 0.25191 0.64686 0.0
C879 C 0.7445 0.22826 0.63107 0.0
C880 C 0.68523 0.23349 0.6551 0.0
C881 C 0.71784 0.1863 0.62286 0.0
C882 C 0.6759 0.16773 0.63187 0.0
C883 C 0.61753 0.17169 0.65981 0.0
C884 C 0.60072 0.19467 0.67642 0.0
C885 C 0.65936 0.19082 0.64859 0.0
C886 C 0.62599 0.23737 0.68079 0.0
C887 C 0.66799 0.25659 0.67056 0.0
H888 H 0.38538 0.16142 0.80637 0.0
H889 H 0.43709 0.28891 0.77129 0.0
H890 H 0.43116 0.30624 0.84441 0.0
H891 H 0.41649 0.28624 0.91955 0.0
H892 H 0.36306 0.15852 0.95434 0.0
H893 H 0.36417 0.14039 0.88035 0.0
C894 C 0.39494 0.19292 0.81465 0.0
C895 C 0.4121 0.22384 0.78342 0.0
C896 C 0.39142 0.20279 0.85688 0.0
C897 C 0.42388 0.26444 0.79463 0.0
C898 C 0.42068 0.27448 0.83655 0.0
C899 C 0.40482 0.25442 0.91088 0.0
C900 C 0.39032 0.22395 0.94256 0.0
C901 C 0.40534 0.24408 0.86813 0.0
C902 C 0.37464 0.18272 0.93068 0.0
C903 C 0.37535 0.17226 0.88833 0.0
H904 H 0.81572 0.20048 0.79594 0.0
H905 H 0.89323 0.33226 0.80254 0.0
H906 H 0.89055 0.3288 0.87984 0.0
H907 H 0.86639 0.28853 0.94553 0.0
H908 H 0.78953 0.15672 0.93916 0.0
H909 H 0.79173 0.1601 0.86182 0.0
C910 C 0.83205 0.22847 0.81425 0.0
C911 C 0.85453 0.26658 0.79338 0.0
C912 C 0.83044 0.22629 0.85876 0.0
C913 C 0.87555 0.30252 0.81769 0.0
C914 C 0.87405 0.30058 0.86195 0.0
C915 C 0.84996 0.26051 0.92729 0.0
C916 C 0.82775 0.22241 0.94824 0.0
C917 C 0.85155 0.26266 0.88281 0.0
C918 C 0.80687 0.18644 0.92397 0.0
C919 C 0.80812 0.18835 0.87968 0.0
H920 H 0.8175 0.63485 0.94446 0.0
H921 H 0.80993 0.51658 0.9496 0.0
H922 H 0.78972 0.50483 0.87529 0.0
H923 H 0.77179 0.52677 0.80955 0.0
H924 H 0.77822 0.64447 0.80395 0.0
H925 H 0.80111 0.65765 0.87767 0.0
C926 C 0.8118 0.60666 0.92922 0.0
C927 C 0.81517 0.57661 0.95272 0.0
C928 C 0.79963 0.59981 0.88645 0.0
C929 C 0.80747 0.5402 0.93243 0.0
C930 C 0.79581 0.53339 0.88989 0.0
C931 C 0.77818 0.55534 0.82438 0.0
C932 C 0.77313 0.58449 0.80119 0.0
C933 C 0.79131 0.56273 0.86674 0.0
C934 C 0.78181 0.62144 0.82099 0.0
C935 C 0.79493 0.62903 0.86318 0.0
H936 H 0.21845 0.36913 0.57862 0.0
H937 H 0.23234 0.48745 0.54869 0.0
H938 H 0.2162 0.49512 0.62165 0.0
H939 H 0.19858 0.46886 0.69469 0.0
H940 H 0.18787 0.35233 0.72603 0.0
H941 H 0.20179 0.34325 0.65227 0.0
C942 C 0.21808 0.39662 0.58811 0.0
C943 C 0.22673 0.42763 0.55799 0.0
C944 C 0.20903 0.40114 0.63054 0.0
C945 C 0.22608 0.46308 0.57102 0.0
C946 C 0.21665 0.46751 0.61285 0.0
C947 C 0.19898 0.44136 0.68525 0.0
C948 C 0.19211 0.41132 0.71578 0.0
C949 C 0.20802 0.43677 0.64292 0.0
C950 C 0.19322 0.37604 0.70316 0.0
C951 C 0.20121 0.37081 0.66096 0.0
H952 H 0.60611 0.7523 0.56363 0.0
H953 H 0.65141 0.88267 0.56934 0.0
H954 H 0.64555 0.87862 0.64675 0.0
H955 H 0.627 0.83779 0.71269 0.0
H956 H 0.58277 0.7076 0.70628 0.0
H957 H 0.58883 0.71194 0.62913 0.0
C958 C 0.6147 0.77992 0.58169 0.0
C959 C 0.62903 0.81775 0.56058 0.0
C960 C 0.61137 0.77736 0.62609 0.0
C961 C 0.64026 0.85318 0.58469 0.0
C962 C 0.63687 0.85084 0.62898 0.0
C963 C 0.61856 0.81031 0.69445 0.0
C964 C 0.60409 0.77233 0.71536 0.0
C965 C 0.62233 0.81306 0.65 0.0
C966 C 0.59367 0.73716 0.69112 0.0
C967 C 0.59721 0.73962 0.64696 0.0
H968 H 0.1867 0.8087 0.7073 0.0
H969 H 0.31937 0.87394 0.69901 0.0
H970 H 0.31553 0.86565 0.62231 0.0
H971 H 0.27514 0.83959 0.55792 0.0
H972 H 0.14253 0.77579 0.56427 0.0
H973 H 0.14577 0.78372 0.64158 0.0
C974 C 0.21477 0.82118 0.68871 0.0
C975 C 0.25329 0.84174 0.70905 0.0
C976 C 0.21238 0.8164 0.64436 0.0
C977 C 0.28933 0.85786 0.68436 0.0
C978 C 0.28719 0.8531 0.64044 0.0
C979 C 0.24681 0.82716 0.57609 0.0
C980 C 0.20861 0.80677 0.55532 0.0
C981 C 0.24895 0.83227 0.62018 0.0
C982 C 0.17233 0.79142 0.57947 0.0
C983 C 0.17419 0.79602 0.62365 0.0
H984 H 0.6436 0.84708 0.06024 0.0
H985 H 0.6282 0.72668 0.08007 0.0
H986 H 0.62085 0.73277 0.15647 0.0
H987 H 0.6162 0.77127 0.21712 0.0
H988 H 0.62674 0.88958 0.19622 0.0
H989 H 0.63872 0.88541 0.12073 0.0
C990 C 0.63905 0.82233 0.08133 0.0
C991 C 0.63656 0.7865 0.06458 0.0
C992 C 0.63377 0.82561 0.12497 0.0
C993 C 0.6301 0.75449 0.09222 0.0
C994 C 0.62589 0.75797 0.13587 0.0
C995 C 0.62131 0.79625 0.19611 0.0
C996 C 0.62084 0.83083 0.21242 0.0
C997 C 0.62721 0.7932 0.15253 0.0
C998 C 0.6271 0.86271 0.18461 0.0
C999 C 0.63393 0.86032 0.14139 0.0
H1000 H 0.19166 0.84105 0.06289 0.0
H1001 H 0.25542 0.77275 0.05144 0.0
H1002 H 0.24111 0.75236 0.12567 0.0
H1003 H 0.20936 0.75249 0.19381 0.0
H1004 H 0.1471 0.82202 0.20634 0.0
H1005 H 0.1617 0.84298 0.13199 0.0
C1006 C 0.20263 0.82189 0.07668 0.0
C1007 C 0.22451 0.80842 0.05137 0.0
C1008 C 0.19429 0.81016 0.11966 0.0
C1009 C 0.23854 0.78367 0.06997 0.0
C1010 C 0.23024 0.77181 0.1125 0.0
C1011 C 0.19885 0.77211 0.18025 0.0
C1012 C 0.17697 0.78545 0.20563 0.0
C1013 C 0.20786 0.78455 0.13758 0.0
C1014 C 0.16401 0.81127 0.18759 0.0
C1015 C 0.17236 0.82331 0.14502 0.0
H1016 H 0.28887 0.42231 0.05927 0.0
H1017 H 0.15907 0.38124 0.06316 0.0
H1018 H 0.15999 0.37889 0.14068 0.0
H1019 H 0.1982 0.39065 0.20741 0.0
H1020 H 0.32773 0.43033 0.203 0.0
H1021 H 0.32619 0.43066 0.12564 0.0
C1022 C 0.26073 0.41286 0.07702 0.0
C1023 C 0.22403 0.40241 0.05536 0.0
C1024 C 0.26142 0.41127 0.12154 0.0
C1025 C 0.18778 0.38965 0.07895 0.0
C1026 C 0.1883 0.38831 0.12331 0.0
C1027 C 0.2261 0.39921 0.18958 0.0
C1028 C 0.26315 0.41088 0.21116 0.0
C1029 C 0.22502 0.39935 0.14496 0.0
C1030 C 0.29886 0.42154 0.18737 0.0
C1031 C 0.29802 0.42177 0.14306 0.0
H1032 H 0.7431 0.61615 0.42125 0.0
H1033 H 0.86885 0.6587 0.45731 0.0
H1034 H 0.88724 0.65665 0.38357 0.0
H1035 H 0.8667 0.63792 0.30945 0.0
H1036 H 0.74144 0.59689 0.27279 0.0
H1037 H 0.72406 0.60366 0.3458 0.0
C1038 C 0.77457 0.62523 0.4129 0.0
C1039 C 0.80435 0.63702 0.44488 0.0
C1040 C 0.7851 0.62418 0.37025 0.0
C1041 C 0.84517 0.64931 0.43343 0.0
C1042 C 0.85578 0.64806 0.39121 0.0
C1043 C 0.8357 0.63086 0.31735 0.0
C1044 C 0.80535 0.61649 0.28574 0.0
C1045 C 0.82585 0.63481 0.35946 0.0
C1046 C 0.76544 0.60793 0.29646 0.0
C1047 C 0.75538 0.61161 0.3383 0.0
H1048 H 0.39339 0.21372 0.44553 0.0
H1049 H 0.44306 0.13375 0.42426 0.0
H1050 H 0.44785 0.1483 0.34825 0.0
H1051 H 0.44037 0.18559 0.28813 0.0
H1052 H 0.39349 0.26788 0.30945 0.0
H1053 H 0.38536 0.25074 0.38503 0.0
C1054 C 0.40488 0.19915 0.42421 0.0
C1055 C 0.41778 0.17258 0.44063 0.0
C1056 C 0.40841 0.20838 0.38055 0.0
C1057 C 0.43303 0.15436 0.41255 0.0
C1058 C 0.43581 0.16271 0.36905 0.0
C1059 C 0.42822 0.19971 0.30923 0.0
C1060 C 0.41769 0.22814 0.29303 0.0
C1061 C 0.42403 0.19 0.35274 0.0
C1062 C 0.40215 0.24619 0.32101 0.0
C1063 C 0.39736 0.23627 0.36426 0.0
H1064 H 0.75264 0.1643 0.44533 0.0
H1065 H 0.88332 0.24968 0.43996 0.0
H1066 H 0.88131 0.24702 0.36249 0.0
H1067 H 0.84218 0.22107 0.29625 0.0
H1068 H 0.71148 0.13569 0.30235 0.0
H1069 H 0.71392 0.1376 0.37959 0.0
C1070 C 0.78074 0.18241 0.4273 0.0
C1071 C 0.81803 0.20733 0.44849 0.0
C1072 C 0.77938 0.18066 0.38285 0.0
C1073 C 0.85414 0.23037 0.4245 0.0
C1074 C 0.85303 0.22883 0.38018 0.0
C1075 C 0.81424 0.20276 0.31446 0.0
C1076 C 0.77668 0.17838 0.29343 0.0
C1077 C 0.81579 0.20415 0.359 0.0
C1078 C 0.74079 0.15486 0.31761 0.0
C1079 C 0.74214 0.15593 0.36184 0.0
loop_
_geom_bond_atom_site_label_1
_geom_bond_atom_site_label_2
_geom_bond_distance
_geom_bond_site_symmetry_2
_ccdc_geom_bond_type
Zn0 N4 2.020 . S
Zn0 O8 2.019 . S
Zn0 N10 2.119 . S
Zn0 O18 1.975 . S
C1 N2 1.334 . S
C1 N5 1.336 . S
N2 C1 1.334 . S
N2 C3 1.334 . S
C3 N2 1.334 . S
C3 N4 1.336 . S
N4 Zn0 2.020 . S
N4 C3 1.336 . S
N4 N5 1.354 . S
N5 C1 1.336 . S
N5 N4 1.354 . S
N5 Zn9 2.020 . S
C6 O7 1.244 . S
C6 O30 1.257 . S
O7 C6 1.244 . S
O8 Zn0 2.019 . S
O8 C28 1.257 . S
Zn9 N5 2.020 . S
Zn9 O16 1.975 . S
Zn9 N25 2.119 . S
Zn9 O30 2.019 . S
N10 Zn0 2.119 . S
N10 C12 1.334 . S
N10 C13 1.328 . S
C11 C12 1.391 . S
C11 N14 1.329 . S
C11 H32 0.930 . S
C12 N10 1.334 . S
C12 C11 1.391 . S
C12 H19 0.930 . S
C13 N10 1.328 . S
C13 C15 1.392 . S
C13 H20 0.930 . S
N14 C11 1.329 . S
N14 C15 1.331 . S
C15 C13 1.392 . S
C15 N14 1.331 . S
O16 Zn9 1.975 . S
O16 C17 1.252 . S
C17 O16 1.252 . S
C17 O18 1.252 . S
O18 Zn0 1.975 . S
O18 C17 1.252 . S
H19 C12 0.930 . S
H20 C13 0.930 . S
C21 C22 1.392 . S
C21 N25 1.328 . S
C21 H27 0.930 . S
C22 C21 1.392 . S
C22 N26 1.331 . S
C23 C24 1.391 . S
C23 N26 1.329 . S
C23 H33 0.930 . S
C24 C23 1.391 . S
C24 N25 1.334 . S
C24 H31 0.930 . S
N25 Zn9 2.119 . S
N25 C21 1.328 . S
N25 C24 1.334 . S
N26 C22 1.331 . S
N26 C23 1.329 . S
H27 C21 0.930 . S
C28 O8 1.257 . S
C28 O29 1.244 . S
O29 C28 1.244 . S
O30 C6 1.257 . S
O30 Zn9 2.019 . S
H31 C24 0.930 . S
H32 C11 0.930 . S
H33 C23 0.930 . S
Zn34 N38 2.020 . S
Zn34 O42 2.019 . S
Zn34 N44 2.119 . S
Zn34 O52 1.975 . S
C35 N36 1.334 . S
C35 N39 1.336 . S
N36 C35 1.334 . S
N36 C37 1.334 . S
C37 N36 1.334 . S
C37 N38 1.336 . S
N38 Zn34 2.020 . S
N38 C37 1.336 . S
N38 N39 1.354 . S
N39 C35 1.336 . S
N39 N38 1.354 . S
N39 Zn43 2.020 . S
C40 O41 1.244 . S
C40 O64 1.257 . S
O41 C40 1.244 . S
O42 Zn34 2.019 . S
O42 C62 1.257 . S
Zn43 N39 2.020 . S
Zn43 O50 1.975 . S
Zn43 N59 2.119 . S
Zn43 O64 2.019 . S
N44 Zn34 2.119 . S
N44 C46 1.334 . S
N44 C47 1.328 . S
C45 C46 1.391 . S
C45 N48 1.329 . S
C45 H66 0.930 . S
C46 N44 1.334 . S
C46 C45 1.391 . S
C46 H53 0.930 . S
C47 N44 1.328 . S
C47 C49 1.392 . S
C47 H54 0.930 . S
N48 C45 1.329 . S
N48 C49 1.331 . S
C49 C47 1.392 . S
C49 N48 1.331 . S
O50 Zn43 1.975 . S
O50 C51 1.252 . S
C51 O50 1.252 . S
C51 O52 1.252 . S
O52 Zn34 1.975 . S
O52 C51 1.252 . S
H53 C46 0.930 . S
H54 C47 0.930 . S
C55 C56 1.392 . S
C55 N59 1.328 . S
C55 H61 0.930 . S
C56 C55 1.392 . S
C56 N60 1.331 . S
C57 C58 1.391 . S
C57 N60 1.329 . S
C57 H67 0.930 . S
C58 C57 1.391 . S
C58 N59 1.334 . S
C58 H65 0.930 . S
N59 Zn43 2.119 . S
N59 C55 1.328 . S
N59 C58 1.334 . S
N60 C56 1.331 . S
N60 C57 1.329 . S
H61 C55 0.930 . S
C62 O42 1.257 . S
C62 O63 1.244 . S
O63 C62 1.244 . S
O64 C40 1.257 . S
O64 Zn43 2.019 . S
H65 C58 0.930 . S
H66 C45 0.930 . S
H67 C57 0.930 . S
Zn68 N72 2.020 . S
Zn68 O76 2.019 . S
Zn68 N78 2.119 . S
Zn68 O86 1.975 . S
C69 N70 1.334 . S
C69 N73 1.336 . S
N70 C69 1.334 . S
N70 C71 1.334 . S
C71 N70 1.334 . S
C71 N72 1.336 . S
N72 Zn68 2.020 . S
N72 C71 1.336 . S
N72 N73 1.354 . S
N73 C69 1.336 . S
N73 N72 1.354 . S
N73 Zn77 2.020 . S
C74 O75 1.244 . S
C74 O98 1.257 . S
O75 C74 1.244 . S
O76 Zn68 2.019 . S
O76 C96 1.257 . S
Zn77 N73 2.020 . S
Zn77 O84 1.975 . S
Zn77 N93 2.119 . S
Zn77 O98 2.019 . S
N78 Zn68 2.119 . S
N78 C80 1.334 . S
N78 C81 1.328 . S
C79 C80 1.391 . S
C79 N82 1.329 . S
C79 H100 0.930 . S
C80 N78 1.334 . S
C80 C79 1.391 . S
C80 H87 0.930 . S
C81 N78 1.328 . S
C81 C83 1.392 . S
C81 H88 0.930 . S
N82 C79 1.329 . S
N82 C83 1.331 . S
C83 C81 1.392 . S
C83 N82 1.331 . S
O84 Zn77 1.975 . S
O84 C85 1.252 . S
C85 O84 1.252 . S
C85 O86 1.252 . S
O86 Zn68 1.975 . S
O86 C85 1.252 . S
H87 C80 0.930 . S
H88 C81 0.930 . S
C89 C90 1.392 . S
C89 N93 1.328 . S
C89 H95 0.930 . S
C90 C89 1.392 . S
C90 N94 1.331 . S
C91 C92 1.391 . S
C91 N94 1.329 . S
C91 H101 0.930 . S
C92 C91 1.391 . S
C92 N93 1.334 . S
C92 H99 0.930 . S
N93 Zn77 2.119 . S
N93 C89 1.328 . S
N93 C92 1.334 . S
N94 C90 1.331 . S
N94 C91 1.329 . S
H95 C89 0.930 . S
C96 O76 1.257 . S
C96 O97 1.244 . S
O97 C96 1.244 . S
O98 C74 1.257 . S
O98 Zn77 2.019 . S
H99 C92 0.930 . S
H100 C79 0.930 . S
H101 C91 0.930 . S
Zn102 N106 2.020 . S
Zn102 O110 2.019 . S
Zn102 N112 2.119 . S
Zn102 O120 1.975 . S
C103 N104 1.334 . S
C103 N107 1.336 . S
N104 C103 1.334 . S
N104 C105 1.334 . S
C105 N104 1.334 . S
C105 N106 1.336 . S
N106 Zn102 2.020 . S
N106 C105 1.336 . S
N106 N107 1.354 . S
N107 C103 1.336 . S
N107 N106 1.354 . S
N107 Zn111 2.020 . S
C108 O109 1.244 . S
C108 O132 1.257 . S
O109 C108 1.244 . S
O110 Zn102 2.019 . S
O110 C130 1.257 . S
Zn111 N107 2.020 . S
Zn111 O118 1.975 . S
Zn111 N127 2.119 . S
Zn111 O132 2.019 . S
N112 Zn102 2.119 . S
N112 C114 1.334 . S
N112 C115 1.328 . S
C113 C114 1.391 . S
C113 N116 1.329 . S
C113 H134 0.930 . S
C114 N112 1.334 . S
C114 C113 1.391 . S
C114 H121 0.930 . S
C115 N112 1.328 . S
C115 C117 1.392 . S
C115 H122 0.930 . S
N116 C113 1.329 . S
N116 C117 1.331 . S
C117 C115 1.392 . S
C117 N116 1.331 . S
O118 Zn111 1.975 . S
O118 C119 1.252 . S
C119 O118 1.252 . S
C119 O120 1.252 . S
O120 Zn102 1.975 . S
O120 C119 1.252 . S
H121 C114 0.930 . S
H122 C115 0.930 . S
C123 C124 1.392 . S
C123 N127 1.328 . S
C123 H129 0.930 . S
C124 C123 1.392 . S
C124 N128 1.331 . S
C125 C126 1.391 . S
C125 N128 1.329 . S
C125 H135 0.930 . S
C126 C125 1.391 . S
C126 N127 1.334 . S
C126 H133 0.930 . S
N127 Zn111 2.119 . S
N127 C123 1.328 . S
N127 C126 1.334 . S
N128 C124 1.331 . S
N128 C125 1.329 . S
H129 C123 0.930 . S
C130 O110 1.257 . S
C130 O131 1.244 . S
O131 C130 1.244 . S
O132 C108 1.257 . S
O132 Zn111 2.019 . S
H133 C126 0.930 . S
H134 C113 0.930 . S
H135 C125 0.930 . S
Zn136 N140 2.020 . S
Zn136 O144 2.019 . S
Zn136 N146 2.119 . S
Zn136 O154 1.975 . S
C137 N138 1.334 . S
C137 N141 1.336 . S
N138 C137 1.334 . S
N138 C139 1.334 . S
C139 N138 1.334 . S
C139 N140 1.336 . S
N140 Zn136 2.020 . S
N140 C139 1.336 . S
N140 N141 1.354 . S
N141 C137 1.336 . S
N141 N140 1.354 . S
N141 Zn145 2.020 . S
C142 O143 1.244 . S
C142 O166 1.257 . S
O143 C142 1.244 . S
O144 Zn136 2.019 . S
O144 C164 1.257 . S
Zn145 N141 2.020 . S
Zn145 O152 1.975 . S
Zn145 N161 2.119 . S
Zn145 O166 2.019 . S
N146 Zn136 2.119 . S
N146 C148 1.334 . S
N146 C149 1.328 . S
C147 C148 1.391 . S
C147 N150 1.329 . S
C147 H168 0.930 . S
C148 N146 1.334 . S
C148 C147 1.391 . S
C148 H155 0.930 . S
C149 N146 1.328 . S
C149 C151 1.392 . S
C149 H156 0.930 . S
N150 C147 1.329 . S
N150 C151 1.331 . S
C151 C149 1.392 . S
C151 N150 1.331 . S
O152 Zn145 1.975 . S
O152 C153 1.252 . S
C153 O152 1.252 . S
C153 O154 1.252 . S
O154 Zn136 1.975 . S
O154 C153 1.252 . S
H155 C148 0.930 . S
H156 C149 0.930 . S
C157 C158 1.392 . S
C157 N161 1.328 . S
C157 H163 0.930 . S
C158 C157 1.392 . S
C158 N162 1.331 . S
C159 C160 1.391 . S
C159 N162 1.329 . S
C159 H169 0.930 . S
C160 C159 1.391 . S
C160 N161 1.334 . S
C160 H167 0.930 . S
N161 Zn145 2.119 . S
N161 C157 1.328 . S
N161 C160 1.334 . S
N162 C158 1.331 . S
N162 C159 1.329 . S
H163 C157 0.930 . S
C164 O144 1.257 . S
C164 O165 1.244 . S
O165 C164 1.244 . S
O166 C142 1.257 . S
O166 Zn145 2.019 . S
H167 C160 0.930 . S
H168 C147 0.930 . S
H169 C159 0.930 . S
Zn170 N174 2.020 . S
Zn170 O178 2.019 . S
Zn170 N180 2.119 . S
Zn170 O188 1.975 . S
C171 N172 1.334 . S
C171 N175 1.336 . S
N172 C171 1.334 . S
N172 C173 1.334 . S
C173 N172 1.334 . S
C173 N174 1.336 . S
N174 Zn170 2.020 . S
N174 C173 1.336 . S
N174 N175 1.354 . S
N175 C171 1.336 . S
N175 N174 1.354 . S
N175 Zn179 2.020 . S
C176 O177 1.244 . S
C176 O200 1.257 . S
O177 C176 1.244 . S
O178 Zn170 2.019 . S
O178 C198 1.257 . S
Zn179 N175 2.020 . S
Zn179 O186 1.975 . S
Zn179 N195 2.119 . S
Zn179 O200 2.019 . S
N180 Zn170 2.119 . S
N180 C182 1.334 . S
N180 C183 1.328 . S
C181 C182 1.391 . S
C181 N184 1.329 . S
C181 H202 0.930 . S
C182 N180 1.334 . S
C182 C181 1.391 . S
C182 H189 0.930 . S
C183 N180 1.328 . S
C183 C185 1.392 . S
C183 H190 0.930 . S
N184 C181 1.329 . S
N184 C185 1.331 . S
C185 C183 1.392 . S
C185 N184 1.331 . S
O186 Zn179 1.975 . S
O186 C187 1.252 . S
C187 O186 1.252 . S
C187 O188 1.252 . S
O188 Zn170 1.975 . S
O188 C187 1.252 . S
H189 C182 0.930 . S
H190 C183 0.930 . S
C191 C192 1.392 . S
C191 N195 1.328 . S
C191 H197 0.930 . S
C192 C191 1.392 . S
C192 N196 1.331 . S
C193 C194 1.391 . S
C193 N196 1.329 . S
C193 H203 0.930 . S
C194 C193 1.391 . S
C194 N195 1.334 . S
C194 H201 0.930 . S
N195 Zn179 2.119 . S
N195 C191 1.328 . S
N195 C194 1.334 . S
N196 C192 1.331 . S
N196 C193 1.329 . S
H197 C191 0.930 . S
C198 O178 1.257 . S
C198 O199 1.244 . S
O199 C198 1.244 . S
O200 C176 1.257 . S
O200 Zn179 2.019 . S
H201 C194 0.930 . S
H202 C181 0.930 . S
H203 C193 0.930 . S
Zn204 N208 2.020 . S
Zn204 O212 2.019 . S
Zn204 N214 2.119 . S
Zn204 O222 1.975 . S
C205 N206 1.334 . S
C205 N209 1.336 . S
N206 C205 1.334 . S
N206 C207 1.334 . S
C207 N206 1.334 . S
C207 N208 1.336 . S
N208 Zn204 2.020 . S
N208 C207 1.336 . S
N208 N209 1.354 . S
N209 C205 1.336 . S
N209 N208 1.354 . S
N209 Zn213 2.020 . S
C210 O211 1.244 . S
C210 O234 1.257 . S
O211 C210 1.244 . S
O212 Zn204 2.019 . S
O212 C232 1.257 . S
Zn213 N209 2.020 . S
Zn213 O220 1.975 . S
Zn213 N229 2.119 . S
Zn213 O234 2.019 . S
N214 Zn204 2.119 . S
N214 C216 1.334 . S
N214 C217 1.328 . S
C215 C216 1.391 . S
C215 N218 1.329 . S
C215 H236 0.930 . S
C216 N214 1.334 . S
C216 C215 1.391 . S
C216 H223 0.930 . S
C217 N214 1.328 . S
C217 C219 1.392 . S
C217 H224 0.930 . S
N218 C215 1.329 . S
N218 C219 1.331 . S
C219 C217 1.392 . S
C219 N218 1.331 . S
O220 Zn213 1.975 . S
O220 C221 1.252 . S
C221 O220 1.252 . S
C221 O222 1.252 . S
O222 Zn204 1.975 . S
O222 C221 1.252 . S
H223 C216 0.930 . S
H224 C217 0.930 . S
C225 C226 1.392 . S
C225 N229 1.328 . S
C225 H231 0.930 . S
C226 C225 1.392 . S
C226 N230 1.331 . S
C227 C228 1.391 . S
C227 N230 1.329 . S
C227 H237 0.930 . S
C228 C227 1.391 . S
C228 N229 1.334 . S
C228 H235 0.930 . S
N229 Zn213 2.119 . S
N229 C225 1.328 . S
N229 C228 1.334 . S
N230 C226 1.331 . S
N230 C227 1.329 . S
H231 C225 0.930 . S
C232 O212 1.257 . S
C232 O233 1.244 . S
O233 C232 1.244 . S
O234 C210 1.257 . S
O234 Zn213 2.019 . S
H235 C228 0.930 . S
H236 C215 0.930 . S
H237 C227 0.930 . S
Zn238 N242 2.020 . S
Zn238 O246 2.019 . S
Zn238 N248 2.119 . S
Zn238 O256 1.975 . S
C239 N240 1.334 . S
C239 N243 1.336 . S
N240 C239 1.334 . S
N240 C241 1.334 . S
C241 N240 1.334 . S
C241 N242 1.336 . S
N242 Zn238 2.020 . S
N242 C241 1.336 . S
N242 N243 1.354 . S
N243 C239 1.336 . S
N243 N242 1.354 . S
N243 Zn247 2.020 . S
C244 O245 1.244 . S
C244 O268 1.257 . S
O245 C244 1.244 . S
O246 Zn238 2.019 . S
O246 C266 1.257 . S
Zn247 N243 2.020 . S
Zn247 O254 1.975 . S
Zn247 N263 2.119 . S
Zn247 O268 2.019 . S
N248 Zn238 2.119 . S
N248 C250 1.334 . S
N248 C251 1.328 . S
C249 C250 1.391 . S
C249 N252 1.329 . S
C249 H270 0.930 . S
C250 N248 1.334 . S
C250 C249 1.391 . S
C250 H257 0.930 . S
C251 N248 1.328 . S
C251 C253 1.392 . S
C251 H258 0.930 . S
N252 C249 1.329 . S
N252 C253 1.331 . S
C253 C251 1.392 . S
C253 N252 1.331 . S
O254 Zn247 1.975 . S
O254 C255 1.252 . S
C255 O254 1.252 . S
C255 O256 1.252 . S
O256 Zn238 1.975 . S
O256 C255 1.252 . S
H257 C250 0.930 . S
H258 C251 0.930 . S
C259 C260 1.392 . S
C259 N263 1.328 . S
C259 H265 0.930 . S
C260 C259 1.392 . S
C260 N264 1.331 . S
C261 C262 1.391 . S
C261 N264 1.329 . S
C261 H271 0.930 . S
C262 C261 1.391 . S
C262 N263 1.334 . S
C262 H269 0.930 . S
N263 Zn247 2.119 . S
N263 C259 1.328 . S
N263 C262 1.334 . S
N264 C260 1.331 . S
N264 C261 1.329 . S
H265 C259 0.930 . S
C266 O246 1.257 . S
C266 O267 1.244 . S
O267 C266 1.244 . S
O268 C244 1.257 . S
O268 Zn247 2.019 . S
H269 C262 0.930 . S
H270 C249 0.930 . S
H271 C261 0.930 . S
Zn272 N276 2.020 . S
Zn272 O280 2.019 . S
Zn272 N282 2.119 . S
Zn272 O290 1.975 . S
C273 N274 1.334 . S
C273 N277 1.336 . S
N274 C273 1.334 . S
N274 C275 1.334 . S
C275 N274 1.334 . S
C275 N276 1.336 . S
N276 Zn272 2.020 . S
N276 C275 1.336 . S
N276 N277 1.354 . S
N277 C273 1.336 . S
N277 N276 1.354 . S
N277 Zn281 2.020 . S
C278 O279 1.244 . S
C278 O302 1.257 . S
O279 C278 1.244 . S
O280 Zn272 2.019 . S
O280 C300 1.257 . S
Zn281 N277 2.020 . S
Zn281 O288 1.975 . S
Zn281 N297 2.119 . S
Zn281 O302 2.019 . S
N282 Zn272 2.119 . S
N282 C284 1.334 . S
N282 C285 1.328 . S
C283 C284 1.391 . S
C283 N286 1.329 . S
C283 H304 0.930 . S
C284 N282 1.334 . S
C284 C283 1.391 . S
C284 H291 0.930 . S
C285 N282 1.328 . S
C285 C287 1.392 . S
C285 H292 0.930 . S
N286 C283 1.329 . S
N286 C287 1.331 . S
C287 C285 1.392 . S
C287 N286 1.331 . S
O288 Zn281 1.975 . S
O288 C289 1.252 . S
C289 O288 1.252 . S
C289 O290 1.252 . S
O290 Zn272 1.975 . S
O290 C289 1.252 . S
H291 C284 0.930 . S
H292 C285 0.930 . S
C293 C294 1.392 . S
C293 N297 1.328 . S
C293 H299 0.930 . S
C294 C293 1.392 . S
C294 N298 1.331 . S
C295 C296 1.391 . S
C295 N298 1.329 . S
C295 H305 0.930 . S
C296 C295 1.391 . S
C296 N297 1.334 . S
C296 H303 0.930 . S
N297 Zn281 2.119 . S
N297 C293 1.328 . S
N297 C296 1.334 . S
N298 C294 1.331 . S
N298 C295 1.329 . S
H299 C293 0.930 . S
C300 O280 1.257 . S
C300 O301 1.244 . S
O301 C300 1.244 . S
O302 C278 1.257 . S
O302 Zn281 2.019 . S
H303 C296 0.930 . S
H304 C283 0.930 . S
H305 C295 0.930 . S
Zn306 N310 2.020 . S
Zn306 O314 2.019 . S
Zn306 N316 2.119 . S
Zn306 O324 1.975 . S
C307 N308 1.334 . S
C307 N311 1.336 . S
N308 C307 1.334 . S
N308 C309 1.334 . S
C309 N308 1.334 . S
C309 N310 1.336 . S
N310 Zn306 2.020 . S
N310 C309 1.336 . S
N310 N311 1.354 . S
N311 C307 1.336 . S
N311 N310 1.354 . S
N311 Zn315 2.020 . S
C312 O313 1.244 . S
C312 O336 1.257 . S
O313 C312 1.244 . S
O314 Zn306 2.019 . S
O314 C334 1.257 . S
Zn315 N311 2.020 . S
Zn315 O322 1.975 . S
Zn315 N331 2.119 . S
Zn315 O336 2.019 . S
N316 Zn306 2.119 . S
N316 C318 1.334 . S
N316 C319 1.328 . S
C317 C318 1.391 . S
C317 N320 1.329 . S
C317 H338 0.930 . S
C318 N316 1.334 . S
C318 C317 1.391 . S
C318 H325 0.930 . S
C319 N316 1.328 . S
C319 C321 1.392 . S
C319 H326 0.930 . S
N320 C317 1.329 . S
N320 C321 1.331 . S
C321 C319 1.392 . S
C321 N320 1.331 . S
O322 Zn315 1.975 . S
O322 C323 1.252 . S
C323 O322 1.252 . S
C323 O324 1.252 . S
O324 Zn306 1.975 . S
O324 C323 1.252 . S
H325 C318 0.930 . S
H326 C319 0.930 . S
C327 C328 1.392 . S
C327 N331 1.328 . S
C327 H333 0.930 . S
C328 C327 1.392 . S
C328 N332 1.331 . S
C329 C330 1.391 . S
C329 N332 1.329 . S
C329 H339 0.930 . S
C330 C329 1.391 . S
C330 N331 1.334 . S
C330 H337 0.930 . S
N331 Zn315 2.119 . S
N331 C327 1.328 . S
N331 C330 1.334 . S
N332 C328 1.331 . S
N332 C329 1.329 . S
H333 C327 0.930 . S
C334 O314 1.257 . S
C334 O335 1.244 . S
O335 C334 1.244 . S
O336 C312 1.257 . S
O336 Zn315 2.019 . S
H337 C330 0.930 . S
H338 C317 0.930 . S
H339 C329 0.930 . S
Zn340 N344 2.020 . S
Zn340 O348 2.019 . S
Zn340 N350 2.119 . S
Zn340 O358 1.975 . S
C341 N342 1.334 . S
C341 N345 1.336 . S
N342 C341 1.334 . S
N342 C343 1.334 . S
C343 N342 1.334 . S
C343 N344 1.336 . S
N344 Zn340 2.020 . S
N344 C343 1.336 . S
N344 N345 1.354 . S
N345 C341 1.336 . S
N345 N344 1.354 . S
N345 Zn349 2.020 . S
C346 O347 1.244 . S
C346 O370 1.257 . S
O347 C346 1.244 . S
O348 Zn340 2.019 . S
O348 C368 1.257 . S
Zn349 N345 2.020 . S
Zn349 O356 1.975 . S
Zn349 N365 2.119 . S
Zn349 O370 2.019 . S
N350 Zn340 2.119 . S
N350 C352 1.334 . S
N350 C353 1.328 . S
C351 C352 1.391 . S
C351 N354 1.329 . S
C351 H372 0.930 . S
C352 N350 1.334 . S
C352 C351 1.391 . S
C352 H359 0.930 . S
C353 N350 1.328 . S
C353 C355 1.392 . S
C353 H360 0.930 . S
N354 C351 1.329 . S
N354 C355 1.331 . S
C355 C353 1.392 . S
C355 N354 1.331 . S
O356 Zn349 1.975 . S
O356 C357 1.252 . S
C357 O356 1.252 . S
C357 O358 1.252 . S
O358 Zn340 1.975 . S
O358 C357 1.252 . S
H359 C352 0.930 . S
H360 C353 0.930 . S
C361 C362 1.392 . S
C361 N365 1.328 . S
C361 H367 0.930 . S
C362 C361 1.392 . S
C362 N366 1.331 . S
C363 C364 1.391 . S
C363 N366 1.329 . S
C363 H373 0.930 . S
C364 C363 1.391 . S
C364 N365 1.334 . S
C364 H371 0.930 . S
N365 Zn349 2.119 . S
N365 C361 1.328 . S
N365 C364 1.334 . S
N366 C362 1.331 . S
N366 C363 1.329 . S
H367 C361 0.930 . S
C368 O348 1.257 . S
C368 O369 1.244 . S
O369 C368 1.244 . S
O370 C346 1.257 . S
O370 Zn349 2.019 . S
H371 C364 0.930 . S
H372 C351 0.930 . S
H373 C363 0.930 . S
Zn374 N378 2.020 . S
Zn374 O382 2.019 . S
Zn374 N384 2.119 . S
Zn374 O392 1.975 . S
C375 N376 1.334 . S
C375 N379 1.336 . S
N376 C375 1.334 . S
N376 C377 1.334 . S
C377 N376 1.334 . S
C377 N378 1.336 . S
N378 Zn374 2.020 . S
N378 C377 1.336 . S
N378 N379 1.354 . S
N379 C375 1.336 . S
N379 N378 1.354 . S
N379 Zn383 2.020 . S
C380 O381 1.244 . S
C380 O404 1.257 . S
O381 C380 1.244 . S
O382 Zn374 2.019 . S
O382 C402 1.257 . S
Zn383 N379 2.020 . S
Zn383 O390 1.975 . S
Zn383 N399 2.119 . S
Zn383 O404 2.019 . S
N384 Zn374 2.119 . S
N384 C386 1.334 . S
N384 C387 1.328 . S
C385 C386 1.391 . S
C385 N388 1.329 . S
C385 H406 0.930 . S
C386 N384 1.334 . S
C386 C385 1.391 . S
C386 H393 0.930 . S
C387 N384 1.328 . S
C387 C389 1.392 . S
C387 H394 0.930 . S
N388 C385 1.329 . S
N388 C389 1.331 . S
C389 C387 1.392 . S
C389 N388 1.331 . S
O390 Zn383 1.975 . S
O390 C391 1.252 . S
C391 O390 1.252 . S
C391 O392 1.252 . S
O392 Zn374 1.975 . S
O392 C391 1.252 . S
H393 C386 0.930 . S
H394 C387 0.930 . S
C395 C396 1.392 . S
C395 N399 1.328 . S
C395 H401 0.930 . S
C396 C395 1.392 . S
C396 N400 1.331 . S
C397 C398 1.391 . S
C397 N400 1.329 . S
C397 H407 0.930 . S
C398 C397 1.391 . S
C398 N399 1.334 . S
C398 H405 0.930 . S
N399 Zn383 2.119 . S
N399 C395 1.328 . S
N399 C398 1.334 . S
N400 C396 1.331 . S
N400 C397 1.329 . S
H401 C395 0.930 . S
C402 O382 1.257 . S
C402 O403 1.244 . S
O403 C402 1.244 . S
O404 C380 1.257 . S
O404 Zn383 2.019 . S
H405 C398 0.930 . S
H406 C385 0.930 . S
H407 C397 0.930 . S
H408 C414 0.930 . S
H409 C417 0.930 . S
H410 C418 0.930 . S
H411 C419 0.930 . S
H412 C422 0.930 . S
H413 C423 0.925 . S
C414 H408 0.930 . S
C414 C415 1.355 . S
C414 C416 1.415 . S
C415 C414 1.355 . S
C415 C417 1.419 . S
C416 C414 1.415 . S
C416 C421 1.425 . S
C416 C423 1.422 . S
C417 H409 0.930 . S
C417 C415 1.419 . S
C417 C418 1.362 . S
C418 H410 0.930 . S
C418 C417 1.362 . S
C418 C421 1.409 . S
C419 H411 0.930 . S
C419 C420 1.355 . S
C419 C421 1.415 1_544 S
C420 C419 1.355 . S
C420 C422 1.419 . S
C421 C416 1.425 . S
C421 C418 1.409 . S
C421 C419 1.415 1_566 S
C422 H412 0.930 . S
C422 C420 1.419 . S
C422 C423 1.354 1_544 S
C423 H413 0.925 . S
C423 C416 1.422 . S
C423 C422 1.354 1_566 S
H424 C430 0.929 1_455 S
H425 C433 0.930 . S
H426 C434 0.930 . S
H427 C435 0.930 . S
H428 C438 0.930 . S
H429 C439 0.930 1_554 S
C430 H424 0.929 1_655 S
C430 C431 1.355 . S
C430 C432 1.395 1_654 S
C431 C430 1.355 . S
C431 C433 1.419 . S
C432 C430 1.395 1_456 S
C432 C437 1.440 . S
C432 C439 1.415 . S
C433 H425 0.930 . S
C433 C431 1.419 . S
C433 C434 1.362 1_554 S
C434 H426 0.930 . S
C434 C433 1.362 1_556 S
C434 C437 1.409 1_655 S
C435 H427 0.930 . S
C435 C436 1.355 . S
C435 C437 1.415 . S
C436 C435 1.355 . S
C436 C438 1.419 . S
C437 C432 1.440 . S
C437 C434 1.409 1_455 S
C437 C435 1.415 . S
C438 H428 0.930 . S
C438 C436 1.419 . S
C438 C439 1.362 . S
C439 H429 0.930 1_556 S
C439 C432 1.415 . S
C439 C438 1.362 . S
H440 C446 0.930 1_556 S
H441 C449 0.930 . S
H442 C450 0.930 . S
H443 C451 0.930 . S
H444 C454 0.930 . S
H445 C455 0.930 . S
C446 H440 0.930 1_554 S
C446 C447 1.355 . S
C446 C448 1.415 1_554 S
C447 C446 1.355 . S
C447 C449 1.419 . S
C448 C446 1.415 1_556 S
C448 C453 1.425 . S
C448 C455 1.409 . S
C449 H441 0.930 . S
C449 C447 1.419 . S
C449 C450 1.362 . S
C450 H442 0.930 . S
C450 C449 1.362 . S
C450 C453 1.409 1_554 S
C451 H443 0.930 . S
C451 C452 1.355 . S
C451 C453 1.415 . S
C452 C451 1.355 . S
C452 C454 1.419 . S
C453 C448 1.425 . S
C453 C450 1.409 1_556 S
C453 C451 1.415 . S
C454 H444 0.930 . S
C454 C452 1.419 . S
C454 C455 1.362 . S
C455 H445 0.930 . S
C455 C448 1.409 . S
C455 C454 1.362 . S
H456 C462 0.930 . S
H457 C465 0.930 . S
H458 C466 0.930 . S
H459 C467 0.930 . S
H460 C470 0.930 . S
H461 C471 0.930 1_455 S
C462 H456 0.930 . S
C462 C463 1.355 . S
C462 C464 1.415 1_455 S
C463 C462 1.355 . S
C463 C465 1.419 . S
C464 C462 1.415 1_655 S
C464 C469 1.425 . S
C464 C471 1.409 . S
C465 H457 0.930 . S
C465 C463 1.419 . S
C465 C466 1.362 1_455 S
C466 H458 0.930 . S
C466 C465 1.362 1_655 S
C466 C469 1.409 . S
C467 H459 0.930 . S
C467 C468 1.355 . S
C467 C469 1.415 . S
C468 C467 1.355 . S
C468 C470 1.419 . S
C469 C464 1.425 . S
C469 C466 1.409 . S
C469 C467 1.415 . S
C470 H460 0.930 . S
C470 C468 1.419 . S
C470 C471 1.362 . S
C471 H461 0.930 1_655 S
C471 C464 1.409 . S
C471 C470 1.362 . S
H472 C478 0.930 . S
H473 C481 0.930 . S
H474 C482 0.930 . S
H475 C483 0.930 . S
H476 C486 0.930 . S
H477 C487 0.930 . S
C478 H472 0.930 . S
C478 C479 1.355 . S
C478 C480 1.415 . S
C479 C478 1.355 . S
C479 C481 1.419 . S
C480 C478 1.415 . S
C480 C485 1.425 . S
C480 C487 1.409 . S
C481 H473 0.930 . S
C481 C479 1.419 . S
C481 C482 1.362 . S
C482 H474 0.930 . S
C482 C481 1.362 . S
C482 C485 1.409 . S
C483 H475 0.930 . S
C483 C484 1.355 . S
C483 C485 1.415 . S
C484 C483 1.355 . S
C484 C486 1.419 . S
C485 C480 1.425 . S
C485 C482 1.409 . S
C485 C483 1.415 . S
C486 H476 0.930 . S
C486 C484 1.419 . S
C486 C487 1.362 . S
C487 H477 0.930 . S
C487 C480 1.409 . S
C487 C486 1.362 . S
H488 C494 0.930 . S
H489 C497 0.930 . S
H490 C498 0.930 . S
H491 C499 0.930 . S
H492 C502 0.930 . S
H493 C503 0.930 . S
C494 H488 0.930 . S
C494 C495 1.355 . S
C494 C496 1.415 1_565 S
C495 C494 1.355 . S
C495 C497 1.419 . S
C496 C494 1.415 1_545 S
C496 C501 1.425 . S
C496 C503 1.409 . S
C497 H489 0.930 . S
C497 C495 1.419 . S
C497 C498 1.362 1_565 S
C498 H490 0.930 . S
C498 C497 1.362 1_545 S
C498 C501 1.409 . S
C499 H491 0.930 . S
C499 C500 1.355 . S
C499 C501 1.415 . S
C500 C499 1.355 . S
C500 C502 1.419 . S
C501 C496 1.425 . S
C501 C498 1.409 . S
C501 C499 1.415 . S
C502 H492 0.930 . S
C502 C500 1.419 . S
C502 C503 1.362 . S
C503 H493 0.930 . S
C503 C496 1.409 . S
C503 C502 1.362 . S
H504 C510 0.930 . S
H505 C513 0.930 . S
H506 C514 0.930 . S
H507 C515 0.930 . S
H508 C518 0.930 . S
H509 C519 0.930 . S
C510 H504 0.930 . S
C510 C511 1.355 1_545 S
C510 C512 1.415 . S
C511 C510 1.355 1_565 S
C511 C513 1.419 . S
C512 C510 1.415 . S
C512 C517 1.425 1_556 S
C512 C519 1.409 . S
C513 H505 0.930 . S
C513 C511 1.419 . S
C513 C514 1.362 1_556 S
C514 H506 0.930 . S
C514 C513 1.362 1_554 S
C514 C517 1.409 1_565 S
C515 H507 0.930 . S
C515 C516 1.355 . S
C515 C517 1.415 . S
C516 C515 1.355 . S
C516 C518 1.419 . S
C517 C512 1.425 1_554 S
C517 C514 1.409 1_545 S
C517 C515 1.415 . S
C518 H508 0.930 . S
C518 C516 1.419 . S
C518 C519 1.362 1_554 S
C519 H509 0.930 . S
C519 C512 1.409 . S
C519 C518 1.362 1_556 S
H520 C526 0.930 . S
H521 C529 0.930 . S
H522 C530 0.930 . S
H523 C531 0.930 . S
H524 C534 0.930 . S
H525 C535 0.930 1_455 S
C526 H520 0.930 . S
C526 C527 1.355 . S
C526 C528 1.415 1_456 S
C527 C526 1.355 . S
C527 C529 1.419 . S
C528 C526 1.415 1_654 S
C528 C533 1.425 . S
C528 C535 1.409 . S
C529 H521 0.930 . S
C529 C527 1.419 . S
C529 C530 1.362 1_455 S
C530 H522 0.930 . S
C530 C529 1.362 1_655 S
C530 C533 1.409 1_556 S
C531 H523 0.930 . S
C531 C532 1.355 . S
C531 C533 1.415 . S
C532 C531 1.355 . S
C532 C534 1.419 . S
C533 C528 1.425 . S
C533 C530 1.409 1_554 S
C533 C531 1.415 . S
C534 H524 0.930 . S
C534 C532 1.419 . S
C534 C535 1.362 . S
C535 H525 0.930 1_655 S
C535 C528 1.409 . S
C535 C534 1.362 . S
H536 C542 0.930 . S
H537 C545 0.930 . S
H538 C546 0.930 . S
H539 C547 0.930 . S
H540 C550 0.930 . S
H541 C551 0.930 . S
C542 H536 0.930 . S
C542 C543 1.355 . S
C542 C544 1.415 . S
C543 C542 1.355 . S
C543 C545 1.419 . S
C544 C542 1.415 . S
C544 C549 1.425 . S
C544 C551 1.409 1_554 S
C545 H537 0.930 . S
C545 C543 1.419 . S
C545 C546 1.362 . S
C546 H538 0.930 . S
C546 C545 1.362 . S
C546 C549 1.409 . S
C547 H539 0.930 . S
C547 C548 1.355 . S
C547 C549 1.415 1_556 S
C548 C547 1.355 . S
C548 C550 1.419 . S
C549 C544 1.425 . S
C549 C546 1.409 . S
C549 C547 1.415 1_554 S
C550 H540 0.930 . S
C550 C548 1.419 . S
C550 C551 1.362 . S
C551 H541 0.930 . S
C551 C544 1.409 1_556 S
C551 C550 1.362 . S
H552 C558 0.930 . S
H553 C561 0.930 . S
H554 C562 0.930 . S
H555 C563 0.930 . S
H556 C566 0.930 . S
H557 C567 0.930 . S
C558 H552 0.930 . S
C558 C559 1.355 . S
C558 C560 1.415 1_655 S
C559 C558 1.355 . S
C559 C561 1.419 . S
C560 C558 1.415 1_455 S
C560 C565 1.425 . S
C560 C567 1.409 . S
C561 H553 0.930 . S
C561 C559 1.419 . S
C561 C562 1.362 . S
C562 H554 0.930 . S
C562 C561 1.362 . S
C562 C565 1.409 1_655 S
C563 H555 0.930 . S
C563 C564 1.355 . S
C563 C565 1.415 . S
C564 C563 1.355 . S
C564 C566 1.419 . S
C565 C560 1.425 . S
C565 C562 1.409 1_455 S
C565 C563 1.415 . S
C566 H556 0.930 . S
C566 C564 1.419 . S
C566 C567 1.362 . S
C567 H557 0.930 . S
C567 C560 1.409 . S
C567 C566 1.362 . S
H568 C574 0.930 . S
H569 C577 0.930 . S
H570 C578 0.930 . S
H571 C579 0.930 . S
H572 C582 0.930 . S
H573 C583 0.930 . S
C574 H568 0.930 . S
C574 C575 1.355 . S
C574 C576 1.415 . S
C575 C574 1.355 . S
C575 C577 1.419 . S
C576 C574 1.415 . S
C576 C581 1.425 . S
C576 C583 1.409 . S
C577 H569 0.930 . S
C577 C575 1.419 . S
C577 C578 1.362 . S
C578 H570 0.930 . S
C578 C577 1.362 . S
C578 C581 1.409 . S
C579 H571 0.930 . S
C579 C580 1.355 . S
C579 C581 1.415 . S
C580 C579 1.355 . S
C580 C582 1.419 . S
C581 C576 1.425 . S
C581 C578 1.409 . S
C581 C579 1.415 . S
C582 H572 0.930 . S
C582 C580 1.419 . S
C582 C583 1.362 . S
C583 H573 0.930 . S
C583 C576 1.409 . S
C583 C582 1.362 . S
H584 C590 0.930 . S
H585 C593 0.930 . S
H586 C594 0.930 . S
H587 C595 0.930 1_565 S
H588 C598 0.930 . S
H589 C599 0.930 . S
C590 H584 0.930 . S
C590 C591 1.355 . S
C590 C592 1.415 . S
C591 C590 1.355 . S
C591 C593 1.419 . S
C592 C590 1.415 . S
C592 C597 1.425 . S
C592 C599 1.409 1_565 S
C593 H585 0.930 . S
C593 C591 1.419 . S
C593 C594 1.362 . S
C594 H586 0.930 . S
C594 C593 1.362 . S
C594 C597 1.409 . S
C595 H587 0.930 1_545 S
C595 C596 1.355 . S
C595 C597 1.415 1_545 S
C596 C595 1.355 . S
C596 C598 1.419 . S
C597 C592 1.425 . S
C597 C594 1.409 . S
C597 C595 1.415 1_565 S
C598 H588 0.930 . S
C598 C596 1.419 . S
C598 C599 1.362 . S
C599 H589 0.930 . S
C599 C592 1.409 1_545 S
C599 C598 1.362 . S
H600 C606 0.930 . S
H601 C609 0.930 . S
H602 C610 0.930 . S
H603 C611 0.930 . S
H604 C614 0.930 . S
H605 C615 0.930 . S
C606 H600 0.930 . S
C606 C607 1.355 . S
C606 C608 1.415 . S
C607 C606 1.355 . S
C607 C609 1.419 . S
C608 C606 1.415 . S
C608 C613 1.425 . S
C608 C615 1.409 . S
C609 H601 0.930 . S
C609 C607 1.419 . S
C609 C610 1.362 . S
C610 H602 0.930 . S
C610 C609 1.362 . S
C610 C613 1.409 . S
C611 H603 0.930 . S
C611 C612 1.355 . S
C611 C613 1.415 . S
C612 C611 1.355 . S
C612 C614 1.419 . S
C613 C608 1.425 . S
C613 C610 1.409 . S
C613 C611 1.415 . S
C614 H604 0.930 . S
C614 C612 1.419 . S
C614 C615 1.362 . S
C615 H605 0.930 . S
C615 C608 1.409 . S
C615 C614 1.362 . S
H616 C622 0.930 . S
H617 C625 0.930 . S
H618 C626 0.930 1_565 S
H619 C627 0.930 . S
H620 C630 0.930 . S
H621 C631 0.930 1_545 S
C622 H616 0.930 . S
C622 C623 1.355 . S
C622 C624 1.415 . S
C623 C622 1.355 . S
C623 C625 1.419 . S
C624 C622 1.415 . S
C624 C629 1.425 1_545 S
C624 C631 1.409 1_545 S
C625 H617 0.930 . S
C625 C623 1.419 . S
C625 C626 1.362 . S
C626 H618 0.930 1_545 S
C626 C625 1.362 . S
C626 C629 1.409 1_545 S
C627 H619 0.930 . S
C627 C628 1.355 . S
C627 C629 1.415 . S
C628 C627 1.355 . S
C628 C630 1.419 . S
C629 C624 1.425 1_565 S
C629 C626 1.409 1_565 S
C629 C627 1.415 . S
C630 H620 0.930 . S
C630 C628 1.419 . S
C630 C631 1.362 . S
C631 H621 0.930 1_565 S
C631 C624 1.409 1_565 S
C631 C630 1.362 . S
H632 C638 0.930 . S
H633 C641 0.930 . S
H634 C642 0.930 . S
H635 C643 0.930 . S
H636 C646 0.930 . S
H637 C647 0.930 . S
C638 H632 0.930 . S
C638 C639 1.355 . S
C638 C640 1.415 1_655 S
C639 C638 1.355 . S
C639 C641 1.419 . S
C640 C638 1.415 1_455 S
C640 C645 1.425 1_455 S
C640 C647 1.409 . S
C641 H633 0.930 . S
C641 C639 1.419 . S
C641 C642 1.362 . S
C642 H634 0.930 . S
C642 C641 1.362 . S
C642 C645 1.409 . S
C643 H635 0.930 . S
C643 C644 1.355 . S
C643 C645 1.415 1_455 S
C644 C643 1.355 . S
C644 C646 1.419 . S
C645 C640 1.425 1_655 S
C645 C642 1.409 . S
C645 C643 1.415 1_655 S
C646 H636 0.930 . S
C646 C644 1.419 . S
C646 C647 1.362 . S
C647 H637 0.930 . S
C647 C640 1.409 . S
C647 C646 1.362 . S
H648 C654 0.930 . S
H649 C657 0.930 . S
H650 C658 0.930 . S
H651 C659 0.930 . S
H652 C662 0.930 . S
H653 C663 0.930 . S
C654 H648 0.930 . S
C654 C655 1.355 . S
C654 C656 1.415 . S
C655 C654 1.355 . S
C655 C657 1.419 . S
C656 C654 1.415 . S
C656 C661 1.425 . S
C656 C663 1.409 . S
C657 H649 0.930 . S
C657 C655 1.419 . S
C657 C658 1.362 . S
C658 H650 0.930 . S
C658 C657 1.362 . S
C658 C661 1.409 . S
C659 H651 0.930 . S
C659 C660 1.355 . S
C659 C661 1.415 . S
C660 C659 1.355 . S
C660 C662 1.419 . S
C661 C656 1.425 . S
C661 C658 1.409 . S
C661 C659 1.415 . S
C662 H652 0.930 . S
C662 C660 1.419 . S
C662 C663 1.362 . S
C663 H653 0.930 . S
C663 C656 1.409 . S
C663 C662 1.362 . S
H664 C670 0.930 . S
H665 C673 0.930 . S
H666 C674 0.930 . S
H667 C675 0.930 . S
H668 C678 0.930 . S
H669 C679 0.930 . S
C670 H664 0.930 . S
C670 C671 1.355 . S
C670 C672 1.415 . S
C671 C670 1.355 . S
C671 C673 1.419 . S
C672 C670 1.415 . S
C672 C677 1.425 1_545 S
C672 C679 1.409 1_545 S
C673 H665 0.930 . S
C673 C671 1.419 . S
C673 C674 1.362 . S
C674 H666 0.930 . S
C674 C673 1.362 . S
C674 C677 1.409 1_545 S
C675 H667 0.930 . S
C675 C676 1.355 . S
C675 C677 1.415 . S
C676 C675 1.355 . S
C676 C678 1.419 . S
C677 C672 1.425 1_565 S
C677 C674 1.409 1_565 S
C677 C675 1.415 . S
C678 H668 0.930 . S
C678 C676 1.419 . S
C678 C679 1.362 . S
C679 H669 0.930 . S
C679 C672 1.409 1_565 S
C679 C678 1.362 . S
H680 C686 0.930 . S
H681 C689 0.930 . S
H682 C690 0.930 . S
H683 C691 0.930 . S
H684 C694 0.930 . S
H685 C695 0.930 . S
C686 H680 0.930 . S
C686 C687 1.355 . S
C686 C688 1.415 . S
C687 C686 1.355 . S
C687 C689 1.419 . S
C688 C686 1.415 . S
C688 C693 1.425 1_655 S
C688 C695 1.409 1_655 S
C689 H681 0.930 . S
C689 C687 1.419 . S
C689 C690 1.362 . S
C690 H682 0.930 . S
C690 C689 1.362 . S
C690 C693 1.409 1_655 S
C691 H683 0.930 . S
C691 C692 1.355 . S
C691 C693 1.415 . S
C692 C691 1.355 . S
C692 C694 1.419 . S
C693 C688 1.425 1_455 S
C693 C690 1.409 1_455 S
C693 C691 1.415 . S
C694 H684 0.930 . S
C694 C692 1.419 . S
C694 C695 1.362 . S
C695 H685 0.930 . S
C695 C688 1.409 1_455 S
C695 C694 1.362 . S
H696 C702 0.930 . S
H697 C705 0.930 . S
H698 C706 0.930 . S
H699 C707 0.930 . S
H700 C710 0.930 . S
H701 C711 0.930 . S
C702 H696 0.930 . S
C702 C703 1.355 . S
C702 C704 1.415 . S
C703 C702 1.355 . S
C703 C705 1.419 . S
C704 C702 1.415 . S
C704 C709 1.425 . S
C704 C711 1.409 . S
C705 H697 0.930 . S
C705 C703 1.419 . S
C705 C706 1.362 . S
C706 H698 0.930 . S
C706 C705 1.362 . S
C706 C709 1.409 . S
C707 H699 0.930 . S
C707 C708 1.355 . S
C707 C709 1.415 . S
C708 C707 1.355 . S
C708 C710 1.419 . S
C709 C704 1.425 . S
C709 C706 1.409 . S
C709 C707 1.415 . S
C710 H700 0.930 . S
C710 C708 1.419 . S
C710 C711 1.362 . S
C711 H701 0.930 . S
C711 C704 1.409 . S
C711 C710 1.362 . S
H712 C718 0.930 . S
H713 C721 0.930 . S
H714 C722 0.930 . S
H715 C723 0.930 . S
H716 C726 0.930 . S
H717 C727 0.930 . S
C718 H712 0.930 . S
C718 C719 1.355 . S
C718 C720 1.415 . S
C719 C718 1.355 . S
C719 C721 1.419 . S
C720 C718 1.415 . S
C720 C725 1.425 . S
C720 C727 1.409 . S
C721 H713 0.930 . S
C721 C719 1.419 . S
C721 C722 1.362 . S
C722 H714 0.930 . S
C722 C721 1.362 . S
C722 C725 1.409 . S
C723 H715 0.930 . S
C723 C724 1.355 . S
C723 C725 1.415 . S
C724 C723 1.355 . S
C724 C726 1.419 . S
C725 C720 1.425 . S
C725 C722 1.409 . S
C725 C723 1.415 . S
C726 H716 0.930 . S
C726 C724 1.419 . S
C726 C727 1.362 . S
C727 H717 0.930 . S
C727 C720 1.409 . S
C727 C726 1.362 . S
H728 C734 0.930 . S
H729 C737 0.930 . S
H730 C738 0.930 . S
H731 C739 0.930 . S
H732 C742 0.930 . S
H733 C743 0.930 . S
C734 H728 0.930 . S
C734 C735 1.355 . S
C734 C736 1.415 . S
C735 C734 1.355 . S
C735 C737 1.419 . S
C736 C734 1.415 . S
C736 C741 1.425 . S
C736 C743 1.409 . S
C737 H729 0.930 . S
C737 C735 1.419 . S
C737 C738 1.362 . S
C738 H730 0.930 . S
C738 C737 1.362 . S
C738 C741 1.409 . S
C739 H731 0.930 . S
C739 C740 1.355 . S
C739 C741 1.415 . S
C740 C739 1.355 . S
C740 C742 1.419 . S
C741 C736 1.425 . S
C741 C738 1.409 . S
C741 C739 1.415 . S
C742 H732 0.930 . S
C742 C740 1.419 . S
C742 C743 1.362 . S
C743 H733 0.930 . S
C743 C736 1.409 . S
C743 C742 1.362 . S
H744 C750 0.930 . S
H745 C753 0.930 . S
H746 C754 0.930 . S
H747 C755 0.930 . S
H748 C758 0.930 . S
H749 C759 0.930 . S
C750 H744 0.930 . S
C750 C751 1.355 . S
C750 C752 1.415 . S
C751 C750 1.355 . S
C751 C753 1.419 . S
C752 C750 1.415 . S
C752 C757 1.425 . S
C752 C759 1.409 . S
C753 H745 0.930 . S
C753 C751 1.419 . S
C753 C754 1.362 . S
C754 H746 0.930 . S
C754 C753 1.362 . S
C754 C757 1.409 . S
C755 H747 0.930 . S
C755 C756 1.355 . S
C755 C757 1.415 . S
C756 C755 1.355 . S
C756 C758 1.419 . S
C757 C752 1.425 . S
C757 C754 1.409 . S
C757 C755 1.415 . S
C758 H748 0.930 . S
C758 C756 1.419 . S
C758 C759 1.362 . S
C759 H749 0.930 . S
C759 C752 1.409 . S
C759 C758 1.362 . S
H760 C766 0.930 . S
H761 C769 0.930 . S
H762 C770 0.930 . S
H763 C771 0.930 . S
H764 C774 0.930 . S
H765 C775 0.930 . S
C766 H760 0.930 . S
C766 C767 1.355 . S
C766 C768 1.415 . S
C767 C766 1.355 . S
C767 C769 1.419 . S
C768 C766 1.415 . S
C768 C773 1.425 . S
C768 C775 1.409 . S
C769 H761 0.930 . S
C769 C767 1.419 . S
C769 C770 1.362 . S
C770 H762 0.930 . S
C770 C769 1.362 . S
C770 C773 1.409 . S
C771 H763 0.930 . S
C771 C772 1.355 . S
C771 C773 1.415 . S
C772 C771 1.355 . S
C772 C774 1.419 . S
C773 C768 1.425 . S
C773 C770 1.409 . S
C773 C771 1.415 . S
C774 H764 0.930 . S
C774 C772 1.419 . S
C774 C775 1.362 . S
C775 H765 0.930 . S
C775 C768 1.409 . S
C775 C774 1.362 . S
H776 C782 0.930 . S
H777 C785 0.930 . S
H778 C786 0.930 . S
H779 C787 0.930 . S
H780 C790 0.930 . S
H781 C791 0.930 . S
C782 H776 0.930 . S
C782 C783 1.355 . S
C782 C784 1.415 . S
C783 C782 1.355 . S
C783 C785 1.419 . S
C784 C782 1.415 . S
C784 C789 1.425 . S
C784 C791 1.409 . S
C785 H777 0.930 . S
C785 C783 1.419 . S
C785 C786 1.362 . S
C786 H778 0.930 . S
C786 C785 1.362 . S
C786 C789 1.409 . S
C787 H779 0.930 . S
C787 C788 1.355 . S
C787 C789 1.415 . S
C788 C787 1.355 . S
C788 C790 1.419 . S
C789 C784 1.425 . S
C789 C786 1.409 . S
C789 C787 1.415 . S
C790 H780 0.930 . S
C790 C788 1.419 . S
C790 C791 1.362 . S
C791 H781 0.930 . S
C791 C784 1.409 . S
C791 C790 1.362 . S
H792 C798 0.930 . S
H793 C801 0.930 . S
H794 C802 0.930 . S
H795 C803 0.930 . S
H796 C806 0.930 . S
H797 C807 0.930 . S
C798 H792 0.930 . S
C798 C799 1.355 . S
C798 C800 1.415 . S
C799 C798 1.355 . S
C799 C801 1.419 . S
C800 C798 1.415 . S
C800 C805 1.425 . S
C800 C807 1.409 . S
C801 H793 0.930 . S
C801 C799 1.419 . S
C801 C802 1.362 . S
C802 H794 0.930 . S
C802 C801 1.362 . S
C802 C805 1.409 . S
C803 H795 0.930 . S
C803 C804 1.355 . S
C803 C805 1.415 . S
C804 C803 1.355 . S
C804 C806 1.419 . S
C805 C800 1.425 . S
C805 C802 1.409 . S
C805 C803 1.415 . S
C806 H796 0.930 . S
C806 C804 1.419 . S
C806 C807 1.362 . S
C807 H797 0.930 . S
C807 C800 1.409 . S
C807 C806 1.362 . S
H808 C814 0.930 . S
H809 C817 0.930 . S
H810 C818 0.930 . S
H811 C819 0.930 . S
H812 C822 0.930 . S
H813 C823 0.930 . S
C814 H808 0.930 . S
C814 C815 1.355 . S
C814 C816 1.415 . S
C815 C814 1.355 . S
C815 C817 1.419 . S
C816 C814 1.415 . S
C816 C821 1.425 . S
C816 C823 1.409 . S
C817 H809 0.930 . S
C817 C815 1.419 . S
C817 C818 1.362 . S
C818 H810 0.930 . S
C818 C817 1.362 . S
C818 C821 1.409 . S
C819 H811 0.930 . S
C819 C820 1.355 . S
C819 C821 1.415 . S
C820 C819 1.355 . S
C820 C822 1.419 . S
C821 C816 1.425 . S
C821 C818 1.409 . S
C821 C819 1.415 . S
C822 H812 0.930 . S
C822 C820 1.419 . S
C822 C823 1.362 . S
C823 H813 0.930 . S
C823 C816 1.409 . S
C823 C822 1.362 . S
H824 C830 0.930 . S
H825 C833 0.930 . S
H826 C834 0.930 . S
H827 C835 0.930 . S
H828 C838 0.930 . S
H829 C839 0.930 . S
C830 H824 0.930 . S
C830 C831 1.355 . S
C830 C832 1.415 . S
C831 C830 1.355 . S
C831 C833 1.419 . S
C832 C830 1.415 . S
C832 C837 1.425 . S
C832 C839 1.409 . S
C833 H825 0.930 . S
C833 C831 1.419 . S
C833 C834 1.362 . S
C834 H826 0.930 . S
C834 C833 1.362 . S
C834 C837 1.409 . S
C835 H827 0.930 . S
C835 C836 1.355 . S
C835 C837 1.415 . S
C836 C835 1.355 . S
C836 C838 1.419 . S
C837 C832 1.425 . S
C837 C834 1.409 . S
C837 C835 1.415 . S
C838 H828 0.930 . S
C838 C836 1.419 . S
C838 C839 1.362 . S
C839 H829 0.930 . S
C839 C832 1.409 . S
C839 C838 1.362 . S
H840 C846 0.930 . S
H841 C849 0.930 . S
H842 C850 0.930 . S
H843 C851 0.930 . S
H844 C854 0.930 . S
H845 C855 0.930 . S
C846 H840 0.930 . S
C846 C847 1.355 . S
C846 C848 1.415 . S
C847 C846 1.355 . S
C847 C849 1.419 . S
C848 C846 1.415 . S
C848 C853 1.425 . S
C848 C855 1.409 . S
C849 H841 0.930 . S
C849 C847 1.419 . S
C849 C850 1.362 . S
C850 H842 0.930 . S
C850 C849 1.362 . S
C850 C853 1.409 . S
C851 H843 0.930 . S
C851 C852 1.355 . S
C851 C853 1.415 . S
C852 C851 1.355 . S
C852 C854 1.419 . S
C853 C848 1.425 . S
C853 C850 1.409 . S
C853 C851 1.415 . S
C854 H844 0.930 . S
C854 C852 1.419 . S
C854 C855 1.362 . S
C855 H845 0.930 . S
C855 C848 1.409 . S
C855 C854 1.362 . S
H856 C862 0.930 . S
H857 C865 0.930 . S
H858 C866 0.930 . S
H859 C867 0.930 . S
H860 C870 0.930 . S
H861 C871 0.930 . S
C862 H856 0.930 . S
C862 C863 1.355 . S
C862 C864 1.415 . S
C863 C862 1.355 . S
C863 C865 1.419 . S
C864 C862 1.415 . S
C864 C869 1.425 . S
C864 C871 1.409 . S
C865 H857 0.930 . S
C865 C863 1.419 . S
C865 C866 1.362 . S
C866 H858 0.930 . S
C866 C865 1.362 . S
C866 C869 1.409 . S
C867 H859 0.930 . S
C867 C868 1.355 . S
C867 C869 1.415 . S
C868 C867 1.355 . S
C868 C870 1.419 . S
C869 C864 1.425 . S
C869 C866 1.409 . S
C869 C867 1.415 . S
C870 H860 0.930 . S
C870 C868 1.419 . S
C870 C871 1.362 . S
C871 H861 0.930 . S
C871 C864 1.409 . S
C871 C870 1.362 . S
H872 C878 0.930 . S
H873 C881 0.930 . S
H874 C882 0.930 . S
H875 C883 0.930 . S
H876 C886 0.930 . S
H877 C887 0.930 . S
C878 H872 0.930 . S
C878 C879 1.355 . S
C878 C880 1.415 . S
C879 C878 1.355 . S
C879 C881 1.419 . S
C880 C878 1.415 . S
C880 C885 1.425 . S
C880 C887 1.409 . S
C881 H873 0.930 . S
C881 C879 1.419 . S
C881 C882 1.362 . S
C882 H874 0.930 . S
C882 C881 1.362 . S
C882 C885 1.409 . S
C883 H875 0.930 . S
C883 C884 1.355 . S
C883 C885 1.415 . S
C884 C883 1.355 . S
C884 C886 1.419 . S
C885 C880 1.425 . S
C885 C882 1.409 . S
C885 C883 1.415 . S
C886 H876 0.930 . S
C886 C884 1.419 . S
C886 C887 1.362 . S
C887 H877 0.930 . S
C887 C880 1.409 . S
C887 C886 1.362 . S
H888 C894 0.930 . S
H889 C897 0.930 . S
H890 C898 0.930 . S
H891 C899 0.930 . S
H892 C902 0.930 . S
H893 C903 0.930 . S
C894 H888 0.930 . S
C894 C895 1.355 . S
C894 C896 1.415 . S
C895 C894 1.355 . S
C895 C897 1.419 . S
C896 C894 1.415 . S
C896 C901 1.425 . S
C896 C903 1.409 . S
C897 H889 0.930 . S
C897 C895 1.419 . S
C897 C898 1.362 . S
C898 H890 0.930 . S
C898 C897 1.362 . S
C898 C901 1.409 . S
C899 H891 0.930 . S
C899 C900 1.355 . S
C899 C901 1.415 . S
C900 C899 1.355 . S
C900 C902 1.419 . S
C901 C896 1.425 . S
C901 C898 1.409 . S
C901 C899 1.415 . S
C902 H892 0.930 . S
C902 C900 1.419 . S
C902 C903 1.362 . S
C903 H893 0.930 . S
C903 C896 1.409 . S
C903 C902 1.362 . S
H904 C910 0.930 . S
H905 C913 0.930 . S
H906 C914 0.930 . S
H907 C915 0.930 . S
H908 C918 0.930 . S
H909 C919 0.930 . S
C910 H904 0.930 . S
C910 C911 1.355 . S
C910 C912 1.415 . S
C911 C910 1.355 . S
C911 C913 1.419 . S
C912 C910 1.415 . S
C912 C917 1.425 . S
C912 C919 1.409 . S
C913 H905 0.930 . S
C913 C911 1.419 . S
C913 C914 1.362 . S
C914 H906 0.930 . S
C914 C913 1.362 . S
C914 C917 1.409 . S
C915 H907 0.930 . S
C915 C916 1.355 . S
C915 C917 1.415 . S
C916 C915 1.355 . S
C916 C918 1.419 . S
C917 C912 1.425 . S
C917 C914 1.409 . S
C917 C915 1.415 . S
C918 H908 0.930 . S
C918 C916 1.419 . S
C918 C919 1.362 . S
C919 H909 0.930 . S
C919 C912 1.409 . S
C919 C918 1.362 . S
H920 C926 0.930 . S
H921 C929 0.930 . S
H922 C930 0.930 . S
H923 C931 0.930 . S
H924 C934 0.930 . S
H925 C935 0.930 . S
C926 H920 0.930 . S
C926 C927 1.355 . S
C926 C928 1.415 . S
C927 C926 1.355 . S
C927 C929 1.419 . S
C928 C926 1.415 . S
C928 C933 1.425 . S
C928 C935 1.409 . S
C929 H921 0.930 . S
C929 C927 1.419 . S
C929 C930 1.362 . S
C930 H922 0.930 . S
C930 C929 1.362 . S
C930 C933 1.409 . S
C931 H923 0.930 . S
C931 C932 1.355 . S
C931 C933 1.415 . S
C932 C931 1.355 . S
C932 C934 1.419 . S
C933 C928 1.425 . S
C933 C930 1.409 . S
C933 C931 1.415 . S
C934 H924 0.930 . S
C934 C932 1.419 . S
C934 C935 1.362 . S
C935 H925 0.930 . S
C935 C928 1.409 . S
C935 C934 1.362 . S
H936 C942 0.930 . S
H937 C945 0.930 . S
H938 C946 0.930 . S
H939 C947 0.930 . S
H940 C950 0.930 . S
H941 C951 0.930 . S
C942 H936 0.930 . S
C942 C943 1.355 . S
C942 C944 1.415 . S
C943 C942 1.355 . S
C943 C945 1.419 . S
C944 C942 1.415 . S
C944 C949 1.425 . S
C944 C951 1.409 . S
C945 H937 0.930 . S
C945 C943 1.419 . S
C945 C946 1.362 . S
C946 H938 0.930 . S
C946 C945 1.362 . S
C946 C949 1.409 . S
C947 H939 0.930 . S
C947 C948 1.355 . S
C947 C949 1.415 . S
C948 C947 1.355 . S
C948 C950 1.419 . S
C949 C944 1.425 . S
C949 C946 1.409 . S
C949 C947 1.415 . S
C950 H940 0.930 . S
C950 C948 1.419 . S
C950 C951 1.362 . S
C951 H941 0.930 . S
C951 C944 1.409 . S
C951 C950 1.362 . S
H952 C958 0.930 . S
H953 C961 0.930 . S
H954 C962 0.930 . S
H955 C963 0.930 . S
H956 C966 0.930 . S
H957 C967 0.930 . S
C958 H952 0.930 . S
C958 C959 1.355 . S
C958 C960 1.415 . S
C959 C958 1.355 . S
C959 C961 1.419 . S
C960 C958 1.415 . S
C960 C965 1.425 . S
C960 C967 1.409 . S
C961 H953 0.930 . S
C961 C959 1.419 . S
C961 C962 1.362 . S
C962 H954 0.930 . S
C962 C961 1.362 . S
C962 C965 1.409 . S
C963 H955 0.930 . S
C963 C964 1.355 . S
C963 C965 1.415 . S
C964 C963 1.355 . S
C964 C966 1.419 . S
C965 C960 1.425 . S
C965 C962 1.409 . S
C965 C963 1.415 . S
C966 H956 0.930 . S
C966 C964 1.419 . S
C966 C967 1.362 . S
C967 H957 0.930 . S
C967 C960 1.409 . S
C967 C966 1.362 . S
H968 C974 0.930 . S
H969 C977 0.930 . S
H970 C978 0.930 . S
H971 C979 0.930 . S
H972 C982 0.930 . S
H973 C983 0.930 . S
C974 H968 0.930 . S
C974 C975 1.355 . S
C974 C976 1.415 . S
C975 C974 1.355 . S
C975 C977 1.419 . S
C976 C974 1.415 . S
C976 C981 1.425 . S
C976 C983 1.409 . S
C977 H969 0.930 . S
C977 C975 1.419 . S
C977 C978 1.362 . S
C978 H970 0.930 . S
C978 C977 1.362 . S
C978 C981 1.409 . S
C979 H971 0.930 . S
C979 C980 1.355 . S
C979 C981 1.415 . S
C980 C979 1.355 . S
C980 C982 1.419 . S
C981 C976 1.425 . S
C981 C978 1.409 . S
C981 C979 1.415 . S
C982 H972 0.930 . S
C982 C980 1.419 . S
C982 C983 1.362 . S
C983 H973 0.930 . S
C983 C976 1.409 . S
C983 C982 1.362 . S
H984 C990 0.930 . S
H985 C993 0.930 . S
H986 C994 0.930 . S
H987 C995 0.930 . S
H988 C998 0.930 . S
H989 C999 0.930 . S
C990 H984 0.930 . S
C990 C991 1.355 . S
C990 C992 1.415 . S
C991 C990 1.355 . S
C991 C993 1.419 . S
C992 C990 1.415 . S
C992 C997 1.425 . S
C992 C999 1.409 . S
C993 H985 0.930 . S
C993 C991 1.419 . S
C993 C994 1.362 . S
C994 H986 0.930 . S
C994 C993 1.362 . S
C994 C997 1.409 . S
C995 H987 0.930 . S
C995 C996 1.355 . S
C995 C997 1.415 . S
C996 C995 1.355 . S
C996 C998 1.419 . S
C997 C992 1.425 . S
C997 C994 1.409 . S
C997 C995 1.415 . S
C998 H988 0.930 . S
C998 C996 1.419 . S
C998 C999 1.362 . S
C999 H989 0.930 . S
C999 C992 1.409 . S
C999 C998 1.362 . S
H1000 C1006 0.930 . S
H1001 C1009 0.930 . S
H1002 C1010 0.930 . S
H1003 C1011 0.930 . S
H1004 C1014 0.930 . S
H1005 C1015 0.930 . S
C1006 H1000 0.930 . S
C1006 C1007 1.355 . S
C1006 C1008 1.415 . S
C1007 C1006 1.355 . S
C1007 C1009 1.419 . S
C1008 C1006 1.415 . S
C1008 C1013 1.425 . S
C1008 C1015 1.409 . S
C1009 H1001 0.930 . S
C1009 C1007 1.419 . S
C1009 C1010 1.362 . S
C1010 H1002 0.930 . S
C1010 C1009 1.362 . S
C1010 C1013 1.409 . S
C1011 H1003 0.930 . S
C1011 C1012 1.355 . S
C1011 C1013 1.415 . S
C1012 C1011 1.355 . S
C1012 C1014 1.419 . S
C1013 C1008 1.425 . S
C1013 C1010 1.409 . S
C1013 C1011 1.415 . S
C1014 H1004 0.930 . S
C1014 C1012 1.419 . S
C1014 C1015 1.362 . S
C1015 H1005 0.930 . S
C1015 C1008 1.409 . S
C1015 C1014 1.362 . S
H1016 C1022 0.930 . S
H1017 C1025 0.930 . S
H1018 C1026 0.930 . S
H1019 C1027 0.930 . S
H1020 C1030 0.930 . S
H1021 C1031 0.930 . S
C1022 H1016 0.930 . S
C1022 C1023 1.355 . S
C1022 C1024 1.415 . S
C1023 C1022 1.355 . S
C1023 C1025 1.419 . S
C1024 C1022 1.415 . S
C1024 C1029 1.425 . S
C1024 C1031 1.409 . S
C1025 H1017 0.930 . S
C1025 C1023 1.419 . S
C1025 C1026 1.362 . S
C1026 H1018 0.930 . S
C1026 C1025 1.362 . S
C1026 C1029 1.409 . S
C1027 H1019 0.930 . S
C1027 C1028 1.355 . S
C1027 C1029 1.415 . S
C1028 C1027 1.355 . S
C1028 C1030 1.419 . S
C1029 C1024 1.425 . S
C1029 C1026 1.409 . S
C1029 C1027 1.415 . S
C1030 H1020 0.930 . S
C1030 C1028 1.419 . S
C1030 C1031 1.362 . S
C1031 H1021 0.930 . S
C1031 C1024 1.409 . S
C1031 C1030 1.362 . S
H1032 C1038 0.930 . S
H1033 C1041 0.930 . S
H1034 C1042 0.930 . S
H1035 C1043 0.930 . S
H1036 C1046 0.930 . S
H1037 C1047 0.930 . S
C1038 H1032 0.930 . S
C1038 C1039 1.355 . S
C1038 C1040 1.415 . S
C1039 C1038 1.355 . S
C1039 C1041 1.419 . S
C1040 C1038 1.415 . S
C1040 C1045 1.425 . S
C1040 C1047 1.409 . S
C1041 H1033 0.930 . S
C1041 C1039 1.419 . S
C1041 C1042 1.362 . S
C1042 H1034 0.930 . S
C1042 C1041 1.362 . S
C1042 C1045 1.409 . S
C1043 H1035 0.930 . S
C1043 C1044 1.355 . S
C1043 C1045 1.415 . S
C1044 C1043 1.355 . S
C1044 C1046 1.419 . S
C1045 C1040 1.425 . S
C1045 C1042 1.409 . S
C1045 C1043 1.415 . S
C1046 H1036 0.930 . S
C1046 C1044 1.419 . S
C1046 C1047 1.362 . S
C1047 H1037 0.930 . S
C1047 C1040 1.409 . S
C1047 C1046 1.362 . S
H1048 C1054 0.930 . S
H1049 C1057 0.930 . S
H1050 C1058 0.930 . S
H1051 C1059 0.930 . S
H1052 C1062 0.930 . S
H1053 C1063 0.930 . S
C1054 H1048 0.930 . S
C1054 C1055 1.355 . S
C1054 C1056 1.415 . S
C1055 C1054 1.355 . S
C1055 C1057 1.419 . S
C1056 C1054 1.415 . S
C1056 C1061 1.425 . S
C1056 C1063 1.409 . S
C1057 H1049 0.930 . S
C1057 C1055 1.419 . S
C1057 C1058 1.362 . S
C1058 H1050 0.930 . S
C1058 C1057 1.362 . S
C1058 C1061 1.409 . S
C1059 H1051 0.930 . S
C1059 C1060 1.355 . S
C1059 C1061 1.415 . S
C1060 C1059 1.355 . S
C1060 C1062 1.419 . S
C1061 C1056 1.425 . S
C1061 C1058 1.409 . S
C1061 C1059 1.415 . S
C1062 H1052 0.930 . S
C1062 C1060 1.419 . S
C1062 C1063 1.362 . S
C1063 H1053 0.930 . S
C1063 C1056 1.409 . S
C1063 C1062 1.362 . S
H1064 C1070 0.930 . S
H1065 C1073 0.930 . S
H1066 C1074 0.930 . S
H1067 C1075 0.930 . S
H1068 C1078 0.930 . S
H1069 C1079 0.930 . S
C1070 H1064 0.930 . S
C1070 C1071 1.355 . S
C1070 C1072 1.415 . S
C1071 C1070 1.355 . S
C1071 C1073 1.419 . S
C1072 C1070 1.415 . S
C1072 C1077 1.425 . S
C1072 C1079 1.409 . S
C1073 H1065 0.930 . S
C1073 C1071 1.419 . S
C1073 C1074 1.362 . S
C1074 H1066 0.930 . S
C1074 C1073 1.362 . S
C1074 C1077 1.409 . S
C1075 H1067 0.930 . S
C1075 C1076 1.355 . S
C1075 C1077 1.415 . S
C1076 C1075 1.355 . S
C1076 C1078 1.419 . S
C1077 C1072 1.425 . S
C1077 C1074 1.409 . S
C1077 C1075 1.415 . S
C1078 H1068 0.930 . S
C1078 C1076 1.419 . S
C1078 C1079 1.362 . S
C1079 H1069 0.930 . S
C1079 C1072 1.409 . S
C1079 C1078 1.362 . S
C415 C241 1.666 . S
C420 C22 1.773 . S
C431 C56 1.743 . S
C436 C275 1.719 . S
C447 C90 1.751 . S
C452 C207 1.666 . S
C463 C124 1.747 . S
C468 C377 1.675 . S
C479 C307 1.720 . S
C484 C158 1.759 . S
C495 C192 1.743 . S
C500 C341 1.688 . S
C511 C219 1.771 . S
C516 C35 1.693 . S
C527 C253 1.765 . S
C532 C69 1.655 . S
C543 C1 1.693 . S
C548 C287 1.742 . S
C559 C328 1.748 . S
C564 C171 1.725 . S
C575 C362 1.751 . S
C580 C103 1.725 . S
C591 C137 1.704 . S
C596 C389 1.768 . S
C607 C3 1.474 . S
C612 C105 1.503 . S
C623 C37 1.501 . S
C628 C139 1.474 . S
C639 C71 1.545 . S
C644 C173 1.559 . S
C655 C309 1.542 . S
C660 C205 1.499 . S
C671 C343 1.499 . S
C676 C239 1.541 . S
C687 C375 1.540 . S
C692 C273 1.498 . S
C703 C17 1.980 . S
C708 C49 1.653 . S
C719 C51 2.001 . S
C724 C83 1.738 . S
C735 C85 1.964 . S
C740 C15 1.666 . S
C751 C185 1.745 . S
C756 C119 1.999 . S
C767 C153 1.989 . S
C772 C117 1.676 . S
C783 C151 1.743 . S
C788 C187 2.000 . S
C799 C260 1.670 . S
C804 C221 1.987 . S
C815 C255 1.963 . S
C820 C294 1.654 . S
C831 C289 1.977 . S
C836 C226 1.717 . S
C847 C323 1.978 . S
C852 C396 1.717 . S
C863 C357 1.996 . S
C868 C321 1.701 . S
C879 C391 1.971 . S
C884 C355 1.637 . S
C895 C368 1.238 . S
C900 C6 1.237 1_556 S
C911 C380 1.241 . S
C916 C40 1.222 1_556 S
C927 C74 1.246 1_556 S
C932 C334 1.243 . S
C943 C108 1.243 . S
C948 C278 1.238 . S
C959 C142 1.223 . S
C964 C210 1.243 . S
C975 C244 1.244 . S
C980 C176 1.232 . S
C991 C232 1.238 1_554 S
C996 C164 1.244 . S
C1007 C266 1.244 1_554 S
C1012 C198 1.238 . S
C1023 C300 1.222 1_554 S
C1028 C130 1.241 . S
C1039 C312 1.225 . S
C1044 C96 1.239 . S
C1055 C346 1.249 . S
C1060 C28 1.242 . S
C1071 C402 1.234 . S
C1076 C62 1.244 . S
