# Generated by pormake.
# Topology unh, (4)-cn, num edge types: 1
# Building blocks:
#     Node 0, Type 0, BuildingBlock: NAWXER_clean_sbu_0, # of connection points: 4
#     Node 1, Type 0, BuildingBlock: NAWXER_clean_sbu_0, # of connection points: 4
#     Node 2, Type 0, BuildingBlock: NAWXER_clean_sbu_0, # of connection points: 4
#     Node 3, Type 0, BuildingBlock: NAWXER_clean_sbu_0, # of connection points: 4
#     Node 4, Type 0, BuildingBlock: NAWXER_clean_sbu_0, # of connection points: 4
#     Node 5, Type 0, BuildingBlock: NAWXER_clean_sbu_0, # of connection points: 4
#     Edge 6, Type (0, 0), BuildingBlock: CIFDUS_clean_linker_0, # of connection points: 2
#     Edge 7, Type (0, 0), BuildingBlock: CIFDUS_clean_linker_0, # of connection points: 2
#     Edge 8, Type (0, 0), BuildingBlock: CIFDUS_clean_linker_0, # of connection points: 2
#     Edge 9, Type (0, 0), BuildingBlock: CIFDUS_clean_linker_0, # of connection points: 2
#     Edge 10, Type (0, 0), BuildingBlock: CIFDUS_clean_linker_0, # of connection points: 2
#     Edge 11, Type (0, 0), BuildingBlock: CIFDUS_clean_linker_0, # of connection points: 2
#     Edge 12, Type (0, 0), BuildingBlock: CIFDUS_clean_linker_0, # of connection points: 2
#     Edge 13, Type (0, 0), BuildingBlock: CIFDUS_clean_linker_0, # of connection points: 2
#     Edge 14, Type (0, 0), BuildingBlock: CIFDUS_clean_linker_0, # of connection points: 2
#     Edge 15, Type (0, 0), BuildingBlock: CIFDUS_clean_linker_0, # of connection points: 2
#     Edge 16, Type (0, 0), BuildingBlock: CIFDUS_clean_linker_0, # of connection points: 2
#     Edge 17, Type (0, 0), BuildingBlock: CIFDUS_clean_linker_0, # of connection points: 2
# Relax obj value: 0.020
# Max RMSD: 0.247
# Mean RMSD: 0.247
data_MOF--net-unh--node1-NAWXER_clean_sbu_0--edge1-CIFDUS_clean_linker_0
_symmetry_space_group_name_H-M    P1
_symmetry_Int_Tables_number       1
_symmetry_cell_setting            triclinic
loop_
_symmetry_equiv_pos_as_xyz
'x, y, z'
_cell_length_a     38.901132
_cell_length_b     39.042716
_cell_length_c     18.931386
_cell_angle_alpha  89.530571
_cell_angle_beta   90.382335
_cell_angle_gamma 120.34948
loop_
_atom_site_label
_atom_site_type_symbol
_atom_site_fract_x
_atom_site_fract_y
_atom_site_fract_z
_atom_type_partial_charge
C0 C 0.09817 0.55842 0.18754 0.0
C1 C 0.19703 0.64672 0.01988 0.0
O2 O 0.11103 0.59457 0.17261 0.0
Zn3 Zn 0.14704 0.60043 0.10068 0.0
O4 O 0.11201 0.53946 0.15398 0.0
Zn5 Zn 0.15547 0.55496 0.06844 0.0
O6 O 0.1944 0.54455 0.10739 0.0
O7 O 0.19359 0.59507 0.15752 0.0
O8 O 0.1935 0.61221 0.01695 0.0
O9 O 0.17473 0.65235 0.06072 0.0
O10 O 0.10785 0.5648 0.01539 0.0
O11 O 0.12487 0.52012 0.99355 0.0
C12 C 0.20835 0.57221 0.15247 0.0
C13 C 0.10296 0.53472 0.98001 0.0
C14 C 0.5767 0.20099 0.19414 0.0
C15 C 0.54124 0.09678 0.36754 0.0
O16 O 0.54787 0.18478 0.23707 0.0
Zn17 Zn 0.56049 0.14828 0.2782 0.0
O18 O 0.60159 0.18851 0.19107 0.0
Zn19 Zn 0.60706 0.14151 0.24625 0.0
O20 O 0.60171 0.10593 0.17373 0.0
O21 O 0.54559 0.10488 0.19435 0.0
O22 O 0.57173 0.10218 0.33234 0.0
O23 O 0.52585 0.11789 0.35331 0.0
O24 O 0.61796 0.18725 0.32969 0.0
O25 O 0.65882 0.16908 0.28617 0.0
C26 C 0.56512 0.09196 0.16013 0.0
C27 C 0.65276 0.19104 0.3269 0.0
C28 C 0.49821 0.57706 0.29804 0.0
C29 C 0.4814 0.65899 0.46697 0.0
O30 O 0.51879 0.61378 0.31121 0.0
Zn31 Zn 0.48758 0.61608 0.38418 0.0
O32 O 0.46607 0.55537 0.33326 0.0
Zn33 Zn 0.43605 0.56714 0.4199 0.0
O34 O 0.3845 0.5523 0.38353 0.0
O35 O 0.43311 0.60511 0.33064 0.0
O36 O 0.4523 0.62309 0.47231 0.0
O37 O 0.50866 0.66753 0.42229 0.0
O38 O 0.49638 0.58397 0.46981 0.0
O39 O 0.43661 0.53418 0.49495 0.0
C40 C 0.39585 0.57967 0.33762 0.0
C41 C 0.47381 0.55293 0.50674 0.0
C42 C 0.82295 0.45454 0.65129 0.0
C43 C 0.92785 0.48929 0.47994 0.0
O44 O 0.84061 0.48494 0.61169 0.0
Zn45 Zn 0.87672 0.47191 0.56966 0.0
O46 O 0.83486 0.42924 0.6529 0.0
Zn47 Zn 0.88087 0.42271 0.59885 0.0
O48 O 0.9165 0.42623 0.67303 0.0
O49 O 0.91852 0.48291 0.6541 0.0
O50 O 0.92061 0.45769 0.51372 0.0
O51 O 0.90871 0.50649 0.49566 0.0
O52 O 0.83555 0.41695 0.5166 0.0
O53 O 0.84907 0.37171 0.55624 0.0
C54 C 0.93076 0.46253 0.68815 0.0
C55 C 0.82818 0.38096 0.51748 0.0
C56 C 0.38809 0.82138 0.82828 0.0
C57 C 0.47075 0.92688 0.6629 0.0
O58 O 0.37904 0.84269 0.7905 0.0
Zn59 Zn 0.43058 0.87574 0.74979 0.0
O60 O 0.4243 0.82899 0.82969 0.0
Zn61 Zn 0.47991 0.87179 0.77949 0.0
O62 O 0.51361 0.90263 0.85487 0.0
O63 O 0.46475 0.91457 0.83619 0.0
O64 O 0.49122 0.91463 0.69671 0.0
O65 O 0.43413 0.91212 0.67735 0.0
O66 O 0.43943 0.83225 0.69234 0.0
O67 O 0.49503 0.83804 0.73547 0.0
C68 C 0.49617 0.92151 0.87058 0.0
C69 C 0.46567 0.82146 0.69332 0.0
C70 C 0.53172 0.44164 0.79956 0.0
C71 C 0.55779 0.36447 0.96975 0.0
O72 O 0.51412 0.40461 0.81099 0.0
Zn73 Zn 0.54686 0.40509 0.88658 0.0
O74 O 0.56245 0.4648 0.83681 0.0
Zn75 Zn 0.59494 0.45612 0.92314 0.0
O76 O 0.64683 0.4788 0.88657 0.0
O77 O 0.6043 0.42196 0.83615 0.0
O78 O 0.58475 0.40127 0.97542 0.0
O79 O 0.53003 0.35418 0.92494 0.0
O80 O 0.53336 0.43415 0.97183 0.0
O81 O 0.59148 0.48624 0.99721 0.0
C82 C 0.63982 0.45188 0.84242 0.0
C83 C 0.55443 0.46559 0.00858 0.0
H84 H 0.05862 0.56415 0.92158 0.0
H85 H 0.07674 0.46386 0.91468 0.0
H86 H 0.02478 0.43256 0.82536 0.0
H87 H 0.97423 0.43338 0.74888 0.0
H88 H 0.95711 0.53428 0.75178 0.0
H89 H 1.0085 0.56548 0.84283 0.0
C90 C 0.05117 0.53545 0.90056 0.0
C91 C 0.07158 0.51643 0.92501 0.0
C92 C 0.02137 0.51764 0.84845 0.0
C93 C 0.06166 0.4793 0.89681 0.0
C94 C 0.03185 0.46127 0.84574 0.0
C95 C 0.9816 0.46214 0.76956 0.0
C96 C 0.9617 0.48135 0.74371 0.0
C97 C 1.0115 0.48012 0.82119 0.0
C98 C 0.97197 0.51881 0.77068 0.0
C99 C 1.00135 0.53668 0.82281 0.0
H100 H 0.46367 0.96279 0.92905 0.0
H101 H 0.56711 0.94907 0.93787 0.0
H102 H 0.59699 1.00033 0.02727 0.0
H103 H 0.59465 0.04937 0.10196 0.0
H104 H 0.49155 0.06343 0.09796 0.0
H105 H 0.46065 0.01167 0.00778 0.0
C106 C 0.49271 0.97101 0.95066 0.0
C107 C 0.51308 0.95208 0.92649 0.0
C108 C 0.50985 1.00059 0.00282 0.0
C109 C 0.55064 0.96299 0.95536 0.0
C110 C 0.56787 0.99241 0.00652 0.0
C111 C 0.56543 0.04127 0.08138 0.0
C112 C 0.54557 0.06044 0.10633 0.0
C113 C 0.54786 0.01146 0.03038 0.0
C114 C 0.50751 0.04916 0.07957 0.0
C115 C 0.48987 0.0196 0.02798 0.0
H116 H 0.45846 0.50342 0.23495 0.0
H117 H 0.57172 0.61308 0.24053 0.0
H118 H 0.59831 0.58784 0.1532 0.0
H119 H 0.59037 0.53585 0.07509 0.0
H120 H 0.47811 0.42591 0.06295 0.0
H121 H 0.45024 0.45008 0.15275 0.0
C122 C 0.48892 0.52166 0.21697 0.0
C123 C 0.51293 0.56016 0.24439 0.0
C124 C 0.50429 0.50702 0.16555 0.0
C125 C 0.55235 0.58348 0.2203 0.0
C126 C 0.56776 0.56907 0.17031 0.0
C127 C 0.55977 0.51691 0.09199 0.0
C128 C 0.53645 0.47904 0.06253 0.0
C129 C 0.54407 0.53104 0.14261 0.0
C130 C 0.49676 0.45522 0.08484 0.0
C131 C 0.48085 0.46904 0.1362 0.0
H132 H 0.96954 0.45718 0.42112 0.0
H133 H 0.95572 0.56023 0.41317 0.0
H134 H 1.0069 0.59006 0.32308 0.0
H135 H 0.05563 0.58767 0.24719 0.0
H136 H 0.07005 0.48512 0.25033 0.0
H137 H 0.01852 0.45432 0.34157 0.0
C138 C 0.97775 0.48614 0.39961 0.0
C139 C 0.95874 0.50639 0.42417 0.0
C140 C 1.0073 0.50326 0.34702 0.0
C141 C 0.96967 0.54385 0.39541 0.0
C142 C 0.99904 0.56105 0.34383 0.0
C143 C 0.04769 0.55858 0.26777 0.0
C144 C 0.06688 0.53885 0.24218 0.0
C145 C 0.01806 0.54111 0.31943 0.0
C146 C 0.05579 0.501 0.26913 0.0
C147 C 0.02635 0.48341 0.32134 0.0
H148 H 0.5722 0.05439 0.42848 0.0
H149 H 0.46966 0.06952 0.43187 0.0
H150 H 0.43887 0.01828 0.5224 0.0
H151 H 0.44063 0.96905 0.60067 0.0
H152 H 0.54359 0.95471 0.60116 0.0
H153 H 0.57451 1.00566 0.50935 0.0
C154 C 0.54312 0.04643 0.44901 0.0
C155 C 0.52331 0.06579 0.4232 0.0
C156 C 0.52558 0.01705 0.50186 0.0
C157 C 0.48571 0.05525 0.45077 0.0
C158 C 0.46797 0.02585 0.50256 0.0
C159 C 0.46981 0.97698 0.58065 0.0
C160 C 0.48966 0.95796 0.60762 0.0
C161 C 0.48758 1.00654 0.52846 0.0
C162 C 0.52763 0.9689 0.58143 0.0
C163 C 0.54534 0.99801 0.52881 0.0
H164 H 0.56864 0.51569 0.73897 0.0
H165 H 0.45878 0.40285 0.73739 0.0
H166 H 0.43124 0.42757 0.64828 0.0
H167 H 0.43796 0.48071 0.57035 0.0
H168 H 0.54816 0.59302 0.56669 0.0
H169 H 0.57586 0.56904 0.65802 0.0
C170 C 0.53868 0.49659 0.71915 0.0
C171 C 0.51585 0.45749 0.745 0.0
C172 C 0.52302 0.51085 0.66688 0.0
C173 C 0.47714 0.43302 0.71835 0.0
C174 C 0.46126 0.44713 0.6674 0.0
C175 C 0.46801 0.50005 0.58962 0.0
C176 C 0.49086 0.53865 0.56193 0.0
C177 C 0.48389 0.48593 0.64127 0.0
C178 C 0.52991 0.56313 0.58705 0.0
C179 C 0.54577 0.54946 0.63935 0.0
H180 H 0.2754 0.575 0.10899 0.0
H181 H 0.21659 0.58292 0.29493 0.0
H182 H 0.27002 0.58614 0.36954 0.0
H183 H 0.33181 0.58309 0.38147 0.0
H184 H 0.39364 0.58173 0.19453 0.0
H185 H 0.34081 0.57971 0.12003 0.0
C186 C 0.27457 0.57774 0.16586 0.0
C187 C 0.24214 0.57827 0.19691 0.0
C188 C 0.30578 0.58059 0.20783 0.0
C189 C 0.24141 0.58246 0.27028 0.0
C190 C 0.2718 0.58412 0.31276 0.0
C191 C 0.33367 0.58264 0.32436 0.0
C192 C 0.36604 0.58209 0.29307 0.0
C193 C 0.30383 0.58264 0.28214 0.0
C194 C 0.36882 0.58213 0.21929 0.0
C195 C 0.33863 0.58085 0.17691 0.0
H196 H 0.66743 0.26483 0.35933 0.0
H197 H 0.71395 0.18592 0.38436 0.0
H198 H 0.77259 0.23777 0.44533 0.0
H199 H 0.81122 0.30585 0.48951 0.0
H200 H 0.76684 0.38631 0.45847 0.0
H201 H 0.70717 0.33384 0.40108 0.0
C202 C 0.69025 0.25899 0.37897 0.0
C203 C 0.68634 0.22164 0.36819 0.0
C204 C 0.7245 0.28935 0.41198 0.0
C205 C 0.71639 0.21452 0.39239 0.0
C206 C 0.74993 0.24414 0.42702 0.0
C207 C 0.78856 0.31195 0.46997 0.0
C208 C 0.79352 0.34993 0.47824 0.0
C209 C 0.75447 0.28176 0.43658 0.0
C210 C 0.76394 0.3574 0.45233 0.0
C211 C 0.72965 0.32734 0.41989 0.0
H212 H 0.52406 0.80809 0.65221 0.0
H213 H 0.3976 0.76189 0.63318 0.0
H214 H 0.3906 0.70577 0.5644 0.0
H215 H 0.4209 0.6697 0.5101 0.0
H216 H 0.54808 0.7194 0.52376 0.0
H217 H 0.55434 0.77407 0.59505 0.0
C218 C 0.49495 0.78577 0.63295 0.0
C219 C 0.46139 0.78898 0.64789 0.0
C220 C 0.49128 0.75407 0.593 0.0
C221 C 0.42393 0.76012 0.62195 0.0
C222 C 0.41988 0.72794 0.58304 0.0
C223 C 0.44983 0.69241 0.52934 0.0
C224 C 0.48396 0.69054 0.5125 0.0
C225 C 0.45336 0.7245 0.56852 0.0
C226 C 0.52145 0.72037 0.53632 0.0
C227 C 0.52506 0.75161 0.57693 0.0
H228 H 0.66098 0.39653 0.81508 0.0
H229 H 0.69361 0.51811 0.77489 0.0
H230 H 0.75331 0.52974 0.71254 0.0
H231 H 0.79726 0.50631 0.67297 0.0
H232 H 0.76773 0.38591 0.71742 0.0
H233 H 0.70625 0.37299 0.77561 0.0
C234 C 0.68096 0.42528 0.79157 0.0
C235 C 0.67292 0.45634 0.79858 0.0
C236 C 0.71607 0.43216 0.75778 0.0
C237 C 0.69929 0.49378 0.76958 0.0
C238 C 0.73347 0.5005 0.7343 0.0
C239 C 0.77747 0.47723 0.69549 0.0
C240 C 0.78714 0.44718 0.69093 0.0
C241 C 0.7424 0.47009 0.72887 0.0
C242 C 0.76117 0.40971 0.72068 0.0
C243 C 0.72586 0.4022 0.75355 0.0
H244 H 0.31323 0.80531 0.8587 0.0
H245 H 0.39237 0.75874 0.88317 0.0
H246 H 0.33941 0.69923 0.94045 0.0
H247 H 0.27043 0.6604 0.98425 0.0
H248 H 0.19295 0.70915 0.966 0.0
H249 H 0.24519 0.76753 0.90487 0.0
C250 C 0.31892 0.78219 0.87669 0.0
C251 C 0.35668 0.78649 0.86665 0.0
C252 C 0.28849 0.74824 0.91017 0.0
C253 C 0.36364 0.75632 0.89066 0.0
C254 C 0.3333 0.72216 0.92307 0.0
C255 C 0.26496 0.68366 0.9661 0.0
C256 C 0.22789 0.68042 0.97886 0.0
C257 C 0.29556 0.71773 0.93293 0.0
C258 C 0.2213 0.71104 0.95651 0.0
C259 C 0.25115 0.74443 0.92174 0.0
H260 H 0.61923 0.35251 0.00573 0.0
H261 H 0.49382 0.30737 0.03738 0.0
H262 H 0.48893 0.25321 0.10992 0.0
H263 H 0.51936 0.21779 0.16175 0.0
H264 H 0.64359 0.25865 0.12597 0.0
H265 H 0.64991 0.31505 0.05676 0.0
C266 C 0.59107 0.33095 0.0293 0.0
C267 C 0.55696 0.33392 0.017 0.0
C268 C 0.58817 0.29895 0.06929 0.0
C269 C 0.5204 0.30556 0.04642 0.0
C270 C 0.51756 0.27458 0.08771 0.0
C271 C 0.54791 0.23902 0.13895 0.0
C272 C 0.58099 0.23414 0.1492 0.0
C273 C 0.55111 0.27081 0.09895 0.0
C274 C 0.61762 0.26168 0.11853 0.0
C275 C 0.62127 0.29401 0.07932 0.0
loop_
_geom_bond_atom_site_label_1
_geom_bond_atom_site_label_2
_geom_bond_distance
_geom_bond_site_symmetry_2
_ccdc_geom_bond_type
C0 O2 1.247 . S
C0 O4 1.258 . S
C1 O8 1.247 . S
C1 O9 1.258 1_556 S
O2 C0 1.247 . S
O2 Zn3 2.028 . S
Zn3 O2 2.028 . S
Zn3 O7 2.035 . S
Zn3 O9 2.035 . S
Zn3 O10 2.028 . S
O4 C0 1.258 . S
O4 Zn5 2.035 . S
Zn5 O4 2.035 . S
Zn5 O6 2.028 . S
Zn5 O8 2.028 1_554 S
Zn5 O11 2.035 1_554 S
O6 Zn5 2.028 . S
O6 C12 1.247 . S
O7 Zn3 2.035 . S
O7 C12 1.258 . S
O8 C1 1.247 . S
O8 Zn5 2.028 1_556 S
O9 C1 1.258 1_554 S
O9 Zn3 2.035 . S
O10 Zn3 2.028 . S
O10 C13 1.247 1_554 S
O11 Zn5 2.035 1_556 S
O11 C13 1.258 . S
C12 O6 1.247 . S
C12 O7 1.258 . S
C13 O10 1.247 1_556 S
C13 O11 1.258 . S
C14 O16 1.247 . S
C14 O18 1.258 . S
C15 O22 1.247 . S
C15 O23 1.258 . S
O16 C14 1.247 . S
O16 Zn17 2.028 . S
Zn17 O16 2.028 . S
Zn17 O21 2.035 . S
Zn17 O23 2.035 . S
Zn17 O24 2.028 . S
O18 C14 1.258 . S
O18 Zn19 2.035 . S
Zn19 O18 2.035 . S
Zn19 O20 2.028 . S
Zn19 O22 2.028 . S
Zn19 O25 2.035 . S
O20 Zn19 2.028 . S
O20 C26 1.247 . S
O21 Zn17 2.035 . S
O21 C26 1.258 . S
O22 C15 1.247 . S
O22 Zn19 2.028 . S
O23 C15 1.258 . S
O23 Zn17 2.035 . S
O24 Zn17 2.028 . S
O24 C27 1.247 . S
O25 Zn19 2.035 . S
O25 C27 1.258 . S
C26 O20 1.247 . S
C26 O21 1.258 . S
C27 O24 1.247 . S
C27 O25 1.258 . S
C28 O30 1.247 . S
C28 O32 1.258 . S
C29 O36 1.247 . S
C29 O37 1.258 . S
O30 C28 1.247 . S
O30 Zn31 2.028 . S
Zn31 O30 2.028 . S
Zn31 O35 2.035 . S
Zn31 O37 2.035 . S
Zn31 O38 2.028 . S
O32 C28 1.258 . S
O32 Zn33 2.035 . S
Zn33 O32 2.035 . S
Zn33 O34 2.028 . S
Zn33 O36 2.028 . S
Zn33 O39 2.035 . S
O34 Zn33 2.028 . S
O34 C40 1.247 . S
O35 Zn31 2.035 . S
O35 C40 1.258 . S
O36 C29 1.247 . S
O36 Zn33 2.028 . S
O37 C29 1.258 . S
O37 Zn31 2.035 . S
O38 Zn31 2.028 . S
O38 C41 1.247 . S
O39 Zn33 2.035 . S
O39 C41 1.258 . S
C40 O34 1.247 . S
C40 O35 1.258 . S
C41 O38 1.247 . S
C41 O39 1.258 . S
C42 O44 1.247 . S
C42 O46 1.258 . S
C43 O50 1.247 . S
C43 O51 1.258 . S
O44 C42 1.247 . S
O44 Zn45 2.028 . S
Zn45 O44 2.028 . S
Zn45 O49 2.035 . S
Zn45 O51 2.035 . S
Zn45 O52 2.028 . S
O46 C42 1.258 . S
O46 Zn47 2.035 . S
Zn47 O46 2.035 . S
Zn47 O48 2.028 . S
Zn47 O50 2.028 . S
Zn47 O53 2.035 . S
O48 Zn47 2.028 . S
O48 C54 1.247 . S
O49 Zn45 2.035 . S
O49 C54 1.258 . S
O50 C43 1.247 . S
O50 Zn47 2.028 . S
O51 C43 1.258 . S
O51 Zn45 2.035 . S
O52 Zn45 2.028 . S
O52 C55 1.247 . S
O53 Zn47 2.035 . S
O53 C55 1.258 . S
C54 O48 1.247 . S
C54 O49 1.258 . S
C55 O52 1.247 . S
C55 O53 1.258 . S
C56 O58 1.247 . S
C56 O60 1.258 . S
C57 O64 1.247 . S
C57 O65 1.258 . S
O58 C56 1.247 . S
O58 Zn59 2.028 . S
Zn59 O58 2.028 . S
Zn59 O63 2.035 . S
Zn59 O65 2.035 . S
Zn59 O66 2.028 . S
O60 C56 1.258 . S
O60 Zn61 2.035 . S
Zn61 O60 2.035 . S
Zn61 O62 2.028 . S
Zn61 O64 2.028 . S
Zn61 O67 2.035 . S
O62 Zn61 2.028 . S
O62 C68 1.247 . S
O63 Zn59 2.035 . S
O63 C68 1.258 . S
O64 C57 1.247 . S
O64 Zn61 2.028 . S
O65 C57 1.258 . S
O65 Zn59 2.035 . S
O66 Zn59 2.028 . S
O66 C69 1.247 . S
O67 Zn61 2.035 . S
O67 C69 1.258 . S
C68 O62 1.247 . S
C68 O63 1.258 . S
C69 O66 1.247 . S
C69 O67 1.258 . S
C70 O72 1.247 . S
C70 O74 1.258 . S
C71 O78 1.247 . S
C71 O79 1.258 1_554 S
O72 C70 1.247 . S
O72 Zn73 2.028 . S
Zn73 O72 2.028 . S
Zn73 O77 2.035 . S
Zn73 O79 2.035 . S
Zn73 O80 2.028 . S
O74 C70 1.258 . S
O74 Zn75 2.035 . S
Zn75 O74 2.035 . S
Zn75 O76 2.028 . S
Zn75 O78 2.028 1_556 S
Zn75 O81 2.035 1_556 S
O76 Zn75 2.028 . S
O76 C82 1.247 . S
O77 Zn73 2.035 . S
O77 C82 1.258 . S
O78 C71 1.247 . S
O78 Zn75 2.028 1_554 S
O79 C71 1.258 1_556 S
O79 Zn73 2.035 . S
O80 Zn73 2.028 . S
O80 C83 1.247 1_556 S
O81 Zn75 2.035 1_554 S
O81 C83 1.258 . S
C82 O76 1.247 . S
C82 O77 1.258 . S
C83 O80 1.247 1_554 S
C83 O81 1.258 . S
H84 C90 0.930 . S
H85 C93 0.930 1_554 S
H86 C94 0.930 . S
H87 C95 0.930 . S
H88 C98 0.930 . S
H89 C99 0.930 . S
C90 H84 0.930 . S
C90 C91 1.355 . S
C90 C92 1.415 . S
C91 C90 1.355 . S
C91 C93 1.419 . S
C92 C90 1.415 . S
C92 C97 1.425 1_455 S
C92 C99 1.409 . S
C93 H85 0.930 1_556 S
C93 C91 1.419 . S
C93 C94 1.362 1_455 S
C94 H86 0.930 . S
C94 C93 1.362 1_655 S
C94 C97 1.409 . S
C95 H87 0.930 . S
C95 C96 1.355 . S
C95 C97 1.415 . S
C96 C95 1.355 . S
C96 C98 1.419 . S
C97 C92 1.425 1_655 S
C97 C94 1.409 . S
C97 C95 1.415 . S
C98 H88 0.930 . S
C98 C96 1.419 . S
C98 C99 1.362 1_655 S
C99 H89 0.930 . S
C99 C92 1.409 . S
C99 C98 1.362 1_455 S
H100 C106 0.930 . S
H101 C109 0.930 . S
H102 C110 0.930 . S
H103 C111 0.930 . S
H104 C114 0.930 . S
H105 C115 0.930 . S
C106 H100 0.930 . S
C106 C107 1.355 . S
C106 C108 1.415 1_565 S
C107 C106 1.355 . S
C107 C109 1.419 . S
C108 C106 1.415 1_545 S
C108 C113 1.425 1_546 S
C108 C115 1.409 . S
C109 H101 0.930 . S
C109 C107 1.419 . S
C109 C110 1.362 1_556 S
C110 H102 0.930 . S
C110 C109 1.362 1_554 S
C110 C113 1.409 . S
C111 H103 0.930 . S
C111 C112 1.355 . S
C111 C113 1.415 1_545 S
C112 C111 1.355 . S
C112 C114 1.419 . S
C113 C108 1.425 1_564 S
C113 C110 1.409 . S
C113 C111 1.415 1_565 S
C114 H104 0.930 . S
C114 C112 1.419 . S
C114 C115 1.362 1_554 S
C115 H105 0.930 . S
C115 C108 1.409 . S
C115 C114 1.362 1_556 S
H116 C122 0.930 . S
H117 C125 0.930 . S
H118 C126 0.930 . S
H119 C127 0.930 . S
H120 C130 0.930 . S
H121 C131 0.930 . S
C122 H116 0.930 . S
C122 C123 1.355 . S
C122 C124 1.415 . S
C123 C122 1.355 . S
C123 C125 1.419 . S
C124 C122 1.415 . S
C124 C129 1.425 . S
C124 C131 1.409 . S
C125 H117 0.930 . S
C125 C123 1.419 . S
C125 C126 1.362 . S
C126 H118 0.930 . S
C126 C125 1.362 . S
C126 C129 1.409 . S
C127 H119 0.930 . S
C127 C128 1.355 . S
C127 C129 1.415 . S
C128 C127 1.355 . S
C128 C130 1.419 . S
C129 C124 1.425 . S
C129 C126 1.409 . S
C129 C127 1.415 . S
C130 H120 0.930 . S
C130 C128 1.419 . S
C130 C131 1.362 . S
C131 H121 0.930 . S
C131 C124 1.409 . S
C131 C130 1.362 . S
H132 C138 0.930 . S
H133 C141 0.930 . S
H134 C142 0.930 . S
H135 C143 0.930 . S
H136 C146 0.930 . S
H137 C147 0.930 . S
C138 H132 0.930 . S
C138 C139 1.355 . S
C138 C140 1.415 1_655 S
C139 C138 1.355 . S
C139 C141 1.419 . S
C140 C138 1.415 1_455 S
C140 C145 1.425 1_455 S
C140 C147 1.409 . S
C141 H133 0.930 . S
C141 C139 1.419 . S
C141 C142 1.362 . S
C142 H134 0.930 . S
C142 C141 1.362 . S
C142 C145 1.409 . S
C143 H135 0.930 . S
C143 C144 1.355 . S
C143 C145 1.415 1_455 S
C144 C143 1.355 . S
C144 C146 1.419 . S
C145 C140 1.425 1_655 S
C145 C142 1.409 . S
C145 C143 1.415 1_655 S
C146 H136 0.930 . S
C146 C144 1.419 . S
C146 C147 1.362 . S
C147 H137 0.930 . S
C147 C140 1.409 . S
C147 C146 1.362 . S
H148 C154 0.930 . S
H149 C157 0.930 . S
H150 C158 0.930 . S
H151 C159 0.930 . S
H152 C162 0.930 . S
H153 C163 0.930 . S
C154 H148 0.930 . S
C154 C155 1.355 . S
C154 C156 1.415 . S
C155 C154 1.355 . S
C155 C157 1.419 . S
C156 C154 1.415 . S
C156 C161 1.425 1_545 S
C156 C163 1.409 . S
C157 H149 0.930 . S
C157 C155 1.419 . S
C157 C158 1.362 1_545 S
C158 H150 0.930 . S
C158 C157 1.362 1_565 S
C158 C161 1.409 . S
C159 H151 0.930 . S
C159 C160 1.355 . S
C159 C161 1.415 . S
C160 C159 1.355 . S
C160 C162 1.419 . S
C161 C156 1.425 1_565 S
C161 C158 1.409 . S
C161 C159 1.415 . S
C162 H152 0.930 . S
C162 C160 1.419 . S
C162 C163 1.362 1_565 S
C163 H153 0.930 . S
C163 C156 1.409 . S
C163 C162 1.362 1_545 S
H164 C170 0.930 . S
H165 C173 0.930 . S
H166 C174 0.930 . S
H167 C175 0.930 . S
H168 C178 0.930 . S
H169 C179 0.930 . S
C170 H164 0.930 . S
C170 C171 1.355 . S
C170 C172 1.415 . S
C171 C170 1.355 . S
C171 C173 1.419 . S
C172 C170 1.415 . S
C172 C177 1.425 . S
C172 C179 1.409 . S
C173 H165 0.930 . S
C173 C171 1.419 . S
C173 C174 1.362 . S
C174 H166 0.930 . S
C174 C173 1.362 . S
C174 C177 1.409 . S
C175 H167 0.930 . S
C175 C176 1.355 . S
C175 C177 1.415 . S
C176 C175 1.355 . S
C176 C178 1.419 . S
C177 C172 1.425 . S
C177 C174 1.409 . S
C177 C175 1.415 . S
C178 H168 0.930 . S
C178 C176 1.419 . S
C178 C179 1.362 . S
C179 H169 0.930 . S
C179 C172 1.409 . S
C179 C178 1.362 . S
H180 C186 0.930 . S
H181 C189 0.930 . S
H182 C190 0.930 . S
H183 C191 0.930 . S
H184 C194 0.930 . S
H185 C195 0.930 . S
C186 H180 0.930 . S
C186 C187 1.355 . S
C186 C188 1.415 . S
C187 C186 1.355 . S
C187 C189 1.419 . S
C188 C186 1.415 . S
C188 C193 1.425 . S
C188 C195 1.409 . S
C189 H181 0.930 . S
C189 C187 1.419 . S
C189 C190 1.362 . S
C190 H182 0.930 . S
C190 C189 1.362 . S
C190 C193 1.409 . S
C191 H183 0.930 . S
C191 C192 1.355 . S
C191 C193 1.415 . S
C192 C191 1.355 . S
C192 C194 1.419 . S
C193 C188 1.425 . S
C193 C190 1.409 . S
C193 C191 1.415 . S
C194 H184 0.930 . S
C194 C192 1.419 . S
C194 C195 1.362 . S
C195 H185 0.930 . S
C195 C188 1.409 . S
C195 C194 1.362 . S
H196 C202 0.930 . S
H197 C205 0.930 . S
H198 C206 0.930 . S
H199 C207 0.930 . S
H200 C210 0.930 . S
H201 C211 0.930 . S
C202 H196 0.930 . S
C202 C203 1.355 . S
C202 C204 1.415 . S
C203 C202 1.355 . S
C203 C205 1.419 . S
C204 C202 1.415 . S
C204 C209 1.425 . S
C204 C211 1.409 . S
C205 H197 0.930 . S
C205 C203 1.419 . S
C205 C206 1.362 . S
C206 H198 0.930 . S
C206 C205 1.362 . S
C206 C209 1.409 . S
C207 H199 0.930 . S
C207 C208 1.355 . S
C207 C209 1.415 . S
C208 C207 1.355 . S
C208 C210 1.419 . S
C209 C204 1.425 . S
C209 C206 1.409 . S
C209 C207 1.415 . S
C210 H200 0.930 . S
C210 C208 1.419 . S
C210 C211 1.362 . S
C211 H201 0.930 . S
C211 C204 1.409 . S
C211 C210 1.362 . S
H212 C218 0.930 . S
H213 C221 0.930 . S
H214 C222 0.930 . S
H215 C223 0.930 . S
H216 C226 0.930 . S
H217 C227 0.930 . S
C218 H212 0.930 . S
C218 C219 1.355 . S
C218 C220 1.415 . S
C219 C218 1.355 . S
C219 C221 1.419 . S
C220 C218 1.415 . S
C220 C225 1.425 . S
C220 C227 1.409 . S
C221 H213 0.930 . S
C221 C219 1.419 . S
C221 C222 1.362 . S
C222 H214 0.930 . S
C222 C221 1.362 . S
C222 C225 1.409 . S
C223 H215 0.930 . S
C223 C224 1.355 . S
C223 C225 1.415 . S
C224 C223 1.355 . S
C224 C226 1.419 . S
C225 C220 1.425 . S
C225 C222 1.409 . S
C225 C223 1.415 . S
C226 H216 0.930 . S
C226 C224 1.419 . S
C226 C227 1.362 . S
C227 H217 0.930 . S
C227 C220 1.409 . S
C227 C226 1.362 . S
H228 C234 0.930 . S
H229 C237 0.930 . S
H230 C238 0.930 . S
H231 C239 0.930 . S
H232 C242 0.930 . S
H233 C243 0.930 . S
C234 H228 0.930 . S
C234 C235 1.355 . S
C234 C236 1.415 . S
C235 C234 1.355 . S
C235 C237 1.419 . S
C236 C234 1.415 . S
C236 C241 1.425 . S
C236 C243 1.409 . S
C237 H229 0.930 . S
C237 C235 1.419 . S
C237 C238 1.362 . S
C238 H230 0.930 . S
C238 C237 1.362 . S
C238 C241 1.409 . S
C239 H231 0.930 . S
C239 C240 1.355 . S
C239 C241 1.415 . S
C240 C239 1.355 . S
C240 C242 1.419 . S
C241 C236 1.425 . S
C241 C238 1.409 . S
C241 C239 1.415 . S
C242 H232 0.930 . S
C242 C240 1.419 . S
C242 C243 1.362 . S
C243 H233 0.930 . S
C243 C236 1.409 . S
C243 C242 1.362 . S
H244 C250 0.930 . S
H245 C253 0.930 . S
H246 C254 0.930 . S
H247 C255 0.930 . S
H248 C258 0.930 . S
H249 C259 0.930 . S
C250 H244 0.930 . S
C250 C251 1.355 . S
C250 C252 1.415 . S
C251 C250 1.355 . S
C251 C253 1.419 . S
C252 C250 1.415 . S
C252 C257 1.425 . S
C252 C259 1.409 . S
C253 H245 0.930 . S
C253 C251 1.419 . S
C253 C254 1.362 . S
C254 H246 0.930 . S
C254 C253 1.362 . S
C254 C257 1.409 . S
C255 H247 0.930 . S
C255 C256 1.355 . S
C255 C257 1.415 . S
C256 C255 1.355 . S
C256 C258 1.419 . S
C257 C252 1.425 . S
C257 C254 1.409 . S
C257 C255 1.415 . S
C258 H248 0.930 . S
C258 C256 1.419 . S
C258 C259 1.362 . S
C259 H249 0.930 . S
C259 C252 1.409 . S
C259 C258 1.362 . S
H260 C266 0.930 . S
H261 C269 0.930 . S
H262 C270 0.930 . S
H263 C271 0.930 . S
H264 C274 0.930 . S
H265 C275 0.930 . S
C266 H260 0.930 . S
C266 C267 1.355 . S
C266 C268 1.415 . S
C267 C266 1.355 . S
C267 C269 1.419 . S
C268 C266 1.415 . S
C268 C273 1.425 . S
C268 C275 1.409 . S
C269 H261 0.930 . S
C269 C267 1.419 . S
C269 C270 1.362 . S
C270 H262 0.930 . S
C270 C269 1.362 . S
C270 C273 1.409 . S
C271 H263 0.930 . S
C271 C272 1.355 . S
C271 C273 1.415 . S
C272 C271 1.355 . S
C272 C274 1.419 . S
C273 C268 1.425 . S
C273 C270 1.409 . S
C273 C271 1.415 . S
C274 H264 0.930 . S
C274 C272 1.419 . S
C274 C275 1.362 . S
C275 H265 0.930 . S
C275 C268 1.409 . S
C275 C274 1.362 . S
C91 C13 1.802 . S
C96 C54 1.802 . S
C107 C68 1.770 . S
C112 C26 1.793 . S
C123 C28 1.789 . S
C128 C83 1.806 . S
C139 C43 1.770 . S
C144 C0 1.786 . S
C155 C15 1.803 . S
C160 C57 1.802 . S
C171 C70 1.768 . S
C176 C41 1.784 . S
C187 C12 1.634 . S
C192 C40 1.636 . S
C203 C27 1.600 . S
C208 C55 1.623 . S
C219 C69 1.622 . S
C224 C29 1.599 . S
C235 C82 1.597 . S
C240 C42 1.610 . S
C251 C56 1.634 . S
C256 C1 1.608 . S
C267 C71 1.601 . S
C272 C14 1.625 . S
