# Generated by pormake.
# Topology zfr, (5)-cn, num edge types: 1
# Building blocks:
#     Node 0, Type 0, BuildingBlock: XOMCOT_clean_sbu_0, # of connection points: 5
#     Node 1, Type 0, BuildingBlock: XOMCOT_clean_sbu_0, # of connection points: 5
#     Node 2, Type 0, BuildingBlock: XOMCOT_clean_sbu_0, # of connection points: 5
#     Node 3, Type 0, BuildingBlock: XOMCOT_clean_sbu_0, # of connection points: 5
#     Node 4, Type 0, BuildingBlock: XOMCOT_clean_sbu_0, # of connection points: 5
#     Node 5, Type 0, BuildingBlock: XOMCOT_clean_sbu_0, # of connection points: 5
#     Node 6, Type 0, BuildingBlock: XOMCOT_clean_sbu_0, # of connection points: 5
#     Node 7, Type 0, BuildingBlock: XOMCOT_clean_sbu_0, # of connection points: 5
#     Edge 8, Type (0, 0), BuildingBlock: MIFKUJ_clean_linker_0, # of connection points: 2
#     Edge 9, Type (0, 0), BuildingBlock: MIFKUJ_clean_linker_0, # of connection points: 2
#     Edge 10, Type (0, 0), BuildingBlock: MIFKUJ_clean_linker_0, # of connection points: 2
#     Edge 11, Type (0, 0), BuildingBlock: MIFKUJ_clean_linker_0, # of connection points: 2
#     Edge 12, Type (0, 0), BuildingBlock: MIFKUJ_clean_linker_0, # of connection points: 2
#     Edge 13, Type (0, 0), BuildingBlock: MIFKUJ_clean_linker_0, # of connection points: 2
#     Edge 14, Type (0, 0), BuildingBlock: MIFKUJ_clean_linker_0, # of connection points: 2
#     Edge 15, Type (0, 0), BuildingBlock: MIFKUJ_clean_linker_0, # of connection points: 2
#     Edge 16, Type (0, 0), BuildingBlock: MIFKUJ_clean_linker_0, # of connection points: 2
#     Edge 17, Type (0, 0), BuildingBlock: MIFKUJ_clean_linker_0, # of connection points: 2
#     Edge 18, Type (0, 0), BuildingBlock: MIFKUJ_clean_linker_0, # of connection points: 2
#     Edge 19, Type (0, 0), BuildingBlock: MIFKUJ_clean_linker_0, # of connection points: 2
#     Edge 20, Type (0, 0), BuildingBlock: MIFKUJ_clean_linker_0, # of connection points: 2
#     Edge 21, Type (0, 0), BuildingBlock: MIFKUJ_clean_linker_0, # of connection points: 2
#     Edge 22, Type (0, 0), BuildingBlock: MIFKUJ_clean_linker_0, # of connection points: 2
#     Edge 23, Type (0, 0), BuildingBlock: MIFKUJ_clean_linker_0, # of connection points: 2
#     Edge 24, Type (0, 0), BuildingBlock: MIFKUJ_clean_linker_0, # of connection points: 2
#     Edge 25, Type (0, 0), BuildingBlock: MIFKUJ_clean_linker_0, # of connection points: 2
#     Edge 26, Type (0, 0), BuildingBlock: MIFKUJ_clean_linker_0, # of connection points: 2
#     Edge 27, Type (0, 0), BuildingBlock: MIFKUJ_clean_linker_0, # of connection points: 2
# Relax obj value: 0.171
# Max RMSD: 0.170
# Mean RMSD: 0.170
data_MOF--net-zfr--node1-XOMCOT_clean_sbu_0--edge1-MIFKUJ_clean_linker_0
_symmetry_space_group_name_H-M    P1
_symmetry_Int_Tables_number       1
_symmetry_cell_setting            triclinic
loop_
_symmetry_equiv_pos_as_xyz
'x, y, z'
_cell_length_a     65.268362
_cell_length_b     65.293851
_cell_length_c     21.842862
_cell_angle_alpha  90.019574
_cell_angle_beta   89.979734
_cell_angle_gamma 89.987664
loop_
_atom_site_label
_atom_site_type_symbol
_atom_site_fract_x
_atom_site_fract_y
_atom_site_fract_z
_atom_type_partial_charge
Co0 Co 0.13256 0.31813 0.20562 0.0
C1 C 0.12663 0.31895 0.34044 0.0
C2 C 0.10097 0.30589 0.29389 0.0
C3 C 0.0981 0.30342 0.35572 0.0
N4 N 0.11859 0.31624 0.28406 0.0
N5 N 0.11433 0.31156 0.3849 0.0
H6 H 0.14183 0.32467 0.34888 0.0
H7 H 0.09155 0.29914 0.25856 0.0
C8 C 0.09017 0.33085 0.17746 0.0
O9 O 0.09192 0.34357 0.22382 0.0
N10 N 0.14647 0.31898 0.1281 0.0
C11 C 0.16478 0.32763 0.11652 0.0
C12 C 0.16853 0.32634 0.05465 0.0
C13 C 0.13939 0.31238 0.0738 0.0
N14 N 0.1525 0.31683 0.02784 0.0
C15 C 0.14393 0.35751 0.25524 0.0
C16 C 0.12812 0.38048 0.16008 0.0
C17 C 0.1368 0.3906 0.21031 0.0
C18 C 0.14512 0.37882 0.25781 0.0
C19 C 0.12722 0.35916 0.15951 0.0
N20 N 0.13404 0.34793 0.2083 0.0
H21 H 0.15147 0.34882 0.29028 0.0
H22 H 0.12095 0.35165 0.11963 0.0
H23 H 0.17436 0.335 0.1504 0.0
H24 H 0.12479 0.30479 0.06809 0.0
O25 O 0.15812 0.31196 0.24486 0.0
O26 O 0.13621 0.28881 0.209 0.0
O27 O 0.10514 0.31916 0.16288 0.0
C28 C 0.15334 0.29279 0.23729 0.0
H29 H 0.08578 0.29495 0.37713 0.0
H30 H 0.18162 0.33275 0.03105 0.0
H31 H 0.12228 0.38893 0.12114 0.0
H32 H 0.15241 0.38595 0.2969 0.0
Co33 Co 0.68083 0.13839 0.42446 0.0
C34 C 0.6811 0.13235 0.55957 0.0
C35 C 0.69726 0.10872 0.51185 0.0
C36 C 0.69988 0.10572 0.57358 0.0
N37 N 0.68499 0.12511 0.50291 0.0
N38 N 0.68977 0.12067 0.60341 0.0
H39 H 0.67322 0.14647 0.56893 0.0
H40 H 0.70479 0.10019 0.47587 0.0
C41 C 0.66981 0.09507 0.40294 0.0
O42 O 0.65837 0.09652 0.4523 0.0
N43 N 0.67765 0.1515 0.34656 0.0
C44 C 0.66765 0.16909 0.33477 0.0
C45 C 0.66781 0.17227 0.27248 0.0
C46 C 0.6839 0.14428 0.29211 0.0
N47 N 0.67797 0.1566 0.24583 0.0
C48 C 0.64242 0.15086 0.47808 0.0
C49 C 0.61761 0.13126 0.39404 0.0
C50 C 0.60846 0.14199 0.44242 0.0
C51 C 0.62118 0.15219 0.48417 0.0
C52 C 0.6389 0.13043 0.38958 0.0
N53 N 0.6511 0.13909 0.43343 0.0
H54 H 0.65178 0.16007 0.50776 0.0
H55 H 0.64554 0.12294 0.35022 0.0
H56 H 0.66027 0.17857 0.36888 0.0
H57 H 0.69246 0.13021 0.28663 0.0
O58 O 0.68719 0.1644 0.46075 0.0
O59 O 0.71005 0.14297 0.42106 0.0
O60 O 0.67987 0.11063 0.38392 0.0
C61 C 0.70627 0.16017 0.44919 0.0
H62 H 0.70949 0.0942 0.59465 0.0
H63 H 0.66036 0.18474 0.24865 0.0
H64 H 0.60845 0.12347 0.35988 0.0
H65 H 0.61479 0.16159 0.52031 0.0
Co66 Co 0.86131 0.6794 0.68655 0.0
C67 C 0.86513 0.68375 0.82224 0.0
C68 C 0.88335 0.70543 0.77274 0.0
C69 C 0.88525 0.70955 0.83415 0.0
N70 N 0.8711 0.68896 0.76525 0.0
N71 N 0.87371 0.69593 0.86495 0.0
H72 H 0.85442 0.67173 0.83287 0.0
H73 H 0.89002 0.7142 0.73575 0.0
C74 C 0.90649 0.67598 0.68156 0.0
O75 O 0.90541 0.66785 0.73653 0.0
N76 N 0.85144 0.67085 0.60797 0.0
C77 C 0.836 0.65773 0.59643 0.0
C78 C 0.83353 0.65634 0.53399 0.0
C79 C 0.85812 0.67733 0.55313 0.0
N80 N 0.84747 0.66866 0.50701 0.0
C81 C 0.851 0.64181 0.74791 0.0
C82 C 0.87809 0.61723 0.6843 0.0
C83 C 0.86468 0.60806 0.72626 0.0
C84 C 0.851 0.6207 0.75832 0.0
C85 C 0.8773 0.6383 0.6745 0.0
N86 N 0.8645 0.65056 0.70794 0.0
H87 H 0.83925 0.65088 0.76949 0.0
H88 H 0.88639 0.64447 0.63766 0.0
H89 H 0.82715 0.64983 0.63098 0.0
H90 H 0.8702 0.68851 0.54731 0.0
O91 O 0.83356 0.68338 0.71362 0.0
O92 O 0.85285 0.70714 0.66945 0.0
O93 O 0.89011 0.68109 0.65333 0.0
C94 C 0.83554 0.70219 0.69512 0.0
H95 H 0.89379 0.72203 0.85446 0.0
H96 H 0.82245 0.64688 0.51035 0.0
H97 H 0.8888 0.6082 0.65778 0.0
H98 H 0.83967 0.61431 0.78907 0.0
Co99 Co 0.31907 0.8637 0.95179 0.0
C100 C 0.31796 0.871 0.08709 0.0
C101 C 0.29672 0.88964 0.03744 0.0
C102 C 0.29389 0.89311 0.09888 0.0
N103 N 0.31205 0.87601 0.02986 0.0
N104 N 0.30725 0.88134 0.13008 0.0
H105 H 0.32925 0.85962 0.09774 0.0
H106 H 0.28769 0.89606 0.00063 0.0
C107 C 0.32596 0.9083 0.93508 0.0
O108 O 0.33487 0.90849 0.98902 0.0
N109 N 0.32508 0.85166 0.87374 0.0
C110 C 0.33755 0.83576 0.86153 0.0
C111 C 0.3387 0.83344 0.79891 0.0
C112 C 0.31863 0.85864 0.81926 0.0
N113 N 0.32685 0.84793 0.7725 0.0
C114 C 0.35705 0.85267 0.01039 0.0
C115 C 0.38208 0.87543 0.93438 0.0
C116 C 0.39089 0.86392 0.98138 0.0
C117 C 0.37821 0.85237 0.01966 0.0
C118 C 0.36086 0.87566 0.92766 0.0
N119 N 0.34846 0.86512 0.96719 0.0
H120 H 0.34774 0.84212 0.03609 0.0
H121 H 0.35455 0.88362 0.88873 0.0
H122 H 0.34569 0.82692 0.89561 0.0
H123 H 0.30822 0.87142 0.81425 0.0
O124 O 0.31359 0.83694 0.9847 0.0
O125 O 0.29048 0.85721 0.9411 0.0
O126 O 0.31894 0.8916 0.91297 0.0
C127 C 0.29466 0.84 0.9684 0.0
H128 H 0.28222 0.9028 0.1189 0.0
H129 H 0.34808 0.8224 0.77488 0.0
H130 H 0.39156 0.88393 0.90256 0.0
H131 H 0.38468 0.84252 0.05457 0.0
Co132 Co 0.13596 0.68145 0.30486 0.0
C133 C 0.12947 0.68163 0.17125 0.0
C134 C 0.10281 0.69224 0.21914 0.0
C135 C 0.09924 0.69366 0.15718 0.0
N136 N 0.12175 0.68466 0.22782 0.0
N137 N 0.11608 0.68712 0.12686 0.0
H138 H 0.14489 0.67624 0.16314 0.0
H139 H 0.09247 0.69699 0.25512 0.0
C140 C 0.10397 0.66964 0.39521 0.0
O141 O 0.11678 0.65581 0.41639 0.0
N142 N 0.1503 0.67896 0.38278 0.0
C143 C 0.1665 0.66723 0.39816 0.0
C144 C 0.17026 0.66945 0.45977 0.0
C145 C 0.14514 0.68888 0.43489 0.0
N146 N 0.15664 0.68289 0.48322 0.0
C147 C 0.1535 0.64232 0.27626 0.0
C148 C 0.11737 0.62036 0.27712 0.0
C149 C 0.13583 0.60993 0.2668 0.0
C150 C 0.154 0.62133 0.26481 0.0
C151 C 0.11758 0.64145 0.28749 0.0
N152 N 0.13565 0.65194 0.29149 0.0
H153 H 0.16756 0.65085 0.27176 0.0
H154 H 0.10308 0.64926 0.29142 0.0
H155 H 0.17504 0.65741 0.36797 0.0
H156 H 0.13262 0.69969 0.4375 0.0
O157 O 0.16147 0.68758 0.26539 0.0
O158 O 0.14066 0.7107 0.30667 0.0
O159 O 0.1089 0.68084 0.34952 0.0
C160 C 0.15749 0.70666 0.27694 0.0
H161 H 0.08532 0.69939 0.1365 0.0
H162 H 0.18163 0.66103 0.48551 0.0
H163 H 0.10283 0.61239 0.27755 0.0
H164 H 0.1685 0.61421 0.25351 0.0
Co165 Co 0.31746 0.13194 0.53661 0.0
C166 C 0.31737 0.12431 0.4016 0.0
C167 C 0.29749 0.10402 0.45053 0.0
C168 C 0.29529 0.10027 0.38893 0.0
N169 N 0.31164 0.11883 0.45868 0.0
N170 N 0.30781 0.11307 0.35825 0.0
H171 H 0.32719 0.13706 0.39116 0.0
H172 H 0.2889 0.09682 0.487 0.0
C173 C 0.32628 0.08769 0.55712 0.0
O174 O 0.33509 0.08705 0.50305 0.0
N175 N 0.32246 0.14491 0.61422 0.0
C176 C 0.33366 0.16187 0.62466 0.0
C177 C 0.33454 0.16513 0.68692 0.0
C178 C 0.31646 0.1382 0.66963 0.0
N179 N 0.32373 0.15021 0.71496 0.0
C180 C 0.35491 0.1453 0.47967 0.0
C181 C 0.38101 0.12297 0.55348 0.0
C182 C 0.3894 0.1355 0.50787 0.0
C183 C 0.37605 0.14689 0.47098 0.0
C184 C 0.35983 0.1219 0.5607 0.0
N185 N 0.34693 0.13215 0.52203 0.0
H186 H 0.34506 0.15538 0.45407 0.0
H187 H 0.35398 0.11339 0.5992 0.0
H188 H 0.341 0.17096 0.58955 0.0
H189 H 0.30753 0.12444 0.6767 0.0
O190 O 0.31046 0.15811 0.50189 0.0
O191 O 0.28849 0.13671 0.54598 0.0
O192 O 0.31874 0.1044 0.57753 0.0
C193 C 0.2917 0.15398 0.51789 0.0
H194 H 0.28499 0.08925 0.3684 0.0
H195 H 0.34259 0.17744 0.70976 0.0
H196 H 0.39071 0.1142 0.58399 0.0
H197 H 0.38187 0.15754 0.43716 0.0
Co198 Co 0.86096 0.31665 0.80238 0.0
C199 C 0.86773 0.31839 0.669 0.0
C200 C 0.89275 0.30394 0.71585 0.0
C201 C 0.89605 0.3024 0.65384 0.0
N202 N 0.87503 0.31398 0.72515 0.0
N203 N 0.88024 0.31138 0.62419 0.0
H204 H 0.85319 0.32593 0.66159 0.0
H205 H 0.90207 0.29724 0.75153 0.0
C206 C 0.89403 0.33307 0.88214 0.0
O207 O 0.88126 0.34757 0.89915 0.0
N208 N 0.84678 0.31803 0.88109 0.0
C209 C 0.82646 0.31999 0.89139 0.0
C210 C 0.82257 0.31704 0.95267 0.0
C211 C 0.85462 0.31266 0.93608 0.0
N212 N 0.84036 0.31252 0.98098 0.0
C213 C 0.84135 0.35634 0.79614 0.0
C214 C 0.87612 0.37774 0.76245 0.0
C215 C 0.85794 0.38852 0.77313 0.0
C216 C 0.84032 0.37757 0.7893 0.0
C217 C 0.87654 0.35656 0.77068 0.0
N218 N 0.85951 0.34619 0.79 0.0
H219 H 0.82744 0.34817 0.80543 0.0
H220 H 0.89077 0.34852 0.76276 0.0
H221 H 0.8149 0.32214 0.85665 0.0
H222 H 0.87035 0.3082 0.94275 0.0
O223 O 0.8358 0.30905 0.76311 0.0
O224 O 0.85808 0.28725 0.80437 0.0
O225 O 0.88827 0.31919 0.84465 0.0
C226 C 0.84101 0.29021 0.77473 0.0
H227 H 0.9086 0.29423 0.63264 0.0
H228 H 0.80761 0.31739 0.97393 0.0
H229 H 0.89002 0.38565 0.74921 0.0
H230 H 0.8258 0.38533 0.79574 0.0
Co231 Co 0.68223 0.86131 0.05086 0.0
C232 C 0.68322 0.86631 0.91639 0.0
C233 C 0.6908 0.89437 0.9622 0.0
C234 C 0.69297 0.89728 0.90009 0.0
N235 N 0.68461 0.87495 0.97237 0.0
N236 N 0.68841 0.87956 0.87157 0.0
H237 H 0.67906 0.85049 0.90854 0.0
H238 H 0.69434 0.90548 0.99727 0.0
C239 C 0.66994 0.89502 0.13484 0.0
O240 O 0.65559 0.88275 0.15586 0.0
N241 N 0.68086 0.84757 0.13017 0.0
C242 C 0.67487 0.82823 0.14298 0.0
C243 C 0.67796 0.82441 0.20429 0.0
C244 C 0.68862 0.85468 0.1835 0.0
N245 N 0.68643 0.84117 0.22977 0.0
C246 C 0.64193 0.84383 0.03894 0.0
C247 C 0.62131 0.88048 0.02458 0.0
C248 C 0.61012 0.86222 0.02644 0.0
C249 C 0.62068 0.84368 0.03208 0.0
C250 C 0.64258 0.87987 0.03039 0.0
N251 N 0.65253 0.86182 0.04174 0.0
H252 H 0.64981 0.8294 0.04024 0.0
H253 H 0.65102 0.89401 0.02614 0.0
H254 H 0.66946 0.81712 0.11026 0.0
H255 H 0.69621 0.8693 0.18833 0.0
O256 O 0.68732 0.83543 0.0124 0.0
O257 O 0.71142 0.85618 0.04882 0.0
O258 O 0.68224 0.88881 0.09322 0.0
C259 C 0.70664 0.83919 0.02086 0.0
H260 H 0.6985 0.91103 0.87788 0.0
H261 H 0.67417 0.8104 0.22822 0.0
H262 H 0.6137 0.89505 0.01772 0.0
H263 H 0.61258 0.8292 0.03163 0.0
H264 H 0.29433 0.19377 0.48234 0.0
H265 H 0.26656 0.21565 0.44557 0.0
H266 H 0.22317 0.16695 0.47705 0.0
H267 H 0.25092 0.14497 0.51474 0.0
H268 H 0.22226 0.18437 0.35712 0.0
H269 H 0.21917 0.20576 0.56603 0.0
H270 H 0.23317 0.21758 0.66472 0.0
H271 H 0.25583 0.2722 0.57877 0.0
H272 H 0.24219 0.26058 0.47935 0.0
H273 H 0.14267 0.25299 0.25928 0.0
H274 H 0.16262 0.22742 0.31572 0.0
H275 H 0.21225 0.27068 0.33405 0.0
H276 H 0.19223 0.29635 0.27944 0.0
H277 H 0.20502 0.25303 0.43976 0.0
H278 H 0.21347 0.23016 0.2306 0.0
H279 H 0.20177 0.21849 0.12907 0.0
H280 H 0.17137 0.16718 0.21195 0.0
H281 H 0.1827 0.1787 0.31411 0.0
C282 C 0.27884 0.18782 0.4822 0.0
C283 C 0.27474 0.16771 0.50127 0.0
C284 C 0.26301 0.20034 0.46144 0.0
C285 C 0.24287 0.19288 0.45896 0.0
C286 C 0.23864 0.17293 0.47895 0.0
C287 C 0.25446 0.16047 0.50058 0.0
C288 C 0.22666 0.20562 0.43137 0.0
C289 C 0.21808 0.19921 0.37575 0.0
C290 C 0.22167 0.22508 0.45531 0.0
C291 C 0.22979 0.23221 0.51511 0.0
C292 C 0.22729 0.22021 0.56805 0.0
C293 C 0.23514 0.22688 0.62415 0.0
C294 C 0.24545 0.24559 0.62797 0.0
C295 C 0.24787 0.25769 0.57572 0.0
C296 C 0.24005 0.25109 0.5195 0.0
C297 C 0.15794 0.2569 0.27473 0.0
C298 C 0.16596 0.27659 0.26491 0.0
C299 C 0.1693 0.24232 0.30702 0.0
C300 C 0.18894 0.24715 0.32898 0.0
C301 C 0.19707 0.26668 0.31793 0.0
C302 C 0.18568 0.28128 0.28637 0.0
C303 C 0.2011 0.2321 0.36425 0.0
C304 C 0.20889 0.23806 0.42148 0.0
C305 C 0.20558 0.21232 0.34134 0.0
C306 C 0.1987 0.20543 0.28002 0.0
C307 C 0.20414 0.21649 0.22721 0.0
C308 C 0.1976 0.20988 0.16955 0.0
C309 C 0.18577 0.19214 0.16408 0.0
C310 C 0.1805 0.18094 0.21627 0.0
C311 C 0.18698 0.1875 0.27405 0.0
H312 H 0.18074 0.18704 0.1194 0.0
H313 H 0.2515 0.25075 0.67146 0.0
H314 H 0.80043 0.29049 0.74938 0.0
H315 H 0.78073 0.26382 0.6974 0.0
H316 H 0.83441 0.22533 0.6906 0.0
H317 H 0.8542 0.25192 0.74412 0.0
H318 H 0.81291 0.23309 0.57362 0.0
H319 H 0.80068 0.20878 0.77632 0.0
H320 H 0.79143 0.21134 0.88549 0.0
H321 H 0.7314 0.23272 0.83678 0.0
H322 H 0.74038 0.23061 0.72729 0.0
H323 H 0.74764 0.15297 0.44754 0.0
H324 H 0.77407 0.17248 0.50217 0.0
H325 H 0.72836 0.21603 0.56065 0.0
H326 H 0.70202 0.19675 0.5067 0.0
H327 H 0.75015 0.20027 0.65593 0.0
H328 H 0.76311 0.22955 0.45711 0.0
H329 H 0.77197 0.22973 0.34735 0.0
H330 H 0.8297 0.2012 0.38739 0.0
H331 H 0.82107 0.20061 0.4974 0.0
C332 C 0.80793 0.2762 0.73776 0.0
C333 C 0.82876 0.27316 0.75072 0.0
C334 C 0.79669 0.26101 0.7082 0.0
C335 C 0.80618 0.24269 0.69037 0.0
C336 C 0.82689 0.2394 0.7043 0.0
C337 C 0.83808 0.25448 0.73508 0.0
C338 C 0.79449 0.22774 0.65386 0.0
C339 C 0.79945 0.22543 0.59174 0.0
C340 C 0.77675 0.21829 0.67764 0.0
C341 C 0.77128 0.21967 0.74352 0.0
C342 C 0.78557 0.21421 0.78886 0.0
C343 C 0.78035 0.21555 0.85082 0.0
C344 C 0.76085 0.22222 0.86806 0.0
C345 C 0.7465 0.22756 0.82336 0.0
C346 C 0.75164 0.22627 0.76133 0.0
C347 C 0.74334 0.16693 0.47108 0.0
C348 C 0.72277 0.17327 0.4733 0.0
C349 C 0.75843 0.17803 0.50219 0.0
C350 C 0.75309 0.19558 0.5357 0.0
C351 C 0.73273 0.20242 0.53539 0.0
C352 C 0.71772 0.19141 0.50438 0.0
C353 C 0.76817 0.20609 0.57508 0.0
C354 C 0.76384 0.20752 0.63788 0.0
C355 C 0.78634 0.21491 0.55169 0.0
C356 C 0.7913 0.21474 0.4854 0.0
C357 C 0.77758 0.22306 0.44244 0.0
C358 C 0.78259 0.22331 0.3802 0.0
C359 C 0.80135 0.21541 0.36038 0.0
C360 C 0.81515 0.20726 0.40279 0.0
C361 C 0.81021 0.20696 0.46508 0.0
H362 H 0.80523 0.21565 0.31221 0.0
H363 H 0.75684 0.22323 0.91605 0.0
H364 H 0.83847 0.74371 0.68261 0.0
H365 H 0.81573 0.76934 0.72816 0.0
H366 H 0.77544 0.72132 0.79068 0.0
H367 H 0.7979 0.69568 0.74483 0.0
H368 H 0.75413 0.75501 0.75535 0.0
H369 H 0.81142 0.73841 0.88414 0.0
H370 H 0.84813 0.73405 0.90716 0.0
H371 H 0.85855 0.79788 0.87182 0.0
H372 H 0.82188 0.80258 0.84777 0.0
H373 H 0.70413 0.79816 0.00717 0.0
H374 H 0.72639 0.77638 0.94514 0.0
H375 H 0.76492 0.82842 0.90511 0.0
H376 H 0.74313 0.85007 0.96995 0.0
H377 H 0.78738 0.79524 0.92065 0.0
H378 H 0.72556 0.81045 0.80316 0.0
H379 H 0.68806 0.81106 0.78643 0.0
H380 H 0.68541 0.74591 0.80921 0.0
H381 H 0.72271 0.74481 0.82653 0.0
C382 C 0.82449 0.73866 0.70468 0.0
C383 C 0.82005 0.71771 0.71088 0.0
C384 C 0.81158 0.7533 0.73087 0.0
C385 C 0.79414 0.74715 0.76365 0.0
C386 C 0.78887 0.72635 0.76572 0.0
C387 C 0.80176 0.71173 0.73966 0.0
C388 C 0.78248 0.762 0.801 0.0
C389 C 0.76134 0.76384 0.7915 0.0
C390 C 0.792 0.77347 0.84802 0.0
C391 C 0.81397 0.7708 0.86347 0.0
C392 C 0.82157 0.75149 0.88089 0.0
C393 C 0.84236 0.74895 0.89415 0.0
C394 C 0.85569 0.76565 0.89072 0.0
C395 C 0.84822 0.78495 0.87431 0.0
C396 C 0.82743 0.78757 0.8609 0.0
C397 C 0.71761 0.80481 0.9861 0.0
C398 C 0.72201 0.82571 0.99308 0.0
C399 C 0.73015 0.79245 0.95009 0.0
C400 C 0.74689 0.80094 0.91874 0.0
C401 C 0.75194 0.82162 0.92836 0.0
C402 C 0.73961 0.83392 0.96564 0.0
C403 C 0.75888 0.78829 0.8753 0.0
C404 C 0.78015 0.78679 0.88373 0.0
C405 C 0.74936 0.77679 0.8281 0.0
C406 C 0.72694 0.77757 0.81654 0.0
C407 C 0.71697 0.79627 0.80483 0.0
C408 C 0.69577 0.79671 0.79525 0.0
C409 C 0.68442 0.77859 0.79706 0.0
C410 C 0.69422 0.75995 0.80794 0.0
C411 C 0.71538 0.75939 0.8175 0.0
H412 H 0.66802 0.779 0.78998 0.0
H413 H 0.87179 0.76364 0.90094 0.0
H414 H 0.14665 0.7454 0.24304 0.0
H415 H 0.168 0.77 0.18648 0.0
H416 H 0.2192 0.72836 0.19731 0.0
H417 H 0.19795 0.70371 0.25251 0.0
H418 H 0.22898 0.76983 0.22322 0.0
H419 H 0.19465 0.72806 0.07276 0.0
H420 H 0.16497 0.71261 0.0207 0.0
H421 H 0.14141 0.77244 0.9796 0.0
H422 H 0.17094 0.78828 0.03207 0.0
H423 H 0.29948 0.80076 0.00715 0.0
H424 H 0.27338 0.77879 0.05291 0.0
H425 H 0.22733 0.82464 0.01698 0.0
H426 H 0.25335 0.84657 0.96963 0.0
H427 H 0.21256 0.78411 0.00531 0.0
H428 H 0.24974 0.82541 0.1502 0.0
H429 H 0.28155 0.83921 0.19385 0.0
H430 H 0.30077 0.77851 0.24344 0.0
H431 H 0.26908 0.76429 0.19891 0.0
C432 C 0.16257 0.74175 0.23428 0.0
C433 C 0.17075 0.72276 0.25198 0.0
C434 C 0.17465 0.75567 0.20169 0.0
C435 C 0.19505 0.75082 0.1875 0.0
C436 C 0.20346 0.7323 0.20786 0.0
C437 C 0.19134 0.71828 0.23931 0.0
C438 C 0.20766 0.76461 0.14964 0.0
C439 C 0.22541 0.77293 0.17559 0.0
C440 C 0.20277 0.7688 0.08779 0.0
C441 C 0.18484 0.75935 0.05712 0.0
C442 C 0.18301 0.73793 0.0533 0.0
C443 C 0.16625 0.72909 0.02355 0.0
C444 C 0.15125 0.74153 0.99709 0.0
C445 C 0.15302 0.76283 0.00027 0.0
C446 C 0.16977 0.77175 0.02997 0.0
C447 C 0.28372 0.80598 0.00779 0.0
C448 C 0.27845 0.82547 0.98579 0.0
C449 C 0.26884 0.79342 0.03386 0.0
C450 C 0.24856 0.80033 0.03939 0.0
C451 C 0.24294 0.81911 0.01328 0.0
C452 C 0.25781 0.83163 0.98648 0.0
C453 C 0.23402 0.78904 0.07871 0.0
C454 C 0.21592 0.78126 0.05319 0.0
C455 C 0.2386 0.7852 0.141 0.0
C456 C 0.25714 0.79378 0.17072 0.0
C457 C 0.2608 0.81499 0.17009 0.0
C458 C 0.27889 0.82288 0.19475 0.0
C459 C 0.29333 0.80972 0.22091 0.0
C460 C 0.28963 0.78866 0.22284 0.0
C461 C 0.27158 0.78068 0.19798 0.0
H462 H 0.3073 0.81581 0.24026 0.0
H463 H 0.13831 0.73467 0.97388 0.0
H464 H 0.15174 0.31168 0.43995 0.0
H465 H 0.15867 0.31117 0.5494 0.0
H466 H 0.09383 0.30757 0.58645 0.0
H467 H 0.08668 0.30916 0.47684 0.0
H468 H 0.11187 0.33554 0.65656 0.0
H469 H 0.126 0.26525 0.6003 0.0
H470 H 0.14301 0.23834 0.53937 0.0
H471 H 0.20181 0.25974 0.59979 0.0
H472 H 0.1852 0.28685 0.6606 0.0
H473 H 0.11596 0.31273 0.96961 0.0
H474 H 0.11036 0.30981 0.85994 0.0
H475 H 0.17549 0.31262 0.82841 0.0
H476 H 0.1814 0.31458 0.93872 0.0
H477 H 0.15818 0.28506 0.75485 0.0
H478 H 0.14519 0.35427 0.81241 0.0
H479 H 0.12959 0.38307 0.86852 0.0
H480 H 0.07022 0.36624 0.80063 0.0
H481 H 0.08534 0.33692 0.74566 0.0
C482 C 0.1389 0.31103 0.47117 0.0
C483 C 0.1186 0.3106 0.44949 0.0
C484 C 0.14293 0.31042 0.53383 0.0
C485 C 0.12678 0.30906 0.57597 0.0
C486 C 0.10652 0.30852 0.55459 0.0
C487 C 0.10247 0.30928 0.49195 0.0
C488 C 0.1309 0.30904 0.64252 0.0
C489 C 0.12169 0.32428 0.67834 0.0
C490 C 0.14438 0.29481 0.67019 0.0
C491 C 0.15435 0.27817 0.63471 0.0
C492 C 0.14257 0.26425 0.6004 0.0
C493 C 0.15215 0.24894 0.56591 0.0
C494 C 0.1735 0.24732 0.56564 0.0
C495 C 0.1853 0.26096 0.60005 0.0
C496 C 0.17581 0.27628 0.63464 0.0
C497 C 0.12917 0.31234 0.93974 0.0
C498 C 0.14917 0.314 0.96319 0.0
C499 C 0.12589 0.3109 0.87686 0.0
C500 C 0.14246 0.31138 0.83603 0.0
C501 C 0.16247 0.31236 0.85918 0.0
C502 C 0.1658 0.31367 0.92221 0.0
C503 C 0.13881 0.31137 0.76918 0.0
C504 C 0.14821 0.29621 0.73324 0.0
C505 C 0.12562 0.32582 0.74118 0.0
C506 C 0.1164 0.3432 0.77547 0.0
C507 C 0.12877 0.35651 0.81012 0.0
C508 C 0.12001 0.37296 0.84168 0.0
C509 C 0.09892 0.37645 0.83828 0.0
C510 C 0.08655 0.36352 0.80323 0.0
C511 C 0.0952 0.34693 0.77208 0.0
H512 H 0.09217 0.38921 0.86266 0.0
H513 H 0.18088 0.23548 0.53887 0.0
H514 H 0.67825 0.18497 0.15538 0.0
H515 H 0.68121 0.17858 0.04555 0.0
H516 H 0.687 0.1138 0.07996 0.0
H517 H 0.68359 0.11993 0.18959 0.0
H518 H 0.71513 0.12831 0.99464 0.0
H519 H 0.64283 0.13097 0.03323 0.0
H520 H 0.61076 0.14593 0.07284 0.0
H521 H 0.61883 0.19843 0.95699 0.0
H522 H 0.65113 0.18392 0.91732 0.0
H523 H 0.69347 0.0925 0.6934 0.0
H524 H 0.69314 0.09883 0.80375 0.0
H525 H 0.68558 0.16353 0.77074 0.0
H526 H 0.68624 0.1574 0.66062 0.0
H527 H 0.65858 0.14886 0.85574 0.0
H528 H 0.73087 0.14603 0.81652 0.0
H529 H 0.76292 0.131 0.77713 0.0
H530 H 0.75485 0.0787 0.89381 0.0
H531 H 0.72257 0.0933 0.93333 0.0
C532 C 0.68002 0.16936 0.13964 0.0
C533 C 0.68061 0.15298 0.18135 0.0
C534 C 0.6818 0.16575 0.07695 0.0
C535 C 0.68416 0.14571 0.05494 0.0
C536 C 0.68524 0.12937 0.0963 0.0
C537 C 0.68337 0.13294 0.15898 0.0
C538 C 0.68507 0.14178 0.98853 0.0
C539 C 0.70269 0.13256 0.96424 0.0
C540 C 0.66895 0.14771 0.94914 0.0
C541 C 0.64951 0.15646 0.97279 0.0
C542 C 0.63786 0.14579 0.01659 0.0
C543 C 0.61963 0.15417 0.03898 0.0
C544 C 0.61279 0.17314 0.01757 0.0
C545 C 0.62416 0.18375 0.9736 0.0
C546 C 0.64243 0.17545 0.95112 0.0
C547 C 0.69197 0.10808 0.70966 0.0
C548 C 0.68977 0.12441 0.66827 0.0
C549 C 0.69175 0.11167 0.77261 0.0
C550 C 0.68943 0.13165 0.79514 0.0
C551 C 0.68729 0.14799 0.75406 0.0
C552 C 0.68754 0.14443 0.69116 0.0
C553 C 0.68869 0.13549 0.86166 0.0
C554 C 0.67106 0.14465 0.88604 0.0
C555 C 0.70479 0.12948 0.90107 0.0
C556 C 0.72419 0.12066 0.87741 0.0
C557 C 0.73583 0.13124 0.83339 0.0
C558 C 0.75406 0.12282 0.81112 0.0
C559 C 0.76089 0.10388 0.83282 0.0
C560 C 0.74952 0.09335 0.87697 0.0
C561 C 0.73127 0.1017 0.89936 0.0
H562 H 0.77501 0.09739 0.81554 0.0
H563 H 0.59867 0.1796 0.03494 0.0
H564 H 0.90162 0.70447 0.95225 0.0
H565 H 0.89696 0.70141 0.06318 0.0
H566 H 0.83441 0.68222 0.03524 0.0
H567 H 0.83897 0.68539 0.92432 0.0
H568 H 0.83957 0.71126 0.13061 0.0
H569 H 0.86757 0.64701 0.06203 0.0
H570 H 0.89251 0.62504 0.00837 0.0
H571 H 0.94071 0.64759 0.12388 0.0
H572 H 0.91609 0.66996 0.17763 0.0
H573 H 0.81856 0.6661 0.41853 0.0
H574 H 0.82329 0.67221 0.30909 0.0
H575 H 0.88715 0.68575 0.34011 0.0
H576 H 0.88265 0.6791 0.44941 0.0
H577 H 0.88185 0.66053 0.24322 0.0
H578 H 0.854 0.72394 0.31445 0.0
H579 H 0.82938 0.74638 0.36772 0.0
H580 H 0.78135 0.72614 0.24782 0.0
H581 H 0.80563 0.70334 0.19438 0.0
C582 C 0.88684 0.6998 0.96992 0.0
C583 C 0.87072 0.69494 0.92995 0.0
C584 C 0.88423 0.69798 0.03305 0.0
C585 C 0.86541 0.69142 0.05702 0.0
C586 C 0.84906 0.68723 0.01736 0.0
C587 C 0.85174 0.68885 0.9542 0.0
C588 C 0.86301 0.68819 0.12343 0.0
C589 C 0.84861 0.70003 0.15529 0.0
C590 C 0.87521 0.67385 0.15537 0.0
C591 C 0.89003 0.66032 0.1234 0.0
C592 C 0.88352 0.64742 0.07563 0.0
C593 C 0.89759 0.63487 0.04526 0.0
C594 C 0.91819 0.63496 0.06258 0.0
C595 C 0.92475 0.64756 0.11044 0.0
C596 C 0.91074 0.66017 0.1409 0.0
C597 C 0.83363 0.6702 0.40199 0.0
C598 C 0.85022 0.67217 0.44258 0.0
C599 C 0.83627 0.67389 0.33959 0.0
C600 C 0.85551 0.67967 0.31678 0.0
C601 C 0.87216 0.68141 0.35699 0.0
C602 C 0.86952 0.67776 0.41941 0.0
C603 C 0.85834 0.68358 0.25071 0.0
C604 C 0.87282 0.67184 0.21878 0.0
C605 C 0.84625 0.69806 0.2188 0.0
C606 C 0.8316 0.71177 0.25081 0.0
C607 C 0.83815 0.72414 0.29978 0.0
C608 C 0.82426 0.73695 0.32995 0.0
C609 C 0.8038 0.73764 0.31128 0.0
C610 C 0.7972 0.72556 0.26229 0.0
C611 C 0.81102 0.7127 0.23202 0.0
H612 H 0.79308 0.74758 0.33468 0.0
H613 H 0.92907 0.62523 0.03902 0.0
H614 H 0.32255 0.84877 0.19282 0.0
H615 H 0.32369 0.84441 0.30335 0.0
H616 H 0.29627 0.90389 0.32786 0.0
H617 H 0.29515 0.90858 0.21683 0.0
H618 H 0.33138 0.89634 0.40063 0.0
H619 H 0.26735 0.86607 0.35201 0.0
H620 H 0.24186 0.84359 0.3029 0.0
H621 H 0.27399 0.79056 0.36818 0.0
H622 H 0.29996 0.8127 0.4166 0.0
H623 H 0.31522 0.88378 0.71959 0.0
H624 H 0.31046 0.89039 0.61103 0.0
H625 H 0.32905 0.82851 0.56951 0.0
H626 H 0.3328 0.82137 0.67858 0.0
H627 H 0.29617 0.8389 0.50557 0.0
H628 H 0.36113 0.87073 0.55273 0.0
H629 H 0.38447 0.89436 0.60653 0.0
H630 H 0.34896 0.94569 0.54461 0.0
H631 H 0.32511 0.92239 0.49201 0.0
C632 C 0.31689 0.86107 0.22131 0.0
C633 C 0.30858 0.87899 0.19557 0.0
C634 C 0.31733 0.85839 0.28457 0.0
C635 C 0.30973 0.87367 0.32336 0.0
C636 C 0.30196 0.89183 0.29832 0.0
C637 C 0.30126 0.89443 0.23491 0.0
C638 C 0.31075 0.87088 0.39022 0.0
C639 C 0.32346 0.88398 0.42393 0.0
C640 C 0.30064 0.8545 0.41982 0.0
C641 C 0.28575 0.84109 0.38753 0.0
C642 C 0.26919 0.84962 0.35512 0.0
C643 C 0.25456 0.83693 0.32775 0.0
C644 C 0.25624 0.81567 0.33276 0.0
C645 C 0.27265 0.80704 0.36467 0.0
C646 C 0.28736 0.81965 0.39194 0.0
C647 C 0.31805 0.87144 0.6877 0.0
C648 C 0.32434 0.85197 0.7081 0.0
C649 C 0.31558 0.87536 0.62542 0.0
C650 C 0.31968 0.86004 0.58219 0.0
C651 C 0.32589 0.84059 0.60222 0.0
C652 C 0.32819 0.83658 0.66458 0.0
C653 C 0.31715 0.86412 0.51603 0.0
C654 C 0.30412 0.85126 0.48237 0.0
C655 C 0.3269 0.88079 0.48653 0.0
C656 C 0.34118 0.89477 0.51899 0.0
C657 C 0.35815 0.88704 0.55125 0.0
C658 C 0.37149 0.90039 0.58157 0.0
C659 C 0.36814 0.92152 0.57938 0.0
C660 C 0.35148 0.92934 0.54677 0.0
C661 C 0.33804 0.91606 0.51672 0.0
H662 H 0.3785 0.93185 0.60271 0.0
H663 H 0.2449 0.80587 0.31152 0.0
H664 H 0.0934 0.70667 0.03938 0.0
H665 H 0.09985 0.70761 0.92973 0.0
H666 H 0.15352 0.67009 0.95403 0.0
H667 H 0.1469 0.66828 0.06361 0.0
H668 H 0.15931 0.70666 0.8806 0.0
H669 H 0.1139 0.64832 0.89889 0.0
H670 H 0.08206 0.63081 0.92968 0.0
H671 H 0.04683 0.67249 0.81999 0.0
H672 H 0.07846 0.69046 0.78931 0.0
H673 H 0.1832 0.67712 0.57776 0.0
H674 H 0.17588 0.68032 0.6864 0.0
H675 H 0.11533 0.70286 0.64468 0.0
H676 H 0.122 0.69836 0.53597 0.0
H677 H 0.11194 0.67617 0.72822 0.0
H678 H 0.15552 0.73397 0.705 0.0
H679 H 0.18617 0.7536 0.67495 0.0
H680 H 0.22336 0.71659 0.79342 0.0
H681 H 0.19298 0.69652 0.82353 0.0
C682 C 0.10644 0.69831 0.02191 0.0
C683 C 0.1196 0.68739 0.06135 0.0
C684 C 0.11013 0.69899 0.95891 0.0
C685 C 0.12716 0.68894 0.93389 0.0
C686 C 0.14034 0.67804 0.97262 0.0
C687 C 0.13652 0.6771 0.03554 0.0
C688 C 0.13131 0.6899 0.86727 0.0
C689 C 0.14913 0.69981 0.84709 0.0
C690 C 0.11755 0.68166 0.82381 0.0
C691 C 0.09853 0.67089 0.8424 0.0
C692 C 0.09935 0.65389 0.88185 0.0
C693 C 0.08134 0.64385 0.89918 0.0
C694 C 0.06243 0.65058 0.87697 0.0
C695 C 0.06149 0.66733 0.83727 0.0
C696 C 0.07945 0.67744 0.81988 0.0
C697 C 0.1683 0.68275 0.59135 0.0
C698 C 0.1532 0.68732 0.54738 0.0
C699 C 0.16422 0.68486 0.65386 0.0
C700 C 0.14511 0.69206 0.67413 0.0
C701 C 0.13022 0.69728 0.63039 0.0
C702 C 0.13417 0.6949 0.56785 0.0
C703 C 0.1402 0.6928 0.74075 0.0
C704 C 0.12217 0.6832 0.76123 0.0
C705 C 0.15362 0.70166 0.7844 0.0
C706 C 0.17198 0.7136 0.76605 0.0
C707 C 0.17026 0.72988 0.72423 0.0
C708 C 0.18758 0.74112 0.70727 0.0
C709 C 0.20671 0.73631 0.73214 0.0
C710 C 0.20854 0.72028 0.77412 0.0
C711 C 0.19127 0.70898 0.79119 0.0
H712 H 0.2201 0.74504 0.71898 0.0
H713 H 0.0485 0.64277 0.89039 0.0
H714 H 0.27892 0.10441 0.27261 0.0
H715 H 0.28149 0.10986 0.16227 0.0
H716 H 0.34294 0.13297 0.1849 0.0
H717 H 0.34055 0.12738 0.29525 0.0
H718 H 0.31997 0.15785 0.11379 0.0
H719 H 0.33447 0.08551 0.12482 0.0
H720 H 0.3279 0.04951 0.15271 0.0
H721 H 0.2719 0.05041 0.04965 0.0
H722 H 0.27805 0.08647 0.02154 0.0
H723 H 0.35098 0.15987 0.80362 0.0
H724 H 0.34761 0.15332 0.91324 0.0
H725 H 0.28796 0.12666 0.88289 0.0
H726 H 0.29145 0.13292 0.77294 0.0
H727 H 0.30908 0.10361 0.9581 0.0
H728 H 0.29397 0.17518 0.94591 0.0
H729 H 0.29962 0.21128 0.91736 0.0
H730 H 0.35509 0.21231 0.02296 0.0
H731 H 0.34991 0.17612 0.05149 0.0
C732 C 0.29309 0.11036 0.25411 0.0
C733 C 0.30952 0.1155 0.29286 0.0
C734 C 0.29453 0.1135 0.19099 0.0
C735 C 0.31245 0.1217 0.16538 0.0
C736 C 0.32894 0.12668 0.2038 0.0
C737 C 0.32752 0.12355 0.26687 0.0
C738 C 0.31379 0.12584 0.09881 0.0
C739 C 0.31787 0.14594 0.0797 0.0
C740 C 0.31037 0.11042 0.05445 0.0
C741 C 0.30662 0.08876 0.07159 0.0
C742 C 0.32067 0.07808 0.10851 0.0
C743 C 0.31705 0.05764 0.12421 0.0
C744 C 0.29948 0.04768 0.103 0.0
C745 C 0.28551 0.05813 0.06598 0.0
C746 C 0.28907 0.07856 0.0501 0.0
C747 C 0.33706 0.15284 0.82041 0.0
C748 C 0.32144 0.14698 0.77976 0.0
C749 C 0.33514 0.1491 0.88307 0.0
C750 C 0.31741 0.13974 0.90644 0.0
C751 C 0.30178 0.13389 0.8659 0.0
C752 C 0.30379 0.13745 0.80314 0.0
C753 C 0.3154 0.13563 0.97297 0.0
C754 C 0.31115 0.11554 0.99212 0.0
C755 C 0.31849 0.1511 0.01741 0.0
C756 C 0.32164 0.17288 0.00036 0.0
C757 C 0.30745 0.18306 0.96265 0.0
C758 C 0.31056 0.20354 0.94654 0.0
C759 C 0.32773 0.21407 0.9682 0.0
C760 C 0.34181 0.20413 0.00615 0.0
C761 C 0.33879 0.18364 0.02235 0.0
H762 H 0.33011 0.22993 0.95569 0.0
H763 H 0.29671 0.03185 0.11518 0.0
H764 H 0.90778 0.3035 0.53336 0.0
H765 H 0.90101 0.30114 0.4243 0.0
H766 H 0.83794 0.31791 0.45541 0.0
H767 H 0.84417 0.31903 0.56502 0.0
H768 H 0.83942 0.28776 0.37778 0.0
H769 H 0.87494 0.3525 0.39392 0.0
H770 H 0.90323 0.37563 0.42276 0.0
H771 H 0.94525 0.33971 0.31606 0.0
H772 H 0.91725 0.31621 0.28733 0.0
H773 H 0.81439 0.32133 0.07516 0.0
H774 H 0.82109 0.31751 0.1842 0.0
H775 H 0.8805 0.29199 0.14439 0.0
H776 H 0.8739 0.29514 0.03532 0.0
H777 H 0.88185 0.32461 0.22511 0.0
H778 H 0.84553 0.2619 0.20103 0.0
H779 H 0.81731 0.23877 0.17211 0.0
H780 H 0.77665 0.27069 0.29368 0.0
H781 H 0.80452 0.29429 0.32255 0.0
C782 C 0.8924 0.30655 0.51751 0.0
C783 C 0.87655 0.3114 0.55887 0.0
C784 C 0.88862 0.30543 0.45468 0.0
C785 C 0.86903 0.30961 0.4314 0.0
C786 C 0.85321 0.31465 0.47225 0.0
C787 C 0.8569 0.3155 0.5352 0.0
C788 C 0.86487 0.30831 0.36464 0.0
C789 C 0.8485 0.29608 0.34444 0.0
C790 C 0.87716 0.31858 0.32093 0.0
C791 C 0.89404 0.33253 0.33888 0.0
C792 C 0.89025 0.34945 0.37705 0.0
C793 C 0.90622 0.36263 0.39331 0.0
C794 C 0.92603 0.35911 0.37139 0.0
C795 C 0.92991 0.34238 0.33319 0.0
C796 C 0.914 0.32913 0.31691 0.0
C797 C 0.82873 0.31449 0.08907 0.0
C798 C 0.84361 0.30874 0.04556 0.0
C799 C 0.83253 0.31234 0.15172 0.0
C800 C 0.85129 0.30448 0.17228 0.0
C801 C 0.86596 0.29821 0.12934 0.0
C802 C 0.86214 0.30017 0.06672 0.0
C803 C 0.85623 0.30436 0.23844 0.0
C804 C 0.87278 0.3163 0.25847 0.0
C805 C 0.84405 0.29389 0.28187 0.0
C806 C 0.82708 0.28006 0.26335 0.0
C807 C 0.8305 0.2642 0.22096 0.0
C808 C 0.81457 0.25095 0.2047 0.0
C809 C 0.79517 0.25333 0.2308 0.0
C810 C 0.79166 0.26893 0.2733 0.0
C811 C 0.80753 0.28224 0.28964 0.0
H812 H 0.78289 0.243 0.21835 0.0
H813 H 0.93837 0.36936 0.3839 0.0
H814 H 0.68536 0.87728 0.29057 0.0
H815 H 0.69002 0.88261 0.40016 0.0
H816 H 0.70198 0.81815 0.42418 0.0
H817 H 0.69703 0.81266 0.31432 0.0
H818 H 0.67611 0.82996 0.50604 0.0
H819 H 0.73942 0.85549 0.4348 0.0
H820 H 0.76384 0.87593 0.37438 0.0
H821 H 0.73993 0.93123 0.45324 0.0
H822 H 0.715 0.91119 0.51303 0.0
H823 H 0.70138 0.84413 0.82109 0.0
H824 H 0.70496 0.83647 0.71165 0.0
H825 H 0.68496 0.89769 0.66774 0.0
H826 H 0.68136 0.90533 0.77714 0.0
H827 H 0.71809 0.88525 0.5982 0.0
H828 H 0.65207 0.8578 0.66004 0.0
H829 H 0.62964 0.83605 0.7235 0.0
H830 H 0.66235 0.78251 0.66442 0.0
H831 H 0.68525 0.80399 0.6016 0.0
C832 C 0.68936 0.86429 0.31893 0.0
C833 C 0.69084 0.84453 0.29368 0.0
C834 C 0.69205 0.86737 0.38171 0.0
C835 C 0.69658 0.85085 0.42056 0.0
C836 C 0.69847 0.83115 0.39524 0.0
C837 C 0.6956 0.82802 0.33246 0.0
C838 C 0.69799 0.85396 0.48794 0.0
C839 C 0.6856 0.84183 0.52608 0.0
C840 C 0.7102 0.8696 0.51439 0.0
C841 C 0.72506 0.88179 0.47781 0.0
C842 C 0.73914 0.87202 0.43868 0.0
C843 C 0.75313 0.88355 0.40461 0.0
C844 C 0.75339 0.90487 0.40979 0.0
C845 C 0.73971 0.91471 0.44923 0.0
C846 C 0.72561 0.90326 0.48315 0.0
C847 C 0.69748 0.85581 0.78794 0.0
C848 C 0.69069 0.87517 0.80737 0.0
C849 C 0.69967 0.85149 0.7256 0.0
C850 C 0.69494 0.86642 0.6816 0.0
C851 C 0.68866 0.88594 0.70096 0.0
C852 C 0.68657 0.89028 0.76333 0.0
C853 C 0.69595 0.86158 0.6153 0.0
C854 C 0.70877 0.87334 0.57765 0.0
C855 C 0.68441 0.84544 0.58929 0.0
C856 C 0.67048 0.83252 0.62655 0.0
C857 C 0.65457 0.8414 0.66094 0.0
C858 C 0.64177 0.82912 0.69679 0.0
C859 C 0.64459 0.80791 0.69809 0.0
C860 C 0.66018 0.79894 0.6634 0.0
C861 C 0.67309 0.81116 0.62773 0.0
H862 H 0.63468 0.79843 0.72591 0.0
H863 H 0.76424 0.91377 0.38339 0.0
H864 H 0.07581 0.29988 0.10464 0.0
H865 H 0.04257 0.29833 0.05264 0.0
H866 H 0.028 0.35879 0.11993 0.0
H867 H 0.06067 0.36006 0.17364 0.0
H868 H 0.99666 0.3351 0.13471 0.0
H869 H 0.04492 0.34726 0.97184 0.0
H870 H 0.07462 0.33977 0.90602 0.0
H871 H 0.04572 0.28455 0.84342 0.0
H872 H 0.01629 0.2911 0.91145 0.0
H873 H 0.91355 0.36281 0.94745 0.0
H874 H 0.94741 0.36097 0.99455 0.0
H875 H 0.95491 0.2994 0.92623 0.0
H876 H 0.92126 0.30134 0.87738 0.0
H877 H 0.98932 0.32092 0.91271 0.0
H878 H 0.94116 0.30894 0.07591 0.0
H879 H 0.91073 0.31745 0.13788 0.0
H880 H 0.93911 0.37352 0.19564 0.0
H881 H 0.96958 0.36554 0.13317 0.0
C882 C 0.06551 0.31284 0.10802 0.0
C883 C 0.07076 0.33006 0.14323 0.0
C884 C 0.04656 0.31196 0.07824 0.0
C885 C 0.03285 0.32851 0.08204 0.0
C886 C 0.03827 0.34579 0.11662 0.0
C887 C 0.05698 0.34652 0.14715 0.0
C888 C 0.01267 0.32796 0.05097 0.0
C889 C 0.99511 0.33216 0.08603 0.0
C890 C 0.01057 0.32359 0.98774 0.0
C891 C 0.02845 0.31958 0.94736 0.0
C892 C 0.04499 0.33337 0.94472 0.0
C893 C 0.06179 0.3293 0.90689 0.0
C894 C 0.06198 0.31179 0.87013 0.0
C895 C 0.04553 0.29813 0.87185 0.0
C896 C 0.02884 0.30195 0.91032 0.0
C897 C 0.92241 0.34888 0.94238 0.0
C898 C 0.91469 0.33216 0.90917 0.0
C899 C 0.94172 0.34783 0.96947 0.0
C900 C 0.95349 0.3299 0.96484 0.0
C901 C 0.94602 0.31334 0.93055 0.0
C902 C 0.92679 0.31446 0.90281 0.0
C903 C 0.97351 0.32838 0.99629 0.0
C904 C 0.99095 0.3237 0.96144 0.0
C905 C 0.97556 0.33236 0.05966 0.0
C906 C 0.95758 0.33673 0.09932 0.0
C907 C 0.94089 0.32312 0.10163 0.0
C908 C 0.92362 0.32787 0.13678 0.0
C909 C 0.92293 0.3461 0.17022 0.0
C910 C 0.93962 0.35947 0.16937 0.0
C911 C 0.95691 0.35483 0.13417 0.0
H912 H 0.90948 0.34986 0.19694 0.0
H913 H 0.07481 0.30881 0.84011 0.0
H914 H 0.69873 0.92406 0.10666 0.0
H915 H 0.70126 0.95888 0.14775 0.0
H916 H 0.64689 0.94862 0.25581 0.0
H917 H 0.64442 0.91383 0.21603 0.0
H918 H 0.67504 0.99184 0.14493 0.0
H919 H 0.65306 0.97179 0.39579 0.0
H920 H 0.65478 0.9422 0.46565 0.0
H921 H 0.70558 0.91788 0.364 0.0
H922 H 0.7048 0.94774 0.29532 0.0
H923 H 0.64553 0.06171 0.41907 0.0
H924 H 0.64799 0.02867 0.36788 0.0
H925 H 0.6997 0.0504 0.26318 0.0
H926 H 0.69694 0.08387 0.3132 0.0
H927 H 0.67763 0.00159 0.37008 0.0
H928 H 0.70097 0.02458 0.12558 0.0
H929 H 0.69778 0.05408 0.05554 0.0
H930 H 0.64184 0.07201 0.14411 0.0
H931 H 0.64454 0.04248 0.21404 0.0
C932 C 0.68732 0.92923 0.1392 0.0
C933 C 0.67148 0.91613 0.15855 0.0
C934 C 0.68874 0.94914 0.16235 0.0
C935 C 0.67441 0.9562 0.2053 0.0
C936 C 0.6583 0.94333 0.22342 0.0
C937 C 0.65692 0.92345 0.2006 0.0
C938 C 0.67644 0.97682 0.23267 0.0
C939 C 0.67593 0.99401 0.19411 0.0
C940 C 0.67738 0.97956 0.29688 0.0
C941 C 0.67871 0.96196 0.33991 0.0
C942 C 0.66477 0.96027 0.38878 0.0
C943 C 0.66562 0.94346 0.42832 0.0
C944 C 0.6803 0.92819 0.4194 0.0
C945 C 0.69428 0.92976 0.37117 0.0
C946 C 0.69368 0.94667 0.33198 0.0
C947 C 0.65737 0.05953 0.38494 0.0
C948 C 0.67106 0.07537 0.37019 0.0
C949 C 0.65879 0.04061 0.35583 0.0
C950 C 0.67398 0.03708 0.3116 0.0
C951 C 0.68768 0.05288 0.29658 0.0
C952 C 0.68612 0.07196 0.3253 0.0
C953 C 0.6755 0.01664 0.28256 0.0
C954 C 0.67688 -0.00056 0.32087 0.0
C955 C 0.6752 0.01393 0.21827 0.0
C956 C 0.6731 0.03145 0.17547 0.0
C957 C 0.68795 0.03477 0.1299 0.0
C958 C 0.68623 0.05151 0.09026 0.0
C959 C 0.66966 0.06495 0.09553 0.0
C960 C 0.65471 0.06163 0.14023 0.0
C961 C 0.65633 0.0449 0.1799 0.0
H962 H 0.66838 0.07791 0.06487 0.0
H963 H 0.68082 0.91515 0.44992 0.0
H964 H 0.06879 0.68339 0.34197 0.0
H965 H 0.03488 0.686 0.38898 0.0
H966 H 0.0598 0.66437 0.5603 0.0
H967 H 0.09351 0.66092 0.51264 0.0
H968 H 0.02592 0.64569 0.53899 0.0
H969 H 0.04669 0.71627 0.53226 0.0
H970 H 0.05915 0.74796 0.48344 0.0
H971 H 0.00665 0.74858 0.36503 0.0
H972 H 0.99401 0.71674 0.41263 0.0
H973 H 0.94408 0.67074 0.73304 0.0
H974 H 0.97732 0.67169 0.68224 0.0
H975 H 0.94783 0.68588 0.51068 0.0
H976 H 0.91436 0.68528 0.5615 0.0
H977 H 0.98311 0.70842 0.52901 0.0
H978 H 0.96243 0.63765 0.53963 0.0
H979 H 0.95018 0.60656 0.59224 0.0
H980 H 0.00336 0.60712 0.70793 0.0
H981 H 0.01578 0.63839 0.6566 0.0
C982 C 0.067 0.6793 0.38973 0.0
C983 C 0.08369 0.67191 0.42373 0.0
C984 C 0.04766 0.68089 0.41664 0.0
C985 C 0.04482 0.67564 0.47844 0.0
C986 C 0.06159 0.66845 0.51252 0.0
C987 C 0.08083 0.66649 0.48531 0.0
C988 C 0.02428 0.67691 0.50724 0.0
C989 C 0.01672 0.65952 0.53747 0.0
C990 C 0.012 0.69478 0.50396 0.0
C991 C 0.0195 0.71402 0.47563 0.0
C992 C 0.03787 0.72309 0.49554 0.0
C993 C 0.04496 0.7411 0.46813 0.0
C994 C 0.03373 0.75025 0.42106 0.0
C995 C 0.01535 0.74146 0.40144 0.0
C996 C 0.0082 0.72345 0.42866 0.0
C997 C 0.94462 0.67415 0.68454 0.0
C998 C 0.92659 0.67772 0.65112 0.0
C999 C 0.96364 0.67467 0.6556 0.0
C1000 C 0.96497 0.67852 0.59257 0.0
C1001 C 0.94708 0.68281 0.55937 0.0
C1002 C 0.928 0.68241 0.58842 0.0
C1003 C 0.98502 0.67732 0.56123 0.0
C1004 C 0.9924 0.69464 0.53039 0.0
C1005 C 0.99725 0.65947 0.56435 0.0
C1006 C 0.98996 0.64045 0.59455 0.0
C1007 C 0.97146 0.63121 0.57651 0.0
C1008 C 0.96448 0.61355 0.60608 0.0
C1009 C 0.97596 0.60489 0.65346 0.0
C1010 C 0.99448 0.61384 0.67124 0.0
C1011 C 0.0015 0.63152 0.64188 0.0
H1012 H 0.97053 0.59123 0.67633 0.0
H1013 H 0.03924 0.76418 0.39987 0.0
H1014 H 0.33182 0.94764 0.97344 0.0
H1015 H 0.33171 0.97868 0.91049 0.0
H1016 H 0.31918 0.94232 0.74988 0.0
H1017 H 0.31911 0.91127 0.81233 0.0
H1018 H 0.35192 0.97086 0.73714 0.0
H1019 H 0.28157 0.96829 0.80842 0.0
H1020 H 0.25484 0.96647 0.88806 0.0
H1021 H 0.2773 0.02215 0.96829 0.0
H1022 H 0.30433 0.02417 0.88954 0.0
H1023 H 0.32814 0.04772 0.5219 0.0
H1024 H 0.32809 0.01751 0.58801 0.0
H1025 H 0.32572 0.05654 0.74754 0.0
H1026 H 0.32472 0.08669 0.68151 0.0
H1027 H 0.30135 0.02685 0.76463 0.0
H1028 H 0.37066 0.03127 0.69621 0.0
H1029 H 0.39921 0.03352 0.62257 0.0
H1030 H 0.38196 0.97554 0.54533 0.0
H1031 H 0.3531 0.97314 0.61797 0.0
C1032 C 0.32899 0.94628 0.92475 0.0
C1033 C 0.32543 0.92707 0.89778 0.0
C1034 C 0.32887 0.96399 0.88899 0.0
C1035 C 0.32535 0.9627 0.82579 0.0
C1036 C 0.32189 0.94355 0.79869 0.0
C1037 C 0.32177 0.92588 0.83446 0.0
C1038 C 0.32559 0.98129 0.78752 0.0
C1039 C 0.34075 0.98305 0.74245 0.0
C1040 C 0.31145 0.99739 0.79642 0.0
C1041 C 0.29509 0.99627 0.84343 0.0
C1042 C 0.2809 0.98006 0.84332 0.0
C1043 C 0.26568 0.97901 0.88824 0.0
C1044 C 0.2644 0.99416 0.9333 0.0
C1045 C 0.27831 0.01042 0.93341 0.0
C1046 C 0.29357 0.01154 0.8886 0.0
C1047 C 0.32763 0.0498 0.57109 0.0
C1048 C 0.32645 0.06947 0.59668 0.0
C1049 C 0.32772 0.03256 0.60885 0.0
C1050 C 0.32728 0.03475 0.67286 0.0
C1051 C 0.32607 0.05445 0.69835 0.0
C1052 C 0.32552 0.07166 0.66059 0.0
C1053 C 0.32766 0.01651 0.71329 0.0
C1054 C 0.31263 0.01478 0.75906 0.0
C1055 C 0.34223 0.00061 0.70584 0.0
C1056 C 0.35956 0.00213 0.66201 0.0
C1057 C 0.37283 0.0191 0.66314 0.0
C1058 C 0.3891 0.02039 0.62165 0.0
C1059 C 0.39236 0.00473 0.57914 0.0
C1060 C 0.3794 0.9877 0.57814 0.0
C1061 C 0.36309 0.98637 0.61945 0.0
H1062 H 0.40497 0.00575 0.5471 0.0
H1063 H 0.25261 0.99332 0.96805 0.0
H1064 H 0.10654 0.4172 0.17648 0.0
H1065 H 0.10697 0.45457 0.18246 0.0
H1066 H 0.16811 0.45267 0.25719 0.0
H1067 H 0.16797 0.41529 0.25039 0.0
H1068 H 0.14209 0.47783 0.32239 0.0
H1069 H 0.16124 0.4667 0.11194 0.0
H1070 H 0.15709 0.45232 0.00827 0.0
H1071 H 0.0995 0.48348 0.98924 0.0
H1072 H 0.10317 0.49782 0.09318 0.0
H1073 H 0.16496 0.58279 0.30603 0.0
H1074 H 0.16558 0.54581 0.29215 0.0
H1075 H 0.1077 0.54863 0.19712 0.0
H1076 H 0.10764 0.58586 0.20698 0.0
H1077 H 0.13185 0.52275 0.14175 0.0
H1078 H 0.11152 0.53346 0.35002 0.0
H1079 H 0.11414 0.54744 0.45463 0.0
H1080 H 0.17171 0.51671 0.47946 0.0
H1081 H 0.16957 0.50277 0.37465 0.0
C1082 C 0.1202 0.42474 0.19338 0.0
C1083 C 0.13724 0.41328 0.21291 0.0
C1084 C 0.12038 0.44607 0.19693 0.0
C1085 C 0.13763 0.45633 0.21987 0.0
C1086 C 0.15465 0.44499 0.23947 0.0
C1087 C 0.1545 0.42365 0.23579 0.0
C1088 C 0.13772 0.4789 0.22476 0.0
C1089 C 0.14015 0.4877 0.28284 0.0
C1090 C 0.13454 0.49164 0.1733 0.0
C1091 C 0.1324 0.48318 0.11057 0.0
C1092 C 0.14762 0.47036 0.08583 0.0
C1093 C 0.14537 0.46224 0.02699 0.0
C1094 C 0.12802 0.46694 0.99225 0.0
C1095 C 0.11292 0.47983 0.01622 0.0
C1096 C 0.11509 0.48798 0.07507 0.0
C1097 C 0.1525 0.57564 0.28124 0.0
C1098 C 0.1362 0.58737 0.25785 0.0
C1099 C 0.15275 0.55442 0.27411 0.0
C1100 C 0.13648 0.5444 0.24471 0.0
C1101 C 0.12035 0.55604 0.22038 0.0
C1102 C 0.12022 0.57732 0.22672 0.0
C1103 C 0.1363 0.52177 0.2395 0.0
C1104 C 0.13381 0.51293 0.18138 0.0
C1105 C 0.1392 0.50896 0.29108 0.0
C1106 C 0.14047 0.51723 0.35428 0.0
C1107 C 0.12481 0.5298 0.37764 0.0
C1108 C 0.12619 0.5377 0.43699 0.0
C1109 C 0.1431 0.533 0.47361 0.0
C1110 C 0.15863 0.52035 0.45101 0.0
C1111 C 0.15733 0.51243 0.39166 0.0
H1112 H 0.14415 0.53913 0.51955 0.0
H1113 H 0.1263 0.46063 0.94671 0.0
H1114 H 0.58593 0.14007 0.54783 0.0
H1115 H 0.5487 0.14044 0.55817 0.0
H1116 H 0.5425 0.14524 0.36205 0.0
H1117 H 0.57976 0.14584 0.35147 0.0
H1118 H 0.51586 0.16982 0.41822 0.0
H1119 H 0.53593 0.09943 0.43523 0.0
H1120 H 0.55541 0.07014 0.47631 0.0
H1121 H 0.53026 0.08107 0.65504 0.0
H1122 H 0.51084 0.11063 0.61518 0.0
H1123 H 0.41139 0.13775 0.40131 0.0
H1124 H 0.44859 0.14031 0.38983 0.0
H1125 H 0.45554 0.13959 0.58619 0.0
H1126 H 0.41841 0.13742 0.59816 0.0
H1127 H 0.48165 0.11293 0.52881 0.0
H1128 H 0.46125 0.18342 0.50986 0.0
H1129 H 0.4416 0.21229 0.46694 0.0
H1130 H 0.46709 0.20047 0.28915 0.0
H1131 H 0.48669 0.17132 0.33086 0.0
C1132 C 0.57667 0.14149 0.50693 0.0
C1133 C 0.58583 0.14277 0.44878 0.0
C1134 C 0.55538 0.14149 0.51287 0.0
C1135 C 0.54284 0.14251 0.46078 0.0
C1136 C 0.5519 0.1443 0.40281 0.0
C1137 C 0.5732 0.14442 0.39682 0.0
C1138 C 0.52025 0.14143 0.46673 0.0
C1139 C 0.50835 0.15725 0.4417 0.0
C1140 C 0.51051 0.12519 0.49829 0.0
C1141 C 0.52209 0.10736 0.52233 0.0
C1142 C 0.53467 0.09568 0.48339 0.0
C1143 C 0.54568 0.07902 0.50644 0.0
C1144 C 0.54411 0.07378 0.56828 0.0
C1145 C 0.53148 0.08517 0.60717 0.0
C1146 C 0.52046 0.10187 0.58436 0.0
C1147 C 0.42082 0.13838 0.44205 0.0
C1148 C 0.41194 0.13731 0.50064 0.0
C1149 C 0.44206 0.13979 0.4354 0.0
C1150 C 0.45477 0.14023 0.4872 0.0
C1151 C 0.44597 0.13918 0.54567 0.0
C1152 C 0.42476 0.13784 0.55237 0.0
C1153 C 0.47729 0.14135 0.48055 0.0
C1154 C 0.48917 0.1255 0.50535 0.0
C1155 C 0.48698 0.15749 0.44849 0.0
C1156 C 0.47528 0.17506 0.42337 0.0
C1157 C 0.46254 0.18687 0.46151 0.0
C1158 C 0.45143 0.2033 0.43742 0.0
C1159 C 0.45305 0.20818 0.37532 0.0
C1160 C 0.46583 0.19666 0.33722 0.0
C1161 C 0.47695 0.18019 0.36107 0.0
H1162 H 0.44444 0.22091 0.35676 0.0
H1163 H 0.55265 0.06087 0.58604 0.0
H1164 H 0.87047 0.57885 0.6375 0.0
H1165 H 0.86904 0.54187 0.64838 0.0
H1166 H 0.85407 0.54852 0.83978 0.0
H1167 H 0.85706 0.58568 0.83047 0.0
H1168 H 0.87952 0.51852 0.82742 0.0
H1169 H 0.81713 0.53675 0.72785 0.0
H1170 H 0.79518 0.5532 0.65026 0.0
H1171 H 0.82408 0.51782 0.50875 0.0
H1172 H 0.84641 0.50135 0.58541 0.0
H1173 H 0.84242 0.41572 0.85547 0.0
H1174 H 0.8428 0.45322 0.84907 0.0
H1175 H 0.87259 0.44962 0.67312 0.0
H1176 H 0.87243 0.4121 0.67952 0.0
H1177 H 0.83811 0.47775 0.68094 0.0
H1178 H 0.90108 0.46038 0.78573 0.0
H1179 H 0.92134 0.4437 0.8669 0.0
H1180 H 0.88838 0.47753 0.00381 0.0
H1181 H 0.8677 0.49419 0.92342 0.0
C1182 C 0.86729 0.57255 0.68234 0.0
C1183 C 0.86393 0.58538 0.73318 0.0
C1184 C 0.86611 0.55132 0.6882 0.0
C1185 C 0.86099 0.54238 0.74457 0.0
C1186 C 0.85789 0.55506 0.79567 0.0
C1187 C 0.85941 0.57634 0.7901 0.0
C1188 C 0.85904 0.5198 0.75006 0.0
C1189 C 0.87019 0.50968 0.79595 0.0
C1190 C 0.84705 0.50816 0.70859 0.0
C1191 C 0.83356 0.51794 0.66235 0.0
C1192 C 0.8189 0.53257 0.68014 0.0
C1193 C 0.80638 0.54189 0.63633 0.0
C1194 C 0.80827 0.53659 0.5746 0.0
C1195 C 0.82265 0.52192 0.55658 0.0
C1196 C 0.83523 0.51258 0.60019 0.0
C1197 C 0.8489 0.42296 0.81527 0.0
C1198 C 0.85743 0.4111 0.76801 0.0
C1199 C 0.84919 0.44432 0.81181 0.0
C1200 C 0.85781 0.45409 0.76077 0.0
C1201 C 0.8659 0.44228 0.71287 0.0
C1202 C 0.86589 0.42093 0.7167 0.0
C1203 C 0.85868 0.47667 0.75776 0.0
C1204 C 0.84731 0.48672 0.71243 0.0
C1205 C 0.87017 0.48825 0.80029 0.0
C1206 C 0.8827 0.47836 0.8486 0.0
C1207 C 0.89803 0.46412 0.83317 0.0
C1208 C 0.90961 0.4547 0.87903 0.0
C1209 C 0.90611 0.45951 0.94049 0.0
C1210 C 0.89106 0.4738 0.95619 0.0
C1211 C 0.87941 0.48324 0.9105 0.0
H1212 H 0.9151 0.4522 0.97593 0.0
H1213 H 0.79856 0.54382 0.54076 0.0
H1214 H 0.58604 0.84025 0.94852 0.0
H1215 H 0.54849 0.84064 0.94204 0.0
H1216 H 0.54599 0.88482 0.08868 0.0
H1217 H 0.58355 0.88475 0.09465 0.0
H1218 H 0.51858 0.84847 0.09836 0.0
H1219 H 0.5384 0.90314 0.96055 0.0
H1220 H 0.55761 0.91765 0.87355 0.0
H1221 H 0.52991 0.87389 0.75237 0.0
H1222 H 0.51076 0.85892 0.8389 0.0
H1223 H 0.41365 0.87563 0.07941 0.0
H1224 H 0.45108 0.87536 0.08832 0.0
H1225 H 0.45564 0.84888 0.9075 0.0
H1226 H 0.4183 0.85032 0.89752 0.0
H1227 H 0.48272 0.87622 0.91612 0.0
H1228 H 0.4632 0.8208 0.04674 0.0
H1229 H 0.44467 0.80359 0.1306 0.0
H1230 H 0.47211 0.84442 0.26107 0.0
H1231 H 0.4906 0.86206 0.17787 0.0
C1232 C 0.57743 0.85001 0.97931 0.0
C1233 C 0.58756 0.86251 0.02198 0.0
C1234 C 0.55608 0.85025 0.9755 0.0
C1235 C 0.5446 0.86277 0.01488 0.0
C1236 C 0.55467 0.87508 0.05801 0.0
C1237 C 0.57603 0.87511 0.06111 0.0
C1238 C 0.52205 0.86309 0.01075 0.0
C1239 C 0.51063 0.85474 0.05898 0.0
C1240 C 0.51192 0.87069 0.95839 0.0
C1241 C 0.52332 0.87978 0.90631 0.0
C1242 C 0.53655 0.89649 0.91546 0.0
C1243 C 0.5474 0.90482 0.86621 0.0
C1244 C 0.54503 0.89666 0.8075 0.0
C1245 C 0.53176 0.88018 0.79789 0.0
C1246 C 0.52089 0.87178 0.847 0.0
C1247 C 0.42276 0.86973 0.04186 0.0
C1248 C 0.41331 0.86299 0.98786 0.0
C1249 C 0.44409 0.86944 0.04701 0.0
C1250 C 0.45623 0.86178 -0.00104 0.0
C1251 C 0.44665 0.85489 0.94516 0.0
C1252 C 0.42537 0.85564 0.93948 0.0
C1253 C 0.47893 0.86148 0.00384 0.0
C1254 C 0.49049 0.86986 0.95569 0.0
C1255 C 0.4892 0.85348 0.0558 0.0
C1256 C 0.47813 0.84288 0.10598 0.0
C1257 C 0.46517 0.82621 0.09326 0.0
C1258 C 0.45469 0.81635 0.14068 0.0
C1259 C 0.45717 0.82294 0.2011 0.0
C1260 C 0.47018 0.83935 0.21424 0.0
C1261 C 0.48068 0.84927 0.16698 0.0
H1262 H 0.44905 0.81529 0.23775 0.0
H1263 H 0.55344 0.90313 0.76943 0.0
loop_
_geom_bond_atom_site_label_1
_geom_bond_atom_site_label_2
_geom_bond_distance
_geom_bond_site_symmetry_2
_ccdc_geom_bond_type
Co0 N4 2.148 . S
Co0 N10 2.128 . S
Co0 N20 2.194 . S
Co0 O25 2.351 . S
Co0 O26 2.155 . S
Co0 O27 2.096 . S
C1 N4 1.301 . S
C1 N5 1.328 . S
C1 H6 0.930 . S
C2 C3 1.333 . S
C2 N4 1.317 . S
C2 H7 0.930 . S
C3 C2 1.333 . S
C3 N5 1.350 . S
C3 H29 0.931 . S
N4 Co0 2.148 . S
N4 C1 1.301 . S
N4 C2 1.317 . S
N5 C1 1.328 . S
N5 C3 1.350 . S
H6 C1 0.930 . S
H7 C2 0.930 . S
C8 O9 1.224 . S
C8 O27 1.247 . S
O9 C8 1.224 . S
N10 Co0 2.128 . S
N10 C11 1.355 . S
N10 C13 1.311 . S
C11 N10 1.355 . S
C11 C12 1.363 . S
C11 H23 0.929 . S
C12 C11 1.363 . S
C12 N14 1.375 . S
C12 H30 0.931 . S
C13 N10 1.311 . S
C13 N14 1.347 . S
C13 H24 0.929 . S
N14 C12 1.375 . S
N14 C13 1.347 . S
C15 C18 1.365 . S
C15 N20 1.328 . S
C15 H21 0.929 . S
C16 C17 1.362 . S
C16 C19 1.378 . S
C16 H31 0.929 . S
C17 C16 1.362 . S
C17 C18 1.366 . S
C18 C15 1.365 . S
C18 C17 1.366 . S
C18 H32 0.930 . S
C19 C16 1.378 . S
C19 N20 1.315 . S
C19 H22 0.930 . S
N20 Co0 2.194 . S
N20 C15 1.328 . S
N20 C19 1.315 . S
H21 C15 0.929 . S
H22 C19 0.930 . S
H23 C11 0.929 . S
H24 C13 0.929 . S
O25 Co0 2.351 . S
O25 C28 1.244 . S
O26 Co0 2.155 . S
O26 C28 1.240 . S
O27 Co0 2.096 . S
O27 C8 1.247 . S
C28 O25 1.244 . S
C28 O26 1.240 . S
H29 C3 0.931 . S
H30 C12 0.931 . S
H31 C16 0.929 . S
H32 C18 0.930 . S
Co33 N37 2.148 . S
Co33 N43 2.128 . S
Co33 N53 2.194 . S
Co33 O58 2.351 . S
Co33 O59 2.155 . S
Co33 O60 2.096 . S
C34 N37 1.301 . S
C34 N38 1.328 . S
C34 H39 0.930 . S
C35 C36 1.333 . S
C35 N37 1.317 . S
C35 H40 0.930 . S
C36 C35 1.333 . S
C36 N38 1.350 . S
C36 H62 0.931 . S
N37 Co33 2.148 . S
N37 C34 1.301 . S
N37 C35 1.317 . S
N38 C34 1.328 . S
N38 C36 1.350 . S
H39 C34 0.930 . S
H40 C35 0.930 . S
C41 O42 1.224 . S
C41 O60 1.247 . S
O42 C41 1.224 . S
N43 Co33 2.128 . S
N43 C44 1.355 . S
N43 C46 1.311 . S
C44 N43 1.355 . S
C44 C45 1.363 . S
C44 H56 0.929 . S
C45 C44 1.363 . S
C45 N47 1.375 . S
C45 H63 0.931 . S
C46 N43 1.311 . S
C46 N47 1.347 . S
C46 H57 0.929 . S
N47 C45 1.375 . S
N47 C46 1.347 . S
C48 C51 1.365 . S
C48 N53 1.328 . S
C48 H54 0.929 . S
C49 C50 1.362 . S
C49 C52 1.378 . S
C49 H64 0.929 . S
C50 C49 1.362 . S
C50 C51 1.366 . S
C51 C48 1.365 . S
C51 C50 1.366 . S
C51 H65 0.930 . S
C52 C49 1.378 . S
C52 N53 1.315 . S
C52 H55 0.930 . S
N53 Co33 2.194 . S
N53 C48 1.328 . S
N53 C52 1.315 . S
H54 C48 0.929 . S
H55 C52 0.930 . S
H56 C44 0.929 . S
H57 C46 0.929 . S
O58 Co33 2.351 . S
O58 C61 1.244 . S
O59 Co33 2.155 . S
O59 C61 1.240 . S
O60 Co33 2.096 . S
O60 C41 1.247 . S
C61 O58 1.244 . S
C61 O59 1.240 . S
H62 C36 0.931 . S
H63 C45 0.931 . S
H64 C49 0.929 . S
H65 C51 0.930 . S
Co66 N70 2.148 . S
Co66 N76 2.128 . S
Co66 N86 2.194 . S
Co66 O91 2.351 . S
Co66 O92 2.155 . S
Co66 O93 2.096 . S
C67 N70 1.301 . S
C67 N71 1.328 . S
C67 H72 0.930 . S
C68 C69 1.333 . S
C68 N70 1.317 . S
C68 H73 0.930 . S
C69 C68 1.333 . S
C69 N71 1.350 . S
C69 H95 0.931 . S
N70 Co66 2.148 . S
N70 C67 1.301 . S
N70 C68 1.317 . S
N71 C67 1.328 . S
N71 C69 1.350 . S
H72 C67 0.930 . S
H73 C68 0.930 . S
C74 O75 1.224 . S
C74 O93 1.247 . S
O75 C74 1.224 . S
N76 Co66 2.128 . S
N76 C77 1.355 . S
N76 C79 1.311 . S
C77 N76 1.355 . S
C77 C78 1.363 . S
C77 H89 0.929 . S
C78 C77 1.363 . S
C78 N80 1.375 . S
C78 H96 0.931 . S
C79 N76 1.311 . S
C79 N80 1.347 . S
C79 H90 0.929 . S
N80 C78 1.375 . S
N80 C79 1.347 . S
C81 C84 1.365 . S
C81 N86 1.328 . S
C81 H87 0.929 . S
C82 C83 1.362 . S
C82 C85 1.378 . S
C82 H97 0.929 . S
C83 C82 1.362 . S
C83 C84 1.366 . S
C84 C81 1.365 . S
C84 C83 1.366 . S
C84 H98 0.930 . S
C85 C82 1.378 . S
C85 N86 1.315 . S
C85 H88 0.930 . S
N86 Co66 2.194 . S
N86 C81 1.328 . S
N86 C85 1.315 . S
H87 C81 0.929 . S
H88 C85 0.930 . S
H89 C77 0.929 . S
H90 C79 0.929 . S
O91 Co66 2.351 . S
O91 C94 1.244 . S
O92 Co66 2.155 . S
O92 C94 1.240 . S
O93 Co66 2.096 . S
O93 C74 1.247 . S
C94 O91 1.244 . S
C94 O92 1.240 . S
H95 C69 0.931 . S
H96 C78 0.931 . S
H97 C82 0.929 . S
H98 C84 0.930 . S
Co99 N103 2.148 1_556 S
Co99 N109 2.128 . S
Co99 N119 2.194 . S
Co99 O124 2.351 . S
Co99 O125 2.155 . S
Co99 O126 2.096 . S
C100 N103 1.301 . S
C100 N104 1.328 . S
C100 H105 0.930 . S
C101 C102 1.333 . S
C101 N103 1.317 . S
C101 H106 0.930 . S
C102 C101 1.333 . S
C102 N104 1.350 . S
C102 H128 0.931 . S
N103 Co99 2.148 1_554 S
N103 C100 1.301 . S
N103 C101 1.317 . S
N104 C100 1.328 . S
N104 C102 1.350 . S
H105 C100 0.930 . S
H106 C101 0.930 . S
C107 O108 1.224 . S
C107 O126 1.247 . S
O108 C107 1.224 . S
N109 Co99 2.128 . S
N109 C110 1.355 . S
N109 C112 1.311 . S
C110 N109 1.355 . S
C110 C111 1.363 . S
C110 H122 0.929 . S
C111 C110 1.363 . S
C111 N113 1.375 . S
C111 H129 0.931 . S
C112 N109 1.311 . S
C112 N113 1.347 . S
C112 H123 0.929 . S
N113 C111 1.375 . S
N113 C112 1.347 . S
C114 C117 1.365 . S
C114 N119 1.328 . S
C114 H120 0.929 1_556 S
C115 C116 1.362 . S
C115 C118 1.378 . S
C115 H130 0.929 . S
C116 C115 1.362 . S
C116 C117 1.366 . S
C117 C114 1.365 . S
C117 C116 1.366 . S
C117 H131 0.930 1_556 S
C118 C115 1.378 . S
C118 N119 1.315 . S
C118 H121 0.930 . S
N119 Co99 2.194 . S
N119 C114 1.328 . S
N119 C118 1.315 . S
H120 C114 0.929 1_554 S
H121 C118 0.930 . S
H122 C110 0.929 . S
H123 C112 0.929 . S
O124 Co99 2.351 . S
O124 C127 1.244 . S
O125 Co99 2.155 . S
O125 C127 1.240 . S
O126 Co99 2.096 . S
O126 C107 1.247 . S
C127 O124 1.244 . S
C127 O125 1.240 . S
H128 C102 0.931 . S
H129 C111 0.931 . S
H130 C115 0.929 . S
H131 C117 0.930 1_554 S
Co132 N136 2.148 . S
Co132 N142 2.128 . S
Co132 N152 2.194 . S
Co132 O157 2.351 . S
Co132 O158 2.155 . S
Co132 O159 2.096 . S
C133 N136 1.301 . S
C133 N137 1.328 . S
C133 H138 0.930 . S
C134 C135 1.333 . S
C134 N136 1.317 . S
C134 H139 0.930 . S
C135 C134 1.333 . S
C135 N137 1.350 . S
C135 H161 0.931 . S
N136 Co132 2.148 . S
N136 C133 1.301 . S
N136 C134 1.317 . S
N137 C133 1.328 . S
N137 C135 1.350 . S
H138 C133 0.930 . S
H139 C134 0.930 . S
C140 O141 1.224 . S
C140 O159 1.247 . S
O141 C140 1.224 . S
N142 Co132 2.128 . S
N142 C143 1.355 . S
N142 C145 1.311 . S
C143 N142 1.355 . S
C143 C144 1.363 . S
C143 H155 0.929 . S
C144 C143 1.363 . S
C144 N146 1.375 . S
C144 H162 0.931 . S
C145 N142 1.311 . S
C145 N146 1.347 . S
C145 H156 0.929 . S
N146 C144 1.375 . S
N146 C145 1.347 . S
C147 C150 1.365 . S
C147 N152 1.328 . S
C147 H153 0.929 . S
C148 C149 1.362 . S
C148 C151 1.378 . S
C148 H163 0.929 . S
C149 C148 1.362 . S
C149 C150 1.366 . S
C150 C147 1.365 . S
C150 C149 1.366 . S
C150 H164 0.930 . S
C151 C148 1.378 . S
C151 N152 1.315 . S
C151 H154 0.930 . S
N152 Co132 2.194 . S
N152 C147 1.328 . S
N152 C151 1.315 . S
H153 C147 0.929 . S
H154 C151 0.930 . S
H155 C143 0.929 . S
H156 C145 0.929 . S
O157 Co132 2.351 . S
O157 C160 1.244 . S
O158 Co132 2.155 . S
O158 C160 1.240 . S
O159 Co132 2.096 . S
O159 C140 1.247 . S
C160 O157 1.244 . S
C160 O158 1.240 . S
H161 C135 0.931 . S
H162 C144 0.931 . S
H163 C148 0.929 . S
H164 C150 0.930 . S
Co165 N169 2.148 . S
Co165 N175 2.128 . S
Co165 N185 2.194 . S
Co165 O190 2.351 . S
Co165 O191 2.155 . S
Co165 O192 2.096 . S
C166 N169 1.301 . S
C166 N170 1.328 . S
C166 H171 0.930 . S
C167 C168 1.333 . S
C167 N169 1.317 . S
C167 H172 0.930 . S
C168 C167 1.333 . S
C168 N170 1.350 . S
C168 H194 0.931 . S
N169 Co165 2.148 . S
N169 C166 1.301 . S
N169 C167 1.317 . S
N170 C166 1.328 . S
N170 C168 1.350 . S
H171 C166 0.930 . S
H172 C167 0.930 . S
C173 O174 1.224 . S
C173 O192 1.247 . S
O174 C173 1.224 . S
N175 Co165 2.128 . S
N175 C176 1.355 . S
N175 C178 1.311 . S
C176 N175 1.355 . S
C176 C177 1.363 . S
C176 H188 0.929 . S
C177 C176 1.363 . S
C177 N179 1.375 . S
C177 H195 0.931 . S
C178 N175 1.311 . S
C178 N179 1.347 . S
C178 H189 0.929 . S
N179 C177 1.375 . S
N179 C178 1.347 . S
C180 C183 1.365 . S
C180 N185 1.328 . S
C180 H186 0.929 . S
C181 C182 1.362 . S
C181 C184 1.378 . S
C181 H196 0.929 . S
C182 C181 1.362 . S
C182 C183 1.366 . S
C183 C180 1.365 . S
C183 C182 1.366 . S
C183 H197 0.930 . S
C184 C181 1.378 . S
C184 N185 1.315 . S
C184 H187 0.930 . S
N185 Co165 2.194 . S
N185 C180 1.328 . S
N185 C184 1.315 . S
H186 C180 0.929 . S
H187 C184 0.930 . S
H188 C176 0.929 . S
H189 C178 0.929 . S
O190 Co165 2.351 . S
O190 C193 1.244 . S
O191 Co165 2.155 . S
O191 C193 1.240 . S
O192 Co165 2.096 . S
O192 C173 1.247 . S
C193 O190 1.244 . S
C193 O191 1.240 . S
H194 C168 0.931 . S
H195 C177 0.931 . S
H196 C181 0.929 . S
H197 C183 0.930 . S
Co198 N202 2.148 . S
Co198 N208 2.128 . S
Co198 N218 2.194 . S
Co198 O223 2.351 . S
Co198 O224 2.155 . S
Co198 O225 2.096 . S
C199 N202 1.301 . S
C199 N203 1.328 . S
C199 H204 0.930 . S
C200 C201 1.333 . S
C200 N202 1.317 . S
C200 H205 0.930 . S
C201 C200 1.333 . S
C201 N203 1.350 . S
C201 H227 0.931 . S
N202 Co198 2.148 . S
N202 C199 1.301 . S
N202 C200 1.317 . S
N203 C199 1.328 . S
N203 C201 1.350 . S
H204 C199 0.930 . S
H205 C200 0.930 . S
C206 O207 1.224 . S
C206 O225 1.247 . S
O207 C206 1.224 . S
N208 Co198 2.128 . S
N208 C209 1.355 . S
N208 C211 1.311 . S
C209 N208 1.355 . S
C209 C210 1.363 . S
C209 H221 0.929 . S
C210 C209 1.363 . S
C210 N212 1.375 . S
C210 H228 0.931 . S
C211 N208 1.311 . S
C211 N212 1.347 . S
C211 H222 0.929 . S
N212 C210 1.375 . S
N212 C211 1.347 . S
C213 C216 1.365 . S
C213 N218 1.328 . S
C213 H219 0.929 . S
C214 C215 1.362 . S
C214 C217 1.378 . S
C214 H229 0.929 . S
C215 C214 1.362 . S
C215 C216 1.366 . S
C216 C213 1.365 . S
C216 C215 1.366 . S
C216 H230 0.930 . S
C217 C214 1.378 . S
C217 N218 1.315 . S
C217 H220 0.930 . S
N218 Co198 2.194 . S
N218 C213 1.328 . S
N218 C217 1.315 . S
H219 C213 0.929 . S
H220 C217 0.930 . S
H221 C209 0.929 . S
H222 C211 0.929 . S
O223 Co198 2.351 . S
O223 C226 1.244 . S
O224 Co198 2.155 . S
O224 C226 1.240 . S
O225 Co198 2.096 . S
O225 C206 1.247 . S
C226 O223 1.244 . S
C226 O224 1.240 . S
H227 C201 0.931 . S
H228 C210 0.931 . S
H229 C214 0.929 . S
H230 C216 0.930 . S
Co231 N235 2.148 1_554 S
Co231 N241 2.128 . S
Co231 N251 2.194 . S
Co231 O256 2.351 . S
Co231 O257 2.155 . S
Co231 O258 2.096 . S
C232 N235 1.301 . S
C232 N236 1.328 . S
C232 H237 0.930 . S
C233 C234 1.333 . S
C233 N235 1.317 . S
C233 H238 0.930 . S
C234 C233 1.333 . S
C234 N236 1.350 . S
C234 H260 0.931 . S
N235 Co231 2.148 1_556 S
N235 C232 1.301 . S
N235 C233 1.317 . S
N236 C232 1.328 . S
N236 C234 1.350 . S
H237 C232 0.930 . S
H238 C233 0.930 . S
C239 O240 1.224 . S
C239 O258 1.247 . S
O240 C239 1.224 . S
N241 Co231 2.128 . S
N241 C242 1.355 . S
N241 C244 1.311 . S
C242 N241 1.355 . S
C242 C243 1.363 . S
C242 H254 0.929 . S
C243 C242 1.363 . S
C243 N245 1.375 . S
C243 H261 0.931 . S
C244 N241 1.311 . S
C244 N245 1.347 . S
C244 H255 0.929 . S
N245 C243 1.375 . S
N245 C244 1.347 . S
C246 C249 1.365 . S
C246 N251 1.328 . S
C246 H252 0.929 1_554 S
C247 C248 1.362 . S
C247 C250 1.378 . S
C247 H262 0.929 . S
C248 C247 1.362 . S
C248 C249 1.366 . S
C249 C246 1.365 . S
C249 C248 1.366 . S
C249 H263 0.930 1_554 S
C250 C247 1.378 . S
C250 N251 1.315 . S
C250 H253 0.930 . S
N251 Co231 2.194 . S
N251 C246 1.328 . S
N251 C250 1.315 . S
H252 C246 0.929 1_556 S
H253 C250 0.930 . S
H254 C242 0.929 . S
H255 C244 0.929 . S
O256 Co231 2.351 . S
O256 C259 1.244 . S
O257 Co231 2.155 . S
O257 C259 1.240 . S
O258 Co231 2.096 . S
O258 C239 1.247 . S
C259 O256 1.244 . S
C259 O257 1.240 . S
H260 C234 0.931 . S
H261 C243 0.931 . S
H262 C247 0.929 . S
H263 C249 0.930 1_556 S
H264 C282 0.951 . S
H265 C284 0.951 . S
H266 C286 0.950 . S
H267 C287 0.950 . S
H268 C289 0.950 . S
H269 C292 0.950 . S
H270 C293 0.950 . S
H271 C295 0.950 . S
H272 C296 0.950 . S
H273 C297 0.951 . S
H274 C299 0.951 . S
H275 C301 0.950 . S
H276 C302 0.950 . S
H277 C304 0.950 . S
H278 C307 0.950 . S
H279 C308 0.950 . S
H280 C310 0.950 . S
H281 C311 0.950 . S
C282 H264 0.951 . S
C282 C283 1.366 . S
C282 C284 1.388 . S
C283 C282 1.366 . S
C283 C287 1.385 . S
C284 H265 0.951 . S
C284 C282 1.388 . S
C284 C285 1.366 . S
C285 C284 1.366 . S
C285 C286 1.414 . S
C285 C288 1.499 . S
C286 H266 0.950 . S
C286 C285 1.414 . S
C286 C287 1.374 . S
C287 H267 0.950 . S
C287 C283 1.385 . S
C287 C286 1.374 . S
C288 C285 1.499 . S
C288 C289 1.373 . S
C288 C290 1.389 . S
C289 H268 0.950 . S
C289 C288 1.373 . S
C289 C305 1.377 . S
C290 C288 1.389 . S
C290 C291 1.524 . S
C290 C304 1.377 . S
C291 C290 1.524 . S
C291 C292 1.397 . S
C291 C296 1.363 . S
C292 H269 0.950 . S
C292 C291 1.397 . S
C292 C293 1.334 . S
C293 H270 0.950 . S
C293 C292 1.334 . S
C293 C294 1.287 . S
C294 C293 1.287 . S
C294 C295 1.524 . S
C294 H313 0.913 . S
C295 H271 0.950 . S
C295 C294 1.524 . S
C295 C296 1.415 . S
C296 H272 0.950 . S
C296 C291 1.363 . S
C296 C295 1.415 . S
C297 H273 0.951 . S
C297 C298 1.366 . S
C297 C299 1.388 . S
C298 C297 1.366 . S
C298 C302 1.385 . S
C299 H274 0.951 . S
C299 C297 1.388 . S
C299 C300 1.366 . S
C300 C299 1.366 . S
C300 C301 1.414 . S
C300 C303 1.499 . S
C301 H275 0.950 . S
C301 C300 1.414 . S
C301 C302 1.374 . S
C302 H276 0.950 . S
C302 C298 1.385 . S
C302 C301 1.374 . S
C303 C300 1.499 . S
C303 C304 1.373 . S
C303 C305 1.389 . S
C304 H277 0.950 . S
C304 C290 1.377 . S
C304 C303 1.373 . S
C305 C289 1.377 . S
C305 C303 1.389 . S
C305 C306 1.524 . S
C306 C305 1.524 . S
C306 C307 1.397 . S
C306 C311 1.363 . S
C307 H278 0.950 . S
C307 C306 1.397 . S
C307 C308 1.334 . S
C308 H279 0.950 . S
C308 C307 1.334 . S
C308 C309 1.287 . S
C309 C308 1.287 . S
C309 C310 1.524 . S
C309 H312 0.999 . S
C310 H280 0.950 . S
C310 C309 1.524 . S
C310 C311 1.415 . S
C311 H281 0.950 . S
C311 C306 1.363 . S
C311 C310 1.415 . S
H312 C309 0.999 . S
H313 C294 0.913 . S
H314 C332 0.951 . S
H315 C334 0.951 . S
H316 C336 0.950 . S
H317 C337 0.950 . S
H318 C339 0.950 . S
H319 C342 0.950 . S
H320 C343 0.950 . S
H321 C345 0.950 . S
H322 C346 0.950 . S
H323 C347 0.951 . S
H324 C349 0.951 . S
H325 C351 0.950 . S
H326 C352 0.950 . S
H327 C354 0.950 . S
H328 C357 0.950 . S
H329 C358 0.950 . S
H330 C360 0.950 . S
H331 C361 0.950 . S
C332 H314 0.951 . S
C332 C333 1.366 . S
C332 C334 1.388 . S
C333 C332 1.366 . S
C333 C337 1.385 . S
C334 H315 0.951 . S
C334 C332 1.388 . S
C334 C335 1.366 . S
C335 C334 1.366 . S
C335 C336 1.414 . S
C335 C338 1.499 . S
C336 H316 0.950 . S
C336 C335 1.414 . S
C336 C337 1.374 . S
C337 H317 0.950 . S
C337 C333 1.385 . S
C337 C336 1.374 . S
C338 C335 1.499 . S
C338 C339 1.373 . S
C338 C340 1.389 . S
C339 H318 0.950 . S
C339 C338 1.373 . S
C339 C355 1.377 . S
C340 C338 1.389 . S
C340 C341 1.524 . S
C340 C354 1.377 . S
C341 C340 1.524 . S
C341 C342 1.397 . S
C341 C346 1.363 . S
C342 H319 0.950 . S
C342 C341 1.397 . S
C342 C343 1.334 . S
C343 H320 0.950 . S
C343 C342 1.334 . S
C343 C344 1.287 . S
C344 C343 1.287 . S
C344 C345 1.524 . S
C344 H363 0.913 . S
C345 H321 0.950 . S
C345 C344 1.524 . S
C345 C346 1.415 . S
C346 H322 0.950 . S
C346 C341 1.363 . S
C346 C345 1.415 . S
C347 H323 0.951 . S
C347 C348 1.366 . S
C347 C349 1.388 . S
C348 C347 1.366 . S
C348 C352 1.385 . S
C349 H324 0.951 . S
C349 C347 1.388 . S
C349 C350 1.366 . S
C350 C349 1.366 . S
C350 C351 1.414 . S
C350 C353 1.499 . S
C351 H325 0.950 . S
C351 C350 1.414 . S
C351 C352 1.374 . S
C352 H326 0.950 . S
C352 C348 1.385 . S
C352 C351 1.374 . S
C353 C350 1.499 . S
C353 C354 1.373 . S
C353 C355 1.389 . S
C354 H327 0.950 . S
C354 C340 1.377 . S
C354 C353 1.373 . S
C355 C339 1.377 . S
C355 C353 1.389 . S
C355 C356 1.524 . S
C356 C355 1.524 . S
C356 C357 1.397 . S
C356 C361 1.363 . S
C357 H328 0.950 . S
C357 C356 1.397 . S
C357 C358 1.334 . S
C358 H329 0.950 . S
C358 C357 1.334 . S
C358 C359 1.287 . S
C359 C358 1.287 . S
C359 C360 1.524 . S
C359 H362 0.999 . S
C360 H330 0.950 . S
C360 C359 1.524 . S
C360 C361 1.415 . S
C361 H331 0.950 . S
C361 C356 1.363 . S
C361 C360 1.415 . S
H362 C359 0.999 . S
H363 C344 0.913 . S
H364 C382 0.951 . S
H365 C384 0.951 . S
H366 C386 0.950 . S
H367 C387 0.950 . S
H368 C389 0.950 . S
H369 C392 0.950 . S
H370 C393 0.950 . S
H371 C395 0.950 . S
H372 C396 0.950 . S
H373 C397 0.951 . S
H374 C399 0.951 . S
H375 C401 0.950 . S
H376 C402 0.950 . S
H377 C404 0.950 . S
H378 C407 0.950 . S
H379 C408 0.950 . S
H380 C410 0.950 . S
H381 C411 0.950 . S
C382 H364 0.951 . S
C382 C383 1.366 . S
C382 C384 1.388 . S
C383 C382 1.366 . S
C383 C387 1.385 . S
C384 H365 0.951 . S
C384 C382 1.388 . S
C384 C385 1.366 . S
C385 C384 1.366 . S
C385 C386 1.414 . S
C385 C388 1.499 . S
C386 H366 0.950 . S
C386 C385 1.414 . S
C386 C387 1.374 . S
C387 H367 0.950 . S
C387 C383 1.385 . S
C387 C386 1.374 . S
C388 C385 1.499 . S
C388 C389 1.373 . S
C388 C390 1.389 . S
C389 H368 0.950 . S
C389 C388 1.373 . S
C389 C405 1.377 . S
C390 C388 1.389 . S
C390 C391 1.524 . S
C390 C404 1.377 . S
C391 C390 1.524 . S
C391 C392 1.397 . S
C391 C396 1.363 . S
C392 H369 0.950 . S
C392 C391 1.397 . S
C392 C393 1.334 . S
C393 H370 0.950 . S
C393 C392 1.334 . S
C393 C394 1.287 . S
C394 C393 1.287 . S
C394 C395 1.524 . S
C394 H413 0.913 . S
C395 H371 0.950 . S
C395 C394 1.524 . S
C395 C396 1.415 . S
C396 H372 0.950 . S
C396 C391 1.363 . S
C396 C395 1.415 . S
C397 H373 0.951 . S
C397 C398 1.366 . S
C397 C399 1.388 1_554 S
C398 C397 1.366 . S
C398 C402 1.385 1_554 S
C399 H374 0.951 . S
C399 C397 1.388 1_556 S
C399 C400 1.366 . S
C400 C399 1.366 . S
C400 C401 1.414 . S
C400 C403 1.499 . S
C401 H375 0.950 . S
C401 C400 1.414 . S
C401 C402 1.374 . S
C402 H376 0.950 . S
C402 C398 1.385 1_556 S
C402 C401 1.374 . S
C403 C400 1.499 . S
C403 C404 1.373 . S
C403 C405 1.389 . S
C404 H377 0.950 . S
C404 C390 1.377 . S
C404 C403 1.373 . S
C405 C389 1.377 . S
C405 C403 1.389 . S
C405 C406 1.524 . S
C406 C405 1.524 . S
C406 C407 1.397 . S
C406 C411 1.363 . S
C407 H378 0.950 . S
C407 C406 1.397 . S
C407 C408 1.334 . S
C408 H379 0.950 . S
C408 C407 1.334 . S
C408 C409 1.287 . S
C409 C408 1.287 . S
C409 C410 1.524 . S
C409 H412 0.999 . S
C410 H380 0.950 . S
C410 C409 1.524 . S
C410 C411 1.415 . S
C411 H381 0.950 . S
C411 C406 1.363 . S
C411 C410 1.415 . S
H412 C409 0.999 . S
H413 C394 0.913 . S
H414 C432 0.951 . S
H415 C434 0.951 . S
H416 C436 0.950 . S
H417 C437 0.950 . S
H418 C439 0.950 . S
H419 C442 0.950 . S
H420 C443 0.950 . S
H421 C445 0.950 . S
H422 C446 0.950 . S
H423 C447 0.953 . S
H424 C449 0.951 . S
H425 C451 0.950 . S
H426 C452 0.950 . S
H427 C454 0.950 . S
H428 C457 0.950 . S
H429 C458 0.950 . S
H430 C460 0.950 . S
H431 C461 0.950 . S
C432 H414 0.951 . S
C432 C433 1.366 . S
C432 C434 1.388 . S
C433 C432 1.366 . S
C433 C437 1.385 . S
C434 H415 0.951 . S
C434 C432 1.388 . S
C434 C435 1.366 . S
C435 C434 1.366 . S
C435 C436 1.414 . S
C435 C438 1.499 . S
C436 H416 0.950 . S
C436 C435 1.414 . S
C436 C437 1.374 . S
C437 H417 0.950 . S
C437 C433 1.385 . S
C437 C436 1.374 . S
C438 C435 1.499 . S
C438 C439 1.373 . S
C438 C440 1.389 . S
C439 H418 0.950 . S
C439 C438 1.373 . S
C439 C455 1.377 . S
C440 C438 1.389 . S
C440 C441 1.524 . S
C440 C454 1.377 . S
C441 C440 1.524 . S
C441 C442 1.397 . S
C441 C446 1.363 . S
C442 H419 0.950 . S
C442 C441 1.397 . S
C442 C443 1.334 . S
C443 H420 0.950 . S
C443 C442 1.334 . S
C443 C444 1.287 . S
C444 C443 1.287 . S
C444 C445 1.524 . S
C444 H463 0.913 . S
C445 H421 0.950 . S
C445 C444 1.524 . S
C445 C446 1.415 . S
C446 H422 0.950 . S
C446 C441 1.363 . S
C446 C445 1.415 . S
C447 H423 0.953 . S
C447 C448 1.366 . S
C447 C449 1.385 1_556 S
C448 C447 1.366 . S
C448 C452 1.385 1_556 S
C449 H424 0.951 . S
C449 C447 1.385 1_554 S
C449 C450 1.366 . S
C450 C449 1.366 . S
C450 C451 1.414 . S
C450 C453 1.499 . S
C451 H425 0.950 . S
C451 C450 1.414 . S
C451 C452 1.374 . S
C452 H426 0.950 . S
C452 C448 1.385 1_554 S
C452 C451 1.374 . S
C453 C450 1.499 . S
C453 C454 1.373 . S
C453 C455 1.389 . S
C454 H427 0.950 . S
C454 C440 1.377 . S
C454 C453 1.373 . S
C455 C439 1.377 . S
C455 C453 1.389 . S
C455 C456 1.524 . S
C456 C455 1.524 . S
C456 C457 1.397 . S
C456 C461 1.363 . S
C457 H428 0.950 . S
C457 C456 1.397 . S
C457 C458 1.334 . S
C458 H429 0.950 . S
C458 C457 1.334 . S
C458 C459 1.287 . S
C459 C458 1.287 . S
C459 C460 1.524 . S
C459 H462 0.999 . S
C460 H430 0.950 . S
C460 C459 1.524 . S
C460 C461 1.415 . S
C461 H431 0.950 . S
C461 C456 1.363 . S
C461 C460 1.415 . S
H462 C459 0.999 . S
H463 C444 0.913 . S
H464 C482 0.951 . S
H465 C484 0.951 . S
H466 C486 0.950 . S
H467 C487 0.950 . S
H468 C489 0.950 . S
H469 C492 0.950 . S
H470 C493 0.950 . S
H471 C495 0.950 . S
H472 C496 0.950 . S
H473 C497 0.951 . S
H474 C499 0.951 . S
H475 C501 0.950 . S
H476 C502 0.950 . S
H477 C504 0.950 . S
H478 C507 0.950 . S
H479 C508 0.950 . S
H480 C510 0.950 . S
H481 C511 0.950 . S
C482 H464 0.951 . S
C482 C483 1.366 . S
C482 C484 1.388 . S
C483 C482 1.366 . S
C483 C487 1.385 . S
C484 H465 0.951 . S
C484 C482 1.388 . S
C484 C485 1.366 . S
C485 C484 1.366 . S
C485 C486 1.414 . S
C485 C488 1.499 . S
C486 H466 0.950 . S
C486 C485 1.414 . S
C486 C487 1.374 . S
C487 H467 0.950 . S
C487 C483 1.385 . S
C487 C486 1.374 . S
C488 C485 1.499 . S
C488 C489 1.373 . S
C488 C490 1.389 . S
C489 H468 0.950 . S
C489 C488 1.373 . S
C489 C505 1.377 . S
C490 C488 1.389 . S
C490 C491 1.524 . S
C490 C504 1.377 . S
C491 C490 1.524 . S
C491 C492 1.397 . S
C491 C496 1.363 . S
C492 H469 0.950 . S
C492 C491 1.397 . S
C492 C493 1.334 . S
C493 H470 0.950 . S
C493 C492 1.334 . S
C493 C494 1.287 . S
C494 C493 1.287 . S
C494 C495 1.524 . S
C494 H513 0.913 . S
C495 H471 0.950 . S
C495 C494 1.524 . S
C495 C496 1.415 . S
C496 H472 0.950 . S
C496 C491 1.363 . S
C496 C495 1.415 . S
C497 H473 0.951 . S
C497 C498 1.366 . S
C497 C499 1.388 . S
C498 C497 1.366 . S
C498 C502 1.385 . S
C499 H474 0.951 . S
C499 C497 1.388 . S
C499 C500 1.366 . S
C500 C499 1.366 . S
C500 C501 1.414 . S
C500 C503 1.499 . S
C501 H475 0.950 . S
C501 C500 1.414 . S
C501 C502 1.374 . S
C502 H476 0.950 . S
C502 C498 1.385 . S
C502 C501 1.374 . S
C503 C500 1.499 . S
C503 C504 1.373 . S
C503 C505 1.389 . S
C504 H477 0.950 . S
C504 C490 1.377 . S
C504 C503 1.373 . S
C505 C489 1.377 . S
C505 C503 1.389 . S
C505 C506 1.524 . S
C506 C505 1.524 . S
C506 C507 1.397 . S
C506 C511 1.363 . S
C507 H478 0.950 . S
C507 C506 1.397 . S
C507 C508 1.334 . S
C508 H479 0.950 . S
C508 C507 1.334 . S
C508 C509 1.287 . S
C509 C508 1.287 . S
C509 C510 1.524 . S
C509 H512 0.999 . S
C510 H480 0.950 . S
C510 C509 1.524 . S
C510 C511 1.415 . S
C511 H481 0.950 . S
C511 C506 1.363 . S
C511 C510 1.415 . S
H512 C509 0.999 . S
H513 C494 0.913 . S
H514 C532 0.951 . S
H515 C534 0.951 . S
H516 C536 0.950 . S
H517 C537 0.950 . S
H518 C539 0.950 1_554 S
H519 C542 0.950 . S
H520 C543 0.950 . S
H521 C545 0.950 1_556 S
H522 C546 0.950 . S
H523 C547 0.951 . S
H524 C549 0.951 . S
H525 C551 0.950 . S
H526 C552 0.950 . S
H527 C554 0.950 . S
H528 C557 0.950 . S
H529 C558 0.950 . S
H530 C560 0.950 . S
H531 C561 0.950 . S
C532 H514 0.951 . S
C532 C533 1.366 . S
C532 C534 1.388 . S
C533 C532 1.366 . S
C533 C537 1.385 . S
C534 H515 0.951 . S
C534 C532 1.388 . S
C534 C535 1.366 . S
C535 C534 1.366 . S
C535 C536 1.414 . S
C535 C538 1.499 . S
C536 H516 0.950 . S
C536 C535 1.414 . S
C536 C537 1.374 . S
C537 H517 0.950 . S
C537 C533 1.385 . S
C537 C536 1.374 . S
C538 C535 1.499 . S
C538 C539 1.373 1_554 S
C538 C540 1.389 1_554 S
C539 H518 0.950 1_556 S
C539 C538 1.373 1_556 S
C539 C555 1.377 . S
C540 C538 1.389 1_556 S
C540 C541 1.524 1_556 S
C540 C554 1.377 . S
C541 C540 1.524 1_554 S
C541 C542 1.397 . S
C541 C546 1.363 1_554 S
C542 H519 0.950 . S
C542 C541 1.397 . S
C542 C543 1.334 . S
C543 H520 0.950 . S
C543 C542 1.334 . S
C543 C544 1.287 . S
C544 C543 1.287 . S
C544 C545 1.524 . S
C544 H563 0.913 . S
C545 H521 0.950 1_554 S
C545 C544 1.524 . S
C545 C546 1.415 1_554 S
C546 H522 0.950 . S
C546 C541 1.363 1_556 S
C546 C545 1.415 1_556 S
C547 H523 0.951 . S
C547 C548 1.366 . S
C547 C549 1.388 . S
C548 C547 1.366 . S
C548 C552 1.385 . S
C549 H524 0.951 . S
C549 C547 1.388 . S
C549 C550 1.366 . S
C550 C549 1.366 . S
C550 C551 1.414 . S
C550 C553 1.499 . S
C551 H525 0.950 . S
C551 C550 1.414 . S
C551 C552 1.374 . S
C552 H526 0.950 . S
C552 C548 1.385 . S
C552 C551 1.374 . S
C553 C550 1.499 . S
C553 C554 1.373 . S
C553 C555 1.389 . S
C554 H527 0.950 . S
C554 C540 1.377 . S
C554 C553 1.373 . S
C555 C539 1.377 . S
C555 C553 1.389 . S
C555 C556 1.524 . S
C556 C555 1.524 . S
C556 C557 1.397 . S
C556 C561 1.363 . S
C557 H528 0.950 . S
C557 C556 1.397 . S
C557 C558 1.334 . S
C558 H529 0.950 . S
C558 C557 1.334 . S
C558 C559 1.287 . S
C559 C558 1.287 . S
C559 C560 1.524 . S
C559 H562 0.999 . S
C560 H530 0.950 . S
C560 C559 1.524 . S
C560 C561 1.415 . S
C561 H531 0.950 . S
C561 C556 1.363 . S
C561 C560 1.415 . S
H562 C559 0.999 . S
H563 C544 0.913 . S
H564 C582 0.951 . S
H565 C584 0.951 . S
H566 C586 0.950 . S
H567 C587 0.950 . S
H568 C589 0.950 . S
H569 C592 0.950 . S
H570 C593 0.950 . S
H571 C595 0.950 . S
H572 C596 0.950 . S
H573 C597 0.951 . S
H574 C599 0.951 . S
H575 C601 0.950 . S
H576 C602 0.950 . S
H577 C604 0.950 . S
H578 C607 0.950 . S
H579 C608 0.950 . S
H580 C610 0.950 . S
H581 C611 0.950 . S
C582 H564 0.951 . S
C582 C583 1.366 . S
C582 C584 1.388 1_556 S
C583 C582 1.366 . S
C583 C587 1.385 . S
C584 H565 0.951 . S
C584 C582 1.388 1_554 S
C584 C585 1.366 . S
C585 C584 1.366 . S
C585 C586 1.414 . S
C585 C588 1.499 . S
C586 H566 0.950 . S
C586 C585 1.414 . S
C586 C587 1.374 1_554 S
C587 H567 0.950 . S
C587 C583 1.385 . S
C587 C586 1.374 1_556 S
C588 C585 1.499 . S
C588 C589 1.373 . S
C588 C590 1.389 . S
C589 H568 0.950 . S
C589 C588 1.373 . S
C589 C605 1.377 . S
C590 C588 1.389 . S
C590 C591 1.524 . S
C590 C604 1.377 . S
C591 C590 1.524 . S
C591 C592 1.397 . S
C591 C596 1.363 . S
C592 H569 0.950 . S
C592 C591 1.397 . S
C592 C593 1.334 . S
C593 H570 0.950 . S
C593 C592 1.334 . S
C593 C594 1.287 . S
C594 C593 1.287 . S
C594 C595 1.524 . S
C594 H613 0.913 . S
C595 H571 0.950 . S
C595 C594 1.524 . S
C595 C596 1.415 . S
C596 H572 0.950 . S
C596 C591 1.363 . S
C596 C595 1.415 . S
C597 H573 0.951 . S
C597 C598 1.366 . S
C597 C599 1.388 . S
C598 C597 1.366 . S
C598 C602 1.385 . S
C599 H574 0.951 . S
C599 C597 1.388 . S
C599 C600 1.366 . S
C600 C599 1.366 . S
C600 C601 1.414 . S
C600 C603 1.499 . S
C601 H575 0.950 . S
C601 C600 1.414 . S
C601 C602 1.374 . S
C602 H576 0.950 . S
C602 C598 1.385 . S
C602 C601 1.374 . S
C603 C600 1.499 . S
C603 C604 1.373 . S
C603 C605 1.389 . S
C604 H577 0.950 . S
C604 C590 1.377 . S
C604 C603 1.373 . S
C605 C589 1.377 . S
C605 C603 1.389 . S
C605 C606 1.524 . S
C606 C605 1.524 . S
C606 C607 1.397 . S
C606 C611 1.363 . S
C607 H578 0.950 . S
C607 C606 1.397 . S
C607 C608 1.334 . S
C608 H579 0.950 . S
C608 C607 1.334 . S
C608 C609 1.287 . S
C609 C608 1.287 . S
C609 C610 1.524 . S
C609 H612 0.999 . S
C610 H580 0.950 . S
C610 C609 1.524 . S
C610 C611 1.415 . S
C611 H581 0.950 . S
C611 C606 1.363 . S
C611 C610 1.415 . S
H612 C609 0.999 . S
H613 C594 0.913 . S
H614 C632 0.951 . S
H615 C634 0.951 . S
H616 C636 0.950 . S
H617 C637 0.950 . S
H618 C639 0.950 . S
H619 C642 0.950 . S
H620 C643 0.950 . S
H621 C645 0.950 . S
H622 C646 0.950 . S
H623 C647 0.951 . S
H624 C649 0.951 . S
H625 C651 0.950 . S
H626 C652 0.950 . S
H627 C654 0.950 . S
H628 C657 0.950 . S
H629 C658 0.950 . S
H630 C660 0.950 . S
H631 C661 0.950 . S
C632 H614 0.951 . S
C632 C633 1.366 . S
C632 C634 1.388 . S
C633 C632 1.366 . S
C633 C637 1.385 . S
C634 H615 0.951 . S
C634 C632 1.388 . S
C634 C635 1.366 . S
C635 C634 1.366 . S
C635 C636 1.414 . S
C635 C638 1.499 . S
C636 H616 0.950 . S
C636 C635 1.414 . S
C636 C637 1.374 . S
C637 H617 0.950 . S
C637 C633 1.385 . S
C637 C636 1.374 . S
C638 C635 1.499 . S
C638 C639 1.373 . S
C638 C640 1.389 . S
C639 H618 0.950 . S
C639 C638 1.373 . S
C639 C655 1.377 . S
C640 C638 1.389 . S
C640 C641 1.524 . S
C640 C654 1.377 . S
C641 C640 1.524 . S
C641 C642 1.397 . S
C641 C646 1.363 . S
C642 H619 0.950 . S
C642 C641 1.397 . S
C642 C643 1.334 . S
C643 H620 0.950 . S
C643 C642 1.334 . S
C643 C644 1.287 . S
C644 C643 1.287 . S
C644 C645 1.524 . S
C644 H663 0.913 . S
C645 H621 0.950 . S
C645 C644 1.524 . S
C645 C646 1.415 . S
C646 H622 0.950 . S
C646 C641 1.363 . S
C646 C645 1.415 . S
C647 H623 0.951 . S
C647 C648 1.366 . S
C647 C649 1.388 . S
C648 C647 1.366 . S
C648 C652 1.385 . S
C649 H624 0.951 . S
C649 C647 1.388 . S
C649 C650 1.366 . S
C650 C649 1.366 . S
C650 C651 1.414 . S
C650 C653 1.499 . S
C651 H625 0.950 . S
C651 C650 1.414 . S
C651 C652 1.374 . S
C652 H626 0.950 . S
C652 C648 1.385 . S
C652 C651 1.374 . S
C653 C650 1.499 . S
C653 C654 1.373 . S
C653 C655 1.389 . S
C654 H627 0.950 . S
C654 C640 1.377 . S
C654 C653 1.373 . S
C655 C639 1.377 . S
C655 C653 1.389 . S
C655 C656 1.524 . S
C656 C655 1.524 . S
C656 C657 1.397 . S
C656 C661 1.363 . S
C657 H628 0.950 . S
C657 C656 1.397 . S
C657 C658 1.334 . S
C658 H629 0.950 . S
C658 C657 1.334 . S
C658 C659 1.287 . S
C659 C658 1.287 . S
C659 C660 1.524 . S
C659 H662 0.999 . S
C660 H630 0.950 . S
C660 C659 1.524 . S
C660 C661 1.415 . S
C661 H631 0.950 . S
C661 C656 1.363 . S
C661 C660 1.415 . S
H662 C659 0.999 . S
H663 C644 0.913 . S
H664 C682 0.951 . S
H665 C684 0.951 . S
H666 C686 0.950 . S
H667 C687 0.950 . S
H668 C689 0.950 . S
H669 C692 0.950 . S
H670 C693 0.950 . S
H671 C695 0.950 . S
H672 C696 0.950 . S
H673 C697 0.951 . S
H674 C699 0.951 . S
H675 C701 0.950 . S
H676 C702 0.950 . S
H677 C704 0.950 . S
H678 C707 0.950 . S
H679 C708 0.950 . S
H680 C710 0.950 . S
H681 C711 0.950 . S
C682 H664 0.951 . S
C682 C683 1.366 . S
C682 C684 1.388 1_554 S
C683 C682 1.366 . S
C683 C687 1.385 . S
C684 H665 0.951 . S
C684 C682 1.388 1_556 S
C684 C685 1.366 . S
C685 C684 1.366 . S
C685 C686 1.414 . S
C685 C688 1.499 . S
C686 H666 0.950 . S
C686 C685 1.414 . S
C686 C687 1.374 1_556 S
C687 H667 0.950 . S
C687 C683 1.385 . S
C687 C686 1.374 1_554 S
C688 C685 1.499 . S
C688 C689 1.373 . S
C688 C690 1.389 . S
C689 H668 0.950 . S
C689 C688 1.373 . S
C689 C705 1.377 . S
C690 C688 1.389 . S
C690 C691 1.524 . S
C690 C704 1.377 . S
C691 C690 1.524 . S
C691 C692 1.397 . S
C691 C696 1.363 . S
C692 H669 0.950 . S
C692 C691 1.397 . S
C692 C693 1.334 . S
C693 H670 0.950 . S
C693 C692 1.334 . S
C693 C694 1.287 . S
C694 C693 1.287 . S
C694 C695 1.524 . S
C694 H713 0.913 . S
C695 H671 0.950 . S
C695 C694 1.524 . S
C695 C696 1.415 . S
C696 H672 0.950 . S
C696 C691 1.363 . S
C696 C695 1.415 . S
C697 H673 0.951 . S
C697 C698 1.366 . S
C697 C699 1.388 . S
C698 C697 1.366 . S
C698 C702 1.385 . S
C699 H674 0.951 . S
C699 C697 1.388 . S
C699 C700 1.366 . S
C700 C699 1.366 . S
C700 C701 1.414 . S
C700 C703 1.499 . S
C701 H675 0.950 . S
C701 C700 1.414 . S
C701 C702 1.374 . S
C702 H676 0.950 . S
C702 C698 1.385 . S
C702 C701 1.374 . S
C703 C700 1.499 . S
C703 C704 1.373 . S
C703 C705 1.389 . S
C704 H677 0.950 . S
C704 C690 1.377 . S
C704 C703 1.373 . S
C705 C689 1.377 . S
C705 C703 1.389 . S
C705 C706 1.524 . S
C706 C705 1.524 . S
C706 C707 1.397 . S
C706 C711 1.363 . S
C707 H678 0.950 . S
C707 C706 1.397 . S
C707 C708 1.334 . S
C708 H679 0.950 . S
C708 C707 1.334 . S
C708 C709 1.287 . S
C709 C708 1.287 . S
C709 C710 1.524 . S
C709 H712 0.999 . S
C710 H680 0.950 . S
C710 C709 1.524 . S
C710 C711 1.415 . S
C711 H681 0.950 . S
C711 C706 1.363 . S
C711 C710 1.415 . S
H712 C709 0.999 . S
H713 C694 0.913 . S
H714 C732 0.951 . S
H715 C734 0.951 . S
H716 C736 0.950 . S
H717 C737 0.950 . S
H718 C739 0.950 . S
H719 C742 0.950 . S
H720 C743 0.950 . S
H721 C745 0.950 . S
H722 C746 0.950 . S
H723 C747 0.951 . S
H724 C749 0.951 . S
H725 C751 0.950 . S
H726 C752 0.950 . S
H727 C754 0.950 1_556 S
H728 C757 0.950 . S
H729 C758 0.950 . S
H730 C760 0.950 . S
H731 C761 0.950 . S
C732 H714 0.951 . S
C732 C733 1.366 . S
C732 C734 1.388 . S
C733 C732 1.366 . S
C733 C737 1.385 . S
C734 H715 0.951 . S
C734 C732 1.388 . S
C734 C735 1.366 . S
C735 C734 1.366 . S
C735 C736 1.414 . S
C735 C738 1.499 . S
C736 H716 0.950 . S
C736 C735 1.414 . S
C736 C737 1.374 . S
C737 H717 0.950 . S
C737 C733 1.385 . S
C737 C736 1.374 . S
C738 C735 1.499 . S
C738 C739 1.373 . S
C738 C740 1.389 . S
C739 H718 0.950 . S
C739 C738 1.373 . S
C739 C755 1.377 . S
C740 C738 1.389 . S
C740 C741 1.524 . S
C740 C754 1.377 . S
C741 C740 1.524 . S
C741 C742 1.397 . S
C741 C746 1.363 . S
C742 H719 0.950 . S
C742 C741 1.397 . S
C742 C743 1.334 . S
C743 H720 0.950 . S
C743 C742 1.334 . S
C743 C744 1.287 . S
C744 C743 1.287 . S
C744 C745 1.524 . S
C744 H763 0.913 . S
C745 H721 0.950 . S
C745 C744 1.524 . S
C745 C746 1.415 . S
C746 H722 0.950 . S
C746 C741 1.363 . S
C746 C745 1.415 . S
C747 H723 0.951 . S
C747 C748 1.366 . S
C747 C749 1.388 . S
C748 C747 1.366 . S
C748 C752 1.385 . S
C749 H724 0.951 . S
C749 C747 1.388 . S
C749 C750 1.366 . S
C750 C749 1.366 . S
C750 C751 1.414 . S
C750 C753 1.499 . S
C751 H725 0.950 . S
C751 C750 1.414 . S
C751 C752 1.374 . S
C752 H726 0.950 . S
C752 C748 1.385 . S
C752 C751 1.374 . S
C753 C750 1.499 . S
C753 C754 1.373 1_556 S
C753 C755 1.389 1_556 S
C754 H727 0.950 1_554 S
C754 C740 1.377 . S
C754 C753 1.373 1_554 S
C755 C739 1.377 . S
C755 C753 1.389 1_554 S
C755 C756 1.524 . S
C756 C755 1.524 . S
C756 C757 1.397 1_554 S
C756 C761 1.363 . S
C757 H728 0.950 . S
C757 C756 1.397 1_556 S
C757 C758 1.334 . S
C758 H729 0.950 . S
C758 C757 1.334 . S
C758 C759 1.287 . S
C759 C758 1.287 . S
C759 C760 1.524 1_556 S
C759 H762 0.999 . S
C760 H730 0.950 . S
C760 C759 1.524 1_554 S
C760 C761 1.415 . S
C761 H731 0.950 . S
C761 C756 1.363 . S
C761 C760 1.415 . S
H762 C759 0.999 . S
H763 C744 0.913 . S
H764 C782 0.951 . S
H765 C784 0.951 . S
H766 C786 0.950 . S
H767 C787 0.950 . S
H768 C789 0.950 . S
H769 C792 0.950 . S
H770 C793 0.950 . S
H771 C795 0.950 . S
H772 C796 0.950 . S
H773 C797 0.951 . S
H774 C799 0.951 . S
H775 C801 0.950 . S
H776 C802 0.950 . S
H777 C804 0.950 . S
H778 C807 0.950 . S
H779 C808 0.950 . S
H780 C810 0.950 . S
H781 C811 0.950 . S
C782 H764 0.951 . S
C782 C783 1.366 . S
C782 C784 1.388 . S
C783 C782 1.366 . S
C783 C787 1.385 . S
C784 H765 0.951 . S
C784 C782 1.388 . S
C784 C785 1.366 . S
C785 C784 1.366 . S
C785 C786 1.414 . S
C785 C788 1.499 . S
C786 H766 0.950 . S
C786 C785 1.414 . S
C786 C787 1.374 . S
C787 H767 0.950 . S
C787 C783 1.385 . S
C787 C786 1.374 . S
C788 C785 1.499 . S
C788 C789 1.373 . S
C788 C790 1.389 . S
C789 H768 0.950 . S
C789 C788 1.373 . S
C789 C805 1.377 . S
C790 C788 1.389 . S
C790 C791 1.524 . S
C790 C804 1.377 . S
C791 C790 1.524 . S
C791 C792 1.397 . S
C791 C796 1.363 . S
C792 H769 0.950 . S
C792 C791 1.397 . S
C792 C793 1.334 . S
C793 H770 0.950 . S
C793 C792 1.334 . S
C793 C794 1.287 . S
C794 C793 1.287 . S
C794 C795 1.524 . S
C794 H813 0.913 . S
C795 H771 0.950 . S
C795 C794 1.524 . S
C795 C796 1.415 . S
C796 H772 0.950 . S
C796 C791 1.363 . S
C796 C795 1.415 . S
C797 H773 0.951 . S
C797 C798 1.366 . S
C797 C799 1.388 . S
C798 C797 1.366 . S
C798 C802 1.385 . S
C799 H774 0.951 . S
C799 C797 1.388 . S
C799 C800 1.366 . S
C800 C799 1.366 . S
C800 C801 1.414 . S
C800 C803 1.499 . S
C801 H775 0.950 . S
C801 C800 1.414 . S
C801 C802 1.374 . S
C802 H776 0.950 . S
C802 C798 1.385 . S
C802 C801 1.374 . S
C803 C800 1.499 . S
C803 C804 1.373 . S
C803 C805 1.389 . S
C804 H777 0.950 . S
C804 C790 1.377 . S
C804 C803 1.373 . S
C805 C789 1.377 . S
C805 C803 1.389 . S
C805 C806 1.524 . S
C806 C805 1.524 . S
C806 C807 1.397 . S
C806 C811 1.363 . S
C807 H778 0.950 . S
C807 C806 1.397 . S
C807 C808 1.334 . S
C808 H779 0.950 . S
C808 C807 1.334 . S
C808 C809 1.287 . S
C809 C808 1.287 . S
C809 C810 1.524 . S
C809 H812 0.999 . S
C810 H780 0.950 . S
C810 C809 1.524 . S
C810 C811 1.415 . S
C811 H781 0.950 . S
C811 C806 1.363 . S
C811 C810 1.415 . S
H812 C809 0.999 . S
H813 C794 0.913 . S
H814 C832 0.951 . S
H815 C834 0.951 . S
H816 C836 0.950 . S
H817 C837 0.950 . S
H818 C839 0.950 . S
H819 C842 0.950 . S
H820 C843 0.950 . S
H821 C845 0.950 . S
H822 C846 0.950 . S
H823 C847 0.951 . S
H824 C849 0.951 . S
H825 C851 0.950 . S
H826 C852 0.950 . S
H827 C854 0.950 . S
H828 C857 0.950 . S
H829 C858 0.950 . S
H830 C860 0.950 . S
H831 C861 0.950 . S
C832 H814 0.951 . S
C832 C833 1.366 . S
C832 C834 1.388 . S
C833 C832 1.366 . S
C833 C837 1.385 . S
C834 H815 0.951 . S
C834 C832 1.388 . S
C834 C835 1.366 . S
C835 C834 1.366 . S
C835 C836 1.414 . S
C835 C838 1.499 . S
C836 H816 0.950 . S
C836 C835 1.414 . S
C836 C837 1.374 . S
C837 H817 0.950 . S
C837 C833 1.385 . S
C837 C836 1.374 . S
C838 C835 1.499 . S
C838 C839 1.373 . S
C838 C840 1.389 . S
C839 H818 0.950 . S
C839 C838 1.373 . S
C839 C855 1.377 . S
C840 C838 1.389 . S
C840 C841 1.524 . S
C840 C854 1.377 . S
C841 C840 1.524 . S
C841 C842 1.397 . S
C841 C846 1.363 . S
C842 H819 0.950 . S
C842 C841 1.397 . S
C842 C843 1.334 . S
C843 H820 0.950 . S
C843 C842 1.334 . S
C843 C844 1.287 . S
C844 C843 1.287 . S
C844 C845 1.524 . S
C844 H863 0.913 . S
C845 H821 0.950 . S
C845 C844 1.524 . S
C845 C846 1.415 . S
C846 H822 0.950 . S
C846 C841 1.363 . S
C846 C845 1.415 . S
C847 H823 0.951 . S
C847 C848 1.366 . S
C847 C849 1.388 . S
C848 C847 1.366 . S
C848 C852 1.385 . S
C849 H824 0.951 . S
C849 C847 1.388 . S
C849 C850 1.366 . S
C850 C849 1.366 . S
C850 C851 1.414 . S
C850 C853 1.499 . S
C851 H825 0.950 . S
C851 C850 1.414 . S
C851 C852 1.374 . S
C852 H826 0.950 . S
C852 C848 1.385 . S
C852 C851 1.374 . S
C853 C850 1.499 . S
C853 C854 1.373 . S
C853 C855 1.389 . S
C854 H827 0.950 . S
C854 C840 1.377 . S
C854 C853 1.373 . S
C855 C839 1.377 . S
C855 C853 1.389 . S
C855 C856 1.524 . S
C856 C855 1.524 . S
C856 C857 1.397 . S
C856 C861 1.363 . S
C857 H828 0.950 . S
C857 C856 1.397 . S
C857 C858 1.334 . S
C858 H829 0.950 . S
C858 C857 1.334 . S
C858 C859 1.287 . S
C859 C858 1.287 . S
C859 C860 1.524 . S
C859 H862 0.999 . S
C860 H830 0.950 . S
C860 C859 1.524 . S
C860 C861 1.415 . S
C861 H831 0.950 . S
C861 C856 1.363 . S
C861 C860 1.415 . S
H862 C859 0.999 . S
H863 C844 0.913 . S
H864 C882 0.951 . S
H865 C884 0.951 . S
H866 C886 0.950 . S
H867 C887 0.950 . S
H868 C889 0.950 . S
H869 C892 0.950 . S
H870 C893 0.950 . S
H871 C895 0.950 . S
H872 C896 0.950 . S
H873 C897 0.951 . S
H874 C899 0.951 . S
H875 C901 0.950 . S
H876 C902 0.950 . S
H877 C904 0.950 . S
H878 C907 0.950 . S
H879 C908 0.950 . S
H880 C910 0.950 . S
H881 C911 0.950 . S
C882 H864 0.951 . S
C882 C883 1.366 . S
C882 C884 1.388 . S
C883 C882 1.366 . S
C883 C887 1.385 . S
C884 H865 0.951 . S
C884 C882 1.388 . S
C884 C885 1.366 . S
C885 C884 1.366 . S
C885 C886 1.414 . S
C885 C888 1.499 . S
C886 H866 0.950 . S
C886 C885 1.414 . S
C886 C887 1.374 . S
C887 H867 0.950 . S
C887 C883 1.385 . S
C887 C886 1.374 . S
C888 C885 1.499 . S
C888 C889 1.373 . S
C888 C890 1.389 1_554 S
C889 H868 0.950 . S
C889 C888 1.373 . S
C889 C905 1.377 1_455 S
C890 C888 1.389 1_556 S
C890 C891 1.524 . S
C890 C904 1.377 1_455 S
C891 C890 1.524 . S
C891 C892 1.397 . S
C891 C896 1.363 . S
C892 H869 0.950 . S
C892 C891 1.397 . S
C892 C893 1.334 . S
C893 H870 0.950 . S
C893 C892 1.334 . S
C893 C894 1.287 . S
C894 C893 1.287 . S
C894 C895 1.524 . S
C894 H913 0.913 . S
C895 H871 0.950 . S
C895 C894 1.524 . S
C895 C896 1.415 . S
C896 H872 0.950 . S
C896 C891 1.363 . S
C896 C895 1.415 . S
C897 H873 0.951 . S
C897 C898 1.366 . S
C897 C899 1.388 . S
C898 C897 1.366 . S
C898 C902 1.385 . S
C899 H874 0.951 . S
C899 C897 1.388 . S
C899 C900 1.366 . S
C900 C899 1.366 . S
C900 C901 1.414 . S
C900 C903 1.499 . S
C901 H875 0.950 . S
C901 C900 1.414 . S
C901 C902 1.374 . S
C902 H876 0.950 . S
C902 C898 1.385 . S
C902 C901 1.374 . S
C903 C900 1.499 . S
C903 C904 1.373 . S
C903 C905 1.389 1_556 S
C904 H877 0.950 . S
C904 C890 1.377 1_655 S
C904 C903 1.373 . S
C905 C889 1.377 1_655 S
C905 C903 1.389 1_554 S
C905 C906 1.524 . S
C906 C905 1.524 . S
C906 C907 1.397 . S
C906 C911 1.363 . S
C907 H878 0.950 . S
C907 C906 1.397 . S
C907 C908 1.334 . S
C908 H879 0.950 . S
C908 C907 1.334 . S
C908 C909 1.287 . S
C909 C908 1.287 . S
C909 C910 1.524 . S
C909 H912 0.999 . S
C910 H880 0.950 . S
C910 C909 1.524 . S
C910 C911 1.415 . S
C911 H881 0.950 . S
C911 C906 1.363 . S
C911 C910 1.415 . S
H912 C909 0.999 . S
H913 C894 0.913 . S
H914 C932 0.951 . S
H915 C934 0.951 . S
H916 C936 0.950 . S
H917 C937 0.950 . S
H918 C939 0.953 . S
H919 C942 0.950 . S
H920 C943 0.950 . S
H921 C945 0.950 . S
H922 C946 0.950 . S
H923 C947 0.951 . S
H924 C949 0.951 . S
H925 C951 0.950 . S
H926 C952 0.950 . S
H927 C954 0.953 . S
H928 C957 0.950 . S
H929 C958 0.950 . S
H930 C960 0.950 . S
H931 C961 0.950 . S
C932 H914 0.951 . S
C932 C933 1.366 . S
C932 C934 1.388 . S
C933 C932 1.366 . S
C933 C937 1.385 . S
C934 H915 0.951 . S
C934 C932 1.388 . S
C934 C935 1.366 . S
C935 C934 1.366 . S
C935 C936 1.414 . S
C935 C938 1.499 . S
C936 H916 0.950 . S
C936 C935 1.414 . S
C936 C937 1.374 . S
C937 H917 0.950 . S
C937 C933 1.385 . S
C937 C936 1.374 . S
C938 C935 1.499 . S
C938 C939 1.414 . S
C938 C940 1.389 . S
C939 H918 0.953 . S
C939 C938 1.414 . S
C939 C955 1.335 1_565 S
C940 C938 1.389 . S
C940 C941 1.524 . S
C940 C954 1.335 1_565 S
C941 C940 1.524 . S
C941 C942 1.397 . S
C941 C946 1.363 . S
C942 H919 0.950 . S
C942 C941 1.397 . S
C942 C943 1.334 . S
C943 H920 0.950 . S
C943 C942 1.334 . S
C943 C944 1.287 . S
C944 C943 1.287 . S
C944 C945 1.524 . S
C944 H963 0.913 . S
C945 H921 0.950 . S
C945 C944 1.524 . S
C945 C946 1.415 . S
C946 H922 0.950 . S
C946 C941 1.363 . S
C946 C945 1.415 . S
C947 H923 0.951 . S
C947 C948 1.366 . S
C947 C949 1.388 . S
C948 C947 1.366 . S
C948 C952 1.385 . S
C949 H924 0.951 . S
C949 C947 1.388 . S
C949 C950 1.366 . S
C950 C949 1.366 . S
C950 C951 1.414 . S
C950 C953 1.499 . S
C951 H925 0.950 . S
C951 C950 1.414 . S
C951 C952 1.374 . S
C952 H926 0.950 . S
C952 C948 1.385 . S
C952 C951 1.374 . S
C953 C950 1.499 . S
C953 C954 1.414 . S
C953 C955 1.389 . S
C954 H927 0.953 . S
C954 C940 1.335 1_545 S
C954 C953 1.414 . S
C955 C939 1.335 1_545 S
C955 C953 1.389 . S
C955 C956 1.524 . S
C956 C955 1.524 . S
C956 C957 1.397 . S
C956 C961 1.363 . S
C957 H928 0.950 . S
C957 C956 1.397 . S
C957 C958 1.334 . S
C958 H929 0.950 . S
C958 C957 1.334 . S
C958 C959 1.287 . S
C959 C958 1.287 . S
C959 C960 1.524 . S
C959 H962 0.999 . S
C960 H930 0.950 . S
C960 C959 1.524 . S
C960 C961 1.415 . S
C961 H931 0.950 . S
C961 C956 1.363 . S
C961 C960 1.415 . S
H962 C959 0.999 . S
H963 C944 0.913 . S
H964 C982 0.951 . S
H965 C984 0.951 . S
H966 C986 0.950 . S
H967 C987 0.950 . S
H968 C989 0.950 . S
H969 C992 0.950 . S
H970 C993 0.950 . S
H971 C995 0.950 . S
H972 C996 0.950 . S
H973 C997 0.951 . S
H974 C999 0.951 . S
H975 C1001 0.950 . S
H976 C1002 0.950 . S
H977 C1004 0.950 . S
H978 C1007 0.950 . S
H979 C1008 0.950 . S
H980 C1010 0.950 . S
H981 C1011 0.950 . S
C982 H964 0.951 . S
C982 C983 1.366 . S
C982 C984 1.388 . S
C983 C982 1.366 . S
C983 C987 1.385 . S
C984 H965 0.951 . S
C984 C982 1.388 . S
C984 C985 1.366 . S
C985 C984 1.366 . S
C985 C986 1.414 . S
C985 C988 1.499 . S
C986 H966 0.950 . S
C986 C985 1.414 . S
C986 C987 1.374 . S
C987 H967 0.950 . S
C987 C983 1.385 . S
C987 C986 1.374 . S
C988 C985 1.499 . S
C988 C989 1.373 . S
C988 C990 1.392 1_455 S
C989 H968 0.950 . S
C989 C988 1.373 . S
C989 C1005 1.374 . S
C990 C988 1.392 1_655 S
C990 C991 1.524 . S
C990 C1004 1.374 . S
C991 C990 1.524 . S
C991 C992 1.397 1_655 S
C991 C996 1.363 . S
C992 H969 0.950 . S
C992 C991 1.397 1_455 S
C992 C993 1.334 . S
C993 H970 0.950 . S
C993 C992 1.334 . S
C993 C994 1.287 1_455 S
C994 C993 1.287 1_655 S
C994 C995 1.524 . S
C994 H1013 0.913 . S
C995 H971 0.950 . S
C995 C994 1.524 . S
C995 C996 1.415 . S
C996 H972 0.950 . S
C996 C991 1.363 . S
C996 C995 1.415 . S
C997 H973 0.951 . S
C997 C998 1.366 . S
C997 C999 1.388 . S
C998 C997 1.366 . S
C998 C1002 1.385 . S
C999 H974 0.951 . S
C999 C997 1.388 . S
C999 C1000 1.366 . S
C1000 C999 1.366 . S
C1000 C1001 1.414 . S
C1000 C1003 1.499 . S
C1001 H975 0.950 . S
C1001 C1000 1.414 . S
C1001 C1002 1.374 . S
C1002 H976 0.950 . S
C1002 C998 1.385 . S
C1002 C1001 1.374 . S
C1003 C1000 1.499 . S
C1003 C1004 1.373 . S
C1003 C1005 1.392 1_655 S
C1004 H977 0.950 . S
C1004 C990 1.374 . S
C1004 C1003 1.373 . S
C1005 C989 1.374 . S
C1005 C1003 1.392 1_455 S
C1005 C1006 1.524 . S
C1006 C1005 1.524 . S
C1006 C1007 1.397 1_455 S
C1006 C1011 1.363 . S
C1007 H978 0.950 . S
C1007 C1006 1.397 1_655 S
C1007 C1008 1.334 . S
C1008 H979 0.950 . S
C1008 C1007 1.334 . S
C1008 C1009 1.287 1_655 S
C1009 C1008 1.287 1_455 S
C1009 C1010 1.524 . S
C1009 H1012 0.999 . S
C1010 H980 0.950 . S
C1010 C1009 1.524 . S
C1010 C1011 1.415 . S
C1011 H981 0.950 . S
C1011 C1006 1.363 . S
C1011 C1010 1.415 . S
H1012 C1009 0.999 . S
H1013 C994 0.913 . S
H1014 C1032 0.951 . S
H1015 C1034 0.951 . S
H1016 C1036 0.950 . S
H1017 C1037 0.950 . S
H1018 C1039 0.950 . S
H1019 C1042 0.950 . S
H1020 C1043 0.950 . S
H1021 C1045 0.924 1_545 S
H1022 C1046 0.950 . S
H1023 C1047 0.951 . S
H1024 C1049 0.951 . S
H1025 C1051 0.950 . S
H1026 C1052 0.950 . S
H1027 C1054 0.950 . S
H1028 C1057 0.950 . S
H1029 C1058 0.950 . S
H1030 C1060 0.924 1_565 S
H1031 C1061 0.950 . S
C1032 H1014 0.951 . S
C1032 C1033 1.366 . S
C1032 C1034 1.388 . S
C1033 C1032 1.366 . S
C1033 C1037 1.385 . S
C1034 H1015 0.951 . S
C1034 C1032 1.388 . S
C1034 C1035 1.366 . S
C1035 C1034 1.366 . S
C1035 C1036 1.414 . S
C1035 C1038 1.499 . S
C1036 H1016 0.950 . S
C1036 C1035 1.414 . S
C1036 C1037 1.374 . S
C1037 H1017 0.950 . S
C1037 C1033 1.385 . S
C1037 C1036 1.374 . S
C1038 C1035 1.499 . S
C1038 C1039 1.373 . S
C1038 C1040 1.389 . S
C1039 H1018 0.950 . S
C1039 C1038 1.373 . S
C1039 C1055 1.377 1_565 S
C1040 C1038 1.389 . S
C1040 C1041 1.524 . S
C1040 C1054 1.377 1_565 S
C1041 C1040 1.524 . S
C1041 C1042 1.397 . S
C1041 C1046 1.363 1_565 S
C1042 H1019 0.950 . S
C1042 C1041 1.397 . S
C1042 C1043 1.334 . S
C1043 H1020 0.950 . S
C1043 C1042 1.334 . S
C1043 C1044 1.287 . S
C1044 C1043 1.287 . S
C1044 C1045 1.564 . S
C1044 H1063 0.913 . S
C1045 H1021 0.924 1_565 S
C1045 C1044 1.564 . S
C1045 C1046 1.407 1_565 S
C1046 H1022 0.950 . S
C1046 C1041 1.363 1_545 S
C1046 C1045 1.407 1_545 S
C1047 H1023 0.951 . S
C1047 C1048 1.366 . S
C1047 C1049 1.388 . S
C1048 C1047 1.366 . S
C1048 C1052 1.385 . S
C1049 H1024 0.951 . S
C1049 C1047 1.388 . S
C1049 C1050 1.366 . S
C1050 C1049 1.366 . S
C1050 C1051 1.414 . S
C1050 C1053 1.499 . S
C1051 H1025 0.950 . S
C1051 C1050 1.414 . S
C1051 C1052 1.374 . S
C1052 H1026 0.950 . S
C1052 C1048 1.385 . S
C1052 C1051 1.374 . S
C1053 C1050 1.499 . S
C1053 C1054 1.373 . S
C1053 C1055 1.389 . S
C1054 H1027 0.950 . S
C1054 C1040 1.377 1_545 S
C1054 C1053 1.373 . S
C1055 C1039 1.377 1_545 S
C1055 C1053 1.389 . S
C1055 C1056 1.524 . S
C1056 C1055 1.524 . S
C1056 C1057 1.397 . S
C1056 C1061 1.363 1_545 S
C1057 H1028 0.950 . S
C1057 C1056 1.397 . S
C1057 C1058 1.334 . S
C1058 H1029 0.950 . S
C1058 C1057 1.334 . S
C1058 C1059 1.287 . S
C1059 C1058 1.287 . S
C1059 C1060 1.564 . S
C1059 H1062 0.999 . S
C1060 H1030 0.924 1_545 S
C1060 C1059 1.564 . S
C1060 C1061 1.407 1_545 S
C1061 H1031 0.950 . S
C1061 C1056 1.363 1_565 S
C1061 C1060 1.407 1_565 S
H1062 C1059 0.999 . S
H1063 C1044 0.913 . S
H1064 C1082 0.951 . S
H1065 C1084 0.951 . S
H1066 C1086 0.950 . S
H1067 C1087 0.950 . S
H1068 C1089 0.950 . S
H1069 C1092 0.950 . S
H1070 C1093 0.950 . S
H1071 C1095 0.950 . S
H1072 C1096 0.950 . S
H1073 C1097 0.951 . S
H1074 C1099 0.951 . S
H1075 C1101 0.950 . S
H1076 C1102 0.950 . S
H1077 C1104 0.950 . S
H1078 C1107 0.950 . S
H1079 C1108 0.950 . S
H1080 C1110 0.950 . S
H1081 C1111 0.950 . S
C1082 H1064 0.951 . S
C1082 C1083 1.366 . S
C1082 C1084 1.388 . S
C1083 C1082 1.366 . S
C1083 C1087 1.385 . S
C1084 H1065 0.951 . S
C1084 C1082 1.388 . S
C1084 C1085 1.366 . S
C1085 C1084 1.366 . S
C1085 C1086 1.414 . S
C1085 C1088 1.499 . S
C1086 H1066 0.950 . S
C1086 C1085 1.414 . S
C1086 C1087 1.374 . S
C1087 H1067 0.950 . S
C1087 C1083 1.385 . S
C1087 C1086 1.374 . S
C1088 C1085 1.499 . S
C1088 C1089 1.373 . S
C1088 C1090 1.389 . S
C1089 H1068 0.950 . S
C1089 C1088 1.373 . S
C1089 C1105 1.377 . S
C1090 C1088 1.389 . S
C1090 C1091 1.524 . S
C1090 C1104 1.377 . S
C1091 C1090 1.524 . S
C1091 C1092 1.397 . S
C1091 C1096 1.363 . S
C1092 H1069 0.950 . S
C1092 C1091 1.397 . S
C1092 C1093 1.334 . S
C1093 H1070 0.950 . S
C1093 C1092 1.334 . S
C1093 C1094 1.287 . S
C1094 C1093 1.287 . S
C1094 C1095 1.524 . S
C1094 H1113 0.913 . S
C1095 H1071 0.950 . S
C1095 C1094 1.524 . S
C1095 C1096 1.415 . S
C1096 H1072 0.950 . S
C1096 C1091 1.363 . S
C1096 C1095 1.415 . S
C1097 H1073 0.951 . S
C1097 C1098 1.366 . S
C1097 C1099 1.388 . S
C1098 C1097 1.366 . S
C1098 C1102 1.385 . S
C1099 H1074 0.951 . S
C1099 C1097 1.388 . S
C1099 C1100 1.366 . S
C1100 C1099 1.366 . S
C1100 C1101 1.414 . S
C1100 C1103 1.499 . S
C1101 H1075 0.950 . S
C1101 C1100 1.414 . S
C1101 C1102 1.374 . S
C1102 H1076 0.950 . S
C1102 C1098 1.385 . S
C1102 C1101 1.374 . S
C1103 C1100 1.499 . S
C1103 C1104 1.373 . S
C1103 C1105 1.389 . S
C1104 H1077 0.950 . S
C1104 C1090 1.377 . S
C1104 C1103 1.373 . S
C1105 C1089 1.377 . S
C1105 C1103 1.389 . S
C1105 C1106 1.524 . S
C1106 C1105 1.524 . S
C1106 C1107 1.397 . S
C1106 C1111 1.363 . S
C1107 H1078 0.950 . S
C1107 C1106 1.397 . S
C1107 C1108 1.334 . S
C1108 H1079 0.950 . S
C1108 C1107 1.334 . S
C1108 C1109 1.287 . S
C1109 C1108 1.287 . S
C1109 C1110 1.524 . S
C1109 H1112 0.999 . S
C1110 H1080 0.950 . S
C1110 C1109 1.524 . S
C1110 C1111 1.415 . S
C1111 H1081 0.950 . S
C1111 C1106 1.363 . S
C1111 C1110 1.415 . S
H1112 C1109 0.999 . S
H1113 C1094 0.913 . S
H1114 C1132 0.951 . S
H1115 C1134 0.951 . S
H1116 C1136 0.950 . S
H1117 C1137 0.950 . S
H1118 C1139 0.950 . S
H1119 C1142 0.950 . S
H1120 C1143 0.950 . S
H1121 C1145 0.950 . S
H1122 C1146 0.950 . S
H1123 C1147 0.951 . S
H1124 C1149 0.951 . S
H1125 C1151 0.950 . S
H1126 C1152 0.950 . S
H1127 C1154 0.950 . S
H1128 C1157 0.950 . S
H1129 C1158 0.950 . S
H1130 C1160 0.950 . S
H1131 C1161 0.950 . S
C1132 H1114 0.951 . S
C1132 C1133 1.366 . S
C1132 C1134 1.388 . S
C1133 C1132 1.366 . S
C1133 C1137 1.385 . S
C1134 H1115 0.951 . S
C1134 C1132 1.388 . S
C1134 C1135 1.366 . S
C1135 C1134 1.366 . S
C1135 C1136 1.414 . S
C1135 C1138 1.499 . S
C1136 H1116 0.950 . S
C1136 C1135 1.414 . S
C1136 C1137 1.374 . S
C1137 H1117 0.950 . S
C1137 C1133 1.385 . S
C1137 C1136 1.374 . S
C1138 C1135 1.499 . S
C1138 C1139 1.373 . S
C1138 C1140 1.389 . S
C1139 H1118 0.950 . S
C1139 C1138 1.373 . S
C1139 C1155 1.377 . S
C1140 C1138 1.389 . S
C1140 C1141 1.524 . S
C1140 C1154 1.377 . S
C1141 C1140 1.524 . S
C1141 C1142 1.397 . S
C1141 C1146 1.363 . S
C1142 H1119 0.950 . S
C1142 C1141 1.397 . S
C1142 C1143 1.334 . S
C1143 H1120 0.950 . S
C1143 C1142 1.334 . S
C1143 C1144 1.287 . S
C1144 C1143 1.287 . S
C1144 C1145 1.524 . S
C1144 H1163 0.913 . S
C1145 H1121 0.950 . S
C1145 C1144 1.524 . S
C1145 C1146 1.415 . S
C1146 H1122 0.950 . S
C1146 C1141 1.363 . S
C1146 C1145 1.415 . S
C1147 H1123 0.951 . S
C1147 C1148 1.366 . S
C1147 C1149 1.388 . S
C1148 C1147 1.366 . S
C1148 C1152 1.385 . S
C1149 H1124 0.951 . S
C1149 C1147 1.388 . S
C1149 C1150 1.366 . S
C1150 C1149 1.366 . S
C1150 C1151 1.414 . S
C1150 C1153 1.499 . S
C1151 H1125 0.950 . S
C1151 C1150 1.414 . S
C1151 C1152 1.374 . S
C1152 H1126 0.950 . S
C1152 C1148 1.385 . S
C1152 C1151 1.374 . S
C1153 C1150 1.499 . S
C1153 C1154 1.373 . S
C1153 C1155 1.389 . S
C1154 H1127 0.950 . S
C1154 C1140 1.377 . S
C1154 C1153 1.373 . S
C1155 C1139 1.377 . S
C1155 C1153 1.389 . S
C1155 C1156 1.524 . S
C1156 C1155 1.524 . S
C1156 C1157 1.397 . S
C1156 C1161 1.363 . S
C1157 H1128 0.950 . S
C1157 C1156 1.397 . S
C1157 C1158 1.334 . S
C1158 H1129 0.950 . S
C1158 C1157 1.334 . S
C1158 C1159 1.287 . S
C1159 C1158 1.287 . S
C1159 C1160 1.524 . S
C1159 H1162 0.999 . S
C1160 H1130 0.950 . S
C1160 C1159 1.524 . S
C1160 C1161 1.415 . S
C1161 H1131 0.950 . S
C1161 C1156 1.363 . S
C1161 C1160 1.415 . S
H1162 C1159 0.999 . S
H1163 C1144 0.913 . S
H1164 C1182 0.951 . S
H1165 C1184 0.951 . S
H1166 C1186 0.950 . S
H1167 C1187 0.950 . S
H1168 C1189 0.950 . S
H1169 C1192 0.950 . S
H1170 C1193 0.950 . S
H1171 C1195 0.950 . S
H1172 C1196 0.950 . S
H1173 C1197 0.951 . S
H1174 C1199 0.951 . S
H1175 C1201 0.950 . S
H1176 C1202 0.950 . S
H1177 C1204 0.950 . S
H1178 C1207 0.950 . S
H1179 C1208 0.950 . S
H1180 C1210 0.950 1_554 S
H1181 C1211 0.950 . S
C1182 H1164 0.951 . S
C1182 C1183 1.366 . S
C1182 C1184 1.388 . S
C1183 C1182 1.366 . S
C1183 C1187 1.385 . S
C1184 H1165 0.951 . S
C1184 C1182 1.388 . S
C1184 C1185 1.366 . S
C1185 C1184 1.366 . S
C1185 C1186 1.414 . S
C1185 C1188 1.499 . S
C1186 H1166 0.950 . S
C1186 C1185 1.414 . S
C1186 C1187 1.374 . S
C1187 H1167 0.950 . S
C1187 C1183 1.385 . S
C1187 C1186 1.374 . S
C1188 C1185 1.499 . S
C1188 C1189 1.373 . S
C1188 C1190 1.389 . S
C1189 H1168 0.950 . S
C1189 C1188 1.373 . S
C1189 C1205 1.377 . S
C1190 C1188 1.389 . S
C1190 C1191 1.524 . S
C1190 C1204 1.377 . S
C1191 C1190 1.524 . S
C1191 C1192 1.397 . S
C1191 C1196 1.363 . S
C1192 H1169 0.950 . S
C1192 C1191 1.397 . S
C1192 C1193 1.334 . S
C1193 H1170 0.950 . S
C1193 C1192 1.334 . S
C1193 C1194 1.287 . S
C1194 C1193 1.287 . S
C1194 C1195 1.524 . S
C1194 H1213 0.913 . S
C1195 H1171 0.950 . S
C1195 C1194 1.524 . S
C1195 C1196 1.415 . S
C1196 H1172 0.950 . S
C1196 C1191 1.363 . S
C1196 C1195 1.415 . S
C1197 H1173 0.951 . S
C1197 C1198 1.366 . S
C1197 C1199 1.388 . S
C1198 C1197 1.366 . S
C1198 C1202 1.385 . S
C1199 H1174 0.951 . S
C1199 C1197 1.388 . S
C1199 C1200 1.366 . S
C1200 C1199 1.366 . S
C1200 C1201 1.414 . S
C1200 C1203 1.499 . S
C1201 H1175 0.950 . S
C1201 C1200 1.414 . S
C1201 C1202 1.374 . S
C1202 H1176 0.950 . S
C1202 C1198 1.385 . S
C1202 C1201 1.374 . S
C1203 C1200 1.499 . S
C1203 C1204 1.373 . S
C1203 C1205 1.389 . S
C1204 H1177 0.950 . S
C1204 C1190 1.377 . S
C1204 C1203 1.373 . S
C1205 C1189 1.377 . S
C1205 C1203 1.389 . S
C1205 C1206 1.524 . S
C1206 C1205 1.524 . S
C1206 C1207 1.397 . S
C1206 C1211 1.363 . S
C1207 H1178 0.950 . S
C1207 C1206 1.397 . S
C1207 C1208 1.334 . S
C1208 H1179 0.950 . S
C1208 C1207 1.334 . S
C1208 C1209 1.287 . S
C1209 C1208 1.287 . S
C1209 C1210 1.524 . S
C1209 H1212 0.999 1_556 S
C1210 H1180 0.950 1_556 S
C1210 C1209 1.524 . S
C1210 C1211 1.415 . S
C1211 H1181 0.950 . S
C1211 C1206 1.363 . S
C1211 C1210 1.415 . S
H1212 C1209 0.999 1_554 S
H1213 C1194 0.913 . S
H1214 C1232 0.951 . S
H1215 C1234 0.951 . S
H1216 C1236 0.950 . S
H1217 C1237 0.950 . S
H1218 C1239 0.950 . S
H1219 C1242 0.950 . S
H1220 C1243 0.950 . S
H1221 C1245 0.950 . S
H1222 C1246 0.950 . S
H1223 C1247 0.951 . S
H1224 C1249 0.951 . S
H1225 C1251 0.950 . S
H1226 C1252 0.950 . S
H1227 C1254 0.950 . S
H1228 C1257 0.950 . S
H1229 C1258 0.950 . S
H1230 C1260 0.950 . S
H1231 C1261 0.950 . S
C1232 H1214 0.951 . S
C1232 C1233 1.366 1_556 S
C1232 C1234 1.388 . S
C1233 C1232 1.366 1_554 S
C1233 C1237 1.385 . S
C1234 H1215 0.951 . S
C1234 C1232 1.388 . S
C1234 C1235 1.366 1_556 S
C1235 C1234 1.366 1_554 S
C1235 C1236 1.414 . S
C1235 C1238 1.499 . S
C1236 H1216 0.950 . S
C1236 C1235 1.414 . S
C1236 C1237 1.374 . S
C1237 H1217 0.950 . S
C1237 C1233 1.385 . S
C1237 C1236 1.374 . S
C1238 C1235 1.499 . S
C1238 C1239 1.373 . S
C1238 C1240 1.389 1_554 S
C1239 H1218 0.950 . S
C1239 C1238 1.373 . S
C1239 C1255 1.377 . S
C1240 C1238 1.389 1_556 S
C1240 C1241 1.524 . S
C1240 C1254 1.377 . S
C1241 C1240 1.524 . S
C1241 C1242 1.397 . S
C1241 C1246 1.363 . S
C1242 H1219 0.950 . S
C1242 C1241 1.397 . S
C1242 C1243 1.334 . S
C1243 H1220 0.950 . S
C1243 C1242 1.334 . S
C1243 C1244 1.287 . S
C1244 C1243 1.287 . S
C1244 C1245 1.524 . S
C1244 H1263 0.913 . S
C1245 H1221 0.950 . S
C1245 C1244 1.524 . S
C1245 C1246 1.415 . S
C1246 H1222 0.950 . S
C1246 C1241 1.363 . S
C1246 C1245 1.415 . S
C1247 H1223 0.951 . S
C1247 C1248 1.366 1_554 S
C1247 C1249 1.388 . S
C1248 C1247 1.366 1_556 S
C1248 C1252 1.385 . S
C1249 H1224 0.951 . S
C1249 C1247 1.388 . S
C1249 C1250 1.366 1_554 S
C1250 C1249 1.366 1_556 S
C1250 C1251 1.414 . S
C1250 C1253 1.499 . S
C1251 H1225 0.950 . S
C1251 C1250 1.414 . S
C1251 C1252 1.374 . S
C1252 H1226 0.950 . S
C1252 C1248 1.385 . S
C1252 C1251 1.374 . S
C1253 C1250 1.499 . S
C1253 C1254 1.373 . S
C1253 C1255 1.389 1_556 S
C1254 H1227 0.950 . S
C1254 C1240 1.377 . S
C1254 C1253 1.373 . S
C1255 C1239 1.377 . S
C1255 C1253 1.389 1_554 S
C1255 C1256 1.524 . S
C1256 C1255 1.524 . S
C1256 C1257 1.397 . S
C1256 C1261 1.363 . S
C1257 H1228 0.950 . S
C1257 C1256 1.397 . S
C1257 C1258 1.334 . S
C1258 H1229 0.950 . S
C1258 C1257 1.334 . S
C1258 C1259 1.287 . S
C1259 C1258 1.287 . S
C1259 C1260 1.524 . S
C1259 H1262 0.999 . S
C1260 H1230 0.950 . S
C1260 C1259 1.524 . S
C1260 C1261 1.415 . S
C1261 H1231 0.950 . S
C1261 C1256 1.363 . S
C1261 C1260 1.415 . S
H1262 C1259 0.999 . S
H1263 C1244 0.913 . S
C283 C193 1.062 . S
C298 C28 1.062 . S
C333 C226 1.062 . S
C348 C61 1.062 . S
C383 C94 1.062 . S
C398 C259 1.062 . S
C433 C160 1.062 . S
C448 C127 1.062 . S
C483 N5 1.047 . S
C498 N14 1.045 1_556 S
C533 N47 1.045 . S
C548 N38 1.047 . S
C583 N71 1.047 . S
C598 N80 1.045 . S
C633 N104 1.047 . S
C648 N113 1.045 . S
C683 N137 1.047 . S
C698 N146 1.045 . S
C733 N170 1.047 . S
C748 N179 1.045 . S
C783 N203 1.047 . S
C798 N212 1.045 1_554 S
C833 N245 1.045 . S
C848 N236 1.047 . S
C883 C8 1.237 . S
C898 C206 1.237 . S
C933 C239 1.237 . S
C948 C41 1.237 . S
C983 C140 1.236 . S
C998 C74 1.237 . S
C1033 C107 1.236 . S
C1048 C173 1.237 . S
C1083 C17 1.550 . S
C1098 C149 1.549 . S
C1133 C50 1.550 . S
C1148 C182 1.549 . S
C1183 C83 1.549 . S
C1198 C215 1.550 . S
C1233 C248 1.550 . S
C1248 C116 1.550 . S
