# Generated by pormake.
# Topology umz, (4)-cn, num edge types: 1
# Building blocks:
#     Node 0, Type 0, BuildingBlock: QUQFOY_clean_sbu_3, # of connection points: 4
#     Node 1, Type 0, BuildingBlock: QUQFOY_clean_sbu_3, # of connection points: 4
#     Node 2, Type 0, BuildingBlock: QUQFOY_clean_sbu_3, # of connection points: 4
#     Node 3, Type 0, BuildingBlock: QUQFOY_clean_sbu_3, # of connection points: 4
#     Node 4, Type 0, BuildingBlock: QUQFOY_clean_sbu_3, # of connection points: 4
#     Node 5, Type 0, BuildingBlock: QUQFOY_clean_sbu_3, # of connection points: 4
#     Node 6, Type 0, BuildingBlock: QUQFOY_clean_sbu_3, # of connection points: 4
#     Node 7, Type 0, BuildingBlock: QUQFOY_clean_sbu_3, # of connection points: 4
#     Node 8, Type 0, BuildingBlock: QUQFOY_clean_sbu_3, # of connection points: 4
#     Node 9, Type 0, BuildingBlock: QUQFOY_clean_sbu_3, # of connection points: 4
#     Node 10, Type 0, BuildingBlock: QUQFOY_clean_sbu_3, # of connection points: 4
#     Node 11, Type 0, BuildingBlock: QUQFOY_clean_sbu_3, # of connection points: 4
#     Node 12, Type 0, BuildingBlock: QUQFOY_clean_sbu_3, # of connection points: 4
#     Node 13, Type 0, BuildingBlock: QUQFOY_clean_sbu_3, # of connection points: 4
#     Node 14, Type 0, BuildingBlock: QUQFOY_clean_sbu_3, # of connection points: 4
#     Node 15, Type 0, BuildingBlock: QUQFOY_clean_sbu_3, # of connection points: 4
#     Edge 16, Type (0, 0), BuildingBlock: TEMPAE_clean_linker_10, # of connection points: 2
#     Edge 17, Type (0, 0), BuildingBlock: TEMPAE_clean_linker_10, # of connection points: 2
#     Edge 18, Type (0, 0), BuildingBlock: TEMPAE_clean_linker_10, # of connection points: 2
#     Edge 19, Type (0, 0), BuildingBlock: TEMPAE_clean_linker_10, # of connection points: 2
#     Edge 20, Type (0, 0), BuildingBlock: TEMPAE_clean_linker_10, # of connection points: 2
#     Edge 21, Type (0, 0), BuildingBlock: TEMPAE_clean_linker_10, # of connection points: 2
#     Edge 22, Type (0, 0), BuildingBlock: TEMPAE_clean_linker_10, # of connection points: 2
#     Edge 23, Type (0, 0), BuildingBlock: TEMPAE_clean_linker_10, # of connection points: 2
#     Edge 24, Type (0, 0), BuildingBlock: TEMPAE_clean_linker_10, # of connection points: 2
#     Edge 25, Type (0, 0), BuildingBlock: TEMPAE_clean_linker_10, # of connection points: 2
#     Edge 26, Type (0, 0), BuildingBlock: TEMPAE_clean_linker_10, # of connection points: 2
#     Edge 27, Type (0, 0), BuildingBlock: TEMPAE_clean_linker_10, # of connection points: 2
#     Edge 28, Type (0, 0), BuildingBlock: TEMPAE_clean_linker_10, # of connection points: 2
#     Edge 29, Type (0, 0), BuildingBlock: TEMPAE_clean_linker_10, # of connection points: 2
#     Edge 30, Type (0, 0), BuildingBlock: TEMPAE_clean_linker_10, # of connection points: 2
#     Edge 31, Type (0, 0), BuildingBlock: TEMPAE_clean_linker_10, # of connection points: 2
#     Edge 32, Type (0, 0), BuildingBlock: TEMPAE_clean_linker_10, # of connection points: 2
#     Edge 33, Type (0, 0), BuildingBlock: TEMPAE_clean_linker_10, # of connection points: 2
#     Edge 34, Type (0, 0), BuildingBlock: TEMPAE_clean_linker_10, # of connection points: 2
#     Edge 35, Type (0, 0), BuildingBlock: TEMPAE_clean_linker_10, # of connection points: 2
#     Edge 36, Type (0, 0), BuildingBlock: TEMPAE_clean_linker_10, # of connection points: 2
#     Edge 37, Type (0, 0), BuildingBlock: TEMPAE_clean_linker_10, # of connection points: 2
#     Edge 38, Type (0, 0), BuildingBlock: TEMPAE_clean_linker_10, # of connection points: 2
#     Edge 39, Type (0, 0), BuildingBlock: TEMPAE_clean_linker_10, # of connection points: 2
#     Edge 40, Type (0, 0), BuildingBlock: TEMPAE_clean_linker_10, # of connection points: 2
#     Edge 41, Type (0, 0), BuildingBlock: TEMPAE_clean_linker_10, # of connection points: 2
#     Edge 42, Type (0, 0), BuildingBlock: TEMPAE_clean_linker_10, # of connection points: 2
#     Edge 43, Type (0, 0), BuildingBlock: TEMPAE_clean_linker_10, # of connection points: 2
#     Edge 44, Type (0, 0), BuildingBlock: TEMPAE_clean_linker_10, # of connection points: 2
#     Edge 45, Type (0, 0), BuildingBlock: TEMPAE_clean_linker_10, # of connection points: 2
#     Edge 46, Type (0, 0), BuildingBlock: TEMPAE_clean_linker_10, # of connection points: 2
#     Edge 47, Type (0, 0), BuildingBlock: TEMPAE_clean_linker_10, # of connection points: 2
# Relax obj value: 0.249
# Max RMSD: 0.161
# Mean RMSD: 0.161
data_MOF--net-umz--node1-QUQFOY_clean_sbu_3--edge1-TEMPAE_clean_linker_10
_symmetry_space_group_name_H-M    P1
_symmetry_Int_Tables_number       1
_symmetry_cell_setting            triclinic
loop_
_symmetry_equiv_pos_as_xyz
'x, y, z'
_cell_length_a     60.982772
_cell_length_b     60.973643
_cell_length_c     22.817258
_cell_angle_alpha  90.012566
_cell_angle_beta   89.986586
_cell_angle_gamma 89.980066
loop_
_atom_site_label
_atom_site_type_symbol
_atom_site_fract_x
_atom_site_fract_y
_atom_site_fract_z
_atom_type_partial_charge
C0 C 0.96178 0.59396 0.05736 0.0
O1 O 0.96539 0.57836 0.02166 0.0
Cd2 Cd 0.99388 0.57754 0.94822 0.0
O3 O 0.97245 0.61186 0.05334 0.0
Cd4 Cd 0.00162 0.62824 0.99219 0.0
C5 C 0.03449 0.58821 0.0482 0.0
O6 O -0.00485 0.61146 0.89775 0.0
O7 O 0.02659 0.62716 0.9087 0.0
O8 O 0.98186 0.6624 0.97895 0.0
C9 C 0.01359 0.61657 0.87582 0.0
O10 O 0.0262 0.57519 0.01053 0.0
C11 C -0.00366 0.67438 0.00302 0.0
O12 O 0.02766 0.6079 0.05357 0.0
O13 O 0.01315 0.66475 0.02375 0.0
C14 C 0.90466 0.95193 0.54546 0.0
O15 O 0.92094 0.95323 0.51082 0.0
Cd16 Cd 0.92479 0.97986 0.43282 0.0
O17 O 0.88802 0.96424 0.53834 0.0
Cd18 Cd 0.87555 0.99389 0.47329 0.0
C19 C 0.91909 0.02308 0.52648 0.0
O20 O 0.89148 0.98384 0.37933 0.0
O21 O 0.87863 0.01678 0.38688 0.0
O22 O 0.83915 0.97833 0.46345 0.0
C23 C 0.88773 0.00227 0.35533 0.0
O24 O 0.93126 0.01284 0.49026 0.0
C25 C 0.82922 0.99452 0.48645 0.0
O26 O 0.89874 0.01854 0.53152 0.0
O27 O 0.84097 0.01035 0.50467 0.0
C28 C 0.54934 0.91679 0.04034 0.0
O29 O 0.54579 0.93295 0.00641 0.0
Cd30 Cd 0.51763 0.9343 0.93126 0.0
O31 O 0.53841 0.89915 0.0348 0.0
Cd32 Cd 0.50835 0.88476 0.9747 0.0
C33 C 0.47621 0.92621 0.02862 0.0
O34 O 0.51527 0.9006 0.87792 0.0
O35 O 0.48378 0.885 0.89245 0.0
O36 O 0.52583 0.84922 0.9631 0.0
C37 C 0.49681 0.89456 0.85754 0.0
O38 O 0.48488 0.9389 0.99083 0.0
C39 C 0.51064 0.83848 0.98821 0.0
O40 O 0.48263 0.90639 0.03434 0.0
O41 O 0.49469 0.84945 0.009 0.0
C42 C 0.57865 0.52889 0.55469 0.0
O43 O 0.56333 0.52292 0.52044 0.0
Cd44 Cd 0.56565 0.49309 0.45058 0.0
O45 O 0.59746 0.51991 0.55166 0.0
Cd46 Cd 0.61633 0.49106 0.49539 0.0
C47 C 0.57997 0.45471 0.5534 0.0
O48 O 0.59952 0.49412 0.39907 0.0
O49 O 0.61856 0.46485 0.41606 0.0
O50 O 0.64852 0.51376 0.48042 0.0
C51 C 0.60707 0.47596 0.38051 0.0
O52 O 0.56629 0.46133 0.51507 0.0
C53 C 0.66169 0.50076 0.50601 0.0
O54 O 0.59878 0.46366 0.55878 0.0
O55 O 0.65355 0.4835 0.52852 0.0
C56 C 0.94401 0.91571 0.95249 0.0
O57 O 0.94634 0.93204 0.98661 0.0
Cd58 Cd 0.97352 0.935 0.06394 0.0
O59 O 0.95579 0.89865 0.9589 0.0
Cd60 Cd 0.9859 0.88564 0.02123 0.0
C61 C 0.01633 0.92887 0.96964 0.0
O62 O 0.97674 0.90129 0.11675 0.0
O63 O 0.00896 0.88673 0.10671 0.0
O64 O 0.96987 0.84936 0.03028 0.0
C65 C -0.00497 0.89603 0.13959 0.0
O66 O 0.00653 0.94117 0.00643 0.0
C67 C 0.98584 0.83934 0.00652 0.0
O68 O 0.01113 0.9087 0.96395 0.0
O69 O 0.00164 0.85101 0.98777 0.0
C70 C 0.58922 0.95454 0.44609 0.0
O71 O 0.57293 0.95533 0.48083 0.0
Cd72 Cd 0.56844 0.98182 0.55902 0.0
O73 O 0.60556 0.9672 0.45356 0.0
Cd74 Cd 0.61779 -0.00331 0.5193 0.0
C75 C 0.57396 0.02513 0.4652 0.0
O76 O 0.60158 0.98652 0.61252 0.0
O77 O 0.61407 0.0196 0.60567 0.0
O78 O 0.65388 0.98064 0.53009 0.0
C79 C 0.60487 0.005 0.6367 0.0
O80 O 0.5619 0.01468 0.50125 0.0
C81 C 0.66416 -0.00329 0.50769 0.0
O82 O 0.5944 0.02096 0.46031 0.0
O83 O 0.65275 0.01279 0.48941 0.0
C84 C 0.52749 0.59057 0.93334 0.0
O85 O 0.5229 0.57578 0.97066 0.0
Cd86 Cd 0.49396 0.57794 0.04259 0.0
O87 O 0.5179 0.60912 0.93521 0.0
Cd88 Cd 0.48985 0.62842 0.99394 0.0
C89 C 0.45476 0.5901 0.9395 0.0
O90 O 0.49458 0.6125 0.09006 0.0
O91 O 0.4643 0.63006 0.07603 0.0
O92 O 0.51207 0.66114 0.00515 0.0
C93 C 0.47637 0.6191 0.11054 0.0
O94 O 0.4621 0.57699 0.97833 0.0
C95 C 0.49849 0.67392 0.98032 0.0
O96 O 0.46274 0.60932 0.9332 0.0
O97 O 0.48108 0.66533 0.95986 0.0
C98 C 0.90868 0.53904 0.43944 0.0
O99 O 0.92386 0.53282 0.47382 0.0
Cd100 Cd 0.92166 0.50249 0.54209 0.0
O101 O 0.8899 0.52994 0.44119 0.0
Cd102 Cd 0.87145 0.50014 0.49492 0.0
C103 C 0.90886 0.46481 0.43656 0.0
O104 O 0.8875 0.50249 0.59255 0.0
O105 O 0.86923 0.47307 0.57198 0.0
O106 O 0.83788 0.52093 0.50987 0.0
C107 C 0.8801 0.48401 0.60919 0.0
O108 O 0.92222 0.47116 0.47599 0.0
C109 C 0.82576 0.50761 0.48186 0.0
O110 O 0.88998 0.47362 0.43103 0.0
O111 O 0.83513 0.49126 0.45798 0.0
C112 C 0.02448 0.39957 0.92878 0.0
O113 O 0.02083 0.41515 0.96454 0.0
Cd114 Cd 0.99231 0.4155 0.03798 0.0
O115 O 0.01397 0.3816 0.93294 0.0
Cd116 Cd 0.98531 0.36452 0.99414 0.0
C117 C 0.95178 0.40395 0.93797 0.0
O118 O 0.99158 0.38153 0.08819 0.0
O119 O 0.96052 0.36499 0.07808 0.0
O120 O 0.00673 0.33143 0.00707 0.0
C121 C 0.97332 0.37602 0.11051 0.0
O122 O 0.96006 0.4171 0.97533 0.0
C123 C 0.9927 0.31866 0.98405 0.0
O124 O 0.95875 0.38429 0.93274 0.0
O125 O 0.97528 0.32736 0.964 0.0
C126 C 0.0877 0.03666 0.4449 0.0
O127 O 0.07155 0.03686 0.48018 0.0
Cd128 Cd 0.06689 0.01228 0.56251 0.0
O129 O 0.10384 0.0238 0.45345 0.0
Cd130 Cd 0.1156 -0.00474 0.52326 0.0
C131 C 0.07061 0.96706 0.47497 0.0
O132 O 0.10059 0.00948 0.61501 0.0
O133 O 0.11349 0.97653 0.61667 0.0
O134 O 0.15234 0.0102 0.51067 0.0
C135 C 0.10451 0.99217 0.64416 0.0
O136 O 0.05892 0.97844 0.5099 0.0
C137 C 0.16155 0.99158 0.50595 0.0
O138 O 0.09113 0.9706 0.46946 0.0
O139 O 0.14935 0.97471 0.50794 0.0
C140 C 0.44023 0.07078 0.95647 0.0
O141 O 0.44497 0.05492 0.99038 0.0
Cd142 Cd 0.47374 0.05491 0.06374 0.0
O143 O 0.45019 0.08903 0.96104 0.0
Cd144 Cd 0.48004 0.10522 0.01898 0.0
C145 C 0.51365 0.06538 0.96319 0.0
O146 O 0.47488 0.08887 0.11564 0.0
O147 O 0.50547 0.1059 0.0997 0.0
O148 O 0.46158 0.14033 0.03139 0.0
C149 C 0.4933 0.09545 0.13501 0.0
O150 O 0.50608 0.05226 0.00166 0.0
C151 C 0.47618 0.15136 0.00472 0.0
O152 O 0.50611 0.0848 0.95777 0.0
O153 O 0.49217 0.14075 0.98289 0.0
C154 C 0.40818 0.46089 0.43468 0.0
O155 O 0.4235 0.46675 0.4691 0.0
Cd156 Cd 0.42129 0.49644 0.53937 0.0
O157 O 0.3894 0.46993 0.43769 0.0
Cd158 Cd 0.37064 0.4988 0.49416 0.0
C159 C 0.4073 0.53502 0.43685 0.0
O160 O 0.38734 0.4955 0.59056 0.0
O161 O 0.36846 0.52488 0.5738 0.0
O162 O 0.33815 0.47645 0.50843 0.0
C163 C 0.37986 0.51366 0.60929 0.0
O164 O 0.42092 0.52832 0.47523 0.0
C165 C 0.3252 0.48964 0.4827 0.0
O166 O 0.38845 0.52617 0.43131 0.0
O167 O 0.33361 0.50681 0.46046 0.0
C168 C 0.04849 0.07559 0.03873 0.0
O169 O 0.04469 0.05949 0.00474 0.0
Cd170 Cd 0.01659 0.05786 0.92969 0.0
O171 O 0.03774 0.09338 0.03357 0.0
Cd172 Cd 0.0074 0.10793 0.97409 0.0
C173 C 0.97558 0.06628 0.02823 0.0
O174 O 0.0142 0.09175 0.87798 0.0
O175 O 0.98273 0.10741 0.89157 0.0
O176 O 0.02382 0.14405 0.96271 0.0
C177 C -0.0043 0.09746 0.85727 0.0
O178 O 0.98398 0.05354 0.99005 0.0
C179 C 0.0084 0.15421 0.9886 0.0
O180 O 0.98211 0.08605 0.03393 0.0
O181 O 0.99291 0.14269 0.00966 0.0
C182 C 0.40041 0.0305 0.55146 0.0
O183 O 0.41649 0.03093 0.51598 0.0
Cd184 Cd 0.42111 0.00615 0.43406 0.0
O185 O 0.38438 0.01753 0.54282 0.0
Cd186 Cd 0.37219 0.98927 0.47289 0.0
C187 C 0.41686 0.96109 0.52256 0.0
O188 O 0.38751 0.00315 0.3815 0.0
O189 O 0.3748 0.97014 0.37996 0.0
O190 O 0.33608 0.0056 0.48463 0.0
C191 C 0.38393 0.98572 0.35254 0.0
O192 O 0.42858 0.9724 0.48756 0.0
C193 C 0.32609 0.9874 0.48925 0.0
O194 O 0.39633 0.96462 0.52797 0.0
O195 O 0.33757 0.97001 0.48743 0.0
C196 C 0.45967 0.39944 0.0559 0.0
O197 O 0.46437 0.41419 0.01856 0.0
Cd198 Cd 0.49335 0.4118 0.94677 0.0
O199 O 0.46916 0.38084 0.05413 0.0
Cd200 Cd 0.4971 0.36122 0.99579 0.0
C201 C 0.53238 0.39939 0.05022 0.0
O202 O 0.49257 0.37717 0.8997 0.0
O203 O 0.52265 0.35929 0.91368 0.0
O204 O 0.47449 0.32872 0.98528 0.0
C205 C 0.51073 0.37044 0.87924 0.0
O206 O 0.52513 0.41253 0.01132 0.0
C207 C 0.48797 0.31585 0.01021 0.0
O208 O 0.52428 0.38022 0.05655 0.0
O209 O 0.50552 0.32429 0.03023 0.0
C210 C 0.07804 0.45345 0.54611 0.0
O211 O 0.06289 0.45956 0.5115 0.0
Cd212 Cd 0.06513 0.48996 0.44354 0.0
O213 O 0.09677 0.46265 0.54458 0.0
Cd214 Cd 0.11533 0.49238 0.49107 0.0
C215 C 0.07781 0.52752 0.54963 0.0
O216 O 0.09937 0.48992 0.39348 0.0
O217 O 0.1175 0.51944 0.41392 0.0
O218 O 0.14879 0.47141 0.4764 0.0
C219 C 0.10671 0.50841 0.37673 0.0
O220 O 0.06449 0.52119 0.51008 0.0
C221 C 0.16099 0.48471 0.50427 0.0
O222 O 0.09671 0.51878 0.55512 0.0
O223 O 0.15171 0.50116 0.52792 0.0
C224 C 0.97907 0.709 0.96737 0.0
C225 C 0.99407 0.6985 0.00457 0.0
C226 C 0.97738 0.73193 0.96614 0.0
C227 C 0.99072 0.74464 0.00383 0.0
C228 C 0.00564 0.73412 0.04221 0.0
C229 C 0.00729 0.71116 0.04171 0.0
C230 C 0.96153 0.74257 0.92396 0.0
C231 C 0.01985 0.74713 0.08378 0.0
C232 C 0.0017 0.80443 0.96757 0.0
C233 C 0.98646 0.81513 0.00359 0.0
C234 C 0.00303 0.78145 0.96649 0.0
C235 C 0.98906 0.76895 0.00313 0.0
C236 C 0.97359 0.77968 0.03942 0.0
C237 C 0.97234 0.80265 0.0388 0.0
C238 C 0.01945 0.77054 0.9264 0.0
C239 C 0.95864 0.76693 0.07969 0.0
H240 H 0.96893 0.69929 0.93822 0.0
H241 H 0.01886 0.7031 0.07065 0.0
H242 H 0.94943 0.75263 0.94839 0.0
H243 H 0.97052 0.75379 0.89414 0.0
H244 H 0.95252 0.73035 0.89708 0.0
H245 H 0.03018 0.73643 0.11191 0.0
H246 H 0.03074 0.75827 0.05867 0.0
H247 H 0.00943 0.75753 0.1124 0.0
H248 H 0.01259 0.81402 0.94014 0.0
H249 H 0.96063 0.81086 0.06706 0.0
H250 H 0.01097 0.7588 0.89696 0.0
H251 H 0.03144 0.76103 0.95265 0.0
H252 H 0.02855 0.78258 0.89912 0.0
H253 H 0.9485 0.75531 0.05393 0.0
H254 H 0.94755 0.77777 0.10527 0.0
H255 H 0.96857 0.75705 0.11075 0.0
C256 C 0.70056 0.98233 0.53929 0.0
C257 C 0.68836 -0.00322 0.50436 0.0
C258 C 0.72354 0.98234 0.53761 0.0
C259 C 0.73455 -0.00315 0.49918 0.0
C260 C 0.72232 0.01139 0.46349 0.0
C261 C 0.69933 0.01133 0.46695 0.0
C262 C 0.73604 0.96686 0.57706 0.0
C263 C 0.7335 0.0268 0.42121 0.0
C264 C 0.79451 0.00987 0.52796 0.0
C265 C 0.80505 -0.00491 0.49026 0.0
C266 C 0.77153 0.01058 0.53153 0.0
C267 C 0.75888 -0.00352 0.49565 0.0
C268 C 0.76946 0.98171 0.45702 0.0
C269 C 0.79243 0.98105 0.45523 0.0
C270 C 0.76081 0.02624 0.57406 0.0
C271 C 0.75651 0.96668 0.41738 0.0
H272 H 0.69215 0.97117 0.56865 0.0
H273 H 0.68993 0.02248 0.43975 0.0
H274 H 0.74592 0.95534 0.55024 0.0
H275 H 0.74763 0.97623 0.60495 0.0
H276 H 0.72502 0.95717 0.60589 0.0
H277 H 0.72161 0.03698 0.3963 0.0
H278 H 0.74479 0.03785 0.44528 0.0
H279 H 0.74355 0.01729 0.38961 0.0
H280 H 0.80422 0.02071 0.55523 0.0
H281 H 0.80052 0.96972 0.42564 0.0
H282 H 0.75044 0.01698 0.60544 0.0
H283 H 0.74989 0.03771 0.55014 0.0
H284 H 0.773 0.03597 0.59921 0.0
H285 H 0.74627 0.95544 0.44405 0.0
H286 H 0.76724 0.95668 0.38849 0.0
H287 H 0.74524 0.97645 0.38953 0.0
C288 C 0.49625 0.80284 0.02609 0.0
C289 C 0.51086 0.81426 0.98983 0.0
C290 C 0.49528 0.77985 0.02501 0.0
C291 C 0.50899 0.76807 0.98601 0.0
C292 C 0.524 0.7795 0.9499 0.0
C293 C 0.52488 0.80247 0.95261 0.0
C294 C 0.47935 0.76819 0.06496 0.0
C295 C 0.53867 0.76752 0.90725 0.0
C296 C 0.51801 0.70746 0.01506 0.0
C297 C 0.50219 0.69786 0.97856 0.0
C298 C 0.52055 0.7303 0.01759 0.0
C299 C 0.50719 0.74382 0.98201 0.0
C300 C 0.49166 0.73419 0.94371 0.0
C301 C 0.48921 0.71131 0.94282 0.0
C302 C 0.53708 0.73999 0.05951 0.0
C303 C 0.4774 0.74808 0.90436 0.0
H304 H 0.48545 0.81188 0.05508 0.0
H305 H 0.53612 0.81124 0.92422 0.0
H306 H 0.46696 0.75932 0.03842 0.0
H307 H 0.48812 0.75579 0.09176 0.0
H308 H 0.47068 0.77967 0.09484 0.0
H309 H 0.54981 0.7788 0.88327 0.0
H310 H 0.54873 0.75517 0.9307 0.0
H311 H 0.5285 0.75854 0.87483 0.0
H312 H 0.52801 0.69714 0.04305 0.0
H313 H 0.47703 0.70395 0.91436 0.0
H314 H 0.52855 0.75038 0.09231 0.0
H315 H 0.54871 0.75072 0.03553 0.0
H316 H 0.54659 0.72719 0.08307 0.0
H317 H 0.46659 0.75868 0.93135 0.0
H318 H 0.46697 0.738 0.87489 0.0
H319 H 0.48774 0.75905 0.87714 0.0
C320 C 0.69957 0.49161 0.53968 0.0
C321 C 0.68558 0.5048 0.50604 0.0
C322 C 0.7224 0.49399 0.5361 0.0
C323 C 0.73142 0.50975 0.49742 0.0
C324 C 0.71738 0.52353 0.46457 0.0
C325 C 0.69459 0.52097 0.46953 0.0
C326 C 0.73688 0.47921 0.57249 0.0
C327 C 0.72641 0.5404 0.42256 0.0
C328 C 0.79127 0.52443 0.52019 0.0
C329 C 0.80165 0.51002 0.48111 0.0
C330 C 0.76834 0.52497 0.52498 0.0
C331 C 0.75555 0.51095 0.4893 0.0
C332 C 0.76592 0.49711 0.44785 0.0
C333 C 0.78887 0.49671 0.44452 0.0
C334 C 0.75786 0.53983 0.56993 0.0
C335 C 0.75279 0.48219 0.40836 0.0
H336 H 0.69269 0.47917 0.56818 0.0
H337 H 0.68386 0.53118 0.44329 0.0
H338 H 0.74655 0.46833 0.54329 0.0
H339 H 0.74871 0.48915 0.59817 0.0
H340 H 0.7273 0.46883 0.60321 0.0
H341 H 0.71332 0.55072 0.40295 0.0
H342 H 0.73829 0.55123 0.44527 0.0
H343 H 0.7354 0.53202 0.38667 0.0
H344 H 0.80108 0.53472 0.54872 0.0
H345 H 0.79682 0.48564 0.414 0.0
H346 H 0.74979 0.52976 0.60422 0.0
H347 H 0.74495 0.55006 0.54926 0.0
H348 H 0.76998 0.55081 0.59136 0.0
H349 H 0.74423 0.46964 0.43514 0.0
H350 H 0.76324 0.47366 0.37561 0.0
H351 H 0.74004 0.4917 0.38478 0.0
C352 C 0.01243 0.2852 0.01854 0.0
C353 C -0.00381 0.29467 0.98309 0.0
C354 C 0.01525 0.26239 0.02073 0.0
C355 C 0.00175 0.24876 0.98587 0.0
C356 C 0.98564 0.25824 0.94903 0.0
C357 C 0.98292 0.28111 0.94847 0.0
C358 C 0.03238 0.25286 0.06117 0.0
C359 C 0.97118 0.24423 0.91052 0.0
C360 C 0.02095 0.19082 0.95291 0.0
C361 C 0.00778 0.17843 0.99086 0.0
C362 C 0.01922 0.21376 0.95094 0.0
C363 C 0.00424 0.22454 0.98858 0.0
C364 C 0.99137 0.21215 0.02823 0.0
C365 C 0.99316 0.1892 0.02851 0.0
C366 C 0.03301 0.2264 0.90757 0.0
C367 C 0.97552 0.22311 0.06982 0.0
H368 H 0.02265 0.2956 0.04569 0.0
H369 H 0.9704 0.28836 0.92086 0.0
H370 H 0.02444 0.24187 0.09362 0.0
H371 H 0.04419 0.24277 0.03583 0.0
H372 H 0.04162 0.26573 0.08517 0.0
H373 H 0.96003 0.2542 0.88273 0.0
H374 H 0.98143 0.23377 0.88163 0.0
H375 H 0.96111 0.23312 0.93803 0.0
H376 H 0.03218 0.18255 0.92341 0.0
H377 H 0.983 0.17969 0.05807 0.0
H378 H 0.04308 0.23881 0.93074 0.0
H379 H 0.0222 0.23536 0.87664 0.0
H380 H 0.04409 0.21557 0.88193 0.0
H381 H 0.98421 0.23558 0.09656 0.0
H382 H 0.96749 0.21121 0.09977 0.0
H383 H 0.96262 0.2318 0.0446 0.0
C384 C 0.29018 0.97159 0.45996 0.0
C385 C 0.30207 0.98656 0.49388 0.0
C386 C 0.26717 0.97175 0.46028 0.0
C387 C 0.25594 0.98662 0.49735 0.0
C388 C 0.26798 0.00122 0.53334 0.0
C389 C 0.29095 0.00135 0.53013 0.0
C390 C 0.25491 0.95652 0.41965 0.0
C391 C 0.25662 0.01672 0.57512 0.0
C392 C 0.19736 0.00396 0.46549 0.0
C393 C 0.18551 0.98963 0.50135 0.0
C394 C 0.22029 0.00262 0.46216 0.0
C395 C 0.23158 0.98725 0.49766 0.0
C396 C 0.2196 0.97287 0.53438 0.0
C397 C 0.19662 0.97392 0.53481 0.0
C398 C 0.23243 0.01766 0.42079 0.0
C399 C 0.23107 0.95686 0.57452 0.0
H400 H 0.2989 0.96033 0.43143 0.0
H401 H 0.30027 0.01284 0.55652 0.0
H402 H 0.24392 0.94563 0.44514 0.0
H403 H 0.24442 0.96624 0.38956 0.0
H404 H 0.26613 0.94617 0.39303 0.0
H405 H 0.26841 0.02574 0.60334 0.0
H406 H 0.24681 0.02884 0.55016 0.0
H407 H 0.24511 0.0075 0.60362 0.0
H408 H 0.18864 0.01602 0.43946 0.0
H409 H 0.18736 0.96303 0.56304 0.0
H410 H 0.24343 0.00795 0.39197 0.0
H411 H 0.24288 0.02915 0.44606 0.0
H412 H 0.22112 0.0274 0.39289 0.0
H413 H 0.24146 0.94549 0.54867 0.0
H414 H 0.21934 0.94702 0.60092 0.0
H415 H 0.24208 0.96589 0.60482 0.0
C416 C 0.48939 0.18715 0.96494 0.0
C417 C 0.47539 0.17557 0.00254 0.0
C418 C 0.49009 0.21014 0.96578 0.0
C419 C 0.47671 0.22179 0.00586 0.0
C420 C 0.46221 0.21021 0.04312 0.0
C421 C 0.4616 0.18722 0.04068 0.0
C422 C 0.50548 0.22195 0.92462 0.0
C423 C 0.44789 0.22206 0.08687 0.0
C424 C 0.49716 0.27844 0.04767 0.0
C425 C 0.48398 0.29195 0.01266 0.0
C426 C 0.49451 0.25558 0.04718 0.0
C427 C 0.47852 0.24604 0.01008 0.0
C428 C 0.46489 0.25963 0.97547 0.0
C429 C 0.46768 0.28245 0.97751 0.0
C430 C 0.50911 0.24162 0.08545 0.0
C431 C 0.44784 0.25003 0.93489 0.0
H432 H 0.50001 0.17822 0.93519 0.0
H433 H 0.45083 0.17834 0.07008 0.0
H434 H 0.49635 0.23439 0.89884 0.0
H435 H 0.51818 0.23077 0.95021 0.0
H436 H 0.5138 0.21056 0.89377 0.0
H437 H 0.4369 0.21071 0.11109 0.0
H438 H 0.45833 0.23086 0.11901 0.0
H439 H 0.4377 0.23455 0.06435 0.0
H440 H 0.50972 0.28571 0.07512 0.0
H441 H 0.4575 0.29282 0.95014 0.0
H442 H 0.51968 0.23108 0.05762 0.0
H443 H 0.49902 0.23059 0.11317 0.0
H444 H 0.5198 0.25164 0.11437 0.0
H445 H 0.45599 0.23982 0.90101 0.0
H446 H 0.43799 0.26288 0.9126 0.0
H447 H 0.43658 0.23915 0.95963 0.0
C448 C 0.29194 0.46987 0.51863 0.0
C449 C 0.30126 0.4859 0.48223 0.0
C450 C 0.26911 0.46763 0.52319 0.0
C451 C 0.25534 0.48157 0.49002 0.0
C452 C 0.26467 0.49718 0.45143 0.0
C453 C 0.28754 0.49925 0.44827 0.0
C454 C 0.25974 0.45091 0.56511 0.0
C455 C 0.25049 0.51213 0.41469 0.0
C456 C 0.19538 0.46758 0.46633 0.0
C457 C 0.18507 0.48212 0.50521 0.0
C458 C 0.21831 0.46679 0.46186 0.0
C459 C 0.23118 0.48069 0.49768 0.0
C460 C 0.22088 0.49468 0.53887 0.0
C461 C 0.19792 0.49533 0.54187 0.0
C462 C 0.22873 0.45179 0.41714 0.0
C463 C 0.23409 0.50949 0.57849 0.0
H464 H 0.30248 0.45954 0.54512 0.0
H465 H 0.29466 0.51158 0.41984 0.0
H466 H 0.25076 0.45943 0.60076 0.0
H467 H 0.2478 0.44021 0.54221 0.0
H468 H 0.27265 0.44045 0.58506 0.0
H469 H 0.26029 0.52236 0.3841 0.0
H470 H 0.23859 0.50233 0.38884 0.0
H471 H 0.24089 0.52316 0.44365 0.0
H472 H 0.18552 0.45737 0.43774 0.0
H473 H 0.19003 0.50651 0.57223 0.0
H474 H 0.24142 0.44138 0.43811 0.0
H475 H 0.23704 0.46173 0.38303 0.0
H476 H 0.21652 0.44098 0.39544 0.0
H477 H 0.24665 0.49984 0.6024 0.0
H478 H 0.22366 0.51819 0.61096 0.0
H479 H 0.24288 0.52189 0.55179 0.0
C480 C 0.01249 0.58677 0.80106 0.0
C481 C 0.02165 0.60644 0.8212 0.0
C482 C 0.02192 0.57538 0.75397 0.0
C483 C 0.0406 0.58419 0.72557 0.0
C484 C 0.0492 0.60463 0.7438 0.0
C485 C 0.03977 0.6154 0.79195 0.0
C486 C 0.01249 0.55344 0.73639 0.0
C487 C 0.06874 0.6148 0.71358 0.0
C488 C 0.07805 0.54323 0.6505 0.0
C489 C 0.07023 0.54388 0.59281 0.0
C490 C 0.06882 0.55662 0.694 0.0
C491 C 0.05177 0.57136 0.67896 0.0
C492 C 0.04463 0.57291 0.62011 0.0
C493 C 0.05376 0.55892 0.57783 0.0
C494 C 0.07661 0.55423 0.75652 0.0
C495 C 0.02691 0.58884 0.60218 0.0
H496 H -0.00143 0.57973 0.82384 0.0
H497 H 0.04679 0.63069 0.80732 0.0
H498 H 0.0083 0.55343 0.6891 0.0
H499 H 0.02492 0.5404 0.74338 0.0
H500 H -0.00246 0.54919 0.76182 0.0
H501 H 0.07207 0.63171 0.72936 0.0
H502 H 0.08352 0.60462 0.72153 0.0
H503 H 0.06605 0.6153 0.6655 0.0
H504 H 0.09065 0.53148 0.6623 0.0
H505 H 0.04779 0.55955 0.5331 0.0
H506 H 0.0629 0.54833 0.78439 0.0
H507 H 0.08185 0.57035 0.77409 0.0
H508 H 0.09049 0.54253 0.76056 0.0
H509 H 0.01107 0.5839 0.62212 0.0
H510 H 0.0248 0.58956 0.55385 0.0
H511 H 0.03079 0.60554 0.6185 0.0
C512 C 0.94633 0.03935 0.05464 0.0
C513 C 0.95967 0.05713 0.07036 0.0
C514 C 0.93268 0.02919 0.09609 0.0
C515 C 0.93295 0.03661 0.15485 0.0
C516 C 0.94624 0.05472 0.17073 0.0
C517 C 0.9592 0.06496 0.12804 0.0
C518 C 0.91827 0.01034 0.07726 0.0
C519 C 0.94734 0.06282 0.23324 0.0
C520 C 0.88814 0.02532 0.2655 0.0
C521 C 0.89751 0.0084 0.29862 0.0
C522 C 0.89886 0.03369 0.21597 0.0
C523 C 0.91972 0.02534 0.20042 0.0
C524 C 0.92879 0.00755 0.23222 0.0
C525 C 0.9174 -0.00091 0.28065 0.0
C526 C 0.88834 0.05217 0.18205 0.0
C527 C 0.95117 -0.00156 0.21771 0.0
H528 H 0.94666 0.03331 0.00995 0.0
H529 H 0.96973 0.07852 0.14047 0.0
H530 H 0.92361 0.99506 0.09944 0.0
H531 H 0.90104 0.01345 0.09054 0.0
H532 H 0.91879 0.00762 0.02913 0.0
H533 H 0.95872 0.07692 0.23841 0.0
H534 H 0.93081 0.06793 0.24828 0.0
H535 H 0.95287 0.04936 0.26245 0.0
H536 H 0.87265 0.03239 0.27922 0.0
H537 H 0.92472 0.98611 0.30655 0.0
H538 H 0.8891 0.04883 0.13428 0.0
H539 H 0.89745 0.06762 0.19018 0.0
H540 H 0.87095 0.05473 0.1948 0.0
H541 H 0.95256 0.99494 0.17017 0.0
H542 H 0.95476 0.98316 0.24241 0.0
H543 H 0.96387 0.0108 0.22872 0.0
C544 C 0.47495 0.88723 0.76804 0.0
C545 C 0.48908 0.90112 0.79909 0.0
C546 C 0.46451 0.8944 0.71681 0.0
C547 C 0.46768 0.91623 0.69764 0.0
C548 C 0.48273 0.93001 0.72749 0.0
C549 C 0.49354 0.92212 0.77755 0.0
C550 C 0.4492 0.87898 0.68506 0.0
C551 C 0.48623 0.95353 0.70908 0.0
C552 C 0.44827 0.93678 0.54939 0.0
C553 C 0.42812 0.9464 0.56418 0.0
C554 C 0.46094 0.92594 0.59182 0.0
C555 C 0.45356 0.92538 0.6506 0.0
C556 C 0.43288 0.93446 0.66528 0.0
C557 C 0.42026 0.94456 0.62165 0.0
C558 C 0.48253 0.91577 0.57416 0.0
C559 C 0.4246 0.93457 0.7277 0.0
H560 H 0.47165 0.87091 0.78472 0.0
H561 H 0.50434 0.93289 0.80201 0.0
H562 H 0.43198 0.88409 0.69271 0.0
H563 H 0.45218 0.87962 0.63711 0.0
H564 H 0.45111 0.86177 0.70017 0.0
H565 H 0.49942 0.96164 0.73472 0.0
H566 H 0.49048 0.95441 0.6619 0.0
H567 H 0.4708 0.96291 0.71531 0.0
H568 H 0.45436 0.93818 0.50489 0.0
H569 H 0.40484 0.95225 0.63341 0.0
H570 H 0.48385 0.89885 0.59172 0.0
H571 H 0.49624 0.92541 0.59303 0.0
H572 H 0.4846 0.91522 0.52581 0.0
H573 H 0.42385 0.9176 0.74503 0.0
H574 H 0.40806 0.94207 0.73162 0.0
H575 H 0.43613 0.9439 0.7559 0.0
C576 C 0.54772 0.40037 0.15135 0.0
C577 C 0.54826 0.4079 0.09338 0.0
C578 C 0.55945 0.41124 0.19552 0.0
C579 C 0.57239 0.42974 0.18093 0.0
C580 C 0.57424 0.43642 0.12176 0.0
C581 C 0.56193 0.42556 0.07872 0.0
C582 C 0.55684 0.40379 0.25826 0.0
C583 C 0.58835 0.45568 0.10432 0.0
C584 C 0.57932 0.47219 0.30095 0.0
C585 C 0.59948 0.46602 0.32522 0.0
C586 C 0.57051 0.46076 0.25309 0.0
C587 C 0.58244 0.44311 0.22822 0.0
C588 C 0.60335 0.43759 0.25064 0.0
C589 C 0.61151 0.44895 0.29942 0.0
C590 C 0.54801 0.46694 0.23086 0.0
C591 C 0.61677 0.41925 0.2243 0.0
H592 H 0.53703 0.38684 0.16293 0.0
H593 H 0.56249 0.43133 0.03379 0.0
H594 H 0.57312 0.40129 0.27886 0.0
H595 H 0.54824 0.41669 0.28377 0.0
H596 H 0.54734 0.38831 0.26179 0.0
H597 H 0.59029 0.45694 0.05602 0.0
H598 H 0.58081 0.47109 0.12053 0.0
H599 H 0.60484 0.45435 0.12457 0.0
H600 H 0.56993 0.48528 0.3211 0.0
H601 H 0.62719 0.44426 0.31798 0.0
H602 H 0.5366 0.45294 0.23692 0.0
H603 H 0.54867 0.47056 0.18327 0.0
H604 H 0.54117 0.48145 0.25394 0.0
H605 H 0.60855 0.40332 0.23246 0.0
H606 H 0.63358 0.41851 0.24297 0.0
H607 H 0.61802 0.42133 0.1761 0.0
C608 C 0.0388 0.94328 0.44763 0.0
C609 C 0.05944 0.95205 0.43389 0.0
C610 C 0.02653 0.93188 0.40539 0.0
C611 C 0.03487 0.92983 0.34777 0.0
C612 C 0.056 0.93806 0.33426 0.0
C613 C 0.06815 0.94879 0.37775 0.0
C614 C 0.0044 0.92269 0.4219 0.0
C615 C 0.06532 0.93657 0.273 0.0
C616 C 0.01474 0.88985 0.23314 0.0
C617 C 0.00159 0.90342 0.1983 0.0
C618 C 0.0243 0.89777 0.28482 0.0
C619 C 0.02132 0.92003 0.30046 0.0
C620 C 0.00725 0.93354 0.26663 0.0
C621 C -0.00281 0.92491 0.21632 0.0
C622 C 0.03855 0.88266 0.32083 0.0
C623 C 0.00403 0.95748 0.2812 0.0
H624 H 0.03204 0.94573 0.4911 0.0
H625 H 0.08398 0.95576 0.36671 0.0
H626 H 0.99129 0.9324 0.40045 0.0
H627 H 0.00281 0.90552 0.4063 0.0
H628 H 0.00162 0.92305 0.47002 0.0
H629 H 0.08208 0.94362 0.26994 0.0
H630 H 0.06597 0.91923 0.25853 0.0
H631 H 0.05449 0.94549 0.24198 0.0
H632 H 0.01801 0.87317 0.21907 0.0
H633 H 0.98715 0.9354 0.18889 0.0
H634 H 0.03474 0.88441 0.36816 0.0
H635 H 0.05604 0.88712 0.3147 0.0
H636 H 0.03641 0.86521 0.30807 0.0
H637 H -0.00232 0.95926 0.32648 0.0
H638 H 0.99248 0.96569 0.25061 0.0
H639 H 0.02002 0.96616 0.27921 0.0
C640 C 0.53021 0.06524 0.86341 0.0
C641 C 0.52991 0.05705 0.92075 0.0
C642 C 0.54363 0.05573 0.82048 0.0
C643 C 0.55752 0.038 0.83576 0.0
C644 C 0.55795 0.03025 0.8942 0.0
C645 C 0.54389 0.03968 0.93588 0.0
C646 C 0.54239 0.06418 0.75833 0.0
C647 C 0.57298 0.01179 0.91242 0.0
C648 C 0.57466 0.00126 0.70966 0.0
C649 C 0.59445 0.01104 0.69269 0.0
C650 C 0.56274 0.00942 0.75756 0.0
C651 C 0.57117 0.02738 0.78991 0.0
C652 C 0.59186 0.03632 0.77519 0.0
C653 C 0.60311 0.02824 0.72615 0.0
C654 C 0.54055 -0.00031 0.77123 0.0
C655 C 0.60167 0.05504 0.80968 0.0
H656 H 0.51923 0.07849 0.85142 0.0
H657 H 0.54373 0.03338 0.98031 0.0
H658 H 0.55878 0.0698 0.74364 0.0
H659 H 0.53725 0.05075 0.72849 0.0
H660 H 0.53064 0.07799 0.75368 0.0
H661 H 0.57249 0.00878 0.96042 0.0
H662 H 0.56821 -0.00353 0.88954 0.0
H663 H 0.59012 0.01556 0.89949 0.0
H664 H 0.56788 0.98806 0.6835 0.0
H665 H 0.6185 0.0357 0.71318 0.0
H666 H 0.5276 0.01207 0.76253 0.0
H667 H 0.53945 -0.00477 0.81824 0.0
H668 H 0.53704 0.98488 0.74449 0.0
H669 H 0.59201 0.07018 0.80197 0.0
H670 H 0.61898 0.05827 0.79713 0.0
H671 H 0.601 0.05149 0.85734 0.0
C672 C 0.40695 0.55118 0.33656 0.0
C673 C 0.41468 0.55169 0.39435 0.0
C674 C 0.4166 0.56429 0.29315 0.0
C675 C 0.434 0.5786 0.30838 0.0
C676 C 0.4408 0.58027 0.36748 0.0
C677 C 0.43124 0.56657 0.40969 0.0
C678 C 0.40911 0.56181 0.23041 0.0
C679 C 0.45885 0.59579 0.38566 0.0
C680 C 0.47523 0.5904 0.18819 0.0
C681 C 0.46729 0.61021 0.16553 0.0
C682 C 0.46476 0.58016 0.23554 0.0
C683 C 0.44627 0.59028 0.26165 0.0
C684 C 0.43893 0.61088 0.24096 0.0
C685 C 0.44938 0.62049 0.19258 0.0
C686 C 0.4729 0.55802 0.25587 0.0
C687 C 0.41964 0.62243 0.26875 0.0
H688 H 0.39425 0.53959 0.32451 0.0
H689 H 0.43711 0.56711 0.45452 0.0
H690 H 0.40504 0.57805 0.21142 0.0
H691 H 0.4226 0.55475 0.20374 0.0
H692 H 0.39454 0.55099 0.22642 0.0
H693 H 0.46017 0.59724 0.43407 0.0
H694 H 0.47477 0.58983 0.36837 0.0
H695 H 0.45599 0.61234 0.36694 0.0
H696 H 0.48899 0.58235 0.16716 0.0
H697 H 0.44331 0.63591 0.17529 0.0
H698 H 0.45987 0.54555 0.24942 0.0
H699 H 0.47671 0.5585 0.30337 0.0
H700 H 0.48781 0.55265 0.23182 0.0
H701 H 0.40441 0.61304 0.26013 0.0
H702 H 0.41747 0.63934 0.25155 0.0
H703 H 0.42176 0.62327 0.317 0.0
C704 C 0.93663 0.40569 0.83678 0.0
C705 C 0.93609 0.41293 0.89501 0.0
C706 C 0.92533 0.41711 0.79279 0.0
C707 C 0.91279 0.43586 0.80784 0.0
C708 C 0.91088 0.44222 0.86725 0.0
C709 C 0.92281 0.43084 0.9101 0.0
C710 C 0.92803 0.41 0.72978 0.0
C711 C 0.89713 0.46169 0.88521 0.0
C712 C 0.90731 0.47926 0.68969 0.0
C713 C 0.88717 0.47365 0.66439 0.0
C714 C 0.91565 0.46732 0.73728 0.0
C715 C 0.90324 0.44976 0.76088 0.0
C716 C 0.88234 0.44485 0.73749 0.0
C717 C 0.87467 0.45668 0.68893 0.0
C718 C 0.93818 0.47284 0.76051 0.0
C719 C 0.86838 0.42667 0.76255 0.0
H720 H 0.94705 0.39198 0.82492 0.0
H721 H 0.9223 0.43639 0.95524 0.0
H722 H 0.91179 0.408 0.70861 0.0
H723 H 0.93702 0.42286 0.70512 0.0
H724 H 0.93721 0.39433 0.72581 0.0
H725 H 0.89497 0.46264 0.9335 0.0
H726 H 0.90511 0.47703 0.87013 0.0
H727 H 0.88072 0.4609 0.8643 0.0
H728 H 0.91707 0.49227 0.67046 0.0
H729 H 0.85901 0.45243 0.66954 0.0
H730 H 0.9493 0.45862 0.75426 0.0
H731 H 0.93737 0.47622 0.80822 0.0
H732 H 0.94545 0.48732 0.73826 0.0
H733 H 0.87624 0.4106 0.75377 0.0
H734 H 0.85163 0.42648 0.74341 0.0
H735 H 0.86701 0.42844 0.81081 0.0
C736 C 0.97404 0.4059 0.18503 0.0
C737 C 0.96515 0.38607 0.16511 0.0
C738 C 0.96452 0.41719 0.23215 0.0
C739 C 0.94602 0.40811 0.26081 0.0
C740 C 0.9377 0.38753 0.2428 0.0
C741 C 0.94722 0.37686 0.1946 0.0
C742 C 0.97365 0.43928 0.24953 0.0
C743 C 0.91836 0.37709 0.2733 0.0
C744 C 0.93295 0.43345 0.40846 0.0
C745 C 0.91635 0.44836 0.39356 0.0
C746 C 0.94206 0.41944 0.36622 0.0
C747 C 0.93475 0.4208 0.30749 0.0
C748 C 0.91752 0.43535 0.29259 0.0
C749 C 0.90833 0.44878 0.33605 0.0
C750 C 0.95999 0.40371 0.38402 0.0
C751 C 0.90953 0.43753 0.23021 0.0
H752 H 0.98782 0.41313 0.16207 0.0
H753 H 0.94041 0.36145 0.17942 0.0
H754 H 0.96101 0.45212 0.24274 0.0
H755 H 0.97796 0.43935 0.29674 0.0
H756 H 0.98847 0.44374 0.22384 0.0
H757 H 0.91526 0.36012 0.25764 0.0
H758 H 0.92113 0.37667 0.32135 0.0
H759 H 0.90341 0.38704 0.26547 0.0
H760 H 0.93907 0.43298 0.45306 0.0
H761 H 0.89561 0.46041 0.3243 0.0
H762 H 0.97575 0.40886 0.36401 0.0
H763 H 0.95632 0.38697 0.3677 0.0
H764 H 0.96215 0.40301 0.43233 0.0
H765 H 0.92305 0.44364 0.20204 0.0
H766 H 0.89543 0.44899 0.22634 0.0
H767 H 0.90452 0.4213 0.21285 0.0
C768 C 0.04296 0.95853 0.94366 0.0
C769 C 0.03231 0.93889 0.92895 0.0
C770 C 0.05648 0.96934 0.90304 0.0
C771 C 0.0589 0.96055 0.84601 0.0
C772 C 0.04841 0.94056 0.83125 0.0
C773 C 0.03547 0.92984 0.87316 0.0
C774 C 0.06788 0.99028 0.92085 0.0
C775 C 0.05028 0.93083 0.77055 0.0
C776 C 0.07351 -0.00434 0.71458 0.0
C777 C 0.09462 0.988 0.70193 0.0
C778 C 0.06196 0.98768 0.76336 0.0
C779 C 0.0721 0.9722 0.80096 0.0
C780 C 0.09413 0.96594 0.79101 0.0
C781 C 0.10501 0.97364 0.74096 0.0
C782 C 0.03837 0.99449 0.77186 0.0
C783 C 0.10576 0.95005 0.83112 0.0
H784 H 0.0406 0.96556 0.98686 0.0
H785 H 0.02708 0.9148 0.86136 0.0
H786 H 0.08567 0.98916 0.91112 0.0
H787 H 0.06127 0.00423 0.89512 0.0
H788 H 0.06573 0.99397 0.96819 0.0
H789 H 0.04081 0.91536 0.76593 0.0
H790 H 0.04421 0.94275 0.73757 0.0
H791 H 0.06771 0.92738 0.76013 0.0
H792 H 0.06542 0.00663 0.68405 0.0
H793 H 0.12142 0.96782 0.73119 0.0
H794 H 0.0355 -0.00017 0.81767 0.0
H795 H 0.02748 0.98026 0.76341 0.0
H796 H 0.0336 0.00803 0.74189 0.0
H797 H 0.10299 0.95453 0.87767 0.0
H798 H 0.1237 0.94957 0.82267 0.0
H799 H 0.09906 0.93332 0.82448 0.0
C800 C 0.57083 0.041 0.36516 0.0
C801 C 0.56319 0.03993 0.42297 0.0
C802 C 0.55856 0.0516 0.3216 0.0
C803 C 0.5385 0.06189 0.33671 0.0
C804 C 0.53139 0.062 0.39574 0.0
C805 C 0.54367 0.0507 0.43809 0.0
C806 C 0.56649 0.05076 0.2589 0.0
C807 C 0.51047 0.07339 0.4138 0.0
C808 C 0.51754 0.10117 0.22108 0.0
C809 C 0.50217 0.08811 0.19167 0.0
C810 C 0.52856 0.09331 0.27071 0.0
C811 C 0.52461 0.07162 0.29002 0.0
C812 C 0.50852 0.05863 0.26162 0.0
C813 C 0.49722 0.0672 0.21316 0.0
C814 C 0.54509 0.10787 0.30091 0.0
C815 C 0.50413 0.03528 0.28028 0.0
H816 H 0.58576 0.03242 0.35321 0.0
H817 H 0.53778 0.04991 0.48288 0.0
H818 H 0.55439 0.0418 0.23156 0.0
H819 H 0.5679 0.06758 0.24082 0.0
H820 H 0.58264 0.04249 0.2547 0.0
H821 H 0.50855 0.07405 0.46219 0.0
H822 H 0.51012 0.09037 0.39631 0.0
H823 H 0.49618 0.06459 0.39511 0.0
H824 H 0.52125 0.11742 0.20451 0.0
H825 H 0.48547 0.05705 0.19002 0.0
H826 H 0.56188 0.10158 0.29273 0.0
H827 H 0.54242 0.10772 0.34901 0.0
H828 H 0.54423 0.12509 0.28513 0.0
H829 H 0.51923 0.02533 0.27471 0.0
H830 H 0.49075 0.02758 0.25447 0.0
H831 H 0.49967 0.03472 0.32736 0.0
C832 C 0.37548 0.54052 0.69071 0.0
C833 C 0.38749 0.5235 0.66466 0.0
C834 C 0.3837 0.55183 0.73952 0.0
C835 C 0.40463 0.5463 0.76171 0.0
C836 C 0.41654 0.52868 0.7366 0.0
C837 C 0.40768 0.5173 0.68871 0.0
C838 C 0.37029 0.57013 0.76612 0.0
C839 C 0.43907 0.5225 0.75856 0.0
C840 C 0.43936 0.58908 0.83843 0.0
C841 C 0.43889 0.58152 0.8964 0.0
C842 C 0.42763 0.57818 0.79432 0.0
C843 C 0.41475 0.55964 0.80896 0.0
C844 C 0.41297 0.55294 0.86812 0.0
C845 C 0.4253 0.56381 0.9111 0.0
C846 C 0.43015 0.58566 0.73158 0.0
C847 C 0.39893 0.53363 0.88561 0.0
H848 H 0.35978 0.54523 0.6723 0.0
H849 H 0.41706 0.50425 0.66836 0.0
H850 H 0.36913 0.56802 0.81432 0.0
H851 H 0.37848 0.58608 0.75795 0.0
H852 H 0.35345 0.57087 0.74765 0.0
H853 H 0.44588 0.50799 0.73535 0.0
H854 H 0.45048 0.5365 0.75242 0.0
H855 H 0.43849 0.51886 0.80615 0.0
H856 H 0.44999 0.60265 0.82683 0.0
H857 H 0.4248 0.55803 0.95602 0.0
H858 H 0.41385 0.58818 0.71115 0.0
H859 H 0.43871 0.57277 0.70593 0.0
H860 H 0.43966 0.60114 0.72801 0.0
H861 H 0.3824 0.53496 0.86557 0.0
H862 H 0.39708 0.53232 0.93392 0.0
H863 H 0.40646 0.51825 0.86919 0.0
C864 C 0.94942 0.04855 0.5542 0.0
C865 C 0.92956 0.03825 0.56839 0.0
C866 C 0.9612 0.0604 0.59652 0.0
C867 C 0.95317 0.0614 0.65464 0.0
C868 C 0.93278 0.0516 0.66871 0.0
C869 C 0.92107 0.04038 0.62516 0.0
C870 C 0.98254 0.0712 0.5795 0.0
C871 C 0.92388 0.05191 0.73052 0.0
C872 C 0.99266 0.06816 0.78177 0.0
C873 C 0.98765 0.08944 0.80044 0.0
C874 C 0.98191 0.05896 0.73328 0.0
C875 C 0.96647 0.0717 0.7017 0.0
C876 C 0.96251 0.09372 0.71819 0.0
C877 C 0.97287 0.1022 0.76813 0.0
C878 C 0.98624 0.03527 0.71775 0.0
C879 C 0.94668 0.10801 0.6846 0.0
H880 H 0.95598 0.04699 0.51023 0.0
H881 H 0.90585 0.03222 0.63647 0.0
H882 H 0.98294 0.0884 0.59539 0.0
H883 H -0.00359 0.06242 0.6004 0.0
H884 H 0.98513 0.07116 0.5313 0.0
H885 H 0.90755 0.04394 0.73388 0.0
H886 H 0.93542 0.04325 0.76018 0.0
H887 H 0.92244 0.06903 0.74646 0.0
H888 H 0.00397 0.05826 0.8072 0.0
H889 H 0.96909 0.11871 0.78265 0.0
H890 H 0.99333 0.03419 0.67309 0.0
H891 H 0.97064 0.0259 0.71749 0.0
H892 H -0.00232 0.02728 0.74902 0.0
H893 H 0.9501 0.10706 0.63689 0.0
H894 H 0.94754 0.12544 0.69856 0.0
H895 H 0.92969 0.10207 0.69155 0.0
C896 C 0.38525 0.96578 0.25769 0.0
C897 C 0.3944 0.9814 0.2955 0.0
C898 C 0.39679 0.95836 0.20838 0.0
C899 C 0.41822 0.96631 0.19777 0.0
C900 C 0.42706 0.98297 0.23409 0.0
C901 C 0.41487 0.99054 0.28227 0.0
C902 C 0.38653 0.94109 0.16967 0.0
C903 C 0.44999 0.99164 0.22478 0.0
C904 C 0.45795 0.92661 0.12634 0.0
C905 C 0.45994 0.93538 0.06987 0.0
C906 C 0.44445 0.9366 0.16832 0.0
C907 C 0.43222 0.9555 0.15294 0.0
C908 C 0.43355 0.964 0.09535 0.0
C909 C 0.44763 0.95399 0.05465 0.0
C910 C 0.44376 0.92726 0.22962 0.0
C911 C 0.42032 0.98377 0.07697 0.0
H912 H 0.36933 0.95882 0.2678 0.0
H913 H 0.42202 0.0025 0.31177 0.0
H914 H 0.38868 0.94539 0.12277 0.0
H915 H 0.39482 0.92513 0.17704 0.0
H916 H 0.36876 0.93901 0.17876 0.0
H917 H 0.45358 0.00599 0.25321 0.0
H918 H 0.46204 0.97852 0.23474 0.0
H919 H 0.45244 -0.00352 0.1784 0.0
H920 H 0.46762 0.91239 0.13849 0.0
H921 H 0.44909 0.96078 0.01092 0.0
H922 H 0.42676 0.92241 0.24097 0.0
H923 H 0.44894 0.93994 0.26167 0.0
H924 H 0.45457 0.91272 0.23469 0.0
H925 H 0.40268 0.98102 0.08641 0.0
H926 H 0.42223 0.98752 0.02959 0.0
H927 H 0.42552 -0.00167 0.10258 0.0
C928 C 0.51207 0.39922 0.8018 0.0
C929 C 0.51997 0.37939 0.82449 0.0
C930 C 0.52263 0.4095 0.75465 0.0
C931 C 0.54119 0.39941 0.72878 0.0
C932 C 0.54852 0.37881 0.74954 0.0
C933 C 0.53796 0.36916 0.7977 0.0
C934 C 0.51449 0.43162 0.73423 0.0
C935 C 0.56787 0.3673 0.72201 0.0
C936 C 0.55621 0.42305 0.58067 0.0
C937 C 0.5727 0.43802 0.59598 0.0
C938 C 0.5467 0.40934 0.62292 0.0
C939 C 0.55347 0.41108 0.68203 0.0
C940 C 0.5708 0.42547 0.69723 0.0
C941 C 0.58041 0.4386 0.65377 0.0
C942 C 0.52871 0.39374 0.60477 0.0
C943 C 0.57827 0.42801 0.75997 0.0
H944 H 0.49824 0.40725 0.82262 0.0
H945 H 0.544 0.35374 0.81501 0.0
H946 H 0.52751 0.44411 0.74066 0.0
H947 H 0.5107 0.43112 0.68672 0.0
H948 H 0.49958 0.43701 0.75822 0.0
H949 H 0.5701 0.35043 0.73939 0.0
H950 H 0.5658 0.36639 0.67376 0.0
H951 H 0.58306 0.37678 0.73062 0.0
H952 H 0.55035 0.42246 0.53583 0.0
H953 H 0.59305 0.45026 0.66579 0.0
H954 H 0.51275 0.39968 0.62196 0.0
H955 H 0.53161 0.37722 0.6236 0.0
H956 H 0.52741 0.39225 0.55637 0.0
H957 H 0.56476 0.43511 0.78653 0.0
H958 H 0.59284 0.43884 0.76391 0.0
H959 H 0.58232 0.4118 0.77911 0.0
C960 C 0.11166 0.53608 0.2976 0.0
C961 C 0.09958 0.51867 0.32144 0.0
C962 C 0.10384 0.5478 0.24902 0.0
C963 C 0.08322 0.54228 0.22483 0.0
C964 C 0.07128 0.52426 0.24762 0.0
C965 C 0.07976 0.51248 0.29531 0.0
C966 C 0.1173 0.56651 0.22488 0.0
C967 C 0.04906 0.51808 0.2235 0.0
C968 C 0.04897 0.58589 0.14987 0.0
C969 C 0.05 0.57909 0.09131 0.0
C970 C 0.06029 0.57442 0.19371 0.0
C971 C 0.07338 0.55612 0.17818 0.0
C972 C 0.07571 0.55018 0.11855 0.0
C973 C 0.06369 0.56155 0.07584 0.0
C974 C 0.05708 0.58102 0.25695 0.0
C975 C 0.09007 0.53122 0.10016 0.0
H976 H 0.12709 0.54078 0.31759 0.0
H977 H 0.07033 0.49912 0.31394 0.0
H978 H 0.11888 0.56502 0.17659 0.0
H979 H 0.10892 0.5823 0.23403 0.0
H980 H 0.13398 0.56714 0.24441 0.0
H981 H 0.04222 0.50322 0.24493 0.0
H982 H 0.03742 0.53186 0.23004 0.0
H983 H 0.05016 0.51503 0.17568 0.0
H984 H 0.03819 0.59929 0.16197 0.0
H985 H 0.06455 0.55635 0.03044 0.0
H986 H 0.07316 0.58352 0.27862 0.0
H987 H 0.04852 0.56767 0.28082 0.0
H988 H 0.04729 0.5963 0.26138 0.0
H989 H 0.1064 0.5324 0.12139 0.0
H990 H 0.09237 0.53057 0.05189 0.0
H991 H 0.08253 0.51558 0.1146 0.0
C992 C 0.89714 0.56171 0.35313 0.0
C993 C 0.91385 0.5541 0.39028 0.0
C994 C 0.9021 0.57185 0.29946 0.0
C995 C 0.92427 0.57413 0.28223 0.0
C996 C 0.94119 0.56802 0.32151 0.0
C997 C 0.93577 0.55825 0.37525 0.0
C998 C 0.88359 0.57873 0.25957 0.0
C999 C 0.96507 0.57017 0.30488 0.0
C1000 C 0.94099 0.56861 0.12309 0.0
C1001 C 0.94795 0.58997 0.10985 0.0
C1002 C 0.93219 0.5635 0.17819 0.0
C1003 C 0.92994 0.58022 0.22089 0.0
C1004 C 0.93522 0.60214 0.20621 0.0
C1005 C 0.9443 0.60675 0.15095 0.0
C1006 C 0.92674 0.53989 0.19201 0.0
C1007 C 0.93253 0.6205 0.24998 0.0
H1008 H 0.88013 0.55881 0.36463 0.0
H1009 H 0.94882 0.55252 0.40365 0.0
H1010 H 0.88704 0.59495 0.23955 0.0
H1011 H 0.88196 0.56668 0.22339 0.0
H1012 H 0.86769 0.5796 0.28323 0.0
H1013 H 0.97619 0.56651 0.34219 0.0
H1014 H 0.96888 0.55863 0.26864 0.0
H1015 H 0.9686 0.58697 0.28886 0.0
H1016 H 0.94364 0.55553 0.09169 0.0
H1017 H 0.94944 0.62335 0.14103 0.0
H1018 H 0.9099 0.5386 0.21004 0.0
H1019 H 0.93819 0.53364 0.22594 0.0
H1020 H 0.92797 0.52913 0.15283 0.0
H1021 H 0.91655 0.61919 0.27298 0.0
H1022 H 0.93363 0.63688 0.22884 0.0
H1023 H 0.94562 0.61934 0.2836 0.0
C1024 C 0.88835 0.93629 0.63716 0.0
C1025 C 0.9067 0.93942 0.6009 0.0
C1026 C 0.89078 0.92923 0.69541 0.0
C1027 C 0.91207 0.92566 0.71814 0.0
C1028 C 0.93049 0.92724 0.6805 0.0
C1029 C 0.92755 0.93386 0.62217 0.0
C1030 C 0.87069 0.92702 0.73357 0.0
C1031 C 0.95351 0.92365 0.70299 0.0
C1032 C 0.9262 0.93883 0.87584 0.0
C1033 C 0.93079 0.91793 0.89832 0.0
C1034 C 0.91885 0.9415 0.81802 0.0
C1035 C 0.91555 0.92278 0.78226 0.0
C1036 C 0.91814 0.90159 0.8065 0.0
C1037 C 0.92596 0.8994 0.86411 0.0
C1038 C 0.91637 0.96444 0.79384 0.0
C1039 C 0.91411 0.88123 0.77045 0.0
H1040 H 0.87215 0.94035 0.62091 0.0
H1041 H 0.94183 0.93623 0.59458 0.0
H1042 H 0.87173 0.91209 0.76122 0.0
H1043 H 0.86958 0.94136 0.76338 0.0
H1044 H 0.8554 0.92628 0.70715 0.0
H1045 H 0.96588 0.92393 0.66724 0.0
H1046 H 0.95769 0.93669 0.73505 0.0
H1047 H 0.95471 0.90771 0.72612 0.0
H1048 H 0.92991 0.95324 0.90186 0.0
H1049 H 0.92926 0.88317 0.88138 0.0
H1050 H 0.90025 0.96633 0.77193 0.0
H1051 H 0.92924 0.96744 0.76037 0.0
H1052 H 0.91784 0.97717 0.82844 0.0
H1053 H 0.89889 0.8829 0.74422 0.0
H1054 H 0.9128 0.86634 0.79831 0.0
H1055 H 0.9279 0.87885 0.73936 0.0
C1056 C 0.56657 0.94086 0.11585 0.0
C1057 C 0.56291 0.91974 0.09362 0.0
C1058 C 0.57415 0.94394 0.17332 0.0
C1059 C 0.57863 0.92544 0.20895 0.0
C1060 C 0.57702 0.90412 0.18481 0.0
C1061 C 0.56898 0.90151 0.12756 0.0
C1062 C 0.57559 0.96698 0.19739 0.0
C1063 C 0.5823 0.88402 0.2207 0.0
C1064 C 0.60578 0.94001 0.3534 0.0
C1065 C 0.58747 0.94218 0.39032 0.0
C1066 C 0.60343 0.93303 0.29505 0.0
C1067 C 0.58224 0.92849 0.27295 0.0
C1068 C 0.56394 0.92912 0.31119 0.0
C1069 C 0.56682 0.93573 0.36956 0.0
C1070 C 0.62343 0.93191 0.2562 0.0
C1071 C 0.54102 0.92444 0.28938 0.0
H1072 H 0.56192 0.95504 0.09003 0.0
H1073 H 0.56641 0.88512 0.11046 0.0
H1074 H 0.56269 0.96938 0.23113 0.0
H1075 H 0.59166 0.96967 0.21894 0.0
H1076 H 0.57339 0.9796 0.16278 0.0
H1077 H 0.5842 0.8692 0.19281 0.0
H1078 H 0.59758 0.88647 0.24625 0.0
H1079 H 0.56885 0.88097 0.25239 0.0
H1080 H 0.62186 0.94476 0.36922 0.0
H1081 H 0.55257 0.93734 0.39765 0.0
H1082 H 0.62365 0.94632 0.22654 0.0
H1083 H 0.62303 0.91699 0.22838 0.0
H1084 H 0.63886 0.93192 0.28208 0.0
H1085 H 0.53608 0.93727 0.25749 0.0
H1086 H 0.5288 0.92413 0.32549 0.0
H1087 H 0.5405 0.90846 0.26622 0.0
C1088 C 0.59073 0.55117 0.6412 0.0
C1089 C 0.5738 0.54385 0.60432 0.0
C1090 C 0.58607 0.56176 0.69444 0.0
C1091 C 0.56398 0.56487 0.71149 0.0
C1092 C 0.54687 0.55881 0.67275 0.0
C1093 C 0.55199 0.54851 0.61947 0.0
C1094 C 0.60478 0.56843 0.73393 0.0
C1095 C 0.52307 0.56183 0.68927 0.0
C1096 C 0.54709 0.56305 0.87116 0.0
C1097 C 0.5411 0.58494 0.88152 0.0
C1098 C 0.55563 0.55652 0.81681 0.0
C1099 C 0.55853 0.57229 0.77191 0.0
C1100 C 0.5542 0.59466 0.78359 0.0
C1101 C 0.54543 0.60072 0.83819 0.0
C1102 C 0.5601 0.53247 0.80621 0.0
C1103 C 0.55753 0.61202 0.73729 0.0
H1104 H 0.60764 0.54783 0.62965 0.0
H1105 H 0.53879 0.54298 0.59133 0.0
H1106 H 0.60207 0.58515 0.75167 0.0
H1107 H 0.60567 0.55703 0.77176 0.0
H1108 H 0.62079 0.56806 0.71073 0.0
H1109 H 0.5118 0.55784 0.65252 0.0
H1110 H 0.51902 0.55104 0.72691 0.0
H1111 H 0.52 0.57898 0.70326 0.0
H1112 H 0.54392 0.55072 0.9043 0.0
H1113 H 0.54103 0.61771 0.84586 0.0
H1114 H 0.5768 0.53016 0.78795 0.0
H1115 H 0.54827 0.52603 0.7735 0.0
H1116 H 0.55862 0.52257 0.84688 0.0
H1117 H 0.57358 0.60983 0.71514 0.0
H1118 H 0.55675 0.62884 0.7559 0.0
H1119 H 0.54459 0.61047 0.70337 0.0
C1120 C 0.08949 0.43128 0.63338 0.0
C1121 C 0.07285 0.43845 0.59538 0.0
C1122 C 0.08442 0.42136 0.68725 0.0
C1123 C 0.0622 0.41881 0.70373 0.0
C1124 C 0.04539 0.4244 0.66358 0.0
C1125 C 0.05093 0.434 0.6097 0.0
C1126 C 0.10282 0.41506 0.72814 0.0
C1127 C 0.02146 0.42191 0.67937 0.0
C1128 C 0.04233 0.38664 0.83592 0.0
C1129 C 0.03824 0.40358 0.87622 0.0
C1130 C 0.05146 0.39109 0.78063 0.0
C1131 C 0.05633 0.41302 0.76511 0.0
C1132 C 0.05359 0.42996 0.80697 0.0
C1133 C 0.04474 0.42501 0.86213 0.0
C1134 C 0.05464 0.37252 0.73774 0.0
C1135 C 0.05859 0.45359 0.7922 0.0
H1136 H 0.10651 0.43441 0.62243 0.0
H1137 H 0.03794 0.43936 0.58061 0.0
H1138 H 0.10402 0.42733 0.76389 0.0
H1139 H 0.09957 0.39889 0.74868 0.0
H1140 H 0.11887 0.41436 0.70516 0.0
H1141 H 0.01049 0.42506 0.64143 0.0
H1142 H 0.01816 0.40517 0.6962 0.0
H1143 H 0.01723 0.43366 0.71479 0.0
H1144 H 0.03754 0.36999 0.84652 0.0
H1145 H 0.04173 0.43822 0.8929 0.0
H1146 H 0.07071 0.37395 0.71524 0.0
H1147 H 0.04171 0.37327 0.70362 0.0
H1148 H 0.05371 0.35625 0.75952 0.0
H1149 H 0.07549 0.45511 0.77468 0.0
H1150 H 0.05695 0.46458 0.8308 0.0
H1151 H 0.04718 0.45936 0.75758 0.0
C1152 C 0.06571 0.05101 0.11309 0.0
C1153 C 0.0621 0.07229 0.09185 0.0
C1154 C 0.07327 0.04753 0.17041 0.0
C1155 C 0.0778 0.06578 0.20691 0.0
C1156 C 0.0763 0.08725 0.18373 0.0
C1157 C 0.06824 0.09028 0.12662 0.0
C1158 C 0.07454 0.02433 0.19343 0.0
C1159 C 0.08169 0.10709 0.22053 0.0
C1160 C 0.06555 0.05504 0.36712 0.0
C1161 C 0.08612 0.04847 0.38825 0.0
C1162 C 0.06284 0.06171 0.30875 0.0
C1163 C 0.08124 0.0623 0.27085 0.0
C1164 C 0.10234 0.05747 0.2932 0.0
C1165 C 0.10451 0.05037 0.35152 0.0
C1166 C 0.04 0.06661 0.28663 0.0
C1167 C 0.12244 0.05855 0.25472 0.0
H1168 H 0.06103 0.03701 0.08662 0.0
H1169 H 0.06571 0.10679 0.11031 0.0
H1170 H 0.09053 0.02142 0.21518 0.0
H1171 H 0.06153 0.02179 0.22677 0.0
H1172 H 0.07239 0.01194 0.15818 0.0
H1173 H 0.08372 0.12206 0.1933 0.0
H1174 H 0.06823 0.11006 0.25228 0.0
H1175 H 0.09693 0.10436 0.24607 0.0
H1176 H 0.05124 0.0536 0.39505 0.0
H1177 H 0.1205 0.0455 0.36763 0.0
H1178 H 0.03515 0.05406 0.25384 0.0
H1179 H 0.0396 0.08278 0.26443 0.0
H1180 H 0.02765 0.06667 0.32242 0.0
H1181 H 0.12255 0.04433 0.22438 0.0
H1182 H 0.13781 0.05818 0.28083 0.0
H1183 H 0.12228 0.07365 0.2276 0.0
C1184 C 0.42239 0.04934 0.62885 0.0
C1185 C 0.40193 0.0422 0.60828 0.0
C1186 C 0.42514 0.056 0.68722 0.0
C1187 C 0.40691 0.05595 0.72572 0.0
C1188 C 0.38588 0.05046 0.70403 0.0
C1189 C 0.38367 0.04345 0.64566 0.0
C1190 C 0.4479 0.06165 0.70862 0.0
C1191 C 0.36594 0.05079 0.74323 0.0
C1192 C 0.4236 0.04542 0.88299 0.0
C1193 C 0.42646 0.06685 0.90398 0.0
C1194 C 0.41591 0.04158 0.82596 0.0
C1195 C 0.4105 0.0596 0.78952 0.0
C1196 C 0.41125 0.08114 0.81251 0.0
C1197 C 0.41942 0.08454 0.86934 0.0
C1198 C 0.41541 0.01832 0.80313 0.0
C1199 C 0.40496 0.10072 0.77573 0.0
H1200 H 0.4366 0.04841 0.60042 0.0
H1201 H 0.36775 0.03813 0.63001 0.0
H1202 H 0.44784 0.07782 0.73089 0.0
H1203 H 0.45332 0.04926 0.74119 0.0
H1204 H 0.46008 0.06213 0.67244 0.0
H1205 H 0.35046 0.04981 0.71771 0.0
H1206 H 0.36656 0.0366 0.77362 0.0
H1207 H 0.36565 0.0659 0.77031 0.0
H1208 H 0.42898 0.03164 0.90937 0.0
H1209 H 0.42135 0.10115 0.88547 0.0
H1210 H 0.42842 0.0162 0.76957 0.0
H1211 H 0.39948 0.01482 0.78168 0.0
H1212 H 0.4181 0.00607 0.83843 0.0
H1213 H 0.41813 0.10409 0.74341 0.0
H1214 H 0.40255 0.11566 0.80287 0.0
H1215 H 0.38968 0.09742 0.75084 0.0
C1216 C 0.44025 0.42707 0.11813 0.0
C1217 C 0.44604 0.40514 0.10763 0.0
C1218 C 0.43166 0.4336 0.17242 0.0
C1219 C 0.4285 0.4178 0.21711 0.0
C1220 C 0.43266 0.3954 0.20527 0.0
C1221 C 0.44148 0.38934 0.15073 0.0
C1222 C 0.42739 0.45768 0.18321 0.0
C1223 C 0.42906 0.37801 0.25134 0.0
C1224 C 0.43485 0.44122 0.37 0.0
C1225 C 0.41305 0.44601 0.38486 0.0
C1226 C 0.44002 0.43101 0.31665 0.0
C1227 C 0.42296 0.42517 0.27752 0.0
C1228 C 0.40085 0.42842 0.29421 0.0
C1229 C 0.39615 0.43892 0.34756 0.0
C1230 C 0.46384 0.42782 0.30051 0.0
C1231 C 0.3822 0.422 0.25427 0.0
H1232 H 0.44361 0.43941 0.08517 0.0
H1233 H 0.44572 0.37232 0.14295 0.0
H1234 H 0.41068 0.46012 0.20123 0.0
H1235 H 0.4392 0.46396 0.21619 0.0
H1236 H 0.42905 0.46763 0.14267 0.0
H1237 H 0.42977 0.3612 0.23259 0.0
H1238 H 0.44191 0.37942 0.28554 0.0
H1239 H 0.41297 0.38029 0.27317 0.0
H1240 H 0.44803 0.44658 0.39847 0.0
H1241 H 0.37923 0.44236 0.35886 0.0
H1242 H 0.46807 0.43865 0.26308 0.0
H1243 H 0.46681 0.41068 0.28634 0.0
H1244 H 0.47505 0.43166 0.3375 0.0
H1245 H 0.38153 0.43345 0.21654 0.0
H1246 H 0.36612 0.42249 0.27714 0.0
H1247 H 0.38479 0.40527 0.23642 0.0
loop_
_geom_bond_atom_site_label_1
_geom_bond_atom_site_label_2
_geom_bond_distance
_geom_bond_site_symmetry_2
_ccdc_geom_bond_type
C0 O1 1.306 . S
C0 O3 1.160 . S
O1 C0 1.306 . S
O1 Cd2 2.228 1_655 S
Cd2 O1 2.228 1_455 S
Cd2 O6 2.273 . S
Cd2 O10 2.277 . S
O3 C0 1.160 . S
O3 Cd4 2.203 1_655 S
Cd4 O3 2.203 1_455 S
Cd4 O6 2.411 . S
Cd4 O7 2.333 . S
Cd4 O8 2.352 1_455 S
Cd4 O12 2.277 . S
Cd4 O13 2.356 . S
C5 O10 1.209 . S
C5 O12 1.226 . S
O6 Cd2 2.273 . S
O6 Cd4 2.411 . S
O6 C9 1.320 . S
O7 Cd4 2.333 . S
O7 C9 1.214 . S
O8 Cd4 2.352 1_655 S
O8 C11 1.258 1_655 S
C9 O6 1.320 . S
C9 O7 1.214 . S
O10 Cd2 2.277 . S
O10 C5 1.209 . S
C11 O8 1.258 1_455 S
C11 O13 1.282 . S
O12 Cd4 2.277 . S
O12 C5 1.226 . S
O13 Cd4 2.356 . S
O13 C11 1.282 . S
C14 O15 1.306 . S
C14 O17 1.160 . S
O15 C14 1.306 . S
O15 Cd16 2.228 1_565 S
Cd16 O15 2.228 1_545 S
Cd16 O20 2.273 . S
Cd16 O24 2.277 . S
O17 C14 1.160 . S
O17 Cd18 2.203 1_565 S
Cd18 O17 2.203 1_545 S
Cd18 O20 2.411 . S
Cd18 O21 2.333 . S
Cd18 O22 2.352 1_545 S
Cd18 O26 2.277 . S
Cd18 O27 2.356 . S
C19 O24 1.209 . S
C19 O26 1.226 . S
O20 Cd16 2.273 . S
O20 Cd18 2.411 . S
O20 C23 1.320 . S
O21 Cd18 2.333 . S
O21 C23 1.214 . S
O22 Cd18 2.352 1_565 S
O22 C25 1.258 1_565 S
C23 O20 1.320 . S
C23 O21 1.214 . S
O24 Cd16 2.277 . S
O24 C19 1.209 . S
C25 O22 1.258 1_545 S
C25 O27 1.282 . S
O26 Cd18 2.277 . S
O26 C19 1.226 . S
O27 Cd18 2.356 . S
O27 C25 1.282 . S
C28 O29 1.306 . S
C28 O31 1.160 . S
O29 C28 1.306 . S
O29 Cd30 2.228 . S
Cd30 O29 2.228 . S
Cd30 O34 2.273 . S
Cd30 O38 2.277 . S
O31 C28 1.160 . S
O31 Cd32 2.203 . S
Cd32 O31 2.203 . S
Cd32 O34 2.411 . S
Cd32 O35 2.333 . S
Cd32 O36 2.352 . S
Cd32 O40 2.277 . S
Cd32 O41 2.356 . S
C33 O38 1.209 . S
C33 O40 1.226 . S
O34 Cd30 2.273 . S
O34 Cd32 2.411 . S
O34 C37 1.320 . S
O35 Cd32 2.333 . S
O35 C37 1.214 . S
O36 Cd32 2.352 . S
O36 C39 1.258 . S
C37 O34 1.320 . S
C37 O35 1.214 . S
O38 Cd30 2.277 . S
O38 C33 1.209 . S
C39 O36 1.258 . S
C39 O41 1.282 . S
O40 Cd32 2.277 . S
O40 C33 1.226 . S
O41 Cd32 2.356 . S
O41 C39 1.282 . S
C42 O43 1.306 . S
C42 O45 1.160 . S
O43 C42 1.306 . S
O43 Cd44 2.228 . S
Cd44 O43 2.228 . S
Cd44 O48 2.273 . S
Cd44 O52 2.277 . S
O45 C42 1.160 . S
O45 Cd46 2.203 . S
Cd46 O45 2.203 . S
Cd46 O48 2.411 . S
Cd46 O49 2.333 . S
Cd46 O50 2.352 . S
Cd46 O54 2.277 . S
Cd46 O55 2.356 . S
C47 O52 1.209 . S
C47 O54 1.226 . S
O48 Cd44 2.273 . S
O48 Cd46 2.411 . S
O48 C51 1.320 . S
O49 Cd46 2.333 . S
O49 C51 1.214 . S
O50 Cd46 2.352 . S
O50 C53 1.258 . S
C51 O48 1.320 . S
C51 O49 1.214 . S
O52 Cd44 2.277 . S
O52 C47 1.209 . S
C53 O50 1.258 . S
C53 O55 1.282 . S
O54 Cd46 2.277 . S
O54 C47 1.226 . S
O55 Cd46 2.356 . S
O55 C53 1.282 . S
C56 O57 1.306 . S
C56 O59 1.160 . S
O57 C56 1.306 . S
O57 Cd58 2.228 1_655 S
Cd58 O57 2.228 1_455 S
Cd58 O62 2.273 . S
Cd58 O66 2.277 . S
O59 C56 1.160 . S
O59 Cd60 2.203 1_655 S
Cd60 O59 2.203 1_455 S
Cd60 O62 2.411 . S
Cd60 O63 2.333 . S
Cd60 O64 2.352 1_455 S
Cd60 O68 2.277 . S
Cd60 O69 2.356 . S
C61 O66 1.209 . S
C61 O68 1.226 . S
O62 Cd58 2.273 . S
O62 Cd60 2.411 . S
O62 C65 1.320 . S
O63 Cd60 2.333 . S
O63 C65 1.214 . S
O64 Cd60 2.352 1_655 S
O64 C67 1.258 1_655 S
C65 O62 1.320 . S
C65 O63 1.214 . S
O66 Cd58 2.277 . S
O66 C61 1.209 . S
C67 O64 1.258 1_455 S
C67 O69 1.282 . S
O68 Cd60 2.277 . S
O68 C61 1.226 . S
O69 Cd60 2.356 . S
O69 C67 1.282 . S
C70 O71 1.306 . S
C70 O73 1.160 . S
O71 C70 1.306 . S
O71 Cd72 2.228 1_565 S
Cd72 O71 2.228 1_545 S
Cd72 O76 2.273 . S
Cd72 O80 2.277 . S
O73 C70 1.160 . S
O73 Cd74 2.203 1_565 S
Cd74 O73 2.203 1_545 S
Cd74 O76 2.411 . S
Cd74 O77 2.333 . S
Cd74 O78 2.352 1_545 S
Cd74 O82 2.277 . S
Cd74 O83 2.356 . S
C75 O80 1.209 . S
C75 O82 1.226 . S
O76 Cd72 2.273 . S
O76 Cd74 2.411 . S
O76 C79 1.320 . S
O77 Cd74 2.333 . S
O77 C79 1.214 . S
O78 Cd74 2.352 1_565 S
O78 C81 1.258 1_565 S
C79 O76 1.320 . S
C79 O77 1.214 . S
O80 Cd72 2.277 . S
O80 C75 1.209 . S
C81 O78 1.258 1_545 S
C81 O83 1.282 . S
O82 Cd74 2.277 . S
O82 C75 1.226 . S
O83 Cd74 2.356 . S
O83 C81 1.282 . S
C84 O85 1.306 . S
C84 O87 1.160 . S
O85 C84 1.306 . S
O85 Cd86 2.228 . S
Cd86 O85 2.228 . S
Cd86 O90 2.273 . S
Cd86 O94 2.277 . S
O87 C84 1.160 . S
O87 Cd88 2.203 . S
Cd88 O87 2.203 . S
Cd88 O90 2.411 . S
Cd88 O91 2.333 . S
Cd88 O92 2.352 . S
Cd88 O96 2.277 . S
Cd88 O97 2.356 . S
C89 O94 1.209 . S
C89 O96 1.226 . S
O90 Cd86 2.273 . S
O90 Cd88 2.411 . S
O90 C93 1.320 . S
O91 Cd88 2.333 . S
O91 C93 1.214 . S
O92 Cd88 2.352 . S
O92 C95 1.258 . S
C93 O90 1.320 . S
C93 O91 1.214 . S
O94 Cd86 2.277 . S
O94 C89 1.209 . S
C95 O92 1.258 . S
C95 O97 1.282 . S
O96 Cd88 2.277 . S
O96 C89 1.226 . S
O97 Cd88 2.356 . S
O97 C95 1.282 . S
C98 O99 1.306 . S
C98 O101 1.160 . S
O99 C98 1.306 . S
O99 Cd100 2.228 . S
Cd100 O99 2.228 . S
Cd100 O104 2.273 . S
Cd100 O108 2.277 . S
O101 C98 1.160 . S
O101 Cd102 2.203 . S
Cd102 O101 2.203 . S
Cd102 O104 2.411 . S
Cd102 O105 2.333 . S
Cd102 O106 2.352 . S
Cd102 O110 2.277 . S
Cd102 O111 2.356 . S
C103 O108 1.209 . S
C103 O110 1.226 . S
O104 Cd100 2.273 . S
O104 Cd102 2.411 . S
O104 C107 1.320 . S
O105 Cd102 2.333 . S
O105 C107 1.214 . S
O106 Cd102 2.352 . S
O106 C109 1.258 . S
C107 O104 1.320 . S
C107 O105 1.214 . S
O108 Cd100 2.277 . S
O108 C103 1.209 . S
C109 O106 1.258 . S
C109 O111 1.282 . S
O110 Cd102 2.277 . S
O110 C103 1.226 . S
O111 Cd102 2.356 . S
O111 C109 1.282 . S
C112 O113 1.306 . S
C112 O115 1.160 . S
O113 C112 1.306 . S
O113 Cd114 2.228 1_455 S
Cd114 O113 2.228 1_655 S
Cd114 O118 2.273 . S
Cd114 O122 2.277 . S
O115 C112 1.160 . S
O115 Cd116 2.203 1_455 S
Cd116 O115 2.203 1_655 S
Cd116 O118 2.411 . S
Cd116 O119 2.333 . S
Cd116 O120 2.352 1_655 S
Cd116 O124 2.277 . S
Cd116 O125 2.356 . S
C117 O122 1.209 . S
C117 O124 1.226 . S
O118 Cd114 2.273 . S
O118 Cd116 2.411 . S
O118 C121 1.320 . S
O119 Cd116 2.333 . S
O119 C121 1.214 . S
O120 Cd116 2.352 1_455 S
O120 C123 1.258 1_455 S
C121 O118 1.320 . S
C121 O119 1.214 . S
O122 Cd114 2.277 . S
O122 C117 1.209 . S
C123 O120 1.258 1_655 S
C123 O125 1.282 . S
O124 Cd116 2.277 . S
O124 C117 1.226 . S
O125 Cd116 2.356 . S
O125 C123 1.282 . S
C126 O127 1.306 . S
C126 O129 1.160 . S
O127 C126 1.306 . S
O127 Cd128 2.228 1_545 S
Cd128 O127 2.228 1_565 S
Cd128 O132 2.273 . S
Cd128 O136 2.277 . S
O129 C126 1.160 . S
O129 Cd130 2.203 1_545 S
Cd130 O129 2.203 1_565 S
Cd130 O132 2.411 . S
Cd130 O133 2.333 . S
Cd130 O134 2.352 1_565 S
Cd130 O138 2.277 . S
Cd130 O139 2.356 . S
C131 O136 1.209 . S
C131 O138 1.226 . S
O132 Cd128 2.273 . S
O132 Cd130 2.411 . S
O132 C135 1.320 . S
O133 Cd130 2.333 . S
O133 C135 1.214 . S
O134 Cd130 2.352 1_545 S
O134 C137 1.258 1_545 S
C135 O132 1.320 . S
C135 O133 1.214 . S
O136 Cd128 2.277 . S
O136 C131 1.209 . S
C137 O134 1.258 1_565 S
C137 O139 1.282 . S
O138 Cd130 2.277 . S
O138 C131 1.226 . S
O139 Cd130 2.356 . S
O139 C137 1.282 . S
C140 O141 1.306 . S
C140 O143 1.160 . S
O141 C140 1.306 . S
O141 Cd142 2.228 . S
Cd142 O141 2.228 . S
Cd142 O146 2.273 . S
Cd142 O150 2.277 . S
O143 C140 1.160 . S
O143 Cd144 2.203 . S
Cd144 O143 2.203 . S
Cd144 O146 2.411 . S
Cd144 O147 2.333 . S
Cd144 O148 2.352 . S
Cd144 O152 2.277 . S
Cd144 O153 2.356 . S
C145 O150 1.209 . S
C145 O152 1.226 . S
O146 Cd142 2.273 . S
O146 Cd144 2.411 . S
O146 C149 1.320 . S
O147 Cd144 2.333 . S
O147 C149 1.214 . S
O148 Cd144 2.352 . S
O148 C151 1.258 . S
C149 O146 1.320 . S
C149 O147 1.214 . S
O150 Cd142 2.277 . S
O150 C145 1.209 . S
C151 O148 1.258 . S
C151 O153 1.282 . S
O152 Cd144 2.277 . S
O152 C145 1.226 . S
O153 Cd144 2.356 . S
O153 C151 1.282 . S
C154 O155 1.306 . S
C154 O157 1.160 . S
O155 C154 1.306 . S
O155 Cd156 2.228 . S
Cd156 O155 2.228 . S
Cd156 O160 2.273 . S
Cd156 O164 2.277 . S
O157 C154 1.160 . S
O157 Cd158 2.203 . S
Cd158 O157 2.203 . S
Cd158 O160 2.411 . S
Cd158 O161 2.333 . S
Cd158 O162 2.352 . S
Cd158 O166 2.277 . S
Cd158 O167 2.356 . S
C159 O164 1.209 . S
C159 O166 1.226 . S
O160 Cd156 2.273 . S
O160 Cd158 2.411 . S
O160 C163 1.320 . S
O161 Cd158 2.333 . S
O161 C163 1.214 . S
O162 Cd158 2.352 . S
O162 C165 1.258 . S
C163 O160 1.320 . S
C163 O161 1.214 . S
O164 Cd156 2.277 . S
O164 C159 1.209 . S
C165 O162 1.258 . S
C165 O167 1.282 . S
O166 Cd158 2.277 . S
O166 C159 1.226 . S
O167 Cd158 2.356 . S
O167 C165 1.282 . S
C168 O169 1.306 . S
C168 O171 1.160 . S
O169 C168 1.306 . S
O169 Cd170 2.228 1_455 S
Cd170 O169 2.228 1_655 S
Cd170 O174 2.273 . S
Cd170 O178 2.277 . S
O171 C168 1.160 . S
O171 Cd172 2.203 1_455 S
Cd172 O171 2.203 1_655 S
Cd172 O174 2.411 . S
Cd172 O175 2.333 . S
Cd172 O176 2.352 1_655 S
Cd172 O180 2.277 . S
Cd172 O181 2.356 . S
C173 O178 1.209 . S
C173 O180 1.226 . S
O174 Cd170 2.273 . S
O174 Cd172 2.411 . S
O174 C177 1.320 . S
O175 Cd172 2.333 . S
O175 C177 1.214 . S
O176 Cd172 2.352 1_455 S
O176 C179 1.258 1_455 S
C177 O174 1.320 . S
C177 O175 1.214 . S
O178 Cd170 2.277 . S
O178 C173 1.209 . S
C179 O176 1.258 1_655 S
C179 O181 1.282 . S
O180 Cd172 2.277 . S
O180 C173 1.226 . S
O181 Cd172 2.356 . S
O181 C179 1.282 . S
C182 O183 1.306 . S
C182 O185 1.160 . S
O183 C182 1.306 . S
O183 Cd184 2.228 1_545 S
Cd184 O183 2.228 1_565 S
Cd184 O188 2.273 . S
Cd184 O192 2.277 . S
O185 C182 1.160 . S
O185 Cd186 2.203 1_545 S
Cd186 O185 2.203 1_565 S
Cd186 O188 2.411 . S
Cd186 O189 2.333 . S
Cd186 O190 2.352 1_565 S
Cd186 O194 2.277 . S
Cd186 O195 2.356 . S
C187 O192 1.209 . S
C187 O194 1.226 . S
O188 Cd184 2.273 . S
O188 Cd186 2.411 . S
O188 C191 1.320 . S
O189 Cd186 2.333 . S
O189 C191 1.214 . S
O190 Cd186 2.352 1_545 S
O190 C193 1.258 1_545 S
C191 O188 1.320 . S
C191 O189 1.214 . S
O192 Cd184 2.277 . S
O192 C187 1.209 . S
C193 O190 1.258 1_565 S
C193 O195 1.282 . S
O194 Cd186 2.277 . S
O194 C187 1.226 . S
O195 Cd186 2.356 . S
O195 C193 1.282 . S
C196 O197 1.306 . S
C196 O199 1.160 . S
O197 C196 1.306 . S
O197 Cd198 2.228 . S
Cd198 O197 2.228 . S
Cd198 O202 2.273 . S
Cd198 O206 2.277 . S
O199 C196 1.160 . S
O199 Cd200 2.203 . S
Cd200 O199 2.203 . S
Cd200 O202 2.411 . S
Cd200 O203 2.333 . S
Cd200 O204 2.352 . S
Cd200 O208 2.277 . S
Cd200 O209 2.356 . S
C201 O206 1.209 . S
C201 O208 1.226 . S
O202 Cd198 2.273 . S
O202 Cd200 2.411 . S
O202 C205 1.320 . S
O203 Cd200 2.333 . S
O203 C205 1.214 . S
O204 Cd200 2.352 . S
O204 C207 1.258 . S
C205 O202 1.320 . S
C205 O203 1.214 . S
O206 Cd198 2.277 . S
O206 C201 1.209 . S
C207 O204 1.258 . S
C207 O209 1.282 . S
O208 Cd200 2.277 . S
O208 C201 1.226 . S
O209 Cd200 2.356 . S
O209 C207 1.282 . S
C210 O211 1.306 . S
C210 O213 1.160 . S
O211 C210 1.306 . S
O211 Cd212 2.228 . S
Cd212 O211 2.228 . S
Cd212 O216 2.273 . S
Cd212 O220 2.277 . S
O213 C210 1.160 . S
O213 Cd214 2.203 . S
Cd214 O213 2.203 . S
Cd214 O216 2.411 . S
Cd214 O217 2.333 . S
Cd214 O218 2.352 . S
Cd214 O222 2.277 . S
Cd214 O223 2.356 . S
C215 O220 1.209 . S
C215 O222 1.226 . S
O216 Cd212 2.273 . S
O216 Cd214 2.411 . S
O216 C219 1.320 . S
O217 Cd214 2.333 . S
O217 C219 1.214 . S
O218 Cd214 2.352 . S
O218 C221 1.258 . S
C219 O216 1.320 . S
C219 O217 1.214 . S
O220 Cd212 2.277 . S
O220 C215 1.209 . S
C221 O218 1.258 . S
C221 O223 1.282 . S
O222 Cd214 2.277 . S
O222 C215 1.226 . S
O223 Cd214 2.356 . S
O223 C221 1.282 . S
C224 C225 1.391 . S
C224 C226 1.394 1_554 S
C224 H240 0.931 . S
C225 C224 1.391 . S
C225 C229 1.376 1_455 S
C226 C224 1.394 1_556 S
C226 C227 1.377 1_556 S
C226 C230 1.531 . S
C227 C226 1.377 1_554 S
C227 C228 1.401 1_455 S
C227 C235 1.504 1_554 S
C228 C227 1.401 1_655 S
C228 C229 1.392 . S
C228 C231 1.511 . S
C229 C225 1.376 1_655 S
C229 C228 1.392 . S
C229 H241 0.929 . S
C230 C226 1.531 . S
C230 H242 0.960 . S
C230 H243 0.962 . S
C230 H244 0.960 . S
C231 C228 1.511 . S
C231 H245 0.961 . S
C231 H246 0.961 . S
C231 H247 0.961 . S
C232 C233 1.370 . S
C232 C234 1.363 1_556 S
C232 H248 0.931 1_556 S
C233 C232 1.370 . S
C233 C237 1.408 1_455 S
C234 C232 1.363 1_554 S
C234 C235 1.370 1_554 S
C234 C238 1.524 . S
C235 C227 1.504 1_556 S
C235 C234 1.370 1_556 S
C235 C236 1.403 1_455 S
C236 C235 1.403 1_655 S
C236 C237 1.404 . S
C236 C239 1.539 . S
C237 C233 1.408 1_655 S
C237 C236 1.404 . S
C237 H249 0.930 . S
C238 C234 1.524 . S
C238 H250 0.956 . S
C238 H251 0.961 . S
C238 H252 0.961 . S
C239 C236 1.539 . S
C239 H253 0.958 . S
C239 H254 0.961 . S
C239 H255 0.960 . S
H240 C224 0.931 . S
H241 C229 0.929 . S
H242 C230 0.960 . S
H243 C230 0.962 . S
H244 C230 0.960 . S
H245 C231 0.961 . S
H246 C231 0.961 . S
H247 C231 0.961 . S
H248 C232 0.931 1_554 S
H249 C237 0.930 . S
H250 C238 0.956 . S
H251 C238 0.961 . S
H252 C238 0.961 . S
H253 C239 0.958 . S
H254 C239 0.961 . S
H255 C239 0.960 . S
C256 C257 1.391 . S
C256 C258 1.394 . S
C256 H272 0.931 . S
C257 C256 1.391 . S
C257 C261 1.376 1_545 S
C258 C256 1.394 . S
C258 C259 1.369 1_545 S
C258 C262 1.531 . S
C259 C258 1.369 1_565 S
C259 C260 1.410 . S
C259 C267 1.505 . S
C260 C259 1.410 . S
C260 C261 1.392 . S
C260 C263 1.511 . S
C261 C257 1.376 1_565 S
C261 C260 1.392 . S
C261 H273 0.929 . S
C262 C258 1.531 . S
C262 H274 0.960 1_545 S
C262 H275 0.962 . S
C262 H276 0.946 1_545 S
C263 C260 1.511 . S
C263 H277 0.961 . S
C263 H278 0.961 . S
C263 H279 0.961 . S
C264 C265 1.370 . S
C264 C266 1.363 . S
C264 H280 0.931 . S
C265 C264 1.370 . S
C265 C269 1.408 1_545 S
C266 C264 1.363 . S
C266 C267 1.351 1_545 S
C266 C270 1.524 . S
C267 C259 1.505 . S
C267 C266 1.351 1_565 S
C267 C268 1.421 . S
C268 C267 1.421 . S
C268 C269 1.404 . S
C268 C271 1.539 . S
C269 C265 1.408 1_565 S
C269 C268 1.404 . S
C269 H281 0.930 . S
C270 C266 1.524 . S
C270 H282 0.956 . S
C270 H283 0.961 . S
C270 H284 0.961 . S
C271 C268 1.539 . S
C271 H285 0.958 . S
C271 H286 0.961 . S
C271 H287 0.960 . S
H272 C256 0.931 . S
H273 C261 0.929 . S
H274 C262 0.960 1_565 S
H275 C262 0.962 . S
H276 C262 0.946 1_565 S
H277 C263 0.961 . S
H278 C263 0.961 . S
H279 C263 0.961 . S
H280 C264 0.931 . S
H281 C269 0.930 . S
H282 C270 0.956 . S
H283 C270 0.961 . S
H284 C270 0.961 . S
H285 C271 0.958 . S
H286 C271 0.961 . S
H287 C271 0.960 . S
C288 C289 1.391 . S
C288 C290 1.394 1_554 S
C288 H304 0.931 . S
C289 C288 1.391 . S
C289 C293 1.376 . S
C290 C288 1.394 1_556 S
C290 C291 1.369 1_556 S
C290 C294 1.531 . S
C291 C290 1.369 1_554 S
C291 C292 1.410 . S
C291 C299 1.503 1_554 S
C292 C291 1.410 . S
C292 C293 1.392 . S
C292 C295 1.511 . S
C293 C289 1.376 . S
C293 C292 1.392 . S
C293 H305 0.929 . S
C294 C290 1.531 . S
C294 H306 0.960 . S
C294 H307 0.962 . S
C294 H308 0.960 . S
C295 C292 1.511 . S
C295 H309 0.961 . S
C295 H310 0.961 . S
C295 H311 0.961 . S
C296 C297 1.370 . S
C296 C298 1.363 1_556 S
C296 H312 0.931 1_556 S
C297 C296 1.370 . S
C297 C301 1.408 . S
C298 C296 1.363 1_554 S
C298 C299 1.370 1_554 S
C298 C302 1.524 . S
C299 C291 1.503 1_556 S
C299 C298 1.370 1_556 S
C299 C300 1.403 . S
C300 C299 1.403 . S
C300 C301 1.404 . S
C300 C303 1.539 . S
C301 C297 1.408 . S
C301 C300 1.404 . S
C301 H313 0.930 . S
C302 C298 1.524 . S
C302 H314 0.956 . S
C302 H315 0.961 . S
C302 H316 0.961 . S
C303 C300 1.539 . S
C303 H317 0.958 . S
C303 H318 0.961 . S
C303 H319 0.960 . S
H304 C288 0.931 . S
H305 C293 0.929 . S
H306 C294 0.960 . S
H307 C294 0.962 . S
H308 C294 0.960 . S
H309 C295 0.961 . S
H310 C295 0.961 . S
H311 C295 0.961 . S
H312 C296 0.931 1_554 S
H313 C301 0.930 . S
H314 C302 0.956 . S
H315 C302 0.961 . S
H316 C302 0.961 . S
H317 C303 0.958 . S
H318 C303 0.961 . S
H319 C303 0.960 . S
C320 C321 1.391 . S
C320 C322 1.394 . S
C320 H336 0.931 . S
C321 C320 1.391 . S
C321 C325 1.376 . S
C322 C320 1.394 . S
C322 C323 1.369 . S
C322 C326 1.531 . S
C323 C322 1.369 . S
C323 C324 1.410 . S
C323 C331 1.503 . S
C324 C323 1.410 . S
C324 C325 1.392 . S
C324 C327 1.511 . S
C325 C321 1.376 . S
C325 C324 1.392 . S
C325 H337 0.929 . S
C326 C322 1.531 . S
C326 H338 0.960 . S
C326 H339 0.962 . S
C326 H340 0.960 . S
C327 C324 1.511 . S
C327 H341 0.961 . S
C327 H342 0.961 . S
C327 H343 0.961 . S
C328 C329 1.370 . S
C328 C330 1.363 . S
C328 H344 0.931 . S
C329 C328 1.370 . S
C329 C333 1.408 . S
C330 C328 1.363 . S
C330 C331 1.370 . S
C330 C334 1.524 . S
C331 C323 1.503 . S
C331 C330 1.370 . S
C331 C332 1.403 . S
C332 C331 1.403 . S
C332 C333 1.404 . S
C332 C335 1.539 . S
C333 C329 1.408 . S
C333 C332 1.404 . S
C333 H345 0.930 . S
C334 C330 1.524 . S
C334 H346 0.956 . S
C334 H347 0.961 . S
C334 H348 0.961 . S
C335 C332 1.539 . S
C335 H349 0.958 . S
C335 H350 0.961 . S
C335 H351 0.960 . S
H336 C320 0.931 . S
H337 C325 0.929 . S
H338 C326 0.960 . S
H339 C326 0.962 . S
H340 C326 0.960 . S
H341 C327 0.961 . S
H342 C327 0.961 . S
H343 C327 0.961 . S
H344 C328 0.931 . S
H345 C333 0.930 . S
H346 C334 0.956 . S
H347 C334 0.961 . S
H348 C334 0.961 . S
H349 C335 0.958 . S
H350 C335 0.961 . S
H351 C335 0.960 . S
C352 C353 1.391 1_455 S
C352 C354 1.394 1_556 S
C352 H368 0.931 1_556 S
C353 C352 1.391 1_655 S
C353 C357 1.376 . S
C354 C352 1.394 1_554 S
C354 C355 1.369 1_454 S
C354 C358 1.531 . S
C355 C354 1.369 1_656 S
C355 C356 1.410 . S
C355 C363 1.503 1_556 S
C356 C355 1.410 . S
C356 C357 1.392 . S
C356 C359 1.511 . S
C357 C353 1.376 . S
C357 C356 1.392 . S
C357 H369 0.929 . S
C358 C354 1.531 . S
C358 H370 0.960 . S
C358 H371 0.962 . S
C358 H372 0.960 . S
C359 C356 1.511 . S
C359 H373 0.961 . S
C359 H374 0.961 . S
C359 H375 0.961 . S
C360 C361 1.370 1_455 S
C360 C362 1.363 . S
C360 H376 0.931 . S
C361 C360 1.370 1_655 S
C361 C365 1.408 . S
C362 C360 1.363 . S
C362 C363 1.370 1_455 S
C362 C366 1.524 1_554 S
C363 C355 1.503 1_554 S
C363 C362 1.370 1_655 S
C363 C364 1.403 . S
C364 C363 1.403 . S
C364 C365 1.404 . S
C364 C367 1.539 . S
C365 C361 1.408 . S
C365 C364 1.404 . S
C365 H377 0.930 . S
C366 C362 1.524 1_556 S
C366 H378 0.956 . S
C366 H379 0.961 . S
C366 H380 0.961 . S
C367 C364 1.539 . S
C367 H381 0.958 . S
C367 H382 0.961 . S
C367 H383 0.960 . S
H368 C352 0.931 1_554 S
H369 C357 0.929 . S
H370 C358 0.960 . S
H371 C358 0.962 . S
H372 C358 0.960 . S
H373 C359 0.961 . S
H374 C359 0.961 . S
H375 C359 0.961 . S
H376 C360 0.931 . S
H377 C365 0.930 . S
H378 C366 0.956 . S
H379 C366 0.961 . S
H380 C366 0.961 . S
H381 C367 0.958 . S
H382 C367 0.961 . S
H383 C367 0.960 . S
C384 C385 1.391 . S
C384 C386 1.394 . S
C384 H400 0.931 . S
C385 C384 1.391 . S
C385 C389 1.376 1_565 S
C386 C384 1.394 . S
C386 C387 1.369 . S
C386 C390 1.531 . S
C387 C386 1.369 . S
C387 C388 1.410 1_565 S
C387 C395 1.503 . S
C388 C387 1.410 1_545 S
C388 C389 1.392 . S
C388 C391 1.511 . S
C389 C385 1.376 1_545 S
C389 C388 1.392 . S
C389 H401 0.929 . S
C390 C386 1.531 . S
C390 H402 0.960 . S
C390 H403 0.962 . S
C390 H404 0.960 . S
C391 C388 1.511 . S
C391 H405 0.961 . S
C391 H406 0.961 . S
C391 H407 0.961 . S
C392 C393 1.370 1_545 S
C392 C394 1.363 . S
C392 H408 0.931 . S
C393 C392 1.370 1_565 S
C393 C397 1.408 . S
C394 C392 1.363 . S
C394 C395 1.370 1_545 S
C394 C398 1.524 . S
C395 C387 1.503 . S
C395 C394 1.370 1_565 S
C395 C396 1.403 . S
C396 C395 1.403 . S
C396 C397 1.404 . S
C396 C399 1.539 . S
C397 C393 1.408 . S
C397 C396 1.404 . S
C397 H409 0.930 . S
C398 C394 1.524 . S
C398 H410 0.956 . S
C398 H411 0.961 . S
C398 H412 0.961 . S
C399 C396 1.539 . S
C399 H413 0.958 . S
C399 H414 0.961 . S
C399 H415 0.960 . S
H400 C384 0.931 . S
H401 C389 0.929 . S
H402 C390 0.960 . S
H403 C390 0.962 . S
H404 C390 0.960 . S
H405 C391 0.961 . S
H406 C391 0.961 . S
H407 C391 0.961 . S
H408 C392 0.931 . S
H409 C397 0.930 . S
H410 C398 0.956 . S
H411 C398 0.961 . S
H412 C398 0.961 . S
H413 C399 0.958 . S
H414 C399 0.961 . S
H415 C399 0.960 . S
C416 C417 1.391 . S
C416 C418 1.394 . S
C416 H432 0.931 . S
C417 C416 1.391 . S
C417 C421 1.376 . S
C418 C416 1.394 . S
C418 C419 1.369 . S
C418 C422 1.531 . S
C419 C418 1.369 . S
C419 C420 1.410 . S
C419 C427 1.503 1_556 S
C420 C419 1.410 . S
C420 C421 1.392 . S
C420 C423 1.511 1_556 S
C421 C417 1.376 . S
C421 C420 1.392 . S
C421 H433 0.929 . S
C422 C418 1.531 . S
C422 H434 0.960 . S
C422 H435 0.962 . S
C422 H436 0.960 . S
C423 C420 1.511 1_554 S
C423 H437 0.961 . S
C423 H438 0.961 . S
C423 H439 0.961 . S
C424 C425 1.370 . S
C424 C426 1.363 . S
C424 H440 0.931 . S
C425 C424 1.370 . S
C425 C429 1.408 . S
C426 C424 1.363 . S
C426 C427 1.370 . S
C426 C430 1.524 . S
C427 C419 1.503 1_554 S
C427 C426 1.370 . S
C427 C428 1.403 1_554 S
C428 C427 1.403 1_556 S
C428 C429 1.404 1_556 S
C428 C431 1.539 . S
C429 C425 1.408 . S
C429 C428 1.404 1_554 S
C429 H441 0.930 1_554 S
C430 C426 1.524 . S
C430 H442 0.956 . S
C430 H443 0.961 . S
C430 H444 0.961 . S
C431 C428 1.539 . S
C431 H445 0.958 . S
C431 H446 0.961 . S
C431 H447 0.960 . S
H432 C416 0.931 . S
H433 C421 0.929 . S
H434 C422 0.960 . S
H435 C422 0.962 . S
H436 C422 0.960 . S
H437 C423 0.961 . S
H438 C423 0.961 . S
H439 C423 0.961 . S
H440 C424 0.931 . S
H441 C429 0.930 1_556 S
H442 C430 0.956 . S
H443 C430 0.961 . S
H444 C430 0.961 . S
H445 C431 0.958 . S
H446 C431 0.961 . S
H447 C431 0.960 . S
C448 C449 1.391 . S
C448 C450 1.394 . S
C448 H464 0.931 . S
C449 C448 1.391 . S
C449 C453 1.376 . S
C450 C448 1.394 . S
C450 C451 1.369 . S
C450 C454 1.531 . S
C451 C450 1.369 . S
C451 C452 1.410 . S
C451 C459 1.503 . S
C452 C451 1.410 . S
C452 C453 1.392 . S
C452 C455 1.511 . S
C453 C449 1.376 . S
C453 C452 1.392 . S
C453 H465 0.929 . S
C454 C450 1.531 . S
C454 H466 0.960 . S
C454 H467 0.962 . S
C454 H468 0.960 . S
C455 C452 1.511 . S
C455 H469 0.961 . S
C455 H470 0.961 . S
C455 H471 0.961 . S
C456 C457 1.370 . S
C456 C458 1.363 . S
C456 H472 0.931 . S
C457 C456 1.370 . S
C457 C461 1.408 . S
C458 C456 1.363 . S
C458 C459 1.370 . S
C458 C462 1.524 . S
C459 C451 1.503 . S
C459 C458 1.370 . S
C459 C460 1.403 . S
C460 C459 1.403 . S
C460 C461 1.404 . S
C460 C463 1.539 . S
C461 C457 1.408 . S
C461 C460 1.404 . S
C461 H473 0.930 . S
C462 C458 1.524 . S
C462 H474 0.956 . S
C462 H475 0.961 . S
C462 H476 0.961 . S
C463 C460 1.539 . S
C463 H477 0.958 . S
C463 H478 0.961 . S
C463 H479 0.960 . S
H464 C448 0.931 . S
H465 C453 0.929 . S
H466 C454 0.960 . S
H467 C454 0.962 . S
H468 C454 0.960 . S
H469 C455 0.961 . S
H470 C455 0.961 . S
H471 C455 0.961 . S
H472 C456 0.931 . S
H473 C461 0.930 . S
H474 C462 0.956 . S
H475 C462 0.961 . S
H476 C462 0.961 . S
H477 C463 0.958 . S
H478 C463 0.961 . S
H479 C463 0.960 . S
C480 C481 1.391 . S
C480 C482 1.394 . S
C480 H496 0.931 1_556 S
C481 C480 1.391 . S
C481 C485 1.376 . S
C482 C480 1.394 . S
C482 C483 1.369 . S
C482 C486 1.531 . S
C483 C482 1.369 . S
C483 C484 1.410 . S
C483 C491 1.503 . S
C484 C483 1.410 . S
C484 C485 1.392 . S
C484 C487 1.511 . S
C485 C481 1.376 . S
C485 C484 1.392 . S
C485 H497 0.929 . S
C486 C482 1.531 . S
C486 H498 0.960 . S
C486 H499 0.962 . S
C486 H500 0.960 . S
C487 C484 1.511 . S
C487 H501 0.961 . S
C487 H502 0.961 . S
C487 H503 0.961 . S
C488 C489 1.370 . S
C488 C490 1.363 . S
C488 H504 0.931 . S
C489 C488 1.370 . S
C489 C493 1.408 . S
C490 C488 1.363 . S
C490 C491 1.370 . S
C490 C494 1.524 . S
C491 C483 1.503 . S
C491 C490 1.370 . S
C491 C492 1.403 . S
C492 C491 1.403 . S
C492 C493 1.404 . S
C492 C495 1.539 . S
C493 C489 1.408 . S
C493 C492 1.404 . S
C493 H505 0.930 . S
C494 C490 1.524 . S
C494 H506 0.956 . S
C494 H507 0.961 . S
C494 H508 0.961 . S
C495 C492 1.539 . S
C495 H509 0.958 . S
C495 H510 0.961 . S
C495 H511 0.960 . S
H496 C480 0.931 1_554 S
H497 C485 0.929 . S
H498 C486 0.960 . S
H499 C486 0.962 . S
H500 C486 0.960 . S
H501 C487 0.961 . S
H502 C487 0.961 . S
H503 C487 0.961 . S
H504 C488 0.931 . S
H505 C493 0.930 . S
H506 C494 0.956 . S
H507 C494 0.961 . S
H508 C494 0.961 . S
H509 C495 0.958 . S
H510 C495 0.961 . S
H511 C495 0.960 . S
C512 C513 1.391 . S
C512 C514 1.394 . S
C512 H528 0.931 . S
C513 C512 1.391 . S
C513 C517 1.376 . S
C514 C512 1.394 . S
C514 C515 1.369 . S
C514 C518 1.531 . S
C515 C514 1.369 . S
C515 C516 1.410 . S
C515 C523 1.503 . S
C516 C515 1.410 . S
C516 C517 1.392 . S
C516 C519 1.511 . S
C517 C513 1.376 . S
C517 C516 1.392 . S
C517 H529 0.929 . S
C518 C514 1.531 . S
C518 H530 0.960 . S
C518 H531 0.962 . S
C518 H532 0.960 . S
C519 C516 1.511 . S
C519 H533 0.961 . S
C519 H534 0.961 . S
C519 H535 0.961 . S
C520 C521 1.370 . S
C520 C522 1.363 . S
C520 H536 0.931 . S
C521 C520 1.370 . S
C521 C525 1.408 . S
C522 C520 1.363 . S
C522 C523 1.370 . S
C522 C526 1.524 . S
C523 C515 1.503 . S
C523 C522 1.370 . S
C523 C524 1.403 . S
C524 C523 1.403 . S
C524 C525 1.404 . S
C524 C527 1.539 . S
C525 C521 1.408 . S
C525 C524 1.404 . S
C525 H537 0.930 . S
C526 C522 1.524 . S
C526 H538 0.956 . S
C526 H539 0.961 . S
C526 H540 0.961 . S
C527 C524 1.539 . S
C527 H541 0.958 . S
C527 H542 0.961 . S
C527 H543 0.960 . S
H528 C512 0.931 . S
H529 C517 0.929 . S
H530 C518 0.960 . S
H531 C518 0.962 . S
H532 C518 0.960 . S
H533 C519 0.961 . S
H534 C519 0.961 . S
H535 C519 0.961 . S
H536 C520 0.931 . S
H537 C525 0.930 . S
H538 C526 0.956 . S
H539 C526 0.961 . S
H540 C526 0.961 . S
H541 C527 0.958 . S
H542 C527 0.961 . S
H543 C527 0.960 . S
C544 C545 1.391 . S
C544 C546 1.394 . S
C544 H560 0.931 1_556 S
C545 C544 1.391 . S
C545 C549 1.376 . S
C546 C544 1.394 . S
C546 C547 1.369 . S
C546 C550 1.531 . S
C547 C546 1.369 . S
C547 C548 1.410 . S
C547 C555 1.503 . S
C548 C547 1.410 . S
C548 C549 1.392 . S
C548 C551 1.511 . S
C549 C545 1.376 . S
C549 C548 1.392 . S
C549 H561 0.929 . S
C550 C546 1.531 . S
C550 H562 0.960 . S
C550 H563 0.962 . S
C550 H564 0.960 . S
C551 C548 1.511 . S
C551 H565 0.961 . S
C551 H566 0.961 . S
C551 H567 0.961 . S
C552 C553 1.370 . S
C552 C554 1.363 . S
C552 H568 0.931 . S
C553 C552 1.370 . S
C553 C557 1.408 . S
C554 C552 1.363 . S
C554 C555 1.370 . S
C554 C558 1.524 . S
C555 C547 1.503 . S
C555 C554 1.370 . S
C555 C556 1.403 . S
C556 C555 1.403 . S
C556 C557 1.404 . S
C556 C559 1.539 . S
C557 C553 1.408 . S
C557 C556 1.404 . S
C557 H569 0.930 . S
C558 C554 1.524 . S
C558 H570 0.956 . S
C558 H571 0.961 . S
C558 H572 0.961 . S
C559 C556 1.539 . S
C559 H573 0.958 . S
C559 H574 0.961 . S
C559 H575 0.960 . S
H560 C544 0.931 1_554 S
H561 C549 0.929 . S
H562 C550 0.960 . S
H563 C550 0.962 . S
H564 C550 0.960 . S
H565 C551 0.961 . S
H566 C551 0.961 . S
H567 C551 0.961 . S
H568 C552 0.931 . S
H569 C557 0.930 . S
H570 C558 0.956 . S
H571 C558 0.961 . S
H572 C558 0.961 . S
H573 C559 0.958 . S
H574 C559 0.961 . S
H575 C559 0.960 . S
C576 C577 1.391 . S
C576 C578 1.394 . S
C576 H592 0.931 . S
C577 C576 1.391 . S
C577 C581 1.376 . S
C578 C576 1.394 . S
C578 C579 1.369 . S
C578 C582 1.531 . S
C579 C578 1.369 . S
C579 C580 1.410 . S
C579 C587 1.503 . S
C580 C579 1.410 . S
C580 C581 1.392 . S
C580 C583 1.511 . S
C581 C577 1.376 . S
C581 C580 1.392 . S
C581 H593 0.929 . S
C582 C578 1.531 . S
C582 H594 0.960 . S
C582 H595 0.962 . S
C582 H596 0.960 . S
C583 C580 1.511 . S
C583 H597 0.961 . S
C583 H598 0.961 . S
C583 H599 0.961 . S
C584 C585 1.370 . S
C584 C586 1.363 . S
C584 H600 0.931 . S
C585 C584 1.370 . S
C585 C589 1.408 . S
C586 C584 1.363 . S
C586 C587 1.370 . S
C586 C590 1.524 . S
C587 C579 1.503 . S
C587 C586 1.370 . S
C587 C588 1.403 . S
C588 C587 1.403 . S
C588 C589 1.404 . S
C588 C591 1.539 . S
C589 C585 1.408 . S
C589 C588 1.404 . S
C589 H601 0.930 . S
C590 C586 1.524 . S
C590 H602 0.956 . S
C590 H603 0.961 . S
C590 H604 0.961 . S
C591 C588 1.539 . S
C591 H605 0.958 . S
C591 H606 0.961 . S
C591 H607 0.960 . S
H592 C576 0.931 . S
H593 C581 0.929 . S
H594 C582 0.960 . S
H595 C582 0.962 . S
H596 C582 0.960 . S
H597 C583 0.961 . S
H598 C583 0.961 . S
H599 C583 0.961 . S
H600 C584 0.931 . S
H601 C589 0.930 . S
H602 C590 0.956 . S
H603 C590 0.961 . S
H604 C590 0.961 . S
H605 C591 0.958 . S
H606 C591 0.961 . S
H607 C591 0.960 . S
C608 C609 1.391 . S
C608 C610 1.394 . S
C608 H624 0.931 . S
C609 C608 1.391 . S
C609 C613 1.376 . S
C610 C608 1.394 . S
C610 C611 1.369 . S
C610 C614 1.531 . S
C611 C610 1.369 . S
C611 C612 1.410 . S
C611 C619 1.503 . S
C612 C611 1.410 . S
C612 C613 1.392 . S
C612 C615 1.511 . S
C613 C609 1.376 . S
C613 C612 1.392 . S
C613 H625 0.929 . S
C614 C610 1.531 . S
C614 H626 0.960 . S
C614 H627 0.962 . S
C614 H628 0.960 . S
C615 C612 1.511 . S
C615 H629 0.961 . S
C615 H630 0.961 . S
C615 H631 0.961 . S
C616 C617 1.370 . S
C616 C618 1.363 . S
C616 H632 0.931 1_554 S
C617 C616 1.370 . S
C617 C621 1.408 . S
C618 C616 1.363 . S
C618 C619 1.370 . S
C618 C622 1.524 . S
C619 C611 1.503 . S
C619 C618 1.370 . S
C619 C620 1.403 . S
C620 C619 1.403 . S
C620 C621 1.404 . S
C620 C623 1.539 . S
C621 C617 1.408 . S
C621 C620 1.404 . S
C621 H633 0.930 . S
C622 C618 1.524 . S
C622 H634 0.956 . S
C622 H635 0.961 . S
C622 H636 0.961 . S
C623 C620 1.539 . S
C623 H637 0.958 . S
C623 H638 0.961 . S
C623 H639 0.960 . S
H624 C608 0.931 . S
H625 C613 0.929 . S
H626 C614 0.960 . S
H627 C614 0.962 . S
H628 C614 0.960 . S
H629 C615 0.961 . S
H630 C615 0.961 . S
H631 C615 0.961 . S
H632 C616 0.931 1_556 S
H633 C621 0.930 . S
H634 C622 0.956 . S
H635 C622 0.961 . S
H636 C622 0.961 . S
H637 C623 0.958 . S
H638 C623 0.961 . S
H639 C623 0.960 . S
C640 C641 1.391 . S
C640 C642 1.394 . S
C640 H656 0.931 . S
C641 C640 1.391 . S
C641 C645 1.376 . S
C642 C640 1.394 . S
C642 C643 1.369 . S
C642 C646 1.531 . S
C643 C642 1.369 . S
C643 C644 1.410 . S
C643 C651 1.503 . S
C644 C643 1.410 . S
C644 C645 1.392 . S
C644 C647 1.511 . S
C645 C641 1.376 . S
C645 C644 1.392 . S
C645 H657 0.929 . S
C646 C642 1.531 . S
C646 H658 0.960 . S
C646 H659 0.962 . S
C646 H660 0.960 . S
C647 C644 1.511 . S
C647 H661 0.961 . S
C647 H662 0.961 . S
C647 H663 0.961 . S
C648 C649 1.370 . S
C648 C650 1.363 . S
C648 H664 0.931 . S
C649 C648 1.370 . S
C649 C653 1.408 . S
C650 C648 1.363 . S
C650 C651 1.370 . S
C650 C654 1.524 . S
C651 C643 1.503 . S
C651 C650 1.370 . S
C651 C652 1.403 . S
C652 C651 1.403 . S
C652 C653 1.404 . S
C652 C655 1.539 . S
C653 C649 1.408 . S
C653 C652 1.404 . S
C653 H665 0.930 . S
C654 C650 1.524 . S
C654 H666 0.956 . S
C654 H667 0.961 . S
C654 H668 0.961 . S
C655 C652 1.539 . S
C655 H669 0.958 . S
C655 H670 0.961 . S
C655 H671 0.960 . S
H656 C640 0.931 . S
H657 C645 0.929 . S
H658 C646 0.960 . S
H659 C646 0.962 . S
H660 C646 0.960 . S
H661 C647 0.961 . S
H662 C647 0.961 . S
H663 C647 0.961 . S
H664 C648 0.931 . S
H665 C653 0.930 . S
H666 C654 0.956 . S
H667 C654 0.961 . S
H668 C654 0.961 . S
H669 C655 0.958 . S
H670 C655 0.961 . S
H671 C655 0.960 . S
C672 C673 1.391 . S
C672 C674 1.394 . S
C672 H688 0.931 . S
C673 C672 1.391 . S
C673 C677 1.376 . S
C674 C672 1.394 . S
C674 C675 1.369 . S
C674 C678 1.531 . S
C675 C674 1.369 . S
C675 C676 1.410 . S
C675 C683 1.503 . S
C676 C675 1.410 . S
C676 C677 1.392 . S
C676 C679 1.511 . S
C677 C673 1.376 . S
C677 C676 1.392 . S
C677 H689 0.929 . S
C678 C674 1.531 . S
C678 H690 0.960 . S
C678 H691 0.962 . S
C678 H692 0.960 . S
C679 C676 1.511 . S
C679 H693 0.961 . S
C679 H694 0.961 . S
C679 H695 0.961 . S
C680 C681 1.370 . S
C680 C682 1.363 . S
C680 H696 0.931 . S
C681 C680 1.370 . S
C681 C685 1.408 1_554 S
C682 C680 1.363 . S
C682 C683 1.370 . S
C682 C686 1.524 . S
C683 C675 1.503 . S
C683 C682 1.370 . S
C683 C684 1.403 . S
C684 C683 1.403 . S
C684 C685 1.404 1_554 S
C684 C687 1.539 . S
C685 C681 1.408 1_556 S
C685 C684 1.404 1_556 S
C685 H697 0.930 . S
C686 C682 1.524 . S
C686 H698 0.956 . S
C686 H699 0.961 . S
C686 H700 0.961 . S
C687 C684 1.539 . S
C687 H701 0.958 . S
C687 H702 0.961 1_554 S
C687 H703 0.960 . S
H688 C672 0.931 . S
H689 C677 0.929 . S
H690 C678 0.960 . S
H691 C678 0.962 . S
H692 C678 0.960 . S
H693 C679 0.961 . S
H694 C679 0.961 . S
H695 C679 0.961 . S
H696 C680 0.931 . S
H697 C685 0.930 . S
H698 C686 0.956 . S
H699 C686 0.961 . S
H700 C686 0.961 . S
H701 C687 0.958 . S
H702 C687 0.961 1_556 S
H703 C687 0.960 . S
C704 C705 1.391 . S
C704 C706 1.394 . S
C704 H720 0.931 . S
C705 C704 1.391 . S
C705 C709 1.376 . S
C706 C704 1.394 . S
C706 C707 1.369 . S
C706 C710 1.531 . S
C707 C706 1.369 . S
C707 C708 1.410 . S
C707 C715 1.503 . S
C708 C707 1.410 . S
C708 C709 1.392 . S
C708 C711 1.511 . S
C709 C705 1.376 . S
C709 C708 1.392 . S
C709 H721 0.929 . S
C710 C706 1.531 . S
C710 H722 0.960 . S
C710 H723 0.962 . S
C710 H724 0.960 . S
C711 C708 1.511 . S
C711 H725 0.961 . S
C711 H726 0.961 . S
C711 H727 0.961 . S
C712 C713 1.370 . S
C712 C714 1.363 . S
C712 H728 0.931 . S
C713 C712 1.370 . S
C713 C717 1.408 . S
C714 C712 1.363 . S
C714 C715 1.370 . S
C714 C718 1.524 . S
C715 C707 1.503 . S
C715 C714 1.370 . S
C715 C716 1.403 . S
C716 C715 1.403 . S
C716 C717 1.404 . S
C716 C719 1.539 . S
C717 C713 1.408 . S
C717 C716 1.404 . S
C717 H729 0.930 . S
C718 C714 1.524 . S
C718 H730 0.956 . S
C718 H731 0.961 . S
C718 H732 0.961 . S
C719 C716 1.539 . S
C719 H733 0.958 . S
C719 H734 0.961 . S
C719 H735 0.960 . S
H720 C704 0.931 . S
H721 C709 0.929 . S
H722 C710 0.960 . S
H723 C710 0.962 . S
H724 C710 0.960 . S
H725 C711 0.961 . S
H726 C711 0.961 . S
H727 C711 0.961 . S
H728 C712 0.931 . S
H729 C717 0.930 . S
H730 C718 0.956 . S
H731 C718 0.961 . S
H732 C718 0.961 . S
H733 C719 0.958 . S
H734 C719 0.961 . S
H735 C719 0.960 . S
C736 C737 1.391 . S
C736 C738 1.394 . S
C736 H752 0.931 . S
C737 C736 1.391 . S
C737 C741 1.376 . S
C738 C736 1.394 . S
C738 C739 1.369 . S
C738 C742 1.531 . S
C739 C738 1.369 . S
C739 C740 1.410 . S
C739 C747 1.503 . S
C740 C739 1.410 . S
C740 C741 1.392 . S
C740 C743 1.511 . S
C741 C737 1.376 . S
C741 C740 1.392 . S
C741 H753 0.929 . S
C742 C738 1.531 . S
C742 H754 0.960 . S
C742 H755 0.962 . S
C742 H756 0.960 . S
C743 C740 1.511 . S
C743 H757 0.961 . S
C743 H758 0.961 . S
C743 H759 0.961 . S
C744 C745 1.370 . S
C744 C746 1.363 . S
C744 H760 0.931 . S
C745 C744 1.370 . S
C745 C749 1.408 . S
C746 C744 1.363 . S
C746 C747 1.370 . S
C746 C750 1.524 . S
C747 C739 1.503 . S
C747 C746 1.370 . S
C747 C748 1.403 . S
C748 C747 1.403 . S
C748 C749 1.404 . S
C748 C751 1.539 . S
C749 C745 1.408 . S
C749 C748 1.404 . S
C749 H761 0.930 . S
C750 C746 1.524 . S
C750 H762 0.956 . S
C750 H763 0.961 . S
C750 H764 0.961 . S
C751 C748 1.539 . S
C751 H765 0.958 . S
C751 H766 0.961 . S
C751 H767 0.960 . S
H752 C736 0.931 . S
H753 C741 0.929 . S
H754 C742 0.960 . S
H755 C742 0.962 . S
H756 C742 0.960 . S
H757 C743 0.961 . S
H758 C743 0.961 . S
H759 C743 0.961 . S
H760 C744 0.931 . S
H761 C749 0.930 . S
H762 C750 0.956 . S
H763 C750 0.961 . S
H764 C750 0.961 . S
H765 C751 0.958 . S
H766 C751 0.961 . S
H767 C751 0.960 . S
C768 C769 1.391 . S
C768 C770 1.394 . S
C768 H784 0.931 . S
C769 C768 1.391 . S
C769 C773 1.376 . S
C770 C768 1.394 . S
C770 C771 1.369 . S
C770 C774 1.531 . S
C771 C770 1.369 . S
C771 C772 1.410 . S
C771 C779 1.503 . S
C772 C771 1.410 . S
C772 C773 1.392 . S
C772 C775 1.511 . S
C773 C769 1.376 . S
C773 C772 1.392 . S
C773 H785 0.929 . S
C774 C770 1.531 . S
C774 H786 0.960 . S
C774 H787 0.962 . S
C774 H788 0.960 . S
C775 C772 1.511 . S
C775 H789 0.961 . S
C775 H790 0.961 . S
C775 H791 0.961 . S
C776 C777 1.370 . S
C776 C778 1.363 . S
C776 H792 0.931 . S
C777 C776 1.370 . S
C777 C781 1.408 . S
C778 C776 1.363 . S
C778 C779 1.370 . S
C778 C782 1.524 . S
C779 C771 1.503 . S
C779 C778 1.370 . S
C779 C780 1.403 . S
C780 C779 1.403 . S
C780 C781 1.404 . S
C780 C783 1.539 . S
C781 C777 1.408 . S
C781 C780 1.404 . S
C781 H793 0.930 . S
C782 C778 1.524 . S
C782 H794 0.956 . S
C782 H795 0.961 . S
C782 H796 0.961 . S
C783 C780 1.539 . S
C783 H797 0.958 . S
C783 H798 0.961 . S
C783 H799 0.960 . S
H784 C768 0.931 . S
H785 C773 0.929 . S
H786 C774 0.960 . S
H787 C774 0.962 . S
H788 C774 0.960 . S
H789 C775 0.961 . S
H790 C775 0.961 . S
H791 C775 0.961 . S
H792 C776 0.931 . S
H793 C781 0.930 . S
H794 C782 0.956 . S
H795 C782 0.961 . S
H796 C782 0.961 . S
H797 C783 0.958 . S
H798 C783 0.961 . S
H799 C783 0.960 . S
C800 C801 1.391 . S
C800 C802 1.394 . S
C800 H816 0.931 . S
C801 C800 1.391 . S
C801 C805 1.376 . S
C802 C800 1.394 . S
C802 C803 1.369 . S
C802 C806 1.531 . S
C803 C802 1.369 . S
C803 C804 1.410 . S
C803 C811 1.503 . S
C804 C803 1.410 . S
C804 C805 1.392 . S
C804 C807 1.511 . S
C805 C801 1.376 . S
C805 C804 1.392 . S
C805 H817 0.929 . S
C806 C802 1.531 . S
C806 H818 0.960 . S
C806 H819 0.962 . S
C806 H820 0.960 . S
C807 C804 1.511 . S
C807 H821 0.961 . S
C807 H822 0.961 . S
C807 H823 0.961 . S
C808 C809 1.370 . S
C808 C810 1.363 . S
C808 H824 0.931 1_554 S
C809 C808 1.370 . S
C809 C813 1.408 . S
C810 C808 1.363 . S
C810 C811 1.370 . S
C810 C814 1.524 . S
C811 C803 1.503 . S
C811 C810 1.370 . S
C811 C812 1.403 . S
C812 C811 1.403 . S
C812 C813 1.404 . S
C812 C815 1.539 . S
C813 C809 1.408 . S
C813 C812 1.404 . S
C813 H825 0.930 . S
C814 C810 1.524 . S
C814 H826 0.956 . S
C814 H827 0.961 . S
C814 H828 0.961 . S
C815 C812 1.539 . S
C815 H829 0.958 . S
C815 H830 0.961 . S
C815 H831 0.960 . S
H816 C800 0.931 . S
H817 C805 0.929 . S
H818 C806 0.960 . S
H819 C806 0.962 . S
H820 C806 0.960 . S
H821 C807 0.961 . S
H822 C807 0.961 . S
H823 C807 0.961 . S
H824 C808 0.931 1_556 S
H825 C813 0.930 . S
H826 C814 0.956 . S
H827 C814 0.961 . S
H828 C814 0.961 . S
H829 C815 0.958 . S
H830 C815 0.961 . S
H831 C815 0.960 . S
C832 C833 1.391 . S
C832 C834 1.394 . S
C832 H848 0.931 . S
C833 C832 1.391 . S
C833 C837 1.376 . S
C834 C832 1.394 . S
C834 C835 1.369 . S
C834 C838 1.531 . S
C835 C834 1.369 . S
C835 C836 1.410 . S
C835 C843 1.503 . S
C836 C835 1.410 . S
C836 C837 1.392 . S
C836 C839 1.511 . S
C837 C833 1.376 . S
C837 C836 1.392 . S
C837 H849 0.929 . S
C838 C834 1.531 . S
C838 H850 0.960 . S
C838 H851 0.962 . S
C838 H852 0.960 . S
C839 C836 1.511 . S
C839 H853 0.961 . S
C839 H854 0.961 . S
C839 H855 0.961 . S
C840 C841 1.370 . S
C840 C842 1.363 . S
C840 H856 0.931 . S
C841 C840 1.370 . S
C841 C845 1.408 . S
C842 C840 1.363 . S
C842 C843 1.370 . S
C842 C846 1.524 . S
C843 C835 1.503 . S
C843 C842 1.370 . S
C843 C844 1.403 . S
C844 C843 1.403 . S
C844 C845 1.404 . S
C844 C847 1.539 . S
C845 C841 1.408 . S
C845 C844 1.404 . S
C845 H857 0.930 . S
C846 C842 1.524 . S
C846 H858 0.956 . S
C846 H859 0.961 . S
C846 H860 0.961 . S
C847 C844 1.539 . S
C847 H861 0.958 . S
C847 H862 0.961 . S
C847 H863 0.960 . S
H848 C832 0.931 . S
H849 C837 0.929 . S
H850 C838 0.960 . S
H851 C838 0.962 . S
H852 C838 0.960 . S
H853 C839 0.961 . S
H854 C839 0.961 . S
H855 C839 0.961 . S
H856 C840 0.931 . S
H857 C845 0.930 . S
H858 C846 0.956 . S
H859 C846 0.961 . S
H860 C846 0.961 . S
H861 C847 0.958 . S
H862 C847 0.961 . S
H863 C847 0.960 . S
C864 C865 1.391 . S
C864 C866 1.394 . S
C864 H880 0.931 . S
C865 C864 1.391 . S
C865 C869 1.376 . S
C866 C864 1.394 . S
C866 C867 1.369 . S
C866 C870 1.531 . S
C867 C866 1.369 . S
C867 C868 1.410 . S
C867 C875 1.503 . S
C868 C867 1.410 . S
C868 C869 1.392 . S
C868 C871 1.511 . S
C869 C865 1.376 . S
C869 C868 1.392 . S
C869 H881 0.929 . S
C870 C866 1.531 . S
C870 H882 0.960 . S
C870 H883 0.962 . S
C870 H884 0.960 . S
C871 C868 1.511 . S
C871 H885 0.961 . S
C871 H886 0.961 . S
C871 H887 0.961 . S
C872 C873 1.370 . S
C872 C874 1.363 . S
C872 H888 0.931 . S
C873 C872 1.370 . S
C873 C877 1.408 . S
C874 C872 1.363 . S
C874 C875 1.370 . S
C874 C878 1.524 . S
C875 C867 1.503 . S
C875 C874 1.370 . S
C875 C876 1.403 . S
C876 C875 1.403 . S
C876 C877 1.404 . S
C876 C879 1.539 . S
C877 C873 1.408 . S
C877 C876 1.404 . S
C877 H889 0.930 . S
C878 C874 1.524 . S
C878 H890 0.956 . S
C878 H891 0.961 . S
C878 H892 0.961 . S
C879 C876 1.539 . S
C879 H893 0.958 . S
C879 H894 0.961 . S
C879 H895 0.960 . S
H880 C864 0.931 . S
H881 C869 0.929 . S
H882 C870 0.960 . S
H883 C870 0.962 . S
H884 C870 0.960 . S
H885 C871 0.961 . S
H886 C871 0.961 . S
H887 C871 0.961 . S
H888 C872 0.931 . S
H889 C877 0.930 . S
H890 C878 0.956 . S
H891 C878 0.961 . S
H892 C878 0.961 . S
H893 C879 0.958 . S
H894 C879 0.961 . S
H895 C879 0.960 . S
C896 C897 1.391 . S
C896 C898 1.394 . S
C896 H912 0.931 . S
C897 C896 1.391 . S
C897 C901 1.376 . S
C898 C896 1.394 . S
C898 C899 1.369 . S
C898 C902 1.531 . S
C899 C898 1.369 . S
C899 C900 1.410 . S
C899 C907 1.503 . S
C900 C899 1.410 . S
C900 C901 1.392 . S
C900 C903 1.511 . S
C901 C897 1.376 . S
C901 C900 1.392 . S
C901 H913 0.929 . S
C902 C898 1.531 . S
C902 H914 0.960 . S
C902 H915 0.962 . S
C902 H916 0.960 . S
C903 C900 1.511 . S
C903 H917 0.961 . S
C903 H918 0.961 . S
C903 H919 0.961 . S
C904 C905 1.370 . S
C904 C906 1.363 . S
C904 H920 0.931 . S
C905 C904 1.370 . S
C905 C909 1.408 . S
C906 C904 1.363 . S
C906 C907 1.370 . S
C906 C910 1.524 . S
C907 C899 1.503 . S
C907 C906 1.370 . S
C907 C908 1.403 . S
C908 C907 1.403 . S
C908 C909 1.404 . S
C908 C911 1.539 . S
C909 C905 1.408 . S
C909 C908 1.404 . S
C909 H921 0.930 . S
C910 C906 1.524 . S
C910 H922 0.956 . S
C910 H923 0.961 . S
C910 H924 0.961 . S
C911 C908 1.539 . S
C911 H925 0.958 . S
C911 H926 0.961 . S
C911 H927 0.960 . S
H912 C896 0.931 . S
H913 C901 0.929 . S
H914 C902 0.960 . S
H915 C902 0.962 . S
H916 C902 0.960 . S
H917 C903 0.961 . S
H918 C903 0.961 . S
H919 C903 0.961 . S
H920 C904 0.931 . S
H921 C909 0.930 . S
H922 C910 0.956 . S
H923 C910 0.961 . S
H924 C910 0.961 . S
H925 C911 0.958 . S
H926 C911 0.961 . S
H927 C911 0.960 . S
C928 C929 1.391 . S
C928 C930 1.394 . S
C928 H944 0.931 . S
C929 C928 1.391 . S
C929 C933 1.376 . S
C930 C928 1.394 . S
C930 C931 1.369 . S
C930 C934 1.531 . S
C931 C930 1.369 . S
C931 C932 1.410 . S
C931 C939 1.503 . S
C932 C931 1.410 . S
C932 C933 1.392 . S
C932 C935 1.511 . S
C933 C929 1.376 . S
C933 C932 1.392 . S
C933 H945 0.929 . S
C934 C930 1.531 . S
C934 H946 0.960 . S
C934 H947 0.962 . S
C934 H948 0.960 . S
C935 C932 1.511 . S
C935 H949 0.961 . S
C935 H950 0.961 . S
C935 H951 0.961 . S
C936 C937 1.370 . S
C936 C938 1.363 . S
C936 H952 0.931 . S
C937 C936 1.370 . S
C937 C941 1.408 . S
C938 C936 1.363 . S
C938 C939 1.370 . S
C938 C942 1.524 . S
C939 C931 1.503 . S
C939 C938 1.370 . S
C939 C940 1.403 . S
C940 C939 1.403 . S
C940 C941 1.404 . S
C940 C943 1.539 . S
C941 C937 1.408 . S
C941 C940 1.404 . S
C941 H953 0.930 . S
C942 C938 1.524 . S
C942 H954 0.956 . S
C942 H955 0.961 . S
C942 H956 0.961 . S
C943 C940 1.539 . S
C943 H957 0.958 . S
C943 H958 0.961 . S
C943 H959 0.960 . S
H944 C928 0.931 . S
H945 C933 0.929 . S
H946 C934 0.960 . S
H947 C934 0.962 . S
H948 C934 0.960 . S
H949 C935 0.961 . S
H950 C935 0.961 . S
H951 C935 0.961 . S
H952 C936 0.931 . S
H953 C941 0.930 . S
H954 C942 0.956 . S
H955 C942 0.961 . S
H956 C942 0.961 . S
H957 C943 0.958 . S
H958 C943 0.961 . S
H959 C943 0.960 . S
C960 C961 1.391 . S
C960 C962 1.394 . S
C960 H976 0.931 . S
C961 C960 1.391 . S
C961 C965 1.376 . S
C962 C960 1.394 . S
C962 C963 1.369 . S
C962 C966 1.531 . S
C963 C962 1.369 . S
C963 C964 1.410 . S
C963 C971 1.503 . S
C964 C963 1.410 . S
C964 C965 1.392 . S
C964 C967 1.511 . S
C965 C961 1.376 . S
C965 C964 1.392 . S
C965 H977 0.929 . S
C966 C962 1.531 . S
C966 H978 0.960 . S
C966 H979 0.962 . S
C966 H980 0.960 . S
C967 C964 1.511 . S
C967 H981 0.961 . S
C967 H982 0.961 . S
C967 H983 0.961 . S
C968 C969 1.370 . S
C968 C970 1.363 . S
C968 H984 0.931 . S
C969 C968 1.370 . S
C969 C973 1.408 . S
C970 C968 1.363 . S
C970 C971 1.370 . S
C970 C974 1.524 . S
C971 C963 1.503 . S
C971 C970 1.370 . S
C971 C972 1.403 . S
C972 C971 1.403 . S
C972 C973 1.404 . S
C972 C975 1.539 . S
C973 C969 1.408 . S
C973 C972 1.404 . S
C973 H985 0.930 . S
C974 C970 1.524 . S
C974 H986 0.956 . S
C974 H987 0.961 . S
C974 H988 0.961 . S
C975 C972 1.539 . S
C975 H989 0.958 . S
C975 H990 0.961 . S
C975 H991 0.960 . S
H976 C960 0.931 . S
H977 C965 0.929 . S
H978 C966 0.960 . S
H979 C966 0.962 . S
H980 C966 0.960 . S
H981 C967 0.961 . S
H982 C967 0.961 . S
H983 C967 0.961 . S
H984 C968 0.931 . S
H985 C973 0.930 . S
H986 C974 0.956 . S
H987 C974 0.961 . S
H988 C974 0.961 . S
H989 C975 0.958 . S
H990 C975 0.961 . S
H991 C975 0.960 . S
C992 C993 1.391 . S
C992 C994 1.394 . S
C992 H1008 0.931 . S
C993 C992 1.391 . S
C993 C997 1.376 . S
C994 C992 1.394 . S
C994 C995 1.369 . S
C994 C998 1.531 . S
C995 C994 1.369 . S
C995 C996 1.410 . S
C995 C1003 1.503 . S
C996 C995 1.410 . S
C996 C997 1.392 . S
C996 C999 1.511 . S
C997 C993 1.376 . S
C997 C996 1.392 . S
C997 H1009 0.929 . S
C998 C994 1.531 . S
C998 H1010 0.960 . S
C998 H1011 0.962 . S
C998 H1012 0.960 . S
C999 C996 1.511 . S
C999 H1013 0.961 . S
C999 H1014 0.961 . S
C999 H1015 0.961 . S
C1000 C1001 1.370 . S
C1000 C1002 1.363 . S
C1000 H1016 0.931 . S
C1001 C1000 1.370 . S
C1001 C1005 1.408 . S
C1002 C1000 1.363 . S
C1002 C1003 1.370 . S
C1002 C1006 1.524 . S
C1003 C995 1.503 . S
C1003 C1002 1.370 . S
C1003 C1004 1.403 . S
C1004 C1003 1.403 . S
C1004 C1005 1.404 . S
C1004 C1007 1.539 . S
C1005 C1001 1.408 . S
C1005 C1004 1.404 . S
C1005 H1017 0.930 . S
C1006 C1002 1.524 . S
C1006 H1018 0.956 . S
C1006 H1019 0.961 . S
C1006 H1020 0.961 . S
C1007 C1004 1.539 . S
C1007 H1021 0.958 . S
C1007 H1022 0.961 . S
C1007 H1023 0.960 . S
H1008 C992 0.931 . S
H1009 C997 0.929 . S
H1010 C998 0.960 . S
H1011 C998 0.962 . S
H1012 C998 0.960 . S
H1013 C999 0.961 . S
H1014 C999 0.961 . S
H1015 C999 0.961 . S
H1016 C1000 0.931 . S
H1017 C1005 0.930 . S
H1018 C1006 0.956 . S
H1019 C1006 0.961 . S
H1020 C1006 0.961 . S
H1021 C1007 0.958 . S
H1022 C1007 0.961 . S
H1023 C1007 0.960 . S
C1024 C1025 1.391 . S
C1024 C1026 1.394 . S
C1024 H1040 0.931 . S
C1025 C1024 1.391 . S
C1025 C1029 1.376 . S
C1026 C1024 1.394 . S
C1026 C1027 1.369 . S
C1026 C1030 1.531 . S
C1027 C1026 1.369 . S
C1027 C1028 1.410 . S
C1027 C1035 1.503 . S
C1028 C1027 1.410 . S
C1028 C1029 1.392 . S
C1028 C1031 1.511 . S
C1029 C1025 1.376 . S
C1029 C1028 1.392 . S
C1029 H1041 0.929 . S
C1030 C1026 1.531 . S
C1030 H1042 0.960 . S
C1030 H1043 0.962 . S
C1030 H1044 0.960 . S
C1031 C1028 1.511 . S
C1031 H1045 0.961 . S
C1031 H1046 0.961 . S
C1031 H1047 0.961 . S
C1032 C1033 1.370 . S
C1032 C1034 1.363 . S
C1032 H1048 0.931 . S
C1033 C1032 1.370 . S
C1033 C1037 1.408 . S
C1034 C1032 1.363 . S
C1034 C1035 1.370 . S
C1034 C1038 1.524 . S
C1035 C1027 1.503 . S
C1035 C1034 1.370 . S
C1035 C1036 1.403 . S
C1036 C1035 1.403 . S
C1036 C1037 1.404 . S
C1036 C1039 1.539 . S
C1037 C1033 1.408 . S
C1037 C1036 1.404 . S
C1037 H1049 0.930 . S
C1038 C1034 1.524 . S
C1038 H1050 0.956 . S
C1038 H1051 0.961 . S
C1038 H1052 0.961 . S
C1039 C1036 1.539 . S
C1039 H1053 0.958 . S
C1039 H1054 0.961 . S
C1039 H1055 0.960 . S
H1040 C1024 0.931 . S
H1041 C1029 0.929 . S
H1042 C1030 0.960 . S
H1043 C1030 0.962 . S
H1044 C1030 0.960 . S
H1045 C1031 0.961 . S
H1046 C1031 0.961 . S
H1047 C1031 0.961 . S
H1048 C1032 0.931 . S
H1049 C1037 0.930 . S
H1050 C1038 0.956 . S
H1051 C1038 0.961 . S
H1052 C1038 0.961 . S
H1053 C1039 0.958 . S
H1054 C1039 0.961 . S
H1055 C1039 0.960 . S
C1056 C1057 1.391 . S
C1056 C1058 1.394 . S
C1056 H1072 0.931 . S
C1057 C1056 1.391 . S
C1057 C1061 1.376 . S
C1058 C1056 1.394 . S
C1058 C1059 1.369 . S
C1058 C1062 1.531 . S
C1059 C1058 1.369 . S
C1059 C1060 1.410 . S
C1059 C1067 1.503 . S
C1060 C1059 1.410 . S
C1060 C1061 1.392 . S
C1060 C1063 1.511 . S
C1061 C1057 1.376 . S
C1061 C1060 1.392 . S
C1061 H1073 0.929 . S
C1062 C1058 1.531 . S
C1062 H1074 0.960 . S
C1062 H1075 0.962 . S
C1062 H1076 0.960 . S
C1063 C1060 1.511 . S
C1063 H1077 0.961 . S
C1063 H1078 0.961 . S
C1063 H1079 0.961 . S
C1064 C1065 1.370 . S
C1064 C1066 1.363 . S
C1064 H1080 0.931 . S
C1065 C1064 1.370 . S
C1065 C1069 1.408 . S
C1066 C1064 1.363 . S
C1066 C1067 1.370 . S
C1066 C1070 1.524 . S
C1067 C1059 1.503 . S
C1067 C1066 1.370 . S
C1067 C1068 1.403 . S
C1068 C1067 1.403 . S
C1068 C1069 1.404 . S
C1068 C1071 1.539 . S
C1069 C1065 1.408 . S
C1069 C1068 1.404 . S
C1069 H1081 0.930 . S
C1070 C1066 1.524 . S
C1070 H1082 0.956 . S
C1070 H1083 0.961 . S
C1070 H1084 0.961 . S
C1071 C1068 1.539 . S
C1071 H1085 0.958 . S
C1071 H1086 0.961 . S
C1071 H1087 0.960 . S
H1072 C1056 0.931 . S
H1073 C1061 0.929 . S
H1074 C1062 0.960 . S
H1075 C1062 0.962 . S
H1076 C1062 0.960 . S
H1077 C1063 0.961 . S
H1078 C1063 0.961 . S
H1079 C1063 0.961 . S
H1080 C1064 0.931 . S
H1081 C1069 0.930 . S
H1082 C1070 0.956 . S
H1083 C1070 0.961 . S
H1084 C1070 0.961 . S
H1085 C1071 0.958 . S
H1086 C1071 0.961 . S
H1087 C1071 0.960 . S
C1088 C1089 1.391 . S
C1088 C1090 1.394 . S
C1088 H1104 0.931 . S
C1089 C1088 1.391 . S
C1089 C1093 1.376 . S
C1090 C1088 1.394 . S
C1090 C1091 1.369 . S
C1090 C1094 1.531 . S
C1091 C1090 1.369 . S
C1091 C1092 1.410 . S
C1091 C1099 1.503 . S
C1092 C1091 1.410 . S
C1092 C1093 1.392 . S
C1092 C1095 1.511 . S
C1093 C1089 1.376 . S
C1093 C1092 1.392 . S
C1093 H1105 0.929 . S
C1094 C1090 1.531 . S
C1094 H1106 0.960 . S
C1094 H1107 0.962 . S
C1094 H1108 0.960 . S
C1095 C1092 1.511 . S
C1095 H1109 0.961 . S
C1095 H1110 0.961 . S
C1095 H1111 0.961 . S
C1096 C1097 1.370 . S
C1096 C1098 1.363 . S
C1096 H1112 0.931 . S
C1097 C1096 1.370 . S
C1097 C1101 1.408 . S
C1098 C1096 1.363 . S
C1098 C1099 1.370 . S
C1098 C1102 1.524 . S
C1099 C1091 1.503 . S
C1099 C1098 1.370 . S
C1099 C1100 1.403 . S
C1100 C1099 1.403 . S
C1100 C1101 1.404 . S
C1100 C1103 1.539 . S
C1101 C1097 1.408 . S
C1101 C1100 1.404 . S
C1101 H1113 0.930 . S
C1102 C1098 1.524 . S
C1102 H1114 0.956 . S
C1102 H1115 0.961 . S
C1102 H1116 0.961 . S
C1103 C1100 1.539 . S
C1103 H1117 0.958 . S
C1103 H1118 0.961 . S
C1103 H1119 0.960 . S
H1104 C1088 0.931 . S
H1105 C1093 0.929 . S
H1106 C1094 0.960 . S
H1107 C1094 0.962 . S
H1108 C1094 0.960 . S
H1109 C1095 0.961 . S
H1110 C1095 0.961 . S
H1111 C1095 0.961 . S
H1112 C1096 0.931 . S
H1113 C1101 0.930 . S
H1114 C1102 0.956 . S
H1115 C1102 0.961 . S
H1116 C1102 0.961 . S
H1117 C1103 0.958 . S
H1118 C1103 0.961 . S
H1119 C1103 0.960 . S
C1120 C1121 1.391 . S
C1120 C1122 1.394 . S
C1120 H1136 0.931 . S
C1121 C1120 1.391 . S
C1121 C1125 1.376 . S
C1122 C1120 1.394 . S
C1122 C1123 1.369 . S
C1122 C1126 1.531 . S
C1123 C1122 1.369 . S
C1123 C1124 1.410 . S
C1123 C1131 1.503 . S
C1124 C1123 1.410 . S
C1124 C1125 1.392 . S
C1124 C1127 1.511 . S
C1125 C1121 1.376 . S
C1125 C1124 1.392 . S
C1125 H1137 0.929 . S
C1126 C1122 1.531 . S
C1126 H1138 0.960 . S
C1126 H1139 0.962 . S
C1126 H1140 0.960 . S
C1127 C1124 1.511 . S
C1127 H1141 0.961 . S
C1127 H1142 0.961 . S
C1127 H1143 0.961 . S
C1128 C1129 1.370 . S
C1128 C1130 1.363 . S
C1128 H1144 0.931 . S
C1129 C1128 1.370 . S
C1129 C1133 1.408 . S
C1130 C1128 1.363 . S
C1130 C1131 1.370 . S
C1130 C1134 1.524 . S
C1131 C1123 1.503 . S
C1131 C1130 1.370 . S
C1131 C1132 1.403 . S
C1132 C1131 1.403 . S
C1132 C1133 1.404 . S
C1132 C1135 1.539 . S
C1133 C1129 1.408 . S
C1133 C1132 1.404 . S
C1133 H1145 0.930 . S
C1134 C1130 1.524 . S
C1134 H1146 0.956 . S
C1134 H1147 0.961 . S
C1134 H1148 0.961 . S
C1135 C1132 1.539 . S
C1135 H1149 0.958 . S
C1135 H1150 0.961 . S
C1135 H1151 0.960 . S
H1136 C1120 0.931 . S
H1137 C1125 0.929 . S
H1138 C1126 0.960 . S
H1139 C1126 0.962 . S
H1140 C1126 0.960 . S
H1141 C1127 0.961 . S
H1142 C1127 0.961 . S
H1143 C1127 0.961 . S
H1144 C1128 0.931 . S
H1145 C1133 0.930 . S
H1146 C1134 0.956 . S
H1147 C1134 0.961 . S
H1148 C1134 0.961 . S
H1149 C1135 0.958 . S
H1150 C1135 0.961 . S
H1151 C1135 0.960 . S
C1152 C1153 1.391 . S
C1152 C1154 1.394 . S
C1152 H1168 0.931 . S
C1153 C1152 1.391 . S
C1153 C1157 1.376 . S
C1154 C1152 1.394 . S
C1154 C1155 1.369 . S
C1154 C1158 1.531 . S
C1155 C1154 1.369 . S
C1155 C1156 1.410 . S
C1155 C1163 1.503 . S
C1156 C1155 1.410 . S
C1156 C1157 1.392 . S
C1156 C1159 1.511 . S
C1157 C1153 1.376 . S
C1157 C1156 1.392 . S
C1157 H1169 0.929 . S
C1158 C1154 1.531 . S
C1158 H1170 0.960 . S
C1158 H1171 0.962 . S
C1158 H1172 0.960 . S
C1159 C1156 1.511 . S
C1159 H1173 0.961 . S
C1159 H1174 0.961 . S
C1159 H1175 0.961 . S
C1160 C1161 1.370 . S
C1160 C1162 1.363 . S
C1160 H1176 0.931 . S
C1161 C1160 1.370 . S
C1161 C1165 1.408 . S
C1162 C1160 1.363 . S
C1162 C1163 1.370 . S
C1162 C1166 1.524 . S
C1163 C1155 1.503 . S
C1163 C1162 1.370 . S
C1163 C1164 1.403 . S
C1164 C1163 1.403 . S
C1164 C1165 1.404 . S
C1164 C1167 1.539 . S
C1165 C1161 1.408 . S
C1165 C1164 1.404 . S
C1165 H1177 0.930 . S
C1166 C1162 1.524 . S
C1166 H1178 0.956 . S
C1166 H1179 0.961 . S
C1166 H1180 0.961 . S
C1167 C1164 1.539 . S
C1167 H1181 0.958 . S
C1167 H1182 0.961 . S
C1167 H1183 0.960 . S
H1168 C1152 0.931 . S
H1169 C1157 0.929 . S
H1170 C1158 0.960 . S
H1171 C1158 0.962 . S
H1172 C1158 0.960 . S
H1173 C1159 0.961 . S
H1174 C1159 0.961 . S
H1175 C1159 0.961 . S
H1176 C1160 0.931 . S
H1177 C1165 0.930 . S
H1178 C1166 0.956 . S
H1179 C1166 0.961 . S
H1180 C1166 0.961 . S
H1181 C1167 0.958 . S
H1182 C1167 0.961 . S
H1183 C1167 0.960 . S
C1184 C1185 1.391 . S
C1184 C1186 1.394 . S
C1184 H1200 0.931 . S
C1185 C1184 1.391 . S
C1185 C1189 1.376 . S
C1186 C1184 1.394 . S
C1186 C1187 1.369 . S
C1186 C1190 1.531 . S
C1187 C1186 1.369 . S
C1187 C1188 1.410 . S
C1187 C1195 1.503 . S
C1188 C1187 1.410 . S
C1188 C1189 1.392 . S
C1188 C1191 1.511 . S
C1189 C1185 1.376 . S
C1189 C1188 1.392 . S
C1189 H1201 0.929 . S
C1190 C1186 1.531 . S
C1190 H1202 0.960 . S
C1190 H1203 0.962 . S
C1190 H1204 0.960 . S
C1191 C1188 1.511 . S
C1191 H1205 0.961 . S
C1191 H1206 0.961 . S
C1191 H1207 0.961 . S
C1192 C1193 1.370 . S
C1192 C1194 1.363 . S
C1192 H1208 0.931 . S
C1193 C1192 1.370 . S
C1193 C1197 1.408 . S
C1194 C1192 1.363 . S
C1194 C1195 1.370 . S
C1194 C1198 1.524 . S
C1195 C1187 1.503 . S
C1195 C1194 1.370 . S
C1195 C1196 1.403 . S
C1196 C1195 1.403 . S
C1196 C1197 1.404 . S
C1196 C1199 1.539 . S
C1197 C1193 1.408 . S
C1197 C1196 1.404 . S
C1197 H1209 0.930 . S
C1198 C1194 1.524 . S
C1198 H1210 0.956 . S
C1198 H1211 0.961 . S
C1198 H1212 0.961 . S
C1199 C1196 1.539 . S
C1199 H1213 0.958 . S
C1199 H1214 0.961 . S
C1199 H1215 0.960 . S
H1200 C1184 0.931 . S
H1201 C1189 0.929 . S
H1202 C1190 0.960 . S
H1203 C1190 0.962 . S
H1204 C1190 0.960 . S
H1205 C1191 0.961 . S
H1206 C1191 0.961 . S
H1207 C1191 0.961 . S
H1208 C1192 0.931 . S
H1209 C1197 0.930 . S
H1210 C1198 0.956 . S
H1211 C1198 0.961 . S
H1212 C1198 0.961 . S
H1213 C1199 0.958 . S
H1214 C1199 0.961 . S
H1215 C1199 0.960 . S
C1216 C1217 1.391 . S
C1216 C1218 1.394 . S
C1216 H1232 0.931 . S
C1217 C1216 1.391 . S
C1217 C1221 1.376 . S
C1218 C1216 1.394 . S
C1218 C1219 1.369 . S
C1218 C1222 1.531 . S
C1219 C1218 1.369 . S
C1219 C1220 1.410 . S
C1219 C1227 1.503 . S
C1220 C1219 1.410 . S
C1220 C1221 1.392 . S
C1220 C1223 1.511 . S
C1221 C1217 1.376 . S
C1221 C1220 1.392 . S
C1221 H1233 0.929 . S
C1222 C1218 1.531 . S
C1222 H1234 0.960 . S
C1222 H1235 0.962 . S
C1222 H1236 0.960 . S
C1223 C1220 1.511 . S
C1223 H1237 0.961 . S
C1223 H1238 0.961 . S
C1223 H1239 0.961 . S
C1224 C1225 1.370 . S
C1224 C1226 1.363 . S
C1224 H1240 0.931 . S
C1225 C1224 1.370 . S
C1225 C1229 1.408 . S
C1226 C1224 1.363 . S
C1226 C1227 1.370 . S
C1226 C1230 1.524 . S
C1227 C1219 1.503 . S
C1227 C1226 1.370 . S
C1227 C1228 1.403 . S
C1228 C1227 1.403 . S
C1228 C1229 1.404 . S
C1228 C1231 1.539 . S
C1229 C1225 1.408 . S
C1229 C1228 1.404 . S
C1229 H1241 0.930 . S
C1230 C1226 1.524 . S
C1230 H1242 0.956 . S
C1230 H1243 0.961 . S
C1230 H1244 0.961 . S
C1231 C1228 1.539 . S
C1231 H1245 0.958 . S
C1231 H1246 0.961 . S
C1231 H1247 0.960 . S
H1232 C1216 0.931 . S
H1233 C1221 0.929 . S
H1234 C1222 0.960 . S
H1235 C1222 0.962 . S
H1236 C1222 0.960 . S
H1237 C1223 0.961 . S
H1238 C1223 0.961 . S
H1239 C1223 0.961 . S
H1240 C1224 0.931 . S
H1241 C1229 0.930 . S
H1242 C1230 0.956 . S
H1243 C1230 0.961 . S
H1244 C1230 0.961 . S
H1245 C1231 0.958 . S
H1246 C1231 0.961 . S
H1247 C1231 0.960 . S
C225 C11 1.087 . S
C233 C67 1.088 . S
C257 C81 1.099 . S
C265 C25 1.089 . S
C289 C39 1.084 . S
C297 C95 1.087 . S
C321 C53 1.051 . S
C329 C109 1.071 . S
C353 C123 1.053 . S
C361 C179 1.071 . S
C385 C193 1.063 . S
C393 C137 1.071 . S
C417 C151 1.095 . S
C425 C207 1.084 . S
C449 C165 1.056 . S
C457 C221 1.069 . S
C481 C9 1.474 1_556 S
C489 C215 1.462 . S
C513 C173 1.453 . S
C521 C23 1.476 . S
C545 C37 1.470 1_556 S
C553 C187 1.465 . S
C577 C201 1.475 . S
C585 C51 1.473 . S
C609 C131 1.452 . S
C617 C65 1.476 1_554 S
C641 C145 1.475 . S
C649 C79 1.473 . S
C673 C159 1.470 . S
C681 C93 1.473 1_554 S
C705 C117 1.474 . S
C713 C107 1.474 . S
C737 C121 1.468 1_554 S
C745 C103 1.469 . S
C769 C61 1.458 . S
C777 C135 1.476 . S
C801 C75 1.460 . S
C809 C149 1.475 1_554 S
C833 C163 1.474 . S
C841 C89 1.462 . S
C865 C19 1.476 . S
C873 C177 1.473 1_556 S
C897 C191 1.474 . S
C905 C33 1.462 . S
C929 C205 1.469 1_556 S
C937 C47 1.468 . S
C961 C219 1.467 . S
C969 C5 1.472 . S
C993 C98 1.056 . S
C1001 C0 1.066 . S
C1025 C14 1.065 . S
C1033 C56 1.069 . S
C1057 C28 1.062 . S
C1065 C70 1.079 . S
C1089 C42 1.048 . S
C1097 C84 1.063 . S
C1121 C210 1.046 . S
C1129 C112 1.067 . S
C1153 C168 1.056 . S
C1161 C126 1.071 . S
C1185 C182 1.117 . S
C1193 C140 1.096 . S
C1217 C196 1.105 . S
C1225 C154 1.091 . S
