# Generated by pormake.
# Topology rob, (6)-cn, num edge types: 1
# Building blocks:
#     Node 0, Type 0, BuildingBlock: KUMBUR_clean_sbu_1, # of connection points: 6
#     Node 1, Type 0, BuildingBlock: KUMBUR_clean_sbu_1, # of connection points: 6
#     Node 2, Type 0, BuildingBlock: KUMBUR_clean_sbu_1, # of connection points: 6
#     Node 3, Type 0, BuildingBlock: KUMBUR_clean_sbu_1, # of connection points: 6
#     Edge 4, Type (0, 0), BuildingBlock: UVAHIK_clean_linker_0, # of connection points: 2
#     Edge 5, Type (0, 0), BuildingBlock: UVAHIK_clean_linker_0, # of connection points: 2
#     Edge 6, Type (0, 0), BuildingBlock: UVAHIK_clean_linker_0, # of connection points: 2
#     Edge 7, Type (0, 0), BuildingBlock: UVAHIK_clean_linker_0, # of connection points: 2
#     Edge 8, Type (0, 0), BuildingBlock: UVAHIK_clean_linker_0, # of connection points: 2
#     Edge 9, Type (0, 0), BuildingBlock: UVAHIK_clean_linker_0, # of connection points: 2
#     Edge 10, Type (0, 0), BuildingBlock: UVAHIK_clean_linker_0, # of connection points: 2
#     Edge 11, Type (0, 0), BuildingBlock: UVAHIK_clean_linker_0, # of connection points: 2
#     Edge 12, Type (0, 0), BuildingBlock: UVAHIK_clean_linker_0, # of connection points: 2
#     Edge 13, Type (0, 0), BuildingBlock: UVAHIK_clean_linker_0, # of connection points: 2
#     Edge 14, Type (0, 0), BuildingBlock: UVAHIK_clean_linker_0, # of connection points: 2
#     Edge 15, Type (0, 0), BuildingBlock: UVAHIK_clean_linker_0, # of connection points: 2
# Relax obj value: 0.016
# Max RMSD: 0.098
# Mean RMSD: 0.098
data_MOF--net-rob--node1-KUMBUR_clean_sbu_1--edge1-UVAHIK_clean_linker_0
_symmetry_space_group_name_H-M    P1
_symmetry_Int_Tables_number       1
_symmetry_cell_setting            triclinic
loop_
_symmetry_equiv_pos_as_xyz
'x, y, z'
_cell_length_a     22.959476
_cell_length_b     31.139414
_cell_length_c     41.794515
_cell_angle_alpha  108.66985
_cell_angle_beta   89.873398
_cell_angle_gamma 89.87922
loop_
_atom_site_label
_atom_site_type_symbol
_atom_site_fract_x
_atom_site_fract_y
_atom_site_fract_z
_atom_type_partial_charge
Tb0 Tb 0.31956 0.20725 0.98015 0.0
C1 C 0.1556 0.38194 0.04475 0.0
N2 N 0.20566 0.36918 0.05652 0.0
C3 C 0.23884 0.44617 0.07457 0.0
C4 C 0.14564 0.42739 0.04679 0.0
C5 C 0.24642 0.40067 0.07223 0.0
C6 C 0.18846 0.45955 0.06154 0.0
C7 C 0.0603 0.36112 0.0197 0.0
C8 C 0.11348 0.34938 0.03148 0.0
C9 C 0.05052 0.40622 0.02102 0.0
C10 C 0.09311 0.43928 0.03453 0.0
Tb11 Tb 0.21404 0.29389 0.05002 0.0
N12 N 0.12523 0.30587 0.02974 0.0
C13 C 0.01859 0.3272 0.00711 0.0
C14 C 0.08354 0.27311 0.01918 0.0
C15 C 0.03006 0.28312 0.00718 0.0
H16 H 0.28429 0.39079 0.0835 0.0
H17 H 0.99765 0.25686 0.99807 0.0
H18 H 0.28702 0.10665 0.98563 0.0
H19 H 0.51894 0.30552 0.00685 0.0
H20 H 0.09178 0.23913 0.01941 0.0
H21 H 0.97716 0.33479 0.99774 0.0
H22 H 0.42389 0.28318 0.98005 0.0
H23 H 0.27156 0.47096 0.08673 0.0
H24 H 0.01004 0.41594 0.01193 0.0
H25 H 0.08472 0.47402 0.03571 0.0
H26 H 0.33205 0.0507 0.00886 0.0
H27 H 0.18253 0.49486 0.06358 0.0
H28 H 0.56515 0.25976 0.03855 0.0
N29 N 0.35714 0.15326 1.00032 0.0
C30 C 0.41085 0.16183 0.01447 0.0
C31 C 0.35454 0.08191 0.01071 0.0
C32 C 0.43788 0.13122 0.02835 0.0
C33 C 0.32917 0.11357 0.99759 0.0
C34 C 0.40894 0.09091 0.02638 0.0
N35 N 0.41056 0.23026 1.00136 0.0
C36 C 0.44084 0.26518 0.99613 0.0
C37 C 0.49387 0.21202 0.02985 0.0
C38 C 0.43792 0.20204 0.01558 0.0
C39 C 0.52212 0.25088 0.02794 0.0
C40 C 0.49601 0.27698 0.0103 0.0
H41 H 0.42829 0.06646 0.03672 0.0
H42 H 0.51396 0.11899 0.05482 0.0
H43 H 0.56328 0.18954 0.05585 0.0
O44 O 0.37314 0.20293 0.93744 0.0
O45 O 0.30739 0.20552 0.03218 0.0
O46 O 0.30218 0.27999 0.06356 0.0
O47 O 0.3191 0.1467 0.93932 0.0
O48 O 0.31933 0.27995 0.98499 0.0
O49 O 0.30243 0.31358 0.0417 0.0
O50 O 0.18028 0.26447 0.08499 0.0
O51 O 0.19339 0.28711 0.99746 0.0
O52 O 0.24337 0.22788 0.95785 0.0
O53 O 0.18752 0.33681 0.0977 0.0
O54 O 0.19287 0.22148 0.03434 0.0
O55 O 0.23247 0.17975 0.98184 0.0
C56 C 0.31949 0.23861 0.05991 0.0
C57 C 0.37589 0.13378 0.88797 0.0
C58 C 0.42323 0.12497 0.83348 0.0
C59 C 0.40778 0.0788 0.82282 0.0
C60 C 0.3619 0.08747 0.87654 0.0
C61 C 0.37771 0.06031 0.84423 0.0
C62 C 0.40675 0.15253 0.86629 0.0
C63 C 0.32114 0.31556 0.01251 0.0
C64 C 0.35574 0.16189 0.92193 0.0
C65 C 0.4926 0.14189 0.04376 0.0
C66 C 0.52054 0.18219 0.0445 0.0
C67 C 0.20344 0.25994 0.96659 0.0
C68 C 0.19636 0.30624 0.14211 0.0
C69 C 0.17763 0.3052 0.19937 0.0
C70 C 0.23698 0.31403 0.2069 0.0
C71 C 0.25522 0.31548 0.15018 0.0
C72 C 0.15777 0.30084 0.16665 0.0
C73 C 0.27548 0.31892 0.18236 0.0
C74 C 0.19516 0.18544 0.00699 0.0
C75 C 0.17416 0.3034 0.10858 0.0
H76 H 0.41819 0.05685 0.79759 0.0
H77 H 0.3382 0.07213 0.89252 0.0
H78 H 0.36617 0.02476 0.83561 0.0
H79 H 0.41782 0.1882 0.87489 0.0
H80 H 0.25364 0.31699 0.23174 0.0
H81 H 0.2852 0.32054 0.13171 0.0
H82 H 0.11207 0.29442 0.1605 0.0
H83 H 0.32105 0.3258 0.18841 0.0
Tb84 Tb 0.80184 0.70513 0.96753 0.0
C85 C 0.60562 0.83793 1.00322 0.0
N86 N 0.65967 0.84627 0.01694 0.0
C87 C 0.66228 0.91744 1.00625 0.0
C88 C 0.57837 0.86857 0.98945 0.0
C89 C 0.68786 0.88576 0.01926 0.0
C90 C 0.60748 0.90869 0.99106 0.0
C91 C 0.52205 0.78821 0.98868 0.0
C92 C 0.5784 0.79793 1.00244 0.0
C93 C 0.49516 0.81805 0.97413 0.0
C94 C 0.52326 0.85814 0.97451 0.0
Tb95 Tb 0.69767 0.79217 0.03695 0.0
N96 N 0.60598 0.7697 0.01657 0.0
C97 C 0.49363 0.74967 0.99105 0.0
C98 C 0.57549 0.73527 0.0224 0.0
C99 C 0.51995 0.7237 0.00873 0.0
H100 H 0.73031 0.89252 0.03086 0.0
H101 H 0.4969 0.69546 0.01259 0.0
H102 H 0.73278 0.60739 0.93511 0.0
H103 H 0.01597 0.74593 0.02206 0.0
H104 H 0.59264 0.71744 0.03855 0.0
H105 H 0.4503 0.74099 0.98084 0.0
H106 H 0.92186 0.76222 1.00009 0.0
H107 H 0.68493 0.94849 0.00781 0.0
H108 H 0.45211 0.81091 0.96316 0.0
H109 H 0.50173 0.88107 0.96353 0.0
H110 H 0.74742 0.52755 0.93222 0.0
H111 H 0.58797 0.93315 0.98079 0.0
H112 H 0.03869 0.66815 0.02193 0.0
N113 N 0.81169 0.63009 0.96151 0.0
C114 C 0.86211 0.61812 0.97341 0.0
C115 C 0.77982 0.55277 0.94412 0.0
C116 C 0.87305 0.57288 0.97162 0.0
C117 C 0.77118 0.59809 0.94625 0.0
C118 C 0.8308 0.54013 0.95706 0.0
N119 N 0.89042 0.69476 0.98879 0.0
C120 C 0.93087 0.72829 1.00014 0.0
C121 C 0.95662 0.64047 0.99914 0.0
C122 C 0.90334 0.65138 0.98694 0.0
C123 C 0.99721 0.6751 0.01227 0.0
C124 C 0.98446 0.7191 0.01248 0.0
H125 H 0.83748 0.50497 0.95522 0.0
H126 H 0.93498 0.52724 0.98309 0.0
H127 H 0.00813 0.58644 0.00721 0.0
O128 O 0.83791 0.73322 0.93237 0.0
O129 O 0.81829 0.70936 0.02015 0.0
O130 O 0.77775 0.77495 0.05804 0.0
O131 O 0.82694 0.66118 0.91991 0.0
O132 O 0.82279 0.77759 0.98206 0.0
O133 O 0.78462 0.81953 0.03479 0.0
O134 O 0.6479 0.79493 0.08083 0.0
O135 O 0.70812 0.79362 0.98477 0.0
O136 O 0.71404 0.71907 0.9535 0.0
O137 O 0.69548 0.85326 0.07711 0.0
O138 O 0.69687 0.71933 0.03193 0.0
O139 O 0.71315 0.68546 0.97514 0.0
C140 C 0.81282 0.7396 0.05036 0.0
C141 C 0.81973 0.69174 0.87544 0.0
C142 C 0.83826 0.69313 0.8183 0.0
C143 C 0.77888 0.68455 0.8108 0.0
C144 C 0.76075 0.68285 0.86745 0.0
C145 C 0.74039 0.67972 0.83535 0.0
C146 C 0.85827 0.69723 0.85093 0.0
C147 C 0.82083 0.81396 0.00917 0.0
C148 C 0.84206 0.69405 0.90883 0.0
C149 C 0.92582 0.56181 0.98412 0.0
C150 C 0.96753 0.59552 0.99782 0.0
C151 C 0.69637 0.76035 0.95711 0.0
C152 C 0.64267 0.86504 0.12956 0.0
C153 C 0.59522 0.87398 0.18399 0.0
C154 C 0.61132 0.92001 0.1948 0.0
C155 C 0.65729 0.91126 0.14111 0.0
C156 C 0.61148 0.84641 0.15116 0.0
C157 C 0.64178 0.93839 0.17348 0.0
C158 C 0.69366 0.68392 1.0043 0.0
C159 C 0.6622 0.83699 0.09546 0.0
H160 H 0.76225 0.68173 0.78598 0.0
H161 H 0.73076 0.67779 0.88591 0.0
H162 H 0.69477 0.67306 0.82935 0.0
H163 H 0.90404 0.70346 0.85698 0.0
H164 H 0.60107 0.94192 0.22007 0.0
H165 H 0.68128 0.92654 0.12521 0.0
H166 H 0.59981 0.81085 0.14245 0.0
H167 H 0.65381 0.97384 0.18219 0.0
Tb168 Tb 0.32042 0.79649 0.53919 0.0
C169 C 0.15479 0.62409 0.4775 0.0
N170 N 0.20674 0.63453 0.46627 0.0
C171 C 0.2376 0.55709 0.45272 0.0
C172 C 0.14235 0.57968 0.47716 0.0
C173 C 0.24758 0.60161 0.45324 0.0
C174 C 0.18488 0.5461 0.46493 0.0
C175 C 0.05825 0.64868 0.49958 0.0
C176 C 0.11334 0.658 0.48851 0.0
C177 C 0.04577 0.6046 0.49976 0.0
C178 C 0.08775 0.57018 0.48861 0.0
Tb179 Tb 0.21842 0.70831 0.46868 0.0
N180 N 0.12763 0.70041 0.48863 0.0
C181 C 0.01751 0.68395 0.51005 0.0
C182 C 0.08727 0.73448 0.49748 0.0
C183 C 0.03196 0.72693 0.50874 0.0
H184 H 0.28729 0.60945 0.44245 0.0
H185 H 1.00039 0.75422 0.5162 0.0
H186 H 0.28474 0.89717 0.53476 0.0
H187 H 0.52317 0.70133 0.51272 0.0
H188 H 0.09739 0.76745 0.4959 0.0
H189 H 0.97465 0.67824 0.51878 0.0
H190 H 0.42665 0.72106 0.53843 0.0
H191 H 0.27029 0.53118 0.44254 0.0
H192 H 1.00375 0.59674 0.5083 0.0
H193 H 0.07738 0.53627 0.48864 0.0
H194 H 0.32942 0.95555 0.51398 0.0
H195 H 0.17708 0.51152 0.46426 0.0
H196 H 0.5697 0.75012 0.48359 0.0
N197 N 0.35714 0.85232 0.52075 0.0
C198 C 0.41187 0.84535 0.50761 0.0
C199 C 0.35294 0.92463 0.51193 0.0
C200 C 0.43876 0.87742 0.49515 0.0
C201 C 0.32775 0.89158 0.52364 0.0
C202 C 0.40855 0.91742 0.49745 0.0
N203 N 0.41263 0.77537 0.5186 0.0
C204 C 0.44359 0.74026 0.52321 0.0
C205 C 0.49687 0.79678 0.49244 0.0
C206 C 0.44 0.80518 0.50586 0.0
C207 C 0.52596 0.75781 0.4936 0.0
C208 C 0.49966 0.72999 0.50976 0.0
H209 H 0.42777 0.94296 0.4882 0.0
H210 H 0.51589 0.8925 0.47078 0.0
H211 H 0.56704 0.82211 0.4687 0.0
O212 O 0.3716 0.79962 0.58238 0.0
O213 O 0.31321 0.79893 0.48713 0.0
O214 O 0.30672 0.72418 0.45678 0.0
O215 O 0.31914 0.85673 0.58031 0.0
O216 O 0.3224 0.72386 0.53459 0.0
O217 O 0.30707 0.69043 0.47785 0.0
O218 O 0.17745 0.73088 0.43176 0.0
O219 O 0.19881 0.71345 0.52134 0.0
O220 O 0.24123 0.77742 0.55997 0.0
O221 O 0.21007 0.66282 0.41949 0.0
O222 O 0.2005 0.78118 0.48125 0.0
O223 O 0.23228 0.82165 0.53565 0.0
C224 C 0.32261 0.76539 0.4592 0.0
C225 C 0.37389 0.86841 0.63206 0.0
C226 C 0.42237 0.87631 0.68589 0.0
C227 C 0.40634 0.92242 0.69721 0.0
C228 C 0.35912 0.91463 0.64412 0.0
C229 C 0.37521 0.94131 0.67644 0.0
C230 C 0.4056 0.84924 0.65312 0.0
C231 C 0.32492 0.68829 0.50708 0.0
C232 C 0.35476 0.84093 0.59783 0.0
C233 C 0.49457 0.86842 0.4807 0.0
C234 C 0.52355 0.8282 0.47935 0.0
C235 C 0.20519 0.74277 0.55189 0.0
C236 C 0.12652 0.67348 0.39026 0.0
C237 C 0.06314 0.66504 0.34185 0.0
C238 C 0.02712 0.63607 0.35282 0.0
C239 C 0.09019 0.64404 0.40048 0.0
C240 C 0.11247 0.68431 0.36101 0.0
C241 C 0.04051 0.62588 0.38208 0.0
C242 C 0.19849 0.81648 0.50912 0.0
C243 C 0.1805 0.69113 0.40882 0.0
H244 H 0.4172 0.94396 0.72245 0.0
H245 H 0.33482 0.93028 0.62858 0.0
H246 H 0.36322 0.97681 0.68554 0.0
H247 H 0.41739 0.81366 0.64402 0.0
H248 H 0.98862 0.62122 0.33867 0.0
H249 H 0.10063 0.63426 0.42223 0.0
H250 H 0.14079 0.70639 0.35259 0.0
H251 H 0.01279 0.60327 0.39024 0.0
Tb252 Tb 0.79631 0.29079 0.54842 0.0
C253 C 0.60105 0.15596 0.50946 0.0
N254 N 0.65544 0.14913 0.49587 0.0
C255 C 0.65998 0.07621 0.5036 0.0
C256 C 0.57476 0.12371 0.52197 0.0
C257 C 0.68457 0.10949 0.49189 0.0
C258 C 0.60504 0.08349 0.51896 0.0
C259 C 0.51639 0.20464 0.52575 0.0
C260 C 0.5727 0.19612 0.51155 0.0
C261 C 0.49037 0.17312 0.53901 0.0
C262 C 0.51946 0.13273 0.53709 0.0
Tb263 Tb 0.69141 0.20496 0.47728 0.0
N264 N 0.59943 0.22592 0.49854 0.0
C265 C 0.48724 0.24391 0.5253 0.0
C266 C 0.56851 0.26168 0.49497 0.0
C267 C 0.51297 0.27205 0.5092 0.0
H268 H 0.72699 0.10385 0.48001 0.0
H269 H 0.48946 0.30113 0.50699 0.0
H270 H 0.72648 0.38944 0.57395 0.0
H271 H 0.02033 0.25088 0.512 0.0
H272 H 0.58504 0.28148 0.48007 0.0
H273 H 0.44392 0.25174 0.53594 0.0
H274 H 0.92151 0.23642 0.52992 0.0
H275 H 0.68342 0.04504 0.50086 0.0
H276 H 0.44731 0.17929 0.55024 0.0
H277 H 0.49861 0.10854 0.5471 0.0
H278 H 0.741 0.46695 0.57184 0.0
H279 H 0.58629 0.0578 0.52821 0.0
H280 H 0.04322 0.32511 0.5051 0.0
N281 N 0.80595 0.36407 0.54872 0.0
C282 C 0.85782 0.37496 0.53777 0.0
C283 C 0.77392 0.44123 0.56167 0.0
C284 C 0.86931 0.41924 0.53739 0.0
C285 C 0.76518 0.39697 0.5621 0.0
C286 C 0.82596 0.45231 0.54885 0.0
N287 N 0.88829 0.30064 0.53107 0.0
C288 C 0.93102 0.26856 0.52645 0.0
C289 C 0.95672 0.35242 0.51953 0.0
C290 C 0.90088 0.34224 0.52907 0.0
C291 C 0.99975 0.31873 0.51263 0.0
C292 C 0.98699 0.27677 0.51647 0.0
H293 H 0.83302 0.48677 0.54901 0.0
H294 H 0.93384 0.46311 0.52609 0.0
H295 H 0.01041 0.40446 0.51032 0.0
O296 O 0.83325 0.2674 0.58618 0.0
O297 O 0.82773 0.27149 0.4958 0.0
O298 O 0.75115 0.24518 0.45767 0.0
O299 O 0.8057 0.33641 0.5974 0.0
O300 O 0.81056 0.21756 0.53563 0.0
O301 O 0.78036 0.17999 0.48032 0.0
O302 O 0.63105 0.19241 0.43706 0.0
O303 O 0.70041 0.20165 0.52902 0.0
O304 O 0.70707 0.27613 0.55955 0.0
O305 O 0.70676 0.1489 0.43352 0.0
O306 O 0.68857 0.27734 0.48205 0.0
O307 O 0.70842 0.31035 0.53833 0.0
C308 C 0.80442 0.26074 0.46543 0.0
C309 C 0.88748 0.32376 0.62683 0.0
C310 C 0.95069 0.33169 0.6752 0.0
C311 C 0.98741 0.36014 0.66413 0.0
C312 C 0.92447 0.35281 0.61656 0.0
C313 C 0.97444 0.37038 0.63485 0.0
C314 C 0.90113 0.31286 0.6561 0.0
C315 C 0.81434 0.18403 0.50672 0.0
C316 C 0.83271 0.30754 0.60862 0.0
C317 C 0.92424 0.42934 0.52675 0.0
C318 C 0.9679 0.39598 0.51783 0.0
C319 C 0.69054 0.23504 0.55697 0.0
C320 C 0.64198 0.12918 0.38472 0.0
C321 C 0.5921 0.12006 0.33106 0.0
C322 C 0.60885 0.07409 0.32005 0.0
C323 C 0.65789 0.08327 0.37294 0.0
C324 C 0.60887 0.14755 0.36372 0.0
C325 C 0.64121 0.05595 0.34087 0.0
C326 C 0.68995 0.31312 0.50937 0.0
C327 C 0.66015 0.15729 0.41889 0.0
H328 H 0.02606 0.37465 0.67828 0.0
H329 H 0.91413 0.36297 0.59493 0.0
H330 H 1.00259 0.39271 0.62666 0.0
H331 H 0.87221 0.29128 0.66467 0.0
H332 H 0.59781 0.05211 0.29498 0.0
H333 H 0.68299 0.06839 0.38867 0.0
H334 H 0.59628 0.18297 0.37274 0.0
H335 H 0.65375 0.02056 0.33199 0.0
C336 C 0.65154 0.63378 0.03487 0.0
C337 C 0.65828 0.64453 1.00492 0.0
C338 C 0.61548 0.59797 0.03571 0.0
C339 C 0.54363 0.4942 0.98054 0.0
H340 H 0.44168 0.51111 0.05772 0.0
C341 C 0.36239 0.36607 0.982 0.0
C342 C 0.3561 0.35517 0.01192 0.0
C343 C 0.39829 0.40194 0.9811 0.0
C344 C 0.47026 0.50567 0.03612 0.0
H345 H 0.63169 0.62683 0.95254 0.0
H346 H 0.56932 0.56433 0.95392 0.0
H347 H 0.50795 0.57164 0.05642 0.0
H348 H 0.38358 0.37255 0.06413 0.0
H349 H 0.44547 0.43526 0.06269 0.0
H350 H 0.5059 0.42823 0.96024 0.0
C351 C 0.59263 0.58289 0.97661 0.0
C352 C 0.50835 0.54034 0.03541 0.0
C353 C 0.62854 0.61866 0.9758 0.0
C354 C 0.3862 0.38092 0.04094 0.0
C355 C 0.4219 0.41679 0.04008 0.0
C356 C 0.50552 0.45954 0.98124 0.0
C357 C 0.58535 0.57224 1.00662 0.0
C358 C 0.54552 0.53503 0.00762 0.0
C359 C 0.42869 0.42759 0.01011 0.0
C360 C 0.46838 0.46484 0.00905 0.0
H361 H 0.67395 0.65319 0.05768 0.0
H362 H 0.61137 0.59033 0.05914 0.0
H363 H 0.57223 0.48874 0.95895 0.0
H364 H 0.33979 0.34669 0.95925 0.0
H365 H 0.4021 0.40969 0.9577 0.0
C366 C 0.36553 0.63679 0.53694 0.0
C367 C 0.36054 0.64891 0.50748 0.0
C368 C 0.40105 0.60037 0.5373 0.0
C369 C 0.52616 0.53205 0.49291 0.0
H370 H 0.4738 0.44584 0.53613 0.0
C371 C 0.65053 0.3656 0.48021 0.0
C372 C 0.65481 0.35286 0.50942 0.0
C373 C 0.61508 0.40207 0.47996 0.0
C374 C 0.48936 0.46992 0.52429 0.0
H375 H 0.38975 0.63329 0.45559 0.0
H376 H 0.45047 0.56936 0.456 0.0
H377 H 0.41074 0.50897 0.5362 0.0
H378 H 0.6243 0.36722 0.56094 0.0
H379 H 0.56387 0.43148 0.56085 0.0
H380 H 0.60481 0.49308 0.48104 0.0
C381 C 0.42731 0.58794 0.47886 0.0
C382 C 0.4532 0.50608 0.52434 0.0
C383 C 0.39187 0.62419 0.47851 0.0
C384 C 0.62282 0.37695 0.53828 0.0
C385 C 0.58751 0.41334 0.53806 0.0
C386 C 0.56235 0.49593 0.49289 0.0
C387 C 0.43254 0.57569 0.50828 0.0
C388 C 0.47116 0.53753 0.50862 0.0
C389 C 0.58298 0.42623 0.50887 0.0
C390 C 0.54439 0.46446 0.5086 0.0
H391 H 0.34212 0.65553 0.55967 0.0
H392 H 0.40469 0.59206 0.56048 0.0
H393 H 0.54163 0.5561 0.481 0.0
H394 H 0.67441 0.34723 0.45755 0.0
H395 H 0.61196 0.41078 0.45692 0.0
C396 C 0.11945 0.15017 0.03397 0.0
C397 C 0.15534 0.14746 1.00602 0.0
C398 C 0.0835 0.11412 0.03404 0.0
C399 C 0.0124 0.01142 0.97812 0.0
H400 H 1.00137 0.97866 0.06001 0.0
C401 C 0.89555 0.84919 0.98151 0.0
C402 C 0.86034 0.85194 0.00972 0.0
C403 C 0.93147 0.88518 0.98123 0.0
C404 C 1.0034 0.9877 0.03708 0.0
H405 H 0.18057 0.10442 0.95592 0.0
H406 H 0.11778 0.04128 0.95616 0.0
H407 H 0.06432 0.04101 0.05861 0.0
H408 H 0.83611 0.89499 0.06 0.0
H409 H 0.89866 0.958 0.05937 0.0
H410 H 0.95141 0.95815 0.9566 0.0
C411 C 0.1174 0.07165 0.97796 0.0
C412 C 0.03955 0.02342 0.03624 0.0
C413 C 0.15361 0.1078 0.9779 0.0
C414 C 0.86256 0.89158 0.03783 0.0
C415 C 0.89866 0.92767 0.03754 0.0
C416 C 0.97621 0.97571 0.97896 0.0
C417 C 0.08224 0.07429 1.00616 0.0
C418 C 0.04444 0.03577 1.00677 0.0
C419 C 0.93332 0.92497 0.00914 0.0
C420 C 0.97129 0.96338 0.00844 0.0
H421 H 0.11923 0.18009 0.05611 0.0
H422 H 0.05629 0.11763 0.05594 0.0
H423 H 0.01447 0.02047 0.95519 0.0
H424 H 0.89532 0.81927 0.95937 0.0
H425 H 0.95826 0.88163 0.95916 0.0
C426 C 0.88647 0.14717 0.53469 0.0
C427 C 0.85463 0.14614 0.5057 0.0
C428 C 0.9234 0.11147 0.53456 0.0
C429 C 1.00476 0.01392 0.47818 0.0
H430 H 0.00764 0.97452 0.55734 0.0
C431 C 0.12736 0.85258 0.47992 0.0
C432 C 0.15865 0.85425 0.50923 0.0
C433 C 0.09046 0.8881 0.47947 0.0
C434 C 0.00791 0.98544 0.5352 0.0
H435 H 0.8375 0.10641 0.4536 0.0
H436 H 0.90183 0.04368 0.4535 0.0
H437 H 0.94251 0.03579 0.55593 0.0
H438 H 0.17509 0.89495 0.56119 0.0
H439 H 0.1109 0.95717 0.56028 0.0
H440 H 0.0702 0.96351 0.45747 0.0
C441 C 0.89838 0.07256 0.47628 0.0
C442 C 0.97049 0.02056 0.53436 0.0
C443 C 0.86126 0.10844 0.4764 0.0
C444 C 0.15175 0.89242 0.53817 0.0
C445 C 0.11467 0.92802 0.53771 0.0
C446 C 0.0422 0.97876 0.47903 0.0
C447 C 0.92962 0.07355 0.50547 0.0
C448 C 0.96854 0.03536 0.50588 0.0
C449 C 0.0837 0.92633 0.50829 0.0
C450 C 0.04429 0.9641 0.50756 0.0
H451 H 0.88291 0.17558 0.55777 0.0
H452 H 0.94754 0.11382 0.55729 0.0
H453 H 1.00503 0.02488 0.45607 0.0
H454 H 0.13128 0.82381 0.4571 0.0
H455 H 0.06665 0.88531 0.45655 0.0
C456 C 0.57255 0.18073 0.30404 0.0
C457 C 0.5586 0.13855 0.30773 0.0
C458 C 0.54586 0.19488 0.27887 0.0
C459 C 0.47753 0.14613 0.19567 0.0
H460 H 0.418 0.26704 0.20841 0.0
C461 C 0.34194 0.18629 0.09288 0.0
C462 C 0.34859 0.22873 0.08833 0.0
C463 C 0.36868 0.17705 0.11999 0.0
C464 C 0.43521 0.23328 0.20426 0.0
H465 H 0.50213 0.08002 0.28952 0.0
H466 H 0.45648 0.10435 0.24569 0.0
H467 H 0.46151 0.24916 0.25606 0.0
H468 H 0.38948 0.2945 0.10805 0.0
H469 H 0.4368 0.27839 0.15532 0.0
H470 H 0.45255 0.13015 0.14396 0.0
C471 C 0.4889 0.12606 0.26171 0.0
C472 C 0.45995 0.22305 0.23164 0.0
C473 C 0.51514 0.11213 0.28687 0.0
C474 C 0.38307 0.26165 0.11123 0.0
C475 C 0.41 0.25241 0.13836 0.0
C476 C 0.45343 0.15641 0.16831 0.0
C477 C 0.5049 0.16703 0.25681 0.0
C478 C 0.48065 0.17914 0.22775 0.0
C479 C 0.40305 0.20999 0.14319 0.0
C480 C 0.43119 0.19994 0.17225 0.0
H481 H 0.60595 0.20188 0.31955 0.0
H482 H 0.55909 0.22667 0.27574 0.0
H483 H 0.49421 0.11223 0.19164 0.0
H484 H 0.31522 0.1604 0.07576 0.0
H485 H 0.36143 0.14425 0.12306 0.0
C486 C 0.51949 0.88266 0.22899 0.0
C487 C 0.56251 0.85579 0.20774 0.0
C488 C 0.49428 0.86939 0.25473 0.0
C489 C 0.46274 0.77464 0.28545 0.0
H490 H 0.46592 0.86675 0.37363 0.0
C491 C 0.38137 0.73868 0.40589 0.0
C492 C 0.35222 0.77392 0.43036 0.0
C493 C 0.40943 0.74672 0.3786 0.0
C494 C 0.46377 0.84077 0.34918 0.0
H495 H 0.60986 0.79222 0.19572 0.0
H496 H 0.56417 0.76835 0.24045 0.0
H497 H 0.50757 0.88284 0.32513 0.0
H498 H 0.32861 0.84494 0.44515 0.0
H499 H 0.37607 0.85892 0.39735 0.0
H500 H 0.41714 0.73301 0.30917 0.0
C501 C 0.5509 0.80011 0.23722 0.0
C502 C 0.48801 0.84997 0.32139 0.0
C503 C 0.57682 0.81369 0.21154 0.0
C504 C 0.35143 0.81728 0.42693 0.0
C505 C 0.37896 0.82526 0.39952 0.0
C506 C 0.43764 0.76559 0.31323 0.0
C507 C 0.51063 0.82854 0.25967 0.0
C508 C 0.48727 0.81722 0.28918 0.0
C509 C 0.40844 0.79011 0.37491 0.0
C510 C 0.4373 0.79874 0.34546 0.0
H511 H 0.50615 0.91467 0.22625 0.0
H512 H 0.46239 0.8915 0.27115 0.0
H513 H 0.46136 0.74886 0.26087 0.0
H514 H 0.38311 0.70494 0.40804 0.0
H515 H 0.43242 0.71896 0.3606 0.0
C516 C 0.67247 0.81225 0.92409 0.0
C517 C 0.66657 0.76985 0.92879 0.0
C518 C 0.64523 0.82107 0.89697 0.0
C519 C 0.57891 0.7637 0.81292 0.0
H520 H 0.51837 0.88419 0.82503 0.0
C521 C 0.44081 0.8156 0.713 0.0
C522 C 0.45562 0.85746 0.70904 0.0
C523 C 0.46731 0.80145 0.73822 0.0
C524 C 0.53541 0.85043 0.82117 0.0
H525 H 0.62651 0.70371 0.90939 0.0
H526 H 0.57826 0.71911 0.86212 0.0
H527 H 0.56031 0.86696 0.87293 0.0
H528 H 0.51331 0.91532 0.72667 0.0
H529 H 0.55851 0.89104 0.77062 0.0
H530 H 0.5527 0.7473 0.76106 0.0
C531 C 0.60486 0.74536 0.87895 0.0
C532 C 0.55969 0.84056 0.84864 0.0
C533 C 0.63232 0.73655 0.90607 0.0
C534 C 0.49971 0.88348 0.72957 0.0
C535 C 0.52568 0.86959 0.75478 0.0
C536 C 0.55394 0.77351 0.78544 0.0
C537 C 0.6111 0.78773 0.87394 0.0
C538 C 0.58257 0.79727 0.84484 0.0
C539 C 0.5088 0.82904 0.76 0.0
C540 C 0.53274 0.81722 0.78919 0.0
H541 H 0.69904 0.83841 0.94106 0.0
H542 H 0.65191 0.85384 0.89374 0.0
H543 H 0.59663 0.73012 0.80891 0.0
H544 H 0.40693 0.79479 0.6977 0.0
H545 H 0.45351 0.76996 0.74164 0.0
C546 C 0.63272 0.26132 0.61068 0.0
C547 C 0.66182 0.22629 0.58602 0.0
C548 C 0.60534 0.25308 0.63811 0.0
C549 C 0.55298 0.15852 0.66775 0.0
H550 H 0.55424 0.25075 0.75593 0.0
C551 C 0.49855 0.11666 0.78825 0.0
C552 C 0.4554 0.14328 0.80956 0.0
C553 C 0.5233 0.12997 0.7624 0.0
C554 C 0.55318 0.22486 0.73139 0.0
H555 H 0.68609 0.15538 0.57106 0.0
H556 H 0.63992 0.14107 0.6191 0.0
H557 H 0.59782 0.26682 0.70756 0.0
H558 H 0.4073 0.20651 0.8215 0.0
H559 H 0.45217 0.23048 0.77658 0.0
H560 H 0.51014 0.11614 0.69192 0.0
C561 C 0.63649 0.17473 0.61699 0.0
C562 C 0.57793 0.23404 0.70355 0.0
C563 C 0.66331 0.18291 0.58943 0.0
C564 C 0.44046 0.18521 0.80565 0.0
C565 C 0.46592 0.19886 0.77985 0.0
C566 C 0.5291 0.1492 0.6956 0.0
C567 C 0.60698 0.20968 0.64178 0.0
C568 C 0.57867 0.20081 0.67135 0.0
C569 C 0.50636 0.17065 0.75737 0.0
C570 C 0.5294 0.18206 0.72778 0.0
H571 H 0.63044 0.29506 0.60857 0.0
H572 H 0.58231 0.28071 0.65622 0.0
H573 H 0.55109 0.13244 0.64334 0.0
H574 H 0.51239 0.08478 0.79104 0.0
H575 H 0.55532 0.10804 0.74596 0.0
C576 C 0.85898 0.76928 0.10743 0.0
C577 C 0.84764 0.73278 0.07806 0.0
C578 C 0.88944 0.7624 0.13431 0.0
C579 C 0.91879 0.67426 0.17238 0.0
H580 H 0.03878 0.75562 0.2224 0.0
C581 C 0.03854 0.63702 0.2806 0.0
C582 C 0.04944 0.67364 0.30986 0.0
C583 C 0.02041 0.6445 0.251 0.0
C584 C 1.00494 0.73285 0.20892 0.0
H585 H 0.85964 0.66048 0.05381 0.0
H586 H 0.91313 0.64859 0.10058 0.0
H587 H 0.99483 0.76838 0.17296 0.0
H588 H 0.05188 0.74677 0.33103 0.0
H589 H 0.01841 0.76015 0.27946 0.0
H590 H 0.92706 0.63948 0.20859 0.0
C591 C 0.89838 0.6825 0.10282 0.0
C592 C 0.97995 0.7401 0.18055 0.0
C593 C 0.86824 0.68941 0.07589 0.0
C594 C 0.04388 0.718 0.3087 0.0
C595 C 0.02491 0.72556 0.27912 0.0
C596 C 0.94328 0.66725 0.20082 0.0
C597 C 0.9087 0.71882 0.13246 0.0
C598 C 0.93667 0.7108 0.16199 0.0
C599 C 0.01186 0.68883 0.25008 0.0
C600 C 0.98679 0.69636 0.21946 0.0
H601 H 0.84389 0.80315 0.10981 0.0
H602 H 0.89634 0.79095 0.15694 0.0
H603 H 0.88472 0.65163 0.15897 0.0
H604 H 0.04345 0.60247 0.28074 0.0
H605 H 0.01242 0.6154 0.22892 0.0
C606 C 0.87505 0.30449 0.44224 0.0
C607 C 0.8408 0.26575 0.43762 0.0
C608 C 0.9106 0.30863 0.4162 0.0
C609 C 0.92923 0.26742 0.32373 0.0
H610 H 0.0873 0.31092 0.3441 0.0
C611 C 0.09601 0.26591 0.21898 0.0
C612 C 0.13653 0.30143 0.22585 0.0
C613 C 0.05869 0.26177 0.24437 0.0
C614 C 0.04302 0.29938 0.33796 0.0
H615 H 0.81517 0.20147 0.40174 0.0
H616 H 0.87698 0.20873 0.35589 0.0
H617 H 0.02485 0.30333 0.38911 0.0
H618 H 0.16801 0.36157 0.26425 0.0
H619 H 0.10223 0.35512 0.30828 0.0
H620 H 0.94698 0.26407 0.27268 0.0
C621 C 0.87664 0.2359 0.3798 0.0
C622 C 1.00727 0.29488 0.36382 0.0
C623 C 0.84135 0.2317 0.40601 0.0
C624 C 0.138 0.33333 0.25839 0.0
C625 C 0.10035 0.3295 0.28366 0.0
C626 C 0.96486 0.27227 0.29787 0.0
C627 C 0.91198 0.27432 0.38468 0.0
C628 C 0.94997 0.27883 0.35703 0.0
C629 C 0.06064 0.29335 0.27715 0.0
C630 C 0.02229 0.28832 0.30463 0.0
H631 H 0.87305 0.33225 0.46558 0.0
H632 H 0.93617 0.33916 0.42055 0.0
H633 H 0.88503 0.25552 0.31775 0.0
H634 H 0.09415 0.24066 0.19417 0.0
H635 H 0.02928 0.23318 0.23845 0.0
C636 C 0.96997 0.27918 0.70866 0.0
C637 C 0.96383 0.32341 0.70734 0.0
C638 C 0.98888 0.27199 0.73838 0.0
C639 C 0.06933 0.33155 0.81687 0.0
H640 H 0.02021 0.22969 0.84456 0.0
C641 C 0.14564 0.30958 0.94173 0.0
C642 C 0.16791 0.26655 0.93913 0.0
C643 C 0.11494 0.31634 0.91492 0.0
C644 C 0.03436 0.25821 0.83703 0.0
H645 H 0.96864 0.39472 0.73626 0.0
H646 H 0.99941 0.38243 0.78836 0.0
H647 H 0.97568 0.24198 0.79511 0.0
H648 H 0.17413 0.19657 0.90689 0.0
H649 H 0.12043 0.20842 0.85999 0.0
H650 H 0.12772 0.34786 0.85884 0.0
C651 C 0.99197 0.35315 0.76631 0.0
C652 C 0.00906 0.26518 0.80865 0.0
C653 C 0.97396 0.36027 0.73657 0.0
C654 C 0.15769 0.23017 0.90953 0.0
C655 C 0.12655 0.23684 0.88282 0.0
C656 C 0.09408 0.32484 0.84535 0.0
C657 C 1.00123 0.30897 0.7674 0.0
C658 C 0.02641 0.30188 0.79813 0.0
C659 C 0.10563 0.28014 0.88506 0.0
C660 C 0.07709 0.28802 0.85565 0.0
H661 H 0.96257 0.25026 0.68634 0.0
H662 H 0.99593 0.23751 0.73816 0.0
H663 H 0.08495 0.35951 0.80914 0.0
H664 H 0.15355 0.33839 0.96401 0.0
H665 H 0.09899 0.35002 0.9174 0.0
C666 C 0.14099 0.69528 0.57591 0.0
C667 C 0.16885 0.73673 0.57952 0.0
C668 C 0.10626 0.68996 0.60188 0.0
C669 C 0.08342 0.73352 0.69339 0.0
H670 H 0.9285 0.68315 0.67295 0.0
C671 C 0.91853 0.73305 0.79833 0.0
C672 C 0.87926 0.69677 0.79182 0.0
C673 C 0.95551 0.73718 0.7728 0.0
C674 C 0.972 0.69654 0.67913 0.0
H675 H 0.18315 0.80479 0.61389 0.0
H676 H 0.12372 0.79499 0.65947 0.0
H677 H 0.98994 0.69111 0.62764 0.0
H678 H 0.8497 0.63527 0.75416 0.0
H679 H 0.91527 0.64144 0.70998 0.0
H680 H 0.0663 0.73813 0.74471 0.0
C681 C 0.12835 0.76681 0.63631 0.0
C682 C 1.00706 0.70128 0.65311 0.0
C683 C 0.16231 0.77237 0.61013 0.0
C684 C 0.87882 0.66403 0.75965 0.0
C685 C 0.91628 0.66776 0.7343 0.0
C686 C 0.04865 0.72823 0.71939 0.0
C687 C 0.09971 0.72565 0.63237 0.0
C688 C 0.063 0.71999 0.65998 0.0
C689 C 0.95458 0.70474 0.74033 0.0
C690 C 0.99232 0.7098 0.71265 0.0
H691 H 0.14681 0.66658 0.55332 0.0
H692 H 0.08539 0.65761 0.59836 0.0
H693 H 0.12668 0.74761 0.69932 0.0
H694 H 0.91955 0.75888 0.8229 0.0
H695 H 0.98376 0.76643 0.77837 0.0
loop_
_geom_bond_atom_site_label_1
_geom_bond_atom_site_label_2
_geom_bond_distance
_geom_bond_site_symmetry_2
_ccdc_geom_bond_type
Tb0 N29 2.617 . S
Tb0 N35 2.572 . S
Tb0 O44 2.465 . S
Tb0 O45 2.387 1_556 S
Tb0 O47 2.428 . S
Tb0 O48 2.308 . S
Tb0 O52 2.349 . S
Tb0 O55 2.393 . S
Tb0 C64 2.802 . S
C1 N2 1.379 . S
C1 C4 1.416 . S
C1 C8 1.424 . S
N2 C1 1.379 . S
N2 C5 1.334 . S
N2 Tb11 2.617 . S
C3 C5 1.390 . S
C3 C6 1.339 . S
C3 H23 0.930 . S
C4 C1 1.416 . S
C4 C6 1.416 . S
C4 C10 1.448 . S
C5 N2 1.334 . S
C5 C3 1.390 . S
C5 H16 0.930 . S
C6 C3 1.339 . S
C6 C4 1.416 . S
C6 H27 0.930 . S
C7 C8 1.413 . S
C7 C9 1.419 1_454 S
C7 C13 1.416 1_454 S
C8 C1 1.424 . S
C8 C7 1.413 . S
C8 N12 1.361 . S
C9 C7 1.419 1_656 S
C9 C10 1.329 1_656 S
C9 H24 0.936 . S
C10 C4 1.448 . S
C10 C9 1.329 1_454 S
C10 H25 0.930 1_455 S
Tb11 N2 2.617 . S
Tb11 N12 2.572 . S
Tb11 O46 2.349 . S
Tb11 O49 2.393 . S
Tb11 O50 2.465 . S
Tb11 O51 2.387 1_554 S
Tb11 O53 2.428 . S
Tb11 O54 2.308 . S
Tb11 C75 2.802 . S
N12 C8 1.361 . S
N12 Tb11 2.572 . S
N12 C14 1.340 . S
C13 C7 1.416 1_656 S
C13 C15 1.329 1_556 S
C13 H21 0.931 . S
C14 N12 1.340 . S
C14 C15 1.410 1_455 S
C14 H20 0.930 . S
C15 C13 1.329 1_554 S
C15 C14 1.410 1_655 S
C15 H17 0.930 1_554 S
H16 C5 0.930 . S
H17 C15 0.930 1_556 S
H18 C33 0.930 . S
H19 C40 0.929 . S
H20 C14 0.930 . S
H21 C13 0.931 . S
H22 C36 0.930 . S
H23 C3 0.930 . S
H24 C9 0.936 . S
H25 C10 0.930 1_655 S
H26 C31 0.930 . S
H27 C6 0.930 . S
H28 C39 0.931 . S
N29 Tb0 2.617 . S
N29 C30 1.379 . S
N29 C33 1.334 . S
C30 N29 1.379 . S
C30 C32 1.416 . S
C30 C38 1.424 . S
C31 H26 0.930 . S
C31 C33 1.390 . S
C31 C34 1.339 . S
C32 C30 1.416 . S
C32 C34 1.416 . S
C32 C65 1.448 . S
C33 H18 0.930 . S
C33 N29 1.334 . S
C33 C31 1.390 . S
C34 C31 1.339 . S
C34 C32 1.416 . S
C34 H41 0.930 . S
N35 Tb0 2.572 . S
N35 C36 1.340 . S
N35 C38 1.361 . S
C36 H22 0.930 . S
C36 N35 1.340 . S
C36 C40 1.407 1_556 S
C37 C38 1.414 1_554 S
C37 C39 1.416 . S
C37 C66 1.425 . S
C38 C30 1.424 . S
C38 N35 1.361 . S
C38 C37 1.414 1_556 S
C39 H28 0.931 . S
C39 C37 1.416 . S
C39 C40 1.332 . S
C40 H19 0.929 . S
C40 C36 1.407 1_554 S
C40 C39 1.332 . S
H41 C34 0.930 . S
H42 C65 0.931 . S
H43 C66 0.929 . S
O44 Tb0 2.465 . S
O44 C64 1.264 . S
O45 Tb0 2.387 1_554 S
O45 C56 1.264 . S
O46 Tb11 2.349 . S
O46 C56 1.243 . S
O47 Tb0 2.428 . S
O47 C64 1.256 . S
O48 Tb0 2.308 . S
O48 C63 1.266 1_556 S
O49 Tb11 2.393 . S
O49 C63 1.248 . S
O50 Tb11 2.465 . S
O50 C75 1.264 . S
O51 Tb11 2.387 1_556 S
O51 C67 1.264 . S
O52 Tb0 2.349 . S
O52 C67 1.243 . S
O53 Tb11 2.428 . S
O53 C75 1.256 . S
O54 Tb11 2.308 . S
O54 C74 1.266 1_554 S
O55 Tb0 2.393 . S
O55 C74 1.248 . S
C56 O45 1.264 . S
C56 O46 1.243 . S
C57 C60 1.399 . S
C57 C62 1.383 . S
C57 C64 1.496 . S
C58 C59 1.399 . S
C58 C62 1.389 . S
C59 C58 1.399 . S
C59 C61 1.380 . S
C59 H76 0.929 . S
C60 C57 1.399 . S
C60 C61 1.392 . S
C60 H77 0.929 . S
C61 C59 1.380 . S
C61 C60 1.392 . S
C61 H78 0.929 . S
C62 C57 1.383 . S
C62 C58 1.389 . S
C62 H79 0.931 . S
C63 O48 1.266 1_554 S
C63 O49 1.248 . S
C64 Tb0 2.802 . S
C64 O44 1.264 . S
C64 O47 1.256 . S
C64 C57 1.496 . S
C65 C32 1.448 . S
C65 H42 0.931 . S
C65 C66 1.328 1_556 S
C66 C37 1.425 . S
C66 H43 0.929 . S
C66 C65 1.328 1_554 S
C67 O51 1.264 . S
C67 O52 1.243 . S
C68 C71 1.399 . S
C68 C72 1.383 . S
C68 C75 1.496 . S
C69 C70 1.399 . S
C69 C72 1.389 . S
C70 C69 1.399 . S
C70 C73 1.380 . S
C70 H80 0.929 . S
C71 C68 1.399 . S
C71 C73 1.392 . S
C71 H81 0.929 . S
C72 C68 1.383 . S
C72 C69 1.389 . S
C72 H82 0.931 . S
C73 C70 1.380 . S
C73 C71 1.392 . S
C73 H83 0.929 . S
C74 O54 1.266 1_556 S
C74 O55 1.248 . S
C75 Tb11 2.802 . S
C75 O50 1.264 . S
C75 O53 1.256 . S
C75 C68 1.496 . S
H76 C59 0.929 . S
H77 C60 0.929 . S
H78 C61 0.929 . S
H79 C62 0.931 . S
H80 C70 0.929 . S
H81 C71 0.929 . S
H82 C72 0.931 . S
H83 C73 0.929 . S
Tb84 N113 2.617 . S
Tb84 N119 2.572 . S
Tb84 O128 2.465 . S
Tb84 O129 2.387 1_556 S
Tb84 O131 2.428 . S
Tb84 O132 2.308 . S
Tb84 O136 2.349 . S
Tb84 O139 2.393 . S
Tb84 C148 2.802 . S
C85 N86 1.379 . S
C85 C88 1.416 . S
C85 C92 1.424 . S
N86 C85 1.379 . S
N86 C89 1.334 . S
N86 Tb95 2.617 . S
C87 C89 1.390 . S
C87 C90 1.339 . S
C87 H107 0.930 . S
C88 C85 1.416 . S
C88 C90 1.416 . S
C88 C94 1.448 . S
C89 N86 1.334 . S
C89 C87 1.390 . S
C89 H100 0.930 . S
C90 C87 1.339 . S
C90 C88 1.416 . S
C90 H111 0.930 . S
C91 C92 1.413 . S
C91 C93 1.419 1_554 S
C91 C97 1.416 1_554 S
C92 C85 1.424 . S
C92 C91 1.413 . S
C92 N96 1.361 . S
C93 C91 1.419 1_556 S
C93 C94 1.329 1_556 S
C93 H108 0.936 . S
C94 C88 1.448 . S
C94 C93 1.329 1_554 S
C94 H109 0.930 . S
Tb95 N86 2.617 . S
Tb95 N96 2.572 . S
Tb95 O130 2.349 . S
Tb95 O133 2.393 . S
Tb95 O134 2.465 . S
Tb95 O135 2.387 1_554 S
Tb95 O137 2.428 . S
Tb95 O138 2.308 . S
Tb95 C159 2.802 . S
N96 C92 1.361 . S
N96 Tb95 2.572 . S
N96 C98 1.340 . S
C97 C91 1.416 1_556 S
C97 C99 1.329 1_556 S
C97 H105 0.931 . S
C98 N96 1.340 . S
C98 C99 1.410 . S
C98 H104 0.930 . S
C99 C97 1.329 1_554 S
C99 C98 1.410 . S
C99 H101 0.930 1_554 S
H100 C89 0.930 . S
H101 C99 0.930 1_556 S
H102 C117 0.930 . S
H103 C124 0.929 . S
H104 C98 0.930 . S
H105 C97 0.931 . S
H106 C120 0.930 . S
H107 C87 0.930 . S
H108 C93 0.936 . S
H109 C94 0.930 . S
H110 C115 0.930 . S
H111 C90 0.930 . S
H112 C123 0.931 . S
N113 Tb84 2.617 . S
N113 C114 1.379 . S
N113 C117 1.334 . S
C114 N113 1.379 . S
C114 C116 1.416 . S
C114 C122 1.424 . S
C115 H110 0.930 . S
C115 C117 1.390 . S
C115 C118 1.339 . S
C116 C114 1.416 . S
C116 C118 1.416 . S
C116 C149 1.448 . S
C117 H102 0.930 . S
C117 N113 1.334 . S
C117 C115 1.390 . S
C118 C115 1.339 . S
C118 C116 1.416 . S
C118 H125 0.930 . S
N119 Tb84 2.572 . S
N119 C120 1.340 . S
N119 C122 1.361 . S
C120 H106 0.930 . S
C120 N119 1.340 . S
C120 C124 1.407 1_656 S
C121 C122 1.414 1_554 S
C121 C123 1.416 1_655 S
C121 C150 1.425 1_655 S
C122 C114 1.424 . S
C122 N119 1.361 . S
C122 C121 1.414 1_556 S
C123 H112 0.931 . S
C123 C121 1.416 1_455 S
C123 C124 1.332 . S
C124 H103 0.929 . S
C124 C120 1.407 1_454 S
C124 C123 1.332 . S
H125 C118 0.930 . S
H126 C149 0.931 1_455 S
H127 C150 0.929 . S
O128 Tb84 2.465 . S
O128 C148 1.264 . S
O129 Tb84 2.387 1_554 S
O129 C140 1.264 . S
O130 Tb95 2.349 . S
O130 C140 1.243 . S
O131 Tb84 2.428 . S
O131 C148 1.256 . S
O132 Tb84 2.308 . S
O132 C147 1.266 1_556 S
O133 Tb95 2.393 . S
O133 C147 1.248 . S
O134 Tb95 2.465 . S
O134 C159 1.264 . S
O135 Tb95 2.387 1_556 S
O135 C151 1.264 . S
O136 Tb84 2.349 . S
O136 C151 1.243 . S
O137 Tb95 2.428 . S
O137 C159 1.256 . S
O138 Tb95 2.308 . S
O138 C158 1.266 1_554 S
O139 Tb84 2.393 . S
O139 C158 1.248 . S
C140 O129 1.264 . S
C140 O130 1.243 . S
C141 C144 1.399 . S
C141 C146 1.383 . S
C141 C148 1.496 . S
C142 C143 1.399 . S
C142 C146 1.389 . S
C143 C142 1.399 . S
C143 C145 1.380 . S
C143 H160 0.929 . S
C144 C141 1.399 . S
C144 C145 1.392 . S
C144 H161 0.929 . S
C145 C143 1.380 . S
C145 C144 1.392 . S
C145 H162 0.929 . S
C146 C141 1.383 . S
C146 C142 1.389 . S
C146 H163 0.931 . S
C147 O132 1.266 1_554 S
C147 O133 1.248 . S
C148 Tb84 2.802 . S
C148 O128 1.264 . S
C148 O131 1.256 . S
C148 C141 1.496 . S
C149 C116 1.448 . S
C149 H126 0.931 1_655 S
C149 C150 1.328 1_656 S
C150 C121 1.425 1_455 S
C150 H127 0.929 . S
C150 C149 1.328 1_454 S
C151 O135 1.264 . S
C151 O136 1.243 . S
C152 C155 1.399 . S
C152 C156 1.383 . S
C152 C159 1.496 . S
C153 C154 1.399 . S
C153 C156 1.389 . S
C154 C153 1.399 . S
C154 C157 1.380 . S
C154 H164 0.929 . S
C155 C152 1.399 . S
C155 C157 1.392 . S
C155 H165 0.929 . S
C156 C152 1.383 . S
C156 C153 1.389 . S
C156 H166 0.931 . S
C157 C154 1.380 . S
C157 C155 1.392 . S
C157 H167 0.929 . S
C158 O138 1.266 1_556 S
C158 O139 1.248 . S
C159 Tb95 2.802 . S
C159 O134 1.264 . S
C159 O137 1.256 . S
C159 C152 1.496 . S
H160 C143 0.929 . S
H161 C144 0.929 . S
H162 C145 0.929 . S
H163 C146 0.931 . S
H164 C154 0.929 . S
H165 C155 0.929 . S
H166 C156 0.931 . S
H167 C157 0.929 . S
Tb168 N197 2.617 . S
Tb168 N203 2.572 . S
Tb168 O212 2.465 . S
Tb168 O213 2.387 . S
Tb168 O215 2.428 . S
Tb168 O216 2.308 . S
Tb168 O220 2.349 . S
Tb168 O223 2.393 . S
Tb168 C232 2.802 . S
C169 N170 1.379 . S
C169 C172 1.416 . S
C169 C176 1.424 . S
N170 C169 1.379 . S
N170 C173 1.334 . S
N170 Tb179 2.617 . S
C171 C173 1.390 . S
C171 C174 1.339 . S
C171 H191 0.930 . S
C172 C169 1.416 . S
C172 C174 1.416 . S
C172 C178 1.448 . S
C173 N170 1.334 . S
C173 C171 1.390 . S
C173 H184 0.930 . S
C174 C171 1.339 . S
C174 C172 1.416 . S
C174 H195 0.930 . S
C175 C176 1.413 . S
C175 C177 1.427 1_455 S
C175 C181 1.416 1_455 S
C176 C169 1.424 . S
C176 C175 1.413 . S
C176 N180 1.361 . S
C177 C175 1.427 1_655 S
C177 C178 1.328 1_655 S
C177 H192 0.929 . S
C178 C172 1.448 . S
C178 C177 1.328 1_455 S
C178 H193 0.930 1_455 S
Tb179 N170 2.617 . S
Tb179 N180 2.572 . S
Tb179 O214 2.349 . S
Tb179 O217 2.393 . S
Tb179 O218 2.465 . S
Tb179 O219 2.387 . S
Tb179 O221 2.428 . S
Tb179 O222 2.308 . S
Tb179 C243 2.802 . S
N180 C176 1.361 . S
N180 Tb179 2.572 . S
N180 C182 1.340 . S
C181 C175 1.416 1_655 S
C181 C183 1.332 . S
C181 H189 0.931 . S
C182 N180 1.340 . S
C182 C183 1.407 1_455 S
C182 H188 0.930 . S
C183 C181 1.332 . S
C183 C182 1.407 1_655 S
C183 H185 0.929 . S
H184 C173 0.930 . S
H185 C183 0.929 . S
H186 C201 0.930 . S
H187 C208 0.929 . S
H188 C182 0.930 . S
H189 C181 0.931 . S
H190 C204 0.930 . S
H191 C171 0.930 . S
H192 C177 0.929 . S
H193 C178 0.930 1_655 S
H194 C199 0.930 . S
H195 C174 0.930 . S
H196 C207 0.931 . S
N197 Tb168 2.617 . S
N197 C198 1.379 . S
N197 C201 1.334 . S
C198 N197 1.379 . S
C198 C200 1.416 . S
C198 C206 1.424 . S
C199 H194 0.930 . S
C199 C201 1.390 . S
C199 C202 1.339 . S
C200 C198 1.416 . S
C200 C202 1.416 . S
C200 C233 1.448 . S
C201 H186 0.930 . S
C201 N197 1.334 . S
C201 C199 1.390 . S
C202 C199 1.339 . S
C202 C200 1.416 . S
C202 H209 0.930 . S
N203 Tb168 2.572 . S
N203 C204 1.340 . S
N203 C206 1.361 . S
C204 H190 0.930 . S
C204 N203 1.340 . S
C204 C208 1.407 . S
C205 C206 1.413 . S
C205 C207 1.416 . S
C205 C234 1.427 . S
C206 C198 1.424 . S
C206 N203 1.361 . S
C206 C205 1.413 . S
C207 H196 0.931 . S
C207 C205 1.416 . S
C207 C208 1.332 . S
C208 H187 0.929 . S
C208 C204 1.407 . S
C208 C207 1.332 . S
H209 C202 0.930 . S
H210 C233 0.930 . S
H211 C234 0.929 . S
O212 Tb168 2.465 . S
O212 C232 1.264 . S
O213 Tb168 2.387 . S
O213 C224 1.264 . S
O214 Tb179 2.349 . S
O214 C224 1.243 . S
O215 Tb168 2.428 . S
O215 C232 1.256 . S
O216 Tb168 2.308 . S
O216 C231 1.266 . S
O217 Tb179 2.393 . S
O217 C231 1.248 . S
O218 Tb179 2.465 . S
O218 C243 1.264 . S
O219 Tb179 2.387 . S
O219 C235 1.264 . S
O220 Tb168 2.349 . S
O220 C235 1.243 . S
O221 Tb179 2.428 . S
O221 C243 1.256 . S
O222 Tb179 2.308 . S
O222 C242 1.266 . S
O223 Tb168 2.393 . S
O223 C242 1.248 . S
C224 O213 1.264 . S
C224 O214 1.243 . S
C225 C228 1.399 . S
C225 C230 1.383 . S
C225 C232 1.496 . S
C226 C227 1.399 . S
C226 C230 1.389 . S
C227 C226 1.399 . S
C227 C229 1.380 . S
C227 H244 0.929 . S
C228 C225 1.399 . S
C228 C229 1.392 . S
C228 H245 0.929 . S
C229 C227 1.380 . S
C229 C228 1.392 . S
C229 H246 0.929 . S
C230 C225 1.383 . S
C230 C226 1.389 . S
C230 H247 0.931 . S
C231 O216 1.266 . S
C231 O217 1.248 . S
C232 Tb168 2.802 . S
C232 O212 1.264 . S
C232 O215 1.256 . S
C232 C225 1.496 . S
C233 C200 1.448 . S
C233 H210 0.930 . S
C233 C234 1.328 . S
C234 C205 1.427 . S
C234 H211 0.929 . S
C234 C233 1.328 . S
C235 O219 1.264 . S
C235 O220 1.243 . S
C236 C239 1.399 . S
C236 C240 1.383 . S
C236 C243 1.496 . S
C237 C238 1.399 . S
C237 C240 1.389 . S
C238 C237 1.399 . S
C238 C241 1.380 . S
C238 H248 0.929 . S
C239 C236 1.399 . S
C239 C241 1.392 . S
C239 H249 0.929 . S
C240 C236 1.383 . S
C240 C237 1.389 . S
C240 H250 0.931 . S
C241 C238 1.380 . S
C241 C239 1.392 . S
C241 H251 0.929 . S
C242 O222 1.266 . S
C242 O223 1.248 . S
C243 Tb179 2.802 . S
C243 O218 1.264 . S
C243 O221 1.256 . S
C243 C236 1.496 . S
H244 C227 0.929 . S
H245 C228 0.929 . S
H246 C229 0.929 . S
H247 C230 0.931 . S
H248 C238 0.929 . S
H249 C239 0.929 . S
H250 C240 0.931 . S
H251 C241 0.929 . S
Tb252 N281 2.617 . S
Tb252 N287 2.572 . S
Tb252 O296 2.465 . S
Tb252 O297 2.387 . S
Tb252 O299 2.428 . S
Tb252 O300 2.308 . S
Tb252 O304 2.349 . S
Tb252 O307 2.393 . S
Tb252 C316 2.802 . S
C253 N254 1.379 . S
C253 C256 1.416 . S
C253 C260 1.424 . S
N254 C253 1.379 . S
N254 C257 1.334 . S
N254 Tb263 2.617 . S
C255 C257 1.390 . S
C255 C258 1.339 . S
C255 H275 0.930 . S
C256 C253 1.416 . S
C256 C258 1.416 . S
C256 C262 1.448 . S
C257 N254 1.334 . S
C257 C255 1.390 . S
C257 H268 0.930 . S
C258 C255 1.339 . S
C258 C256 1.416 . S
C258 H279 0.930 . S
C259 C260 1.413 . S
C259 C261 1.427 . S
C259 C265 1.416 . S
C260 C253 1.424 . S
C260 C259 1.413 . S
C260 N264 1.361 . S
C261 C259 1.427 . S
C261 C262 1.328 . S
C261 H276 0.929 . S
C262 C256 1.448 . S
C262 C261 1.328 . S
C262 H277 0.930 . S
Tb263 N254 2.617 . S
Tb263 N264 2.572 . S
Tb263 O298 2.349 . S
Tb263 O301 2.393 . S
Tb263 O302 2.465 . S
Tb263 O303 2.387 . S
Tb263 O305 2.428 . S
Tb263 O306 2.308 . S
Tb263 C327 2.802 . S
N264 C260 1.361 . S
N264 Tb263 2.572 . S
N264 C266 1.340 . S
C265 C259 1.416 . S
C265 C267 1.332 . S
C265 H273 0.931 . S
C266 N264 1.340 . S
C266 C267 1.407 . S
C266 H272 0.930 . S
C267 C265 1.332 . S
C267 C266 1.407 . S
C267 H269 0.929 . S
H268 C257 0.930 . S
H269 C267 0.929 . S
H270 C285 0.930 . S
H271 C292 0.929 . S
H272 C266 0.930 . S
H273 C265 0.931 . S
H274 C288 0.930 . S
H275 C255 0.930 . S
H276 C261 0.929 . S
H277 C262 0.930 . S
H278 C283 0.930 . S
H279 C258 0.930 . S
H280 C291 0.931 . S
N281 Tb252 2.617 . S
N281 C282 1.379 . S
N281 C285 1.334 . S
C282 N281 1.379 . S
C282 C284 1.416 . S
C282 C290 1.424 . S
C283 H278 0.930 . S
C283 C285 1.390 . S
C283 C286 1.339 . S
C284 C282 1.416 . S
C284 C286 1.416 . S
C284 C317 1.448 . S
C285 H270 0.930 . S
C285 N281 1.334 . S
C285 C283 1.390 . S
C286 C283 1.339 . S
C286 C284 1.416 . S
C286 H293 0.930 . S
N287 Tb252 2.572 . S
N287 C288 1.340 . S
N287 C290 1.361 . S
C288 H274 0.930 . S
C288 N287 1.340 . S
C288 C292 1.407 1_655 S
C289 C290 1.413 . S
C289 C291 1.416 1_655 S
C289 C318 1.427 1_655 S
C290 C282 1.424 . S
C290 N287 1.361 . S
C290 C289 1.413 . S
C291 H280 0.931 . S
C291 C289 1.416 1_455 S
C291 C292 1.332 . S
C292 H271 0.929 . S
C292 C288 1.407 1_455 S
C292 C291 1.332 . S
H293 C286 0.930 . S
H294 C317 0.930 1_455 S
H295 C318 0.929 . S
O296 Tb252 2.465 . S
O296 C316 1.264 . S
O297 Tb252 2.387 . S
O297 C308 1.264 . S
O298 Tb263 2.349 . S
O298 C308 1.243 . S
O299 Tb252 2.428 . S
O299 C316 1.256 . S
O300 Tb252 2.308 . S
O300 C315 1.266 . S
O301 Tb263 2.393 . S
O301 C315 1.248 . S
O302 Tb263 2.465 . S
O302 C327 1.264 . S
O303 Tb263 2.387 . S
O303 C319 1.264 . S
O304 Tb252 2.349 . S
O304 C319 1.243 . S
O305 Tb263 2.428 . S
O305 C327 1.256 . S
O306 Tb263 2.308 . S
O306 C326 1.266 . S
O307 Tb252 2.393 . S
O307 C326 1.248 . S
C308 O297 1.264 . S
C308 O298 1.243 . S
C309 C312 1.399 . S
C309 C314 1.383 . S
C309 C316 1.496 . S
C310 C311 1.399 . S
C310 C314 1.389 . S
C311 C310 1.399 . S
C311 C313 1.380 . S
C311 H328 0.929 . S
C312 C309 1.399 . S
C312 C313 1.392 . S
C312 H329 0.929 . S
C313 C311 1.380 . S
C313 C312 1.392 . S
C313 H330 0.929 . S
C314 C309 1.383 . S
C314 C310 1.389 . S
C314 H331 0.931 . S
C315 O300 1.266 . S
C315 O301 1.248 . S
C316 Tb252 2.802 . S
C316 O296 1.264 . S
C316 O299 1.256 . S
C316 C309 1.496 . S
C317 C284 1.448 . S
C317 H294 0.930 1_655 S
C317 C318 1.328 1_655 S
C318 C289 1.427 1_455 S
C318 H295 0.929 . S
C318 C317 1.328 1_455 S
C319 O303 1.264 . S
C319 O304 1.243 . S
C320 C323 1.399 . S
C320 C324 1.383 . S
C320 C327 1.496 . S
C321 C322 1.399 . S
C321 C324 1.389 . S
C322 C321 1.399 . S
C322 C325 1.380 . S
C322 H332 0.929 . S
C323 C320 1.399 . S
C323 C325 1.392 . S
C323 H333 0.929 . S
C324 C320 1.383 . S
C324 C321 1.389 . S
C324 H334 0.931 . S
C325 C322 1.380 . S
C325 C323 1.392 . S
C325 H335 0.929 . S
C326 O306 1.266 . S
C326 O307 1.248 . S
C327 Tb263 2.802 . S
C327 O302 1.264 . S
C327 O305 1.256 . S
C327 C320 1.496 . S
H328 C311 0.929 . S
H329 C312 0.929 . S
H330 C313 0.929 . S
H331 C314 0.931 . S
H332 C322 0.929 . S
H333 C323 0.929 . S
H334 C324 0.931 . S
H335 C325 0.929 . S
C336 C337 1.362 . S
C336 C338 1.327 . S
C336 H361 0.950 . S
C337 C336 1.362 . S
C337 C353 1.343 1_554 S
C338 C336 1.327 . S
C338 C357 1.429 . S
C338 H362 0.950 . S
C339 C356 1.574 . S
C339 C358 1.368 1_556 S
C339 H363 0.949 . S
H340 C344 0.949 . S
C341 C342 1.349 1_556 S
C341 C343 1.327 . S
C341 H364 0.950 . S
C342 C341 1.349 1_554 S
C342 C354 1.349 . S
C343 C341 1.327 . S
C343 C359 1.429 1_556 S
C343 H365 0.950 . S
C344 H340 0.949 . S
C344 C352 1.574 . S
C344 C360 1.368 . S
H345 C353 0.950 . S
H346 C351 0.950 . S
H347 C352 0.949 . S
H348 C354 0.950 . S
H349 C355 0.950 . S
H350 C356 0.949 . S
C351 H346 0.950 . S
C351 C353 1.327 . S
C351 C357 1.429 1_556 S
C352 C344 1.574 . S
C352 H347 0.949 . S
C352 C358 1.368 . S
C353 C337 1.343 1_556 S
C353 H345 0.950 . S
C353 C351 1.327 . S
C354 C342 1.349 . S
C354 H348 0.950 . S
C354 C355 1.327 . S
C355 H349 0.950 . S
C355 C354 1.327 . S
C355 C359 1.429 . S
C356 C339 1.574 . S
C356 H350 0.949 . S
C356 C360 1.368 1_556 S
C357 C338 1.429 . S
C357 C351 1.429 1_554 S
C357 C358 1.523 . S
C358 C339 1.368 1_554 S
C358 C352 1.368 . S
C358 C357 1.523 . S
C359 C343 1.429 1_554 S
C359 C355 1.429 . S
C359 C360 1.523 . S
C360 C344 1.368 . S
C360 C356 1.368 1_554 S
C360 C359 1.523 . S
H361 C336 0.950 . S
H362 C338 0.950 . S
H363 C339 0.949 . S
H364 C341 0.950 . S
H365 C343 0.950 . S
C366 C367 1.349 . S
C366 C368 1.327 . S
C366 H391 0.950 . S
C367 C366 1.349 . S
C367 C383 1.349 . S
C368 C366 1.327 . S
C368 C387 1.429 . S
C368 H392 0.950 . S
C369 C386 1.574 . S
C369 C388 1.368 . S
C369 H393 0.949 . S
H370 C374 0.949 . S
C371 C372 1.349 . S
C371 C373 1.327 . S
C371 H394 0.950 . S
C372 C371 1.349 . S
C372 C384 1.349 . S
C373 C371 1.327 . S
C373 C389 1.429 . S
C373 H395 0.950 . S
C374 H370 0.949 . S
C374 C382 1.574 . S
C374 C390 1.368 . S
H375 C383 0.950 . S
H376 C381 0.950 . S
H377 C382 0.949 . S
H378 C384 0.950 . S
H379 C385 0.950 . S
H380 C386 0.949 . S
C381 H376 0.950 . S
C381 C383 1.327 . S
C381 C387 1.429 . S
C382 C374 1.574 . S
C382 H377 0.949 . S
C382 C388 1.368 . S
C383 C367 1.349 . S
C383 H375 0.950 . S
C383 C381 1.327 . S
C384 C372 1.349 . S
C384 H378 0.950 . S
C384 C385 1.327 . S
C385 H379 0.950 . S
C385 C384 1.327 . S
C385 C389 1.429 . S
C386 C369 1.574 . S
C386 H380 0.949 . S
C386 C390 1.368 . S
C387 C368 1.429 . S
C387 C381 1.429 . S
C387 C388 1.523 . S
C388 C369 1.368 . S
C388 C382 1.368 . S
C388 C387 1.523 . S
C389 C373 1.429 . S
C389 C385 1.429 . S
C389 C390 1.523 . S
C390 C374 1.368 . S
C390 C386 1.368 . S
C390 C389 1.523 . S
H391 C366 0.950 . S
H392 C368 0.950 . S
H393 C369 0.949 . S
H394 C371 0.950 . S
H395 C373 0.950 . S
C396 C397 1.354 1_556 S
C396 C398 1.327 . S
C396 H421 0.950 . S
C397 C396 1.354 1_554 S
C397 C413 1.352 . S
C398 C396 1.327 . S
C398 C417 1.429 1_556 S
C398 H422 0.950 . S
C399 C416 1.574 . S
C399 C418 1.368 1_655 S
C399 H423 0.949 . S
H400 C404 0.949 . S
C401 C402 1.349 . S
C401 C403 1.327 . S
C401 H424 0.950 . S
C402 C401 1.349 . S
C402 C414 1.349 1_554 S
C403 C401 1.327 . S
C403 C419 1.429 . S
C403 H425 0.950 . S
C404 H400 0.949 . S
C404 C412 1.574 . S
C404 C420 1.368 1_456 S
H405 C413 0.950 . S
H406 C411 0.950 . S
H407 C412 0.949 . S
H408 C414 0.950 . S
H409 C415 0.950 . S
H410 C416 0.949 . S
C411 H406 0.950 . S
C411 C413 1.327 . S
C411 C417 1.429 . S
C412 C404 1.574 . S
C412 H407 0.949 . S
C412 C418 1.368 1_566 S
C413 C397 1.352 . S
C413 H405 0.950 . S
C413 C411 1.327 . S
C414 C402 1.349 1_556 S
C414 H408 0.950 . S
C414 C415 1.327 . S
C415 H409 0.950 . S
C415 C414 1.327 . S
C415 C419 1.429 1_556 S
C416 C399 1.574 . S
C416 H410 0.949 . S
C416 C420 1.368 1_545 S
C417 C398 1.429 1_554 S
C417 C411 1.429 . S
C417 C418 1.523 . S
C418 C399 1.368 1_455 S
C418 C412 1.368 1_544 S
C418 C417 1.523 . S
C419 C403 1.429 . S
C419 C415 1.429 1_554 S
C419 C420 1.523 . S
C420 C404 1.368 1_654 S
C420 C416 1.368 1_565 S
C420 C419 1.523 . S
H421 C396 0.950 . S
H422 C398 0.950 . S
H423 C399 0.949 . S
H424 C401 0.950 . S
H425 C403 0.950 . S
C426 C427 1.349 . S
C426 C428 1.327 . S
C426 H451 0.950 . S
C427 C426 1.349 . S
C427 C443 1.349 . S
C428 C426 1.327 . S
C428 C447 1.429 . S
C428 H452 0.950 . S
C429 C446 1.574 1_545 S
C429 C448 1.368 1_455 S
C429 H453 0.949 . S
H430 C434 0.949 . S
C431 C432 1.349 . S
C431 C433 1.327 . S
C431 H454 0.950 . S
C432 C431 1.349 . S
C432 C444 1.349 . S
C433 C431 1.327 . S
C433 C449 1.429 . S
C433 H455 0.950 . S
C434 H430 0.949 . S
C434 C442 1.574 1_565 S
C434 C450 1.368 1_655 S
H435 C443 0.950 . S
H436 C441 0.950 . S
H437 C442 0.949 . S
H438 C444 0.950 . S
H439 C445 0.950 . S
H440 C446 0.949 . S
C441 H436 0.950 . S
C441 C443 1.327 . S
C441 C447 1.429 . S
C442 C434 1.574 1_545 S
C442 H437 0.949 . S
C442 C448 1.368 . S
C443 C427 1.349 . S
C443 H435 0.950 . S
C443 C441 1.327 . S
C444 C432 1.349 . S
C444 H438 0.950 . S
C444 C445 1.327 . S
C445 H439 0.950 . S
C445 C444 1.327 . S
C445 C449 1.429 . S
C446 C429 1.574 1_565 S
C446 H440 0.949 . S
C446 C450 1.368 . S
C447 C428 1.429 . S
C447 C441 1.429 . S
C447 C448 1.523 . S
C448 C429 1.368 1_655 S
C448 C442 1.368 . S
C448 C447 1.523 . S
C449 C433 1.429 . S
C449 C445 1.429 . S
C449 C450 1.523 . S
C450 C434 1.368 1_455 S
C450 C446 1.368 . S
C450 C449 1.523 . S
H451 C426 0.950 . S
H452 C428 0.950 . S
H453 C429 0.949 . S
H454 C431 0.950 . S
H455 C433 0.950 . S
C456 C457 1.349 . S
C456 C458 1.327 . S
C456 H481 0.950 . S
C457 C456 1.349 . S
C457 C473 1.349 . S
C458 C456 1.327 . S
C458 C477 1.429 . S
C458 H482 0.950 . S
C459 C476 1.574 . S
C459 C478 1.368 . S
C459 H483 0.949 . S
H460 C464 0.949 . S
C461 C462 1.349 . S
C461 C463 1.327 . S
C461 H484 0.950 . S
C462 C461 1.349 . S
C462 C474 1.349 . S
C463 C461 1.327 . S
C463 C479 1.429 . S
C463 H485 0.950 . S
C464 H460 0.949 . S
C464 C472 1.574 . S
C464 C480 1.368 . S
H465 C473 0.950 . S
H466 C471 0.950 . S
H467 C472 0.949 . S
H468 C474 0.950 . S
H469 C475 0.950 . S
H470 C476 0.949 . S
C471 H466 0.950 . S
C471 C473 1.327 . S
C471 C477 1.429 . S
C472 C464 1.574 . S
C472 H467 0.949 . S
C472 C478 1.368 . S
C473 C457 1.349 . S
C473 H465 0.950 . S
C473 C471 1.327 . S
C474 C462 1.349 . S
C474 H468 0.950 . S
C474 C475 1.327 . S
C475 H469 0.950 . S
C475 C474 1.327 . S
C475 C479 1.429 . S
C476 C459 1.574 . S
C476 H470 0.949 . S
C476 C480 1.368 . S
C477 C458 1.429 . S
C477 C471 1.429 . S
C477 C478 1.523 . S
C478 C459 1.368 . S
C478 C472 1.368 . S
C478 C477 1.523 . S
C479 C463 1.429 . S
C479 C475 1.429 . S
C479 C480 1.523 . S
C480 C464 1.368 . S
C480 C476 1.368 . S
C480 C479 1.523 . S
H481 C456 0.950 . S
H482 C458 0.950 . S
H483 C459 0.949 . S
H484 C461 0.950 . S
H485 C463 0.950 . S
C486 C487 1.349 . S
C486 C488 1.327 . S
C486 H511 0.950 . S
C487 C486 1.349 . S
C487 C503 1.349 . S
C488 C486 1.327 . S
C488 C507 1.429 . S
C488 H512 0.950 . S
C489 C506 1.574 . S
C489 C508 1.368 . S
C489 H513 0.949 . S
H490 C494 0.949 . S
C491 C492 1.349 . S
C491 C493 1.327 . S
C491 H514 0.950 . S
C492 C491 1.349 . S
C492 C504 1.349 . S
C493 C491 1.327 . S
C493 C509 1.429 . S
C493 H515 0.950 . S
C494 H490 0.949 . S
C494 C502 1.574 . S
C494 C510 1.368 . S
H495 C503 0.950 . S
H496 C501 0.950 . S
H497 C502 0.949 . S
H498 C504 0.950 . S
H499 C505 0.950 . S
H500 C506 0.949 . S
C501 H496 0.950 . S
C501 C503 1.327 . S
C501 C507 1.429 . S
C502 C494 1.574 . S
C502 H497 0.949 . S
C502 C508 1.368 . S
C503 C487 1.349 . S
C503 H495 0.950 . S
C503 C501 1.327 . S
C504 C492 1.349 . S
C504 H498 0.950 . S
C504 C505 1.327 . S
C505 H499 0.950 . S
C505 C504 1.327 . S
C505 C509 1.429 . S
C506 C489 1.574 . S
C506 H500 0.949 . S
C506 C510 1.368 . S
C507 C488 1.429 . S
C507 C501 1.429 . S
C507 C508 1.523 . S
C508 C489 1.368 . S
C508 C502 1.368 . S
C508 C507 1.523 . S
C509 C493 1.429 . S
C509 C505 1.429 . S
C509 C510 1.523 . S
C510 C494 1.368 . S
C510 C506 1.368 . S
C510 C509 1.523 . S
H511 C486 0.950 . S
H512 C488 0.950 . S
H513 C489 0.949 . S
H514 C491 0.950 . S
H515 C493 0.950 . S
C516 C517 1.349 . S
C516 C518 1.327 . S
C516 H541 0.950 . S
C517 C516 1.349 . S
C517 C533 1.349 . S
C518 C516 1.327 . S
C518 C537 1.429 . S
C518 H542 0.950 . S
C519 C536 1.574 . S
C519 C538 1.368 . S
C519 H543 0.949 . S
H520 C524 0.949 . S
C521 C522 1.349 . S
C521 C523 1.327 . S
C521 H544 0.950 . S
C522 C521 1.349 . S
C522 C534 1.349 . S
C523 C521 1.327 . S
C523 C539 1.429 . S
C523 H545 0.950 . S
C524 H520 0.949 . S
C524 C532 1.574 . S
C524 C540 1.368 . S
H525 C533 0.950 . S
H526 C531 0.950 . S
H527 C532 0.949 . S
H528 C534 0.950 . S
H529 C535 0.950 . S
H530 C536 0.949 . S
C531 H526 0.950 . S
C531 C533 1.327 . S
C531 C537 1.429 . S
C532 C524 1.574 . S
C532 H527 0.949 . S
C532 C538 1.368 . S
C533 C517 1.349 . S
C533 H525 0.950 . S
C533 C531 1.327 . S
C534 C522 1.349 . S
C534 H528 0.950 . S
C534 C535 1.327 . S
C535 H529 0.950 . S
C535 C534 1.327 . S
C535 C539 1.429 . S
C536 C519 1.574 . S
C536 H530 0.949 . S
C536 C540 1.368 . S
C537 C518 1.429 . S
C537 C531 1.429 . S
C537 C538 1.523 . S
C538 C519 1.368 . S
C538 C532 1.368 . S
C538 C537 1.523 . S
C539 C523 1.429 . S
C539 C535 1.429 . S
C539 C540 1.523 . S
C540 C524 1.368 . S
C540 C536 1.368 . S
C540 C539 1.523 . S
H541 C516 0.950 . S
H542 C518 0.950 . S
H543 C519 0.949 . S
H544 C521 0.950 . S
H545 C523 0.950 . S
C546 C547 1.349 . S
C546 C548 1.327 . S
C546 H571 0.950 . S
C547 C546 1.349 . S
C547 C563 1.349 . S
C548 C546 1.327 . S
C548 C567 1.429 . S
C548 H572 0.950 . S
C549 C566 1.574 . S
C549 C568 1.368 . S
C549 H573 0.949 . S
H550 C554 0.949 . S
C551 C552 1.349 . S
C551 C553 1.327 . S
C551 H574 0.950 . S
C552 C551 1.349 . S
C552 C564 1.349 . S
C553 C551 1.327 . S
C553 C569 1.429 . S
C553 H575 0.950 . S
C554 H550 0.949 . S
C554 C562 1.574 . S
C554 C570 1.368 . S
H555 C563 0.950 . S
H556 C561 0.950 . S
H557 C562 0.949 . S
H558 C564 0.950 . S
H559 C565 0.950 . S
H560 C566 0.949 . S
C561 H556 0.950 . S
C561 C563 1.327 . S
C561 C567 1.429 . S
C562 C554 1.574 . S
C562 H557 0.949 . S
C562 C568 1.368 . S
C563 C547 1.349 . S
C563 H555 0.950 . S
C563 C561 1.327 . S
C564 C552 1.349 . S
C564 H558 0.950 . S
C564 C565 1.327 . S
C565 H559 0.950 . S
C565 C564 1.327 . S
C565 C569 1.429 . S
C566 C549 1.574 . S
C566 H560 0.949 . S
C566 C570 1.368 . S
C567 C548 1.429 . S
C567 C561 1.429 . S
C567 C568 1.523 . S
C568 C549 1.368 . S
C568 C562 1.368 . S
C568 C567 1.523 . S
C569 C553 1.429 . S
C569 C565 1.429 . S
C569 C570 1.523 . S
C570 C554 1.368 . S
C570 C566 1.368 . S
C570 C569 1.523 . S
H571 C546 0.950 . S
H572 C548 0.950 . S
H573 C549 0.949 . S
H574 C551 0.950 . S
H575 C553 0.950 . S
C576 C577 1.349 . S
C576 C578 1.327 . S
C576 H601 0.950 . S
C577 C576 1.349 . S
C577 C593 1.349 . S
C578 C576 1.327 . S
C578 C597 1.429 . S
C578 H602 0.950 . S
C579 C596 1.574 . S
C579 C598 1.368 . S
C579 H603 0.949 . S
H580 C584 0.949 . S
C581 C582 1.349 . S
C581 C583 1.327 . S
C581 H604 0.950 . S
C582 C581 1.349 . S
C582 C594 1.349 . S
C583 C581 1.327 . S
C583 C599 1.429 1_455 S
C583 H605 0.950 . S
C584 H580 0.949 . S
C584 C592 1.574 . S
C584 C600 1.368 . S
H585 C593 0.950 . S
H586 C591 0.950 . S
H587 C592 0.949 . S
H588 C594 0.950 . S
H589 C595 0.950 . S
H590 C596 0.949 1_455 S
C591 H586 0.950 . S
C591 C593 1.327 . S
C591 C597 1.429 . S
C592 C584 1.574 . S
C592 H587 0.949 . S
C592 C598 1.368 . S
C593 C577 1.349 . S
C593 H585 0.950 . S
C593 C591 1.327 . S
C594 C582 1.349 . S
C594 H588 0.950 . S
C594 C595 1.327 1_455 S
C595 H589 0.950 . S
C595 C594 1.327 1_655 S
C595 C599 1.429 . S
C596 C579 1.574 . S
C596 H590 0.949 1_655 S
C596 C600 1.368 . S
C597 C578 1.429 . S
C597 C591 1.429 . S
C597 C598 1.523 . S
C598 C579 1.368 . S
C598 C592 1.368 . S
C598 C597 1.523 . S
C599 C583 1.429 1_655 S
C599 C595 1.429 . S
C599 C600 1.523 . S
C600 C584 1.368 . S
C600 C596 1.368 . S
C600 C599 1.523 . S
H601 C576 0.950 . S
H602 C578 0.950 . S
H603 C579 0.949 . S
H604 C581 0.950 . S
H605 C583 0.950 . S
C606 C607 1.349 . S
C606 C608 1.327 . S
C606 H631 0.950 . S
C607 C606 1.349 . S
C607 C623 1.349 . S
C608 C606 1.327 . S
C608 C627 1.429 . S
C608 H632 0.950 . S
C609 C626 1.574 . S
C609 C628 1.368 . S
C609 H633 0.949 . S
H610 C614 0.949 . S
C611 C612 1.349 . S
C611 C613 1.327 . S
C611 H634 0.950 . S
C612 C611 1.349 . S
C612 C624 1.349 . S
C613 C611 1.327 . S
C613 C629 1.429 1_455 S
C613 H635 0.950 . S
C614 H610 0.949 . S
C614 C622 1.574 . S
C614 C630 1.368 . S
H615 C623 0.950 . S
H616 C621 0.950 . S
H617 C622 0.949 . S
H618 C624 0.950 . S
H619 C625 0.950 . S
H620 C626 0.937 1_455 S
C621 H616 0.950 . S
C621 C623 1.327 . S
C621 C627 1.429 . S
C622 C614 1.574 . S
C622 H617 0.949 . S
C622 C628 1.368 . S
C623 C607 1.349 . S
C623 H615 0.950 . S
C623 C621 1.327 . S
C624 C612 1.349 . S
C624 H618 0.950 . S
C624 C625 1.327 1_455 S
C625 H619 0.950 . S
C625 C624 1.327 1_655 S
C625 C629 1.429 . S
C626 C609 1.574 . S
C626 H620 0.937 1_655 S
C626 C630 1.368 . S
C627 C608 1.429 . S
C627 C621 1.429 . S
C627 C628 1.523 . S
C628 C609 1.368 . S
C628 C622 1.368 . S
C628 C627 1.523 . S
C629 C613 1.429 1_655 S
C629 C625 1.429 . S
C629 C630 1.523 . S
C630 C614 1.368 . S
C630 C626 1.368 . S
C630 C629 1.523 . S
H631 C606 0.950 . S
H632 C608 0.950 . S
H633 C609 0.949 . S
H634 C611 0.950 . S
H635 C613 0.950 . S
C636 C637 1.349 . S
C636 C638 1.327 1_655 S
C636 H661 0.948 1_655 S
C637 C636 1.349 . S
C637 C653 1.349 . S
C638 C636 1.327 1_455 S
C638 C657 1.429 . S
C638 H662 0.950 . S
C639 C656 1.574 . S
C639 C658 1.368 . S
C639 H663 0.949 1_455 S
H640 C644 0.949 . S
C641 C642 1.349 . S
C641 C643 1.327 . S
C641 H664 0.950 . S
C642 C641 1.349 . S
C642 C654 1.349 . S
C643 C641 1.327 . S
C643 C659 1.429 . S
C643 H665 0.950 . S
C644 H640 0.949 . S
C644 C652 1.574 . S
C644 C660 1.368 . S
H645 C653 0.950 . S
H646 C651 0.950 . S
H647 C652 0.949 . S
H648 C654 0.950 . S
H649 C655 0.950 . S
H650 C656 0.949 . S
C651 H646 0.950 . S
C651 C653 1.327 . S
C651 C657 1.429 1_655 S
C652 C644 1.574 . S
C652 H647 0.949 . S
C652 C658 1.368 . S
C653 C637 1.349 . S
C653 H645 0.950 . S
C653 C651 1.327 . S
C654 C642 1.349 . S
C654 H648 0.950 . S
C654 C655 1.327 . S
C655 H649 0.950 . S
C655 C654 1.327 . S
C655 C659 1.429 . S
C656 C639 1.574 . S
C656 H650 0.949 . S
C656 C660 1.368 . S
C657 C638 1.429 . S
C657 C651 1.429 1_455 S
C657 C658 1.523 . S
C658 C639 1.368 . S
C658 C652 1.368 . S
C658 C657 1.523 . S
C659 C643 1.429 . S
C659 C655 1.429 . S
C659 C660 1.523 . S
C660 C644 1.368 . S
C660 C656 1.368 . S
C660 C659 1.523 . S
H661 C636 0.948 1_455 S
H662 C638 0.950 . S
H663 C639 0.949 1_655 S
H664 C641 0.950 . S
H665 C643 0.950 . S
C666 C667 1.349 . S
C666 C668 1.327 . S
C666 H691 0.950 . S
C667 C666 1.349 . S
C667 C683 1.349 . S
C668 C666 1.327 . S
C668 C687 1.429 . S
C668 H692 0.950 . S
C669 C686 1.574 . S
C669 C688 1.368 . S
C669 H693 0.949 . S
H670 C674 0.949 . S
C671 C672 1.349 . S
C671 C673 1.327 . S
C671 H694 0.950 . S
C672 C671 1.349 . S
C672 C684 1.349 . S
C673 C671 1.327 . S
C673 C689 1.429 1_655 S
C673 H695 0.950 . S
C674 H670 0.949 . S
C674 C682 1.574 . S
C674 C690 1.368 . S
H675 C683 0.950 . S
H676 C681 0.950 . S
H677 C682 0.949 . S
H678 C684 0.950 1_455 S
H679 C685 0.950 . S
H680 C686 0.949 1_655 S
C681 H676 0.950 . S
C681 C683 1.327 . S
C681 C687 1.429 . S
C682 C674 1.574 . S
C682 H677 0.949 . S
C682 C688 1.368 . S
C683 C667 1.349 . S
C683 H675 0.950 . S
C683 C681 1.327 . S
C684 C672 1.349 . S
C684 H678 0.950 1_655 S
C684 C685 1.327 1_655 S
C685 H679 0.950 . S
C685 C684 1.327 1_455 S
C685 C689 1.429 . S
C686 C669 1.574 . S
C686 H680 0.949 1_455 S
C686 C690 1.368 . S
C687 C668 1.429 . S
C687 C681 1.429 . S
C687 C688 1.523 . S
C688 C669 1.368 . S
C688 C682 1.368 . S
C688 C687 1.523 . S
C689 C673 1.429 1_455 S
C689 C685 1.429 . S
C689 C690 1.523 . S
C690 C674 1.368 . S
C690 C686 1.368 . S
C690 C689 1.523 . S
H691 C666 0.950 . S
H692 C668 0.950 . S
H693 C669 0.949 . S
H694 C671 0.950 . S
H695 C673 0.950 . S
C337 C158 1.490 1_554 S
C342 C63 1.502 . S
C367 C231 1.502 . S
C372 C326 1.502 . S
C397 C74 1.490 1_554 S
C402 C147 1.502 . S
C427 C315 1.502 . S
C432 C242 1.502 . S
C457 C321 1.182 . S
C462 C56 1.265 . S
C487 C153 1.182 . S
C492 C224 1.265 . S
C517 C151 1.265 . S
C522 C226 1.182 . S
C547 C319 1.265 . S
C552 C58 1.182 . S
C577 C140 1.265 . S
C582 C237 1.182 . S
C607 C308 1.265 . S
C612 C69 1.182 . S
C637 C310 1.182 . S
C642 C67 1.265 . S
C667 C235 1.265 . S
C672 C142 1.182 . S
