# Generated by pormake.
# Topology sor, (7)-cn, num edge types: 1
# Building blocks:
#     Node 0, Type 0, BuildingBlock: HICVOG_clean_sbu_0, # of connection points: 7
#     Node 1, Type 0, BuildingBlock: HICVOG_clean_sbu_0, # of connection points: 7
#     Node 2, Type 0, BuildingBlock: HICVOG_clean_sbu_0, # of connection points: 7
#     Node 3, Type 0, BuildingBlock: HICVOG_clean_sbu_0, # of connection points: 7
#     Node 4, Type 0, BuildingBlock: HICVOG_clean_sbu_0, # of connection points: 7
#     Node 5, Type 0, BuildingBlock: HICVOG_clean_sbu_0, # of connection points: 7
#     Node 6, Type 0, BuildingBlock: HICVOG_clean_sbu_0, # of connection points: 7
#     Node 7, Type 0, BuildingBlock: HICVOG_clean_sbu_0, # of connection points: 7
#     Node 8, Type 0, BuildingBlock: HICVOG_clean_sbu_0, # of connection points: 7
#     Node 9, Type 0, BuildingBlock: HICVOG_clean_sbu_0, # of connection points: 7
#     Node 10, Type 0, BuildingBlock: HICVOG_clean_sbu_0, # of connection points: 7
#     Node 11, Type 0, BuildingBlock: HICVOG_clean_sbu_0, # of connection points: 7
#     Node 12, Type 0, BuildingBlock: HICVOG_clean_sbu_0, # of connection points: 7
#     Node 13, Type 0, BuildingBlock: HICVOG_clean_sbu_0, # of connection points: 7
#     Node 14, Type 0, BuildingBlock: HICVOG_clean_sbu_0, # of connection points: 7
#     Node 15, Type 0, BuildingBlock: HICVOG_clean_sbu_0, # of connection points: 7
#     Node 16, Type 0, BuildingBlock: HICVOG_clean_sbu_0, # of connection points: 7
#     Node 17, Type 0, BuildingBlock: HICVOG_clean_sbu_0, # of connection points: 7
#     Node 18, Type 0, BuildingBlock: HICVOG_clean_sbu_0, # of connection points: 7
#     Node 19, Type 0, BuildingBlock: HICVOG_clean_sbu_0, # of connection points: 7
#     Node 20, Type 0, BuildingBlock: HICVOG_clean_sbu_0, # of connection points: 7
#     Node 21, Type 0, BuildingBlock: HICVOG_clean_sbu_0, # of connection points: 7
#     Node 22, Type 0, BuildingBlock: HICVOG_clean_sbu_0, # of connection points: 7
#     Node 23, Type 0, BuildingBlock: HICVOG_clean_sbu_0, # of connection points: 7
#     Node 24, Type 0, BuildingBlock: HICVOG_clean_sbu_0, # of connection points: 7
#     Node 25, Type 0, BuildingBlock: HICVOG_clean_sbu_0, # of connection points: 7
#     Node 26, Type 0, BuildingBlock: HICVOG_clean_sbu_0, # of connection points: 7
#     Node 27, Type 0, BuildingBlock: HICVOG_clean_sbu_0, # of connection points: 7
#     Node 28, Type 0, BuildingBlock: HICVOG_clean_sbu_0, # of connection points: 7
#     Node 29, Type 0, BuildingBlock: HICVOG_clean_sbu_0, # of connection points: 7
#     Node 30, Type 0, BuildingBlock: HICVOG_clean_sbu_0, # of connection points: 7
#     Node 31, Type 0, BuildingBlock: HICVOG_clean_sbu_0, # of connection points: 7
#     Edge 32, Type (0, 0), BuildingBlock: KIFKEQ_clean_linker_1, # of connection points: 2
#     Edge 33, Type (0, 0), BuildingBlock: KIFKEQ_clean_linker_1, # of connection points: 2
#     Edge 34, Type (0, 0), BuildingBlock: KIFKEQ_clean_linker_1, # of connection points: 2
#     Edge 35, Type (0, 0), BuildingBlock: KIFKEQ_clean_linker_1, # of connection points: 2
#     Edge 36, Type (0, 0), BuildingBlock: KIFKEQ_clean_linker_1, # of connection points: 2
#     Edge 37, Type (0, 0), BuildingBlock: KIFKEQ_clean_linker_1, # of connection points: 2
#     Edge 38, Type (0, 0), BuildingBlock: KIFKEQ_clean_linker_1, # of connection points: 2
#     Edge 39, Type (0, 0), BuildingBlock: KIFKEQ_clean_linker_1, # of connection points: 2
#     Edge 40, Type (0, 0), BuildingBlock: KIFKEQ_clean_linker_1, # of connection points: 2
#     Edge 41, Type (0, 0), BuildingBlock: KIFKEQ_clean_linker_1, # of connection points: 2
#     Edge 42, Type (0, 0), BuildingBlock: KIFKEQ_clean_linker_1, # of connection points: 2
#     Edge 43, Type (0, 0), BuildingBlock: KIFKEQ_clean_linker_1, # of connection points: 2
#     Edge 44, Type (0, 0), BuildingBlock: KIFKEQ_clean_linker_1, # of connection points: 2
#     Edge 45, Type (0, 0), BuildingBlock: KIFKEQ_clean_linker_1, # of connection points: 2
#     Edge 46, Type (0, 0), BuildingBlock: KIFKEQ_clean_linker_1, # of connection points: 2
#     Edge 47, Type (0, 0), BuildingBlock: KIFKEQ_clean_linker_1, # of connection points: 2
#     Edge 48, Type (0, 0), BuildingBlock: KIFKEQ_clean_linker_1, # of connection points: 2
#     Edge 49, Type (0, 0), BuildingBlock: KIFKEQ_clean_linker_1, # of connection points: 2
#     Edge 50, Type (0, 0), BuildingBlock: KIFKEQ_clean_linker_1, # of connection points: 2
#     Edge 51, Type (0, 0), BuildingBlock: KIFKEQ_clean_linker_1, # of connection points: 2
#     Edge 52, Type (0, 0), BuildingBlock: KIFKEQ_clean_linker_1, # of connection points: 2
#     Edge 53, Type (0, 0), BuildingBlock: KIFKEQ_clean_linker_1, # of connection points: 2
#     Edge 54, Type (0, 0), BuildingBlock: KIFKEQ_clean_linker_1, # of connection points: 2
#     Edge 55, Type (0, 0), BuildingBlock: KIFKEQ_clean_linker_1, # of connection points: 2
#     Edge 56, Type (0, 0), BuildingBlock: KIFKEQ_clean_linker_1, # of connection points: 2
#     Edge 57, Type (0, 0), BuildingBlock: KIFKEQ_clean_linker_1, # of connection points: 2
#     Edge 58, Type (0, 0), BuildingBlock: KIFKEQ_clean_linker_1, # of connection points: 2
#     Edge 59, Type (0, 0), BuildingBlock: KIFKEQ_clean_linker_1, # of connection points: 2
#     Edge 60, Type (0, 0), BuildingBlock: KIFKEQ_clean_linker_1, # of connection points: 2
#     Edge 61, Type (0, 0), BuildingBlock: KIFKEQ_clean_linker_1, # of connection points: 2
#     Edge 62, Type (0, 0), BuildingBlock: KIFKEQ_clean_linker_1, # of connection points: 2
#     Edge 63, Type (0, 0), BuildingBlock: KIFKEQ_clean_linker_1, # of connection points: 2
#     Edge 64, Type (0, 0), BuildingBlock: KIFKEQ_clean_linker_1, # of connection points: 2
#     Edge 65, Type (0, 0), BuildingBlock: KIFKEQ_clean_linker_1, # of connection points: 2
#     Edge 66, Type (0, 0), BuildingBlock: KIFKEQ_clean_linker_1, # of connection points: 2
#     Edge 67, Type (0, 0), BuildingBlock: KIFKEQ_clean_linker_1, # of connection points: 2
#     Edge 68, Type (0, 0), BuildingBlock: KIFKEQ_clean_linker_1, # of connection points: 2
#     Edge 69, Type (0, 0), BuildingBlock: KIFKEQ_clean_linker_1, # of connection points: 2
#     Edge 70, Type (0, 0), BuildingBlock: KIFKEQ_clean_linker_1, # of connection points: 2
#     Edge 71, Type (0, 0), BuildingBlock: KIFKEQ_clean_linker_1, # of connection points: 2
#     Edge 72, Type (0, 0), BuildingBlock: KIFKEQ_clean_linker_1, # of connection points: 2
#     Edge 73, Type (0, 0), BuildingBlock: KIFKEQ_clean_linker_1, # of connection points: 2
#     Edge 74, Type (0, 0), BuildingBlock: KIFKEQ_clean_linker_1, # of connection points: 2
#     Edge 75, Type (0, 0), BuildingBlock: KIFKEQ_clean_linker_1, # of connection points: 2
#     Edge 76, Type (0, 0), BuildingBlock: KIFKEQ_clean_linker_1, # of connection points: 2
#     Edge 77, Type (0, 0), BuildingBlock: KIFKEQ_clean_linker_1, # of connection points: 2
#     Edge 78, Type (0, 0), BuildingBlock: KIFKEQ_clean_linker_1, # of connection points: 2
#     Edge 79, Type (0, 0), BuildingBlock: KIFKEQ_clean_linker_1, # of connection points: 2
#     Edge 80, Type (0, 0), BuildingBlock: KIFKEQ_clean_linker_1, # of connection points: 2
#     Edge 81, Type (0, 0), BuildingBlock: KIFKEQ_clean_linker_1, # of connection points: 2
#     Edge 82, Type (0, 0), BuildingBlock: KIFKEQ_clean_linker_1, # of connection points: 2
#     Edge 83, Type (0, 0), BuildingBlock: KIFKEQ_clean_linker_1, # of connection points: 2
#     Edge 84, Type (0, 0), BuildingBlock: KIFKEQ_clean_linker_1, # of connection points: 2
#     Edge 85, Type (0, 0), BuildingBlock: KIFKEQ_clean_linker_1, # of connection points: 2
#     Edge 86, Type (0, 0), BuildingBlock: KIFKEQ_clean_linker_1, # of connection points: 2
#     Edge 87, Type (0, 0), BuildingBlock: KIFKEQ_clean_linker_1, # of connection points: 2
#     Edge 88, Type (0, 0), BuildingBlock: KIFKEQ_clean_linker_1, # of connection points: 2
#     Edge 89, Type (0, 0), BuildingBlock: KIFKEQ_clean_linker_1, # of connection points: 2
#     Edge 90, Type (0, 0), BuildingBlock: KIFKEQ_clean_linker_1, # of connection points: 2
#     Edge 91, Type (0, 0), BuildingBlock: KIFKEQ_clean_linker_1, # of connection points: 2
#     Edge 92, Type (0, 0), BuildingBlock: KIFKEQ_clean_linker_1, # of connection points: 2
#     Edge 93, Type (0, 0), BuildingBlock: KIFKEQ_clean_linker_1, # of connection points: 2
#     Edge 94, Type (0, 0), BuildingBlock: KIFKEQ_clean_linker_1, # of connection points: 2
#     Edge 95, Type (0, 0), BuildingBlock: KIFKEQ_clean_linker_1, # of connection points: 2
#     Edge 96, Type (0, 0), BuildingBlock: KIFKEQ_clean_linker_1, # of connection points: 2
#     Edge 97, Type (0, 0), BuildingBlock: KIFKEQ_clean_linker_1, # of connection points: 2
#     Edge 98, Type (0, 0), BuildingBlock: KIFKEQ_clean_linker_1, # of connection points: 2
#     Edge 99, Type (0, 0), BuildingBlock: KIFKEQ_clean_linker_1, # of connection points: 2
#     Edge 100, Type (0, 0), BuildingBlock: KIFKEQ_clean_linker_1, # of connection points: 2
#     Edge 101, Type (0, 0), BuildingBlock: KIFKEQ_clean_linker_1, # of connection points: 2
#     Edge 102, Type (0, 0), BuildingBlock: KIFKEQ_clean_linker_1, # of connection points: 2
#     Edge 103, Type (0, 0), BuildingBlock: KIFKEQ_clean_linker_1, # of connection points: 2
#     Edge 104, Type (0, 0), BuildingBlock: KIFKEQ_clean_linker_1, # of connection points: 2
#     Edge 105, Type (0, 0), BuildingBlock: KIFKEQ_clean_linker_1, # of connection points: 2
#     Edge 106, Type (0, 0), BuildingBlock: KIFKEQ_clean_linker_1, # of connection points: 2
#     Edge 107, Type (0, 0), BuildingBlock: KIFKEQ_clean_linker_1, # of connection points: 2
#     Edge 108, Type (0, 0), BuildingBlock: KIFKEQ_clean_linker_1, # of connection points: 2
#     Edge 109, Type (0, 0), BuildingBlock: KIFKEQ_clean_linker_1, # of connection points: 2
#     Edge 110, Type (0, 0), BuildingBlock: KIFKEQ_clean_linker_1, # of connection points: 2
#     Edge 111, Type (0, 0), BuildingBlock: KIFKEQ_clean_linker_1, # of connection points: 2
#     Edge 112, Type (0, 0), BuildingBlock: KIFKEQ_clean_linker_1, # of connection points: 2
#     Edge 113, Type (0, 0), BuildingBlock: KIFKEQ_clean_linker_1, # of connection points: 2
#     Edge 114, Type (0, 0), BuildingBlock: KIFKEQ_clean_linker_1, # of connection points: 2
#     Edge 115, Type (0, 0), BuildingBlock: KIFKEQ_clean_linker_1, # of connection points: 2
#     Edge 116, Type (0, 0), BuildingBlock: KIFKEQ_clean_linker_1, # of connection points: 2
#     Edge 117, Type (0, 0), BuildingBlock: KIFKEQ_clean_linker_1, # of connection points: 2
#     Edge 118, Type (0, 0), BuildingBlock: KIFKEQ_clean_linker_1, # of connection points: 2
#     Edge 119, Type (0, 0), BuildingBlock: KIFKEQ_clean_linker_1, # of connection points: 2
#     Edge 120, Type (0, 0), BuildingBlock: KIFKEQ_clean_linker_1, # of connection points: 2
#     Edge 121, Type (0, 0), BuildingBlock: KIFKEQ_clean_linker_1, # of connection points: 2
#     Edge 122, Type (0, 0), BuildingBlock: KIFKEQ_clean_linker_1, # of connection points: 2
#     Edge 123, Type (0, 0), BuildingBlock: KIFKEQ_clean_linker_1, # of connection points: 2
#     Edge 124, Type (0, 0), BuildingBlock: KIFKEQ_clean_linker_1, # of connection points: 2
#     Edge 125, Type (0, 0), BuildingBlock: KIFKEQ_clean_linker_1, # of connection points: 2
#     Edge 126, Type (0, 0), BuildingBlock: KIFKEQ_clean_linker_1, # of connection points: 2
#     Edge 127, Type (0, 0), BuildingBlock: KIFKEQ_clean_linker_1, # of connection points: 2
#     Edge 128, Type (0, 0), BuildingBlock: KIFKEQ_clean_linker_1, # of connection points: 2
#     Edge 129, Type (0, 0), BuildingBlock: KIFKEQ_clean_linker_1, # of connection points: 2
#     Edge 130, Type (0, 0), BuildingBlock: KIFKEQ_clean_linker_1, # of connection points: 2
#     Edge 131, Type (0, 0), BuildingBlock: KIFKEQ_clean_linker_1, # of connection points: 2
#     Edge 132, Type (0, 0), BuildingBlock: KIFKEQ_clean_linker_1, # of connection points: 2
#     Edge 133, Type (0, 0), BuildingBlock: KIFKEQ_clean_linker_1, # of connection points: 2
#     Edge 134, Type (0, 0), BuildingBlock: KIFKEQ_clean_linker_1, # of connection points: 2
#     Edge 135, Type (0, 0), BuildingBlock: KIFKEQ_clean_linker_1, # of connection points: 2
#     Edge 136, Type (0, 0), BuildingBlock: KIFKEQ_clean_linker_1, # of connection points: 2
#     Edge 137, Type (0, 0), BuildingBlock: KIFKEQ_clean_linker_1, # of connection points: 2
#     Edge 138, Type (0, 0), BuildingBlock: KIFKEQ_clean_linker_1, # of connection points: 2
#     Edge 139, Type (0, 0), BuildingBlock: KIFKEQ_clean_linker_1, # of connection points: 2
#     Edge 140, Type (0, 0), BuildingBlock: KIFKEQ_clean_linker_1, # of connection points: 2
#     Edge 141, Type (0, 0), BuildingBlock: KIFKEQ_clean_linker_1, # of connection points: 2
#     Edge 142, Type (0, 0), BuildingBlock: KIFKEQ_clean_linker_1, # of connection points: 2
#     Edge 143, Type (0, 0), BuildingBlock: KIFKEQ_clean_linker_1, # of connection points: 2
# Relax obj value: 0.112
# Max RMSD: 0.193
# Mean RMSD: 0.193
data_MOF--net-sor--node1-HICVOG_clean_sbu_0--edge1-KIFKEQ_clean_linker_1
_symmetry_space_group_name_H-M    P1
_symmetry_Int_Tables_number       1
_symmetry_cell_setting            triclinic
loop_
_symmetry_equiv_pos_as_xyz
'x, y, z'
_cell_length_a     105.94393
_cell_length_b     80.924259
_cell_length_c     18.368576
_cell_angle_alpha  89.998786
_cell_angle_beta   89.946372
_cell_angle_gamma 89.995943
loop_
_atom_site_label
_atom_site_type_symbol
_atom_site_fract_x
_atom_site_fract_y
_atom_site_fract_z
_atom_type_partial_charge
Zn0 Zn 0.21257 0.02388 0.62724 0.0
C1 C 0.23563 0.0094 0.47132 0.0
N2 N 0.24441 0.01488 0.51754 0.0
C3 C 0.23796 0.01688 0.57951 0.0
N4 N 0.22568 0.01292 0.57184 0.0
N5 N 0.22415 0.00789 0.50358 0.0
C6 C 0.20444 0.0053 0.32312 0.0
O7 O 0.19702 0.01561 0.35814 0.0
O8 O 0.21565 0.02438 0.73809 0.0
Zn9 Zn 0.20993 0.99432 0.47047 0.0
N10 N 0.21105 0.04562 0.58274 0.0
C11 C 0.2065 0.0582 0.46868 0.0
C12 C 0.20814 0.04417 0.51098 0.0
C13 C 0.21231 0.06079 0.61458 0.0
N14 N 0.20764 0.07326 0.49999 0.0
C15 C 0.21047 0.07516 0.57183 0.0
O16 O 0.19195 0.99982 0.51161 0.0
C17 C 0.18798 0.00613 0.57139 0.0
O18 O 0.19539 0.01398 0.61337 0.0
H19 H 0.20701 0.03208 0.48687 0.0
H20 H 0.21438 0.06159 0.67212 0.0
C21 C 0.21263 0.95759 0.474 0.0
C22 C 0.21466 0.94269 0.51292 0.0
C23 C 0.2179 0.95835 0.62089 0.0
C24 C 0.21575 0.97287 0.5827 0.0
N25 N 0.21326 0.97233 0.51016 0.0
N26 N 0.21728 0.94372 0.58537 0.0
H27 H 0.21026 0.95753 0.41678 0.0
C28 C 0.21039 0.01277 0.77419 0.0
O29 O 0.20433 1.00117 0.73855 0.0
O30 O 0.21051 0.99447 0.35922 0.0
H31 H 0.21585 0.98455 0.61108 0.0
H32 H 0.2042 0.05716 0.41148 0.0
H33 H 0.21991 0.95866 0.67861 0.0
Zn34 Zn 0.07447 0.27464 0.48045 0.0
C35 C 0.04771 0.25214 0.59859 0.0
N36 N 0.04067 0.25242 0.53825 0.0
C37 C 0.04888 0.2574 0.48705 0.0
N38 N 0.06052 0.26047 0.51516 0.0
N39 N 0.05967 0.25668 0.58509 0.0
C40 C 0.07132 0.25841 0.78335 0.0
O41 O 0.07562 0.27132 0.74781 0.0
O42 O 0.07424 0.2747 0.3695 0.0
Zn43 Zn 0.07285 0.24618 0.63911 0.0
N44 N 0.07079 0.29676 0.51816 0.0
C45 C 0.06628 0.31128 0.62778 0.0
C46 C 0.06845 0.29659 0.59087 0.0
C47 C 0.07136 0.31134 0.48061 0.0
N48 N 0.06686 0.32573 0.59093 0.0
C49 C 0.06941 0.32642 0.5183 0.0
O50 O 0.08964 0.25713 0.62887 0.0
C51 C 0.09676 0.26484 0.58469 0.0
O52 O 0.0926 0.27009 0.52326 0.0
H53 H 0.06856 0.28509 0.6204 0.0
H54 H 0.07371 0.31116 0.42331 0.0
C55 C 0.07185 0.20954 0.62536 0.0
C56 C 0.07323 0.19505 0.58303 0.0
C57 C 0.08049 0.21137 0.48396 0.0
C58 C 0.0792 0.22556 0.5259 0.0
N59 N 0.07483 0.22447 0.59525 0.0
N60 N 0.07746 0.19654 0.51331 0.0
H61 H 0.06826 0.20903 0.68047 0.0
C62 C 0.074 0.26112 0.33446 0.0
O63 O 0.07451 0.24718 0.37088 0.0
O64 O 0.06883 0.24531 0.74763 0.0
H65 H 0.08154 0.23749 0.50323 0.0
H66 H 0.06436 0.31123 0.68564 0.0
H67 H 0.08385 0.21212 0.42844 0.0
Zn68 Zn 0.21124 0.2743 0.84999 0.0
C69 C 0.23708 0.2484 0.73513 0.0
N70 N 0.24444 0.25014 0.79362 0.0
C71 C 0.23667 0.25682 0.84334 0.0
N72 N 0.22488 0.25942 0.81611 0.0
N73 N 0.22529 0.25369 0.74853 0.0
C74 C 0.2134 0.25707 0.5482 0.0
O75 O 0.20958 0.27021 0.58396 0.0
O76 O 0.21142 0.2744 0.96123 0.0
Zn77 Zn 0.21164 0.24473 0.69307 0.0
N78 N 0.21553 0.29615 0.81207 0.0
C79 C 0.22119 0.31021 0.70311 0.0
C80 C 0.21855 0.29568 0.74026 0.0
C81 C 0.21473 0.31086 0.84844 0.0
N82 N 0.2204 0.32481 0.7388 0.0
C83 C 0.21717 0.32577 0.81049 0.0
O84 O 0.19543 0.25692 0.70353 0.0
C85 C 0.1886 0.26525 0.7469 0.0
O86 O 0.19293 0.27052 0.80787 0.0
H87 H 0.21859 0.28406 0.71166 0.0
H88 H 0.21183 0.3109 0.9049 0.0
C89 C 0.21145 0.20812 0.70628 0.0
C90 C 0.20891 0.1936 0.74674 0.0
C91 C 0.20069 0.21016 0.84266 0.0
C92 C 0.20314 0.22434 0.80253 0.0
N93 N 0.20845 0.22313 0.73543 0.0
N94 N 0.20361 0.19523 0.81396 0.0
H95 H 0.21593 0.20762 0.65341 0.0
C96 C 0.21038 0.26088 0.99632 0.0
O97 O 0.20862 0.24713 0.95977 0.0
O98 O 0.21554 0.24385 0.5839 0.0
H99 H 0.20095 0.23636 0.82492 0.0
H100 H 0.22364 0.30994 0.64593 0.0
H101 H 0.19651 0.21099 0.8963 0.0
Zn102 Zn 0.0747 0.99599 0.84894 0.0
C103 C 0.04669 0.01915 0.74135 0.0
N104 N 0.04024 0.01755 0.80341 0.0
C105 C 0.04892 0.01194 0.84999 0.0
N106 N 0.06039 0.00997 0.81777 0.0
N107 N 0.05891 0.01485 0.74925 0.0
C108 C 0.07103 0.01371 0.54603 0.0
O109 O 0.07506 1.00046 0.58015 0.0
O110 O 0.07539 0.99596 0.96035 0.0
Zn111 Zn 0.07208 0.02539 0.69244 0.0
N112 N 0.07066 0.97403 0.81103 0.0
C113 C 0.06462 0.96005 0.70251 0.0
C114 C 0.06775 0.97449 0.73903 0.0
C115 C 0.07088 0.95937 0.84811 0.0
N116 N 0.06473 0.94553 0.73907 0.0
C117 C 0.06784 0.94456 0.81088 0.0
O118 O 0.08905 0.01465 0.70076 0.0
C119 C 0.09639 0.00667 0.74266 0.0
O120 O 0.09249 1.00082 0.8035 0.0
H121 H 0.06793 0.98607 0.70994 0.0
H122 H 0.07327 0.95932 0.90534 0.0
C123 C 0.07133 0.06203 0.70646 0.0
C124 C 0.07283 0.07649 0.74885 0.0
C125 C 0.08002 0.06004 0.8476 0.0
C126 C 0.07862 0.04589 0.80558 0.0
N127 N 0.07421 0.04706 0.73638 0.0
N128 N 0.07709 0.07492 0.81844 0.0
H129 H 0.06772 0.06261 0.65144 0.0
C130 C 0.07413 0.00956 0.99463 0.0
O131 O 0.07307 0.02332 0.95726 0.0
O132 O 0.06845 0.02659 0.58319 0.0
H133 H 0.08091 0.03392 0.82803 0.0
H134 H 0.0622 0.96034 0.64531 0.0
H135 H 0.08341 0.05922 0.90302 0.0
Zn136 Zn 0.82401 0.02593 0.59883 0.0
C137 C 0.79682 1.001 0.49176 0.0
N138 N 0.79054 1.00206 0.55474 0.0
C139 C 0.79912 0.00832 0.60031 0.0
N140 N 0.81031 0.01127 0.56664 0.0
N141 N 0.80884 0.00624 0.49834 0.0
C142 C 0.82389 0.00741 0.29502 0.0
O143 O 0.82944 0.01945 0.33064 0.0
O144 O 0.82364 0.02556 0.71012 0.0
Zn145 Zn 0.82224 0.99617 0.44202 0.0
N146 N 0.81955 0.04776 0.56099 0.0
C147 C 0.81278 0.06184 0.45414 0.0
C148 C 0.81612 0.04735 0.48972 0.0
C149 C 0.82012 0.0624 0.59803 0.0
N150 N 0.81325 0.07635 0.49073 0.0
C151 C 0.8169 0.07726 0.56169 0.0
O152 O 0.83899 0.00721 0.45502 0.0
C153 C 0.84618 0.01564 0.49601 0.0
O154 O 0.84212 0.0218 0.55591 0.0
H155 H 0.81609 0.0358 0.46032 0.0
H156 H 0.82296 0.06241 0.65457 0.0
C157 C 0.82392 0.9593 0.45463 0.0
C158 C 0.82699 0.94517 0.4963 0.0
C159 C 0.83114 0.96235 0.59828 0.0
C160 C 0.82831 0.97622 0.55697 0.0
N161 N 0.82481 0.97455 0.48616 0.0
N162 N 0.83052 0.94723 0.56696 0.0
H163 H 0.8213 0.95823 0.39791 0.0
C164 C 0.83009 0.01511 0.74619 0.0
O165 O 0.83785 0.00525 0.71119 0.0
O166 O 0.8191 0.99547 0.33117 0.0
H167 H 0.82907 0.98838 0.58092 0.0
H168 H 0.80996 0.06161 0.39757 0.0
H169 H 0.83398 0.96357 0.65458 0.0
Zn170 Zn 0.96003 0.74366 0.599 0.0
C171 C 0.9877 0.76742 0.49131 0.0
N172 N 0.99404 0.76588 0.55381 0.0
C173 C 0.98532 0.76004 0.59963 0.0
N174 N 0.97399 0.75783 0.56655 0.0
N175 N 0.97553 0.76283 0.49822 0.0
C176 C 0.96012 0.76234 0.2956 0.0
O177 O 0.95397 0.75084 0.33145 0.0
O178 O 0.96046 0.7438 0.71038 0.0
Zn179 Zn 0.96241 0.77366 0.44256 0.0
N180 N 0.96388 0.72176 0.55955 0.0
C181 C 0.96934 0.70788 0.44975 0.0
C182 C 0.96681 0.72235 0.48755 0.0
C183 C 0.96312 0.70698 0.59543 0.0
N184 N 0.96861 0.69323 0.48501 0.0
C185 C 0.96552 0.69212 0.55685 0.0
O186 O 0.94528 0.76365 0.4574 0.0
C187 C 0.93797 0.75533 0.49821 0.0
O188 O 0.94203 0.74861 0.55689 0.0
H189 H 0.96697 0.73403 0.45919 0.0
H190 H 0.96036 0.70686 0.6521 0.0
C191 C 0.96333 0.81052 0.45378 0.0
C192 C 0.96247 0.82505 0.49639 0.0
C193 C 0.95721 0.80871 0.59952 0.0
C194 C 0.95797 0.7945 0.55743 0.0
N195 N 0.9611 0.79556 0.48582 0.0
N196 N 0.95948 0.82356 0.5682 0.0
H197 H 0.96593 0.81102 0.39685 0.0
C198 C 0.9544 0.75466 0.74646 0.0
O199 O 0.94706 0.76503 0.71139 0.0
O200 O 0.96544 0.77392 0.33151 0.0
H201 H 0.9562 0.78256 0.58183 0.0
H202 H 0.97171 0.70825 0.39248 0.0
H203 H 0.95482 0.80797 0.65671 0.0
Zn204 Zn 0.82355 0.7458 0.22758 0.0
C205 C 0.79813 0.77166 0.34629 0.0
N206 N 0.79055 0.76976 0.28881 0.0
C207 C 0.79817 0.76307 0.23833 0.0
N208 N 0.81007 0.76062 0.26411 0.0
N209 N 0.80988 0.76643 0.33161 0.0
C210 C 0.82362 0.76282 0.52924 0.0
O211 O 0.82769 0.75015 0.49116 0.0
O212 O 0.8227 0.74653 0.11632 0.0
Zn213 Zn 0.82372 0.77544 0.3852 0.0
N214 N 0.81928 0.7238 0.2646 0.0
C215 C 0.81323 0.70982 0.37309 0.0
C216 C 0.81599 0.72431 0.33604 0.0
C217 C 0.82029 0.70904 0.22868 0.0
N218 N 0.81421 0.69519 0.33783 0.0
C219 C 0.81775 0.69414 0.26666 0.0
O220 O 0.83982 0.76324 0.37153 0.0
C221 C 0.84653 0.75474 0.32824 0.0
O222 O 0.84206 0.74933 0.26785 0.0
H223 H 0.81584 0.73593 0.36454 0.0
H224 H 0.82343 0.70896 0.17266 0.0
C225 C 0.82563 0.81221 0.37216 0.0
C226 C 0.82898 0.8263 0.331 0.0
C227 C 0.83427 0.80899 0.23115 0.0
C228 C 0.83106 0.79515 0.27186 0.0
N229 N 0.82693 0.79692 0.34152 0.0
N230 N 0.83325 0.82416 0.2617 0.0
H231 H 0.82237 0.81334 0.4278 0.0
C232 C 0.83104 0.75361 0.07735 0.0
O233 O 0.84103 0.75994 0.10917 0.0
O234 O 0.82046 0.77597 0.49551 0.0
H235 H 0.83193 0.78296 0.2483 0.0
H236 H 0.81055 0.71014 0.42992 0.0
H237 H 0.83763 0.8077 0.17583 0.0
Zn238 Zn 0.96059 0.02479 0.22536 0.0
C239 C 0.98623 0.99932 0.3436 0.0
N240 N 0.99378 1.00133 0.28599 0.0
C241 C 0.98609 0.00791 0.23571 0.0
N242 N 0.97418 0.01018 0.26175 0.0
N243 N 0.97444 0.00441 0.32932 0.0
C244 C 0.96024 0.00728 0.5273 0.0
O245 O 0.9555 0.01964 0.48993 0.0
O246 O 0.96141 0.02408 0.11403 0.0
Zn247 Zn 0.96079 0.99478 0.38255 0.0
N248 N 0.96472 0.04683 0.26231 0.0
C249 C 0.97029 0.061 0.3711 0.0
C250 C 0.96772 0.04644 0.33416 0.0
C251 C 0.96387 0.06151 0.22574 0.0
N252 N 0.96944 0.07557 0.33524 0.0
C253 C 0.96623 0.07648 0.26356 0.0
O254 O 0.94441 0.00626 0.36761 0.0
C255 C 0.93764 0.01494 0.32539 0.0
O256 O 0.94215 0.02099 0.26621 0.0
H257 H 0.96782 0.03484 0.36304 0.0
H258 H 0.96099 0.06151 0.16927 0.0
C259 C 0.96129 0.95803 0.36954 0.0
C260 C 0.95983 0.94358 0.32698 0.0
C261 C 0.95297 0.96011 0.22765 0.0
C262 C 0.95442 0.97425 0.26958 0.0
N263 N 0.95856 0.97303 0.33938 0.0
N264 N 0.95572 0.9452 0.25711 0.0
H265 H 0.96482 0.95744 0.42472 0.0
C266 C 0.95371 0.0156 0.07617 0.0
O267 O 0.94447 0.00779 0.10926 0.0
O268 O 0.964 0.99449 0.49296 0.0
H269 H 0.95245 0.98626 0.24636 0.0
H270 H 0.97273 0.06079 0.42827 0.0
H271 H 0.94975 0.96095 0.1719 0.0
Zn272 Zn 0.21114 0.49303 0.97681 0.0
C273 C 0.23675 0.5219 0.08016 0.0
N274 N 0.24348 0.52004 0.01916 0.0
C275 C 0.23554 0.51212 0.97454 0.0
N276 N 0.22424 0.50899 0.007 0.0
N277 N 0.22505 0.51552 0.07322 0.0
C278 C 0.21153 0.51177 0.27806 0.0
O279 O 0.20732 0.49884 0.24231 0.0
O280 O 0.21083 0.49282 0.86516 0.0
Zn281 Zn 0.21115 0.52374 0.13152 0.0
N282 N 0.21683 0.4717 0.01457 0.0
C283 C 0.22583 0.45833 0.11757 0.0
C284 C 0.22162 0.47257 0.08308 0.0
C285 C 0.21582 0.45688 0.97935 0.0
N286 N 0.22488 0.44363 0.08278 0.0
C287 C 0.21993 0.44228 0.01463 0.0
O288 O 0.1951 0.51096 0.1205 0.0
C289 C 0.18844 0.50174 0.07992 0.0
O290 O 0.19288 0.49576 0.02055 0.0
H291 H 0.22206 0.48427 0.11115 0.0
H292 H 0.21194 0.45656 0.92494 0.0
C293 C 0.20868 0.56047 0.11865 0.0
C294 C 0.20469 0.57443 0.07855 0.0
C295 C 0.19818 0.55682 0.98222 0.0
C296 C 0.20199 0.54312 0.02204 0.0
N297 N 0.20707 0.5451 0.08936 0.0
N298 N 0.19954 0.57207 0.01148 0.0
H299 H 0.21268 0.56175 0.17255 0.0
C300 C 0.20946 0.50635 0.83047 0.0
O301 O 0.20765 0.52002 0.86763 0.0
O302 O 0.21455 0.52467 0.24191 0.0
H303 H 0.20083 0.53086 0.99977 0.0
H304 H 0.22972 0.45891 0.17194 0.0
H305 H 0.19409 0.55537 0.92868 0.0
Zn306 Zn 0.0735 0.77633 0.97294 0.0
C307 C 0.04783 0.75037 0.08934 0.0
N308 N 0.04029 0.75264 0.03202 0.0
C309 C 0.04799 0.75946 0.98236 0.0
N310 N 0.0599 0.7616 0.0085 0.0
N311 N 0.05962 0.75555 0.07561 0.0
C312 C 0.07504 0.75761 0.2742 0.0
O313 O 0.08097 0.76914 0.23731 0.0
O314 O 0.07276 0.7759 0.86121 0.0
Zn315 Zn 0.0731 0.74531 0.12824 0.0
N316 N 0.06942 0.79823 0.01153 0.0
C317 C 0.06348 0.81209 0.12054 0.0
C318 C 0.06613 0.79762 0.08296 0.0
C319 C 0.0705 0.81303 0.97608 0.0
N320 N 0.06453 0.82676 0.08573 0.0
C321 C 0.06803 0.82789 0.01452 0.0
O322 O 0.08981 0.75552 0.10904 0.0
C323 C 0.0966 0.76454 0.06826 0.0
O324 O 0.09191 0.77208 0.01311 0.0
H325 H 0.06585 0.78593 0.11106 0.0
H326 H 0.0736 0.81317 0.92 0.0
C327 C 0.07243 0.70842 0.11879 0.0
C328 C 0.07348 0.69379 0.07685 0.0
C329 C 0.07833 0.71007 0.97271 0.0
C330 C 0.07738 0.72435 0.01416 0.0
N331 N 0.07442 0.72335 0.08601 0.0
N332 N 0.07638 0.69524 0.00486 0.0
H333 H 0.0699 0.70805 0.17581 0.0
C334 C 0.07975 0.76621 0.82427 0.0
O335 O 0.08808 0.75706 0.85857 0.0
O336 O 0.07017 0.74554 0.23936 0.0
H337 H 0.07888 0.73629 0.98916 0.0
H338 H 0.06081 0.8117 0.17737 0.0
H339 H 0.08062 0.71074 0.91538 0.0
Zn340 Zn 0.21054 0.77511 0.34369 0.0
C341 C 0.23648 0.7488 0.23063 0.0
N342 N 0.24381 0.75084 0.289 0.0
C343 C 0.236 0.75767 0.33803 0.0
N344 N 0.2242 0.76007 0.31052 0.0
N345 N 0.22467 0.75406 0.24335 0.0
C346 C 0.21242 0.757 0.04344 0.0
O347 O 0.20843 0.76996 0.07988 0.0
O348 O 0.21054 0.77523 0.45555 0.0
Zn349 Zn 0.21121 0.74436 0.1884 0.0
N350 N 0.21517 0.79687 0.30623 0.0
C351 C 0.22214 0.81086 0.19957 0.0
C352 C 0.21862 0.79642 0.23505 0.0
C353 C 0.21466 0.81151 0.34325 0.0
N354 N 0.22174 0.82538 0.23614 0.0
C355 C 0.21801 0.82632 0.30698 0.0
O356 O 0.19475 0.75561 0.20172 0.0
C357 C 0.18785 0.76452 0.24238 0.0
O358 O 0.19226 0.77133 0.30012 0.0
H359 H 0.21849 0.78486 0.20588 0.0
H360 H 0.21175 0.81155 0.39971 0.0
C361 C 0.20963 0.70745 0.20115 0.0
C362 C 0.2064 0.69339 0.2429 0.0
C363 C 0.20149 0.71079 0.3431 0.0
C364 C 0.20447 0.72458 0.3016 0.0
N365 N 0.20845 0.72276 0.23176 0.0
N366 N 0.20241 0.6956 0.31272 0.0
H367 H 0.21263 0.70628 0.14503 0.0
C368 C 0.20957 0.76173 0.49096 0.0
O369 O 0.20798 0.74792 0.4546 0.0
O370 O 0.21483 0.74378 0.07862 0.0
H371 H 0.20348 0.73681 0.32438 0.0
H372 H 0.22501 0.81058 0.14305 0.0
H373 H 0.19828 0.71213 0.39872 0.0
Zn374 Zn 0.07406 0.49342 0.34848 0.0
C375 C 0.04853 0.52236 0.24498 0.0
N376 N 0.04179 0.52054 0.30597 0.0
C377 C 0.04971 0.51264 0.35075 0.0
N378 N 0.06102 0.50949 0.31838 0.0
N379 N 0.06023 0.51602 0.25213 0.0
C380 C 0.07389 0.51226 0.04719 0.0
O381 O 0.07819 0.49937 0.08287 0.0
O382 O 0.07444 0.49332 0.46009 0.0
Zn383 Zn 0.07413 0.52427 0.19389 0.0
N384 N 0.06822 0.47208 0.31142 0.0
C385 C 0.05863 0.45866 0.2103 0.0
C386 C 0.063 0.47292 0.24395 0.0
C387 C 0.06951 0.45725 0.34631 0.0
N388 N 0.05984 0.44396 0.24481 0.0
C389 C 0.06522 0.44263 0.31186 0.0
O390 O 0.09019 0.51154 0.20539 0.0
C391 C 0.09681 0.50216 0.24551 0.0
O392 O 0.0923 0.49599 0.30435 0.0
H393 H 0.06233 0.48462 0.216 0.0
H394 H 0.07372 0.45695 0.39987 0.0
C395 C 0.07572 0.56101 0.20661 0.0
C396 C 0.07921 0.57526 0.24655 0.0
C397 C 0.08693 0.55801 0.34139 0.0
C398 C 0.08352 0.54409 0.30193 0.0
N399 N 0.07806 0.54576 0.23546 0.0
N400 N 0.08473 0.57316 0.31285 0.0
H401 H 0.07141 0.56195 0.15341 0.0
C402 C 0.07572 0.50689 0.49463 0.0
O403 O 0.07739 0.52056 0.4573 0.0
O404 O 0.07076 0.5251 0.08341 0.0
H405 H 0.08519 0.53191 0.32406 0.0
H406 H 0.05439 0.45923 0.15678 0.0
H407 H 0.09129 0.55681 0.39434 0.0
Zn408 Zn 0.82479 0.52606 0.1029 0.0
C409 C 0.79724 0.50218 0.99509 0.0
N410 N 0.79088 0.50363 0.05766 0.0
C411 C 0.79957 0.50951 0.10349 0.0
N412 N 0.8109 0.51181 0.07038 0.0
N413 N 0.80939 0.50685 1.002 0.0
C414 C 0.82486 0.50731 0.7993 0.0
O415 O 0.83106 0.5188 0.83491 0.0
O416 O 0.82433 0.52586 0.21424 0.0
Zn417 Zn 0.82256 0.49609 0.94638 0.0
N418 N 0.8208 0.54794 0.06374 0.0
C419 C 0.81509 0.56181 0.95434 0.0
C420 C 0.81812 0.54739 0.99143 0.0
C421 C 0.82091 0.56263 0.10051 0.0
N422 N 0.8151 0.57637 0.99061 0.0
C423 C 0.81799 0.57741 0.06269 0.0
O424 O 0.83969 0.50616 0.96122 0.0
C425 C 0.84695 0.51448 0.00226 0.0
O426 O 0.84282 0.52119 0.06085 0.0
H427 H 0.81841 0.53578 0.96251 0.0
H428 H 0.82314 0.56275 0.15795 0.0
C429 C 0.82171 0.4592 0.9583 0.0
C430 C 0.82301 0.44466 1.00069 0.0
C431 C 0.82864 0.4612 0.10269 0.0
C432 C 0.82747 0.47537 0.06074 0.0
N433 N 0.82399 0.47421 0.98975 0.0
N434 N 0.82642 0.4463 0.07183 0.0
H435 H 0.81878 0.45871 0.90197 0.0
C436 C 0.83037 0.51497 0.2501 0.0
O437 O 0.8377 0.50459 0.21481 0.0
O438 O 0.81952 0.49578 0.8354 0.0
H439 H 0.82925 0.48735 0.08466 0.0
H440 H 0.81285 0.56146 0.89691 0.0
H441 H 0.83134 0.46201 0.15937 0.0
Zn442 Zn 0.96109 0.24417 0.10061 0.0
C443 C 0.98729 0.27226 0.9977 0.0
N444 N 0.99395 0.27021 0.05877 0.0
C445 C 0.98584 0.26254 0.10328 0.0
N446 N 0.97451 0.25973 0.07065 0.0
N447 N 0.97549 0.26623 0.00441 0.0
C448 C 0.96172 0.26292 0.79961 0.0
O449 O 0.95703 0.2503 0.83557 0.0
O450 O 0.96074 0.24389 0.21228 0.0
Zn451 Zn 0.96189 0.2752 0.94616 0.0
N452 N 0.96633 0.22268 0.06215 0.0
C453 C 0.97485 0.20926 0.95778 0.0
C454 C 0.97089 0.22353 0.99307 0.0
C455 C 0.96529 0.20783 0.09719 0.0
N456 N 0.97389 0.19454 0.99239 0.0
C457 C 0.96916 0.19319 0.06112 0.0
O458 O 0.94548 0.26342 0.95883 0.0
C459 C 0.93859 0.25429 0.9986 0.0
O460 O 0.94292 0.24772 0.05698 0.0
H461 H 0.97136 0.23526 0.96519 0.0
H462 H 0.9616 0.20751 0.15207 0.0
C463 C 0.96191 0.31195 0.95715 0.0
C464 C 0.9596 0.32654 0.99761 0.0
C465 C 0.95153 0.31018 0.09461 0.0
C466 C 0.95375 0.29593 0.05454 0.0
N467 N 0.9589 0.297 0.98696 0.0
N468 N 0.95449 0.32504 0.06537 0.0
H469 H 0.96624 0.31237 0.90382 0.0
C470 C 0.95961 0.25746 0.24703 0.0
O471 O 0.95806 0.27117 0.20987 0.0
O472 O 0.96522 0.27563 0.83553 0.0
H473 H 0.95154 0.28397 0.07737 0.0
H474 H 0.97856 0.20984 0.90294 0.0
H475 H 0.9475 0.30946 0.14866 0.0
Zn476 Zn 0.82314 0.2746 0.88497 0.0
C477 C 0.79983 0.26271 0.72793 0.0
N478 N 0.79131 0.26879 0.77456 0.0
C479 C 0.79771 0.26967 0.8371 0.0
N480 N 0.80973 0.26454 0.82924 0.0
N481 N 0.8111 0.25972 0.76061 0.0
C482 C 0.83074 0.25566 0.58017 0.0
O483 O 0.83855 0.26551 0.61484 0.0
O484 O 0.81996 0.27515 0.99565 0.0
Zn485 Zn 0.82478 0.24508 0.72774 0.0
N486 N 0.82545 0.29633 0.84123 0.0
C487 C 0.83165 0.30877 0.72943 0.0
C488 C 0.82934 0.29478 0.77105 0.0
C489 C 0.82367 0.31154 0.87189 0.0
N490 N 0.83003 0.32387 0.75968 0.0
C491 C 0.8261 0.32585 0.82978 0.0
O492 O 0.84294 0.24939 0.76923 0.0
C493 C 0.84709 0.25539 0.8292 0.0
O494 O 0.83996 0.26366 0.87123 0.0
H495 H 0.8307 0.28265 0.74769 0.0
H496 H 0.82069 0.31242 0.92809 0.0
C497 C 0.82157 0.20848 0.7306 0.0
C498 C 0.81906 0.19357 0.76849 0.0
C499 C 0.81466 0.20918 0.87525 0.0
C500 C 0.81732 0.22371 0.83816 0.0
N501 N 0.8206 0.22322 0.76664 0.0
N502 N 0.81563 0.19457 0.83984 0.0
H503 H 0.82462 0.20842 0.67441 0.0
C504 C 0.82471 0.26314 0.03145 0.0
O505 O 0.8303 0.25117 0.99553 0.0
O506 O 0.82427 0.24528 0.61656 0.0
H507 H 0.81703 0.23534 0.86684 0.0
H508 H 0.83476 0.30766 0.67354 0.0
H509 H 0.81203 0.20947 0.93215 0.0
Zn510 Zn 0.9611 0.5243 0.73041 0.0
C511 C 0.98778 0.50162 0.84843 0.0
N512 N 0.99482 0.5018 0.78795 0.0
C513 C 0.98664 0.50685 0.73677 0.0
N514 N 0.97501 0.51005 0.76502 0.0
N515 N 0.97585 0.50627 0.83495 0.0
C516 C 0.96451 0.50805 0.03341 0.0
O517 O 0.96063 0.52121 0.99806 0.0
O518 O 0.96134 0.52426 0.61944 0.0
Zn519 Zn 0.96246 0.49623 0.88925 0.0
N520 N 0.96503 0.5464 0.76743 0.0
C521 C 0.97043 0.56096 0.87561 0.0
C522 C 0.96749 0.54633 0.83999 0.0
C523 C 0.96494 0.56087 0.729 0.0
N524 N 0.97046 0.5753 0.83769 0.0
C525 C 0.9677 0.57589 0.76535 0.0
O526 O 0.94592 0.50795 0.88126 0.0
C527 C 0.9388 0.51533 0.83604 0.0
O528 O 0.94291 0.51992 0.7734 0.0
H529 H 0.96705 0.53493 0.87022 0.0
H530 H 0.96279 0.56066 0.67144 0.0
C531 C 0.96157 0.45948 0.87277 0.0
C532 C 0.9588 0.44535 0.83016 0.0
C533 C 0.95249 0.46291 0.73293 0.0
C534 C 0.9551 0.47669 0.77518 0.0
N535 N 0.95959 0.47483 0.84389 0.0
N536 N 0.95435 0.44767 0.76134 0.0
H537 H 0.96496 0.45839 0.92805 0.0
C538 C 0.96159 0.51067 0.58447 0.0
O539 O 0.96108 0.49673 0.62093 0.0
O540 O 0.96659 0.49485 0.99749 0.0
H541 H 0.95354 0.48893 0.75358 0.0
H542 H 0.97253 0.56097 0.93325 0.0
H543 H 0.94893 0.46427 0.67808 0.0
Zn544 Zn 0.71111 0.99505 0.97636 0.0
C545 C 0.73642 0.02124 0.09378 0.0
N546 N 0.74396 0.0194 0.03603 0.0
C547 C 0.73635 0.01257 0.98598 0.0
N548 N 0.72449 0.01002 0.01226 0.0
N549 N 0.7247 0.01584 0.07974 0.0
C550 C 0.71032 0.0124 0.27858 0.0
O551 O 0.70548 1.00007 0.24142 0.0
O552 O 0.71188 0.99567 0.8651 0.0
Zn553 Zn 0.71092 0.02494 0.13372 0.0
N554 N 0.71565 0.9732 0.01344 0.0
C555 C 0.7221 0.95918 0.12103 0.0
C556 C 0.71879 0.97363 0.08509 0.0
C557 C 0.71525 0.95855 0.97636 0.0
N558 N 0.72181 0.94466 0.08445 0.0
C559 C 0.71838 0.94372 0.01313 0.0
O560 O 0.69466 0.01316 0.11838 0.0
C561 C 0.688 0.00436 0.07606 0.0
O562 O 0.69261 0.9984 0.01698 0.0
H563 H 0.71853 0.98516 0.11439 0.0
H564 H 0.71256 0.95852 0.91958 0.0
C565 C 0.71066 0.06169 0.1233 0.0
C566 C 0.70879 0.07627 0.08212 0.0
C567 C 0.70245 0.05986 0.98113 0.0
C568 C 0.70427 0.04561 0.02183 0.0
N569 N 0.70833 0.04671 0.0918 0.0
N570 N 0.70475 0.07475 0.01205 0.0
H571 H 0.71414 0.06213 0.17859 0.0
C572 C 0.70425 0.00431 0.82751 0.0
O573 O 0.69514 0.01231 0.86092 0.0
O574 O 0.71414 0.02514 0.24409 0.0
H575 H 0.70261 0.03362 0.9976 0.0
H576 H 0.72472 0.95944 0.17793 0.0
H577 H 0.69928 0.05913 0.92526 0.0
Zn578 Zn 0.57484 0.27617 0.97791 0.0
C579 C 0.54719 0.25224 0.08482 0.0
N580 N 0.54086 0.25343 0.02217 0.0
C581 C 0.54954 0.25922 0.97591 0.0
N582 N 0.56086 0.26174 0.0089 0.0
N583 N 0.55933 0.25694 0.07747 0.0
C584 C 0.57287 0.25863 0.2802 0.0
O585 O 0.57813 0.2709 0.24452 0.0
O586 O 0.57502 0.27658 0.86664 0.0
Zn587 Zn 0.57251 0.24662 0.13449 0.0
N588 N 0.57074 0.29797 0.01736 0.0
C589 C 0.56488 0.31196 0.1262 0.0
C590 C 0.56754 0.29744 0.089 0.0
C591 C 0.5716 0.3127 0.98127 0.0
N592 N 0.56574 0.32658 0.09072 0.0
C593 C 0.56907 0.32759 0.01921 0.0
O594 O 0.58955 0.25713 0.1229 0.0
C595 C 0.59681 0.26529 0.08113 0.0
O596 O 0.59276 0.27147 0.0213 0.0
H597 H 0.56729 0.2858 0.11756 0.0
H598 H 0.57456 0.31277 0.92493 0.0
C599 C 0.57178 0.2098 0.123 0.0
C600 C 0.57348 0.19523 0.08139 0.0
C601 C 0.58035 0.2116 0.98146 0.0
C602 C 0.57881 0.22582 0.02279 0.0
N603 N 0.57449 0.22474 0.09223 0.0
N604 N 0.57768 0.19675 0.01159 0.0
H605 H 0.56822 0.20935 0.17817 0.0
C606 C 0.57531 0.26299 0.83163 0.0
O607 O 0.57613 0.24911 0.86834 0.0
O608 O 0.56894 0.24617 0.24419 0.0
H609 H 0.58097 0.23777 0.99972 0.0
H610 H 0.56231 0.31166 0.1832 0.0
H611 H 0.5837 0.21234 0.92588 0.0
Zn612 Zn 0.71102 0.27448 0.35118 0.0
C613 C 0.73709 0.24901 0.23566 0.0
N614 N 0.74436 0.25037 0.29472 0.0
C615 C 0.73659 0.25693 0.34465 0.0
N616 N 0.72486 0.25982 0.31705 0.0
N617 N 0.72531 0.25438 0.249 0.0
C618 C 0.71566 0.25671 0.04815 0.0
O619 O 0.71408 0.27085 0.08204 0.0
O620 O 0.71082 0.27432 0.46266 0.0
Zn621 Zn 0.71148 0.24555 0.19393 0.0
N622 N 0.71516 0.29649 0.31405 0.0
C623 C 0.72052 0.31068 0.20481 0.0
C624 C 0.71812 0.2961 0.24213 0.0
C625 C 0.71426 0.31119 0.35048 0.0
N626 N 0.71954 0.32527 0.24044 0.0
C627 C 0.71642 0.32614 0.31228 0.0
O628 O 0.69555 0.25856 0.19999 0.0
C629 C 0.68862 0.26622 0.24529 0.0
O630 O 0.6928 0.27053 0.30808 0.0
H631 H 0.71828 0.28448 0.21351 0.0
H632 H 0.71144 0.31123 0.4071 0.0
C633 C 0.70949 0.20908 0.21063 0.0
C634 C 0.70617 0.195 0.25219 0.0
C635 C 0.69938 0.21265 0.34806 0.0
C636 C 0.70262 0.22641 0.30696 0.0
N637 N 0.70756 0.22445 0.23927 0.0
N638 N 0.70119 0.19738 0.3198 0.0
H639 H 0.71334 0.20794 0.15632 0.0
C640 C 0.7116 0.26062 0.49657 0.0
O641 O 0.7119 0.24685 0.45875 0.0
O642 O 0.71544 0.2434 0.08529 0.0
H643 H 0.70124 0.23867 0.3288 0.0
H644 H 0.72289 0.31046 0.14752 0.0
H645 H 0.69543 0.21407 0.40205 0.0
Zn646 Zn 0.57396 0.99468 0.34678 0.0
C647 C 0.54793 0.02285 0.24328 0.0
N648 N 0.54123 0.0209 0.30433 0.0
C649 C 0.54928 0.0132 0.34905 0.0
N650 N 0.56061 0.01028 0.31654 0.0
N651 N 0.55971 0.01675 0.25025 0.0
C652 C 0.5733 0.01348 0.04548 0.0
O653 O 0.57772 1.00066 0.08123 0.0
O654 O 0.57431 0.99451 0.4584 0.0
Zn655 Zn 0.57344 0.02546 0.19208 0.0
N656 N 0.56874 0.97316 0.309 0.0
C657 C 0.56094 0.95928 0.20398 0.0
C658 C 0.56416 0.97379 0.23994 0.0
C659 C 0.57029 0.95838 0.34382 0.0
N660 N 0.5626 0.9446 0.23801 0.0
C661 C 0.5672 0.94356 0.30705 0.0
O662 O 0.58965 0.01311 0.2031 0.0
C663 C 0.59646 0.00398 0.24323 0.0
O664 O 0.59214 0.99784 0.30259 0.0
H665 H 0.56328 0.98549 0.21221 0.0
H666 H 0.57428 0.95816 0.39801 0.0
C667 C 0.5747 0.06225 0.20575 0.0
C668 C 0.57793 0.07646 0.2467 0.0
C669 C 0.58543 0.05911 0.34179 0.0
C670 C 0.5823 0.04523 0.30132 0.0
N671 N 0.57705 0.04697 0.23432 0.0
N672 N 0.58321 0.07428 0.31361 0.0
H673 H 0.57059 0.06323 0.15206 0.0
C674 C 0.57545 0.00808 0.49303 0.0
O675 O 0.57702 0.02178 0.45579 0.0
O676 O 0.57005 0.02627 0.08164 0.0
H677 H 0.58401 0.03303 0.32307 0.0
H678 H 0.55733 0.95966 0.14893 0.0
H679 H 0.58961 0.05786 0.39521 0.0
Zn680 Zn 0.32364 0.02484 0.09713 0.0
C681 C 0.29812 0.99895 0.97962 0.0
N682 N 0.29058 1.001 0.03723 0.0
C683 C 0.29825 0.00778 0.08709 0.0
N684 N 0.31014 0.01009 0.06088 0.0
N685 N 0.30989 0.0042 0.99351 0.0
C686 C 0.32431 0.00734 0.79567 0.0
O687 O 0.32909 0.01962 0.83346 0.0
O688 O 0.32285 0.02413 0.20854 0.0
Zn689 Zn 0.32358 0.99465 0.94019 0.0
N690 N 0.31933 0.04683 0.06035 0.0
C691 C 0.31318 0.06102 0.95263 0.0
C692 C 0.31595 0.04644 0.98908 0.0
C693 C 0.32039 0.06151 0.09674 0.0
N694 N 0.31422 0.07558 0.98836 0.0
C695 C 0.31782 0.07648 0.05943 0.0
O696 O 0.33997 0.00607 0.95604 0.0
C697 C 0.34669 0.01491 0.99785 0.0
O698 O 0.34209 0.02121 0.05624 0.0
H699 H 0.31568 0.03486 0.96021 0.0
H700 H 0.32357 0.06149 0.15266 0.0
C701 C 0.32289 0.95792 0.95233 0.0
C702 C 0.32424 0.94341 0.99461 0.0
C703 C 0.33124 0.95973 0.09423 0.0
C704 C 0.3299 0.97394 0.05258 0.0
N705 N 0.32575 0.97285 0.98277 0.0
N706 N 0.32837 0.94489 0.0645 0.0
H707 H 0.31935 0.95743 0.89715 0.0
C708 C 0.33086 0.01623 0.24675 0.0
O709 O 0.34041 0.00901 0.21401 0.0
O710 O 0.32047 0.99454 0.82963 0.0
H711 H 0.33195 0.9859 0.07605 0.0
H712 H 0.31044 0.06081 0.89592 0.0
H713 H 0.33447 0.96047 0.14999 0.0
Zn714 Zn 0.46212 0.77571 0.94062 0.0
C715 C 0.48531 0.76301 0.09919 0.0
N716 N 0.49395 0.76899 0.05311 0.0
C717 C 0.48756 0.77047 0.9908 0.0
N718 N 0.47542 0.7658 0.99829 0.0
N719 N 0.47394 0.76068 0.06646 0.0
C720 C 0.45953 0.7592 0.24354 0.0
O721 O 0.45869 0.77308 0.20685 0.0
O722 O 0.46575 0.77633 0.83094 0.0
Zn723 Zn 0.46003 0.74605 0.09717 0.0
N724 N 0.4593 0.79744 0.98324 0.0
C725 C 0.45193 0.80964 0.09323 0.0
C726 C 0.45501 0.79576 0.05254 0.0
C727 C 0.4607 0.81271 0.95241 0.0
N728 N 0.45306 0.82478 0.06258 0.0
C729 C 0.45735 0.82686 0.9933 0.0
O730 O 0.44205 0.75064 0.05398 0.0
C731 C 0.43807 0.75645 0.99326 0.0
O732 O 0.44532 0.76457 0.95127 0.0
H733 H 0.45382 0.78358 0.07551 0.0
H734 H 0.46394 0.81377 0.89672 0.0
C735 C 0.46307 0.70944 0.09289 0.0
C736 C 0.46574 0.69459 0.05484 0.0
C737 C 0.4707 0.71042 0.9495 0.0
C738 C 0.4679 0.72488 0.98675 0.0
N739 N 0.46425 0.72425 0.05765 0.0
N740 N 0.46953 0.69573 0.98413 0.0
H741 H 0.45975 0.70928 0.14857 0.0
C742 C 0.46207 0.76372 0.79498 0.0
O743 O 0.45709 0.75127 0.83074 0.0
O744 O 0.45984 0.74561 0.20851 0.0
H745 H 0.4684 0.73657 0.95871 0.0
H746 H 0.44848 0.80841 0.14841 0.0
H747 H 0.47362 0.71081 0.89308 0.0
Zn748 Zn 0.32474 0.74412 0.72026 0.0
C749 C 0.29664 0.76698 0.82768 0.0
N750 N 0.29027 0.76539 0.76538 0.0
C751 C 0.29905 0.75994 0.71895 0.0
N752 N 0.31047 0.75803 0.75152 0.0
N753 N 0.3089 0.76285 0.82005 0.0
C754 C 0.32258 0.76162 0.02261 0.0
O755 O 0.32812 0.74956 0.98691 0.0
O756 O 0.32484 0.7436 0.609 0.0
Zn757 Zn 0.32188 0.77366 0.8769 0.0
N758 N 0.32123 0.72221 0.76054 0.0
C759 C 0.31642 0.70818 0.87106 0.0
C760 C 0.31849 0.72273 0.8328 0.0
C761 C 0.32213 0.70744 0.7247 0.0
N762 N 0.31739 0.69353 0.83592 0.0
C763 C 0.32022 0.69254 0.76371 0.0
O764 O 0.3391 0.76372 0.86482 0.0
C765 C 0.34652 0.75586 0.82285 0.0
O766 O 0.3426 0.74961 0.76287 0.0
H767 H 0.31815 0.73443 0.86098 0.0
H768 H 0.32469 0.70733 0.66768 0.0
C769 C 0.32074 0.81052 0.8665 0.0
C770 C 0.32189 0.82511 0.82455 0.0
C771 C 0.32825 0.80897 0.72287 0.0
C772 C 0.32722 0.7947 0.76444 0.0
N773 N 0.32338 0.79564 0.83485 0.0
N774 N 0.32556 0.82375 0.75372 0.0
H775 H 0.31763 0.81092 0.92258 0.0
C776 C 0.32494 0.75719 0.57392 0.0
O777 O 0.32563 0.77109 0.61054 0.0
O778 O 0.31837 0.77393 0.98665 0.0
H779 H 0.32938 0.78282 0.74081 0.0
H780 H 0.31424 0.7085 0.9286 0.0
H781 H 0.33118 0.80833 0.66652 0.0
Zn782 Zn 0.46084 0.02512 0.72906 0.0
C783 C 0.48738 1.00181 0.84621 0.0
N784 N 0.49442 1.00212 0.78579 0.0
C785 C 0.48628 0.0074 0.73487 0.0
N786 N 0.47466 0.01062 0.76321 0.0
N787 N 0.47547 0.00657 0.83288 0.0
C788 C 0.46418 0.0086 0.03184 0.0
O789 O 0.4604 0.0218 0.99642 0.0
O790 O 0.46106 0.02518 0.61799 0.0
Zn791 Zn 0.46203 0.99675 0.88762 0.0
N792 N 0.46479 0.04717 0.76698 0.0
C793 C 0.46974 0.06128 0.87696 0.0
C794 C 0.46729 0.04676 0.83945 0.0
C795 C 0.46428 0.06188 0.7303 0.0
N796 N 0.46923 0.07586 0.84097 0.0
C797 C 0.46649 0.07683 0.76867 0.0
O798 O 0.44563 0.00879 0.87985 0.0
C799 C 0.43855 0.01634 0.83495 0.0
O800 O 0.44265 0.0209 0.77224 0.0
H801 H 0.46709 0.03519 0.86835 0.0
H802 H 0.46177 0.0619 0.67325 0.0
C803 C 0.46033 0.95996 0.87169 0.0
C804 C 0.45684 0.946 0.82998 0.0
C805 C 0.45101 0.9637 0.73253 0.0
C806 C 0.45426 0.97739 0.77402 0.0
N807 N 0.45881 0.97537 0.84255 0.0
N808 N 0.45227 0.94842 0.76155 0.0
H809 H 0.46382 0.95863 0.92675 0.0
C810 C 0.46117 0.01158 0.58303 0.0
O811 O 0.46053 0.99766 0.61955 0.0
O812 O 0.46617 0.99537 0.99597 0.0
H813 H 0.45306 0.98967 0.75215 0.0
H814 H 0.47179 0.06103 0.93462 0.0
H815 H 0.44735 0.9652 0.67796 0.0
Zn816 Zn 0.71134 0.49408 0.47757 0.0
C817 C 0.73706 0.51972 0.59449 0.0
N818 N 0.74462 0.51743 0.53717 0.0
C819 C 0.73691 0.5107 0.48738 0.0
N820 N 0.72498 0.50864 0.51344 0.0
N821 N 0.72525 0.51465 0.58063 0.0
C822 C 0.70977 0.51281 0.77899 0.0
O823 O 0.70379 0.50131 0.74222 0.0
O824 O 0.71212 0.49455 0.36587 0.0
Zn825 Zn 0.71178 0.52505 0.633 0.0
N826 N 0.71521 0.47212 0.51604 0.0
C827 C 0.72024 0.45801 0.62597 0.0
C828 C 0.71803 0.47258 0.58817 0.0
C829 C 0.71431 0.45739 0.47992 0.0
N830 N 0.71926 0.44339 0.5906 0.0
C831 C 0.71632 0.44246 0.51857 0.0
O832 O 0.695 0.51496 0.61393 0.0
C833 C 0.68822 0.50601 0.57283 0.0
O834 O 0.69294 0.4985 0.51765 0.0
H835 H 0.71824 0.48424 0.61661 0.0
H836 H 0.71164 0.4573 0.4231 0.0
C837 C 0.71267 0.56194 0.6232 0.0
C838 C 0.71163 0.57657 0.58122 0.0
C839 C 0.70655 0.56028 0.4775 0.0
C840 C 0.70751 0.54601 0.51898 0.0
N841 N 0.71057 0.54702 0.59065 0.0
N842 N 0.70861 0.57511 0.50942 0.0
H843 H 0.71529 0.56231 0.68007 0.0
C844 C 0.70514 0.50427 0.32907 0.0
O845 O 0.69682 0.51343 0.36353 0.0
O846 O 0.71468 0.52484 0.74406 0.0
H847 H 0.70591 0.53407 0.49416 0.0
H848 H 0.72248 0.45828 0.6834 0.0
H849 H 0.70417 0.55961 0.42031 0.0
Zn850 Zn 0.57385 0.77594 0.47474 0.0
C851 C 0.54792 0.75049 0.59062 0.0
N852 N 0.54053 0.75223 0.53225 0.0
C853 C 0.54831 0.75878 0.48225 0.0
N854 N 0.56012 0.7613 0.50919 0.0
N855 N 0.55972 0.75568 0.57695 0.0
C856 C 0.57167 0.75875 0.77667 0.0
O857 O 0.57554 0.77188 0.74097 0.0
O858 O 0.57357 0.77602 0.36352 0.0
Zn859 Zn 0.57335 0.74649 0.63178 0.0
N860 N 0.56983 0.79785 0.51277 0.0
C861 C 0.56497 0.81221 0.62233 0.0
C862 C 0.56712 0.79755 0.58503 0.0
C863 C 0.57067 0.81249 0.47592 0.0
N864 N 0.56591 0.82676 0.58626 0.0
C865 C 0.56874 0.82749 0.514 0.0
O866 O 0.58965 0.7585 0.62111 0.0
C867 C 0.59651 0.76667 0.57729 0.0
O868 O 0.59217 0.77189 0.51624 0.0
H869 H 0.56696 0.78595 0.61388 0.0
H870 H 0.57326 0.81246 0.41893 0.0
C871 C 0.5734 0.70989 0.6182 0.0
C872 C 0.5757 0.6954 0.57712 0.0
C873 C 0.58357 0.71199 0.48033 0.0
C874 C 0.58136 0.72615 0.52109 0.0
N875 N 0.57633 0.72491 0.58887 0.0
N876 N 0.58071 0.69705 0.50916 0.0
H877 H 0.56916 0.70935 0.67172 0.0
C878 C 0.57458 0.76251 0.32842 0.0
O879 O 0.57635 0.74875 0.36493 0.0
O880 O 0.56949 0.74555 0.74092 0.0
H881 H 0.58352 0.73817 0.4987 0.0
H882 H 0.56281 0.81208 0.67991 0.0
H883 H 0.58751 0.71284 0.42612 0.0
Zn884 Zn 0.71001 0.77563 0.85002 0.0
C885 C 0.73745 0.75094 0.74324 0.0
N886 N 0.74388 0.75224 0.80546 0.0
C887 C 0.73536 0.75838 0.85178 0.0
N888 N 0.72399 0.76099 0.81924 0.0
N889 N 0.72537 0.75588 0.75095 0.0
C890 C 0.71341 0.75755 0.54714 0.0
O891 O 0.70977 0.77102 0.58112 0.0
O892 O 0.70924 0.77561 0.96152 0.0
Zn893 Zn 0.7119 0.74616 0.69377 0.0
N894 N 0.71452 0.79749 0.81228 0.0
C895 C 0.72119 0.81136 0.70466 0.0
C896 C 0.71824 0.7969 0.74149 0.0
C897 C 0.7134 0.81227 0.84782 0.0
N898 N 0.72007 0.82602 0.73955 0.0
C899 C 0.71621 0.82712 0.81013 0.0
O900 O 0.69535 0.75799 0.70077 0.0
C901 C 0.68817 0.76619 0.74285 0.0
O902 O 0.69213 0.77162 0.80429 0.0
H903 H 0.71866 0.78525 0.71317 0.0
H904 H 0.71002 0.81243 0.90338 0.0
C905 C 0.71078 0.70946 0.70983 0.0
C906 C 0.70763 0.69531 0.75141 0.0
C907 C 0.70063 0.71279 0.84733 0.0
C908 C 0.70364 0.72662 0.80612 0.0
N909 N 0.70862 0.72478 0.73846 0.0
N910 N 0.70264 0.69757 0.81906 0.0
H911 H 0.71461 0.70838 0.65545 0.0
C912 C 0.71023 0.76195 0.99563 0.0
O913 O 0.71104 0.74818 0.95805 0.0
O914 O 0.7156 0.74457 0.5845 0.0
H915 H 0.70199 0.73885 0.82769 0.0
H916 H 0.72417 0.81099 0.64835 0.0
H917 H 0.69666 0.71412 0.90129 0.0
Zn918 Zn 0.57418 0.4949 0.84689 0.0
C919 C 0.54804 0.5209 0.73452 0.0
N920 N 0.54081 0.519 0.79348 0.0
C921 C 0.54871 0.51227 0.84225 0.0
N922 N 0.56046 0.50982 0.81405 0.0
N923 N 0.55988 0.51564 0.7466 0.0
C924 C 0.57216 0.51288 0.54655 0.0
O925 O 0.57625 0.49997 0.58292 0.0
O926 O 0.57417 0.49475 0.9587 0.0
Zn927 Zn 0.57327 0.52555 0.69151 0.0
N928 N 0.56967 0.47313 0.80924 0.0
C929 C 0.56298 0.45908 0.70225 0.0
C930 C 0.56638 0.47355 0.73783 0.0
C931 C 0.57008 0.45853 0.8465 0.0
N932 N 0.5633 0.44458 0.73903 0.0
C933 C 0.56684 0.44368 0.81018 0.0
O934 O 0.58988 0.5146 0.70481 0.0
C935 C 0.59682 0.50579 0.74555 0.0
O936 O 0.59243 0.49891 0.80322 0.0
H937 H 0.56654 0.48509 0.70855 0.0
H938 H 0.57283 0.45853 0.90319 0.0
C939 C 0.57391 0.56246 0.70449 0.0
C940 C 0.57643 0.57672 0.74679 0.0
C941 C 0.58212 0.55948 0.84635 0.0
C942 C 0.57975 0.54557 0.80443 0.0
N943 N 0.57569 0.54722 0.73474 0.0
N944 N 0.58045 0.57462 0.81662 0.0
H945 H 0.57085 0.56339 0.64847 0.0
C946 C 0.57529 0.50821 0.99415 0.0
O947 O 0.57704 0.522 0.95784 0.0
O948 O 0.56964 0.52606 0.58179 0.0
H949 H 0.58119 0.53338 0.82695 0.0
H950 H 0.56024 0.45932 0.64553 0.0
H951 H 0.58534 0.55828 0.90196 0.0
Zn952 Zn 0.32229 0.49492 0.43928 0.0
C953 C 0.29852 0.50866 0.58952 0.0
N954 N 0.2902 0.5041 0.5383 0.0
C955 C 0.29734 0.50297 0.47846 0.0
N956 N 0.30946 0.50662 0.49221 0.0
N957 N 0.31035 0.51064 0.56192 0.0
C958 C 0.32386 0.51124 0.74294 0.0
O959 O 0.32412 0.49728 0.70659 0.0
O960 O 0.31864 0.49459 0.33006 0.0
Zn961 Zn 0.32448 0.52454 0.59623 0.0
N962 N 0.32306 0.47305 0.48313 0.0
C963 C 0.32749 0.45997 0.59616 0.0
C964 C 0.32664 0.47414 0.55389 0.0
C965 C 0.3205 0.45811 0.45185 0.0
N966 N 0.32497 0.44512 0.56554 0.0
C967 C 0.32155 0.44356 0.49438 0.0
O968 O 0.34248 0.5191 0.55363 0.0
C969 C 0.34677 0.51216 0.49585 0.0
O970 O 0.33962 0.50413 0.45303 0.0
H971 H 0.32883 0.48605 0.57709 0.0
H972 H 0.31761 0.45766 0.39543 0.0
C973 C 0.32194 0.56132 0.59409 0.0
C974 C 0.32036 0.57634 0.55548 0.0
C975 C 0.31717 0.56104 0.44662 0.0
C976 C 0.31898 0.54638 0.48443 0.0
N977 N 0.32121 0.54666 0.55724 0.0
N978 N 0.31797 0.57558 0.48273 0.0
H979 H 0.32414 0.56126 0.65157 0.0
C980 C 0.32179 0.50751 0.29475 0.0
O981 O 0.32663 0.52001 0.3308 0.0
O982 O 0.32427 0.52479 0.70766 0.0
H983 H 0.31889 0.53479 0.4555 0.0
H984 H 0.33024 0.46073 0.65277 0.0
H985 H 0.31537 0.5609 0.38866 0.0
Zn986 Zn 0.46126 0.24463 0.60042 0.0
C987 C 0.48671 0.27133 0.48591 0.0
N988 N 0.49411 0.2696 0.54423 0.0
C989 C 0.48644 0.26266 0.59374 0.0
N990 N 0.47467 0.25991 0.56659 0.0
N991 N 0.47498 0.26579 0.49923 0.0
C992 C 0.46296 0.26221 0.29886 0.0
O993 O 0.45923 0.24904 0.3347 0.0
O994 O 0.46138 0.24466 0.71175 0.0
Zn995 Zn 0.46123 0.27459 0.44391 0.0
N996 N 0.46605 0.22286 0.56314 0.0
C997 C 0.47291 0.20898 0.45597 0.0
C998 C 0.46937 0.22337 0.49177 0.0
C999 C 0.46567 0.20819 0.60005 0.0
N1000 N 0.47264 0.19444 0.49241 0.0
C1001 C 0.46902 0.19341 0.56343 0.0
O1002 O 0.44513 0.26213 0.45494 0.0
C1003 C 0.43845 0.25345 0.49775 0.0
O1004 O 0.44291 0.24796 0.55803 0.0
H1005 H 0.46909 0.23493 0.46266 0.0
H1006 H 0.46283 0.20809 0.65662 0.0
C1007 C 0.46099 0.31124 0.45745 0.0
C1008 C 0.45829 0.32575 0.49773 0.0
C1009 C 0.44972 0.30911 0.59243 0.0
C1010 C 0.45233 0.29495 0.55252 0.0
N1011 N 0.45788 0.2962 0.48607 0.0
N1012 N 0.45273 0.32406 0.56424 0.0
H1013 H 0.46567 0.31176 0.40518 0.0
C1014 C 0.46018 0.25817 0.74673 0.0
O1015 O 0.45829 0.27188 0.71004 0.0
O1016 O 0.46505 0.27545 0.33455 0.0
H1017 H 0.45008 0.28293 0.5746 0.0
H1018 H 0.47568 0.20932 0.39929 0.0
H1019 H 0.44535 0.30826 0.64555 0.0
Zn1020 Zn 0.32463 0.24388 0.22895 0.0
C1021 C 0.29759 0.26912 0.33562 0.0
N1022 N 0.29126 0.26826 0.27286 0.0
C1023 C 0.29978 0.26203 0.22667 0.0
N1024 N 0.311 0.25892 0.25981 0.0
N1025 N 0.30959 0.26383 0.32831 0.0
C1026 C 0.32296 0.26178 0.53134 0.0
O1027 O 0.32779 0.24919 0.49582 0.0
O1028 O 0.3249 0.24366 0.11766 0.0
Zn1029 Zn 0.32301 0.27356 0.38538 0.0
N1030 N 0.31984 0.22221 0.26732 0.0
C1031 C 0.31281 0.20835 0.37419 0.0
C1032 C 0.31634 0.22274 0.33848 0.0
C1033 C 0.32028 0.20753 0.23051 0.0
N1034 N 0.31315 0.1938 0.33785 0.0
C1035 C 0.31687 0.19276 0.26698 0.0
O1036 O 0.33968 0.26206 0.37492 0.0
C1037 C 0.34677 0.2536 0.33336 0.0
O1038 O 0.34265 0.24772 0.27306 0.0
H1039 H 0.31641 0.23431 0.36767 0.0
H1040 H 0.32317 0.20743 0.17404 0.0
C1041 C 0.32356 0.31044 0.37079 0.0
C1042 C 0.3265 0.32467 0.32922 0.0
C1043 C 0.33371 0.30739 0.23314 0.0
C1044 C 0.33091 0.29349 0.27432 0.0
N1045 N 0.32593 0.29517 0.34205 0.0
N1046 N 0.3315 0.32254 0.2615 0.0
H1047 H 0.31971 0.31142 0.42518 0.0
C1048 C 0.32534 0.25729 0.08292 0.0
O1049 O 0.32629 0.27112 0.1199 0.0
O1050 O 0.31941 0.27441 0.49512 0.0
H1051 H 0.33273 0.28131 0.25267 0.0
H1052 H 0.30992 0.20868 0.43068 0.0
H1053 H 0.33768 0.30617 0.17912 0.0
Zn1054 Zn 0.46 0.52644 0.22176 0.0
C1055 C 0.48797 0.50422 0.3326 0.0
N1056 N 0.49459 0.50667 0.27161 0.0
C1057 C 0.48587 0.51199 0.22467 0.0
N1058 N 0.47425 0.51295 0.25567 0.0
N1059 N 0.47562 0.50772 0.3238 0.0
C1060 C 0.45948 0.50652 0.52456 0.0
O1061 O 0.45268 0.5174 0.48886 0.0
O1062 O 0.46052 0.52597 0.11012 0.0
Zn1063 Zn 0.46273 0.49569 0.3769 0.0
N1064 N 0.46342 0.54853 0.26016 0.0
C1065 C 0.46855 0.56271 0.36971 0.0
C1066 C 0.46584 0.54817 0.3328 0.0
C1067 C 0.46329 0.56314 0.22279 0.0
N1068 N 0.46853 0.5772 0.33286 0.0
C1069 C 0.46591 0.57805 0.26038 0.0
O1070 O 0.4453 0.50445 0.3595 0.0
C1071 C 0.43796 0.5129 0.31947 0.0
O1072 O 0.4421 0.52081 0.26393 0.0
H1073 H 0.4656 0.53659 0.36205 0.0
H1074 H 0.4613 0.56311 0.16504 0.0
C1075 C 0.46313 0.45869 0.36524 0.0
C1076 C 0.46197 0.44424 0.32224 0.0
C1077 C 0.45957 0.46098 0.21683 0.0
C1078 C 0.46048 0.47509 0.2593 0.0
N1079 N 0.46231 0.4738 0.33232 0.0
N1080 N 0.46027 0.44598 0.24916 0.0
H1081 H 0.46427 0.45799 0.42367 0.0
C1082 C 0.45461 0.51491 0.07449 0.0
O1083 O 0.44742 0.50443 0.11011 0.0
O1084 O 0.46543 0.4955 0.48844 0.0
H1085 H 0.45956 0.48711 0.23426 0.0
H1086 H 0.47058 0.56253 0.42741 0.0
H1087 H 0.45814 0.46189 0.15867 0.0
H1088 H 0.21068 0.18236 0.60416 0.0
H1089 H 0.21275 0.1659 0.82781 0.0
H1090 H 0.2126 0.15386 0.56342 0.0
H1091 H 0.21408 0.13743 0.78699 0.0
H1092 H 0.22476 0.08748 0.68648 0.0
H1093 H 0.22618 0.11625 0.72666 0.0
H1094 H 0.19901 0.13031 0.56269 0.0
H1095 H 0.19771 0.10189 0.52234 0.0
C1096 C 0.21175 0.17278 0.64477 0.0
C1097 C 0.21153 0.17657 0.7195 0.0
C1098 C 0.21267 0.15634 0.62135 0.0
C1099 C 0.21334 0.14327 0.67192 0.0
C1100 C 0.21367 0.14712 0.74639 0.0
C1101 C 0.21278 0.16351 0.76979 0.0
C1102 C 0.21899 0.09668 0.65961 0.0
C1103 C 0.21109 0.09229 0.60125 0.0
C1104 C 0.21985 0.11321 0.68239 0.0
C1105 C 0.21282 0.12569 0.64738 0.0
C1106 C 0.20482 0.12118 0.58978 0.0
C1107 C 0.204 0.10478 0.567 0.0
H1108 H 0.07683 0.1826 0.72128 0.0
H1109 H 0.06379 0.16913 0.50672 0.0
H1110 H 0.07507 0.15384 0.7596 0.0
H1111 H 0.06168 0.14051 0.5453 0.0
H1112 H 0.07645 0.08892 0.61054 0.0
H1113 H 0.07488 0.11769 0.57233 0.0
H1114 H 0.06174 0.13119 0.78709 0.0
H1115 H 0.06365 0.10253 0.82555 0.0
C1116 C 0.07326 0.1736 0.68286 0.0
C1117 C 0.07046 0.17819 0.61092 0.0
C1118 C 0.07226 0.15705 0.70475 0.0
C1119 C 0.06833 0.14472 0.65538 0.0
C1120 C 0.06501 0.14952 0.58441 0.0
C1121 C 0.06613 0.16599 0.56243 0.0
C1122 C 0.07297 0.09796 0.64909 0.0
C1123 C 0.07018 0.0934 0.72111 0.0
C1124 C 0.07208 0.11452 0.62727 0.0
C1125 C 0.06827 0.12689 0.67678 0.0
C1126 C 0.06497 0.12213 0.74786 0.0
C1127 C 0.06597 0.10565 0.76977 0.0
H1128 H 0.84512 0.92227 0.51623 0.0
H1129 H 0.80908 0.92958 0.41158 0.0
H1130 H 0.84511 0.89339 0.47839 0.0
H1131 H 0.80899 0.9003 0.37441 0.0
H1132 H 0.81014 0.84133 0.41108 0.0
H1133 H 0.80911 0.87062 0.44731 0.0
H1134 H 0.84569 0.8789 0.35057 0.0
H1135 H 0.84664 0.84998 0.31367 0.0
C1136 C 0.83722 0.91769 0.48465 0.0
C1137 C 0.82716 0.92819 0.46621 0.0
C1138 C 0.83722 0.90116 0.46316 0.0
C1139 C 0.82703 0.89461 0.42389 0.0
C1140 C 0.81692 0.90506 0.40516 0.0
C1141 C 0.81704 0.9218 0.42554 0.0
C1142 C 0.81799 0.84941 0.39846 0.0
C1143 C 0.82853 0.84337 0.36016 0.0
C1144 C 0.81733 0.86616 0.41828 0.0
C1145 C 0.8273 0.87699 0.40136 0.0
C1146 C 0.83789 0.87082 0.36435 0.0
C1147 C 0.83843 0.85427 0.3434 0.0
H1148 H 0.95693 0.83717 0.35941 0.0
H1149 H 0.97223 0.85146 0.56798 0.0
H1150 H 0.95771 0.86592 0.31971 0.0
H1151 H 0.97324 0.88008 0.52803 0.0
H1152 H 0.95701 0.93114 0.46628 0.0
H1153 H 0.9591 0.90242 0.50467 0.0
H1154 H 0.97074 0.88884 0.28724 0.0
H1155 H 0.96843 0.91742 0.24872 0.0
C1156 C 0.96076 0.84635 0.39614 0.0
C1157 C 0.96451 0.84197 0.46691 0.0
C1158 C 0.96119 0.8629 0.37348 0.0
C1159 C 0.96543 0.87543 0.4209 0.0
C1160 C 0.96965 0.87088 0.49055 0.0
C1161 C 0.96915 0.85441 0.51327 0.0
C1162 C 0.96026 0.9221 0.42705 0.0
C1163 C 0.96255 0.92664 0.35438 0.0
C1164 C 0.96144 0.90557 0.44899 0.0
C1165 C 0.96501 0.8932 0.39891 0.0
C1166 C 0.96773 0.8979 0.32698 0.0
C1167 C 0.96647 0.91435 0.30502 0.0
H1168 H 0.22398 0.58965 0.15458 0.0
H1169 H 0.18698 0.5981 0.06357 0.0
H1170 H 0.22507 0.61893 0.19084 0.0
H1171 H 0.18802 0.62699 0.10012 0.0
H1172 H 0.18867 0.67006 0.2649 0.0
H1173 H 0.18892 0.64121 0.22725 0.0
H1174 H 0.22473 0.64878 0.1202 0.0
H1175 H 0.22442 0.67804 0.15754 0.0
C1176 C 0.21605 0.59768 0.14323 0.0
C1177 C 0.20534 0.59157 0.10682 0.0
C1178 C 0.21673 0.61443 0.16306 0.0
C1179 C 0.20664 0.6252 0.14798 0.0
C1180 C 0.19592 0.61897 0.11254 0.0
C1181 C 0.19533 0.60243 0.09172 0.0
C1182 C 0.19657 0.66563 0.23288 0.0
C1183 C 0.20647 0.67633 0.2136 0.0
C1184 C 0.19671 0.64912 0.21142 0.0
C1185 C 0.20686 0.64276 0.17113 0.0
C1186 C 0.21683 0.65338 0.15173 0.0
C1187 C 0.21658 0.67012 0.17221 0.0
H1188 H 0.06648 0.66613 0.00321 0.0
H1189 H 0.07713 0.68268 0.21836 0.0
H1190 H 0.06684 0.63769 0.04468 0.0
H1191 H 0.07693 0.65414 0.26064 0.0
H1192 H 0.09332 0.60212 0.28024 0.0
H1193 H 0.09026 0.63062 0.24402 0.0
H1194 H 0.05756 0.61643 0.11839 0.0
H1195 H 0.06072 0.58764 0.15418 0.0
C1196 C 0.06869 0.66376 0.05982 0.0
C1197 C 0.07185 0.67683 0.10714 0.0
C1198 C 0.06878 0.64738 0.08376 0.0
C1199 C 0.07203 0.64353 0.15587 0.0
C1200 C 0.07459 0.65662 0.20431 0.0
C1201 C 0.07453 0.67307 0.18027 0.0
C1202 C 0.08544 0.60501 0.2449 0.0
C1203 C 0.07734 0.59247 0.2198 0.0
C1204 C 0.08363 0.62145 0.22462 0.0
C1205 C 0.07358 0.62594 0.17885 0.0
C1206 C 0.06547 0.61342 0.15324 0.0
C1207 C 0.06732 0.59686 0.17344 0.0
H1208 H 0.8249 0.43323 0.85822 0.0
H1209 H 0.81721 0.41702 0.07816 0.0
H1210 H 0.82418 0.40465 0.81716 0.0
H1211 H 0.81712 0.38853 0.03767 0.0
H1212 H 0.80949 0.33824 0.93322 0.0
H1213 H 0.80701 0.36707 0.97051 0.0
H1214 H 0.83745 0.38109 0.8265 0.0
H1215 H 0.83975 0.35258 0.78861 0.0
C1216 C 0.82286 0.42369 0.89778 0.0
C1217 C 0.82114 0.42759 0.97176 0.0
C1218 C 0.82263 0.4072 0.87434 0.0
C1219 C 0.82076 0.39417 0.92421 0.0
C1220 C 0.81851 0.39815 0.99747 0.0
C1221 C 0.81868 0.41458 0.0208 0.0
C1222 C 0.81574 0.34745 0.91023 0.0
C1223 C 0.82486 0.34302 0.8581 0.0
C1224 C 0.81428 0.36403 0.93133 0.0
C1225 C 0.82194 0.37653 0.90099 0.0
C1226 C 0.83115 0.37197 0.84973 0.0
C1227 C 0.83255 0.35551 0.82846 0.0
H1228 H 0.96472 0.35398 0.07774 0.0
H1229 H 0.96012 0.33783 0.85501 0.0
H1230 H 0.96581 0.38249 0.03723 0.0
H1231 H 0.96172 0.36642 0.81427 0.0
H1232 H 0.94579 0.4185 0.78366 0.0
H1233 H 0.94796 0.38995 0.82061 0.0
H1234 H 0.97723 0.40377 0.97237 0.0
H1235 H 0.97502 0.43265 0.93548 0.0
C1236 C 0.96416 0.35645 0.01988 0.0
C1237 C 0.96224 0.3435 0.96984 0.0
C1238 C 0.9649 0.37286 0.99662 0.0
C1239 C 0.96373 0.37683 0.92254 0.0
C1240 C 0.96245 0.36383 0.87196 0.0
C1241 C 0.9617 0.34736 0.89528 0.0
C1242 C 0.95275 0.41555 0.82479 0.0
C1243 C 0.96016 0.42803 0.85679 0.0
C1244 C 0.95406 0.39906 0.84558 0.0
C1245 C 0.96286 0.39445 0.89896 0.0
C1246 C 0.97028 0.40689 0.93142 0.0
C1247 C 0.96896 0.4235 0.91055 0.0
H1248 H 0.71467 0.1039 0.00499 0.0
H1249 H 0.70722 0.08743 0.22477 0.0
H1250 H 0.71511 0.13235 0.04651 0.0
H1251 H 0.70819 0.11597 0.26677 0.0
H1252 H 0.69242 0.1683 0.29334 0.0
H1253 H 0.69476 0.13973 0.25635 0.0
H1254 H 0.72579 0.15335 0.11599 0.0
H1255 H 0.72339 0.18219 0.15273 0.0
C1256 C 0.71333 0.10629 0.0625 0.0
C1257 C 0.71084 0.09325 0.1113 0.0
C1258 C 0.7137 0.12267 0.0864 0.0
C1259 C 0.71159 0.12654 0.15991 0.0
C1260 C 0.70966 0.11347 0.20947 0.0
C1261 C 0.70928 0.09702 0.1855 0.0
C1262 C 0.69979 0.16528 0.25465 0.0
C1263 C 0.70763 0.17769 0.22568 0.0
C1264 C 0.70119 0.14879 0.23387 0.0
C1265 C 0.71053 0.14413 0.18362 0.0
C1266 C 0.71841 0.15651 0.15433 0.0
C1267 C 0.71698 0.1731 0.17511 0.0
H1268 H 0.59139 0.10351 0.28607 0.0
H1269 H 0.56012 0.08881 0.14955 0.0
H1270 H 0.58835 0.13203 0.25053 0.0
H1271 H 0.55703 0.11765 0.11413 0.0
H1272 H 0.56726 0.16781 0.00378 0.0
H1273 H 0.56709 0.13924 0.04415 0.0
H1274 H 0.57443 0.15524 0.26442 0.0
H1275 H 0.57512 0.18387 0.22355 0.0
C1276 C 0.5838 0.10634 0.24859 0.0
C1277 C 0.57607 0.09372 0.22044 0.0
C1278 C 0.58199 0.1228 0.22866 0.0
C1279 C 0.57235 0.12725 0.18007 0.0
C1280 C 0.56461 0.11466 0.15133 0.0
C1281 C 0.56644 0.09808 0.17131 0.0
C1282 C 0.56872 0.1653 0.06109 0.0
C1283 C 0.57129 0.17825 0.11017 0.0
C1284 C 0.56851 0.14886 0.08432 0.0
C1285 C 0.57089 0.14486 0.1574 0.0
C1286 C 0.57278 0.15784 0.20739 0.0
C1287 C 0.573 0.17434 0.1841 0.0
H1288 H 0.32657 0.83712 0.96261 0.0
H1289 H 0.31236 0.85146 0.7516 0.0
H1290 H 0.32559 0.86585 0.00235 0.0
H1291 H 0.3111 0.88006 0.7916 0.0
H1292 H 0.32731 0.931 0.85558 0.0
H1293 H 0.32512 0.90232 0.81687 0.0
H1294 H 0.31264 0.88888 0.03296 0.0
H1295 H 0.31511 0.91742 0.07185 0.0
C1296 C 0.32291 0.84631 0.92534 0.0
C1297 C 0.31955 0.84196 0.8539 0.0
C1298 C 0.32237 0.86284 0.94802 0.0
C1299 C 0.31837 0.87539 0.89995 0.0
C1300 C 0.31449 0.87086 0.82962 0.0
C1301 C 0.31513 0.8544 0.80687 0.0
C1302 C 0.32386 0.922 0.89439 0.0
C1303 C 0.32139 0.92655 0.96684 0.0
C1304 C 0.3226 0.9055 0.87227 0.0
C1305 C 0.31879 0.89317 0.92194 0.0
C1306 C 0.31586 0.8979 0.99357 0.0
C1307 C 0.3172 0.91433 0.01573 0.0
H1308 H 0.47598 0.84221 0.91227 0.0
H1309 H 0.43942 0.85015 0.01022 0.0
H1310 H 0.47658 0.87149 0.87522 0.0
H1311 H 0.43995 0.87901 0.97273 0.0
H1312 H 0.43932 0.92229 0.80949 0.0
H1313 H 0.44009 0.89335 0.84556 0.0
H1314 H 0.47633 0.90135 0.94665 0.0
H1315 H 0.4755 0.9307 0.91093 0.0
C1316 C 0.46803 0.85012 0.92487 0.0
C1317 C 0.45761 0.84389 0.96358 0.0
C1318 C 0.46844 0.86687 0.90457 0.0
C1319 C 0.45832 0.8775 0.92143 0.0
C1320 C 0.44786 0.87111 0.9589 0.0
C1321 C 0.44756 0.85458 0.98023 0.0
C1322 C 0.44744 0.91794 0.8398 0.0
C1323 C 0.45729 0.92881 0.85796 0.0
C1324 C 0.44787 0.90137 0.86034 0.0
C1325 C 0.45829 0.8951 0.89855 0.0
C1326 C 0.46823 0.90587 0.91669 0.0
C1327 C 0.46769 0.92266 0.89715 0.0
H1328 H 0.69363 0.66862 0.78938 0.0
H1329 H 0.72536 0.68264 0.65488 0.0
H1330 H 0.6962 0.64006 0.75268 0.0
H1331 H 0.72807 0.65379 0.61875 0.0
H1332 H 0.71829 0.60422 0.50632 0.0
H1333 H 0.71828 0.63265 0.54775 0.0
H1334 H 0.70927 0.61629 0.76554 0.0
H1335 H 0.70867 0.58777 0.72335 0.0
C1336 C 0.70122 0.66561 0.75211 0.0
C1337 C 0.70921 0.67804 0.72475 0.0
C1338 C 0.70276 0.64913 0.73153 0.0
C1339 C 0.71242 0.64449 0.68323 0.0
C1340 C 0.72044 0.65691 0.65552 0.0
C1341 C 0.71885 0.6735 0.67595 0.0
C1342 C 0.71637 0.6066 0.5633 0.0
C1343 C 0.7134 0.59355 0.61119 0.0
C1344 C 0.71649 0.62299 0.58721 0.0
C1345 C 0.71367 0.62687 0.65991 0.0
C1346 C 0.71127 0.6138 0.70878 0.0
C1347 C 0.71111 0.59735 0.68475 0.0
H1348 H 0.56057 0.58918 0.63934 0.0
H1349 H 0.58952 0.60354 0.79251 0.0
H1350 H 0.55847 0.61801 0.60124 0.0
H1351 H 0.58748 0.63203 0.75433 0.0
H1352 H 0.57513 0.68401 0.71958 0.0
H1353 H 0.57361 0.65542 0.76004 0.0
H1354 H 0.56995 0.63936 0.53682 0.0
H1355 H 0.57093 0.6679 0.49648 0.0
C1356 C 0.5666 0.59837 0.66425 0.0
C1357 C 0.57526 0.59393 0.71887 0.0
C1358 C 0.56534 0.61494 0.64269 0.0
C1359 C 0.57271 0.62742 0.6753 0.0
C1360 C 0.58142 0.62289 0.72928 0.0
C1361 C 0.58265 0.60644 0.75078 0.0
C1362 C 0.57366 0.67449 0.67914 0.0
C1363 C 0.57319 0.67837 0.60457 0.0
C1364 C 0.57296 0.65801 0.70232 0.0
C1365 C 0.57182 0.64502 0.65162 0.0
C1366 C 0.57075 0.64899 0.5775 0.0
C1367 C 0.57143 0.66542 0.55435 0.0
H1368 H 0.30865 0.33703 0.42597 0.0
H1369 H 0.34015 0.35162 0.29089 0.0
H1370 H 0.30552 0.36589 0.46111 0.0
H1371 H 0.33715 0.38015 0.32647 0.0
H1372 H 0.3241 0.43208 0.35258 0.0
H1373 H 0.32362 0.40344 0.31194 0.0
H1374 H 0.31504 0.38757 0.53098 0.0
H1375 H 0.31492 0.41613 0.57095 0.0
C1376 C 0.31502 0.34629 0.40455 0.0
C1377 C 0.3247 0.34191 0.35579 0.0
C1378 C 0.31318 0.36289 0.42439 0.0
C1379 C 0.321 0.37545 0.39604 0.0
C1380 C 0.33073 0.37096 0.34801 0.0
C1381 C 0.33252 0.35449 0.32807 0.0
C1382 C 0.32175 0.42258 0.39178 0.0
C1383 C 0.31959 0.42654 0.46529 0.0
C1384 C 0.32167 0.40607 0.36864 0.0
C1385 C 0.31948 0.3931 0.41837 0.0
C1386 C 0.31669 0.39715 0.49094 0.0
C1387 C 0.31674 0.41361 0.51398 0.0
H1388 H 0.46114 0.33708 0.35566 0.0
H1389 H 0.46136 0.35349 0.57973 0.0
H1390 H 0.46343 0.36557 0.31567 0.0
H1391 H 0.46304 0.38195 0.53947 0.0
H1392 H 0.47477 0.43191 0.44257 0.0
H1393 H 0.47557 0.40314 0.48356 0.0
H1394 H 0.45016 0.38925 0.31018 0.0
H1395 H 0.44952 0.41765 0.26896 0.0
C1396 C 0.46186 0.34664 0.39661 0.0
C1397 C 0.46104 0.34282 0.47117 0.0
C1398 C 0.463 0.36309 0.37354 0.0
C1399 C 0.46326 0.37616 0.42428 0.0
C1400 C 0.46295 0.37228 0.49874 0.0
C1401 C 0.46187 0.35588 0.52178 0.0
C1402 C 0.46925 0.42274 0.41379 0.0
C1403 C 0.46206 0.42716 0.35249 0.0
C1404 C 0.46975 0.40621 0.43706 0.0
C1405 C 0.46305 0.39376 0.39966 0.0
C1406 C 0.45573 0.39833 0.33925 0.0
C1407 C 0.45528 0.41472 0.31595 0.0
H1408 H 0.28201 0.03291 0.10001 0.0
H1409 H 0.30018 0.99441 0.22275 0.0
H1410 H 0.26402 0.03202 0.18091 0.0
H1411 H 0.2826 0.99428 0.30876 0.0
H1412 H 0.2457 0.98213 0.40798 0.0
H1413 H 0.26248 0.98418 0.31758 0.0
H1414 H 0.25268 0.03548 0.2825 0.0
H1415 H 0.23545 0.03274 0.36818 0.0
C1416 C 0.28252 0.02502 0.14764 0.0
C1417 C 0.29259 0.01386 0.15528 0.0
C1418 C 0.27202 0.02427 0.19384 0.0
C1419 C 0.27143 0.01261 0.25071 0.0
C1420 C 0.28231 1.00291 0.26383 0.0
C1421 C 0.29269 0.0034 0.21616 0.0
C1422 C 0.24663 0.99347 0.37702 0.0
C1423 C 0.23912 0.0072 0.39449 0.0
C1424 C 0.25662 0.99492 0.32717 0.0
C1425 C 0.25951 0.01026 0.29448 0.0
C1426 C 0.25101 0.02343 0.30601 0.0
C1427 C 0.24085 0.0218 0.35447 0.0
H1428 H 0.04611 0.2326 0.39236 0.0
H1429 H 0.0397 0.28474 0.41879 0.0
H1430 H 0.02867 0.2309 0.30742 0.0
H1431 H 0.02268 0.28354 0.32943 0.0
H1432 H 0.98455 0.27682 0.23654 0.0
H1433 H 1.00188 0.27555 0.32333 0.0
H1434 H 0.018 0.23481 0.20243 0.0
H1435 H 1.00012 0.23542 0.12024 0.0
C1436 C 0.04147 0.24396 0.37605 0.0
C1437 C 0.04444 0.25885 0.41137 0.0
C1438 C 0.03124 0.24296 0.32795 0.0
C1439 C 0.02379 0.25697 0.31268 0.0
C1440 C 0.02776 0.27228 0.34176 0.0
C1441 C 0.03787 0.27316 0.39108 0.0
C1442 C 0.99134 0.26686 0.2318 0.0
C1443 C 0.99077 0.25597 0.1724 0.0
C1444 C 1.00163 0.26654 0.27986 0.0
C1445 C 1.01181 0.25555 0.26875 0.0
C1446 C 1.01051 0.24354 0.21361 0.0
C1447 C 1.00006 0.24364 0.16683 0.0
H1448 H 0.29867 0.28517 0.12344 0.0
H1449 H 0.29035 0.23403 0.16505 0.0
H1450 H 0.28136 0.28671 0.03833 0.0
H1451 H 0.2735 0.23488 0.07472 0.0
H1452 H 0.23561 0.24251 0.97724 0.0
H1453 H 0.25312 0.2433 0.06313 0.0
H1454 H 0.27008 0.28283 0.93804 0.0
H1455 H 0.25203 0.28286 0.85779 0.0
C1456 C 0.29366 0.27388 0.11027 0.0
C1457 C 0.29599 0.25945 0.15049 0.0
C1458 C 0.28347 0.2748 0.06196 0.0
C1459 C 0.27548 0.26109 0.05068 0.0
C1460 C 0.27893 0.246 0.08395 0.0
C1461 C 0.28897 0.24525 0.1338 0.0
C1462 C 0.24267 0.25211 0.97147 0.0
C1463 C 0.24225 0.2629 0.91174 0.0
C1464 C 0.25306 0.25214 0.01898 0.0
C1465 C 0.2635 0.26266 0.00668 0.0
C1466 C 0.26242 0.27449 0.9506 0.0
C1467 C 0.25187 0.27474 0.90472 0.0
H1468 H 0.03951 0.98425 0.91405 0.0
H1469 H 0.04774 0.03561 0.95094 0.0
H1470 H 0.02265 0.98549 0.00456 0.0
H1471 H 0.03055 0.03741 0.03706 0.0
H1472 H 1.00189 0.03349 0.22203 0.0
H1473 H 0.01982 0.03327 0.14053 0.0
H1474 H 1.00212 0.99453 0.01434 0.0
H1475 H 0.98459 0.99407 0.10079 0.0
C1476 C 0.03815 0.99559 0.94445 0.0
C1477 C 0.04517 0.00972 0.92651 0.0
C1478 C 0.02812 0.99654 0.99442 0.0
C1479 C 0.02472 0.01175 0.02677 0.0
C1480 C 0.03267 0.02542 0.01413 0.0
C1481 C 0.0428 0.02434 0.96538 0.0
C1482 C 1.00154 0.02551 0.17464 0.0
C1483 C 0.99172 0.01396 0.1674 0.0
C1484 C 1.012 0.02515 0.12808 0.0
C1485 C 1.01282 0.01347 0.07135 0.0
C1486 C 1.00222 0.00325 0.05899 0.0
C1487 C 0.99187 0.00337 0.10694 0.0
H1488 H 0.79885 0.98557 0.70567 0.0
H1489 H 0.78915 0.03613 0.66029 0.0
H1490 H 0.78166 0.98366 0.79187 0.0
H1491 H 0.77239 0.03492 0.75128 0.0
H1492 H 0.73465 0.02577 0.84981 0.0
H1493 H 0.75218 0.02539 0.76337 0.0
H1494 H 0.77052 0.98778 0.89318 0.0
H1495 H 0.75258 0.98739 0.97443 0.0
C1496 C 0.79357 0.9967 0.71819 0.0
C1497 C 0.79547 0.01104 0.67664 0.0
C1498 C 0.78345 0.99555 0.76706 0.0
C1499 C 0.77511 0.00894 0.77746 0.0
C1500 C 0.77813 0.02402 0.74281 0.0
C1501 C 0.78811 0.02499 0.69255 0.0
C1502 C 0.74208 0.01671 0.8568 0.0
C1503 C 0.74211 0.00639 0.91817 0.0
C1504 C 0.75244 0.0169 0.80883 0.0
C1505 C 0.76322 0.00705 0.82213 0.0
C1506 C 0.76258 0.99561 0.8799 0.0
C1507 C 0.75211 0.99515 0.92638 0.0
H1508 H 0.98486 0.78326 0.70309 0.0
H1509 H 0.99566 0.73288 0.66264 0.0
H1510 H 1.00213 0.78634 0.78799 0.0
H1511 H 1.0125 0.73525 0.75237 0.0
H1512 H 0.05012 0.74614 0.84668 0.0
H1513 H 0.03251 0.74565 0.76107 0.0
H1514 H 1.01364 0.78323 0.88867 0.0
H1515 H 0.03165 0.78448 0.96907 0.0
C1516 C 0.9904 0.77242 0.71653 0.0
C1517 C 0.98881 0.7578 0.67644 0.0
C1518 C 1.00058 0.77425 0.76455 0.0
C1519 C 1.00925 0.76126 0.77569 0.0
C1520 C 1.00651 0.74587 0.74307 0.0
C1521 C 0.99648 0.74422 0.69363 0.0
C1522 C 0.04255 0.75503 0.85325 0.0
C1523 C 0.04237 0.76551 0.91404 0.0
C1524 C 0.03215 0.75432 0.80584 0.0
C1525 C 0.02119 0.76385 0.81906 0.0
C1526 C 0.0217 0.77559 0.87565 0.0
C1527 C 0.03222 0.77656 0.92157 0.0
H1528 H 0.7997 0.77675 0.10308 0.0
H1529 H 0.78213 0.73771 0.2256 0.0
H1530 H 0.78224 0.77623 0.01629 0.0
H1531 H 0.76427 0.73791 0.14388 0.0
H1532 H 0.73647 0.73516 0.95457 0.0
H1533 H 0.75358 0.73355 0.04096 0.0
H1534 H 0.76181 0.78526 0.00419 0.0
H1535 H 0.74503 0.78625 0.91325 0.0
C1536 C 0.79237 0.76752 0.1095 0.0
C1537 C 0.79244 0.75703 0.17029 0.0
C1538 C 0.78206 0.76761 0.06132 0.0
C1539 C 0.77141 0.75747 0.07383 0.0
C1540 C 0.77212 0.74594 0.13118 0.0
C1541 C 0.78255 0.74559 0.17791 0.0
C1542 C 0.74148 0.74643 0.96803 0.0
C1543 C 0.7392 0.7609 0.92793 0.0
C1544 C 0.75156 0.74547 0.01701 0.0
C1545 C 0.75957 0.75912 0.0287 0.0
C1546 C 0.75629 0.77421 0.9949 0.0
C1547 C 0.74631 0.77503 0.94465 0.0
H1548 H 0.29636 0.48381 0.68474 0.0
H1549 H 0.28891 0.53569 0.65781 0.0
H1550 H 0.279 0.48159 0.77029 0.0
H1551 H 0.27198 0.53399 0.74763 0.0
H1552 H 0.23403 0.52617 0.84088 0.0
H1553 H 0.25134 0.5253 0.75376 0.0
H1554 H 0.26827 0.48531 0.87569 0.0
H1555 H 0.2504 0.4855 0.95832 0.0
C1556 C 0.29152 0.49501 0.70107 0.0
C1557 C 0.29417 0.50998 0.66544 0.0
C1558 C 0.28133 0.49371 0.74948 0.0
C1559 C 0.27361 0.50748 0.76469 0.0
C1560 C 0.27726 0.5229 0.73533 0.0
C1561 C 0.28732 0.52408 0.68574 0.0
C1562 C 0.241 0.51644 0.84584 0.0
C1563 C 0.24065 0.50564 0.9056 0.0
C1564 C 0.25128 0.51635 0.79756 0.0
C1565 C 0.26167 0.50572 0.80884 0.0
C1566 C 0.26062 0.49378 0.86442 0.0
C1567 C 0.25018 0.49364 0.91145 0.0
H1568 H 0.2347 0.74329 0.47152 0.0
H1569 H 0.25139 0.78368 0.35359 0.0
H1570 H 0.25233 0.74347 0.55646 0.0
H1571 H 0.26956 0.78308 0.43317 0.0
H1572 H 0.29846 0.78378 0.6184 0.0
H1573 H 0.28108 0.78625 0.53394 0.0
H1574 H 0.27266 0.73436 0.56365 0.0
H1575 H 0.28959 0.73253 0.65308 0.0
C1576 C 0.24183 0.75279 0.46599 0.0
C1577 C 0.24148 0.76372 0.40672 0.0
C1578 C 0.2523 0.75247 0.5129 0.0
C1579 C 0.26285 0.76278 0.50055 0.0
C1580 C 0.26181 0.77484 0.44547 0.0
C1581 C 0.2512 0.77544 0.40011 0.0
C1582 C 0.29333 0.77268 0.60375 0.0
C1583 C 0.2955 0.75793 0.64207 0.0
C1584 C 0.28308 0.77414 0.55597 0.0
C1585 C 0.27491 0.76069 0.54334 0.0
C1586 C 0.27824 0.74529 0.57418 0.0
C1587 C 0.28833 0.74399 0.62343 0.0
H1588 H 0.05088 0.52673 0.48446 0.0
H1589 H 0.03509 0.48577 0.36637 0.0
H1590 H 0.03359 0.52535 0.5717 0.0
H1591 H 1.01727 0.48502 0.44926 0.0
H1592 H 0.98953 0.48219 0.64135 0.0
H1593 H 1.00685 0.48073 0.55531 0.0
H1594 H 1.01274 0.53334 0.57906 0.0
H1595 H 0.99581 0.5343 0.66928 0.0
C1596 C 0.04405 0.51685 0.47936 0.0
C1597 C 0.04457 0.50609 0.41949 0.0
C1598 C 0.03378 0.51645 0.52774 0.0
C1599 C 0.02358 0.50552 0.51651 0.0
C1600 C 0.02479 0.49368 0.46057 0.0
C1601 C 0.0352 0.49387 0.41338 0.0
C1602 C 0.99411 0.49359 0.62523 0.0
C1603 C 0.99113 0.50841 0.66114 0.0
C1604 C 1.00427 0.49274 0.57648 0.0
C1605 C 1.01166 0.5068 0.56126 0.0
C1606 C 1.00771 0.52204 0.59121 0.0
C1607 C 0.99765 0.52279 0.64109 0.0
H1608 H 0.75321 0.48566 0.47411 0.0
H1609 H 0.73482 0.52401 0.35158 0.0
H1610 H 0.77119 0.48675 0.39334 0.0
H1611 H 0.7524 0.52434 0.26556 0.0
H1612 H 0.78927 0.53676 0.16595 0.0
H1613 H 0.77244 0.53459 0.25599 0.0
H1614 H 0.78264 0.48347 0.29253 0.0
H1615 H 0.79991 0.48635 0.20732 0.0
C1616 C 0.75265 0.49355 0.42652 0.0
C1617 C 0.74252 0.50464 0.41902 0.0
C1618 C 0.76315 0.49443 0.38036 0.0
C1619 C 0.76368 0.50611 0.32355 0.0
C1620 C 0.75274 0.5157 0.31045 0.0
C1621 C 0.74236 0.51509 0.35811 0.0
C1622 C 0.78841 0.52545 0.19719 0.0
C1623 C 0.79605 0.51181 0.18023 0.0
C1624 C 0.77839 0.52392 0.24683 0.0
C1625 C 0.7756 0.50858 0.27985 0.0
C1626 C 0.78423 0.49552 0.26882 0.0
C1627 C 0.7944 0.49724 0.22062 0.0
H1628 H 0.79798 0.28642 0.62765 0.0
H1629 H 0.79131 0.23461 0.66259 0.0
H1630 H 0.78069 0.28756 0.54234 0.0
H1631 H 0.77457 0.23508 0.57165 0.0
H1632 H 0.7366 0.241 0.47466 0.0
H1633 H 0.75404 0.24216 0.56021 0.0
H1634 H 0.76929 0.28402 0.44261 0.0
H1635 H 0.75109 0.28372 0.36327 0.0
C1636 C 0.79335 0.27495 0.61291 0.0
C1637 C 0.79611 0.26041 0.65145 0.0
C1638 C 0.78317 0.27561 0.56444 0.0
C1639 C 0.77565 0.26155 0.55118 0.0
C1640 C 0.77959 0.24645 0.58254 0.0
C1641 C 0.78959 0.24594 0.63274 0.0
C1642 C 0.74318 0.2512 0.47082 0.0
C1643 C 0.74216 0.26264 0.41369 0.0
C1644 C 0.7536 0.25145 0.51795 0.0
C1645 C 0.7636 0.26277 0.50752 0.0
C1646 C 0.76197 0.27506 0.45381 0.0
C1647 C 0.75133 0.27511 0.4085 0.0
H1648 H 0.54004 0.28687 0.91215 0.0
H1649 H 0.54884 0.23573 0.8738 0.0
H1650 H 0.52319 0.28545 0.82207 0.0
H1651 H 0.53154 0.23366 0.78862 0.0
H1652 H 0.50208 0.23688 0.60766 0.0
H1653 H 0.5202 0.23728 0.68757 0.0
H1654 H 0.50284 0.27643 0.81311 0.0
H1655 H 0.48524 0.27683 0.72785 0.0
C1656 C 0.53878 0.27553 0.8816 0.0
C1657 C 0.54592 0.26149 0.89929 0.0
C1658 C 0.52874 0.27446 0.83191 0.0
C1659 C 0.52542 0.25921 0.79971 0.0
C1660 C 0.53355 0.24567 0.81163 0.0
C1661 C 0.54374 0.2469 0.85987 0.0
C1662 C 0.50186 0.24499 0.65465 0.0
C1663 C 0.49209 0.25662 0.66199 0.0
C1664 C 0.51244 0.24546 0.70027 0.0
C1665 C 0.51342 0.25731 0.75625 0.0
C1666 C 0.50285 0.26758 0.76895 0.0
C1667 C 0.49241 0.26739 0.72182 0.0
H1668 H 0.55053 0.02742 0.48249 0.0
H1669 H 0.53486 0.9862 0.36567 0.0
H1670 H 0.53326 0.02606 0.56989 0.0
H1671 H 0.51704 0.9855 0.44841 0.0
H1672 H 0.48908 0.98286 0.63889 0.0
H1673 H 0.50645 0.98138 0.55336 0.0
H1674 H 0.51249 0.03396 0.57805 0.0
H1675 H 0.49553 0.03491 0.66809 0.0
C1676 C 0.54373 0.01748 0.47772 0.0
C1677 C 0.54427 0.00665 0.41811 0.0
C1678 C 0.53347 0.0171 0.52616 0.0
C1679 C 0.52328 0.00613 0.51519 0.0
C1680 C 0.52453 0.99421 0.45959 0.0
C1681 C 0.53495 0.99436 0.41246 0.0
C1682 C 0.49371 0.99426 0.6231 0.0
C1683 C 0.49077 0.00905 0.65931 0.0
C1684 C 0.50391 0.99339 0.57461 0.0
C1685 C 0.51136 0.00743 0.55979 0.0
C1686 C 0.50742 0.02267 0.58993 0.0
C1687 C 0.49735 0.02342 0.63967 0.0
H1688 H 0.48611 0.78624 0.20218 0.0
H1689 H 0.49477 0.73515 0.16161 0.0
H1690 H 0.50342 0.78806 0.28716 0.0
H1691 H 0.5116 0.73626 0.25191 0.0
H1692 H 0.54943 0.74428 0.34876 0.0
H1693 H 0.53191 0.74484 0.263 0.0
H1694 H 0.51485 0.78449 0.387 0.0
H1695 H 0.53293 0.78476 0.46698 0.0
C1696 C 0.49119 0.77501 0.21561 0.0
C1697 C 0.48897 0.76052 0.1756 0.0
C1698 C 0.50139 0.77609 0.26382 0.0
C1699 C 0.50947 0.76249 0.27528 0.0
C1700 C 0.5061 0.74732 0.24245 0.0
C1701 C 0.49606 0.74641 0.19264 0.0
C1702 C 0.54235 0.75386 0.35426 0.0
C1703 C 0.54275 0.76475 0.41365 0.0
C1704 C 0.53195 0.75376 0.30686 0.0
C1705 C 0.52147 0.76423 0.31898 0.0
C1706 C 0.52253 0.77616 0.3746 0.0
C1707 C 0.5331 0.77656 0.42032 0.0
H1708 H 0.49582 0.53899 0.15839 0.0
H1709 H 0.486 0.48803 0.12434 0.0
H1710 H 0.51269 0.53661 0.06881 0.0
H1711 H 0.50337 0.48495 0.03992 0.0
H1712 H 0.5332 0.48646 0.85971 0.0
H1713 H 0.5151 0.48753 0.93979 0.0
H1714 H 0.53282 0.52708 0.06101 0.0
H1715 H 0.55036 0.52682 0.97534 0.0
C1716 C 0.49688 0.52747 0.12889 0.0
C1717 C 0.48946 0.51377 0.14774 0.0
C1718 C 0.50694 0.52584 0.07956 0.0
C1719 C 0.51001 0.51033 0.04896 0.0
C1720 C 0.50159 0.49713 0.06179 0.0
C1721 C 0.49134 0.49895 0.10953 0.0
C1722 C 0.53351 0.4948 0.90588 0.0
C1723 C 0.54334 0.50639 0.91156 0.0
C1724 C 0.52293 0.49567 0.95155 0.0
C1725 C 0.52204 0.50787 0.00612 0.0
C1726 C 0.53272 0.518 0.01777 0.0
C1727 C 0.54314 0.51742 0.97048 0.0
H1728 H 0.28194 0.97664 0.92096 0.0
H1729 H 0.30053 0.0231 0.88086 0.0
H1730 H 0.26669 0.98281 0.82555 0.0
H1731 H 0.28475 0.03032 0.7925 0.0
H1732 H 0.2588 0.03502 0.59937 0.0
H1733 H 0.275 0.02918 0.68714 0.0
H1734 H 0.249 0.99757 0.80495 0.0
H1735 H 0.23343 1.00172 0.70951 0.0
C1736 C 0.28295 0.98796 0.88994 0.0
C1737 C 0.29248 0.99927 0.90708 0.0
C1738 C 0.27397 0.99182 0.83694 0.0
C1739 C 0.27407 0.00739 0.80243 0.0
C1740 C 0.28423 0.01815 0.81657 0.0
C1741 C 0.29345 0.01396 0.86725 0.0
C1742 C 0.25645 0.0272 0.64533 0.0
C1743 C 0.24482 0.01896 0.64814 0.0
C1744 C 0.26581 0.02376 0.69612 0.0
C1745 C 0.26358 0.01249 0.75303 0.0
C1746 C 0.25134 0.00577 0.76043 0.0
C1747 C 0.24214 0.00869 0.70749 0.0
H1748 H 0.03241 0.23032 0.66739 0.0
H1749 H 0.04838 0.27914 0.68311 0.0
H1750 H 1.01723 0.23719 0.76241 0.0
H1751 H 0.03261 0.28677 0.77222 0.0
H1752 H 1.00746 0.2917 0.97246 0.0
H1753 H 0.02368 0.28617 0.88293 0.0
H1754 H 0.99885 0.25114 0.77672 0.0
H1755 H 0.98353 0.25508 0.87306 0.0
C1756 C 0.03282 0.24239 0.6928 0.0
C1757 C 0.04163 0.2541 0.66942 0.0
C1758 C 0.02391 0.24657 0.74568 0.0
C1759 C 0.02331 0.26278 0.77368 0.0
C1760 C 0.03271 0.27415 0.75289 0.0
C1761 C 0.04187 0.26975 0.70201 0.0
C1762 C 1.00536 0.28323 0.92841 0.0
C1763 C 0.99408 0.27414 0.92857 0.0
C1764 C 1.01471 0.27996 0.87694 0.0
C1765 C 1.01281 0.26785 0.82302 0.0
C1766 C 1.00092 0.2601 0.81881 0.0
C1767 C 0.99179 0.26291 0.87212 0.0
H1768 H 0.30146 0.2514 0.45958 0.0
H1769 H 0.27685 0.28732 0.36052 0.0
H1770 H 0.28596 0.24656 0.55467 0.0
H1771 H 0.26059 0.28086 0.44763 0.0
H1772 H 0.23575 0.27408 0.644 0.0
H1773 H 0.25142 0.28141 0.55519 0.0
H1774 H 0.2679 0.23256 0.57482 0.0
H1775 H 0.25273 0.22612 0.67067 0.0
C1776 C 0.29295 0.25879 0.46011 0.0
C1777 C 0.29053 0.27012 0.40422 0.0
C1778 C 0.28376 0.25549 0.51271 0.0
C1779 C 0.27172 0.26288 0.5083 0.0
C1780 C 0.26967 0.27495 0.4544 0.0
C1781 C 0.27905 0.27874 0.40403 0.0
C1782 C 0.24242 0.26471 0.62731 0.0
C1783 C 0.24293 0.24946 0.66318 0.0
C1784 C 0.25158 0.26894 0.57632 0.0
C1785 C 0.26127 0.25777 0.55807 0.0
C1786 C 0.26097 0.24183 0.58924 0.0
C1787 C 0.25205 0.23786 0.64255 0.0
H1788 H 0.0504 1.00138 0.61784 0.0
H1789 H 0.02635 0.03797 0.71644 0.0
H1790 H 0.03485 0.99679 0.52315 0.0
H1791 H 1.00992 0.03166 0.63048 0.0
H1792 H 0.98438 0.02445 0.43744 0.0
H1793 H 1.00015 0.03175 0.52564 0.0
H1794 H 1.01687 0.98309 0.50298 0.0
H1795 H 1.00173 0.97682 0.4072 0.0
C1796 C 0.04203 0.00901 0.61703 0.0
C1797 C 0.03979 0.02048 0.67257 0.0
C1798 C 0.03276 0.00581 0.56488 0.0
C1799 C 0.02078 0.01337 0.56974 0.0
C1800 C 0.01893 0.0256 0.62325 0.0
C1801 C 0.02841 0.02932 0.67295 0.0
C1802 C 0.99116 0.01512 0.45331 0.0
C1803 C 0.99181 1.00004 0.4162 0.0
C1804 C 1.00037 0.01933 0.50398 0.0
C1805 C 1.01019 0.00824 0.52096 0.0
C1806 C 1.00991 0.99235 0.4893 0.0
C1807 C 1.00098 0.98845 0.4361 0.0
H1808 H 0.75269 0.04329 0.15376 0.0
H1809 H 0.73392 0.99685 0.19137 0.0
H1810 H 0.76784 0.03681 0.24928 0.0
H1811 H 0.74961 0.98932 0.27959 0.0
H1812 H 0.77573 0.98332 0.47072 0.0
H1813 H 0.75944 0.98987 0.38445 0.0
H1814 H 0.78545 0.02201 0.2695 0.0
H1815 H 0.80107 0.01722 0.36379 0.0
C1816 C 0.75163 0.0319 0.18421 0.0
C1817 C 0.74207 0.02069 0.16631 0.0
C1818 C 0.76055 0.02787 0.23729 0.0
C1819 C 0.76038 0.0122 0.27105 0.0
C1820 C 0.75018 1.00155 0.25618 0.0
C1821 C 0.74102 0.00591 0.20549 0.0
C1822 C 0.77805 0.99146 0.42577 0.0
C1823 C 0.78972 0.99961 0.4235 0.0
C1824 C 0.76865 0.99529 0.3758 0.0
C1825 C 0.77086 0.00687 0.32005 0.0
C1826 C 0.7831 0.01358 0.31314 0.0
C1827 C 0.79235 0.01028 0.36539 0.0
H1828 H 0.03168 0.72783 0.14674 0.0
H1829 H 0.05039 0.77405 0.19001 0.0
H1830 H 1.01656 0.73359 0.2434 0.0
H1831 H 0.0347 0.78094 0.27949 0.0
H1832 H 1.00862 0.78546 0.47189 0.0
H1833 H 0.02488 0.77966 0.38427 0.0
H1834 H 0.99893 0.74814 0.26581 0.0
H1835 H 0.98335 0.75213 0.36137 0.0
C1836 C 0.03273 0.73901 0.17866 0.0
C1837 C 0.04225 0.75039 0.16204 0.0
C1838 C 0.02383 0.74264 0.23242 0.0
C1839 C 0.02397 0.75808 0.26814 0.0
C1840 C 0.03414 0.76887 0.25451 0.0
C1841 C 0.04331 0.76488 0.20313 0.0
C1842 C 1.00631 0.77763 0.42591 0.0
C1843 C 0.99468 0.76938 0.42295 0.0
C1844 C 1.01569 0.77423 0.37515 0.0
C1845 C 1.01349 0.76303 0.31797 0.0
C1846 C 1.00127 0.75628 0.31051 0.0
C1847 C 0.99204 0.75913 0.36352 0.0
H1848 H 0.78267 0.79409 0.41097 0.0
H1849 H 0.79992 0.74636 0.43943 0.0
H1850 H 0.76753 0.78769 0.50675 0.0
H1851 H 0.78417 0.73895 0.52747 0.0
H1852 H 0.75781 0.73214 0.71725 0.0
H1853 H 0.77431 0.73871 0.63198 0.0
H1854 H 0.74954 0.77408 0.52685 0.0
H1855 H 0.73395 0.76924 0.62106 0.0
C1856 C 0.7834 0.78241 0.43945 0.0
C1857 C 0.79255 0.77083 0.41901 0.0
C1858 C 0.77447 0.77843 0.49267 0.0
C1859 C 0.77416 0.76248 0.52378 0.0
C1860 C 0.78396 0.7514 0.50628 0.0
C1861 C 0.79317 0.75568 0.45563 0.0
C1862 C 0.7558 0.74097 0.67439 0.0
C1863 C 0.74444 0.74986 0.6745 0.0
C1864 C 0.76533 0.74484 0.62507 0.0
C1865 C 0.76355 0.75726 0.57235 0.0
C1866 C 0.75159 0.7649 0.56796 0.0
C1867 C 0.74228 0.76155 0.61978 0.0
H1868 H 0.23332 0.50438 0.20428 0.0
H1869 H 0.25655 0.54193 0.10591 0.0
H1870 H 0.24877 0.50066 0.29996 0.0
H1871 H 0.27292 0.53667 0.19465 0.0
H1872 H 0.29788 0.52988 0.39371 0.0
H1873 H 0.28202 0.5372 0.30467 0.0
H1874 H 0.26734 0.48725 0.31377 0.0
H1875 H 0.28257 0.4807 0.40879 0.0
C1876 C 0.24144 0.51245 0.20535 0.0
C1877 C 0.2435 0.52388 0.14934 0.0
C1878 C 0.25066 0.50977 0.25824 0.0
C1879 C 0.26242 0.51787 0.25404 0.0
C1880 C 0.26406 0.53017 0.20064 0.0
C1881 C 0.25462 0.53329 0.14964 0.0
C1882 C 0.29151 0.52035 0.37457 0.0
C1883 C 0.29147 0.50469 0.40702 0.0
C1884 C 0.28229 0.52457 0.32375 0.0
C1885 C 0.27304 0.513 0.3029 0.0
C1886 C 0.27388 0.49677 0.33058 0.0
C1887 C 0.28284 0.49278 0.38341 0.0
H1888 H 0.30084 0.75041 0.95427 0.0
H1889 H 0.27591 0.78521 0.85036 0.0
H1890 H 0.28545 0.74622 0.05073 0.0
H1891 H 0.25978 0.77933 0.93893 0.0
H1892 H 0.23495 0.77374 0.1357 0.0
H1893 H 0.25064 0.78063 0.04627 0.0
H1894 H 0.2675 0.73218 0.07329 0.0
H1895 H 0.25233 0.72626 0.16978 0.0
C1896 C 0.29229 0.75772 0.95399 0.0
C1897 C 0.28972 0.76853 0.89641 0.0
C1898 C 0.28316 0.75477 0.00742 0.0
C1899 C 0.27107 0.76199 1.00215 0.0
C1900 C 0.2689 0.77359 0.94643 0.0
C1901 C 0.2782 0.77704 0.8952 0.0
C1902 C 0.24173 0.76435 0.12056 0.0
C1903 C 0.24234 0.74939 0.15865 0.0
C1904 C 0.25089 0.76833 0.06921 0.0
C1905 C 0.26067 0.75715 0.05275 0.0
C1906 C 0.26049 0.74146 0.08624 0.0
C1907 C 0.25157 0.73777 0.13993 0.0
H1908 H 0.98738 0.52892 0.93112 0.0
H1909 H 1.00298 0.47986 0.91838 0.0
H1910 H 1.00327 0.53668 0.01914 0.0
H1911 H 0.01828 0.48688 0.01238 0.0
H1912 H 0.05215 0.5047 0.1214 0.0
H1913 H 0.03677 0.5006 0.02569 0.0
H1914 H 1.01228 0.53645 0.12945 0.0
H1915 H 0.02857 0.54209 0.21828 0.0
C1916 C 0.99383 0.51952 0.95048 0.0
C1917 C 0.99391 0.50375 0.91903 0.0
C1918 C 1.00307 0.52399 1.00075 0.0
C1919 C 1.0124 0.51259 0.02208 0.0
C1920 C 1.01166 0.49628 0.99521 0.0
C1921 C 1.00267 0.49202 0.94295 0.0
C1922 C 0.04396 0.51265 0.12 0.0
C1923 C 0.04179 0.52414 0.17564 0.0
C1924 C 0.03478 0.50976 0.06707 0.0
C1925 C 0.02296 0.5177 0.07084 0.0
C1926 C 0.0212 0.53007 0.12381 0.0
C1927 C 0.03059 0.53341 0.17487 0.0
H1928 H 0.75312 0.54222 0.65279 0.0
H1929 H 0.73455 0.4958 0.69403 0.0
H1930 H 0.76827 0.5363 0.74896 0.0
H1931 H 0.75027 0.48878 0.78316 0.0
H1932 H 0.77635 0.48408 0.97541 0.0
H1933 H 0.76008 0.48994 0.88809 0.0
H1934 H 0.78596 0.52172 0.7702 0.0
H1935 H 0.80157 0.51762 0.86536 0.0
C1936 C 0.7521 0.53096 0.68422 0.0
C1937 C 0.74261 0.51958 0.66718 0.0
C1938 C 0.76102 0.52724 0.73767 0.0
C1939 C 0.76093 0.51172 0.77268 0.0
C1940 C 0.75079 0.50091 0.75869 0.0
C1941 C 0.7416 0.50497 0.70759 0.0
C1942 C 0.77865 0.49198 0.92961 0.0
C1943 C 0.79026 0.50027 0.92672 0.0
C1944 C 0.76926 0.49541 0.87904 0.0
C1945 C 0.77143 0.50671 0.82217 0.0
C1946 C 0.78364 0.5135 0.81471 0.0
C1947 C 0.79288 0.5106 0.8675 0.0
H1948 H 0.73702 0.27605 0.15251 0.0
H1949 H 0.75213 0.22674 0.1664 0.0
H1950 H 0.75282 0.28339 0.0639 0.0
H1951 H 0.76763 0.23353 0.07237 0.0
H1952 H 0.80187 0.25249 0.96247 0.0
H1953 H 0.78631 0.24775 0.05782 0.0
H1954 H 0.76103 0.28217 0.95136 0.0
H1955 H 0.77715 0.28818 0.86233 0.0
C1956 C 0.74328 0.26646 0.13297 0.0
C1957 C 0.74314 0.2507 0.16451 0.0
C1958 C 0.75252 0.27072 0.08252 0.0
C1959 C 0.76174 0.25918 0.06127 0.0
C1960 C 0.76097 0.24295 0.08898 0.0
C1961 C 0.75188 0.23885 0.1412 0.0
C1962 C 0.79333 0.25983 0.96269 0.0
C1963 C 0.79081 0.27097 0.90612 0.0
C1964 C 0.78416 0.25665 0.01567 0.0
C1965 C 0.77217 0.26416 0.01144 0.0
C1966 C 0.77009 0.27618 0.95743 0.0
C1967 C 0.77938 0.2797 0.90616 0.0
H1968 H 0.52647 0.234 0.10831 0.0
H1969 H 0.55115 0.26939 0.21029 0.0
H1970 H 0.51023 0.24011 0.19597 0.0
H1971 H 0.53565 0.27386 0.30587 0.0
H1972 H 0.50237 0.29386 0.42337 0.0
H1973 H 0.51758 0.2878 0.32726 0.0
H1974 H 0.50108 0.23907 0.30342 0.0
H1975 H 0.48537 0.24605 0.39251 0.0
C1976 C 0.52868 0.24238 0.15254 0.0
C1977 C 0.54017 0.25096 0.15343 0.0
C1978 C 0.51932 0.24596 0.20325 0.0
C1979 C 0.52139 0.25778 0.25817 0.0
C1980 C 0.53344 0.26513 0.26316 0.0
C1981 C 0.54263 0.26203 0.21025 0.0
C1982 C 0.50169 0.28225 0.39428 0.0
C1983 C 0.49256 0.27057 0.41385 0.0
C1984 C 0.51064 0.27849 0.34081 0.0
C1985 C 0.51094 0.26269 0.30834 0.0
C1986 C 0.50124 0.25145 0.32556 0.0
C1987 C 0.49206 0.25548 0.37672 0.0
H1988 H 0.50274 0.9801 0.91539 0.0
H1989 H 0.4868 0.02895 0.92976 0.0
H1990 H 0.51798 0.98716 0.00971 0.0
H1991 H 0.5026 0.03675 0.01798 0.0
H1992 H 0.5278 0.04227 0.21708 0.0
H1993 H 0.51156 0.03647 0.12823 0.0
H1994 H 0.53635 1.00109 0.02367 0.0
H1995 H 0.5517 0.00532 0.1195 0.0
C1996 C 0.50234 0.99222 0.94038 0.0
C1997 C 0.4935 0.00387 0.91685 0.0
C1998 C 0.51129 0.9965 0.99283 0.0
C1999 C 0.5119 0.01277 0.02024 0.0
C2000 C 0.50249 0.02409 0.99922 0.0
C2001 C 0.4933 0.01959 0.94882 0.0
C2002 C 0.52989 0.03366 0.1735 0.0
C2003 C 0.54117 0.02456 0.17404 0.0
C2004 C 0.52053 0.03023 0.12241 0.0
C2005 C 0.52241 0.01795 0.06918 0.0
C2006 C 0.53429 0.01018 0.06524 0.0
C2007 C 0.54344 0.01316 0.11822 0.0
H2008 H 0.54924 0.77622 0.68152 0.0
H2009 H 0.53239 0.72816 0.6554 0.0
H2010 H 0.53354 0.78348 0.77061 0.0
H2011 H 0.51721 0.73456 0.75122 0.0
H2012 H 0.4836 0.75319 0.86595 0.0
H2013 H 0.49908 0.74862 0.77048 0.0
H2014 H 0.52443 0.78271 0.87881 0.0
H2015 H 0.50819 0.78888 0.96659 0.0
C2016 C 0.54259 0.76682 0.69839 0.0
C2017 C 0.54211 0.75155 0.66265 0.0
C2018 C 0.53342 0.77102 0.74944 0.0
C2019 C 0.52377 0.7598 0.76775 0.0
C2020 C 0.52411 0.74385 0.73671 0.0
C2021 C 0.53304 0.73991 0.68343 0.0
C2022 C 0.49209 0.76062 0.86561 0.0
C2023 C 0.49452 0.7718 0.92204 0.0
C2024 C 0.50128 0.75746 0.8128 0.0
C2025 C 0.51331 0.76485 0.81753 0.0
C2026 C 0.51536 0.77681 0.8719 0.0
C2027 C 0.50599 0.78044 0.92258 0.0
H2028 H 0.54966 0.49611 0.63853 0.0
H2029 H 0.53176 0.54314 0.67609 0.0
H2030 H 0.53376 0.48904 0.55048 0.0
H2031 H 0.51633 0.537 0.58146 0.0
H2032 H 0.48306 0.51864 0.46374 0.0
H2033 H 0.49844 0.52226 0.56084 0.0
H2034 H 0.52456 0.49088 0.44285 0.0
H2035 H 0.50859 0.48569 0.35267 0.0
C2036 C 0.54271 0.50537 0.62446 0.0
C2037 C 0.54203 0.52027 0.66303 0.0
C2038 C 0.53343 0.50127 0.57408 0.0
C2039 C 0.52345 0.51225 0.55922 0.0
C2040 C 0.52351 0.52788 0.59324 0.0
C2041 C 0.53258 0.5317 0.64579 0.0
C2042 C 0.49175 0.51162 0.46182 0.0
C2043 C 0.49457 0.50165 0.40168 0.0
C2044 C 0.50083 0.51421 0.51585 0.0
C2045 C 0.51304 0.50739 0.50894 0.0
C2046 C 0.51536 0.49635 0.45131 0.0
C2047 C 0.50615 0.4933 0.39921 0.0
H2048 H 0.18776 0.01852 0.22671 0.0
H2049 H 0.22452 0.99565 0.23833 0.0
H2050 H 0.18994 0.02106 0.09474 0.0
H2051 H 0.2268 0.99857 0.1057 0.0
H2052 H 0.2279 0.02545 0.87077 0.0
H2053 H 0.22723 0.02385 0.00488 0.0
H2054 H 0.19169 0.99799 0.99276 0.0
H2055 H 0.19247 0.99921 0.86035 0.0
C2056 C 0.19633 0.01409 0.20111 0.0
C2057 C 0.2059 0.00672 0.2429 0.0
C2058 C 0.19758 0.01556 0.12555 0.0
C2059 C 0.20854 0.01004 0.08998 0.0
C2060 C 0.21828 1.00301 0.13178 0.0
C2061 C 0.21691 1.0012 0.20748 0.0
C2062 C 0.21996 0.01947 0.89702 0.0
C2063 C 0.21023 0.01248 0.85503 0.0
C2064 C 0.21961 0.01846 0.97352 0.0
C2065 C 0.20938 0.01083 0.00913 0.0
C2066 C 0.19965 0.00402 0.96691 0.0
C2067 C 0.20014 0.00468 0.891 0.0
H2068 H 0.06134 0.23512 0.87637 0.0
H2069 H 0.0792 0.2831 0.87317 0.0
H2070 H 0.06083 0.236 0.00944 0.0
H2071 H 0.07911 0.28374 0.00511 0.0
H2072 H 0.06881 0.28703 0.24299 0.0
H2073 H 0.06668 0.28641 0.11084 0.0
H2074 H 0.07451 0.23399 0.11149 0.0
H2075 H 0.07618 0.23455 0.24358 0.0
C2076 C 0.06515 0.24584 0.90399 0.0
C2077 C 0.07034 0.259 0.864 0.0
C2078 C 0.06494 0.24632 0.98036 0.0
C2079 C 0.06998 0.25992 0.01853 0.0
C2080 C 0.07496 0.27317 0.9781 0.0
C2081 C 0.07508 0.27274 0.90206 0.0
C2082 C 0.07007 0.27538 0.21488 0.0
C2083 C 0.07277 0.26087 0.25392 0.0
C2084 C 0.06889 0.27502 0.13893 0.0
C2085 C 0.07048 0.26016 0.09993 0.0
C2086 C 0.07303 0.24563 0.13934 0.0
C2087 C 0.07411 0.24597 0.21527 0.0
H2088 H 0.2216 0.23283 0.45382 0.0
H2089 H 0.20719 0.28273 0.45915 0.0
H2090 H 0.22195 0.23384 0.32069 0.0
H2091 H 0.20714 0.28357 0.3272 0.0
H2092 H 0.21745 0.28593 0.08852 0.0
H2093 H 0.2196 0.28489 0.22067 0.0
H2094 H 0.20801 0.23369 0.21903 0.0
H2095 H 0.20628 0.23463 0.08697 0.0
C2096 C 0.21852 0.24401 0.42669 0.0
C2097 C 0.21433 0.25766 0.46737 0.0
C2098 C 0.21864 0.24457 0.35026 0.0
C2099 C 0.21453 0.25878 0.31263 0.0
C2100 C 0.21056 0.2725 0.35373 0.0
C2101 C 0.21051 0.27197 0.42982 0.0
C2102 C 0.21536 0.27446 0.11639 0.0
C2103 C 0.2116 0.26041 0.07701 0.0
C2104 C 0.21655 0.27385 0.19237 0.0
C2105 C 0.21393 0.25921 0.23114 0.0
C2106 C 0.21029 0.24512 0.1914 0.0
C2107 C 0.20918 0.24571 0.11546 0.0
H2108 H 0.06792 0.98686 0.4589 0.0
H2109 H 0.07184 0.03989 0.45122 0.0
H2110 H 0.06775 0.98575 0.32666 0.0
H2111 H 0.07238 0.03883 0.3185 0.0
H2112 H 0.06374 0.03383 0.0783 0.0
H2113 H 0.0617 0.03478 0.21004 0.0
H2114 H 0.08067 0.98758 0.22557 0.0
H2115 H 0.08199 0.98628 0.09319 0.0
C2116 C 0.06879 0.99831 0.42874 0.0
C2117 C 0.06994 0.01346 0.46552 0.0
C2118 C 0.06881 0.99768 0.35264 0.0
C2119 C 0.07023 0.01216 0.31094 0.0
C2120 C 0.07111 0.02739 0.3481 0.0
C2121 C 0.07085 0.02804 0.42442 0.0
C2122 C 0.06745 0.02363 0.1099 0.0
C2123 C 0.07307 0.00999 0.07522 0.0
C2124 C 0.06636 0.02422 0.18581 0.0
C2125 C 0.07106 0.01131 0.22945 0.0
C2126 C 0.0767 0.99765 0.19436 0.0
C2127 C 0.07757 0.99693 0.11825 0.0
H2128 H 0.84146 0.02188 0.20936 0.0
H2129 H 0.80693 0.99368 0.19796 0.0
H2130 H 0.84235 0.02306 0.07696 0.0
H2131 H 0.8077 0.99524 0.06385 0.0
H2132 H 0.80965 0.02358 0.83059 0.0
H2133 H 0.80738 0.02051 0.96312 0.0
H2134 H 0.84495 1.00014 0.97491 0.0
H2135 H 0.84713 1.00282 0.84297 0.0
C2136 C 0.83402 0.01596 0.17849 0.0
C2137 C 0.82414 0.00764 0.21418 0.0
C2138 C 0.83457 0.01661 0.10259 0.0
C2139 C 0.82512 0.00924 0.06009 0.0
C2140 C 0.8151 1.00106 0.09542 0.0
C2141 C 0.8147 1.00008 0.17193 0.0
C2142 C 0.81742 0.01846 0.86159 0.0
C2143 C 0.82863 0.01359 0.82639 0.0
C2144 C 0.81606 0.01656 0.93723 0.0
C2145 C 0.82599 0.01009 0.97925 0.0
C2146 C 0.83716 0.0052 0.94392 0.0
C2147 C 0.83841 0.00675 0.86838 0.0
H2148 H 0.9777 0.77488 0.19881 0.0
H2149 H 0.9422 0.74877 0.20952 0.0
H2150 H 0.97707 0.77319 0.06472 0.0
H2151 H 0.94147 0.74745 0.07713 0.0
H2152 H 0.93767 0.76785 0.84282 0.0
H2153 H 0.93978 0.7704 0.97481 0.0
H2154 H 0.97666 0.74793 0.96408 0.0
H2155 H 0.97444 0.745 0.83143 0.0
C2156 C 0.96976 0.7689 0.17264 0.0
C2157 C 0.96 0.76198 0.21472 0.0
C2158 C 0.96943 0.76784 0.09613 0.0
C2159 C 0.95919 0.76022 0.06059 0.0
C2160 C 0.94944 0.75347 0.10291 0.0
C2161 C 0.9499 0.75419 0.17883 0.0
C2162 C 0.94623 0.76342 0.86847 0.0
C2163 C 0.95582 0.75605 0.82673 0.0
C2164 C 0.94743 0.7649 0.94405 0.0
C2165 C 0.95839 0.75939 0.97971 0.0
C2166 C 0.96814 0.75236 0.93795 0.0
C2167 C 0.96682 0.75054 0.86224 0.0
H2168 H 0.84923 0.75987 0.97585 0.0
H2169 H 0.80918 0.75111 0.9974 0.0
H2170 H 0.84676 0.76261 0.84418 0.0
H2171 H 0.80671 0.75431 0.8652 0.0
H2172 H 0.80972 0.78065 0.62953 0.0
H2173 H 0.81082 0.7786 0.76331 0.0
H2174 H 0.83954 0.74108 0.74384 0.0
H2175 H 0.83829 0.74279 0.61169 0.0
C2176 C 0.83988 0.7586 0.95259 0.0
C2177 C 0.82942 0.75518 0.99721 0.0
C2178 C 0.83848 0.76017 0.87715 0.0
C2179 C 0.82654 0.75872 0.84449 0.0
C2180 C 0.81601 0.7556 0.88901 0.0
C2181 C 0.81745 0.75366 0.96455 0.0
C2182 C 0.81623 0.77197 0.65405 0.0
C2183 C 0.82392 0.76191 0.61002 0.0
C2184 C 0.81682 0.77073 0.73041 0.0
C2185 C 0.82532 0.75972 0.76386 0.0
C2186 C 0.83297 0.74973 0.71965 0.0
C2187 C 0.83219 0.75069 0.64386 0.0
H2188 H 0.97504 0.02088 0.99386 0.0
H2189 H 0.93584 0.00679 0.97681 0.0
H2190 H 0.97735 0.01792 0.86136 0.0
H2191 H 0.93811 0.00427 0.8449 0.0
H2192 H 0.9444 0.02532 0.61152 0.0
H2193 H 0.9434 0.02682 0.74388 0.0
H2194 H 0.97472 0.99297 0.75981 0.0
H2195 H 0.97558 0.99111 0.62587 0.0
C2196 C 0.96692 0.01722 0.96192 0.0
C2197 C 0.95523 0.01415 0.9959 0.0
C2198 C 0.96828 0.01541 0.88623 0.0
C2199 C 0.95791 0.01086 0.84291 0.0
C2200 C 0.94625 0.00783 0.87692 0.0
C2201 C 0.94496 0.00927 0.95249 0.0
C2202 C 0.95111 0.01818 0.64298 0.0
C2203 C 0.96005 0.00804 0.60813 0.0
C2204 C 0.95049 0.01901 0.71887 0.0
C2205 C 0.95895 0.01 0.76214 0.0
C2206 C 0.9681 1.00008 0.72764 0.0
C2207 C 0.96854 0.99894 0.65121 0.0
H2208 H 0.2043 0.48648 0.36652 0.0
H2209 H 0.22058 0.53537 0.37333 0.0
H2210 H 0.20448 0.48525 0.49836 0.0
H2211 H 0.22109 0.53397 0.50652 0.0
H2212 H 0.20581 0.5331 0.74195 0.0
H2213 H 0.20726 0.53448 0.60985 0.0
H2214 H 0.2174 0.48279 0.60325 0.0
H2215 H 0.21561 0.48132 0.73561 0.0
C2216 C 0.20806 0.49695 0.39613 0.0
C2217 C 0.21238 0.51107 0.35897 0.0
C2218 C 0.20824 0.49618 0.47217 0.0
C2219 C 0.21281 0.50948 0.51373 0.0
C2220 C 0.21734 0.52355 0.47657 0.0
C2221 C 0.21712 0.52434 0.40011 0.0
C2222 C 0.20834 0.52199 0.71241 0.0
C2223 C 0.21046 0.50704 0.74961 0.0
C2224 C 0.20929 0.52284 0.63641 0.0
C2225 C 0.21244 0.50876 0.59527 0.0
C2226 C 0.21475 0.49384 0.63271 0.0
C2227 C 0.21376 0.49299 0.7088 0.0
H2228 H 0.05927 0.77415 0.73876 0.0
H2229 H 0.09724 0.75492 0.72753 0.0
H2230 H 0.05733 0.77123 0.60596 0.0
H2231 H 0.09537 0.75241 0.59549 0.0
H2232 H 0.09201 0.77322 0.36039 0.0
H2233 H 0.0925 0.77494 0.49276 0.0
H2234 H 0.05831 0.74615 0.50515 0.0
H2235 H 0.05794 0.74405 0.37119 0.0
C2236 C 0.06721 0.76939 0.70803 0.0
C2237 C 0.07845 0.76486 0.74376 0.0
C2238 C 0.06605 0.76759 0.63216 0.0
C2239 C 0.0762 0.7616 0.59037 0.0
C2240 C 0.08741 0.75712 0.62619 0.0
C2241 C 0.08847 0.75856 0.70188 0.0
C2242 C 0.08457 0.76723 0.39105 0.0
C2243 C 0.07497 0.75843 0.35514 0.0
C2244 C 0.08489 0.76818 0.467 0.0
C2245 C 0.07547 0.76067 0.50937 0.0
C2246 C 0.06568 0.7521 0.47377 0.0
C2247 C 0.06552 0.75081 0.3973 0.0
H2248 H 0.21598 0.78698 0.5842 0.0
H2249 H 0.20585 0.7353 0.58107 0.0
H2250 H 0.21801 0.78582 0.71652 0.0
H2251 H 0.20748 0.73424 0.71303 0.0
H2252 H 0.22099 0.73324 0.94773 0.0
H2253 H 0.22134 0.73459 0.81469 0.0
H2254 H 0.20569 0.78387 0.8235 0.0
H2255 H 0.20573 0.78269 0.95546 0.0
C2256 C 0.2141 0.7754 0.61172 0.0
C2257 C 0.21067 0.76128 0.5718 0.0
C2258 C 0.21522 0.77472 0.68781 0.0
C2259 C 0.21289 0.75992 0.72613 0.0
C2260 C 0.20956 0.74579 0.68584 0.0
C2261 C 0.2085 0.74645 0.60988 0.0
C2262 C 0.21772 0.74439 0.92116 0.0
C2263 C 0.21329 0.75781 0.96254 0.0
C2264 C 0.21783 0.74515 0.84473 0.0
C2265 C 0.21349 0.75933 0.8077 0.0
C2266 C 0.20929 0.77283 0.8495 0.0
C2267 C 0.20923 0.77209 0.92561 0.0
H2268 H 0.06988 0.48178 0.58972 0.0
H2269 H 0.07916 0.53371 0.583 0.0
H2270 H 0.06817 0.48323 0.7221 0.0
H2271 H 0.0778 0.53509 0.71516 0.0
H2272 H 0.0646 0.53574 0.95208 0.0
H2273 H 0.06406 0.53435 0.81888 0.0
H2274 H 0.08113 0.4859 0.82668 0.0
H2275 H 0.08135 0.48711 0.95852 0.0
C2276 C 0.07164 0.49349 0.61645 0.0
C2277 C 0.07476 0.50758 0.57552 0.0
C2278 C 0.07069 0.49433 0.69256 0.0
C2279 C 0.07289 0.50928 0.72992 0.0
C2280 C 0.07587 0.52341 0.68867 0.0
C2281 C 0.07677 0.52257 0.61263 0.0
C2282 C 0.06816 0.52477 0.92522 0.0
C2283 C 0.07303 0.51157 0.96626 0.0
C2284 C 0.06792 0.52399 0.84876 0.0
C2285 C 0.07256 0.51 0.81148 0.0
C2286 C 0.07728 0.49677 0.85295 0.0
C2287 C 0.07748 0.49752 0.929 0.0
H2288 H 0.80718 0.4949 0.70306 0.0
H2289 H 0.84281 0.52071 0.7127 0.0
H2290 H 0.80775 0.49656 0.56895 0.0
H2291 H 0.84348 0.52199 0.58028 0.0
H2292 H 0.84707 0.50157 0.34596 0.0
H2293 H 0.845 0.49901 0.47799 0.0
H2294 H 0.80824 0.52181 0.46828 0.0
H2295 H 0.81041 0.52476 0.33559 0.0
C2296 C 0.81514 0.5008 0.67664 0.0
C2297 C 0.82496 0.50765 0.71843 0.0
C2298 C 0.81543 0.50184 0.60013 0.0
C2299 C 0.82569 0.50937 0.56429 0.0
C2300 C 0.8355 0.51604 0.6063 0.0
C2301 C 0.83508 0.51534 0.68223 0.0
C2302 C 0.83855 0.50607 0.37184 0.0
C2303 C 0.82898 0.51354 0.33038 0.0
C2304 C 0.83736 0.50458 0.44744 0.0
C2305 C 0.82646 0.51019 0.48339 0.0
C2306 C 0.81672 0.51731 0.44191 0.0
C2307 C 0.81802 0.51913 0.36618 0.0
H2308 H 0.95369 0.23799 0.71137 0.0
H2309 H 0.97151 0.28596 0.70401 0.0
H2310 H 0.95385 0.2367 0.57949 0.0
H2311 H 0.97197 0.28449 0.57084 0.0
H2312 H 0.95672 0.28437 0.33552 0.0
H2313 H 0.95814 0.2857 0.46762 0.0
H2314 H 0.96673 0.23353 0.47442 0.0
H2315 H 0.96497 0.23214 0.34203 0.0
C2316 C 0.95778 0.24824 0.68164 0.0
C2317 C 0.96254 0.26213 0.71866 0.0
C2318 C 0.95795 0.24743 0.60558 0.0
C2319 C 0.96293 0.26046 0.56386 0.0
C2320 C 0.96789 0.27429 0.6009 0.0
C2321 C 0.9677 0.27511 0.67736 0.0
C2322 C 0.95889 0.27315 0.36509 0.0
C2323 C 0.96059 0.2581 0.32792 0.0
C2324 C 0.95983 0.27395 0.4411 0.0
C2325 C 0.96254 0.25974 0.48231 0.0
C2326 C 0.96443 0.24471 0.44491 0.0
C2327 C 0.96345 0.2439 0.3688 0.0
H2328 H 0.84781 0.2678 0.48304 0.0
H2329 H 0.81031 0.24712 0.49616 0.0
H2330 H 0.84564 0.27033 0.35105 0.0
H2331 H 0.80805 0.25004 0.36356 0.0
H2332 H 0.80777 0.27695 0.12846 0.0
H2333 H 0.80848 0.27538 0.26256 0.0
H2334 H 0.84296 0.24718 0.24949 0.0
H2335 H 0.84213 0.24838 0.11708 0.0
C2336 C 0.83908 0.26386 0.45777 0.0
C2337 C 0.82929 0.25709 0.49998 0.0
C2338 C 0.83784 0.26532 0.38222 0.0
C2339 C 0.82667 0.26041 0.34711 0.0
C2340 C 0.81673 0.254 0.38931 0.0
C2341 C 0.81808 0.25219 0.46498 0.0
C2342 C 0.81548 0.27046 0.1545 0.0
C2343 C 0.8249 0.26281 0.11226 0.0
C2344 C 0.81585 0.26947 0.23099 0.0
C2345 C 0.82581 0.26119 0.2663 0.0
C2346 C 0.83522 0.25371 0.22384 0.0
C2347 C 0.8347 0.25436 0.14794 0.0
H2348 H 0.95709 0.53294 0.12339 0.0
H2349 H 0.97394 0.48435 0.12626 0.0
H2350 H 0.9571 0.53352 0.25527 0.0
H2351 H 0.9744 0.48514 0.25937 0.0
H2352 H 0.95901 0.48417 0.49357 0.0
H2353 H 0.96073 0.48358 0.36149 0.0
H2354 H 0.96944 0.53576 0.36102 0.0
H2355 H 0.96723 0.53643 0.49313 0.0
C2356 C 0.96098 0.52243 0.1522 0.0
C2357 C 0.96545 0.50855 0.11406 0.0
C2358 C 0.96106 0.52282 0.22823 0.0
C2359 C 0.96574 0.50939 0.2686 0.0
C2360 C 0.97051 0.49562 0.23035 0.0
C2361 C 0.97033 0.49518 0.15397 0.0
C2362 C 0.96128 0.49553 0.46528 0.0
C2363 C 0.96284 0.51039 0.50395 0.0
C2364 C 0.96238 0.49516 0.38936 0.0
C2365 C 0.9652 0.50962 0.35 0.0
C2366 C 0.96702 0.52443 0.38905 0.0
C2367 C 0.96579 0.52482 0.46497 0.0
H2368 H 0.72543 0.99863 0.74453 0.0
H2369 H 0.68637 0.01347 0.72879 0.0
H2370 H 0.72764 1.00153 0.61196 0.0
H2371 H 0.68853 0.01592 0.59679 0.0
H2372 H 0.69438 0.99464 0.36336 0.0
H2373 H 0.69349 0.9932 0.49576 0.0
H2374 H 0.72515 0.02654 0.51046 0.0
H2375 H 0.72589 0.02835 0.37649 0.0
C2376 C 0.71732 1.00244 0.71286 0.0
C2377 C 0.7057 0.00574 0.74722 0.0
C2378 C 0.71862 0.00422 0.63713 0.0
C2379 C 0.70826 0.00895 0.59417 0.0
C2380 C 0.69667 0.01221 0.62855 0.0
C2381 C 0.69544 0.0108 0.70416 0.0
C2382 C 0.70119 1.00168 0.39457 0.0
C2383 C 0.71019 0.01166 0.35938 0.0
C2384 C 0.70063 1.00089 0.47047 0.0
C2385 C 0.70923 0.00977 0.51339 0.0
C2386 C 0.71843 0.01953 0.47855 0.0
C2387 C 0.71881 0.02064 0.40211 0.0
H2388 H 0.58216 0.28264 0.36905 0.0
H2389 H 0.56169 0.2365 0.37453 0.0
H2390 H 0.58197 0.28373 0.50094 0.0
H2391 H 0.56118 0.23782 0.50768 0.0
H2392 H 0.57659 0.23601 0.74248 0.0
H2393 H 0.57498 0.23507 0.61041 0.0
H2394 H 0.56918 0.28791 0.60569 0.0
H2395 H 0.57115 0.28889 0.738 0.0
C2396 C 0.57748 0.27278 0.39839 0.0
C2397 C 0.57199 0.25942 0.36094 0.0
C2398 C 0.57729 0.27348 0.4744 0.0
C2399 C 0.57156 0.26089 0.51548 0.0
C2400 C 0.56585 0.24764 0.47801 0.0
C2401 C 0.56607 0.24691 0.40162 0.0
C2402 C 0.57499 0.24745 0.71335 0.0
C2403 C 0.57415 0.26256 0.75097 0.0
C2404 C 0.57394 0.24688 0.63742 0.0
C2405 C 0.57197 0.2614 0.59689 0.0
C2406 C 0.57091 0.27649 0.63476 0.0
C2407 C 0.572 0.27707 0.71078 0.0
H2408 H 0.71902 0.23451 0.58038 0.0
H2409 H 0.70698 0.28535 0.59546 0.0
H2410 H 0.72124 0.23329 0.71202 0.0
H2411 H 0.70862 0.28398 0.72774 0.0
H2412 H 0.72256 0.2821 0.95925 0.0
H2413 H 0.72241 0.28292 0.82683 0.0
H2414 H 0.71011 0.23198 0.82177 0.0
H2415 H 0.71084 0.23105 0.95448 0.0
C2416 C 0.71672 0.24541 0.61192 0.0
C2417 C 0.71277 0.26002 0.57723 0.0
C2418 C 0.71793 0.24468 0.68777 0.0
C2419 C 0.71509 0.2585 0.73139 0.0
C2420 C 0.71113 0.27314 0.69641 0.0
C2421 C 0.71008 0.27392 0.62036 0.0
C2422 C 0.71994 0.27102 0.92978 0.0
C2423 C 0.71666 0.25652 0.96747 0.0
C2424 C 0.71973 0.27153 0.85361 0.0
C2425 C 0.71607 0.2576 0.81279 0.0
C2426 C 0.71312 0.24294 0.85076 0.0
C2427 C 0.71349 0.24238 0.92709 0.0
H2428 H 0.56387 0.03682 0.95015 0.0
H2429 H 0.58096 0.98839 0.95704 0.0
H2430 H 0.56341 0.0354 0.81696 0.0
H2431 H 0.58081 0.98715 0.8252 0.0
H2432 H 0.56974 0.98289 0.58798 0.0
H2433 H 0.56793 0.98432 0.72034 0.0
H2434 H 0.57722 0.03629 0.71359 0.0
H2435 H 0.57867 0.03493 0.58147 0.0
C2436 C 0.56752 0.02589 0.92339 0.0
C2437 C 0.57247 0.01275 0.96455 0.0
C2438 C 0.56733 0.02509 0.84693 0.0
C2439 C 0.57209 0.01115 0.80978 0.0
C2440 C 0.57687 0.99798 0.85137 0.0
C2441 C 0.57703 0.99875 0.92741 0.0
C2442 C 0.5714 0.99462 0.61475 0.0
C2443 C 0.57445 0.00875 0.57389 0.0
C2444 C 0.5704 0.99545 0.69084 0.0
C2445 C 0.57247 0.01043 0.72824 0.0
C2446 C 0.57538 0.02459 0.68705 0.0
C2447 C 0.57633 0.02376 0.61105 0.0
H2448 H 0.34892 0.00835 0.34653 0.0
H2449 H 0.30936 0.02054 0.32877 0.0
H2450 H 0.34665 0.00573 0.47838 0.0
H2451 H 0.30706 0.01749 0.46121 0.0
H2452 H 0.30923 0.99095 0.6965 0.0
H2453 H 0.3101 0.99298 0.56265 0.0
H2454 H 0.3409 0.02763 0.5797 0.0
H2455 H 0.33989 0.02593 0.71196 0.0
C2456 C 0.33972 0.0104 0.37067 0.0
C2457 C 0.32934 0.01475 0.32704 0.0
C2458 C 0.33843 0.00891 0.44623 0.0
C2459 C 0.32668 0.01138 0.48006 0.0
C2460 C 0.31621 0.01542 0.43652 0.0
C2461 C 0.31756 0.01727 0.36084 0.0
C2462 C 0.31615 0.99899 0.67144 0.0
C2463 C 0.3245 0.00825 0.71484 0.0
C2464 C 0.31661 1.00023 0.59503 0.0
C2465 C 0.32561 0.01042 0.56084 0.0
C2466 C 0.33392 0.0196 0.60443 0.0
C2467 C 0.33329 0.01866 0.68029 0.0
H2468 H 0.45797 0.78615 0.33264 0.0
H2469 H 0.46396 0.73337 0.33722 0.0
H2470 H 0.4596 0.78715 0.46467 0.0
H2471 H 0.46596 0.73441 0.46952 0.0
H2472 H 0.45307 0.73948 0.70637 0.0
H2473 H 0.45323 0.73835 0.57451 0.0
H2474 H 0.47341 0.78472 0.56725 0.0
H2475 H 0.47293 0.78608 0.7004 0.0
C2476 C 0.4597 0.77474 0.36179 0.0
C2477 C 0.46069 0.75964 0.32421 0.0
C2478 C 0.46076 0.77535 0.43771 0.0
C2479 C 0.4629 0.76087 0.47827 0.0
C2480 C 0.4641 0.74579 0.44043 0.0
C2481 C 0.46299 0.74518 0.36442 0.0
C2482 C 0.45762 0.74944 0.67692 0.0
C2483 C 0.46294 0.76293 0.71423 0.0
C2484 C 0.45778 0.74872 0.60092 0.0
C2485 C 0.46333 0.76142 0.55968 0.0
C2486 C 0.46888 0.77481 0.59702 0.0
C2487 C 0.46867 0.77557 0.67342 0.0
H2488 H 0.32127 0.73117 0.48024 0.0
H2489 H 0.32571 0.78421 0.48486 0.0
H2490 H 0.3193 0.7321 0.34789 0.0
H2491 H 0.3241 0.78512 0.3528 0.0
H2492 H 0.31088 0.78329 0.1169 0.0
H2493 H 0.31034 0.7819 0.25003 0.0
H2494 H 0.33209 0.73676 0.24331 0.0
H2495 H 0.33233 0.73791 0.11142 0.0
C2496 C 0.3219 0.74301 0.45305 0.0
C2497 C 0.32377 0.75758 0.49327 0.0
C2498 C 0.32081 0.74357 0.37702 0.0
C2499 C 0.32159 0.75869 0.33921 0.0
C2500 C 0.32328 0.77327 0.37978 0.0
C2501 C 0.32433 0.77272 0.4557 0.0
C2502 C 0.31547 0.77304 0.14398 0.0
C2503 C 0.32168 0.76076 0.10332 0.0
C2504 C 0.31523 0.77227 0.22035 0.0
C2505 C 0.3212 0.75921 0.25782 0.0
C2506 C 0.32722 0.74685 0.21675 0.0
C2507 C 0.32742 0.74759 0.14075 0.0
H2508 H 0.46715 0.03719 0.49146 0.0
H2509 H 0.45828 0.98511 0.4923 0.0
H2510 H 0.46939 0.03641 0.35937 0.0
H2511 H 0.46003 0.98442 0.36025 0.0
H2512 H 0.47328 0.98474 0.12509 0.0
H2513 H 0.47372 0.98561 0.2582 0.0
H2514 H 0.4571 0.03438 0.2534 0.0
H2515 H 0.45711 0.03373 0.12153 0.0
C2516 C 0.46557 0.0256 0.4634 0.0
C2517 C 0.46244 0.01125 0.50249 0.0
C2518 C 0.46682 0.02514 0.38747 0.0
C2519 C 0.46484 0.01035 0.34853 0.0
C2520 C 0.46183 0.99598 0.38802 0.0
C2521 C 0.4607 0.99641 0.46393 0.0
C2522 C 0.46982 0.99568 0.15264 0.0
C2523 C 0.46514 0.00913 0.11252 0.0
C2524 C 0.46999 0.99616 0.22903 0.0
C2525 C 0.4654 0.01006 0.2671 0.0
C2526 C 0.46092 0.02357 0.22652 0.0
C2527 C 0.46084 0.02314 0.15049 0.0
H2528 H 0.72694 0.52626 0.87561 0.0
H2529 H 0.69274 0.49733 0.8655 0.0
H2530 H 0.72659 0.52418 0.00958 0.0
H2531 H 0.69227 0.49564 0.99788 0.0
H2532 H 0.68767 0.51569 0.23268 0.0
H2533 H 0.68952 0.51818 0.10061 0.0
H2534 H 0.7275 0.49912 0.11037 0.0
H2535 H 0.72557 0.49622 0.24321 0.0
C2536 C 0.71934 0.51956 0.90188 0.0
C2537 C 0.70985 0.512 0.85991 0.0
C2538 C 0.71918 0.51828 0.97835 0.0
C2539 C 0.70937 0.50979 0.01414 0.0
C2540 C 0.6999 0.50234 0.97197 0.0
C2541 C 0.70021 0.50328 0.89601 0.0
C2542 C 0.69642 0.51199 0.20687 0.0
C2543 C 0.70643 0.50563 0.24856 0.0
C2544 C 0.69747 0.51343 0.13117 0.0
C2545 C 0.70865 0.50887 0.09514 0.0
C2546 C 0.71879 0.50281 0.13674 0.0
C2547 C 0.71764 0.50103 0.21262 0.0
H2548 H 0.56334 0.73456 0.87085 0.0
H2549 H 0.57796 0.78436 0.86583 0.0
H2550 H 0.56293 0.73556 0.00397 0.0
H2551 H 0.57795 0.78519 0.99778 0.0
H2552 H 0.56756 0.78759 0.23628 0.0
H2553 H 0.56543 0.78657 0.10411 0.0
H2554 H 0.57687 0.73531 0.10574 0.0
H2555 H 0.57859 0.73623 0.23779 0.0
C2556 C 0.56645 0.74571 0.89805 0.0
C2557 C 0.57072 0.75935 0.85747 0.0
C2558 C 0.5663 0.74627 0.97447 0.0
C2559 C 0.57045 0.76045 0.01218 0.0
C2560 C 0.57449 0.77414 0.97118 0.0
C2561 C 0.57458 0.77362 0.89509 0.0
C2562 C 0.56962 0.77611 0.2084 0.0
C2563 C 0.57334 0.76204 0.24776 0.0
C2564 C 0.56843 0.77551 0.13242 0.0
C2565 C 0.57102 0.76086 0.09365 0.0
C2566 C 0.57461 0.74675 0.13337 0.0
C2567 C 0.57571 0.74732 0.20931 0.0
H2568 H 0.70304 0.78553 0.09464 0.0
H2569 H 0.71994 0.73714 0.07898 0.0
H2570 H 0.70439 0.78413 0.22698 0.0
H2571 H 0.72198 0.73603 0.21067 0.0
H2572 H 0.71183 0.73141 0.45236 0.0
H2573 H 0.71126 0.73249 0.3196 0.0
H2574 H 0.71745 0.78529 0.32761 0.0
H2575 H 0.71732 0.7842 0.45984 0.0
C2576 C 0.70717 0.77466 0.1195 0.0
C2577 C 0.71128 0.76142 0.07624 0.0
C2578 C 0.70805 0.77387 0.1956 0.0
C2579 C 0.71332 0.75994 0.23048 0.0
C2580 C 0.71762 0.74682 0.18662 0.0
C2581 C 0.71652 0.7475 0.11073 0.0
C2582 C 0.71316 0.7432 0.42551 0.0
C2583 C 0.71452 0.75772 0.46659 0.0
C2584 C 0.71288 0.74386 0.34917 0.0
C2585 C 0.71418 0.75903 0.31196 0.0
C2586 C 0.71605 0.77343 0.35362 0.0
C2587 C 0.7161 0.77279 0.42973 0.0
H2588 H 0.56867 0.48302 0.08722 0.0
H2589 H 0.57909 0.53459 0.08439 0.0
H2590 H 0.56656 0.48417 0.21952 0.0
H2591 H 0.57737 0.53565 0.21635 0.0
H2592 H 0.56367 0.53669 0.45089 0.0
H2593 H 0.56339 0.53536 0.31783 0.0
H2594 H 0.57889 0.48601 0.32655 0.0
H2595 H 0.57879 0.48716 0.45853 0.0
C2596 C 0.5706 0.49457 0.1148 0.0
C2597 C 0.57413 0.50867 0.07498 0.0
C2598 C 0.56943 0.49524 0.19088 0.0
C2599 C 0.57181 0.51001 0.22927 0.0
C2600 C 0.57525 0.52412 0.18908 0.0
C2601 C 0.57636 0.52346 0.11313 0.0
C2602 C 0.56692 0.52552 0.4243 0.0
C2603 C 0.57129 0.51208 0.46566 0.0
C2604 C 0.56684 0.52478 0.34787 0.0
C2605 C 0.57117 0.51059 0.31082 0.0
C2606 C 0.57531 0.49706 0.35259 0.0
C2607 C 0.57533 0.49778 0.4287 0.0
H2608 H 0.33063 0.53183 0.20565 0.0
H2609 H 0.31087 0.48517 0.2008 0.0
H2610 H 0.33044 0.53284 0.07367 0.0
H2611 H 0.31028 0.48643 0.06782 0.0
H2612 H 0.32517 0.48445 0.83301 0.0
H2613 H 0.32374 0.48375 0.96509 0.0
H2614 H 0.31805 0.53664 0.96823 0.0
H2615 H 0.31992 0.53736 0.83581 0.0
C2616 C 0.32609 0.52184 0.17642 0.0
C2617 C 0.32083 0.50835 0.21405 0.0
C2618 C 0.3259 0.52249 0.10036 0.0
C2619 C 0.32036 0.50972 0.05944 0.0
C2620 C 0.31483 0.49637 0.09721 0.0
C2621 C 0.31509 0.49568 0.17357 0.0
C2622 C 0.32362 0.49595 0.8618 0.0
C2623 C 0.32278 0.51099 0.82367 0.0
C2624 C 0.32268 0.49553 0.93779 0.0
C2625 C 0.32078 0.51013 0.97795 0.0
C2626 C 0.31973 0.52516 0.93955 0.0
C2627 C 0.32076 0.52559 0.86345 0.0
H2628 H 0.45588 0.28443 0.83712 0.0
H2629 H 0.46732 0.23322 0.83937 0.0
H2630 H 0.45752 0.28544 0.96921 0.0
H2631 H 0.46937 0.23434 0.97156 0.0
H2632 H 0.45687 0.23648 0.20987 0.0
H2633 H 0.45687 0.2356 0.07792 0.0
H2634 H 0.4714 0.28547 0.0712 0.0
H2635 H 0.47102 0.28651 0.20433 0.0
C2636 C 0.45882 0.27338 0.86576 0.0
C2637 C 0.46134 0.25869 0.82748 0.0
C2638 C 0.45988 0.27401 0.94174 0.0
C2639 C 0.46357 0.25998 0.9817 0.0
C2640 C 0.46629 0.24534 0.9431 0.0
C2641 C 0.46515 0.24469 0.86709 0.0
C2642 C 0.46014 0.24727 0.1805 0.0
C2643 C 0.46388 0.26162 0.21801 0.0
C2644 C 0.46022 0.24671 0.1044 0.0
C2645 C 0.46412 0.26045 0.06322 0.0
C2646 C 0.46814 0.27472 0.10081 0.0
C2647 C 0.468 0.2753 0.17725 0.0
H2648 H 0.31242 0.28447 0.62569 0.0
H2649 H 0.33167 0.23743 0.6203 0.0
H2650 H 0.31192 0.2832 0.75888 0.0
H2651 H 0.3315 0.23638 0.75214 0.0
H2652 H 0.32062 0.23162 0.98903 0.0
H2653 H 0.31867 0.23274 0.85677 0.0
H2654 H 0.32569 0.28532 0.8619 0.0
H2655 H 0.32727 0.28425 0.994 0.0
C2656 C 0.31654 0.27388 0.6528 0.0
C2657 C 0.3221 0.26109 0.61213 0.0
C2658 C 0.31632 0.27317 0.72922 0.0
C2659 C 0.32168 0.25968 0.76671 0.0
C2660 C 0.32708 0.24683 0.72561 0.0
C2661 C 0.32725 0.24751 0.64961 0.0
C2662 C 0.32175 0.24341 0.96192 0.0
C2663 C 0.32422 0.2578 0.00224 0.0
C2664 C 0.32066 0.24407 0.88591 0.0
C2665 C 0.32208 0.25912 0.84815 0.0
C2666 C 0.32438 0.27354 0.88881 0.0
C2667 C 0.32541 0.27289 0.96475 0.0
H2668 H 0.43803 0.50093 0.97952 0.0
H2669 H 0.47429 0.52522 0.98769 0.0
H2670 H 0.43996 0.49827 0.84752 0.0
H2671 H 0.47632 0.52221 0.85492 0.0
H2672 H 0.4777 0.49532 0.62055 0.0
H2673 H 0.47729 0.49726 0.75459 0.0
H2674 H 0.44075 0.52064 0.74417 0.0
H2675 H 0.44124 0.51907 0.61183 0.0
C2676 C 0.44644 0.50566 0.95316 0.0
C2677 C 0.45593 0.51346 0.99408 0.0
C2678 C 0.44754 0.50413 0.87752 0.0
C2679 C 0.45829 0.51002 0.84084 0.0
C2680 C 0.46796 0.51748 0.88177 0.0
C2681 C 0.46673 0.51934 0.95758 0.0
C2682 C 0.46959 0.50082 0.64713 0.0
C2683 C 0.45949 0.507 0.60554 0.0
C2684 C 0.4694 0.50203 0.72365 0.0
C2685 C 0.45896 0.50906 0.75982 0.0
C2686 C 0.44888 0.51508 0.718 0.0
C2687 C 0.44919 0.51421 0.64205 0.0
H2688 H 0.21794 0.93316 0.36828 0.0
H2689 H 0.20991 0.91369 0.58262 0.0
H2690 H 0.21797 0.90513 0.31968 0.0
H2691 H 0.21051 0.88584 0.53471 0.0
H2692 H 0.20185 0.8377 0.41469 0.0
H2693 H 0.20007 0.86587 0.46103 0.0
H2694 H 0.23094 0.88097 0.32228 0.0
H2695 H 0.23257 0.853 0.27532 0.0
C2696 C 0.21604 0.92302 0.40505 0.0
C2697 C 0.2139 0.92586 0.47962 0.0
C2698 C 0.21623 0.90685 0.37728 0.0
C2699 C 0.21432 0.89312 0.42328 0.0
C2700 C 0.21189 0.89602 0.49731 0.0
C2701 C 0.21167 0.9121 0.52495 0.0
C2702 C 0.2084 0.84695 0.39494 0.0
C2703 C 0.21743 0.84298 0.34156 0.0
C2704 C 0.20734 0.86317 0.42126 0.0
C2705 C 0.2153 0.87582 0.39507 0.0
C2706 C 0.22444 0.87173 0.34263 0.0
C2707 C 0.22546 0.85559 0.31616 0.0
H2708 H 0.07526 0.35541 0.58474 0.0
H2709 H 0.06534 0.33551 0.374 0.0
H2710 H 0.07479 0.38315 0.53521 0.0
H2711 H 0.06536 0.36344 0.32363 0.0
H2712 H 0.0504 0.41591 0.28467 0.0
H2713 H 0.05249 0.3879 0.33028 0.0
H2714 H 0.08498 0.40263 0.45642 0.0
H2715 H 0.08285 0.43082 0.4111 0.0
C2716 C 0.07311 0.35689 0.52746 0.0
C2717 C 0.0703 0.34308 0.48365 0.0
C2718 C 0.07297 0.37289 0.49887 0.0
C2719 C 0.07001 0.37564 0.4254 0.0
C2720 C 0.06753 0.36182 0.38078 0.0
C2721 C 0.06768 0.34573 0.40949 0.0
C2722 C 0.05801 0.41325 0.32223 0.0
C2723 C 0.06637 0.4258 0.34458 0.0
C2724 C 0.05927 0.39707 0.34795 0.0
C2725 C 0.06895 0.39288 0.39673 0.0
C2726 C 0.0773 0.40542 0.41954 0.0
C2727 C 0.07603 0.42167 0.39381 0.0
H2728 H 0.23454 0.41557 0.04577 0.0
H2729 H 0.20313 0.43042 0.91073 0.0
H2730 H 0.23281 0.38754 1.00003 0.0
H2731 H 0.20137 0.4022 0.86514 0.0
H2732 H 0.21214 0.35468 0.74095 0.0
H2733 H 0.21228 0.38254 0.78948 0.0
H2734 H 0.21969 0.36321 0.00439 0.0
H2735 H 0.22003 0.33518 0.95527 0.0
C2736 C 0.22724 0.4129 0.00627 0.0
C2737 C 0.21906 0.42544 0.98167 0.0
C2738 C 0.22618 0.39672 0.98044 0.0
C2739 C 0.21689 0.3925 0.92923 0.0
C2740 C 0.20874 0.40502 0.90402 0.0
C2741 C 0.2098 0.42129 0.92991 0.0
C2742 C 0.21378 0.35628 0.79873 0.0
C2743 C 0.2161 0.34254 0.84394 0.0
C2744 C 0.21373 0.37233 0.82669 0.0
C2745 C 0.21603 0.37521 0.90086 0.0
C2746 C 0.21803 0.36148 0.94672 0.0
C2747 C 0.21807 0.34534 0.91867 0.0
H2748 H 0.05351 0.91806 0.77385 0.0
H2749 H 0.08269 0.93295 0.92429 0.0
H2750 H 0.05446 0.89005 0.82063 0.0
H2751 H 0.08378 0.9047 0.97068 0.0
H2752 H 0.07211 0.85672 0.08696 0.0
H2753 H 0.07233 0.88466 0.03985 0.0
H2754 H 0.06739 0.86581 0.82176 0.0
H2755 H 0.06661 0.8377 0.86928 0.0
C2756 C 0.06015 0.91538 0.81708 0.0
C2757 C 0.06796 0.92789 0.8455 0.0
C2758 C 0.06077 0.8992 0.84349 0.0
C2759 C 0.06929 0.89496 0.899 0.0
C2760 C 0.077 0.90751 0.92835 0.0
C2761 C 0.07634 0.92378 0.902 0.0
C2762 C 0.07108 0.85842 0.02878 0.0
C2763 C 0.06931 0.84477 0.98221 0.0
C2764 C 0.07134 0.87455 1.00167 0.0
C2765 C 0.06984 0.87761 0.92696 0.0
C2766 C 0.0684 0.86397 0.87985 0.0
C2767 C 0.06812 0.84776 0.90707 0.0
H2768 H 0.81702 0.18411 0.62318 0.0
H2769 H 0.8234 0.16459 0.83915 0.0
H2770 H 0.81739 0.15608 0.57442 0.0
H2771 H 0.82323 0.13673 0.79092 0.0
H2772 H 0.83257 0.08853 0.67215 0.0
H2773 H 0.83419 0.11669 0.71894 0.0
H2774 H 0.8042 0.13203 0.57483 0.0
H2775 H 0.80268 0.10409 0.52767 0.0
C2776 C 0.81865 0.17395 0.66028 0.0
C2777 C 0.82019 0.17677 0.73534 0.0
C2778 C 0.81869 0.15779 0.63239 0.0
C2779 C 0.82025 0.14404 0.67875 0.0
C2780 C 0.82213 0.14693 0.75331 0.0
C2781 C 0.8221 0.16301 0.78109 0.0
C2782 C 0.82618 0.09782 0.65125 0.0
C2783 C 0.81743 0.09392 0.59634 0.0
C2784 C 0.82716 0.11405 0.67783 0.0
C2785 C 0.8194 0.12676 0.65028 0.0
C2786 C 0.81054 0.12274 0.59626 0.0
C2787 C 0.8096 0.10661 0.56964 0.0
H2788 H 0.96171 0.66305 0.48569 0.0
H2789 H 0.96762 0.68254 0.70223 0.0
H2790 H 0.96214 0.63518 0.53351 0.0
H2791 H 0.96745 0.65449 0.75055 0.0
H2792 H 0.98189 0.60267 0.80015 0.0
H2793 H 0.98059 0.63055 0.75196 0.0
H2794 H 0.95128 0.61496 0.60371 0.0
H2795 H 0.95275 0.58685 0.65134 0.0
C2796 C 0.96297 0.66147 0.54378 0.0
C2797 C 0.96465 0.67524 0.58978 0.0
C2798 C 0.96309 0.64537 0.57133 0.0
C2799 C 0.96487 0.64246 0.64595 0.0
C2800 C 0.96623 0.65621 0.69253 0.0
C2801 C 0.96615 0.67239 0.66485 0.0
C2802 C 0.9752 0.60512 0.75691 0.0
C2803 C 0.9675 0.5924 0.72938 0.0
C2804 C 0.97437 0.62122 0.72972 0.0
C2805 C 0.96573 0.62516 0.67439 0.0
C2806 C 0.95814 0.61239 0.64583 0.0
C2807 C 0.95903 0.5962 0.67289 0.0
H2808 H 0.8216 0.66523 0.3389 0.0
H2809 H 0.8166 0.68441 0.12109 0.0
H2810 H 0.8219 0.63733 0.29152 0.0
H2811 H 0.81746 0.65632 0.07327 0.0
H2812 H 0.80384 0.60396 0.02367 0.0
H2813 H 0.80467 0.632 0.07033 0.0
H2814 H 0.83348 0.61735 0.22357 0.0
H2815 H 0.83252 0.58909 0.17735 0.0
C2816 C 0.82069 0.66358 0.28063 0.0
C2817 C 0.81904 0.67727 0.23412 0.0
C2818 C 0.821 0.64746 0.25336 0.0
C2819 C 0.81968 0.64444 0.17851 0.0
C2820 C 0.81834 0.65812 0.13146 0.0
C2821 C 0.81801 0.67433 0.15886 0.0
C2822 C 0.81034 0.60665 0.06757 0.0
C2823 C 0.81803 0.59413 0.09698 0.0
C2824 C 0.81089 0.62284 0.09392 0.0
C2825 C 0.81922 0.62709 0.15036 0.0
C2826 C 0.82684 0.61454 0.18056 0.0
C2827 C 0.82625 0.59826 0.15429 0.0
H2828 H 0.95247 0.18137 0.16587 0.0
H2829 H 0.98357 0.1664 0.02847 0.0
H2830 H 0.95061 0.15309 0.21074 0.0
H2831 H 0.98176 0.13832 0.0736 0.0
H2832 H 0.96902 0.08596 0.11867 0.0
H2833 H 0.96871 0.11403 0.06987 0.0
H2834 H 0.96133 0.13323 0.28511 0.0
H2835 H 0.96115 0.10535 0.33324 0.0
C2836 C 0.95906 0.17219 0.14603 0.0
C2837 C 0.96826 0.17633 0.0938 0.0
C2838 C 0.95794 0.15589 0.17152 0.0
C2839 C 0.96598 0.14331 0.14549 0.0
C2840 C 0.97522 0.14752 0.09383 0.0
C2841 C 0.97632 0.16374 0.06836 0.0
C2842 C 0.96707 0.0961 0.15539 0.0
C2843 C 0.96511 0.09325 0.23011 0.0
C2844 C 0.96706 0.11227 0.12752 0.0
C2845 C 0.96507 0.12599 0.17358 0.0
C2846 C 0.96276 0.12305 0.24771 0.0
C2847 C 0.96278 0.10697 0.27546 0.0
H2848 H 0.70292 0.93242 0.90182 0.0
H2849 H 0.73244 0.91685 0.04872 0.0
H2850 H 0.70123 0.90419 0.85592 0.0
H2851 H 0.73086 0.88883 0.00249 0.0
H2852 H 0.71781 0.83678 0.95528 0.0
H2853 H 0.71746 0.86492 0.00305 0.0
H2854 H 0.71226 0.88392 0.78539 0.0
H2855 H 0.7121 0.85596 0.73813 0.0
C2856 C 0.70922 0.9231 0.92342 0.0
C2857 C 0.71789 0.92703 0.97875 0.0
C2858 C 0.7082 0.90684 0.89737 0.0
C2859 C 0.71583 0.89411 0.92592 0.0
C2860 C 0.72461 0.89815 0.9803 0.0
C2861 C 0.7256 0.91432 0.00638 0.0
C2862 C 0.71632 0.84689 0.91773 0.0
C2863 C 0.71499 0.84396 0.84265 0.0
C2864 C 0.71629 0.8631 0.94504 0.0
C2865 C 0.71493 0.87678 0.89805 0.0
C2866 C 0.71322 0.87378 0.82345 0.0
C2867 C 0.71325 0.85765 0.79625 0.0
H2868 H 0.55255 0.41689 0.77648 0.0
H2869 H 0.58244 0.43246 0.92088 0.0
H2870 H 0.55398 0.38899 0.82435 0.0
H2871 H 0.58398 0.40436 0.96831 0.0
H2872 H 0.57323 0.35666 0.08942 0.0
H2873 H 0.57297 0.38448 0.0407 0.0
H2874 H 0.56714 0.3649 0.82458 0.0
H2875 H 0.56686 0.33692 0.87382 0.0
C2876 C 0.55944 0.41438 0.81859 0.0
C2877 C 0.5673 0.42706 0.8451 0.0
C2878 C 0.56033 0.39828 0.84562 0.0
C2879 C 0.56917 0.39429 0.89982 0.0
C2880 C 0.57696 0.40699 0.92712 0.0
C2881 C 0.57603 0.42318 0.90016 0.0
C2882 C 0.57191 0.35819 0.03135 0.0
C2883 C 0.57005 0.34438 0.98583 0.0
C2884 C 0.57188 0.37424 0.00329 0.0
C2885 C 0.57 0.37704 0.92867 0.0
C2886 C 0.56845 0.36325 0.88257 0.0
C2887 C 0.56847 0.34712 0.91075 0.0
H2888 H 0.70842 0.4144 0.58554 0.0
H2889 H 0.72153 0.43242 0.37748 0.0
H2890 H 0.70759 0.38646 0.53753 0.0
H2891 H 0.72099 0.40429 0.32958 0.0
H2892 H 0.70868 0.35424 0.24519 0.0
H2893 H 0.7078 0.38215 0.29333 0.0
H2894 H 0.72077 0.36422 0.50188 0.0
H2895 H 0.72135 0.33609 0.4538 0.0
C2896 C 0.71114 0.4124 0.52935 0.0
C2897 C 0.71501 0.42574 0.48539 0.0
C2898 C 0.71074 0.3963 0.50193 0.0
C2899 C 0.71431 0.39296 0.42973 0.0
C2900 C 0.71799 0.40635 0.3852 0.0
C2901 C 0.71829 0.42254 0.4126 0.0
C2902 C 0.71129 0.3562 0.30154 0.0
C2903 C 0.71506 0.34284 0.34559 0.0
C2904 C 0.71087 0.37229 0.32904 0.0
C2905 C 0.71431 0.3756 0.40143 0.0
C2906 C 0.71788 0.36219 0.44608 0.0
C2907 C 0.7182 0.346 0.41859 0.0
H2908 H 0.5643 0.93366 0.45008 0.0
H2909 H 0.57383 0.91544 0.23607 0.0
H2910 H 0.56536 0.90555 0.49775 0.0
H2911 H 0.5753 0.88749 0.28376 0.0
H2912 H 0.56244 0.83735 0.37454 0.0
H2913 H 0.5628 0.86541 0.32569 0.0
H2914 H 0.5785 0.88321 0.52819 0.0
H2915 H 0.57773 0.85537 0.57732 0.0
C2916 C 0.56689 0.92372 0.41352 0.0
C2917 C 0.56899 0.92684 0.33926 0.0
C2918 C 0.5675 0.90754 0.44079 0.0
C2919 C 0.57037 0.8941 0.39465 0.0
C2920 C 0.5728 0.89737 0.32081 0.0
C2921 C 0.57204 0.91347 0.2935 0.0
C2922 C 0.56613 0.84723 0.40815 0.0
C2923 C 0.57005 0.84408 0.47986 0.0
C2924 C 0.56634 0.86337 0.38021 0.0
C2925 C 0.5706 0.87674 0.42305 0.0
C2926 C 0.57487 0.87341 0.49398 0.0
C2927 C 0.57452 0.85737 0.52204 0.0
H2928 H 0.3161 0.08584 0.20503 0.0
H2929 H 0.32221 0.10545 0.9889 0.0
H2930 H 0.31677 0.11384 0.25417 0.0
H2931 H 0.32236 0.13327 0.03753 0.0
H2932 H 0.33236 0.18122 0.15599 0.0
H2933 H 0.33368 0.15305 0.10912 0.0
H2934 H 0.30376 0.13813 0.25484 0.0
H2935 H 0.30252 0.16609 0.30203 0.0
C2936 C 0.31773 0.09601 0.16797 0.0
C2937 C 0.3191 0.09324 0.09277 0.0
C2938 C 0.31795 0.11215 0.19609 0.0
C2939 C 0.31954 0.12591 0.14981 0.0
C2940 C 0.32124 0.12306 0.07507 0.0
C2941 C 0.32103 0.10701 0.04707 0.0
C2942 C 0.32592 0.17202 0.17725 0.0
C2943 C 0.31726 0.17606 0.23257 0.0
C2944 C 0.32672 0.15579 0.15062 0.0
C2945 C 0.31889 0.14319 0.17854 0.0
C2946 C 0.31014 0.14733 0.23308 0.0
C2947 C 0.30936 0.16348 0.25973 0.0
H2948 H 0.47985 0.60476 0.29927 0.0
H2949 H 0.45157 0.58935 0.14425 0.0
H2950 H 0.47893 0.63272 0.25177 0.0
H2951 H 0.45049 0.61754 0.09718 0.0
H2952 H 0.46216 0.66566 0.98223 0.0
H2953 H 0.46199 0.63773 0.02964 0.0
H2954 H 0.4659 0.65678 0.24811 0.0
H2955 H 0.46665 0.68487 0.20036 0.0
C2956 C 0.47342 0.60732 0.25487 0.0
C2957 C 0.46585 0.59468 0.2254 0.0
C2958 C 0.47281 0.62346 0.22804 0.0
C2959 C 0.46454 0.62754 0.17105 0.0
C2960 C 0.45707 0.61486 0.14065 0.0
C2961 C 0.45773 0.59862 0.16741 0.0
C2962 C 0.46298 0.664 0.04055 0.0
C2963 C 0.46445 0.67771 0.08717 0.0
C2964 C 0.46274 0.64788 0.06782 0.0
C2965 C 0.46397 0.64488 0.14276 0.0
C2966 C 0.46511 0.65857 0.18987 0.0
C2967 C 0.46536 0.67477 0.16249 0.0
H2968 H 0.32859 0.60448 0.49055 0.0
H2969 H 0.31456 0.58622 0.69627 0.0
H2970 H 0.32927 0.63233 0.53938 0.0
H2971 H 0.31502 0.6143 0.74504 0.0
H2972 H 0.32762 0.6643 0.83124 0.0
H2973 H 0.32836 0.63637 0.78304 0.0
H2974 H 0.31578 0.65447 0.57405 0.0
H2975 H 0.31526 0.68257 0.62215 0.0
C2976 C 0.32564 0.60639 0.5464 0.0
C2977 C 0.32155 0.59301 0.58942 0.0
C2978 C 0.32596 0.62245 0.57428 0.0
C2979 C 0.32211 0.62571 0.64605 0.0
C2980 C 0.31822 0.61229 0.68974 0.0
C2981 C 0.31797 0.59613 0.66185 0.0
C2982 C 0.32505 0.66237 0.7748 0.0
C2983 C 0.32143 0.67579 0.73061 0.0
C2984 C 0.3254 0.64628 0.74728 0.0
C2985 C 0.32206 0.64303 0.6747 0.0
C2986 C 0.3186 0.65647 0.62999 0.0
C2987 C 0.31832 0.67265 0.65752 0.0
H2988 H 0.46934 0.08636 0.62356 0.0
H2989 H 0.46196 0.10584 0.83866 0.0
H2990 H 0.46918 0.11443 0.57496 0.0
H2991 H 0.46236 0.13368 0.79076 0.0
H2992 H 0.45323 0.18185 0.67271 0.0
H2993 H 0.45165 0.15362 0.71859 0.0
H2994 H 0.48203 0.13872 0.57598 0.0
H2995 H 0.48348 0.16676 0.52953 0.0
C2996 C 0.46756 0.09651 0.66051 0.0
C2997 C 0.46565 0.09366 0.7353 0.0
C2998 C 0.46763 0.11269 0.63273 0.0
C2999 C 0.46582 0.12643 0.67892 0.0
C3000 C 0.46364 0.1235 0.75319 0.0
C3001 C 0.46355 0.10742 0.78082 0.0
C3002 C 0.45972 0.17264 0.65198 0.0
C3003 C 0.46856 0.1767 0.59771 0.0
C3004 C 0.45877 0.15637 0.67805 0.0
C3005 C 0.46665 0.14376 0.65071 0.0
C3006 C 0.4756 0.14794 0.59728 0.0
C3007 C 0.47651 0.16412 0.5711 0.0
H3008 H 0.16724 0.99465 0.49387 0.0
H3009 H 0.178 0.01385 0.70426 0.0
H3010 H 0.14526 0.99288 0.5356 0.0
H3011 H 0.15628 0.01225 0.74508 0.0
H3012 H 0.11721 0.9958 0.82099 0.0
H3013 H 0.13915 0.99387 0.77899 0.0
H3014 H 0.12785 0.01114 0.56646 0.0
H3015 H 0.10613 0.01286 0.60764 0.0
C3016 C 0.16497 0.99846 0.54886 0.0
C3017 C 0.17449 0.00451 0.59514 0.0
C3018 C 0.15234 0.99751 0.57286 0.0
C3019 C 0.1489 1.00241 0.64404 0.0
C3020 C 0.15849 0.00814 0.69043 0.0
C3021 C 0.17101 0.00921 0.66643 0.0
C3022 C 0.1194 0.99907 0.76523 0.0
C3023 C 0.10982 0.00461 0.71823 0.0
C3024 C 0.13201 0.99805 0.74108 0.0
C3025 C 0.13537 1.00238 0.66906 0.0
C3026 C 0.12571 0.0075 0.62185 0.0
C3027 C 0.11319 0.00864 0.64599 0.0
H3028 H 0.16808 0.27602 0.82897 0.0
H3029 H 0.17855 0.26079 0.6118 0.0
H3030 H 0.14601 0.27833 0.78939 0.0
H3031 H 0.15676 0.26273 0.57325 0.0
H3032 H 0.11705 0.27717 0.50526 0.0
H3033 H 0.13905 0.2799 0.54524 0.0
H3034 H 0.12888 0.26052 0.75631 0.0
H3035 H 0.10714 0.25813 0.71746 0.0
C3036 C 0.16573 0.27327 0.77289 0.0
C3037 C 0.17517 0.26806 0.72413 0.0
C3038 C 0.15305 0.27449 0.7501 0.0
C3039 C 0.14948 0.27065 0.67784 0.0
C3040 C 0.15903 0.26599 0.62888 0.0
C3041 C 0.17161 0.26472 0.65155 0.0
C3042 C 0.11951 0.2736 0.56027 0.0
C3043 C 0.11023 0.26729 0.60751 0.0
C3044 C 0.13216 0.2751 0.58331 0.0
C3045 C 0.13586 0.27041 0.65434 0.0
C3046 C 0.12649 0.26449 0.70176 0.0
C3047 C 0.11394 0.26295 0.67884 0.0
H3048 H 0.86674 0.02831 0.57162 0.0
H3049 H 0.85611 0.00819 0.36268 0.0
H3050 H 0.88862 0.03064 0.529 0.0
H3051 H 0.87776 0.01028 0.32105 0.0
H3052 H 0.91701 0.0257 0.24411 0.0
H3053 H 0.89499 0.02818 0.28511 0.0
H3054 H 0.90603 0.01263 0.50069 0.0
H3055 H 0.92773 0.01042 0.46069 0.0
C3056 C 0.86901 0.02444 0.51672 0.0
C3057 C 0.85958 0.01791 0.47123 0.0
C3058 C 0.8816 0.02571 0.49217 0.0
C3059 C 0.88507 0.02062 0.42127 0.0
C3060 C 0.87553 0.01453 0.37545 0.0
C3061 C 0.86305 0.01318 0.39997 0.0
C3062 C 0.91473 0.02298 0.30033 0.0
C3063 C 0.92422 0.0177 0.34854 0.0
C3064 C 0.90209 0.02431 0.32393 0.0
C3065 C 0.89863 0.02058 0.39653 0.0
C3066 C 0.90823 0.01582 0.44484 0.0
C3067 C 0.92075 0.01439 0.42133 0.0
H3068 H 0.92758 0.76551 0.36957 0.0
H3069 H 0.91779 0.74056 0.56974 0.0
H3070 H 0.90598 0.76301 0.32757 0.0
H3071 H 0.89599 0.73784 0.52668 0.0
H3072 H 0.85607 0.75645 0.46536 0.0
H3073 H 0.87781 0.75487 0.50509 0.0
H3074 H 0.88956 0.74468 0.28444 0.0
H3075 H 0.86749 0.74658 0.24389 0.0
C3076 C 0.92084 0.75941 0.40489 0.0
C3077 C 0.92453 0.75338 0.47382 0.0
C3078 C 0.90839 0.75782 0.38008 0.0
C3079 C 0.89912 0.75019 0.42325 0.0
C3080 C 0.9028 0.74396 0.49194 0.0
C3081 C 0.91534 0.74548 0.51677 0.0
C3082 C 0.86323 0.75377 0.42489 0.0
C3083 C 0.85994 0.75182 0.35092 0.0
C3084 C 0.87578 0.7527 0.44813 0.0
C3085 C 0.88558 0.7497 0.39833 0.0
C3086 C 0.8823 0.74722 0.32446 0.0
C3087 C 0.86963 0.74817 0.3011 0.0
H3088 H 0.16807 0.48983 1.00015 0.0
H3089 H 0.17837 0.50691 0.21472 0.0
H3090 H 0.14604 0.48728 0.04042 0.0
H3091 H 0.1566 0.50463 0.25412 0.0
H3092 H 0.11705 0.48958 0.32441 0.0
H3093 H 0.13906 0.48681 0.28402 0.0
H3094 H 0.12873 0.50533 0.07186 0.0
H3095 H 0.10698 0.50784 0.11136 0.0
C3096 C 0.1657 0.49291 0.05589 0.0
C3097 C 0.17507 0.49872 0.10365 0.0
C3098 C 0.15303 0.49155 0.07904 0.0
C3099 C 0.14942 0.4958 0.1508 0.0
C3100 C 0.15892 0.50104 0.19891 0.0
C3101 C 0.17147 0.5025 0.17578 0.0
C3102 C 0.11947 0.49288 0.26898 0.0
C3103 C 0.11016 0.49908 0.22169 0.0
C3104 C 0.13212 0.49139 0.24576 0.0
C3105 C 0.13579 0.49589 0.1744 0.0
C3106 C 0.12636 0.50154 0.12673 0.0
C3107 C 0.11382 0.50313 0.14994 0.0
H3108 H 0.17452 0.7419 0.16617 0.0
H3109 H 0.1703 0.78968 0.26796 0.0
H3110 H 0.1531 0.74338 0.12103 0.0
H3111 H 0.14838 0.79112 0.22185 0.0
H3112 H 0.11372 0.79035 0.04798 0.0
H3113 H 0.13564 0.79181 0.09376 0.0
H3114 H 0.13192 0.74255 0.18087 0.0
H3115 H 0.11045 0.74108 0.136 0.0
C3116 C 0.169 0.75278 0.17928 0.0
C3117 C 0.17422 0.76566 0.22125 0.0
C3118 C 0.15664 0.7536 0.15321 0.0
C3119 C 0.14897 0.76736 0.16752 0.0
C3120 C 0.15409 0.78038 0.20932 0.0
C3121 C 0.16657 0.77948 0.23652 0.0
C3122 C 0.11768 0.7798 0.07611 0.0
C3123 C 0.1103 0.76555 0.08767 0.0
C3124 C 0.13016 0.78072 0.10323 0.0
C3125 C 0.13555 0.7673 0.14125 0.0
C3126 C 0.12816 0.75309 0.15165 0.0
C3127 C 0.11579 0.75225 0.12567 0.0
H3128 H 0.92905 0.51304 0.97306 0.0
H3129 H 0.91784 0.52308 0.75146 0.0
H3130 H 0.90723 0.51441 0.01207 0.0
H3131 H 0.89574 0.52476 0.79127 0.0
H3132 H 0.85753 0.50431 0.874 0.0
H3133 H 0.87923 0.50655 0.83331 0.0
H3134 H 0.88901 0.53143 0.03337 0.0
H3135 H 0.8671 0.52896 0.07511 0.0
C3136 C 0.92193 0.5157 0.93239 0.0
C3137 C 0.92531 0.51779 0.8586 0.0
C3138 C 0.90934 0.51663 0.95522 0.0
C3139 C 0.89958 0.51965 0.90519 0.0
C3140 C 0.90295 0.5222 0.83149 0.0
C3141 C 0.91565 0.52136 0.80855 0.0
C3142 C 0.86425 0.51029 0.9098 0.0
C3143 C 0.86045 0.51632 0.97857 0.0
C3144 C 0.87676 0.51173 0.88577 0.0
C3145 C 0.886 0.51921 0.92959 0.0
C3146 C 0.88222 0.52543 0.99816 0.0
C3147 C 0.86962 0.52406 0.0222 0.0
H3148 H 0.86761 0.24344 0.75072 0.0
H3149 H 0.85715 0.26189 0.96302 0.0
H3150 H 0.88954 0.24081 0.79206 0.0
H3151 H 0.87884 0.25945 0.00348 0.0
H3152 H 0.91792 0.24272 0.07698 0.0
H3153 H 0.89593 0.24082 0.03554 0.0
H3154 H 0.90707 0.25865 0.82352 0.0
H3155 H 0.9288 0.26034 0.86407 0.0
C3156 C 0.86993 0.24687 0.80608 0.0
C3157 C 0.86052 0.25301 0.85296 0.0
C3158 C 0.88254 0.24543 0.82988 0.0
C3159 C 0.88606 0.24992 0.90143 0.0
C3160 C 0.87657 0.25565 0.94851 0.0
C3161 C 0.86406 0.25721 0.92471 0.0
C3162 C 0.91568 0.24607 0.02139 0.0
C3163 C 0.9252 0.25182 0.97441 0.0
C3164 C 0.90304 0.24508 0.99758 0.0
C3165 C 0.89962 0.24962 0.92591 0.0
C3166 C 0.90925 0.25485 0.87862 0.0
C3167 C 0.92178 0.25597 0.90243 0.0
H3168 H 0.67787 0.00897 0.21081 0.0
H3169 H 0.66758 0.99306 0.99443 0.0
H3170 H 0.65614 0.00652 0.24993 0.0
H3171 H 0.64554 0.99032 0.03454 0.0
H3172 H 0.60645 0.01033 0.10915 0.0
H3173 H 0.62814 0.00802 0.06845 0.0
H3174 H 0.63876 0.98855 0.27847 0.0
H3175 H 0.61683 0.99114 0.32016 0.0
C3176 C 0.67098 0.00481 0.17132 0.0
C3177 C 0.67458 1.0014 0.09882 0.0
C3178 C 0.65844 0.00323 0.19434 0.0
C3179 C 0.64895 0.99823 0.1458 0.0
C3180 C 0.65254 0.99439 0.07353 0.0
C3181 C 0.66521 0.99587 0.05043 0.0
C3182 C 0.61335 0.00547 0.14704 0.0
C3183 C 0.6098 1.00111 0.21864 0.0
C3184 C 0.62585 0.00398 0.12309 0.0
C3185 C 0.63534 0.99813 0.16982 0.0
C3186 C 0.63178 0.99331 0.24095 0.0
C3187 C 0.61917 0.99471 0.26493 0.0
H3188 H 0.61685 0.27997 0.00794 0.0
H3189 H 0.60743 0.25548 0.20974 0.0
H3190 H 0.63874 0.28272 0.0493 0.0
H3191 H 0.62913 0.25793 0.24999 0.0
H3192 H 0.66776 0.27413 0.33064 0.0
H3193 H 0.64565 0.27598 0.29153 0.0
H3194 H 0.65701 0.26603 0.06999 0.0
H3195 H 0.67884 0.26455 0.10832 0.0
C3196 C 0.6194 0.27517 0.06094 0.0
C3197 C 0.61028 0.26739 0.10487 0.0
C3198 C 0.63199 0.27669 0.08477 0.0
C3199 C 0.63582 0.27056 0.15336 0.0
C3200 C 0.62662 0.26306 0.19751 0.0
C3201 C 0.61411 0.26149 0.17375 0.0
C3202 C 0.66554 0.27257 0.27352 0.0
C3203 C 0.67517 0.26906 0.22306 0.0
C3204 C 0.65283 0.2735 0.25098 0.0
C3205 C 0.64942 0.27107 0.17731 0.0
C3206 C 0.65914 0.26816 0.12685 0.0
C3207 C 0.67175 0.26717 0.14927 0.0
H3208 H 0.42863 0.01279 0.97124 0.0
H3209 H 0.41784 0.02593 0.75208 0.0
H3210 H 0.40683 0.01458 0.01015 0.0
H3211 H 0.39579 0.02809 0.79189 0.0
H3212 H 0.35732 0.00744 0.86672 0.0
H3213 H 0.37903 0.01005 0.82787 0.0
H3214 H 0.38873 0.03148 0.0357 0.0
H3215 H 0.36671 0.02853 0.0758 0.0
C3216 C 0.42162 0.01622 0.93111 0.0
C3217 C 0.4251 0.01902 0.8579 0.0
C3218 C 0.40904 0.01742 0.95396 0.0
C3219 C 0.3994 0.02143 0.90453 0.0
C3220 C 0.40289 0.02474 0.8316 0.0
C3221 C 0.41557 0.0236 0.80865 0.0
C3222 C 0.36401 0.01276 0.90468 0.0
C3223 C 0.36015 0.0176 0.97515 0.0
C3224 C 0.37654 0.01443 0.88169 0.0
C3225 C 0.38578 0.021 0.92818 0.0
C3226 C 0.38194 0.02619 0.99837 0.0
C3227 C 0.36929 0.02458 0.02145 0.0
H3228 H 0.35646 0.7636 0.95574 0.0
H3229 H 0.36725 0.7442 0.74563 0.0
H3230 H 0.37818 0.76195 0.99655 0.0
H3231 H 0.3892 0.74236 0.78735 0.0
H3232 H 0.42832 0.76234 0.85823 0.0
H3233 H 0.4066 0.76057 0.8175 0.0
H3234 H 0.39532 0.74364 0.03074 0.0
H3235 H 0.41728 0.74563 0.07233 0.0
C3236 C 0.36345 0.7589 0.91798 0.0
C3237 C 0.36 0.75417 0.84675 0.0
C3238 C 0.37597 0.7578 0.94198 0.0
C3239 C 0.38556 0.752 0.89564 0.0
C3240 C 0.38212 0.74704 0.82457 0.0
C3241 C 0.36951 0.74804 0.80056 0.0
C3242 C 0.42127 0.75818 0.89684 0.0
C3243 C 0.42465 0.75428 0.96916 0.0
C3244 C 0.40875 0.75701 0.87295 0.0
C3245 C 0.39909 0.75197 0.92049 0.0
C3246 C 0.40246 0.74775 0.99258 0.0
C3247 C 0.41508 0.74881 0.0165 0.0
H3248 H 0.67429 0.52955 0.63972 0.0
H3249 H 0.67115 0.48018 0.55263 0.0
H3250 H 0.65276 0.52809 0.68407 0.0
H3251 H 0.64919 0.47872 0.59796 0.0
H3252 H 0.61447 0.4808 0.77168 0.0
H3253 H 0.63641 0.47948 0.72584 0.0
H3254 H 0.63157 0.5271 0.62414 0.0
H3255 H 0.61009 0.52845 0.66894 0.0
C3256 C 0.66896 0.51836 0.62948 0.0
C3257 C 0.6745 0.50503 0.5919 0.0
C3258 C 0.65656 0.51753 0.65515 0.0
C3259 C 0.6492 0.50329 0.64493 0.0
C3260 C 0.65464 0.48984 0.6073 0.0
C3261 C 0.66714 0.49076 0.58044 0.0
C3262 C 0.61817 0.49101 0.74009 0.0
C3263 C 0.61047 0.50475 0.72446 0.0
C3264 C 0.63067 0.49017 0.71306 0.0
C3265 C 0.63577 0.50319 0.6711 0.0
C3266 C 0.62804 0.51689 0.65645 0.0
C3267 C 0.61566 0.51763 0.68232 0.0
H3268 H 0.61712 0.77682 0.49431 0.0
H3269 H 0.60653 0.76265 0.71267 0.0
H3270 H 0.6392 0.77909 0.53384 0.0
H3271 H 0.62831 0.76456 0.75119 0.0
H3272 H 0.66784 0.77925 0.81919 0.0
H3273 H 0.64595 0.78194 0.77775 0.0
H3274 H 0.65635 0.76136 0.5693 0.0
H3275 H 0.67805 0.759 0.6097 0.0
C3276 C 0.61944 0.7743 0.55063 0.0
C3277 C 0.60996 0.7694 0.59978 0.0
C3278 C 0.63213 0.77549 0.57338 0.0
C3279 C 0.63566 0.77196 0.64602 0.0
C3280 C 0.62607 0.76759 0.69526 0.0
C3281 C 0.6135 0.76633 0.67262 0.0
C3282 C 0.66547 0.77543 0.76439 0.0
C3283 C 0.6748 0.76877 0.71839 0.0
C3284 C 0.65287 0.77689 0.74054 0.0
C3285 C 0.64926 0.77182 0.6699 0.0
C3286 C 0.65869 0.76561 0.62354 0.0
C3287 C 0.6712 0.7641 0.64731 0.0
H3288 H 0.42008 0.5375 0.29704 0.0
H3289 H 0.42502 0.48928 0.39329 0.0
H3290 H 0.39826 0.53829 0.34405 0.0
H3291 H 0.40347 0.49002 0.4389 0.0
H3292 H 0.36019 0.48857 0.42535 0.0
H3293 H 0.38181 0.48964 0.38104 0.0
H3294 H 0.38619 0.53835 0.47286 0.0
H3295 H 0.36428 0.53722 0.51863 0.0
C3296 C 0.41649 0.52702 0.32729 0.0
C3297 C 0.42432 0.51328 0.34082 0.0
C3298 C 0.40406 0.52755 0.35501 0.0
C3299 C 0.39911 0.51423 0.39552 0.0
C3300 C 0.40691 0.50047 0.40779 0.0
C3301 C 0.4193 0.50005 0.38143 0.0
C3302 C 0.36574 0.49951 0.43687 0.0
C3303 C 0.36047 0.51277 0.47614 0.0
C3304 C 0.37818 0.5001 0.4113 0.0
C3305 C 0.38576 0.51409 0.423 0.0
C3306 C 0.38057 0.52744 0.46239 0.0
C3307 C 0.36808 0.52671 0.48939 0.0
H3308 H 0.4179 0.24318 0.58085 0.0
H3309 H 0.42847 0.25704 0.36212 0.0
H3310 H 0.39582 0.24082 0.54147 0.0
H3311 H 0.40667 0.25502 0.32364 0.0
H3312 H 0.36701 0.24027 0.257 0.0
H3313 H 0.38893 0.23757 0.29801 0.0
H3314 H 0.37876 0.25876 0.50563 0.0
H3315 H 0.35704 0.26116 0.46565 0.0
C3316 C 0.41558 0.24558 0.52445 0.0
C3317 C 0.42504 0.25045 0.47515 0.0
C3318 C 0.40288 0.24435 0.50178 0.0
C3319 C 0.39935 0.24779 0.42909 0.0
C3320 C 0.40892 0.25207 0.37964 0.0
C3321 C 0.4215 0.25339 0.40222 0.0
C3322 C 0.36944 0.24423 0.31151 0.0
C3323 C 0.36017 0.25107 0.35739 0.0
C3324 C 0.38205 0.24276 0.33512 0.0
C3325 C 0.38574 0.24798 0.40543 0.0
C3326 C 0.37637 0.25439 0.45167 0.0
C3327 C 0.36384 0.25593 0.42811 0.0
loop_
_geom_bond_atom_site_label_1
_geom_bond_atom_site_label_2
_geom_bond_distance
_geom_bond_site_symmetry_2
_ccdc_geom_bond_type
Zn0 N4 2.020 . S
Zn0 O8 2.019 . S
Zn0 N10 2.119 . S
Zn0 O18 1.975 . S
C1 N2 1.334 . S
C1 N5 1.336 . S
N2 C1 1.334 . S
N2 C3 1.334 . S
C3 N2 1.334 . S
C3 N4 1.336 . S
N4 Zn0 2.020 . S
N4 C3 1.336 . S
N4 N5 1.354 . S
N5 C1 1.336 . S
N5 N4 1.354 . S
N5 Zn9 2.020 1_545 S
C6 O7 1.244 . S
C6 O30 1.257 1_545 S
O7 C6 1.244 . S
O8 Zn0 2.019 . S
O8 C28 1.257 . S
Zn9 N5 2.020 1_565 S
Zn9 O16 1.975 1_565 S
Zn9 N25 2.119 . S
Zn9 O30 2.019 . S
N10 Zn0 2.119 . S
N10 C12 1.334 . S
N10 C13 1.328 . S
C11 C12 1.391 . S
C11 N14 1.329 . S
C11 H32 0.930 . S
C12 N10 1.334 . S
C12 C11 1.391 . S
C12 H19 0.930 . S
C13 N10 1.328 . S
C13 C15 1.392 . S
C13 H20 0.930 . S
N14 C11 1.329 . S
N14 C15 1.331 . S
C15 C13 1.392 . S
C15 N14 1.331 . S
O16 Zn9 1.975 1_545 S
O16 C17 1.252 . S
C17 O16 1.252 . S
C17 O18 1.252 . S
O18 Zn0 1.975 . S
O18 C17 1.252 . S
H19 C12 0.930 . S
H20 C13 0.930 . S
C21 C22 1.392 . S
C21 N25 1.328 . S
C21 H27 0.930 . S
C22 C21 1.392 . S
C22 N26 1.331 . S
C23 C24 1.391 . S
C23 N26 1.329 . S
C23 H33 0.930 . S
C24 C23 1.391 . S
C24 N25 1.334 . S
C24 H31 0.930 . S
N25 Zn9 2.119 . S
N25 C21 1.328 . S
N25 C24 1.334 . S
N26 C22 1.331 . S
N26 C23 1.329 . S
H27 C21 0.930 . S
C28 O8 1.257 . S
C28 O29 1.244 1_545 S
O29 C28 1.244 1_565 S
O30 C6 1.257 1_565 S
O30 Zn9 2.019 . S
H31 C24 0.930 . S
H32 C11 0.930 . S
H33 C23 0.930 . S
Zn34 N38 2.020 . S
Zn34 O42 2.019 . S
Zn34 N44 2.119 . S
Zn34 O52 1.975 . S
C35 N36 1.334 . S
C35 N39 1.336 . S
N36 C35 1.334 . S
N36 C37 1.334 . S
C37 N36 1.334 . S
C37 N38 1.336 . S
N38 Zn34 2.020 . S
N38 C37 1.336 . S
N38 N39 1.354 . S
N39 C35 1.336 . S
N39 N38 1.354 . S
N39 Zn43 2.020 . S
C40 O41 1.244 . S
C40 O64 1.257 . S
O41 C40 1.244 . S
O42 Zn34 2.019 . S
O42 C62 1.257 . S
Zn43 N39 2.020 . S
Zn43 O50 1.975 . S
Zn43 N59 2.119 . S
Zn43 O64 2.019 . S
N44 Zn34 2.119 . S
N44 C46 1.334 . S
N44 C47 1.328 . S
C45 C46 1.391 . S
C45 N48 1.329 . S
C45 H66 0.930 . S
C46 N44 1.334 . S
C46 C45 1.391 . S
C46 H53 0.930 . S
C47 N44 1.328 . S
C47 C49 1.392 . S
C47 H54 0.930 . S
N48 C45 1.329 . S
N48 C49 1.331 . S
C49 C47 1.392 . S
C49 N48 1.331 . S
O50 Zn43 1.975 . S
O50 C51 1.252 . S
C51 O50 1.252 . S
C51 O52 1.252 . S
O52 Zn34 1.975 . S
O52 C51 1.252 . S
H53 C46 0.930 . S
H54 C47 0.930 . S
C55 C56 1.392 . S
C55 N59 1.328 . S
C55 H61 0.930 . S
C56 C55 1.392 . S
C56 N60 1.331 . S
C57 C58 1.391 . S
C57 N60 1.329 . S
C57 H67 0.930 . S
C58 C57 1.391 . S
C58 N59 1.334 . S
C58 H65 0.930 . S
N59 Zn43 2.119 . S
N59 C55 1.328 . S
N59 C58 1.334 . S
N60 C56 1.331 . S
N60 C57 1.329 . S
H61 C55 0.930 . S
C62 O42 1.257 . S
C62 O63 1.244 . S
O63 C62 1.244 . S
O64 C40 1.257 . S
O64 Zn43 2.019 . S
H65 C58 0.930 . S
H66 C45 0.930 . S
H67 C57 0.930 . S
Zn68 N72 2.020 . S
Zn68 O76 2.019 . S
Zn68 N78 2.119 . S
Zn68 O86 1.975 . S
C69 N70 1.334 . S
C69 N73 1.336 . S
N70 C69 1.334 . S
N70 C71 1.334 . S
C71 N70 1.334 . S
C71 N72 1.336 . S
N72 Zn68 2.020 . S
N72 C71 1.336 . S
N72 N73 1.354 . S
N73 C69 1.336 . S
N73 N72 1.354 . S
N73 Zn77 2.020 . S
C74 O75 1.244 . S
C74 O98 1.257 . S
O75 C74 1.244 . S
O76 Zn68 2.019 . S
O76 C96 1.257 . S
Zn77 N73 2.020 . S
Zn77 O84 1.975 . S
Zn77 N93 2.119 . S
Zn77 O98 2.019 . S
N78 Zn68 2.119 . S
N78 C80 1.334 . S
N78 C81 1.328 . S
C79 C80 1.391 . S
C79 N82 1.329 . S
C79 H100 0.930 . S
C80 N78 1.334 . S
C80 C79 1.391 . S
C80 H87 0.930 . S
C81 N78 1.328 . S
C81 C83 1.392 . S
C81 H88 0.930 . S
N82 C79 1.329 . S
N82 C83 1.331 . S
C83 C81 1.392 . S
C83 N82 1.331 . S
O84 Zn77 1.975 . S
O84 C85 1.252 . S
C85 O84 1.252 . S
C85 O86 1.252 . S
O86 Zn68 1.975 . S
O86 C85 1.252 . S
H87 C80 0.930 . S
H88 C81 0.930 . S
C89 C90 1.392 . S
C89 N93 1.328 . S
C89 H95 0.930 . S
C90 C89 1.392 . S
C90 N94 1.331 . S
C91 C92 1.391 . S
C91 N94 1.329 . S
C91 H101 0.930 . S
C92 C91 1.391 . S
C92 N93 1.334 . S
C92 H99 0.930 . S
N93 Zn77 2.119 . S
N93 C89 1.328 . S
N93 C92 1.334 . S
N94 C90 1.331 . S
N94 C91 1.329 . S
H95 C89 0.930 . S
C96 O76 1.257 . S
C96 O97 1.244 . S
O97 C96 1.244 . S
O98 C74 1.257 . S
O98 Zn77 2.019 . S
H99 C92 0.930 . S
H100 C79 0.930 . S
H101 C91 0.930 . S
Zn102 N106 2.020 1_565 S
Zn102 O110 2.019 . S
Zn102 N112 2.119 . S
Zn102 O120 1.975 1_565 S
C103 N104 1.334 . S
C103 N107 1.336 . S
N104 C103 1.334 . S
N104 C105 1.334 . S
C105 N104 1.334 . S
C105 N106 1.336 . S
N106 Zn102 2.020 1_545 S
N106 C105 1.336 . S
N106 N107 1.354 . S
N107 C103 1.336 . S
N107 N106 1.354 . S
N107 Zn111 2.020 . S
C108 O109 1.244 1_545 S
C108 O132 1.257 . S
O109 C108 1.244 1_565 S
O110 Zn102 2.019 . S
O110 C130 1.257 1_565 S
Zn111 N107 2.020 . S
Zn111 O118 1.975 . S
Zn111 N127 2.119 . S
Zn111 O132 2.019 . S
N112 Zn102 2.119 . S
N112 C114 1.334 . S
N112 C115 1.328 . S
C113 C114 1.391 . S
C113 N116 1.329 . S
C113 H134 0.930 . S
C114 N112 1.334 . S
C114 C113 1.391 . S
C114 H121 0.930 . S
C115 N112 1.328 . S
C115 C117 1.392 . S
C115 H122 0.930 . S
N116 C113 1.329 . S
N116 C117 1.331 . S
C117 C115 1.392 . S
C117 N116 1.331 . S
O118 Zn111 1.975 . S
O118 C119 1.252 . S
C119 O118 1.252 . S
C119 O120 1.252 . S
O120 Zn102 1.975 1_545 S
O120 C119 1.252 . S
H121 C114 0.930 . S
H122 C115 0.930 . S
C123 C124 1.392 . S
C123 N127 1.328 . S
C123 H129 0.930 . S
C124 C123 1.392 . S
C124 N128 1.331 . S
C125 C126 1.391 . S
C125 N128 1.329 . S
C125 H135 0.930 . S
C126 C125 1.391 . S
C126 N127 1.334 . S
C126 H133 0.930 . S
N127 Zn111 2.119 . S
N127 C123 1.328 . S
N127 C126 1.334 . S
N128 C124 1.331 . S
N128 C125 1.329 . S
H129 C123 0.930 . S
C130 O110 1.257 1_545 S
C130 O131 1.244 . S
O131 C130 1.244 . S
O132 C108 1.257 . S
O132 Zn111 2.019 . S
H133 C126 0.930 . S
H134 C113 0.930 . S
H135 C125 0.930 . S
Zn136 N140 2.020 . S
Zn136 O144 2.019 . S
Zn136 N146 2.119 . S
Zn136 O154 1.975 . S
C137 N138 1.334 . S
C137 N141 1.336 . S
N138 C137 1.334 . S
N138 C139 1.334 . S
C139 N138 1.334 . S
C139 N140 1.336 . S
N140 Zn136 2.020 . S
N140 C139 1.336 . S
N140 N141 1.354 . S
N141 C137 1.336 . S
N141 N140 1.354 . S
N141 Zn145 2.020 1_545 S
C142 O143 1.244 . S
C142 O166 1.257 1_545 S
O143 C142 1.244 . S
O144 Zn136 2.019 . S
O144 C164 1.257 . S
Zn145 N141 2.020 1_565 S
Zn145 O152 1.975 1_565 S
Zn145 N161 2.119 . S
Zn145 O166 2.019 . S
N146 Zn136 2.119 . S
N146 C148 1.334 . S
N146 C149 1.328 . S
C147 C148 1.391 . S
C147 N150 1.329 . S
C147 H168 0.930 . S
C148 N146 1.334 . S
C148 C147 1.391 . S
C148 H155 0.930 . S
C149 N146 1.328 . S
C149 C151 1.392 . S
C149 H156 0.930 . S
N150 C147 1.329 . S
N150 C151 1.331 . S
C151 C149 1.392 . S
C151 N150 1.331 . S
O152 Zn145 1.975 1_545 S
O152 C153 1.252 . S
C153 O152 1.252 . S
C153 O154 1.252 . S
O154 Zn136 1.975 . S
O154 C153 1.252 . S
H155 C148 0.930 . S
H156 C149 0.930 . S
C157 C158 1.392 . S
C157 N161 1.328 . S
C157 H163 0.930 . S
C158 C157 1.392 . S
C158 N162 1.331 . S
C159 C160 1.391 . S
C159 N162 1.329 . S
C159 H169 0.930 . S
C160 C159 1.391 . S
C160 N161 1.334 . S
C160 H167 0.930 . S
N161 Zn145 2.119 . S
N161 C157 1.328 . S
N161 C160 1.334 . S
N162 C158 1.331 . S
N162 C159 1.329 . S
H163 C157 0.930 . S
C164 O144 1.257 . S
C164 O165 1.244 1_545 S
O165 C164 1.244 1_565 S
O166 C142 1.257 1_565 S
O166 Zn145 2.019 . S
H167 C160 0.930 . S
H168 C147 0.930 . S
H169 C159 0.930 . S
Zn170 N174 2.020 . S
Zn170 O178 2.019 . S
Zn170 N180 2.119 . S
Zn170 O188 1.975 . S
C171 N172 1.334 . S
C171 N175 1.336 . S
N172 C171 1.334 . S
N172 C173 1.334 . S
C173 N172 1.334 . S
C173 N174 1.336 . S
N174 Zn170 2.020 . S
N174 C173 1.336 . S
N174 N175 1.354 . S
N175 C171 1.336 . S
N175 N174 1.354 . S
N175 Zn179 2.020 . S
C176 O177 1.244 . S
C176 O200 1.257 . S
O177 C176 1.244 . S
O178 Zn170 2.019 . S
O178 C198 1.257 . S
Zn179 N175 2.020 . S
Zn179 O186 1.975 . S
Zn179 N195 2.119 . S
Zn179 O200 2.019 . S
N180 Zn170 2.119 . S
N180 C182 1.334 . S
N180 C183 1.328 . S
C181 C182 1.391 . S
C181 N184 1.329 . S
C181 H202 0.930 . S
C182 N180 1.334 . S
C182 C181 1.391 . S
C182 H189 0.930 . S
C183 N180 1.328 . S
C183 C185 1.392 . S
C183 H190 0.930 . S
N184 C181 1.329 . S
N184 C185 1.331 . S
C185 C183 1.392 . S
C185 N184 1.331 . S
O186 Zn179 1.975 . S
O186 C187 1.252 . S
C187 O186 1.252 . S
C187 O188 1.252 . S
O188 Zn170 1.975 . S
O188 C187 1.252 . S
H189 C182 0.930 . S
H190 C183 0.930 . S
C191 C192 1.392 . S
C191 N195 1.328 . S
C191 H197 0.930 . S
C192 C191 1.392 . S
C192 N196 1.331 . S
C193 C194 1.391 . S
C193 N196 1.329 . S
C193 H203 0.930 . S
C194 C193 1.391 . S
C194 N195 1.334 . S
C194 H201 0.930 . S
N195 Zn179 2.119 . S
N195 C191 1.328 . S
N195 C194 1.334 . S
N196 C192 1.331 . S
N196 C193 1.329 . S
H197 C191 0.930 . S
C198 O178 1.257 . S
C198 O199 1.244 . S
O199 C198 1.244 . S
O200 C176 1.257 . S
O200 Zn179 2.019 . S
H201 C194 0.930 . S
H202 C181 0.930 . S
H203 C193 0.930 . S
Zn204 N208 2.020 . S
Zn204 O212 2.019 . S
Zn204 N214 2.119 . S
Zn204 O222 1.975 . S
C205 N206 1.334 . S
C205 N209 1.336 . S
N206 C205 1.334 . S
N206 C207 1.334 . S
C207 N206 1.334 . S
C207 N208 1.336 . S
N208 Zn204 2.020 . S
N208 C207 1.336 . S
N208 N209 1.354 . S
N209 C205 1.336 . S
N209 N208 1.354 . S
N209 Zn213 2.020 . S
C210 O211 1.244 . S
C210 O234 1.257 . S
O211 C210 1.244 . S
O212 Zn204 2.019 . S
O212 C232 1.257 . S
Zn213 N209 2.020 . S
Zn213 O220 1.975 . S
Zn213 N229 2.119 . S
Zn213 O234 2.019 . S
N214 Zn204 2.119 . S
N214 C216 1.334 . S
N214 C217 1.328 . S
C215 C216 1.391 . S
C215 N218 1.329 . S
C215 H236 0.930 . S
C216 N214 1.334 . S
C216 C215 1.391 . S
C216 H223 0.930 . S
C217 N214 1.328 . S
C217 C219 1.392 . S
C217 H224 0.930 . S
N218 C215 1.329 . S
N218 C219 1.331 . S
C219 C217 1.392 . S
C219 N218 1.331 . S
O220 Zn213 1.975 . S
O220 C221 1.252 . S
C221 O220 1.252 . S
C221 O222 1.252 . S
O222 Zn204 1.975 . S
O222 C221 1.252 . S
H223 C216 0.930 . S
H224 C217 0.930 . S
C225 C226 1.392 . S
C225 N229 1.328 . S
C225 H231 0.930 . S
C226 C225 1.392 . S
C226 N230 1.331 . S
C227 C228 1.391 . S
C227 N230 1.329 . S
C227 H237 0.930 . S
C228 C227 1.391 . S
C228 N229 1.334 . S
C228 H235 0.930 . S
N229 Zn213 2.119 . S
N229 C225 1.328 . S
N229 C228 1.334 . S
N230 C226 1.331 . S
N230 C227 1.329 . S
H231 C225 0.930 . S
C232 O212 1.257 . S
C232 O233 1.244 . S
O233 C232 1.244 . S
O234 C210 1.257 . S
O234 Zn213 2.019 . S
H235 C228 0.930 . S
H236 C215 0.930 . S
H237 C227 0.930 . S
Zn238 N242 2.020 . S
Zn238 O246 2.019 . S
Zn238 N248 2.119 . S
Zn238 O256 1.975 . S
C239 N240 1.334 . S
C239 N243 1.336 . S
N240 C239 1.334 . S
N240 C241 1.334 . S
C241 N240 1.334 . S
C241 N242 1.336 . S
N242 Zn238 2.020 . S
N242 C241 1.336 . S
N242 N243 1.354 . S
N243 C239 1.336 . S
N243 N242 1.354 . S
N243 Zn247 2.020 1_545 S
C244 O245 1.244 . S
C244 O268 1.257 1_545 S
O245 C244 1.244 . S
O246 Zn238 2.019 . S
O246 C266 1.257 . S
Zn247 N243 2.020 1_565 S
Zn247 O254 1.975 1_565 S
Zn247 N263 2.119 . S
Zn247 O268 2.019 . S
N248 Zn238 2.119 . S
N248 C250 1.334 . S
N248 C251 1.328 . S
C249 C250 1.391 . S
C249 N252 1.329 . S
C249 H270 0.930 . S
C250 N248 1.334 . S
C250 C249 1.391 . S
C250 H257 0.930 . S
C251 N248 1.328 . S
C251 C253 1.392 . S
C251 H258 0.930 . S
N252 C249 1.329 . S
N252 C253 1.331 . S
C253 C251 1.392 . S
C253 N252 1.331 . S
O254 Zn247 1.975 1_545 S
O254 C255 1.252 . S
C255 O254 1.252 . S
C255 O256 1.252 . S
O256 Zn238 1.975 . S
O256 C255 1.252 . S
H257 C250 0.930 . S
H258 C251 0.930 . S
C259 C260 1.392 . S
C259 N263 1.328 . S
C259 H265 0.930 . S
C260 C259 1.392 . S
C260 N264 1.331 . S
C261 C262 1.391 . S
C261 N264 1.329 . S
C261 H271 0.930 . S
C262 C261 1.391 . S
C262 N263 1.334 . S
C262 H269 0.930 . S
N263 Zn247 2.119 . S
N263 C259 1.328 . S
N263 C262 1.334 . S
N264 C260 1.331 . S
N264 C261 1.329 . S
H265 C259 0.930 . S
C266 O246 1.257 . S
C266 O267 1.244 1_545 S
O267 C266 1.244 1_565 S
O268 C244 1.257 1_565 S
O268 Zn247 2.019 . S
H269 C262 0.930 . S
H270 C249 0.930 . S
H271 C261 0.930 . S
Zn272 N276 2.020 1_556 S
Zn272 O280 2.019 . S
Zn272 N282 2.119 . S
Zn272 O290 1.975 1_556 S
C273 N274 1.334 . S
C273 N277 1.336 . S
N274 C273 1.334 . S
N274 C275 1.334 1_554 S
C275 N274 1.334 1_556 S
C275 N276 1.336 1_556 S
N276 Zn272 2.020 1_554 S
N276 C275 1.336 1_554 S
N276 N277 1.354 . S
N277 C273 1.336 . S
N277 N276 1.354 . S
N277 Zn281 2.020 . S
C278 O279 1.244 . S
C278 O302 1.257 . S
O279 C278 1.244 . S
O280 Zn272 2.019 . S
O280 C300 1.257 . S
Zn281 N277 2.020 . S
Zn281 O288 1.975 . S
Zn281 N297 2.119 . S
Zn281 O302 2.019 . S
N282 Zn272 2.119 . S
N282 C284 1.334 1_556 S
N282 C285 1.328 . S
C283 C284 1.391 . S
C283 N286 1.329 . S
C283 H304 0.930 . S
C284 N282 1.334 1_554 S
C284 C283 1.391 . S
C284 H291 0.930 . S
C285 N282 1.328 . S
C285 C287 1.392 . S
C285 H292 0.930 . S
N286 C283 1.329 . S
N286 C287 1.331 1_554 S
C287 C285 1.392 . S
C287 N286 1.331 1_556 S
O288 Zn281 1.975 . S
O288 C289 1.252 . S
C289 O288 1.252 . S
C289 O290 1.252 . S
O290 Zn272 1.975 1_554 S
O290 C289 1.252 . S
H291 C284 0.930 . S
H292 C285 0.930 . S
C293 C294 1.392 . S
C293 N297 1.328 . S
C293 H299 0.930 . S
C294 C293 1.392 . S
C294 N298 1.331 . S
C295 C296 1.391 . S
C295 N298 1.329 . S
C295 H305 0.930 1_554 S
C296 C295 1.391 . S
C296 N297 1.334 . S
C296 H303 0.930 . S
N297 Zn281 2.119 . S
N297 C293 1.328 . S
N297 C296 1.334 . S
N298 C294 1.331 . S
N298 C295 1.329 . S
H299 C293 0.930 . S
C300 O280 1.257 . S
C300 O301 1.244 . S
O301 C300 1.244 . S
O302 C278 1.257 . S
O302 Zn281 2.019 . S
H303 C296 0.930 . S
H304 C283 0.930 . S
H305 C295 0.930 1_556 S
Zn306 N310 2.020 1_556 S
Zn306 O314 2.019 . S
Zn306 N316 2.119 . S
Zn306 O324 1.975 1_556 S
C307 N308 1.334 . S
C307 N311 1.336 . S
N308 C307 1.334 . S
N308 C309 1.334 1_554 S
C309 N308 1.334 1_556 S
C309 N310 1.336 1_556 S
N310 Zn306 2.020 1_554 S
N310 C309 1.336 1_554 S
N310 N311 1.354 . S
N311 C307 1.336 . S
N311 N310 1.354 . S
N311 Zn315 2.020 . S
C312 O313 1.244 . S
C312 O336 1.257 . S
O313 C312 1.244 . S
O314 Zn306 2.019 . S
O314 C334 1.257 . S
Zn315 N311 2.020 . S
Zn315 O322 1.975 . S
Zn315 N331 2.119 . S
Zn315 O336 2.019 . S
N316 Zn306 2.119 . S
N316 C318 1.334 1_556 S
N316 C319 1.328 . S
C317 C318 1.391 . S
C317 N320 1.329 . S
C317 H338 0.930 . S
C318 N316 1.334 1_554 S
C318 C317 1.391 . S
C318 H325 0.930 . S
C319 N316 1.328 . S
C319 C321 1.392 . S
C319 H326 0.930 . S
N320 C317 1.329 . S
N320 C321 1.331 1_554 S
C321 C319 1.392 . S
C321 N320 1.331 1_556 S
O322 Zn315 1.975 . S
O322 C323 1.252 . S
C323 O322 1.252 . S
C323 O324 1.252 . S
O324 Zn306 1.975 1_554 S
O324 C323 1.252 . S
H325 C318 0.930 . S
H326 C319 0.930 . S
C327 C328 1.392 . S
C327 N331 1.328 . S
C327 H333 0.930 . S
C328 C327 1.392 . S
C328 N332 1.331 . S
C329 C330 1.391 . S
C329 N332 1.329 . S
C329 H339 0.930 1_554 S
C330 C329 1.391 . S
C330 N331 1.334 . S
C330 H337 0.930 . S
N331 Zn315 2.119 . S
N331 C327 1.328 . S
N331 C330 1.334 . S
N332 C328 1.331 . S
N332 C329 1.329 . S
H333 C327 0.930 . S
C334 O314 1.257 . S
C334 O335 1.244 . S
O335 C334 1.244 . S
O336 C312 1.257 . S
O336 Zn315 2.019 . S
H337 C330 0.930 . S
H338 C317 0.930 . S
H339 C329 0.930 1_556 S
Zn340 N344 2.020 . S
Zn340 O348 2.019 . S
Zn340 N350 2.119 . S
Zn340 O358 1.975 . S
C341 N342 1.334 . S
C341 N345 1.336 . S
N342 C341 1.334 . S
N342 C343 1.334 . S
C343 N342 1.334 . S
C343 N344 1.336 . S
N344 Zn340 2.020 . S
N344 C343 1.336 . S
N344 N345 1.354 . S
N345 C341 1.336 . S
N345 N344 1.354 . S
N345 Zn349 2.020 . S
C346 O347 1.244 . S
C346 O370 1.257 . S
O347 C346 1.244 . S
O348 Zn340 2.019 . S
O348 C368 1.257 . S
Zn349 N345 2.020 . S
Zn349 O356 1.975 . S
Zn349 N365 2.119 . S
Zn349 O370 2.019 . S
N350 Zn340 2.119 . S
N350 C352 1.334 . S
N350 C353 1.328 . S
C351 C352 1.391 . S
C351 N354 1.329 . S
C351 H372 0.930 . S
C352 N350 1.334 . S
C352 C351 1.391 . S
C352 H359 0.930 . S
C353 N350 1.328 . S
C353 C355 1.392 . S
C353 H360 0.930 . S
N354 C351 1.329 . S
N354 C355 1.331 . S
C355 C353 1.392 . S
C355 N354 1.331 . S
O356 Zn349 1.975 . S
O356 C357 1.252 . S
C357 O356 1.252 . S
C357 O358 1.252 . S
O358 Zn340 1.975 . S
O358 C357 1.252 . S
H359 C352 0.930 . S
H360 C353 0.930 . S
C361 C362 1.392 . S
C361 N365 1.328 . S
C361 H367 0.930 . S
C362 C361 1.392 . S
C362 N366 1.331 . S
C363 C364 1.391 . S
C363 N366 1.329 . S
C363 H373 0.930 . S
C364 C363 1.391 . S
C364 N365 1.334 . S
C364 H371 0.930 . S
N365 Zn349 2.119 . S
N365 C361 1.328 . S
N365 C364 1.334 . S
N366 C362 1.331 . S
N366 C363 1.329 . S
H367 C361 0.930 . S
C368 O348 1.257 . S
C368 O369 1.244 . S
O369 C368 1.244 . S
O370 C346 1.257 . S
O370 Zn349 2.019 . S
H371 C364 0.930 . S
H372 C351 0.930 . S
H373 C363 0.930 . S
Zn374 N378 2.020 . S
Zn374 O382 2.019 . S
Zn374 N384 2.119 . S
Zn374 O392 1.975 . S
C375 N376 1.334 . S
C375 N379 1.336 . S
N376 C375 1.334 . S
N376 C377 1.334 . S
C377 N376 1.334 . S
C377 N378 1.336 . S
N378 Zn374 2.020 . S
N378 C377 1.336 . S
N378 N379 1.354 . S
N379 C375 1.336 . S
N379 N378 1.354 . S
N379 Zn383 2.020 . S
C380 O381 1.244 . S
C380 O404 1.257 . S
O381 C380 1.244 . S
O382 Zn374 2.019 . S
O382 C402 1.257 . S
Zn383 N379 2.020 . S
Zn383 O390 1.975 . S
Zn383 N399 2.119 . S
Zn383 O404 2.019 . S
N384 Zn374 2.119 . S
N384 C386 1.334 . S
N384 C387 1.328 . S
C385 C386 1.391 . S
C385 N388 1.329 . S
C385 H406 0.930 . S
C386 N384 1.334 . S
C386 C385 1.391 . S
C386 H393 0.930 . S
C387 N384 1.328 . S
C387 C389 1.392 . S
C387 H394 0.930 . S
N388 C385 1.329 . S
N388 C389 1.331 . S
C389 C387 1.392 . S
C389 N388 1.331 . S
O390 Zn383 1.975 . S
O390 C391 1.252 . S
C391 O390 1.252 . S
C391 O392 1.252 . S
O392 Zn374 1.975 . S
O392 C391 1.252 . S
H393 C386 0.930 . S
H394 C387 0.930 . S
C395 C396 1.392 . S
C395 N399 1.328 . S
C395 H401 0.930 . S
C396 C395 1.392 . S
C396 N400 1.331 . S
C397 C398 1.391 . S
C397 N400 1.329 . S
C397 H407 0.930 . S
C398 C397 1.391 . S
C398 N399 1.334 . S
C398 H405 0.930 . S
N399 Zn383 2.119 . S
N399 C395 1.328 . S
N399 C398 1.334 . S
N400 C396 1.331 . S
N400 C397 1.329 . S
H401 C395 0.930 . S
C402 O382 1.257 . S
C402 O403 1.244 . S
O403 C402 1.244 . S
O404 C380 1.257 . S
O404 Zn383 2.019 . S
H405 C398 0.930 . S
H406 C385 0.930 . S
H407 C397 0.930 . S
Zn408 N412 2.020 . S
Zn408 O416 2.019 . S
Zn408 N418 2.119 . S
Zn408 O426 1.975 . S
C409 N410 1.334 1_556 S
C409 N413 1.336 . S
N410 C409 1.334 1_554 S
N410 C411 1.334 . S
C411 N410 1.334 . S
C411 N412 1.336 . S
N412 Zn408 2.020 . S
N412 C411 1.336 . S
N412 N413 1.354 1_554 S
N413 C409 1.336 . S
N413 N412 1.354 1_556 S
N413 Zn417 2.020 . S
C414 O415 1.244 . S
C414 O438 1.257 . S
O415 C414 1.244 . S
O416 Zn408 2.019 . S
O416 C436 1.257 . S
Zn417 N413 2.020 . S
Zn417 O424 1.975 . S
Zn417 N433 2.119 . S
Zn417 O438 2.019 . S
N418 Zn408 2.119 . S
N418 C420 1.334 . S
N418 C421 1.328 . S
C419 C420 1.391 1_556 S
C419 N422 1.329 1_556 S
C419 H440 0.930 . S
C420 N418 1.334 . S
C420 C419 1.391 1_554 S
C420 H427 0.930 1_554 S
C421 N418 1.328 . S
C421 C423 1.392 . S
C421 H428 0.930 . S
N422 C419 1.329 1_554 S
N422 C423 1.331 . S
C423 C421 1.392 . S
C423 N422 1.331 . S
O424 Zn417 1.975 . S
O424 C425 1.252 1_556 S
C425 O424 1.252 1_554 S
C425 O426 1.252 . S
O426 Zn408 1.975 . S
O426 C425 1.252 . S
H427 C420 0.930 1_556 S
H428 C421 0.930 . S
C429 C430 1.392 . S
C429 N433 1.328 . S
C429 H435 0.930 . S
C430 C429 1.392 . S
C430 N434 1.331 . S
C431 C432 1.391 . S
C431 N434 1.329 1_554 S
C431 H441 0.930 . S
C432 C431 1.391 . S
C432 N433 1.334 1_554 S
C432 H439 0.930 . S
N433 Zn417 2.119 . S
N433 C429 1.328 . S
N433 C432 1.334 1_556 S
N434 C430 1.331 . S
N434 C431 1.329 1_556 S
H435 C429 0.930 . S
C436 O416 1.257 . S
C436 O437 1.244 . S
O437 C436 1.244 . S
O438 C414 1.257 . S
O438 Zn417 2.019 . S
H439 C432 0.930 . S
H440 C419 0.930 . S
H441 C431 0.930 . S
Zn442 N446 2.020 . S
Zn442 O450 2.019 . S
Zn442 N452 2.119 . S
Zn442 O460 1.975 . S
C443 N444 1.334 1_556 S
C443 N447 1.336 . S
N444 C443 1.334 1_554 S
N444 C445 1.334 . S
C445 N444 1.334 . S
C445 N446 1.336 . S
N446 Zn442 2.020 . S
N446 C445 1.336 . S
N446 N447 1.354 1_554 S
N447 C443 1.336 . S
N447 N446 1.354 1_556 S
N447 Zn451 2.020 . S
C448 O449 1.244 . S
C448 O472 1.257 . S
O449 C448 1.244 . S
O450 Zn442 2.019 . S
O450 C470 1.257 . S
Zn451 N447 2.020 . S
Zn451 O458 1.975 . S
Zn451 N467 2.119 . S
Zn451 O472 2.019 . S
N452 Zn442 2.119 . S
N452 C454 1.334 . S
N452 C455 1.328 . S
C453 C454 1.391 1_556 S
C453 N456 1.329 1_556 S
C453 H474 0.930 . S
C454 N452 1.334 . S
C454 C453 1.391 1_554 S
C454 H461 0.930 1_554 S
C455 N452 1.328 . S
C455 C457 1.392 . S
C455 H462 0.930 . S
N456 C453 1.329 1_554 S
N456 C457 1.331 . S
C457 C455 1.392 . S
C457 N456 1.331 . S
O458 Zn451 1.975 . S
O458 C459 1.252 1_556 S
C459 O458 1.252 1_554 S
C459 O460 1.252 . S
O460 Zn442 1.975 . S
O460 C459 1.252 . S
H461 C454 0.930 1_556 S
H462 C455 0.930 . S
C463 C464 1.392 . S
C463 N467 1.328 . S
C463 H469 0.930 . S
C464 C463 1.392 . S
C464 N468 1.331 . S
C465 C466 1.391 . S
C465 N468 1.329 1_554 S
C465 H475 0.930 . S
C466 C465 1.391 . S
C466 N467 1.334 1_554 S
C466 H473 0.930 . S
N467 Zn451 2.119 . S
N467 C463 1.328 . S
N467 C466 1.334 1_556 S
N468 C464 1.331 . S
N468 C465 1.329 1_556 S
H469 C463 0.930 . S
C470 O450 1.257 . S
C470 O471 1.244 . S
O471 C470 1.244 . S
O472 C448 1.257 . S
O472 Zn451 2.019 . S
H473 C466 0.930 . S
H474 C453 0.930 . S
H475 C465 0.930 . S
Zn476 N480 2.020 . S
Zn476 O484 2.019 1_556 S
Zn476 N486 2.119 . S
Zn476 O494 1.975 . S
C477 N478 1.334 . S
C477 N481 1.336 . S
N478 C477 1.334 . S
N478 C479 1.334 . S
C479 N478 1.334 . S
C479 N480 1.336 . S
N480 Zn476 2.020 . S
N480 C479 1.336 . S
N480 N481 1.354 . S
N481 C477 1.336 . S
N481 N480 1.354 . S
N481 Zn485 2.020 . S
C482 O483 1.244 . S
C482 O506 1.257 . S
O483 C482 1.244 . S
O484 Zn476 2.019 1_554 S
O484 C504 1.257 . S
Zn485 N481 2.020 . S
Zn485 O492 1.975 . S
Zn485 N501 2.119 . S
Zn485 O506 2.019 . S
N486 Zn476 2.119 . S
N486 C488 1.334 . S
N486 C489 1.328 . S
C487 C488 1.391 . S
C487 N490 1.329 . S
C487 H508 0.930 . S
C488 N486 1.334 . S
C488 C487 1.391 . S
C488 H495 0.930 . S
C489 N486 1.328 . S
C489 C491 1.392 . S
C489 H496 0.930 . S
N490 C487 1.329 . S
N490 C491 1.331 . S
C491 C489 1.392 . S
C491 N490 1.331 . S
O492 Zn485 1.975 . S
O492 C493 1.252 . S
C493 O492 1.252 . S
C493 O494 1.252 . S
O494 Zn476 1.975 . S
O494 C493 1.252 . S
H495 C488 0.930 . S
H496 C489 0.930 . S
C497 C498 1.392 . S
C497 N501 1.328 . S
C497 H503 0.930 . S
C498 C497 1.392 . S
C498 N502 1.331 . S
C499 C500 1.391 . S
C499 N502 1.329 . S
C499 H509 0.930 . S
C500 C499 1.391 . S
C500 N501 1.334 . S
C500 H507 0.930 . S
N501 Zn485 2.119 . S
N501 C497 1.328 . S
N501 C500 1.334 . S
N502 C498 1.331 . S
N502 C499 1.329 . S
H503 C497 0.930 . S
C504 O484 1.257 . S
C504 O505 1.247 . S
O505 C504 1.247 . S
O506 C482 1.257 . S
O506 Zn485 2.019 . S
H507 C500 0.930 . S
H508 C487 0.930 . S
H509 C499 0.930 . S
Zn510 N514 2.020 . S
Zn510 O518 2.019 . S
Zn510 N520 2.119 . S
Zn510 O528 1.975 . S
C511 N512 1.334 . S
C511 N515 1.336 . S
N512 C511 1.334 . S
N512 C513 1.334 . S
C513 N512 1.334 . S
C513 N514 1.336 . S
N514 Zn510 2.020 . S
N514 C513 1.336 . S
N514 N515 1.354 . S
N515 C511 1.336 . S
N515 N514 1.354 . S
N515 Zn519 2.020 . S
C516 O517 1.247 . S
C516 O540 1.257 . S
O517 C516 1.247 . S
O518 Zn510 2.019 . S
O518 C538 1.257 . S
Zn519 N515 2.020 . S
Zn519 O526 1.975 . S
Zn519 N535 2.119 . S
Zn519 O540 2.019 1_556 S
N520 Zn510 2.119 . S
N520 C522 1.334 . S
N520 C523 1.328 . S
C521 C522 1.391 . S
C521 N524 1.329 . S
C521 H542 0.930 . S
C522 N520 1.334 . S
C522 C521 1.391 . S
C522 H529 0.930 . S
C523 N520 1.328 . S
C523 C525 1.392 . S
C523 H530 0.930 . S
N524 C521 1.329 . S
N524 C525 1.331 . S
C525 C523 1.392 . S
C525 N524 1.331 . S
O526 Zn519 1.975 . S
O526 C527 1.252 . S
C527 O526 1.252 . S
C527 O528 1.252 . S
O528 Zn510 1.975 . S
O528 C527 1.252 . S
H529 C522 0.930 . S
H530 C523 0.930 . S
C531 C532 1.392 . S
C531 N535 1.328 . S
C531 H537 0.930 . S
C532 C531 1.392 . S
C532 N536 1.331 . S
C533 C534 1.391 . S
C533 N536 1.329 . S
C533 H543 0.930 . S
C534 C533 1.391 . S
C534 N535 1.334 . S
C534 H541 0.930 . S
N535 Zn519 2.119 . S
N535 C531 1.328 . S
N535 C534 1.334 . S
N536 C532 1.331 . S
N536 C533 1.329 . S
H537 C531 0.930 . S
C538 O518 1.257 . S
C538 O539 1.244 . S
O539 C538 1.244 . S
O540 C516 1.257 . S
O540 Zn519 2.019 1_554 S
H541 C534 0.930 . S
H542 C521 0.930 . S
H543 C533 0.930 . S
Zn544 N548 2.020 1_566 S
Zn544 O552 2.019 . S
Zn544 N554 2.119 . S
Zn544 O562 1.975 1_566 S
C545 N546 1.334 . S
C545 N549 1.336 . S
N546 C545 1.334 . S
N546 C547 1.334 1_554 S
C547 N546 1.334 1_556 S
C547 N548 1.336 1_556 S
N548 Zn544 2.020 1_544 S
N548 C547 1.336 1_554 S
N548 N549 1.354 . S
N549 C545 1.336 . S
N549 N548 1.354 . S
N549 Zn553 2.020 . S
C550 O551 1.244 1_545 S
C550 O574 1.257 . S
O551 C550 1.244 1_565 S
O552 Zn544 2.019 . S
O552 C572 1.257 1_565 S
Zn553 N549 2.020 . S
Zn553 O560 1.975 . S
Zn553 N569 2.119 . S
Zn553 O574 2.019 . S
N554 Zn544 2.119 . S
N554 C556 1.334 1_556 S
N554 C557 1.328 . S
C555 C556 1.391 . S
C555 N558 1.329 . S
C555 H576 0.930 . S
C556 N554 1.334 1_554 S
C556 C555 1.391 . S
C556 H563 0.930 . S
C557 N554 1.328 . S
C557 C559 1.392 . S
C557 H564 0.930 . S
N558 C555 1.329 . S
N558 C559 1.331 1_554 S
C559 C557 1.392 . S
C559 N558 1.331 1_556 S
O560 Zn553 1.975 . S
O560 C561 1.252 . S
C561 O560 1.252 . S
C561 O562 1.252 . S
O562 Zn544 1.975 1_544 S
O562 C561 1.252 . S
H563 C556 0.930 . S
H564 C557 0.930 . S
C565 C566 1.392 . S
C565 N569 1.328 . S
C565 H571 0.930 . S
C566 C565 1.392 . S
C566 N570 1.331 . S
C567 C568 1.391 . S
C567 N570 1.329 . S
C567 H577 0.930 1_554 S
C568 C567 1.391 . S
C568 N569 1.334 . S
C568 H575 0.930 . S
N569 Zn553 2.119 . S
N569 C565 1.328 . S
N569 C568 1.334 . S
N570 C566 1.331 . S
N570 C567 1.329 . S
H571 C565 0.930 . S
C572 O552 1.257 1_545 S
C572 O573 1.244 . S
O573 C572 1.244 . S
O574 C550 1.257 . S
O574 Zn553 2.019 . S
H575 C568 0.930 . S
H576 C555 0.930 . S
H577 C567 0.930 1_556 S
Zn578 N582 2.020 1_556 S
Zn578 O586 2.019 . S
Zn578 N588 2.119 . S
Zn578 O596 1.975 1_556 S
C579 N580 1.334 . S
C579 N583 1.336 . S
N580 C579 1.334 . S
N580 C581 1.334 1_554 S
C581 N580 1.334 1_556 S
C581 N582 1.336 1_556 S
N582 Zn578 2.020 1_554 S
N582 C581 1.336 1_554 S
N582 N583 1.354 . S
N583 C579 1.336 . S
N583 N582 1.354 . S
N583 Zn587 2.020 . S
C584 O585 1.244 . S
C584 O608 1.257 . S
O585 C584 1.244 . S
O586 Zn578 2.019 . S
O586 C606 1.257 . S
Zn587 N583 2.020 . S
Zn587 O594 1.975 . S
Zn587 N603 2.119 . S
Zn587 O608 2.019 . S
N588 Zn578 2.119 . S
N588 C590 1.334 1_556 S
N588 C591 1.328 . S
C589 C590 1.391 . S
C589 N592 1.329 . S
C589 H610 0.930 . S
C590 N588 1.334 1_554 S
C590 C589 1.391 . S
C590 H597 0.930 . S
C591 N588 1.328 . S
C591 C593 1.392 . S
C591 H598 0.930 . S
N592 C589 1.329 . S
N592 C593 1.331 1_554 S
C593 C591 1.392 . S
C593 N592 1.331 1_556 S
O594 Zn587 1.975 . S
O594 C595 1.252 . S
C595 O594 1.252 . S
C595 O596 1.252 . S
O596 Zn578 1.975 1_554 S
O596 C595 1.252 . S
H597 C590 0.930 . S
H598 C591 0.930 . S
C599 C600 1.392 . S
C599 N603 1.328 . S
C599 H605 0.930 . S
C600 C599 1.392 . S
C600 N604 1.331 . S
C601 C602 1.391 . S
C601 N604 1.329 . S
C601 H611 0.930 1_554 S
C602 C601 1.391 . S
C602 N603 1.334 . S
C602 H609 0.930 . S
N603 Zn587 2.119 . S
N603 C599 1.328 . S
N603 C602 1.334 . S
N604 C600 1.331 . S
N604 C601 1.329 . S
H605 C599 0.930 . S
C606 O586 1.257 . S
C606 O607 1.244 . S
O607 C606 1.244 . S
O608 C584 1.257 . S
O608 Zn587 2.019 . S
H609 C602 0.930 . S
H610 C589 0.930 . S
H611 C601 0.930 1_556 S
Zn612 N616 2.020 . S
Zn612 O620 2.019 . S
Zn612 N622 2.119 . S
Zn612 O630 1.975 . S
C613 N614 1.334 . S
C613 N617 1.336 . S
N614 C613 1.334 . S
N614 C615 1.334 . S
C615 N614 1.334 . S
C615 N616 1.336 . S
N616 Zn612 2.020 . S
N616 C615 1.336 . S
N616 N617 1.354 . S
N617 C613 1.336 . S
N617 N616 1.354 . S
N617 Zn621 2.020 . S
C618 O619 1.244 . S
C618 O642 1.257 . S
O619 C618 1.244 . S
O620 Zn612 2.019 . S
O620 C640 1.257 . S
Zn621 N617 2.020 . S
Zn621 O628 1.975 . S
Zn621 N637 2.119 . S
Zn621 O642 2.019 . S
N622 Zn612 2.119 . S
N622 C624 1.334 . S
N622 C625 1.328 . S
C623 C624 1.391 . S
C623 N626 1.329 . S
C623 H644 0.930 . S
C624 N622 1.334 . S
C624 C623 1.391 . S
C624 H631 0.930 . S
C625 N622 1.328 . S
C625 C627 1.392 . S
C625 H632 0.930 . S
N626 C623 1.329 . S
N626 C627 1.331 . S
C627 C625 1.392 . S
C627 N626 1.331 . S
O628 Zn621 1.975 . S
O628 C629 1.252 . S
C629 O628 1.252 . S
C629 O630 1.252 . S
O630 Zn612 1.975 . S
O630 C629 1.252 . S
H631 C624 0.930 . S
H632 C625 0.930 . S
C633 C634 1.392 . S
C633 N637 1.328 . S
C633 H639 0.930 . S
C634 C633 1.392 . S
C634 N638 1.331 . S
C635 C636 1.391 . S
C635 N638 1.329 . S
C635 H645 0.930 . S
C636 C635 1.391 . S
C636 N637 1.334 . S
C636 H643 0.930 . S
N637 Zn621 2.119 . S
N637 C633 1.328 . S
N637 C636 1.334 . S
N638 C634 1.331 . S
N638 C635 1.329 . S
H639 C633 0.930 . S
C640 O620 1.257 . S
C640 O641 1.244 . S
O641 C640 1.244 . S
O642 C618 1.257 . S
O642 Zn621 2.019 . S
H643 C636 0.930 . S
H644 C623 0.930 . S
H645 C635 0.930 . S
Zn646 N650 2.020 1_565 S
Zn646 O654 2.019 . S
Zn646 N656 2.119 . S
Zn646 O664 1.975 1_565 S
C647 N648 1.334 . S
C647 N651 1.336 . S
N648 C647 1.334 . S
N648 C649 1.334 . S
C649 N648 1.334 . S
C649 N650 1.336 . S
N650 Zn646 2.020 1_545 S
N650 C649 1.336 . S
N650 N651 1.354 . S
N651 C647 1.336 . S
N651 N650 1.354 . S
N651 Zn655 2.020 . S
C652 O653 1.244 1_545 S
C652 O676 1.257 . S
O653 C652 1.244 1_565 S
O654 Zn646 2.019 . S
O654 C674 1.257 1_565 S
Zn655 N651 2.020 . S
Zn655 O662 1.975 . S
Zn655 N671 2.119 . S
Zn655 O676 2.019 . S
N656 Zn646 2.119 . S
N656 C658 1.334 . S
N656 C659 1.328 . S
C657 C658 1.391 . S
C657 N660 1.329 . S
C657 H678 0.930 . S
C658 N656 1.334 . S
C658 C657 1.391 . S
C658 H665 0.930 . S
C659 N656 1.328 . S
C659 C661 1.392 . S
C659 H666 0.930 . S
N660 C657 1.329 . S
N660 C661 1.331 . S
C661 C659 1.392 . S
C661 N660 1.331 . S
O662 Zn655 1.975 . S
O662 C663 1.252 . S
C663 O662 1.252 . S
C663 O664 1.252 . S
O664 Zn646 1.975 1_545 S
O664 C663 1.252 . S
H665 C658 0.930 . S
H666 C659 0.930 . S
C667 C668 1.392 . S
C667 N671 1.328 . S
C667 H673 0.930 . S
C668 C667 1.392 . S
C668 N672 1.331 . S
C669 C670 1.391 . S
C669 N672 1.329 . S
C669 H679 0.930 . S
C670 C669 1.391 . S
C670 N671 1.334 . S
C670 H677 0.930 . S
N671 Zn655 2.119 . S
N671 C667 1.328 . S
N671 C670 1.334 . S
N672 C668 1.331 . S
N672 C669 1.329 . S
H673 C667 0.930 . S
C674 O654 1.257 1_545 S
C674 O675 1.244 . S
O675 C674 1.244 . S
O676 C652 1.257 . S
O676 Zn655 2.019 . S
H677 C670 0.930 . S
H678 C657 0.930 . S
H679 C669 0.930 . S
Zn680 N684 2.020 . S
Zn680 O688 2.019 . S
Zn680 N690 2.119 . S
Zn680 O698 1.975 . S
C681 N682 1.334 1_556 S
C681 N685 1.336 . S
N682 C681 1.334 1_554 S
N682 C683 1.334 . S
C683 N682 1.334 . S
C683 N684 1.336 . S
N684 Zn680 2.020 . S
N684 C683 1.336 . S
N684 N685 1.354 1_554 S
N685 C681 1.336 . S
N685 N684 1.354 1_556 S
N685 Zn689 2.020 1_545 S
C686 O687 1.244 . S
C686 O710 1.257 1_545 S
O687 C686 1.244 . S
O688 Zn680 2.019 . S
O688 C708 1.257 . S
Zn689 N685 2.020 1_565 S
Zn689 O696 1.975 1_565 S
Zn689 N705 2.119 . S
Zn689 O710 2.019 . S
N690 Zn680 2.119 . S
N690 C692 1.334 . S
N690 C693 1.328 . S
C691 C692 1.391 1_556 S
C691 N694 1.329 1_556 S
C691 H712 0.930 . S
C692 N690 1.334 . S
C692 C691 1.391 1_554 S
C692 H699 0.930 1_554 S
C693 N690 1.328 . S
C693 C695 1.392 . S
C693 H700 0.930 . S
N694 C691 1.329 1_554 S
N694 C695 1.331 . S
C695 C693 1.392 . S
C695 N694 1.331 . S
O696 Zn689 1.975 1_545 S
O696 C697 1.252 1_556 S
C697 O696 1.252 1_554 S
C697 O698 1.252 . S
O698 Zn680 1.975 . S
O698 C697 1.252 . S
H699 C692 0.930 1_556 S
H700 C693 0.930 . S
C701 C702 1.392 . S
C701 N705 1.328 . S
C701 H707 0.930 . S
C702 C701 1.392 . S
C702 N706 1.331 . S
C703 C704 1.391 . S
C703 N706 1.329 1_554 S
C703 H713 0.930 . S
C704 C703 1.391 . S
C704 N705 1.334 1_554 S
C704 H711 0.930 . S
N705 Zn689 2.119 . S
N705 C701 1.328 . S
N705 C704 1.334 1_556 S
N706 C702 1.331 . S
N706 C703 1.329 1_556 S
H707 C701 0.930 . S
C708 O688 1.257 . S
C708 O709 1.244 1_545 S
O709 C708 1.244 1_565 S
O710 C686 1.257 1_565 S
O710 Zn689 2.019 . S
H711 C704 0.930 . S
H712 C691 0.930 . S
H713 C703 0.930 . S
Zn714 N718 2.020 . S
Zn714 O722 2.019 . S
Zn714 N724 2.119 . S
Zn714 O732 1.975 . S
C715 N716 1.334 . S
C715 N719 1.336 . S
N716 C715 1.334 . S
N716 C717 1.334 1_554 S
C717 N716 1.334 1_556 S
C717 N718 1.336 . S
N718 Zn714 2.020 . S
N718 C717 1.336 . S
N718 N719 1.354 1_556 S
N719 C715 1.336 . S
N719 N718 1.354 1_554 S
N719 Zn723 2.020 . S
C720 O721 1.244 . S
C720 O744 1.257 . S
O721 C720 1.244 . S
O722 Zn714 2.019 . S
O722 C742 1.257 . S
Zn723 N719 2.020 . S
Zn723 O730 1.975 . S
Zn723 N739 2.119 . S
Zn723 O744 2.019 . S
N724 Zn714 2.119 . S
N724 C726 1.334 1_556 S
N724 C727 1.328 . S
C725 C726 1.391 . S
C725 N728 1.329 1_554 S
C725 H746 0.930 . S
C726 N724 1.334 1_554 S
C726 C725 1.391 . S
C726 H733 0.930 . S
C727 N724 1.328 . S
C727 C729 1.392 . S
C727 H734 0.930 . S
N728 C725 1.329 1_556 S
N728 C729 1.331 . S
C729 C727 1.392 . S
C729 N728 1.331 . S
O730 Zn723 1.975 . S
O730 C731 1.252 . S
C731 O730 1.252 . S
C731 O732 1.252 1_554 S
O732 Zn714 1.975 . S
O732 C731 1.252 1_556 S
H733 C726 0.930 . S
H734 C727 0.930 . S
C735 C736 1.392 . S
C735 N739 1.328 . S
C735 H741 0.930 . S
C736 C735 1.392 . S
C736 N740 1.331 . S
C737 C738 1.391 1_556 S
C737 N740 1.329 1_556 S
C737 H747 0.930 . S
C738 C737 1.391 1_554 S
C738 N739 1.334 . S
C738 H745 0.930 1_554 S
N739 Zn723 2.119 . S
N739 C735 1.328 . S
N739 C738 1.334 . S
N740 C736 1.331 . S
N740 C737 1.329 1_554 S
H741 C735 0.930 . S
C742 O722 1.257 . S
C742 O743 1.244 . S
O743 C742 1.244 . S
O744 C720 1.257 . S
O744 Zn723 2.019 . S
H745 C738 0.930 1_556 S
H746 C725 0.930 . S
H747 C737 0.930 . S
Zn748 N752 2.020 . S
Zn748 O756 2.019 . S
Zn748 N758 2.119 . S
Zn748 O766 1.975 . S
C749 N750 1.334 . S
C749 N753 1.336 . S
N750 C749 1.334 . S
N750 C751 1.334 . S
C751 N750 1.334 . S
C751 N752 1.336 . S
N752 Zn748 2.020 . S
N752 C751 1.336 . S
N752 N753 1.354 . S
N753 C749 1.336 . S
N753 N752 1.354 . S
N753 Zn757 2.020 . S
C754 O755 1.246 . S
C754 O778 1.257 . S
O755 C754 1.246 . S
O756 Zn748 2.019 . S
O756 C776 1.257 . S
Zn757 N753 2.020 . S
Zn757 O764 1.975 . S
Zn757 N773 2.119 . S
Zn757 O778 2.019 1_556 S
N758 Zn748 2.119 . S
N758 C760 1.334 . S
N758 C761 1.328 . S
C759 C760 1.391 . S
C759 N762 1.329 . S
C759 H780 0.930 . S
C760 N758 1.334 . S
C760 C759 1.391 . S
C760 H767 0.930 . S
C761 N758 1.328 . S
C761 C763 1.392 . S
C761 H768 0.930 . S
N762 C759 1.329 . S
N762 C763 1.331 . S
C763 C761 1.392 . S
C763 N762 1.331 . S
O764 Zn757 1.975 . S
O764 C765 1.252 . S
C765 O764 1.252 . S
C765 O766 1.252 . S
O766 Zn748 1.975 . S
O766 C765 1.252 . S
H767 C760 0.930 . S
H768 C761 0.930 . S
C769 C770 1.392 . S
C769 N773 1.328 . S
C769 H775 0.930 . S
C770 C769 1.392 . S
C770 N774 1.331 . S
C771 C772 1.391 . S
C771 N774 1.329 . S
C771 H781 0.930 . S
C772 C771 1.391 . S
C772 N773 1.334 . S
C772 H779 0.930 . S
N773 Zn757 2.119 . S
N773 C769 1.328 . S
N773 C772 1.334 . S
N774 C770 1.331 . S
N774 C771 1.329 . S
H775 C769 0.930 . S
C776 O756 1.257 . S
C776 O777 1.244 . S
O777 C776 1.244 . S
O778 C754 1.257 . S
O778 Zn757 2.019 1_554 S
H779 C772 0.930 . S
H780 C759 0.930 . S
H781 C771 0.930 . S
Zn782 N786 2.020 . S
Zn782 O790 2.019 . S
Zn782 N792 2.119 . S
Zn782 O800 1.975 . S
C783 N784 1.334 . S
C783 N787 1.336 . S
N784 C783 1.334 . S
N784 C785 1.334 . S
C785 N784 1.334 . S
C785 N786 1.336 . S
N786 Zn782 2.020 . S
N786 C785 1.336 . S
N786 N787 1.354 . S
N787 C783 1.336 . S
N787 N786 1.354 . S
N787 Zn791 2.020 1_545 S
C788 O789 1.246 . S
C788 O812 1.257 1_545 S
O789 C788 1.246 . S
O790 Zn782 2.019 . S
O790 C810 1.257 . S
Zn791 N787 2.020 1_565 S
Zn791 O798 1.975 1_565 S
Zn791 N807 2.119 . S
Zn791 O812 2.019 1_556 S
N792 Zn782 2.119 . S
N792 C794 1.334 . S
N792 C795 1.328 . S
C793 C794 1.391 . S
C793 N796 1.329 . S
C793 H814 0.930 . S
C794 N792 1.334 . S
C794 C793 1.391 . S
C794 H801 0.930 . S
C795 N792 1.328 . S
C795 C797 1.392 . S
C795 H802 0.930 . S
N796 C793 1.329 . S
N796 C797 1.331 . S
C797 C795 1.392 . S
C797 N796 1.331 . S
O798 Zn791 1.975 1_545 S
O798 C799 1.252 . S
C799 O798 1.252 . S
C799 O800 1.252 . S
O800 Zn782 1.975 . S
O800 C799 1.252 . S
H801 C794 0.930 . S
H802 C795 0.930 . S
C803 C804 1.392 . S
C803 N807 1.328 . S
C803 H809 0.930 . S
C804 C803 1.392 . S
C804 N808 1.331 . S
C805 C806 1.391 . S
C805 N808 1.329 . S
C805 H815 0.930 . S
C806 C805 1.391 . S
C806 N807 1.334 . S
C806 H813 0.930 . S
N807 Zn791 2.119 . S
N807 C803 1.328 . S
N807 C806 1.334 . S
N808 C804 1.331 . S
N808 C805 1.329 . S
H809 C803 0.930 . S
C810 O790 1.257 . S
C810 O811 1.244 1_545 S
O811 C810 1.244 1_565 S
O812 C788 1.257 1_565 S
O812 Zn791 2.019 1_554 S
H813 C806 0.930 . S
H814 C793 0.930 . S
H815 C805 0.930 . S
Zn816 N820 2.020 . S
Zn816 O824 2.019 . S
Zn816 N826 2.119 . S
Zn816 O834 1.975 . S
C817 N818 1.334 . S
C817 N821 1.336 . S
N818 C817 1.334 . S
N818 C819 1.334 . S
C819 N818 1.334 . S
C819 N820 1.336 . S
N820 Zn816 2.020 . S
N820 C819 1.336 . S
N820 N821 1.354 . S
N821 C817 1.336 . S
N821 N820 1.354 . S
N821 Zn825 2.020 . S
C822 O823 1.244 . S
C822 O846 1.257 . S
O823 C822 1.244 . S
O824 Zn816 2.019 . S
O824 C844 1.257 . S
Zn825 N821 2.020 . S
Zn825 O832 1.975 . S
Zn825 N841 2.119 . S
Zn825 O846 2.019 . S
N826 Zn816 2.119 . S
N826 C828 1.334 . S
N826 C829 1.328 . S
C827 C828 1.391 . S
C827 N830 1.329 . S
C827 H848 0.930 . S
C828 N826 1.334 . S
C828 C827 1.391 . S
C828 H835 0.930 . S
C829 N826 1.328 . S
C829 C831 1.392 . S
C829 H836 0.930 . S
N830 C827 1.329 . S
N830 C831 1.331 . S
C831 C829 1.392 . S
C831 N830 1.331 . S
O832 Zn825 1.975 . S
O832 C833 1.252 . S
C833 O832 1.252 . S
C833 O834 1.252 . S
O834 Zn816 1.975 . S
O834 C833 1.252 . S
H835 C828 0.930 . S
H836 C829 0.930 . S
C837 C838 1.392 . S
C837 N841 1.328 . S
C837 H843 0.930 . S
C838 C837 1.392 . S
C838 N842 1.331 . S
C839 C840 1.391 . S
C839 N842 1.329 . S
C839 H849 0.930 . S
C840 C839 1.391 . S
C840 N841 1.334 . S
C840 H847 0.930 . S
N841 Zn825 2.119 . S
N841 C837 1.328 . S
N841 C840 1.334 . S
N842 C838 1.331 . S
N842 C839 1.329 . S
H843 C837 0.930 . S
C844 O824 1.257 . S
C844 O845 1.244 . S
O845 C844 1.244 . S
O846 C822 1.257 . S
O846 Zn825 2.019 . S
H847 C840 0.930 . S
H848 C827 0.930 . S
H849 C839 0.930 . S
Zn850 N854 2.020 . S
Zn850 O858 2.019 . S
Zn850 N860 2.119 . S
Zn850 O868 1.975 . S
C851 N852 1.334 . S
C851 N855 1.336 . S
N852 C851 1.334 . S
N852 C853 1.334 . S
C853 N852 1.334 . S
C853 N854 1.336 . S
N854 Zn850 2.020 . S
N854 C853 1.336 . S
N854 N855 1.354 . S
N855 C851 1.336 . S
N855 N854 1.354 . S
N855 Zn859 2.020 . S
C856 O857 1.244 . S
C856 O880 1.257 . S
O857 C856 1.244 . S
O858 Zn850 2.019 . S
O858 C878 1.257 . S
Zn859 N855 2.020 . S
Zn859 O866 1.975 . S
Zn859 N875 2.119 . S
Zn859 O880 2.019 . S
N860 Zn850 2.119 . S
N860 C862 1.334 . S
N860 C863 1.328 . S
C861 C862 1.391 . S
C861 N864 1.329 . S
C861 H882 0.930 . S
C862 N860 1.334 . S
C862 C861 1.391 . S
C862 H869 0.930 . S
C863 N860 1.328 . S
C863 C865 1.392 . S
C863 H870 0.930 . S
N864 C861 1.329 . S
N864 C865 1.331 . S
C865 C863 1.392 . S
C865 N864 1.331 . S
O866 Zn859 1.975 . S
O866 C867 1.252 . S
C867 O866 1.252 . S
C867 O868 1.252 . S
O868 Zn850 1.975 . S
O868 C867 1.252 . S
H869 C862 0.930 . S
H870 C863 0.930 . S
C871 C872 1.392 . S
C871 N875 1.328 . S
C871 H877 0.930 . S
C872 C871 1.392 . S
C872 N876 1.331 . S
C873 C874 1.391 . S
C873 N876 1.329 . S
C873 H883 0.930 . S
C874 C873 1.391 . S
C874 N875 1.334 . S
C874 H881 0.930 . S
N875 Zn859 2.119 . S
N875 C871 1.328 . S
N875 C874 1.334 . S
N876 C872 1.331 . S
N876 C873 1.329 . S
H877 C871 0.930 . S
C878 O858 1.257 . S
C878 O879 1.244 . S
O879 C878 1.244 . S
O880 C856 1.257 . S
O880 Zn859 2.019 . S
H881 C874 0.930 . S
H882 C861 0.930 . S
H883 C873 0.930 . S
Zn884 N888 2.020 . S
Zn884 O892 2.019 . S
Zn884 N894 2.119 . S
Zn884 O902 1.975 . S
C885 N886 1.334 . S
C885 N889 1.336 . S
N886 C885 1.334 . S
N886 C887 1.334 . S
C887 N886 1.334 . S
C887 N888 1.336 . S
N888 Zn884 2.020 . S
N888 C887 1.336 . S
N888 N889 1.354 . S
N889 C885 1.336 . S
N889 N888 1.354 . S
N889 Zn893 2.020 . S
C890 O891 1.244 . S
C890 O914 1.257 . S
O891 C890 1.244 . S
O892 Zn884 2.019 . S
O892 C912 1.257 . S
Zn893 N889 2.020 . S
Zn893 O900 1.975 . S
Zn893 N909 2.119 . S
Zn893 O914 2.019 . S
N894 Zn884 2.119 . S
N894 C896 1.334 . S
N894 C897 1.328 . S
C895 C896 1.391 . S
C895 N898 1.329 . S
C895 H916 0.930 . S
C896 N894 1.334 . S
C896 C895 1.391 . S
C896 H903 0.930 . S
C897 N894 1.328 . S
C897 C899 1.392 . S
C897 H904 0.930 . S
N898 C895 1.329 . S
N898 C899 1.331 . S
C899 C897 1.392 . S
C899 N898 1.331 . S
O900 Zn893 1.975 . S
O900 C901 1.252 . S
C901 O900 1.252 . S
C901 O902 1.252 . S
O902 Zn884 1.975 . S
O902 C901 1.252 . S
H903 C896 0.930 . S
H904 C897 0.930 . S
C905 C906 1.392 . S
C905 N909 1.328 . S
C905 H911 0.930 . S
C906 C905 1.392 . S
C906 N910 1.331 . S
C907 C908 1.391 . S
C907 N910 1.329 . S
C907 H917 0.930 . S
C908 C907 1.391 . S
C908 N909 1.334 . S
C908 H915 0.930 . S
N909 Zn893 2.119 . S
N909 C905 1.328 . S
N909 C908 1.334 . S
N910 C906 1.331 . S
N910 C907 1.329 . S
H911 C905 0.930 . S
C912 O892 1.257 . S
C912 O913 1.244 . S
O913 C912 1.244 . S
O914 C890 1.257 . S
O914 Zn893 2.019 . S
H915 C908 0.930 . S
H916 C895 0.930 . S
H917 C907 0.930 . S
Zn918 N922 2.020 . S
Zn918 O926 2.019 . S
Zn918 N928 2.119 . S
Zn918 O936 1.975 . S
C919 N920 1.334 . S
C919 N923 1.336 . S
N920 C919 1.334 . S
N920 C921 1.334 . S
C921 N920 1.334 . S
C921 N922 1.336 . S
N922 Zn918 2.020 . S
N922 C921 1.336 . S
N922 N923 1.354 . S
N923 C919 1.336 . S
N923 N922 1.354 . S
N923 Zn927 2.020 . S
C924 O925 1.244 . S
C924 O948 1.257 . S
O925 C924 1.244 . S
O926 Zn918 2.019 . S
O926 C946 1.257 . S
Zn927 N923 2.020 . S
Zn927 O934 1.975 . S
Zn927 N943 2.119 . S
Zn927 O948 2.019 . S
N928 Zn918 2.119 . S
N928 C930 1.334 . S
N928 C931 1.328 . S
C929 C930 1.391 . S
C929 N932 1.329 . S
C929 H950 0.930 . S
C930 N928 1.334 . S
C930 C929 1.391 . S
C930 H937 0.930 . S
C931 N928 1.328 . S
C931 C933 1.392 . S
C931 H938 0.930 . S
N932 C929 1.329 . S
N932 C933 1.331 . S
C933 C931 1.392 . S
C933 N932 1.331 . S
O934 Zn927 1.975 . S
O934 C935 1.252 . S
C935 O934 1.252 . S
C935 O936 1.252 . S
O936 Zn918 1.975 . S
O936 C935 1.252 . S
H937 C930 0.930 . S
H938 C931 0.930 . S
C939 C940 1.392 . S
C939 N943 1.328 . S
C939 H945 0.930 . S
C940 C939 1.392 . S
C940 N944 1.331 . S
C941 C942 1.391 . S
C941 N944 1.329 . S
C941 H951 0.930 . S
C942 C941 1.391 . S
C942 N943 1.334 . S
C942 H949 0.930 . S
N943 Zn927 2.119 . S
N943 C939 1.328 . S
N943 C942 1.334 . S
N944 C940 1.331 . S
N944 C941 1.329 . S
H945 C939 0.930 . S
C946 O926 1.257 . S
C946 O947 1.244 . S
O947 C946 1.244 . S
O948 C924 1.257 . S
O948 Zn927 2.019 . S
H949 C942 0.930 . S
H950 C929 0.930 . S
H951 C941 0.930 . S
Zn952 N956 2.020 . S
Zn952 O960 2.019 . S
Zn952 N962 2.119 . S
Zn952 O970 1.975 . S
C953 N954 1.334 . S
C953 N957 1.336 . S
N954 C953 1.334 . S
N954 C955 1.334 . S
C955 N954 1.334 . S
C955 N956 1.336 . S
N956 Zn952 2.020 . S
N956 C955 1.336 . S
N956 N957 1.354 . S
N957 C953 1.336 . S
N957 N956 1.354 . S
N957 Zn961 2.020 . S
C958 O959 1.244 . S
C958 O982 1.257 . S
O959 C958 1.244 . S
O960 Zn952 2.019 . S
O960 C980 1.257 . S
Zn961 N957 2.020 . S
Zn961 O968 1.975 . S
Zn961 N977 2.119 . S
Zn961 O982 2.019 . S
N962 Zn952 2.119 . S
N962 C964 1.334 . S
N962 C965 1.328 . S
C963 C964 1.391 . S
C963 N966 1.329 . S
C963 H984 0.930 . S
C964 N962 1.334 . S
C964 C963 1.391 . S
C964 H971 0.930 . S
C965 N962 1.328 . S
C965 C967 1.392 . S
C965 H972 0.930 . S
N966 C963 1.329 . S
N966 C967 1.331 . S
C967 C965 1.392 . S
C967 N966 1.331 . S
O968 Zn961 1.975 . S
O968 C969 1.252 . S
C969 O968 1.252 . S
C969 O970 1.252 . S
O970 Zn952 1.975 . S
O970 C969 1.252 . S
H971 C964 0.930 . S
H972 C965 0.930 . S
C973 C974 1.392 . S
C973 N977 1.328 . S
C973 H979 0.930 . S
C974 C973 1.392 . S
C974 N978 1.331 . S
C975 C976 1.391 . S
C975 N978 1.329 . S
C975 H985 0.930 . S
C976 C975 1.391 . S
C976 N977 1.334 . S
C976 H983 0.930 . S
N977 Zn961 2.119 . S
N977 C973 1.328 . S
N977 C976 1.334 . S
N978 C974 1.331 . S
N978 C975 1.329 . S
H979 C973 0.930 . S
C980 O960 1.257 . S
C980 O981 1.244 . S
O981 C980 1.244 . S
O982 C958 1.257 . S
O982 Zn961 2.019 . S
H983 C976 0.930 . S
H984 C963 0.930 . S
H985 C975 0.930 . S
Zn986 N990 2.020 . S
Zn986 O994 2.019 . S
Zn986 N996 2.119 . S
Zn986 O1004 1.975 . S
C987 N988 1.334 . S
C987 N991 1.336 . S
N988 C987 1.334 . S
N988 C989 1.334 . S
C989 N988 1.334 . S
C989 N990 1.336 . S
N990 Zn986 2.020 . S
N990 C989 1.336 . S
N990 N991 1.354 . S
N991 C987 1.336 . S
N991 N990 1.354 . S
N991 Zn995 2.020 . S
C992 O993 1.244 . S
C992 O1016 1.257 . S
O993 C992 1.244 . S
O994 Zn986 2.019 . S
O994 C1014 1.257 . S
Zn995 N991 2.020 . S
Zn995 O1002 1.975 . S
Zn995 N1011 2.119 . S
Zn995 O1016 2.019 . S
N996 Zn986 2.119 . S
N996 C998 1.334 . S
N996 C999 1.328 . S
C997 C998 1.391 . S
C997 N1000 1.329 . S
C997 H1018 0.930 . S
C998 N996 1.334 . S
C998 C997 1.391 . S
C998 H1005 0.930 . S
C999 N996 1.328 . S
C999 C1001 1.392 . S
C999 H1006 0.930 . S
N1000 C997 1.329 . S
N1000 C1001 1.331 . S
C1001 C999 1.392 . S
C1001 N1000 1.331 . S
O1002 Zn995 1.975 . S
O1002 C1003 1.252 . S
C1003 O1002 1.252 . S
C1003 O1004 1.252 . S
O1004 Zn986 1.975 . S
O1004 C1003 1.252 . S
H1005 C998 0.930 . S
H1006 C999 0.930 . S
C1007 C1008 1.392 . S
C1007 N1011 1.328 . S
C1007 H1013 0.930 . S
C1008 C1007 1.392 . S
C1008 N1012 1.331 . S
C1009 C1010 1.391 . S
C1009 N1012 1.329 . S
C1009 H1019 0.930 . S
C1010 C1009 1.391 . S
C1010 N1011 1.334 . S
C1010 H1017 0.930 . S
N1011 Zn995 2.119 . S
N1011 C1007 1.328 . S
N1011 C1010 1.334 . S
N1012 C1008 1.331 . S
N1012 C1009 1.329 . S
H1013 C1007 0.930 . S
C1014 O994 1.257 . S
C1014 O1015 1.244 . S
O1015 C1014 1.244 . S
O1016 C992 1.257 . S
O1016 Zn995 2.019 . S
H1017 C1010 0.930 . S
H1018 C997 0.930 . S
H1019 C1009 0.930 . S
Zn1020 N1024 2.020 . S
Zn1020 O1028 2.019 . S
Zn1020 N1030 2.119 . S
Zn1020 O1038 1.975 . S
C1021 N1022 1.334 . S
C1021 N1025 1.336 . S
N1022 C1021 1.334 . S
N1022 C1023 1.334 . S
C1023 N1022 1.334 . S
C1023 N1024 1.336 . S
N1024 Zn1020 2.020 . S
N1024 C1023 1.336 . S
N1024 N1025 1.354 . S
N1025 C1021 1.336 . S
N1025 N1024 1.354 . S
N1025 Zn1029 2.020 . S
C1026 O1027 1.244 . S
C1026 O1050 1.257 . S
O1027 C1026 1.244 . S
O1028 Zn1020 2.019 . S
O1028 C1048 1.257 . S
Zn1029 N1025 2.020 . S
Zn1029 O1036 1.975 . S
Zn1029 N1045 2.119 . S
Zn1029 O1050 2.019 . S
N1030 Zn1020 2.119 . S
N1030 C1032 1.334 . S
N1030 C1033 1.328 . S
C1031 C1032 1.391 . S
C1031 N1034 1.329 . S
C1031 H1052 0.930 . S
C1032 N1030 1.334 . S
C1032 C1031 1.391 . S
C1032 H1039 0.930 . S
C1033 N1030 1.328 . S
C1033 C1035 1.392 . S
C1033 H1040 0.930 . S
N1034 C1031 1.329 . S
N1034 C1035 1.331 . S
C1035 C1033 1.392 . S
C1035 N1034 1.331 . S
O1036 Zn1029 1.975 . S
O1036 C1037 1.252 . S
C1037 O1036 1.252 . S
C1037 O1038 1.252 . S
O1038 Zn1020 1.975 . S
O1038 C1037 1.252 . S
H1039 C1032 0.930 . S
H1040 C1033 0.930 . S
C1041 C1042 1.392 . S
C1041 N1045 1.328 . S
C1041 H1047 0.930 . S
C1042 C1041 1.392 . S
C1042 N1046 1.331 . S
C1043 C1044 1.391 . S
C1043 N1046 1.329 . S
C1043 H1053 0.930 . S
C1044 C1043 1.391 . S
C1044 N1045 1.334 . S
C1044 H1051 0.930 . S
N1045 Zn1029 2.119 . S
N1045 C1041 1.328 . S
N1045 C1044 1.334 . S
N1046 C1042 1.331 . S
N1046 C1043 1.329 . S
H1047 C1041 0.930 . S
C1048 O1028 1.257 . S
C1048 O1049 1.244 . S
O1049 C1048 1.244 . S
O1050 C1026 1.257 . S
O1050 Zn1029 2.019 . S
H1051 C1044 0.930 . S
H1052 C1031 0.930 . S
H1053 C1043 0.930 . S
Zn1054 N1058 2.020 . S
Zn1054 O1062 2.019 . S
Zn1054 N1064 2.119 . S
Zn1054 O1072 1.975 . S
C1055 N1056 1.334 . S
C1055 N1059 1.336 . S
N1056 C1055 1.334 . S
N1056 C1057 1.334 . S
C1057 N1056 1.334 . S
C1057 N1058 1.336 . S
N1058 Zn1054 2.020 . S
N1058 C1057 1.336 . S
N1058 N1059 1.354 . S
N1059 C1055 1.336 . S
N1059 N1058 1.354 . S
N1059 Zn1063 2.020 . S
C1060 O1061 1.244 . S
C1060 O1084 1.257 . S
O1061 C1060 1.244 . S
O1062 Zn1054 2.019 . S
O1062 C1082 1.257 . S
Zn1063 N1059 2.020 . S
Zn1063 O1070 1.975 . S
Zn1063 N1079 2.119 . S
Zn1063 O1084 2.019 . S
N1064 Zn1054 2.119 . S
N1064 C1066 1.334 . S
N1064 C1067 1.328 . S
C1065 C1066 1.391 . S
C1065 N1068 1.329 . S
C1065 H1086 0.930 . S
C1066 N1064 1.334 . S
C1066 C1065 1.391 . S
C1066 H1073 0.930 . S
C1067 N1064 1.328 . S
C1067 C1069 1.392 . S
C1067 H1074 0.930 . S
N1068 C1065 1.329 . S
N1068 C1069 1.331 . S
C1069 C1067 1.392 . S
C1069 N1068 1.331 . S
O1070 Zn1063 1.975 . S
O1070 C1071 1.252 . S
C1071 O1070 1.252 . S
C1071 O1072 1.252 . S
O1072 Zn1054 1.975 . S
O1072 C1071 1.252 . S
H1073 C1066 0.930 . S
H1074 C1067 0.930 . S
C1075 C1076 1.392 . S
C1075 N1079 1.328 . S
C1075 H1081 0.930 . S
C1076 C1075 1.392 . S
C1076 N1080 1.331 . S
C1077 C1078 1.391 . S
C1077 N1080 1.329 . S
C1077 H1087 0.930 . S
C1078 C1077 1.391 . S
C1078 N1079 1.334 . S
C1078 H1085 0.930 . S
N1079 Zn1063 2.119 . S
N1079 C1075 1.328 . S
N1079 C1078 1.334 . S
N1080 C1076 1.331 . S
N1080 C1077 1.329 . S
H1081 C1075 0.930 . S
C1082 O1062 1.257 . S
C1082 O1083 1.244 . S
O1083 C1082 1.244 . S
O1084 C1060 1.257 . S
O1084 Zn1063 2.019 . S
H1085 C1078 0.930 . S
H1086 C1065 0.930 . S
H1087 C1077 0.930 . S
H1088 C1096 0.950 . S
H1089 C1101 0.950 . S
H1090 C1098 0.950 . S
H1091 C1100 0.950 . S
H1092 C1102 0.950 . S
H1093 C1104 0.950 . S
H1094 C1106 0.950 . S
H1095 C1107 0.950 . S
C1096 H1088 0.950 . S
C1096 C1097 1.386 . S
C1096 C1098 1.391 . S
C1097 C1096 1.386 . S
C1097 C1101 1.393 . S
C1098 H1090 0.950 . S
C1098 C1096 1.391 . S
C1098 C1099 1.400 . S
C1099 C1098 1.400 . S
C1099 C1100 1.398 . S
C1099 C1105 1.491 . S
C1100 H1091 0.950 . S
C1100 C1099 1.398 . S
C1100 C1101 1.391 . S
C1101 H1089 0.950 . S
C1101 C1097 1.393 . S
C1101 C1100 1.391 . S
C1102 H1092 0.950 . S
C1102 C1103 1.386 . S
C1102 C1104 1.391 . S
C1103 C1102 1.386 . S
C1103 C1107 1.393 . S
C1104 H1093 0.950 . S
C1104 C1102 1.391 . S
C1104 C1105 1.400 . S
C1105 C1099 1.491 . S
C1105 C1104 1.400 . S
C1105 C1106 1.398 . S
C1106 H1094 0.950 . S
C1106 C1105 1.398 . S
C1106 C1107 1.391 . S
C1107 H1095 0.950 . S
C1107 C1103 1.393 . S
C1107 C1106 1.391 . S
H1108 C1116 0.950 . S
H1109 C1121 0.950 . S
H1110 C1118 0.950 . S
H1111 C1120 0.950 . S
H1112 C1122 0.950 . S
H1113 C1124 0.950 . S
H1114 C1126 0.950 . S
H1115 C1127 0.950 . S
C1116 H1108 0.950 . S
C1116 C1117 1.386 . S
C1116 C1118 1.391 . S
C1117 C1116 1.386 . S
C1117 C1121 1.393 . S
C1118 H1110 0.950 . S
C1118 C1116 1.391 . S
C1118 C1119 1.400 . S
C1119 C1118 1.400 . S
C1119 C1120 1.398 . S
C1119 C1125 1.491 . S
C1120 H1111 0.950 . S
C1120 C1119 1.398 . S
C1120 C1121 1.391 . S
C1121 H1109 0.950 . S
C1121 C1117 1.393 . S
C1121 C1120 1.391 . S
C1122 H1112 0.950 . S
C1122 C1123 1.386 . S
C1122 C1124 1.391 . S
C1123 C1122 1.386 . S
C1123 C1127 1.393 . S
C1124 H1113 0.950 . S
C1124 C1122 1.391 . S
C1124 C1125 1.400 . S
C1125 C1119 1.491 . S
C1125 C1124 1.400 . S
C1125 C1126 1.398 . S
C1126 H1114 0.950 . S
C1126 C1125 1.398 . S
C1126 C1127 1.391 . S
C1127 H1115 0.950 . S
C1127 C1123 1.393 . S
C1127 C1126 1.391 . S
H1128 C1136 0.950 . S
H1129 C1141 0.950 . S
H1130 C1138 0.950 . S
H1131 C1140 0.950 . S
H1132 C1142 0.950 . S
H1133 C1144 0.950 . S
H1134 C1146 0.950 . S
H1135 C1147 0.950 . S
C1136 H1128 0.950 . S
C1136 C1137 1.386 . S
C1136 C1138 1.391 . S
C1137 C1136 1.386 . S
C1137 C1141 1.393 . S
C1138 H1130 0.950 . S
C1138 C1136 1.391 . S
C1138 C1139 1.400 . S
C1139 C1138 1.400 . S
C1139 C1140 1.398 . S
C1139 C1145 1.491 . S
C1140 H1131 0.950 . S
C1140 C1139 1.398 . S
C1140 C1141 1.391 . S
C1141 H1129 0.950 . S
C1141 C1137 1.393 . S
C1141 C1140 1.391 . S
C1142 H1132 0.950 . S
C1142 C1143 1.386 . S
C1142 C1144 1.391 . S
C1143 C1142 1.386 . S
C1143 C1147 1.393 . S
C1144 H1133 0.950 . S
C1144 C1142 1.391 . S
C1144 C1145 1.400 . S
C1145 C1139 1.491 . S
C1145 C1144 1.400 . S
C1145 C1146 1.398 . S
C1146 H1134 0.950 . S
C1146 C1145 1.398 . S
C1146 C1147 1.391 . S
C1147 H1135 0.950 . S
C1147 C1143 1.393 . S
C1147 C1146 1.391 . S
H1148 C1156 0.950 . S
H1149 C1161 0.950 . S
H1150 C1158 0.950 . S
H1151 C1160 0.950 . S
H1152 C1162 0.950 . S
H1153 C1164 0.950 . S
H1154 C1166 0.950 . S
H1155 C1167 0.950 . S
C1156 H1148 0.950 . S
C1156 C1157 1.386 . S
C1156 C1158 1.391 . S
C1157 C1156 1.386 . S
C1157 C1161 1.393 . S
C1158 H1150 0.950 . S
C1158 C1156 1.391 . S
C1158 C1159 1.400 . S
C1159 C1158 1.400 . S
C1159 C1160 1.398 . S
C1159 C1165 1.491 . S
C1160 H1151 0.950 . S
C1160 C1159 1.398 . S
C1160 C1161 1.391 . S
C1161 H1149 0.950 . S
C1161 C1157 1.393 . S
C1161 C1160 1.391 . S
C1162 H1152 0.950 . S
C1162 C1163 1.386 . S
C1162 C1164 1.391 . S
C1163 C1162 1.386 . S
C1163 C1167 1.393 . S
C1164 H1153 0.950 . S
C1164 C1162 1.391 . S
C1164 C1165 1.400 . S
C1165 C1159 1.491 . S
C1165 C1164 1.400 . S
C1165 C1166 1.398 . S
C1166 H1154 0.950 . S
C1166 C1165 1.398 . S
C1166 C1167 1.391 . S
C1167 H1155 0.950 . S
C1167 C1163 1.393 . S
C1167 C1166 1.391 . S
H1168 C1176 0.950 . S
H1169 C1181 0.950 . S
H1170 C1178 0.950 . S
H1171 C1180 0.950 . S
H1172 C1182 0.950 . S
H1173 C1184 0.950 . S
H1174 C1186 0.950 . S
H1175 C1187 0.950 . S
C1176 H1168 0.950 . S
C1176 C1177 1.386 . S
C1176 C1178 1.391 . S
C1177 C1176 1.386 . S
C1177 C1181 1.393 . S
C1178 H1170 0.950 . S
C1178 C1176 1.391 . S
C1178 C1179 1.400 . S
C1179 C1178 1.400 . S
C1179 C1180 1.398 . S
C1179 C1185 1.491 . S
C1180 H1171 0.950 . S
C1180 C1179 1.398 . S
C1180 C1181 1.391 . S
C1181 H1169 0.950 . S
C1181 C1177 1.393 . S
C1181 C1180 1.391 . S
C1182 H1172 0.950 . S
C1182 C1183 1.386 . S
C1182 C1184 1.391 . S
C1183 C1182 1.386 . S
C1183 C1187 1.393 . S
C1184 H1173 0.950 . S
C1184 C1182 1.391 . S
C1184 C1185 1.400 . S
C1185 C1179 1.491 . S
C1185 C1184 1.400 . S
C1185 C1186 1.398 . S
C1186 H1174 0.950 . S
C1186 C1185 1.398 . S
C1186 C1187 1.391 . S
C1187 H1175 0.950 . S
C1187 C1183 1.393 . S
C1187 C1186 1.391 . S
H1188 C1196 0.950 . S
H1189 C1201 0.950 . S
H1190 C1198 0.950 . S
H1191 C1200 0.950 . S
H1192 C1202 0.950 . S
H1193 C1204 0.950 . S
H1194 C1206 0.950 . S
H1195 C1207 0.950 . S
C1196 H1188 0.950 . S
C1196 C1197 1.386 . S
C1196 C1198 1.391 . S
C1197 C1196 1.386 . S
C1197 C1201 1.393 . S
C1198 H1190 0.950 . S
C1198 C1196 1.391 . S
C1198 C1199 1.400 . S
C1199 C1198 1.400 . S
C1199 C1200 1.398 . S
C1199 C1205 1.491 . S
C1200 H1191 0.950 . S
C1200 C1199 1.398 . S
C1200 C1201 1.391 . S
C1201 H1189 0.950 . S
C1201 C1197 1.393 . S
C1201 C1200 1.391 . S
C1202 H1192 0.950 . S
C1202 C1203 1.386 . S
C1202 C1204 1.391 . S
C1203 C1202 1.386 . S
C1203 C1207 1.393 . S
C1204 H1193 0.950 . S
C1204 C1202 1.391 . S
C1204 C1205 1.400 . S
C1205 C1199 1.491 . S
C1205 C1204 1.400 . S
C1205 C1206 1.398 . S
C1206 H1194 0.950 . S
C1206 C1205 1.398 . S
C1206 C1207 1.391 . S
C1207 H1195 0.950 . S
C1207 C1203 1.393 . S
C1207 C1206 1.391 . S
H1208 C1216 0.950 . S
H1209 C1221 0.950 . S
H1210 C1218 0.950 . S
H1211 C1220 0.950 . S
H1212 C1222 0.950 . S
H1213 C1224 0.950 . S
H1214 C1226 0.950 . S
H1215 C1227 0.950 . S
C1216 H1208 0.950 . S
C1216 C1217 1.386 . S
C1216 C1218 1.391 . S
C1217 C1216 1.386 . S
C1217 C1221 1.393 . S
C1218 H1210 0.950 . S
C1218 C1216 1.391 . S
C1218 C1219 1.400 . S
C1219 C1218 1.400 . S
C1219 C1220 1.398 . S
C1219 C1225 1.491 . S
C1220 H1211 0.950 . S
C1220 C1219 1.398 . S
C1220 C1221 1.391 . S
C1221 H1209 0.950 . S
C1221 C1217 1.393 . S
C1221 C1220 1.391 . S
C1222 H1212 0.950 . S
C1222 C1223 1.386 . S
C1222 C1224 1.391 . S
C1223 C1222 1.386 . S
C1223 C1227 1.393 . S
C1224 H1213 0.950 . S
C1224 C1222 1.391 . S
C1224 C1225 1.400 . S
C1225 C1219 1.491 . S
C1225 C1224 1.400 . S
C1225 C1226 1.398 . S
C1226 H1214 0.950 . S
C1226 C1225 1.398 . S
C1226 C1227 1.391 . S
C1227 H1215 0.950 . S
C1227 C1223 1.393 . S
C1227 C1226 1.391 . S
H1228 C1236 0.950 . S
H1229 C1241 0.950 . S
H1230 C1238 0.950 1_554 S
H1231 C1240 0.950 . S
H1232 C1242 0.950 . S
H1233 C1244 0.950 . S
H1234 C1246 0.950 1_554 S
H1235 C1247 0.950 1_554 S
C1236 H1228 0.950 . S
C1236 C1237 1.386 . S
C1236 C1238 1.391 . S
C1237 C1236 1.386 . S
C1237 C1241 1.393 . S
C1238 H1230 0.950 1_556 S
C1238 C1236 1.391 . S
C1238 C1239 1.400 . S
C1239 C1238 1.400 . S
C1239 C1240 1.398 . S
C1239 C1245 1.491 . S
C1240 H1231 0.950 . S
C1240 C1239 1.398 . S
C1240 C1241 1.391 . S
C1241 H1229 0.950 . S
C1241 C1237 1.393 . S
C1241 C1240 1.391 . S
C1242 H1232 0.950 . S
C1242 C1243 1.386 . S
C1242 C1244 1.391 . S
C1243 C1242 1.386 . S
C1243 C1247 1.393 . S
C1244 H1233 0.950 . S
C1244 C1242 1.391 . S
C1244 C1245 1.400 . S
C1245 C1239 1.491 . S
C1245 C1244 1.400 . S
C1245 C1246 1.398 . S
C1246 H1234 0.950 1_556 S
C1246 C1245 1.398 . S
C1246 C1247 1.391 . S
C1247 H1235 0.950 1_556 S
C1247 C1243 1.393 . S
C1247 C1246 1.391 . S
H1248 C1256 0.950 . S
H1249 C1261 0.950 . S
H1250 C1258 0.950 . S
H1251 C1260 0.950 . S
H1252 C1262 0.950 . S
H1253 C1264 0.950 . S
H1254 C1266 0.950 . S
H1255 C1267 0.950 . S
C1256 H1248 0.950 . S
C1256 C1257 1.386 . S
C1256 C1258 1.391 . S
C1257 C1256 1.386 . S
C1257 C1261 1.393 . S
C1258 H1250 0.950 . S
C1258 C1256 1.391 . S
C1258 C1259 1.400 . S
C1259 C1258 1.400 . S
C1259 C1260 1.398 . S
C1259 C1265 1.491 . S
C1260 H1251 0.950 . S
C1260 C1259 1.398 . S
C1260 C1261 1.391 . S
C1261 H1249 0.950 . S
C1261 C1257 1.393 . S
C1261 C1260 1.391 . S
C1262 H1252 0.950 . S
C1262 C1263 1.386 . S
C1262 C1264 1.391 . S
C1263 C1262 1.386 . S
C1263 C1267 1.393 . S
C1264 H1253 0.950 . S
C1264 C1262 1.391 . S
C1264 C1265 1.400 . S
C1265 C1259 1.491 . S
C1265 C1264 1.400 . S
C1265 C1266 1.398 . S
C1266 H1254 0.950 . S
C1266 C1265 1.398 . S
C1266 C1267 1.391 . S
C1267 H1255 0.950 . S
C1267 C1263 1.393 . S
C1267 C1266 1.391 . S
H1268 C1276 0.950 . S
H1269 C1281 0.950 . S
H1270 C1278 0.950 . S
H1271 C1280 0.950 . S
H1272 C1282 0.950 . S
H1273 C1284 0.950 . S
H1274 C1286 0.950 . S
H1275 C1287 0.950 . S
C1276 H1268 0.950 . S
C1276 C1277 1.386 . S
C1276 C1278 1.391 . S
C1277 C1276 1.386 . S
C1277 C1281 1.393 . S
C1278 H1270 0.950 . S
C1278 C1276 1.391 . S
C1278 C1279 1.400 . S
C1279 C1278 1.400 . S
C1279 C1280 1.398 . S
C1279 C1285 1.491 . S
C1280 H1271 0.950 . S
C1280 C1279 1.398 . S
C1280 C1281 1.391 . S
C1281 H1269 0.950 . S
C1281 C1277 1.393 . S
C1281 C1280 1.391 . S
C1282 H1272 0.950 . S
C1282 C1283 1.386 . S
C1282 C1284 1.391 . S
C1283 C1282 1.386 . S
C1283 C1287 1.393 . S
C1284 H1273 0.950 . S
C1284 C1282 1.391 . S
C1284 C1285 1.400 . S
C1285 C1279 1.491 . S
C1285 C1284 1.400 . S
C1285 C1286 1.398 . S
C1286 H1274 0.950 . S
C1286 C1285 1.398 . S
C1286 C1287 1.391 . S
C1287 H1275 0.950 . S
C1287 C1283 1.393 . S
C1287 C1286 1.391 . S
H1288 C1296 0.950 1_554 S
H1289 C1301 0.950 . S
H1290 C1298 0.950 1_554 S
H1291 C1300 0.950 . S
H1292 C1302 0.950 . S
H1293 C1304 0.950 . S
H1294 C1306 0.950 1_554 S
H1295 C1307 0.959 . S
C1296 H1288 0.950 1_556 S
C1296 C1297 1.386 . S
C1296 C1298 1.391 . S
C1297 C1296 1.386 . S
C1297 C1301 1.393 . S
C1298 H1290 0.950 1_556 S
C1298 C1296 1.391 . S
C1298 C1299 1.400 . S
C1299 C1298 1.400 . S
C1299 C1300 1.398 . S
C1299 C1305 1.491 . S
C1300 H1291 0.950 . S
C1300 C1299 1.398 . S
C1300 C1301 1.391 . S
C1301 H1289 0.950 . S
C1301 C1297 1.393 . S
C1301 C1300 1.391 . S
C1302 H1292 0.950 . S
C1302 C1303 1.386 . S
C1302 C1304 1.391 . S
C1303 C1302 1.386 . S
C1303 C1307 1.393 . S
C1304 H1293 0.950 . S
C1304 C1302 1.391 . S
C1304 C1305 1.400 . S
C1305 C1299 1.491 . S
C1305 C1304 1.400 . S
C1305 C1306 1.398 . S
C1306 H1294 0.950 1_556 S
C1306 C1305 1.398 . S
C1306 C1307 1.391 . S
C1307 H1295 0.959 . S
C1307 C1303 1.393 . S
C1307 C1306 1.391 . S
H1308 C1316 0.950 . S
H1309 C1321 0.950 . S
H1310 C1318 0.950 . S
H1311 C1320 0.950 . S
H1312 C1322 0.950 . S
H1313 C1324 0.950 . S
H1314 C1326 0.950 . S
H1315 C1327 0.950 . S
C1316 H1308 0.950 . S
C1316 C1317 1.386 . S
C1316 C1318 1.391 . S
C1317 C1316 1.386 . S
C1317 C1321 1.393 . S
C1318 H1310 0.950 . S
C1318 C1316 1.391 . S
C1318 C1319 1.400 . S
C1319 C1318 1.400 . S
C1319 C1320 1.398 . S
C1319 C1325 1.491 . S
C1320 H1311 0.950 . S
C1320 C1319 1.398 . S
C1320 C1321 1.391 . S
C1321 H1309 0.950 . S
C1321 C1317 1.393 . S
C1321 C1320 1.391 . S
C1322 H1312 0.950 . S
C1322 C1323 1.386 . S
C1322 C1324 1.391 . S
C1323 C1322 1.386 . S
C1323 C1327 1.393 . S
C1324 H1313 0.950 . S
C1324 C1322 1.391 . S
C1324 C1325 1.400 . S
C1325 C1319 1.491 . S
C1325 C1324 1.400 . S
C1325 C1326 1.398 . S
C1326 H1314 0.950 . S
C1326 C1325 1.398 . S
C1326 C1327 1.391 . S
C1327 H1315 0.950 . S
C1327 C1323 1.393 . S
C1327 C1326 1.391 . S
H1328 C1336 0.950 . S
H1329 C1341 0.950 . S
H1330 C1338 0.950 . S
H1331 C1340 0.950 . S
H1332 C1342 0.950 . S
H1333 C1344 0.950 . S
H1334 C1346 0.950 . S
H1335 C1347 0.950 . S
C1336 H1328 0.950 . S
C1336 C1337 1.386 . S
C1336 C1338 1.391 . S
C1337 C1336 1.386 . S
C1337 C1341 1.393 . S
C1338 H1330 0.950 . S
C1338 C1336 1.391 . S
C1338 C1339 1.400 . S
C1339 C1338 1.400 . S
C1339 C1340 1.398 . S
C1339 C1345 1.491 . S
C1340 H1331 0.950 . S
C1340 C1339 1.398 . S
C1340 C1341 1.391 . S
C1341 H1329 0.950 . S
C1341 C1337 1.393 . S
C1341 C1340 1.391 . S
C1342 H1332 0.950 . S
C1342 C1343 1.386 . S
C1342 C1344 1.391 . S
C1343 C1342 1.386 . S
C1343 C1347 1.393 . S
C1344 H1333 0.950 . S
C1344 C1342 1.391 . S
C1344 C1345 1.400 . S
C1345 C1339 1.491 . S
C1345 C1344 1.400 . S
C1345 C1346 1.398 . S
C1346 H1334 0.950 . S
C1346 C1345 1.398 . S
C1346 C1347 1.391 . S
C1347 H1335 0.950 . S
C1347 C1343 1.393 . S
C1347 C1346 1.391 . S
H1348 C1356 0.950 . S
H1349 C1361 0.950 . S
H1350 C1358 0.950 . S
H1351 C1360 0.950 . S
H1352 C1362 0.950 . S
H1353 C1364 0.950 . S
H1354 C1366 0.950 . S
H1355 C1367 0.950 . S
C1356 H1348 0.950 . S
C1356 C1357 1.386 . S
C1356 C1358 1.391 . S
C1357 C1356 1.386 . S
C1357 C1361 1.393 . S
C1358 H1350 0.950 . S
C1358 C1356 1.391 . S
C1358 C1359 1.400 . S
C1359 C1358 1.400 . S
C1359 C1360 1.398 . S
C1359 C1365 1.491 . S
C1360 H1351 0.950 . S
C1360 C1359 1.398 . S
C1360 C1361 1.391 . S
C1361 H1349 0.950 . S
C1361 C1357 1.393 . S
C1361 C1360 1.391 . S
C1362 H1352 0.950 . S
C1362 C1363 1.386 . S
C1362 C1364 1.391 . S
C1363 C1362 1.386 . S
C1363 C1367 1.393 . S
C1364 H1353 0.950 . S
C1364 C1362 1.391 . S
C1364 C1365 1.400 . S
C1365 C1359 1.491 . S
C1365 C1364 1.400 . S
C1365 C1366 1.398 . S
C1366 H1354 0.950 . S
C1366 C1365 1.398 . S
C1366 C1367 1.391 . S
C1367 H1355 0.950 . S
C1367 C1363 1.393 . S
C1367 C1366 1.391 . S
H1368 C1376 0.950 . S
H1369 C1381 0.950 . S
H1370 C1378 0.950 . S
H1371 C1380 0.950 . S
H1372 C1382 0.950 . S
H1373 C1384 0.950 . S
H1374 C1386 0.950 . S
H1375 C1387 0.950 . S
C1376 H1368 0.950 . S
C1376 C1377 1.386 . S
C1376 C1378 1.391 . S
C1377 C1376 1.386 . S
C1377 C1381 1.393 . S
C1378 H1370 0.950 . S
C1378 C1376 1.391 . S
C1378 C1379 1.400 . S
C1379 C1378 1.400 . S
C1379 C1380 1.398 . S
C1379 C1385 1.491 . S
C1380 H1371 0.950 . S
C1380 C1379 1.398 . S
C1380 C1381 1.391 . S
C1381 H1369 0.950 . S
C1381 C1377 1.393 . S
C1381 C1380 1.391 . S
C1382 H1372 0.950 . S
C1382 C1383 1.386 . S
C1382 C1384 1.391 . S
C1383 C1382 1.386 . S
C1383 C1387 1.393 . S
C1384 H1373 0.950 . S
C1384 C1382 1.391 . S
C1384 C1385 1.400 . S
C1385 C1379 1.491 . S
C1385 C1384 1.400 . S
C1385 C1386 1.398 . S
C1386 H1374 0.950 . S
C1386 C1385 1.398 . S
C1386 C1387 1.391 . S
C1387 H1375 0.950 . S
C1387 C1383 1.393 . S
C1387 C1386 1.391 . S
H1388 C1396 0.950 . S
H1389 C1401 0.950 . S
H1390 C1398 0.950 . S
H1391 C1400 0.950 . S
H1392 C1402 0.950 . S
H1393 C1404 0.950 . S
H1394 C1406 0.950 . S
H1395 C1407 0.950 . S
C1396 H1388 0.950 . S
C1396 C1397 1.386 . S
C1396 C1398 1.391 . S
C1397 C1396 1.386 . S
C1397 C1401 1.393 . S
C1398 H1390 0.950 . S
C1398 C1396 1.391 . S
C1398 C1399 1.400 . S
C1399 C1398 1.400 . S
C1399 C1400 1.398 . S
C1399 C1405 1.491 . S
C1400 H1391 0.950 . S
C1400 C1399 1.398 . S
C1400 C1401 1.391 . S
C1401 H1389 0.950 . S
C1401 C1397 1.393 . S
C1401 C1400 1.391 . S
C1402 H1392 0.950 . S
C1402 C1403 1.386 . S
C1402 C1404 1.391 . S
C1403 C1402 1.386 . S
C1403 C1407 1.393 . S
C1404 H1393 0.950 . S
C1404 C1402 1.391 . S
C1404 C1405 1.400 . S
C1405 C1399 1.491 . S
C1405 C1404 1.400 . S
C1405 C1406 1.398 . S
C1406 H1394 0.950 . S
C1406 C1405 1.398 . S
C1406 C1407 1.391 . S
C1407 H1395 0.950 . S
C1407 C1403 1.393 . S
C1407 C1406 1.391 . S
H1408 C1416 0.950 . S
H1409 C1421 0.921 1_565 S
H1410 C1418 0.950 . S
H1411 C1420 0.950 . S
H1412 C1422 0.950 . S
H1413 C1424 0.950 . S
H1414 C1426 0.950 . S
H1415 C1427 0.950 . S
C1416 H1408 0.950 . S
C1416 C1417 1.386 . S
C1416 C1418 1.391 . S
C1417 C1416 1.386 . S
C1417 C1421 1.431 . S
C1418 H1410 0.950 . S
C1418 C1416 1.391 . S
C1418 C1419 1.400 . S
C1419 C1418 1.400 . S
C1419 C1420 1.398 1_545 S
C1419 C1425 1.491 . S
C1420 H1411 0.950 . S
C1420 C1419 1.398 1_565 S
C1420 C1421 1.384 1_565 S
C1421 H1409 0.921 1_545 S
C1421 C1417 1.431 . S
C1421 C1420 1.384 1_545 S
C1422 H1412 0.950 . S
C1422 C1423 1.367 1_565 S
C1422 C1424 1.391 . S
C1423 C1422 1.367 1_545 S
C1423 C1427 1.417 . S
C1424 H1413 0.950 . S
C1424 C1422 1.391 . S
C1424 C1425 1.400 1_565 S
C1425 C1419 1.491 . S
C1425 C1424 1.400 1_545 S
C1425 C1426 1.398 . S
C1426 H1414 0.950 . S
C1426 C1425 1.398 . S
C1426 C1427 1.391 . S
C1427 H1415 0.950 . S
C1427 C1423 1.417 . S
C1427 C1426 1.391 . S
H1428 C1436 0.950 . S
H1429 C1441 0.950 . S
H1430 C1438 0.950 . S
H1431 C1440 0.950 1_655 S
H1432 C1442 0.950 . S
H1433 C1444 0.950 . S
H1434 C1446 0.950 1_455 S
H1435 C1447 0.950 . S
C1436 H1428 0.950 . S
C1436 C1437 1.386 . S
C1436 C1438 1.391 . S
C1437 C1436 1.386 . S
C1437 C1441 1.393 . S
C1438 H1430 0.950 . S
C1438 C1436 1.391 . S
C1438 C1439 1.400 . S
C1439 C1438 1.400 . S
C1439 C1440 1.398 . S
C1439 C1445 1.491 1_455 S
C1440 H1431 0.950 1_455 S
C1440 C1439 1.398 . S
C1440 C1441 1.391 . S
C1441 H1429 0.950 . S
C1441 C1437 1.393 . S
C1441 C1440 1.391 . S
C1442 H1432 0.950 . S
C1442 C1443 1.386 . S
C1442 C1444 1.391 . S
C1443 C1442 1.386 . S
C1443 C1447 1.393 . S
C1444 H1433 0.950 . S
C1444 C1442 1.391 . S
C1444 C1445 1.400 . S
C1445 C1439 1.491 1_655 S
C1445 C1444 1.400 . S
C1445 C1446 1.398 . S
C1446 H1434 0.950 1_655 S
C1446 C1445 1.398 . S
C1446 C1447 1.391 . S
C1447 H1435 0.950 . S
C1447 C1443 1.393 . S
C1447 C1446 1.391 . S
H1448 C1456 0.950 . S
H1449 C1461 0.950 . S
H1450 C1458 0.950 1_556 S
H1451 C1460 0.950 . S
H1452 C1462 0.950 . S
H1453 C1464 0.950 . S
H1454 C1466 0.950 . S
H1455 C1467 0.950 . S
C1456 H1448 0.950 . S
C1456 C1457 1.386 . S
C1456 C1458 1.391 . S
C1457 C1456 1.386 . S
C1457 C1461 1.393 . S
C1458 H1450 0.950 1_554 S
C1458 C1456 1.391 . S
C1458 C1459 1.400 . S
C1459 C1458 1.400 . S
C1459 C1460 1.398 . S
C1459 C1465 1.491 . S
C1460 H1451 0.950 . S
C1460 C1459 1.398 . S
C1460 C1461 1.391 . S
C1461 H1449 0.950 . S
C1461 C1457 1.393 . S
C1461 C1460 1.391 . S
C1462 H1452 0.950 . S
C1462 C1463 1.386 . S
C1462 C1464 1.391 1_556 S
C1463 C1462 1.386 . S
C1463 C1467 1.393 . S
C1464 H1453 0.950 . S
C1464 C1462 1.391 1_554 S
C1464 C1465 1.400 . S
C1465 C1459 1.491 . S
C1465 C1464 1.400 . S
C1465 C1466 1.398 1_554 S
C1466 H1454 0.950 . S
C1466 C1465 1.398 1_556 S
C1466 C1467 1.391 . S
C1467 H1455 0.950 . S
C1467 C1463 1.393 . S
C1467 C1466 1.391 . S
H1468 C1476 0.950 . S
H1469 C1481 0.950 . S
H1470 C1478 0.950 . S
H1471 C1480 0.950 . S
H1472 C1482 0.950 . S
H1473 C1484 0.950 . S
H1474 C1486 0.950 . S
H1475 C1487 0.946 . S
C1476 H1468 0.950 . S
C1476 C1477 1.368 1_565 S
C1476 C1478 1.391 1_556 S
C1477 C1476 1.368 1_545 S
C1477 C1481 1.415 . S
C1478 H1470 0.950 . S
C1478 C1476 1.391 1_554 S
C1478 C1479 1.400 1_565 S
C1479 C1478 1.400 1_545 S
C1479 C1480 1.398 1_554 S
C1479 C1485 1.491 1_455 S
C1480 H1471 0.950 . S
C1480 C1479 1.398 1_556 S
C1480 C1481 1.391 . S
C1481 H1469 0.950 . S
C1481 C1477 1.415 . S
C1481 C1480 1.391 . S
C1482 H1472 0.950 . S
C1482 C1483 1.386 . S
C1482 C1484 1.391 . S
C1483 C1482 1.386 . S
C1483 C1487 1.397 1_545 S
C1484 H1473 0.950 . S
C1484 C1482 1.391 . S
C1484 C1485 1.400 . S
C1485 C1479 1.491 1_655 S
C1485 C1484 1.400 . S
C1485 C1486 1.398 1_545 S
C1486 H1474 0.950 . S
C1486 C1485 1.398 1_565 S
C1486 C1487 1.390 . S
C1487 H1475 0.946 . S
C1487 C1483 1.397 1_565 S
C1487 C1486 1.390 . S
H1488 C1496 0.950 . S
H1489 C1501 0.950 . S
H1490 C1498 0.950 . S
H1491 C1500 0.950 . S
H1492 C1502 0.950 . S
H1493 C1504 0.950 . S
H1494 C1506 0.950 . S
H1495 C1507 0.950 . S
C1496 H1488 0.950 . S
C1496 C1497 1.386 1_565 S
C1496 C1498 1.391 . S
C1497 C1496 1.386 1_545 S
C1497 C1501 1.393 . S
C1498 H1490 0.950 . S
C1498 C1496 1.391 . S
C1498 C1499 1.400 1_565 S
C1499 C1498 1.400 1_545 S
C1499 C1500 1.398 . S
C1499 C1505 1.491 . S
C1500 H1491 0.950 . S
C1500 C1499 1.398 . S
C1500 C1501 1.391 . S
C1501 H1489 0.950 . S
C1501 C1497 1.393 . S
C1501 C1500 1.391 . S
C1502 H1492 0.950 . S
C1502 C1503 1.384 . S
C1502 C1504 1.391 . S
C1503 C1502 1.384 . S
C1503 C1507 1.394 1_545 S
C1504 H1493 0.950 . S
C1504 C1502 1.391 . S
C1504 C1505 1.400 . S
C1505 C1499 1.491 . S
C1505 C1504 1.400 . S
C1505 C1506 1.398 1_545 S
C1506 H1494 0.950 . S
C1506 C1505 1.398 1_565 S
C1506 C1507 1.391 . S
C1507 H1495 0.950 . S
C1507 C1503 1.394 1_565 S
C1507 C1506 1.391 . S
H1508 C1516 0.950 . S
H1509 C1521 0.950 . S
H1510 C1518 0.950 . S
H1511 C1520 0.950 . S
H1512 C1522 0.950 . S
H1513 C1524 0.950 . S
H1514 C1526 0.950 . S
H1515 C1527 0.950 . S
C1516 H1508 0.950 . S
C1516 C1517 1.386 . S
C1516 C1518 1.391 . S
C1517 C1516 1.386 . S
C1517 C1521 1.393 . S
C1518 H1510 0.950 . S
C1518 C1516 1.391 . S
C1518 C1519 1.400 . S
C1519 C1518 1.400 . S
C1519 C1520 1.398 . S
C1519 C1525 1.491 1_655 S
C1520 H1511 0.950 . S
C1520 C1519 1.398 . S
C1520 C1521 1.391 . S
C1521 H1509 0.950 . S
C1521 C1517 1.393 . S
C1521 C1520 1.391 . S
C1522 H1512 0.950 . S
C1522 C1523 1.386 . S
C1522 C1524 1.391 . S
C1523 C1522 1.386 . S
C1523 C1527 1.393 . S
C1524 H1513 0.950 . S
C1524 C1522 1.391 . S
C1524 C1525 1.400 . S
C1525 C1519 1.491 1_455 S
C1525 C1524 1.400 . S
C1525 C1526 1.398 . S
C1526 H1514 0.950 . S
C1526 C1525 1.398 . S
C1526 C1527 1.391 . S
C1527 H1515 0.950 . S
C1527 C1523 1.393 . S
C1527 C1526 1.391 . S
H1528 C1536 0.950 . S
H1529 C1541 0.950 . S
H1530 C1538 0.950 . S
H1531 C1540 0.950 1_556 S
H1532 C1542 0.950 . S
H1533 C1544 0.950 . S
H1534 C1546 0.950 . S
H1535 C1547 0.950 . S
C1536 H1528 0.950 . S
C1536 C1537 1.386 . S
C1536 C1538 1.391 . S
C1537 C1536 1.386 . S
C1537 C1541 1.393 . S
C1538 H1530 0.950 . S
C1538 C1536 1.391 . S
C1538 C1539 1.400 . S
C1539 C1538 1.400 . S
C1539 C1540 1.398 . S
C1539 C1545 1.491 . S
C1540 H1531 0.950 1_554 S
C1540 C1539 1.398 . S
C1540 C1541 1.391 . S
C1541 H1529 0.950 . S
C1541 C1537 1.393 . S
C1541 C1540 1.391 . S
C1542 H1532 0.950 . S
C1542 C1543 1.386 . S
C1542 C1544 1.391 . S
C1543 C1542 1.386 . S
C1543 C1547 1.393 . S
C1544 H1533 0.950 . S
C1544 C1542 1.391 . S
C1544 C1545 1.400 1_556 S
C1545 C1539 1.491 . S
C1545 C1544 1.400 1_554 S
C1545 C1546 1.398 . S
C1546 H1534 0.950 . S
C1546 C1545 1.398 . S
C1546 C1547 1.391 1_554 S
C1547 H1535 0.950 . S
C1547 C1543 1.393 . S
C1547 C1546 1.391 1_556 S
H1548 C1556 0.950 . S
H1549 C1561 0.950 . S
H1550 C1558 0.950 . S
H1551 C1560 0.950 . S
H1552 C1562 0.950 . S
H1553 C1564 0.950 . S
H1554 C1566 0.950 . S
H1555 C1567 0.950 . S
C1556 H1548 0.950 . S
C1556 C1557 1.386 . S
C1556 C1558 1.391 . S
C1557 C1556 1.386 . S
C1557 C1561 1.393 . S
C1558 H1550 0.950 . S
C1558 C1556 1.391 . S
C1558 C1559 1.400 . S
C1559 C1558 1.400 . S
C1559 C1560 1.398 . S
C1559 C1565 1.491 . S
C1560 H1551 0.950 . S
C1560 C1559 1.398 . S
C1560 C1561 1.391 . S
C1561 H1549 0.950 . S
C1561 C1557 1.393 . S
C1561 C1560 1.391 . S
C1562 H1552 0.950 . S
C1562 C1563 1.386 . S
C1562 C1564 1.391 . S
C1563 C1562 1.386 . S
C1563 C1567 1.393 . S
C1564 H1553 0.950 . S
C1564 C1562 1.391 . S
C1564 C1565 1.400 . S
C1565 C1559 1.491 . S
C1565 C1564 1.400 . S
C1565 C1566 1.398 . S
C1566 H1554 0.950 . S
C1566 C1565 1.398 . S
C1566 C1567 1.391 . S
C1567 H1555 0.950 . S
C1567 C1563 1.393 . S
C1567 C1566 1.391 . S
H1568 C1576 0.950 . S
H1569 C1581 0.950 . S
H1570 C1578 0.950 . S
H1571 C1580 0.950 . S
H1572 C1582 0.950 . S
H1573 C1584 0.950 . S
H1574 C1586 0.950 . S
H1575 C1587 0.950 . S
C1576 H1568 0.950 . S
C1576 C1577 1.386 . S
C1576 C1578 1.391 . S
C1577 C1576 1.386 . S
C1577 C1581 1.393 . S
C1578 H1570 0.950 . S
C1578 C1576 1.391 . S
C1578 C1579 1.400 . S
C1579 C1578 1.400 . S
C1579 C1580 1.398 . S
C1579 C1585 1.491 . S
C1580 H1571 0.950 . S
C1580 C1579 1.398 . S
C1580 C1581 1.391 . S
C1581 H1569 0.950 . S
C1581 C1577 1.393 . S
C1581 C1580 1.391 . S
C1582 H1572 0.950 . S
C1582 C1583 1.386 . S
C1582 C1584 1.391 . S
C1583 C1582 1.386 . S
C1583 C1587 1.393 . S
C1584 H1573 0.950 . S
C1584 C1582 1.391 . S
C1584 C1585 1.400 . S
C1585 C1579 1.491 . S
C1585 C1584 1.400 . S
C1585 C1586 1.398 . S
C1586 H1574 0.950 . S
C1586 C1585 1.398 . S
C1586 C1587 1.391 . S
C1587 H1575 0.950 . S
C1587 C1583 1.393 . S
C1587 C1586 1.391 . S
H1588 C1596 0.950 . S
H1589 C1601 0.950 . S
H1590 C1598 0.950 . S
H1591 C1600 0.950 1_655 S
H1592 C1602 0.950 . S
H1593 C1604 0.950 . S
H1594 C1606 0.950 1_455 S
H1595 C1607 0.950 . S
C1596 H1588 0.950 . S
C1596 C1597 1.386 . S
C1596 C1598 1.391 . S
C1597 C1596 1.386 . S
C1597 C1601 1.393 . S
C1598 H1590 0.950 . S
C1598 C1596 1.391 . S
C1598 C1599 1.400 . S
C1599 C1598 1.400 . S
C1599 C1600 1.398 . S
C1599 C1605 1.491 1_455 S
C1600 H1591 0.950 1_455 S
C1600 C1599 1.398 . S
C1600 C1601 1.391 . S
C1601 H1589 0.950 . S
C1601 C1597 1.393 . S
C1601 C1600 1.391 . S
C1602 H1592 0.950 . S
C1602 C1603 1.386 . S
C1602 C1604 1.391 . S
C1603 C1602 1.386 . S
C1603 C1607 1.393 . S
C1604 H1593 0.950 . S
C1604 C1602 1.391 . S
C1604 C1605 1.400 . S
C1605 C1599 1.491 1_655 S
C1605 C1604 1.400 . S
C1605 C1606 1.398 . S
C1606 H1594 0.950 1_655 S
C1606 C1605 1.398 . S
C1606 C1607 1.391 . S
C1607 H1595 0.950 . S
C1607 C1603 1.393 . S
C1607 C1606 1.391 . S
H1608 C1616 0.950 . S
H1609 C1621 0.950 . S
H1610 C1618 0.950 . S
H1611 C1620 0.950 . S
H1612 C1622 0.950 . S
H1613 C1624 0.950 . S
H1614 C1626 0.950 . S
H1615 C1627 0.950 . S
C1616 H1608 0.950 . S
C1616 C1617 1.386 . S
C1616 C1618 1.391 . S
C1617 C1616 1.386 . S
C1617 C1621 1.393 . S
C1618 H1610 0.950 . S
C1618 C1616 1.391 . S
C1618 C1619 1.400 . S
C1619 C1618 1.400 . S
C1619 C1620 1.398 . S
C1619 C1625 1.491 . S
C1620 H1611 0.950 . S
C1620 C1619 1.398 . S
C1620 C1621 1.391 . S
C1621 H1609 0.950 . S
C1621 C1617 1.393 . S
C1621 C1620 1.391 . S
C1622 H1612 0.950 . S
C1622 C1623 1.386 . S
C1622 C1624 1.391 . S
C1623 C1622 1.386 . S
C1623 C1627 1.393 . S
C1624 H1613 0.950 . S
C1624 C1622 1.391 . S
C1624 C1625 1.400 . S
C1625 C1619 1.491 . S
C1625 C1624 1.400 . S
C1625 C1626 1.398 . S
C1626 H1614 0.950 . S
C1626 C1625 1.398 . S
C1626 C1627 1.391 . S
C1627 H1615 0.950 . S
C1627 C1623 1.393 . S
C1627 C1626 1.391 . S
H1628 C1636 0.950 . S
H1629 C1641 0.950 . S
H1630 C1638 0.950 . S
H1631 C1640 0.950 . S
H1632 C1642 0.950 . S
H1633 C1644 0.950 . S
H1634 C1646 0.950 . S
H1635 C1647 0.950 . S
C1636 H1628 0.950 . S
C1636 C1637 1.386 . S
C1636 C1638 1.391 . S
C1637 C1636 1.386 . S
C1637 C1641 1.393 . S
C1638 H1630 0.950 . S
C1638 C1636 1.391 . S
C1638 C1639 1.400 . S
C1639 C1638 1.400 . S
C1639 C1640 1.398 . S
C1639 C1645 1.491 . S
C1640 H1631 0.950 . S
C1640 C1639 1.398 . S
C1640 C1641 1.391 . S
C1641 H1629 0.950 . S
C1641 C1637 1.393 . S
C1641 C1640 1.391 . S
C1642 H1632 0.950 . S
C1642 C1643 1.386 . S
C1642 C1644 1.391 . S
C1643 C1642 1.386 . S
C1643 C1647 1.393 . S
C1644 H1633 0.950 . S
C1644 C1642 1.391 . S
C1644 C1645 1.400 . S
C1645 C1639 1.491 . S
C1645 C1644 1.400 . S
C1645 C1646 1.398 . S
C1646 H1634 0.950 . S
C1646 C1645 1.398 . S
C1646 C1647 1.391 . S
C1647 H1635 0.950 . S
C1647 C1643 1.393 . S
C1647 C1646 1.391 . S
H1648 C1656 0.950 . S
H1649 C1661 0.950 . S
H1650 C1658 0.950 . S
H1651 C1660 0.950 . S
H1652 C1662 0.950 . S
H1653 C1664 0.950 . S
H1654 C1666 0.950 . S
H1655 C1667 0.950 . S
C1656 H1648 0.950 . S
C1656 C1657 1.386 . S
C1656 C1658 1.391 . S
C1657 C1656 1.386 . S
C1657 C1661 1.393 . S
C1658 H1650 0.950 . S
C1658 C1656 1.391 . S
C1658 C1659 1.400 . S
C1659 C1658 1.400 . S
C1659 C1660 1.398 . S
C1659 C1665 1.491 . S
C1660 H1651 0.950 . S
C1660 C1659 1.398 . S
C1660 C1661 1.391 . S
C1661 H1649 0.950 . S
C1661 C1657 1.393 . S
C1661 C1660 1.391 . S
C1662 H1652 0.950 . S
C1662 C1663 1.386 . S
C1662 C1664 1.391 . S
C1663 C1662 1.386 . S
C1663 C1667 1.393 . S
C1664 H1653 0.950 . S
C1664 C1662 1.391 . S
C1664 C1665 1.400 . S
C1665 C1659 1.491 . S
C1665 C1664 1.400 . S
C1665 C1666 1.398 . S
C1666 H1654 0.950 . S
C1666 C1665 1.398 . S
C1666 C1667 1.391 . S
C1667 H1655 0.950 . S
C1667 C1663 1.393 . S
C1667 C1666 1.391 . S
H1668 C1676 0.950 . S
H1669 C1681 0.950 . S
H1670 C1678 0.950 . S
H1671 C1680 0.950 . S
H1672 C1682 0.959 . S
H1673 C1684 0.950 1_565 S
H1674 C1686 0.950 . S
H1675 C1687 0.950 . S
C1676 H1668 0.950 . S
C1676 C1677 1.404 . S
C1676 C1678 1.391 . S
C1677 C1676 1.404 . S
C1677 C1681 1.381 1_545 S
C1678 H1670 0.950 . S
C1678 C1676 1.391 . S
C1678 C1679 1.400 . S
C1679 C1678 1.400 . S
C1679 C1680 1.398 1_545 S
C1679 C1685 1.491 . S
C1680 H1671 0.950 . S
C1680 C1679 1.398 1_565 S
C1680 C1681 1.391 . S
C1681 H1669 0.950 . S
C1681 C1677 1.381 1_565 S
C1681 C1680 1.391 . S
C1682 H1672 0.959 . S
C1682 C1683 1.386 . S
C1682 C1684 1.391 . S
C1683 C1682 1.386 . S
C1683 C1687 1.393 . S
C1684 H1673 0.950 1_545 S
C1684 C1682 1.391 . S
C1684 C1685 1.400 . S
C1685 C1679 1.491 . S
C1685 C1684 1.400 . S
C1685 C1686 1.398 . S
C1686 H1674 0.950 . S
C1686 C1685 1.398 . S
C1686 C1687 1.391 . S
C1687 H1675 0.950 . S
C1687 C1683 1.393 . S
C1687 C1686 1.391 . S
H1688 C1696 0.950 . S
H1689 C1701 0.950 . S
H1690 C1698 0.950 . S
H1691 C1700 0.950 . S
H1692 C1702 0.950 . S
H1693 C1704 0.950 . S
H1694 C1706 0.950 . S
H1695 C1707 0.950 . S
C1696 H1688 0.950 . S
C1696 C1697 1.386 . S
C1696 C1698 1.391 . S
C1697 C1696 1.386 . S
C1697 C1701 1.393 . S
C1698 H1690 0.950 . S
C1698 C1696 1.391 . S
C1698 C1699 1.400 . S
C1699 C1698 1.400 . S
C1699 C1700 1.398 . S
C1699 C1705 1.491 . S
C1700 H1691 0.950 . S
C1700 C1699 1.398 . S
C1700 C1701 1.391 . S
C1701 H1689 0.950 . S
C1701 C1697 1.393 . S
C1701 C1700 1.391 . S
C1702 H1692 0.950 . S
C1702 C1703 1.386 . S
C1702 C1704 1.391 . S
C1703 C1702 1.386 . S
C1703 C1707 1.393 . S
C1704 H1693 0.950 . S
C1704 C1702 1.391 . S
C1704 C1705 1.400 . S
C1705 C1699 1.491 . S
C1705 C1704 1.400 . S
C1705 C1706 1.398 . S
C1706 H1694 0.950 . S
C1706 C1705 1.398 . S
C1706 C1707 1.391 . S
C1707 H1695 0.950 . S
C1707 C1703 1.393 . S
C1707 C1706 1.391 . S
H1708 C1716 0.950 . S
H1709 C1721 0.950 . S
H1710 C1718 0.950 . S
H1711 C1720 0.950 1_556 S
H1712 C1722 0.950 . S
H1713 C1724 0.950 . S
H1714 C1726 0.950 . S
H1715 C1727 0.950 . S
C1716 H1708 0.950 . S
C1716 C1717 1.386 . S
C1716 C1718 1.391 . S
C1717 C1716 1.386 . S
C1717 C1721 1.393 . S
C1718 H1710 0.950 . S
C1718 C1716 1.391 . S
C1718 C1719 1.400 . S
C1719 C1718 1.400 . S
C1719 C1720 1.398 . S
C1719 C1725 1.491 . S
C1720 H1711 0.950 1_554 S
C1720 C1719 1.398 . S
C1720 C1721 1.391 . S
C1721 H1709 0.950 . S
C1721 C1717 1.393 . S
C1721 C1720 1.391 . S
C1722 H1712 0.950 . S
C1722 C1723 1.386 . S
C1722 C1724 1.391 . S
C1723 C1722 1.386 . S
C1723 C1727 1.393 . S
C1724 H1713 0.950 . S
C1724 C1722 1.391 . S
C1724 C1725 1.400 1_556 S
C1725 C1719 1.491 . S
C1725 C1724 1.400 1_554 S
C1725 C1726 1.398 . S
C1726 H1714 0.950 . S
C1726 C1725 1.398 . S
C1726 C1727 1.391 1_554 S
C1727 H1715 0.950 . S
C1727 C1723 1.393 . S
C1727 C1726 1.391 1_556 S
H1728 C1736 0.950 . S
H1729 C1741 0.950 . S
H1730 C1738 0.950 . S
H1731 C1740 0.950 . S
H1732 C1742 0.950 . S
H1733 C1744 0.950 . S
H1734 C1746 0.950 1_565 S
H1735 C1747 0.950 1_565 S
C1736 H1728 0.950 . S
C1736 C1737 1.388 1_565 S
C1736 C1738 1.391 . S
C1737 C1736 1.388 1_545 S
C1737 C1741 1.389 . S
C1738 H1730 0.950 . S
C1738 C1736 1.391 . S
C1738 C1739 1.400 1_565 S
C1739 C1738 1.400 1_545 S
C1739 C1740 1.398 . S
C1739 C1745 1.491 . S
C1740 H1731 0.950 . S
C1740 C1739 1.398 . S
C1740 C1741 1.391 . S
C1741 H1729 0.950 . S
C1741 C1737 1.389 . S
C1741 C1740 1.391 . S
C1742 H1732 0.950 . S
C1742 C1743 1.386 . S
C1742 C1744 1.391 . S
C1743 C1742 1.386 . S
C1743 C1747 1.393 . S
C1744 H1733 0.950 . S
C1744 C1742 1.391 . S
C1744 C1745 1.400 . S
C1745 C1739 1.491 . S
C1745 C1744 1.400 . S
C1745 C1746 1.398 . S
C1746 H1734 0.950 1_545 S
C1746 C1745 1.398 . S
C1746 C1747 1.391 . S
C1747 H1735 0.950 1_545 S
C1747 C1743 1.393 . S
C1747 C1746 1.391 . S
H1748 C1756 0.950 . S
H1749 C1761 0.950 . S
H1750 C1758 0.950 1_655 S
H1751 C1760 0.950 . S
H1752 C1762 0.950 . S
H1753 C1764 0.950 1_455 S
H1754 C1766 0.950 . S
H1755 C1767 0.950 . S
C1756 H1748 0.950 . S
C1756 C1757 1.386 . S
C1756 C1758 1.391 . S
C1757 C1756 1.386 . S
C1757 C1761 1.393 . S
C1758 H1750 0.950 1_455 S
C1758 C1756 1.391 . S
C1758 C1759 1.400 . S
C1759 C1758 1.400 . S
C1759 C1760 1.398 . S
C1759 C1765 1.491 1_455 S
C1760 H1751 0.950 . S
C1760 C1759 1.398 . S
C1760 C1761 1.391 . S
C1761 H1749 0.950 . S
C1761 C1757 1.393 . S
C1761 C1760 1.391 . S
C1762 H1752 0.950 . S
C1762 C1763 1.386 . S
C1762 C1764 1.391 . S
C1763 C1762 1.386 . S
C1763 C1767 1.393 . S
C1764 H1753 0.950 1_655 S
C1764 C1762 1.391 . S
C1764 C1765 1.400 . S
C1765 C1759 1.491 1_655 S
C1765 C1764 1.400 . S
C1765 C1766 1.398 . S
C1766 H1754 0.950 . S
C1766 C1765 1.398 . S
C1766 C1767 1.391 . S
C1767 H1755 0.950 . S
C1767 C1763 1.393 . S
C1767 C1766 1.391 . S
H1768 C1776 0.950 . S
H1769 C1781 0.950 . S
H1770 C1778 0.950 . S
H1771 C1780 0.950 . S
H1772 C1782 0.950 . S
H1773 C1784 0.950 . S
H1774 C1786 0.950 . S
H1775 C1787 0.950 . S
C1776 H1768 0.950 . S
C1776 C1777 1.386 . S
C1776 C1778 1.391 . S
C1777 C1776 1.386 . S
C1777 C1781 1.393 . S
C1778 H1770 0.950 . S
C1778 C1776 1.391 . S
C1778 C1779 1.400 . S
C1779 C1778 1.400 . S
C1779 C1780 1.398 . S
C1779 C1785 1.491 . S
C1780 H1771 0.950 . S
C1780 C1779 1.398 . S
C1780 C1781 1.391 . S
C1781 H1769 0.950 . S
C1781 C1777 1.393 . S
C1781 C1780 1.391 . S
C1782 H1772 0.950 . S
C1782 C1783 1.386 . S
C1782 C1784 1.391 . S
C1783 C1782 1.386 . S
C1783 C1787 1.393 . S
C1784 H1773 0.950 . S
C1784 C1782 1.391 . S
C1784 C1785 1.400 . S
C1785 C1779 1.491 . S
C1785 C1784 1.400 . S
C1785 C1786 1.398 . S
C1786 H1774 0.950 . S
C1786 C1785 1.398 . S
C1786 C1787 1.391 . S
C1787 H1775 0.950 . S
C1787 C1783 1.393 . S
C1787 C1786 1.391 . S
H1788 C1796 0.950 1_565 S
H1789 C1801 0.950 . S
H1790 C1798 0.950 . S
H1791 C1800 0.950 . S
H1792 C1802 0.950 . S
H1793 C1804 0.950 . S
H1794 C1806 0.950 . S
H1795 C1807 0.950 . S
C1796 H1788 0.950 1_545 S
C1796 C1797 1.386 . S
C1796 C1798 1.391 1_545 S
C1797 C1796 1.386 . S
C1797 C1801 1.393 . S
C1798 H1790 0.950 . S
C1798 C1796 1.391 1_565 S
C1798 C1799 1.400 1_565 S
C1799 C1798 1.400 1_545 S
C1799 C1800 1.398 . S
C1799 C1805 1.491 1_455 S
C1800 H1791 0.950 . S
C1800 C1799 1.398 . S
C1800 C1801 1.391 . S
C1801 H1789 0.950 . S
C1801 C1797 1.393 . S
C1801 C1800 1.391 . S
C1802 H1792 0.950 . S
C1802 C1803 1.380 . S
C1802 C1804 1.391 . S
C1803 C1802 1.380 . S
C1803 C1807 1.397 1_545 S
C1804 H1793 0.950 . S
C1804 C1802 1.391 . S
C1804 C1805 1.400 . S
C1805 C1799 1.491 1_655 S
C1805 C1804 1.400 . S
C1805 C1806 1.398 1_545 S
C1806 H1794 0.950 . S
C1806 C1805 1.398 1_565 S
C1806 C1807 1.391 . S
C1807 H1795 0.950 . S
C1807 C1803 1.397 1_565 S
C1807 C1806 1.391 . S
H1808 C1816 0.950 . S
H1809 C1821 0.915 1_565 S
H1810 C1818 0.950 . S
H1811 C1820 0.950 . S
H1812 C1822 0.950 . S
H1813 C1824 0.950 . S
H1814 C1826 0.950 . S
H1815 C1827 0.950 . S
C1816 H1808 0.950 . S
C1816 C1817 1.386 . S
C1816 C1818 1.391 . S
C1817 C1816 1.386 . S
C1817 C1821 1.439 . S
C1818 H1810 0.950 . S
C1818 C1816 1.391 . S
C1818 C1819 1.400 . S
C1819 C1818 1.400 . S
C1819 C1820 1.398 1_545 S
C1819 C1825 1.491 . S
C1820 H1811 0.950 . S
C1820 C1819 1.398 1_565 S
C1820 C1821 1.382 1_565 S
C1821 H1809 0.915 1_545 S
C1821 C1817 1.439 . S
C1821 C1820 1.382 1_545 S
C1822 H1812 0.950 . S
C1822 C1823 1.352 1_565 S
C1822 C1824 1.391 . S
C1823 C1822 1.352 1_545 S
C1823 C1827 1.439 . S
C1824 H1813 0.950 . S
C1824 C1822 1.391 . S
C1824 C1825 1.400 1_565 S
C1825 C1819 1.491 . S
C1825 C1824 1.400 1_545 S
C1825 C1826 1.398 . S
C1826 H1814 0.950 . S
C1826 C1825 1.398 . S
C1826 C1827 1.391 . S
C1827 H1815 0.950 . S
C1827 C1823 1.439 . S
C1827 C1826 1.391 . S
H1828 C1836 0.950 . S
H1829 C1841 0.950 . S
H1830 C1838 0.970 . S
H1831 C1840 0.950 . S
H1832 C1842 0.950 . S
H1833 C1844 0.970 . S
H1834 C1846 0.950 . S
H1835 C1847 0.950 . S
C1836 H1828 0.950 . S
C1836 C1837 1.386 . S
C1836 C1838 1.391 . S
C1837 C1836 1.386 . S
C1837 C1841 1.393 . S
C1838 H1830 0.970 . S
C1838 C1836 1.391 . S
C1838 C1839 1.400 . S
C1839 C1838 1.400 . S
C1839 C1840 1.398 . S
C1839 C1845 1.491 1_455 S
C1840 H1831 0.950 . S
C1840 C1839 1.398 . S
C1840 C1841 1.391 . S
C1841 H1829 0.950 . S
C1841 C1837 1.393 . S
C1841 C1840 1.391 . S
C1842 H1832 0.950 . S
C1842 C1843 1.386 . S
C1842 C1844 1.391 . S
C1843 C1842 1.386 . S
C1843 C1847 1.393 . S
C1844 H1833 0.970 . S
C1844 C1842 1.391 . S
C1844 C1845 1.400 . S
C1845 C1839 1.491 1_655 S
C1845 C1844 1.400 . S
C1845 C1846 1.398 . S
C1846 H1834 0.950 . S
C1846 C1845 1.398 . S
C1846 C1847 1.391 . S
C1847 H1835 0.950 . S
C1847 C1843 1.393 . S
C1847 C1846 1.391 . S
H1848 C1856 0.950 . S
H1849 C1861 0.950 . S
H1850 C1858 0.950 . S
H1851 C1860 0.950 . S
H1852 C1862 0.950 . S
H1853 C1864 0.950 . S
H1854 C1866 0.950 . S
H1855 C1867 0.950 . S
C1856 H1848 0.950 . S
C1856 C1857 1.386 . S
C1856 C1858 1.391 . S
C1857 C1856 1.386 . S
C1857 C1861 1.393 . S
C1858 H1850 0.950 . S
C1858 C1856 1.391 . S
C1858 C1859 1.400 . S
C1859 C1858 1.400 . S
C1859 C1860 1.398 . S
C1859 C1865 1.491 . S
C1860 H1851 0.950 . S
C1860 C1859 1.398 . S
C1860 C1861 1.391 . S
C1861 H1849 0.950 . S
C1861 C1857 1.393 . S
C1861 C1860 1.391 . S
C1862 H1852 0.950 . S
C1862 C1863 1.386 . S
C1862 C1864 1.391 . S
C1863 C1862 1.386 . S
C1863 C1867 1.393 . S
C1864 H1853 0.950 . S
C1864 C1862 1.391 . S
C1864 C1865 1.400 . S
C1865 C1859 1.491 . S
C1865 C1864 1.400 . S
C1865 C1866 1.398 . S
C1866 H1854 0.950 . S
C1866 C1865 1.398 . S
C1866 C1867 1.391 . S
C1867 H1855 0.950 . S
C1867 C1863 1.393 . S
C1867 C1866 1.391 . S
H1868 C1876 0.950 . S
H1869 C1881 0.950 . S
H1870 C1878 0.950 . S
H1871 C1880 0.950 . S
H1872 C1882 0.950 . S
H1873 C1884 0.950 . S
H1874 C1886 0.950 . S
H1875 C1887 0.950 . S
C1876 H1868 0.950 . S
C1876 C1877 1.386 . S
C1876 C1878 1.391 . S
C1877 C1876 1.386 . S
C1877 C1881 1.393 . S
C1878 H1870 0.950 . S
C1878 C1876 1.391 . S
C1878 C1879 1.400 . S
C1879 C1878 1.400 . S
C1879 C1880 1.398 . S
C1879 C1885 1.491 . S
C1880 H1871 0.950 . S
C1880 C1879 1.398 . S
C1880 C1881 1.391 . S
C1881 H1869 0.950 . S
C1881 C1877 1.393 . S
C1881 C1880 1.391 . S
C1882 H1872 0.950 . S
C1882 C1883 1.386 . S
C1882 C1884 1.391 . S
C1883 C1882 1.386 . S
C1883 C1887 1.393 . S
C1884 H1873 0.950 . S
C1884 C1882 1.391 . S
C1884 C1885 1.400 . S
C1885 C1879 1.491 . S
C1885 C1884 1.400 . S
C1885 C1886 1.398 . S
C1886 H1874 0.950 . S
C1886 C1885 1.398 . S
C1886 C1887 1.391 . S
C1887 H1875 0.950 . S
C1887 C1883 1.393 . S
C1887 C1886 1.391 . S
H1888 C1896 0.950 . S
H1889 C1901 0.950 . S
H1890 C1898 0.950 . S
H1891 C1900 0.950 . S
H1892 C1902 0.950 . S
H1893 C1904 0.950 . S
H1894 C1906 0.950 1_556 S
H1895 C1907 0.950 . S
C1896 H1888 0.950 . S
C1896 C1897 1.386 . S
C1896 C1898 1.391 . S
C1897 C1896 1.386 . S
C1897 C1901 1.393 . S
C1898 H1890 0.950 . S
C1898 C1896 1.391 . S
C1898 C1899 1.400 1_556 S
C1899 C1898 1.400 1_554 S
C1899 C1900 1.398 . S
C1899 C1905 1.491 . S
C1900 H1891 0.950 . S
C1900 C1899 1.398 . S
C1900 C1901 1.391 1_554 S
C1901 H1889 0.950 . S
C1901 C1897 1.393 . S
C1901 C1900 1.391 1_556 S
C1902 H1892 0.950 . S
C1902 C1903 1.386 . S
C1902 C1904 1.391 . S
C1903 C1902 1.386 . S
C1903 C1907 1.393 . S
C1904 H1893 0.950 . S
C1904 C1902 1.391 . S
C1904 C1905 1.400 . S
C1905 C1899 1.491 . S
C1905 C1904 1.400 . S
C1905 C1906 1.398 . S
C1906 H1894 0.950 1_554 S
C1906 C1905 1.398 . S
C1906 C1907 1.391 . S
C1907 H1895 0.950 . S
C1907 C1903 1.393 . S
C1907 C1906 1.391 . S
H1908 C1916 0.950 . S
H1909 C1921 0.950 1_554 S
H1910 C1918 0.950 1_455 S
H1911 C1920 0.950 . S
H1912 C1922 0.950 . S
H1913 C1924 0.950 1_655 S
H1914 C1926 0.950 1_556 S
H1915 C1927 0.950 . S
C1916 H1908 0.950 . S
C1916 C1917 1.386 . S
C1916 C1918 1.391 . S
C1917 C1916 1.386 . S
C1917 C1921 1.393 . S
C1918 H1910 0.950 1_655 S
C1918 C1916 1.391 . S
C1918 C1919 1.400 1_556 S
C1919 C1918 1.400 1_554 S
C1919 C1920 1.398 . S
C1919 C1925 1.491 1_655 S
C1920 H1911 0.950 . S
C1920 C1919 1.398 . S
C1920 C1921 1.391 1_554 S
C1921 H1909 0.950 1_556 S
C1921 C1917 1.393 . S
C1921 C1920 1.391 1_556 S
C1922 H1912 0.950 . S
C1922 C1923 1.386 . S
C1922 C1924 1.391 . S
C1923 C1922 1.386 . S
C1923 C1927 1.393 . S
C1924 H1913 0.950 1_455 S
C1924 C1922 1.391 . S
C1924 C1925 1.400 . S
C1925 C1919 1.491 1_455 S
C1925 C1924 1.400 . S
C1925 C1926 1.398 . S
C1926 H1914 0.950 1_554 S
C1926 C1925 1.398 . S
C1926 C1927 1.391 . S
C1927 H1915 0.950 . S
C1927 C1923 1.393 . S
C1927 C1926 1.391 . S
H1928 C1936 0.950 . S
H1929 C1941 0.950 . S
H1930 C1938 0.950 . S
H1931 C1940 0.950 . S
H1932 C1942 0.950 . S
H1933 C1944 0.950 . S
H1934 C1946 0.950 . S
H1935 C1947 0.950 . S
C1936 H1928 0.950 . S
C1936 C1937 1.386 . S
C1936 C1938 1.391 . S
C1937 C1936 1.386 . S
C1937 C1941 1.393 . S
C1938 H1930 0.950 . S
C1938 C1936 1.391 . S
C1938 C1939 1.400 . S
C1939 C1938 1.400 . S
C1939 C1940 1.398 . S
C1939 C1945 1.491 . S
C1940 H1931 0.950 . S
C1940 C1939 1.398 . S
C1940 C1941 1.391 . S
C1941 H1929 0.950 . S
C1941 C1937 1.393 . S
C1941 C1940 1.391 . S
C1942 H1932 0.950 . S
C1942 C1943 1.386 . S
C1942 C1944 1.391 . S
C1943 C1942 1.386 . S
C1943 C1947 1.393 . S
C1944 H1933 0.950 . S
C1944 C1942 1.391 . S
C1944 C1945 1.400 . S
C1945 C1939 1.491 . S
C1945 C1944 1.400 . S
C1945 C1946 1.398 . S
C1946 H1934 0.950 . S
C1946 C1945 1.398 . S
C1946 C1947 1.391 . S
C1947 H1935 0.950 . S
C1947 C1943 1.393 . S
C1947 C1946 1.391 . S
H1948 C1956 0.950 . S
H1949 C1961 0.950 . S
H1950 C1958 0.950 . S
H1951 C1960 0.950 1_556 S
H1952 C1962 0.950 . S
H1953 C1964 0.950 . S
H1954 C1966 0.950 . S
H1955 C1967 0.950 1_554 S
C1956 H1948 0.950 . S
C1956 C1957 1.386 . S
C1956 C1958 1.391 . S
C1957 C1956 1.386 . S
C1957 C1961 1.393 . S
C1958 H1950 0.950 . S
C1958 C1956 1.391 . S
C1958 C1959 1.400 . S
C1959 C1958 1.400 . S
C1959 C1960 1.398 . S
C1959 C1965 1.491 . S
C1960 H1951 0.950 1_554 S
C1960 C1959 1.398 . S
C1960 C1961 1.391 . S
C1961 H1949 0.950 . S
C1961 C1957 1.393 . S
C1961 C1960 1.391 . S
C1962 H1952 0.950 . S
C1962 C1963 1.386 . S
C1962 C1964 1.391 . S
C1963 C1962 1.386 . S
C1963 C1967 1.393 . S
C1964 H1953 0.950 . S
C1964 C1962 1.391 . S
C1964 C1965 1.400 1_556 S
C1965 C1959 1.491 . S
C1965 C1964 1.400 1_554 S
C1965 C1966 1.398 . S
C1966 H1954 0.950 . S
C1966 C1965 1.398 . S
C1966 C1967 1.391 1_554 S
C1967 H1955 0.950 1_556 S
C1967 C1963 1.393 . S
C1967 C1966 1.391 1_556 S
H1968 C1976 0.950 . S
H1969 C1981 0.950 . S
H1970 C1978 0.950 . S
H1971 C1980 0.950 . S
H1972 C1982 0.950 . S
H1973 C1984 0.950 . S
H1974 C1986 0.950 . S
H1975 C1987 0.950 . S
C1976 H1968 0.950 . S
C1976 C1977 1.386 . S
C1976 C1978 1.391 . S
C1977 C1976 1.386 . S
C1977 C1981 1.393 . S
C1978 H1970 0.950 . S
C1978 C1976 1.391 . S
C1978 C1979 1.400 . S
C1979 C1978 1.400 . S
C1979 C1980 1.398 . S
C1979 C1985 1.491 . S
C1980 H1971 0.950 . S
C1980 C1979 1.398 . S
C1980 C1981 1.391 . S
C1981 H1969 0.950 . S
C1981 C1977 1.393 . S
C1981 C1980 1.391 . S
C1982 H1972 0.950 . S
C1982 C1983 1.386 . S
C1982 C1984 1.391 . S
C1983 C1982 1.386 . S
C1983 C1987 1.393 . S
C1984 H1973 0.950 . S
C1984 C1982 1.391 . S
C1984 C1985 1.400 . S
C1985 C1979 1.491 . S
C1985 C1984 1.400 . S
C1985 C1986 1.398 . S
C1986 H1974 0.950 . S
C1986 C1985 1.398 . S
C1986 C1987 1.391 . S
C1987 H1975 0.950 . S
C1987 C1983 1.393 . S
C1987 C1986 1.391 . S
H1988 C1996 0.950 . S
H1989 C2001 0.950 . S
H1990 C1998 0.950 . S
H1991 C2000 0.950 . S
H1992 C2002 0.950 . S
H1993 C2004 0.950 1_556 S
H1994 C2006 0.950 1_565 S
H1995 C2007 0.950 1_565 S
C1996 H1988 0.950 . S
C1996 C1997 1.389 1_565 S
C1996 C1998 1.391 1_556 S
C1997 C1996 1.389 1_545 S
C1997 C2001 1.389 . S
C1998 H1990 0.950 . S
C1998 C1996 1.391 1_554 S
C1998 C1999 1.400 1_565 S
C1999 C1998 1.400 1_545 S
C1999 C2000 1.398 1_554 S
C1999 C2005 1.491 . S
C2000 H1991 0.950 . S
C2000 C1999 1.398 1_556 S
C2000 C2001 1.391 . S
C2001 H1989 0.950 . S
C2001 C1997 1.389 . S
C2001 C2000 1.391 . S
C2002 H1992 0.950 . S
C2002 C2003 1.386 . S
C2002 C2004 1.391 . S
C2003 C2002 1.386 . S
C2003 C2007 1.393 . S
C2004 H1993 0.950 1_554 S
C2004 C2002 1.391 . S
C2004 C2005 1.400 . S
C2005 C1999 1.491 . S
C2005 C2004 1.400 . S
C2005 C2006 1.398 . S
C2006 H1994 0.950 1_545 S
C2006 C2005 1.398 . S
C2006 C2007 1.391 . S
C2007 H1995 0.950 1_545 S
C2007 C2003 1.393 . S
C2007 C2006 1.391 . S
H2008 C2016 0.950 . S
H2009 C2021 0.950 . S
H2010 C2018 0.950 . S
H2011 C2020 0.950 . S
H2012 C2022 0.950 . S
H2013 C2024 0.950 . S
H2014 C2026 0.950 . S
H2015 C2027 0.950 . S
C2016 H2008 0.950 . S
C2016 C2017 1.386 . S
C2016 C2018 1.391 . S
C2017 C2016 1.386 . S
C2017 C2021 1.393 . S
C2018 H2010 0.950 . S
C2018 C2016 1.391 . S
C2018 C2019 1.400 . S
C2019 C2018 1.400 . S
C2019 C2020 1.398 . S
C2019 C2025 1.491 . S
C2020 H2011 0.950 . S
C2020 C2019 1.398 . S
C2020 C2021 1.391 . S
C2021 H2009 0.950 . S
C2021 C2017 1.393 . S
C2021 C2020 1.391 . S
C2022 H2012 0.950 . S
C2022 C2023 1.386 . S
C2022 C2024 1.391 . S
C2023 C2022 1.386 . S
C2023 C2027 1.393 . S
C2024 H2013 0.950 . S
C2024 C2022 1.391 . S
C2024 C2025 1.400 . S
C2025 C2019 1.491 . S
C2025 C2024 1.400 . S
C2025 C2026 1.398 . S
C2026 H2014 0.950 . S
C2026 C2025 1.398 . S
C2026 C2027 1.391 . S
C2027 H2015 0.950 . S
C2027 C2023 1.393 . S
C2027 C2026 1.391 . S
H2028 C2036 0.950 . S
H2029 C2041 0.950 . S
H2030 C2038 0.950 . S
H2031 C2040 0.950 . S
H2032 C2042 0.950 . S
H2033 C2044 0.950 . S
H2034 C2046 0.950 . S
H2035 C2047 0.950 . S
C2036 H2028 0.950 . S
C2036 C2037 1.386 . S
C2036 C2038 1.391 . S
C2037 C2036 1.386 . S
C2037 C2041 1.393 . S
C2038 H2030 0.950 . S
C2038 C2036 1.391 . S
C2038 C2039 1.400 . S
C2039 C2038 1.400 . S
C2039 C2040 1.398 . S
C2039 C2045 1.491 . S
C2040 H2031 0.950 . S
C2040 C2039 1.398 . S
C2040 C2041 1.391 . S
C2041 H2029 0.950 . S
C2041 C2037 1.393 . S
C2041 C2040 1.391 . S
C2042 H2032 0.950 . S
C2042 C2043 1.386 . S
C2042 C2044 1.391 . S
C2043 C2042 1.386 . S
C2043 C2047 1.393 . S
C2044 H2033 0.950 . S
C2044 C2042 1.391 . S
C2044 C2045 1.400 . S
C2045 C2039 1.491 . S
C2045 C2044 1.400 . S
C2045 C2046 1.398 . S
C2046 H2034 0.950 . S
C2046 C2045 1.398 . S
C2046 C2047 1.391 . S
C2047 H2035 0.950 . S
C2047 C2043 1.393 . S
C2047 C2046 1.391 . S
H2048 C2056 0.950 . S
H2049 C2061 0.950 . S
H2050 C2058 0.950 . S
H2051 C2060 0.950 . S
H2052 C2062 0.950 . S
H2053 C2064 0.950 1_554 S
H2054 C2066 0.950 . S
H2055 C2067 0.950 . S
C2056 H2048 0.950 . S
C2056 C2057 1.386 . S
C2056 C2058 1.391 . S
C2057 C2056 1.386 . S
C2057 C2061 1.393 . S
C2058 H2050 0.950 . S
C2058 C2056 1.391 . S
C2058 C2059 1.400 . S
C2059 C2058 1.400 . S
C2059 C2060 1.398 . S
C2059 C2065 1.491 . S
C2060 H2051 0.950 . S
C2060 C2059 1.398 . S
C2060 C2061 1.391 . S
C2061 H2049 0.950 . S
C2061 C2057 1.393 . S
C2061 C2060 1.391 . S
C2062 H2052 0.950 . S
C2062 C2063 1.386 . S
C2062 C2064 1.391 . S
C2063 C2062 1.386 . S
C2063 C2067 1.393 . S
C2064 H2053 0.950 1_556 S
C2064 C2062 1.391 . S
C2064 C2065 1.400 1_556 S
C2065 C2059 1.491 . S
C2065 C2064 1.400 1_554 S
C2065 C2066 1.398 1_554 S
C2066 H2054 0.950 . S
C2066 C2065 1.398 1_556 S
C2066 C2067 1.391 . S
C2067 H2055 0.950 . S
C2067 C2063 1.393 . S
C2067 C2066 1.391 . S
H2068 C2076 0.950 . S
H2069 C2081 0.950 . S
H2070 C2078 0.950 1_554 S
H2071 C2080 0.950 1_554 S
H2072 C2082 0.950 . S
H2073 C2084 0.950 . S
H2074 C2086 0.950 . S
H2075 C2087 0.950 . S
C2076 H2068 0.950 . S
C2076 C2077 1.386 . S
C2076 C2078 1.391 . S
C2077 C2076 1.386 . S
C2077 C2081 1.393 . S
C2078 H2070 0.950 1_556 S
C2078 C2076 1.391 . S
C2078 C2079 1.400 1_556 S
C2079 C2078 1.400 1_554 S
C2079 C2080 1.398 1_554 S
C2079 C2085 1.491 . S
C2080 H2071 0.950 1_556 S
C2080 C2079 1.398 1_556 S
C2080 C2081 1.391 . S
C2081 H2069 0.950 . S
C2081 C2077 1.393 . S
C2081 C2080 1.391 . S
C2082 H2072 0.950 . S
C2082 C2083 1.386 . S
C2082 C2084 1.391 . S
C2083 C2082 1.386 . S
C2083 C2087 1.393 . S
C2084 H2073 0.950 . S
C2084 C2082 1.391 . S
C2084 C2085 1.400 . S
C2085 C2079 1.491 . S
C2085 C2084 1.400 . S
C2085 C2086 1.398 . S
C2086 H2074 0.950 . S
C2086 C2085 1.398 . S
C2086 C2087 1.391 . S
C2087 H2075 0.950 . S
C2087 C2083 1.393 . S
C2087 C2086 1.391 . S
H2088 C2096 0.950 . S
H2089 C2101 0.950 . S
H2090 C2098 0.950 . S
H2091 C2100 0.950 . S
H2092 C2102 0.950 . S
H2093 C2104 0.950 . S
H2094 C2106 0.950 . S
H2095 C2107 0.950 . S
C2096 H2088 0.950 . S
C2096 C2097 1.386 . S
C2096 C2098 1.391 . S
C2097 C2096 1.386 . S
C2097 C2101 1.393 . S
C2098 H2090 0.950 . S
C2098 C2096 1.391 . S
C2098 C2099 1.400 . S
C2099 C2098 1.400 . S
C2099 C2100 1.398 . S
C2099 C2105 1.491 . S
C2100 H2091 0.950 . S
C2100 C2099 1.398 . S
C2100 C2101 1.391 . S
C2101 H2089 0.950 . S
C2101 C2097 1.393 . S
C2101 C2100 1.391 . S
C2102 H2092 0.950 . S
C2102 C2103 1.386 . S
C2102 C2104 1.391 . S
C2103 C2102 1.386 . S
C2103 C2107 1.393 . S
C2104 H2093 0.950 . S
C2104 C2102 1.391 . S
C2104 C2105 1.400 . S
C2105 C2099 1.491 . S
C2105 C2104 1.400 . S
C2105 C2106 1.398 . S
C2106 H2094 0.950 . S
C2106 C2105 1.398 . S
C2106 C2107 1.391 . S
C2107 H2095 0.950 . S
C2107 C2103 1.393 . S
C2107 C2106 1.391 . S
H2108 C2116 0.950 . S
H2109 C2121 0.950 . S
H2110 C2118 0.950 . S
H2111 C2120 0.950 . S
H2112 C2122 0.950 . S
H2113 C2124 0.950 . S
H2114 C2126 0.950 . S
H2115 C2127 0.950 . S
C2116 H2108 0.950 . S
C2116 C2117 1.386 1_565 S
C2116 C2118 1.391 . S
C2117 C2116 1.386 1_545 S
C2117 C2121 1.393 . S
C2118 H2110 0.950 . S
C2118 C2116 1.391 . S
C2118 C2119 1.400 1_565 S
C2119 C2118 1.400 1_545 S
C2119 C2120 1.398 . S
C2119 C2125 1.491 . S
C2120 H2111 0.950 . S
C2120 C2119 1.398 . S
C2120 C2121 1.391 . S
C2121 H2109 0.950 . S
C2121 C2117 1.393 . S
C2121 C2120 1.391 . S
C2122 H2112 0.950 . S
C2122 C2123 1.386 . S
C2122 C2124 1.391 . S
C2123 C2122 1.386 . S
C2123 C2127 1.393 1_545 S
C2124 H2113 0.950 . S
C2124 C2122 1.391 . S
C2124 C2125 1.400 . S
C2125 C2119 1.491 . S
C2125 C2124 1.400 . S
C2125 C2126 1.398 1_545 S
C2126 H2114 0.950 . S
C2126 C2125 1.398 1_565 S
C2126 C2127 1.391 . S
C2127 H2115 0.950 . S
C2127 C2123 1.393 1_565 S
C2127 C2126 1.391 . S
H2128 C2136 0.950 . S
H2129 C2141 0.950 . S
H2130 C2138 0.950 . S
H2131 C2140 0.950 . S
H2132 C2142 0.950 . S
H2133 C2144 0.950 . S
H2134 C2146 0.950 . S
H2135 C2147 0.950 . S
C2136 H2128 0.950 . S
C2136 C2137 1.386 . S
C2136 C2138 1.391 . S
C2137 C2136 1.386 . S
C2137 C2141 1.393 . S
C2138 H2130 0.950 . S
C2138 C2136 1.391 . S
C2138 C2139 1.400 . S
C2139 C2138 1.400 . S
C2139 C2140 1.398 . S
C2139 C2145 1.491 1_554 S
C2140 H2131 0.950 . S
C2140 C2139 1.398 . S
C2140 C2141 1.391 . S
C2141 H2129 0.950 . S
C2141 C2137 1.393 . S
C2141 C2140 1.391 . S
C2142 H2132 0.950 . S
C2142 C2143 1.386 . S
C2142 C2144 1.391 . S
C2143 C2142 1.386 . S
C2143 C2147 1.393 . S
C2144 H2133 0.950 . S
C2144 C2142 1.391 . S
C2144 C2145 1.400 . S
C2145 C2139 1.491 1_556 S
C2145 C2144 1.400 . S
C2145 C2146 1.398 . S
C2146 H2134 0.950 . S
C2146 C2145 1.398 . S
C2146 C2147 1.391 . S
C2147 H2135 0.950 . S
C2147 C2143 1.393 . S
C2147 C2146 1.391 . S
H2148 C2156 0.950 . S
H2149 C2161 0.950 . S
H2150 C2158 0.950 . S
H2151 C2160 0.950 . S
H2152 C2162 0.950 . S
H2153 C2164 0.950 . S
H2154 C2166 0.950 . S
H2155 C2167 0.950 . S
C2156 H2148 0.950 . S
C2156 C2157 1.386 . S
C2156 C2158 1.391 . S
C2157 C2156 1.386 . S
C2157 C2161 1.393 . S
C2158 H2150 0.950 . S
C2158 C2156 1.391 . S
C2158 C2159 1.400 . S
C2159 C2158 1.400 . S
C2159 C2160 1.398 . S
C2159 C2165 1.491 1_554 S
C2160 H2151 0.950 . S
C2160 C2159 1.398 . S
C2160 C2161 1.391 . S
C2161 H2149 0.950 . S
C2161 C2157 1.393 . S
C2161 C2160 1.391 . S
C2162 H2152 0.950 . S
C2162 C2163 1.386 . S
C2162 C2164 1.391 . S
C2163 C2162 1.386 . S
C2163 C2167 1.393 . S
C2164 H2153 0.950 . S
C2164 C2162 1.391 . S
C2164 C2165 1.400 . S
C2165 C2159 1.491 1_556 S
C2165 C2164 1.400 . S
C2165 C2166 1.398 . S
C2166 H2154 0.950 . S
C2166 C2165 1.398 . S
C2166 C2167 1.391 . S
C2167 H2155 0.950 . S
C2167 C2163 1.393 . S
C2167 C2166 1.391 . S
H2168 C2176 0.950 . S
H2169 C2181 0.950 . S
H2170 C2178 0.950 . S
H2171 C2180 0.950 . S
H2172 C2182 0.950 . S
H2173 C2184 0.950 . S
H2174 C2186 0.950 . S
H2175 C2187 0.950 . S
C2176 H2168 0.950 . S
C2176 C2177 1.386 1_556 S
C2176 C2178 1.391 . S
C2177 C2176 1.386 1_554 S
C2177 C2181 1.393 1_554 S
C2178 H2170 0.950 . S
C2178 C2176 1.391 . S
C2178 C2179 1.400 . S
C2179 C2178 1.400 . S
C2179 C2180 1.398 . S
C2179 C2185 1.491 . S
C2180 H2171 0.950 . S
C2180 C2179 1.398 . S
C2180 C2181 1.391 . S
C2181 H2169 0.950 . S
C2181 C2177 1.393 1_556 S
C2181 C2180 1.391 . S
C2182 H2172 0.950 . S
C2182 C2183 1.386 . S
C2182 C2184 1.391 . S
C2183 C2182 1.386 . S
C2183 C2187 1.393 . S
C2184 H2173 0.950 . S
C2184 C2182 1.391 . S
C2184 C2185 1.400 . S
C2185 C2179 1.491 . S
C2185 C2184 1.400 . S
C2185 C2186 1.398 . S
C2186 H2174 0.950 . S
C2186 C2185 1.398 . S
C2186 C2187 1.391 . S
C2187 H2175 0.950 . S
C2187 C2183 1.393 . S
C2187 C2186 1.391 . S
H2188 C2196 0.950 . S
H2189 C2201 0.950 . S
H2190 C2198 0.950 . S
H2191 C2200 0.950 . S
H2192 C2202 0.950 . S
H2193 C2204 0.950 . S
H2194 C2206 0.950 . S
H2195 C2207 0.950 . S
C2196 H2188 0.950 . S
C2196 C2197 1.386 1_556 S
C2196 C2198 1.391 . S
C2197 C2196 1.386 1_554 S
C2197 C2201 1.393 1_554 S
C2198 H2190 0.950 . S
C2198 C2196 1.391 . S
C2198 C2199 1.400 . S
C2199 C2198 1.400 . S
C2199 C2200 1.398 . S
C2199 C2205 1.491 . S
C2200 H2191 0.950 . S
C2200 C2199 1.398 . S
C2200 C2201 1.391 . S
C2201 H2189 0.950 . S
C2201 C2197 1.393 1_556 S
C2201 C2200 1.391 . S
C2202 H2192 0.950 . S
C2202 C2203 1.386 . S
C2202 C2204 1.391 . S
C2203 C2202 1.386 . S
C2203 C2207 1.393 . S
C2204 H2193 0.950 . S
C2204 C2202 1.391 . S
C2204 C2205 1.400 . S
C2205 C2199 1.491 . S
C2205 C2204 1.400 . S
C2205 C2206 1.398 . S
C2206 H2194 0.950 . S
C2206 C2205 1.398 . S
C2206 C2207 1.391 . S
C2207 H2195 0.950 . S
C2207 C2203 1.393 . S
C2207 C2206 1.391 . S
H2208 C2216 0.950 . S
H2209 C2221 0.950 . S
H2210 C2218 0.950 . S
H2211 C2220 0.950 . S
H2212 C2222 0.950 . S
H2213 C2224 0.950 . S
H2214 C2226 0.950 . S
H2215 C2227 0.950 . S
C2216 H2208 0.950 . S
C2216 C2217 1.386 . S
C2216 C2218 1.391 . S
C2217 C2216 1.386 . S
C2217 C2221 1.393 . S
C2218 H2210 0.950 . S
C2218 C2216 1.391 . S
C2218 C2219 1.400 . S
C2219 C2218 1.400 . S
C2219 C2220 1.398 . S
C2219 C2225 1.491 . S
C2220 H2211 0.950 . S
C2220 C2219 1.398 . S
C2220 C2221 1.391 . S
C2221 H2209 0.950 . S
C2221 C2217 1.393 . S
C2221 C2220 1.391 . S
C2222 H2212 0.950 . S
C2222 C2223 1.386 . S
C2222 C2224 1.391 . S
C2223 C2222 1.386 . S
C2223 C2227 1.393 . S
C2224 H2213 0.950 . S
C2224 C2222 1.391 . S
C2224 C2225 1.400 . S
C2225 C2219 1.491 . S
C2225 C2224 1.400 . S
C2225 C2226 1.398 . S
C2226 H2214 0.950 . S
C2226 C2225 1.398 . S
C2226 C2227 1.391 . S
C2227 H2215 0.950 . S
C2227 C2223 1.393 . S
C2227 C2226 1.391 . S
H2228 C2236 0.950 . S
H2229 C2241 0.950 . S
H2230 C2238 0.950 . S
H2231 C2240 0.950 . S
H2232 C2242 0.950 . S
H2233 C2244 0.950 . S
H2234 C2246 0.950 . S
H2235 C2247 0.950 . S
C2236 H2228 0.950 . S
C2236 C2237 1.386 . S
C2236 C2238 1.391 . S
C2237 C2236 1.386 . S
C2237 C2241 1.393 . S
C2238 H2230 0.950 . S
C2238 C2236 1.391 . S
C2238 C2239 1.400 . S
C2239 C2238 1.400 . S
C2239 C2240 1.398 . S
C2239 C2245 1.491 . S
C2240 H2231 0.950 . S
C2240 C2239 1.398 . S
C2240 C2241 1.391 . S
C2241 H2229 0.950 . S
C2241 C2237 1.393 . S
C2241 C2240 1.391 . S
C2242 H2232 0.950 . S
C2242 C2243 1.386 . S
C2242 C2244 1.391 . S
C2243 C2242 1.386 . S
C2243 C2247 1.393 . S
C2244 H2233 0.950 . S
C2244 C2242 1.391 . S
C2244 C2245 1.400 . S
C2245 C2239 1.491 . S
C2245 C2244 1.400 . S
C2245 C2246 1.398 . S
C2246 H2234 0.950 . S
C2246 C2245 1.398 . S
C2246 C2247 1.391 . S
C2247 H2235 0.950 . S
C2247 C2243 1.393 . S
C2247 C2246 1.391 . S
H2248 C2256 0.950 . S
H2249 C2261 0.950 . S
H2250 C2258 0.950 . S
H2251 C2260 0.950 . S
H2252 C2262 0.950 . S
H2253 C2264 0.950 . S
H2254 C2266 0.950 . S
H2255 C2267 0.950 . S
C2256 H2248 0.950 . S
C2256 C2257 1.386 . S
C2256 C2258 1.391 . S
C2257 C2256 1.386 . S
C2257 C2261 1.393 . S
C2258 H2250 0.950 . S
C2258 C2256 1.391 . S
C2258 C2259 1.400 . S
C2259 C2258 1.400 . S
C2259 C2260 1.398 . S
C2259 C2265 1.491 . S
C2260 H2251 0.950 . S
C2260 C2259 1.398 . S
C2260 C2261 1.391 . S
C2261 H2249 0.950 . S
C2261 C2257 1.393 . S
C2261 C2260 1.391 . S
C2262 H2252 0.950 . S
C2262 C2263 1.386 . S
C2262 C2264 1.391 . S
C2263 C2262 1.386 . S
C2263 C2267 1.393 . S
C2264 H2253 0.950 . S
C2264 C2262 1.391 . S
C2264 C2265 1.400 . S
C2265 C2259 1.491 . S
C2265 C2264 1.400 . S
C2265 C2266 1.398 . S
C2266 H2254 0.950 . S
C2266 C2265 1.398 . S
C2266 C2267 1.391 . S
C2267 H2255 0.950 . S
C2267 C2263 1.393 . S
C2267 C2266 1.391 . S
H2268 C2276 0.950 . S
H2269 C2281 0.950 . S
H2270 C2278 0.950 . S
H2271 C2280 0.950 . S
H2272 C2282 0.950 . S
H2273 C2284 0.950 . S
H2274 C2286 0.950 . S
H2275 C2287 0.950 . S
C2276 H2268 0.950 . S
C2276 C2277 1.386 . S
C2276 C2278 1.391 . S
C2277 C2276 1.386 . S
C2277 C2281 1.393 . S
C2278 H2270 0.950 . S
C2278 C2276 1.391 . S
C2278 C2279 1.400 . S
C2279 C2278 1.400 . S
C2279 C2280 1.398 . S
C2279 C2285 1.491 . S
C2280 H2271 0.950 . S
C2280 C2279 1.398 . S
C2280 C2281 1.391 . S
C2281 H2269 0.950 . S
C2281 C2277 1.393 . S
C2281 C2280 1.391 . S
C2282 H2272 0.950 . S
C2282 C2283 1.386 . S
C2282 C2284 1.391 . S
C2283 C2282 1.386 . S
C2283 C2287 1.393 . S
C2284 H2273 0.950 . S
C2284 C2282 1.391 . S
C2284 C2285 1.400 . S
C2285 C2279 1.491 . S
C2285 C2284 1.400 . S
C2285 C2286 1.398 . S
C2286 H2274 0.950 . S
C2286 C2285 1.398 . S
C2286 C2287 1.391 . S
C2287 H2275 0.950 . S
C2287 C2283 1.393 . S
C2287 C2286 1.391 . S
H2288 C2296 0.950 . S
H2289 C2301 0.950 . S
H2290 C2298 0.950 . S
H2291 C2300 0.950 . S
H2292 C2302 0.950 . S
H2293 C2304 0.950 . S
H2294 C2306 0.950 . S
H2295 C2307 0.950 . S
C2296 H2288 0.950 . S
C2296 C2297 1.386 . S
C2296 C2298 1.391 . S
C2297 C2296 1.386 . S
C2297 C2301 1.393 . S
C2298 H2290 0.950 . S
C2298 C2296 1.391 . S
C2298 C2299 1.400 . S
C2299 C2298 1.400 . S
C2299 C2300 1.398 . S
C2299 C2305 1.491 . S
C2300 H2291 0.950 . S
C2300 C2299 1.398 . S
C2300 C2301 1.391 . S
C2301 H2289 0.950 . S
C2301 C2297 1.393 . S
C2301 C2300 1.391 . S
C2302 H2292 0.950 . S
C2302 C2303 1.386 . S
C2302 C2304 1.391 . S
C2303 C2302 1.386 . S
C2303 C2307 1.393 . S
C2304 H2293 0.950 . S
C2304 C2302 1.391 . S
C2304 C2305 1.400 . S
C2305 C2299 1.491 . S
C2305 C2304 1.400 . S
C2305 C2306 1.398 . S
C2306 H2294 0.950 . S
C2306 C2305 1.398 . S
C2306 C2307 1.391 . S
C2307 H2295 0.950 . S
C2307 C2303 1.393 . S
C2307 C2306 1.391 . S
H2308 C2316 0.950 . S
H2309 C2321 0.950 . S
H2310 C2318 0.950 . S
H2311 C2320 0.950 . S
H2312 C2322 0.950 . S
H2313 C2324 0.950 . S
H2314 C2326 0.950 . S
H2315 C2327 0.950 . S
C2316 H2308 0.950 . S
C2316 C2317 1.386 . S
C2316 C2318 1.391 . S
C2317 C2316 1.386 . S
C2317 C2321 1.393 . S
C2318 H2310 0.950 . S
C2318 C2316 1.391 . S
C2318 C2319 1.400 . S
C2319 C2318 1.400 . S
C2319 C2320 1.398 . S
C2319 C2325 1.491 . S
C2320 H2311 0.950 . S
C2320 C2319 1.398 . S
C2320 C2321 1.391 . S
C2321 H2309 0.950 . S
C2321 C2317 1.393 . S
C2321 C2320 1.391 . S
C2322 H2312 0.950 . S
C2322 C2323 1.386 . S
C2322 C2324 1.391 . S
C2323 C2322 1.386 . S
C2323 C2327 1.393 . S
C2324 H2313 0.950 . S
C2324 C2322 1.391 . S
C2324 C2325 1.400 . S
C2325 C2319 1.491 . S
C2325 C2324 1.400 . S
C2325 C2326 1.398 . S
C2326 H2314 0.950 . S
C2326 C2325 1.398 . S
C2326 C2327 1.391 . S
C2327 H2315 0.950 . S
C2327 C2323 1.393 . S
C2327 C2326 1.391 . S
H2328 C2336 0.950 . S
H2329 C2341 0.950 . S
H2330 C2338 0.950 . S
H2331 C2340 0.950 . S
H2332 C2342 0.950 . S
H2333 C2344 0.950 . S
H2334 C2346 0.950 . S
H2335 C2347 0.950 . S
C2336 H2328 0.950 . S
C2336 C2337 1.386 . S
C2336 C2338 1.391 . S
C2337 C2336 1.386 . S
C2337 C2341 1.393 . S
C2338 H2330 0.950 . S
C2338 C2336 1.391 . S
C2338 C2339 1.400 . S
C2339 C2338 1.400 . S
C2339 C2340 1.398 . S
C2339 C2345 1.491 . S
C2340 H2331 0.950 . S
C2340 C2339 1.398 . S
C2340 C2341 1.391 . S
C2341 H2329 0.950 . S
C2341 C2337 1.393 . S
C2341 C2340 1.391 . S
C2342 H2332 0.950 . S
C2342 C2343 1.386 . S
C2342 C2344 1.391 . S
C2343 C2342 1.386 . S
C2343 C2347 1.393 . S
C2344 H2333 0.950 . S
C2344 C2342 1.391 . S
C2344 C2345 1.400 . S
C2345 C2339 1.491 . S
C2345 C2344 1.400 . S
C2345 C2346 1.398 . S
C2346 H2334 0.950 . S
C2346 C2345 1.398 . S
C2346 C2347 1.391 . S
C2347 H2335 0.950 . S
C2347 C2343 1.393 . S
C2347 C2346 1.391 . S
H2348 C2356 0.950 . S
H2349 C2361 0.950 . S
H2350 C2358 0.950 . S
H2351 C2360 0.950 . S
H2352 C2362 0.950 . S
H2353 C2364 0.950 . S
H2354 C2366 0.950 . S
H2355 C2367 0.950 . S
C2356 H2348 0.950 . S
C2356 C2357 1.386 . S
C2356 C2358 1.391 . S
C2357 C2356 1.386 . S
C2357 C2361 1.393 . S
C2358 H2350 0.950 . S
C2358 C2356 1.391 . S
C2358 C2359 1.400 . S
C2359 C2358 1.400 . S
C2359 C2360 1.398 . S
C2359 C2365 1.491 . S
C2360 H2351 0.950 . S
C2360 C2359 1.398 . S
C2360 C2361 1.391 . S
C2361 H2349 0.950 . S
C2361 C2357 1.393 . S
C2361 C2360 1.391 . S
C2362 H2352 0.950 . S
C2362 C2363 1.386 . S
C2362 C2364 1.391 . S
C2363 C2362 1.386 . S
C2363 C2367 1.393 . S
C2364 H2353 0.950 . S
C2364 C2362 1.391 . S
C2364 C2365 1.400 . S
C2365 C2359 1.491 . S
C2365 C2364 1.400 . S
C2365 C2366 1.398 . S
C2366 H2354 0.950 . S
C2366 C2365 1.398 . S
C2366 C2367 1.391 . S
C2367 H2355 0.950 . S
C2367 C2363 1.393 . S
C2367 C2366 1.391 . S
H2368 C2376 0.950 . S
H2369 C2381 0.950 . S
H2370 C2378 0.952 . S
H2371 C2380 0.950 . S
H2372 C2382 0.950 . S
H2373 C2384 0.950 . S
H2374 C2386 0.936 1_565 S
H2375 C2387 0.944 1_565 S
C2376 H2368 0.950 . S
C2376 C2377 1.386 1_565 S
C2376 C2378 1.392 . S
C2377 C2376 1.386 1_545 S
C2377 C2381 1.393 . S
C2378 H2370 0.952 . S
C2378 C2376 1.392 . S
C2378 C2379 1.398 1_565 S
C2379 C2378 1.398 1_545 S
C2379 C2380 1.398 . S
C2379 C2385 1.491 . S
C2380 H2371 0.950 . S
C2380 C2379 1.398 . S
C2380 C2381 1.391 . S
C2381 H2369 0.950 . S
C2381 C2377 1.393 . S
C2381 C2380 1.391 . S
C2382 H2372 0.950 . S
C2382 C2383 1.386 . S
C2382 C2384 1.391 . S
C2383 C2382 1.386 . S
C2383 C2387 1.393 . S
C2384 H2373 0.950 . S
C2384 C2382 1.391 . S
C2384 C2385 1.400 . S
C2385 C2379 1.491 . S
C2385 C2384 1.400 . S
C2385 C2386 1.398 . S
C2386 H2374 0.936 1_545 S
C2386 C2385 1.398 . S
C2386 C2387 1.391 . S
C2387 H2375 0.944 1_545 S
C2387 C2383 1.393 . S
C2387 C2386 1.391 . S
H2388 C2396 0.950 . S
H2389 C2401 0.950 . S
H2390 C2398 0.950 . S
H2391 C2400 0.950 . S
H2392 C2402 0.950 . S
H2393 C2404 0.950 . S
H2394 C2406 0.950 . S
H2395 C2407 0.950 . S
C2396 H2388 0.950 . S
C2396 C2397 1.386 . S
C2396 C2398 1.391 . S
C2397 C2396 1.386 . S
C2397 C2401 1.393 . S
C2398 H2390 0.950 . S
C2398 C2396 1.391 . S
C2398 C2399 1.400 . S
C2399 C2398 1.400 . S
C2399 C2400 1.398 . S
C2399 C2405 1.491 . S
C2400 H2391 0.950 . S
C2400 C2399 1.398 . S
C2400 C2401 1.391 . S
C2401 H2389 0.950 . S
C2401 C2397 1.393 . S
C2401 C2400 1.391 . S
C2402 H2392 0.950 . S
C2402 C2403 1.386 . S
C2402 C2404 1.391 . S
C2403 C2402 1.386 . S
C2403 C2407 1.393 . S
C2404 H2393 0.950 . S
C2404 C2402 1.391 . S
C2404 C2405 1.400 . S
C2405 C2399 1.491 . S
C2405 C2404 1.400 . S
C2405 C2406 1.398 . S
C2406 H2394 0.950 . S
C2406 C2405 1.398 . S
C2406 C2407 1.391 . S
C2407 H2395 0.950 . S
C2407 C2403 1.393 . S
C2407 C2406 1.391 . S
H2408 C2416 0.950 . S
H2409 C2421 0.950 . S
H2410 C2418 0.950 . S
H2411 C2420 0.950 . S
H2412 C2422 0.950 . S
H2413 C2424 0.950 . S
H2414 C2426 0.950 . S
H2415 C2427 0.950 . S
C2416 H2408 0.950 . S
C2416 C2417 1.386 . S
C2416 C2418 1.391 . S
C2417 C2416 1.386 . S
C2417 C2421 1.393 . S
C2418 H2410 0.950 . S
C2418 C2416 1.391 . S
C2418 C2419 1.400 . S
C2419 C2418 1.400 . S
C2419 C2420 1.398 . S
C2419 C2425 1.491 . S
C2420 H2411 0.950 . S
C2420 C2419 1.398 . S
C2420 C2421 1.391 . S
C2421 H2409 0.950 . S
C2421 C2417 1.393 . S
C2421 C2420 1.391 . S
C2422 H2412 0.950 . S
C2422 C2423 1.386 . S
C2422 C2424 1.391 . S
C2423 C2422 1.386 . S
C2423 C2427 1.393 . S
C2424 H2413 0.950 . S
C2424 C2422 1.391 . S
C2424 C2425 1.400 . S
C2425 C2419 1.491 . S
C2425 C2424 1.400 . S
C2425 C2426 1.398 . S
C2426 H2414 0.950 . S
C2426 C2425 1.398 . S
C2426 C2427 1.391 . S
C2427 H2415 0.950 . S
C2427 C2423 1.393 . S
C2427 C2426 1.391 . S
H2428 C2436 0.950 . S
H2429 C2441 0.950 . S
H2430 C2438 0.950 . S
H2431 C2440 0.950 . S
H2432 C2442 0.950 . S
H2433 C2444 0.950 . S
H2434 C2446 0.950 . S
H2435 C2447 0.950 . S
C2436 H2428 0.950 . S
C2436 C2437 1.386 . S
C2436 C2438 1.391 . S
C2437 C2436 1.386 . S
C2437 C2441 1.393 1_545 S
C2438 H2430 0.950 . S
C2438 C2436 1.391 . S
C2438 C2439 1.400 . S
C2439 C2438 1.400 . S
C2439 C2440 1.398 1_545 S
C2439 C2445 1.491 . S
C2440 H2431 0.950 . S
C2440 C2439 1.398 1_565 S
C2440 C2441 1.391 . S
C2441 H2429 0.950 . S
C2441 C2437 1.393 1_565 S
C2441 C2440 1.391 . S
C2442 H2432 0.950 . S
C2442 C2443 1.386 1_565 S
C2442 C2444 1.391 . S
C2443 C2442 1.386 1_545 S
C2443 C2447 1.393 . S
C2444 H2433 0.950 . S
C2444 C2442 1.391 . S
C2444 C2445 1.400 1_565 S
C2445 C2439 1.491 . S
C2445 C2444 1.400 1_545 S
C2445 C2446 1.398 . S
C2446 H2434 0.950 . S
C2446 C2445 1.398 . S
C2446 C2447 1.391 . S
C2447 H2435 0.950 . S
C2447 C2443 1.393 . S
C2447 C2446 1.391 . S
H2448 C2456 0.950 . S
H2449 C2461 0.950 . S
H2450 C2458 0.950 . S
H2451 C2460 0.950 . S
H2452 C2462 0.950 . S
H2453 C2464 0.950 . S
H2454 C2466 0.950 . S
H2455 C2467 0.950 . S
C2456 H2448 0.950 . S
C2456 C2457 1.386 . S
C2456 C2458 1.391 . S
C2457 C2456 1.386 . S
C2457 C2461 1.393 . S
C2458 H2450 0.950 . S
C2458 C2456 1.391 . S
C2458 C2459 1.400 . S
C2459 C2458 1.400 . S
C2459 C2460 1.398 . S
C2459 C2465 1.491 . S
C2460 H2451 0.950 . S
C2460 C2459 1.398 . S
C2460 C2461 1.391 . S
C2461 H2449 0.950 . S
C2461 C2457 1.393 . S
C2461 C2460 1.391 . S
C2462 H2452 0.950 . S
C2462 C2463 1.386 . S
C2462 C2464 1.391 . S
C2463 C2462 1.386 . S
C2463 C2467 1.393 . S
C2464 H2453 0.950 . S
C2464 C2462 1.391 . S
C2464 C2465 1.400 . S
C2465 C2459 1.491 . S
C2465 C2464 1.400 . S
C2465 C2466 1.398 . S
C2466 H2454 0.950 . S
C2466 C2465 1.398 . S
C2466 C2467 1.391 . S
C2467 H2455 0.950 . S
C2467 C2463 1.393 . S
C2467 C2466 1.391 . S
H2468 C2476 0.950 . S
H2469 C2481 0.950 . S
H2470 C2478 0.950 . S
H2471 C2480 0.950 . S
H2472 C2482 0.950 . S
H2473 C2484 0.950 . S
H2474 C2486 0.950 . S
H2475 C2487 0.950 . S
C2476 H2468 0.950 . S
C2476 C2477 1.386 . S
C2476 C2478 1.391 . S
C2477 C2476 1.386 . S
C2477 C2481 1.393 . S
C2478 H2470 0.950 . S
C2478 C2476 1.391 . S
C2478 C2479 1.400 . S
C2479 C2478 1.400 . S
C2479 C2480 1.398 . S
C2479 C2485 1.491 . S
C2480 H2471 0.950 . S
C2480 C2479 1.398 . S
C2480 C2481 1.391 . S
C2481 H2469 0.950 . S
C2481 C2477 1.393 . S
C2481 C2480 1.391 . S
C2482 H2472 0.950 . S
C2482 C2483 1.386 . S
C2482 C2484 1.391 . S
C2483 C2482 1.386 . S
C2483 C2487 1.393 . S
C2484 H2473 0.950 . S
C2484 C2482 1.391 . S
C2484 C2485 1.400 . S
C2485 C2479 1.491 . S
C2485 C2484 1.400 . S
C2485 C2486 1.398 . S
C2486 H2474 0.950 . S
C2486 C2485 1.398 . S
C2486 C2487 1.391 . S
C2487 H2475 0.950 . S
C2487 C2483 1.393 . S
C2487 C2486 1.391 . S
H2488 C2496 0.950 . S
H2489 C2501 0.950 . S
H2490 C2498 0.950 . S
H2491 C2500 0.950 . S
H2492 C2502 0.950 . S
H2493 C2504 0.950 . S
H2494 C2506 0.950 . S
H2495 C2507 0.950 . S
C2496 H2488 0.950 . S
C2496 C2497 1.386 . S
C2496 C2498 1.391 . S
C2497 C2496 1.386 . S
C2497 C2501 1.393 . S
C2498 H2490 0.950 . S
C2498 C2496 1.391 . S
C2498 C2499 1.400 . S
C2499 C2498 1.400 . S
C2499 C2500 1.398 . S
C2499 C2505 1.491 . S
C2500 H2491 0.950 . S
C2500 C2499 1.398 . S
C2500 C2501 1.391 . S
C2501 H2489 0.950 . S
C2501 C2497 1.393 . S
C2501 C2500 1.391 . S
C2502 H2492 0.950 . S
C2502 C2503 1.386 . S
C2502 C2504 1.391 . S
C2503 C2502 1.386 . S
C2503 C2507 1.393 . S
C2504 H2493 0.950 . S
C2504 C2502 1.391 . S
C2504 C2505 1.400 . S
C2505 C2499 1.491 . S
C2505 C2504 1.400 . S
C2505 C2506 1.398 . S
C2506 H2494 0.950 . S
C2506 C2505 1.398 . S
C2506 C2507 1.391 . S
C2507 H2495 0.950 . S
C2507 C2503 1.393 . S
C2507 C2506 1.391 . S
H2508 C2516 0.950 . S
H2509 C2521 0.987 . S
H2510 C2518 0.950 . S
H2511 C2520 0.950 . S
H2512 C2522 0.950 . S
H2513 C2524 0.950 . S
H2514 C2526 0.950 . S
H2515 C2527 0.950 . S
C2516 H2508 0.950 . S
C2516 C2517 1.386 . S
C2516 C2518 1.391 . S
C2517 C2516 1.386 . S
C2517 C2521 1.355 1_545 S
C2518 H2510 0.950 . S
C2518 C2516 1.391 . S
C2518 C2519 1.400 . S
C2519 C2518 1.400 . S
C2519 C2520 1.398 1_545 S
C2519 C2525 1.491 . S
C2520 H2511 0.950 . S
C2520 C2519 1.398 1_565 S
C2520 C2521 1.395 . S
C2521 H2509 0.987 . S
C2521 C2517 1.355 1_565 S
C2521 C2520 1.395 . S
C2522 H2512 0.950 . S
C2522 C2523 1.386 1_565 S
C2522 C2524 1.391 . S
C2523 C2522 1.386 1_545 S
C2523 C2527 1.393 . S
C2524 H2513 0.950 . S
C2524 C2522 1.391 . S
C2524 C2525 1.400 1_565 S
C2525 C2519 1.491 . S
C2525 C2524 1.400 1_545 S
C2525 C2526 1.398 . S
C2526 H2514 0.950 . S
C2526 C2525 1.398 . S
C2526 C2527 1.391 . S
C2527 H2515 0.950 . S
C2527 C2523 1.393 . S
C2527 C2526 1.391 . S
H2528 C2536 0.950 . S
H2529 C2541 0.950 . S
H2530 C2538 0.950 1_554 S
H2531 C2540 0.947 1_554 S
H2532 C2542 0.950 . S
H2533 C2544 0.950 . S
H2534 C2546 0.950 . S
H2535 C2547 0.950 . S
C2536 H2528 0.950 . S
C2536 C2537 1.386 . S
C2536 C2538 1.391 . S
C2537 C2536 1.386 . S
C2537 C2541 1.393 . S
C2538 H2530 0.950 1_556 S
C2538 C2536 1.391 . S
C2538 C2539 1.400 1_556 S
C2539 C2538 1.400 1_554 S
C2539 C2540 1.398 1_554 S
C2539 C2545 1.491 . S
C2540 H2531 0.947 1_556 S
C2540 C2539 1.398 1_556 S
C2540 C2541 1.391 . S
C2541 H2529 0.950 . S
C2541 C2537 1.393 . S
C2541 C2540 1.391 . S
C2542 H2532 0.950 . S
C2542 C2543 1.386 . S
C2542 C2544 1.391 . S
C2543 C2542 1.386 . S
C2543 C2547 1.393 . S
C2544 H2533 0.950 . S
C2544 C2542 1.391 . S
C2544 C2545 1.400 . S
C2545 C2539 1.491 . S
C2545 C2544 1.400 . S
C2545 C2546 1.398 . S
C2546 H2534 0.950 . S
C2546 C2545 1.398 . S
C2546 C2547 1.391 . S
C2547 H2535 0.950 . S
C2547 C2543 1.393 . S
C2547 C2546 1.391 . S
H2548 C2556 0.950 . S
H2549 C2561 0.950 . S
H2550 C2558 0.950 1_554 S
H2551 C2560 0.950 1_554 S
H2552 C2562 0.950 . S
H2553 C2564 0.950 . S
H2554 C2566 0.950 . S
H2555 C2567 0.950 . S
C2556 H2548 0.950 . S
C2556 C2557 1.386 . S
C2556 C2558 1.391 . S
C2557 C2556 1.386 . S
C2557 C2561 1.393 . S
C2558 H2550 0.950 1_556 S
C2558 C2556 1.391 . S
C2558 C2559 1.400 1_556 S
C2559 C2558 1.400 1_554 S
C2559 C2560 1.398 1_554 S
C2559 C2565 1.491 . S
C2560 H2551 0.950 1_556 S
C2560 C2559 1.398 1_556 S
C2560 C2561 1.391 . S
C2561 H2549 0.950 . S
C2561 C2557 1.393 . S
C2561 C2560 1.391 . S
C2562 H2552 0.950 . S
C2562 C2563 1.386 . S
C2562 C2564 1.391 . S
C2563 C2562 1.386 . S
C2563 C2567 1.393 . S
C2564 H2553 0.950 . S
C2564 C2562 1.391 . S
C2564 C2565 1.400 . S
C2565 C2559 1.491 . S
C2565 C2564 1.400 . S
C2565 C2566 1.398 . S
C2566 H2554 0.950 . S
C2566 C2565 1.398 . S
C2566 C2567 1.391 . S
C2567 H2555 0.950 . S
C2567 C2563 1.393 . S
C2567 C2566 1.391 . S
H2568 C2576 0.950 . S
H2569 C2581 0.950 . S
H2570 C2578 0.950 . S
H2571 C2580 0.950 . S
H2572 C2582 0.950 . S
H2573 C2584 0.950 . S
H2574 C2586 0.950 . S
H2575 C2587 0.950 . S
C2576 H2568 0.950 . S
C2576 C2577 1.386 . S
C2576 C2578 1.391 . S
C2577 C2576 1.386 . S
C2577 C2581 1.393 . S
C2578 H2570 0.950 . S
C2578 C2576 1.391 . S
C2578 C2579 1.400 . S
C2579 C2578 1.400 . S
C2579 C2580 1.398 . S
C2579 C2585 1.491 . S
C2580 H2571 0.950 . S
C2580 C2579 1.398 . S
C2580 C2581 1.391 . S
C2581 H2569 0.950 . S
C2581 C2577 1.393 . S
C2581 C2580 1.391 . S
C2582 H2572 0.950 . S
C2582 C2583 1.386 . S
C2582 C2584 1.391 . S
C2583 C2582 1.386 . S
C2583 C2587 1.393 . S
C2584 H2573 0.950 . S
C2584 C2582 1.391 . S
C2584 C2585 1.400 . S
C2585 C2579 1.491 . S
C2585 C2584 1.400 . S
C2585 C2586 1.398 . S
C2586 H2574 0.950 . S
C2586 C2585 1.398 . S
C2586 C2587 1.391 . S
C2587 H2575 0.950 . S
C2587 C2583 1.393 . S
C2587 C2586 1.391 . S
H2588 C2596 0.950 . S
H2589 C2601 0.950 . S
H2590 C2598 0.950 . S
H2591 C2600 0.950 . S
H2592 C2602 0.950 . S
H2593 C2604 0.950 . S
H2594 C2606 0.950 . S
H2595 C2607 0.950 . S
C2596 H2588 0.950 . S
C2596 C2597 1.386 . S
C2596 C2598 1.391 . S
C2597 C2596 1.386 . S
C2597 C2601 1.393 . S
C2598 H2590 0.950 . S
C2598 C2596 1.391 . S
C2598 C2599 1.400 . S
C2599 C2598 1.400 . S
C2599 C2600 1.398 . S
C2599 C2605 1.491 . S
C2600 H2591 0.950 . S
C2600 C2599 1.398 . S
C2600 C2601 1.391 . S
C2601 H2589 0.950 . S
C2601 C2597 1.393 . S
C2601 C2600 1.391 . S
C2602 H2592 0.950 . S
C2602 C2603 1.386 . S
C2602 C2604 1.391 . S
C2603 C2602 1.386 . S
C2603 C2607 1.393 . S
C2604 H2593 0.950 . S
C2604 C2602 1.391 . S
C2604 C2605 1.400 . S
C2605 C2599 1.491 . S
C2605 C2604 1.400 . S
C2605 C2606 1.398 . S
C2606 H2594 0.950 . S
C2606 C2605 1.398 . S
C2606 C2607 1.391 . S
C2607 H2595 0.950 . S
C2607 C2603 1.393 . S
C2607 C2606 1.391 . S
H2608 C2616 0.950 . S
H2609 C2621 0.950 . S
H2610 C2618 0.950 . S
H2611 C2620 0.950 . S
H2612 C2622 0.950 . S
H2613 C2624 0.950 . S
H2614 C2626 0.950 . S
H2615 C2627 0.950 . S
C2616 H2608 0.950 . S
C2616 C2617 1.386 . S
C2616 C2618 1.391 . S
C2617 C2616 1.386 . S
C2617 C2621 1.393 . S
C2618 H2610 0.950 . S
C2618 C2616 1.391 . S
C2618 C2619 1.400 . S
C2619 C2618 1.400 . S
C2619 C2620 1.398 . S
C2619 C2625 1.491 1_554 S
C2620 H2611 0.950 . S
C2620 C2619 1.398 . S
C2620 C2621 1.391 . S
C2621 H2609 0.950 . S
C2621 C2617 1.393 . S
C2621 C2620 1.391 . S
C2622 H2612 0.950 . S
C2622 C2623 1.386 . S
C2622 C2624 1.391 . S
C2623 C2622 1.386 . S
C2623 C2627 1.393 . S
C2624 H2613 0.950 . S
C2624 C2622 1.391 . S
C2624 C2625 1.400 . S
C2625 C2619 1.491 1_556 S
C2625 C2624 1.400 . S
C2625 C2626 1.398 . S
C2626 H2614 0.950 . S
C2626 C2625 1.398 . S
C2626 C2627 1.391 . S
C2627 H2615 0.950 . S
C2627 C2623 1.393 . S
C2627 C2626 1.391 . S
H2628 C2636 0.950 . S
H2629 C2641 0.950 . S
H2630 C2638 0.950 . S
H2631 C2640 0.950 . S
H2632 C2642 0.950 . S
H2633 C2644 0.950 . S
H2634 C2646 0.950 . S
H2635 C2647 0.950 . S
C2636 H2628 0.950 . S
C2636 C2637 1.386 . S
C2636 C2638 1.391 . S
C2637 C2636 1.386 . S
C2637 C2641 1.393 . S
C2638 H2630 0.950 . S
C2638 C2636 1.391 . S
C2638 C2639 1.400 . S
C2639 C2638 1.400 . S
C2639 C2640 1.398 . S
C2639 C2645 1.491 1_556 S
C2640 H2631 0.950 . S
C2640 C2639 1.398 . S
C2640 C2641 1.391 . S
C2641 H2629 0.950 . S
C2641 C2637 1.393 . S
C2641 C2640 1.391 . S
C2642 H2632 0.950 . S
C2642 C2643 1.386 . S
C2642 C2644 1.391 . S
C2643 C2642 1.386 . S
C2643 C2647 1.393 . S
C2644 H2633 0.950 . S
C2644 C2642 1.391 . S
C2644 C2645 1.400 . S
C2645 C2639 1.491 1_554 S
C2645 C2644 1.400 . S
C2645 C2646 1.398 . S
C2646 H2634 0.950 . S
C2646 C2645 1.398 . S
C2646 C2647 1.391 . S
C2647 H2635 0.950 . S
C2647 C2643 1.393 . S
C2647 C2646 1.391 . S
H2648 C2656 0.950 . S
H2649 C2661 0.950 . S
H2650 C2658 0.950 . S
H2651 C2660 0.950 . S
H2652 C2662 0.950 . S
H2653 C2664 0.950 . S
H2654 C2666 0.950 . S
H2655 C2667 0.950 . S
C2656 H2648 0.950 . S
C2656 C2657 1.386 . S
C2656 C2658 1.391 . S
C2657 C2656 1.386 . S
C2657 C2661 1.393 . S
C2658 H2650 0.950 . S
C2658 C2656 1.391 . S
C2658 C2659 1.400 . S
C2659 C2658 1.400 . S
C2659 C2660 1.398 . S
C2659 C2665 1.491 . S
C2660 H2651 0.950 . S
C2660 C2659 1.398 . S
C2660 C2661 1.391 . S
C2661 H2649 0.950 . S
C2661 C2657 1.393 . S
C2661 C2660 1.391 . S
C2662 H2652 0.950 . S
C2662 C2663 1.386 1_556 S
C2662 C2664 1.391 . S
C2663 C2662 1.386 1_554 S
C2663 C2667 1.393 1_554 S
C2664 H2653 0.950 . S
C2664 C2662 1.391 . S
C2664 C2665 1.400 . S
C2665 C2659 1.491 . S
C2665 C2664 1.400 . S
C2665 C2666 1.398 . S
C2666 H2654 0.950 . S
C2666 C2665 1.398 . S
C2666 C2667 1.391 . S
C2667 H2655 0.950 . S
C2667 C2663 1.393 1_556 S
C2667 C2666 1.391 . S
H2668 C2676 0.950 . S
H2669 C2681 0.950 . S
H2670 C2678 0.950 . S
H2671 C2680 0.950 . S
H2672 C2682 0.950 . S
H2673 C2684 0.950 . S
H2674 C2686 0.950 . S
H2675 C2687 0.950 . S
C2676 H2668 0.950 . S
C2676 C2677 1.386 1_556 S
C2676 C2678 1.391 . S
C2677 C2676 1.386 1_554 S
C2677 C2681 1.393 1_554 S
C2678 H2670 0.950 . S
C2678 C2676 1.391 . S
C2678 C2679 1.400 . S
C2679 C2678 1.400 . S
C2679 C2680 1.398 . S
C2679 C2685 1.491 . S
C2680 H2671 0.950 . S
C2680 C2679 1.398 . S
C2680 C2681 1.391 . S
C2681 H2669 0.950 . S
C2681 C2677 1.393 1_556 S
C2681 C2680 1.391 . S
C2682 H2672 0.950 . S
C2682 C2683 1.386 . S
C2682 C2684 1.391 . S
C2683 C2682 1.386 . S
C2683 C2687 1.393 . S
C2684 H2673 0.950 . S
C2684 C2682 1.391 . S
C2684 C2685 1.400 . S
C2685 C2679 1.491 . S
C2685 C2684 1.400 . S
C2685 C2686 1.398 . S
C2686 H2674 0.950 . S
C2686 C2685 1.398 . S
C2686 C2687 1.391 . S
C2687 H2675 0.950 . S
C2687 C2683 1.393 . S
C2687 C2686 1.391 . S
H2688 C2696 0.950 . S
H2689 C2701 0.950 . S
H2690 C2698 0.950 . S
H2691 C2700 0.950 . S
H2692 C2702 0.950 . S
H2693 C2704 0.950 . S
H2694 C2706 0.950 . S
H2695 C2707 0.950 . S
C2696 H2688 0.950 . S
C2696 C2697 1.386 . S
C2696 C2698 1.391 . S
C2697 C2696 1.386 . S
C2697 C2701 1.393 . S
C2698 H2690 0.950 . S
C2698 C2696 1.391 . S
C2698 C2699 1.400 . S
C2699 C2698 1.400 . S
C2699 C2700 1.398 . S
C2699 C2705 1.491 . S
C2700 H2691 0.950 . S
C2700 C2699 1.398 . S
C2700 C2701 1.391 . S
C2701 H2689 0.950 . S
C2701 C2697 1.393 . S
C2701 C2700 1.391 . S
C2702 H2692 0.950 . S
C2702 C2703 1.386 . S
C2702 C2704 1.391 . S
C2703 C2702 1.386 . S
C2703 C2707 1.393 . S
C2704 H2693 0.950 . S
C2704 C2702 1.391 . S
C2704 C2705 1.400 . S
C2705 C2699 1.491 . S
C2705 C2704 1.400 . S
C2705 C2706 1.398 . S
C2706 H2694 0.950 . S
C2706 C2705 1.398 . S
C2706 C2707 1.391 . S
C2707 H2695 0.950 . S
C2707 C2703 1.393 . S
C2707 C2706 1.391 . S
H2708 C2716 0.950 . S
H2709 C2721 0.950 . S
H2710 C2718 0.950 . S
H2711 C2720 0.950 . S
H2712 C2722 0.950 . S
H2713 C2724 0.950 . S
H2714 C2726 0.950 . S
H2715 C2727 0.950 . S
C2716 H2708 0.950 . S
C2716 C2717 1.386 . S
C2716 C2718 1.391 . S
C2717 C2716 1.386 . S
C2717 C2721 1.393 . S
C2718 H2710 0.950 . S
C2718 C2716 1.391 . S
C2718 C2719 1.400 . S
C2719 C2718 1.400 . S
C2719 C2720 1.398 . S
C2719 C2725 1.491 . S
C2720 H2711 0.950 . S
C2720 C2719 1.398 . S
C2720 C2721 1.391 . S
C2721 H2709 0.950 . S
C2721 C2717 1.393 . S
C2721 C2720 1.391 . S
C2722 H2712 0.950 . S
C2722 C2723 1.386 . S
C2722 C2724 1.391 . S
C2723 C2722 1.386 . S
C2723 C2727 1.393 . S
C2724 H2713 0.950 . S
C2724 C2722 1.391 . S
C2724 C2725 1.400 . S
C2725 C2719 1.491 . S
C2725 C2724 1.400 . S
C2725 C2726 1.398 . S
C2726 H2714 0.950 . S
C2726 C2725 1.398 . S
C2726 C2727 1.391 . S
C2727 H2715 0.950 . S
C2727 C2723 1.393 . S
C2727 C2726 1.391 . S
H2728 C2736 0.950 1_554 S
H2729 C2741 0.950 . S
H2730 C2738 0.950 1_554 S
H2731 C2740 0.950 . S
H2732 C2742 0.950 . S
H2733 C2744 0.950 . S
H2734 C2746 0.950 . S
H2735 C2747 0.950 . S
C2736 H2728 0.950 1_556 S
C2736 C2737 1.386 . S
C2736 C2738 1.391 . S
C2737 C2736 1.386 . S
C2737 C2741 1.393 . S
C2738 H2730 0.950 1_556 S
C2738 C2736 1.391 . S
C2738 C2739 1.400 . S
C2739 C2738 1.400 . S
C2739 C2740 1.398 . S
C2739 C2745 1.491 . S
C2740 H2731 0.950 . S
C2740 C2739 1.398 . S
C2740 C2741 1.391 . S
C2741 H2729 0.950 . S
C2741 C2737 1.393 . S
C2741 C2740 1.391 . S
C2742 H2732 0.950 . S
C2742 C2743 1.386 . S
C2742 C2744 1.391 . S
C2743 C2742 1.386 . S
C2743 C2747 1.393 . S
C2744 H2733 0.950 . S
C2744 C2742 1.391 . S
C2744 C2745 1.400 . S
C2745 C2739 1.491 . S
C2745 C2744 1.400 . S
C2745 C2746 1.398 . S
C2746 H2734 0.950 . S
C2746 C2745 1.398 . S
C2746 C2747 1.391 . S
C2747 H2735 0.950 . S
C2747 C2743 1.393 . S
C2747 C2746 1.391 . S
H2748 C2756 0.950 . S
H2749 C2761 0.950 . S
H2750 C2758 0.950 . S
H2751 C2760 0.949 1_554 S
H2752 C2762 0.950 1_554 S
H2753 C2764 0.950 1_554 S
H2754 C2766 0.950 . S
H2755 C2767 0.950 . S
C2756 H2748 0.950 . S
C2756 C2757 1.386 . S
C2756 C2758 1.391 . S
C2757 C2756 1.386 . S
C2757 C2761 1.393 . S
C2758 H2750 0.950 . S
C2758 C2756 1.391 . S
C2758 C2759 1.400 . S
C2759 C2758 1.400 . S
C2759 C2760 1.398 . S
C2759 C2765 1.491 . S
C2760 H2751 0.949 1_556 S
C2760 C2759 1.398 . S
C2760 C2761 1.391 . S
C2761 H2749 0.950 . S
C2761 C2757 1.393 . S
C2761 C2760 1.391 . S
C2762 H2752 0.950 1_556 S
C2762 C2763 1.386 . S
C2762 C2764 1.391 . S
C2763 C2762 1.386 . S
C2763 C2767 1.393 . S
C2764 H2753 0.950 1_556 S
C2764 C2762 1.391 . S
C2764 C2765 1.400 . S
C2765 C2759 1.491 . S
C2765 C2764 1.400 . S
C2765 C2766 1.398 . S
C2766 H2754 0.950 . S
C2766 C2765 1.398 . S
C2766 C2767 1.391 . S
C2767 H2755 0.950 . S
C2767 C2763 1.393 . S
C2767 C2766 1.391 . S
H2768 C2776 0.950 . S
H2769 C2781 0.950 . S
H2770 C2778 0.950 . S
H2771 C2780 0.950 . S
H2772 C2782 0.950 . S
H2773 C2784 0.950 . S
H2774 C2786 0.950 . S
H2775 C2787 0.950 . S
C2776 H2768 0.950 . S
C2776 C2777 1.386 . S
C2776 C2778 1.391 . S
C2777 C2776 1.386 . S
C2777 C2781 1.393 . S
C2778 H2770 0.950 . S
C2778 C2776 1.391 . S
C2778 C2779 1.400 . S
C2779 C2778 1.400 . S
C2779 C2780 1.398 . S
C2779 C2785 1.491 . S
C2780 H2771 0.950 . S
C2780 C2779 1.398 . S
C2780 C2781 1.391 . S
C2781 H2769 0.950 . S
C2781 C2777 1.393 . S
C2781 C2780 1.391 . S
C2782 H2772 0.950 . S
C2782 C2783 1.386 . S
C2782 C2784 1.391 . S
C2783 C2782 1.386 . S
C2783 C2787 1.393 . S
C2784 H2773 0.950 . S
C2784 C2782 1.391 . S
C2784 C2785 1.400 . S
C2785 C2779 1.491 . S
C2785 C2784 1.400 . S
C2785 C2786 1.398 . S
C2786 H2774 0.950 . S
C2786 C2785 1.398 . S
C2786 C2787 1.391 . S
C2787 H2775 0.950 . S
C2787 C2783 1.393 . S
C2787 C2786 1.391 . S
H2788 C2796 0.950 . S
H2789 C2801 0.950 . S
H2790 C2798 0.950 . S
H2791 C2800 0.950 . S
H2792 C2802 0.950 . S
H2793 C2804 0.950 . S
H2794 C2806 0.950 . S
H2795 C2807 0.950 . S
C2796 H2788 0.950 . S
C2796 C2797 1.386 . S
C2796 C2798 1.391 . S
C2797 C2796 1.386 . S
C2797 C2801 1.393 . S
C2798 H2790 0.950 . S
C2798 C2796 1.391 . S
C2798 C2799 1.400 . S
C2799 C2798 1.400 . S
C2799 C2800 1.398 . S
C2799 C2805 1.491 . S
C2800 H2791 0.950 . S
C2800 C2799 1.398 . S
C2800 C2801 1.391 . S
C2801 H2789 0.950 . S
C2801 C2797 1.393 . S
C2801 C2800 1.391 . S
C2802 H2792 0.950 . S
C2802 C2803 1.386 . S
C2802 C2804 1.391 . S
C2803 C2802 1.386 . S
C2803 C2807 1.393 . S
C2804 H2793 0.950 . S
C2804 C2802 1.391 . S
C2804 C2805 1.400 . S
C2805 C2799 1.491 . S
C2805 C2804 1.400 . S
C2805 C2806 1.398 . S
C2806 H2794 0.950 . S
C2806 C2805 1.398 . S
C2806 C2807 1.391 . S
C2807 H2795 0.950 . S
C2807 C2803 1.393 . S
C2807 C2806 1.391 . S
H2808 C2816 0.950 . S
H2809 C2821 0.950 . S
H2810 C2818 0.950 . S
H2811 C2820 0.950 . S
H2812 C2822 0.950 . S
H2813 C2824 0.950 . S
H2814 C2826 0.950 . S
H2815 C2827 0.950 . S
C2816 H2808 0.950 . S
C2816 C2817 1.386 . S
C2816 C2818 1.391 . S
C2817 C2816 1.386 . S
C2817 C2821 1.393 . S
C2818 H2810 0.950 . S
C2818 C2816 1.391 . S
C2818 C2819 1.400 . S
C2819 C2818 1.400 . S
C2819 C2820 1.398 . S
C2819 C2825 1.491 . S
C2820 H2811 0.950 . S
C2820 C2819 1.398 . S
C2820 C2821 1.391 . S
C2821 H2809 0.950 . S
C2821 C2817 1.393 . S
C2821 C2820 1.391 . S
C2822 H2812 0.950 . S
C2822 C2823 1.386 . S
C2822 C2824 1.391 . S
C2823 C2822 1.386 . S
C2823 C2827 1.393 . S
C2824 H2813 0.950 . S
C2824 C2822 1.391 . S
C2824 C2825 1.400 . S
C2825 C2819 1.491 . S
C2825 C2824 1.400 . S
C2825 C2826 1.398 . S
C2826 H2814 0.950 . S
C2826 C2825 1.398 . S
C2826 C2827 1.391 . S
C2827 H2815 0.950 . S
C2827 C2823 1.393 . S
C2827 C2826 1.391 . S
H2828 C2836 0.950 . S
H2829 C2841 0.950 . S
H2830 C2838 0.950 . S
H2831 C2840 0.950 . S
H2832 C2842 0.950 . S
H2833 C2844 0.950 . S
H2834 C2846 0.950 . S
H2835 C2847 0.950 . S
C2836 H2828 0.950 . S
C2836 C2837 1.386 . S
C2836 C2838 1.391 . S
C2837 C2836 1.386 . S
C2837 C2841 1.393 . S
C2838 H2830 0.950 . S
C2838 C2836 1.391 . S
C2838 C2839 1.400 . S
C2839 C2838 1.400 . S
C2839 C2840 1.398 . S
C2839 C2845 1.491 . S
C2840 H2831 0.950 . S
C2840 C2839 1.398 . S
C2840 C2841 1.391 . S
C2841 H2829 0.950 . S
C2841 C2837 1.393 . S
C2841 C2840 1.391 . S
C2842 H2832 0.950 . S
C2842 C2843 1.386 . S
C2842 C2844 1.391 . S
C2843 C2842 1.386 . S
C2843 C2847 1.393 . S
C2844 H2833 0.950 . S
C2844 C2842 1.391 . S
C2844 C2845 1.400 . S
C2845 C2839 1.491 . S
C2845 C2844 1.400 . S
C2845 C2846 1.398 . S
C2846 H2834 0.950 . S
C2846 C2845 1.398 . S
C2846 C2847 1.391 . S
C2847 H2835 0.950 . S
C2847 C2843 1.393 . S
C2847 C2846 1.391 . S
H2848 C2856 0.950 . S
H2849 C2861 0.950 1_554 S
H2850 C2858 0.950 . S
H2851 C2860 0.950 1_554 S
H2852 C2862 0.950 . S
H2853 C2864 0.950 1_554 S
H2854 C2866 0.950 . S
H2855 C2867 0.950 . S
C2856 H2848 0.950 . S
C2856 C2857 1.386 . S
C2856 C2858 1.391 . S
C2857 C2856 1.386 . S
C2857 C2861 1.393 . S
C2858 H2850 0.950 . S
C2858 C2856 1.391 . S
C2858 C2859 1.400 . S
C2859 C2858 1.400 . S
C2859 C2860 1.398 . S
C2859 C2865 1.491 . S
C2860 H2851 0.950 1_556 S
C2860 C2859 1.398 . S
C2860 C2861 1.391 . S
C2861 H2849 0.950 1_556 S
C2861 C2857 1.393 . S
C2861 C2860 1.391 . S
C2862 H2852 0.950 . S
C2862 C2863 1.386 . S
C2862 C2864 1.391 . S
C2863 C2862 1.386 . S
C2863 C2867 1.393 . S
C2864 H2853 0.950 1_556 S
C2864 C2862 1.391 . S
C2864 C2865 1.400 . S
C2865 C2859 1.491 . S
C2865 C2864 1.400 . S
C2865 C2866 1.398 . S
C2866 H2854 0.950 . S
C2866 C2865 1.398 . S
C2866 C2867 1.391 . S
C2867 H2855 0.950 . S
C2867 C2863 1.393 . S
C2867 C2866 1.391 . S
H2868 C2876 0.950 . S
H2869 C2881 0.950 . S
H2870 C2878 0.950 . S
H2871 C2880 0.950 . S
H2872 C2882 0.950 . S
H2873 C2884 0.950 . S
H2874 C2886 0.950 . S
H2875 C2887 0.950 . S
C2876 H2868 0.950 . S
C2876 C2877 1.386 . S
C2876 C2878 1.391 . S
C2877 C2876 1.386 . S
C2877 C2881 1.393 . S
C2878 H2870 0.950 . S
C2878 C2876 1.391 . S
C2878 C2879 1.400 . S
C2879 C2878 1.400 . S
C2879 C2880 1.398 . S
C2879 C2885 1.491 . S
C2880 H2871 0.950 . S
C2880 C2879 1.398 . S
C2880 C2881 1.391 . S
C2881 H2869 0.950 . S
C2881 C2877 1.393 . S
C2881 C2880 1.391 . S
C2882 H2872 0.950 . S
C2882 C2883 1.386 . S
C2882 C2884 1.391 . S
C2883 C2882 1.386 . S
C2883 C2887 1.393 . S
C2884 H2873 0.950 . S
C2884 C2882 1.391 . S
C2884 C2885 1.400 . S
C2885 C2879 1.491 . S
C2885 C2884 1.400 . S
C2885 C2886 1.398 . S
C2886 H2874 0.950 . S
C2886 C2885 1.398 . S
C2886 C2887 1.391 . S
C2887 H2875 0.950 . S
C2887 C2883 1.393 . S
C2887 C2886 1.391 . S
H2888 C2896 0.950 . S
H2889 C2901 0.950 . S
H2890 C2898 0.950 . S
H2891 C2900 0.950 . S
H2892 C2902 0.950 . S
H2893 C2904 0.950 . S
H2894 C2906 0.950 . S
H2895 C2907 0.950 . S
C2896 H2888 0.950 . S
C2896 C2897 1.386 . S
C2896 C2898 1.391 . S
C2897 C2896 1.386 . S
C2897 C2901 1.393 . S
C2898 H2890 0.950 . S
C2898 C2896 1.391 . S
C2898 C2899 1.400 . S
C2899 C2898 1.400 . S
C2899 C2900 1.398 . S
C2899 C2905 1.491 . S
C2900 H2891 0.950 . S
C2900 C2899 1.398 . S
C2900 C2901 1.391 . S
C2901 H2889 0.950 . S
C2901 C2897 1.393 . S
C2901 C2900 1.391 . S
C2902 H2892 0.950 . S
C2902 C2903 1.386 . S
C2902 C2904 1.391 . S
C2903 C2902 1.386 . S
C2903 C2907 1.393 . S
C2904 H2893 0.950 . S
C2904 C2902 1.391 . S
C2904 C2905 1.400 . S
C2905 C2899 1.491 . S
C2905 C2904 1.400 . S
C2905 C2906 1.398 . S
C2906 H2894 0.950 . S
C2906 C2905 1.398 . S
C2906 C2907 1.391 . S
C2907 H2895 0.950 . S
C2907 C2903 1.393 . S
C2907 C2906 1.391 . S
H2908 C2916 0.950 . S
H2909 C2921 0.950 . S
H2910 C2918 0.950 . S
H2911 C2920 0.950 . S
H2912 C2922 0.950 . S
H2913 C2924 0.950 . S
H2914 C2926 0.950 . S
H2915 C2927 0.950 . S
C2916 H2908 0.950 . S
C2916 C2917 1.386 . S
C2916 C2918 1.391 . S
C2917 C2916 1.386 . S
C2917 C2921 1.393 . S
C2918 H2910 0.950 . S
C2918 C2916 1.391 . S
C2918 C2919 1.400 . S
C2919 C2918 1.400 . S
C2919 C2920 1.398 . S
C2919 C2925 1.491 . S
C2920 H2911 0.950 . S
C2920 C2919 1.398 . S
C2920 C2921 1.391 . S
C2921 H2909 0.950 . S
C2921 C2917 1.393 . S
C2921 C2920 1.391 . S
C2922 H2912 0.950 . S
C2922 C2923 1.386 . S
C2922 C2924 1.391 . S
C2923 C2922 1.386 . S
C2923 C2927 1.393 . S
C2924 H2913 0.950 . S
C2924 C2922 1.391 . S
C2924 C2925 1.400 . S
C2925 C2919 1.491 . S
C2925 C2924 1.400 . S
C2925 C2926 1.398 . S
C2926 H2914 0.950 . S
C2926 C2925 1.398 . S
C2926 C2927 1.391 . S
C2927 H2915 0.950 . S
C2927 C2923 1.393 . S
C2927 C2926 1.391 . S
H2928 C2936 0.950 . S
H2929 C2941 0.950 . S
H2930 C2938 0.950 . S
H2931 C2940 0.950 . S
H2932 C2942 0.950 . S
H2933 C2944 0.950 . S
H2934 C2946 0.950 . S
H2935 C2947 0.950 . S
C2936 H2928 0.950 . S
C2936 C2937 1.386 . S
C2936 C2938 1.391 . S
C2937 C2936 1.386 . S
C2937 C2941 1.393 . S
C2938 H2930 0.950 . S
C2938 C2936 1.391 . S
C2938 C2939 1.400 . S
C2939 C2938 1.400 . S
C2939 C2940 1.398 . S
C2939 C2945 1.491 . S
C2940 H2931 0.950 . S
C2940 C2939 1.398 . S
C2940 C2941 1.391 . S
C2941 H2929 0.950 . S
C2941 C2937 1.393 . S
C2941 C2940 1.391 . S
C2942 H2932 0.950 . S
C2942 C2943 1.386 . S
C2942 C2944 1.391 . S
C2943 C2942 1.386 . S
C2943 C2947 1.393 . S
C2944 H2933 0.950 . S
C2944 C2942 1.391 . S
C2944 C2945 1.400 . S
C2945 C2939 1.491 . S
C2945 C2944 1.400 . S
C2945 C2946 1.398 . S
C2946 H2934 0.950 . S
C2946 C2945 1.398 . S
C2946 C2947 1.391 . S
C2947 H2935 0.950 . S
C2947 C2943 1.393 . S
C2947 C2946 1.391 . S
H2948 C2956 0.950 . S
H2949 C2961 0.950 . S
H2950 C2958 0.950 . S
H2951 C2960 0.950 . S
H2952 C2962 0.950 . S
H2953 C2964 0.950 . S
H2954 C2966 0.950 . S
H2955 C2967 0.950 . S
C2956 H2948 0.950 . S
C2956 C2957 1.386 . S
C2956 C2958 1.391 . S
C2957 C2956 1.386 . S
C2957 C2961 1.393 . S
C2958 H2950 0.950 . S
C2958 C2956 1.391 . S
C2958 C2959 1.400 . S
C2959 C2958 1.400 . S
C2959 C2960 1.398 . S
C2959 C2965 1.491 . S
C2960 H2951 0.950 . S
C2960 C2959 1.398 . S
C2960 C2961 1.391 . S
C2961 H2949 0.950 . S
C2961 C2957 1.393 . S
C2961 C2960 1.391 . S
C2962 H2952 0.950 . S
C2962 C2963 1.386 . S
C2962 C2964 1.391 . S
C2963 C2962 1.386 . S
C2963 C2967 1.393 . S
C2964 H2953 0.950 . S
C2964 C2962 1.391 . S
C2964 C2965 1.400 . S
C2965 C2959 1.491 . S
C2965 C2964 1.400 . S
C2965 C2966 1.398 . S
C2966 H2954 0.950 . S
C2966 C2965 1.398 . S
C2966 C2967 1.391 . S
C2967 H2955 0.950 . S
C2967 C2963 1.393 . S
C2967 C2966 1.391 . S
H2968 C2976 0.950 . S
H2969 C2981 0.950 . S
H2970 C2978 0.950 . S
H2971 C2980 0.950 . S
H2972 C2982 0.950 . S
H2973 C2984 0.950 . S
H2974 C2986 0.950 . S
H2975 C2987 0.950 . S
C2976 H2968 0.950 . S
C2976 C2977 1.386 . S
C2976 C2978 1.391 . S
C2977 C2976 1.386 . S
C2977 C2981 1.393 . S
C2978 H2970 0.950 . S
C2978 C2976 1.391 . S
C2978 C2979 1.400 . S
C2979 C2978 1.400 . S
C2979 C2980 1.398 . S
C2979 C2985 1.491 . S
C2980 H2971 0.950 . S
C2980 C2979 1.398 . S
C2980 C2981 1.391 . S
C2981 H2969 0.950 . S
C2981 C2977 1.393 . S
C2981 C2980 1.391 . S
C2982 H2972 0.950 . S
C2982 C2983 1.386 . S
C2982 C2984 1.391 . S
C2983 C2982 1.386 . S
C2983 C2987 1.393 . S
C2984 H2973 0.950 . S
C2984 C2982 1.391 . S
C2984 C2985 1.400 . S
C2985 C2979 1.491 . S
C2985 C2984 1.400 . S
C2985 C2986 1.398 . S
C2986 H2974 0.950 . S
C2986 C2985 1.398 . S
C2986 C2987 1.391 . S
C2987 H2975 0.950 . S
C2987 C2983 1.393 . S
C2987 C2986 1.391 . S
H2988 C2996 0.950 . S
H2989 C3001 0.950 . S
H2990 C2998 0.950 . S
H2991 C3000 0.950 . S
H2992 C3002 0.950 . S
H2993 C3004 0.950 . S
H2994 C3006 0.950 . S
H2995 C3007 0.950 . S
C2996 H2988 0.950 . S
C2996 C2997 1.386 . S
C2996 C2998 1.391 . S
C2997 C2996 1.386 . S
C2997 C3001 1.393 . S
C2998 H2990 0.950 . S
C2998 C2996 1.391 . S
C2998 C2999 1.400 . S
C2999 C2998 1.400 . S
C2999 C3000 1.398 . S
C2999 C3005 1.491 . S
C3000 H2991 0.950 . S
C3000 C2999 1.398 . S
C3000 C3001 1.391 . S
C3001 H2989 0.950 . S
C3001 C2997 1.393 . S
C3001 C3000 1.391 . S
C3002 H2992 0.950 . S
C3002 C3003 1.386 . S
C3002 C3004 1.391 . S
C3003 C3002 1.386 . S
C3003 C3007 1.393 . S
C3004 H2993 0.950 . S
C3004 C3002 1.391 . S
C3004 C3005 1.400 . S
C3005 C2999 1.491 . S
C3005 C3004 1.400 . S
C3005 C3006 1.398 . S
C3006 H2994 0.950 . S
C3006 C3005 1.398 . S
C3006 C3007 1.391 . S
C3007 H2995 0.950 . S
C3007 C3003 1.393 . S
C3007 C3006 1.391 . S
H3008 C3016 0.950 . S
H3009 C3021 0.950 . S
H3010 C3018 0.950 . S
H3011 C3020 0.950 . S
H3012 C3022 0.950 . S
H3013 C3024 0.950 . S
H3014 C3026 0.950 . S
H3015 C3027 0.950 . S
C3016 H3008 0.950 . S
C3016 C3017 1.386 . S
C3016 C3018 1.391 . S
C3017 C3016 1.386 . S
C3017 C3021 1.393 . S
C3018 H3010 0.950 . S
C3018 C3016 1.391 . S
C3018 C3019 1.400 . S
C3019 C3018 1.400 . S
C3019 C3020 1.398 . S
C3019 C3025 1.491 . S
C3020 H3011 0.950 . S
C3020 C3019 1.398 . S
C3020 C3021 1.391 . S
C3021 H3009 0.950 . S
C3021 C3017 1.393 . S
C3021 C3020 1.391 . S
C3022 H3012 0.950 . S
C3022 C3023 1.386 . S
C3022 C3024 1.391 . S
C3023 C3022 1.386 . S
C3023 C3027 1.393 . S
C3024 H3013 0.950 . S
C3024 C3022 1.391 . S
C3024 C3025 1.400 . S
C3025 C3019 1.491 . S
C3025 C3024 1.400 . S
C3025 C3026 1.398 . S
C3026 H3014 0.950 . S
C3026 C3025 1.398 . S
C3026 C3027 1.391 . S
C3027 H3015 0.950 . S
C3027 C3023 1.393 . S
C3027 C3026 1.391 . S
H3028 C3036 0.950 . S
H3029 C3041 0.950 . S
H3030 C3038 0.950 . S
H3031 C3040 0.950 . S
H3032 C3042 0.950 . S
H3033 C3044 0.950 . S
H3034 C3046 0.950 . S
H3035 C3047 0.950 . S
C3036 H3028 0.950 . S
C3036 C3037 1.386 . S
C3036 C3038 1.391 . S
C3037 C3036 1.386 . S
C3037 C3041 1.393 . S
C3038 H3030 0.950 . S
C3038 C3036 1.391 . S
C3038 C3039 1.400 . S
C3039 C3038 1.400 . S
C3039 C3040 1.398 . S
C3039 C3045 1.491 . S
C3040 H3031 0.950 . S
C3040 C3039 1.398 . S
C3040 C3041 1.391 . S
C3041 H3029 0.950 . S
C3041 C3037 1.393 . S
C3041 C3040 1.391 . S
C3042 H3032 0.950 . S
C3042 C3043 1.386 . S
C3042 C3044 1.391 . S
C3043 C3042 1.386 . S
C3043 C3047 1.393 . S
C3044 H3033 0.950 . S
C3044 C3042 1.391 . S
C3044 C3045 1.400 . S
C3045 C3039 1.491 . S
C3045 C3044 1.400 . S
C3045 C3046 1.398 . S
C3046 H3034 0.950 . S
C3046 C3045 1.398 . S
C3046 C3047 1.391 . S
C3047 H3035 0.950 . S
C3047 C3043 1.393 . S
C3047 C3046 1.391 . S
H3048 C3056 0.937 1_565 S
H3049 C3061 0.950 . S
H3050 C3058 0.932 1_565 S
H3051 C3060 0.950 . S
H3052 C3062 0.950 . S
H3053 C3064 0.950 . S
H3054 C3066 0.950 1_565 S
H3055 C3067 0.950 1_565 S
C3056 H3048 0.937 1_545 S
C3056 C3057 1.399 . S
C3056 C3058 1.391 . S
C3057 C3056 1.399 . S
C3057 C3061 1.393 . S
C3058 H3050 0.932 1_545 S
C3058 C3056 1.391 . S
C3058 C3059 1.419 . S
C3059 C3058 1.419 . S
C3059 C3060 1.398 . S
C3059 C3065 1.491 . S
C3060 H3051 0.950 . S
C3060 C3059 1.398 . S
C3060 C3061 1.391 . S
C3061 H3049 0.950 . S
C3061 C3057 1.393 . S
C3061 C3060 1.391 . S
C3062 H3052 0.950 . S
C3062 C3063 1.386 . S
C3062 C3064 1.391 . S
C3063 C3062 1.386 . S
C3063 C3067 1.393 . S
C3064 H3053 0.950 . S
C3064 C3062 1.391 . S
C3064 C3065 1.400 . S
C3065 C3059 1.491 . S
C3065 C3064 1.400 . S
C3065 C3066 1.398 . S
C3066 H3054 0.950 1_545 S
C3066 C3065 1.398 . S
C3066 C3067 1.391 . S
C3067 H3055 0.950 1_545 S
C3067 C3063 1.393 . S
C3067 C3066 1.391 . S
H3068 C3076 0.950 . S
H3069 C3081 0.950 . S
H3070 C3078 0.950 . S
H3071 C3080 0.950 . S
H3072 C3082 0.950 . S
H3073 C3084 0.950 . S
H3074 C3086 0.950 . S
H3075 C3087 0.950 . S
C3076 H3068 0.950 . S
C3076 C3077 1.386 . S
C3076 C3078 1.391 . S
C3077 C3076 1.386 . S
C3077 C3081 1.393 . S
C3078 H3070 0.950 . S
C3078 C3076 1.391 . S
C3078 C3079 1.400 . S
C3079 C3078 1.400 . S
C3079 C3080 1.398 . S
C3079 C3085 1.491 . S
C3080 H3071 0.950 . S
C3080 C3079 1.398 . S
C3080 C3081 1.391 . S
C3081 H3069 0.950 . S
C3081 C3077 1.393 . S
C3081 C3080 1.391 . S
C3082 H3072 0.950 . S
C3082 C3083 1.386 . S
C3082 C3084 1.391 . S
C3083 C3082 1.386 . S
C3083 C3087 1.393 . S
C3084 H3073 0.950 . S
C3084 C3082 1.391 . S
C3084 C3085 1.400 . S
C3085 C3079 1.491 . S
C3085 C3084 1.400 . S
C3085 C3086 1.398 . S
C3086 H3074 0.950 . S
C3086 C3085 1.398 . S
C3086 C3087 1.391 . S
C3087 H3075 0.950 . S
C3087 C3083 1.393 . S
C3087 C3086 1.391 . S
H3088 C3096 0.950 1_556 S
H3089 C3101 0.950 . S
H3090 C3098 0.950 . S
H3091 C3100 0.950 . S
H3092 C3102 0.950 . S
H3093 C3104 0.950 . S
H3094 C3106 0.950 . S
H3095 C3107 0.950 . S
C3096 H3088 0.950 1_554 S
C3096 C3097 1.386 . S
C3096 C3098 1.391 . S
C3097 C3096 1.386 . S
C3097 C3101 1.393 . S
C3098 H3090 0.950 . S
C3098 C3096 1.391 . S
C3098 C3099 1.400 . S
C3099 C3098 1.400 . S
C3099 C3100 1.398 . S
C3099 C3105 1.491 . S
C3100 H3091 0.950 . S
C3100 C3099 1.398 . S
C3100 C3101 1.391 . S
C3101 H3089 0.950 . S
C3101 C3097 1.393 . S
C3101 C3100 1.391 . S
C3102 H3092 0.950 . S
C3102 C3103 1.386 . S
C3102 C3104 1.391 . S
C3103 C3102 1.386 . S
C3103 C3107 1.393 . S
C3104 H3093 0.950 . S
C3104 C3102 1.391 . S
C3104 C3105 1.400 . S
C3105 C3099 1.491 . S
C3105 C3104 1.400 . S
C3105 C3106 1.398 . S
C3106 H3094 0.950 . S
C3106 C3105 1.398 . S
C3106 C3107 1.391 . S
C3107 H3095 0.950 . S
C3107 C3103 1.393 . S
C3107 C3106 1.391 . S
H3108 C3116 0.950 . S
H3109 C3121 0.950 . S
H3110 C3118 0.950 . S
H3111 C3120 0.950 . S
H3112 C3122 0.950 . S
H3113 C3124 0.950 . S
H3114 C3126 0.950 . S
H3115 C3127 0.950 . S
C3116 H3108 0.950 . S
C3116 C3117 1.386 . S
C3116 C3118 1.391 . S
C3117 C3116 1.386 . S
C3117 C3121 1.393 . S
C3118 H3110 0.950 . S
C3118 C3116 1.391 . S
C3118 C3119 1.400 . S
C3119 C3118 1.400 . S
C3119 C3120 1.398 . S
C3119 C3125 1.491 . S
C3120 H3111 0.950 . S
C3120 C3119 1.398 . S
C3120 C3121 1.391 . S
C3121 H3109 0.950 . S
C3121 C3117 1.393 . S
C3121 C3120 1.391 . S
C3122 H3112 0.950 . S
C3122 C3123 1.386 . S
C3122 C3124 1.391 . S
C3123 C3122 1.386 . S
C3123 C3127 1.393 . S
C3124 H3113 0.950 . S
C3124 C3122 1.391 . S
C3124 C3125 1.400 . S
C3125 C3119 1.491 . S
C3125 C3124 1.400 . S
C3125 C3126 1.398 . S
C3126 H3114 0.950 . S
C3126 C3125 1.398 . S
C3126 C3127 1.391 . S
C3127 H3115 0.950 . S
C3127 C3123 1.393 . S
C3127 C3126 1.391 . S
H3128 C3136 0.950 . S
H3129 C3141 0.950 . S
H3130 C3138 0.950 . S
H3131 C3140 0.950 . S
H3132 C3142 0.950 . S
H3133 C3144 0.950 . S
H3134 C3146 0.950 . S
H3135 C3147 0.950 . S
C3136 H3128 0.950 . S
C3136 C3137 1.386 . S
C3136 C3138 1.391 . S
C3137 C3136 1.386 . S
C3137 C3141 1.393 . S
C3138 H3130 0.950 . S
C3138 C3136 1.391 . S
C3138 C3139 1.400 . S
C3139 C3138 1.400 . S
C3139 C3140 1.398 . S
C3139 C3145 1.491 . S
C3140 H3131 0.950 . S
C3140 C3139 1.398 . S
C3140 C3141 1.391 . S
C3141 H3129 0.950 . S
C3141 C3137 1.393 . S
C3141 C3140 1.391 . S
C3142 H3132 0.950 . S
C3142 C3143 1.386 . S
C3142 C3144 1.391 . S
C3143 C3142 1.386 . S
C3143 C3147 1.393 1_556 S
C3144 H3133 0.950 . S
C3144 C3142 1.391 . S
C3144 C3145 1.400 . S
C3145 C3139 1.491 . S
C3145 C3144 1.400 . S
C3145 C3146 1.398 . S
C3146 H3134 0.950 . S
C3146 C3145 1.398 . S
C3146 C3147 1.391 1_556 S
C3147 H3135 0.950 . S
C3147 C3143 1.393 1_554 S
C3147 C3146 1.391 1_554 S
H3148 C3156 0.950 . S
H3149 C3161 0.950 . S
H3150 C3158 0.950 . S
H3151 C3160 0.950 . S
H3152 C3162 0.950 . S
H3153 C3164 0.950 . S
H3154 C3166 0.950 . S
H3155 C3167 0.950 . S
C3156 H3148 0.950 . S
C3156 C3157 1.386 . S
C3156 C3158 1.391 . S
C3157 C3156 1.386 . S
C3157 C3161 1.393 . S
C3158 H3150 0.950 . S
C3158 C3156 1.391 . S
C3158 C3159 1.400 . S
C3159 C3158 1.400 . S
C3159 C3160 1.398 . S
C3159 C3165 1.491 . S
C3160 H3151 0.950 . S
C3160 C3159 1.398 . S
C3160 C3161 1.391 . S
C3161 H3149 0.950 . S
C3161 C3157 1.393 . S
C3161 C3160 1.391 . S
C3162 H3152 0.950 . S
C3162 C3163 1.386 1_554 S
C3162 C3164 1.391 1_554 S
C3163 C3162 1.386 1_556 S
C3163 C3167 1.393 . S
C3164 H3153 0.950 . S
C3164 C3162 1.391 1_556 S
C3164 C3165 1.400 . S
C3165 C3159 1.491 . S
C3165 C3164 1.400 . S
C3165 C3166 1.398 . S
C3166 H3154 0.950 . S
C3166 C3165 1.398 . S
C3166 C3167 1.391 . S
C3167 H3155 0.950 . S
C3167 C3163 1.393 . S
C3167 C3166 1.391 . S
H3168 C3176 0.950 . S
H3169 C3181 0.950 . S
H3170 C3178 0.950 . S
H3171 C3180 0.950 . S
H3172 C3182 0.950 . S
H3173 C3184 0.950 . S
H3174 C3186 0.950 . S
H3175 C3187 0.950 . S
C3176 H3168 0.950 . S
C3176 C3177 1.386 . S
C3176 C3178 1.391 . S
C3177 C3176 1.386 . S
C3177 C3181 1.393 1_545 S
C3178 H3170 0.950 . S
C3178 C3176 1.391 . S
C3178 C3179 1.400 . S
C3179 C3178 1.400 . S
C3179 C3180 1.398 1_545 S
C3179 C3185 1.491 . S
C3180 H3171 0.950 . S
C3180 C3179 1.398 1_565 S
C3180 C3181 1.391 . S
C3181 H3169 0.950 . S
C3181 C3177 1.393 1_565 S
C3181 C3180 1.391 . S
C3182 H3172 0.950 . S
C3182 C3183 1.386 1_565 S
C3182 C3184 1.391 . S
C3183 C3182 1.386 1_545 S
C3183 C3187 1.393 . S
C3184 H3173 0.950 . S
C3184 C3182 1.391 . S
C3184 C3185 1.400 1_565 S
C3185 C3179 1.491 . S
C3185 C3184 1.400 1_545 S
C3185 C3186 1.398 . S
C3186 H3174 0.950 . S
C3186 C3185 1.398 . S
C3186 C3187 1.391 . S
C3187 H3175 0.950 . S
C3187 C3183 1.393 . S
C3187 C3186 1.391 . S
H3188 C3196 0.950 . S
H3189 C3201 0.950 . S
H3190 C3198 0.950 . S
H3191 C3200 0.950 . S
H3192 C3202 0.950 . S
H3193 C3204 0.950 . S
H3194 C3206 0.950 . S
H3195 C3207 0.950 . S
C3196 H3188 0.950 . S
C3196 C3197 1.386 . S
C3196 C3198 1.391 . S
C3197 C3196 1.386 . S
C3197 C3201 1.393 . S
C3198 H3190 0.950 . S
C3198 C3196 1.391 . S
C3198 C3199 1.400 . S
C3199 C3198 1.400 . S
C3199 C3200 1.398 . S
C3199 C3205 1.491 . S
C3200 H3191 0.950 . S
C3200 C3199 1.398 . S
C3200 C3201 1.391 . S
C3201 H3189 0.950 . S
C3201 C3197 1.393 . S
C3201 C3200 1.391 . S
C3202 H3192 0.950 . S
C3202 C3203 1.386 . S
C3202 C3204 1.391 . S
C3203 C3202 1.386 . S
C3203 C3207 1.393 . S
C3204 H3193 0.950 . S
C3204 C3202 1.391 . S
C3204 C3205 1.400 . S
C3205 C3199 1.491 . S
C3205 C3204 1.400 . S
C3205 C3206 1.398 . S
C3206 H3194 0.950 . S
C3206 C3205 1.398 . S
C3206 C3207 1.391 . S
C3207 H3195 0.950 . S
C3207 C3203 1.393 . S
C3207 C3206 1.391 . S
H3208 C3216 0.950 . S
H3209 C3221 0.950 . S
H3210 C3218 0.950 . S
H3211 C3220 0.950 . S
H3212 C3222 0.950 . S
H3213 C3224 0.950 . S
H3214 C3226 0.950 1_554 S
H3215 C3227 0.950 . S
C3216 H3208 0.950 . S
C3216 C3217 1.386 . S
C3216 C3218 1.391 . S
C3217 C3216 1.386 . S
C3217 C3221 1.393 1_545 S
C3218 H3210 0.950 . S
C3218 C3216 1.391 . S
C3218 C3219 1.400 . S
C3219 C3218 1.400 . S
C3219 C3220 1.398 1_545 S
C3219 C3225 1.491 . S
C3220 H3211 0.950 . S
C3220 C3219 1.398 1_565 S
C3220 C3221 1.391 . S
C3221 H3209 0.950 . S
C3221 C3217 1.393 1_565 S
C3221 C3220 1.391 . S
C3222 H3212 0.950 . S
C3222 C3223 1.386 1_565 S
C3222 C3224 1.391 . S
C3223 C3222 1.386 1_545 S
C3223 C3227 1.393 1_556 S
C3224 H3213 0.950 . S
C3224 C3222 1.391 . S
C3224 C3225 1.400 1_565 S
C3225 C3219 1.491 . S
C3225 C3224 1.400 1_545 S
C3225 C3226 1.398 . S
C3226 H3214 0.950 1_556 S
C3226 C3225 1.398 . S
C3226 C3227 1.391 1_556 S
C3227 H3215 0.950 . S
C3227 C3223 1.393 1_554 S
C3227 C3226 1.391 1_554 S
H3228 C3236 0.950 . S
H3229 C3241 0.950 . S
H3230 C3238 0.950 . S
H3231 C3240 0.950 . S
H3232 C3242 0.950 . S
H3233 C3244 0.950 . S
H3234 C3246 0.950 1_554 S
H3235 C3247 0.950 . S
C3236 H3228 0.950 . S
C3236 C3237 1.386 . S
C3236 C3238 1.391 . S
C3237 C3236 1.386 . S
C3237 C3241 1.393 . S
C3238 H3230 0.950 . S
C3238 C3236 1.391 . S
C3238 C3239 1.400 . S
C3239 C3238 1.400 . S
C3239 C3240 1.398 . S
C3239 C3245 1.491 . S
C3240 H3231 0.950 . S
C3240 C3239 1.398 . S
C3240 C3241 1.391 . S
C3241 H3229 0.950 . S
C3241 C3237 1.393 . S
C3241 C3240 1.391 . S
C3242 H3232 0.950 . S
C3242 C3243 1.386 . S
C3242 C3244 1.391 . S
C3243 C3242 1.386 . S
C3243 C3247 1.393 1_556 S
C3244 H3233 0.950 . S
C3244 C3242 1.391 . S
C3244 C3245 1.400 . S
C3245 C3239 1.491 . S
C3245 C3244 1.400 . S
C3245 C3246 1.398 . S
C3246 H3234 0.950 1_556 S
C3246 C3245 1.398 . S
C3246 C3247 1.391 1_556 S
C3247 H3235 0.950 . S
C3247 C3243 1.393 1_554 S
C3247 C3246 1.391 1_554 S
H3248 C3256 0.950 . S
H3249 C3261 0.950 . S
H3250 C3258 0.950 . S
H3251 C3260 0.950 . S
H3252 C3262 0.950 . S
H3253 C3264 0.950 . S
H3254 C3266 0.950 . S
H3255 C3267 0.950 . S
C3256 H3248 0.950 . S
C3256 C3257 1.386 . S
C3256 C3258 1.391 . S
C3257 C3256 1.386 . S
C3257 C3261 1.393 . S
C3258 H3250 0.950 . S
C3258 C3256 1.391 . S
C3258 C3259 1.400 . S
C3259 C3258 1.400 . S
C3259 C3260 1.398 . S
C3259 C3265 1.491 . S
C3260 H3251 0.950 . S
C3260 C3259 1.398 . S
C3260 C3261 1.391 . S
C3261 H3249 0.950 . S
C3261 C3257 1.393 . S
C3261 C3260 1.391 . S
C3262 H3252 0.950 . S
C3262 C3263 1.386 . S
C3262 C3264 1.391 . S
C3263 C3262 1.386 . S
C3263 C3267 1.393 . S
C3264 H3253 0.950 . S
C3264 C3262 1.391 . S
C3264 C3265 1.400 . S
C3265 C3259 1.491 . S
C3265 C3264 1.400 . S
C3265 C3266 1.398 . S
C3266 H3254 0.950 . S
C3266 C3265 1.398 . S
C3266 C3267 1.391 . S
C3267 H3255 0.950 . S
C3267 C3263 1.393 . S
C3267 C3266 1.391 . S
H3268 C3276 0.950 . S
H3269 C3281 0.950 . S
H3270 C3278 0.950 . S
H3271 C3280 0.950 . S
H3272 C3282 0.950 . S
H3273 C3284 0.950 . S
H3274 C3286 0.950 . S
H3275 C3287 0.950 . S
C3276 H3268 0.950 . S
C3276 C3277 1.386 . S
C3276 C3278 1.391 . S
C3277 C3276 1.386 . S
C3277 C3281 1.393 . S
C3278 H3270 0.950 . S
C3278 C3276 1.391 . S
C3278 C3279 1.400 . S
C3279 C3278 1.400 . S
C3279 C3280 1.398 . S
C3279 C3285 1.491 . S
C3280 H3271 0.950 . S
C3280 C3279 1.398 . S
C3280 C3281 1.391 . S
C3281 H3269 0.950 . S
C3281 C3277 1.393 . S
C3281 C3280 1.391 . S
C3282 H3272 0.950 . S
C3282 C3283 1.386 . S
C3282 C3284 1.391 . S
C3283 C3282 1.386 . S
C3283 C3287 1.393 . S
C3284 H3273 0.950 . S
C3284 C3282 1.391 . S
C3284 C3285 1.400 . S
C3285 C3279 1.491 . S
C3285 C3284 1.400 . S
C3285 C3286 1.398 . S
C3286 H3274 0.950 . S
C3286 C3285 1.398 . S
C3286 C3287 1.391 . S
C3287 H3275 0.950 . S
C3287 C3283 1.393 . S
C3287 C3286 1.391 . S
H3288 C3296 0.950 . S
H3289 C3301 0.950 . S
H3290 C3298 0.950 . S
H3291 C3300 0.950 . S
H3292 C3302 0.950 . S
H3293 C3304 0.950 . S
H3294 C3306 0.950 . S
H3295 C3307 0.950 . S
C3296 H3288 0.950 . S
C3296 C3297 1.386 . S
C3296 C3298 1.391 . S
C3297 C3296 1.386 . S
C3297 C3301 1.393 . S
C3298 H3290 0.950 . S
C3298 C3296 1.391 . S
C3298 C3299 1.400 . S
C3299 C3298 1.400 . S
C3299 C3300 1.398 . S
C3299 C3305 1.491 . S
C3300 H3291 0.950 . S
C3300 C3299 1.398 . S
C3300 C3301 1.391 . S
C3301 H3289 0.950 . S
C3301 C3297 1.393 . S
C3301 C3300 1.391 . S
C3302 H3292 0.950 . S
C3302 C3303 1.386 . S
C3302 C3304 1.391 . S
C3303 C3302 1.386 . S
C3303 C3307 1.393 . S
C3304 H3293 0.950 . S
C3304 C3302 1.391 . S
C3304 C3305 1.400 . S
C3305 C3299 1.491 . S
C3305 C3304 1.400 . S
C3305 C3306 1.398 . S
C3306 H3294 0.950 . S
C3306 C3305 1.398 . S
C3306 C3307 1.391 . S
C3307 H3295 0.950 . S
C3307 C3303 1.393 . S
C3307 C3306 1.391 . S
H3308 C3316 0.950 . S
H3309 C3321 0.950 . S
H3310 C3318 0.950 . S
H3311 C3320 0.950 . S
H3312 C3322 0.950 . S
H3313 C3324 0.950 . S
H3314 C3326 0.950 . S
H3315 C3327 0.950 . S
C3316 H3308 0.950 . S
C3316 C3317 1.386 . S
C3316 C3318 1.391 . S
C3317 C3316 1.386 . S
C3317 C3321 1.393 . S
C3318 H3310 0.950 . S
C3318 C3316 1.391 . S
C3318 C3319 1.400 . S
C3319 C3318 1.400 . S
C3319 C3320 1.398 . S
C3319 C3325 1.491 . S
C3320 H3311 0.950 . S
C3320 C3319 1.398 . S
C3320 C3321 1.391 . S
C3321 H3309 0.950 . S
C3321 C3317 1.393 . S
C3321 C3320 1.391 . S
C3322 H3312 0.950 . S
C3322 C3323 1.386 . S
C3322 C3324 1.391 . S
C3323 C3322 1.386 . S
C3323 C3327 1.393 . S
C3324 H3313 0.950 . S
C3324 C3322 1.391 . S
C3324 C3325 1.400 . S
C3325 C3319 1.491 . S
C3325 C3324 1.400 . S
C3325 C3326 1.398 . S
C3326 H3314 0.950 . S
C3326 C3325 1.398 . S
C3326 C3327 1.391 . S
C3327 H3315 0.950 . S
C3327 C3323 1.393 . S
C3327 C3326 1.391 . S
C1097 C90 1.650 . S
C1103 C15 1.650 . S
C1117 C56 1.634 . S
C1123 C124 1.633 . S
C1137 C158 1.620 . S
C1143 C226 1.620 . S
C1157 C192 1.637 . S
C1163 C260 1.637 . S
C1177 C294 1.619 . S
C1183 C362 1.619 . S
C1197 C328 1.626 . S
C1203 C396 1.626 . S
C1217 C430 1.622 . S
C1223 C491 1.622 . S
C1237 C464 1.644 . S
C1243 C532 1.643 . S
C1257 C566 1.635 . S
C1263 C634 1.635 . S
C1277 C668 1.654 . S
C1283 C600 1.654 . S
C1297 C770 1.631 . S
C1303 C702 1.631 . S
C1317 C729 1.655 . S
C1323 C804 1.655 . S
C1337 C906 1.652 . S
C1343 C838 1.652 . S
C1357 C940 1.628 . S
C1363 C872 1.628 . S
C1377 C1042 1.641 . S
C1383 C967 1.641 . S
C1397 C1008 1.625 . S
C1403 C1076 1.625 . S
C1417 C683 1.972 . S
C1423 C1 1.973 . S
C1437 C37 1.972 . S
C1443 C445 1.972 . S
C1457 C1023 1.994 . S
C1463 C71 1.994 . S
C1477 C105 1.988 . S
C1483 C241 1.987 . S
C1497 C139 1.995 . S
C1503 C547 1.995 . S
C1517 C173 1.998 . S
C1523 C309 1.998 . S
C1537 C207 1.984 . S
C1543 C887 1.984 . S
C1557 C953 1.980 . S
C1563 C275 1.980 . S
C1577 C343 1.976 . S
C1583 C751 1.976 . S
C1597 C377 1.977 . S
C1603 C513 1.977 . S
C1617 C819 1.999 . S
C1623 C411 1.999 . S
C1637 C477 1.999 . S
C1643 C615 1.999 . S
C1657 C581 1.999 . S
C1663 C989 1.999 . S
C1677 C649 1.974 . S
C1683 C785 1.973 . S
C1697 C715 1.991 . S
C1703 C853 1.991 . S
C1717 C1057 1.977 . S
C1723 C921 1.977 . S
C1737 C681 1.581 . S
C1743 C3 1.582 . S
C1757 C35 1.597 . S
C1763 C443 1.597 . S
C1777 C1021 1.580 . S
C1783 C69 1.580 . S
C1797 C103 1.582 . S
C1803 C239 1.581 . S
C1817 C545 1.578 . S
C1823 C137 1.585 . S
C1837 C307 1.595 . S
C1843 C171 1.595 . S
C1857 C205 1.575 . S
C1863 C885 1.575 . S
C1877 C273 1.565 . S
C1883 C955 1.565 . S
C1897 C749 1.581 . S
C1903 C341 1.581 . S
C1917 C511 1.577 . S
C1923 C375 1.577 . S
C1937 C817 1.597 . S
C1943 C409 1.597 . S
C1957 C613 1.589 . S
C1963 C479 1.589 . S
C1977 C579 1.582 . S
C1983 C987 1.582 . S
C1997 C783 1.580 . S
C2003 C647 1.581 . S
C2017 C851 1.568 . S
C2023 C717 1.568 . S
C2037 C919 1.564 . S
C2043 C1055 1.564 . S
C2057 C6 1.446 . S
C2063 C28 1.456 . S
C2077 C40 1.455 . S
C2083 C62 1.441 . S
C2097 C74 1.455 . S
C2103 C96 1.442 1_554 S
C2117 C108 1.455 . S
C2123 C130 1.447 1_554 S
C2137 C142 1.454 . S
C2143 C164 1.444 . S
C2157 C176 1.456 . S
C2163 C198 1.446 . S
C2177 C232 1.443 . S
C2183 C210 1.454 . S
C2197 C266 1.445 . S
C2203 C244 1.456 . S
C2217 C278 1.456 . S
C2223 C300 1.451 . S
C2237 C334 1.447 . S
C2243 C312 1.455 . S
C2257 C368 1.448 . S
C2263 C346 1.456 1_556 S
C2277 C402 1.447 . S
C2283 C380 1.456 1_556 S
C2297 C414 1.456 . S
C2303 C436 1.445 . S
C2317 C448 1.455 . S
C2323 C470 1.441 . S
C2337 C482 1.445 . S
C2343 C504 1.455 . S
C2357 C516 1.454 . S
C2363 C538 1.441 . S
C2377 C572 1.447 . S
C2383 C550 1.455 . S
C2397 C584 1.456 . S
C2403 C606 1.449 . S
C2417 C640 1.442 . S
C2423 C618 1.455 1_556 S
C2437 C652 1.455 1_556 S
C2443 C674 1.443 . S
C2457 C708 1.443 . S
C2463 C686 1.454 . S
C2477 C720 1.451 . S
C2483 C742 1.456 . S
C2497 C776 1.439 . S
C2503 C754 1.454 . S
C2517 C810 1.442 . S
C2523 C788 1.455 . S
C2537 C822 1.455 . S
C2543 C844 1.446 . S
C2557 C856 1.456 . S
C2563 C878 1.443 . S
C2577 C912 1.448 1_554 S
C2583 C890 1.455 . S
C2597 C946 1.450 1_554 S
C2603 C924 1.455 . S
C2617 C980 1.454 . S
C2623 C958 1.441 . S
C2637 C1014 1.448 . S
C2643 C992 1.455 . S
C2657 C1026 1.456 . S
C2663 C1048 1.450 . S
C2677 C1082 1.443 . S
C2683 C1060 1.454 . S
C2697 C22 1.505 . S
C2703 C355 1.507 . S
C2717 C49 1.534 . S
C2723 C389 1.533 . S
C2737 C287 1.514 . S
C2743 C83 1.511 . S
C2757 C117 1.515 . S
C2763 C321 1.512 . S
C2777 C498 1.535 . S
C2783 C151 1.534 . S
C2797 C185 1.506 . S
C2803 C525 1.509 . S
C2817 C219 1.510 . S
C2823 C423 1.513 . S
C2837 C457 1.504 . S
C2843 C253 1.503 . S
C2857 C559 1.522 . S
C2863 C899 1.525 . S
C2877 C933 1.509 . S
C2883 C593 1.507 . S
C2897 C831 1.527 . S
C2903 C627 1.524 . S
C2917 C661 1.514 . S
C2923 C865 1.517 . S
C2937 C695 1.531 . S
C2943 C1035 1.528 . S
C2957 C1069 1.532 . S
C2963 C736 1.533 . S
C2977 C974 1.523 . S
C2983 C763 1.527 . S
C2997 C797 1.535 . S
C3003 C1001 1.534 . S
C3017 C17 1.647 . S
C3023 C119 1.647 . S
C3037 C85 1.648 . S
C3043 C51 1.647 . S
C3057 C153 1.643 . S
C3063 C255 1.644 . S
C3077 C187 1.646 . S
C3083 C221 1.645 . S
C3097 C289 1.650 . S
C3103 C391 1.649 . S
C3117 C357 1.655 . S
C3123 C323 1.655 . S
C3137 C527 1.654 . S
C3143 C425 1.654 1_556 S
C3157 C493 1.642 . S
C3163 C459 1.642 1_556 S
C3177 C561 1.654 . S
C3183 C663 1.655 . S
C3197 C595 1.644 . S
C3203 C629 1.643 . S
C3217 C799 1.654 . S
C3223 C697 1.653 1_556 S
C3237 C765 1.654 . S
C3243 C731 1.654 1_556 S
C3257 C833 1.655 . S
C3263 C935 1.655 . S
C3277 C867 1.650 . S
C3283 C901 1.650 . S
C3297 C1071 1.655 . S
C3303 C969 1.655 . S
C3317 C1003 1.644 . S
C3323 C1037 1.644 . S
