# Generated by pormake.
# Topology uoh, (4)-cn, num edge types: 1
# Building blocks:
#     Node 0, Type 0, BuildingBlock: AZAVOO_clean_sbu_0, # of connection points: 4
#     Node 1, Type 0, BuildingBlock: AZAVOO_clean_sbu_0, # of connection points: 4
#     Node 2, Type 0, BuildingBlock: AZAVOO_clean_sbu_0, # of connection points: 4
#     Node 3, Type 0, BuildingBlock: AZAVOO_clean_sbu_0, # of connection points: 4
#     Node 4, Type 0, BuildingBlock: AZAVOO_clean_sbu_0, # of connection points: 4
#     Node 5, Type 0, BuildingBlock: AZAVOO_clean_sbu_0, # of connection points: 4
#     Node 6, Type 0, BuildingBlock: AZAVOO_clean_sbu_0, # of connection points: 4
#     Node 7, Type 0, BuildingBlock: AZAVOO_clean_sbu_0, # of connection points: 4
#     Node 8, Type 0, BuildingBlock: AZAVOO_clean_sbu_0, # of connection points: 4
#     Node 9, Type 0, BuildingBlock: AZAVOO_clean_sbu_0, # of connection points: 4
#     Node 10, Type 0, BuildingBlock: AZAVOO_clean_sbu_0, # of connection points: 4
#     Node 11, Type 0, BuildingBlock: AZAVOO_clean_sbu_0, # of connection points: 4
#     Node 12, Type 0, BuildingBlock: AZAVOO_clean_sbu_0, # of connection points: 4
#     Node 13, Type 0, BuildingBlock: AZAVOO_clean_sbu_0, # of connection points: 4
#     Node 14, Type 0, BuildingBlock: AZAVOO_clean_sbu_0, # of connection points: 4
#     Node 15, Type 0, BuildingBlock: AZAVOO_clean_sbu_0, # of connection points: 4
#     Node 16, Type 0, BuildingBlock: AZAVOO_clean_sbu_0, # of connection points: 4
#     Node 17, Type 0, BuildingBlock: AZAVOO_clean_sbu_0, # of connection points: 4
#     Node 18, Type 0, BuildingBlock: AZAVOO_clean_sbu_0, # of connection points: 4
#     Node 19, Type 0, BuildingBlock: AZAVOO_clean_sbu_0, # of connection points: 4
#     Node 20, Type 0, BuildingBlock: AZAVOO_clean_sbu_0, # of connection points: 4
#     Node 21, Type 0, BuildingBlock: AZAVOO_clean_sbu_0, # of connection points: 4
#     Node 22, Type 0, BuildingBlock: AZAVOO_clean_sbu_0, # of connection points: 4
#     Node 23, Type 0, BuildingBlock: AZAVOO_clean_sbu_0, # of connection points: 4
#     Node 24, Type 0, BuildingBlock: AZAVOO_clean_sbu_0, # of connection points: 4
#     Node 25, Type 0, BuildingBlock: AZAVOO_clean_sbu_0, # of connection points: 4
#     Node 26, Type 0, BuildingBlock: AZAVOO_clean_sbu_0, # of connection points: 4
#     Node 27, Type 0, BuildingBlock: AZAVOO_clean_sbu_0, # of connection points: 4
#     Node 28, Type 0, BuildingBlock: AZAVOO_clean_sbu_0, # of connection points: 4
#     Node 29, Type 0, BuildingBlock: AZAVOO_clean_sbu_0, # of connection points: 4
#     Node 30, Type 0, BuildingBlock: AZAVOO_clean_sbu_0, # of connection points: 4
#     Node 31, Type 0, BuildingBlock: AZAVOO_clean_sbu_0, # of connection points: 4
#     Node 32, Type 0, BuildingBlock: AZAVOO_clean_sbu_0, # of connection points: 4
#     Node 33, Type 0, BuildingBlock: AZAVOO_clean_sbu_0, # of connection points: 4
#     Node 34, Type 0, BuildingBlock: AZAVOO_clean_sbu_0, # of connection points: 4
#     Node 35, Type 0, BuildingBlock: AZAVOO_clean_sbu_0, # of connection points: 4
#     Edge 36, Type (0, 0), BuildingBlock: CIFDUS_clean_linker_0, # of connection points: 2
#     Edge 37, Type (0, 0), BuildingBlock: CIFDUS_clean_linker_0, # of connection points: 2
#     Edge 38, Type (0, 0), BuildingBlock: CIFDUS_clean_linker_0, # of connection points: 2
#     Edge 39, Type (0, 0), BuildingBlock: CIFDUS_clean_linker_0, # of connection points: 2
#     Edge 40, Type (0, 0), BuildingBlock: CIFDUS_clean_linker_0, # of connection points: 2
#     Edge 41, Type (0, 0), BuildingBlock: CIFDUS_clean_linker_0, # of connection points: 2
#     Edge 42, Type (0, 0), BuildingBlock: CIFDUS_clean_linker_0, # of connection points: 2
#     Edge 43, Type (0, 0), BuildingBlock: CIFDUS_clean_linker_0, # of connection points: 2
#     Edge 44, Type (0, 0), BuildingBlock: CIFDUS_clean_linker_0, # of connection points: 2
#     Edge 45, Type (0, 0), BuildingBlock: CIFDUS_clean_linker_0, # of connection points: 2
#     Edge 46, Type (0, 0), BuildingBlock: CIFDUS_clean_linker_0, # of connection points: 2
#     Edge 47, Type (0, 0), BuildingBlock: CIFDUS_clean_linker_0, # of connection points: 2
#     Edge 48, Type (0, 0), BuildingBlock: CIFDUS_clean_linker_0, # of connection points: 2
#     Edge 49, Type (0, 0), BuildingBlock: CIFDUS_clean_linker_0, # of connection points: 2
#     Edge 50, Type (0, 0), BuildingBlock: CIFDUS_clean_linker_0, # of connection points: 2
#     Edge 51, Type (0, 0), BuildingBlock: CIFDUS_clean_linker_0, # of connection points: 2
#     Edge 52, Type (0, 0), BuildingBlock: CIFDUS_clean_linker_0, # of connection points: 2
#     Edge 53, Type (0, 0), BuildingBlock: CIFDUS_clean_linker_0, # of connection points: 2
#     Edge 54, Type (0, 0), BuildingBlock: CIFDUS_clean_linker_0, # of connection points: 2
#     Edge 55, Type (0, 0), BuildingBlock: CIFDUS_clean_linker_0, # of connection points: 2
#     Edge 56, Type (0, 0), BuildingBlock: CIFDUS_clean_linker_0, # of connection points: 2
#     Edge 57, Type (0, 0), BuildingBlock: CIFDUS_clean_linker_0, # of connection points: 2
#     Edge 58, Type (0, 0), BuildingBlock: CIFDUS_clean_linker_0, # of connection points: 2
#     Edge 59, Type (0, 0), BuildingBlock: CIFDUS_clean_linker_0, # of connection points: 2
#     Edge 60, Type (0, 0), BuildingBlock: CIFDUS_clean_linker_0, # of connection points: 2
#     Edge 61, Type (0, 0), BuildingBlock: CIFDUS_clean_linker_0, # of connection points: 2
#     Edge 62, Type (0, 0), BuildingBlock: CIFDUS_clean_linker_0, # of connection points: 2
#     Edge 63, Type (0, 0), BuildingBlock: CIFDUS_clean_linker_0, # of connection points: 2
#     Edge 64, Type (0, 0), BuildingBlock: CIFDUS_clean_linker_0, # of connection points: 2
#     Edge 65, Type (0, 0), BuildingBlock: CIFDUS_clean_linker_0, # of connection points: 2
#     Edge 66, Type (0, 0), BuildingBlock: CIFDUS_clean_linker_0, # of connection points: 2
#     Edge 67, Type (0, 0), BuildingBlock: CIFDUS_clean_linker_0, # of connection points: 2
#     Edge 68, Type (0, 0), BuildingBlock: CIFDUS_clean_linker_0, # of connection points: 2
#     Edge 69, Type (0, 0), BuildingBlock: CIFDUS_clean_linker_0, # of connection points: 2
#     Edge 70, Type (0, 0), BuildingBlock: CIFDUS_clean_linker_0, # of connection points: 2
#     Edge 71, Type (0, 0), BuildingBlock: CIFDUS_clean_linker_0, # of connection points: 2
#     Edge 72, Type (0, 0), BuildingBlock: CIFDUS_clean_linker_0, # of connection points: 2
#     Edge 73, Type (0, 0), BuildingBlock: CIFDUS_clean_linker_0, # of connection points: 2
#     Edge 74, Type (0, 0), BuildingBlock: CIFDUS_clean_linker_0, # of connection points: 2
#     Edge 75, Type (0, 0), BuildingBlock: CIFDUS_clean_linker_0, # of connection points: 2
#     Edge 76, Type (0, 0), BuildingBlock: CIFDUS_clean_linker_0, # of connection points: 2
#     Edge 77, Type (0, 0), BuildingBlock: CIFDUS_clean_linker_0, # of connection points: 2
#     Edge 78, Type (0, 0), BuildingBlock: CIFDUS_clean_linker_0, # of connection points: 2
#     Edge 79, Type (0, 0), BuildingBlock: CIFDUS_clean_linker_0, # of connection points: 2
#     Edge 80, Type (0, 0), BuildingBlock: CIFDUS_clean_linker_0, # of connection points: 2
#     Edge 81, Type (0, 0), BuildingBlock: CIFDUS_clean_linker_0, # of connection points: 2
#     Edge 82, Type (0, 0), BuildingBlock: CIFDUS_clean_linker_0, # of connection points: 2
#     Edge 83, Type (0, 0), BuildingBlock: CIFDUS_clean_linker_0, # of connection points: 2
#     Edge 84, Type (0, 0), BuildingBlock: CIFDUS_clean_linker_0, # of connection points: 2
#     Edge 85, Type (0, 0), BuildingBlock: CIFDUS_clean_linker_0, # of connection points: 2
#     Edge 86, Type (0, 0), BuildingBlock: CIFDUS_clean_linker_0, # of connection points: 2
#     Edge 87, Type (0, 0), BuildingBlock: CIFDUS_clean_linker_0, # of connection points: 2
#     Edge 88, Type (0, 0), BuildingBlock: CIFDUS_clean_linker_0, # of connection points: 2
#     Edge 89, Type (0, 0), BuildingBlock: CIFDUS_clean_linker_0, # of connection points: 2
#     Edge 90, Type (0, 0), BuildingBlock: CIFDUS_clean_linker_0, # of connection points: 2
#     Edge 91, Type (0, 0), BuildingBlock: CIFDUS_clean_linker_0, # of connection points: 2
#     Edge 92, Type (0, 0), BuildingBlock: CIFDUS_clean_linker_0, # of connection points: 2
#     Edge 93, Type (0, 0), BuildingBlock: CIFDUS_clean_linker_0, # of connection points: 2
#     Edge 94, Type (0, 0), BuildingBlock: CIFDUS_clean_linker_0, # of connection points: 2
#     Edge 95, Type (0, 0), BuildingBlock: CIFDUS_clean_linker_0, # of connection points: 2
#     Edge 96, Type (0, 0), BuildingBlock: CIFDUS_clean_linker_0, # of connection points: 2
#     Edge 97, Type (0, 0), BuildingBlock: CIFDUS_clean_linker_0, # of connection points: 2
#     Edge 98, Type (0, 0), BuildingBlock: CIFDUS_clean_linker_0, # of connection points: 2
#     Edge 99, Type (0, 0), BuildingBlock: CIFDUS_clean_linker_0, # of connection points: 2
#     Edge 100, Type (0, 0), BuildingBlock: CIFDUS_clean_linker_0, # of connection points: 2
#     Edge 101, Type (0, 0), BuildingBlock: CIFDUS_clean_linker_0, # of connection points: 2
#     Edge 102, Type (0, 0), BuildingBlock: CIFDUS_clean_linker_0, # of connection points: 2
#     Edge 103, Type (0, 0), BuildingBlock: CIFDUS_clean_linker_0, # of connection points: 2
#     Edge 104, Type (0, 0), BuildingBlock: CIFDUS_clean_linker_0, # of connection points: 2
#     Edge 105, Type (0, 0), BuildingBlock: CIFDUS_clean_linker_0, # of connection points: 2
#     Edge 106, Type (0, 0), BuildingBlock: CIFDUS_clean_linker_0, # of connection points: 2
#     Edge 107, Type (0, 0), BuildingBlock: CIFDUS_clean_linker_0, # of connection points: 2
# Relax obj value: 0.294
# Max RMSD: 0.305
# Mean RMSD: 0.305
data_MOF--net-uoh--node1-AZAVOO_clean_sbu_0--edge1-CIFDUS_clean_linker_0
_symmetry_space_group_name_H-M    P1
_symmetry_Int_Tables_number       1
_symmetry_cell_setting            triclinic
loop_
_symmetry_equiv_pos_as_xyz
'x, y, z'
_cell_length_a     75.170335
_cell_length_b     75.116422
_cell_length_c     23.976459
_cell_angle_alpha  90.117084
_cell_angle_beta   89.887517
_cell_angle_gamma 119.94194
loop_
_atom_site_label
_atom_site_type_symbol
_atom_site_fract_x
_atom_site_fract_y
_atom_site_fract_z
_atom_type_partial_charge
Mg0 Mg 0.24898 0.16844 0.28635 0.0
O1 O 0.28044 0.17549 0.25626 0.0
O2 O 0.30477 0.19733 0.31358 0.0
Mg3 Mg 0.28782 0.20207 0.38742 0.0
C4 C 0.29924 0.18642 0.26932 0.0
C5 C 0.24324 0.14353 0.18201 0.0
O6 O 0.25161 0.13676 0.2181 0.0
O7 O 0.25568 0.2007 0.26395 0.0
O8 O 0.2757 0.21926 0.33499 0.0
O9 O 0.24487 0.14155 0.33783 0.0
O10 O 0.25877 0.17334 0.36898 0.0
C11 C 0.26494 0.21742 0.29188 0.0
C12 C 0.25323 0.15445 0.37853 0.0
O13 O 0.23803 0.15639 0.19838 0.0
Mg14 Mg 0.83697 0.08529 0.26915 0.0
O15 O 0.83091 0.11115 0.24893 0.0
O16 O 0.81083 0.11326 0.31377 0.0
Mg17 Mg 0.80638 0.08948 0.38112 0.0
C18 C 0.82082 0.11926 0.26803 0.0
C19 C 0.83915 0.07604 0.13888 0.0
O20 O 0.82278 0.05797 0.14669 0.0
O21 O 0.80414 0.06218 0.24727 0.0
O22 O 0.78641 0.06233 0.32225 0.0
O23 O 0.86516 0.10668 0.31553 0.0
O24 O 0.83436 0.08896 0.35394 0.0
C25 C 0.78746 0.055 0.27496 0.0
C26 C 0.85357 0.10233 0.35925 0.0
O27 O 0.8475 0.08809 0.17989 0.0
Mg28 Mg 0.92464 0.7679 0.21368 0.0
O29 O 0.89598 0.73816 0.18941 0.0
O30 O 0.88673 0.71621 0.26048 0.0
Mg31 Mg 0.90869 0.73323 0.33309 0.0
C32 C 0.88411 0.72063 0.21088 0.0
C33 C 0.92463 0.78859 0.10346 0.0
O34 O 0.91933 0.79836 0.13934 0.0
O35 O 0.94377 0.75235 0.20837 0.0
O36 O 0.93639 0.73439 0.28766 0.0
O37 O 0.90517 0.78048 0.24528 0.0
O38 O 0.91568 0.76322 0.29706 0.0
C39 C 0.94675 0.74113 0.24262 0.0
C40 C 0.90493 0.77219 0.29274 0.0
O41 O 0.92949 0.77575 0.12158 0.0
Mg42 Mg 0.14394 0.23845 0.26178 0.0
O43 O 0.14942 0.26991 0.28626 0.0
O44 O 0.16386 0.29192 0.21607 0.0
Mg45 Mg 0.16349 0.27256 0.14059 0.0
C46 C 0.15729 0.28795 0.26623 0.0
C47 C 0.13643 0.21575 0.38251 0.0
O48 O 0.13267 0.19885 0.35625 0.0
O49 O 0.17846 0.25023 0.26091 0.0
O50 O 0.18807 0.26677 0.17901 0.0
O51 O 0.11188 0.22863 0.23234 0.0
O52 O 0.13971 0.24381 0.17963 0.0
C53 C 0.19179 0.25939 0.22249 0.0
C54 C 0.12026 0.2364 0.18468 0.0
O55 O 0.14122 0.23193 0.35483 0.0
Mg56 Mg 0.74714 0.90614 0.23641 0.0
O57 O 0.71391 0.88197 0.24653 0.0
O58 O 0.6946 0.88097 0.17545 0.0
Mg59 Mg 0.71787 0.90553 0.11477 0.0
C60 C 0.69656 0.8745 0.22293 0.0
C61 C 0.74455 0.88203 0.33756 0.0
O62 O 0.73817 0.86889 0.29598 0.0
O63 O 0.73878 0.93056 0.25526 0.0
O64 O 0.72372 0.93177 0.17589 0.0
O65 O 0.75389 0.88421 0.19275 0.0
O66 O 0.74479 0.90456 0.14987 0.0
C67 C 0.73065 0.93851 0.22477 0.0
C68 C 0.7497 0.89041 0.14696 0.0
O69 O 0.75074 0.90084 0.32749 0.0
Mg70 Mg 0.08971 0.83876 0.27883 0.0
O71 O 0.11684 0.83432 0.28753 0.0
O72 O 0.12206 0.81997 0.2131 0.0
Mg73 Mg 0.09725 0.81738 0.15103 0.0
C74 C 0.12691 0.82735 0.26226 0.0
C75 C 0.08084 0.8436 0.40882 0.0
O76 O 0.06285 0.84114 0.3949 0.0
O77 O 0.06774 0.80456 0.28697 0.0
O78 O 0.07034 0.79283 0.20329 0.0
O79 O 0.11011 0.86986 0.2443 0.0
O80 O 0.09307 0.84164 0.19291 0.0
C81 C 0.06181 0.79009 0.25117 0.0
C82 C 0.1056 0.86114 0.19573 0.0
O83 O 0.09262 0.84317 0.37165 0.0
Mg84 Mg 0.75806 0.84158 0.74244 0.0
O85 O 0.72818 0.83908 0.76991 0.0
O86 O 0.70322 0.82046 0.70967 0.0
Mg87 Mg 0.7186 0.81255 0.63795 0.0
C88 C 0.70955 0.83088 0.75467 0.0
C89 C 0.77631 0.87139 0.83997 0.0
O90 O 0.78132 0.88396 0.79739 0.0
O91 O 0.74634 0.80812 0.76426 0.0
O92 O 0.72567 0.79161 0.69213 0.0
O93 O 0.76575 0.87 0.69461 0.0
O94 O 0.74925 0.83861 0.65957 0.0
C95 C 0.73515 0.79173 0.73644 0.0
C96 C 0.75633 0.85799 0.65302 0.0
O97 O 0.76865 0.8523 0.83068 0.0
Mg98 Mg 0.1445 0.91345 0.78487 0.0
O99 O 0.14854 0.88584 0.80106 0.0
O100 O 0.16308 0.8805 0.72653 0.0
Mg101 Mg 0.16582 0.90355 0.65928 0.0
C102 C 0.15585 0.87592 0.77599 0.0
C103 C 0.12203 0.90957 0.8942 0.0
O104 O 0.10812 0.90689 0.85694 0.0
O105 O 0.1789 0.93485 0.7917 0.0
O106 O 0.19055 0.93101 0.70914 0.0
O107 O 0.11295 0.89287 0.7524 0.0
O108 O 0.14108 0.90656 0.70044 0.0
C109 C 0.19337 0.93995 0.75635 0.0
C110 C 0.12155 0.89434 0.70457 0.0
O111 O 0.14001 0.91468 0.87778 0.0
Mg112 Mg 0.08171 0.23064 0.76658 0.0
O113 O 0.10805 0.26198 0.78946 0.0
O114 O 0.11349 0.28451 0.72213 0.0
Mg115 Mg 0.09169 0.26586 0.65028 0.0
C116 C 0.11756 0.28016 0.77023 0.0
C117 C 0.06704 0.21043 0.89104 0.0
O118 O 0.04982 0.19552 0.87052 0.0
O119 O 0.05954 0.24251 0.77843 0.0
O120 O 0.06346 0.26082 0.70112 0.0
O121 O 0.10328 0.22169 0.72732 0.0
O122 O 0.08874 0.2369 0.68276 0.0
C123 C 0.05435 0.25289 0.74714 0.0
C124 C 0.10133 0.22999 0.68217 0.0
O125 O 0.08047 0.22385 0.85892 0.0
Mg126 Mg 0.85051 0.76498 0.72178 0.0
O127 O 0.8477 0.73385 0.71823 0.0
O128 O 0.8326 0.715 0.7931 0.0
Mg129 Mg 0.82794 0.73702 0.85088 0.0
C130 C 0.84073 0.71716 0.74506 0.0
C131 C 0.85504 0.77301 0.58562 0.0
O132 O 0.8454 0.78355 0.5871 0.0
O133 O 0.81598 0.75066 0.70789 0.0
O134 O 0.80391 0.73694 0.79205 0.0
O135 O 0.88097 0.77804 0.7646 0.0
O136 O 0.85107 0.76545 0.80806 0.0
C137 C 0.80121 0.74169 0.74284 0.0
C138 C 0.8707 0.77393 0.81077 0.0
O139 O 0.85804 0.76586 0.63024 0.0
Mg140 Mg 0.24473 0.08713 0.78386 0.0
O141 O 0.27538 0.11265 0.75386 0.0
O142 O 0.30127 0.11624 0.8064 0.0
Mg143 Mg 0.28555 0.09277 0.87775 0.0
C144 C 0.29444 0.12144 0.7645 0.0
C145 C 0.23724 0.10649 0.68266 0.0
O146 O 0.24498 0.12134 0.71982 0.0
O147 O 0.25288 0.06346 0.75412 0.0
O148 O 0.27463 0.06465 0.81968 0.0
O149 O 0.24032 0.10875 0.839 0.0
O150 O 0.25559 0.09156 0.8655 0.0
C151 C 0.26357 0.05649 0.7764 0.0
C152 C 0.24977 0.10458 0.87745 0.0
O153 O 0.23272 0.08851 0.69772 0.0
Mg154 Mg 0.90807 0.15372 0.76906 0.0
O155 O 0.88174 0.15911 0.75102 0.0
O156 O 0.87917 0.17885 0.81606 0.0
Mg157 Mg 0.90362 0.18393 0.88194 0.0
C158 C 0.87316 0.16868 0.77061 0.0
C159 C 0.91635 0.15209 0.638 0.0
O160 O 0.93439 0.16851 0.64569 0.0
O161 O 0.93091 0.18673 0.74717 0.0
O162 O 0.93056 0.20401 0.82292 0.0
O163 O 0.88718 0.12541 0.81609 0.0
O164 O 0.90483 0.15632 0.85408 0.0
C165 C 0.93805 0.20327 0.77561 0.0
C166 C 0.89163 0.13708 0.85971 0.0
O167 O 0.90465 0.14333 0.67937 0.0
Mg168 Mg 0.92263 0.4993 0.58912 0.0
O169 O 0.95451 0.50473 0.57252 0.0
O170 O 0.97695 0.52626 0.63435 0.0
Mg171 Mg 0.95766 0.53269 0.69759 0.0
C172 C 0.97272 0.51502 0.59092 0.0
C173 C 0.9186 0.47135 0.4939 0.0
O174 O 0.92506 0.46501 0.53618 0.0
O175 O 0.93242 0.53162 0.5595 0.0
O176 O 0.95009 0.5506 0.63315 0.0
O177 O 0.91498 0.47257 0.64444 0.0
O178 O 0.92877 0.50463 0.67388 0.0
C179 C 0.94169 0.54874 0.58555 0.0
C180 C 0.92207 0.48559 0.68522 0.0
O181 O 0.91475 0.48584 0.50171 0.0
Mg182 Mg 0.53087 0.41612 0.5051 0.0
O183 O 0.52948 0.44533 0.49062 0.0
O184 O 0.51902 0.45348 0.56872 0.0
Mg185 Mg 0.51662 0.43071 0.63631 0.0
C186 C 0.52446 0.45679 0.51755 0.0
C187 C 0.5354 0.40218 0.3807 0.0
O188 O 0.54086 0.3898 0.40389 0.0
O189 O 0.496 0.39742 0.50807 0.0
O190 O 0.48858 0.40415 0.59325 0.0
O191 O 0.56398 0.43451 0.53101 0.0
O192 O 0.5374 0.42363 0.58816 0.0
C193 C 0.48318 0.39431 0.54711 0.0
C194 C 0.55692 0.4341 0.58058 0.0
O195 O 0.53086 0.41317 0.41123 0.0
Mg196 Mg 0.56949 0.08433 0.58312 0.0
O197 O 0.54477 0.05177 0.56476 0.0
O198 O 0.54258 0.02996 0.63044 0.0
Mg199 Mg 0.56599 0.05045 0.69741 0.0
C200 C 0.53685 0.03365 0.58393 0.0
C201 C 0.54719 0.08649 0.48343 0.0
O202 O 0.53434 0.08052 0.5256 0.0
O203 O 0.59355 0.0755 0.56218 0.0
O204 O 0.593 0.05783 0.63806 0.0
O205 O 0.54764 0.09064 0.63029 0.0
O206 O 0.56615 0.07861 0.6689 0.0
C207 C 0.60066 0.06616 0.591 0.0
C208 C 0.55243 0.08398 0.67416 0.0
O209 O 0.56564 0.09097 0.49245 0.0
Mg210 Mg 0.82948 0.58443 0.557 0.0
O211 O 0.83709 0.61731 0.56867 0.0
O212 O 0.85513 0.63726 0.49798 0.0
Mg213 Mg 0.85756 0.61516 0.43535 0.0
C214 C 0.84654 0.6348 0.54549 0.0
C215 C 0.80666 0.58518 0.65793 0.0
O216 O 0.79957 0.59085 0.61566 0.0
O217 O 0.86277 0.59414 0.57498 0.0
O218 O 0.87827 0.60959 0.49499 0.0
O219 O 0.80048 0.57638 0.51211 0.0
O220 O 0.83048 0.58775 0.4706 0.0
C221 C 0.87859 0.60265 0.54343 0.0
C222 C 0.81125 0.5819 0.46679 0.0
O223 O 0.82014 0.58001 0.64864 0.0
Mg224 Mg 0.43089 0.25117 0.56723 0.0
O225 O 0.40141 0.22534 0.60306 0.0
O226 O 0.37521 0.21927 0.54787 0.0
Mg227 Mg 0.38916 0.24034 0.4712 0.0
C228 C 0.38234 0.21559 0.59194 0.0
C229 C 0.45314 0.24338 0.66234 0.0
O230 O 0.45741 0.23488 0.62035 0.0
O231 O 0.4212 0.2744 0.58926 0.0
O232 O 0.399 0.27009 0.52135 0.0
O233 O 0.43616 0.22844 0.52057 0.0
O234 O 0.41963 0.24352 0.48704 0.0
C235 C 0.40993 0.27995 0.56346 0.0
C236 C 0.42601 0.23063 0.48021 0.0
O237 O 0.44436 0.25372 0.65256 0.0
Mg238 Mg 0.7483 0.16806 0.56054 0.0
O239 O 0.77414 0.16225 0.58343 0.0
O240 O 0.77687 0.14228 0.51925 0.0
Mg241 Mg 0.75347 0.13731 0.45036 0.0
C242 C 0.78258 0.15237 0.56492 0.0
C243 C 0.75917 0.198 0.65805 0.0
O244 O 0.76551 0.21045 0.61501 0.0
O245 O 0.72479 0.13527 0.58216 0.0
O246 O 0.72567 0.11777 0.50746 0.0
O247 O 0.77018 0.19613 0.51427 0.0
O248 O 0.75284 0.16531 0.47605 0.0
C249 C 0.71776 0.11872 0.55385 0.0
C250 C 0.76629 0.18449 0.47094 0.0
O251 O 0.74958 0.17874 0.6496 0.0
Mg252 Mg 0.41763 0.17931 0.05516 0.0
O253 O 0.38652 0.17609 0.06865 0.0
O254 O 0.36519 0.16183 -0.00229 0.0
Mg255 Mg 0.38565 0.15822 0.93103 0.0
C256 C 0.36904 0.16955 0.04662 0.0
C257 C 0.41955 0.20076 0.16059 0.0
O258 O 0.41682 0.21079 0.11985 0.0
O259 O 0.40424 0.1447 0.06362 0.0
O260 O 0.38876 0.13376 0.98074 0.0
O261 O 0.42968 0.21034 0.01702 0.0
O262 O 0.41538 0.18125 0.96919 0.0
C263 C 0.39516 0.13057 0.02698 0.0
C264 C 0.424 0.20095 0.96965 0.0
O265 O 0.42206 0.18565 0.1486 0.0
Mg266 Mg 0.81397 0.23966 0.06156 0.0
O267 O 0.81979 0.2135 0.07631 0.0
O268 O 0.83771 0.21022 0.00733 0.0
Mg269 Mg 0.84126 0.23461 0.94257 0.0
C270 C 0.82875 0.20465 0.05458 0.0
C271 C 0.81523 0.24782 0.19345 0.0
O272 O 0.83157 0.26584 0.18478 0.0
O273 O 0.84742 0.26234 0.07857 0.0
O274 O 0.86312 0.26131 0.00014 0.0
O275 O 0.78471 0.21847 0.01889 0.0
O276 O 0.81471 0.23664 0.97603 0.0
C277 C 0.86342 0.26894 0.04811 0.0
C278 C 0.79539 0.22342 0.97329 0.0
O279 O 0.80561 0.23626 0.15256 0.0
Mg280 Mg 0.75271 0.57544 0.0629 0.0
O281 O 0.77792 0.60724 0.0864 0.0
O282 O 0.78187 0.63019 0.02195 0.0
Mg283 Mg 0.75891 0.61151 0.95232 0.0
C284 C 0.78677 0.6256 0.06848 0.0
C285 C 0.74467 0.56717 0.19484 0.0
O286 O 0.72874 0.56974 0.18893 0.0
O287 O 0.72849 0.58429 0.08151 0.0
O288 O 0.73068 0.60335 0.0074 0.0
O289 O 0.77535 0.56964 0.01812 0.0
O290 O 0.75773 0.58265 0.97892 0.0
C291 C 0.72193 0.59409 0.05262 0.0
C292 C 0.77143 0.57722 0.97447 0.0
O293 O 0.75474 0.56712 0.15229 0.0
Mg294 Mg 0.49819 0.08692 0.07911 0.0
O295 O 0.49069 0.05488 0.05456 0.0
O296 O 0.47302 0.03247 0.12146 0.0
Mg297 Mg 0.47106 0.05166 0.19408 0.0
C298 C 0.4813 0.03662 0.07319 0.0
C299 C 0.49514 0.09019 0.94667 0.0
O300 O 0.47528 0.08209 0.95424 0.0
O301 O 0.46469 0.07861 0.06803 0.0
O302 O 0.45022 0.06036 0.14551 0.0
O303 O 0.52754 0.09282 0.12014 0.0
O304 O 0.49759 0.08027 0.16271 0.0
C305 C 0.44943 0.06942 0.10133 0.0
C306 C 0.51677 0.08596 0.16532 0.0
O307 O 0.50704 0.09498 0.98843 0.0
Mg308 Mg 0.90216 0.4146 0.08859 0.0
O309 O 0.93347 0.44031 0.06354 0.0
O310 O 0.95775 0.44451 0.12353 0.0
Mg311 Mg 0.94011 0.42115 0.19374 0.0
C312 C 0.95214 0.44939 0.0786 0.0
C313 C 0.89671 0.43379 0.98537 0.0
O314 O 0.90246 0.44802 0.02403 0.0
O315 O 0.91186 0.39151 0.06521 0.0
O316 O 0.93224 0.39352 0.13591 0.0
O317 O 0.89615 0.43642 0.1369 0.0
O318 O 0.91054 0.41945 0.17209 0.0
C319 C 0.92262 0.38527 0.09068 0.0
C320 C 0.90469 0.43278 0.1788 0.0
O321 O 0.89271 0.41588 -0.00044 0.0
Mg322 Mg 0.58083 0.48049 0.01069 0.0
O323 O 0.5526 0.48326 0.99559 0.0
O324 O 0.5451 0.49562 0.07096 0.0
Mg325 Mg 0.5679 0.49805 0.1389 0.0
C326 C 0.54158 0.48925 0.02057 0.0
C327 C 0.59357 0.4751 0.8841 0.0
O328 O 0.60718 0.4708 0.90459 0.0
O329 O 0.60111 0.51519 0.0099 0.0
O330 O 0.59556 0.52454 0.09394 0.0
O331 O 0.5611 0.44801 0.03991 0.0
O332 O 0.57355 0.47548 0.09444 0.0
C333 C 0.60528 0.52873 0.04763 0.0
C334 C 0.56212 0.45594 0.08863 0.0
O335 O 0.58266 0.47903 0.91677 0.0
Mg336 Mg 0.5733 0.83298 0.91985 0.0
O337 O 0.60321 0.83587 0.89057 0.0
O338 O 0.62798 0.85375 0.95203 0.0
Mg339 Mg 0.61261 0.86069 0.02567 0.0
C340 C 0.6218 0.84394 0.90608 0.0
C341 C 0.55085 0.80402 0.82239 0.0
O342 O 0.5443 0.79154 0.86537 0.0
O343 O 0.58468 0.86667 0.90173 0.0
O344 O 0.60516 0.88217 0.9748 0.0
O345 O 0.56553 0.80392 0.96437 0.0
O346 O 0.58206 0.83468 0.00307 0.0
C347 C 0.59559 0.88266 0.93131 0.0
C348 C 0.57472 0.81517 0.00741 0.0
O349 O 0.56195 0.82319 0.83107 0.0
Mg350 Mg 0.16364 0.75239 0.96661 0.0
O351 O 0.15621 0.7776 0.94981 0.0
O352 O 0.13315 0.77584 0.01128 0.0
Mg353 Mg 0.12815 0.75046 0.07388 0.0
C354 C 0.14455 0.78398 0.96863 0.0
C355 C 0.17088 0.74559 0.83847 0.0
O356 O 0.15594 0.72663 0.84589 0.0
O357 O 0.13212 0.72843 0.93608 0.0
O358 O 0.11184 0.72457 0.00893 0.0
O359 O 0.18974 0.77299 0.02192 0.0
O360 O 0.15793 0.75294 0.05128 0.0
C361 C 0.11481 0.71906 0.96093 0.0
C362 C 0.17663 0.76651 0.06259 0.0
O363 O 0.17705 0.75809 0.87925 0.0
Mg364 Mg 0.2425 0.42851 0.9235 0.0
O365 O 0.21503 0.39768 0.90473 0.0
O366 O 0.20549 0.37721 0.97887 0.0
Mg367 Mg 0.22549 0.39797 0.05122 0.0
C368 C 0.20354 0.3804 0.92752 0.0
C369 C 0.25133 0.44628 0.79786 0.0
O370 O 0.25737 0.46449 0.81956 0.0
O371 O 0.26271 0.41408 0.9315 0.0
O372 O 0.25502 0.39993 0.01665 0.0
O373 O 0.22223 0.4416 0.94551 0.0
O374 O 0.23291 0.42643 0.00503 0.0
C375 C 0.26604 0.40529 0.97253 0.0
C376 C 0.22202 0.43492 0.9954 0.0
O377 O 0.24646 0.43108 0.82976 0.0
Mg378 Mg 0.47824 0.89499 0.9342 0.0
O379 O 0.47629 0.92357 0.95153 0.0
O380 O 0.48279 0.9423 0.87448 0.0
Mg381 Mg 0.4848 0.92255 0.80336 0.0
C382 C 0.47879 0.93958 0.92659 0.0
C383 C 0.4743 0.87842 0.05986 0.0
O384 O 0.46407 0.85987 0.03841 0.0
O385 O 0.51281 0.91403 0.92125 0.0
O386 O 0.51543 0.92633 0.83481 0.0
O387 O 0.44433 0.87665 0.91692 0.0
O388 O 0.46819 0.89411 0.85355 0.0
C389 C 0.52343 0.92328 0.87814 0.0
C390 C 0.44908 0.88297 0.86597 0.0
O391 O 0.48198 0.89389 0.0277 0.0
Mg392 Mg 0.09449 0.57739 0.89942 0.0
O393 O 0.06445 0.55009 0.92706 0.0
O394 O 0.03967 0.54488 0.8673 0.0
Mg395 Mg 0.05524 0.56816 0.79582 0.0
C396 C 0.04575 0.5403 0.91192 0.0
C397 C 0.11512 0.56759 0.99531 0.0
O398 O 0.12 0.5601 0.95216 0.0
O399 O 0.08267 0.59876 0.92388 0.0
O400 O 0.06162 0.59541 0.85348 0.0
O401 O 0.10207 0.55681 0.85082 0.0
O402 O 0.08558 0.57172 0.81613 0.0
C403 C 0.07103 0.60398 0.89867 0.0
C404 C 0.09267 0.5594 0.80925 0.0
O405 O 0.1059 0.57764 0.9871 0.0
Mg406 Mg 0.40737 0.504 0.90363 0.0
O407 O 0.43435 0.49905 0.91713 0.0
O408 O 0.43791 0.48112 0.84866 0.0
Mg409 Mg 0.41256 0.47569 0.78581 0.0
C410 C 0.44361 0.49053 0.89523 0.0
C411 C 0.43055 0.53012 -0.0002 0.0
O412 O 0.44219 0.53793 0.95559 0.0
O413 O 0.38518 0.47041 0.92454 0.0
O414 O 0.38681 0.45489 0.84642 0.0
O415 O 0.42672 0.5328 0.8561 0.0
O416 O 0.4099 0.502 0.81768 0.0
C417 C 0.37881 0.45439 0.89394 0.0
C418 C 0.42249 0.52138 0.81232 0.0
O419 O 0.41256 0.51477 0.99382 0.0
Mg420 Mg 0.09669 0.51052 0.3973 0.0
O421 O 0.06544 0.50688 0.40989 0.0
O422 O 0.04469 0.49089 0.33863 0.0
Mg423 Mg 0.06513 0.48626 0.27482 0.0
C424 C 0.04802 0.49936 0.38657 0.0
C425 C 0.10327 0.50842 0.52967 0.0
O426 O 0.10562 0.49247 0.52038 0.0
O427 O 0.08382 0.47637 0.41135 0.0
O428 O 0.06758 0.46268 0.33096 0.0
O429 O 0.10718 0.54074 0.35648 0.0
O430 O 0.0942 0.51103 0.31142 0.0
C431 C 0.07409 0.46099 0.37881 0.0
C432 C 0.10157 0.53061 0.31 0.0
O433 O 0.10084 0.51784 0.48917 0.0
Mg434 Mg 0.4852 0.57443 0.40246 0.0
O435 O 0.49772 0.55306 0.41629 0.0
O436 O 0.51793 0.55407 0.34721 0.0
Mg437 Mg 0.51721 0.57709 0.28456 0.0
C438 C 0.50931 0.54719 0.39433 0.0
C439 C 0.4628 0.54936 0.50078 0.0
O440 O 0.4587 0.53643 0.45935 0.0
O441 O 0.51638 0.60143 0.42331 0.0
O442 O 0.5342 0.60446 0.34541 0.0
O443 O 0.4582 0.55042 0.35759 0.0
O444 O 0.48743 0.57241 0.31654 0.0
C445 C 0.53255 0.61094 0.39349 0.0
C446 C 0.46909 0.55689 0.31268 0.0
O447 O 0.47456 0.56846 0.49216 0.0
Mg448 Mg 0.41433 0.88346 0.43559 0.0
O449 O 0.4424 0.91418 0.45245 0.0
O450 O 0.45122 0.93421 0.3774 0.0
Mg451 Mg 0.43033 0.91331 0.30658 0.0
C452 C 0.45373 0.93129 0.42856 0.0
C453 C 0.40301 0.86756 0.56594 0.0
O454 O 0.39327 0.84821 0.55028 0.0
O455 O 0.39474 0.89858 0.42922 0.0
O456 O 0.4018 0.91274 0.3441 0.0
O457 O 0.43401 0.86985 0.41227 0.0
O458 O 0.42311 0.88499 0.35329 0.0
C459 C 0.3914 0.90777 0.38932 0.0
C460 C 0.43397 0.87642 0.36239 0.0
O461 O 0.41097 0.88167 0.52959 0.0
Mg462 Mg 0.1813 0.43604 0.42434 0.0
O463 O 0.17992 0.40578 0.40481 0.0
O464 O 0.16861 0.3852 0.47896 0.0
Mg465 Mg 0.16744 0.40496 0.5513 0.0
C466 C 0.17445 0.38859 0.4281 0.0
C467 C 0.19426 0.43936 0.30357 0.0
O468 O 0.2082 0.43724 0.33091 0.0
O469 O 0.1466 0.41978 0.42918 0.0
O470 O 0.13935 0.40541 0.51397 0.0
O471 O 0.2145 0.45088 0.44875 0.0
O472 O 0.18833 0.43369 0.50622 0.0
C473 C 0.13396 0.41037 0.46872 0.0
C474 C 0.20785 0.44347 0.49798 0.0
O475 O 0.18045 0.44065 0.33073 0.0
Mg476 Mg 0.56146 0.7597 0.4187 0.0
O477 O 0.5943 0.78445 0.40594 0.0
O478 O 0.61387 0.78619 0.47738 0.0
Mg479 Mg 0.59141 0.76237 0.54083 0.0
C480 C 0.61172 0.79222 0.42942 0.0
C481 C 0.55458 0.75133 0.28663 0.0
O482 O 0.55007 0.73233 0.29639 0.0
O483 O 0.57044 0.73543 0.40335 0.0
O484 O 0.58605 0.73555 0.48295 0.0
O485 O 0.55476 0.78223 0.46058 0.0
O486 O 0.56421 0.76237 0.5047 0.0
C487 C 0.57898 0.72814 0.43469 0.0
C488 C 0.55932 0.77652 0.50678 0.0
O489 O 0.55808 0.76366 0.32688 0.0
Mg490 Mg 0.24754 0.82029 0.47069 0.0
O491 O 0.22351 0.82886 0.44956 0.0
O492 O 0.22152 0.84891 0.51455 0.0
Mg493 Mg 0.24447 0.85187 0.58262 0.0
C494 C 0.21576 0.83932 0.4682 0.0
C495 C 0.22662 0.79805 0.3648 0.0
O496 O 0.21211 0.79061 0.40289 0.0
O497 O 0.2729 0.8527 0.451 0.0
O498 O 0.27251 0.87041 0.52574 0.0
O499 O 0.2244 0.79256 0.51739 0.0
O500 O 0.24354 0.82311 0.55564 0.0
C501 C 0.28055 0.8692 0.47986 0.0
C502 C 0.22924 0.80427 0.56098 0.0
O503 O 0.24496 0.81038 0.37989 0.0
H504 H 0.23228 0.12555 0.92281 0.0
H505 H 0.27316 0.10239 0.96078 0.0
H506 H 0.27475 0.11262 0.05761 0.0
H507 H 0.2632 0.12627 0.1326 0.0
H508 H 0.22219 0.14943 0.09727 0.0
H509 H 0.22181 0.14086 -0.0016 0.0
C510 C 0.24174 0.12299 0.95215 0.0
C511 C 0.25258 0.11319 0.93438 0.0
C512 C 0.24228 0.12857 0.00844 0.0
C513 C 0.26467 0.10989 0.97304 0.0
C514 C 0.2655 0.11563 0.02866 0.0
C515 C 0.25404 0.12935 0.10344 0.0
C516 C 0.24248 0.13818 0.12237 0.0
C517 C 0.25407 0.12459 0.04698 0.0
C518 C 0.23108 0.14246 0.08376 0.0
C519 C 0.23091 0.13762 0.02725 0.0
H520 H 0.86408 0.09729 0.88572 0.0
H521 H 0.89856 0.15807 0.95719 0.0
H522 H 0.88521 0.14434 0.04914 0.0
H523 H 0.86488 0.11532 0.1096 0.0
H524 H 0.83002 0.05421 0.04082 0.0
H525 H 0.84258 0.06787 0.9472 0.0
C526 C 0.86855 0.10752 0.92138 0.0
C527 C 0.88226 0.12869 0.91449 0.0
C528 C 0.86098 0.09948 0.97457 0.0
C529 C 0.88794 0.14176 0.9611 0.0
C530 C 0.88041 0.13391 0.01386 0.0
C531 C 0.86008 0.10488 0.0743 0.0
C532 C 0.84674 0.08373 0.08219 0.0
C533 C 0.86714 0.11281 0.02109 0.0
C534 C 0.8404 0.07054 0.0358 0.0
C535 C 0.84754 0.07835 0.98235 0.0
H536 H 0.89798 0.79844 0.0586 0.0
H537 H 0.94064 0.77811 0.01483 0.0
H538 H 0.92904 0.77347 0.91761 0.0
H539 H 0.90435 0.77233 0.84698 0.0
H540 H 0.85937 0.78899 0.89648 0.0
H541 H 0.87426 0.79797 0.98945 0.0
C542 C 0.90504 0.79337 0.02764 0.0
C543 C 0.92018 0.78872 0.04365 0.0
C544 C 0.89765 0.78983 0.97293 0.0
C545 C 0.92895 0.78182 0.00327 0.0
C546 C 0.92226 0.77908 0.94784 0.0
C547 C 0.89802 0.77809 0.8782 0.0
C548 C 0.8808 0.77994 0.86538 0.0
C549 C 0.90623 0.78255 0.93246 0.0
C550 C 0.87252 0.78726 0.9059 0.0
C551 C 0.88105 0.79247 0.95892 0.0
H552 H 0.14116 0.24781 0.44518 0.0
H553 H 0.12322 0.18365 0.45655 0.0
H554 H 0.11322 0.18313 0.5541 0.0
H555 H 0.10616 0.20015 0.63292 0.0
H556 H 0.12209 0.26356 0.6171 0.0
H557 H 0.13647 0.26522 0.52461 0.0
C558 C 0.13527 0.23371 0.46897 0.0
C559 C 0.13273 0.21572 0.44329 0.0
C560 C 0.1291 0.23341 0.52426 0.0
C561 C 0.12522 0.19768 0.47513 0.0
C562 C 0.11946 0.19737 0.53089 0.0
C563 C 0.11319 0.2144 0.60948 0.0
C564 C 0.113 0.23169 0.63124 0.0
C565 C 0.12085 0.21502 0.55547 0.0
C566 C 0.12187 0.25002 0.60063 0.0
C567 C 0.1301 0.25097 0.54785 0.0
H568 H 0.7589 0.9048 0.43271 0.0
H569 H 0.72861 0.84247 0.37036 0.0
H570 H 0.72855 0.82966 0.46327 0.0
H571 H 0.73866 0.83607 0.5602 0.0
H572 H 0.76904 0.89795 0.62505 0.0
H573 H 0.76745 0.91105 0.53283 0.0
C574 C 0.75223 0.88843 0.43961 0.0
C575 C 0.74402 0.87465 0.39463 0.0
C576 C 0.75228 0.88108 0.49333 0.0
C577 C 0.73528 0.85345 0.40413 0.0
C578 C 0.73517 0.84607 0.45727 0.0
C579 C 0.74468 0.8524 0.55464 0.0
C580 C 0.75392 0.86601 0.59934 0.0
C581 C 0.74385 0.85975 0.50189 0.0
C582 C 0.76183 0.88716 0.59113 0.0
C583 C 0.76097 0.89465 0.53846 0.0
H584 H 0.13329 0.87652 0.62648 0.0
H585 H 0.0826 0.88442 0.67647 0.0
H586 H 0.06418 0.86749 0.59057 0.0
H587 H 0.06429 0.85355 0.49708 0.0
H588 H 0.11558 0.84593 0.44944 0.0
H589 H 0.13195 0.85962 0.53863 0.0
C590 C 0.11827 0.8746 0.61845 0.0
C591 C 0.1095 0.88211 0.65662 0.0
C592 C 0.10791 0.86496 0.56937 0.0
C593 C 0.08966 0.87882 0.64709 0.0
C594 C 0.07919 0.86925 0.59801 0.0
C595 C 0.07889 0.85463 0.5066 0.0
C596 C 0.08884 0.84909 0.46621 0.0
C597 C 0.0884 0.86269 0.55818 0.0
C598 C 0.10769 0.85038 0.47937 0.0
C599 C 0.11713 0.85823 0.53041 0.0
H600 H 0.76315 0.91238 0.05268 0.0
H601 H 0.74395 0.85252 0.12166 0.0
H602 H 0.75165 0.84149 0.03296 0.0
H603 H 0.76371 0.84904 0.93584 0.0
H604 H 0.78486 0.90985 0.86975 0.0
H605 H 0.77704 0.92052 0.958 0.0
C606 C 0.76043 0.89684 0.04796 0.0
C607 C 0.75268 0.88311 0.09286 0.0
C608 C 0.7656 0.89094 -0.00213 0.0
C609 C 0.74973 0.86322 0.08712 0.0
C610 C 0.75424 0.85699 0.03667 0.0
C611 C 0.76685 0.8647 0.94097 0.0
C612 C 0.77475 0.87857 0.89612 0.0
C613 C 0.76228 0.87077 0.99185 0.0
C614 C 0.7788 0.89883 0.90353 0.0
C615 C 0.77418 0.90493 0.95386 0.0
H616 H 0.08173 0.859 0.11124 0.0
H617 H 0.14451 0.89078 0.1673 0.0
H618 H 0.1553 0.91001 0.0791 0.0
H619 H 0.14667 0.91611 0.98418 0.0
H620 H 0.08315 0.88561 0.93264 0.0
H621 H 0.07271 0.86788 0.02177 0.0
C622 C 0.09777 0.87017 0.10394 0.0
C623 C 0.11244 0.87331 0.1445 0.0
C624 C 0.10362 0.88147 0.05443 0.0
C625 C 0.13309 0.8881 0.13591 0.0
C626 C 0.13919 0.89905 0.08574 0.0
C627 C 0.13053 0.90581 0.99286 0.0
C628 C 0.11574 0.90201 0.95163 0.0
C629 C 0.12458 0.89568 0.04445 0.0
C630 C 0.09486 0.88881 0.96358 0.0
C631 C 0.08886 0.87852 0.01439 0.0
H632 H 0.09327 0.24483 0.94617 0.0
H633 H 0.05008 0.18051 0.97182 0.0
H634 H 0.06057 0.18372 0.06992 0.0
H635 H 0.08531 0.20412 0.14462 0.0
H636 H 0.1291 0.26796 0.11517 0.0
H637 H 0.11488 0.26578 0.02238 0.0
C638 C 0.08602 0.2315 0.97324 0.0
C639 C 0.07123 0.21236 0.9516 0.0
C640 C 0.09225 0.23344 0.02889 0.0
C641 C 0.06163 0.19537 0.98749 0.0
C642 C 0.06766 0.19721 0.04348 0.0
C643 C 0.09125 0.21764 0.11833 0.0
C644 C 0.10827 0.23615 0.13611 0.0
C645 C 0.08336 0.21606 0.06422 0.0
C646 C 0.11613 0.25354 0.1018 0.0
C647 C 0.10805 0.25228 0.0488 0.0
H648 H 0.89828 0.75265 0.39177 0.0
H649 H 0.88471 0.79398 0.30108 0.0
H650 H 0.86713 0.79738 0.38301 0.0
H651 H 0.8572 0.78985 0.4825 0.0
H652 H 0.87088 0.74789 0.57027 0.0
H653 H 0.88652 0.74332 0.48707 0.0
C654 C 0.89129 0.76221 0.38944 0.0
C655 C 0.89286 0.77304 0.34039 0.0
C656 C 0.88124 0.76406 0.43639 0.0
C657 C 0.88372 0.78543 0.33842 0.0
C658 C 0.87371 0.78743 0.38529 0.0
C659 C 0.86348 0.77961 0.4832 0.0
C660 C 0.86308 0.76948 0.53288 0.0
C661 C 0.87261 0.77701 0.43484 0.0
C662 C 0.87118 0.75614 0.53296 0.0
C663 C 0.88014 0.75346 0.4853 0.0
H664 H 0.25906 0.14386 0.63588 0.0
H665 H 0.21718 0.08038 0.59527 0.0
H666 H 0.21974 0.08925 0.49602 0.0
H667 H 0.23329 0.11555 0.42128 0.0
H668 H 0.27568 0.17868 0.46496 0.0
H669 H 0.27396 0.16928 0.5623 0.0
C670 C 0.25034 0.13193 0.60548 0.0
C671 C 0.2377 0.11155 0.62296 0.0
C672 C 0.25226 0.13704 0.54887 0.0
C673 C 0.22687 0.09624 0.58283 0.0
C674 C 0.22842 0.10129 0.52612 0.0
C675 C 0.2424 0.12716 0.45202 0.0
C676 C 0.25456 0.14782 0.43564 0.0
C677 C 0.24107 0.12169 0.50864 0.0
C678 C 0.26617 0.1627 0.47609 0.0
C679 C 0.2651 0.15737 0.53203 0.0
H680 H 0.87667 0.12794 0.6095 0.0
H681 H 0.93763 0.16107 0.53925 0.0
H682 H 0.92338 0.14946 0.44565 0.0
H683 H 0.89356 0.12903 0.38468 0.0
H684 H 0.83286 0.09623 0.45709 0.0
H685 H 0.84713 0.10894 0.54917 0.0
C686 C 0.88692 0.13255 0.57384 0.0
C687 C 0.90821 0.14509 0.58131 0.0
C688 C 0.87865 0.12604 0.52059 0.0
C689 C 0.92119 0.15128 0.53452 0.0
C690 C 0.91305 0.14468 0.48109 0.0
C691 C 0.88344 0.12481 0.42055 0.0
C692 C 0.86216 0.11167 0.41395 0.0
C693 C 0.89179 0.13197 0.47371 0.0
C694 C 0.84927 0.10634 0.46084 0.0
C695 C 0.85742 0.11351 0.51364 0.0
H696 H 0.91819 0.42496 0.27492 0.0
H697 H 0.89682 0.46373 0.20436 0.0
H698 H 0.89927 0.47928 0.29587 0.0
H699 H 0.9067 0.48113 0.39654 0.0
H700 H 0.9277 0.44177 0.46561 0.0
H701 H 0.92615 0.4272 0.3739 0.0
C702 C 0.91425 0.43695 0.2793 0.0
C703 C 0.90739 0.44322 0.23292 0.0
C704 C 0.91548 0.44562 0.33188 0.0
C705 C 0.90217 0.45865 0.2395 0.0
C706 C 0.90352 0.4675 0.2918 0.0
C707 C 0.91089 0.46934 0.39148 0.0
C708 C 0.91717 0.46247 0.43796 0.0
C709 C 0.90998 0.46096 0.33842 0.0
C710 C 0.92268 0.44727 0.43068 0.0
C711 C 0.92186 0.43894 0.37819 0.0
H712 H 0.56231 0.42252 0.12959 0.0
H713 H 0.53681 0.46209 0.15552 0.0
H714 H 0.52352 0.44641 0.24644 0.0
H715 H 0.52342 0.42516 0.32279 0.0
H716 H 0.5513 0.38737 0.30168 0.0
H717 H 0.55908 0.3983 0.20423 0.0
C718 C 0.55335 0.42722 0.15473 0.0
C719 C 0.55054 0.44341 0.13656 0.0
C720 C 0.54646 0.41867 0.20793 0.0
C721 C 0.53923 0.44973 0.1693 0.0
C722 C 0.53168 0.44081 0.22118 0.0
C723 C 0.53098 0.41906 0.29682 0.0
C724 C 0.53711 0.40576 0.31977 0.0
C725 C 0.53591 0.42586 0.24172 0.0
C726 C 0.54658 0.39778 0.28518 0.0
C727 C 0.5511 0.40408 0.22951 0.0
H728 H 0.56749 0.09348 0.38325 0.0
H729 H 0.50901 0.07838 0.45651 0.0
H730 H 0.49454 0.07577 0.36474 0.0
H731 H 0.49814 0.07801 0.26488 0.0
H732 H 0.55609 0.09394 0.18759 0.0
H733 H 0.57108 0.09582 0.2799 0.0
C734 C 0.55164 0.08973 0.37897 0.0
C735 C 0.53939 0.08617 0.42679 0.0
C736 C 0.54325 0.08823 0.32554 0.0
C737 C 0.51883 0.08123 0.4206 0.0
C738 C 0.51047 0.07966 0.36806 0.0
C739 C 0.51401 0.08167 0.26782 0.0
C740 C 0.52593 0.08566 0.21945 0.0
C741 C 0.52249 0.08308 0.32043 0.0
C742 C 0.54655 0.09068 0.22434 0.0
C743 C 0.55513 0.09184 0.27706 0.0
H744 H 0.817 0.57405 0.75618 0.0
H745 H 0.77999 0.59789 0.68716 0.0
H746 H 0.76695 0.59858 0.77921 0.0
H747 H 0.76471 0.59115 0.87789 0.0
H748 H 0.80108 0.56722 0.94984 0.0
H749 H 0.81577 0.56792 0.85798 0.0
C750 C 0.80611 0.57941 0.76143 0.0
C751 C 0.79934 0.58569 0.71472 0.0
C752 C 0.79855 0.57978 0.81487 0.0
C753 C 0.78534 0.59275 0.7222 0.0
C754 C 0.77787 0.59322 0.7749 0.0
C755 C 0.77605 0.58633 0.8739 0.0
C756 C 0.78181 0.57918 0.92064 0.0
C757 C 0.78422 0.58661 0.82132 0.0
C758 C 0.7964 0.57282 0.9144 0.0
C759 C 0.80475 0.57316 0.8619 0.0
H760 H 0.44449 0.25711 0.75798 0.0
H761 H 0.46065 0.21308 0.69508 0.0
H762 H 0.45259 0.19594 0.78522 0.0
H763 H 0.43812 0.19161 0.87875 0.0
H764 H 0.42356 0.23622 0.94477 0.0
H765 H 0.4335 0.25492 0.85581 0.0
C766 C 0.44659 0.24398 0.76429 0.0
C767 C 0.45286 0.2362 0.71965 0.0
C768 C 0.44176 0.23407 0.81614 0.0
C769 C 0.45576 0.21934 0.72862 0.0
C770 C 0.45097 0.2094 0.78 0.0
C771 C 0.43705 0.20539 0.87342 0.0
C772 C 0.42969 0.21236 0.91712 0.0
C773 C 0.44337 0.21626 0.82333 0.0
C774 C 0.42894 0.23053 0.91094 0.0
C775 C 0.43469 0.2412 0.86039 0.0
H776 H 0.74598 0.17776 0.75706 0.0
H777 H 0.78888 0.23662 0.68554 0.0
H778 H 0.80414 0.24925 0.7768 0.0
H779 H 0.80635 0.24328 0.8758 0.0
H780 H 0.76242 0.18562 0.95019 0.0
H781 H 0.74655 0.17266 0.85865 0.0
C782 C 0.75854 0.19341 0.76163 0.0
C783 C 0.76637 0.20618 0.71455 0.0
C784 C 0.7672 0.20067 0.81444 0.0
C785 C 0.78253 0.22647 0.72108 0.0
C786 C 0.79137 0.23369 0.77319 0.0
C787 C 0.79336 0.22783 0.87184 0.0
C788 C 0.78571 0.21524 0.91903 0.0
C789 C 0.78404 0.22083 0.81986 0.0
C790 C 0.76859 0.19547 0.91401 0.0
C791 C 0.75954 0.18811 0.86185 0.0
H792 H 0.41012 0.23686 0.38702 0.0
H793 H 0.43614 0.20133 0.45197 0.0
H794 H 0.43547 0.18778 0.3584 0.0
H795 H 0.42976 0.18823 0.25666 0.0
H796 H 0.40555 0.22584 0.19444 0.0
H797 H 0.40328 0.23635 0.28852 0.0
C798 C 0.41538 0.22592 0.38109 0.0
C799 C 0.42319 0.22014 0.42624 0.0
C800 C 0.41552 0.21875 0.32744 0.0
C801 C 0.43005 0.20602 0.41768 0.0
C802 C 0.42977 0.19836 0.36421 0.0
C803 C 0.42394 0.19866 0.26392 0.0
C804 C 0.41804 0.20638 0.21858 0.0
C805 C 0.42294 0.20499 0.31851 0.0
C806 C 0.41048 0.21986 0.22846 0.0
C807 C 0.40907 0.22584 0.28233 0.0
H808 H 0.79313 0.22447 0.4465 0.0
H809 H 0.7611 0.16379 0.37346 0.0
H810 H 0.77407 0.17826 0.28168 0.0
H811 H 0.79256 0.208 0.22171 0.0
H812 H 0.82466 0.26896 0.2925 0.0
H813 H 0.81349 0.25446 0.38612 0.0
C814 C 0.78917 0.2144 0.41058 0.0
C815 C 0.7761 0.19308 0.41679 0.0
C816 C 0.79645 0.22286 0.35765 0.0
C817 C 0.77113 0.18023 0.36992 0.0
C818 C 0.77846 0.18849 0.31733 0.0
C819 C 0.79707 0.21818 0.25753 0.0
C820 C 0.80909 0.23955 0.25027 0.0
C821 C 0.79075 0.20978 0.31066 0.0
C822 C 0.81524 0.25247 0.29716 0.0
C823 C 0.80888 0.24418 0.35054 0.0
H824 H 0.77173 0.572 0.44612 0.0
H825 H 0.82949 0.58938 0.3649 0.0
H826 H 0.81361 0.58559 0.27407 0.0
H827 H 0.78355 0.57692 0.21782 0.0
H828 H 0.72569 0.5604 0.29678 0.0
H829 H 0.74139 0.56405 0.38877 0.0
C830 C 0.78085 0.57506 0.40853 0.0
C831 C 0.80177 0.58099 0.41229 0.0
C832 C 0.77159 0.57278 0.3562 0.0
C833 C 0.8134 0.58492 0.36326 0.0
C834 C 0.80431 0.58264 0.31124 0.0
C835 C 0.77424 0.57389 0.25505 0.0
C836 C 0.75341 0.56813 0.25056 0.0
C837 C 0.78342 0.57642 0.30728 0.0
C838 C 0.74173 0.56471 0.29926 0.0
C839 C 0.75072 0.56686 0.35174 0.0
H840 H 0.51958 0.08895 0.69534 0.0
H841 H 0.5643 0.07752 0.77558 0.0
H842 H 0.55081 0.07917 0.86678 0.0
H843 H 0.52704 0.08464 0.92367 0.0
H844 H 0.48099 0.09431 0.84512 0.0
H845 H 0.49441 0.09275 0.75291 0.0
C846 C 0.52628 0.08671 0.7328 0.0
C847 C 0.54297 0.0832 0.72873 0.0
C848 C 0.51839 0.0876 0.78521 0.0
C849 C 0.55142 0.08018 0.77756 0.0
C850 C 0.5438 0.08124 0.82974 0.0
C851 C 0.52006 0.08662 0.88638 0.0
C852 C 0.50332 0.08999 0.89095 0.0
C853 C 0.52747 0.08516 0.83401 0.0
C854 C 0.49403 0.09191 0.8424 0.0
C855 C 0.50166 0.09096 0.78985 0.0
H856 H 0.90323 0.44636 0.7244 0.0
H857 H 0.93777 0.50975 0.77723 0.0
H858 H 0.93234 0.49911 0.87434 0.0
H859 H 0.91669 0.47222 0.94412 0.0
H860 H 0.88246 0.40862 0.89365 0.0
H861 H 0.8885 0.419 0.79546 0.0
C862 C 0.90978 0.45782 0.75718 0.0
C863 C 0.92091 0.47882 0.74349 0.0
C864 C 0.90629 0.45161 0.81323 0.0
C865 C 0.92921 0.49349 0.78643 0.0
C866 C 0.92598 0.48744 0.84209 0.0
C867 C 0.91037 0.46058 0.91175 0.0
C868 C 0.89893 0.4397 0.92607 0.0
C869 C 0.91427 0.46661 0.85589 0.0
C870 C 0.89118 0.42482 0.88358 0.0
C871 C 0.89473 0.43074 0.82753 0.0
H872 H 0.55261 0.45992 0.64879 0.0
H873 H 0.59081 0.43332 0.6173 0.0
H874 H 0.60771 0.44583 0.70802 0.0
H875 H 0.60778 0.46006 0.80148 0.0
H876 H 0.56865 0.48605 0.83093 0.0
H877 H 0.55602 0.47813 0.7359 0.0
C878 C 0.56485 0.45715 0.66161 0.0
C879 C 0.57033 0.44553 0.62742 0.0
C880 C 0.57413 0.46406 0.71371 0.0
C881 C 0.58647 0.44233 0.64335 0.0
C882 C 0.59595 0.4493 0.69531 0.0
C883 C 0.59677 0.4643 0.78676 0.0
C884 C 0.58886 0.47321 0.82376 0.0
C885 C 0.58934 0.45953 0.73174 0.0
C886 C 0.57475 0.47883 0.80379 0.0
C887 C 0.56749 0.47433 0.74934 0.0
H888 H 0.5598 0.82467 0.72329 0.0
H889 H 0.53765 0.76435 0.79399 0.0
H890 H 0.53876 0.75085 0.70261 0.0
H891 H 0.54768 0.75637 0.60383 0.0
H892 H 0.56762 0.81565 0.53002 0.0
H893 H 0.56587 0.82947 0.62154 0.0
C894 C 0.55499 0.80853 0.71851 0.0
C895 C 0.54882 0.7956 0.76553 0.0
C896 C 0.55554 0.80076 0.66554 0.0
C897 C 0.54247 0.77467 0.75861 0.0
C898 C 0.54322 0.76693 0.70639 0.0
C899 C 0.55169 0.77234 0.60788 0.0
C900 C 0.5581 0.78512 0.56086 0.0
C901 C 0.55007 0.7799 0.65988 0.0
C902 C 0.56278 0.80562 0.56604 0.0
C903 C 0.56176 0.81348 0.61821 0.0
H904 H 0.20005 0.76504 0.58732 0.0
H905 H 0.23607 0.82581 0.6576 0.0
H906 H 0.22111 0.81293 0.74884 0.0
H907 H 0.19866 0.78455 0.80935 0.0
H908 H 0.16271 0.72342 0.74142 0.0
H909 H 0.17696 0.73631 0.64869 0.0
C910 C 0.2045 0.77547 0.62253 0.0
C911 C 0.21906 0.7964 0.61539 0.0
C912 C 0.19604 0.76789 0.67544 0.0
C913 C 0.22477 0.80969 0.66156 0.0
C914 C 0.21631 0.80232 0.71399 0.0
C915 C 0.19394 0.77396 0.7744 0.0
C916 C 0.17972 0.75302 0.78242 0.0
C917 C 0.20209 0.78146 0.72146 0.0
C918 C 0.1737 0.73961 0.73646 0.0
C919 C 0.18181 0.74698 0.68341 0.0
H920 H 0.20557 0.41501 0.56987 0.0
H921 H 0.24107 0.47936 0.52993 0.0
H922 H 0.25959 0.48609 0.61863 0.0
H923 H 0.26219 0.47401 0.71265 0.0
H924 H 0.22726 0.40909 0.7492 0.0
H925 H 0.21225 0.40222 0.65663 0.0
C926 C 0.21764 0.43042 0.58032 0.0
C927 C 0.22187 0.44672 0.54433 0.0
C928 C 0.22818 0.43409 0.63094 0.0
C929 C 0.23769 0.4666 0.55736 0.0
C930 C 0.24812 0.47046 0.60816 0.0
C931 C 0.25158 0.45835 0.69993 0.0
C932 C 0.2456 0.4422 0.73827 0.0
C933 C 0.243 0.4544 0.64613 0.0
C934 C 0.23207 0.4219 0.72085 0.0
C935 C 0.22336 0.41791 0.66787 0.0
H936 H 0.45915 0.84974 0.1433 0.0
H937 H 0.48725 0.91495 0.11271 0.0
H938 H 0.47956 0.92041 0.20749 0.0
H939 H 0.46043 0.90618 0.29415 0.0
H940 H 0.43272 0.84141 0.32718 0.0
H941 H 0.44502 0.83626 0.23697 0.0
C942 C 0.46394 0.86517 0.15773 0.0
C943 C 0.47333 0.8818 0.12041 0.0
C944 C 0.45943 0.86828 0.21266 0.0
C945 C 0.47976 0.90178 0.14012 0.0
C946 C 0.47532 0.90496 0.19442 0.0
C947 C 0.45751 0.89104 0.28193 0.0
C948 C 0.44557 0.87415 0.31637 0.0
C949 C 0.46449 0.88826 0.23023 0.0
C950 C 0.44201 0.85461 0.30101 0.0
C951 C 0.44886 0.85166 0.24932 0.0
H952 H 0.10864 0.58152 0.0942 0.0
H953 H 0.12411 0.53798 0.02372 0.0
H954 H 0.12102 0.52272 0.11513 0.0
H955 H 0.11184 0.52023 0.21356 0.0
H956 H 0.09837 0.56459 0.28703 0.0
H957 H 0.1026 0.58103 0.19571 0.0
C958 C 0.11159 0.56887 0.09904 0.0
C959 C 0.11639 0.56078 0.0521 0.0
C960 C 0.10985 0.56015 0.15194 0.0
C961 C 0.12036 0.5445 0.05906 0.0
C962 C 0.11847 0.53566 0.11128 0.0
C963 C 0.1098 0.53349 0.20947 0.0
C964 C 0.10445 0.54103 0.25625 0.0
C965 C 0.1128 0.54307 0.15764 0.0
C966 C 0.10234 0.55849 0.25113 0.0
C967 C 0.10478 0.56786 0.1991 0.0
H968 H 0.41605 0.51211 0.10097 0.0
H969 H 0.4657 0.5655 0.02195 0.0
H970 H 0.4828 0.57754 0.1113 0.0
H971 H 0.48369 0.57323 0.21157 0.0
H972 H 0.43395 0.52063 0.29253 0.0
H973 H 0.41704 0.50777 0.20256 0.0
C974 C 0.4305 0.52646 0.10353 0.0
C975 C 0.43955 0.53791 0.05506 0.0
C976 C 0.44039 0.53331 0.15514 0.0
C977 C 0.45839 0.55638 0.05874 0.0
C978 C 0.46825 0.56328 0.10975 0.0
C979 C 0.46928 0.55882 0.20946 0.0
C980 C 0.46011 0.54786 0.25834 0.0
C981 C 0.45946 0.55182 0.15809 0.0
C982 C 0.44132 0.52932 0.2552 0.0
C983 C 0.43159 0.52202 0.2039 0.0
H984 H 0.10603 0.53277 0.7828 0.0
H985 H 0.07547 0.56351 0.71385 0.0
H986 H 0.07554 0.54973 0.62195 0.0
H987 H 0.08596 0.53081 0.56043 0.0
H988 H 0.11658 0.49987 0.62724 0.0
H989 H 0.11477 0.51191 0.72116 0.0
C990 C 0.09921 0.53629 0.74776 0.0
C991 C 0.09083 0.54923 0.75515 0.0
C992 C 0.09949 0.52847 0.69473 0.0
C993 C 0.08199 0.55358 0.70941 0.0
C994 C 0.0821 0.54579 0.65674 0.0
C995 C 0.09232 0.52671 0.59545 0.0
C996 C 0.10172 0.51477 0.58689 0.0
C997 C 0.09114 0.53356 0.64882 0.0
C998 C 0.10941 0.50919 0.63284 0.0
C999 C 0.10838 0.51607 0.68642 0.0
H1000 H 0.4149 0.50134 0.7143 0.0
H1001 H 0.45205 0.56097 0.78969 0.0
H1002 H 0.4679 0.57517 0.69932 0.0
H1003 H 0.47101 0.57044 0.59875 0.0
H1004 H 0.43396 0.51025 0.52577 0.0
H1005 H 0.41839 0.49644 0.61581 0.0
C1006 C 0.4266 0.51739 0.71124 0.0
C1007 C 0.4324 0.53004 0.75853 0.0
C1008 C 0.43565 0.52536 0.65962 0.0
C1009 C 0.44737 0.5509 0.75369 0.0
C1010 C 0.45642 0.55903 0.70213 0.0
C1011 C 0.45952 0.55433 0.60267 0.0
C1012 C 0.45362 0.54142 0.55574 0.0
C1013 C 0.45064 0.54638 0.65477 0.0
C1014 C 0.43879 0.52054 0.5613 0.0
C1015 C 0.42984 0.51259 0.61275 0.0
H1016 H 0.44633 0.90792 0.79095 0.0
H1017 H 0.41777 0.84463 0.84189 0.0
H1018 H 0.39843 0.83384 0.75413 0.0
H1019 H 0.39419 0.84241 0.6571 0.0
H1020 H 0.42323 0.90625 0.60843 0.0
H1021 H 0.43765 0.91678 0.70106 0.0
C1022 C 0.43552 0.89181 0.78318 0.0
C1023 C 0.43358 0.87703 0.82195 0.0
C1024 C 0.42478 0.88581 0.7327 0.0
C1025 C 0.41936 0.85623 0.81235 0.0
C1026 C 0.4085 0.85008 0.762 0.0
C1027 C 0.40332 0.85862 0.66712 0.0
C1028 C 0.40801 0.87344 0.62529 0.0
C1029 C 0.41175 0.8647 0.72087 0.0
C1030 C 0.41964 0.89442 0.63932 0.0
C1031 C 0.42795 0.90054 0.69241 0.0
H1032 H 0.20418 0.46599 0.21698 0.0
H1033 H 0.1789 0.40203 0.25776 0.0
H1034 H 0.18192 0.39406 0.16065 0.0
H1035 H 0.19713 0.40634 0.06858 0.0
H1036 H 0.22297 0.47021 0.02633 0.0
H1037 H 0.2137 0.47722 0.11868 0.0
C1038 C 0.19883 0.45028 0.20392 0.0
C1039 C 0.19169 0.4346 0.24392 0.0
C1040 C 0.20077 0.44588 0.14792 0.0
C1041 C 0.18477 0.41429 0.22731 0.0
C1042 C 0.18645 0.40974 0.17192 0.0
C1043 C 0.20021 0.42166 0.07926 0.0
C1044 C 0.21091 0.43781 0.04163 0.0
C1045 C 0.19526 0.42556 0.13248 0.0
C1046 C 0.21463 0.45757 0.055 0.0
C1047 C 0.20957 0.4616 0.10795 0.0
H1048 H 0.55697 0.7745 0.03288 0.0
H1049 H 0.59389 0.83523 0.10274 0.0
H1050 H 0.5915 0.82051 0.19448 0.0
H1051 H 0.57696 0.79091 0.25594 0.0
H1052 H 0.5397 0.72989 0.1888 0.0
H1053 H 0.5442 0.74425 0.09459 0.0
C1054 C 0.56473 0.78448 0.06805 0.0
C1055 C 0.57552 0.80595 0.06094 0.0
C1056 C 0.563 0.77591 0.12117 0.0
C1057 C 0.58549 0.81868 0.1069 0.0
C1058 C 0.58405 0.81029 0.15954 0.0
C1059 C 0.56974 0.7807 0.22077 0.0
C1060 C 0.55767 0.75941 0.22929 0.0
C1061 C 0.57245 0.78901 0.16729 0.0
C1062 C 0.5489 0.74636 0.1832 0.0
C1063 C 0.55148 0.75456 0.12946 0.0
H1064 H 0.18849 0.78039 0.32132 0.0
H1065 H 0.25224 0.80744 0.27443 0.0
H1066 H 0.24246 0.80148 0.17584 0.0
H1067 H 0.21555 0.78752 0.10346 0.0
H1068 H 0.15196 0.76021 0.15257 0.0
H1069 H 0.16201 0.76776 0.24986 0.0
C1070 C 0.20029 0.78489 0.28967 0.0
C1071 C 0.22104 0.79409 0.30521 0.0
C1072 C 0.19459 0.78157 0.23343 0.0
C1073 C 0.23613 0.80016 0.26352 0.0
C1074 C 0.23055 0.79682 0.2072 0.0
C1075 C 0.20392 0.78345 0.13541 0.0
C1076 C 0.18302 0.77331 0.12063 0.0
C1077 C 0.2098 0.78745 0.1917 0.0
C1078 C 0.16813 0.76802 0.16257 0.0
C1079 C 0.17386 0.77223 0.21838 0.0
H1080 H 0.21637 0.2639 0.31078 0.0
H1081 H 0.20857 0.25049 0.1347 0.0
H1082 H 0.23369 0.23897 0.13797 0.0
H1083 H 0.25296 0.22699 0.19462 0.0
H1084 H 0.2624 0.24238 0.36963 0.0
H1085 H 0.24214 0.25938 0.36268 0.0
C1086 C 0.22065 0.25899 0.27298 0.0
C1087 C 0.21047 0.25768 0.22289 0.0
C1088 C 0.2353 0.25261 0.27496 0.0
C1089 C 0.21624 0.25157 0.17384 0.0
C1090 C 0.23049 0.24485 0.17571 0.0
C1091 C 0.25112 0.23465 0.23074 0.0
C1092 C 0.25879 0.23304 0.28268 0.0
C1093 C 0.23943 0.24446 0.22655 0.0
C1094 C 0.25658 0.24329 0.32908 0.0
C1095 C 0.24479 0.25286 0.32536 0.0
H1096 H 0.73751 0.97044 0.15923 0.0
H1097 H 0.72956 0.95098 0.33099 0.0
H1098 H 0.74225 0.98635 0.36181 0.0
H1099 H 0.76219 0.02305 0.3399 0.0
H1100 H 0.77496 0.04254 0.16837 0.0
H1101 H 0.75343 0.00703 0.13716 0.0
C1102 C 0.73791 0.97386 0.20335 0.0
C1103 C 0.73278 0.95824 0.24287 0.0
C1104 C 0.74638 0.99434 0.22066 0.0
C1105 C 0.73358 0.96285 0.29991 0.0
C1106 C 0.74092 0.98307 0.31749 0.0
C1107 C 0.75962 0.01957 0.29571 0.0
C1108 C 0.77013 0.03526 0.25638 0.0
C1109 C 0.74836 -0.00097 0.27828 0.0
C1110 C 0.76701 0.03061 0.19925 0.0
C1111 C 0.75484 0.01032 0.18148 0.0
H1112 H 0.97162 0.74095 0.32348 0.0
H1113 H 0.96433 0.73926 0.14487 0.0
H1114 H 0.00029 0.74891 0.13231 0.0
H1115 H 0.0348 0.76636 0.17185 0.0
H1116 H 0.04275 0.7732 0.35024 0.0
H1117 H 0.00565 0.75243 0.36341 0.0
C1118 C 0.97772 0.7419 0.28184 0.0
C1119 C 0.9655 0.73973 0.23513 0.0
C1120 C -0.00129 0.74877 0.27505 0.0
C1121 C 0.97356 0.7411 0.1814 0.0
C1122 C 0.99415 0.74675 0.17426 0.0
C1123 C 0.02851 0.76264 0.21372 0.0
C1124 C 0.04146 0.77167 0.25998 0.0
C1125 C 0.00713 0.75194 0.22074 0.0
C1126 C 0.03305 0.76665 0.31394 0.0
C1127 C 0.01182 0.75492 0.32143 0.0
H1128 H 0.77496 0.74228 0.81866 0.0
H1129 H 0.78427 0.74124 0.64126 0.0
H1130 H 0.75862 0.75155 0.62401 0.0
H1131 H 0.74063 0.7688 0.65998 0.0
H1132 H 0.73714 0.77606 0.83737 0.0
H1133 H 0.75298 0.75495 0.8544 0.0
C1134 C 0.77091 0.74363 0.77609 0.0
C1135 C 0.78172 0.74131 0.73124 0.0
C1136 C 0.75736 0.75101 0.76677 0.0
C1137 C 0.7763 0.74315 0.67643 0.0
C1138 C 0.76174 0.74918 0.66664 0.0
C1139 C 0.74259 0.76505 0.70237 0.0
C1140 C 0.73783 0.77395 0.74747 0.0
C1141 C 0.75317 0.75435 0.71156 0.0
C1142 C 0.74074 0.76933 0.80217 0.0
C1143 C 0.74995 0.75744 0.81179 0.0
H1144 H 0.25821 0.02588 0.84459 0.0
H1145 H 0.25705 0.04044 0.67133 0.0
H1146 H 0.2387 0.00383 0.64795 0.0
H1147 H 0.21664 0.96848 0.68005 0.0
H1148 H 0.21299 0.95469 0.85558 0.0
H1149 H 0.23977 0.99003 0.87507 0.0
C1150 C 0.25463 0.02102 0.80143 0.0
C1151 C 0.25891 0.03573 0.75965 0.0
C1152 C 0.24281 2e-05 0.7891 0.0
C1153 C 0.25389 0.02931 0.70404 0.0
C1154 C 0.24324 0.00841 0.69084 0.0
C1155 C 0.22223 0.97306 0.72231 0.0
C1156 C 0.21285 0.95912 0.76643 0.0
C1157 C 0.23663 0.99368 0.73347 0.0
C1158 C 0.21996 0.96525 0.8211 0.0
C1159 C 0.23518 0.98546 0.83221 0.0
H1160 H 0.96874 0.22785 0.84475 0.0
H1161 H 0.95315 0.21581 0.67051 0.0
H1162 H 0.98951 0.2355 0.64542 0.0
H1163 H 0.02521 0.24879 0.67457 0.0
H1164 H 0.04012 0.25532 0.84968 0.0
H1165 H 0.00473 0.24552 0.87319 0.0
C1166 C 0.97327 0.23022 0.80118 0.0
C1167 C 0.95838 0.22033 0.75949 0.0
C1168 C 0.99419 0.24024 0.78748 0.0
C1169 C 0.96441 0.22326 0.70325 0.0
C1170 C 0.9852 0.23435 0.68899 0.0
C1171 C 0.02083 0.24875 0.71774 0.0
C1172 C 0.0351 0.25262 0.76044 0.0
C1173 C 0.00021 0.24183 0.73094 0.0
C1174 C 0.02927 0.25226 0.81626 0.0
C1175 C 0.00905 0.24657 0.82965 0.0
H1176 H 0.90252 0.59536 0.47439 0.0
H1177 H 0.89414 0.60493 0.64764 0.0
H1178 H 0.9182 0.59351 0.67482 0.0
H1179 H 0.93556 0.57442 0.65037 0.0
H1180 H 0.93884 0.55939 0.47836 0.0
H1181 H 0.9233 0.57978 0.44915 0.0
C1182 C 0.90648 0.59556 0.51796 0.0
C1183 C 0.89658 0.60087 0.55909 0.0
C1184 C 0.91924 0.58775 0.53332 0.0
C1185 C 0.90156 0.6008 0.61542 0.0
C1186 C 0.91522 0.59419 0.63089 0.0
C1187 C 0.93354 0.5762 0.60633 0.0
C1188 C 0.93825 0.56541 0.56647 0.0
C1189 C 0.92331 0.58668 0.59038 0.0
C1190 C 0.93527 0.56756 0.50966 0.0
C1191 C 0.92625 0.57907 0.49309 0.0
H1192 H 0.41357 0.30733 0.4859 0.0
H1193 H 0.41714 0.30002 0.66307 0.0
H1194 H 0.43658 0.33733 0.67482 0.0
H1195 H 0.45965 0.37054 0.63182 0.0
H1196 H 0.46081 0.37676 0.45284 0.0
H1197 H 0.43222 0.34158 0.44443 0.0
C1198 C 0.41785 0.31394 0.52735 0.0
C1199 C 0.41413 0.30104 0.57356 0.0
C1200 C 0.43037 0.33527 0.53306 0.0
C1201 C 0.41994 0.30973 0.62697 0.0
C1202 C 0.43124 0.33104 0.63353 0.0
C1203 C 0.45316 0.36444 0.59111 0.0
C1204 C 0.46249 0.37607 0.54291 0.0
C1205 C 0.43768 0.34382 0.58644 0.0
C1206 C 0.45401 0.36797 0.49044 0.0
C1207 C 0.43774 0.34783 0.48565 0.0
H1208 H 0.63105 0.07013 0.65849 0.0
H1209 H 0.61469 0.06751 0.48516 0.0
H1210 H 0.65017 0.07905 0.45777 0.0
H1211 H 0.68645 0.09635 0.48421 0.0
H1212 H 0.70322 0.10429 0.65805 0.0
H1213 H 0.66703 0.08374 0.68449 0.0
C1214 C 0.63514 0.07148 0.61467 0.0
C1215 C 0.62039 0.06813 0.57382 0.0
C1216 C 0.65574 0.07929 0.59956 0.0
C1217 C 0.62588 0.07016 0.51723 0.0
C1218 C 0.64616 0.07682 0.50165 0.0
C1219 C 0.68219 0.09292 0.52778 0.0
C1220 C 0.69735 0.10173 0.56925 0.0
C1221 C 0.66136 0.08238 0.54257 0.0
C1222 C 0.69171 0.09759 0.62558 0.0
C1223 C 0.67105 0.086 0.64062 0.0
H1224 H 0.39633 0.11112 0.12159 0.0
H1225 H 0.39907 0.10879 0.94213 0.0
H1226 H 0.41388 0.08653 0.94859 0.0
H1227 H 0.43255 0.07388 0.00557 0.0
H1228 H 0.42807 0.07451 0.18487 0.0
H1229 H 0.40717 0.09086 0.17806 0.0
C1230 C 0.39951 0.10514 0.08397 0.0
C1231 C 0.39705 0.11198 0.03165 0.0
C1232 C 0.40806 0.0923 0.08786 0.0
C1233 C 0.40093 0.10388 0.9831 0.0
C1234 C 0.40962 0.09128 0.98666 0.0
C1235 C 0.42644 0.07703 0.04297 0.0
C1236 C 0.43218 0.07341 0.09553 0.0
C1237 C 0.41428 0.08633 0.03885 0.0
C1238 C 0.42394 0.07725 0.1438 0.0
C1239 C 0.4121 0.08676 0.14003 0.0
H1240 H 0.91733 0.35415 0.15685 0.0
H1241 H 0.92181 0.37205 0.98444 0.0
H1242 H 0.90817 0.33635 0.95519 0.0
H1243 H 0.88807 0.29995 0.9798 0.0
H1244 H 0.87834 0.28204 0.15283 0.0
H1245 H 0.90127 0.31767 0.18102 0.0
C1246 C 0.91602 0.35028 0.11284 0.0
C1247 C 0.92046 0.36555 0.07273 0.0
C1248 C 0.90687 0.32961 0.09669 0.0
C1249 C 0.9184 0.36043 0.01588 0.0
C1250 C 0.91049 0.34003 -0.00074 0.0
C1251 C 0.8916 0.30377 0.02357 0.0
C1252 C 0.88153 0.28852 0.06429 0.0
C1253 C 0.90362 0.32441 0.03941 0.0
C1254 C 0.88592 0.29362 0.12089 0.0
C1255 C 0.8989 0.31399 0.13695 0.0
H1256 H 0.69396 0.59183 0.97839 0.0
H1257 H 0.70303 0.58722 0.15419 0.0
H1258 H 0.666 0.57056 0.16986 0.0
H1259 H 0.63153 0.55039 0.13033 0.0
H1260 H 0.62294 0.55034 0.95253 0.0
H1261 H 0.65916 0.5761 0.94079 0.0
C1262 C 0.6879 0.58787 0.02045 0.0
C1263 C 0.70115 0.5905 0.06502 0.0
C1264 C 0.66657 0.5771 0.02847 0.0
C1265 C 0.69308 0.58516 0.1192 0.0
C1266 C 0.67191 0.57551 0.12806 0.0
C1267 C 0.63743 0.5566 0.08926 0.0
C1268 C 0.62469 0.54839 0.04225 0.0
C1269 C 0.6585 0.57032 0.08253 0.0
C1270 C 0.63254 0.55637 0.98922 0.0
C1271 C 0.65326 0.57098 0.98251 0.0
H1272 H 0.55131 0.93168 0.96079 0.0
H1273 H 0.54146 0.91922 0.78447 0.0
H1274 H 0.56776 0.90933 0.78215 0.0
H1275 H 0.58636 0.89572 0.8354 0.0
H1276 H 0.59688 0.909 0.01129 0.0
H1277 H 0.57816 0.92765 0.00814 0.0
C1278 C 0.55553 0.9276 0.9215 0.0
C1279 C 0.54407 0.92559 0.87333 0.0
C1280 C 0.57058 0.92173 0.92049 0.0
C1281 C 0.54991 0.92068 0.82236 0.0
C1282 C 0.56484 0.9148 0.82105 0.0
C1283 C 0.58526 0.90341 0.87249 0.0
C1284 C 0.59238 0.90039 0.92376 0.0
C1285 C 0.57422 0.91395 0.87062 0.0
C1286 C 0.59129 0.91082 0.97132 0.0
C1287 C 0.58037 0.92134 0.96976 0.0
H1288 H 0.07556 0.63558 0.83569 0.0
H1289 H 0.06781 0.61424 0.00548 0.0
H1290 H 0.07596 0.64823 0.0394 0.0
H1291 H 0.09169 0.68504 0.0212 0.0
H1292 H 0.10519 0.70741 0.8522 0.0
H1293 H 0.08797 0.67208 0.81706 0.0
C1294 C 0.07504 0.63828 0.87998 0.0
C1295 C 0.0711 0.62258 0.91821 0.0
C1296 C 0.081 0.65815 0.89912 0.0
C1297 C 0.07083 0.62621 0.97553 0.0
C1298 C 0.07557 0.64563 0.99482 0.0
C1299 C 0.09018 0.68215 0.97662 0.0
C1300 C 0.0996 0.69871 0.93923 0.0
C1301 C 0.0816 0.66192 0.95711 0.0
C1302 C 0.09797 0.69483 0.88162 0.0
C1303 C 0.0883 0.67466 0.86163 0.0
H1304 H 0.28524 0.39792 0.88724 0.0
H1305 H 0.29174 0.41519 0.06072 0.0
H1306 H 0.32872 0.42887 0.05513 0.0
H1307 H 0.35936 0.44324 0.99481 0.0
H1308 H 0.35261 0.4249 0.82182 0.0
H1309 H 0.31571 0.40378 0.83391 0.0
C1310 C 0.2947 0.40394 0.92426 0.0
C1311 C 0.28596 0.406 0.97385 0.0
C1312 C 0.31597 0.4119 0.92068 0.0
C1313 C 0.29819 0.41354 0.02192 0.0
C1314 C 0.31939 0.42158 0.01863 0.0
C1315 C 0.34989 0.43405 0.9603 0.0
C1316 C 0.35865 0.43627 0.90711 0.0
C1317 C 0.32854 0.42198 0.96731 0.0
C1318 C 0.34627 0.42383 0.8631 0.0
C1319 C 0.32507 0.41182 0.86977 0.0
H1320 H 0.07755 0.44689 0.48047 0.0
H1321 H 0.07271 0.43282 0.30463 0.0
H1322 H 0.0872 0.41062 0.31979 0.0
H1323 H 0.10965 0.4034 0.37856 0.0
H1324 H 0.11451 0.41733 0.55426 0.0
H1325 H 0.09117 0.43084 0.54393 0.0
C1326 C 0.07896 0.43835 0.44584 0.0
C1327 C 0.07478 0.44208 0.39132 0.0
C1328 C 0.08765 0.42584 0.45466 0.0
C1329 C 0.07614 0.43052 0.34698 0.0
C1330 C 0.08462 0.41792 0.35549 0.0
C1331 C 0.10487 0.40858 0.41491 0.0
C1332 C 0.11415 0.40991 0.46668 0.0
C1333 C 0.09174 0.41668 0.40847 0.0
C1334 C 0.10766 0.41631 0.51381 0.0
C1335 C 0.09449 0.42428 0.50782 0.0
H1336 H 0.55393 0.64345 0.32599 0.0
H1337 H 0.54456 0.62558 0.4991 0.0
H1338 H 0.56263 0.66171 0.52732 0.0
H1339 H 0.5749 0.69763 0.50243 0.0
H1340 H 0.57955 0.71482 0.32919 0.0
H1341 H 0.56982 0.67981 0.3011 0.0
C1342 C 0.55645 0.64749 0.36988 0.0
C1343 C 0.54791 0.63196 0.41049 0.0
C1344 C 0.5657 0.6682 0.38561 0.0
C1345 C 0.55098 0.63734 0.4672 0.0
C1346 C 0.56118 0.65797 0.48327 0.0
C1347 C 0.57436 0.69384 0.45854 0.0
C1348 C 0.57779 0.70868 0.41787 0.0
C1349 C 0.56769 0.67347 0.44283 0.0
C1350 C 0.57682 0.70356 0.36117 0.0
C1351 C 0.5712 0.68355 0.34515 0.0
H1352 H 0.37505 0.91639 0.47912 0.0
H1353 H 0.36478 0.90059 0.30464 0.0
H1354 H 0.32866 0.89061 0.31477 0.0
H1355 H 0.29907 0.87905 0.37805 0.0
H1356 H 0.30959 0.89566 0.55219 0.0
H1357 H 0.34653 0.91323 0.53703 0.0
C1358 C 0.36502 0.91145 0.44301 0.0
C1359 C 0.37234 0.90877 0.39161 0.0
C1360 C 0.34426 0.90563 0.4492 0.0
C1361 C 0.3594 0.90268 0.34476 0.0
C1362 C 0.3387 0.89678 0.35062 0.0
C1363 C 0.30947 0.88713 0.41221 0.0
C1364 C 0.30164 0.88555 0.46637 0.0
C1365 C 0.33076 0.89706 0.40336 0.0
C1366 C 0.31522 0.89644 0.51012 0.0
C1367 C 0.3364 0.90635 0.50165 0.0
H1368 H 0.29318 0.16792 0.16733 0.0
H1369 H 0.34046 0.20358 0.28801 0.0
H1370 H 0.36584 0.20149 0.22927 0.0
H1371 H 0.37458 0.18922 0.14538 0.0
H1372 H 0.32788 0.15372 0.0234 0.0
H1373 H 0.30225 0.1562 0.08122 0.0
C1374 C 0.30905 0.1753 0.18084 0.0
C1375 C 0.31484 0.18587 0.23235 0.0
C1376 C 0.32365 0.17407 0.14672 0.0
C1377 C 0.33552 0.19539 0.24876 0.0
C1378 C 0.35006 0.19418 0.21517 0.0
C1379 C 0.35882 0.18199 0.13106 0.0
C1380 C 0.35322 0.17121 0.07997 0.0
C1381 C 0.34428 0.18349 0.16432 0.0
C1382 C 0.33267 0.1621 0.06241 0.0
C1383 C 0.31801 0.16349 0.09554 0.0
H1384 H 0.81198 0.19044 0.15661 0.0
H1385 H 0.846 0.18114 0.02535 0.0
H1386 H 0.84656 0.15398 0.08024 0.0
H1387 H 0.8375 0.13313 0.16532 0.0
H1388 H 0.80343 0.14261 0.29615 0.0
H1389 H 0.80287 0.16965 0.24112 0.0
C1390 C 0.81952 0.1825 0.13967 0.0
C1391 C 0.82894 0.18787 0.0867 0.0
C1392 C 0.81981 0.167 0.17139 0.0
C1393 C 0.83862 0.17735 0.06585 0.0
C1394 C 0.83896 0.16184 0.09726 0.0
C1395 C 0.82996 0.1411 0.18203 0.0
C1396 C 0.82054 0.13581 0.23503 0.0
C1397 C 0.82963 0.15658 0.15011 0.0
C1398 C 0.81079 0.14631 0.25562 0.0
C1399 C 0.81046 0.16177 0.22415 0.0
H1400 H 0.81451 0.66508 0.0388 0.0
H1401 H 0.79678 0.62214 0.17556 0.0
H1402 H 0.82509 0.6476 0.23135 0.0
H1403 H 0.85529 0.68178 0.24125 0.0
H1404 H 0.87347 0.72478 0.10457 0.0
H1405 H 0.84467 0.69959 0.04921 0.0
C1406 C 0.81676 0.66134 0.08092 0.0
C1407 C 0.8035 0.64169 0.10271 0.0
C1408 C 0.83325 0.67604 0.11291 0.0
C1409 C 0.80675 0.6371 0.15741 0.0
C1410 C 0.82297 0.65166 0.1895 0.0
C1411 C 0.853 0.68569 0.19936 0.0
C1412 C 0.86662 0.70518 0.17727 0.0
C1413 C 0.8364 0.67112 0.16758 0.0
C1414 C 0.8633 0.7099 0.12281 0.0
C1415 C 0.84679 0.6955 0.09102 0.0
H1416 H 0.15437 0.34733 0.44883 0.0
H1417 H 0.19469 0.39288 0.33034 0.0
H1418 H 0.19256 0.36597 0.26905 0.0
H1419 H 0.17883 0.32938 0.2481 0.0
H1420 H 0.13933 0.28385 0.36807 0.0
H1421 H 0.14171 0.31079 0.42954 0.0
C1422 C 0.16282 0.35137 0.40983 0.0
C1423 C 0.17436 0.37209 0.39381 0.0
C1424 C 0.16166 0.33578 0.37481 0.0
C1425 C 0.18527 0.37703 0.34313 0.0
C1426 C 0.18416 0.36164 0.30811 0.0
C1427 C 0.1707 0.32534 0.2876 0.0
C1428 C 0.15885 0.30458 0.30307 0.0
C1429 C 0.17224 0.34094 0.32322 0.0
C1430 C 0.14858 0.29968 0.35482 0.0
C1431 C 0.14992 0.31509 0.39018 0.0
H1432 H 0.61216 0.80692 0.32547 0.0
H1433 H 0.65198 0.81332 0.46313 0.0
H1434 H 0.68159 0.83901 0.41059 0.0
H1435 H 0.696 0.85954 0.32638 0.0
H1436 H 0.65629 0.8533 0.18859 0.0
H1437 H 0.62666 0.82742 0.24085 0.0
C1438 C 0.62729 0.81393 0.34429 0.0
C1439 C 0.62978 0.80817 0.39847 0.0
C1440 C 0.64421 0.82864 0.31384 0.0
C1441 C 0.64956 0.81744 0.42173 0.0
C1442 C 0.6665 0.83212 0.39165 0.0
C1443 C 0.6809 0.85254 0.30742 0.0
C1444 C 0.67843 0.85842 0.25337 0.0
C1445 C 0.66398 0.83781 0.33774 0.0
C1446 C 0.65868 0.84912 0.22995 0.0
C1447 C 0.64173 0.83434 0.25988 0.0
H1448 H 0.20178 0.82263 0.36539 0.0
H1449 H 0.19254 0.85676 0.49659 0.0
H1450 H 0.16451 0.85609 0.44367 0.0
H1451 H 0.14243 0.8454 0.36191 0.0
H1452 H 0.15124 0.81122 0.2301 0.0
H1453 H 0.17986 0.81241 0.28198 0.0
C1454 C 0.1937 0.82997 0.38253 0.0
C1455 C 0.19928 0.8397 0.43518 0.0
C1456 C 0.17756 0.8295 0.35192 0.0
C1457 C 0.18864 0.8492 0.45633 0.0
C1458 C 0.17258 0.84879 0.42611 0.0
C1459 C 0.15054 0.83816 0.34421 0.0
C1460 C 0.14458 0.82815 0.29209 0.0
C1461 C 0.16687 0.8389 0.37412 0.0
C1462 C 0.15545 0.81901 0.27003 0.0
C1463 C 0.1718 0.81967 0.29973 0.0
H1464 H 0.67029 0.8214 0.73063 0.0
H1465 H 0.7169 0.84834 0.85819 0.0
H1466 H 0.69426 0.85528 0.91536 0.0
H1467 H 0.6612 0.85376 0.92965 0.0
H1468 H 0.6146 0.82687 0.80205 0.0
H1469 H 0.6373 0.82005 0.74471 0.0
C1470 C 0.67547 0.82869 0.77103 0.0
C1471 C 0.69527 0.83427 0.7899 0.0
C1472 C 0.66241 0.8328 0.8038 0.0
C1473 C 0.70175 0.84385 0.84236 0.0
C1474 C 0.68881 0.84788 0.87522 0.0
C1475 C 0.65604 0.84652 0.88917 0.0
C1476 C 0.6362 0.84088 0.8704 0.0
C1477 C 0.66913 0.84249 0.85632 0.0
C1478 C 0.62978 0.8314 0.81781 0.0
C1479 C 0.64274 0.82743 0.78488 0.0
H1480 H 0.1627 0.80113 0.8698 0.0
H1481 H 0.12613 0.80592 0.00185 0.0
H1482 H 0.12659 0.83486 0.95402 0.0
H1483 H 0.13749 0.85881 0.87505 0.0
H1484 H 0.17365 0.85353 0.74259 0.0
H1485 H 0.17322 0.82471 0.79062 0.0
C1486 C 0.15482 0.80848 0.88834 0.0
C1487 C 0.14443 0.80134 0.93955 0.0
C1488 C 0.15509 0.82503 0.86058 0.0
C1489 C 0.13422 0.81103 0.96252 0.0
C1490 C 0.13451 0.82761 0.93522 0.0
C1491 C 0.14533 0.85141 0.85662 0.0
C1492 C 0.15564 0.85843 0.80522 0.0
C1493 C 0.14493 0.83475 0.88428 0.0
C1494 C 0.16559 0.84851 0.78199 0.0
C1495 C 0.16536 0.83201 0.80945 0.0
H1496 H 0.17874 0.33979 0.95383 0.0
H1497 H 0.19316 0.38361 0.82067 0.0
H1498 H 0.16821 0.35669 0.76051 0.0
H1499 H 0.14226 0.3207 0.74487 0.0
H1500 H 0.12786 0.27665 0.87733 0.0
H1501 H 0.15276 0.30358 0.93792 0.0
C1502 C 0.17638 0.34346 0.91174 0.0
C1503 C 0.18786 0.36375 0.89211 0.0
C1504 C 0.16201 0.32783 0.87685 0.0
C1505 C 0.18462 0.36816 0.83719 0.0
C1506 C 0.17032 0.35276 0.80252 0.0
C1507 C 0.14458 0.31695 0.78693 0.0
C1508 C 0.13317 0.29663 0.80621 0.0
C1509 C 0.15895 0.33253 0.82181 0.0
C1510 C 0.13643 0.29212 0.86102 0.0
C1511 C 0.15067 0.30755 0.89593 0.0
H1512 H 0.85707 0.71749 0.64375 0.0
H1513 H 0.82534 0.67759 0.78288 0.0
H1514 H 0.82453 0.64872 0.73311 0.0
H1515 H 0.83208 0.63482 0.64961 0.0
H1516 H 0.86356 0.67477 0.5103 0.0
H1517 H 0.86511 0.70376 0.56109 0.0
C1518 C 0.85003 0.70252 0.66356 0.0
C1519 C 0.84123 0.69975 0.71715 0.0
C1520 C 0.84948 0.68603 0.63461 0.0
C1521 C 0.83224 0.68021 0.74185 0.0
C1522 C 0.83173 0.66369 0.71332 0.0
C1523 C 0.8393 0.64984 0.63011 0.0
C1524 C 0.84765 0.65255 0.57592 0.0
C1525 C 0.84016 0.66642 0.65954 0.0
C1526 C 0.857 0.6722 0.55177 0.0
C1527 C 0.8579 0.68879 0.58083 0.0
H1528 H 0.33545 0.14876 0.77887 0.0
H1529 H 0.28527 0.13163 0.664 0.0
H1530 H 0.30759 0.15939 0.60177 0.0
H1531 H 0.34143 0.18849 0.57899 0.0
H1532 H 0.3919 0.20565 0.6929 0.0
H1533 H 0.36947 0.17806 0.75591 0.0
C1534 C 0.32943 0.15106 0.74015 0.0
C1535 C 0.30864 0.13812 0.72651 0.0
C1536 C 0.34242 0.16714 0.70413 0.0
C1537 C 0.30113 0.14141 0.67606 0.0
C1538 C 0.31391 0.15729 0.64019 0.0
C1539 C 0.34753 0.18628 0.61768 0.0
C1540 C 0.36835 0.19919 0.63093 0.0
C1541 C 0.33458 0.17028 0.65379 0.0
C1542 C 0.37595 0.19598 0.68134 0.0
C1543 C 0.36313 0.18015 0.71754 0.0
H1544 H 0.8572 0.14877 0.67277 0.0
H1545 H 0.8498 0.18628 0.79722 0.0
H1546 H 0.82102 0.18427 0.74463 0.0
H1547 H 0.79816 0.17198 0.66356 0.0
H1548 H 0.80569 0.13449 0.53929 0.0
H1549 H 0.83433 0.13639 0.59212 0.0
C1550 C 0.84934 0.15654 0.68864 0.0
C1551 C 0.85572 0.16769 0.73905 0.0
C1552 C 0.83283 0.1553 0.65831 0.0
C1553 C 0.84527 0.17762 0.75863 0.0
C1554 C 0.8288 0.17646 0.72858 0.0
C1555 C 0.806 0.16417 0.6479 0.0
C1556 C 0.79971 0.15309 0.59736 0.0
C1557 C 0.82247 0.16534 0.6784 0.0
C1558 C 0.81013 0.14309 0.57798 0.0
C1559 C 0.82653 0.14419 0.60815 0.0
H1560 H 0.05124 0.5182 0.48584 0.0
H1561 H 0.00753 0.48311 0.3568 0.0
H1562 H 0.98045 0.48479 0.40926 0.0
H1563 H 0.96934 0.49616 0.49137 0.0
H1564 H 0.01324 0.53152 0.61978 0.0
H1565 H 0.04022 0.5297 0.56746 0.0
C1566 C 0.03581 0.51089 0.4689 0.0
C1567 C 0.03146 0.50051 0.41726 0.0
C1568 C 0.02039 0.51195 0.49914 0.0
C1569 C 0.01135 0.49122 0.39627 0.0
C1570 C 0.99586 0.49216 0.4263 0.0
C1571 C 0.98479 0.50347 0.50816 0.0
C1572 C 0.98922 0.51396 0.55966 0.0
C1573 C 0.00023 0.50247 0.47776 0.0
C1574 C 0.00938 0.52339 0.58036 0.0
C1575 C 0.02481 0.52234 0.55045 0.0
H1576 H 0.52595 0.5242 0.35639 0.0
H1577 H 0.4994 0.53563 0.50252 0.0
H1578 H 0.50246 0.50943 0.5537 0.0
H1579 H 0.51144 0.4824 0.55677 0.0
H1580 H 0.53723 0.46998 0.41075 0.0
H1581 H 0.53575 0.49738 0.36029 0.0
C1582 C 0.52098 0.52105 0.39953 0.0
C1583 C 0.5124 0.53187 0.42527 0.0
C1584 C 0.52257 0.5057 0.42895 0.0
C1585 C 0.50596 0.52751 0.48127 0.0
C1586 C 0.5077 0.5125 0.5108 0.0
C1587 C 0.51686 0.48572 0.51401 0.0
C1588 C 0.52438 0.47405 0.48776 0.0
C1589 C 0.51579 0.50136 0.48495 0.0
C1590 C 0.53129 0.47863 0.43217 0.0
C1591 C 0.53045 0.49433 0.40315 0.0
H1592 H 0.51657 0.99244 0.60635 0.0
H1593 H 0.5222 0.03663 0.48233 0.0
H1594 H 0.4978 0.00908 0.42264 0.0
H1595 H 0.47463 0.97233 0.40505 0.0
H1596 H 0.46839 0.92818 0.52976 0.0
H1597 H 0.49321 0.95572 0.58904 0.0
C1598 C 0.51242 0.99606 0.56637 0.0
C1599 C 0.52129 0.01663 0.54916 0.0
C1600 C 0.49828 0.9801 0.53191 0.0
C1601 C 0.51568 0.02097 0.49701 0.0
C1602 C 0.50171 0.0052 0.46256 0.0
C1603 C 0.47882 0.96873 0.44499 0.0
C1604 C 0.46967 0.9482 0.46267 0.0
C1605 C 0.49295 0.98469 0.47945 0.0
C1606 C 0.47515 0.94384 0.51494 0.0
C1607 C 0.48935 0.9596 0.54904 0.0
H1608 H 0.46963 0.99721 0.10281 0.0
H1609 H 0.49164 0.03901 0.96311 0.0
H1610 H 0.49227 0.01269 0.90504 0.0
H1611 H 0.48756 0.97805 0.89426 0.0
H1612 H 0.46634 0.9366 0.03485 0.0
H1613 H 0.46442 0.96245 0.09163 0.0
C1614 C 0.47442 0.00052 0.05957 0.0
C1615 C 0.4806 0.0201 0.03762 0.0
C1616 C 0.47498 0.98537 0.02634 0.0
C1617 C 0.48687 0.02412 0.98142 0.0
C1618 C 0.48724 0.00906 0.94801 0.0
C1619 C 0.48243 0.97463 0.93722 0.0
C1620 C 0.47716 0.95537 0.96002 0.0
C1621 C 0.4815 0.98967 0.97012 0.0
C1622 C 0.47058 0.95128 0.01597 0.0
C1623 C 0.46945 0.96607 0.04866 0.0
H1624 H 0.99375 0.473 0.09329 0.0
H1625 H 0.94482 0.46275 0.98032 0.0
H1626 H 0.96918 0.48958 0.91901 0.0
H1627 H 0.00439 0.51619 0.89699 0.0
H1628 H 0.05352 0.52655 0.00932 0.0
H1629 H 0.02915 0.49952 0.07065 0.0
C1630 C 0.98841 0.47663 0.05529 0.0
C1631 C 0.96741 0.46584 0.04184 0.0
C1632 C 0.00258 0.49214 0.01974 0.0
C1633 C 0.96084 0.47078 0.99217 0.0
C1634 C 0.97479 0.48616 0.95681 0.0
C1635 C 0.00981 0.51254 0.9348 0.0
C1636 C 0.03079 0.52347 0.94829 0.0
C1637 C 0.9957 0.49696 0.97015 0.0
C1638 C 0.03747 0.51845 -0.00236 0.0
C1639 C 0.02352 0.50296 0.03292 0.0
H1640 H 0.51519 0.50207 0.05575 0.0
H1641 H 0.52846 0.47433 0.91557 0.0
H1642 H 0.49944 0.47213 0.86477 0.0
H1643 H 0.47008 0.47787 0.85978 0.0
H1644 H 0.45712 0.50605 -0.00052 0.0
H1645 H 0.48612 0.50823 0.05029 0.0
C1646 C 0.51176 0.49555 0.01409 0.0
C1647 C 0.52404 0.48836 0.9898 0.0
C1648 C 0.49503 0.49436 0.98477 0.0
C1649 C 0.51933 0.48001 0.93557 0.0
C1650 C 0.50269 0.47871 0.90633 0.0
C1651 C 0.47357 0.48446 0.90136 0.0
C1652 C 0.46134 0.49171 0.92558 0.0
C1653 C 0.49039 0.48579 0.93052 0.0
C1654 C 0.46621 0.50031 0.97953 0.0
C1655 C 0.48283 0.50158 0.00881 0.0
loop_
_geom_bond_atom_site_label_1
_geom_bond_atom_site_label_2
_geom_bond_distance
_geom_bond_site_symmetry_2
_ccdc_geom_bond_type
Mg0 O1 2.028 . S
Mg0 O7 1.986 . S
Mg0 O9 2.114 . S
Mg0 O10 2.251 . S
Mg0 O13 2.010 . S
O1 Mg0 2.028 . S
O1 C4 1.250 . S
O2 Mg3 2.028 . S
O2 C4 1.248 . S
Mg3 O2 2.028 . S
Mg3 O8 2.032 . S
Mg3 O10 2.079 . S
C4 O1 1.250 . S
C4 O2 1.248 . S
C5 O6 1.264 . S
C5 O13 1.249 . S
O6 C5 1.264 . S
O7 Mg0 1.986 . S
O7 C11 1.246 . S
O8 Mg3 2.032 . S
O8 C11 1.259 . S
O9 Mg0 2.114 . S
O9 C12 1.252 . S
O10 Mg0 2.251 . S
O10 Mg3 2.079 . S
O10 C12 1.273 . S
C11 O7 1.246 . S
C11 O8 1.259 . S
C12 O9 1.252 . S
C12 O10 1.273 . S
O13 Mg0 2.010 . S
O13 C5 1.249 . S
Mg14 O15 2.028 . S
Mg14 O21 1.986 . S
Mg14 O23 2.114 . S
Mg14 O24 2.251 . S
Mg14 O27 2.010 . S
O15 Mg14 2.028 . S
O15 C18 1.250 . S
O16 Mg17 2.028 . S
O16 C18 1.248 . S
Mg17 O16 2.028 . S
Mg17 O22 2.032 . S
Mg17 O24 2.079 . S
C18 O15 1.250 . S
C18 O16 1.248 . S
C19 O20 1.264 . S
C19 O27 1.249 . S
O20 C19 1.264 . S
O21 Mg14 1.986 . S
O21 C25 1.246 . S
O22 Mg17 2.032 . S
O22 C25 1.259 . S
O23 Mg14 2.114 . S
O23 C26 1.252 . S
O24 Mg14 2.251 . S
O24 Mg17 2.079 . S
O24 C26 1.273 . S
C25 O21 1.246 . S
C25 O22 1.259 . S
C26 O23 1.252 . S
C26 O24 1.273 . S
O27 Mg14 2.010 . S
O27 C19 1.249 . S
Mg28 O29 2.028 . S
Mg28 O35 1.986 . S
Mg28 O37 2.114 . S
Mg28 O38 2.251 . S
Mg28 O41 2.010 . S
O29 Mg28 2.028 . S
O29 C32 1.250 . S
O30 Mg31 2.028 . S
O30 C32 1.248 . S
Mg31 O30 2.028 . S
Mg31 O36 2.032 . S
Mg31 O38 2.079 . S
C32 O29 1.250 . S
C32 O30 1.248 . S
C33 O34 1.264 . S
C33 O41 1.249 . S
O34 C33 1.264 . S
O35 Mg28 1.986 . S
O35 C39 1.246 . S
O36 Mg31 2.032 . S
O36 C39 1.259 . S
O37 Mg28 2.114 . S
O37 C40 1.252 . S
O38 Mg28 2.251 . S
O38 Mg31 2.079 . S
O38 C40 1.273 . S
C39 O35 1.246 . S
C39 O36 1.259 . S
C40 O37 1.252 . S
C40 O38 1.273 . S
O41 Mg28 2.010 . S
O41 C33 1.249 . S
Mg42 O43 2.028 . S
Mg42 O49 1.986 . S
Mg42 O51 2.114 . S
Mg42 O52 2.251 . S
Mg42 O55 2.010 . S
O43 Mg42 2.028 . S
O43 C46 1.250 . S
O44 Mg45 2.028 . S
O44 C46 1.248 . S
Mg45 O44 2.028 . S
Mg45 O50 2.032 . S
Mg45 O52 2.079 . S
C46 O43 1.250 . S
C46 O44 1.248 . S
C47 O48 1.264 . S
C47 O55 1.249 . S
O48 C47 1.264 . S
O49 Mg42 1.986 . S
O49 C53 1.246 . S
O50 Mg45 2.032 . S
O50 C53 1.259 . S
O51 Mg42 2.114 . S
O51 C54 1.252 . S
O52 Mg42 2.251 . S
O52 Mg45 2.079 . S
O52 C54 1.273 . S
C53 O49 1.246 . S
C53 O50 1.259 . S
C54 O51 1.252 . S
C54 O52 1.273 . S
O55 Mg42 2.010 . S
O55 C47 1.249 . S
Mg56 O57 2.028 . S
Mg56 O63 1.986 . S
Mg56 O65 2.114 . S
Mg56 O66 2.251 . S
Mg56 O69 2.010 . S
O57 Mg56 2.028 . S
O57 C60 1.250 . S
O58 Mg59 2.028 . S
O58 C60 1.248 . S
Mg59 O58 2.028 . S
Mg59 O64 2.032 . S
Mg59 O66 2.079 . S
C60 O57 1.250 . S
C60 O58 1.248 . S
C61 O62 1.264 . S
C61 O69 1.249 . S
O62 C61 1.264 . S
O63 Mg56 1.986 . S
O63 C67 1.246 . S
O64 Mg59 2.032 . S
O64 C67 1.259 . S
O65 Mg56 2.114 . S
O65 C68 1.252 . S
O66 Mg56 2.251 . S
O66 Mg59 2.079 . S
O66 C68 1.273 . S
C67 O63 1.246 . S
C67 O64 1.259 . S
C68 O65 1.252 . S
C68 O66 1.273 . S
O69 Mg56 2.010 . S
O69 C61 1.249 . S
Mg70 O71 2.028 . S
Mg70 O77 1.986 . S
Mg70 O79 2.114 . S
Mg70 O80 2.251 . S
Mg70 O83 2.010 . S
O71 Mg70 2.028 . S
O71 C74 1.250 . S
O72 Mg73 2.028 . S
O72 C74 1.248 . S
Mg73 O72 2.028 . S
Mg73 O78 2.032 . S
Mg73 O80 2.079 . S
C74 O71 1.250 . S
C74 O72 1.248 . S
C75 O76 1.264 . S
C75 O83 1.249 . S
O76 C75 1.264 . S
O77 Mg70 1.986 . S
O77 C81 1.246 . S
O78 Mg73 2.032 . S
O78 C81 1.259 . S
O79 Mg70 2.114 . S
O79 C82 1.252 . S
O80 Mg70 2.251 . S
O80 Mg73 2.079 . S
O80 C82 1.273 . S
C81 O77 1.246 . S
C81 O78 1.259 . S
C82 O79 1.252 . S
C82 O80 1.273 . S
O83 Mg70 2.010 . S
O83 C75 1.249 . S
Mg84 O85 2.028 . S
Mg84 O91 1.986 . S
Mg84 O93 2.114 . S
Mg84 O94 2.251 . S
Mg84 O97 2.010 . S
O85 Mg84 2.028 . S
O85 C88 1.250 . S
O86 Mg87 2.028 . S
O86 C88 1.248 . S
Mg87 O86 2.028 . S
Mg87 O92 2.032 . S
Mg87 O94 2.079 . S
C88 O85 1.250 . S
C88 O86 1.248 . S
C89 O90 1.264 . S
C89 O97 1.249 . S
O90 C89 1.264 . S
O91 Mg84 1.986 . S
O91 C95 1.246 . S
O92 Mg87 2.032 . S
O92 C95 1.259 . S
O93 Mg84 2.114 . S
O93 C96 1.252 . S
O94 Mg84 2.251 . S
O94 Mg87 2.079 . S
O94 C96 1.273 . S
C95 O91 1.246 . S
C95 O92 1.259 . S
C96 O93 1.252 . S
C96 O94 1.273 . S
O97 Mg84 2.010 . S
O97 C89 1.249 . S
Mg98 O99 2.028 . S
Mg98 O105 1.986 . S
Mg98 O107 2.114 . S
Mg98 O108 2.251 . S
Mg98 O111 2.010 . S
O99 Mg98 2.028 . S
O99 C102 1.250 . S
O100 Mg101 2.028 . S
O100 C102 1.248 . S
Mg101 O100 2.028 . S
Mg101 O106 2.032 . S
Mg101 O108 2.079 . S
C102 O99 1.250 . S
C102 O100 1.248 . S
C103 O104 1.264 . S
C103 O111 1.249 . S
O104 C103 1.264 . S
O105 Mg98 1.986 . S
O105 C109 1.246 . S
O106 Mg101 2.032 . S
O106 C109 1.259 . S
O107 Mg98 2.114 . S
O107 C110 1.252 . S
O108 Mg98 2.251 . S
O108 Mg101 2.079 . S
O108 C110 1.273 . S
C109 O105 1.246 . S
C109 O106 1.259 . S
C110 O107 1.252 . S
C110 O108 1.273 . S
O111 Mg98 2.010 . S
O111 C103 1.249 . S
Mg112 O113 2.028 . S
Mg112 O119 1.986 . S
Mg112 O121 2.114 . S
Mg112 O122 2.251 . S
Mg112 O125 2.010 . S
O113 Mg112 2.028 . S
O113 C116 1.250 . S
O114 Mg115 2.028 . S
O114 C116 1.248 . S
Mg115 O114 2.028 . S
Mg115 O120 2.032 . S
Mg115 O122 2.079 . S
C116 O113 1.250 . S
C116 O114 1.248 . S
C117 O118 1.264 . S
C117 O125 1.249 . S
O118 C117 1.264 . S
O119 Mg112 1.986 . S
O119 C123 1.246 . S
O120 Mg115 2.032 . S
O120 C123 1.259 . S
O121 Mg112 2.114 . S
O121 C124 1.252 . S
O122 Mg112 2.251 . S
O122 Mg115 2.079 . S
O122 C124 1.273 . S
C123 O119 1.246 . S
C123 O120 1.259 . S
C124 O121 1.252 . S
C124 O122 1.273 . S
O125 Mg112 2.010 . S
O125 C117 1.249 . S
Mg126 O127 2.028 . S
Mg126 O133 1.986 . S
Mg126 O135 2.114 . S
Mg126 O136 2.251 . S
Mg126 O139 2.010 . S
O127 Mg126 2.028 . S
O127 C130 1.250 . S
O128 Mg129 2.028 . S
O128 C130 1.248 . S
Mg129 O128 2.028 . S
Mg129 O134 2.032 . S
Mg129 O136 2.079 . S
C130 O127 1.250 . S
C130 O128 1.248 . S
C131 O132 1.264 . S
C131 O139 1.249 . S
O132 C131 1.264 . S
O133 Mg126 1.986 . S
O133 C137 1.246 . S
O134 Mg129 2.032 . S
O134 C137 1.259 . S
O135 Mg126 2.114 . S
O135 C138 1.252 . S
O136 Mg126 2.251 . S
O136 Mg129 2.079 . S
O136 C138 1.273 . S
C137 O133 1.246 . S
C137 O134 1.259 . S
C138 O135 1.252 . S
C138 O136 1.273 . S
O139 Mg126 2.010 . S
O139 C131 1.249 . S
Mg140 O141 2.028 . S
Mg140 O147 1.986 . S
Mg140 O149 2.114 . S
Mg140 O150 2.251 . S
Mg140 O153 2.010 . S
O141 Mg140 2.028 . S
O141 C144 1.250 . S
O142 Mg143 2.028 . S
O142 C144 1.248 . S
Mg143 O142 2.028 . S
Mg143 O148 2.032 . S
Mg143 O150 2.079 . S
C144 O141 1.250 . S
C144 O142 1.248 . S
C145 O146 1.264 . S
C145 O153 1.249 . S
O146 C145 1.264 . S
O147 Mg140 1.986 . S
O147 C151 1.246 . S
O148 Mg143 2.032 . S
O148 C151 1.259 . S
O149 Mg140 2.114 . S
O149 C152 1.252 . S
O150 Mg140 2.251 . S
O150 Mg143 2.079 . S
O150 C152 1.273 . S
C151 O147 1.246 . S
C151 O148 1.259 . S
C152 O149 1.252 . S
C152 O150 1.273 . S
O153 Mg140 2.010 . S
O153 C145 1.249 . S
Mg154 O155 2.028 . S
Mg154 O161 1.986 . S
Mg154 O163 2.114 . S
Mg154 O164 2.251 . S
Mg154 O167 2.010 . S
O155 Mg154 2.028 . S
O155 C158 1.250 . S
O156 Mg157 2.028 . S
O156 C158 1.248 . S
Mg157 O156 2.028 . S
Mg157 O162 2.032 . S
Mg157 O164 2.079 . S
C158 O155 1.250 . S
C158 O156 1.248 . S
C159 O160 1.264 . S
C159 O167 1.249 . S
O160 C159 1.264 . S
O161 Mg154 1.986 . S
O161 C165 1.246 . S
O162 Mg157 2.032 . S
O162 C165 1.259 . S
O163 Mg154 2.114 . S
O163 C166 1.252 . S
O164 Mg154 2.251 . S
O164 Mg157 2.079 . S
O164 C166 1.273 . S
C165 O161 1.246 . S
C165 O162 1.259 . S
C166 O163 1.252 . S
C166 O164 1.273 . S
O167 Mg154 2.010 . S
O167 C159 1.249 . S
Mg168 O169 2.028 . S
Mg168 O175 1.986 . S
Mg168 O177 2.114 . S
Mg168 O178 2.251 . S
Mg168 O181 2.010 . S
O169 Mg168 2.028 . S
O169 C172 1.250 . S
O170 Mg171 2.028 . S
O170 C172 1.248 . S
Mg171 O170 2.028 . S
Mg171 O176 2.032 . S
Mg171 O178 2.079 . S
C172 O169 1.250 . S
C172 O170 1.248 . S
C173 O174 1.264 . S
C173 O181 1.249 . S
O174 C173 1.264 . S
O175 Mg168 1.986 . S
O175 C179 1.246 . S
O176 Mg171 2.032 . S
O176 C179 1.259 . S
O177 Mg168 2.114 . S
O177 C180 1.252 . S
O178 Mg168 2.251 . S
O178 Mg171 2.079 . S
O178 C180 1.273 . S
C179 O175 1.246 . S
C179 O176 1.259 . S
C180 O177 1.252 . S
C180 O178 1.273 . S
O181 Mg168 2.010 . S
O181 C173 1.249 . S
Mg182 O183 2.028 . S
Mg182 O189 1.986 . S
Mg182 O191 2.114 . S
Mg182 O192 2.251 . S
Mg182 O195 2.010 . S
O183 Mg182 2.028 . S
O183 C186 1.250 . S
O184 Mg185 2.028 . S
O184 C186 1.248 . S
Mg185 O184 2.028 . S
Mg185 O190 2.032 . S
Mg185 O192 2.079 . S
C186 O183 1.250 . S
C186 O184 1.248 . S
C187 O188 1.264 . S
C187 O195 1.249 . S
O188 C187 1.264 . S
O189 Mg182 1.986 . S
O189 C193 1.246 . S
O190 Mg185 2.032 . S
O190 C193 1.259 . S
O191 Mg182 2.114 . S
O191 C194 1.252 . S
O192 Mg182 2.251 . S
O192 Mg185 2.079 . S
O192 C194 1.273 . S
C193 O189 1.246 . S
C193 O190 1.259 . S
C194 O191 1.252 . S
C194 O192 1.273 . S
O195 Mg182 2.010 . S
O195 C187 1.249 . S
Mg196 O197 2.028 . S
Mg196 O203 1.986 . S
Mg196 O205 2.114 . S
Mg196 O206 2.251 . S
Mg196 O209 2.010 . S
O197 Mg196 2.028 . S
O197 C200 1.250 . S
O198 Mg199 2.028 . S
O198 C200 1.248 . S
Mg199 O198 2.028 . S
Mg199 O204 2.032 . S
Mg199 O206 2.079 . S
C200 O197 1.250 . S
C200 O198 1.248 . S
C201 O202 1.264 . S
C201 O209 1.249 . S
O202 C201 1.264 . S
O203 Mg196 1.986 . S
O203 C207 1.246 . S
O204 Mg199 2.032 . S
O204 C207 1.259 . S
O205 Mg196 2.114 . S
O205 C208 1.252 . S
O206 Mg196 2.251 . S
O206 Mg199 2.079 . S
O206 C208 1.273 . S
C207 O203 1.246 . S
C207 O204 1.259 . S
C208 O205 1.252 . S
C208 O206 1.273 . S
O209 Mg196 2.010 . S
O209 C201 1.249 . S
Mg210 O211 2.028 . S
Mg210 O217 1.986 . S
Mg210 O219 2.114 . S
Mg210 O220 2.251 . S
Mg210 O223 2.010 . S
O211 Mg210 2.028 . S
O211 C214 1.250 . S
O212 Mg213 2.028 . S
O212 C214 1.248 . S
Mg213 O212 2.028 . S
Mg213 O218 2.032 . S
Mg213 O220 2.079 . S
C214 O211 1.250 . S
C214 O212 1.248 . S
C215 O216 1.264 . S
C215 O223 1.249 . S
O216 C215 1.264 . S
O217 Mg210 1.986 . S
O217 C221 1.246 . S
O218 Mg213 2.032 . S
O218 C221 1.259 . S
O219 Mg210 2.114 . S
O219 C222 1.252 . S
O220 Mg210 2.251 . S
O220 Mg213 2.079 . S
O220 C222 1.273 . S
C221 O217 1.246 . S
C221 O218 1.259 . S
C222 O219 1.252 . S
C222 O220 1.273 . S
O223 Mg210 2.010 . S
O223 C215 1.249 . S
Mg224 O225 2.028 . S
Mg224 O231 1.986 . S
Mg224 O233 2.114 . S
Mg224 O234 2.251 . S
Mg224 O237 2.010 . S
O225 Mg224 2.028 . S
O225 C228 1.250 . S
O226 Mg227 2.028 . S
O226 C228 1.248 . S
Mg227 O226 2.028 . S
Mg227 O232 2.032 . S
Mg227 O234 2.079 . S
C228 O225 1.250 . S
C228 O226 1.248 . S
C229 O230 1.264 . S
C229 O237 1.249 . S
O230 C229 1.264 . S
O231 Mg224 1.986 . S
O231 C235 1.246 . S
O232 Mg227 2.032 . S
O232 C235 1.259 . S
O233 Mg224 2.114 . S
O233 C236 1.252 . S
O234 Mg224 2.251 . S
O234 Mg227 2.079 . S
O234 C236 1.273 . S
C235 O231 1.246 . S
C235 O232 1.259 . S
C236 O233 1.252 . S
C236 O234 1.273 . S
O237 Mg224 2.010 . S
O237 C229 1.249 . S
Mg238 O239 2.028 . S
Mg238 O245 1.986 . S
Mg238 O247 2.114 . S
Mg238 O248 2.251 . S
Mg238 O251 2.010 . S
O239 Mg238 2.028 . S
O239 C242 1.250 . S
O240 Mg241 2.028 . S
O240 C242 1.248 . S
Mg241 O240 2.028 . S
Mg241 O246 2.032 . S
Mg241 O248 2.079 . S
C242 O239 1.250 . S
C242 O240 1.248 . S
C243 O244 1.264 . S
C243 O251 1.249 . S
O244 C243 1.264 . S
O245 Mg238 1.986 . S
O245 C249 1.246 . S
O246 Mg241 2.032 . S
O246 C249 1.259 . S
O247 Mg238 2.114 . S
O247 C250 1.252 . S
O248 Mg238 2.251 . S
O248 Mg241 2.079 . S
O248 C250 1.273 . S
C249 O245 1.246 . S
C249 O246 1.259 . S
C250 O247 1.252 . S
C250 O248 1.273 . S
O251 Mg238 2.010 . S
O251 C243 1.249 . S
Mg252 O253 2.028 . S
Mg252 O259 1.986 . S
Mg252 O261 2.114 . S
Mg252 O262 2.251 . S
Mg252 O265 2.010 . S
O253 Mg252 2.028 . S
O253 C256 1.250 . S
O254 Mg255 2.028 . S
O254 C256 1.248 . S
Mg255 O254 2.028 . S
Mg255 O260 2.032 . S
Mg255 O262 2.079 . S
C256 O253 1.250 . S
C256 O254 1.248 . S
C257 O258 1.264 . S
C257 O265 1.249 . S
O258 C257 1.264 . S
O259 Mg252 1.986 . S
O259 C263 1.246 . S
O260 Mg255 2.032 . S
O260 C263 1.259 . S
O261 Mg252 2.114 . S
O261 C264 1.252 . S
O262 Mg252 2.251 . S
O262 Mg255 2.079 . S
O262 C264 1.273 . S
C263 O259 1.246 . S
C263 O260 1.259 . S
C264 O261 1.252 . S
C264 O262 1.273 . S
O265 Mg252 2.010 . S
O265 C257 1.249 . S
Mg266 O267 2.028 . S
Mg266 O273 1.986 . S
Mg266 O275 2.114 . S
Mg266 O276 2.251 . S
Mg266 O279 2.010 . S
O267 Mg266 2.028 . S
O267 C270 1.250 . S
O268 Mg269 2.028 . S
O268 C270 1.248 . S
Mg269 O268 2.028 . S
Mg269 O274 2.032 . S
Mg269 O276 2.079 . S
C270 O267 1.250 . S
C270 O268 1.248 . S
C271 O272 1.264 . S
C271 O279 1.249 . S
O272 C271 1.264 . S
O273 Mg266 1.986 . S
O273 C277 1.246 . S
O274 Mg269 2.032 . S
O274 C277 1.259 . S
O275 Mg266 2.114 . S
O275 C278 1.252 . S
O276 Mg266 2.251 . S
O276 Mg269 2.079 . S
O276 C278 1.273 . S
C277 O273 1.246 . S
C277 O274 1.259 . S
C278 O275 1.252 . S
C278 O276 1.273 . S
O279 Mg266 2.010 . S
O279 C271 1.249 . S
Mg280 O281 2.028 . S
Mg280 O287 1.986 . S
Mg280 O289 2.114 . S
Mg280 O290 2.251 . S
Mg280 O293 2.010 . S
O281 Mg280 2.028 . S
O281 C284 1.250 . S
O282 Mg283 2.028 . S
O282 C284 1.248 . S
Mg283 O282 2.028 . S
Mg283 O288 2.032 . S
Mg283 O290 2.079 . S
C284 O281 1.250 . S
C284 O282 1.248 . S
C285 O286 1.264 . S
C285 O293 1.249 . S
O286 C285 1.264 . S
O287 Mg280 1.986 . S
O287 C291 1.246 . S
O288 Mg283 2.032 . S
O288 C291 1.259 . S
O289 Mg280 2.114 . S
O289 C292 1.252 . S
O290 Mg280 2.251 . S
O290 Mg283 2.079 . S
O290 C292 1.273 . S
C291 O287 1.246 . S
C291 O288 1.259 . S
C292 O289 1.252 . S
C292 O290 1.273 . S
O293 Mg280 2.010 . S
O293 C285 1.249 . S
Mg294 O295 2.028 . S
Mg294 O301 1.986 . S
Mg294 O303 2.114 . S
Mg294 O304 2.251 . S
Mg294 O307 2.010 1_554 S
O295 Mg294 2.028 . S
O295 C298 1.250 . S
O296 Mg297 2.028 . S
O296 C298 1.248 . S
Mg297 O296 2.028 . S
Mg297 O302 2.032 . S
Mg297 O304 2.079 . S
C298 O295 1.250 . S
C298 O296 1.248 . S
C299 O300 1.264 . S
C299 O307 1.249 . S
O300 C299 1.264 . S
O301 Mg294 1.986 . S
O301 C305 1.246 . S
O302 Mg297 2.032 . S
O302 C305 1.259 . S
O303 Mg294 2.114 . S
O303 C306 1.252 . S
O304 Mg294 2.251 . S
O304 Mg297 2.079 . S
O304 C306 1.273 . S
C305 O301 1.246 . S
C305 O302 1.259 . S
C306 O303 1.252 . S
C306 O304 1.273 . S
O307 Mg294 2.010 1_556 S
O307 C299 1.249 . S
Mg308 O309 2.028 . S
Mg308 O315 1.986 . S
Mg308 O317 2.114 . S
Mg308 O318 2.251 . S
Mg308 O321 2.010 1_554 S
O309 Mg308 2.028 . S
O309 C312 1.250 . S
O310 Mg311 2.028 . S
O310 C312 1.248 . S
Mg311 O310 2.028 . S
Mg311 O316 2.032 . S
Mg311 O318 2.079 . S
C312 O309 1.250 . S
C312 O310 1.248 . S
C313 O314 1.264 . S
C313 O321 1.249 . S
O314 C313 1.264 . S
O315 Mg308 1.986 . S
O315 C319 1.246 . S
O316 Mg311 2.032 . S
O316 C319 1.259 . S
O317 Mg308 2.114 . S
O317 C320 1.252 . S
O318 Mg308 2.251 . S
O318 Mg311 2.079 . S
O318 C320 1.273 . S
C319 O315 1.246 . S
C319 O316 1.259 . S
C320 O317 1.252 . S
C320 O318 1.273 . S
O321 Mg308 2.010 1_556 S
O321 C313 1.249 . S
Mg322 O323 2.028 . S
Mg322 O329 1.986 . S
Mg322 O331 2.114 . S
Mg322 O332 2.251 . S
Mg322 O335 2.010 1_554 S
O323 Mg322 2.028 . S
O323 C326 1.250 . S
O324 Mg325 2.028 . S
O324 C326 1.248 . S
Mg325 O324 2.028 . S
Mg325 O330 2.032 . S
Mg325 O332 2.079 . S
C326 O323 1.250 . S
C326 O324 1.248 . S
C327 O328 1.264 . S
C327 O335 1.249 . S
O328 C327 1.264 . S
O329 Mg322 1.986 . S
O329 C333 1.246 . S
O330 Mg325 2.032 . S
O330 C333 1.259 . S
O331 Mg322 2.114 . S
O331 C334 1.252 . S
O332 Mg322 2.251 . S
O332 Mg325 2.079 . S
O332 C334 1.273 . S
C333 O329 1.246 . S
C333 O330 1.259 . S
C334 O331 1.252 . S
C334 O332 1.273 . S
O335 Mg322 2.010 1_556 S
O335 C327 1.249 . S
Mg336 O337 2.028 . S
Mg336 O343 1.986 . S
Mg336 O345 2.114 . S
Mg336 O346 2.251 . S
Mg336 O349 2.010 . S
O337 Mg336 2.028 . S
O337 C340 1.250 . S
O338 Mg339 2.028 . S
O338 C340 1.248 . S
Mg339 O338 2.028 . S
Mg339 O344 2.032 . S
Mg339 O346 2.079 . S
C340 O337 1.250 . S
C340 O338 1.248 . S
C341 O342 1.264 . S
C341 O349 1.249 . S
O342 C341 1.264 . S
O343 Mg336 1.986 . S
O343 C347 1.246 . S
O344 Mg339 2.032 . S
O344 C347 1.259 . S
O345 Mg336 2.114 . S
O345 C348 1.252 . S
O346 Mg336 2.251 . S
O346 Mg339 2.079 . S
O346 C348 1.273 . S
C347 O343 1.246 . S
C347 O344 1.259 . S
C348 O345 1.252 . S
C348 O346 1.273 . S
O349 Mg336 2.010 . S
O349 C341 1.249 . S
Mg350 O351 2.028 . S
Mg350 O357 1.986 . S
Mg350 O359 2.114 . S
Mg350 O360 2.251 . S
Mg350 O363 2.010 . S
O351 Mg350 2.028 . S
O351 C354 1.250 . S
O352 Mg353 2.028 . S
O352 C354 1.248 . S
Mg353 O352 2.028 . S
Mg353 O358 2.032 . S
Mg353 O360 2.079 . S
C354 O351 1.250 . S
C354 O352 1.248 . S
C355 O356 1.264 . S
C355 O363 1.249 . S
O356 C355 1.264 . S
O357 Mg350 1.986 . S
O357 C361 1.246 . S
O358 Mg353 2.032 . S
O358 C361 1.259 . S
O359 Mg350 2.114 . S
O359 C362 1.252 . S
O360 Mg350 2.251 . S
O360 Mg353 2.079 . S
O360 C362 1.273 . S
C361 O357 1.246 . S
C361 O358 1.259 . S
C362 O359 1.252 . S
C362 O360 1.273 . S
O363 Mg350 2.010 . S
O363 C355 1.249 . S
Mg364 O365 2.028 . S
Mg364 O371 1.986 . S
Mg364 O373 2.114 . S
Mg364 O374 2.251 . S
Mg364 O377 2.010 . S
O365 Mg364 2.028 . S
O365 C368 1.250 . S
O366 Mg367 2.028 . S
O366 C368 1.248 . S
Mg367 O366 2.028 . S
Mg367 O372 2.032 . S
Mg367 O374 2.079 . S
C368 O365 1.250 . S
C368 O366 1.248 . S
C369 O370 1.264 . S
C369 O377 1.249 . S
O370 C369 1.264 . S
O371 Mg364 1.986 . S
O371 C375 1.246 . S
O372 Mg367 2.032 . S
O372 C375 1.259 . S
O373 Mg364 2.114 . S
O373 C376 1.252 . S
O374 Mg364 2.251 . S
O374 Mg367 2.079 . S
O374 C376 1.273 . S
C375 O371 1.246 . S
C375 O372 1.259 . S
C376 O373 1.252 . S
C376 O374 1.273 . S
O377 Mg364 2.010 . S
O377 C369 1.249 . S
Mg378 O379 2.028 . S
Mg378 O385 1.986 . S
Mg378 O387 2.114 . S
Mg378 O388 2.251 . S
Mg378 O391 2.010 1_556 S
O379 Mg378 2.028 . S
O379 C382 1.250 . S
O380 Mg381 2.028 . S
O380 C382 1.248 . S
Mg381 O380 2.028 . S
Mg381 O386 2.032 . S
Mg381 O388 2.079 . S
C382 O379 1.250 . S
C382 O380 1.248 . S
C383 O384 1.264 . S
C383 O391 1.249 . S
O384 C383 1.264 . S
O385 Mg378 1.986 . S
O385 C389 1.246 . S
O386 Mg381 2.032 . S
O386 C389 1.259 . S
O387 Mg378 2.114 . S
O387 C390 1.252 . S
O388 Mg378 2.251 . S
O388 Mg381 2.079 . S
O388 C390 1.273 . S
C389 O385 1.246 . S
C389 O386 1.259 . S
C390 O387 1.252 . S
C390 O388 1.273 . S
O391 Mg378 2.010 1_554 S
O391 C383 1.249 . S
Mg392 O393 2.028 . S
Mg392 O399 1.986 . S
Mg392 O401 2.114 . S
Mg392 O402 2.251 . S
Mg392 O405 2.010 1_556 S
O393 Mg392 2.028 . S
O393 C396 1.250 . S
O394 Mg395 2.028 . S
O394 C396 1.248 . S
Mg395 O394 2.028 . S
Mg395 O400 2.032 . S
Mg395 O402 2.079 . S
C396 O393 1.250 . S
C396 O394 1.248 . S
C397 O398 1.264 . S
C397 O405 1.249 . S
O398 C397 1.264 . S
O399 Mg392 1.986 . S
O399 C403 1.246 . S
O400 Mg395 2.032 . S
O400 C403 1.259 . S
O401 Mg392 2.114 . S
O401 C404 1.252 . S
O402 Mg392 2.251 . S
O402 Mg395 2.079 . S
O402 C404 1.273 . S
C403 O399 1.246 . S
C403 O400 1.259 . S
C404 O401 1.252 . S
C404 O402 1.273 . S
O405 Mg392 2.010 1_554 S
O405 C397 1.249 . S
Mg406 O407 2.028 . S
Mg406 O413 1.986 . S
Mg406 O415 2.114 . S
Mg406 O416 2.251 . S
Mg406 O419 2.010 1_556 S
O407 Mg406 2.028 . S
O407 C410 1.250 . S
O408 Mg409 2.028 . S
O408 C410 1.248 . S
Mg409 O408 2.028 . S
Mg409 O414 2.032 . S
Mg409 O416 2.079 . S
C410 O407 1.250 . S
C410 O408 1.248 . S
C411 O412 1.264 . S
C411 O419 1.249 . S
O412 C411 1.264 . S
O413 Mg406 1.986 . S
O413 C417 1.246 . S
O414 Mg409 2.032 . S
O414 C417 1.259 . S
O415 Mg406 2.114 . S
O415 C418 1.252 . S
O416 Mg406 2.251 . S
O416 Mg409 2.079 . S
O416 C418 1.273 . S
C417 O413 1.246 . S
C417 O414 1.259 . S
C418 O415 1.252 . S
C418 O416 1.273 . S
O419 Mg406 2.010 1_554 S
O419 C411 1.249 . S
Mg420 O421 2.028 . S
Mg420 O427 1.986 . S
Mg420 O429 2.114 . S
Mg420 O430 2.251 . S
Mg420 O433 2.010 . S
O421 Mg420 2.028 . S
O421 C424 1.250 . S
O422 Mg423 2.028 . S
O422 C424 1.248 . S
Mg423 O422 2.028 . S
Mg423 O428 2.032 . S
Mg423 O430 2.079 . S
C424 O421 1.250 . S
C424 O422 1.248 . S
C425 O426 1.264 . S
C425 O433 1.249 . S
O426 C425 1.264 . S
O427 Mg420 1.986 . S
O427 C431 1.246 . S
O428 Mg423 2.032 . S
O428 C431 1.259 . S
O429 Mg420 2.114 . S
O429 C432 1.252 . S
O430 Mg420 2.251 . S
O430 Mg423 2.079 . S
O430 C432 1.273 . S
C431 O427 1.246 . S
C431 O428 1.259 . S
C432 O429 1.252 . S
C432 O430 1.273 . S
O433 Mg420 2.010 . S
O433 C425 1.249 . S
Mg434 O435 2.028 . S
Mg434 O441 1.986 . S
Mg434 O443 2.114 . S
Mg434 O444 2.251 . S
Mg434 O447 2.010 . S
O435 Mg434 2.028 . S
O435 C438 1.250 . S
O436 Mg437 2.028 . S
O436 C438 1.248 . S
Mg437 O436 2.028 . S
Mg437 O442 2.032 . S
Mg437 O444 2.079 . S
C438 O435 1.250 . S
C438 O436 1.248 . S
C439 O440 1.264 . S
C439 O447 1.249 . S
O440 C439 1.264 . S
O441 Mg434 1.986 . S
O441 C445 1.246 . S
O442 Mg437 2.032 . S
O442 C445 1.259 . S
O443 Mg434 2.114 . S
O443 C446 1.252 . S
O444 Mg434 2.251 . S
O444 Mg437 2.079 . S
O444 C446 1.273 . S
C445 O441 1.246 . S
C445 O442 1.259 . S
C446 O443 1.252 . S
C446 O444 1.273 . S
O447 Mg434 2.010 . S
O447 C439 1.249 . S
Mg448 O449 2.028 . S
Mg448 O455 1.986 . S
Mg448 O457 2.114 . S
Mg448 O458 2.251 . S
Mg448 O461 2.010 . S
O449 Mg448 2.028 . S
O449 C452 1.250 . S
O450 Mg451 2.028 . S
O450 C452 1.248 . S
Mg451 O450 2.028 . S
Mg451 O456 2.032 . S
Mg451 O458 2.079 . S
C452 O449 1.250 . S
C452 O450 1.248 . S
C453 O454 1.264 . S
C453 O461 1.249 . S
O454 C453 1.264 . S
O455 Mg448 1.986 . S
O455 C459 1.246 . S
O456 Mg451 2.032 . S
O456 C459 1.259 . S
O457 Mg448 2.114 . S
O457 C460 1.252 . S
O458 Mg448 2.251 . S
O458 Mg451 2.079 . S
O458 C460 1.273 . S
C459 O455 1.246 . S
C459 O456 1.259 . S
C460 O457 1.252 . S
C460 O458 1.273 . S
O461 Mg448 2.010 . S
O461 C453 1.249 . S
Mg462 O463 2.028 . S
Mg462 O469 1.986 . S
Mg462 O471 2.114 . S
Mg462 O472 2.251 . S
Mg462 O475 2.010 . S
O463 Mg462 2.028 . S
O463 C466 1.250 . S
O464 Mg465 2.028 . S
O464 C466 1.248 . S
Mg465 O464 2.028 . S
Mg465 O470 2.032 . S
Mg465 O472 2.079 . S
C466 O463 1.250 . S
C466 O464 1.248 . S
C467 O468 1.264 . S
C467 O475 1.249 . S
O468 C467 1.264 . S
O469 Mg462 1.986 . S
O469 C473 1.246 . S
O470 Mg465 2.032 . S
O470 C473 1.259 . S
O471 Mg462 2.114 . S
O471 C474 1.252 . S
O472 Mg462 2.251 . S
O472 Mg465 2.079 . S
O472 C474 1.273 . S
C473 O469 1.246 . S
C473 O470 1.259 . S
C474 O471 1.252 . S
C474 O472 1.273 . S
O475 Mg462 2.010 . S
O475 C467 1.249 . S
Mg476 O477 2.028 . S
Mg476 O483 1.986 . S
Mg476 O485 2.114 . S
Mg476 O486 2.251 . S
Mg476 O489 2.010 . S
O477 Mg476 2.028 . S
O477 C480 1.250 . S
O478 Mg479 2.028 . S
O478 C480 1.248 . S
Mg479 O478 2.028 . S
Mg479 O484 2.032 . S
Mg479 O486 2.079 . S
C480 O477 1.250 . S
C480 O478 1.248 . S
C481 O482 1.264 . S
C481 O489 1.249 . S
O482 C481 1.264 . S
O483 Mg476 1.986 . S
O483 C487 1.246 . S
O484 Mg479 2.032 . S
O484 C487 1.259 . S
O485 Mg476 2.114 . S
O485 C488 1.252 . S
O486 Mg476 2.251 . S
O486 Mg479 2.079 . S
O486 C488 1.273 . S
C487 O483 1.246 . S
C487 O484 1.259 . S
C488 O485 1.252 . S
C488 O486 1.273 . S
O489 Mg476 2.010 . S
O489 C481 1.249 . S
Mg490 O491 2.028 . S
Mg490 O497 1.986 . S
Mg490 O499 2.114 . S
Mg490 O500 2.251 . S
Mg490 O503 2.010 . S
O491 Mg490 2.028 . S
O491 C494 1.250 . S
O492 Mg493 2.028 . S
O492 C494 1.248 . S
Mg493 O492 2.028 . S
Mg493 O498 2.032 . S
Mg493 O500 2.079 . S
C494 O491 1.250 . S
C494 O492 1.248 . S
C495 O496 1.264 . S
C495 O503 1.249 . S
O496 C495 1.264 . S
O497 Mg490 1.986 . S
O497 C501 1.246 . S
O498 Mg493 2.032 . S
O498 C501 1.259 . S
O499 Mg490 2.114 . S
O499 C502 1.252 . S
O500 Mg490 2.251 . S
O500 Mg493 2.079 . S
O500 C502 1.273 . S
C501 O497 1.246 . S
C501 O498 1.259 . S
C502 O499 1.252 . S
C502 O500 1.273 . S
O503 Mg490 2.010 . S
O503 C495 1.249 . S
H504 C510 0.930 . S
H505 C513 0.930 . S
H506 C514 0.930 . S
H507 C515 0.930 . S
H508 C518 0.930 . S
H509 C519 0.930 . S
C510 H504 0.930 . S
C510 C511 1.355 . S
C510 C512 1.415 . S
C511 C510 1.355 . S
C511 C513 1.419 . S
C512 C510 1.415 . S
C512 C517 1.425 . S
C512 C519 1.409 . S
C513 H505 0.930 . S
C513 C511 1.419 . S
C513 C514 1.362 . S
C514 H506 0.930 . S
C514 C513 1.362 . S
C514 C517 1.409 . S
C515 H507 0.930 . S
C515 C516 1.355 . S
C515 C517 1.415 1_554 S
C516 C515 1.355 . S
C516 C518 1.419 . S
C517 C512 1.425 . S
C517 C514 1.409 . S
C517 C515 1.415 1_556 S
C518 H508 0.930 . S
C518 C516 1.419 . S
C518 C519 1.362 1_554 S
C519 H509 0.930 . S
C519 C512 1.409 . S
C519 C518 1.362 1_556 S
H520 C526 0.930 . S
H521 C529 0.930 . S
H522 C530 0.930 . S
H523 C531 0.930 . S
H524 C534 0.930 . S
H525 C535 0.930 . S
C526 H520 0.930 . S
C526 C527 1.355 . S
C526 C528 1.415 . S
C527 C526 1.355 . S
C527 C529 1.419 . S
C528 C526 1.415 . S
C528 C533 1.425 . S
C528 C535 1.409 . S
C529 H521 0.930 . S
C529 C527 1.419 . S
C529 C530 1.362 . S
C530 H522 0.930 . S
C530 C529 1.362 . S
C530 C533 1.409 . S
C531 H523 0.930 . S
C531 C532 1.355 . S
C531 C533 1.415 1_554 S
C532 C531 1.355 . S
C532 C534 1.419 . S
C533 C528 1.425 . S
C533 C530 1.409 . S
C533 C531 1.415 1_556 S
C534 H524 0.930 . S
C534 C532 1.419 . S
C534 C535 1.362 1_554 S
C535 H525 0.930 . S
C535 C528 1.409 . S
C535 C534 1.362 1_556 S
H536 C542 0.930 . S
H537 C545 0.930 . S
H538 C546 0.930 . S
H539 C547 0.930 . S
H540 C550 0.930 . S
H541 C551 0.930 . S
C542 H536 0.930 . S
C542 C543 1.355 . S
C542 C544 1.415 1_554 S
C543 C542 1.355 . S
C543 C545 1.419 . S
C544 C542 1.415 1_556 S
C544 C549 1.425 . S
C544 C551 1.409 . S
C545 H537 0.930 . S
C545 C543 1.419 . S
C545 C546 1.362 1_554 S
C546 H538 0.930 . S
C546 C545 1.362 1_556 S
C546 C549 1.409 . S
C547 H539 0.930 . S
C547 C548 1.355 . S
C547 C549 1.415 . S
C548 C547 1.355 . S
C548 C550 1.419 . S
C549 C544 1.425 . S
C549 C546 1.409 . S
C549 C547 1.415 . S
C550 H540 0.930 . S
C550 C548 1.419 . S
C550 C551 1.362 . S
C551 H541 0.930 . S
C551 C544 1.409 . S
C551 C550 1.362 . S
H552 C558 0.930 . S
H553 C561 0.930 . S
H554 C562 0.930 . S
H555 C563 0.930 . S
H556 C566 0.930 . S
H557 C567 0.930 . S
C558 H552 0.930 . S
C558 C559 1.355 . S
C558 C560 1.415 . S
C559 C558 1.355 . S
C559 C561 1.419 . S
C560 C558 1.415 . S
C560 C565 1.425 . S
C560 C567 1.409 . S
C561 H553 0.930 . S
C561 C559 1.419 . S
C561 C562 1.362 . S
C562 H554 0.930 . S
C562 C561 1.362 . S
C562 C565 1.409 . S
C563 H555 0.930 . S
C563 C564 1.355 . S
C563 C565 1.415 . S
C564 C563 1.355 . S
C564 C566 1.419 . S
C565 C560 1.425 . S
C565 C562 1.409 . S
C565 C563 1.415 . S
C566 H556 0.930 . S
C566 C564 1.419 . S
C566 C567 1.362 . S
C567 H557 0.930 . S
C567 C560 1.409 . S
C567 C566 1.362 . S
H568 C574 0.930 . S
H569 C577 0.930 . S
H570 C578 0.930 . S
H571 C579 0.930 . S
H572 C582 0.930 . S
H573 C583 0.930 . S
C574 H568 0.930 . S
C574 C575 1.355 . S
C574 C576 1.415 . S
C575 C574 1.355 . S
C575 C577 1.419 . S
C576 C574 1.415 . S
C576 C581 1.425 . S
C576 C583 1.409 . S
C577 H569 0.930 . S
C577 C575 1.419 . S
C577 C578 1.362 . S
C578 H570 0.930 . S
C578 C577 1.362 . S
C578 C581 1.409 . S
C579 H571 0.930 . S
C579 C580 1.355 . S
C579 C581 1.415 . S
C580 C579 1.355 . S
C580 C582 1.419 . S
C581 C576 1.425 . S
C581 C578 1.409 . S
C581 C579 1.415 . S
C582 H572 0.930 . S
C582 C580 1.419 . S
C582 C583 1.362 . S
C583 H573 0.930 . S
C583 C576 1.409 . S
C583 C582 1.362 . S
H584 C590 0.930 . S
H585 C593 0.930 . S
H586 C594 0.930 . S
H587 C595 0.930 . S
H588 C598 0.930 . S
H589 C599 0.930 . S
C590 H584 0.930 . S
C590 C591 1.355 . S
C590 C592 1.415 . S
C591 C590 1.355 . S
C591 C593 1.419 . S
C592 C590 1.415 . S
C592 C597 1.425 . S
C592 C599 1.409 . S
C593 H585 0.930 . S
C593 C591 1.419 . S
C593 C594 1.362 . S
C594 H586 0.930 . S
C594 C593 1.362 . S
C594 C597 1.409 . S
C595 H587 0.930 . S
C595 C596 1.355 . S
C595 C597 1.415 . S
C596 C595 1.355 . S
C596 C598 1.419 . S
C597 C592 1.425 . S
C597 C594 1.409 . S
C597 C595 1.415 . S
C598 H588 0.930 . S
C598 C596 1.419 . S
C598 C599 1.362 . S
C599 H589 0.930 . S
C599 C592 1.409 . S
C599 C598 1.362 . S
H600 C606 0.930 . S
H601 C609 0.930 . S
H602 C610 0.930 . S
H603 C611 0.930 . S
H604 C614 0.930 . S
H605 C615 0.930 . S
C606 H600 0.930 . S
C606 C607 1.355 . S
C606 C608 1.415 . S
C607 C606 1.355 . S
C607 C609 1.419 . S
C608 C606 1.415 . S
C608 C613 1.425 . S
C608 C615 1.409 . S
C609 H601 0.930 . S
C609 C607 1.419 . S
C609 C610 1.362 . S
C610 H602 0.930 . S
C610 C609 1.362 . S
C610 C613 1.409 . S
C611 H603 0.930 . S
C611 C612 1.355 . S
C611 C613 1.415 1_556 S
C612 C611 1.355 . S
C612 C614 1.419 . S
C613 C608 1.425 . S
C613 C610 1.409 . S
C613 C611 1.415 1_554 S
C614 H604 0.930 . S
C614 C612 1.419 . S
C614 C615 1.362 1_556 S
C615 H605 0.930 . S
C615 C608 1.409 . S
C615 C614 1.362 1_554 S
H616 C622 0.930 . S
H617 C625 0.930 . S
H618 C626 0.930 . S
H619 C627 0.930 . S
H620 C630 0.930 . S
H621 C631 0.930 . S
C622 H616 0.930 . S
C622 C623 1.355 . S
C622 C624 1.415 . S
C623 C622 1.355 . S
C623 C625 1.419 . S
C624 C622 1.415 . S
C624 C629 1.425 . S
C624 C631 1.409 . S
C625 H617 0.930 . S
C625 C623 1.419 . S
C625 C626 1.362 . S
C626 H618 0.930 . S
C626 C625 1.362 . S
C626 C629 1.409 . S
C627 H619 0.930 . S
C627 C628 1.355 . S
C627 C629 1.415 1_556 S
C628 C627 1.355 . S
C628 C630 1.419 . S
C629 C624 1.425 . S
C629 C626 1.409 . S
C629 C627 1.415 1_554 S
C630 H620 0.930 . S
C630 C628 1.419 . S
C630 C631 1.362 1_556 S
C631 H621 0.930 . S
C631 C624 1.409 . S
C631 C630 1.362 1_554 S
H632 C638 0.930 . S
H633 C641 0.930 . S
H634 C642 0.930 . S
H635 C643 0.930 . S
H636 C646 0.930 . S
H637 C647 0.930 . S
C638 H632 0.930 . S
C638 C639 1.355 . S
C638 C640 1.415 1_556 S
C639 C638 1.355 . S
C639 C641 1.419 . S
C640 C638 1.415 1_554 S
C640 C645 1.425 . S
C640 C647 1.409 . S
C641 H633 0.930 . S
C641 C639 1.419 . S
C641 C642 1.362 1_556 S
C642 H634 0.930 . S
C642 C641 1.362 1_554 S
C642 C645 1.409 . S
C643 H635 0.930 . S
C643 C644 1.355 . S
C643 C645 1.415 . S
C644 C643 1.355 . S
C644 C646 1.419 . S
C645 C640 1.425 . S
C645 C642 1.409 . S
C645 C643 1.415 . S
C646 H636 0.930 . S
C646 C644 1.419 . S
C646 C647 1.362 . S
C647 H637 0.930 . S
C647 C640 1.409 . S
C647 C646 1.362 . S
H648 C654 0.930 . S
H649 C657 0.930 . S
H650 C658 0.930 . S
H651 C659 0.930 . S
H652 C662 0.930 . S
H653 C663 0.930 . S
C654 H648 0.930 . S
C654 C655 1.355 . S
C654 C656 1.415 . S
C655 C654 1.355 . S
C655 C657 1.419 . S
C656 C654 1.415 . S
C656 C661 1.425 . S
C656 C663 1.409 . S
C657 H649 0.930 . S
C657 C655 1.419 . S
C657 C658 1.362 . S
C658 H650 0.930 . S
C658 C657 1.362 . S
C658 C661 1.409 . S
C659 H651 0.930 . S
C659 C660 1.355 . S
C659 C661 1.415 . S
C660 C659 1.355 . S
C660 C662 1.419 . S
C661 C656 1.425 . S
C661 C658 1.409 . S
C661 C659 1.415 . S
C662 H652 0.930 . S
C662 C660 1.419 . S
C662 C663 1.362 . S
C663 H653 0.930 . S
C663 C656 1.409 . S
C663 C662 1.362 . S
H664 C670 0.930 . S
H665 C673 0.930 . S
H666 C674 0.930 . S
H667 C675 0.930 . S
H668 C678 0.930 . S
H669 C679 0.930 . S
C670 H664 0.930 . S
C670 C671 1.355 . S
C670 C672 1.415 . S
C671 C670 1.355 . S
C671 C673 1.419 . S
C672 C670 1.415 . S
C672 C677 1.425 . S
C672 C679 1.409 . S
C673 H665 0.930 . S
C673 C671 1.419 . S
C673 C674 1.362 . S
C674 H666 0.930 . S
C674 C673 1.362 . S
C674 C677 1.409 . S
C675 H667 0.930 . S
C675 C676 1.355 . S
C675 C677 1.415 . S
C676 C675 1.355 . S
C676 C678 1.419 . S
C677 C672 1.425 . S
C677 C674 1.409 . S
C677 C675 1.415 . S
C678 H668 0.930 . S
C678 C676 1.419 . S
C678 C679 1.362 . S
C679 H669 0.930 . S
C679 C672 1.409 . S
C679 C678 1.362 . S
H680 C686 0.930 . S
H681 C689 0.930 . S
H682 C690 0.930 . S
H683 C691 0.930 . S
H684 C694 0.930 . S
H685 C695 0.930 . S
C686 H680 0.930 . S
C686 C687 1.355 . S
C686 C688 1.415 . S
C687 C686 1.355 . S
C687 C689 1.419 . S
C688 C686 1.415 . S
C688 C693 1.425 . S
C688 C695 1.409 . S
C689 H681 0.930 . S
C689 C687 1.419 . S
C689 C690 1.362 . S
C690 H682 0.930 . S
C690 C689 1.362 . S
C690 C693 1.409 . S
C691 H683 0.930 . S
C691 C692 1.355 . S
C691 C693 1.415 . S
C692 C691 1.355 . S
C692 C694 1.419 . S
C693 C688 1.425 . S
C693 C690 1.409 . S
C693 C691 1.415 . S
C694 H684 0.930 . S
C694 C692 1.419 . S
C694 C695 1.362 . S
C695 H685 0.930 . S
C695 C688 1.409 . S
C695 C694 1.362 . S
H696 C702 0.930 . S
H697 C705 0.930 . S
H698 C706 0.930 . S
H699 C707 0.930 . S
H700 C710 0.930 . S
H701 C711 0.930 . S
C702 H696 0.930 . S
C702 C703 1.355 . S
C702 C704 1.415 . S
C703 C702 1.355 . S
C703 C705 1.419 . S
C704 C702 1.415 . S
C704 C709 1.425 . S
C704 C711 1.409 . S
C705 H697 0.930 . S
C705 C703 1.419 . S
C705 C706 1.362 . S
C706 H698 0.930 . S
C706 C705 1.362 . S
C706 C709 1.409 . S
C707 H699 0.930 . S
C707 C708 1.355 . S
C707 C709 1.415 . S
C708 C707 1.355 . S
C708 C710 1.419 . S
C709 C704 1.425 . S
C709 C706 1.409 . S
C709 C707 1.415 . S
C710 H700 0.930 . S
C710 C708 1.419 . S
C710 C711 1.362 . S
C711 H701 0.930 . S
C711 C704 1.409 . S
C711 C710 1.362 . S
H712 C718 0.930 . S
H713 C721 0.930 . S
H714 C722 0.930 . S
H715 C723 0.930 . S
H716 C726 0.930 . S
H717 C727 0.930 . S
C718 H712 0.930 . S
C718 C719 1.355 . S
C718 C720 1.415 . S
C719 C718 1.355 . S
C719 C721 1.419 . S
C720 C718 1.415 . S
C720 C725 1.425 . S
C720 C727 1.409 . S
C721 H713 0.930 . S
C721 C719 1.419 . S
C721 C722 1.362 . S
C722 H714 0.930 . S
C722 C721 1.362 . S
C722 C725 1.409 . S
C723 H715 0.930 . S
C723 C724 1.355 . S
C723 C725 1.415 . S
C724 C723 1.355 . S
C724 C726 1.419 . S
C725 C720 1.425 . S
C725 C722 1.409 . S
C725 C723 1.415 . S
C726 H716 0.930 . S
C726 C724 1.419 . S
C726 C727 1.362 . S
C727 H717 0.930 . S
C727 C720 1.409 . S
C727 C726 1.362 . S
H728 C734 0.930 . S
H729 C737 0.930 . S
H730 C738 0.930 . S
H731 C739 0.930 . S
H732 C742 0.930 . S
H733 C743 0.930 . S
C734 H728 0.930 . S
C734 C735 1.355 . S
C734 C736 1.415 . S
C735 C734 1.355 . S
C735 C737 1.419 . S
C736 C734 1.415 . S
C736 C741 1.425 . S
C736 C743 1.409 . S
C737 H729 0.930 . S
C737 C735 1.419 . S
C737 C738 1.362 . S
C738 H730 0.930 . S
C738 C737 1.362 . S
C738 C741 1.409 . S
C739 H731 0.930 . S
C739 C740 1.355 . S
C739 C741 1.415 . S
C740 C739 1.355 . S
C740 C742 1.419 . S
C741 C736 1.425 . S
C741 C738 1.409 . S
C741 C739 1.415 . S
C742 H732 0.930 . S
C742 C740 1.419 . S
C742 C743 1.362 . S
C743 H733 0.930 . S
C743 C736 1.409 . S
C743 C742 1.362 . S
H744 C750 0.930 . S
H745 C753 0.930 . S
H746 C754 0.930 . S
H747 C755 0.930 . S
H748 C758 0.930 1_554 S
H749 C759 0.930 . S
C750 H744 0.930 . S
C750 C751 1.355 . S
C750 C752 1.415 . S
C751 C750 1.355 . S
C751 C753 1.419 . S
C752 C750 1.415 . S
C752 C757 1.425 . S
C752 C759 1.409 . S
C753 H745 0.930 . S
C753 C751 1.419 . S
C753 C754 1.362 . S
C754 H746 0.930 . S
C754 C753 1.362 . S
C754 C757 1.409 . S
C755 H747 0.930 . S
C755 C756 1.346 1_556 S
C755 C757 1.415 . S
C756 C755 1.346 1_554 S
C756 C758 1.415 1_554 S
C757 C752 1.425 . S
C757 C754 1.409 . S
C757 C755 1.415 . S
C758 H748 0.930 1_556 S
C758 C756 1.415 1_556 S
C758 C759 1.362 . S
C759 H749 0.930 . S
C759 C752 1.409 . S
C759 C758 1.362 . S
H760 C766 0.930 . S
H761 C769 0.930 . S
H762 C770 0.930 . S
H763 C771 0.930 . S
H764 C774 0.930 1_554 S
H765 C775 0.930 . S
C766 H760 0.930 . S
C766 C767 1.355 . S
C766 C768 1.415 . S
C767 C766 1.355 . S
C767 C769 1.419 . S
C768 C766 1.415 . S
C768 C773 1.425 . S
C768 C775 1.409 . S
C769 H761 0.930 . S
C769 C767 1.419 . S
C769 C770 1.362 . S
C770 H762 0.930 . S
C770 C769 1.362 . S
C770 C773 1.409 . S
C771 H763 0.930 . S
C771 C772 1.348 1_556 S
C771 C773 1.415 . S
C772 C771 1.348 1_554 S
C772 C774 1.416 1_554 S
C773 C768 1.425 . S
C773 C770 1.409 . S
C773 C771 1.415 . S
C774 H764 0.930 1_556 S
C774 C772 1.416 1_556 S
C774 C775 1.362 . S
C775 H765 0.930 . S
C775 C768 1.409 . S
C775 C774 1.362 . S
H776 C782 0.930 . S
H777 C785 0.930 . S
H778 C786 0.930 . S
H779 C787 0.930 . S
H780 C790 0.930 1_554 S
H781 C791 0.930 . S
C782 H776 0.930 . S
C782 C783 1.355 . S
C782 C784 1.415 . S
C783 C782 1.355 . S
C783 C785 1.419 . S
C784 C782 1.415 . S
C784 C789 1.425 . S
C784 C791 1.409 . S
C785 H777 0.930 . S
C785 C783 1.419 . S
C785 C786 1.362 . S
C786 H778 0.930 . S
C786 C785 1.362 . S
C786 C789 1.409 . S
C787 H779 0.930 . S
C787 C788 1.349 1_556 S
C787 C789 1.415 . S
C788 C787 1.349 1_554 S
C788 C790 1.417 1_554 S
C789 C784 1.425 . S
C789 C786 1.409 . S
C789 C787 1.415 . S
C790 H780 0.930 1_556 S
C790 C788 1.417 1_556 S
C790 C791 1.362 . S
C791 H781 0.930 . S
C791 C784 1.409 . S
C791 C790 1.362 . S
H792 C798 0.930 . S
H793 C801 0.930 . S
H794 C802 0.930 . S
H795 C803 0.930 . S
H796 C806 0.930 . S
H797 C807 0.930 . S
C798 H792 0.930 . S
C798 C799 1.355 . S
C798 C800 1.415 . S
C799 C798 1.355 . S
C799 C801 1.419 . S
C800 C798 1.415 . S
C800 C805 1.425 . S
C800 C807 1.409 . S
C801 H793 0.930 . S
C801 C799 1.419 . S
C801 C802 1.362 . S
C802 H794 0.930 . S
C802 C801 1.362 . S
C802 C805 1.409 . S
C803 H795 0.930 . S
C803 C804 1.355 . S
C803 C805 1.415 . S
C804 C803 1.355 . S
C804 C806 1.419 . S
C805 C800 1.425 . S
C805 C802 1.409 . S
C805 C803 1.415 . S
C806 H796 0.930 . S
C806 C804 1.419 . S
C806 C807 1.362 . S
C807 H797 0.930 . S
C807 C800 1.409 . S
C807 C806 1.362 . S
H808 C814 0.930 . S
H809 C817 0.930 . S
H810 C818 0.930 . S
H811 C819 0.930 . S
H812 C822 0.930 . S
H813 C823 0.930 . S
C814 H808 0.930 . S
C814 C815 1.355 . S
C814 C816 1.415 . S
C815 C814 1.355 . S
C815 C817 1.419 . S
C816 C814 1.415 . S
C816 C821 1.425 . S
C816 C823 1.409 . S
C817 H809 0.930 . S
C817 C815 1.419 . S
C817 C818 1.362 . S
C818 H810 0.930 . S
C818 C817 1.362 . S
C818 C821 1.409 . S
C819 H811 0.930 . S
C819 C820 1.355 . S
C819 C821 1.415 . S
C820 C819 1.355 . S
C820 C822 1.419 . S
C821 C816 1.425 . S
C821 C818 1.409 . S
C821 C819 1.415 . S
C822 H812 0.930 . S
C822 C820 1.419 . S
C822 C823 1.362 . S
C823 H813 0.930 . S
C823 C816 1.409 . S
C823 C822 1.362 . S
H824 C830 0.930 . S
H825 C833 0.930 . S
H826 C834 0.930 . S
H827 C835 0.930 . S
H828 C838 0.930 . S
H829 C839 0.930 . S
C830 H824 0.930 . S
C830 C831 1.355 . S
C830 C832 1.415 . S
C831 C830 1.355 . S
C831 C833 1.419 . S
C832 C830 1.415 . S
C832 C837 1.425 . S
C832 C839 1.409 . S
C833 H825 0.930 . S
C833 C831 1.419 . S
C833 C834 1.362 . S
C834 H826 0.930 . S
C834 C833 1.362 . S
C834 C837 1.409 . S
C835 H827 0.930 . S
C835 C836 1.355 . S
C835 C837 1.415 . S
C836 C835 1.355 . S
C836 C838 1.419 . S
C837 C832 1.425 . S
C837 C834 1.409 . S
C837 C835 1.415 . S
C838 H828 0.930 . S
C838 C836 1.419 . S
C838 C839 1.362 . S
C839 H829 0.930 . S
C839 C832 1.409 . S
C839 C838 1.362 . S
H840 C846 0.930 . S
H841 C849 0.930 . S
H842 C850 0.930 . S
H843 C851 0.930 . S
H844 C854 0.930 . S
H845 C855 0.930 . S
C846 H840 0.930 . S
C846 C847 1.355 . S
C846 C848 1.415 . S
C847 C846 1.355 . S
C847 C849 1.419 . S
C848 C846 1.415 . S
C848 C853 1.425 . S
C848 C855 1.409 . S
C849 H841 0.930 . S
C849 C847 1.419 . S
C849 C850 1.362 . S
C850 H842 0.930 . S
C850 C849 1.362 . S
C850 C853 1.409 . S
C851 H843 0.930 . S
C851 C852 1.355 . S
C851 C853 1.415 . S
C852 C851 1.355 . S
C852 C854 1.419 . S
C853 C848 1.425 . S
C853 C850 1.409 . S
C853 C851 1.415 . S
C854 H844 0.930 . S
C854 C852 1.419 . S
C854 C855 1.362 . S
C855 H845 0.930 . S
C855 C848 1.409 . S
C855 C854 1.362 . S
H856 C862 0.930 . S
H857 C865 0.930 . S
H858 C866 0.930 . S
H859 C867 0.930 . S
H860 C870 0.930 . S
H861 C871 0.930 . S
C862 H856 0.930 . S
C862 C863 1.355 . S
C862 C864 1.415 . S
C863 C862 1.355 . S
C863 C865 1.419 . S
C864 C862 1.415 . S
C864 C869 1.425 . S
C864 C871 1.409 . S
C865 H857 0.930 . S
C865 C863 1.419 . S
C865 C866 1.362 . S
C866 H858 0.930 . S
C866 C865 1.362 . S
C866 C869 1.409 . S
C867 H859 0.930 . S
C867 C868 1.355 . S
C867 C869 1.415 . S
C868 C867 1.355 . S
C868 C870 1.419 . S
C869 C864 1.425 . S
C869 C866 1.409 . S
C869 C867 1.415 . S
C870 H860 0.930 . S
C870 C868 1.419 . S
C870 C871 1.362 . S
C871 H861 0.930 . S
C871 C864 1.409 . S
C871 C870 1.362 . S
H872 C878 0.930 . S
H873 C881 0.930 . S
H874 C882 0.930 . S
H875 C883 0.930 . S
H876 C886 0.930 . S
H877 C887 0.930 . S
C878 H872 0.930 . S
C878 C879 1.355 . S
C878 C880 1.415 . S
C879 C878 1.355 . S
C879 C881 1.419 . S
C880 C878 1.415 . S
C880 C885 1.425 . S
C880 C887 1.409 . S
C881 H873 0.930 . S
C881 C879 1.419 . S
C881 C882 1.362 . S
C882 H874 0.930 . S
C882 C881 1.362 . S
C882 C885 1.409 . S
C883 H875 0.930 . S
C883 C884 1.355 . S
C883 C885 1.415 . S
C884 C883 1.355 . S
C884 C886 1.419 . S
C885 C880 1.425 . S
C885 C882 1.409 . S
C885 C883 1.415 . S
C886 H876 0.930 . S
C886 C884 1.419 . S
C886 C887 1.362 . S
C887 H877 0.930 . S
C887 C880 1.409 . S
C887 C886 1.362 . S
H888 C894 0.930 . S
H889 C897 0.930 . S
H890 C898 0.930 . S
H891 C899 0.930 . S
H892 C902 0.930 . S
H893 C903 0.930 . S
C894 H888 0.930 . S
C894 C895 1.355 . S
C894 C896 1.415 . S
C895 C894 1.355 . S
C895 C897 1.419 . S
C896 C894 1.415 . S
C896 C901 1.425 . S
C896 C903 1.409 . S
C897 H889 0.930 . S
C897 C895 1.419 . S
C897 C898 1.362 . S
C898 H890 0.930 . S
C898 C897 1.362 . S
C898 C901 1.409 . S
C899 H891 0.930 . S
C899 C900 1.355 . S
C899 C901 1.415 . S
C900 C899 1.355 . S
C900 C902 1.419 . S
C901 C896 1.425 . S
C901 C898 1.409 . S
C901 C899 1.415 . S
C902 H892 0.930 . S
C902 C900 1.419 . S
C902 C903 1.362 . S
C903 H893 0.930 . S
C903 C896 1.409 . S
C903 C902 1.362 . S
H904 C910 0.930 . S
H905 C913 0.930 . S
H906 C914 0.930 . S
H907 C915 0.930 . S
H908 C918 0.930 . S
H909 C919 0.930 . S
C910 H904 0.930 . S
C910 C911 1.355 . S
C910 C912 1.415 . S
C911 C910 1.355 . S
C911 C913 1.419 . S
C912 C910 1.415 . S
C912 C917 1.425 . S
C912 C919 1.409 . S
C913 H905 0.930 . S
C913 C911 1.419 . S
C913 C914 1.362 . S
C914 H906 0.930 . S
C914 C913 1.362 . S
C914 C917 1.409 . S
C915 H907 0.930 . S
C915 C916 1.355 . S
C915 C917 1.415 . S
C916 C915 1.355 . S
C916 C918 1.419 . S
C917 C912 1.425 . S
C917 C914 1.409 . S
C917 C915 1.415 . S
C918 H908 0.930 . S
C918 C916 1.419 . S
C918 C919 1.362 . S
C919 H909 0.930 . S
C919 C912 1.409 . S
C919 C918 1.362 . S
H920 C926 0.930 . S
H921 C929 0.930 . S
H922 C930 0.930 . S
H923 C931 0.930 . S
H924 C934 0.930 . S
H925 C935 0.930 . S
C926 H920 0.930 . S
C926 C927 1.355 . S
C926 C928 1.415 . S
C927 C926 1.355 . S
C927 C929 1.419 . S
C928 C926 1.415 . S
C928 C933 1.425 . S
C928 C935 1.409 . S
C929 H921 0.930 . S
C929 C927 1.419 . S
C929 C930 1.362 . S
C930 H922 0.930 . S
C930 C929 1.362 . S
C930 C933 1.409 . S
C931 H923 0.930 . S
C931 C932 1.355 . S
C931 C933 1.415 . S
C932 C931 1.355 . S
C932 C934 1.419 . S
C933 C928 1.425 . S
C933 C930 1.409 . S
C933 C931 1.415 . S
C934 H924 0.930 . S
C934 C932 1.419 . S
C934 C935 1.362 . S
C935 H925 0.930 . S
C935 C928 1.409 . S
C935 C934 1.362 . S
H936 C942 0.930 . S
H937 C945 0.930 . S
H938 C946 0.930 . S
H939 C947 0.930 . S
H940 C950 0.930 . S
H941 C951 0.930 . S
C942 H936 0.930 . S
C942 C943 1.355 . S
C942 C944 1.415 . S
C943 C942 1.355 . S
C943 C945 1.419 . S
C944 C942 1.415 . S
C944 C949 1.425 . S
C944 C951 1.409 . S
C945 H937 0.930 . S
C945 C943 1.419 . S
C945 C946 1.362 . S
C946 H938 0.930 . S
C946 C945 1.362 . S
C946 C949 1.409 . S
C947 H939 0.930 . S
C947 C948 1.355 . S
C947 C949 1.415 . S
C948 C947 1.355 . S
C948 C950 1.419 . S
C949 C944 1.425 . S
C949 C946 1.409 . S
C949 C947 1.415 . S
C950 H940 0.930 . S
C950 C948 1.419 . S
C950 C951 1.362 . S
C951 H941 0.930 . S
C951 C944 1.409 . S
C951 C950 1.362 . S
H952 C958 0.930 . S
H953 C961 0.930 . S
H954 C962 0.930 . S
H955 C963 0.930 . S
H956 C966 0.930 . S
H957 C967 0.930 . S
C958 H952 0.930 . S
C958 C959 1.355 . S
C958 C960 1.415 . S
C959 C958 1.355 . S
C959 C961 1.419 . S
C960 C958 1.415 . S
C960 C965 1.425 . S
C960 C967 1.409 . S
C961 H953 0.930 . S
C961 C959 1.419 . S
C961 C962 1.362 . S
C962 H954 0.930 . S
C962 C961 1.362 . S
C962 C965 1.409 . S
C963 H955 0.930 . S
C963 C964 1.355 . S
C963 C965 1.415 . S
C964 C963 1.355 . S
C964 C966 1.419 . S
C965 C960 1.425 . S
C965 C962 1.409 . S
C965 C963 1.415 . S
C966 H956 0.930 . S
C966 C964 1.419 . S
C966 C967 1.362 . S
C967 H957 0.930 . S
C967 C960 1.409 . S
C967 C966 1.362 . S
H968 C974 0.930 . S
H969 C977 0.930 . S
H970 C978 0.930 . S
H971 C979 0.930 . S
H972 C982 0.930 . S
H973 C983 0.930 . S
C974 H968 0.930 . S
C974 C975 1.355 . S
C974 C976 1.415 . S
C975 C974 1.355 . S
C975 C977 1.419 . S
C976 C974 1.415 . S
C976 C981 1.425 . S
C976 C983 1.409 . S
C977 H969 0.930 . S
C977 C975 1.419 . S
C977 C978 1.362 . S
C978 H970 0.930 . S
C978 C977 1.362 . S
C978 C981 1.409 . S
C979 H971 0.930 . S
C979 C980 1.355 . S
C979 C981 1.415 . S
C980 C979 1.355 . S
C980 C982 1.419 . S
C981 C976 1.425 . S
C981 C978 1.409 . S
C981 C979 1.415 . S
C982 H972 0.930 . S
C982 C980 1.419 . S
C982 C983 1.362 . S
C983 H973 0.930 . S
C983 C976 1.409 . S
C983 C982 1.362 . S
H984 C990 0.930 . S
H985 C993 0.930 . S
H986 C994 0.930 . S
H987 C995 0.930 . S
H988 C998 0.930 . S
H989 C999 0.930 . S
C990 H984 0.930 . S
C990 C991 1.355 . S
C990 C992 1.415 . S
C991 C990 1.355 . S
C991 C993 1.419 . S
C992 C990 1.415 . S
C992 C997 1.425 . S
C992 C999 1.409 . S
C993 H985 0.930 . S
C993 C991 1.419 . S
C993 C994 1.362 . S
C994 H986 0.930 . S
C994 C993 1.362 . S
C994 C997 1.409 . S
C995 H987 0.930 . S
C995 C996 1.355 . S
C995 C997 1.415 . S
C996 C995 1.355 . S
C996 C998 1.419 . S
C997 C992 1.425 . S
C997 C994 1.409 . S
C997 C995 1.415 . S
C998 H988 0.930 . S
C998 C996 1.419 . S
C998 C999 1.362 . S
C999 H989 0.930 . S
C999 C992 1.409 . S
C999 C998 1.362 . S
H1000 C1006 0.930 . S
H1001 C1009 0.930 . S
H1002 C1010 0.930 . S
H1003 C1011 0.930 . S
H1004 C1014 0.930 . S
H1005 C1015 0.930 . S
C1006 H1000 0.930 . S
C1006 C1007 1.355 . S
C1006 C1008 1.415 . S
C1007 C1006 1.355 . S
C1007 C1009 1.419 . S
C1008 C1006 1.415 . S
C1008 C1013 1.425 . S
C1008 C1015 1.409 . S
C1009 H1001 0.930 . S
C1009 C1007 1.419 . S
C1009 C1010 1.362 . S
C1010 H1002 0.930 . S
C1010 C1009 1.362 . S
C1010 C1013 1.409 . S
C1011 H1003 0.930 . S
C1011 C1012 1.355 . S
C1011 C1013 1.415 . S
C1012 C1011 1.355 . S
C1012 C1014 1.419 . S
C1013 C1008 1.425 . S
C1013 C1010 1.409 . S
C1013 C1011 1.415 . S
C1014 H1004 0.930 . S
C1014 C1012 1.419 . S
C1014 C1015 1.362 . S
C1015 H1005 0.930 . S
C1015 C1008 1.409 . S
C1015 C1014 1.362 . S
H1016 C1022 0.930 . S
H1017 C1025 0.930 . S
H1018 C1026 0.930 . S
H1019 C1027 0.930 . S
H1020 C1030 0.930 . S
H1021 C1031 0.930 . S
C1022 H1016 0.930 . S
C1022 C1023 1.355 . S
C1022 C1024 1.415 . S
C1023 C1022 1.355 . S
C1023 C1025 1.419 . S
C1024 C1022 1.415 . S
C1024 C1029 1.425 . S
C1024 C1031 1.409 . S
C1025 H1017 0.930 . S
C1025 C1023 1.419 . S
C1025 C1026 1.362 . S
C1026 H1018 0.930 . S
C1026 C1025 1.362 . S
C1026 C1029 1.409 . S
C1027 H1019 0.930 . S
C1027 C1028 1.355 . S
C1027 C1029 1.415 . S
C1028 C1027 1.355 . S
C1028 C1030 1.419 . S
C1029 C1024 1.425 . S
C1029 C1026 1.409 . S
C1029 C1027 1.415 . S
C1030 H1020 0.930 . S
C1030 C1028 1.419 . S
C1030 C1031 1.362 . S
C1031 H1021 0.930 . S
C1031 C1024 1.409 . S
C1031 C1030 1.362 . S
H1032 C1038 0.930 . S
H1033 C1041 0.930 . S
H1034 C1042 0.930 . S
H1035 C1043 0.930 . S
H1036 C1046 0.930 1_556 S
H1037 C1047 0.930 . S
C1038 H1032 0.930 . S
C1038 C1039 1.355 . S
C1038 C1040 1.415 . S
C1039 C1038 1.355 . S
C1039 C1041 1.419 . S
C1040 C1038 1.415 . S
C1040 C1045 1.425 . S
C1040 C1047 1.409 . S
C1041 H1033 0.930 . S
C1041 C1039 1.419 . S
C1041 C1042 1.362 . S
C1042 H1034 0.930 . S
C1042 C1041 1.362 . S
C1042 C1045 1.409 . S
C1043 H1035 0.930 . S
C1043 C1044 1.347 1_554 S
C1043 C1045 1.415 . S
C1044 C1043 1.347 1_556 S
C1044 C1046 1.416 1_556 S
C1045 C1040 1.425 . S
C1045 C1042 1.409 . S
C1045 C1043 1.415 . S
C1046 H1036 0.930 1_554 S
C1046 C1044 1.416 1_554 S
C1046 C1047 1.362 . S
C1047 H1037 0.930 . S
C1047 C1040 1.409 . S
C1047 C1046 1.362 . S
H1048 C1054 0.930 . S
H1049 C1057 0.922 1_556 S
H1050 C1058 0.930 . S
H1051 C1059 0.930 . S
H1052 C1062 0.930 . S
H1053 C1063 0.930 . S
C1054 H1048 0.930 . S
C1054 C1055 1.355 1_554 S
C1054 C1056 1.415 . S
C1055 C1054 1.355 1_556 S
C1055 C1057 1.420 1_556 S
C1056 C1054 1.415 . S
C1056 C1061 1.425 . S
C1056 C1063 1.409 . S
C1057 H1049 0.922 1_554 S
C1057 C1055 1.420 1_554 S
C1057 C1058 1.362 . S
C1058 H1050 0.930 . S
C1058 C1057 1.362 . S
C1058 C1061 1.409 . S
C1059 H1051 0.930 . S
C1059 C1060 1.355 . S
C1059 C1061 1.415 . S
C1060 C1059 1.355 . S
C1060 C1062 1.419 . S
C1061 C1056 1.425 . S
C1061 C1058 1.409 . S
C1061 C1059 1.415 . S
C1062 H1052 0.930 . S
C1062 C1060 1.419 . S
C1062 C1063 1.362 . S
C1063 H1053 0.930 . S
C1063 C1056 1.409 . S
C1063 C1062 1.362 . S
H1064 C1070 0.930 . S
H1065 C1073 0.930 . S
H1066 C1074 0.930 . S
H1067 C1075 0.930 . S
H1068 C1078 0.920 1_556 S
H1069 C1079 0.930 . S
C1070 H1064 0.930 . S
C1070 C1071 1.355 . S
C1070 C1072 1.415 . S
C1071 C1070 1.355 . S
C1071 C1073 1.419 . S
C1072 C1070 1.415 . S
C1072 C1077 1.425 . S
C1072 C1079 1.409 . S
C1073 H1065 0.930 . S
C1073 C1071 1.419 . S
C1073 C1074 1.362 . S
C1074 H1066 0.930 . S
C1074 C1073 1.362 . S
C1074 C1077 1.409 . S
C1075 H1067 0.930 . S
C1075 C1076 1.356 1_554 S
C1075 C1077 1.415 . S
C1076 C1075 1.356 1_556 S
C1076 C1078 1.420 1_556 S
C1077 C1072 1.425 . S
C1077 C1074 1.409 . S
C1077 C1075 1.415 . S
C1078 H1068 0.920 1_554 S
C1078 C1076 1.420 1_554 S
C1078 C1079 1.362 . S
C1079 H1069 0.930 . S
C1079 C1072 1.409 . S
C1079 C1078 1.362 . S
H1080 C1086 0.930 . S
H1081 C1089 0.930 . S
H1082 C1090 0.930 . S
H1083 C1091 0.930 . S
H1084 C1094 0.930 . S
H1085 C1095 0.930 . S
C1086 H1080 0.930 . S
C1086 C1087 1.355 . S
C1086 C1088 1.415 . S
C1087 C1086 1.355 . S
C1087 C1089 1.419 . S
C1088 C1086 1.415 . S
C1088 C1093 1.425 . S
C1088 C1095 1.409 . S
C1089 H1081 0.930 . S
C1089 C1087 1.419 . S
C1089 C1090 1.362 . S
C1090 H1082 0.930 . S
C1090 C1089 1.362 . S
C1090 C1093 1.409 . S
C1091 H1083 0.930 . S
C1091 C1092 1.355 . S
C1091 C1093 1.415 . S
C1092 C1091 1.355 . S
C1092 C1094 1.419 . S
C1093 C1088 1.425 . S
C1093 C1090 1.409 . S
C1093 C1091 1.415 . S
C1094 H1084 0.930 . S
C1094 C1092 1.419 . S
C1094 C1095 1.362 . S
C1095 H1085 0.930 . S
C1095 C1088 1.409 . S
C1095 C1094 1.362 . S
H1096 C1102 0.930 . S
H1097 C1105 0.930 . S
H1098 C1106 0.930 . S
H1099 C1107 0.930 . S
H1100 C1110 0.930 . S
H1101 C1111 0.930 . S
C1102 H1096 0.930 . S
C1102 C1103 1.355 . S
C1102 C1104 1.415 . S
C1103 C1102 1.355 . S
C1103 C1105 1.419 . S
C1104 C1102 1.415 . S
C1104 C1109 1.425 1_565 S
C1104 C1111 1.409 1_565 S
C1105 H1097 0.930 . S
C1105 C1103 1.419 . S
C1105 C1106 1.362 . S
C1106 H1098 0.930 . S
C1106 C1105 1.362 . S
C1106 C1109 1.409 1_565 S
C1107 H1099 0.930 . S
C1107 C1108 1.355 . S
C1107 C1109 1.415 . S
C1108 C1107 1.355 . S
C1108 C1110 1.419 . S
C1109 C1104 1.425 1_545 S
C1109 C1106 1.409 1_545 S
C1109 C1107 1.415 . S
C1110 H1100 0.930 . S
C1110 C1108 1.419 . S
C1110 C1111 1.362 . S
C1111 H1101 0.930 . S
C1111 C1104 1.409 1_545 S
C1111 C1110 1.362 . S
H1112 C1118 0.930 . S
H1113 C1121 0.930 . S
H1114 C1122 0.930 1_455 S
H1115 C1123 0.930 . S
H1116 C1126 0.930 . S
H1117 C1127 0.930 1_655 S
C1118 H1112 0.930 . S
C1118 C1119 1.355 . S
C1118 C1120 1.415 . S
C1119 C1118 1.355 . S
C1119 C1121 1.419 . S
C1120 C1118 1.415 . S
C1120 C1125 1.425 1_655 S
C1120 C1127 1.409 1_655 S
C1121 H1113 0.930 . S
C1121 C1119 1.419 . S
C1121 C1122 1.362 . S
C1122 H1114 0.930 1_655 S
C1122 C1121 1.362 . S
C1122 C1125 1.409 1_655 S
C1123 H1115 0.930 . S
C1123 C1124 1.355 . S
C1123 C1125 1.415 . S
C1124 C1123 1.355 . S
C1124 C1126 1.419 . S
C1125 C1120 1.425 1_455 S
C1125 C1122 1.409 1_455 S
C1125 C1123 1.415 . S
C1126 H1116 0.930 . S
C1126 C1124 1.419 . S
C1126 C1127 1.362 . S
C1127 H1117 0.930 1_455 S
C1127 C1120 1.409 1_455 S
C1127 C1126 1.362 . S
H1128 C1134 0.930 . S
H1129 C1137 0.930 . S
H1130 C1138 0.930 . S
H1131 C1139 0.930 . S
H1132 C1142 0.930 . S
H1133 C1143 0.930 . S
C1134 H1128 0.930 . S
C1134 C1135 1.355 . S
C1134 C1136 1.415 . S
C1135 C1134 1.355 . S
C1135 C1137 1.419 . S
C1136 C1134 1.415 . S
C1136 C1141 1.425 . S
C1136 C1143 1.409 . S
C1137 H1129 0.930 . S
C1137 C1135 1.419 . S
C1137 C1138 1.362 . S
C1138 H1130 0.930 . S
C1138 C1137 1.362 . S
C1138 C1141 1.409 . S
C1139 H1131 0.930 . S
C1139 C1140 1.355 . S
C1139 C1141 1.415 . S
C1140 C1139 1.355 . S
C1140 C1142 1.419 . S
C1141 C1136 1.425 . S
C1141 C1138 1.409 . S
C1141 C1139 1.415 . S
C1142 H1132 0.930 . S
C1142 C1140 1.419 . S
C1142 C1143 1.362 . S
C1143 H1133 0.930 . S
C1143 C1136 1.409 . S
C1143 C1142 1.362 . S
H1144 C1150 0.930 . S
H1145 C1153 0.930 . S
H1146 C1154 0.931 1_565 S
H1147 C1155 0.930 . S
H1148 C1158 0.930 . S
H1149 C1159 0.931 1_545 S
C1150 H1144 0.930 . S
C1150 C1151 1.355 . S
C1150 C1152 1.415 . S
C1151 C1150 1.355 . S
C1151 C1153 1.419 . S
C1152 C1150 1.415 . S
C1152 C1157 1.425 1_545 S
C1152 C1159 1.409 1_545 S
C1153 H1145 0.930 . S
C1153 C1151 1.419 . S
C1153 C1154 1.362 . S
C1154 H1146 0.931 1_545 S
C1154 C1153 1.362 . S
C1154 C1157 1.409 1_545 S
C1155 H1147 0.930 . S
C1155 C1156 1.355 . S
C1155 C1157 1.415 . S
C1156 C1155 1.355 . S
C1156 C1158 1.419 . S
C1157 C1152 1.425 1_565 S
C1157 C1154 1.409 1_565 S
C1157 C1155 1.415 . S
C1158 H1148 0.930 . S
C1158 C1156 1.419 . S
C1158 C1159 1.362 . S
C1159 H1149 0.931 1_565 S
C1159 C1152 1.409 1_565 S
C1159 C1158 1.362 . S
H1160 C1166 0.930 . S
H1161 C1169 0.930 . S
H1162 C1170 0.930 1_455 S
H1163 C1171 0.930 . S
H1164 C1174 0.930 . S
H1165 C1175 0.930 1_655 S
C1166 H1160 0.930 . S
C1166 C1167 1.355 . S
C1166 C1168 1.415 . S
C1167 C1166 1.355 . S
C1167 C1169 1.419 . S
C1168 C1166 1.415 . S
C1168 C1173 1.425 1_655 S
C1168 C1175 1.409 1_655 S
C1169 H1161 0.930 . S
C1169 C1167 1.419 . S
C1169 C1170 1.362 . S
C1170 H1162 0.930 1_655 S
C1170 C1169 1.362 . S
C1170 C1173 1.409 1_655 S
C1171 H1163 0.930 . S
C1171 C1172 1.355 . S
C1171 C1173 1.415 . S
C1172 C1171 1.355 . S
C1172 C1174 1.419 . S
C1173 C1168 1.425 1_455 S
C1173 C1170 1.409 1_455 S
C1173 C1171 1.415 . S
C1174 H1164 0.930 . S
C1174 C1172 1.419 . S
C1174 C1175 1.362 . S
C1175 H1165 0.930 1_455 S
C1175 C1168 1.409 1_455 S
C1175 C1174 1.362 . S
H1176 C1182 0.930 . S
H1177 C1185 0.930 . S
H1178 C1186 0.930 . S
H1179 C1187 0.930 . S
H1180 C1190 0.930 . S
H1181 C1191 0.930 . S
C1182 H1176 0.930 . S
C1182 C1183 1.355 . S
C1182 C1184 1.415 . S
C1183 C1182 1.355 . S
C1183 C1185 1.419 . S
C1184 C1182 1.415 . S
C1184 C1189 1.425 . S
C1184 C1191 1.409 . S
C1185 H1177 0.930 . S
C1185 C1183 1.419 . S
C1185 C1186 1.362 . S
C1186 H1178 0.930 . S
C1186 C1185 1.362 . S
C1186 C1189 1.409 . S
C1187 H1179 0.930 . S
C1187 C1188 1.355 . S
C1187 C1189 1.415 . S
C1188 C1187 1.355 . S
C1188 C1190 1.419 . S
C1189 C1184 1.425 . S
C1189 C1186 1.409 . S
C1189 C1187 1.415 . S
C1190 H1180 0.930 . S
C1190 C1188 1.419 . S
C1190 C1191 1.362 . S
C1191 H1181 0.930 . S
C1191 C1184 1.409 . S
C1191 C1190 1.362 . S
H1192 C1198 0.930 . S
H1193 C1201 0.930 . S
H1194 C1202 0.930 . S
H1195 C1203 0.930 . S
H1196 C1206 0.930 . S
H1197 C1207 0.930 . S
C1198 H1192 0.930 . S
C1198 C1199 1.355 . S
C1198 C1200 1.415 . S
C1199 C1198 1.355 . S
C1199 C1201 1.419 . S
C1200 C1198 1.415 . S
C1200 C1205 1.425 . S
C1200 C1207 1.409 . S
C1201 H1193 0.930 . S
C1201 C1199 1.419 . S
C1201 C1202 1.362 . S
C1202 H1194 0.930 . S
C1202 C1201 1.362 . S
C1202 C1205 1.409 . S
C1203 H1195 0.930 . S
C1203 C1204 1.355 . S
C1203 C1205 1.415 . S
C1204 C1203 1.355 . S
C1204 C1206 1.419 . S
C1205 C1200 1.425 . S
C1205 C1202 1.409 . S
C1205 C1203 1.415 . S
C1206 H1196 0.930 . S
C1206 C1204 1.419 . S
C1206 C1207 1.362 . S
C1207 H1197 0.930 . S
C1207 C1200 1.409 . S
C1207 C1206 1.362 . S
H1208 C1214 0.930 . S
H1209 C1217 0.930 . S
H1210 C1218 0.930 . S
H1211 C1219 0.930 . S
H1212 C1222 0.930 . S
H1213 C1223 0.930 . S
C1214 H1208 0.930 . S
C1214 C1215 1.355 . S
C1214 C1216 1.415 . S
C1215 C1214 1.355 . S
C1215 C1217 1.419 . S
C1216 C1214 1.415 . S
C1216 C1221 1.425 . S
C1216 C1223 1.409 . S
C1217 H1209 0.930 . S
C1217 C1215 1.419 . S
C1217 C1218 1.362 . S
C1218 H1210 0.930 . S
C1218 C1217 1.362 . S
C1218 C1221 1.409 . S
C1219 H1211 0.930 . S
C1219 C1220 1.355 . S
C1219 C1221 1.415 . S
C1220 C1219 1.355 . S
C1220 C1222 1.419 . S
C1221 C1216 1.425 . S
C1221 C1218 1.409 . S
C1221 C1219 1.415 . S
C1222 H1212 0.930 . S
C1222 C1220 1.419 . S
C1222 C1223 1.362 . S
C1223 H1213 0.930 . S
C1223 C1216 1.409 . S
C1223 C1222 1.362 . S
H1224 C1230 0.930 . S
H1225 C1233 0.930 . S
H1226 C1234 0.930 . S
H1227 C1235 0.930 . S
H1228 C1238 0.930 . S
H1229 C1239 0.930 . S
C1230 H1224 0.930 . S
C1230 C1231 1.355 . S
C1230 C1232 1.415 . S
C1231 C1230 1.355 . S
C1231 C1233 1.419 . S
C1232 C1230 1.415 . S
C1232 C1237 1.425 . S
C1232 C1239 1.409 . S
C1233 H1225 0.930 . S
C1233 C1231 1.419 . S
C1233 C1234 1.362 . S
C1234 H1226 0.930 . S
C1234 C1233 1.362 . S
C1234 C1237 1.409 . S
C1235 H1227 0.930 . S
C1235 C1236 1.355 . S
C1235 C1237 1.415 . S
C1236 C1235 1.355 . S
C1236 C1238 1.419 . S
C1237 C1232 1.425 . S
C1237 C1234 1.409 . S
C1237 C1235 1.415 . S
C1238 H1228 0.930 . S
C1238 C1236 1.419 . S
C1238 C1239 1.362 . S
C1239 H1229 0.930 . S
C1239 C1232 1.409 . S
C1239 C1238 1.362 . S
H1240 C1246 0.930 . S
H1241 C1249 0.930 . S
H1242 C1250 0.930 . S
H1243 C1251 0.930 . S
H1244 C1254 0.930 . S
H1245 C1255 0.930 . S
C1246 H1240 0.930 . S
C1246 C1247 1.355 . S
C1246 C1248 1.415 . S
C1247 C1246 1.355 . S
C1247 C1249 1.419 . S
C1248 C1246 1.415 . S
C1248 C1253 1.425 . S
C1248 C1255 1.409 . S
C1249 H1241 0.930 . S
C1249 C1247 1.419 . S
C1249 C1250 1.362 . S
C1250 H1242 0.930 . S
C1250 C1249 1.362 . S
C1250 C1253 1.409 . S
C1251 H1243 0.930 . S
C1251 C1252 1.355 . S
C1251 C1253 1.415 . S
C1252 C1251 1.355 . S
C1252 C1254 1.419 . S
C1253 C1248 1.425 . S
C1253 C1250 1.409 . S
C1253 C1251 1.415 . S
C1254 H1244 0.930 . S
C1254 C1252 1.419 . S
C1254 C1255 1.362 . S
C1255 H1245 0.930 . S
C1255 C1248 1.409 . S
C1255 C1254 1.362 . S
H1256 C1262 0.930 . S
H1257 C1265 0.930 . S
H1258 C1266 0.930 . S
H1259 C1267 0.930 . S
H1260 C1270 0.930 . S
H1261 C1271 0.930 . S
C1262 H1256 0.930 . S
C1262 C1263 1.355 . S
C1262 C1264 1.415 . S
C1263 C1262 1.355 . S
C1263 C1265 1.419 . S
C1264 C1262 1.415 . S
C1264 C1269 1.425 . S
C1264 C1271 1.409 . S
C1265 H1257 0.930 . S
C1265 C1263 1.419 . S
C1265 C1266 1.362 . S
C1266 H1258 0.930 . S
C1266 C1265 1.362 . S
C1266 C1269 1.409 . S
C1267 H1259 0.930 . S
C1267 C1268 1.355 . S
C1267 C1269 1.415 . S
C1268 C1267 1.355 . S
C1268 C1270 1.419 . S
C1269 C1264 1.425 . S
C1269 C1266 1.409 . S
C1269 C1267 1.415 . S
C1270 H1260 0.930 . S
C1270 C1268 1.419 . S
C1270 C1271 1.362 . S
C1271 H1261 0.930 . S
C1271 C1264 1.409 . S
C1271 C1270 1.362 . S
H1272 C1278 0.930 . S
H1273 C1281 0.930 . S
H1274 C1282 0.930 . S
H1275 C1283 0.930 . S
H1276 C1286 0.930 . S
H1277 C1287 0.930 . S
C1278 H1272 0.930 . S
C1278 C1279 1.355 . S
C1278 C1280 1.415 . S
C1279 C1278 1.355 . S
C1279 C1281 1.419 . S
C1280 C1278 1.415 . S
C1280 C1285 1.425 . S
C1280 C1287 1.409 . S
C1281 H1273 0.930 . S
C1281 C1279 1.419 . S
C1281 C1282 1.362 . S
C1282 H1274 0.930 . S
C1282 C1281 1.362 . S
C1282 C1285 1.409 . S
C1283 H1275 0.930 . S
C1283 C1284 1.355 . S
C1283 C1285 1.415 . S
C1284 C1283 1.355 . S
C1284 C1286 1.419 . S
C1285 C1280 1.425 . S
C1285 C1282 1.409 . S
C1285 C1283 1.415 . S
C1286 H1276 0.930 . S
C1286 C1284 1.419 . S
C1286 C1287 1.362 . S
C1287 H1277 0.930 . S
C1287 C1280 1.409 . S
C1287 C1286 1.362 . S
H1288 C1294 0.930 . S
H1289 C1297 0.930 . S
H1290 C1298 0.930 . S
H1291 C1299 0.930 . S
H1292 C1302 0.930 . S
H1293 C1303 0.930 . S
C1294 H1288 0.930 . S
C1294 C1295 1.355 . S
C1294 C1296 1.415 . S
C1295 C1294 1.355 . S
C1295 C1297 1.419 . S
C1296 C1294 1.415 . S
C1296 C1301 1.425 . S
C1296 C1303 1.409 . S
C1297 H1289 0.930 . S
C1297 C1295 1.419 . S
C1297 C1298 1.362 . S
C1298 H1290 0.930 . S
C1298 C1297 1.362 . S
C1298 C1301 1.409 . S
C1299 H1291 0.930 . S
C1299 C1300 1.355 . S
C1299 C1301 1.415 . S
C1300 C1299 1.355 . S
C1300 C1302 1.419 . S
C1301 C1296 1.425 . S
C1301 C1298 1.409 . S
C1301 C1299 1.415 . S
C1302 H1292 0.930 . S
C1302 C1300 1.419 . S
C1302 C1303 1.362 . S
C1303 H1293 0.930 . S
C1303 C1296 1.409 . S
C1303 C1302 1.362 . S
H1304 C1310 0.930 . S
H1305 C1313 0.930 . S
H1306 C1314 0.930 1_554 S
H1307 C1315 0.930 1_554 S
H1308 C1318 0.930 . S
H1309 C1319 0.930 . S
C1310 H1304 0.930 . S
C1310 C1311 1.355 . S
C1310 C1312 1.415 . S
C1311 C1310 1.355 . S
C1311 C1313 1.419 . S
C1312 C1310 1.415 . S
C1312 C1317 1.425 . S
C1312 C1319 1.409 . S
C1313 H1305 0.930 . S
C1313 C1311 1.419 . S
C1313 C1314 1.362 . S
C1314 H1306 0.930 1_556 S
C1314 C1313 1.362 . S
C1314 C1317 1.409 . S
C1315 H1307 0.930 1_556 S
C1315 C1316 1.355 . S
C1315 C1317 1.415 . S
C1316 C1315 1.355 . S
C1316 C1318 1.419 . S
C1317 C1312 1.425 . S
C1317 C1314 1.409 . S
C1317 C1315 1.415 . S
C1318 H1308 0.930 . S
C1318 C1316 1.419 . S
C1318 C1319 1.362 . S
C1319 H1309 0.930 . S
C1319 C1312 1.409 . S
C1319 C1318 1.362 . S
H1320 C1326 0.930 . S
H1321 C1329 0.930 . S
H1322 C1330 0.930 . S
H1323 C1331 0.930 . S
H1324 C1334 0.930 . S
H1325 C1335 0.930 . S
C1326 H1320 0.930 . S
C1326 C1327 1.355 . S
C1326 C1328 1.415 . S
C1327 C1326 1.355 . S
C1327 C1329 1.419 . S
C1328 C1326 1.415 . S
C1328 C1333 1.425 . S
C1328 C1335 1.409 . S
C1329 H1321 0.930 . S
C1329 C1327 1.419 . S
C1329 C1330 1.362 . S
C1330 H1322 0.930 . S
C1330 C1329 1.362 . S
C1330 C1333 1.409 . S
C1331 H1323 0.930 . S
C1331 C1332 1.355 . S
C1331 C1333 1.415 . S
C1332 C1331 1.355 . S
C1332 C1334 1.419 . S
C1333 C1328 1.425 . S
C1333 C1330 1.409 . S
C1333 C1331 1.415 . S
C1334 H1324 0.930 . S
C1334 C1332 1.419 . S
C1334 C1335 1.362 . S
C1335 H1325 0.930 . S
C1335 C1328 1.409 . S
C1335 C1334 1.362 . S
H1336 C1342 0.930 . S
H1337 C1345 0.930 . S
H1338 C1346 0.930 . S
H1339 C1347 0.930 . S
H1340 C1350 0.930 . S
H1341 C1351 0.930 . S
C1342 H1336 0.930 . S
C1342 C1343 1.355 . S
C1342 C1344 1.415 . S
C1343 C1342 1.355 . S
C1343 C1345 1.419 . S
C1344 C1342 1.415 . S
C1344 C1349 1.425 . S
C1344 C1351 1.409 . S
C1345 H1337 0.930 . S
C1345 C1343 1.419 . S
C1345 C1346 1.362 . S
C1346 H1338 0.930 . S
C1346 C1345 1.362 . S
C1346 C1349 1.409 . S
C1347 H1339 0.930 . S
C1347 C1348 1.355 . S
C1347 C1349 1.415 . S
C1348 C1347 1.355 . S
C1348 C1350 1.419 . S
C1349 C1344 1.425 . S
C1349 C1346 1.409 . S
C1349 C1347 1.415 . S
C1350 H1340 0.930 . S
C1350 C1348 1.419 . S
C1350 C1351 1.362 . S
C1351 H1341 0.930 . S
C1351 C1344 1.409 . S
C1351 C1350 1.362 . S
H1352 C1358 0.930 . S
H1353 C1361 0.930 . S
H1354 C1362 0.930 . S
H1355 C1363 0.930 . S
H1356 C1366 0.930 . S
H1357 C1367 0.930 . S
C1358 H1352 0.930 . S
C1358 C1359 1.355 . S
C1358 C1360 1.415 . S
C1359 C1358 1.355 . S
C1359 C1361 1.419 . S
C1360 C1358 1.415 . S
C1360 C1365 1.425 . S
C1360 C1367 1.409 . S
C1361 H1353 0.930 . S
C1361 C1359 1.419 . S
C1361 C1362 1.362 . S
C1362 H1354 0.930 . S
C1362 C1361 1.362 . S
C1362 C1365 1.409 . S
C1363 H1355 0.930 . S
C1363 C1364 1.355 . S
C1363 C1365 1.415 . S
C1364 C1363 1.355 . S
C1364 C1366 1.419 . S
C1365 C1360 1.425 . S
C1365 C1362 1.409 . S
C1365 C1363 1.415 . S
C1366 H1356 0.930 . S
C1366 C1364 1.419 . S
C1366 C1367 1.362 . S
C1367 H1357 0.930 . S
C1367 C1360 1.409 . S
C1367 C1366 1.362 . S
H1368 C1374 0.930 . S
H1369 C1377 0.930 . S
H1370 C1378 0.930 . S
H1371 C1379 0.930 . S
H1372 C1382 0.930 . S
H1373 C1383 0.930 . S
C1374 H1368 0.930 . S
C1374 C1375 1.355 . S
C1374 C1376 1.415 . S
C1375 C1374 1.355 . S
C1375 C1377 1.419 . S
C1376 C1374 1.415 . S
C1376 C1381 1.425 . S
C1376 C1383 1.409 . S
C1377 H1369 0.930 . S
C1377 C1375 1.419 . S
C1377 C1378 1.362 . S
C1378 H1370 0.930 . S
C1378 C1377 1.362 . S
C1378 C1381 1.409 . S
C1379 H1371 0.930 . S
C1379 C1380 1.355 . S
C1379 C1381 1.415 . S
C1380 C1379 1.355 . S
C1380 C1382 1.419 . S
C1381 C1376 1.425 . S
C1381 C1378 1.409 . S
C1381 C1379 1.415 . S
C1382 H1372 0.930 . S
C1382 C1380 1.419 . S
C1382 C1383 1.362 . S
C1383 H1373 0.930 . S
C1383 C1376 1.409 . S
C1383 C1382 1.362 . S
H1384 C1390 0.930 . S
H1385 C1393 0.930 . S
H1386 C1394 0.930 . S
H1387 C1395 0.930 . S
H1388 C1398 0.930 . S
H1389 C1399 0.930 . S
C1390 H1384 0.930 . S
C1390 C1391 1.355 . S
C1390 C1392 1.415 . S
C1391 C1390 1.355 . S
C1391 C1393 1.419 . S
C1392 C1390 1.415 . S
C1392 C1397 1.425 . S
C1392 C1399 1.409 . S
C1393 H1385 0.930 . S
C1393 C1391 1.419 . S
C1393 C1394 1.362 . S
C1394 H1386 0.930 . S
C1394 C1393 1.362 . S
C1394 C1397 1.409 . S
C1395 H1387 0.930 . S
C1395 C1396 1.355 . S
C1395 C1397 1.415 . S
C1396 C1395 1.355 . S
C1396 C1398 1.419 . S
C1397 C1392 1.425 . S
C1397 C1394 1.409 . S
C1397 C1395 1.415 . S
C1398 H1388 0.930 . S
C1398 C1396 1.419 . S
C1398 C1399 1.362 . S
C1399 H1389 0.930 . S
C1399 C1392 1.409 . S
C1399 C1398 1.362 . S
H1400 C1406 0.930 . S
H1401 C1409 0.930 . S
H1402 C1410 0.930 . S
H1403 C1411 0.930 . S
H1404 C1414 0.930 . S
H1405 C1415 0.930 . S
C1406 H1400 0.930 . S
C1406 C1407 1.355 . S
C1406 C1408 1.415 . S
C1407 C1406 1.355 . S
C1407 C1409 1.419 . S
C1408 C1406 1.415 . S
C1408 C1413 1.425 . S
C1408 C1415 1.409 . S
C1409 H1401 0.930 . S
C1409 C1407 1.419 . S
C1409 C1410 1.362 . S
C1410 H1402 0.930 . S
C1410 C1409 1.362 . S
C1410 C1413 1.409 . S
C1411 H1403 0.930 . S
C1411 C1412 1.355 . S
C1411 C1413 1.415 . S
C1412 C1411 1.355 . S
C1412 C1414 1.419 . S
C1413 C1408 1.425 . S
C1413 C1410 1.409 . S
C1413 C1411 1.415 . S
C1414 H1404 0.930 . S
C1414 C1412 1.419 . S
C1414 C1415 1.362 . S
C1415 H1405 0.930 . S
C1415 C1408 1.409 . S
C1415 C1414 1.362 . S
H1416 C1422 0.930 . S
H1417 C1425 0.930 . S
H1418 C1426 0.930 . S
H1419 C1427 0.930 . S
H1420 C1430 0.930 . S
H1421 C1431 0.930 . S
C1422 H1416 0.930 . S
C1422 C1423 1.355 . S
C1422 C1424 1.415 . S
C1423 C1422 1.355 . S
C1423 C1425 1.419 . S
C1424 C1422 1.415 . S
C1424 C1429 1.425 . S
C1424 C1431 1.409 . S
C1425 H1417 0.930 . S
C1425 C1423 1.419 . S
C1425 C1426 1.362 . S
C1426 H1418 0.930 . S
C1426 C1425 1.362 . S
C1426 C1429 1.409 . S
C1427 H1419 0.930 . S
C1427 C1428 1.355 . S
C1427 C1429 1.415 . S
C1428 C1427 1.355 . S
C1428 C1430 1.419 . S
C1429 C1424 1.425 . S
C1429 C1426 1.409 . S
C1429 C1427 1.415 . S
C1430 H1420 0.930 . S
C1430 C1428 1.419 . S
C1430 C1431 1.362 . S
C1431 H1421 0.930 . S
C1431 C1424 1.409 . S
C1431 C1430 1.362 . S
H1432 C1438 0.930 . S
H1433 C1441 0.930 . S
H1434 C1442 0.930 . S
H1435 C1443 0.930 . S
H1436 C1446 0.930 . S
H1437 C1447 0.930 . S
C1438 H1432 0.930 . S
C1438 C1439 1.355 . S
C1438 C1440 1.415 . S
C1439 C1438 1.355 . S
C1439 C1441 1.419 . S
C1440 C1438 1.415 . S
C1440 C1445 1.425 . S
C1440 C1447 1.409 . S
C1441 H1433 0.930 . S
C1441 C1439 1.419 . S
C1441 C1442 1.362 . S
C1442 H1434 0.930 . S
C1442 C1441 1.362 . S
C1442 C1445 1.409 . S
C1443 H1435 0.930 . S
C1443 C1444 1.355 . S
C1443 C1445 1.415 . S
C1444 C1443 1.355 . S
C1444 C1446 1.419 . S
C1445 C1440 1.425 . S
C1445 C1442 1.409 . S
C1445 C1443 1.415 . S
C1446 H1436 0.930 . S
C1446 C1444 1.419 . S
C1446 C1447 1.362 . S
C1447 H1437 0.930 . S
C1447 C1440 1.409 . S
C1447 C1446 1.362 . S
H1448 C1454 0.930 . S
H1449 C1457 0.930 . S
H1450 C1458 0.930 . S
H1451 C1459 0.930 . S
H1452 C1462 0.930 . S
H1453 C1463 0.930 . S
C1454 H1448 0.930 . S
C1454 C1455 1.355 . S
C1454 C1456 1.415 . S
C1455 C1454 1.355 . S
C1455 C1457 1.419 . S
C1456 C1454 1.415 . S
C1456 C1461 1.425 . S
C1456 C1463 1.409 . S
C1457 H1449 0.930 . S
C1457 C1455 1.419 . S
C1457 C1458 1.362 . S
C1458 H1450 0.930 . S
C1458 C1457 1.362 . S
C1458 C1461 1.409 . S
C1459 H1451 0.930 . S
C1459 C1460 1.355 . S
C1459 C1461 1.415 . S
C1460 C1459 1.355 . S
C1460 C1462 1.419 . S
C1461 C1456 1.425 . S
C1461 C1458 1.409 . S
C1461 C1459 1.415 . S
C1462 H1452 0.930 . S
C1462 C1460 1.419 . S
C1462 C1463 1.362 . S
C1463 H1453 0.930 . S
C1463 C1456 1.409 . S
C1463 C1462 1.362 . S
H1464 C1470 0.930 . S
H1465 C1473 0.930 . S
H1466 C1474 0.930 . S
H1467 C1475 0.930 . S
H1468 C1478 0.930 . S
H1469 C1479 0.930 . S
C1470 H1464 0.930 . S
C1470 C1471 1.355 . S
C1470 C1472 1.415 . S
C1471 C1470 1.355 . S
C1471 C1473 1.419 . S
C1472 C1470 1.415 . S
C1472 C1477 1.425 . S
C1472 C1479 1.409 . S
C1473 H1465 0.930 . S
C1473 C1471 1.419 . S
C1473 C1474 1.362 . S
C1474 H1466 0.930 . S
C1474 C1473 1.362 . S
C1474 C1477 1.409 . S
C1475 H1467 0.930 . S
C1475 C1476 1.355 . S
C1475 C1477 1.415 . S
C1476 C1475 1.355 . S
C1476 C1478 1.419 . S
C1477 C1472 1.425 . S
C1477 C1474 1.409 . S
C1477 C1475 1.415 . S
C1478 H1468 0.930 . S
C1478 C1476 1.419 . S
C1478 C1479 1.362 . S
C1479 H1469 0.930 . S
C1479 C1472 1.409 . S
C1479 C1478 1.362 . S
H1480 C1486 0.930 . S
H1481 C1489 0.930 . S
H1482 C1490 0.930 . S
H1483 C1491 0.930 . S
H1484 C1494 0.930 . S
H1485 C1495 0.930 . S
C1486 H1480 0.930 . S
C1486 C1487 1.355 . S
C1486 C1488 1.415 . S
C1487 C1486 1.355 . S
C1487 C1489 1.419 . S
C1488 C1486 1.415 . S
C1488 C1493 1.425 . S
C1488 C1495 1.409 . S
C1489 H1481 0.930 . S
C1489 C1487 1.419 . S
C1489 C1490 1.362 . S
C1490 H1482 0.930 . S
C1490 C1489 1.362 . S
C1490 C1493 1.409 . S
C1491 H1483 0.930 . S
C1491 C1492 1.355 . S
C1491 C1493 1.415 . S
C1492 C1491 1.355 . S
C1492 C1494 1.419 . S
C1493 C1488 1.425 . S
C1493 C1490 1.409 . S
C1493 C1491 1.415 . S
C1494 H1484 0.930 . S
C1494 C1492 1.419 . S
C1494 C1495 1.362 . S
C1495 H1485 0.930 . S
C1495 C1488 1.409 . S
C1495 C1494 1.362 . S
H1496 C1502 0.930 . S
H1497 C1505 0.930 . S
H1498 C1506 0.930 . S
H1499 C1507 0.930 . S
H1500 C1510 0.930 . S
H1501 C1511 0.930 . S
C1502 H1496 0.930 . S
C1502 C1503 1.355 . S
C1502 C1504 1.415 . S
C1503 C1502 1.355 . S
C1503 C1505 1.419 . S
C1504 C1502 1.415 . S
C1504 C1509 1.425 . S
C1504 C1511 1.409 . S
C1505 H1497 0.930 . S
C1505 C1503 1.419 . S
C1505 C1506 1.362 . S
C1506 H1498 0.930 . S
C1506 C1505 1.362 . S
C1506 C1509 1.409 . S
C1507 H1499 0.930 . S
C1507 C1508 1.355 . S
C1507 C1509 1.415 . S
C1508 C1507 1.355 . S
C1508 C1510 1.419 . S
C1509 C1504 1.425 . S
C1509 C1506 1.409 . S
C1509 C1507 1.415 . S
C1510 H1500 0.930 . S
C1510 C1508 1.419 . S
C1510 C1511 1.362 . S
C1511 H1501 0.930 . S
C1511 C1504 1.409 . S
C1511 C1510 1.362 . S
H1512 C1518 0.930 . S
H1513 C1521 0.930 . S
H1514 C1522 0.930 . S
H1515 C1523 0.930 . S
H1516 C1526 0.930 . S
H1517 C1527 0.930 . S
C1518 H1512 0.930 . S
C1518 C1519 1.355 . S
C1518 C1520 1.415 . S
C1519 C1518 1.355 . S
C1519 C1521 1.419 . S
C1520 C1518 1.415 . S
C1520 C1525 1.425 . S
C1520 C1527 1.409 . S
C1521 H1513 0.930 . S
C1521 C1519 1.419 . S
C1521 C1522 1.362 . S
C1522 H1514 0.930 . S
C1522 C1521 1.362 . S
C1522 C1525 1.409 . S
C1523 H1515 0.930 . S
C1523 C1524 1.355 . S
C1523 C1525 1.415 . S
C1524 C1523 1.355 . S
C1524 C1526 1.419 . S
C1525 C1520 1.425 . S
C1525 C1522 1.409 . S
C1525 C1523 1.415 . S
C1526 H1516 0.930 . S
C1526 C1524 1.419 . S
C1526 C1527 1.362 . S
C1527 H1517 0.930 . S
C1527 C1520 1.409 . S
C1527 C1526 1.362 . S
H1528 C1534 0.930 . S
H1529 C1537 0.930 . S
H1530 C1538 0.930 . S
H1531 C1539 0.930 . S
H1532 C1542 0.930 . S
H1533 C1543 0.930 . S
C1534 H1528 0.930 . S
C1534 C1535 1.355 . S
C1534 C1536 1.415 . S
C1535 C1534 1.355 . S
C1535 C1537 1.419 . S
C1536 C1534 1.415 . S
C1536 C1541 1.425 . S
C1536 C1543 1.409 . S
C1537 H1529 0.930 . S
C1537 C1535 1.419 . S
C1537 C1538 1.362 . S
C1538 H1530 0.930 . S
C1538 C1537 1.362 . S
C1538 C1541 1.409 . S
C1539 H1531 0.930 . S
C1539 C1540 1.355 . S
C1539 C1541 1.415 . S
C1540 C1539 1.355 . S
C1540 C1542 1.419 . S
C1541 C1536 1.425 . S
C1541 C1538 1.409 . S
C1541 C1539 1.415 . S
C1542 H1532 0.930 . S
C1542 C1540 1.419 . S
C1542 C1543 1.362 . S
C1543 H1533 0.930 . S
C1543 C1536 1.409 . S
C1543 C1542 1.362 . S
H1544 C1550 0.930 . S
H1545 C1553 0.930 . S
H1546 C1554 0.930 . S
H1547 C1555 0.930 . S
H1548 C1558 0.930 . S
H1549 C1559 0.930 . S
C1550 H1544 0.930 . S
C1550 C1551 1.355 . S
C1550 C1552 1.415 . S
C1551 C1550 1.355 . S
C1551 C1553 1.419 . S
C1552 C1550 1.415 . S
C1552 C1557 1.425 . S
C1552 C1559 1.409 . S
C1553 H1545 0.930 . S
C1553 C1551 1.419 . S
C1553 C1554 1.362 . S
C1554 H1546 0.930 . S
C1554 C1553 1.362 . S
C1554 C1557 1.409 . S
C1555 H1547 0.930 . S
C1555 C1556 1.355 . S
C1555 C1557 1.415 . S
C1556 C1555 1.355 . S
C1556 C1558 1.419 . S
C1557 C1552 1.425 . S
C1557 C1554 1.409 . S
C1557 C1555 1.415 . S
C1558 H1548 0.930 . S
C1558 C1556 1.419 . S
C1558 C1559 1.362 . S
C1559 H1549 0.930 . S
C1559 C1552 1.409 . S
C1559 C1558 1.362 . S
H1560 C1566 0.930 . S
H1561 C1569 0.930 . S
H1562 C1570 0.930 . S
H1563 C1571 0.930 . S
H1564 C1574 0.930 . S
H1565 C1575 0.930 . S
C1566 H1560 0.930 . S
C1566 C1567 1.355 . S
C1566 C1568 1.415 . S
C1567 C1566 1.355 . S
C1567 C1569 1.419 . S
C1568 C1566 1.415 . S
C1568 C1573 1.425 1_455 S
C1568 C1575 1.409 . S
C1569 H1561 0.930 . S
C1569 C1567 1.419 . S
C1569 C1570 1.362 1_455 S
C1570 H1562 0.930 . S
C1570 C1569 1.362 1_655 S
C1570 C1573 1.409 . S
C1571 H1563 0.930 . S
C1571 C1572 1.355 . S
C1571 C1573 1.415 . S
C1572 C1571 1.355 . S
C1572 C1574 1.419 . S
C1573 C1568 1.425 1_655 S
C1573 C1570 1.409 . S
C1573 C1571 1.415 . S
C1574 H1564 0.930 . S
C1574 C1572 1.419 . S
C1574 C1575 1.362 1_655 S
C1575 H1565 0.930 . S
C1575 C1568 1.409 . S
C1575 C1574 1.362 1_455 S
H1576 C1582 0.930 . S
H1577 C1585 0.930 . S
H1578 C1586 0.930 . S
H1579 C1587 0.930 . S
H1580 C1590 0.930 . S
H1581 C1591 0.930 . S
C1582 H1576 0.930 . S
C1582 C1583 1.355 . S
C1582 C1584 1.415 . S
C1583 C1582 1.355 . S
C1583 C1585 1.419 . S
C1584 C1582 1.415 . S
C1584 C1589 1.425 . S
C1584 C1591 1.409 . S
C1585 H1577 0.930 . S
C1585 C1583 1.419 . S
C1585 C1586 1.362 . S
C1586 H1578 0.930 . S
C1586 C1585 1.362 . S
C1586 C1589 1.409 . S
C1587 H1579 0.930 . S
C1587 C1588 1.355 . S
C1587 C1589 1.415 . S
C1588 C1587 1.355 . S
C1588 C1590 1.419 . S
C1589 C1584 1.425 . S
C1589 C1586 1.409 . S
C1589 C1587 1.415 . S
C1590 H1580 0.930 . S
C1590 C1588 1.419 . S
C1590 C1591 1.362 . S
C1591 H1581 0.930 . S
C1591 C1584 1.409 . S
C1591 C1590 1.362 . S
H1592 C1598 0.930 . S
H1593 C1601 0.930 . S
H1594 C1602 0.930 . S
H1595 C1603 0.930 . S
H1596 C1606 0.930 . S
H1597 C1607 0.930 . S
C1598 H1592 0.930 . S
C1598 C1599 1.355 . S
C1598 C1600 1.415 1_545 S
C1599 C1598 1.355 . S
C1599 C1601 1.419 . S
C1600 C1598 1.415 1_565 S
C1600 C1605 1.425 1_565 S
C1600 C1607 1.409 . S
C1601 H1593 0.930 . S
C1601 C1599 1.419 . S
C1601 C1602 1.362 . S
C1602 H1594 0.930 . S
C1602 C1601 1.362 . S
C1602 C1605 1.409 . S
C1603 H1595 0.930 . S
C1603 C1604 1.355 . S
C1603 C1605 1.415 1_565 S
C1604 C1603 1.355 . S
C1604 C1606 1.419 . S
C1605 C1600 1.425 1_545 S
C1605 C1602 1.409 . S
C1605 C1603 1.415 1_545 S
C1606 H1596 0.930 . S
C1606 C1604 1.419 . S
C1606 C1607 1.362 . S
C1607 H1597 0.930 . S
C1607 C1600 1.409 . S
C1607 C1606 1.362 . S
H1608 C1614 0.930 . S
H1609 C1617 0.930 . S
H1610 C1618 0.930 . S
H1611 C1619 0.930 . S
H1612 C1622 0.930 . S
H1613 C1623 0.930 . S
C1614 H1608 0.930 . S
C1614 C1615 1.355 . S
C1614 C1616 1.415 1_545 S
C1615 C1614 1.355 . S
C1615 C1617 1.419 1_554 S
C1616 C1614 1.415 1_565 S
C1616 C1621 1.425 1_564 S
C1616 C1623 1.409 . S
C1617 H1609 0.930 . S
C1617 C1615 1.419 1_556 S
C1617 C1618 1.362 . S
C1618 H1610 0.930 . S
C1618 C1617 1.362 . S
C1618 C1621 1.409 . S
C1619 H1611 0.930 . S
C1619 C1620 1.355 . S
C1619 C1621 1.415 1_565 S
C1620 C1619 1.355 . S
C1620 C1622 1.419 1_556 S
C1621 C1616 1.425 1_546 S
C1621 C1618 1.409 . S
C1621 C1619 1.415 1_545 S
C1622 H1612 0.930 . S
C1622 C1620 1.419 1_554 S
C1622 C1623 1.362 . S
C1623 H1613 0.930 . S
C1623 C1616 1.409 . S
C1623 C1622 1.362 . S
H1624 C1630 0.930 . S
H1625 C1633 0.930 . S
H1626 C1634 0.930 . S
H1627 C1635 0.930 . S
H1628 C1638 0.930 . S
H1629 C1639 0.930 . S
C1630 H1624 0.930 . S
C1630 C1631 1.355 . S
C1630 C1632 1.415 1_655 S
C1631 C1630 1.355 . S
C1631 C1633 1.419 1_554 S
C1632 C1630 1.415 1_455 S
C1632 C1637 1.425 1_454 S
C1632 C1639 1.409 . S
C1633 H1625 0.930 . S
C1633 C1631 1.419 1_556 S
C1633 C1634 1.362 . S
C1634 H1626 0.930 . S
C1634 C1633 1.362 . S
C1634 C1637 1.409 . S
C1635 H1627 0.930 . S
C1635 C1636 1.355 . S
C1635 C1637 1.415 1_455 S
C1636 C1635 1.355 . S
C1636 C1638 1.419 1_556 S
C1637 C1632 1.425 1_656 S
C1637 C1634 1.409 . S
C1637 C1635 1.415 1_655 S
C1638 H1628 0.930 . S
C1638 C1636 1.419 1_554 S
C1638 C1639 1.362 . S
C1639 H1629 0.930 . S
C1639 C1632 1.409 . S
C1639 C1638 1.362 . S
H1640 C1646 0.930 . S
H1641 C1649 0.930 . S
H1642 C1650 0.930 . S
H1643 C1651 0.930 . S
H1644 C1654 0.930 . S
H1645 C1655 0.930 . S
C1646 H1640 0.930 . S
C1646 C1647 1.355 . S
C1646 C1648 1.415 . S
C1647 C1646 1.355 . S
C1647 C1649 1.419 1_554 S
C1648 C1646 1.415 . S
C1648 C1653 1.425 1_554 S
C1648 C1655 1.409 . S
C1649 H1641 0.930 . S
C1649 C1647 1.419 1_556 S
C1649 C1650 1.362 . S
C1650 H1642 0.930 . S
C1650 C1649 1.362 . S
C1650 C1653 1.409 . S
C1651 H1643 0.930 . S
C1651 C1652 1.355 . S
C1651 C1653 1.415 . S
C1652 C1651 1.355 . S
C1652 C1654 1.419 1_556 S
C1653 C1648 1.425 1_556 S
C1653 C1650 1.409 . S
C1653 C1651 1.415 . S
C1654 H1644 0.930 . S
C1654 C1652 1.419 1_554 S
C1654 C1655 1.362 . S
C1655 H1645 0.930 . S
C1655 C1648 1.409 . S
C1655 C1654 1.362 . S
C511 C152 1.120 . S
C516 C5 1.053 . S
C527 C166 1.141 . S
C532 C19 1.038 . S
C543 C33 1.143 . S
C548 C138 1.144 . S
C559 C47 1.047 . S
C564 C124 1.158 . S
C575 C61 1.126 . S
C580 C96 1.196 . S
C591 C110 1.150 . S
C596 C75 1.151 . S
C607 C68 1.190 . S
C612 C89 1.165 . S
C623 C82 1.178 . S
C628 C103 1.074 . S
C639 C117 1.111 . S
C644 C54 1.193 . S
C655 C40 1.156 . S
C660 C131 1.156 . S
C671 C145 1.042 . S
C676 C12 1.151 . S
C687 C159 1.041 . S
C692 C26 1.126 . S
C703 C320 1.153 . S
C708 C173 1.153 . S
C719 C334 1.195 . S
C724 C187 1.120 . S
C735 C201 1.163 . S
C740 C306 1.165 . S
C751 C215 1.156 . S
C756 C292 1.167 . S
C767 C229 1.071 . S
C772 C264 1.185 . S
C783 C243 1.070 . S
C788 C278 1.183 . S
C799 C236 1.193 . S
C804 C257 1.159 . S
C815 C250 1.144 . S
C820 C271 1.039 . S
C831 C222 1.118 . S
C836 C285 1.058 . S
C847 C208 1.133 . S
C852 C299 1.037 . S
C863 C180 1.118 . S
C868 C313 1.075 . S
C879 C194 1.148 . S
C884 C327 1.148 . S
C895 C341 1.138 . S
C900 C488 1.197 . S
C911 C502 1.128 . S
C916 C355 1.040 . S
C927 C474 1.123 . S
C932 C369 1.101 . S
C943 C383 1.166 . S
C948 C460 1.169 . S
C959 C397 1.055 . S
C964 C432 1.165 . S
C975 C411 1.155 . S
C980 C446 1.195 . S
C991 C404 1.117 . S
C996 C425 1.067 . S
C1007 C418 1.168 . S
C1012 C439 1.165 . S
C1023 C390 1.194 . S
C1028 C453 1.159 . S
C1039 C467 1.153 . S
C1044 C376 1.163 . S
C1055 C348 1.140 . S
C1060 C481 1.038 . S
C1071 C495 1.077 . S
C1076 C362 1.116 . S
C1087 C53 1.277 . S
C1092 C11 1.274 . S
C1103 C67 1.274 . S
C1108 C25 1.278 . S
C1119 C39 1.324 . S
C1124 C81 1.322 . S
C1135 C137 1.300 . S
C1140 C95 1.297 . S
C1151 C151 1.320 . S
C1156 C109 1.322 . S
C1167 C165 1.329 . S
C1172 C123 1.329 . S
C1183 C221 1.281 . S
C1188 C179 1.278 . S
C1199 C235 1.324 . S
C1204 C193 1.322 . S
C1215 C207 1.321 . S
C1220 C249 1.318 . S
C1231 C263 1.259 . S
C1236 C305 1.257 . S
C1247 C319 1.287 . S
C1252 C277 1.284 . S
C1263 C291 1.310 . S
C1268 C333 1.313 . S
C1279 C389 1.257 . S
C1284 C347 1.259 . S
C1295 C403 1.319 . S
C1300 C361 1.317 . S
C1311 C375 1.259 . S
C1316 C417 1.257 . S
C1327 C431 1.254 . S
C1332 C473 1.254 . S
C1343 C445 1.320 . S
C1348 C487 1.322 . S
C1359 C459 1.259 . S
C1364 C501 1.260 . S
C1375 C4 1.382 . S
C1380 C256 1.382 . S
C1391 C270 1.341 . S
C1396 C18 1.341 . S
C1407 C284 1.365 . S
C1412 C32 1.365 . S
C1423 C466 1.341 . S
C1428 C46 1.341 . S
C1439 C480 1.397 . S
C1444 C60 1.397 . S
C1455 C494 1.341 . S
C1460 C74 1.341 . S
C1471 C88 1.407 . S
C1476 C340 1.407 . S
C1487 C354 1.389 . S
C1492 C102 1.389 . S
C1503 C368 1.408 . S
C1508 C116 1.408 . S
C1519 C130 1.339 . S
C1524 C214 1.339 . S
C1535 C144 1.345 . S
C1540 C228 1.345 . S
C1551 C158 1.390 . S
C1556 C242 1.390 . S
C1567 C424 1.410 . S
C1572 C172 1.410 . S
C1583 C438 1.390 . S
C1588 C186 1.390 . S
C1599 C200 1.369 . S
C1604 C452 1.369 . S
C1615 C298 1.364 . S
C1620 C382 1.364 . S
C1631 C312 1.358 . S
C1636 C396 1.358 . S
C1647 C326 1.389 . S
C1652 C410 1.389 . S
