# Generated by pormake.
# Topology uob, (4)-cn, num edge types: 1
# Building blocks:
#     Node 0, Type 0, BuildingBlock: QUQFOY_clean_sbu_3, # of connection points: 4
#     Node 1, Type 0, BuildingBlock: QUQFOY_clean_sbu_3, # of connection points: 4
#     Node 2, Type 0, BuildingBlock: QUQFOY_clean_sbu_3, # of connection points: 4
#     Node 3, Type 0, BuildingBlock: QUQFOY_clean_sbu_3, # of connection points: 4
#     Node 4, Type 0, BuildingBlock: QUQFOY_clean_sbu_3, # of connection points: 4
#     Node 5, Type 0, BuildingBlock: QUQFOY_clean_sbu_3, # of connection points: 4
#     Node 6, Type 0, BuildingBlock: QUQFOY_clean_sbu_3, # of connection points: 4
#     Node 7, Type 0, BuildingBlock: QUQFOY_clean_sbu_3, # of connection points: 4
#     Node 8, Type 0, BuildingBlock: QUQFOY_clean_sbu_3, # of connection points: 4
#     Node 9, Type 0, BuildingBlock: QUQFOY_clean_sbu_3, # of connection points: 4
#     Node 10, Type 0, BuildingBlock: QUQFOY_clean_sbu_3, # of connection points: 4
#     Node 11, Type 0, BuildingBlock: QUQFOY_clean_sbu_3, # of connection points: 4
#     Node 12, Type 0, BuildingBlock: QUQFOY_clean_sbu_3, # of connection points: 4
#     Node 13, Type 0, BuildingBlock: QUQFOY_clean_sbu_3, # of connection points: 4
#     Node 14, Type 0, BuildingBlock: QUQFOY_clean_sbu_3, # of connection points: 4
#     Node 15, Type 0, BuildingBlock: QUQFOY_clean_sbu_3, # of connection points: 4
#     Edge 16, Type (0, 0), BuildingBlock: OJICUG_clean_linker_0, # of connection points: 2
#     Edge 17, Type (0, 0), BuildingBlock: OJICUG_clean_linker_0, # of connection points: 2
#     Edge 18, Type (0, 0), BuildingBlock: OJICUG_clean_linker_0, # of connection points: 2
#     Edge 19, Type (0, 0), BuildingBlock: OJICUG_clean_linker_0, # of connection points: 2
#     Edge 20, Type (0, 0), BuildingBlock: OJICUG_clean_linker_0, # of connection points: 2
#     Edge 21, Type (0, 0), BuildingBlock: OJICUG_clean_linker_0, # of connection points: 2
#     Edge 22, Type (0, 0), BuildingBlock: OJICUG_clean_linker_0, # of connection points: 2
#     Edge 23, Type (0, 0), BuildingBlock: OJICUG_clean_linker_0, # of connection points: 2
#     Edge 24, Type (0, 0), BuildingBlock: OJICUG_clean_linker_0, # of connection points: 2
#     Edge 25, Type (0, 0), BuildingBlock: OJICUG_clean_linker_0, # of connection points: 2
#     Edge 26, Type (0, 0), BuildingBlock: OJICUG_clean_linker_0, # of connection points: 2
#     Edge 27, Type (0, 0), BuildingBlock: OJICUG_clean_linker_0, # of connection points: 2
#     Edge 28, Type (0, 0), BuildingBlock: OJICUG_clean_linker_0, # of connection points: 2
#     Edge 29, Type (0, 0), BuildingBlock: OJICUG_clean_linker_0, # of connection points: 2
#     Edge 30, Type (0, 0), BuildingBlock: OJICUG_clean_linker_0, # of connection points: 2
#     Edge 31, Type (0, 0), BuildingBlock: OJICUG_clean_linker_0, # of connection points: 2
#     Edge 32, Type (0, 0), BuildingBlock: OJICUG_clean_linker_0, # of connection points: 2
#     Edge 33, Type (0, 0), BuildingBlock: OJICUG_clean_linker_0, # of connection points: 2
#     Edge 34, Type (0, 0), BuildingBlock: OJICUG_clean_linker_0, # of connection points: 2
#     Edge 35, Type (0, 0), BuildingBlock: OJICUG_clean_linker_0, # of connection points: 2
#     Edge 36, Type (0, 0), BuildingBlock: OJICUG_clean_linker_0, # of connection points: 2
#     Edge 37, Type (0, 0), BuildingBlock: OJICUG_clean_linker_0, # of connection points: 2
#     Edge 38, Type (0, 0), BuildingBlock: OJICUG_clean_linker_0, # of connection points: 2
#     Edge 39, Type (0, 0), BuildingBlock: OJICUG_clean_linker_0, # of connection points: 2
#     Edge 40, Type (0, 0), BuildingBlock: OJICUG_clean_linker_0, # of connection points: 2
#     Edge 41, Type (0, 0), BuildingBlock: OJICUG_clean_linker_0, # of connection points: 2
#     Edge 42, Type (0, 0), BuildingBlock: OJICUG_clean_linker_0, # of connection points: 2
#     Edge 43, Type (0, 0), BuildingBlock: OJICUG_clean_linker_0, # of connection points: 2
#     Edge 44, Type (0, 0), BuildingBlock: OJICUG_clean_linker_0, # of connection points: 2
#     Edge 45, Type (0, 0), BuildingBlock: OJICUG_clean_linker_0, # of connection points: 2
#     Edge 46, Type (0, 0), BuildingBlock: OJICUG_clean_linker_0, # of connection points: 2
#     Edge 47, Type (0, 0), BuildingBlock: OJICUG_clean_linker_0, # of connection points: 2
# Relax obj value: 0.164
# Max RMSD: 0.201
# Mean RMSD: 0.201
data_MOF--net-uob--node1-QUQFOY_clean_sbu_3--edge1-OJICUG_clean_linker_0
_symmetry_space_group_name_H-M    P1
_symmetry_Int_Tables_number       1
_symmetry_cell_setting            triclinic
loop_
_symmetry_equiv_pos_as_xyz
'x, y, z'
_cell_length_a     40.817435
_cell_length_b     40.88596
_cell_length_c     20.678258
_cell_angle_alpha  89.842994
_cell_angle_beta   89.935627
_cell_angle_gamma 89.993974
loop_
_atom_site_label
_atom_site_type_symbol
_atom_site_fract_x
_atom_site_fract_y
_atom_site_fract_z
_atom_type_partial_charge
C0 C 0.12438 0.11582 0.14019 0.0
O1 O 0.10489 0.13208 0.17542 0.0
Cd2 Cd 0.08238 0.11362 0.27399 0.0
O3 O 0.13558 0.08822 0.15918 0.0
Cd4 Cd 0.13152 0.05346 0.25837 0.0
C5 C 0.05288 0.03806 0.22307 0.0
O6 O 0.12633 0.09593 0.33951 0.0
O7 O 0.10518 0.04871 0.36079 0.0
O8 O 0.19085 0.04681 0.26649 0.0
C9 C 0.11393 0.07659 0.38071 0.0
O10 O 0.04807 0.06697 0.24401 0.0
C11 C 0.18968 0.01865 0.29238 0.0
O12 O 0.08187 0.02652 0.21805 0.0
O13 O 0.16185 0.00487 0.29476 0.0
C14 C 0.90458 0.615 0.38989 0.0
O15 O 0.88507 0.59856 0.42516 0.0
Cd16 Cd 0.88511 0.59086 0.53908 0.0
O17 O 0.92838 0.63104 0.41477 0.0
Cd18 Cd 0.94956 0.63875 0.52797 0.0
C19 C 0.96166 0.55625 0.54718 0.0
O20 O 0.89565 0.64403 0.5789 0.0
O21 O 0.93752 0.63988 0.64135 0.0
O22 O 0.96529 0.69635 0.51616 0.0
C23 C 0.90723 0.64532 0.63553 0.0
O24 O 0.93082 0.55349 0.55481 0.0
C25 C 0.99024 0.69365 0.55267 0.0
O26 O 0.9746 0.58389 0.53382 0.0
O27 O -0.00082 0.66481 0.56717 0.0
C28 C 0.36966 0.37469 0.64158 0.0
O29 O 0.38934 0.35866 0.67694 0.0
Cd30 Cd 0.41179 0.3776 0.77492 0.0
O31 O 0.35837 0.4023 0.66004 0.0
Cd32 Cd 0.36249 0.43753 0.7581 0.0
C33 C 0.44111 0.45302 0.722 0.0
O34 O 0.36771 0.39533 0.84014 0.0
O35 O 0.38865 0.44268 0.86049 0.0
O36 O 0.30313 0.44406 0.766 0.0
C37 C 0.37992 0.41484 0.88098 0.0
O38 O 0.44603 0.42421 0.74373 0.0
C39 C 0.30419 0.47229 0.79132 0.0
O40 O 0.41208 0.46442 0.71677 0.0
O41 O 0.33198 0.48614 0.79349 0.0
C42 C 0.58983 0.87769 0.89057 0.0
O43 O 0.60925 0.89418 0.92569 0.0
Cd44 Cd 0.60906 0.90171 0.0396 0.0
O45 O 0.56608 0.86153 0.91562 0.0
Cd46 Cd 0.54475 0.85357 0.02885 0.0
C47 C 0.53238 0.93603 0.04768 0.0
O48 O 0.59865 0.84845 0.07975 0.0
O49 O 0.55671 0.85209 0.14228 0.0
O50 O 0.52905 0.79599 0.01696 0.0
C51 C 0.58706 0.84697 0.13643 0.0
O52 O 0.5632 0.9389 0.05521 0.0
C53 C 0.50401 0.79858 0.05334 0.0
O54 O 0.51956 0.90836 0.03452 0.0
O55 O 0.49509 0.82737 0.06799 0.0
C56 C 0.11268 0.39021 0.11859 0.0
O57 O 0.09529 0.37153 0.08358 0.0
Cd58 Cd 0.08792 0.37181 -0.03052 0.0
O59 O 0.12989 0.41315 0.09344 0.0
Cd60 Cd 0.13855 0.43409 -0.01961 0.0
C61 C 0.05622 0.44925 0.96113 0.0
O62 O 0.14195 0.38002 0.93018 0.0
O63 O 0.14085 0.4219 0.8672 0.0
O64 O 0.19643 0.44891 -0.00723 0.0
C65 C 0.14457 0.39142 0.8735 0.0
O66 O 0.05191 0.41866 0.95351 0.0
C67 C 0.19419 0.47399 0.95642 0.0
O68 O 0.08453 0.46072 -0.02583 0.0
O69 O 0.16549 0.48328 0.9415 0.0
C70 C 0.60741 0.62748 0.36539 0.0
O71 O 0.62416 0.60871 0.32957 0.0
Cd72 Cd 0.60476 0.58545 0.23277 0.0
O73 O 0.57897 0.63718 0.34796 0.0
Cd74 Cd 0.54242 0.63168 0.25182 0.0
C75 C 0.53095 0.55278 0.28859 0.0
O76 O 0.58386 0.62841 0.1684 0.0
O77 O 0.53733 0.6051 0.1498 0.0
O78 O 0.53422 0.69078 0.24526 0.0
C79 C 0.5645 0.6153 0.12831 0.0
O80 O 0.55994 0.54954 0.26644 0.0
C81 C 0.50608 0.68916 0.21942 0.0
O82 O 0.51784 0.58105 0.29378 0.0
O83 O 0.49293 0.66107 0.21658 0.0
C84 C 0.38056 0.10132 0.61891 0.0
O85 O 0.39789 0.12002 0.58356 0.0
Cd86 Cd 0.4052 0.11974 0.46941 0.0
O87 O 0.36338 0.07833 0.59415 0.0
Cd88 Cd 0.35474 0.05733 0.48138 0.0
C89 C 0.43707 0.04238 0.46159 0.0
O90 O 0.35119 0.11138 0.43056 0.0
O91 O 0.35237 0.0695 0.36805 0.0
O92 O 0.2969 0.04232 0.494 0.0
C93 C 0.34859 0.09997 0.37401 0.0
O94 O 0.44129 0.07298 0.45361 0.0
C95 C 0.29928 0.01721 0.45801 0.0
O96 O 0.40882 0.03082 0.47502 0.0
O97 O 0.32803 0.008 0.44328 0.0
C98 C 0.88594 0.86393 0.86776 0.0
O99 O 0.86902 0.88254 0.83179 0.0
Cd100 Cd 0.88772 0.90565 0.73401 0.0
O101 O 0.91428 0.85412 0.84991 0.0
Cd102 Cd 0.95018 0.85935 0.75243 0.0
C103 C 0.96177 0.93834 0.78769 0.0
O104 O 0.90831 0.86265 0.66984 0.0
O105 O 0.95476 0.88595 0.65007 0.0
O106 O 0.95875 0.8003 0.74569 0.0
C107 C 0.92745 0.87587 0.62926 0.0
O108 O 0.9327 0.94161 0.76608 0.0
C109 C 0.98688 0.80222 0.71975 0.0
O110 O 0.97486 0.91006 0.79303 0.0
O111 O -0.00017 0.83041 0.71696 0.0
C112 C 0.62203 0.6191 0.63521 0.0
O113 O 0.60155 0.63487 0.66913 0.0
Cd114 Cd 0.57733 0.61621 0.76603 0.0
O115 O 0.63405 0.5921 0.65552 0.0
Cd116 Cd 0.63041 0.55851 0.75611 0.0
C117 C 0.55304 0.53819 0.71826 0.0
O118 O 0.61923 0.5996 0.83658 0.0
O119 O 0.60087 0.55069 0.85451 0.0
O120 O 0.68626 0.56291 0.79022 0.0
C121 C 0.60704 0.57906 0.87574 0.0
O122 O 0.54672 0.56746 0.73538 0.0
C123 C 0.69103 0.53277 0.80117 0.0
O124 O 0.58251 0.52757 0.71715 0.0
O125 O 0.66889 0.51298 0.78262 0.0
C126 C 0.39366 0.11196 0.89638 0.0
O127 O 0.37433 0.09541 0.93182 0.0
Cd128 Cd 0.37544 0.08783 0.04577 0.0
O129 O 0.41764 0.12784 0.92097 0.0
Cd130 Cd 0.43971 0.13502 0.0335 0.0
C131 C 0.45153 0.05241 0.05108 0.0
O132 O 0.38603 0.14132 0.08481 0.0
O133 O 0.4279 0.1366 0.14715 0.0
O134 O 0.45655 0.19224 0.02061 0.0
C135 C 0.39777 0.14289 0.14129 0.0
O136 O 0.42076 0.0497 0.0598 0.0
C137 C 0.4815 0.1892 0.05703 0.0
O138 O 0.46438 0.08009 0.03782 0.0
O139 O 0.48985 0.16025 0.07204 0.0
C140 C 0.87126 0.87364 0.13785 0.0
O141 O 0.89129 0.85778 0.17274 0.0
Cd142 Cd 0.91451 0.87633 0.2704 0.0
O143 O 0.85923 0.90077 0.15725 0.0
Cd144 Cd 0.8622 0.93474 0.25712 0.0
C145 C 0.94022 0.95378 0.22109 0.0
O146 O 0.87185 0.89354 0.33874 0.0
O147 O 0.89041 0.94226 0.35687 0.0
O148 O 0.80529 0.93227 0.28628 0.0
C149 C 0.88383 0.91394 0.37817 0.0
O150 O 0.94606 0.92458 0.23956 0.0
C151 C 0.8017 0.96246 0.29815 0.0
O152 O 0.91087 0.96469 0.2185 0.0
O153 O 0.82521 0.98135 0.28255 0.0
C154 C 0.09958 0.3798 0.39625 0.0
O155 O 0.119 0.39626 0.43141 0.0
Cd156 Cd 0.11794 0.40378 0.54533 0.0
O157 O 0.07555 0.36402 0.42114 0.0
Cd158 Cd 0.05346 0.35687 0.53378 0.0
C159 C 0.042 0.43951 0.55084 0.0
O160 O 0.10711 0.3503 0.58486 0.0
O161 O 0.06527 0.35505 0.64737 0.0
O162 O 0.03639 0.29976 0.52106 0.0
C163 C 0.09538 0.34869 0.6414 0.0
O164 O 0.07278 0.44208 0.55933 0.0
C165 C 0.01149 0.30279 0.55767 0.0
O166 O 0.02902 0.4119 0.53787 0.0
O167 O 0.00326 0.33172 0.57276 0.0
C168 C 0.60171 0.89076 0.613 0.0
O169 O 0.58408 0.87267 0.57729 0.0
Cd170 Cd 0.5773 0.87585 0.46329 0.0
O171 O 0.61923 0.91368 0.58865 0.0
Cd172 Cd 0.62982 0.93604 0.47712 0.0
C173 C 0.54891 0.95526 0.45911 0.0
O174 O 0.63145 0.88276 0.42442 0.0
O175 O 0.6307 0.92533 0.36298 0.0
O176 O 0.68804 0.94404 0.49625 0.0
C177 C 0.63399 0.8947 0.36814 0.0
O178 O 0.54401 0.92481 0.45076 0.0
C179 C 0.69035 0.96944 0.46087 0.0
O180 O 0.57746 0.96612 0.47232 0.0
O181 O 0.66362 0.98243 0.44267 0.0
C182 C 0.1132 0.12945 0.86975 0.0
O183 O 0.13043 0.11136 0.8334 0.0
Cd184 Cd 0.11228 0.08909 0.73455 0.0
O185 O 0.08501 0.1395 0.85161 0.0
Cd186 Cd 0.04971 0.13573 0.75354 0.0
C187 C 0.03796 0.05642 0.78766 0.0
O188 O 0.09154 0.13215 0.67029 0.0
O189 O 0.04441 0.11023 0.65104 0.0
O190 O 0.04182 0.19481 0.7476 0.0
C191 C 0.07204 0.11937 0.62998 0.0
O192 O 0.06707 0.05318 0.76614 0.0
C193 C 0.01341 0.19335 0.72287 0.0
O194 O 0.0249 0.0847 0.79315 0.0
O195 O 8e-05 0.16534 0.72034 0.0
C196 C 0.89278 0.602 0.11252 0.0
O197 O 0.91047 0.61999 0.07647 0.0
Cd198 Cd 0.91697 0.61645 0.96246 0.0
O199 O 0.87512 0.57917 0.08857 0.0
Cd200 Cd 0.86406 0.55676 -0.02241 0.0
C201 C 0.9447 0.53677 0.95903 0.0
O202 O 0.86275 0.60996 0.92407 0.0
O203 O 0.86315 0.56733 0.86324 0.0
O204 O 0.8059 0.55006 -0.00167 0.0
C205 C 0.86006 0.59798 0.86799 0.0
O206 O 0.94978 0.5672 0.95037 0.0
C207 C 0.80273 0.52471 0.96335 0.0
O208 O 0.9161 0.52608 -0.0274 0.0
O209 O 0.82902 0.51104 0.94464 0.0
C210 C 0.38011 0.36088 0.37141 0.0
O211 O 0.36271 0.37898 0.33529 0.0
Cd212 Cd 0.38079 0.40193 0.2367 0.0
O213 O 0.40835 0.35113 0.35299 0.0
Cd214 Cd 0.44342 0.35551 0.25453 0.0
C215 C 0.45505 0.43458 0.28958 0.0
O216 O 0.40157 0.35939 0.17154 0.0
O217 O 0.4485 0.38191 0.15257 0.0
O218 O 0.45133 0.29647 0.24778 0.0
C219 C 0.42099 0.3726 0.13141 0.0
O220 O 0.4259 0.43784 0.26837 0.0
C221 C 0.47968 0.29807 0.22267 0.0
O222 O 0.46821 0.40631 0.29462 0.0
O223 O 0.493 0.3261 0.22025 0.0
C224 C 0.27549 0.00353 0.35103 0.0
C225 C 0.27106 0.0068 0.41832 0.0
H226 H 0.2528 0.00545 0.25735 0.0
C227 C 0.23912 0.00774 0.44325 0.0
H228 H 0.29988 0.00342 0.33029 0.0
C229 C 0.21217 0.00752 0.40134 0.0
C230 C 0.21685 0.00768 0.33392 0.0
H231 H 0.23505 0.01077 0.49466 0.0
H232 H 0.18783 0.01045 0.42151 0.0
C233 C 0.24862 0.00476 0.30908 0.0
C234 C -0.00017 0.78027 0.61117 0.0
C235 C -0.0014 0.77531 0.6785 0.0
H236 H -0.00224 0.75789 0.51734 0.0
C237 C 0.001 0.74344 0.70297 0.0
H238 H -0.00271 0.80468 0.59119 0.0
C239 C 0.00271 0.71681 0.6607 0.0
C240 C 0.00043 0.72155 0.59332 0.0
H241 H -0.00052 0.73901 0.75457 0.0
H242 H 0.00234 0.69236 0.68108 0.0
C243 C 6e-05 0.75357 0.56885 0.0
C244 C 0.28144 0.48351 0.90001 0.0
C245 C 0.27692 0.48329 0.83257 0.0
H246 H 0.25834 0.48036 -0.00673 0.0
C247 C 0.24521 0.48621 0.80754 0.0
H248 H 0.30573 0.48057 0.92033 0.0
C249 C 0.21825 0.48751 0.84934 0.0
C250 C 0.22251 0.4843 0.9167 0.0
H251 H 0.24116 0.48548 0.75579 0.0
H252 H 0.19391 0.48762 0.82848 0.0
C253 C 0.2544 0.48335 0.94179 0.0
C254 C 0.49402 0.7386 0.06874 0.0
C255 C 0.49353 0.77049 0.09351 0.0
H256 H 0.49657 0.68737 0.09062 0.0
C257 C 0.49074 0.77488 0.16088 0.0
H258 H 0.49669 0.73455 0.01724 0.0
C259 C 0.49209 0.74802 0.20292 0.0
C260 C 0.49464 0.71628 0.17818 0.0
H261 H 0.49098 0.79922 0.18149 0.0
H262 H 0.49324 0.75217 0.2546 0.0
C263 C 0.4939 0.71167 0.11079 0.0
C264 C 0.71645 0.53849 0.90852 0.0
C265 C 0.71667 0.5233 0.84772 0.0
H266 H 0.74301 0.54945 -0.00534 0.0
C267 C 0.7428 0.50268 0.83132 0.0
H268 H 0.69623 0.55417 0.92248 0.0
C269 C 0.76989 0.49996 0.87296 0.0
C270 C 0.77097 0.51778 0.93136 0.0
H271 H 0.74334 0.49066 0.78473 0.0
H272 H 0.79101 0.48615 0.85688 0.0
C273 C 0.74314 0.53556 0.95012 0.0
C274 C 0.49356 0.23923 0.20651 0.0
C275 C 0.49131 0.27104 0.1817 0.0
H276 H 0.49432 0.18809 0.18519 0.0
C277 C 0.4924 0.27582 0.11432 0.0
H278 H 0.49214 0.23496 0.25817 0.0
C279 C 0.49224 0.249 0.0723 0.0
C280 C 0.49232 0.21704 0.09713 0.0
H281 H 0.48999 0.30018 0.09411 0.0
H282 H 0.48977 0.25319 0.02078 0.0
C283 C 0.49487 0.21247 0.16452 0.0
C284 C 0.77735 0.95912 0.40693 0.0
C285 C 0.77613 0.97243 0.34432 0.0
H286 H 0.75141 0.94899 0.49456 0.0
C287 C 0.74877 0.99085 0.32569 0.0
H288 H 0.79842 0.94497 0.42234 0.0
C289 C 0.72169 0.99333 0.36743 0.0
C290 C 0.72171 0.9772 0.42793 0.0
H291 H 0.74738 0.00125 0.27754 0.0
H292 H 0.69978 0.00537 0.34993 0.0
C293 C 0.75051 0.9616 0.44845 0.0
C294 C 0.00043 0.24301 0.57294 0.0
C295 C 0.00064 0.27487 0.59788 0.0
H296 H 0.00248 0.19174 0.59453 0.0
C297 C -0.0016 0.27923 0.66533 0.0
H298 H 0.00266 0.23899 0.52136 0.0
C299 C -0.00026 0.25231 0.70721 0.0
C300 C 0.00171 0.22058 0.68225 0.0
H301 H -0.00082 0.30353 0.68605 0.0
H302 H 0.00141 0.25639 0.75885 0.0
C303 C 0.00029 0.21605 0.61488 0.0
C304 C 0.02772 0.98299 0.20399 0.0
C305 C 0.02405 0.01695 0.21059 0.0
H306 H 0.00402 0.93641 0.20146 0.0
C307 C 0.9922 0.03024 0.21173 0.0
H308 H 0.05183 0.97195 0.20258 0.0
C309 C 0.96469 0.00985 0.21078 0.0
C310 C 0.96847 0.97574 0.20918 0.0
H311 H 0.98847 0.05637 0.2161 0.0
H312 H 0.9406 0.02076 0.21496 0.0
C313 C 0.00024 0.96261 0.20352 0.0
C314 C 0.96778 0.49529 0.55277 0.0
C315 C 0.98233 0.5265 0.55135 0.0
H316 H 0.97507 0.44343 0.55348 0.0
C317 C 0.01666 0.52881 0.55215 0.0
H318 H 0.94138 0.49257 0.55216 0.0
C319 C 0.03598 0.50057 0.55346 0.0
C320 C 0.02141 0.46935 0.55329 0.0
H321 H 0.02866 0.55244 0.55134 0.0
H322 H 0.06238 0.50325 0.55331 0.0
C323 C 0.98708 0.46706 0.55338 0.0
C324 C 0.5018 0.4612 0.71136 0.0
C325 C 0.46986 0.47421 0.70891 0.0
H326 H 0.55331 0.47116 0.71526 0.0
C327 C 0.46596 0.50805 0.70037 0.0
H328 H 0.50572 0.43516 0.71722 0.0
C329 C 0.49327 0.52865 0.69938 0.0
C330 C 0.5251 0.51586 0.70648 0.0
H331 H 0.44177 0.51888 0.69786 0.0
H332 H 0.48929 0.55479 0.69586 0.0
C333 C 0.52916 0.48181 0.70994 0.0
C334 C 0.526 -0.00304 0.05291 0.0
C335 C 0.51158 0.96569 0.05176 0.0
H336 H 0.51847 0.04878 0.05335 0.0
C337 C 0.47726 0.96322 0.05277 0.0
H338 H 0.55238 -0.00021 0.05213 0.0
C339 C 0.45782 0.99138 0.05403 0.0
C340 C 0.47225 0.02266 0.05359 0.0
H341 H 0.46537 0.93954 0.05218 0.0
H342 H 0.43143 0.98858 0.05404 0.0
C343 C 0.50657 0.02511 0.05346 0.0
C344 C 0.03212 0.50553 0.95507 0.0
C345 C 0.02764 0.47151 0.95727 0.0
H346 H 0.0096 0.55266 0.95322 0.0
C347 C 0.9955 0.45897 0.95774 0.0
H348 H 0.05649 0.516 0.95439 0.0
C349 C 0.96848 0.48004 0.95761 0.0
C350 C 0.97301 0.51409 0.95627 0.0
H351 H 0.99117 0.43285 0.95952 0.0
H352 H 0.94409 0.46964 0.95901 0.0
C353 C 0.00515 0.52655 0.95423 0.0
C354 C 0.50881 0.46325 0.30436 0.0
C355 C 0.47447 0.46452 0.30205 0.0
H356 H 0.55365 0.49028 0.30239 0.0
C357 C 0.45889 0.49524 0.30452 0.0
H358 H 0.52157 0.44004 0.3028 0.0
C359 C 0.47727 0.52409 0.30464 0.0
C360 C 0.5116 0.52283 0.3017 0.0
H361 H 0.43242 0.49707 0.30354 0.0
H362 H 0.4645 0.54731 0.30327 0.0
C363 C 0.52718 0.49211 0.3039 0.0
C364 C 0.46135 0.98616 0.4559 0.0
C365 C 0.46572 0.0202 0.45764 0.0
H366 H 0.48405 0.9391 0.45432 0.0
C367 C 0.4978 0.03285 0.45753 0.0
H368 H 0.43702 0.9756 0.45568 0.0
C369 C 0.5249 0.01188 0.45729 0.0
C370 C 0.5205 0.97781 0.45642 0.0
H371 H 0.50205 0.05899 0.45893 0.0
H372 H 0.54926 0.02238 0.45824 0.0
C373 C 0.4884 0.96523 0.45495 0.0
C374 C 0.98413 0.02782 0.80261 0.0
C375 C 0.01847 0.02648 0.8001 0.0
H376 H 0.93923 0.0009 0.80109 0.0
C377 C 0.03398 0.99573 0.80247 0.0
H378 H 0.97143 0.05107 0.80111 0.0
C379 C 0.01554 0.96692 0.80281 0.0
C380 C 0.98121 0.96826 0.8002 0.0
H381 H 0.06044 0.99384 0.80131 0.0
H382 H 0.02826 0.94367 0.80146 0.0
C383 C 0.9657 -0.00099 0.80236 0.0
C384 C 0.06727 0.08277 0.5359 0.0
C385 C 0.0831 0.10901 0.56616 0.0
H386 H 0.06508 0.05172 0.4536 0.0
C387 C 0.10935 0.12475 0.53524 0.0
H388 H 0.04706 0.07013 0.559 0.0
C389 C 0.1194 0.11446 0.47409 0.0
C390 C 0.10369 0.08795 0.44438 0.0
H391 H 0.12179 0.1451 0.55796 0.0
H392 H 0.13959 0.12689 0.45047 0.0
C393 C 0.07769 0.07212 0.47578 0.0
C394 C 0.86099 0.61947 0.69304 0.0
C395 C 0.8865 0.64238 0.69267 0.0
H396 H 0.83245 0.58687 0.75141 0.0
C397 C 0.89721 0.65621 0.75093 0.0
H398 H 0.85252 0.60847 0.64847 0.0
C399 C 0.88523 0.64444 0.8096 0.0
C400 C 0.86321 0.61816 0.81 0.0
H401 H 0.91691 0.67399 0.7512 0.0
H402 H 0.89593 0.65333 0.85415 0.0
C403 C 0.84967 0.60705 0.75172 0.0
C404 C 0.38416 0.36688 0.03628 0.0
C405 C 0.41 0.38299 0.06751 0.0
H406 H 0.3545 0.36426 0.95095 0.0
C407 C 0.42557 0.40951 0.03734 0.0
H408 H 0.37193 0.3463 0.05894 0.0
C409 C 0.41536 0.42 -0.0231 0.0
C410 C 0.38984 0.40374 0.94511 0.0
H411 H 0.44545 0.42244 0.06071 0.0
H412 H 0.42779 0.4406 0.95476 0.0
C413 C 0.37433 0.37702 -0.02515 0.0
C414 C 0.64443 0.88558 0.25195 0.0
C415 C 0.63092 0.87447 0.31044 0.0
H416 H 0.64164 0.88406 0.14875 0.0
C417 C 0.60898 0.84812 0.31048 0.0
H418 H 0.66159 0.90581 0.25132 0.0
C419 C 0.59706 0.83626 0.25201 0.0
C420 C 0.60774 0.85008 0.19351 0.0
H421 H 0.59832 0.83923 0.3552 0.0
H422 H 0.57743 0.81841 0.25261 0.0
C423 C 0.63318 0.87307 0.19348 0.0
C424 C 0.14361 0.37012 0.69942 0.0
C425 C 0.11616 0.34956 0.6987 0.0
H426 H 0.17455 0.39993 0.75834 0.0
C427 C 0.10434 0.33614 0.75672 0.0
H428 H 0.15302 0.38072 0.65505 0.0
C429 C 0.11719 0.34644 0.8156 0.0
C430 C 0.14124 0.37086 0.81638 0.0
H431 H 0.08322 0.32007 0.75672 0.0
H432 H 0.1056 0.33831 0.85998 0.0
C433 C 0.15586 0.3811 0.75831 0.0
C434 C 0.60074 0.62395 0.03335 0.0
C435 C 0.57529 0.60661 0.06341 0.0
H436 H 0.63056 0.62891 0.94863 0.0
C437 C 0.56015 0.58054 0.03124 0.0
H438 H 0.6126 0.64423 0.05749 0.0
C439 C 0.57068 0.57153 -0.02994 0.0
C440 C 0.59601 0.5889 0.93978 0.0
H441 H 0.54051 0.56675 0.0537 0.0
H442 H 0.55881 0.55113 0.9463 0.0
C443 C 0.61085 0.61533 -0.02864 0.0
C444 C 0.37592 0.145 0.31555 0.0
C445 C 0.35191 0.12053 0.31666 0.0
H446 H 0.40985 0.17147 0.25632 0.0
C447 C 0.33735 0.11026 0.25873 0.0
H448 H 0.38746 0.15315 0.35983 0.0
C449 C 0.3496 0.12129 0.19969 0.0
C450 C 0.37699 0.14191 0.19869 0.0
H451 H 0.3187 0.09139 0.25901 0.0
H452 H 0.34023 0.11068 0.15546 0.0
C453 C 0.38877 0.15535 0.25654 0.0
C454 C 0.93113 0.91148 0.53293 0.0
C455 C 0.91622 0.8851 0.56488 0.0
H456 H 0.93206 0.94155 0.44861 0.0
C457 C 0.89059 0.86801 0.53511 0.0
H458 H 0.95087 0.92511 0.55519 0.0
C459 C 0.88017 0.87712 0.47352 0.0
C460 C 0.89486 0.9038 0.4421 0.0
H461 H 0.87889 0.84752 0.55912 0.0
H462 H 0.8604 0.86368 0.45091 0.0
C463 C 0.92029 0.92098 0.47222 0.0
C464 C 0.14701 0.11231 0.96427 0.0
C465 C 0.12322 0.13338 0.93778 0.0
H466 H 0.16619 0.09016 0.05008 0.0
C467 C 0.10535 0.15381 -0.02084 0.0
H468 H 0.16156 0.09651 0.9336 0.0
C469 C 0.10841 0.15048 0.04599 0.0
C470 C 0.12899 0.12625 0.07242 0.0
H471 H 0.08727 0.17068 0.96012 0.0
H472 H 0.09248 0.16495 0.07657 0.0
C473 C 0.14968 0.10858 0.03112 0.0
C474 C 0.92029 0.6319 0.2772 0.0
C475 C 0.90022 0.6136 0.31884 0.0
H476 H 0.93351 0.6428 0.17951 0.0
C477 C 0.87656 0.59256 0.29192 0.0
H478 H 0.93867 0.64836 0.29627 0.0
C479 C 0.87369 0.58917 0.22501 0.0
C480 C 0.89424 0.60692 0.18338 0.0
H481 H 0.86061 0.57806 0.32252 0.0
H482 H 0.85565 0.57232 0.20601 0.0
C483 C 0.91726 0.62869 0.21021 0.0
C484 C 0.38572 0.34002 0.54778 0.0
C485 C 0.3649 0.364 0.57417 0.0
H486 H 0.40685 0.32001 0.46187 0.0
C487 C 0.34375 0.38125 0.53298 0.0
H488 H 0.40199 0.32586 0.57831 0.0
C489 C 0.34621 0.37744 0.46615 0.0
C490 C 0.37024 0.35673 0.43957 0.0
H491 H 0.32704 0.39945 0.55196 0.0
H492 H 0.3313 0.39298 0.43552 0.0
C493 C 0.38856 0.33661 0.48095 0.0
C494 C 0.62064 0.90377 0.72533 0.0
C495 C 0.60027 0.88584 0.68393 0.0
H496 H 0.63354 0.91501 0.82272 0.0
C497 C 0.57741 0.8639 0.71106 0.0
H498 H 0.63855 0.92077 0.70611 0.0
C499 C 0.57435 0.86067 0.7781 0.0
C500 C 0.59423 0.87914 0.8195 0.0
H501 H 0.5613 0.84964 0.68057 0.0
H502 H 0.55609 0.84406 0.79737 0.0
C503 C 0.61774 0.90038 0.7923 0.0
C504 C 0.12769 0.40201 0.29775 0.0
C505 C 0.10436 0.3807 0.32529 0.0
H506 H 0.14864 0.42182 0.21112 0.0
C507 C 0.08502 0.36146 0.28427 0.0
H508 H 0.14306 0.41723 0.32793 0.0
C509 C 0.08843 0.364 0.21724 0.0
C510 C 0.11108 0.38601 0.18966 0.0
H511 H 0.06693 0.34475 0.30384 0.0
H512 H 0.07271 0.34914 0.18706 0.0
C513 C 0.13092 0.40473 0.2307 0.0
C514 C 0.64661 0.61046 0.52597 0.0
C515 C 0.62633 0.6288 0.56694 0.0
H516 H 0.65706 0.59632 0.42892 0.0
C517 C 0.60534 0.65245 0.53973 0.0
H518 H 0.66344 0.59247 0.54545 0.0
C519 C 0.60124 0.65431 0.47291 0.0
C520 C 0.6185 0.63298 0.43232 0.0
H521 H 0.58977 0.66748 0.56997 0.0
H522 H 0.58278 0.67067 0.45356 0.0
C523 C 0.64289 0.61271 0.45907 0.0
C524 C 0.40477 0.12766 0.71708 0.0
C525 C 0.38216 0.10557 0.68992 0.0
H526 H 0.42622 0.14702 0.80332 0.0
C527 C 0.36236 0.08685 0.73131 0.0
H528 H 0.42045 0.14253 0.68662 0.0
C529 C 0.36559 0.08963 0.79831 0.0
C530 C 0.38888 0.11102 0.82545 0.0
H531 H 0.34468 0.06971 0.71205 0.0
H532 H 0.35026 0.07441 0.82876 0.0
C533 C 0.40817 0.13026 0.78407 0.0
C534 C 0.88877 0.8403 0.04316 0.0
C535 C 0.86737 0.86374 0.06971 0.0
H536 H 0.91152 0.82188 0.95745 0.0
C537 C 0.84684 0.88156 0.02826 0.0
H538 H 0.90459 0.82571 0.07381 0.0
C539 C 0.85052 0.87893 0.96142 0.0
C540 C 0.87515 0.85881 0.93513 0.0
H541 H 0.82972 0.89937 0.04725 0.0
H542 H 0.83604 0.89488 0.93082 0.0
C543 C 0.89283 0.83807 -0.02363 0.0
loop_
_geom_bond_atom_site_label_1
_geom_bond_atom_site_label_2
_geom_bond_distance
_geom_bond_site_symmetry_2
_ccdc_geom_bond_type
C0 O1 1.306 . S
C0 O3 1.160 . S
O1 C0 1.306 . S
O1 Cd2 2.228 . S
Cd2 O1 2.228 . S
Cd2 O6 2.273 . S
Cd2 O10 2.277 . S
O3 C0 1.160 . S
O3 Cd4 2.203 . S
Cd4 O3 2.203 . S
Cd4 O6 2.411 . S
Cd4 O7 2.333 . S
Cd4 O8 2.352 . S
Cd4 O12 2.277 . S
Cd4 O13 2.356 . S
C5 O10 1.209 . S
C5 O12 1.226 . S
O6 Cd2 2.273 . S
O6 Cd4 2.411 . S
O6 C9 1.320 . S
O7 Cd4 2.333 . S
O7 C9 1.214 . S
O8 Cd4 2.352 . S
O8 C11 1.258 . S
C9 O6 1.320 . S
C9 O7 1.214 . S
O10 Cd2 2.277 . S
O10 C5 1.209 . S
C11 O8 1.258 . S
C11 O13 1.282 . S
O12 Cd4 2.277 . S
O12 C5 1.226 . S
O13 Cd4 2.356 . S
O13 C11 1.282 . S
C14 O15 1.306 . S
C14 O17 1.160 . S
O15 C14 1.306 . S
O15 Cd16 2.228 . S
Cd16 O15 2.228 . S
Cd16 O20 2.273 . S
Cd16 O24 2.277 . S
O17 C14 1.160 . S
O17 Cd18 2.203 . S
Cd18 O17 2.203 . S
Cd18 O20 2.411 . S
Cd18 O21 2.333 . S
Cd18 O22 2.352 . S
Cd18 O26 2.277 . S
Cd18 O27 2.356 . S
C19 O24 1.209 . S
C19 O26 1.226 . S
O20 Cd16 2.273 . S
O20 Cd18 2.411 . S
O20 C23 1.320 . S
O21 Cd18 2.333 . S
O21 C23 1.214 . S
O22 Cd18 2.352 . S
O22 C25 1.258 . S
C23 O20 1.320 . S
C23 O21 1.214 . S
O24 Cd16 2.277 . S
O24 C19 1.209 . S
C25 O22 1.258 . S
C25 O27 1.282 . S
O26 Cd18 2.277 . S
O26 C19 1.226 . S
O27 Cd18 2.356 . S
O27 C25 1.282 . S
C28 O29 1.306 . S
C28 O31 1.160 . S
O29 C28 1.306 . S
O29 Cd30 2.228 . S
Cd30 O29 2.228 . S
Cd30 O34 2.273 . S
Cd30 O38 2.277 . S
O31 C28 1.160 . S
O31 Cd32 2.203 . S
Cd32 O31 2.203 . S
Cd32 O34 2.411 . S
Cd32 O35 2.333 . S
Cd32 O36 2.352 . S
Cd32 O40 2.277 . S
Cd32 O41 2.356 . S
C33 O38 1.209 . S
C33 O40 1.226 . S
O34 Cd30 2.273 . S
O34 Cd32 2.411 . S
O34 C37 1.320 . S
O35 Cd32 2.333 . S
O35 C37 1.214 . S
O36 Cd32 2.352 . S
O36 C39 1.258 . S
C37 O34 1.320 . S
C37 O35 1.214 . S
O38 Cd30 2.277 . S
O38 C33 1.209 . S
C39 O36 1.258 . S
C39 O41 1.282 . S
O40 Cd32 2.277 . S
O40 C33 1.226 . S
O41 Cd32 2.356 . S
O41 C39 1.282 . S
C42 O43 1.306 . S
C42 O45 1.160 . S
O43 C42 1.306 . S
O43 Cd44 2.228 1_556 S
Cd44 O43 2.228 1_554 S
Cd44 O48 2.273 . S
Cd44 O52 2.277 . S
O45 C42 1.160 . S
O45 Cd46 2.203 1_556 S
Cd46 O45 2.203 1_554 S
Cd46 O48 2.411 . S
Cd46 O49 2.333 . S
Cd46 O50 2.352 . S
Cd46 O54 2.277 . S
Cd46 O55 2.356 . S
C47 O52 1.209 . S
C47 O54 1.226 . S
O48 Cd44 2.273 . S
O48 Cd46 2.411 . S
O48 C51 1.320 . S
O49 Cd46 2.333 . S
O49 C51 1.214 . S
O50 Cd46 2.352 . S
O50 C53 1.258 . S
C51 O48 1.320 . S
C51 O49 1.214 . S
O52 Cd44 2.277 . S
O52 C47 1.209 . S
C53 O50 1.258 . S
C53 O55 1.282 . S
O54 Cd46 2.277 . S
O54 C47 1.226 . S
O55 Cd46 2.356 . S
O55 C53 1.282 . S
C56 O57 1.306 . S
C56 O59 1.160 . S
O57 C56 1.306 . S
O57 Cd58 2.228 . S
Cd58 O57 2.228 . S
Cd58 O62 2.273 1_554 S
Cd58 O66 2.277 . S
O59 C56 1.160 . S
O59 Cd60 2.203 . S
Cd60 O59 2.203 . S
Cd60 O62 2.411 1_554 S
Cd60 O63 2.333 1_554 S
Cd60 O64 2.352 . S
Cd60 O68 2.277 . S
Cd60 O69 2.356 1_554 S
C61 O66 1.209 . S
C61 O68 1.226 . S
O62 Cd58 2.273 1_556 S
O62 Cd60 2.411 1_556 S
O62 C65 1.320 . S
O63 Cd60 2.333 1_556 S
O63 C65 1.214 . S
O64 Cd60 2.352 . S
O64 C67 1.255 1_554 S
C65 O62 1.320 . S
C65 O63 1.214 . S
O66 Cd58 2.277 . S
O66 C61 1.209 . S
C67 O64 1.255 1_556 S
C67 O69 1.282 . S
O68 Cd60 2.277 . S
O68 C61 1.226 . S
O69 Cd60 2.356 1_556 S
O69 C67 1.282 . S
C70 O71 1.306 . S
C70 O73 1.160 . S
O71 C70 1.306 . S
O71 Cd72 2.228 . S
Cd72 O71 2.228 . S
Cd72 O76 2.273 . S
Cd72 O80 2.277 . S
O73 C70 1.160 . S
O73 Cd74 2.203 . S
Cd74 O73 2.203 . S
Cd74 O76 2.411 . S
Cd74 O77 2.333 . S
Cd74 O78 2.352 . S
Cd74 O82 2.277 . S
Cd74 O83 2.356 . S
C75 O80 1.209 . S
C75 O82 1.226 . S
O76 Cd72 2.273 . S
O76 Cd74 2.411 . S
O76 C79 1.320 . S
O77 Cd74 2.333 . S
O77 C79 1.214 . S
O78 Cd74 2.352 . S
O78 C81 1.258 . S
C79 O76 1.320 . S
C79 O77 1.214 . S
O80 Cd72 2.277 . S
O80 C75 1.209 . S
C81 O78 1.258 . S
C81 O83 1.282 . S
O82 Cd74 2.277 . S
O82 C75 1.226 . S
O83 Cd74 2.356 . S
O83 C81 1.282 . S
C84 O85 1.306 . S
C84 O87 1.160 . S
O85 C84 1.306 . S
O85 Cd86 2.228 . S
Cd86 O85 2.228 . S
Cd86 O90 2.273 . S
Cd86 O94 2.277 . S
O87 C84 1.160 . S
O87 Cd88 2.203 . S
Cd88 O87 2.203 . S
Cd88 O90 2.411 . S
Cd88 O91 2.333 . S
Cd88 O92 2.352 . S
Cd88 O96 2.277 . S
Cd88 O97 2.356 . S
C89 O94 1.209 . S
C89 O96 1.226 . S
O90 Cd86 2.273 . S
O90 Cd88 2.411 . S
O90 C93 1.320 . S
O91 Cd88 2.333 . S
O91 C93 1.214 . S
O92 Cd88 2.352 . S
O92 C95 1.258 . S
C93 O90 1.320 . S
C93 O91 1.214 . S
O94 Cd86 2.277 . S
O94 C89 1.209 . S
C95 O92 1.258 . S
C95 O97 1.282 . S
O96 Cd88 2.277 . S
O96 C89 1.226 . S
O97 Cd88 2.356 . S
O97 C95 1.282 . S
C98 O99 1.306 . S
C98 O101 1.160 . S
O99 C98 1.306 . S
O99 Cd100 2.228 . S
Cd100 O99 2.228 . S
Cd100 O104 2.273 . S
Cd100 O108 2.277 . S
O101 C98 1.160 . S
O101 Cd102 2.203 . S
Cd102 O101 2.203 . S
Cd102 O104 2.411 . S
Cd102 O105 2.333 . S
Cd102 O106 2.352 . S
Cd102 O110 2.277 . S
Cd102 O111 2.356 . S
C103 O108 1.209 . S
C103 O110 1.226 . S
O104 Cd100 2.273 . S
O104 Cd102 2.411 . S
O104 C107 1.320 . S
O105 Cd102 2.333 . S
O105 C107 1.214 . S
O106 Cd102 2.352 . S
O106 C109 1.258 . S
C107 O104 1.320 . S
C107 O105 1.214 . S
O108 Cd100 2.277 . S
O108 C103 1.209 . S
C109 O106 1.258 . S
C109 O111 1.282 . S
O110 Cd102 2.277 . S
O110 C103 1.226 . S
O111 Cd102 2.356 . S
O111 C109 1.282 . S
C112 O113 1.306 . S
C112 O115 1.160 . S
O113 C112 1.306 . S
O113 Cd114 2.228 . S
Cd114 O113 2.228 . S
Cd114 O118 2.273 . S
Cd114 O122 2.277 . S
O115 C112 1.160 . S
O115 Cd116 2.203 . S
Cd116 O115 2.203 . S
Cd116 O118 2.411 . S
Cd116 O119 2.333 . S
Cd116 O120 2.352 . S
Cd116 O124 2.277 . S
Cd116 O125 2.356 . S
C117 O122 1.209 . S
C117 O124 1.226 . S
O118 Cd114 2.273 . S
O118 Cd116 2.411 . S
O118 C121 1.320 . S
O119 Cd116 2.333 . S
O119 C121 1.214 . S
O120 Cd116 2.352 . S
O120 C123 1.258 . S
C121 O118 1.320 . S
C121 O119 1.214 . S
O122 Cd114 2.277 . S
O122 C117 1.209 . S
C123 O120 1.258 . S
C123 O125 1.282 . S
O124 Cd116 2.277 . S
O124 C117 1.226 . S
O125 Cd116 2.356 . S
O125 C123 1.282 . S
C126 O127 1.306 . S
C126 O129 1.160 . S
O127 C126 1.306 . S
O127 Cd128 2.228 1_556 S
Cd128 O127 2.228 1_554 S
Cd128 O132 2.273 . S
Cd128 O136 2.277 . S
O129 C126 1.160 . S
O129 Cd130 2.203 1_556 S
Cd130 O129 2.203 1_554 S
Cd130 O132 2.411 . S
Cd130 O133 2.333 . S
Cd130 O134 2.352 . S
Cd130 O138 2.277 . S
Cd130 O139 2.356 . S
C131 O136 1.209 . S
C131 O138 1.226 . S
O132 Cd128 2.273 . S
O132 Cd130 2.411 . S
O132 C135 1.320 . S
O133 Cd130 2.333 . S
O133 C135 1.214 . S
O134 Cd130 2.352 . S
O134 C137 1.258 . S
C135 O132 1.320 . S
C135 O133 1.214 . S
O136 Cd128 2.277 . S
O136 C131 1.209 . S
C137 O134 1.258 . S
C137 O139 1.282 . S
O138 Cd130 2.277 . S
O138 C131 1.226 . S
O139 Cd130 2.356 . S
O139 C137 1.282 . S
C140 O141 1.306 . S
C140 O143 1.160 . S
O141 C140 1.306 . S
O141 Cd142 2.228 . S
Cd142 O141 2.228 . S
Cd142 O146 2.273 . S
Cd142 O150 2.277 . S
O143 C140 1.160 . S
O143 Cd144 2.203 . S
Cd144 O143 2.203 . S
Cd144 O146 2.411 . S
Cd144 O147 2.333 . S
Cd144 O148 2.352 . S
Cd144 O152 2.277 . S
Cd144 O153 2.356 . S
C145 O150 1.209 . S
C145 O152 1.226 . S
O146 Cd142 2.273 . S
O146 Cd144 2.411 . S
O146 C149 1.320 . S
O147 Cd144 2.333 . S
O147 C149 1.214 . S
O148 Cd144 2.352 . S
O148 C151 1.258 . S
C149 O146 1.320 . S
C149 O147 1.214 . S
O150 Cd142 2.277 . S
O150 C145 1.209 . S
C151 O148 1.258 . S
C151 O153 1.282 . S
O152 Cd144 2.277 . S
O152 C145 1.226 . S
O153 Cd144 2.356 . S
O153 C151 1.282 . S
C154 O155 1.306 . S
C154 O157 1.160 . S
O155 C154 1.306 . S
O155 Cd156 2.228 . S
Cd156 O155 2.228 . S
Cd156 O160 2.273 . S
Cd156 O164 2.277 . S
O157 C154 1.160 . S
O157 Cd158 2.203 . S
Cd158 O157 2.203 . S
Cd158 O160 2.411 . S
Cd158 O161 2.333 . S
Cd158 O162 2.352 . S
Cd158 O166 2.277 . S
Cd158 O167 2.356 . S
C159 O164 1.209 . S
C159 O166 1.226 . S
O160 Cd156 2.273 . S
O160 Cd158 2.411 . S
O160 C163 1.320 . S
O161 Cd158 2.333 . S
O161 C163 1.214 . S
O162 Cd158 2.352 . S
O162 C165 1.258 . S
C163 O160 1.320 . S
C163 O161 1.214 . S
O164 Cd156 2.277 . S
O164 C159 1.209 . S
C165 O162 1.258 . S
C165 O167 1.282 . S
O166 Cd158 2.277 . S
O166 C159 1.226 . S
O167 Cd158 2.356 . S
O167 C165 1.282 . S
C168 O169 1.306 . S
C168 O171 1.160 . S
O169 C168 1.306 . S
O169 Cd170 2.228 . S
Cd170 O169 2.228 . S
Cd170 O174 2.273 . S
Cd170 O178 2.277 . S
O171 C168 1.160 . S
O171 Cd172 2.203 . S
Cd172 O171 2.203 . S
Cd172 O174 2.411 . S
Cd172 O175 2.333 . S
Cd172 O176 2.352 . S
Cd172 O180 2.277 . S
Cd172 O181 2.356 . S
C173 O178 1.209 . S
C173 O180 1.226 . S
O174 Cd170 2.273 . S
O174 Cd172 2.411 . S
O174 C177 1.320 . S
O175 Cd172 2.333 . S
O175 C177 1.214 . S
O176 Cd172 2.352 . S
O176 C179 1.258 . S
C177 O174 1.320 . S
C177 O175 1.214 . S
O178 Cd170 2.277 . S
O178 C173 1.209 . S
C179 O176 1.258 . S
C179 O181 1.282 . S
O180 Cd172 2.277 . S
O180 C173 1.226 . S
O181 Cd172 2.356 . S
O181 C179 1.282 . S
C182 O183 1.306 . S
C182 O185 1.160 . S
O183 C182 1.306 . S
O183 Cd184 2.228 . S
Cd184 O183 2.228 . S
Cd184 O188 2.273 . S
Cd184 O192 2.277 . S
O185 C182 1.160 . S
O185 Cd186 2.203 . S
Cd186 O185 2.203 . S
Cd186 O188 2.411 . S
Cd186 O189 2.333 . S
Cd186 O190 2.352 . S
Cd186 O194 2.277 . S
Cd186 O195 2.356 . S
C187 O192 1.209 . S
C187 O194 1.226 . S
O188 Cd184 2.273 . S
O188 Cd186 2.411 . S
O188 C191 1.320 . S
O189 Cd186 2.333 . S
O189 C191 1.214 . S
O190 Cd186 2.352 . S
O190 C193 1.258 . S
C191 O188 1.320 . S
C191 O189 1.214 . S
O192 Cd184 2.277 . S
O192 C187 1.209 . S
C193 O190 1.258 . S
C193 O195 1.282 . S
O194 Cd186 2.277 . S
O194 C187 1.226 . S
O195 Cd186 2.356 . S
O195 C193 1.282 . S
C196 O197 1.306 . S
C196 O199 1.160 . S
O197 C196 1.306 . S
O197 Cd198 2.228 . S
Cd198 O197 2.228 . S
Cd198 O202 2.273 1_554 S
Cd198 O206 2.277 . S
O199 C196 1.160 . S
O199 Cd200 2.203 . S
Cd200 O199 2.203 . S
Cd200 O202 2.411 1_554 S
Cd200 O203 2.333 1_554 S
Cd200 O204 2.352 . S
Cd200 O208 2.277 . S
Cd200 O209 2.356 1_554 S
C201 O206 1.209 . S
C201 O208 1.226 . S
O202 Cd198 2.273 1_556 S
O202 Cd200 2.411 1_556 S
O202 C205 1.320 . S
O203 Cd200 2.333 1_556 S
O203 C205 1.214 . S
O204 Cd200 2.352 . S
O204 C207 1.255 1_554 S
C205 O202 1.320 . S
C205 O203 1.214 . S
O206 Cd198 2.277 . S
O206 C201 1.209 . S
C207 O204 1.255 1_556 S
C207 O209 1.282 . S
O208 Cd200 2.277 . S
O208 C201 1.226 . S
O209 Cd200 2.356 1_556 S
O209 C207 1.282 . S
C210 O211 1.306 . S
C210 O213 1.160 . S
O211 C210 1.306 . S
O211 Cd212 2.228 . S
Cd212 O211 2.228 . S
Cd212 O216 2.273 . S
Cd212 O220 2.277 . S
O213 C210 1.160 . S
O213 Cd214 2.203 . S
Cd214 O213 2.203 . S
Cd214 O216 2.411 . S
Cd214 O217 2.333 . S
Cd214 O218 2.352 . S
Cd214 O222 2.277 . S
Cd214 O223 2.356 . S
C215 O220 1.209 . S
C215 O222 1.226 . S
O216 Cd212 2.273 . S
O216 Cd214 2.411 . S
O216 C219 1.320 . S
O217 Cd214 2.333 . S
O217 C219 1.214 . S
O218 Cd214 2.352 . S
O218 C221 1.258 . S
C219 O216 1.320 . S
C219 O217 1.214 . S
O220 Cd212 2.277 . S
O220 C215 1.209 . S
C221 O218 1.258 . S
C221 O223 1.282 . S
O222 Cd214 2.277 . S
O222 C215 1.226 . S
O223 Cd214 2.356 . S
O223 C221 1.282 . S
C224 C225 1.387 . S
C224 H228 0.950 . S
C224 C233 1.390 . S
C225 C224 1.387 . S
C225 C227 1.387 . S
H226 C233 0.950 . S
C227 C225 1.387 . S
C227 C229 1.390 . S
C227 H231 0.950 . S
H228 C224 0.950 . S
C229 C227 1.390 . S
C229 C230 1.387 . S
C229 H232 0.950 . S
C230 C229 1.387 . S
C230 C233 1.387 . S
H231 C227 0.950 . S
H232 C229 0.950 . S
C233 C224 1.390 . S
C233 H226 0.950 . S
C233 C230 1.387 . S
C234 C235 1.387 . S
C234 H238 0.950 . S
C234 C243 1.390 . S
C235 C234 1.387 . S
C235 C237 1.387 . S
H236 C243 0.950 . S
C237 C235 1.387 . S
C237 C239 1.390 . S
C237 H241 0.950 . S
H238 C234 0.950 . S
C239 C237 1.390 . S
C239 C240 1.387 . S
C239 H242 0.950 . S
C240 C239 1.387 . S
C240 C243 1.387 . S
H241 C237 0.950 . S
H242 C239 0.950 . S
C243 C234 1.390 . S
C243 H236 0.950 . S
C243 C240 1.387 . S
C244 C245 1.387 . S
C244 H248 0.950 . S
C244 C253 1.390 . S
C245 C244 1.387 . S
C245 C247 1.387 . S
H246 C253 0.950 . S
C247 C245 1.387 . S
C247 C249 1.390 . S
C247 H251 0.950 . S
H248 C244 0.950 . S
C249 C247 1.390 . S
C249 C250 1.387 . S
C249 H252 0.950 . S
C250 C249 1.387 . S
C250 C253 1.387 . S
H251 C247 0.950 . S
H252 C249 0.950 . S
C253 C244 1.390 . S
C253 H246 0.950 . S
C253 C250 1.387 . S
C254 C255 1.387 . S
C254 H258 0.950 . S
C254 C263 1.390 . S
C255 C254 1.387 . S
C255 C257 1.387 . S
H256 C263 0.950 . S
C257 C255 1.387 . S
C257 C259 1.390 . S
C257 H261 0.950 . S
H258 C254 0.950 . S
C259 C257 1.390 . S
C259 C260 1.387 . S
C259 H262 0.950 . S
C260 C259 1.387 . S
C260 C263 1.387 . S
H261 C257 0.950 . S
H262 C259 0.950 . S
C263 C254 1.390 . S
C263 H256 0.950 . S
C263 C260 1.387 . S
C264 C265 1.387 . S
C264 H268 0.950 . S
C264 C273 1.390 . S
C265 C264 1.387 . S
C265 C267 1.387 . S
H266 C273 0.950 . S
C267 C265 1.387 . S
C267 C269 1.390 . S
C267 H271 0.950 . S
H268 C264 0.950 . S
C269 C267 1.390 . S
C269 C270 1.387 . S
C269 H272 0.950 . S
C270 C269 1.387 . S
C270 C273 1.387 . S
H271 C267 0.950 . S
H272 C269 0.950 . S
C273 C264 1.390 . S
C273 H266 0.950 . S
C273 C270 1.387 . S
C274 C275 1.387 . S
C274 H278 0.950 . S
C274 C283 1.390 . S
C275 C274 1.387 . S
C275 C277 1.387 . S
H276 C283 0.950 . S
C277 C275 1.387 . S
C277 C279 1.390 . S
C277 H281 0.950 . S
H278 C274 0.950 . S
C279 C277 1.390 . S
C279 C280 1.387 . S
C279 H282 0.950 . S
C280 C279 1.387 . S
C280 C283 1.387 . S
H281 C277 0.950 . S
H282 C279 0.950 . S
C283 C274 1.390 . S
C283 H276 0.950 . S
C283 C280 1.387 . S
C284 C285 1.387 . S
C284 H288 0.950 . S
C284 C293 1.390 . S
C285 C284 1.387 . S
C285 C287 1.387 . S
H286 C293 0.950 . S
C287 C285 1.387 . S
C287 C289 1.390 . S
C287 H291 0.950 . S
H288 C284 0.950 . S
C289 C287 1.390 . S
C289 C290 1.387 . S
C289 H292 0.950 . S
C290 C289 1.387 . S
C290 C293 1.387 . S
H291 C287 0.950 . S
H292 C289 0.950 . S
C293 C284 1.390 . S
C293 H286 0.950 . S
C293 C290 1.387 . S
C294 C295 1.387 . S
C294 H298 0.950 . S
C294 C303 1.390 . S
C295 C294 1.387 . S
C295 C297 1.387 . S
H296 C303 0.950 . S
C297 C295 1.387 . S
C297 C299 1.390 . S
C297 H301 0.950 . S
H298 C294 0.950 . S
C299 C297 1.390 . S
C299 C300 1.387 . S
C299 H302 0.950 . S
C300 C299 1.387 . S
C300 C303 1.387 . S
H301 C297 0.950 . S
H302 C299 0.950 . S
C303 C294 1.390 . S
C303 H296 0.950 . S
C303 C300 1.387 . S
C304 C305 1.387 . S
C304 H308 0.950 . S
C304 C313 1.390 1_445 S
C305 C304 1.387 . S
C305 C307 1.387 . S
H306 C313 0.950 . S
C307 C305 1.387 . S
C307 C309 1.390 1_445 S
C307 H311 0.950 . S
H308 C304 0.950 . S
C309 C307 1.390 1_665 S
C309 C310 1.387 . S
C309 H312 0.950 . S
C310 C309 1.387 . S
C310 C313 1.387 . S
H311 C307 0.950 . S
H312 C309 0.950 . S
C313 C304 1.390 1_665 S
C313 H306 0.950 . S
C313 C310 1.387 . S
C314 C315 1.387 . S
C314 H318 0.950 . S
C314 C323 1.390 1_655 S
C315 C314 1.387 . S
C315 C317 1.387 . S
H316 C323 0.950 . S
C317 C315 1.387 . S
C317 C319 1.390 1_655 S
C317 H321 0.950 . S
H318 C314 0.950 . S
C319 C317 1.390 1_455 S
C319 C320 1.387 . S
C319 H322 0.950 . S
C320 C319 1.387 . S
C320 C323 1.387 . S
H321 C317 0.950 . S
H322 C319 0.950 . S
C323 C314 1.390 1_455 S
C323 H316 0.950 . S
C323 C320 1.387 . S
C324 C325 1.387 . S
C324 H328 0.950 . S
C324 C333 1.390 . S
C325 C324 1.387 . S
C325 C327 1.387 . S
H326 C333 0.950 . S
C327 C325 1.387 . S
C327 C329 1.390 . S
C327 H331 0.950 . S
H328 C324 0.950 . S
C329 C327 1.390 . S
C329 C330 1.387 . S
C329 H332 0.950 . S
C330 C329 1.387 . S
C330 C333 1.387 . S
H331 C327 0.950 . S
H332 C329 0.950 . S
C333 C324 1.390 . S
C333 H326 0.950 . S
C333 C330 1.387 . S
C334 C335 1.387 . S
C334 H338 0.950 . S
C334 C343 1.390 1_565 S
C335 C334 1.387 . S
C335 C337 1.387 1_554 S
H336 C343 0.950 . S
C337 C335 1.387 1_556 S
C337 C339 1.390 1_565 S
C337 H341 0.950 . S
H338 C334 0.950 . S
C339 C337 1.390 1_545 S
C339 C340 1.387 1_556 S
C339 H342 0.950 . S
C340 C339 1.387 1_554 S
C340 C343 1.387 . S
H341 C337 0.950 . S
H342 C339 0.950 . S
C343 C334 1.390 1_545 S
C343 H336 0.950 . S
C343 C340 1.387 . S
C344 C345 1.387 1_556 S
C344 H348 0.950 . S
C344 C353 1.390 1_455 S
C345 C344 1.387 1_554 S
C345 C347 1.387 . S
H346 C353 0.950 . S
C347 C345 1.387 . S
C347 C349 1.390 1_455 S
C347 H351 0.950 . S
H348 C344 0.950 . S
C349 C347 1.390 1_655 S
C349 C350 1.387 . S
C349 H352 0.950 . S
C350 C349 1.387 . S
C350 C353 1.387 1_554 S
H351 C347 0.950 . S
H352 C349 0.950 . S
C353 C344 1.390 1_655 S
C353 H346 0.950 . S
C353 C350 1.387 1_556 S
C354 C355 1.387 . S
C354 H358 0.950 . S
C354 C363 1.390 . S
C355 C354 1.387 . S
C355 C357 1.387 . S
H356 C363 0.950 . S
C357 C355 1.387 . S
C357 C359 1.390 . S
C357 H361 0.950 . S
H358 C354 0.950 . S
C359 C357 1.390 . S
C359 C360 1.387 . S
C359 H362 0.950 . S
C360 C359 1.387 . S
C360 C363 1.387 . S
H361 C357 0.950 . S
H362 C359 0.950 . S
C363 C354 1.390 . S
C363 H356 0.950 . S
C363 C360 1.387 . S
C364 C365 1.387 . S
C364 H368 0.950 . S
C364 C373 1.390 1_545 S
C365 C364 1.387 . S
C365 C367 1.387 . S
H366 C373 0.950 . S
C367 C365 1.387 . S
C367 C369 1.390 1_545 S
C367 H371 0.950 . S
H368 C364 0.950 . S
C369 C367 1.390 1_565 S
C369 C370 1.387 . S
C369 H372 0.950 . S
C370 C369 1.387 . S
C370 C373 1.387 . S
H371 C367 0.950 . S
H372 C369 0.950 . S
C373 C364 1.390 1_565 S
C373 H366 0.950 . S
C373 C370 1.387 . S
C374 C375 1.387 . S
C374 H378 0.950 . S
C374 C383 1.390 1_445 S
C375 C374 1.387 . S
C375 C377 1.387 . S
H376 C383 0.950 . S
C377 C375 1.387 . S
C377 C379 1.390 1_445 S
C377 H381 0.950 . S
H378 C374 0.950 . S
C379 C377 1.390 1_665 S
C379 C380 1.387 . S
C379 H382 0.950 . S
C380 C379 1.387 . S
C380 C383 1.387 . S
H381 C377 0.950 . S
H382 C379 0.950 . S
C383 C374 1.390 1_665 S
C383 H376 0.950 . S
C383 C380 1.387 . S
C384 C385 1.387 . S
C384 H388 0.950 . S
C384 C393 1.390 . S
C385 C384 1.387 . S
C385 C387 1.387 . S
H386 C393 0.950 . S
C387 C385 1.387 . S
C387 C389 1.390 . S
C387 H391 0.950 . S
H388 C384 0.950 . S
C389 C387 1.390 . S
C389 C390 1.387 . S
C389 H392 0.950 . S
C390 C389 1.387 . S
C390 C393 1.387 . S
H391 C387 0.950 . S
H392 C389 0.950 . S
C393 C384 1.390 . S
C393 H386 0.950 . S
C393 C390 1.387 . S
C394 C395 1.387 . S
C394 H398 0.950 . S
C394 C403 1.390 . S
C395 C394 1.387 . S
C395 C397 1.387 . S
H396 C403 0.950 . S
C397 C395 1.387 . S
C397 C399 1.390 . S
C397 H401 0.950 . S
H398 C394 0.950 . S
C399 C397 1.390 . S
C399 C400 1.387 . S
C399 H402 0.950 . S
C400 C399 1.387 . S
C400 C403 1.387 . S
H401 C397 0.950 . S
H402 C399 0.950 . S
C403 C394 1.390 . S
C403 H396 0.950 . S
C403 C400 1.387 . S
C404 C405 1.387 . S
C404 H408 0.950 . S
C404 C413 1.390 . S
C405 C404 1.387 . S
C405 C407 1.387 . S
H406 C413 0.950 1_556 S
C407 C405 1.387 . S
C407 C409 1.390 1_554 S
C407 H411 0.950 . S
H408 C404 0.950 . S
C409 C407 1.390 1_556 S
C409 C410 1.387 . S
C409 H412 0.950 . S
C410 C409 1.387 . S
C410 C413 1.387 1_556 S
H411 C407 0.950 . S
H412 C409 0.950 . S
C413 C404 1.390 . S
C413 H406 0.950 1_554 S
C413 C410 1.387 1_554 S
C414 C415 1.387 . S
C414 H418 0.950 . S
C414 C423 1.390 . S
C415 C414 1.387 . S
C415 C417 1.387 . S
H416 C423 0.950 . S
C417 C415 1.387 . S
C417 C419 1.390 . S
C417 H421 0.950 . S
H418 C414 0.950 . S
C419 C417 1.390 . S
C419 C420 1.387 . S
C419 H422 0.950 . S
C420 C419 1.387 . S
C420 C423 1.387 . S
H421 C417 0.950 . S
H422 C419 0.950 . S
C423 C414 1.390 . S
C423 H416 0.950 . S
C423 C420 1.387 . S
C424 C425 1.387 . S
C424 H428 0.950 . S
C424 C433 1.390 . S
C425 C424 1.387 . S
C425 C427 1.387 . S
H426 C433 0.950 . S
C427 C425 1.387 . S
C427 C429 1.390 . S
C427 H431 0.950 . S
H428 C424 0.950 . S
C429 C427 1.390 . S
C429 C430 1.387 . S
C429 H432 0.950 . S
C430 C429 1.387 . S
C430 C433 1.387 . S
H431 C427 0.950 . S
H432 C429 0.950 . S
C433 C424 1.390 . S
C433 H426 0.950 . S
C433 C430 1.387 . S
C434 C435 1.387 . S
C434 H438 0.950 . S
C434 C443 1.390 . S
C435 C434 1.387 . S
C435 C437 1.387 . S
H436 C443 0.950 1_556 S
C437 C435 1.387 . S
C437 C439 1.404 . S
C437 H441 0.950 . S
H438 C434 0.950 . S
C439 C437 1.404 . S
C439 C440 1.381 1_554 S
C439 H442 0.942 1_554 S
C440 C439 1.381 1_556 S
C440 C443 1.387 1_556 S
H441 C437 0.950 . S
H442 C439 0.942 1_556 S
C443 C434 1.390 . S
C443 H436 0.950 1_554 S
C443 C440 1.387 1_554 S
C444 C445 1.387 . S
C444 H448 0.950 . S
C444 C453 1.390 . S
C445 C444 1.387 . S
C445 C447 1.387 . S
H446 C453 0.950 . S
C447 C445 1.387 . S
C447 C449 1.390 . S
C447 H451 0.950 . S
H448 C444 0.950 . S
C449 C447 1.390 . S
C449 C450 1.387 . S
C449 H452 0.950 . S
C450 C449 1.387 . S
C450 C453 1.387 . S
H451 C447 0.950 . S
H452 C449 0.950 . S
C453 C444 1.390 . S
C453 H446 0.950 . S
C453 C450 1.387 . S
C454 C455 1.387 . S
C454 H458 0.950 . S
C454 C463 1.390 . S
C455 C454 1.387 . S
C455 C457 1.387 . S
H456 C463 0.950 . S
C457 C455 1.387 . S
C457 C459 1.390 . S
C457 H461 0.950 . S
H458 C454 0.950 . S
C459 C457 1.390 . S
C459 C460 1.387 . S
C459 H462 0.950 . S
C460 C459 1.387 . S
C460 C463 1.387 . S
H461 C457 0.950 . S
H462 C459 0.950 . S
C463 C454 1.390 . S
C463 H456 0.950 . S
C463 C460 1.387 . S
C464 C465 1.387 . S
C464 H468 0.950 . S
C464 C473 1.390 1_556 S
C465 C464 1.387 . S
C465 C467 1.387 1_556 S
H466 C473 0.950 . S
C467 C465 1.387 1_554 S
C467 C469 1.390 . S
C467 H471 0.950 1_554 S
H468 C464 0.950 . S
C469 C467 1.390 . S
C469 C470 1.387 . S
C469 H472 0.950 . S
C470 C469 1.387 . S
C470 C473 1.387 . S
H471 C467 0.950 1_556 S
H472 C469 0.950 . S
C473 C464 1.390 1_554 S
C473 H466 0.950 . S
C473 C470 1.387 . S
C474 C475 1.387 . S
C474 H478 0.950 . S
C474 C483 1.390 . S
C475 C474 1.387 . S
C475 C477 1.387 . S
H476 C483 0.950 . S
C477 C475 1.387 . S
C477 C479 1.390 . S
C477 H481 0.950 . S
H478 C474 0.950 . S
C479 C477 1.390 . S
C479 C480 1.387 . S
C479 H482 0.950 . S
C480 C479 1.387 . S
C480 C483 1.387 . S
H481 C477 0.950 . S
H482 C479 0.950 . S
C483 C474 1.390 . S
C483 H476 0.950 . S
C483 C480 1.387 . S
C484 C485 1.387 . S
C484 H488 0.950 . S
C484 C493 1.390 . S
C485 C484 1.387 . S
C485 C487 1.387 . S
H486 C493 0.950 . S
C487 C485 1.387 . S
C487 C489 1.390 . S
C487 H491 0.950 . S
H488 C484 0.950 . S
C489 C487 1.390 . S
C489 C490 1.387 . S
C489 H492 0.950 . S
C490 C489 1.387 . S
C490 C493 1.387 . S
H491 C487 0.950 . S
H492 C489 0.950 . S
C493 C484 1.390 . S
C493 H486 0.950 . S
C493 C490 1.387 . S
C494 C495 1.387 . S
C494 H498 0.950 . S
C494 C503 1.390 . S
C495 C494 1.387 . S
C495 C497 1.387 . S
H496 C503 0.950 . S
C497 C495 1.387 . S
C497 C499 1.390 . S
C497 H501 0.950 . S
H498 C494 0.950 . S
C499 C497 1.390 . S
C499 C500 1.387 . S
C499 H502 0.950 . S
C500 C499 1.387 . S
C500 C503 1.387 . S
H501 C497 0.950 . S
H502 C499 0.950 . S
C503 C494 1.390 . S
C503 H496 0.950 . S
C503 C500 1.387 . S
C504 C505 1.387 . S
C504 H508 0.950 . S
C504 C513 1.390 . S
C505 C504 1.387 . S
C505 C507 1.387 . S
H506 C513 0.950 . S
C507 C505 1.387 . S
C507 C509 1.390 . S
C507 H511 0.950 . S
H508 C504 0.950 . S
C509 C507 1.390 . S
C509 C510 1.387 . S
C509 H512 0.950 . S
C510 C509 1.387 . S
C510 C513 1.387 . S
H511 C507 0.950 . S
H512 C509 0.950 . S
C513 C504 1.390 . S
C513 H506 0.950 . S
C513 C510 1.387 . S
C514 C515 1.387 . S
C514 H518 0.950 . S
C514 C523 1.390 . S
C515 C514 1.387 . S
C515 C517 1.387 . S
H516 C523 0.950 . S
C517 C515 1.387 . S
C517 C519 1.390 . S
C517 H521 0.950 . S
H518 C514 0.950 . S
C519 C517 1.390 . S
C519 C520 1.387 . S
C519 H522 0.950 . S
C520 C519 1.387 . S
C520 C523 1.387 . S
H521 C517 0.950 . S
H522 C519 0.950 . S
C523 C514 1.390 . S
C523 H516 0.950 . S
C523 C520 1.387 . S
C524 C525 1.387 . S
C524 H528 0.950 . S
C524 C533 1.390 . S
C525 C524 1.387 . S
C525 C527 1.387 . S
H526 C533 0.950 . S
C527 C525 1.387 . S
C527 C529 1.390 . S
C527 H531 0.950 . S
H528 C524 0.950 . S
C529 C527 1.390 . S
C529 C530 1.387 . S
C529 H532 0.950 . S
C530 C529 1.387 . S
C530 C533 1.387 . S
H531 C527 0.950 . S
H532 C529 0.950 . S
C533 C524 1.390 . S
C533 H526 0.950 . S
C533 C530 1.387 . S
C534 C535 1.387 . S
C534 H538 0.950 . S
C534 C543 1.390 . S
C535 C534 1.387 . S
C535 C537 1.387 . S
H536 C543 0.950 1_556 S
C537 C535 1.387 . S
C537 C539 1.407 . S
C537 H541 0.950 . S
H538 C534 0.950 . S
C539 C537 1.407 . S
C539 C540 1.380 1_554 S
C539 H542 0.941 1_554 S
C540 C539 1.380 1_556 S
C540 C543 1.387 1_556 S
H541 C537 0.950 . S
H542 C539 0.941 1_556 S
C543 C534 1.390 . S
C543 H536 0.950 1_554 S
C543 C540 1.387 1_554 S
C225 C95 1.540 . S
C230 C11 1.540 . S
C235 C109 1.540 . S
C240 C25 1.540 . S
C245 C39 1.543 . S
C250 C67 1.543 . S
C255 C53 1.540 . S
C260 C81 1.540 . S
C265 C123 1.543 . S
C270 C207 1.543 . S
C275 C221 1.543 . S
C280 C137 1.543 . S
C285 C151 1.543 . S
C290 C179 1.543 . S
C295 C165 1.540 . S
C300 C193 1.540 . S
C305 C5 1.475 . S
C310 C145 1.475 . S
C315 C19 1.475 . S
C320 C159 1.475 . S
C325 C33 1.475 . S
C330 C117 1.475 . S
C335 C47 1.475 . S
C340 C131 1.475 . S
C345 C61 1.475 . S
C350 C201 1.475 . S
C355 C215 1.475 . S
C360 C75 1.475 . S
C365 C89 1.475 . S
C370 C173 1.475 . S
C375 C187 1.475 . S
C380 C103 1.475 . S
C385 C191 0.813 . S
C390 C9 0.812 . S
C395 C23 0.813 . S
C400 C205 0.812 . S
C405 C219 0.804 . S
C410 C37 0.805 . S
C415 C177 0.812 . S
C420 C51 0.813 . S
C425 C163 0.806 . S
C430 C65 0.807 . S
C435 C79 0.804 . S
C440 C121 0.804 . S
C445 C93 0.810 . S
C450 C135 0.811 . S
C455 C107 0.813 . S
C460 C149 0.813 . S
C465 C182 1.529 . S
C470 C0 1.530 . S
C475 C14 1.530 . S
C480 C196 1.529 . S
C485 C28 1.529 . S
C490 C210 1.530 . S
C495 C168 1.530 . S
C500 C42 1.528 . S
C505 C154 1.529 . S
C510 C56 1.529 . S
C515 C112 1.530 . S
C520 C70 1.529 . S
C525 C84 1.529 . S
C530 C126 1.530 . S
C535 C140 1.529 . S
C540 C98 1.530 . S
