# Generated by pormake.
# Topology uof, (4)-cn, num edge types: 1
# Building blocks:
#     Node 0, Type 0, BuildingBlock: GALJAG_clean_sbu_0, # of connection points: 4
#     Node 1, Type 0, BuildingBlock: GALJAG_clean_sbu_0, # of connection points: 4
#     Node 2, Type 0, BuildingBlock: GALJAG_clean_sbu_0, # of connection points: 4
#     Node 3, Type 0, BuildingBlock: GALJAG_clean_sbu_0, # of connection points: 4
#     Node 4, Type 0, BuildingBlock: GALJAG_clean_sbu_0, # of connection points: 4
#     Node 5, Type 0, BuildingBlock: GALJAG_clean_sbu_0, # of connection points: 4
#     Node 6, Type 0, BuildingBlock: GALJAG_clean_sbu_0, # of connection points: 4
#     Node 7, Type 0, BuildingBlock: GALJAG_clean_sbu_0, # of connection points: 4
#     Node 8, Type 0, BuildingBlock: GALJAG_clean_sbu_0, # of connection points: 4
#     Node 9, Type 0, BuildingBlock: GALJAG_clean_sbu_0, # of connection points: 4
#     Node 10, Type 0, BuildingBlock: GALJAG_clean_sbu_0, # of connection points: 4
#     Node 11, Type 0, BuildingBlock: GALJAG_clean_sbu_0, # of connection points: 4
#     Edge 12, Type (0, 0), BuildingBlock: XUDNAN_clean_linker_2, # of connection points: 2
#     Edge 13, Type (0, 0), BuildingBlock: XUDNAN_clean_linker_2, # of connection points: 2
#     Edge 14, Type (0, 0), BuildingBlock: XUDNAN_clean_linker_2, # of connection points: 2
#     Edge 15, Type (0, 0), BuildingBlock: XUDNAN_clean_linker_2, # of connection points: 2
#     Edge 16, Type (0, 0), BuildingBlock: XUDNAN_clean_linker_2, # of connection points: 2
#     Edge 17, Type (0, 0), BuildingBlock: XUDNAN_clean_linker_2, # of connection points: 2
#     Edge 18, Type (0, 0), BuildingBlock: XUDNAN_clean_linker_2, # of connection points: 2
#     Edge 19, Type (0, 0), BuildingBlock: XUDNAN_clean_linker_2, # of connection points: 2
#     Edge 20, Type (0, 0), BuildingBlock: XUDNAN_clean_linker_2, # of connection points: 2
#     Edge 21, Type (0, 0), BuildingBlock: XUDNAN_clean_linker_2, # of connection points: 2
#     Edge 22, Type (0, 0), BuildingBlock: XUDNAN_clean_linker_2, # of connection points: 2
#     Edge 23, Type (0, 0), BuildingBlock: XUDNAN_clean_linker_2, # of connection points: 2
#     Edge 24, Type (0, 0), BuildingBlock: XUDNAN_clean_linker_2, # of connection points: 2
#     Edge 25, Type (0, 0), BuildingBlock: XUDNAN_clean_linker_2, # of connection points: 2
#     Edge 26, Type (0, 0), BuildingBlock: XUDNAN_clean_linker_2, # of connection points: 2
#     Edge 27, Type (0, 0), BuildingBlock: XUDNAN_clean_linker_2, # of connection points: 2
#     Edge 28, Type (0, 0), BuildingBlock: XUDNAN_clean_linker_2, # of connection points: 2
#     Edge 29, Type (0, 0), BuildingBlock: XUDNAN_clean_linker_2, # of connection points: 2
#     Edge 30, Type (0, 0), BuildingBlock: XUDNAN_clean_linker_2, # of connection points: 2
#     Edge 31, Type (0, 0), BuildingBlock: XUDNAN_clean_linker_2, # of connection points: 2
#     Edge 32, Type (0, 0), BuildingBlock: XUDNAN_clean_linker_2, # of connection points: 2
#     Edge 33, Type (0, 0), BuildingBlock: XUDNAN_clean_linker_2, # of connection points: 2
#     Edge 34, Type (0, 0), BuildingBlock: XUDNAN_clean_linker_2, # of connection points: 2
#     Edge 35, Type (0, 0), BuildingBlock: XUDNAN_clean_linker_2, # of connection points: 2
# Relax obj value: 0.137
# Max RMSD: 0.110
# Mean RMSD: 0.110
data_MOF--net-uof--node1-GALJAG_clean_sbu_0--edge1-XUDNAN_clean_linker_2
_symmetry_space_group_name_H-M    P1
_symmetry_Int_Tables_number       1
_symmetry_cell_setting            triclinic
loop_
_symmetry_equiv_pos_as_xyz
'x, y, z'
_cell_length_a     31.073532
_cell_length_b     31.072878
_cell_length_c     67.757481
_cell_angle_alpha  89.998972
_cell_angle_beta   90.028066
_cell_angle_gamma 120.05148
loop_
_atom_site_label
_atom_site_type_symbol
_atom_site_fract_x
_atom_site_fract_y
_atom_site_fract_z
_atom_type_partial_charge
In0 In 0.24755 0.32053 0.24139 0.0
O1 O 0.30744 0.3765 0.22054 0.0
O2 O 0.31752 0.39357 0.25094 0.0
C3 C 0.16201 0.30232 0.2224 0.0
C4 C 0.24139 0.30501 0.28088 0.0
C5 C 0.26443 0.24975 0.22743 0.0
O6 O 0.19127 0.34432 0.22998 0.0
O7 O 0.17482 0.27037 0.22533 0.0
O8 O 0.24002 0.244 0.24302 0.0
O9 O 0.27981 0.29089 0.21884 0.0
C10 C 0.33578 0.40483 0.23384 0.0
O11 O 0.26931 0.29784 0.26957 0.0
O12 O 0.21596 0.32124 0.27236 0.0
In13 In 0.92188 0.23637 0.56769 0.0
O14 O 0.90815 0.29188 0.58503 0.0
O15 O 0.92724 0.30761 0.55497 0.0
C16 C 0.84376 0.15665 0.54914 0.0
C17 C 0.95999 0.23002 0.60317 0.0
C18 C 1.001 0.25479 0.54589 0.0
O19 O 0.87458 0.1959 0.54053 0.0
O20 O 0.84937 0.15836 0.56764 0.0
O21 O 0.97167 0.2122 0.55289 0.0
O22 O 0.99069 0.28815 0.55015 0.0
C23 C 0.92003 0.32281 0.57116 0.0
O24 O 0.98225 0.23714 0.58696 0.0
O25 O 0.91617 0.22255 0.60163 0.0
In26 In 0.70237 0.9183 0.90349 0.0
O27 O 0.73601 0.96813 0.9304 0.0
O28 O 0.6978 0.89044 0.9355 0.0
C29 C 0.78813 0.98275 0.88619 0.0
C30 C 0.62287 0.93218 0.89884 0.0
C31 C 0.69739 0.84045 0.88286 0.0
O32 O 0.78525 0.95042 0.89822 0.0
O33 O 0.74819 0.98306 0.88327 0.0
O34 O 0.69961 0.87802 0.8747 0.0
O35 O 0.69338 0.83995 0.90146 0.0
C36 C 0.722 0.93359 0.9428 0.0
O37 O 0.61778 0.88925 0.90012 0.0
O38 O 0.66721 0.96693 0.89964 0.0
In39 In 0.78858 0.70449 0.23817 0.0
O40 O 0.82374 0.76546 0.26099 0.0
O41 O 0.79551 0.69159 0.27139 0.0
C42 C 0.75079 0.75979 0.22424 0.0
C43 C 0.70011 0.61834 0.23383 0.0
C44 C 0.87246 0.72177 0.21804 0.0
O45 O 0.76056 0.75906 0.2422 0.0
O46 O 0.76005 0.73264 0.21331 0.0
O47 O 0.84858 0.68353 0.22875 0.0
O48 O 0.85498 0.75051 0.21826 0.0
C49 C 0.81425 0.73723 0.2757 0.0
O50 O 0.71636 0.63848 0.25038 0.0
O51 O 0.73053 0.63876 0.2199 0.0
In52 In 0.10049 0.78099 0.56872 0.0
O53 O 0.11561 0.72109 0.58088 0.0
O54 O 0.0685 0.70285 0.55578 0.0
C55 C 0.18506 0.85608 0.55201 0.0
C56 C 0.06034 0.77124 0.60505 0.0
C57 C 0.03648 0.79827 0.54887 0.0
O58 O 0.16384 0.81173 0.54599 0.0
O59 O 0.16704 0.86171 0.56785 0.0
O60 O 0.05906 0.82225 0.5641 0.0
O61 O 0.04685 0.76571 0.54328 0.0
C62 C 0.08671 0.68783 0.56891 0.0
O63 O 0.03593 0.75887 0.5892 0.0
O64 O 0.10701 0.79036 0.60288 0.0
In65 In 0.32562 0.09601 0.89736 0.0
O66 O 0.40463 0.10354 0.89838 0.0
O67 O 0.34303 0.03643 0.88841 0.0
C68 C 0.33449 0.18238 0.88326 0.0
C69 C 0.30659 0.08156 0.93646 0.0
C70 C 0.24577 0.04304 0.87457 0.0
O71 O 0.35534 0.16093 0.87517 0.0
O72 O 0.3137 0.16329 0.89948 0.0
O73 O 0.24357 0.03884 0.89313 0.0
O74 O 0.28794 0.0732 0.86769 0.0
C75 C 0.38864 0.05947 0.89236 0.0
O76 O 0.28321 0.04834 0.9237 0.0
O77 O 0.33967 0.12299 0.92959 0.0
In78 In 0.69652 0.7817 0.44729 0.0
O79 O 0.62008 0.7226 0.43504 0.0
O80 O 0.64936 0.70307 0.45947 0.0
C81 C 0.69651 0.86307 0.46265 0.0
C82 C 0.72957 0.78869 0.40979 0.0
C83 C 0.76371 0.78462 0.47275 0.0
O84 O 0.65907 0.81973 0.46368 0.0
O85 O 0.73135 0.86578 0.45219 0.0
O86 O 0.77033 0.78641 0.45435 0.0
O87 O 0.72293 0.78007 0.4782 0.0
C88 C 0.61546 0.68882 0.44673 0.0
O89 O 0.73137 0.76004 0.42253 0.0
O90 O 0.7113 0.81467 0.41591 0.0
In91 In 0.92161 0.68752 0.78109 0.0
O92 O 0.89468 0.60379 0.78046 0.0
O93 O 0.96978 0.65313 0.78854 0.0
C94 C 0.84396 0.68709 0.80036 0.0
C95 C 0.93406 0.69786 0.74148 0.0
C96 C 0.98969 0.77309 0.79762 0.0
O97 O 0.86247 0.66089 0.8057 0.0
O98 O 0.86166 0.7102 0.7844 0.0
O99 O 0.97181 0.77083 0.78073 0.0
O100 O 0.97396 0.73179 0.80618 0.0
C101 C 0.93639 0.60886 0.78521 0.0
O102 O 0.96944 0.71407 0.75362 0.0
O103 O 0.89119 0.67572 0.74924 0.0
In104 In 0.24085 0.93981 0.11035 0.0
O105 O 0.30723 0.92462 0.10794 0.0
O106 O 0.32051 0.99873 0.10683 0.0
C107 C 0.15589 0.86268 0.12551 0.0
C108 C 0.22599 0.96137 0.07322 0.0
C109 C 0.25589 0.99839 0.14137 0.0
O110 O 0.19518 0.86009 0.12362 0.0
O111 O 0.15876 0.90118 0.11803 0.0
O112 O 0.24453 1.00694 0.12451 0.0
O113 O 0.25928 0.95967 0.14273 0.0
C114 C 0.33883 0.9707 0.10631 0.0
O115 O 0.22235 0.98269 0.08844 0.0
O116 O 0.23289 0.92516 0.07667 0.0
In117 In 0.33299 0.23533 0.45215 0.0
O118 O 0.26946 0.22737 0.43262 0.0
O119 O 0.32837 0.22395 0.41838 0.0
C120 C 0.2719 0.25429 0.47345 0.0
C121 C 0.41914 0.32358 0.44767 0.0
C122 C 0.33436 0.15654 0.47011 0.0
O123 O 0.31544 0.28764 0.46903 0.0
O124 O 0.25901 0.21138 0.46694 0.0
O125 O 0.34214 0.19518 0.47908 0.0
O126 O 0.32986 0.15886 0.4517 0.0
C127 C 0.28825 0.2247 0.41653 0.0
O128 O 0.39968 0.29205 0.43402 0.0
O129 O 0.39852 0.30824 0.46421 0.0
In130 In 0.10056 0.31151 0.77882 0.0
O131 O 0.05666 0.26955 0.75166 0.0
O132 O 0.12902 0.33078 0.74666 0.0
C133 C 0.04212 0.23105 0.80044 0.0
C134 C 0.06147 0.37236 0.78212 0.0
C135 C 0.1836 0.32508 0.79829 0.0
O136 O 0.06516 0.22859 0.78555 0.0
O137 O 0.04829 0.2735 0.80415 0.0
O138 O 0.16231 0.34961 0.80236 0.0
O139 O 0.16637 0.29809 0.78317 0.0
C140 C 0.08915 0.2964 0.73923 0.0
O141 O 0.10785 0.39025 0.77955 0.0
O142 O 0.03704 0.32567 0.78327 0.0
In143 In 0.78593 0.08534 0.11587 0.0
O144 O 0.7983 0.03605 0.09475 0.0
O145 O 0.79504 0.09654 0.08194 0.0
C146 C 0.75919 0.01752 0.14449 0.0
C147 C 0.69579 0.07857 0.11161 0.0
C148 C 0.87282 0.15767 0.13246 0.0
O149 O 0.7696 0.01077 0.12719 0.0
O150 O 0.76278 0.0593 0.14758 0.0
O151 O 0.83528 0.16294 0.13041 0.0
O152 O 0.86753 0.1183 0.1249 0.0
C153 C 0.79802 0.05786 0.07915 0.0
O154 O 0.73593 0.11924 0.10889 0.0
O155 O 0.7017 0.04289 0.11655 0.0
H156 H 0.94538 0.13955 0.14569 0.0
H157 H 0.89892 0.24975 0.14808 0.0
H158 H 0.96862 0.30057 0.171 0.0
H159 H 0.97562 0.14542 0.19642 0.0
H160 H 0.02782 0.13625 0.19244 0.0
H161 H 0.97688 0.11107 0.1752 0.0
H162 H 0.03783 0.15794 0.14655 0.0
H163 H 0.08903 0.18296 0.16369 0.0
H164 H 0.0787 0.22424 0.1483 0.0
H165 H 0.04484 0.33889 0.19462 0.0
H166 H 0.11678 0.35882 0.21647 0.0
H167 H 0.10848 0.22041 0.19936 0.0
C168 C 0.95024 0.17478 0.15074 0.0
C169 C 0.91693 0.19094 0.14483 0.0
C170 C 0.92417 0.2368 0.15221 0.0
C171 C 0.96366 0.26585 0.16528 0.0
C172 C 0.99542 0.24839 0.17103 0.0
C173 C 0.98888 0.20375 0.16395 0.0
C174 C 0.0263 0.19173 0.17293 0.0
C175 C 1.00008 0.14325 0.18496 0.0
C176 C 0.05996 0.18908 0.15691 0.0
C177 C 0.05507 0.23644 0.18622 0.0
C178 C 0.0372 0.26909 0.18489 0.0
C179 C 0.05885 0.31336 0.19576 0.0
C180 C 0.09969 0.32441 0.20817 0.0
C181 C 0.11814 0.29109 0.20982 0.0
C182 C 0.09513 0.24657 0.19866 0.0
H183 H 0.85621 0.13149 0.51187 0.0
H184 H 0.75492 0.07687 0.56153 0.0
H185 H 0.70098 0.99874 0.54317 0.0
H186 H 0.76556 0.07497 0.47198 0.0
H187 H 0.80509 0.05971 0.45774 0.0
H188 H 0.83222 0.11301 0.47386 0.0
H189 H 0.88231 0.07846 0.49173 0.0
H190 H 0.85558 0.02528 0.47561 0.0
H191 H 0.84988 0.01664 0.50198 0.0
H192 H 0.65934 0.92486 0.5192 0.0
H193 H 0.63924 0.8595 0.49414 0.0
H194 H 0.77149 0.96085 0.46132 0.0
C195 C 0.82208 0.10354 0.51873 0.0
C196 C 0.80916 0.11075 0.538 0.0
C197 C 0.76518 0.07245 0.54671 0.0
C198 C 0.73432 0.02802 0.53635 0.0
C199 C 0.74834 0.022 0.51738 0.0
C200 C 0.79162 0.05863 0.5088 0.0
C201 C 0.80112 0.04144 0.48913 0.0
C202 C 0.80097 0.07424 0.47218 0.0
C203 C 0.85011 0.04039 0.48965 0.0
C204 C 0.75648 0.98934 0.4879 0.0
C205 C 0.72599 0.97902 0.50417 0.0
C206 C 0.68298 0.93277 0.50641 0.0
C207 C 0.67165 0.89588 0.492 0.0
C208 C 0.70348 0.90496 0.47562 0.0
C209 C 0.74601 0.95276 0.4735 0.0
H210 H 0.7326 0.84905 0.84504 0.0
H211 H 0.68581 0.75161 0.896 0.0
H212 H 0.71097 0.69709 0.87903 0.0
H213 H 0.69771 0.75255 0.8067 0.0
H214 H 0.75187 0.79125 0.79197 0.0
H215 H 0.72493 0.8192 0.8072 0.0
H216 H 0.80994 0.87328 0.82439 0.0
H217 H 0.83708 0.84548 0.80927 0.0
H218 H 0.84075 0.84354 0.83577 0.0
H219 H 0.74841 0.65716 0.85752 0.0
H220 H 0.79532 0.63603 0.83372 0.0
H221 H 0.81834 0.75976 0.79678 0.0
C222 C 0.72636 0.81551 0.85244 0.0
C223 C 0.70641 0.80422 0.87179 0.0
C224 C 0.70038 0.76075 0.88113 0.0
C225 C 0.71464 0.72957 0.87158 0.0
C226 C 0.73508 0.7423 0.85267 0.0
C227 C 0.74083 0.78424 0.84318 0.0
C228 C 0.76719 0.79176 0.82352 0.0
C229 C 0.7334 0.78848 0.80633 0.0
C230 C 0.81666 0.84145 0.82323 0.0
C231 C 0.7759 0.74783 0.82348 0.0
C232 C 0.75685 0.71956 0.84037 0.0
C233 C 0.76284 0.6787 0.84414 0.0
C234 C 0.78951 0.66689 0.8305 0.0
C235 C 0.81 0.69571 0.81321 0.0
C236 C 0.8023 0.73628 0.80961 0.0
H237 H 0.91906 0.79725 0.19153 0.0
H238 H 0.92399 0.67025 0.21528 0.0
H239 H 0.99533 0.68927 0.1932 0.0
H240 H 0.94678 0.78334 0.14135 0.0
H241 H 0.98345 0.84938 0.13712 0.0
H242 H 0.93358 0.82542 0.15484 0.0
H243 H 0.99479 0.88167 0.18197 0.0
H244 H 0.04473 0.90608 0.1643 0.0
H245 H 0.05013 0.87843 0.18687 0.0
H246 H 0.06994 0.72615 0.16837 0.0
H247 H 0.13713 0.7755 0.14423 0.0
H248 H 0.07821 0.87474 0.13653 0.0
C249 C 0.93505 0.7733 0.19219 0.0
C250 C 0.9159 0.73228 0.20528 0.0
C251 C 0.938 0.70194 0.20546 0.0
C252 C 0.97852 0.71249 0.19293 0.0
C253 C 0.99631 0.75328 0.18014 0.0
C254 C 0.97493 0.78302 0.17975 0.0
C255 C 1.00029 0.82469 0.16486 0.0
C256 C 0.96384 0.82042 0.14858 0.0
C257 C 0.02388 0.87572 0.17511 0.0
C258 C 0.03961 0.81421 0.15686 0.0
C259 C 0.03717 0.77306 0.16582 0.0
C260 C 0.07162 0.75807 0.1612 0.0
C261 C 0.10961 0.7862 0.14739 0.0
C262 C 0.11274 0.82866 0.13819 0.0
C263 C 0.07661 0.84204 0.14294 0.0
H264 H 0.30639 0.13178 0.50872 0.0
H265 H 0.33595 0.07529 0.45501 0.0
H266 H 0.31017 0.99501 0.47169 0.0
H267 H 0.34269 0.06582 0.54452 0.0
H268 H 0.29245 0.05359 0.56109 0.0
H269 H 0.31932 0.10842 0.5458 0.0
H270 H 0.23232 0.08229 0.53148 0.0
H271 H 0.20524 0.02754 0.54672 0.0
H272 H 0.19617 0.02175 0.52037 0.0
H273 H 0.27502 0.91859 0.49358 0.0
H274 H 0.22891 0.85135 0.51772 0.0
H275 H 0.21911 0.95635 0.55698 0.0
C276 C 0.30876 0.10299 0.50062 0.0
C277 C 0.3242 0.11022 0.48062 0.0
C278 C 0.32496 0.0709 0.47038 0.0
C279 C 0.3104 0.02518 0.47977 0.0
C280 C 0.29467 0.01901 0.49941 0.0
C281 C 0.29355 0.05684 0.50969 0.0
C282 C 0.27064 0.03924 0.53001 0.0
C283 C 0.30855 0.06852 0.54632 0.0
C284 C 0.22329 0.04292 0.53227 0.0
C285 C 0.25849 0.98542 0.52952 0.0
C286 C 0.27324 0.97469 0.51182 0.0
C287 C 0.26382 0.92682 0.50754 0.0
C288 C 0.23768 0.8888 0.52142 0.0
C289 C 0.22078 0.89844 0.53942 0.0
C290 C 0.23235 0.94781 0.54359 0.0
H291 H 0.31843 0.18605 0.84379 0.0
H292 H 0.32497 0.25817 0.8993 0.0
H293 H 0.29695 0.31065 0.88241 0.0
H294 H 0.35294 0.29315 0.81029 0.0
H295 H 0.3083 0.25466 0.79187 0.0
H296 H 0.33665 0.22901 0.8076 0.0
H297 H 0.24944 0.15924 0.81853 0.0
H298 H 0.22087 0.18465 0.80289 0.0
H299 H 0.20615 0.17571 0.82883 0.0
H300 H 0.26146 0.35058 0.85978 0.0
H301 H 0.2161 0.36957 0.83444 0.0
H302 H 0.2277 0.26761 0.79404 0.0
C303 C 0.31578 0.21425 0.85222 0.0
C304 C 0.32545 0.2192 0.87277 0.0
C305 C 0.31891 0.2546 0.88349 0.0
C306 C 0.30294 0.28451 0.874 0.0
C307 C 0.29278 0.27807 0.85378 0.0
C308 C 0.29867 0.24351 0.84304 0.0
C309 C 0.2796 0.23952 0.82208 0.0
C310 C 0.32191 0.25502 0.80707 0.0
C311 C 0.23647 0.18666 0.81785 0.0
C312 C 0.26169 0.27691 0.82268 0.0
C313 C 0.2703 0.29931 0.84101 0.0
C314 C 0.25503 0.33356 0.84534 0.0
C315 C 0.2294 0.34432 0.83079 0.0
C316 C 0.21865 0.32059 0.81211 0.0
C317 C 0.23596 0.2871 0.80801 0.0
H318 H 0.62439 0.57463 0.26116 0.0
H319 H 0.65523 0.57937 0.19848 0.0
H320 H 0.56532 0.52856 0.19172 0.0
H321 H 0.51913 0.44609 0.26149 0.0
H322 H 0.48521 0.45969 0.27964 0.0
H323 H 0.55218 0.49432 0.27952 0.0
H324 H 0.54976 0.57628 0.27719 0.0
H325 H 0.4828 0.54187 0.27688 0.0
H326 H 0.51636 0.58475 0.25721 0.0
H327 H 0.47194 0.48164 0.19147 0.0
H328 H 0.38183 0.4328 0.19805 0.0
H329 H 0.41055 0.45708 0.26092 0.0
C330 C 0.61228 0.56411 0.24605 0.0
C331 C 0.64702 0.58086 0.23035 0.0
C332 C 0.6295 0.56672 0.21078 0.0
C333 C 0.57841 0.53814 0.20677 0.0
C334 C 0.54511 0.5236 0.22249 0.0
C335 C 0.56128 0.53529 0.24178 0.0
C336 C 0.51755 0.51483 0.25595 0.0
C337 C 0.51858 0.47645 0.26998 0.0
C338 C 0.51658 0.55696 0.26748 0.0
C339 C 0.4743 0.49035 0.24159 0.0
C340 C 0.49113 0.49612 0.22236 0.0
C341 C 0.45836 0.4767 0.20648 0.0
C342 C 0.40715 0.44928 0.21036 0.0
C343 C 0.38896 0.44131 0.22998 0.0
C344 C 0.42315 0.463 0.24575 0.0
H345 H 0.04381 0.61076 0.54212 0.0
H346 H 0.08426 0.64353 0.60384 0.0
H347 H 0.04007 0.55368 0.61129 0.0
H348 H 0.92319 0.50582 0.54872 0.0
H349 H 0.92747 0.47014 0.52862 0.0
H350 H 0.96239 0.53707 0.52781 0.0
H351 H 0.04431 0.53544 0.52313 0.0
H352 H 1.00949 0.4685 0.52347 0.0
H353 H 0.06028 0.50166 0.54047 0.0
H354 H 0.98591 0.46076 0.61255 0.0
H355 H 0.9406 0.37028 0.60665 0.0
H356 H 0.94073 0.39631 0.54371 0.0
C357 C 0.04399 0.59889 0.55713 0.0
C358 C 0.06757 0.63415 0.57241 0.0
C359 C 0.06696 0.61724 0.59187 0.0
C360 C 0.04146 0.56626 0.59629 0.0
C361 C 0.01745 0.5325 0.58102 0.0
C362 C 0.01969 0.54796 0.56173 0.0
C363 C 0.99266 0.5037 0.54798 0.0
C364 C 0.94883 0.50424 0.53768 0.0
C365 C 0.02884 0.50224 0.53287 0.0
C366 C 0.97452 0.46103 0.56258 0.0
C367 C 0.98841 0.47862 0.5816 0.0
C368 C 0.97524 0.44654 0.59769 0.0
C369 C 0.949 0.39511 0.5942 0.0
C370 C 0.93694 0.37609 0.57473 0.0
C371 C 0.94911 0.40967 0.55877 0.0
H372 H 0.48958 0.09707 0.9 0.0
H373 H 0.35447 0.96332 0.88227 0.0
H374 H 0.39919 0.91685 0.882 0.0
H375 H 0.57351 0.07349 0.86992 0.0
H376 H 0.62245 0.09779 0.8881 0.0
H377 H 0.58013 0.12145 0.88672 0.0
H378 H 0.55795 0.10004 0.92361 0.0
H379 H 0.60001 0.07609 0.92507 0.0
H380 H 0.53578 0.03734 0.93201 0.0
H381 H 0.45675 0.8828 0.88516 0.0
H382 H 0.52593 0.86567 0.88934 0.0
H383 H 0.62515 0.02099 0.90362 0.0
C384 C 0.46963 0.05816 0.89591 0.0
C385 C 0.41838 0.03402 0.89117 0.0
C386 C 0.39366 0.9829 0.88594 0.0
C387 C 0.41872 0.95595 0.88578 0.0
C388 C 0.46887 0.98047 0.89072 0.0
C389 C 0.49434 0.03051 0.89549 0.0
C390 C 0.5484 0.04755 0.90009 0.0
C391 C 0.58318 0.08743 0.88532 0.0
C392 C 0.56127 0.06636 0.92147 0.0
C393 C 0.54896 0.99926 0.89729 0.0
C394 C 0.50257 0.96097 0.89201 0.0
C395 C 0.49341 0.91259 0.88914 0.0
C396 C 0.53284 0.90312 0.89159 0.0
C397 C 0.58093 0.94191 0.89667 0.0
C398 C 0.58887 0.99057 0.89956 0.0
H399 H 0.5821 0.61339 0.47396 0.0
H400 H 0.56996 0.64315 0.41229 0.0
H401 H 0.52298 0.55275 0.40561 0.0
H402 H 0.59778 0.5093 0.46746 0.0
H403 H 0.55971 0.47445 0.48812 0.0
H404 H 0.59119 0.54138 0.48839 0.0
H405 H 0.50758 0.539 0.49408 0.0
H406 H 0.47601 0.47207 0.4943 0.0
H407 H 0.45643 0.50382 0.47744 0.0
H408 H 0.48431 0.45941 0.40513 0.0
H409 H 0.44146 0.36932 0.4118 0.0
H410 H 0.4726 0.39922 0.47431 0.0
C411 C 0.56867 0.60079 0.45913 0.0
C412 C 0.57953 0.63528 0.44363 0.0
C413 C 0.56155 0.61742 0.42442 0.0
C414 C 0.53531 0.56614 0.42045 0.0
C415 C 0.52658 0.53315 0.43594 0.0
C416 C 0.54145 0.54967 0.45501 0.0
C417 C 0.52583 0.5063 0.46908 0.0
C418 C 0.57135 0.50799 0.47884 0.0
C419 C 0.48928 0.50523 0.48464 0.0
C420 C 0.50041 0.46279 0.45492 0.0
C421 C 0.50208 0.47922 0.43582 0.0
C422 C 0.4823 0.44615 0.42006 0.0
C423 C 0.45845 0.39495 0.42399 0.0
C424 C 0.45371 0.37708 0.44358 0.0
C425 C 0.47582 0.41167 0.45918 0.0
H426 H 0.02704 0.61294 0.78621 0.0
H427 H 0.86803 0.50964 0.78526 0.0
H428 H 0.8838 0.43921 0.78513 0.0
H429 H 0.05954 0.54347 0.75311 0.0
H430 H 0.11647 0.55823 0.76566 0.0
H431 H 0.09315 0.60085 0.7667 0.0
H432 H 0.09417 0.59851 0.80488 0.0
H433 H 0.11761 0.55596 0.80397 0.0
H434 H 0.06143 0.53954 0.81744 0.0
H435 H 0.91598 0.38041 0.78485 0.0
H436 H 0.96203 0.33542 0.78343 0.0
H437 H 0.10173 0.47555 0.78331 0.0
C438 C 0.99555 0.57545 0.78618 0.0
C439 C 0.94616 0.56673 0.78591 0.0
C440 C 0.90605 0.5172 0.78554 0.0
C441 C 0.91469 0.47698 0.78548 0.0
C442 C 0.96369 0.48682 0.78562 0.0
C443 C 1.00355 0.53475 0.78588 0.0
C444 C 0.05252 0.53473 0.78527 0.0
C445 C 0.08216 0.56087 0.76657 0.0
C446 C 0.08324 0.5586 0.80401 0.0
C447 C 0.03392 0.47923 0.78462 0.0
C448 C 0.9825 0.45254 0.78496 0.0
C449 C 0.95621 0.40089 0.78457 0.0
C450 C 0.98292 0.37568 0.78377 0.0
C451 C 0.03568 0.4018 0.78324 0.0
C452 C 0.06151 0.45447 0.78367 0.0
H453 H 0.39739 0.92761 0.11357 0.0
H454 H 0.4041 0.06423 0.09447 0.0
H455 H 0.49519 0.10591 0.09311 0.0
H456 H 0.50381 0.98528 0.14488 0.0
H457 H 0.52615 0.94339 0.13884 0.0
H458 H 0.46073 0.92246 0.13725 0.0
H459 H 0.45983 0.89716 0.10076 0.0
H460 H 0.52523 0.91773 0.10229 0.0
H461 H 0.50266 0.9425 0.08348 0.0
H462 H 0.58598 0.13498 0.0952 0.0
H463 H 0.6707 0.14781 0.0998 0.0
H464 H 0.60665 0.99349 0.11755 0.0
C465 C 0.41808 0.96601 0.10882 0.0
C466 C 0.39342 0.99252 0.10412 0.0
C467 C 0.42197 0.04302 0.09821 0.0
C468 C 0.47389 0.06719 0.09735 0.0
C469 C 0.49722 0.04056 0.10243 0.0
C470 C 0.47042 0.99104 0.10795 0.0
C471 C 0.50526 0.97179 0.11317 0.0
C472 C 0.49858 0.95474 0.13482 0.0
C473 C 0.4978 0.92981 0.09908 0.0
C474 C 0.55541 0.01829 0.10991 0.0
C475 C 0.54991 0.0575 0.10366 0.0
C476 C 0.59085 0.10447 0.09999 0.0
C477 C 0.63882 0.11151 0.10268 0.0
C478 C 0.64537 0.07179 0.109 0.0
C479 C 0.60294 0.02466 0.11266 0.0
H480 H 0.28186 0.09517 0.13933 0.0
H481 H 0.24971 0.97638 0.18073 0.0
H482 H 0.25782 0.03195 0.20849 0.0
H483 H 0.37262 0.19832 0.17107 0.0
H484 H 0.35155 0.23949 0.1624 0.0
H485 H 0.34892 0.19204 0.14631 0.0
H486 H 0.25465 0.1579 0.14083 0.0
H487 H 0.25693 0.20499 0.1569 0.0
H488 H 0.21386 0.14034 0.1619 0.0
H489 H 0.25707 0.09643 0.23077 0.0
H490 H 0.25262 0.16646 0.24609 0.0
H491 H 0.29024 0.24353 0.18987 0.0
C492 C 0.27733 0.08115 0.15427 0.0
C493 C 0.26495 0.03176 0.15805 0.0
C494 C 0.25938 0.01441 0.17769 0.0
C495 C 0.26401 0.04564 0.19348 0.0
C496 C 0.27528 0.09409 0.18921 0.0
C497 C 0.28264 0.11192 0.17009 0.0
C498 C 0.29152 0.16425 0.16921 0.0
C499 C 0.3443 0.20067 0.16182 0.0
C500 C 0.25187 0.16698 0.15647 0.0
C501 C 0.28584 0.17243 0.19076 0.0
C502 C 0.27678 0.13177 0.20212 0.0
C503 C 0.26533 0.12897 0.22214 0.0
C504 C 0.26264 0.16866 0.23066 0.0
C505 C 0.27159 0.21028 0.21912 0.0
C506 C 0.28427 0.21252 0.19908 0.0
H507 H 0.02401 0.18747 0.53106 0.0
H508 H 0.07803 0.34582 0.53546 0.0
H509 H 0.15446 0.36333 0.51758 0.0
H510 H 0.14068 0.19344 0.53799 0.0
H511 H 0.12792 0.14494 0.52041 0.0
H512 H 0.07752 0.14501 0.53348 0.0
H513 H 0.03531 0.14343 0.50024 0.0
H514 H 0.08544 0.14307 0.48707 0.0
H515 H 0.06978 0.19053 0.48199 0.0
H516 H 0.2257 0.36327 0.50024 0.0
H517 H 0.28484 0.34554 0.48267 0.0
H518 H 0.18224 0.18719 0.48896 0.0
C519 C 0.0519 0.22582 0.52823 0.0
C520 C 0.04548 0.26535 0.53463 0.0
C521 C 0.08246 0.31506 0.5306 0.0
C522 C 0.12593 0.32534 0.52053 0.0
C523 C 0.13133 0.28544 0.51455 0.0
C524 C 0.09516 0.23669 0.51809 0.0
C525 C 0.10964 0.20054 0.50989 0.0
C526 C 0.11422 0.16915 0.52644 0.0
C527 C 0.07286 0.16746 0.49384 0.0
C528 C 0.15976 0.2366 0.50124 0.0
C529 C 0.17178 0.28539 0.50418 0.0
C530 C 0.21665 0.32524 0.49775 0.0
C531 C 0.24996 0.31483 0.48787 0.0
C532 C 0.23779 0.26505 0.48446 0.0
C533 C 0.19226 0.22559 0.49129 0.0
H534 H 0.96178 0.21724 0.82088 0.0
H535 H 0.05005 0.14848 0.8074 0.0
H536 H 0.99701 0.07832 0.82976 0.0
H537 H 0.93781 0.18301 0.87169 0.0
H538 H 0.87472 0.17086 0.87077 0.0
H539 H 0.92078 0.216 0.85437 0.0
H540 H 0.8658 0.1691 0.82418 0.0
H541 H 0.81935 0.12415 0.84049 0.0
H542 H 0.84466 0.10388 0.82105 0.0
H543 H 0.93517 0.01746 0.85458 0.0
H544 H 0.86336 0.96544 0.87631 0.0
H545 H 0.814 0.07308 0.8711 0.0
C546 C 0.97 0.18744 0.8227 0.0
C547 C 1.00992 0.18802 0.8127 0.0
C548 C 0.01933 0.14826 0.81504 0.0
C549 C 0.98971 0.10864 0.82776 0.0
C550 C 0.95072 0.10945 0.83762 0.0
C551 C 0.94038 0.14745 0.83492 0.0
C552 C 0.89486 0.13853 0.84623 0.0
C553 C 0.90785 0.17954 0.86168 0.0
C554 C 0.85374 0.1336 0.83215 0.0
C555 C 0.88116 0.0896 0.85587 0.0
C556 C 0.91413 0.07364 0.85101 0.0
C557 C 0.90903 0.02947 0.85842 0.0
C558 C 0.86847 1.00042 0.8708 0.0
C559 C 0.83352 0.01554 0.87523 0.0
C560 C 0.84028 0.06079 0.86783 0.0
H561 H 0.7403 0.9234 0.13918 0.0
H562 H 0.74511 0.02536 0.18401 0.0
H563 H 0.72778 0.96199 0.20968 0.0
H564 H 0.64343 0.80559 0.1633 0.0
H565 H 0.6746 0.77289 0.15532 0.0
H566 H 0.67746 0.82228 0.14039 0.0
H567 H 0.77382 0.86715 0.141 0.0
H568 H 0.77126 0.81814 0.15587 0.0
H569 H 0.80564 0.88154 0.16442 0.0
H570 H 0.7239 0.89353 0.23048 0.0
H571 H 0.73572 0.82695 0.24471 0.0
H572 H 0.7327 0.77031 0.18591 0.0
C573 C 0.7365 0.93199 0.15435 0.0
C574 C 0.74401 0.97904 0.15971 0.0
C575 C 0.73926 0.98926 0.17968 0.0
C576 C 0.72915 0.95346 0.19429 0.0
C577 C 0.72322 0.90769 0.18854 0.0
C578 C 0.72635 0.89681 0.16899 0.0
C579 C 0.72453 0.84761 0.16674 0.0
C580 C 0.67717 0.80986 0.15579 0.0
C581 C 0.77161 0.85404 0.15641 0.0
C582 C 0.72278 0.83369 0.18817 0.0
C583 C 0.72088 0.86813 0.20054 0.0
C584 C 0.72422 0.86572 0.22097 0.0
C585 C 0.73106 0.82792 0.2289 0.0
C586 C 0.73499 0.79365 0.21634 0.0
C587 C 0.72916 0.7957 0.19583 0.0
H588 H 0.83768 0.76299 0.46703 0.0
H589 H 0.77505 0.81939 0.51019 0.0
H590 H 0.84133 0.83306 0.53378 0.0
H591 H 0.86861 0.69573 0.50205 0.0
H592 H 0.9249 0.70834 0.48951 0.0
H593 H 0.87391 0.70525 0.47571 0.0
H594 H 0.93247 0.79354 0.46183 0.0
H595 H 0.98359 0.79705 0.47572 0.0
H596 H 0.96678 0.84442 0.47868 0.0
H597 H 0.91487 0.84297 0.55202 0.0
H598 H 0.98622 0.839 0.56582 0.0
H599 H 0.99774 0.77047 0.51175 0.0
C600 C 0.83816 0.77831 0.48145 0.0
C601 C 0.80181 0.79049 0.48689 0.0
C602 C 0.80276 0.80978 0.50589 0.0
C603 C 0.84031 0.81795 0.51929 0.0
C604 C 0.8759 0.80587 0.51345 0.0
C605 C 0.87475 0.78572 0.49514 0.0
C606 C 0.91591 0.77349 0.49303 0.0
C607 C 0.89454 0.71737 0.4899 0.0
C608 C 0.95181 0.80396 0.47633 0.0
C609 C 0.94036 0.79003 0.51302 0.0
C610 C 0.91714 0.80933 0.52442 0.0
C611 C 0.93331 0.82775 0.54332 0.0
C612 C 0.97391 0.82555 0.55097 0.0
C613 C 0.99711 0.80434 0.5398 0.0
C614 C 0.98038 0.78669 0.52056 0.0
H615 H 0.16876 0.95002 0.88175 0.0
H616 H 0.22982 0.06756 0.83797 0.0
H617 H 0.16487 0.01273 0.81429 0.0
H618 H 0.14845 0.85583 0.84951 0.0
H619 H 0.09161 0.80852 0.86063 0.0
H620 H 0.13681 0.85921 0.87537 0.0
H621 H 0.07023 0.88177 0.88575 0.0
H622 H 0.02452 0.83065 0.87121 0.0
H623 H 0.03554 0.89265 0.86702 0.0
H624 H 0.09947 0.94355 0.79459 0.0
H625 H 0.03792 0.86358 0.77971 0.0
H626 H 0.02233 0.78964 0.83581 0.0
C627 C 0.16732 0.96454 0.86738 0.0
C628 C 0.20354 0.01286 0.86162 0.0
C629 C 0.20194 0.0305 0.84255 0.0
C630 C 0.1652 0.99978 0.82908 0.0
C631 C 0.13082 0.95163 0.83496 0.0
C632 C 0.13146 0.93404 0.85365 0.0
C633 C 0.0938 0.87927 0.85552 0.0
C634 C 0.11921 0.84895 0.86055 0.0
C635 C 0.05363 0.87059 0.87078 0.0
C636 C 0.07289 0.86857 0.83482 0.0
C637 C 0.09414 0.91099 0.82331 0.0
C638 C 0.08213 0.91014 0.80348 0.0
C639 C 0.04734 0.8646 0.79516 0.0
C640 C 0.02566 0.82065 0.80665 0.0
C641 C 0.03846 0.82276 0.82672 0.0
H642 H 0.32578 0.22757 0.37948 0.0
H643 H 0.20719 0.23518 0.41011 0.0
H644 H 0.18077 0.25532 0.37874 0.0
H645 H 0.35881 0.32833 0.34764 0.0
H646 H 0.37092 0.30066 0.32654 0.0
H647 H 0.37817 0.28297 0.35107 0.0
H648 H 0.31669 0.19042 0.34295 0.0
H649 H 0.30974 0.20777 0.31829 0.0
H650 H 0.25571 0.17268 0.33357 0.0
H651 H 0.17144 0.28145 0.34412 0.0
H652 H 0.17653 0.30469 0.30878 0.0
H653 H 0.30019 0.27853 0.30115 0.0
C654 C 0.29363 0.23244 0.37952 0.0
C655 C 0.26845 0.22955 0.39725 0.0
C656 C 0.2269 0.23684 0.3967 0.0
C657 C 0.21168 0.2485 0.37895 0.0
C658 C 0.23811 0.25238 0.3618 0.0
C659 C 0.27778 0.24387 0.36191 0.0
C660 C 0.30067 0.25147 0.34158 0.0
C661 C 0.35537 0.29335 0.34173 0.0
C662 C 0.29537 0.20268 0.33363 0.0
C663 C 0.26836 0.26646 0.33013 0.0
C664 C 0.23242 0.26681 0.34199 0.0
C665 C 0.19917 0.28083 0.33466 0.0
C666 C 0.20243 0.2942 0.31462 0.0
C667 C 0.2386 0.29333 0.30221 0.0
C668 C 0.27193 0.2794 0.31021 0.0
H669 H 0.92215 0.21386 0.64126 0.0
H670 H 0.05853 0.26353 0.60812 0.0
H671 H 0.10621 0.28497 0.6391 0.0
H672 H 0.97213 0.3063 0.67852 0.0
H673 H 0.93684 0.26553 0.69849 0.0
H674 H 0.91249 0.25207 0.67374 0.0
H675 H 0.90348 0.16467 0.67579 0.0
H676 H 0.92742 0.17772 0.70063 0.0
H677 H 0.95677 0.15908 0.68224 0.0
H678 H 0.14066 0.30859 0.67353 0.0
H679 H 0.15754 0.32315 0.7094 0.0
H680 H 0.99913 0.25283 0.72056 0.0
C681 C 0.9619 0.22852 0.64057 0.0
C682 C 0.98648 0.23695 0.62221 0.0
C683 C 0.03868 0.25647 0.62196 0.0
C684 C 0.06626 0.26901 0.63951 0.0
C685 C 0.04119 0.26119 0.65733 0.0
C686 C 0.99009 0.24056 0.65806 0.0
C687 C 0.97249 0.2359 0.67925 0.0
C688 C 0.94699 0.26679 0.68269 0.0
C689 C 0.938 0.18108 0.6848 0.0
C690 C 0.02167 0.2578 0.6902 0.0
C691 C 0.06092 0.27263 0.67727 0.0
C692 C 0.11015 0.29639 0.68384 0.0
C693 C 0.11946 0.30472 0.7042 0.0
C694 C 0.07971 0.28859 0.71773 0.0
C695 C 0.03026 0.26482 0.71056 0.0
H696 H 0.79291 0.09375 0.04233 0.0
H697 H 0.79249 0.96928 0.07161 0.0
H698 H 0.77418 0.92452 0.03998 0.0
H699 H 0.69384 0.0238 0.00962 0.0
H700 H 0.7206 0.06487 0.9888 0.0
H701 H 0.73678 0.08906 0.01351 0.0
H702 H 0.83019 0.12473 1.00571 0.0
H703 H 0.81433 0.10116 0.98088 0.0
H704 H 0.85099 0.08411 0.99613 0.0
H705 H 0.74741 0.88936 1.00589 0.0
H706 H 0.72414 0.87082 0.97065 0.0
H707 H 0.74664 0.01927 0.96286 0.0
C708 C 0.78994 0.05752 0.04199 0.0
C709 C 0.79421 0.03512 0.05949 0.0
C710 C 0.78961 0.9874 0.05843 0.0
C711 C 0.77899 0.96148 0.04052 0.0
C712 C 0.77368 0.98393 0.02365 0.0
C713 C 0.77991 0.03124 0.02411 0.0
C714 C 0.77182 0.04652 1.0038 0.0
C715 C 0.72816 0.05665 1.00395 0.0
C716 C 0.81969 0.09181 0.99618 0.0
C717 C 0.75922 1.00012 0.99202 0.0
C718 C 0.76013 0.96431 1.00378 0.0
C719 C 0.7473 0.91739 0.99645 0.0
C720 C 0.73386 0.90705 0.97647 0.0
C721 C 0.73399 0.94367 0.96404 0.0
C722 C 0.74682 0.99073 0.97199 0.0
H723 H 0.78415 0.68398 0.31068 0.0
H724 H 0.8448 0.83255 0.28647 0.0
H725 H 0.83185 0.86229 0.31833 0.0
H726 H 0.69002 0.68341 0.33879 0.0
H727 H 0.69573 0.651 0.35979 0.0
H728 H 0.7138 0.6415 0.33567 0.0
H729 H 0.80179 0.667 0.34868 0.0
H730 H 0.78373 0.67581 0.37295 0.0
H731 H 0.83767 0.72572 0.36117 0.0
H732 H 0.80154 0.87362 0.35116 0.0
H733 H 0.76771 0.86834 0.38474 0.0
H734 H 0.73252 0.71484 0.38891 0.0
C735 C 0.79606 0.72304 0.31227 0.0
C736 C 0.81561 0.75588 0.29602 0.0
C737 C 0.82998 0.80662 0.29867 0.0
C738 C 0.82256 0.82393 0.31672 0.0
C739 C 0.80148 0.79034 0.33221 0.0
C740 C 0.78955 0.74124 0.33038 0.0
C741 C 0.76649 0.71281 0.3493 0.0
C742 C 0.71336 0.66963 0.34566 0.0
C743 C 0.79939 0.69425 0.35858 0.0
C744 C 0.76624 0.75328 0.36179 0.0
C745 C 0.7862 0.79762 0.35157 0.0
C746 C 0.78677 0.83939 0.35948 0.0
C747 C 0.7672 0.83601 0.37848 0.0
C748 C 0.7481 0.79146 0.38945 0.0
C749 C 0.7477 0.74965 0.38095 0.0
H750 H 0.09904 0.78205 0.64292 0.0
H751 H 0.96202 0.73666 0.6107 0.0
H752 H 0.91522 0.71349 0.64183 0.0
H753 H 0.04698 0.68478 0.67885 0.0
H754 H 0.08357 0.72314 0.69916 0.0
H755 H 0.1074 0.73817 0.67436 0.0
H756 H 0.11964 0.82659 0.67819 0.0
H757 H 0.09613 0.8119 0.70305 0.0
H758 H 0.06772 0.83365 0.68548 0.0
H759 H 0.88187 0.69155 0.6762 0.0
H760 H 0.86558 0.67643 0.71202 0.0
H761 H 0.02341 0.73685 0.72232 0.0
C762 C 0.05932 0.76777 0.64248 0.0
C763 C 0.03433 0.76124 0.62432 0.0
C764 C 0.98216 0.74204 0.62438 0.0
C765 C 0.95508 0.72866 0.64201 0.0
C766 C 0.98052 0.73479 0.65961 0.0
C767 C 0.03148 0.75421 0.66006 0.0
C768 C 0.04933 0.75635 0.68107 0.0
C769 C 0.07323 0.72366 0.68349 0.0
C770 C 0.08533 0.81034 0.68731 0.0
C771 C 1.00047 0.73486 0.69221 0.0
C772 C 0.96122 0.72256 0.67954 0.0
C773 C 0.91235 0.70129 0.68632 0.0
C774 C 0.90338 0.69269 0.70666 0.0
C775 C 0.94311 0.70553 0.71995 0.0
C776 C 0.99221 0.72679 0.71254 0.0
H777 H 0.22868 0.92277 0.03656 0.0
H778 H 0.23647 0.05162 0.06509 0.0
H779 H 0.25769 0.09595 0.03337 0.0
H780 H 0.32834 0.98711 1.00343 0.0
H781 H 0.29927 0.94616 0.98273 0.0
H782 H 0.28238 0.92281 1.00752 0.0
H783 H 0.18984 0.89254 0.99992 0.0
H784 H 0.20635 0.91521 0.97501 0.0
H785 H 0.17261 0.93586 0.99023 0.0
H786 H 0.28783 0.13034 0.99955 0.0
H787 H 0.31131 0.14732 0.96428 0.0
H788 H 0.27645 0.99469 0.95652 0.0
C789 C 0.2339 0.95992 0.03602 0.0
C790 C 0.23089 0.98362 0.05337 0.0
C791 C 0.23825 0.03243 0.05204 0.0
C792 C 0.25065 0.05817 0.03408 0.0
C793 C 0.25464 0.0344 0.01738 0.0
C794 C 0.24529 0.98596 0.01802 0.0
C795 C 0.25161 0.96915 0.99773 0.0
C796 C 0.29286 0.95551 0.99787 0.0
C797 C 0.20215 0.92561 0.99028 0.0
C798 C 0.2669 0.016 0.98579 0.0
C799 C 0.26908 0.0534 0.99749 0.0
C800 C 0.28537 0.10107 0.99012 0.0
C801 C 0.29893 0.11052 0.97015 0.0
C802 C 0.29513 0.07223 0.95773 0.0
C803 C 0.27894 0.02442 0.96568 0.0
loop_
_geom_bond_atom_site_label_1
_geom_bond_atom_site_label_2
_geom_bond_distance
_geom_bond_site_symmetry_2
_ccdc_geom_bond_type
In0 O1 2.294 . S
In0 O2 2.326 . S
In0 O6 2.266 . S
In0 O7 2.326 . S
In0 O8 2.266 . S
In0 O9 2.326 . S
In0 O11 2.294 . S
In0 O12 2.326 . S
O1 In0 2.294 . S
O1 C10 1.240 . S
O2 In0 2.326 . S
O2 C10 1.252 . S
C3 O6 1.252 . S
C3 O7 1.260 . S
C4 O11 1.240 . S
C4 O12 1.252 . S
C5 O8 1.252 . S
C5 O9 1.260 . S
O6 In0 2.266 . S
O6 C3 1.252 . S
O7 In0 2.326 . S
O7 C3 1.260 . S
O8 In0 2.266 . S
O8 C5 1.252 . S
O9 In0 2.326 . S
O9 C5 1.260 . S
C10 O1 1.240 . S
C10 O2 1.252 . S
O11 In0 2.294 . S
O11 C4 1.240 . S
O12 In0 2.326 . S
O12 C4 1.252 . S
In13 O14 2.294 . S
In13 O15 2.326 . S
In13 O19 2.266 . S
In13 O20 2.326 . S
In13 O21 2.266 1_655 S
In13 O22 2.326 . S
In13 O24 2.294 . S
In13 O25 2.326 . S
O14 In13 2.294 . S
O14 C23 1.240 . S
O15 In13 2.326 . S
O15 C23 1.252 . S
C16 O19 1.252 . S
C16 O20 1.260 . S
C17 O24 1.240 . S
C17 O25 1.252 . S
C18 O21 1.252 . S
C18 O22 1.260 1_455 S
O19 In13 2.266 . S
O19 C16 1.252 . S
O20 In13 2.326 . S
O20 C16 1.260 . S
O21 In13 2.266 1_455 S
O21 C18 1.252 . S
O22 In13 2.326 . S
O22 C18 1.260 1_655 S
C23 O14 1.240 . S
C23 O15 1.252 . S
O24 In13 2.294 . S
O24 C17 1.240 . S
O25 In13 2.326 . S
O25 C17 1.252 . S
In26 O27 2.294 . S
In26 O28 2.326 . S
In26 O32 2.266 1_565 S
In26 O33 2.326 . S
In26 O34 2.266 . S
In26 O35 2.326 . S
In26 O37 2.294 . S
In26 O38 2.326 . S
O27 In26 2.294 . S
O27 C36 1.240 . S
O28 In26 2.326 . S
O28 C36 1.252 . S
C29 O32 1.252 . S
C29 O33 1.260 1_545 S
C30 O37 1.240 . S
C30 O38 1.252 . S
C31 O34 1.252 . S
C31 O35 1.260 . S
O32 In26 2.266 1_545 S
O32 C29 1.252 . S
O33 In26 2.326 . S
O33 C29 1.260 1_565 S
O34 In26 2.266 . S
O34 C31 1.252 . S
O35 In26 2.326 . S
O35 C31 1.260 . S
C36 O27 1.240 . S
C36 O28 1.252 . S
O37 In26 2.294 . S
O37 C30 1.240 . S
O38 In26 2.326 . S
O38 C30 1.252 . S
In39 O40 2.294 . S
In39 O41 2.326 . S
In39 O45 2.266 . S
In39 O46 2.326 . S
In39 O47 2.266 . S
In39 O48 2.326 . S
In39 O50 2.294 . S
In39 O51 2.326 . S
O40 In39 2.294 . S
O40 C49 1.240 . S
O41 In39 2.326 . S
O41 C49 1.252 . S
C42 O45 1.252 . S
C42 O46 1.260 . S
C43 O50 1.240 . S
C43 O51 1.252 . S
C44 O47 1.252 . S
C44 O48 1.260 . S
O45 In39 2.266 . S
O45 C42 1.252 . S
O46 In39 2.326 . S
O46 C42 1.260 . S
O47 In39 2.266 . S
O47 C44 1.252 . S
O48 In39 2.326 . S
O48 C44 1.260 . S
C49 O40 1.240 . S
C49 O41 1.252 . S
O50 In39 2.294 . S
O50 C43 1.240 . S
O51 In39 2.326 . S
O51 C43 1.252 . S
In52 O53 2.294 . S
In52 O54 2.326 . S
In52 O58 2.266 . S
In52 O59 2.326 . S
In52 O60 2.266 1_455 S
In52 O61 2.326 . S
In52 O63 2.294 . S
In52 O64 2.326 . S
O53 In52 2.294 . S
O53 C62 1.240 . S
O54 In52 2.326 . S
O54 C62 1.252 . S
C55 O58 1.252 . S
C55 O59 1.260 . S
C56 O63 1.240 . S
C56 O64 1.252 . S
C57 O60 1.252 . S
C57 O61 1.260 1_655 S
O58 In52 2.266 . S
O58 C55 1.252 . S
O59 In52 2.326 . S
O59 C55 1.260 . S
O60 In52 2.266 1_655 S
O60 C57 1.252 . S
O61 In52 2.326 . S
O61 C57 1.260 1_455 S
C62 O53 1.240 . S
C62 O54 1.252 . S
O63 In52 2.294 . S
O63 C56 1.240 . S
O64 In52 2.326 . S
O64 C56 1.252 . S
In65 O66 2.294 . S
In65 O67 2.326 . S
In65 O71 2.266 . S
In65 O72 2.326 . S
In65 O73 2.266 1_545 S
In65 O74 2.326 . S
In65 O76 2.294 . S
In65 O77 2.326 . S
O66 In65 2.294 . S
O66 C75 1.240 . S
O67 In65 2.326 . S
O67 C75 1.252 . S
C68 O71 1.252 . S
C68 O72 1.260 . S
C69 O76 1.240 . S
C69 O77 1.252 . S
C70 O73 1.252 . S
C70 O74 1.260 1_565 S
O71 In65 2.266 . S
O71 C68 1.252 . S
O72 In65 2.326 . S
O72 C68 1.260 . S
O73 In65 2.266 1_565 S
O73 C70 1.252 . S
O74 In65 2.326 . S
O74 C70 1.260 1_545 S
C75 O66 1.240 . S
C75 O67 1.252 . S
O76 In65 2.294 . S
O76 C69 1.240 . S
O77 In65 2.326 . S
O77 C69 1.252 . S
In78 O79 2.294 . S
In78 O80 2.326 . S
In78 O84 2.266 . S
In78 O85 2.326 . S
In78 O86 2.266 . S
In78 O87 2.326 . S
In78 O89 2.294 . S
In78 O90 2.326 . S
O79 In78 2.294 . S
O79 C88 1.240 . S
O80 In78 2.326 . S
O80 C88 1.252 . S
C81 O84 1.252 . S
C81 O85 1.260 . S
C82 O89 1.240 . S
C82 O90 1.252 . S
C83 O86 1.252 . S
C83 O87 1.260 . S
O84 In78 2.266 . S
O84 C81 1.252 . S
O85 In78 2.326 . S
O85 C81 1.260 . S
O86 In78 2.266 . S
O86 C83 1.252 . S
O87 In78 2.326 . S
O87 C83 1.260 . S
C88 O79 1.240 . S
C88 O80 1.252 . S
O89 In78 2.294 . S
O89 C82 1.240 . S
O90 In78 2.326 . S
O90 C82 1.252 . S
In91 O92 2.294 . S
In91 O93 2.326 . S
In91 O97 2.266 . S
In91 O98 2.326 . S
In91 O99 2.266 1_655 S
In91 O100 2.326 . S
In91 O102 2.294 . S
In91 O103 2.326 . S
O92 In91 2.294 . S
O92 C101 1.240 . S
O93 In91 2.326 . S
O93 C101 1.252 . S
C94 O97 1.252 . S
C94 O98 1.260 . S
C95 O102 1.240 . S
C95 O103 1.252 . S
C96 O99 1.252 . S
C96 O100 1.260 1_455 S
O97 In91 2.266 . S
O97 C94 1.252 . S
O98 In91 2.326 . S
O98 C94 1.260 . S
O99 In91 2.266 1_455 S
O99 C96 1.252 . S
O100 In91 2.326 . S
O100 C96 1.260 1_655 S
C101 O92 1.240 . S
C101 O93 1.252 . S
O102 In91 2.294 . S
O102 C95 1.240 . S
O103 In91 2.326 . S
O103 C95 1.252 . S
In104 O105 2.294 . S
In104 O106 2.326 . S
In104 O110 2.266 . S
In104 O111 2.326 . S
In104 O112 2.266 1_565 S
In104 O113 2.326 . S
In104 O115 2.294 . S
In104 O116 2.326 . S
O105 In104 2.294 . S
O105 C114 1.240 . S
O106 In104 2.326 . S
O106 C114 1.252 . S
C107 O110 1.252 . S
C107 O111 1.260 . S
C108 O115 1.240 . S
C108 O116 1.252 . S
C109 O112 1.252 . S
C109 O113 1.260 1_545 S
O110 In104 2.266 . S
O110 C107 1.252 . S
O111 In104 2.326 . S
O111 C107 1.260 . S
O112 In104 2.266 1_545 S
O112 C109 1.252 . S
O113 In104 2.326 . S
O113 C109 1.260 1_565 S
C114 O105 1.240 . S
C114 O106 1.252 . S
O115 In104 2.294 . S
O115 C108 1.240 . S
O116 In104 2.326 . S
O116 C108 1.252 . S
In117 O118 2.294 . S
In117 O119 2.326 . S
In117 O123 2.266 . S
In117 O124 2.326 . S
In117 O125 2.266 . S
In117 O126 2.326 . S
In117 O128 2.294 . S
In117 O129 2.326 . S
O118 In117 2.294 . S
O118 C127 1.240 . S
O119 In117 2.326 . S
O119 C127 1.252 . S
C120 O123 1.252 . S
C120 O124 1.260 . S
C121 O128 1.240 . S
C121 O129 1.252 . S
C122 O125 1.252 . S
C122 O126 1.260 . S
O123 In117 2.266 . S
O123 C120 1.252 . S
O124 In117 2.326 . S
O124 C120 1.260 . S
O125 In117 2.266 . S
O125 C122 1.252 . S
O126 In117 2.326 . S
O126 C122 1.260 . S
C127 O118 1.240 . S
C127 O119 1.252 . S
O128 In117 2.294 . S
O128 C121 1.240 . S
O129 In117 2.326 . S
O129 C121 1.252 . S
In130 O131 2.294 . S
In130 O132 2.326 . S
In130 O136 2.266 1_455 S
In130 O137 2.326 . S
In130 O138 2.266 . S
In130 O139 2.326 . S
In130 O141 2.294 . S
In130 O142 2.326 . S
O131 In130 2.294 . S
O131 C140 1.240 . S
O132 In130 2.326 . S
O132 C140 1.252 . S
C133 O136 1.252 . S
C133 O137 1.260 1_655 S
C134 O141 1.240 . S
C134 O142 1.252 . S
C135 O138 1.252 . S
C135 O139 1.260 . S
O136 In130 2.266 1_655 S
O136 C133 1.252 . S
O137 In130 2.326 . S
O137 C133 1.260 1_455 S
O138 In130 2.266 . S
O138 C135 1.252 . S
O139 In130 2.326 . S
O139 C135 1.260 . S
C140 O131 1.240 . S
C140 O132 1.252 . S
O141 In130 2.294 . S
O141 C134 1.240 . S
O142 In130 2.326 . S
O142 C134 1.252 . S
In143 O144 2.294 . S
In143 O145 2.326 . S
In143 O149 2.266 1_545 S
In143 O150 2.326 . S
In143 O151 2.266 . S
In143 O152 2.326 . S
In143 O154 2.294 . S
In143 O155 2.326 . S
O144 In143 2.294 . S
O144 C153 1.240 . S
O145 In143 2.326 . S
O145 C153 1.252 . S
C146 O149 1.252 . S
C146 O150 1.260 1_565 S
C147 O154 1.240 . S
C147 O155 1.252 . S
C148 O151 1.252 . S
C148 O152 1.260 . S
O149 In143 2.266 1_565 S
O149 C146 1.252 . S
O150 In143 2.326 . S
O150 C146 1.260 1_545 S
O151 In143 2.266 . S
O151 C148 1.252 . S
O152 In143 2.326 . S
O152 C148 1.260 . S
C153 O144 1.240 . S
C153 O145 1.252 . S
O154 In143 2.294 . S
O154 C147 1.240 . S
O155 In143 2.326 . S
O155 C147 1.252 . S
H156 C168 0.930 . S
H157 C170 0.930 . S
H158 C171 0.930 . S
H159 C175 0.959 . S
H160 C175 0.959 . S
H161 C175 0.961 . S
H162 C176 0.960 . S
H163 C176 0.961 . S
H164 C176 0.959 . S
H165 C179 0.929 1_655 S
H166 C180 0.931 . S
H167 C182 0.930 . S
C168 H156 0.930 . S
C168 C169 1.399 . S
C168 C173 1.399 . S
C169 C168 1.399 . S
C169 C170 1.376 . S
C170 H157 0.930 . S
C170 C169 1.376 . S
C170 C171 1.388 . S
C171 H158 0.930 . S
C171 C170 1.388 . S
C171 C172 1.390 . S
C172 C171 1.390 . S
C172 C173 1.394 . S
C172 C178 1.465 1_655 S
C173 C168 1.399 . S
C173 C172 1.394 . S
C173 C174 1.516 1_655 S
C174 C173 1.516 1_455 S
C174 C175 1.502 . S
C174 C176 1.561 . S
C174 C177 1.526 . S
C175 H159 0.959 . S
C175 H160 0.959 . S
C175 H161 0.961 . S
C175 C174 1.502 . S
C176 H162 0.960 . S
C176 H163 0.961 . S
C176 H164 0.959 . S
C176 C174 1.561 . S
C177 C174 1.526 . S
C177 C178 1.396 . S
C177 C182 1.390 . S
C178 C172 1.465 1_455 S
C178 C177 1.396 . S
C178 C179 1.399 . S
C179 H165 0.929 1_455 S
C179 C178 1.399 . S
C179 C180 1.385 . S
C180 H166 0.931 . S
C180 C179 1.385 . S
C180 C181 1.389 . S
C181 C180 1.389 . S
C181 C182 1.387 . S
C182 H167 0.930 . S
C182 C177 1.390 . S
C182 C181 1.387 . S
H183 C195 0.930 . S
H184 C197 0.930 . S
H185 C198 0.930 1_565 S
H186 C202 0.959 . S
H187 C202 0.959 . S
H188 C202 0.961 . S
H189 C203 0.960 . S
H190 C203 0.961 . S
H191 C203 0.959 . S
H192 C206 0.929 . S
H193 C207 0.931 . S
H194 C209 0.930 . S
C195 H183 0.930 . S
C195 C196 1.399 . S
C195 C200 1.399 . S
C196 C195 1.399 . S
C196 C197 1.376 . S
C197 H184 0.930 . S
C197 C196 1.376 . S
C197 C198 1.388 . S
C198 H185 0.930 1_545 S
C198 C197 1.388 . S
C198 C199 1.390 . S
C199 C198 1.390 . S
C199 C200 1.394 . S
C199 C205 1.465 1_545 S
C200 C195 1.399 . S
C200 C199 1.394 . S
C200 C201 1.516 . S
C201 C200 1.516 . S
C201 C202 1.502 . S
C201 C203 1.561 . S
C201 C204 1.526 1_545 S
C202 H186 0.959 . S
C202 H187 0.959 . S
C202 H188 0.961 . S
C202 C201 1.502 . S
C203 H189 0.960 . S
C203 H190 0.961 . S
C203 H191 0.959 . S
C203 C201 1.561 . S
C204 C201 1.526 1_565 S
C204 C205 1.396 . S
C204 C209 1.390 . S
C205 C199 1.465 1_565 S
C205 C204 1.396 . S
C205 C206 1.399 . S
C206 H192 0.929 . S
C206 C205 1.399 . S
C206 C207 1.385 . S
C207 H193 0.931 . S
C207 C206 1.385 . S
C207 C208 1.389 . S
C208 C207 1.389 . S
C208 C209 1.387 . S
C209 H194 0.930 . S
C209 C204 1.390 . S
C209 C208 1.387 . S
H210 C222 0.930 . S
H211 C224 0.930 . S
H212 C225 0.930 . S
H213 C229 0.959 . S
H214 C229 0.959 . S
H215 C229 0.961 . S
H216 C230 0.960 . S
H217 C230 0.961 . S
H218 C230 0.959 . S
H219 C233 0.929 . S
H220 C234 0.931 . S
H221 C236 0.930 . S
C222 H210 0.930 . S
C222 C223 1.399 . S
C222 C227 1.399 . S
C223 C222 1.399 . S
C223 C224 1.376 . S
C224 H211 0.930 . S
C224 C223 1.376 . S
C224 C225 1.388 . S
C225 H212 0.930 . S
C225 C224 1.388 . S
C225 C226 1.390 . S
C226 C225 1.390 . S
C226 C227 1.394 . S
C226 C232 1.465 . S
C227 C222 1.399 . S
C227 C226 1.394 . S
C227 C228 1.516 . S
C228 C227 1.516 . S
C228 C229 1.502 . S
C228 C230 1.561 . S
C228 C231 1.526 . S
C229 H213 0.959 . S
C229 H214 0.959 . S
C229 H215 0.961 . S
C229 C228 1.502 . S
C230 H216 0.960 . S
C230 H217 0.961 . S
C230 H218 0.959 . S
C230 C228 1.561 . S
C231 C228 1.526 . S
C231 C232 1.396 . S
C231 C236 1.390 . S
C232 C226 1.465 . S
C232 C231 1.396 . S
C232 C233 1.399 . S
C233 H219 0.929 . S
C233 C232 1.399 . S
C233 C234 1.385 . S
C234 H220 0.931 . S
C234 C233 1.385 . S
C234 C235 1.389 . S
C235 C234 1.389 . S
C235 C236 1.387 . S
C236 H221 0.930 . S
C236 C231 1.390 . S
C236 C235 1.387 . S
H237 C249 0.930 . S
H238 C251 0.930 . S
H239 C252 0.930 . S
H240 C256 0.959 . S
H241 C256 0.959 1_455 S
H242 C256 0.961 . S
H243 C257 0.960 . S
H244 C257 0.961 . S
H245 C257 0.959 . S
H246 C260 0.929 . S
H247 C261 0.931 . S
H248 C263 0.930 . S
C249 H237 0.930 . S
C249 C250 1.399 . S
C249 C254 1.399 . S
C250 C249 1.399 . S
C250 C251 1.376 . S
C251 H238 0.930 . S
C251 C250 1.376 . S
C251 C252 1.388 . S
C252 H239 0.930 . S
C252 C251 1.388 . S
C252 C253 1.390 . S
C253 C252 1.390 . S
C253 C254 1.394 . S
C253 C259 1.465 1_655 S
C254 C249 1.399 . S
C254 C253 1.394 . S
C254 C255 1.516 1_655 S
C255 C254 1.516 1_455 S
C255 C256 1.502 1_455 S
C255 C257 1.561 . S
C255 C258 1.526 . S
C256 H240 0.959 . S
C256 H241 0.959 1_655 S
C256 H242 0.961 . S
C256 C255 1.502 1_655 S
C257 H243 0.960 . S
C257 H244 0.961 . S
C257 H245 0.959 . S
C257 C255 1.561 . S
C258 C255 1.526 . S
C258 C259 1.396 . S
C258 C263 1.390 . S
C259 C253 1.465 1_455 S
C259 C258 1.396 . S
C259 C260 1.399 . S
C260 H246 0.929 . S
C260 C259 1.399 . S
C260 C261 1.385 . S
C261 H247 0.931 . S
C261 C260 1.385 . S
C261 C262 1.389 . S
C262 C261 1.389 . S
C262 C263 1.387 . S
C263 H248 0.930 . S
C263 C258 1.390 . S
C263 C262 1.387 . S
H264 C276 0.930 . S
H265 C278 0.930 . S
H266 C279 0.924 1_565 S
H267 C283 0.959 . S
H268 C283 0.959 . S
H269 C283 0.961 . S
H270 C284 0.960 . S
H271 C284 0.961 . S
H272 C284 0.959 . S
H273 C287 0.929 . S
H274 C288 0.931 . S
H275 C290 0.930 . S
C276 H264 0.930 . S
C276 C277 1.399 . S
C276 C281 1.399 . S
C277 C276 1.399 . S
C277 C278 1.376 . S
C278 H265 0.930 . S
C278 C277 1.376 . S
C278 C279 1.388 . S
C279 H266 0.924 1_545 S
C279 C278 1.388 . S
C279 C280 1.390 . S
C280 C279 1.390 . S
C280 C281 1.394 . S
C280 C286 1.465 1_545 S
C281 C276 1.399 . S
C281 C280 1.394 . S
C281 C282 1.516 . S
C282 C281 1.516 . S
C282 C283 1.502 . S
C282 C284 1.561 . S
C282 C285 1.526 1_545 S
C283 H267 0.959 . S
C283 H268 0.959 . S
C283 H269 0.961 . S
C283 C282 1.502 . S
C284 H270 0.960 . S
C284 H271 0.961 . S
C284 H272 0.959 . S
C284 C282 1.561 . S
C285 C282 1.526 1_565 S
C285 C286 1.396 . S
C285 C290 1.390 . S
C286 C280 1.465 1_565 S
C286 C285 1.396 . S
C286 C287 1.399 . S
C287 H273 0.929 . S
C287 C286 1.399 . S
C287 C288 1.385 . S
C288 H274 0.931 . S
C288 C287 1.385 . S
C288 C289 1.389 . S
C289 C288 1.389 . S
C289 C290 1.387 . S
C290 H275 0.930 . S
C290 C285 1.390 . S
C290 C289 1.387 . S
H291 C303 0.930 . S
H292 C305 0.930 . S
H293 C306 0.930 . S
H294 C310 0.959 . S
H295 C310 0.959 . S
H296 C310 0.961 . S
H297 C311 0.960 . S
H298 C311 0.961 . S
H299 C311 0.959 . S
H300 C314 0.929 . S
H301 C315 0.931 . S
H302 C317 0.930 . S
C303 H291 0.930 . S
C303 C304 1.399 . S
C303 C308 1.399 . S
C304 C303 1.399 . S
C304 C305 1.376 . S
C305 H292 0.930 . S
C305 C304 1.376 . S
C305 C306 1.388 . S
C306 H293 0.930 . S
C306 C305 1.388 . S
C306 C307 1.390 . S
C307 C306 1.390 . S
C307 C308 1.394 . S
C307 C313 1.465 . S
C308 C303 1.399 . S
C308 C307 1.394 . S
C308 C309 1.516 . S
C309 C308 1.516 . S
C309 C310 1.502 . S
C309 C311 1.561 . S
C309 C312 1.526 . S
C310 H294 0.959 . S
C310 H295 0.959 . S
C310 H296 0.961 . S
C310 C309 1.502 . S
C311 H297 0.960 . S
C311 H298 0.961 . S
C311 H299 0.959 . S
C311 C309 1.561 . S
C312 C309 1.526 . S
C312 C313 1.396 . S
C312 C317 1.390 . S
C313 C307 1.465 . S
C313 C312 1.396 . S
C313 C314 1.399 . S
C314 H300 0.929 . S
C314 C313 1.399 . S
C314 C315 1.385 . S
C315 H301 0.931 . S
C315 C314 1.385 . S
C315 C316 1.389 . S
C316 C315 1.389 . S
C316 C317 1.387 . S
C317 H302 0.930 . S
C317 C312 1.390 . S
C317 C316 1.387 . S
H318 C330 0.930 . S
H319 C332 0.930 . S
H320 C333 0.930 . S
H321 C337 0.959 . S
H322 C337 0.959 . S
H323 C337 0.961 . S
H324 C338 0.960 . S
H325 C338 0.961 . S
H326 C338 0.959 . S
H327 C341 0.929 . S
H328 C342 0.931 . S
H329 C344 0.930 . S
C330 H318 0.930 . S
C330 C331 1.399 . S
C330 C335 1.399 . S
C331 C330 1.399 . S
C331 C332 1.376 . S
C332 H319 0.930 . S
C332 C331 1.376 . S
C332 C333 1.388 . S
C333 H320 0.930 . S
C333 C332 1.388 . S
C333 C334 1.390 . S
C334 C333 1.390 . S
C334 C335 1.394 . S
C334 C340 1.465 . S
C335 C330 1.399 . S
C335 C334 1.394 . S
C335 C336 1.516 . S
C336 C335 1.516 . S
C336 C337 1.502 . S
C336 C338 1.561 . S
C336 C339 1.526 . S
C337 H321 0.959 . S
C337 H322 0.959 . S
C337 H323 0.961 . S
C337 C336 1.502 . S
C338 H324 0.960 . S
C338 H325 0.961 . S
C338 H326 0.959 . S
C338 C336 1.561 . S
C339 C336 1.526 . S
C339 C340 1.396 . S
C339 C344 1.390 . S
C340 C334 1.465 . S
C340 C339 1.396 . S
C340 C341 1.399 . S
C341 H327 0.929 . S
C341 C340 1.399 . S
C341 C342 1.385 . S
C342 H328 0.931 . S
C342 C341 1.385 . S
C342 C343 1.389 . S
C343 C342 1.389 . S
C343 C344 1.387 . S
C344 H329 0.930 . S
C344 C339 1.390 . S
C344 C343 1.387 . S
H345 C357 0.930 . S
H346 C359 0.930 . S
H347 C360 0.930 . S
H348 C364 0.959 . S
H349 C364 0.959 . S
H350 C364 0.961 . S
H351 C365 0.960 . S
H352 C365 0.961 . S
H353 C365 0.959 . S
H354 C368 0.929 . S
H355 C369 0.931 . S
H356 C371 0.930 . S
C357 H345 0.930 . S
C357 C358 1.399 . S
C357 C362 1.399 . S
C358 C357 1.399 . S
C358 C359 1.376 . S
C359 H346 0.930 . S
C359 C358 1.376 . S
C359 C360 1.388 . S
C360 H347 0.930 . S
C360 C359 1.388 . S
C360 C361 1.390 . S
C361 C360 1.390 . S
C361 C362 1.394 . S
C361 C367 1.465 . S
C362 C357 1.399 . S
C362 C361 1.394 . S
C362 C363 1.516 1_455 S
C363 C362 1.516 1_655 S
C363 C364 1.502 . S
C363 C365 1.561 1_655 S
C363 C366 1.526 . S
C364 H348 0.959 . S
C364 H349 0.959 . S
C364 H350 0.961 . S
C364 C363 1.502 . S
C365 H351 0.960 . S
C365 H352 0.961 . S
C365 H353 0.959 . S
C365 C363 1.561 1_455 S
C366 C363 1.526 . S
C366 C367 1.396 1_655 S
C366 C371 1.390 . S
C367 C361 1.465 . S
C367 C366 1.396 1_455 S
C367 C368 1.399 . S
C368 H354 0.929 . S
C368 C367 1.399 . S
C368 C369 1.385 1_455 S
C369 H355 0.931 . S
C369 C368 1.385 1_655 S
C369 C370 1.389 . S
C370 C369 1.389 . S
C370 C371 1.387 . S
C371 H356 0.930 . S
C371 C366 1.390 . S
C371 C370 1.387 . S
H372 C384 0.930 . S
H373 C386 0.930 . S
H374 C387 0.930 . S
H375 C391 0.959 . S
H376 C391 0.959 . S
H377 C391 0.961 . S
H378 C392 0.960 . S
H379 C392 0.961 . S
H380 C392 0.959 1_565 S
H381 C395 0.929 . S
H382 C396 0.931 . S
H383 C398 0.930 1_545 S
C384 H372 0.930 . S
C384 C385 1.399 . S
C384 C389 1.399 . S
C385 C384 1.399 . S
C385 C386 1.376 1_545 S
C386 H373 0.930 . S
C386 C385 1.376 1_565 S
C386 C387 1.388 . S
C387 H374 0.930 . S
C387 C386 1.388 . S
C387 C388 1.390 . S
C388 C387 1.390 . S
C388 C389 1.394 1_565 S
C388 C394 1.465 . S
C389 C384 1.399 . S
C389 C388 1.394 1_545 S
C389 C390 1.516 . S
C390 C389 1.516 . S
C390 C391 1.502 . S
C390 C392 1.561 . S
C390 C393 1.542 . S
C391 H375 0.959 . S
C391 H376 0.959 . S
C391 H377 0.961 . S
C391 C390 1.502 . S
C392 H378 0.960 . S
C392 H379 0.961 . S
C392 H380 0.959 1_545 S
C392 C390 1.561 . S
C393 C390 1.542 . S
C393 C394 1.392 1_545 S
C393 C398 1.378 1_545 S
C394 C388 1.465 . S
C394 C393 1.392 1_565 S
C394 C395 1.399 . S
C395 H381 0.929 . S
C395 C394 1.399 . S
C395 C396 1.385 . S
C396 H382 0.931 . S
C396 C395 1.385 . S
C396 C397 1.389 . S
C397 C396 1.389 . S
C397 C398 1.387 . S
C398 H383 0.930 1_565 S
C398 C393 1.378 1_565 S
C398 C397 1.387 . S
H399 C411 0.930 . S
H400 C413 0.930 . S
H401 C414 0.930 . S
H402 C418 0.959 . S
H403 C418 0.959 . S
H404 C418 0.961 . S
H405 C419 0.960 . S
H406 C419 0.961 . S
H407 C419 0.959 . S
H408 C422 0.929 . S
H409 C423 0.931 . S
H410 C425 0.930 . S
C411 H399 0.930 . S
C411 C412 1.399 . S
C411 C416 1.399 . S
C412 C411 1.399 . S
C412 C413 1.376 . S
C413 H400 0.930 . S
C413 C412 1.376 . S
C413 C414 1.388 . S
C414 H401 0.930 . S
C414 C413 1.388 . S
C414 C415 1.390 . S
C415 C414 1.390 . S
C415 C416 1.394 . S
C415 C421 1.465 . S
C416 C411 1.399 . S
C416 C415 1.394 . S
C416 C417 1.516 . S
C417 C416 1.516 . S
C417 C418 1.502 . S
C417 C419 1.561 . S
C417 C420 1.526 . S
C418 H402 0.959 . S
C418 H403 0.959 . S
C418 H404 0.961 . S
C418 C417 1.502 . S
C419 H405 0.960 . S
C419 H406 0.961 . S
C419 H407 0.959 . S
C419 C417 1.561 . S
C420 C417 1.526 . S
C420 C421 1.396 . S
C420 C425 1.390 . S
C421 C415 1.465 . S
C421 C420 1.396 . S
C421 C422 1.399 . S
C422 H408 0.929 . S
C422 C421 1.399 . S
C422 C423 1.385 . S
C423 H409 0.931 . S
C423 C422 1.385 . S
C423 C424 1.389 . S
C424 C423 1.389 . S
C424 C425 1.387 . S
C425 H410 0.930 . S
C425 C420 1.390 . S
C425 C424 1.387 . S
H426 C438 0.930 1_455 S
H427 C440 0.930 . S
H428 C441 0.930 . S
H429 C445 0.959 . S
H430 C445 0.959 . S
H431 C445 0.961 . S
H432 C446 0.957 1_655 S
H433 C446 0.966 . S
H434 C446 0.955 1_655 S
H435 C449 0.929 . S
H436 C450 0.931 . S
H437 C452 0.930 . S
C438 H426 0.930 1_655 S
C438 C439 1.399 . S
C438 C443 1.399 . S
C439 C438 1.399 . S
C439 C440 1.376 . S
C440 H427 0.930 . S
C440 C439 1.376 . S
C440 C441 1.388 . S
C441 H428 0.930 . S
C441 C440 1.388 . S
C441 C442 1.390 . S
C442 C441 1.390 . S
C442 C443 1.394 . S
C442 C448 1.465 . S
C443 C438 1.399 . S
C443 C442 1.394 . S
C443 C444 1.516 1_655 S
C444 C443 1.516 1_455 S
C444 C445 1.502 . S
C444 C446 1.564 . S
C444 C447 1.526 . S
C445 H429 0.959 . S
C445 H430 0.959 . S
C445 H431 0.961 . S
C445 C444 1.502 . S
C446 H432 0.957 1_455 S
C446 H433 0.966 . S
C446 H434 0.955 1_455 S
C446 C444 1.564 . S
C447 C444 1.526 . S
C447 C448 1.396 1_455 S
C447 C452 1.390 . S
C448 C442 1.465 . S
C448 C447 1.396 1_655 S
C448 C449 1.399 . S
C449 H435 0.929 . S
C449 C448 1.399 . S
C449 C450 1.385 . S
C450 H436 0.931 . S
C450 C449 1.385 . S
C450 C451 1.389 1_655 S
C451 C450 1.389 1_455 S
C451 C452 1.387 . S
C452 H437 0.930 . S
C452 C447 1.390 . S
C452 C451 1.387 . S
H453 C465 0.930 . S
H454 C467 0.930 . S
H455 C468 0.930 . S
H456 C472 0.959 . S
H457 C472 0.959 . S
H458 C472 0.961 . S
H459 C473 0.960 . S
H460 C473 0.961 . S
H461 C473 0.959 1_545 S
H462 C476 0.929 . S
H463 C477 0.931 . S
H464 C479 0.930 1_565 S
C465 H453 0.930 . S
C465 C466 1.399 . S
C465 C470 1.399 . S
C466 C465 1.399 . S
C466 C467 1.376 1_565 S
C467 H454 0.930 . S
C467 C466 1.376 1_545 S
C467 C468 1.388 . S
C468 H455 0.930 . S
C468 C467 1.388 . S
C468 C469 1.390 . S
C469 C468 1.390 . S
C469 C470 1.394 1_545 S
C469 C475 1.465 . S
C470 C465 1.399 . S
C470 C469 1.394 1_565 S
C470 C471 1.516 . S
C471 C470 1.516 . S
C471 C472 1.502 . S
C471 C473 1.561 . S
C471 C474 1.526 1_565 S
C472 H456 0.959 . S
C472 H457 0.959 . S
C472 H458 0.961 . S
C472 C471 1.502 . S
C473 H459 0.960 . S
C473 H460 0.961 . S
C473 H461 0.959 1_565 S
C473 C471 1.561 . S
C474 C471 1.526 1_545 S
C474 C475 1.396 . S
C474 C479 1.390 . S
C475 C469 1.465 . S
C475 C474 1.396 . S
C475 C476 1.399 . S
C476 H462 0.929 . S
C476 C475 1.399 . S
C476 C477 1.385 . S
C477 H463 0.931 . S
C477 C476 1.385 . S
C477 C478 1.389 . S
C478 C477 1.389 . S
C478 C479 1.387 . S
C479 H464 0.930 1_545 S
C479 C474 1.390 . S
C479 C478 1.387 . S
H480 C492 0.930 . S
H481 C494 0.930 1_565 S
H482 C495 0.930 . S
H483 C499 0.959 . S
H484 C499 0.959 . S
H485 C499 0.961 . S
H486 C500 0.960 . S
H487 C500 0.961 . S
H488 C500 0.959 . S
H489 C503 0.929 . S
H490 C504 0.931 . S
H491 C506 0.930 . S
C492 H480 0.930 . S
C492 C493 1.399 . S
C492 C497 1.399 . S
C493 C492 1.399 . S
C493 C494 1.376 . S
C494 H481 0.930 1_545 S
C494 C493 1.376 . S
C494 C495 1.388 . S
C495 H482 0.930 . S
C495 C494 1.388 . S
C495 C496 1.390 . S
C496 C495 1.390 . S
C496 C497 1.394 . S
C496 C502 1.465 . S
C497 C492 1.399 . S
C497 C496 1.394 . S
C497 C498 1.516 . S
C498 C497 1.516 . S
C498 C499 1.502 . S
C498 C500 1.561 . S
C498 C501 1.526 . S
C499 H483 0.959 . S
C499 H484 0.959 . S
C499 H485 0.961 . S
C499 C498 1.502 . S
C500 H486 0.960 . S
C500 H487 0.961 . S
C500 H488 0.959 . S
C500 C498 1.561 . S
C501 C498 1.526 . S
C501 C502 1.396 . S
C501 C506 1.390 . S
C502 C496 1.465 . S
C502 C501 1.396 . S
C502 C503 1.399 . S
C503 H489 0.929 . S
C503 C502 1.399 . S
C503 C504 1.385 . S
C504 H490 0.931 . S
C504 C503 1.385 . S
C504 C505 1.389 . S
C505 C504 1.389 . S
C505 C506 1.387 . S
C506 H491 0.930 . S
C506 C501 1.390 . S
C506 C505 1.387 . S
H507 C519 0.930 . S
H508 C521 0.930 . S
H509 C522 0.930 . S
H510 C526 0.959 . S
H511 C526 0.959 . S
H512 C526 0.961 . S
H513 C527 0.960 . S
H514 C527 0.961 . S
H515 C527 0.959 . S
H516 C530 0.929 . S
H517 C531 0.931 . S
H518 C533 0.930 . S
C519 H507 0.930 . S
C519 C520 1.399 . S
C519 C524 1.399 . S
C520 C519 1.399 . S
C520 C521 1.376 . S
C521 H508 0.930 . S
C521 C520 1.376 . S
C521 C522 1.388 . S
C522 H509 0.930 . S
C522 C521 1.388 . S
C522 C523 1.390 . S
C523 C522 1.390 . S
C523 C524 1.394 . S
C523 C529 1.465 . S
C524 C519 1.399 . S
C524 C523 1.394 . S
C524 C525 1.516 . S
C525 C524 1.516 . S
C525 C526 1.502 . S
C525 C527 1.561 . S
C525 C528 1.526 . S
C526 H510 0.959 . S
C526 H511 0.959 . S
C526 H512 0.961 . S
C526 C525 1.502 . S
C527 H513 0.960 . S
C527 H514 0.961 . S
C527 H515 0.959 . S
C527 C525 1.561 . S
C528 C525 1.526 . S
C528 C529 1.396 . S
C528 C533 1.390 . S
C529 C523 1.465 . S
C529 C528 1.396 . S
C529 C530 1.399 . S
C530 H516 0.929 . S
C530 C529 1.399 . S
C530 C531 1.385 . S
C531 H517 0.931 . S
C531 C530 1.385 . S
C531 C532 1.389 . S
C532 C531 1.389 . S
C532 C533 1.387 . S
C533 H518 0.930 . S
C533 C528 1.390 . S
C533 C532 1.387 . S
H534 C546 0.930 . S
H535 C548 0.930 1_455 S
H536 C549 0.930 . S
H537 C553 0.959 . S
H538 C553 0.959 . S
H539 C553 0.961 . S
H540 C554 0.960 . S
H541 C554 0.961 . S
H542 C554 0.959 . S
H543 C557 0.929 . S
H544 C558 0.931 1_565 S
H545 C560 0.930 . S
C546 H534 0.930 . S
C546 C547 1.399 . S
C546 C551 1.399 . S
C547 C546 1.399 . S
C547 C548 1.376 . S
C548 H535 0.930 1_655 S
C548 C547 1.376 . S
C548 C549 1.388 . S
C549 H536 0.930 . S
C549 C548 1.388 . S
C549 C550 1.390 . S
C550 C549 1.390 . S
C550 C551 1.394 . S
C550 C556 1.465 . S
C551 C546 1.399 . S
C551 C550 1.394 . S
C551 C552 1.516 . S
C552 C551 1.516 . S
C552 C553 1.502 . S
C552 C554 1.561 . S
C552 C555 1.526 . S
C553 H537 0.959 . S
C553 H538 0.959 . S
C553 H539 0.961 . S
C553 C552 1.502 . S
C554 H540 0.960 . S
C554 H541 0.961 . S
C554 H542 0.959 . S
C554 C552 1.561 . S
C555 C552 1.526 . S
C555 C556 1.396 . S
C555 C560 1.390 . S
C556 C550 1.465 . S
C556 C555 1.396 . S
C556 C557 1.399 . S
C557 H543 0.929 . S
C557 C556 1.399 . S
C557 C558 1.385 . S
C558 H544 0.931 1_545 S
C558 C557 1.385 . S
C558 C559 1.389 . S
C559 C558 1.389 . S
C559 C560 1.387 . S
C560 H545 0.930 . S
C560 C555 1.390 . S
C560 C559 1.387 . S
H561 C573 0.930 . S
H562 C575 0.930 1_545 S
H563 C576 0.930 . S
H564 C580 0.959 . S
H565 C580 0.959 . S
H566 C580 0.961 . S
H567 C581 0.960 . S
H568 C581 0.961 . S
H569 C581 0.959 . S
H570 C584 0.929 . S
H571 C585 0.931 . S
H572 C587 0.930 . S
C573 H561 0.930 . S
C573 C574 1.399 . S
C573 C578 1.399 . S
C574 C573 1.399 . S
C574 C575 1.376 . S
C575 H562 0.930 1_565 S
C575 C574 1.376 . S
C575 C576 1.388 . S
C576 H563 0.930 . S
C576 C575 1.388 . S
C576 C577 1.390 . S
C577 C576 1.390 . S
C577 C578 1.394 . S
C577 C583 1.465 . S
C578 C573 1.399 . S
C578 C577 1.394 . S
C578 C579 1.516 . S
C579 C578 1.516 . S
C579 C580 1.502 . S
C579 C581 1.561 . S
C579 C582 1.526 . S
C580 H564 0.959 . S
C580 H565 0.959 . S
C580 H566 0.961 . S
C580 C579 1.502 . S
C581 H567 0.960 . S
C581 H568 0.961 . S
C581 H569 0.959 . S
C581 C579 1.561 . S
C582 C579 1.526 . S
C582 C583 1.396 . S
C582 C587 1.390 . S
C583 C577 1.465 . S
C583 C582 1.396 . S
C583 C584 1.399 . S
C584 H570 0.929 . S
C584 C583 1.399 . S
C584 C585 1.385 . S
C585 H571 0.931 . S
C585 C584 1.385 . S
C585 C586 1.389 . S
C586 C585 1.389 . S
C586 C587 1.387 . S
C587 H572 0.930 . S
C587 C582 1.390 . S
C587 C586 1.387 . S
H588 C600 0.930 . S
H589 C602 0.930 . S
H590 C603 0.930 . S
H591 C607 0.959 . S
H592 C607 0.959 . S
H593 C607 0.961 . S
H594 C608 0.960 . S
H595 C608 0.961 . S
H596 C608 0.959 . S
H597 C611 0.929 . S
H598 C612 0.931 . S
H599 C614 0.930 . S
C600 H588 0.930 . S
C600 C601 1.399 . S
C600 C605 1.399 . S
C601 C600 1.399 . S
C601 C602 1.376 . S
C602 H589 0.930 . S
C602 C601 1.376 . S
C602 C603 1.388 . S
C603 H590 0.930 . S
C603 C602 1.388 . S
C603 C604 1.390 . S
C604 C603 1.390 . S
C604 C605 1.394 . S
C604 C610 1.465 . S
C605 C600 1.399 . S
C605 C604 1.394 . S
C605 C606 1.516 . S
C606 C605 1.516 . S
C606 C607 1.502 . S
C606 C608 1.561 . S
C606 C609 1.526 . S
C607 H591 0.959 . S
C607 H592 0.959 . S
C607 H593 0.961 . S
C607 C606 1.502 . S
C608 H594 0.960 . S
C608 H595 0.961 . S
C608 H596 0.959 . S
C608 C606 1.561 . S
C609 C606 1.526 . S
C609 C610 1.396 . S
C609 C614 1.390 . S
C610 C604 1.465 . S
C610 C609 1.396 . S
C610 C611 1.399 . S
C611 H597 0.929 . S
C611 C610 1.399 . S
C611 C612 1.385 . S
C612 H598 0.931 . S
C612 C611 1.385 . S
C612 C613 1.389 . S
C613 C612 1.389 . S
C613 C614 1.387 . S
C614 H599 0.930 . S
C614 C609 1.390 . S
C614 C613 1.387 . S
H615 C627 0.930 . S
H616 C629 0.930 1_545 S
H617 C630 0.930 . S
H618 C634 0.959 . S
H619 C634 0.959 . S
H620 C634 0.961 . S
H621 C635 0.960 . S
H622 C635 0.961 . S
H623 C635 0.959 . S
H624 C638 0.929 . S
H625 C639 0.931 . S
H626 C641 0.930 . S
C627 H615 0.930 . S
C627 C628 1.399 . S
C627 C632 1.399 . S
C628 C627 1.399 . S
C628 C629 1.376 . S
C629 H616 0.930 1_565 S
C629 C628 1.376 . S
C629 C630 1.388 . S
C630 H617 0.930 . S
C630 C629 1.388 . S
C630 C631 1.390 . S
C631 C630 1.390 . S
C631 C632 1.394 . S
C631 C637 1.465 . S
C632 C627 1.399 . S
C632 C631 1.394 . S
C632 C633 1.516 . S
C633 C632 1.516 . S
C633 C634 1.502 . S
C633 C635 1.561 . S
C633 C636 1.526 . S
C634 H618 0.959 . S
C634 H619 0.959 . S
C634 H620 0.961 . S
C634 C633 1.502 . S
C635 H621 0.960 . S
C635 H622 0.961 . S
C635 H623 0.959 . S
C635 C633 1.561 . S
C636 C633 1.526 . S
C636 C637 1.396 . S
C636 C641 1.390 . S
C637 C631 1.465 . S
C637 C636 1.396 . S
C637 C638 1.399 . S
C638 H624 0.929 . S
C638 C637 1.399 . S
C638 C639 1.385 . S
C639 H625 0.931 . S
C639 C638 1.385 . S
C639 C640 1.389 . S
C640 C639 1.389 . S
C640 C641 1.387 . S
C641 H626 0.930 . S
C641 C636 1.390 . S
C641 C640 1.387 . S
H642 C654 0.930 . S
H643 C656 0.930 . S
H644 C657 0.930 . S
H645 C661 0.959 . S
H646 C661 0.959 . S
H647 C661 0.961 . S
H648 C662 0.960 . S
H649 C662 0.961 . S
H650 C662 0.959 . S
H651 C665 0.929 . S
H652 C666 0.931 . S
H653 C668 0.930 . S
C654 H642 0.930 . S
C654 C655 1.399 . S
C654 C659 1.399 . S
C655 C654 1.399 . S
C655 C656 1.376 . S
C656 H643 0.930 . S
C656 C655 1.376 . S
C656 C657 1.388 . S
C657 H644 0.930 . S
C657 C656 1.388 . S
C657 C658 1.390 . S
C658 C657 1.390 . S
C658 C659 1.394 . S
C658 C664 1.465 . S
C659 C654 1.399 . S
C659 C658 1.394 . S
C659 C660 1.516 . S
C660 C659 1.516 . S
C660 C661 1.502 . S
C660 C662 1.561 . S
C660 C663 1.526 . S
C661 H645 0.959 . S
C661 H646 0.959 . S
C661 H647 0.961 . S
C661 C660 1.502 . S
C662 H648 0.960 . S
C662 H649 0.961 . S
C662 H650 0.959 . S
C662 C660 1.561 . S
C663 C660 1.526 . S
C663 C664 1.396 . S
C663 C668 1.390 . S
C664 C658 1.465 . S
C664 C663 1.396 . S
C664 C665 1.399 . S
C665 H651 0.929 . S
C665 C664 1.399 . S
C665 C666 1.385 . S
C666 H652 0.931 . S
C666 C665 1.385 . S
C666 C667 1.389 . S
C667 C666 1.389 . S
C667 C668 1.387 . S
C668 H653 0.930 . S
C668 C663 1.390 . S
C668 C667 1.387 . S
H669 C681 0.930 . S
H670 C683 0.931 1_455 S
H671 C684 0.930 . S
H672 C688 0.959 . S
H673 C688 0.959 . S
H674 C688 0.961 . S
H675 C689 0.960 . S
H676 C689 0.961 . S
H677 C689 0.959 1_455 S
H678 C692 0.929 . S
H679 C693 0.931 . S
H680 C695 0.930 1_655 S
C681 H669 0.930 . S
C681 C682 1.399 . S
C681 C686 1.399 . S
C682 C681 1.399 . S
C682 C683 1.381 . S
C683 H670 0.931 1_655 S
C683 C682 1.381 . S
C683 C684 1.383 1_655 S
C684 H671 0.930 . S
C684 C683 1.383 1_455 S
C684 C685 1.390 . S
C685 C684 1.390 . S
C685 C686 1.394 1_455 S
C685 C691 1.465 . S
C686 C681 1.399 . S
C686 C685 1.394 1_655 S
C686 C687 1.516 . S
C687 C686 1.516 . S
C687 C688 1.502 . S
C687 C689 1.561 . S
C687 C690 1.526 1_655 S
C688 H672 0.959 . S
C688 H673 0.959 . S
C688 H674 0.961 . S
C688 C687 1.502 . S
C689 H675 0.960 . S
C689 H676 0.961 . S
C689 H677 0.959 1_655 S
C689 C687 1.561 . S
C690 C687 1.526 1_455 S
C690 C691 1.396 . S
C690 C695 1.390 . S
C691 C685 1.465 . S
C691 C690 1.396 . S
C691 C692 1.399 . S
C692 H678 0.929 . S
C692 C691 1.399 . S
C692 C693 1.385 . S
C693 H679 0.931 . S
C693 C692 1.385 . S
C693 C694 1.389 . S
C694 C693 1.389 . S
C694 C695 1.387 . S
C695 H680 0.930 1_455 S
C695 C690 1.390 . S
C695 C694 1.387 . S
H696 C708 0.930 . S
H697 C710 0.930 . S
H698 C711 0.930 . S
H699 C715 0.959 . S
H700 C715 0.959 . S
H701 C715 0.997 . S
H702 C716 0.960 . S
H703 C716 0.961 . S
H704 C716 0.959 . S
H705 C719 0.929 . S
H706 C720 0.931 . S
H707 C722 0.930 1_545 S
C708 H696 0.930 . S
C708 C709 1.399 . S
C708 C713 1.399 . S
C709 C708 1.399 . S
C709 C710 1.376 1_545 S
C710 H697 0.930 . S
C710 C709 1.376 1_565 S
C710 C711 1.388 . S
C711 H698 0.930 . S
C711 C710 1.388 . S
C711 C712 1.390 . S
C712 C711 1.390 . S
C712 C713 1.394 1_565 S
C712 C718 1.465 1_554 S
C713 C708 1.399 . S
C713 C712 1.394 1_545 S
C713 C714 1.516 1_554 S
C714 C713 1.516 1_556 S
C714 C715 1.502 . S
C714 C716 1.561 . S
C714 C717 1.526 . S
C715 H699 0.959 . S
C715 H700 0.959 . S
C715 H701 0.997 . S
C715 C714 1.502 . S
C716 H702 0.960 . S
C716 H703 0.961 . S
C716 H704 0.959 . S
C716 C714 1.561 . S
C717 C714 1.526 . S
C717 C718 1.396 1_545 S
C717 C722 1.390 1_545 S
C718 C712 1.465 1_556 S
C718 C717 1.396 1_565 S
C718 C719 1.399 . S
C719 H705 0.929 . S
C719 C718 1.399 . S
C719 C720 1.385 . S
C720 H706 0.931 . S
C720 C719 1.385 . S
C720 C721 1.389 . S
C721 C720 1.389 . S
C721 C722 1.387 . S
C722 H707 0.930 1_565 S
C722 C717 1.390 1_565 S
C722 C721 1.387 . S
H723 C735 0.930 . S
H724 C737 0.930 . S
H725 C738 0.930 . S
H726 C742 0.959 . S
H727 C742 0.959 . S
H728 C742 0.961 . S
H729 C743 0.960 . S
H730 C743 0.961 . S
H731 C743 0.959 . S
H732 C746 0.929 . S
H733 C747 0.931 . S
H734 C749 0.930 . S
C735 H723 0.930 . S
C735 C736 1.399 . S
C735 C740 1.399 . S
C736 C735 1.399 . S
C736 C737 1.376 . S
C737 H724 0.930 . S
C737 C736 1.376 . S
C737 C738 1.388 . S
C738 H725 0.930 . S
C738 C737 1.388 . S
C738 C739 1.390 . S
C739 C738 1.390 . S
C739 C740 1.394 . S
C739 C745 1.465 . S
C740 C735 1.399 . S
C740 C739 1.394 . S
C740 C741 1.516 . S
C741 C740 1.516 . S
C741 C742 1.502 . S
C741 C743 1.561 . S
C741 C744 1.526 . S
C742 H726 0.959 . S
C742 H727 0.959 . S
C742 H728 0.961 . S
C742 C741 1.502 . S
C743 H729 0.960 . S
C743 H730 0.961 . S
C743 H731 0.959 . S
C743 C741 1.561 . S
C744 C741 1.526 . S
C744 C745 1.396 . S
C744 C749 1.390 . S
C745 C739 1.465 . S
C745 C744 1.396 . S
C745 C746 1.399 . S
C746 H732 0.929 . S
C746 C745 1.399 . S
C746 C747 1.385 . S
C747 H733 0.931 . S
C747 C746 1.385 . S
C747 C748 1.389 . S
C748 C747 1.389 . S
C748 C749 1.387 . S
C749 H734 0.930 . S
C749 C744 1.390 . S
C749 C748 1.387 . S
H750 C762 0.930 . S
H751 C764 0.930 . S
H752 C765 0.930 . S
H753 C769 0.959 . S
H754 C769 0.959 . S
H755 C769 0.961 . S
H756 C770 0.960 . S
H757 C770 0.961 . S
H758 C770 0.959 1_655 S
H759 C773 0.929 . S
H760 C774 0.931 . S
H761 C776 0.930 1_455 S
C762 H750 0.930 . S
C762 C763 1.399 . S
C762 C767 1.399 . S
C763 C762 1.399 . S
C763 C764 1.376 1_455 S
C764 H751 0.930 . S
C764 C763 1.376 1_655 S
C764 C765 1.388 . S
C765 H752 0.930 . S
C765 C764 1.388 . S
C765 C766 1.390 . S
C766 C765 1.390 . S
C766 C767 1.394 1_655 S
C766 C772 1.465 . S
C767 C762 1.399 . S
C767 C766 1.394 1_455 S
C767 C768 1.516 . S
C768 C767 1.516 . S
C768 C769 1.502 . S
C768 C770 1.561 . S
C768 C771 1.526 . S
C769 H753 0.959 . S
C769 H754 0.959 . S
C769 H755 0.961 . S
C769 C768 1.502 . S
C770 H756 0.960 . S
C770 H757 0.961 . S
C770 H758 0.959 1_455 S
C770 C768 1.561 . S
C771 C768 1.526 . S
C771 C772 1.396 1_455 S
C771 C776 1.390 1_455 S
C772 C766 1.465 . S
C772 C771 1.396 1_655 S
C772 C773 1.399 . S
C773 H759 0.929 . S
C773 C772 1.399 . S
C773 C774 1.385 . S
C774 H760 0.931 . S
C774 C773 1.385 . S
C774 C775 1.389 . S
C775 C774 1.389 . S
C775 C776 1.387 . S
C776 H761 0.930 1_655 S
C776 C771 1.390 1_655 S
C776 C775 1.387 . S
H777 C789 0.930 . S
H778 C791 0.930 . S
H779 C792 0.930 . S
H780 C796 0.959 . S
H781 C796 0.959 . S
H782 C796 0.961 . S
H783 C797 0.960 . S
H784 C797 0.961 . S
H785 C797 0.959 . S
H786 C800 0.929 . S
H787 C801 0.931 . S
H788 C803 0.931 1_565 S
C789 H777 0.930 . S
C789 C790 1.399 . S
C789 C794 1.399 . S
C790 C789 1.399 . S
C790 C791 1.376 1_565 S
C791 H778 0.930 . S
C791 C790 1.376 1_545 S
C791 C792 1.388 . S
C792 H779 0.930 . S
C792 C791 1.388 . S
C792 C793 1.390 . S
C793 C792 1.390 . S
C793 C794 1.394 1_545 S
C793 C799 1.465 1_554 S
C794 C789 1.399 . S
C794 C793 1.394 1_565 S
C794 C795 1.516 1_554 S
C795 C794 1.516 1_556 S
C795 C796 1.502 . S
C795 C797 1.561 . S
C795 C798 1.526 . S
C796 H780 0.959 . S
C796 H781 0.959 . S
C796 H782 0.961 . S
C796 C795 1.502 . S
C797 H783 0.960 . S
C797 H784 0.961 . S
C797 H785 0.959 . S
C797 C795 1.561 . S
C798 C795 1.526 . S
C798 C799 1.396 1_565 S
C798 C803 1.390 1_565 S
C799 C793 1.465 1_556 S
C799 C798 1.396 1_545 S
C799 C800 1.399 . S
C800 H786 0.929 . S
C800 C799 1.399 . S
C800 C801 1.385 . S
C801 H787 0.931 . S
C801 C800 1.385 . S
C801 C802 1.389 . S
C802 C801 1.389 . S
C802 C803 1.386 . S
C803 H788 0.931 1_545 S
C803 C798 1.390 1_545 S
C803 C802 1.386 . S
C169 C148 1.792 . S
C181 C3 1.809 . S
C196 C16 1.788 . S
C208 C81 1.765 . S
C223 C31 1.770 . S
C235 C94 1.769 . S
C250 C44 1.805 . S
C262 C107 1.804 . S
C277 C122 1.779 . S
C289 C55 1.765 . S
C304 C68 1.781 . S
C316 C135 1.764 . S
C331 C43 1.429 . S
C343 C10 1.461 . S
C358 C62 1.454 . S
C370 C23 1.436 . S
C385 C75 1.431 . S
C397 C30 1.459 . S
C412 C88 1.456 . S
C424 C121 1.434 . S
C439 C101 1.458 . S
C451 C134 1.433 . S
C466 C114 1.432 . S
C478 C147 1.458 . S
C493 C109 0.557 . S
C505 C5 0.505 . S
C520 C18 0.575 . S
C532 C120 0.521 . S
C547 C133 0.518 . S
C559 C29 0.527 . S
C574 C146 0.553 . S
C586 C42 0.505 . S
C601 C83 0.548 . S
C613 C57 0.506 . S
C628 C70 0.552 . S
C640 C96 0.505 . S
C655 C127 1.613 . S
C667 C4 1.658 . S
C682 C17 1.613 . S
C694 C140 1.656 . S
C709 C153 1.625 . S
C721 C36 1.662 . S
C736 C49 1.638 . S
C748 C82 1.653 . S
C763 C56 1.612 . S
C775 C95 1.660 . S
C790 C108 1.621 . S
C802 C69 1.664 . S
