# Generated by pormake.
# Topology ull, (4)-cn, num edge types: 1
# Building blocks:
#     Node 0, Type 0, BuildingBlock: NAHDIM_clean_sbu_0, # of connection points: 4
#     Node 1, Type 0, BuildingBlock: NAHDIM_clean_sbu_0, # of connection points: 4
#     Node 2, Type 0, BuildingBlock: NAHDIM_clean_sbu_0, # of connection points: 4
#     Node 3, Type 0, BuildingBlock: NAHDIM_clean_sbu_0, # of connection points: 4
#     Node 4, Type 0, BuildingBlock: NAHDIM_clean_sbu_0, # of connection points: 4
#     Node 5, Type 0, BuildingBlock: NAHDIM_clean_sbu_0, # of connection points: 4
#     Node 6, Type 0, BuildingBlock: NAHDIM_clean_sbu_0, # of connection points: 4
#     Node 7, Type 0, BuildingBlock: NAHDIM_clean_sbu_0, # of connection points: 4
#     Node 8, Type 0, BuildingBlock: NAHDIM_clean_sbu_0, # of connection points: 4
#     Node 9, Type 0, BuildingBlock: NAHDIM_clean_sbu_0, # of connection points: 4
#     Node 10, Type 0, BuildingBlock: NAHDIM_clean_sbu_0, # of connection points: 4
#     Node 11, Type 0, BuildingBlock: NAHDIM_clean_sbu_0, # of connection points: 4
#     Node 12, Type 0, BuildingBlock: NAHDIM_clean_sbu_0, # of connection points: 4
#     Node 13, Type 0, BuildingBlock: NAHDIM_clean_sbu_0, # of connection points: 4
#     Node 14, Type 0, BuildingBlock: NAHDIM_clean_sbu_0, # of connection points: 4
#     Node 15, Type 0, BuildingBlock: NAHDIM_clean_sbu_0, # of connection points: 4
#     Node 16, Type 0, BuildingBlock: NAHDIM_clean_sbu_0, # of connection points: 4
#     Node 17, Type 0, BuildingBlock: NAHDIM_clean_sbu_0, # of connection points: 4
#     Node 18, Type 0, BuildingBlock: NAHDIM_clean_sbu_0, # of connection points: 4
#     Node 19, Type 0, BuildingBlock: NAHDIM_clean_sbu_0, # of connection points: 4
#     Node 20, Type 0, BuildingBlock: NAHDIM_clean_sbu_0, # of connection points: 4
#     Node 21, Type 0, BuildingBlock: NAHDIM_clean_sbu_0, # of connection points: 4
#     Node 22, Type 0, BuildingBlock: NAHDIM_clean_sbu_0, # of connection points: 4
#     Node 23, Type 0, BuildingBlock: NAHDIM_clean_sbu_0, # of connection points: 4
#     Node 24, Type 0, BuildingBlock: NAHDIM_clean_sbu_0, # of connection points: 4
#     Node 25, Type 0, BuildingBlock: NAHDIM_clean_sbu_0, # of connection points: 4
#     Node 26, Type 0, BuildingBlock: NAHDIM_clean_sbu_0, # of connection points: 4
#     Node 27, Type 0, BuildingBlock: NAHDIM_clean_sbu_0, # of connection points: 4
#     Node 28, Type 0, BuildingBlock: NAHDIM_clean_sbu_0, # of connection points: 4
#     Node 29, Type 0, BuildingBlock: NAHDIM_clean_sbu_0, # of connection points: 4
#     Node 30, Type 0, BuildingBlock: NAHDIM_clean_sbu_0, # of connection points: 4
#     Node 31, Type 0, BuildingBlock: NAHDIM_clean_sbu_0, # of connection points: 4
#     Node 32, Type 0, BuildingBlock: NAHDIM_clean_sbu_0, # of connection points: 4
#     Node 33, Type 0, BuildingBlock: NAHDIM_clean_sbu_0, # of connection points: 4
#     Node 34, Type 0, BuildingBlock: NAHDIM_clean_sbu_0, # of connection points: 4
#     Node 35, Type 0, BuildingBlock: NAHDIM_clean_sbu_0, # of connection points: 4
#     Node 36, Type 0, BuildingBlock: NAHDIM_clean_sbu_0, # of connection points: 4
#     Node 37, Type 0, BuildingBlock: NAHDIM_clean_sbu_0, # of connection points: 4
#     Node 38, Type 0, BuildingBlock: NAHDIM_clean_sbu_0, # of connection points: 4
#     Node 39, Type 0, BuildingBlock: NAHDIM_clean_sbu_0, # of connection points: 4
#     Node 40, Type 0, BuildingBlock: NAHDIM_clean_sbu_0, # of connection points: 4
#     Node 41, Type 0, BuildingBlock: NAHDIM_clean_sbu_0, # of connection points: 4
#     Node 42, Type 0, BuildingBlock: NAHDIM_clean_sbu_0, # of connection points: 4
#     Node 43, Type 0, BuildingBlock: NAHDIM_clean_sbu_0, # of connection points: 4
#     Node 44, Type 0, BuildingBlock: NAHDIM_clean_sbu_0, # of connection points: 4
#     Node 45, Type 0, BuildingBlock: NAHDIM_clean_sbu_0, # of connection points: 4
#     Node 46, Type 0, BuildingBlock: NAHDIM_clean_sbu_0, # of connection points: 4
#     Node 47, Type 0, BuildingBlock: NAHDIM_clean_sbu_0, # of connection points: 4
#     Edge 48, Type (0, 0), BuildingBlock: UVAHIK_clean_linker_0, # of connection points: 2
#     Edge 49, Type (0, 0), BuildingBlock: UVAHIK_clean_linker_0, # of connection points: 2
#     Edge 50, Type (0, 0), BuildingBlock: UVAHIK_clean_linker_0, # of connection points: 2
#     Edge 51, Type (0, 0), BuildingBlock: UVAHIK_clean_linker_0, # of connection points: 2
#     Edge 52, Type (0, 0), BuildingBlock: UVAHIK_clean_linker_0, # of connection points: 2
#     Edge 53, Type (0, 0), BuildingBlock: UVAHIK_clean_linker_0, # of connection points: 2
#     Edge 54, Type (0, 0), BuildingBlock: UVAHIK_clean_linker_0, # of connection points: 2
#     Edge 55, Type (0, 0), BuildingBlock: UVAHIK_clean_linker_0, # of connection points: 2
#     Edge 56, Type (0, 0), BuildingBlock: UVAHIK_clean_linker_0, # of connection points: 2
#     Edge 57, Type (0, 0), BuildingBlock: UVAHIK_clean_linker_0, # of connection points: 2
#     Edge 58, Type (0, 0), BuildingBlock: UVAHIK_clean_linker_0, # of connection points: 2
#     Edge 59, Type (0, 0), BuildingBlock: UVAHIK_clean_linker_0, # of connection points: 2
#     Edge 60, Type (0, 0), BuildingBlock: UVAHIK_clean_linker_0, # of connection points: 2
#     Edge 61, Type (0, 0), BuildingBlock: UVAHIK_clean_linker_0, # of connection points: 2
#     Edge 62, Type (0, 0), BuildingBlock: UVAHIK_clean_linker_0, # of connection points: 2
#     Edge 63, Type (0, 0), BuildingBlock: UVAHIK_clean_linker_0, # of connection points: 2
#     Edge 64, Type (0, 0), BuildingBlock: UVAHIK_clean_linker_0, # of connection points: 2
#     Edge 65, Type (0, 0), BuildingBlock: UVAHIK_clean_linker_0, # of connection points: 2
#     Edge 66, Type (0, 0), BuildingBlock: UVAHIK_clean_linker_0, # of connection points: 2
#     Edge 67, Type (0, 0), BuildingBlock: UVAHIK_clean_linker_0, # of connection points: 2
#     Edge 68, Type (0, 0), BuildingBlock: UVAHIK_clean_linker_0, # of connection points: 2
#     Edge 69, Type (0, 0), BuildingBlock: UVAHIK_clean_linker_0, # of connection points: 2
#     Edge 70, Type (0, 0), BuildingBlock: UVAHIK_clean_linker_0, # of connection points: 2
#     Edge 71, Type (0, 0), BuildingBlock: UVAHIK_clean_linker_0, # of connection points: 2
#     Edge 72, Type (0, 0), BuildingBlock: UVAHIK_clean_linker_0, # of connection points: 2
#     Edge 73, Type (0, 0), BuildingBlock: UVAHIK_clean_linker_0, # of connection points: 2
#     Edge 74, Type (0, 0), BuildingBlock: UVAHIK_clean_linker_0, # of connection points: 2
#     Edge 75, Type (0, 0), BuildingBlock: UVAHIK_clean_linker_0, # of connection points: 2
#     Edge 76, Type (0, 0), BuildingBlock: UVAHIK_clean_linker_0, # of connection points: 2
#     Edge 77, Type (0, 0), BuildingBlock: UVAHIK_clean_linker_0, # of connection points: 2
#     Edge 78, Type (0, 0), BuildingBlock: UVAHIK_clean_linker_0, # of connection points: 2
#     Edge 79, Type (0, 0), BuildingBlock: UVAHIK_clean_linker_0, # of connection points: 2
#     Edge 80, Type (0, 0), BuildingBlock: UVAHIK_clean_linker_0, # of connection points: 2
#     Edge 81, Type (0, 0), BuildingBlock: UVAHIK_clean_linker_0, # of connection points: 2
#     Edge 82, Type (0, 0), BuildingBlock: UVAHIK_clean_linker_0, # of connection points: 2
#     Edge 83, Type (0, 0), BuildingBlock: UVAHIK_clean_linker_0, # of connection points: 2
#     Edge 84, Type (0, 0), BuildingBlock: UVAHIK_clean_linker_0, # of connection points: 2
#     Edge 85, Type (0, 0), BuildingBlock: UVAHIK_clean_linker_0, # of connection points: 2
#     Edge 86, Type (0, 0), BuildingBlock: UVAHIK_clean_linker_0, # of connection points: 2
#     Edge 87, Type (0, 0), BuildingBlock: UVAHIK_clean_linker_0, # of connection points: 2
#     Edge 88, Type (0, 0), BuildingBlock: UVAHIK_clean_linker_0, # of connection points: 2
#     Edge 89, Type (0, 0), BuildingBlock: UVAHIK_clean_linker_0, # of connection points: 2
#     Edge 90, Type (0, 0), BuildingBlock: UVAHIK_clean_linker_0, # of connection points: 2
#     Edge 91, Type (0, 0), BuildingBlock: UVAHIK_clean_linker_0, # of connection points: 2
#     Edge 92, Type (0, 0), BuildingBlock: UVAHIK_clean_linker_0, # of connection points: 2
#     Edge 93, Type (0, 0), BuildingBlock: UVAHIK_clean_linker_0, # of connection points: 2
#     Edge 94, Type (0, 0), BuildingBlock: UVAHIK_clean_linker_0, # of connection points: 2
#     Edge 95, Type (0, 0), BuildingBlock: UVAHIK_clean_linker_0, # of connection points: 2
#     Edge 96, Type (0, 0), BuildingBlock: UVAHIK_clean_linker_0, # of connection points: 2
#     Edge 97, Type (0, 0), BuildingBlock: UVAHIK_clean_linker_0, # of connection points: 2
#     Edge 98, Type (0, 0), BuildingBlock: UVAHIK_clean_linker_0, # of connection points: 2
#     Edge 99, Type (0, 0), BuildingBlock: UVAHIK_clean_linker_0, # of connection points: 2
#     Edge 100, Type (0, 0), BuildingBlock: UVAHIK_clean_linker_0, # of connection points: 2
#     Edge 101, Type (0, 0), BuildingBlock: UVAHIK_clean_linker_0, # of connection points: 2
#     Edge 102, Type (0, 0), BuildingBlock: UVAHIK_clean_linker_0, # of connection points: 2
#     Edge 103, Type (0, 0), BuildingBlock: UVAHIK_clean_linker_0, # of connection points: 2
#     Edge 104, Type (0, 0), BuildingBlock: UVAHIK_clean_linker_0, # of connection points: 2
#     Edge 105, Type (0, 0), BuildingBlock: UVAHIK_clean_linker_0, # of connection points: 2
#     Edge 106, Type (0, 0), BuildingBlock: UVAHIK_clean_linker_0, # of connection points: 2
#     Edge 107, Type (0, 0), BuildingBlock: UVAHIK_clean_linker_0, # of connection points: 2
#     Edge 108, Type (0, 0), BuildingBlock: UVAHIK_clean_linker_0, # of connection points: 2
#     Edge 109, Type (0, 0), BuildingBlock: UVAHIK_clean_linker_0, # of connection points: 2
#     Edge 110, Type (0, 0), BuildingBlock: UVAHIK_clean_linker_0, # of connection points: 2
#     Edge 111, Type (0, 0), BuildingBlock: UVAHIK_clean_linker_0, # of connection points: 2
#     Edge 112, Type (0, 0), BuildingBlock: UVAHIK_clean_linker_0, # of connection points: 2
#     Edge 113, Type (0, 0), BuildingBlock: UVAHIK_clean_linker_0, # of connection points: 2
#     Edge 114, Type (0, 0), BuildingBlock: UVAHIK_clean_linker_0, # of connection points: 2
#     Edge 115, Type (0, 0), BuildingBlock: UVAHIK_clean_linker_0, # of connection points: 2
#     Edge 116, Type (0, 0), BuildingBlock: UVAHIK_clean_linker_0, # of connection points: 2
#     Edge 117, Type (0, 0), BuildingBlock: UVAHIK_clean_linker_0, # of connection points: 2
#     Edge 118, Type (0, 0), BuildingBlock: UVAHIK_clean_linker_0, # of connection points: 2
#     Edge 119, Type (0, 0), BuildingBlock: UVAHIK_clean_linker_0, # of connection points: 2
#     Edge 120, Type (0, 0), BuildingBlock: UVAHIK_clean_linker_0, # of connection points: 2
#     Edge 121, Type (0, 0), BuildingBlock: UVAHIK_clean_linker_0, # of connection points: 2
#     Edge 122, Type (0, 0), BuildingBlock: UVAHIK_clean_linker_0, # of connection points: 2
#     Edge 123, Type (0, 0), BuildingBlock: UVAHIK_clean_linker_0, # of connection points: 2
#     Edge 124, Type (0, 0), BuildingBlock: UVAHIK_clean_linker_0, # of connection points: 2
#     Edge 125, Type (0, 0), BuildingBlock: UVAHIK_clean_linker_0, # of connection points: 2
#     Edge 126, Type (0, 0), BuildingBlock: UVAHIK_clean_linker_0, # of connection points: 2
#     Edge 127, Type (0, 0), BuildingBlock: UVAHIK_clean_linker_0, # of connection points: 2
#     Edge 128, Type (0, 0), BuildingBlock: UVAHIK_clean_linker_0, # of connection points: 2
#     Edge 129, Type (0, 0), BuildingBlock: UVAHIK_clean_linker_0, # of connection points: 2
#     Edge 130, Type (0, 0), BuildingBlock: UVAHIK_clean_linker_0, # of connection points: 2
#     Edge 131, Type (0, 0), BuildingBlock: UVAHIK_clean_linker_0, # of connection points: 2
#     Edge 132, Type (0, 0), BuildingBlock: UVAHIK_clean_linker_0, # of connection points: 2
#     Edge 133, Type (0, 0), BuildingBlock: UVAHIK_clean_linker_0, # of connection points: 2
#     Edge 134, Type (0, 0), BuildingBlock: UVAHIK_clean_linker_0, # of connection points: 2
#     Edge 135, Type (0, 0), BuildingBlock: UVAHIK_clean_linker_0, # of connection points: 2
#     Edge 136, Type (0, 0), BuildingBlock: UVAHIK_clean_linker_0, # of connection points: 2
#     Edge 137, Type (0, 0), BuildingBlock: UVAHIK_clean_linker_0, # of connection points: 2
#     Edge 138, Type (0, 0), BuildingBlock: UVAHIK_clean_linker_0, # of connection points: 2
#     Edge 139, Type (0, 0), BuildingBlock: UVAHIK_clean_linker_0, # of connection points: 2
#     Edge 140, Type (0, 0), BuildingBlock: UVAHIK_clean_linker_0, # of connection points: 2
#     Edge 141, Type (0, 0), BuildingBlock: UVAHIK_clean_linker_0, # of connection points: 2
#     Edge 142, Type (0, 0), BuildingBlock: UVAHIK_clean_linker_0, # of connection points: 2
#     Edge 143, Type (0, 0), BuildingBlock: UVAHIK_clean_linker_0, # of connection points: 2
# Relax obj value: 0.161
# Max RMSD: 0.219
# Mean RMSD: 0.213
data_MOF--net-ull--node1-NAHDIM_clean_sbu_0--edge1-UVAHIK_clean_linker_0
_symmetry_space_group_name_H-M    P1
_symmetry_Int_Tables_number       1
_symmetry_cell_setting            triclinic
loop_
_symmetry_equiv_pos_as_xyz
'x, y, z'
_cell_length_a     76.099938
_cell_length_b     77.432173
_cell_length_c     77.481831
_cell_angle_alpha  90.026948
_cell_angle_beta   90.011243
_cell_angle_gamma 89.990574
loop_
_atom_site_label
_atom_site_type_symbol
_atom_site_fract_x
_atom_site_fract_y
_atom_site_fract_z
_atom_type_partial_charge
C0 C 0.03134 0.3675 0.15223 0.0
O1 O 0.02472 0.38278 0.15565 0.0
O2 O 0.00754 0.37563 0.19144 0.0
Zn3 Zn 0.00326 0.35642 0.17449 0.0
O4 O 0.98167 0.36019 0.1601 0.0
C5 C 0.01402 0.32931 0.19659 0.0
O6 O 0.02871 0.33819 0.19569 0.0
O7 O 0.02424 0.35419 0.15881 0.0
C8 C 0.96637 0.35707 0.16587 0.0
O9 O 0.96455 0.35209 0.18198 0.0
C10 C 0.00309 0.39139 0.19013 0.0
O11 O 0.99426 0.39658 0.17651 0.0
O12 O 0.00075 0.33451 0.18811 0.0
C13 C 0.60077 -0.00082 0.20133 0.0
O14 O 0.61263 0.98871 0.20782 0.0
O15 O 0.62693 0.01965 0.15481 0.0
Zn16 Zn 0.62491 0.00082 0.17248 0.0
O17 O 0.64585 0.0007 0.18832 0.0
C18 C 0.63136 0.9647 0.16325 0.0
O19 O 0.6419 0.96459 0.17668 0.0
O20 O 0.60313 0.00544 0.18635 0.0
C21 C 0.66154 0.00283 0.18315 0.0
O22 O 0.66454 0.00533 0.16664 0.0
C23 C 0.631 0.03518 0.15832 0.0
O24 O 0.63479 0.03941 0.17431 0.0
O25 O 0.62284 0.97835 0.15963 0.0
C26 C 0.95924 0.63406 0.15272 0.0
O27 O 0.96459 0.61876 0.15776 0.0
O28 O 0.98863 0.62523 0.18759 0.0
Zn29 Zn 0.99038 0.64523 0.17104 0.0
O30 O 0.01091 0.64248 0.15501 0.0
C31 C 0.98377 0.66902 0.1982 0.0
O32 O 0.97149 0.65757 0.20152 0.0
O33 O 0.9681 0.64732 0.15697 0.0
C34 C 0.02656 0.64444 0.16039 0.0
O35 O 0.02925 0.64777 0.17681 0.0
C36 C 0.99277 0.60966 0.18436 0.0
O37 O -0.00096 0.6056 0.16908 0.0
O38 O 0.99366 0.66676 0.18519 0.0
C39 C 0.39945 0.00129 0.20445 0.0
O40 O 0.38696 0.01025 0.21199 0.0
O41 O 0.37221 0.97923 0.15986 0.0
Zn42 Zn 0.37458 -0.00064 0.17609 0.0
O43 O 0.35432 -0.00115 0.19284 0.0
C44 C 0.38276 0.02161 0.14788 0.0
O45 O 0.39152 0.00782 0.14301 0.0
O46 O 0.39722 0.99609 0.18905 0.0
C47 C 0.34565 0.01222 0.1971 0.0
O48 O 0.34979 0.02719 0.19026 0.0
C49 C 0.35943 0.97802 0.14938 0.0
O50 O 0.3473 0.99009 0.14934 0.0
O51 O 0.37463 0.02135 0.16219 0.0
C52 C 0.02492 0.62622 0.84918 0.0
O53 O 0.01419 0.61292 0.84928 0.0
O54 O 0.00179 0.6142 0.81164 0.0
Zn55 Zn 4e-05 0.63679 0.82434 0.0
O56 O 0.97874 0.63739 0.83965 0.0
C57 C 0.01034 0.65776 0.79544 0.0
O58 O 0.0229 0.64617 0.79433 0.0
O59 O 0.02158 0.63885 0.83923 0.0
C60 C 0.96342 0.64042 0.83387 0.0
O61 O 0.96123 0.64282 0.81722 0.0
C62 C 0.99435 0.61107 0.79729 0.0
O63 O 0.98419 0.62288 0.79031 0.0
O64 O -0.00097 0.65647 0.80743 0.0
C65 C 0.40264 0.99197 0.78585 0.0
O66 O 0.38904 0.98475 0.7783 0.0
O67 O 0.38007 0.00992 0.83434 0.0
Zn68 Zn 0.38032 0.99127 0.81627 0.0
O69 O 0.3588 0.99279 0.80111 0.0
C70 C 0.37031 0.96641 0.84089 0.0
O71 O 0.35998 0.97936 0.84503 0.0
O72 O 0.40199 0.99514 0.80193 0.0
C73 C 0.34409 -0.00132 0.80619 0.0
O74 O 0.3425 0.00426 0.82213 0.0
C75 C 0.37817 0.02579 0.83061 0.0
O76 O 0.37575 0.03029 0.81444 0.0
O77 O 0.38084 0.9682 0.82828 0.0
C78 C 0.97349 0.36392 0.85059 0.0
O79 O 0.98397 0.37741 0.85093 0.0
O80 O 0.99597 0.37729 0.81299 0.0
Zn81 Zn -0.00189 0.35439 0.82501 0.0
O82 O 0.01956 0.35379 0.84007 0.0
C83 C 0.98688 0.33426 0.79615 0.0
O84 O 0.9742 0.34579 0.79622 0.0
O85 O 0.97687 0.35167 0.84018 0.0
C86 C 0.03475 0.34966 0.83464 0.0
O87 O 0.03691 0.34584 0.81825 0.0
C88 C 0.00402 0.38113 0.79916 0.0
O89 O 0.01492 0.36989 0.79232 0.0
O90 O -0.00112 0.33522 0.80751 0.0
C91 C 0.59113 0.00248 0.78497 0.0
O92 O 0.60438 0.00849 0.77593 0.0
O93 O 0.6187 0.98571 0.83058 0.0
Zn94 Zn 0.61543 0.00532 0.81388 0.0
O95 O 0.63591 0.00554 0.79737 0.0
C96 C 0.60516 0.028 0.84106 0.0
O97 O 0.59631 0.01419 0.84568 0.0
O98 O 0.59281 0.00075 0.8012 0.0
C99 C 0.6495 0.0147 0.80004 0.0
O100 O 0.65014 0.02462 0.81378 0.0
C101 C 0.63146 0.98517 0.84115 0.0
O102 O 0.64305 0.99774 0.84113 0.0
O103 O 0.61418 0.02755 0.82727 0.0
C104 C 0.19193 0.02225 0.3888 0.0
O105 O 0.17496 0.02491 0.38714 0.0
O106 O 0.16957 0.0292 0.35108 0.0
Zn107 Zn 0.18758 0.01047 0.35403 0.0
O108 O 0.20476 0.01176 0.33435 0.0
C109 C 0.16955 0.98014 0.36767 0.0
O110 O 0.17215 0.98764 0.38265 0.0
O111 O 0.20033 0.01538 0.37636 0.0
C112 C 0.21391 -0.00124 0.32993 0.0
O113 O 0.212 0.98416 0.33835 0.0
C114 C 0.15558 0.0275 0.3423 0.0
O115 O 0.15267 0.01294 0.33407 0.0
O116 O 0.17533 0.98731 0.35405 0.0
C117 C 0.94731 0.16058 0.3445 0.0
O118 O 0.9446 0.17729 0.34326 0.0
O119 O 0.98411 0.18407 0.36759 0.0
Zn120 Zn 0.98451 0.16981 0.3459 0.0
O121 O 0.00543 0.15397 0.34519 0.0
C122 C -0.00053 0.1941 0.32298 0.0
O123 O 0.0127 0.19164 0.3336 0.0
O124 O 0.96295 0.15491 0.34537 0.0
C125 C 0.01914 0.15565 0.3544 0.0
O126 O 0.02022 0.16858 0.36533 0.0
C127 C 0.97926 0.17762 0.3819 0.0
O128 O 0.97513 0.16116 0.38259 0.0
O129 O 0.98527 0.18583 0.32547 0.0
C130 C 0.78326 0.97365 0.3672 0.0
O131 O 0.77893 0.96831 0.35168 0.0
O132 O 0.82651 0.9709 0.34269 0.0
Zn133 Zn 0.80954 0.99034 0.34738 0.0
O134 O 0.79269 0.99285 0.32755 0.0
C135 C 0.81701 0.0273 0.34796 0.0
O136 O 0.80072 0.02895 0.34258 0.0
O137 O 0.79614 0.98396 0.36885 0.0
C138 C 0.79749 0.99621 0.31221 0.0
O139 O 0.81426 -0.00157 0.30888 0.0
C140 C 0.84218 0.97358 0.33769 0.0
O141 O 0.84737 0.98948 0.33476 0.0
O142 O 0.82308 0.01232 0.35101 0.0
C143 C 0.03702 0.8495 0.36114 0.0
O144 O 0.02715 0.84851 0.375 0.0
O145 O 0.00859 0.81242 0.36837 0.0
Zn146 Zn 0.00945 0.82822 0.34768 0.0
O147 O 0.98943 0.84511 0.34762 0.0
C148 C 0.01735 0.79986 0.32563 0.0
O149 O 0.0282 0.79641 0.33837 0.0
O150 O 0.03222 0.84159 0.34756 0.0
C151 C 0.97344 0.84041 0.34805 0.0
O152 O 0.9697 0.82388 0.34911 0.0
C153 C 0.00257 0.81601 0.38324 0.0
O154 O 0.99581 0.83134 0.38618 0.0
O155 O 0.00791 0.81337 0.32646 0.0
C156 C 0.21147 0.99366 0.62548 0.0
O157 O 0.21916 0.00474 0.63587 0.0
O158 O 0.1673 0.97519 0.65723 0.0
Zn159 Zn 0.18459 0.99403 0.6518 0.0
O160 O 0.20297 0.99534 0.67037 0.0
C161 C 0.15843 0.01642 0.63912 0.0
O162 O 0.15506 0.00235 0.63022 0.0
O163 O 0.1964 0.98782 0.62944 0.0
C164 C 0.19988 0.00025 0.68572 0.0
O165 O 0.18386 0.00495 0.68997 0.0
C166 C 0.17195 0.95943 0.65688 0.0
O167 O 0.18845 0.95561 0.65365 0.0
O168 O 0.17133 0.01637 0.64953 0.0
C169 C 0.02184 0.1436 0.63914 0.0
O170 O 0.00677 0.13795 0.6331 0.0
O171 O 0.00024 0.18729 0.62257 0.0
Zn172 Zn 0.00089 0.17376 0.64483 0.0
O173 O 0.97973 0.15842 0.64767 0.0
C174 C 0.98942 0.2021 0.66512 0.0
O175 O 0.97717 0.20207 0.65317 0.0
O176 O 0.0227 0.15885 0.64519 0.0
C177 C 0.96518 0.15998 0.63979 0.0
O178 O 0.96304 0.17268 0.62875 0.0
C179 C 0.00216 0.18053 0.60774 0.0
O180 O 0.00389 0.16371 0.60643 0.0
O181 O 0.00149 0.19077 0.66447 0.0
C182 C 0.80819 0.00539 0.61427 0.0
O183 O 0.82507 0.00888 0.61513 0.0
O184 O 0.82764 0.0204 0.65215 0.0
Zn185 Zn 0.81328 -0.00141 0.65027 0.0
O186 O 0.79527 0.99736 0.66933 0.0
C187 C 0.82484 0.96268 0.64806 0.0
O188 O 0.80835 0.95939 0.64427 0.0
O189 O 0.8004 -0.00018 0.62767 0.0
C190 C 0.79672 0.00559 0.68346 0.0
O191 O 0.81082 0.01496 0.68625 0.0
C192 C 0.84232 0.02089 0.65996 0.0
O193 O 0.84809 0.00692 0.66774 0.0
O194 O 0.82952 0.97816 0.65099 0.0
C195 C 0.96044 0.83302 0.65002 0.0
O196 O 0.9577 0.81701 0.64509 0.0
O197 O 0.99553 0.81108 0.62627 0.0
Zn198 Zn 0.99736 0.82308 0.64928 0.0
O199 O 0.0186 0.83846 0.65005 0.0
C200 C 0.99209 0.79048 0.66639 0.0
O201 O 0.98357 0.78695 0.65207 0.0
O202 O 0.97607 0.8381 0.6528 0.0
C203 C 0.03423 0.83274 0.65059 0.0
O204 O 0.03692 0.81598 0.65023 0.0
C205 C 0.98885 0.81844 0.61316 0.0
O206 O 0.98384 0.83463 0.61436 0.0
O207 O -0.00098 0.80531 0.66822 0.0
C208 C 0.40923 0.18613 0.00681 0.0
O209 O 0.40951 0.17015 0.01249 0.0
O210 O 0.37368 0.15758 0.01034 0.0
Zn211 Zn 0.37624 0.17536 0.99159 0.0
O212 O 0.35452 0.19004 0.99028 0.0
C213 C 0.38885 0.14895 0.96929 0.0
O214 O 0.39635 0.14411 0.98377 0.0
O215 O 0.39665 0.19098 0.99716 0.0
C216 C 0.33904 0.18389 0.99007 0.0
O217 O 0.33682 0.16708 0.99062 0.0
C218 C 0.36834 0.16068 0.02556 0.0
O219 O 0.36356 0.17645 0.02971 0.0
O220 O 0.3798 0.16275 0.96912 0.0
C221 C 0.40479 0.80674 0.99299 0.0
O222 O 0.40728 0.82343 0.99115 0.0
O223 O 0.36765 0.83229 0.97763 0.0
Zn224 Zn 0.36862 0.81706 -0.00132 0.0
O225 O 0.3467 0.80246 -9e-05 0.0
C226 C 0.35752 0.8436 0.02083 0.0
O227 O 0.34516 0.84383 0.009 0.0
O228 O 0.38956 0.80126 0.9969 0.0
C229 C 0.33298 0.80575 0.99113 0.0
O230 O 0.33284 0.81924 0.98086 0.0
C231 C 0.37293 0.82776 0.96274 0.0
O232 O 0.37951 0.81223 0.9605 0.0
O233 O 0.36982 0.83255 0.01954 0.0
C234 C 0.1919 0.37778 0.98304 0.0
O235 O 0.17543 0.37638 0.97815 0.0
O236 O 0.16782 0.34006 0.97723 0.0
Zn237 Zn 0.18575 0.34331 0.99599 0.0
O238 O 0.20304 0.32371 0.99559 0.0
C239 C 0.16832 0.35835 0.02561 0.0
O240 O 0.17271 0.37291 0.01806 0.0
O241 O 0.19898 0.36542 0.99132 0.0
C242 C 0.19849 0.30797 0.99436 0.0
O243 O 0.18171 0.30406 0.99363 0.0
C244 C 0.17216 0.33752 0.9616 0.0
O245 O 0.18889 0.33627 0.9576 0.0
O246 O 0.17295 0.34413 0.01877 0.0
C247 C 0.58594 0.19668 0.98823 0.0
O248 O 0.5824 0.1802 0.98617 0.0
O249 O 0.61831 0.16574 0.9773 0.0
Zn250 Zn 0.62044 0.18349 0.99615 0.0
O251 O 0.64369 0.19554 0.99394 0.0
C252 C 0.61051 0.15731 0.02019 0.0
O253 O 0.60168 0.1519 0.00666 0.0
O254 O 0.60122 0.2011 0.99316 0.0
C255 C 0.65804 0.18839 -0.00167 0.0
O256 O 0.65774 0.17264 0.00461 0.0
C257 C 0.62383 0.16798 0.962 0.0
O258 O 0.6316 0.18258 0.95794 0.0
O259 O 0.61917 0.17131 0.01913 0.0
C260 C 0.80265 0.61478 0.98062 0.0
O261 O 0.81916 0.61557 0.97575 0.0
O262 O 0.8273 0.65244 0.97352 0.0
Zn263 Zn 0.80901 0.64991 0.99207 0.0
O264 O 0.79147 0.6692 0.99036 0.0
C265 C 0.82525 0.63686 0.02333 0.0
O266 O 0.8207 0.62179 0.01696 0.0
O267 O 0.79583 0.62764 0.98832 0.0
C268 C 0.79568 0.68498 0.98854 0.0
O269 O 0.81237 0.68926 0.98799 0.0
C270 C 0.82321 0.65378 0.95768 0.0
O271 O 0.80654 0.654 0.95328 0.0
O272 O 0.82123 0.65051 0.01514 0.0
C273 C 0.60143 0.79692 0.99215 0.0
O274 O 0.61454 0.78938 0.98409 0.0
O275 O 0.6263 0.84234 0.0146 0.0
Zn276 Zn 0.62487 0.82685 0.99383 0.0
O277 O 0.64632 0.81159 0.99306 0.0
C278 C 0.63688 0.85225 0.97078 0.0
O279 O 0.64972 0.85196 0.98212 0.0
O280 O 0.60289 0.81264 0.99664 0.0
C281 C 0.65276 0.80608 0.97896 0.0
O282 O 0.64515 0.81028 0.96433 0.0
C283 C 0.63392 0.83791 0.02851 0.0
O284 O 0.6416 0.82274 0.02943 0.0
O285 O 0.62399 0.842 0.97278 0.0
C286 C 0.20978 0.62606 0.0189 0.0
O287 O 0.21503 0.64183 0.02243 0.0
O288 O 0.16312 0.64816 0.01993 0.0
Zn289 Zn 0.1823 0.64501 0.00237 0.0
O290 O 0.19801 0.6659 0.00205 0.0
C291 C 0.1607 0.62887 0.97704 0.0
O292 O 0.15886 0.61762 0.98961 0.0
O293 O 0.1962 0.62396 0.00957 0.0
C294 C 0.19458 0.67979 0.99402 0.0
O295 O 0.17989 0.68102 0.98519 0.0
C296 C 0.16655 0.65153 0.03562 0.0
O297 O 0.18297 0.65382 0.04032 0.0
O298 O 0.17084 0.64171 0.97925 0.0
C299 C 0.78611 0.35561 0.01659 0.0
O300 O 0.7805 0.33974 0.0189 0.0
O301 O 0.83515 0.33732 0.02318 0.0
Zn302 Zn 0.81697 0.3378 0.00443 0.0
O303 O 0.80313 0.31561 0.00453 0.0
C304 C 0.83899 0.35445 0.97979 0.0
O305 O 0.83974 0.36598 0.99222 0.0
O306 O 0.80109 0.358 0.00975 0.0
C307 C 0.80344 0.30447 0.99248 0.0
O308 O 0.81363 0.30703 0.97904 0.0
C309 C 0.83072 0.3357 0.0389 0.0
O310 O 0.81408 0.33337 0.04275 0.0
O311 O 0.82944 0.34115 0.98183 0.0
C312 C 0.52028 0.86181 0.64798 0.0
O313 O 0.51021 0.8756 0.64765 0.0
O314 O 0.49654 0.87587 0.68417 0.0
Zn315 Zn 0.4949 0.85246 0.673 0.0
O316 O 0.47353 0.85063 0.65792 0.0
C317 C 0.50666 0.8331 0.70223 0.0
O318 O 0.51947 0.84446 0.70161 0.0
O319 O 0.51632 0.84951 0.6581 0.0
C320 C 0.45806 0.84911 0.66389 0.0
O321 O 0.45566 0.8491 0.68068 0.0
C322 C 0.48953 0.87975 0.69854 0.0
O323 O 0.4799 0.8682 0.70658 0.0
O324 O 0.49441 0.83392 0.69112 0.0
C325 C 0.09621 0.49518 0.70158 0.0
O326 O 0.10937 0.48824 0.71008 0.0
O327 O 0.12242 0.51222 0.65477 0.0
Zn328 Zn 0.12015 0.49335 0.67243 0.0
O329 O 0.14076 0.49365 0.68875 0.0
C330 C 0.10835 0.4696 0.64717 0.0
O331 O 0.09837 0.48294 0.64344 0.0
O332 O 0.09778 0.4979 0.68548 0.0
C333 C 0.15615 0.49798 0.68408 0.0
O334 O 0.15897 0.50229 0.66792 0.0
C335 C 0.12445 0.52797 0.65894 0.0
O336 O 0.12589 0.5321 0.67533 0.0
O337 O 0.11889 0.47069 0.65984 0.0
C338 C 0.48398 0.141 0.64173 0.0
O339 O 0.49898 0.13433 0.63664 0.0
O340 O 0.50092 0.12163 0.68702 0.0
Zn341 Zn 0.50285 0.14409 0.67383 0.0
O342 O 0.52553 0.14594 0.66052 0.0
C343 C 0.48885 0.16491 0.70113 0.0
O344 O 0.4764 0.15316 0.70062 0.0
O345 O 0.48247 0.14619 0.65723 0.0
C346 C 0.53508 0.13315 0.65634 0.0
O347 O 0.53057 0.11758 0.6614 0.0
C348 C 0.49429 0.10814 0.68028 0.0
O349 O 0.4893 0.10853 0.66407 0.0
O350 O 0.50169 0.16373 0.69072 0.0
C351 C 0.9022 0.49643 0.70463 0.0
O352 O 0.8884 0.50218 0.71304 0.0
O353 O 0.87588 0.47399 0.66138 0.0
Zn354 Zn 0.87845 0.49597 0.67512 0.0
O355 O 0.85783 0.49841 0.69143 0.0
C356 C 0.87014 0.51553 0.64502 0.0
O357 O 0.85941 0.50243 0.64288 0.0
O358 O 0.90102 0.49364 0.68851 0.0
C359 C 0.84585 0.50975 0.68984 0.0
O360 O 0.84672 0.5209 0.67711 0.0
C361 C 0.86131 0.46632 0.65898 0.0
O362 O 0.84695 0.4727 0.6659 0.0
O363 O 0.87984 0.51597 0.65838 0.0
C364 C 0.53594 0.1349 0.33636 0.0
O365 O 0.53735 0.12762 0.3211 0.0
O366 O 0.50129 0.11356 0.31538 0.0
Zn367 Zn 0.49942 0.13687 0.32676 0.0
O368 O 0.47834 0.13814 0.34222 0.0
C369 C 0.5048 0.1703 0.31069 0.0
O370 O 0.51351 0.17369 0.32493 0.0
O371 O 0.52099 0.14019 0.3414 0.0
C372 C 0.4628 0.14016 0.33656 0.0
O373 O 0.46013 0.14092 0.31982 0.0
C374 C 0.49678 0.11097 0.2998 0.0
O375 O 0.48957 0.12362 0.29101 0.0
O376 O 0.49783 0.15551 0.30876 0.0
C377 C 0.89883 0.51306 0.30707 0.0
O378 O 0.89838 0.51938 0.32279 0.0
O379 O 0.86469 0.5164 0.33626 0.0
Zn380 Zn 0.86533 0.49873 0.31721 0.0
O381 O 0.84347 0.50041 0.30275 0.0
C382 C 0.87931 0.47269 0.339 0.0
O383 O 0.89081 0.48503 0.34178 0.0
O384 O 0.88635 0.50341 0.30196 0.0
C385 C 0.82829 0.49677 0.30851 0.0
O386 O 0.82661 0.49161 0.32458 0.0
C387 C 0.8579 0.53131 0.33478 0.0
O388 O 0.8501 0.5356 0.32027 0.0
O389 O 0.867 0.47529 0.32823 0.0
C390 C 0.47582 0.8578 0.35281 0.0
O391 O 0.49104 0.86372 0.3582 0.0
O392 O 0.49498 0.87445 0.30739 0.0
Zn393 Zn 0.49577 0.85279 0.32177 0.0
O394 O 0.51763 0.8521 0.33632 0.0
C395 C 0.48224 0.8306 0.29564 0.0
O396 O 0.46939 0.84192 0.29631 0.0
O397 O 0.47452 0.85218 0.33744 0.0
C398 C 0.53254 0.84677 0.33125 0.0
O399 O 0.53446 0.84155 0.31522 0.0
C400 C 0.49084 0.88903 0.31374 0.0
O401 O 0.48768 0.89025 0.33035 0.0
O402 O 0.49527 0.83238 0.30575 0.0
C403 C 0.11251 0.48383 0.30347 0.0
O404 O 0.12443 0.47285 0.30894 0.0
O405 O 0.1337 0.48681 0.34263 0.0
Zn406 Zn 0.13417 0.50479 0.32377 0.0
O407 O 0.15666 0.50314 0.31024 0.0
C408 C 0.12053 0.52998 0.34681 0.0
O409 O 0.11056 0.51677 0.35096 0.0
O410 O 0.11381 0.4996 0.30786 0.0
C411 C 0.17039 0.51172 0.31392 0.0
O412 O 0.17013 0.52235 0.32715 0.0
C413 C 0.14444 0.47429 0.34383 0.0
O414 O 0.15739 0.47303 0.33269 0.0
O415 O 0.1317 0.52823 0.33475 0.0
C416 C 0.69216 0.51094 0.87942 0.0
O417 O 0.67532 0.51466 0.87886 0.0
O418 O 0.67003 0.52314 0.84243 0.0
Zn419 Zn 0.68587 0.50231 0.84392 0.0
O420 O 0.70334 0.50205 0.82435 0.0
C421 C 0.66718 0.47155 0.8562 0.0
O422 O 0.67293 0.47618 0.8715 0.0
O423 O 0.69949 0.50461 0.8661 0.0
C424 C 0.70238 0.51171 0.81112 0.0
O425 O 0.68916 0.52251 0.80961 0.0
C426 C 0.6551 0.52302 0.83508 0.0
O427 O 0.64973 0.50888 0.82733 0.0
O428 O 0.67128 0.48054 0.84308 0.0
C429 C 0.47354 0.64289 0.8588 0.0
O430 O 0.48851 0.63772 0.86548 0.0
O431 O 0.49411 0.68715 0.87657 0.0
Zn432 Zn 0.49385 0.67355 0.85429 0.0
O433 O 0.51521 0.65845 0.85148 0.0
C434 C 0.50544 0.70189 0.83406 0.0
O435 O 0.51773 0.70183 0.84598 0.0
O436 O 0.47234 0.65825 0.85312 0.0
C437 C 0.52972 0.65977 0.85948 0.0
O438 O 0.53185 0.6722 0.87084 0.0
C439 C 0.48664 0.68209 0.89034 0.0
O440 O 0.47914 0.66683 0.89067 0.0
O441 O 0.49334 0.6906 0.83474 0.0
C442 C 0.29755 0.48941 0.88491 0.0
O443 O 0.31457 0.48662 0.88479 0.0
O444 O 0.31823 0.47539 0.84681 0.0
Zn445 Zn 0.3041 0.49727 0.84925 0.0
O446 O 0.28703 0.49888 0.82947 0.0
C447 C 0.33577 0.51591 0.8564 0.0
O448 O 0.34016 0.50078 0.86272 0.0
O449 O 0.29017 0.49491 0.87125 0.0
C450 C 0.29057 0.50539 0.81482 0.0
O451 O 0.30625 0.51194 0.81207 0.0
C452 C 0.32972 0.47307 0.83515 0.0
O453 O 0.33237 0.48521 0.82361 0.0
O454 O 0.32053 0.51787 0.84995 0.0
C455 C 0.53413 0.34022 0.84636 0.0
O456 O 0.53712 0.3236 0.84811 0.0
O457 O 0.49845 0.31659 0.86979 0.0
Zn458 Zn 0.49748 0.3298 0.84741 0.0
O459 O 0.47565 0.34428 0.84548 0.0
C460 C 0.48559 0.30133 0.82756 0.0
O461 O 0.47338 0.30163 0.83954 0.0
O462 O 0.51837 0.34559 0.84561 0.0
C463 C 0.46213 0.34283 0.855 0.0
O464 O 0.46191 0.33112 0.86726 0.0
C465 C 0.50607 0.3223 0.88323 0.0
O466 O 0.51293 0.33786 0.88299 0.0
O467 O 0.49776 0.31256 0.82802 0.0
C468 C 0.71013 0.48077 0.12904 0.0
O469 O 0.71606 0.48013 0.14495 0.0
O470 O 0.6628 0.47707 0.15061 0.0
Zn471 Zn 0.68039 0.49591 0.14614 0.0
O472 O 0.6955 0.49992 0.16713 0.0
C473 C 0.66977 0.53216 0.14635 0.0
O474 O 0.68284 0.53415 0.15725 0.0
O475 O 0.69531 0.48779 0.12618 0.0
C476 C 0.69044 0.49704 0.18249 0.0
O477 O 0.67435 0.49153 0.18522 0.0
C478 C 0.66741 0.46182 0.15462 0.0
O479 O 0.68417 0.45836 0.15679 0.0
O480 O 0.66686 0.51733 0.1399 0.0
C481 C 0.52559 0.64954 0.13232 0.0
O482 O 0.51135 0.64289 0.1254 0.0
O483 O 0.50282 0.69306 0.11564 0.0
Zn484 Zn 0.50245 0.67847 0.13719 0.0
O485 O 0.48203 0.66196 0.13749 0.0
C486 C 0.48777 0.70427 0.15937 0.0
O487 O 0.47551 0.70411 0.14744 0.0
O488 O 0.525 0.66476 0.13846 0.0
C489 C 0.46754 0.66414 0.12964 0.0
O490 O 0.4651 0.67819 0.12045 0.0
C491 C 0.5066 0.68677 0.10094 0.0
O492 O 0.50945 0.67011 0.09954 0.0
O493 O 0.50087 0.6942 0.15784 0.0
C494 C 0.28728 0.5044 0.13238 0.0
O495 O 0.27942 0.50048 0.14695 0.0
O496 O 0.33775 0.51882 0.15268 0.0
Zn497 Zn 0.31892 0.5006 0.15291 0.0
O498 O 0.30419 0.50363 0.17426 0.0
C499 C 0.33917 0.47246 0.13956 0.0
O500 O 0.34052 0.48296 0.12631 0.0
O501 O 0.30397 0.50436 0.13176 0.0
C502 C 0.30739 0.49598 0.18842 0.0
O503 O 0.32099 0.48558 0.18946 0.0
C504 C 0.33355 0.53411 0.14835 0.0
O505 O 0.31707 0.53753 0.14463 0.0
O506 O 0.33016 0.47713 0.15255 0.0
C507 C 0.46086 0.33138 0.14466 0.0
O508 O 0.45826 0.31599 0.138 0.0
O509 O 0.49529 0.30447 0.12776 0.0
Zn510 Zn 0.49721 0.31986 0.14861 0.0
O511 O 0.51854 0.33503 0.147 0.0
C512 C 0.48906 0.29164 0.17095 0.0
O513 O 0.47851 0.28781 0.15808 0.0
O514 O 0.47609 0.33546 0.15004 0.0
C515 C 0.53383 0.33037 0.15166 0.0
O516 O 0.53626 0.31461 0.15747 0.0
C517 C 0.49201 0.31038 0.11281 0.0
O518 O 0.49047 0.32714 0.11069 0.0
O519 O 0.49853 0.30512 0.16995 0.0
C520 C 0.89838 0.71042 0.49712 0.0
O521 O 0.88413 0.71711 0.49027 0.0
O522 O 0.87825 0.66094 0.51525 0.0
Zn523 Zn 0.87802 0.67877 0.49637 0.0
O524 O 0.85572 0.6926 0.49849 0.0
C525 C 0.88868 0.65359 0.47141 0.0
O526 O 0.89934 0.64917 0.484 0.0
O527 O 0.89892 0.69427 0.50004 0.0
C528 C 0.84157 0.6881 0.49104 0.0
O529 O 0.84146 0.67413 0.48141 0.0
C530 C 0.86853 0.64762 0.51443 0.0
O531 O 0.8581 0.6456 0.50107 0.0
O532 O 0.87873 0.66661 0.4734 0.0
C533 C 0.90561 0.30544 0.48705 0.0
O534 O 0.90848 0.32136 0.48191 0.0
O535 O 0.87386 0.33598 0.47596 0.0
Zn536 Zn 0.87164 0.31939 0.49581 0.0
O537 O 0.84851 0.30674 0.49442 0.0
C538 C 0.85984 0.34301 0.52091 0.0
O539 O 0.84674 0.34349 0.50986 0.0
O540 O 0.89102 0.30178 0.49415 0.0
C541 C 0.84074 0.30134 0.50789 0.0
O542 O 0.84784 0.30417 0.52308 0.0
C543 C 0.86512 0.33481 0.46203 0.0
O544 O 0.85372 0.3222 0.46018 0.0
O545 O 0.87282 0.33315 0.51783 0.0
C546 C 0.70912 0.85817 0.48658 0.0
O547 O 0.71718 0.8432 0.48578 0.0
O548 O 0.66141 0.83507 0.47729 0.0
Zn549 Zn 0.67928 0.83702 0.49621 0.0
O550 O 0.69518 0.81627 0.49563 0.0
C551 C 0.6571 0.85238 0.52128 0.0
O552 O 0.65694 0.86453 0.50946 0.0
O553 O 0.69315 0.85869 0.49139 0.0
C554 C 0.6959 0.80456 0.50709 0.0
O555 O 0.68545 0.80544 0.52056 0.0
C556 C 0.66607 0.83221 0.4618 0.0
O557 O 0.6828 0.82981 0.45834 0.0
O558 O 0.66639 0.83898 0.51876 0.0
C559 C 0.08148 0.69235 0.48937 0.0
O560 O 0.08213 0.67655 0.48321 0.0
O561 O 0.1177 0.66624 0.48287 0.0
Zn562 Zn 0.1155 0.68297 0.50267 0.0
O563 O 0.13667 0.69846 0.50325 0.0
C564 C 0.10644 0.6546 0.52431 0.0
O565 O 0.09893 0.64954 0.5099 0.0
O566 O 0.09399 0.69774 0.49882 0.0
C567 C 0.1522 0.69253 0.50442 0.0
O568 O 0.15455 0.67575 0.5055 0.0
C569 C 0.12482 0.66955 0.46842 0.0
O570 O 0.13192 0.68479 0.46582 0.0
O571 O 0.11401 0.66923 0.52472 0.0
C572 C 0.28704 0.13309 0.49907 0.0
O573 O 0.27944 0.14399 0.5097 0.0
O574 O 0.33138 0.16308 0.47876 0.0
Zn575 Zn 0.31494 0.15865 0.49853 0.0
O576 O 0.29742 0.17793 0.50098 0.0
C577 C 0.3425 0.14555 0.51865 0.0
O578 O 0.34451 0.13679 0.50425 0.0
O579 O 0.30223 0.13656 0.49322 0.0
C580 C 0.30068 0.19343 0.49667 0.0
O581 O 0.31632 0.19738 0.49068 0.0
C582 C 0.32651 0.16204 0.46312 0.0
O583 O 0.30988 0.15908 0.45963 0.0
O584 O 0.32971 0.15604 0.51985 0.0
C585 C 0.08066 0.30311 0.50086 0.0
O586 O 0.07918 0.31912 0.50628 0.0
O587 O 0.11406 0.33236 0.51016 0.0
Zn588 Zn 0.11522 0.31479 0.49106 0.0
O589 O 0.13753 0.30112 0.49332 0.0
C590 C 0.10551 0.34069 0.4666 0.0
O591 O 0.09427 0.34458 0.47888 0.0
O592 O 0.09467 0.2985 0.49319 0.0
C593 C 0.15243 0.30787 0.49029 0.0
O594 O 0.15323 0.32412 0.48549 0.0
C595 C 0.12048 0.33002 0.52511 0.0
O596 O 0.12858 0.31545 0.5286 0.0
O597 O 0.11547 0.32766 0.46853 0.0
C598 C 0.70938 0.12242 0.51596 0.0
O599 O 0.70645 0.13601 0.52573 0.0
O600 O 0.66957 0.14349 0.51454 0.0
Zn601 Zn 0.68817 0.14319 0.49606 0.0
O602 O 0.70391 0.16394 0.4979 0.0
C603 C 0.6662 0.1298 0.46938 0.0
O604 O 0.6641 0.11745 0.48081 0.0
O605 O 0.70285 0.12212 0.50087 0.0
C606 C 0.70068 0.17868 0.49144 0.0
O607 O 0.68596 0.18111 0.4829 0.0
C608 C 0.66349 0.15671 0.5222 0.0
O609 O 0.66909 0.17213 0.51779 0.0
O610 O 0.6765 0.14223 0.47285 0.0
C611 C 0.30668 0.88289 0.51411 0.0
O612 O 0.32382 0.88176 0.51578 0.0
O613 O 0.32658 0.84181 0.52141 0.0
Zn614 Zn 0.31061 0.84796 0.50168 0.0
O615 O 0.29236 0.8294 0.49886 0.0
C616 C 0.34097 0.85591 0.48167 0.0
O617 O 0.34688 0.85965 0.49715 0.0
O618 O 0.29827 0.87018 0.5078 0.0
C619 C 0.29595 0.81348 0.50069 0.0
O620 O 0.31223 0.80885 0.50391 0.0
C621 C 0.32138 0.84189 0.53699 0.0
O622 O 0.30483 0.84537 0.54036 0.0
O623 O 0.32525 0.85058 0.48003 0.0
C624 C 0.09396 0.45979 0.29242 0.0
C625 C 0.09763 0.47755 0.29295 0.0
C626 C 0.08009 0.4535 0.28251 0.0
C627 C 0.0548 0.46177 0.244 0.0
H628 H 0.02461 0.42599 0.26263 0.0
C629 C 0.00786 0.42179 0.20064 0.0
C630 C 0.0092 0.40387 0.2033 0.0
C631 C 0.01516 0.43337 0.21254 0.0
C632 C 0.03291 0.43598 0.25723 0.0
H633 H 0.08962 0.50271 0.28349 0.0
H634 H 0.06543 0.49154 0.26568 0.0
H635 H 0.04427 0.4418 0.28182 0.0
H636 H 0.01864 0.3841 0.22087 0.0
H637 H 0.03137 0.40414 0.24138 0.0
H638 H 0.04415 0.45529 0.21924 0.0
C639 C 0.07328 0.48259 0.27315 0.0
C640 C 0.04411 0.44505 0.26822 0.0
C641 C 0.08707 0.48895 0.28334 0.0
C642 C 0.01739 0.39782 0.21838 0.0
C643 C 0.02458 0.40934 0.23025 0.0
C644 C 0.04365 0.45258 0.23294 0.0
C645 C 0.06966 0.46479 0.27272 0.0
C646 C 0.05559 0.45761 0.26163 0.0
C647 C 0.02378 0.42724 0.22739 0.0
C648 C 0.03305 0.43915 0.23937 0.0
H649 H 0.10179 0.45067 0.29971 0.0
H650 H 0.07776 0.4397 0.28222 0.0
H651 H 0.06359 0.47135 0.23859 0.0
H652 H 0.00161 0.42685 0.18915 0.0
H653 H 0.01424 0.4471 0.21004 0.0
C654 C 0.58453 0.00061 0.22946 0.0
C655 C 0.58581 0.0052 0.21195 0.0
C656 C 0.5716 0.00798 0.23995 0.0
C657 C 0.53035 0.03378 0.23935 0.0
H658 H 0.54891 0.05325 0.28169 0.0
C659 C 0.50043 0.09317 0.27305 0.0
C660 C 0.50194 0.09474 0.29105 0.0
C661 C 0.50764 0.07894 0.2645 0.0
C662 C 0.54332 0.04761 0.27013 0.0
H663 H 0.57386 0.02035 0.19152 0.0
H664 H 0.55147 0.03327 0.20981 0.0
H665 H 0.56703 0.03387 0.26465 0.0
H666 H 0.51104 0.082 0.31433 0.0
H667 H 0.52333 0.05705 0.29944 0.0
H668 H 0.5068 0.048 0.24462 0.0
C669 C 0.56036 0.02391 0.21544 0.0
C670 C 0.55375 0.03648 0.26034 0.0
C671 C 0.57331 0.01659 0.20497 0.0
C672 C 0.50983 0.08127 0.30042 0.0
C673 C 0.51696 0.06701 0.29188 0.0
C674 C 0.51988 0.04489 0.24919 0.0
C675 C 0.55963 0.02002 0.23314 0.0
C676 C 0.54755 0.02977 0.24463 0.0
C677 C 0.51642 0.06592 0.27377 0.0
C678 C 0.52641 0.05227 0.26449 0.0
H679 H 0.59388 0.99178 0.23522 0.0
H680 H 0.57122 0.00456 0.2535 0.0
H681 H 0.52512 0.02861 0.22742 0.0
H682 H 0.49441 0.1033 0.26544 0.0
H683 H 0.50712 0.07862 0.25053 0.0
C684 C 0.98581 0.60056 0.21448 0.0
C685 C 0.98854 0.59611 0.19711 0.0
C686 C 0.97994 0.58823 0.22627 0.0
C687 C 0.95251 0.55033 0.22802 0.0
H688 H 0.96962 0.54656 0.27501 0.0
C689 C 0.91448 0.51078 0.27865 0.0
C690 C 0.91275 0.51858 0.29494 0.0
C691 C 0.92663 0.51711 0.26668 0.0
C692 C 0.9646 0.54752 0.26196 0.0
H693 H 0.98784 0.57514 0.17856 0.0
H694 H 0.97714 0.55361 0.19921 0.0
H695 H 0.98602 0.56364 0.254 0.0
H696 H 0.92278 0.53881 0.31163 0.0
H697 H 0.94343 0.55017 0.29069 0.0
H698 H 0.93057 0.53517 0.23606 0.0
C699 C 0.9797 0.56664 0.20365 0.0
C700 C 0.97407 0.55722 0.24993 0.0
C701 C 0.98588 0.57892 0.19188 0.0
C702 C 0.92381 0.53246 0.29921 0.0
C703 C 0.93579 0.5389 0.2872 0.0
C704 C 0.94291 0.54083 0.24009 0.0
C705 C 0.97642 0.57126 0.22089 0.0
C706 C 0.96791 0.55902 0.23295 0.0
C707 C 0.93718 0.5315 0.27066 0.0
C708 C 0.94861 0.53964 0.25734 0.0
H709 H 0.98782 0.61369 0.21889 0.0
H710 H 0.97736 0.5922 0.23945 0.0
H711 H 0.94736 0.55167 0.21505 0.0
H712 H 0.90625 0.49995 0.27504 0.0
H713 H 0.92755 0.51087 0.2542 0.0
C714 C 0.47903 0.91875 0.30844 0.0
C715 C 0.48761 0.90393 0.30222 0.0
C716 C 0.47397 0.93189 0.29713 0.0
C717 C 0.46245 0.93744 0.25144 0.0
H718 H 0.4586 0.98576 0.26405 0.0
C719 C 0.42773 0.98491 0.20651 0.0
C720 C 0.41464 0.99489 0.21454 0.0
C721 C 0.44046 0.97646 0.21637 0.0
C722 C 0.45962 0.97231 0.26035 0.0
H723 H 0.49875 0.89185 0.27944 0.0
H724 H 0.49026 0.91494 0.25978 0.0
H725 H 0.47438 0.96582 0.283 0.0
H726 H 0.40544 0.00486 0.23911 0.0
H727 H 0.42751 0.98991 0.25631 0.0
H728 H 0.44734 0.94371 0.2291 0.0
C729 C 0.48701 0.9162 0.27333 0.0
C730 C 0.46862 0.96088 0.2712 0.0
C731 C 0.49194 0.903 0.28462 0.0
C732 C 0.41529 0.9972 0.23252 0.0
C733 C 0.42802 0.9887 0.24239 0.0
C734 C 0.45354 0.94883 0.2406 0.0
C735 C 0.47749 0.93057 0.27936 0.0
C736 C 0.46985 0.94323 0.26703 0.0
C737 C 0.44036 0.97776 0.23446 0.0
C738 C 0.45173 0.96633 0.24507 0.0
H739 H 0.47552 0.91988 0.32194 0.0
H740 H 0.46652 0.94267 0.30222 0.0
H741 H 0.4628 0.9239 0.24794 0.0
H742 H 0.42774 0.98304 0.19266 0.0
H743 H 0.45001 0.96839 0.20985 0.0
C744 C 0.06658 0.50927 0.70177 0.0
C745 C 0.08065 0.50185 0.71091 0.0
C746 C 0.05301 0.51766 0.71055 0.0
C747 C 0.03371 0.52543 0.75408 0.0
H748 H 0.02343 0.57067 0.73517 0.0
C749 C 0.0102 0.58284 0.79506 0.0
C750 C -0.00111 0.59516 0.78768 0.0
C751 C 0.01628 0.56888 0.78535 0.0
C752 C 0.0258 0.55795 0.74049 0.0
H753 H 0.09096 0.49655 0.73647 0.0
H754 H 0.06748 0.51145 0.75175 0.0
H755 H 0.04118 0.55053 0.71866 0.0
H756 H 0.98426 0.60188 0.76461 0.0
H757 H 0.99484 0.57741 0.74766 0.0
H758 H 0.01884 0.53322 0.77623 0.0
C759 C 0.0668 0.51063 0.73781 0.0
C760 C 0.03601 0.54636 0.731 0.0
C761 C 0.08034 0.50216 0.72904 0.0
C762 C 0.99306 0.59269 0.77064 0.0
C763 C -0.00082 0.57872 0.7609 0.0
C764 C 0.0235 0.53705 0.7636 0.0
C765 C 0.05323 0.51889 0.72865 0.0
C766 C 0.04043 0.53012 0.73784 0.0
C767 C 0.01121 0.5669 0.76802 0.0
C768 C 0.01979 0.5536 0.75707 0.0
H769 H 0.06632 0.50908 0.6878 0.0
H770 H 0.04259 0.52361 0.70312 0.0
H771 H 0.03665 0.5129 0.75959 0.0
H772 H 0.01488 0.5843 0.80819 0.0
H773 H 0.02566 0.56014 0.79119 0.0
C774 C 0.41684 -0.00184 0.75733 0.0
C775 C 0.41741 -0.00123 0.77545 0.0
C776 C 0.42939 0.00693 0.7475 0.0
C777 C 0.45735 0.04507 0.75108 0.0
H778 H 0.47479 0.03053 0.70637 0.0
C779 C 0.49598 0.09213 0.70836 0.0
C780 C 0.49059 0.09276 0.69102 0.0
C781 C 0.49082 0.07845 0.71897 0.0
C782 C 0.46999 0.03479 0.71882 0.0
H783 H 0.43241 0.00796 0.79745 0.0
H784 H 0.45435 0.02311 0.7803 0.0
H785 H 0.45892 0.00998 0.72454 0.0
H786 H 0.47627 0.07909 0.67102 0.0
H787 H 0.46695 0.05551 0.68958 0.0
H788 H 0.46767 0.07 0.74521 0.0
C789 C 0.444 0.01614 0.7737 0.0
C790 C 0.46093 0.02301 0.72923 0.0
C791 C 0.43145 0.00739 0.78352 0.0
C792 C 0.48062 0.07903 0.68433 0.0
C793 C 0.47538 0.06541 0.69496 0.0
C794 C 0.46632 0.05683 0.74069 0.0
C795 C 0.44279 0.01647 0.7556 0.0
C796 C 0.45423 0.02813 0.74534 0.0
C797 C 0.48006 0.06515 0.71251 0.0
C798 C 0.47246 0.05195 0.72429 0.0
H799 H 0.40623 0.99159 0.75071 0.0
H800 H 0.42802 0.00702 0.73359 0.0
H801 H 0.4521 0.04954 0.76329 0.0
H802 H 0.50382 0.10242 0.71387 0.0
H803 H 0.49493 0.07849 0.73235 0.0
C804 C 0.91798 0.48988 0.73224 0.0
C805 C 0.91804 0.49069 0.71412 0.0
C806 C 0.93176 0.48188 0.74108 0.0
C807 C 0.96415 0.4477 0.73376 0.0
H808 H 0.97901 0.45935 0.78019 0.0
C809 C 0.00623 0.4006 0.77337 0.0
C810 C -0.00041 0.39732 0.78997 0.0
C811 C 0.00034 0.41488 0.76394 0.0
C812 C 0.97501 0.45595 0.76721 0.0
H813 H 0.93333 0.48503 0.69117 0.0
H814 H 0.95749 0.47133 0.70661 0.0
H815 H 0.96131 0.47987 0.7637 0.0
H816 H 0.98237 0.40702 0.8101 0.0
H817 H 0.972 0.4317 0.79363 0.0
H818 H 0.97723 0.42357 0.73742 0.0
C819 C 0.94658 0.47649 0.71397 0.0
C820 C 0.96487 0.46769 0.75777 0.0
C821 C 0.93276 0.48442 0.70512 0.0
C822 C 0.98768 0.40911 0.7973 0.0
C823 C 0.98184 0.42337 0.7879 0.0
C824 C 0.97429 0.436 0.74316 0.0
C825 C 0.94596 0.4746 0.732 0.0
C826 C 0.95893 0.4635 0.7411 0.0
C827 C 0.98775 0.42618 0.77095 0.0
C828 C 0.97944 0.43978 0.76016 0.0
H829 H 0.90687 0.49463 0.73958 0.0
H830 H 0.93077 0.48054 0.75496 0.0
H831 H 0.9596 0.4439 0.72107 0.0
H832 H 0.01551 0.39184 0.7674 0.0
H833 H 0.00531 0.41683 0.75099 0.0
C834 C 0.56132 0.98882 0.78593 0.0
C835 C 0.5754 0.99542 0.77622 0.0
C836 C 0.54766 0.97987 0.77786 0.0
C837 C 0.52818 0.96874 0.73513 0.0
H838 H 0.51837 0.92496 0.75742 0.0
C839 C 0.505 0.90826 0.69859 0.0
C840 C 0.49394 0.89637 0.70695 0.0
C841 C 0.51097 0.92297 0.70723 0.0
C842 C 0.5206 0.93727 0.75116 0.0
H843 H 0.58558 -0.00123 0.75029 0.0
H844 H 0.56194 0.98293 0.73625 0.0
H845 H 0.53598 0.94643 0.77231 0.0
H846 H 0.47961 0.89114 0.73057 0.0
H847 H 0.48996 0.91691 0.74562 0.0
H848 H 0.51329 0.95919 0.71368 0.0
C849 C 0.56133 0.98479 0.75009 0.0
C850 C 0.53073 0.94962 0.75972 0.0
C851 C 0.57497 0.9938 0.75816 0.0
C852 C 0.48823 0.89997 0.72382 0.0
C853 C 0.49422 0.9147 0.73246 0.0
C854 C 0.51803 0.95635 0.72655 0.0
C855 C 0.5478 0.97727 0.7599 0.0
C856 C 0.535 0.96534 0.75166 0.0
C857 C 0.50601 0.92613 0.72441 0.0
C858 C 0.51449 0.94031 0.73431 0.0
H859 H 0.56113 0.99002 0.79986 0.0
H860 H 0.53725 0.97453 0.78575 0.0
H861 H 0.53101 0.98083 0.72868 0.0
H862 H 0.5096 0.90593 0.68557 0.0
H863 H 0.52018 0.93138 0.70069 0.0
C864 C 0.19187 0.03608 0.41797 0.0
C865 C 0.20133 0.02889 0.40414 0.0
C866 C 0.20064 0.04426 0.43153 0.0
C867 C 0.24461 0.05118 0.45141 0.0
H868 H 0.22507 0.09585 0.46345 0.0
C869 C 0.2854 0.10663 0.48057 0.0
C870 C 0.27737 0.11789 0.49244 0.0
C871 C 0.27577 0.09339 0.47282 0.0
C872 C 0.23056 0.08327 0.46054 0.0
H873 H 0.22745 0.02387 0.39414 0.0
H874 H 0.24276 0.03842 0.41763 0.0
H875 H 0.20882 0.07676 0.44438 0.0
H876 H 0.25317 0.12348 0.50614 0.0
H877 H 0.23638 0.10027 0.49263 0.0
H878 H 0.26667 0.05806 0.46718 0.0
C879 C 0.22856 0.03757 0.41812 0.0
C880 C 0.22122 0.0723 0.44958 0.0
C881 C 0.21978 0.0293 0.40459 0.0
C882 C 0.25972 0.11511 0.49697 0.0
C883 C 0.25007 0.10186 0.48917 0.0
C884 C 0.25398 0.0622 0.46237 0.0
C885 C 0.21907 0.04551 0.43153 0.0
C886 C 0.22826 0.05625 0.44464 0.0
C887 C 0.25789 0.0911 0.47673 0.0
C888 C 0.24719 0.0785 0.4668 0.0
H889 H 0.17764 0.03581 0.41812 0.0
H890 H 0.19296 0.04996 0.44182 0.0
H891 H 0.25028 0.0388 0.44806 0.0
H892 H 0.29899 0.10837 0.47683 0.0
H893 H 0.28215 0.08544 0.46316 0.0
C894 C 0.93174 0.2947 0.47064 0.0
C895 C 0.9179 0.29145 0.48219 0.0
C896 C 0.94163 0.28108 0.46387 0.0
C897 C 0.93653 0.23493 0.45424 0.0
H898 H 0.98493 0.23897 0.43914 0.0
C899 C 0.96839 0.18254 0.41203 0.0
C900 C 0.97657 0.18892 0.39708 0.0
C901 C 0.96404 0.19368 0.42558 0.0
C902 C 0.97141 0.23765 0.44331 0.0
H903 H 0.9045 0.27149 0.49676 0.0
H904 H 0.922 0.24777 0.48524 0.0
H905 H 0.97236 0.26111 0.45794 0.0
H906 H 0.98748 0.21183 0.38502 0.0
H907 H 0.9798 0.23123 0.40858 0.0
H908 H 0.9354 0.21175 0.43929 0.0
C909 C 0.92491 0.2608 0.48104 0.0
C910 C 0.9642 0.25034 0.45405 0.0
C911 C 0.91493 0.27441 0.48772 0.0
C912 C 0.9811 0.2065 0.39633 0.0
C913 C 0.97682 0.21762 0.4099 0.0
C914 C 0.94375 0.22223 0.4436 0.0
C915 C 0.93799 0.26391 0.4686 0.0
C916 C 0.94653 0.24934 0.45929 0.0
C917 C 0.96786 0.2114 0.42449 0.0
C918 C 0.96114 0.22366 0.43768 0.0
H919 H 0.9344 0.30768 0.46613 0.0
H920 H 0.95148 0.28398 0.45422 0.0
H921 H 0.9228 0.23385 0.45775 0.0
H922 H 0.96481 0.16904 0.41307 0.0
H923 H 0.95732 0.18848 0.43675 0.0
C924 C 0.70867 0.88971 0.47922 0.0
C925 C 0.71771 0.87388 0.47972 0.0
C926 C 0.71589 0.90392 0.47066 0.0
C927 C 0.75688 0.92064 0.45036 0.0
H928 H 0.72449 0.94281 0.41871 0.0
C929 C 0.75975 0.95547 0.38043 0.0
C930 C 0.77425 0.96649 0.38253 0.0
C931 C 0.75214 0.94737 0.39466 0.0
C932 C 0.73369 0.93679 0.42751 0.0
H933 H 0.74188 0.86087 0.4725 0.0
H934 H 0.75431 0.8855 0.45739 0.0
H935 H 0.71335 0.92249 0.44001 0.0
H936 H 0.79173 0.97819 0.40132 0.0
H937 H 0.77835 0.96402 0.42625 0.0
H938 H 0.77734 0.93425 0.43717 0.0
C939 C 0.74172 0.88704 0.46373 0.0
C940 C 0.72729 0.92529 0.43988 0.0
C941 C 0.73453 0.87285 0.47231 0.0
C942 C 0.7806 0.96972 0.39927 0.0
C943 C 0.773 0.96155 0.41354 0.0
C944 C 0.76329 0.93215 0.43797 0.0
C945 C 0.73229 0.90261 0.46242 0.0
C946 C 0.73886 0.91672 0.45114 0.0
C947 C 0.75885 0.95008 0.41135 0.0
C948 C 0.75181 0.93997 0.42609 0.0
H949 H 0.69574 0.89097 0.48493 0.0
H950 H 0.70842 0.91581 0.47011 0.0
H951 H 0.76611 0.91443 0.459 0.0
H952 H 0.75451 0.95273 0.36772 0.0
H953 H 0.74141 0.93844 0.39248 0.0
C954 C 0.00537 0.80892 0.41469 0.0
C955 C 0.00473 0.80342 0.39741 0.0
C956 C 0.00949 0.79721 0.42784 0.0
C957 C 0.01193 0.75103 0.43885 0.0
H958 H 0.05346 0.7635 0.465 0.0
C959 C 0.05743 0.70024 0.46888 0.0
C960 C 0.06779 0.70448 0.48327 0.0
C961 C 0.04626 0.71249 0.4615 0.0
C962 C 0.04158 0.75988 0.45822 0.0
H963 H 0.00689 0.78124 0.38044 0.0
H964 H 0.01371 0.76078 0.40342 0.0
H965 H 0.03955 0.78483 0.44647 0.0
H966 H 0.07363 0.72449 0.50199 0.0
H967 H 0.05366 0.74572 0.48949 0.0
H968 H 0.01397 0.72605 0.45042 0.0
C969 C 0.01116 0.77413 0.40679 0.0
C970 C 0.03365 0.77214 0.44753 0.0
C971 C 0.00737 0.78587 0.39363 0.0
C972 C 0.06595 0.7209 0.49077 0.0
C973 C 0.05459 0.73311 0.48352 0.0
C974 C 0.01969 0.73883 0.44974 0.0
C975 C 0.01266 0.77976 0.42396 0.0
C976 C 0.01909 0.76767 0.43735 0.0
C977 C 0.04499 0.72924 0.46847 0.0
C978 C 0.03498 0.74291 0.45913 0.0
H979 H 0.00343 0.82239 0.41797 0.0
H980 H 0.01055 0.80184 0.44099 0.0
H981 H 0.00058 0.74734 0.43125 0.0
H982 H 0.05855 0.68771 0.46276 0.0
H983 H 0.03933 0.70903 0.4498 0.0
C984 C 0.21293 0.97422 0.59968 0.0
C985 C 0.22096 0.98659 0.61038 0.0
C986 C 0.22246 0.96614 0.58656 0.0
C987 C 0.26769 0.95419 0.57597 0.0
H988 H 0.24752 0.94067 0.53203 0.0
C989 C 0.30647 0.9119 0.52839 0.0
C990 C 0.29716 0.89792 0.52129 0.0
C991 C 0.29758 0.92524 0.53684 0.0
C992 C 0.25331 0.9443 0.54427 0.0
H993 H 0.24507 0.00078 0.61513 0.0
H994 H 0.26168 0.98669 0.59215 0.0
H995 H 0.23107 0.95979 0.55123 0.0
H996 H 0.27113 0.88738 0.51685 0.0
H997 H 0.25566 0.91047 0.53182 0.0
H998 H 0.28964 0.93833 0.56936 0.0
C999 C 0.24807 0.98311 0.59408 0.0
C1000 C 0.2439 0.95526 0.55525 0.0
C1001 C 0.23852 0.99123 0.60719 0.0
C1002 C 0.27871 0.89795 0.52218 0.0
C1003 C 0.26982 0.91126 0.53068 0.0
C1004 C 0.27706 0.94322 0.56503 0.0
C1005 C 0.24025 0.97022 0.58386 0.0
C1006 C 0.25087 0.9601 0.57134 0.0
C1007 C 0.27918 0.92488 0.53843 0.0
C1008 C 0.26987 0.93791 0.54917 0.0
H1009 H 0.19942 0.97037 0.60176 0.0
H1010 H 0.21609 0.95615 0.57903 0.0
H1011 H 0.27332 0.95744 0.58839 0.0
H1012 H 0.32068 0.91235 0.5278 0.0
H1013 H 0.30516 0.93569 0.5424 0.0
C1014 C 0.01064 0.18476 0.57678 0.0
C1015 C 0.00451 0.19171 0.59242 0.0
C1016 C 0.01504 0.19562 0.56303 0.0
C1017 C 0.01113 0.24032 0.54626 0.0
H1018 H 0.05831 0.23231 0.52919 0.0
C1019 C 0.0544 0.29417 0.51808 0.0
C1020 C 0.06747 0.29003 0.50596 0.0
C1021 C 0.04364 0.28129 0.52498 0.0
C1022 C 0.04495 0.23458 0.53342 0.0
H1023 H 0.99712 0.21539 0.60552 0.0
H1024 H 0.0048 0.23429 0.58156 0.0
H1025 H 0.04461 0.2111 0.54791 0.0
H1026 H 0.07858 0.26934 0.49056 0.0
H1027 H 0.05952 0.24692 0.50227 0.0
H1028 H 0.01164 0.26403 0.53206 0.0
C1029 C 0.00619 0.22047 0.57989 0.0
C1030 C 0.0371 0.2224 0.54421 0.0
C1031 C 0.00191 0.20964 0.59368 0.0
C1032 C 0.06877 0.27292 0.50004 0.0
C1033 C 0.05791 0.26005 0.50683 0.0
C1034 C 0.01894 0.25248 0.53533 0.0
C1035 C 0.01325 0.21362 0.56459 0.0
C1036 C 0.02031 0.22534 0.55112 0.0
C1037 C 0.0456 0.26397 0.51981 0.0
C1038 C 0.03615 0.24999 0.52917 0.0
H1039 H 0.01271 0.17099 0.57535 0.0
H1040 H 0.02028 0.18996 0.55131 0.0
H1041 H -0.00193 0.24282 0.55121 0.0
H1042 H 0.05302 0.30723 0.52291 0.0
H1043 H 0.03447 0.28481 0.53506 0.0
C1044 C 0.80533 0.02154 0.58643 0.0
C1045 C 0.79777 0.01093 0.59913 0.0
C1046 C 0.7948 0.02957 0.57403 0.0
C1047 C 0.76978 0.04332 0.54656 0.0
H1048 H 0.72902 0.06403 0.56836 0.0
C1049 C 0.723 0.09293 0.51287 0.0
C1050 C 0.71925 0.10755 0.52301 0.0
C1051 C 0.73179 0.07874 0.52007 0.0
C1052 C 0.74031 0.05828 0.56205 0.0
H1053 H 0.77349 -0.00097 0.60772 0.0
H1054 H 0.75517 0.01279 0.58589 0.0
H1055 H 0.74588 0.04239 0.58383 0.0
H1056 H 0.72204 0.11885 0.54852 0.0
H1057 H 0.73723 0.09426 0.56093 0.0
H1058 H 0.7645 0.06003 0.52507 0.0
C1059 C 0.76917 0.01529 0.5858 0.0
C1060 C 0.74987 0.0457 0.57083 0.0
C1061 C 0.77968 0.00735 0.59827 0.0
C1062 C 0.72463 0.10778 0.54035 0.0
C1063 C 0.73324 0.09363 0.54752 0.0
C1064 C 0.76013 0.05594 0.53773 0.0
C1065 C 0.77649 0.02707 0.57401 0.0
C1066 C 0.76498 0.03836 0.56339 0.0
C1067 C 0.73676 0.0789 0.53754 0.0
C1068 C 0.74561 0.06389 0.54563 0.0
H1069 H 0.81924 0.0245 0.58668 0.0
H1070 H 0.80087 0.03862 0.56521 0.0
H1071 H 0.78126 0.03779 0.54042 0.0
H1072 H 0.71904 0.09239 0.49946 0.0
H1073 H 0.73436 0.06752 0.5121 0.0
C1074 C 0.91045 0.7398 0.50378 0.0
C1075 C 0.91248 0.72175 0.50385 0.0
C1076 C 0.92243 0.75035 0.51252 0.0
C1077 C 0.95197 0.74793 0.54965 0.0
H1078 H 0.96557 0.79416 0.53586 0.0
C1079 C 0.99093 0.7912 0.59586 0.0
C1080 C 0.98476 0.80822 0.59752 0.0
C1081 C 0.98539 0.78083 0.58214 0.0
C1082 C 0.96183 0.78129 0.53991 0.0
H1083 H 0.92943 0.70074 0.51202 0.0
H1084 H 0.95037 0.71916 0.52708 0.0
H1085 H 0.94999 0.77554 0.51545 0.0
H1086 H 0.9686 0.82799 0.58561 0.0
H1087 H 0.95863 0.8098 0.56191 0.0
H1088 H 0.96313 0.75374 0.57424 0.0
C1089 C 0.93932 0.72512 0.52058 0.0
C1090 C 0.95293 0.77063 0.52821 0.0
C1091 C 0.92735 0.71458 0.51188 0.0
C1092 C 0.9736 0.81492 0.58471 0.0
C1093 C 0.96795 0.8045 0.57105 0.0
C1094 C 0.96078 0.75856 0.56133 0.0
C1095 C 0.93669 0.74307 0.52148 0.0
C1096 C 0.9477 0.7539 0.53305 0.0
C1097 C 0.97345 0.7872 0.56983 0.0
C1098 C 0.96561 0.77546 0.55671 0.0
H1099 H 0.89917 0.74575 0.49768 0.0
H1100 H 0.91995 0.76411 0.51304 0.0
H1101 H 0.94783 0.73525 0.55394 0.0
H1102 H -0.00031 0.78571 0.60541 0.0
H1103 H 0.99017 0.76767 0.5814 0.0
C1104 C 0.48164 0.30458 0.08264 0.0
C1105 C 0.4881 0.29836 0.09845 0.0
C1106 C 0.47623 0.29309 0.06976 0.0
C1107 C 0.47819 0.24729 0.05572 0.0
H1108 H 0.43192 0.25667 0.03699 0.0
C1109 C 0.43377 0.1945 0.02666 0.0
C1110 C 0.4221 0.19891 0.01331 0.0
C1111 C 0.44438 0.20708 0.03431 0.0
C1112 C 0.44501 0.25398 0.04176 0.0
H1113 H 0.4947 0.2752 0.11284 0.0
H1114 H 0.48521 0.25522 0.09044 0.0
H1115 H 0.44611 0.27804 0.05525 0.0
H1116 H 0.41323 0.21978 0.99678 0.0
H1117 H 0.43199 0.24165 0.00991 0.0
H1118 H 0.4769 0.22303 0.04251 0.0
C1119 C 0.48441 0.26896 0.08793 0.0
C1120 C 0.45314 0.26625 0.05227 0.0
C1121 C 0.48975 0.28043 0.10082 0.0
C1122 C 0.42195 0.21599 0.00717 0.0
C1123 C 0.43263 0.22855 0.01476 0.0
C1124 C 0.47008 0.23502 0.04514 0.0
C1125 C 0.47725 0.27515 0.0724 0.0
C1126 C 0.46966 0.26292 0.05965 0.0
C1127 C 0.44364 0.22435 0.02872 0.0
C1128 C 0.45323 0.23807 0.03831 0.0
H1129 H 0.48027 0.31831 0.08037 0.0
H1130 H 0.47095 0.29825 0.05784 0.0
H1131 H 0.49103 0.24446 0.06103 0.0
H1132 H 0.43421 0.18146 0.0317 0.0
H1133 H 0.45255 0.2034 0.04514 0.0
C1134 C 0.41571 0.77645 0.98936 0.0
C1135 C 0.41862 0.79431 0.98784 0.0
C1136 C 0.42753 0.76465 0.9822 0.0
C1137 C 0.45836 0.76197 0.9463 0.0
H1138 H 0.46834 0.71659 0.96505 0.0
C1139 C 0.49237 0.71057 0.90471 0.0
C1140 C 0.48436 0.69421 0.90497 0.0
C1141 C 0.48836 0.72284 0.91734 0.0
C1142 C 0.46564 0.7292 0.95962 0.0
H1143 H 0.43685 0.81375 0.97859 0.0
H1144 H 0.45751 0.79311 0.9661 0.0
H1145 H 0.45403 0.73829 0.98314 0.0
H1146 H 0.46661 0.6776 0.91926 0.0
H1147 H 0.45935 0.69907 0.94103 0.0
H1148 H 0.46918 0.75278 0.9226 0.0
C1149 C 0.44595 0.78827 0.97266 0.0
C1150 C 0.45748 0.74163 0.96999 0.0
C1151 C 0.43415 0.80008 0.97989 0.0
C1152 C 0.473 0.69009 0.91865 0.0
C1153 C 0.46891 0.7024 0.93123 0.0
C1154 C 0.46643 0.74954 0.93592 0.0
C1155 C 0.44251 0.77044 0.97331 0.0
C1156 C 0.45339 0.75803 0.96332 0.0
C1157 C 0.47619 0.71908 0.93047 0.0
C1158 C 0.46982 0.73287 0.94232 0.0
H1159 H 0.40392 0.77155 0.99548 0.0
H1160 H 0.4244 0.75101 0.98281 0.0
H1161 H 0.45516 0.77437 0.94066 0.0
H1162 H 0.50133 0.71409 0.89444 0.0
H1163 H 0.49447 0.73545 0.91656 0.0
C1164 C 0.26839 0.48348 0.89874 0.0
C1165 C 0.28683 0.48353 0.89972 0.0
C1166 C 0.25839 0.47535 0.9115 0.0
C1167 C 0.26267 0.43965 0.942 0.0
H1168 H 0.21616 0.45382 0.95674 0.0
C1169 C 0.21993 0.39475 0.98335 0.0
C1170 C 0.20244 0.39294 0.97782 0.0
C1171 C 0.23038 0.4082 0.97708 0.0
C1172 C 0.22912 0.44967 0.9527 0.0
H1173 H 0.30917 0.4763 0.91557 0.0
H1174 H 0.29171 0.46229 0.93789 0.0
H1175 H 0.23434 0.4737 0.93997 0.0
H1176 H 0.18198 0.40428 0.96195 0.0
H1177 H 0.20027 0.42747 0.95077 0.0
H1178 H 0.25732 0.41545 0.95408 0.0
C1179 C 0.285 0.46822 0.92707 0.0
C1180 C 0.23952 0.46107 0.94313 0.0
C1181 C 0.295 0.47632 0.91431 0.0
C1182 C 0.19541 0.40528 0.96645 0.0
C1183 C 0.20588 0.41868 0.96013 0.0
C1184 C 0.25228 0.42827 0.95151 0.0
C1185 C 0.26663 0.46715 0.92552 0.0
C1186 C 0.2563 0.45606 0.93742 0.0
C1187 C 0.2236 0.42009 0.96509 0.0
C1188 C 0.23525 0.43301 0.95671 0.0
H1189 H 0.26168 0.48897 0.8877 0.0
H1190 H 0.24427 0.47467 0.90986 0.0
H1191 H 0.27539 0.43525 0.93755 0.0
H1192 H 0.2257 0.38555 0.99223 0.0
H1193 H 0.24389 0.40909 0.9814 0.0
C1194 C 0.55713 0.20511 0.97503 0.0
C1195 C 0.57319 0.20997 0.98257 0.0
C1196 C 0.54619 0.2175 0.96751 0.0
C1197 C 0.53809 0.26467 0.96333 0.0
H1198 H 0.52369 0.25236 0.91693 0.0
C1199 C 0.52147 0.31497 0.91085 0.0
C1200 C 0.50911 0.31067 0.89808 0.0
C1201 C 0.52606 0.30301 0.92359 0.0
C1202 C 0.52723 0.25596 0.92998 0.0
H1203 H 0.58981 0.23179 0.98909 0.0
H1204 H 0.57082 0.25335 0.97585 0.0
H1205 H 0.5373 0.23076 0.93523 0.0
H1206 H 0.49096 0.2909 0.88936 0.0
H1207 H 0.49867 0.2702 0.91178 0.0
H1208 H 0.52835 0.29004 0.95785 0.0
C1209 C 0.56662 0.23999 0.97582 0.0
C1210 C 0.53507 0.24353 0.9405 0.0
C1211 C 0.57757 0.2276 0.98332 0.0
C1212 C 0.5007 0.29453 0.8989 0.0
C1213 C 0.50518 0.28263 0.9117 0.0
C1214 C 0.53016 0.27712 0.95281 0.0
C1215 C 0.55105 0.23502 0.9674 0.0
C1216 C 0.54088 0.2478 0.95717 0.0
C1217 C 0.51829 0.28652 0.9239 0.0
C1218 C 0.52492 0.27299 0.93588 0.0
H1219 H 0.55328 0.19166 0.97436 0.0
H1220 H 0.53414 0.21331 0.96136 0.0
H1221 H 0.54225 0.2683 0.97619 0.0
H1222 H 0.5282 0.32729 0.91058 0.0
H1223 H 0.53632 0.3064 0.93265 0.0
C1224 C 0.69488 0.52402 0.90885 0.0
C1225 C 0.70287 0.51623 0.89447 0.0
C1226 C 0.70512 0.53129 0.92194 0.0
C1227 C 0.75065 0.53477 0.93921 0.0
H1228 H 0.73598 0.58131 0.95077 0.0
C1229 C 0.798 0.58733 0.96413 0.0
C1230 C 0.79154 0.59995 0.97552 0.0
C1231 C 0.78686 0.57457 0.95757 0.0
C1232 C 0.74014 0.56821 0.94802 0.0
H1233 H 0.72786 0.50896 0.8831 0.0
H1234 H 0.74569 0.52185 0.90579 0.0
H1235 H 0.7169 0.56318 0.93344 0.0
H1236 H 0.7686 0.60839 0.98986 0.0
H1237 H 0.74925 0.58598 0.97862 0.0
H1238 H 0.77421 0.54012 0.95341 0.0
C1239 C 0.73152 0.52223 0.90705 0.0
C1240 C 0.72916 0.55779 0.93806 0.0
C1241 C 0.72129 0.51493 0.89398 0.0
C1242 C 0.77395 0.59897 0.98095 0.0
C1243 C 0.76283 0.58617 0.97446 0.0
C1244 C 0.76166 0.54522 0.94922 0.0
C1245 C 0.72356 0.53095 0.92092 0.0
C1246 C 0.73441 0.54106 0.93326 0.0
C1247 C 0.76903 0.57412 0.96232 0.0
C1248 C 0.75666 0.56219 0.95346 0.0
H1249 H 0.68072 0.52508 0.90972 0.0
H1250 H 0.69858 0.53763 0.93262 0.0
H1251 H 0.75498 0.52186 0.93591 0.0
H1252 H 0.8115 0.58771 0.95971 0.0
H1253 H 0.79204 0.5656 0.94813 0.0
C1254 C 0.50586 0.71604 0.08721 0.0
C1255 C 0.51006 0.6984 0.08618 0.0
C1256 C 0.51121 0.72743 0.07426 0.0
C1257 C 0.53106 0.72984 0.03017 0.0
H1258 H 0.55194 0.77171 0.0484 0.0
C1259 C 0.58586 0.76864 0.99608 0.0
C1260 C 0.58624 0.78666 -0.00172 0.0
C1261 C 0.57293 0.7587 0.00417 0.0
C1262 C 0.54587 0.76027 0.04299 0.0
H1263 H 0.5223 0.67872 0.07028 0.0
H1264 H 0.53204 0.69861 0.04797 0.0
H1265 H 0.53566 0.7528 0.0675 0.0
H1266 H 0.57252 0.80849 0.00959 0.0
H1267 H 0.54994 0.79114 0.02358 0.0
H1268 H 0.54208 0.73712 0.00575 0.0
C1269 C 0.52438 0.70367 0.0586 0.0
C1270 C 0.53648 0.7494 0.05397 0.0
C1271 C 0.51888 0.69225 0.07148 0.0
C1272 C 0.57274 0.79461 0.00779 0.0
C1273 C 0.55983 0.78468 0.01587 0.0
C1274 C 0.54057 0.74072 0.01918 0.0
C1275 C 0.52103 0.72148 0.06007 0.0
C1276 C 0.5292 0.73389 0.04779 0.0
C1277 C 0.56011 0.76658 0.01461 0.0
C1278 C 0.54832 0.75592 0.02555 0.0
H1279 H 0.49887 0.72115 0.09827 0.0
H1280 H 0.50805 0.741 0.07561 0.0
H1281 H 0.5254 0.71813 0.02492 0.0
H1282 H 0.59602 0.76212 0.98878 0.0
H1283 H 0.57357 0.74477 0.00303 0.0
C1284 C 0.23067 0.61409 0.04064 0.0
C1285 C 0.21822 0.61119 0.02756 0.0
C1286 C 0.23728 0.60036 0.05029 0.0
C1287 C 0.2451 0.55406 0.05144 0.0
H1288 H 0.24218 0.5603 0.10105 0.0
C1289 C 0.28547 0.51599 0.10224 0.0
C1290 C 0.27708 0.51167 0.11783 0.0
C1291 C 0.27655 0.5254 0.08957 0.0
C1292 C 0.24289 0.55825 0.08724 0.0
H1293 H 0.20359 0.59148 0.01377 0.0
H1294 H 0.21549 0.56732 0.03058 0.0
H1295 H 0.2307 0.58256 0.08189 0.0
H1296 H 0.25241 0.51279 0.13182 0.0
H1297 H 0.23695 0.52933 0.10976 0.0
H1298 H 0.2578 0.52989 0.0569 0.0
C1299 C 0.21994 0.58032 0.03337 0.0
C1300 C 0.23649 0.57107 0.07629 0.0
C1301 C 0.21313 0.59413 0.02381 0.0
C1302 C 0.25929 0.516 0.12002 0.0
C1303 C 0.25044 0.52553 0.10742 0.0
C1304 C 0.25177 0.54129 0.06244 0.0
C1305 C 0.23175 0.58339 0.04696 0.0
C1306 C 0.23772 0.5692 0.05831 0.0
C1307 C 0.25915 0.53076 0.09232 0.0
C1308 C 0.25082 0.54335 0.08045 0.0
H1309 H 0.23494 0.62705 0.04384 0.0
H1310 H 0.24655 0.60303 0.06056 0.0
H1311 H 0.2462 0.55235 0.03761 0.0
H1312 H 0.29915 0.51276 0.10012 0.0
H1313 H 0.28361 0.52933 0.07809 0.0
C1314 C 0.71251 0.47067 0.09832 0.0
C1315 C 0.71937 0.47127 0.11517 0.0
C1316 C 0.72005 0.45985 0.08588 0.0
C1317 C 0.7441 0.41929 0.08351 0.0
H1318 H 0.75282 0.43117 0.03564 0.0
C1319 C 0.76107 0.3672 0.03394 0.0
C1320 C 0.77634 0.37026 0.02423 0.0
C1321 C 0.75319 0.38054 0.04326 0.0
C1322 C 0.75044 0.42771 0.04898 0.0
H1323 H 0.74013 0.46174 0.13186 0.0
H1324 H 0.75317 0.44291 0.1102 0.0
H1325 H 0.74201 0.45333 0.05568 0.0
H1326 H 0.79466 0.39 0.01578 0.0
H1327 H 0.7808 0.41335 0.03207 0.0
H1328 H 0.75249 0.39378 0.07698 0.0
C1329 C 0.74186 0.45064 0.10668 0.0
C1330 C 0.7442 0.44034 0.06039 0.0
C1331 C 0.73442 0.4615 0.11906 0.0
C1332 C 0.78295 0.3872 0.02321 0.0
C1333 C 0.77498 0.40059 0.03247 0.0
C1334 C 0.75012 0.40668 0.07211 0.0
C1335 C 0.73449 0.44938 0.09011 0.0
C1336 C 0.7411 0.43625 0.0778 0.0
C1337 C 0.76034 0.39726 0.04299 0.0
C1338 C 0.75339 0.41075 0.05474 0.0
H1339 H 0.70095 0.47808 0.0949 0.0
H1340 H 0.71408 0.45909 0.07321 0.0
H1341 H 0.74162 0.4157 0.0968 0.0
H1342 H 0.75554 0.35435 0.03491 0.0
H1343 H 0.74173 0.37768 0.05105 0.0
C1344 C 0.98653 0.21071 0.29822 0.0
C1345 C 0.00103 0.20673 0.30874 0.0
C1346 C 0.98796 0.2232 0.28526 0.0
C1347 C 0.01469 0.26099 0.27302 0.0
H1348 H 0.99284 0.25519 0.22817 0.0
C1349 C 0.02741 0.30866 0.21764 0.0
C1350 C 0.01275 0.31408 0.20803 0.0
C1351 C 0.02604 0.29488 0.22917 0.0
C1352 C -0.00112 0.25705 0.24069 0.0
H1353 H 0.02852 0.21238 0.31357 0.0
H1354 H 0.03106 0.23393 0.29088 0.0
H1355 H 0.99027 0.23231 0.24975 0.0
H1356 H 0.98524 0.30899 0.20269 0.0
H1357 H 0.98283 0.28498 0.22296 0.0
H1358 H 0.02326 0.28569 0.26406 0.0
C1359 C 0.01849 0.22766 0.29284 0.0
C1360 C 0.9974 0.24396 0.25305 0.0
C1361 C 0.01705 0.21523 0.3058 0.0
C1362 C 0.99678 0.30514 0.20991 0.0
C1363 C 0.99542 0.29132 0.22145 0.0
C1364 C 0.01618 0.27403 0.26069 0.0
C1365 C 0.00392 0.23194 0.28254 0.0
C1366 C 0.00534 0.24578 0.26934 0.0
C1367 C 0.00998 0.28619 0.23137 0.0
C1368 C 0.00835 0.2722 0.24437 0.0
H1369 H 0.97399 0.20439 0.30018 0.0
H1370 H 0.97645 0.2263 0.27764 0.0
H1371 H 0.02066 0.26296 0.28556 0.0
H1372 H 0.03993 0.31519 0.21642 0.0
H1373 H 0.03757 0.29105 0.23641 0.0
C1374 C 0.76638 0.99441 0.30196 0.0
C1375 C 0.78423 0.99718 0.29825 0.0
C1376 C 0.75383 0.9949 0.28884 0.0
C1377 C 0.74563 0.0111 0.24485 0.0
H1378 H 0.70846 0.97684 0.24537 0.0
C1379 C 0.69366 0.0049 0.1903 0.0
C1380 C 0.67623 0.00222 0.19567 0.0
C1381 C 0.70747 0.00413 0.20221 0.0
C1382 C 0.71866 0.98659 0.24512 0.0
H1383 H 0.80289 0.00283 0.27785 0.0
H1384 H 0.7809 0.00359 0.25487 0.0
H1385 H 0.73144 0.97582 0.26721 0.0
H1386 H 0.65962 0.99676 0.21778 0.0
H1387 H 0.68361 0.99553 0.23847 0.0
H1388 H 0.73272 0.0219 0.22276 0.0
C1389 C 0.77663 0.00116 0.26798 0.0
C1390 C 0.73183 0.98601 0.25764 0.0
C1391 C 0.78923 0.00064 0.28113 0.0
C1392 C 0.67289 -0.00117 0.21318 0.0
C1393 C 0.68667 -0.00199 0.22504 0.0
C1394 C 0.73243 0.01167 0.23229 0.0
C1395 C 0.7588 -0.00183 0.27168 0.0
C1396 C 0.74535 -0.00162 0.25779 0.0
C1397 C 0.70412 0.00058 0.2197 0.0
C1398 C 0.71868 -0.00046 0.23243 0.0
H1399 H 0.76205 0.99179 0.31501 0.0
H1400 H 0.74016 0.99285 0.29218 0.0
H1401 H 0.75578 0.0209 0.2447 0.0
H1402 H 0.69667 0.00754 0.1769 0.0
H1403 H 0.72079 0.00604 0.19768 0.0
C1404 C -0.00025 0.69611 0.20656 0.0
C1405 C 0.98674 0.68371 0.21008 0.0
C1406 C 0.00314 0.70943 0.21829 0.0
C1407 C -0.00092 0.71976 0.26433 0.0
H1408 H 0.00678 0.76707 0.24976 0.0
C1409 C 0.02426 0.77169 0.31131 0.0
C1410 C 0.01527 0.78754 0.31116 0.0
C1411 C 0.02144 0.75953 0.29829 0.0
C1412 C 0.00461 0.75392 0.25401 0.0
H1413 H 0.96681 0.67581 0.22849 0.0
H1414 H 0.97273 0.69902 0.2489 0.0
H1415 H -0.00018 0.74495 0.22825 0.0
H1416 H 0.99666 0.80328 0.29691 0.0
H1417 H 0.99174 0.782 0.27416 0.0
H1418 H 0.00367 0.72868 0.29007 0.0
C1419 C 0.98042 0.69835 0.23716 0.0
C1420 C 0.00076 0.74125 0.2417 0.0
C1421 C 0.97697 0.6851 0.2254 0.0
C1422 C 0.00378 0.79117 0.29742 0.0
C1423 C 0.00102 0.77903 0.28434 0.0
C1424 C 0.00303 0.73238 0.2766 0.0
C1425 C 0.99366 0.71054 0.23382 0.0
C1426 C -0.00213 0.72406 0.24676 0.0
C1427 C 0.00962 0.76298 0.28478 0.0
C1428 C 0.0058 0.7496 0.27159 0.0
H1429 H 0.0075 0.6954 0.19486 0.0
H1430 H 0.0135 0.71858 0.21543 0.0
H1431 H 0.99711 0.70658 0.26861 0.0
H1432 H 0.03326 0.7685 0.32166 0.0
H1433 H 0.02844 0.74736 0.29884 0.0
C1434 C 0.22935 0.016 0.30714 0.0
C1435 C 0.22674 0.00016 0.31563 0.0
C1436 C 0.24167 0.01741 0.29384 0.0
C1437 C 0.26666 0.99159 0.26219 0.0
H1438 H 0.29752 0.03143 0.26116 0.0
C1439 C 0.3275 0.99505 0.21791 0.0
C1440 C 0.33134 0.01093 0.20998 0.0
C1441 C 0.31426 0.99386 0.23033 0.0
C1442 C 0.28885 0.02034 0.26111 0.0
H1443 H 0.23494 0.97335 0.3167 0.0
H1444 H 0.2565 0.97584 0.29356 0.0
H1445 H 0.27528 0.0291 0.28367 0.0
H1446 H 0.32412 0.03801 0.20878 0.0
H1447 H 0.30086 0.0359 0.23033 0.0
H1448 H 0.28025 0.98281 0.23965 0.0
C1449 C 0.2489 0.98713 0.29709 0.0
C1450 C 0.27612 0.01899 0.27403 0.0
C1451 C 0.23662 0.98573 0.31043 0.0
C1452 C 0.32154 0.02559 0.21467 0.0
C1453 C 0.30828 0.0244 0.2271 0.0
C1454 C 0.27938 0.99295 0.24925 0.0
C1455 C 0.25162 0.003 0.2887 0.0
C1456 C 0.26492 0.00457 0.27476 0.0
C1457 C 0.30452 0.00853 0.23512 0.0
C1458 C 0.29068 0.0073 0.2486 0.0
H1459 H 0.22192 0.02737 0.31079 0.0
H1460 H 0.2433 0.02976 0.28749 0.0
H1461 H 0.25806 0.98045 0.26224 0.0
H1462 H 0.33484 0.98351 0.21464 0.0
H1463 H 0.31188 0.9815 0.23642 0.0
C1464 C 0.02106 0.67291 0.76887 0.0
C1465 C 0.00905 0.67187 0.78261 0.0
C1466 C 0.0196 0.68601 0.75654 0.0
C1467 C 0.00027 0.72915 0.74917 0.0
H1468 H 0.00625 0.71753 0.70084 0.0
C1469 C 0.00307 0.78086 0.69537 0.0
C1470 C 0.99395 0.77721 0.68001 0.0
C1471 C 0.00506 0.76818 0.70806 0.0
C1472 C 0.00444 0.72096 0.71428 0.0
H1473 H 0.98614 0.68384 0.79423 0.0
H1474 H 0.98354 0.70661 0.77267 0.0
H1475 H 0.00939 0.6951 0.72271 0.0
H1476 H 0.97966 0.7574 0.66602 0.0
H1477 H 0.98304 0.73536 0.6882 0.0
H1478 H 0.995 0.75495 0.7407 0.0
C1479 C 0.9942 0.69741 0.77153 0.0
C1480 C 0.00644 0.70815 0.72682 0.0
C1481 C 0.99564 0.6843 0.78383 0.0
C1482 C 0.9868 0.76063 0.67767 0.0
C1483 C 0.98883 0.74796 0.69034 0.0
C1484 C -0.00168 0.74197 0.73663 0.0
C1485 C 0.00611 0.69837 0.7577 0.0
C1486 C 0.00432 0.71208 0.74441 0.0
C1487 C -0.00197 0.75157 0.70566 0.0
C1488 C 0.00031 0.73801 0.71903 0.0
H1489 H 0.03158 0.66357 0.76757 0.0
H1490 H 0.02911 0.68653 0.74616 0.0
H1491 H -0.00129 0.73263 0.76263 0.0
H1492 H 0.00877 0.79349 0.69756 0.0
H1493 H 0.01237 0.77132 0.71964 0.0
C1494 C 0.23114 0.99472 0.69405 0.0
C1495 C 0.21421 0.00036 0.69864 0.0
C1496 C 0.24468 0.99455 0.7062 0.0
C1497 C 0.25868 0.01349 0.74758 0.0
H1498 H 0.29037 0.97428 0.74857 0.0
C1499 C 0.31243 0.00514 0.79989 0.0
C1500 C 0.32888 -0.00093 0.79428 0.0
C1501 C 0.29804 0.0053 0.78866 0.0
C1502 C 0.28175 0.98541 0.74835 0.0
H1503 H 0.19828 0.01036 0.7196 0.0
H1504 H 0.22199 0.00999 0.74087 0.0
H1505 H 0.26594 0.97455 0.72826 0.0
H1506 H 0.34316 0.98859 0.77241 0.0
H1507 H 0.31816 0.98905 0.75282 0.0
H1508 H 0.2746 0.02439 0.7676 0.0
C1509 C 0.22477 0.00581 0.72781 0.0
C1510 C 0.26774 0.98556 0.73672 0.0
C1511 C 0.21117 0.00595 0.71565 0.0
C1512 C 0.33065 0.99327 0.77718 0.0
C1513 C 0.31628 0.99343 0.76597 0.0
C1514 C 0.27273 0.01335 0.75921 0.0
C1515 C 0.24165 3e-05 0.72323 0.0
C1516 C 0.25613 -0.00034 0.73609 0.0
C1517 C 0.29979 -0.00062 0.77158 0.0
C1518 C 0.28451 -0.00063 0.75963 0.0
H1519 H 0.23397 0.99039 0.68105 0.0
H1520 H 0.2576 0.99027 0.70218 0.0
H1521 H 0.25007 0.02463 0.74728 0.0
H1522 H 0.31061 0.00967 0.81299 0.0
H1523 H 0.28547 0.0098 0.79343 0.0
C1524 C 0.97585 0.2278 0.67947 0.0
C1525 C 0.98925 0.21533 0.67892 0.0
C1526 C 0.97576 0.2405 0.69229 0.0
C1527 C 0.99328 0.25074 0.73554 0.0
H1528 H 0.98117 0.29774 0.72298 0.0
C1529 C 0.00083 0.30816 0.78274 0.0
C1530 C 0.98726 0.32048 0.78291 0.0
C1531 C 0.00122 0.29522 0.77015 0.0
C1532 C 0.98439 0.28464 0.72674 0.0
H1533 H 0.01305 0.20636 0.69146 0.0
H1534 H 0.01297 0.22863 0.71376 0.0
H1535 H 0.98162 0.27534 0.70088 0.0
H1536 H 0.9634 0.32881 0.77003 0.0
H1537 H 0.96401 0.30617 0.74819 0.0
H1538 H 0.99605 0.26007 0.76142 0.0
C1539 C 0.00242 0.22847 0.70438 0.0
C1540 C 0.98465 0.27181 0.71407 0.0
C1541 C 0.00251 0.21576 0.69155 0.0
C1542 C 0.97407 0.31955 0.77024 0.0
C1543 C 0.97448 0.30664 0.75765 0.0
C1544 C 0.99303 0.26359 0.74822 0.0
C1545 C 0.98907 0.24102 0.70485 0.0
C1546 C 0.98904 0.25469 0.71833 0.0
C1547 C 0.98807 0.29434 0.75744 0.0
C1548 C 0.98852 0.28068 0.74397 0.0
H1549 H 0.96539 0.22781 0.66999 0.0
H1550 H 0.96514 0.24981 0.69243 0.0
H1551 H 0.99648 0.23764 0.73929 0.0
H1552 H 0.01123 0.30853 0.79229 0.0
H1553 H 0.01198 0.28607 0.77023 0.0
C1554 C 0.7669 0.99572 0.69301 0.0
C1555 C 0.78217 0.00545 0.69615 0.0
C1556 C 0.75278 0.9963 0.70452 0.0
C1557 C 0.74071 0.00795 0.74929 0.0
H1558 H 0.69368 0.01114 0.73026 0.0
C1559 C 0.68 0.0233 0.79138 0.0
C1560 C 0.66463 0.0138 0.78806 0.0
C1561 C 0.69442 0.02217 0.78026 0.0
C1562 C 0.70671 0.01006 0.73579 0.0
H1563 H 0.79468 0.02317 0.71403 0.0
H1564 H 0.76998 0.02428 0.73403 0.0
H1565 H 0.71881 0.00902 0.7109 0.0
H1566 H 0.65233 0.99569 0.77041 0.0
H1567 H 0.67751 0.99365 0.75109 0.0
H1568 H 0.72858 0.00906 0.7742 0.0
C1569 C 0.769 0.01607 0.72275 0.0
C1570 C 0.72112 0.00883 0.72469 0.0
C1571 C 0.78313 0.0155 0.71123 0.0
C1572 C 0.66396 0.00322 0.77333 0.0
C1573 C 0.67836 0.00212 0.7622 0.0
C1574 C 0.72629 0.0092 0.7604 0.0
C1575 C 0.75359 0.00661 0.71944 0.0
C1576 C 0.73829 0.00775 0.7313 0.0
C1577 C 0.69378 0.01154 0.76556 0.0
C1578 C 0.70912 0.01026 0.75377 0.0
H1579 H 0.76575 0.98778 0.68156 0.0
H1580 H 0.74122 0.98863 0.70173 0.0
H1581 H 0.75375 0.00691 0.75481 0.0
H1582 H 0.68094 0.0316 0.8026 0.0
H1583 H 0.70602 0.02977 0.78309 0.0
C1584 C 0.22997 0.29875 0.99305 0.0
C1585 C 0.21207 0.29431 0.99331 0.0
C1586 C 0.24285 0.28599 0.99175 0.0
C1587 C 0.25112 0.23983 -0.00081 0.0
H1588 H 0.29124 0.24798 0.96942 0.0
C1589 C 0.30648 0.18922 0.98926 0.0
C1590 C 0.32374 0.1957 0.98942 0.0
C1591 C 0.29212 0.20051 0.9888 0.0
C1592 C 0.28019 0.24556 0.97789 0.0
H1593 H 0.19366 0.27292 0.99252 0.0
H1594 H 0.21626 0.25058 0.99024 0.0
H1595 H 0.26748 0.26904 0.97044 0.0
H1596 H 0.33943 0.2191 0.98927 0.0
H1597 H 0.31449 0.23868 0.98866 0.0
H1598 H 0.26401 0.21645 0.00683 0.0
C1599 C 0.22027 0.26398 0.99113 0.0
C1600 C 0.26658 0.25762 0.97847 0.0
C1601 C 0.20734 0.27677 0.99236 0.0
C1602 C 0.32632 0.21366 0.98908 0.0
C1603 C 0.31201 0.22491 0.98861 0.0
C1604 C 0.26479 0.22775 -0.00136 0.0
C1605 C 0.23817 0.26847 0.99072 0.0
C1606 C 0.25202 0.25503 0.98931 0.0
C1607 C 0.29473 0.21849 0.98845 0.0
C1608 C 0.27961 0.23062 0.98818 0.0
H1609 H 0.23409 0.31212 0.9938 0.0
H1610 H 0.25653 0.28986 0.99174 0.0
H1611 H 0.24014 0.23753 0.00777 0.0
H1612 H 0.30404 0.17545 0.98949 0.0
H1613 H 0.27897 0.19516 0.98854 0.0
C1614 C 0.20448 0.70927 0.98464 0.0
C1615 C 0.20728 0.69427 0.99448 0.0
C1616 C 0.21681 0.72268 0.98482 0.0
C1617 C 0.25393 0.74032 0.01013 0.0
H1618 H 0.26828 0.76055 0.96659 0.0
C1619 C 0.31766 0.7797 0.00299 0.0
C1620 C 0.31744 0.79432 0.99224 0.0
C1621 C 0.30315 0.76868 0.00374 0.0
C1622 C 0.26424 0.75523 0.97889 0.0
H1623 H 0.2251 0.68169 0.01239 0.0
H1624 H 0.24654 0.70495 0.0126 0.0
H1625 H 0.24464 0.73929 0.96708 0.0
H1626 H 0.30169 0.80894 0.97403 0.0
H1627 H 0.27632 0.78975 0.97546 0.0
H1628 H 0.27366 0.75608 0.02192 0.0
C1629 C 0.23477 0.70646 0.00488 0.0
C1630 C 0.25069 0.74305 0.97917 0.0
C1631 C 0.22252 0.69306 0.00465 0.0
C1632 C 0.30232 0.79776 0.98239 0.0
C1633 C 0.2878 0.78672 0.98315 0.0
C1634 C 0.26745 0.7525 0.00986 0.0
C1635 C 0.23211 0.72139 0.99491 0.0
C1636 C 0.24556 0.73528 0.99476 0.0
C1637 C 0.28808 0.77201 0.99378 0.0
C1638 C 0.27294 0.75992 0.99421 0.0
H1639 H 0.19285 0.71061 0.97669 0.0
H1640 H 0.21432 0.73409 0.97712 0.0
H1641 H 0.25007 0.73479 0.0224 0.0
H1642 H 0.3291 0.77665 0.01071 0.0
H1643 H 0.3039 0.75734 0.01188 0.0
C1644 C 0.79007 0.27808 0.97902 0.0
C1645 C 0.79144 0.28944 0.99311 0.0
C1646 C 0.77772 0.26471 0.97916 0.0
C1647 C 0.74832 0.23948 0.00781 0.0
H1648 H 0.71938 0.23523 0.96682 0.0
C1649 C 0.69054 0.191 0.00317 0.0
C1650 C 0.67481 0.19789 0.9966 0.0
C1651 C 0.70625 0.20031 0.00195 0.0
C1652 C 0.72736 0.23625 0.97835 0.0
H1653 H 0.78136 0.29527 0.01867 0.0
H1654 H 0.75981 0.27207 0.01884 0.0
H1655 H 0.74456 0.25469 0.96666 0.0
H1656 H 0.66331 0.21982 0.98331 0.0
H1657 H 0.69062 0.23602 0.98125 0.0
H1658 H 0.7307 0.2215 0.0197 0.0
C1659 C 0.76835 0.27338 0.00774 0.0
C1660 C 0.7419 0.24725 0.9782 0.0
C1661 C 0.78063 0.28677 0.00758 0.0
C1662 C 0.67518 0.21414 0.98853 0.0
C1663 C 0.69087 0.22338 0.98723 0.0
C1664 C 0.73381 0.22841 0.00794 0.0
C1665 C 0.76656 0.26237 0.99343 0.0
C1666 C 0.75234 0.24925 0.99304 0.0
C1667 C 0.70656 0.21662 0.99401 0.0
C1668 C 0.72296 0.22696 0.99332 0.0
H1669 H 0.79826 0.27974 0.96771 0.0
H1670 H 0.77678 0.2563 0.96802 0.0
H1671 H 0.75623 0.2406 0.01938 0.0
H1672 H 0.6907 0.1785 0.00944 0.0
H1673 H 0.71816 0.19472 0.00719 0.0
C1674 C 0.76401 0.69336 0.98634 0.0
C1675 C 0.78179 0.69825 0.98681 0.0
C1676 C 0.75083 0.70577 0.9846 0.0
C1677 C 0.74148 0.75181 0.9914 0.0
H1678 H 0.70163 0.74251 0.96159 0.0
C1679 C 0.67688 0.79072 0.99472 0.0
C1680 C 0.66846 0.79481 0.97909 0.0
C1681 C 0.6915 0.77981 0.99491 0.0
C1682 C 0.71275 0.74539 0.96983 0.0
H1683 H 0.79966 0.72006 0.98583 0.0
H1684 H 0.77655 0.74177 0.98278 0.0
H1685 H 0.7258 0.72189 0.96298 0.0
H1686 H 0.66897 0.79083 0.95138 0.0
H1687 H 0.69453 0.7718 0.95173 0.0
H1688 H 0.72841 0.77533 -0.00177 0.0
C1689 C 0.77286 0.72831 0.98386 0.0
C1690 C 0.7265 0.73349 0.97077 0.0
C1691 C 0.78609 0.71586 0.98554 0.0
C1692 C 0.6751 0.78789 0.96364 0.0
C1693 C 0.6897 0.77693 0.96384 0.0
C1694 C 0.72768 0.76369 0.99051 0.0
C1695 C 0.75509 0.72337 0.98334 0.0
C1696 C 0.74094 0.73648 0.98169 0.0
C1697 C 0.69801 0.7727 0.97949 0.0
C1698 C 0.71309 0.76054 0.97983 0.0
H1699 H 0.76022 0.67991 0.98731 0.0
H1700 H 0.73725 0.70157 0.9845 0.0
H1701 H 0.75237 0.75442 1e-05 0.0
H1702 H 0.6721 0.79583 0.00686 0.0
H1703 H 0.69747 0.77663 0.0072 0.0
C1704 C 0.51906 0.72749 0.81959 0.0
C1705 C 0.50558 0.7151 0.82027 0.0
C1706 C 0.51913 0.74014 0.80674 0.0
C1707 C 0.50126 0.75024 0.76358 0.0
H1708 H 0.5137 0.79727 0.77575 0.0
C1709 C 0.49286 0.8073 0.71628 0.0
C1710 C 0.50647 0.81956 0.7157 0.0
C1711 C 0.4927 0.7945 0.729 0.0
C1712 C 0.51038 0.78416 0.77211 0.0
H1713 H 0.48162 0.70625 0.80793 0.0
H1714 H 0.48166 0.72843 0.78559 0.0
H1715 H 0.51349 0.775 0.79797 0.0
H1716 H 0.53061 0.82797 0.72802 0.0
H1717 H 0.53039 0.80557 0.75011 0.0
H1718 H 0.49813 0.75944 0.73772 0.0
C1719 C 0.49229 0.72824 0.79489 0.0
C1720 C 0.51026 0.7714 0.78484 0.0
C1721 C 0.49222 0.71558 0.80775 0.0
C1722 C 0.51991 0.81875 0.72812 0.0
C1723 C 0.51973 0.80597 0.74085 0.0
C1724 C 0.50136 0.76302 0.75085 0.0
C1725 C 0.50572 0.7407 0.79427 0.0
C1726 C 0.50573 0.75428 0.78072 0.0
C1727 C 0.50613 0.7937 0.74143 0.0
C1728 C 0.50595 0.78012 0.75496 0.0
H1729 H 0.52959 0.72746 0.82899 0.0
H1730 H 0.5298 0.74939 0.80648 0.0
H1731 H 0.49796 0.73713 0.75994 0.0
H1732 H 0.48228 0.80759 0.70694 0.0
H1733 H 0.48192 0.78537 0.72922 0.0
C1734 C 0.2813 0.51096 0.78421 0.0
C1735 C 0.27725 0.50502 0.80088 0.0
C1736 C 0.26877 0.51012 0.771 0.0
C1737 C 0.2277 0.48755 0.75888 0.0
H1738 H 0.22193 0.52551 0.72675 0.0
C1739 C 0.16772 0.49305 0.71393 0.0
C1740 C 0.17063 0.49841 0.69684 0.0
C1741 C 0.18129 0.4936 0.72606 0.0
C1742 C 0.22353 0.51471 0.73549 0.0
H1743 H 0.25677 0.4938 0.81682 0.0
H1744 H 0.23495 0.49257 0.79393 0.0
H1745 H 0.24458 0.52714 0.74902 0.0
H1746 H 0.19011 0.50854 0.67909 0.0
H1747 H 0.21383 0.50945 0.70031 0.0
H1748 H 0.20655 0.47521 0.7455 0.0
C1749 C 0.24788 0.49758 0.79094 0.0
C1750 C 0.23651 0.51564 0.74825 0.0
C1751 C 0.26037 0.4984 0.8041 0.0
C1752 C 0.18743 0.50432 0.69215 0.0
C1753 C 0.201 0.50494 0.70432 0.0
C1754 C 0.21472 0.48665 0.74618 0.0
C1755 C 0.25195 0.50332 0.7742 0.0
C1756 C 0.23864 0.50213 0.7602 0.0
C1757 C 0.19807 0.49957 0.72141 0.0
C1758 C 0.21238 0.50028 0.73444 0.0
H1759 H 0.29419 0.5161 0.78129 0.0
H1760 H 0.27238 0.51451 0.75822 0.0
H1761 H 0.22922 0.47676 0.76765 0.0
H1762 H 0.15493 0.48847 0.718 0.0
H1763 H 0.17854 0.48959 0.73918 0.0
C1764 C 0.47185 0.2755 0.81358 0.0
C1765 C 0.48538 0.28784 0.81403 0.0
C1766 C 0.47181 0.2625 0.80107 0.0
C1767 C 0.49016 0.25091 0.75845 0.0
H1768 H 0.47805 0.20426 0.7722 0.0
C1769 C 0.50122 0.19194 0.71412 0.0
C1770 C 0.48801 0.17926 0.71373 0.0
C1771 C 0.50053 0.2054 0.72612 0.0
C1772 C 0.48125 0.21725 0.76811 0.0
H1773 H 0.50943 0.29629 0.80159 0.0
H1774 H 0.50944 0.2735 0.77985 0.0
H1775 H 0.47753 0.2274 0.79353 0.0
H1776 H 0.46364 0.17085 0.72557 0.0
H1777 H 0.46239 0.19441 0.74643 0.0
H1778 H 0.49397 0.24072 0.73303 0.0
C1779 C 0.49875 0.274 0.78906 0.0
C1780 C 0.48096 0.23052 0.78033 0.0
C1781 C 0.49879 0.287 0.80158 0.0
C1782 C 0.47406 0.18038 0.72556 0.0
C1783 C 0.47338 0.19383 0.73758 0.0
C1784 C 0.49047 0.23764 0.74622 0.0
C1785 C 0.4853 0.26155 0.78871 0.0
C1786 C 0.48544 0.2475 0.77565 0.0
C1787 C 0.48663 0.20648 0.73801 0.0
C1788 C 0.48605 0.22065 0.75093 0.0
H1789 H 0.46128 0.27582 0.82294 0.0
H1790 H 0.46112 0.25327 0.80101 0.0
H1791 H 0.49342 0.2639 0.75436 0.0
H1792 H 0.51218 0.19145 0.70521 0.0
H1793 H 0.51105 0.21482 0.72625 0.0
C1794 C 0.83016 0.49858 0.71598 0.0
C1795 C 0.83083 0.51008 0.70197 0.0
C1796 C 0.81587 0.49871 0.72729 0.0
C1797 C 0.77911 0.52604 0.74234 0.0
H1798 H 0.76041 0.48259 0.7591 0.0
C1799 C 0.71586 0.52223 0.78351 0.0
C1800 C 0.71636 0.51111 0.79784 0.0
C1801 C 0.72934 0.52197 0.77125 0.0
C1802 C 0.76557 0.49484 0.75465 0.0
H1803 H 0.81697 0.53074 0.68885 0.0
H1804 H 0.79194 0.53084 0.70848 0.0
H1805 H 0.78493 0.4825 0.73887 0.0
H1806 H 0.73136 0.49087 0.81043 0.0
H1807 H 0.75488 0.4905 0.78915 0.0
H1808 H 0.75976 0.53837 0.75817 0.0
C1809 C 0.80259 0.52187 0.71086 0.0
C1810 C 0.77964 0.49479 0.74307 0.0
C1811 C 0.8169 0.52176 0.69956 0.0
C1812 C 0.73053 0.4996 0.79953 0.0
C1813 C 0.74398 0.49931 0.78728 0.0
C1814 C 0.76502 0.52609 0.7539 0.0
C1815 C 0.80188 0.51032 0.72484 0.0
C1816 C 0.78665 0.51039 0.73686 0.0
C1817 C 0.74359 0.51054 0.77304 0.0
C1818 C 0.75816 0.51049 0.76028 0.0
H1819 H 0.84071 0.48945 0.71826 0.0
H1820 H 0.81588 0.48983 0.73808 0.0
H1821 H 0.78435 0.53829 0.73798 0.0
H1822 H 0.7051 0.53123 0.78179 0.0
H1823 H 0.72856 0.53064 0.76032 0.0
C1824 C 0.4924 0.18038 0.28252 0.0
C1825 C 0.50298 0.18355 0.29705 0.0
C1826 C 0.49061 0.19285 0.26963 0.0
C1827 C 0.51242 0.23076 0.25091 0.0
H1828 H 0.46658 0.23957 0.23088 0.0
C1829 C 0.50113 0.28435 0.20018 0.0
C1830 C 0.49016 0.28018 0.18618 0.0
C1831 C 0.50239 0.2733 0.21439 0.0
C1832 C 0.4795 0.23715 0.23622 0.0
H1833 H 0.51998 0.20232 0.30944 0.0
H1834 H 0.51685 0.22411 0.28688 0.0
H1835 H 0.46943 0.21884 0.25439 0.0
H1836 H 0.47187 0.26116 0.17617 0.0
H1837 H 0.47427 0.2418 0.20078 0.0
H1838 H 0.52256 0.24886 0.23257 0.0
C1839 C 0.51003 0.21192 0.28545 0.0
C1840 C 0.48112 0.22529 0.2497 0.0
C1841 C 0.51175 0.19947 0.2984 0.0
C1842 C 0.4804 0.26479 0.18676 0.0
C1843 C 0.48169 0.25374 0.20094 0.0
C1844 C 0.51081 0.24259 0.23738 0.0
C1845 C 0.49941 0.20875 0.27094 0.0
C1846 C 0.49762 0.22186 0.2571 0.0
C1847 C 0.49273 0.25783 0.2149 0.0
C1848 C 0.49435 0.24582 0.22978 0.0
H1849 H 0.48548 0.16824 0.28106 0.0
H1850 H 0.48252 0.18994 0.2585 0.0
H1851 H 0.52534 0.22825 0.25622 0.0
H1852 H 0.50878 0.29615 0.20017 0.0
H1853 H 0.51085 0.27694 0.22503 0.0
C1854 C 0.79597 0.49331 0.30289 0.0
C1855 C 0.81275 0.49826 0.29711 0.0
C1856 C 0.78142 0.49448 0.29191 0.0
C1857 C 0.76597 0.51572 0.25188 0.0
H1858 H 0.7338 0.47699 0.24899 0.0
C1859 C 0.71996 0.50539 0.194 0.0
C1860 C 0.70292 0.49907 0.19701 0.0
C1861 C 0.73208 0.50659 0.20746 0.0
C1862 C 0.74249 0.48804 0.24984 0.0
H1863 H 0.82734 0.50847 0.27532 0.0
H1864 H 0.80206 0.51037 0.25622 0.0
H1865 H 0.75736 0.47666 0.27036 0.0
H1866 H 0.68516 0.48932 0.21662 0.0
H1867 H 0.70639 0.49146 0.24019 0.0
H1868 H 0.75132 0.52696 0.23117 0.0
C1869 C 0.80008 0.50577 0.26927 0.0
C1870 C 0.756 0.48785 0.26208 0.0
C1871 C 0.81461 0.50456 0.2802 0.0
C1872 C 0.69819 0.49422 0.21386 0.0
C1873 C 0.71037 0.49536 0.22735 0.0
C1874 C 0.75249 0.51591 0.23966 0.0
C1875 C 0.78333 0.50071 0.27497 0.0
C1876 C 0.76808 0.50155 0.26303 0.0
C1877 C 0.72749 0.50146 0.22426 0.0
C1878 C 0.74079 0.50194 0.23829 0.0
H1879 H 0.79408 0.48843 0.31585 0.0
H1880 H 0.76865 0.4906 0.29671 0.0
H1881 H 0.77486 0.52663 0.25252 0.0
H1882 H 0.72405 0.50922 0.18117 0.0
H1883 H 0.74522 0.51111 0.20459 0.0
C1884 C 0.5 0.71717 0.18655 0.0
C1885 C 0.48652 0.71631 0.17418 0.0
C1886 C 0.49896 0.72886 0.20027 0.0
C1887 C 0.47744 0.76962 0.21301 0.0
H1888 H 0.49251 0.75677 0.25907 0.0
C1889 C 0.46771 0.81485 0.27128 0.0
C1890 C 0.48192 0.8165 0.28275 0.0
C1891 C 0.46773 0.80204 0.25859 0.0
C1892 C 0.48839 0.76059 0.24625 0.0
H1893 H 0.46122 0.72684 0.16669 0.0
H1894 H 0.45934 0.74708 0.19069 0.0
H1895 H 0.49354 0.73546 0.23586 0.0
H1896 H 0.50719 0.80575 0.29006 0.0
H1897 H 0.50727 0.78347 0.2678 0.0
H1898 H 0.47238 0.79475 0.22334 0.0
C1899 C 0.47084 0.73891 0.18965 0.0
C1900 C 0.489 0.74839 0.23295 0.0
C1901 C 0.47188 0.72724 0.17594 0.0
C1902 C 0.49602 0.80483 0.28144 0.0
C1903 C 0.49603 0.79199 0.26874 0.0
C1904 C 0.47683 0.7818 0.2263 0.0
C1905 C 0.48442 0.73995 0.20192 0.0
C1906 C 0.48356 0.75278 0.21617 0.0
C1907 C 0.48196 0.79056 0.25706 0.0
C1908 C 0.48232 0.77744 0.24306 0.0
H1909 H 0.51147 0.70894 0.18556 0.0
H1910 H 0.50974 0.72947 0.20938 0.0
H1911 H 0.47345 0.77352 0.20018 0.0
H1912 H 0.4566 0.82357 0.27199 0.0
H1913 H 0.45657 0.80111 0.24996 0.0
C1914 C 0.28164 0.51035 0.20248 0.0
C1915 C 0.29553 0.49841 0.20336 0.0
C1916 C 0.26999 0.51223 0.21627 0.0
C1917 C 0.25193 0.48846 0.253 0.0
H1918 H 0.23394 0.53339 0.26639 0.0
C1919 C 0.1871 0.49727 0.29017 0.0
C1920 C 0.18637 0.50988 0.3032 0.0
C1921 C 0.20194 0.49575 0.27969 0.0
C1922 C 0.23898 0.52077 0.26295 0.0
H1923 H 0.30827 0.47932 0.21958 0.0
H1924 H 0.28785 0.48259 0.24369 0.0
H1925 H 0.25755 0.53144 0.24514 0.0
H1926 H 0.20076 0.53064 0.31561 0.0
H1927 H 0.2267 0.52801 0.29719 0.0
H1928 H 0.23322 0.47778 0.27066 0.0
C1929 C 0.28595 0.49041 0.23225 0.0
C1930 C 0.25238 0.51964 0.25067 0.0
C1931 C 0.29768 0.48859 0.21847 0.0
C1932 C 0.2009 0.52081 0.30566 0.0
C1933 C 0.21572 0.51936 0.29508 0.0
C1934 C 0.23847 0.48958 0.26521 0.0
C1935 C 0.27191 0.50217 0.23124 0.0
C1936 C 0.25881 0.50347 0.24537 0.0
C1937 C 0.21636 0.50685 0.28193 0.0
C1938 C 0.23167 0.50573 0.27012 0.0
H1939 H 0.27961 0.51813 0.19103 0.0
H1940 H 0.25918 0.52124 0.215 0.0
H1941 H 0.25652 0.47581 0.2491 0.0
H1942 H 0.17615 0.48861 0.28795 0.0
H1943 H 0.20193 0.48613 0.26953 0.0
C1944 C 0.82556 0.71351 0.5034 0.0
C1945 C 0.82539 0.69846 0.49326 0.0
C1946 C 0.81034 0.72337 0.50543 0.0
C1947 C 0.76793 0.73264 0.48463 0.0
H1948 H 0.75711 0.75406 0.52862 0.0
C1949 C 0.72009 0.78977 0.491 0.0
C1950 C 0.70898 0.7905 0.50548 0.0
C1951 C 0.73297 0.77701 0.4897 0.0
C1952 C 0.75981 0.74801 0.5163 0.0
H1953 H 0.80901 0.68185 0.47744 0.0
H1954 H 0.78239 0.69904 0.48106 0.0
H1955 H 0.78204 0.73439 0.52638 0.0
H1956 H 0.70246 0.77817 0.52978 0.0
H1957 H 0.72497 0.75578 0.52744 0.0
H1958 H 0.74569 0.74623 0.47456 0.0
C1959 C 0.79437 0.7033 0.4873 0.0
C1960 C 0.77422 0.7369 0.51497 0.0
C1961 C 0.80961 0.69342 0.48528 0.0
C1962 C 0.71084 0.77799 0.51849 0.0
C1963 C 0.72379 0.76522 0.51719 0.0
C1964 C 0.75354 0.74376 0.48596 0.0
C1965 C 0.79458 0.71842 0.49736 0.0
C1966 C 0.77859 0.72928 0.49906 0.0
C1967 C 0.73508 0.76468 0.50283 0.0
C1968 C 0.74946 0.75176 0.50175 0.0
H1969 H 0.83751 0.71778 0.50971 0.0
H1970 H 0.81101 0.73508 0.51305 0.0
H1971 H 0.771 0.72708 0.47216 0.0
H1972 H 0.71903 0.79921 0.48074 0.0
H1973 H 0.74161 0.77712 0.47859 0.0
C1974 C 0.72998 0.18956 0.50109 0.0
C1975 C 0.71349 0.19288 0.49362 0.0
C1976 C 0.74222 0.2028 0.50314 0.0
C1977 C 0.75403 0.24617 0.4871 0.0
H1978 H 0.78424 0.24584 0.52739 0.0
C1979 C 0.81868 0.2849 0.49042 0.0
C1980 C 0.82423 0.29139 0.50645 0.0
C1981 C 0.80368 0.27457 0.48925 0.0
C1982 C 0.77577 0.24634 0.51617 0.0
H1983 H 0.69687 0.21277 0.48259 0.0
H1984 H 0.7182 0.23604 0.48648 0.0
H1985 H 0.76061 0.22492 0.5251 0.0
H1986 H 0.81795 0.29282 0.53371 0.0
H1987 H 0.79152 0.27521 0.53162 0.0
H1988 H 0.76903 0.26784 0.47834 0.0
C1989 C 0.72175 0.2231 0.49048 0.0
C1990 C 0.76235 0.23415 0.51474 0.0
C1991 C 0.70949 0.20979 0.48832 0.0
C1992 C 0.81413 0.28784 0.5212 0.0
C1993 C 0.79902 0.27767 0.52 0.0
C1994 C 0.76739 0.25848 0.4886 0.0
C1995 C 0.73826 0.21974 0.49793 0.0
C1996 C 0.75153 0.23368 0.50003 0.0
C1997 C 0.79377 0.27064 0.50406 0.0
C1998 C 0.77862 0.25853 0.50303 0.0
H1999 H 0.73354 0.17666 0.50522 0.0
H2000 H 0.75493 0.19965 0.50859 0.0
H2001 H 0.74601 0.24614 0.47555 0.0
H2002 H 0.82621 0.28738 0.47881 0.0
H2003 H 0.8002 0.26921 0.4768 0.0
C2004 C 0.26417 0.80563 0.49789 0.0
C2005 C 0.28172 0.80045 0.50019 0.0
C2006 C 0.2506 0.79351 0.49829 0.0
C2007 C 0.24092 0.74709 0.49372 0.0
H2008 H 0.19879 0.75893 0.51929 0.0
C2009 C 0.18465 0.69814 0.50586 0.0
C2010 C 0.16741 0.70444 0.50425 0.0
C2011 C 0.19897 0.70947 0.50559 0.0
C2012 C 0.21038 0.75549 0.51194 0.0
H2013 H 0.29879 0.7784 0.50438 0.0
H2014 H 0.27502 0.75722 0.50511 0.0
H2015 H 0.22307 0.77936 0.51803 0.0
H2016 H 0.1517 0.72761 0.50097 0.0
H2017 H 0.17659 0.74727 0.5003 0.0
H2018 H 0.22813 0.72324 0.48753 0.0
C2019 C 0.27181 0.77067 0.50291 0.0
C2020 C 0.2243 0.7672 0.51123 0.0
C2021 C 0.28541 0.78282 0.50256 0.0
C2022 C 0.1648 0.72231 0.50234 0.0
C2023 C 0.17908 0.73361 0.50205 0.0
C2024 C 0.22695 0.73537 0.4944 0.0
C2025 C 0.25424 0.77592 0.50097 0.0
C2026 C 0.23967 0.7632 0.50201 0.0
C2027 C 0.19634 0.72735 0.5037 0.0
C2028 C 0.21146 0.73949 0.50342 0.0
H2029 H 0.26085 0.81909 0.49596 0.0
H2030 H 0.23722 0.79792 0.49647 0.0
H2031 H 0.25253 0.7437 0.48639 0.0
H2032 H 0.18712 0.68444 0.50738 0.0
H2033 H 0.21208 0.70424 0.50707 0.0
C2034 C 0.16777 0.28045 0.49837 0.0
C2035 C 0.16864 0.29747 0.49214 0.0
C2036 C 0.18299 0.27052 0.49998 0.0
C2037 C 0.22796 0.26635 0.48334 0.0
H2038 H 0.23418 0.23659 0.52313 0.0
C2039 C 0.28978 0.22371 0.49227 0.0
C2040 C 0.28668 0.20667 0.49772 0.0
C2041 C 0.27628 0.23597 0.49264 0.0
C2042 C 0.23259 0.24475 0.51188 0.0
H2043 H 0.18622 0.31745 0.48281 0.0
H2044 H 0.21285 0.30005 0.48566 0.0
H2045 H 0.20889 0.25587 0.52176 0.0
H2046 H 0.26701 0.1892 0.50804 0.0
H2047 H 0.24351 0.21046 0.50852 0.0
H2048 H 0.25149 0.25499 0.47331 0.0
C2049 C 0.20034 0.29439 0.48918 0.0
C2050 C 0.2181 0.25579 0.5111 0.0
C2051 C 0.1851 0.30437 0.48762 0.0
C2052 C 0.26988 0.20222 0.50378 0.0
C2053 C 0.25641 0.21445 0.50417 0.0
C2054 C 0.24245 0.25527 0.4841 0.0
C2055 C 0.19944 0.27735 0.49537 0.0
C2056 C 0.21549 0.26653 0.49671 0.0
C2057 C 0.25941 0.23144 0.4985 0.0
C2058 C 0.24479 0.24416 0.49827 0.0
H2059 H 0.15531 0.27473 0.50195 0.0
H2060 H 0.18183 0.25736 0.50457 0.0
H2061 H 0.22622 0.27434 0.472 0.0
H2062 H 0.30259 0.22757 0.48756 0.0
H2063 H 0.27905 0.249 0.48836 0.0
C2064 C 0.05361 0.34945 0.1366 0.0
C2065 C 0.04681 0.36581 0.14078 0.0
C2066 C 0.06806 0.3479 0.12557 0.0
C2067 C 0.1054 0.37244 0.10739 0.0
H2068 H 0.10358 0.33807 0.07102 0.0
C2069 C 0.15078 0.37423 0.04784 0.0
C2070 C 0.1568 0.3585 0.04099 0.0
C2071 C 0.13874 0.37443 0.06145 0.0
C2072 C 0.10445 0.34755 0.08127 0.0
H2073 H 0.04998 0.39337 0.13681 0.0
H2074 H 0.07507 0.39065 0.11749 0.0
H2075 H 0.07982 0.33969 0.09203 0.0
H2076 H 0.15541 0.33063 0.04349 0.0
H2077 H 0.13453 0.33098 0.06737 0.0
H2078 H 0.12992 0.38044 0.09648 0.0
C2079 C 0.06935 0.37903 0.12287 0.0
C2080 C 0.09081 0.34848 0.0933 0.0
C2081 C 0.05489 0.38058 0.13385 0.0
C2082 C 0.15096 0.34297 0.04841 0.0
C2083 C 0.13891 0.34316 0.06202 0.0
C2084 C 0.11905 0.37148 0.09536 0.0
C2085 C 0.07605 0.36267 0.11854 0.0
C2086 C 0.09104 0.36107 0.10637 0.0
C2087 C 0.13247 0.35889 0.06853 0.0
C2088 C 0.11863 0.35915 0.08205 0.0
H2089 H 0.04773 0.33782 0.14177 0.0
H2090 H 0.07303 0.33513 0.12262 0.0
H2091 H 0.10609 0.38209 0.11748 0.0
H2092 H 0.15501 0.38644 0.04243 0.0
H2093 H 0.13391 0.38676 0.06602 0.0
C2094 C 0.62412 0.04416 0.12809 0.0
C2095 C 0.63048 0.04844 0.14457 0.0
C2096 C 0.6229 0.05669 0.11522 0.0
C2097 C 0.62072 0.10393 0.10852 0.0
H2098 H 0.62977 0.09097 0.06099 0.0
C2099 C 0.62099 0.1519 0.05047 0.0
C2100 C 0.61194 0.14623 0.03569 0.0
C2101 C 0.62355 0.14076 0.06448 0.0
C2102 C 0.62711 0.09474 0.0742 0.0
H2103 H 0.64081 0.06921 0.16038 0.0
H2104 H 0.63903 0.09107 0.13771 0.0
H2105 H 0.63474 0.07006 0.08392 0.0
H2106 H 0.59802 0.1246 0.02424 0.0
H2107 H 0.60259 0.10523 0.04857 0.0
H2108 H 0.61327 0.12876 0.09861 0.0
C2109 C 0.63468 0.07807 0.13487 0.0
C2110 C 0.62991 0.08276 0.08735 0.0
C2111 C 0.63581 0.06552 0.14783 0.0
C2112 C 0.6051 0.12938 0.03539 0.0
C2113 C 0.6078 0.11823 0.04928 0.0
C2114 C 0.61808 0.11601 0.09533 0.0
C2115 C 0.62814 0.0738 0.11842 0.0
C2116 C 0.62645 0.08708 0.10465 0.0
C2117 C 0.61726 0.12372 0.06385 0.0
C2118 C 0.62096 0.11141 0.07802 0.0
H2119 H 0.61978 0.03116 0.12516 0.0
H2120 H 0.61748 0.05298 0.10284 0.0
H2121 H 0.61776 0.10766 0.12167 0.0
H2122 H 0.6264 0.16483 0.0511 0.0
H2123 H 0.63091 0.1453 0.07555 0.0
C2124 C 0.93785 0.65194 0.13572 0.0
C2125 C 0.94347 0.6357 0.14166 0.0
C2126 C 0.92339 0.6533 0.12466 0.0
C2127 C 0.8845 0.62927 0.10857 0.0
H2128 H 0.88922 0.65916 0.06871 0.0
C2129 C 0.84134 0.62273 0.04773 0.0
C2130 C 0.83621 0.63786 0.03908 0.0
C2131 C 0.85282 0.62355 0.06179 0.0
C2132 C 0.88755 0.65096 0.07992 0.0
H2133 H 0.93809 0.60819 0.14091 0.0
H2134 H 0.91308 0.61054 0.1215 0.0
H2135 H 0.91229 0.65871 0.0905 0.0
H2136 H 0.83863 0.66579 0.0388 0.0
H2137 H 0.85859 0.6672 0.06339 0.0
H2138 H 0.85992 0.62126 0.09776 0.0
C2139 C 0.91968 0.62226 0.12554 0.0
C2140 C 0.90078 0.65071 0.09241 0.0
C2141 C 0.93411 0.6209 0.13658 0.0
C2142 C 0.84239 0.65388 0.04512 0.0
C2143 C 0.8539 0.65469 0.05916 0.0
C2144 C 0.87128 0.62951 0.09606 0.0
C2145 C 0.91424 0.63845 0.11932 0.0
C2146 C 0.89953 0.63968 0.10677 0.0
C2147 C 0.85944 0.63951 0.06749 0.0
C2148 C 0.87277 0.64019 0.08148 0.0
H2149 H 0.94473 0.66361 0.13946 0.0
H2150 H 0.9194 0.66598 0.12026 0.0
H2151 H 0.883 0.62084 0.11963 0.0
H2152 H 0.83682 0.61019 0.04342 0.0
H2153 H 0.85697 0.6116 0.0678 0.0
C2154 C 0.37089 0.85708 0.04727 0.0
C2155 C 0.35732 0.85647 0.03497 0.0
C2156 C 0.37086 0.86972 0.06019 0.0
C2157 C 0.35276 0.91286 0.06992 0.0
H2158 H 0.3658 0.90206 0.11707 0.0
C2159 C 0.34477 0.96225 0.12506 0.0
C2160 C 0.35862 0.96348 0.13699 0.0
C2161 C 0.34432 0.9488 0.11302 0.0
C2162 C 0.36229 0.90531 0.10392 0.0
H2163 H 0.33291 0.86844 0.02681 0.0
H2164 H 0.33279 0.8903 0.04935 0.0
H2165 H 0.36573 0.87923 0.09531 0.0
H2166 H 0.38279 0.95144 0.14574 0.0
H2167 H 0.38208 0.9281 0.12466 0.0
H2168 H 0.34939 0.93892 0.07845 0.0
C2169 C 0.34359 0.8812 0.04888 0.0
C2170 C 0.36226 0.89224 0.09146 0.0
C2171 C 0.34362 0.86859 0.03601 0.0
C2172 C 0.3719 0.95086 0.13675 0.0
C2173 C 0.37145 0.93741 0.12472 0.0
C2174 C 0.35279 0.92592 0.08235 0.0
C2175 C 0.35728 0.88202 0.06103 0.0
C2176 C 0.35745 0.89586 0.07432 0.0
C2177 C 0.35772 0.93629 0.11265 0.0
C2178 C 0.35754 0.9223 0.0995 0.0
H2179 H 0.38165 0.84793 0.04681 0.0
H2180 H 0.38167 0.8701 0.06927 0.0
H2181 H 0.34929 0.91615 0.05676 0.0
H2182 H 0.3343 0.97172 0.12493 0.0
H2183 H 0.33343 0.94817 0.10405 0.0
C2184 C 0.04382 0.61253 0.87177 0.0
C2185 C 0.0406 0.62638 0.86049 0.0
C2186 C 0.05846 0.61265 0.88262 0.0
C2187 C 0.09011 0.64219 0.90314 0.0
H2188 H 0.11564 0.59986 0.91255 0.0
C2189 C 0.14985 0.64085 0.94893 0.0
C2190 C 0.14971 0.62759 0.96133 0.0
C2191 C 0.13823 0.64043 0.93496 0.0
C2192 C 0.1086 0.61177 0.9101 0.0
H2193 H 0.05038 0.65113 0.8516 0.0
H2194 H 0.07607 0.65127 0.87047 0.0
H2195 H 0.09206 0.59983 0.89122 0.0
H2196 H 0.13774 0.60317 0.9684 0.0
H2197 H 0.11746 0.60249 0.94409 0.0
H2198 H 0.10649 0.65407 0.9222 0.0
C2199 C 0.06713 0.64041 0.87106 0.0
C2200 C 0.09507 0.61175 0.8979 0.0
C2201 C 0.05245 0.6403 0.8602 0.0
C2202 C 0.13818 0.6136 0.95909 0.0
C2203 C 0.12661 0.61316 0.9451 0.0
C2204 C 0.10367 0.64221 0.91531 0.0
C2205 C 0.07027 0.6266 0.88244 0.0
C2206 C 0.08549 0.6269 0.89447 0.0
C2207 C 0.12629 0.62672 0.93304 0.0
C2208 C 0.1129 0.62695 0.9191 0.0
H2209 H 0.03494 0.60161 0.87235 0.0
H2210 H 0.06032 0.60193 0.89142 0.0
H2211 H 0.08286 0.65403 0.90098 0.0
H2212 H 0.15863 0.65179 0.95023 0.0
H2213 H 0.13846 0.65095 0.92575 0.0
C2214 C 0.37477 0.05632 0.84096 0.0
C2215 C 0.37912 0.03901 0.84437 0.0
C2216 C 0.37585 0.06876 0.85402 0.0
C2217 C 0.37804 0.07302 0.90173 0.0
H2218 H 0.39509 0.11911 0.89154 0.0
C2219 C 0.39657 0.12086 0.95532 0.0
C2220 C 0.38941 0.13754 0.95397 0.0
C2221 C 0.39571 0.10942 0.94143 0.0
C2222 C 0.3902 0.10632 0.89452 0.0
H2223 H 0.38822 0.02123 0.86408 0.0
H2224 H 0.39054 0.04291 0.88662 0.0
H2225 H 0.39255 0.09789 0.8683 0.0
H2226 H 0.37636 0.15552 0.93674 0.0
H2227 H 0.37506 0.13549 0.91235 0.0
H2228 H 0.37602 0.08137 0.92798 0.0
C2229 C 0.38586 0.04687 0.87403 0.0
C2230 C 0.38867 0.09417 0.88122 0.0
C2231 C 0.38463 0.03443 0.86105 0.0
C2232 C 0.38196 0.14274 0.9382 0.0
C2233 C 0.38126 0.13132 0.92422 0.0
C2234 C 0.37974 0.08509 0.915 0.0
C2235 C 0.38143 0.06419 0.87072 0.0
C2236 C 0.38265 0.07734 0.88469 0.0
C2237 C 0.38783 0.11444 0.92582 0.0
C2238 C 0.38591 0.10182 0.91156 0.0
H2239 H 0.37041 0.06024 0.82825 0.0
H2240 H 0.37211 0.08193 0.85106 0.0
H2241 H 0.37298 0.06033 0.90483 0.0
H2242 H 0.40245 0.11645 0.96726 0.0
H2243 H 0.4011 0.09655 0.94293 0.0
C2244 C 0.8508 0.34304 0.95182 0.0
C2245 C 0.85026 0.35619 0.96433 0.0
C2246 C 0.86249 0.34407 0.93794 0.0
C2247 C 0.89075 0.37434 0.9135 0.0
H2248 H 0.91794 0.33324 0.90319 0.0
C2249 C 0.95474 0.37655 0.87391 0.0
C2250 C 0.95811 0.36306 0.86224 0.0
C2251 C 0.94039 0.37573 0.88511 0.0
C2252 C 0.91028 0.34476 0.90571 0.0
H2253 H 0.86117 0.38098 0.97177 0.0
H2254 H 0.8816 0.38271 0.94764 0.0
H2255 H 0.89467 0.33193 0.92475 0.0
H2256 H 0.9489 0.33819 0.85301 0.0
H2257 H 0.92374 0.33683 0.8725 0.0
H2258 H 0.90652 0.38722 0.89461 0.0
C2259 C 0.87291 0.37167 0.94848 0.0
C2260 C 0.89694 0.34401 0.91807 0.0
C2261 C 0.86126 0.37063 0.96237 0.0
C2262 C 0.94671 0.34877 0.8619 0.0
C2263 C 0.93234 0.34795 0.87312 0.0
C2264 C 0.90408 0.37508 0.90112 0.0
C2265 C 0.87384 0.35828 0.93624 0.0
C2266 C 0.88716 0.35884 0.92225 0.0
C2267 C 0.92905 0.3614 0.88489 0.0
C2268 C 0.91415 0.36035 0.89724 0.0
H2269 H 0.84245 0.33177 0.95291 0.0
H2270 H 0.86273 0.33366 0.9286 0.0
H2271 H 0.88327 0.38592 0.91625 0.0
H2272 H 0.96327 0.38773 0.87453 0.0
H2273 H 0.93839 0.38618 0.89419 0.0
C2274 C 0.62332 0.86559 0.94443 0.0
C2275 C 0.63719 0.8648 0.95639 0.0
C2276 C 0.62338 0.87797 0.9313 0.0
C2277 C 0.64201 0.92051 0.92058 0.0
H2278 H 0.62714 0.90941 0.87401 0.0
C2279 C 0.64721 0.96982 0.86505 0.0
C2280 C 0.63292 0.97077 0.85362 0.0
C2281 C 0.64834 0.95642 0.87708 0.0
C2282 C 0.63117 0.91275 0.88699 0.0
H2283 H 0.66219 0.87615 0.9637 0.0
H2284 H 0.66232 0.89764 0.94077 0.0
H2285 H 0.62792 0.88676 0.8959 0.0
H2286 H 0.60864 0.95832 0.84577 0.0
H2287 H 0.6105 0.93513 0.8669 0.0
H2288 H 0.64509 0.9465 0.91179 0.0
C2289 C 0.65129 0.88884 0.94168 0.0
C2290 C 0.63162 0.89977 0.89952 0.0
C2291 C 0.65125 0.87646 0.95476 0.0
C2292 C 0.61986 0.95795 0.85437 0.0
C2293 C 0.62098 0.94458 0.86641 0.0
C2294 C 0.64153 0.93348 0.90807 0.0
C2295 C 0.63729 0.88985 0.92989 0.0
C2296 C 0.63702 0.90352 0.91646 0.0
C2297 C 0.63519 0.9437 0.87797 0.0
C2298 C 0.63607 0.92977 0.89114 0.0
H2299 H 0.6123 0.85679 0.94534 0.0
H2300 H 0.61233 0.87852 0.92251 0.0
H2301 H 0.64596 0.92387 0.93358 0.0
H2302 H 0.65754 0.97944 0.86476 0.0
H2303 H 0.65959 0.95599 0.88564 0.0
C2304 C 0.14504 0.05648 0.35213 0.0
C2305 C 0.14232 0.04148 0.34226 0.0
C2306 C 0.13221 0.06935 0.35284 0.0
C2307 C 0.09322 0.08637 0.33032 0.0
H2308 H 0.08196 0.10579 0.37514 0.0
C2309 C 0.03206 0.12883 0.34159 0.0
C2310 C 0.03371 0.14311 0.35268 0.0
C2311 C 0.04571 0.11689 0.33998 0.0
C2312 C 0.0851 0.10069 0.36249 0.0
H2313 H 0.12413 0.02837 0.32513 0.0
H2314 H 0.10169 0.05088 0.32643 0.0
H2315 H 0.10509 0.08416 0.37271 0.0
H2316 H 0.05109 0.15615 0.37066 0.0
H2317 H 0.07502 0.13539 0.36767 0.0
H2318 H 0.07323 0.10289 0.3201 0.0
C2319 C 0.11381 0.05271 0.33352 0.0
C2320 C 0.09835 0.08828 0.36111 0.0
C2321 C 0.12663 0.03978 0.33285 0.0
C2322 C 0.04936 0.14524 0.36206 0.0
C2323 C 0.06305 0.1333 0.36041 0.0
C2324 C 0.08 0.09883 0.3317 0.0
C2325 C 0.1164 0.06755 0.34367 0.0
C2326 C 0.10251 0.08094 0.34502 0.0
C2327 C 0.06136 0.11897 0.34937 0.0
C2328 C 0.07574 0.10608 0.34781 0.0
H2329 H 0.157 0.05824 0.3595 0.0
H2330 H 0.1347 0.08075 0.36058 0.0
H2331 H 0.0963 0.08113 0.31772 0.0
H2332 H 0.02015 0.12676 0.33421 0.0
H2333 H 0.04386 0.10586 0.33156 0.0
C2334 C 0.91499 0.15398 0.34327 0.0
C2335 C 0.9324 0.14837 0.34566 0.0
C2336 C 0.901 0.14231 0.34469 0.0
C2337 C 0.88943 0.10033 0.36387 0.0
H2338 H 0.85373 0.09799 0.32824 0.0
C2339 C 0.84624 0.04047 0.35451 0.0
C2340 C 0.82859 0.04257 0.34962 0.0
C2341 C 0.85749 0.05466 0.35538 0.0
C2342 C 0.86341 0.09867 0.33847 0.0
H2343 H 0.94876 0.12612 0.3514 0.0
H2344 H 0.92446 0.10591 0.35387 0.0
H2345 H 0.87601 0.12069 0.32715 0.0
H2346 H 0.80883 0.0613 0.34207 0.0
H2347 H 0.82851 0.08619 0.34376 0.0
H2348 H 0.87704 0.07827 0.37512 0.0
C2349 C 0.92158 0.11932 0.35104 0.0
C2350 C 0.87618 0.11165 0.33782 0.0
C2351 C 0.93552 0.1309 0.34948 0.0
C2352 C 0.82237 0.05925 0.34585 0.0
C2353 C 0.83366 0.07349 0.34673 0.0
C2354 C 0.87665 0.08744 0.36457 0.0
C2355 C 0.90418 0.12489 0.34871 0.0
C2356 C 0.88955 0.11235 0.3503 0.0
C2357 C 0.85138 0.07133 0.35142 0.0
C2358 C 0.86373 0.08619 0.35166 0.0
H2359 H 0.91216 0.16736 0.34031 0.0
H2360 H 0.8877 0.14696 0.34289 0.0
H2361 H 0.89938 0.10077 0.37386 0.0
H2362 H 0.8515 0.02781 0.35743 0.0
H2363 H 0.87112 0.05247 0.35874 0.0
C2364 C 0.87265 0.96223 0.33318 0.0
C2365 C 0.8548 0.95907 0.33652 0.0
C2366 C 0.88479 0.9487 0.33326 0.0
C2367 C 0.8911 0.90467 0.35047 0.0
H2368 H 0.93044 0.90394 0.31868 0.0
C2369 C 0.94152 0.84858 0.34777 0.0
C2370 C 0.95928 0.85344 0.34661 0.0
C2371 C 0.92821 0.86091 0.34595 0.0
C2372 C 0.91958 0.90404 0.32772 0.0
H2373 H 0.83559 0.93911 0.34204 0.0
H2374 H 0.85674 0.91546 0.34189 0.0
H2375 H 0.90806 0.92631 0.31594 0.0
H2376 H 0.97698 0.87508 0.34275 0.0
H2377 H 0.9538 0.89651 0.33963 0.0
H2378 H 0.90269 0.88238 0.36224 0.0
C2379 C 0.86142 0.92846 0.33954 0.0
C2380 C 0.90676 0.91686 0.32617 0.0
C2381 C 0.84928 0.942 0.33951 0.0
C2382 C 0.96344 0.87088 0.34369 0.0
C2383 C 0.95015 0.88316 0.34177 0.0
C2384 C 0.90388 0.89179 0.35197 0.0
C2385 C 0.87936 0.93167 0.33662 0.0
C2386 C 0.89246 0.91745 0.33764 0.0
C2387 C 0.9324 0.87832 0.34282 0.0
C2388 C 0.91836 0.89146 0.34073 0.0
H2389 H 0.87736 0.97523 0.33088 0.0
H2390 H 0.89853 0.95168 0.33119 0.0
H2391 H 0.8804 0.90487 0.35969 0.0
H2392 H 0.93788 0.83525 0.35 0.0
H2393 H 0.91464 0.85678 0.34672 0.0
C2394 C 0.15609 0.95603 0.35055 0.0
C2395 C 0.15885 0.96422 0.36652 0.0
C2396 C 0.14499 0.9417 0.34932 0.0
C2397 C 0.12244 0.90816 0.37554 0.0
H2398 H 0.08938 0.90761 0.33745 0.0
C2399 C 0.05851 0.86846 0.37654 0.0
C2400 C 0.05303 0.86035 0.36123 0.0
C2401 C 0.07308 0.87941 0.37658 0.0
C2402 C 0.0987 0.90741 0.34801 0.0
H2403 H 0.15244 0.96351 0.3938 0.0
H2404 H 0.13291 0.93875 0.39161 0.0
H2405 H 0.11197 0.92986 0.33864 0.0
H2406 H 0.05882 0.85707 0.33401 0.0
H2407 H 0.08433 0.87624 0.3341 0.0
H2408 H 0.10882 0.88596 0.38513 0.0
C2409 C 0.1395 0.94321 0.38006 0.0
C2410 C 0.11167 0.92016 0.3487 0.0
C2411 C 0.15063 0.9575 0.3813 0.0
C2412 C 0.06267 0.86316 0.34601 0.0
C2413 C 0.07723 0.8742 0.34604 0.0
C2414 C 0.10943 0.89545 0.37488 0.0
C2415 C 0.13638 0.93526 0.36403 0.0
C2416 C 0.12354 0.92085 0.3626 0.0
C2417 C 0.0825 0.88254 0.36131 0.0
C2418 C 0.09725 0.89509 0.36125 0.0
H2419 H 0.1623 0.96083 0.33893 0.0
H2420 H 0.14307 0.93572 0.33682 0.0
H2421 H 0.13157 0.90813 0.38626 0.0
H2422 H 0.0514 0.86657 0.3885 0.0
H2423 H 0.07667 0.88581 0.38851 0.0
C2424 C 0.06659 0.83891 0.65229 0.0
C2425 C 0.04915 0.84491 0.65216 0.0
C2426 C 0.08059 0.85049 0.65404 0.0
C2427 C 0.09108 0.8944 0.66951 0.0
H2428 H 0.13171 0.89046 0.63958 0.0
C2429 C 0.14082 0.94974 0.66077 0.0
C2430 C 0.15868 0.94559 0.65876 0.0
C2431 C 0.12812 0.93673 0.66141 0.0
C2432 C 0.1206 0.89159 0.64824 0.0
H2433 H 0.03277 0.86782 0.65373 0.0
H2434 H 0.05713 0.88794 0.6567 0.0
H2435 H 0.10833 0.86899 0.6378 0.0
H2436 H 0.17726 0.92447 0.65635 0.0
H2437 H 0.15509 0.90175 0.65768 0.0
H2438 H 0.10324 0.91706 0.67987 0.0
C2439 C 0.05999 0.87427 0.65563 0.0
C2440 C 0.10719 0.87929 0.64719 0.0
C2441 C 0.04603 0.86273 0.6538 0.0
C2442 C 0.1636 0.92811 0.65782 0.0
C2443 C 0.15089 0.91509 0.65848 0.0
C2444 C 0.1045 0.90666 0.67059 0.0
C2445 C 0.07742 0.8683 0.65581 0.0
C2446 C 0.09218 0.88071 0.65765 0.0
C2447 C 0.13298 0.91926 0.6601 0.0
C2448 C 0.11931 0.90554 0.65981 0.0
H2449 H 0.06944 0.82526 0.65107 0.0
H2450 H 0.09388 0.84549 0.65425 0.0
H2451 H 0.07982 0.89567 0.67796 0.0
H2452 H 0.13656 0.96307 0.66149 0.0
H2453 H 0.11443 0.94042 0.66243 0.0
C2454 C 0.1317 0.0309 0.62721 0.0
C2455 C 0.14668 0.0316 0.63778 0.0
C2456 C 0.11998 0.04475 0.6266 0.0
C2457 C 0.10528 0.08242 0.65188 0.0
H2458 H 0.08108 0.09394 0.60936 0.0
C2459 C 0.05318 0.13708 0.64704 0.0
C2460 C 0.03756 0.13237 0.63855 0.0
C2461 C 0.06789 0.12623 0.6465 0.0
C2462 C 0.08771 0.09084 0.62134 0.0
H2463 H 0.16136 0.04761 0.65567 0.0
H2464 H 0.14098 0.07195 0.65441 0.0
H2465 H 0.10466 0.07263 0.60895 0.0
H2466 H 0.02521 0.11269 0.62272 0.0
H2467 H 0.05081 0.09389 0.62175 0.0
H2468 H 0.08816 0.10059 0.66425 0.0
C2469 C 0.13816 0.06055 0.6468 0.0
C2470 C 0.10119 0.07861 0.62112 0.0
C2471 C 0.14989 0.04664 0.64745 0.0
C2472 C 0.03702 0.1167 0.62941 0.0
C2473 C 0.05173 0.10598 0.62874 0.0
C2474 C 0.09185 0.09475 0.65207 0.0
C2475 C 0.12298 0.0597 0.63648 0.0
C2476 C 0.10989 0.07397 0.63644 0.0
C2477 C 0.06731 0.11059 0.6373 0.0
C2478 C 0.08269 0.09881 0.63686 0.0
H2479 H 0.12879 0.01949 0.61963 0.0
H2480 H 0.10829 0.04351 0.61873 0.0
H2481 H 0.11157 0.07903 0.66395 0.0
H2482 H 0.05401 0.14907 0.65419 0.0
H2483 H 0.07977 0.13014 0.65315 0.0
C2484 C 0.93474 0.14867 0.63437 0.0
C2485 C 0.95101 0.14725 0.64284 0.0
C2486 C 0.92159 0.13632 0.63706 0.0
C2487 C 0.90788 0.10154 0.66713 0.0
H2488 H 0.88242 0.08402 0.62747 0.0
C2489 C 0.8693 0.03744 0.66829 0.0
C2490 C 0.85317 0.03674 0.65949 0.0
C2491 C 0.87998 0.05207 0.66711 0.0
C2492 C 0.88922 0.08894 0.63872 0.0
H2493 H 0.96617 0.1318 0.66086 0.0
H2494 H 0.94343 0.11026 0.66534 0.0
H2495 H 0.9033 0.10759 0.62376 0.0
H2496 H 0.83543 0.05103 0.64283 0.0
H2497 H 0.85407 0.07656 0.64082 0.0
H2498 H 0.89404 0.08264 0.68202 0.0
C2499 C 0.94067 0.12102 0.65684 0.0
C2500 C 0.90119 0.10247 0.6366 0.0
C2501 C 0.95378 0.13333 0.65417 0.0
C2502 C 0.8478 0.05112 0.64974 0.0
C2503 C 0.85852 0.06572 0.64851 0.0
C2504 C 0.89595 0.08799 0.66924 0.0
C2505 C 0.92444 0.12231 0.64828 0.0
C2506 C 0.91082 0.10878 0.65074 0.0
C2507 C 0.8748 0.0663 0.65705 0.0
C2508 C 0.88664 0.08141 0.65503 0.0
H2509 H 0.93216 0.15926 0.62561 0.0
H2510 H 0.90916 0.13778 0.6304 0.0
H2511 H 0.91485 0.10631 0.67835 0.0
H2512 H 0.87382 0.02659 0.67591 0.0
H2513 H 0.89254 0.05203 0.67369 0.0
C2514 C 0.94887 0.86273 0.65573 0.0
C2515 C 0.94569 0.84545 0.65113 0.0
C2516 C 0.93523 0.87478 0.65576 0.0
C2517 C 0.88699 0.87942 0.6569 0.0
H2518 H 0.89703 0.92424 0.63687 0.0
C2519 C 0.83338 0.93148 0.64494 0.0
C2520 C 0.83803 0.94864 0.64875 0.0
C2521 C 0.84605 0.91838 0.64531 0.0
C2522 C 0.89405 0.91186 0.64267 0.0
H2523 H 0.92556 0.82719 0.64336 0.0
H2524 H 0.90171 0.84832 0.64335 0.0
H2525 H 0.9199 0.9023 0.63768 0.0
H2526 H 0.85958 0.96541 0.65625 0.0
H2527 H 0.88151 0.94262 0.65706 0.0
H2528 H 0.8611 0.88908 0.66193 0.0
C2529 C 0.91477 0.85249 0.64703 0.0
C2530 C 0.90717 0.89928 0.64314 0.0
C2531 C 0.92845 0.8404 0.64697 0.0
C2532 C 0.85555 0.95236 0.65313 0.0
C2533 C 0.86817 0.9393 0.6535 0.0
C2534 C 0.87384 0.89205 0.65645 0.0
C2535 C 0.91808 0.86986 0.6512 0.0
C2536 C 0.90386 0.88298 0.65039 0.0
C2537 C 0.86361 0.92218 0.64948 0.0
C2538 C 0.87728 0.90846 0.64947 0.0
H2539 H 0.96197 0.86705 0.65911 0.0
H2540 H 0.93815 0.888 0.65934 0.0
H2541 H 0.88408 0.86701 0.66268 0.0
H2542 H 0.81999 0.92819 0.64151 0.0
H2543 H 0.84215 0.90533 0.64201 0.0
C2544 C 0.37249 0.05176 0.1415 0.0
C2545 C 0.38136 0.03671 0.13625 0.0
C2546 C 0.37044 0.06564 0.13011 0.0
C2547 C 0.36922 0.07545 0.08376 0.0
H2548 H 0.37803 0.12273 0.09785 0.0
C2549 C 0.37527 0.1304 0.03441 0.0
C2550 C 0.36837 0.14671 0.03859 0.0
C2551 C 0.37587 0.11727 0.04672 0.0
C2552 C 0.37525 0.10963 0.09377 0.0
H2553 H 0.39529 0.02456 0.11503 0.0
H2554 H 0.39168 0.04871 0.09523 0.0
H2555 H 0.38119 0.09936 0.1188 0.0
H2556 H 0.3565 0.16196 0.05898 0.0
H2557 H 0.35728 0.13886 0.08046 0.0
H2558 H 0.3632 0.08559 0.0588 0.0
C2559 C 0.38619 0.04973 0.10809 0.0
C2560 C 0.37711 0.09625 0.10577 0.0
C2561 C 0.38835 0.03594 0.11949 0.0
C2562 C 0.36193 0.14954 0.05536 0.0
C2563 C 0.36248 0.13634 0.06769 0.0
C2564 C 0.36726 0.0888 0.07181 0.0
C2565 C 0.37708 0.06466 0.11321 0.0
C2566 C 0.37435 0.079 0.10081 0.0
C2567 C 0.3695 0.12006 0.06352 0.0
C2568 C 0.37049 0.10603 0.07659 0.0
H2569 H 0.36696 0.05277 0.15433 0.0
H2570 H 0.36329 0.07695 0.13438 0.0
H2571 H 0.36667 0.06232 0.07965 0.0
H2572 H 0.38045 0.12779 0.02165 0.0
H2573 H 0.38166 0.10501 0.04312 0.0
C2574 C 0.38053 0.93611 0.84681 0.0
C2575 C 0.36988 0.9503 0.85114 0.0
C2576 C 0.38027 0.92112 0.8569 0.0
C2577 C 0.35373 0.89849 0.89023 0.0
H2578 H 0.39798 0.87681 0.90235 0.0
C2579 C 0.36194 0.85528 0.94984 0.0
C2580 C 0.37183 0.84004 0.94818 0.0
C2581 C 0.36112 0.86713 0.93631 0.0
C2582 C 0.3855 0.88257 0.89888 0.0
H2583 H 0.35055 0.95984 0.8694 0.0
H2584 H 0.35033 0.93398 0.88706 0.0
H2585 H 0.39764 0.90053 0.88159 0.0
H2586 H 0.38857 0.82525 0.931 0.0
H2587 H 0.38728 0.84617 0.90735 0.0
H2588 H 0.3417 0.88092 0.90796 0.0
C2589 C 0.35865 0.93422 0.87572 0.0
C2590 C 0.38529 0.89613 0.88696 0.0
C2591 C 0.35887 0.94913 0.86564 0.0
C2592 C 0.38082 0.83687 0.93265 0.0
C2593 C 0.38015 0.84885 0.91915 0.0
C2594 C 0.35397 0.88504 0.9022 0.0
C2595 C 0.36935 0.92003 0.87151 0.0
C2596 C 0.36944 0.90449 0.88277 0.0
C2597 C 0.37029 0.8641 0.92087 0.0
C2598 C 0.36989 0.87716 0.90689 0.0
H2599 H 0.38911 0.93659 0.83567 0.0
H2600 H 0.38855 0.91036 0.85322 0.0
H2601 H 0.34124 0.90437 0.88699 0.0
H2602 H 0.35484 0.8581 0.96162 0.0
H2603 H 0.3536 0.87888 0.93808 0.0
C2604 C 0.06663 0.3444 0.84114 0.0
C2605 C 0.04966 0.34873 0.84686 0.0
C2606 C 0.08058 0.34326 0.85286 0.0
C2607 C 0.0939 0.35708 0.89671 0.0
H2608 H 0.12727 0.31935 0.89346 0.0
C2609 C 0.1409 0.34071 0.95221 0.0
C2610 C 0.15855 0.33748 0.94797 0.0
C2611 C 0.12815 0.34186 0.93931 0.0
C2612 C 0.11815 0.33005 0.89442 0.0
H2613 H 0.03404 0.35521 0.86939 0.0
H2614 H 0.05821 0.35301 0.88975 0.0
H2615 H 0.10409 0.32216 0.87179 0.0
H2616 H 0.17658 0.33246 0.92686 0.0
H2617 H 0.15421 0.33443 0.90429 0.0
H2618 H 0.10777 0.36484 0.91943 0.0
C2619 C 0.06086 0.35077 0.8762 0.0
C2620 C 0.10491 0.33169 0.882 0.0
C2621 C 0.04696 0.35193 0.86451 0.0
C2622 C 0.16309 0.33498 0.93055 0.0
C2623 C 0.15029 0.33604 0.91763 0.0
C2624 C 0.10706 0.3554 0.90913 0.0
C2625 C 0.07784 0.34643 0.87053 0.0
C2626 C 0.09251 0.34512 0.88312 0.0
C2627 C 0.13273 0.33974 0.92188 0.0
C2628 C 0.11921 0.34177 0.90823 0.0
H2629 H 0.06916 0.34187 0.82761 0.0
H2630 H 0.09354 0.34006 0.84805 0.0
H2631 H 0.0848 0.36779 0.89776 0.0
H2632 H 0.13692 0.34264 0.96549 0.0
H2633 H 0.11467 0.34443 0.94301 0.0
C2634 C 0.61184 0.13926 0.95307 0.0
C2635 C 0.62146 0.1542 0.94897 0.0
C2636 C 0.60967 0.12612 0.94093 0.0
C2637 C 0.612 0.11682 0.89412 0.0
H2638 H 0.6151 0.06936 0.9098 0.0
C2639 C 0.61548 0.05803 0.84781 0.0
C2640 C 0.60569 0.04335 0.85244 0.0
C2641 C 0.61684 0.07206 0.8591 0.0
C2642 C 0.614 0.08254 0.90525 0.0
H2643 H 0.63628 0.16708 0.92883 0.0
H2644 H 0.63272 0.14397 0.90767 0.0
H2645 H 0.61889 0.0928 0.9304 0.0
H2646 H 0.58929 0.03208 0.87239 0.0
H2647 H 0.59164 0.05655 0.89202 0.0
H2648 H 0.60729 0.10644 0.86889 0.0
C2649 C 0.62664 0.14255 0.92023 0.0
C2650 C 0.61617 0.09599 0.91706 0.0
C2651 C 0.62877 0.15575 0.93239 0.0
C2652 C 0.59699 0.04315 0.86844 0.0
C2653 C 0.59842 0.05713 0.87974 0.0
C2654 C 0.6099 0.10334 0.88228 0.0
C2655 C 0.61713 0.12754 0.92439 0.0
C2656 C 0.61511 0.11329 0.91167 0.0
C2657 C 0.60852 0.07165 0.87529 0.0
C2658 C 0.61079 0.08605 0.88775 0.0
H2659 H 0.60592 0.1377 0.96569 0.0
H2660 H 0.602 0.11489 0.94447 0.0
H2661 H 0.61089 0.13 0.88958 0.0
H2662 H 0.62234 0.05859 0.83558 0.0
H2663 H 0.62483 0.08302 0.85536 0.0
C2664 C 0.93132 0.64502 0.83971 0.0
C2665 C 0.94842 0.64201 0.84591 0.0
C2666 C 0.91729 0.64704 0.8512 0.0
C2667 C 0.90762 0.65874 0.8963 0.0
H2668 H 0.8632 0.63558 0.88827 0.0
C2669 C 0.85489 0.65269 0.94912 0.0
C2670 C 0.83713 0.65409 0.94435 0.0
C2671 C 0.86805 0.65223 0.93657 0.0
C2672 C 0.87542 0.64235 0.89057 0.0
H2673 H 0.96412 0.63855 0.86905 0.0
H2674 H 0.93967 0.64201 0.889 0.0
H2675 H 0.88692 0.63263 0.86727 0.0
H2676 H 0.81928 0.65641 0.92264 0.0
H2677 H 0.84232 0.65584 0.90071 0.0
H2678 H 0.89622 0.66844 0.91959 0.0
C2679 C 0.93715 0.64301 0.87528 0.0
C2680 C 0.88902 0.64063 0.87855 0.0
C2681 C 0.95114 0.64091 0.86382 0.0
C2682 C 0.83284 0.65527 0.92674 0.0
C2683 C 0.84603 0.65484 0.91417 0.0
C2684 C 0.89403 0.66051 0.90828 0.0
C2685 C 0.92009 0.64619 0.86911 0.0
C2686 C 0.90534 0.64863 0.8814 0.0
C2687 C 0.86378 0.65322 0.91895 0.0
C2688 C 0.87784 0.65216 0.90567 0.0
H2689 H 0.92878 0.64595 0.82599 0.0
H2690 H 0.9043 0.64959 0.84607 0.0
H2691 H 0.91994 0.66533 0.8987 0.0
H2692 H 0.85867 0.65168 0.96256 0.0
H2693 H 0.88156 0.65071 0.94071 0.0
C2694 C 0.64067 0.93482 0.15455 0.0
C2695 C 0.63032 0.94957 0.15161 0.0
C2696 C 0.64047 0.92106 0.14284 0.0
C2697 C 0.61485 0.9025 0.1065 0.0
H2698 H 0.65957 0.8828 0.09275 0.0
C2699 C 0.62353 0.86477 0.04327 0.0
C2700 C 0.63359 0.84955 0.04366 0.0
C2701 C 0.62284 0.87563 0.05763 0.0
C2702 C 0.64696 0.888 0.09662 0.0
H2703 H 0.61134 0.96125 0.13426 0.0
H2704 H 0.61116 0.93746 0.11383 0.0
H2705 H 0.65857 0.90398 0.11608 0.0
H2706 H 0.65094 0.83388 0.05941 0.0
H2707 H 0.64981 0.85299 0.08452 0.0
H2708 H 0.60331 0.88686 0.08674 0.0
C2709 C 0.61927 0.93637 0.12527 0.0
C2710 C 0.64637 0.90011 0.11001 0.0
C2711 C 0.61947 0.95008 0.13695 0.0
C2712 C 0.64307 0.84551 0.0587 0.0
C2713 C 0.64248 0.85647 0.07305 0.0
C2714 C 0.61545 0.89048 0.09308 0.0
C2715 C 0.62988 0.92176 0.12797 0.0
C2716 C 0.63034 0.90771 0.1149 0.0
C2717 C 0.63227 0.87159 0.07268 0.0
C2718 C 0.63154 0.88332 0.08781 0.0
H2719 H 0.64915 0.934 0.16575 0.0
H2720 H 0.64865 0.9099 0.14539 0.0
H2721 H 0.60224 0.90784 0.11018 0.0
H2722 H 0.61608 0.86829 0.03189 0.0
H2723 H 0.61508 0.88733 0.05686 0.0
C2724 C 0.05869 0.64709 0.15375 0.0
C2725 C 0.04143 0.64398 0.14809 0.0
C2726 C 0.0726 0.6475 0.14196 0.0
C2727 C 0.08519 0.634 0.09785 0.0
H2728 H 0.11987 0.67048 0.10194 0.0
C2729 C 0.13485 0.64841 0.04371 0.0
C2730 C 0.15232 0.65166 0.04864 0.0
C2731 C 0.12155 0.64754 0.05609 0.0
C2732 C 0.11041 0.6601 0.10073 0.0
H2733 H 0.02528 0.63857 0.12564 0.0
H2734 H 0.04947 0.63942 0.10512 0.0
H2735 H 0.09642 0.66824 0.12328 0.0
H2736 H 0.16945 0.65684 0.07042 0.0
H2737 H 0.14622 0.65525 0.09203 0.0
H2738 H 0.09912 0.62591 0.07527 0.0
C2739 C 0.05231 0.64137 0.11867 0.0
C2740 C 0.09698 0.6588 0.11297 0.0
C2741 C 0.03842 0.64098 0.13044 0.0
C2742 C 0.15613 0.65435 0.06619 0.0
C2743 C 0.1428 0.6535 0.07857 0.0
C2744 C 0.0986 0.63531 0.08562 0.0
C2745 C 0.06954 0.64477 0.12427 0.0
C2746 C 0.08417 0.64579 0.11162 0.0
C2747 C 0.12539 0.64992 0.07368 0.0
C2748 C 0.1113 0.64843 0.08686 0.0
H2749 H 0.06147 0.6494 0.16726 0.0
H2750 H 0.08575 0.64992 0.14671 0.0
H2751 H 0.0757 0.62366 0.0966 0.0
H2752 H 0.13145 0.64634 0.0303 0.0
H2753 H 0.10821 0.64505 0.05188 0.0
C2754 C 0.93426 0.35277 0.15995 0.0
C2755 C 0.95109 0.35739 0.15407 0.0
C2756 C 0.92016 0.35167 0.14841 0.0
C2757 C 0.90589 0.36442 0.10437 0.0
H2758 H 0.87542 0.32444 0.10806 0.0
C2759 C 0.8613 0.34251 0.04863 0.0
C2760 C 0.84398 0.33775 0.05272 0.0
C2761 C 0.8736 0.34544 0.06168 0.0
C2762 C 0.88369 0.33577 0.10699 0.0
H2763 H 0.96618 0.36499 0.13155 0.0
H2764 H 0.94174 0.36287 0.11149 0.0
H2765 H 0.89804 0.32934 0.12985 0.0
H2766 H 0.82607 0.33201 0.07374 0.0
H2767 H 0.84763 0.33706 0.09655 0.0
H2768 H 0.89178 0.37063 0.08131 0.0
C2769 C 0.93933 0.36028 0.12502 0.0
C2770 C 0.89661 0.33862 0.11949 0.0
C2771 C 0.95339 0.3614 0.13653 0.0
C2772 C 0.83931 0.33566 0.07016 0.0
C2773 C 0.85166 0.33849 0.08322 0.0
C2774 C 0.89304 0.36152 0.09185 0.0
C2775 C 0.92259 0.35519 0.13077 0.0
C2776 C 0.90801 0.35287 0.11822 0.0
C2777 C 0.86888 0.34359 0.07911 0.0
C2778 C 0.88194 0.34706 0.0929 0.0
H2779 H 0.93202 0.34967 0.1734 0.0
H2780 H 0.90738 0.34796 0.1533 0.0
H2781 H 0.91423 0.37569 0.10318 0.0
H2782 H 0.86535 0.34421 0.03534 0.0
H2783 H 0.88685 0.34909 0.05811 0.0
C2784 C 0.64432 0.83999 0.54843 0.0
C2785 C 0.64559 0.85371 0.53662 0.0
C2786 C 0.63246 0.84081 0.56219 0.0
C2787 C 0.60508 0.87108 0.58767 0.0
H2788 H 0.57595 0.83077 0.59564 0.0
C2789 C 0.54015 0.87443 0.62558 0.0
C2790 C 0.53593 0.86071 0.6367 0.0
C2791 C 0.55477 0.87341 0.61475 0.0
C2792 C 0.58415 0.84205 0.59378 0.0
H2793 H 0.63578 0.87925 0.53028 0.0
H2794 H 0.61506 0.8806 0.55416 0.0
H2795 H 0.59963 0.82938 0.5745 0.0
H2796 H 0.54388 0.83522 0.6453 0.0
H2797 H 0.56951 0.83349 0.62642 0.0
H2798 H 0.58942 0.88382 0.60675 0.0
C2799 C 0.62332 0.86928 0.55291 0.0
C2800 C 0.59773 0.84125 0.58167 0.0
C2801 C 0.63513 0.86845 0.53914 0.0
C2802 C 0.54674 0.84599 0.63684 0.0
C2803 C 0.56138 0.84496 0.62597 0.0
C2804 C 0.59151 0.87187 0.59978 0.0
C2805 C 0.62168 0.85538 0.56446 0.0
C2806 C 0.60819 0.85583 0.5783 0.0
C2807 C 0.56553 0.85865 0.61478 0.0
C2808 C 0.58073 0.85744 0.6028 0.0
H2809 H 0.65225 0.82847 0.54689 0.0
H2810 H 0.63165 0.82998 0.571 0.0
H2811 H 0.61309 0.88244 0.58557 0.0
H2812 H 0.53209 0.88595 0.62512 0.0
H2813 H 0.55744 0.88407 0.6061 0.0
C2814 C 0.12768 0.55885 0.64962 0.0
C2815 C 0.1241 0.54153 0.64549 0.0
C2816 C 0.12662 0.57169 0.63696 0.0
C2817 C 0.12532 0.57777 0.58936 0.0
H2818 H 0.1046 0.62206 0.60092 0.0
C2819 C 0.10214 0.62542 0.53739 0.0
C2820 C 0.10755 0.64268 0.53919 0.0
C2821 C 0.10445 0.61368 0.55087 0.0
C2822 C 0.11055 0.6098 0.59757 0.0
H2823 H 0.11662 0.52411 0.62481 0.0
H2824 H 0.11439 0.54643 0.60293 0.0
H2825 H 0.10859 0.60032 0.62344 0.0
H2826 H 0.1191 0.6613 0.55678 0.0
H2827 H 0.12292 0.64074 0.58048 0.0
H2828 H 0.12686 0.58712 0.56342 0.0
C2829 C 0.11841 0.55013 0.61582 0.0
C2830 C 0.11291 0.59736 0.61046 0.0
C2831 C 0.11958 0.53731 0.62842 0.0
C2832 C 0.11482 0.64808 0.55499 0.0
C2833 C 0.11697 0.63634 0.56856 0.0
C2834 C 0.12281 0.59012 0.57648 0.0
C2835 C 0.12186 0.5675 0.61992 0.0
C2836 C 0.12017 0.58112 0.60647 0.0
C2837 C 0.11207 0.61897 0.56651 0.0
C2838 C 0.11525 0.6062 0.58041 0.0
H2839 H 0.13126 0.56251 0.66265 0.0
H2840 H 0.12962 0.58489 0.64053 0.0
H2841 H 0.13133 0.56558 0.58587 0.0
H2842 H 0.09647 0.62082 0.52542 0.0
H2843 H 0.10033 0.60042 0.54903 0.0
C2844 C 0.35384 0.15346 0.54805 0.0
C2845 C 0.35579 0.14426 0.53251 0.0
C2846 C 0.36709 0.15309 0.56057 0.0
C2847 C 0.41454 0.14625 0.56471 0.0
H2848 H 0.40502 0.13985 0.61344 0.0
C2849 C 0.47011 0.13412 0.61332 0.0
C2850 C 0.46893 0.14184 0.62968 0.0
C2851 C 0.45594 0.13471 0.60191 0.0
C2852 C 0.40788 0.1419 0.59991 0.0
H2853 H 0.37296 0.12707 0.51817 0.0
H2854 H 0.39598 0.12646 0.53996 0.0
H2855 H 0.38068 0.14015 0.59285 0.0
H2856 H 0.45194 0.15631 0.6469 0.0
H2857 H 0.42726 0.15766 0.6268 0.0
H2858 H 0.44164 0.1482 0.57162 0.0
C2859 C 0.38431 0.13409 0.54238 0.0
C2860 C 0.39394 0.14202 0.58813 0.0
C2861 C 0.37105 0.13436 0.52995 0.0
C2862 C 0.45324 0.1502 0.63439 0.0
C2863 C 0.43906 0.15088 0.62291 0.0
C2864 C 0.42843 0.14624 0.57645 0.0
C2865 C 0.38258 0.14362 0.55772 0.0
C2866 C 0.39717 0.14401 0.57039 0.0
C2867 C 0.44026 0.14316 0.60652 0.0
C2868 C 0.42531 0.14388 0.59418 0.0
H2869 H 0.34223 0.16119 0.55042 0.0
H2870 H 0.36544 0.16061 0.57225 0.0
H2871 H 0.41739 0.14815 0.55114 0.0
H2872 H 0.48195 0.12746 0.60933 0.0
H2873 H 0.45721 0.12835 0.58953 0.0
C2874 C 0.84367 0.36199 0.54159 0.0
C2875 C 0.85937 0.35387 0.5366 0.0
C2876 C 0.84321 0.37269 0.55608 0.0
C2877 C 0.8682 0.38469 0.5956 0.0
H2878 H 0.84038 0.42654 0.5924 0.0
C2879 C 0.87586 0.4433 0.64136 0.0
C2880 C 0.86039 0.45137 0.64714 0.0
C2881 C 0.87511 0.43002 0.62918 0.0
C2882 C 0.84802 0.4148 0.59358 0.0
H2883 H 0.88689 0.35044 0.54298 0.0
H2884 H 0.88625 0.36955 0.56799 0.0
H2885 H 0.84047 0.4062 0.56847 0.0
H2886 H 0.83197 0.45153 0.645 0.0
H2887 H 0.83069 0.42843 0.62356 0.0
H2888 H 0.87617 0.39374 0.62056 0.0
C2889 C 0.87417 0.36736 0.56095 0.0
C2890 C 0.84806 0.4031 0.57987 0.0
C2891 C 0.87457 0.35649 0.54654 0.0
C2892 C 0.84412 0.44559 0.6408 0.0
C2893 C 0.84338 0.43243 0.62847 0.0
C2894 C 0.86829 0.39651 0.60925 0.0
C2895 C 0.8585 0.37571 0.56582 0.0
C2896 C 0.85818 0.3879 0.58067 0.0
C2897 C 0.85888 0.42467 0.62239 0.0
C2898 C 0.85824 0.4117 0.60834 0.0
H2899 H 0.83167 0.36007 0.5343 0.0
H2900 H 0.83083 0.37859 0.55964 0.0
H2901 H 0.87592 0.37301 0.5968 0.0
H2902 H 0.8886 0.44742 0.64604 0.0
H2903 H 0.88727 0.42435 0.62462 0.0
C2904 C 0.5499 0.14421 0.36411 0.0
C2905 C 0.55131 0.13595 0.34801 0.0
C2906 C 0.56406 0.14432 0.37557 0.0
C2907 C 0.60372 0.11982 0.38665 0.0
H2908 H 0.61444 0.16006 0.41454 0.0
C2909 C 0.6439 0.11646 0.4497 0.0
C2910 C 0.6556 0.13001 0.45337 0.0
C2911 C 0.63289 0.11727 0.4353 0.0
C2912 C 0.61177 0.14877 0.40672 0.0
H2913 H 0.56887 0.12167 0.33116 0.0
H2914 H 0.59362 0.12191 0.35121 0.0
H2915 H 0.59214 0.16204 0.39202 0.0
H2916 H 0.66532 0.15481 0.44445 0.0
H2917 H 0.64612 0.15616 0.41927 0.0
H2918 H 0.62327 0.10653 0.40144 0.0
C2919 C 0.58148 0.12816 0.355 0.0
C2920 C 0.59886 0.14986 0.39394 0.0
C2921 C 0.56733 0.12812 0.34348 0.0
C2922 C 0.6564 0.14417 0.44204 0.0
C2923 C 0.64535 0.145 0.42766 0.0
C2924 C 0.61658 0.11872 0.39948 0.0
C2925 C 0.57994 0.13613 0.37123 0.0
C2926 C 0.59454 0.13534 0.38392 0.0
C2927 C 0.6333 0.13167 0.42426 0.0
C2928 C 0.62059 0.13312 0.40979 0.0
H2929 H 0.53775 0.15038 0.368 0.0
H2930 H 0.56239 0.1504 0.38806 0.0
H2931 H 0.60059 0.10837 0.37924 0.0
H2932 H 0.64296 0.10537 0.45816 0.0
H2933 H 0.62363 0.10687 0.43314 0.0
C2934 C 0.85178 0.56031 0.34799 0.0
C2935 C 0.85993 0.54405 0.34889 0.0
C2936 C 0.85439 0.57253 0.36106 0.0
C2937 C 0.86972 0.57679 0.40637 0.0
H2938 H 0.87663 0.62485 0.39401 0.0
C2939 C 0.89572 0.62651 0.45519 0.0
C2940 C 0.88667 0.6423 0.45612 0.0
C2941 C 0.89253 0.61501 0.44165 0.0
C2942 C 0.87458 0.6115 0.39766 0.0
H2943 H 0.87716 0.52784 0.36426 0.0
H2944 H 0.88194 0.54916 0.38677 0.0
H2945 H 0.87027 0.60366 0.3715 0.0
H2946 H 0.8676 0.65867 0.44321 0.0
H2947 H 0.86212 0.63858 0.41952 0.0
H2948 H 0.87427 0.58459 0.43248 0.0
C2949 C 0.87326 0.55242 0.37618 0.0
C2950 C 0.87088 0.59936 0.38478 0.0
C2951 C 0.87059 0.54021 0.3632 0.0
C2952 C 0.8748 0.64661 0.44288 0.0
C2953 C 0.87169 0.63513 0.42927 0.0
C2954 C 0.87353 0.58889 0.4192 0.0
C2955 C 0.86525 0.56876 0.37526 0.0
C2956 C 0.86851 0.58184 0.38898 0.0
C2957 C 0.88028 0.61908 0.4287 0.0
C2958 C 0.87611 0.60635 0.41498 0.0
H2959 H 0.84344 0.56365 0.33717 0.0
H2960 H 0.84782 0.5849 0.36006 0.0
H2961 H 0.86762 0.56348 0.41012 0.0
H2962 H 0.90498 0.6228 0.46514 0.0
H2963 H 0.89955 0.60284 0.4414 0.0
C2964 C 0.34772 0.85137 0.45021 0.0
C2965 C 0.35277 0.85746 0.46657 0.0
C2966 C 0.35935 0.85232 0.43624 0.0
C2967 C 0.39956 0.8747 0.42138 0.0
H2968 H 0.40676 0.83402 0.39305 0.0
C2969 C 0.46191 0.86527 0.38105 0.0
C2970 C 0.46038 0.85817 0.36442 0.0
C2971 C 0.44743 0.86587 0.39206 0.0
C2972 C 0.40471 0.84557 0.40066 0.0
H2973 H 0.37389 0.86956 0.48102 0.0
H2974 H 0.39406 0.87115 0.4568 0.0
H2975 H 0.38352 0.83411 0.41481 0.0
H2976 H 0.44241 0.84609 0.34634 0.0
H2977 H 0.41703 0.84716 0.36568 0.0
H2978 H 0.42092 0.88607 0.40753 0.0
C2979 C 0.38109 0.86579 0.45467 0.0
C2980 C 0.39139 0.84563 0.41311 0.0
C2981 C 0.36955 0.86475 0.4686 0.0
C2982 C 0.44402 0.85162 0.35908 0.0
C2983 C 0.4295 0.85218 0.37016 0.0
C2984 C 0.41283 0.87465 0.40897 0.0
C2985 C 0.37619 0.85951 0.43835 0.0
C2986 C 0.38894 0.86007 0.42386 0.0
C2987 C 0.43105 0.85938 0.38676 0.0
C2988 C 0.41582 0.85995 0.39872 0.0
H2989 H 0.33487 0.84568 0.44823 0.0
H2990 H 0.35517 0.84748 0.42378 0.0
H2991 H 0.39776 0.88615 0.42923 0.0
H2992 H 0.47431 0.87039 0.38561 0.0
H2993 H 0.44914 0.87123 0.40487 0.0
C2994 C 0.15173 0.44545 0.35671 0.0
C2995 C 0.1412 0.46036 0.35651 0.0
C2996 C 0.14784 0.43179 0.36788 0.0
C2997 C 0.11117 0.41324 0.39303 0.0
H2998 H 0.1481 0.38899 0.41753 0.0
C2999 C 0.09768 0.36747 0.45024 0.0
C3000 C 0.10808 0.35256 0.45185 0.0
C3001 C 0.10126 0.37964 0.43741 0.0
C3002 C 0.13765 0.39546 0.41058 0.0
H3003 H 0.1186 0.47283 0.36824 0.0
H3004 H 0.112 0.44916 0.38785 0.0
H3005 H 0.1557 0.41248 0.39795 0.0
H3006 H 0.12998 0.3384 0.44081 0.0
H3007 H 0.13612 0.35961 0.41832 0.0
H3008 H 0.09311 0.39635 0.40581 0.0
C3009 C 0.12306 0.44786 0.37915 0.0
C3010 C 0.14201 0.40894 0.39938 0.0
C3011 C 0.12694 0.46149 0.36799 0.0
C3012 C 0.12175 0.34978 0.43996 0.0
C3013 C 0.12536 0.36199 0.42715 0.0
C3014 C 0.10681 0.39978 0.40423 0.0
C3015 C 0.13334 0.43277 0.37909 0.0
C3016 C 0.1288 0.41809 0.3906 0.0
C3017 C 0.11534 0.37719 0.42592 0.0
C3018 C 0.11999 0.39082 0.41324 0.0
H3019 H 0.16278 0.44415 0.348 0.0
H3020 H 0.15594 0.4203 0.36744 0.0
H3021 H 0.1007 0.41981 0.3862 0.0
H3022 H 0.08705 0.37001 0.45918 0.0
H3023 H 0.09339 0.39128 0.43691 0.0
C3024 C 0.64867 0.55288 0.84585 0.0
C3025 C 0.64356 0.53838 0.83611 0.0
C3026 C 0.63742 0.56703 0.84761 0.0
C3027 C 0.59868 0.5882 0.82821 0.0
H3028 H 0.59232 0.60749 0.87399 0.0
C3029 C 0.54089 0.63315 0.84483 0.0
C3030 C 0.54385 0.64703 0.85618 0.0
C3031 C 0.55396 0.62086 0.84186 0.0
C3032 C 0.59414 0.60246 0.86107 0.0
H3033 H 0.62277 0.52757 0.82029 0.0
H3034 H 0.60313 0.55227 0.8234 0.0
H3035 H 0.61354 0.58432 0.86955 0.0
H3036 H 0.56297 0.65897 0.87316 0.0
H3037 H 0.58593 0.63755 0.86781 0.0
H3038 H 0.57923 0.60625 0.81974 0.0
C3039 C 0.61589 0.55272 0.82958 0.0
C3040 C 0.60628 0.58915 0.85853 0.0
C3041 C 0.62711 0.53852 0.82788 0.0
C3042 C 0.56025 0.6484 0.86439 0.0
C3043 C 0.57338 0.63609 0.86139 0.0
C3044 C 0.58658 0.60154 0.83074 0.0
C3045 C 0.62084 0.56706 0.83961 0.0
C3046 C 0.60856 0.58176 0.84211 0.0
C3047 C 0.57035 0.62214 0.85012 0.0
C3048 C 0.58401 0.6087 0.84724 0.0
H3049 H 0.66127 0.55322 0.85233 0.0
H3050 H 0.6417 0.57797 0.85524 0.0
H3051 H 0.60034 0.58296 0.81535 0.0
H3052 H 0.52839 0.63164 0.83833 0.0
H3053 H 0.55106 0.61014 0.83334 0.0
C3054 C 0.46023 0.61388 0.86399 0.0
C3055 C 0.45845 0.63086 0.85787 0.0
C3056 C 0.44626 0.60228 0.86288 0.0
C3057 C 0.39818 0.59944 0.85845 0.0
H3058 H 0.4087 0.55224 0.84524 0.0
C3059 C 0.34475 0.54632 0.8491 0.0
C3060 C 0.34881 0.53008 0.85619 0.0
C3061 C 0.35749 0.55937 0.84849 0.0
C3062 C 0.40556 0.56534 0.84907 0.0
H3063 H 0.44049 0.64906 0.84595 0.0
H3064 H 0.41602 0.62867 0.84394 0.0
H3065 H 0.43209 0.57366 0.84555 0.0
H3066 H 0.36932 0.51495 0.86847 0.0
H3067 H 0.39133 0.53762 0.86748 0.0
H3068 H 0.37161 0.59096 0.86209 0.0
C3069 C 0.42824 0.62441 0.84969 0.0
C3070 C 0.41896 0.57761 0.84925 0.0
C3071 C 0.44228 0.63605 0.85078 0.0
C3072 C 0.36575 0.52726 0.86283 0.0
C3073 C 0.37843 0.54023 0.86217 0.0
C3074 C 0.38472 0.58711 0.85825 0.0
C3075 C 0.43015 0.60735 0.85561 0.0
C3076 C 0.41551 0.59473 0.85424 0.0
C3077 C 0.37452 0.55637 0.85486 0.0
C3078 C 0.38835 0.56986 0.85385 0.0
H3079 H 0.47246 0.60946 0.86962 0.0
H3080 H 0.44806 0.58933 0.86785 0.0
H3081 H 0.39513 0.6125 0.86245 0.0
H3082 H 0.33182 0.5489 0.84388 0.0
H3083 H 0.35412 0.57167 0.84271 0.0
C3084 C 0.35514 0.45573 0.82404 0.0
C3085 C 0.34113 0.4576 0.8357 0.0
C3086 C 0.36671 0.44178 0.82544 0.0
C3087 C 0.38336 0.41065 0.8574 0.0
H3088 H 0.40302 0.38786 0.81723 0.0
C3089 C 0.4322 0.35372 0.8632 0.0
C3090 C 0.44694 0.35445 0.85229 0.0
C3091 C 0.41809 0.36505 0.86079 0.0
C3092 C 0.39772 0.39417 0.82857 0.0
H3093 H 0.32793 0.44594 0.85762 0.0
H3094 H 0.34799 0.42153 0.85993 0.0
H3095 H 0.38035 0.40983 0.81348 0.0
H3096 H 0.4583 0.36752 0.83016 0.0
H3097 H 0.43383 0.38729 0.82608 0.0
H3098 H 0.40089 0.39518 0.87247 0.0
C3099 C 0.3502 0.431 0.84988 0.0
C3100 C 0.38474 0.40676 0.82642 0.0
C3101 C 0.33864 0.44494 0.84848 0.0
C3102 C 0.44715 0.36659 0.8388 0.0
C3103 C 0.43306 0.37786 0.83637 0.0
C3104 C 0.39633 0.39805 0.85954 0.0
C3105 C 0.36452 0.42939 0.83853 0.0
C3106 C 0.37755 0.41528 0.8408 0.0
C3107 C 0.4184 0.37729 0.84738 0.0
C3108 C 0.4038 0.38982 0.84515 0.0
H3109 H 0.35744 0.46526 0.81406 0.0
H3110 H 0.37771 0.44102 0.81661 0.0
H3111 H 0.37829 0.41714 0.86874 0.0
H3112 H 0.4316 0.34449 0.87368 0.0
H3113 H 0.4069 0.36419 0.86938 0.0
C3114 C 0.54547 0.3705 0.84459 0.0
C3115 C 0.54885 0.35271 0.84596 0.0
C3116 C 0.55925 0.3824 0.8447 0.0
C3117 C 0.60533 0.38764 0.85833 0.0
H3118 H 0.60312 0.4281 0.82893 0.0
C3119 C 0.64922 0.4476 0.86892 0.0
C3120 C 0.65535 0.45649 0.8543 0.0
C3121 C 0.63733 0.43394 0.86717 0.0
C3122 C 0.60408 0.41678 0.83709 0.0
H3123 H 0.56942 0.33345 0.84831 0.0
H3124 H 0.59353 0.35427 0.84831 0.0
H3125 H 0.58046 0.40604 0.82667 0.0
H3126 H 0.65421 0.45767 0.82634 0.0
H3127 H 0.63371 0.43372 0.82329 0.0
H3128 H 0.62908 0.39833 0.86862 0.0
C3129 C 0.58018 0.359 0.84737 0.0
C3130 C 0.59095 0.40423 0.83594 0.0
C3131 C 0.56636 0.34707 0.84727 0.0
C3132 C 0.64966 0.45117 0.83788 0.0
C3133 C 0.63782 0.43749 0.83613 0.0
C3134 C 0.61849 0.4002 0.85947 0.0
C3135 C 0.57676 0.37681 0.84614 0.0
C3136 C 0.59131 0.38961 0.84668 0.0
C3137 C 0.63135 0.42884 0.85076 0.0
C3138 C 0.61792 0.415 0.84897 0.0
H3139 H 0.53214 0.37531 0.84362 0.0
H3140 H 0.55613 0.39603 0.84399 0.0
H3141 H 0.60593 0.3766 0.86688 0.0
H3142 H 0.65331 0.45138 0.88176 0.0
H3143 H 0.63245 0.42771 0.87872 0.0
C3144 C 0.56547 0.33818 0.15656 0.0
C3145 C 0.54848 0.34295 0.15129 0.0
C3146 C 0.57909 0.35032 0.15672 0.0
C3147 C 0.59162 0.39303 0.13894 0.0
H3148 H 0.62374 0.3945 0.17778 0.0
C3149 C 0.6365 0.45131 0.15135 0.0
C3150 C 0.65414 0.44788 0.15552 0.0
C3151 C 0.62415 0.43799 0.15102 0.0
C3152 C 0.61498 0.39413 0.16677 0.0
H3153 H 0.53248 0.36421 0.14198 0.0
H3154 H 0.55605 0.38533 0.14249 0.0
H3155 H 0.60134 0.37194 0.17639 0.0
H3156 H 0.67252 0.42784 0.16309 0.0
H3157 H 0.65084 0.40456 0.16256 0.0
H3158 H 0.60506 0.41535 0.12946 0.0
C3159 C 0.55899 0.37217 0.14624 0.0
C3160 C 0.60218 0.38119 0.16594 0.0
C3161 C 0.54543 0.36006 0.14605 0.0
C3162 C 0.65904 0.43091 0.15981 0.0
C3163 C 0.64662 0.41758 0.15957 0.0
C3164 C 0.60434 0.40598 0.13982 0.0
C3165 C 0.57598 0.36749 0.15161 0.0
C3166 C 0.59023 0.3806 0.15209 0.0
C3167 C 0.6291 0.42096 0.15493 0.0
C3168 C 0.61603 0.40678 0.15382 0.0
H3169 H 0.56827 0.32508 0.16064 0.0
H3170 H 0.59207 0.34625 0.16074 0.0
H3171 H 0.58287 0.39275 0.12792 0.0
H3172 H 0.63226 0.46424 0.14804 0.0
H3173 H 0.61068 0.44104 0.14767 0.0
C3174 C 0.64306 0.54408 0.13177 0.0
C3175 C 0.65756 0.54659 0.14273 0.0
C3176 C 0.63069 0.55717 0.1294 0.0
C3177 C 0.61285 0.59564 0.15099 0.0
H3178 H 0.58922 0.60224 0.10713 0.0
C3179 C 0.55702 0.64568 0.14142 0.0
C3180 C 0.5421 0.63946 0.13269 0.0
C3181 C 0.57251 0.63595 0.14184 0.0
C3182 C 0.59567 0.6005 0.11948 0.0
H3183 H 0.67077 0.56509 0.15929 0.0
H3184 H 0.64921 0.58805 0.15498 0.0
H3185 H 0.61425 0.58264 0.10894 0.0
H3186 H 0.53182 0.61824 0.11741 0.0
H3187 H 0.55876 0.60132 0.11821 0.0
H3188 H 0.59407 0.61334 0.16155 0.0
C3189 C 0.6473 0.57583 0.14844 0.0
C3190 C 0.60999 0.58927 0.12052 0.0
C3191 C 0.6597 0.56271 0.15083 0.0
C3192 C 0.54306 0.62342 0.12426 0.0
C3193 C 0.55855 0.61376 0.1246 0.0
C3194 C 0.59855 0.60693 0.14992 0.0
C3195 C 0.63252 0.57312 0.13788 0.0
C3196 C 0.61853 0.58644 0.13636 0.0
C3197 C 0.57342 0.61988 0.13343 0.0
C3198 C 0.5896 0.60921 0.13423 0.0
H3199 H 0.64099 0.53183 0.12533 0.0
H3200 H 0.61935 0.55454 0.12136 0.0
H3201 H 0.61898 0.59361 0.16344 0.0
H3202 H 0.55672 0.65801 0.14801 0.0
H3203 H 0.58381 0.64104 0.14866 0.0
C3204 C 0.43665 0.65402 0.12452 0.0
C3205 C 0.45358 0.65093 0.13106 0.0
C3206 C 0.42346 0.64155 0.12618 0.0
C3207 C 0.41677 0.59495 0.13284 0.0
H3208 H 0.37032 0.60842 0.14839 0.0
C3209 C 0.36454 0.54453 0.15185 0.0
C3210 C 0.34709 0.54774 0.14684 0.0
C3211 C 0.37738 0.55729 0.14996 0.0
C3212 C 0.38315 0.60446 0.14383 0.0
H3213 H 0.46999 0.63224 0.14435 0.0
H3214 H 0.44703 0.61054 0.14719 0.0
H3215 H 0.39295 0.63039 0.14447 0.0
H3216 H 0.32944 0.56688 0.13599 0.0
H3217 H 0.35188 0.58899 0.13242 0.0
H3218 H 0.40701 0.56907 0.13203 0.0
C3219 C 0.44396 0.62256 0.14072 0.0
C3220 C 0.39611 0.61705 0.14159 0.0
C3221 C 0.45709 0.63505 0.13917 0.0
C3222 C 0.34275 0.56401 0.14004 0.0
C3223 C 0.3556 0.57673 0.13808 0.0
C3224 C 0.4038 0.58237 0.13497 0.0
C3225 C 0.427 0.62568 0.13428 0.0
C3226 C 0.41307 0.61241 0.13616 0.0
C3227 C 0.3731 0.57351 0.14295 0.0
C3228 C 0.38685 0.58695 0.14058 0.0
H3229 H 0.43353 0.66612 0.1182 0.0
H3230 H 0.41054 0.64424 0.12097 0.0
H3231 H 0.42966 0.59101 0.1284 0.0
H3232 H 0.3683 0.53216 0.15721 0.0
H3233 H 0.39066 0.55447 0.15412 0.0
C3234 C 0.44918 0.36045 0.15289 0.0
C3235 C 0.44645 0.34421 0.14524 0.0
C3236 C 0.43588 0.37287 0.15288 0.0
C3237 C 0.39615 0.38588 0.12936 0.0
H3238 H 0.3889 0.41534 0.16922 0.0
C3239 C 0.35964 0.45114 0.12586 0.0
C3240 C 0.34895 0.45594 0.13986 0.0
C3241 C 0.3698 0.43612 0.12661 0.0
C3242 C 0.39059 0.4071 0.15804 0.0
H3243 H 0.42748 0.32819 0.13179 0.0
H3244 H 0.4042 0.34992 0.13182 0.0
H3245 H 0.40971 0.39149 0.17094 0.0
H3246 H 0.34009 0.4484 0.16539 0.0
H3247 H 0.35773 0.42214 0.16663 0.0
H3248 H 0.37704 0.40155 0.11645 0.0
C3249 C 0.41671 0.35306 0.1377 0.0
C3250 C 0.40266 0.39355 0.15897 0.0
C3251 C 0.43002 0.34059 0.13777 0.0
C3252 C 0.34827 0.44513 0.15442 0.0
C3253 C 0.35844 0.43012 0.15517 0.0
C3254 C 0.3841 0.39948 0.12841 0.0
C3255 C 0.41954 0.36937 0.14519 0.0
C3256 C 0.40576 0.38293 0.14457 0.0
C3257 C 0.3695 0.42557 0.14137 0.0
C3258 C 0.38134 0.41037 0.14268 0.0
H3259 H 0.46168 0.36369 0.15875 0.0
H3260 H 0.43856 0.38539 0.15854 0.0
H3261 H 0.39833 0.37801 0.118 0.0
H3262 H 0.36047 0.45917 0.11445 0.0
H3263 H 0.37832 0.43309 0.11584 0.0
C3264 C 0.88187 0.54383 0.63413 0.0
C3265 C 0.87077 0.52947 0.63199 0.0
C3266 C 0.88242 0.55684 0.62161 0.0
C3267 C 0.87233 0.5649 0.57569 0.0
H3268 H 0.87211 0.61314 0.58915 0.0
C3269 C 0.85892 0.61939 0.52697 0.0
C3270 C 0.86926 0.63437 0.52815 0.0
C3271 C 0.85977 0.60674 0.53979 0.0
C3272 C 0.87239 0.59973 0.58519 0.0
H3273 H 0.85148 0.51758 0.6151 0.0
H3274 H 0.85237 0.54025 0.59345 0.0
H3275 H 0.87262 0.59076 0.61134 0.0
H3276 H 0.88857 0.64785 0.54376 0.0
H3277 H 0.89011 0.6257 0.56608 0.0
H3278 H 0.872 0.57382 0.54957 0.0
C3279 C 0.86081 0.54137 0.60465 0.0
C3280 C 0.87269 0.58691 0.59789 0.0
C3281 C 0.86023 0.52843 0.61714 0.0
C3282 C 0.88041 0.63647 0.54248 0.0
C3283 C 0.88123 0.62382 0.55532 0.0
C3284 C 0.87203 0.57769 0.56301 0.0
C3285 C 0.87195 0.5557 0.60669 0.0
C3286 C 0.87249 0.56936 0.59327 0.0
C3287 C 0.87096 0.60879 0.55408 0.0
C3288 C 0.87189 0.59525 0.56761 0.0
H3289 H 0.89016 0.545 0.64543 0.0
H3290 H 0.89124 0.56766 0.62348 0.0
H3291 H 0.8725 0.55149 0.5717 0.0
H3292 H 0.85017 0.61739 0.51613 0.0
H3293 H 0.8515 0.59542 0.53858 0.0
C3294 C 0.89263 0.45456 0.36229 0.0
C3295 C 0.87971 0.45674 0.34951 0.0
C3296 C 0.89212 0.44034 0.37334 0.0
C3297 C 0.87324 0.3968 0.37938 0.0
H3298 H 0.87957 0.40715 0.42795 0.0
C3299 C 0.85655 0.34808 0.43371 0.0
C3300 C 0.86769 0.34771 0.44818 0.0
C3301 C 0.85872 0.36067 0.42095 0.0
C3302 C 0.87803 0.40396 0.41443 0.0
H3303 H 0.85653 0.44531 0.33786 0.0
H3304 H 0.85564 0.42047 0.35724 0.0
H3305 H 0.88251 0.43009 0.40674 0.0
H3306 H 0.89018 0.35993 0.46032 0.0
H3307 H 0.89413 0.38163 0.43798 0.0
H3308 H 0.86872 0.37062 0.38713 0.0
C3309 C 0.86619 0.42975 0.35864 0.0
C3310 C 0.8797 0.41713 0.40226 0.0
C3311 C 0.86666 0.44402 0.3476 0.0
C3312 C 0.88125 0.35996 0.44943 0.0
C3313 C 0.88347 0.37246 0.43665 0.0
C3314 C 0.87163 0.38357 0.39157 0.0
C3315 C 0.87872 0.42795 0.37185 0.0
C3316 C 0.87732 0.41372 0.38461 0.0
C3317 C 0.87212 0.37311 0.42235 0.0
C3318 C 0.87399 0.38701 0.40925 0.0
H3319 H 0.90293 0.46405 0.36405 0.0
H3320 H 0.90213 0.43915 0.38322 0.0
H3321 H 0.87147 0.39376 0.36584 0.0
H3322 H 0.84596 0.33883 0.43237 0.0
H3323 H 0.84962 0.36091 0.4102 0.0
C3324 C 0.54475 0.8506 0.36095 0.0
C3325 C 0.54734 0.84588 0.34362 0.0
C3326 C 0.55844 0.84936 0.37285 0.0
C3327 C 0.6008 0.82756 0.38063 0.0
H3328 H 0.6055 0.86265 0.41607 0.0
C3329 C 0.65779 0.82916 0.43059 0.0
C3330 C 0.65294 0.8328 0.44773 0.0
C3331 C 0.64552 0.83061 0.41723 0.0
C3332 C 0.60427 0.85268 0.40633 0.0
H3333 H 0.56644 0.83631 0.32516 0.0
H3334 H 0.59049 0.83438 0.34598 0.0
H3335 H 0.58333 0.866 0.39366 0.0
H3336 H 0.6313 0.84048 0.46429 0.0
H3337 H 0.60997 0.84298 0.44101 0.0
H3338 H 0.62184 0.81429 0.3934 0.0
C3339 C 0.57776 0.83881 0.35037 0.0
C3340 C 0.59156 0.85459 0.39349 0.0
C3341 C 0.56401 0.84002 0.33843 0.0
C3342 C 0.6355 0.83763 0.45124 0.0
C3343 C 0.62329 0.83918 0.43789 0.0
C3344 C 0.6136 0.8257 0.39346 0.0
C3345 C 0.57511 0.84345 0.36774 0.0
C3346 C 0.58948 0.84193 0.38063 0.0
C3347 C 0.6282 0.83585 0.42073 0.0
C3348 C 0.61528 0.83813 0.40658 0.0
H3349 H 0.53206 0.85508 0.36543 0.0
H3350 H 0.55584 0.85275 0.38617 0.0
H3351 H 0.59943 0.81749 0.37103 0.0
H3352 H 0.67112 0.8254 0.42746 0.0
H3353 H 0.64968 0.82804 0.40411 0.0
C3354 C 0.11431 0.64138 0.4565 0.0
C3355 C 0.12437 0.65647 0.45449 0.0
C3356 C 0.11346 0.62913 0.44332 0.0
C3357 C 0.13721 0.61262 0.40577 0.0
H3358 H 0.09223 0.59203 0.39431 0.0
C3359 C 0.13051 0.56029 0.35287 0.0
C3360 C 0.1197 0.54615 0.35698 0.0
C3361 C 0.13048 0.5751 0.36323 0.0
C3362 C 0.10491 0.59755 0.39743 0.0
H3363 H 0.14156 0.67046 0.43709 0.0
H3364 H 0.1402 0.64886 0.41404 0.0
H3365 H 0.0936 0.61528 0.41549 0.0
H3366 H 0.10016 0.53662 0.37499 0.0
H3367 H 0.10033 0.5622 0.39314 0.0
H3368 H 0.14862 0.59457 0.3881 0.0
C3369 C 0.13297 0.64659 0.42587 0.0
C3370 C 0.10568 0.61089 0.40954 0.0
C3371 C 0.13369 0.65897 0.43903 0.0
C3372 C 0.10861 0.54729 0.37142 0.0
C3373 C 0.10863 0.56204 0.38179 0.0
C3374 C 0.13646 0.59918 0.39372 0.0
C3375 C 0.12275 0.6316 0.42786 0.0
C3376 C 0.12186 0.61838 0.41403 0.0
C3377 C 0.11968 0.57607 0.37792 0.0
C3378 C 0.12033 0.5913 0.38961 0.0
H3379 H 0.10695 0.63905 0.46824 0.0
H3380 H 0.10569 0.61759 0.44533 0.0
H3381 H 0.14988 0.61806 0.40908 0.0
H3382 H 0.13917 0.55985 0.34179 0.0
H3383 H 0.13898 0.58576 0.35975 0.0
C3384 C 0.45135 0.14319 0.36664 0.0
C3385 C 0.44805 0.14228 0.34882 0.0
C3386 C 0.4376 0.14557 0.37829 0.0
C3387 C 0.39171 0.16095 0.38152 0.0
H3388 H 0.39332 0.13668 0.42526 0.0
C3389 C 0.3348 0.1603 0.4318 0.0
C3390 C 0.3398 0.1621 0.44919 0.0
C3391 C 0.34754 0.15863 0.41888 0.0
C3392 C 0.39277 0.14366 0.41316 0.0
H3393 H 0.42766 0.14309 0.32926 0.0
H3394 H 0.40354 0.14694 0.34971 0.0
H3395 H 0.41614 0.13155 0.40389 0.0
H3396 H 0.36211 0.16425 0.46654 0.0
H3397 H 0.38422 0.16134 0.44404 0.0
H3398 H 0.36812 0.1729 0.39088 0.0
C3399 C 0.41684 0.14607 0.35462 0.0
C3400 C 0.40586 0.14074 0.40091 0.0
C3401 C 0.43064 0.14375 0.34292 0.0
C3402 C 0.35778 0.1628 0.4533 0.0
C3403 C 0.37047 0.16102 0.44043 0.0
C3404 C 0.37851 0.16378 0.39377 0.0
C3405 C 0.42017 0.147 0.37245 0.0
C3406 C 0.40563 0.14951 0.38503 0.0
C3407 C 0.36549 0.1586 0.42314 0.0
C3408 C 0.37905 0.15533 0.4098 0.0
H3409 H 0.46461 0.14223 0.37163 0.0
H3410 H 0.44069 0.14655 0.3919 0.0
H3411 H 0.39123 0.16804 0.36948 0.0
H3412 H 0.32106 0.15975 0.42821 0.0
H3413 H 0.34334 0.15675 0.40566 0.0
C3414 C 0.11898 0.43984 0.63971 0.0
C3415 C 0.10826 0.45414 0.63594 0.0
C3416 C 0.11973 0.42576 0.62841 0.0
C3417 C 0.11301 0.415 0.58278 0.0
H3418 H 0.1127 0.36749 0.59858 0.0
C3419 C 0.10844 0.35835 0.53512 0.0
C3420 C 0.11876 0.34366 0.53838 0.0
C3421 C 0.10691 0.37138 0.54747 0.0
C3422 C 0.11302 0.38069 0.59398 0.0
H3423 H 0.08953 0.46464 0.61761 0.0
H3424 H 0.09083 0.44011 0.59798 0.0
H3425 H 0.11028 0.39097 0.61954 0.0
H3426 H 0.1355 0.33108 0.55722 0.0
H3427 H 0.13309 0.35403 0.57871 0.0
H3428 H 0.11598 0.40488 0.5573 0.0
C3429 C 0.0988 0.43987 0.60956 0.0
C3430 C 0.11159 0.39412 0.60599 0.0
C3431 C 0.09799 0.45388 0.62087 0.0
C3432 C 0.12742 0.34223 0.55433 0.0
C3433 C 0.12595 0.35534 0.56669 0.0
C3434 C 0.11453 0.40162 0.57082 0.0
C3435 C 0.10985 0.42576 0.61309 0.0
C3436 C 0.11147 0.41141 0.60049 0.0
C3437 C 0.11575 0.37011 0.56335 0.0
C3438 C 0.11445 0.38429 0.57624 0.0
H3439 H 0.12705 0.43963 0.65123 0.0
H3440 H 0.12844 0.41511 0.63142 0.0
H3441 H 0.1133 0.42821 0.57818 0.0
H3442 H 0.10147 0.3598 0.52301 0.0
H3443 H 0.09867 0.38242 0.54459 0.0
C3444 C 0.64294 0.16893 0.54441 0.0
C3445 C 0.65066 0.15453 0.53637 0.0
C3446 C 0.63099 0.16672 0.55795 0.0
C3447 C 0.6014 0.13418 0.57742 0.0
H3448 H 0.60259 0.16469 0.61711 0.0
C3449 C 0.55923 0.12137 0.63776 0.0
C3450 C 0.55004 0.13564 0.64441 0.0
C3451 C 0.57235 0.12368 0.62536 0.0
C3452 C 0.60204 0.15614 0.60605 0.0
H3453 H 0.65198 0.12652 0.53636 0.0
H3454 H 0.63143 0.12272 0.56005 0.0
H3455 H 0.62356 0.16887 0.59363 0.0
H3456 H 0.54785 0.16359 0.64367 0.0
H3457 H 0.5707 0.16757 0.62202 0.0
H3458 H 0.57991 0.12144 0.58983 0.0
C3459 C 0.63433 0.13571 0.55572 0.0
C3460 C 0.614 0.15857 0.59258 0.0
C3461 C 0.64619 0.1379 0.54218 0.0
C3462 C 0.55466 0.15231 0.6388 0.0
C3463 C 0.56782 0.15461 0.62645 0.0
C3464 C 0.5895 0.13172 0.5909 0.0
C3465 C 0.62655 0.15007 0.56376 0.0
C3466 C 0.61381 0.14761 0.57809 0.0
C3467 C 0.57662 0.14031 0.61939 0.0
C3468 C 0.58966 0.14268 0.60536 0.0
H3469 H 0.64608 0.18191 0.54022 0.0
H3470 H 0.62507 0.17806 0.56372 0.0
H3471 H 0.60068 0.1257 0.56633 0.0
H3472 H 0.55604 0.10837 0.64185 0.0
H3473 H 0.57908 0.11242 0.62033 0.0
C3474 C 0.42569 0.84636 0.65822 0.0
C3475 C 0.44303 0.84689 0.65197 0.0
C3476 C 0.41158 0.84412 0.64686 0.0
C3477 C 0.40078 0.82799 0.60334 0.0
H3478 H 0.36018 0.85804 0.60684 0.0
C3479 C 0.35211 0.83719 0.54741 0.0
C3480 C 0.3342 0.83954 0.55115 0.0
C3481 C 0.36447 0.83623 0.56068 0.0
C3482 C 0.37126 0.84933 0.60585 0.0
H3483 H 0.45913 0.84546 0.62888 0.0
H3484 H 0.43456 0.84161 0.60915 0.0
H3485 H 0.38349 0.85999 0.62837 0.0
H3486 H 0.31516 0.84219 0.57182 0.0
H3487 H 0.33677 0.84029 0.59504 0.0
H3488 H 0.3887 0.81743 0.58076 0.0
C3489 C 0.43187 0.84276 0.62283 0.0
C3490 C 0.38463 0.85048 0.61818 0.0
C3491 C 0.44595 0.8451 0.63414 0.0
C3492 C 0.32887 0.84045 0.5685 0.0
C3493 C 0.34126 0.83946 0.5818 0.0
C3494 C 0.3874 0.82679 0.59107 0.0
C3495 C 0.41454 0.84224 0.62906 0.0
C3496 C 0.39968 0.84004 0.61686 0.0
C3497 C 0.35923 0.83754 0.57803 0.0
C3498 C 0.37263 0.83766 0.59199 0.0
H3499 H 0.42301 0.84768 0.67189 0.0
H3500 H 0.39836 0.84367 0.65203 0.0
H3501 H 0.41208 0.81956 0.60217 0.0
H3502 H 0.35669 0.83649 0.53419 0.0
H3503 H 0.37822 0.835 0.55729 0.0
loop_
_geom_bond_atom_site_label_1
_geom_bond_atom_site_label_2
_geom_bond_distance
_geom_bond_site_symmetry_2
_ccdc_geom_bond_type
C0 O1 1.160 . S
C0 O7 1.185 . S
O1 C0 1.160 . S
O2 Zn3 1.899 . S
O2 C10 1.284 . S
Zn3 O2 1.899 . S
Zn3 O4 2.032 . S
Zn3 O7 2.086 . S
Zn3 O12 1.977 . S
O4 Zn3 2.032 . S
O4 C8 1.278 1_455 S
C5 O6 1.203 . S
C5 O12 1.267 . S
O6 C5 1.203 . S
O7 C0 1.185 . S
O7 Zn3 2.086 . S
C8 O4 1.278 1_655 S
C8 O9 1.211 . S
O9 C8 1.211 . S
C10 O2 1.284 . S
C10 O11 1.273 . S
O11 C10 1.273 . S
O12 Zn3 1.977 . S
O12 C5 1.267 . S
C13 O14 1.160 . S
C13 O20 1.185 . S
O14 C13 1.160 . S
O15 Zn16 1.899 . S
O15 C23 1.284 . S
Zn16 O15 1.899 . S
Zn16 O17 2.032 . S
Zn16 O20 2.086 . S
Zn16 O25 1.977 1_545 S
O17 Zn16 2.032 . S
O17 C21 1.278 . S
C18 O19 1.203 . S
C18 O25 1.267 . S
O19 C18 1.203 . S
O20 C13 1.185 . S
O20 Zn16 2.086 . S
C21 O17 1.278 . S
C21 O22 1.211 . S
O22 C21 1.211 . S
C23 O15 1.284 . S
C23 O24 1.273 . S
O24 C23 1.273 . S
O25 Zn16 1.977 1_565 S
O25 C18 1.267 . S
C26 O27 1.160 . S
C26 O33 1.185 . S
O27 C26 1.160 . S
O28 Zn29 1.899 . S
O28 C36 1.284 . S
Zn29 O28 1.899 . S
Zn29 O30 2.032 . S
Zn29 O33 2.086 . S
Zn29 O38 1.977 . S
O30 Zn29 2.032 . S
O30 C34 1.278 1_655 S
C31 O32 1.203 . S
C31 O38 1.267 . S
O32 C31 1.203 . S
O33 C26 1.185 . S
O33 Zn29 2.086 . S
C34 O30 1.278 1_455 S
C34 O35 1.211 . S
O35 C34 1.211 . S
C36 O28 1.284 . S
C36 O37 1.273 . S
O37 C36 1.273 . S
O38 Zn29 1.977 . S
O38 C31 1.267 . S
C39 O40 1.160 . S
C39 O46 1.185 . S
O40 C39 1.160 . S
O41 Zn42 1.899 . S
O41 C49 1.284 . S
Zn42 O41 1.899 . S
Zn42 O43 2.032 . S
Zn42 O46 2.086 . S
Zn42 O51 1.977 1_565 S
O43 Zn42 2.032 . S
O43 C47 1.278 . S
C44 O45 1.203 . S
C44 O51 1.267 . S
O45 C44 1.203 . S
O46 C39 1.185 . S
O46 Zn42 2.086 . S
C47 O43 1.278 . S
C47 O48 1.211 . S
O48 C47 1.211 . S
C49 O41 1.284 . S
C49 O50 1.273 . S
O50 C49 1.273 . S
O51 Zn42 1.977 1_545 S
O51 C44 1.267 . S
C52 O53 1.160 . S
C52 O59 1.185 . S
O53 C52 1.160 . S
O54 Zn55 1.899 . S
O54 C62 1.284 . S
Zn55 O54 1.899 . S
Zn55 O56 2.032 . S
Zn55 O59 2.086 . S
Zn55 O64 1.977 . S
O56 Zn55 2.032 . S
O56 C60 1.278 1_455 S
C57 O58 1.203 . S
C57 O64 1.267 . S
O58 C57 1.203 . S
O59 C52 1.185 . S
O59 Zn55 2.086 . S
C60 O56 1.278 1_655 S
C60 O61 1.211 . S
O61 C60 1.211 . S
C62 O54 1.284 . S
C62 O63 1.273 . S
O63 C62 1.273 . S
O64 Zn55 1.977 . S
O64 C57 1.267 . S
C65 O66 1.160 . S
C65 O72 1.185 . S
O66 C65 1.160 . S
O67 Zn68 1.899 . S
O67 C75 1.284 . S
Zn68 O67 1.899 . S
Zn68 O69 2.032 . S
Zn68 O72 2.086 . S
Zn68 O77 1.977 1_545 S
O69 Zn68 2.032 . S
O69 C73 1.278 . S
C70 O71 1.203 . S
C70 O77 1.267 . S
O71 C70 1.203 . S
O72 C65 1.185 . S
O72 Zn68 2.086 . S
C73 O69 1.278 . S
C73 O74 1.211 . S
O74 C73 1.211 . S
C75 O67 1.284 . S
C75 O76 1.273 . S
O76 C75 1.273 . S
O77 Zn68 1.977 1_565 S
O77 C70 1.267 . S
C78 O79 1.160 . S
C78 O85 1.185 . S
O79 C78 1.160 . S
O80 Zn81 1.899 . S
O80 C88 1.284 . S
Zn81 O80 1.899 . S
Zn81 O82 2.032 . S
Zn81 O85 2.086 . S
Zn81 O90 1.977 . S
O82 Zn81 2.032 . S
O82 C86 1.278 1_655 S
C83 O84 1.203 . S
C83 O90 1.267 . S
O84 C83 1.203 . S
O85 C78 1.185 . S
O85 Zn81 2.086 . S
C86 O82 1.278 1_455 S
C86 O87 1.211 . S
O87 C86 1.211 . S
C88 O80 1.284 . S
C88 O89 1.273 . S
O89 C88 1.273 . S
O90 Zn81 1.977 . S
O90 C83 1.267 . S
C91 O92 1.160 . S
C91 O98 1.185 . S
O92 C91 1.160 . S
O93 Zn94 1.899 . S
O93 C101 1.284 . S
Zn94 O93 1.899 . S
Zn94 O95 2.032 . S
Zn94 O98 2.086 . S
Zn94 O103 1.977 1_565 S
O95 Zn94 2.032 . S
O95 C99 1.278 . S
C96 O97 1.203 . S
C96 O103 1.267 . S
O97 C96 1.203 . S
O98 C91 1.185 . S
O98 Zn94 2.086 . S
C99 O95 1.278 . S
C99 O100 1.211 . S
O100 C99 1.211 . S
C101 O93 1.284 . S
C101 O102 1.273 . S
O102 C101 1.273 . S
O103 Zn94 1.977 1_545 S
O103 C96 1.267 . S
C104 O105 1.160 . S
C104 O111 1.185 . S
O105 C104 1.160 . S
O106 Zn107 1.899 . S
O106 C114 1.284 . S
Zn107 O106 1.899 . S
Zn107 O108 2.032 . S
Zn107 O111 2.086 . S
Zn107 O116 1.977 . S
O108 Zn107 2.032 . S
O108 C112 1.278 . S
C109 O110 1.203 1_565 S
C109 O116 1.267 1_565 S
O110 C109 1.203 1_545 S
O111 C104 1.185 . S
O111 Zn107 2.086 . S
C112 O108 1.278 . S
C112 O113 1.211 . S
O113 C112 1.211 . S
C114 O106 1.284 . S
C114 O115 1.273 . S
O115 C114 1.273 . S
O116 Zn107 1.977 . S
O116 C109 1.267 1_545 S
C117 O118 1.160 . S
C117 O124 1.185 . S
O118 C117 1.160 . S
O119 Zn120 1.899 . S
O119 C127 1.284 . S
Zn120 O119 1.899 . S
Zn120 O121 2.032 . S
Zn120 O124 2.086 . S
Zn120 O129 1.977 . S
O121 Zn120 2.032 . S
O121 C125 1.278 1_655 S
C122 O123 1.203 . S
C122 O129 1.267 . S
O123 C122 1.203 . S
O124 C117 1.185 . S
O124 Zn120 2.086 . S
C125 O121 1.278 1_455 S
C125 O126 1.211 . S
O126 C125 1.211 . S
C127 O119 1.284 . S
C127 O128 1.273 . S
O128 C127 1.273 . S
O129 Zn120 1.977 . S
O129 C122 1.267 . S
C130 O131 1.160 . S
C130 O137 1.185 . S
O131 C130 1.160 . S
O132 Zn133 1.899 . S
O132 C140 1.284 . S
Zn133 O132 1.899 . S
Zn133 O134 2.032 . S
Zn133 O137 2.086 . S
Zn133 O142 1.977 . S
O134 Zn133 2.032 . S
O134 C138 1.278 . S
C135 O136 1.203 1_545 S
C135 O142 1.267 1_545 S
O136 C135 1.203 1_565 S
O137 C130 1.185 . S
O137 Zn133 2.086 . S
C138 O134 1.278 . S
C138 O139 1.211 . S
O139 C138 1.211 . S
C140 O132 1.284 . S
C140 O141 1.273 . S
O141 C140 1.273 . S
O142 Zn133 1.977 . S
O142 C135 1.267 1_565 S
C143 O144 1.160 . S
C143 O150 1.185 . S
O144 C143 1.160 . S
O145 Zn146 1.899 . S
O145 C153 1.284 . S
Zn146 O145 1.899 . S
Zn146 O147 2.032 . S
Zn146 O150 2.086 . S
Zn146 O155 1.977 . S
O147 Zn146 2.032 . S
O147 C151 1.278 1_455 S
C148 O149 1.203 . S
C148 O155 1.267 . S
O149 C148 1.203 . S
O150 C143 1.185 . S
O150 Zn146 2.086 . S
C151 O147 1.278 1_655 S
C151 O152 1.211 . S
O152 C151 1.211 . S
C153 O145 1.284 . S
C153 O154 1.273 . S
O154 C153 1.273 . S
O155 Zn146 1.977 . S
O155 C148 1.267 . S
C156 O157 1.160 . S
C156 O163 1.185 . S
O157 C156 1.160 . S
O158 Zn159 1.899 . S
O158 C166 1.284 . S
Zn159 O158 1.899 . S
Zn159 O160 2.032 . S
Zn159 O163 2.086 . S
Zn159 O168 1.977 . S
O160 Zn159 2.032 . S
O160 C164 1.278 . S
C161 O162 1.203 1_545 S
C161 O168 1.267 1_545 S
O162 C161 1.203 1_565 S
O163 C156 1.185 . S
O163 Zn159 2.086 . S
C164 O160 1.278 . S
C164 O165 1.211 . S
O165 C164 1.211 . S
C166 O158 1.284 . S
C166 O167 1.273 . S
O167 C166 1.273 . S
O168 Zn159 1.977 . S
O168 C161 1.267 1_565 S
C169 O170 1.160 . S
C169 O176 1.185 . S
O170 C169 1.160 . S
O171 Zn172 1.899 . S
O171 C179 1.284 . S
Zn172 O171 1.899 . S
Zn172 O173 2.032 . S
Zn172 O176 2.086 . S
Zn172 O181 1.977 . S
O173 Zn172 2.032 . S
O173 C177 1.278 1_455 S
C174 O175 1.203 . S
C174 O181 1.267 . S
O175 C174 1.203 . S
O176 C169 1.185 . S
O176 Zn172 2.086 . S
C177 O173 1.278 1_655 S
C177 O178 1.211 . S
O178 C177 1.211 . S
C179 O171 1.284 . S
C179 O180 1.273 . S
O180 C179 1.273 . S
O181 Zn172 1.977 . S
O181 C174 1.267 . S
C182 O183 1.160 . S
C182 O189 1.185 . S
O183 C182 1.160 . S
O184 Zn185 1.899 . S
O184 C192 1.284 . S
Zn185 O184 1.899 . S
Zn185 O186 2.032 . S
Zn185 O189 2.086 . S
Zn185 O194 1.977 . S
O186 Zn185 2.032 . S
O186 C190 1.278 . S
C187 O188 1.203 1_565 S
C187 O194 1.267 1_565 S
O188 C187 1.203 1_545 S
O189 C182 1.185 . S
O189 Zn185 2.086 . S
C190 O186 1.278 . S
C190 O191 1.211 . S
O191 C190 1.211 . S
C192 O184 1.284 . S
C192 O193 1.273 . S
O193 C192 1.273 . S
O194 Zn185 1.977 . S
O194 C187 1.267 1_545 S
C195 O196 1.160 . S
C195 O202 1.185 . S
O196 C195 1.160 . S
O197 Zn198 1.899 . S
O197 C205 1.284 . S
Zn198 O197 1.899 . S
Zn198 O199 2.032 . S
Zn198 O202 2.086 . S
Zn198 O207 1.977 . S
O199 Zn198 2.032 . S
O199 C203 1.278 1_655 S
C200 O201 1.203 . S
C200 O207 1.267 . S
O201 C200 1.203 . S
O202 C195 1.185 . S
O202 Zn198 2.086 . S
C203 O199 1.278 1_455 S
C203 O204 1.211 . S
O204 C203 1.211 . S
C205 O197 1.284 . S
C205 O206 1.273 . S
O206 C205 1.273 . S
O207 Zn198 1.977 . S
O207 C200 1.267 . S
C208 O209 1.160 . S
C208 O215 1.185 . S
O209 C208 1.160 . S
O210 Zn211 1.899 . S
O210 C218 1.284 . S
Zn211 O210 1.899 . S
Zn211 O212 2.032 . S
Zn211 O215 2.086 . S
Zn211 O220 1.977 1_554 S
O212 Zn211 2.032 . S
O212 C216 1.278 . S
C213 O214 1.203 . S
C213 O220 1.267 . S
O214 C213 1.203 . S
O215 C208 1.185 . S
O215 Zn211 2.086 . S
C216 O212 1.278 . S
C216 O217 1.211 . S
O217 C216 1.211 . S
C218 O210 1.284 . S
C218 O219 1.273 . S
O219 C218 1.273 . S
O220 Zn211 1.977 1_556 S
O220 C213 1.267 . S
C221 O222 1.160 . S
C221 O228 1.185 . S
O222 C221 1.160 . S
O223 Zn224 1.899 . S
O223 C231 1.284 . S
Zn224 O223 1.899 . S
Zn224 O225 2.032 . S
Zn224 O228 2.086 . S
Zn224 O233 1.977 1_556 S
O225 Zn224 2.032 . S
O225 C229 1.278 . S
C226 O227 1.203 . S
C226 O233 1.267 . S
O227 C226 1.203 . S
O228 C221 1.185 . S
O228 Zn224 2.086 . S
C229 O225 1.278 . S
C229 O230 1.211 . S
O230 C229 1.211 . S
C231 O223 1.284 . S
C231 O232 1.273 . S
O232 C231 1.273 . S
O233 Zn224 1.977 1_554 S
O233 C226 1.267 . S
C234 O235 1.160 . S
C234 O241 1.185 . S
O235 C234 1.160 . S
O236 Zn237 1.899 . S
O236 C244 1.284 . S
Zn237 O236 1.899 . S
Zn237 O238 2.032 . S
Zn237 O241 2.086 . S
Zn237 O246 1.977 . S
O238 Zn237 2.032 . S
O238 C242 1.278 . S
C239 O240 1.203 1_554 S
C239 O246 1.267 1_554 S
O240 C239 1.203 1_556 S
O241 C234 1.185 . S
O241 Zn237 2.086 . S
C242 O238 1.278 . S
C242 O243 1.211 . S
O243 C242 1.211 . S
C244 O236 1.284 . S
C244 O245 1.273 . S
O245 C244 1.273 . S
O246 Zn237 1.977 . S
O246 C239 1.267 1_556 S
C247 O248 1.160 . S
C247 O254 1.185 . S
O248 C247 1.160 . S
O249 Zn250 1.899 . S
O249 C257 1.284 . S
Zn250 O249 1.899 . S
Zn250 O251 2.032 . S
Zn250 O254 2.086 . S
Zn250 O259 1.977 1_556 S
O251 Zn250 2.032 . S
O251 C255 1.278 . S
C252 O253 1.203 . S
C252 O259 1.267 . S
O253 C252 1.203 . S
O254 C247 1.185 . S
O254 Zn250 2.086 . S
C255 O251 1.278 . S
C255 O256 1.211 . S
O256 C255 1.211 . S
C257 O249 1.284 . S
C257 O258 1.273 . S
O258 C257 1.273 . S
O259 Zn250 1.977 1_554 S
O259 C252 1.267 . S
C260 O261 1.160 . S
C260 O267 1.185 . S
O261 C260 1.160 . S
O262 Zn263 1.899 . S
O262 C270 1.284 . S
Zn263 O262 1.899 . S
Zn263 O264 2.032 . S
Zn263 O267 2.086 . S
Zn263 O272 1.977 . S
O264 Zn263 2.032 . S
O264 C268 1.278 . S
C265 O266 1.203 1_554 S
C265 O272 1.267 1_554 S
O266 C265 1.203 1_556 S
O267 C260 1.185 . S
O267 Zn263 2.086 . S
C268 O264 1.278 . S
C268 O269 1.211 . S
O269 C268 1.211 . S
C270 O262 1.284 . S
C270 O271 1.273 . S
O271 C270 1.273 . S
O272 Zn263 1.977 . S
O272 C265 1.267 1_556 S
C273 O274 1.160 . S
C273 O280 1.185 . S
O274 C273 1.160 . S
O275 Zn276 1.899 . S
O275 C283 1.284 . S
Zn276 O275 1.899 . S
Zn276 O277 2.032 . S
Zn276 O280 2.086 . S
Zn276 O285 1.977 1_554 S
O277 Zn276 2.032 . S
O277 C281 1.278 . S
C278 O279 1.203 . S
C278 O285 1.267 . S
O279 C278 1.203 . S
O280 C273 1.185 . S
O280 Zn276 2.086 . S
C281 O277 1.278 . S
C281 O282 1.211 . S
O282 C281 1.211 . S
C283 O275 1.284 . S
C283 O284 1.273 . S
O284 C283 1.273 . S
O285 Zn276 1.977 1_556 S
O285 C278 1.267 . S
C286 O287 1.160 . S
C286 O293 1.185 . S
O287 C286 1.160 . S
O288 Zn289 1.899 . S
O288 C296 1.284 . S
Zn289 O288 1.899 . S
Zn289 O290 2.032 . S
Zn289 O293 2.086 . S
Zn289 O298 1.977 . S
O290 Zn289 2.032 . S
O290 C294 1.278 . S
C291 O292 1.203 1_556 S
C291 O298 1.267 1_556 S
O292 C291 1.203 1_554 S
O293 C286 1.185 . S
O293 Zn289 2.086 . S
C294 O290 1.278 . S
C294 O295 1.211 . S
O295 C294 1.211 . S
C296 O288 1.284 . S
C296 O297 1.273 . S
O297 C296 1.273 . S
O298 Zn289 1.977 . S
O298 C291 1.267 1_554 S
C299 O300 1.160 . S
C299 O306 1.185 . S
O300 C299 1.160 . S
O301 Zn302 1.899 . S
O301 C309 1.284 . S
Zn302 O301 1.899 . S
Zn302 O303 2.032 . S
Zn302 O306 2.086 . S
Zn302 O311 1.977 . S
O303 Zn302 2.032 . S
O303 C307 1.278 . S
C304 O305 1.203 1_556 S
C304 O311 1.267 1_556 S
O305 C304 1.203 1_554 S
O306 C299 1.185 . S
O306 Zn302 2.086 . S
C307 O303 1.278 . S
C307 O308 1.211 . S
O308 C307 1.211 . S
C309 O301 1.284 . S
C309 O310 1.273 . S
O310 C309 1.273 . S
O311 Zn302 1.977 . S
O311 C304 1.267 1_554 S
C312 O313 1.160 . S
C312 O319 1.185 . S
O313 C312 1.160 . S
O314 Zn315 1.899 . S
O314 C322 1.284 . S
Zn315 O314 1.899 . S
Zn315 O316 2.032 . S
Zn315 O319 2.086 . S
Zn315 O324 1.977 . S
O316 Zn315 2.032 . S
O316 C320 1.278 . S
C317 O318 1.203 . S
C317 O324 1.267 . S
O318 C317 1.203 . S
O319 C312 1.185 . S
O319 Zn315 2.086 . S
C320 O316 1.278 . S
C320 O321 1.211 . S
O321 C320 1.211 . S
C322 O314 1.284 . S
C322 O323 1.273 . S
O323 C322 1.273 . S
O324 Zn315 1.977 . S
O324 C317 1.267 . S
C325 O326 1.160 . S
C325 O332 1.185 . S
O326 C325 1.160 . S
O327 Zn328 1.899 . S
O327 C335 1.284 . S
Zn328 O327 1.899 . S
Zn328 O329 2.032 . S
Zn328 O332 2.086 . S
Zn328 O337 1.977 . S
O329 Zn328 2.032 . S
O329 C333 1.278 . S
C330 O331 1.203 . S
C330 O337 1.267 . S
O331 C330 1.203 . S
O332 C325 1.185 . S
O332 Zn328 2.086 . S
C333 O329 1.278 . S
C333 O334 1.211 . S
O334 C333 1.211 . S
C335 O327 1.284 . S
C335 O336 1.273 . S
O336 C335 1.273 . S
O337 Zn328 1.977 . S
O337 C330 1.267 . S
C338 O339 1.160 . S
C338 O345 1.185 . S
O339 C338 1.160 . S
O340 Zn341 1.899 . S
O340 C348 1.284 . S
Zn341 O340 1.899 . S
Zn341 O342 2.032 . S
Zn341 O345 2.086 . S
Zn341 O350 1.977 . S
O342 Zn341 2.032 . S
O342 C346 1.278 . S
C343 O344 1.203 . S
C343 O350 1.267 . S
O344 C343 1.203 . S
O345 C338 1.185 . S
O345 Zn341 2.086 . S
C346 O342 1.278 . S
C346 O347 1.211 . S
O347 C346 1.211 . S
C348 O340 1.284 . S
C348 O349 1.273 . S
O349 C348 1.273 . S
O350 Zn341 1.977 . S
O350 C343 1.267 . S
C351 O352 1.160 . S
C351 O358 1.185 . S
O352 C351 1.160 . S
O353 Zn354 1.899 . S
O353 C361 1.284 . S
Zn354 O353 1.899 . S
Zn354 O355 2.032 . S
Zn354 O358 2.086 . S
Zn354 O363 1.977 . S
O355 Zn354 2.032 . S
O355 C359 1.278 . S
C356 O357 1.203 . S
C356 O363 1.267 . S
O357 C356 1.203 . S
O358 C351 1.185 . S
O358 Zn354 2.086 . S
C359 O355 1.278 . S
C359 O360 1.211 . S
O360 C359 1.211 . S
C361 O353 1.284 . S
C361 O362 1.273 . S
O362 C361 1.273 . S
O363 Zn354 1.977 . S
O363 C356 1.267 . S
C364 O365 1.160 . S
C364 O371 1.185 . S
O365 C364 1.160 . S
O366 Zn367 1.899 . S
O366 C374 1.284 . S
Zn367 O366 1.899 . S
Zn367 O368 2.032 . S
Zn367 O371 2.086 . S
Zn367 O376 1.977 . S
O368 Zn367 2.032 . S
O368 C372 1.278 . S
C369 O370 1.203 . S
C369 O376 1.267 . S
O370 C369 1.203 . S
O371 C364 1.185 . S
O371 Zn367 2.086 . S
C372 O368 1.278 . S
C372 O373 1.211 . S
O373 C372 1.211 . S
C374 O366 1.284 . S
C374 O375 1.273 . S
O375 C374 1.273 . S
O376 Zn367 1.977 . S
O376 C369 1.267 . S
C377 O378 1.160 . S
C377 O384 1.185 . S
O378 C377 1.160 . S
O379 Zn380 1.899 . S
O379 C387 1.284 . S
Zn380 O379 1.899 . S
Zn380 O381 2.032 . S
Zn380 O384 2.086 . S
Zn380 O389 1.977 . S
O381 Zn380 2.032 . S
O381 C385 1.278 . S
C382 O383 1.203 . S
C382 O389 1.267 . S
O383 C382 1.203 . S
O384 C377 1.185 . S
O384 Zn380 2.086 . S
C385 O381 1.278 . S
C385 O386 1.211 . S
O386 C385 1.211 . S
C387 O379 1.284 . S
C387 O388 1.273 . S
O388 C387 1.273 . S
O389 Zn380 1.977 . S
O389 C382 1.267 . S
C390 O391 1.160 . S
C390 O397 1.185 . S
O391 C390 1.160 . S
O392 Zn393 1.899 . S
O392 C400 1.284 . S
Zn393 O392 1.899 . S
Zn393 O394 2.032 . S
Zn393 O397 2.086 . S
Zn393 O402 1.977 . S
O394 Zn393 2.032 . S
O394 C398 1.278 . S
C395 O396 1.203 . S
C395 O402 1.267 . S
O396 C395 1.203 . S
O397 C390 1.185 . S
O397 Zn393 2.086 . S
C398 O394 1.278 . S
C398 O399 1.211 . S
O399 C398 1.211 . S
C400 O392 1.284 . S
C400 O401 1.273 . S
O401 C400 1.273 . S
O402 Zn393 1.977 . S
O402 C395 1.267 . S
C403 O404 1.160 . S
C403 O410 1.185 . S
O404 C403 1.160 . S
O405 Zn406 1.899 . S
O405 C413 1.284 . S
Zn406 O405 1.899 . S
Zn406 O407 2.032 . S
Zn406 O410 2.086 . S
Zn406 O415 1.977 . S
O407 Zn406 2.032 . S
O407 C411 1.278 . S
C408 O409 1.203 . S
C408 O415 1.267 . S
O409 C408 1.203 . S
O410 C403 1.185 . S
O410 Zn406 2.086 . S
C411 O407 1.278 . S
C411 O412 1.211 . S
O412 C411 1.211 . S
C413 O405 1.284 . S
C413 O414 1.273 . S
O414 C413 1.273 . S
O415 Zn406 1.977 . S
O415 C408 1.267 . S
C416 O417 1.160 . S
C416 O423 1.185 . S
O417 C416 1.160 . S
O418 Zn419 1.899 . S
O418 C426 1.284 . S
Zn419 O418 1.899 . S
Zn419 O420 2.032 . S
Zn419 O423 2.086 . S
Zn419 O428 1.977 . S
O420 Zn419 2.032 . S
O420 C424 1.278 . S
C421 O422 1.203 . S
C421 O428 1.267 . S
O422 C421 1.203 . S
O423 C416 1.185 . S
O423 Zn419 2.086 . S
C424 O420 1.278 . S
C424 O425 1.211 . S
O425 C424 1.211 . S
C426 O418 1.284 . S
C426 O427 1.273 . S
O427 C426 1.273 . S
O428 Zn419 1.977 . S
O428 C421 1.267 . S
C429 O430 1.160 . S
C429 O436 1.185 . S
O430 C429 1.160 . S
O431 Zn432 1.899 . S
O431 C439 1.284 . S
Zn432 O431 1.899 . S
Zn432 O433 2.032 . S
Zn432 O436 2.086 . S
Zn432 O441 1.977 . S
O433 Zn432 2.032 . S
O433 C437 1.278 . S
C434 O435 1.203 . S
C434 O441 1.267 . S
O435 C434 1.203 . S
O436 C429 1.185 . S
O436 Zn432 2.086 . S
C437 O433 1.278 . S
C437 O438 1.211 . S
O438 C437 1.211 . S
C439 O431 1.284 . S
C439 O440 1.273 . S
O440 C439 1.273 . S
O441 Zn432 1.977 . S
O441 C434 1.267 . S
C442 O443 1.160 . S
C442 O449 1.185 . S
O443 C442 1.160 . S
O444 Zn445 1.899 . S
O444 C452 1.284 . S
Zn445 O444 1.899 . S
Zn445 O446 2.032 . S
Zn445 O449 2.086 . S
Zn445 O454 1.977 . S
O446 Zn445 2.032 . S
O446 C450 1.278 . S
C447 O448 1.203 . S
C447 O454 1.267 . S
O448 C447 1.203 . S
O449 C442 1.185 . S
O449 Zn445 2.086 . S
C450 O446 1.278 . S
C450 O451 1.211 . S
O451 C450 1.211 . S
C452 O444 1.284 . S
C452 O453 1.273 . S
O453 C452 1.273 . S
O454 Zn445 1.977 . S
O454 C447 1.267 . S
C455 O456 1.160 . S
C455 O462 1.185 . S
O456 C455 1.160 . S
O457 Zn458 1.899 . S
O457 C465 1.284 . S
Zn458 O457 1.899 . S
Zn458 O459 2.032 . S
Zn458 O462 2.086 . S
Zn458 O467 1.977 . S
O459 Zn458 2.032 . S
O459 C463 1.278 . S
C460 O461 1.203 . S
C460 O467 1.267 . S
O461 C460 1.203 . S
O462 C455 1.185 . S
O462 Zn458 2.086 . S
C463 O459 1.278 . S
C463 O464 1.211 . S
O464 C463 1.211 . S
C465 O457 1.284 . S
C465 O466 1.273 . S
O466 C465 1.273 . S
O467 Zn458 1.977 . S
O467 C460 1.267 . S
C468 O469 1.160 . S
C468 O475 1.185 . S
O469 C468 1.160 . S
O470 Zn471 1.899 . S
O470 C478 1.284 . S
Zn471 O470 1.899 . S
Zn471 O472 2.032 . S
Zn471 O475 2.086 . S
Zn471 O480 1.977 . S
O472 Zn471 2.032 . S
O472 C476 1.278 . S
C473 O474 1.203 . S
C473 O480 1.267 . S
O474 C473 1.203 . S
O475 C468 1.185 . S
O475 Zn471 2.086 . S
C476 O472 1.278 . S
C476 O477 1.211 . S
O477 C476 1.211 . S
C478 O470 1.284 . S
C478 O479 1.273 . S
O479 C478 1.273 . S
O480 Zn471 1.977 . S
O480 C473 1.267 . S
C481 O482 1.160 . S
C481 O488 1.185 . S
O482 C481 1.160 . S
O483 Zn484 1.899 . S
O483 C491 1.284 . S
Zn484 O483 1.899 . S
Zn484 O485 2.032 . S
Zn484 O488 2.086 . S
Zn484 O493 1.977 . S
O485 Zn484 2.032 . S
O485 C489 1.278 . S
C486 O487 1.203 . S
C486 O493 1.267 . S
O487 C486 1.203 . S
O488 C481 1.185 . S
O488 Zn484 2.086 . S
C489 O485 1.278 . S
C489 O490 1.211 . S
O490 C489 1.211 . S
C491 O483 1.284 . S
C491 O492 1.273 . S
O492 C491 1.273 . S
O493 Zn484 1.977 . S
O493 C486 1.267 . S
C494 O495 1.160 . S
C494 O501 1.185 . S
O495 C494 1.160 . S
O496 Zn497 1.899 . S
O496 C504 1.284 . S
Zn497 O496 1.899 . S
Zn497 O498 2.032 . S
Zn497 O501 2.086 . S
Zn497 O506 1.977 . S
O498 Zn497 2.032 . S
O498 C502 1.278 . S
C499 O500 1.203 . S
C499 O506 1.267 . S
O500 C499 1.203 . S
O501 C494 1.185 . S
O501 Zn497 2.086 . S
C502 O498 1.278 . S
C502 O503 1.211 . S
O503 C502 1.211 . S
C504 O496 1.284 . S
C504 O505 1.273 . S
O505 C504 1.273 . S
O506 Zn497 1.977 . S
O506 C499 1.267 . S
C507 O508 1.160 . S
C507 O514 1.185 . S
O508 C507 1.160 . S
O509 Zn510 1.899 . S
O509 C517 1.284 . S
Zn510 O509 1.899 . S
Zn510 O511 2.032 . S
Zn510 O514 2.086 . S
Zn510 O519 1.977 . S
O511 Zn510 2.032 . S
O511 C515 1.278 . S
C512 O513 1.203 . S
C512 O519 1.267 . S
O513 C512 1.203 . S
O514 C507 1.185 . S
O514 Zn510 2.086 . S
C515 O511 1.278 . S
C515 O516 1.211 . S
O516 C515 1.211 . S
C517 O509 1.284 . S
C517 O518 1.273 . S
O518 C517 1.273 . S
O519 Zn510 1.977 . S
O519 C512 1.267 . S
C520 O521 1.160 . S
C520 O527 1.185 . S
O521 C520 1.160 . S
O522 Zn523 1.899 . S
O522 C530 1.284 . S
Zn523 O522 1.899 . S
Zn523 O524 2.032 . S
Zn523 O527 2.086 . S
Zn523 O532 1.977 . S
O524 Zn523 2.032 . S
O524 C528 1.278 . S
C525 O526 1.203 . S
C525 O532 1.267 . S
O526 C525 1.203 . S
O527 C520 1.185 . S
O527 Zn523 2.086 . S
C528 O524 1.278 . S
C528 O529 1.211 . S
O529 C528 1.211 . S
C530 O522 1.284 . S
C530 O531 1.273 . S
O531 C530 1.273 . S
O532 Zn523 1.977 . S
O532 C525 1.267 . S
C533 O534 1.160 . S
C533 O540 1.185 . S
O534 C533 1.160 . S
O535 Zn536 1.899 . S
O535 C543 1.284 . S
Zn536 O535 1.899 . S
Zn536 O537 2.032 . S
Zn536 O540 2.086 . S
Zn536 O545 1.977 . S
O537 Zn536 2.032 . S
O537 C541 1.278 . S
C538 O539 1.203 . S
C538 O545 1.267 . S
O539 C538 1.203 . S
O540 C533 1.185 . S
O540 Zn536 2.086 . S
C541 O537 1.278 . S
C541 O542 1.211 . S
O542 C541 1.211 . S
C543 O535 1.284 . S
C543 O544 1.273 . S
O544 C543 1.273 . S
O545 Zn536 1.977 . S
O545 C538 1.267 . S
C546 O547 1.160 . S
C546 O553 1.185 . S
O547 C546 1.160 . S
O548 Zn549 1.899 . S
O548 C556 1.284 . S
Zn549 O548 1.899 . S
Zn549 O550 2.032 . S
Zn549 O553 2.086 . S
Zn549 O558 1.977 . S
O550 Zn549 2.032 . S
O550 C554 1.278 . S
C551 O552 1.203 . S
C551 O558 1.267 . S
O552 C551 1.203 . S
O553 C546 1.185 . S
O553 Zn549 2.086 . S
C554 O550 1.278 . S
C554 O555 1.211 . S
O555 C554 1.211 . S
C556 O548 1.284 . S
C556 O557 1.273 . S
O557 C556 1.273 . S
O558 Zn549 1.977 . S
O558 C551 1.267 . S
C559 O560 1.160 . S
C559 O566 1.185 . S
O560 C559 1.160 . S
O561 Zn562 1.899 . S
O561 C569 1.284 . S
Zn562 O561 1.899 . S
Zn562 O563 2.032 . S
Zn562 O566 2.086 . S
Zn562 O571 1.977 . S
O563 Zn562 2.032 . S
O563 C567 1.278 . S
C564 O565 1.203 . S
C564 O571 1.267 . S
O565 C564 1.203 . S
O566 C559 1.185 . S
O566 Zn562 2.086 . S
C567 O563 1.278 . S
C567 O568 1.211 . S
O568 C567 1.211 . S
C569 O561 1.284 . S
C569 O570 1.273 . S
O570 C569 1.273 . S
O571 Zn562 1.977 . S
O571 C564 1.267 . S
C572 O573 1.160 . S
C572 O579 1.185 . S
O573 C572 1.160 . S
O574 Zn575 1.899 . S
O574 C582 1.284 . S
Zn575 O574 1.899 . S
Zn575 O576 2.032 . S
Zn575 O579 2.086 . S
Zn575 O584 1.977 . S
O576 Zn575 2.032 . S
O576 C580 1.278 . S
C577 O578 1.203 . S
C577 O584 1.267 . S
O578 C577 1.203 . S
O579 C572 1.185 . S
O579 Zn575 2.086 . S
C580 O576 1.278 . S
C580 O581 1.211 . S
O581 C580 1.211 . S
C582 O574 1.284 . S
C582 O583 1.273 . S
O583 C582 1.273 . S
O584 Zn575 1.977 . S
O584 C577 1.267 . S
C585 O586 1.160 . S
C585 O592 1.185 . S
O586 C585 1.160 . S
O587 Zn588 1.899 . S
O587 C595 1.284 . S
Zn588 O587 1.899 . S
Zn588 O589 2.032 . S
Zn588 O592 2.086 . S
Zn588 O597 1.977 . S
O589 Zn588 2.032 . S
O589 C593 1.278 . S
C590 O591 1.203 . S
C590 O597 1.267 . S
O591 C590 1.203 . S
O592 C585 1.185 . S
O592 Zn588 2.086 . S
C593 O589 1.278 . S
C593 O594 1.211 . S
O594 C593 1.211 . S
C595 O587 1.284 . S
C595 O596 1.273 . S
O596 C595 1.273 . S
O597 Zn588 1.977 . S
O597 C590 1.267 . S
C598 O599 1.160 . S
C598 O605 1.185 . S
O599 C598 1.160 . S
O600 Zn601 1.899 . S
O600 C608 1.284 . S
Zn601 O600 1.899 . S
Zn601 O602 2.032 . S
Zn601 O605 2.086 . S
Zn601 O610 1.977 . S
O602 Zn601 2.032 . S
O602 C606 1.278 . S
C603 O604 1.203 . S
C603 O610 1.267 . S
O604 C603 1.203 . S
O605 C598 1.185 . S
O605 Zn601 2.086 . S
C606 O602 1.278 . S
C606 O607 1.211 . S
O607 C606 1.211 . S
C608 O600 1.284 . S
C608 O609 1.273 . S
O609 C608 1.273 . S
O610 Zn601 1.977 . S
O610 C603 1.267 . S
C611 O612 1.160 . S
C611 O618 1.185 . S
O612 C611 1.160 . S
O613 Zn614 1.899 . S
O613 C621 1.284 . S
Zn614 O613 1.899 . S
Zn614 O615 2.032 . S
Zn614 O618 2.086 . S
Zn614 O623 1.977 . S
O615 Zn614 2.032 . S
O615 C619 1.278 . S
C616 O617 1.203 . S
C616 O623 1.267 . S
O617 C616 1.203 . S
O618 C611 1.185 . S
O618 Zn614 2.086 . S
C619 O615 1.278 . S
C619 O620 1.211 . S
O620 C619 1.211 . S
C621 O613 1.284 . S
C621 O622 1.273 . S
O622 C621 1.273 . S
O623 Zn614 1.977 . S
O623 C616 1.267 . S
C624 C625 1.349 . S
C624 C626 1.327 . S
C624 H649 0.950 . S
C625 C624 1.349 . S
C625 C641 1.349 . S
C626 C624 1.327 . S
C626 C645 1.429 . S
C626 H650 0.950 . S
C627 C644 1.574 . S
C627 C646 1.368 . S
C627 H651 0.949 . S
H628 C632 0.949 . S
C629 C630 1.349 . S
C629 C631 1.327 . S
C629 H652 0.950 . S
C630 C629 1.349 . S
C630 C642 1.349 . S
C631 C629 1.327 . S
C631 C647 1.429 . S
C631 H653 0.950 . S
C632 H628 0.949 . S
C632 C640 1.574 . S
C632 C648 1.368 . S
H633 C641 0.950 . S
H634 C639 0.950 . S
H635 C640 0.949 . S
H636 C642 0.950 . S
H637 C643 0.950 . S
H638 C644 0.949 . S
C639 H634 0.950 . S
C639 C641 1.327 . S
C639 C645 1.429 . S
C640 C632 1.574 . S
C640 H635 0.949 . S
C640 C646 1.368 . S
C641 C625 1.349 . S
C641 H633 0.950 . S
C641 C639 1.327 . S
C642 C630 1.349 . S
C642 H636 0.950 . S
C642 C643 1.327 . S
C643 H637 0.950 . S
C643 C642 1.327 . S
C643 C647 1.429 . S
C644 C627 1.574 . S
C644 H638 0.949 . S
C644 C648 1.368 . S
C645 C626 1.429 . S
C645 C639 1.429 . S
C645 C646 1.523 . S
C646 C627 1.368 . S
C646 C640 1.368 . S
C646 C645 1.523 . S
C647 C631 1.429 . S
C647 C643 1.429 . S
C647 C648 1.523 . S
C648 C632 1.368 . S
C648 C644 1.368 . S
C648 C647 1.523 . S
H649 C624 0.950 . S
H650 C626 0.950 . S
H651 C627 0.949 . S
H652 C629 0.950 . S
H653 C631 0.950 . S
C654 C655 1.349 . S
C654 C656 1.327 . S
C654 H679 0.950 . S
C655 C654 1.349 . S
C655 C671 1.349 . S
C656 C654 1.327 . S
C656 C675 1.429 . S
C656 H680 0.950 . S
C657 C674 1.574 . S
C657 C676 1.368 . S
C657 H681 0.949 . S
H658 C662 0.949 . S
C659 C660 1.349 . S
C659 C661 1.327 . S
C659 H682 0.950 . S
C660 C659 1.349 . S
C660 C672 1.349 . S
C661 C659 1.327 . S
C661 C677 1.429 . S
C661 H683 0.950 . S
C662 H658 0.949 . S
C662 C670 1.574 . S
C662 C678 1.368 . S
H663 C671 0.950 . S
H664 C669 0.950 . S
H665 C670 0.949 . S
H666 C672 0.950 . S
H667 C673 0.950 . S
H668 C674 0.949 . S
C669 H664 0.950 . S
C669 C671 1.327 . S
C669 C675 1.429 . S
C670 C662 1.574 . S
C670 H665 0.949 . S
C670 C676 1.368 . S
C671 C655 1.349 . S
C671 H663 0.950 . S
C671 C669 1.327 . S
C672 C660 1.349 . S
C672 H666 0.950 . S
C672 C673 1.327 . S
C673 H667 0.950 . S
C673 C672 1.327 . S
C673 C677 1.429 . S
C674 C657 1.574 . S
C674 H668 0.949 . S
C674 C678 1.368 . S
C675 C656 1.429 . S
C675 C669 1.429 . S
C675 C676 1.523 . S
C676 C657 1.368 . S
C676 C670 1.368 . S
C676 C675 1.523 . S
C677 C661 1.429 . S
C677 C673 1.429 . S
C677 C678 1.523 . S
C678 C662 1.368 . S
C678 C674 1.368 . S
C678 C677 1.523 . S
H679 C654 0.950 . S
H680 C656 0.950 . S
H681 C657 0.949 . S
H682 C659 0.950 . S
H683 C661 0.950 . S
C684 C685 1.349 . S
C684 C686 1.327 . S
C684 H709 0.950 . S
C685 C684 1.349 . S
C685 C701 1.349 . S
C686 C684 1.327 . S
C686 C705 1.429 . S
C686 H710 0.950 . S
C687 C704 1.574 . S
C687 C706 1.368 . S
C687 H711 0.949 . S
H688 C692 0.949 . S
C689 C690 1.349 . S
C689 C691 1.327 . S
C689 H712 0.950 . S
C690 C689 1.349 . S
C690 C702 1.349 . S
C691 C689 1.327 . S
C691 C707 1.429 . S
C691 H713 0.950 . S
C692 H688 0.949 . S
C692 C700 1.574 . S
C692 C708 1.368 . S
H693 C701 0.950 . S
H694 C699 0.950 . S
H695 C700 0.949 . S
H696 C702 0.950 . S
H697 C703 0.950 . S
H698 C704 0.949 . S
C699 H694 0.950 . S
C699 C701 1.327 . S
C699 C705 1.429 . S
C700 C692 1.574 . S
C700 H695 0.949 . S
C700 C706 1.368 . S
C701 C685 1.349 . S
C701 H693 0.950 . S
C701 C699 1.327 . S
C702 C690 1.349 . S
C702 H696 0.950 . S
C702 C703 1.327 . S
C703 H697 0.950 . S
C703 C702 1.327 . S
C703 C707 1.429 . S
C704 C687 1.574 . S
C704 H698 0.949 . S
C704 C708 1.368 . S
C705 C686 1.429 . S
C705 C699 1.429 . S
C705 C706 1.523 . S
C706 C687 1.368 . S
C706 C700 1.368 . S
C706 C705 1.523 . S
C707 C691 1.429 . S
C707 C703 1.429 . S
C707 C708 1.523 . S
C708 C692 1.368 . S
C708 C704 1.368 . S
C708 C707 1.523 . S
H709 C684 0.950 . S
H710 C686 0.950 . S
H711 C687 0.949 . S
H712 C689 0.950 . S
H713 C691 0.950 . S
C714 C715 1.349 . S
C714 C716 1.327 . S
C714 H739 0.950 . S
C715 C714 1.349 . S
C715 C731 1.349 . S
C716 C714 1.327 . S
C716 C735 1.429 . S
C716 H740 0.950 . S
C717 C734 1.574 . S
C717 C736 1.368 . S
C717 H741 0.949 . S
H718 C722 0.949 . S
C719 C720 1.349 . S
C719 C721 1.327 . S
C719 H742 0.950 . S
C720 C719 1.349 . S
C720 C732 1.349 . S
C721 C719 1.327 . S
C721 C737 1.429 . S
C721 H743 0.950 . S
C722 H718 0.949 . S
C722 C730 1.574 . S
C722 C738 1.368 . S
H723 C731 0.950 . S
H724 C729 0.950 . S
H725 C730 0.949 . S
H726 C732 0.950 . S
H727 C733 0.950 . S
H728 C734 0.949 . S
C729 H724 0.950 . S
C729 C731 1.327 . S
C729 C735 1.429 . S
C730 C722 1.574 . S
C730 H725 0.949 . S
C730 C736 1.368 . S
C731 C715 1.349 . S
C731 H723 0.950 . S
C731 C729 1.327 . S
C732 C720 1.349 . S
C732 H726 0.950 . S
C732 C733 1.327 . S
C733 H727 0.950 . S
C733 C732 1.327 . S
C733 C737 1.429 . S
C734 C717 1.574 . S
C734 H728 0.949 . S
C734 C738 1.368 . S
C735 C716 1.429 . S
C735 C729 1.429 . S
C735 C736 1.523 . S
C736 C717 1.368 . S
C736 C730 1.368 . S
C736 C735 1.523 . S
C737 C721 1.429 . S
C737 C733 1.429 . S
C737 C738 1.523 . S
C738 C722 1.368 . S
C738 C734 1.368 . S
C738 C737 1.523 . S
H739 C714 0.950 . S
H740 C716 0.950 . S
H741 C717 0.949 . S
H742 C719 0.950 . S
H743 C721 0.950 . S
C744 C745 1.349 . S
C744 C746 1.327 . S
C744 H769 0.950 . S
C745 C744 1.349 . S
C745 C761 1.349 . S
C746 C744 1.327 . S
C746 C765 1.429 . S
C746 H770 0.950 . S
C747 C764 1.574 . S
C747 C766 1.368 . S
C747 H771 0.949 . S
H748 C752 0.949 . S
C749 C750 1.349 . S
C749 C751 1.327 . S
C749 H772 0.950 . S
C750 C749 1.349 . S
C750 C762 1.349 . S
C751 C749 1.327 . S
C751 C767 1.429 . S
C751 H773 0.950 . S
C752 H748 0.949 . S
C752 C760 1.574 . S
C752 C768 1.368 . S
H753 C761 0.950 . S
H754 C759 0.950 . S
H755 C760 0.949 . S
H756 C762 0.950 . S
H757 C763 0.950 . S
H758 C764 0.949 . S
C759 H754 0.950 . S
C759 C761 1.327 . S
C759 C765 1.429 . S
C760 C752 1.574 . S
C760 H755 0.949 . S
C760 C766 1.368 . S
C761 C745 1.349 . S
C761 H753 0.950 . S
C761 C759 1.327 . S
C762 C750 1.349 . S
C762 H756 0.950 . S
C762 C763 1.327 . S
C763 H757 0.950 . S
C763 C762 1.327 . S
C763 C767 1.429 . S
C764 C747 1.574 . S
C764 H758 0.949 . S
C764 C768 1.368 . S
C765 C746 1.429 . S
C765 C759 1.429 . S
C765 C766 1.523 . S
C766 C747 1.368 . S
C766 C760 1.368 . S
C766 C765 1.523 . S
C767 C751 1.429 . S
C767 C763 1.429 . S
C767 C768 1.523 . S
C768 C752 1.368 . S
C768 C764 1.368 . S
C768 C767 1.523 . S
H769 C744 0.950 . S
H770 C746 0.950 . S
H771 C747 0.949 . S
H772 C749 0.950 . S
H773 C751 0.950 . S
C774 C775 1.349 . S
C774 C776 1.327 . S
C774 H799 0.950 . S
C775 C774 1.349 . S
C775 C791 1.349 . S
C776 C774 1.327 . S
C776 C795 1.429 . S
C776 H800 0.950 . S
C777 C794 1.574 . S
C777 C796 1.368 . S
C777 H801 0.949 . S
H778 C782 0.949 . S
C779 C780 1.349 . S
C779 C781 1.327 . S
C779 H802 0.950 . S
C780 C779 1.349 . S
C780 C792 1.349 . S
C781 C779 1.327 . S
C781 C797 1.429 . S
C781 H803 0.950 . S
C782 H778 0.949 . S
C782 C790 1.574 . S
C782 C798 1.368 . S
H783 C791 0.950 . S
H784 C789 0.950 . S
H785 C790 0.949 . S
H786 C792 0.950 . S
H787 C793 0.950 . S
H788 C794 0.949 . S
C789 H784 0.950 . S
C789 C791 1.327 . S
C789 C795 1.429 . S
C790 C782 1.574 . S
C790 H785 0.949 . S
C790 C796 1.368 . S
C791 C775 1.349 . S
C791 H783 0.950 . S
C791 C789 1.327 . S
C792 C780 1.349 . S
C792 H786 0.950 . S
C792 C793 1.327 . S
C793 H787 0.950 . S
C793 C792 1.327 . S
C793 C797 1.429 . S
C794 C777 1.574 . S
C794 H788 0.949 . S
C794 C798 1.368 . S
C795 C776 1.429 . S
C795 C789 1.429 . S
C795 C796 1.523 . S
C796 C777 1.368 . S
C796 C790 1.368 . S
C796 C795 1.523 . S
C797 C781 1.429 . S
C797 C793 1.429 . S
C797 C798 1.523 . S
C798 C782 1.368 . S
C798 C794 1.368 . S
C798 C797 1.523 . S
H799 C774 0.950 . S
H800 C776 0.950 . S
H801 C777 0.949 . S
H802 C779 0.950 . S
H803 C781 0.950 . S
C804 C805 1.349 . S
C804 C806 1.327 . S
C804 H829 0.950 . S
C805 C804 1.349 . S
C805 C821 1.349 . S
C806 C804 1.327 . S
C806 C825 1.429 . S
C806 H830 0.950 . S
C807 C824 1.574 . S
C807 C826 1.368 . S
C807 H831 0.949 . S
H808 C812 0.949 . S
C809 C810 1.349 . S
C809 C811 1.327 . S
C809 H832 0.950 . S
C810 C809 1.349 . S
C810 C822 1.349 . S
C811 C809 1.327 . S
C811 C827 1.429 . S
C811 H833 0.950 . S
C812 H808 0.949 . S
C812 C820 1.574 . S
C812 C828 1.368 . S
H813 C821 0.950 . S
H814 C819 0.950 . S
H815 C820 0.949 . S
H816 C822 0.950 . S
H817 C823 0.950 . S
H818 C824 0.949 . S
C819 H814 0.950 . S
C819 C821 1.327 . S
C819 C825 1.429 . S
C820 C812 1.574 . S
C820 H815 0.949 . S
C820 C826 1.368 . S
C821 C805 1.349 . S
C821 H813 0.950 . S
C821 C819 1.327 . S
C822 C810 1.349 . S
C822 H816 0.950 . S
C822 C823 1.327 . S
C823 H817 0.950 . S
C823 C822 1.327 . S
C823 C827 1.429 . S
C824 C807 1.574 . S
C824 H818 0.949 . S
C824 C828 1.368 . S
C825 C806 1.429 . S
C825 C819 1.429 . S
C825 C826 1.523 . S
C826 C807 1.368 . S
C826 C820 1.368 . S
C826 C825 1.523 . S
C827 C811 1.429 . S
C827 C823 1.429 . S
C827 C828 1.523 . S
C828 C812 1.368 . S
C828 C824 1.368 . S
C828 C827 1.523 . S
H829 C804 0.950 . S
H830 C806 0.950 . S
H831 C807 0.949 . S
H832 C809 0.950 . S
H833 C811 0.950 . S
C834 C835 1.349 . S
C834 C836 1.327 . S
C834 H859 0.950 . S
C835 C834 1.349 . S
C835 C851 1.349 . S
C836 C834 1.327 . S
C836 C855 1.429 . S
C836 H860 0.950 . S
C837 C854 1.574 . S
C837 C856 1.368 . S
C837 H861 0.949 . S
H838 C842 0.949 . S
C839 C840 1.349 . S
C839 C841 1.327 . S
C839 H862 0.950 . S
C840 C839 1.349 . S
C840 C852 1.349 . S
C841 C839 1.327 . S
C841 C857 1.429 . S
C841 H863 0.950 . S
C842 H838 0.949 . S
C842 C850 1.574 . S
C842 C858 1.368 . S
H843 C851 0.950 . S
H844 C849 0.950 . S
H845 C850 0.949 . S
H846 C852 0.950 . S
H847 C853 0.950 . S
H848 C854 0.949 . S
C849 H844 0.950 . S
C849 C851 1.327 . S
C849 C855 1.429 . S
C850 C842 1.574 . S
C850 H845 0.949 . S
C850 C856 1.368 . S
C851 C835 1.349 . S
C851 H843 0.950 . S
C851 C849 1.327 . S
C852 C840 1.349 . S
C852 H846 0.950 . S
C852 C853 1.327 . S
C853 H847 0.950 . S
C853 C852 1.327 . S
C853 C857 1.429 . S
C854 C837 1.574 . S
C854 H848 0.949 . S
C854 C858 1.368 . S
C855 C836 1.429 . S
C855 C849 1.429 . S
C855 C856 1.523 . S
C856 C837 1.368 . S
C856 C850 1.368 . S
C856 C855 1.523 . S
C857 C841 1.429 . S
C857 C853 1.429 . S
C857 C858 1.523 . S
C858 C842 1.368 . S
C858 C854 1.368 . S
C858 C857 1.523 . S
H859 C834 0.950 . S
H860 C836 0.950 . S
H861 C837 0.949 . S
H862 C839 0.950 . S
H863 C841 0.950 . S
C864 C865 1.349 . S
C864 C866 1.327 . S
C864 H889 0.950 . S
C865 C864 1.349 . S
C865 C881 1.349 . S
C866 C864 1.327 . S
C866 C885 1.429 . S
C866 H890 0.950 . S
C867 C884 1.574 . S
C867 C886 1.368 . S
C867 H891 0.949 . S
H868 C872 0.949 . S
C869 C870 1.349 . S
C869 C871 1.327 . S
C869 H892 0.950 . S
C870 C869 1.349 . S
C870 C882 1.349 . S
C871 C869 1.327 . S
C871 C887 1.429 . S
C871 H893 0.950 . S
C872 H868 0.949 . S
C872 C880 1.574 . S
C872 C888 1.368 . S
H873 C881 0.950 . S
H874 C879 0.950 . S
H875 C880 0.949 . S
H876 C882 0.950 . S
H877 C883 0.950 . S
H878 C884 0.949 . S
C879 H874 0.950 . S
C879 C881 1.327 . S
C879 C885 1.429 . S
C880 C872 1.574 . S
C880 H875 0.949 . S
C880 C886 1.368 . S
C881 C865 1.349 . S
C881 H873 0.950 . S
C881 C879 1.327 . S
C882 C870 1.349 . S
C882 H876 0.950 . S
C882 C883 1.327 . S
C883 H877 0.950 . S
C883 C882 1.327 . S
C883 C887 1.429 . S
C884 C867 1.574 . S
C884 H878 0.949 . S
C884 C888 1.368 . S
C885 C866 1.429 . S
C885 C879 1.429 . S
C885 C886 1.523 . S
C886 C867 1.368 . S
C886 C880 1.368 . S
C886 C885 1.523 . S
C887 C871 1.429 . S
C887 C883 1.429 . S
C887 C888 1.523 . S
C888 C872 1.368 . S
C888 C884 1.368 . S
C888 C887 1.523 . S
H889 C864 0.950 . S
H890 C866 0.950 . S
H891 C867 0.949 . S
H892 C869 0.950 . S
H893 C871 0.950 . S
C894 C895 1.349 . S
C894 C896 1.327 . S
C894 H919 0.950 . S
C895 C894 1.349 . S
C895 C911 1.349 . S
C896 C894 1.327 . S
C896 C915 1.429 . S
C896 H920 0.950 . S
C897 C914 1.574 . S
C897 C916 1.368 . S
C897 H921 0.949 . S
H898 C902 0.949 . S
C899 C900 1.349 . S
C899 C901 1.327 . S
C899 H922 0.950 . S
C900 C899 1.349 . S
C900 C912 1.349 . S
C901 C899 1.327 . S
C901 C917 1.429 . S
C901 H923 0.950 . S
C902 H898 0.949 . S
C902 C910 1.574 . S
C902 C918 1.368 . S
H903 C911 0.950 . S
H904 C909 0.950 . S
H905 C910 0.949 . S
H906 C912 0.950 . S
H907 C913 0.950 . S
H908 C914 0.949 . S
C909 H904 0.950 . S
C909 C911 1.327 . S
C909 C915 1.429 . S
C910 C902 1.574 . S
C910 H905 0.949 . S
C910 C916 1.368 . S
C911 C895 1.349 . S
C911 H903 0.950 . S
C911 C909 1.327 . S
C912 C900 1.349 . S
C912 H906 0.950 . S
C912 C913 1.327 . S
C913 H907 0.950 . S
C913 C912 1.327 . S
C913 C917 1.429 . S
C914 C897 1.574 . S
C914 H908 0.949 . S
C914 C918 1.368 . S
C915 C896 1.429 . S
C915 C909 1.429 . S
C915 C916 1.523 . S
C916 C897 1.368 . S
C916 C910 1.368 . S
C916 C915 1.523 . S
C917 C901 1.429 . S
C917 C913 1.429 . S
C917 C918 1.523 . S
C918 C902 1.368 . S
C918 C914 1.368 . S
C918 C917 1.523 . S
H919 C894 0.950 . S
H920 C896 0.950 . S
H921 C897 0.949 . S
H922 C899 0.950 . S
H923 C901 0.950 . S
C924 C925 1.349 . S
C924 C926 1.327 . S
C924 H949 0.950 . S
C925 C924 1.349 . S
C925 C941 1.349 . S
C926 C924 1.327 . S
C926 C945 1.429 . S
C926 H950 0.950 . S
C927 C944 1.574 . S
C927 C946 1.368 . S
C927 H951 0.949 . S
H928 C932 0.949 . S
C929 C930 1.349 . S
C929 C931 1.327 . S
C929 H952 0.950 . S
C930 C929 1.349 . S
C930 C942 1.349 . S
C931 C929 1.327 . S
C931 C947 1.429 . S
C931 H953 0.950 . S
C932 H928 0.949 . S
C932 C940 1.574 . S
C932 C948 1.368 . S
H933 C941 0.950 . S
H934 C939 0.950 . S
H935 C940 0.949 . S
H936 C942 0.950 . S
H937 C943 0.950 . S
H938 C944 0.949 . S
C939 H934 0.950 . S
C939 C941 1.327 . S
C939 C945 1.429 . S
C940 C932 1.574 . S
C940 H935 0.949 . S
C940 C946 1.368 . S
C941 C925 1.349 . S
C941 H933 0.950 . S
C941 C939 1.327 . S
C942 C930 1.349 . S
C942 H936 0.950 . S
C942 C943 1.327 . S
C943 H937 0.950 . S
C943 C942 1.327 . S
C943 C947 1.429 . S
C944 C927 1.574 . S
C944 H938 0.949 . S
C944 C948 1.368 . S
C945 C926 1.429 . S
C945 C939 1.429 . S
C945 C946 1.523 . S
C946 C927 1.368 . S
C946 C940 1.368 . S
C946 C945 1.523 . S
C947 C931 1.429 . S
C947 C943 1.429 . S
C947 C948 1.523 . S
C948 C932 1.368 . S
C948 C944 1.368 . S
C948 C947 1.523 . S
H949 C924 0.950 . S
H950 C926 0.950 . S
H951 C927 0.949 . S
H952 C929 0.950 . S
H953 C931 0.950 . S
C954 C955 1.349 . S
C954 C956 1.327 . S
C954 H979 0.950 . S
C955 C954 1.349 . S
C955 C971 1.349 . S
C956 C954 1.327 . S
C956 C975 1.429 . S
C956 H980 0.950 . S
C957 C974 1.574 . S
C957 C976 1.368 . S
C957 H981 0.949 . S
H958 C962 0.949 . S
C959 C960 1.349 . S
C959 C961 1.327 . S
C959 H982 0.950 . S
C960 C959 1.349 . S
C960 C972 1.349 . S
C961 C959 1.327 . S
C961 C977 1.429 . S
C961 H983 0.950 . S
C962 H958 0.949 . S
C962 C970 1.574 . S
C962 C978 1.368 . S
H963 C971 0.950 . S
H964 C969 0.950 . S
H965 C970 0.949 . S
H966 C972 0.950 . S
H967 C973 0.950 . S
H968 C974 0.949 . S
C969 H964 0.950 . S
C969 C971 1.327 . S
C969 C975 1.429 . S
C970 C962 1.574 . S
C970 H965 0.949 . S
C970 C976 1.368 . S
C971 C955 1.349 . S
C971 H963 0.950 . S
C971 C969 1.327 . S
C972 C960 1.349 . S
C972 H966 0.950 . S
C972 C973 1.327 . S
C973 H967 0.950 . S
C973 C972 1.327 . S
C973 C977 1.429 . S
C974 C957 1.574 . S
C974 H968 0.949 . S
C974 C978 1.368 . S
C975 C956 1.429 . S
C975 C969 1.429 . S
C975 C976 1.523 . S
C976 C957 1.368 . S
C976 C970 1.368 . S
C976 C975 1.523 . S
C977 C961 1.429 . S
C977 C973 1.429 . S
C977 C978 1.523 . S
C978 C962 1.368 . S
C978 C974 1.368 . S
C978 C977 1.523 . S
H979 C954 0.950 . S
H980 C956 0.950 . S
H981 C957 0.949 . S
H982 C959 0.950 . S
H983 C961 0.950 . S
C984 C985 1.349 . S
C984 C986 1.327 . S
C984 H1009 0.950 . S
C985 C984 1.349 . S
C985 C1001 1.349 . S
C986 C984 1.327 . S
C986 C1005 1.429 . S
C986 H1010 0.950 . S
C987 C1004 1.574 . S
C987 C1006 1.368 . S
C987 H1011 0.949 . S
H988 C992 0.949 . S
C989 C990 1.349 . S
C989 C991 1.327 . S
C989 H1012 0.950 . S
C990 C989 1.349 . S
C990 C1002 1.349 . S
C991 C989 1.327 . S
C991 C1007 1.429 . S
C991 H1013 0.950 . S
C992 H988 0.949 . S
C992 C1000 1.574 . S
C992 C1008 1.368 . S
H993 C1001 0.950 . S
H994 C999 0.950 . S
H995 C1000 0.949 . S
H996 C1002 0.950 . S
H997 C1003 0.950 . S
H998 C1004 0.949 . S
C999 H994 0.950 . S
C999 C1001 1.327 . S
C999 C1005 1.429 . S
C1000 C992 1.574 . S
C1000 H995 0.949 . S
C1000 C1006 1.368 . S
C1001 C985 1.349 . S
C1001 H993 0.950 . S
C1001 C999 1.327 . S
C1002 C990 1.349 . S
C1002 H996 0.950 . S
C1002 C1003 1.327 . S
C1003 H997 0.950 . S
C1003 C1002 1.327 . S
C1003 C1007 1.429 . S
C1004 C987 1.574 . S
C1004 H998 0.949 . S
C1004 C1008 1.368 . S
C1005 C986 1.429 . S
C1005 C999 1.429 . S
C1005 C1006 1.523 . S
C1006 C987 1.368 . S
C1006 C1000 1.368 . S
C1006 C1005 1.523 . S
C1007 C991 1.429 . S
C1007 C1003 1.429 . S
C1007 C1008 1.523 . S
C1008 C992 1.368 . S
C1008 C1004 1.368 . S
C1008 C1007 1.523 . S
H1009 C984 0.950 . S
H1010 C986 0.950 . S
H1011 C987 0.949 . S
H1012 C989 0.950 . S
H1013 C991 0.950 . S
C1014 C1015 1.349 . S
C1014 C1016 1.327 . S
C1014 H1039 0.950 . S
C1015 C1014 1.349 . S
C1015 C1031 1.349 . S
C1016 C1014 1.327 . S
C1016 C1035 1.429 . S
C1016 H1040 0.950 . S
C1017 C1034 1.574 . S
C1017 C1036 1.368 . S
C1017 H1041 0.949 . S
H1018 C1022 0.949 . S
C1019 C1020 1.349 . S
C1019 C1021 1.327 . S
C1019 H1042 0.950 . S
C1020 C1019 1.349 . S
C1020 C1032 1.349 . S
C1021 C1019 1.327 . S
C1021 C1037 1.429 . S
C1021 H1043 0.950 . S
C1022 H1018 0.949 . S
C1022 C1030 1.574 . S
C1022 C1038 1.368 . S
H1023 C1031 0.950 . S
H1024 C1029 0.950 . S
H1025 C1030 0.949 . S
H1026 C1032 0.950 . S
H1027 C1033 0.950 . S
H1028 C1034 0.949 . S
C1029 H1024 0.950 . S
C1029 C1031 1.327 . S
C1029 C1035 1.429 . S
C1030 C1022 1.574 . S
C1030 H1025 0.949 . S
C1030 C1036 1.368 . S
C1031 C1015 1.349 . S
C1031 H1023 0.950 . S
C1031 C1029 1.327 . S
C1032 C1020 1.349 . S
C1032 H1026 0.950 . S
C1032 C1033 1.327 . S
C1033 H1027 0.950 . S
C1033 C1032 1.327 . S
C1033 C1037 1.429 . S
C1034 C1017 1.574 . S
C1034 H1028 0.949 . S
C1034 C1038 1.368 . S
C1035 C1016 1.429 . S
C1035 C1029 1.429 . S
C1035 C1036 1.523 . S
C1036 C1017 1.368 . S
C1036 C1030 1.368 . S
C1036 C1035 1.523 . S
C1037 C1021 1.429 . S
C1037 C1033 1.429 . S
C1037 C1038 1.523 . S
C1038 C1022 1.368 . S
C1038 C1034 1.368 . S
C1038 C1037 1.523 . S
H1039 C1014 0.950 . S
H1040 C1016 0.950 . S
H1041 C1017 0.949 . S
H1042 C1019 0.950 . S
H1043 C1021 0.950 . S
C1044 C1045 1.349 . S
C1044 C1046 1.327 . S
C1044 H1069 0.950 . S
C1045 C1044 1.349 . S
C1045 C1061 1.349 . S
C1046 C1044 1.327 . S
C1046 C1065 1.429 . S
C1046 H1070 0.950 . S
C1047 C1064 1.574 . S
C1047 C1066 1.368 . S
C1047 H1071 0.949 . S
H1048 C1052 0.949 . S
C1049 C1050 1.349 . S
C1049 C1051 1.327 . S
C1049 H1072 0.950 . S
C1050 C1049 1.349 . S
C1050 C1062 1.349 . S
C1051 C1049 1.327 . S
C1051 C1067 1.429 . S
C1051 H1073 0.950 . S
C1052 H1048 0.949 . S
C1052 C1060 1.574 . S
C1052 C1068 1.368 . S
H1053 C1061 0.950 . S
H1054 C1059 0.950 . S
H1055 C1060 0.949 . S
H1056 C1062 0.950 . S
H1057 C1063 0.950 . S
H1058 C1064 0.949 . S
C1059 H1054 0.950 . S
C1059 C1061 1.327 . S
C1059 C1065 1.429 . S
C1060 C1052 1.574 . S
C1060 H1055 0.949 . S
C1060 C1066 1.368 . S
C1061 C1045 1.349 . S
C1061 H1053 0.950 . S
C1061 C1059 1.327 . S
C1062 C1050 1.349 . S
C1062 H1056 0.950 . S
C1062 C1063 1.327 . S
C1063 H1057 0.950 . S
C1063 C1062 1.327 . S
C1063 C1067 1.429 . S
C1064 C1047 1.574 . S
C1064 H1058 0.949 . S
C1064 C1068 1.368 . S
C1065 C1046 1.429 . S
C1065 C1059 1.429 . S
C1065 C1066 1.523 . S
C1066 C1047 1.368 . S
C1066 C1060 1.368 . S
C1066 C1065 1.523 . S
C1067 C1051 1.429 . S
C1067 C1063 1.429 . S
C1067 C1068 1.523 . S
C1068 C1052 1.368 . S
C1068 C1064 1.368 . S
C1068 C1067 1.523 . S
H1069 C1044 0.950 . S
H1070 C1046 0.950 . S
H1071 C1047 0.949 . S
H1072 C1049 0.950 . S
H1073 C1051 0.950 . S
C1074 C1075 1.349 . S
C1074 C1076 1.327 . S
C1074 H1099 0.950 . S
C1075 C1074 1.349 . S
C1075 C1091 1.349 . S
C1076 C1074 1.327 . S
C1076 C1095 1.429 . S
C1076 H1100 0.950 . S
C1077 C1094 1.574 . S
C1077 C1096 1.368 . S
C1077 H1101 0.949 . S
H1078 C1082 0.949 . S
C1079 C1080 1.349 . S
C1079 C1081 1.327 . S
C1079 H1102 0.950 . S
C1080 C1079 1.349 . S
C1080 C1092 1.349 . S
C1081 C1079 1.327 . S
C1081 C1097 1.429 . S
C1081 H1103 0.950 . S
C1082 H1078 0.949 . S
C1082 C1090 1.574 . S
C1082 C1098 1.368 . S
H1083 C1091 0.950 . S
H1084 C1089 0.950 . S
H1085 C1090 0.949 . S
H1086 C1092 0.950 . S
H1087 C1093 0.950 . S
H1088 C1094 0.949 . S
C1089 H1084 0.950 . S
C1089 C1091 1.327 . S
C1089 C1095 1.429 . S
C1090 C1082 1.574 . S
C1090 H1085 0.949 . S
C1090 C1096 1.368 . S
C1091 C1075 1.349 . S
C1091 H1083 0.950 . S
C1091 C1089 1.327 . S
C1092 C1080 1.349 . S
C1092 H1086 0.950 . S
C1092 C1093 1.327 . S
C1093 H1087 0.950 . S
C1093 C1092 1.327 . S
C1093 C1097 1.429 . S
C1094 C1077 1.574 . S
C1094 H1088 0.949 . S
C1094 C1098 1.368 . S
C1095 C1076 1.429 . S
C1095 C1089 1.429 . S
C1095 C1096 1.523 . S
C1096 C1077 1.368 . S
C1096 C1090 1.368 . S
C1096 C1095 1.523 . S
C1097 C1081 1.429 . S
C1097 C1093 1.429 . S
C1097 C1098 1.523 . S
C1098 C1082 1.368 . S
C1098 C1094 1.368 . S
C1098 C1097 1.523 . S
H1099 C1074 0.950 . S
H1100 C1076 0.950 . S
H1101 C1077 0.949 . S
H1102 C1079 0.950 . S
H1103 C1081 0.950 . S
C1104 C1105 1.349 . S
C1104 C1106 1.327 . S
C1104 H1129 0.950 . S
C1105 C1104 1.349 . S
C1105 C1121 1.349 . S
C1106 C1104 1.327 . S
C1106 C1125 1.429 . S
C1106 H1130 0.950 . S
C1107 C1124 1.574 . S
C1107 C1126 1.368 . S
C1107 H1131 0.949 . S
H1108 C1112 0.949 . S
C1109 C1110 1.349 . S
C1109 C1111 1.327 . S
C1109 H1132 0.950 . S
C1110 C1109 1.349 . S
C1110 C1122 1.349 . S
C1111 C1109 1.327 . S
C1111 C1127 1.429 . S
C1111 H1133 0.950 . S
C1112 H1108 0.949 . S
C1112 C1120 1.574 . S
C1112 C1128 1.368 . S
H1113 C1121 0.950 . S
H1114 C1119 0.950 . S
H1115 C1120 0.949 . S
H1116 C1122 0.950 . S
H1117 C1123 0.950 . S
H1118 C1124 0.949 . S
C1119 H1114 0.950 . S
C1119 C1121 1.327 . S
C1119 C1125 1.429 . S
C1120 C1112 1.574 . S
C1120 H1115 0.949 . S
C1120 C1126 1.368 . S
C1121 C1105 1.349 . S
C1121 H1113 0.950 . S
C1121 C1119 1.327 . S
C1122 C1110 1.349 . S
C1122 H1116 0.950 . S
C1122 C1123 1.327 . S
C1123 H1117 0.950 . S
C1123 C1122 1.327 . S
C1123 C1127 1.429 . S
C1124 C1107 1.574 . S
C1124 H1118 0.949 . S
C1124 C1128 1.368 . S
C1125 C1106 1.429 . S
C1125 C1119 1.429 . S
C1125 C1126 1.523 . S
C1126 C1107 1.368 . S
C1126 C1120 1.368 . S
C1126 C1125 1.523 . S
C1127 C1111 1.429 . S
C1127 C1123 1.429 . S
C1127 C1128 1.523 . S
C1128 C1112 1.368 . S
C1128 C1124 1.368 . S
C1128 C1127 1.523 . S
H1129 C1104 0.950 . S
H1130 C1106 0.950 . S
H1131 C1107 0.949 . S
H1132 C1109 0.950 . S
H1133 C1111 0.950 . S
C1134 C1135 1.349 . S
C1134 C1136 1.327 . S
C1134 H1159 0.950 . S
C1135 C1134 1.349 . S
C1135 C1151 1.349 . S
C1136 C1134 1.327 . S
C1136 C1155 1.429 . S
C1136 H1160 0.950 . S
C1137 C1154 1.574 . S
C1137 C1156 1.368 . S
C1137 H1161 0.949 . S
H1138 C1142 0.949 . S
C1139 C1140 1.349 . S
C1139 C1141 1.327 . S
C1139 H1162 0.950 . S
C1140 C1139 1.349 . S
C1140 C1152 1.349 . S
C1141 C1139 1.327 . S
C1141 C1157 1.429 . S
C1141 H1163 0.950 . S
C1142 H1138 0.949 . S
C1142 C1150 1.574 . S
C1142 C1158 1.368 . S
H1143 C1151 0.950 . S
H1144 C1149 0.950 . S
H1145 C1150 0.949 . S
H1146 C1152 0.950 . S
H1147 C1153 0.950 . S
H1148 C1154 0.949 . S
C1149 H1144 0.950 . S
C1149 C1151 1.327 . S
C1149 C1155 1.429 . S
C1150 C1142 1.574 . S
C1150 H1145 0.949 . S
C1150 C1156 1.368 . S
C1151 C1135 1.349 . S
C1151 H1143 0.950 . S
C1151 C1149 1.327 . S
C1152 C1140 1.349 . S
C1152 H1146 0.950 . S
C1152 C1153 1.327 . S
C1153 H1147 0.950 . S
C1153 C1152 1.327 . S
C1153 C1157 1.429 . S
C1154 C1137 1.574 . S
C1154 H1148 0.949 . S
C1154 C1158 1.368 . S
C1155 C1136 1.429 . S
C1155 C1149 1.429 . S
C1155 C1156 1.523 . S
C1156 C1137 1.368 . S
C1156 C1150 1.368 . S
C1156 C1155 1.523 . S
C1157 C1141 1.429 . S
C1157 C1153 1.429 . S
C1157 C1158 1.523 . S
C1158 C1142 1.368 . S
C1158 C1154 1.368 . S
C1158 C1157 1.523 . S
H1159 C1134 0.950 . S
H1160 C1136 0.950 . S
H1161 C1137 0.949 . S
H1162 C1139 0.950 . S
H1163 C1141 0.950 . S
C1164 C1165 1.349 . S
C1164 C1166 1.327 . S
C1164 H1189 0.950 . S
C1165 C1164 1.349 . S
C1165 C1181 1.349 . S
C1166 C1164 1.327 . S
C1166 C1185 1.429 . S
C1166 H1190 0.950 . S
C1167 C1184 1.574 . S
C1167 C1186 1.368 . S
C1167 H1191 0.949 . S
H1168 C1172 0.949 . S
C1169 C1170 1.349 . S
C1169 C1171 1.327 . S
C1169 H1192 0.950 . S
C1170 C1169 1.349 . S
C1170 C1182 1.349 . S
C1171 C1169 1.327 . S
C1171 C1187 1.429 . S
C1171 H1193 0.950 . S
C1172 H1168 0.949 . S
C1172 C1180 1.574 . S
C1172 C1188 1.368 . S
H1173 C1181 0.950 . S
H1174 C1179 0.950 . S
H1175 C1180 0.949 . S
H1176 C1182 0.950 . S
H1177 C1183 0.950 . S
H1178 C1184 0.949 . S
C1179 H1174 0.950 . S
C1179 C1181 1.327 . S
C1179 C1185 1.429 . S
C1180 C1172 1.574 . S
C1180 H1175 0.949 . S
C1180 C1186 1.368 . S
C1181 C1165 1.349 . S
C1181 H1173 0.950 . S
C1181 C1179 1.327 . S
C1182 C1170 1.349 . S
C1182 H1176 0.950 . S
C1182 C1183 1.327 . S
C1183 H1177 0.950 . S
C1183 C1182 1.327 . S
C1183 C1187 1.429 . S
C1184 C1167 1.574 . S
C1184 H1178 0.949 . S
C1184 C1188 1.368 . S
C1185 C1166 1.429 . S
C1185 C1179 1.429 . S
C1185 C1186 1.523 . S
C1186 C1167 1.368 . S
C1186 C1180 1.368 . S
C1186 C1185 1.523 . S
C1187 C1171 1.429 . S
C1187 C1183 1.429 . S
C1187 C1188 1.523 . S
C1188 C1172 1.368 . S
C1188 C1184 1.368 . S
C1188 C1187 1.523 . S
H1189 C1164 0.950 . S
H1190 C1166 0.950 . S
H1191 C1167 0.949 . S
H1192 C1169 0.950 . S
H1193 C1171 0.950 . S
C1194 C1195 1.349 . S
C1194 C1196 1.327 . S
C1194 H1219 0.950 . S
C1195 C1194 1.349 . S
C1195 C1211 1.349 . S
C1196 C1194 1.327 . S
C1196 C1215 1.429 . S
C1196 H1220 0.950 . S
C1197 C1214 1.574 . S
C1197 C1216 1.368 . S
C1197 H1221 0.949 . S
H1198 C1202 0.949 . S
C1199 C1200 1.349 . S
C1199 C1201 1.327 . S
C1199 H1222 0.950 . S
C1200 C1199 1.349 . S
C1200 C1212 1.349 . S
C1201 C1199 1.327 . S
C1201 C1217 1.429 . S
C1201 H1223 0.950 . S
C1202 H1198 0.949 . S
C1202 C1210 1.574 . S
C1202 C1218 1.368 . S
H1203 C1211 0.950 . S
H1204 C1209 0.950 . S
H1205 C1210 0.949 . S
H1206 C1212 0.950 . S
H1207 C1213 0.950 . S
H1208 C1214 0.949 . S
C1209 H1204 0.950 . S
C1209 C1211 1.327 . S
C1209 C1215 1.429 . S
C1210 C1202 1.574 . S
C1210 H1205 0.949 . S
C1210 C1216 1.368 . S
C1211 C1195 1.349 . S
C1211 H1203 0.950 . S
C1211 C1209 1.327 . S
C1212 C1200 1.349 . S
C1212 H1206 0.950 . S
C1212 C1213 1.327 . S
C1213 H1207 0.950 . S
C1213 C1212 1.327 . S
C1213 C1217 1.429 . S
C1214 C1197 1.574 . S
C1214 H1208 0.949 . S
C1214 C1218 1.368 . S
C1215 C1196 1.429 . S
C1215 C1209 1.429 . S
C1215 C1216 1.523 . S
C1216 C1197 1.368 . S
C1216 C1210 1.368 . S
C1216 C1215 1.523 . S
C1217 C1201 1.429 . S
C1217 C1213 1.429 . S
C1217 C1218 1.523 . S
C1218 C1202 1.368 . S
C1218 C1214 1.368 . S
C1218 C1217 1.523 . S
H1219 C1194 0.950 . S
H1220 C1196 0.950 . S
H1221 C1197 0.949 . S
H1222 C1199 0.950 . S
H1223 C1201 0.950 . S
C1224 C1225 1.349 . S
C1224 C1226 1.327 . S
C1224 H1249 0.950 . S
C1225 C1224 1.349 . S
C1225 C1241 1.349 . S
C1226 C1224 1.327 . S
C1226 C1245 1.429 . S
C1226 H1250 0.950 . S
C1227 C1244 1.574 . S
C1227 C1246 1.368 . S
C1227 H1251 0.949 . S
H1228 C1232 0.949 . S
C1229 C1230 1.349 . S
C1229 C1231 1.327 . S
C1229 H1252 0.950 . S
C1230 C1229 1.349 . S
C1230 C1242 1.349 . S
C1231 C1229 1.327 . S
C1231 C1247 1.429 . S
C1231 H1253 0.950 . S
C1232 H1228 0.949 . S
C1232 C1240 1.574 . S
C1232 C1248 1.368 . S
H1233 C1241 0.950 . S
H1234 C1239 0.950 . S
H1235 C1240 0.949 . S
H1236 C1242 0.950 . S
H1237 C1243 0.950 . S
H1238 C1244 0.949 . S
C1239 H1234 0.950 . S
C1239 C1241 1.327 . S
C1239 C1245 1.429 . S
C1240 C1232 1.574 . S
C1240 H1235 0.949 . S
C1240 C1246 1.368 . S
C1241 C1225 1.349 . S
C1241 H1233 0.950 . S
C1241 C1239 1.327 . S
C1242 C1230 1.349 . S
C1242 H1236 0.950 . S
C1242 C1243 1.327 . S
C1243 H1237 0.950 . S
C1243 C1242 1.327 . S
C1243 C1247 1.429 . S
C1244 C1227 1.574 . S
C1244 H1238 0.949 . S
C1244 C1248 1.368 . S
C1245 C1226 1.429 . S
C1245 C1239 1.429 . S
C1245 C1246 1.523 . S
C1246 C1227 1.368 . S
C1246 C1240 1.368 . S
C1246 C1245 1.523 . S
C1247 C1231 1.429 . S
C1247 C1243 1.429 . S
C1247 C1248 1.523 . S
C1248 C1232 1.368 . S
C1248 C1244 1.368 . S
C1248 C1247 1.523 . S
H1249 C1224 0.950 . S
H1250 C1226 0.950 . S
H1251 C1227 0.949 . S
H1252 C1229 0.950 . S
H1253 C1231 0.950 . S
C1254 C1255 1.349 . S
C1254 C1256 1.327 . S
C1254 H1279 0.950 . S
C1255 C1254 1.349 . S
C1255 C1271 1.349 . S
C1256 C1254 1.327 . S
C1256 C1275 1.429 . S
C1256 H1280 0.950 . S
C1257 C1274 1.574 . S
C1257 C1276 1.368 . S
C1257 H1281 0.949 . S
H1258 C1262 0.949 . S
C1259 C1260 1.349 . S
C1259 C1261 1.327 . S
C1259 H1282 0.950 . S
C1260 C1259 1.349 . S
C1260 C1272 1.349 . S
C1261 C1259 1.327 . S
C1261 C1277 1.429 . S
C1261 H1283 0.950 . S
C1262 H1258 0.949 . S
C1262 C1270 1.574 . S
C1262 C1278 1.368 . S
H1263 C1271 0.950 . S
H1264 C1269 0.950 . S
H1265 C1270 0.949 . S
H1266 C1272 0.950 . S
H1267 C1273 0.950 . S
H1268 C1274 0.949 . S
C1269 H1264 0.950 . S
C1269 C1271 1.327 . S
C1269 C1275 1.429 . S
C1270 C1262 1.574 . S
C1270 H1265 0.949 . S
C1270 C1276 1.368 . S
C1271 C1255 1.349 . S
C1271 H1263 0.950 . S
C1271 C1269 1.327 . S
C1272 C1260 1.349 . S
C1272 H1266 0.950 . S
C1272 C1273 1.327 . S
C1273 H1267 0.950 . S
C1273 C1272 1.327 . S
C1273 C1277 1.429 . S
C1274 C1257 1.574 . S
C1274 H1268 0.949 . S
C1274 C1278 1.368 . S
C1275 C1256 1.429 . S
C1275 C1269 1.429 . S
C1275 C1276 1.523 . S
C1276 C1257 1.368 . S
C1276 C1270 1.368 . S
C1276 C1275 1.523 . S
C1277 C1261 1.429 . S
C1277 C1273 1.429 . S
C1277 C1278 1.523 . S
C1278 C1262 1.368 . S
C1278 C1274 1.368 . S
C1278 C1277 1.523 . S
H1279 C1254 0.950 . S
H1280 C1256 0.950 . S
H1281 C1257 0.949 . S
H1282 C1259 0.950 . S
H1283 C1261 0.950 . S
C1284 C1285 1.349 . S
C1284 C1286 1.327 . S
C1284 H1309 0.950 . S
C1285 C1284 1.349 . S
C1285 C1301 1.349 . S
C1286 C1284 1.327 . S
C1286 C1305 1.429 . S
C1286 H1310 0.950 . S
C1287 C1304 1.574 . S
C1287 C1306 1.368 . S
C1287 H1311 0.949 . S
H1288 C1292 0.949 . S
C1289 C1290 1.349 . S
C1289 C1291 1.327 . S
C1289 H1312 0.950 . S
C1290 C1289 1.349 . S
C1290 C1302 1.349 . S
C1291 C1289 1.327 . S
C1291 C1307 1.429 . S
C1291 H1313 0.950 . S
C1292 H1288 0.949 . S
C1292 C1300 1.574 . S
C1292 C1308 1.368 . S
H1293 C1301 0.950 . S
H1294 C1299 0.950 . S
H1295 C1300 0.949 . S
H1296 C1302 0.950 . S
H1297 C1303 0.950 . S
H1298 C1304 0.949 . S
C1299 H1294 0.950 . S
C1299 C1301 1.327 . S
C1299 C1305 1.429 . S
C1300 C1292 1.574 . S
C1300 H1295 0.949 . S
C1300 C1306 1.368 . S
C1301 C1285 1.349 . S
C1301 H1293 0.950 . S
C1301 C1299 1.327 . S
C1302 C1290 1.349 . S
C1302 H1296 0.950 . S
C1302 C1303 1.327 . S
C1303 H1297 0.950 . S
C1303 C1302 1.327 . S
C1303 C1307 1.429 . S
C1304 C1287 1.574 . S
C1304 H1298 0.949 . S
C1304 C1308 1.368 . S
C1305 C1286 1.429 . S
C1305 C1299 1.429 . S
C1305 C1306 1.523 . S
C1306 C1287 1.368 . S
C1306 C1300 1.368 . S
C1306 C1305 1.523 . S
C1307 C1291 1.429 . S
C1307 C1303 1.429 . S
C1307 C1308 1.523 . S
C1308 C1292 1.368 . S
C1308 C1304 1.368 . S
C1308 C1307 1.523 . S
H1309 C1284 0.950 . S
H1310 C1286 0.950 . S
H1311 C1287 0.949 . S
H1312 C1289 0.950 . S
H1313 C1291 0.950 . S
C1314 C1315 1.349 . S
C1314 C1316 1.327 . S
C1314 H1339 0.950 . S
C1315 C1314 1.349 . S
C1315 C1331 1.349 . S
C1316 C1314 1.327 . S
C1316 C1335 1.429 . S
C1316 H1340 0.950 . S
C1317 C1334 1.574 . S
C1317 C1336 1.368 . S
C1317 H1341 0.949 . S
H1318 C1322 0.949 . S
C1319 C1320 1.349 . S
C1319 C1321 1.327 . S
C1319 H1342 0.950 . S
C1320 C1319 1.349 . S
C1320 C1332 1.349 . S
C1321 C1319 1.327 . S
C1321 C1337 1.429 . S
C1321 H1343 0.950 . S
C1322 H1318 0.949 . S
C1322 C1330 1.574 . S
C1322 C1338 1.368 . S
H1323 C1331 0.950 . S
H1324 C1329 0.950 . S
H1325 C1330 0.949 . S
H1326 C1332 0.950 . S
H1327 C1333 0.950 . S
H1328 C1334 0.949 . S
C1329 H1324 0.950 . S
C1329 C1331 1.327 . S
C1329 C1335 1.429 . S
C1330 C1322 1.574 . S
C1330 H1325 0.949 . S
C1330 C1336 1.368 . S
C1331 C1315 1.349 . S
C1331 H1323 0.950 . S
C1331 C1329 1.327 . S
C1332 C1320 1.349 . S
C1332 H1326 0.950 . S
C1332 C1333 1.327 . S
C1333 H1327 0.950 . S
C1333 C1332 1.327 . S
C1333 C1337 1.429 . S
C1334 C1317 1.574 . S
C1334 H1328 0.949 . S
C1334 C1338 1.368 . S
C1335 C1316 1.429 . S
C1335 C1329 1.429 . S
C1335 C1336 1.523 . S
C1336 C1317 1.368 . S
C1336 C1330 1.368 . S
C1336 C1335 1.523 . S
C1337 C1321 1.429 . S
C1337 C1333 1.429 . S
C1337 C1338 1.523 . S
C1338 C1322 1.368 . S
C1338 C1334 1.368 . S
C1338 C1337 1.523 . S
H1339 C1314 0.950 . S
H1340 C1316 0.950 . S
H1341 C1317 0.949 . S
H1342 C1319 0.950 . S
H1343 C1321 0.950 . S
C1344 C1345 1.349 . S
C1344 C1346 1.327 . S
C1344 H1369 0.950 . S
C1345 C1344 1.349 . S
C1345 C1361 1.349 . S
C1346 C1344 1.327 . S
C1346 C1365 1.429 . S
C1346 H1370 0.950 . S
C1347 C1364 1.574 . S
C1347 C1366 1.368 1_455 S
C1347 H1371 0.949 . S
H1348 C1352 0.949 . S
C1349 C1350 1.349 . S
C1349 C1351 1.327 . S
C1349 H1372 0.950 . S
C1350 C1349 1.349 . S
C1350 C1362 1.349 . S
C1351 C1349 1.327 . S
C1351 C1367 1.429 . S
C1351 H1373 0.950 . S
C1352 H1348 0.949 . S
C1352 C1360 1.574 . S
C1352 C1368 1.368 1_655 S
H1353 C1361 0.950 . S
H1354 C1359 0.950 1_455 S
H1355 C1360 0.949 . S
H1356 C1362 0.950 . S
H1357 C1363 0.950 1_655 S
H1358 C1364 0.949 . S
C1359 H1354 0.950 1_655 S
C1359 C1361 1.327 . S
C1359 C1365 1.429 . S
C1360 C1352 1.574 . S
C1360 H1355 0.949 . S
C1360 C1366 1.368 . S
C1361 C1345 1.349 . S
C1361 H1353 0.950 . S
C1361 C1359 1.327 . S
C1362 C1350 1.349 . S
C1362 H1356 0.950 . S
C1362 C1363 1.327 . S
C1363 H1357 0.950 1_455 S
C1363 C1362 1.327 . S
C1363 C1367 1.429 . S
C1364 C1347 1.574 . S
C1364 H1358 0.949 . S
C1364 C1368 1.368 . S
C1365 C1346 1.429 . S
C1365 C1359 1.429 . S
C1365 C1366 1.523 . S
C1366 C1347 1.368 1_655 S
C1366 C1360 1.368 . S
C1366 C1365 1.523 . S
C1367 C1351 1.429 . S
C1367 C1363 1.429 . S
C1367 C1368 1.523 . S
C1368 C1352 1.368 1_455 S
C1368 C1364 1.368 . S
C1368 C1367 1.523 . S
H1369 C1344 0.950 . S
H1370 C1346 0.950 . S
H1371 C1347 0.949 . S
H1372 C1349 0.950 . S
H1373 C1351 0.950 . S
C1374 C1375 1.349 . S
C1374 C1376 1.327 . S
C1374 H1399 0.950 . S
C1375 C1374 1.349 . S
C1375 C1391 1.349 . S
C1376 C1374 1.327 . S
C1376 C1395 1.429 . S
C1376 H1400 0.950 . S
C1377 C1394 1.574 . S
C1377 C1396 1.368 1_545 S
C1377 H1401 0.949 . S
H1378 C1382 0.949 . S
C1379 C1380 1.349 . S
C1379 C1381 1.327 . S
C1379 H1402 0.950 . S
C1380 C1379 1.349 . S
C1380 C1392 1.344 . S
C1381 C1379 1.327 . S
C1381 C1397 1.429 . S
C1381 H1403 0.950 . S
C1382 H1378 0.949 . S
C1382 C1390 1.574 . S
C1382 C1398 1.360 1_565 S
H1383 C1391 0.950 . S
H1384 C1389 0.950 1_545 S
H1385 C1390 0.949 . S
H1386 C1392 0.953 1_565 S
H1387 C1393 0.950 . S
H1388 C1394 0.949 . S
C1389 H1384 0.950 1_565 S
C1389 C1391 1.327 . S
C1389 C1395 1.429 . S
C1390 C1382 1.574 . S
C1390 H1385 0.949 . S
C1390 C1396 1.368 . S
C1391 C1375 1.349 . S
C1391 H1383 0.950 . S
C1391 C1389 1.327 . S
C1392 C1380 1.344 . S
C1392 H1386 0.953 1_545 S
C1392 C1393 1.329 1_545 S
C1393 H1387 0.950 . S
C1393 C1392 1.329 1_565 S
C1393 C1397 1.429 1_565 S
C1394 C1377 1.574 . S
C1394 H1388 0.949 . S
C1394 C1398 1.375 . S
C1395 C1376 1.429 . S
C1395 C1389 1.429 . S
C1395 C1396 1.523 . S
C1396 C1377 1.368 1_565 S
C1396 C1390 1.368 . S
C1396 C1395 1.523 . S
C1397 C1381 1.429 . S
C1397 C1393 1.429 1_545 S
C1397 C1398 1.526 . S
C1398 C1382 1.360 1_545 S
C1398 C1394 1.375 . S
C1398 C1397 1.526 . S
H1399 C1374 0.950 . S
H1400 C1376 0.950 . S
H1401 C1377 0.949 . S
H1402 C1379 0.950 . S
H1403 C1381 0.950 . S
C1404 C1405 1.349 . S
C1404 C1406 1.327 . S
C1404 H1429 0.950 . S
C1405 C1404 1.349 . S
C1405 C1421 1.349 . S
C1406 C1404 1.327 . S
C1406 C1425 1.429 . S
C1406 H1430 0.950 . S
C1407 C1424 1.574 1_655 S
C1407 C1426 1.368 . S
C1407 H1431 0.949 . S
H1408 C1412 0.949 . S
C1409 C1410 1.349 . S
C1409 C1411 1.327 . S
C1409 H1432 0.950 . S
C1410 C1409 1.349 . S
C1410 C1422 1.349 . S
C1411 C1409 1.327 . S
C1411 C1427 1.429 . S
C1411 H1433 0.950 . S
C1412 H1408 0.949 . S
C1412 C1420 1.574 1_455 S
C1412 C1428 1.368 . S
H1413 C1421 0.950 . S
H1414 C1419 0.950 . S
H1415 C1420 0.949 . S
H1416 C1422 0.950 . S
H1417 C1423 0.950 . S
H1418 C1424 0.949 . S
C1419 H1414 0.950 . S
C1419 C1421 1.327 . S
C1419 C1425 1.429 . S
C1420 C1412 1.574 1_655 S
C1420 H1415 0.949 . S
C1420 C1426 1.368 . S
C1421 C1405 1.349 . S
C1421 H1413 0.950 . S
C1421 C1419 1.327 . S
C1422 C1410 1.349 . S
C1422 H1416 0.950 . S
C1422 C1423 1.327 . S
C1423 H1417 0.950 . S
C1423 C1422 1.327 . S
C1423 C1427 1.429 . S
C1424 C1407 1.574 1_455 S
C1424 H1418 0.949 . S
C1424 C1428 1.368 . S
C1425 C1406 1.429 . S
C1425 C1419 1.429 . S
C1425 C1426 1.523 . S
C1426 C1407 1.368 . S
C1426 C1420 1.368 . S
C1426 C1425 1.523 . S
C1427 C1411 1.429 . S
C1427 C1423 1.429 . S
C1427 C1428 1.523 . S
C1428 C1412 1.368 . S
C1428 C1424 1.368 . S
C1428 C1427 1.523 . S
H1429 C1404 0.950 . S
H1430 C1406 0.950 . S
H1431 C1407 0.949 . S
H1432 C1409 0.950 . S
H1433 C1411 0.950 . S
C1434 C1435 1.349 . S
C1434 C1436 1.327 . S
C1434 H1459 0.950 . S
C1435 C1434 1.349 . S
C1435 C1451 1.349 . S
C1436 C1434 1.327 . S
C1436 C1455 1.429 . S
C1436 H1460 0.950 . S
C1437 C1454 1.574 . S
C1437 C1456 1.368 1_565 S
C1437 H1461 0.949 . S
H1438 C1442 0.949 . S
C1439 C1440 1.349 . S
C1439 C1441 1.327 . S
C1439 H1462 0.950 . S
C1440 C1439 1.349 . S
C1440 C1452 1.349 1_565 S
C1441 C1439 1.327 . S
C1441 C1457 1.429 . S
C1441 H1463 0.950 . S
C1442 H1438 0.949 . S
C1442 C1450 1.574 . S
C1442 C1458 1.358 1_545 S
H1443 C1451 0.950 1_565 S
H1444 C1449 0.950 1_565 S
H1445 C1450 0.949 . S
H1446 C1452 0.950 . S
H1447 C1453 0.950 . S
H1448 C1454 0.949 . S
C1449 H1444 0.950 1_545 S
C1449 C1451 1.327 . S
C1449 C1455 1.429 . S
C1450 C1442 1.574 . S
C1450 H1445 0.949 . S
C1450 C1456 1.368 . S
C1451 C1435 1.349 . S
C1451 H1443 0.950 1_545 S
C1451 C1449 1.327 . S
C1452 C1440 1.349 1_545 S
C1452 H1446 0.950 . S
C1452 C1453 1.327 . S
C1453 H1447 0.950 . S
C1453 C1452 1.327 . S
C1453 C1457 1.429 1_545 S
C1454 C1437 1.574 . S
C1454 H1448 0.949 . S
C1454 C1458 1.376 . S
C1455 C1436 1.429 . S
C1455 C1449 1.429 . S
C1455 C1456 1.523 . S
C1456 C1437 1.368 1_545 S
C1456 C1450 1.368 . S
C1456 C1455 1.523 . S
C1457 C1441 1.429 . S
C1457 C1453 1.429 1_565 S
C1457 C1458 1.526 . S
C1458 C1442 1.358 1_565 S
C1458 C1454 1.376 . S
C1458 C1457 1.526 . S
H1459 C1434 0.950 . S
H1460 C1436 0.950 . S
H1461 C1437 0.949 . S
H1462 C1439 0.950 . S
H1463 C1441 0.950 . S
C1464 C1465 1.349 . S
C1464 C1466 1.327 . S
C1464 H1489 0.950 . S
C1465 C1464 1.349 . S
C1465 C1481 1.349 . S
C1466 C1464 1.327 . S
C1466 C1485 1.429 . S
C1466 H1490 0.950 . S
C1467 C1484 1.574 1_455 S
C1467 C1486 1.368 . S
C1467 H1491 0.949 . S
H1468 C1472 0.949 . S
C1469 C1470 1.349 . S
C1469 C1471 1.327 . S
C1469 H1492 0.950 . S
C1470 C1469 1.349 . S
C1470 C1482 1.349 . S
C1471 C1469 1.327 . S
C1471 C1487 1.429 . S
C1471 H1493 0.950 . S
C1472 H1468 0.949 . S
C1472 C1480 1.574 1_655 S
C1472 C1488 1.368 . S
H1473 C1481 0.950 . S
H1474 C1479 0.950 . S
H1475 C1480 0.949 . S
H1476 C1482 0.950 . S
H1477 C1483 0.950 . S
H1478 C1484 0.949 . S
C1479 H1474 0.950 . S
C1479 C1481 1.327 . S
C1479 C1485 1.429 . S
C1480 C1472 1.574 1_455 S
C1480 H1475 0.949 . S
C1480 C1486 1.368 . S
C1481 C1465 1.349 . S
C1481 H1473 0.950 . S
C1481 C1479 1.327 . S
C1482 C1470 1.349 . S
C1482 H1476 0.950 . S
C1482 C1483 1.327 . S
C1483 H1477 0.950 . S
C1483 C1482 1.327 . S
C1483 C1487 1.429 . S
C1484 C1467 1.574 1_655 S
C1484 H1478 0.949 . S
C1484 C1488 1.368 . S
C1485 C1466 1.429 . S
C1485 C1479 1.429 . S
C1485 C1486 1.523 . S
C1486 C1467 1.368 . S
C1486 C1480 1.368 . S
C1486 C1485 1.523 . S
C1487 C1471 1.429 . S
C1487 C1483 1.429 . S
C1487 C1488 1.523 . S
C1488 C1472 1.368 . S
C1488 C1484 1.368 . S
C1488 C1487 1.523 . S
H1489 C1464 0.950 . S
H1490 C1466 0.950 . S
H1491 C1467 0.949 . S
H1492 C1469 0.950 . S
H1493 C1471 0.950 . S
C1494 C1495 1.349 . S
C1494 C1496 1.327 . S
C1494 H1519 0.950 . S
C1495 C1494 1.349 . S
C1495 C1511 1.349 . S
C1496 C1494 1.327 . S
C1496 C1515 1.429 . S
C1496 H1520 0.950 . S
C1497 C1514 1.574 . S
C1497 C1516 1.368 1_545 S
C1497 H1521 0.949 . S
H1498 C1502 0.949 . S
C1499 C1500 1.349 . S
C1499 C1501 1.327 . S
C1499 H1522 0.950 . S
C1500 C1499 1.349 . S
C1500 C1512 1.349 1_545 S
C1501 C1499 1.327 . S
C1501 C1517 1.429 . S
C1501 H1523 0.950 . S
C1502 H1498 0.949 . S
C1502 C1510 1.574 . S
C1502 C1518 1.358 1_565 S
H1503 C1511 0.950 1_545 S
H1504 C1509 0.950 1_545 S
H1505 C1510 0.949 . S
H1506 C1512 0.950 . S
H1507 C1513 0.950 . S
H1508 C1514 0.949 . S
C1509 H1504 0.950 1_565 S
C1509 C1511 1.327 . S
C1509 C1515 1.429 . S
C1510 C1502 1.574 . S
C1510 H1505 0.949 . S
C1510 C1516 1.368 . S
C1511 C1495 1.349 . S
C1511 H1503 0.950 1_565 S
C1511 C1509 1.327 . S
C1512 C1500 1.349 1_565 S
C1512 H1506 0.950 . S
C1512 C1513 1.327 . S
C1513 H1507 0.950 . S
C1513 C1512 1.327 . S
C1513 C1517 1.429 1_565 S
C1514 C1497 1.574 . S
C1514 H1508 0.949 . S
C1514 C1518 1.376 . S
C1515 C1496 1.429 . S
C1515 C1509 1.429 . S
C1515 C1516 1.523 . S
C1516 C1497 1.368 1_565 S
C1516 C1510 1.368 . S
C1516 C1515 1.523 . S
C1517 C1501 1.429 . S
C1517 C1513 1.429 1_545 S
C1517 C1518 1.525 . S
C1518 C1502 1.358 1_545 S
C1518 C1514 1.376 . S
C1518 C1517 1.525 . S
H1519 C1494 0.950 . S
H1520 C1496 0.950 . S
H1521 C1497 0.949 . S
H1522 C1499 0.950 . S
H1523 C1501 0.950 . S
C1524 C1525 1.349 . S
C1524 C1526 1.327 . S
C1524 H1549 0.950 . S
C1525 C1524 1.349 . S
C1525 C1541 1.349 . S
C1526 C1524 1.327 . S
C1526 C1545 1.429 . S
C1526 H1550 0.950 1_455 S
C1527 C1544 1.574 . S
C1527 C1546 1.368 . S
C1527 H1551 0.949 . S
H1528 C1532 0.949 . S
C1529 C1530 1.349 . S
C1529 C1531 1.327 . S
C1529 H1552 0.950 . S
C1530 C1529 1.349 . S
C1530 C1542 1.349 . S
C1531 C1529 1.327 . S
C1531 C1547 1.429 . S
C1531 H1553 0.950 1_655 S
C1532 H1528 0.949 . S
C1532 C1540 1.574 . S
C1532 C1548 1.368 . S
H1533 C1541 0.950 . S
H1534 C1539 0.950 . S
H1535 C1540 0.949 . S
H1536 C1542 0.950 . S
H1537 C1543 0.950 . S
H1538 C1544 0.949 . S
C1539 H1534 0.950 . S
C1539 C1541 1.327 . S
C1539 C1545 1.429 . S
C1540 C1532 1.574 . S
C1540 H1535 0.949 . S
C1540 C1546 1.368 1_655 S
C1541 C1525 1.349 . S
C1541 H1533 0.950 . S
C1541 C1539 1.327 . S
C1542 C1530 1.349 . S
C1542 H1536 0.950 . S
C1542 C1543 1.327 . S
C1543 H1537 0.950 . S
C1543 C1542 1.327 . S
C1543 C1547 1.429 . S
C1544 C1527 1.574 . S
C1544 H1538 0.949 . S
C1544 C1548 1.368 1_455 S
C1545 C1526 1.429 . S
C1545 C1539 1.429 . S
C1545 C1546 1.523 . S
C1546 C1527 1.368 . S
C1546 C1540 1.368 1_455 S
C1546 C1545 1.523 . S
C1547 C1531 1.429 . S
C1547 C1543 1.429 . S
C1547 C1548 1.523 . S
C1548 C1532 1.368 . S
C1548 C1544 1.368 1_655 S
C1548 C1547 1.523 . S
H1549 C1524 0.950 . S
H1550 C1526 0.950 1_655 S
H1551 C1527 0.949 . S
H1552 C1529 0.950 . S
H1553 C1531 0.950 1_455 S
C1554 C1555 1.349 . S
C1554 C1556 1.327 . S
C1554 H1579 0.950 . S
C1555 C1554 1.349 . S
C1555 C1571 1.349 . S
C1556 C1554 1.327 . S
C1556 C1575 1.429 . S
C1556 H1580 0.950 . S
C1557 C1574 1.574 . S
C1557 C1576 1.368 1_565 S
C1557 H1581 0.949 . S
H1558 C1562 0.949 . S
C1559 C1560 1.349 . S
C1559 C1561 1.327 . S
C1559 H1582 0.950 . S
C1560 C1559 1.349 . S
C1560 C1572 1.349 . S
C1561 C1559 1.327 . S
C1561 C1577 1.429 . S
C1561 H1583 0.950 . S
C1562 H1558 0.949 . S
C1562 C1570 1.574 . S
C1562 C1578 1.363 1_545 S
H1563 C1571 0.950 . S
H1564 C1569 0.950 . S
H1565 C1570 0.949 . S
H1566 C1572 0.950 . S
H1567 C1573 0.945 1_545 S
H1568 C1574 0.949 . S
C1569 H1564 0.950 . S
C1569 C1571 1.327 . S
C1569 C1575 1.429 . S
C1570 C1562 1.574 . S
C1570 H1565 0.949 . S
C1570 C1576 1.368 . S
C1571 C1555 1.349 . S
C1571 H1563 0.950 . S
C1571 C1569 1.327 . S
C1572 C1560 1.349 . S
C1572 H1566 0.950 . S
C1572 C1573 1.330 . S
C1573 H1567 0.945 1_565 S
C1573 C1572 1.330 . S
C1573 C1577 1.431 . S
C1574 C1557 1.574 . S
C1574 H1568 0.949 . S
C1574 C1578 1.372 . S
C1575 C1556 1.429 . S
C1575 C1569 1.429 . S
C1575 C1576 1.523 . S
C1576 C1557 1.368 1_545 S
C1576 C1570 1.368 . S
C1576 C1575 1.523 . S
C1577 C1561 1.429 . S
C1577 C1573 1.431 . S
C1577 C1578 1.526 . S
C1578 C1562 1.363 1_565 S
C1578 C1574 1.372 . S
C1578 C1577 1.526 . S
H1579 C1554 0.950 . S
H1580 C1556 0.950 . S
H1581 C1557 0.949 . S
H1582 C1559 0.950 . S
H1583 C1561 0.950 . S
C1584 C1585 1.349 . S
C1584 C1586 1.327 . S
C1584 H1609 0.950 . S
C1585 C1584 1.349 . S
C1585 C1601 1.349 . S
C1586 C1584 1.327 . S
C1586 C1605 1.429 . S
C1586 H1610 0.950 . S
C1587 C1604 1.574 . S
C1587 C1606 1.368 1_554 S
C1587 H1611 0.949 . S
H1588 C1592 0.949 . S
C1589 C1590 1.349 . S
C1589 C1591 1.327 . S
C1589 H1612 0.950 . S
C1590 C1589 1.349 . S
C1590 C1602 1.349 1_554 S
C1591 C1589 1.327 . S
C1591 C1607 1.429 . S
C1591 H1613 0.950 . S
C1592 H1588 0.949 . S
C1592 C1600 1.574 . S
C1592 C1608 1.358 1_556 S
H1593 C1601 0.950 1_554 S
H1594 C1599 0.950 1_554 S
H1595 C1600 0.949 . S
H1596 C1602 0.950 . S
H1597 C1603 0.950 . S
H1598 C1604 0.949 . S
C1599 H1594 0.950 1_556 S
C1599 C1601 1.327 . S
C1599 C1605 1.429 . S
C1600 C1592 1.574 . S
C1600 H1595 0.949 . S
C1600 C1606 1.368 . S
C1601 C1585 1.349 . S
C1601 H1593 0.950 1_556 S
C1601 C1599 1.327 . S
C1602 C1590 1.349 1_556 S
C1602 H1596 0.950 . S
C1602 C1603 1.327 . S
C1603 H1597 0.950 . S
C1603 C1602 1.327 . S
C1603 C1607 1.429 1_556 S
C1604 C1587 1.574 . S
C1604 H1598 0.949 . S
C1604 C1608 1.376 . S
C1605 C1586 1.429 . S
C1605 C1599 1.429 . S
C1605 C1606 1.523 . S
C1606 C1587 1.368 1_556 S
C1606 C1600 1.368 . S
C1606 C1605 1.523 . S
C1607 C1591 1.429 . S
C1607 C1603 1.429 1_554 S
C1607 C1608 1.526 . S
C1608 C1592 1.358 1_554 S
C1608 C1604 1.376 . S
C1608 C1607 1.526 . S
H1609 C1584 0.950 . S
H1610 C1586 0.950 . S
H1611 C1587 0.949 . S
H1612 C1589 0.950 . S
H1613 C1591 0.950 . S
C1614 C1615 1.349 . S
C1614 C1616 1.327 . S
C1614 H1639 0.950 . S
C1615 C1614 1.349 . S
C1615 C1631 1.349 . S
C1616 C1614 1.327 . S
C1616 C1635 1.429 . S
C1616 H1640 0.950 1_554 S
C1617 C1634 1.574 . S
C1617 C1636 1.368 . S
C1617 H1641 0.949 . S
H1618 C1622 0.949 . S
C1619 C1620 1.349 . S
C1619 C1621 1.327 1_556 S
C1619 H1642 0.950 1_556 S
C1620 C1619 1.349 . S
C1620 C1632 1.349 . S
C1621 C1619 1.327 1_554 S
C1621 C1637 1.429 1_554 S
C1621 H1643 0.950 . S
C1622 H1618 0.949 . S
C1622 C1630 1.574 . S
C1622 C1638 1.375 . S
H1623 C1631 0.950 . S
H1624 C1629 0.950 . S
H1625 C1630 0.949 . S
H1626 C1632 0.950 . S
H1627 C1633 0.950 . S
H1628 C1634 0.949 . S
C1629 H1624 0.950 . S
C1629 C1631 1.327 . S
C1629 C1635 1.429 . S
C1630 C1622 1.574 . S
C1630 H1625 0.949 . S
C1630 C1636 1.368 1_556 S
C1631 C1615 1.349 . S
C1631 H1623 0.950 . S
C1631 C1629 1.327 . S
C1632 C1620 1.349 . S
C1632 H1626 0.950 . S
C1632 C1633 1.327 . S
C1633 H1627 0.950 . S
C1633 C1632 1.327 . S
C1633 C1637 1.429 . S
C1634 C1617 1.574 . S
C1634 H1628 0.949 . S
C1634 C1638 1.360 1_554 S
C1635 C1616 1.429 . S
C1635 C1629 1.429 . S
C1635 C1636 1.523 . S
C1636 C1617 1.368 . S
C1636 C1630 1.368 1_554 S
C1636 C1635 1.523 . S
C1637 C1621 1.429 1_556 S
C1637 C1633 1.429 . S
C1637 C1638 1.525 . S
C1638 C1622 1.375 . S
C1638 C1634 1.360 1_556 S
C1638 C1637 1.525 . S
H1639 C1614 0.950 . S
H1640 C1616 0.950 1_556 S
H1641 C1617 0.949 . S
H1642 C1619 0.950 1_554 S
H1643 C1621 0.950 . S
C1644 C1645 1.349 . S
C1644 C1646 1.327 . S
C1644 H1669 0.950 1_554 S
C1645 C1644 1.349 . S
C1645 C1661 1.349 . S
C1646 C1644 1.327 . S
C1646 C1665 1.429 . S
C1646 H1670 0.950 1_554 S
C1647 C1664 1.574 . S
C1647 C1666 1.368 . S
C1647 H1671 0.949 . S
H1648 C1652 0.949 . S
C1649 C1650 1.349 1_554 S
C1649 C1651 1.327 . S
C1649 H1672 0.950 . S
C1650 C1649 1.349 1_556 S
C1650 C1662 1.349 . S
C1651 C1649 1.327 . S
C1651 C1667 1.429 1_554 S
C1651 H1673 0.950 . S
C1652 H1648 0.949 . S
C1652 C1660 1.574 . S
C1652 C1668 1.376 . S
H1653 C1661 0.950 . S
H1654 C1659 0.950 . S
H1655 C1660 0.949 . S
H1656 C1662 0.950 . S
H1657 C1663 0.950 . S
H1658 C1664 0.949 . S
C1659 H1654 0.950 . S
C1659 C1661 1.327 . S
C1659 C1665 1.429 . S
C1660 C1652 1.574 . S
C1660 H1655 0.949 . S
C1660 C1666 1.368 1_556 S
C1661 C1645 1.349 . S
C1661 H1653 0.950 . S
C1661 C1659 1.327 . S
C1662 C1650 1.349 . S
C1662 H1656 0.950 . S
C1662 C1663 1.327 . S
C1663 H1657 0.950 . S
C1663 C1662 1.327 . S
C1663 C1667 1.429 . S
C1664 C1647 1.574 . S
C1664 H1658 0.949 . S
C1664 C1668 1.358 1_554 S
C1665 C1646 1.429 . S
C1665 C1659 1.429 . S
C1665 C1666 1.523 . S
C1666 C1647 1.368 . S
C1666 C1660 1.368 1_554 S
C1666 C1665 1.523 . S
C1667 C1651 1.429 1_556 S
C1667 C1663 1.429 . S
C1667 C1668 1.525 . S
C1668 C1652 1.376 . S
C1668 C1664 1.358 1_556 S
C1668 C1667 1.525 . S
H1669 C1644 0.950 1_556 S
H1670 C1646 0.950 1_556 S
H1671 C1647 0.949 . S
H1672 C1649 0.950 . S
H1673 C1651 0.950 . S
C1674 C1675 1.349 . S
C1674 C1676 1.327 . S
C1674 H1699 0.950 . S
C1675 C1674 1.349 . S
C1675 C1691 1.349 . S
C1676 C1674 1.327 . S
C1676 C1695 1.429 . S
C1676 H1700 0.950 . S
C1677 C1694 1.574 . S
C1677 C1696 1.368 1_554 S
C1677 H1701 0.949 . S
H1678 C1682 0.949 . S
C1679 C1680 1.349 . S
C1679 C1681 1.327 . S
C1679 H1702 0.950 . S
C1680 C1679 1.349 . S
C1680 C1692 1.349 1_554 S
C1681 C1679 1.327 . S
C1681 C1697 1.429 . S
C1681 H1703 0.950 . S
C1682 H1678 0.949 . S
C1682 C1690 1.574 . S
C1682 C1698 1.358 1_556 S
H1683 C1691 0.950 1_554 S
H1684 C1689 0.950 1_554 S
H1685 C1690 0.949 . S
H1686 C1692 0.950 . S
H1687 C1693 0.950 . S
H1688 C1694 0.949 . S
C1689 H1684 0.950 1_556 S
C1689 C1691 1.327 . S
C1689 C1695 1.429 . S
C1690 C1682 1.574 . S
C1690 H1685 0.949 . S
C1690 C1696 1.368 . S
C1691 C1675 1.349 . S
C1691 H1683 0.950 1_556 S
C1691 C1689 1.327 . S
C1692 C1680 1.349 1_556 S
C1692 H1686 0.950 . S
C1692 C1693 1.327 . S
C1693 H1687 0.950 . S
C1693 C1692 1.327 . S
C1693 C1697 1.429 1_556 S
C1694 C1677 1.574 . S
C1694 H1688 0.949 . S
C1694 C1698 1.376 . S
C1695 C1676 1.429 . S
C1695 C1689 1.429 . S
C1695 C1696 1.523 . S
C1696 C1677 1.368 1_556 S
C1696 C1690 1.368 . S
C1696 C1695 1.523 . S
C1697 C1681 1.429 . S
C1697 C1693 1.429 1_554 S
C1697 C1698 1.526 . S
C1698 C1682 1.358 1_554 S
C1698 C1694 1.376 . S
C1698 C1697 1.526 . S
H1699 C1674 0.950 . S
H1700 C1676 0.950 . S
H1701 C1677 0.949 . S
H1702 C1679 0.950 . S
H1703 C1681 0.950 . S
C1704 C1705 1.349 . S
C1704 C1706 1.327 . S
C1704 H1729 0.950 . S
C1705 C1704 1.349 . S
C1705 C1721 1.349 . S
C1706 C1704 1.327 . S
C1706 C1725 1.429 . S
C1706 H1730 0.950 . S
C1707 C1724 1.574 . S
C1707 C1726 1.368 . S
C1707 H1731 0.949 . S
H1708 C1712 0.949 . S
C1709 C1710 1.349 . S
C1709 C1711 1.327 . S
C1709 H1732 0.950 . S
C1710 C1709 1.349 . S
C1710 C1722 1.349 . S
C1711 C1709 1.327 . S
C1711 C1727 1.429 . S
C1711 H1733 0.950 . S
C1712 H1708 0.949 . S
C1712 C1720 1.574 . S
C1712 C1728 1.368 . S
H1713 C1721 0.950 . S
H1714 C1719 0.950 . S
H1715 C1720 0.949 . S
H1716 C1722 0.950 . S
H1717 C1723 0.950 . S
H1718 C1724 0.949 . S
C1719 H1714 0.950 . S
C1719 C1721 1.327 . S
C1719 C1725 1.429 . S
C1720 C1712 1.574 . S
C1720 H1715 0.949 . S
C1720 C1726 1.368 . S
C1721 C1705 1.349 . S
C1721 H1713 0.950 . S
C1721 C1719 1.327 . S
C1722 C1710 1.349 . S
C1722 H1716 0.950 . S
C1722 C1723 1.327 . S
C1723 H1717 0.950 . S
C1723 C1722 1.327 . S
C1723 C1727 1.429 . S
C1724 C1707 1.574 . S
C1724 H1718 0.949 . S
C1724 C1728 1.368 . S
C1725 C1706 1.429 . S
C1725 C1719 1.429 . S
C1725 C1726 1.523 . S
C1726 C1707 1.368 . S
C1726 C1720 1.368 . S
C1726 C1725 1.523 . S
C1727 C1711 1.429 . S
C1727 C1723 1.429 . S
C1727 C1728 1.523 . S
C1728 C1712 1.368 . S
C1728 C1724 1.368 . S
C1728 C1727 1.523 . S
H1729 C1704 0.950 . S
H1730 C1706 0.950 . S
H1731 C1707 0.949 . S
H1732 C1709 0.950 . S
H1733 C1711 0.950 . S
C1734 C1735 1.349 . S
C1734 C1736 1.327 . S
C1734 H1759 0.950 . S
C1735 C1734 1.349 . S
C1735 C1751 1.349 . S
C1736 C1734 1.327 . S
C1736 C1755 1.429 . S
C1736 H1760 0.950 . S
C1737 C1754 1.574 . S
C1737 C1756 1.368 . S
C1737 H1761 0.949 . S
H1738 C1742 0.949 . S
C1739 C1740 1.349 . S
C1739 C1741 1.327 . S
C1739 H1762 0.950 . S
C1740 C1739 1.349 . S
C1740 C1752 1.349 . S
C1741 C1739 1.327 . S
C1741 C1757 1.429 . S
C1741 H1763 0.950 . S
C1742 H1738 0.949 . S
C1742 C1750 1.574 . S
C1742 C1758 1.368 . S
H1743 C1751 0.950 . S
H1744 C1749 0.950 . S
H1745 C1750 0.949 . S
H1746 C1752 0.950 . S
H1747 C1753 0.950 . S
H1748 C1754 0.949 . S
C1749 H1744 0.950 . S
C1749 C1751 1.327 . S
C1749 C1755 1.429 . S
C1750 C1742 1.574 . S
C1750 H1745 0.949 . S
C1750 C1756 1.368 . S
C1751 C1735 1.349 . S
C1751 H1743 0.950 . S
C1751 C1749 1.327 . S
C1752 C1740 1.349 . S
C1752 H1746 0.950 . S
C1752 C1753 1.327 . S
C1753 H1747 0.950 . S
C1753 C1752 1.327 . S
C1753 C1757 1.429 . S
C1754 C1737 1.574 . S
C1754 H1748 0.949 . S
C1754 C1758 1.368 . S
C1755 C1736 1.429 . S
C1755 C1749 1.429 . S
C1755 C1756 1.523 . S
C1756 C1737 1.368 . S
C1756 C1750 1.368 . S
C1756 C1755 1.523 . S
C1757 C1741 1.429 . S
C1757 C1753 1.429 . S
C1757 C1758 1.523 . S
C1758 C1742 1.368 . S
C1758 C1754 1.368 . S
C1758 C1757 1.523 . S
H1759 C1734 0.950 . S
H1760 C1736 0.950 . S
H1761 C1737 0.949 . S
H1762 C1739 0.950 . S
H1763 C1741 0.950 . S
C1764 C1765 1.349 . S
C1764 C1766 1.327 . S
C1764 H1789 0.950 . S
C1765 C1764 1.349 . S
C1765 C1781 1.349 . S
C1766 C1764 1.327 . S
C1766 C1785 1.429 . S
C1766 H1790 0.950 . S
C1767 C1784 1.574 . S
C1767 C1786 1.368 . S
C1767 H1791 0.949 . S
H1768 C1772 0.949 . S
C1769 C1770 1.349 . S
C1769 C1771 1.327 . S
C1769 H1792 0.950 . S
C1770 C1769 1.349 . S
C1770 C1782 1.349 . S
C1771 C1769 1.327 . S
C1771 C1787 1.429 . S
C1771 H1793 0.950 . S
C1772 H1768 0.949 . S
C1772 C1780 1.574 . S
C1772 C1788 1.368 . S
H1773 C1781 0.950 . S
H1774 C1779 0.950 . S
H1775 C1780 0.949 . S
H1776 C1782 0.950 . S
H1777 C1783 0.950 . S
H1778 C1784 0.949 . S
C1779 H1774 0.950 . S
C1779 C1781 1.327 . S
C1779 C1785 1.429 . S
C1780 C1772 1.574 . S
C1780 H1775 0.949 . S
C1780 C1786 1.368 . S
C1781 C1765 1.349 . S
C1781 H1773 0.950 . S
C1781 C1779 1.327 . S
C1782 C1770 1.349 . S
C1782 H1776 0.950 . S
C1782 C1783 1.327 . S
C1783 H1777 0.950 . S
C1783 C1782 1.327 . S
C1783 C1787 1.429 . S
C1784 C1767 1.574 . S
C1784 H1778 0.949 . S
C1784 C1788 1.368 . S
C1785 C1766 1.429 . S
C1785 C1779 1.429 . S
C1785 C1786 1.523 . S
C1786 C1767 1.368 . S
C1786 C1780 1.368 . S
C1786 C1785 1.523 . S
C1787 C1771 1.429 . S
C1787 C1783 1.429 . S
C1787 C1788 1.523 . S
C1788 C1772 1.368 . S
C1788 C1784 1.368 . S
C1788 C1787 1.523 . S
H1789 C1764 0.950 . S
H1790 C1766 0.950 . S
H1791 C1767 0.949 . S
H1792 C1769 0.950 . S
H1793 C1771 0.950 . S
C1794 C1795 1.349 . S
C1794 C1796 1.327 . S
C1794 H1819 0.950 . S
C1795 C1794 1.349 . S
C1795 C1811 1.349 . S
C1796 C1794 1.327 . S
C1796 C1815 1.429 . S
C1796 H1820 0.950 . S
C1797 C1814 1.574 . S
C1797 C1816 1.368 . S
C1797 H1821 0.949 . S
H1798 C1802 0.949 . S
C1799 C1800 1.349 . S
C1799 C1801 1.327 . S
C1799 H1822 0.950 . S
C1800 C1799 1.349 . S
C1800 C1812 1.349 . S
C1801 C1799 1.327 . S
C1801 C1817 1.429 . S
C1801 H1823 0.950 . S
C1802 H1798 0.949 . S
C1802 C1810 1.574 . S
C1802 C1818 1.368 . S
H1803 C1811 0.950 . S
H1804 C1809 0.950 . S
H1805 C1810 0.949 . S
H1806 C1812 0.950 . S
H1807 C1813 0.950 . S
H1808 C1814 0.949 . S
C1809 H1804 0.950 . S
C1809 C1811 1.327 . S
C1809 C1815 1.429 . S
C1810 C1802 1.574 . S
C1810 H1805 0.949 . S
C1810 C1816 1.368 . S
C1811 C1795 1.349 . S
C1811 H1803 0.950 . S
C1811 C1809 1.327 . S
C1812 C1800 1.349 . S
C1812 H1806 0.950 . S
C1812 C1813 1.327 . S
C1813 H1807 0.950 . S
C1813 C1812 1.327 . S
C1813 C1817 1.429 . S
C1814 C1797 1.574 . S
C1814 H1808 0.949 . S
C1814 C1818 1.368 . S
C1815 C1796 1.429 . S
C1815 C1809 1.429 . S
C1815 C1816 1.523 . S
C1816 C1797 1.368 . S
C1816 C1810 1.368 . S
C1816 C1815 1.523 . S
C1817 C1801 1.429 . S
C1817 C1813 1.429 . S
C1817 C1818 1.523 . S
C1818 C1802 1.368 . S
C1818 C1814 1.368 . S
C1818 C1817 1.523 . S
H1819 C1794 0.950 . S
H1820 C1796 0.950 . S
H1821 C1797 0.949 . S
H1822 C1799 0.950 . S
H1823 C1801 0.950 . S
C1824 C1825 1.349 . S
C1824 C1826 1.327 . S
C1824 H1849 0.950 . S
C1825 C1824 1.349 . S
C1825 C1841 1.349 . S
C1826 C1824 1.327 . S
C1826 C1845 1.429 . S
C1826 H1850 0.950 . S
C1827 C1844 1.574 . S
C1827 C1846 1.368 . S
C1827 H1851 0.949 . S
H1828 C1832 0.949 . S
C1829 C1830 1.349 . S
C1829 C1831 1.327 . S
C1829 H1852 0.950 . S
C1830 C1829 1.349 . S
C1830 C1842 1.349 . S
C1831 C1829 1.327 . S
C1831 C1847 1.429 . S
C1831 H1853 0.950 . S
C1832 H1828 0.949 . S
C1832 C1840 1.574 . S
C1832 C1848 1.368 . S
H1833 C1841 0.950 . S
H1834 C1839 0.950 . S
H1835 C1840 0.949 . S
H1836 C1842 0.950 . S
H1837 C1843 0.950 . S
H1838 C1844 0.949 . S
C1839 H1834 0.950 . S
C1839 C1841 1.327 . S
C1839 C1845 1.429 . S
C1840 C1832 1.574 . S
C1840 H1835 0.949 . S
C1840 C1846 1.368 . S
C1841 C1825 1.349 . S
C1841 H1833 0.950 . S
C1841 C1839 1.327 . S
C1842 C1830 1.349 . S
C1842 H1836 0.950 . S
C1842 C1843 1.327 . S
C1843 H1837 0.950 . S
C1843 C1842 1.327 . S
C1843 C1847 1.429 . S
C1844 C1827 1.574 . S
C1844 H1838 0.949 . S
C1844 C1848 1.368 . S
C1845 C1826 1.429 . S
C1845 C1839 1.429 . S
C1845 C1846 1.523 . S
C1846 C1827 1.368 . S
C1846 C1840 1.368 . S
C1846 C1845 1.523 . S
C1847 C1831 1.429 . S
C1847 C1843 1.429 . S
C1847 C1848 1.523 . S
C1848 C1832 1.368 . S
C1848 C1844 1.368 . S
C1848 C1847 1.523 . S
H1849 C1824 0.950 . S
H1850 C1826 0.950 . S
H1851 C1827 0.949 . S
H1852 C1829 0.950 . S
H1853 C1831 0.950 . S
C1854 C1855 1.349 . S
C1854 C1856 1.327 . S
C1854 H1879 0.950 . S
C1855 C1854 1.349 . S
C1855 C1871 1.349 . S
C1856 C1854 1.327 . S
C1856 C1875 1.429 . S
C1856 H1880 0.950 . S
C1857 C1874 1.574 . S
C1857 C1876 1.368 . S
C1857 H1881 0.949 . S
H1858 C1862 0.949 . S
C1859 C1860 1.349 . S
C1859 C1861 1.327 . S
C1859 H1882 0.950 . S
C1860 C1859 1.349 . S
C1860 C1872 1.349 . S
C1861 C1859 1.327 . S
C1861 C1877 1.429 . S
C1861 H1883 0.950 . S
C1862 H1858 0.949 . S
C1862 C1870 1.574 . S
C1862 C1878 1.368 . S
H1863 C1871 0.950 . S
H1864 C1869 0.950 . S
H1865 C1870 0.949 . S
H1866 C1872 0.950 . S
H1867 C1873 0.950 . S
H1868 C1874 0.949 . S
C1869 H1864 0.950 . S
C1869 C1871 1.327 . S
C1869 C1875 1.429 . S
C1870 C1862 1.574 . S
C1870 H1865 0.949 . S
C1870 C1876 1.368 . S
C1871 C1855 1.349 . S
C1871 H1863 0.950 . S
C1871 C1869 1.327 . S
C1872 C1860 1.349 . S
C1872 H1866 0.950 . S
C1872 C1873 1.327 . S
C1873 H1867 0.950 . S
C1873 C1872 1.327 . S
C1873 C1877 1.429 . S
C1874 C1857 1.574 . S
C1874 H1868 0.949 . S
C1874 C1878 1.368 . S
C1875 C1856 1.429 . S
C1875 C1869 1.429 . S
C1875 C1876 1.523 . S
C1876 C1857 1.368 . S
C1876 C1870 1.368 . S
C1876 C1875 1.523 . S
C1877 C1861 1.429 . S
C1877 C1873 1.429 . S
C1877 C1878 1.523 . S
C1878 C1862 1.368 . S
C1878 C1874 1.368 . S
C1878 C1877 1.523 . S
H1879 C1854 0.950 . S
H1880 C1856 0.950 . S
H1881 C1857 0.949 . S
H1882 C1859 0.950 . S
H1883 C1861 0.950 . S
C1884 C1885 1.349 . S
C1884 C1886 1.327 . S
C1884 H1909 0.950 . S
C1885 C1884 1.349 . S
C1885 C1901 1.349 . S
C1886 C1884 1.327 . S
C1886 C1905 1.429 . S
C1886 H1910 0.950 . S
C1887 C1904 1.574 . S
C1887 C1906 1.368 . S
C1887 H1911 0.949 . S
H1888 C1892 0.949 . S
C1889 C1890 1.349 . S
C1889 C1891 1.327 . S
C1889 H1912 0.950 . S
C1890 C1889 1.349 . S
C1890 C1902 1.349 . S
C1891 C1889 1.327 . S
C1891 C1907 1.429 . S
C1891 H1913 0.950 . S
C1892 H1888 0.949 . S
C1892 C1900 1.574 . S
C1892 C1908 1.368 . S
H1893 C1901 0.950 . S
H1894 C1899 0.950 . S
H1895 C1900 0.949 . S
H1896 C1902 0.950 . S
H1897 C1903 0.950 . S
H1898 C1904 0.949 . S
C1899 H1894 0.950 . S
C1899 C1901 1.327 . S
C1899 C1905 1.429 . S
C1900 C1892 1.574 . S
C1900 H1895 0.949 . S
C1900 C1906 1.368 . S
C1901 C1885 1.349 . S
C1901 H1893 0.950 . S
C1901 C1899 1.327 . S
C1902 C1890 1.349 . S
C1902 H1896 0.950 . S
C1902 C1903 1.327 . S
C1903 H1897 0.950 . S
C1903 C1902 1.327 . S
C1903 C1907 1.429 . S
C1904 C1887 1.574 . S
C1904 H1898 0.949 . S
C1904 C1908 1.368 . S
C1905 C1886 1.429 . S
C1905 C1899 1.429 . S
C1905 C1906 1.523 . S
C1906 C1887 1.368 . S
C1906 C1900 1.368 . S
C1906 C1905 1.523 . S
C1907 C1891 1.429 . S
C1907 C1903 1.429 . S
C1907 C1908 1.523 . S
C1908 C1892 1.368 . S
C1908 C1904 1.368 . S
C1908 C1907 1.523 . S
H1909 C1884 0.950 . S
H1910 C1886 0.950 . S
H1911 C1887 0.949 . S
H1912 C1889 0.950 . S
H1913 C1891 0.950 . S
C1914 C1915 1.349 . S
C1914 C1916 1.327 . S
C1914 H1939 0.950 . S
C1915 C1914 1.349 . S
C1915 C1931 1.349 . S
C1916 C1914 1.327 . S
C1916 C1935 1.429 . S
C1916 H1940 0.950 . S
C1917 C1934 1.574 . S
C1917 C1936 1.368 . S
C1917 H1941 0.949 . S
H1918 C1922 0.949 . S
C1919 C1920 1.349 . S
C1919 C1921 1.327 . S
C1919 H1942 0.950 . S
C1920 C1919 1.349 . S
C1920 C1932 1.349 . S
C1921 C1919 1.327 . S
C1921 C1937 1.429 . S
C1921 H1943 0.950 . S
C1922 H1918 0.949 . S
C1922 C1930 1.574 . S
C1922 C1938 1.368 . S
H1923 C1931 0.950 . S
H1924 C1929 0.950 . S
H1925 C1930 0.949 . S
H1926 C1932 0.950 . S
H1927 C1933 0.950 . S
H1928 C1934 0.949 . S
C1929 H1924 0.950 . S
C1929 C1931 1.327 . S
C1929 C1935 1.429 . S
C1930 C1922 1.574 . S
C1930 H1925 0.949 . S
C1930 C1936 1.368 . S
C1931 C1915 1.349 . S
C1931 H1923 0.950 . S
C1931 C1929 1.327 . S
C1932 C1920 1.349 . S
C1932 H1926 0.950 . S
C1932 C1933 1.327 . S
C1933 H1927 0.950 . S
C1933 C1932 1.327 . S
C1933 C1937 1.429 . S
C1934 C1917 1.574 . S
C1934 H1928 0.949 . S
C1934 C1938 1.368 . S
C1935 C1916 1.429 . S
C1935 C1929 1.429 . S
C1935 C1936 1.523 . S
C1936 C1917 1.368 . S
C1936 C1930 1.368 . S
C1936 C1935 1.523 . S
C1937 C1921 1.429 . S
C1937 C1933 1.429 . S
C1937 C1938 1.523 . S
C1938 C1922 1.368 . S
C1938 C1934 1.368 . S
C1938 C1937 1.523 . S
H1939 C1914 0.950 . S
H1940 C1916 0.950 . S
H1941 C1917 0.949 . S
H1942 C1919 0.950 . S
H1943 C1921 0.950 . S
C1944 C1945 1.349 . S
C1944 C1946 1.327 . S
C1944 H1969 0.950 . S
C1945 C1944 1.349 . S
C1945 C1961 1.349 . S
C1946 C1944 1.327 . S
C1946 C1965 1.429 . S
C1946 H1970 0.950 . S
C1947 C1964 1.574 . S
C1947 C1966 1.368 . S
C1947 H1971 0.949 . S
H1948 C1952 0.949 . S
C1949 C1950 1.349 . S
C1949 C1951 1.327 . S
C1949 H1972 0.950 . S
C1950 C1949 1.349 . S
C1950 C1962 1.349 . S
C1951 C1949 1.327 . S
C1951 C1967 1.429 . S
C1951 H1973 0.950 . S
C1952 H1948 0.949 . S
C1952 C1960 1.574 . S
C1952 C1968 1.368 . S
H1953 C1961 0.950 . S
H1954 C1959 0.950 . S
H1955 C1960 0.949 . S
H1956 C1962 0.950 . S
H1957 C1963 0.950 . S
H1958 C1964 0.949 . S
C1959 H1954 0.950 . S
C1959 C1961 1.327 . S
C1959 C1965 1.429 . S
C1960 C1952 1.574 . S
C1960 H1955 0.949 . S
C1960 C1966 1.368 . S
C1961 C1945 1.349 . S
C1961 H1953 0.950 . S
C1961 C1959 1.327 . S
C1962 C1950 1.349 . S
C1962 H1956 0.950 . S
C1962 C1963 1.327 . S
C1963 H1957 0.950 . S
C1963 C1962 1.327 . S
C1963 C1967 1.429 . S
C1964 C1947 1.574 . S
C1964 H1958 0.949 . S
C1964 C1968 1.368 . S
C1965 C1946 1.429 . S
C1965 C1959 1.429 . S
C1965 C1966 1.523 . S
C1966 C1947 1.368 . S
C1966 C1960 1.368 . S
C1966 C1965 1.523 . S
C1967 C1951 1.429 . S
C1967 C1963 1.429 . S
C1967 C1968 1.523 . S
C1968 C1952 1.368 . S
C1968 C1964 1.368 . S
C1968 C1967 1.523 . S
H1969 C1944 0.950 . S
H1970 C1946 0.950 . S
H1971 C1947 0.949 . S
H1972 C1949 0.950 . S
H1973 C1951 0.950 . S
C1974 C1975 1.349 . S
C1974 C1976 1.327 . S
C1974 H1999 0.950 . S
C1975 C1974 1.349 . S
C1975 C1991 1.349 . S
C1976 C1974 1.327 . S
C1976 C1995 1.429 . S
C1976 H2000 0.950 . S
C1977 C1994 1.574 . S
C1977 C1996 1.368 . S
C1977 H2001 0.949 . S
H1978 C1982 0.949 . S
C1979 C1980 1.349 . S
C1979 C1981 1.327 . S
C1979 H2002 0.950 . S
C1980 C1979 1.349 . S
C1980 C1992 1.349 . S
C1981 C1979 1.327 . S
C1981 C1997 1.429 . S
C1981 H2003 0.950 . S
C1982 H1978 0.949 . S
C1982 C1990 1.574 . S
C1982 C1998 1.368 . S
H1983 C1991 0.950 . S
H1984 C1989 0.950 . S
H1985 C1990 0.949 . S
H1986 C1992 0.950 . S
H1987 C1993 0.950 . S
H1988 C1994 0.949 . S
C1989 H1984 0.950 . S
C1989 C1991 1.327 . S
C1989 C1995 1.429 . S
C1990 C1982 1.574 . S
C1990 H1985 0.949 . S
C1990 C1996 1.368 . S
C1991 C1975 1.349 . S
C1991 H1983 0.950 . S
C1991 C1989 1.327 . S
C1992 C1980 1.349 . S
C1992 H1986 0.950 . S
C1992 C1993 1.327 . S
C1993 H1987 0.950 . S
C1993 C1992 1.327 . S
C1993 C1997 1.429 . S
C1994 C1977 1.574 . S
C1994 H1988 0.949 . S
C1994 C1998 1.368 . S
C1995 C1976 1.429 . S
C1995 C1989 1.429 . S
C1995 C1996 1.523 . S
C1996 C1977 1.368 . S
C1996 C1990 1.368 . S
C1996 C1995 1.523 . S
C1997 C1981 1.429 . S
C1997 C1993 1.429 . S
C1997 C1998 1.523 . S
C1998 C1982 1.368 . S
C1998 C1994 1.368 . S
C1998 C1997 1.523 . S
H1999 C1974 0.950 . S
H2000 C1976 0.950 . S
H2001 C1977 0.949 . S
H2002 C1979 0.950 . S
H2003 C1981 0.950 . S
C2004 C2005 1.349 . S
C2004 C2006 1.327 . S
C2004 H2029 0.950 . S
C2005 C2004 1.349 . S
C2005 C2021 1.349 . S
C2006 C2004 1.327 . S
C2006 C2025 1.429 . S
C2006 H2030 0.950 . S
C2007 C2024 1.574 . S
C2007 C2026 1.368 . S
C2007 H2031 0.949 . S
H2008 C2012 0.949 . S
C2009 C2010 1.349 . S
C2009 C2011 1.327 . S
C2009 H2032 0.950 . S
C2010 C2009 1.349 . S
C2010 C2022 1.349 . S
C2011 C2009 1.327 . S
C2011 C2027 1.429 . S
C2011 H2033 0.950 . S
C2012 H2008 0.949 . S
C2012 C2020 1.574 . S
C2012 C2028 1.368 . S
H2013 C2021 0.950 . S
H2014 C2019 0.950 . S
H2015 C2020 0.949 . S
H2016 C2022 0.950 . S
H2017 C2023 0.950 . S
H2018 C2024 0.949 . S
C2019 H2014 0.950 . S
C2019 C2021 1.327 . S
C2019 C2025 1.429 . S
C2020 C2012 1.574 . S
C2020 H2015 0.949 . S
C2020 C2026 1.368 . S
C2021 C2005 1.349 . S
C2021 H2013 0.950 . S
C2021 C2019 1.327 . S
C2022 C2010 1.349 . S
C2022 H2016 0.950 . S
C2022 C2023 1.327 . S
C2023 H2017 0.950 . S
C2023 C2022 1.327 . S
C2023 C2027 1.429 . S
C2024 C2007 1.574 . S
C2024 H2018 0.949 . S
C2024 C2028 1.368 . S
C2025 C2006 1.429 . S
C2025 C2019 1.429 . S
C2025 C2026 1.523 . S
C2026 C2007 1.368 . S
C2026 C2020 1.368 . S
C2026 C2025 1.523 . S
C2027 C2011 1.429 . S
C2027 C2023 1.429 . S
C2027 C2028 1.523 . S
C2028 C2012 1.368 . S
C2028 C2024 1.368 . S
C2028 C2027 1.523 . S
H2029 C2004 0.950 . S
H2030 C2006 0.950 . S
H2031 C2007 0.949 . S
H2032 C2009 0.950 . S
H2033 C2011 0.950 . S
C2034 C2035 1.349 . S
C2034 C2036 1.327 . S
C2034 H2059 0.950 . S
C2035 C2034 1.349 . S
C2035 C2051 1.349 . S
C2036 C2034 1.327 . S
C2036 C2055 1.429 . S
C2036 H2060 0.950 . S
C2037 C2054 1.574 . S
C2037 C2056 1.368 . S
C2037 H2061 0.949 . S
H2038 C2042 0.949 . S
C2039 C2040 1.349 . S
C2039 C2041 1.327 . S
C2039 H2062 0.950 . S
C2040 C2039 1.349 . S
C2040 C2052 1.349 . S
C2041 C2039 1.327 . S
C2041 C2057 1.429 . S
C2041 H2063 0.950 . S
C2042 H2038 0.949 . S
C2042 C2050 1.574 . S
C2042 C2058 1.368 . S
H2043 C2051 0.950 . S
H2044 C2049 0.950 . S
H2045 C2050 0.949 . S
H2046 C2052 0.950 . S
H2047 C2053 0.950 . S
H2048 C2054 0.949 . S
C2049 H2044 0.950 . S
C2049 C2051 1.327 . S
C2049 C2055 1.429 . S
C2050 C2042 1.574 . S
C2050 H2045 0.949 . S
C2050 C2056 1.368 . S
C2051 C2035 1.349 . S
C2051 H2043 0.950 . S
C2051 C2049 1.327 . S
C2052 C2040 1.349 . S
C2052 H2046 0.950 . S
C2052 C2053 1.327 . S
C2053 H2047 0.950 . S
C2053 C2052 1.327 . S
C2053 C2057 1.429 . S
C2054 C2037 1.574 . S
C2054 H2048 0.949 . S
C2054 C2058 1.368 . S
C2055 C2036 1.429 . S
C2055 C2049 1.429 . S
C2055 C2056 1.523 . S
C2056 C2037 1.368 . S
C2056 C2050 1.368 . S
C2056 C2055 1.523 . S
C2057 C2041 1.429 . S
C2057 C2053 1.429 . S
C2057 C2058 1.523 . S
C2058 C2042 1.368 . S
C2058 C2054 1.368 . S
C2058 C2057 1.523 . S
H2059 C2034 0.950 . S
H2060 C2036 0.950 . S
H2061 C2037 0.949 . S
H2062 C2039 0.950 . S
H2063 C2041 0.950 . S
C2064 C2065 1.349 . S
C2064 C2066 1.327 . S
C2064 H2089 0.950 . S
C2065 C2064 1.349 . S
C2065 C2081 1.349 . S
C2066 C2064 1.327 . S
C2066 C2085 1.429 . S
C2066 H2090 0.950 . S
C2067 C2084 1.574 . S
C2067 C2086 1.368 . S
C2067 H2091 0.949 . S
H2068 C2072 0.949 . S
C2069 C2070 1.349 . S
C2069 C2071 1.327 . S
C2069 H2092 0.950 . S
C2070 C2069 1.349 . S
C2070 C2082 1.349 . S
C2071 C2069 1.327 . S
C2071 C2087 1.429 . S
C2071 H2093 0.950 . S
C2072 H2068 0.949 . S
C2072 C2080 1.574 . S
C2072 C2088 1.368 . S
H2073 C2081 0.950 . S
H2074 C2079 0.950 . S
H2075 C2080 0.949 . S
H2076 C2082 0.950 . S
H2077 C2083 0.950 . S
H2078 C2084 0.949 . S
C2079 H2074 0.950 . S
C2079 C2081 1.327 . S
C2079 C2085 1.429 . S
C2080 C2072 1.574 . S
C2080 H2075 0.949 . S
C2080 C2086 1.368 . S
C2081 C2065 1.349 . S
C2081 H2073 0.950 . S
C2081 C2079 1.327 . S
C2082 C2070 1.349 . S
C2082 H2076 0.950 . S
C2082 C2083 1.327 . S
C2083 H2077 0.950 . S
C2083 C2082 1.327 . S
C2083 C2087 1.429 . S
C2084 C2067 1.574 . S
C2084 H2078 0.949 . S
C2084 C2088 1.368 . S
C2085 C2066 1.429 . S
C2085 C2079 1.429 . S
C2085 C2086 1.523 . S
C2086 C2067 1.368 . S
C2086 C2080 1.368 . S
C2086 C2085 1.523 . S
C2087 C2071 1.429 . S
C2087 C2083 1.429 . S
C2087 C2088 1.523 . S
C2088 C2072 1.368 . S
C2088 C2084 1.368 . S
C2088 C2087 1.523 . S
H2089 C2064 0.950 . S
H2090 C2066 0.950 . S
H2091 C2067 0.949 . S
H2092 C2069 0.950 . S
H2093 C2071 0.950 . S
C2094 C2095 1.349 . S
C2094 C2096 1.327 . S
C2094 H2119 0.950 . S
C2095 C2094 1.349 . S
C2095 C2111 1.349 . S
C2096 C2094 1.327 . S
C2096 C2115 1.429 . S
C2096 H2120 0.950 . S
C2097 C2114 1.574 . S
C2097 C2116 1.368 . S
C2097 H2121 0.949 . S
H2098 C2102 0.949 . S
C2099 C2100 1.349 . S
C2099 C2101 1.327 . S
C2099 H2122 0.950 . S
C2100 C2099 1.349 . S
C2100 C2112 1.349 . S
C2101 C2099 1.327 . S
C2101 C2117 1.429 . S
C2101 H2123 0.950 . S
C2102 H2098 0.949 . S
C2102 C2110 1.574 . S
C2102 C2118 1.368 . S
H2103 C2111 0.950 . S
H2104 C2109 0.950 . S
H2105 C2110 0.949 . S
H2106 C2112 0.950 . S
H2107 C2113 0.950 . S
H2108 C2114 0.949 . S
C2109 H2104 0.950 . S
C2109 C2111 1.327 . S
C2109 C2115 1.429 . S
C2110 C2102 1.574 . S
C2110 H2105 0.949 . S
C2110 C2116 1.368 . S
C2111 C2095 1.349 . S
C2111 H2103 0.950 . S
C2111 C2109 1.327 . S
C2112 C2100 1.349 . S
C2112 H2106 0.950 . S
C2112 C2113 1.327 . S
C2113 H2107 0.950 . S
C2113 C2112 1.327 . S
C2113 C2117 1.429 . S
C2114 C2097 1.574 . S
C2114 H2108 0.949 . S
C2114 C2118 1.368 . S
C2115 C2096 1.429 . S
C2115 C2109 1.429 . S
C2115 C2116 1.523 . S
C2116 C2097 1.368 . S
C2116 C2110 1.368 . S
C2116 C2115 1.523 . S
C2117 C2101 1.429 . S
C2117 C2113 1.429 . S
C2117 C2118 1.523 . S
C2118 C2102 1.368 . S
C2118 C2114 1.368 . S
C2118 C2117 1.523 . S
H2119 C2094 0.950 . S
H2120 C2096 0.950 . S
H2121 C2097 0.949 . S
H2122 C2099 0.950 . S
H2123 C2101 0.950 . S
C2124 C2125 1.349 . S
C2124 C2126 1.327 . S
C2124 H2149 0.950 . S
C2125 C2124 1.349 . S
C2125 C2141 1.349 . S
C2126 C2124 1.327 . S
C2126 C2145 1.429 . S
C2126 H2150 0.950 . S
C2127 C2144 1.574 . S
C2127 C2146 1.368 . S
C2127 H2151 0.949 . S
H2128 C2132 0.949 . S
C2129 C2130 1.349 . S
C2129 C2131 1.327 . S
C2129 H2152 0.950 . S
C2130 C2129 1.349 . S
C2130 C2142 1.349 . S
C2131 C2129 1.327 . S
C2131 C2147 1.429 . S
C2131 H2153 0.950 . S
C2132 H2128 0.949 . S
C2132 C2140 1.574 . S
C2132 C2148 1.368 . S
H2133 C2141 0.950 . S
H2134 C2139 0.950 . S
H2135 C2140 0.949 . S
H2136 C2142 0.950 . S
H2137 C2143 0.950 . S
H2138 C2144 0.949 . S
C2139 H2134 0.950 . S
C2139 C2141 1.327 . S
C2139 C2145 1.429 . S
C2140 C2132 1.574 . S
C2140 H2135 0.949 . S
C2140 C2146 1.368 . S
C2141 C2125 1.349 . S
C2141 H2133 0.950 . S
C2141 C2139 1.327 . S
C2142 C2130 1.349 . S
C2142 H2136 0.950 . S
C2142 C2143 1.327 . S
C2143 H2137 0.950 . S
C2143 C2142 1.327 . S
C2143 C2147 1.429 . S
C2144 C2127 1.574 . S
C2144 H2138 0.949 . S
C2144 C2148 1.368 . S
C2145 C2126 1.429 . S
C2145 C2139 1.429 . S
C2145 C2146 1.523 . S
C2146 C2127 1.368 . S
C2146 C2140 1.368 . S
C2146 C2145 1.523 . S
C2147 C2131 1.429 . S
C2147 C2143 1.429 . S
C2147 C2148 1.523 . S
C2148 C2132 1.368 . S
C2148 C2144 1.368 . S
C2148 C2147 1.523 . S
H2149 C2124 0.950 . S
H2150 C2126 0.950 . S
H2151 C2127 0.949 . S
H2152 C2129 0.950 . S
H2153 C2131 0.950 . S
C2154 C2155 1.349 . S
C2154 C2156 1.327 . S
C2154 H2179 0.950 . S
C2155 C2154 1.349 . S
C2155 C2171 1.349 . S
C2156 C2154 1.327 . S
C2156 C2175 1.429 . S
C2156 H2180 0.950 . S
C2157 C2174 1.574 . S
C2157 C2176 1.368 . S
C2157 H2181 0.949 . S
H2158 C2162 0.949 . S
C2159 C2160 1.349 . S
C2159 C2161 1.327 . S
C2159 H2182 0.950 . S
C2160 C2159 1.349 . S
C2160 C2172 1.349 . S
C2161 C2159 1.327 . S
C2161 C2177 1.429 . S
C2161 H2183 0.950 . S
C2162 H2158 0.949 . S
C2162 C2170 1.574 . S
C2162 C2178 1.368 . S
H2163 C2171 0.950 . S
H2164 C2169 0.950 . S
H2165 C2170 0.949 . S
H2166 C2172 0.950 . S
H2167 C2173 0.950 . S
H2168 C2174 0.949 . S
C2169 H2164 0.950 . S
C2169 C2171 1.327 . S
C2169 C2175 1.429 . S
C2170 C2162 1.574 . S
C2170 H2165 0.949 . S
C2170 C2176 1.368 . S
C2171 C2155 1.349 . S
C2171 H2163 0.950 . S
C2171 C2169 1.327 . S
C2172 C2160 1.349 . S
C2172 H2166 0.950 . S
C2172 C2173 1.327 . S
C2173 H2167 0.950 . S
C2173 C2172 1.327 . S
C2173 C2177 1.429 . S
C2174 C2157 1.574 . S
C2174 H2168 0.949 . S
C2174 C2178 1.368 . S
C2175 C2156 1.429 . S
C2175 C2169 1.429 . S
C2175 C2176 1.523 . S
C2176 C2157 1.368 . S
C2176 C2170 1.368 . S
C2176 C2175 1.523 . S
C2177 C2161 1.429 . S
C2177 C2173 1.429 . S
C2177 C2178 1.523 . S
C2178 C2162 1.368 . S
C2178 C2174 1.368 . S
C2178 C2177 1.523 . S
H2179 C2154 0.950 . S
H2180 C2156 0.950 . S
H2181 C2157 0.949 . S
H2182 C2159 0.950 . S
H2183 C2161 0.950 . S
C2184 C2185 1.349 . S
C2184 C2186 1.327 . S
C2184 H2209 0.950 . S
C2185 C2184 1.349 . S
C2185 C2201 1.349 . S
C2186 C2184 1.327 . S
C2186 C2205 1.429 . S
C2186 H2210 0.950 . S
C2187 C2204 1.574 . S
C2187 C2206 1.368 . S
C2187 H2211 0.949 . S
H2188 C2192 0.949 . S
C2189 C2190 1.349 . S
C2189 C2191 1.327 . S
C2189 H2212 0.950 . S
C2190 C2189 1.349 . S
C2190 C2202 1.349 . S
C2191 C2189 1.327 . S
C2191 C2207 1.429 . S
C2191 H2213 0.950 . S
C2192 H2188 0.949 . S
C2192 C2200 1.574 . S
C2192 C2208 1.368 . S
H2193 C2201 0.950 . S
H2194 C2199 0.950 . S
H2195 C2200 0.949 . S
H2196 C2202 0.950 . S
H2197 C2203 0.950 . S
H2198 C2204 0.949 . S
C2199 H2194 0.950 . S
C2199 C2201 1.327 . S
C2199 C2205 1.429 . S
C2200 C2192 1.574 . S
C2200 H2195 0.949 . S
C2200 C2206 1.368 . S
C2201 C2185 1.349 . S
C2201 H2193 0.950 . S
C2201 C2199 1.327 . S
C2202 C2190 1.349 . S
C2202 H2196 0.950 . S
C2202 C2203 1.327 . S
C2203 H2197 0.950 . S
C2203 C2202 1.327 . S
C2203 C2207 1.429 . S
C2204 C2187 1.574 . S
C2204 H2198 0.949 . S
C2204 C2208 1.368 . S
C2205 C2186 1.429 . S
C2205 C2199 1.429 . S
C2205 C2206 1.523 . S
C2206 C2187 1.368 . S
C2206 C2200 1.368 . S
C2206 C2205 1.523 . S
C2207 C2191 1.429 . S
C2207 C2203 1.429 . S
C2207 C2208 1.523 . S
C2208 C2192 1.368 . S
C2208 C2204 1.368 . S
C2208 C2207 1.523 . S
H2209 C2184 0.950 . S
H2210 C2186 0.950 . S
H2211 C2187 0.949 . S
H2212 C2189 0.950 . S
H2213 C2191 0.950 . S
C2214 C2215 1.349 . S
C2214 C2216 1.327 . S
C2214 H2239 0.950 . S
C2215 C2214 1.349 . S
C2215 C2231 1.349 . S
C2216 C2214 1.327 . S
C2216 C2235 1.429 . S
C2216 H2240 0.950 . S
C2217 C2234 1.574 . S
C2217 C2236 1.368 . S
C2217 H2241 0.949 . S
H2218 C2222 0.949 . S
C2219 C2220 1.349 . S
C2219 C2221 1.327 . S
C2219 H2242 0.950 . S
C2220 C2219 1.349 . S
C2220 C2232 1.349 . S
C2221 C2219 1.327 . S
C2221 C2237 1.429 . S
C2221 H2243 0.950 . S
C2222 H2218 0.949 . S
C2222 C2230 1.574 . S
C2222 C2238 1.368 . S
H2223 C2231 0.950 . S
H2224 C2229 0.950 . S
H2225 C2230 0.949 . S
H2226 C2232 0.950 . S
H2227 C2233 0.950 . S
H2228 C2234 0.949 . S
C2229 H2224 0.950 . S
C2229 C2231 1.327 . S
C2229 C2235 1.429 . S
C2230 C2222 1.574 . S
C2230 H2225 0.949 . S
C2230 C2236 1.368 . S
C2231 C2215 1.349 . S
C2231 H2223 0.950 . S
C2231 C2229 1.327 . S
C2232 C2220 1.349 . S
C2232 H2226 0.950 . S
C2232 C2233 1.327 . S
C2233 H2227 0.950 . S
C2233 C2232 1.327 . S
C2233 C2237 1.429 . S
C2234 C2217 1.574 . S
C2234 H2228 0.949 . S
C2234 C2238 1.368 . S
C2235 C2216 1.429 . S
C2235 C2229 1.429 . S
C2235 C2236 1.523 . S
C2236 C2217 1.368 . S
C2236 C2230 1.368 . S
C2236 C2235 1.523 . S
C2237 C2221 1.429 . S
C2237 C2233 1.429 . S
C2237 C2238 1.523 . S
C2238 C2222 1.368 . S
C2238 C2234 1.368 . S
C2238 C2237 1.523 . S
H2239 C2214 0.950 . S
H2240 C2216 0.950 . S
H2241 C2217 0.949 . S
H2242 C2219 0.950 . S
H2243 C2221 0.950 . S
C2244 C2245 1.349 . S
C2244 C2246 1.327 . S
C2244 H2269 0.950 . S
C2245 C2244 1.349 . S
C2245 C2261 1.349 . S
C2246 C2244 1.327 . S
C2246 C2265 1.429 . S
C2246 H2270 0.950 . S
C2247 C2264 1.574 . S
C2247 C2266 1.368 . S
C2247 H2271 0.949 . S
H2248 C2252 0.949 . S
C2249 C2250 1.349 . S
C2249 C2251 1.327 . S
C2249 H2272 0.950 . S
C2250 C2249 1.349 . S
C2250 C2262 1.349 . S
C2251 C2249 1.327 . S
C2251 C2267 1.429 . S
C2251 H2273 0.950 . S
C2252 H2248 0.949 . S
C2252 C2260 1.574 . S
C2252 C2268 1.368 . S
H2253 C2261 0.950 . S
H2254 C2259 0.950 . S
H2255 C2260 0.949 . S
H2256 C2262 0.950 . S
H2257 C2263 0.950 . S
H2258 C2264 0.949 . S
C2259 H2254 0.950 . S
C2259 C2261 1.327 . S
C2259 C2265 1.429 . S
C2260 C2252 1.574 . S
C2260 H2255 0.949 . S
C2260 C2266 1.368 . S
C2261 C2245 1.349 . S
C2261 H2253 0.950 . S
C2261 C2259 1.327 . S
C2262 C2250 1.349 . S
C2262 H2256 0.950 . S
C2262 C2263 1.327 . S
C2263 H2257 0.950 . S
C2263 C2262 1.327 . S
C2263 C2267 1.429 . S
C2264 C2247 1.574 . S
C2264 H2258 0.949 . S
C2264 C2268 1.368 . S
C2265 C2246 1.429 . S
C2265 C2259 1.429 . S
C2265 C2266 1.523 . S
C2266 C2247 1.368 . S
C2266 C2260 1.368 . S
C2266 C2265 1.523 . S
C2267 C2251 1.429 . S
C2267 C2263 1.429 . S
C2267 C2268 1.523 . S
C2268 C2252 1.368 . S
C2268 C2264 1.368 . S
C2268 C2267 1.523 . S
H2269 C2244 0.950 . S
H2270 C2246 0.950 . S
H2271 C2247 0.949 . S
H2272 C2249 0.950 . S
H2273 C2251 0.950 . S
C2274 C2275 1.349 . S
C2274 C2276 1.327 . S
C2274 H2299 0.950 . S
C2275 C2274 1.349 . S
C2275 C2291 1.349 . S
C2276 C2274 1.327 . S
C2276 C2295 1.429 . S
C2276 H2300 0.950 . S
C2277 C2294 1.574 . S
C2277 C2296 1.368 . S
C2277 H2301 0.949 . S
H2278 C2282 0.949 . S
C2279 C2280 1.349 . S
C2279 C2281 1.327 . S
C2279 H2302 0.950 . S
C2280 C2279 1.349 . S
C2280 C2292 1.349 . S
C2281 C2279 1.327 . S
C2281 C2297 1.429 . S
C2281 H2303 0.950 . S
C2282 H2278 0.949 . S
C2282 C2290 1.574 . S
C2282 C2298 1.368 . S
H2283 C2291 0.950 . S
H2284 C2289 0.950 . S
H2285 C2290 0.949 . S
H2286 C2292 0.950 . S
H2287 C2293 0.950 . S
H2288 C2294 0.949 . S
C2289 H2284 0.950 . S
C2289 C2291 1.327 . S
C2289 C2295 1.429 . S
C2290 C2282 1.574 . S
C2290 H2285 0.949 . S
C2290 C2296 1.368 . S
C2291 C2275 1.349 . S
C2291 H2283 0.950 . S
C2291 C2289 1.327 . S
C2292 C2280 1.349 . S
C2292 H2286 0.950 . S
C2292 C2293 1.327 . S
C2293 H2287 0.950 . S
C2293 C2292 1.327 . S
C2293 C2297 1.429 . S
C2294 C2277 1.574 . S
C2294 H2288 0.949 . S
C2294 C2298 1.368 . S
C2295 C2276 1.429 . S
C2295 C2289 1.429 . S
C2295 C2296 1.523 . S
C2296 C2277 1.368 . S
C2296 C2290 1.368 . S
C2296 C2295 1.523 . S
C2297 C2281 1.429 . S
C2297 C2293 1.429 . S
C2297 C2298 1.523 . S
C2298 C2282 1.368 . S
C2298 C2294 1.368 . S
C2298 C2297 1.523 . S
H2299 C2274 0.950 . S
H2300 C2276 0.950 . S
H2301 C2277 0.949 . S
H2302 C2279 0.950 . S
H2303 C2281 0.950 . S
C2304 C2305 1.349 . S
C2304 C2306 1.327 . S
C2304 H2329 0.950 . S
C2305 C2304 1.349 . S
C2305 C2321 1.349 . S
C2306 C2304 1.327 . S
C2306 C2325 1.429 . S
C2306 H2330 0.950 . S
C2307 C2324 1.574 . S
C2307 C2326 1.368 . S
C2307 H2331 0.949 . S
H2308 C2312 0.949 . S
C2309 C2310 1.349 . S
C2309 C2311 1.327 . S
C2309 H2332 0.950 . S
C2310 C2309 1.349 . S
C2310 C2322 1.349 . S
C2311 C2309 1.327 . S
C2311 C2327 1.429 . S
C2311 H2333 0.950 . S
C2312 H2308 0.949 . S
C2312 C2320 1.574 . S
C2312 C2328 1.368 . S
H2313 C2321 0.950 . S
H2314 C2319 0.950 . S
H2315 C2320 0.949 . S
H2316 C2322 0.950 . S
H2317 C2323 0.950 . S
H2318 C2324 0.949 . S
C2319 H2314 0.950 . S
C2319 C2321 1.327 . S
C2319 C2325 1.429 . S
C2320 C2312 1.574 . S
C2320 H2315 0.949 . S
C2320 C2326 1.368 . S
C2321 C2305 1.349 . S
C2321 H2313 0.950 . S
C2321 C2319 1.327 . S
C2322 C2310 1.349 . S
C2322 H2316 0.950 . S
C2322 C2323 1.327 . S
C2323 H2317 0.950 . S
C2323 C2322 1.327 . S
C2323 C2327 1.429 . S
C2324 C2307 1.574 . S
C2324 H2318 0.949 . S
C2324 C2328 1.368 . S
C2325 C2306 1.429 . S
C2325 C2319 1.429 . S
C2325 C2326 1.523 . S
C2326 C2307 1.368 . S
C2326 C2320 1.368 . S
C2326 C2325 1.523 . S
C2327 C2311 1.429 . S
C2327 C2323 1.429 . S
C2327 C2328 1.523 . S
C2328 C2312 1.368 . S
C2328 C2324 1.368 . S
C2328 C2327 1.523 . S
H2329 C2304 0.950 . S
H2330 C2306 0.950 . S
H2331 C2307 0.949 . S
H2332 C2309 0.950 . S
H2333 C2311 0.950 . S
C2334 C2335 1.349 . S
C2334 C2336 1.327 . S
C2334 H2359 0.950 . S
C2335 C2334 1.349 . S
C2335 C2351 1.349 . S
C2336 C2334 1.327 . S
C2336 C2355 1.429 . S
C2336 H2360 0.950 . S
C2337 C2354 1.574 . S
C2337 C2356 1.368 . S
C2337 H2361 0.949 . S
H2338 C2342 0.949 . S
C2339 C2340 1.349 . S
C2339 C2341 1.327 . S
C2339 H2362 0.950 . S
C2340 C2339 1.349 . S
C2340 C2352 1.349 . S
C2341 C2339 1.327 . S
C2341 C2357 1.429 . S
C2341 H2363 0.950 . S
C2342 H2338 0.949 . S
C2342 C2350 1.574 . S
C2342 C2358 1.368 . S
H2343 C2351 0.950 . S
H2344 C2349 0.950 . S
H2345 C2350 0.949 . S
H2346 C2352 0.950 . S
H2347 C2353 0.950 . S
H2348 C2354 0.949 . S
C2349 H2344 0.950 . S
C2349 C2351 1.327 . S
C2349 C2355 1.429 . S
C2350 C2342 1.574 . S
C2350 H2345 0.949 . S
C2350 C2356 1.368 . S
C2351 C2335 1.349 . S
C2351 H2343 0.950 . S
C2351 C2349 1.327 . S
C2352 C2340 1.349 . S
C2352 H2346 0.950 . S
C2352 C2353 1.327 . S
C2353 H2347 0.950 . S
C2353 C2352 1.327 . S
C2353 C2357 1.429 . S
C2354 C2337 1.574 . S
C2354 H2348 0.949 . S
C2354 C2358 1.368 . S
C2355 C2336 1.429 . S
C2355 C2349 1.429 . S
C2355 C2356 1.523 . S
C2356 C2337 1.368 . S
C2356 C2350 1.368 . S
C2356 C2355 1.523 . S
C2357 C2341 1.429 . S
C2357 C2353 1.429 . S
C2357 C2358 1.523 . S
C2358 C2342 1.368 . S
C2358 C2354 1.368 . S
C2358 C2357 1.523 . S
H2359 C2334 0.950 . S
H2360 C2336 0.950 . S
H2361 C2337 0.949 . S
H2362 C2339 0.950 . S
H2363 C2341 0.950 . S
C2364 C2365 1.349 . S
C2364 C2366 1.327 . S
C2364 H2389 0.950 . S
C2365 C2364 1.349 . S
C2365 C2381 1.349 . S
C2366 C2364 1.327 . S
C2366 C2385 1.429 . S
C2366 H2390 0.950 . S
C2367 C2384 1.574 . S
C2367 C2386 1.368 . S
C2367 H2391 0.949 . S
H2368 C2372 0.949 . S
C2369 C2370 1.349 . S
C2369 C2371 1.327 . S
C2369 H2392 0.950 . S
C2370 C2369 1.349 . S
C2370 C2382 1.349 . S
C2371 C2369 1.327 . S
C2371 C2387 1.429 . S
C2371 H2393 0.950 . S
C2372 H2368 0.949 . S
C2372 C2380 1.574 . S
C2372 C2388 1.368 . S
H2373 C2381 0.950 . S
H2374 C2379 0.950 . S
H2375 C2380 0.949 . S
H2376 C2382 0.950 . S
H2377 C2383 0.950 . S
H2378 C2384 0.949 . S
C2379 H2374 0.950 . S
C2379 C2381 1.327 . S
C2379 C2385 1.429 . S
C2380 C2372 1.574 . S
C2380 H2375 0.949 . S
C2380 C2386 1.368 . S
C2381 C2365 1.349 . S
C2381 H2373 0.950 . S
C2381 C2379 1.327 . S
C2382 C2370 1.349 . S
C2382 H2376 0.950 . S
C2382 C2383 1.327 . S
C2383 H2377 0.950 . S
C2383 C2382 1.327 . S
C2383 C2387 1.429 . S
C2384 C2367 1.574 . S
C2384 H2378 0.949 . S
C2384 C2388 1.368 . S
C2385 C2366 1.429 . S
C2385 C2379 1.429 . S
C2385 C2386 1.523 . S
C2386 C2367 1.368 . S
C2386 C2380 1.368 . S
C2386 C2385 1.523 . S
C2387 C2371 1.429 . S
C2387 C2383 1.429 . S
C2387 C2388 1.523 . S
C2388 C2372 1.368 . S
C2388 C2384 1.368 . S
C2388 C2387 1.523 . S
H2389 C2364 0.950 . S
H2390 C2366 0.950 . S
H2391 C2367 0.949 . S
H2392 C2369 0.950 . S
H2393 C2371 0.950 . S
C2394 C2395 1.349 . S
C2394 C2396 1.327 . S
C2394 H2419 0.950 . S
C2395 C2394 1.349 . S
C2395 C2411 1.349 . S
C2396 C2394 1.327 . S
C2396 C2415 1.429 . S
C2396 H2420 0.950 . S
C2397 C2414 1.574 . S
C2397 C2416 1.368 . S
C2397 H2421 0.949 . S
H2398 C2402 0.949 . S
C2399 C2400 1.349 . S
C2399 C2401 1.327 . S
C2399 H2422 0.950 . S
C2400 C2399 1.349 . S
C2400 C2412 1.349 . S
C2401 C2399 1.327 . S
C2401 C2417 1.429 . S
C2401 H2423 0.950 . S
C2402 H2398 0.949 . S
C2402 C2410 1.574 . S
C2402 C2418 1.368 . S
H2403 C2411 0.950 . S
H2404 C2409 0.950 . S
H2405 C2410 0.949 . S
H2406 C2412 0.950 . S
H2407 C2413 0.950 . S
H2408 C2414 0.949 . S
C2409 H2404 0.950 . S
C2409 C2411 1.327 . S
C2409 C2415 1.429 . S
C2410 C2402 1.574 . S
C2410 H2405 0.949 . S
C2410 C2416 1.368 . S
C2411 C2395 1.349 . S
C2411 H2403 0.950 . S
C2411 C2409 1.327 . S
C2412 C2400 1.349 . S
C2412 H2406 0.950 . S
C2412 C2413 1.327 . S
C2413 H2407 0.950 . S
C2413 C2412 1.327 . S
C2413 C2417 1.429 . S
C2414 C2397 1.574 . S
C2414 H2408 0.949 . S
C2414 C2418 1.368 . S
C2415 C2396 1.429 . S
C2415 C2409 1.429 . S
C2415 C2416 1.523 . S
C2416 C2397 1.368 . S
C2416 C2410 1.368 . S
C2416 C2415 1.523 . S
C2417 C2401 1.429 . S
C2417 C2413 1.429 . S
C2417 C2418 1.523 . S
C2418 C2402 1.368 . S
C2418 C2414 1.368 . S
C2418 C2417 1.523 . S
H2419 C2394 0.950 . S
H2420 C2396 0.950 . S
H2421 C2397 0.949 . S
H2422 C2399 0.950 . S
H2423 C2401 0.950 . S
C2424 C2425 1.349 . S
C2424 C2426 1.327 . S
C2424 H2449 0.950 . S
C2425 C2424 1.349 . S
C2425 C2441 1.349 . S
C2426 C2424 1.327 . S
C2426 C2445 1.429 . S
C2426 H2450 0.950 . S
C2427 C2444 1.574 . S
C2427 C2446 1.368 . S
C2427 H2451 0.949 . S
H2428 C2432 0.949 . S
C2429 C2430 1.349 . S
C2429 C2431 1.327 . S
C2429 H2452 0.950 . S
C2430 C2429 1.349 . S
C2430 C2442 1.349 . S
C2431 C2429 1.327 . S
C2431 C2447 1.429 . S
C2431 H2453 0.950 . S
C2432 H2428 0.949 . S
C2432 C2440 1.574 . S
C2432 C2448 1.368 . S
H2433 C2441 0.950 . S
H2434 C2439 0.950 . S
H2435 C2440 0.949 . S
H2436 C2442 0.950 . S
H2437 C2443 0.950 . S
H2438 C2444 0.949 . S
C2439 H2434 0.950 . S
C2439 C2441 1.327 . S
C2439 C2445 1.429 . S
C2440 C2432 1.574 . S
C2440 H2435 0.949 . S
C2440 C2446 1.368 . S
C2441 C2425 1.349 . S
C2441 H2433 0.950 . S
C2441 C2439 1.327 . S
C2442 C2430 1.349 . S
C2442 H2436 0.950 . S
C2442 C2443 1.327 . S
C2443 H2437 0.950 . S
C2443 C2442 1.327 . S
C2443 C2447 1.429 . S
C2444 C2427 1.574 . S
C2444 H2438 0.949 . S
C2444 C2448 1.368 . S
C2445 C2426 1.429 . S
C2445 C2439 1.429 . S
C2445 C2446 1.523 . S
C2446 C2427 1.368 . S
C2446 C2440 1.368 . S
C2446 C2445 1.523 . S
C2447 C2431 1.429 . S
C2447 C2443 1.429 . S
C2447 C2448 1.523 . S
C2448 C2432 1.368 . S
C2448 C2444 1.368 . S
C2448 C2447 1.523 . S
H2449 C2424 0.950 . S
H2450 C2426 0.950 . S
H2451 C2427 0.949 . S
H2452 C2429 0.950 . S
H2453 C2431 0.950 . S
C2454 C2455 1.349 . S
C2454 C2456 1.327 . S
C2454 H2479 0.950 . S
C2455 C2454 1.349 . S
C2455 C2471 1.349 . S
C2456 C2454 1.327 . S
C2456 C2475 1.429 . S
C2456 H2480 0.950 . S
C2457 C2474 1.574 . S
C2457 C2476 1.368 . S
C2457 H2481 0.949 . S
H2458 C2462 0.949 . S
C2459 C2460 1.349 . S
C2459 C2461 1.327 . S
C2459 H2482 0.950 . S
C2460 C2459 1.349 . S
C2460 C2472 1.349 . S
C2461 C2459 1.327 . S
C2461 C2477 1.429 . S
C2461 H2483 0.950 . S
C2462 H2458 0.949 . S
C2462 C2470 1.574 . S
C2462 C2478 1.368 . S
H2463 C2471 0.950 . S
H2464 C2469 0.950 . S
H2465 C2470 0.949 . S
H2466 C2472 0.950 . S
H2467 C2473 0.950 . S
H2468 C2474 0.949 . S
C2469 H2464 0.950 . S
C2469 C2471 1.327 . S
C2469 C2475 1.429 . S
C2470 C2462 1.574 . S
C2470 H2465 0.949 . S
C2470 C2476 1.368 . S
C2471 C2455 1.349 . S
C2471 H2463 0.950 . S
C2471 C2469 1.327 . S
C2472 C2460 1.349 . S
C2472 H2466 0.950 . S
C2472 C2473 1.327 . S
C2473 H2467 0.950 . S
C2473 C2472 1.327 . S
C2473 C2477 1.429 . S
C2474 C2457 1.574 . S
C2474 H2468 0.949 . S
C2474 C2478 1.368 . S
C2475 C2456 1.429 . S
C2475 C2469 1.429 . S
C2475 C2476 1.523 . S
C2476 C2457 1.368 . S
C2476 C2470 1.368 . S
C2476 C2475 1.523 . S
C2477 C2461 1.429 . S
C2477 C2473 1.429 . S
C2477 C2478 1.523 . S
C2478 C2462 1.368 . S
C2478 C2474 1.368 . S
C2478 C2477 1.523 . S
H2479 C2454 0.950 . S
H2480 C2456 0.950 . S
H2481 C2457 0.949 . S
H2482 C2459 0.950 . S
H2483 C2461 0.950 . S
C2484 C2485 1.349 . S
C2484 C2486 1.327 . S
C2484 H2509 0.950 . S
C2485 C2484 1.349 . S
C2485 C2501 1.349 . S
C2486 C2484 1.327 . S
C2486 C2505 1.429 . S
C2486 H2510 0.950 . S
C2487 C2504 1.574 . S
C2487 C2506 1.368 . S
C2487 H2511 0.949 . S
H2488 C2492 0.949 . S
C2489 C2490 1.349 . S
C2489 C2491 1.327 . S
C2489 H2512 0.950 . S
C2490 C2489 1.349 . S
C2490 C2502 1.349 . S
C2491 C2489 1.327 . S
C2491 C2507 1.429 . S
C2491 H2513 0.950 . S
C2492 H2488 0.949 . S
C2492 C2500 1.574 . S
C2492 C2508 1.368 . S
H2493 C2501 0.950 . S
H2494 C2499 0.950 . S
H2495 C2500 0.949 . S
H2496 C2502 0.950 . S
H2497 C2503 0.950 . S
H2498 C2504 0.949 . S
C2499 H2494 0.950 . S
C2499 C2501 1.327 . S
C2499 C2505 1.429 . S
C2500 C2492 1.574 . S
C2500 H2495 0.949 . S
C2500 C2506 1.368 . S
C2501 C2485 1.349 . S
C2501 H2493 0.950 . S
C2501 C2499 1.327 . S
C2502 C2490 1.349 . S
C2502 H2496 0.950 . S
C2502 C2503 1.327 . S
C2503 H2497 0.950 . S
C2503 C2502 1.327 . S
C2503 C2507 1.429 . S
C2504 C2487 1.574 . S
C2504 H2498 0.949 . S
C2504 C2508 1.368 . S
C2505 C2486 1.429 . S
C2505 C2499 1.429 . S
C2505 C2506 1.523 . S
C2506 C2487 1.368 . S
C2506 C2500 1.368 . S
C2506 C2505 1.523 . S
C2507 C2491 1.429 . S
C2507 C2503 1.429 . S
C2507 C2508 1.523 . S
C2508 C2492 1.368 . S
C2508 C2504 1.368 . S
C2508 C2507 1.523 . S
H2509 C2484 0.950 . S
H2510 C2486 0.950 . S
H2511 C2487 0.949 . S
H2512 C2489 0.950 . S
H2513 C2491 0.950 . S
C2514 C2515 1.349 . S
C2514 C2516 1.327 . S
C2514 H2539 0.950 . S
C2515 C2514 1.349 . S
C2515 C2531 1.349 . S
C2516 C2514 1.327 . S
C2516 C2535 1.429 . S
C2516 H2540 0.950 . S
C2517 C2534 1.574 . S
C2517 C2536 1.368 . S
C2517 H2541 0.949 . S
H2518 C2522 0.949 . S
C2519 C2520 1.349 . S
C2519 C2521 1.327 . S
C2519 H2542 0.950 . S
C2520 C2519 1.349 . S
C2520 C2532 1.349 . S
C2521 C2519 1.327 . S
C2521 C2537 1.429 . S
C2521 H2543 0.950 . S
C2522 H2518 0.949 . S
C2522 C2530 1.574 . S
C2522 C2538 1.368 . S
H2523 C2531 0.950 . S
H2524 C2529 0.950 . S
H2525 C2530 0.949 . S
H2526 C2532 0.950 . S
H2527 C2533 0.950 . S
H2528 C2534 0.949 . S
C2529 H2524 0.950 . S
C2529 C2531 1.327 . S
C2529 C2535 1.429 . S
C2530 C2522 1.574 . S
C2530 H2525 0.949 . S
C2530 C2536 1.368 . S
C2531 C2515 1.349 . S
C2531 H2523 0.950 . S
C2531 C2529 1.327 . S
C2532 C2520 1.349 . S
C2532 H2526 0.950 . S
C2532 C2533 1.327 . S
C2533 H2527 0.950 . S
C2533 C2532 1.327 . S
C2533 C2537 1.429 . S
C2534 C2517 1.574 . S
C2534 H2528 0.949 . S
C2534 C2538 1.368 . S
C2535 C2516 1.429 . S
C2535 C2529 1.429 . S
C2535 C2536 1.523 . S
C2536 C2517 1.368 . S
C2536 C2530 1.368 . S
C2536 C2535 1.523 . S
C2537 C2521 1.429 . S
C2537 C2533 1.429 . S
C2537 C2538 1.523 . S
C2538 C2522 1.368 . S
C2538 C2534 1.368 . S
C2538 C2537 1.523 . S
H2539 C2514 0.950 . S
H2540 C2516 0.950 . S
H2541 C2517 0.949 . S
H2542 C2519 0.950 . S
H2543 C2521 0.950 . S
C2544 C2545 1.349 . S
C2544 C2546 1.327 . S
C2544 H2569 0.950 . S
C2545 C2544 1.349 . S
C2545 C2561 1.349 . S
C2546 C2544 1.327 . S
C2546 C2565 1.429 . S
C2546 H2570 0.950 . S
C2547 C2564 1.574 . S
C2547 C2566 1.368 . S
C2547 H2571 0.949 . S
H2548 C2552 0.949 . S
C2549 C2550 1.349 . S
C2549 C2551 1.327 . S
C2549 H2572 0.950 . S
C2550 C2549 1.349 . S
C2550 C2562 1.349 . S
C2551 C2549 1.327 . S
C2551 C2567 1.429 . S
C2551 H2573 0.950 . S
C2552 H2548 0.949 . S
C2552 C2560 1.574 . S
C2552 C2568 1.368 . S
H2553 C2561 0.950 . S
H2554 C2559 0.950 . S
H2555 C2560 0.949 . S
H2556 C2562 0.950 . S
H2557 C2563 0.950 . S
H2558 C2564 0.949 . S
C2559 H2554 0.950 . S
C2559 C2561 1.327 . S
C2559 C2565 1.429 . S
C2560 C2552 1.574 . S
C2560 H2555 0.949 . S
C2560 C2566 1.368 . S
C2561 C2545 1.349 . S
C2561 H2553 0.950 . S
C2561 C2559 1.327 . S
C2562 C2550 1.349 . S
C2562 H2556 0.950 . S
C2562 C2563 1.327 . S
C2563 H2557 0.950 . S
C2563 C2562 1.327 . S
C2563 C2567 1.429 . S
C2564 C2547 1.574 . S
C2564 H2558 0.949 . S
C2564 C2568 1.368 . S
C2565 C2546 1.429 . S
C2565 C2559 1.429 . S
C2565 C2566 1.523 . S
C2566 C2547 1.368 . S
C2566 C2560 1.368 . S
C2566 C2565 1.523 . S
C2567 C2551 1.429 . S
C2567 C2563 1.429 . S
C2567 C2568 1.523 . S
C2568 C2552 1.368 . S
C2568 C2564 1.368 . S
C2568 C2567 1.523 . S
H2569 C2544 0.950 . S
H2570 C2546 0.950 . S
H2571 C2547 0.949 . S
H2572 C2549 0.950 . S
H2573 C2551 0.950 . S
C2574 C2575 1.349 . S
C2574 C2576 1.327 . S
C2574 H2599 0.950 . S
C2575 C2574 1.349 . S
C2575 C2591 1.349 . S
C2576 C2574 1.327 . S
C2576 C2595 1.429 . S
C2576 H2600 0.950 . S
C2577 C2594 1.574 . S
C2577 C2596 1.368 . S
C2577 H2601 0.949 . S
H2578 C2582 0.949 . S
C2579 C2580 1.349 . S
C2579 C2581 1.327 . S
C2579 H2602 0.950 . S
C2580 C2579 1.349 . S
C2580 C2592 1.349 . S
C2581 C2579 1.327 . S
C2581 C2597 1.429 . S
C2581 H2603 0.950 . S
C2582 H2578 0.949 . S
C2582 C2590 1.574 . S
C2582 C2598 1.368 . S
H2583 C2591 0.950 . S
H2584 C2589 0.950 . S
H2585 C2590 0.949 . S
H2586 C2592 0.950 . S
H2587 C2593 0.950 . S
H2588 C2594 0.949 . S
C2589 H2584 0.950 . S
C2589 C2591 1.327 . S
C2589 C2595 1.429 . S
C2590 C2582 1.574 . S
C2590 H2585 0.949 . S
C2590 C2596 1.368 . S
C2591 C2575 1.349 . S
C2591 H2583 0.950 . S
C2591 C2589 1.327 . S
C2592 C2580 1.349 . S
C2592 H2586 0.950 . S
C2592 C2593 1.327 . S
C2593 H2587 0.950 . S
C2593 C2592 1.327 . S
C2593 C2597 1.429 . S
C2594 C2577 1.574 . S
C2594 H2588 0.949 . S
C2594 C2598 1.368 . S
C2595 C2576 1.429 . S
C2595 C2589 1.429 . S
C2595 C2596 1.523 . S
C2596 C2577 1.368 . S
C2596 C2590 1.368 . S
C2596 C2595 1.523 . S
C2597 C2581 1.429 . S
C2597 C2593 1.429 . S
C2597 C2598 1.523 . S
C2598 C2582 1.368 . S
C2598 C2594 1.368 . S
C2598 C2597 1.523 . S
H2599 C2574 0.950 . S
H2600 C2576 0.950 . S
H2601 C2577 0.949 . S
H2602 C2579 0.950 . S
H2603 C2581 0.950 . S
C2604 C2605 1.349 . S
C2604 C2606 1.327 . S
C2604 H2629 0.950 . S
C2605 C2604 1.349 . S
C2605 C2621 1.349 . S
C2606 C2604 1.327 . S
C2606 C2625 1.429 . S
C2606 H2630 0.950 . S
C2607 C2624 1.574 . S
C2607 C2626 1.368 . S
C2607 H2631 0.949 . S
H2608 C2612 0.949 . S
C2609 C2610 1.349 . S
C2609 C2611 1.327 . S
C2609 H2632 0.950 . S
C2610 C2609 1.349 . S
C2610 C2622 1.349 . S
C2611 C2609 1.327 . S
C2611 C2627 1.429 . S
C2611 H2633 0.950 . S
C2612 H2608 0.949 . S
C2612 C2620 1.574 . S
C2612 C2628 1.368 . S
H2613 C2621 0.950 . S
H2614 C2619 0.950 . S
H2615 C2620 0.949 . S
H2616 C2622 0.950 . S
H2617 C2623 0.950 . S
H2618 C2624 0.949 . S
C2619 H2614 0.950 . S
C2619 C2621 1.327 . S
C2619 C2625 1.429 . S
C2620 C2612 1.574 . S
C2620 H2615 0.949 . S
C2620 C2626 1.368 . S
C2621 C2605 1.349 . S
C2621 H2613 0.950 . S
C2621 C2619 1.327 . S
C2622 C2610 1.349 . S
C2622 H2616 0.950 . S
C2622 C2623 1.327 . S
C2623 H2617 0.950 . S
C2623 C2622 1.327 . S
C2623 C2627 1.429 . S
C2624 C2607 1.574 . S
C2624 H2618 0.949 . S
C2624 C2628 1.368 . S
C2625 C2606 1.429 . S
C2625 C2619 1.429 . S
C2625 C2626 1.523 . S
C2626 C2607 1.368 . S
C2626 C2620 1.368 . S
C2626 C2625 1.523 . S
C2627 C2611 1.429 . S
C2627 C2623 1.429 . S
C2627 C2628 1.523 . S
C2628 C2612 1.368 . S
C2628 C2624 1.368 . S
C2628 C2627 1.523 . S
H2629 C2604 0.950 . S
H2630 C2606 0.950 . S
H2631 C2607 0.949 . S
H2632 C2609 0.950 . S
H2633 C2611 0.950 . S
C2634 C2635 1.349 . S
C2634 C2636 1.327 . S
C2634 H2659 0.950 . S
C2635 C2634 1.349 . S
C2635 C2651 1.349 . S
C2636 C2634 1.327 . S
C2636 C2655 1.429 . S
C2636 H2660 0.950 . S
C2637 C2654 1.574 . S
C2637 C2656 1.368 . S
C2637 H2661 0.949 . S
H2638 C2642 0.949 . S
C2639 C2640 1.349 . S
C2639 C2641 1.327 . S
C2639 H2662 0.950 . S
C2640 C2639 1.349 . S
C2640 C2652 1.349 . S
C2641 C2639 1.327 . S
C2641 C2657 1.429 . S
C2641 H2663 0.950 . S
C2642 H2638 0.949 . S
C2642 C2650 1.574 . S
C2642 C2658 1.368 . S
H2643 C2651 0.950 . S
H2644 C2649 0.950 . S
H2645 C2650 0.949 . S
H2646 C2652 0.950 . S
H2647 C2653 0.950 . S
H2648 C2654 0.949 . S
C2649 H2644 0.950 . S
C2649 C2651 1.327 . S
C2649 C2655 1.429 . S
C2650 C2642 1.574 . S
C2650 H2645 0.949 . S
C2650 C2656 1.368 . S
C2651 C2635 1.349 . S
C2651 H2643 0.950 . S
C2651 C2649 1.327 . S
C2652 C2640 1.349 . S
C2652 H2646 0.950 . S
C2652 C2653 1.327 . S
C2653 H2647 0.950 . S
C2653 C2652 1.327 . S
C2653 C2657 1.429 . S
C2654 C2637 1.574 . S
C2654 H2648 0.949 . S
C2654 C2658 1.368 . S
C2655 C2636 1.429 . S
C2655 C2649 1.429 . S
C2655 C2656 1.523 . S
C2656 C2637 1.368 . S
C2656 C2650 1.368 . S
C2656 C2655 1.523 . S
C2657 C2641 1.429 . S
C2657 C2653 1.429 . S
C2657 C2658 1.523 . S
C2658 C2642 1.368 . S
C2658 C2654 1.368 . S
C2658 C2657 1.523 . S
H2659 C2634 0.950 . S
H2660 C2636 0.950 . S
H2661 C2637 0.949 . S
H2662 C2639 0.950 . S
H2663 C2641 0.950 . S
C2664 C2665 1.349 . S
C2664 C2666 1.327 . S
C2664 H2689 0.950 . S
C2665 C2664 1.349 . S
C2665 C2681 1.349 . S
C2666 C2664 1.327 . S
C2666 C2685 1.429 . S
C2666 H2690 0.950 . S
C2667 C2684 1.574 . S
C2667 C2686 1.368 . S
C2667 H2691 0.949 . S
H2668 C2672 0.949 . S
C2669 C2670 1.349 . S
C2669 C2671 1.327 . S
C2669 H2692 0.950 . S
C2670 C2669 1.349 . S
C2670 C2682 1.349 . S
C2671 C2669 1.327 . S
C2671 C2687 1.429 . S
C2671 H2693 0.950 . S
C2672 H2668 0.949 . S
C2672 C2680 1.574 . S
C2672 C2688 1.368 . S
H2673 C2681 0.950 . S
H2674 C2679 0.950 . S
H2675 C2680 0.949 . S
H2676 C2682 0.950 . S
H2677 C2683 0.950 . S
H2678 C2684 0.949 . S
C2679 H2674 0.950 . S
C2679 C2681 1.327 . S
C2679 C2685 1.429 . S
C2680 C2672 1.574 . S
C2680 H2675 0.949 . S
C2680 C2686 1.368 . S
C2681 C2665 1.349 . S
C2681 H2673 0.950 . S
C2681 C2679 1.327 . S
C2682 C2670 1.349 . S
C2682 H2676 0.950 . S
C2682 C2683 1.327 . S
C2683 H2677 0.950 . S
C2683 C2682 1.327 . S
C2683 C2687 1.429 . S
C2684 C2667 1.574 . S
C2684 H2678 0.949 . S
C2684 C2688 1.368 . S
C2685 C2666 1.429 . S
C2685 C2679 1.429 . S
C2685 C2686 1.523 . S
C2686 C2667 1.368 . S
C2686 C2680 1.368 . S
C2686 C2685 1.523 . S
C2687 C2671 1.429 . S
C2687 C2683 1.429 . S
C2687 C2688 1.523 . S
C2688 C2672 1.368 . S
C2688 C2684 1.368 . S
C2688 C2687 1.523 . S
H2689 C2664 0.950 . S
H2690 C2666 0.950 . S
H2691 C2667 0.949 . S
H2692 C2669 0.950 . S
H2693 C2671 0.950 . S
C2694 C2695 1.349 . S
C2694 C2696 1.327 . S
C2694 H2719 0.950 . S
C2695 C2694 1.349 . S
C2695 C2711 1.349 . S
C2696 C2694 1.327 . S
C2696 C2715 1.429 . S
C2696 H2720 0.950 . S
C2697 C2714 1.574 . S
C2697 C2716 1.368 . S
C2697 H2721 0.949 . S
H2698 C2702 0.949 . S
C2699 C2700 1.349 . S
C2699 C2701 1.327 . S
C2699 H2722 0.950 . S
C2700 C2699 1.349 . S
C2700 C2712 1.349 . S
C2701 C2699 1.327 . S
C2701 C2717 1.429 . S
C2701 H2723 0.950 . S
C2702 H2698 0.949 . S
C2702 C2710 1.574 . S
C2702 C2718 1.368 . S
H2703 C2711 0.950 . S
H2704 C2709 0.950 . S
H2705 C2710 0.949 . S
H2706 C2712 0.950 . S
H2707 C2713 0.950 . S
H2708 C2714 0.949 . S
C2709 H2704 0.950 . S
C2709 C2711 1.327 . S
C2709 C2715 1.429 . S
C2710 C2702 1.574 . S
C2710 H2705 0.949 . S
C2710 C2716 1.368 . S
C2711 C2695 1.349 . S
C2711 H2703 0.950 . S
C2711 C2709 1.327 . S
C2712 C2700 1.349 . S
C2712 H2706 0.950 . S
C2712 C2713 1.327 . S
C2713 H2707 0.950 . S
C2713 C2712 1.327 . S
C2713 C2717 1.429 . S
C2714 C2697 1.574 . S
C2714 H2708 0.949 . S
C2714 C2718 1.368 . S
C2715 C2696 1.429 . S
C2715 C2709 1.429 . S
C2715 C2716 1.523 . S
C2716 C2697 1.368 . S
C2716 C2710 1.368 . S
C2716 C2715 1.523 . S
C2717 C2701 1.429 . S
C2717 C2713 1.429 . S
C2717 C2718 1.523 . S
C2718 C2702 1.368 . S
C2718 C2714 1.368 . S
C2718 C2717 1.523 . S
H2719 C2694 0.950 . S
H2720 C2696 0.950 . S
H2721 C2697 0.949 . S
H2722 C2699 0.950 . S
H2723 C2701 0.950 . S
C2724 C2725 1.349 . S
C2724 C2726 1.327 . S
C2724 H2749 0.950 . S
C2725 C2724 1.349 . S
C2725 C2741 1.349 . S
C2726 C2724 1.327 . S
C2726 C2745 1.429 . S
C2726 H2750 0.950 . S
C2727 C2744 1.574 . S
C2727 C2746 1.368 . S
C2727 H2751 0.949 . S
H2728 C2732 0.949 . S
C2729 C2730 1.349 . S
C2729 C2731 1.327 . S
C2729 H2752 0.950 . S
C2730 C2729 1.349 . S
C2730 C2742 1.349 . S
C2731 C2729 1.327 . S
C2731 C2747 1.429 . S
C2731 H2753 0.950 . S
C2732 H2728 0.949 . S
C2732 C2740 1.574 . S
C2732 C2748 1.368 . S
H2733 C2741 0.950 . S
H2734 C2739 0.950 . S
H2735 C2740 0.949 . S
H2736 C2742 0.950 . S
H2737 C2743 0.950 . S
H2738 C2744 0.949 . S
C2739 H2734 0.950 . S
C2739 C2741 1.327 . S
C2739 C2745 1.429 . S
C2740 C2732 1.574 . S
C2740 H2735 0.949 . S
C2740 C2746 1.368 . S
C2741 C2725 1.349 . S
C2741 H2733 0.950 . S
C2741 C2739 1.327 . S
C2742 C2730 1.349 . S
C2742 H2736 0.950 . S
C2742 C2743 1.327 . S
C2743 H2737 0.950 . S
C2743 C2742 1.327 . S
C2743 C2747 1.429 . S
C2744 C2727 1.574 . S
C2744 H2738 0.949 . S
C2744 C2748 1.368 . S
C2745 C2726 1.429 . S
C2745 C2739 1.429 . S
C2745 C2746 1.523 . S
C2746 C2727 1.368 . S
C2746 C2740 1.368 . S
C2746 C2745 1.523 . S
C2747 C2731 1.429 . S
C2747 C2743 1.429 . S
C2747 C2748 1.523 . S
C2748 C2732 1.368 . S
C2748 C2744 1.368 . S
C2748 C2747 1.523 . S
H2749 C2724 0.950 . S
H2750 C2726 0.950 . S
H2751 C2727 0.949 . S
H2752 C2729 0.950 . S
H2753 C2731 0.950 . S
C2754 C2755 1.349 . S
C2754 C2756 1.327 . S
C2754 H2779 0.950 . S
C2755 C2754 1.349 . S
C2755 C2771 1.349 . S
C2756 C2754 1.327 . S
C2756 C2775 1.429 . S
C2756 H2780 0.950 . S
C2757 C2774 1.574 . S
C2757 C2776 1.368 . S
C2757 H2781 0.949 . S
H2758 C2762 0.949 . S
C2759 C2760 1.349 . S
C2759 C2761 1.327 . S
C2759 H2782 0.950 . S
C2760 C2759 1.349 . S
C2760 C2772 1.349 . S
C2761 C2759 1.327 . S
C2761 C2777 1.429 . S
C2761 H2783 0.950 . S
C2762 H2758 0.949 . S
C2762 C2770 1.574 . S
C2762 C2778 1.368 . S
H2763 C2771 0.950 . S
H2764 C2769 0.950 . S
H2765 C2770 0.949 . S
H2766 C2772 0.950 . S
H2767 C2773 0.950 . S
H2768 C2774 0.949 . S
C2769 H2764 0.950 . S
C2769 C2771 1.327 . S
C2769 C2775 1.429 . S
C2770 C2762 1.574 . S
C2770 H2765 0.949 . S
C2770 C2776 1.368 . S
C2771 C2755 1.349 . S
C2771 H2763 0.950 . S
C2771 C2769 1.327 . S
C2772 C2760 1.349 . S
C2772 H2766 0.950 . S
C2772 C2773 1.327 . S
C2773 H2767 0.950 . S
C2773 C2772 1.327 . S
C2773 C2777 1.429 . S
C2774 C2757 1.574 . S
C2774 H2768 0.949 . S
C2774 C2778 1.368 . S
C2775 C2756 1.429 . S
C2775 C2769 1.429 . S
C2775 C2776 1.523 . S
C2776 C2757 1.368 . S
C2776 C2770 1.368 . S
C2776 C2775 1.523 . S
C2777 C2761 1.429 . S
C2777 C2773 1.429 . S
C2777 C2778 1.523 . S
C2778 C2762 1.368 . S
C2778 C2774 1.368 . S
C2778 C2777 1.523 . S
H2779 C2754 0.950 . S
H2780 C2756 0.950 . S
H2781 C2757 0.949 . S
H2782 C2759 0.950 . S
H2783 C2761 0.950 . S
C2784 C2785 1.349 . S
C2784 C2786 1.327 . S
C2784 H2809 0.950 . S
C2785 C2784 1.349 . S
C2785 C2801 1.349 . S
C2786 C2784 1.327 . S
C2786 C2805 1.429 . S
C2786 H2810 0.950 . S
C2787 C2804 1.574 . S
C2787 C2806 1.368 . S
C2787 H2811 0.949 . S
H2788 C2792 0.949 . S
C2789 C2790 1.349 . S
C2789 C2791 1.327 . S
C2789 H2812 0.950 . S
C2790 C2789 1.349 . S
C2790 C2802 1.349 . S
C2791 C2789 1.327 . S
C2791 C2807 1.429 . S
C2791 H2813 0.950 . S
C2792 H2788 0.949 . S
C2792 C2800 1.574 . S
C2792 C2808 1.368 . S
H2793 C2801 0.950 . S
H2794 C2799 0.950 . S
H2795 C2800 0.949 . S
H2796 C2802 0.950 . S
H2797 C2803 0.950 . S
H2798 C2804 0.949 . S
C2799 H2794 0.950 . S
C2799 C2801 1.327 . S
C2799 C2805 1.429 . S
C2800 C2792 1.574 . S
C2800 H2795 0.949 . S
C2800 C2806 1.368 . S
C2801 C2785 1.349 . S
C2801 H2793 0.950 . S
C2801 C2799 1.327 . S
C2802 C2790 1.349 . S
C2802 H2796 0.950 . S
C2802 C2803 1.327 . S
C2803 H2797 0.950 . S
C2803 C2802 1.327 . S
C2803 C2807 1.429 . S
C2804 C2787 1.574 . S
C2804 H2798 0.949 . S
C2804 C2808 1.368 . S
C2805 C2786 1.429 . S
C2805 C2799 1.429 . S
C2805 C2806 1.523 . S
C2806 C2787 1.368 . S
C2806 C2800 1.368 . S
C2806 C2805 1.523 . S
C2807 C2791 1.429 . S
C2807 C2803 1.429 . S
C2807 C2808 1.523 . S
C2808 C2792 1.368 . S
C2808 C2804 1.368 . S
C2808 C2807 1.523 . S
H2809 C2784 0.950 . S
H2810 C2786 0.950 . S
H2811 C2787 0.949 . S
H2812 C2789 0.950 . S
H2813 C2791 0.950 . S
C2814 C2815 1.349 . S
C2814 C2816 1.327 . S
C2814 H2839 0.950 . S
C2815 C2814 1.349 . S
C2815 C2831 1.349 . S
C2816 C2814 1.327 . S
C2816 C2835 1.429 . S
C2816 H2840 0.950 . S
C2817 C2834 1.574 . S
C2817 C2836 1.368 . S
C2817 H2841 0.949 . S
H2818 C2822 0.949 . S
C2819 C2820 1.349 . S
C2819 C2821 1.327 . S
C2819 H2842 0.950 . S
C2820 C2819 1.349 . S
C2820 C2832 1.349 . S
C2821 C2819 1.327 . S
C2821 C2837 1.429 . S
C2821 H2843 0.950 . S
C2822 H2818 0.949 . S
C2822 C2830 1.574 . S
C2822 C2838 1.368 . S
H2823 C2831 0.950 . S
H2824 C2829 0.950 . S
H2825 C2830 0.949 . S
H2826 C2832 0.950 . S
H2827 C2833 0.950 . S
H2828 C2834 0.949 . S
C2829 H2824 0.950 . S
C2829 C2831 1.327 . S
C2829 C2835 1.429 . S
C2830 C2822 1.574 . S
C2830 H2825 0.949 . S
C2830 C2836 1.368 . S
C2831 C2815 1.349 . S
C2831 H2823 0.950 . S
C2831 C2829 1.327 . S
C2832 C2820 1.349 . S
C2832 H2826 0.950 . S
C2832 C2833 1.327 . S
C2833 H2827 0.950 . S
C2833 C2832 1.327 . S
C2833 C2837 1.429 . S
C2834 C2817 1.574 . S
C2834 H2828 0.949 . S
C2834 C2838 1.368 . S
C2835 C2816 1.429 . S
C2835 C2829 1.429 . S
C2835 C2836 1.523 . S
C2836 C2817 1.368 . S
C2836 C2830 1.368 . S
C2836 C2835 1.523 . S
C2837 C2821 1.429 . S
C2837 C2833 1.429 . S
C2837 C2838 1.523 . S
C2838 C2822 1.368 . S
C2838 C2834 1.368 . S
C2838 C2837 1.523 . S
H2839 C2814 0.950 . S
H2840 C2816 0.950 . S
H2841 C2817 0.949 . S
H2842 C2819 0.950 . S
H2843 C2821 0.950 . S
C2844 C2845 1.349 . S
C2844 C2846 1.327 . S
C2844 H2869 0.950 . S
C2845 C2844 1.349 . S
C2845 C2861 1.349 . S
C2846 C2844 1.327 . S
C2846 C2865 1.429 . S
C2846 H2870 0.950 . S
C2847 C2864 1.574 . S
C2847 C2866 1.368 . S
C2847 H2871 0.949 . S
H2848 C2852 0.949 . S
C2849 C2850 1.349 . S
C2849 C2851 1.327 . S
C2849 H2872 0.950 . S
C2850 C2849 1.349 . S
C2850 C2862 1.349 . S
C2851 C2849 1.327 . S
C2851 C2867 1.429 . S
C2851 H2873 0.950 . S
C2852 H2848 0.949 . S
C2852 C2860 1.574 . S
C2852 C2868 1.368 . S
H2853 C2861 0.950 . S
H2854 C2859 0.950 . S
H2855 C2860 0.949 . S
H2856 C2862 0.950 . S
H2857 C2863 0.950 . S
H2858 C2864 0.949 . S
C2859 H2854 0.950 . S
C2859 C2861 1.327 . S
C2859 C2865 1.429 . S
C2860 C2852 1.574 . S
C2860 H2855 0.949 . S
C2860 C2866 1.368 . S
C2861 C2845 1.349 . S
C2861 H2853 0.950 . S
C2861 C2859 1.327 . S
C2862 C2850 1.349 . S
C2862 H2856 0.950 . S
C2862 C2863 1.327 . S
C2863 H2857 0.950 . S
C2863 C2862 1.327 . S
C2863 C2867 1.429 . S
C2864 C2847 1.574 . S
C2864 H2858 0.949 . S
C2864 C2868 1.368 . S
C2865 C2846 1.429 . S
C2865 C2859 1.429 . S
C2865 C2866 1.523 . S
C2866 C2847 1.368 . S
C2866 C2860 1.368 . S
C2866 C2865 1.523 . S
C2867 C2851 1.429 . S
C2867 C2863 1.429 . S
C2867 C2868 1.523 . S
C2868 C2852 1.368 . S
C2868 C2864 1.368 . S
C2868 C2867 1.523 . S
H2869 C2844 0.950 . S
H2870 C2846 0.950 . S
H2871 C2847 0.949 . S
H2872 C2849 0.950 . S
H2873 C2851 0.950 . S
C2874 C2875 1.349 . S
C2874 C2876 1.327 . S
C2874 H2899 0.950 . S
C2875 C2874 1.349 . S
C2875 C2891 1.349 . S
C2876 C2874 1.327 . S
C2876 C2895 1.429 . S
C2876 H2900 0.950 . S
C2877 C2894 1.574 . S
C2877 C2896 1.368 . S
C2877 H2901 0.949 . S
H2878 C2882 0.949 . S
C2879 C2880 1.349 . S
C2879 C2881 1.327 . S
C2879 H2902 0.950 . S
C2880 C2879 1.349 . S
C2880 C2892 1.349 . S
C2881 C2879 1.327 . S
C2881 C2897 1.429 . S
C2881 H2903 0.950 . S
C2882 H2878 0.949 . S
C2882 C2890 1.574 . S
C2882 C2898 1.368 . S
H2883 C2891 0.950 . S
H2884 C2889 0.950 . S
H2885 C2890 0.949 . S
H2886 C2892 0.950 . S
H2887 C2893 0.950 . S
H2888 C2894 0.949 . S
C2889 H2884 0.950 . S
C2889 C2891 1.327 . S
C2889 C2895 1.429 . S
C2890 C2882 1.574 . S
C2890 H2885 0.949 . S
C2890 C2896 1.368 . S
C2891 C2875 1.349 . S
C2891 H2883 0.950 . S
C2891 C2889 1.327 . S
C2892 C2880 1.349 . S
C2892 H2886 0.950 . S
C2892 C2893 1.327 . S
C2893 H2887 0.950 . S
C2893 C2892 1.327 . S
C2893 C2897 1.429 . S
C2894 C2877 1.574 . S
C2894 H2888 0.949 . S
C2894 C2898 1.368 . S
C2895 C2876 1.429 . S
C2895 C2889 1.429 . S
C2895 C2896 1.523 . S
C2896 C2877 1.368 . S
C2896 C2890 1.368 . S
C2896 C2895 1.523 . S
C2897 C2881 1.429 . S
C2897 C2893 1.429 . S
C2897 C2898 1.523 . S
C2898 C2882 1.368 . S
C2898 C2894 1.368 . S
C2898 C2897 1.523 . S
H2899 C2874 0.950 . S
H2900 C2876 0.950 . S
H2901 C2877 0.949 . S
H2902 C2879 0.950 . S
H2903 C2881 0.950 . S
C2904 C2905 1.349 . S
C2904 C2906 1.327 . S
C2904 H2929 0.950 . S
C2905 C2904 1.349 . S
C2905 C2921 1.349 . S
C2906 C2904 1.327 . S
C2906 C2925 1.429 . S
C2906 H2930 0.950 . S
C2907 C2924 1.574 . S
C2907 C2926 1.368 . S
C2907 H2931 0.949 . S
H2908 C2912 0.949 . S
C2909 C2910 1.349 . S
C2909 C2911 1.327 . S
C2909 H2932 0.950 . S
C2910 C2909 1.349 . S
C2910 C2922 1.349 . S
C2911 C2909 1.327 . S
C2911 C2927 1.429 . S
C2911 H2933 0.950 . S
C2912 H2908 0.949 . S
C2912 C2920 1.574 . S
C2912 C2928 1.368 . S
H2913 C2921 0.950 . S
H2914 C2919 0.950 . S
H2915 C2920 0.949 . S
H2916 C2922 0.950 . S
H2917 C2923 0.950 . S
H2918 C2924 0.949 . S
C2919 H2914 0.950 . S
C2919 C2921 1.327 . S
C2919 C2925 1.429 . S
C2920 C2912 1.574 . S
C2920 H2915 0.949 . S
C2920 C2926 1.368 . S
C2921 C2905 1.349 . S
C2921 H2913 0.950 . S
C2921 C2919 1.327 . S
C2922 C2910 1.349 . S
C2922 H2916 0.950 . S
C2922 C2923 1.327 . S
C2923 H2917 0.950 . S
C2923 C2922 1.327 . S
C2923 C2927 1.429 . S
C2924 C2907 1.574 . S
C2924 H2918 0.949 . S
C2924 C2928 1.368 . S
C2925 C2906 1.429 . S
C2925 C2919 1.429 . S
C2925 C2926 1.523 . S
C2926 C2907 1.368 . S
C2926 C2920 1.368 . S
C2926 C2925 1.523 . S
C2927 C2911 1.429 . S
C2927 C2923 1.429 . S
C2927 C2928 1.523 . S
C2928 C2912 1.368 . S
C2928 C2924 1.368 . S
C2928 C2927 1.523 . S
H2929 C2904 0.950 . S
H2930 C2906 0.950 . S
H2931 C2907 0.949 . S
H2932 C2909 0.950 . S
H2933 C2911 0.950 . S
C2934 C2935 1.349 . S
C2934 C2936 1.327 . S
C2934 H2959 0.950 . S
C2935 C2934 1.349 . S
C2935 C2951 1.349 . S
C2936 C2934 1.327 . S
C2936 C2955 1.429 . S
C2936 H2960 0.950 . S
C2937 C2954 1.574 . S
C2937 C2956 1.368 . S
C2937 H2961 0.949 . S
H2938 C2942 0.949 . S
C2939 C2940 1.349 . S
C2939 C2941 1.327 . S
C2939 H2962 0.950 . S
C2940 C2939 1.349 . S
C2940 C2952 1.349 . S
C2941 C2939 1.327 . S
C2941 C2957 1.429 . S
C2941 H2963 0.950 . S
C2942 H2938 0.949 . S
C2942 C2950 1.574 . S
C2942 C2958 1.368 . S
H2943 C2951 0.950 . S
H2944 C2949 0.950 . S
H2945 C2950 0.949 . S
H2946 C2952 0.950 . S
H2947 C2953 0.950 . S
H2948 C2954 0.949 . S
C2949 H2944 0.950 . S
C2949 C2951 1.327 . S
C2949 C2955 1.429 . S
C2950 C2942 1.574 . S
C2950 H2945 0.949 . S
C2950 C2956 1.368 . S
C2951 C2935 1.349 . S
C2951 H2943 0.950 . S
C2951 C2949 1.327 . S
C2952 C2940 1.349 . S
C2952 H2946 0.950 . S
C2952 C2953 1.327 . S
C2953 H2947 0.950 . S
C2953 C2952 1.327 . S
C2953 C2957 1.429 . S
C2954 C2937 1.574 . S
C2954 H2948 0.949 . S
C2954 C2958 1.368 . S
C2955 C2936 1.429 . S
C2955 C2949 1.429 . S
C2955 C2956 1.523 . S
C2956 C2937 1.368 . S
C2956 C2950 1.368 . S
C2956 C2955 1.523 . S
C2957 C2941 1.429 . S
C2957 C2953 1.429 . S
C2957 C2958 1.523 . S
C2958 C2942 1.368 . S
C2958 C2954 1.368 . S
C2958 C2957 1.523 . S
H2959 C2934 0.950 . S
H2960 C2936 0.950 . S
H2961 C2937 0.949 . S
H2962 C2939 0.950 . S
H2963 C2941 0.950 . S
C2964 C2965 1.349 . S
C2964 C2966 1.327 . S
C2964 H2989 0.950 . S
C2965 C2964 1.349 . S
C2965 C2981 1.349 . S
C2966 C2964 1.327 . S
C2966 C2985 1.429 . S
C2966 H2990 0.950 . S
C2967 C2984 1.574 . S
C2967 C2986 1.368 . S
C2967 H2991 0.949 . S
H2968 C2972 0.949 . S
C2969 C2970 1.349 . S
C2969 C2971 1.327 . S
C2969 H2992 0.950 . S
C2970 C2969 1.349 . S
C2970 C2982 1.349 . S
C2971 C2969 1.327 . S
C2971 C2987 1.429 . S
C2971 H2993 0.950 . S
C2972 H2968 0.949 . S
C2972 C2980 1.574 . S
C2972 C2988 1.368 . S
H2973 C2981 0.950 . S
H2974 C2979 0.950 . S
H2975 C2980 0.949 . S
H2976 C2982 0.950 . S
H2977 C2983 0.950 . S
H2978 C2984 0.949 . S
C2979 H2974 0.950 . S
C2979 C2981 1.327 . S
C2979 C2985 1.429 . S
C2980 C2972 1.574 . S
C2980 H2975 0.949 . S
C2980 C2986 1.368 . S
C2981 C2965 1.349 . S
C2981 H2973 0.950 . S
C2981 C2979 1.327 . S
C2982 C2970 1.349 . S
C2982 H2976 0.950 . S
C2982 C2983 1.327 . S
C2983 H2977 0.950 . S
C2983 C2982 1.327 . S
C2983 C2987 1.429 . S
C2984 C2967 1.574 . S
C2984 H2978 0.949 . S
C2984 C2988 1.368 . S
C2985 C2966 1.429 . S
C2985 C2979 1.429 . S
C2985 C2986 1.523 . S
C2986 C2967 1.368 . S
C2986 C2980 1.368 . S
C2986 C2985 1.523 . S
C2987 C2971 1.429 . S
C2987 C2983 1.429 . S
C2987 C2988 1.523 . S
C2988 C2972 1.368 . S
C2988 C2984 1.368 . S
C2988 C2987 1.523 . S
H2989 C2964 0.950 . S
H2990 C2966 0.950 . S
H2991 C2967 0.949 . S
H2992 C2969 0.950 . S
H2993 C2971 0.950 . S
C2994 C2995 1.349 . S
C2994 C2996 1.327 . S
C2994 H3019 0.950 . S
C2995 C2994 1.349 . S
C2995 C3011 1.349 . S
C2996 C2994 1.327 . S
C2996 C3015 1.429 . S
C2996 H3020 0.950 . S
C2997 C3014 1.574 . S
C2997 C3016 1.368 . S
C2997 H3021 0.949 . S
H2998 C3002 0.949 . S
C2999 C3000 1.349 . S
C2999 C3001 1.327 . S
C2999 H3022 0.950 . S
C3000 C2999 1.349 . S
C3000 C3012 1.349 . S
C3001 C2999 1.327 . S
C3001 C3017 1.429 . S
C3001 H3023 0.950 . S
C3002 H2998 0.949 . S
C3002 C3010 1.574 . S
C3002 C3018 1.368 . S
H3003 C3011 0.950 . S
H3004 C3009 0.950 . S
H3005 C3010 0.949 . S
H3006 C3012 0.950 . S
H3007 C3013 0.950 . S
H3008 C3014 0.949 . S
C3009 H3004 0.950 . S
C3009 C3011 1.327 . S
C3009 C3015 1.429 . S
C3010 C3002 1.574 . S
C3010 H3005 0.949 . S
C3010 C3016 1.368 . S
C3011 C2995 1.349 . S
C3011 H3003 0.950 . S
C3011 C3009 1.327 . S
C3012 C3000 1.349 . S
C3012 H3006 0.950 . S
C3012 C3013 1.327 . S
C3013 H3007 0.950 . S
C3013 C3012 1.327 . S
C3013 C3017 1.429 . S
C3014 C2997 1.574 . S
C3014 H3008 0.949 . S
C3014 C3018 1.368 . S
C3015 C2996 1.429 . S
C3015 C3009 1.429 . S
C3015 C3016 1.523 . S
C3016 C2997 1.368 . S
C3016 C3010 1.368 . S
C3016 C3015 1.523 . S
C3017 C3001 1.429 . S
C3017 C3013 1.429 . S
C3017 C3018 1.523 . S
C3018 C3002 1.368 . S
C3018 C3014 1.368 . S
C3018 C3017 1.523 . S
H3019 C2994 0.950 . S
H3020 C2996 0.950 . S
H3021 C2997 0.949 . S
H3022 C2999 0.950 . S
H3023 C3001 0.950 . S
C3024 C3025 1.349 . S
C3024 C3026 1.327 . S
C3024 H3049 0.950 . S
C3025 C3024 1.349 . S
C3025 C3041 1.349 . S
C3026 C3024 1.327 . S
C3026 C3045 1.429 . S
C3026 H3050 0.950 . S
C3027 C3044 1.574 . S
C3027 C3046 1.368 . S
C3027 H3051 0.949 . S
H3028 C3032 0.949 . S
C3029 C3030 1.349 . S
C3029 C3031 1.327 . S
C3029 H3052 0.950 . S
C3030 C3029 1.349 . S
C3030 C3042 1.349 . S
C3031 C3029 1.327 . S
C3031 C3047 1.429 . S
C3031 H3053 0.950 . S
C3032 H3028 0.949 . S
C3032 C3040 1.574 . S
C3032 C3048 1.368 . S
H3033 C3041 0.950 . S
H3034 C3039 0.950 . S
H3035 C3040 0.949 . S
H3036 C3042 0.950 . S
H3037 C3043 0.950 . S
H3038 C3044 0.949 . S
C3039 H3034 0.950 . S
C3039 C3041 1.327 . S
C3039 C3045 1.429 . S
C3040 C3032 1.574 . S
C3040 H3035 0.949 . S
C3040 C3046 1.368 . S
C3041 C3025 1.349 . S
C3041 H3033 0.950 . S
C3041 C3039 1.327 . S
C3042 C3030 1.349 . S
C3042 H3036 0.950 . S
C3042 C3043 1.327 . S
C3043 H3037 0.950 . S
C3043 C3042 1.327 . S
C3043 C3047 1.429 . S
C3044 C3027 1.574 . S
C3044 H3038 0.949 . S
C3044 C3048 1.368 . S
C3045 C3026 1.429 . S
C3045 C3039 1.429 . S
C3045 C3046 1.523 . S
C3046 C3027 1.368 . S
C3046 C3040 1.368 . S
C3046 C3045 1.523 . S
C3047 C3031 1.429 . S
C3047 C3043 1.429 . S
C3047 C3048 1.523 . S
C3048 C3032 1.368 . S
C3048 C3044 1.368 . S
C3048 C3047 1.523 . S
H3049 C3024 0.950 . S
H3050 C3026 0.950 . S
H3051 C3027 0.949 . S
H3052 C3029 0.950 . S
H3053 C3031 0.950 . S
C3054 C3055 1.349 . S
C3054 C3056 1.327 . S
C3054 H3079 0.950 . S
C3055 C3054 1.349 . S
C3055 C3071 1.349 . S
C3056 C3054 1.327 . S
C3056 C3075 1.429 . S
C3056 H3080 0.950 . S
C3057 C3074 1.574 . S
C3057 C3076 1.368 . S
C3057 H3081 0.949 . S
H3058 C3062 0.949 . S
C3059 C3060 1.349 . S
C3059 C3061 1.327 . S
C3059 H3082 0.950 . S
C3060 C3059 1.349 . S
C3060 C3072 1.349 . S
C3061 C3059 1.327 . S
C3061 C3077 1.429 . S
C3061 H3083 0.950 . S
C3062 H3058 0.949 . S
C3062 C3070 1.574 . S
C3062 C3078 1.368 . S
H3063 C3071 0.950 . S
H3064 C3069 0.950 . S
H3065 C3070 0.949 . S
H3066 C3072 0.950 . S
H3067 C3073 0.950 . S
H3068 C3074 0.949 . S
C3069 H3064 0.950 . S
C3069 C3071 1.327 . S
C3069 C3075 1.429 . S
C3070 C3062 1.574 . S
C3070 H3065 0.949 . S
C3070 C3076 1.368 . S
C3071 C3055 1.349 . S
C3071 H3063 0.950 . S
C3071 C3069 1.327 . S
C3072 C3060 1.349 . S
C3072 H3066 0.950 . S
C3072 C3073 1.327 . S
C3073 H3067 0.950 . S
C3073 C3072 1.327 . S
C3073 C3077 1.429 . S
C3074 C3057 1.574 . S
C3074 H3068 0.949 . S
C3074 C3078 1.368 . S
C3075 C3056 1.429 . S
C3075 C3069 1.429 . S
C3075 C3076 1.523 . S
C3076 C3057 1.368 . S
C3076 C3070 1.368 . S
C3076 C3075 1.523 . S
C3077 C3061 1.429 . S
C3077 C3073 1.429 . S
C3077 C3078 1.523 . S
C3078 C3062 1.368 . S
C3078 C3074 1.368 . S
C3078 C3077 1.523 . S
H3079 C3054 0.950 . S
H3080 C3056 0.950 . S
H3081 C3057 0.949 . S
H3082 C3059 0.950 . S
H3083 C3061 0.950 . S
C3084 C3085 1.349 . S
C3084 C3086 1.327 . S
C3084 H3109 0.950 . S
C3085 C3084 1.349 . S
C3085 C3101 1.349 . S
C3086 C3084 1.327 . S
C3086 C3105 1.429 . S
C3086 H3110 0.950 . S
C3087 C3104 1.574 . S
C3087 C3106 1.368 . S
C3087 H3111 0.949 . S
H3088 C3092 0.949 . S
C3089 C3090 1.349 . S
C3089 C3091 1.327 . S
C3089 H3112 0.950 . S
C3090 C3089 1.349 . S
C3090 C3102 1.349 . S
C3091 C3089 1.327 . S
C3091 C3107 1.429 . S
C3091 H3113 0.950 . S
C3092 H3088 0.949 . S
C3092 C3100 1.574 . S
C3092 C3108 1.368 . S
H3093 C3101 0.950 . S
H3094 C3099 0.950 . S
H3095 C3100 0.949 . S
H3096 C3102 0.950 . S
H3097 C3103 0.950 . S
H3098 C3104 0.949 . S
C3099 H3094 0.950 . S
C3099 C3101 1.327 . S
C3099 C3105 1.429 . S
C3100 C3092 1.574 . S
C3100 H3095 0.949 . S
C3100 C3106 1.368 . S
C3101 C3085 1.349 . S
C3101 H3093 0.950 . S
C3101 C3099 1.327 . S
C3102 C3090 1.349 . S
C3102 H3096 0.950 . S
C3102 C3103 1.327 . S
C3103 H3097 0.950 . S
C3103 C3102 1.327 . S
C3103 C3107 1.429 . S
C3104 C3087 1.574 . S
C3104 H3098 0.949 . S
C3104 C3108 1.368 . S
C3105 C3086 1.429 . S
C3105 C3099 1.429 . S
C3105 C3106 1.523 . S
C3106 C3087 1.368 . S
C3106 C3100 1.368 . S
C3106 C3105 1.523 . S
C3107 C3091 1.429 . S
C3107 C3103 1.429 . S
C3107 C3108 1.523 . S
C3108 C3092 1.368 . S
C3108 C3104 1.368 . S
C3108 C3107 1.523 . S
H3109 C3084 0.950 . S
H3110 C3086 0.950 . S
H3111 C3087 0.949 . S
H3112 C3089 0.950 . S
H3113 C3091 0.950 . S
C3114 C3115 1.349 . S
C3114 C3116 1.327 . S
C3114 H3139 0.950 . S
C3115 C3114 1.349 . S
C3115 C3131 1.349 . S
C3116 C3114 1.327 . S
C3116 C3135 1.429 . S
C3116 H3140 0.950 . S
C3117 C3134 1.574 . S
C3117 C3136 1.368 . S
C3117 H3141 0.949 . S
H3118 C3122 0.949 . S
C3119 C3120 1.349 . S
C3119 C3121 1.327 . S
C3119 H3142 0.950 . S
C3120 C3119 1.349 . S
C3120 C3132 1.349 . S
C3121 C3119 1.327 . S
C3121 C3137 1.429 . S
C3121 H3143 0.950 . S
C3122 H3118 0.949 . S
C3122 C3130 1.574 . S
C3122 C3138 1.368 . S
H3123 C3131 0.950 . S
H3124 C3129 0.950 . S
H3125 C3130 0.949 . S
H3126 C3132 0.950 . S
H3127 C3133 0.950 . S
H3128 C3134 0.949 . S
C3129 H3124 0.950 . S
C3129 C3131 1.327 . S
C3129 C3135 1.429 . S
C3130 C3122 1.574 . S
C3130 H3125 0.949 . S
C3130 C3136 1.368 . S
C3131 C3115 1.349 . S
C3131 H3123 0.950 . S
C3131 C3129 1.327 . S
C3132 C3120 1.349 . S
C3132 H3126 0.950 . S
C3132 C3133 1.327 . S
C3133 H3127 0.950 . S
C3133 C3132 1.327 . S
C3133 C3137 1.429 . S
C3134 C3117 1.574 . S
C3134 H3128 0.949 . S
C3134 C3138 1.368 . S
C3135 C3116 1.429 . S
C3135 C3129 1.429 . S
C3135 C3136 1.523 . S
C3136 C3117 1.368 . S
C3136 C3130 1.368 . S
C3136 C3135 1.523 . S
C3137 C3121 1.429 . S
C3137 C3133 1.429 . S
C3137 C3138 1.523 . S
C3138 C3122 1.368 . S
C3138 C3134 1.368 . S
C3138 C3137 1.523 . S
H3139 C3114 0.950 . S
H3140 C3116 0.950 . S
H3141 C3117 0.949 . S
H3142 C3119 0.950 . S
H3143 C3121 0.950 . S
C3144 C3145 1.349 . S
C3144 C3146 1.327 . S
C3144 H3169 0.950 . S
C3145 C3144 1.349 . S
C3145 C3161 1.349 . S
C3146 C3144 1.327 . S
C3146 C3165 1.429 . S
C3146 H3170 0.950 . S
C3147 C3164 1.574 . S
C3147 C3166 1.368 . S
C3147 H3171 0.949 . S
H3148 C3152 0.949 . S
C3149 C3150 1.349 . S
C3149 C3151 1.327 . S
C3149 H3172 0.950 . S
C3150 C3149 1.349 . S
C3150 C3162 1.349 . S
C3151 C3149 1.327 . S
C3151 C3167 1.429 . S
C3151 H3173 0.950 . S
C3152 H3148 0.949 . S
C3152 C3160 1.574 . S
C3152 C3168 1.368 . S
H3153 C3161 0.950 . S
H3154 C3159 0.950 . S
H3155 C3160 0.949 . S
H3156 C3162 0.950 . S
H3157 C3163 0.950 . S
H3158 C3164 0.949 . S
C3159 H3154 0.950 . S
C3159 C3161 1.327 . S
C3159 C3165 1.429 . S
C3160 C3152 1.574 . S
C3160 H3155 0.949 . S
C3160 C3166 1.368 . S
C3161 C3145 1.349 . S
C3161 H3153 0.950 . S
C3161 C3159 1.327 . S
C3162 C3150 1.349 . S
C3162 H3156 0.950 . S
C3162 C3163 1.327 . S
C3163 H3157 0.950 . S
C3163 C3162 1.327 . S
C3163 C3167 1.429 . S
C3164 C3147 1.574 . S
C3164 H3158 0.949 . S
C3164 C3168 1.368 . S
C3165 C3146 1.429 . S
C3165 C3159 1.429 . S
C3165 C3166 1.523 . S
C3166 C3147 1.368 . S
C3166 C3160 1.368 . S
C3166 C3165 1.523 . S
C3167 C3151 1.429 . S
C3167 C3163 1.429 . S
C3167 C3168 1.523 . S
C3168 C3152 1.368 . S
C3168 C3164 1.368 . S
C3168 C3167 1.523 . S
H3169 C3144 0.950 . S
H3170 C3146 0.950 . S
H3171 C3147 0.949 . S
H3172 C3149 0.950 . S
H3173 C3151 0.950 . S
C3174 C3175 1.349 . S
C3174 C3176 1.327 . S
C3174 H3199 0.950 . S
C3175 C3174 1.349 . S
C3175 C3191 1.349 . S
C3176 C3174 1.327 . S
C3176 C3195 1.429 . S
C3176 H3200 0.950 . S
C3177 C3194 1.574 . S
C3177 C3196 1.368 . S
C3177 H3201 0.949 . S
H3178 C3182 0.949 . S
C3179 C3180 1.349 . S
C3179 C3181 1.327 . S
C3179 H3202 0.950 . S
C3180 C3179 1.349 . S
C3180 C3192 1.349 . S
C3181 C3179 1.327 . S
C3181 C3197 1.429 . S
C3181 H3203 0.950 . S
C3182 H3178 0.949 . S
C3182 C3190 1.574 . S
C3182 C3198 1.368 . S
H3183 C3191 0.950 . S
H3184 C3189 0.950 . S
H3185 C3190 0.949 . S
H3186 C3192 0.950 . S
H3187 C3193 0.950 . S
H3188 C3194 0.949 . S
C3189 H3184 0.950 . S
C3189 C3191 1.327 . S
C3189 C3195 1.429 . S
C3190 C3182 1.574 . S
C3190 H3185 0.949 . S
C3190 C3196 1.368 . S
C3191 C3175 1.349 . S
C3191 H3183 0.950 . S
C3191 C3189 1.327 . S
C3192 C3180 1.349 . S
C3192 H3186 0.950 . S
C3192 C3193 1.327 . S
C3193 H3187 0.950 . S
C3193 C3192 1.327 . S
C3193 C3197 1.429 . S
C3194 C3177 1.574 . S
C3194 H3188 0.949 . S
C3194 C3198 1.368 . S
C3195 C3176 1.429 . S
C3195 C3189 1.429 . S
C3195 C3196 1.523 . S
C3196 C3177 1.368 . S
C3196 C3190 1.368 . S
C3196 C3195 1.523 . S
C3197 C3181 1.429 . S
C3197 C3193 1.429 . S
C3197 C3198 1.523 . S
C3198 C3182 1.368 . S
C3198 C3194 1.368 . S
C3198 C3197 1.523 . S
H3199 C3174 0.950 . S
H3200 C3176 0.950 . S
H3201 C3177 0.949 . S
H3202 C3179 0.950 . S
H3203 C3181 0.950 . S
C3204 C3205 1.349 . S
C3204 C3206 1.327 . S
C3204 H3229 0.950 . S
C3205 C3204 1.349 . S
C3205 C3221 1.349 . S
C3206 C3204 1.327 . S
C3206 C3225 1.429 . S
C3206 H3230 0.950 . S
C3207 C3224 1.574 . S
C3207 C3226 1.368 . S
C3207 H3231 0.949 . S
H3208 C3212 0.949 . S
C3209 C3210 1.349 . S
C3209 C3211 1.327 . S
C3209 H3232 0.950 . S
C3210 C3209 1.349 . S
C3210 C3222 1.349 . S
C3211 C3209 1.327 . S
C3211 C3227 1.429 . S
C3211 H3233 0.950 . S
C3212 H3208 0.949 . S
C3212 C3220 1.574 . S
C3212 C3228 1.368 . S
H3213 C3221 0.950 . S
H3214 C3219 0.950 . S
H3215 C3220 0.949 . S
H3216 C3222 0.950 . S
H3217 C3223 0.950 . S
H3218 C3224 0.949 . S
C3219 H3214 0.950 . S
C3219 C3221 1.327 . S
C3219 C3225 1.429 . S
C3220 C3212 1.574 . S
C3220 H3215 0.949 . S
C3220 C3226 1.368 . S
C3221 C3205 1.349 . S
C3221 H3213 0.950 . S
C3221 C3219 1.327 . S
C3222 C3210 1.349 . S
C3222 H3216 0.950 . S
C3222 C3223 1.327 . S
C3223 H3217 0.950 . S
C3223 C3222 1.327 . S
C3223 C3227 1.429 . S
C3224 C3207 1.574 . S
C3224 H3218 0.949 . S
C3224 C3228 1.368 . S
C3225 C3206 1.429 . S
C3225 C3219 1.429 . S
C3225 C3226 1.523 . S
C3226 C3207 1.368 . S
C3226 C3220 1.368 . S
C3226 C3225 1.523 . S
C3227 C3211 1.429 . S
C3227 C3223 1.429 . S
C3227 C3228 1.523 . S
C3228 C3212 1.368 . S
C3228 C3224 1.368 . S
C3228 C3227 1.523 . S
H3229 C3204 0.950 . S
H3230 C3206 0.950 . S
H3231 C3207 0.949 . S
H3232 C3209 0.950 . S
H3233 C3211 0.950 . S
C3234 C3235 1.349 . S
C3234 C3236 1.327 . S
C3234 H3259 0.950 . S
C3235 C3234 1.349 . S
C3235 C3251 1.349 . S
C3236 C3234 1.327 . S
C3236 C3255 1.429 . S
C3236 H3260 0.950 . S
C3237 C3254 1.574 . S
C3237 C3256 1.368 . S
C3237 H3261 0.949 . S
H3238 C3242 0.949 . S
C3239 C3240 1.349 . S
C3239 C3241 1.327 . S
C3239 H3262 0.950 . S
C3240 C3239 1.349 . S
C3240 C3252 1.349 . S
C3241 C3239 1.327 . S
C3241 C3257 1.429 . S
C3241 H3263 0.950 . S
C3242 H3238 0.949 . S
C3242 C3250 1.574 . S
C3242 C3258 1.368 . S
H3243 C3251 0.950 . S
H3244 C3249 0.950 . S
H3245 C3250 0.949 . S
H3246 C3252 0.950 . S
H3247 C3253 0.950 . S
H3248 C3254 0.949 . S
C3249 H3244 0.950 . S
C3249 C3251 1.327 . S
C3249 C3255 1.429 . S
C3250 C3242 1.574 . S
C3250 H3245 0.949 . S
C3250 C3256 1.368 . S
C3251 C3235 1.349 . S
C3251 H3243 0.950 . S
C3251 C3249 1.327 . S
C3252 C3240 1.349 . S
C3252 H3246 0.950 . S
C3252 C3253 1.327 . S
C3253 H3247 0.950 . S
C3253 C3252 1.327 . S
C3253 C3257 1.429 . S
C3254 C3237 1.574 . S
C3254 H3248 0.949 . S
C3254 C3258 1.368 . S
C3255 C3236 1.429 . S
C3255 C3249 1.429 . S
C3255 C3256 1.523 . S
C3256 C3237 1.368 . S
C3256 C3250 1.368 . S
C3256 C3255 1.523 . S
C3257 C3241 1.429 . S
C3257 C3253 1.429 . S
C3257 C3258 1.523 . S
C3258 C3242 1.368 . S
C3258 C3254 1.368 . S
C3258 C3257 1.523 . S
H3259 C3234 0.950 . S
H3260 C3236 0.950 . S
H3261 C3237 0.949 . S
H3262 C3239 0.950 . S
H3263 C3241 0.950 . S
C3264 C3265 1.349 . S
C3264 C3266 1.327 . S
C3264 H3289 0.950 . S
C3265 C3264 1.349 . S
C3265 C3281 1.349 . S
C3266 C3264 1.327 . S
C3266 C3285 1.429 . S
C3266 H3290 0.950 . S
C3267 C3284 1.574 . S
C3267 C3286 1.368 . S
C3267 H3291 0.949 . S
H3268 C3272 0.949 . S
C3269 C3270 1.349 . S
C3269 C3271 1.327 . S
C3269 H3292 0.950 . S
C3270 C3269 1.349 . S
C3270 C3282 1.349 . S
C3271 C3269 1.327 . S
C3271 C3287 1.429 . S
C3271 H3293 0.950 . S
C3272 H3268 0.949 . S
C3272 C3280 1.574 . S
C3272 C3288 1.368 . S
H3273 C3281 0.950 . S
H3274 C3279 0.950 . S
H3275 C3280 0.949 . S
H3276 C3282 0.950 . S
H3277 C3283 0.950 . S
H3278 C3284 0.949 . S
C3279 H3274 0.950 . S
C3279 C3281 1.327 . S
C3279 C3285 1.429 . S
C3280 C3272 1.574 . S
C3280 H3275 0.949 . S
C3280 C3286 1.368 . S
C3281 C3265 1.349 . S
C3281 H3273 0.950 . S
C3281 C3279 1.327 . S
C3282 C3270 1.349 . S
C3282 H3276 0.950 . S
C3282 C3283 1.327 . S
C3283 H3277 0.950 . S
C3283 C3282 1.327 . S
C3283 C3287 1.429 . S
C3284 C3267 1.574 . S
C3284 H3278 0.949 . S
C3284 C3288 1.368 . S
C3285 C3266 1.429 . S
C3285 C3279 1.429 . S
C3285 C3286 1.523 . S
C3286 C3267 1.368 . S
C3286 C3280 1.368 . S
C3286 C3285 1.523 . S
C3287 C3271 1.429 . S
C3287 C3283 1.429 . S
C3287 C3288 1.523 . S
C3288 C3272 1.368 . S
C3288 C3284 1.368 . S
C3288 C3287 1.523 . S
H3289 C3264 0.950 . S
H3290 C3266 0.950 . S
H3291 C3267 0.949 . S
H3292 C3269 0.950 . S
H3293 C3271 0.950 . S
C3294 C3295 1.349 . S
C3294 C3296 1.327 . S
C3294 H3319 0.950 . S
C3295 C3294 1.349 . S
C3295 C3311 1.349 . S
C3296 C3294 1.327 . S
C3296 C3315 1.429 . S
C3296 H3320 0.950 . S
C3297 C3314 1.574 . S
C3297 C3316 1.368 . S
C3297 H3321 0.949 . S
H3298 C3302 0.949 . S
C3299 C3300 1.349 . S
C3299 C3301 1.327 . S
C3299 H3322 0.950 . S
C3300 C3299 1.349 . S
C3300 C3312 1.349 . S
C3301 C3299 1.327 . S
C3301 C3317 1.429 . S
C3301 H3323 0.950 . S
C3302 H3298 0.949 . S
C3302 C3310 1.574 . S
C3302 C3318 1.368 . S
H3303 C3311 0.950 . S
H3304 C3309 0.950 . S
H3305 C3310 0.949 . S
H3306 C3312 0.950 . S
H3307 C3313 0.950 . S
H3308 C3314 0.949 . S
C3309 H3304 0.950 . S
C3309 C3311 1.327 . S
C3309 C3315 1.429 . S
C3310 C3302 1.574 . S
C3310 H3305 0.949 . S
C3310 C3316 1.368 . S
C3311 C3295 1.349 . S
C3311 H3303 0.950 . S
C3311 C3309 1.327 . S
C3312 C3300 1.349 . S
C3312 H3306 0.950 . S
C3312 C3313 1.327 . S
C3313 H3307 0.950 . S
C3313 C3312 1.327 . S
C3313 C3317 1.429 . S
C3314 C3297 1.574 . S
C3314 H3308 0.949 . S
C3314 C3318 1.368 . S
C3315 C3296 1.429 . S
C3315 C3309 1.429 . S
C3315 C3316 1.523 . S
C3316 C3297 1.368 . S
C3316 C3310 1.368 . S
C3316 C3315 1.523 . S
C3317 C3301 1.429 . S
C3317 C3313 1.429 . S
C3317 C3318 1.523 . S
C3318 C3302 1.368 . S
C3318 C3314 1.368 . S
C3318 C3317 1.523 . S
H3319 C3294 0.950 . S
H3320 C3296 0.950 . S
H3321 C3297 0.949 . S
H3322 C3299 0.950 . S
H3323 C3301 0.950 . S
C3324 C3325 1.349 . S
C3324 C3326 1.327 . S
C3324 H3349 0.950 . S
C3325 C3324 1.349 . S
C3325 C3341 1.349 . S
C3326 C3324 1.327 . S
C3326 C3345 1.429 . S
C3326 H3350 0.950 . S
C3327 C3344 1.574 . S
C3327 C3346 1.368 . S
C3327 H3351 0.949 . S
H3328 C3332 0.949 . S
C3329 C3330 1.349 . S
C3329 C3331 1.327 . S
C3329 H3352 0.950 . S
C3330 C3329 1.349 . S
C3330 C3342 1.349 . S
C3331 C3329 1.327 . S
C3331 C3347 1.429 . S
C3331 H3353 0.950 . S
C3332 H3328 0.949 . S
C3332 C3340 1.574 . S
C3332 C3348 1.368 . S
H3333 C3341 0.950 . S
H3334 C3339 0.950 . S
H3335 C3340 0.949 . S
H3336 C3342 0.950 . S
H3337 C3343 0.950 . S
H3338 C3344 0.949 . S
C3339 H3334 0.950 . S
C3339 C3341 1.327 . S
C3339 C3345 1.429 . S
C3340 C3332 1.574 . S
C3340 H3335 0.949 . S
C3340 C3346 1.368 . S
C3341 C3325 1.349 . S
C3341 H3333 0.950 . S
C3341 C3339 1.327 . S
C3342 C3330 1.349 . S
C3342 H3336 0.950 . S
C3342 C3343 1.327 . S
C3343 H3337 0.950 . S
C3343 C3342 1.327 . S
C3343 C3347 1.429 . S
C3344 C3327 1.574 . S
C3344 H3338 0.949 . S
C3344 C3348 1.368 . S
C3345 C3326 1.429 . S
C3345 C3339 1.429 . S
C3345 C3346 1.523 . S
C3346 C3327 1.368 . S
C3346 C3340 1.368 . S
C3346 C3345 1.523 . S
C3347 C3331 1.429 . S
C3347 C3343 1.429 . S
C3347 C3348 1.523 . S
C3348 C3332 1.368 . S
C3348 C3344 1.368 . S
C3348 C3347 1.523 . S
H3349 C3324 0.950 . S
H3350 C3326 0.950 . S
H3351 C3327 0.949 . S
H3352 C3329 0.950 . S
H3353 C3331 0.950 . S
C3354 C3355 1.349 . S
C3354 C3356 1.327 . S
C3354 H3379 0.950 . S
C3355 C3354 1.349 . S
C3355 C3371 1.349 . S
C3356 C3354 1.327 . S
C3356 C3375 1.429 . S
C3356 H3380 0.950 . S
C3357 C3374 1.574 . S
C3357 C3376 1.368 . S
C3357 H3381 0.949 . S
H3358 C3362 0.949 . S
C3359 C3360 1.349 . S
C3359 C3361 1.327 . S
C3359 H3382 0.950 . S
C3360 C3359 1.349 . S
C3360 C3372 1.349 . S
C3361 C3359 1.327 . S
C3361 C3377 1.429 . S
C3361 H3383 0.950 . S
C3362 H3358 0.949 . S
C3362 C3370 1.574 . S
C3362 C3378 1.368 . S
H3363 C3371 0.950 . S
H3364 C3369 0.950 . S
H3365 C3370 0.949 . S
H3366 C3372 0.950 . S
H3367 C3373 0.950 . S
H3368 C3374 0.949 . S
C3369 H3364 0.950 . S
C3369 C3371 1.327 . S
C3369 C3375 1.429 . S
C3370 C3362 1.574 . S
C3370 H3365 0.949 . S
C3370 C3376 1.368 . S
C3371 C3355 1.349 . S
C3371 H3363 0.950 . S
C3371 C3369 1.327 . S
C3372 C3360 1.349 . S
C3372 H3366 0.950 . S
C3372 C3373 1.327 . S
C3373 H3367 0.950 . S
C3373 C3372 1.327 . S
C3373 C3377 1.429 . S
C3374 C3357 1.574 . S
C3374 H3368 0.949 . S
C3374 C3378 1.368 . S
C3375 C3356 1.429 . S
C3375 C3369 1.429 . S
C3375 C3376 1.523 . S
C3376 C3357 1.368 . S
C3376 C3370 1.368 . S
C3376 C3375 1.523 . S
C3377 C3361 1.429 . S
C3377 C3373 1.429 . S
C3377 C3378 1.523 . S
C3378 C3362 1.368 . S
C3378 C3374 1.368 . S
C3378 C3377 1.523 . S
H3379 C3354 0.950 . S
H3380 C3356 0.950 . S
H3381 C3357 0.949 . S
H3382 C3359 0.950 . S
H3383 C3361 0.950 . S
C3384 C3385 1.349 . S
C3384 C3386 1.327 . S
C3384 H3409 0.950 . S
C3385 C3384 1.349 . S
C3385 C3401 1.349 . S
C3386 C3384 1.327 . S
C3386 C3405 1.429 . S
C3386 H3410 0.950 . S
C3387 C3404 1.574 . S
C3387 C3406 1.368 . S
C3387 H3411 0.949 . S
H3388 C3392 0.949 . S
C3389 C3390 1.349 . S
C3389 C3391 1.327 . S
C3389 H3412 0.950 . S
C3390 C3389 1.349 . S
C3390 C3402 1.349 . S
C3391 C3389 1.327 . S
C3391 C3407 1.429 . S
C3391 H3413 0.950 . S
C3392 H3388 0.949 . S
C3392 C3400 1.574 . S
C3392 C3408 1.368 . S
H3393 C3401 0.950 . S
H3394 C3399 0.950 . S
H3395 C3400 0.949 . S
H3396 C3402 0.950 . S
H3397 C3403 0.950 . S
H3398 C3404 0.949 . S
C3399 H3394 0.950 . S
C3399 C3401 1.327 . S
C3399 C3405 1.429 . S
C3400 C3392 1.574 . S
C3400 H3395 0.949 . S
C3400 C3406 1.368 . S
C3401 C3385 1.349 . S
C3401 H3393 0.950 . S
C3401 C3399 1.327 . S
C3402 C3390 1.349 . S
C3402 H3396 0.950 . S
C3402 C3403 1.327 . S
C3403 H3397 0.950 . S
C3403 C3402 1.327 . S
C3403 C3407 1.429 . S
C3404 C3387 1.574 . S
C3404 H3398 0.949 . S
C3404 C3408 1.368 . S
C3405 C3386 1.429 . S
C3405 C3399 1.429 . S
C3405 C3406 1.523 . S
C3406 C3387 1.368 . S
C3406 C3400 1.368 . S
C3406 C3405 1.523 . S
C3407 C3391 1.429 . S
C3407 C3403 1.429 . S
C3407 C3408 1.523 . S
C3408 C3392 1.368 . S
C3408 C3404 1.368 . S
C3408 C3407 1.523 . S
H3409 C3384 0.950 . S
H3410 C3386 0.950 . S
H3411 C3387 0.949 . S
H3412 C3389 0.950 . S
H3413 C3391 0.950 . S
C3414 C3415 1.349 . S
C3414 C3416 1.327 . S
C3414 H3439 0.950 . S
C3415 C3414 1.349 . S
C3415 C3431 1.349 . S
C3416 C3414 1.327 . S
C3416 C3435 1.429 . S
C3416 H3440 0.950 . S
C3417 C3434 1.574 . S
C3417 C3436 1.368 . S
C3417 H3441 0.949 . S
H3418 C3422 0.949 . S
C3419 C3420 1.349 . S
C3419 C3421 1.327 . S
C3419 H3442 0.950 . S
C3420 C3419 1.349 . S
C3420 C3432 1.349 . S
C3421 C3419 1.327 . S
C3421 C3437 1.429 . S
C3421 H3443 0.950 . S
C3422 H3418 0.949 . S
C3422 C3430 1.574 . S
C3422 C3438 1.368 . S
H3423 C3431 0.950 . S
H3424 C3429 0.950 . S
H3425 C3430 0.949 . S
H3426 C3432 0.950 . S
H3427 C3433 0.950 . S
H3428 C3434 0.949 . S
C3429 H3424 0.950 . S
C3429 C3431 1.327 . S
C3429 C3435 1.429 . S
C3430 C3422 1.574 . S
C3430 H3425 0.949 . S
C3430 C3436 1.368 . S
C3431 C3415 1.349 . S
C3431 H3423 0.950 . S
C3431 C3429 1.327 . S
C3432 C3420 1.349 . S
C3432 H3426 0.950 . S
C3432 C3433 1.327 . S
C3433 H3427 0.950 . S
C3433 C3432 1.327 . S
C3433 C3437 1.429 . S
C3434 C3417 1.574 . S
C3434 H3428 0.949 . S
C3434 C3438 1.368 . S
C3435 C3416 1.429 . S
C3435 C3429 1.429 . S
C3435 C3436 1.523 . S
C3436 C3417 1.368 . S
C3436 C3430 1.368 . S
C3436 C3435 1.523 . S
C3437 C3421 1.429 . S
C3437 C3433 1.429 . S
C3437 C3438 1.523 . S
C3438 C3422 1.368 . S
C3438 C3434 1.368 . S
C3438 C3437 1.523 . S
H3439 C3414 0.950 . S
H3440 C3416 0.950 . S
H3441 C3417 0.949 . S
H3442 C3419 0.950 . S
H3443 C3421 0.950 . S
C3444 C3445 1.349 . S
C3444 C3446 1.327 . S
C3444 H3469 0.950 . S
C3445 C3444 1.349 . S
C3445 C3461 1.349 . S
C3446 C3444 1.327 . S
C3446 C3465 1.429 . S
C3446 H3470 0.950 . S
C3447 C3464 1.574 . S
C3447 C3466 1.368 . S
C3447 H3471 0.949 . S
H3448 C3452 0.949 . S
C3449 C3450 1.349 . S
C3449 C3451 1.327 . S
C3449 H3472 0.950 . S
C3450 C3449 1.349 . S
C3450 C3462 1.349 . S
C3451 C3449 1.327 . S
C3451 C3467 1.429 . S
C3451 H3473 0.950 . S
C3452 H3448 0.949 . S
C3452 C3460 1.574 . S
C3452 C3468 1.368 . S
H3453 C3461 0.950 . S
H3454 C3459 0.950 . S
H3455 C3460 0.949 . S
H3456 C3462 0.950 . S
H3457 C3463 0.950 . S
H3458 C3464 0.949 . S
C3459 H3454 0.950 . S
C3459 C3461 1.327 . S
C3459 C3465 1.429 . S
C3460 C3452 1.574 . S
C3460 H3455 0.949 . S
C3460 C3466 1.368 . S
C3461 C3445 1.349 . S
C3461 H3453 0.950 . S
C3461 C3459 1.327 . S
C3462 C3450 1.349 . S
C3462 H3456 0.950 . S
C3462 C3463 1.327 . S
C3463 H3457 0.950 . S
C3463 C3462 1.327 . S
C3463 C3467 1.429 . S
C3464 C3447 1.574 . S
C3464 H3458 0.949 . S
C3464 C3468 1.368 . S
C3465 C3446 1.429 . S
C3465 C3459 1.429 . S
C3465 C3466 1.523 . S
C3466 C3447 1.368 . S
C3466 C3460 1.368 . S
C3466 C3465 1.523 . S
C3467 C3451 1.429 . S
C3467 C3463 1.429 . S
C3467 C3468 1.523 . S
C3468 C3452 1.368 . S
C3468 C3464 1.368 . S
C3468 C3467 1.523 . S
H3469 C3444 0.950 . S
H3470 C3446 0.950 . S
H3471 C3447 0.949 . S
H3472 C3449 0.950 . S
H3473 C3451 0.950 . S
C3474 C3475 1.349 . S
C3474 C3476 1.327 . S
C3474 H3499 0.950 . S
C3475 C3474 1.349 . S
C3475 C3491 1.349 . S
C3476 C3474 1.327 . S
C3476 C3495 1.429 . S
C3476 H3500 0.950 . S
C3477 C3494 1.574 . S
C3477 C3496 1.368 . S
C3477 H3501 0.949 . S
H3478 C3482 0.949 . S
C3479 C3480 1.349 . S
C3479 C3481 1.327 . S
C3479 H3502 0.950 . S
C3480 C3479 1.349 . S
C3480 C3492 1.349 . S
C3481 C3479 1.327 . S
C3481 C3497 1.429 . S
C3481 H3503 0.950 . S
C3482 H3478 0.949 . S
C3482 C3490 1.574 . S
C3482 C3498 1.368 . S
H3483 C3491 0.950 . S
H3484 C3489 0.950 . S
H3485 C3490 0.949 . S
H3486 C3492 0.950 . S
H3487 C3493 0.950 . S
H3488 C3494 0.949 . S
C3489 H3484 0.950 . S
C3489 C3491 1.327 . S
C3489 C3495 1.429 . S
C3490 C3482 1.574 . S
C3490 H3485 0.949 . S
C3490 C3496 1.368 . S
C3491 C3475 1.349 . S
C3491 H3483 0.950 . S
C3491 C3489 1.327 . S
C3492 C3480 1.349 . S
C3492 H3486 0.950 . S
C3492 C3493 1.327 . S
C3493 H3487 0.950 . S
C3493 C3492 1.327 . S
C3493 C3497 1.429 . S
C3494 C3477 1.574 . S
C3494 H3488 0.949 . S
C3494 C3498 1.368 . S
C3495 C3476 1.429 . S
C3495 C3489 1.429 . S
C3495 C3496 1.523 . S
C3496 C3477 1.368 . S
C3496 C3490 1.368 . S
C3496 C3495 1.523 . S
C3497 C3481 1.429 . S
C3497 C3493 1.429 . S
C3497 C3498 1.523 . S
C3498 C3482 1.368 . S
C3498 C3494 1.368 . S
C3498 C3497 1.523 . S
H3499 C3474 0.950 . S
H3500 C3476 0.950 . S
H3501 C3477 0.949 . S
H3502 C3479 0.950 . S
H3503 C3481 0.950 . S
C625 C403 1.198 . S
C630 C10 1.245 . S
C655 C13 1.198 . S
C660 C374 1.246 . S
C685 C36 1.245 . S
C690 C377 1.198 . S
C715 C400 1.246 . S
C720 C39 1.198 . S
C745 C325 1.198 . S
C750 C62 1.246 . S
C775 C65 1.198 . S
C780 C348 1.245 . S
C805 C351 1.198 . S
C810 C88 1.246 . S
C835 C91 1.198 . S
C840 C322 1.245 . S
C865 C104 0.868 . S
C870 C572 0.868 . S
C895 C533 1.198 . S
C900 C127 1.246 . S
C925 C546 0.868 . S
C930 C130 0.868 . S
C955 C153 1.246 . S
C960 C559 1.198 . S
C985 C156 0.868 . S
C990 C611 0.868 . S
C1015 C179 1.245 . S
C1020 C585 1.198 . S
C1045 C182 0.868 . S
C1050 C598 0.868 . S
C1075 C520 1.198 . S
C1080 C205 1.245 . S
C1105 C517 1.245 . S
C1110 C208 1.198 . S
C1135 C221 1.198 . S
C1140 C439 1.246 . S
C1165 C442 0.868 . S
C1170 C234 0.868 . S
C1195 C247 1.198 . S
C1200 C465 1.246 . S
C1225 C416 0.868 . S
C1230 C260 0.868 . S
C1255 C491 1.245 . S
C1260 C273 1.198 . S
C1285 C286 0.868 . S
C1290 C494 0.868 . S
C1315 C468 0.868 . S
C1320 C299 0.868 . S
C1345 C122 1.023 . S
C1350 C5 1.023 . S
C1375 C138 1.240 . S
C1380 C21 1.242 . S
C1405 C31 1.023 . S
C1410 C148 1.023 . S
C1435 C112 1.240 . S
C1440 C47 1.242 . S
C1465 C57 1.024 . S
C1470 C200 1.024 . S
C1495 C164 1.240 . S
C1500 C73 1.242 . S
C1525 C174 1.024 . S
C1530 C83 1.024 . S
C1555 C190 1.240 . S
C1560 C99 1.242 . S
C1585 C242 1.240 . S
C1590 C216 1.242 . S
C1615 C294 1.240 . S
C1620 C229 1.242 . S
C1645 C307 1.240 . S
C1650 C255 1.242 . S
C1675 C268 1.240 . S
C1680 C281 1.242 . S
C1705 C434 1.023 . S
C1710 C317 1.023 . S
C1735 C450 1.240 . S
C1740 C333 1.242 . S
C1765 C460 1.023 . S
C1770 C343 1.023 . S
C1795 C359 1.242 . S
C1800 C424 1.240 . S
C1825 C369 1.024 . S
C1830 C512 1.024 . S
C1855 C385 1.242 . S
C1860 C476 1.240 . S
C1885 C486 1.024 . S
C1890 C395 1.024 . S
C1915 C502 1.240 . S
C1920 C411 1.242 . S
C1945 C528 1.242 . S
C1950 C554 1.240 . S
C1975 C606 1.240 . S
C1980 C541 1.242 . S
C2005 C619 1.240 . S
C2010 C567 1.242 . S
C2035 C593 1.242 . S
C2040 C580 1.240 . S
C2065 C0 1.057 . S
C2070 C239 1.038 . S
C2095 C23 1.315 . S
C2100 C252 1.235 . S
C2125 C26 1.057 . S
C2130 C265 1.038 . S
C2155 C226 1.235 . S
C2160 C49 1.315 . S
C2185 C52 1.057 . S
C2190 C291 1.038 . S
C2215 C75 1.316 . S
C2220 C213 1.235 . S
C2245 C304 1.038 . S
C2250 C78 1.057 . S
C2275 C278 1.235 . S
C2280 C101 1.316 . S
C2305 C114 1.196 . S
C2310 C125 1.147 . S
C2335 C117 1.057 . S
C2340 C135 1.038 . S
C2365 C140 1.196 . S
C2370 C151 1.147 . S
C2395 C109 1.038 . S
C2400 C143 1.057 . S
C2425 C203 1.148 . S
C2430 C166 1.196 . S
C2455 C161 1.038 . S
C2460 C169 1.057 . S
C2485 C177 1.147 . S
C2490 C192 1.196 . S
C2515 C195 1.057 . S
C2520 C187 1.038 . S
C2545 C44 1.235 . S
C2550 C218 1.316 . S
C2575 C70 1.235 . S
C2580 C231 1.316 . S
C2605 C86 1.147 . S
C2610 C244 1.196 . S
C2635 C257 1.316 . S
C2640 C96 1.235 . S
C2665 C60 1.147 . S
C2670 C270 1.196 . S
C2695 C18 1.235 . S
C2700 C283 1.315 . S
C2725 C34 1.148 . S
C2730 C296 1.196 . S
C2755 C8 1.148 . S
C2760 C309 1.196 . S
C2785 C551 1.038 . S
C2790 C312 1.057 . S
C2815 C335 1.316 . S
C2820 C564 1.235 . S
C2845 C577 1.038 . S
C2850 C338 1.057 . S
C2875 C538 1.235 . S
C2880 C361 1.315 . S
C2905 C364 1.057 . S
C2910 C603 1.038 . S
C2935 C387 1.316 . S
C2940 C525 1.235 . S
C2965 C616 1.038 . S
C2970 C390 1.057 . S
C2995 C413 1.316 . S
C3000 C590 1.235 . S
C3025 C426 1.196 . S
C3030 C437 1.147 . S
C3055 C429 1.057 . S
C3060 C447 1.038 . S
C3085 C452 1.196 . S
C3090 C463 1.147 . S
C3115 C455 1.057 . S
C3120 C421 1.038 . S
C3145 C515 1.148 . S
C3150 C478 1.196 . S
C3175 C473 1.038 . S
C3180 C481 1.057 . S
C3205 C489 1.147 . S
C3210 C504 1.196 . S
C3235 C507 1.057 . S
C3240 C499 1.038 . S
C3265 C356 1.235 . S
C3270 C530 1.316 . S
C3295 C382 1.235 . S
C3300 C543 1.316 . S
C3325 C398 1.147 . S
C3330 C556 1.196 . S
C3355 C569 1.316 . S
C3360 C408 1.235 . S
C3385 C372 1.147 . S
C3390 C582 1.196 . S
C3415 C330 1.235 . S
C3420 C595 1.315 . S
C3445 C608 1.196 . S
C3450 C346 1.148 . S
C3475 C320 1.148 . S
C3480 C621 1.196 . S
