# Generated by pormake.
# Topology wiu, (6)-cn, num edge types: 1
# Building blocks:
#     Node 0, Type 0, BuildingBlock: VOLQOD_clean_sbu_1, # of connection points: 6
#     Node 1, Type 0, BuildingBlock: VOLQOD_clean_sbu_1, # of connection points: 6
#     Node 2, Type 0, BuildingBlock: VOLQOD_clean_sbu_1, # of connection points: 6
#     Node 3, Type 0, BuildingBlock: VOLQOD_clean_sbu_1, # of connection points: 6
#     Node 4, Type 0, BuildingBlock: VOLQOD_clean_sbu_1, # of connection points: 6
#     Node 5, Type 0, BuildingBlock: VOLQOD_clean_sbu_1, # of connection points: 6
#     Node 6, Type 0, BuildingBlock: VOLQOD_clean_sbu_1, # of connection points: 6
#     Node 7, Type 0, BuildingBlock: VOLQOD_clean_sbu_1, # of connection points: 6
#     Node 8, Type 0, BuildingBlock: VOLQOD_clean_sbu_1, # of connection points: 6
#     Node 9, Type 0, BuildingBlock: VOLQOD_clean_sbu_1, # of connection points: 6
#     Node 10, Type 0, BuildingBlock: VOLQOD_clean_sbu_1, # of connection points: 6
#     Node 11, Type 0, BuildingBlock: VOLQOD_clean_sbu_1, # of connection points: 6
#     Node 12, Type 0, BuildingBlock: VOLQOD_clean_sbu_1, # of connection points: 6
#     Node 13, Type 0, BuildingBlock: VOLQOD_clean_sbu_1, # of connection points: 6
#     Node 14, Type 0, BuildingBlock: VOLQOD_clean_sbu_1, # of connection points: 6
#     Node 15, Type 0, BuildingBlock: VOLQOD_clean_sbu_1, # of connection points: 6
#     Edge 16, Type (0, 0), BuildingBlock: TEMPAE_clean_linker_10, # of connection points: 2
#     Edge 17, Type (0, 0), BuildingBlock: TEMPAE_clean_linker_10, # of connection points: 2
#     Edge 18, Type (0, 0), BuildingBlock: TEMPAE_clean_linker_10, # of connection points: 2
#     Edge 19, Type (0, 0), BuildingBlock: TEMPAE_clean_linker_10, # of connection points: 2
#     Edge 20, Type (0, 0), BuildingBlock: TEMPAE_clean_linker_10, # of connection points: 2
#     Edge 21, Type (0, 0), BuildingBlock: TEMPAE_clean_linker_10, # of connection points: 2
#     Edge 22, Type (0, 0), BuildingBlock: TEMPAE_clean_linker_10, # of connection points: 2
#     Edge 23, Type (0, 0), BuildingBlock: TEMPAE_clean_linker_10, # of connection points: 2
#     Edge 24, Type (0, 0), BuildingBlock: TEMPAE_clean_linker_10, # of connection points: 2
#     Edge 25, Type (0, 0), BuildingBlock: TEMPAE_clean_linker_10, # of connection points: 2
#     Edge 26, Type (0, 0), BuildingBlock: TEMPAE_clean_linker_10, # of connection points: 2
#     Edge 27, Type (0, 0), BuildingBlock: TEMPAE_clean_linker_10, # of connection points: 2
#     Edge 28, Type (0, 0), BuildingBlock: TEMPAE_clean_linker_10, # of connection points: 2
#     Edge 29, Type (0, 0), BuildingBlock: TEMPAE_clean_linker_10, # of connection points: 2
#     Edge 30, Type (0, 0), BuildingBlock: TEMPAE_clean_linker_10, # of connection points: 2
#     Edge 31, Type (0, 0), BuildingBlock: TEMPAE_clean_linker_10, # of connection points: 2
#     Edge 32, Type (0, 0), BuildingBlock: TEMPAE_clean_linker_10, # of connection points: 2
#     Edge 33, Type (0, 0), BuildingBlock: TEMPAE_clean_linker_10, # of connection points: 2
#     Edge 34, Type (0, 0), BuildingBlock: TEMPAE_clean_linker_10, # of connection points: 2
#     Edge 35, Type (0, 0), BuildingBlock: TEMPAE_clean_linker_10, # of connection points: 2
#     Edge 36, Type (0, 0), BuildingBlock: TEMPAE_clean_linker_10, # of connection points: 2
#     Edge 37, Type (0, 0), BuildingBlock: TEMPAE_clean_linker_10, # of connection points: 2
#     Edge 38, Type (0, 0), BuildingBlock: TEMPAE_clean_linker_10, # of connection points: 2
#     Edge 39, Type (0, 0), BuildingBlock: TEMPAE_clean_linker_10, # of connection points: 2
#     Edge 40, Type (0, 0), BuildingBlock: TEMPAE_clean_linker_10, # of connection points: 2
#     Edge 41, Type (0, 0), BuildingBlock: TEMPAE_clean_linker_10, # of connection points: 2
#     Edge 42, Type (0, 0), BuildingBlock: TEMPAE_clean_linker_10, # of connection points: 2
#     Edge 43, Type (0, 0), BuildingBlock: TEMPAE_clean_linker_10, # of connection points: 2
#     Edge 44, Type (0, 0), BuildingBlock: TEMPAE_clean_linker_10, # of connection points: 2
#     Edge 45, Type (0, 0), BuildingBlock: TEMPAE_clean_linker_10, # of connection points: 2
#     Edge 46, Type (0, 0), BuildingBlock: TEMPAE_clean_linker_10, # of connection points: 2
#     Edge 47, Type (0, 0), BuildingBlock: TEMPAE_clean_linker_10, # of connection points: 2
#     Edge 48, Type (0, 0), BuildingBlock: TEMPAE_clean_linker_10, # of connection points: 2
#     Edge 49, Type (0, 0), BuildingBlock: TEMPAE_clean_linker_10, # of connection points: 2
#     Edge 50, Type (0, 0), BuildingBlock: TEMPAE_clean_linker_10, # of connection points: 2
#     Edge 51, Type (0, 0), BuildingBlock: TEMPAE_clean_linker_10, # of connection points: 2
#     Edge 52, Type (0, 0), BuildingBlock: TEMPAE_clean_linker_10, # of connection points: 2
#     Edge 53, Type (0, 0), BuildingBlock: TEMPAE_clean_linker_10, # of connection points: 2
#     Edge 54, Type (0, 0), BuildingBlock: TEMPAE_clean_linker_10, # of connection points: 2
#     Edge 55, Type (0, 0), BuildingBlock: TEMPAE_clean_linker_10, # of connection points: 2
#     Edge 56, Type (0, 0), BuildingBlock: TEMPAE_clean_linker_10, # of connection points: 2
#     Edge 57, Type (0, 0), BuildingBlock: TEMPAE_clean_linker_10, # of connection points: 2
#     Edge 58, Type (0, 0), BuildingBlock: TEMPAE_clean_linker_10, # of connection points: 2
#     Edge 59, Type (0, 0), BuildingBlock: TEMPAE_clean_linker_10, # of connection points: 2
#     Edge 60, Type (0, 0), BuildingBlock: TEMPAE_clean_linker_10, # of connection points: 2
#     Edge 61, Type (0, 0), BuildingBlock: TEMPAE_clean_linker_10, # of connection points: 2
#     Edge 62, Type (0, 0), BuildingBlock: TEMPAE_clean_linker_10, # of connection points: 2
#     Edge 63, Type (0, 0), BuildingBlock: TEMPAE_clean_linker_10, # of connection points: 2
# Relax obj value: 0.180
# Max RMSD: 0.175
# Mean RMSD: 0.175
data_MOF--net-wiu--node1-VOLQOD_clean_sbu_1--edge1-TEMPAE_clean_linker_10
_symmetry_space_group_name_H-M    P1
_symmetry_Int_Tables_number       1
_symmetry_cell_setting            triclinic
loop_
_symmetry_equiv_pos_as_xyz
'x, y, z'
_cell_length_a     33.860349
_cell_length_b     33.838783
_cell_length_c     57.868433
_cell_angle_alpha  90.009637
_cell_angle_beta   90.014758
_cell_angle_gamma 90.05719
loop_
_atom_site_label
_atom_site_type_symbol
_atom_site_fract_x
_atom_site_fract_y
_atom_site_fract_z
_atom_type_partial_charge
O0 O 0.36591 0.19069 0.03362 0.0
Zn1 Zn 0.31539 0.17802 0.04942 0.0
O2 O 0.32135 0.12865 0.0659 0.0
Zn3 Zn 0.30021 0.08331 0.04841 0.0
Zn4 Zn 0.37671 0.1208 0.0722 0.0
Zn5 Zn 0.29397 0.13709 0.09441 0.0
O6 O 0.2555 0.05607 0.06832 0.0
O7 O 0.24712 0.10252 0.0952 0.0
O8 O 0.27413 0.17171 0.02526 0.0
O9 O 0.27078 0.10632 0.02076 0.0
O10 O 0.34744 0.04757 0.03578 0.0
O11 O 0.3978 0.07478 0.05453 0.0
O12 O 0.38793 0.11306 0.10609 0.0
O13 O 0.30207 0.22495 0.07029 0.0
O14 O 0.32806 0.12271 0.1207 0.0
O15 O 0.27924 0.19361 0.10098 0.0
C16 C 0.40057 0.18682 0.0417 0.0
C17 C 0.2359 0.07083 0.08532 0.0
C18 C 0.38464 0.04928 0.04032 0.0
C19 C 0.26106 0.14136 0.01474 0.0
C20 C 0.36447 0.11496 0.12323 0.0
C21 C 0.28664 0.22567 0.09037 0.0
O22 O 0.40765 0.16582 0.05949 0.0
O23 O 0.52228 0.60488 0.27555 0.0
Zn24 Zn 0.54489 0.5613 0.29409 0.0
O25 O 0.58757 0.58227 0.31252 0.0
Zn26 Zn 0.63946 0.57135 0.29908 0.0
Zn27 Zn 0.5806 0.63819 0.31509 0.0
Zn28 Zn 0.58073 0.55841 0.34217 0.0
O29 O 0.66953 0.53254 0.32074 0.0
O30 O 0.6212 0.5165 0.34524 0.0
O31 O 0.56576 0.52201 0.27184 0.0
O32 O 0.62939 0.53884 0.27022 0.0
O33 O 0.66861 0.62393 0.28873 0.0
O34 O 0.62021 0.66702 0.29492 0.0
O35 O 0.59002 0.65618 0.34828 0.0
O36 O 0.49965 0.53892 0.31298 0.0
O37 O 0.59073 0.59824 0.36645 0.0
O38 O 0.52608 0.53633 0.34789 0.0
C39 C 0.51229 0.63829 0.28358 0.0
C40 C 0.65555 0.51062 0.33692 0.0
C41 C 0.6542 0.65891 0.28671 0.0
C42 C 0.59981 0.51919 0.2627 0.0
C43 C 0.59346 0.63568 0.36668 0.0
C44 C 0.49682 0.53101 0.33443 0.0
O45 O 0.52679 0.65156 0.30245 0.0
O46 O 0.15252 0.82967 0.52676 0.0
Zn47 Zn 0.20137 0.83831 0.5453 0.0
O48 O 0.1973 0.88892 0.561 0.0
Zn49 Zn 0.22293 0.93166 0.54366 0.0
Zn50 Zn 0.14241 0.9037 0.56497 0.0
Zn51 Zn 0.2216 0.87909 0.5904 0.0
O52 O 0.26561 0.95831 0.565 0.0
O53 O 0.26814 0.91423 0.5936 0.0
O54 O 0.24604 0.84086 0.52299 0.0
O55 O 0.25439 0.90565 0.51783 0.0
O56 O 0.17947 0.96896 0.52871 0.0
O57 O 0.12843 0.9566 0.55164 0.0
O58 O 0.12584 0.90321 0.59844 0.0
O59 O 0.20993 0.79106 0.56693 0.0
O60 O 0.18367 0.89154 0.61534 0.0
O61 O 0.23658 0.82211 0.59669 0.0
C62 C 0.11795 0.84368 0.52927 0.0
C63 C 0.28172 0.94483 0.58353 0.0
C64 C 0.14378 0.97592 0.53509 0.0
C65 C 0.26248 0.86979 0.51273 0.0
C66 C 0.14693 0.89886 0.6165 0.0
C67 C 0.22682 0.7901 0.58663 0.0
O68 O 0.10984 0.86867 0.54502 0.0
O69 O 0.98475 0.41754 0.77671 0.0
Zn70 Zn 0.9634 0.45632 0.79885 0.0
O71 O 0.92375 0.43061 0.81726 0.0
Zn72 Zn 0.87102 0.43998 0.80473 0.0
Zn73 Zn 0.93531 0.37527 0.81764 0.0
Zn74 Zn 0.93092 0.45249 0.84735 0.0
O75 O 0.84104 0.47776 0.82708 0.0
O76 O 0.88901 0.49282 0.85205 0.0
O77 O 0.93929 0.49812 0.77968 0.0
O78 O 0.87878 0.47303 0.77583 0.0
O79 O 0.84328 0.38642 0.79462 0.0
O80 O 0.89392 0.34546 0.79936 0.0
O81 O 0.93265 0.35392 0.8506 0.0
O82 O 0.00995 0.47619 0.81744 0.0
O83 O 0.92453 0.40989 0.87031 0.0
O84 O 0.98532 0.47554 0.85282 0.0
C85 C 0.99769 0.38371 0.7822 0.0
C86 C 0.85458 0.49875 0.84382 0.0
C87 C 0.85893 0.35204 0.79216 0.0
C88 C 0.90599 0.49691 0.76951 0.0
C89 C 0.92713 0.37245 0.86954 0.0
C90 C 0.01388 0.48208 0.83905 0.0
O91 O 0.98719 0.3667 0.80096 0.0
O92 O 0.66521 0.77827 0.96599 0.0
Zn93 Zn 0.70617 0.80018 0.94527 0.0
O94 O 0.68348 0.84219 0.92721 0.0
Zn95 Zn 0.69553 0.89421 0.94031 0.0
Zn96 Zn 0.62736 0.83445 0.92625 0.0
Zn97 Zn 0.70586 0.83519 0.89711 0.0
O98 O 0.73324 0.92403 0.91802 0.0
O99 O 0.74741 0.87621 0.89282 0.0
O100 O 0.74816 0.82143 0.96549 0.0
O101 O 0.72966 0.88442 0.96857 0.0
O102 O 0.64386 0.92395 0.95125 0.0
O103 O 0.59992 0.87598 0.94567 0.0
O104 O 0.60717 0.84072 0.89317 0.0
O105 O 0.72601 0.75421 0.92611 0.0
O106 O 0.66402 0.84377 0.87388 0.0
O107 O 0.7279 0.78046 0.89115 0.0
C108 C 0.63073 0.7682 0.95977 0.0
C109 C 0.75393 0.91044 0.90121 0.0
C110 C 0.60872 0.91007 0.95353 0.0
C111 C 0.7509 0.85522 0.97499 0.0
C112 C 0.62651 0.84461 0.87436 0.0
C113 C 0.73314 0.75115 0.90459 0.0
O114 O 0.61462 0.78215 0.94153 0.0
O115 O 0.4418 0.40695 0.71188 0.0
Zn116 Zn 0.42723 0.45658 0.69545 0.0
O117 O 0.37791 0.4495 0.67911 0.0
Zn118 Zn 0.33222 0.47028 0.6965 0.0
Zn119 Zn 0.37158 0.39384 0.67365 0.0
Zn120 Zn 0.38577 0.47574 0.65007 0.0
O121 O 0.3039 0.51345 0.67582 0.0
O122 O 0.34916 0.52101 0.64819 0.0
O123 O 0.4204 0.49893 0.71872 0.0
O124 O 0.35508 0.50191 0.72359 0.0
O125 O 0.2974 0.42229 0.70972 0.0
O126 O 0.32666 0.37227 0.69181 0.0
O127 O 0.36388 0.38065 0.64017 0.0
O128 O 0.47345 0.47013 0.67428 0.0
O129 O 0.37338 0.43957 0.62423 0.0
O130 O 0.44184 0.49243 0.64355 0.0
C131 C 0.4392 0.37233 0.70352 0.0
C132 C 0.31741 0.53202 0.65806 0.0
C133 C 0.3005 0.38494 0.7057 0.0
C134 C 0.39016 0.51248 0.72908 0.0
C135 C 0.36614 0.40287 0.62251 0.0
C136 C 0.47396 0.48551 0.65419 0.0
O137 O 0.41777 0.36477 0.68601 0.0
O138 O 0.85323 0.24752 0.4612 0.0
Zn139 Zn 0.81222 0.21922 0.44355 0.0
O140 O 0.83637 0.17705 0.42604 0.0
Zn141 Zn 0.82758 0.1254 0.44059 0.0
Zn142 Zn 0.89199 0.18721 0.42275 0.0
Zn143 Zn 0.81148 0.18068 0.39644 0.0
O144 O 0.78765 0.09315 0.42045 0.0
O145 O 0.7703 0.1392 0.39484 0.0
O146 O 0.77478 0.19734 0.46654 0.0
O147 O 0.79671 0.13555 0.47007 0.0
O148 O 0.88183 0.09846 0.45 0.0
O149 O 0.92339 0.1469 0.44097 0.0
O150 O 0.90915 0.18071 0.3891 0.0
O151 O 0.78705 0.26168 0.42386 0.0
O152 O 0.85091 0.17092 0.37214 0.0
O153 O 0.78804 0.2341 0.38928 0.0
C154 C 0.88716 0.25777 0.45411 0.0
C155 C 0.76489 0.10559 0.40424 0.0
C156 C 0.91692 0.11311 0.45 0.0
C157 C 0.77503 0.16416 0.47689 0.0
C158 C 0.88831 0.17319 0.37124 0.0
C159 C 0.78043 0.26345 0.40224 0.0
O160 O 0.90382 0.2408 0.43691 0.0
O161 O 0.07364 0.61155 0.21402 0.0
Zn162 Zn 0.0867 0.56065 0.19854 0.0
O163 O 0.13656 0.56625 0.18248 0.0
Zn164 Zn 0.18136 0.54465 0.20028 0.0
Zn165 Zn 0.14563 0.62149 0.17638 0.0
Zn166 Zn 0.12831 0.53924 0.15375 0.0
O167 O 0.20929 0.50096 0.18008 0.0
O168 O 0.16355 0.4931 0.15275 0.0
O169 O 0.09228 0.51889 0.22255 0.0
O170 O 0.1575 0.51392 0.22726 0.0
O171 O 0.21711 0.59141 0.21366 0.0
O172 O 0.19109 0.64217 0.19478 0.0
O173 O 0.15497 0.63286 0.14263 0.0
O174 O 0.0402 0.54696 0.17732 0.0
O175 O 0.14291 0.57372 0.12758 0.0
O176 O 0.07204 0.52339 0.14702 0.0
C177 C 0.07823 0.64603 0.20571 0.0
C178 C 0.19517 0.48194 0.16266 0.0
C179 C 0.21597 0.62869 0.20924 0.0
C180 C 0.12218 0.50459 0.23292 0.0
C181 C 0.15221 0.60985 0.1253 0.0
C182 C 0.03982 0.53084 0.15741 0.0
O183 O 0.10036 0.65261 0.18834 0.0
O184 O 0.85619 0.69727 0.52762 0.0
Zn185 Zn 0.80606 0.68087 0.54287 0.0
O186 O 0.81433 0.63117 0.55903 0.0
Zn187 Zn 0.79209 0.58524 0.54248 0.0
Zn188 Zn 0.87026 0.62324 0.5635 0.0
Zn189 Zn 0.78989 0.63897 0.58854 0.0
O190 O 0.74865 0.55861 0.56325 0.0
O191 O 0.74327 0.60437 0.59074 0.0
O192 O 0.76531 0.67312 0.51847 0.0
O193 O 0.76162 0.60753 0.51496 0.0
O194 O 0.83787 0.54845 0.5294 0.0
O195 O 0.89056 0.5799 0.54316 0.0
O196 O 0.8843 0.6119 0.59683 0.0
O197 O 0.79055 0.72697 0.56401 0.0
O198 O 0.82642 0.62386 0.61344 0.0
O199 O 0.77521 0.69511 0.59605 0.0
C200 C 0.89091 0.69401 0.53575 0.0
C201 C 0.73089 0.57303 0.58099 0.0
C202 C 0.87556 0.55256 0.5309 0.0
C203 C 0.75202 0.64235 0.50845 0.0
C204 C 0.86259 0.6144 0.61474 0.0
C205 C 0.77858 0.72728 0.5849 0.0
O206 O 0.89893 0.67069 0.55236 0.0
O207 O 0.03287 0.10679 0.78224 0.0
Zn208 Zn 0.05471 0.063 0.8009 0.0
O209 O 0.09773 0.08311 0.81926 0.0
Zn210 Zn 0.14928 0.07134 0.80564 0.0
Zn211 Zn 0.09148 0.13923 0.82159 0.0
Zn212 Zn 0.09072 0.05934 0.84899 0.0
O213 O 0.17941 0.03295 0.82747 0.0
O214 O 0.13158 0.01763 0.85244 0.0
O215 O 0.07462 0.02297 0.77889 0.0
O216 O 0.1386 0.03826 0.77706 0.0
O217 O 0.17863 0.12338 0.79476 0.0
O218 O 0.1311 0.16741 0.80114 0.0
O219 O 0.10087 0.1574 0.85465 0.0
O220 O 0.00925 0.04157 0.81982 0.0
O221 O 0.1002 0.09968 0.87309 0.0
O222 O 0.03594 0.03714 0.8546 0.0
C223 C 0.02345 0.14044 0.79017 0.0
C224 C 0.16583 0.01158 0.84402 0.0
C225 C 0.16475 0.15856 0.79275 0.0
C226 C 0.10855 0.0191 0.76975 0.0
C227 C 0.10344 0.1371 0.87316 0.0
C228 C 1.00647 0.03289 0.84116 0.0
O229 O 0.03797 0.15348 0.80907 0.0
O230 O 0.66252 0.32102 0.02244 0.0
Zn231 Zn 0.71058 0.33316 0.04111 0.0
O232 O 0.7032 0.38354 0.05692 0.0
Zn233 Zn 0.72867 0.42748 0.04041 0.0
Zn234 Zn 0.64739 0.39581 0.05969 0.0
Zn235 Zn 0.72542 0.37492 0.08708 0.0
O236 O 0.77004 0.45441 0.06246 0.0
O237 O 0.77145 0.41046 0.09112 0.0
O238 O 0.75542 0.33802 0.01895 0.0
O239 O 0.76147 0.40322 0.01461 0.0
O240 O 0.68528 0.4642 0.02507 0.0
O241 O 0.63166 0.44666 0.04463 0.0
O242 O 0.62898 0.39743 0.09283 0.0
O243 O 0.7209 0.28652 0.06284 0.0
O244 O 0.68591 0.38782 0.11111 0.0
O245 O 0.7405 0.31837 0.09414 0.0
C246 C 0.62709 0.33269 0.02495 0.0
C247 C 0.78527 0.44117 0.08129 0.0
C248 C 0.6484 0.4684 0.02968 0.0
C249 C 0.77088 0.36788 0.00908 0.0
C250 C 0.64901 0.39458 0.11138 0.0
C251 C 0.73444 0.28611 0.0834 0.0
O252 O 0.61742 0.35763 0.04043 0.0
O253 O 0.48616 0.91555 0.2852 0.0
Zn254 Zn 0.46244 0.95425 0.30663 0.0
O255 O 0.4221 0.92808 0.32442 0.0
Zn256 Zn 0.36941 0.93775 0.31193 0.0
Zn257 Zn 0.43237 0.87237 0.32388 0.0
Zn258 Zn 0.42856 0.949 0.35495 0.0
O259 O 0.33866 0.97344 0.33468 0.0
O260 O 0.38569 0.98858 0.36022 0.0
O261 O 0.43846 0.9956 0.28697 0.0
O262 O 0.377 0.97252 0.28386 0.0
O263 O 0.34148 0.88531 0.30073 0.0
O264 O 0.39206 0.8438 0.30376 0.0
O265 O 0.42733 0.84975 0.35639 0.0
O266 O 0.50763 0.97535 0.3259 0.0
O267 O 0.42215 0.90507 0.37708 0.0
O268 O 0.48267 0.97279 0.36116 0.0
C269 C 0.49822 0.88139 0.29075 0.0
C270 C 0.35122 0.99391 0.35185 0.0
C271 C 0.357 0.85128 0.29698 0.0
C272 C 0.4046 0.99582 0.27743 0.0
C273 C 0.42299 0.86759 0.37566 0.0
C274 C 0.51121 0.98061 0.34758 0.0
O275 O 0.4855 0.86382 0.30885 0.0
O276 O 0.15375 0.28919 0.4663 0.0
Zn277 Zn 0.19583 0.30117 0.44377 0.0
O278 O 0.1752 0.34145 0.42387 0.0
Zn279 Zn 0.1875 0.39367 0.43618 0.0
Zn280 Zn 0.11894 0.3341 0.42189 0.0
Zn281 Zn 0.19974 0.33131 0.39487 0.0
O282 O 0.22483 0.42246 0.41321 0.0
O283 O 0.24126 0.37229 0.39009 0.0
O284 O 0.24037 0.32246 0.46213 0.0
O285 O 0.22188 0.3855 0.46418 0.0
O286 O 0.13611 0.42319 0.4472 0.0
O287 O 0.09026 0.37946 0.43706 0.0
O288 O 0.10127 0.33447 0.38825 0.0
O289 O 0.21222 0.25137 0.42686 0.0
O290 O 0.15947 0.33754 0.37038 0.0
O291 O 0.22201 0.27596 0.39187 0.0
C292 C 0.11834 0.28034 0.46144 0.0
C293 C 0.24662 0.40754 0.39727 0.0
C294 C 0.09982 0.41218 0.44638 0.0
C295 C 0.24343 0.3568 0.4709 0.0
C296 C 0.12192 0.33744 0.36986 0.0
C297 C 0.22315 0.24702 0.40594 0.0
O298 O 0.10411 0.28639 0.44127 0.0
O299 O 0.94166 0.90916 0.21787 0.0
Zn300 Zn 0.92944 0.95648 0.19861 0.0
O301 O 0.88037 0.94761 0.18193 0.0
Zn302 Zn 0.83421 0.97016 0.19804 0.0
Zn303 Zn 0.87218 0.8916 0.17796 0.0
Zn304 Zn 0.88965 0.97151 0.15236 0.0
O305 O 0.80826 0.01302 0.1764 0.0
O306 O 0.85409 0.01749 0.14887 0.0
O307 O 0.92145 1.00107 0.22044 0.0
O308 O 0.85604 1.00197 0.22528 0.0
O309 O 0.79655 0.92408 0.2106 0.0
O310 O 0.82122 0.87332 0.19116 0.0
O311 O 0.8737 0.87452 0.14457 0.0
O312 O 0.97707 0.96766 0.17775 0.0
O313 O 0.87823 0.93322 0.12751 0.0
O314 O 0.94622 0.98698 0.14609 0.0
C315 C 0.93207 0.87325 0.21468 0.0
C316 C 0.82263 0.0301 0.15839 0.0
C317 C 0.79583 0.88721 0.2051 0.0
C318 C 0.89074 0.01383 0.23071 0.0
C319 C 0.87474 0.89589 0.12647 0.0
C320 C 0.97812 0.98116 0.15719 0.0
O321 O 0.9097 0.86267 0.1981 0.0
O322 O 0.35885 0.72597 0.96372 0.0
Zn323 Zn 0.31757 0.70758 0.94226 0.0
O324 O 0.34043 0.66731 0.92307 0.0
Zn325 Zn 0.33033 0.61478 0.93596 0.0
Zn326 Zn 0.39614 0.677 0.92062 0.0
Zn327 Zn 0.31573 0.67539 0.89388 0.0
O328 O 0.29118 0.5852 0.91418 0.0
O329 O 0.27482 0.63403 0.89011 0.0
O330 O 0.27576 0.68453 0.962 0.0
O331 O 0.29833 0.62293 0.96513 0.0
O332 O 0.38357 0.58604 0.94528 0.0
O333 O 0.42654 0.63307 0.93605 0.0
O334 O 0.4137 0.67652 0.88691 0.0
O335 O 0.29777 0.75533 0.9245 0.0
O336 O 0.35559 0.66908 0.86941 0.0
O337 O 0.29264 0.72988 0.88946 0.0
C338 C 0.39363 0.73623 0.95828 0.0
C339 C 0.26917 0.5994 0.89811 0.0
C340 C 0.41921 0.59919 0.94466 0.0
C341 C 0.27562 0.65084 0.97177 0.0
C342 C 0.39301 0.67156 0.8687 0.0
C343 C 0.2888 0.75892 0.90324 0.0
O344 O 0.40928 0.72616 0.93904 0.0
O345 O 0.57314 0.10774 0.71839 0.0
Zn346 Zn 0.58507 0.05908 0.70021 0.0
O347 O 0.63492 0.06634 0.68395 0.0
Zn348 Zn 0.67984 0.04265 0.70066 0.0
Zn349 Zn 0.64529 0.12203 0.67976 0.0
Zn350 Zn 0.6262 0.04247 0.65428 0.0
O351 O 0.70566 0.99916 0.67946 0.0
O352 O 0.6602 0.99529 0.65166 0.0
O353 O 0.59118 0.01536 0.72302 0.0
O354 O 0.65649 0.01181 0.72769 0.0
O355 O 0.71769 0.08757 0.71401 0.0
O356 O 0.69572 0.13914 0.69418 0.0
O357 O 0.64743 0.13828 0.64624 0.0
O358 O 0.53805 0.04761 0.67891 0.0
O359 O 0.64071 0.07971 0.6293 0.0
O360 O 0.56952 0.02822 0.64745 0.0
C361 C 0.58374 0.14329 0.71491 0.0
C362 C 0.69109 0.98205 0.66151 0.0
C363 C 0.71973 0.12441 0.70865 0.0
C364 C 0.6214 1.00164 0.73336 0.0
C365 C 0.64657 0.11675 0.62819 0.0
C366 C 0.53744 0.03406 0.65834 0.0
O367 O 0.60723 0.15273 0.69863 0.0
C368 C 0.46678 0.21682 0.04335 0.0
C369 C 0.43347 0.20709 0.03037 0.0
C370 C 0.49824 0.23703 0.03336 0.0
C371 C 0.49665 0.2469 0.00952 0.0
C372 C 0.46377 0.23552 0.996 0.0
C373 C 0.43207 0.21622 0.00675 0.0
C374 C 0.53254 0.24876 0.0487 0.0
C375 C 0.46115 0.24414 0.97047 0.0
C376 C 0.55909 0.33446 0.00949 0.0
C377 C 0.59556 0.31511 0.01095 0.0
C378 C 0.52504 0.31329 0.0039 0.0
C379 C 0.52823 0.2722 9e-05 0.0
C380 C 0.56569 0.25512 0.99617 0.0
C381 C 0.59947 0.27683 0.00201 0.0
C382 C 0.48545 0.33325 0.00635 0.0
C383 C 0.56979 0.21213 0.98983 0.0
H384 H 0.46777 0.20963 0.06161 0.0
H385 H 0.40641 0.20799 -0.0034 0.0
H386 H 0.56018 0.23496 0.04237 0.0
H387 H 0.5366 0.28128 0.04842 0.0
H388 H 0.52822 0.23955 0.06696 0.0
H389 H 0.44767 0.21871 0.96122 0.0
H390 H 0.44153 0.26996 0.96772 0.0
H391 H 0.49035 0.25059 0.96262 0.0
H392 H 0.55649 0.36496 0.01506 0.0
H393 H 0.62802 0.26236 0.00204 0.0
H394 H 0.47255 0.32574 0.02344 0.0
H395 H 0.46478 0.32278 0.99281 0.0
H396 H 0.48806 0.36592 0.00515 0.0
H397 H 0.56905 0.19396 0.00579 0.0
H398 H 0.59831 0.20651 0.98093 0.0
H399 H 0.5451 0.2025 0.97852 0.0
C400 C 0.46944 0.69541 0.2783 0.0
C401 C 0.49364 0.66696 0.26828 0.0
C402 C 0.47092 0.73428 0.27045 0.0
C403 C 0.49679 0.74387 0.25192 0.0
C404 C 0.51383 0.71331 0.2386 0.0
C405 C 0.51169 0.67452 0.24694 0.0
C406 C 0.45193 0.76531 0.28553 0.0
C407 C 0.54059 0.72162 0.21835 0.0
C408 C 0.49786 0.85249 0.25199 0.0
C409 C 0.51723 0.85694 0.27324 0.0
C410 C 0.4964 0.81529 0.24141 0.0
C411 C 0.51541 0.7833 0.25245 0.0
C412 C 0.54279 0.79071 0.27056 0.0
C413 C 0.5435 0.82802 0.28072 0.0
C414 C 0.46786 0.80908 0.22175 0.0
C415 C 0.56438 0.75806 0.28304 0.0
H416 H 0.4547 0.68887 0.29451 0.0
H417 H 0.52969 0.65189 0.23887 0.0
H418 H 0.47065 0.7702 0.30103 0.0
H419 H 0.4485 0.79394 0.27658 0.0
H420 H 0.42259 0.75505 0.29168 0.0
H421 H 0.53354 0.70109 0.20395 0.0
H422 H 0.53828 0.75246 0.21202 0.0
H423 H 0.57164 0.71589 0.22349 0.0
H424 H 0.47827 0.87559 0.24587 0.0
H425 H 0.55938 0.83228 0.29683 0.0
H426 H 0.43747 0.80683 0.22882 0.0
H427 H 0.47431 0.78171 0.21191 0.0
H428 H 0.46855 0.83474 0.20978 0.0
H429 H 0.54958 0.75226 0.29983 0.0
H430 H 0.59513 0.76743 0.28692 0.0
H431 H 0.56499 0.73014 0.27317 0.0
C432 C 0.08841 0.79211 0.50384 0.0
C433 C 0.08562 0.829 0.51471 0.0
C434 C 0.0541 0.77254 0.49667 0.0
C435 C 0.01712 0.79028 0.50115 0.0
C436 C 0.01523 0.8307 0.5071 0.0
C437 C 0.04982 0.84972 0.51408 0.0
C438 C 0.057 0.73043 0.48839 0.0
C439 C 0.97628 0.85154 0.51041 0.0
C440 C 0.92186 0.73142 0.50328 0.0
C441 C 0.92266 0.71843 0.52628 0.0
C442 C 0.95282 0.75439 0.49437 0.0
C443 C 0.98461 0.76466 0.50904 0.0
C444 C 0.98522 0.75154 0.53235 0.0
C445 C 0.95435 0.72834 0.54054 0.0
C446 C 0.95174 0.7664 0.46927 0.0
C447 C 0.01822 0.76212 0.54891 0.0
H448 H 0.11646 0.77674 0.50321 0.0
H449 H 0.04805 0.87933 0.52118 0.0
H450 H 0.05423 0.71018 0.5034 0.0
H451 H 0.03285 0.72349 0.47607 0.0
H452 H 0.0859 0.72475 0.47995 0.0
H453 H 0.97976 0.88412 0.50909 0.0
H454 H 0.95423 0.84157 0.49749 0.0
H455 H 0.96461 0.84455 0.52787 0.0
H456 H 0.89745 0.72309 0.49217 0.0
H457 H 0.95473 0.71844 0.55837 0.0
H458 H 0.96724 0.74361 0.4589 0.0
H459 H 0.96671 0.79509 0.46621 0.0
H460 H 0.92089 0.76836 0.46283 0.0
H461 H 0.04667 0.7502 0.54249 0.0
H462 H 0.01322 0.75017 0.56655 0.0
H463 H 0.02112 0.79468 0.55031 0.0
C464 C 0.98281 0.19947 0.78511 0.0
C465 C 1.00421 0.16897 0.77498 0.0
C466 C 0.98116 0.23636 0.77454 0.0
C467 C 1.00082 0.24205 0.75306 0.0
C468 C 0.01556 0.20908 0.74081 0.0
C469 C 0.01703 0.17242 0.75203 0.0
C470 C 0.96548 0.27011 0.78894 0.0
C471 C 0.03583 0.21322 0.71775 0.0
C472 C 0.9902 0.34861 0.74565 0.0
C473 C 0.01468 0.3588 0.76427 0.0
C474 C 0.99008 0.30969 0.73741 0.0
C475 C 0.01569 0.28213 0.74792 0.0
C476 C 0.04742 0.2958 0.76181 0.0
C477 C 0.04611 0.33436 0.77026 0.0
C478 C 0.95701 0.29674 0.7217 0.0
C479 C 0.07696 0.26782 0.77232 0.0
H480 H 0.9722 0.19615 0.8027 0.0
H481 H 0.03305 0.1483 0.74402 0.0
H482 H 0.98886 0.27993 0.80111 0.0
H483 H 0.9566 0.29576 0.77838 0.0
H484 H 0.93976 0.26043 0.79945 0.0
H485 H 0.02766 0.18811 0.70634 0.0
H486 H 0.02849 0.24134 0.70891 0.0
H487 H 0.06828 0.21196 0.72035 0.0
H488 H 0.96644 0.3683 0.7406 0.0
H489 H 0.06574 0.34302 0.7842 0.0
H490 H 0.92988 0.29222 0.73213 0.0
H491 H 0.96399 0.26867 0.71271 0.0
H492 H 0.95056 0.31998 0.70868 0.0
H493 H 0.06555 0.25699 0.78916 0.0
H494 H 0.10555 0.28297 0.77557 0.0
H495 H 0.08187 0.24203 0.76097 0.0
C496 C 0.57951 0.71876 0.96751 0.0
C497 C 0.60557 0.74703 0.97606 0.0
C498 C 0.54353 0.71224 0.97861 0.0
C499 C 0.53358 0.73614 -0.00209 0.0
C500 C 0.56368 0.75711 0.00955 0.0
C501 C 0.59989 0.76267 -0.00175 0.0
C502 C 0.51354 0.68609 0.96686 0.0
C503 C 0.55533 0.77997 0.03134 0.0
C504 C 0.44692 0.78014 0.97082 0.0
C505 C 0.41985 0.75073 0.97635 0.0
C506 C 0.48338 0.78138 0.98197 0.0
C507 C 0.4927 0.7515 -0.00161 0.0
C508 C 0.46219 0.72757 0.00738 0.0
C509 C 0.42556 0.72741 0.9961 0.0
C510 C 0.51409 0.80913 0.97235 0.0
C511 C 0.46979 0.69756 0.02608 0.0
H512 H 0.58506 0.70553 0.95074 0.0
H513 H 0.62095 0.78372 0.00521 0.0
H514 H 0.49916 0.66638 0.97964 0.0
H515 H 0.49036 0.70435 0.95856 0.0
H516 H 0.52737 0.66781 0.9532 0.0
H517 H 0.5817 0.77997 0.04276 0.0
H518 H 0.54869 0.81117 0.02689 0.0
H519 H 0.52976 0.76755 0.04088 0.0
H520 H 0.4417 0.79874 0.95585 0.0
H521 H 0.40383 0.70518 0.0007 0.0
H522 H 0.53021 0.79428 0.95809 0.0
H523 H 0.53562 0.81763 0.98577 0.0
H524 H 0.50032 0.83636 0.96527 0.0
H525 H 0.47278 0.66778 0.01824 0.0
H526 H 0.44431 0.6964 0.03815 0.0
H527 H 0.49704 0.70426 0.036 0.0
C528 C 0.52926 0.17218 0.7383 0.0
C529 C 0.56746 0.17505 0.72921 0.0
C530 C 0.50908 0.2065 0.74487 0.0
C531 C 0.5277 0.2435 0.74162 0.0
C532 C 0.56879 0.24522 0.73757 0.0
C533 C 0.58831 0.21067 0.7311 0.0
C534 C 0.46598 0.20374 0.75112 0.0
C535 C 0.59037 0.28409 0.73559 0.0
C536 C 0.47285 0.30836 0.69991 0.0
C537 C 0.46178 0.34006 0.71388 0.0
C538 C 0.49389 0.27671 0.70898 0.0
C539 C 0.50363 0.27652 0.73284 0.0
C540 C 0.49214 0.3083 0.7472 0.0
C541 C 0.4714 0.34006 0.73744 0.0
C542 C 0.50595 0.24378 0.69272 0.0
C543 C 0.50049 0.30853 0.77282 0.0
H544 H 0.51366 0.14419 0.73784 0.0
H545 H 0.61874 0.21235 0.72531 0.0
H546 H 0.45761 0.22766 0.76329 0.0
H547 H 0.44789 0.20702 0.73524 0.0
H548 H 0.45893 0.17466 0.75902 0.0
H549 H 0.62266 0.28026 0.73821 0.0
H550 H 0.58562 0.29643 0.71802 0.0
H551 H 0.57911 0.30581 0.74833 0.0
H552 H 0.46551 0.30858 0.68166 0.0
H553 H 0.46209 0.36445 0.7483 0.0
H554 H 0.49263 0.21544 0.69837 0.0
H555 H 0.5385 0.24027 0.69278 0.0
H556 H 0.49649 0.24932 0.67462 0.0
H557 H 0.47616 0.29289 0.78186 0.0
H558 H 0.50182 0.33917 0.77968 0.0
H559 H 0.52846 0.29318 0.77712 0.0
C560 C 0.08461 0.30854 0.49522 0.0
C561 C 0.09031 0.2762 0.4804 0.0
C562 C 0.04744 0.31514 0.50515 0.0
C563 C 0.01638 0.28895 0.49966 0.0
C564 C 0.02562 0.25137 0.49008 0.0
C565 C 0.06238 0.24608 0.47959 0.0
C566 C 0.04014 0.35315 0.51804 0.0
C567 C 0.99487 0.21963 0.48672 0.0
C568 C 0.91017 0.28108 0.4925 0.0
C569 C 0.91075 0.28464 0.46833 0.0
C570 C 0.9435 0.29201 0.50541 0.0
C571 C 0.97726 0.30546 0.49347 0.0
C572 C 0.97308 0.31902 0.47036 0.0
C573 C 0.93994 0.30736 0.4578 0.0
C574 C 0.94465 0.28297 0.53087 0.0
C575 C 1.00644 0.33845 0.45739 0.0
H576 H 0.10701 0.33139 0.49642 0.0
H577 H 0.06761 0.22045 0.46876 0.0
H578 H 0.04106 0.37846 0.50587 0.0
H579 H 0.01118 0.35304 0.52702 0.0
H580 H 0.06397 0.35799 0.53092 0.0
H581 H 0.00886 0.19023 0.48461 0.0
H582 H 0.97456 0.21804 0.50167 0.0
H583 H 0.97743 0.22595 0.4709 0.0
H584 H 0.88634 0.26525 0.50095 0.0
H585 H 0.93905 0.31208 0.43926 0.0
H586 H 0.97128 0.29547 0.53936 0.0
H587 H 0.94414 0.25051 0.53357 0.0
H588 H 0.91787 0.29517 0.53933 0.0
H589 H 0.02204 0.35997 0.46852 0.0
H590 H 0.99558 0.3541 0.44176 0.0
H591 H 0.02782 0.31565 0.45169 0.0
C592 C 0.04789 0.71172 0.20216 0.0
C593 C 0.05703 0.67929 0.21601 0.0
C594 C 0.02708 0.74367 0.21107 0.0
C595 C 0.01571 0.74341 0.2347 0.0
C596 C 0.02605 0.71126 0.24907 0.0
C597 C 0.04647 0.6792 0.23944 0.0
C598 C 0.01645 0.7771 0.19483 0.0
C599 C 0.01649 0.71083 0.27454 0.0
C600 C 0.98596 0.84672 0.23952 0.0
C601 C 0.94849 0.84239 0.22959 0.0
C602 C 1.00695 0.8132 0.24661 0.0
C603 C 0.98997 0.77554 0.24295 0.0
C604 C 0.94925 0.77225 0.23799 0.0
C605 C 0.92885 0.80604 0.23112 0.0
C606 C 0.0494 0.81755 0.25398 0.0
C607 C 0.9293 0.73259 0.23546 0.0
H608 H 0.05616 0.71169 0.18405 0.0
H609 H 0.05453 0.65433 0.25026 0.0
H610 H 0.98394 0.78087 0.19412 0.0
H611 H 0.02956 0.80519 0.20104 0.0
H612 H 0.02714 0.77191 0.17693 0.0
H613 H 0.01527 0.68018 0.28139 0.0
H614 H 0.04012 0.72688 0.28397 0.0
H615 H 0.98812 0.7258 0.27839 0.0
H616 H 1.00054 0.87526 0.23935 0.0
H617 H 0.89889 0.8032 0.22467 0.0
H618 H 0.06879 0.8153 0.23857 0.0
H619 H 0.05782 0.79375 0.26622 0.0
H620 H 0.05467 0.84675 0.26221 0.0
H621 H 0.9364 0.72012 0.2182 0.0
H622 H 0.89667 0.73524 0.23685 0.0
H623 H 0.9399 0.71152 0.24875 0.0
C624 C 0.40811 1.00747 0.00612 0.0
C625 C 0.41505 0.02456 0.0279 0.0
C626 C 0.4391 0.98932 0.9934 0.0
C627 C 0.47811 0.98802 0.00256 0.0
C628 C 0.48486 1.00431 0.02476 0.0
C629 C 0.4536 0.02216 0.037 0.0
C630 C 0.43026 0.97217 0.96991 0.0
C631 C 0.52541 1.00324 0.03562 0.0
C632 C 0.5524 0.91036 0.98156 0.0
C633 C 0.5772 0.93179 0.96669 0.0
C634 C 0.52006 0.92796 0.99294 0.0
C635 C 0.51176 0.96859 0.98954 0.0
C636 C 0.53717 0.9908 0.97482 0.0
C637 C 0.56964 0.97225 0.96368 0.0
C638 C 0.49469 0.90284 0.0086 0.0
C639 C 0.52987 0.03419 0.97073 0.0
H640 H 0.37881 0.00938 -0.00133 0.0
H641 H 0.45971 0.03499 0.05379 0.0
H642 H 0.44857 0.98715 0.95664 0.0
H643 H 0.43817 0.94036 0.96958 0.0
H644 H 0.39865 0.97528 0.96512 0.0
H645 H 0.52596 0.01714 0.05302 0.0
H646 H 0.53558 0.97221 0.03726 0.0
H647 H 0.5469 0.01887 0.0244 0.0
H648 H 0.5588 0.87954 0.98453 0.0
H649 H 0.58844 0.98916 0.95219 0.0
H650 H 0.46452 0.90044 0.00126 0.0
H651 H 0.49196 0.91679 0.02587 0.0
H652 H 0.50674 0.87258 0.01086 0.0
H653 H 0.49963 0.03859 0.96381 0.0
H654 H 0.55145 0.04723 0.95844 0.0
H655 H 0.5317 0.0505 0.98733 0.0
C656 C 0.65375 0.71795 0.26045 0.0
C657 C 0.67559 0.69132 0.274 0.0
C658 C 0.67113 0.75148 0.25013 0.0
C659 C 0.71217 0.75851 0.25264 0.0
C660 C 0.73487 0.73101 0.26571 0.0
C661 C 0.71638 0.69787 0.27624 0.0
C662 C 0.6454 0.77926 0.23635 0.0
C663 C 0.77876 0.73673 0.26864 0.0
C664 C 0.76363 0.82025 0.20588 0.0
C665 C 0.76907 0.85735 0.21652 0.0
C666 C 0.74529 0.78837 0.21734 0.0
C667 C 0.73145 0.79304 0.24027 0.0
C668 C 0.73541 0.83078 0.25093 0.0
C669 C 0.75413 0.86239 0.23899 0.0
C670 C 0.74165 0.74922 0.20498 0.0
C671 C 0.72068 0.83747 0.2752 0.0
H672 H 0.62273 0.71222 0.25769 0.0
H673 H 0.73369 0.67759 0.2866 0.0
H674 H 0.64983 0.81016 0.24223 0.0
H675 H 0.65381 0.77795 0.21784 0.0
H676 H 0.61354 0.77193 0.23787 0.0
H677 H 0.79228 0.71336 0.27955 0.0
H678 H 0.79341 0.73658 0.25149 0.0
H679 H 0.78473 0.76593 0.27665 0.0
H680 H 0.77485 0.81564 0.18854 0.0
H681 H 0.75848 0.89048 0.24762 0.0
H682 H 0.71023 0.74002 0.20418 0.0
H683 H 0.75783 0.72608 0.2147 0.0
H684 H 0.75351 0.75036 0.18709 0.0
H685 H 0.68888 0.82974 0.27636 0.0
H686 H 0.72466 0.86858 0.28089 0.0
H687 H 0.73675 0.81782 0.28732 0.0
C688 C 0.08715 0.02391 0.53287 0.0
C689 C 0.11638 1.00184 0.52142 0.0
C690 C 0.05584 0.04219 0.52075 0.0
C691 C 0.05239 0.03739 0.49647 0.0
C692 C 0.08222 0.01566 0.48473 0.0
C693 C 0.11395 0.99862 0.49724 0.0
C694 C 0.0259 0.06604 0.5341 0.0
C695 C 0.07981 0.00915 0.45898 0.0
C696 C 0.94844 0.05382 0.47049 0.0
C697 C 0.95147 0.09208 0.46114 0.0
C698 C 0.98115 0.03528 0.48139 0.0
C699 C 0.01788 0.0555 0.4835 0.0
C700 C 0.02112 0.09386 0.47386 0.0
C701 C 0.98834 0.11131 0.46277 0.0
C702 C 0.97633 0.99398 0.4908 0.0
C703 C 0.05895 0.1173 0.4759 0.0
H704 H 0.08831 0.02618 0.55154 0.0
H705 H 0.13561 0.98078 0.48824 0.0
H706 H 0.0233 0.09608 0.52655 0.0
H707 H 0.99643 0.05186 0.53281 0.0
H708 H 0.03379 0.06888 0.55266 0.0
H709 H 0.10528 0.99196 0.45228 0.0
H710 H 0.05216 0.99307 0.45473 0.0
H711 H 0.07871 0.03795 0.44985 0.0
H712 H 0.9205 0.03832 0.46933 0.0
H713 H 0.99164 0.14069 0.45559 0.0
H714 H 0.97971 0.99432 0.50986 0.0
H715 H 0.99976 0.97446 0.48378 0.0
H716 H 0.94706 0.98108 0.48649 0.0
H717 H 0.06279 0.12704 0.49408 0.0
H718 H 0.05887 0.14388 0.46464 0.0
H719 H 0.08489 0.09892 0.47134 0.0
C720 C 0.86016 0.2879 0.77018 0.0
C721 C 0.8378 0.31854 0.78012 0.0
C722 C 0.84259 0.25492 0.75945 0.0
C723 C 0.80095 0.25189 0.75823 0.0
C724 C 0.77783 0.28282 0.76802 0.0
C725 C 0.79645 0.31577 0.77873 0.0
C726 C 0.86888 0.22358 0.74903 0.0
C727 C 0.73336 0.2811 0.76714 0.0
C728 C 0.75669 0.18872 0.70963 0.0
C729 C 0.74622 0.15334 0.7209 0.0
C730 C 0.77449 0.22051 0.72147 0.0
C731 C 0.78208 0.2176 0.74549 0.0
C732 C 0.77277 0.18152 0.75692 0.0
C733 C 0.75512 0.14986 0.74453 0.0
C734 C 0.78438 0.25771 0.70826 0.0
C735 C 0.78044 0.1768 0.78244 0.0
H736 H 0.89188 0.28997 0.77041 0.0
H737 H 0.77862 0.33902 0.78626 0.0
H738 H 0.86072 0.19399 0.75576 0.0
H739 H 0.86476 0.22289 0.73001 0.0
H740 H 0.90064 0.22887 0.75273 0.0
H741 H 0.71943 0.30646 0.77618 0.0
H742 H 0.72328 0.28099 0.74889 0.0
H743 H 0.72278 0.25324 0.77515 0.0
H744 H 0.7499 0.19202 0.69142 0.0
H745 H 0.74656 0.12318 0.7536 0.0
H746 H 0.81624 0.26471 0.71014 0.0
H747 H 0.76761 0.28301 0.71548 0.0
H748 H 0.77741 0.25513 0.68956 0.0
H749 H 0.81213 0.1821 0.78623 0.0
H750 H 0.77228 0.14692 0.78881 0.0
H751 H 0.76327 0.19916 0.79221 0.0
C752 C 0.27839 0.31432 0.71037 0.0
C753 C 0.27647 0.35382 0.71813 0.0
C754 C 0.26087 0.28289 0.72262 0.0
C755 C 0.24014 0.29037 0.7434 0.0
C756 C 0.23695 0.3302 0.75115 0.0
C757 C 0.25516 0.36136 0.73852 0.0
C758 C 0.26495 0.24137 0.71331 0.0
C759 C 0.21471 0.3398 0.773 0.0
C760 C 0.16537 0.21123 0.7623 0.0
C761 C 0.18598 0.19003 0.77932 0.0
C762 C 0.18231 0.24391 0.7508 0.0
C763 C 0.22115 0.25638 0.75641 0.0
C764 C 0.24251 0.23456 0.77334 0.0
C765 C 0.2248 0.20164 0.78449 0.0
C766 C 0.15845 0.26527 0.73263 0.0
C767 C 0.28409 0.24618 0.77976 0.0
H768 H 0.29439 0.30758 0.69464 0.0
H769 H 0.25351 0.3914 0.74493 0.0
H770 H 0.2799 0.22237 0.72624 0.0
H771 H 0.23531 0.22846 0.71012 0.0
H772 H 0.28206 0.24031 0.69695 0.0
H773 H 0.21456 0.37198 0.77678 0.0
H774 H 0.18373 0.32935 0.77154 0.0
H775 H 0.22825 0.32402 0.78782 0.0
H776 H 0.13575 0.20185 0.75787 0.0
H777 H 0.24092 0.18568 0.79771 0.0
H778 H 0.17552 0.26789 0.71635 0.0
H779 H 0.15185 0.29569 0.73865 0.0
H780 H 0.13017 0.25005 0.72877 0.0
H781 H 0.30346 0.24439 0.76434 0.0
H782 H 0.29655 0.227 0.79353 0.0
H783 H 0.28463 0.2773 0.78582 0.0
C784 C 0.35624 0.79603 0.26796 0.0
C785 C 0.33542 0.81951 0.28384 0.0
C786 C 0.33872 0.76338 0.25678 0.0
C787 C 0.2985 0.75405 0.26089 0.0
C788 C 0.2768 0.77833 0.27647 0.0
C789 C 0.29543 0.81067 0.28772 0.0
C790 C 0.36336 0.73911 0.24031 0.0
C791 C 0.23381 0.77006 0.28127 0.0
C792 C 0.24278 0.69779 0.21342 0.0
C793 C 0.24085 0.65877 0.22193 0.0
C794 C 0.26122 0.72855 0.22584 0.0
C795 C 0.27871 0.72082 0.24761 0.0
C796 C 0.27791 0.68136 0.25615 0.0
C797 C 0.25906 0.6509 0.24328 0.0
C798 C 0.26142 0.76968 0.2157 0.0
C799 C 0.29646 0.67146 0.27911 0.0
H800 H 0.38645 0.80366 0.26398 0.0
H801 H 0.27892 0.82853 0.2999 0.0
H802 H 0.36121 0.70728 0.24473 0.0
H803 H 0.352 0.74269 0.22245 0.0
H804 H 0.39498 0.74784 0.24058 0.0
H805 H 0.22118 0.7908 0.29418 0.0
H806 H 0.21654 0.77244 0.26504 0.0
H807 H 0.23024 0.7394 0.28774 0.0
H808 H 0.22913 0.70468 0.19697 0.0
H809 H 0.25764 0.62122 0.25026 0.0
H810 H 0.29224 0.78027 0.21367 0.0
H811 H 0.24626 0.79043 0.22759 0.0
H812 H 0.24659 0.771 0.19859 0.0
H813 H 0.32812 0.67998 0.27905 0.0
H814 H 0.29413 0.6395 0.28329 0.0
H815 H 0.2819 0.68866 0.29303 0.0
C816 C 0.0297 0.43656 0.44723 0.0
C817 C 0.06743 0.43585 0.45738 0.0
C818 C 0.99705 0.45396 0.45847 0.0
C819 C 1.00168 0.47098 0.4807 0.0
C820 C 0.03984 0.47062 0.491 0.0
C821 C 0.07221 0.45344 0.47917 0.0
C822 C 0.95739 0.45374 0.44657 0.0
C823 C 0.04629 0.48758 0.51481 0.0
C824 C 0.92944 0.55058 0.50154 0.0
C825 C 0.90367 0.52959 0.51609 0.0
C826 C 0.9605 0.53177 0.48963 0.0
C827 C 0.9671 0.49073 0.49263 0.0
C828 C 0.94075 0.46907 0.50705 0.0
C829 C 0.90925 0.48869 0.51851 0.0
C830 C 0.98678 0.55616 0.4741 0.0
C831 C 0.94688 0.42548 0.51121 0.0
H832 H 0.02557 0.42287 0.43047 0.0
H833 H 0.10095 0.45237 0.48741 0.0
H834 H 0.93574 0.43698 0.45711 0.0
H835 H 0.94613 0.4844 0.44492 0.0
H836 H 0.95875 0.44022 0.42909 0.0
H837 H 0.07742 0.48469 0.52061 0.0
H838 H 0.03808 0.5193 0.51503 0.0
H839 H 0.02691 0.47222 0.5274 0.0
H840 H 0.9256 0.58225 0.49974 0.0
H841 H 0.89013 0.47236 0.53011 0.0
H842 H 0.98765 0.54303 0.45653 0.0
H843 H 0.01742 0.5561 0.48088 0.0
H844 H 0.97665 0.58728 0.47267 0.0
H845 H 0.95111 0.40953 0.49465 0.0
H846 H 0.92172 0.41189 0.52064 0.0
H847 H 0.97411 0.42121 0.52158 0.0
C848 C 0.61084 0.47812 0.99289 0.0
C849 C 0.62154 0.49248 0.01478 0.0
C850 C 0.57811 0.49364 0.9807 0.0
C851 C 0.55566 0.52505 0.9903 0.0
C852 C 0.56739 0.54069 0.01205 0.0
C853 C 0.59944 0.52367 0.02421 0.0
C854 C 0.56663 0.47534 0.95788 0.0
C855 C 0.54548 0.57494 0.02273 0.0
C856 C 0.49238 0.5887 0.94979 0.0
C857 C 0.4535 0.57667 0.95487 0.0
C858 C 0.52549 0.57225 0.96102 0.0
C859 C 0.52032 0.5418 0.97754 0.0
C860 C 0.48133 0.52792 0.98195 0.0
C861 C 0.44847 0.54563 0.97075 0.0
C862 C 0.56598 0.58876 0.9558 0.0
C863 C 0.47425 0.49464 -0.00122 0.0
H864 H 0.62673 0.45305 0.98586 0.0
H865 H 0.6067 0.53416 0.04139 0.0
H866 H 0.53624 0.46319 0.95906 0.0
H867 H 0.56646 0.49815 0.94412 0.0
H868 H 0.58699 0.45121 0.95266 0.0
H869 H 0.55951 0.58527 0.039 0.0
H870 H 0.54423 0.60003 0.01039 0.0
H871 H 0.5146 0.56611 0.02653 0.0
H872 H 0.49703 0.61182 0.93715 0.0
H873 H 0.41884 0.53575 0.97485 0.0
H874 H 0.58766 0.56471 0.95298 0.0
H875 H 0.57635 0.60635 0.97082 0.0
H876 H 0.56591 0.60815 0.94031 0.0
H877 H 0.49281 0.4688 0.99417 0.0
H878 H 0.44282 0.48523 -0.00084 0.0
H879 H 0.48298 0.50408 0.01642 0.0
C880 C 0.25794 0.26468 0.12328 0.0
C881 C 0.27828 0.26405 0.10211 0.0
C882 C 0.24929 0.30043 0.13459 0.0
C883 C 0.26141 0.33672 0.12465 0.0
C884 C 0.28321 0.33627 0.10373 0.0
C885 C 0.2912 0.30004 0.09267 0.0
C886 C 0.22552 0.29938 0.15666 0.0
C887 C 0.29687 0.37421 0.09258 0.0
C888 C 0.19426 0.42429 0.13572 0.0
C889 C 0.2141 0.44542 0.15321 0.0
C890 C 0.20965 0.38947 0.1263 0.0
C891 C 0.24624 0.37486 0.1343 0.0
C892 C 0.26694 0.39599 0.15175 0.0
C893 C 0.25055 0.43099 0.1611 0.0
C894 C 0.18619 0.36797 0.10793 0.0
C895 C 0.30623 0.38146 0.16058 0.0
H896 H 0.24798 0.23716 0.13089 0.0
H897 H 0.30738 0.29999 0.07651 0.0
H898 H 0.23994 0.3176 0.17018 0.0
H899 H 0.19584 0.31216 0.15348 0.0
H900 H 0.22173 0.26885 0.16337 0.0
H901 H 0.31757 0.3688 0.07803 0.0
H902 H 0.27097 0.39066 0.08587 0.0
H903 H 0.31167 0.39343 0.1055 0.0
H904 H 0.16602 0.43468 0.12936 0.0
H905 H 0.2662 0.44693 0.17452 0.0
H906 H 0.17868 0.33778 0.114 0.0
H907 H 0.20411 0.36478 0.092 0.0
H908 H 0.15833 0.38349 0.10343 0.0
H909 H 0.30254 0.35202 0.16873 0.0
H910 H 0.31944 0.40195 0.17344 0.0
H911 H 0.32714 0.37781 0.14598 0.0
C912 C 0.4571 0.49951 0.36615 0.0
C913 C 0.45869 0.51643 0.34402 0.0
C914 C 0.4214 0.48511 0.3753 0.0
C915 C 0.38619 0.48817 0.36218 0.0
C916 C 0.38736 0.50635 0.34014 0.0
C917 C 0.42359 0.51994 0.33125 0.0
C918 C 0.42165 0.46539 0.3987 0.0
C919 C 0.35047 0.51064 0.3257 0.0
C920 C 0.30745 0.41034 0.37282 0.0
C921 C 0.28078 0.4299 0.38753 0.0
C922 C 0.34145 0.42911 0.36443 0.0
C923 C 0.34913 0.46884 0.37053 0.0
C924 C 0.322 0.48926 0.38489 0.0
C925 C 0.28825 0.46948 0.39337 0.0
C926 C 0.36966 0.40597 0.34938 0.0
C927 C 0.32889 0.53185 0.3915 0.0
H928 H 0.48398 0.49672 0.37618 0.0
H929 H 0.42435 0.53343 0.31427 0.0
H930 H 0.39915 0.479 0.41012 0.0
H931 H 0.41381 0.43371 0.39677 0.0
H932 H 0.45092 0.46744 0.40731 0.0
H933 H 0.35556 0.52877 0.30998 0.0
H934 H 0.33986 0.48103 0.32028 0.0
H935 H 0.32658 0.52445 0.33603 0.0
H936 H 0.30231 0.37975 0.36816 0.0
H937 H 0.26793 0.48491 0.40467 0.0
H938 H 0.39912 0.40456 0.35776 0.0
H939 H 0.37355 0.42103 0.33251 0.0
H940 H 0.3593 0.37531 0.34612 0.0
H941 H 0.35641 0.53436 0.4018 0.0
H942 H 0.30408 0.5442 0.40176 0.0
H943 H 0.3329 0.55011 0.37575 0.0
C944 C 0.25891 0.75008 0.61813 0.0
C945 C 0.23483 0.75152 0.59836 0.0
C946 C 0.26771 0.71406 0.62916 0.0
C947 C 0.25175 0.67827 0.62048 0.0
C948 C 0.22621 0.67963 0.60106 0.0
C949 C 0.2183 0.71608 0.59016 0.0
C950 C 0.29558 0.71418 0.64953 0.0
C951 C 0.20821 0.64237 0.59132 0.0
C952 C 0.31506 0.58673 0.62897 0.0
C953 C 0.2978 0.56808 0.64828 0.0
C954 C 0.29997 0.62191 0.61976 0.0
C955 C 0.26613 0.63938 0.62974 0.0
C956 C 0.24764 0.62042 0.64881 0.0
C957 C 0.26379 0.58509 0.65796 0.0
C958 C 0.32108 0.64094 0.59959 0.0
C959 C 0.21117 0.63781 0.65976 0.0
H960 H 0.27179 0.77714 0.62476 0.0
H961 H 0.19926 0.71674 0.5751 0.0
H962 H 0.28257 0.6976 0.66421 0.0
H963 H 0.32346 0.69907 0.6447 0.0
H964 H 0.30282 0.74458 0.65543 0.0
H965 H 0.1853 0.64872 0.57809 0.0
H966 H 0.23161 0.62407 0.58325 0.0
H967 H 0.19473 0.62451 0.60534 0.0
H968 H 0.34123 0.57421 0.62108 0.0
H969 H 0.25007 0.57114 0.67278 0.0
H970 H 0.33171 0.67078 0.60459 0.0
H971 H 0.30045 0.64474 0.58488 0.0
H972 H 0.34678 0.62332 0.5936 0.0
H973 H 0.21843 0.6668 0.66764 0.0
H974 H 0.19863 0.61827 0.67333 0.0
H975 H 0.18828 0.64316 0.64639 0.0
C976 C 0.05538 0.51181 0.87056 0.0
C977 C 0.05265 0.49522 0.84839 0.0
C978 C 0.0918 0.52489 0.87942 0.0
C979 C 0.12653 0.52066 0.86599 0.0
C980 C 0.12417 0.50255 0.84396 0.0
C981 C 0.08727 0.49043 0.83534 0.0
C982 C 0.09282 0.54472 0.90279 0.0
C983 C 0.1605 0.49696 0.8292 0.0
C984 C 0.20719 0.59699 0.87476 0.0
C985 C 0.23417 0.57731 0.88923 0.0
C986 C 0.17241 0.57877 0.86714 0.0
C987 C 0.16424 0.5394 0.87375 0.0
C988 C 0.1916 0.5188 0.88788 0.0
C989 C 0.22615 0.5381 0.89564 0.0
C990 C 0.14398 0.60213 0.85234 0.0
C991 C 0.18417 0.47653 0.89494 0.0
H992 H 0.02884 0.51551 0.8808 0.0
H993 H 0.08558 0.47707 0.81834 0.0
H994 H 0.11556 0.53083 0.91393 0.0
H995 H 0.10107 0.57626 0.90068 0.0
H996 H 0.06387 0.54319 0.91178 0.0
H997 H 0.15451 0.47843 0.81374 0.0
H998 H 0.17154 0.52615 0.82331 0.0
H999 H 0.18444 0.48298 0.83942 0.0
H1000 H 0.21269 0.62732 0.86968 0.0
H1001 H 0.2467 0.5226 0.90677 0.0
H1002 H 0.11484 0.60403 0.86103 0.0
H1003 H 0.13933 0.58694 0.83557 0.0
H1004 H 0.15463 0.6326 0.84884 0.0
H1005 H 0.157 0.47478 0.90559 0.0
H1006 H 0.20914 0.46397 0.905 0.0
H1007 H 0.17924 0.45796 0.8794 0.0
C1008 C 0.85079 0.55935 0.86843 0.0
C1009 C 0.83195 0.53307 0.85313 0.0
C1010 C 0.83212 0.59373 0.87632 0.0
C1011 C 0.79312 0.60218 0.86914 0.0
C1012 C 0.77331 0.57541 0.85421 0.0
C1013 C 0.79307 0.54131 0.84621 0.0
C1014 C 0.85464 0.62153 0.89199 0.0
C1015 C 0.73145 0.58307 0.84651 0.0
C1016 C 0.74149 0.67756 0.9075 0.0
C1017 C 0.74678 0.71271 0.89498 0.0
C1018 C 0.75446 0.64104 0.89872 0.0
C1019 C 0.77394 0.63959 0.87707 0.0
C1020 C 0.7787 0.67486 0.86415 0.0
C1021 C 0.76478 0.71088 0.87315 0.0
C1022 C 0.74822 0.60412 0.91291 0.0
C1023 C 0.79993 0.67484 0.84121 0.0
H1024 H 0.88085 0.55366 0.87393 0.0
H1025 H 0.77819 0.52132 0.83444 0.0
H1026 H 0.85713 0.65103 0.88373 0.0
H1027 H 0.83849 0.62553 0.90849 0.0
H1028 H 0.88484 0.61068 0.89596 0.0
H1029 H 0.71938 0.55843 0.83595 0.0
H1030 H 0.71212 0.58749 0.86177 0.0
H1031 H 0.73028 0.61061 0.83614 0.0
H1032 H 0.72711 0.67853 0.92422 0.0
H1033 H 0.76893 0.73782 0.86332 0.0
H1034 H 0.7771 0.59298 0.91918 0.0
H1035 H 0.73486 0.5805 0.90213 0.0
H1036 H 0.72889 0.60946 0.9281 0.0
H1037 H 0.83131 0.66652 0.84386 0.0
H1038 H 0.79896 0.70417 0.83261 0.0
H1039 H 0.78672 0.65255 0.82947 0.0
C1040 C 0.54813 0.4806 0.65179 0.0
C1041 C 0.51226 0.494 0.64247 0.0
C1042 C 0.58434 0.48829 0.64068 0.0
C1043 C 0.58488 0.51031 0.61984 0.0
C1044 C 0.54872 0.52308 0.61007 0.0
C1045 C 0.51297 0.51468 0.62142 0.0
C1046 C 0.62214 0.47394 0.65164 0.0
C1047 C 0.54785 0.54712 0.58809 0.0
C1048 C 0.67402 0.57531 0.60842 0.0
C1049 C 0.69423 0.55497 0.59078 0.0
C1050 C 0.63892 0.56082 0.61797 0.0
C1051 C 0.62317 0.52464 0.60999 0.0
C1052 C 0.64343 0.5034 0.59245 0.0
C1053 C 0.67867 0.51892 0.58293 0.0
C1054 C 0.61834 0.58479 0.63645 0.0
C1055 C 0.6277 0.46449 0.58367 0.0
H1056 H 0.548 0.46415 0.66786 0.0
H1057 H 0.48552 0.52501 0.61392 0.0
H1058 H 0.64077 0.45867 0.63865 0.0
H1059 H 0.63928 0.49956 0.65819 0.0
H1060 H 0.61656 0.45342 0.66627 0.0
H1061 H 0.51732 0.55176 0.58161 0.0
H1062 H 0.56153 0.57644 0.59126 0.0
H1063 H 0.56537 0.53235 0.5744 0.0
H1064 H 0.68533 0.60327 0.61473 0.0
H1065 H 0.69392 0.5029 0.5694 0.0
H1066 H 0.61496 0.56694 0.6524 0.0
H1067 H 0.58827 0.59301 0.63054 0.0
H1068 H 0.63463 0.61229 0.64086 0.0
H1069 H 0.62373 0.44362 0.59827 0.0
H1070 H 0.64761 0.45078 0.57069 0.0
H1071 H 0.59826 0.46893 0.57567 0.0
C1072 C 0.76661 0.33623 0.40443 0.0
C1073 C 0.76541 0.30074 0.39187 0.0
C1074 C 0.75298 0.37181 0.39477 0.0
C1075 C 0.73718 0.37193 0.3721 0.0
C1076 C 0.73654 0.33636 0.35918 0.0
C1077 C 0.75087 0.3013 0.36915 0.0
C1078 C 0.75454 0.40911 0.40907 0.0
C1079 C 0.71936 0.33502 0.33511 0.0
C1080 C 0.65783 0.44787 0.3595 0.0
C1081 C 0.67784 0.47591 0.34589 0.0
C1082 C 0.67684 0.41411 0.36794 0.0
C1083 C 0.71724 0.40804 0.36298 0.0
C1084 C 0.73794 0.43622 0.34943 0.0
C1085 C 0.7179 0.46975 0.34087 0.0
C1086 C 0.6534 0.38471 0.38207 0.0
C1087 C 0.78119 0.43093 0.34403 0.0
H1088 H 0.7783 0.33628 0.42187 0.0
H1089 H 0.74997 0.27411 0.35926 0.0
H1090 H 0.76843 0.43338 0.39905 0.0
H1091 H 0.72411 0.41863 0.41345 0.0
H1092 H 0.7713 0.40499 0.4254 0.0
H1093 H 0.72369 0.30582 0.32671 0.0
H1094 H 0.68722 0.34128 0.33588 0.0
H1095 H 0.73303 0.35813 0.32412 0.0
H1096 H 0.62679 0.4519 0.3634 0.0
H1097 H 0.73363 0.49116 0.33041 0.0
H1098 H 0.66666 0.38162 0.39951 0.0
H1099 H 0.65436 0.3552 0.37374 0.0
H1100 H 0.622 0.39354 0.38411 0.0
H1101 H 0.79833 0.42863 0.36032 0.0
H1102 H 0.79325 0.45576 0.33363 0.0
H1103 H 0.78572 0.40298 0.33437 0.0
C1104 C 0.83858 0.4942 0.08342 0.0
C1105 C 0.82092 0.45971 0.09212 0.0
C1106 C 0.87333 0.50975 0.09354 0.0
C1107 C 0.89109 0.49011 0.11259 0.0
C1108 C 0.87305 0.45568 0.12155 0.0
C1109 C 0.83837 0.44119 0.11138 0.0
C1110 C 0.89137 0.54686 0.08369 0.0
C1111 C 0.89095 0.43337 0.14162 0.0
C1112 C 1.00112 0.498 0.12568 0.0
C1113 C 1.00163 0.52162 0.14565 0.0
C1114 C 0.96558 0.48884 0.11427 0.0
C1115 C 0.92939 0.50397 0.12278 0.0
C1116 C 0.92976 0.52877 0.14254 0.0
C1117 C 0.96576 0.53705 0.15382 0.0
C1118 C 0.96666 0.46174 0.09354 0.0
C1119 C 0.89198 0.54584 0.1521 0.0
H1120 H 0.82548 0.50886 0.06865 0.0
H1121 H 0.82535 0.41453 0.11843 0.0
H1122 H 0.89579 0.56903 0.09758 0.0
H1123 H 0.92086 0.54011 0.07634 0.0
H1124 H 0.87275 0.56011 0.06992 0.0
H1125 H 0.87292 0.40739 0.1468 0.0
H1126 H 0.92095 0.42292 0.13693 0.0
H1127 H 0.89411 0.45316 0.15679 0.0
H1128 H 0.02857 0.48596 0.11911 0.0
H1129 H 0.96576 0.55572 0.16905 0.0
H1130 H 0.95105 0.47549 0.07874 0.0
H1131 H 0.95106 0.43376 0.09766 0.0
H1132 H 0.9973 0.45455 0.08814 0.0
H1133 H 0.87485 0.56035 0.13813 0.0
H1134 H 0.89755 0.56773 0.16604 0.0
H1135 H 0.87333 0.52175 0.15919 0.0
C1136 C 0.75407 0.76525 0.61939 0.0
C1137 C 0.76979 0.76537 0.5969 0.0
C1138 C 0.74547 0.80064 0.6311 0.0
C1139 C 0.75285 0.8374 0.62021 0.0
C1140 C 0.76978 0.83782 0.59779 0.0
C1141 C 0.77788 0.8019 0.58638 0.0
C1142 C 0.72702 0.79862 0.65482 0.0
C1143 C 0.77825 0.87628 0.58554 0.0
C1144 C 0.68517 0.92245 0.63632 0.0
C1145 C 0.70831 0.94505 0.65163 0.0
C1146 C 0.69945 0.88777 0.6261 0.0
C1147 C 0.73823 0.87488 0.63103 0.0
C1148 C 0.762 0.8973 0.64647 0.0
C1149 C 0.74668 0.93204 0.65674 0.0
C1150 C 0.6727 0.86475 0.61006 0.0
C1151 C 0.80362 0.88465 0.65204 0.0
H1152 H 0.74786 0.73734 0.62783 0.0
H1153 H 0.79042 0.80249 0.56915 0.0
H1154 H 0.74351 0.81765 0.6671 0.0
H1155 H 0.6963 0.80993 0.65403 0.0
H1156 H 0.7263 0.76801 0.66175 0.0
H1157 H 0.79515 0.87183 0.5693 0.0
H1158 H 0.75004 0.89125 0.58127 0.0
H1159 H 0.7952 0.89641 0.597 0.0
H1160 H 0.65529 0.93168 0.63233 0.0
H1161 H 0.76484 0.94918 0.66846 0.0
H1162 H 0.66841 0.83433 0.61676 0.0
H1163 H 0.6865 0.86218 0.59274 0.0
H1164 H 0.64325 0.87877 0.60802 0.0
H1165 H 0.80336 0.85481 0.65998 0.0
H1166 H 0.81856 0.90546 0.66406 0.0
H1167 H 0.8212 0.8826 0.63591 0.0
C1168 C 0.79708 0.97158 0.89915 0.0
C1169 C 0.78842 0.93289 0.89197 0.0
C1170 C 0.83126 0.99125 0.89121 0.0
C1171 C 0.85765 0.97157 0.87604 0.0
C1172 C 0.84876 0.93278 0.86857 0.0
C1173 C 0.81432 0.91416 0.87644 0.0
C1174 C 0.83941 0.03289 0.89923 0.0
C1175 C 0.87615 0.91043 0.85262 0.0
C1176 C 0.93296 0.02433 0.83814 0.0
C1177 C 0.96812 0.01864 0.85058 0.0
C1178 C 0.8965 0.01094 0.84677 0.0
C1179 C 0.89512 0.9907 0.86818 0.0
C1180 C 0.93041 0.98544 0.88099 0.0
C1181 C 0.96637 0.99974 0.87214 0.0
C1182 C 0.85955 0.01766 0.8327 0.0
C1183 C 0.93042 0.96343 0.90369 0.0
H1184 H 0.77736 0.98637 0.91108 0.0
H1185 H 0.80826 0.88426 0.87074 0.0
H1186 H 0.86707 0.03361 0.90949 0.0
H1187 H 0.84381 0.05258 0.88411 0.0
H1188 H 0.81504 0.04489 0.90999 0.0
H1189 H 0.86492 0.88043 0.84839 0.0
H1190 H 0.88021 0.92703 0.83627 0.0
H1191 H 0.90566 0.90743 0.86077 0.0
H1192 H 0.93387 0.03937 0.82161 0.0
H1193 H 0.99332 0.99526 0.88191 0.0
H1194 H 0.83616 0.031 0.84362 0.0
H1195 H 0.84811 0.98895 0.82629 0.0
H1196 H 0.86492 0.03725 0.81762 0.0
H1197 H 0.90843 0.97647 0.91566 0.0
H1198 H 0.95984 0.96384 0.91219 0.0
H1199 H 0.9217 0.93221 0.90073 0.0
C1200 C 0.76773 0.08133 0.1552 0.0
C1201 C 0.80455 0.06651 0.14818 0.0
C1202 C 0.75212 0.11628 0.14532 0.0
C1203 C 0.77404 0.13713 0.12829 0.0
C1204 C 0.81107 0.12218 0.12119 0.0
C1205 C 0.82562 0.08728 0.13105 0.0
C1206 C 0.71231 0.13103 0.15317 0.0
C1207 C 0.83586 0.14343 0.10335 0.0
C1208 C 0.73086 0.21161 0.08563 0.0
C1209 C 0.7426 0.24781 0.09536 0.0
C1210 C 0.73886 0.17545 0.0968 0.0
C1211 C 0.75952 0.17523 0.11812 0.0
C1212 C 0.77056 0.21171 0.12829 0.0
C1213 C 0.76186 0.24739 0.11688 0.0
C1214 C 0.72626 0.13735 0.08539 0.0
C1215 C 0.7931 0.21304 0.15079 0.0
H1216 H 0.75112 0.06567 0.16833 0.0
H1217 H 0.85421 0.07662 0.12543 0.0
H1218 H 0.71552 0.16056 0.16128 0.0
H1219 H 0.69241 0.13454 0.13807 0.0
H1220 H 0.69817 0.11074 0.16579 0.0
H1221 H 0.86398 0.1278 0.09961 0.0
H1222 H 0.8191 0.14646 0.08698 0.0
H1223 H 0.84297 0.17368 0.10949 0.0
H1224 H 0.71557 0.21146 0.06918 0.0
H1225 H 0.77096 0.27505 0.1247 0.0
H1226 H 0.71059 0.11819 0.09797 0.0
H1227 H 0.75273 0.12096 0.07943 0.0
H1228 H 0.70667 0.14252 0.07029 0.0
H1229 H 0.77786 0.19507 0.16411 0.0
H1230 H 0.79661 0.24366 0.15743 0.0
H1231 H 0.82289 0.2001 0.14828 0.0
C1232 C 0.70042 0.10201 0.3834 0.0
C1233 C 0.72937 0.08278 0.39673 0.0
C1234 C 0.66576 0.08277 0.37645 0.0
C1235 C 0.65963 0.04281 0.38259 0.0
C1236 C 0.68872 0.02285 0.39586 0.0
C1237 C 0.72315 0.04317 0.40296 0.0
C1238 C 0.6355 0.10551 0.36258 0.0
C1239 C 0.68348 0.98004 0.40245 0.0
C1240 C 0.552 0.01012 0.3796 0.0
C1241 C 0.54958 0.99468 0.35713 0.0
C1242 C 0.588 0.02436 0.38852 0.0
C1243 C 0.62266 0.02253 0.37482 0.0
C1244 C 0.62067 1.00551 0.35248 0.0
C1245 C 0.58419 0.99216 0.34385 0.0
C1246 C 0.58857 0.04291 0.41225 0.0
C1247 C 0.6569 1.00252 0.33737 0.0
H1248 H 0.70442 0.13271 0.37859 0.0
H1249 H 0.74521 0.02802 0.41324 0.0
H1250 H 0.63108 0.09123 0.34552 0.0
H1251 H 0.60663 0.10519 0.37165 0.0
H1252 H 0.64433 0.13674 0.35969 0.0
H1253 H 0.70894 0.96853 0.41251 0.0
H1254 H 0.65625 0.97643 0.4129 0.0
H1255 H 0.67983 0.96178 0.38667 0.0
H1256 H 0.5255 0.01208 0.39004 0.0
H1257 H 0.58283 0.97972 0.3266 0.0
H1258 H 0.59485 0.07499 0.41066 0.0
H1259 H 0.61246 0.02983 0.42289 0.0
H1260 H 0.56005 0.03914 0.42147 0.0
H1261 H 0.6663 0.03252 0.33193 0.0
H1262 H 0.65148 0.98451 0.32163 0.0
H1263 H 0.68175 0.98925 0.34716 0.0
C1264 C 0.22991 0.17342 0.41059 0.0
C1265 C 0.23754 0.20787 0.39782 0.0
C1266 C 0.24408 0.1364 0.40325 0.0
C1267 C 0.2671 0.13379 0.38286 0.0
C1268 C 0.27434 0.16836 0.36971 0.0
C1269 C 0.25923 0.20484 0.37723 0.0
C1270 C 0.23512 0.10021 0.41757 0.0
C1271 C 0.29928 0.16709 0.34808 0.0
C1272 C 0.34403 0.05267 0.37779 0.0
C1273 C 0.32726 0.02719 0.36127 0.0
C1274 C 0.32438 0.08683 0.38524 0.0
C1275 C 0.28654 0.09577 0.37631 0.0
C1276 C 0.26857 0.06943 0.36039 0.0
C1277 C 0.28925 0.03559 0.35291 0.0
C1278 C 0.3449 0.11419 0.40205 0.0
C1279 C 0.22794 0.07755 0.3508 0.0
H1280 H 0.21281 0.17535 0.42639 0.0
H1281 H 0.26533 0.23123 0.36722 0.0
H1282 H 0.2229 0.0764 0.40647 0.0
H1283 H 0.26277 0.0888 0.42538 0.0
H1284 H 0.21377 0.1065 0.43167 0.0
H1285 H 0.30065 0.19619 0.33923 0.0
H1286 H 0.32979 0.15788 0.35254 0.0
H1287 H 0.28734 0.14491 0.33582 0.0
H1288 H 0.37333 0.0467 0.38446 0.0
H1289 H 0.27591 0.01616 0.34023 0.0
H1290 H 0.32607 0.11916 0.41745 0.0
H1291 H 0.34985 0.14338 0.3938 0.0
H1292 H 0.37385 0.10243 0.40789 0.0
H1293 H 0.20685 0.08335 0.36508 0.0
H1294 H 0.21661 0.05258 0.34023 0.0
H1295 H 0.22879 0.10444 0.33984 0.0
C1296 C 0.05276 0.98015 0.15628 0.0
C1297 C 0.0167 0.9892 0.14552 0.0
C1298 C 0.08913 0.98815 0.14536 0.0
C1299 C 0.08966 1.00591 0.12315 0.0
C1300 C 0.05338 0.01396 0.11192 0.0
C1301 C 0.01752 1.0055 0.12317 0.0
C1302 C 0.12704 0.97897 0.15797 0.0
C1303 C 0.05235 0.0332 0.08838 0.0
C1304 C 0.17495 0.07496 0.10949 0.0
C1305 C 0.19854 0.05271 0.09425 0.0
C1306 C 0.13994 0.05991 0.1189 0.0
C1307 C 0.12757 0.02124 0.11316 0.0
C1308 C 0.15092 0.99836 0.09775 0.0
C1309 C 0.1861 0.01441 0.08837 0.0
C1310 C 0.11603 0.08573 0.13499 0.0
C1311 C 0.13877 0.95693 0.09127 0.0
H1312 H 0.05265 0.96715 0.1734 0.0
H1313 H 0.98999 0.01239 0.1145 0.0
H1314 H 0.14766 0.96277 0.14648 0.0
H1315 H 0.14177 1.00695 0.16307 0.0
H1316 H 0.12188 0.96106 0.17378 0.0
H1317 H 0.02211 0.03376 0.08094 0.0
H1318 H 0.06321 0.06407 0.08975 0.0
H1319 H 0.07217 0.01742 0.07625 0.0
H1320 H 0.18368 0.10475 0.11412 0.0
H1321 H 0.20395 0.99691 0.07669 0.0
H1322 H 0.11269 0.07105 0.15202 0.0
H1323 H 0.08595 0.09019 0.12785 0.0
H1324 H 0.12979 0.11517 0.13777 0.0
H1325 H 0.13611 0.93852 0.10706 0.0
H1326 H 0.16019 0.94274 0.07934 0.0
H1327 H 0.10931 0.95738 0.08289 0.0
C1328 C 0.16969 0.95074 0.86839 0.0
C1329 C 0.18845 0.97713 0.85313 0.0
C1330 C 0.18857 0.91653 0.87633 0.0
C1331 C 0.22765 0.90834 0.86921 0.0
C1332 C 0.24734 0.9352 0.8543 0.0
C1333 C 0.22741 0.96917 0.84628 0.0
C1334 C 0.16618 0.88859 0.89196 0.0
C1335 C 0.28926 0.92778 0.84663 0.0
C1336 C 0.27984 0.83241 0.90697 0.0
C1337 C 0.27458 0.79753 0.89419 0.0
C1338 C 0.26655 0.86906 0.89852 0.0
C1339 C 0.24687 0.87086 0.87693 0.0
C1340 C 0.24205 0.83586 0.86378 0.0
C1341 C 0.25619 0.79975 0.87247 0.0
C1342 C 0.27274 0.90572 0.91295 0.0
C1343 C 0.22063 0.83626 0.84089 0.0
H1344 H 0.13958 0.95624 0.87384 0.0
H1345 H 0.24223 0.9893 0.83457 0.0
H1346 H 0.16356 0.85919 0.8836 0.0
H1347 H 0.18249 0.88437 0.9084 0.0
H1348 H 0.13603 0.89943 0.89607 0.0
H1349 H 0.30126 0.95256 0.83618 0.0
H1350 H 0.30856 0.92327 0.8619 0.0
H1351 H 0.29055 0.90035 0.83616 0.0
H1352 H 0.29446 0.83114 0.92362 0.0
H1353 H 0.25203 0.77304 0.86243 0.0
H1354 H 0.24384 0.91678 0.91922 0.0
H1355 H 0.28617 0.9295 0.90233 0.0
H1356 H 0.29201 0.90011 0.92813 0.0
H1357 H 0.18931 0.84466 0.84365 0.0
H1358 H 0.22143 0.80706 0.83213 0.0
H1359 H 0.23384 0.85866 0.82923 0.0
C1360 C 0.46305 0.03825 0.6559 0.0
C1361 C 0.49913 0.02557 0.64651 0.0
C1362 C 0.42692 0.03009 0.64474 0.0
C1363 C 0.42664 0.00823 0.62382 0.0
C1364 C 0.46301 0.99612 0.61403 0.0
C1365 C 0.49865 1.00508 0.62538 0.0
C1366 C 0.38892 0.04389 0.6557 0.0
C1367 C 0.46424 0.97223 0.592 0.0
C1368 C 0.33799 0.94264 0.61149 0.0
C1369 C 0.31806 0.96299 0.59376 0.0
C1370 C 0.37281 0.95731 0.6214 0.0
C1371 C 0.38849 0.99374 0.61372 0.0
C1372 C 0.36845 0.01497 0.59608 0.0
C1373 C 0.33359 0.99923 0.58618 0.0
C1374 C 0.39323 0.93325 0.63989 0.0
C1375 C 0.384 0.05414 0.58761 0.0
H1376 H 0.46299 0.0545 0.67204 0.0
H1377 H 0.52624 0.99519 0.61785 0.0
H1378 H 0.37023 0.05918 0.64274 0.0
H1379 H 0.37198 0.01801 0.66206 0.0
H1380 H 0.39422 0.06422 0.67046 0.0
H1381 H 0.49486 0.96776 0.58563 0.0
H1382 H 0.45064 0.94283 0.59503 0.0
H1383 H 0.44684 0.98702 0.57827 0.0
H1384 H 0.32674 0.9145 0.61756 0.0
H1385 H 0.31855 0.01527 0.57257 0.0
H1386 H 0.39625 0.95093 0.65594 0.0
H1387 H 0.42344 0.9253 0.63412 0.0
H1388 H 0.37702 0.9056 0.64408 0.0
H1389 H 0.38768 0.07478 0.60236 0.0
H1390 H 0.36414 0.06794 0.57464 0.0
H1391 H 0.41355 0.05004 0.57969 0.0
C1392 C 0.21237 0.18233 0.99291 0.0
C1393 C 0.23433 0.14731 0.99489 0.0
C1394 C 0.18723 0.18869 0.974 0.0
C1395 C 0.18467 0.15966 0.95651 0.0
C1396 C 0.20703 0.12439 0.95834 0.0
C1397 C 0.23126 0.11846 0.97766 0.0
C1398 C 0.16312 0.22615 0.97287 0.0
C1399 C 0.20548 0.09289 0.93984 0.0
C1400 C 0.10013 0.14231 0.91566 0.0
C1401 C 0.11661 0.15533 0.89482 0.0
C1402 C 0.12025 0.14754 0.93657 0.0
C1403 C 0.15815 0.16519 0.93637 0.0
C1404 C 0.17299 0.182 0.91569 0.0
C1405 C 0.15169 0.1772 0.89507 0.0
C1406 C 0.10282 0.13034 0.95837 0.0
C1407 C 0.21336 0.20087 0.91473 0.0
H1408 H 0.21445 0.20462 0.00632 0.0
H1409 H 0.24841 0.09152 0.97905 0.0
H1410 H 0.16974 0.24244 0.9567 0.0
H1411 H 0.13119 0.21873 0.97254 0.0
H1412 H 0.16885 0.246 0.98779 0.0
H1413 H 0.22599 0.06802 0.94342 0.0
H1414 H 0.17507 0.08088 0.93849 0.0
H1415 H 0.21316 0.10585 0.92281 0.0
H1416 H 0.0729 0.1254 0.91536 0.0
H1417 H 0.16456 0.18684 0.87886 0.0
H1418 H 0.10778 0.15033 0.97329 0.0
H1419 H 0.11749 0.10182 0.9623 0.0
H1420 H 0.07061 0.12482 0.95658 0.0
H1421 H 0.21834 0.22033 0.92987 0.0
H1422 H 0.21753 0.21844 0.8987 0.0
H1423 H 0.23621 0.17738 0.91519 0.0
C1424 C 0.64556 0.38409 0.15364 0.0
C1425 C 0.63067 0.40268 0.13385 0.0
C1426 C 0.63562 0.39769 0.1757 0.0
C1427 C 0.61092 0.43114 0.17782 0.0
C1428 C 0.59312 0.44787 0.15795 0.0
C1429 C 0.60298 0.43309 0.13607 0.0
C1430 C 0.65431 0.37841 0.19653 0.0
C1431 C 0.56674 0.4837 0.15959 0.0
C1432 C 0.5758 0.46559 0.23659 0.0
C1433 C 0.60418 0.49447 0.2419 0.0
C1434 C 0.57791 0.44403 0.21596 0.0
C1435 C 0.60873 0.45213 0.2002 0.0
C1436 C 0.63783 0.48076 0.20564 0.0
C1437 C 0.63538 0.50136 0.22655 0.0
C1438 C 0.54698 0.41305 0.21088 0.0
C1439 C 0.6711 0.49031 0.18914 0.0
H1440 H 0.66663 0.36016 0.15185 0.0
H1441 H 0.59158 0.44746 0.12071 0.0
H1442 H 0.67857 0.39743 0.20307 0.0
H1443 H 0.63249 0.375 0.21069 0.0
H1444 H 0.66679 0.34893 0.19232 0.0
H1445 H 0.55103 0.48964 0.14309 0.0
H1446 H 0.5446 0.47996 0.17353 0.0
H1447 H 0.58491 0.50998 0.16396 0.0
H1448 H 0.55176 0.45998 0.24852 0.0
H1449 H 0.65723 0.5238 0.23052 0.0
H1450 H 0.5613 0.38435 0.20694 0.0
H1451 H 0.52972 0.42169 0.1954 0.0
H1452 H 0.52625 0.40881 0.22556 0.0
H1453 H 0.68889 0.46342 0.18574 0.0
H1454 H 0.69103 0.51369 0.19592 0.0
H1455 H 0.65885 0.50034 0.17235 0.0
C1456 C 0.29753 0.88911 0.4766 0.0
C1457 C 0.29086 0.86124 0.49403 0.0
C1458 C 0.32289 0.88071 0.45814 0.0
C1459 C 0.34275 0.84384 0.45738 0.0
C1460 C 0.33675 0.81584 0.47515 0.0
C1461 C 0.3105 0.82473 0.49318 0.0
C1462 C 0.32813 0.91128 0.43933 0.0
C1463 C 0.35818 0.77674 0.47518 0.0
C1464 C 0.37606 0.8249 0.39644 0.0
C1465 C 0.41166 0.84589 0.39653 0.0
C1466 C 0.35462 0.81985 0.41697 0.0
C1467 C 0.3699 0.83551 0.43786 0.0
C1468 C 0.40865 0.85116 0.4384 0.0
C1469 C 0.42894 0.85669 0.41757 0.0
C1470 C 0.31343 0.80294 0.41562 0.0
C1471 C 0.42659 0.86696 0.46043 0.0
H1472 H 0.28219 0.9172 0.47711 0.0
H1473 H 0.30561 0.80319 0.50676 0.0
H1474 H 0.35943 0.9209 0.43859 0.0
H1475 H 0.32062 0.89829 0.42228 0.0
H1476 H 0.30937 0.93777 0.44211 0.0
H1477 H 0.35025 0.75822 0.49033 0.0
H1478 H 0.35124 0.76004 0.45919 0.0
H1479 H 0.39055 0.78184 0.47532 0.0
H1480 H 0.36262 0.81694 0.38007 0.0
H1481 H 0.45655 0.87298 0.41753 0.0
H1482 H 0.2918 0.82756 0.41527 0.0
H1483 H 0.30671 0.78443 0.43093 0.0
H1484 H 0.30923 0.7849 0.39976 0.0
H1485 H 0.41439 0.89676 0.46402 0.0
H1486 H 0.45921 0.86959 0.45904 0.0
H1487 H 0.41929 0.8477 0.47534 0.0
C1488 C 0.90493 0.57403 0.64083 0.0
C1489 C 0.87829 0.60512 0.63772 0.0
C1490 C 0.91328 0.55996 0.66309 0.0
C1491 C 0.8949 0.57798 0.6824 0.0
C1492 C 0.87076 0.6116 0.67936 0.0
C1493 C 0.8625 0.62459 0.65698 0.0
C1494 C 0.93921 0.524 0.6658 0.0
C1495 C 0.8513 0.63206 0.69957 0.0
C1496 C 0.87004 0.51199 0.73301 0.0
C1497 C 0.90083 0.52064 0.74836 0.0
C1498 C 0.8678 0.53066 0.71148 0.0
C1499 C 0.89681 0.55892 0.70534 0.0
C1500 C 0.92711 0.56893 0.72108 0.0
C1501 C 0.92884 0.54954 0.74242 0.0
C1502 C 0.83492 0.5194 0.69508 0.0
C1503 C 0.95806 0.59946 0.71518 0.0
H1504 H 0.91706 0.55904 0.62587 0.0
H1505 H 0.84231 0.6491 0.6545 0.0
H1506 H 0.96133 0.52873 0.67967 0.0
H1507 H 0.92076 0.49832 0.67092 0.0
H1508 H 0.95493 0.51648 0.64953 0.0
H1509 H 0.83824 0.66093 0.69457 0.0
H1510 H 0.8274 0.61301 0.70652 0.0
H1511 H 0.87284 0.63703 0.71372 0.0
H1512 H 0.8484 0.48962 0.73744 0.0
H1513 H 0.95263 0.55652 0.75428 0.0
H1514 H 0.84757 0.50756 0.6788 0.0
H1515 H 0.81729 0.5459 0.69052 0.0
H1516 H 0.81477 0.49682 0.70253 0.0
H1517 H 0.97562 0.58933 0.70012 0.0
H1518 H 0.97852 0.60521 0.72981 0.0
H1519 H 0.94377 0.62768 0.71018 0.0
C1520 C 0.8385 0.85033 0.10043 0.0
C1521 C 0.86833 0.87838 0.10363 0.0
C1522 C 0.82444 0.84193 0.07819 0.0
C1523 C 0.84136 0.86161 0.05897 0.0
C1524 C 0.87449 0.88649 0.06203 0.0
C1525 C 0.88733 0.89497 0.08444 0.0
C1526 C 0.78895 0.81528 0.07554 0.0
C1527 C 0.89401 0.90709 0.0419 0.0
C1528 C 0.80653 0.83108 -0.00056 0.0
C1529 C 0.77699 0.85926 0.99522 0.0
C1530 C 0.82869 0.832 0.01987 0.0
C1531 C 0.82055 0.86141 0.03651 0.0
C1532 C 0.79159 0.89063 0.03205 0.0
C1533 C 0.77037 0.88939 0.01132 0.0
C1534 C 0.86002 0.80103 0.02389 0.0
C1535 C 0.78209 0.92249 0.04949 0.0
H1536 H 0.82382 0.83767 0.11536 0.0
H1537 H 0.91079 0.91638 0.08704 0.0
H1538 H 0.76256 0.8335 0.07157 0.0
H1539 H 0.79315 0.79441 0.06097 0.0
H1540 H 0.78292 0.79807 0.09151 0.0
H1541 H 0.92348 0.91908 0.04662 0.0
H1542 H 0.89747 0.88664 0.02705 0.0
H1543 H 0.87517 0.93201 0.03612 0.0
H1544 H 0.81196 0.8079 0.9869 0.0
H1545 H 0.74748 0.91111 0.00817 0.0
H1546 H 0.85097 0.78145 0.03832 0.0
H1547 H 0.88828 0.81519 0.02897 0.0
H1548 H 0.86519 0.78253 0.00832 0.0
H1549 H 0.77196 0.9088 0.06588 0.0
H1550 H 0.75878 0.94298 0.04328 0.0
H1551 H 0.80897 0.93997 0.05346 0.0
C1552 C 0.39648 0.67744 0.82634 0.0
C1553 C 0.41158 0.66102 0.8467 0.0
C1554 C 0.40021 0.65754 0.80524 0.0
C1555 C 0.41846 0.61996 0.80483 0.0
C1556 C 0.43769 0.60552 0.82487 0.0
C1557 C 0.43437 0.62663 0.84565 0.0
C1558 C 0.38056 0.67462 0.78407 0.0
C1559 C 0.45734 0.56551 0.82519 0.0
C1560 C 0.36914 0.54443 0.76595 0.0
C1561 C 0.39657 0.54101 0.748 0.0
C1562 C 0.37622 0.56986 0.78463 0.0
C1563 C 0.41113 0.59308 0.78502 0.0
C1564 C 0.43845 0.59049 0.76665 0.0
C1565 C 0.43105 0.56413 0.74845 0.0
C1566 C 0.34653 0.57149 0.8041 0.0
C1567 C 0.47538 0.61553 0.7662 0.0
H1568 H 0.37871 0.70405 0.82728 0.0
H1569 H 0.44554 0.61375 0.86152 0.0
H1570 H 0.39879 0.66955 0.76842 0.0
H1571 H 0.35169 0.65979 0.78133 0.0
H1572 H 0.37518 0.70685 0.78595 0.0
H1573 H 0.47665 0.56179 0.84056 0.0
H1574 H 0.43428 0.54219 0.82563 0.0
H1575 H 0.47523 0.56082 0.80939 0.0
H1576 H 0.34262 0.52645 0.7657 0.0
H1577 H 0.45218 0.56182 0.73445 0.0
H1578 H 0.33439 0.60181 0.80565 0.0
H1579 H 0.36118 0.56429 0.82073 0.0
H1580 H 0.32158 0.55062 0.80148 0.0
H1581 H 0.46742 0.64728 0.76726 0.0
H1582 H 0.49313 0.6107 0.75031 0.0
H1583 H 0.49405 0.60877 0.78144 0.0
C1584 C 0.68606 0.16195 0.60345 0.0
C1585 C 0.65617 0.1336 0.60551 0.0
C1586 C 0.70207 0.17105 0.58175 0.0
C1587 C 0.68708 0.15182 0.56184 0.0
C1588 C 0.65436 0.12603 0.56371 0.0
C1589 C 0.63956 0.11687 0.58561 0.0
C1590 C 0.73714 0.19853 0.5804 0.0
C1591 C 0.63693 0.10578 0.54279 0.0
C1592 C 0.72103 0.18707 0.503 0.0
C1593 C 0.75102 0.15976 0.49799 0.0
C1594 C 0.69952 0.18468 0.52363 0.0
C1595 C 0.70866 0.15459 0.53968 0.0
C1596 C 0.73858 0.12668 0.53462 0.0
C1597 C 0.75922 0.12943 0.51373 0.0
C1598 C 0.66726 0.21441 0.52832 0.0
C1599 C 0.74923 0.09424 0.55145 0.0
H1600 H 0.69899 0.1747 0.6189 0.0
H1601 H 0.61609 0.0952 0.58727 0.0
H1602 H 0.76408 0.18115 0.57643 0.0
H1603 H 0.73322 0.22033 0.56628 0.0
H1604 H 0.74205 0.21471 0.59687 0.0
H1605 H 0.60803 0.09173 0.54671 0.0
H1606 H 0.63288 0.12711 0.52843 0.0
H1607 H 0.65749 0.08251 0.53667 0.0
H1608 H 0.71438 0.21045 0.4908 0.0
H1609 H 0.78249 0.10839 0.51001 0.0
H1610 H 0.67448 0.23174 0.54403 0.0
H1611 H 0.63895 0.19892 0.53169 0.0
H1612 H 0.66299 0.23521 0.51368 0.0
H1613 H 0.75823 0.1073 0.56824 0.0
H1614 H 0.77366 0.07532 0.54501 0.0
H1615 H 0.72312 0.07524 0.55474 0.0
C1616 C 0.0799 0.38356 0.34788 0.0
C1617 C 0.10357 0.34967 0.34803 0.0
C1618 C 0.07592 0.40615 0.32768 0.0
C1619 C 0.09527 0.39371 0.30723 0.0
C1620 C 0.11451 0.35661 0.30666 0.0
C1621 C 0.11894 0.33525 0.32722 0.0
C1622 C 0.05533 0.44562 0.32909 0.0
C1623 C 0.13429 0.34158 0.285 0.0
C1624 C 0.08108 0.45275 0.25203 0.0
C1625 C 0.11539 0.4761 0.25182 0.0
C1626 C 0.07412 0.42544 0.26983 0.0
C1627 C 0.10168 0.42219 0.28807 0.0
C1628 C 0.13618 0.44602 0.28805 0.0
C1629 C 0.14286 0.47232 0.26974 0.0
C1630 C 0.03766 0.39976 0.26895 0.0
C1631 C 0.16603 0.44388 0.30743 0.0
H1632 H 0.06842 0.39494 0.36406 0.0
H1633 H 0.13729 0.30899 0.32742 0.0
H1634 H 0.07785 0.46941 0.33014 0.0
H1635 H 0.03727 0.45114 0.31344 0.0
H1636 H 0.03602 0.44768 0.34456 0.0
H1637 H 0.14062 0.30942 0.28608 0.0
H1638 H 0.11564 0.34719 0.26959 0.0
H1639 H 0.16267 0.35742 0.28247 0.0
H1640 H 0.05993 0.45535 0.23804 0.0
H1641 H 0.16924 0.4905 0.26968 0.0
H1642 H 0.01969 0.40409 0.28477 0.0
H1643 H 0.04635 0.36817 0.26846 0.0
H1644 H 0.01897 0.40619 0.25363 0.0
H1645 H 0.15129 0.44933 0.32426 0.0
H1646 H 0.19029 0.4657 0.30532 0.0
H1647 H 0.17914 0.41388 0.30815 0.0
C1648 C 0.64222 0.6754 0.38847 0.0
C1649 C 0.60699 0.65376 0.38832 0.0
C1650 C 0.66372 0.68014 0.40903 0.0
C1651 C 0.64895 0.66353 0.42979 0.0
C1652 C 0.61103 0.64592 0.43008 0.0
C1653 C 0.59072 0.64072 0.40921 0.0
C1654 C 0.70415 0.69889 0.40796 0.0
C1655 C 0.59366 0.62894 0.45195 0.0
C1656 C 0.72217 0.61819 0.47162 0.0
C1657 C 0.72515 0.64755 0.48857 0.0
C1658 C 0.69793 0.62346 0.45223 0.0
C1659 C 0.67542 0.65858 0.45004 0.0
C1660 C 0.67783 0.6881 0.46727 0.0
C1661 C 0.70303 0.6824 0.48624 0.0
C1662 C 0.69656 0.59147 0.43403 0.0
C1663 C 0.65355 0.72541 0.46578 0.0
H1664 H 0.65499 0.68497 0.37222 0.0
H1665 H 0.56343 0.6239 0.40899 0.0
H1666 H 0.70906 0.71877 0.42292 0.0
H1667 H 0.72694 0.67537 0.40872 0.0
H1668 H 0.70846 0.71598 0.39177 0.0
H1669 H 0.56149 0.62319 0.45019 0.0
H1670 H 0.60851 0.60057 0.45605 0.0
H1671 H 0.59848 0.64919 0.46677 0.0
H1672 H 0.73945 0.59137 0.47327 0.0
H1673 H 0.70503 0.70509 0.49942 0.0
H1674 H 0.70427 0.604 0.41689 0.0
H1675 H 0.6662 0.57932 0.43273 0.0
H1676 H 0.71714 0.56677 0.43787 0.0
H1677 H 0.66038 0.74145 0.44956 0.0
H1678 H 0.65893 0.74554 0.48062 0.0
H1679 H 0.62167 0.71782 0.4653 0.0
C1680 C 0.14589 0.88595 0.65856 0.0
C1681 C 0.13011 0.90593 0.63948 0.0
C1682 C 0.13777 0.89858 0.68106 0.0
C1683 C 0.11404 0.93244 0.68435 0.0
C1684 C 0.09525 0.95058 0.66522 0.0
C1685 C 0.10328 0.93677 0.64288 0.0
C1686 C 0.15741 0.87781 0.70109 0.0
C1687 C 0.06983 0.98687 0.66812 0.0
C1688 C 0.08305 0.96563 0.74411 0.0
C1689 C 0.11207 0.99406 0.74905 0.0
C1690 C 0.0838 0.94438 0.72334 0.0
C1691 C 0.11388 0.95235 0.70709 0.0
C1692 C 0.14384 0.98025 0.71225 0.0
C1693 C 0.14276 1.00053 0.7333 0.0
C1694 C 0.05201 0.91412 0.71858 0.0
C1695 C 0.17637 0.9896 0.69522 0.0
H1696 H 0.16629 0.86169 0.65584 0.0
H1697 H 0.09119 0.95221 0.62806 0.0
H1698 H 0.18267 0.89584 0.70729 0.0
H1699 H 0.13657 0.87431 0.71573 0.0
H1700 H 0.16872 0.84821 0.69609 0.0
H1701 H 0.05329 0.99413 0.65209 0.0
H1702 H 0.04845 0.98279 0.68243 0.0
H1703 H 0.08885 0.01247 0.67263 0.0
H1704 H 0.05943 0.96032 0.75637 0.0
H1705 H 0.16511 0.0226 0.73701 0.0
H1706 H 0.06547 0.88555 0.71345 0.0
H1707 H 0.03337 0.92413 0.70395 0.0
H1708 H 0.0327 0.9091 0.73382 0.0
H1709 H 0.19313 0.96239 0.691 0.0
H1710 H 0.19739 0.01206 0.70195 0.0
H1711 H 0.16341 1.00081 0.67887 0.0
C1712 C 0.93444 0.36319 0.91154 0.0
C1713 C 0.9169 0.35124 0.89078 0.0
C1714 C 0.91522 0.35712 0.93267 0.0
C1715 C 0.87715 0.33983 0.93274 0.0
C1716 C 0.86162 0.32346 0.9121 0.0
C1717 C 0.88206 0.32903 0.89126 0.0
C1718 C 0.93345 0.37375 0.9544 0.0
C1719 C 0.82108 0.30494 0.91139 0.0
C1720 C 0.82063 0.32559 0.98887 0.0
C1721 C 0.79931 0.3611 0.99016 0.0
C1722 C 0.84667 0.31827 0.97048 0.0
C1723 C 0.85064 0.34675 0.95277 0.0
C1724 C 0.82915 0.38265 0.95402 0.0
C1725 C 0.80412 0.38955 0.97285 0.0
C1726 C 0.8699 0.28023 0.97002 0.0
C1727 C 0.83217 0.41366 0.9353 0.0
H1728 H 0.96142 0.38049 0.91105 0.0
H1729 H 0.86836 0.32026 0.87511 0.0
H1730 H 0.92006 0.40295 0.95822 0.0
H1731 H 0.92775 0.35417 0.96941 0.0
H1732 H 0.96584 0.37789 0.95249 0.0
H1733 H 0.81672 0.287 0.8955 0.0
H1734 H 0.81594 0.28594 0.92669 0.0
H1735 H 0.79847 0.32867 0.91161 0.0
H1736 H 0.81716 0.30361 0.00235 0.0
H1737 H 0.78747 0.41687 0.97369 0.0
H1738 H 0.90197 0.2868 0.96912 0.0
H1739 H 0.86228 0.26298 0.95434 0.0
H1740 H 0.8642 0.2616 0.98547 0.0
H1741 H 0.86297 0.42469 0.93411 0.0
H1742 H 0.81239 0.43926 0.9385 0.0
H1743 H 0.82446 0.40057 0.9183 0.0
C1744 C 0.42571 0.05127 0.25189 0.0
C1745 C 0.3989 0.02078 0.25688 0.0
C1746 C 0.42366 0.07191 0.23096 0.0
C1747 C 0.39447 0.06131 0.21465 0.0
C1748 C 0.36649 0.03153 0.21991 0.0
C1749 C 0.36886 0.01181 0.24109 0.0
C1750 C 0.45332 0.10417 0.22604 0.0
C1751 C 0.33492 0.01948 0.20283 0.0
C1752 C 0.36033 0.12519 0.16545 0.0
C1753 C 0.37854 0.10652 0.14665 0.0
C1754 C 0.36776 0.11278 0.18805 0.0
C1755 C 0.39335 0.08045 0.19174 0.0
C1756 C 0.41396 0.06331 0.17294 0.0
C1757 C 0.40654 0.07691 0.15049 0.0
C1758 C 0.34603 0.13239 0.20774 0.0
C1759 C 0.44132 0.02859 0.17632 0.0
H1760 H 0.44882 0.0585 0.26416 0.0
H1761 H 0.34817 0.98819 0.24483 0.0
H1762 H 0.47292 0.09498 0.21166 0.0
H1763 H 0.438 0.13153 0.22047 0.0
H1764 H 0.47192 0.11108 0.24134 0.0
H1765 H 0.31521 0.99603 0.20975 0.0
H1766 H 0.31658 0.04539 0.19811 0.0
H1767 H 0.34888 0.00842 0.18674 0.0
H1768 H 0.33908 0.14858 0.1624 0.0
H1769 H 0.42054 0.06254 0.13588 0.0
H1770 H 0.36626 0.13799 0.22247 0.0
H1771 H 0.32227 0.11248 0.21399 0.0
H1772 H 0.33239 0.16082 0.20242 0.0
H1773 H 0.46242 0.03448 0.19057 0.0
H1774 H 0.45829 0.02158 0.16041 0.0
H1775 H 0.42377 1.00216 0.18122 0.0
C1776 C 0.37758 0.40343 0.58032 0.0
C1777 C 0.35842 0.38685 0.59945 0.0
C1778 C 0.36555 0.39416 0.55787 0.0
C1779 C 0.333 0.36857 0.55472 0.0
C1780 C 0.31565 0.3493 0.57393 0.0
C1781 C 0.32896 0.35842 0.59621 0.0
C1782 C 0.3855 0.4143 0.53772 0.0
C1783 C 0.28064 0.32203 0.57117 0.0
C1784 C 0.26271 0.39324 0.50635 0.0
C1785 C 0.26972 0.36226 0.49086 0.0
C1786 C 0.28373 0.39588 0.52705 0.0
C1787 C 0.31298 0.36728 0.53209 0.0
C1788 C 0.32173 0.33716 0.51598 0.0
C1789 C 0.29963 0.33475 0.49557 0.0
C1790 C 0.2735 0.42839 0.54394 0.0
C1791 C 0.3535 0.3069 0.52061 0.0
H1792 H 0.40093 0.42494 0.58294 0.0
H1793 H 0.3143 0.34561 0.6111 0.0
H1794 H 0.38988 0.39332 0.52322 0.0
H1795 H 0.36648 0.43865 0.53135 0.0
H1796 H 0.41458 0.42699 0.54267 0.0
H1797 H 0.27396 0.30562 0.58733 0.0
H1798 H 0.25425 0.33964 0.56635 0.0
H1799 H 0.28591 0.30042 0.5571 0.0
H1800 H 0.23952 0.41446 0.5028 0.0
H1801 H 0.30532 0.31094 0.48348 0.0
H1802 H 0.30009 0.44635 0.54786 0.0
H1803 H 0.26313 0.41531 0.56045 0.0
H1804 H 0.25012 0.44836 0.53725 0.0
H1805 H 0.38125 0.32165 0.52608 0.0
H1806 H 0.35972 0.28834 0.5052 0.0
H1807 H 0.34415 0.28727 0.53495 0.0
C1808 C 0.92882 0.12644 0.34875 0.0
C1809 C 0.90669 0.16129 0.34942 0.0
C1810 C 0.93284 0.10529 0.32802 0.0
C1811 C 0.91488 0.12003 0.30764 0.0
C1812 C 0.8969 0.15775 0.30781 0.0
C1813 C 0.89251 0.17772 0.32884 0.0
C1814 C 0.95212 0.06511 0.3286 0.0
C1815 C 0.87845 0.17507 0.28633 0.0
C1816 C 0.9306 0.06527 0.25113 0.0
C1817 C 0.89612 0.04225 0.24983 0.0
C1818 C 0.93706 0.09117 0.26968 0.0
C1819 C 0.90871 0.09347 0.28754 0.0
C1820 C 0.87378 0.07038 0.28628 0.0
C1821 C 0.86772 0.04537 0.2673 0.0
C1822 C 0.9741 0.11603 0.27018 0.0
C1823 C 0.84297 0.07172 0.30516 0.0
H1824 H 0.93919 0.11353 0.3648 0.0
H1825 H 0.87516 0.20464 0.3295 0.0
H1826 H 0.92886 0.04197 0.32834 0.0
H1827 H 0.97106 0.06054 0.31321 0.0
H1828 H 0.9703 0.06097 0.3444 0.0
H1829 H 0.87282 0.20725 0.28824 0.0
H1830 H 0.89763 0.17029 0.27105 0.0
H1831 H 0.84983 0.16016 0.28292 0.0
H1832 H 0.95254 0.06317 0.23754 0.0
H1833 H 0.8412 0.02745 0.26644 0.0
H1834 H 0.99181 0.10882 0.28574 0.0
H1835 H 0.96625 0.14779 0.27133 0.0
H1836 H 0.99277 0.11144 0.25463 0.0
H1837 H 0.8566 0.06405 0.32201 0.0
H1838 H 0.81808 0.05104 0.30187 0.0
H1839 H 0.8309 0.10206 0.3067 0.0
C1840 C 0.19188 0.65192 0.09873 0.0
C1841 C 0.16198 0.62394 0.10201 0.0
C1842 C 0.20658 0.65953 0.07654 0.0
C1843 C 0.19033 0.6391 0.05739 0.0
C1844 C 0.15785 0.6134 0.06048 0.0
C1845 C 0.14428 0.60583 0.08284 0.0
C1846 C 0.24142 0.68702 0.07382 0.0
C1847 C 0.13919 0.59182 0.04039 0.0
C1848 C 0.22072 0.67237 -0.00244 0.0
C1849 C 0.25112 0.64553 0.99256 0.0
C1850 C 0.19992 0.67019 0.01844 0.0
C1851 C 0.21025 0.64083 0.0347 0.0
C1852 C 0.24018 0.61303 0.0295 0.0
C1853 C 0.26007 0.61554 0.00837 0.0
C1854 C 0.16755 0.69971 0.02329 0.0
C1855 C 0.252 0.58132 0.04653 0.0
H1856 H 0.20553 0.66586 0.1136 0.0
H1857 H 0.12069 0.58457 0.08542 0.0
H1858 H 0.26801 0.6696 0.06918 0.0
H1859 H 0.23611 0.70835 0.05961 0.0
H1860 H 0.24776 0.70375 0.08992 0.0
H1861 H 0.11075 0.57769 0.04525 0.0
H1862 H 0.13388 0.61232 0.02576 0.0
H1863 H 0.15957 0.56846 0.03419 0.0
H1864 H 0.21351 0.69546 0.98529 0.0
H1865 H 0.28366 0.59486 0.00463 0.0
H1866 H 0.17602 0.7186 0.03815 0.0
H1867 H 0.13991 0.68413 0.02812 0.0
H1868 H 0.16145 0.71905 0.00819 0.0
H1869 H 0.26239 0.59515 0.06283 0.0
H1870 H 0.27583 0.56198 0.03976 0.0
H1871 H 0.22612 0.56262 0.05087 0.0
C1872 C 0.61889 0.83958 0.83208 0.0
C1873 C 0.60675 0.85663 0.85294 0.0
C1874 C 0.61333 0.85936 0.81108 0.0
C1875 C 0.59624 0.8975 0.81119 0.0
C1876 C 0.58003 0.91282 0.83192 0.0
C1877 C 0.58517 0.89186 0.85264 0.0
C1878 C 0.62989 0.84141 0.78926 0.0
C1879 C 0.56171 0.95342 0.83281 0.0
C1880 C 0.64413 0.97025 0.77003 0.0
C1881 C 0.61527 0.97411 0.75286 0.0
C1882 C 0.6379 0.94576 0.78921 0.0
C1883 C 0.60227 0.92392 0.791 0.0
C1884 C 0.57328 0.92711 0.77352 0.0
C1885 C 0.57996 0.95252 0.75475 0.0
C1886 C 0.66943 0.94352 0.80765 0.0
C1887 C 0.53543 0.90357 0.7746 0.0
H1888 H 0.63568 0.81229 0.83241 0.0
H1889 H 0.57625 0.90522 0.86886 0.0
H1890 H 0.60995 0.84675 0.77437 0.0
H1891 H 0.65875 0.85538 0.78525 0.0
H1892 H 0.6346 0.80907 0.79111 0.0
H1893 H 0.54427 0.95788 0.84886 0.0
H1894 H 0.58548 0.97602 0.83229 0.0
H1895 H 0.54226 0.95852 0.81768 0.0
H1896 H 0.67129 0.9871 0.76874 0.0
H1897 H 0.55763 0.95522 0.74141 0.0
H1898 H 0.68074 0.91285 0.80898 0.0
H1899 H 0.65673 0.95148 0.82471 0.0
H1900 H 0.69473 0.96352 0.80405 0.0
H1901 H 0.54227 0.87152 0.77521 0.0
H1902 H 0.51594 0.9093 0.75952 0.0
H1903 H 0.51902 0.91082 0.79063 0.0
loop_
_geom_bond_atom_site_label_1
_geom_bond_atom_site_label_2
_geom_bond_distance
_geom_bond_site_symmetry_2
_ccdc_geom_bond_type
O0 Zn1 1.953 . S
O0 C16 1.225 . S
Zn1 O0 1.953 . S
Zn1 O2 1.949 . S
Zn1 O8 1.919 . S
Zn1 O13 1.924 . S
O2 Zn1 1.949 . S
O2 Zn3 1.923 . S
O2 Zn4 1.950 . S
O2 Zn5 1.945 . S
Zn3 O2 1.923 . S
Zn3 O6 1.933 . S
Zn3 O9 1.941 . S
Zn3 O10 1.965 . S
Zn4 O2 1.950 . S
Zn4 O11 1.938 . S
Zn4 O12 1.906 . S
Zn4 O22 1.953 . S
Zn5 O2 1.945 . S
Zn5 O7 1.932 . S
Zn5 O14 1.977 . S
Zn5 O15 1.910 . S
O6 Zn3 1.933 . S
O6 C17 1.226 . S
O7 Zn5 1.932 . S
O7 C17 1.307 . S
O8 Zn1 1.919 . S
O8 C19 1.253 . S
O9 Zn3 1.941 . S
O9 C19 1.283 . S
O10 Zn3 1.965 . S
O10 C18 1.303 . S
O11 Zn4 1.938 . S
O11 C18 1.247 . S
O12 Zn4 1.906 . S
O12 C20 1.304 . S
O13 Zn1 1.924 . S
O13 C21 1.311 . S
O14 Zn5 1.977 . S
O14 C20 1.272 . S
O15 Zn5 1.910 . S
O15 C21 1.231 . S
C16 O0 1.225 . S
C16 O22 1.298 . S
C17 O6 1.226 . S
C17 O7 1.307 . S
C18 O10 1.303 . S
C18 O11 1.247 . S
C19 O8 1.253 . S
C19 O9 1.283 . S
C20 O12 1.304 . S
C20 O14 1.272 . S
C21 O13 1.311 . S
C21 O15 1.231 . S
O22 Zn4 1.953 . S
O22 C16 1.298 . S
O23 Zn24 1.953 . S
O23 C39 1.225 . S
Zn24 O23 1.953 . S
Zn24 O25 1.949 . S
Zn24 O31 1.919 . S
Zn24 O36 1.924 . S
O25 Zn24 1.949 . S
O25 Zn26 1.923 . S
O25 Zn27 1.950 . S
O25 Zn28 1.945 . S
Zn26 O25 1.923 . S
Zn26 O29 1.933 . S
Zn26 O32 1.941 . S
Zn26 O33 1.965 . S
Zn27 O25 1.950 . S
Zn27 O34 1.938 . S
Zn27 O35 1.906 . S
Zn27 O45 1.953 . S
Zn28 O25 1.945 . S
Zn28 O30 1.932 . S
Zn28 O37 1.977 . S
Zn28 O38 1.910 . S
O29 Zn26 1.933 . S
O29 C40 1.226 . S
O30 Zn28 1.932 . S
O30 C40 1.307 . S
O31 Zn24 1.919 . S
O31 C42 1.253 . S
O32 Zn26 1.941 . S
O32 C42 1.283 . S
O33 Zn26 1.965 . S
O33 C41 1.303 . S
O34 Zn27 1.938 . S
O34 C41 1.247 . S
O35 Zn27 1.906 . S
O35 C43 1.304 . S
O36 Zn24 1.924 . S
O36 C44 1.311 . S
O37 Zn28 1.977 . S
O37 C43 1.272 . S
O38 Zn28 1.910 . S
O38 C44 1.231 . S
C39 O23 1.225 . S
C39 O45 1.298 . S
C40 O29 1.226 . S
C40 O30 1.307 . S
C41 O33 1.303 . S
C41 O34 1.247 . S
C42 O31 1.253 . S
C42 O32 1.283 . S
C43 O35 1.304 . S
C43 O37 1.272 . S
C44 O36 1.311 . S
C44 O38 1.231 . S
O45 Zn27 1.953 . S
O45 C39 1.298 . S
O46 Zn47 1.953 . S
O46 C62 1.225 . S
Zn47 O46 1.953 . S
Zn47 O48 1.949 . S
Zn47 O54 1.919 . S
Zn47 O59 1.924 . S
O48 Zn47 1.949 . S
O48 Zn49 1.923 . S
O48 Zn50 1.950 . S
O48 Zn51 1.945 . S
Zn49 O48 1.923 . S
Zn49 O52 1.933 . S
Zn49 O55 1.941 . S
Zn49 O56 1.965 . S
Zn50 O48 1.950 . S
Zn50 O57 1.938 . S
Zn50 O58 1.906 . S
Zn50 O68 1.953 . S
Zn51 O48 1.945 . S
Zn51 O53 1.932 . S
Zn51 O60 1.977 . S
Zn51 O61 1.910 . S
O52 Zn49 1.933 . S
O52 C63 1.226 . S
O53 Zn51 1.932 . S
O53 C63 1.307 . S
O54 Zn47 1.919 . S
O54 C65 1.253 . S
O55 Zn49 1.941 . S
O55 C65 1.283 . S
O56 Zn49 1.965 . S
O56 C64 1.303 . S
O57 Zn50 1.938 . S
O57 C64 1.247 . S
O58 Zn50 1.906 . S
O58 C66 1.304 . S
O59 Zn47 1.924 . S
O59 C67 1.311 . S
O60 Zn51 1.977 . S
O60 C66 1.272 . S
O61 Zn51 1.910 . S
O61 C67 1.231 . S
C62 O46 1.225 . S
C62 O68 1.298 . S
C63 O52 1.226 . S
C63 O53 1.307 . S
C64 O56 1.303 . S
C64 O57 1.247 . S
C65 O54 1.253 . S
C65 O55 1.283 . S
C66 O58 1.304 . S
C66 O60 1.272 . S
C67 O59 1.311 . S
C67 O61 1.231 . S
O68 Zn50 1.953 . S
O68 C62 1.298 . S
O69 Zn70 1.953 . S
O69 C85 1.225 . S
Zn70 O69 1.953 . S
Zn70 O71 1.949 . S
Zn70 O77 1.919 . S
Zn70 O82 1.924 . S
O71 Zn70 1.949 . S
O71 Zn72 1.923 . S
O71 Zn73 1.950 . S
O71 Zn74 1.945 . S
Zn72 O71 1.923 . S
Zn72 O75 1.933 . S
Zn72 O78 1.941 . S
Zn72 O79 1.965 . S
Zn73 O71 1.950 . S
Zn73 O80 1.938 . S
Zn73 O81 1.906 . S
Zn73 O91 1.953 . S
Zn74 O71 1.945 . S
Zn74 O76 1.932 . S
Zn74 O83 1.977 . S
Zn74 O84 1.910 . S
O75 Zn72 1.933 . S
O75 C86 1.226 . S
O76 Zn74 1.932 . S
O76 C86 1.307 . S
O77 Zn70 1.919 . S
O77 C88 1.253 . S
O78 Zn72 1.941 . S
O78 C88 1.283 . S
O79 Zn72 1.965 . S
O79 C87 1.303 . S
O80 Zn73 1.938 . S
O80 C87 1.247 . S
O81 Zn73 1.906 . S
O81 C89 1.304 . S
O82 Zn70 1.924 . S
O82 C90 1.311 . S
O83 Zn74 1.977 . S
O83 C89 1.272 . S
O84 Zn74 1.910 . S
O84 C90 1.231 . S
C85 O69 1.225 . S
C85 O91 1.298 . S
C86 O75 1.226 . S
C86 O76 1.307 . S
C87 O79 1.303 . S
C87 O80 1.247 . S
C88 O77 1.253 . S
C88 O78 1.283 . S
C89 O81 1.304 . S
C89 O83 1.272 . S
C90 O82 1.311 . S
C90 O84 1.231 . S
O91 Zn73 1.953 . S
O91 C85 1.298 . S
O92 Zn93 1.953 . S
O92 C108 1.225 . S
Zn93 O92 1.953 . S
Zn93 O94 1.949 . S
Zn93 O100 1.919 . S
Zn93 O105 1.924 . S
O94 Zn93 1.949 . S
O94 Zn95 1.923 . S
O94 Zn96 1.950 . S
O94 Zn97 1.945 . S
Zn95 O94 1.923 . S
Zn95 O98 1.933 . S
Zn95 O101 1.941 . S
Zn95 O102 1.965 . S
Zn96 O94 1.950 . S
Zn96 O103 1.938 . S
Zn96 O104 1.906 . S
Zn96 O114 1.953 . S
Zn97 O94 1.945 . S
Zn97 O99 1.932 . S
Zn97 O106 1.977 . S
Zn97 O107 1.910 . S
O98 Zn95 1.933 . S
O98 C109 1.226 . S
O99 Zn97 1.932 . S
O99 C109 1.307 . S
O100 Zn93 1.919 . S
O100 C111 1.253 . S
O101 Zn95 1.941 . S
O101 C111 1.283 . S
O102 Zn95 1.965 . S
O102 C110 1.303 . S
O103 Zn96 1.938 . S
O103 C110 1.247 . S
O104 Zn96 1.906 . S
O104 C112 1.304 . S
O105 Zn93 1.924 . S
O105 C113 1.311 . S
O106 Zn97 1.977 . S
O106 C112 1.272 . S
O107 Zn97 1.910 . S
O107 C113 1.231 . S
C108 O92 1.225 . S
C108 O114 1.298 . S
C109 O98 1.226 . S
C109 O99 1.307 . S
C110 O102 1.303 . S
C110 O103 1.247 . S
C111 O100 1.253 . S
C111 O101 1.283 . S
C112 O104 1.304 . S
C112 O106 1.272 . S
C113 O105 1.311 . S
C113 O107 1.231 . S
O114 Zn96 1.953 . S
O114 C108 1.298 . S
O115 Zn116 1.953 . S
O115 C131 1.225 . S
Zn116 O115 1.953 . S
Zn116 O117 1.949 . S
Zn116 O123 1.919 . S
Zn116 O128 1.924 . S
O117 Zn116 1.949 . S
O117 Zn118 1.923 . S
O117 Zn119 1.950 . S
O117 Zn120 1.945 . S
Zn118 O117 1.923 . S
Zn118 O121 1.933 . S
Zn118 O124 1.941 . S
Zn118 O125 1.965 . S
Zn119 O117 1.950 . S
Zn119 O126 1.938 . S
Zn119 O127 1.906 . S
Zn119 O137 1.953 . S
Zn120 O117 1.945 . S
Zn120 O122 1.932 . S
Zn120 O129 1.977 . S
Zn120 O130 1.910 . S
O121 Zn118 1.933 . S
O121 C132 1.226 . S
O122 Zn120 1.932 . S
O122 C132 1.307 . S
O123 Zn116 1.919 . S
O123 C134 1.253 . S
O124 Zn118 1.941 . S
O124 C134 1.283 . S
O125 Zn118 1.965 . S
O125 C133 1.303 . S
O126 Zn119 1.938 . S
O126 C133 1.247 . S
O127 Zn119 1.906 . S
O127 C135 1.304 . S
O128 Zn116 1.924 . S
O128 C136 1.311 . S
O129 Zn120 1.977 . S
O129 C135 1.272 . S
O130 Zn120 1.910 . S
O130 C136 1.231 . S
C131 O115 1.225 . S
C131 O137 1.298 . S
C132 O121 1.226 . S
C132 O122 1.307 . S
C133 O125 1.303 . S
C133 O126 1.247 . S
C134 O123 1.253 . S
C134 O124 1.283 . S
C135 O127 1.304 . S
C135 O129 1.272 . S
C136 O128 1.311 . S
C136 O130 1.231 . S
O137 Zn119 1.953 . S
O137 C131 1.298 . S
O138 Zn139 1.953 . S
O138 C154 1.225 . S
Zn139 O138 1.953 . S
Zn139 O140 1.949 . S
Zn139 O146 1.919 . S
Zn139 O151 1.924 . S
O140 Zn139 1.949 . S
O140 Zn141 1.923 . S
O140 Zn142 1.950 . S
O140 Zn143 1.945 . S
Zn141 O140 1.923 . S
Zn141 O144 1.933 . S
Zn141 O147 1.941 . S
Zn141 O148 1.965 . S
Zn142 O140 1.950 . S
Zn142 O149 1.938 . S
Zn142 O150 1.906 . S
Zn142 O160 1.953 . S
Zn143 O140 1.945 . S
Zn143 O145 1.932 . S
Zn143 O152 1.977 . S
Zn143 O153 1.910 . S
O144 Zn141 1.933 . S
O144 C155 1.226 . S
O145 Zn143 1.932 . S
O145 C155 1.307 . S
O146 Zn139 1.919 . S
O146 C157 1.253 . S
O147 Zn141 1.941 . S
O147 C157 1.283 . S
O148 Zn141 1.965 . S
O148 C156 1.303 . S
O149 Zn142 1.938 . S
O149 C156 1.247 . S
O150 Zn142 1.906 . S
O150 C158 1.304 . S
O151 Zn139 1.924 . S
O151 C159 1.311 . S
O152 Zn143 1.977 . S
O152 C158 1.272 . S
O153 Zn143 1.910 . S
O153 C159 1.231 . S
C154 O138 1.225 . S
C154 O160 1.298 . S
C155 O144 1.226 . S
C155 O145 1.307 . S
C156 O148 1.303 . S
C156 O149 1.247 . S
C157 O146 1.253 . S
C157 O147 1.283 . S
C158 O150 1.304 . S
C158 O152 1.272 . S
C159 O151 1.311 . S
C159 O153 1.231 . S
O160 Zn142 1.953 . S
O160 C154 1.298 . S
O161 Zn162 1.953 . S
O161 C177 1.225 . S
Zn162 O161 1.953 . S
Zn162 O163 1.949 . S
Zn162 O169 1.919 . S
Zn162 O174 1.924 . S
O163 Zn162 1.949 . S
O163 Zn164 1.923 . S
O163 Zn165 1.950 . S
O163 Zn166 1.945 . S
Zn164 O163 1.923 . S
Zn164 O167 1.933 . S
Zn164 O170 1.941 . S
Zn164 O171 1.965 . S
Zn165 O163 1.950 . S
Zn165 O172 1.938 . S
Zn165 O173 1.906 . S
Zn165 O183 1.953 . S
Zn166 O163 1.945 . S
Zn166 O168 1.932 . S
Zn166 O175 1.977 . S
Zn166 O176 1.910 . S
O167 Zn164 1.933 . S
O167 C178 1.226 . S
O168 Zn166 1.932 . S
O168 C178 1.307 . S
O169 Zn162 1.919 . S
O169 C180 1.253 . S
O170 Zn164 1.941 . S
O170 C180 1.283 . S
O171 Zn164 1.965 . S
O171 C179 1.303 . S
O172 Zn165 1.938 . S
O172 C179 1.247 . S
O173 Zn165 1.906 . S
O173 C181 1.304 . S
O174 Zn162 1.924 . S
O174 C182 1.311 . S
O175 Zn166 1.977 . S
O175 C181 1.272 . S
O176 Zn166 1.910 . S
O176 C182 1.231 . S
C177 O161 1.225 . S
C177 O183 1.298 . S
C178 O167 1.226 . S
C178 O168 1.307 . S
C179 O171 1.303 . S
C179 O172 1.247 . S
C180 O169 1.253 . S
C180 O170 1.283 . S
C181 O173 1.304 . S
C181 O175 1.272 . S
C182 O174 1.311 . S
C182 O176 1.231 . S
O183 Zn165 1.953 . S
O183 C177 1.298 . S
O184 Zn185 1.953 . S
O184 C200 1.225 . S
Zn185 O184 1.953 . S
Zn185 O186 1.949 . S
Zn185 O192 1.919 . S
Zn185 O197 1.924 . S
O186 Zn185 1.949 . S
O186 Zn187 1.923 . S
O186 Zn188 1.950 . S
O186 Zn189 1.945 . S
Zn187 O186 1.923 . S
Zn187 O190 1.933 . S
Zn187 O193 1.941 . S
Zn187 O194 1.965 . S
Zn188 O186 1.950 . S
Zn188 O195 1.938 . S
Zn188 O196 1.906 . S
Zn188 O206 1.953 . S
Zn189 O186 1.945 . S
Zn189 O191 1.932 . S
Zn189 O198 1.977 . S
Zn189 O199 1.910 . S
O190 Zn187 1.933 . S
O190 C201 1.226 . S
O191 Zn189 1.932 . S
O191 C201 1.307 . S
O192 Zn185 1.919 . S
O192 C203 1.253 . S
O193 Zn187 1.941 . S
O193 C203 1.283 . S
O194 Zn187 1.965 . S
O194 C202 1.303 . S
O195 Zn188 1.938 . S
O195 C202 1.247 . S
O196 Zn188 1.906 . S
O196 C204 1.304 . S
O197 Zn185 1.924 . S
O197 C205 1.311 . S
O198 Zn189 1.977 . S
O198 C204 1.272 . S
O199 Zn189 1.910 . S
O199 C205 1.231 . S
C200 O184 1.225 . S
C200 O206 1.298 . S
C201 O190 1.226 . S
C201 O191 1.307 . S
C202 O194 1.303 . S
C202 O195 1.247 . S
C203 O192 1.253 . S
C203 O193 1.283 . S
C204 O196 1.304 . S
C204 O198 1.272 . S
C205 O197 1.311 . S
C205 O199 1.231 . S
O206 Zn188 1.953 . S
O206 C200 1.298 . S
O207 Zn208 1.953 . S
O207 C223 1.225 . S
Zn208 O207 1.953 . S
Zn208 O209 1.949 . S
Zn208 O215 1.919 . S
Zn208 O220 1.924 . S
O209 Zn208 1.949 . S
O209 Zn210 1.923 . S
O209 Zn211 1.950 . S
O209 Zn212 1.945 . S
Zn210 O209 1.923 . S
Zn210 O213 1.933 . S
Zn210 O216 1.941 . S
Zn210 O217 1.965 . S
Zn211 O209 1.950 . S
Zn211 O218 1.938 . S
Zn211 O219 1.906 . S
Zn211 O229 1.953 . S
Zn212 O209 1.945 . S
Zn212 O214 1.932 1_545 S
Zn212 O221 1.977 . S
Zn212 O222 1.910 . S
O213 Zn210 1.933 . S
O213 C224 1.226 1_545 S
O214 Zn212 1.932 1_565 S
O214 C224 1.307 . S
O215 Zn208 1.919 . S
O215 C226 1.253 . S
O216 Zn210 1.941 . S
O216 C226 1.283 . S
O217 Zn210 1.965 . S
O217 C225 1.303 . S
O218 Zn211 1.938 . S
O218 C225 1.247 . S
O219 Zn211 1.906 . S
O219 C227 1.304 . S
O220 Zn208 1.924 . S
O220 C228 1.311 . S
O221 Zn212 1.977 . S
O221 C227 1.272 . S
O222 Zn212 1.910 . S
O222 C228 1.231 . S
C223 O207 1.225 . S
C223 O229 1.298 . S
C224 O213 1.226 1_565 S
C224 O214 1.307 . S
C225 O217 1.303 . S
C225 O218 1.247 . S
C226 O215 1.253 . S
C226 O216 1.283 . S
C227 O219 1.304 . S
C227 O221 1.272 . S
C228 O220 1.311 . S
C228 O222 1.231 . S
O229 Zn211 1.953 . S
O229 C223 1.298 . S
O230 Zn231 1.953 . S
O230 C246 1.225 . S
Zn231 O230 1.953 . S
Zn231 O232 1.949 . S
Zn231 O238 1.919 . S
Zn231 O243 1.924 . S
O232 Zn231 1.949 . S
O232 Zn233 1.923 . S
O232 Zn234 1.950 . S
O232 Zn235 1.945 . S
Zn233 O232 1.923 . S
Zn233 O236 1.933 . S
Zn233 O239 1.941 . S
Zn233 O240 1.965 . S
Zn234 O232 1.950 . S
Zn234 O241 1.938 . S
Zn234 O242 1.906 . S
Zn234 O252 1.953 . S
Zn235 O232 1.945 . S
Zn235 O237 1.932 . S
Zn235 O244 1.977 . S
Zn235 O245 1.910 . S
O236 Zn233 1.933 . S
O236 C247 1.226 . S
O237 Zn235 1.932 . S
O237 C247 1.307 . S
O238 Zn231 1.919 . S
O238 C249 1.253 . S
O239 Zn233 1.941 . S
O239 C249 1.283 . S
O240 Zn233 1.965 . S
O240 C248 1.303 . S
O241 Zn234 1.938 . S
O241 C248 1.247 . S
O242 Zn234 1.906 . S
O242 C250 1.304 . S
O243 Zn231 1.924 . S
O243 C251 1.311 . S
O244 Zn235 1.977 . S
O244 C250 1.272 . S
O245 Zn235 1.910 . S
O245 C251 1.231 . S
C246 O230 1.225 . S
C246 O252 1.298 . S
C247 O236 1.226 . S
C247 O237 1.307 . S
C248 O240 1.303 . S
C248 O241 1.247 . S
C249 O238 1.253 . S
C249 O239 1.283 . S
C250 O242 1.304 . S
C250 O244 1.272 . S
C251 O243 1.311 . S
C251 O245 1.231 . S
O252 Zn234 1.953 . S
O252 C246 1.298 . S
O253 Zn254 1.953 . S
O253 C269 1.225 . S
Zn254 O253 1.953 . S
Zn254 O255 1.949 . S
Zn254 O261 1.919 . S
Zn254 O266 1.924 . S
O255 Zn254 1.949 . S
O255 Zn256 1.923 . S
O255 Zn257 1.950 . S
O255 Zn258 1.945 . S
Zn256 O255 1.923 . S
Zn256 O259 1.933 . S
Zn256 O262 1.941 . S
Zn256 O263 1.965 . S
Zn257 O255 1.950 . S
Zn257 O264 1.938 . S
Zn257 O265 1.906 . S
Zn257 O275 1.953 . S
Zn258 O255 1.945 . S
Zn258 O260 1.932 1_565 S
Zn258 O267 1.977 . S
Zn258 O268 1.910 . S
O259 Zn256 1.933 . S
O259 C270 1.226 1_565 S
O260 Zn258 1.932 1_545 S
O260 C270 1.307 . S
O261 Zn254 1.919 . S
O261 C272 1.253 . S
O262 Zn256 1.941 . S
O262 C272 1.283 . S
O263 Zn256 1.965 . S
O263 C271 1.303 . S
O264 Zn257 1.938 . S
O264 C271 1.247 . S
O265 Zn257 1.906 . S
O265 C273 1.304 . S
O266 Zn254 1.924 . S
O266 C274 1.311 . S
O267 Zn258 1.977 . S
O267 C273 1.272 . S
O268 Zn258 1.910 . S
O268 C274 1.231 . S
C269 O253 1.225 . S
C269 O275 1.298 . S
C270 O259 1.226 1_545 S
C270 O260 1.307 . S
C271 O263 1.303 . S
C271 O264 1.247 . S
C272 O261 1.253 . S
C272 O262 1.283 . S
C273 O265 1.304 . S
C273 O267 1.272 . S
C274 O266 1.311 . S
C274 O268 1.231 . S
O275 Zn257 1.953 . S
O275 C269 1.298 . S
O276 Zn277 1.953 . S
O276 C292 1.225 . S
Zn277 O276 1.953 . S
Zn277 O278 1.949 . S
Zn277 O284 1.919 . S
Zn277 O289 1.924 . S
O278 Zn277 1.949 . S
O278 Zn279 1.923 . S
O278 Zn280 1.950 . S
O278 Zn281 1.945 . S
Zn279 O278 1.923 . S
Zn279 O282 1.933 . S
Zn279 O285 1.941 . S
Zn279 O286 1.965 . S
Zn280 O278 1.950 . S
Zn280 O287 1.938 . S
Zn280 O288 1.906 . S
Zn280 O298 1.953 . S
Zn281 O278 1.945 . S
Zn281 O283 1.932 . S
Zn281 O290 1.977 . S
Zn281 O291 1.910 . S
O282 Zn279 1.933 . S
O282 C293 1.226 . S
O283 Zn281 1.932 . S
O283 C293 1.307 . S
O284 Zn277 1.919 . S
O284 C295 1.253 . S
O285 Zn279 1.941 . S
O285 C295 1.283 . S
O286 Zn279 1.965 . S
O286 C294 1.303 . S
O287 Zn280 1.938 . S
O287 C294 1.247 . S
O288 Zn280 1.906 . S
O288 C296 1.304 . S
O289 Zn277 1.924 . S
O289 C297 1.311 . S
O290 Zn281 1.977 . S
O290 C296 1.272 . S
O291 Zn281 1.910 . S
O291 C297 1.231 . S
C292 O276 1.225 . S
C292 O298 1.298 . S
C293 O282 1.226 . S
C293 O283 1.307 . S
C294 O286 1.303 . S
C294 O287 1.247 . S
C295 O284 1.253 . S
C295 O285 1.283 . S
C296 O288 1.304 . S
C296 O290 1.272 . S
C297 O289 1.311 . S
C297 O291 1.231 . S
O298 Zn280 1.953 . S
O298 C292 1.298 . S
O299 Zn300 1.953 . S
O299 C315 1.225 . S
Zn300 O299 1.953 . S
Zn300 O301 1.949 . S
Zn300 O307 1.919 . S
Zn300 O312 1.924 . S
O301 Zn300 1.949 . S
O301 Zn302 1.923 . S
O301 Zn303 1.950 . S
O301 Zn304 1.945 . S
Zn302 O301 1.923 . S
Zn302 O305 1.933 . S
Zn302 O308 1.941 . S
Zn302 O309 1.965 . S
Zn303 O301 1.950 . S
Zn303 O310 1.938 . S
Zn303 O311 1.906 . S
Zn303 O321 1.953 . S
Zn304 O301 1.945 . S
Zn304 O306 1.932 1_565 S
Zn304 O313 1.977 . S
Zn304 O314 1.910 . S
O305 Zn302 1.933 . S
O305 C316 1.226 1_565 S
O306 Zn304 1.932 1_545 S
O306 C316 1.307 . S
O307 Zn300 1.919 . S
O307 C318 1.253 . S
O308 Zn302 1.941 . S
O308 C318 1.283 . S
O309 Zn302 1.965 . S
O309 C317 1.303 . S
O310 Zn303 1.938 . S
O310 C317 1.247 . S
O311 Zn303 1.906 . S
O311 C319 1.304 . S
O312 Zn300 1.924 . S
O312 C320 1.311 . S
O313 Zn304 1.977 . S
O313 C319 1.272 . S
O314 Zn304 1.910 . S
O314 C320 1.231 . S
C315 O299 1.225 . S
C315 O321 1.298 . S
C316 O305 1.226 1_545 S
C316 O306 1.307 . S
C317 O309 1.303 . S
C317 O310 1.247 . S
C318 O307 1.253 . S
C318 O308 1.283 . S
C319 O311 1.304 . S
C319 O313 1.272 . S
C320 O312 1.311 . S
C320 O314 1.231 . S
O321 Zn303 1.953 . S
O321 C315 1.298 . S
O322 Zn323 1.953 . S
O322 C338 1.225 . S
Zn323 O322 1.953 . S
Zn323 O324 1.949 . S
Zn323 O330 1.919 . S
Zn323 O335 1.924 . S
O324 Zn323 1.949 . S
O324 Zn325 1.923 . S
O324 Zn326 1.950 . S
O324 Zn327 1.945 . S
Zn325 O324 1.923 . S
Zn325 O328 1.933 . S
Zn325 O331 1.941 . S
Zn325 O332 1.965 . S
Zn326 O324 1.950 . S
Zn326 O333 1.938 . S
Zn326 O334 1.906 . S
Zn326 O344 1.953 . S
Zn327 O324 1.945 . S
Zn327 O329 1.932 . S
Zn327 O336 1.977 . S
Zn327 O337 1.910 . S
O328 Zn325 1.933 . S
O328 C339 1.226 . S
O329 Zn327 1.932 . S
O329 C339 1.307 . S
O330 Zn323 1.919 . S
O330 C341 1.253 . S
O331 Zn325 1.941 . S
O331 C341 1.283 . S
O332 Zn325 1.965 . S
O332 C340 1.303 . S
O333 Zn326 1.938 . S
O333 C340 1.247 . S
O334 Zn326 1.906 . S
O334 C342 1.304 . S
O335 Zn323 1.924 . S
O335 C343 1.311 . S
O336 Zn327 1.977 . S
O336 C342 1.272 . S
O337 Zn327 1.910 . S
O337 C343 1.231 . S
C338 O322 1.225 . S
C338 O344 1.298 . S
C339 O328 1.226 . S
C339 O329 1.307 . S
C340 O332 1.303 . S
C340 O333 1.247 . S
C341 O330 1.253 . S
C341 O331 1.283 . S
C342 O334 1.304 . S
C342 O336 1.272 . S
C343 O335 1.311 . S
C343 O337 1.231 . S
O344 Zn326 1.953 . S
O344 C338 1.298 . S
O345 Zn346 1.953 . S
O345 C361 1.225 . S
Zn346 O345 1.953 . S
Zn346 O347 1.949 . S
Zn346 O353 1.919 . S
Zn346 O358 1.924 . S
O347 Zn346 1.949 . S
O347 Zn348 1.923 . S
O347 Zn349 1.950 . S
O347 Zn350 1.945 . S
Zn348 O347 1.923 . S
Zn348 O351 1.933 . S
Zn348 O354 1.941 . S
Zn348 O355 1.965 . S
Zn349 O347 1.950 . S
Zn349 O356 1.938 . S
Zn349 O357 1.906 . S
Zn349 O367 1.953 . S
Zn350 O347 1.945 . S
Zn350 O352 1.932 1_545 S
Zn350 O359 1.977 . S
Zn350 O360 1.910 . S
O351 Zn348 1.933 . S
O351 C362 1.226 1_545 S
O352 Zn350 1.932 1_565 S
O352 C362 1.307 . S
O353 Zn346 1.919 . S
O353 C364 1.253 . S
O354 Zn348 1.941 . S
O354 C364 1.283 . S
O355 Zn348 1.965 . S
O355 C363 1.303 . S
O356 Zn349 1.938 . S
O356 C363 1.247 . S
O357 Zn349 1.906 . S
O357 C365 1.304 . S
O358 Zn346 1.924 . S
O358 C366 1.311 . S
O359 Zn350 1.977 . S
O359 C365 1.272 . S
O360 Zn350 1.910 . S
O360 C366 1.231 . S
C361 O345 1.225 . S
C361 O367 1.298 . S
C362 O351 1.226 1_565 S
C362 O352 1.307 . S
C363 O355 1.303 . S
C363 O356 1.247 . S
C364 O353 1.253 . S
C364 O354 1.283 . S
C365 O357 1.304 . S
C365 O359 1.272 . S
C366 O358 1.311 . S
C366 O360 1.231 . S
O367 Zn349 1.953 . S
O367 C361 1.298 . S
C368 C369 1.391 . S
C368 C370 1.394 . S
C368 H384 0.931 . S
C369 C368 1.391 . S
C369 C373 1.376 . S
C370 C368 1.394 . S
C370 C371 1.369 . S
C370 C374 1.531 . S
C371 C370 1.369 . S
C371 C372 1.410 . S
C371 C379 1.503 . S
C372 C371 1.410 . S
C372 C373 1.392 . S
C372 C375 1.511 . S
C373 C369 1.376 . S
C373 C372 1.392 . S
C373 H385 0.929 . S
C374 C370 1.531 . S
C374 H386 0.960 . S
C374 H387 0.962 . S
C374 H388 0.960 . S
C375 C372 1.511 . S
C375 H389 0.961 . S
C375 H390 0.961 . S
C375 H391 0.961 . S
C376 C377 1.370 . S
C376 C378 1.363 . S
C376 H392 0.931 . S
C377 C376 1.370 . S
C377 C381 1.408 . S
C378 C376 1.363 . S
C378 C379 1.370 . S
C378 C382 1.524 . S
C379 C371 1.503 . S
C379 C378 1.370 . S
C379 C380 1.403 . S
C380 C379 1.403 . S
C380 C381 1.404 . S
C380 C383 1.539 . S
C381 C377 1.408 . S
C381 C380 1.404 . S
C381 H393 0.930 . S
C382 C378 1.524 . S
C382 H394 0.956 . S
C382 H395 0.961 . S
C382 H396 0.961 . S
C383 C380 1.539 . S
C383 H397 0.958 . S
C383 H398 0.961 . S
C383 H399 0.960 . S
H384 C368 0.931 . S
H385 C373 0.929 . S
H386 C374 0.960 . S
H387 C374 0.962 . S
H388 C374 0.960 . S
H389 C375 0.961 . S
H390 C375 0.961 . S
H391 C375 0.961 . S
H392 C376 0.931 . S
H393 C381 0.930 . S
H394 C382 0.956 . S
H395 C382 0.961 . S
H396 C382 0.961 . S
H397 C383 0.958 . S
H398 C383 0.961 . S
H399 C383 0.960 . S
C400 C401 1.391 . S
C400 C402 1.394 . S
C400 H416 0.931 . S
C401 C400 1.391 . S
C401 C405 1.376 . S
C402 C400 1.394 . S
C402 C403 1.369 . S
C402 C406 1.531 . S
C403 C402 1.369 . S
C403 C404 1.410 . S
C403 C411 1.503 . S
C404 C403 1.410 . S
C404 C405 1.392 . S
C404 C407 1.511 . S
C405 C401 1.376 . S
C405 C404 1.392 . S
C405 H417 0.929 . S
C406 C402 1.531 . S
C406 H418 0.960 . S
C406 H419 0.962 . S
C406 H420 0.960 . S
C407 C404 1.511 . S
C407 H421 0.961 . S
C407 H422 0.961 . S
C407 H423 0.961 . S
C408 C409 1.370 . S
C408 C410 1.363 . S
C408 H424 0.931 . S
C409 C408 1.370 . S
C409 C413 1.408 . S
C410 C408 1.363 . S
C410 C411 1.370 . S
C410 C414 1.524 . S
C411 C403 1.503 . S
C411 C410 1.370 . S
C411 C412 1.403 . S
C412 C411 1.403 . S
C412 C413 1.404 . S
C412 C415 1.539 . S
C413 C409 1.408 . S
C413 C412 1.404 . S
C413 H425 0.930 . S
C414 C410 1.524 . S
C414 H426 0.956 . S
C414 H427 0.961 . S
C414 H428 0.961 . S
C415 C412 1.539 . S
C415 H429 0.958 . S
C415 H430 0.961 . S
C415 H431 0.960 . S
H416 C400 0.931 . S
H417 C405 0.929 . S
H418 C406 0.960 . S
H419 C406 0.962 . S
H420 C406 0.960 . S
H421 C407 0.961 . S
H422 C407 0.961 . S
H423 C407 0.961 . S
H424 C408 0.931 . S
H425 C413 0.930 . S
H426 C414 0.956 . S
H427 C414 0.961 . S
H428 C414 0.961 . S
H429 C415 0.958 . S
H430 C415 0.961 . S
H431 C415 0.960 . S
C432 C433 1.391 . S
C432 C434 1.394 . S
C432 H448 0.931 . S
C433 C432 1.391 . S
C433 C437 1.376 . S
C434 C432 1.394 . S
C434 C435 1.369 . S
C434 C438 1.531 . S
C435 C434 1.369 . S
C435 C436 1.410 . S
C435 C443 1.503 1_455 S
C436 C435 1.410 . S
C436 C437 1.392 . S
C436 C439 1.511 1_455 S
C437 C433 1.376 . S
C437 C436 1.392 . S
C437 H449 0.929 . S
C438 C434 1.531 . S
C438 H450 0.960 . S
C438 H451 0.962 . S
C438 H452 0.960 . S
C439 C436 1.511 1_655 S
C439 H453 0.961 . S
C439 H454 0.961 . S
C439 H455 0.961 . S
C440 C441 1.370 . S
C440 C442 1.363 . S
C440 H456 0.931 . S
C441 C440 1.370 . S
C441 C445 1.408 . S
C442 C440 1.363 . S
C442 C443 1.370 . S
C442 C446 1.524 1_655 S
C443 C435 1.503 1_655 S
C443 C442 1.370 . S
C443 C444 1.403 . S
C444 C443 1.403 . S
C444 C445 1.404 . S
C444 C447 1.539 . S
C445 C441 1.408 . S
C445 C444 1.404 . S
C445 H457 0.930 . S
C446 C442 1.524 1_455 S
C446 H458 0.956 . S
C446 H459 0.961 . S
C446 H460 0.961 1_455 S
C447 C444 1.539 . S
C447 H461 0.958 . S
C447 H462 0.961 . S
C447 H463 0.960 . S
H448 C432 0.931 . S
H449 C437 0.929 . S
H450 C438 0.960 . S
H451 C438 0.962 . S
H452 C438 0.960 . S
H453 C439 0.961 . S
H454 C439 0.961 . S
H455 C439 0.961 . S
H456 C440 0.931 . S
H457 C445 0.930 . S
H458 C446 0.956 . S
H459 C446 0.961 . S
H460 C446 0.961 1_655 S
H461 C447 0.958 . S
H462 C447 0.961 . S
H463 C447 0.960 . S
C464 C465 1.391 . S
C464 C466 1.394 1_455 S
C464 H480 0.931 . S
C465 C464 1.391 . S
C465 C469 1.376 . S
C466 C464 1.394 1_655 S
C466 C467 1.369 1_655 S
C466 C470 1.531 . S
C467 C466 1.369 1_455 S
C467 C468 1.410 . S
C467 C475 1.503 1_455 S
C468 C467 1.410 . S
C468 C469 1.392 . S
C468 C471 1.511 . S
C469 C465 1.376 . S
C469 C468 1.392 . S
C469 H481 0.929 . S
C470 C466 1.531 . S
C470 H482 0.960 . S
C470 H483 0.962 . S
C470 H484 0.960 . S
C471 C468 1.511 . S
C471 H485 0.961 . S
C471 H486 0.961 . S
C471 H487 0.961 . S
C472 C473 1.370 . S
C472 C474 1.363 . S
C472 H488 0.931 . S
C473 C472 1.370 . S
C473 C477 1.408 . S
C474 C472 1.363 . S
C474 C475 1.370 . S
C474 C478 1.524 . S
C475 C467 1.503 1_655 S
C475 C474 1.370 . S
C475 C476 1.403 . S
C476 C475 1.403 . S
C476 C477 1.404 . S
C476 C479 1.539 1_655 S
C477 C473 1.408 . S
C477 C476 1.404 . S
C477 H489 0.930 . S
C478 C474 1.524 . S
C478 H490 0.956 . S
C478 H491 0.984 . S
C478 H492 0.961 . S
C479 C476 1.539 1_455 S
C479 H493 0.958 1_455 S
C479 H494 0.961 . S
C479 H495 0.960 . S
H480 C464 0.931 . S
H481 C469 0.929 . S
H482 C470 0.960 . S
H483 C470 0.962 . S
H484 C470 0.960 . S
H485 C471 0.961 . S
H486 C471 0.961 . S
H487 C471 0.961 . S
H488 C472 0.931 . S
H489 C477 0.930 . S
H490 C478 0.956 . S
H491 C478 0.984 . S
H492 C478 0.961 . S
H493 C479 0.958 1_655 S
H494 C479 0.961 . S
H495 C479 0.960 . S
C496 C497 1.391 . S
C496 C498 1.394 . S
C496 H512 0.931 . S
C497 C496 1.391 . S
C497 C501 1.376 . S
C498 C496 1.394 . S
C498 C499 1.369 . S
C498 C502 1.531 . S
C499 C498 1.369 . S
C499 C500 1.410 . S
C499 C507 1.503 . S
C500 C499 1.410 . S
C500 C501 1.392 . S
C500 C503 1.511 . S
C501 C497 1.376 . S
C501 C500 1.392 . S
C501 H513 0.929 . S
C502 C498 1.531 . S
C502 H514 0.960 . S
C502 H515 0.962 . S
C502 H516 0.960 . S
C503 C500 1.511 . S
C503 H517 0.961 . S
C503 H518 0.961 . S
C503 H519 0.961 . S
C504 C505 1.370 . S
C504 C506 1.363 . S
C504 H520 0.931 . S
C505 C504 1.370 . S
C505 C509 1.408 . S
C506 C504 1.363 . S
C506 C507 1.370 . S
C506 C510 1.524 . S
C507 C499 1.503 . S
C507 C506 1.370 . S
C507 C508 1.403 . S
C508 C507 1.403 . S
C508 C509 1.404 . S
C508 C511 1.539 . S
C509 C505 1.408 . S
C509 C508 1.404 . S
C509 H521 0.930 . S
C510 C506 1.524 . S
C510 H522 0.956 . S
C510 H523 0.961 . S
C510 H524 0.961 . S
C511 C508 1.539 . S
C511 H525 0.958 . S
C511 H526 0.961 . S
C511 H527 0.960 . S
H512 C496 0.931 . S
H513 C501 0.929 . S
H514 C502 0.960 . S
H515 C502 0.962 . S
H516 C502 0.960 . S
H517 C503 0.961 . S
H518 C503 0.961 . S
H519 C503 0.961 . S
H520 C504 0.931 . S
H521 C509 0.930 . S
H522 C510 0.956 . S
H523 C510 0.961 . S
H524 C510 0.961 . S
H525 C511 0.958 . S
H526 C511 0.961 . S
H527 C511 0.960 . S
C528 C529 1.391 . S
C528 C530 1.394 . S
C528 H544 0.931 . S
C529 C528 1.391 . S
C529 C533 1.376 . S
C530 C528 1.394 . S
C530 C531 1.369 . S
C530 C534 1.531 . S
C531 C530 1.369 . S
C531 C532 1.410 . S
C531 C539 1.503 . S
C532 C531 1.410 . S
C532 C533 1.392 . S
C532 C535 1.511 . S
C533 C529 1.376 . S
C533 C532 1.392 . S
C533 H545 0.929 . S
C534 C530 1.531 . S
C534 H546 0.960 . S
C534 H547 0.962 . S
C534 H548 0.960 . S
C535 C532 1.511 . S
C535 H549 0.961 . S
C535 H550 0.961 . S
C535 H551 0.961 . S
C536 C537 1.370 . S
C536 C538 1.363 . S
C536 H552 0.931 . S
C537 C536 1.370 . S
C537 C541 1.408 . S
C538 C536 1.363 . S
C538 C539 1.370 . S
C538 C542 1.524 . S
C539 C531 1.503 . S
C539 C538 1.370 . S
C539 C540 1.403 . S
C540 C539 1.403 . S
C540 C541 1.404 . S
C540 C543 1.539 . S
C541 C537 1.408 . S
C541 C540 1.404 . S
C541 H553 0.930 . S
C542 C538 1.524 . S
C542 H554 0.956 . S
C542 H555 0.961 . S
C542 H556 0.961 . S
C543 C540 1.539 . S
C543 H557 0.958 . S
C543 H558 0.961 . S
C543 H559 0.960 . S
H544 C528 0.931 . S
H545 C533 0.929 . S
H546 C534 0.960 . S
H547 C534 0.962 . S
H548 C534 0.960 . S
H549 C535 0.961 . S
H550 C535 0.961 . S
H551 C535 0.961 . S
H552 C536 0.931 . S
H553 C541 0.930 . S
H554 C542 0.956 . S
H555 C542 0.961 . S
H556 C542 0.961 . S
H557 C543 0.958 . S
H558 C543 0.961 . S
H559 C543 0.960 . S
C560 C561 1.391 . S
C560 C562 1.394 . S
C560 H576 0.931 . S
C561 C560 1.391 . S
C561 C565 1.376 . S
C562 C560 1.394 . S
C562 C563 1.369 . S
C562 C566 1.531 1_455 S
C563 C562 1.369 . S
C563 C564 1.410 . S
C563 C571 1.503 1_455 S
C564 C563 1.410 . S
C564 C565 1.392 . S
C564 C567 1.511 . S
C565 C561 1.376 . S
C565 C564 1.392 . S
C565 H577 0.929 . S
C566 C562 1.531 1_655 S
C566 H578 0.960 . S
C566 H579 0.962 . S
C566 H580 0.960 . S
C567 C564 1.511 . S
C567 H581 0.961 . S
C567 H582 0.961 . S
C567 H583 0.961 . S
C568 C569 1.370 . S
C568 C570 1.363 . S
C568 H584 0.931 . S
C569 C568 1.370 . S
C569 C573 1.408 . S
C570 C568 1.363 . S
C570 C571 1.370 . S
C570 C574 1.524 . S
C571 C563 1.503 1_655 S
C571 C570 1.370 . S
C571 C572 1.403 . S
C572 C571 1.403 . S
C572 C573 1.404 . S
C572 C575 1.539 . S
C573 C569 1.408 . S
C573 C572 1.404 . S
C573 H585 0.930 . S
C574 C570 1.524 . S
C574 H586 0.956 . S
C574 H587 0.961 1_655 S
C574 H588 0.961 . S
C575 C572 1.539 . S
C575 H589 0.958 . S
C575 H590 0.961 . S
C575 H591 0.960 1_655 S
H576 C560 0.931 . S
H577 C565 0.929 . S
H578 C566 0.960 . S
H579 C566 0.962 . S
H580 C566 0.960 . S
H581 C567 0.961 . S
H582 C567 0.961 . S
H583 C567 0.961 . S
H584 C568 0.931 . S
H585 C573 0.930 . S
H586 C574 0.956 . S
H587 C574 0.961 1_455 S
H588 C574 0.961 . S
H589 C575 0.958 . S
H590 C575 0.961 . S
H591 C575 0.960 1_455 S
C592 C593 1.391 . S
C592 C594 1.394 . S
C592 H608 0.931 . S
C593 C592 1.391 . S
C593 C597 1.376 . S
C594 C592 1.394 . S
C594 C595 1.369 . S
C594 C598 1.531 . S
C595 C594 1.369 . S
C595 C596 1.410 . S
C595 C603 1.503 1_455 S
C596 C595 1.410 . S
C596 C597 1.392 . S
C596 C599 1.511 1_455 S
C597 C593 1.376 . S
C597 C596 1.392 . S
C597 H609 0.929 . S
C598 C594 1.531 . S
C598 H610 0.960 . S
C598 H611 0.962 . S
C598 H612 0.960 . S
C599 C596 1.511 1_655 S
C599 H613 0.961 . S
C599 H614 0.961 . S
C599 H615 0.961 . S
C600 C601 1.370 . S
C600 C602 1.364 . S
C600 H616 0.931 . S
C601 C600 1.370 . S
C601 C605 1.408 . S
C602 C600 1.364 . S
C602 C603 1.371 . S
C602 C606 1.522 1_655 S
C603 C595 1.503 1_655 S
C603 C602 1.371 . S
C603 C604 1.403 . S
C604 C603 1.403 . S
C604 C605 1.404 . S
C604 C607 1.539 . S
C605 C601 1.408 . S
C605 C604 1.404 . S
C605 H617 0.930 . S
C606 C602 1.522 1_455 S
C606 H618 0.956 . S
C606 H619 0.961 . S
C606 H620 0.961 . S
C607 C604 1.539 . S
C607 H621 0.958 . S
C607 H622 0.961 . S
C607 H623 0.960 . S
H608 C592 0.931 . S
H609 C597 0.929 . S
H610 C598 0.960 . S
H611 C598 0.962 . S
H612 C598 0.960 . S
H613 C599 0.961 . S
H614 C599 0.961 . S
H615 C599 0.961 . S
H616 C600 0.931 . S
H617 C605 0.930 . S
H618 C606 0.956 . S
H619 C606 0.961 . S
H620 C606 0.961 . S
H621 C607 0.958 . S
H622 C607 0.961 . S
H623 C607 0.960 . S
C624 C625 1.391 . S
C624 C626 1.387 1_545 S
C624 H640 0.931 . S
C625 C624 1.391 . S
C625 C629 1.376 . S
C626 C624 1.387 1_565 S
C626 C627 1.361 1_565 S
C626 C630 1.545 1_554 S
C627 C626 1.361 1_545 S
C627 C628 1.410 . S
C627 C635 1.503 1_544 S
C628 C627 1.410 . S
C628 C629 1.392 . S
C628 C631 1.511 . S
C629 C625 1.376 . S
C629 C628 1.392 . S
C629 H641 0.929 . S
C630 C626 1.545 1_556 S
C630 H642 0.960 . S
C630 H643 0.962 . S
C630 H644 0.960 . S
C631 C628 1.511 . S
C631 H645 0.961 . S
C631 H646 0.961 . S
C631 H647 0.961 . S
C632 C633 1.370 . S
C632 C634 1.363 . S
C632 H648 0.931 . S
C633 C632 1.370 . S
C633 C637 1.408 . S
C634 C632 1.363 . S
C634 C635 1.370 . S
C634 C638 1.524 1_556 S
C635 C627 1.503 1_566 S
C635 C634 1.370 . S
C635 C636 1.403 1_565 S
C636 C635 1.403 1_545 S
C636 C637 1.404 1_545 S
C636 C639 1.539 . S
C637 C633 1.408 . S
C637 C636 1.404 1_565 S
C637 H649 0.930 1_565 S
C638 C634 1.524 1_554 S
C638 H650 0.956 . S
C638 H651 0.961 . S
C638 H652 0.961 . S
C639 C636 1.539 . S
C639 H653 0.958 . S
C639 H654 0.961 . S
C639 H655 0.960 . S
H640 C624 0.931 . S
H641 C629 0.929 . S
H642 C630 0.960 . S
H643 C630 0.962 . S
H644 C630 0.960 . S
H645 C631 0.961 . S
H646 C631 0.961 . S
H647 C631 0.961 . S
H648 C632 0.931 . S
H649 C637 0.930 1_545 S
H650 C638 0.956 . S
H651 C638 0.961 . S
H652 C638 0.961 . S
H653 C639 0.958 . S
H654 C639 0.961 . S
H655 C639 0.960 . S
C656 C657 1.391 . S
C656 C658 1.394 . S
C656 H672 0.931 . S
C657 C656 1.391 . S
C657 C661 1.376 . S
C658 C656 1.394 . S
C658 C659 1.369 . S
C658 C662 1.531 . S
C659 C658 1.369 . S
C659 C660 1.410 . S
C659 C667 1.503 . S
C660 C659 1.410 . S
C660 C661 1.392 . S
C660 C663 1.511 . S
C661 C657 1.376 . S
C661 C660 1.392 . S
C661 H673 0.929 . S
C662 C658 1.531 . S
C662 H674 0.960 . S
C662 H675 0.962 . S
C662 H676 0.960 . S
C663 C660 1.511 . S
C663 H677 0.961 . S
C663 H678 0.961 . S
C663 H679 0.961 . S
C664 C665 1.370 . S
C664 C666 1.363 . S
C664 H680 0.931 . S
C665 C664 1.370 . S
C665 C669 1.408 . S
C666 C664 1.363 . S
C666 C667 1.370 . S
C666 C670 1.524 . S
C667 C659 1.503 . S
C667 C666 1.370 . S
C667 C668 1.403 . S
C668 C667 1.403 . S
C668 C669 1.404 . S
C668 C671 1.539 . S
C669 C665 1.408 . S
C669 C668 1.404 . S
C669 H681 0.930 . S
C670 C666 1.524 . S
C670 H682 0.956 . S
C670 H683 0.961 . S
C670 H684 0.961 . S
C671 C668 1.539 . S
C671 H685 0.958 . S
C671 H686 0.961 . S
C671 H687 0.960 . S
H672 C656 0.931 . S
H673 C661 0.929 . S
H674 C662 0.960 . S
H675 C662 0.962 . S
H676 C662 0.960 . S
H677 C663 0.961 . S
H678 C663 0.961 . S
H679 C663 0.961 . S
H680 C664 0.931 . S
H681 C669 0.930 . S
H682 C670 0.956 . S
H683 C670 0.961 . S
H684 C670 0.961 . S
H685 C671 0.958 . S
H686 C671 0.961 . S
H687 C671 0.960 . S
C688 C689 1.391 . S
C688 C690 1.394 1_565 S
C688 H704 0.931 . S
C689 C688 1.391 . S
C689 C693 1.376 . S
C690 C688 1.394 1_545 S
C690 C691 1.370 . S
C690 C694 1.531 1_455 S
C691 C690 1.370 . S
C691 C692 1.406 1_545 S
C691 C699 1.505 1_455 S
C692 C691 1.406 1_565 S
C692 C693 1.392 . S
C692 C695 1.511 . S
C693 C689 1.376 . S
C693 C692 1.392 . S
C693 H705 0.929 . S
C694 C690 1.531 1_655 S
C694 H706 0.960 . S
C694 H707 0.962 . S
C694 H708 0.960 . S
C695 C692 1.511 . S
C695 H709 0.961 . S
C695 H710 0.961 . S
C695 H711 0.961 . S
C696 C697 1.370 . S
C696 C698 1.363 1_545 S
C696 H712 0.931 1_545 S
C697 C696 1.370 . S
C697 C701 1.408 . S
C698 C696 1.363 1_565 S
C698 C699 1.370 1_565 S
C698 C702 1.524 . S
C699 C691 1.505 1_655 S
C699 C698 1.370 1_545 S
C699 C700 1.403 . S
C700 C699 1.403 . S
C700 C701 1.404 . S
C700 C703 1.539 1_655 S
C701 C697 1.408 . S
C701 C700 1.404 . S
C701 H713 0.930 . S
C702 C698 1.524 . S
C702 H714 0.956 . S
C702 H715 0.961 . S
C702 H716 0.961 . S
C703 C700 1.539 1_455 S
C703 H717 0.958 . S
C703 H718 0.961 . S
C703 H719 0.960 . S
H704 C688 0.931 . S
H705 C693 0.929 . S
H706 C694 0.960 . S
H707 C694 0.962 . S
H708 C694 0.960 . S
H709 C695 0.961 . S
H710 C695 0.961 . S
H711 C695 0.961 . S
H712 C696 0.931 1_565 S
H713 C701 0.930 . S
H714 C702 0.956 . S
H715 C702 0.961 . S
H716 C702 0.961 . S
H717 C703 0.958 . S
H718 C703 0.961 . S
H719 C703 0.960 . S
C720 C721 1.391 . S
C720 C722 1.394 . S
C720 H736 0.931 . S
C721 C720 1.391 . S
C721 C725 1.376 . S
C722 C720 1.394 . S
C722 C723 1.369 . S
C722 C726 1.531 . S
C723 C722 1.369 . S
C723 C724 1.410 . S
C723 C731 1.503 . S
C724 C723 1.410 . S
C724 C725 1.392 . S
C724 C727 1.511 . S
C725 C721 1.376 . S
C725 C724 1.392 . S
C725 H737 0.929 . S
C726 C722 1.531 . S
C726 H738 0.960 . S
C726 H739 0.962 . S
C726 H740 0.960 . S
C727 C724 1.511 . S
C727 H741 0.961 . S
C727 H742 0.961 . S
C727 H743 0.961 . S
C728 C729 1.370 . S
C728 C730 1.363 . S
C728 H744 0.931 . S
C729 C728 1.370 . S
C729 C733 1.408 . S
C730 C728 1.363 . S
C730 C731 1.370 . S
C730 C734 1.524 . S
C731 C723 1.503 . S
C731 C730 1.370 . S
C731 C732 1.403 . S
C732 C731 1.403 . S
C732 C733 1.404 . S
C732 C735 1.539 . S
C733 C729 1.408 . S
C733 C732 1.404 . S
C733 H745 0.930 . S
C734 C730 1.524 . S
C734 H746 0.956 . S
C734 H747 0.961 . S
C734 H748 0.961 . S
C735 C732 1.539 . S
C735 H749 0.958 . S
C735 H750 0.961 . S
C735 H751 0.960 . S
H736 C720 0.931 . S
H737 C725 0.929 . S
H738 C726 0.960 . S
H739 C726 0.962 . S
H740 C726 0.960 . S
H741 C727 0.961 . S
H742 C727 0.961 . S
H743 C727 0.961 . S
H744 C728 0.931 . S
H745 C733 0.930 . S
H746 C734 0.956 . S
H747 C734 0.961 . S
H748 C734 0.961 . S
H749 C735 0.958 . S
H750 C735 0.961 . S
H751 C735 0.960 . S
C752 C753 1.391 . S
C752 C754 1.394 . S
C752 H768 0.931 . S
C753 C752 1.391 . S
C753 C757 1.376 . S
C754 C752 1.394 . S
C754 C755 1.369 . S
C754 C758 1.531 . S
C755 C754 1.369 . S
C755 C756 1.410 . S
C755 C763 1.503 . S
C756 C755 1.410 . S
C756 C757 1.392 . S
C756 C759 1.511 . S
C757 C753 1.376 . S
C757 C756 1.392 . S
C757 H769 0.929 . S
C758 C754 1.531 . S
C758 H770 0.960 . S
C758 H771 0.962 . S
C758 H772 0.960 . S
C759 C756 1.511 . S
C759 H773 0.961 . S
C759 H774 0.961 . S
C759 H775 0.961 . S
C760 C761 1.370 . S
C760 C762 1.363 . S
C760 H776 0.931 . S
C761 C760 1.370 . S
C761 C765 1.408 . S
C762 C760 1.363 . S
C762 C763 1.370 . S
C762 C766 1.524 . S
C763 C755 1.503 . S
C763 C762 1.370 . S
C763 C764 1.403 . S
C764 C763 1.403 . S
C764 C765 1.404 . S
C764 C767 1.539 . S
C765 C761 1.408 . S
C765 C764 1.404 . S
C765 H777 0.930 . S
C766 C762 1.524 . S
C766 H778 0.956 . S
C766 H779 0.961 . S
C766 H780 0.961 . S
C767 C764 1.539 . S
C767 H781 0.958 . S
C767 H782 0.961 . S
C767 H783 0.960 . S
H768 C752 0.931 . S
H769 C757 0.929 . S
H770 C758 0.960 . S
H771 C758 0.962 . S
H772 C758 0.960 . S
H773 C759 0.961 . S
H774 C759 0.961 . S
H775 C759 0.961 . S
H776 C760 0.931 . S
H777 C765 0.930 . S
H778 C766 0.956 . S
H779 C766 0.961 . S
H780 C766 0.961 . S
H781 C767 0.958 . S
H782 C767 0.961 . S
H783 C767 0.960 . S
C784 C785 1.391 . S
C784 C786 1.394 . S
C784 H800 0.931 . S
C785 C784 1.391 . S
C785 C789 1.376 . S
C786 C784 1.394 . S
C786 C787 1.369 . S
C786 C790 1.531 . S
C787 C786 1.369 . S
C787 C788 1.410 . S
C787 C795 1.503 . S
C788 C787 1.410 . S
C788 C789 1.392 . S
C788 C791 1.511 . S
C789 C785 1.376 . S
C789 C788 1.392 . S
C789 H801 0.929 . S
C790 C786 1.531 . S
C790 H802 0.960 . S
C790 H803 0.962 . S
C790 H804 0.960 . S
C791 C788 1.511 . S
C791 H805 0.961 . S
C791 H806 0.961 . S
C791 H807 0.961 . S
C792 C793 1.370 . S
C792 C794 1.363 . S
C792 H808 0.931 . S
C793 C792 1.370 . S
C793 C797 1.408 . S
C794 C792 1.363 . S
C794 C795 1.370 . S
C794 C798 1.524 . S
C795 C787 1.503 . S
C795 C794 1.370 . S
C795 C796 1.403 . S
C796 C795 1.403 . S
C796 C797 1.404 . S
C796 C799 1.539 . S
C797 C793 1.408 . S
C797 C796 1.404 . S
C797 H809 0.930 . S
C798 C794 1.524 . S
C798 H810 0.956 . S
C798 H811 0.961 . S
C798 H812 0.961 . S
C799 C796 1.539 . S
C799 H813 0.958 . S
C799 H814 0.961 . S
C799 H815 0.960 . S
H800 C784 0.931 . S
H801 C789 0.929 . S
H802 C790 0.960 . S
H803 C790 0.962 . S
H804 C790 0.960 . S
H805 C791 0.961 . S
H806 C791 0.961 . S
H807 C791 0.961 . S
H808 C792 0.931 . S
H809 C797 0.930 . S
H810 C798 0.956 . S
H811 C798 0.961 . S
H812 C798 0.961 . S
H813 C799 0.958 . S
H814 C799 0.961 . S
H815 C799 0.960 . S
C816 C817 1.391 . S
C816 C818 1.394 . S
C816 H832 0.931 . S
C817 C816 1.391 . S
C817 C821 1.376 . S
C818 C816 1.394 . S
C818 C819 1.369 . S
C818 C822 1.531 1_455 S
C819 C818 1.369 . S
C819 C820 1.410 . S
C819 C827 1.503 1_455 S
C820 C819 1.410 . S
C820 C821 1.392 . S
C820 C823 1.511 . S
C821 C817 1.376 . S
C821 C820 1.392 . S
C821 H833 0.929 . S
C822 C818 1.531 1_655 S
C822 H834 0.960 . S
C822 H835 0.962 . S
C822 H836 0.960 . S
C823 C820 1.511 . S
C823 H837 0.961 . S
C823 H838 0.961 . S
C823 H839 0.961 . S
C824 C825 1.370 . S
C824 C826 1.363 . S
C824 H840 0.931 . S
C825 C824 1.370 . S
C825 C829 1.408 . S
C826 C824 1.363 . S
C826 C827 1.370 . S
C826 C830 1.524 . S
C827 C819 1.503 1_655 S
C827 C826 1.370 . S
C827 C828 1.403 . S
C828 C827 1.403 . S
C828 C829 1.404 . S
C828 C831 1.539 . S
C829 C825 1.408 . S
C829 C828 1.404 . S
C829 H841 0.930 . S
C830 C826 1.524 . S
C830 H842 0.956 . S
C830 H843 0.961 1_655 S
C830 H844 0.961 . S
C831 C828 1.539 . S
C831 H845 0.958 . S
C831 H846 0.961 . S
C831 H847 0.960 . S
H832 C816 0.931 . S
H833 C821 0.929 . S
H834 C822 0.960 . S
H835 C822 0.962 . S
H836 C822 0.960 . S
H837 C823 0.961 . S
H838 C823 0.961 . S
H839 C823 0.961 . S
H840 C824 0.931 . S
H841 C829 0.930 . S
H842 C830 0.956 . S
H843 C830 0.961 1_455 S
H844 C830 0.961 . S
H845 C831 0.958 . S
H846 C831 0.961 . S
H847 C831 0.960 . S
C848 C849 1.391 . S
C848 C850 1.394 . S
C848 H864 0.931 . S
C849 C848 1.391 . S
C849 C853 1.376 . S
C850 C848 1.394 . S
C850 C851 1.369 . S
C850 C854 1.531 1_554 S
C851 C850 1.369 . S
C851 C852 1.410 . S
C851 C859 1.503 1_554 S
C852 C851 1.410 . S
C852 C853 1.392 . S
C852 C855 1.511 . S
C853 C849 1.376 . S
C853 C852 1.392 . S
C853 H865 0.929 . S
C854 C850 1.531 1_556 S
C854 H866 0.960 . S
C854 H867 0.962 . S
C854 H868 0.960 . S
C855 C852 1.511 . S
C855 H869 0.961 . S
C855 H870 0.961 . S
C855 H871 0.961 . S
C856 C857 1.370 . S
C856 C858 1.363 . S
C856 H872 0.931 . S
C857 C856 1.370 . S
C857 C861 1.408 . S
C858 C856 1.363 . S
C858 C859 1.370 . S
C858 C862 1.524 . S
C859 C851 1.503 1_556 S
C859 C858 1.370 . S
C859 C860 1.403 . S
C860 C859 1.403 . S
C860 C861 1.404 . S
C860 C863 1.539 1_556 S
C861 C857 1.408 . S
C861 C860 1.404 . S
C861 H873 0.930 . S
C862 C858 1.524 . S
C862 H874 0.956 . S
C862 H875 0.961 . S
C862 H876 0.961 . S
C863 C860 1.539 1_554 S
C863 H877 0.958 . S
C863 H878 0.961 . S
C863 H879 0.960 . S
H864 C848 0.931 . S
H865 C853 0.929 . S
H866 C854 0.960 . S
H867 C854 0.962 . S
H868 C854 0.960 . S
H869 C855 0.961 . S
H870 C855 0.961 . S
H871 C855 0.961 . S
H872 C856 0.931 . S
H873 C861 0.930 . S
H874 C862 0.956 . S
H875 C862 0.961 . S
H876 C862 0.961 . S
H877 C863 0.958 . S
H878 C863 0.961 . S
H879 C863 0.960 . S
C880 C881 1.391 . S
C880 C882 1.394 . S
C880 H896 0.931 . S
C881 C880 1.391 . S
C881 C885 1.376 . S
C882 C880 1.394 . S
C882 C883 1.369 . S
C882 C886 1.531 . S
C883 C882 1.369 . S
C883 C884 1.410 . S
C883 C891 1.503 . S
C884 C883 1.410 . S
C884 C885 1.392 . S
C884 C887 1.511 . S
C885 C881 1.376 . S
C885 C884 1.392 . S
C885 H897 0.929 . S
C886 C882 1.531 . S
C886 H898 0.960 . S
C886 H899 0.962 . S
C886 H900 0.960 . S
C887 C884 1.511 . S
C887 H901 0.961 . S
C887 H902 0.961 . S
C887 H903 0.961 . S
C888 C889 1.370 . S
C888 C890 1.363 . S
C888 H904 0.931 . S
C889 C888 1.370 . S
C889 C893 1.408 . S
C890 C888 1.363 . S
C890 C891 1.370 . S
C890 C894 1.524 . S
C891 C883 1.503 . S
C891 C890 1.370 . S
C891 C892 1.403 . S
C892 C891 1.403 . S
C892 C893 1.404 . S
C892 C895 1.539 . S
C893 C889 1.408 . S
C893 C892 1.404 . S
C893 H905 0.930 . S
C894 C890 1.524 . S
C894 H906 0.956 . S
C894 H907 0.961 . S
C894 H908 0.961 . S
C895 C892 1.539 . S
C895 H909 0.958 . S
C895 H910 0.961 . S
C895 H911 0.960 . S
H896 C880 0.931 . S
H897 C885 0.929 . S
H898 C886 0.960 . S
H899 C886 0.962 . S
H900 C886 0.960 . S
H901 C887 0.961 . S
H902 C887 0.961 . S
H903 C887 0.961 . S
H904 C888 0.931 . S
H905 C893 0.930 . S
H906 C894 0.956 . S
H907 C894 0.961 . S
H908 C894 0.961 . S
H909 C895 0.958 . S
H910 C895 0.961 . S
H911 C895 0.960 . S
C912 C913 1.391 . S
C912 C914 1.394 . S
C912 H928 0.931 . S
C913 C912 1.391 . S
C913 C917 1.376 . S
C914 C912 1.394 . S
C914 C915 1.369 . S
C914 C918 1.531 . S
C915 C914 1.369 . S
C915 C916 1.410 . S
C915 C923 1.503 . S
C916 C915 1.410 . S
C916 C917 1.392 . S
C916 C919 1.511 . S
C917 C913 1.376 . S
C917 C916 1.392 . S
C917 H929 0.929 . S
C918 C914 1.531 . S
C918 H930 0.960 . S
C918 H931 0.962 . S
C918 H932 0.960 . S
C919 C916 1.511 . S
C919 H933 0.961 . S
C919 H934 0.961 . S
C919 H935 0.961 . S
C920 C921 1.370 . S
C920 C922 1.363 . S
C920 H936 0.931 . S
C921 C920 1.370 . S
C921 C925 1.408 . S
C922 C920 1.363 . S
C922 C923 1.370 . S
C922 C926 1.524 . S
C923 C915 1.503 . S
C923 C922 1.370 . S
C923 C924 1.403 . S
C924 C923 1.403 . S
C924 C925 1.404 . S
C924 C927 1.539 . S
C925 C921 1.408 . S
C925 C924 1.404 . S
C925 H937 0.930 . S
C926 C922 1.524 . S
C926 H938 0.956 . S
C926 H939 0.961 . S
C926 H940 0.961 . S
C927 C924 1.539 . S
C927 H941 0.958 . S
C927 H942 0.961 . S
C927 H943 0.960 . S
H928 C912 0.931 . S
H929 C917 0.929 . S
H930 C918 0.960 . S
H931 C918 0.962 . S
H932 C918 0.960 . S
H933 C919 0.961 . S
H934 C919 0.961 . S
H935 C919 0.961 . S
H936 C920 0.931 . S
H937 C925 0.930 . S
H938 C926 0.956 . S
H939 C926 0.961 . S
H940 C926 0.961 . S
H941 C927 0.958 . S
H942 C927 0.961 . S
H943 C927 0.960 . S
C944 C945 1.391 . S
C944 C946 1.394 . S
C944 H960 0.931 . S
C945 C944 1.391 . S
C945 C949 1.376 . S
C946 C944 1.394 . S
C946 C947 1.369 . S
C946 C950 1.531 . S
C947 C946 1.369 . S
C947 C948 1.410 . S
C947 C955 1.503 . S
C948 C947 1.410 . S
C948 C949 1.392 . S
C948 C951 1.511 . S
C949 C945 1.376 . S
C949 C948 1.392 . S
C949 H961 0.929 . S
C950 C946 1.531 . S
C950 H962 0.960 . S
C950 H963 0.962 . S
C950 H964 0.960 . S
C951 C948 1.511 . S
C951 H965 0.961 . S
C951 H966 0.961 . S
C951 H967 0.961 . S
C952 C953 1.370 . S
C952 C954 1.363 . S
C952 H968 0.931 . S
C953 C952 1.370 . S
C953 C957 1.408 . S
C954 C952 1.363 . S
C954 C955 1.370 . S
C954 C958 1.524 . S
C955 C947 1.503 . S
C955 C954 1.370 . S
C955 C956 1.403 . S
C956 C955 1.403 . S
C956 C957 1.404 . S
C956 C959 1.539 . S
C957 C953 1.408 . S
C957 C956 1.404 . S
C957 H969 0.930 . S
C958 C954 1.524 . S
C958 H970 0.956 . S
C958 H971 0.961 . S
C958 H972 0.961 . S
C959 C956 1.539 . S
C959 H973 0.958 . S
C959 H974 0.961 . S
C959 H975 0.960 . S
H960 C944 0.931 . S
H961 C949 0.929 . S
H962 C950 0.960 . S
H963 C950 0.962 . S
H964 C950 0.960 . S
H965 C951 0.961 . S
H966 C951 0.961 . S
H967 C951 0.961 . S
H968 C952 0.931 . S
H969 C957 0.930 . S
H970 C958 0.956 . S
H971 C958 0.961 . S
H972 C958 0.961 . S
H973 C959 0.958 . S
H974 C959 0.961 . S
H975 C959 0.960 . S
C976 C977 1.391 . S
C976 C978 1.394 . S
C976 H992 0.931 . S
C977 C976 1.391 . S
C977 C981 1.376 . S
C978 C976 1.394 . S
C978 C979 1.369 . S
C978 C982 1.531 . S
C979 C978 1.369 . S
C979 C980 1.410 . S
C979 C987 1.503 . S
C980 C979 1.410 . S
C980 C981 1.392 . S
C980 C983 1.511 . S
C981 C977 1.376 . S
C981 C980 1.392 . S
C981 H993 0.929 . S
C982 C978 1.531 . S
C982 H994 0.960 . S
C982 H995 0.962 . S
C982 H996 0.960 . S
C983 C980 1.511 . S
C983 H997 0.961 . S
C983 H998 0.961 . S
C983 H999 0.961 . S
C984 C985 1.370 . S
C984 C986 1.363 . S
C984 H1000 0.931 . S
C985 C984 1.370 . S
C985 C989 1.408 . S
C986 C984 1.363 . S
C986 C987 1.370 . S
C986 C990 1.524 . S
C987 C979 1.503 . S
C987 C986 1.370 . S
C987 C988 1.403 . S
C988 C987 1.403 . S
C988 C989 1.404 . S
C988 C991 1.539 . S
C989 C985 1.408 . S
C989 C988 1.404 . S
C989 H1001 0.930 . S
C990 C986 1.524 . S
C990 H1002 0.956 . S
C990 H1003 0.961 . S
C990 H1004 0.961 . S
C991 C988 1.539 . S
C991 H1005 0.958 . S
C991 H1006 0.961 . S
C991 H1007 0.960 . S
H992 C976 0.931 . S
H993 C981 0.929 . S
H994 C982 0.960 . S
H995 C982 0.962 . S
H996 C982 0.960 . S
H997 C983 0.961 . S
H998 C983 0.961 . S
H999 C983 0.961 . S
H1000 C984 0.931 . S
H1001 C989 0.930 . S
H1002 C990 0.956 . S
H1003 C990 0.961 . S
H1004 C990 0.961 . S
H1005 C991 0.958 . S
H1006 C991 0.961 . S
H1007 C991 0.960 . S
C1008 C1009 1.391 . S
C1008 C1010 1.394 . S
C1008 H1024 0.931 . S
C1009 C1008 1.391 . S
C1009 C1013 1.376 . S
C1010 C1008 1.394 . S
C1010 C1011 1.369 . S
C1010 C1014 1.531 . S
C1011 C1010 1.369 . S
C1011 C1012 1.410 . S
C1011 C1019 1.503 . S
C1012 C1011 1.410 . S
C1012 C1013 1.392 . S
C1012 C1015 1.511 . S
C1013 C1009 1.376 . S
C1013 C1012 1.392 . S
C1013 H1025 0.929 . S
C1014 C1010 1.531 . S
C1014 H1026 0.960 . S
C1014 H1027 0.962 . S
C1014 H1028 0.960 . S
C1015 C1012 1.511 . S
C1015 H1029 0.961 . S
C1015 H1030 0.961 . S
C1015 H1031 0.961 . S
C1016 C1017 1.370 . S
C1016 C1018 1.363 . S
C1016 H1032 0.931 . S
C1017 C1016 1.370 . S
C1017 C1021 1.408 . S
C1018 C1016 1.363 . S
C1018 C1019 1.370 . S
C1018 C1022 1.524 . S
C1019 C1011 1.503 . S
C1019 C1018 1.370 . S
C1019 C1020 1.403 . S
C1020 C1019 1.403 . S
C1020 C1021 1.404 . S
C1020 C1023 1.539 . S
C1021 C1017 1.408 . S
C1021 C1020 1.404 . S
C1021 H1033 0.930 . S
C1022 C1018 1.524 . S
C1022 H1034 0.956 . S
C1022 H1035 0.961 . S
C1022 H1036 0.961 . S
C1023 C1020 1.539 . S
C1023 H1037 0.958 . S
C1023 H1038 0.961 . S
C1023 H1039 0.960 . S
H1024 C1008 0.931 . S
H1025 C1013 0.929 . S
H1026 C1014 0.960 . S
H1027 C1014 0.962 . S
H1028 C1014 0.960 . S
H1029 C1015 0.961 . S
H1030 C1015 0.961 . S
H1031 C1015 0.961 . S
H1032 C1016 0.931 . S
H1033 C1021 0.930 . S
H1034 C1022 0.956 . S
H1035 C1022 0.961 . S
H1036 C1022 0.961 . S
H1037 C1023 0.958 . S
H1038 C1023 0.961 . S
H1039 C1023 0.960 . S
C1040 C1041 1.391 . S
C1040 C1042 1.394 . S
C1040 H1056 0.931 . S
C1041 C1040 1.391 . S
C1041 C1045 1.376 . S
C1042 C1040 1.394 . S
C1042 C1043 1.369 . S
C1042 C1046 1.531 . S
C1043 C1042 1.369 . S
C1043 C1044 1.410 . S
C1043 C1051 1.503 . S
C1044 C1043 1.410 . S
C1044 C1045 1.392 . S
C1044 C1047 1.511 . S
C1045 C1041 1.376 . S
C1045 C1044 1.392 . S
C1045 H1057 0.929 . S
C1046 C1042 1.531 . S
C1046 H1058 0.960 . S
C1046 H1059 0.962 . S
C1046 H1060 0.960 . S
C1047 C1044 1.511 . S
C1047 H1061 0.961 . S
C1047 H1062 0.961 . S
C1047 H1063 0.961 . S
C1048 C1049 1.370 . S
C1048 C1050 1.363 . S
C1048 H1064 0.931 . S
C1049 C1048 1.370 . S
C1049 C1053 1.408 . S
C1050 C1048 1.363 . S
C1050 C1051 1.370 . S
C1050 C1054 1.524 . S
C1051 C1043 1.503 . S
C1051 C1050 1.370 . S
C1051 C1052 1.403 . S
C1052 C1051 1.403 . S
C1052 C1053 1.404 . S
C1052 C1055 1.539 . S
C1053 C1049 1.408 . S
C1053 C1052 1.404 . S
C1053 H1065 0.930 . S
C1054 C1050 1.524 . S
C1054 H1066 0.956 . S
C1054 H1067 0.961 . S
C1054 H1068 0.961 . S
C1055 C1052 1.539 . S
C1055 H1069 0.958 . S
C1055 H1070 0.961 . S
C1055 H1071 0.960 . S
H1056 C1040 0.931 . S
H1057 C1045 0.929 . S
H1058 C1046 0.960 . S
H1059 C1046 0.962 . S
H1060 C1046 0.960 . S
H1061 C1047 0.961 . S
H1062 C1047 0.961 . S
H1063 C1047 0.961 . S
H1064 C1048 0.931 . S
H1065 C1053 0.930 . S
H1066 C1054 0.956 . S
H1067 C1054 0.961 . S
H1068 C1054 0.961 . S
H1069 C1055 0.958 . S
H1070 C1055 0.961 . S
H1071 C1055 0.960 . S
C1072 C1073 1.391 . S
C1072 C1074 1.394 . S
C1072 H1088 0.931 . S
C1073 C1072 1.391 . S
C1073 C1077 1.376 . S
C1074 C1072 1.394 . S
C1074 C1075 1.369 . S
C1074 C1078 1.531 . S
C1075 C1074 1.369 . S
C1075 C1076 1.410 . S
C1075 C1083 1.503 . S
C1076 C1075 1.410 . S
C1076 C1077 1.392 . S
C1076 C1079 1.511 . S
C1077 C1073 1.376 . S
C1077 C1076 1.392 . S
C1077 H1089 0.929 . S
C1078 C1074 1.531 . S
C1078 H1090 0.960 . S
C1078 H1091 0.962 . S
C1078 H1092 0.960 . S
C1079 C1076 1.511 . S
C1079 H1093 0.961 . S
C1079 H1094 0.961 . S
C1079 H1095 0.961 . S
C1080 C1081 1.370 . S
C1080 C1082 1.363 . S
C1080 H1096 0.931 . S
C1081 C1080 1.370 . S
C1081 C1085 1.408 . S
C1082 C1080 1.363 . S
C1082 C1083 1.370 . S
C1082 C1086 1.524 . S
C1083 C1075 1.503 . S
C1083 C1082 1.370 . S
C1083 C1084 1.403 . S
C1084 C1083 1.403 . S
C1084 C1085 1.404 . S
C1084 C1087 1.539 . S
C1085 C1081 1.408 . S
C1085 C1084 1.404 . S
C1085 H1097 0.930 . S
C1086 C1082 1.524 . S
C1086 H1098 0.956 . S
C1086 H1099 0.961 . S
C1086 H1100 0.961 . S
C1087 C1084 1.539 . S
C1087 H1101 0.958 . S
C1087 H1102 0.961 . S
C1087 H1103 0.960 . S
H1088 C1072 0.931 . S
H1089 C1077 0.929 . S
H1090 C1078 0.960 . S
H1091 C1078 0.962 . S
H1092 C1078 0.960 . S
H1093 C1079 0.961 . S
H1094 C1079 0.961 . S
H1095 C1079 0.961 . S
H1096 C1080 0.931 . S
H1097 C1085 0.930 . S
H1098 C1086 0.956 . S
H1099 C1086 0.961 . S
H1100 C1086 0.961 . S
H1101 C1087 0.958 . S
H1102 C1087 0.961 . S
H1103 C1087 0.960 . S
C1104 C1105 1.391 . S
C1104 C1106 1.394 . S
C1104 H1120 0.931 . S
C1105 C1104 1.391 . S
C1105 C1109 1.376 . S
C1106 C1104 1.394 . S
C1106 C1107 1.369 . S
C1106 C1110 1.531 . S
C1107 C1106 1.369 . S
C1107 C1108 1.410 . S
C1107 C1115 1.503 . S
C1108 C1107 1.410 . S
C1108 C1109 1.392 . S
C1108 C1111 1.511 . S
C1109 C1105 1.376 . S
C1109 C1108 1.392 . S
C1109 H1121 0.929 . S
C1110 C1106 1.531 . S
C1110 H1122 0.960 . S
C1110 H1123 0.962 . S
C1110 H1124 0.960 . S
C1111 C1108 1.511 . S
C1111 H1125 0.961 . S
C1111 H1126 0.961 . S
C1111 H1127 0.961 . S
C1112 C1113 1.370 . S
C1112 C1114 1.363 . S
C1112 H1128 0.931 . S
C1113 C1112 1.370 . S
C1113 C1117 1.408 . S
C1114 C1112 1.363 . S
C1114 C1115 1.370 . S
C1114 C1118 1.524 . S
C1115 C1107 1.503 . S
C1115 C1114 1.370 . S
C1115 C1116 1.403 . S
C1116 C1115 1.403 . S
C1116 C1117 1.404 . S
C1116 C1119 1.539 . S
C1117 C1113 1.408 . S
C1117 C1116 1.404 . S
C1117 H1129 0.930 . S
C1118 C1114 1.524 . S
C1118 H1130 0.956 . S
C1118 H1131 0.961 . S
C1118 H1132 0.961 . S
C1119 C1116 1.539 . S
C1119 H1133 0.958 . S
C1119 H1134 0.961 . S
C1119 H1135 0.960 . S
H1120 C1104 0.931 . S
H1121 C1109 0.929 . S
H1122 C1110 0.960 . S
H1123 C1110 0.962 . S
H1124 C1110 0.960 . S
H1125 C1111 0.961 . S
H1126 C1111 0.961 . S
H1127 C1111 0.961 . S
H1128 C1112 0.931 . S
H1129 C1117 0.930 . S
H1130 C1118 0.956 . S
H1131 C1118 0.961 . S
H1132 C1118 0.961 . S
H1133 C1119 0.958 . S
H1134 C1119 0.961 . S
H1135 C1119 0.960 . S
C1136 C1137 1.391 . S
C1136 C1138 1.394 . S
C1136 H1152 0.931 . S
C1137 C1136 1.391 . S
C1137 C1141 1.376 . S
C1138 C1136 1.394 . S
C1138 C1139 1.369 . S
C1138 C1142 1.531 . S
C1139 C1138 1.369 . S
C1139 C1140 1.410 . S
C1139 C1147 1.503 . S
C1140 C1139 1.410 . S
C1140 C1141 1.392 . S
C1140 C1143 1.511 . S
C1141 C1137 1.376 . S
C1141 C1140 1.392 . S
C1141 H1153 0.929 . S
C1142 C1138 1.531 . S
C1142 H1154 0.960 . S
C1142 H1155 0.962 . S
C1142 H1156 0.960 . S
C1143 C1140 1.511 . S
C1143 H1157 0.961 . S
C1143 H1158 0.961 . S
C1143 H1159 0.961 . S
C1144 C1145 1.370 . S
C1144 C1146 1.363 . S
C1144 H1160 0.931 . S
C1145 C1144 1.370 . S
C1145 C1149 1.408 . S
C1146 C1144 1.363 . S
C1146 C1147 1.370 . S
C1146 C1150 1.524 . S
C1147 C1139 1.503 . S
C1147 C1146 1.370 . S
C1147 C1148 1.403 . S
C1148 C1147 1.403 . S
C1148 C1149 1.404 . S
C1148 C1151 1.539 . S
C1149 C1145 1.408 . S
C1149 C1148 1.404 . S
C1149 H1161 0.930 . S
C1150 C1146 1.524 . S
C1150 H1162 0.956 . S
C1150 H1163 0.961 . S
C1150 H1164 0.961 . S
C1151 C1148 1.539 . S
C1151 H1165 0.958 . S
C1151 H1166 0.961 . S
C1151 H1167 0.960 . S
H1152 C1136 0.931 . S
H1153 C1141 0.929 . S
H1154 C1142 0.960 . S
H1155 C1142 0.962 . S
H1156 C1142 0.960 . S
H1157 C1143 0.961 . S
H1158 C1143 0.961 . S
H1159 C1143 0.961 . S
H1160 C1144 0.931 . S
H1161 C1149 0.930 . S
H1162 C1150 0.956 . S
H1163 C1150 0.961 . S
H1164 C1150 0.961 . S
H1165 C1151 0.958 . S
H1166 C1151 0.961 . S
H1167 C1151 0.960 . S
C1168 C1169 1.391 . S
C1168 C1170 1.394 . S
C1168 H1184 0.931 . S
C1169 C1168 1.391 . S
C1169 C1173 1.376 . S
C1170 C1168 1.394 . S
C1170 C1171 1.369 . S
C1170 C1174 1.531 . S
C1171 C1170 1.369 . S
C1171 C1172 1.410 . S
C1171 C1179 1.503 . S
C1172 C1171 1.410 . S
C1172 C1173 1.392 . S
C1172 C1175 1.511 . S
C1173 C1169 1.376 . S
C1173 C1172 1.392 . S
C1173 H1185 0.929 . S
C1174 C1170 1.531 . S
C1174 H1186 0.960 . S
C1174 H1187 0.962 1_565 S
C1174 H1188 0.960 . S
C1175 C1172 1.511 . S
C1175 H1189 0.961 . S
C1175 H1190 0.961 . S
C1175 H1191 0.961 . S
C1176 C1177 1.370 . S
C1176 C1178 1.363 . S
C1176 H1192 0.931 . S
C1177 C1176 1.370 . S
C1177 C1181 1.408 1_545 S
C1178 C1176 1.363 . S
C1178 C1179 1.370 1_545 S
C1178 C1182 1.524 . S
C1179 C1171 1.503 . S
C1179 C1178 1.370 1_565 S
C1179 C1180 1.403 . S
C1180 C1179 1.403 . S
C1180 C1181 1.404 . S
C1180 C1183 1.539 . S
C1181 C1177 1.408 1_565 S
C1181 C1180 1.404 . S
C1181 H1193 0.930 1_655 S
C1182 C1178 1.524 . S
C1182 H1194 0.956 . S
C1182 H1195 0.961 . S
C1182 H1196 0.961 . S
C1183 C1180 1.539 . S
C1183 H1197 0.958 . S
C1183 H1198 0.961 . S
C1183 H1199 0.960 . S
H1184 C1168 0.931 . S
H1185 C1173 0.929 . S
H1186 C1174 0.960 . S
H1187 C1174 0.962 1_545 S
H1188 C1174 0.960 . S
H1189 C1175 0.961 . S
H1190 C1175 0.961 . S
H1191 C1175 0.961 . S
H1192 C1176 0.931 . S
H1193 C1181 0.930 1_455 S
H1194 C1182 0.956 . S
H1195 C1182 0.961 . S
H1196 C1182 0.961 . S
H1197 C1183 0.958 . S
H1198 C1183 0.961 . S
H1199 C1183 0.960 . S
C1200 C1201 1.391 . S
C1200 C1202 1.394 . S
C1200 H1216 0.931 . S
C1201 C1200 1.391 . S
C1201 C1205 1.376 . S
C1202 C1200 1.394 . S
C1202 C1203 1.369 . S
C1202 C1206 1.531 . S
C1203 C1202 1.369 . S
C1203 C1204 1.410 . S
C1203 C1211 1.503 . S
C1204 C1203 1.410 . S
C1204 C1205 1.392 . S
C1204 C1207 1.511 . S
C1205 C1201 1.376 . S
C1205 C1204 1.392 . S
C1205 H1217 0.929 . S
C1206 C1202 1.531 . S
C1206 H1218 0.960 . S
C1206 H1219 0.962 . S
C1206 H1220 0.960 . S
C1207 C1204 1.511 . S
C1207 H1221 0.961 . S
C1207 H1222 0.961 . S
C1207 H1223 0.961 . S
C1208 C1209 1.370 . S
C1208 C1210 1.363 . S
C1208 H1224 0.931 . S
C1209 C1208 1.370 . S
C1209 C1213 1.408 . S
C1210 C1208 1.363 . S
C1210 C1211 1.370 . S
C1210 C1214 1.524 . S
C1211 C1203 1.503 . S
C1211 C1210 1.370 . S
C1211 C1212 1.403 . S
C1212 C1211 1.403 . S
C1212 C1213 1.404 . S
C1212 C1215 1.539 . S
C1213 C1209 1.408 . S
C1213 C1212 1.404 . S
C1213 H1225 0.930 . S
C1214 C1210 1.524 . S
C1214 H1226 0.956 . S
C1214 H1227 0.961 . S
C1214 H1228 0.961 . S
C1215 C1212 1.539 . S
C1215 H1229 0.958 . S
C1215 H1230 0.961 . S
C1215 H1231 0.960 . S
H1216 C1200 0.931 . S
H1217 C1205 0.929 . S
H1218 C1206 0.960 . S
H1219 C1206 0.962 . S
H1220 C1206 0.960 . S
H1221 C1207 0.961 . S
H1222 C1207 0.961 . S
H1223 C1207 0.961 . S
H1224 C1208 0.931 . S
H1225 C1213 0.930 . S
H1226 C1214 0.956 . S
H1227 C1214 0.961 . S
H1228 C1214 0.961 . S
H1229 C1215 0.958 . S
H1230 C1215 0.961 . S
H1231 C1215 0.960 . S
C1232 C1233 1.391 . S
C1232 C1234 1.394 . S
C1232 H1248 0.931 . S
C1233 C1232 1.391 . S
C1233 C1237 1.376 . S
C1234 C1232 1.394 . S
C1234 C1235 1.369 . S
C1234 C1238 1.531 . S
C1235 C1234 1.369 . S
C1235 C1236 1.410 1_545 S
C1235 C1243 1.503 . S
C1236 C1235 1.410 1_565 S
C1236 C1237 1.392 1_565 S
C1236 C1239 1.511 . S
C1237 C1233 1.376 . S
C1237 C1236 1.392 1_545 S
C1237 H1249 0.929 1_545 S
C1238 C1234 1.531 . S
C1238 H1250 0.960 . S
C1238 H1251 0.962 . S
C1238 H1252 0.960 . S
C1239 C1236 1.511 . S
C1239 H1253 0.961 . S
C1239 H1254 0.961 . S
C1239 H1255 0.961 . S
C1240 C1241 1.370 . S
C1240 C1242 1.363 . S
C1240 H1256 0.931 . S
C1241 C1240 1.370 . S
C1241 C1245 1.408 . S
C1242 C1240 1.363 . S
C1242 C1243 1.370 1_565 S
C1242 C1246 1.524 . S
C1243 C1235 1.503 . S
C1243 C1242 1.370 1_545 S
C1243 C1244 1.403 . S
C1244 C1243 1.403 . S
C1244 C1245 1.404 1_545 S
C1244 C1247 1.539 . S
C1245 C1241 1.408 . S
C1245 C1244 1.404 1_565 S
C1245 H1257 0.930 . S
C1246 C1242 1.524 . S
C1246 H1258 0.956 1_565 S
C1246 H1259 0.961 . S
C1246 H1260 0.961 . S
C1247 C1244 1.539 . S
C1247 H1261 0.958 . S
C1247 H1262 0.961 . S
C1247 H1263 0.960 . S
H1248 C1232 0.931 . S
H1249 C1237 0.929 1_565 S
H1250 C1238 0.960 . S
H1251 C1238 0.962 . S
H1252 C1238 0.960 . S
H1253 C1239 0.961 . S
H1254 C1239 0.961 . S
H1255 C1239 0.961 . S
H1256 C1240 0.931 . S
H1257 C1245 0.930 . S
H1258 C1246 0.956 1_545 S
H1259 C1246 0.961 . S
H1260 C1246 0.961 . S
H1261 C1247 0.958 . S
H1262 C1247 0.961 . S
H1263 C1247 0.960 . S
C1264 C1265 1.391 . S
C1264 C1266 1.394 . S
C1264 H1280 0.931 . S
C1265 C1264 1.391 . S
C1265 C1269 1.376 . S
C1266 C1264 1.394 . S
C1266 C1267 1.369 . S
C1266 C1270 1.531 . S
C1267 C1266 1.369 . S
C1267 C1268 1.410 . S
C1267 C1275 1.503 . S
C1268 C1267 1.410 . S
C1268 C1269 1.392 . S
C1268 C1271 1.511 . S
C1269 C1265 1.376 . S
C1269 C1268 1.392 . S
C1269 H1281 0.929 . S
C1270 C1266 1.531 . S
C1270 H1282 0.960 . S
C1270 H1283 0.962 . S
C1270 H1284 0.960 . S
C1271 C1268 1.511 . S
C1271 H1285 0.961 . S
C1271 H1286 0.961 . S
C1271 H1287 0.961 . S
C1272 C1273 1.370 . S
C1272 C1274 1.363 . S
C1272 H1288 0.931 . S
C1273 C1272 1.370 . S
C1273 C1277 1.408 . S
C1274 C1272 1.363 . S
C1274 C1275 1.370 . S
C1274 C1278 1.524 . S
C1275 C1267 1.503 . S
C1275 C1274 1.370 . S
C1275 C1276 1.403 . S
C1276 C1275 1.403 . S
C1276 C1277 1.404 . S
C1276 C1279 1.539 . S
C1277 C1273 1.408 . S
C1277 C1276 1.404 . S
C1277 H1289 0.930 . S
C1278 C1274 1.524 . S
C1278 H1290 0.956 . S
C1278 H1291 0.961 . S
C1278 H1292 0.961 . S
C1279 C1276 1.539 . S
C1279 H1293 0.958 . S
C1279 H1294 0.961 . S
C1279 H1295 0.960 . S
H1280 C1264 0.931 . S
H1281 C1269 0.929 . S
H1282 C1270 0.960 . S
H1283 C1270 0.962 . S
H1284 C1270 0.960 . S
H1285 C1271 0.961 . S
H1286 C1271 0.961 . S
H1287 C1271 0.961 . S
H1288 C1272 0.931 . S
H1289 C1277 0.930 . S
H1290 C1278 0.956 . S
H1291 C1278 0.961 . S
H1292 C1278 0.961 . S
H1293 C1279 0.958 . S
H1294 C1279 0.961 . S
H1295 C1279 0.960 . S
C1296 C1297 1.391 . S
C1296 C1298 1.394 . S
C1296 H1312 0.931 . S
C1297 C1296 1.391 . S
C1297 C1301 1.376 1_565 S
C1298 C1296 1.394 . S
C1298 C1299 1.350 1_565 S
C1298 C1302 1.531 . S
C1299 C1298 1.350 1_545 S
C1299 C1300 1.422 . S
C1299 C1307 1.512 . S
C1300 C1299 1.422 . S
C1300 C1301 1.392 . S
C1300 C1303 1.511 . S
C1301 C1297 1.376 1_545 S
C1301 C1300 1.392 . S
C1301 H1313 0.929 1_455 S
C1302 C1298 1.531 . S
C1302 H1314 0.960 . S
C1302 H1315 0.962 . S
C1302 H1316 0.960 . S
C1303 C1300 1.511 . S
C1303 H1317 0.961 . S
C1303 H1318 0.961 . S
C1303 H1319 0.961 . S
C1304 C1305 1.370 . S
C1304 C1306 1.363 . S
C1304 H1320 0.931 . S
C1305 C1304 1.370 . S
C1305 C1309 1.408 . S
C1306 C1304 1.363 . S
C1306 C1307 1.370 . S
C1306 C1310 1.524 . S
C1307 C1299 1.512 . S
C1307 C1306 1.370 . S
C1307 C1308 1.403 . S
C1308 C1307 1.403 . S
C1308 C1309 1.404 . S
C1308 C1311 1.539 1_545 S
C1309 C1305 1.408 . S
C1309 C1308 1.404 . S
C1309 H1321 0.930 . S
C1310 C1306 1.524 . S
C1310 H1322 0.956 . S
C1310 H1323 0.961 . S
C1310 H1324 0.961 . S
C1311 C1308 1.539 1_565 S
C1311 H1325 0.958 . S
C1311 H1326 0.961 . S
C1311 H1327 0.960 . S
H1312 C1296 0.931 . S
H1313 C1301 0.929 1_655 S
H1314 C1302 0.960 . S
H1315 C1302 0.962 . S
H1316 C1302 0.960 . S
H1317 C1303 0.961 . S
H1318 C1303 0.961 . S
H1319 C1303 0.961 . S
H1320 C1304 0.931 . S
H1321 C1309 0.930 . S
H1322 C1310 0.956 . S
H1323 C1310 0.961 . S
H1324 C1310 0.961 . S
H1325 C1311 0.958 . S
H1326 C1311 0.961 . S
H1327 C1311 0.960 . S
C1328 C1329 1.391 . S
C1328 C1330 1.394 . S
C1328 H1344 0.931 . S
C1329 C1328 1.391 . S
C1329 C1333 1.376 . S
C1330 C1328 1.394 . S
C1330 C1331 1.369 . S
C1330 C1334 1.531 . S
C1331 C1330 1.369 . S
C1331 C1332 1.410 . S
C1331 C1339 1.503 . S
C1332 C1331 1.410 . S
C1332 C1333 1.392 . S
C1332 C1335 1.511 . S
C1333 C1329 1.376 . S
C1333 C1332 1.392 . S
C1333 H1345 0.929 . S
C1334 C1330 1.531 . S
C1334 H1346 0.960 . S
C1334 H1347 0.962 . S
C1334 H1348 0.960 . S
C1335 C1332 1.511 . S
C1335 H1349 0.961 . S
C1335 H1350 0.961 . S
C1335 H1351 0.961 . S
C1336 C1337 1.370 . S
C1336 C1338 1.363 . S
C1336 H1352 0.931 . S
C1337 C1336 1.370 . S
C1337 C1341 1.408 . S
C1338 C1336 1.363 . S
C1338 C1339 1.370 . S
C1338 C1342 1.524 . S
C1339 C1331 1.503 . S
C1339 C1338 1.370 . S
C1339 C1340 1.403 . S
C1340 C1339 1.403 . S
C1340 C1341 1.404 . S
C1340 C1343 1.539 . S
C1341 C1337 1.408 . S
C1341 C1340 1.404 . S
C1341 H1353 0.930 . S
C1342 C1338 1.524 . S
C1342 H1354 0.956 . S
C1342 H1355 0.961 . S
C1342 H1356 0.961 . S
C1343 C1340 1.539 . S
C1343 H1357 0.958 . S
C1343 H1358 0.961 . S
C1343 H1359 0.960 . S
H1344 C1328 0.931 . S
H1345 C1333 0.929 . S
H1346 C1334 0.960 . S
H1347 C1334 0.962 . S
H1348 C1334 0.960 . S
H1349 C1335 0.961 . S
H1350 C1335 0.961 . S
H1351 C1335 0.961 . S
H1352 C1336 0.931 . S
H1353 C1341 0.930 . S
H1354 C1342 0.956 . S
H1355 C1342 0.961 . S
H1356 C1342 0.961 . S
H1357 C1343 0.958 . S
H1358 C1343 0.961 . S
H1359 C1343 0.960 . S
C1360 C1361 1.391 . S
C1360 C1362 1.394 . S
C1360 H1376 0.931 . S
C1361 C1360 1.391 . S
C1361 C1365 1.376 1_545 S
C1362 C1360 1.394 . S
C1362 C1363 1.369 1_545 S
C1362 C1366 1.531 . S
C1363 C1362 1.369 1_565 S
C1363 C1364 1.410 . S
C1363 C1371 1.503 . S
C1364 C1363 1.410 . S
C1364 C1365 1.392 . S
C1364 C1367 1.511 . S
C1365 C1361 1.376 1_565 S
C1365 C1364 1.392 . S
C1365 H1377 0.929 . S
C1366 C1362 1.531 . S
C1366 H1378 0.960 . S
C1366 H1379 0.962 . S
C1366 H1380 0.960 . S
C1367 C1364 1.511 . S
C1367 H1381 0.961 . S
C1367 H1382 0.961 . S
C1367 H1383 0.961 . S
C1368 C1369 1.370 . S
C1368 C1370 1.363 . S
C1368 H1384 0.931 . S
C1369 C1368 1.370 . S
C1369 C1373 1.408 . S
C1370 C1368 1.363 . S
C1370 C1371 1.370 . S
C1370 C1374 1.524 . S
C1371 C1363 1.503 . S
C1371 C1370 1.370 . S
C1371 C1372 1.403 . S
C1372 C1371 1.403 . S
C1372 C1373 1.404 . S
C1372 C1375 1.539 . S
C1373 C1369 1.408 . S
C1373 C1372 1.404 . S
C1373 H1385 0.930 . S
C1374 C1370 1.524 . S
C1374 H1386 0.956 1_565 S
C1374 H1387 0.961 . S
C1374 H1388 0.961 . S
C1375 C1372 1.539 . S
C1375 H1389 0.958 1_565 S
C1375 H1390 0.961 . S
C1375 H1391 0.960 . S
H1376 C1360 0.931 . S
H1377 C1365 0.929 . S
H1378 C1366 0.960 . S
H1379 C1366 0.962 . S
H1380 C1366 0.960 . S
H1381 C1367 0.961 . S
H1382 C1367 0.961 . S
H1383 C1367 0.961 . S
H1384 C1368 0.931 . S
H1385 C1373 0.930 . S
H1386 C1374 0.956 1_545 S
H1387 C1374 0.961 . S
H1388 C1374 0.961 . S
H1389 C1375 0.958 1_545 S
H1390 C1375 0.961 . S
H1391 C1375 0.960 . S
C1392 C1393 1.391 . S
C1392 C1394 1.394 1_554 S
C1392 H1408 0.931 . S
C1393 C1392 1.391 . S
C1393 C1397 1.376 1_554 S
C1394 C1392 1.394 1_556 S
C1394 C1395 1.369 . S
C1394 C1398 1.531 . S
C1395 C1394 1.369 . S
C1395 C1396 1.410 . S
C1395 C1403 1.503 . S
C1396 C1395 1.410 . S
C1396 C1397 1.392 . S
C1396 C1399 1.511 . S
C1397 C1393 1.376 1_556 S
C1397 C1396 1.392 . S
C1397 H1409 0.929 . S
C1398 C1394 1.531 . S
C1398 H1410 0.960 . S
C1398 H1411 0.962 . S
C1398 H1412 0.960 . S
C1399 C1396 1.511 . S
C1399 H1413 0.961 . S
C1399 H1414 0.961 . S
C1399 H1415 0.961 . S
C1400 C1401 1.370 . S
C1400 C1402 1.363 . S
C1400 H1416 0.931 . S
C1401 C1400 1.370 . S
C1401 C1405 1.408 . S
C1402 C1400 1.363 . S
C1402 C1403 1.370 . S
C1402 C1406 1.524 . S
C1403 C1395 1.503 . S
C1403 C1402 1.370 . S
C1403 C1404 1.403 . S
C1404 C1403 1.403 . S
C1404 C1405 1.404 . S
C1404 C1407 1.539 . S
C1405 C1401 1.408 . S
C1405 C1404 1.404 . S
C1405 H1417 0.930 . S
C1406 C1402 1.524 . S
C1406 H1418 0.956 . S
C1406 H1419 0.961 . S
C1406 H1420 0.961 . S
C1407 C1404 1.539 . S
C1407 H1421 0.958 . S
C1407 H1422 0.961 . S
C1407 H1423 0.960 . S
H1408 C1392 0.931 . S
H1409 C1397 0.929 . S
H1410 C1398 0.960 . S
H1411 C1398 0.962 . S
H1412 C1398 0.960 . S
H1413 C1399 0.961 . S
H1414 C1399 0.961 . S
H1415 C1399 0.961 . S
H1416 C1400 0.931 . S
H1417 C1405 0.930 . S
H1418 C1406 0.956 . S
H1419 C1406 0.961 . S
H1420 C1406 0.961 . S
H1421 C1407 0.958 . S
H1422 C1407 0.961 . S
H1423 C1407 0.960 . S
C1424 C1425 1.391 . S
C1424 C1426 1.394 . S
C1424 H1440 0.931 . S
C1425 C1424 1.391 . S
C1425 C1429 1.376 . S
C1426 C1424 1.394 . S
C1426 C1427 1.369 . S
C1426 C1430 1.531 . S
C1427 C1426 1.369 . S
C1427 C1428 1.410 . S
C1427 C1435 1.503 . S
C1428 C1427 1.410 . S
C1428 C1429 1.392 . S
C1428 C1431 1.511 . S
C1429 C1425 1.376 . S
C1429 C1428 1.392 . S
C1429 H1441 0.929 . S
C1430 C1426 1.531 . S
C1430 H1442 0.960 . S
C1430 H1443 0.962 . S
C1430 H1444 0.960 . S
C1431 C1428 1.511 . S
C1431 H1445 0.961 . S
C1431 H1446 0.961 . S
C1431 H1447 0.961 . S
C1432 C1433 1.370 . S
C1432 C1434 1.363 . S
C1432 H1448 0.931 . S
C1433 C1432 1.370 . S
C1433 C1437 1.408 . S
C1434 C1432 1.363 . S
C1434 C1435 1.370 . S
C1434 C1438 1.524 . S
C1435 C1427 1.503 . S
C1435 C1434 1.370 . S
C1435 C1436 1.403 . S
C1436 C1435 1.403 . S
C1436 C1437 1.404 . S
C1436 C1439 1.539 . S
C1437 C1433 1.408 . S
C1437 C1436 1.404 . S
C1437 H1449 0.930 . S
C1438 C1434 1.524 . S
C1438 H1450 0.956 . S
C1438 H1451 0.961 . S
C1438 H1452 0.961 . S
C1439 C1436 1.539 . S
C1439 H1453 0.958 . S
C1439 H1454 0.961 . S
C1439 H1455 0.960 . S
H1440 C1424 0.931 . S
H1441 C1429 0.929 . S
H1442 C1430 0.960 . S
H1443 C1430 0.962 . S
H1444 C1430 0.960 . S
H1445 C1431 0.961 . S
H1446 C1431 0.961 . S
H1447 C1431 0.961 . S
H1448 C1432 0.931 . S
H1449 C1437 0.930 . S
H1450 C1438 0.956 . S
H1451 C1438 0.961 . S
H1452 C1438 0.961 . S
H1453 C1439 0.958 . S
H1454 C1439 0.961 . S
H1455 C1439 0.960 . S
C1456 C1457 1.391 . S
C1456 C1458 1.394 . S
C1456 H1472 0.931 . S
C1457 C1456 1.391 . S
C1457 C1461 1.376 . S
C1458 C1456 1.394 . S
C1458 C1459 1.369 . S
C1458 C1462 1.531 . S
C1459 C1458 1.369 . S
C1459 C1460 1.410 . S
C1459 C1467 1.503 . S
C1460 C1459 1.410 . S
C1460 C1461 1.392 . S
C1460 C1463 1.511 . S
C1461 C1457 1.376 . S
C1461 C1460 1.392 . S
C1461 H1473 0.929 . S
C1462 C1458 1.531 . S
C1462 H1474 0.960 . S
C1462 H1475 0.962 . S
C1462 H1476 0.960 . S
C1463 C1460 1.511 . S
C1463 H1477 0.961 . S
C1463 H1478 0.961 . S
C1463 H1479 0.961 . S
C1464 C1465 1.370 . S
C1464 C1466 1.363 . S
C1464 H1480 0.931 . S
C1465 C1464 1.370 . S
C1465 C1469 1.408 . S
C1466 C1464 1.363 . S
C1466 C1467 1.370 . S
C1466 C1470 1.524 . S
C1467 C1459 1.503 . S
C1467 C1466 1.370 . S
C1467 C1468 1.403 . S
C1468 C1467 1.403 . S
C1468 C1469 1.404 . S
C1468 C1471 1.539 . S
C1469 C1465 1.408 . S
C1469 C1468 1.404 . S
C1469 H1481 0.930 . S
C1470 C1466 1.524 . S
C1470 H1482 0.956 . S
C1470 H1483 0.961 . S
C1470 H1484 0.961 . S
C1471 C1468 1.539 . S
C1471 H1485 0.958 . S
C1471 H1486 0.961 . S
C1471 H1487 0.960 . S
H1472 C1456 0.931 . S
H1473 C1461 0.929 . S
H1474 C1462 0.960 . S
H1475 C1462 0.962 . S
H1476 C1462 0.960 . S
H1477 C1463 0.961 . S
H1478 C1463 0.961 . S
H1479 C1463 0.961 . S
H1480 C1464 0.931 . S
H1481 C1469 0.930 . S
H1482 C1470 0.956 . S
H1483 C1470 0.961 . S
H1484 C1470 0.961 . S
H1485 C1471 0.958 . S
H1486 C1471 0.961 . S
H1487 C1471 0.960 . S
C1488 C1489 1.391 . S
C1488 C1490 1.394 . S
C1488 H1504 0.931 . S
C1489 C1488 1.391 . S
C1489 C1493 1.376 . S
C1490 C1488 1.394 . S
C1490 C1491 1.369 . S
C1490 C1494 1.531 . S
C1491 C1490 1.369 . S
C1491 C1492 1.410 . S
C1491 C1499 1.503 . S
C1492 C1491 1.410 . S
C1492 C1493 1.392 . S
C1492 C1495 1.511 . S
C1493 C1489 1.376 . S
C1493 C1492 1.392 . S
C1493 H1505 0.929 . S
C1494 C1490 1.531 . S
C1494 H1506 0.960 . S
C1494 H1507 0.962 . S
C1494 H1508 0.960 . S
C1495 C1492 1.511 . S
C1495 H1509 0.961 . S
C1495 H1510 0.961 . S
C1495 H1511 0.961 . S
C1496 C1497 1.370 . S
C1496 C1498 1.363 . S
C1496 H1512 0.931 . S
C1497 C1496 1.370 . S
C1497 C1501 1.408 . S
C1498 C1496 1.363 . S
C1498 C1499 1.370 . S
C1498 C1502 1.524 . S
C1499 C1491 1.503 . S
C1499 C1498 1.370 . S
C1499 C1500 1.403 . S
C1500 C1499 1.403 . S
C1500 C1501 1.404 . S
C1500 C1503 1.539 . S
C1501 C1497 1.408 . S
C1501 C1500 1.404 . S
C1501 H1513 0.930 . S
C1502 C1498 1.524 . S
C1502 H1514 0.956 . S
C1502 H1515 0.961 . S
C1502 H1516 0.961 . S
C1503 C1500 1.539 . S
C1503 H1517 0.958 . S
C1503 H1518 0.961 . S
C1503 H1519 0.960 . S
H1504 C1488 0.931 . S
H1505 C1493 0.929 . S
H1506 C1494 0.960 . S
H1507 C1494 0.962 . S
H1508 C1494 0.960 . S
H1509 C1495 0.961 . S
H1510 C1495 0.961 . S
H1511 C1495 0.961 . S
H1512 C1496 0.931 . S
H1513 C1501 0.930 . S
H1514 C1502 0.956 . S
H1515 C1502 0.961 . S
H1516 C1502 0.961 . S
H1517 C1503 0.958 . S
H1518 C1503 0.961 . S
H1519 C1503 0.960 . S
C1520 C1521 1.391 . S
C1520 C1522 1.394 . S
C1520 H1536 0.931 . S
C1521 C1520 1.391 . S
C1521 C1525 1.376 . S
C1522 C1520 1.394 . S
C1522 C1523 1.369 . S
C1522 C1526 1.531 . S
C1523 C1522 1.369 . S
C1523 C1524 1.410 . S
C1523 C1531 1.503 . S
C1524 C1523 1.410 . S
C1524 C1525 1.392 . S
C1524 C1527 1.511 . S
C1525 C1521 1.376 . S
C1525 C1524 1.392 . S
C1525 H1537 0.929 . S
C1526 C1522 1.531 . S
C1526 H1538 0.960 . S
C1526 H1539 0.962 . S
C1526 H1540 0.960 . S
C1527 C1524 1.511 . S
C1527 H1541 0.961 . S
C1527 H1542 0.961 . S
C1527 H1543 0.961 . S
C1528 C1529 1.370 1_554 S
C1528 C1530 1.363 . S
C1528 H1544 0.931 . S
C1529 C1528 1.370 1_556 S
C1529 C1533 1.408 . S
C1530 C1528 1.363 . S
C1530 C1531 1.370 . S
C1530 C1534 1.524 . S
C1531 C1523 1.503 . S
C1531 C1530 1.370 . S
C1531 C1532 1.403 . S
C1532 C1531 1.403 . S
C1532 C1533 1.404 1_554 S
C1532 C1535 1.539 . S
C1533 C1529 1.408 . S
C1533 C1532 1.404 1_556 S
C1533 H1545 0.930 . S
C1534 C1530 1.524 . S
C1534 H1546 0.956 . S
C1534 H1547 0.961 . S
C1534 H1548 0.961 . S
C1535 C1532 1.539 . S
C1535 H1549 0.958 . S
C1535 H1550 0.961 1_554 S
C1535 H1551 0.960 . S
H1536 C1520 0.931 . S
H1537 C1525 0.929 . S
H1538 C1526 0.960 . S
H1539 C1526 0.962 . S
H1540 C1526 0.960 . S
H1541 C1527 0.961 . S
H1542 C1527 0.961 . S
H1543 C1527 0.961 . S
H1544 C1528 0.931 . S
H1545 C1533 0.930 . S
H1546 C1534 0.956 . S
H1547 C1534 0.961 . S
H1548 C1534 0.961 . S
H1549 C1535 0.958 . S
H1550 C1535 0.961 1_556 S
H1551 C1535 0.960 . S
C1552 C1553 1.391 . S
C1552 C1554 1.394 . S
C1552 H1568 0.931 . S
C1553 C1552 1.391 . S
C1553 C1557 1.376 . S
C1554 C1552 1.394 . S
C1554 C1555 1.369 . S
C1554 C1558 1.531 . S
C1555 C1554 1.369 . S
C1555 C1556 1.410 . S
C1555 C1563 1.503 . S
C1556 C1555 1.410 . S
C1556 C1557 1.392 . S
C1556 C1559 1.511 . S
C1557 C1553 1.376 . S
C1557 C1556 1.392 . S
C1557 H1569 0.929 . S
C1558 C1554 1.531 . S
C1558 H1570 0.960 . S
C1558 H1571 0.962 . S
C1558 H1572 0.960 . S
C1559 C1556 1.511 . S
C1559 H1573 0.961 . S
C1559 H1574 0.961 . S
C1559 H1575 0.961 . S
C1560 C1561 1.370 . S
C1560 C1562 1.363 . S
C1560 H1576 0.931 . S
C1561 C1560 1.370 . S
C1561 C1565 1.408 . S
C1562 C1560 1.363 . S
C1562 C1563 1.370 . S
C1562 C1566 1.524 . S
C1563 C1555 1.503 . S
C1563 C1562 1.370 . S
C1563 C1564 1.403 . S
C1564 C1563 1.403 . S
C1564 C1565 1.404 . S
C1564 C1567 1.539 . S
C1565 C1561 1.408 . S
C1565 C1564 1.404 . S
C1565 H1577 0.930 . S
C1566 C1562 1.524 . S
C1566 H1578 0.956 . S
C1566 H1579 0.961 . S
C1566 H1580 0.961 . S
C1567 C1564 1.539 . S
C1567 H1581 0.958 . S
C1567 H1582 0.961 . S
C1567 H1583 0.960 . S
H1568 C1552 0.931 . S
H1569 C1557 0.929 . S
H1570 C1558 0.960 . S
H1571 C1558 0.962 . S
H1572 C1558 0.960 . S
H1573 C1559 0.961 . S
H1574 C1559 0.961 . S
H1575 C1559 0.961 . S
H1576 C1560 0.931 . S
H1577 C1565 0.930 . S
H1578 C1566 0.956 . S
H1579 C1566 0.961 . S
H1580 C1566 0.961 . S
H1581 C1567 0.958 . S
H1582 C1567 0.961 . S
H1583 C1567 0.960 . S
C1584 C1585 1.391 . S
C1584 C1586 1.394 . S
C1584 H1600 0.931 . S
C1585 C1584 1.391 . S
C1585 C1589 1.376 . S
C1586 C1584 1.394 . S
C1586 C1587 1.369 . S
C1586 C1590 1.531 . S
C1587 C1586 1.369 . S
C1587 C1588 1.410 . S
C1587 C1595 1.503 . S
C1588 C1587 1.410 . S
C1588 C1589 1.392 . S
C1588 C1591 1.511 . S
C1589 C1585 1.376 . S
C1589 C1588 1.392 . S
C1589 H1601 0.929 . S
C1590 C1586 1.531 . S
C1590 H1602 0.960 . S
C1590 H1603 0.962 . S
C1590 H1604 0.960 . S
C1591 C1588 1.511 . S
C1591 H1605 0.961 . S
C1591 H1606 0.961 . S
C1591 H1607 0.961 . S
C1592 C1593 1.370 . S
C1592 C1594 1.363 . S
C1592 H1608 0.931 . S
C1593 C1592 1.370 . S
C1593 C1597 1.408 . S
C1594 C1592 1.363 . S
C1594 C1595 1.370 . S
C1594 C1598 1.524 . S
C1595 C1587 1.503 . S
C1595 C1594 1.370 . S
C1595 C1596 1.403 . S
C1596 C1595 1.403 . S
C1596 C1597 1.404 . S
C1596 C1599 1.539 . S
C1597 C1593 1.408 . S
C1597 C1596 1.404 . S
C1597 H1609 0.930 . S
C1598 C1594 1.524 . S
C1598 H1610 0.956 . S
C1598 H1611 0.961 . S
C1598 H1612 0.961 . S
C1599 C1596 1.539 . S
C1599 H1613 0.958 . S
C1599 H1614 0.961 . S
C1599 H1615 0.960 . S
H1600 C1584 0.931 . S
H1601 C1589 0.929 . S
H1602 C1590 0.960 . S
H1603 C1590 0.962 . S
H1604 C1590 0.960 . S
H1605 C1591 0.961 . S
H1606 C1591 0.961 . S
H1607 C1591 0.961 . S
H1608 C1592 0.931 . S
H1609 C1597 0.930 . S
H1610 C1598 0.956 . S
H1611 C1598 0.961 . S
H1612 C1598 0.961 . S
H1613 C1599 0.958 . S
H1614 C1599 0.961 . S
H1615 C1599 0.960 . S
C1616 C1617 1.391 . S
C1616 C1618 1.394 . S
C1616 H1632 0.931 . S
C1617 C1616 1.391 . S
C1617 C1621 1.376 . S
C1618 C1616 1.394 . S
C1618 C1619 1.369 . S
C1618 C1622 1.531 . S
C1619 C1618 1.369 . S
C1619 C1620 1.410 . S
C1619 C1627 1.503 . S
C1620 C1619 1.410 . S
C1620 C1621 1.392 . S
C1620 C1623 1.511 . S
C1621 C1617 1.376 . S
C1621 C1620 1.392 . S
C1621 H1633 0.929 . S
C1622 C1618 1.531 . S
C1622 H1634 0.960 . S
C1622 H1635 0.962 . S
C1622 H1636 0.960 . S
C1623 C1620 1.511 . S
C1623 H1637 0.961 . S
C1623 H1638 0.961 . S
C1623 H1639 0.961 . S
C1624 C1625 1.370 . S
C1624 C1626 1.363 . S
C1624 H1640 0.931 . S
C1625 C1624 1.370 . S
C1625 C1629 1.408 . S
C1626 C1624 1.363 . S
C1626 C1627 1.370 . S
C1626 C1630 1.524 . S
C1627 C1619 1.503 . S
C1627 C1626 1.370 . S
C1627 C1628 1.403 . S
C1628 C1627 1.403 . S
C1628 C1629 1.404 . S
C1628 C1631 1.539 . S
C1629 C1625 1.408 . S
C1629 C1628 1.404 . S
C1629 H1641 0.930 . S
C1630 C1626 1.524 . S
C1630 H1642 0.956 . S
C1630 H1643 0.961 . S
C1630 H1644 0.961 . S
C1631 C1628 1.539 . S
C1631 H1645 0.958 . S
C1631 H1646 0.961 . S
C1631 H1647 0.960 . S
H1632 C1616 0.931 . S
H1633 C1621 0.929 . S
H1634 C1622 0.960 . S
H1635 C1622 0.962 . S
H1636 C1622 0.960 . S
H1637 C1623 0.961 . S
H1638 C1623 0.961 . S
H1639 C1623 0.961 . S
H1640 C1624 0.931 . S
H1641 C1629 0.930 . S
H1642 C1630 0.956 . S
H1643 C1630 0.961 . S
H1644 C1630 0.961 . S
H1645 C1631 0.958 . S
H1646 C1631 0.961 . S
H1647 C1631 0.960 . S
C1648 C1649 1.391 . S
C1648 C1650 1.394 . S
C1648 H1664 0.931 . S
C1649 C1648 1.391 . S
C1649 C1653 1.376 . S
C1650 C1648 1.394 . S
C1650 C1651 1.369 . S
C1650 C1654 1.531 . S
C1651 C1650 1.369 . S
C1651 C1652 1.410 . S
C1651 C1659 1.503 . S
C1652 C1651 1.410 . S
C1652 C1653 1.392 . S
C1652 C1655 1.511 . S
C1653 C1649 1.376 . S
C1653 C1652 1.392 . S
C1653 H1665 0.929 . S
C1654 C1650 1.531 . S
C1654 H1666 0.960 . S
C1654 H1667 0.962 . S
C1654 H1668 0.960 . S
C1655 C1652 1.511 . S
C1655 H1669 0.961 . S
C1655 H1670 0.961 . S
C1655 H1671 0.961 . S
C1656 C1657 1.370 . S
C1656 C1658 1.363 . S
C1656 H1672 0.931 . S
C1657 C1656 1.370 . S
C1657 C1661 1.408 . S
C1658 C1656 1.363 . S
C1658 C1659 1.370 . S
C1658 C1662 1.524 . S
C1659 C1651 1.503 . S
C1659 C1658 1.370 . S
C1659 C1660 1.403 . S
C1660 C1659 1.403 . S
C1660 C1661 1.404 . S
C1660 C1663 1.539 . S
C1661 C1657 1.408 . S
C1661 C1660 1.404 . S
C1661 H1673 0.930 . S
C1662 C1658 1.524 . S
C1662 H1674 0.956 . S
C1662 H1675 0.961 . S
C1662 H1676 0.961 . S
C1663 C1660 1.539 . S
C1663 H1677 0.958 . S
C1663 H1678 0.961 . S
C1663 H1679 0.960 . S
H1664 C1648 0.931 . S
H1665 C1653 0.929 . S
H1666 C1654 0.960 . S
H1667 C1654 0.962 . S
H1668 C1654 0.960 . S
H1669 C1655 0.961 . S
H1670 C1655 0.961 . S
H1671 C1655 0.961 . S
H1672 C1656 0.931 . S
H1673 C1661 0.930 . S
H1674 C1662 0.956 . S
H1675 C1662 0.961 . S
H1676 C1662 0.961 . S
H1677 C1663 0.958 . S
H1678 C1663 0.961 . S
H1679 C1663 0.960 . S
C1680 C1681 1.391 . S
C1680 C1682 1.394 . S
C1680 H1696 0.931 . S
C1681 C1680 1.391 . S
C1681 C1685 1.376 . S
C1682 C1680 1.394 . S
C1682 C1683 1.369 . S
C1682 C1686 1.531 . S
C1683 C1682 1.369 . S
C1683 C1684 1.410 . S
C1683 C1691 1.503 . S
C1684 C1683 1.410 . S
C1684 C1685 1.392 . S
C1684 C1687 1.511 . S
C1685 C1681 1.376 . S
C1685 C1684 1.392 . S
C1685 H1697 0.929 . S
C1686 C1682 1.531 . S
C1686 H1698 0.960 . S
C1686 H1699 0.962 . S
C1686 H1700 0.960 . S
C1687 C1684 1.511 . S
C1687 H1701 0.961 1_565 S
C1687 H1702 0.961 1_565 S
C1687 H1703 0.961 . S
C1688 C1689 1.370 . S
C1688 C1690 1.363 . S
C1688 H1704 0.931 . S
C1689 C1688 1.370 . S
C1689 C1693 1.408 1_545 S
C1690 C1688 1.363 . S
C1690 C1691 1.370 1_545 S
C1690 C1694 1.524 . S
C1691 C1683 1.503 . S
C1691 C1690 1.370 1_565 S
C1691 C1692 1.403 . S
C1692 C1691 1.403 . S
C1692 C1693 1.404 . S
C1692 C1695 1.539 . S
C1693 C1689 1.408 1_565 S
C1693 C1692 1.404 . S
C1693 H1705 0.930 . S
C1694 C1690 1.524 . S
C1694 H1706 0.958 . S
C1694 H1707 0.961 . S
C1694 H1708 0.961 . S
C1695 C1692 1.539 . S
C1695 H1709 0.958 . S
C1695 H1710 0.961 . S
C1695 H1711 0.960 . S
H1696 C1680 0.931 . S
H1697 C1685 0.929 . S
H1698 C1686 0.960 . S
H1699 C1686 0.962 . S
H1700 C1686 0.960 . S
H1701 C1687 0.961 1_545 S
H1702 C1687 0.961 1_545 S
H1703 C1687 0.961 . S
H1704 C1688 0.931 . S
H1705 C1693 0.930 . S
H1706 C1694 0.958 . S
H1707 C1694 0.961 . S
H1708 C1694 0.961 . S
H1709 C1695 0.958 . S
H1710 C1695 0.961 . S
H1711 C1695 0.960 . S
C1712 C1713 1.391 . S
C1712 C1714 1.394 . S
C1712 H1728 0.931 . S
C1713 C1712 1.391 . S
C1713 C1717 1.376 . S
C1714 C1712 1.394 . S
C1714 C1715 1.369 . S
C1714 C1718 1.531 . S
C1715 C1714 1.369 . S
C1715 C1716 1.410 . S
C1715 C1723 1.503 . S
C1716 C1715 1.410 . S
C1716 C1717 1.392 . S
C1716 C1719 1.511 . S
C1717 C1713 1.376 . S
C1717 C1716 1.392 . S
C1717 H1729 0.929 . S
C1718 C1714 1.531 . S
C1718 H1730 0.960 . S
C1718 H1731 0.962 . S
C1718 H1732 0.960 . S
C1719 C1716 1.511 . S
C1719 H1733 0.961 . S
C1719 H1734 0.961 . S
C1719 H1735 0.961 . S
C1720 C1721 1.370 . S
C1720 C1722 1.363 1_554 S
C1720 H1736 0.931 . S
C1721 C1720 1.370 . S
C1721 C1725 1.408 1_554 S
C1722 C1720 1.363 1_556 S
C1722 C1723 1.370 . S
C1722 C1726 1.524 . S
C1723 C1715 1.503 . S
C1723 C1722 1.370 . S
C1723 C1724 1.403 . S
C1724 C1723 1.403 . S
C1724 C1725 1.404 . S
C1724 C1727 1.539 . S
C1725 C1721 1.408 1_556 S
C1725 C1724 1.404 . S
C1725 H1737 0.930 . S
C1726 C1722 1.524 . S
C1726 H1738 0.956 . S
C1726 H1739 0.961 . S
C1726 H1740 0.961 . S
C1727 C1724 1.539 . S
C1727 H1741 0.958 . S
C1727 H1742 0.961 . S
C1727 H1743 0.960 . S
H1728 C1712 0.931 . S
H1729 C1717 0.929 . S
H1730 C1718 0.960 . S
H1731 C1718 0.962 . S
H1732 C1718 0.960 . S
H1733 C1719 0.961 . S
H1734 C1719 0.961 . S
H1735 C1719 0.961 . S
H1736 C1720 0.931 . S
H1737 C1725 0.930 . S
H1738 C1726 0.956 . S
H1739 C1726 0.961 . S
H1740 C1726 0.961 . S
H1741 C1727 0.958 . S
H1742 C1727 0.961 . S
H1743 C1727 0.960 . S
C1744 C1745 1.391 . S
C1744 C1746 1.394 . S
C1744 H1760 0.931 . S
C1745 C1744 1.391 . S
C1745 C1749 1.376 1_565 S
C1746 C1744 1.394 . S
C1746 C1747 1.369 1_565 S
C1746 C1750 1.531 . S
C1747 C1746 1.369 1_545 S
C1747 C1748 1.410 . S
C1747 C1755 1.503 . S
C1748 C1747 1.410 . S
C1748 C1749 1.392 . S
C1748 C1751 1.511 . S
C1749 C1745 1.376 1_545 S
C1749 C1748 1.392 . S
C1749 H1761 0.929 . S
C1750 C1746 1.531 . S
C1750 H1762 0.960 . S
C1750 H1763 0.962 . S
C1750 H1764 0.960 . S
C1751 C1748 1.511 . S
C1751 H1765 0.961 . S
C1751 H1766 0.961 . S
C1751 H1767 0.961 . S
C1752 C1753 1.370 . S
C1752 C1754 1.363 . S
C1752 H1768 0.931 . S
C1753 C1752 1.370 . S
C1753 C1757 1.408 . S
C1754 C1752 1.363 . S
C1754 C1755 1.370 . S
C1754 C1758 1.524 . S
C1755 C1747 1.503 . S
C1755 C1754 1.370 . S
C1755 C1756 1.403 . S
C1756 C1755 1.403 . S
C1756 C1757 1.404 . S
C1756 C1759 1.539 1_545 S
C1757 C1753 1.408 . S
C1757 C1756 1.404 . S
C1757 H1769 0.930 . S
C1758 C1754 1.524 . S
C1758 H1770 0.956 . S
C1758 H1771 0.961 . S
C1758 H1772 0.961 . S
C1759 C1756 1.539 1_565 S
C1759 H1773 0.958 . S
C1759 H1774 0.961 1_565 S
C1759 H1775 0.960 . S
H1760 C1744 0.931 . S
H1761 C1749 0.929 . S
H1762 C1750 0.960 . S
H1763 C1750 0.962 . S
H1764 C1750 0.960 . S
H1765 C1751 0.961 . S
H1766 C1751 0.961 . S
H1767 C1751 0.961 . S
H1768 C1752 0.931 . S
H1769 C1757 0.930 . S
H1770 C1758 0.956 . S
H1771 C1758 0.961 . S
H1772 C1758 0.961 . S
H1773 C1759 0.958 . S
H1774 C1759 0.961 1_545 S
H1775 C1759 0.960 . S
C1776 C1777 1.391 . S
C1776 C1778 1.394 . S
C1776 H1792 0.931 . S
C1777 C1776 1.391 . S
C1777 C1781 1.376 . S
C1778 C1776 1.394 . S
C1778 C1779 1.369 . S
C1778 C1782 1.531 . S
C1779 C1778 1.369 . S
C1779 C1780 1.410 . S
C1779 C1787 1.503 . S
C1780 C1779 1.410 . S
C1780 C1781 1.392 . S
C1780 C1783 1.511 . S
C1781 C1777 1.376 . S
C1781 C1780 1.392 . S
C1781 H1793 0.929 . S
C1782 C1778 1.531 . S
C1782 H1794 0.960 . S
C1782 H1795 0.962 . S
C1782 H1796 0.960 . S
C1783 C1780 1.511 . S
C1783 H1797 0.961 . S
C1783 H1798 0.961 . S
C1783 H1799 0.961 . S
C1784 C1785 1.370 . S
C1784 C1786 1.363 . S
C1784 H1800 0.931 . S
C1785 C1784 1.370 . S
C1785 C1789 1.408 . S
C1786 C1784 1.363 . S
C1786 C1787 1.370 . S
C1786 C1790 1.524 . S
C1787 C1779 1.503 . S
C1787 C1786 1.370 . S
C1787 C1788 1.403 . S
C1788 C1787 1.403 . S
C1788 C1789 1.404 . S
C1788 C1791 1.539 . S
C1789 C1785 1.408 . S
C1789 C1788 1.404 . S
C1789 H1801 0.930 . S
C1790 C1786 1.524 . S
C1790 H1802 0.956 . S
C1790 H1803 0.961 . S
C1790 H1804 0.961 . S
C1791 C1788 1.539 . S
C1791 H1805 0.958 . S
C1791 H1806 0.961 . S
C1791 H1807 0.960 . S
H1792 C1776 0.931 . S
H1793 C1781 0.929 . S
H1794 C1782 0.960 . S
H1795 C1782 0.962 . S
H1796 C1782 0.960 . S
H1797 C1783 0.961 . S
H1798 C1783 0.961 . S
H1799 C1783 0.961 . S
H1800 C1784 0.931 . S
H1801 C1789 0.930 . S
H1802 C1790 0.956 . S
H1803 C1790 0.961 . S
H1804 C1790 0.961 . S
H1805 C1791 0.958 . S
H1806 C1791 0.961 . S
H1807 C1791 0.960 . S
C1808 C1809 1.391 . S
C1808 C1810 1.394 . S
C1808 H1824 0.931 . S
C1809 C1808 1.391 . S
C1809 C1813 1.376 . S
C1810 C1808 1.394 . S
C1810 C1811 1.369 . S
C1810 C1814 1.531 . S
C1811 C1810 1.369 . S
C1811 C1812 1.410 . S
C1811 C1819 1.503 . S
C1812 C1811 1.410 . S
C1812 C1813 1.392 . S
C1812 C1815 1.511 . S
C1813 C1809 1.376 . S
C1813 C1812 1.392 . S
C1813 H1825 0.929 . S
C1814 C1810 1.531 . S
C1814 H1826 0.960 1_545 S
C1814 H1827 0.962 . S
C1814 H1828 0.960 . S
C1815 C1812 1.511 . S
C1815 H1829 0.961 . S
C1815 H1830 0.961 . S
C1815 H1831 0.961 . S
C1816 C1817 1.370 1_545 S
C1816 C1818 1.363 . S
C1816 H1832 0.931 . S
C1817 C1816 1.370 1_565 S
C1817 C1821 1.408 . S
C1818 C1816 1.363 . S
C1818 C1819 1.370 . S
C1818 C1822 1.524 . S
C1819 C1811 1.503 . S
C1819 C1818 1.370 . S
C1819 C1820 1.403 1_545 S
C1820 C1819 1.403 1_565 S
C1820 C1821 1.404 . S
C1820 C1823 1.539 . S
C1821 C1817 1.408 . S
C1821 C1820 1.404 . S
C1821 H1833 0.930 . S
C1822 C1818 1.524 . S
C1822 H1834 0.956 . S
C1822 H1835 0.961 . S
C1822 H1836 0.961 . S
C1823 C1820 1.539 . S
C1823 H1837 0.958 . S
C1823 H1838 0.961 . S
C1823 H1839 0.960 . S
H1824 C1808 0.931 . S
H1825 C1813 0.929 . S
H1826 C1814 0.960 1_565 S
H1827 C1814 0.962 . S
H1828 C1814 0.960 . S
H1829 C1815 0.961 . S
H1830 C1815 0.961 . S
H1831 C1815 0.961 . S
H1832 C1816 0.931 . S
H1833 C1821 0.930 . S
H1834 C1822 0.956 . S
H1835 C1822 0.961 . S
H1836 C1822 0.961 . S
H1837 C1823 0.958 . S
H1838 C1823 0.961 . S
H1839 C1823 0.960 . S
C1840 C1841 1.391 . S
C1840 C1842 1.394 . S
C1840 H1856 0.931 . S
C1841 C1840 1.391 . S
C1841 C1845 1.376 . S
C1842 C1840 1.394 . S
C1842 C1843 1.369 . S
C1842 C1846 1.531 . S
C1843 C1842 1.369 . S
C1843 C1844 1.410 . S
C1843 C1851 1.503 . S
C1844 C1843 1.410 . S
C1844 C1845 1.392 . S
C1844 C1847 1.511 . S
C1845 C1841 1.376 . S
C1845 C1844 1.392 . S
C1845 H1857 0.929 . S
C1846 C1842 1.531 . S
C1846 H1858 0.960 . S
C1846 H1859 0.962 . S
C1846 H1860 0.960 . S
C1847 C1844 1.511 . S
C1847 H1861 0.961 . S
C1847 H1862 0.961 . S
C1847 H1863 0.961 . S
C1848 C1849 1.370 1_554 S
C1848 C1850 1.363 . S
C1848 H1864 0.931 . S
C1849 C1848 1.370 1_556 S
C1849 C1853 1.408 . S
C1850 C1848 1.363 . S
C1850 C1851 1.370 . S
C1850 C1854 1.524 . S
C1851 C1843 1.503 . S
C1851 C1850 1.370 . S
C1851 C1852 1.403 . S
C1852 C1851 1.403 . S
C1852 C1853 1.404 1_554 S
C1852 C1855 1.539 . S
C1853 C1849 1.408 . S
C1853 C1852 1.404 1_556 S
C1853 H1865 0.930 . S
C1854 C1850 1.524 . S
C1854 H1866 0.956 . S
C1854 H1867 0.961 . S
C1854 H1868 0.961 . S
C1855 C1852 1.539 . S
C1855 H1869 0.958 . S
C1855 H1870 0.961 . S
C1855 H1871 0.960 . S
H1856 C1840 0.931 . S
H1857 C1845 0.929 . S
H1858 C1846 0.960 . S
H1859 C1846 0.962 . S
H1860 C1846 0.960 . S
H1861 C1847 0.961 . S
H1862 C1847 0.961 . S
H1863 C1847 0.961 . S
H1864 C1848 0.931 . S
H1865 C1853 0.930 . S
H1866 C1854 0.956 . S
H1867 C1854 0.961 . S
H1868 C1854 0.961 . S
H1869 C1855 0.958 . S
H1870 C1855 0.961 . S
H1871 C1855 0.960 . S
C1872 C1873 1.391 . S
C1872 C1874 1.394 . S
C1872 H1888 0.931 . S
C1873 C1872 1.391 . S
C1873 C1877 1.376 . S
C1874 C1872 1.394 . S
C1874 C1875 1.369 . S
C1874 C1878 1.531 . S
C1875 C1874 1.369 . S
C1875 C1876 1.410 . S
C1875 C1883 1.503 . S
C1876 C1875 1.410 . S
C1876 C1877 1.392 . S
C1876 C1879 1.511 . S
C1877 C1873 1.376 . S
C1877 C1876 1.392 . S
C1877 H1889 0.929 . S
C1878 C1874 1.531 . S
C1878 H1890 0.960 . S
C1878 H1891 0.962 . S
C1878 H1892 0.960 . S
C1879 C1876 1.511 . S
C1879 H1893 0.961 . S
C1879 H1894 0.961 . S
C1879 H1895 0.961 . S
C1880 C1881 1.370 . S
C1880 C1882 1.363 . S
C1880 H1896 0.931 . S
C1881 C1880 1.370 . S
C1881 C1885 1.408 1_545 S
C1882 C1880 1.363 . S
C1882 C1883 1.370 1_545 S
C1882 C1886 1.524 . S
C1883 C1875 1.503 . S
C1883 C1882 1.370 1_565 S
C1883 C1884 1.403 . S
C1884 C1883 1.403 . S
C1884 C1885 1.404 . S
C1884 C1887 1.539 . S
C1885 C1881 1.408 1_565 S
C1885 C1884 1.404 . S
C1885 H1897 0.930 . S
C1886 C1882 1.524 . S
C1886 H1898 0.956 . S
C1886 H1899 0.961 . S
C1886 H1900 0.961 . S
C1887 C1884 1.539 . S
C1887 H1901 0.958 . S
C1887 H1902 0.961 . S
C1887 H1903 0.960 . S
H1888 C1872 0.931 . S
H1889 C1877 0.929 . S
H1890 C1878 0.960 . S
H1891 C1878 0.962 . S
H1892 C1878 0.960 . S
H1893 C1879 0.961 . S
H1894 C1879 0.961 . S
H1895 C1879 0.961 . S
H1896 C1880 0.931 . S
H1897 C1885 0.930 . S
H1898 C1886 0.956 . S
H1899 C1886 0.961 . S
H1900 C1886 0.961 . S
H1901 C1887 0.958 . S
H1902 C1887 0.961 . S
H1903 C1887 0.960 . S
C369 C16 0.288 . S
C377 C246 0.298 . S
C401 C39 0.295 . S
C409 C269 0.302 . S
C433 C62 0.283 . S
C441 C200 0.294 . S
C465 C223 0.281 . S
C473 C85 0.292 . S
C497 C108 0.333 . S
C505 C338 0.307 . S
C529 C361 0.342 . S
C537 C131 0.312 . S
C561 C292 0.283 . S
C569 C154 0.288 . S
C593 C177 0.305 . S
C601 C315 0.294 . S
C625 C18 2.066 . S
C633 C110 2.072 . S
C657 C41 2.066 . S
C665 C317 2.071 . S
C689 C64 2.069 . S
C697 C156 2.070 . S
C721 C87 2.066 . S
C729 C363 2.071 . S
C753 C133 2.065 . S
C761 C225 2.072 . S
C785 C271 2.065 . S
C793 C179 2.071 . S
C817 C294 2.064 . S
C825 C202 2.072 . S
C849 C248 2.063 . S
C857 C340 2.073 . S
C881 C21 1.802 . S
C889 C178 1.802 . S
C913 C44 1.798 . S
C921 C293 1.795 . S
C945 C67 1.803 . S
C953 C132 1.802 . S
C977 C90 1.804 1_455 S
C985 C339 1.798 . S
C1009 C86 1.805 . S
C1017 C113 1.803 . S
C1041 C136 1.806 . S
C1049 C201 1.802 . S
C1073 C159 1.802 . S
C1081 C40 1.799 . S
C1105 C247 1.785 . S
C1113 C182 1.797 1_655 S
C1137 C205 1.802 . S
C1145 C362 1.797 . S
C1169 C109 1.784 . S
C1177 C228 1.794 1_655 S
C1201 C316 1.789 . S
C1209 C251 1.795 . S
C1233 C155 1.781 . S
C1241 C274 1.797 . S
C1265 C297 1.793 . S
C1273 C270 1.797 . S
C1297 C320 1.804 1_455 S
C1305 C17 1.802 . S
C1329 C224 1.805 . S
C1337 C343 1.803 . S
C1361 C366 1.799 . S
C1369 C63 1.800 . S
C1393 C19 1.139 . S
C1401 C227 1.146 . S
C1425 C250 1.150 . S
C1433 C42 1.125 . S
C1457 C65 1.157 . S
C1465 C273 1.144 . S
C1489 C204 1.147 . S
C1497 C88 1.129 . S
C1521 C319 1.144 . S
C1529 C111 1.139 . S
C1553 C342 1.136 . S
C1561 C134 1.144 . S
C1585 C365 1.144 . S
C1593 C157 1.139 . S
C1617 C296 1.149 . S
C1625 C180 1.132 . S
C1649 C43 1.137 . S
C1657 C203 1.142 . S
C1681 C66 1.145 . S
C1689 C226 1.135 . S
C1713 C89 1.151 . S
C1721 C249 1.124 . S
C1745 C272 1.105 . S
C1753 C20 1.151 . S
C1777 C135 1.140 . S
C1785 C295 1.135 . S
C1809 C158 1.152 . S
C1817 C318 1.123 . S
C1841 C181 1.151 . S
C1849 C341 1.129 . S
C1873 C112 1.138 . S
C1881 C364 1.144 . S
