# Generated by pormake.
# Topology som, (6)-cn, num edge types: 1
# Building blocks:
#     Node 0, Type 0, BuildingBlock: MIFKUJ_clean_sbu_0, # of connection points: 6
#     Node 1, Type 0, BuildingBlock: MIFKUJ_clean_sbu_0, # of connection points: 6
#     Node 2, Type 0, BuildingBlock: MIFKUJ_clean_sbu_0, # of connection points: 6
#     Node 3, Type 0, BuildingBlock: MIFKUJ_clean_sbu_0, # of connection points: 6
#     Node 4, Type 0, BuildingBlock: MIFKUJ_clean_sbu_0, # of connection points: 6
#     Node 5, Type 0, BuildingBlock: MIFKUJ_clean_sbu_0, # of connection points: 6
#     Node 6, Type 0, BuildingBlock: MIFKUJ_clean_sbu_0, # of connection points: 6
#     Node 7, Type 0, BuildingBlock: MIFKUJ_clean_sbu_0, # of connection points: 6
#     Node 8, Type 0, BuildingBlock: MIFKUJ_clean_sbu_0, # of connection points: 6
#     Node 9, Type 0, BuildingBlock: MIFKUJ_clean_sbu_0, # of connection points: 6
#     Node 10, Type 0, BuildingBlock: MIFKUJ_clean_sbu_0, # of connection points: 6
#     Node 11, Type 0, BuildingBlock: MIFKUJ_clean_sbu_0, # of connection points: 6
#     Node 12, Type 0, BuildingBlock: MIFKUJ_clean_sbu_0, # of connection points: 6
#     Node 13, Type 0, BuildingBlock: MIFKUJ_clean_sbu_0, # of connection points: 6
#     Node 14, Type 0, BuildingBlock: MIFKUJ_clean_sbu_0, # of connection points: 6
#     Node 15, Type 0, BuildingBlock: MIFKUJ_clean_sbu_0, # of connection points: 6
#     Node 16, Type 0, BuildingBlock: MIFKUJ_clean_sbu_0, # of connection points: 6
#     Node 17, Type 0, BuildingBlock: MIFKUJ_clean_sbu_0, # of connection points: 6
#     Node 18, Type 0, BuildingBlock: MIFKUJ_clean_sbu_0, # of connection points: 6
#     Node 19, Type 0, BuildingBlock: MIFKUJ_clean_sbu_0, # of connection points: 6
#     Node 20, Type 0, BuildingBlock: MIFKUJ_clean_sbu_0, # of connection points: 6
#     Node 21, Type 0, BuildingBlock: MIFKUJ_clean_sbu_0, # of connection points: 6
#     Node 22, Type 0, BuildingBlock: MIFKUJ_clean_sbu_0, # of connection points: 6
#     Node 23, Type 0, BuildingBlock: MIFKUJ_clean_sbu_0, # of connection points: 6
#     Node 24, Type 0, BuildingBlock: MIFKUJ_clean_sbu_0, # of connection points: 6
#     Node 25, Type 0, BuildingBlock: MIFKUJ_clean_sbu_0, # of connection points: 6
#     Node 26, Type 0, BuildingBlock: MIFKUJ_clean_sbu_0, # of connection points: 6
#     Node 27, Type 0, BuildingBlock: MIFKUJ_clean_sbu_0, # of connection points: 6
#     Node 28, Type 0, BuildingBlock: MIFKUJ_clean_sbu_0, # of connection points: 6
#     Node 29, Type 0, BuildingBlock: MIFKUJ_clean_sbu_0, # of connection points: 6
#     Node 30, Type 0, BuildingBlock: MIFKUJ_clean_sbu_0, # of connection points: 6
#     Node 31, Type 0, BuildingBlock: MIFKUJ_clean_sbu_0, # of connection points: 6
#     Edge 32, Type (0, 0), BuildingBlock: AJUNOK_clean_linker_0, # of connection points: 2
#     Edge 33, Type (0, 0), BuildingBlock: AJUNOK_clean_linker_0, # of connection points: 2
#     Edge 34, Type (0, 0), BuildingBlock: AJUNOK_clean_linker_0, # of connection points: 2
#     Edge 35, Type (0, 0), BuildingBlock: AJUNOK_clean_linker_0, # of connection points: 2
#     Edge 36, Type (0, 0), BuildingBlock: AJUNOK_clean_linker_0, # of connection points: 2
#     Edge 37, Type (0, 0), BuildingBlock: AJUNOK_clean_linker_0, # of connection points: 2
#     Edge 38, Type (0, 0), BuildingBlock: AJUNOK_clean_linker_0, # of connection points: 2
#     Edge 39, Type (0, 0), BuildingBlock: AJUNOK_clean_linker_0, # of connection points: 2
#     Edge 40, Type (0, 0), BuildingBlock: AJUNOK_clean_linker_0, # of connection points: 2
#     Edge 41, Type (0, 0), BuildingBlock: AJUNOK_clean_linker_0, # of connection points: 2
#     Edge 42, Type (0, 0), BuildingBlock: AJUNOK_clean_linker_0, # of connection points: 2
#     Edge 43, Type (0, 0), BuildingBlock: AJUNOK_clean_linker_0, # of connection points: 2
#     Edge 44, Type (0, 0), BuildingBlock: AJUNOK_clean_linker_0, # of connection points: 2
#     Edge 45, Type (0, 0), BuildingBlock: AJUNOK_clean_linker_0, # of connection points: 2
#     Edge 46, Type (0, 0), BuildingBlock: AJUNOK_clean_linker_0, # of connection points: 2
#     Edge 47, Type (0, 0), BuildingBlock: AJUNOK_clean_linker_0, # of connection points: 2
#     Edge 48, Type (0, 0), BuildingBlock: AJUNOK_clean_linker_0, # of connection points: 2
#     Edge 49, Type (0, 0), BuildingBlock: AJUNOK_clean_linker_0, # of connection points: 2
#     Edge 50, Type (0, 0), BuildingBlock: AJUNOK_clean_linker_0, # of connection points: 2
#     Edge 51, Type (0, 0), BuildingBlock: AJUNOK_clean_linker_0, # of connection points: 2
#     Edge 52, Type (0, 0), BuildingBlock: AJUNOK_clean_linker_0, # of connection points: 2
#     Edge 53, Type (0, 0), BuildingBlock: AJUNOK_clean_linker_0, # of connection points: 2
#     Edge 54, Type (0, 0), BuildingBlock: AJUNOK_clean_linker_0, # of connection points: 2
#     Edge 55, Type (0, 0), BuildingBlock: AJUNOK_clean_linker_0, # of connection points: 2
#     Edge 56, Type (0, 0), BuildingBlock: AJUNOK_clean_linker_0, # of connection points: 2
#     Edge 57, Type (0, 0), BuildingBlock: AJUNOK_clean_linker_0, # of connection points: 2
#     Edge 58, Type (0, 0), BuildingBlock: AJUNOK_clean_linker_0, # of connection points: 2
#     Edge 59, Type (0, 0), BuildingBlock: AJUNOK_clean_linker_0, # of connection points: 2
#     Edge 60, Type (0, 0), BuildingBlock: AJUNOK_clean_linker_0, # of connection points: 2
#     Edge 61, Type (0, 0), BuildingBlock: AJUNOK_clean_linker_0, # of connection points: 2
#     Edge 62, Type (0, 0), BuildingBlock: AJUNOK_clean_linker_0, # of connection points: 2
#     Edge 63, Type (0, 0), BuildingBlock: AJUNOK_clean_linker_0, # of connection points: 2
#     Edge 64, Type (0, 0), BuildingBlock: AJUNOK_clean_linker_0, # of connection points: 2
#     Edge 65, Type (0, 0), BuildingBlock: AJUNOK_clean_linker_0, # of connection points: 2
#     Edge 66, Type (0, 0), BuildingBlock: AJUNOK_clean_linker_0, # of connection points: 2
#     Edge 67, Type (0, 0), BuildingBlock: AJUNOK_clean_linker_0, # of connection points: 2
#     Edge 68, Type (0, 0), BuildingBlock: AJUNOK_clean_linker_0, # of connection points: 2
#     Edge 69, Type (0, 0), BuildingBlock: AJUNOK_clean_linker_0, # of connection points: 2
#     Edge 70, Type (0, 0), BuildingBlock: AJUNOK_clean_linker_0, # of connection points: 2
#     Edge 71, Type (0, 0), BuildingBlock: AJUNOK_clean_linker_0, # of connection points: 2
#     Edge 72, Type (0, 0), BuildingBlock: AJUNOK_clean_linker_0, # of connection points: 2
#     Edge 73, Type (0, 0), BuildingBlock: AJUNOK_clean_linker_0, # of connection points: 2
#     Edge 74, Type (0, 0), BuildingBlock: AJUNOK_clean_linker_0, # of connection points: 2
#     Edge 75, Type (0, 0), BuildingBlock: AJUNOK_clean_linker_0, # of connection points: 2
#     Edge 76, Type (0, 0), BuildingBlock: AJUNOK_clean_linker_0, # of connection points: 2
#     Edge 77, Type (0, 0), BuildingBlock: AJUNOK_clean_linker_0, # of connection points: 2
#     Edge 78, Type (0, 0), BuildingBlock: AJUNOK_clean_linker_0, # of connection points: 2
#     Edge 79, Type (0, 0), BuildingBlock: AJUNOK_clean_linker_0, # of connection points: 2
#     Edge 80, Type (0, 0), BuildingBlock: AJUNOK_clean_linker_0, # of connection points: 2
#     Edge 81, Type (0, 0), BuildingBlock: AJUNOK_clean_linker_0, # of connection points: 2
#     Edge 82, Type (0, 0), BuildingBlock: AJUNOK_clean_linker_0, # of connection points: 2
#     Edge 83, Type (0, 0), BuildingBlock: AJUNOK_clean_linker_0, # of connection points: 2
#     Edge 84, Type (0, 0), BuildingBlock: AJUNOK_clean_linker_0, # of connection points: 2
#     Edge 85, Type (0, 0), BuildingBlock: AJUNOK_clean_linker_0, # of connection points: 2
#     Edge 86, Type (0, 0), BuildingBlock: AJUNOK_clean_linker_0, # of connection points: 2
#     Edge 87, Type (0, 0), BuildingBlock: AJUNOK_clean_linker_0, # of connection points: 2
#     Edge 88, Type (0, 0), BuildingBlock: AJUNOK_clean_linker_0, # of connection points: 2
#     Edge 89, Type (0, 0), BuildingBlock: AJUNOK_clean_linker_0, # of connection points: 2
#     Edge 90, Type (0, 0), BuildingBlock: AJUNOK_clean_linker_0, # of connection points: 2
#     Edge 91, Type (0, 0), BuildingBlock: AJUNOK_clean_linker_0, # of connection points: 2
#     Edge 92, Type (0, 0), BuildingBlock: AJUNOK_clean_linker_0, # of connection points: 2
#     Edge 93, Type (0, 0), BuildingBlock: AJUNOK_clean_linker_0, # of connection points: 2
#     Edge 94, Type (0, 0), BuildingBlock: AJUNOK_clean_linker_0, # of connection points: 2
#     Edge 95, Type (0, 0), BuildingBlock: AJUNOK_clean_linker_0, # of connection points: 2
#     Edge 96, Type (0, 0), BuildingBlock: AJUNOK_clean_linker_0, # of connection points: 2
#     Edge 97, Type (0, 0), BuildingBlock: AJUNOK_clean_linker_0, # of connection points: 2
#     Edge 98, Type (0, 0), BuildingBlock: AJUNOK_clean_linker_0, # of connection points: 2
#     Edge 99, Type (0, 0), BuildingBlock: AJUNOK_clean_linker_0, # of connection points: 2
#     Edge 100, Type (0, 0), BuildingBlock: AJUNOK_clean_linker_0, # of connection points: 2
#     Edge 101, Type (0, 0), BuildingBlock: AJUNOK_clean_linker_0, # of connection points: 2
#     Edge 102, Type (0, 0), BuildingBlock: AJUNOK_clean_linker_0, # of connection points: 2
#     Edge 103, Type (0, 0), BuildingBlock: AJUNOK_clean_linker_0, # of connection points: 2
#     Edge 104, Type (0, 0), BuildingBlock: AJUNOK_clean_linker_0, # of connection points: 2
#     Edge 105, Type (0, 0), BuildingBlock: AJUNOK_clean_linker_0, # of connection points: 2
#     Edge 106, Type (0, 0), BuildingBlock: AJUNOK_clean_linker_0, # of connection points: 2
#     Edge 107, Type (0, 0), BuildingBlock: AJUNOK_clean_linker_0, # of connection points: 2
#     Edge 108, Type (0, 0), BuildingBlock: AJUNOK_clean_linker_0, # of connection points: 2
#     Edge 109, Type (0, 0), BuildingBlock: AJUNOK_clean_linker_0, # of connection points: 2
#     Edge 110, Type (0, 0), BuildingBlock: AJUNOK_clean_linker_0, # of connection points: 2
#     Edge 111, Type (0, 0), BuildingBlock: AJUNOK_clean_linker_0, # of connection points: 2
#     Edge 112, Type (0, 0), BuildingBlock: AJUNOK_clean_linker_0, # of connection points: 2
#     Edge 113, Type (0, 0), BuildingBlock: AJUNOK_clean_linker_0, # of connection points: 2
#     Edge 114, Type (0, 0), BuildingBlock: AJUNOK_clean_linker_0, # of connection points: 2
#     Edge 115, Type (0, 0), BuildingBlock: AJUNOK_clean_linker_0, # of connection points: 2
#     Edge 116, Type (0, 0), BuildingBlock: AJUNOK_clean_linker_0, # of connection points: 2
#     Edge 117, Type (0, 0), BuildingBlock: AJUNOK_clean_linker_0, # of connection points: 2
#     Edge 118, Type (0, 0), BuildingBlock: AJUNOK_clean_linker_0, # of connection points: 2
#     Edge 119, Type (0, 0), BuildingBlock: AJUNOK_clean_linker_0, # of connection points: 2
#     Edge 120, Type (0, 0), BuildingBlock: AJUNOK_clean_linker_0, # of connection points: 2
#     Edge 121, Type (0, 0), BuildingBlock: AJUNOK_clean_linker_0, # of connection points: 2
#     Edge 122, Type (0, 0), BuildingBlock: AJUNOK_clean_linker_0, # of connection points: 2
#     Edge 123, Type (0, 0), BuildingBlock: AJUNOK_clean_linker_0, # of connection points: 2
#     Edge 124, Type (0, 0), BuildingBlock: AJUNOK_clean_linker_0, # of connection points: 2
#     Edge 125, Type (0, 0), BuildingBlock: AJUNOK_clean_linker_0, # of connection points: 2
#     Edge 126, Type (0, 0), BuildingBlock: AJUNOK_clean_linker_0, # of connection points: 2
#     Edge 127, Type (0, 0), BuildingBlock: AJUNOK_clean_linker_0, # of connection points: 2
# Relax obj value: 0.046
# Max RMSD: 0.096
# Mean RMSD: 0.096
data_MOF--net-som--node1-MIFKUJ_clean_sbu_0--edge1-AJUNOK_clean_linker_0
_symmetry_space_group_name_H-M    P1
_symmetry_Int_Tables_number       1
_symmetry_cell_setting            triclinic
loop_
_symmetry_equiv_pos_as_xyz
'x, y, z'
_cell_length_a     14.79542
_cell_length_b     50.38844
_cell_length_c     81.127957
_cell_angle_alpha  90.128521
_cell_angle_beta   90.222546
_cell_angle_gamma 90.117927
loop_
_atom_site_label
_atom_site_type_symbol
_atom_site_fract_x
_atom_site_fract_y
_atom_site_fract_z
_atom_type_partial_charge
Zn0 Zn 0.16794 0.54124 0.04549 0.0
Zn1 Zn 0.9189 0.49667 0.0459 0.0
C2 C 0.18814 0.59508 0.03866 0.0
O3 O 0.22689 0.58367 0.02594 0.0
C4 C 0.86564 0.44486 0.05231 0.0
O5 O 0.83061 0.45795 0.06476 0.0
O6 O 0.29396 0.52647 0.0461 0.0
O7 O 0.08051 0.52123 0.05896 0.0
O8 O 0.96865 0.49944 0.06931 0.0
C9 C 0.36313 0.53969 0.05048 0.0
O10 O 0.3524 0.56385 0.05624 0.0
O11 O 0.16052 0.5805 0.05035 0.0
C12 C 0.72843 0.50131 0.03841 0.0
O13 O 0.74453 0.48024 0.02934 0.0
O14 O 0.79395 0.51267 0.04579 0.0
O15 O 1.00181 0.51301 0.0285 0.0
O16 O 0.12436 0.53583 0.02225 0.0
O17 O 0.90863 0.45774 0.04143 0.0
C18 C 0.04405 0.5109 0.07145 0.0
C19 C 0.05377 0.52324 0.01773 0.0
Zn20 Zn 0.09947 0.76266 0.04311 0.0
Zn21 Zn 0.33313 0.78128 0.04674 0.0
C22 C 0.09878 0.70765 0.03722 0.0
O23 O 0.05087 0.71693 0.02485 0.0
C24 C 0.364 0.83537 0.05556 0.0
O25 O 0.40464 0.82315 0.0678 0.0
O26 O 0.96539 0.76678 0.0402 0.0
O27 O 0.13818 0.78741 0.0607 0.0
O28 O 0.26732 0.76878 0.06713 0.0
C29 C 0.90587 0.75955 0.0505 0.0
O30 O 0.93164 0.74803 0.06425 0.0
O31 O 0.1282 0.7239 0.04801 0.0
C32 C 0.5225 0.78102 0.03953 0.0
O33 O 0.49328 0.7944 0.0267 0.0
O34 O 0.46534 0.77302 0.05009 0.0
O35 O 0.2996 0.76479 0.025 0.0
O36 O 0.1526 0.7724 0.02172 0.0
O37 O 0.32501 0.82156 0.04448 0.0
C38 C 0.18942 0.77689 0.0713 0.0
C39 C 0.23117 0.76914 0.01589 0.0
Zn40 Zn 0.15983 0.7586 0.1699 0.0
Zn41 Zn 0.92884 0.77989 0.16422 0.0
C42 C 0.17556 0.70072 0.16951 0.0
O43 O 0.26125 0.70616 0.17212 0.0
C44 C 0.87888 0.83519 0.16078 0.0
O45 O 0.80779 0.82435 0.15375 0.0
O46 O 0.29661 0.75976 0.17318 0.0
O47 O 0.13517 0.77614 0.14857 0.0
O48 O 0.99014 0.76799 0.14331 0.0
C49 C 0.35197 0.76486 0.16161 0.0
O50 O 0.32045 0.77006 0.14682 0.0
O51 O 0.11951 0.71981 0.16839 0.0
C52 C 0.74041 0.77218 0.17312 0.0
O53 O 0.77185 0.77599 0.18811 0.0
O54 O 0.79488 0.77248 0.16103 0.0
O55 O 0.96421 0.76224 0.18576 0.0
O56 O 0.10479 0.77628 0.18952 0.0
O57 O 0.94173 0.82025 0.16621 0.0
C58 C 0.07134 0.77101 0.13861 0.0
C59 C 0.0289 0.76911 0.19523 0.0
Zn60 Zn 0.09506 0.53288 0.16746 0.0
Zn61 Zn 0.33447 0.50074 0.16256 0.0
C62 C 0.07118 0.5892 0.16785 0.0
O63 O 0.0032 0.58209 0.17723 0.0
C64 C 0.39852 0.44613 0.15878 0.0
O65 O 0.47536 0.45759 0.15496 0.0
O66 O 0.96107 0.52768 0.17117 0.0
O67 O 0.13016 0.50669 0.14979 0.0
O68 O 0.26982 0.51433 0.14199 0.0
C69 C 0.90052 0.53412 0.16078 0.0
O70 O 0.92423 0.54548 0.1469 0.0
O71 O 0.12097 0.5713 0.16153 0.0
C72 C 0.52146 0.50958 0.17238 0.0
O73 O 0.49359 0.49983 0.18649 0.0
O74 O 0.46528 0.51201 0.16058 0.0
O75 O 0.29172 0.5108 0.18557 0.0
O76 O 0.15351 0.52695 0.18928 0.0
O77 O 0.33011 0.4605 0.16198 0.0
C78 C 0.18618 0.51244 0.13854 0.0
C79 C 0.22928 0.51938 0.19492 0.0
Zn80 Zn 0.08573 0.5328 0.91486 0.0
Zn81 Zn 0.84654 0.50491 0.91952 0.0
C82 C 0.12246 0.5861 0.904 0.0
O83 O 0.16221 0.57335 0.8919 0.0
C84 C 0.83928 0.45016 0.92279 0.0
O85 O 0.79213 0.45939 0.93523 0.0
O86 O 0.2153 0.52166 0.91201 0.0
O87 O 0.04362 0.52198 0.93743 0.0
O88 O 0.90193 0.5097 0.9421 0.0
C89 C 0.2785 0.53198 0.92052 0.0
O90 O 0.25805 0.54956 0.93189 0.0
O91 O 0.08388 0.57294 0.9153 0.0
C92 C 0.65797 0.50603 0.91019 0.0
O93 O 0.68935 0.49766 0.89597 0.0
O94 O 0.71286 0.50994 0.92204 0.0
O95 O 0.8846 0.53174 0.90267 0.0
O96 O 0.01914 0.51933 0.89469 0.0
O97 O 0.87103 0.46667 0.91246 0.0
C98 C 0.98144 0.5148 0.94725 0.0
C99 C 0.93631 0.52328 0.89146 0.0
Zn100 Zn 0.67569 0.25545 0.91313 0.0
Zn101 Zn 0.91568 0.28239 0.9168 0.0
C102 C 0.61606 0.20112 0.90676 0.0
O103 O 0.55382 0.21305 0.89791 0.0
C104 C 0.92324 0.33694 0.9213 0.0
O105 O 0.96999 0.32687 0.93357 0.0
O106 O 0.54618 0.26696 0.91111 0.0
O107 O 0.71983 0.26713 0.93564 0.0
O108 O 0.86492 0.27777 0.93903 0.0
C109 C 0.48391 0.25766 0.92017 0.0
O110 O 0.50478 0.24017 0.93156 0.0
O111 O 0.67732 0.21503 0.91369 0.0
C112 C 0.10568 0.28389 0.90892 0.0
O113 O 0.07784 0.29671 0.89576 0.0
O114 O 0.04818 0.27624 0.91944 0.0
O115 O 0.87173 0.25476 0.90105 0.0
O116 O 0.73928 0.26815 0.8925 0.0
O117 O 0.89208 0.32111 0.91039 0.0
C118 C 0.78644 0.27383 0.94472 0.0
C119 C 0.82115 0.26258 0.88949 0.0
Zn120 Zn 0.08797 0.25137 0.79651 0.0
Zn121 Zn 0.84717 0.28193 0.79274 0.0
C122 C 0.12665 0.19816 0.80713 0.0
O123 O 0.16025 0.21084 0.81993 0.0
C124 C 0.83966 0.33625 0.78745 0.0
O125 O 0.79226 0.326 0.77527 0.0
O126 O 0.21601 0.26364 0.79932 0.0
O127 O 0.04631 0.262 0.77385 0.0
O128 O 0.90295 0.27434 0.77086 0.0
C129 C 0.27842 0.25529 0.78997 0.0
O130 O 0.25759 0.23895 0.77788 0.0
O131 O 0.091 0.2113 0.7955 0.0
C132 C 0.65664 0.28359 0.80029 0.0
O133 O 0.6857 0.29515 0.81382 0.0
O134 O 0.71363 0.27687 0.78939 0.0
O135 O 0.8787 0.25745 0.81114 0.0
O136 O 0.02301 0.26288 0.81735 0.0
O137 O 0.87179 0.32063 0.79827 0.0
C138 C 0.97956 0.26856 0.76486 0.0
C139 C 0.94045 0.26222 0.82157 0.0
Zn140 Zn 0.67516 0.53467 0.79842 0.0
Zn141 Zn 0.91686 0.50365 0.79419 0.0
C142 C 0.61207 0.58903 0.80192 0.0
O143 O 0.53468 0.57747 0.80515 0.0
C144 C 0.92256 0.44943 0.78751 0.0
O145 O 0.96047 0.4601 0.77449 0.0
O146 O 0.54422 0.5239 0.79966 0.0
O147 O 0.71569 0.52504 0.77545 0.0
O148 O 0.85674 0.51083 0.7727 0.0
C149 C 0.4891 0.52764 0.78782 0.0
O150 O 0.51842 0.53862 0.77417 0.0
O151 O 0.68205 0.57493 0.79951 0.0
C152 C 0.11133 0.5014 0.79853 0.0
O153 O 0.0911 0.48583 0.8109 0.0
O154 O 0.04834 0.51095 0.78973 0.0
O155 O 0.88059 0.52654 0.81326 0.0
O156 O 0.73647 0.51972 0.81885 0.0
O157 O 0.89871 0.46459 0.79923 0.0
C158 C 0.78149 0.51766 0.76655 0.0
C159 C 0.81899 0.51987 0.82327 0.0
Zn160 Zn 0.16509 0.03269 0.54161 0.0
Zn161 Zn 0.92645 0.9996 0.54647 0.0
C162 C 0.15918 0.08772 0.53909 0.0
O163 O 0.18952 0.08006 0.52466 0.0
C164 C 0.86742 0.94491 0.55179 0.0
O165 O 0.79658 0.95644 0.5583 0.0
O166 O 0.29936 0.02888 0.53799 0.0
O167 O 0.12984 1.00455 0.55806 0.0
O168 O 0.9929 1.01336 0.56678 0.0
C169 C 0.35305 0.02575 0.55009 0.0
O170 O 0.32049 0.02618 0.56512 0.0
O171 O 0.14171 0.07019 0.54988 0.0
C172 C 0.73661 1.00974 0.5375 0.0
O173 O 0.76379 1.00591 0.52228 0.0
O174 O 0.79406 1.00916 0.54919 0.0
O175 O 0.97057 1.01031 0.52366 0.0
O176 O 0.10593 0.02826 0.51929 0.0
O177 O 0.93206 0.95926 0.54652 0.0
C178 C 0.07691 1.01082 0.56967 0.0
C179 C 0.03033 0.01967 0.51398 0.0
Zn180 Zn 0.10037 0.25523 0.54514 0.0
Zn181 Zn 0.34284 0.28288 0.54778 0.0
C182 C 0.08318 0.20077 0.54248 0.0
O183 O 0.03473 0.21063 0.53035 0.0
C184 C 0.37506 0.33677 0.55882 0.0
O185 O 0.39591 0.32502 0.57275 0.0
O186 O 0.9683 0.26184 0.54253 0.0
O187 O 0.14743 0.28328 0.56026 0.0
O188 O 0.28094 0.27077 0.56878 0.0
C189 C 0.91021 0.25389 0.55287 0.0
O190 O 0.93742 0.24076 0.56594 0.0
O191 O 0.1213 0.21696 0.55239 0.0
C192 C 0.53308 0.28051 0.54102 0.0
O193 O 0.51351 0.29926 0.53035 0.0
O194 O 0.46995 0.27025 0.54942 0.0
O195 O 0.293 0.27199 0.52567 0.0
O196 O 0.15115 0.25845 0.52275 0.0
O197 O 0.34853 0.32287 0.54667 0.0
C198 C 0.19795 0.27476 0.57162 0.0
C199 C 0.22754 0.26417 0.51668 0.0
Zn200 Zn 0.1634 0.25595 0.6661 0.0
Zn201 Zn 0.92121 0.28332 0.66216 0.0
C202 C 0.16156 0.20067 0.67118 0.0
O203 O 0.18538 0.20969 0.68576 0.0
C204 C 0.86776 0.33824 0.65589 0.0
O205 O 0.80102 0.32725 0.6476 0.0
O206 O 0.29421 0.26444 0.66875 0.0
O207 O 0.11755 0.28094 0.64897 0.0
O208 O 0.98089 0.26912 0.64156 0.0
C209 C 0.35639 0.25325 0.66059 0.0
O210 O 0.3356 0.2342 0.65015 0.0
O211 O 0.14791 0.21712 0.65957 0.0
C212 C 0.73195 0.28342 0.67002 0.0
O213 O 0.75715 0.30142 0.68085 0.0
O214 O 0.79095 0.27269 0.66085 0.0
O215 O 0.96494 0.27245 0.6847 0.0
O216 O 0.1086 0.26098 0.68836 0.0
O217 O 0.92771 0.32346 0.66235 0.0
C218 C 0.06409 0.27159 0.63824 0.0
C219 C 0.03029 0.26567 0.69399 0.0
Zn220 Zn 0.10011 0.03225 0.66662 0.0
Zn221 Zn 0.3395 1.00231 0.66377 0.0
C222 C 0.08671 0.08736 0.67034 0.0
O223 O 0.03928 0.07806 0.68272 0.0
C224 C 0.3751 0.94883 0.6535 0.0
O225 O 0.41276 0.96153 0.64119 0.0
O226 O 0.96793 0.02611 0.6704 0.0
O227 O 0.13275 1.00728 0.64848 0.0
O228 O 0.27649 1.01398 0.64258 0.0
C229 C 0.90599 0.03268 0.66036 0.0
O230 O 0.92775 0.04539 0.64683 0.0
O231 O 0.12186 0.07081 0.66041 0.0
C232 C 0.52884 1.00419 0.67132 0.0
O233 O 0.50322 0.98834 0.68326 0.0
O234 O 0.46952 1.01303 0.6614 0.0
O235 O 0.30038 1.01488 0.6863 0.0
O236 O 0.15584 0.02633 0.68869 0.0
O237 O 0.33787 0.96207 0.66494 0.0
C238 C 0.19416 1.01236 0.63813 0.0
C239 C 0.23294 0.02184 0.69493 0.0
Zn240 Zn 0.08692 0.04276 0.41324 0.0
Zn241 Zn 0.84048 0.99907 0.41544 0.0
C242 C 0.14404 0.0955 0.40834 0.0
O243 O 0.1969 0.08367 0.39765 0.0
C244 C 0.82002 0.94467 0.42128 0.0
O245 O 0.78433 0.95512 0.4346 0.0
O246 O 0.21457 0.02842 0.41255 0.0
O247 O 0.01497 0.02604 0.43265 0.0
O248 O 0.89015 1.00331 0.43837 0.0
C249 C 0.27881 0.03886 0.42078 0.0
O250 O 0.26081 0.05839 0.43099 0.0
O251 O 0.09058 0.08184 0.41709 0.0
C252 C 0.64692 1.00218 0.40921 0.0
O253 O 0.65909 0.97898 0.40215 0.0
O254 O 0.71498 1.01446 0.41503 0.0
O255 O 0.9268 1.01862 0.40203 0.0
O256 O 0.03387 0.03956 0.3899 0.0
O257 O 0.84607 0.96015 0.40992 0.0
C258 C 0.96287 1.01471 0.44308 0.0
C259 C 0.95806 0.02813 0.38889 0.0
Zn260 Zn 0.67969 0.75547 0.41574 0.0
Zn261 Zn 0.91571 0.77688 0.41844 0.0
C262 C 0.64127 0.70218 0.40893 0.0
O263 O 0.60408 0.7151 0.39661 0.0
C264 C 0.90852 0.83228 0.42293 0.0
O265 O 0.94818 0.82421 0.43654 0.0
O266 O 0.54827 0.7638 0.41186 0.0
O267 O 0.71652 0.77608 0.43596 0.0
O268 O 0.86229 0.76756 0.44008 0.0
C269 C 0.4882 0.75947 0.42269 0.0
O270 O 0.51263 0.75026 0.43718 0.0
O271 O 0.68366 0.71543 0.41988 0.0
C272 C 0.1071 0.77993 0.40981 0.0
O273 O 0.07712 0.78915 0.39568 0.0
O274 O 0.05094 0.77412 0.42108 0.0
O275 O 0.87866 0.75033 0.40169 0.0
O276 O 0.74387 0.76442 0.39452 0.0
O277 O 0.88522 0.81508 0.41222 0.0
C278 C 0.7826 0.77086 0.44544 0.0
C279 C 0.82381 0.75769 0.39066 0.0
Zn280 Zn 0.07501 0.76266 0.29667 0.0
Zn281 Zn 0.84499 0.77689 0.29169 0.0
C282 C 0.11917 0.70876 0.30388 0.0
O283 O 0.16943 0.72096 0.31492 0.0
C284 C 0.83147 0.83367 0.28658 0.0
O285 O 0.76704 0.82598 0.27646 0.0
O286 O 0.20801 0.77213 0.29922 0.0
O287 O 0.03597 0.77974 0.27523 0.0
O288 O 0.90149 0.76153 0.27158 0.0
C289 C 0.26858 0.76049 0.29076 0.0
O290 O 0.24428 0.74183 0.28029 0.0
O291 O 0.06874 0.72252 0.29446 0.0
C292 C 0.65242 0.78515 0.29787 0.0
O293 O 0.68203 0.802 0.30904 0.0
O294 O 0.70927 0.7728 0.28898 0.0
O295 O 0.87328 0.75789 0.3123 0.0
O296 O 0.0116 0.77254 0.31791 0.0
O297 O 0.87647 0.81607 0.29428 0.0
C298 C 0.97634 0.7695 0.26585 0.0
C299 C 0.93395 0.76467 0.32254 0.0
Zn300 Zn 0.66549 0.03616 0.29674 0.0
Zn301 Zn 0.90617 1.00138 0.2935 0.0
C302 C 0.63461 0.09036 0.30706 0.0
O303 O 0.6168 0.07915 0.32127 0.0
C304 C 0.92709 0.94514 0.29234 0.0
O305 O 0.99461 0.95201 0.28281 0.0
O306 O 0.53801 0.0221 0.29842 0.0
O307 O 0.71403 0.02498 0.2745 0.0
O308 O 0.85023 1.00723 0.27138 0.0
C309 C 0.47263 0.03316 0.29091 0.0
O310 O 0.4889 0.0541 0.28176 0.0
O311 O 0.65769 0.07607 0.29491 0.0
C312 C 0.10026 0.99877 0.30002 0.0
O313 O 0.07688 0.98414 0.31269 0.0
O314 O 0.03959 1.00733 0.29028 0.0
O315 O 0.87516 0.02672 0.31181 0.0
O316 O 0.73026 0.02628 0.31835 0.0
O317 O 0.87934 0.96306 0.2991 0.0
C318 C 0.77603 1.01546 0.26545 0.0
C319 C 0.81317 0.02451 0.32246 0.0
Zn320 Zn 0.6622 0.53333 0.54141 0.0
Zn321 Zn 0.42365 0.50482 0.54651 0.0
C322 C 0.67955 0.58905 0.5399 0.0
O323 O 0.73606 0.58124 0.52843 0.0
C324 C 0.37691 0.45199 0.55642 0.0
O325 O 0.32394 0.46501 0.56656 0.0
O326 O 0.79551 0.52897 0.53779 0.0
O327 O 0.62582 0.50596 0.55809 0.0
O328 O 0.49167 0.51885 0.56633 0.0
C329 C 0.85243 0.52787 0.54951 0.0
O330 O 0.82356 0.52984 0.56477 0.0
O331 O 0.63747 0.57146 0.54815 0.0
C332 C 0.23557 0.50997 0.53749 0.0
O333 O 0.26365 0.49897 0.52374 0.0
O334 O 0.29243 0.51488 0.54889 0.0
O335 O 0.46487 0.51396 0.52382 0.0
O336 O 0.6054 0.52814 0.51959 0.0
O337 O 0.42829 0.46496 0.54688 0.0
C338 C 0.57359 0.51334 0.56952 0.0
C339 C 0.52795 0.52136 0.51432 0.0
Zn340 Zn 0.59385 0.75879 0.54101 0.0
Zn341 Zn 0.82126 0.77459 0.54667 0.0
C342 C 0.57963 0.70088 0.54346 0.0
O343 O 0.49291 0.70612 0.54441 0.0
C344 C 0.87384 0.82952 0.55047 0.0
O345 O 0.94229 0.81831 0.55803 0.0
O346 O 0.45688 0.75938 0.53738 0.0
O347 O 0.61926 0.7782 0.56203 0.0
O348 O 0.75659 0.76295 0.5676 0.0
C349 C 0.40111 0.76388 0.54898 0.0
O350 O 0.43236 0.76845 0.5639 0.0
O351 O 0.63548 0.72007 0.54225 0.0
C352 C 0.01182 0.76936 0.53762 0.0
O353 O 0.98107 0.77532 0.52288 0.0
O354 O 0.95653 0.76724 0.54956 0.0
O355 O 0.78458 0.75751 0.52496 0.0
O356 O 0.64971 0.77547 0.52131 0.0
O357 O 0.81017 0.81502 0.54479 0.0
C358 C 0.68023 0.77174 0.57227 0.0
C359 C 0.72262 0.76619 0.5155 0.0
Zn360 Zn 0.65924 0.75893 0.66873 0.0
Zn361 Zn 0.42432 0.78005 0.6646 0.0
C362 C 0.67657 0.70102 0.66842 0.0
O363 O 0.75443 0.70632 0.6755 0.0
C364 C 0.38047 0.83314 0.65362 0.0
O365 O 0.33427 0.81952 0.64262 0.0
O366 O 0.79435 0.76349 0.6707 0.0
O367 O 0.62121 0.78415 0.65088 0.0
O368 O 0.49044 0.76603 0.64439 0.0
C369 C 0.85249 0.75358 0.66099 0.0
O370 O 0.82563 0.73859 0.64863 0.0
O371 O 0.62546 0.72008 0.66397 0.0
C372 C 0.2317 0.78071 0.67027 0.0
O373 O 0.25337 0.80072 0.67993 0.0
O374 O 0.29374 0.76884 0.66236 0.0
O375 O 0.46201 0.76911 0.68751 0.0
O376 O 0.61117 0.76712 0.69096 0.0
O377 O 0.42628 0.82058 0.66436 0.0
C378 C 0.56682 0.77523 0.64015 0.0
C379 C 0.5315 0.76706 0.6967 0.0
Zn380 Zn 0.59831 0.53203 0.66862 0.0
Zn381 Zn 0.83139 0.50821 0.6632 0.0
C382 C 0.5769 0.58918 0.67148 0.0
O383 O 0.50746 0.5817 0.68038 0.0
C384 C 0.88201 0.45317 0.65896 0.0
O385 O 0.9531 0.46392 0.65202 0.0
O386 O 0.4633 0.5278 0.67194 0.0
O387 O 0.62355 0.51154 0.64803 0.0
O388 O 0.76723 0.5205 0.64249 0.0
C389 C 0.40831 0.5309 0.66001 0.0
O390 O 0.44029 0.53806 0.64562 0.0
O391 O 0.62729 0.57138 0.6652 0.0
C392 C 0.02407 0.51042 0.67051 0.0
O393 O 0.99885 0.49847 0.68412 0.0
O394 O 0.9642 0.51669 0.6599 0.0
O395 O 0.80229 0.52273 0.68581 0.0
O396 O 0.65431 0.51951 0.68969 0.0
O397 O 0.81887 0.46798 0.66427 0.0
C398 C 0.68674 0.51567 0.63783 0.0
C399 C 0.73436 0.52114 0.69532 0.0
Zn400 Zn 0.58974 0.53274 0.4132 0.0
Zn401 Zn 0.34933 0.50618 0.41616 0.0
C402 C 0.62295 0.587 0.40498 0.0
O403 O 0.6616 0.5757 0.39223 0.0
C404 C 0.33432 0.45041 0.42063 0.0
O405 O 0.28564 0.45888 0.43309 0.0
O406 O 0.7197 0.52272 0.41155 0.0
O407 O 0.54967 0.52058 0.43524 0.0
O408 O 0.40281 0.51216 0.43823 0.0
C409 C 0.77977 0.53471 0.41994 0.0
O410 O 0.75577 0.5539 0.42999 0.0
O411 O 0.58315 0.57254 0.41543 0.0
C412 C 0.15253 0.50064 0.41304 0.0
O413 O 0.1693 0.47806 0.40556 0.0
O414 O 0.21777 0.5145 0.4185 0.0
O415 O 0.39244 0.53024 0.39836 0.0
O416 O 0.5318 0.51974 0.39205 0.0
O417 O 0.3694 0.46734 0.41093 0.0
C418 C 0.48165 0.51522 0.44409 0.0
C419 C 0.44941 0.52194 0.38798 0.0
Zn420 Zn 0.17707 0.264 0.41337 0.0
Zn421 Zn 0.40613 0.28053 0.41921 0.0
C422 C 0.13441 0.21002 0.40531 0.0
O423 O 0.07837 0.22184 0.39513 0.0
C424 C 0.42428 0.3382 0.41721 0.0
O425 O 0.51009 0.33263 0.41943 0.0
O426 O 0.04275 0.27175 0.4096 0.0
O427 O 0.20778 0.27648 0.43649 0.0
O428 O 0.35391 0.2679 0.44023 0.0
C429 C 0.98375 0.26153 0.41907 0.0
O430 O 0.00973 0.24602 0.43114 0.0
O431 O 0.18775 0.22405 0.41403 0.0
C432 C 0.59627 0.27523 0.40958 0.0
O433 O 0.56164 0.27274 0.39472 0.0
O434 O 0.54331 0.27878 0.42173 0.0
O435 O 0.37459 0.25717 0.40006 0.0
O436 O 0.24753 0.27732 0.39351 0.0
O437 O 0.36725 0.31926 0.41617 0.0
C438 C 0.27473 0.27125 0.44585 0.0
C439 C 0.31954 0.26542 0.38926 0.0
Zn440 Zn 0.58212 0.25826 0.29654 0.0
Zn441 Zn 0.34923 0.27873 0.29216 0.0
C442 C 0.62033 0.20555 0.30497 0.0
O443 O 0.66 0.21935 0.3167 0.0
C444 C 0.33983 0.33496 0.28846 0.0
O445 O 0.27907 0.32681 0.27773 0.0
O446 O 0.71664 0.26496 0.30014 0.0
O447 O 0.54865 0.2757 0.27491 0.0
O448 O 0.40339 0.26584 0.27119 0.0
C449 C 0.77356 0.26103 0.28866 0.0
O450 O 0.74504 0.25393 0.27395 0.0
O451 O 0.5744 0.21803 0.2942 0.0
C452 C 0.15976 0.27113 0.30075 0.0
O453 O 0.19366 0.26687 0.31549 0.0
O454 O 0.21268 0.27702 0.28898 0.0
O455 O 0.37837 0.25551 0.31121 0.0
O456 O 0.51649 0.26946 0.31741 0.0
O457 O 0.38328 0.31756 0.29662 0.0
C458 C 0.48232 0.26967 0.26561 0.0
C459 C 0.43752 0.2623 0.3217 0.0
Zn460 Zn 0.17562 0.53874 0.29802 0.0
Zn461 Zn 0.41648 0.50314 0.29336 0.0
C462 C 0.11256 0.59343 0.3019 0.0
O463 O 0.03442 0.58207 0.30482 0.0
C464 C 0.41801 0.44812 0.28998 0.0
O465 O 0.45056 0.45663 0.27591 0.0
O466 O 0.04484 0.52744 0.29967 0.0
O467 O 0.22495 0.52755 0.27564 0.0
O468 O 0.35709 0.50764 0.27134 0.0
C469 C 0.98719 0.5313 0.28827 0.0
O470 O 0.0134 0.54263 0.27452 0.0
O471 O 0.1816 0.57911 0.29906 0.0
C472 C 0.60801 0.5077 0.30114 0.0
O473 O 0.58255 0.50163 0.31617 0.0
O474 O 0.54886 0.50908 0.2898 0.0
O475 O 0.37391 0.53097 0.30903 0.0
O476 O 0.23746 0.52409 0.31821 0.0
O477 O 0.39613 0.46505 0.30091 0.0
C478 C 0.28343 0.51741 0.26599 0.0
C479 C 0.32224 0.5236 0.32052 0.0
Zn480 Zn 0.66001 0.0295 0.04124 0.0
Zn481 Zn 0.42108 1.00402 0.04467 0.0
C482 C 0.67657 0.08613 0.04049 0.0
O483 O 0.73593 0.07946 0.02922 0.0
C484 C 0.37451 0.95109 0.0553 0.0
O485 O 0.32912 0.96483 0.06627 0.0
O486 O 0.79254 0.0237 0.03861 0.0
O487 O 0.6194 1.00233 0.05764 0.0
O488 O 0.48723 1.01778 0.06498 0.0
C489 C 0.85257 0.03079 0.04893 0.0
O490 O 0.8288 0.04421 0.06212 0.0
O491 O 0.63513 0.06773 0.04815 0.0
C492 C 0.23071 1.00385 0.03834 0.0
O493 O 0.25552 0.98573 0.02761 0.0
O494 O 0.29115 1.01524 0.04701 0.0
O495 O 0.46176 1.01491 0.02192 0.0
O496 O 0.60781 0.0248 0.01892 0.0
O497 O 0.42143 0.96352 0.04471 0.0
C498 C 0.56765 1.01128 0.06867 0.0
C499 C 0.52928 0.02109 0.01306 0.0
Zn500 Zn 0.59811 0.25572 0.04061 0.0
Zn501 Zn 0.83079 0.27608 0.04555 0.0
C502 C 0.57883 0.19804 0.04353 0.0
O503 O 0.49281 0.20372 0.0418 0.0
C504 C 0.84991 0.32995 0.05361 0.0
O505 O 0.87511 0.3187 0.06747 0.0
O506 O 0.46195 0.25826 0.03705 0.0
O507 O 0.62218 0.27739 0.06056 0.0
O508 O 0.76366 0.26727 0.06682 0.0
C509 C 0.40749 0.25799 0.04917 0.0
O510 O 0.43919 0.25366 0.06405 0.0
O511 O 0.63671 0.21682 0.04335 0.0
C512 C 0.02218 0.27384 0.03813 0.0
O513 O 0.99334 0.28051 0.02337 0.0
O514 O 0.96498 0.26993 0.04956 0.0
O515 O 0.79508 0.25803 0.0242 0.0
O516 O 0.65392 0.27117 0.02077 0.0
O517 O 0.82336 0.31546 0.04172 0.0
C518 C 0.68379 0.27356 0.07116 0.0
C519 C 0.73227 0.2671 0.01506 0.0
Zn520 Zn 0.65937 0.26021 0.16812 0.0
Zn521 Zn 0.4282 0.27618 0.16432 0.0
C522 C 0.66293 0.20331 0.17254 0.0
O523 O 0.72035 0.21013 0.1842 0.0
C524 C 0.38636 0.33086 0.15743 0.0
O525 O 0.32952 0.31955 0.14711 0.0
O526 O 0.79463 0.26516 0.16931 0.0
O527 O 0.61918 0.28398 0.15021 0.0
O528 O 0.4908 0.26493 0.14324 0.0
C529 C 0.85589 0.24981 0.16389 0.0
O530 O 0.83357 0.22704 0.15709 0.0
O531 O 0.62716 0.22142 0.16375 0.0
C532 C 0.23361 0.28022 0.16962 0.0
O533 O 0.25676 0.30016 0.17922 0.0
O534 O 0.29457 0.26715 0.16212 0.0
O535 O 0.46638 0.25977 0.1861 0.0
O536 O 0.61039 0.27127 0.18965 0.0
O537 O 0.43876 0.31642 0.16606 0.0
C538 C 0.56805 0.27401 0.13934 0.0
C539 C 0.5336 0.26511 0.19538 0.0
Zn540 Zn 0.595 0.03427 0.16979 0.0
Zn541 Zn 0.83156 1.00432 0.16316 0.0
C542 C 0.56822 0.09113 0.16861 0.0
O543 O 0.4839 0.08385 0.16635 0.0
C544 C 0.8886 0.95031 0.15954 0.0
O545 O 0.94979 0.96164 0.15021 0.0
O546 O 0.4595 0.02921 0.1723 0.0
O547 O 0.62401 0.02366 0.14688 0.0
O548 O 0.76433 1.01084 0.14161 0.0
C549 C 0.40636 0.02865 0.15992 0.0
O550 O 0.43982 0.03247 0.14515 0.0
O551 O 0.62758 0.07336 0.17115 0.0
C552 C 0.02153 1.01006 0.17051 0.0
O553 O 0.99532 1.00063 0.1848 0.0
O554 O 0.96263 1.0141 0.15932 0.0
O555 O 0.79849 0.02125 0.18523 0.0
O556 O 0.65101 1.01508 0.18889 0.0
O557 O 0.82842 0.96455 0.16636 0.0
C558 C 0.68486 1.01666 0.13686 0.0
C559 C 0.73084 1.01707 0.19451 0.0
Zn560 Zn 0.5828 0.03064 0.9143 0.0
Zn561 Zn 0.34376 1.00822 0.91639 0.0
C562 C 0.62132 0.08598 0.90939 0.0
O563 O 0.68211 0.07548 0.89961 0.0
C564 C 0.34087 0.95259 0.92282 0.0
O565 O 0.2973 0.96253 0.93548 0.0
O566 O 0.71479 0.02174 0.91343 0.0
O567 O 0.53383 1.00955 0.93357 0.0
O568 O 0.38953 1.01809 0.93843 0.0
C569 C 0.77836 0.03385 0.92089 0.0
O570 O 0.76047 0.05475 0.93002 0.0
O571 O 0.56805 0.07078 0.91731 0.0
C572 C 0.14946 1.0009 0.91082 0.0
O573 O 0.1712 0.97826 0.90384 0.0
O574 O 0.21121 1.01588 0.9165 0.0
O575 O 0.40026 0.03415 0.90132 0.0
O576 O 0.53023 0.02001 0.89237 0.0
O577 O 0.36876 0.96851 0.91174 0.0
C578 C 0.47108 1.01681 0.94322 0.0
C579 C 0.44784 0.02534 0.8897 0.0
Zn580 Zn 0.1704 0.75435 0.91471 0.0
Zn581 Zn 0.41221 0.78388 0.91817 0.0
C582 C 0.12307 0.7016 0.90462 0.0
O583 O 0.07843 0.71514 0.89343 0.0
C584 C 0.4171 0.83848 0.92215 0.0
O585 O 0.46499 0.82861 0.93434 0.0
O586 O 0.04196 0.76614 0.91204 0.0
O587 O 0.21705 0.76625 0.93686 0.0
O588 O 0.36042 0.77922 0.94028 0.0
C589 C 0.97928 0.75715 0.9211 0.0
O590 O 1.00001 0.74087 0.93317 0.0
O591 O 0.16909 0.71415 0.91536 0.0
C592 C 0.60029 0.7817 0.90904 0.0
O593 O 0.56933 0.78919 0.89459 0.0
O594 O 0.54526 0.77872 0.92085 0.0
O595 O 0.36895 0.75499 0.90335 0.0
O596 O 0.23524 0.76616 0.89426 0.0
O597 O 0.38566 0.8224 0.91139 0.0
C598 C 0.28252 0.77401 0.94586 0.0
C599 C 0.31841 0.76206 0.89162 0.0
Zn600 Zn 0.57787 0.75894 0.79793 0.0
Zn601 Zn 0.34235 0.7823 0.79371 0.0
C602 C 0.62171 0.70425 0.80287 0.0
O603 O 0.68009 0.7154 0.81298 0.0
C604 C 0.34998 0.83759 0.7858 0.0
O605 O 0.31994 0.82771 0.77181 0.0
O606 O 0.711 0.76587 0.8013 0.0
O607 O 0.54521 0.77729 0.77666 0.0
O608 O 0.3996 0.76889 0.77306 0.0
C609 C 0.76823 0.76129 0.78999 0.0
O610 O 0.73968 0.75322 0.77545 0.0
O611 O 0.56691 0.71899 0.79495 0.0
C612 C 0.15272 0.77805 0.80177 0.0
O613 O 0.18398 0.78241 0.81667 0.0
O614 O 0.20776 0.7779 0.78978 0.0
O615 O 0.37049 0.76182 0.81399 0.0
O616 O 0.51608 0.76934 0.81917 0.0
O617 O 0.36722 0.82178 0.79759 0.0
C618 C 0.47894 0.77124 0.76738 0.0
C619 C 0.43536 0.76565 0.82399 0.0
Zn620 Zn 0.17229 0.02963 0.79726 0.0
Zn621 Zn 0.40629 1.0075 0.79319 0.0
C622 C 0.13271 0.08261 0.80667 0.0
O623 O 0.08789 0.069 0.81776 0.0
C624 C 0.41571 0.95194 0.78681 0.0
O625 O 0.46596 0.9617 0.77495 0.0
O626 O 0.04034 0.02045 0.80019 0.0
O627 O 0.20456 1.015 0.77483 0.0
O628 O 0.3527 0.02017 0.77209 0.0
C629 C 0.98178 0.03045 0.79052 0.0
O630 O 0.00932 0.04625 0.77869 0.0
O631 O 0.17816 0.06993 0.79598 0.0
C632 C 0.60058 1.00503 0.80026 0.0
O633 O 0.57632 0.99195 0.81352 0.0
O634 O 0.54028 1.01241 0.79008 0.0
O635 O 0.37759 0.0292 0.81281 0.0
O636 O 0.23607 1.01785 0.81823 0.0
O637 O 0.37956 0.96805 0.79692 0.0
C638 C 0.27391 0.01882 0.76594 0.0
C639 C 0.31614 0.02318 0.82293 0.0
C640 C 0.82462 0.40192 0.0654 0.0
C641 C 0.85874 0.41558 0.05165 0.0
C642 C 0.82145 0.37422 0.06577 0.0
C643 C 0.85037 0.35907 0.05228 0.0
H644 H 0.80168 0.41264 0.07619 0.0
H645 H 0.796 0.36457 0.07674 0.0
S646 S 0.9453 0.38476 0.01318 0.0
N647 N 0.92257 0.41164 0.02409 0.0
N648 N 0.91434 0.35936 0.02472 0.0
C649 C 0.88305 0.37228 0.03827 0.0
C650 C 0.88785 0.4006 0.03797 0.0
C651 C 0.38432 0.9069 0.04072 0.0
C652 C 0.37019 0.92158 0.05531 0.0
C653 C 0.3792 0.87895 0.04064 0.0
C654 C 0.36208 0.86477 0.05523 0.0
H655 H 0.39871 0.91706 0.02927 0.0
H656 H 0.39107 0.86838 0.0292 0.0
S657 S 0.31851 0.89355 0.0965 0.0
N658 N 0.33579 0.91954 0.08457 0.0
N659 N 0.32895 0.86734 0.08443 0.0
C660 C 0.34755 0.87918 0.06979 0.0
C661 C 0.35081 0.90749 0.06983 0.0
C662 C 0.80571 0.90731 0.16206 0.0
C663 C 0.88802 0.92118 0.16138 0.0
C664 C 0.80388 0.87949 0.16217 0.0
C665 C 0.88427 0.86452 0.16202 0.0
H666 H 0.74221 0.91799 0.16187 0.0
H667 H 0.73874 0.86963 0.16221 0.0
S668 S 0.11745 0.89172 0.16184 0.0
N669 N 0.05186 0.91819 0.1615 0.0
N670 N 0.04859 0.86588 0.16219 0.0
C671 C 0.96709 0.87825 0.16213 0.0
C672 C 0.96887 0.90658 0.16166 0.0
C673 C 0.47267 0.4016 0.16034 0.0
C674 C 0.39278 0.41675 0.15945 0.0
C675 C 0.47007 0.37376 0.16033 0.0
C676 C 0.38762 0.36007 0.15905 0.0
H677 H 0.53802 0.41129 0.16096 0.0
H678 H 0.53318 0.3629 0.16076 0.0
S679 S 0.15884 0.39 0.15803 0.0
N680 N 0.22828 0.41568 0.15862 0.0
N681 N 0.22395 0.36342 0.15813 0.0
C682 C 0.30717 0.37485 0.15868 0.0
C683 C 0.30958 0.40317 0.15901 0.0
C684 C 0.1331 0.62967 0.91896 0.0
C685 C 0.12059 0.61543 0.90418 0.0
C686 C 0.13474 0.65759 0.91905 0.0
C687 C 0.12135 0.67216 0.90443 0.0
H688 H 0.14356 0.61918 0.93045 0.0
H689 H 0.14566 0.66782 0.93065 0.0
S690 S 0.08095 0.64395 0.86274 0.0
N691 N 0.09264 0.61778 0.87475 0.0
N692 N 0.0927 0.67003 0.87492 0.0
C693 C 0.10665 0.65802 0.88969 0.0
C694 C 0.10715 0.62971 0.88956 0.0
C695 C 0.69436 0.15793 0.91237 0.0
C696 C 0.61428 0.17182 0.90874 0.0
C697 C 0.69532 0.13009 0.91309 0.0
C698 C 0.61584 0.11517 0.91073 0.0
H699 H 0.75744 0.16856 0.91409 0.0
H700 H 0.75905 0.12011 0.91528 0.0
S701 S 0.38726 0.14182 0.9023 0.0
N702 N 0.45241 0.16841 0.9036 0.0
N703 N 0.45437 0.11617 0.90551 0.0
C704 C 0.53464 0.12876 0.90793 0.0
C705 C 0.53387 0.15707 0.90678 0.0
C706 C 0.15414 0.15474 0.79281 0.0
C707 C 0.12562 0.16888 0.80682 0.0
C708 C 0.15708 0.12681 0.79284 0.0
C709 C 0.12954 0.11213 0.80674 0.0
H710 H 0.17614 0.16533 0.78193 0.0
H711 H 0.18061 0.11669 0.78187 0.0
S712 S 0.04164 0.14035 0.84588 0.0
N713 N 0.06541 0.16651 0.83449 0.0
N714 N 0.06832 0.11431 0.83454 0.0
C715 C 0.09824 0.12628 0.82059 0.0
C716 C 0.09701 0.15457 0.82063 0.0
C717 C 0.69315 0.65987 0.80735 0.0
C718 C 0.62012 0.6749 0.80119 0.0
C719 C 0.69174 0.63205 0.80703 0.0
C720 C 0.61649 0.61823 0.80083 0.0
H721 H 0.75174 0.66965 0.81265 0.0
H722 H 0.74856 0.62131 0.81219 0.0
S723 S 0.41284 0.64768 0.78144 0.0
N724 N 0.47416 0.67352 0.78724 0.0
N725 N 0.47093 0.62123 0.78703 0.0
C726 C 0.5447 0.63284 0.79404 0.0
C727 C 0.54669 0.66117 0.79409 0.0
C728 C 0.79033 0.90057 0.55262 0.0
C729 C 0.87011 0.91551 0.55036 0.0
C730 C 0.79084 0.87272 0.55189 0.0
C731 C 0.87147 0.85878 0.54916 0.0
H732 H 0.72682 0.91042 0.55512 0.0
H733 H 0.72842 0.86204 0.55408 0.0
S734 S 0.09718 0.88813 0.54112 0.0
N735 N 0.03083 0.91398 0.54413 0.0
N736 N 0.03186 0.86173 0.54311 0.0
C737 C 0.95109 0.87338 0.5464 0.0
C738 C 0.95042 0.90171 0.54689 0.0
C739 C 0.3471 0.3812 0.57109 0.0
C740 C 0.37689 0.36599 0.55766 0.0
C741 C 0.34638 0.40895 0.57042 0.0
C742 C 0.37764 0.4226 0.55646 0.0
H743 H 0.32272 0.37155 0.58214 0.0
H744 H 0.3221 0.41976 0.58107 0.0
S745 S 0.46449 0.39185 0.518 0.0
N746 N 0.43845 0.36639 0.5299 0.0
N747 N 0.43961 0.41871 0.52877 0.0
C748 C 0.40845 0.40761 0.54292 0.0
C749 C 0.40735 0.37926 0.54348 0.0
C750 C 0.79463 0.38295 0.65411 0.0
C751 C 0.87108 0.3675 0.65805 0.0
C752 C 0.7968 0.41074 0.65525 0.0
C753 C 0.87599 0.42404 0.66009 0.0
H754 H 0.73274 0.37357 0.6499 0.0
H755 H 0.7374 0.4219 0.65166 0.0
S756 S 0.09062 0.39323 0.6738 0.0
N757 N 0.02543 0.36786 0.66866 0.0
N758 N 0.0296 0.42007 0.67037 0.0
C759 C 0.95145 0.40896 0.66477 0.0
C760 C 0.94898 0.38068 0.66388 0.0
C761 C 0.3955 0.87728 0.66807 0.0
C762 C 0.378 0.86266 0.65355 0.0
C763 C 0.39225 0.90522 0.66816 0.0
C764 C 0.37374 0.91947 0.65364 0.0
H765 H 0.41094 0.86708 0.67948 0.0
H766 H 0.40627 0.91573 0.67956 0.0
S767 S 0.32063 0.89096 0.6126 0.0
N768 N 0.33844 0.86488 0.62445 0.0
N769 N 0.3352 0.91711 0.62461 0.0
C770 C 0.35586 0.90516 0.63914 0.0
C771 C 0.35716 0.87684 0.6391 0.0
C772 C 0.21456 0.13963 0.41308 0.0
C773 C 0.13876 0.12447 0.40861 0.0
C774 C 0.2119 0.16743 0.41242 0.0
C775 C 0.13414 0.18077 0.40679 0.0
H776 H 0.2762 0.12994 0.41706 0.0
H777 H 0.27191 0.17847 0.4159 0.0
S778 S 0.91717 0.14938 0.39413 0.0
N779 N 0.98335 0.12421 0.39899 0.0
N780 N 0.97832 0.17641 0.39727 0.0
C781 C 0.05744 0.1656 0.40252 0.0
C782 C 0.05977 0.1374 0.40355 0.0
C783 C 0.63163 0.65957 0.39367 0.0
C784 C 0.6379 0.67275 0.40893 0.0
C785 C 0.62667 0.63193 0.39266 0.0
C786 C 0.62562 0.61619 0.40688 0.0
H787 H 0.63163 0.67071 0.38227 0.0
H788 H 0.62279 0.62281 0.38057 0.0
S789 S 0.63781 0.64059 0.45008 0.0
N790 N 0.64212 0.66785 0.43879 0.0
N791 N 0.62995 0.6156 0.43691 0.0
C792 C 0.63026 0.62894 0.42236 0.0
C793 C 0.63741 0.65729 0.42338 0.0
C794 C 0.04407 0.63768 0.29617 0.0
C795 C 0.11858 0.62273 0.30163 0.0
C796 C 0.0458 0.66551 0.29643 0.0
C797 C 0.1213 0.67941 0.30257 0.0
H798 H 0.98376 0.62778 0.29165 0.0
H799 H 0.98655 0.67617 0.29223 0.0
S800 S 0.3353 0.6495 0.31769 0.0
N801 N 0.2714 0.6238 0.31267 0.0
N802 N 0.27419 0.67608 0.31357 0.0
C803 C 0.19698 0.66467 0.30778 0.0
C804 C 0.1958 0.63633 0.3072 0.0
C805 C 0.57899 0.13261 0.29439 0.0
C806 C 0.63561 0.11947 0.30567 0.0
C807 C 0.57527 0.16052 0.29396 0.0
C808 C 0.6289 0.1761 0.30467 0.0
H809 H 0.53547 0.12126 0.28623 0.0
H810 H 0.52884 0.16987 0.28542 0.0
S811 S 0.79995 0.15042 0.33433 0.0
N812 N 0.75298 0.12354 0.32638 0.0
N813 N 0.7488 0.17572 0.32541 0.0
C814 C 0.68971 0.16288 0.31528 0.0
C815 C 0.69228 0.13461 0.31583 0.0
C816 C 0.02656 0.51497 0.10181 0.0
C817 C 0.08405 0.51284 0.08816 0.0
C818 C 0.06088 0.5151 0.1179 0.0
C819 C 0.15422 0.51322 0.12111 0.0
H820 H 0.95406 0.51633 0.10008 0.0
H821 H 0.01327 0.51625 0.12793 0.0
S822 S 0.33292 0.50466 0.0895 0.0
N823 N 0.23827 0.50709 0.07874 0.0
N824 N 0.30356 0.50768 0.10904 0.0
C825 C 0.21277 0.51094 0.1075 0.0
C826 C 0.17748 0.51072 0.09103 0.0
C827 C 0.08231 0.78877 0.09372 0.0
C828 C 0.15602 0.77345 0.08823 0.0
C829 C 0.0514 0.78692 0.10994 0.0
C830 C 0.09336 0.76971 0.12111 0.0
H831 H 0.04983 0.80289 0.08558 0.0
H832 H 0.99716 0.79981 0.11395 0.0
S833 S 0.27782 0.72222 0.11238 0.0
N834 N 0.26272 0.73828 0.09486 0.0
N835 N 0.20417 0.73495 0.12542 0.0
C836 C 0.16344 0.75327 0.11563 0.0
C837 C 0.19501 0.7551 0.09914 0.0
C838 C 0.79577 0.53345 0.85263 0.0
C839 C 0.84223 0.51815 0.84092 0.0
C840 C 0.82528 0.53453 0.8691 0.0
C841 C 0.90225 0.52036 0.87435 0.0
H842 H 0.73854 0.54545 0.84892 0.0
H843 H 0.78922 0.54721 0.87762 0.0
S844 S 0.03648 0.47371 0.84893 0.0
N845 N 0.9607 0.48598 0.83605 0.0
N846 N 0.01719 0.48814 0.86685 0.0
C847 C 0.94599 0.50391 0.86288 0.0
C848 C 0.91569 0.50278 0.8462 0.0
C849 C 0.84402 0.27931 0.84419 0.0
C850 C 0.91603 0.26315 0.83912 0.0
C851 C 0.81399 0.27918 0.86053 0.0
C852 C 0.85534 0.2629 0.8724 0.0
H853 H 0.81093 0.29224 0.83544 0.0
H854 H 0.75817 0.29196 0.86389 0.0
S855 S 0.04525 0.21623 0.86516 0.0
N856 N 0.02727 0.23019 0.84704 0.0
N857 N 0.97148 0.2298 0.87784 0.0
C858 C 0.92836 0.24682 0.8675 0.0
C859 C 0.95872 0.24701 0.85083 0.0
C860 C 0.06578 0.02719 0.59875 0.0
C861 C 0.11056 1.01163 0.58691 0.0
C862 C 0.09479 0.02772 0.61523 0.0
C863 C 0.16988 1.01286 0.62047 0.0
H864 H 0.00778 0.03905 0.59527 0.0
H865 H 0.05824 0.03987 0.62397 0.0
S866 S 0.3064 0.96736 0.59477 0.0
N867 N 0.23107 0.97983 0.58188 0.0
N868 N 0.28637 0.98142 0.61279 0.0
C869 C 0.21557 0.99733 0.60882 0.0
C870 C 0.18562 0.99654 0.59206 0.0
C871 C 0.12078 0.29547 0.5955 0.0
C872 C 0.16286 0.27318 0.58849 0.0
C873 C 0.08707 0.29465 0.61161 0.0
C874 C 0.09287 0.27135 0.62099 0.0
H875 H 0.11563 0.31381 0.58861 0.0
H876 H 0.05734 0.3124 0.61683 0.0
S877 S 0.18954 0.2071 0.60776 0.0
N878 N 0.20473 0.22691 0.59179 0.0
N879 N 0.13906 0.22521 0.62201 0.0
C880 C 0.1324 0.24876 0.61398 0.0
C881 C 0.16807 0.2497 0.5977 0.0
C882 C 0.94151 1.0065 0.3614 0.0
C883 C 0.91145 0.0254 0.37286 0.0
C884 C 0.90655 1.00585 0.34528 0.0
C885 C 0.84006 0.02399 0.34008 0.0
H886 H 0.99416 0.9926 0.36478 0.0
H887 H 0.93295 0.99133 0.33669 0.0
S888 S 0.74264 0.07822 0.36531 0.0
N889 N 0.81378 0.06314 0.37793 0.0
N890 N 0.74726 0.06178 0.34768 0.0
C891 C 0.80843 0.04272 0.35155 0.0
C892 C 0.84455 0.04348 0.36794 0.0
C893 C 0.8247 0.77252 0.34501 0.0
C894 C 0.9108 0.76398 0.34008 0.0
C895 C 0.7973 0.77053 0.3614 0.0
C896 C 0.85466 0.75953 0.37342 0.0
H897 H 0.77802 0.78082 0.33609 0.0
H898 H 0.73046 0.77754 0.36461 0.0
S899 S 0.08536 0.73272 0.36636 0.0
N900 N 0.05268 0.74369 0.34814 0.0
N901 N 1.00101 0.73908 0.37902 0.0
C902 C 0.94115 0.75076 0.36857 0.0
C903 C 0.96939 0.75324 0.35187 0.0
C904 C 0.56528 0.53123 0.5981 0.0
C905 C 0.60649 0.51409 0.58671 0.0
C906 C 0.5937 0.53204 0.61455 0.0
C907 C 0.66396 0.5157 0.6202 0.0
H908 H 0.51084 0.54421 0.59427 0.0
H909 H 0.56069 0.54564 0.62291 0.0
S910 S 0.79107 0.46635 0.59568 0.0
N911 N 0.71977 0.47976 0.58239 0.0
N912 N 0.77292 0.48146 0.61345 0.0
C913 C 0.7063 0.49857 0.60901 0.0
C914 C 0.67746 0.49769 0.59222 0.0
C915 C 0.63912 0.74939 0.59845 0.0
C916 C 0.65786 0.7729 0.58982 0.0
C917 C 0.60741 0.75026 0.61472 0.0
C918 C 0.59512 0.77465 0.62283 0.0
H919 H 0.64698 0.73031 0.59244 0.0
H920 H 0.59342 0.73181 0.62106 0.0
S921 S 0.6339 0.84161 0.60545 0.0
N922 N 0.66019 0.82106 0.5903 0.0
N923 N 0.60381 0.8227 0.62113 0.0
C924 C 0.61453 0.79822 0.61437 0.0
C925 C 0.64498 0.79734 0.59774 0.0
C926 C 0.44282 0.53144 0.34173 0.0
C927 C 0.35862 0.52022 0.33739 0.0
C928 C 0.47421 0.53093 0.35806 0.0
C929 C 0.42197 0.51942 0.37058 0.0
H930 H 0.48331 0.54158 0.3326 0.0
H931 H 0.53768 0.54064 0.36101 0.0
S932 S 0.20458 0.48374 0.36532 0.0
N933 N 0.22924 0.49452 0.34667 0.0
N934 N 0.28776 0.49406 0.37738 0.0
C935 C 0.34028 0.50699 0.36629 0.0
C936 C 0.30869 0.50726 0.34968 0.0
C937 C 0.33446 0.28588 0.36147 0.0
C938 C 0.3464 0.26389 0.37186 0.0
C939 C 0.36668 0.28548 0.34525 0.0
C940 C 0.41118 0.26304 0.33901 0.0
H941 H 0.30184 0.30368 0.366 0.0
H942 H 0.35641 0.30272 0.3375 0.0
S943 S 0.45101 0.19954 0.36059 0.0
N944 N 0.40093 0.21854 0.37443 0.0
N945 N 0.46001 0.2178 0.34378 0.0
C946 C 0.42136 0.24072 0.34906 0.0
C947 C 0.38938 0.24116 0.36558 0.0
C948 C 0.68878 0.99563 0.10882 0.0
C949 C 0.66159 1.01656 0.11914 0.0
C950 C 0.65902 0.99426 0.09237 0.0
C951 C 0.60093 1.01369 0.08578 0.0
H952 H 0.73082 0.97984 0.11363 0.0
H953 H 0.67961 0.9775 0.0849 0.0
S954 S 0.5223 0.07454 0.10702 0.0
N955 N 0.58175 0.05857 0.12111 0.0
N956 N 0.52529 0.05579 0.0903 0.0
C957 C 0.57642 0.03521 0.09579 0.0
C958 C 0.60697 0.03669 0.11244 0.0
C959 C 0.56736 0.27991 0.09303 0.0
C960 C 0.65814 0.2747 0.08879 0.0
C961 C 0.53797 0.27891 0.10936 0.0
C962 C 0.59897 0.2737 0.12216 0.0
H963 H 0.51792 0.28484 0.08369 0.0
H964 H 0.46752 0.28286 0.112 0.0
S965 S 0.84488 0.26093 0.11821 0.0
N966 N 0.80942 0.26516 0.09907 0.0
N967 N 0.7546 0.26445 0.12989 0.0
C968 C 0.69042 0.26945 0.11829 0.0
C969 C 0.72005 0.26978 0.1016 0.0
C970 C 0.41173 1.00544 0.84531 0.0
C971 C 0.34064 0.02209 0.84038 0.0
C972 C 0.44566 1.00635 0.8614 0.0
C973 C 0.4095 0.02403 0.873 0.0
H974 H 0.44208 0.99188 0.83657 0.0
H975 H 0.5008 0.99327 0.86473 0.0
S976 S 0.22512 0.07265 0.86583 0.0
N977 N 0.23628 0.05707 0.84802 0.0
N978 N 0.29972 0.05899 0.87839 0.0
C979 C 0.33738 0.0406 0.86824 0.0
C980 C 0.30288 0.03957 0.85186 0.0
C981 C 0.33802 0.78059 0.84681 0.0
C982 C 0.41405 0.76629 0.8416 0.0
C983 C 0.30844 0.77939 0.86309 0.0
C984 C 0.35471 0.76407 0.8748 0.0
H985 H 0.30096 0.79282 0.8382 0.0
H986 H 0.24864 0.79049 0.86647 0.0
S987 S 0.56067 0.72373 0.86744 0.0
N988 N 0.53717 0.73701 0.84933 0.0
N989 N 0.48253 0.7348 0.8802 0.0
C990 C 0.4332 0.75037 0.86989 0.0
C991 C 0.46292 0.75154 0.85321 0.0
C992 C 0.13416 0.66558 0.05271 0.0
C993 C 0.12308 0.6791 0.03766 0.0
C994 C 0.155 0.63831 0.05305 0.0
C995 C 0.16787 0.62388 0.03835 0.0
H996 H 0.12502 0.676 0.06428 0.0
H997 H 0.16168 0.62854 0.06487 0.0
S998 S 0.14736 0.65018 -0.00421 0.0
N999 N 0.12644 0.67592 0.00777 0.0
N1000 N 0.16733 0.62521 0.00838 0.0
C1001 C 0.15781 0.6373 0.02328 0.0
C1002 C 0.13492 0.66476 0.02294 0.0
C1003 C 0.21138 0.65227 0.16688 0.0
C1004 C 0.14597 0.67253 0.16796 0.0
C1005 C 0.18658 0.6254 0.16606 0.0
C1006 C 0.09537 0.61766 0.16654 0.0
H1007 H 0.28274 0.6571 0.16684 0.0
H1008 H 0.23945 0.61057 0.16568 0.0
S1009 S 0.89716 0.66255 0.16807 0.0
N1010 N 0.98521 0.68273 0.16844 0.0
N1011 N 0.93904 0.63223 0.1672 0.0
C1012 C 0.0291 0.6376 0.16717 0.0
C1013 C 0.05422 0.66501 0.16779 0.0
C1014 C 0.88897 0.38022 0.90672 0.0
C1015 C 0.90118 0.36575 0.92141 0.0
C1016 C 0.87084 0.40773 0.90707 0.0
C1017 C 0.86188 0.42146 0.92213 0.0
H1018 H 0.89482 0.37032 0.8949 0.0
H1019 H 0.86226 0.4182 0.89552 0.0
S1020 S 0.88672 0.39271 0.96399 0.0
N1021 N 0.90277 0.36745 0.95138 0.0
N1022 N 0.86762 0.4185 0.952 0.0
C1023 C 0.87342 0.40712 0.93683 0.0
C1024 C 0.89328 0.37945 0.93648 0.0
C1025 C 0.89816 0.40616 0.80244 0.0
C1026 C 0.90105 0.42067 0.78762 0.0
C1027 C 0.87933 0.37872 0.8024 0.0
C1028 C 0.86047 0.36509 0.78759 0.0
H1029 H 0.91186 0.41597 0.81408 0.0
H1030 H 0.87845 0.36821 0.81404 0.0
S1031 S 0.85686 0.3943 0.7456 0.0
N1032 N 0.88219 0.4194 0.75786 0.0
N1033 N 0.8455 0.36838 0.75779 0.0
C1034 C 0.86205 0.37956 0.77278 0.0
C1035 C 0.88269 0.40719 0.7728 0.0
C1036 C 0.08832 0.12886 0.5288 0.0
C1037 C 0.13497 0.11588 0.5415 0.0
C1038 C 0.06973 0.15599 0.52967 0.0
C1039 C 0.09877 0.1716 0.54312 0.0
H1040 H 0.06643 0.11794 0.51797 0.0
H1041 H 0.0342 0.16485 0.51937 0.0
S1042 S 0.22313 0.14678 0.57983 0.0
N1043 N 0.20815 0.12011 0.56823 0.0
N1044 N 0.17555 0.1716 0.56975 0.0
C1045 C 0.14453 0.15873 0.55613 0.0
C1046 C 0.16198 0.13076 0.55535 0.0
C1047 C 0.08325 0.16053 0.68128 0.0
C1048 C 0.13866 0.17229 0.66936 0.0
C1049 C 0.06491 0.13331 0.68103 0.0
C1050 C 0.10266 0.11648 0.66901 0.0
H1051 H 0.05419 0.1725 0.69103 0.0
H1052 H 0.02214 0.1254 0.69065 0.0
S1053 S 0.25269 0.13783 0.63485 0.0
N1054 N 0.23012 0.16557 0.64493 0.0
N1055 N 0.19767 0.11399 0.64457 0.0
C1056 C 0.15731 0.12813 0.65676 0.0
C1057 C 0.1748 0.15613 0.6569 0.0
C1058 C 0.84771 0.87351 0.43531 0.0
C1059 C 0.88249 0.8605 0.4214 0.0
C1060 C 0.82531 0.90043 0.43487 0.0
C1061 C 0.83843 0.91573 0.42059 0.0
H1062 H 0.83757 0.86273 0.4467 0.0
H1063 H 0.79931 0.90939 0.44604 0.0
S1064 S 0.93169 0.89125 0.38092 0.0
N1065 N 0.93049 0.86477 0.39291 0.0
N1066 N 0.89043 0.9158 0.39212 0.0
C1067 C 0.87355 0.90298 0.40651 0.0
C1068 C 0.89501 0.87526 0.4069 0.0
C1069 C 0.93111 0.87046 0.29721 0.0
C1070 C 0.85168 0.86241 0.2889 0.0
C1071 C 0.95414 0.89742 0.29874 0.0
C1072 C 0.89739 0.91727 0.29244 0.0
H1073 H 0.97722 0.85583 0.30219 0.0
H1074 H 0.01724 0.90278 0.30471 0.0
S1075 S 0.68162 0.90742 0.26999 0.0
N1076 N 0.71588 0.87709 0.27444 0.0
N1077 N 0.75897 0.92758 0.27776 0.0
C1078 C 0.81697 0.90974 0.28454 0.0
C1079 C 0.79411 0.88235 0.28267 0.0
C1080 C 0.5775 0.6259 0.54905 0.0
C1081 C 0.65945 0.61778 0.54193 0.0
C1082 C 0.55317 0.6528 0.54965 0.0
C1083 C 0.61037 0.67277 0.54341 0.0
H1084 H 0.53032 0.61133 0.55376 0.0
H1085 H 0.48844 0.65794 0.55496 0.0
S1086 S 0.83473 0.66214 0.52419 0.0
N1087 N 0.79948 0.63202 0.52897 0.0
N1088 N 0.7541 0.6825 0.53027 0.0
C1089 C 0.69378 0.665 0.53669 0.0
C1090 C 0.71815 0.63756 0.5359 0.0
C1091 C 0.68317 0.62605 0.66354 0.0
C1092 C 0.59799 0.61797 0.66944 0.0
C1093 C 0.70705 0.65305 0.66276 0.0
C1094 C 0.64594 0.67304 0.6674 0.0
H1095 H 0.73303 0.61143 0.65999 0.0
H1096 H 0.7744 0.65831 0.65869 0.0
S1097 S 0.41371 0.66292 0.68314 0.0
N1098 N 0.45167 0.63262 0.6797 0.0
N1099 N 0.49638 0.68315 0.67778 0.0
C1100 C 0.55965 0.66541 0.67274 0.0
C1101 C 0.53577 0.63794 0.67388 0.0
C1102 C 0.43428 0.41303 0.41186 0.0
C1103 C 0.352 0.42166 0.41859 0.0
C1104 C 0.45603 0.38596 0.41119 0.0
C1105 C 0.39546 0.36641 0.41683 0.0
H1106 H 0.48371 0.42733 0.40761 0.0
H1107 H 0.52137 0.38031 0.40634 0.0
S1108 S 0.16883 0.37864 0.43471 0.0
N1109 N 0.20831 0.40855 0.43055 0.0
N1110 N 0.24817 0.35764 0.42888 0.0
C1111 C 0.31153 0.37474 0.42305 0.0
C1112 C 0.29016 0.40236 0.42405 0.0
C1113 C 0.31591 0.38171 0.27924 0.0
C1114 C 0.35787 0.36398 0.29028 0.0
C1115 C 0.33394 0.40897 0.27972 0.0
C1116 C 0.39319 0.41986 0.29145 0.0
H1117 H 0.2701 0.37449 0.26979 0.0
H1118 H 0.3021 0.42166 0.27062 0.0
S1119 S 0.51816 0.38294 0.32369 0.0
N1120 N 0.46035 0.35979 0.31373 0.0
N1121 N 0.49246 0.41138 0.31472 0.0
C1122 C 0.43361 0.40279 0.30296 0.0
C1123 C 0.4164 0.37477 0.30235 0.0
C1124 C 0.7114 0.13446 0.03649 0.0
C1125 C 0.65445 0.11468 0.04309 0.0
C1126 C 0.68869 0.1615 0.03733 0.0
C1127 C 0.60728 0.16983 0.04454 0.0
H1128 H 0.77353 0.12903 0.03034 0.0
H1129 H 0.73353 0.17586 0.0317 0.0
S1130 S 0.43814 0.12657 0.06494 0.0
N1131 N 0.51593 0.10579 0.0582 0.0
N1132 N 0.47258 0.15645 0.05944 0.0
C1133 C 0.55123 0.15044 0.05169 0.0
C1134 C 0.57499 0.12294 0.05108 0.0
C1135 C 0.70032 0.15511 0.17546 0.0
C1136 C 0.6399 0.17486 0.17006 0.0
C1137 C 0.67782 0.12807 0.17453 0.0
C1138 C 0.59332 0.11971 0.16839 0.0
H1139 H 0.76543 0.16056 0.18062 0.0
H1140 H 0.72624 0.1137 0.17906 0.0
S1141 S 0.41383 0.16338 0.15138 0.0
N1142 N 0.49434 0.18405 0.15733 0.0
N1143 N 0.45152 0.13337 0.1557 0.0
C1144 C 0.53362 0.13921 0.16238 0.0
C1145 C 0.55704 0.16673 0.16316 0.0
C1146 C 0.37971 0.88146 0.90732 0.0
C1147 C 0.39592 0.86743 0.92207 0.0
C1148 C 0.3637 0.90914 0.90746 0.0
C1149 C 0.3611 0.92359 0.92237 0.0
H1150 H 0.3809 0.8711 0.89561 0.0
H1151 H 0.35188 0.91919 0.89586 0.0
S1152 S 0.39651 0.89608 0.96433 0.0
N1153 N 0.40684 0.87027 0.95194 0.0
N1154 N 0.37557 0.92156 0.95218 0.0
C1155 C 0.3759 0.90962 0.93713 0.0
C1156 C 0.39358 0.88178 0.93698 0.0
C1157 C 0.39984 0.87998 0.77309 0.0
C1158 C 0.36852 0.8665 0.78709 0.0
C1159 C 0.41566 0.90737 0.77335 0.0
C1160 C 0.39899 0.92277 0.78751 0.0
H1161 H 0.41288 0.8692 0.76178 0.0
H1162 H 0.43995 0.91659 0.76215 0.0
S1163 S 0.31542 0.89709 0.82756 0.0
N1164 N 0.32175 0.87045 0.8157 0.0
N1165 N 0.34918 0.92228 0.81609 0.0
C1166 C 0.36735 0.90958 0.80169 0.0
C1167 C 0.35289 0.88139 0.80151 0.0
C1168 C 0.61909 0.53563 0.04824 0.0
C1169 C 0.63451 0.51053 0.04118 0.0
C1170 C 0.53135 0.54463 0.05144 0.0
C1171 C 0.45522 0.52886 0.0478 0.0
H1172 H 0.67527 0.5486 0.05125 0.0
H1173 H 0.52342 0.56425 0.0567 0.0
S1174 S 0.45879 0.4608 0.03001 0.0
N1175 N 0.56618 0.46955 0.03114 0.0
N1176 N 0.40143 0.48633 0.03723 0.0
C1177 C 0.46964 0.50347 0.04096 0.0
C1178 C 0.55913 0.49437 0.03761 0.0
C1179 C 0.65078 0.76226 0.05607 0.0
C1180 C 0.62052 0.77552 0.04181 0.0
C1181 C 0.74277 0.75703 0.0587 0.0
C1182 C 0.80859 0.76479 0.04719 0.0
H1183 H 0.60313 0.75594 0.06538 0.0
H1184 H 0.76223 0.7469 0.06993 0.0
S1185 S 0.76532 0.79972 0.00762 0.0
N1186 N 0.66435 0.79606 0.01589 0.0
N1187 N 0.83669 0.78617 0.0208 0.0
C1188 C 0.7793 0.77788 0.03279 0.0
C1189 C 0.68557 0.78326 0.03012 0.0
C1190 C 0.60249 0.77898 0.15569 0.0
C1191 C 0.64195 0.76923 0.17026 0.0
C1192 C 0.5089 0.77734 0.153 0.0
C1193 C 0.45105 0.76573 0.16473 0.0
H1194 H 0.64396 0.78846 0.14642 0.0
H1195 H 0.48175 0.78556 0.1417 0.0
S1196 S 0.52255 0.73488 0.2042 0.0
N1197 N 0.61724 0.74625 0.19613 0.0
N1198 N 0.44165 0.74271 0.19102 0.0
C1199 C 0.49018 0.7553 0.17918 0.0
C1200 C 0.58545 0.75719 0.18196 0.0
C1201 C 0.74445 0.52339 0.15092 0.0
C1202 C 0.80427 0.52826 0.16409 0.0
C1203 C 0.65323 0.51739 0.15373 0.0
C1204 C 0.61819 0.51615 0.16983 0.0
H1205 H 0.76852 0.52383 0.13833 0.0
H1206 H 0.61012 0.51341 0.14319 0.0
S1207 S 0.74587 0.52913 0.20849 0.0
N1208 N 0.82166 0.53254 0.19377 0.0
N1209 N 0.6502 0.52135 0.1991 0.0
C1210 C 0.67727 0.52121 0.18311 0.0
C1211 C 0.77025 0.52726 0.18023 0.0
C1212 C 0.53217 0.52601 0.92647 0.0
C1213 C 0.56052 0.51197 0.91239 0.0
C1214 C 0.44114 0.53234 0.92894 0.0
C1215 C 0.37423 0.52473 0.91751 0.0
H1216 H 0.58078 0.53242 0.93568 0.0
H1217 H 0.42324 0.54323 0.93998 0.0
S1218 S 0.41238 0.4878 0.87845 0.0
N1219 N 0.51402 0.49077 0.88673 0.0
N1220 N 0.34275 0.50253 0.8914 0.0
C1221 C 0.40139 0.51064 0.90334 0.0
C1222 C 0.49447 0.50433 0.90077 0.0
C1223 C 0.31864 0.25141 0.92538 0.0
C1224 C 0.38826 0.26512 0.91723 0.0
C1225 C 0.22769 0.25767 0.9226 0.0
C1226 C 0.20254 0.27781 0.9115 0.0
H1227 H 0.3342 0.23555 0.93391 0.0
H1228 H 0.17669 0.2464 0.92912 0.0
S1229 S 0.35841 0.32034 0.88742 0.0
N1230 N 0.42553 0.30029 0.89784 0.0
N1231 N 0.25453 0.31189 0.8926 0.0
C1232 C 0.27123 0.29175 0.9033 0.0
C1233 C 0.36402 0.28547 0.90617 0.0
C1234 C 0.53148 0.26275 0.78397 0.0
C1235 C 0.55938 0.27733 0.79793 0.0
C1236 C 0.44072 0.25586 0.78151 0.0
C1237 C 0.37375 0.26333 0.79286 0.0
H1238 H 0.58019 0.25636 0.77486 0.0
H1239 H 0.4232 0.24453 0.77059 0.0
S1240 S 0.41077 0.30161 0.83153 0.0
N1241 N 0.51227 0.299 0.82333 0.0
N1242 N 0.3417 0.28613 0.81869 0.0
C1243 C 0.40046 0.27802 0.80687 0.0
C1244 C 0.49315 0.28498 0.80941 0.0
C1245 C 0.26804 0.50965 0.80851 0.0
C1246 C 0.20642 0.50849 0.79532 0.0
C1247 C 0.35889 0.51606 0.80592 0.0
C1248 C 0.39198 0.52135 0.79 0.0
H1249 H 0.24577 0.5058 0.82099 0.0
H1250 H 0.40341 0.51692 0.81654 0.0
S1251 S 0.25774 0.52019 0.75121 0.0
N1252 N 0.18402 0.51289 0.76575 0.0
N1253 N 0.35532 0.52472 0.76078 0.0
C1254 C 0.33074 0.52038 0.77667 0.0
C1255 C 0.23784 0.514 0.77936 0.0
C1256 C 0.49046 0.02953 0.53229 0.0
C1257 C 0.45088 0.02144 0.54722 0.0
C1258 C 0.58282 0.02565 0.52925 0.0
C1259 C 0.63931 1.01369 0.54106 0.0
H1260 H 0.44995 0.03914 0.5229 0.0
H1261 H 0.61036 0.03236 0.51762 0.0
S1262 S 0.56715 0.98622 0.58137 0.0
N1263 N 0.47421 0.99906 0.57341 0.0
N1264 N 0.64759 0.99205 0.5678 0.0
C1265 C 0.60031 1.00506 0.55592 0.0
C1266 C 0.5062 1.00887 0.55897 0.0
C1267 C 0.69784 0.28434 0.53475 0.0
C1268 C 0.62818 0.27259 0.54396 0.0
C1269 C 0.7885 0.27802 0.53771 0.0
C1270 C 0.81339 0.2598 0.55005 0.0
H1271 H 0.68258 0.2987 0.52523 0.0
H1272 H 0.83948 0.28779 0.53032 0.0
S1273 S 0.65683 0.22279 0.57731 0.0
N1274 N 0.59023 0.24125 0.56571 0.0
N1275 N 0.76074 0.22956 0.57129 0.0
C1276 C 0.74449 0.24769 0.55926 0.0
C1277 C 0.65195 0.25401 0.5562 0.0
C1278 C 0.61236 0.25161 0.66098 0.0
C1279 C 0.63573 0.27631 0.66792 0.0
C1280 C 0.52188 0.24437 0.65857 0.0
C1281 C 0.45138 0.26158 0.66299 0.0
H1282 H 0.66441 0.23761 0.6575 0.0
H1283 H 0.50721 0.22501 0.65336 0.0
S1284 S 0.47667 0.32961 0.68016 0.0
N1285 N 0.58125 0.31869 0.67826 0.0
N1286 N 0.41104 0.30515 0.67371 0.0
C1287 C 0.47378 0.28658 0.66968 0.0
C1288 C 0.566 0.29392 0.67216 0.0
C1289 C 0.74114 0.03551 0.65365 0.0
C1290 C 0.81056 0.02539 0.66369 0.0
C1291 C 0.65058 0.02867 0.65631 0.0
C1292 C 0.62547 1.01133 0.6691 0.0
H1293 H 0.75661 0.04888 0.6436 0.0
H1294 H 0.59994 0.03704 0.64818 0.0
S1295 S 0.78168 0.97886 0.69878 0.0
N1296 N 0.84813 0.99682 0.68691 0.0
N1297 N 0.67811 0.98396 0.69188 0.0
C1298 C 0.69424 1.00102 0.67927 0.0
C1299 C 0.78661 1.00804 0.67658 0.0
C1300 C 0.47885 0.99695 0.40738 0.0
C1301 C 0.5541 1.01264 0.41175 0.0
C1302 C 0.3904 1.00555 0.4104 0.0
C1303 C 0.37334 0.03015 0.41801 0.0
H1304 H 0.48802 0.97766 0.40172 0.0
H1305 H 0.33495 0.99264 0.40688 0.0
S1306 S 0.54609 0.07964 0.43095 0.0
N1307 N 0.60519 0.05468 0.42344 0.0
N1308 N 0.43911 0.07069 0.4292 0.0
C1309 C 0.44778 0.04626 0.42225 0.0
C1310 C 0.538 0.03757 0.41908 0.0
C1311 C 0.33014 0.76856 0.43198 0.0
C1312 C 0.3917 0.7648 0.41902 0.0
C1313 C 0.23866 0.77377 0.42884 0.0
C1314 C 0.20501 0.77545 0.41262 0.0
H1315 H 0.35277 0.76767 0.44468 0.0
H1316 H 0.19399 0.77659 0.43924 0.0
S1317 S 0.33713 0.76516 0.37431 0.0
N1318 N 0.41167 0.76163 0.38933 0.0
N1319 N 0.2403 0.77199 0.38342 0.0
C1320 C 0.2658 0.77161 0.39953 0.0
C1321 C 0.35889 0.76609 0.40273 0.0
C1322 C 0.43261 0.74989 0.28701 0.0
C1323 C 0.36571 0.76741 0.29277 0.0
C1324 C 0.52484 0.75591 0.28861 0.0
C1325 C 0.55415 0.77968 0.29607 0.0
H1326 H 0.4138 0.7312 0.28132 0.0
H1327 H 0.57354 0.74161 0.28412 0.0
S1328 S 0.40631 0.83306 0.31232 0.0
N1329 N 0.33534 0.81005 0.30569 0.0
N1330 N 0.5085 0.82135 0.30871 0.0
C1331 C 0.48803 0.7975 0.30177 0.0
C1332 C 0.39398 0.79137 0.30013 0.0
C1333 C 0.216 0.03078 0.28978 0.0
C1334 C 0.19567 1.00651 0.29747 0.0
C1335 C 0.30562 0.03907 0.28761 0.0
C1336 C 0.3786 0.02335 0.29295 0.0
H1337 H 0.16219 0.04376 0.28566 0.0
H1338 H 0.3175 0.05815 0.28188 0.0
S1339 S 0.36123 0.95688 0.31243 0.0
N1340 N 0.25533 0.96615 0.30962 0.0
N1341 N 0.42398 0.98147 0.30538 0.0
C1342 C 0.35908 0.9987 0.30032 0.0
C1343 C 0.26762 0.99037 0.30263 0.0
C1344 C 0.10344 0.51589 0.55625 0.0
C1345 C 0.13817 0.51518 0.54013 0.0
C1346 C 0.01119 0.52005 0.55914 0.0
C1347 C 0.94998 0.52388 0.54604 0.0
H1348 H 0.1476 0.51277 0.56675 0.0
H1349 H 0.98783 0.52006 0.57178 0.0
S1350 S 0.00784 0.52528 0.50149 0.0
N1351 N 0.10489 0.51944 0.5109 0.0
N1352 N 0.93184 0.52761 0.51626 0.0
C1353 C 0.98417 0.52358 0.52983 0.0
C1354 C 0.07808 0.51912 0.5269 0.0
C1355 C 0.2443 0.77722 0.55717 0.0
C1356 C 0.30192 0.76454 0.54583 0.0
C1357 C 0.15045 0.77835 0.55457 0.0
C1358 C 0.11052 0.767 0.54047 0.0
H1359 H 0.27189 0.78666 0.5681 0.0
H1360 H 0.10911 0.78865 0.56352 0.0
S1361 S 0.22909 0.72966 0.50764 0.0
N1362 N 0.31051 0.73897 0.5204 0.0
N1363 N 0.13455 0.74168 0.51539 0.0
C1364 C 0.16683 0.75408 0.5291 0.0
C1365 C 0.26233 0.75267 0.53181 0.0
C1366 C 0.97533 0.78414 0.67033 0.0
C1367 C 0.94942 0.7596 0.66349 0.0
C1368 C 0.06666 0.79069 0.67258 0.0
C1369 C 0.13565 0.77288 0.66815 0.0
H1370 H 0.92466 0.79864 0.67372 0.0
H1371 H 0.08314 0.81004 0.67761 0.0
S1372 S 0.10285 0.70481 0.65153 0.0
N1373 N 0.99939 0.71666 0.6534 0.0
N1374 N 0.17119 0.72879 0.65776 0.0
C1375 C 0.11047 0.74796 0.66171 0.0
C1376 C 0.01735 0.74136 0.65934 0.0
C1377 C 0.18461 0.51329 0.68031 0.0
C1378 C 0.12142 0.51566 0.66738 0.0
C1379 C 0.2768 0.51834 0.67781 0.0
C1380 C 0.30997 0.52586 0.66226 0.0
H1381 H 0.16278 0.50768 0.69255 0.0
H1382 H 0.32232 0.51632 0.68822 0.0
S1383 S 0.17332 0.53325 0.62399 0.0
N1384 N 0.09919 0.52494 0.63823 0.0
N1385 N 0.27201 0.53444 0.63351 0.0
C1386 C 0.24765 0.52791 0.64913 0.0
C1387 C 0.15364 0.52281 0.65169 0.0
C1388 C 0.89649 0.50117 0.41262 0.0
C1389 C 0.87532 0.52671 0.41845 0.0
C1390 C 0.98622 0.49294 0.41098 0.0
C1391 C 0.05839 0.50996 0.41503 0.0
H1392 H 0.84327 0.48727 0.40941 0.0
H1393 H 0.99884 0.473 0.40654 0.0
S1394 S 0.0389 0.57955 0.42993 0.0
N1395 N 0.93342 0.56937 0.42774 0.0
N1396 N 0.10241 0.55407 0.42459 0.0
C1397 C 0.03814 0.53573 0.42073 0.0
C1398 C 0.94655 0.54405 0.42247 0.0
C1399 C 0.84436 0.25958 0.40159 0.0
C1400 C 0.88643 0.26649 0.41653 0.0
C1401 C 0.75065 0.26266 0.39943 0.0
C1402 C 0.69575 0.27296 0.41211 0.0
H1403 H 0.88376 0.25112 0.39165 0.0
H1404 H 0.72097 0.25652 0.3878 0.0
S1405 S 0.77646 0.296 0.45315 0.0
N1406 N 0.86836 0.28495 0.44393 0.0
N1407 N 0.69295 0.29153 0.43985 0.0
C1408 C 0.73809 0.28051 0.427 0.0
C1409 C 0.83321 0.27703 0.42922 0.0
C1410 C 0.018 0.28328 0.28546 0.0
C1411 C 0.06126 0.26826 0.29779 0.0
C1412 C 0.92463 0.28082 0.28255 0.0
C1413 C 0.87141 0.26342 0.29195 0.0
H1414 H 0.05635 0.29723 0.27811 0.0
H1415 H 0.89364 0.29282 0.27302 0.0
S1416 S 0.95346 0.21709 0.32407 0.0
N1417 N 0.0446 0.23365 0.31841 0.0
N1418 N 0.8694 0.22926 0.31298 0.0
C1419 C 0.91395 0.24785 0.304 0.0
C1420 C 0.00885 0.25024 0.30693 0.0
C1421 C 0.85875 0.52126 0.3073 0.0
C1422 C 0.89049 0.52501 0.29112 0.0
C1423 C 0.76757 0.51563 0.31042 0.0
C1424 C 0.70435 0.51343 0.29748 0.0
H1425 H 0.90448 0.52297 0.31771 0.0
H1426 H 0.74659 0.51318 0.3231 0.0
S1427 S 0.75325 0.52068 0.25284 0.0
N1428 N 0.8516 0.52572 0.26199 0.0
N1429 N 0.68058 0.51495 0.26778 0.0
C1430 C 0.73528 0.51701 0.28122 0.0
C1431 C 0.82812 0.52287 0.27807 0.0
C1432 C 0.01788 0.0373 0.05429 0.0
C1433 C 0.94819 0.0235 0.04613 0.0
C1434 C 0.10886 0.0309 0.05162 0.0
C1435 C 0.13375 1.01033 0.04075 0.0
H1436 H 1.00224 0.05337 0.06269 0.0
H1437 H 0.16 0.04225 0.05814 0.0
S1438 S 0.97608 0.96688 0.01719 0.0
N1439 N 0.90975 0.98754 0.02727 0.0
N1440 N 0.08021 0.97545 0.02229 0.0
C1441 C 0.06441 0.9961 0.0327 0.0
C1442 C 0.97185 1.00269 0.03537 0.0
C1443 C 0.17576 0.25983 0.02879 0.0
C1444 C 0.12025 0.27043 0.0412 0.0
C1445 C 0.26862 0.25592 0.03144 0.0
C1446 C 0.3095 0.26259 0.04658 0.0
H1447 H 0.14694 0.25407 0.01702 0.0
H1448 H 0.3084 0.24727 0.02163 0.0
S1449 S 0.19645 0.29486 0.08213 0.0
N1450 N 0.11441 0.29001 0.06858 0.0
N1451 N 0.28881 0.28277 0.07358 0.0
C1452 C 0.25526 0.27406 0.05891 0.0
C1453 C 0.16068 0.27797 0.05621 0.0
C1454 C 0.02058 0.23877 0.1653 0.0
C1455 C 0.95181 0.25801 0.1649 0.0
C1456 C 0.11183 0.24615 0.16661 0.0
C1457 C 0.13737 0.27299 0.16766 0.0
H1458 H 0.00378 0.21785 0.16487 0.0
H1459 H 0.16261 0.23072 0.16716 0.0
S1460 S 0.98433 0.33107 0.16508 0.0
N1461 N 0.91622 0.30511 0.16417 0.0
N1462 N 0.08741 0.31889 0.16694 0.0
C1463 C 0.06953 0.29243 0.16688 0.0
C1464 C 0.97679 0.28495 0.16541 0.0
C1465 C 0.27172 0.02229 0.17818 0.0
C1466 C 0.30791 0.02399 0.16219 0.0
C1467 C 0.17926 1.01779 0.18071 0.0
C1468 C 0.1189 1.01499 0.16737 0.0
H1469 H 0.31503 0.02448 0.18889 0.0
H1470 H 0.1549 1.01671 0.19327 0.0
S1471 S 0.17945 1.01611 0.123 0.0
N1472 N 0.27598 0.02138 0.13274 0.0
N1473 N 0.1025 1.01303 0.13755 0.0
C1474 C 0.1541 1.01636 0.15131 0.0
C1475 C 0.24841 0.02084 0.14871 0.0
C1476 C 0.94318 0.0436 0.9185 0.0
C1477 C 0.87231 0.02503 0.91854 0.0
C1478 C 0.0324 0.03561 0.91567 0.0
C1479 C 0.05395 1.00875 0.91288 0.0
H1480 H 0.92951 0.0645 0.92042 0.0
H1481 H 0.08487 0.05064 0.91564 0.0
S1482 S 0.89282 0.95222 0.91301 0.0
N1483 N 0.82938 0.97859 0.91633 0.0
N1484 N 0.99708 0.96349 0.91103 0.0
C1485 C 0.98356 0.98998 0.91302 0.0
C1486 C 0.89275 0.99814 0.91588 0.0
C1487 C 0.81698 0.75821 0.92945 0.0
C1488 C 0.88366 0.76404 0.9177 0.0
C1489 C 0.72597 0.76415 0.92653 0.0
C1490 C 0.69757 0.77599 0.91167 0.0
H1491 H 0.83505 0.74904 0.94106 0.0
H1492 H 0.67748 0.75921 0.93601 0.0
S1493 S 0.84517 0.79464 0.87663 0.0
N1494 N 0.91489 0.78201 0.89045 0.0
N1495 N 0.74369 0.79303 0.88495 0.0
C1496 C 0.76341 0.78178 0.89974 0.0
C1497 C 0.85641 0.77588 0.90276 0.0
C1498 C 0.01801 0.77454 0.78301 0.0
C1499 C 0.05487 0.77307 0.79901 0.0
C1500 C 0.92543 0.77038 0.78016 0.0
C1501 C 0.86613 0.76475 0.79321 0.0
H1502 H 0.0607 0.77925 0.7726 0.0
H1503 H 0.89996 0.77206 0.76767 0.0
S1504 S 0.92991 0.75536 0.8371 0.0
N1505 N 0.02548 0.76329 0.82789 0.0
N1506 N 0.85192 0.75561 0.8225 0.0
C1507 C 0.9024 0.76241 0.80919 0.0
C1508 C 0.9966 0.76655 0.81209 0.0
C1509 C 0.76518 0.99925 0.80668 0.0
C1510 C 0.69705 1.01179 0.79741 0.0
C1511 C 0.85672 1.0054 0.80435 0.0
C1512 C 0.88409 0.02442 0.79268 0.0
H1513 H 0.7479 0.98442 0.81579 0.0
H1514 H 0.90638 0.99505 0.81176 0.0
S1515 S 0.73177 0.06404 0.7658 0.0
N1516 N 0.66311 0.04482 0.77644 0.0
N1517 N 0.8347 0.05643 0.77208 0.0
C1518 C 0.81652 0.03734 0.78342 0.0
C1519 C 0.72325 0.03101 0.78578 0.0
C1520 C 0.94734 0.51662 -0.00617 0.0
C1521 C 0.0361 0.5194 -0.00012 0.0
C1522 C 0.93008 0.51443 0.97682 0.0
C1523 C 1.00104 0.5147 0.96526 0.0
H1524 H 0.89067 0.51688 0.00225 0.0
H1525 H 0.86045 0.51317 0.97272 0.0
S1526 S 0.2465 0.51789 0.97507 0.0
N1527 N 0.19612 0.51999 -0.00687 0.0
N1528 N 0.16422 0.51539 0.96137 0.0
C1529 C 0.09035 0.51624 0.97129 0.0
C1530 C 0.10771 0.51873 -0.01148 0.0
C1531 C 0.32736 0.75839 0.97347 0.0
C1532 C 0.27031 0.77399 0.96363 0.0
C1533 C 0.31406 0.75679 -0.00954 0.0
C1534 C 0.24359 0.77088 -0.00197 0.0
H1535 H 0.38128 0.74693 0.96794 0.0
H1536 H 0.35844 0.74421 -0.00234 0.0
S1537 S 0.08337 0.81701 0.97761 0.0
N1538 N 0.14579 0.80515 0.96246 0.0
N1539 N 0.12102 0.80264 -0.00543 0.0
C1540 C 0.18775 0.78715 -0.01171 0.0
C1541 C 0.2011 0.7886 0.971 0.0
C1542 C 0.04501 0.78794 0.24028 0.0
C1543 C 0.99111 0.76857 0.24792 0.0
C1544 C 0.05743 0.78786 0.22318 0.0
C1545 C 0.0162 0.76844 0.21319 0.0
H1546 H 0.07647 0.80356 0.24751 0.0
H1547 H 0.09824 0.80338 0.21772 0.0
S1548 S 0.87827 0.7115 0.22741 0.0
N1549 N 0.90265 0.72819 0.2444 0.0
N1550 N 0.92569 0.72817 0.21221 0.0
C1551 C 0.96415 0.74858 0.22071 0.0
C1552 C 0.95172 0.74861 0.2381 0.0
C1553 C 0.29896 0.50036 0.22044 0.0
C1554 C 0.24363 0.51961 0.21299 0.0
C1555 C 0.31068 0.49961 0.23759 0.0
C1556 C 0.26774 0.51814 0.24795 0.0
H1557 H 0.33232 0.48547 0.21298 0.0
H1558 H 0.35322 0.48425 0.24279 0.0
S1559 S 0.12328 0.57421 0.23439 0.0
N1560 N 0.15001 0.55865 0.21716 0.0
N1561 N 0.17254 0.55738 0.24936 0.0
C1562 C 0.21357 0.5378 0.24061 0.0
C1563 C 0.20147 0.53851 0.22316 0.0
C1564 C 0.84114 0.26361 0.97295 0.0
C1565 C 0.77421 0.2744 0.96264 0.0
C1566 C 0.82775 0.26169 -0.01004 0.0
C1567 C 0.74731 0.27076 -0.00278 0.0
H1568 H 0.90301 0.25576 0.96778 0.0
H1569 H 0.88008 0.25252 -0.00264 0.0
S1570 S 0.55747 0.30439 0.97556 0.0
N1571 N 0.62908 0.29652 0.96079 0.0
N1572 N 0.6039 0.29363 -0.00718 0.0
C1573 C 0.68189 0.2829 -0.01296 0.0
C1574 C 0.69529 0.28452 0.96972 0.0
C1575 C 0.07538 0.27321 0.73977 0.0
C1576 C 0.99053 0.26781 0.74678 0.0
C1577 C 0.08805 0.27203 0.72268 0.0
C1578 C 0.01633 0.26538 0.712 0.0
H1579 H 0.13226 0.27866 0.74753 0.0
H1580 H 0.15413 0.27684 0.7178 0.0
S1581 S 0.78358 0.24668 0.72429 0.0
N1582 N 0.83533 0.25379 0.74182 0.0
N1583 N 0.8593 0.25151 0.7097 0.0
C1584 C 0.93168 0.25938 0.71887 0.0
C1585 C 0.9187 0.26064 0.73626 0.0
C1586 C 0.68687 0.51357 0.7411 0.0
C1587 C 0.77157 0.5183 0.74842 0.0
C1588 C 0.67569 0.51455 0.72395 0.0
C1589 C 0.7486 0.52058 0.71345 0.0
H1590 H 0.62885 0.50881 0.74865 0.0
H1591 H 0.60917 0.51042 0.71893 0.0
S1592 S 0.98355 0.53621 0.72676 0.0
N1593 N 0.92915 0.53003 0.74406 0.0
N1594 N 0.90817 0.53241 0.71189 0.0
C1595 C 0.83364 0.52567 0.72071 0.0
C1596 C 0.84511 0.52437 0.73816 0.0
C1597 C 0.04753 0.03796 0.48526 0.0
C1598 C 0.01453 1.01815 0.49591 0.0
C1599 C 0.03262 0.03653 0.46812 0.0
C1600 C 0.98459 1.01517 0.46101 0.0
H1601 H 0.08369 0.05491 0.49025 0.0
H1602 H 0.05709 0.05255 0.46043 0.0
S1603 S 0.8966 0.95627 0.48331 0.0
N1604 N 0.93963 0.97535 0.49793 0.0
N1605 N 0.91237 0.9725 0.4659 0.0
C1606 C 0.9545 0.99478 0.47152 0.0
C1607 C 0.9692 0.99632 0.48889 0.0
C1608 C 0.33262 0.27439 0.47465 0.0
C1609 C 0.26075 0.26897 0.46378 0.0
C1610 C 0.32169 0.27221 0.4917 0.0
C1611 C 0.23859 0.2643 0.49855 0.0
H1612 H 0.39764 0.28077 0.46999 0.0
H1613 H 0.37882 0.27711 0.49953 0.0
S1614 S 0.03128 0.24568 0.47516 0.0
N1615 N 0.10524 0.25406 0.46091 0.0
N1616 N 0.08433 0.24957 0.49293 0.0
C1617 C 0.16675 0.25809 0.48774 0.0
C1618 C 0.17785 0.2606 0.47038 0.0
C1619 C 0.18726 1.00944 0.74006 0.0
C1620 C 0.26321 0.02078 0.74786 0.0
C1621 C 0.17704 1.01043 0.72291 0.0
C1622 C 0.24266 0.02261 0.71297 0.0
H1623 H 0.13609 0.9993 0.74721 0.0
H1624 H 0.11855 1.00097 0.71734 0.0
S1625 S 0.44712 0.05844 0.72737 0.0
N1626 N 0.40046 0.04695 0.74438 0.0
N1627 N 0.38151 0.04828 0.71208 0.0
C1628 C 0.31729 0.03475 0.72058 0.0
C1629 C 0.32748 0.03397 0.73805 0.0
C1630 C 0.71061 0.78756 0.47097 0.0
C1631 C 0.76676 0.76906 0.46315 0.0
C1632 C 0.69589 0.78627 0.48795 0.0
C1633 C 0.73658 0.76636 0.49757 0.0
H1634 H 0.67931 0.8034 0.46398 0.0
H1635 H 0.65375 0.80126 0.49362 0.0
S1636 S 0.87711 0.71073 0.48221 0.0
N1637 N 0.85528 0.72873 0.46569 0.0
N1638 N 0.8273 0.72611 0.49771 0.0
C1639 C 0.78999 0.74712 0.48972 0.0
C1640 C 0.80515 0.74852 0.47245 0.0
C1641 C 0.71963 0.03839 0.22215 0.0
C1642 C 0.74388 1.01639 0.21248 0.0
C1643 C 0.72904 0.03779 0.23937 0.0
C1644 C 0.7634 1.01522 0.2474 0.0
H1645 H 0.6935 0.05616 0.21636 0.0
H1646 H 0.71071 0.05524 0.24643 0.0
S1647 S 0.82773 0.95166 0.22759 0.0
N1648 N 0.79768 0.97096 0.21206 0.0
N1649 N 0.81613 0.9698 0.24444 0.0
C1650 C 0.78644 0.99297 0.23783 0.0
C1651 C 0.77641 0.99356 0.22033 0.0
C1652 C 0.5496 0.53936 0.4862 0.0
C1653 C 0.51347 0.51973 0.49651 0.0
C1654 C 0.5395 0.53757 0.46912 0.0
C1655 C 0.49314 0.51609 0.46193 0.0
H1656 H 0.58532 0.55625 0.49138 0.0
H1657 H 0.56708 0.55324 0.4615 0.0
S1658 S 0.39496 0.45822 0.48345 0.0
N1659 N 0.4354 0.47728 0.49835 0.0
N1660 N 0.41588 0.47412 0.46609 0.0
C1661 C 0.45779 0.49618 0.47205 0.0
C1662 C 0.46815 0.49795 0.48943 0.0
C1663 C 0.56975 0.78024 0.74209 0.0
C1664 C 0.49279 0.7689 0.7494 0.0
C1665 C 0.58279 0.77902 0.72503 0.0
C1666 C 0.51919 0.76651 0.71469 0.0
H1667 H 0.61957 0.7906 0.74953 0.0
H1668 H 0.64194 0.78855 0.71987 0.0
S1669 S 0.31292 0.73057 0.72783 0.0
N1670 N 0.35656 0.74248 0.74509 0.0
N1671 N 0.38106 0.74047 0.71299 0.0
C1672 C 0.44368 0.75427 0.72185 0.0
C1673 C 0.43049 0.75539 0.73922 0.0
C1674 C 0.54398 0.28795 0.23958 0.0
C1675 C 0.49628 0.26789 0.2478 0.0
C1676 C 0.55624 0.28675 0.22252 0.0
C1677 C 0.52125 0.26546 0.21325 0.0
H1678 H 0.57052 0.30485 0.24633 0.0
H1679 H 0.59198 0.3028 0.21649 0.0
S1680 S 0.40172 0.20642 0.22939 0.0
N1681 N 0.42042 0.22518 0.24579 0.0
N1682 N 0.44375 0.22293 0.21359 0.0
C1683 C 0.47543 0.24498 0.22139 0.0
C1684 C 0.46289 0.2462 0.23874 0.0
C1685 C 0.54666 0.99902 -0.01392 0.0
C1686 C 0.518 0.02112 -0.00478 0.0
C1687 C 0.5329 0.9979 0.96904 0.0
C1688 C 0.48956 0.01879 0.96082 0.0
H1689 H 0.57841 0.98235 -0.00779 0.0
H1690 H 0.55404 0.98037 0.96233 0.0
S1691 S 0.41235 0.08225 0.97896 0.0
N1692 N 0.45185 0.06518 -0.0052 0.0
N1693 N 0.42508 0.063 0.96262 0.0
C1694 C 0.46327 0.04133 0.96974 0.0
C1695 C 0.47777 0.04253 -0.01295 0.0
loop_
_geom_bond_atom_site_label_1
_geom_bond_atom_site_label_2
_geom_bond_distance
_geom_bond_site_symmetry_2
_ccdc_geom_bond_type
Zn0 O6 1.969 . S
Zn0 O7 1.965 . S
Zn0 O11 2.024 . S
Zn0 O16 1.969 . S
Zn1 O8 1.969 . S
Zn1 O14 1.969 . S
Zn1 O15 1.965 . S
Zn1 O17 2.024 . S
C2 O3 1.229 . S
C2 O11 1.058 . S
O3 C2 1.229 . S
C4 O5 1.229 . S
C4 O17 1.058 . S
O5 C4 1.229 . S
O6 Zn0 1.969 . S
O6 C9 1.267 . S
O7 Zn0 1.965 . S
O7 C18 1.260 . S
O8 Zn1 1.969 . S
O8 C18 1.258 1_655 S
C9 O6 1.267 . S
C9 O10 1.228 . S
O10 C9 1.228 . S
O11 Zn0 2.024 . S
O11 C2 1.058 . S
C12 O13 1.228 . S
C12 O14 1.267 . S
O13 C12 1.228 . S
O14 Zn1 1.969 . S
O14 C12 1.267 . S
O15 Zn1 1.965 . S
O15 C19 1.260 1_655 S
O16 Zn0 1.969 . S
O16 C19 1.258 . S
O17 Zn1 2.024 . S
O17 C4 1.058 . S
C18 O7 1.260 . S
C18 O8 1.258 1_455 S
C19 O15 1.260 1_455 S
C19 O16 1.258 . S
Zn20 O26 1.969 1_455 S
Zn20 O27 1.965 . S
Zn20 O31 2.024 . S
Zn20 O36 1.969 . S
Zn21 O28 1.969 . S
Zn21 O34 1.969 . S
Zn21 O35 1.965 . S
Zn21 O37 2.024 . S
C22 O23 1.229 . S
C22 O31 1.058 . S
O23 C22 1.229 . S
C24 O25 1.229 . S
C24 O37 1.058 . S
O25 C24 1.229 . S
O26 Zn20 1.969 1_655 S
O26 C29 1.267 . S
O27 Zn20 1.965 . S
O27 C38 1.260 . S
O28 Zn21 1.969 . S
O28 C38 1.258 . S
C29 O26 1.267 . S
C29 O30 1.228 . S
O30 C29 1.228 . S
O31 Zn20 2.024 . S
O31 C22 1.058 . S
C32 O33 1.228 . S
C32 O34 1.267 . S
O33 C32 1.228 . S
O34 Zn21 1.969 . S
O34 C32 1.267 . S
O35 Zn21 1.965 . S
O35 C39 1.260 . S
O36 Zn20 1.969 . S
O36 C39 1.258 . S
O37 Zn21 2.024 . S
O37 C24 1.058 . S
C38 O27 1.260 . S
C38 O28 1.258 . S
C39 O35 1.260 . S
C39 O36 1.258 . S
Zn40 O46 1.969 . S
Zn40 O47 1.965 . S
Zn40 O51 2.024 . S
Zn40 O56 1.969 . S
Zn41 O48 1.969 . S
Zn41 O54 1.969 . S
Zn41 O55 1.965 . S
Zn41 O57 2.024 . S
C42 O43 1.229 . S
C42 O51 1.058 . S
O43 C42 1.229 . S
C44 O45 1.229 . S
C44 O57 1.058 . S
O45 C44 1.229 . S
O46 Zn40 1.969 . S
O46 C49 1.267 . S
O47 Zn40 1.965 . S
O47 C58 1.260 . S
O48 Zn41 1.969 . S
O48 C58 1.258 1_655 S
C49 O46 1.267 . S
C49 O50 1.228 . S
O50 C49 1.228 . S
O51 Zn40 2.024 . S
O51 C42 1.058 . S
C52 O53 1.228 . S
C52 O54 1.267 . S
O53 C52 1.228 . S
O54 Zn41 1.969 . S
O54 C52 1.267 . S
O55 Zn41 1.965 . S
O55 C59 1.260 1_655 S
O56 Zn40 1.969 . S
O56 C59 1.258 . S
O57 Zn41 2.024 . S
O57 C44 1.058 . S
C58 O47 1.260 . S
C58 O48 1.258 1_455 S
C59 O55 1.260 1_455 S
C59 O56 1.258 . S
Zn60 O66 1.969 1_455 S
Zn60 O67 1.965 . S
Zn60 O71 2.024 . S
Zn60 O76 1.969 . S
Zn61 O68 1.969 . S
Zn61 O74 1.969 . S
Zn61 O75 1.965 . S
Zn61 O77 2.024 . S
C62 O63 1.229 . S
C62 O71 1.058 . S
O63 C62 1.229 . S
C64 O65 1.229 . S
C64 O77 1.058 . S
O65 C64 1.229 . S
O66 Zn60 1.969 1_655 S
O66 C69 1.267 . S
O67 Zn60 1.965 . S
O67 C78 1.260 . S
O68 Zn61 1.969 . S
O68 C78 1.258 . S
C69 O66 1.267 . S
C69 O70 1.228 . S
O70 C69 1.228 . S
O71 Zn60 2.024 . S
O71 C62 1.058 . S
C72 O73 1.228 . S
C72 O74 1.267 . S
O73 C72 1.228 . S
O74 Zn61 1.969 . S
O74 C72 1.267 . S
O75 Zn61 1.965 . S
O75 C79 1.260 . S
O76 Zn60 1.969 . S
O76 C79 1.258 . S
O77 Zn61 2.024 . S
O77 C64 1.058 . S
C78 O67 1.260 . S
C78 O68 1.258 . S
C79 O75 1.260 . S
C79 O76 1.258 . S
Zn80 O86 1.969 . S
Zn80 O87 1.965 . S
Zn80 O91 2.024 . S
Zn80 O96 1.969 . S
Zn81 O88 1.969 . S
Zn81 O94 1.969 . S
Zn81 O95 1.965 . S
Zn81 O97 2.024 . S
C82 O83 1.229 . S
C82 O91 1.058 . S
O83 C82 1.229 . S
C84 O85 1.229 . S
C84 O97 1.058 . S
O85 C84 1.229 . S
O86 Zn80 1.969 . S
O86 C89 1.267 . S
O87 Zn80 1.965 . S
O87 C98 1.260 1_455 S
O88 Zn81 1.969 . S
O88 C98 1.258 . S
C89 O86 1.267 . S
C89 O90 1.228 . S
O90 C89 1.228 . S
O91 Zn80 2.024 . S
O91 C82 1.058 . S
C92 O93 1.228 . S
C92 O94 1.267 . S
O93 C92 1.228 . S
O94 Zn81 1.969 . S
O94 C92 1.267 . S
O95 Zn81 1.965 . S
O95 C99 1.260 . S
O96 Zn80 1.969 . S
O96 C99 1.258 1_455 S
O97 Zn81 2.024 . S
O97 C84 1.058 . S
C98 O87 1.260 1_655 S
C98 O88 1.258 . S
C99 O95 1.260 . S
C99 O96 1.258 1_655 S
Zn100 O106 1.969 . S
Zn100 O107 1.965 . S
Zn100 O111 2.024 . S
Zn100 O116 1.969 . S
Zn101 O108 1.969 . S
Zn101 O114 1.969 1_655 S
Zn101 O115 1.965 . S
Zn101 O117 2.024 . S
C102 O103 1.229 . S
C102 O111 1.058 . S
O103 C102 1.229 . S
C104 O105 1.229 . S
C104 O117 1.058 . S
O105 C104 1.229 . S
O106 Zn100 1.969 . S
O106 C109 1.267 . S
O107 Zn100 1.965 . S
O107 C118 1.260 . S
O108 Zn101 1.969 . S
O108 C118 1.258 . S
C109 O106 1.267 . S
C109 O110 1.228 . S
O110 C109 1.228 . S
O111 Zn100 2.024 . S
O111 C102 1.058 . S
C112 O113 1.228 . S
C112 O114 1.267 . S
O113 C112 1.228 . S
O114 Zn101 1.969 1_455 S
O114 C112 1.267 . S
O115 Zn101 1.965 . S
O115 C119 1.260 . S
O116 Zn100 1.969 . S
O116 C119 1.258 . S
O117 Zn101 2.024 . S
O117 C104 1.058 . S
C118 O107 1.260 . S
C118 O108 1.258 . S
C119 O115 1.260 . S
C119 O116 1.258 . S
Zn120 O126 1.969 . S
Zn120 O127 1.965 . S
Zn120 O131 2.024 . S
Zn120 O136 1.969 . S
Zn121 O128 1.969 . S
Zn121 O134 1.969 . S
Zn121 O135 1.965 . S
Zn121 O137 2.024 . S
C122 O123 1.229 . S
C122 O131 1.058 . S
O123 C122 1.229 . S
C124 O125 1.229 . S
C124 O137 1.058 . S
O125 C124 1.229 . S
O126 Zn120 1.969 . S
O126 C129 1.267 . S
O127 Zn120 1.965 . S
O127 C138 1.260 1_455 S
O128 Zn121 1.969 . S
O128 C138 1.258 . S
C129 O126 1.267 . S
C129 O130 1.228 . S
O130 C129 1.228 . S
O131 Zn120 2.024 . S
O131 C122 1.058 . S
C132 O133 1.228 . S
C132 O134 1.267 . S
O133 C132 1.228 . S
O134 Zn121 1.969 . S
O134 C132 1.267 . S
O135 Zn121 1.965 . S
O135 C139 1.260 . S
O136 Zn120 1.969 . S
O136 C139 1.258 1_455 S
O137 Zn121 2.024 . S
O137 C124 1.058 . S
C138 O127 1.260 1_655 S
C138 O128 1.258 . S
C139 O135 1.260 . S
C139 O136 1.258 1_655 S
Zn140 O146 1.969 . S
Zn140 O147 1.965 . S
Zn140 O151 2.024 . S
Zn140 O156 1.969 . S
Zn141 O148 1.969 . S
Zn141 O154 1.969 1_655 S
Zn141 O155 1.965 . S
Zn141 O157 2.024 . S
C142 O143 1.229 . S
C142 O151 1.058 . S
O143 C142 1.229 . S
C144 O145 1.229 . S
C144 O157 1.058 . S
O145 C144 1.229 . S
O146 Zn140 1.969 . S
O146 C149 1.267 . S
O147 Zn140 1.965 . S
O147 C158 1.260 . S
O148 Zn141 1.969 . S
O148 C158 1.258 . S
C149 O146 1.267 . S
C149 O150 1.228 . S
O150 C149 1.228 . S
O151 Zn140 2.024 . S
O151 C142 1.058 . S
C152 O153 1.228 . S
C152 O154 1.267 . S
O153 C152 1.228 . S
O154 Zn141 1.969 1_455 S
O154 C152 1.267 . S
O155 Zn141 1.965 . S
O155 C159 1.260 . S
O156 Zn140 1.969 . S
O156 C159 1.258 . S
O157 Zn141 2.024 . S
O157 C144 1.058 . S
C158 O147 1.260 . S
C158 O148 1.258 . S
C159 O155 1.260 . S
C159 O156 1.258 . S
Zn160 O166 1.969 . S
Zn160 O167 1.965 1_545 S
Zn160 O171 2.024 . S
Zn160 O176 1.969 . S
Zn161 O168 1.969 . S
Zn161 O174 1.969 . S
Zn161 O175 1.940 1_565 S
Zn161 O177 2.024 . S
C162 O163 1.229 . S
C162 O171 1.058 . S
O163 C162 1.229 . S
C164 O165 1.229 . S
C164 O177 1.058 . S
O165 C164 1.229 . S
O166 Zn160 1.969 . S
O166 C169 1.267 . S
O167 Zn160 1.965 1_565 S
O167 C178 1.260 . S
O168 Zn161 1.969 . S
O168 C178 1.258 1_655 S
C169 O166 1.267 . S
C169 O170 1.228 . S
O170 C169 1.228 . S
O171 Zn160 2.024 . S
O171 C162 1.058 . S
C172 O173 1.228 . S
C172 O174 1.267 . S
O173 C172 1.228 . S
O174 Zn161 1.969 . S
O174 C172 1.267 . S
O175 Zn161 1.940 1_545 S
O175 C179 1.264 1_655 S
O176 Zn160 1.969 . S
O176 C179 1.258 . S
O177 Zn161 2.024 . S
O177 C164 1.058 . S
C178 O167 1.260 . S
C178 O168 1.258 1_455 S
C179 O175 1.264 1_455 S
C179 O176 1.258 . S
Zn180 O186 1.969 1_455 S
Zn180 O187 1.965 . S
Zn180 O191 2.024 . S
Zn180 O196 1.969 . S
Zn181 O188 1.969 . S
Zn181 O194 1.969 . S
Zn181 O195 1.965 . S
Zn181 O197 2.024 . S
C182 O183 1.229 . S
C182 O191 1.058 . S
O183 C182 1.229 . S
C184 O185 1.229 . S
C184 O197 1.058 . S
O185 C184 1.229 . S
O186 Zn180 1.969 1_655 S
O186 C189 1.267 . S
O187 Zn180 1.965 . S
O187 C198 1.260 . S
O188 Zn181 1.969 . S
O188 C198 1.258 . S
C189 O186 1.267 . S
C189 O190 1.228 . S
O190 C189 1.228 . S
O191 Zn180 2.024 . S
O191 C182 1.058 . S
C192 O193 1.228 . S
C192 O194 1.267 . S
O193 C192 1.228 . S
O194 Zn181 1.969 . S
O194 C192 1.267 . S
O195 Zn181 1.965 . S
O195 C199 1.260 . S
O196 Zn180 1.969 . S
O196 C199 1.258 . S
O197 Zn181 2.024 . S
O197 C184 1.058 . S
C198 O187 1.260 . S
C198 O188 1.258 . S
C199 O195 1.260 . S
C199 O196 1.258 . S
Zn200 O206 1.969 . S
Zn200 O207 1.965 . S
Zn200 O211 2.024 . S
Zn200 O216 1.969 . S
Zn201 O208 1.969 . S
Zn201 O214 1.969 . S
Zn201 O215 1.965 . S
Zn201 O217 2.024 . S
C202 O203 1.229 . S
C202 O211 1.058 . S
O203 C202 1.229 . S
C204 O205 1.229 . S
C204 O217 1.058 . S
O205 C204 1.229 . S
O206 Zn200 1.969 . S
O206 C209 1.267 . S
O207 Zn200 1.965 . S
O207 C218 1.260 . S
O208 Zn201 1.969 . S
O208 C218 1.258 1_655 S
C209 O206 1.267 . S
C209 O210 1.228 . S
O210 C209 1.228 . S
O211 Zn200 2.024 . S
O211 C202 1.058 . S
C212 O213 1.228 . S
C212 O214 1.267 . S
O213 C212 1.228 . S
O214 Zn201 1.969 . S
O214 C212 1.267 . S
O215 Zn201 1.965 . S
O215 C219 1.260 1_655 S
O216 Zn200 1.969 . S
O216 C219 1.258 . S
O217 Zn201 2.024 . S
O217 C204 1.058 . S
C218 O207 1.260 . S
C218 O208 1.258 1_455 S
C219 O215 1.260 1_455 S
C219 O216 1.258 . S
Zn220 O226 1.969 1_455 S
Zn220 O227 1.965 1_545 S
Zn220 O231 2.024 . S
Zn220 O236 1.969 . S
Zn221 O228 1.969 . S
Zn221 O234 1.969 . S
Zn221 O235 1.940 1_565 S
Zn221 O237 2.024 . S
C222 O223 1.229 . S
C222 O231 1.058 . S
O223 C222 1.229 . S
C224 O225 1.229 . S
C224 O237 1.058 . S
O225 C224 1.229 . S
O226 Zn220 1.969 1_655 S
O226 C229 1.267 . S
O227 Zn220 1.965 1_565 S
O227 C238 1.260 . S
O228 Zn221 1.969 . S
O228 C238 1.258 . S
C229 O226 1.267 . S
C229 O230 1.228 . S
O230 C229 1.228 . S
O231 Zn220 2.024 . S
O231 C222 1.058 . S
C232 O233 1.228 . S
C232 O234 1.267 . S
O233 C232 1.228 . S
O234 Zn221 1.969 . S
O234 C232 1.267 . S
O235 Zn221 1.940 1_545 S
O235 C239 1.264 . S
O236 Zn220 1.969 . S
O236 C239 1.258 . S
O237 Zn221 2.024 . S
O237 C224 1.058 . S
C238 O227 1.260 . S
C238 O228 1.258 . S
C239 O235 1.264 . S
C239 O236 1.258 . S
Zn240 O246 1.969 . S
Zn240 O247 1.940 1_545 S
Zn240 O251 2.024 . S
Zn240 O256 1.969 . S
Zn241 O248 1.969 . S
Zn241 O254 1.969 . S
Zn241 O255 1.965 1_565 S
Zn241 O257 2.024 . S
C242 O243 1.229 . S
C242 O251 1.058 . S
O243 C242 1.229 . S
C244 O245 1.229 . S
C244 O257 1.058 . S
O245 C244 1.229 . S
O246 Zn240 1.969 . S
O246 C249 1.267 . S
O247 Zn240 1.940 1_565 S
O247 C258 1.264 1_455 S
O248 Zn241 1.969 . S
O248 C258 1.258 . S
C249 O246 1.267 . S
C249 O250 1.228 . S
O250 C249 1.228 . S
O251 Zn240 2.024 . S
O251 C242 1.058 . S
C252 O253 1.228 . S
C252 O254 1.267 . S
O253 C252 1.228 . S
O254 Zn241 1.969 . S
O254 C252 1.267 . S
O255 Zn241 1.965 1_545 S
O255 C259 1.260 . S
O256 Zn240 1.969 . S
O256 C259 1.258 1_455 S
O257 Zn241 2.024 . S
O257 C244 1.058 . S
C258 O247 1.264 1_655 S
C258 O248 1.258 . S
C259 O255 1.260 . S
C259 O256 1.258 1_655 S
Zn260 O266 1.969 . S
Zn260 O267 1.965 . S
Zn260 O271 2.024 . S
Zn260 O276 1.969 . S
Zn261 O268 1.969 . S
Zn261 O274 1.969 1_655 S
Zn261 O275 1.965 . S
Zn261 O277 2.024 . S
C262 O263 1.229 . S
C262 O271 1.058 . S
O263 C262 1.229 . S
C264 O265 1.229 . S
C264 O277 1.058 . S
O265 C264 1.229 . S
O266 Zn260 1.969 . S
O266 C269 1.267 . S
O267 Zn260 1.965 . S
O267 C278 1.260 . S
O268 Zn261 1.969 . S
O268 C278 1.258 . S
C269 O266 1.267 . S
C269 O270 1.228 . S
O270 C269 1.228 . S
O271 Zn260 2.024 . S
O271 C262 1.058 . S
C272 O273 1.228 . S
C272 O274 1.267 . S
O273 C272 1.228 . S
O274 Zn261 1.969 1_455 S
O274 C272 1.267 . S
O275 Zn261 1.965 . S
O275 C279 1.260 . S
O276 Zn260 1.969 . S
O276 C279 1.258 . S
O277 Zn261 2.024 . S
O277 C264 1.058 . S
C278 O267 1.260 . S
C278 O268 1.258 . S
C279 O275 1.260 . S
C279 O276 1.258 . S
Zn280 O286 1.969 . S
Zn280 O287 1.965 . S
Zn280 O291 2.024 . S
Zn280 O296 1.969 . S
Zn281 O288 1.969 . S
Zn281 O294 1.969 . S
Zn281 O295 1.965 . S
Zn281 O297 2.024 . S
C282 O283 1.229 . S
C282 O291 1.058 . S
O283 C282 1.229 . S
C284 O285 1.229 . S
C284 O297 1.058 . S
O285 C284 1.229 . S
O286 Zn280 1.969 . S
O286 C289 1.267 . S
O287 Zn280 1.965 . S
O287 C298 1.260 1_455 S
O288 Zn281 1.969 . S
O288 C298 1.258 . S
C289 O286 1.267 . S
C289 O290 1.228 . S
O290 C289 1.228 . S
O291 Zn280 2.024 . S
O291 C282 1.058 . S
C292 O293 1.228 . S
C292 O294 1.267 . S
O293 C292 1.228 . S
O294 Zn281 1.969 . S
O294 C292 1.267 . S
O295 Zn281 1.965 . S
O295 C299 1.260 . S
O296 Zn280 1.969 . S
O296 C299 1.258 1_455 S
O297 Zn281 2.024 . S
O297 C284 1.058 . S
C298 O287 1.260 1_655 S
C298 O288 1.258 . S
C299 O295 1.260 . S
C299 O296 1.258 1_655 S
Zn300 O306 1.969 . S
Zn300 O307 1.940 1_545 S
Zn300 O311 2.024 . S
Zn300 O316 1.969 . S
Zn301 O308 1.969 . S
Zn301 O314 1.969 1_655 S
Zn301 O315 1.965 1_565 S
Zn301 O317 2.024 . S
C302 O303 1.229 . S
C302 O311 1.058 . S
O303 C302 1.229 . S
C304 O305 1.229 . S
C304 O317 1.058 . S
O305 C304 1.229 . S
O306 Zn300 1.969 . S
O306 C309 1.267 . S
O307 Zn300 1.940 1_565 S
O307 C318 1.264 . S
O308 Zn301 1.969 . S
O308 C318 1.258 . S
C309 O306 1.267 . S
C309 O310 1.228 . S
O310 C309 1.228 . S
O311 Zn300 2.024 . S
O311 C302 1.058 . S
C312 O313 1.228 . S
C312 O314 1.267 . S
O313 C312 1.228 . S
O314 Zn301 1.969 1_455 S
O314 C312 1.267 . S
O315 Zn301 1.965 1_545 S
O315 C319 1.260 . S
O316 Zn300 1.969 . S
O316 C319 1.258 . S
O317 Zn301 2.024 . S
O317 C304 1.058 . S
C318 O307 1.264 . S
C318 O308 1.258 . S
C319 O315 1.260 . S
C319 O316 1.258 . S
Zn320 O326 1.969 . S
Zn320 O327 1.965 . S
Zn320 O331 2.024 . S
Zn320 O336 1.969 . S
Zn321 O328 1.969 . S
Zn321 O334 1.969 . S
Zn321 O335 1.965 . S
Zn321 O337 2.024 . S
C322 O323 1.229 . S
C322 O331 1.058 . S
O323 C322 1.229 . S
C324 O325 1.229 . S
C324 O337 1.058 . S
O325 C324 1.229 . S
O326 Zn320 1.969 . S
O326 C329 1.267 . S
O327 Zn320 1.965 . S
O327 C338 1.260 . S
O328 Zn321 1.969 . S
O328 C338 1.258 . S
C329 O326 1.267 . S
C329 O330 1.228 . S
O330 C329 1.228 . S
O331 Zn320 2.024 . S
O331 C322 1.058 . S
C332 O333 1.228 . S
C332 O334 1.267 . S
O333 C332 1.228 . S
O334 Zn321 1.969 . S
O334 C332 1.267 . S
O335 Zn321 1.965 . S
O335 C339 1.260 . S
O336 Zn320 1.969 . S
O336 C339 1.258 . S
O337 Zn321 2.024 . S
O337 C324 1.058 . S
C338 O327 1.260 . S
C338 O328 1.258 . S
C339 O335 1.260 . S
C339 O336 1.258 . S
Zn340 O346 1.969 . S
Zn340 O347 1.965 . S
Zn340 O351 2.024 . S
Zn340 O356 1.969 . S
Zn341 O348 1.969 . S
Zn341 O354 1.969 . S
Zn341 O355 1.965 . S
Zn341 O357 2.024 . S
C342 O343 1.229 . S
C342 O351 1.058 . S
O343 C342 1.229 . S
C344 O345 1.229 . S
C344 O357 1.058 . S
O345 C344 1.229 . S
O346 Zn340 1.969 . S
O346 C349 1.267 . S
O347 Zn340 1.965 . S
O347 C358 1.260 . S
O348 Zn341 1.969 . S
O348 C358 1.258 . S
C349 O346 1.267 . S
C349 O350 1.228 . S
O350 C349 1.228 . S
O351 Zn340 2.024 . S
O351 C342 1.058 . S
C352 O353 1.228 1_455 S
C352 O354 1.267 1_455 S
O353 C352 1.228 1_655 S
O354 Zn341 1.969 . S
O354 C352 1.267 1_655 S
O355 Zn341 1.965 . S
O355 C359 1.260 . S
O356 Zn340 1.969 . S
O356 C359 1.258 . S
O357 Zn341 2.024 . S
O357 C344 1.058 . S
C358 O347 1.260 . S
C358 O348 1.258 . S
C359 O355 1.260 . S
C359 O356 1.258 . S
Zn360 O366 1.969 . S
Zn360 O367 1.965 . S
Zn360 O371 2.024 . S
Zn360 O376 1.969 . S
Zn361 O368 1.969 . S
Zn361 O374 1.969 . S
Zn361 O375 1.965 . S
Zn361 O377 2.024 . S
C362 O363 1.229 . S
C362 O371 1.058 . S
O363 C362 1.229 . S
C364 O365 1.229 . S
C364 O377 1.058 . S
O365 C364 1.229 . S
O366 Zn360 1.969 . S
O366 C369 1.267 . S
O367 Zn360 1.965 . S
O367 C378 1.260 . S
O368 Zn361 1.969 . S
O368 C378 1.258 . S
C369 O366 1.267 . S
C369 O370 1.228 . S
O370 C369 1.228 . S
O371 Zn360 2.024 . S
O371 C362 1.058 . S
C372 O373 1.228 . S
C372 O374 1.267 . S
O373 C372 1.228 . S
O374 Zn361 1.969 . S
O374 C372 1.267 . S
O375 Zn361 1.965 . S
O375 C379 1.260 . S
O376 Zn360 1.969 . S
O376 C379 1.258 . S
O377 Zn361 2.024 . S
O377 C364 1.058 . S
C378 O367 1.260 . S
C378 O368 1.258 . S
C379 O375 1.260 . S
C379 O376 1.258 . S
Zn380 O386 1.969 . S
Zn380 O387 1.965 . S
Zn380 O391 2.024 . S
Zn380 O396 1.969 . S
Zn381 O388 1.969 . S
Zn381 O394 1.969 . S
Zn381 O395 1.965 . S
Zn381 O397 2.024 . S
C382 O383 1.229 . S
C382 O391 1.058 . S
O383 C382 1.229 . S
C384 O385 1.229 . S
C384 O397 1.058 . S
O385 C384 1.229 . S
O386 Zn380 1.969 . S
O386 C389 1.267 . S
O387 Zn380 1.965 . S
O387 C398 1.260 . S
O388 Zn381 1.969 . S
O388 C398 1.258 . S
C389 O386 1.267 . S
C389 O390 1.228 . S
O390 C389 1.228 . S
O391 Zn380 2.024 . S
O391 C382 1.058 . S
C392 O393 1.228 1_455 S
C392 O394 1.267 1_455 S
O393 C392 1.228 1_655 S
O394 Zn381 1.969 . S
O394 C392 1.267 1_655 S
O395 Zn381 1.965 . S
O395 C399 1.260 . S
O396 Zn380 1.969 . S
O396 C399 1.258 . S
O397 Zn381 2.024 . S
O397 C384 1.058 . S
C398 O387 1.260 . S
C398 O388 1.258 . S
C399 O395 1.260 . S
C399 O396 1.258 . S
Zn400 O406 1.969 . S
Zn400 O407 1.965 . S
Zn400 O411 2.024 . S
Zn400 O416 1.969 . S
Zn401 O408 1.969 . S
Zn401 O414 1.969 . S
Zn401 O415 1.965 . S
Zn401 O417 2.024 . S
C402 O403 1.229 . S
C402 O411 1.058 . S
O403 C402 1.229 . S
C404 O405 1.229 . S
C404 O417 1.058 . S
O405 C404 1.229 . S
O406 Zn400 1.969 . S
O406 C409 1.267 . S
O407 Zn400 1.965 . S
O407 C418 1.260 . S
O408 Zn401 1.969 . S
O408 C418 1.258 . S
C409 O406 1.267 . S
C409 O410 1.228 . S
O410 C409 1.228 . S
O411 Zn400 2.024 . S
O411 C402 1.058 . S
C412 O413 1.228 . S
C412 O414 1.267 . S
O413 C412 1.228 . S
O414 Zn401 1.969 . S
O414 C412 1.267 . S
O415 Zn401 1.965 . S
O415 C419 1.260 . S
O416 Zn400 1.969 . S
O416 C419 1.258 . S
O417 Zn401 2.024 . S
O417 C404 1.058 . S
C418 O407 1.260 . S
C418 O408 1.258 . S
C419 O415 1.260 . S
C419 O416 1.258 . S
Zn420 O426 1.969 . S
Zn420 O427 1.965 . S
Zn420 O431 2.024 . S
Zn420 O436 1.969 . S
Zn421 O428 1.969 . S
Zn421 O434 1.969 . S
Zn421 O435 1.965 . S
Zn421 O437 2.024 . S
C422 O423 1.229 . S
C422 O431 1.058 . S
O423 C422 1.229 . S
C424 O425 1.229 . S
C424 O437 1.058 . S
O425 C424 1.229 . S
O426 Zn420 1.969 . S
O426 C429 1.267 1_455 S
O427 Zn420 1.965 . S
O427 C438 1.260 . S
O428 Zn421 1.969 . S
O428 C438 1.258 . S
C429 O426 1.267 1_655 S
C429 O430 1.228 1_655 S
O430 C429 1.228 1_455 S
O431 Zn420 2.024 . S
O431 C422 1.058 . S
C432 O433 1.228 . S
C432 O434 1.267 . S
O433 C432 1.228 . S
O434 Zn421 1.969 . S
O434 C432 1.267 . S
O435 Zn421 1.965 . S
O435 C439 1.260 . S
O436 Zn420 1.969 . S
O436 C439 1.258 . S
O437 Zn421 2.024 . S
O437 C424 1.058 . S
C438 O427 1.260 . S
C438 O428 1.258 . S
C439 O435 1.260 . S
C439 O436 1.258 . S
Zn440 O446 1.969 . S
Zn440 O447 1.965 . S
Zn440 O451 2.024 . S
Zn440 O456 1.969 . S
Zn441 O448 1.969 . S
Zn441 O454 1.969 . S
Zn441 O455 1.965 . S
Zn441 O457 2.024 . S
C442 O443 1.229 . S
C442 O451 1.058 . S
O443 C442 1.229 . S
C444 O445 1.229 . S
C444 O457 1.058 . S
O445 C444 1.229 . S
O446 Zn440 1.969 . S
O446 C449 1.267 . S
O447 Zn440 1.965 . S
O447 C458 1.260 . S
O448 Zn441 1.969 . S
O448 C458 1.258 . S
C449 O446 1.267 . S
C449 O450 1.228 . S
O450 C449 1.228 . S
O451 Zn440 2.024 . S
O451 C442 1.058 . S
C452 O453 1.228 . S
C452 O454 1.267 . S
O453 C452 1.228 . S
O454 Zn441 1.969 . S
O454 C452 1.267 . S
O455 Zn441 1.965 . S
O455 C459 1.260 . S
O456 Zn440 1.969 . S
O456 C459 1.258 . S
O457 Zn441 2.024 . S
O457 C444 1.058 . S
C458 O447 1.260 . S
C458 O448 1.258 . S
C459 O455 1.260 . S
C459 O456 1.258 . S
Zn460 O466 1.969 . S
Zn460 O467 1.965 . S
Zn460 O471 2.024 . S
Zn460 O476 1.969 . S
Zn461 O468 1.969 . S
Zn461 O474 1.969 . S
Zn461 O475 1.965 . S
Zn461 O477 2.024 . S
C462 O463 1.229 . S
C462 O471 1.058 . S
O463 C462 1.229 . S
C464 O465 1.229 . S
C464 O477 1.058 . S
O465 C464 1.229 . S
O466 Zn460 1.969 . S
O466 C469 1.267 1_455 S
O467 Zn460 1.965 . S
O467 C478 1.260 . S
O468 Zn461 1.969 . S
O468 C478 1.258 . S
C469 O466 1.267 1_655 S
C469 O470 1.228 1_655 S
O470 C469 1.228 1_455 S
O471 Zn460 2.024 . S
O471 C462 1.058 . S
C472 O473 1.228 . S
C472 O474 1.267 . S
O473 C472 1.228 . S
O474 Zn461 1.969 . S
O474 C472 1.267 . S
O475 Zn461 1.965 . S
O475 C479 1.260 . S
O476 Zn460 1.969 . S
O476 C479 1.258 . S
O477 Zn461 2.024 . S
O477 C464 1.058 . S
C478 O467 1.260 . S
C478 O468 1.258 . S
C479 O475 1.260 . S
C479 O476 1.258 . S
Zn480 O486 1.969 . S
Zn480 O487 1.965 1_545 S
Zn480 O491 2.024 . S
Zn480 O496 1.969 . S
Zn481 O488 1.969 . S
Zn481 O494 1.969 . S
Zn481 O495 1.940 1_565 S
Zn481 O497 2.024 . S
C482 O483 1.229 . S
C482 O491 1.058 . S
O483 C482 1.229 . S
C484 O485 1.229 . S
C484 O497 1.058 . S
O485 C484 1.229 . S
O486 Zn480 1.969 . S
O486 C489 1.267 . S
O487 Zn480 1.965 1_565 S
O487 C498 1.260 . S
O488 Zn481 1.969 . S
O488 C498 1.258 . S
C489 O486 1.267 . S
C489 O490 1.228 . S
O490 C489 1.228 . S
O491 Zn480 2.024 . S
O491 C482 1.058 . S
C492 O493 1.228 . S
C492 O494 1.267 . S
O493 C492 1.228 . S
O494 Zn481 1.969 . S
O494 C492 1.267 . S
O495 Zn481 1.940 1_545 S
O495 C499 1.264 . S
O496 Zn480 1.969 . S
O496 C499 1.258 . S
O497 Zn481 2.024 . S
O497 C484 1.058 . S
C498 O487 1.260 . S
C498 O488 1.258 . S
C499 O495 1.264 . S
C499 O496 1.258 . S
Zn500 O506 1.969 . S
Zn500 O507 1.965 . S
Zn500 O511 2.024 . S
Zn500 O516 1.969 . S
Zn501 O508 1.969 . S
Zn501 O514 1.969 . S
Zn501 O515 1.965 . S
Zn501 O517 2.024 . S
C502 O503 1.229 . S
C502 O511 1.058 . S
O503 C502 1.229 . S
C504 O505 1.229 . S
C504 O517 1.058 . S
O505 C504 1.229 . S
O506 Zn500 1.969 . S
O506 C509 1.267 . S
O507 Zn500 1.965 . S
O507 C518 1.260 . S
O508 Zn501 1.969 . S
O508 C518 1.258 . S
C509 O506 1.267 . S
C509 O510 1.228 . S
O510 C509 1.228 . S
O511 Zn500 2.024 . S
O511 C502 1.058 . S
C512 O513 1.228 1_455 S
C512 O514 1.267 1_455 S
O513 C512 1.228 1_655 S
O514 Zn501 1.969 . S
O514 C512 1.267 1_655 S
O515 Zn501 1.965 . S
O515 C519 1.260 . S
O516 Zn500 1.969 . S
O516 C519 1.258 . S
O517 Zn501 2.024 . S
O517 C504 1.058 . S
C518 O507 1.260 . S
C518 O508 1.258 . S
C519 O515 1.260 . S
C519 O516 1.258 . S
Zn520 O526 1.969 . S
Zn520 O527 1.965 . S
Zn520 O531 2.024 . S
Zn520 O536 1.969 . S
Zn521 O528 1.969 . S
Zn521 O534 1.969 . S
Zn521 O535 1.965 . S
Zn521 O537 2.024 . S
C522 O523 1.229 . S
C522 O531 1.058 . S
O523 C522 1.229 . S
C524 O525 1.229 . S
C524 O537 1.058 . S
O525 C524 1.229 . S
O526 Zn520 1.969 . S
O526 C529 1.267 . S
O527 Zn520 1.965 . S
O527 C538 1.260 . S
O528 Zn521 1.969 . S
O528 C538 1.258 . S
C529 O526 1.267 . S
C529 O530 1.228 . S
O530 C529 1.228 . S
O531 Zn520 2.024 . S
O531 C522 1.058 . S
C532 O533 1.228 . S
C532 O534 1.267 . S
O533 C532 1.228 . S
O534 Zn521 1.969 . S
O534 C532 1.267 . S
O535 Zn521 1.965 . S
O535 C539 1.260 . S
O536 Zn520 1.969 . S
O536 C539 1.258 . S
O537 Zn521 2.024 . S
O537 C524 1.058 . S
C538 O527 1.260 . S
C538 O528 1.258 . S
C539 O535 1.260 . S
C539 O536 1.258 . S
Zn540 O546 1.969 . S
Zn540 O547 1.965 1_545 S
Zn540 O551 2.024 . S
Zn540 O556 1.969 . S
Zn541 O548 1.969 . S
Zn541 O554 1.969 . S
Zn541 O555 1.940 1_565 S
Zn541 O557 2.024 . S
C542 O543 1.229 . S
C542 O551 1.058 . S
O543 C542 1.229 . S
C544 O545 1.229 . S
C544 O557 1.058 . S
O545 C544 1.229 . S
O546 Zn540 1.969 . S
O546 C549 1.267 . S
O547 Zn540 1.965 1_565 S
O547 C558 1.260 . S
O548 Zn541 1.969 . S
O548 C558 1.258 . S
C549 O546 1.267 . S
C549 O550 1.228 . S
O550 C549 1.228 . S
O551 Zn540 2.024 . S
O551 C542 1.058 . S
C552 O553 1.228 1_455 S
C552 O554 1.267 1_455 S
O553 C552 1.228 1_655 S
O554 Zn541 1.969 . S
O554 C552 1.267 1_655 S
O555 Zn541 1.940 1_545 S
O555 C559 1.264 . S
O556 Zn540 1.969 . S
O556 C559 1.258 . S
O557 Zn541 2.024 . S
O557 C544 1.058 . S
C558 O547 1.260 . S
C558 O548 1.258 . S
C559 O555 1.264 . S
C559 O556 1.258 . S
Zn560 O566 1.969 . S
Zn560 O567 1.940 1_545 S
Zn560 O571 2.024 . S
Zn560 O576 1.969 . S
Zn561 O568 1.969 . S
Zn561 O574 1.969 . S
Zn561 O575 1.965 1_565 S
Zn561 O577 2.024 . S
C562 O563 1.229 . S
C562 O571 1.058 . S
O563 C562 1.229 . S
C564 O565 1.229 . S
C564 O577 1.058 . S
O565 C564 1.229 . S
O566 Zn560 1.969 . S
O566 C569 1.267 . S
O567 Zn560 1.940 1_565 S
O567 C578 1.264 . S
O568 Zn561 1.969 . S
O568 C578 1.258 . S
C569 O566 1.267 . S
C569 O570 1.228 . S
O570 C569 1.228 . S
O571 Zn560 2.024 . S
O571 C562 1.058 . S
C572 O573 1.228 . S
C572 O574 1.267 . S
O573 C572 1.228 . S
O574 Zn561 1.969 . S
O574 C572 1.267 . S
O575 Zn561 1.965 1_545 S
O575 C579 1.260 . S
O576 Zn560 1.969 . S
O576 C579 1.258 . S
O577 Zn561 2.024 . S
O577 C564 1.058 . S
C578 O567 1.264 . S
C578 O568 1.258 . S
C579 O575 1.260 . S
C579 O576 1.258 . S
Zn580 O586 1.969 . S
Zn580 O587 1.965 . S
Zn580 O591 2.024 . S
Zn580 O596 1.969 . S
Zn581 O588 1.969 . S
Zn581 O594 1.969 . S
Zn581 O595 1.965 . S
Zn581 O597 2.024 . S
C582 O583 1.229 . S
C582 O591 1.058 . S
O583 C582 1.229 . S
C584 O585 1.229 . S
C584 O597 1.058 . S
O585 C584 1.229 . S
O586 Zn580 1.969 . S
O586 C589 1.267 1_455 S
O587 Zn580 1.965 . S
O587 C598 1.260 . S
O588 Zn581 1.969 . S
O588 C598 1.258 . S
C589 O586 1.267 1_655 S
C589 O590 1.228 1_655 S
O590 C589 1.228 1_455 S
O591 Zn580 2.024 . S
O591 C582 1.058 . S
C592 O593 1.228 . S
C592 O594 1.267 . S
O593 C592 1.228 . S
O594 Zn581 1.969 . S
O594 C592 1.267 . S
O595 Zn581 1.965 . S
O595 C599 1.260 . S
O596 Zn580 1.969 . S
O596 C599 1.258 . S
O597 Zn581 2.024 . S
O597 C584 1.058 . S
C598 O587 1.260 . S
C598 O588 1.258 . S
C599 O595 1.260 . S
C599 O596 1.258 . S
Zn600 O606 1.969 . S
Zn600 O607 1.965 . S
Zn600 O611 2.024 . S
Zn600 O616 1.969 . S
Zn601 O608 1.969 . S
Zn601 O614 1.969 . S
Zn601 O615 1.965 . S
Zn601 O617 2.024 . S
C602 O603 1.229 . S
C602 O611 1.058 . S
O603 C602 1.229 . S
C604 O605 1.229 . S
C604 O617 1.058 . S
O605 C604 1.229 . S
O606 Zn600 1.969 . S
O606 C609 1.267 . S
O607 Zn600 1.965 . S
O607 C618 1.260 . S
O608 Zn601 1.969 . S
O608 C618 1.258 . S
C609 O606 1.267 . S
C609 O610 1.228 . S
O610 C609 1.228 . S
O611 Zn600 2.024 . S
O611 C602 1.058 . S
C612 O613 1.228 . S
C612 O614 1.267 . S
O613 C612 1.228 . S
O614 Zn601 1.969 . S
O614 C612 1.267 . S
O615 Zn601 1.965 . S
O615 C619 1.260 . S
O616 Zn600 1.969 . S
O616 C619 1.258 . S
O617 Zn601 2.024 . S
O617 C604 1.058 . S
C618 O607 1.260 . S
C618 O608 1.258 . S
C619 O615 1.260 . S
C619 O616 1.258 . S
Zn620 O626 1.969 . S
Zn620 O627 1.940 1_545 S
Zn620 O631 2.024 . S
Zn620 O636 1.969 . S
Zn621 O628 1.969 . S
Zn621 O634 1.969 . S
Zn621 O635 1.965 1_565 S
Zn621 O637 2.024 . S
C622 O623 1.229 . S
C622 O631 1.058 . S
O623 C622 1.229 . S
C624 O625 1.229 . S
C624 O637 1.058 . S
O625 C624 1.229 . S
O626 Zn620 1.969 . S
O626 C629 1.267 1_455 S
O627 Zn620 1.940 1_565 S
O627 C638 1.264 . S
O628 Zn621 1.969 . S
O628 C638 1.258 . S
C629 O626 1.267 1_655 S
C629 O630 1.228 1_655 S
O630 C629 1.228 1_455 S
O631 Zn620 2.024 . S
O631 C622 1.058 . S
C632 O633 1.228 . S
C632 O634 1.267 . S
O633 C632 1.228 . S
O634 Zn621 1.969 . S
O634 C632 1.267 . S
O635 Zn621 1.965 1_545 S
O635 C639 1.260 . S
O636 Zn620 1.969 . S
O636 C639 1.258 . S
O637 Zn621 2.024 . S
O637 C624 1.058 . S
C638 O627 1.264 . S
C638 O628 1.258 . S
C639 O635 1.260 . S
C639 O636 1.258 . S
C640 C641 1.369 . S
C640 C642 1.419 . S
C640 H644 0.930 . S
C641 C640 1.369 . S
C641 C650 1.429 . S
C642 C640 1.419 . S
C642 C643 1.363 . S
C642 H645 0.929 . S
C643 C642 1.363 . S
C643 C649 1.428 . S
H644 C640 0.930 . S
H645 C642 0.929 . S
S646 N647 1.613 . S
S646 N648 1.610 . S
N647 S646 1.613 . S
N647 C650 1.350 . S
N648 S646 1.610 . S
N648 C649 1.351 . S
C649 C643 1.428 . S
C649 N648 1.351 . S
C649 C650 1.434 . S
C650 C641 1.429 . S
C650 N647 1.350 . S
C650 C649 1.434 . S
C651 C652 1.369 . S
C651 C653 1.419 . S
C651 H655 0.930 . S
C652 C651 1.369 . S
C652 C661 1.429 . S
C653 C651 1.419 . S
C653 C654 1.363 . S
C653 H656 0.929 . S
C654 C653 1.363 . S
C654 C660 1.428 . S
H655 C651 0.930 . S
H656 C653 0.929 . S
S657 N658 1.613 . S
S657 N659 1.610 . S
N658 S657 1.613 . S
N658 C661 1.350 . S
N659 S657 1.610 . S
N659 C660 1.351 . S
C660 C654 1.428 . S
C660 N659 1.351 . S
C660 C661 1.434 . S
C661 C652 1.429 . S
C661 N658 1.350 . S
C661 C660 1.434 . S
C662 C663 1.369 . S
C662 C664 1.419 . S
C662 H666 0.930 . S
C663 C662 1.369 . S
C663 C672 1.429 . S
C664 C662 1.419 . S
C664 C665 1.363 . S
C664 H667 0.929 . S
C665 C664 1.363 . S
C665 C671 1.428 . S
H666 C662 0.930 . S
H667 C664 0.929 . S
S668 N669 1.613 . S
S668 N670 1.610 . S
N669 S668 1.613 . S
N669 C672 1.350 1_455 S
N670 S668 1.610 . S
N670 C671 1.351 1_455 S
C671 C665 1.428 . S
C671 N670 1.351 1_655 S
C671 C672 1.434 . S
C672 C663 1.429 . S
C672 N669 1.350 1_655 S
C672 C671 1.434 . S
C673 C674 1.369 . S
C673 C675 1.419 . S
C673 H677 0.930 . S
C674 C673 1.369 . S
C674 C683 1.429 . S
C675 C673 1.419 . S
C675 C676 1.363 . S
C675 H678 0.929 . S
C676 C675 1.363 . S
C676 C682 1.428 . S
H677 C673 0.930 . S
H678 C675 0.929 . S
S679 N680 1.613 . S
S679 N681 1.610 . S
N680 S679 1.613 . S
N680 C683 1.350 . S
N681 S679 1.610 . S
N681 C682 1.351 . S
C682 C676 1.428 . S
C682 N681 1.351 . S
C682 C683 1.434 . S
C683 C674 1.429 . S
C683 N680 1.350 . S
C683 C682 1.434 . S
C684 C685 1.369 . S
C684 C686 1.419 . S
C684 H688 0.930 . S
C685 C684 1.369 . S
C685 C694 1.429 . S
C686 C684 1.419 . S
C686 C687 1.363 . S
C686 H689 0.929 . S
C687 C686 1.363 . S
C687 C693 1.428 . S
H688 C684 0.930 . S
H689 C686 0.929 . S
S690 N691 1.613 . S
S690 N692 1.610 . S
N691 S690 1.613 . S
N691 C694 1.350 . S
N692 S690 1.610 . S
N692 C693 1.351 . S
C693 C687 1.428 . S
C693 N692 1.351 . S
C693 C694 1.434 . S
C694 C685 1.429 . S
C694 N691 1.350 . S
C694 C693 1.434 . S
C695 C696 1.369 . S
C695 C697 1.419 . S
C695 H699 0.930 . S
C696 C695 1.369 . S
C696 C705 1.429 . S
C697 C695 1.419 . S
C697 C698 1.363 . S
C697 H700 0.929 . S
C698 C697 1.363 . S
C698 C704 1.428 . S
H699 C695 0.930 . S
H700 C697 0.929 . S
S701 N702 1.613 . S
S701 N703 1.610 . S
N702 S701 1.613 . S
N702 C705 1.350 . S
N703 S701 1.610 . S
N703 C704 1.351 . S
C704 C698 1.428 . S
C704 N703 1.351 . S
C704 C705 1.434 . S
C705 C696 1.429 . S
C705 N702 1.350 . S
C705 C704 1.434 . S
C706 C707 1.369 . S
C706 C708 1.419 . S
C706 H710 0.930 . S
C707 C706 1.369 . S
C707 C716 1.429 . S
C708 C706 1.419 . S
C708 C709 1.363 . S
C708 H711 0.929 . S
C709 C708 1.363 . S
C709 C715 1.428 . S
H710 C706 0.930 . S
H711 C708 0.929 . S
S712 N713 1.613 . S
S712 N714 1.610 . S
N713 S712 1.613 . S
N713 C716 1.350 . S
N714 S712 1.610 . S
N714 C715 1.351 . S
C715 C709 1.428 . S
C715 N714 1.351 . S
C715 C716 1.434 . S
C716 C707 1.429 . S
C716 N713 1.350 . S
C716 C715 1.434 . S
C717 C718 1.369 . S
C717 C719 1.419 . S
C717 H721 0.930 . S
C718 C717 1.369 . S
C718 C727 1.429 . S
C719 C717 1.419 . S
C719 C720 1.363 . S
C719 H722 0.929 . S
C720 C719 1.363 . S
C720 C726 1.428 . S
H721 C717 0.930 . S
H722 C719 0.929 . S
S723 N724 1.613 . S
S723 N725 1.610 . S
N724 S723 1.613 . S
N724 C727 1.350 . S
N725 S723 1.610 . S
N725 C726 1.351 . S
C726 C720 1.428 . S
C726 N725 1.351 . S
C726 C727 1.434 . S
C727 C718 1.429 . S
C727 N724 1.350 . S
C727 C726 1.434 . S
C728 C729 1.369 . S
C728 C730 1.419 . S
C728 H732 0.930 . S
C729 C728 1.369 . S
C729 C738 1.429 . S
C730 C728 1.419 . S
C730 C731 1.363 . S
C730 H733 0.929 . S
C731 C730 1.363 . S
C731 C737 1.428 . S
H732 C728 0.930 . S
H733 C730 0.929 . S
S734 N735 1.613 . S
S734 N736 1.619 . S
N735 S734 1.613 . S
N735 C738 1.350 1_455 S
N736 S734 1.619 . S
N736 C737 1.344 1_455 S
C737 C731 1.428 . S
C737 N736 1.344 1_655 S
C737 C738 1.434 . S
C738 C729 1.429 . S
C738 N735 1.350 1_655 S
C738 C737 1.434 . S
C739 C740 1.369 . S
C739 C741 1.419 . S
C739 H743 0.930 . S
C740 C739 1.369 . S
C740 C749 1.429 . S
C741 C739 1.419 . S
C741 C742 1.363 . S
C741 H744 0.929 . S
C742 C741 1.363 . S
C742 C748 1.428 . S
H743 C739 0.930 . S
H744 C741 0.929 . S
S745 N746 1.613 . S
S745 N747 1.610 . S
N746 S745 1.613 . S
N746 C749 1.350 . S
N747 S745 1.610 . S
N747 C748 1.351 . S
C748 C742 1.428 . S
C748 N747 1.351 . S
C748 C749 1.434 . S
C749 C740 1.429 . S
C749 N746 1.350 . S
C749 C748 1.434 . S
C750 C751 1.369 . S
C750 C752 1.419 . S
C750 H754 0.930 . S
C751 C750 1.369 . S
C751 C760 1.429 . S
C752 C750 1.419 . S
C752 C753 1.363 . S
C752 H755 0.929 . S
C753 C752 1.363 . S
C753 C759 1.428 . S
H754 C750 0.930 . S
H755 C752 0.929 . S
S756 N757 1.613 . S
S756 N758 1.610 1_455 S
N757 S756 1.613 . S
N757 C760 1.350 1_455 S
N758 S756 1.610 1_655 S
N758 C759 1.351 . S
C759 C753 1.428 . S
C759 N758 1.351 . S
C759 C760 1.434 . S
C760 C751 1.429 . S
C760 N757 1.350 1_655 S
C760 C759 1.434 . S
C761 C762 1.369 . S
C761 C763 1.419 . S
C761 H765 0.930 . S
C762 C761 1.369 . S
C762 C771 1.429 . S
C763 C761 1.419 . S
C763 C764 1.363 . S
C763 H766 0.929 . S
C764 C763 1.363 . S
C764 C770 1.428 . S
H765 C761 0.930 . S
H766 C763 0.929 . S
S767 N768 1.613 . S
S767 N769 1.610 . S
N768 S767 1.613 . S
N768 C771 1.350 . S
N769 S767 1.610 . S
N769 C770 1.351 . S
C770 C764 1.428 . S
C770 N769 1.351 . S
C770 C771 1.434 . S
C771 C762 1.429 . S
C771 N768 1.350 . S
C771 C770 1.434 . S
C772 C773 1.369 . S
C772 C774 1.419 . S
C772 H776 0.930 . S
C773 C772 1.369 . S
C773 C782 1.429 . S
C774 C772 1.419 . S
C774 C775 1.363 . S
C774 H777 0.929 . S
C775 C774 1.363 . S
C775 C781 1.428 . S
H776 C772 0.930 . S
H777 C774 0.929 . S
S778 N779 1.613 . S
S778 N780 1.610 1_655 S
N779 S778 1.613 . S
N779 C782 1.350 1_655 S
N780 S778 1.610 1_455 S
N780 C781 1.351 . S
C781 C775 1.428 . S
C781 N780 1.351 . S
C781 C782 1.434 . S
C782 C773 1.429 . S
C782 N779 1.350 1_455 S
C782 C781 1.434 . S
C783 C784 1.369 . S
C783 C785 1.419 . S
C783 H787 0.930 . S
C784 C783 1.369 . S
C784 C793 1.429 . S
C785 C783 1.419 . S
C785 C786 1.363 . S
C785 H788 0.929 . S
C786 C785 1.363 . S
C786 C792 1.428 . S
H787 C783 0.930 . S
H788 C785 0.929 . S
S789 N790 1.613 . S
S789 N791 1.610 . S
N790 S789 1.613 . S
N790 C793 1.350 . S
N791 S789 1.610 . S
N791 C792 1.351 . S
C792 C786 1.428 . S
C792 N791 1.351 . S
C792 C793 1.434 . S
C793 C784 1.429 . S
C793 N790 1.350 . S
C793 C792 1.434 . S
C794 C795 1.369 . S
C794 C796 1.419 . S
C794 H798 0.930 . S
C795 C794 1.369 . S
C795 C804 1.429 . S
C796 C794 1.419 . S
C796 C797 1.363 . S
C796 H799 0.929 1_455 S
C797 C796 1.363 . S
C797 C803 1.428 . S
H798 C794 0.930 . S
H799 C796 0.929 1_655 S
S800 N801 1.613 . S
S800 N802 1.610 . S
N801 S800 1.613 . S
N801 C804 1.350 . S
N802 S800 1.610 . S
N802 C803 1.351 . S
C803 C797 1.428 . S
C803 N802 1.351 . S
C803 C804 1.434 . S
C804 C795 1.429 . S
C804 N801 1.350 . S
C804 C803 1.434 . S
C805 C806 1.369 . S
C805 C807 1.419 . S
C805 H809 0.930 . S
C806 C805 1.369 . S
C806 C815 1.429 . S
C807 C805 1.419 . S
C807 C808 1.363 . S
C807 H810 0.929 . S
C808 C807 1.363 . S
C808 C814 1.428 . S
H809 C805 0.930 . S
H810 C807 0.929 . S
S811 N812 1.613 . S
S811 N813 1.610 . S
N812 S811 1.613 . S
N812 C815 1.350 . S
N813 S811 1.610 . S
N813 C814 1.351 . S
C814 C808 1.428 . S
C814 N813 1.351 . S
C814 C815 1.434 . S
C815 C806 1.429 . S
C815 N812 1.350 . S
C815 C814 1.434 . S
C816 C817 1.369 . S
C816 C818 1.419 . S
C816 H820 0.930 1_455 S
C817 C816 1.369 . S
C817 C826 1.429 . S
C818 C816 1.419 . S
C818 C819 1.363 . S
C818 H821 0.929 . S
C819 C818 1.363 . S
C819 C825 1.428 . S
H820 C816 0.930 1_655 S
H821 C818 0.929 . S
S822 N823 1.613 . S
S822 N824 1.610 . S
N823 S822 1.613 . S
N823 C826 1.350 . S
N824 S822 1.610 . S
N824 C825 1.351 . S
C825 C819 1.428 . S
C825 N824 1.351 . S
C825 C826 1.434 . S
C826 C817 1.429 . S
C826 N823 1.350 . S
C826 C825 1.434 . S
C827 C828 1.369 . S
C827 C829 1.419 . S
C827 H831 0.930 . S
C828 C827 1.369 . S
C828 C837 1.429 . S
C829 C827 1.419 . S
C829 C830 1.363 . S
C829 H832 0.929 . S
C830 C829 1.363 . S
C830 C836 1.428 . S
H831 C827 0.930 . S
H832 C829 0.929 . S
S833 N834 1.613 . S
S833 N835 1.610 . S
N834 S833 1.613 . S
N834 C837 1.350 . S
N835 S833 1.610 . S
N835 C836 1.351 . S
C836 C830 1.428 . S
C836 N835 1.351 . S
C836 C837 1.434 . S
C837 C828 1.429 . S
C837 N834 1.350 . S
C837 C836 1.434 . S
C838 C839 1.369 . S
C838 C840 1.419 . S
C838 H842 0.930 . S
C839 C838 1.369 . S
C839 C848 1.429 . S
C840 C838 1.419 . S
C840 C841 1.363 . S
C840 H843 0.929 . S
C841 C840 1.363 . S
C841 C847 1.428 . S
H842 C838 0.930 . S
H843 C840 0.929 . S
S844 N845 1.613 1_455 S
S844 N846 1.610 . S
N845 S844 1.613 1_655 S
N845 C848 1.350 . S
N846 S844 1.610 . S
N846 C847 1.351 1_455 S
C847 C841 1.428 . S
C847 N846 1.351 1_655 S
C847 C848 1.434 . S
C848 C839 1.429 . S
C848 N845 1.350 . S
C848 C847 1.434 . S
C849 C850 1.369 . S
C849 C851 1.419 . S
C849 H853 0.930 . S
C850 C849 1.369 . S
C850 C859 1.429 . S
C851 C849 1.419 . S
C851 C852 1.363 . S
C851 H854 0.929 . S
C852 C851 1.363 . S
C852 C858 1.428 . S
H853 C849 0.930 . S
H854 C851 0.929 . S
S855 N856 1.613 1_455 S
S855 N857 1.604 1_455 S
N856 S855 1.613 1_655 S
N856 C859 1.350 . S
N857 S855 1.604 1_655 S
N857 C858 1.351 . S
C858 C852 1.428 . S
C858 N857 1.351 . S
C858 C859 1.434 . S
C859 C850 1.429 . S
C859 N856 1.350 . S
C859 C858 1.434 . S
C860 C861 1.369 1_545 S
C860 C862 1.419 . S
C860 H864 0.930 . S
C861 C860 1.369 1_565 S
C861 C870 1.429 . S
C862 C860 1.419 . S
C862 C863 1.363 1_545 S
C862 H865 0.929 . S
C863 C862 1.363 1_565 S
C863 C869 1.428 . S
H864 C860 0.930 . S
H865 C862 0.929 . S
S866 N867 1.613 . S
S866 N868 1.610 . S
N867 S866 1.613 . S
N867 C870 1.350 . S
N868 S866 1.610 . S
N868 C869 1.351 . S
C869 C863 1.428 . S
C869 N868 1.351 . S
C869 C870 1.434 . S
C870 C861 1.429 . S
C870 N867 1.350 . S
C870 C869 1.434 . S
C871 C872 1.369 . S
C871 C873 1.419 . S
C871 H875 0.930 . S
C872 C871 1.369 . S
C872 C881 1.429 . S
C873 C871 1.419 . S
C873 C874 1.363 . S
C873 H876 0.929 . S
C874 C873 1.363 . S
C874 C880 1.428 . S
H875 C871 0.930 . S
H876 C873 0.929 . S
S877 N878 1.613 . S
S877 N879 1.610 . S
N878 S877 1.613 . S
N878 C881 1.350 . S
N879 S877 1.610 . S
N879 C880 1.351 . S
C880 C874 1.428 . S
C880 N879 1.351 . S
C880 C881 1.434 . S
C881 C872 1.429 . S
C881 N878 1.350 . S
C881 C880 1.434 . S
C882 C883 1.369 1_565 S
C882 C884 1.419 . S
C882 H886 0.930 . S
C883 C882 1.369 1_545 S
C883 C892 1.429 . S
C884 C882 1.419 . S
C884 C885 1.363 1_565 S
C884 H887 0.929 . S
C885 C884 1.363 1_545 S
C885 C891 1.428 . S
H886 C882 0.930 . S
H887 C884 0.929 . S
S888 N889 1.613 . S
S888 N890 1.610 . S
N889 S888 1.613 . S
N889 C892 1.350 . S
N890 S888 1.610 . S
N890 C891 1.351 . S
C891 C885 1.428 . S
C891 N890 1.351 . S
C891 C892 1.434 . S
C892 C883 1.429 . S
C892 N889 1.350 . S
C892 C891 1.434 . S
C893 C894 1.369 . S
C893 C895 1.419 . S
C893 H897 0.930 . S
C894 C893 1.369 . S
C894 C903 1.429 . S
C895 C893 1.419 . S
C895 C896 1.363 . S
C895 H898 0.929 . S
C896 C895 1.363 . S
C896 C902 1.428 . S
H897 C893 0.930 . S
H898 C895 0.929 . S
S899 N900 1.613 . S
S899 N901 1.610 1_455 S
N900 S899 1.613 . S
N900 C903 1.350 1_455 S
N901 S899 1.610 1_655 S
N901 C902 1.351 . S
C902 C896 1.428 . S
C902 N901 1.351 . S
C902 C903 1.434 . S
C903 C894 1.429 . S
C903 N900 1.350 1_655 S
C903 C902 1.434 . S
C904 C905 1.369 . S
C904 C906 1.419 . S
C904 H908 0.930 . S
C905 C904 1.369 . S
C905 C914 1.429 . S
C906 C904 1.419 . S
C906 C907 1.363 . S
C906 H909 0.929 . S
C907 C906 1.363 . S
C907 C913 1.428 . S
H908 C904 0.930 . S
H909 C906 0.929 . S
S910 N911 1.613 . S
S910 N912 1.610 . S
N911 S910 1.613 . S
N911 C914 1.350 . S
N912 S910 1.610 . S
N912 C913 1.351 . S
C913 C907 1.428 . S
C913 N912 1.351 . S
C913 C914 1.434 . S
C914 C905 1.429 . S
C914 N911 1.350 . S
C914 C913 1.434 . S
C915 C916 1.369 . S
C915 C917 1.419 . S
C915 H919 0.930 . S
C916 C915 1.369 . S
C916 C925 1.429 . S
C917 C915 1.419 . S
C917 C918 1.363 . S
C917 H920 0.929 . S
C918 C917 1.363 . S
C918 C924 1.428 . S
H919 C915 0.930 . S
H920 C917 0.929 . S
S921 N922 1.613 . S
S921 N923 1.610 . S
N922 S921 1.613 . S
N922 C925 1.350 . S
N923 S921 1.610 . S
N923 C924 1.351 . S
C924 C918 1.428 . S
C924 N923 1.351 . S
C924 C925 1.434 . S
C925 C916 1.429 . S
C925 N922 1.350 . S
C925 C924 1.434 . S
C926 C927 1.369 . S
C926 C928 1.419 . S
C926 H930 0.930 . S
C927 C926 1.369 . S
C927 C936 1.429 . S
C928 C926 1.419 . S
C928 C929 1.363 . S
C928 H931 0.929 . S
C929 C928 1.363 . S
C929 C935 1.428 . S
H930 C926 0.930 . S
H931 C928 0.929 . S
S932 N933 1.613 . S
S932 N934 1.610 . S
N933 S932 1.613 . S
N933 C936 1.350 . S
N934 S932 1.610 . S
N934 C935 1.351 . S
C935 C929 1.428 . S
C935 N934 1.351 . S
C935 C936 1.434 . S
C936 C927 1.429 . S
C936 N933 1.350 . S
C936 C935 1.434 . S
C937 C938 1.369 . S
C937 C939 1.419 . S
C937 H941 0.930 . S
C938 C937 1.369 . S
C938 C947 1.429 . S
C939 C937 1.419 . S
C939 C940 1.363 . S
C939 H942 0.929 . S
C940 C939 1.363 . S
C940 C946 1.428 . S
H941 C937 0.930 . S
H942 C939 0.929 . S
S943 N944 1.613 . S
S943 N945 1.610 . S
N944 S943 1.613 . S
N944 C947 1.350 . S
N945 S943 1.610 . S
N945 C946 1.351 . S
C946 C940 1.428 . S
C946 N945 1.351 . S
C946 C947 1.434 . S
C947 C938 1.429 . S
C947 N944 1.350 . S
C947 C946 1.434 . S
C948 C949 1.369 . S
C948 C950 1.419 . S
C948 H952 0.930 . S
C949 C948 1.369 . S
C949 C958 1.429 1_565 S
C950 C948 1.419 . S
C950 C951 1.363 . S
C950 H953 0.929 . S
C951 C950 1.363 . S
C951 C957 1.428 1_565 S
H952 C948 0.930 . S
H953 C950 0.929 . S
S954 N955 1.613 . S
S954 N956 1.610 . S
N955 S954 1.613 . S
N955 C958 1.350 . S
N956 S954 1.610 . S
N956 C957 1.351 . S
C957 C951 1.428 1_545 S
C957 N956 1.351 . S
C957 C958 1.434 . S
C958 C949 1.429 1_545 S
C958 N955 1.350 . S
C958 C957 1.434 . S
C959 C960 1.369 . S
C959 C961 1.419 . S
C959 H963 0.930 . S
C960 C959 1.369 . S
C960 C969 1.429 . S
C961 C959 1.419 . S
C961 C962 1.363 . S
C961 H964 0.929 . S
C962 C961 1.363 . S
C962 C968 1.428 . S
H963 C959 0.930 . S
H964 C961 0.929 . S
S965 N966 1.613 . S
S965 N967 1.610 . S
N966 S965 1.613 . S
N966 C969 1.350 . S
N967 S965 1.610 . S
N967 C968 1.351 . S
C968 C962 1.428 . S
C968 N967 1.351 . S
C968 C969 1.434 . S
C969 C960 1.429 . S
C969 N966 1.350 . S
C969 C968 1.434 . S
C970 C971 1.369 1_565 S
C970 C972 1.419 . S
C970 H974 0.930 . S
C971 C970 1.369 1_545 S
C971 C980 1.429 . S
C972 C970 1.419 . S
C972 C973 1.363 1_565 S
C972 H975 0.929 . S
C973 C972 1.363 1_545 S
C973 C979 1.428 . S
H974 C970 0.930 . S
H975 C972 0.929 . S
S976 N977 1.613 . S
S976 N978 1.610 . S
N977 S976 1.613 . S
N977 C980 1.350 . S
N978 S976 1.610 . S
N978 C979 1.351 . S
C979 C973 1.428 . S
C979 N978 1.351 . S
C979 C980 1.434 . S
C980 C971 1.429 . S
C980 N977 1.350 . S
C980 C979 1.434 . S
C981 C982 1.369 . S
C981 C983 1.419 . S
C981 H985 0.930 . S
C982 C981 1.369 . S
C982 C991 1.429 . S
C983 C981 1.419 . S
C983 C984 1.363 . S
C983 H986 0.929 . S
C984 C983 1.363 . S
C984 C990 1.428 . S
H985 C981 0.930 . S
H986 C983 0.929 . S
S987 N988 1.613 . S
S987 N989 1.610 . S
N988 S987 1.613 . S
N988 C991 1.350 . S
N989 S987 1.610 . S
N989 C990 1.351 . S
C990 C984 1.428 . S
C990 N989 1.351 . S
C990 C991 1.434 . S
C991 C982 1.429 . S
C991 N988 1.350 . S
C991 C990 1.434 . S
C992 C993 1.369 . S
C992 C994 1.419 . S
C992 H996 0.930 . S
C993 C992 1.369 . S
C993 C1002 1.429 . S
C994 C992 1.419 . S
C994 C995 1.363 . S
C994 H997 0.929 . S
C995 C994 1.363 . S
C995 C1001 1.428 . S
H996 C992 0.930 . S
H997 C994 0.929 . S
S998 N999 1.613 . S
S998 N1000 1.610 . S
N999 S998 1.613 . S
N999 C1002 1.350 . S
N1000 S998 1.610 . S
N1000 C1001 1.351 . S
C1001 C995 1.428 . S
C1001 N1000 1.351 . S
C1001 C1002 1.434 . S
C1002 C993 1.429 . S
C1002 N999 1.350 . S
C1002 C1001 1.434 . S
C1003 C1004 1.369 . S
C1003 C1005 1.419 . S
C1003 H1007 0.930 . S
C1004 C1003 1.369 . S
C1004 C1013 1.429 . S
C1005 C1003 1.419 . S
C1005 C1006 1.363 . S
C1005 H1008 0.929 . S
C1006 C1005 1.363 . S
C1006 C1012 1.428 . S
H1007 C1003 0.930 . S
H1008 C1005 0.929 . S
S1009 N1010 1.613 . S
S1009 N1011 1.610 . S
N1010 S1009 1.613 . S
N1010 C1013 1.350 1_655 S
N1011 S1009 1.610 . S
N1011 C1012 1.351 1_655 S
C1012 C1006 1.428 . S
C1012 N1011 1.351 1_455 S
C1012 C1013 1.434 . S
C1013 C1004 1.429 . S
C1013 N1010 1.350 1_455 S
C1013 C1012 1.434 . S
C1014 C1015 1.369 . S
C1014 C1016 1.419 . S
C1014 H1018 0.930 . S
C1015 C1014 1.369 . S
C1015 C1024 1.429 . S
C1016 C1014 1.419 . S
C1016 C1017 1.363 . S
C1016 H1019 0.929 . S
C1017 C1016 1.363 . S
C1017 C1023 1.428 . S
H1018 C1014 0.930 . S
H1019 C1016 0.929 . S
S1020 N1021 1.613 . S
S1020 N1022 1.610 . S
N1021 S1020 1.613 . S
N1021 C1024 1.350 . S
N1022 S1020 1.610 . S
N1022 C1023 1.351 . S
C1023 C1017 1.428 . S
C1023 N1022 1.351 . S
C1023 C1024 1.434 . S
C1024 C1015 1.429 . S
C1024 N1021 1.350 . S
C1024 C1023 1.434 . S
C1025 C1026 1.369 . S
C1025 C1027 1.419 . S
C1025 H1029 0.930 . S
C1026 C1025 1.369 . S
C1026 C1035 1.429 . S
C1027 C1025 1.419 . S
C1027 C1028 1.363 . S
C1027 H1030 0.929 . S
C1028 C1027 1.363 . S
C1028 C1034 1.428 . S
H1029 C1025 0.930 . S
H1030 C1027 0.929 . S
S1031 N1032 1.613 . S
S1031 N1033 1.610 . S
N1032 S1031 1.613 . S
N1032 C1035 1.350 . S
N1033 S1031 1.610 . S
N1033 C1034 1.351 . S
C1034 C1028 1.428 . S
C1034 N1033 1.351 . S
C1034 C1035 1.434 . S
C1035 C1026 1.429 . S
C1035 N1032 1.350 . S
C1035 C1034 1.434 . S
C1036 C1037 1.369 . S
C1036 C1038 1.419 . S
C1036 H1040 0.930 . S
C1037 C1036 1.369 . S
C1037 C1046 1.429 . S
C1038 C1036 1.419 . S
C1038 C1039 1.363 . S
C1038 H1041 0.929 . S
C1039 C1038 1.363 . S
C1039 C1045 1.428 . S
H1040 C1036 0.930 . S
H1041 C1038 0.929 . S
S1042 N1043 1.613 . S
S1042 N1044 1.610 . S
N1043 S1042 1.613 . S
N1043 C1046 1.350 . S
N1044 S1042 1.610 . S
N1044 C1045 1.351 . S
C1045 C1039 1.428 . S
C1045 N1044 1.351 . S
C1045 C1046 1.434 . S
C1046 C1037 1.429 . S
C1046 N1043 1.350 . S
C1046 C1045 1.434 . S
C1047 C1048 1.369 . S
C1047 C1049 1.419 . S
C1047 H1051 0.930 . S
C1048 C1047 1.369 . S
C1048 C1057 1.429 . S
C1049 C1047 1.419 . S
C1049 C1050 1.363 . S
C1049 H1052 0.929 . S
C1050 C1049 1.363 . S
C1050 C1056 1.428 . S
H1051 C1047 0.930 . S
H1052 C1049 0.929 . S
S1053 N1054 1.613 . S
S1053 N1055 1.610 . S
N1054 S1053 1.613 . S
N1054 C1057 1.350 . S
N1055 S1053 1.610 . S
N1055 C1056 1.351 . S
C1056 C1050 1.428 . S
C1056 N1055 1.351 . S
C1056 C1057 1.434 . S
C1057 C1048 1.429 . S
C1057 N1054 1.350 . S
C1057 C1056 1.434 . S
C1058 C1059 1.369 . S
C1058 C1060 1.419 . S
C1058 H1062 0.930 . S
C1059 C1058 1.369 . S
C1059 C1068 1.429 . S
C1060 C1058 1.419 . S
C1060 C1061 1.363 . S
C1060 H1063 0.929 . S
C1061 C1060 1.363 . S
C1061 C1067 1.428 . S
H1062 C1058 0.930 . S
H1063 C1060 0.929 . S
S1064 N1065 1.613 . S
S1064 N1066 1.610 . S
N1065 S1064 1.613 . S
N1065 C1068 1.350 . S
N1066 S1064 1.610 . S
N1066 C1067 1.351 . S
C1067 C1061 1.428 . S
C1067 N1066 1.351 . S
C1067 C1068 1.434 . S
C1068 C1059 1.429 . S
C1068 N1065 1.350 . S
C1068 C1067 1.434 . S
C1069 C1070 1.369 . S
C1069 C1071 1.419 . S
C1069 H1073 0.930 . S
C1070 C1069 1.369 . S
C1070 C1079 1.429 . S
C1071 C1069 1.419 . S
C1071 C1072 1.363 . S
C1071 H1074 0.929 . S
C1072 C1071 1.363 . S
C1072 C1078 1.428 . S
H1073 C1069 0.930 . S
H1074 C1071 0.929 . S
S1075 N1076 1.613 . S
S1075 N1077 1.610 . S
N1076 S1075 1.613 . S
N1076 C1079 1.350 . S
N1077 S1075 1.610 . S
N1077 C1078 1.351 . S
C1078 C1072 1.428 . S
C1078 N1077 1.351 . S
C1078 C1079 1.434 . S
C1079 C1070 1.429 . S
C1079 N1076 1.350 . S
C1079 C1078 1.434 . S
C1080 C1081 1.369 . S
C1080 C1082 1.419 . S
C1080 H1084 0.930 . S
C1081 C1080 1.369 . S
C1081 C1090 1.429 . S
C1082 C1080 1.419 . S
C1082 C1083 1.363 . S
C1082 H1085 0.929 . S
C1083 C1082 1.363 . S
C1083 C1089 1.428 . S
H1084 C1080 0.930 . S
H1085 C1082 0.929 . S
S1086 N1087 1.613 . S
S1086 N1088 1.610 . S
N1087 S1086 1.613 . S
N1087 C1090 1.350 . S
N1088 S1086 1.610 . S
N1088 C1089 1.351 . S
C1089 C1083 1.428 . S
C1089 N1088 1.351 . S
C1089 C1090 1.434 . S
C1090 C1081 1.429 . S
C1090 N1087 1.350 . S
C1090 C1089 1.434 . S
C1091 C1092 1.369 . S
C1091 C1093 1.419 . S
C1091 H1095 0.930 . S
C1092 C1091 1.369 . S
C1092 C1101 1.429 . S
C1093 C1091 1.419 . S
C1093 C1094 1.363 . S
C1093 H1096 0.929 . S
C1094 C1093 1.363 . S
C1094 C1100 1.428 . S
H1095 C1091 0.930 . S
H1096 C1093 0.929 . S
S1097 N1098 1.613 . S
S1097 N1099 1.610 . S
N1098 S1097 1.613 . S
N1098 C1101 1.350 . S
N1099 S1097 1.610 . S
N1099 C1100 1.351 . S
C1100 C1094 1.428 . S
C1100 N1099 1.351 . S
C1100 C1101 1.434 . S
C1101 C1092 1.429 . S
C1101 N1098 1.350 . S
C1101 C1100 1.434 . S
C1102 C1103 1.369 . S
C1102 C1104 1.419 . S
C1102 H1106 0.930 . S
C1103 C1102 1.369 . S
C1103 C1112 1.429 . S
C1104 C1102 1.419 . S
C1104 C1105 1.363 . S
C1104 H1107 0.929 . S
C1105 C1104 1.363 . S
C1105 C1111 1.428 . S
H1106 C1102 0.930 . S
H1107 C1104 0.929 . S
S1108 N1109 1.613 . S
S1108 N1110 1.610 . S
N1109 S1108 1.613 . S
N1109 C1112 1.350 . S
N1110 S1108 1.610 . S
N1110 C1111 1.351 . S
C1111 C1105 1.428 . S
C1111 N1110 1.351 . S
C1111 C1112 1.434 . S
C1112 C1103 1.429 . S
C1112 N1109 1.350 . S
C1112 C1111 1.434 . S
C1113 C1114 1.369 . S
C1113 C1115 1.419 . S
C1113 H1117 0.930 . S
C1114 C1113 1.369 . S
C1114 C1123 1.429 . S
C1115 C1113 1.419 . S
C1115 C1116 1.363 . S
C1115 H1118 0.929 . S
C1116 C1115 1.363 . S
C1116 C1122 1.428 . S
H1117 C1113 0.930 . S
H1118 C1115 0.929 . S
S1119 N1120 1.613 . S
S1119 N1121 1.610 . S
N1120 S1119 1.613 . S
N1120 C1123 1.350 . S
N1121 S1119 1.610 . S
N1121 C1122 1.351 . S
C1122 C1116 1.428 . S
C1122 N1121 1.351 . S
C1122 C1123 1.434 . S
C1123 C1114 1.429 . S
C1123 N1120 1.350 . S
C1123 C1122 1.434 . S
C1124 C1125 1.369 . S
C1124 C1126 1.419 . S
C1124 H1128 0.930 . S
C1125 C1124 1.369 . S
C1125 C1134 1.429 . S
C1126 C1124 1.419 . S
C1126 C1127 1.363 . S
C1126 H1129 0.929 . S
C1127 C1126 1.363 . S
C1127 C1133 1.428 . S
H1128 C1124 0.930 . S
H1129 C1126 0.929 . S
S1130 N1131 1.613 . S
S1130 N1132 1.610 . S
N1131 S1130 1.613 . S
N1131 C1134 1.350 . S
N1132 S1130 1.610 . S
N1132 C1133 1.351 . S
C1133 C1127 1.428 . S
C1133 N1132 1.351 . S
C1133 C1134 1.434 . S
C1134 C1125 1.429 . S
C1134 N1131 1.350 . S
C1134 C1133 1.434 . S
C1135 C1136 1.369 . S
C1135 C1137 1.419 . S
C1135 H1139 0.930 . S
C1136 C1135 1.369 . S
C1136 C1145 1.429 . S
C1137 C1135 1.419 . S
C1137 C1138 1.363 . S
C1137 H1140 0.929 . S
C1138 C1137 1.363 . S
C1138 C1144 1.428 . S
H1139 C1135 0.930 . S
H1140 C1137 0.929 . S
S1141 N1142 1.613 . S
S1141 N1143 1.610 . S
N1142 S1141 1.613 . S
N1142 C1145 1.350 . S
N1143 S1141 1.610 . S
N1143 C1144 1.351 . S
C1144 C1138 1.428 . S
C1144 N1143 1.351 . S
C1144 C1145 1.434 . S
C1145 C1136 1.429 . S
C1145 N1142 1.350 . S
C1145 C1144 1.434 . S
C1146 C1147 1.369 . S
C1146 C1148 1.419 . S
C1146 H1150 0.930 . S
C1147 C1146 1.369 . S
C1147 C1156 1.429 . S
C1148 C1146 1.419 . S
C1148 C1149 1.363 . S
C1148 H1151 0.929 . S
C1149 C1148 1.363 . S
C1149 C1155 1.428 . S
H1150 C1146 0.930 . S
H1151 C1148 0.929 . S
S1152 N1153 1.613 . S
S1152 N1154 1.610 . S
N1153 S1152 1.613 . S
N1153 C1156 1.350 . S
N1154 S1152 1.610 . S
N1154 C1155 1.351 . S
C1155 C1149 1.428 . S
C1155 N1154 1.351 . S
C1155 C1156 1.434 . S
C1156 C1147 1.429 . S
C1156 N1153 1.350 . S
C1156 C1155 1.434 . S
C1157 C1158 1.369 . S
C1157 C1159 1.419 . S
C1157 H1161 0.930 . S
C1158 C1157 1.369 . S
C1158 C1167 1.429 . S
C1159 C1157 1.419 . S
C1159 C1160 1.363 . S
C1159 H1162 0.929 . S
C1160 C1159 1.363 . S
C1160 C1166 1.428 . S
H1161 C1157 0.930 . S
H1162 C1159 0.929 . S
S1163 N1164 1.613 . S
S1163 N1165 1.610 . S
N1164 S1163 1.613 . S
N1164 C1167 1.350 . S
N1165 S1163 1.610 . S
N1165 C1166 1.351 . S
C1166 C1160 1.428 . S
C1166 N1165 1.351 . S
C1166 C1167 1.434 . S
C1167 C1158 1.429 . S
C1167 N1164 1.350 . S
C1167 C1166 1.434 . S
C1168 C1169 1.369 . S
C1168 C1170 1.419 . S
C1168 H1172 0.930 . S
C1169 C1168 1.369 . S
C1169 C1178 1.429 . S
C1170 C1168 1.419 . S
C1170 C1171 1.363 . S
C1170 H1173 0.929 . S
C1171 C1170 1.363 . S
C1171 C1177 1.428 . S
H1172 C1168 0.930 . S
H1173 C1170 0.929 . S
S1174 N1175 1.613 . S
S1174 N1176 1.610 . S
N1175 S1174 1.613 . S
N1175 C1178 1.350 . S
N1176 S1174 1.610 . S
N1176 C1177 1.351 . S
C1177 C1171 1.428 . S
C1177 N1176 1.351 . S
C1177 C1178 1.434 . S
C1178 C1169 1.429 . S
C1178 N1175 1.350 . S
C1178 C1177 1.434 . S
C1179 C1180 1.369 . S
C1179 C1181 1.419 . S
C1179 H1183 0.930 . S
C1180 C1179 1.369 . S
C1180 C1189 1.429 . S
C1181 C1179 1.419 . S
C1181 C1182 1.363 . S
C1181 H1184 0.929 . S
C1182 C1181 1.363 . S
C1182 C1188 1.428 . S
H1183 C1179 0.930 . S
H1184 C1181 0.929 . S
S1185 N1186 1.613 . S
S1185 N1187 1.610 . S
N1186 S1185 1.613 . S
N1186 C1189 1.350 . S
N1187 S1185 1.610 . S
N1187 C1188 1.351 . S
C1188 C1182 1.428 . S
C1188 N1187 1.351 . S
C1188 C1189 1.434 . S
C1189 C1180 1.429 . S
C1189 N1186 1.350 . S
C1189 C1188 1.434 . S
C1190 C1191 1.369 . S
C1190 C1192 1.419 . S
C1190 H1194 0.930 . S
C1191 C1190 1.369 . S
C1191 C1200 1.429 . S
C1192 C1190 1.419 . S
C1192 C1193 1.363 . S
C1192 H1195 0.929 . S
C1193 C1192 1.363 . S
C1193 C1199 1.428 . S
H1194 C1190 0.930 . S
H1195 C1192 0.929 . S
S1196 N1197 1.613 . S
S1196 N1198 1.610 . S
N1197 S1196 1.613 . S
N1197 C1200 1.350 . S
N1198 S1196 1.610 . S
N1198 C1199 1.351 . S
C1199 C1193 1.428 . S
C1199 N1198 1.351 . S
C1199 C1200 1.434 . S
C1200 C1191 1.429 . S
C1200 N1197 1.350 . S
C1200 C1199 1.434 . S
C1201 C1202 1.369 . S
C1201 C1203 1.419 . S
C1201 H1205 0.930 . S
C1202 C1201 1.369 . S
C1202 C1211 1.429 . S
C1203 C1201 1.419 . S
C1203 C1204 1.363 . S
C1203 H1206 0.929 . S
C1204 C1203 1.363 . S
C1204 C1210 1.428 . S
H1205 C1201 0.930 . S
H1206 C1203 0.929 . S
S1207 N1208 1.613 . S
S1207 N1209 1.610 . S
N1208 S1207 1.613 . S
N1208 C1211 1.350 . S
N1209 S1207 1.610 . S
N1209 C1210 1.351 . S
C1210 C1204 1.428 . S
C1210 N1209 1.351 . S
C1210 C1211 1.434 . S
C1211 C1202 1.429 . S
C1211 N1208 1.350 . S
C1211 C1210 1.434 . S
C1212 C1213 1.369 . S
C1212 C1214 1.419 . S
C1212 H1216 0.930 . S
C1213 C1212 1.369 . S
C1213 C1222 1.429 . S
C1214 C1212 1.419 . S
C1214 C1215 1.363 . S
C1214 H1217 0.929 . S
C1215 C1214 1.363 . S
C1215 C1221 1.428 . S
H1216 C1212 0.930 . S
H1217 C1214 0.929 . S
S1218 N1219 1.613 . S
S1218 N1220 1.610 . S
N1219 S1218 1.613 . S
N1219 C1222 1.350 . S
N1220 S1218 1.610 . S
N1220 C1221 1.351 . S
C1221 C1215 1.428 . S
C1221 N1220 1.351 . S
C1221 C1222 1.434 . S
C1222 C1213 1.429 . S
C1222 N1219 1.350 . S
C1222 C1221 1.434 . S
C1223 C1224 1.369 . S
C1223 C1225 1.419 . S
C1223 H1227 0.930 . S
C1224 C1223 1.369 . S
C1224 C1233 1.429 . S
C1225 C1223 1.419 . S
C1225 C1226 1.363 . S
C1225 H1228 0.929 . S
C1226 C1225 1.363 . S
C1226 C1232 1.428 . S
H1227 C1223 0.930 . S
H1228 C1225 0.929 . S
S1229 N1230 1.613 . S
S1229 N1231 1.610 . S
N1230 S1229 1.613 . S
N1230 C1233 1.350 . S
N1231 S1229 1.610 . S
N1231 C1232 1.351 . S
C1232 C1226 1.428 . S
C1232 N1231 1.351 . S
C1232 C1233 1.434 . S
C1233 C1224 1.429 . S
C1233 N1230 1.350 . S
C1233 C1232 1.434 . S
C1234 C1235 1.369 . S
C1234 C1236 1.419 . S
C1234 H1238 0.930 . S
C1235 C1234 1.369 . S
C1235 C1244 1.429 . S
C1236 C1234 1.419 . S
C1236 C1237 1.363 . S
C1236 H1239 0.929 . S
C1237 C1236 1.363 . S
C1237 C1243 1.428 . S
H1238 C1234 0.930 . S
H1239 C1236 0.929 . S
S1240 N1241 1.613 . S
S1240 N1242 1.610 . S
N1241 S1240 1.613 . S
N1241 C1244 1.350 . S
N1242 S1240 1.610 . S
N1242 C1243 1.351 . S
C1243 C1237 1.428 . S
C1243 N1242 1.351 . S
C1243 C1244 1.434 . S
C1244 C1235 1.429 . S
C1244 N1241 1.350 . S
C1244 C1243 1.434 . S
C1245 C1246 1.369 . S
C1245 C1247 1.419 . S
C1245 H1249 0.930 . S
C1246 C1245 1.369 . S
C1246 C1255 1.429 . S
C1247 C1245 1.419 . S
C1247 C1248 1.363 . S
C1247 H1250 0.929 . S
C1248 C1247 1.363 . S
C1248 C1254 1.428 . S
H1249 C1245 0.930 . S
H1250 C1247 0.929 . S
S1251 N1252 1.613 . S
S1251 N1253 1.610 . S
N1252 S1251 1.613 . S
N1252 C1255 1.350 . S
N1253 S1251 1.610 . S
N1253 C1254 1.351 . S
C1254 C1248 1.428 . S
C1254 N1253 1.351 . S
C1254 C1255 1.434 . S
C1255 C1246 1.429 . S
C1255 N1252 1.350 . S
C1255 C1254 1.434 . S
C1256 C1257 1.369 . S
C1256 C1258 1.419 . S
C1256 H1260 0.930 . S
C1257 C1256 1.369 . S
C1257 C1266 1.429 1_545 S
C1258 C1256 1.419 . S
C1258 C1259 1.363 1_545 S
C1258 H1261 0.929 . S
C1259 C1258 1.363 1_565 S
C1259 C1265 1.428 . S
H1260 C1256 0.930 . S
H1261 C1258 0.929 . S
S1262 N1263 1.613 . S
S1262 N1264 1.610 . S
N1263 S1262 1.613 . S
N1263 C1266 1.350 . S
N1264 S1262 1.610 . S
N1264 C1265 1.351 . S
C1265 C1259 1.428 . S
C1265 N1264 1.351 . S
C1265 C1266 1.434 . S
C1266 C1257 1.429 1_565 S
C1266 N1263 1.350 . S
C1266 C1265 1.434 . S
C1267 C1268 1.369 . S
C1267 C1269 1.419 . S
C1267 H1271 0.930 . S
C1268 C1267 1.369 . S
C1268 C1277 1.429 . S
C1269 C1267 1.419 . S
C1269 C1270 1.363 . S
C1269 H1272 0.929 . S
C1270 C1269 1.363 . S
C1270 C1276 1.428 . S
H1271 C1267 0.930 . S
H1272 C1269 0.929 . S
S1273 N1274 1.613 . S
S1273 N1275 1.610 . S
N1274 S1273 1.613 . S
N1274 C1277 1.350 . S
N1275 S1273 1.610 . S
N1275 C1276 1.351 . S
C1276 C1270 1.428 . S
C1276 N1275 1.351 . S
C1276 C1277 1.434 . S
C1277 C1268 1.429 . S
C1277 N1274 1.350 . S
C1277 C1276 1.434 . S
C1278 C1279 1.369 . S
C1278 C1280 1.419 . S
C1278 H1282 0.930 . S
C1279 C1278 1.369 . S
C1279 C1288 1.429 . S
C1280 C1278 1.419 . S
C1280 C1281 1.363 . S
C1280 H1283 0.929 . S
C1281 C1280 1.363 . S
C1281 C1287 1.428 . S
H1282 C1278 0.930 . S
H1283 C1280 0.929 . S
S1284 N1285 1.613 . S
S1284 N1286 1.610 . S
N1285 S1284 1.613 . S
N1285 C1288 1.350 . S
N1286 S1284 1.610 . S
N1286 C1287 1.351 . S
C1287 C1281 1.428 . S
C1287 N1286 1.351 . S
C1287 C1288 1.434 . S
C1288 C1279 1.429 . S
C1288 N1285 1.350 . S
C1288 C1287 1.434 . S
C1289 C1290 1.369 . S
C1289 C1291 1.419 . S
C1289 H1293 0.930 . S
C1290 C1289 1.369 . S
C1290 C1299 1.429 1_545 S
C1291 C1289 1.419 . S
C1291 C1292 1.363 1_545 S
C1291 H1294 0.929 . S
C1292 C1291 1.363 1_565 S
C1292 C1298 1.428 . S
H1293 C1289 0.930 . S
H1294 C1291 0.929 . S
S1295 N1296 1.613 . S
S1295 N1297 1.610 . S
N1296 S1295 1.613 . S
N1296 C1299 1.350 . S
N1297 S1295 1.610 . S
N1297 C1298 1.351 . S
C1298 C1292 1.428 . S
C1298 N1297 1.351 . S
C1298 C1299 1.434 . S
C1299 C1290 1.429 1_565 S
C1299 N1296 1.350 . S
C1299 C1298 1.434 . S
C1300 C1301 1.369 . S
C1300 C1302 1.419 . S
C1300 H1304 0.930 . S
C1301 C1300 1.369 . S
C1301 C1310 1.429 1_565 S
C1302 C1300 1.419 . S
C1302 C1303 1.363 1_565 S
C1302 H1305 0.929 . S
C1303 C1302 1.363 1_545 S
C1303 C1309 1.428 . S
H1304 C1300 0.930 . S
H1305 C1302 0.929 . S
S1306 N1307 1.613 . S
S1306 N1308 1.610 . S
N1307 S1306 1.613 . S
N1307 C1310 1.350 . S
N1308 S1306 1.610 . S
N1308 C1309 1.351 . S
C1309 C1303 1.428 . S
C1309 N1308 1.351 . S
C1309 C1310 1.434 . S
C1310 C1301 1.429 1_545 S
C1310 N1307 1.350 . S
C1310 C1309 1.434 . S
C1311 C1312 1.369 . S
C1311 C1313 1.419 . S
C1311 H1315 0.930 . S
C1312 C1311 1.369 . S
C1312 C1321 1.429 . S
C1313 C1311 1.419 . S
C1313 C1314 1.363 . S
C1313 H1316 0.929 . S
C1314 C1313 1.363 . S
C1314 C1320 1.428 . S
H1315 C1311 0.930 . S
H1316 C1313 0.929 . S
S1317 N1318 1.613 . S
S1317 N1319 1.610 . S
N1318 S1317 1.613 . S
N1318 C1321 1.350 . S
N1319 S1317 1.610 . S
N1319 C1320 1.351 . S
C1320 C1314 1.428 . S
C1320 N1319 1.351 . S
C1320 C1321 1.434 . S
C1321 C1312 1.429 . S
C1321 N1318 1.350 . S
C1321 C1320 1.434 . S
C1322 C1323 1.369 . S
C1322 C1324 1.419 . S
C1322 H1326 0.930 . S
C1323 C1322 1.369 . S
C1323 C1332 1.429 . S
C1324 C1322 1.419 . S
C1324 C1325 1.363 . S
C1324 H1327 0.929 . S
C1325 C1324 1.363 . S
C1325 C1331 1.428 . S
H1326 C1322 0.930 . S
H1327 C1324 0.929 . S
S1328 N1329 1.613 . S
S1328 N1330 1.610 . S
N1329 S1328 1.613 . S
N1329 C1332 1.350 . S
N1330 S1328 1.610 . S
N1330 C1331 1.351 . S
C1331 C1325 1.428 . S
C1331 N1330 1.351 . S
C1331 C1332 1.434 . S
C1332 C1323 1.429 . S
C1332 N1329 1.350 . S
C1332 C1331 1.434 . S
C1333 C1334 1.369 1_545 S
C1333 C1335 1.419 . S
C1333 H1337 0.930 . S
C1334 C1333 1.369 1_565 S
C1334 C1343 1.429 . S
C1335 C1333 1.419 . S
C1335 C1336 1.363 . S
C1335 H1338 0.929 . S
C1336 C1335 1.363 . S
C1336 C1342 1.428 1_545 S
H1337 C1333 0.930 . S
H1338 C1335 0.929 . S
S1339 N1340 1.613 . S
S1339 N1341 1.610 . S
N1340 S1339 1.613 . S
N1340 C1343 1.350 . S
N1341 S1339 1.610 . S
N1341 C1342 1.351 . S
C1342 C1336 1.428 1_565 S
C1342 N1341 1.351 . S
C1342 C1343 1.434 . S
C1343 C1334 1.429 . S
C1343 N1340 1.350 . S
C1343 C1342 1.434 . S
C1344 C1345 1.369 . S
C1344 C1346 1.419 1_455 S
C1344 H1348 0.930 . S
C1345 C1344 1.369 . S
C1345 C1354 1.429 . S
C1346 C1344 1.419 1_655 S
C1346 C1347 1.363 . S
C1346 H1349 0.929 . S
C1347 C1346 1.363 . S
C1347 C1353 1.428 . S
H1348 C1344 0.930 . S
H1349 C1346 0.929 . S
S1350 N1351 1.613 . S
S1350 N1352 1.610 1_455 S
N1351 S1350 1.613 . S
N1351 C1354 1.350 . S
N1352 S1350 1.610 1_655 S
N1352 C1353 1.351 . S
C1353 C1347 1.428 . S
C1353 N1352 1.351 . S
C1353 C1354 1.434 1_655 S
C1354 C1345 1.429 . S
C1354 N1351 1.350 . S
C1354 C1353 1.434 1_455 S
C1355 C1356 1.369 . S
C1355 C1357 1.419 . S
C1355 H1359 0.930 . S
C1356 C1355 1.369 . S
C1356 C1365 1.429 . S
C1357 C1355 1.419 . S
C1357 C1358 1.363 . S
C1357 H1360 0.929 . S
C1358 C1357 1.363 . S
C1358 C1364 1.428 . S
H1359 C1355 0.930 . S
H1360 C1357 0.929 . S
S1361 N1362 1.613 . S
S1361 N1363 1.610 . S
N1362 S1361 1.613 . S
N1362 C1365 1.350 . S
N1363 S1361 1.610 . S
N1363 C1364 1.351 . S
C1364 C1358 1.428 . S
C1364 N1363 1.351 . S
C1364 C1365 1.434 . S
C1365 C1356 1.429 . S
C1365 N1362 1.350 . S
C1365 C1364 1.434 . S
C1366 C1367 1.369 . S
C1366 C1368 1.419 1_655 S
C1366 H1370 0.930 . S
C1367 C1366 1.369 . S
C1367 C1376 1.431 . S
C1368 C1366 1.419 1_455 S
C1368 C1369 1.363 . S
C1368 H1371 0.929 . S
C1369 C1368 1.363 . S
C1369 C1375 1.428 . S
H1370 C1366 0.930 . S
H1371 C1368 0.929 . S
S1372 N1373 1.613 1_455 S
S1372 N1374 1.610 . S
N1373 S1372 1.613 1_655 S
N1373 C1376 1.351 . S
N1374 S1372 1.610 . S
N1374 C1375 1.351 . S
C1375 C1369 1.428 . S
C1375 N1374 1.351 . S
C1375 C1376 1.430 1_455 S
C1376 C1367 1.431 . S
C1376 N1373 1.351 . S
C1376 C1375 1.430 1_655 S
C1377 C1378 1.369 . S
C1377 C1379 1.419 . S
C1377 H1381 0.930 . S
C1378 C1377 1.369 . S
C1378 C1387 1.429 . S
C1379 C1377 1.419 . S
C1379 C1380 1.363 . S
C1379 H1382 0.929 . S
C1380 C1379 1.363 . S
C1380 C1386 1.428 . S
H1381 C1377 0.930 . S
H1382 C1379 0.929 . S
S1383 N1384 1.613 . S
S1383 N1385 1.610 . S
N1384 S1383 1.613 . S
N1384 C1387 1.350 . S
N1385 S1383 1.610 . S
N1385 C1386 1.351 . S
C1386 C1380 1.428 . S
C1386 N1385 1.351 . S
C1386 C1387 1.434 . S
C1387 C1378 1.429 . S
C1387 N1384 1.350 . S
C1387 C1386 1.434 . S
C1388 C1389 1.369 . S
C1388 C1390 1.419 1_655 S
C1388 H1392 0.930 . S
C1389 C1388 1.369 . S
C1389 C1398 1.429 . S
C1390 C1388 1.419 1_455 S
C1390 C1391 1.363 . S
C1390 H1393 0.929 . S
C1391 C1390 1.363 . S
C1391 C1397 1.428 . S
H1392 C1388 0.930 . S
H1393 C1390 0.929 . S
S1394 N1395 1.613 1_455 S
S1394 N1396 1.610 . S
N1395 S1394 1.613 1_655 S
N1395 C1398 1.350 . S
N1396 S1394 1.610 . S
N1396 C1397 1.351 . S
C1397 C1391 1.428 . S
C1397 N1396 1.351 . S
C1397 C1398 1.434 1_455 S
C1398 C1389 1.429 . S
C1398 N1395 1.350 . S
C1398 C1397 1.434 1_655 S
C1399 C1400 1.369 . S
C1399 C1401 1.419 . S
C1399 H1403 0.930 . S
C1400 C1399 1.369 . S
C1400 C1409 1.429 . S
C1401 C1399 1.419 . S
C1401 C1402 1.363 . S
C1401 H1404 0.929 . S
C1402 C1401 1.363 . S
C1402 C1408 1.428 . S
H1403 C1399 0.930 . S
H1404 C1401 0.929 . S
S1405 N1406 1.613 . S
S1405 N1407 1.610 . S
N1406 S1405 1.613 . S
N1406 C1409 1.350 . S
N1407 S1405 1.610 . S
N1407 C1408 1.351 . S
C1408 C1402 1.428 . S
C1408 N1407 1.351 . S
C1408 C1409 1.434 . S
C1409 C1400 1.429 . S
C1409 N1406 1.350 . S
C1409 C1408 1.434 . S
C1410 C1411 1.369 . S
C1410 C1412 1.419 1_455 S
C1410 H1414 0.930 . S
C1411 C1410 1.369 . S
C1411 C1420 1.429 . S
C1412 C1410 1.419 1_655 S
C1412 C1413 1.363 . S
C1412 H1415 0.929 . S
C1413 C1412 1.363 . S
C1413 C1419 1.428 . S
H1414 C1410 0.930 . S
H1415 C1412 0.929 . S
S1416 N1417 1.613 . S
S1416 N1418 1.610 1_455 S
N1417 S1416 1.613 . S
N1417 C1420 1.350 . S
N1418 S1416 1.610 1_655 S
N1418 C1419 1.351 . S
C1419 C1413 1.428 . S
C1419 N1418 1.351 . S
C1419 C1420 1.434 1_655 S
C1420 C1411 1.429 . S
C1420 N1417 1.350 . S
C1420 C1419 1.434 1_455 S
C1421 C1422 1.369 . S
C1421 C1423 1.419 . S
C1421 H1425 0.930 . S
C1422 C1421 1.369 . S
C1422 C1431 1.429 . S
C1423 C1421 1.419 . S
C1423 C1424 1.363 . S
C1423 H1426 0.929 . S
C1424 C1423 1.363 . S
C1424 C1430 1.428 . S
H1425 C1421 0.930 . S
H1426 C1423 0.929 . S
S1427 N1428 1.613 . S
S1427 N1429 1.610 . S
N1428 S1427 1.613 . S
N1428 C1431 1.350 . S
N1429 S1427 1.610 . S
N1429 C1430 1.351 . S
C1430 C1424 1.428 . S
C1430 N1429 1.351 . S
C1430 C1431 1.434 . S
C1431 C1422 1.429 . S
C1431 N1428 1.350 . S
C1431 C1430 1.434 . S
C1432 C1433 1.369 . S
C1432 C1434 1.419 1_655 S
C1432 H1436 0.930 . S
C1433 C1432 1.369 . S
C1433 C1442 1.429 1_545 S
C1434 C1432 1.419 1_455 S
C1434 C1435 1.363 1_545 S
C1434 H1437 0.929 . S
C1435 C1434 1.363 1_565 S
C1435 C1441 1.428 . S
H1436 C1432 0.930 . S
H1437 C1434 0.929 . S
S1438 N1439 1.613 . S
S1438 N1440 1.610 1_655 S
N1439 S1438 1.613 . S
N1439 C1442 1.350 . S
N1440 S1438 1.610 1_455 S
N1440 C1441 1.351 . S
C1441 C1435 1.428 . S
C1441 N1440 1.351 . S
C1441 C1442 1.434 1_455 S
C1442 C1433 1.429 1_565 S
C1442 N1439 1.350 . S
C1442 C1441 1.434 1_655 S
C1443 C1444 1.369 . S
C1443 C1445 1.419 . S
C1443 H1447 0.930 . S
C1444 C1443 1.369 . S
C1444 C1453 1.429 . S
C1445 C1443 1.419 . S
C1445 C1446 1.363 . S
C1445 H1448 0.929 . S
C1446 C1445 1.363 . S
C1446 C1452 1.428 . S
H1447 C1443 0.930 . S
H1448 C1445 0.929 . S
S1449 N1450 1.613 . S
S1449 N1451 1.610 . S
N1450 S1449 1.613 . S
N1450 C1453 1.350 . S
N1451 S1449 1.610 . S
N1451 C1452 1.351 . S
C1452 C1446 1.428 . S
C1452 N1451 1.351 . S
C1452 C1453 1.434 . S
C1453 C1444 1.429 . S
C1453 N1450 1.350 . S
C1453 C1452 1.434 . S
C1454 C1455 1.369 . S
C1454 C1456 1.419 1_655 S
C1454 H1458 0.930 . S
C1455 C1454 1.369 . S
C1455 C1464 1.429 . S
C1456 C1454 1.419 1_455 S
C1456 C1457 1.363 . S
C1456 H1459 0.929 . S
C1457 C1456 1.363 . S
C1457 C1463 1.428 . S
H1458 C1454 0.930 . S
H1459 C1456 0.929 . S
S1460 N1461 1.613 . S
S1460 N1462 1.610 1_655 S
N1461 S1460 1.613 . S
N1461 C1464 1.350 . S
N1462 S1460 1.610 1_455 S
N1462 C1463 1.351 . S
C1463 C1457 1.428 . S
C1463 N1462 1.351 . S
C1463 C1464 1.434 1_455 S
C1464 C1455 1.429 . S
C1464 N1461 1.350 . S
C1464 C1463 1.434 1_655 S
C1465 C1466 1.369 . S
C1465 C1467 1.419 1_545 S
C1465 H1469 0.930 . S
C1466 C1465 1.369 . S
C1466 C1475 1.429 1_545 S
C1467 C1465 1.419 1_565 S
C1467 C1468 1.363 . S
C1467 H1470 0.929 . S
C1468 C1467 1.363 . S
C1468 C1474 1.428 . S
H1469 C1465 0.930 . S
H1470 C1467 0.929 . S
S1471 N1472 1.612 1_565 S
S1471 N1473 1.610 . S
N1472 S1471 1.612 1_545 S
N1472 C1475 1.349 1_545 S
N1473 S1471 1.610 . S
N1473 C1474 1.351 . S
C1474 C1468 1.428 . S
C1474 N1473 1.351 . S
C1474 C1475 1.434 . S
C1475 C1466 1.429 1_565 S
C1475 N1472 1.349 1_565 S
C1475 C1474 1.434 . S
C1476 C1477 1.369 . S
C1476 C1478 1.419 1_655 S
C1476 H1480 0.930 . S
C1477 C1476 1.369 . S
C1477 C1486 1.429 1_545 S
C1478 C1476 1.419 1_455 S
C1478 C1479 1.363 1_545 S
C1478 H1481 0.929 . S
C1479 C1478 1.363 1_565 S
C1479 C1485 1.430 . S
H1480 C1476 0.930 . S
H1481 C1478 0.929 . S
S1482 N1483 1.613 . S
S1482 N1484 1.610 1_655 S
N1483 S1482 1.613 . S
N1483 C1486 1.350 . S
N1484 S1482 1.610 1_455 S
N1484 C1485 1.352 . S
C1485 C1479 1.430 . S
C1485 N1484 1.352 . S
C1485 C1486 1.431 1_455 S
C1486 C1477 1.429 1_565 S
C1486 N1483 1.350 . S
C1486 C1485 1.431 1_655 S
C1487 C1488 1.369 . S
C1487 C1489 1.419 . S
C1487 H1491 0.930 . S
C1488 C1487 1.369 . S
C1488 C1497 1.429 . S
C1489 C1487 1.419 . S
C1489 C1490 1.363 . S
C1489 H1492 0.929 . S
C1490 C1489 1.363 . S
C1490 C1496 1.428 . S
H1491 C1487 0.930 . S
H1492 C1489 0.929 . S
S1493 N1494 1.613 . S
S1493 N1495 1.610 . S
N1494 S1493 1.613 . S
N1494 C1497 1.350 . S
N1495 S1493 1.610 . S
N1495 C1496 1.351 . S
C1496 C1490 1.428 . S
C1496 N1495 1.351 . S
C1496 C1497 1.434 . S
C1497 C1488 1.429 . S
C1497 N1494 1.350 . S
C1497 C1496 1.434 . S
C1498 C1499 1.369 . S
C1498 C1500 1.419 1_455 S
C1498 H1502 0.930 . S
C1499 C1498 1.369 . S
C1499 C1508 1.429 . S
C1500 C1498 1.419 1_655 S
C1500 C1501 1.363 . S
C1500 H1503 0.929 . S
C1501 C1500 1.363 . S
C1501 C1507 1.428 . S
H1502 C1498 0.930 . S
H1503 C1500 0.929 . S
S1504 N1505 1.613 1_655 S
S1504 N1506 1.610 . S
N1505 S1504 1.613 1_455 S
N1505 C1508 1.350 . S
N1506 S1504 1.610 . S
N1506 C1507 1.351 . S
C1507 C1501 1.428 . S
C1507 N1506 1.351 . S
C1507 C1508 1.434 1_655 S
C1508 C1499 1.429 . S
C1508 N1505 1.350 . S
C1508 C1507 1.434 1_455 S
C1509 C1510 1.369 . S
C1509 C1511 1.419 . S
C1509 H1513 0.930 . S
C1510 C1509 1.369 . S
C1510 C1519 1.429 1_565 S
C1511 C1509 1.419 . S
C1511 C1512 1.363 1_565 S
C1511 H1514 0.929 . S
C1512 C1511 1.363 1_545 S
C1512 C1518 1.428 . S
H1513 C1509 0.930 . S
H1514 C1511 0.929 . S
S1515 N1516 1.613 . S
S1515 N1517 1.610 . S
N1516 S1515 1.613 . S
N1516 C1519 1.350 . S
N1517 S1515 1.610 . S
N1517 C1518 1.351 . S
C1518 C1512 1.428 . S
C1518 N1517 1.351 . S
C1518 C1519 1.434 . S
C1519 C1510 1.429 1_545 S
C1519 N1516 1.350 . S
C1519 C1518 1.434 . S
C1520 C1521 1.364 1_655 S
C1520 C1522 1.419 1_554 S
C1520 H1524 0.930 . S
C1521 C1520 1.364 1_455 S
C1521 C1530 1.434 . S
C1522 C1520 1.419 1_556 S
C1522 C1523 1.363 1_655 S
C1522 H1525 0.929 . S
C1523 C1522 1.363 1_455 S
C1523 C1529 1.428 . S
H1524 C1520 0.930 . S
H1525 C1522 0.929 . S
S1526 N1527 1.623 . S
S1526 N1528 1.600 1_554 S
N1527 S1526 1.623 . S
N1527 C1530 1.350 . S
N1528 S1526 1.600 1_556 S
N1528 C1529 1.351 . S
C1529 C1523 1.428 . S
C1529 N1528 1.351 . S
C1529 C1530 1.434 1_556 S
C1530 C1521 1.434 . S
C1530 N1527 1.350 . S
C1530 C1529 1.434 1_554 S
C1531 C1532 1.369 . S
C1531 C1533 1.419 1_556 S
C1531 H1535 0.930 . S
C1532 C1531 1.369 . S
C1532 C1541 1.429 . S
C1533 C1531 1.419 1_554 S
C1533 C1534 1.363 . S
C1533 H1536 0.929 . S
C1534 C1533 1.363 . S
C1534 C1540 1.428 . S
H1535 C1531 0.930 . S
H1536 C1533 0.929 . S
S1537 N1538 1.623 . S
S1537 N1539 1.600 1_556 S
N1538 S1537 1.623 . S
N1538 C1541 1.350 . S
N1539 S1537 1.600 1_554 S
N1539 C1540 1.351 . S
C1540 C1534 1.428 . S
C1540 N1539 1.351 . S
C1540 C1541 1.434 1_554 S
C1541 C1532 1.429 . S
C1541 N1538 1.350 . S
C1541 C1540 1.434 1_556 S
C1542 C1543 1.372 . S
C1542 C1544 1.419 . S
C1542 H1546 0.930 . S
C1543 C1542 1.372 . S
C1543 C1552 1.426 1_455 S
C1544 C1542 1.419 . S
C1544 C1545 1.360 1_455 S
C1544 H1547 0.929 . S
C1545 C1544 1.360 1_655 S
C1545 C1551 1.431 . S
H1546 C1542 0.930 . S
H1547 C1544 0.929 . S
S1548 N1549 1.613 . S
S1548 N1550 1.610 . S
N1549 S1548 1.613 . S
N1549 C1552 1.350 . S
N1550 S1548 1.610 . S
N1550 C1551 1.351 . S
C1551 C1545 1.431 . S
C1551 N1550 1.351 . S
C1551 C1552 1.434 . S
C1552 C1543 1.426 1_655 S
C1552 N1549 1.350 . S
C1552 C1551 1.434 . S
C1553 C1554 1.369 . S
C1553 C1555 1.419 . S
C1553 H1557 0.930 . S
C1554 C1553 1.369 . S
C1554 C1563 1.429 . S
C1555 C1553 1.419 . S
C1555 C1556 1.363 . S
C1555 H1558 0.929 . S
C1556 C1555 1.363 . S
C1556 C1562 1.428 . S
H1557 C1553 0.930 . S
H1558 C1555 0.929 . S
S1559 N1560 1.613 . S
S1559 N1561 1.610 . S
N1560 S1559 1.613 . S
N1560 C1563 1.350 . S
N1561 S1559 1.610 . S
N1561 C1562 1.351 . S
C1562 C1556 1.428 . S
C1562 N1561 1.351 . S
C1562 C1563 1.434 . S
C1563 C1554 1.429 . S
C1563 N1560 1.350 . S
C1563 C1562 1.434 . S
C1564 C1565 1.369 . S
C1564 C1566 1.419 1_556 S
C1564 H1568 0.930 . S
C1565 C1564 1.369 . S
C1565 C1574 1.429 . S
C1566 C1564 1.419 1_554 S
C1566 C1567 1.363 . S
C1566 H1569 0.929 . S
C1567 C1566 1.363 . S
C1567 C1573 1.428 . S
H1568 C1564 0.930 . S
H1569 C1566 0.929 . S
S1570 N1571 1.612 . S
S1570 N1572 1.611 1_556 S
N1571 S1570 1.612 . S
N1571 C1574 1.350 . S
N1572 S1570 1.611 1_554 S
N1572 C1573 1.351 . S
C1573 C1567 1.428 . S
C1573 N1572 1.351 . S
C1573 C1574 1.434 1_554 S
C1574 C1565 1.429 . S
C1574 N1571 1.350 . S
C1574 C1573 1.434 1_556 S
C1575 C1576 1.368 1_455 S
C1575 C1577 1.419 . S
C1575 H1579 0.930 . S
C1576 C1575 1.368 1_655 S
C1576 C1585 1.430 . S
C1577 C1575 1.419 . S
C1577 C1578 1.363 1_455 S
C1577 H1580 0.929 . S
C1578 C1577 1.363 1_655 S
C1578 C1584 1.428 . S
H1579 C1575 0.930 . S
H1580 C1577 0.929 . S
S1581 N1582 1.613 . S
S1581 N1583 1.610 . S
N1582 S1581 1.613 . S
N1582 C1585 1.350 . S
N1583 S1581 1.610 . S
N1583 C1584 1.351 . S
C1584 C1578 1.428 . S
C1584 N1583 1.351 . S
C1584 C1585 1.434 . S
C1585 C1576 1.430 . S
C1585 N1582 1.350 . S
C1585 C1584 1.434 . S
C1586 C1587 1.369 . S
C1586 C1588 1.419 . S
C1586 H1590 0.930 . S
C1587 C1586 1.369 . S
C1587 C1596 1.429 . S
C1588 C1586 1.419 . S
C1588 C1589 1.363 . S
C1588 H1591 0.929 . S
C1589 C1588 1.363 . S
C1589 C1595 1.428 . S
H1590 C1586 0.930 . S
H1591 C1588 0.929 . S
S1592 N1593 1.613 . S
S1592 N1594 1.610 . S
N1593 S1592 1.613 . S
N1593 C1596 1.350 . S
N1594 S1592 1.610 . S
N1594 C1595 1.351 . S
C1595 C1589 1.428 . S
C1595 N1594 1.351 . S
C1595 C1596 1.434 . S
C1596 C1587 1.429 . S
C1596 N1593 1.350 . S
C1596 C1595 1.434 . S
C1597 C1598 1.344 1_445 S
C1597 C1599 1.419 . S
C1597 H1601 0.930 . S
C1598 C1597 1.344 1_665 S
C1598 C1607 1.454 . S
C1599 C1597 1.419 . S
C1599 C1600 1.364 . S
C1599 H1602 0.929 . S
C1600 C1599 1.364 . S
C1600 C1606 1.427 1_445 S
H1601 C1597 0.930 . S
H1602 C1599 0.929 . S
S1603 N1604 1.613 . S
S1603 N1605 1.610 . S
N1604 S1603 1.613 . S
N1604 C1607 1.350 . S
N1605 S1603 1.610 . S
N1605 C1606 1.351 . S
C1606 C1600 1.427 1_665 S
C1606 N1605 1.351 . S
C1606 C1607 1.434 . S
C1607 C1598 1.454 . S
C1607 N1604 1.350 . S
C1607 C1606 1.434 . S
C1608 C1609 1.369 . S
C1608 C1610 1.419 . S
C1608 H1612 0.930 . S
C1609 C1608 1.369 . S
C1609 C1618 1.429 . S
C1610 C1608 1.419 . S
C1610 C1611 1.363 . S
C1610 H1613 0.929 . S
C1611 C1610 1.363 . S
C1611 C1617 1.428 . S
H1612 C1608 0.930 . S
H1613 C1610 0.929 . S
S1614 N1615 1.613 . S
S1614 N1616 1.610 . S
N1615 S1614 1.613 . S
N1615 C1618 1.350 . S
N1616 S1614 1.610 . S
N1616 C1617 1.351 . S
C1617 C1611 1.428 . S
C1617 N1616 1.351 . S
C1617 C1618 1.434 . S
C1618 C1609 1.429 . S
C1618 N1615 1.350 . S
C1618 C1617 1.434 . S
C1619 C1620 1.353 1_565 S
C1619 C1621 1.419 . S
C1619 H1623 0.930 . S
C1620 C1619 1.353 1_545 S
C1620 C1629 1.446 . S
C1621 C1619 1.419 . S
C1621 C1622 1.364 . S
C1621 H1624 0.929 . S
C1622 C1621 1.364 . S
C1622 C1628 1.428 1_565 S
H1623 C1619 0.930 . S
H1624 C1621 0.929 . S
S1625 N1626 1.613 . S
S1625 N1627 1.610 . S
N1626 S1625 1.613 . S
N1626 C1629 1.350 . S
N1627 S1625 1.610 . S
N1627 C1628 1.351 . S
C1628 C1622 1.428 1_545 S
C1628 N1627 1.351 . S
C1628 C1629 1.434 . S
C1629 C1620 1.446 . S
C1629 N1626 1.350 . S
C1629 C1628 1.434 . S
C1630 C1631 1.369 . S
C1630 C1632 1.419 . S
C1630 H1634 0.930 . S
C1631 C1630 1.369 . S
C1631 C1640 1.429 . S
C1632 C1630 1.419 . S
C1632 C1633 1.363 . S
C1632 H1635 0.929 . S
C1633 C1632 1.363 . S
C1633 C1639 1.428 . S
H1634 C1630 0.930 . S
H1635 C1632 0.929 . S
S1636 N1637 1.613 . S
S1636 N1638 1.610 . S
N1637 S1636 1.613 . S
N1637 C1640 1.350 . S
N1638 S1636 1.610 . S
N1638 C1639 1.351 . S
C1639 C1633 1.428 . S
C1639 N1638 1.351 . S
C1639 C1640 1.434 . S
C1640 C1631 1.429 . S
C1640 N1637 1.350 . S
C1640 C1639 1.434 . S
C1641 C1642 1.345 1_545 S
C1641 C1643 1.419 . S
C1641 H1645 0.930 . S
C1642 C1641 1.345 1_565 S
C1642 C1651 1.453 . S
C1643 C1641 1.419 . S
C1643 C1644 1.363 . S
C1643 H1646 0.929 . S
C1644 C1643 1.363 . S
C1644 C1650 1.429 1_545 S
H1645 C1641 0.930 . S
H1646 C1643 0.929 . S
S1647 N1648 1.613 . S
S1647 N1649 1.610 . S
N1648 S1647 1.613 . S
N1648 C1651 1.350 . S
N1649 S1647 1.610 . S
N1649 C1650 1.351 . S
C1650 C1644 1.429 1_565 S
C1650 N1649 1.351 . S
C1650 C1651 1.434 . S
C1651 C1642 1.453 . S
C1651 N1648 1.350 . S
C1651 C1650 1.434 . S
C1652 C1653 1.369 . S
C1652 C1654 1.419 . S
C1652 H1656 0.930 . S
C1653 C1652 1.369 . S
C1653 C1662 1.429 . S
C1654 C1652 1.419 . S
C1654 C1655 1.363 . S
C1654 H1657 0.929 . S
C1655 C1654 1.363 . S
C1655 C1661 1.428 . S
H1656 C1652 0.930 . S
H1657 C1654 0.929 . S
S1658 N1659 1.613 . S
S1658 N1660 1.610 . S
N1659 S1658 1.613 . S
N1659 C1662 1.350 . S
N1660 S1658 1.610 . S
N1660 C1661 1.351 . S
C1661 C1655 1.428 . S
C1661 N1660 1.351 . S
C1661 C1662 1.434 . S
C1662 C1653 1.429 . S
C1662 N1659 1.350 . S
C1662 C1661 1.434 . S
C1663 C1664 1.369 . S
C1663 C1665 1.419 . S
C1663 H1667 0.930 . S
C1664 C1663 1.369 . S
C1664 C1673 1.429 . S
C1665 C1663 1.419 . S
C1665 C1666 1.363 . S
C1665 H1668 0.929 . S
C1666 C1665 1.363 . S
C1666 C1672 1.428 . S
H1667 C1663 0.930 . S
H1668 C1665 0.929 . S
S1669 N1670 1.613 . S
S1669 N1671 1.610 . S
N1670 S1669 1.613 . S
N1670 C1673 1.350 . S
N1671 S1669 1.610 . S
N1671 C1672 1.351 . S
C1672 C1666 1.428 . S
C1672 N1671 1.351 . S
C1672 C1673 1.434 . S
C1673 C1664 1.429 . S
C1673 N1670 1.350 . S
C1673 C1672 1.434 . S
C1674 C1675 1.369 . S
C1674 C1676 1.419 . S
C1674 H1678 0.930 . S
C1675 C1674 1.369 . S
C1675 C1684 1.429 . S
C1676 C1674 1.419 . S
C1676 C1677 1.363 . S
C1676 H1679 0.929 . S
C1677 C1676 1.363 . S
C1677 C1683 1.428 . S
H1678 C1674 0.930 . S
H1679 C1676 0.929 . S
S1680 N1681 1.613 . S
S1680 N1682 1.610 . S
N1681 S1680 1.613 . S
N1681 C1684 1.350 . S
N1682 S1680 1.610 . S
N1682 C1683 1.351 . S
C1683 C1677 1.428 . S
C1683 N1682 1.351 . S
C1683 C1684 1.434 . S
C1684 C1675 1.429 . S
C1684 N1681 1.350 . S
C1684 C1683 1.434 . S
C1685 C1686 1.368 . S
C1685 C1687 1.419 1_554 S
C1685 H1689 0.930 . S
C1686 C1685 1.368 . S
C1686 C1695 1.430 1_565 S
C1687 C1685 1.419 1_556 S
C1687 C1688 1.344 1_565 S
C1687 H1690 0.929 . S
C1688 C1687 1.344 1_545 S
C1688 C1694 1.448 . S
H1689 C1685 0.930 . S
H1690 C1687 0.929 . S
S1691 N1692 1.632 . S
S1691 N1693 1.591 1_554 S
N1692 S1691 1.632 . S
N1692 C1695 1.350 . S
N1693 S1691 1.591 1_556 S
N1693 C1694 1.351 . S
C1694 C1688 1.448 . S
C1694 N1693 1.351 . S
C1694 C1695 1.434 1_556 S
C1695 C1686 1.430 1_545 S
C1695 N1692 1.350 . S
C1695 C1694 1.434 1_554 S
C641 C4 1.433 . S
C643 C504 1.431 . S
C652 C484 1.430 . S
C654 C24 1.430 . S
C663 C544 1.425 . S
C665 C44 1.434 . S
C674 C64 1.436 . S
C676 C524 1.427 . S
C685 C82 1.429 . S
C687 C582 1.430 . S
C696 C102 1.426 . S
C698 C562 1.435 . S
C707 C122 1.430 . S
C709 C622 1.429 . S
C718 C602 1.436 . S
C720 C142 1.427 . S
C729 C164 1.436 . S
C731 C344 1.428 . S
C740 C184 1.427 . S
C742 C324 1.435 . S
C751 C204 1.436 . S
C753 C384 1.428 . S
C762 C364 1.430 . S
C764 C224 1.430 . S
C773 C242 1.434 . S
C775 C422 1.427 . S
C784 C262 1.435 . S
C786 C402 1.431 . S
C795 C462 1.433 . S
C797 C282 1.427 . S
C806 C302 1.432 . S
C808 C442 1.428 . S
C817 C18 1.528 . S
C819 C78 1.530 . S
C828 C38 1.533 . S
C830 C58 1.531 . S
C839 C159 1.532 . S
C841 C99 1.532 . S
C850 C139 1.528 . S
C852 C119 1.528 . S
C861 C178 1.528 . S
C863 C238 1.529 . S
C872 C198 1.532 . S
C874 C218 1.532 . S
C883 C259 1.528 . S
C885 C319 1.529 . S
C894 C299 1.530 . S
C896 C279 1.529 . S
C905 C338 1.527 . S
C907 C398 1.528 . S
C916 C358 1.528 . S
C918 C378 1.528 . S
C927 C479 1.531 . S
C929 C419 1.530 . S
C938 C439 1.528 . S
C940 C459 1.529 . S
C949 C558 1.531 . S
C951 C498 1.532 . S
C960 C518 1.532 . S
C962 C538 1.530 . S
C971 C639 1.528 . S
C973 C579 1.528 . S
C982 C619 1.528 . S
C984 C599 1.528 . S
C993 C22 1.653 . S
C995 C2 1.654 . S
C1004 C42 1.656 . S
C1006 C62 1.653 . S
C1015 C104 1.654 . S
C1017 C84 1.653 . S
C1026 C144 1.655 . S
C1028 C124 1.654 . S
C1037 C162 1.655 . S
C1039 C182 1.656 . S
C1048 C202 1.655 . S
C1050 C222 1.656 . S
C1059 C264 1.654 . S
C1061 C244 1.656 . S
C1070 C284 1.653 . S
C1072 C304 1.655 . S
C1081 C322 1.653 . S
C1083 C342 1.656 . S
C1092 C382 1.653 . S
C1094 C362 1.656 . S
C1103 C404 1.653 . S
C1105 C424 1.655 . S
C1114 C444 1.657 . S
C1116 C464 1.655 . S
C1125 C482 1.656 . S
C1127 C502 1.654 . S
C1136 C522 1.656 . S
C1138 C542 1.654 . S
C1147 C584 1.654 . S
C1149 C564 1.653 . S
C1158 C604 1.655 . S
C1160 C624 1.656 . S
C1169 C12 1.652 . S
C1171 C9 1.655 . S
C1180 C32 1.652 . S
C1182 C29 1.655 . S
C1191 C52 1.654 . S
C1193 C49 1.653 . S
C1202 C69 1.655 . S
C1204 C72 1.652 . S
C1213 C92 1.652 . S
C1215 C89 1.655 . S
C1224 C109 1.655 . S
C1226 C112 1.652 . S
C1235 C132 1.652 . S
C1237 C129 1.655 . S
C1246 C152 1.654 . S
C1248 C149 1.653 . S
C1257 C169 1.653 . S
C1259 C172 1.654 . S
C1268 C192 1.655 . S
C1270 C189 1.652 . S
C1279 C212 1.652 . S
C1281 C209 1.655 . S
C1290 C229 1.655 . S
C1292 C232 1.652 . S
C1301 C252 1.656 . S
C1303 C249 1.652 . S
C1312 C269 1.655 . S
C1314 C272 1.653 . S
C1323 C289 1.655 . S
C1325 C292 1.653 . S
C1334 C312 1.652 . S
C1336 C309 1.655 . S
C1345 C332 1.653 . S
C1347 C329 1.654 . S
C1356 C349 1.654 . S
C1358 C352 1.653 . S
C1367 C369 1.652 . S
C1369 C372 1.655 . S
C1378 C392 1.655 . S
C1380 C389 1.653 . S
C1389 C409 1.652 . S
C1391 C412 1.655 . S
C1400 C429 1.653 . S
C1402 C432 1.654 . S
C1411 C452 1.655 . S
C1413 C449 1.653 . S
C1422 C469 1.652 . S
C1424 C472 1.655 . S
C1433 C489 1.655 . S
C1435 C492 1.652 . S
C1444 C512 1.653 . S
C1446 C509 1.654 . S
C1455 C529 1.654 . S
C1457 C532 1.653 . S
C1466 C549 1.652 . S
C1468 C552 1.655 . S
C1477 C569 1.654 . S
C1479 C572 1.653 . S
C1488 C589 1.655 . S
C1490 C592 1.652 . S
C1499 C612 1.653 . S
C1501 C609 1.654 . S
C1510 C632 1.655 . S
C1512 C629 1.652 . S
C1521 C19 1.502 . S
C1523 C98 1.507 1_455 S
C1532 C598 1.503 . S
C1534 C39 1.506 . S
C1543 C298 1.506 1_455 S
C1545 C59 1.502 1_655 S
C1554 C79 1.502 . S
C1556 C478 1.507 . S
C1565 C118 1.504 . S
C1567 C519 1.505 . S
C1576 C138 1.505 . S
C1578 C219 1.505 1_655 S
C1587 C158 1.505 . S
C1589 C399 1.505 . S
C1598 C179 1.502 1_665 S
C1600 C258 1.502 1_445 S
C1609 C438 1.507 . S
C1611 C199 1.503 . S
C1620 C638 1.502 1_545 S
C1622 C239 1.504 1_565 S
C1631 C278 1.507 . S
C1633 C359 1.503 . S
C1642 C559 1.503 1_565 S
C1644 C318 1.503 1_545 S
C1653 C339 1.507 . S
C1655 C418 1.503 . S
C1664 C618 1.506 . S
C1666 C379 1.504 . S
C1675 C458 1.507 . S
C1677 C539 1.503 . S
C1686 C499 1.504 1_565 S
C1688 C578 1.502 1_545 S
