# Generated by pormake.
# Topology uou, (4)-cn, num edge types: 1
# Building blocks:
#     Node 0, Type 0, BuildingBlock: UXUYUI_clean_sbu_0, # of connection points: 4
#     Node 1, Type 0, BuildingBlock: UXUYUI_clean_sbu_0, # of connection points: 4
#     Node 2, Type 0, BuildingBlock: UXUYUI_clean_sbu_0, # of connection points: 4
#     Node 3, Type 0, BuildingBlock: UXUYUI_clean_sbu_0, # of connection points: 4
#     Node 4, Type 0, BuildingBlock: UXUYUI_clean_sbu_0, # of connection points: 4
#     Node 5, Type 0, BuildingBlock: UXUYUI_clean_sbu_0, # of connection points: 4
#     Node 6, Type 0, BuildingBlock: UXUYUI_clean_sbu_0, # of connection points: 4
#     Node 7, Type 0, BuildingBlock: UXUYUI_clean_sbu_0, # of connection points: 4
#     Node 8, Type 0, BuildingBlock: UXUYUI_clean_sbu_0, # of connection points: 4
#     Node 9, Type 0, BuildingBlock: UXUYUI_clean_sbu_0, # of connection points: 4
#     Node 10, Type 0, BuildingBlock: UXUYUI_clean_sbu_0, # of connection points: 4
#     Node 11, Type 0, BuildingBlock: UXUYUI_clean_sbu_0, # of connection points: 4
#     Node 12, Type 0, BuildingBlock: UXUYUI_clean_sbu_0, # of connection points: 4
#     Node 13, Type 0, BuildingBlock: UXUYUI_clean_sbu_0, # of connection points: 4
#     Node 14, Type 0, BuildingBlock: UXUYUI_clean_sbu_0, # of connection points: 4
#     Node 15, Type 0, BuildingBlock: UXUYUI_clean_sbu_0, # of connection points: 4
#     Edge 16, Type (0, 0), BuildingBlock: EZIPEK_clean_linker_0, # of connection points: 2
#     Edge 17, Type (0, 0), BuildingBlock: EZIPEK_clean_linker_0, # of connection points: 2
#     Edge 18, Type (0, 0), BuildingBlock: EZIPEK_clean_linker_0, # of connection points: 2
#     Edge 19, Type (0, 0), BuildingBlock: EZIPEK_clean_linker_0, # of connection points: 2
#     Edge 20, Type (0, 0), BuildingBlock: EZIPEK_clean_linker_0, # of connection points: 2
#     Edge 21, Type (0, 0), BuildingBlock: EZIPEK_clean_linker_0, # of connection points: 2
#     Edge 22, Type (0, 0), BuildingBlock: EZIPEK_clean_linker_0, # of connection points: 2
#     Edge 23, Type (0, 0), BuildingBlock: EZIPEK_clean_linker_0, # of connection points: 2
#     Edge 24, Type (0, 0), BuildingBlock: EZIPEK_clean_linker_0, # of connection points: 2
#     Edge 25, Type (0, 0), BuildingBlock: EZIPEK_clean_linker_0, # of connection points: 2
#     Edge 26, Type (0, 0), BuildingBlock: EZIPEK_clean_linker_0, # of connection points: 2
#     Edge 27, Type (0, 0), BuildingBlock: EZIPEK_clean_linker_0, # of connection points: 2
#     Edge 28, Type (0, 0), BuildingBlock: EZIPEK_clean_linker_0, # of connection points: 2
#     Edge 29, Type (0, 0), BuildingBlock: EZIPEK_clean_linker_0, # of connection points: 2
#     Edge 30, Type (0, 0), BuildingBlock: EZIPEK_clean_linker_0, # of connection points: 2
#     Edge 31, Type (0, 0), BuildingBlock: EZIPEK_clean_linker_0, # of connection points: 2
#     Edge 32, Type (0, 0), BuildingBlock: EZIPEK_clean_linker_0, # of connection points: 2
#     Edge 33, Type (0, 0), BuildingBlock: EZIPEK_clean_linker_0, # of connection points: 2
#     Edge 34, Type (0, 0), BuildingBlock: EZIPEK_clean_linker_0, # of connection points: 2
#     Edge 35, Type (0, 0), BuildingBlock: EZIPEK_clean_linker_0, # of connection points: 2
#     Edge 36, Type (0, 0), BuildingBlock: EZIPEK_clean_linker_0, # of connection points: 2
#     Edge 37, Type (0, 0), BuildingBlock: EZIPEK_clean_linker_0, # of connection points: 2
#     Edge 38, Type (0, 0), BuildingBlock: EZIPEK_clean_linker_0, # of connection points: 2
#     Edge 39, Type (0, 0), BuildingBlock: EZIPEK_clean_linker_0, # of connection points: 2
#     Edge 40, Type (0, 0), BuildingBlock: EZIPEK_clean_linker_0, # of connection points: 2
#     Edge 41, Type (0, 0), BuildingBlock: EZIPEK_clean_linker_0, # of connection points: 2
#     Edge 42, Type (0, 0), BuildingBlock: EZIPEK_clean_linker_0, # of connection points: 2
#     Edge 43, Type (0, 0), BuildingBlock: EZIPEK_clean_linker_0, # of connection points: 2
#     Edge 44, Type (0, 0), BuildingBlock: EZIPEK_clean_linker_0, # of connection points: 2
#     Edge 45, Type (0, 0), BuildingBlock: EZIPEK_clean_linker_0, # of connection points: 2
#     Edge 46, Type (0, 0), BuildingBlock: EZIPEK_clean_linker_0, # of connection points: 2
#     Edge 47, Type (0, 0), BuildingBlock: EZIPEK_clean_linker_0, # of connection points: 2
# Relax obj value: 0.194
# Max RMSD: 0.198
# Mean RMSD: 0.197
data_MOF--net-uou--node1-UXUYUI_clean_sbu_0--edge1-EZIPEK_clean_linker_0
_symmetry_space_group_name_H-M    P1
_symmetry_Int_Tables_number       1
_symmetry_cell_setting            triclinic
loop_
_symmetry_equiv_pos_as_xyz
'x, y, z'
_cell_length_a     46.808738
_cell_length_b     45.437803
_cell_length_c     63.822148
_cell_angle_alpha  89.998998
_cell_angle_beta   89.999001
_cell_angle_gamma 89.997872
loop_
_atom_site_label
_atom_site_type_symbol
_atom_site_fract_x
_atom_site_fract_y
_atom_site_fract_z
_atom_type_partial_charge
Li0 Li 0.05549 0.05199 0.10377 0.0
Li1 Li 0.10116 0.05909 0.12185 0.0
Li2 Li 0.05718 0.05501 0.14173 0.0
Li3 Li 0.06526 0.09914 0.12156 0.0
C4 C 0.06064 0.99862 0.12554 0.0
N5 N 0.03146 0.94613 0.12989 0.0
C6 C 0.07546 0.97278 0.13028 0.0
C7 C 0.03098 0.9978 0.12303 0.0
C8 C 0.06032 0.94644 0.13241 0.0
C9 C 0.01662 0.97104 0.12529 0.0
C10 C 0.09745 0.08873 0.07916 0.0
C11 C 0.11722 0.12523 0.05585 0.0
N12 N 0.12072 0.10418 0.04091 0.0
C13 C 0.10126 0.06747 0.06358 0.0
C14 C 0.10545 0.11786 0.07527 0.0
C15 C 0.11305 0.07572 0.04435 0.0
C16 C 0.02051 0.05438 0.06847 0.0
N17 N 0.03871 0.03649 0.07911 0.0
C18 C 0.03636 1.00028 0.05203 0.0
C19 C 0.04659 0.00976 0.07144 0.0
C20 C 0.01802 0.01861 0.04057 0.0
C21 C 0.00977 0.04578 0.04901 0.0
H22 H 0.01501 0.07569 0.07488 0.0
H23 H 0.06158 0.99627 0.08004 0.0
C24 C 0.15405 0.04439 0.14025 0.0
N25 N 0.14039 0.04758 0.12157 0.0
C26 C 0.1816 0.03255 0.141 0.0
C27 C 0.18061 0.02772 0.10328 0.0
C28 C 0.1531 0.03965 0.10325 0.0
C29 C 0.19492 0.02377 0.12235 0.0
H30 H 0.14321 0.05022 0.15463 0.0
H31 H 0.14158 0.04164 0.08869 0.0
C32 C 0.00912 0.09008 0.13288 0.0
N33 N 0.96749 0.12216 0.15339 0.0
C34 C 0.01506 0.10322 0.15221 0.0
C35 C 0.98205 0.09333 0.12396 0.0
C36 C 0.99371 0.11929 0.16234 0.0
C37 C 0.96128 0.10963 0.13457 0.0
C38 C 0.10872 0.10463 0.15097 0.0
C39 C 0.11184 0.11377 0.17175 0.0
C40 C 0.12652 0.11637 0.1355 0.0
C41 C 0.13273 0.13459 0.17671 0.0
C42 C 0.14717 0.13712 0.14109 0.0
N43 N 0.14982 0.14574 0.16141 0.0
C44 C 0.05963 0.04277 0.18438 0.0
C45 C 0.01399 0.03349 0.16959 0.0
C46 C 0.04915 0.03739 0.20447 0.0
N47 N 0.0419 0.04135 0.16755 0.0
C48 C 0.00262 0.0278 0.18943 0.0
C49 C 0.02022 0.03048 0.20712 0.0
H50 H 0.08169 0.04921 0.18224 0.0
H51 H 1.00028 0.03287 0.15596 0.0
C52 C 0.04324 0.14872 0.1016 0.0
N53 N 0.05611 0.1399 0.11964 0.0
C54 C 0.03087 0.17662 0.10022 0.0
C55 C 0.04565 0.18606 0.13591 0.0
C56 C 0.05785 0.158 0.13658 0.0
C57 C 0.03154 0.19531 0.11769 0.0
H58 H 0.04149 0.13354 0.08861 0.0
H59 H 0.0673 0.15015 0.15097 0.0
O60 O 0.07524 0.02455 0.12353 0.0
O61 O 0.08531 0.08134 0.09795 0.0
O62 O 0.02981 0.07471 0.12239 0.0
O63 O 0.08817 0.08441 0.14596 0.0
H64 H 0.09842 0.97309 0.1323 0.0
H65 H 0.01913 0.01757 0.11937 0.0
H66 H 0.07151 0.92626 0.13607 0.0
H67 H 0.99368 0.97009 0.12339 0.0
H68 H 0.12353 0.14768 0.05264 0.0
H69 H 0.09546 0.04479 0.06636 0.0
H70 H 0.10261 0.13463 0.08713 0.0
H71 H 0.11613 0.05947 0.03216 0.0
H72 H 0.04316 0.97926 0.04578 0.0
H73 H 0.99571 0.06036 0.04042 0.0
H74 H 0.19212 0.02959 0.15597 0.0
H75 H 0.19035 0.02094 0.08866 0.0
H76 H 0.03597 0.10122 0.15927 0.0
H77 H 0.97719 0.08345 0.10894 0.0
H78 H 0.99802 0.12957 0.17731 0.0
H79 H 0.94025 0.11238 0.12784 0.0
H80 H 0.09816 0.10495 0.1839 0.0
H81 H 0.12457 0.10949 0.11938 0.0
H82 H 0.13535 0.14191 0.19273 0.0
H83 H 0.16111 0.14636 0.12928 0.0
H84 H 0.06317 0.03969 0.21788 0.0
H85 H 0.98014 0.02264 0.19108 0.0
H86 H 0.01996 0.18315 0.086 0.0
H87 H 0.04627 0.19997 0.14969 0.0
Li88 Li 0.44047 0.8969 0.11652 0.0
Li89 Li 0.44676 0.9403 0.1386 0.0
Li90 Li 0.40033 0.93574 0.12055 0.0
Li91 Li 0.44377 0.94556 0.10111 0.0
C92 C 0.41906 0.89971 0.16204 0.0
N93 N 0.4216 0.88156 0.20328 0.0
C94 C 0.44099 0.88104 0.16867 0.0
C95 C 0.39855 0.90934 0.17639 0.0
C96 C 0.44185 0.87203 0.18958 0.0
C97 C 0.40023 0.89996 0.19719 0.0
C98 C 0.49883 0.93869 0.11747 0.0
C99 C 0.52561 0.98402 0.11852 0.0
N100 N 0.55035 0.96837 0.11772 0.0
C101 C 0.52451 0.92306 0.11665 0.0
C102 C 0.49935 0.96942 0.11841 0.0
C103 C 0.55034 0.93846 0.1168 0.0
C104 C 0.47638 0.85219 0.10326 0.0
N105 N 0.45156 0.85691 0.1138 0.0
C106 C 0.44905 0.80617 0.12353 0.0
C107 C 0.43754 0.8346 0.12361 0.0
C108 C 0.47512 0.80102 0.1133 0.0
C109 C 0.48862 0.82421 0.10279 0.0
H110 H 0.48709 0.87042 0.09571 0.0
H111 H 0.41803 0.83911 0.13212 0.0
C112 C 0.44661 0.9692 0.17768 0.0
N113 N 0.46273 0.95224 0.1647 0.0
C114 C 0.45572 0.97477 0.19816 0.0
C115 C 0.49838 0.94638 0.19115 0.0
C116 C 0.48829 0.94102 0.17094 0.0
C117 C 0.4817 0.9629 0.20511 0.0
H118 H 0.4261 0.9773 0.1724 0.0
H119 H 0.50027 0.92687 0.16056 0.0
C120 C 0.4128 0.91435 0.07372 0.0
N121 N 0.40972 0.914 0.0305 0.0
C122 C 0.39606 0.93515 0.06326 0.0
C123 C 0.42787 0.89328 0.06221 0.0
C124 C 0.39481 0.93463 0.0414 0.0
C125 C 0.42611 0.89353 0.04036 0.0
C126 C 0.41722 0.99863 0.11998 0.0
C127 C 0.39418 0.00526 0.10686 0.0
C128 C 0.43122 0.02131 0.13062 0.0
C129 C 0.38571 0.03454 0.10444 0.0
C130 C 0.42214 0.05033 0.12777 0.0
N131 N 0.39976 0.05628 0.11485 0.0
C132 C 0.35324 0.96335 0.13864 0.0
C133 C 0.34178 0.93601 0.10808 0.0
C134 C 0.32564 0.97493 0.13944 0.0
N135 N 0.36083 0.94468 0.12294 0.0
C136 C 0.31389 0.94707 0.1083 0.0
C137 C 0.30587 0.96717 0.12391 0.0
H138 H 0.36905 0.97027 0.14998 0.0
H139 H 0.34855 0.92145 0.09563 0.0
C140 C 0.4774 0.94659 0.0653 0.0
N141 N 0.45897 0.96371 0.0764 0.0
C142 C 0.48787 0.95606 0.04598 0.0
C143 C 0.46111 0.0012 0.05014 0.0
C144 C 0.451 0.99076 0.06936 0.0
C145 C 0.47943 0.98351 0.0382 0.0
H146 H 0.48333 0.92514 0.07124 0.0
H147 H 0.43641 0.00405 0.07833 0.0
O148 O 0.41745 0.90819 0.14153 0.0
O149 O 0.4734 0.92382 0.1173 0.0
O150 O 0.41421 0.91436 0.09512 0.0
O151 O 0.42548 0.97007 0.12306 0.0
H152 H 0.45722 0.87366 0.1578 0.0
H153 H 0.38145 0.92381 0.17148 0.0
H154 H 0.45867 0.85755 0.19494 0.0
H155 H 0.3845 0.90721 0.20848 0.0
H156 H 0.52631 0.0078 0.11922 0.0
H157 H 0.5245 0.89926 0.11597 0.0
H158 H 0.47976 0.98191 0.11896 0.0
H159 H 0.57039 0.92664 0.1162 0.0
H160 H 0.43826 0.78861 0.13184 0.0
H161 H 0.50878 0.82083 0.09481 0.0
H162 H 0.44226 0.98733 0.20868 0.0
H163 H 0.51836 0.93663 0.19619 0.0
H164 H 0.38419 0.95153 0.07191 0.0
H165 H 0.44084 0.87697 0.07006 0.0
H166 H 0.38201 0.95065 0.03309 0.0
H167 H 0.43775 0.87743 0.03125 0.0
H168 H 0.38304 0.98805 0.09853 0.0
H169 H 0.44889 0.01654 0.14103 0.0
H170 H 0.36798 0.03998 0.09429 0.0
H171 H 0.43283 0.0681 0.13587 0.0
H172 H 0.32004 0.99051 0.15161 0.0
H173 H 0.29903 0.94082 0.09607 0.0
H174 H 0.50199 0.94196 0.03704 0.0
H175 H 0.45425 0.0225 0.04443 0.0
Li176 Li 0.59889 0.94251 0.37848 0.0
Li177 Li 0.55483 0.95138 0.39658 0.0
Li178 Li 0.56073 0.90582 0.37951 0.0
Li179 Li 0.55246 0.95043 0.35844 0.0
C180 C 0.60044 0.92839 0.41999 0.0
N181 N 0.63363 0.94428 0.45397 0.0
C182 C 0.6073 0.95792 0.42344 0.0
C183 C 0.61046 0.90693 0.43384 0.0
C184 C 0.6241 0.96553 0.44069 0.0
C185 C 0.62721 0.9154 0.45093 0.0
C186 C 0.56681 0.00724 0.37809 0.0
C187 C 0.534 0.04712 0.37146 0.0
N188 N 0.55229 0.06605 0.38107 0.0
C189 C 0.58542 0.02716 0.38771 0.0
C190 C 0.541 0.01733 0.36974 0.0
C191 C 0.57763 0.05677 0.38915 0.0
C192 C 0.64525 0.97793 0.36833 0.0
N193 N 0.6385 0.95189 0.37759 0.0
C194 C 0.68725 0.9443 0.38742 0.0
C195 C 0.65879 0.93485 0.38685 0.0
C196 C 0.69453 0.97145 0.3784 0.0
C197 C 0.67331 0.98824 0.36861 0.0
H198 H 0.62866 0.99099 0.36108 0.0
H199 H 0.65279 0.91429 0.39417 0.0
C200 C 0.5371 0.94775 0.4381 0.0
N201 N 0.53896 0.96739 0.42204 0.0
C202 C 0.5267 0.95643 0.4576 0.0
C203 C 0.51949 0.00537 0.44374 0.0
C204 C 0.53011 0.99573 0.42446 0.0
C205 C 0.51796 0.98557 0.46052 0.0
H206 H 0.54375 0.9252 0.43574 0.0
H207 H 0.53116 0.01095 0.41158 0.0
C208 C 0.58779 0.89431 0.34438 0.0
N209 N 0.5962 0.84096 0.32462 0.0
C210 C 0.57155 0.88689 0.32679 0.0
C211 C 0.60845 0.87476 0.35186 0.0
C212 C 0.57611 0.85978 0.31703 0.0
C213 C 0.61233 0.84784 0.34167 0.0
C214 C 0.50282 0.93225 0.39066 0.0
C215 C 0.4968 0.9095 0.40474 0.0
C216 C 0.4849 0.95682 0.38979 0.0
C217 C 0.47305 0.91188 0.41789 0.0
C218 C 0.46139 0.95839 0.40324 0.0
N219 N 0.45602 0.93609 0.4169 0.0
C220 C 0.55981 0.84618 0.39445 0.0
C221 C 0.53017 0.85732 0.36534 0.0
C222 C 0.54864 0.81763 0.39541 0.0
N223 N 0.55024 0.86534 0.37965 0.0
C224 C 0.5187 0.82901 0.36559 0.0
C225 C 0.52766 0.80904 0.38095 0.0
H226 H 0.57541 0.85335 0.40585 0.0
H227 H 0.52251 0.87327 0.35408 0.0
C228 C 0.55615 0.97036 0.3171 0.0
N229 N 0.53735 0.96282 0.33242 0.0
C230 C 0.54671 0.97401 0.29651 0.0
C231 C 0.49856 0.96353 0.30815 0.0
C232 C 0.50895 0.95987 0.32849 0.0
C233 C 0.51773 0.96984 0.29186 0.0
H234 H 0.57868 0.97194 0.3207 0.0
H235 H 0.49465 0.95323 0.34092 0.0
O236 O 0.58408 0.92029 0.40315 0.0
O237 O 0.57427 0.97823 0.37628 0.0
O238 O 0.58312 0.92036 0.3545 0.0
O239 O 0.52649 0.93075 0.37812 0.0
H240 H 0.59968 0.9748 0.41296 0.0
H241 H 0.60537 0.88395 0.4314 0.0
H242 H 0.62954 0.98832 0.44352 0.0
H243 H 0.63512 0.89901 0.46177 0.0
H244 H 0.51402 0.05517 0.36517 0.0
H245 H 0.60572 0.0199 0.39397 0.0
H246 H 0.5264 0.00234 0.36216 0.0
H247 H 0.59177 0.0724 0.39663 0.0
H248 H 0.70328 0.93092 0.3951 0.0
H249 H 0.67838 0.00925 0.3615 0.0
H250 H 0.52554 0.94064 0.47029 0.0
H251 H 0.51268 0.028 0.44559 0.0
H252 H 0.55539 0.90178 0.32087 0.0
H253 H 0.62109 0.88021 0.36553 0.0
H254 H 0.5636 0.85365 0.30346 0.0
H255 H 0.6281 0.83237 0.34735 0.0
H256 H 0.51053 0.89042 0.40575 0.0
H257 H 0.48923 0.97463 0.37902 0.0
H258 H 0.46825 0.89454 0.42895 0.0
H259 H 0.44747 0.97738 0.40286 0.0
H260 H 0.55581 0.80263 0.40751 0.0
H261 H 0.50238 0.823 0.35434 0.0
H262 H 0.562 0.97859 0.28419 0.0
H263 H 0.47611 0.95992 0.30493 0.0
Li264 Li 0.94726 0.04721 0.39889 0.0
Li265 Li 0.90285 0.05479 0.38033 0.0
Li266 Li 0.94787 0.0505 0.3599 0.0
Li267 Li 0.93691 0.09536 0.38054 0.0
C268 C 0.94175 0.99308 0.37755 0.0
N269 N 0.96748 0.93837 0.37641 0.0
C270 C 0.9258 0.96777 0.38179 0.0
C271 C 0.97069 0.99054 0.37251 0.0
C272 C 0.93923 0.94031 0.38121 0.0
C273 C 0.98333 0.96271 0.37206 0.0
C274 C 0.89388 0.07801 0.41749 0.0
C275 C 0.84885 0.09983 0.42723 0.0
N276 N 0.84513 0.07842 0.44187 0.0
C277 C 0.88977 0.05638 0.43276 0.0
C278 C 0.87342 0.10008 0.4148 0.0
C279 C 0.86493 0.05692 0.4449 0.0
C280 C 0.97884 0.05203 0.43548 0.0
N281 N 0.96427 0.03215 0.42367 0.0
C282 C 0.97066 0.99505 0.44979 0.0
C283 C 0.96004 0.00406 0.43037 0.0
C284 C 0.98537 0.0153 0.46235 0.0
C285 C 0.98972 0.044 0.45502 0.0
H286 H 0.9814 0.07434 0.42988 0.0
H287 H 0.94771 0.98891 0.421 0.0
C288 C 0.84374 0.05507 0.36814 0.0
N289 N 0.8638 0.04274 0.38082 0.0
C290 C 0.81581 0.0441 0.36799 0.0
C291 C 0.82971 0.00821 0.39406 0.0
C292 C 0.85734 0.01974 0.39362 0.0
C293 C 0.80875 0.02031 0.38099 0.0
H294 H 0.8495 0.07298 0.35785 0.0
H295 H 0.87383 0.01009 0.4033 0.0
C296 C 0.00105 0.07449 0.38061 0.0
N297 N 0.05967 0.08198 0.38169 0.0
C298 C 0.01342 0.10014 0.3726 0.0
C299 C 0.01855 0.05273 0.3893 0.0
C300 C 0.04307 0.1035 0.37325 0.0
C301 C 0.04812 0.0569 0.38966 0.0
C302 C 0.90693 0.10061 0.34323 0.0
C303 C 0.91789 0.10272 0.3229 0.0
C304 C 0.88706 0.12133 0.35024 0.0
C305 C 0.90889 0.12572 0.30996 0.0
C306 C 0.87862 0.14403 0.33683 0.0
N307 N 0.88963 0.14574 0.31714 0.0
C308 C 0.95075 0.01822 0.32211 0.0
C309 C 0.98681 0.05442 0.32643 0.0
C310 C 0.9595 0.01313 0.30147 0.0
N311 N 0.96421 0.0389 0.33395 0.0
C312 C 0.99627 0.05001 0.30596 0.0
C313 C 0.98215 0.02961 0.29318 0.0
H314 H 0.93245 0.00667 0.32838 0.0
H315 H 0.99655 0.0713 0.33593 0.0
C316 C 0.95028 0.1481 0.40119 0.0
N317 N 0.94584 0.1363 0.38187 0.0
C318 C 0.96243 0.17608 0.40321 0.0
C319 C 0.96415 0.17967 0.36543 0.0
C320 C 0.95221 0.15159 0.36413 0.0
C321 C 0.96993 0.19181 0.38514 0.0
H322 H 0.94572 0.13516 0.41502 0.0
H323 H 0.9498 0.14135 0.34898 0.0
O324 O 0.92886 0.02008 0.37812 0.0
O325 O 0.91771 0.07744 0.40512 0.0
O326 O 0.97195 0.07114 0.38052 0.0
O327 O 0.91568 0.07835 0.35614 0.0
H328 H 0.90332 0.96933 0.38559 0.0
H329 H 0.98319 0.0098 0.36879 0.0
H330 H 0.92718 0.92055 0.38456 0.0
H331 H 0.00572 0.96044 0.36821 0.0
H332 H 0.83274 0.11667 0.42523 0.0
H333 H 0.90541 0.03915 0.43505 0.0
H334 H 0.87647 0.11716 0.40322 0.0
H335 H 0.86135 0.04019 0.45667 0.0
H336 H 0.9668 0.97282 0.45522 0.0
H337 H 0.00087 0.06009 0.4645 0.0
H338 H 0.80001 0.05375 0.35768 0.0
H339 H 0.82484 0.98974 0.40418 0.0
H340 H 1.00034 0.1172 0.36578 0.0
H341 H 0.00949 0.0329 0.39587 0.0
H342 H 0.05288 0.12322 0.36705 0.0
H343 H 0.06188 0.04023 0.39634 0.0
H344 H 0.9332 0.08682 0.31718 0.0
H345 H 0.87838 0.11999 0.3659 0.0
H346 H 0.91724 0.12765 0.29421 0.0
H347 H 0.86334 0.16029 0.34208 0.0
H348 H 0.94804 0.99746 0.29183 0.0
H349 H 0.01361 0.06327 0.29985 0.0
H350 H 0.96689 0.1849 0.41863 0.0
H351 H 0.97009 0.19122 0.35123 0.0
Li352 Li 0.93735 0.90528 0.87302 0.0
Li353 Li 0.94555 0.95148 0.89361 0.0
Li354 Li 0.90023 0.94353 0.87404 0.0
Li355 Li 0.94408 0.95148 0.85564 0.0
C356 C 0.89572 0.90037 0.90463 0.0
N357 N 0.85519 0.86038 0.91801 0.0
C358 C 0.88919 0.89798 0.92592 0.0
C359 C 0.88165 0.88243 0.89013 0.0
C360 C 0.86863 0.87762 0.93238 0.0
C361 C 0.86122 0.86235 0.89721 0.0
C362 C 0.99613 0.93421 0.86304 0.0
C363 C 0.03679 0.96353 0.85294 0.0
N364 N 0.04424 0.94261 0.83871 0.0
C365 C 0.00431 0.91288 0.84846 0.0
C366 C 0.0126 0.95964 0.86545 0.0
C367 C 0.02867 0.91757 0.83626 0.0
C368 C 0.94675 0.84935 0.85448 0.0
N369 N 0.94679 0.86466 0.87279 0.0
C370 C 0.96744 0.8239 0.89097 0.0
C371 C 0.95652 0.8525 0.8909 0.0
C372 C 0.96843 0.80793 0.87219 0.0
C373 C 0.95754 0.82067 0.85383 0.0
H374 H 0.93933 0.85982 0.84027 0.0
H375 H 0.95664 0.86542 0.90514 0.0
C376 C 0.94339 0.98333 0.9311 0.0
N377 N 0.96058 0.96628 0.91896 0.0
C378 C 0.9528 0.99293 0.9507 0.0
C379 C 0.99749 0.96744 0.94477 0.0
C380 C 0.98724 0.95837 0.92526 0.0
C381 C 0.98001 0.98468 0.95772 0.0
H382 H 0.9222 0.98901 0.92566 0.0
H383 H 1.00026 0.94455 0.9153 0.0
C384 C 0.89823 0.92727 0.83228 0.0
N385 N 0.86467 0.93996 0.79783 0.0
C386 C 0.89221 0.95647 0.82705 0.0
C387 C 0.88719 0.9045 0.81999 0.0
C388 C 0.87521 0.96245 0.80958 0.0
C389 C 0.87025 0.91137 0.80264 0.0
C390 C 0.92928 0.00819 0.87323 0.0
C391 C 0.90899 0.02584 0.8632 0.0
C392 C 0.95379 0.02113 0.88172 0.0
C393 C 0.91386 0.05606 0.86142 0.0
C394 C 0.95786 0.05145 0.87964 0.0
N395 N 0.938 0.06813 0.8696 0.0
C396 C 0.85471 0.97823 0.88654 0.0
C397 C 0.8401 0.93901 0.86446 0.0
C398 C 0.82707 0.98971 0.88675 0.0
N399 N 0.86078 0.95365 0.87523 0.0
C400 C 0.81207 0.94973 0.86427 0.0
C401 C 0.80557 0.9756 0.87528 0.0
H402 H 0.87158 0.98936 0.89499 0.0
H403 H 0.84546 0.91946 0.85564 0.0
C404 C 0.96274 0.94791 0.81416 0.0
N405 N 0.96047 0.9673 0.83033 0.0
C406 C 0.97383 0.95688 0.79491 0.0
C407 C 0.98047 0.00565 0.80923 0.0
C408 C 0.96932 0.9957 0.82826 0.0
C409 C 0.98269 0.98607 0.79236 0.0
H410 H 0.95594 0.92536 0.81625 0.0
H411 H 0.9679 0.01069 0.84126 0.0
O412 O 0.91574 0.92027 0.89811 0.0
O413 O 0.97179 0.93051 0.87459 0.0
O414 O 0.91464 0.92078 0.8494 0.0
O415 O 0.92462 0.97862 0.87542 0.0
H416 H 0.8999 0.91175 0.93732 0.0
H417 H 0.8864 0.88395 0.87358 0.0
H418 H 0.86335 0.87553 0.94881 0.0
H419 H 0.85016 0.84834 0.88617 0.0
H420 H 0.04961 0.98322 0.8545 0.0
H421 H 0.99176 0.8931 0.84638 0.0
H422 H 0.00662 0.9763 0.87672 0.0
H423 H 0.03513 0.90136 0.82479 0.0
H424 H 0.9758 0.81461 0.90535 0.0
H425 H 0.95815 0.80884 0.8391 0.0
H426 H 0.93888 0.00619 0.96043 0.0
H427 H 0.01858 0.96072 0.94988 0.0
H428 H 0.90066 0.9743 0.83633 0.0
H429 H 0.89159 0.88175 0.82388 0.0
H430 H 0.87042 0.98497 0.80535 0.0
H431 H 0.86153 0.89396 0.793 0.0
H432 H 0.88959 0.01636 0.85692 0.0
H433 H 0.9696 0.00794 0.8897 0.0
H434 H 0.8984 0.06995 0.85362 0.0
H435 H 0.97681 0.06171 0.88602 0.0
H436 H 0.82261 0.00969 0.89541 0.0
H437 H 0.7958 0.93839 0.8553 0.0
H438 H 0.9754 0.94129 0.78212 0.0
H439 H 0.98728 0.02832 0.80767 0.0
Li440 Li 0.56123 0.09794 0.87226 0.0
Li441 Li 0.55234 0.05243 0.89156 0.0
Li442 Li 0.59812 0.06017 0.87176 0.0
Li443 Li 0.55394 0.05032 0.85262 0.0
C444 C 0.58852 0.10555 0.90889 0.0
N445 N 0.59864 0.15431 0.93365 0.0
C446 C 0.57342 0.10941 0.92758 0.0
C447 C 0.60906 0.12623 0.90295 0.0
C448 C 0.57877 0.13427 0.93985 0.0
C449 C 0.61378 0.15082 0.91563 0.0
C450 C 0.49819 0.06731 0.87212 0.0
C451 C 0.45705 0.03659 0.86573 0.0
N452 N 0.43987 0.0579 0.8738 0.0
C453 C 0.48005 0.08908 0.88005 0.0
C454 C 0.48654 0.04101 0.86464 0.0
C455 C 0.45067 0.08383 0.8809 0.0
C456 C 0.55598 0.15597 0.85551 0.0
N457 N 0.55095 0.13857 0.87247 0.0
C458 C 0.52409 0.17684 0.88901 0.0
C459 C 0.53554 0.1485 0.8891 0.0
C460 C 0.52829 0.19491 0.87152 0.0
C461 C 0.54475 0.1845 0.85471 0.0
H462 H 0.56782 0.14733 0.84232 0.0
H463 H 0.53114 0.13395 0.9021 0.0
C464 C 0.55094 0.01587 0.9271 0.0
N465 N 0.53655 0.03755 0.91687 0.0
C466 C 0.54158 0.00615 0.94669 0.0
C467 C 0.50281 0.04126 0.94485 0.0
C468 C 0.51293 0.05033 0.92532 0.0
C469 C 0.51739 0.01911 0.95574 0.0
H470 H 0.57002 0.00657 0.9202 0.0
H471 H 0.5025 0.06821 0.91725 0.0
C472 C 0.60503 0.08662 0.83465 0.0
N473 N 0.65206 0.09435 0.80908 0.0
C474 C 0.6092 0.06828 0.81734 0.0
C475 C 0.62451 0.10918 0.83877 0.0
C476 C 0.63317 0.07247 0.80464 0.0
C477 C 0.64824 0.11264 0.82572 0.0
C478 C 0.5675 0.99506 0.87263 0.0
C479 C 0.5884 0.97486 0.86646 0.0
C480 C 0.54058 0.98489 0.87876 0.0
C481 C 0.58179 0.94488 0.86605 0.0
C482 C 0.53481 0.95475 0.87817 0.0
N483 N 0.55534 0.93553 0.87184 0.0
C484 C 0.65545 0.05838 0.88725 0.0
C485 C 0.64665 0.03187 0.85588 0.0
C486 C 0.68348 0.0477 0.88795 0.0
N487 N 0.63768 0.05014 0.87143 0.0
C488 C 0.67445 0.02082 0.85592 0.0
C489 C 0.69299 0.02844 0.87225 0.0
H490 H 0.6476 0.07245 0.89963 0.0
H491 H 0.63187 0.02506 0.84382 0.0
C492 C 0.52166 0.05166 0.81584 0.0
N493 N 0.53922 0.03412 0.82734 0.0
C494 C 0.51269 0.04282 0.79594 0.0
C495 C 0.53955 0.99775 0.80029 0.0
C496 C 0.54813 0.00752 0.82005 0.0
C497 C 0.52205 0.01578 0.78794 0.0
H498 H 0.5153 0.07289 0.82192 0.0
H499 H 0.5627 0.99435 0.82918 0.0
O500 O 0.58336 0.08152 0.89656 0.0
O501 O 0.52701 0.0723 0.87092 0.0
O502 O 0.58188 0.08263 0.84741 0.0
O503 O 0.57373 0.02449 0.87323 0.0
H504 H 0.55761 0.0935 0.93251 0.0
H505 H 0.6212 0.12334 0.8887 0.0
H506 H 0.56711 0.13765 0.95429 0.0
H507 H 0.6295 0.1671 0.91116 0.0
H508 H 0.4478 0.01629 0.86005 0.0
H509 H 0.48855 0.10976 0.88562 0.0
H510 H 0.50001 0.02426 0.85782 0.0
H511 H 0.43644 0.10041 0.88716 0.0
H512 H 0.51127 0.18425 0.90212 0.0
H513 H 0.54818 0.198 0.84095 0.0
H514 H 0.5533 0.98909 0.95486 0.0
H515 H 0.48421 0.0518 0.9516 0.0
H516 H 0.59426 0.05081 0.81384 0.0
H517 H 0.62134 0.12386 0.85189 0.0
H518 H 0.63678 0.0583 0.79128 0.0
H519 H 0.66359 0.12991 0.8288 0.0
H520 H 0.60947 0.98221 0.86194 0.0
H521 H 0.52444 1.00002 0.88423 0.0
H522 H 0.59771 0.92904 0.86117 0.0
H523 H 0.51404 0.94662 0.88285 0.0
H524 H 0.69737 0.05382 0.90081 0.0
H525 H 0.6812 0.00583 0.84369 0.0
H526 H 0.49921 0.05718 0.78668 0.0
H527 H 0.54719 0.97682 0.7944 0.0
Li528 Li 0.39718 0.06231 0.62739 0.0
Li529 Li 0.44322 0.05315 0.64388 0.0
Li530 Li 0.43442 0.10135 0.62582 0.0
Li531 Li 0.44196 0.05581 0.60612 0.0
C532 C 0.39638 0.10044 0.66298 0.0
N533 N 0.35927 0.13315 0.68734 0.0
C534 C 0.38964 0.09129 0.6833 0.0
C535 C 0.3847 0.12657 0.65524 0.0
C536 C 0.3707 0.10801 0.69532 0.0
C537 C 0.36586 0.14271 0.66774 0.0
C538 C 0.42448 1.00023 0.63389 0.0
C539 C 0.45215 0.95715 0.64262 0.0
N540 N 0.42994 0.94682 0.65422 0.0
C541 C 0.40183 0.98905 0.64574 0.0
C542 C 0.44975 0.98404 0.63215 0.0
C543 C 0.40504 0.96205 0.65595 0.0
C544 C 0.34518 0.0447 0.60969 0.0
N545 N 0.35764 0.05205 0.62822 0.0
C546 C 0.316 0.03693 0.64708 0.0
C547 C 0.34359 0.04865 0.64673 0.0
C548 C 0.30298 0.02857 0.62822 0.0
C549 C 0.3176 0.03296 0.60932 0.0
H550 H 0.35708 0.04705 0.59526 0.0
H551 H 0.35425 0.05367 0.66128 0.0
C552 C 0.48897 0.03665 0.67058 0.0
N553 N 0.4603 0.03548 0.66783 0.0
C554 C 0.50143 0.02504 0.68867 0.0
C555 C 0.45457 0.01195 0.70103 0.0
C556 C 0.44304 0.02383 0.68272 0.0
C557 C 0.48453 0.01085 0.7041 0.0
H558 H 0.50217 0.04747 0.65901 0.0
H559 H 0.42013 0.02444 0.68062 0.0
C560 C 0.3945 0.10438 0.5913 0.0
N561 N 0.36111 0.14269 0.56819 0.0
C562 C 0.40235 0.11196 0.57086 0.0
C563 C 0.36932 0.11584 0.5998 0.0
C564 C 0.3853 0.1315 0.55949 0.0
C565 C 0.35282 0.13528 0.58792 0.0
C566 C 0.49433 0.07521 0.61476 0.0
C567 C 0.5051 0.10079 0.6055 0.0
C568 C 0.50948 0.04884 0.61288 0.0
C569 C 0.53061 0.09943 0.59418 0.0
C570 C 0.53487 0.04835 0.60137 0.0
N571 N 0.54481 0.07344 0.59232 0.0
C572 C 0.45484 0.1529 0.64459 0.0
C573 C 0.44497 0.15825 0.60833 0.0
C574 C 0.46714 0.1809 0.64525 0.0
N575 N 0.4444 0.14205 0.62626 0.0
C576 C 0.45705 0.18636 0.60829 0.0
C577 C 0.46876 0.19762 0.62684 0.0
H578 H 0.45466 0.13927 0.65849 0.0
H579 H 0.43746 0.14883 0.59383 0.0
C580 C 0.45468 0.01266 0.5752 0.0
N581 N 0.45672 0.04166 0.58026 0.0
C582 C 0.46478 0.00264 0.55587 0.0
C583 C 0.47884 0.05248 0.54741 0.0
C584 C 0.46842 0.06154 0.56684 0.0
C585 C 0.47693 0.02277 0.5418 0.0
H586 H 0.44494 0.99741 0.58605 0.0
H587 H 0.46947 0.0845 0.57119 0.0
O588 O 0.41512 0.0844 0.6511 0.0
O589 O 0.42193 0.02689 0.62409 0.0
O590 O 0.41085 0.08501 0.60255 0.0
O591 O 0.46911 0.07599 0.62561 0.0
H592 H 0.3988 0.07138 0.68971 0.0
H593 H 0.39031 0.13454 0.63984 0.0
H594 H 0.36513 0.10104 0.711 0.0
H595 H 0.3566 0.16291 0.66188 0.0
H596 H 0.47167 0.9445 0.64151 0.0
H597 H 0.38208 0.00115 0.6472 0.0
H598 H 0.46736 0.99217 0.62287 0.0
H599 H 0.38775 0.95324 0.66529 0.0
H600 H 0.30527 0.03352 0.66193 0.0
H601 H 0.3081 0.02655 0.59453 0.0
H602 H 0.524 0.02877 0.69052 0.0
H603 H 0.43951 0.00508 0.71282 0.0
H604 H 0.42149 0.103 0.56387 0.0
H605 H 0.36233 0.10953 0.61528 0.0
H606 H 0.39128 0.13772 0.54373 0.0
H607 H 0.33334 0.14435 0.59436 0.0
H608 H 0.49387 0.12146 0.60692 0.0
H609 H 0.50165 0.02893 0.62013 0.0
H610 H 0.5391 0.11903 0.58684 0.0
H611 H 0.54667 0.02803 0.59964 0.0
H612 H 0.47617 0.18903 0.65977 0.0
H613 H 0.45825 0.19873 0.59381 0.0
H614 H 0.463 0.97955 0.55185 0.0
H615 H 0.48807 0.06848 0.5368 0.0
Li616 Li 0.05427 0.94813 0.64707 0.0
Li617 Li 0.09833 0.937 0.62844 0.0
Li618 Li 0.05295 0.94358 0.60999 0.0
Li619 Li 0.0584 0.89925 0.62999 0.0
C620 C 0.07527 0.99912 0.63617 0.0
N621 N 0.0757 0.05216 0.65732 0.0
C622 C 0.09763 0.00587 0.64987 0.0
C623 C 0.05326 0.01943 0.63309 0.0
C624 C 0.09744 0.03278 0.66045 0.0
C625 C 0.05383 0.04611 0.64397 0.0
C626 C 0.09976 0.89491 0.66125 0.0
C627 C 0.13312 0.85518 0.65584 0.0
N628 N 0.1348 0.85123 0.67693 0.0
C629 C 0.10175 0.89042 0.68285 0.0
C630 C 0.11552 0.87713 0.6476 0.0
C631 C 0.11962 0.86824 0.69048 0.0
C632 C 0.01361 0.97482 0.67469 0.0
N633 N 0.04132 0.96713 0.67187 0.0
C634 C 0.05275 0.98269 0.7066 0.0
C635 C 0.06073 0.97045 0.68743 0.0
C636 C 0.02451 0.99285 0.70996 0.0
C637 C 0.00469 0.98717 0.69365 0.0
H638 H 0.99818 0.97046 0.66252 0.0
H639 H 0.0824 0.96279 0.68513 0.0
C640 C 0.14615 0.96446 0.61169 0.0
N641 N 0.13807 0.94677 0.62784 0.0
C642 C 0.17353 0.97662 0.61117 0.0
C643 C 0.18392 0.95228 0.64398 0.0
C644 C 0.1563 0.94054 0.64387 0.0
C645 C 0.19255 0.9708 0.62759 0.0
H646 H 0.13086 0.97019 0.59969 0.0
H647 H 0.14916 0.92756 0.65702 0.0
C648 C 0.99946 0.93028 0.62134 0.0
N649 N 0.94694 0.93802 0.60235 0.0
C650 C 0.98409 0.90594 0.61408 0.0
C651 C 0.98802 0.95851 0.61907 0.0
C652 C 0.95758 0.91032 0.6045 0.0
C653 C 0.96148 0.96198 0.60937 0.0
C654 C 0.07993 0.90541 0.58489 0.0
C655 C 0.05961 0.88526 0.57768 0.0
C656 C 0.09774 0.91966 0.57054 0.0
C657 C 0.05734 0.87984 0.5562 0.0
C658 C 0.09478 0.91367 0.54918 0.0
N659 N 0.0748 0.89407 0.54251 0.0
C660 C 0.0488 0.98476 0.57698 0.0
C661 C 0.01916 0.94292 0.57249 0.0
C662 C 0.04056 0.99567 0.55742 0.0
N663 N 0.0381 0.95877 0.5841 0.0
C664 C 0.01026 0.95304 0.55294 0.0
C665 C 0.02119 0.97956 0.54523 0.0
H666 H 0.06422 0.99669 0.58631 0.0
H667 H 0.01149 0.92198 0.5781 0.0
C668 C 0.02526 0.8534 0.64558 0.0
N669 N 0.04789 0.859 0.63283 0.0
C670 C 0.0137 0.82513 0.64669 0.0
C671 C 0.0499 0.80854 0.62234 0.0
C672 C 0.06075 0.8372 0.62167 0.0
C673 C 0.02578 0.80255 0.63466 0.0
H674 H 0.01553 0.8712 0.65428 0.0
H675 H 0.07881 0.84227 0.61174 0.0
O676 O 0.07475 0.97264 0.62601 0.0
O677 O 0.08205 0.9163 0.6536 0.0
O678 O 0.02548 0.92644 0.63072 0.0
O679 O 0.08225 0.91125 0.60586 0.0
H680 H 0.11476 0.99035 0.65255 0.0
H681 H 0.03593 0.01466 0.62241 0.0
H682 H 0.11451 0.03822 0.67119 0.0
H683 H 0.03688 0.062 0.6418 0.0
H684 H 0.14546 0.84128 0.64547 0.0
H685 H 0.08957 0.90392 0.69361 0.0
H686 H 0.1143 0.88027 0.63083 0.0
H687 H 0.12139 0.86453 0.70717 0.0
H688 H 0.06878 0.98258 0.71871 0.0
H689 H 0.98205 0.99068 0.6954 0.0
H690 H 0.17951 0.99116 0.59846 0.0
H691 H 0.19809 0.94774 0.657 0.0
H692 H 0.99266 0.88395 0.61553 0.0
H693 H 0.99965 0.97757 0.62454 0.0
H694 H 0.94553 0.89171 0.59871 0.0
H695 H 0.95247 0.98373 0.60739 0.0
H696 H 0.04525 0.87445 0.58848 0.0
H697 H 0.11362 0.93523 0.5758 0.0
H698 H 0.04154 0.8645 0.5504 0.0
H699 H 0.10834 0.92465 0.5379 0.0
H700 H 0.04942 0.01619 0.55173 0.0
H701 H 0.99543 0.94007 0.54374 0.0
H702 H 0.9951 0.82107 0.65636 0.0
H703 H 0.05965 0.79144 0.61293 0.0
Li704 Li 0.5664 0.59173 0.11882 0.0
Li705 Li 0.55548 0.54589 0.13919 0.0
Li706 Li 0.60135 0.55292 0.11931 0.0
Li707 Li 0.5587 0.54574 0.10083 0.0
C708 C 0.58933 0.59996 0.15601 0.0
N709 N 0.5931 0.65042 0.18006 0.0
C710 C 0.57325 0.60266 0.17437 0.0
C711 C 0.60755 0.62283 0.15001 0.0
C712 C 0.57542 0.62834 0.1863 0.0
C713 C 0.60907 0.6482 0.16232 0.0
C714 C 0.50707 0.56818 0.10781 0.0
C715 C 0.46037 0.54913 0.09947 0.0
N716 N 0.45841 0.56862 0.08335 0.0
C717 C 0.50457 0.5881 0.09123 0.0
C718 C 0.48481 0.54858 0.11204 0.0
C719 C 0.4798 0.58794 0.07902 0.0
C720 C 0.56357 0.65089 0.10314 0.0
N721 N 0.55569 0.63215 0.11872 0.0
C722 C 0.52438 0.66829 0.13333 0.0
C723 C 0.5365 0.64026 0.13365 0.0
C724 C 0.53182 0.68788 0.11731 0.0
C725 C 0.55186 0.67919 0.10218 0.0
H726 H 0.57804 0.64353 0.09104 0.0
H727 H 0.52989 0.62455 0.14542 0.0
C728 C 0.55426 0.51727 0.17829 0.0
N729 N 0.53853 0.53343 0.16456 0.0
C730 C 0.54462 0.51317 0.19881 0.0
C731 C 0.50239 0.54151 0.1903 0.0
C732 C 0.51279 0.54502 0.16997 0.0
C733 C 0.51877 0.52606 0.20503 0.0
H734 H 0.57496 0.50896 0.17362 0.0
H735 H 0.50122 0.5585 0.15889 0.0
C736 C 0.61391 0.57841 0.0853 0.0
N737 N 0.66773 0.58184 0.06765 0.0
C738 C 0.62403 0.55561 0.07258 0.0
C739 C 0.6311 0.60304 0.0889 0.0
C740 C 0.65131 0.55774 0.06384 0.0
C741 C 0.65826 0.60434 0.07987 0.0
C742 C 0.56611 0.49081 0.114 0.0
C743 C 0.57671 0.47847 0.09548 0.0
C744 C 0.54522 0.47578 0.12543 0.0
C745 C 0.56611 0.45137 0.08867 0.0
C746 C 0.5352 0.4487 0.1181 0.0
N747 N 0.54575 0.43717 0.10002 0.0
C748 C 0.661 0.56052 0.12926 0.0
C749 C 0.64836 0.5161 0.11212 0.0
C750 C 0.6897 0.55188 0.12988 0.0
N751 N 0.64105 0.54262 0.12041 0.0
C752 C 0.67671 0.50674 0.11222 0.0
C753 C 0.69763 0.52471 0.12123 0.0
H754 H 0.65465 0.58139 0.13588 0.0
H755 H 0.63217 0.50219 0.10538 0.0
C756 C 0.55013 0.54343 0.05751 0.0
N757 N 0.54145 0.53073 0.07572 0.0
C758 C 0.53895 0.53411 0.03841 0.0
C759 C 0.50918 0.4994 0.05707 0.0
C760 C 0.52093 0.50947 0.07587 0.0
C761 C 0.51842 0.51174 0.03813 0.0
H762 H 0.56566 0.56098 0.05777 0.0
H763 H 0.51372 0.50027 0.09055 0.0
O764 O 0.58709 0.57519 0.14391 0.0
O765 O 0.53149 0.56742 0.11954 0.0
O766 O 0.58759 0.57627 0.09454 0.0
O767 O 0.57631 0.51726 0.12108 0.0
H768 H 0.55914 0.58521 0.17935 0.0
H769 H 0.6201 0.62118 0.13586 0.0
H770 H 0.563 0.63073 0.20049 0.0
H771 H 0.6229 0.66616 0.15776 0.0
H772 H 0.44302 0.53398 0.10247 0.0
H773 H 0.52174 0.60323 0.08763 0.0
H774 H 0.48656 0.53283 0.1247 0.0
H775 H 0.47763 0.6031 0.06604 0.0
H776 H 0.50878 0.67437 0.1451 0.0
H777 H 0.55775 0.69386 0.08952 0.0
H778 H 0.55781 0.50143 0.20997 0.0
H779 H 0.48252 0.55197 0.19481 0.0
H780 H 0.61115 0.53624 0.06978 0.0
H781 H 0.62369 0.62086 0.0987 0.0
H782 H 0.65949 0.54015 0.05412 0.0
H783 H 0.67185 0.6232 0.08263 0.0
H784 H 0.59244 0.48995 0.08617 0.0
H785 H 0.53671 0.48492 0.13976 0.0
H786 H 0.57394 0.44172 0.07427 0.0
H787 H 0.519 0.43688 0.12677 0.0
H788 H 0.70549 0.56614 0.137 0.0
H789 H 0.68225 0.4856 0.10551 0.0
H790 H 0.5462 0.54422 0.02398 0.0
H791 H 0.49312 0.48225 0.05727 0.0
Li792 Li 0.93983 0.4036 0.12006 0.0
Li793 Li 0.94977 0.44631 0.14123 0.0
Li794 Li 0.907 0.44445 0.12045 0.0
Li795 Li 0.95221 0.44967 0.10343 0.0
C796 C 0.89502 0.40001 0.14853 0.0
N797 N 0.84955 0.36314 0.15711 0.0
C798 C 0.88463 0.39749 0.16897 0.0
C799 C 0.88231 0.38373 0.13244 0.0
C800 C 0.86162 0.37874 0.17299 0.0
C801 C 0.85934 0.36523 0.1371 0.0
C802 C 0.9962 0.40874 0.13215 0.0
C803 C 0.04288 0.38634 0.13321 0.0
N804 N 0.03636 0.37402 0.15204 0.0
C805 C 0.98994 0.39579 0.15149 0.0
C806 C 0.02284 0.40394 0.1229 0.0
C807 C 0.01054 0.37835 0.16131 0.0
C808 C 0.95929 0.35271 0.10014 0.0
N809 N 0.94732 0.36242 0.11828 0.0
C810 C 0.95714 0.31649 0.13508 0.0
C811 C 0.94554 0.34482 0.13549 0.0
C812 C 0.97063 0.30643 0.11682 0.0
C813 C 0.97106 0.3245 0.09902 0.0
H814 H 0.961 0.36748 0.0869 0.0
H815 H 0.93666 0.35334 0.14989 0.0
C816 C 0.94541 0.46171 0.18325 0.0
N817 N 0.96467 0.45892 0.16743 0.0
C818 C 0.95472 0.46678 0.20369 0.0
C819 C 0.00345 0.46727 0.19102 0.0
C820 C 0.99318 0.46237 0.17077 0.0
C821 C 0.98406 0.46885 0.20771 0.0
H822 H 0.92289 0.45885 0.18006 0.0
H823 H 0.00804 0.46002 0.15792 0.0
C824 C 0.90783 0.43238 0.07778 0.0
N825 N 0.8814 0.45282 0.0419 0.0
C826 C 0.90087 0.46219 0.07584 0.0
C827 C 0.90135 0.41299 0.06147 0.0
C828 C 0.88751 0.47208 0.05758 0.0
C829 C 0.88799 0.42375 0.04345 0.0
C830 C 0.95067 0.50262 0.12522 0.0
C831 C 0.93789 0.5302 0.12767 0.0
C832 C 0.98047 0.50042 0.12476 0.0
C833 C 0.95513 0.55514 0.12969 0.0
C834 C 0.99696 0.52587 0.12684 0.0
N835 N 0.98406 0.55248 0.12924 0.0
C836 C 0.86265 0.4822 0.1312 0.0
C837 C 0.84725 0.44237 0.10997 0.0
C838 C 0.83508 0.49385 0.1316 0.0
N839 N 0.86821 0.45705 0.12041 0.0
C840 C 0.81925 0.4531 0.11012 0.0
C841 C 0.81312 0.4792 0.12097 0.0
H842 H 0.87973 0.49328 0.13943 0.0
H843 H 0.85229 0.42248 0.10143 0.0
C844 C 0.98992 0.44652 0.0699 0.0
N845 N 0.97215 0.46524 0.08004 0.0
C846 C 0.00545 0.456 0.0525 0.0
C847 C 0.98311 0.50344 0.05568 0.0
C848 C 0.96783 0.49301 0.07294 0.0
C849 C 0.00411 0.48571 0.04585 0.0
H850 H 0.99162 0.42394 0.07516 0.0
H851 H 0.95222 0.50699 0.08047 0.0
O852 O 0.91742 0.41849 0.14443 0.0
O853 O 0.97625 0.42556 0.12203 0.0
O854 O 0.92088 0.42199 0.09548 0.0
O855 O 0.93389 0.4781 0.12318 0.0
H856 H 0.89424 0.40991 0.18161 0.0
H857 H 0.89002 0.38528 0.11652 0.0
H858 H 0.85335 0.3766 0.18875 0.0
H859 H 0.84929 0.35253 0.1248 0.0
H860 H 0.06358 0.38241 0.12622 0.0
H861 H 0.96934 0.39905 0.15882 0.0
H862 H 0.02795 0.41368 0.10788 0.0
H863 H 0.00596 0.3682 0.17627 0.0
H864 H 0.9567 0.30305 0.14909 0.0
H865 H 0.98149 0.31733 0.08476 0.0
H866 H 0.93934 0.46775 0.21636 0.0
H867 H 0.02624 0.46862 0.19377 0.0
H868 H 0.90564 0.47757 0.08827 0.0
H869 H 0.9066 0.38985 0.06274 0.0
H870 H 0.88199 0.49508 0.05589 0.0
H871 H 0.88285 0.40898 0.0307 0.0
H872 H 0.91486 0.53234 0.12795 0.0
H873 H 0.99085 0.47941 0.1227 0.0
H874 H 0.9455 0.57662 0.13159 0.0
H875 H 0.02002 0.52447 0.1265 0.0
H876 H 0.83087 0.51399 0.14014 0.0
H877 H 0.80263 0.44139 0.10177 0.0
H878 H 0.0174 0.43936 0.04433 0.0
H879 H 0.97756 0.52507 0.05 0.0
Li880 Li 0.05641 0.44427 0.39813 0.0
Li881 Li 0.10123 0.43687 0.37998 0.0
Li882 Li 0.0574 0.44261 0.35909 0.0
Li883 Li 0.06634 0.39801 0.37897 0.0
C884 C 0.06129 0.49802 0.37703 0.0
N885 N 0.03235 0.55084 0.37403 0.0
C886 C 0.07641 0.52434 0.3748 0.0
C887 C 0.03143 0.49854 0.37772 0.0
C888 C 0.06139 0.55083 0.37331 0.0
C889 C 0.01721 0.52548 0.37618 0.0
C890 C 0.10875 0.41183 0.41682 0.0
C891 C 0.15157 0.38669 0.42778 0.0
N892 N 0.15649 0.40825 0.44212 0.0
C893 C 0.11403 0.43356 0.43182 0.0
C894 C 0.12747 0.38804 0.4149 0.0
C895 C 0.13835 0.43142 0.44441 0.0
C896 C 0.02311 0.4409 0.43422 0.0
N897 N 0.03977 0.45954 0.42291 0.0
C898 C 0.03674 0.49618 0.44967 0.0
C899 C 0.04671 0.48678 0.43016 0.0
C900 C 0.01984 0.47719 0.46172 0.0
C901 C 0.01273 0.44938 0.45381 0.0
H902 H 0.01869 0.41907 0.4283 0.0
H903 H 0.06074 0.50081 0.42116 0.0
C904 C 0.16058 0.43692 0.36853 0.0
N905 N 0.14021 0.44889 0.38112 0.0
C906 C 0.18828 0.44847 0.36844 0.0
C907 C 0.17353 0.48417 0.39439 0.0
C908 C 0.14613 0.47209 0.39388 0.0
C909 C 0.19478 0.47248 0.38139 0.0
H910 H 0.1552 0.41901 0.35815 0.0
H911 H 0.12932 0.48164 0.40332 0.0
C912 C 0.00871 0.4058 0.37143 0.0
N913 N 0.96418 0.37125 0.35719 0.0
C914 C 0.00946 0.39396 0.35122 0.0
C915 C 0.98533 0.40004 0.38441 0.0
C916 C 0.98675 0.37654 0.34432 0.0
C917 C 0.96301 0.38255 0.37691 0.0
C918 C 0.09788 0.39113 0.34315 0.0
C919 C 0.08706 0.38724 0.32291 0.0
C920 C 0.11785 0.37117 0.35107 0.0
C921 C 0.09633 0.3633 0.31098 0.0
C922 C 0.12656 0.34749 0.33866 0.0
N923 N 0.1157 0.34407 0.31904 0.0
C924 C 0.06188 0.46356 0.31829 0.0
C925 C 0.01396 0.45991 0.33016 0.0
C926 C 0.05265 0.46946 0.29794 0.0
N927 N 0.04256 0.45789 0.33367 0.0
C928 C 0.00377 0.46548 0.30999 0.0
C929 C 0.02332 0.46941 0.29359 0.0
H930 H 0.08448 0.46177 0.3216 0.0
H931 H 0.99908 0.45564 0.34276 0.0
C932 C 0.05059 0.34652 0.39992 0.0
N933 N 0.05687 0.35692 0.38046 0.0
C934 C 0.03822 0.31873 0.40239 0.0
C935 C 0.0399 0.31237 0.36481 0.0
C936 C 0.05205 0.34031 0.36305 0.0
C937 C 0.03235 0.30167 0.38462 0.0
H938 H 0.05393 0.36044 0.41346 0.0
H939 H 0.056 0.34924 0.34769 0.0
O940 O 0.07582 0.47198 0.37843 0.0
O941 O 0.08537 0.41384 0.40406 0.0
O942 O 0.03084 0.42275 0.37856 0.0
O943 O 0.08904 0.41443 0.35507 0.0
H944 H 0.09953 0.52428 0.37423 0.0
H945 H 0.01933 0.47845 0.37949 0.0
H946 H 0.07282 0.57138 0.37159 0.0
H947 H 0.99412 0.52621 0.3767 0.0
H948 H 0.16634 0.36848 0.4264 0.0
H949 H 0.09969 0.45207 0.43354 0.0
H950 H 0.1234 0.37078 0.40362 0.0
H951 H 0.14284 0.44821 0.45596 0.0
H952 H 0.04275 0.51767 0.45555 0.0
H953 H 0.9999 0.43421 0.46292 0.0
H954 H 0.2043 0.43918 0.35813 0.0
H955 H 0.17795 0.50286 0.40441 0.0
H956 H 0.02749 0.398 0.34104 0.0
H957 H 0.98438 0.40905 0.40008 0.0
H958 H 0.98712 0.36718 0.32873 0.0
H959 H 0.94478 0.3779 0.38678 0.0
H960 H 0.07149 0.40235 0.31653 0.0
H961 H 0.12647 0.37389 0.36665 0.0
H962 H 0.08805 0.35996 0.29533 0.0
H963 H 0.14195 0.33183 0.34462 0.0
H964 H 0.06816 0.47229 0.2855 0.0
H965 H 0.981 0.46531 0.30699 0.0
H966 H 0.03235 0.31106 0.41787 0.0
H967 H 0.03525 0.29978 0.35081 0.0
Li968 Li 0.44626 0.55311 0.39416 0.0
Li969 Li 0.40127 0.5592 0.37694 0.0
Li970 Li 0.44512 0.55642 0.35692 0.0
Li971 Li 0.43682 0.59975 0.37796 0.0
C972 C 0.44332 0.49996 0.37251 0.0
N973 N 0.47482 0.44886 0.36821 0.0
C974 C 0.4296 0.47322 0.36852 0.0
C975 C 0.47308 0.50068 0.37435 0.0
C976 C 0.44589 0.44764 0.36639 0.0
C977 C 0.48861 0.47462 0.37211 0.0
C978 C 0.40927 0.5763 0.42182 0.0
C979 C 0.41131 0.59033 0.45821 0.0
N980 N 0.3969 0.56537 0.4634 0.0
C981 C 0.39463 0.55071 0.42751 0.0
C982 C 0.41776 0.59625 0.43726 0.0
C983 C 0.38856 0.54559 0.44863 0.0
C984 C 0.48178 0.55454 0.42926 0.0
N985 N 0.46345 0.53691 0.41851 0.0
C986 C 0.46624 0.49997 0.44506 0.0
C987 C 0.45561 0.51003 0.42592 0.0
C988 C 0.48465 0.51805 0.45665 0.0
C989 C 0.49266 0.5455 0.44858 0.0
H990 H 0.48718 0.57601 0.4231 0.0
H991 H 0.44044 0.4968 0.41729 0.0
C992 C 0.35564 0.52364 0.36537 0.0
N993 N 0.36223 0.54773 0.37703 0.0
C994 C 0.32807 0.51199 0.3658 0.0
C995 C 0.3143 0.55068 0.38981 0.0
C996 C 0.34225 0.56151 0.38902 0.0
C997 C 0.3072 0.52545 0.37826 0.0
H998 H 0.37201 0.51317 0.35602 0.0
H999 H 0.34816 0.58049 0.39828 0.0
C1000 C 0.49216 0.59171 0.36507 0.0
N1001 N 0.5322 0.62379 0.34291 0.0
C1002 C 0.48441 0.6061 0.34654 0.0
C1003 C 0.52024 0.59373 0.37234 0.0
C1004 C 0.50498 0.62215 0.33555 0.0
C1005 C 0.54017 0.61005 0.36092 0.0
C1006 C 0.39219 0.60473 0.3487 0.0
C1007 C 0.38426 0.6093 0.32784 0.0
C1008 C 0.37793 0.61989 0.36465 0.0
C1009 C 0.36215 0.62893 0.32327 0.0
C1010 C 0.35592 0.63931 0.35944 0.0
N1011 N 0.34854 0.64339 0.33904 0.0
C1012 C 0.44152 0.5426 0.31453 0.0
C1013 C 0.48837 0.53718 0.32823 0.0
C1014 C 0.45132 0.53679 0.29431 0.0
N1015 N 0.46013 0.54331 0.33087 0.0
C1016 C 0.49909 0.53126 0.30825 0.0
C1017 C 0.48048 0.53166 0.29104 0.0
H1018 H 0.4192 0.5475 0.31715 0.0
H1019 H 0.50273 0.53797 0.34149 0.0
C1020 C 0.46322 0.64743 0.39679 0.0
N1021 N 0.44597 0.64058 0.38034 0.0
C1022 C 0.47574 0.67524 0.39819 0.0
C1023 C 0.45191 0.68882 0.36599 0.0
C1024 C 0.44003 0.66062 0.36509 0.0
C1025 C 0.47037 0.69607 0.38251 0.0
H1026 H 0.46835 0.63074 0.40827 0.0
H1027 H 0.42727 0.65438 0.35171 0.0
O1028 O 0.42749 0.52513 0.37456 0.0
O1029 O 0.41537 0.58174 0.40123 0.0
O1030 O 0.47241 0.57612 0.37636 0.0
O1031 O 0.41371 0.58539 0.3533 0.0
H1032 H 0.40657 0.47225 0.3671 0.0
H1033 H 0.48415 0.52105 0.37754 0.0
H1034 H 0.43554 0.4268 0.36329 0.0
H1035 H 0.51164 0.47489 0.3735 0.0
H1036 H 0.41772 0.60558 0.47035 0.0
H1037 H 0.38827 0.53482 0.41578 0.0
H1038 H 0.42914 0.61614 0.43311 0.0
H1039 H 0.3773 0.52586 0.45327 0.0
H1040 H 0.45955 0.47878 0.45108 0.0
H1041 H 0.50671 0.55993 0.45731 0.0
H1042 H 0.32311 0.49251 0.35671 0.0
H1043 H 0.29854 0.56146 0.39958 0.0
H1044 H 0.46279 0.60496 0.34067 0.0
H1045 H 0.52652 0.58285 0.38671 0.0
H1046 H 0.49928 0.63336 0.32119 0.0
H1047 H 0.56198 0.61182 0.36638 0.0
H1048 H 0.39512 0.59782 0.31529 0.0
H1049 H 0.38381 0.6169 0.38087 0.0
H1050 H 0.3558 0.63266 0.30719 0.0
H1051 H 0.34472 0.65117 0.37163 0.0
H1052 H 0.43653 0.53732 0.28126 0.0
H1053 H 0.52175 0.52748 0.30611 0.0
H1054 H 0.49015 0.68017 0.411 0.0
H1055 H 0.44771 0.70442 0.35353 0.0
Li1056 Li 0.44001 0.44845 0.89134 0.0
Li1057 Li 0.43464 0.40325 0.872 0.0
Li1058 Li 0.44121 0.4527 0.85338 0.0
Li1059 Li 0.39754 0.44116 0.87232 0.0
C1060 C 0.49236 0.43151 0.88345 0.0
N1061 N 0.54044 0.43444 0.90848 0.0
C1062 C 0.49904 0.4083 0.89698 0.0
C1063 C 0.5103 0.45605 0.88248 0.0
C1064 C 0.52341 0.41023 0.90954 0.0
C1065 C 0.53445 0.45716 0.89532 0.0
C1066 C 0.39482 0.42211 0.91334 0.0
C1067 C 0.36847 0.40504 0.94346 0.0
N1068 N 0.36179 0.43336 0.94833 0.0
C1069 C 0.3877 0.45104 0.91867 0.0
C1070 C 0.38516 0.39891 0.92584 0.0
C1071 C 0.37099 0.45628 0.9364 0.0
C1072 C 0.46424 0.48997 0.92122 0.0
N1073 N 0.45588 0.46177 0.91747 0.0
C1074 C 0.46815 0.44778 0.95248 0.0
C1075 C 0.45797 0.44072 0.93258 0.0
C1076 C 0.47638 0.47676 0.95676 0.0
C1077 C 0.47459 0.49801 0.94092 0.0
H1078 H 0.46292 0.50633 0.90908 0.0
H1079 H 0.45163 0.41835 0.92916 0.0
C1080 C 0.46718 0.35743 0.85616 0.0
N1081 N 0.44628 0.36333 0.87035 0.0
C1082 C 0.47992 0.32967 0.85551 0.0
C1083 C 0.44887 0.31428 0.88378 0.0
C1084 C 0.43676 0.34245 0.88393 0.0
C1085 C 0.47096 0.30793 0.86961 0.0
H1086 H 0.47458 0.37467 0.84579 0.0
H1087 H 0.42042 0.34794 0.89525 0.0
C1088 C 0.42612 0.50643 0.87604 0.0
N1089 N 0.43749 0.56562 0.88149 0.0
C1090 C 0.40614 0.52461 0.88592 0.0
C1091 C 0.4517 0.51846 0.86865 0.0
C1092 C 0.41235 0.55444 0.88862 0.0
C1093 C 0.4571 0.5484 0.87163 0.0
C1094 C 0.38873 0.41241 0.83808 0.0
C1095 C 0.37794 0.4296 0.82174 0.0
C1096 C 0.37316 0.38822 0.8453 0.0
C1097 C 0.3515 0.4224 0.81297 0.0
C1098 C 0.3468 0.38174 0.83612 0.0
N1099 N 0.3366 0.39884 0.8203 0.0
C1100 C 0.47977 0.45849 0.82019 0.0
C1101 C 0.43916 0.48968 0.81809 0.0
C1102 C 0.4881 0.46653 0.80001 0.0
N1103 N 0.45538 0.46964 0.82853 0.0
C1104 C 0.44672 0.49837 0.79785 0.0
C1105 C 0.471 0.48601 0.78849 0.0
H1106 H 0.49192 0.44226 0.82881 0.0
H1107 H 0.41963 0.49776 0.8251 0.0
C1108 C 0.33708 0.43607 0.88158 0.0
N1109 N 0.3579 0.45071 0.87096 0.0
C1110 C 0.30903 0.44673 0.88145 0.0
C1111 C 0.32427 0.48628 0.85866 0.0
C1112 C 0.35198 0.47512 0.85943 0.0
C1113 C 0.30264 0.47231 0.87006 0.0
H1114 H 0.34233 0.41662 0.89054 0.0
H1115 H 0.36899 0.48626 0.85115 0.0
O1116 O 0.46813 0.4304 0.87152 0.0
O1117 O 0.41126 0.41634 0.89608 0.0
O1118 O 0.42008 0.4773 0.87294 0.0
O1119 O 0.414 0.41974 0.84744 0.0
H1120 H 0.48532 0.38919 0.89801 0.0
H1121 H 0.50555 0.47411 0.87201 0.0
H1122 H 0.52871 0.39255 0.9202 0.0
H1123 H 0.54843 0.47611 0.89482 0.0
H1124 H 0.36084 0.38729 0.95327 0.0
H1125 H 0.39506 0.46926 0.90928 0.0
H1126 H 0.3905 0.37638 0.92197 0.0
H1127 H 0.36535 0.47857 0.94069 0.0
H1128 H 0.46949 0.43091 0.96442 0.0
H1129 H 0.48102 0.52054 0.94382 0.0
H1130 H 0.49699 0.32537 0.84447 0.0
H1131 H 0.44165 0.29788 0.89489 0.0
H1132 H 0.38599 0.5158 0.8914 0.0
H1133 H 0.46733 0.50483 0.86087 0.0
H1134 H 0.39714 0.56873 0.89632 0.0
H1135 H 0.47688 0.55795 0.8661 0.0
H1136 H 0.38971 0.44847 0.81605 0.0
H1137 H 0.3812 0.37485 0.85805 0.0
H1138 H 0.34278 0.4356 0.8004 0.0
H1139 H 0.33441 0.3632 0.84162 0.0
H1140 H 0.50685 0.45654 0.79304 0.0
H1141 H 0.43306 0.51329 0.78919 0.0
H1142 H 0.29263 0.4355 0.89036 0.0
H1143 H 0.31989 0.50606 0.84974 0.0
Li1144 Li 0.05417 0.55261 0.89506 0.0
Li1145 Li 0.05818 0.59715 0.87407 0.0
Li1146 Li 0.04941 0.54948 0.85709 0.0
Li1147 Li 0.09629 0.55986 0.87236 0.0
C1148 C 0.00334 0.58341 0.88928 0.0
N1149 N 0.96161 0.60939 0.91369 0.0
C1150 C 0.01096 0.60135 0.90615 0.0
C1151 C 0.97448 0.57858 0.88486 0.0
C1152 C 0.98957 0.61434 0.91829 0.0
C1153 C 0.9537 0.59191 0.89739 0.0
C1154 C 0.09935 0.60188 0.90881 0.0
C1155 C 0.14063 0.63276 0.91413 0.0
N1156 N 0.13102 0.63953 0.93366 0.0
C1157 C 0.09003 0.60891 0.92902 0.0
C1158 C 0.12498 0.61368 0.90136 0.0
C1159 C 0.10627 0.62808 0.9413 0.0
C1160 C 0.06729 0.53444 0.93488 0.0
N1161 N 0.04457 0.53752 0.92182 0.0
C1162 C 0.01246 0.52229 0.94884 0.0
C1163 C 0.0175 0.53128 0.9282 0.0
C1164 C 0.03554 0.51986 0.96275 0.0
C1165 C 0.06323 0.52575 0.95559 0.0
H1166 H 0.08856 0.53941 0.92928 0.0
H1167 H 0.99984 0.5337 0.91743 0.0
C1168 C 0.02643 0.64371 0.8583 0.0
N1169 N 0.04697 0.63766 0.87275 0.0
C1170 C 0.01409 0.67165 0.85734 0.0
C1171 C 0.04473 0.68693 0.88585 0.0
C1172 C 0.05647 0.65864 0.88629 0.0
C1173 C 0.02306 0.69344 0.87141 0.0
H1174 H 0.01907 0.62649 0.84792 0.0
H1175 H 0.07258 0.65335 0.89776 0.0
C1176 C 0.05976 0.49689 0.87785 0.0
N1177 N 0.03437 0.44237 0.8824 0.0
C1178 C 0.07655 0.47148 0.87859 0.0
C1179 C 0.03005 0.49457 0.87938 0.0
C1180 C 0.06331 0.44412 0.8809 0.0
C1181 C 0.01763 0.46681 0.88169 0.0
C1182 C 0.09521 0.59693 0.83688 0.0
C1183 C 0.10247 0.58774 0.81667 0.0
C1184 C 0.10665 0.62306 0.84482 0.0
C1185 C 0.12131 0.60478 0.80478 0.0
C1186 C 0.12542 0.63948 0.83245 0.0
N1187 N 0.13231 0.63007 0.81286 0.0
C1188 C 0.00447 0.53672 0.82894 0.0
C1189 C 0.04821 0.51281 0.82193 0.0
C1190 C 0.99219 0.52422 0.8111 0.0
N1191 N 0.03189 0.53058 0.83407 0.0
C1192 C 0.03684 0.49993 0.80391 0.0
C1193 C 0.00779 0.50421 0.79844 0.0
H1194 H 0.9924 0.55213 0.83834 0.0
H1195 H 0.07044 0.50943 0.82592 0.0
C1196 C 0.14229 0.52696 0.8846 0.0
N1197 N 0.13571 0.54927 0.87123 0.0
C1198 C 0.16961 0.51474 0.88472 0.0
C1199 C 0.18341 0.54934 0.85777 0.0
C1200 C 0.15564 0.56076 0.85802 0.0
C1201 C 0.19038 0.52585 0.87108 0.0
H1202 H 0.12604 0.51832 0.89496 0.0
H1203 H 0.15007 0.57844 0.84752 0.0
O1204 O 0.0239 0.57056 0.87708 0.0
O1205 O 0.08385 0.5829 0.89666 0.0
O1206 O 0.0725 0.52381 0.87564 0.0
O1207 O 0.07666 0.58055 0.84861 0.0
H1208 H 0.03313 0.6053 0.9098 0.0
H1209 H 0.96819 0.56462 0.87193 0.0
H1210 H 0.9952 0.62836 0.93135 0.0
H1211 H 0.93128 0.58836 0.89415 0.0
H1212 H 0.16047 0.64211 0.90854 0.0
H1213 H 0.07046 0.59968 0.9352 0.0
H1214 H 0.13282 0.60811 0.88594 0.0
H1215 H 0.09924 0.6338 0.95692 0.0
H1216 H 0.99085 0.51784 0.95402 0.0
H1217 H 0.08142 0.52402 0.96601 0.0
H1218 H 0.99734 0.67608 0.84606 0.0
H1219 H 0.052 0.70337 0.89692 0.0
H1220 H 0.09958 0.4729 0.87738 0.0
H1221 H 0.01666 0.51393 0.8788 0.0
H1222 H 0.07605 0.42427 0.88151 0.0
H1223 H 0.99467 0.4647 0.88291 0.0
H1224 H 0.09366 0.56762 0.81027 0.0
H1225 H 0.10123 0.63057 0.86036 0.0
H1226 H 0.12717 0.59791 0.78913 0.0
H1227 H 0.13451 0.65969 0.83843 0.0
H1228 H 0.97102 0.53168 0.80706 0.0
H1229 H 0.05166 0.48804 0.7942 0.0
H1230 H 0.17446 0.49668 0.89521 0.0
H1231 H 0.19914 0.55835 0.84709 0.0
Li1232 Li 0.90464 0.55272 0.62875 0.0
Li1233 Li 0.9479 0.54166 0.64831 0.0
Li1234 Li 0.94178 0.58978 0.6291 0.0
Li1235 Li 0.95036 0.54444 0.60949 0.0
C1236 C 0.89643 0.5778 0.66555 0.0
N1237 N 0.84748 0.58415 0.68932 0.0
C1238 C 0.89081 0.55835 0.68201 0.0
C1239 C 0.87738 0.60074 0.66138 0.0
C1240 C 0.8659 0.56187 0.6938 0.0
C1241 C 0.85268 0.6035 0.67351 0.0
C1242 C 0.93581 0.48729 0.62745 0.0
C1243 C 0.97082 0.44901 0.62226 0.0
N1244 N 0.95086 0.42845 0.6273 0.0
C1245 C 0.91554 0.46574 0.63231 0.0
C1246 C 0.96359 0.47883 0.62216 0.0
C1247 C 0.92361 0.43613 0.63227 0.0
C1248 C 0.84666 0.55554 0.61444 0.0
N1249 N 0.86498 0.5437 0.62868 0.0
C1250 C 0.82809 0.51299 0.64251 0.0
C1251 C 0.85625 0.52296 0.64264 0.0
C1252 C 0.80888 0.52444 0.6278 0.0
C1253 C 0.8182 0.54618 0.61377 0.0
H1254 H 0.85429 0.57168 0.60333 0.0
H1255 H 0.87139 0.51372 0.65361 0.0
C1256 C 0.97872 0.5421 0.68568 0.0
N1257 N 0.96149 0.52489 0.67368 0.0
C1258 C 0.98623 0.53323 0.70588 0.0
C1259 C 0.95874 0.48871 0.70078 0.0
C1260 C 0.95166 0.49849 0.6807 0.0
C1261 C 0.97574 0.50651 0.71366 0.0
H1262 H 0.98575 0.56322 0.67979 0.0
H1263 H 0.93729 0.48565 0.67117 0.0
C1264 C 0.91634 0.59854 0.59197 0.0
N1265 N 0.90924 0.64785 0.56718 0.0
C1266 C 0.93166 0.6014 0.57328 0.0
C1267 C 0.89711 0.62054 0.59789 0.0
C1268 C 0.92784 0.62655 0.561 0.0
C1269 C 0.89392 0.64537 0.5852 0.0
C1270 C 0.00454 0.55938 0.62964 0.0
C1271 C 0.02214 0.58123 0.62119 0.0
C1272 C 0.01689 0.5339 0.63795 0.0
C1273 C 0.05167 0.57688 0.62066 0.0
C1274 C 0.04651 0.53037 0.63716 0.0
N1275 N 0.06315 0.55173 0.62857 0.0
C1276 C 0.9465 0.647 0.64691 0.0
C1277 C 0.96742 0.64125 0.6133 0.0
C1278 C 0.95693 0.6758 0.64826 0.0
N1279 N 0.9521 0.63036 0.62967 0.0
C1280 C 0.97816 0.66987 0.61396 0.0
C1281 C 0.97323 0.68724 0.63171 0.0
H1282 H 0.93465 0.63764 0.65983 0.0
H1283 H 0.97212 0.62737 0.6 0.0
C1284 C 0.95064 0.50884 0.5737 0.0
N1285 N 0.96611 0.52943 0.58421 0.0
C1286 C 0.95954 0.49908 0.55401 0.0
C1287 C 1.00019 0.53179 0.55639 0.0
C1288 C 0.9905 0.54094 0.57602 0.0
C1289 C 0.98442 0.51087 0.54517 0.0
H1290 H 0.93103 0.50053 0.58042 0.0
H1291 H 0.00188 0.55794 0.58435 0.0
O1292 O 0.92041 0.57436 0.65355 0.0
O1293 O 0.92816 0.51638 0.62733 0.0
O1294 O 0.92004 0.57424 0.60433 0.0
O1295 O 0.97557 0.56354 0.63058 0.0
H1296 H 0.90535 0.54053 0.68552 0.0
H1297 H 0.8816 0.61621 0.6489 0.0
H1298 H 0.86118 0.54685 0.70649 0.0
H1299 H 0.83765 0.62104 0.67037 0.0
H1300 H 0.99227 0.4422 0.61821 0.0
H1301 H 0.89382 0.47177 0.63614 0.0
H1302 H 0.9793 0.49502 0.6177 0.0
H1303 H 0.90818 0.41926 0.63613 0.0
H1304 H 0.82146 0.49615 0.6535 0.0
H1305 H 0.80377 0.55533 0.60222 0.0
H1306 H 0.99929 0.54744 0.71558 0.0
H1307 H 0.95018 0.46808 0.70652 0.0
H1308 H 0.94646 0.5845 0.56836 0.0
H1309 H 0.88488 0.61852 0.61218 0.0
H1310 H 0.93968 0.62913 0.54656 0.0
H1311 H 0.87926 0.66267 0.58968 0.0
H1312 H 0.01312 0.60127 0.61494 0.0
H1313 H 0.00385 0.5171 0.64515 0.0
H1314 H 0.06547 0.59352 0.61399 0.0
H1315 H 0.05629 0.5107 0.64347 0.0
H1316 H 0.95289 0.68877 0.66218 0.0
H1317 H 0.99078 0.67814 0.60101 0.0
H1318 H 0.94691 0.483 0.54558 0.0
H1319 H 0.01936 0.54142 0.5498 0.0
Li1320 Li 0.55465 0.45308 0.64217 0.0
Li1321 Li 0.59851 0.44529 0.62479 0.0
Li1322 Li 0.55607 0.45116 0.60404 0.0
Li1323 Li 0.56459 0.40422 0.62431 0.0
C1324 C 0.56976 0.50651 0.63266 0.0
N1325 N 0.56088 0.55881 0.65376 0.0
C1326 C 0.58575 0.51313 0.65054 0.0
C1327 C 0.54941 0.52659 0.6254 0.0
C1328 C 0.58088 0.53964 0.66103 0.0
C1329 C 0.54522 0.5529 0.63631 0.0
C1330 C 0.60707 0.41301 0.6597 0.0
C1331 C 0.64115 0.37515 0.66843 0.0
N1332 N 0.65446 0.39413 0.68172 0.0
C1333 C 0.6209 0.43205 0.67359 0.0
C1334 C 0.61712 0.38426 0.65718 0.0
C1335 C 0.64491 0.42213 0.68451 0.0
C1336 C 0.51613 0.48953 0.66665 0.0
N1337 N 0.53632 0.46794 0.66671 0.0
C1338 C 0.53148 0.46191 0.7037 0.0
C1339 C 0.54412 0.45422 0.68475 0.0
C1340 C 0.51062 0.48393 0.70407 0.0
C1341 C 0.50309 0.49819 0.68539 0.0
H1342 H 0.50983 0.49975 0.6521 0.0
H1343 H 0.55977 0.4368 0.68442 0.0
C1344 C 0.64351 0.48516 0.62008 0.0
N1345 N 0.63829 0.4565 0.62498 0.0
C1346 C 0.67131 0.49614 0.62019 0.0
C1347 C 0.68832 0.44772 0.62968 0.0
C1348 C 0.6601 0.43762 0.62932 0.0
C1349 C 0.69397 0.47737 0.62524 0.0
H1350 H 0.62607 0.4996 0.61601 0.0
H1351 H 0.65573 0.41474 0.63247 0.0
C1352 C 0.50287 0.43186 0.61575 0.0
N1353 N 0.44857 0.43603 0.5991 0.0
C1354 C 0.48826 0.40646 0.60961 0.0
C1355 C 0.48987 0.45935 0.6135 0.0
C1356 C 0.4608 0.40903 0.60124 0.0
C1357 C 0.46242 0.46101 0.605 0.0
C1358 C 0.61165 0.41623 0.59088 0.0
C1359 C 0.62291 0.43804 0.57783 0.0
C1360 C 0.62732 0.39065 0.59477 0.0
C1361 C 0.64999 0.43402 0.56909 0.0
C1362 C 0.65429 0.38742 0.58567 0.0
N1363 N 0.66499 0.40902 0.57316 0.0
C1364 C 0.54906 0.49157 0.57088 0.0
C1365 C 0.52485 0.44608 0.56651 0.0
C1366 C 0.53987 0.50105 0.55119 0.0
N1367 N 0.54124 0.46461 0.57815 0.0
C1368 C 0.51501 0.45476 0.54682 0.0
C1369 C 0.52268 0.48246 0.53903 0.0
H1370 H 0.56289 0.50542 0.58019 0.0
H1371 H 0.5198 0.42439 0.57237 0.0
C1372 C 0.54299 0.35381 0.64343 0.0
N1373 N 0.55438 0.36396 0.62522 0.0
C1374 C 0.53048 0.32594 0.64423 0.0
C1375 C 0.54229 0.31926 0.60762 0.0
C1376 C 0.55458 0.34731 0.60752 0.0
C1377 C 0.52965 0.30865 0.62606 0.0
H1378 H 0.54263 0.36789 0.6571 0.0
H1379 H 0.5632 0.3563 0.59315 0.0
O1380 O 0.57407 0.48052 0.62231 0.0
O1381 O 0.5834 0.42221 0.64899 0.0
O1382 O 0.52994 0.42979 0.62363 0.0
O1383 O 0.58563 0.4202 0.60014 0.0
H1384 H 0.60167 0.4979 0.65628 0.0
H1385 H 0.53673 0.52178 0.61165 0.0
H1386 H 0.593 0.54497 0.67496 0.0
H1387 H 0.52944 0.56857 0.63094 0.0
H1388 H 0.64927 0.35301 0.66656 0.0
H1389 H 0.6132 0.45426 0.6759 0.0
H1390 H 0.60663 0.36921 0.64655 0.0
H1391 H 0.65592 0.43668 0.69522 0.0
H1392 H 0.53755 0.45045 0.7179 0.0
H1393 H 0.48684 0.51517 0.68528 0.0
H1394 H 0.67512 0.51907 0.61646 0.0
H1395 H 0.70552 0.43266 0.6334 0.0
H1396 H 0.49806 0.385 0.61123 0.0
H1397 H 0.50107 0.47922 0.61791 0.0
H1398 H 0.44924 0.38957 0.59638 0.0
H1399 H 0.45216 0.48216 0.60302 0.0
H1400 H 0.61101 0.45802 0.57476 0.0
H1401 H 0.61887 0.37364 0.60491 0.0
H1402 H 0.65913 0.45082 0.55912 0.0
H1403 H 0.66677 0.36783 0.58864 0.0
H1404 H 0.54627 0.52247 0.5454 0.0
H1405 H 0.50197 0.4399 0.53762 0.0
H1406 H 0.52074 0.31832 0.65864 0.0
H1407 H 0.54177 0.30638 0.59334 0.0
C1408 C 0.25298 0.96607 0.13072 0.0
C1409 C 0.27735 0.98148 0.12336 0.0
C1410 C 0.24808 0.02542 0.11704 0.0
C1411 C 0.22338 0.00928 0.12284 0.0
N1412 N 0.20128 0.9631 0.13208 0.0
N1413 N 0.29783 0.02401 0.10645 0.0
C1414 C 0.22554 0.97926 0.12883 0.0
C1415 C 0.27483 0.01069 0.11565 0.0
N1416 N 0.25621 0.93919 0.14006 0.0
N1417 N 0.24608 0.05501 0.11344 0.0
H1418 H 0.31782 0.014 0.10524 0.0
H1419 H 0.29662 0.04397 0.09849 0.0
H1420 H 0.2268 0.06648 0.11413 0.0
H1421 H 0.26373 0.06866 0.11142 0.0
H1422 H 0.2398 0.92829 0.14786 0.0
H1423 H 0.27595 0.9287 0.14145 0.0
H1424 H 0.20129 0.94039 0.1342 0.0
H1425 H 0.1808 0.97201 0.131 0.0
C1426 C 0.74425 0.97513 0.36383 0.0
C1427 C 0.72421 0.98288 0.37957 0.0
C1428 C 0.75906 0.01642 0.39557 0.0
C1429 C 0.7796 0.00742 0.38053 0.0
N1430 N 0.79364 0.97534 0.35226 0.0
N1431 N 0.71315 0.00737 0.41208 0.0
C1432 C 0.77272 0.98593 0.36519 0.0
C1433 C 0.73182 0.00252 0.39595 0.0
N1434 N 0.73578 0.95811 0.34729 0.0
N1435 N 0.7654 0.03884 0.4091 0.0
H1436 H 0.69283 0.99796 0.41268 0.0
H1437 H 0.71843 0.01888 0.42563 0.0
H1438 H 0.78534 0.0491 0.40955 0.0
H1439 H 0.75045 0.04874 0.41889 0.0
H1440 H 0.74827 0.95447 0.33404 0.0
H1441 H 0.71535 0.94909 0.3461 0.0
H1442 H 0.7909 0.95736 0.34236 0.0
H1443 H 0.81459 0.98318 0.35247 0.0
C1444 C 0.77123 0.01248 0.86037 0.0
C1445 C 0.77653 0.9887 0.87428 0.0
C1446 C 0.72662 0.9899 0.88596 0.0
C1447 C 0.72195 0.01513 0.87328 0.0
N1448 N 0.74022 0.05301 0.85052 0.0
N1449 N 0.76089 0.95705 0.90232 0.0
C1450 C 0.7444 0.02715 0.86105 0.0
C1451 C 0.75464 0.97801 0.88764 0.0
N1452 N 0.79164 0.02047 0.84612 0.0
N1453 N 0.70407 0.97682 0.89591 0.0
H1454 H 0.78103 0.94741 0.90371 0.0
H1455 H 0.74682 0.9507 0.91411 0.0
H1456 H 0.68332 0.98518 0.89538 0.0
H1457 H 0.70539 0.95653 0.90342 0.0
H1458 H 0.78807 0.03541 0.83404 0.0
H1459 H 0.81166 0.01043 0.8453 0.0
H1460 H 0.75653 0.06468 0.84319 0.0
H1461 H 0.7207 0.06411 0.85043 0.0
C1462 C 0.22279 0.01574 0.6334 0.0
C1463 C 0.22095 0.98543 0.62814 0.0
C1464 C 0.27311 0.98285 0.62514 0.0
C1465 C 0.27468 0.01374 0.62835 0.0
N1466 N 0.25104 0.06048 0.63261 0.0
N1467 N 0.24357 0.94088 0.61609 0.0
C1468 C 0.2495 0.03046 0.6317 0.0
C1469 C 0.24592 0.96915 0.62322 0.0
N1470 N 0.19915 0.03023 0.64064 0.0
N1471 N 0.29762 0.96648 0.6246 0.0
H1472 H 0.22403 0.93004 0.61465 0.0
H1473 H 0.26068 0.92897 0.61002 0.0
H1474 H 0.31795 0.97569 0.62594 0.0
H1475 H 0.2978 0.94357 0.6246 0.0
H1476 H 0.19977 0.0514 0.64686 0.0
H1477 H 0.1792 0.02021 0.64212 0.0
H1478 H 0.23315 0.0741 0.63269 0.0
H1479 H 0.27027 0.072 0.63159 0.0
C1480 C 0.76538 0.48492 0.13839 0.0
C1481 C 0.78367 0.49132 0.12124 0.0
C1482 C 0.74666 0.52253 0.10542 0.0
C1483 C 0.72774 0.51448 0.12182 0.0
N1484 N 0.71752 0.48649 0.15302 0.0
N1485 N 0.79179 0.51399 0.08762 0.0
C1486 C 0.73671 0.49531 0.13811 0.0
C1487 C 0.77433 0.50958 0.10453 0.0
N1488 N 0.77567 0.46926 0.15508 0.0
N1489 N 0.7382 0.54291 0.0909 0.0
H1490 H 0.81258 0.5058 0.08678 0.0
H1491 H 0.78532 0.52423 0.07384 0.0
H1492 H 0.71781 0.55215 0.09073 0.0
H1493 H 0.75177 0.55221 0.07983 0.0
H1494 H 0.76472 0.46667 0.16915 0.0
H1495 H 0.79611 0.46014 0.15543 0.0
H1496 H 0.72146 0.46988 0.16385 0.0
H1497 H 0.69675 0.49473 0.15392 0.0
C1498 C 0.25699 0.5213 0.36478 0.0
C1499 C 0.2781 0.51259 0.37948 0.0
C1500 C 0.24511 0.4764 0.39468 0.0
C1501 C 0.22353 0.48623 0.38073 0.0
N1502 N 0.20713 0.52024 0.35434 0.0
N1503 N 0.29187 0.48482 0.41004 0.0
C1504 C 0.22897 0.50934 0.36628 0.0
C1505 C 0.27203 0.49097 0.39492 0.0
N1506 N 0.26401 0.54048 0.34908 0.0
N1507 N 0.24001 0.45266 0.40732 0.0
H1508 H 0.31209 0.49447 0.41037 0.0
H1509 H 0.28778 0.47176 0.42309 0.0
H1510 H 0.22029 0.44199 0.40797 0.0
H1511 H 0.25569 0.44221 0.41616 0.0
H1512 H 0.25076 0.54514 0.33641 0.0
H1513 H 0.284 0.5505 0.34794 0.0
H1514 H 0.20875 0.5392 0.34527 0.0
H1515 H 0.18655 0.51144 0.35452 0.0
C1516 C 0.24002 0.52132 0.88557 0.0
C1517 C 0.21929 0.5124 0.87064 0.0
C1518 C 0.25236 0.47537 0.85655 0.0
C1519 C 0.27361 0.48543 0.87069 0.0
N1520 N 0.28929 0.51927 0.89743 0.0
N1521 N 0.20576 0.48317 0.84072 0.0
C1522 C 0.26786 0.50876 0.88489 0.0
C1523 C 0.22548 0.49001 0.85578 0.0
N1524 N 0.23282 0.54139 0.90066 0.0
N1525 N 0.25783 0.45148 0.84412 0.0
H1526 H 0.18546 0.49262 0.84016 0.0
H1527 H 0.20987 0.46949 0.82801 0.0
H1528 H 0.2776 0.44089 0.84375 0.0
H1529 H 0.24246 0.44088 0.83509 0.0
H1530 H 0.2456 0.54638 0.91351 0.0
H1531 H 0.2131 0.55207 0.90105 0.0
H1532 H 0.28772 0.53841 0.90629 0.0
H1533 H 0.30952 0.5097 0.89817 0.0
C1534 C 0.74277 0.48286 0.60934 0.0
C1535 C 0.72357 0.48905 0.62596 0.0
C1536 C 0.75925 0.52107 0.64246 0.0
C1537 C 0.77925 0.51286 0.62682 0.0
N1538 N 0.79188 0.48237 0.59728 0.0
N1539 N 0.71458 0.51005 0.66003 0.0
C1540 C 0.77152 0.49276 0.61075 0.0
C1541 C 0.7321 0.50707 0.64301 0.0
N1542 N 0.73329 0.46831 0.59192 0.0
N1543 N 0.76595 0.54284 0.65641 0.0
H1544 H 0.69454 0.5001 0.66102 0.0
H1545 H 0.72082 0.52028 0.6739 0.0
H1546 H 0.78567 0.55354 0.6565 0.0
H1547 H 0.75123 0.55205 0.66674 0.0
H1548 H 0.74536 0.46604 0.57831 0.0
H1549 H 0.71244 0.4605 0.59038 0.0
H1550 H 0.78827 0.46523 0.58678 0.0
H1551 H 0.81314 0.4892 0.59773 0.0
C1552 C 0.00666 0.00452 0.26294 0.0
C1553 C 0.98947 0.02787 0.27059 0.0
C1554 C 0.99193 0.05261 0.23654 0.0
C1555 C 0.00807 0.02864 0.22856 0.0
N1556 N 0.02637 0.97942 0.23261 0.0
N1557 N 0.96038 0.07062 0.26376 0.0
C1558 C 0.01407 0.00381 0.24131 0.0
C1559 C 0.9804 0.05081 0.25707 0.0
N1560 N 0.01676 0.98367 0.27649 0.0
N1561 N 0.98877 0.07768 0.2249 0.0
H1562 H 0.95144 0.07002 0.27873 0.0
H1563 H 0.95068 0.08594 0.25393 0.0
H1564 H 0.99687 0.08002 0.20977 0.0
H1565 H 0.98015 0.0971 0.23083 0.0
H1566 H 0.03198 0.96799 0.2724 0.0
H1567 H 0.01133 0.98324 0.29234 0.0
H1568 H 0.02875 0.95953 0.24051 0.0
H1569 H 0.03207 0.97829 0.21682 0.0
C1570 C 0.48954 0.93977 0.2403 0.0
C1571 C 0.49025 0.96529 0.22749 0.0
C1572 C 0.50601 0.99469 0.25761 0.0
C1573 C 0.5081 0.96857 0.26971 0.0
N1574 N 0.50737 0.91546 0.27136 0.0
N1575 N 0.50294 0.01632 0.22291 0.0
C1576 C 0.50139 0.94087 0.26072 0.0
C1577 C 0.49948 0.99263 0.23587 0.0
N1578 N 0.47667 0.91467 0.2332 0.0
N1579 N 0.50957 0.02145 0.26704 0.0
H1580 H 0.49839 0.01557 0.20692 0.0
H1581 H 0.51246 0.03594 0.22762 0.0
H1582 H 0.5145 0.02369 0.2829 0.0
H1583 H 0.5054 0.04139 0.2596 0.0
H1584 H 0.47274 0.89644 0.24267 0.0
H1585 H 0.46742 0.91309 0.21841 0.0
H1586 H 0.50587 0.89465 0.26461 0.0
H1587 H 0.51643 0.91516 0.28629 0.0
C1588 C 0.03399 0.00617 0.74843 0.0
C1589 C 0.015 0.00472 0.73119 0.0
C1590 C 0.97475 0.0038 0.75554 0.0
C1591 C 0.99393 0.9961 0.77188 0.0
N1592 N 0.04254 0.99247 0.78447 0.0
N1593 N 0.97055 0.02753 0.72175 0.0
C1594 C 0.02383 0.9985 0.76863 0.0
C1595 C 0.98597 0.011 0.73552 0.0
N1596 N 0.0602 0.01875 0.74597 0.0
N1597 N 0.94595 0.00364 0.75895 0.0
H1598 H 0.98009 0.03667 0.70846 0.0
H1599 H 0.94997 0.03513 0.72486 0.0
H1600 H 0.93698 0.99963 0.77364 0.0
H1601 H 0.93112 0.00599 0.74688 0.0
H1602 H 0.07405 0.02281 0.75843 0.0
H1603 H 0.06614 0.02848 0.73179 0.0
H1604 H 0.06453 0.99108 0.78209 0.0
H1605 H 0.03594 0.98706 0.79961 0.0
C1606 C 0.48003 0.98809 0.74081 0.0
C1607 C 0.49738 0.99933 0.72446 0.0
C1608 C 0.53483 0.01021 0.74989 0.0
C1609 C 0.51452 0.00698 0.76626 0.0
N1610 N 0.46841 0.98941 0.77776 0.0
N1611 N 0.54678 0.99496 0.71473 0.0
C1612 C 0.48736 0.99453 0.76192 0.0
C1613 C 0.52672 0.00286 0.72915 0.0
N1614 N 0.45929 0.96803 0.73626 0.0
N1615 N 0.56142 0.02121 0.75388 0.0
H1616 H 0.54094 0.98503 0.7006 0.0
H1617 H 0.56861 0.99457 0.71797 0.0
H1618 H 0.56836 0.02683 0.76889 0.0
H1619 H 0.57576 0.02658 0.74197 0.0
H1620 H 0.44756 0.95695 0.74768 0.0
H1621 H 0.45666 0.95993 0.72106 0.0
H1622 H 0.44724 0.98335 0.77506 0.0
H1623 H 0.47348 0.99273 0.7935 0.0
C1624 C 0.49593 0.50206 0.23636 0.0
C1625 C 0.5104 0.52645 0.22743 0.0
C1626 C 0.50482 0.5543 0.26005 0.0
C1627 C 0.49175 0.52935 0.26939 0.0
N1628 N 0.47872 0.4781 0.26796 0.0
N1629 N 0.5336 0.57351 0.23163 0.0
C1630 C 0.48844 0.50277 0.25798 0.0
C1631 C 0.51636 0.5519 0.23956 0.0
N1632 N 0.48863 0.47866 0.224 0.0
N1633 N 0.50518 0.58063 0.27045 0.0
H1634 H 0.54228 0.57271 0.21659 0.0
H1635 H 0.54132 0.59101 0.24051 0.0
H1636 H 0.49718 0.58334 0.28558 0.0
H1637 H 0.51132 0.60038 0.26352 0.0
H1638 H 0.47535 0.46163 0.22892 0.0
H1639 H 0.49433 0.47721 0.20823 0.0
H1640 H 0.47852 0.45729 0.26116 0.0
H1641 H 0.47286 0.478 0.28374 0.0
C1642 C 0.01131 0.44253 0.26058 0.0
C1643 C 0.0133 0.46964 0.27157 0.0
C1644 C 0.99827 0.49659 0.24014 0.0
C1645 C 0.99452 0.46936 0.22962 0.0
N1646 N 0.99401 0.41626 0.23005 0.0
N1647 N 0.00619 0.52207 0.27313 0.0
C1648 C 1.00013 0.44227 0.2399 0.0
C1649 C 0.00608 0.49661 0.26171 0.0
N1650 N 0.0207 0.41711 0.26982 0.0
N1651 N 0.99492 0.52235 0.22933 0.0
H1652 H 0.01256 0.52289 0.28878 0.0
H1653 H 0.99832 0.54204 0.26763 0.0
H1654 H 0.9886 0.52303 0.21366 0.0
H1655 H 1.00014 0.54294 0.23533 0.0
H1656 H 0.02319 0.39731 0.26184 0.0
H1657 H 0.02789 0.41606 0.28526 0.0
H1658 H 0.99424 0.39589 0.2375 0.0
H1659 H 0.98675 0.41502 0.21462 0.0
C1660 C 0.47136 0.47426 0.72957 0.0
C1661 C 0.49612 0.49051 0.72416 0.0
C1662 C 0.4988 0.51042 0.7598 0.0
C1663 C 0.47702 0.49055 0.76593 0.0
N1664 N 0.44268 0.45283 0.75725 0.0
N1665 N 0.5334 0.52466 0.73328 0.0
C1666 C 0.46294 0.47263 0.75091 0.0
C1667 C 0.50961 0.50914 0.73899 0.0
N1668 N 0.45612 0.46019 0.71427 0.0
N1669 N 0.50895 0.53046 0.77394 0.0
H1670 H 0.54091 0.52526 0.71789 0.0
H1671 H 0.54635 0.53597 0.74381 0.0
H1672 H 0.50139 0.53168 0.7893 0.0
H1673 H 0.5231 0.5473 0.77012 0.0
H1674 H 0.43629 0.45046 0.71678 0.0
H1675 H 0.46213 0.46039 0.69854 0.0
H1676 H 0.4342 0.43659 0.74758 0.0
H1677 H 0.43543 0.45133 0.77266 0.0
C1678 C 0.01212 0.47787 0.7629 0.0
C1679 C 0.99509 0.49198 0.77825 0.0
C1680 C 0.96007 0.50419 0.75126 0.0
C1681 C 0.98105 0.49819 0.73575 0.0
N1682 N 0.02624 0.47606 0.72647 0.0
N1683 N 0.94523 0.49442 0.78691 0.0
C1684 C 0.00677 0.48374 0.74142 0.0
C1685 C 0.96647 0.49802 0.77253 0.0
N1686 N 0.0299 0.45554 0.76864 0.0
N1687 N 0.93465 0.51687 0.74589 0.0
H1688 H 0.9496 0.48641 0.80192 0.0
H1689 H 0.9236 0.49591 0.78321 0.0
H1690 H 0.92897 0.52148 0.73043 0.0
H1691 H 0.92007 0.52447 0.75699 0.0
H1692 H 0.04106 0.44265 0.75789 0.0
H1693 H 0.03004 0.44752 0.78399 0.0
H1694 H 0.04656 0.46822 0.73017 0.0
H1695 H 0.02256 0.47905 0.71048 0.0
C1696 C 0.03141 0.25059 0.11604 0.0
C1697 C 0.01596 0.22381 0.11733 0.0
C1698 C 0.9707 0.25107 0.11635 0.0
C1699 C 0.98618 0.2779 0.11686 0.0
N1700 N 0.03103 0.30349 0.12092 0.0
N1701 N 0.97121 0.1984 0.12241 0.0
C1702 C 0.01651 0.27775 0.11773 0.0
C1703 C 0.98565 0.22399 0.1185 0.0
N1704 N 0.06023 0.25006 0.11259 0.0
N1705 N 0.94181 0.25147 0.11323 0.0
H1706 H 0.98137 0.17812 0.12417 0.0
H1707 H 0.94943 0.19759 0.1257 0.0
H1708 H 0.93015 0.27092 0.11169 0.0
H1709 H 0.92976 0.23262 0.11042 0.0
H1710 H 0.0722 0.26878 0.10921 0.0
H1711 H 0.07189 0.23057 0.11136 0.0
H1712 H 0.05285 0.30442 0.12401 0.0
H1713 H 0.02091 0.32384 0.12229 0.0
C1714 C 0.51123 0.76712 0.12943 0.0
C1715 C 0.48922 0.7718 0.11448 0.0
C1716 C 0.49407 0.72091 0.10217 0.0
C1717 C 0.51757 0.71701 0.11597 0.0
N1718 N 0.55125 0.73706 0.14069 0.0
N1719 N 0.46197 0.75502 0.08477 0.0
C1720 C 0.52692 0.74032 0.12905 0.0
C1721 C 0.48125 0.74919 0.10032 0.0
N1722 N 0.51658 0.78803 0.14434 0.0
N1723 N 0.48347 0.69735 0.09133 0.0
H1724 H 0.4517 0.77528 0.08323 0.0
H1725 H 0.45765 0.7406 0.0725 0.0
H1726 H 0.49254 0.6764 0.09203 0.0
H1727 H 0.46447 0.69793 0.08287 0.0
H1728 H 0.5301 0.7847 0.15707 0.0
H1729 H 0.50575 0.80809 0.14498 0.0
H1730 H 0.561 0.75422 0.14878 0.0
H1731 H 0.56308 0.7176 0.14098 0.0
C1732 C 0.47408 0.74865 0.39435 0.0
C1733 C 0.48552 0.7248 0.3827 0.0
C1734 C 0.52642 0.75522 0.37203 0.0
C1735 C 0.51386 0.77965 0.38236 0.0
N1736 N 0.47512 0.80097 0.4021 0.0
N1737 N 0.5212 0.70508 0.35935 0.0
C1738 C 0.48754 0.77671 0.39325 0.0
C1739 C 0.51138 0.72799 0.37127 0.0
N1740 N 0.4506 0.74424 0.40673 0.0
N1741 N 0.55293 0.75806 0.36322 0.0
H1742 H 0.51148 0.68443 0.35911 0.0
H1743 H 0.53801 0.70677 0.34875 0.0
H1744 H 0.56411 0.77791 0.36292 0.0
H1745 H 0.56478 0.74052 0.35738 0.0
H1746 H 0.44297 0.75959 0.41745 0.0
H1747 H 0.43959 0.7243 0.4073 0.0
H1748 H 0.45444 0.80129 0.40807 0.0
H1749 H 0.48494 0.82158 0.4025 0.0
C1750 C 0.03147 0.24664 0.38804 0.0
C1751 C 0.01633 0.27357 0.38646 0.0
C1752 C 0.97065 0.24697 0.38713 0.0
C1753 C 0.98585 0.21999 0.38669 0.0
N1754 N 0.03039 0.19337 0.38513 0.0
N1755 N 0.97194 0.30005 0.38291 0.0
C1756 C 0.01621 0.2196 0.38681 0.0
C1757 C 0.98599 0.27394 0.38568 0.0
N1758 N 0.06039 0.24703 0.39106 0.0
N1759 N 0.94158 0.24673 0.38924 0.0
H1760 H 0.98237 0.32032 0.38257 0.0
H1761 H 0.9502 0.30168 0.37971 0.0
H1762 H 0.92966 0.22734 0.38985 0.0
H1763 H 0.92937 0.26549 0.39191 0.0
H1764 H 0.07243 0.22841 0.39456 0.0
H1765 H 0.07226 0.26645 0.39159 0.0
H1766 H 0.05229 0.19164 0.38262 0.0
H1767 H 0.02002 0.17305 0.38498 0.0
C1768 C 0.98175 0.72608 0.88094 0.0
C1769 C 0.00901 0.72276 0.87147 0.0
C1770 C 0.0104 0.7756 0.86368 0.0
C1771 C 0.98219 0.77846 0.87162 0.0
N1772 N 0.93921 0.75609 0.88495 0.0
N1773 N 0.04762 0.74295 0.85104 0.0
C1774 C 0.96734 0.75358 0.87946 0.0
C1775 C 0.02289 0.74715 0.86204 0.0
N1776 N 0.97005 0.70319 0.8919 0.0
N1777 N 0.02561 0.80019 0.85835 0.0
H1778 H 0.05756 0.72248 0.84972 0.0
H1779 H 0.0571 0.75915 0.84184 0.0
H1780 H 0.01716 0.82141 0.85917 0.0
H1781 H 0.04729 0.79989 0.85472 0.0
H1782 H 0.95177 0.70516 0.90109 0.0
H1783 H 0.97986 0.68266 0.89322 0.0
H1784 H 0.92628 0.73817 0.88861 0.0
H1785 H 0.92805 0.77595 0.88423 0.0
C1786 C 0.51168 0.27587 0.88124 0.0
C1787 C 0.48563 0.27893 0.87004 0.0
C1788 C 0.48705 0.22667 0.86045 0.0
C1789 C 0.51403 0.22409 0.87046 0.0
N1790 N 0.55409 0.24653 0.88794 0.0
N1791 N 0.45029 0.25894 0.84658 0.0
C1792 C 0.52695 0.24882 0.88017 0.0
C1793 C 0.4738 0.25478 0.85896 0.0
N1794 N 0.52138 0.2986 0.89336 0.0
N1795 N 0.47372 0.20205 0.85292 0.0
H1796 H 0.43967 0.27906 0.84548 0.0
H1797 H 0.4425 0.24316 0.83623 0.0
H1798 H 0.48301 0.18119 0.85328 0.0
H1799 H 0.45267 0.20182 0.84766 0.0
H1800 H 0.53846 0.29679 0.90372 0.0
H1801 H 0.51103 0.3189 0.89427 0.0
H1802 H 0.566 0.26443 0.89317 0.0
H1803 H 0.56568 0.22692 0.88773 0.0
C1804 C 0.46883 0.25292 0.62689 0.0
C1805 C 0.48432 0.22611 0.62666 0.0
C1806 C 0.52958 0.25338 0.62748 0.0
C1807 C 0.51411 0.28015 0.62609 0.0
N1808 N 0.46943 0.3057 0.62118 0.0
N1809 N 0.52916 0.20032 0.62337 0.0
C1810 C 0.48381 0.28001 0.62488 0.0
C1811 C 0.51466 0.22619 0.62603 0.0
N1812 N 0.43985 0.25248 0.62961 0.0
N1813 N 0.55843 0.25399 0.63079 0.0
H1814 H 0.51903 0.17992 0.62239 0.0
H1815 H 0.55102 0.1992 0.62046 0.0
H1816 H 0.57012 0.27351 0.63165 0.0
H1817 H 0.57048 0.23537 0.6343 0.0
H1818 H 0.42766 0.27128 0.63224 0.0
H1819 H 0.42815 0.23302 0.63088 0.0
H1820 H 0.44768 0.30666 0.61784 0.0
H1821 H 0.47963 0.32602 0.61976 0.0
C1822 C 0.02377 0.74978 0.64632 0.0
C1823 C 0.01219 0.77303 0.63418 0.0
C1824 C 0.97319 0.7409 0.62246 0.0
C1825 C 0.98614 0.71702 0.63316 0.0
N1826 N 0.02562 0.69724 0.65294 0.0
N1827 N 0.97836 0.79023 0.60843 0.0
C1828 C 0.01194 0.72105 0.6445 0.0
C1829 C 0.98752 0.76848 0.62163 0.0
N1830 N 0.04562 0.75536 0.65998 0.0
N1831 N 0.94686 0.73735 0.61352 0.0
H1832 H 0.98812 0.81083 0.60751 0.0
H1833 H 0.96251 0.78721 0.59719 0.0
H1834 H 0.93589 0.71736 0.61363 0.0
H1835 H 0.93484 0.75465 0.60747 0.0
H1836 H 0.05293 0.74019 0.67097 0.0
H1837 H 0.05509 0.77604 0.66147 0.0
H1838 H 0.04608 0.69817 0.6593 0.0
H1839 H 0.01743 0.67592 0.65221 0.0
C1840 C 0.97877 0.97858 0.99679 0.0
C1841 C 0.98985 0.99334 0.97895 0.0
C1842 C 0.02127 0.02271 0.00145 0.0
C1843 C 0.00832 0.00983 0.01935 0.0
N1844 N 0.97197 0.97882 0.03446 0.0
N1845 N 0.01833 0.03235 0.96414 0.0
C1846 C 0.98627 0.98866 0.01714 0.0
C1847 C 0.01022 0.01623 0.98122 0.0
N1848 N 0.96179 0.95434 0.99426 0.0
N1849 N 0.04468 0.04043 0.00376 0.0
H1850 H 0.01081 0.02812 0.94905 0.0
H1851 H 0.03066 0.05137 0.96511 0.0
H1852 H 0.05334 0.04581 0.01833 0.0
H1853 H 0.05697 0.04787 0.99123 0.0
H1854 H 0.95561 0.94072 0.00657 0.0
H1855 H 0.95576 0.94631 0.9796 0.0
H1856 H 0.95362 0.96591 0.03371 0.0
H1857 H 0.97706 0.98552 0.04964 0.0
C1858 C 0.48464 0.98999 0.97889 0.0
C1859 C 0.50768 0.01005 0.97689 0.0
C1860 C 0.51326 0.01152 0.0151 0.0
C1861 C 0.48894 0.99314 0.01711 0.0
N1862 N 0.44871 0.96834 0.00149 0.0
N1863 N 0.54149 0.0434 0.99268 0.0
C1864 C 0.47382 0.98335 0.99914 0.0
C1865 C 0.52135 0.0218 0.9949 0.0
N1866 N 0.47364 0.97671 0.96143 0.0
N1867 N 0.52901 0.01853 0.03244 0.0
H1868 H 0.54824 0.05119 0.97812 0.0
H1869 H 0.54998 0.05519 0.0052 0.0
H1870 H 0.52332 0.01195 0.04754 0.0
H1871 H 0.54875 0.02905 0.0318 0.0
H1872 H 0.45901 0.95947 0.96197 0.0
H1873 H 0.48077 0.98136 0.9463 0.0
H1874 H 0.43504 0.96332 0.98913 0.0
H1875 H 0.44029 0.9629 0.01611 0.0
C1876 C 0.51708 0.00861 0.51784 0.0
C1877 C 0.48738 0.01289 0.52103 0.0
C1878 C 0.47757 0.99734 0.48495 0.0
C1879 C 0.50739 0.99531 0.48129 0.0
N1880 N 0.55585 0.00276 0.49295 0.0
N1881 N 0.4395 0.01563 0.5072 0.0
C1882 C 0.52727 0.00198 0.49739 0.0
C1883 C 0.46762 0.00842 0.50446 0.0
N1884 N 0.53541 0.0101 0.53449 0.0
N1885 N 0.45879 0.98788 0.46997 0.0
H1886 H 0.43135 0.02344 0.52136 0.0
H1887 H 0.42464 0.01603 0.49507 0.0
H1888 H 0.46529 0.98005 0.45536 0.0
H1889 H 0.43693 0.98567 0.47253 0.0
H1890 H 0.55684 0.00406 0.53369 0.0
H1891 H 0.52874 0.01524 0.54966 0.0
H1892 H 0.57122 0.01059 0.50334 0.0
H1893 H 0.56413 0.99769 0.47821 0.0
C1894 C 0.02993 0.98267 0.50651 0.0
C1895 C 0.01275 0.98994 0.5241 0.0
C1896 C 0.97709 0.01268 0.50111 0.0
C1897 C 0.99501 0.00687 0.48365 0.0
N1898 N 0.04001 0.99034 0.46959 0.0
N1899 N 0.97235 0.01532 0.53894 0.0
C1900 C 0.02192 0.99302 0.48631 0.0
C1901 C 0.98699 0.00599 0.52162 0.0
N1902 N 0.05342 0.96513 0.50908 0.0
N1903 N 0.95027 0.02383 0.49798 0.0
H1904 H 0.97873 0.01034 0.5542 0.0
H1905 H 0.95514 0.0298 0.53835 0.0
H1906 H 0.9425 0.02965 0.48323 0.0
H1907 H 0.93492 0.02546 0.50972 0.0
H1908 H 0.06498 0.95618 0.49669 0.0
H1909 H 0.06038 0.95782 0.5237 0.0
H1910 H 0.06113 0.98342 0.47087 0.0
H1911 H 0.03456 0.99709 0.45449 0.0
C1912 C 0.52393 0.48308 0.00488 0.0
C1913 C 0.50683 0.50135 0.01784 0.0
C1914 C 0.46847 0.50046 0.99174 0.0
C1915 C 0.48676 0.48487 0.97791 0.0
N1916 N 0.53308 0.46453 0.96991 0.0
N1917 N 0.46447 0.53073 0.02289 0.0
C1918 C 0.51483 0.47696 0.98411 0.0
C1919 C 0.47948 0.51089 0.01112 0.0
N1920 N 0.54852 0.47104 0.01266 0.0
N1921 N 0.4404 0.50459 0.98659 0.0
H1922 H 0.47168 0.53863 0.0373 0.0
H1923 H 0.44593 0.54108 0.0177 0.0
H1924 H 0.4316 0.49736 0.97247 0.0
H1925 H 0.42526 0.51295 0.99695 0.0
H1926 H 0.56036 0.45511 0.00478 0.0
H1927 H 0.55585 0.47507 0.02783 0.0
H1928 H 0.55475 0.46125 0.97277 0.0
H1929 H 0.52714 0.45957 0.95455 0.0
C1930 C 0.03775 0.47833 0.01437 0.0
C1931 C 0.02132 0.49721 0.02728 0.0
C1932 C 0.02217 0.53433 0.99945 0.0
C1933 C 0.03106 0.51226 0.9851 0.0
N1934 N 0.04819 0.46276 0.97906 0.0
N1935 N 0.02069 0.54866 0.03594 0.0
C1936 C 0.03927 0.48413 0.9926 0.0
C1937 C 0.01989 0.52714 0.02106 0.0
N1938 N 0.056 0.45855 0.02322 0.0
N1939 N 0.01571 0.56199 0.99254 0.0
H1940 H 0.02343 0.5436 0.05179 0.0
H1941 H 0.02244 0.57099 0.03246 0.0
H1942 H 0.01837 0.56857 0.977 0.0
H1943 H 0.00611 0.57779 0.00205 0.0
H1944 H 0.07035 0.44596 0.01451 0.0
H1945 H 0.05969 0.45838 0.03936 0.0
H1946 H 0.05195 0.44117 0.98387 0.0
H1947 H 0.04963 0.46605 0.96291 0.0
C1948 C 0.01562 0.48122 0.5212 0.0
C1949 C 0.99342 0.50213 0.52379 0.0
C1950 C 0.98704 0.50498 0.4857 0.0
C1951 C 0.01071 0.48585 0.48309 0.0
N1952 N 0.05044 0.45914 0.49787 0.0
N1953 N 0.96066 0.53738 0.5089 0.0
C1954 C 0.02583 0.47488 0.50072 0.0
C1955 C 0.97983 0.51499 0.50613 0.0
N1956 N 0.0264 0.46687 0.5383 0.0
N1957 N 0.97101 0.51291 0.4687 0.0
H1958 H 0.9546 0.5451 0.52364 0.0
H1959 H 0.9524 0.54987 0.49664 0.0
H1960 H 0.9759 0.5063 0.45346 0.0
H1961 H 0.95166 0.52411 0.46981 0.0
H1962 H 0.04033 0.44907 0.53729 0.0
H1963 H 0.01969 0.47125 0.55357 0.0
H1964 H 0.06413 0.45332 0.51003 0.0
H1965 H 0.05847 0.45383 0.4831 0.0
C1966 C 0.48691 0.50718 0.51577 0.0
C1967 C 0.51308 0.49176 0.51793 0.0
C1968 C 0.52145 0.49502 0.48005 0.0
C1969 C 0.49446 0.50885 0.47774 0.0
N1970 N 0.44997 0.52566 0.49256 0.0
N1971 N 0.55408 0.46802 0.50254 0.0
C1972 C 0.47674 0.51425 0.49539 0.0
C1973 C 0.53007 0.48487 0.50017 0.0
N1974 N 0.47215 0.51561 0.53328 0.0
N1975 N 0.53899 0.4921 0.46303 0.0
H1976 H 0.56155 0.46102 0.51711 0.0
H1977 H 0.5657 0.45935 0.49009 0.0
H1978 H 0.53291 0.4982 0.44792 0.0
H1979 H 0.56019 0.48534 0.46394 0.0
H1980 H 0.45465 0.52972 0.53303 0.0
H1981 H 0.4785 0.51002 0.54844 0.0
H1982 H 0.43466 0.52703 0.50434 0.0
H1983 H 0.44224 0.53218 0.47797 0.0
loop_
_geom_bond_atom_site_label_1
_geom_bond_atom_site_label_2
_geom_bond_distance
_geom_bond_site_symmetry_2
_ccdc_geom_bond_type
Li0 N17 1.990 . S
Li0 O60 1.956 . S
Li0 O61 1.970 . S
Li0 O62 1.961 . S
Li1 N25 1.990 . S
Li1 O60 1.970 . S
Li1 O61 1.956 . S
Li1 O63 1.961 . S
Li2 N47 1.990 . S
Li2 O60 1.961 . S
Li2 O62 1.956 . S
Li2 O63 1.970 . S
Li3 N53 1.990 . S
Li3 O61 1.961 . S
Li3 O62 1.970 . S
Li3 O63 1.956 . S
C4 C6 1.348 . S
C4 C7 1.356 . S
C4 O60 1.325 1_565 S
N5 C8 1.314 . S
N5 C9 1.279 . S
C6 C4 1.348 . S
C6 C8 1.353 . S
C6 H64 0.929 . S
C7 C4 1.356 . S
C7 C9 1.358 . S
C7 H65 0.930 . S
C8 N5 1.314 . S
C8 C6 1.353 . S
C8 H66 0.930 . S
C9 N5 1.279 . S
C9 C7 1.358 . S
C9 H67 0.930 . S
C10 C13 1.348 . S
C10 C14 1.356 . S
C10 O61 1.325 . S
C11 N12 1.279 . S
C11 C14 1.358 . S
C11 H68 0.930 . S
N12 C11 1.279 . S
N12 C15 1.314 . S
C13 C10 1.348 . S
C13 C15 1.353 . S
C13 H69 0.929 . S
C14 C10 1.356 . S
C14 C11 1.358 . S
C14 H70 0.930 . S
C15 N12 1.314 . S
C15 C13 1.353 . S
C15 H71 0.930 . S
C16 N17 1.314 . S
C16 C21 1.353 1_455 S
C16 H22 0.927 1_455 S
N17 Li0 1.990 . S
N17 C16 1.314 . S
N17 C19 1.279 1_545 S
C18 C19 1.358 . S
C18 C20 1.356 1_455 S
C18 H72 0.930 . S
C19 N17 1.279 1_565 S
C19 C18 1.358 . S
C19 H23 0.930 . S
C20 C18 1.356 1_655 S
C20 C21 1.348 1_565 S
C21 C16 1.353 1_655 S
C21 C20 1.348 1_545 S
C21 H73 0.929 . S
H22 C16 0.927 1_655 S
H23 C19 0.930 . S
C24 N25 1.314 . S
C24 C26 1.353 . S
C24 H30 0.930 . S
N25 Li1 1.990 . S
N25 C24 1.314 . S
N25 C28 1.279 . S
C26 C24 1.353 . S
C26 C29 1.348 . S
C26 H74 0.929 . S
C27 C28 1.358 . S
C27 C29 1.356 . S
C27 H75 0.930 . S
C28 N25 1.279 . S
C28 C27 1.358 . S
C28 H31 0.930 . S
C29 C26 1.348 . S
C29 C27 1.356 . S
H30 C24 0.930 . S
H31 C28 0.930 . S
C32 C34 1.348 . S
C32 C35 1.356 . S
C32 O62 1.325 1_655 S
N33 C36 1.314 . S
N33 C37 1.279 . S
C34 C32 1.348 . S
C34 C36 1.353 . S
C34 H76 0.929 . S
C35 C32 1.356 . S
C35 C37 1.358 . S
C35 H77 0.930 . S
C36 N33 1.314 . S
C36 C34 1.353 . S
C36 H78 0.930 . S
C37 N33 1.279 . S
C37 C35 1.358 . S
C37 H79 0.930 . S
C38 C39 1.348 . S
C38 C40 1.356 . S
C38 O63 1.325 . S
C39 C38 1.348 . S
C39 C41 1.353 . S
C39 H80 0.929 . S
C40 C38 1.356 . S
C40 C42 1.358 . S
C40 H81 0.930 . S
C41 C39 1.353 . S
C41 N43 1.314 . S
C41 H82 0.930 . S
C42 C40 1.358 . S
C42 N43 1.279 . S
C42 H83 0.930 . S
N43 C41 1.314 . S
N43 C42 1.279 . S
C44 C46 1.348 1_545 S
C44 N47 1.314 . S
C44 H50 0.930 . S
C45 N47 1.259 1_655 S
C45 C48 1.368 . S
C45 H51 0.942 . S
C46 C44 1.348 1_565 S
C46 C49 1.343 1_565 S
C46 H84 0.939 . S
N47 Li2 1.990 . S
N47 C44 1.314 . S
N47 C45 1.259 1_455 S
C48 C45 1.368 . S
C48 C49 1.356 1_655 S
C48 H85 0.930 . S
C49 C46 1.343 1_545 S
C49 C48 1.356 1_455 S
H50 C44 0.930 . S
H51 C45 0.942 . S
C52 N53 1.314 . S
C52 C54 1.353 . S
C52 H58 0.930 . S
N53 Li3 1.990 . S
N53 C52 1.314 . S
N53 C56 1.279 . S
C54 C52 1.353 . S
C54 C57 1.348 . S
C54 H86 0.929 . S
C55 C56 1.358 . S
C55 C57 1.356 . S
C55 H87 0.930 . S
C56 N53 1.279 . S
C56 C55 1.358 . S
C56 H59 0.930 . S
C57 C54 1.348 . S
C57 C55 1.356 . S
H58 C52 0.930 . S
H59 C56 0.930 . S
O60 Li0 1.956 . S
O60 Li1 1.970 . S
O60 Li2 1.961 . S
O60 C4 1.325 1_545 S
O61 Li0 1.970 . S
O61 Li1 1.956 . S
O61 Li3 1.961 . S
O61 C10 1.325 . S
O62 Li0 1.961 . S
O62 Li2 1.956 . S
O62 Li3 1.970 . S
O62 C32 1.325 1_455 S
O63 Li1 1.961 . S
O63 Li2 1.970 . S
O63 Li3 1.956 . S
O63 C38 1.325 . S
H64 C6 0.929 . S
H65 C7 0.930 . S
H66 C8 0.930 . S
H67 C9 0.930 . S
H68 C11 0.930 . S
H69 C13 0.929 . S
H70 C14 0.930 . S
H71 C15 0.930 . S
H72 C18 0.930 . S
H73 C21 0.929 . S
H74 C26 0.929 . S
H75 C27 0.930 . S
H76 C34 0.929 . S
H77 C35 0.930 . S
H78 C36 0.930 . S
H79 C37 0.930 . S
H80 C39 0.929 . S
H81 C40 0.930 . S
H82 C41 0.930 . S
H83 C42 0.930 . S
H84 C46 0.939 . S
H85 C48 0.930 . S
H86 C54 0.929 . S
H87 C55 0.930 . S
Li88 N105 1.990 . S
Li88 O148 1.956 . S
Li88 O149 1.970 . S
Li88 O150 1.961 . S
Li89 N113 1.990 . S
Li89 O148 1.970 . S
Li89 O149 1.956 . S
Li89 O151 1.961 . S
Li90 N135 1.990 . S
Li90 O148 1.961 . S
Li90 O150 1.956 . S
Li90 O151 1.970 . S
Li91 N141 1.990 . S
Li91 O149 1.961 . S
Li91 O150 1.970 . S
Li91 O151 1.956 . S
C92 C94 1.348 . S
C92 C95 1.356 . S
C92 O148 1.325 . S
N93 C96 1.314 . S
N93 C97 1.279 . S
C94 C92 1.348 . S
C94 C96 1.353 . S
C94 H152 0.929 . S
C95 C92 1.356 . S
C95 C97 1.358 . S
C95 H153 0.930 . S
C96 N93 1.314 . S
C96 C94 1.353 . S
C96 H154 0.930 . S
C97 N93 1.279 . S
C97 C95 1.358 . S
C97 H155 0.930 . S
C98 C101 1.348 . S
C98 C102 1.356 . S
C98 O149 1.325 . S
C99 N100 1.279 . S
C99 C102 1.358 . S
C99 H156 0.930 . S
N100 C99 1.279 . S
N100 C103 1.314 . S
C101 C98 1.348 . S
C101 C103 1.353 . S
C101 H157 0.929 . S
C102 C98 1.356 . S
C102 C99 1.358 . S
C102 H158 0.930 . S
C103 N100 1.314 . S
C103 C101 1.353 . S
C103 H159 0.930 . S
C104 N105 1.314 . S
C104 C109 1.353 . S
C104 H110 0.930 . S
N105 Li88 1.990 . S
N105 C104 1.314 . S
N105 C107 1.279 . S
C106 C107 1.358 . S
C106 C108 1.356 . S
C106 H160 0.930 . S
C107 N105 1.279 . S
C107 C106 1.358 . S
C107 H111 0.930 . S
C108 C106 1.356 . S
C108 C109 1.348 . S
C109 C104 1.353 . S
C109 C108 1.348 . S
C109 H161 0.929 . S
H110 C104 0.930 . S
H111 C107 0.930 . S
C112 N113 1.314 . S
C112 C114 1.348 1_565 S
C112 H118 0.930 . S
N113 Li89 1.990 . S
N113 C112 1.314 . S
N113 C116 1.279 . S
C114 C112 1.348 1_545 S
C114 C117 1.343 1_545 S
C114 H162 0.939 . S
C115 C116 1.358 . S
C115 C117 1.356 . S
C115 H163 0.930 . S
C116 N113 1.279 . S
C116 C115 1.358 . S
C116 H119 0.930 . S
C117 C114 1.343 1_565 S
C117 C115 1.356 . S
H118 C112 0.930 . S
H119 C116 0.930 . S
C120 C122 1.348 . S
C120 C123 1.356 . S
C120 O150 1.325 . S
N121 C124 1.314 . S
N121 C125 1.279 . S
C122 C120 1.348 . S
C122 C124 1.353 . S
C122 H164 0.929 . S
C123 C120 1.356 . S
C123 C125 1.358 . S
C123 H165 0.930 . S
C124 N121 1.314 . S
C124 C122 1.353 . S
C124 H166 0.930 . S
C125 N121 1.279 . S
C125 C123 1.358 . S
C125 H167 0.930 . S
C126 C127 1.348 . S
C126 C128 1.356 . S
C126 O151 1.325 1_545 S
C127 C126 1.348 . S
C127 C129 1.353 . S
C127 H168 0.929 . S
C128 C126 1.356 . S
C128 C130 1.358 . S
C128 H169 0.930 . S
C129 C127 1.353 . S
C129 N131 1.314 . S
C129 H170 0.930 . S
C130 C128 1.358 . S
C130 N131 1.279 . S
C130 H171 0.930 . S
N131 C129 1.314 . S
N131 C130 1.279 . S
C132 C134 1.353 . S
C132 N135 1.314 . S
C132 H138 0.930 . S
C133 N135 1.279 . S
C133 C136 1.358 . S
C133 H139 0.930 . S
C134 C132 1.353 . S
C134 C137 1.348 . S
C134 H172 0.929 . S
N135 Li90 1.990 . S
N135 C132 1.314 . S
N135 C133 1.279 . S
C136 C133 1.358 . S
C136 C137 1.356 . S
C136 H173 0.930 . S
C137 C134 1.348 . S
C137 C136 1.356 . S
H138 C132 0.930 . S
H139 C133 0.930 . S
C140 N141 1.314 . S
C140 C142 1.353 . S
C140 H146 0.930 . S
N141 Li91 1.990 . S
N141 C140 1.314 . S
N141 C144 1.279 1_565 S
C142 C140 1.353 . S
C142 C145 1.348 1_565 S
C142 H174 0.929 . S
C143 C144 1.358 . S
C143 C145 1.356 . S
C143 H175 0.930 . S
C144 N141 1.279 1_545 S
C144 C143 1.358 . S
C144 H147 0.930 . S
C145 C142 1.348 1_545 S
C145 C143 1.356 . S
H146 C140 0.930 . S
H147 C144 0.930 . S
O148 Li88 1.956 . S
O148 Li89 1.970 . S
O148 Li90 1.961 . S
O148 C92 1.325 . S
O149 Li88 1.970 . S
O149 Li89 1.956 . S
O149 Li91 1.961 . S
O149 C98 1.325 . S
O150 Li88 1.961 . S
O150 Li90 1.956 . S
O150 Li91 1.970 . S
O150 C120 1.325 . S
O151 Li89 1.961 . S
O151 Li90 1.970 . S
O151 Li91 1.956 . S
O151 C126 1.325 1_565 S
H152 C94 0.929 . S
H153 C95 0.930 . S
H154 C96 0.930 . S
H155 C97 0.930 . S
H156 C99 0.930 . S
H157 C101 0.929 . S
H158 C102 0.930 . S
H159 C103 0.930 . S
H160 C106 0.930 . S
H161 C109 0.929 . S
H162 C114 0.939 . S
H163 C115 0.930 . S
H164 C122 0.929 . S
H165 C123 0.930 . S
H166 C124 0.930 . S
H167 C125 0.930 . S
H168 C127 0.929 . S
H169 C128 0.930 . S
H170 C129 0.930 . S
H171 C130 0.930 . S
H172 C134 0.929 . S
H173 C136 0.930 . S
H174 C142 0.929 . S
H175 C143 0.930 . S
Li176 N193 1.990 . S
Li176 O236 1.956 . S
Li176 O237 1.970 . S
Li176 O238 1.961 . S
Li177 N201 1.990 . S
Li177 O236 1.970 . S
Li177 O237 1.956 . S
Li177 O239 1.961 . S
Li178 N223 1.990 . S
Li178 O236 1.961 . S
Li178 O238 1.956 . S
Li178 O239 1.970 . S
Li179 N229 1.990 . S
Li179 O237 1.961 . S
Li179 O238 1.970 . S
Li179 O239 1.956 . S
C180 C182 1.348 . S
C180 C183 1.356 . S
C180 O236 1.325 . S
N181 C184 1.314 . S
N181 C185 1.279 . S
C182 C180 1.348 . S
C182 C184 1.353 . S
C182 H240 0.929 . S
C183 C180 1.356 . S
C183 C185 1.358 . S
C183 H241 0.930 . S
C184 N181 1.314 . S
C184 C182 1.353 . S
C184 H242 0.930 . S
C185 N181 1.279 . S
C185 C183 1.358 . S
C185 H243 0.930 . S
C186 C189 1.348 . S
C186 C190 1.356 . S
C186 O237 1.325 1_545 S
C187 N188 1.279 . S
C187 C190 1.358 . S
C187 H244 0.930 . S
N188 C187 1.279 . S
N188 C191 1.314 . S
C189 C186 1.348 . S
C189 C191 1.353 . S
C189 H245 0.929 . S
C190 C186 1.356 . S
C190 C187 1.358 . S
C190 H246 0.930 . S
C191 N188 1.314 . S
C191 C189 1.353 . S
C191 H247 0.930 . S
C192 N193 1.314 . S
C192 C197 1.353 . S
C192 H198 0.930 . S
N193 Li176 1.990 . S
N193 C192 1.314 . S
N193 C195 1.279 . S
C194 C195 1.358 . S
C194 C196 1.356 . S
C194 H248 0.930 . S
C195 N193 1.279 . S
C195 C194 1.358 . S
C195 H199 0.930 . S
C196 C194 1.356 . S
C196 C197 1.348 . S
C197 C192 1.353 . S
C197 C196 1.348 . S
C197 H249 0.929 . S
H198 C192 0.930 . S
H199 C195 0.930 . S
C200 N201 1.314 . S
C200 C202 1.353 . S
C200 H206 0.930 . S
N201 Li177 1.990 . S
N201 C200 1.314 . S
N201 C204 1.279 1_565 S
C202 C200 1.353 . S
C202 C205 1.348 1_565 S
C202 H250 0.929 . S
C203 C204 1.358 . S
C203 C205 1.356 . S
C203 H251 0.930 . S
C204 N201 1.279 1_545 S
C204 C203 1.358 . S
C204 H207 0.930 . S
C205 C202 1.348 1_545 S
C205 C203 1.356 . S
H206 C200 0.930 . S
H207 C204 0.930 . S
C208 C210 1.348 . S
C208 C211 1.356 . S
C208 O238 1.325 . S
N209 C212 1.314 . S
N209 C213 1.279 . S
C210 C208 1.348 . S
C210 C212 1.353 . S
C210 H252 0.929 . S
C211 C208 1.356 . S
C211 C213 1.358 . S
C211 H253 0.930 . S
C212 N209 1.314 . S
C212 C210 1.353 . S
C212 H254 0.930 . S
C213 N209 1.279 . S
C213 C211 1.358 . S
C213 H255 0.930 . S
C214 C215 1.348 . S
C214 C216 1.356 . S
C214 O239 1.325 . S
C215 C214 1.348 . S
C215 C217 1.353 . S
C215 H256 0.929 . S
C216 C214 1.356 . S
C216 C218 1.358 . S
C216 H257 0.930 . S
C217 C215 1.353 . S
C217 N219 1.314 . S
C217 H258 0.930 . S
C218 C216 1.358 . S
C218 N219 1.279 . S
C218 H259 0.930 . S
N219 C217 1.314 . S
N219 C218 1.279 . S
C220 C222 1.353 . S
C220 N223 1.314 . S
C220 H226 0.930 . S
C221 N223 1.279 . S
C221 C224 1.358 . S
C221 H227 0.930 . S
C222 C220 1.353 . S
C222 C225 1.348 . S
C222 H260 0.929 . S
N223 Li178 1.990 . S
N223 C220 1.314 . S
N223 C221 1.279 . S
C224 C221 1.358 . S
C224 C225 1.356 . S
C224 H261 0.930 . S
C225 C222 1.348 . S
C225 C224 1.356 . S
H226 C220 0.930 . S
H227 C221 0.930 . S
C228 N229 1.314 . S
C228 C230 1.348 1_565 S
C228 H234 0.930 . S
N229 Li179 1.990 . S
N229 C228 1.314 . S
N229 C232 1.279 . S
C230 C228 1.348 1_545 S
C230 C233 1.343 1_545 S
C230 H262 0.939 . S
C231 C232 1.358 . S
C231 C233 1.356 . S
C231 H263 0.930 . S
C232 N229 1.279 . S
C232 C231 1.358 . S
C232 H235 0.930 . S
C233 C230 1.343 1_565 S
C233 C231 1.356 . S
H234 C228 0.930 . S
H235 C232 0.930 . S
O236 Li176 1.956 . S
O236 Li177 1.970 . S
O236 Li178 1.961 . S
O236 C180 1.325 . S
O237 Li176 1.970 . S
O237 Li177 1.956 . S
O237 Li179 1.961 . S
O237 C186 1.325 1_565 S
O238 Li176 1.961 . S
O238 Li178 1.956 . S
O238 Li179 1.970 . S
O238 C208 1.325 . S
O239 Li177 1.961 . S
O239 Li178 1.970 . S
O239 Li179 1.956 . S
O239 C214 1.325 . S
H240 C182 0.929 . S
H241 C183 0.930 . S
H242 C184 0.930 . S
H243 C185 0.930 . S
H244 C187 0.930 . S
H245 C189 0.929 . S
H246 C190 0.930 . S
H247 C191 0.930 . S
H248 C194 0.930 . S
H249 C197 0.929 . S
H250 C202 0.929 . S
H251 C203 0.930 . S
H252 C210 0.929 . S
H253 C211 0.930 . S
H254 C212 0.930 . S
H255 C213 0.930 . S
H256 C215 0.929 . S
H257 C216 0.930 . S
H258 C217 0.930 . S
H259 C218 0.930 . S
H260 C222 0.929 . S
H261 C224 0.930 . S
H262 C230 0.939 . S
H263 C231 0.930 . S
Li264 N281 1.990 . S
Li264 O324 1.956 . S
Li264 O325 1.970 . S
Li264 O326 1.961 . S
Li265 N289 1.990 . S
Li265 O324 1.970 . S
Li265 O325 1.956 . S
Li265 O327 1.961 . S
Li266 N311 1.990 . S
Li266 O324 1.961 . S
Li266 O326 1.956 . S
Li266 O327 1.970 . S
Li267 N317 1.990 . S
Li267 O325 1.961 . S
Li267 O326 1.970 . S
Li267 O327 1.956 . S
C268 C270 1.348 . S
C268 C271 1.356 . S
C268 O324 1.325 1_565 S
N269 C272 1.314 . S
N269 C273 1.279 . S
C270 C268 1.348 . S
C270 C272 1.353 . S
C270 H328 0.929 . S
C271 C268 1.356 . S
C271 C273 1.358 . S
C271 H329 0.930 . S
C272 N269 1.314 . S
C272 C270 1.353 . S
C272 H330 0.930 . S
C273 N269 1.279 . S
C273 C271 1.358 . S
C273 H331 0.930 . S
C274 C277 1.348 . S
C274 C278 1.356 . S
C274 O325 1.325 . S
C275 N276 1.279 . S
C275 C278 1.358 . S
C275 H332 0.930 . S
N276 C275 1.279 . S
N276 C279 1.314 . S
C277 C274 1.348 . S
C277 C279 1.353 . S
C277 H333 0.929 . S
C278 C274 1.356 . S
C278 C275 1.358 . S
C278 H334 0.930 . S
C279 N276 1.314 . S
C279 C277 1.353 . S
C279 H335 0.930 . S
C280 N281 1.314 . S
C280 C285 1.353 1_655 S
C280 H286 0.927 1_655 S
N281 Li264 1.990 . S
N281 C280 1.314 . S
N281 C283 1.279 1_545 S
C282 C283 1.358 . S
C282 C284 1.356 1_655 S
C282 H336 0.930 . S
C283 N281 1.279 1_565 S
C283 C282 1.358 . S
C283 H287 0.930 . S
C284 C282 1.356 1_455 S
C284 C285 1.348 1_565 S
C285 C280 1.353 1_455 S
C285 C284 1.348 1_545 S
C285 H337 0.929 . S
H286 C280 0.927 1_455 S
H287 C283 0.930 . S
C288 N289 1.314 . S
C288 C290 1.353 . S
C288 H294 0.930 . S
N289 Li265 1.990 . S
N289 C288 1.314 . S
N289 C292 1.279 . S
C290 C288 1.353 . S
C290 C293 1.348 . S
C290 H338 0.929 . S
C291 C292 1.358 . S
C291 C293 1.356 . S
C291 H339 0.930 . S
C292 N289 1.279 . S
C292 C291 1.358 . S
C292 H295 0.930 . S
C293 C290 1.348 . S
C293 C291 1.356 . S
H294 C288 0.930 . S
H295 C292 0.930 . S
C296 C298 1.348 . S
C296 C299 1.356 . S
C296 O326 1.325 1_455 S
N297 C300 1.314 . S
N297 C301 1.279 . S
C298 C296 1.348 . S
C298 C300 1.353 . S
C298 H340 0.929 . S
C299 C296 1.356 . S
C299 C301 1.358 . S
C299 H341 0.930 . S
C300 N297 1.314 . S
C300 C298 1.353 . S
C300 H342 0.930 . S
C301 N297 1.279 . S
C301 C299 1.358 . S
C301 H343 0.930 . S
C302 C303 1.348 . S
C302 C304 1.356 . S
C302 O327 1.325 . S
C303 C302 1.348 . S
C303 C305 1.353 . S
C303 H344 0.929 . S
C304 C302 1.356 . S
C304 C306 1.358 . S
C304 H345 0.930 . S
C305 C303 1.353 . S
C305 N307 1.314 . S
C305 H346 0.930 . S
C306 C304 1.358 . S
C306 N307 1.279 . S
C306 H347 0.930 . S
N307 C305 1.314 . S
N307 C306 1.279 . S
C308 C310 1.348 1_545 S
C308 N311 1.314 . S
C308 H314 0.930 . S
C309 N311 1.259 1_455 S
C309 C312 1.368 . S
C309 H315 0.942 . S
C310 C308 1.348 1_565 S
C310 C313 1.343 1_565 S
C310 H348 0.939 . S
N311 Li266 1.990 . S
N311 C308 1.314 . S
N311 C309 1.259 1_655 S
C312 C309 1.368 . S
C312 C313 1.356 1_455 S
C312 H349 0.930 . S
C313 C310 1.343 1_545 S
C313 C312 1.356 1_655 S
H314 C308 0.930 . S
H315 C309 0.942 . S
C316 N317 1.314 . S
C316 C318 1.353 . S
C316 H322 0.930 . S
N317 Li267 1.990 . S
N317 C316 1.314 . S
N317 C320 1.279 . S
C318 C316 1.353 . S
C318 C321 1.348 . S
C318 H350 0.929 . S
C319 C320 1.358 . S
C319 C321 1.356 . S
C319 H351 0.930 . S
C320 N317 1.279 . S
C320 C319 1.358 . S
C320 H323 0.930 . S
C321 C318 1.348 . S
C321 C319 1.356 . S
H322 C316 0.930 . S
H323 C320 0.930 . S
O324 Li264 1.956 . S
O324 Li265 1.970 . S
O324 Li266 1.961 . S
O324 C268 1.325 1_545 S
O325 Li264 1.970 . S
O325 Li265 1.956 . S
O325 Li267 1.961 . S
O325 C274 1.325 . S
O326 Li264 1.961 . S
O326 Li266 1.956 . S
O326 Li267 1.970 . S
O326 C296 1.325 1_655 S
O327 Li265 1.961 . S
O327 Li266 1.970 . S
O327 Li267 1.956 . S
O327 C302 1.325 . S
H328 C270 0.929 . S
H329 C271 0.930 . S
H330 C272 0.930 . S
H331 C273 0.930 . S
H332 C275 0.930 . S
H333 C277 0.929 . S
H334 C278 0.930 . S
H335 C279 0.930 . S
H336 C282 0.930 . S
H337 C285 0.929 . S
H338 C290 0.929 . S
H339 C291 0.930 . S
H340 C298 0.929 . S
H341 C299 0.930 . S
H342 C300 0.930 . S
H343 C301 0.930 . S
H344 C303 0.929 . S
H345 C304 0.930 . S
H346 C305 0.930 . S
H347 C306 0.930 . S
H348 C310 0.939 . S
H349 C312 0.930 . S
H350 C318 0.929 . S
H351 C319 0.930 . S
Li352 N369 1.990 . S
Li352 O412 1.956 . S
Li352 O413 1.970 . S
Li352 O414 1.961 . S
Li353 N377 1.990 . S
Li353 O412 1.970 . S
Li353 O413 1.956 . S
Li353 O415 1.961 . S
Li354 N399 1.990 . S
Li354 O412 1.961 . S
Li354 O414 1.956 . S
Li354 O415 1.970 . S
Li355 N405 1.990 . S
Li355 O413 1.961 . S
Li355 O414 1.970 . S
Li355 O415 1.956 . S
C356 C358 1.348 . S
C356 C359 1.356 . S
C356 O412 1.325 . S
N357 C360 1.314 . S
N357 C361 1.279 . S
C358 C356 1.348 . S
C358 C360 1.353 . S
C358 H416 0.929 . S
C359 C356 1.356 . S
C359 C361 1.358 . S
C359 H417 0.930 . S
C360 N357 1.314 . S
C360 C358 1.353 . S
C360 H418 0.930 . S
C361 N357 1.279 . S
C361 C359 1.358 . S
C361 H419 0.930 . S
C362 C365 1.348 . S
C362 C366 1.356 . S
C362 O413 1.325 1_455 S
C363 N364 1.279 . S
C363 C366 1.358 . S
C363 H420 0.930 . S
N364 C363 1.279 . S
N364 C367 1.314 . S
C365 C362 1.348 . S
C365 C367 1.353 . S
C365 H421 0.929 . S
C366 C362 1.356 . S
C366 C363 1.358 . S
C366 H422 0.930 . S
C367 N364 1.314 . S
C367 C365 1.353 . S
C367 H423 0.930 . S
C368 N369 1.314 . S
C368 C373 1.353 . S
C368 H374 0.930 . S
N369 Li352 1.990 . S
N369 C368 1.314 . S
N369 C371 1.279 . S
C370 C371 1.358 . S
C370 C372 1.356 . S
C370 H424 0.930 . S
C371 N369 1.279 . S
C371 C370 1.358 . S
C371 H375 0.930 . S
C372 C370 1.356 . S
C372 C373 1.348 . S
C373 C368 1.353 . S
C373 C372 1.348 . S
C373 H425 0.929 . S
H374 C368 0.930 . S
H375 C371 0.930 . S
C376 N377 1.314 1_545 S
C376 C378 1.353 . S
C376 H382 0.930 . S
N377 Li353 1.990 . S
N377 C376 1.314 1_565 S
N377 C380 1.279 1_655 S
C378 C376 1.353 . S
C378 C381 1.348 1_655 S
C378 H426 0.929 . S
C379 C380 1.358 . S
C379 C381 1.356 1_565 S
C379 H427 0.930 . S
C380 N377 1.279 1_455 S
C380 C379 1.358 . S
C380 H383 0.930 . S
C381 C378 1.348 1_455 S
C381 C379 1.356 1_545 S
H382 C376 0.930 . S
H383 C380 0.930 . S
C384 C386 1.348 . S
C384 C387 1.356 . S
C384 O414 1.325 . S
N385 C388 1.314 . S
N385 C389 1.279 . S
C386 C384 1.348 . S
C386 C388 1.353 . S
C386 H428 0.929 . S
C387 C384 1.356 . S
C387 C389 1.358 . S
C387 H429 0.930 . S
C388 N385 1.314 . S
C388 C386 1.353 . S
C388 H430 0.930 . S
C389 N385 1.279 . S
C389 C387 1.358 . S
C389 H431 0.930 . S
C390 C391 1.348 . S
C390 C392 1.356 . S
C390 O415 1.325 1_545 S
C391 C390 1.348 . S
C391 C393 1.353 . S
C391 H432 0.929 . S
C392 C390 1.356 . S
C392 C394 1.358 . S
C392 H433 0.930 . S
C393 C391 1.353 . S
C393 N395 1.314 . S
C393 H434 0.930 . S
C394 C392 1.358 . S
C394 N395 1.279 . S
C394 H435 0.930 . S
N395 C393 1.314 . S
N395 C394 1.279 . S
C396 C398 1.353 . S
C396 N399 1.314 . S
C396 H402 0.930 . S
C397 N399 1.279 . S
C397 C400 1.358 . S
C397 H403 0.930 . S
C398 C396 1.353 . S
C398 C401 1.348 . S
C398 H436 0.929 . S
N399 Li354 1.990 . S
N399 C396 1.314 . S
N399 C397 1.279 . S
C400 C397 1.358 . S
C400 C401 1.356 . S
C400 H437 0.930 . S
C401 C398 1.348 . S
C401 C400 1.356 . S
H402 C396 0.930 . S
H403 C397 0.930 . S
C404 N405 1.314 . S
C404 C406 1.353 1_655 S
C404 H410 0.930 . S
N405 Li355 1.990 . S
N405 C404 1.314 . S
N405 C408 1.279 . S
C406 C404 1.353 1_455 S
C406 C409 1.348 1_455 S
C406 H438 0.929 . S
C407 C408 1.358 1_545 S
C407 C409 1.356 1_545 S
C407 H439 0.930 . S
C408 N405 1.279 . S
C408 C407 1.358 1_565 S
C408 H411 0.930 1_565 S
C409 C406 1.348 1_655 S
C409 C407 1.356 1_565 S
H410 C404 0.930 . S
H411 C408 0.930 1_545 S
O412 Li352 1.956 . S
O412 Li353 1.970 . S
O412 Li354 1.961 . S
O412 C356 1.325 . S
O413 Li352 1.970 . S
O413 Li353 1.956 . S
O413 Li355 1.961 . S
O413 C362 1.325 1_655 S
O414 Li352 1.961 . S
O414 Li354 1.956 . S
O414 Li355 1.970 . S
O414 C384 1.325 . S
O415 Li353 1.961 . S
O415 Li354 1.970 . S
O415 Li355 1.956 . S
O415 C390 1.325 1_565 S
H416 C358 0.929 . S
H417 C359 0.930 . S
H418 C360 0.930 . S
H419 C361 0.930 . S
H420 C363 0.930 . S
H421 C365 0.929 . S
H422 C366 0.930 . S
H423 C367 0.930 . S
H424 C370 0.930 . S
H425 C373 0.929 . S
H426 C378 0.929 . S
H427 C379 0.930 . S
H428 C386 0.929 . S
H429 C387 0.930 . S
H430 C388 0.930 . S
H431 C389 0.930 . S
H432 C391 0.929 . S
H433 C392 0.930 . S
H434 C393 0.930 . S
H435 C394 0.930 . S
H436 C398 0.929 . S
H437 C400 0.930 . S
H438 C406 0.929 . S
H439 C407 0.930 . S
Li440 N457 1.990 . S
Li440 O500 1.956 . S
Li440 O501 1.970 . S
Li440 O502 1.961 . S
Li441 N465 1.990 . S
Li441 O500 1.970 . S
Li441 O501 1.956 . S
Li441 O503 1.961 . S
Li442 N487 1.990 . S
Li442 O500 1.961 . S
Li442 O502 1.956 . S
Li442 O503 1.970 . S
Li443 N493 1.990 . S
Li443 O501 1.961 . S
Li443 O502 1.970 . S
Li443 O503 1.956 . S
C444 C446 1.348 . S
C444 C447 1.356 . S
C444 O500 1.325 . S
N445 C448 1.314 . S
N445 C449 1.279 . S
C446 C444 1.348 . S
C446 C448 1.353 . S
C446 H504 0.929 . S
C447 C444 1.356 . S
C447 C449 1.358 . S
C447 H505 0.930 . S
C448 N445 1.314 . S
C448 C446 1.353 . S
C448 H506 0.930 . S
C449 N445 1.279 . S
C449 C447 1.358 . S
C449 H507 0.930 . S
C450 C453 1.348 . S
C450 C454 1.356 . S
C450 O501 1.325 . S
C451 N452 1.279 . S
C451 C454 1.358 . S
C451 H508 0.930 . S
N452 C451 1.279 . S
N452 C455 1.314 . S
C453 C450 1.348 . S
C453 C455 1.353 . S
C453 H509 0.929 . S
C454 C450 1.356 . S
C454 C451 1.358 . S
C454 H510 0.930 . S
C455 N452 1.314 . S
C455 C453 1.353 . S
C455 H511 0.930 . S
C456 N457 1.314 . S
C456 C461 1.353 . S
C456 H462 0.930 . S
N457 Li440 1.990 . S
N457 C456 1.314 . S
N457 C459 1.279 . S
C458 C459 1.358 . S
C458 C460 1.356 . S
C458 H512 0.930 . S
C459 N457 1.279 . S
C459 C458 1.358 . S
C459 H463 0.930 . S
C460 C458 1.356 . S
C460 C461 1.348 . S
C461 C456 1.353 . S
C461 C460 1.348 . S
C461 H513 0.929 . S
H462 C456 0.930 . S
H463 C459 0.930 . S
C464 N465 1.314 1_565 S
C464 C466 1.353 . S
C464 H470 0.930 . S
N465 Li441 1.990 . S
N465 C464 1.314 1_545 S
N465 C468 1.279 . S
C466 C464 1.353 . S
C466 C469 1.348 . S
C466 H514 0.929 . S
C467 C468 1.358 . S
C467 C469 1.356 1_545 S
C467 H515 0.930 . S
C468 N465 1.279 . S
C468 C467 1.358 . S
C468 H471 0.930 . S
C469 C466 1.348 . S
C469 C467 1.356 1_565 S
H470 C464 0.930 . S
H471 C468 0.930 . S
C472 C474 1.348 . S
C472 C475 1.356 . S
C472 O502 1.325 . S
N473 C476 1.314 . S
N473 C477 1.279 . S
C474 C472 1.348 . S
C474 C476 1.353 . S
C474 H516 0.929 . S
C475 C472 1.356 . S
C475 C477 1.358 . S
C475 H517 0.930 . S
C476 N473 1.314 . S
C476 C474 1.353 . S
C476 H518 0.930 . S
C477 N473 1.279 . S
C477 C475 1.358 . S
C477 H519 0.930 . S
C478 C479 1.348 . S
C478 C480 1.356 . S
C478 O503 1.325 1_565 S
C479 C478 1.348 . S
C479 C481 1.353 . S
C479 H520 0.929 . S
C480 C478 1.356 . S
C480 C482 1.358 . S
C480 H521 0.930 . S
C481 C479 1.353 . S
C481 N483 1.314 . S
C481 H522 0.930 . S
C482 C480 1.358 . S
C482 N483 1.279 . S
C482 H523 0.930 . S
N483 C481 1.314 . S
N483 C482 1.279 . S
C484 C486 1.353 . S
C484 N487 1.314 . S
C484 H490 0.930 . S
C485 N487 1.279 . S
C485 C488 1.358 . S
C485 H491 0.930 . S
C486 C484 1.353 . S
C486 C489 1.348 . S
C486 H524 0.929 . S
N487 Li442 1.990 . S
N487 C484 1.314 . S
N487 C485 1.279 . S
C488 C485 1.358 . S
C488 C489 1.356 . S
C488 H525 0.930 . S
C489 C486 1.348 . S
C489 C488 1.356 . S
H490 C484 0.930 . S
H491 C485 0.930 . S
C492 N493 1.314 . S
C492 C494 1.353 . S
C492 H498 0.930 . S
N493 Li443 1.990 . S
N493 C492 1.314 . S
N493 C496 1.279 . S
C494 C492 1.353 . S
C494 C497 1.348 . S
C494 H526 0.929 . S
C495 C496 1.358 1_565 S
C495 C497 1.356 1_565 S
C495 H527 0.930 . S
C496 N493 1.279 . S
C496 C495 1.358 1_545 S
C496 H499 0.930 1_545 S
C497 C494 1.348 . S
C497 C495 1.356 1_545 S
H498 C492 0.930 . S
H499 C496 0.930 1_565 S
O500 Li440 1.956 . S
O500 Li441 1.970 . S
O500 Li442 1.961 . S
O500 C444 1.325 . S
O501 Li440 1.970 . S
O501 Li441 1.956 . S
O501 Li443 1.961 . S
O501 C450 1.325 . S
O502 Li440 1.961 . S
O502 Li442 1.956 . S
O502 Li443 1.970 . S
O502 C472 1.325 . S
O503 Li441 1.961 . S
O503 Li442 1.970 . S
O503 Li443 1.956 . S
O503 C478 1.325 1_545 S
H504 C446 0.929 . S
H505 C447 0.930 . S
H506 C448 0.930 . S
H507 C449 0.930 . S
H508 C451 0.930 . S
H509 C453 0.929 . S
H510 C454 0.930 . S
H511 C455 0.930 . S
H512 C458 0.930 . S
H513 C461 0.929 . S
H514 C466 0.929 . S
H515 C467 0.930 . S
H516 C474 0.929 . S
H517 C475 0.930 . S
H518 C476 0.930 . S
H519 C477 0.930 . S
H520 C479 0.929 . S
H521 C480 0.930 . S
H522 C481 0.930 . S
H523 C482 0.930 . S
H524 C486 0.929 . S
H525 C488 0.930 . S
H526 C494 0.929 . S
H527 C495 0.930 . S
Li528 N545 1.990 . S
Li528 O588 1.956 . S
Li528 O589 1.970 . S
Li528 O590 1.961 . S
Li529 N553 1.990 . S
Li529 O588 1.970 . S
Li529 O589 1.956 . S
Li529 O591 1.961 . S
Li530 N575 1.990 . S
Li530 O588 1.961 . S
Li530 O590 1.956 . S
Li530 O591 1.970 . S
Li531 N581 1.990 . S
Li531 O589 1.961 . S
Li531 O590 1.970 . S
Li531 O591 1.956 . S
C532 C534 1.348 . S
C532 C535 1.356 . S
C532 O588 1.325 . S
N533 C536 1.314 . S
N533 C537 1.279 . S
C534 C532 1.348 . S
C534 C536 1.353 . S
C534 H592 0.929 . S
C535 C532 1.356 . S
C535 C537 1.358 . S
C535 H593 0.930 . S
C536 N533 1.314 . S
C536 C534 1.353 . S
C536 H594 0.930 . S
C537 N533 1.279 . S
C537 C535 1.358 . S
C537 H595 0.930 . S
C538 C541 1.348 . S
C538 C542 1.356 . S
C538 O589 1.325 1_565 S
C539 N540 1.279 . S
C539 C542 1.358 . S
C539 H596 0.930 . S
N540 C539 1.279 . S
N540 C543 1.314 . S
C541 C538 1.348 . S
C541 C543 1.353 . S
C541 H597 0.929 . S
C542 C538 1.356 . S
C542 C539 1.358 . S
C542 H598 0.930 . S
C543 N540 1.314 . S
C543 C541 1.353 . S
C543 H599 0.930 . S
C544 N545 1.314 . S
C544 C549 1.353 . S
C544 H550 0.930 . S
N545 Li528 1.990 . S
N545 C544 1.314 . S
N545 C547 1.279 . S
C546 C547 1.358 . S
C546 C548 1.356 . S
C546 H600 0.930 . S
C547 N545 1.279 . S
C547 C546 1.358 . S
C547 H551 0.930 . S
C548 C546 1.356 . S
C548 C549 1.348 . S
C549 C544 1.353 . S
C549 C548 1.348 . S
C549 H601 0.929 . S
H550 C544 0.930 . S
H551 C547 0.930 . S
C552 N553 1.314 . S
C552 C554 1.353 . S
C552 H558 0.930 . S
N553 Li529 1.990 . S
N553 C552 1.314 . S
N553 C556 1.279 . S
C554 C552 1.353 . S
C554 C557 1.348 . S
C554 H602 0.929 . S
C555 C556 1.358 1_565 S
C555 C557 1.356 1_565 S
C555 H603 0.930 . S
C556 N553 1.279 . S
C556 C555 1.358 1_545 S
C556 H559 0.930 1_545 S
C557 C554 1.348 . S
C557 C555 1.356 1_545 S
H558 C552 0.930 . S
H559 C556 0.930 1_565 S
C560 C562 1.348 . S
C560 C563 1.356 . S
C560 O590 1.325 . S
N561 C564 1.314 . S
N561 C565 1.279 . S
C562 C560 1.348 . S
C562 C564 1.353 . S
C562 H604 0.929 . S
C563 C560 1.356 . S
C563 C565 1.358 . S
C563 H605 0.930 . S
C564 N561 1.314 . S
C564 C562 1.353 . S
C564 H606 0.930 . S
C565 N561 1.279 . S
C565 C563 1.358 . S
C565 H607 0.930 . S
C566 C567 1.348 . S
C566 C568 1.356 . S
C566 O591 1.325 . S
C567 C566 1.348 . S
C567 C569 1.353 . S
C567 H608 0.929 . S
C568 C566 1.356 . S
C568 C570 1.358 . S
C568 H609 0.930 . S
C569 C567 1.353 . S
C569 N571 1.314 . S
C569 H610 0.930 . S
C570 C568 1.358 . S
C570 N571 1.279 . S
C570 H611 0.930 . S
N571 C569 1.314 . S
N571 C570 1.279 . S
C572 C574 1.353 . S
C572 N575 1.314 . S
C572 H578 0.930 . S
C573 N575 1.279 . S
C573 C576 1.358 . S
C573 H579 0.930 . S
C574 C572 1.353 . S
C574 C577 1.348 . S
C574 H612 0.929 . S
N575 Li530 1.990 . S
N575 C572 1.314 . S
N575 C573 1.279 . S
C576 C573 1.358 . S
C576 C577 1.356 . S
C576 H613 0.930 . S
C577 C574 1.348 . S
C577 C576 1.356 . S
H578 C572 0.930 . S
H579 C573 0.930 . S
C580 N581 1.314 1_565 S
C580 C582 1.353 . S
C580 H586 0.930 . S
N581 Li531 1.990 . S
N581 C580 1.314 1_545 S
N581 C584 1.279 . S
C582 C580 1.353 . S
C582 C585 1.348 . S
C582 H614 0.929 . S
C583 C584 1.358 . S
C583 C585 1.356 1_545 S
C583 H615 0.930 . S
C584 N581 1.279 . S
C584 C583 1.358 . S
C584 H587 0.930 . S
C585 C582 1.348 . S
C585 C583 1.356 1_565 S
H586 C580 0.930 . S
H587 C584 0.930 . S
O588 Li528 1.956 . S
O588 Li529 1.970 . S
O588 Li530 1.961 . S
O588 C532 1.325 . S
O589 Li528 1.970 . S
O589 Li529 1.956 . S
O589 Li531 1.961 . S
O589 C538 1.325 1_545 S
O590 Li528 1.961 . S
O590 Li530 1.956 . S
O590 Li531 1.970 . S
O590 C560 1.325 . S
O591 Li529 1.961 . S
O591 Li530 1.970 . S
O591 Li531 1.956 . S
O591 C566 1.325 . S
H592 C534 0.929 . S
H593 C535 0.930 . S
H594 C536 0.930 . S
H595 C537 0.930 . S
H596 C539 0.930 . S
H597 C541 0.929 . S
H598 C542 0.930 . S
H599 C543 0.930 . S
H600 C546 0.930 . S
H601 C549 0.929 . S
H602 C554 0.929 . S
H603 C555 0.930 . S
H604 C562 0.929 . S
H605 C563 0.930 . S
H606 C564 0.930 . S
H607 C565 0.930 . S
H608 C567 0.929 . S
H609 C568 0.930 . S
H610 C569 0.930 . S
H611 C570 0.930 . S
H612 C574 0.929 . S
H613 C576 0.930 . S
H614 C582 0.929 . S
H615 C583 0.930 . S
Li616 N633 1.990 . S
Li616 O676 1.956 . S
Li616 O677 1.970 . S
Li616 O678 1.961 . S
Li617 N641 1.990 . S
Li617 O676 1.970 . S
Li617 O677 1.956 . S
Li617 O679 1.961 . S
Li618 N663 1.990 . S
Li618 O676 1.961 . S
Li618 O678 1.956 . S
Li618 O679 1.970 . S
Li619 N669 1.990 . S
Li619 O677 1.961 . S
Li619 O678 1.970 . S
Li619 O679 1.956 . S
C620 C622 1.348 . S
C620 C623 1.356 . S
C620 O676 1.325 1_545 S
N621 C624 1.314 . S
N621 C625 1.279 . S
C622 C620 1.348 . S
C622 C624 1.353 . S
C622 H680 0.929 . S
C623 C620 1.356 . S
C623 C625 1.358 . S
C623 H681 0.930 . S
C624 N621 1.314 . S
C624 C622 1.353 . S
C624 H682 0.930 . S
C625 N621 1.279 . S
C625 C623 1.358 . S
C625 H683 0.930 . S
C626 C629 1.348 . S
C626 C630 1.356 . S
C626 O677 1.325 . S
C627 N628 1.279 . S
C627 C630 1.358 . S
C627 H684 0.930 . S
N628 C627 1.279 . S
N628 C631 1.314 . S
C629 C626 1.348 . S
C629 C631 1.353 . S
C629 H685 0.929 . S
C630 C626 1.356 . S
C630 C627 1.358 . S
C630 H686 0.930 . S
C631 N628 1.314 . S
C631 C629 1.353 . S
C631 H687 0.930 . S
C632 N633 1.314 . S
C632 C637 1.353 1_455 S
C632 H638 0.930 . S
N633 Li616 1.990 . S
N633 C632 1.314 . S
N633 C635 1.279 . S
C634 C635 1.358 1_545 S
C634 C636 1.356 1_545 S
C634 H688 0.930 . S
C635 N633 1.279 . S
C635 C634 1.358 1_565 S
C635 H639 0.930 1_565 S
C636 C634 1.356 1_565 S
C636 C637 1.348 1_455 S
C637 C632 1.353 1_655 S
C637 C636 1.348 1_655 S
C637 H689 0.929 . S
H638 C632 0.930 . S
H639 C635 0.930 1_545 S
C640 N641 1.314 . S
C640 C642 1.353 . S
C640 H646 0.930 . S
N641 Li617 1.990 . S
N641 C640 1.314 . S
N641 C644 1.279 . S
C642 C640 1.353 . S
C642 C645 1.348 . S
C642 H690 0.929 . S
C643 C644 1.358 . S
C643 C645 1.356 . S
C643 H691 0.930 . S
C644 N641 1.279 . S
C644 C643 1.358 . S
C644 H647 0.930 . S
C645 C642 1.348 . S
C645 C643 1.356 . S
H646 C640 0.930 . S
H647 C644 0.930 . S
C648 C650 1.348 . S
C648 C651 1.356 . S
C648 O678 1.325 1_655 S
N649 C652 1.314 . S
N649 C653 1.279 . S
C650 C648 1.348 . S
C650 C652 1.353 . S
C650 H692 0.929 . S
C651 C648 1.356 . S
C651 C653 1.358 . S
C651 H693 0.930 . S
C652 N649 1.314 . S
C652 C650 1.353 . S
C652 H694 0.930 . S
C653 N649 1.279 . S
C653 C651 1.358 . S
C653 H695 0.930 . S
C654 C655 1.348 . S
C654 C656 1.356 . S
C654 O679 1.325 . S
C655 C654 1.348 . S
C655 C657 1.353 . S
C655 H696 0.929 . S
C656 C654 1.356 . S
C656 C658 1.358 . S
C656 H697 0.930 . S
C657 C655 1.353 . S
C657 N659 1.314 . S
C657 H698 0.930 . S
C658 C656 1.358 . S
C658 N659 1.279 . S
C658 H699 0.930 . S
N659 C657 1.314 . S
N659 C658 1.279 . S
C660 C662 1.353 . S
C660 N663 1.314 1_545 S
C660 H666 0.930 . S
C661 N663 1.279 1_655 S
C661 C664 1.358 . S
C661 H667 0.930 . S
C662 C660 1.353 . S
C662 C665 1.348 1_455 S
C662 H700 0.929 . S
N663 Li618 1.990 . S
N663 C660 1.314 1_565 S
N663 C661 1.279 1_455 S
C664 C661 1.358 . S
C664 C665 1.356 1_565 S
C664 H701 0.930 . S
C665 C662 1.348 1_655 S
C665 C664 1.356 1_545 S
H666 C660 0.930 . S
H667 C661 0.930 . S
C668 N669 1.314 . S
C668 C670 1.353 . S
C668 H674 0.930 . S
N669 Li619 1.990 . S
N669 C668 1.314 . S
N669 C672 1.279 . S
C670 C668 1.353 . S
C670 C673 1.348 . S
C670 H702 0.929 . S
C671 C672 1.358 . S
C671 C673 1.356 . S
C671 H703 0.930 . S
C672 N669 1.279 . S
C672 C671 1.358 . S
C672 H675 0.930 . S
C673 C670 1.348 . S
C673 C671 1.356 . S
H674 C668 0.930 . S
H675 C672 0.930 . S
O676 Li616 1.956 . S
O676 Li617 1.970 . S
O676 Li618 1.961 . S
O676 C620 1.325 1_565 S
O677 Li616 1.970 . S
O677 Li617 1.956 . S
O677 Li619 1.961 . S
O677 C626 1.325 . S
O678 Li616 1.961 . S
O678 Li618 1.956 . S
O678 Li619 1.970 . S
O678 C648 1.325 1_455 S
O679 Li617 1.961 . S
O679 Li618 1.970 . S
O679 Li619 1.956 . S
O679 C654 1.325 . S
H680 C622 0.929 . S
H681 C623 0.930 . S
H682 C624 0.930 . S
H683 C625 0.930 . S
H684 C627 0.930 . S
H685 C629 0.929 . S
H686 C630 0.930 . S
H687 C631 0.930 . S
H688 C634 0.930 . S
H689 C637 0.929 . S
H690 C642 0.929 . S
H691 C643 0.930 . S
H692 C650 0.929 . S
H693 C651 0.930 . S
H694 C652 0.930 . S
H695 C653 0.930 . S
H696 C655 0.929 . S
H697 C656 0.930 . S
H698 C657 0.930 . S
H699 C658 0.930 . S
H700 C662 0.929 . S
H701 C664 0.930 . S
H702 C670 0.929 . S
H703 C671 0.930 . S
Li704 N721 1.990 . S
Li704 O764 1.956 . S
Li704 O765 1.970 . S
Li704 O766 1.961 . S
Li705 N729 1.990 . S
Li705 O764 1.970 . S
Li705 O765 1.956 . S
Li705 O767 1.961 . S
Li706 N751 1.990 . S
Li706 O764 1.961 . S
Li706 O766 1.956 . S
Li706 O767 1.970 . S
Li707 N757 1.990 . S
Li707 O765 1.961 . S
Li707 O766 1.970 . S
Li707 O767 1.956 . S
C708 C710 1.348 . S
C708 C711 1.356 . S
C708 O764 1.325 . S
N709 C712 1.314 . S
N709 C713 1.279 . S
C710 C708 1.348 . S
C710 C712 1.353 . S
C710 H768 0.929 . S
C711 C708 1.356 . S
C711 C713 1.358 . S
C711 H769 0.930 . S
C712 N709 1.314 . S
C712 C710 1.353 . S
C712 H770 0.930 . S
C713 N709 1.279 . S
C713 C711 1.358 . S
C713 H771 0.930 . S
C714 C717 1.348 . S
C714 C718 1.356 . S
C714 O765 1.325 . S
C715 N716 1.279 . S
C715 C718 1.358 . S
C715 H772 0.930 . S
N716 C715 1.279 . S
N716 C719 1.314 . S
C717 C714 1.348 . S
C717 C719 1.353 . S
C717 H773 0.929 . S
C718 C714 1.356 . S
C718 C715 1.358 . S
C718 H774 0.930 . S
C719 N716 1.314 . S
C719 C717 1.353 . S
C719 H775 0.930 . S
C720 N721 1.314 . S
C720 C725 1.353 . S
C720 H726 0.930 . S
N721 Li704 1.990 . S
N721 C720 1.314 . S
N721 C723 1.279 . S
C722 C723 1.358 . S
C722 C724 1.356 . S
C722 H776 0.930 . S
C723 N721 1.279 . S
C723 C722 1.358 . S
C723 H727 0.930 . S
C724 C722 1.356 . S
C724 C725 1.348 . S
C725 C720 1.353 . S
C725 C724 1.348 . S
C725 H777 0.929 . S
H726 C720 0.930 . S
H727 C723 0.930 . S
C728 N729 1.314 . S
C728 C730 1.353 . S
C728 H734 0.930 . S
N729 Li705 1.990 . S
N729 C728 1.314 . S
N729 C732 1.279 . S
C730 C728 1.353 . S
C730 C733 1.348 . S
C730 H778 0.929 . S
C731 C732 1.358 . S
C731 C733 1.356 . S
C731 H779 0.930 . S
C732 N729 1.279 . S
C732 C731 1.358 . S
C732 H735 0.930 . S
C733 C730 1.348 . S
C733 C731 1.356 . S
H734 C728 0.930 . S
H735 C732 0.930 . S
C736 C738 1.348 . S
C736 C739 1.356 . S
C736 O766 1.325 . S
N737 C740 1.314 . S
N737 C741 1.279 . S
C738 C736 1.348 . S
C738 C740 1.353 . S
C738 H780 0.929 . S
C739 C736 1.356 . S
C739 C741 1.358 . S
C739 H781 0.930 . S
C740 N737 1.314 . S
C740 C738 1.353 . S
C740 H782 0.930 . S
C741 N737 1.279 . S
C741 C739 1.358 . S
C741 H783 0.930 . S
C742 C743 1.348 . S
C742 C744 1.356 . S
C742 O767 1.325 . S
C743 C742 1.348 . S
C743 C745 1.353 . S
C743 H784 0.929 . S
C744 C742 1.356 . S
C744 C746 1.358 . S
C744 H785 0.930 . S
C745 C743 1.353 . S
C745 N747 1.314 . S
C745 H786 0.930 . S
C746 C744 1.358 . S
C746 N747 1.279 . S
C746 H787 0.930 . S
N747 C745 1.314 . S
N747 C746 1.279 . S
C748 C750 1.353 . S
C748 N751 1.314 . S
C748 H754 0.930 . S
C749 N751 1.279 . S
C749 C752 1.358 . S
C749 H755 0.930 . S
C750 C748 1.353 . S
C750 C753 1.348 . S
C750 H788 0.929 . S
N751 Li706 1.990 . S
N751 C748 1.314 . S
N751 C749 1.279 . S
C752 C749 1.358 . S
C752 C753 1.356 . S
C752 H789 0.930 . S
C753 C750 1.348 . S
C753 C752 1.356 . S
H754 C748 0.930 . S
H755 C749 0.930 . S
C756 N757 1.314 . S
C756 C758 1.353 . S
C756 H762 0.930 . S
N757 Li707 1.990 . S
N757 C756 1.314 . S
N757 C760 1.279 . S
C758 C756 1.353 . S
C758 C761 1.348 . S
C758 H790 0.929 . S
C759 C760 1.358 . S
C759 C761 1.356 . S
C759 H791 0.930 . S
C760 N757 1.279 . S
C760 C759 1.358 . S
C760 H763 0.930 . S
C761 C758 1.348 . S
C761 C759 1.356 . S
H762 C756 0.930 . S
H763 C760 0.930 . S
O764 Li704 1.956 . S
O764 Li705 1.970 . S
O764 Li706 1.961 . S
O764 C708 1.325 . S
O765 Li704 1.970 . S
O765 Li705 1.956 . S
O765 Li707 1.961 . S
O765 C714 1.325 . S
O766 Li704 1.961 . S
O766 Li706 1.956 . S
O766 Li707 1.970 . S
O766 C736 1.325 . S
O767 Li705 1.961 . S
O767 Li706 1.970 . S
O767 Li707 1.956 . S
O767 C742 1.325 . S
H768 C710 0.929 . S
H769 C711 0.930 . S
H770 C712 0.930 . S
H771 C713 0.930 . S
H772 C715 0.930 . S
H773 C717 0.929 . S
H774 C718 0.930 . S
H775 C719 0.930 . S
H776 C722 0.930 . S
H777 C725 0.929 . S
H778 C730 0.929 . S
H779 C731 0.930 . S
H780 C738 0.929 . S
H781 C739 0.930 . S
H782 C740 0.930 . S
H783 C741 0.930 . S
H784 C743 0.929 . S
H785 C744 0.930 . S
H786 C745 0.930 . S
H787 C746 0.930 . S
H788 C750 0.929 . S
H789 C752 0.930 . S
H790 C758 0.929 . S
H791 C759 0.930 . S
Li792 N809 1.990 . S
Li792 O852 1.956 . S
Li792 O853 1.970 . S
Li792 O854 1.961 . S
Li793 N817 1.990 . S
Li793 O852 1.970 . S
Li793 O853 1.956 . S
Li793 O855 1.961 . S
Li794 N839 1.990 . S
Li794 O852 1.961 . S
Li794 O854 1.956 . S
Li794 O855 1.970 . S
Li795 N845 1.990 . S
Li795 O853 1.961 . S
Li795 O854 1.970 . S
Li795 O855 1.956 . S
C796 C798 1.348 . S
C796 C799 1.356 . S
C796 O852 1.325 . S
N797 C800 1.314 . S
N797 C801 1.279 . S
C798 C796 1.348 . S
C798 C800 1.353 . S
C798 H856 0.929 . S
C799 C796 1.356 . S
C799 C801 1.358 . S
C799 H857 0.930 . S
C800 N797 1.314 . S
C800 C798 1.353 . S
C800 H858 0.930 . S
C801 N797 1.279 . S
C801 C799 1.358 . S
C801 H859 0.930 . S
C802 C805 1.348 . S
C802 C806 1.356 . S
C802 O853 1.325 1_455 S
C803 N804 1.279 . S
C803 C806 1.358 . S
C803 H860 0.930 . S
N804 C803 1.279 . S
N804 C807 1.314 . S
C805 C802 1.348 . S
C805 C807 1.353 . S
C805 H861 0.929 . S
C806 C802 1.356 . S
C806 C803 1.358 . S
C806 H862 0.930 . S
C807 N804 1.314 . S
C807 C805 1.353 . S
C807 H863 0.930 . S
C808 N809 1.314 . S
C808 C813 1.353 . S
C808 H814 0.930 . S
N809 Li792 1.990 . S
N809 C808 1.314 . S
N809 C811 1.279 . S
C810 C811 1.358 . S
C810 C812 1.356 . S
C810 H864 0.930 . S
C811 N809 1.279 . S
C811 C810 1.358 . S
C811 H815 0.930 . S
C812 C810 1.356 . S
C812 C813 1.348 . S
C813 C808 1.353 . S
C813 C812 1.348 . S
C813 H865 0.929 . S
H814 C808 0.930 . S
H815 C811 0.930 . S
C816 N817 1.314 . S
C816 C818 1.353 . S
C816 H822 0.930 . S
N817 Li793 1.990 . S
N817 C816 1.314 . S
N817 C820 1.259 1_655 S
C818 C816 1.353 . S
C818 C821 1.348 . S
C818 H866 0.929 . S
C819 C820 1.368 . S
C819 C821 1.356 1_455 S
C819 H867 0.930 . S
C820 N817 1.259 1_455 S
C820 C819 1.368 . S
C820 H823 0.942 . S
C821 C818 1.348 . S
C821 C819 1.356 1_655 S
H822 C816 0.930 . S
H823 C820 0.942 . S
C824 C826 1.348 . S
C824 C827 1.356 . S
C824 O854 1.325 . S
N825 C828 1.314 . S
N825 C829 1.279 . S
C826 C824 1.348 . S
C826 C828 1.353 . S
C826 H868 0.929 . S
C827 C824 1.356 . S
C827 C829 1.358 . S
C827 H869 0.930 . S
C828 N825 1.314 . S
C828 C826 1.353 . S
C828 H870 0.930 . S
C829 N825 1.279 . S
C829 C827 1.358 . S
C829 H871 0.930 . S
C830 C831 1.348 . S
C830 C832 1.356 . S
C830 O855 1.325 . S
C831 C830 1.348 . S
C831 C833 1.353 . S
C831 H872 0.929 . S
C832 C830 1.356 . S
C832 C834 1.358 . S
C832 H873 0.930 . S
C833 C831 1.353 . S
C833 N835 1.314 . S
C833 H874 0.930 . S
C834 C832 1.358 . S
C834 N835 1.279 . S
C834 H875 0.930 . S
N835 C833 1.314 . S
N835 C834 1.279 . S
C836 C838 1.353 . S
C836 N839 1.314 . S
C836 H842 0.930 . S
C837 N839 1.279 . S
C837 C840 1.358 . S
C837 H843 0.930 . S
C838 C836 1.353 . S
C838 C841 1.348 . S
C838 H876 0.929 . S
N839 Li794 1.990 . S
N839 C836 1.314 . S
N839 C837 1.279 . S
C840 C837 1.358 . S
C840 C841 1.356 . S
C840 H877 0.930 . S
C841 C838 1.348 . S
C841 C840 1.356 . S
H842 C836 0.930 . S
H843 C837 0.930 . S
C844 N845 1.314 . S
C844 C846 1.353 1_655 S
C844 H850 0.927 1_655 S
N845 Li795 1.990 . S
N845 C844 1.314 . S
N845 C848 1.279 . S
C846 C844 1.353 1_455 S
C846 C849 1.348 . S
C846 H878 0.929 . S
C847 C848 1.358 . S
C847 C849 1.356 1_655 S
C847 H879 0.930 . S
C848 N845 1.279 . S
C848 C847 1.358 . S
C848 H851 0.930 . S
C849 C846 1.348 . S
C849 C847 1.356 1_455 S
H850 C844 0.927 1_455 S
H851 C848 0.930 . S
O852 Li792 1.956 . S
O852 Li793 1.970 . S
O852 Li794 1.961 . S
O852 C796 1.325 . S
O853 Li792 1.970 . S
O853 Li793 1.956 . S
O853 Li795 1.961 . S
O853 C802 1.325 1_655 S
O854 Li792 1.961 . S
O854 Li794 1.956 . S
O854 Li795 1.970 . S
O854 C824 1.325 . S
O855 Li793 1.961 . S
O855 Li794 1.970 . S
O855 Li795 1.956 . S
O855 C830 1.325 . S
H856 C798 0.929 . S
H857 C799 0.930 . S
H858 C800 0.930 . S
H859 C801 0.930 . S
H860 C803 0.930 . S
H861 C805 0.929 . S
H862 C806 0.930 . S
H863 C807 0.930 . S
H864 C810 0.930 . S
H865 C813 0.929 . S
H866 C818 0.929 . S
H867 C819 0.930 . S
H868 C826 0.929 . S
H869 C827 0.930 . S
H870 C828 0.930 . S
H871 C829 0.930 . S
H872 C831 0.929 . S
H873 C832 0.930 . S
H874 C833 0.930 . S
H875 C834 0.930 . S
H876 C838 0.929 . S
H877 C840 0.930 . S
H878 C846 0.929 . S
H879 C847 0.930 . S
Li880 N897 1.990 . S
Li880 O940 1.956 . S
Li880 O941 1.970 . S
Li880 O942 1.961 . S
Li881 N905 1.990 . S
Li881 O940 1.970 . S
Li881 O941 1.956 . S
Li881 O943 1.961 . S
Li882 N927 1.990 . S
Li882 O940 1.961 . S
Li882 O942 1.956 . S
Li882 O943 1.970 . S
Li883 N933 1.990 . S
Li883 O941 1.961 . S
Li883 O942 1.970 . S
Li883 O943 1.956 . S
C884 C886 1.348 . S
C884 C887 1.356 . S
C884 O940 1.325 . S
N885 C888 1.314 . S
N885 C889 1.279 . S
C886 C884 1.348 . S
C886 C888 1.353 . S
C886 H944 0.929 . S
C887 C884 1.356 . S
C887 C889 1.358 . S
C887 H945 0.930 . S
C888 N885 1.314 . S
C888 C886 1.353 . S
C888 H946 0.930 . S
C889 N885 1.279 . S
C889 C887 1.358 . S
C889 H947 0.930 . S
C890 C893 1.348 . S
C890 C894 1.356 . S
C890 O941 1.325 . S
C891 N892 1.279 . S
C891 C894 1.358 . S
C891 H948 0.930 . S
N892 C891 1.279 . S
N892 C895 1.314 . S
C893 C890 1.348 . S
C893 C895 1.353 . S
C893 H949 0.929 . S
C894 C890 1.356 . S
C894 C891 1.358 . S
C894 H950 0.930 . S
C895 N892 1.314 . S
C895 C893 1.353 . S
C895 H951 0.930 . S
C896 N897 1.314 . S
C896 C901 1.353 1_455 S
C896 H902 0.927 1_455 S
N897 Li880 1.990 . S
N897 C896 1.314 . S
N897 C899 1.279 . S
C898 C899 1.358 . S
C898 C900 1.356 1_455 S
C898 H952 0.930 . S
C899 N897 1.279 . S
C899 C898 1.358 . S
C899 H903 0.930 . S
C900 C898 1.356 1_655 S
C900 C901 1.348 . S
C901 C896 1.353 1_655 S
C901 C900 1.348 . S
C901 H953 0.929 . S
H902 C896 0.927 1_655 S
H903 C899 0.930 . S
C904 N905 1.314 . S
C904 C906 1.353 . S
C904 H910 0.930 . S
N905 Li881 1.990 . S
N905 C904 1.314 . S
N905 C908 1.279 . S
C906 C904 1.353 . S
C906 C909 1.348 . S
C906 H954 0.929 . S
C907 C908 1.358 . S
C907 C909 1.356 . S
C907 H955 0.930 . S
C908 N905 1.279 . S
C908 C907 1.358 . S
C908 H911 0.930 . S
C909 C906 1.348 . S
C909 C907 1.356 . S
H910 C904 0.930 . S
H911 C908 0.930 . S
C912 C914 1.348 . S
C912 C915 1.356 . S
C912 O942 1.325 1_655 S
N913 C916 1.314 . S
N913 C917 1.279 . S
C914 C912 1.348 . S
C914 C916 1.353 . S
C914 H956 0.929 . S
C915 C912 1.356 . S
C915 C917 1.358 . S
C915 H957 0.930 . S
C916 N913 1.314 . S
C916 C914 1.353 . S
C916 H958 0.930 . S
C917 N913 1.279 . S
C917 C915 1.358 . S
C917 H959 0.930 . S
C918 C919 1.348 . S
C918 C920 1.356 . S
C918 O943 1.325 . S
C919 C918 1.348 . S
C919 C921 1.353 . S
C919 H960 0.929 . S
C920 C918 1.356 . S
C920 C922 1.358 . S
C920 H961 0.930 . S
C921 C919 1.353 . S
C921 N923 1.314 . S
C921 H962 0.930 . S
C922 C920 1.358 . S
C922 N923 1.279 . S
C922 H963 0.930 . S
N923 C921 1.314 . S
N923 C922 1.279 . S
C924 C926 1.353 . S
C924 N927 1.314 . S
C924 H930 0.930 . S
C925 N927 1.259 1_655 S
C925 C928 1.368 . S
C925 H931 0.942 . S
C926 C924 1.353 . S
C926 C929 1.348 . S
C926 H964 0.929 . S
N927 Li882 1.990 . S
N927 C924 1.314 . S
N927 C925 1.259 1_455 S
C928 C925 1.368 . S
C928 C929 1.356 1_655 S
C928 H965 0.930 . S
C929 C926 1.348 . S
C929 C928 1.356 1_455 S
H930 C924 0.930 . S
H931 C925 0.942 . S
C932 N933 1.314 . S
C932 C934 1.353 . S
C932 H938 0.930 . S
N933 Li883 1.990 . S
N933 C932 1.314 . S
N933 C936 1.279 . S
C934 C932 1.353 . S
C934 C937 1.348 . S
C934 H966 0.929 . S
C935 C936 1.358 . S
C935 C937 1.356 . S
C935 H967 0.930 . S
C936 N933 1.279 . S
C936 C935 1.358 . S
C936 H939 0.930 . S
C937 C934 1.348 . S
C937 C935 1.356 . S
H938 C932 0.930 . S
H939 C936 0.930 . S
O940 Li880 1.956 . S
O940 Li881 1.970 . S
O940 Li882 1.961 . S
O940 C884 1.325 . S
O941 Li880 1.970 . S
O941 Li881 1.956 . S
O941 Li883 1.961 . S
O941 C890 1.325 . S
O942 Li880 1.961 . S
O942 Li882 1.956 . S
O942 Li883 1.970 . S
O942 C912 1.325 1_455 S
O943 Li881 1.961 . S
O943 Li882 1.970 . S
O943 Li883 1.956 . S
O943 C918 1.325 . S
H944 C886 0.929 . S
H945 C887 0.930 . S
H946 C888 0.930 . S
H947 C889 0.930 . S
H948 C891 0.930 . S
H949 C893 0.929 . S
H950 C894 0.930 . S
H951 C895 0.930 . S
H952 C898 0.930 . S
H953 C901 0.929 . S
H954 C906 0.929 . S
H955 C907 0.930 . S
H956 C914 0.929 . S
H957 C915 0.930 . S
H958 C916 0.930 . S
H959 C917 0.930 . S
H960 C919 0.929 . S
H961 C920 0.930 . S
H962 C921 0.930 . S
H963 C922 0.930 . S
H964 C926 0.929 . S
H965 C928 0.930 . S
H966 C934 0.929 . S
H967 C935 0.930 . S
Li968 N985 1.990 . S
Li968 O1028 1.956 . S
Li968 O1029 1.970 . S
Li968 O1030 1.961 . S
Li969 N993 1.990 . S
Li969 O1028 1.970 . S
Li969 O1029 1.956 . S
Li969 O1031 1.961 . S
Li970 N1015 1.990 . S
Li970 O1028 1.961 . S
Li970 O1030 1.956 . S
Li970 O1031 1.970 . S
Li971 N1021 1.990 . S
Li971 O1029 1.961 . S
Li971 O1030 1.970 . S
Li971 O1031 1.956 . S
C972 C974 1.348 . S
C972 C975 1.356 . S
C972 O1028 1.325 . S
N973 C976 1.314 . S
N973 C977 1.279 . S
C974 C972 1.348 . S
C974 C976 1.353 . S
C974 H1032 0.929 . S
C975 C972 1.356 . S
C975 C977 1.358 . S
C975 H1033 0.930 . S
C976 N973 1.314 . S
C976 C974 1.353 . S
C976 H1034 0.930 . S
C977 N973 1.279 . S
C977 C975 1.358 . S
C977 H1035 0.930 . S
C978 C981 1.348 . S
C978 C982 1.356 . S
C978 O1029 1.325 . S
C979 N980 1.279 . S
C979 C982 1.358 . S
C979 H1036 0.930 . S
N980 C979 1.279 . S
N980 C983 1.314 . S
C981 C978 1.348 . S
C981 C983 1.353 . S
C981 H1037 0.929 . S
C982 C978 1.356 . S
C982 C979 1.358 . S
C982 H1038 0.930 . S
C983 N980 1.314 . S
C983 C981 1.353 . S
C983 H1039 0.930 . S
C984 N985 1.314 . S
C984 C989 1.353 . S
C984 H990 0.930 . S
N985 Li968 1.990 . S
N985 C984 1.314 . S
N985 C987 1.279 . S
C986 C987 1.358 . S
C986 C988 1.356 . S
C986 H1040 0.930 . S
C987 N985 1.279 . S
C987 C986 1.358 . S
C987 H991 0.930 . S
C988 C986 1.356 . S
C988 C989 1.348 . S
C989 C984 1.353 . S
C989 C988 1.348 . S
C989 H1041 0.929 . S
H990 C984 0.930 . S
H991 C987 0.930 . S
C992 N993 1.314 . S
C992 C994 1.353 . S
C992 H998 0.930 . S
N993 Li969 1.990 . S
N993 C992 1.314 . S
N993 C996 1.279 . S
C994 C992 1.353 . S
C994 C997 1.348 . S
C994 H1042 0.929 . S
C995 C996 1.358 . S
C995 C997 1.356 . S
C995 H1043 0.930 . S
C996 N993 1.279 . S
C996 C995 1.358 . S
C996 H999 0.930 . S
C997 C994 1.348 . S
C997 C995 1.356 . S
H998 C992 0.930 . S
H999 C996 0.930 . S
C1000 C1002 1.348 . S
C1000 C1003 1.356 . S
C1000 O1030 1.325 . S
N1001 C1004 1.314 . S
N1001 C1005 1.279 . S
C1002 C1000 1.348 . S
C1002 C1004 1.353 . S
C1002 H1044 0.929 . S
C1003 C1000 1.356 . S
C1003 C1005 1.358 . S
C1003 H1045 0.930 . S
C1004 N1001 1.314 . S
C1004 C1002 1.353 . S
C1004 H1046 0.930 . S
C1005 N1001 1.279 . S
C1005 C1003 1.358 . S
C1005 H1047 0.930 . S
C1006 C1007 1.348 . S
C1006 C1008 1.356 . S
C1006 O1031 1.325 . S
C1007 C1006 1.348 . S
C1007 C1009 1.353 . S
C1007 H1048 0.929 . S
C1008 C1006 1.356 . S
C1008 C1010 1.358 . S
C1008 H1049 0.930 . S
C1009 C1007 1.353 . S
C1009 N1011 1.314 . S
C1009 H1050 0.930 . S
C1010 C1008 1.358 . S
C1010 N1011 1.279 . S
C1010 H1051 0.930 . S
N1011 C1009 1.314 . S
N1011 C1010 1.279 . S
C1012 C1014 1.353 . S
C1012 N1015 1.314 . S
C1012 H1018 0.930 . S
C1013 N1015 1.279 . S
C1013 C1016 1.358 . S
C1013 H1019 0.930 . S
C1014 C1012 1.353 . S
C1014 C1017 1.348 . S
C1014 H1052 0.929 . S
N1015 Li970 1.990 . S
N1015 C1012 1.314 . S
N1015 C1013 1.279 . S
C1016 C1013 1.358 . S
C1016 C1017 1.356 . S
C1016 H1053 0.930 . S
C1017 C1014 1.348 . S
C1017 C1016 1.356 . S
H1018 C1012 0.930 . S
H1019 C1013 0.930 . S
C1020 N1021 1.314 . S
C1020 C1022 1.353 . S
C1020 H1026 0.930 . S
N1021 Li971 1.990 . S
N1021 C1020 1.314 . S
N1021 C1024 1.279 . S
C1022 C1020 1.353 . S
C1022 C1025 1.348 . S
C1022 H1054 0.929 . S
C1023 C1024 1.358 . S
C1023 C1025 1.356 . S
C1023 H1055 0.930 . S
C1024 N1021 1.279 . S
C1024 C1023 1.358 . S
C1024 H1027 0.930 . S
C1025 C1022 1.348 . S
C1025 C1023 1.356 . S
H1026 C1020 0.930 . S
H1027 C1024 0.930 . S
O1028 Li968 1.956 . S
O1028 Li969 1.970 . S
O1028 Li970 1.961 . S
O1028 C972 1.325 . S
O1029 Li968 1.970 . S
O1029 Li969 1.956 . S
O1029 Li971 1.961 . S
O1029 C978 1.325 . S
O1030 Li968 1.961 . S
O1030 Li970 1.956 . S
O1030 Li971 1.970 . S
O1030 C1000 1.325 . S
O1031 Li969 1.961 . S
O1031 Li970 1.970 . S
O1031 Li971 1.956 . S
O1031 C1006 1.325 . S
H1032 C974 0.929 . S
H1033 C975 0.930 . S
H1034 C976 0.930 . S
H1035 C977 0.930 . S
H1036 C979 0.930 . S
H1037 C981 0.929 . S
H1038 C982 0.930 . S
H1039 C983 0.930 . S
H1040 C986 0.930 . S
H1041 C989 0.929 . S
H1042 C994 0.929 . S
H1043 C995 0.930 . S
H1044 C1002 0.929 . S
H1045 C1003 0.930 . S
H1046 C1004 0.930 . S
H1047 C1005 0.930 . S
H1048 C1007 0.929 . S
H1049 C1008 0.930 . S
H1050 C1009 0.930 . S
H1051 C1010 0.930 . S
H1052 C1014 0.929 . S
H1053 C1016 0.930 . S
H1054 C1022 0.929 . S
H1055 C1023 0.930 . S
Li1056 N1073 1.990 . S
Li1056 O1116 1.956 . S
Li1056 O1117 1.970 . S
Li1056 O1118 1.961 . S
Li1057 N1081 1.990 . S
Li1057 O1116 1.970 . S
Li1057 O1117 1.956 . S
Li1057 O1119 1.961 . S
Li1058 N1103 1.990 . S
Li1058 O1116 1.961 . S
Li1058 O1118 1.956 . S
Li1058 O1119 1.970 . S
Li1059 N1109 1.990 . S
Li1059 O1117 1.961 . S
Li1059 O1118 1.970 . S
Li1059 O1119 1.956 . S
C1060 C1062 1.348 . S
C1060 C1063 1.356 . S
C1060 O1116 1.325 . S
N1061 C1064 1.314 . S
N1061 C1065 1.279 . S
C1062 C1060 1.348 . S
C1062 C1064 1.353 . S
C1062 H1120 0.929 . S
C1063 C1060 1.356 . S
C1063 C1065 1.358 . S
C1063 H1121 0.930 . S
C1064 N1061 1.314 . S
C1064 C1062 1.353 . S
C1064 H1122 0.930 . S
C1065 N1061 1.279 . S
C1065 C1063 1.358 . S
C1065 H1123 0.930 . S
C1066 C1069 1.348 . S
C1066 C1070 1.356 . S
C1066 O1117 1.325 . S
C1067 N1068 1.279 . S
C1067 C1070 1.358 . S
C1067 H1124 0.930 . S
N1068 C1067 1.279 . S
N1068 C1071 1.314 . S
C1069 C1066 1.348 . S
C1069 C1071 1.353 . S
C1069 H1125 0.929 . S
C1070 C1066 1.356 . S
C1070 C1067 1.358 . S
C1070 H1126 0.930 . S
C1071 N1068 1.314 . S
C1071 C1069 1.353 . S
C1071 H1127 0.930 . S
C1072 N1073 1.314 . S
C1072 C1077 1.353 . S
C1072 H1078 0.930 . S
N1073 Li1056 1.990 . S
N1073 C1072 1.314 . S
N1073 C1075 1.279 . S
C1074 C1075 1.358 . S
C1074 C1076 1.356 . S
C1074 H1128 0.930 . S
C1075 N1073 1.279 . S
C1075 C1074 1.358 . S
C1075 H1079 0.930 . S
C1076 C1074 1.356 . S
C1076 C1077 1.348 . S
C1077 C1072 1.353 . S
C1077 C1076 1.348 . S
C1077 H1129 0.929 . S
H1078 C1072 0.930 . S
H1079 C1075 0.930 . S
C1080 N1081 1.314 . S
C1080 C1082 1.353 . S
C1080 H1086 0.930 . S
N1081 Li1057 1.990 . S
N1081 C1080 1.314 . S
N1081 C1084 1.279 . S
C1082 C1080 1.353 . S
C1082 C1085 1.348 . S
C1082 H1130 0.929 . S
C1083 C1084 1.358 . S
C1083 C1085 1.356 . S
C1083 H1131 0.930 . S
C1084 N1081 1.279 . S
C1084 C1083 1.358 . S
C1084 H1087 0.930 . S
C1085 C1082 1.348 . S
C1085 C1083 1.356 . S
H1086 C1080 0.930 . S
H1087 C1084 0.930 . S
C1088 C1090 1.348 . S
C1088 C1091 1.356 . S
C1088 O1118 1.325 . S
N1089 C1092 1.314 . S
N1089 C1093 1.279 . S
C1090 C1088 1.348 . S
C1090 C1092 1.353 . S
C1090 H1132 0.929 . S
C1091 C1088 1.356 . S
C1091 C1093 1.358 . S
C1091 H1133 0.930 . S
C1092 N1089 1.314 . S
C1092 C1090 1.353 . S
C1092 H1134 0.930 . S
C1093 N1089 1.279 . S
C1093 C1091 1.358 . S
C1093 H1135 0.930 . S
C1094 C1095 1.348 . S
C1094 C1096 1.356 . S
C1094 O1119 1.325 . S
C1095 C1094 1.348 . S
C1095 C1097 1.353 . S
C1095 H1136 0.929 . S
C1096 C1094 1.356 . S
C1096 C1098 1.358 . S
C1096 H1137 0.930 . S
C1097 C1095 1.353 . S
C1097 N1099 1.314 . S
C1097 H1138 0.930 . S
C1098 C1096 1.358 . S
C1098 N1099 1.279 . S
C1098 H1139 0.930 . S
N1099 C1097 1.314 . S
N1099 C1098 1.279 . S
C1100 C1102 1.353 . S
C1100 N1103 1.314 . S
C1100 H1106 0.930 . S
C1101 N1103 1.279 . S
C1101 C1104 1.358 . S
C1101 H1107 0.930 . S
C1102 C1100 1.353 . S
C1102 C1105 1.348 . S
C1102 H1140 0.929 . S
N1103 Li1058 1.990 . S
N1103 C1100 1.314 . S
N1103 C1101 1.279 . S
C1104 C1101 1.358 . S
C1104 C1105 1.356 . S
C1104 H1141 0.930 . S
C1105 C1102 1.348 . S
C1105 C1104 1.356 . S
H1106 C1100 0.930 . S
H1107 C1101 0.930 . S
C1108 N1109 1.314 . S
C1108 C1110 1.353 . S
C1108 H1114 0.930 . S
N1109 Li1059 1.990 . S
N1109 C1108 1.314 . S
N1109 C1112 1.279 . S
C1110 C1108 1.353 . S
C1110 C1113 1.348 . S
C1110 H1142 0.929 . S
C1111 C1112 1.358 . S
C1111 C1113 1.356 . S
C1111 H1143 0.930 . S
C1112 N1109 1.279 . S
C1112 C1111 1.358 . S
C1112 H1115 0.930 . S
C1113 C1110 1.348 . S
C1113 C1111 1.356 . S
H1114 C1108 0.930 . S
H1115 C1112 0.930 . S
O1116 Li1056 1.956 . S
O1116 Li1057 1.970 . S
O1116 Li1058 1.961 . S
O1116 C1060 1.325 . S
O1117 Li1056 1.970 . S
O1117 Li1057 1.956 . S
O1117 Li1059 1.961 . S
O1117 C1066 1.325 . S
O1118 Li1056 1.961 . S
O1118 Li1058 1.956 . S
O1118 Li1059 1.970 . S
O1118 C1088 1.325 . S
O1119 Li1057 1.961 . S
O1119 Li1058 1.970 . S
O1119 Li1059 1.956 . S
O1119 C1094 1.325 . S
H1120 C1062 0.929 . S
H1121 C1063 0.930 . S
H1122 C1064 0.930 . S
H1123 C1065 0.930 . S
H1124 C1067 0.930 . S
H1125 C1069 0.929 . S
H1126 C1070 0.930 . S
H1127 C1071 0.930 . S
H1128 C1074 0.930 . S
H1129 C1077 0.929 . S
H1130 C1082 0.929 . S
H1131 C1083 0.930 . S
H1132 C1090 0.929 . S
H1133 C1091 0.930 . S
H1134 C1092 0.930 . S
H1135 C1093 0.930 . S
H1136 C1095 0.929 . S
H1137 C1096 0.930 . S
H1138 C1097 0.930 . S
H1139 C1098 0.930 . S
H1140 C1102 0.929 . S
H1141 C1104 0.930 . S
H1142 C1110 0.929 . S
H1143 C1111 0.930 . S
Li1144 N1161 1.990 . S
Li1144 O1204 1.956 . S
Li1144 O1205 1.970 . S
Li1144 O1206 1.961 . S
Li1145 N1169 1.990 . S
Li1145 O1204 1.970 . S
Li1145 O1205 1.956 . S
Li1145 O1207 1.961 . S
Li1146 N1191 1.990 . S
Li1146 O1204 1.961 . S
Li1146 O1206 1.956 . S
Li1146 O1207 1.970 . S
Li1147 N1197 1.990 . S
Li1147 O1205 1.961 . S
Li1147 O1206 1.970 . S
Li1147 O1207 1.956 . S
C1148 C1150 1.348 . S
C1148 C1151 1.356 . S
C1148 O1204 1.325 1_655 S
N1149 C1152 1.314 . S
N1149 C1153 1.279 . S
C1150 C1148 1.348 . S
C1150 C1152 1.353 . S
C1150 H1208 0.929 . S
C1151 C1148 1.356 . S
C1151 C1153 1.358 . S
C1151 H1209 0.930 . S
C1152 N1149 1.314 . S
C1152 C1150 1.353 . S
C1152 H1210 0.930 . S
C1153 N1149 1.279 . S
C1153 C1151 1.358 . S
C1153 H1211 0.930 . S
C1154 C1157 1.348 . S
C1154 C1158 1.356 . S
C1154 O1205 1.325 . S
C1155 N1156 1.279 . S
C1155 C1158 1.358 . S
C1155 H1212 0.930 . S
N1156 C1155 1.279 . S
N1156 C1159 1.314 . S
C1157 C1154 1.348 . S
C1157 C1159 1.353 . S
C1157 H1213 0.929 . S
C1158 C1154 1.356 . S
C1158 C1155 1.358 . S
C1158 H1214 0.930 . S
C1159 N1156 1.314 . S
C1159 C1157 1.353 . S
C1159 H1215 0.930 . S
C1160 N1161 1.314 . S
C1160 C1165 1.353 . S
C1160 H1166 0.930 . S
N1161 Li1144 1.990 . S
N1161 C1160 1.314 . S
N1161 C1163 1.279 1_455 S
C1162 C1163 1.358 . S
C1162 C1164 1.356 . S
C1162 H1216 0.930 . S
C1163 N1161 1.279 1_655 S
C1163 C1162 1.358 . S
C1163 H1167 0.930 . S
C1164 C1162 1.356 . S
C1164 C1165 1.348 1_655 S
C1165 C1160 1.353 . S
C1165 C1164 1.348 1_455 S
C1165 H1217 0.929 . S
H1166 C1160 0.930 . S
H1167 C1163 0.930 . S
C1168 N1169 1.314 . S
C1168 C1170 1.353 . S
C1168 H1174 0.930 . S
N1169 Li1145 1.990 . S
N1169 C1168 1.314 . S
N1169 C1172 1.279 . S
C1170 C1168 1.353 . S
C1170 C1173 1.348 . S
C1170 H1218 0.929 . S
C1171 C1172 1.358 . S
C1171 C1173 1.356 . S
C1171 H1219 0.930 . S
C1172 N1169 1.279 . S
C1172 C1171 1.358 . S
C1172 H1175 0.930 . S
C1173 C1170 1.348 . S
C1173 C1171 1.356 . S
H1174 C1168 0.930 . S
H1175 C1172 0.930 . S
C1176 C1178 1.348 . S
C1176 C1179 1.356 . S
C1176 O1206 1.325 . S
N1177 C1180 1.314 . S
N1177 C1181 1.279 . S
C1178 C1176 1.348 . S
C1178 C1180 1.353 . S
C1178 H1220 0.929 . S
C1179 C1176 1.356 . S
C1179 C1181 1.358 . S
C1179 H1221 0.930 . S
C1180 N1177 1.314 . S
C1180 C1178 1.353 . S
C1180 H1222 0.930 . S
C1181 N1177 1.279 . S
C1181 C1179 1.358 . S
C1181 H1223 0.930 . S
C1182 C1183 1.348 . S
C1182 C1184 1.356 . S
C1182 O1207 1.325 . S
C1183 C1182 1.348 . S
C1183 C1185 1.353 . S
C1183 H1224 0.929 . S
C1184 C1182 1.356 . S
C1184 C1186 1.358 . S
C1184 H1225 0.930 . S
C1185 C1183 1.353 . S
C1185 N1187 1.314 . S
C1185 H1226 0.930 . S
C1186 C1184 1.358 . S
C1186 N1187 1.279 . S
C1186 H1227 0.930 . S
N1187 C1185 1.314 . S
N1187 C1186 1.279 . S
C1188 C1190 1.353 1_455 S
C1188 N1191 1.314 . S
C1188 H1194 0.930 . S
C1189 N1191 1.279 . S
C1189 C1192 1.358 . S
C1189 H1195 0.930 . S
C1190 C1188 1.353 1_655 S
C1190 C1193 1.348 1_655 S
C1190 H1228 0.929 . S
N1191 Li1146 1.990 . S
N1191 C1188 1.314 . S
N1191 C1189 1.279 . S
C1192 C1189 1.358 . S
C1192 C1193 1.356 . S
C1192 H1229 0.930 . S
C1193 C1190 1.348 1_455 S
C1193 C1192 1.356 . S
H1194 C1188 0.930 . S
H1195 C1189 0.930 . S
C1196 N1197 1.314 . S
C1196 C1198 1.353 . S
C1196 H1202 0.930 . S
N1197 Li1147 1.990 . S
N1197 C1196 1.314 . S
N1197 C1200 1.279 . S
C1198 C1196 1.353 . S
C1198 C1201 1.348 . S
C1198 H1230 0.929 . S
C1199 C1200 1.358 . S
C1199 C1201 1.356 . S
C1199 H1231 0.930 . S
C1200 N1197 1.279 . S
C1200 C1199 1.358 . S
C1200 H1203 0.930 . S
C1201 C1198 1.348 . S
C1201 C1199 1.356 . S
H1202 C1196 0.930 . S
H1203 C1200 0.930 . S
O1204 Li1144 1.956 . S
O1204 Li1145 1.970 . S
O1204 Li1146 1.961 . S
O1204 C1148 1.325 1_455 S
O1205 Li1144 1.970 . S
O1205 Li1145 1.956 . S
O1205 Li1147 1.961 . S
O1205 C1154 1.325 . S
O1206 Li1144 1.961 . S
O1206 Li1146 1.956 . S
O1206 Li1147 1.970 . S
O1206 C1176 1.325 . S
O1207 Li1145 1.961 . S
O1207 Li1146 1.970 . S
O1207 Li1147 1.956 . S
O1207 C1182 1.325 . S
H1208 C1150 0.929 . S
H1209 C1151 0.930 . S
H1210 C1152 0.930 . S
H1211 C1153 0.930 . S
H1212 C1155 0.930 . S
H1213 C1157 0.929 . S
H1214 C1158 0.930 . S
H1215 C1159 0.930 . S
H1216 C1162 0.930 . S
H1217 C1165 0.929 . S
H1218 C1170 0.929 . S
H1219 C1171 0.930 . S
H1220 C1178 0.929 . S
H1221 C1179 0.930 . S
H1222 C1180 0.930 . S
H1223 C1181 0.930 . S
H1224 C1183 0.929 . S
H1225 C1184 0.930 . S
H1226 C1185 0.930 . S
H1227 C1186 0.930 . S
H1228 C1190 0.929 . S
H1229 C1192 0.930 . S
H1230 C1198 0.929 . S
H1231 C1199 0.930 . S
Li1232 N1249 1.990 . S
Li1232 O1292 1.956 . S
Li1232 O1293 1.970 . S
Li1232 O1294 1.961 . S
Li1233 N1257 1.990 . S
Li1233 O1292 1.970 . S
Li1233 O1293 1.956 . S
Li1233 O1295 1.961 . S
Li1234 N1279 1.990 . S
Li1234 O1292 1.961 . S
Li1234 O1294 1.956 . S
Li1234 O1295 1.970 . S
Li1235 N1285 1.990 . S
Li1235 O1293 1.961 . S
Li1235 O1294 1.970 . S
Li1235 O1295 1.956 . S
C1236 C1238 1.348 . S
C1236 C1239 1.356 . S
C1236 O1292 1.325 . S
N1237 C1240 1.314 . S
N1237 C1241 1.279 . S
C1238 C1236 1.348 . S
C1238 C1240 1.353 . S
C1238 H1296 0.929 . S
C1239 C1236 1.356 . S
C1239 C1241 1.358 . S
C1239 H1297 0.930 . S
C1240 N1237 1.314 . S
C1240 C1238 1.353 . S
C1240 H1298 0.930 . S
C1241 N1237 1.279 . S
C1241 C1239 1.358 . S
C1241 H1299 0.930 . S
C1242 C1245 1.348 . S
C1242 C1246 1.356 . S
C1242 O1293 1.325 . S
C1243 N1244 1.279 . S
C1243 C1246 1.358 . S
C1243 H1300 0.930 . S
N1244 C1243 1.279 . S
N1244 C1247 1.314 . S
C1245 C1242 1.348 . S
C1245 C1247 1.353 . S
C1245 H1301 0.929 . S
C1246 C1242 1.356 . S
C1246 C1243 1.358 . S
C1246 H1302 0.930 . S
C1247 N1244 1.314 . S
C1247 C1245 1.353 . S
C1247 H1303 0.930 . S
C1248 N1249 1.314 . S
C1248 C1253 1.353 . S
C1248 H1254 0.930 . S
N1249 Li1232 1.990 . S
N1249 C1248 1.314 . S
N1249 C1251 1.279 . S
C1250 C1251 1.358 . S
C1250 C1252 1.356 . S
C1250 H1304 0.930 . S
C1251 N1249 1.279 . S
C1251 C1250 1.358 . S
C1251 H1255 0.930 . S
C1252 C1250 1.356 . S
C1252 C1253 1.348 . S
C1253 C1248 1.353 . S
C1253 C1252 1.348 . S
C1253 H1305 0.929 . S
H1254 C1248 0.930 . S
H1255 C1251 0.930 . S
C1256 N1257 1.314 . S
C1256 C1258 1.353 1_655 S
C1256 H1262 0.930 . S
N1257 Li1233 1.990 . S
N1257 C1256 1.314 . S
N1257 C1260 1.279 . S
C1258 C1256 1.353 1_455 S
C1258 C1261 1.348 1_455 S
C1258 H1306 0.929 . S
C1259 C1260 1.358 . S
C1259 C1261 1.356 . S
C1259 H1307 0.930 . S
C1260 N1257 1.279 . S
C1260 C1259 1.358 . S
C1260 H1263 0.930 . S
C1261 C1258 1.348 1_655 S
C1261 C1259 1.356 . S
H1262 C1256 0.930 . S
H1263 C1260 0.930 . S
C1264 C1266 1.348 . S
C1264 C1267 1.356 . S
C1264 O1294 1.325 . S
N1265 C1268 1.314 . S
N1265 C1269 1.279 . S
C1266 C1264 1.348 . S
C1266 C1268 1.353 . S
C1266 H1308 0.929 . S
C1267 C1264 1.356 . S
C1267 C1269 1.358 . S
C1267 H1309 0.930 . S
C1268 N1265 1.314 . S
C1268 C1266 1.353 . S
C1268 H1310 0.930 . S
C1269 N1265 1.279 . S
C1269 C1267 1.358 . S
C1269 H1311 0.930 . S
C1270 C1271 1.348 . S
C1270 C1272 1.356 . S
C1270 O1295 1.325 1_455 S
C1271 C1270 1.348 . S
C1271 C1273 1.353 . S
C1271 H1312 0.929 . S
C1272 C1270 1.356 . S
C1272 C1274 1.358 . S
C1272 H1313 0.930 . S
C1273 C1271 1.353 . S
C1273 N1275 1.314 . S
C1273 H1314 0.930 . S
C1274 C1272 1.358 . S
C1274 N1275 1.279 . S
C1274 H1315 0.930 . S
N1275 C1273 1.314 . S
N1275 C1274 1.279 . S
C1276 C1278 1.353 . S
C1276 N1279 1.314 . S
C1276 H1282 0.930 . S
C1277 N1279 1.279 . S
C1277 C1280 1.358 . S
C1277 H1283 0.930 . S
C1278 C1276 1.353 . S
C1278 C1281 1.348 . S
C1278 H1316 0.929 . S
N1279 Li1234 1.990 . S
N1279 C1276 1.314 . S
N1279 C1277 1.279 . S
C1280 C1277 1.358 . S
C1280 C1281 1.356 . S
C1280 H1317 0.930 . S
C1281 C1278 1.348 . S
C1281 C1280 1.356 . S
H1282 C1276 0.930 . S
H1283 C1277 0.930 . S
C1284 N1285 1.314 . S
C1284 C1286 1.353 . S
C1284 H1290 0.930 . S
N1285 Li1235 1.990 . S
N1285 C1284 1.314 . S
N1285 C1288 1.279 1_655 S
C1286 C1284 1.353 . S
C1286 C1289 1.348 1_655 S
C1286 H1318 0.929 . S
C1287 C1288 1.358 . S
C1287 C1289 1.356 . S
C1287 H1319 0.930 . S
C1288 N1285 1.279 1_455 S
C1288 C1287 1.358 . S
C1288 H1291 0.930 . S
C1289 C1286 1.348 1_455 S
C1289 C1287 1.356 . S
H1290 C1284 0.930 . S
H1291 C1288 0.930 . S
O1292 Li1232 1.956 . S
O1292 Li1233 1.970 . S
O1292 Li1234 1.961 . S
O1292 C1236 1.325 . S
O1293 Li1232 1.970 . S
O1293 Li1233 1.956 . S
O1293 Li1235 1.961 . S
O1293 C1242 1.325 . S
O1294 Li1232 1.961 . S
O1294 Li1234 1.956 . S
O1294 Li1235 1.970 . S
O1294 C1264 1.325 . S
O1295 Li1233 1.961 . S
O1295 Li1234 1.970 . S
O1295 Li1235 1.956 . S
O1295 C1270 1.325 1_655 S
H1296 C1238 0.929 . S
H1297 C1239 0.930 . S
H1298 C1240 0.930 . S
H1299 C1241 0.930 . S
H1300 C1243 0.930 . S
H1301 C1245 0.929 . S
H1302 C1246 0.930 . S
H1303 C1247 0.930 . S
H1304 C1250 0.930 . S
H1305 C1253 0.929 . S
H1306 C1258 0.929 . S
H1307 C1259 0.930 . S
H1308 C1266 0.929 . S
H1309 C1267 0.930 . S
H1310 C1268 0.930 . S
H1311 C1269 0.930 . S
H1312 C1271 0.929 . S
H1313 C1272 0.930 . S
H1314 C1273 0.930 . S
H1315 C1274 0.930 . S
H1316 C1278 0.929 . S
H1317 C1280 0.930 . S
H1318 C1286 0.929 . S
H1319 C1287 0.930 . S
Li1320 N1337 1.990 . S
Li1320 O1380 1.956 . S
Li1320 O1381 1.970 . S
Li1320 O1382 1.961 . S
Li1321 N1345 1.990 . S
Li1321 O1380 1.970 . S
Li1321 O1381 1.956 . S
Li1321 O1383 1.961 . S
Li1322 N1367 1.990 . S
Li1322 O1380 1.961 . S
Li1322 O1382 1.956 . S
Li1322 O1383 1.970 . S
Li1323 N1373 1.990 . S
Li1323 O1381 1.961 . S
Li1323 O1382 1.970 . S
Li1323 O1383 1.956 . S
C1324 C1326 1.348 . S
C1324 C1327 1.356 . S
C1324 O1380 1.325 . S
N1325 C1328 1.314 . S
N1325 C1329 1.279 . S
C1326 C1324 1.348 . S
C1326 C1328 1.353 . S
C1326 H1384 0.929 . S
C1327 C1324 1.356 . S
C1327 C1329 1.358 . S
C1327 H1385 0.930 . S
C1328 N1325 1.314 . S
C1328 C1326 1.353 . S
C1328 H1386 0.930 . S
C1329 N1325 1.279 . S
C1329 C1327 1.358 . S
C1329 H1387 0.930 . S
C1330 C1333 1.348 . S
C1330 C1334 1.356 . S
C1330 O1381 1.325 . S
C1331 N1332 1.279 . S
C1331 C1334 1.358 . S
C1331 H1388 0.930 . S
N1332 C1331 1.279 . S
N1332 C1335 1.314 . S
C1333 C1330 1.348 . S
C1333 C1335 1.353 . S
C1333 H1389 0.929 . S
C1334 C1330 1.356 . S
C1334 C1331 1.358 . S
C1334 H1390 0.930 . S
C1335 N1332 1.314 . S
C1335 C1333 1.353 . S
C1335 H1391 0.930 . S
C1336 N1337 1.314 . S
C1336 C1341 1.353 . S
C1336 H1342 0.930 . S
N1337 Li1320 1.990 . S
N1337 C1336 1.314 . S
N1337 C1339 1.279 . S
C1338 C1339 1.358 . S
C1338 C1340 1.356 . S
C1338 H1392 0.930 . S
C1339 N1337 1.279 . S
C1339 C1338 1.358 . S
C1339 H1343 0.930 . S
C1340 C1338 1.356 . S
C1340 C1341 1.348 . S
C1341 C1336 1.353 . S
C1341 C1340 1.348 . S
C1341 H1393 0.929 . S
H1342 C1336 0.930 . S
H1343 C1339 0.930 . S
C1344 N1345 1.314 . S
C1344 C1346 1.353 . S
C1344 H1350 0.930 . S
N1345 Li1321 1.990 . S
N1345 C1344 1.314 . S
N1345 C1348 1.279 . S
C1346 C1344 1.353 . S
C1346 C1349 1.348 . S
C1346 H1394 0.929 . S
C1347 C1348 1.358 . S
C1347 C1349 1.356 . S
C1347 H1395 0.930 . S
C1348 N1345 1.279 . S
C1348 C1347 1.358 . S
C1348 H1351 0.930 . S
C1349 C1346 1.348 . S
C1349 C1347 1.356 . S
H1350 C1344 0.930 . S
H1351 C1348 0.930 . S
C1352 C1354 1.348 . S
C1352 C1355 1.356 . S
C1352 O1382 1.325 . S
N1353 C1356 1.314 . S
N1353 C1357 1.279 . S
C1354 C1352 1.348 . S
C1354 C1356 1.353 . S
C1354 H1396 0.929 . S
C1355 C1352 1.356 . S
C1355 C1357 1.358 . S
C1355 H1397 0.930 . S
C1356 N1353 1.314 . S
C1356 C1354 1.353 . S
C1356 H1398 0.930 . S
C1357 N1353 1.279 . S
C1357 C1355 1.358 . S
C1357 H1399 0.930 . S
C1358 C1359 1.348 . S
C1358 C1360 1.356 . S
C1358 O1383 1.325 . S
C1359 C1358 1.348 . S
C1359 C1361 1.353 . S
C1359 H1400 0.929 . S
C1360 C1358 1.356 . S
C1360 C1362 1.358 . S
C1360 H1401 0.930 . S
C1361 C1359 1.353 . S
C1361 N1363 1.314 . S
C1361 H1402 0.930 . S
C1362 C1360 1.358 . S
C1362 N1363 1.279 . S
C1362 H1403 0.930 . S
N1363 C1361 1.314 . S
N1363 C1362 1.279 . S
C1364 C1366 1.353 . S
C1364 N1367 1.314 . S
C1364 H1370 0.930 . S
C1365 N1367 1.279 . S
C1365 C1368 1.358 . S
C1365 H1371 0.930 . S
C1366 C1364 1.353 . S
C1366 C1369 1.348 . S
C1366 H1404 0.929 . S
N1367 Li1322 1.990 . S
N1367 C1364 1.314 . S
N1367 C1365 1.279 . S
C1368 C1365 1.358 . S
C1368 C1369 1.356 . S
C1368 H1405 0.930 . S
C1369 C1366 1.348 . S
C1369 C1368 1.356 . S
H1370 C1364 0.930 . S
H1371 C1365 0.930 . S
C1372 N1373 1.314 . S
C1372 C1374 1.353 . S
C1372 H1378 0.930 . S
N1373 Li1323 1.990 . S
N1373 C1372 1.314 . S
N1373 C1376 1.279 . S
C1374 C1372 1.353 . S
C1374 C1377 1.348 . S
C1374 H1406 0.929 . S
C1375 C1376 1.358 . S
C1375 C1377 1.356 . S
C1375 H1407 0.930 . S
C1376 N1373 1.279 . S
C1376 C1375 1.358 . S
C1376 H1379 0.930 . S
C1377 C1374 1.348 . S
C1377 C1375 1.356 . S
H1378 C1372 0.930 . S
H1379 C1376 0.930 . S
O1380 Li1320 1.956 . S
O1380 Li1321 1.970 . S
O1380 Li1322 1.961 . S
O1380 C1324 1.325 . S
O1381 Li1320 1.970 . S
O1381 Li1321 1.956 . S
O1381 Li1323 1.961 . S
O1381 C1330 1.325 . S
O1382 Li1320 1.961 . S
O1382 Li1322 1.956 . S
O1382 Li1323 1.970 . S
O1382 C1352 1.325 . S
O1383 Li1321 1.961 . S
O1383 Li1322 1.970 . S
O1383 Li1323 1.956 . S
O1383 C1358 1.325 . S
H1384 C1326 0.929 . S
H1385 C1327 0.930 . S
H1386 C1328 0.930 . S
H1387 C1329 0.930 . S
H1388 C1331 0.930 . S
H1389 C1333 0.929 . S
H1390 C1334 0.930 . S
H1391 C1335 0.930 . S
H1392 C1338 0.930 . S
H1393 C1341 0.929 . S
H1394 C1346 0.929 . S
H1395 C1347 0.930 . S
H1396 C1354 0.929 . S
H1397 C1355 0.930 . S
H1398 C1356 0.930 . S
H1399 C1357 0.930 . S
H1400 C1359 0.929 . S
H1401 C1360 0.930 . S
H1402 C1361 0.930 . S
H1403 C1362 0.930 . S
H1404 C1366 0.929 . S
H1405 C1368 0.930 . S
H1406 C1374 0.929 . S
H1407 C1375 0.930 . S
C1408 C1409 1.363 . S
C1408 C1414 1.379 . S
C1408 N1416 1.356 . S
C1409 C1408 1.363 . S
C1409 C1415 1.363 1_565 S
C1410 C1411 1.363 . S
C1410 C1415 1.379 . S
C1410 N1417 1.356 . S
C1411 C1410 1.363 . S
C1411 C1414 1.363 1_545 S
N1412 C1414 1.356 . S
N1412 H1424 0.984 . S
N1412 H1425 0.985 1_565 S
N1413 C1415 1.356 . S
N1413 H1418 0.984 1_545 S
N1413 H1419 0.985 . S
C1414 C1408 1.379 . S
C1414 C1411 1.363 1_565 S
C1414 N1412 1.356 . S
C1415 C1409 1.363 1_545 S
C1415 C1410 1.379 . S
C1415 N1413 1.356 . S
N1416 C1408 1.356 . S
N1416 H1422 0.984 . S
N1416 H1423 0.984 . S
N1417 C1410 1.356 . S
N1417 H1420 0.984 . S
N1417 H1421 0.985 . S
H1418 N1413 0.984 1_565 S
H1419 N1413 0.985 . S
H1420 N1417 0.984 . S
H1421 N1417 0.985 . S
H1422 N1416 0.984 . S
H1423 N1416 0.984 . S
H1424 N1412 0.984 . S
H1425 N1412 0.985 1_545 S
C1426 C1427 1.363 . S
C1426 C1432 1.379 . S
C1426 N1434 1.356 . S
C1427 C1426 1.363 . S
C1427 C1433 1.363 1_565 S
C1428 C1429 1.363 . S
C1428 C1433 1.379 . S
C1428 N1435 1.356 . S
C1429 C1428 1.363 . S
C1429 C1432 1.363 1_545 S
N1430 C1432 1.356 . S
N1430 H1442 0.984 . S
N1430 H1443 0.985 1_565 S
N1431 C1433 1.356 . S
N1431 H1436 0.984 1_545 S
N1431 H1437 0.985 . S
C1432 C1426 1.379 . S
C1432 C1429 1.363 1_565 S
C1432 N1430 1.356 . S
C1433 C1427 1.363 1_545 S
C1433 C1428 1.379 . S
C1433 N1431 1.356 . S
N1434 C1426 1.356 . S
N1434 H1440 0.984 . S
N1434 H1441 0.984 . S
N1435 C1428 1.356 . S
N1435 H1438 0.984 . S
N1435 H1439 0.985 . S
H1436 N1431 0.984 1_565 S
H1437 N1431 0.985 . S
H1438 N1435 0.984 . S
H1439 N1435 0.985 . S
H1440 N1434 0.984 . S
H1441 N1434 0.984 . S
H1442 N1430 0.984 . S
H1443 N1430 0.985 1_545 S
C1444 C1445 1.363 1_545 S
C1444 C1450 1.379 . S
C1444 N1452 1.356 . S
C1445 C1444 1.363 1_565 S
C1445 C1451 1.363 . S
C1446 C1447 1.363 1_565 S
C1446 C1451 1.379 . S
C1446 N1453 1.356 . S
C1447 C1446 1.363 1_545 S
C1447 C1450 1.363 . S
N1448 C1450 1.356 . S
N1448 H1460 0.984 . S
N1448 H1461 0.985 . S
N1449 C1451 1.356 . S
N1449 H1454 0.984 . S
N1449 H1455 0.985 . S
C1450 C1444 1.379 . S
C1450 C1447 1.363 . S
C1450 N1448 1.356 . S
C1451 C1445 1.363 . S
C1451 C1446 1.379 . S
C1451 N1449 1.356 . S
N1452 C1444 1.356 . S
N1452 H1458 0.984 . S
N1452 H1459 0.984 1_545 S
N1453 C1446 1.356 . S
N1453 H1456 0.984 1_565 S
N1453 H1457 0.985 . S
H1454 N1449 0.984 . S
H1455 N1449 0.985 . S
H1456 N1453 0.984 1_545 S
H1457 N1453 0.985 . S
H1458 N1452 0.984 . S
H1459 N1452 0.984 1_565 S
H1460 N1448 0.984 . S
H1461 N1448 0.985 . S
C1462 C1463 1.363 1_545 S
C1462 C1468 1.379 . S
C1462 N1470 1.356 . S
C1463 C1462 1.363 1_565 S
C1463 C1469 1.363 . S
C1464 C1465 1.363 1_565 S
C1464 C1469 1.379 . S
C1464 N1471 1.356 . S
C1465 C1464 1.363 1_545 S
C1465 C1468 1.363 . S
N1466 C1468 1.356 . S
N1466 H1478 0.984 . S
N1466 H1479 0.985 . S
N1467 C1469 1.356 . S
N1467 H1472 0.984 . S
N1467 H1473 0.985 . S
C1468 C1462 1.379 . S
C1468 C1465 1.363 . S
C1468 N1466 1.356 . S
C1469 C1463 1.363 . S
C1469 C1464 1.379 . S
C1469 N1467 1.356 . S
N1470 C1462 1.356 . S
N1470 H1476 0.984 . S
N1470 H1477 0.984 1_545 S
N1471 C1464 1.356 . S
N1471 H1474 0.984 1_565 S
N1471 H1475 0.985 . S
H1472 N1467 0.984 . S
H1473 N1467 0.985 . S
H1474 N1471 0.984 1_545 S
H1475 N1471 0.985 . S
H1476 N1470 0.984 . S
H1477 N1470 0.984 1_565 S
H1478 N1466 0.984 . S
H1479 N1466 0.985 . S
C1480 C1481 1.363 . S
C1480 C1486 1.379 . S
C1480 N1488 1.356 . S
C1481 C1480 1.363 . S
C1481 C1487 1.363 . S
C1482 C1483 1.363 . S
C1482 C1487 1.379 . S
C1482 N1489 1.356 . S
C1483 C1482 1.363 . S
C1483 C1486 1.363 . S
N1484 C1486 1.356 . S
N1484 H1496 0.984 . S
N1484 H1497 0.985 . S
N1485 C1487 1.356 . S
N1485 H1490 0.984 . S
N1485 H1491 0.985 . S
C1486 C1480 1.379 . S
C1486 C1483 1.363 . S
C1486 N1484 1.356 . S
C1487 C1481 1.363 . S
C1487 C1482 1.379 . S
C1487 N1485 1.356 . S
N1488 C1480 1.356 . S
N1488 H1494 0.984 . S
N1488 H1495 0.984 . S
N1489 C1482 1.356 . S
N1489 H1492 0.984 . S
N1489 H1493 0.985 . S
H1490 N1485 0.984 . S
H1491 N1485 0.985 . S
H1492 N1489 0.984 . S
H1493 N1489 0.985 . S
H1494 N1488 0.984 . S
H1495 N1488 0.984 . S
H1496 N1484 0.984 . S
H1497 N1484 0.985 . S
C1498 C1499 1.363 . S
C1498 C1504 1.379 . S
C1498 N1506 1.356 . S
C1499 C1498 1.363 . S
C1499 C1505 1.363 . S
C1500 C1501 1.363 . S
C1500 C1505 1.379 . S
C1500 N1507 1.356 . S
C1501 C1500 1.363 . S
C1501 C1504 1.363 . S
N1502 C1504 1.356 . S
N1502 H1514 0.984 . S
N1502 H1515 0.985 . S
N1503 C1505 1.356 . S
N1503 H1508 0.984 . S
N1503 H1509 0.985 . S
C1504 C1498 1.379 . S
C1504 C1501 1.363 . S
C1504 N1502 1.356 . S
C1505 C1499 1.363 . S
C1505 C1500 1.379 . S
C1505 N1503 1.356 . S
N1506 C1498 1.356 . S
N1506 H1512 0.984 . S
N1506 H1513 0.984 . S
N1507 C1500 1.356 . S
N1507 H1510 0.984 . S
N1507 H1511 0.985 . S
H1508 N1503 0.984 . S
H1509 N1503 0.985 . S
H1510 N1507 0.984 . S
H1511 N1507 0.985 . S
H1512 N1506 0.984 . S
H1513 N1506 0.984 . S
H1514 N1502 0.984 . S
H1515 N1502 0.985 . S
C1516 C1517 1.363 . S
C1516 C1522 1.379 . S
C1516 N1524 1.356 . S
C1517 C1516 1.363 . S
C1517 C1523 1.363 . S
C1518 C1519 1.363 . S
C1518 C1523 1.379 . S
C1518 N1525 1.356 . S
C1519 C1518 1.363 . S
C1519 C1522 1.363 . S
N1520 C1522 1.356 . S
N1520 H1532 0.984 . S
N1520 H1533 0.985 . S
N1521 C1523 1.356 . S
N1521 H1526 0.984 . S
N1521 H1527 0.985 . S
C1522 C1516 1.379 . S
C1522 C1519 1.363 . S
C1522 N1520 1.356 . S
C1523 C1517 1.363 . S
C1523 C1518 1.379 . S
C1523 N1521 1.356 . S
N1524 C1516 1.356 . S
N1524 H1530 0.984 . S
N1524 H1531 0.984 . S
N1525 C1518 1.356 . S
N1525 H1528 0.984 . S
N1525 H1529 0.985 . S
H1526 N1521 0.984 . S
H1527 N1521 0.985 . S
H1528 N1525 0.984 . S
H1529 N1525 0.985 . S
H1530 N1524 0.984 . S
H1531 N1524 0.984 . S
H1532 N1520 0.984 . S
H1533 N1520 0.985 . S
C1534 C1535 1.363 . S
C1534 C1540 1.379 . S
C1534 N1542 1.356 . S
C1535 C1534 1.363 . S
C1535 C1541 1.363 . S
C1536 C1537 1.363 . S
C1536 C1541 1.379 . S
C1536 N1543 1.356 . S
C1537 C1536 1.363 . S
C1537 C1540 1.363 . S
N1538 C1540 1.356 . S
N1538 H1550 0.984 . S
N1538 H1551 0.985 . S
N1539 C1541 1.356 . S
N1539 H1544 0.984 . S
N1539 H1545 0.985 . S
C1540 C1534 1.379 . S
C1540 C1537 1.363 . S
C1540 N1538 1.356 . S
C1541 C1535 1.363 . S
C1541 C1536 1.379 . S
C1541 N1539 1.356 . S
N1542 C1534 1.356 . S
N1542 H1548 0.984 . S
N1542 H1549 0.984 . S
N1543 C1536 1.356 . S
N1543 H1546 0.984 . S
N1543 H1547 0.985 . S
H1544 N1539 0.984 . S
H1545 N1539 0.985 . S
H1546 N1543 0.984 . S
H1547 N1543 0.985 . S
H1548 N1542 0.984 . S
H1549 N1542 0.984 . S
H1550 N1538 0.984 . S
H1551 N1538 0.985 . S
C1552 C1553 1.363 1_565 S
C1552 C1558 1.379 . S
C1552 N1560 1.356 . S
C1553 C1552 1.363 1_545 S
C1553 C1559 1.363 1_455 S
C1554 C1555 1.363 . S
C1554 C1559 1.379 . S
C1554 N1561 1.356 . S
C1555 C1554 1.363 . S
C1555 C1558 1.363 1_645 S
N1556 C1558 1.356 . S
N1556 H1568 0.984 . S
N1556 H1569 0.985 . S
N1557 C1559 1.356 . S
N1557 H1562 0.984 . S
N1557 H1563 0.985 . S
C1558 C1552 1.379 . S
C1558 C1555 1.363 1_465 S
C1558 N1556 1.356 . S
C1559 C1553 1.363 1_655 S
C1559 C1554 1.379 . S
C1559 N1557 1.356 . S
N1560 C1552 1.356 . S
N1560 H1566 0.984 . S
N1560 H1567 0.984 . S
N1561 C1554 1.356 . S
N1561 H1564 0.984 . S
N1561 H1565 0.985 . S
H1562 N1557 0.984 . S
H1563 N1557 0.985 . S
H1564 N1561 0.984 . S
H1565 N1561 0.985 . S
H1566 N1560 0.984 . S
H1567 N1560 0.984 . S
H1568 N1556 0.984 . S
H1569 N1556 0.985 . S
C1570 C1571 1.363 . S
C1570 C1576 1.379 . S
C1570 N1578 1.356 . S
C1571 C1570 1.363 . S
C1571 C1577 1.363 1_565 S
C1572 C1573 1.363 1_545 S
C1572 C1577 1.379 . S
C1572 N1579 1.356 . S
C1573 C1572 1.363 1_565 S
C1573 C1576 1.363 . S
N1574 C1576 1.356 . S
N1574 H1586 0.984 . S
N1574 H1587 0.985 . S
N1575 C1577 1.356 . S
N1575 H1580 0.984 . S
N1575 H1581 0.985 . S
C1576 C1570 1.379 . S
C1576 C1573 1.363 . S
C1576 N1574 1.356 . S
C1577 C1571 1.363 1_545 S
C1577 C1572 1.379 . S
C1577 N1575 1.356 . S
N1578 C1570 1.356 . S
N1578 H1584 0.984 . S
N1578 H1585 0.984 . S
N1579 C1572 1.356 . S
N1579 H1582 0.984 . S
N1579 H1583 0.985 . S
H1580 N1575 0.984 . S
H1581 N1575 0.985 . S
H1582 N1579 0.984 . S
H1583 N1579 0.985 . S
H1584 N1578 0.984 . S
H1585 N1578 0.984 . S
H1586 N1574 0.984 . S
H1587 N1574 0.985 . S
C1588 C1589 1.363 1_445 S
C1588 C1594 1.379 . S
C1588 N1596 1.356 . S
C1589 C1588 1.363 1_665 S
C1589 C1595 1.363 . S
C1590 C1591 1.363 1_655 S
C1590 C1595 1.379 . S
C1590 N1597 1.356 . S
C1591 C1590 1.363 1_455 S
C1591 C1594 1.363 1_565 S
N1592 C1594 1.356 . S
N1592 H1604 0.984 . S
N1592 H1605 0.985 . S
N1593 C1595 1.356 . S
N1593 H1598 0.984 . S
N1593 H1599 0.985 . S
C1594 C1588 1.379 . S
C1594 C1591 1.363 1_545 S
C1594 N1592 1.356 . S
C1595 C1589 1.363 . S
C1595 C1590 1.379 . S
C1595 N1593 1.356 . S
N1596 C1588 1.356 . S
N1596 H1602 0.984 . S
N1596 H1603 0.984 . S
N1597 C1590 1.356 . S
N1597 H1600 0.984 . S
N1597 H1601 0.985 . S
H1598 N1593 0.984 . S
H1599 N1593 0.985 . S
H1600 N1597 0.984 . S
H1601 N1597 0.985 . S
H1602 N1596 0.984 . S
H1603 N1596 0.984 . S
H1604 N1592 0.984 . S
H1605 N1592 0.985 . S
C1606 C1607 1.363 1_565 S
C1606 C1612 1.379 . S
C1606 N1614 1.356 . S
C1607 C1606 1.363 1_545 S
C1607 C1613 1.363 . S
C1608 C1609 1.363 . S
C1608 C1613 1.379 . S
C1608 N1615 1.356 . S
C1609 C1608 1.363 . S
C1609 C1612 1.363 1_545 S
N1610 C1612 1.356 . S
N1610 H1622 0.984 . S
N1610 H1623 0.985 . S
N1611 C1613 1.356 . S
N1611 H1616 0.984 . S
N1611 H1617 0.985 . S
C1612 C1606 1.379 . S
C1612 C1609 1.363 1_565 S
C1612 N1610 1.356 . S
C1613 C1607 1.363 . S
C1613 C1608 1.379 . S
C1613 N1611 1.356 . S
N1614 C1606 1.356 . S
N1614 H1620 0.984 . S
N1614 H1621 0.984 . S
N1615 C1608 1.356 . S
N1615 H1618 0.984 . S
N1615 H1619 0.985 . S
H1616 N1611 0.984 . S
H1617 N1611 0.985 . S
H1618 N1615 0.984 . S
H1619 N1615 0.985 . S
H1620 N1614 0.984 . S
H1621 N1614 0.984 . S
H1622 N1610 0.984 . S
H1623 N1610 0.985 . S
C1624 C1625 1.363 . S
C1624 C1630 1.379 . S
C1624 N1632 1.356 . S
C1625 C1624 1.363 . S
C1625 C1631 1.363 . S
C1626 C1627 1.363 . S
C1626 C1631 1.379 . S
C1626 N1633 1.356 . S
C1627 C1626 1.363 . S
C1627 C1630 1.363 . S
N1628 C1630 1.356 . S
N1628 H1640 0.984 . S
N1628 H1641 0.985 . S
N1629 C1631 1.356 . S
N1629 H1634 0.984 . S
N1629 H1635 0.985 . S
C1630 C1624 1.379 . S
C1630 C1627 1.363 . S
C1630 N1628 1.356 . S
C1631 C1625 1.363 . S
C1631 C1626 1.379 . S
C1631 N1629 1.356 . S
N1632 C1624 1.356 . S
N1632 H1638 0.984 . S
N1632 H1639 0.984 . S
N1633 C1626 1.356 . S
N1633 H1636 0.984 . S
N1633 H1637 0.985 . S
H1634 N1629 0.984 . S
H1635 N1629 0.985 . S
H1636 N1633 0.984 . S
H1637 N1633 0.985 . S
H1638 N1632 0.984 . S
H1639 N1632 0.984 . S
H1640 N1628 0.984 . S
H1641 N1628 0.985 . S
C1642 C1643 1.363 1_455 S
C1642 C1648 1.379 . S
C1642 N1650 1.356 . S
C1643 C1642 1.363 1_655 S
C1643 C1649 1.363 . S
C1644 C1645 1.363 1_655 S
C1644 C1649 1.379 . S
C1644 N1651 1.356 . S
C1645 C1644 1.363 1_455 S
C1645 C1648 1.363 . S
N1646 C1648 1.356 . S
N1646 H1658 0.984 . S
N1646 H1659 0.985 . S
N1647 C1649 1.356 . S
N1647 H1652 0.984 . S
N1647 H1653 0.985 . S
C1648 C1642 1.379 . S
C1648 C1645 1.363 . S
C1648 N1646 1.356 . S
C1649 C1643 1.363 . S
C1649 C1644 1.379 . S
C1649 N1647 1.356 . S
N1650 C1642 1.356 . S
N1650 H1656 0.984 . S
N1650 H1657 0.984 . S
N1651 C1644 1.356 . S
N1651 H1654 0.984 . S
N1651 H1655 0.985 . S
H1652 N1647 0.984 . S
H1653 N1647 0.985 . S
H1654 N1651 0.984 . S
H1655 N1651 0.985 . S
H1656 N1650 0.984 . S
H1657 N1650 0.984 . S
H1658 N1646 0.984 . S
H1659 N1646 0.985 . S
C1660 C1661 1.363 . S
C1660 C1666 1.379 . S
C1660 N1668 1.356 . S
C1661 C1660 1.363 . S
C1661 C1667 1.363 . S
C1662 C1663 1.363 . S
C1662 C1667 1.379 . S
C1662 N1669 1.356 . S
C1663 C1662 1.363 . S
C1663 C1666 1.363 . S
N1664 C1666 1.356 . S
N1664 H1676 0.984 . S
N1664 H1677 0.985 . S
N1665 C1667 1.356 . S
N1665 H1670 0.984 . S
N1665 H1671 0.985 . S
C1666 C1660 1.379 . S
C1666 C1663 1.363 . S
C1666 N1664 1.356 . S
C1667 C1661 1.363 . S
C1667 C1662 1.379 . S
C1667 N1665 1.356 . S
N1668 C1660 1.356 . S
N1668 H1674 0.984 . S
N1668 H1675 0.984 . S
N1669 C1662 1.356 . S
N1669 H1672 0.984 . S
N1669 H1673 0.985 . S
H1670 N1665 0.984 . S
H1671 N1665 0.985 . S
H1672 N1669 0.984 . S
H1673 N1669 0.985 . S
H1674 N1668 0.984 . S
H1675 N1668 0.984 . S
H1676 N1664 0.984 . S
H1677 N1664 0.985 . S
C1678 C1679 1.363 1_455 S
C1678 C1684 1.379 . S
C1678 N1686 1.356 . S
C1679 C1678 1.363 1_655 S
C1679 C1685 1.363 . S
C1680 C1681 1.363 1_655 S
C1680 C1685 1.379 . S
C1680 N1687 1.356 . S
C1681 C1680 1.363 1_455 S
C1681 C1684 1.363 . S
N1682 C1684 1.356 . S
N1682 H1694 0.984 . S
N1682 H1695 0.985 . S
N1683 C1685 1.356 . S
N1683 H1688 0.984 . S
N1683 H1689 0.985 . S
C1684 C1678 1.379 . S
C1684 C1681 1.363 . S
C1684 N1682 1.356 . S
C1685 C1679 1.363 . S
C1685 C1680 1.379 . S
C1685 N1683 1.356 . S
N1686 C1678 1.356 . S
N1686 H1692 0.984 . S
N1686 H1693 0.984 . S
N1687 C1680 1.356 . S
N1687 H1690 0.984 . S
N1687 H1691 0.985 . S
H1688 N1683 0.984 . S
H1689 N1683 0.985 . S
H1690 N1687 0.984 . S
H1691 N1687 0.985 . S
H1692 N1686 0.984 . S
H1693 N1686 0.984 . S
H1694 N1682 0.984 . S
H1695 N1682 0.985 . S
C1696 C1697 1.363 . S
C1696 C1702 1.394 . S
C1696 N1704 1.356 . S
C1697 C1696 1.363 . S
C1697 C1703 1.347 1_455 S
C1698 C1699 1.363 . S
C1698 C1703 1.394 . S
C1698 N1705 1.356 . S
C1699 C1698 1.363 . S
C1699 C1702 1.347 1_655 S
N1700 C1702 1.352 1_655 S
N1700 H1712 0.984 1_655 S
N1700 H1713 0.985 . S
N1701 C1703 1.352 1_455 S
N1701 H1706 0.984 . S
N1701 H1707 0.985 1_455 S
C1702 C1696 1.394 . S
C1702 C1699 1.347 1_455 S
C1702 N1700 1.352 1_455 S
C1703 C1697 1.347 1_655 S
C1703 C1698 1.394 . S
C1703 N1701 1.352 1_655 S
N1704 C1696 1.356 . S
N1704 H1710 0.984 . S
N1704 H1711 0.984 . S
N1705 C1698 1.356 . S
N1705 H1708 0.984 . S
N1705 H1709 0.985 . S
H1706 N1701 0.984 . S
H1707 N1701 0.985 1_655 S
H1708 N1705 0.984 . S
H1709 N1705 0.985 . S
H1710 N1704 0.984 . S
H1711 N1704 0.984 . S
H1712 N1700 0.984 1_455 S
H1713 N1700 0.985 . S
C1714 C1715 1.363 . S
C1714 C1720 1.379 . S
C1714 N1722 1.356 . S
C1715 C1714 1.363 . S
C1715 C1721 1.363 . S
C1716 C1717 1.363 . S
C1716 C1721 1.379 . S
C1716 N1723 1.356 . S
C1717 C1716 1.363 . S
C1717 C1720 1.363 . S
N1718 C1720 1.356 . S
N1718 H1730 0.984 . S
N1718 H1731 0.985 . S
N1719 C1721 1.356 . S
N1719 H1724 0.984 . S
N1719 H1725 0.985 . S
C1720 C1714 1.379 . S
C1720 C1717 1.363 . S
C1720 N1718 1.356 . S
C1721 C1715 1.363 . S
C1721 C1716 1.379 . S
C1721 N1719 1.356 . S
N1722 C1714 1.356 . S
N1722 H1728 0.984 . S
N1722 H1729 0.984 . S
N1723 C1716 1.356 . S
N1723 H1726 0.984 . S
N1723 H1727 0.985 . S
H1724 N1719 0.984 . S
H1725 N1719 0.985 . S
H1726 N1723 0.984 . S
H1727 N1723 0.985 . S
H1728 N1722 0.984 . S
H1729 N1722 0.984 . S
H1730 N1718 0.984 . S
H1731 N1718 0.985 . S
C1732 C1733 1.363 . S
C1732 C1738 1.379 . S
C1732 N1740 1.356 . S
C1733 C1732 1.363 . S
C1733 C1739 1.363 . S
C1734 C1735 1.363 . S
C1734 C1739 1.379 . S
C1734 N1741 1.356 . S
C1735 C1734 1.363 . S
C1735 C1738 1.363 . S
N1736 C1738 1.356 . S
N1736 H1748 0.984 . S
N1736 H1749 0.985 . S
N1737 C1739 1.356 . S
N1737 H1742 0.984 . S
N1737 H1743 0.985 . S
C1738 C1732 1.379 . S
C1738 C1735 1.363 . S
C1738 N1736 1.356 . S
C1739 C1733 1.363 . S
C1739 C1734 1.379 . S
C1739 N1737 1.356 . S
N1740 C1732 1.356 . S
N1740 H1746 0.984 . S
N1740 H1747 0.984 . S
N1741 C1734 1.356 . S
N1741 H1744 0.984 . S
N1741 H1745 0.985 . S
H1742 N1737 0.984 . S
H1743 N1737 0.985 . S
H1744 N1741 0.984 . S
H1745 N1741 0.985 . S
H1746 N1740 0.984 . S
H1747 N1740 0.984 . S
H1748 N1736 0.984 . S
H1749 N1736 0.985 . S
C1750 C1751 1.363 . S
C1750 C1756 1.393 . S
C1750 N1758 1.356 . S
C1751 C1750 1.363 . S
C1751 C1757 1.348 1_455 S
C1752 C1753 1.363 . S
C1752 C1757 1.393 . S
C1752 N1759 1.356 . S
C1753 C1752 1.363 . S
C1753 C1756 1.348 1_655 S
N1754 C1756 1.352 1_655 S
N1754 H1766 0.984 1_655 S
N1754 H1767 0.985 . S
N1755 C1757 1.352 1_455 S
N1755 H1760 0.984 . S
N1755 H1761 0.985 1_455 S
C1756 C1750 1.393 . S
C1756 C1753 1.348 1_455 S
C1756 N1754 1.352 1_455 S
C1757 C1751 1.348 1_655 S
C1757 C1752 1.393 . S
C1757 N1755 1.352 1_655 S
N1758 C1750 1.356 . S
N1758 H1764 0.984 . S
N1758 H1765 0.984 . S
N1759 C1752 1.356 . S
N1759 H1762 0.984 . S
N1759 H1763 0.985 . S
H1760 N1755 0.984 . S
H1761 N1755 0.985 1_655 S
H1762 N1759 0.984 . S
H1763 N1759 0.985 . S
H1764 N1758 0.984 . S
H1765 N1758 0.984 . S
H1766 N1754 0.984 1_455 S
H1767 N1754 0.985 . S
C1768 C1769 1.350 1_655 S
C1768 C1774 1.392 . S
C1768 N1776 1.352 1_655 S
C1769 C1768 1.350 1_455 S
C1769 C1775 1.363 . S
C1770 C1771 1.350 1_455 S
C1770 C1775 1.392 . S
C1770 N1777 1.352 1_455 S
C1771 C1770 1.350 1_655 S
C1771 C1774 1.363 . S
N1772 C1774 1.356 . S
N1772 H1784 0.984 . S
N1772 H1785 0.985 . S
N1773 C1775 1.356 . S
N1773 H1778 0.984 . S
N1773 H1779 0.985 . S
C1774 C1768 1.392 . S
C1774 C1771 1.363 . S
C1774 N1772 1.356 . S
C1775 C1769 1.363 . S
C1775 C1770 1.392 . S
C1775 N1773 1.356 . S
N1776 C1768 1.352 1_455 S
N1776 H1782 0.984 1_455 S
N1776 H1783 0.984 . S
N1777 C1770 1.352 1_655 S
N1777 H1780 0.984 . S
N1777 H1781 0.985 1_655 S
H1778 N1773 0.984 . S
H1779 N1773 0.985 . S
H1780 N1777 0.984 . S
H1781 N1777 0.985 1_455 S
H1782 N1776 0.984 1_655 S
H1783 N1776 0.984 . S
H1784 N1772 0.984 . S
H1785 N1772 0.985 . S
C1786 C1787 1.363 . S
C1786 C1792 1.379 . S
C1786 N1794 1.356 . S
C1787 C1786 1.363 . S
C1787 C1793 1.363 . S
C1788 C1789 1.363 . S
C1788 C1793 1.379 . S
C1788 N1795 1.356 . S
C1789 C1788 1.363 . S
C1789 C1792 1.363 . S
N1790 C1792 1.356 . S
N1790 H1802 0.984 . S
N1790 H1803 0.985 . S
N1791 C1793 1.356 . S
N1791 H1796 0.984 . S
N1791 H1797 0.985 . S
C1792 C1786 1.379 . S
C1792 C1789 1.363 . S
C1792 N1790 1.356 . S
C1793 C1787 1.363 . S
C1793 C1788 1.379 . S
C1793 N1791 1.356 . S
N1794 C1786 1.356 . S
N1794 H1800 0.984 . S
N1794 H1801 0.984 . S
N1795 C1788 1.356 . S
N1795 H1798 0.984 . S
N1795 H1799 0.985 . S
H1796 N1791 0.984 . S
H1797 N1791 0.985 . S
H1798 N1795 0.984 . S
H1799 N1795 0.985 . S
H1800 N1794 0.984 . S
H1801 N1794 0.984 . S
H1802 N1790 0.984 . S
H1803 N1790 0.985 . S
C1804 C1805 1.363 . S
C1804 C1810 1.379 . S
C1804 N1812 1.356 . S
C1805 C1804 1.363 . S
C1805 C1811 1.363 . S
C1806 C1807 1.363 . S
C1806 C1811 1.379 . S
C1806 N1813 1.356 . S
C1807 C1806 1.363 . S
C1807 C1810 1.363 . S
N1808 C1810 1.356 . S
N1808 H1820 0.984 . S
N1808 H1821 0.985 . S
N1809 C1811 1.356 . S
N1809 H1814 0.984 . S
N1809 H1815 0.985 . S
C1810 C1804 1.379 . S
C1810 C1807 1.363 . S
C1810 N1808 1.356 . S
C1811 C1805 1.363 . S
C1811 C1806 1.379 . S
C1811 N1809 1.356 . S
N1812 C1804 1.356 . S
N1812 H1818 0.984 . S
N1812 H1819 0.984 . S
N1813 C1806 1.356 . S
N1813 H1816 0.984 . S
N1813 H1817 0.985 . S
H1814 N1809 0.984 . S
H1815 N1809 0.985 . S
H1816 N1813 0.984 . S
H1817 N1813 0.985 . S
H1818 N1812 0.984 . S
H1819 N1812 0.984 . S
H1820 N1808 0.984 . S
H1821 N1808 0.985 . S
C1822 C1823 1.363 . S
C1822 C1828 1.392 . S
C1822 N1830 1.356 . S
C1823 C1822 1.363 . S
C1823 C1829 1.350 1_455 S
C1824 C1825 1.363 . S
C1824 C1829 1.392 . S
C1824 N1831 1.356 . S
C1825 C1824 1.363 . S
C1825 C1828 1.350 1_655 S
N1826 C1828 1.352 1_655 S
N1826 H1838 0.984 1_655 S
N1826 H1839 0.985 . S
N1827 C1829 1.352 1_455 S
N1827 H1832 0.984 . S
N1827 H1833 0.985 1_455 S
C1828 C1822 1.392 . S
C1828 C1825 1.350 1_455 S
C1828 N1826 1.352 1_455 S
C1829 C1823 1.350 1_655 S
C1829 C1824 1.392 . S
C1829 N1827 1.352 1_655 S
N1830 C1822 1.356 . S
N1830 H1836 0.984 . S
N1830 H1837 0.984 . S
N1831 C1824 1.356 . S
N1831 H1834 0.984 . S
N1831 H1835 0.985 . S
H1832 N1827 0.984 . S
H1833 N1827 0.985 1_655 S
H1834 N1831 0.984 . S
H1835 N1831 0.985 . S
H1836 N1830 0.984 . S
H1837 N1830 0.984 . S
H1838 N1826 0.984 1_455 S
H1839 N1826 0.985 . S
C1840 C1841 1.363 1_665 S
C1840 C1846 1.379 1_556 S
C1840 N1848 1.356 . S
C1841 C1840 1.363 1_445 S
C1841 C1847 1.363 . S
C1842 C1843 1.363 1_445 S
C1842 C1847 1.379 1_554 S
C1842 N1849 1.356 . S
C1843 C1842 1.363 1_665 S
C1843 C1846 1.363 . S
N1844 C1846 1.356 . S
N1844 H1856 0.984 . S
N1844 H1857 0.985 . S
N1845 C1847 1.356 . S
N1845 H1850 0.984 . S
N1845 H1851 0.985 . S
C1846 C1840 1.379 1_554 S
C1846 C1843 1.363 . S
C1846 N1844 1.356 . S
C1847 C1841 1.363 . S
C1847 C1842 1.379 1_556 S
C1847 N1845 1.356 . S
N1848 C1840 1.356 . S
N1848 H1854 0.984 . S
N1848 H1855 0.984 . S
N1849 C1842 1.356 . S
N1849 H1852 0.984 . S
N1849 H1853 0.985 . S
H1850 N1845 0.984 . S
H1851 N1845 0.985 . S
H1852 N1849 0.984 . S
H1853 N1849 0.985 . S
H1854 N1848 0.984 . S
H1855 N1848 0.984 . S
H1856 N1844 0.984 . S
H1857 N1844 0.985 . S
C1858 C1859 1.363 . S
C1858 C1864 1.379 1_556 S
C1858 N1866 1.356 . S
C1859 C1858 1.363 . S
C1859 C1865 1.363 1_565 S
C1860 C1861 1.363 . S
C1860 C1865 1.379 1_554 S
C1860 N1867 1.356 . S
C1861 C1860 1.363 . S
C1861 C1864 1.363 1_545 S
N1862 C1864 1.356 . S
N1862 H1874 0.984 . S
N1862 H1875 0.985 . S
N1863 C1865 1.356 . S
N1863 H1868 0.984 . S
N1863 H1869 0.985 . S
C1864 C1858 1.379 1_554 S
C1864 C1861 1.363 1_565 S
C1864 N1862 1.356 . S
C1865 C1859 1.363 1_545 S
C1865 C1860 1.379 1_556 S
C1865 N1863 1.356 . S
N1866 C1858 1.356 . S
N1866 H1872 0.984 . S
N1866 H1873 0.984 . S
N1867 C1860 1.356 . S
N1867 H1870 0.984 . S
N1867 H1871 0.985 . S
H1868 N1863 0.984 . S
H1869 N1863 0.985 . S
H1870 N1867 0.984 . S
H1871 N1867 0.985 . S
H1872 N1866 0.984 . S
H1873 N1866 0.984 . S
H1874 N1862 0.984 . S
H1875 N1862 0.985 . S
C1876 C1877 1.363 . S
C1876 C1882 1.379 . S
C1876 N1884 1.356 . S
C1877 C1876 1.363 . S
C1877 C1883 1.363 1_565 S
C1878 C1879 1.363 . S
C1878 C1883 1.379 . S
C1878 N1885 1.356 . S
C1879 C1878 1.363 . S
C1879 C1882 1.363 1_545 S
N1880 C1882 1.356 . S
N1880 H1892 0.984 . S
N1880 H1893 0.985 1_565 S
N1881 C1883 1.356 . S
N1881 H1886 0.984 1_545 S
N1881 H1887 0.985 . S
C1882 C1876 1.379 . S
C1882 C1879 1.363 1_565 S
C1882 N1880 1.356 . S
C1883 C1877 1.363 1_545 S
C1883 C1878 1.379 . S
C1883 N1881 1.356 . S
N1884 C1876 1.356 . S
N1884 H1890 0.984 . S
N1884 H1891 0.984 . S
N1885 C1878 1.356 . S
N1885 H1888 0.984 . S
N1885 H1889 0.985 . S
H1886 N1881 0.984 1_565 S
H1887 N1881 0.985 . S
H1888 N1885 0.984 . S
H1889 N1885 0.985 . S
H1890 N1884 0.984 . S
H1891 N1884 0.984 . S
H1892 N1880 0.984 . S
H1893 N1880 0.985 1_545 S
C1894 C1895 1.363 1_465 S
C1894 C1900 1.379 . S
C1894 N1902 1.356 . S
C1895 C1894 1.363 1_645 S
C1895 C1901 1.363 . S
C1896 C1897 1.363 1_645 S
C1896 C1901 1.379 . S
C1896 N1903 1.356 . S
C1897 C1896 1.363 1_465 S
C1897 C1900 1.363 . S
N1898 C1900 1.356 . S
N1898 H1910 0.984 . S
N1898 H1911 0.985 . S
N1899 C1901 1.356 . S
N1899 H1904 0.984 . S
N1899 H1905 0.985 . S
C1900 C1894 1.379 . S
C1900 C1897 1.363 . S
C1900 N1898 1.356 . S
C1901 C1895 1.363 . S
C1901 C1896 1.379 . S
C1901 N1899 1.356 . S
N1902 C1894 1.356 . S
N1902 H1908 0.984 . S
N1902 H1909 0.984 . S
N1903 C1896 1.356 . S
N1903 H1906 0.984 . S
N1903 H1907 0.985 . S
H1904 N1899 0.984 . S
H1905 N1899 0.985 . S
H1906 N1903 0.984 . S
H1907 N1903 0.985 . S
H1908 N1902 0.984 . S
H1909 N1902 0.984 . S
H1910 N1898 0.984 . S
H1911 N1898 0.985 . S
C1912 C1913 1.363 . S
C1912 C1918 1.379 1_554 S
C1912 N1920 1.356 . S
C1913 C1912 1.363 . S
C1913 C1919 1.363 . S
C1914 C1915 1.363 . S
C1914 C1919 1.379 1_556 S
C1914 N1921 1.356 . S
C1915 C1914 1.363 . S
C1915 C1918 1.363 . S
N1916 C1918 1.356 . S
N1916 H1928 0.984 . S
N1916 H1929 0.985 . S
N1917 C1919 1.356 . S
N1917 H1922 0.984 . S
N1917 H1923 0.985 . S
C1918 C1912 1.379 1_556 S
C1918 C1915 1.363 . S
C1918 N1916 1.356 . S
C1919 C1913 1.363 . S
C1919 C1914 1.379 1_554 S
C1919 N1917 1.356 . S
N1920 C1912 1.356 . S
N1920 H1926 0.984 . S
N1920 H1927 0.984 . S
N1921 C1914 1.356 . S
N1921 H1924 0.984 . S
N1921 H1925 0.985 . S
H1922 N1917 0.984 . S
H1923 N1917 0.985 . S
H1924 N1921 0.984 . S
H1925 N1921 0.985 . S
H1926 N1920 0.984 . S
H1927 N1920 0.984 . S
H1928 N1916 0.984 . S
H1929 N1916 0.985 . S
C1930 C1931 1.363 . S
C1930 C1936 1.379 1_554 S
C1930 N1938 1.356 . S
C1931 C1930 1.363 . S
C1931 C1937 1.363 1_455 S
C1932 C1933 1.363 . S
C1932 C1937 1.379 1_556 S
C1932 N1939 1.356 . S
C1933 C1932 1.363 . S
C1933 C1936 1.363 1_655 S
N1934 C1936 1.356 . S
N1934 H1946 0.984 . S
N1934 H1947 0.985 . S
N1935 C1937 1.356 . S
N1935 H1940 0.984 . S
N1935 H1941 0.985 . S
C1936 C1930 1.379 1_556 S
C1936 C1933 1.363 1_455 S
C1936 N1934 1.356 . S
C1937 C1931 1.363 1_655 S
C1937 C1932 1.379 1_554 S
C1937 N1935 1.356 . S
N1938 C1930 1.356 . S
N1938 H1944 0.984 . S
N1938 H1945 0.984 . S
N1939 C1932 1.356 . S
N1939 H1942 0.984 . S
N1939 H1943 0.985 . S
H1940 N1935 0.984 . S
H1941 N1935 0.985 . S
H1942 N1939 0.984 . S
H1943 N1939 0.985 . S
H1944 N1938 0.984 . S
H1945 N1938 0.984 . S
H1946 N1934 0.984 . S
H1947 N1934 0.985 . S
C1948 C1949 1.363 . S
C1948 C1954 1.379 . S
C1948 N1956 1.356 . S
C1949 C1948 1.363 . S
C1949 C1955 1.363 1_455 S
C1950 C1951 1.363 . S
C1950 C1955 1.379 . S
C1950 N1957 1.356 . S
C1951 C1950 1.363 . S
C1951 C1954 1.363 1_655 S
N1952 C1954 1.356 . S
N1952 H1964 0.984 . S
N1952 H1965 0.985 . S
N1953 C1955 1.356 . S
N1953 H1958 0.984 . S
N1953 H1959 0.985 . S
C1954 C1948 1.379 . S
C1954 C1951 1.363 1_455 S
C1954 N1952 1.356 . S
C1955 C1949 1.363 1_655 S
C1955 C1950 1.379 . S
C1955 N1953 1.356 . S
N1956 C1948 1.356 . S
N1956 H1962 0.984 . S
N1956 H1963 0.984 . S
N1957 C1950 1.356 . S
N1957 H1960 0.984 . S
N1957 H1961 0.985 . S
H1958 N1953 0.984 . S
H1959 N1953 0.985 . S
H1960 N1957 0.984 . S
H1961 N1957 0.985 . S
H1962 N1956 0.984 . S
H1963 N1956 0.984 . S
H1964 N1952 0.984 . S
H1965 N1952 0.985 . S
C1966 C1967 1.363 . S
C1966 C1972 1.379 . S
C1966 N1974 1.356 . S
C1967 C1966 1.363 . S
C1967 C1973 1.363 . S
C1968 C1969 1.363 . S
C1968 C1973 1.379 . S
C1968 N1975 1.356 . S
C1969 C1968 1.363 . S
C1969 C1972 1.363 . S
N1970 C1972 1.356 . S
N1970 H1982 0.984 . S
N1970 H1983 0.985 . S
N1971 C1973 1.356 . S
N1971 H1976 0.984 . S
N1971 H1977 0.985 . S
C1972 C1966 1.379 . S
C1972 C1969 1.363 . S
C1972 N1970 1.356 . S
C1973 C1967 1.363 . S
C1973 C1968 1.379 . S
C1973 N1971 1.356 . S
N1974 C1966 1.356 . S
N1974 H1980 0.984 . S
N1974 H1981 0.984 . S
N1975 C1968 1.356 . S
N1975 H1978 0.984 . S
N1975 H1979 0.985 . S
H1976 N1971 0.984 . S
H1977 N1971 0.985 . S
H1978 N1975 0.984 . S
H1979 N1975 0.985 . S
H1980 N1974 0.984 . S
H1981 N1974 0.984 . S
H1982 N1970 0.984 . S
H1983 N1970 0.985 . S
C1409 C137 1.531 . S
C1411 C29 1.531 . S
C1427 C196 1.531 . S
C1429 C293 1.531 . S
C1445 C401 1.525 . S
C1447 C489 1.525 . S
C1463 C645 1.525 . S
C1465 C548 1.525 . S
C1481 C841 1.531 . S
C1483 C753 1.531 . S
C1499 C997 1.531 . S
C1501 C909 1.531 . S
C1517 C1201 1.525 . S
C1519 C1113 1.525 . S
C1535 C1349 1.525 . S
C1537 C1252 1.525 . S
C1553 C313 1.323 1_455 S
C1555 C49 1.323 1_655 S
C1571 C117 1.323 . S
C1573 C233 1.323 . S
C1589 C636 1.322 1_655 S
C1591 C409 1.322 1_455 S
C1607 C557 1.322 . S
C1609 C497 1.322 . S
C1625 C733 1.323 . S
C1627 C1017 1.323 . S
C1643 C929 1.323 1_655 S
C1645 C821 1.323 1_455 S
C1661 C1340 1.322 . S
C1663 C1105 1.322 . S
C1679 C1193 1.322 1_655 S
C1681 C1261 1.322 1_455 S
C1697 C57 1.773 . S
C1699 C812 1.773 . S
C1715 C108 1.773 . S
C1717 C724 1.773 . S
C1733 C1025 1.773 . S
C1735 C225 1.773 . S
C1751 C937 1.773 . S
C1753 C321 1.773 . S
C1769 C1173 1.775 . S
C1771 C372 1.775 . S
C1787 C1085 1.775 . S
C1789 C460 1.775 . S
C1805 C577 1.775 . S
C1807 C1377 1.775 . S
C1823 C673 1.775 . S
C1825 C1281 1.775 . S
C1841 C381 1.534 . S
C1843 C20 1.537 . S
C1859 C469 1.534 . S
C1861 C145 1.537 . S
C1877 C585 1.534 . S
C1879 C205 1.537 . S
C1895 C665 1.534 . S
C1897 C284 1.537 . S
C1913 C761 1.537 . S
C1915 C1076 1.534 . S
C1931 C849 1.537 . S
C1933 C1164 1.534 . S
C1949 C1289 1.534 . S
C1951 C900 1.537 . S
C1967 C1369 1.534 . S
C1969 C988 1.537 . S
