# Generated by pormake.
# Topology zfa, (5)-cn, num edge types: 1
# Building blocks:
#     Node 0, Type 0, BuildingBlock: XOMCOT_clean_sbu_1, # of connection points: 5
#     Node 1, Type 0, BuildingBlock: XOMCOT_clean_sbu_1, # of connection points: 5
#     Node 2, Type 0, BuildingBlock: XOMCOT_clean_sbu_1, # of connection points: 5
#     Node 3, Type 0, BuildingBlock: XOMCOT_clean_sbu_1, # of connection points: 5
#     Node 4, Type 0, BuildingBlock: XOMCOT_clean_sbu_1, # of connection points: 5
#     Node 5, Type 0, BuildingBlock: XOMCOT_clean_sbu_1, # of connection points: 5
#     Node 6, Type 0, BuildingBlock: XOMCOT_clean_sbu_1, # of connection points: 5
#     Node 7, Type 0, BuildingBlock: XOMCOT_clean_sbu_1, # of connection points: 5
#     Edge 8, Type (0, 0), BuildingBlock: MIFKUJ_clean_linker_0, # of connection points: 2
#     Edge 9, Type (0, 0), BuildingBlock: MIFKUJ_clean_linker_0, # of connection points: 2
#     Edge 10, Type (0, 0), BuildingBlock: MIFKUJ_clean_linker_0, # of connection points: 2
#     Edge 11, Type (0, 0), BuildingBlock: MIFKUJ_clean_linker_0, # of connection points: 2
#     Edge 12, Type (0, 0), BuildingBlock: MIFKUJ_clean_linker_0, # of connection points: 2
#     Edge 13, Type (0, 0), BuildingBlock: MIFKUJ_clean_linker_0, # of connection points: 2
#     Edge 14, Type (0, 0), BuildingBlock: MIFKUJ_clean_linker_0, # of connection points: 2
#     Edge 15, Type (0, 0), BuildingBlock: MIFKUJ_clean_linker_0, # of connection points: 2
#     Edge 16, Type (0, 0), BuildingBlock: MIFKUJ_clean_linker_0, # of connection points: 2
#     Edge 17, Type (0, 0), BuildingBlock: MIFKUJ_clean_linker_0, # of connection points: 2
#     Edge 18, Type (0, 0), BuildingBlock: MIFKUJ_clean_linker_0, # of connection points: 2
#     Edge 19, Type (0, 0), BuildingBlock: MIFKUJ_clean_linker_0, # of connection points: 2
#     Edge 20, Type (0, 0), BuildingBlock: MIFKUJ_clean_linker_0, # of connection points: 2
#     Edge 21, Type (0, 0), BuildingBlock: MIFKUJ_clean_linker_0, # of connection points: 2
#     Edge 22, Type (0, 0), BuildingBlock: MIFKUJ_clean_linker_0, # of connection points: 2
#     Edge 23, Type (0, 0), BuildingBlock: MIFKUJ_clean_linker_0, # of connection points: 2
#     Edge 24, Type (0, 0), BuildingBlock: MIFKUJ_clean_linker_0, # of connection points: 2
#     Edge 25, Type (0, 0), BuildingBlock: MIFKUJ_clean_linker_0, # of connection points: 2
#     Edge 26, Type (0, 0), BuildingBlock: MIFKUJ_clean_linker_0, # of connection points: 2
#     Edge 27, Type (0, 0), BuildingBlock: MIFKUJ_clean_linker_0, # of connection points: 2
# Relax obj value: 0.181
# Max RMSD: 0.168
# Mean RMSD: 0.168
data_MOF--net-zfa--node1-XOMCOT_clean_sbu_1--edge1-MIFKUJ_clean_linker_0
_symmetry_space_group_name_H-M    P1
_symmetry_Int_Tables_number       1
_symmetry_cell_setting            triclinic
loop_
_symmetry_equiv_pos_as_xyz
'x, y, z'
_cell_length_a     39.405039
_cell_length_b     39.44454
_cell_length_c     53.51282
_cell_angle_alpha  89.936047
_cell_angle_beta   89.998202
_cell_angle_gamma 90.018167
loop_
_atom_site_label
_atom_site_type_symbol
_atom_site_fract_x
_atom_site_fract_y
_atom_site_fract_z
_atom_type_partial_charge
C0 C 0.123 0.20613 0.32427 0.0
C1 C 0.11204 0.17341 0.32074 0.0
N2 N 0.09945 0.16163 0.34254 0.0
N3 N 0.11771 0.21501 0.34824 0.0
C4 C 0.10325 0.1875 0.35892 0.0
H5 H 0.13292 0.22292 0.31004 0.0
Co6 Co 0.12301 0.25862 0.36097 0.0
C7 C 0.15819 0.24421 0.40931 0.0
O8 O 0.18358 0.26375 0.40275 0.0
N9 N 0.12728 0.30418 0.37361 0.0
C10 C 0.1462 0.35583 0.38396 0.0
C11 C 0.15533 0.32304 0.37836 0.0
C12 C 0.10151 0.32658 0.37686 0.0
N13 N 0.11224 0.35809 0.38273 0.0
O14 O 0.07559 0.25861 0.36821 0.0
H15 H 0.18122 0.31448 0.3765 0.0
H16 H 0.07508 0.32045 0.37457 0.0
O17 O 0.13302 0.23996 0.39451 0.0
C18 C 0.06052 0.26801 0.34829 0.0
O19 O 0.07903 0.27769 0.32912 0.0
N20 N 0.16856 0.2581 0.35043 0.0
C21 C 0.2301 0.2554 0.3244 0.0
C22 C 0.22196 0.23077 0.34246 0.0
C23 C 0.19085 0.23231 0.35504 0.0
C24 C 0.17556 0.28148 0.33237 0.0
C25 C 0.20643 0.2812 0.31969 0.0
H26 H 0.18401 0.21199 0.36765 0.0
H27 H 0.15671 0.30028 0.32748 0.0
H28 H 0.0947 0.18699 0.37812 0.0
H29 H 0.11187 0.16004 0.3031 0.0
H30 H 0.16341 0.37676 0.38723 0.0
H31 H 0.23877 0.20964 0.34614 0.0
H32 H 0.21135 0.30086 0.30604 0.0
C33 C 0.30742 0.63543 0.82552 0.0
C34 C 0.34059 0.62552 0.8221 0.0
N35 N 0.34992 0.60623 0.84176 0.0
N36 N 0.29595 0.62257 0.84728 0.0
C37 C 0.32242 0.60506 0.85678 0.0
H38 H 0.29227 0.64987 0.81246 0.0
Co39 Co 0.25178 0.62298 0.85946 0.0
C40 C 0.26266 0.61479 0.91328 0.0
O41 O 0.24049 0.5899 0.91314 0.0
N42 N 0.20709 0.6232 0.87157 0.0
C43 C 0.15966 0.63574 0.8921 0.0
C44 C 0.19317 0.64443 0.88847 0.0
C45 C 0.18149 0.60227 0.86495 0.0
N46 N 0.1524 0.60907 0.87731 0.0
O47 O 0.25406 0.57472 0.86318 0.0
H48 H 0.20663 0.66472 0.89776 0.0
H49 H 0.1839 0.58261 0.85107 0.0
O50 O 0.26952 0.63042 0.89301 0.0
C51 C 0.2472 0.56144 0.84208 0.0
O52 O 0.23959 0.58157 0.8233 0.0
N53 N 0.24873 0.66922 0.85311 0.0
C54 C 0.24432 0.73457 0.8333 0.0
C55 C 0.26319 0.72819 0.85519 0.0
C56 C 0.26535 0.69511 0.86474 0.0
C57 C 0.22959 0.67503 0.83241 0.0
C58 C 0.22716 0.70732 0.82213 0.0
H59 H 0.28106 0.69025 0.8809 0.0
H60 H 0.21725 0.65396 0.8232 0.0
H61 H 0.32078 0.58993 0.87362 0.0
H62 H 0.35625 0.63127 0.80603 0.0
H63 H 0.14227 0.64772 0.90501 0.0
H64 H 0.27664 0.74836 0.86466 0.0
H65 H 0.21308 0.71039 0.80492 0.0
C66 C 0.88605 0.81005 0.32163 0.0
C67 C 0.89816 0.84248 0.31853 0.0
N68 N 0.91307 0.85219 0.34 0.0
N69 N 0.89329 0.79937 0.34496 0.0
C70 C 0.90965 0.82567 0.35578 0.0
H71 H 0.87447 0.79453 0.30733 0.0
Co72 Co 0.88948 0.75484 0.3561 0.0
C73 C 0.86217 0.76132 0.40757 0.0
O74 O 0.84009 0.7374 0.40259 0.0
N75 N 0.88661 0.70826 0.36707 0.0
C76 C 0.86929 0.65508 0.3742 0.0
C77 C 0.85921 0.6875 0.36858 0.0
C78 C 0.913 0.68728 0.3724 0.0
N79 N 0.9032 0.65494 0.37645 0.0
O80 O 0.93751 0.75422 0.36042 0.0
H81 H 0.83316 0.69492 0.36559 0.0
H82 H 0.93931 0.69489 0.3723 0.0
O83 O 0.88282 0.77117 0.3906 0.0
C84 C 0.94931 0.74537 0.33921 0.0
O85 O 0.92764 0.7378 0.32139 0.0
N86 N 0.84323 0.75588 0.34817 0.0
C87 C 0.78015 0.75985 0.3244 0.0
C88 C 0.78757 0.78035 0.34526 0.0
C89 C 0.8195 0.77822 0.35677 0.0
C90 C 0.83672 0.73657 0.32763 0.0
C91 C 0.8052 0.73733 0.31601 0.0
H92 H 0.82571 0.79568 0.37163 0.0
H93 H 0.85648 0.72053 0.32008 0.0
H94 H 0.92114 0.82444 0.37414 0.0
H95 H 0.8973 0.8573 0.3015 0.0
H96 H 0.85292 0.63318 0.37609 0.0
H97 H 0.76954 0.79893 0.35196 0.0
H98 H 0.80088 0.72066 0.30028 0.0
C99 C 0.68826 0.36849 0.82957 0.0
C100 C 0.65491 0.37802 0.82735 0.0
N101 N 0.6477 0.40005 0.8458 0.0
N102 N 0.70213 0.38413 0.84952 0.0
C103 C 0.67668 0.40308 0.85914 0.0
H104 H 0.70191 0.35263 0.81655 0.0
Co105 Co 0.74843 0.38546 0.8573 0.0
C106 C 0.75049 0.36435 0.9109 0.0
O107 O 0.77672 0.34494 0.90628 0.0
N108 N 0.79635 0.3876 0.8644 0.0
C109 C 0.85104 0.374 0.86894 0.0
C110 C 0.81866 0.36168 0.86692 0.0
C111 C 0.81655 0.41558 0.86482 0.0
N112 N 0.84987 0.40798 0.86736 0.0
O113 O 0.74557 0.43361 0.85901 0.0
H114 H 0.81228 0.33505 0.86708 0.0
H115 H 0.80738 0.44114 0.8623 0.0
O116 O 0.73694 0.38134 0.89313 0.0
C117 C 0.74761 0.44353 0.83638 0.0
O118 O 0.75202 0.42049 0.81894 0.0
N119 N 0.75067 0.33871 0.85215 0.0
C120 C 0.74847 0.27405 0.83156 0.0
C121 C 0.73267 0.28066 0.85457 0.0
C122 C 0.73344 0.31362 0.86438 0.0
C123 C 0.76639 0.33237 0.82996 0.0
C124 C 0.76585 0.30023 0.81945 0.0
H125 H 0.71874 0.31925 0.88089 0.0
H126 H 0.77845 0.35291 0.81992 0.0
H127 H 0.68008 0.4207 0.87443 0.0
H128 H 0.63769 0.37038 0.81263 0.0
H129 H 0.87372 0.35884 0.87119 0.0
H130 H 0.71847 0.26104 0.86413 0.0
H131 H 0.7783 0.29605 0.80166 0.0
C132 C 0.63124 0.31639 0.23898 0.0
C133 C 0.62124 0.34948 0.24197 0.0
N134 N 0.60582 0.35968 0.22082 0.0
N135 N 0.6223 0.30569 0.21598 0.0
C136 C 0.60692 0.33272 0.20526 0.0
H137 H 0.64262 0.30059 0.2532 0.0
Co138 Co 0.62405 0.26066 0.20549 0.0
C139 C 0.65214 0.26481 0.15392 0.0
O140 O 0.67205 0.23908 0.15896 0.0
N141 N 0.62495 0.21371 0.19542 0.0
C142 C 0.64055 0.15992 0.18886 0.0
C143 C 0.65161 0.192 0.19447 0.0
C144 C 0.5979 0.19352 0.19021 0.0
N145 N 0.60666 0.16081 0.18637 0.0
O146 O 0.57599 0.26201 0.20074 0.0
H147 H 0.67784 0.19854 0.19777 0.0
H148 H 0.57198 0.20228 0.18949 0.0
O149 O 0.63192 0.27595 0.17074 0.0
C150 C 0.5632 0.25456 0.22195 0.0
O151 O 0.58405 0.2475 0.24042 0.0
N152 N 0.67031 0.25965 0.2137 0.0
C153 C 0.73441 0.25766 0.23605 0.0
C154 C 0.72875 0.2769 0.21425 0.0
C155 C 0.69622 0.27816 0.20363 0.0
C156 C 0.67511 0.24193 0.23527 0.0
C157 C 0.70682 0.24033 0.24659 0.0
H158 H 0.69179 0.29471 0.18789 0.0
H159 H 0.65381 0.22917 0.2439 0.0
H160 H 0.59464 0.33189 0.18717 0.0
H161 H 0.62394 0.36451 0.25877 0.0
H162 H 0.65621 0.13744 0.18769 0.0
H163 H 0.74906 0.29122 0.20563 0.0
H164 H 0.70928 0.2264 0.26393 0.0
C165 C 0.20626 0.13153 0.73774 0.0
C166 C 0.17338 0.12073 0.74124 0.0
N167 N 0.16386 0.10274 0.72101 0.0
N168 N 0.21735 0.12054 0.71534 0.0
C169 C 0.19094 0.10322 0.70556 0.0
H170 H 0.22153 0.14516 0.75116 0.0
Co171 Co 0.26133 0.12235 0.70291 0.0
C172 C 0.25076 0.11537 0.64913 0.0
O173 O 0.27334 0.09087 0.6493 0.0
N174 N 0.30595 0.12401 0.69054 0.0
C175 C 0.3529 0.13948 0.6704 0.0
C176 C 0.3194 0.14732 0.67491 0.0
C177 C 0.33182 0.10249 0.69539 0.0
N178 N 0.3606 0.11113 0.68325 0.0
O179 O 0.25983 0.07418 0.69844 0.0
H180 H 0.30559 0.1685 0.66705 0.0
H181 H 0.32987 0.08098 0.7078 0.0
O182 O 0.24328 0.13048 0.66948 0.0
C183 C 0.26727 0.06031 0.71924 0.0
O184 O 0.27572 0.07987 0.73812 0.0
N185 N 0.26339 0.16845 0.71007 0.0
C186 C 0.26626 0.23328 0.73095 0.0
C187 C 0.24832 0.22731 0.70857 0.0
C188 C 0.24685 0.19449 0.69853 0.0
C189 C 0.28169 0.17387 0.73122 0.0
C190 C 0.28323 0.20584 0.74208 0.0
H191 H 0.23185 0.18997 0.68196 0.0
H192 H 0.29401 0.15269 0.74033 0.0
H193 H 0.1924 0.0893 0.68817 0.0
H194 H 0.15808 0.12495 0.75774 0.0
H195 H 0.37 0.15315 0.65818 0.0
H196 H 0.23513 0.2476 0.69902 0.0
H197 H 0.29659 0.20848 0.75963 0.0
C198 C 0.38939 0.71125 0.23566 0.0
C199 C 0.40252 0.67942 0.23956 0.0
N200 N 0.41807 0.66906 0.21841 0.0
N201 N 0.39628 0.72103 0.2121 0.0
C202 C 0.41375 0.69491 0.20203 0.0
H203 H 0.37706 0.72697 0.24949 0.0
Co204 Co 0.38985 0.76454 0.19934 0.0
C205 C 0.35798 0.75006 0.15011 0.0
O206 O 0.33278 0.77024 0.1559 0.0
N207 N 0.38433 0.80994 0.18654 0.0
C208 C 0.36393 0.86119 0.17661 0.0
C209 C 0.35571 0.82831 0.18258 0.0
C210 C 0.40954 0.83271 0.18227 0.0
N211 N 0.39787 0.86391 0.17653 0.0
O212 O 0.43774 0.76696 0.194 0.0
H213 H 0.33005 0.81921 0.18488 0.0
H214 H 0.43621 0.82739 0.18453 0.0
O215 O 0.38237 0.7455 0.16557 0.0
C216 C 0.44922 0.77675 0.21511 0.0
O217 O 0.4272 0.78454 0.23267 0.0
N218 N 0.34393 0.76197 0.20855 0.0
C219 C 0.2818 0.75704 0.23354 0.0
C220 C 0.29076 0.73345 0.21496 0.0
C221 C 0.32221 0.73608 0.2029 0.0
C222 C 0.3361 0.78425 0.22712 0.0
C223 C 0.30493 0.78291 0.23926 0.0
H224 H 0.32977 0.71647 0.18995 0.0
H225 H 0.35453 0.80307 0.23278 0.0
H226 H 0.42422 0.69563 0.18336 0.0
H227 H 0.40209 0.66592 0.25715 0.0
H228 H 0.34625 0.88171 0.17331 0.0
H229 H 0.27434 0.71229 0.21051 0.0
H230 H 0.29936 0.80183 0.25331 0.0
C231 C 0.82134 0.87137 0.7322 0.0
C232 C 0.8548 0.88029 0.73489 0.0
N233 N 0.86335 0.9011 0.71591 0.0
N234 N 0.80875 0.88605 0.7114 0.0
C235 C 0.835 0.90391 0.7018 0.0
H236 H 0.80673 0.85638 0.74526 0.0
Co237 Co 0.76293 0.88712 0.70205 0.0
C238 C 0.76588 0.8608 0.64977 0.0
O239 O 0.74151 0.83933 0.65498 0.0
N240 N 0.71565 0.88903 0.69312 0.0
C241 C 0.66161 0.87564 0.68528 0.0
C242 C 0.69369 0.86323 0.68893 0.0
C243 C 0.69552 0.917 0.69218 0.0
N244 N 0.66257 0.90957 0.68753 0.0
O245 O 0.76616 0.93522 0.69889 0.0
H246 H 0.69994 0.83658 0.68909 0.0
H247 H 0.70443 0.94239 0.6958 0.0
O248 O 0.77655 0.88107 0.6667 0.0
C249 C 0.76535 0.94672 0.72114 0.0
O250 O 0.76131 0.92518 0.73968 0.0
N251 N 0.76021 0.84054 0.70858 0.0
C252 C 0.76117 0.77663 0.73093 0.0
C253 C 0.78105 0.78337 0.70968 0.0
C254 C 0.78062 0.81579 0.69896 0.0
C255 C 0.74101 0.83438 0.72927 0.0
C256 C 0.74056 0.80254 0.7404 0.0
H257 H 0.79813 0.8215 0.68399 0.0
H258 H 0.72661 0.85478 0.73762 0.0
H259 H 0.83263 0.92052 0.68578 0.0
H260 H 0.8712 0.87288 0.75016 0.0
H261 H 0.63929 0.86052 0.68152 0.0
H262 H 0.798 0.76433 0.70217 0.0
H263 H 0.72465 0.79852 0.75664 0.0
H264 H 0.9639 0.65203 0.40021 0.0
H265 H 1.00102 0.60245 0.40423 0.0
H266 H 0.92885 0.54253 0.36265 0.0
H267 H 0.89152 0.59163 0.35922 0.0
H268 H 0.95082 0.50708 0.39978 0.0
H269 H 1.00446 0.5763 0.33683 0.0
H270 H 0.03018 0.62867 0.3201 0.0
H271 H 0.10721 0.62481 0.37676 0.0
H272 H 0.08164 0.57274 0.39409 0.0
H273 H 0.05173 0.36992 0.36003 0.0
H274 H 0.0178 0.42138 0.36195 0.0
H275 H 0.09241 0.46764 0.41001 0.0
H276 H 0.12665 0.4158 0.40833 0.0
H277 H 0.07134 0.51093 0.37312 0.0
H278 H 0.01814 0.43909 0.43426 0.0
H279 H 0.99209 0.38617 0.44962 0.0
H280 H 0.91384 0.39431 0.3941 0.0
H281 H 0.93966 0.44708 0.3782 0.0
C282 C 0.95606 0.62825 0.39195 0.0
C283 C 0.92478 0.62571 0.37945 0.0
C284 C 0.9773 0.59995 0.39417 0.0
C285 C 0.968 0.56876 0.38345 0.0
C286 C 0.93661 0.56621 0.37117 0.0
C287 C 0.91521 0.5943 0.36926 0.0
C288 C 0.99069 0.53863 0.38492 0.0
C289 C 0.97707 0.50793 0.3937 0.0
C290 C 0.02525 0.53977 0.37758 0.0
C291 C 0.0409 0.57083 0.36693 0.0
C292 C 0.02675 0.58675 0.34582 0.0
C293 C 0.04131 0.61636 0.33622 0.0
C294 C 0.07023 0.6301 0.34742 0.0
C295 C 0.08476 0.61418 0.36815 0.0
C296 C 0.07025 0.58461 0.37787 0.0
C297 C 0.0608 0.39071 0.37138 0.0
C298 C 0.09184 0.38846 0.3843 0.0
C299 C 0.04137 0.42027 0.37235 0.0
C300 C 0.05232 0.44825 0.38639 0.0
C301 C 0.08344 0.44634 0.39909 0.0
C302 C 0.10299 0.4167 0.3981 0.0
C303 C 0.03122 0.47944 0.38757 0.0
C304 C 0.04514 0.51026 0.37933 0.0
C305 C 0.99683 0.4784 0.39517 0.0
C306 C 0.98097 0.44693 0.40494 0.0
C307 C 0.99548 0.4295 0.42524 0.0
C308 C 0.98074 0.39954 0.43406 0.0
C309 C 0.95136 0.38685 0.42282 0.0
C310 C 0.9366 0.40416 0.40279 0.0
C311 C 0.95124 0.43413 0.39389 0.0
H312 H 0.94001 0.36364 0.42965 0.0
H313 H 0.08143 0.65306 0.34004 0.0
H314 H 0.85084 0.47537 0.879 0.0
H315 H 0.90052 0.51287 0.87944 0.0
H316 H 0.96369 0.43007 0.85508 0.0
H317 H 0.9146 0.39281 0.85417 0.0
H318 H 0.99049 0.46164 0.89493 0.0
H319 H 0.94232 0.4917 0.81644 0.0
H320 H 0.90166 0.51295 0.78519 0.0
H321 H 0.9009 0.61031 0.82095 0.0
H322 H 0.94071 0.58933 0.85297 0.0
H323 H 0.14351 0.5435 0.8633 0.0
H324 H 0.09021 0.51234 0.86098 0.0
H325 H 0.03587 0.60093 0.88598 0.0
H326 H 0.08915 0.63277 0.88756 0.0
H327 H 1.0032 0.569 0.84753 0.0
H328 H 0.05255 0.53658 0.92636 0.0
H329 H 0.09853 0.51547 0.95349 0.0
H330 H 0.10029 0.4216 0.91296 0.0
H331 H 0.05456 0.44231 0.88539 0.0
C332 C 0.87521 0.46522 0.87345 0.0
C333 C 0.87862 0.43082 0.86685 0.0
C334 C 0.90358 0.48673 0.87371 0.0
C335 C 0.93582 0.47427 0.86729 0.0
C336 C 0.93913 0.4402 0.86029 0.0
C337 C 0.91093 0.41881 0.85995 0.0
C338 C 0.9666 0.49595 0.86896 0.0
C339 C 0.99328 0.485 0.8844 0.0
C340 C 0.97005 0.5268 0.8556 0.0
C341 C 0.94419 0.53873 0.83739 0.0
C342 C 0.93298 0.51742 0.818 0.0
C343 C 0.91021 0.52949 0.80004 0.0
C344 C 0.89881 0.56299 0.80102 0.0
C345 C 0.90991 0.58442 0.82012 0.0
C346 C 0.9324 0.57237 0.83828 0.0
C347 C 0.12026 0.5566 0.86802 0.0
C348 C 0.12073 0.59073 0.87567 0.0
C349 C 0.08978 0.53859 0.86691 0.0
C350 C 0.05908 0.55416 0.87364 0.0
C351 C 0.05928 0.58836 0.88083 0.0
C352 C 0.08982 0.60645 0.88193 0.0
C353 C 0.02688 0.53454 0.87336 0.0
C354 C 1.00003 0.54586 0.85826 0.0
C355 C 0.02328 0.50386 0.88681 0.0
C356 C 0.05029 0.49109 0.90371 0.0
C357 C 0.06284 0.5115 0.92317 0.0
C358 C 0.08885 0.4996 0.93863 0.0
C359 C 0.10236 0.46724 0.93492 0.0
C360 C 0.08979 0.44666 0.91581 0.0
C361 C 0.0638 0.45844 0.90029 0.0
H362 H 0.12253 0.4581 0.94689 0.0
H363 H 0.88126 0.57231 0.78706 0.0
H364 H 0.46091 0.87031 0.15704 0.0
H365 H 0.496 0.92154 0.15625 0.0
H366 H 0.41514 0.97772 0.19146 0.0
H367 H 0.37982 0.9268 0.1917 0.0
H368 H 0.44316 0.01534 0.15725 0.0
H369 H 0.48515 0.94673 0.22443 0.0
H370 H 0.50722 0.89424 0.24354 0.0
H371 H 0.59437 0.89805 0.19548 0.0
H372 H 0.57253 0.95027 0.17576 0.0
H373 H 0.54178 0.1537 0.20279 0.0
H374 H 0.50584 0.10344 0.19891 0.0
H375 H 0.58515 0.05213 0.15848 0.0
H376 H 0.62135 0.10222 0.16229 0.0
H377 H 0.55836 0.01208 0.19456 0.0
H378 H 0.51555 0.0838 0.12898 0.0
H379 H 0.49164 0.13613 0.11093 0.0
H380 H 0.40419 0.12695 0.15832 0.0
H381 H 0.42788 0.07494 0.17703 0.0
C382 C 0.45065 0.89365 0.16451 0.0
C383 C 0.41767 0.89452 0.17449 0.0
C384 C 0.47072 0.92289 0.16414 0.0
C385 C 0.45848 0.95342 0.17423 0.0
C386 C 0.4252 0.95452 0.18357 0.0
C387 C 0.40497 0.92541 0.18364 0.0
C388 C 0.48047 0.98406 0.17551 0.0
C389 C 0.46819 0.01471 0.16568 0.0
C390 C 0.51338 0.98317 0.18618 0.0
C391 C 0.52701 0.95224 0.19844 0.0
C392 C 0.50893 0.93629 0.21784 0.0
C393 C 0.52139 0.90658 0.22878 0.0
C394 C 0.55211 0.89277 0.22066 0.0
C395 C 0.57054 0.90875 0.2017 0.0
C396 C 0.55814 0.93841 0.19064 0.0
C397 C 0.55141 0.13198 0.1927 0.0
C398 C 0.58448 0.13207 0.18278 0.0
C399 C 0.53082 0.10323 0.19056 0.0
C400 C 0.54263 0.07414 0.17822 0.0
C401 C 0.5755 0.07424 0.16814 0.0
C402 C 0.59618 0.1029 0.17035 0.0
C403 C 0.52101 0.04335 0.17629 0.0
C404 C 0.53336 0.01268 0.18608 0.0
C405 C 0.48797 0.04434 0.16589 0.0
C406 C 0.47368 0.07563 0.1546 0.0
C407 C 0.49137 0.0931 0.13573 0.0
C408 C 0.47783 0.1227 0.12535 0.0
C409 C 0.44645 0.1349 0.13351 0.0
C410 C 0.42848 0.11746 0.152 0.0
C411 C 0.44196 0.08792 0.1625 0.0
H412 H 0.43603 0.15784 0.12547 0.0
H413 H 0.56163 0.86971 0.22907 0.0
H414 H 0.59596 0.89376 0.69405 0.0
H415 H 0.54756 0.93158 0.69124 0.0
H416 H 0.61439 0.01597 0.67707 0.0
H417 H 0.66346 0.97799 0.67935 0.0
H418 H 0.5638 0.03095 0.71167 0.0
H419 H 0.57078 0.9841 0.62971 0.0
H420 H 0.57565 0.93889 0.59815 0.0
H421 H 0.48199 0.89525 0.62362 0.0
H422 H 0.47679 0.93992 0.65561 0.0
H423 H 0.42368 0.13736 0.67674 0.0
H424 H 0.47746 0.10617 0.67623 0.0
H425 H 0.42344 0.01275 0.68945 0.0
H426 H 0.36971 0.04361 0.68958 0.0
H427 H 0.47038 1.00625 0.65237 0.0
H428 H 0.46538 0.05167 0.73567 0.0
H429 H 0.46128 0.09619 0.76781 0.0
H430 H 0.55242 0.14244 0.73994 0.0
H431 H 0.55675 0.0985 0.70733 0.0
C432 C 0.60066 0.92019 0.68997 0.0
C433 C 0.6339 0.93251 0.68655 0.0
C434 C 0.57278 0.94188 0.68848 0.0
C435 C 0.57728 0.9765 0.68355 0.0
C436 C 0.61034 0.98926 0.68076 0.0
C437 C 0.6384 0.96747 0.68215 0.0
C438 C 0.54719 0.99904 0.68149 0.0
C439 C 0.54375 0.02604 0.69834 0.0
C440 C 0.52058 0.99213 0.66447 0.0
C441 C 0.52355 0.96523 0.64521 0.0
C442 C 0.55135 0.96471 0.62872 0.0
C443 C 0.55415 0.93921 0.61073 0.0
C444 C 0.52918 0.91417 0.60891 0.0
C445 C 0.50132 0.91464 0.62506 0.0
C446 C 0.49842 0.94007 0.64312 0.0
C447 C 0.42327 0.11016 0.67942 0.0
C448 C 0.3924 0.093 0.68329 0.0
C449 C 0.45403 0.09241 0.6793 0.0
C450 C 0.45449 0.05715 0.68296 0.0
C451 C 0.4237 0.03995 0.68663 0.0
C452 C 0.39302 0.05768 0.68692 0.0
C453 C 0.48691 0.03794 0.68276 0.0
C454 C 0.49073 0.0115 0.66546 0.0
C455 C 0.51388 0.04544 0.69935 0.0
C456 C 0.51107 0.0721 0.71878 0.0
C457 C 0.48431 0.07158 0.73617 0.0
C458 C 0.48199 0.09666 0.75453 0.0
C459 C 0.50648 0.12223 0.75584 0.0
C460 C 0.53339 0.1227 0.73884 0.0
C461 C 0.53578 0.09772 0.72041 0.0
H462 H 0.50467 0.14159 0.77009 0.0
H463 H 0.53139 0.89445 0.59496 0.0
H464 H 0.53214 0.22634 0.26189 0.0
H465 H 0.4721 0.22491 0.2716 0.0
H466 H 0.44962 0.27646 0.20242 0.0
H467 H 0.51072 0.27827 0.19247 0.0
H468 H 0.41565 0.3041 0.24287 0.0
H469 H 0.42934 0.19605 0.20754 0.0
H470 H 0.45636 0.14103 0.19943 0.0
H471 H 0.43885 0.11085 0.27545 0.0
H472 H 0.41269 0.16632 0.28432 0.0
H473 H 0.24059 0.27213 0.27506 0.0
H474 H 0.29384 0.27124 0.25179 0.0
H475 H 0.34571 0.23206 0.31655 0.0
H476 H 0.29294 0.23435 0.3405 0.0
H477 H 0.35971 0.19731 0.26969 0.0
H478 H 0.35488 0.31079 0.30495 0.0
H479 H 0.32831 0.36657 0.31198 0.0
H480 H 0.3274 0.38519 0.2329 0.0
H481 H 0.35352 0.32925 0.22539 0.0
C482 C 0.51458 0.23729 0.24856 0.0
C483 C 0.52622 0.25248 0.22638 0.0
C484 C 0.48014 0.23624 0.25412 0.0
C485 C 0.45632 0.2502 0.23763 0.0
C486 C 0.46765 0.26538 0.21534 0.0
C487 C 0.50243 0.26627 0.20963 0.0
C488 C 0.41993 0.24971 0.24471 0.0
C489 C 0.40307 0.28068 0.24812 0.0
C490 C 0.40365 0.21915 0.2518 0.0
C491 C 0.41914 0.18551 0.24662 0.0
C492 C 0.43147 0.17783 0.22261 0.0
C493 C 0.44662 0.14649 0.21787 0.0
C494 C 0.44921 0.12232 0.23687 0.0
C495 C 0.43677 0.12956 0.26072 0.0
C496 C 0.42179 0.16099 0.26564 0.0
C497 C 0.26334 0.26381 0.28459 0.0
C498 C 0.26236 0.25365 0.30986 0.0
C499 C 0.2937 0.26304 0.27112 0.0
C500 C 0.32363 0.25169 0.28249 0.0
C501 C 0.32276 0.24078 0.30744 0.0
C502 C 0.2925 0.24198 0.32106 0.0
C503 C 0.3561 0.25169 0.26857 0.0
C504 C 0.37209 0.2206 0.26392 0.0
C505 C 0.37137 0.28206 0.26007 0.0
C506 C 0.35572 0.31567 0.2646 0.0
C507 C 0.34869 0.32663 0.28905 0.0
C508 C 0.33378 0.3583 0.29312 0.0
C509 C 0.32606 0.37936 0.27289 0.0
C510 C 0.33332 0.36882 0.24855 0.0
C511 C 0.34818 0.33714 0.24438 0.0
H512 H 0.31454 0.40388 0.27609 0.0
H513 H 0.46084 0.098 0.23312 0.0
H514 H 0.22239 0.01399 0.69991 0.0
H515 H 0.21586 0.95453 0.71337 0.0
H516 H 0.30338 0.96503 0.7612 0.0
H517 H 0.30969 0.0239 0.74809 0.0
H518 H 0.30104 0.90271 0.73649 0.0
H519 H 0.22512 0.97876 0.78295 0.0
H520 H 0.17723 0.01882 0.78603 0.0
H521 H 0.11036 0.94445 0.75431 0.0
H522 H 0.15799 0.90423 0.75053 0.0
H523 H 0.2956 0.78199 0.83149 0.0
H524 H 0.29671 0.83492 0.80811 0.0
H525 H 0.19493 0.81611 0.78182 0.0
H526 H 0.19238 0.7648 0.80702 0.0
H527 H 0.19981 0.87861 0.78869 0.0
H528 H 0.26952 0.80057 0.74505 0.0
H529 H 0.31482 0.75827 0.73896 0.0
H530 H 0.38979 0.8319 0.76005 0.0
H531 H 0.34489 0.87453 0.76662 0.0
C532 C 0.24064 1.00318 0.71278 0.0
C533 C 0.26646 0.02337 0.72308 0.0
C534 C 0.23679 0.96941 0.72057 0.0
C535 C 0.25897 0.95554 0.73847 0.0
C536 C 0.28599 0.9752 0.74742 0.0
C537 C 0.28951 0.00885 0.73996 0.0
C538 C 0.25312 0.92167 0.74969 0.0
C539 C 0.27893 0.89733 0.74792 0.0
C540 C 0.22372 0.9143 0.76388 0.0
C541 C 0.19521 0.93864 0.76616 0.0
C542 C 0.20028 0.97109 0.77638 0.0
C543 C 0.17318 0.99382 0.77827 0.0
C544 C 0.1408 0.98422 0.77031 0.0
C545 C 0.13546 0.95191 0.7604 0.0
C546 C 0.1625 0.92915 0.75835 0.0
C547 C 0.27308 0.7894 0.82129 0.0
C548 C 0.24407 0.76859 0.82098 0.0
C549 C 0.27401 0.81948 0.80745 0.0
C550 C 0.24635 0.82905 0.7924 0.0
C551 C 0.21683 0.80915 0.79293 0.0
C552 C 0.21559 0.77949 0.80719 0.0
C553 C 0.24827 0.8597 0.77613 0.0
C554 C 0.22171 0.88346 0.77694 0.0
C555 C 0.27663 0.86619 0.76052 0.0
C556 C 0.30378 0.84068 0.7565 0.0
C557 C 0.29564 0.80769 0.74854 0.0
C558 C 0.32125 0.78366 0.74499 0.0
C559 C 0.35515 0.79237 0.74916 0.0
C560 C 0.36352 0.82517 0.75684 0.0
C561 C 0.338 0.8493 0.76045 0.0
H562 H 0.37494 0.77373 0.7464 0.0
H563 H 0.11981 1.00174 0.77197 0.0
H564 H 0.50366 0.75229 0.18802 0.0
H565 H 0.56343 0.75137 0.2014 0.0
H566 H 0.53598 0.80375 0.26925 0.0
H567 H 0.47744 0.80583 0.25577 0.0
H568 H 0.59223 0.82747 0.25432 0.0
H569 H 0.54595 0.71526 0.26487 0.0
H570 H 0.51922 0.66187 0.25109 0.0
H571 H 0.60336 0.64257 0.20216 0.0
H572 H 0.63029 0.69619 0.21529 0.0
H573 H 0.71647 0.77333 0.34331 0.0
H574 H 0.66304 0.77789 0.32018 0.0
H575 H 0.71546 0.75598 0.25143 0.0
H576 H 0.76915 0.75339 0.27388 0.0
H577 H 0.65096 0.71678 0.26212 0.0
H578 H 0.69799 0.83015 0.25658 0.0
H579 H 0.72256 0.88245 0.27416 0.0
H580 H 0.63313 0.89742 0.31865 0.0
H581 H 0.60825 0.84489 0.30162 0.0
C582 C 0.51064 0.76406 0.20555 0.0
C583 C 0.48581 0.7788 0.22093 0.0
C584 C 0.54468 0.7633 0.21329 0.0
C585 C 0.55414 0.77699 0.23657 0.0
C586 C 0.52946 0.79295 0.25126 0.0
C587 C 0.49581 0.79393 0.24354 0.0
C588 C 0.5892 0.77391 0.24656 0.0
C589 C 0.60494 0.8032 0.25599 0.0
C590 C 0.60607 0.74229 0.24867 0.0
C591 C 0.58994 0.70998 0.24082 0.0
C592 C 0.55862 0.69978 0.25101 0.0
C593 C 0.54344 0.66946 0.24333 0.0
C594 C 0.55955 0.64888 0.22572 0.0
C595 C 0.59087 0.65857 0.21576 0.0
C596 C 0.60609 0.68894 0.2233 0.0
C597 C 0.71682 0.7699 0.32325 0.0
C598 C 0.74732 0.76271 0.31062 0.0
C599 C 0.68619 0.77219 0.31011 0.0
C600 C 0.68541 0.76697 0.28417 0.0
C601 C 0.71556 0.75964 0.2715 0.0
C602 C 0.74623 0.75797 0.28449 0.0
C603 C 0.65323 0.7702 0.27014 0.0
C604 C 0.63824 0.741 0.26001 0.0
C605 C 0.63657 0.80172 0.26788 0.0
C606 C 0.65143 0.8334 0.27802 0.0
C607 C 0.68371 0.84442 0.27029 0.0
C608 C 0.69766 0.87414 0.28012 0.0
C609 C 0.67946 0.8932 0.29756 0.0
C610 C 0.64722 0.88262 0.30516 0.0
C611 C 0.63318 0.85288 0.29542 0.0
H612 H 0.6903 0.91621 0.30515 0.0
H613 H 0.54782 0.62538 0.21986 0.0
H614 H 0.76576 0.21216 0.85058 0.0
H615 H 0.76863 0.15821 0.8277 0.0
H616 H 0.72871 0.2073 0.76191 0.0
H617 H 0.72606 0.26115 0.7846 0.0
H618 H 0.70094 0.14136 0.77142 0.0
H619 H 0.80896 0.1978 0.76391 0.0
H620 H 0.85999 0.22664 0.78 0.0
H621 H 0.88647 0.1378 0.82214 0.0
H622 H 0.83528 0.1086 0.8066 0.0
H623 H 0.74545 1.00168 0.69305 0.0
H624 H 0.744 0.06116 0.70707 0.0
H625 H 0.79112 0.03191 0.77663 0.0
H626 H 0.79261 0.97318 0.76283 0.0
H627 H 0.81573 0.09179 0.76021 0.0
H628 H 0.70764 0.03785 0.77344 0.0
H629 H 0.65688 1.00633 0.75985 0.0
H630 H 0.63006 0.08767 0.71027 0.0
H631 H 0.68117 0.11948 0.72325 0.0
C632 C 0.75707 0.21117 0.83139 0.0
C633 C 0.74594 0.24066 0.81924 0.0
C634 C 0.75886 0.18053 0.81833 0.0
C635 C 0.74921 0.179 0.79306 0.0
C636 C 0.73634 0.20804 0.78135 0.0
C637 C 0.73496 0.2387 0.79428 0.0
C638 C 0.75441 0.14762 0.77845 0.0
C639 C 0.72606 0.13079 0.76857 0.0
C640 C 0.78717 0.13372 0.77505 0.0
C641 C 0.81812 0.15113 0.78426 0.0
C642 C 0.82552 0.18451 0.77676 0.0
C643 C 0.8545 0.20091 0.78576 0.0
C644 C 0.87642 0.18409 0.80212 0.0
C645 C 0.86945 0.15081 0.80948 0.0
C646 C 0.84047 0.13431 0.80057 0.0
C647 C 0.75612 0.00826 0.71105 0.0
C648 C 0.76882 0.98298 0.72699 0.0
C649 C 0.75515 0.04207 0.71909 0.0
C650 C 0.76716 0.05081 0.743 0.0
C651 C 0.78174 0.02576 0.75814 0.0
C652 C 0.78237 0.99218 0.75029 0.0
C653 C 0.76224 0.08518 0.75351 0.0
C654 C 0.79065 0.10265 0.76264 0.0
C655 C 0.72951 0.09938 0.75654 0.0
C656 C 0.69843 0.08081 0.74905 0.0
C657 C 0.69106 0.04891 0.7595 0.0
C658 C 0.66226 0.03102 0.75193 0.0
C659 C 0.64039 0.04495 0.73415 0.0
C660 C 0.64715 0.0769 0.72399 0.0
C661 C 0.67604 0.09488 0.73144 0.0
H662 H 0.61821 0.03095 0.72833 0.0
H663 H 0.89885 0.19682 0.80906 0.0
H664 H 0.0139 0.2228 0.36655 0.0
H665 H 0.95371 0.21936 0.35435 0.0
H666 H 0.96432 0.31206 0.31216 0.0
H667 H 0.02394 0.31542 0.32414 0.0
H668 H 0.90152 0.30677 0.33617 0.0
H669 H 0.97752 0.2378 0.28404 0.0
H670 H 0.01997 0.1922 0.27968 0.0
H671 H 0.9497 0.12065 0.31109 0.0
H672 H 0.90699 0.16599 0.31593 0.0
H673 H 0.78154 0.30896 0.24011 0.0
H674 H 0.8344 0.3085 0.26375 0.0
H675 H 0.8155 0.20508 0.28613 0.0
H676 H 0.76406 0.20441 0.26092 0.0
H677 H 0.87873 0.21098 0.27849 0.0
H678 H 0.79959 0.2757 0.32559 0.0
H679 H 0.75696 0.32007 0.33375 0.0
H680 H 0.83041 0.39712 0.31669 0.0
H681 H 0.87337 0.3532 0.30805 0.0
C682 C 1.00295 0.24289 0.35533 0.0
C683 C 0.02337 0.26923 0.34608 0.0
C684 C 0.96875 0.24083 0.34826 0.0
C685 C 0.95475 0.26527 0.3321 0.0
C686 C 0.9746 0.29295 0.3246 0.0
C687 C 0.00867 0.29476 0.33136 0.0
C688 C 0.92098 0.26055 0.32045 0.0
C689 C 0.8964 0.28587 0.32355 0.0
C690 C 0.91411 0.23278 0.30453 0.0
C691 C 0.93921 0.2053 0.30054 0.0
C692 C 0.97117 0.21235 0.29004 0.0
C693 C 0.99527 0.18657 0.28751 0.0
C694 C 0.98756 0.15357 0.29516 0.0
C695 C 0.95564 0.14623 0.3052 0.0
C696 C 0.93147 0.17195 0.30782 0.0
C697 C 0.7889 0.28584 0.24957 0.0
C698 C 0.7681 0.25686 0.24879 0.0
C699 C 0.81894 0.2858 0.26349 0.0
C700 C 0.82851 0.25709 0.27742 0.0
C701 C 0.80855 0.22772 0.27585 0.0
C702 C 0.77885 0.22753 0.2616 0.0
C703 C 0.85918 0.25776 0.29368 0.0
C704 C 0.88329 0.23166 0.29141 0.0
C705 C 0.86536 0.28457 0.31073 0.0
C706 C 0.83963 0.31112 0.31598 0.0
C707 C 0.80659 0.3021 0.32341 0.0
C708 C 0.78237 0.32717 0.32814 0.0
C709 C 0.79095 0.36139 0.32569 0.0
C710 C 0.8238 0.37061 0.31855 0.0
C711 C 0.8481 0.34563 0.31376 0.0
H712 H 0.77216 0.38076 0.32936 0.0
H713 H 1.00631 0.13367 0.29329 0.0
H714 H 0.20543 0.52704 0.81141 0.0
H715 H 0.20943 0.46776 0.79893 0.0
H716 H 0.29303 0.45329 0.84988 0.0
H717 H 0.28883 0.51317 0.86274 0.0
H718 H 0.30598 0.43312 0.7998 0.0
H719 H 0.22157 0.41452 0.86255 0.0
H720 H 0.16816 0.42645 0.88491 0.0
H721 H 0.11134 0.40614 0.81814 0.0
H722 H 0.16439 0.39462 0.79525 0.0
H723 H 0.31652 0.26238 0.75969 0.0
H724 H 0.31348 0.314 0.78414 0.0
H725 H 0.21423 0.33499 0.75377 0.0
H726 H 0.21545 0.28139 0.73129 0.0
H727 H 0.2122 0.34922 0.79958 0.0
H728 H 0.29326 0.37703 0.73518 0.0
H729 H 0.34516 0.37013 0.70992 0.0
H730 H 0.40627 0.37757 0.77613 0.0
H731 H 0.35472 0.38422 0.8018 0.0
C732 C 0.22427 0.51107 0.82032 0.0
C733 C 0.24686 0.52455 0.838 0.0
C734 C 0.22643 0.47719 0.81324 0.0
C735 C 0.25142 0.45612 0.82355 0.0
C736 C 0.27346 0.46918 0.84183 0.0
C737 C 0.27093 0.50319 0.84926 0.0
C738 C 0.25592 0.42149 0.81335 0.0
C739 C 0.28585 0.41435 0.80021 0.0
C740 C 0.22911 0.39766 0.81324 0.0
C741 C 0.19705 0.40385 0.82713 0.0
C742 C 0.19771 0.41277 0.85258 0.0
C743 C 0.16748 0.41945 0.86536 0.0
C744 C 0.1364 0.4171 0.85294 0.0
C745 C 0.13545 0.40795 0.82774 0.0
C746 C 0.16559 0.40128 0.81486 0.0
C747 C 0.29372 0.27756 0.75838 0.0
C748 C 0.26608 0.26717 0.74351 0.0
C749 C 0.29232 0.30761 0.77214 0.0
C750 C 0.26384 0.32889 0.77063 0.0
C751 C 0.23655 0.3191 0.75533 0.0
C752 C 0.23753 0.28854 0.74209 0.0
C753 C 0.26209 0.36095 0.78535 0.0
C754 C 0.23264 0.36765 0.79937 0.0
C755 C 0.2891 0.38474 0.78587 0.0
C756 C 0.32011 0.38073 0.77044 0.0
C757 C 0.31776 0.37696 0.74436 0.0
C758 C 0.34712 0.37316 0.72997 0.0
C759 C 0.379 0.37334 0.74142 0.0
C760 C 0.38158 0.37742 0.76728 0.0
C761 C 0.3523 0.38123 0.78176 0.0
H762 H 0.4017 0.37039 0.73024 0.0
H763 H 0.11303 0.42233 0.86282 0.0
H764 H 1.00277 0.77129 0.36649 0.0
H765 H 0.063 0.77155 0.35423 0.0
H766 H 0.0379 0.71592 0.28732 0.0
H767 H 0.9787 0.71499 0.29953 0.0
H768 H 0.09367 0.69208 0.30585 0.0
H769 H 0.04793 0.80237 0.28801 0.0
H770 H 0.02082 0.85721 0.29745 0.0
H771 H 0.10274 0.88258 0.34691 0.0
H772 H 0.13003 0.82749 0.33817 0.0
H773 H 0.21948 0.73606 0.21626 0.0
H774 H 0.16633 0.7319 0.2397 0.0
H775 H 0.21672 0.76845 0.30586 0.0
H776 H 0.27028 0.7711 0.28313 0.0
H777 H 0.15263 0.8019 0.29336 0.0
H778 H 0.20057 0.69107 0.30601 0.0
H779 H 0.22632 0.63699 0.29288 0.0
H780 H 0.13791 0.6139 0.24918 0.0
H781 H 0.11185 0.66812 0.26173 0.0
C782 C 0.01034 0.75877 0.34937 0.0
C783 C 0.98601 0.74341 0.33387 0.0
C784 C 0.04463 0.75909 0.34231 0.0
C785 C 0.05488 0.7441 0.31968 0.0
C786 C 0.03068 0.72766 0.30483 0.0
C787 C 0.99671 0.72734 0.31181 0.0
C788 C 0.09038 0.74623 0.31055 0.0
C789 C 0.10655 0.71611 0.30322 0.0
C790 C 0.10732 0.7776 0.30721 0.0
C791 C 0.09077 0.81056 0.31274 0.0
C792 C 0.05997 0.81944 0.30114 0.0
C793 C 0.04459 0.85059 0.30633 0.0
C794 C 0.05998 0.87328 0.32284 0.0
C795 C 0.09079 0.86489 0.3342 0.0
C796 C 0.1062 0.83369 0.32916 0.0
C797 C 0.21948 0.74276 0.23587 0.0
C798 C 0.2493 0.75413 0.24767 0.0
C799 C 0.18901 0.74059 0.24918 0.0
C800 C 0.1877 0.74998 0.27446 0.0
C801 C 0.21722 0.76138 0.28631 0.0
C802 C 0.24778 0.76308 0.27316 0.0
C803 C 0.15542 0.7478 0.28848 0.0
C804 C 0.13995 0.77787 0.29662 0.0
C805 C 0.13879 0.71648 0.2922 0.0
C806 C 0.15441 0.68383 0.28462 0.0
C807 C 0.18676 0.67462 0.29341 0.0
C808 C 0.20138 0.64391 0.28611 0.0
C809 C 0.1838 0.62206 0.27015 0.0
C810 C 0.15152 0.63086 0.26151 0.0
C811 C 0.1368 0.66157 0.26872 0.0
H812 H 0.19516 0.59828 0.26454 0.0
H813 H 0.04812 0.89743 0.32673 0.0
H814 H 0.76352 0.71323 0.71002 0.0
H815 H 0.7613 0.65863 0.7317 0.0
H816 H 0.75862 0.71016 0.80273 0.0
H817 H 0.76232 0.7647 0.7813 0.0
H818 H 0.79711 0.6543 0.8058 0.0
H819 H 0.68566 0.68175 0.77626 0.0
H820 H 0.64281 0.6986 0.74504 0.0
H821 H 0.6648 0.60951 0.70195 0.0
H822 H 0.70813 0.59236 0.73275 0.0
H823 H 0.74193 0.49998 0.86658 0.0
H824 H 0.74124 0.55962 0.8529 0.0
H825 H 0.74933 0.52725 0.77613 0.0
H826 H 0.74943 0.46855 0.78936 0.0
H827 H 0.70359 0.57704 0.78108 0.0
H828 H 0.8162 0.55016 0.81177 0.0
H829 H 0.85549 0.53238 0.84501 0.0
H830 H 0.8309 0.62148 0.88729 0.0
H831 H 0.78998 0.63894 0.85485 0.0
C832 C 0.76304 0.71292 0.73026 0.0
C833 C 0.76248 0.74332 0.7439 0.0
C834 C 0.7615 0.68173 0.74262 0.0
C835 C 0.75906 0.68038 0.76882 0.0
C836 C 0.76018 0.7106 0.78252 0.0
C837 C 0.76189 0.74176 0.77019 0.0
C838 C 0.75368 0.64758 0.78181 0.0
C839 C 0.77643 0.63755 0.80065 0.0
C840 C 0.7266 0.62583 0.77516 0.0
C841 C 0.70032 0.63591 0.75672 0.0
C842 C 0.6815 0.66586 0.76005 0.0
C843 C 0.65711 0.67545 0.74244 0.0
C844 C 0.65114 0.65517 0.7215 0.0
C845 C 0.66948 0.6252 0.71817 0.0
C846 C 0.69393 0.61552 0.73571 0.0
C847 C 0.74331 0.50573 0.84681 0.0
C848 C 0.74596 0.47959 0.82909 0.0
C849 C 0.74293 0.53971 0.83904 0.0
C850 C 0.74541 0.54779 0.81349 0.0
C851 C 0.74726 0.52162 0.7959 0.0
C852 C 0.74754 0.48798 0.80358 0.0
C853 C 0.74759 0.58324 0.80451 0.0
C854 C 0.7241 0.5939 0.78644 0.0
C855 C 0.7739 0.60549 0.812 0.0
C856 C 0.79953 0.59559 0.83102 0.0
C857 C 0.81874 0.56575 0.8283 0.0
C858 C 0.8412 0.55562 0.84709 0.0
C859 C 0.84565 0.57572 0.8683 0.0
C860 C 0.82741 0.60589 0.87086 0.0
C861 C 0.80438 0.6158 0.85235 0.0
H862 H 0.86332 0.56801 0.8827 0.0
H863 H 0.63225 0.66265 0.70788 0.0
H864 H 0.1075 0.22975 0.44302 0.0
H865 H 0.11445 0.20439 0.48491 0.0
H866 H 0.22135 0.19117 0.47087 0.0
H867 H 0.21483 0.21738 0.42974 0.0
H868 H 0.18137 0.13187 0.49383 0.0
H869 H 0.20729 0.25352 0.5013 0.0
H870 H 0.19178 0.31384 0.49723 0.0
H871 H 0.10591 0.29822 0.5453 0.0
H872 H 0.12068 0.23762 0.54933 0.0
H873 H 0.27553 0.1049 0.6023 0.0
H874 H 0.25164 0.12359 0.56266 0.0
H875 H 0.16689 0.16844 0.60159 0.0
H876 H 0.19185 0.15115 0.64164 0.0
H877 H 0.18382 0.20901 0.567 0.0
H878 H 0.16069 0.09141 0.56626 0.0
H879 H 0.17167 0.03015 0.57052 0.0
H880 H 0.24399 0.03491 0.51061 0.0
H881 H 0.23383 0.09631 0.5062 0.0
C882 C 0.13232 0.22102 0.44885 0.0
C883 C 0.16066 0.22561 0.43325 0.0
C884 C 0.13628 0.20667 0.47272 0.0
C885 C 0.16845 0.19598 0.48093 0.0
C886 C 0.19635 0.19921 0.46487 0.0
C887 C 0.19259 0.21428 0.44143 0.0
C888 C 0.17394 0.18294 0.50664 0.0
C889 C 0.18195 0.14861 0.5099 0.0
C890 C 0.17348 0.20461 0.52764 0.0
C891 C 0.16481 0.24101 0.52533 0.0
C892 C 0.18491 0.26288 0.51078 0.0
C893 C 0.1763 0.29713 0.50853 0.0
C894 C 0.14781 0.30983 0.52092 0.0
C895 C 0.12793 0.28833 0.53566 0.0
C896 C 0.13641 0.25404 0.53794 0.0
C897 C 0.25171 0.1186 0.60246 0.0
C898 C 0.23548 0.12635 0.62511 0.0
C899 C 0.23787 0.12909 0.57969 0.0
C900 C 0.20688 0.14674 0.57889 0.0
C901 C 0.19069 0.15471 0.60157 0.0
C902 C 0.20494 0.14478 0.62447 0.0
C903 C 0.19232 0.15775 0.55438 0.0
C904 C 0.18263 0.19181 0.55123 0.0
C905 C 0.19048 0.13555 0.53354 0.0
C906 C 0.19663 0.09855 0.53601 0.0
C907 C 0.1791 0.07945 0.55409 0.0
C908 C 0.18515 0.04468 0.55652 0.0
C909 C 0.20855 0.02866 0.54087 0.0
C910 C 0.22588 0.04736 0.52272 0.0
C911 C 0.21994 0.08214 0.52022 0.0
H912 H 0.21321 1.00174 0.54279 0.0
H913 H 0.14119 0.33636 0.51917 0.0
H914 H 0.40874 0.73301 0.11705 0.0
H915 H 0.40156 0.70563 0.0759 0.0
H916 H 0.29434 0.69502 0.08994 0.0
H917 H 0.30112 0.72311 0.13028 0.0
H918 H 0.33121 0.63442 0.06875 0.0
H919 H 0.3124 0.75681 0.05777 0.0
H920 H 0.33124 0.81635 0.06017 0.0
H921 H 0.41624 0.79366 1.01283 0.0
H922 H 0.39812 0.73381 1.01048 0.0
H923 H 0.23716 0.60659 0.96017 0.0
H924 H 0.26149 0.6257 0.99957 0.0
H925 H 0.34838 0.66563 0.96014 0.0
H926 H 0.3229 0.6482 0.92036 0.0
H927 H 0.33369 0.70786 0.99344 0.0
H928 H 0.35016 0.58917 0.99773 0.0
H929 H 0.33572 0.52845 0.99521 0.0
H930 H 0.2632 0.54042 0.05444 0.0
H931 H 0.27686 0.60133 0.05709 0.0
C932 C 0.3838 0.72441 0.11138 0.0
C933 C 0.35545 0.7303 0.12672 0.0
C934 C 0.3797 0.70891 0.08793 0.0
C935 C 0.34738 0.69837 0.07992 0.0
C936 C 0.31947 0.7029 0.09578 0.0
C937 C 0.32338 0.71906 0.11877 0.0
C938 C 0.34166 0.68431 0.05454 0.0
C939 C 0.33174 0.65034 0.05221 0.0
C940 C 0.34351 0.70485 0.03293 0.0
C941 C 0.35418 0.7408 0.03423 0.0
C942 C 0.33529 0.76445 0.04809 0.0
C943 C 0.34579 0.79826 0.04939 0.0
C944 C 0.37499 0.80876 0.03673 0.0
C945 C 0.39368 0.78548 1.02268 0.0
C946 C 0.3833 0.75162 1.02135 0.0
C947 C 0.26154 0.61929 0.95989 0.0
C948 C 0.2782 0.62571 0.93718 0.0
C949 C 0.27564 0.63001 0.98252 0.0
C950 C 0.30736 0.6464 0.98312 0.0
C951 C 0.32401 0.65292 0.96035 0.0
C952 C 0.30947 0.6429 0.93759 0.0
C953 C 0.32221 0.6578 1.00744 0.0
C954 C 0.3338 0.6914 1.00968 0.0
C955 C 0.32264 0.6366 1.02891 0.0
C956 C 0.31441 0.5999 1.0275 0.0
C957 C 0.33099 0.57891 1.01012 0.0
C958 C 0.32296 0.54444 1.00868 0.0
C959 C 0.29852 0.5306 1.02463 0.0
C960 C 0.28213 0.55118 0.04209 0.0
C961 C 0.29004 0.58567 0.0436 0.0
H962 H 0.29233 0.50391 1.02348 0.0
H963 H 0.38308 0.83495 0.03776 0.0
H964 H 0.75784 0.81091 0.6154 0.0
H965 H 0.78612 0.80425 0.57542 0.0
H966 H 0.84079 0.89752 0.5872 0.0
H967 H 0.81263 0.90432 0.62811 0.0
H968 H 0.80707 0.88525 0.53572 0.0
H969 H 0.88744 0.83818 0.59244 0.0
H970 H 0.90607 0.8045 0.62875 0.0
H971 H 0.86717 0.71404 0.59457 0.0
H972 H 0.84775 0.74727 0.55822 0.0
H973 H 0.88848 0.82306 0.42241 0.0
H974 H 0.88368 0.84929 0.46404 0.0
H975 H 0.82994 0.76114 0.49078 0.0
H976 H 0.83446 0.73516 0.44972 0.0
H977 H 0.87808 0.78256 0.52417 0.0
H978 H 0.78744 0.83093 0.47333 0.0
H979 H 0.76534 0.8634 0.43743 0.0
H980 H 0.8223 0.95065 0.46074 0.0
H981 H 0.84508 0.91849 0.49663 0.0
C982 C 0.77573 0.83024 0.60964 0.0
C983 C 0.78293 0.8582 0.62507 0.0
C984 C 0.79194 0.8263 0.5867 0.0
C985 C 0.81561 0.85028 0.57838 0.0
C986 C 0.82255 0.87872 0.59334 0.0
C987 C 0.80655 0.88251 0.61668 0.0
C988 C 0.83307 0.84429 0.55419 0.0
C989 C 0.82352 0.86346 0.53323 0.0
C990 C 0.85407 0.81555 0.55093 0.0
C991 C 0.866 0.79529 0.57263 0.0
C992 C 0.88263 0.81115 0.59273 0.0
C993 C 0.89337 0.79212 0.61332 0.0
C994 C 0.88778 0.75716 0.61398 0.0
C995 C 0.87149 0.74113 0.59403 0.0
C996 C 0.86066 0.76005 0.57341 0.0
C997 C 0.87593 0.80924 0.43728 0.0
C998 C 0.86171 0.77709 0.43273 0.0
C999 C 0.87311 0.82428 0.461 0.0
C1000 C 0.85636 0.80719 0.48053 0.0
C1001 C 0.84306 0.77478 0.47607 0.0
C1002 C 0.84552 0.76002 0.45249 0.0
C1003 C 0.85122 0.82284 0.50555 0.0
C1004 C 0.86282 0.80519 0.52668 0.0
C1005 C 0.83208 0.8529 0.5089 0.0
C1006 C 0.81832 0.8722 0.48742 0.0
C1007 C 0.79548 0.85695 0.47066 0.0
C1008 C 0.78278 0.8753 0.45035 0.0
C1009 C 0.79251 0.90903 0.44675 0.0
C1010 C 0.81486 0.9245 0.46351 0.0
C1011 C 0.82767 0.90622 0.48384 0.0
H1012 H 0.78265 0.9232 0.43102 0.0
H1013 H 0.8961 0.74247 0.62994 0.0
H1014 H 0.609 0.31039 0.13079 0.0
H1015 H 0.61757 0.33848 0.09004 0.0
H1016 H 0.71398 0.28795 0.08225 0.0
H1017 H 0.70552 0.25971 0.12216 0.0
H1018 H 0.71594 0.35879 0.07196 0.0
H1019 H 0.64936 0.25756 0.05228 0.0
H1020 H 0.59831 0.22161 0.05532 0.0
H1021 H 0.53685 0.30361 1.02812 0.0
H1022 H 0.58756 0.3402 1.02524 0.0
H1023 H 0.77857 0.33739 0.95275 0.0
H1024 H 0.75402 0.33243 0.99417 0.0
H1025 H 0.66397 0.38445 0.96908 0.0
H1026 H 0.68854 0.38924 0.92688 0.0
H1027 H 0.6485 0.32784 0.99707 0.0
H1028 H 0.71704 0.42499 1.00812 0.0
H1029 H 0.76799 0.46096 1.00464 0.0
H1030 H 0.82478 0.38942 0.04836 0.0
H1031 H 0.77433 0.35273 0.0518 0.0
C1032 C 0.63197 0.30536 0.12033 0.0
C1033 C 0.65647 0.28266 0.12968 0.0
C1034 C 0.63682 0.32136 0.09709 0.0
C1035 C 0.66646 0.3153 0.08314 0.0
C1036 C 0.691 0.29309 0.0927 0.0
C1037 C 0.68597 0.2768 0.11553 0.0
C1038 C 0.67253 0.33134 0.05838 0.0
C1039 C 0.70113 0.35219 0.05557 0.0
C1040 C 0.6525 0.32373 0.03717 0.0
C1041 C 0.62213 0.30174 0.0389 0.0
C1042 C 0.62491 0.26802 0.04719 0.0
C1043 C 0.59606 0.24751 0.04883 0.0
C1044 C 0.56433 0.26036 0.04201 0.0
C1045 C 0.56142 0.29372 0.03346 0.0
C1046 C 0.5902 0.31435 0.03182 0.0
C1047 C 0.75361 0.34805 0.95591 0.0
C1048 C 0.73558 0.36379 0.93641 0.0
C1049 C 0.73964 0.34533 0.97975 0.0
C1050 C 0.70731 0.35846 0.98493 0.0
C1051 C 0.68906 0.3743 0.96557 0.0
C1052 C 0.70318 0.37716 0.94152 0.0
C1053 C 0.69285 0.35415 1.01047 0.0
C1054 C 0.66275 0.33545 1.01348 0.0
C1055 C 0.71139 0.36396 0.03197 0.0
C1056 C 0.74186 0.38603 1.03015 0.0
C1057 C 0.74044 0.41681 1.01688 0.0
C1058 C 0.76924 0.43735 1.01492 0.0
C1059 C 0.79961 0.42747 1.02626 0.0
C1060 C 0.80123 0.39705 0.03961 0.0
C1061 C 0.77251 0.3764 0.04161 0.0
H1062 H 0.82188 0.4434 1.02471 0.0
H1063 H 0.54202 0.24443 0.04328 0.0
H1064 H 0.91538 0.89091 0.38165 0.0
H1065 H 0.94834 0.94342 0.38751 0.0
H1066 H 0.98911 0.9331 0.31311 0.0
H1067 H 0.95587 0.88129 0.30711 0.0
H1068 H 0.03826 0.94819 0.35251 0.0
H1069 H 0.92918 0.98582 0.31963 0.0
H1070 H 0.86681 0.99073 0.32071 0.0
H1071 H 0.87238 0.03883 0.39255 0.0
H1072 H 0.93481 0.03375 0.39203 0.0
H1073 H 0.1066 0.10434 0.31492 0.0
H1074 H 0.07606 0.05122 0.3198 0.0
H1075 H 0.02494 0.09101 0.38473 0.0
H1076 H 0.05411 0.14512 0.37915 0.0
H1077 H 0.98107 0.05999 0.35719 0.0
H1078 H 0.0896 0.03014 0.38834 0.0
H1079 H 0.15182 0.02402 0.38956 0.0
H1080 H 0.14842 0.95968 0.32494 0.0
H1081 H 0.08624 0.96589 0.32302 0.0
C1082 C 0.93147 0.89996 0.36665 0.0
C1083 C 0.93288 0.88238 0.34385 0.0
C1084 C 0.95016 0.92986 0.36997 0.0
C1085 C 0.97102 0.94214 0.35068 0.0
C1086 C 0.9731 0.92408 0.32818 0.0
C1087 C 0.95396 0.89467 0.3247 0.0
C1088 C 0.99037 0.97414 0.35352 0.0
C1089 C 0.0259 0.97271 0.35331 0.0
C1090 C 0.97407 1.00591 0.35567 0.0
C1091 C 0.9366 0.009 0.35594 0.0
C1092 C 0.91708 0.99713 0.33576 0.0
C1093 C 0.88173 1.00001 0.33625 0.0
C1094 C 0.86563 0.01497 0.35673 0.0
C1095 C 0.88487 0.02717 0.37673 0.0
C1096 C 0.92024 0.02431 0.37634 0.0
C1097 C 0.08878 0.10204 0.33019 0.0
C1098 C 0.0829 0.12932 0.34657 0.0
C1099 C 0.0716 0.07132 0.33318 0.0
C1100 C 0.04853 0.06675 0.35289 0.0
C1101 C 0.04276 0.09377 0.36944 0.0
C1102 C 0.05975 0.1247 0.36634 0.0
C1103 C 0.02936 0.03434 0.35537 0.0
C1104 C 0.99375 0.03559 0.35665 0.0
C1105 C 0.04568 1.0023 0.3545 0.0
C1106 C 0.0832 0.99882 0.35539 0.0
C1107 C 0.10213 0.01499 0.37422 0.0
C1108 C 0.13741 0.01145 0.37506 0.0
C1109 C 0.15407 0.99157 0.35729 0.0
C1110 C 0.13548 0.97514 0.33866 0.0
C1111 C 0.10021 0.97866 0.33769 0.0
H1112 H 0.18138 0.98882 0.35801 0.0
H1113 H 0.83826 0.01719 0.35706 0.0
H1114 H 0.37976 0.58636 0.88506 0.0
H1115 H 0.43033 0.55066 0.88953 0.0
H1116 H 0.44065 0.54693 0.80934 0.0
H1117 H 0.39001 0.58195 0.80475 0.0
H1118 H 0.4448 0.4841 0.83102 0.0
H1119 H 0.49279 0.59576 0.84386 0.0
H1120 H 0.49763 0.65128 0.8647 0.0
H1121 H 0.51789 0.60176 0.93463 0.0
H1122 H 0.51272 0.5459 0.91424 0.0
H1123 H 0.60759 0.42212 0.80825 0.0
H1124 H 0.55632 0.4561 0.81166 0.0
H1125 H 0.56717 0.45806 0.89189 0.0
H1126 H 0.61937 0.42424 0.88843 0.0
H1127 H 0.54972 0.51868 0.87546 0.0
H1128 H 0.50638 0.40732 0.86281 0.0
H1129 H 0.50043 0.35126 0.84293 0.0
H1130 H 0.46978 0.39872 0.7743 0.0
H1131 H 0.47588 0.45508 0.79368 0.0
C1132 C 0.39285 0.57794 0.86841 0.0
C1133 C 0.38086 0.58705 0.84455 0.0
C1134 C 0.42185 0.55774 0.87099 0.0
C1135 C 0.43931 0.54625 0.84976 0.0
C1136 C 0.42757 0.55555 0.82597 0.0
C1137 C 0.39877 0.57585 0.82338 0.0
C1138 C 0.46923 0.52363 0.85207 0.0
C1139 C 0.46787 0.49175 0.84054 0.0
C1140 C 0.49879 0.53311 0.86536 0.0
C1141 C 0.50198 0.56667 0.87759 0.0
C1142 C 0.49798 0.59671 0.86372 0.0
C1143 C 0.50085 0.62824 0.87544 0.0
C1144 C 0.50796 0.63005 0.90099 0.0
C1145 C 0.51232 0.60032 0.91485 0.0
C1146 C 0.50945 0.56873 0.90322 0.0
C1147 C 0.59889 0.42934 0.82666 0.0
C1148 C 0.61725 0.42004 0.84812 0.0
C1149 C 0.5695 0.44882 0.8286 0.0
C1150 C 0.55735 0.45902 0.85207 0.0
C1151 C 0.57591 0.45029 0.87358 0.0
C1152 C 0.60568 0.43101 0.87161 0.0
C1153 C 0.52567 0.4794 0.85379 0.0
C1154 C 0.52658 0.51079 0.86615 0.0
C1155 C 0.49549 0.46936 0.84143 0.0
C1156 C 0.49182 0.43546 0.82967 0.0
C1157 C 0.49859 0.40582 0.84343 0.0
C1158 C 0.49513 0.37398 0.83226 0.0
C1159 C 0.48475 0.37143 0.80736 0.0
C1160 C 0.47778 0.40072 0.79359 0.0
C1161 C 0.48118 0.43262 0.80467 0.0
H1162 H 0.48207 0.34676 0.79875 0.0
H1163 H 0.51017 0.65448 0.91003 0.0
H1164 H 0.46462 0.65504 0.18179 0.0
H1165 H 0.49906 0.60383 0.17774 0.0
H1166 H 0.45232 0.5624 0.24382 0.0
H1167 H 0.41681 0.61247 0.24757 0.0
H1168 H 0.52653 0.56201 0.24272 0.0
H1169 H 0.42807 0.53223 0.19182 0.0
H1170 H 0.38866 0.54139 0.15665 0.0
H1171 H 0.47186 0.53699 0.10493 0.0
H1172 H 0.51184 0.52826 0.13986 0.0
H1173 H 0.5674 0.39187 0.25489 0.0
H1174 H 0.53838 0.44602 0.25011 0.0
H1175 H 0.57483 0.45353 0.17423 0.0
H1176 H 0.60294 0.3981 0.17882 0.0
H1177 H 0.51311 0.4762 0.17569 0.0
H1178 H 0.61121 0.50053 0.22354 0.0
H1179 H 0.65359 0.49389 0.25709 0.0
H1180 H 0.57684 0.5128 0.31229 0.0
H1181 H 0.53388 0.51908 0.2791 0.0
C1182 C 0.46112 0.63496 0.1953 0.0
C1183 C 0.43778 0.63835 0.21515 0.0
C1184 C 0.48104 0.6057 0.19297 0.0
C1185 C 0.47827 0.57943 0.21053 0.0
C1186 C 0.455 0.58254 0.23018 0.0
C1187 C 0.43477 0.61143 0.23233 0.0
C1188 C 0.49997 0.5488 0.20902 0.0
C1189 C 0.52351 0.54309 0.22818 0.0
C1190 C 0.49704 0.52499 0.18941 0.0
C1191 C 0.47297 0.53001 0.16846 0.0
C1192 C 0.43799 0.53353 0.17297 0.0
C1193 C 0.41555 0.53858 0.15307 0.0
C1194 C 0.42776 0.53989 0.12857 0.0
C1195 C 0.46244 0.53604 0.12392 0.0
C1196 C 0.485 0.53102 0.14375 0.0
C1197 C 0.56932 0.40513 0.23722 0.0
C1198 C 0.58782 0.39111 0.21734 0.0
C1199 C 0.55283 0.43619 0.23451 0.0
C1200 C 0.5552 0.45454 0.21205 0.0
C1201 C 0.57286 0.44009 0.19183 0.0
C1202 C 0.5889 0.4085 0.19442 0.0
C1203 C 0.539 0.4886 0.21001 0.0
C1204 C 0.5166 0.49516 0.19013 0.0
C1205 C 0.54348 0.51364 0.22873 0.0
C1206 C 0.56927 0.51006 0.24881 0.0
C1207 C 0.60332 0.50307 0.24284 0.0
C1208 C 0.62746 0.49939 0.2618 0.0
C1209 C 0.6179 0.50287 0.28681 0.0
C1210 C 0.5842 0.51011 0.29291 0.0
C1211 C 0.55996 0.51378 0.27403 0.0
H1212 H 0.63662 0.5 0.30146 0.0
H1213 H 0.41035 0.5438 0.1132 0.0
H1214 H 0.13287 0.08611 0.67745 0.0
H1215 H 0.08212 0.05075 0.67234 0.0
H1216 H 0.07447 0.04029 0.75235 0.0
H1217 H 0.12539 0.07477 0.75757 0.0
H1218 H 0.06948 0.97918 0.7275 0.0
H1219 H 0.02184 0.09203 0.72202 0.0
H1220 H 0.0164 0.14955 0.70438 0.0
H1221 H 0.99225 0.10745 0.63258 0.0
H1222 H 0.99799 0.04963 0.64974 0.0
H1223 H 0.90605 0.91995 0.75306 0.0
H1224 H 0.95827 0.95229 0.7492 0.0
H1225 H 0.9441 0.95857 0.6694 0.0
H1226 H 0.89131 0.92586 0.67316 0.0
H1227 H 0.96262 0.01881 0.68813 0.0
H1228 H 1.00419 0.90613 0.69421 0.0
H1229 H 0.01059 0.84829 0.71105 0.0
H1230 H 0.04789 0.88879 0.78025 0.0
H1231 H 0.04111 0.94691 0.76401 0.0
C1232 C 0.12037 0.07621 0.69393 0.0
C1233 C 0.13311 0.08336 0.71792 0.0
C1234 C 0.09129 0.05622 0.69098 0.0
C1235 C 0.07452 0.04298 0.71198 0.0
C1236 C 0.08707 0.05024 0.73591 0.0
C1237 C 0.116 0.07027 0.73887 0.0
C1238 C 0.04436 0.0208 0.70926 0.0
C1239 C 0.04599 0.98788 0.71909 0.0
C1240 C 0.01424 0.03179 0.69738 0.0
C1241 C 0.01075 0.06652 0.68709 0.0
C1242 C 0.01568 0.09504 0.70242 0.0
C1243 C 0.01247 0.1277 0.69252 0.0
C1244 C 1.0041 0.13216 0.66736 0.0
C1245 C 0.99881 0.10396 0.65206 0.0
C1246 C 1.00201 0.07124 0.66186 0.0
C1247 C 0.91418 0.92762 0.73459 0.0
C1248 C 0.89461 0.91989 0.71336 0.0
C1249 C 0.94412 0.94625 0.73243 0.0
C1250 C 0.95549 0.95738 0.70896 0.0
C1251 C 0.9359 0.9501 0.68769 0.0
C1252 C 0.90573 0.93147 0.68987 0.0
C1253 C 0.98736 0.97738 0.70707 0.0
C1254 C 0.98617 0.00985 0.6963 0.0
C1255 C 0.01805 0.96589 0.71797 0.0
C1256 C 0.02186 0.93093 0.72793 0.0
C1257 C 0.01344 0.90273 0.7131 0.0
C1258 C 0.01718 0.86988 0.72254 0.0
C1259 C 0.02956 0.86487 0.74673 0.0
C1260 C 0.03825 0.89271 0.76153 0.0
C1261 C 0.03446 0.92561 0.75222 0.0
H1262 H 0.03248 0.83941 0.75398 0.0
H1263 H 1.00162 0.15746 0.65973 0.0
loop_
_geom_bond_atom_site_label_1
_geom_bond_atom_site_label_2
_geom_bond_distance
_geom_bond_site_symmetry_2
_ccdc_geom_bond_type
C0 C1 1.351 . S
C0 N3 1.368 . S
C0 H5 0.931 . S
C1 C0 1.351 . S
C1 N2 1.373 . S
C1 H29 0.930 . S
N2 C1 1.373 . S
N2 C4 1.340 . S
N3 C0 1.368 . S
N3 C4 1.321 . S
N3 Co6 2.135 . S
C4 N2 1.340 . S
C4 N3 1.321 . S
C4 H28 0.930 . S
H5 C0 0.931 . S
Co6 N3 2.135 . S
Co6 N9 2.121 . S
Co6 O14 2.055 1_455 S
Co6 O17 2.039 . S
Co6 N20 2.140 . S
C7 O8 1.227 . S
C7 O17 1.265 . S
O8 C7 1.227 . S
N9 Co6 2.121 . S
N9 C11 1.375 . S
N9 C12 1.313 . S
C10 C11 1.338 . S
C10 N13 1.377 . S
C10 H30 0.930 . S
C11 N9 1.375 . S
C11 C10 1.338 . S
C11 H15 0.931 . S
C12 N9 1.313 . S
C12 N13 1.344 . S
C12 H16 0.930 . S
N13 C10 1.377 . S
N13 C12 1.344 . S
O14 Co6 2.055 1_655 S
O14 C18 1.253 . S
H15 C11 0.931 . S
H16 C12 0.930 . S
O17 Co6 2.039 . S
O17 C7 1.265 . S
C18 O14 1.253 . S
C18 O19 1.227 1_655 S
O19 C18 1.227 1_455 S
N20 Co6 2.140 . S
N20 C23 1.346 . S
N20 C24 1.345 . S
C21 C22 1.387 . S
C21 C25 1.391 . S
C22 C21 1.387 . S
C22 C23 1.369 . S
C22 H31 0.929 . S
C23 N20 1.346 . S
C23 C22 1.369 . S
C23 H26 0.928 . S
C24 N20 1.345 . S
C24 C25 1.371 . S
C24 H27 0.931 . S
C25 C21 1.391 . S
C25 C24 1.371 . S
C25 H32 0.930 . S
H26 C23 0.928 . S
H27 C24 0.931 . S
H28 C4 0.930 . S
H29 C1 0.930 . S
H30 C10 0.930 . S
H31 C22 0.929 . S
H32 C25 0.930 . S
C33 C34 1.351 . S
C33 N36 1.368 . S
C33 H38 0.931 . S
C34 C33 1.351 . S
C34 N35 1.373 . S
C34 H62 0.930 . S
N35 C34 1.373 . S
N35 C37 1.340 . S
N36 C33 1.368 . S
N36 C37 1.321 . S
N36 Co39 2.135 . S
C37 N35 1.340 . S
C37 N36 1.321 . S
C37 H61 0.930 . S
H38 C33 0.931 . S
Co39 N36 2.135 . S
Co39 N42 2.121 . S
Co39 O47 2.055 . S
Co39 O50 2.039 . S
Co39 N53 2.140 . S
C40 O41 1.227 . S
C40 O50 1.265 . S
O41 C40 1.227 . S
N42 Co39 2.121 . S
N42 C44 1.375 . S
N42 C45 1.313 . S
C43 C44 1.338 . S
C43 N46 1.377 . S
C43 H63 0.930 . S
C44 N42 1.375 . S
C44 C43 1.338 . S
C44 H48 0.931 . S
C45 N42 1.313 . S
C45 N46 1.344 . S
C45 H49 0.930 . S
N46 C43 1.377 . S
N46 C45 1.344 . S
O47 Co39 2.055 . S
O47 C51 1.253 . S
H48 C44 0.931 . S
H49 C45 0.930 . S
O50 Co39 2.039 . S
O50 C40 1.265 . S
C51 O47 1.253 . S
C51 O52 1.227 . S
O52 C51 1.227 . S
N53 Co39 2.140 . S
N53 C56 1.346 . S
N53 C57 1.345 . S
C54 C55 1.387 . S
C54 C58 1.391 . S
C55 C54 1.387 . S
C55 C56 1.369 . S
C55 H64 0.929 . S
C56 N53 1.346 . S
C56 C55 1.369 . S
C56 H59 0.928 . S
C57 N53 1.345 . S
C57 C58 1.371 . S
C57 H60 0.931 . S
C58 C54 1.391 . S
C58 C57 1.371 . S
C58 H65 0.930 . S
H59 C56 0.928 . S
H60 C57 0.931 . S
H61 C37 0.930 . S
H62 C34 0.930 . S
H63 C43 0.930 . S
H64 C55 0.929 . S
H65 C58 0.930 . S
C66 C67 1.351 . S
C66 N69 1.368 . S
C66 H71 0.931 . S
C67 C66 1.351 . S
C67 N68 1.373 . S
C67 H95 0.930 . S
N68 C67 1.373 . S
N68 C70 1.340 . S
N69 C66 1.368 . S
N69 C70 1.321 . S
N69 Co72 2.135 . S
C70 N68 1.340 . S
C70 N69 1.321 . S
C70 H94 0.930 . S
H71 C66 0.931 . S
Co72 N69 2.135 . S
Co72 N75 2.121 . S
Co72 O80 2.055 1_655 S
Co72 O83 2.039 . S
Co72 N86 2.140 . S
C73 O74 1.227 . S
C73 O83 1.265 . S
O74 C73 1.227 . S
N75 Co72 2.121 . S
N75 C77 1.375 . S
N75 C78 1.313 . S
C76 C77 1.338 . S
C76 N79 1.377 . S
C76 H96 0.930 . S
C77 N75 1.375 . S
C77 C76 1.338 . S
C77 H81 0.931 . S
C78 N75 1.313 . S
C78 N79 1.344 . S
C78 H82 0.930 . S
N79 C76 1.377 . S
N79 C78 1.344 . S
O80 Co72 2.055 1_455 S
O80 C84 1.253 . S
H81 C77 0.931 . S
H82 C78 0.930 . S
O83 Co72 2.039 . S
O83 C73 1.265 . S
C84 O80 1.253 . S
C84 O85 1.227 1_455 S
O85 C84 1.227 1_655 S
N86 Co72 2.140 . S
N86 C89 1.346 . S
N86 C90 1.345 . S
C87 C88 1.387 . S
C87 C91 1.391 . S
C88 C87 1.387 . S
C88 C89 1.369 . S
C88 H97 0.929 . S
C89 N86 1.346 . S
C89 C88 1.369 . S
C89 H92 0.928 . S
C90 N86 1.345 . S
C90 C91 1.371 . S
C90 H93 0.931 . S
C91 C87 1.391 . S
C91 C90 1.371 . S
C91 H98 0.930 . S
H92 C89 0.928 . S
H93 C90 0.931 . S
H94 C70 0.930 . S
H95 C67 0.930 . S
H96 C76 0.930 . S
H97 C88 0.929 . S
H98 C91 0.930 . S
C99 C100 1.351 . S
C99 N102 1.368 . S
C99 H104 0.931 . S
C100 C99 1.351 . S
C100 N101 1.373 . S
C100 H128 0.930 . S
N101 C100 1.373 . S
N101 C103 1.340 . S
N102 C99 1.368 . S
N102 C103 1.321 . S
N102 Co105 2.135 . S
C103 N101 1.340 . S
C103 N102 1.321 . S
C103 H127 0.930 . S
H104 C99 0.931 . S
Co105 N102 2.135 . S
Co105 N108 2.121 . S
Co105 O113 2.055 . S
Co105 O116 2.039 . S
Co105 N119 2.140 . S
C106 O107 1.227 . S
C106 O116 1.265 . S
O107 C106 1.227 . S
N108 Co105 2.121 . S
N108 C110 1.375 . S
N108 C111 1.313 . S
C109 C110 1.338 . S
C109 N112 1.377 . S
C109 H129 0.930 . S
C110 N108 1.375 . S
C110 C109 1.338 . S
C110 H114 0.931 . S
C111 N108 1.313 . S
C111 N112 1.344 . S
C111 H115 0.930 . S
N112 C109 1.377 . S
N112 C111 1.344 . S
O113 Co105 2.055 . S
O113 C117 1.253 . S
H114 C110 0.931 . S
H115 C111 0.930 . S
O116 Co105 2.039 . S
O116 C106 1.265 . S
C117 O113 1.253 . S
C117 O118 1.227 . S
O118 C117 1.227 . S
N119 Co105 2.140 . S
N119 C122 1.346 . S
N119 C123 1.345 . S
C120 C121 1.387 . S
C120 C124 1.391 . S
C121 C120 1.387 . S
C121 C122 1.369 . S
C121 H130 0.929 . S
C122 N119 1.346 . S
C122 C121 1.369 . S
C122 H125 0.928 . S
C123 N119 1.345 . S
C123 C124 1.371 . S
C123 H126 0.931 . S
C124 C120 1.391 . S
C124 C123 1.371 . S
C124 H131 0.930 . S
H125 C122 0.928 . S
H126 C123 0.931 . S
H127 C103 0.930 . S
H128 C100 0.930 . S
H129 C109 0.930 . S
H130 C121 0.929 . S
H131 C124 0.930 . S
C132 C133 1.351 . S
C132 N135 1.368 . S
C132 H137 0.931 . S
C133 C132 1.351 . S
C133 N134 1.373 . S
C133 H161 0.930 . S
N134 C133 1.373 . S
N134 C136 1.340 . S
N135 C132 1.368 . S
N135 C136 1.321 . S
N135 Co138 2.135 . S
C136 N134 1.340 . S
C136 N135 1.321 . S
C136 H160 0.930 . S
H137 C132 0.931 . S
Co138 N135 2.135 . S
Co138 N141 2.121 . S
Co138 O146 2.055 . S
Co138 O149 2.039 . S
Co138 N152 2.140 . S
C139 O140 1.227 . S
C139 O149 1.265 . S
O140 C139 1.227 . S
N141 Co138 2.121 . S
N141 C143 1.375 . S
N141 C144 1.313 . S
C142 C143 1.338 . S
C142 N145 1.377 . S
C142 H162 0.930 . S
C143 N141 1.375 . S
C143 C142 1.338 . S
C143 H147 0.931 . S
C144 N141 1.313 . S
C144 N145 1.344 . S
C144 H148 0.930 . S
N145 C142 1.377 . S
N145 C144 1.344 . S
O146 Co138 2.055 . S
O146 C150 1.253 . S
H147 C143 0.931 . S
H148 C144 0.930 . S
O149 Co138 2.039 . S
O149 C139 1.265 . S
C150 O146 1.253 . S
C150 O151 1.227 . S
O151 C150 1.227 . S
N152 Co138 2.140 . S
N152 C155 1.346 . S
N152 C156 1.345 . S
C153 C154 1.387 . S
C153 C157 1.391 . S
C154 C153 1.387 . S
C154 C155 1.369 . S
C154 H163 0.929 . S
C155 N152 1.346 . S
C155 C154 1.369 . S
C155 H158 0.928 . S
C156 N152 1.345 . S
C156 C157 1.371 . S
C156 H159 0.931 . S
C157 C153 1.391 . S
C157 C156 1.371 . S
C157 H164 0.930 . S
H158 C155 0.928 . S
H159 C156 0.931 . S
H160 C136 0.930 . S
H161 C133 0.930 . S
H162 C142 0.930 . S
H163 C154 0.929 . S
H164 C157 0.930 . S
C165 C166 1.351 . S
C165 N168 1.368 . S
C165 H170 0.931 . S
C166 C165 1.351 . S
C166 N167 1.373 . S
C166 H194 0.930 . S
N167 C166 1.373 . S
N167 C169 1.340 . S
N168 C165 1.368 . S
N168 C169 1.321 . S
N168 Co171 2.135 . S
C169 N167 1.340 . S
C169 N168 1.321 . S
C169 H193 0.930 . S
H170 C165 0.931 . S
Co171 N168 2.135 . S
Co171 N174 2.121 . S
Co171 O179 2.055 1_545 S
Co171 O182 2.039 . S
Co171 N185 2.140 . S
C172 O173 1.227 . S
C172 O182 1.265 . S
O173 C172 1.227 . S
N174 Co171 2.121 . S
N174 C176 1.375 . S
N174 C177 1.313 . S
C175 C176 1.338 . S
C175 N178 1.377 . S
C175 H195 0.930 . S
C176 N174 1.375 . S
C176 C175 1.338 . S
C176 H180 0.931 . S
C177 N174 1.313 . S
C177 N178 1.344 . S
C177 H181 0.930 . S
N178 C175 1.377 . S
N178 C177 1.344 . S
O179 Co171 2.055 1_565 S
O179 C183 1.253 . S
H180 C176 0.931 . S
H181 C177 0.930 . S
O182 Co171 2.039 . S
O182 C172 1.265 . S
C183 O179 1.253 . S
C183 O184 1.227 1_565 S
O184 C183 1.227 1_545 S
N185 Co171 2.140 . S
N185 C188 1.346 . S
N185 C189 1.345 . S
C186 C187 1.387 . S
C186 C190 1.391 . S
C187 C186 1.387 . S
C187 C188 1.369 . S
C187 H196 0.929 . S
C188 N185 1.346 . S
C188 C187 1.369 . S
C188 H191 0.928 . S
C189 N185 1.345 . S
C189 C190 1.371 . S
C189 H192 0.931 . S
C190 C186 1.391 . S
C190 C189 1.371 . S
C190 H197 0.930 . S
H191 C188 0.928 . S
H192 C189 0.931 . S
H193 C169 0.930 . S
H194 C166 0.930 . S
H195 C175 0.930 . S
H196 C187 0.929 . S
H197 C190 0.930 . S
C198 C199 1.351 . S
C198 N201 1.368 . S
C198 H203 0.931 . S
C199 C198 1.351 . S
C199 N200 1.373 . S
C199 H227 0.930 . S
N200 C199 1.373 . S
N200 C202 1.340 . S
N201 C198 1.368 . S
N201 C202 1.321 . S
N201 Co204 2.135 . S
C202 N200 1.340 . S
C202 N201 1.321 . S
C202 H226 0.930 . S
H203 C198 0.931 . S
Co204 N201 2.135 . S
Co204 N207 2.121 . S
Co204 O212 2.055 . S
Co204 O215 2.039 . S
Co204 N218 2.140 . S
C205 O206 1.227 . S
C205 O215 1.265 . S
O206 C205 1.227 . S
N207 Co204 2.121 . S
N207 C209 1.375 . S
N207 C210 1.313 . S
C208 C209 1.338 . S
C208 N211 1.377 . S
C208 H228 0.930 . S
C209 N207 1.375 . S
C209 C208 1.338 . S
C209 H213 0.931 . S
C210 N207 1.313 . S
C210 N211 1.344 . S
C210 H214 0.930 . S
N211 C208 1.377 . S
N211 C210 1.344 . S
O212 Co204 2.055 . S
O212 C216 1.253 . S
H213 C209 0.931 . S
H214 C210 0.930 . S
O215 Co204 2.039 . S
O215 C205 1.265 . S
C216 O212 1.253 . S
C216 O217 1.227 . S
O217 C216 1.227 . S
N218 Co204 2.140 . S
N218 C221 1.346 . S
N218 C222 1.345 . S
C219 C220 1.387 . S
C219 C223 1.391 . S
C220 C219 1.387 . S
C220 C221 1.369 . S
C220 H229 0.929 . S
C221 N218 1.346 . S
C221 C220 1.369 . S
C221 H224 0.928 . S
C222 N218 1.345 . S
C222 C223 1.371 . S
C222 H225 0.931 . S
C223 C219 1.391 . S
C223 C222 1.371 . S
C223 H230 0.930 . S
H224 C221 0.928 . S
H225 C222 0.931 . S
H226 C202 0.930 . S
H227 C199 0.930 . S
H228 C208 0.930 . S
H229 C220 0.929 . S
H230 C223 0.930 . S
C231 C232 1.351 . S
C231 N234 1.368 . S
C231 H236 0.931 . S
C232 C231 1.351 . S
C232 N233 1.373 . S
C232 H260 0.930 . S
N233 C232 1.373 . S
N233 C235 1.340 . S
N234 C231 1.368 . S
N234 C235 1.321 . S
N234 Co237 2.135 . S
C235 N233 1.340 . S
C235 N234 1.321 . S
C235 H259 0.930 . S
H236 C231 0.931 . S
Co237 N234 2.135 . S
Co237 N240 2.121 . S
Co237 O245 2.055 1_565 S
Co237 O248 2.039 . S
Co237 N251 2.140 . S
C238 O239 1.227 . S
C238 O248 1.265 . S
O239 C238 1.227 . S
N240 Co237 2.121 . S
N240 C242 1.375 . S
N240 C243 1.313 . S
C241 C242 1.338 . S
C241 N244 1.377 . S
C241 H261 0.930 . S
C242 N240 1.375 . S
C242 C241 1.338 . S
C242 H246 0.931 . S
C243 N240 1.313 . S
C243 N244 1.344 . S
C243 H247 0.930 . S
N244 C241 1.377 . S
N244 C243 1.344 . S
O245 Co237 2.055 1_545 S
O245 C249 1.253 . S
H246 C242 0.931 . S
H247 C243 0.930 . S
O248 Co237 2.039 . S
O248 C238 1.265 . S
C249 O245 1.253 . S
C249 O250 1.227 1_545 S
O250 C249 1.227 1_565 S
N251 Co237 2.140 . S
N251 C254 1.346 . S
N251 C255 1.345 . S
C252 C253 1.387 . S
C252 C256 1.391 . S
C253 C252 1.387 . S
C253 C254 1.369 . S
C253 H262 0.929 . S
C254 N251 1.346 . S
C254 C253 1.369 . S
C254 H257 0.928 . S
C255 N251 1.345 . S
C255 C256 1.371 . S
C255 H258 0.931 . S
C256 C252 1.391 . S
C256 C255 1.371 . S
C256 H263 0.930 . S
H257 C254 0.928 . S
H258 C255 0.931 . S
H259 C235 0.930 . S
H260 C232 0.930 . S
H261 C241 0.930 . S
H262 C253 0.929 . S
H263 C256 0.930 . S
H264 C282 0.951 1_455 S
H265 C284 0.951 1_455 S
H266 C286 0.950 . S
H267 C287 0.950 . S
H268 C289 0.950 . S
H269 C292 0.950 . S
H270 C293 0.950 . S
H271 C295 0.950 . S
H272 C296 0.950 . S
H273 C297 0.951 1_655 S
H274 C299 0.951 1_655 S
H275 C301 0.950 . S
H276 C302 0.950 . S
H277 C304 0.950 . S
H278 C307 0.950 . S
H279 C308 0.950 . S
H280 C310 0.950 . S
H281 C311 0.950 . S
C282 H264 0.951 1_655 S
C282 C283 1.366 . S
C282 C284 1.388 . S
C283 C282 1.366 . S
C283 C287 1.385 . S
C284 H265 0.951 1_655 S
C284 C282 1.388 . S
C284 C285 1.366 . S
C285 C284 1.366 . S
C285 C286 1.414 . S
C285 C288 1.499 . S
C286 H266 0.950 . S
C286 C285 1.414 . S
C286 C287 1.374 . S
C287 H267 0.950 . S
C287 C283 1.385 . S
C287 C286 1.374 . S
C288 C285 1.499 . S
C288 C289 1.373 . S
C288 C290 1.389 1_655 S
C289 H268 0.950 . S
C289 C288 1.373 . S
C289 C305 1.377 . S
C290 C288 1.389 1_455 S
C290 C291 1.524 . S
C290 C304 1.377 . S
C291 C290 1.524 . S
C291 C292 1.397 . S
C291 C296 1.363 . S
C292 H269 0.950 . S
C292 C291 1.397 . S
C292 C293 1.334 . S
C293 H270 0.950 . S
C293 C292 1.334 . S
C293 C294 1.287 . S
C294 C293 1.287 . S
C294 C295 1.524 . S
C294 H313 0.913 . S
C295 H271 0.950 . S
C295 C294 1.524 . S
C295 C296 1.415 . S
C296 H272 0.950 . S
C296 C291 1.363 . S
C296 C295 1.415 . S
C297 H273 0.951 1_455 S
C297 C298 1.366 . S
C297 C299 1.388 . S
C298 C297 1.366 . S
C298 C302 1.385 . S
C299 H274 0.951 1_455 S
C299 C297 1.388 . S
C299 C300 1.366 . S
C300 C299 1.366 . S
C300 C301 1.414 . S
C300 C303 1.499 . S
C301 H275 0.950 . S
C301 C300 1.414 . S
C301 C302 1.374 . S
C302 H276 0.950 . S
C302 C298 1.385 . S
C302 C301 1.374 . S
C303 C300 1.499 . S
C303 C304 1.373 . S
C303 C305 1.389 1_455 S
C304 H277 0.950 . S
C304 C290 1.377 . S
C304 C303 1.373 . S
C305 C289 1.377 . S
C305 C303 1.389 1_655 S
C305 C306 1.524 . S
C306 C305 1.524 . S
C306 C307 1.397 . S
C306 C311 1.363 . S
C307 H278 0.950 . S
C307 C306 1.397 . S
C307 C308 1.334 . S
C308 H279 0.950 . S
C308 C307 1.334 . S
C308 C309 1.287 . S
C309 C308 1.287 . S
C309 C310 1.524 . S
C309 H312 0.999 . S
C310 H280 0.950 . S
C310 C309 1.524 . S
C310 C311 1.415 . S
C311 H281 0.950 . S
C311 C306 1.363 . S
C311 C310 1.415 . S
H312 C309 0.999 . S
H313 C294 0.913 . S
H314 C332 0.951 . S
H315 C334 0.951 . S
H316 C336 0.950 . S
H317 C337 0.950 . S
H318 C339 0.950 . S
H319 C342 0.950 . S
H320 C343 0.950 . S
H321 C345 0.950 . S
H322 C346 0.950 . S
H323 C347 0.951 . S
H324 C349 0.951 . S
H325 C351 0.950 . S
H326 C352 0.950 . S
H327 C354 0.950 . S
H328 C357 0.950 . S
H329 C358 0.950 . S
H330 C360 0.950 . S
H331 C361 0.950 . S
C332 H314 0.951 . S
C332 C333 1.366 . S
C332 C334 1.388 . S
C333 C332 1.366 . S
C333 C337 1.385 . S
C334 H315 0.951 . S
C334 C332 1.388 . S
C334 C335 1.366 . S
C335 C334 1.366 . S
C335 C336 1.414 . S
C335 C338 1.499 . S
C336 H316 0.950 . S
C336 C335 1.414 . S
C336 C337 1.374 . S
C337 H317 0.950 . S
C337 C333 1.385 . S
C337 C336 1.374 . S
C338 C335 1.499 . S
C338 C339 1.373 . S
C338 C340 1.389 . S
C339 H318 0.950 . S
C339 C338 1.373 . S
C339 C355 1.377 1_655 S
C340 C338 1.389 . S
C340 C341 1.524 . S
C340 C354 1.377 1_655 S
C341 C340 1.524 . S
C341 C342 1.397 . S
C341 C346 1.363 . S
C342 H319 0.950 . S
C342 C341 1.397 . S
C342 C343 1.334 . S
C343 H320 0.950 . S
C343 C342 1.334 . S
C343 C344 1.287 . S
C344 C343 1.287 . S
C344 C345 1.524 . S
C344 H363 0.913 . S
C345 H321 0.950 . S
C345 C344 1.524 . S
C345 C346 1.415 . S
C346 H322 0.950 . S
C346 C341 1.363 . S
C346 C345 1.415 . S
C347 H323 0.951 . S
C347 C348 1.366 . S
C347 C349 1.388 . S
C348 C347 1.366 . S
C348 C352 1.385 . S
C349 H324 0.951 . S
C349 C347 1.388 . S
C349 C350 1.366 . S
C350 C349 1.366 . S
C350 C351 1.414 . S
C350 C353 1.499 . S
C351 H325 0.950 . S
C351 C350 1.414 . S
C351 C352 1.374 . S
C352 H326 0.950 . S
C352 C348 1.385 . S
C352 C351 1.374 . S
C353 C350 1.499 . S
C353 C354 1.373 . S
C353 C355 1.389 . S
C354 H327 0.950 . S
C354 C340 1.377 1_455 S
C354 C353 1.373 . S
C355 C339 1.377 1_455 S
C355 C353 1.389 . S
C355 C356 1.524 . S
C356 C355 1.524 . S
C356 C357 1.397 . S
C356 C361 1.363 . S
C357 H328 0.950 . S
C357 C356 1.397 . S
C357 C358 1.334 . S
C358 H329 0.950 . S
C358 C357 1.334 . S
C358 C359 1.287 . S
C359 C358 1.287 . S
C359 C360 1.524 . S
C359 H362 0.999 . S
C360 H330 0.950 . S
C360 C359 1.524 . S
C360 C361 1.415 . S
C361 H331 0.950 . S
C361 C356 1.363 . S
C361 C360 1.415 . S
H362 C359 0.999 . S
H363 C344 0.913 . S
H364 C382 0.951 . S
H365 C384 0.951 . S
H366 C386 0.950 . S
H367 C387 0.950 . S
H368 C389 0.950 . S
H369 C392 0.950 . S
H370 C393 0.950 . S
H371 C395 0.950 . S
H372 C396 0.950 . S
H373 C397 0.951 . S
H374 C399 0.951 . S
H375 C401 0.950 . S
H376 C402 0.950 . S
H377 C404 0.950 . S
H378 C407 0.950 . S
H379 C408 0.950 . S
H380 C410 0.950 . S
H381 C411 0.950 . S
C382 H364 0.951 . S
C382 C383 1.366 . S
C382 C384 1.388 . S
C383 C382 1.366 . S
C383 C387 1.385 . S
C384 H365 0.951 . S
C384 C382 1.388 . S
C384 C385 1.366 . S
C385 C384 1.366 . S
C385 C386 1.414 . S
C385 C388 1.499 . S
C386 H366 0.950 . S
C386 C385 1.414 . S
C386 C387 1.374 . S
C387 H367 0.950 . S
C387 C383 1.385 . S
C387 C386 1.374 . S
C388 C385 1.499 . S
C388 C389 1.373 . S
C388 C390 1.389 . S
C389 H368 0.950 . S
C389 C388 1.373 . S
C389 C405 1.377 1_565 S
C390 C388 1.389 . S
C390 C391 1.524 . S
C390 C404 1.377 1_565 S
C391 C390 1.524 . S
C391 C392 1.397 . S
C391 C396 1.363 . S
C392 H369 0.950 . S
C392 C391 1.397 . S
C392 C393 1.334 . S
C393 H370 0.950 . S
C393 C392 1.334 . S
C393 C394 1.287 . S
C394 C393 1.287 . S
C394 C395 1.524 . S
C394 H413 0.913 . S
C395 H371 0.950 . S
C395 C394 1.524 . S
C395 C396 1.415 . S
C396 H372 0.950 . S
C396 C391 1.363 . S
C396 C395 1.415 . S
C397 H373 0.951 . S
C397 C398 1.366 . S
C397 C399 1.388 . S
C398 C397 1.366 . S
C398 C402 1.385 . S
C399 H374 0.951 . S
C399 C397 1.388 . S
C399 C400 1.366 . S
C400 C399 1.366 . S
C400 C401 1.414 . S
C400 C403 1.499 . S
C401 H375 0.950 . S
C401 C400 1.414 . S
C401 C402 1.374 . S
C402 H376 0.950 . S
C402 C398 1.385 . S
C402 C401 1.374 . S
C403 C400 1.499 . S
C403 C404 1.373 . S
C403 C405 1.389 . S
C404 H377 0.950 . S
C404 C390 1.377 1_545 S
C404 C403 1.373 . S
C405 C389 1.377 1_545 S
C405 C403 1.389 . S
C405 C406 1.524 . S
C406 C405 1.524 . S
C406 C407 1.397 . S
C406 C411 1.363 . S
C407 H378 0.950 . S
C407 C406 1.397 . S
C407 C408 1.334 . S
C408 H379 0.950 . S
C408 C407 1.334 . S
C408 C409 1.287 . S
C409 C408 1.287 . S
C409 C410 1.524 . S
C409 H412 0.999 . S
C410 H380 0.950 . S
C410 C409 1.524 . S
C410 C411 1.415 . S
C411 H381 0.950 . S
C411 C406 1.363 . S
C411 C410 1.415 . S
H412 C409 0.999 . S
H413 C394 0.913 . S
H414 C432 0.951 . S
H415 C434 0.951 . S
H416 C436 0.924 1_545 S
H417 C437 0.950 1_545 S
H418 C439 0.952 . S
H419 C442 0.950 . S
H420 C443 0.951 1_545 S
H421 C445 0.950 . S
H422 C446 0.950 . S
H423 C447 0.951 . S
H424 C449 0.951 . S
H425 C451 0.924 1_565 S
H426 C452 0.950 1_565 S
H427 C454 0.952 . S
H428 C457 0.950 . S
H429 C458 0.951 1_565 S
H430 C460 0.950 . S
H431 C461 0.950 . S
C432 H414 0.951 . S
C432 C433 1.366 . S
C432 C434 1.388 . S
C433 C432 1.366 . S
C433 C437 1.385 . S
C434 H415 0.951 . S
C434 C432 1.388 . S
C434 C435 1.366 . S
C435 C434 1.366 . S
C435 C436 1.431 . S
C435 C438 1.499 . S
C436 H416 0.924 1_565 S
C436 C435 1.431 . S
C436 C437 1.384 . S
C437 H417 0.950 1_565 S
C437 C433 1.385 . S
C437 C436 1.384 . S
C438 C435 1.499 . S
C438 C439 1.365 1_565 S
C438 C440 1.389 . S
C439 H418 0.952 . S
C439 C438 1.365 1_545 S
C439 C455 1.385 . S
C440 C438 1.389 . S
C440 C441 1.524 . S
C440 C454 1.385 . S
C441 C440 1.524 . S
C441 C442 1.397 1_565 S
C441 C446 1.363 . S
C442 H419 0.950 . S
C442 C441 1.397 1_545 S
C442 C443 1.334 1_545 S
C443 H420 0.951 1_565 S
C443 C442 1.334 1_565 S
C443 C444 1.286 . S
C444 C443 1.286 . S
C444 C445 1.524 . S
C444 H463 0.913 . S
C445 H421 0.950 . S
C445 C444 1.524 . S
C445 C446 1.415 . S
C446 H422 0.950 . S
C446 C441 1.363 . S
C446 C445 1.415 . S
C447 H423 0.951 . S
C447 C448 1.366 . S
C447 C449 1.388 . S
C448 C447 1.366 . S
C448 C452 1.385 . S
C449 H424 0.951 . S
C449 C447 1.388 . S
C449 C450 1.366 . S
C450 C449 1.366 . S
C450 C451 1.431 . S
C450 C453 1.499 . S
C451 H425 0.924 1_545 S
C451 C450 1.431 . S
C451 C452 1.384 . S
C452 H426 0.950 1_545 S
C452 C448 1.385 . S
C452 C451 1.384 . S
C453 C450 1.499 . S
C453 C454 1.365 1_545 S
C453 C455 1.389 . S
C454 H427 0.952 . S
C454 C440 1.385 . S
C454 C453 1.365 1_565 S
C455 C439 1.385 . S
C455 C453 1.389 . S
C455 C456 1.524 . S
C456 C455 1.524 . S
C456 C457 1.397 1_545 S
C456 C461 1.363 . S
C457 H428 0.950 . S
C457 C456 1.397 1_565 S
C457 C458 1.334 1_565 S
C458 H429 0.951 1_545 S
C458 C457 1.334 1_545 S
C458 C459 1.286 . S
C459 C458 1.286 . S
C459 C460 1.524 . S
C459 H462 0.999 . S
C460 H430 0.950 . S
C460 C459 1.524 . S
C460 C461 1.415 . S
C461 H431 0.950 . S
C461 C456 1.363 . S
C461 C460 1.415 . S
H462 C459 0.999 . S
H463 C444 0.913 . S
H464 C482 0.951 . S
H465 C484 0.951 . S
H466 C486 0.950 . S
H467 C487 0.950 . S
H468 C489 0.950 . S
H469 C492 0.950 . S
H470 C493 0.950 . S
H471 C495 0.950 . S
H472 C496 0.950 . S
H473 C497 0.951 . S
H474 C499 0.951 . S
H475 C501 0.950 . S
H476 C502 0.950 . S
H477 C504 0.950 . S
H478 C507 0.950 . S
H479 C508 0.950 . S
H480 C510 0.950 . S
H481 C511 0.950 . S
C482 H464 0.951 . S
C482 C483 1.366 . S
C482 C484 1.388 . S
C483 C482 1.366 . S
C483 C487 1.385 . S
C484 H465 0.951 . S
C484 C482 1.388 . S
C484 C485 1.366 . S
C485 C484 1.366 . S
C485 C486 1.414 . S
C485 C488 1.499 . S
C486 H466 0.950 . S
C486 C485 1.414 . S
C486 C487 1.374 . S
C487 H467 0.950 . S
C487 C483 1.385 . S
C487 C486 1.374 . S
C488 C485 1.499 . S
C488 C489 1.373 . S
C488 C490 1.389 . S
C489 H468 0.950 . S
C489 C488 1.373 . S
C489 C505 1.377 . S
C490 C488 1.389 . S
C490 C491 1.524 . S
C490 C504 1.377 . S
C491 C490 1.524 . S
C491 C492 1.397 . S
C491 C496 1.363 . S
C492 H469 0.950 . S
C492 C491 1.397 . S
C492 C493 1.334 . S
C493 H470 0.950 . S
C493 C492 1.334 . S
C493 C494 1.287 . S
C494 C493 1.287 . S
C494 C495 1.524 . S
C494 H513 0.913 . S
C495 H471 0.950 . S
C495 C494 1.524 . S
C495 C496 1.415 . S
C496 H472 0.950 . S
C496 C491 1.363 . S
C496 C495 1.415 . S
C497 H473 0.951 . S
C497 C498 1.366 . S
C497 C499 1.388 . S
C498 C497 1.366 . S
C498 C502 1.385 . S
C499 H474 0.951 . S
C499 C497 1.388 . S
C499 C500 1.366 . S
C500 C499 1.366 . S
C500 C501 1.414 . S
C500 C503 1.499 . S
C501 H475 0.950 . S
C501 C500 1.414 . S
C501 C502 1.374 . S
C502 H476 0.950 . S
C502 C498 1.385 . S
C502 C501 1.374 . S
C503 C500 1.499 . S
C503 C504 1.373 . S
C503 C505 1.389 . S
C504 H477 0.950 . S
C504 C490 1.377 . S
C504 C503 1.373 . S
C505 C489 1.377 . S
C505 C503 1.389 . S
C505 C506 1.524 . S
C506 C505 1.524 . S
C506 C507 1.397 . S
C506 C511 1.363 . S
C507 H478 0.950 . S
C507 C506 1.397 . S
C507 C508 1.334 . S
C508 H479 0.950 . S
C508 C507 1.334 . S
C508 C509 1.287 . S
C509 C508 1.287 . S
C509 C510 1.524 . S
C509 H512 0.999 . S
C510 H480 0.950 . S
C510 C509 1.524 . S
C510 C511 1.415 . S
C511 H481 0.950 . S
C511 C506 1.363 . S
C511 C510 1.415 . S
H512 C509 0.999 . S
H513 C494 0.913 . S
H514 C532 0.951 . S
H515 C534 0.951 . S
H516 C536 0.950 . S
H517 C537 0.950 . S
H518 C539 0.950 . S
H519 C542 0.950 . S
H520 C543 0.950 . S
H521 C545 0.950 . S
H522 C546 0.950 . S
H523 C547 0.951 . S
H524 C549 0.951 . S
H525 C551 0.950 . S
H526 C552 0.950 . S
H527 C554 0.950 . S
H528 C557 0.950 . S
H529 C558 0.950 . S
H530 C560 0.950 . S
H531 C561 0.950 . S
C532 H514 0.951 . S
C532 C533 1.366 . S
C532 C534 1.388 . S
C533 C532 1.366 . S
C533 C537 1.385 . S
C534 H515 0.951 . S
C534 C532 1.388 . S
C534 C535 1.366 . S
C535 C534 1.366 . S
C535 C536 1.414 . S
C535 C538 1.499 . S
C536 H516 0.950 . S
C536 C535 1.414 . S
C536 C537 1.374 . S
C537 H517 0.950 . S
C537 C533 1.385 . S
C537 C536 1.374 . S
C538 C535 1.499 . S
C538 C539 1.373 . S
C538 C540 1.389 . S
C539 H518 0.950 . S
C539 C538 1.373 . S
C539 C555 1.377 . S
C540 C538 1.389 . S
C540 C541 1.524 . S
C540 C554 1.377 . S
C541 C540 1.524 . S
C541 C542 1.397 . S
C541 C546 1.363 . S
C542 H519 0.950 . S
C542 C541 1.397 . S
C542 C543 1.334 . S
C543 H520 0.950 . S
C543 C542 1.334 . S
C543 C544 1.287 . S
C544 C543 1.287 . S
C544 C545 1.524 . S
C544 H563 0.913 . S
C545 H521 0.950 . S
C545 C544 1.524 . S
C545 C546 1.415 . S
C546 H522 0.950 . S
C546 C541 1.363 . S
C546 C545 1.415 . S
C547 H523 0.951 . S
C547 C548 1.366 . S
C547 C549 1.388 . S
C548 C547 1.366 . S
C548 C552 1.385 . S
C549 H524 0.951 . S
C549 C547 1.388 . S
C549 C550 1.366 . S
C550 C549 1.366 . S
C550 C551 1.414 . S
C550 C553 1.499 . S
C551 H525 0.950 . S
C551 C550 1.414 . S
C551 C552 1.374 . S
C552 H526 0.950 . S
C552 C548 1.385 . S
C552 C551 1.374 . S
C553 C550 1.499 . S
C553 C554 1.373 . S
C553 C555 1.389 . S
C554 H527 0.950 . S
C554 C540 1.377 . S
C554 C553 1.373 . S
C555 C539 1.377 . S
C555 C553 1.389 . S
C555 C556 1.524 . S
C556 C555 1.524 . S
C556 C557 1.397 . S
C556 C561 1.363 . S
C557 H528 0.950 . S
C557 C556 1.397 . S
C557 C558 1.334 . S
C558 H529 0.950 . S
C558 C557 1.334 . S
C558 C559 1.287 . S
C559 C558 1.287 . S
C559 C560 1.524 . S
C559 H562 0.999 . S
C560 H530 0.950 . S
C560 C559 1.524 . S
C560 C561 1.415 . S
C561 H531 0.950 . S
C561 C556 1.363 . S
C561 C560 1.415 . S
H562 C559 0.999 . S
H563 C544 0.913 . S
H564 C582 0.951 . S
H565 C584 0.951 . S
H566 C586 0.950 . S
H567 C587 0.950 . S
H568 C589 0.950 . S
H569 C592 0.950 . S
H570 C593 0.950 . S
H571 C595 0.950 . S
H572 C596 0.950 . S
H573 C597 0.951 . S
H574 C599 0.951 . S
H575 C601 0.950 . S
H576 C602 0.950 . S
H577 C604 0.950 . S
H578 C607 0.950 . S
H579 C608 0.950 . S
H580 C610 0.950 . S
H581 C611 0.950 . S
C582 H564 0.951 . S
C582 C583 1.366 . S
C582 C584 1.388 . S
C583 C582 1.366 . S
C583 C587 1.385 . S
C584 H565 0.951 . S
C584 C582 1.388 . S
C584 C585 1.366 . S
C585 C584 1.366 . S
C585 C586 1.414 . S
C585 C588 1.499 . S
C586 H566 0.950 . S
C586 C585 1.414 . S
C586 C587 1.374 . S
C587 H567 0.950 . S
C587 C583 1.385 . S
C587 C586 1.374 . S
C588 C585 1.499 . S
C588 C589 1.373 . S
C588 C590 1.389 . S
C589 H568 0.950 . S
C589 C588 1.373 . S
C589 C605 1.377 . S
C590 C588 1.389 . S
C590 C591 1.524 . S
C590 C604 1.377 . S
C591 C590 1.524 . S
C591 C592 1.397 . S
C591 C596 1.363 . S
C592 H569 0.950 . S
C592 C591 1.397 . S
C592 C593 1.334 . S
C593 H570 0.950 . S
C593 C592 1.334 . S
C593 C594 1.287 . S
C594 C593 1.287 . S
C594 C595 1.524 . S
C594 H613 0.913 . S
C595 H571 0.950 . S
C595 C594 1.524 . S
C595 C596 1.415 . S
C596 H572 0.950 . S
C596 C591 1.363 . S
C596 C595 1.415 . S
C597 H573 0.951 . S
C597 C598 1.366 . S
C597 C599 1.388 . S
C598 C597 1.366 . S
C598 C602 1.385 . S
C599 H574 0.951 . S
C599 C597 1.388 . S
C599 C600 1.366 . S
C600 C599 1.366 . S
C600 C601 1.414 . S
C600 C603 1.499 . S
C601 H575 0.950 . S
C601 C600 1.414 . S
C601 C602 1.374 . S
C602 H576 0.950 . S
C602 C598 1.385 . S
C602 C601 1.374 . S
C603 C600 1.499 . S
C603 C604 1.373 . S
C603 C605 1.389 . S
C604 H577 0.950 . S
C604 C590 1.377 . S
C604 C603 1.373 . S
C605 C589 1.377 . S
C605 C603 1.389 . S
C605 C606 1.524 . S
C606 C605 1.524 . S
C606 C607 1.397 . S
C606 C611 1.363 . S
C607 H578 0.950 . S
C607 C606 1.397 . S
C607 C608 1.334 . S
C608 H579 0.950 . S
C608 C607 1.334 . S
C608 C609 1.287 . S
C609 C608 1.287 . S
C609 C610 1.524 . S
C609 H612 0.999 . S
C610 H580 0.950 . S
C610 C609 1.524 . S
C610 C611 1.415 . S
C611 H581 0.950 . S
C611 C606 1.363 . S
C611 C610 1.415 . S
H612 C609 0.999 . S
H613 C594 0.913 . S
H614 C632 0.951 . S
H615 C634 0.951 . S
H616 C636 0.950 . S
H617 C637 0.950 . S
H618 C639 0.950 . S
H619 C642 0.950 . S
H620 C643 0.950 . S
H621 C645 0.950 . S
H622 C646 0.950 . S
H623 C647 0.951 . S
H624 C649 0.951 . S
H625 C651 0.950 . S
H626 C652 0.950 . S
H627 C654 0.950 . S
H628 C657 0.950 . S
H629 C658 0.950 . S
H630 C660 0.950 . S
H631 C661 0.950 . S
C632 H614 0.951 . S
C632 C633 1.366 . S
C632 C634 1.388 . S
C633 C632 1.366 . S
C633 C637 1.385 . S
C634 H615 0.951 . S
C634 C632 1.388 . S
C634 C635 1.366 . S
C635 C634 1.366 . S
C635 C636 1.414 . S
C635 C638 1.499 . S
C636 H616 0.950 . S
C636 C635 1.414 . S
C636 C637 1.374 . S
C637 H617 0.950 . S
C637 C633 1.385 . S
C637 C636 1.374 . S
C638 C635 1.499 . S
C638 C639 1.373 . S
C638 C640 1.389 . S
C639 H618 0.950 . S
C639 C638 1.373 . S
C639 C655 1.377 . S
C640 C638 1.389 . S
C640 C641 1.524 . S
C640 C654 1.377 . S
C641 C640 1.524 . S
C641 C642 1.397 . S
C641 C646 1.363 . S
C642 H619 0.950 . S
C642 C641 1.397 . S
C642 C643 1.334 . S
C643 H620 0.950 . S
C643 C642 1.334 . S
C643 C644 1.287 . S
C644 C643 1.287 . S
C644 C645 1.524 . S
C644 H663 0.913 . S
C645 H621 0.950 . S
C645 C644 1.524 . S
C645 C646 1.415 . S
C646 H622 0.950 . S
C646 C641 1.363 . S
C646 C645 1.415 . S
C647 H623 0.951 . S
C647 C648 1.366 . S
C647 C649 1.388 . S
C648 C647 1.366 . S
C648 C652 1.385 . S
C649 H624 0.951 . S
C649 C647 1.388 . S
C649 C650 1.366 . S
C650 C649 1.366 . S
C650 C651 1.414 . S
C650 C653 1.499 . S
C651 H625 0.950 . S
C651 C650 1.414 . S
C651 C652 1.374 . S
C652 H626 0.950 . S
C652 C648 1.385 . S
C652 C651 1.374 . S
C653 C650 1.499 . S
C653 C654 1.373 . S
C653 C655 1.389 . S
C654 H627 0.950 . S
C654 C640 1.377 . S
C654 C653 1.373 . S
C655 C639 1.377 . S
C655 C653 1.389 . S
C655 C656 1.524 . S
C656 C655 1.524 . S
C656 C657 1.397 . S
C656 C661 1.363 . S
C657 H628 0.950 . S
C657 C656 1.397 . S
C657 C658 1.334 . S
C658 H629 0.950 . S
C658 C657 1.334 . S
C658 C659 1.287 . S
C659 C658 1.287 . S
C659 C660 1.524 . S
C659 H662 0.999 . S
C660 H630 0.950 . S
C660 C659 1.524 . S
C660 C661 1.415 . S
C661 H631 0.950 . S
C661 C656 1.363 . S
C661 C660 1.415 . S
H662 C659 0.999 . S
H663 C644 0.913 . S
H664 C682 0.951 . S
H665 C684 0.951 . S
H666 C686 0.950 . S
H667 C687 0.950 . S
H668 C689 0.950 . S
H669 C692 0.950 . S
H670 C693 0.950 . S
H671 C695 0.950 . S
H672 C696 0.950 . S
H673 C697 0.951 . S
H674 C699 0.951 . S
H675 C701 0.950 . S
H676 C702 0.950 . S
H677 C704 0.950 . S
H678 C707 0.950 . S
H679 C708 0.950 . S
H680 C710 0.950 . S
H681 C711 0.950 . S
C682 H664 0.951 . S
C682 C683 1.366 . S
C682 C684 1.388 . S
C683 C682 1.366 . S
C683 C687 1.385 . S
C684 H665 0.951 . S
C684 C682 1.388 . S
C684 C685 1.366 . S
C685 C684 1.366 . S
C685 C686 1.414 . S
C685 C688 1.499 . S
C686 H666 0.950 . S
C686 C685 1.414 . S
C686 C687 1.374 . S
C687 H667 0.950 . S
C687 C683 1.385 . S
C687 C686 1.374 . S
C688 C685 1.499 . S
C688 C689 1.373 . S
C688 C690 1.389 . S
C689 H668 0.950 . S
C689 C688 1.373 . S
C689 C705 1.377 . S
C690 C688 1.389 . S
C690 C691 1.524 . S
C690 C704 1.377 . S
C691 C690 1.524 . S
C691 C692 1.397 . S
C691 C696 1.363 . S
C692 H669 0.950 . S
C692 C691 1.397 . S
C692 C693 1.334 . S
C693 H670 0.950 . S
C693 C692 1.334 . S
C693 C694 1.287 . S
C694 C693 1.287 . S
C694 C695 1.524 . S
C694 H713 0.913 . S
C695 H671 0.950 . S
C695 C694 1.524 . S
C695 C696 1.415 . S
C696 H672 0.950 . S
C696 C691 1.363 . S
C696 C695 1.415 . S
C697 H673 0.951 . S
C697 C698 1.366 . S
C697 C699 1.388 . S
C698 C697 1.366 . S
C698 C702 1.385 . S
C699 H674 0.951 . S
C699 C697 1.388 . S
C699 C700 1.366 . S
C700 C699 1.366 . S
C700 C701 1.414 . S
C700 C703 1.499 . S
C701 H675 0.950 . S
C701 C700 1.414 . S
C701 C702 1.374 . S
C702 H676 0.950 . S
C702 C698 1.385 . S
C702 C701 1.374 . S
C703 C700 1.499 . S
C703 C704 1.373 . S
C703 C705 1.389 . S
C704 H677 0.950 . S
C704 C690 1.377 . S
C704 C703 1.373 . S
C705 C689 1.377 . S
C705 C703 1.389 . S
C705 C706 1.524 . S
C706 C705 1.524 . S
C706 C707 1.397 . S
C706 C711 1.363 . S
C707 H678 0.950 . S
C707 C706 1.397 . S
C707 C708 1.334 . S
C708 H679 0.950 . S
C708 C707 1.334 . S
C708 C709 1.287 . S
C709 C708 1.287 . S
C709 C710 1.524 . S
C709 H712 0.999 . S
C710 H680 0.950 . S
C710 C709 1.524 . S
C710 C711 1.415 . S
C711 H681 0.950 . S
C711 C706 1.363 . S
C711 C710 1.415 . S
H712 C709 0.999 . S
H713 C694 0.913 . S
H714 C732 0.951 . S
H715 C734 0.951 . S
H716 C736 0.950 . S
H717 C737 0.950 . S
H718 C739 0.950 . S
H719 C742 0.950 . S
H720 C743 0.950 . S
H721 C745 0.950 . S
H722 C746 0.950 . S
H723 C747 0.951 . S
H724 C749 0.951 . S
H725 C751 0.950 . S
H726 C752 0.950 . S
H727 C754 0.950 . S
H728 C757 0.950 . S
H729 C758 0.950 . S
H730 C760 0.950 . S
H731 C761 0.950 . S
C732 H714 0.951 . S
C732 C733 1.366 . S
C732 C734 1.388 . S
C733 C732 1.366 . S
C733 C737 1.385 . S
C734 H715 0.951 . S
C734 C732 1.388 . S
C734 C735 1.366 . S
C735 C734 1.366 . S
C735 C736 1.414 . S
C735 C738 1.499 . S
C736 H716 0.950 . S
C736 C735 1.414 . S
C736 C737 1.374 . S
C737 H717 0.950 . S
C737 C733 1.385 . S
C737 C736 1.374 . S
C738 C735 1.499 . S
C738 C739 1.373 . S
C738 C740 1.389 . S
C739 H718 0.950 . S
C739 C738 1.373 . S
C739 C755 1.377 . S
C740 C738 1.389 . S
C740 C741 1.524 . S
C740 C754 1.377 . S
C741 C740 1.524 . S
C741 C742 1.397 . S
C741 C746 1.363 . S
C742 H719 0.950 . S
C742 C741 1.397 . S
C742 C743 1.334 . S
C743 H720 0.950 . S
C743 C742 1.334 . S
C743 C744 1.287 . S
C744 C743 1.287 . S
C744 C745 1.524 . S
C744 H763 0.913 . S
C745 H721 0.950 . S
C745 C744 1.524 . S
C745 C746 1.415 . S
C746 H722 0.950 . S
C746 C741 1.363 . S
C746 C745 1.415 . S
C747 H723 0.951 . S
C747 C748 1.366 . S
C747 C749 1.388 . S
C748 C747 1.366 . S
C748 C752 1.385 . S
C749 H724 0.951 . S
C749 C747 1.388 . S
C749 C750 1.366 . S
C750 C749 1.366 . S
C750 C751 1.414 . S
C750 C753 1.499 . S
C751 H725 0.950 . S
C751 C750 1.414 . S
C751 C752 1.374 . S
C752 H726 0.950 . S
C752 C748 1.385 . S
C752 C751 1.374 . S
C753 C750 1.499 . S
C753 C754 1.373 . S
C753 C755 1.389 . S
C754 H727 0.950 . S
C754 C740 1.377 . S
C754 C753 1.373 . S
C755 C739 1.377 . S
C755 C753 1.389 . S
C755 C756 1.524 . S
C756 C755 1.524 . S
C756 C757 1.397 . S
C756 C761 1.363 . S
C757 H728 0.950 . S
C757 C756 1.397 . S
C757 C758 1.334 . S
C758 H729 0.950 . S
C758 C757 1.334 . S
C758 C759 1.287 . S
C759 C758 1.287 . S
C759 C760 1.524 . S
C759 H762 0.999 . S
C760 H730 0.950 . S
C760 C759 1.524 . S
C760 C761 1.415 . S
C761 H731 0.950 . S
C761 C756 1.363 . S
C761 C760 1.415 . S
H762 C759 0.999 . S
H763 C744 0.913 . S
H764 C782 0.951 . S
H765 C784 0.951 . S
H766 C786 0.950 . S
H767 C787 0.950 . S
H768 C789 0.950 . S
H769 C792 0.950 . S
H770 C793 0.950 . S
H771 C795 0.950 . S
H772 C796 0.950 . S
H773 C797 0.951 . S
H774 C799 0.951 . S
H775 C801 0.950 . S
H776 C802 0.950 . S
H777 C804 0.950 . S
H778 C807 0.950 . S
H779 C808 0.950 . S
H780 C810 0.950 . S
H781 C811 0.950 . S
C782 H764 0.951 . S
C782 C783 1.366 . S
C782 C784 1.388 . S
C783 C782 1.366 . S
C783 C787 1.385 . S
C784 H765 0.951 . S
C784 C782 1.388 . S
C784 C785 1.366 . S
C785 C784 1.366 . S
C785 C786 1.414 . S
C785 C788 1.499 . S
C786 H766 0.950 . S
C786 C785 1.414 . S
C786 C787 1.374 . S
C787 H767 0.950 . S
C787 C783 1.385 . S
C787 C786 1.374 . S
C788 C785 1.499 . S
C788 C789 1.373 . S
C788 C790 1.389 . S
C789 H768 0.950 . S
C789 C788 1.373 . S
C789 C805 1.377 . S
C790 C788 1.389 . S
C790 C791 1.524 . S
C790 C804 1.377 . S
C791 C790 1.524 . S
C791 C792 1.397 . S
C791 C796 1.363 . S
C792 H769 0.950 . S
C792 C791 1.397 . S
C792 C793 1.334 . S
C793 H770 0.950 . S
C793 C792 1.334 . S
C793 C794 1.287 . S
C794 C793 1.287 . S
C794 C795 1.524 . S
C794 H813 0.913 . S
C795 H771 0.950 . S
C795 C794 1.524 . S
C795 C796 1.415 . S
C796 H772 0.950 . S
C796 C791 1.363 . S
C796 C795 1.415 . S
C797 H773 0.951 . S
C797 C798 1.366 . S
C797 C799 1.388 . S
C798 C797 1.366 . S
C798 C802 1.385 . S
C799 H774 0.951 . S
C799 C797 1.388 . S
C799 C800 1.366 . S
C800 C799 1.366 . S
C800 C801 1.414 . S
C800 C803 1.499 . S
C801 H775 0.950 . S
C801 C800 1.414 . S
C801 C802 1.374 . S
C802 H776 0.950 . S
C802 C798 1.385 . S
C802 C801 1.374 . S
C803 C800 1.499 . S
C803 C804 1.373 . S
C803 C805 1.389 . S
C804 H777 0.950 . S
C804 C790 1.377 . S
C804 C803 1.373 . S
C805 C789 1.377 . S
C805 C803 1.389 . S
C805 C806 1.524 . S
C806 C805 1.524 . S
C806 C807 1.397 . S
C806 C811 1.363 . S
C807 H778 0.950 . S
C807 C806 1.397 . S
C807 C808 1.334 . S
C808 H779 0.950 . S
C808 C807 1.334 . S
C808 C809 1.287 . S
C809 C808 1.287 . S
C809 C810 1.524 . S
C809 H812 0.999 . S
C810 H780 0.950 . S
C810 C809 1.524 . S
C810 C811 1.415 . S
C811 H781 0.950 . S
C811 C806 1.363 . S
C811 C810 1.415 . S
H812 C809 0.999 . S
H813 C794 0.913 . S
H814 C832 0.951 . S
H815 C834 0.951 . S
H816 C836 0.950 . S
H817 C837 0.950 . S
H818 C839 0.950 . S
H819 C842 0.950 . S
H820 C843 0.950 . S
H821 C845 0.950 . S
H822 C846 0.950 . S
H823 C847 0.951 . S
H824 C849 0.951 . S
H825 C851 0.950 . S
H826 C852 0.950 . S
H827 C854 0.950 . S
H828 C857 0.950 . S
H829 C858 0.950 . S
H830 C860 0.950 . S
H831 C861 0.950 . S
C832 H814 0.951 . S
C832 C833 1.366 . S
C832 C834 1.388 . S
C833 C832 1.366 . S
C833 C837 1.385 . S
C834 H815 0.951 . S
C834 C832 1.388 . S
C834 C835 1.366 . S
C835 C834 1.366 . S
C835 C836 1.414 . S
C835 C838 1.499 . S
C836 H816 0.950 . S
C836 C835 1.414 . S
C836 C837 1.374 . S
C837 H817 0.950 . S
C837 C833 1.385 . S
C837 C836 1.374 . S
C838 C835 1.499 . S
C838 C839 1.373 . S
C838 C840 1.389 . S
C839 H818 0.950 . S
C839 C838 1.373 . S
C839 C855 1.377 . S
C840 C838 1.389 . S
C840 C841 1.524 . S
C840 C854 1.377 . S
C841 C840 1.524 . S
C841 C842 1.397 . S
C841 C846 1.363 . S
C842 H819 0.950 . S
C842 C841 1.397 . S
C842 C843 1.334 . S
C843 H820 0.950 . S
C843 C842 1.334 . S
C843 C844 1.287 . S
C844 C843 1.287 . S
C844 C845 1.524 . S
C844 H863 0.913 . S
C845 H821 0.950 . S
C845 C844 1.524 . S
C845 C846 1.415 . S
C846 H822 0.950 . S
C846 C841 1.363 . S
C846 C845 1.415 . S
C847 H823 0.951 . S
C847 C848 1.366 . S
C847 C849 1.388 . S
C848 C847 1.366 . S
C848 C852 1.385 . S
C849 H824 0.951 . S
C849 C847 1.388 . S
C849 C850 1.366 . S
C850 C849 1.366 . S
C850 C851 1.414 . S
C850 C853 1.499 . S
C851 H825 0.950 . S
C851 C850 1.414 . S
C851 C852 1.374 . S
C852 H826 0.950 . S
C852 C848 1.385 . S
C852 C851 1.374 . S
C853 C850 1.499 . S
C853 C854 1.373 . S
C853 C855 1.389 . S
C854 H827 0.950 . S
C854 C840 1.377 . S
C854 C853 1.373 . S
C855 C839 1.377 . S
C855 C853 1.389 . S
C855 C856 1.524 . S
C856 C855 1.524 . S
C856 C857 1.397 . S
C856 C861 1.363 . S
C857 H828 0.950 . S
C857 C856 1.397 . S
C857 C858 1.334 . S
C858 H829 0.950 . S
C858 C857 1.334 . S
C858 C859 1.287 . S
C859 C858 1.287 . S
C859 C860 1.524 . S
C859 H862 0.999 . S
C860 H830 0.950 . S
C860 C859 1.524 . S
C860 C861 1.415 . S
C861 H831 0.950 . S
C861 C856 1.363 . S
C861 C860 1.415 . S
H862 C859 0.999 . S
H863 C844 0.913 . S
H864 C882 0.951 . S
H865 C884 0.951 . S
H866 C886 0.950 . S
H867 C887 0.950 . S
H868 C889 0.950 . S
H869 C892 0.950 . S
H870 C893 0.950 . S
H871 C895 0.950 . S
H872 C896 0.950 . S
H873 C897 0.951 . S
H874 C899 0.951 . S
H875 C901 0.950 . S
H876 C902 0.950 . S
H877 C904 0.950 . S
H878 C907 0.950 . S
H879 C908 0.950 . S
H880 C910 0.950 . S
H881 C911 0.950 . S
C882 H864 0.951 . S
C882 C883 1.366 . S
C882 C884 1.388 . S
C883 C882 1.366 . S
C883 C887 1.385 . S
C884 H865 0.951 . S
C884 C882 1.388 . S
C884 C885 1.366 . S
C885 C884 1.366 . S
C885 C886 1.414 . S
C885 C888 1.499 . S
C886 H866 0.950 . S
C886 C885 1.414 . S
C886 C887 1.374 . S
C887 H867 0.950 . S
C887 C883 1.385 . S
C887 C886 1.374 . S
C888 C885 1.499 . S
C888 C889 1.373 . S
C888 C890 1.389 . S
C889 H868 0.950 . S
C889 C888 1.373 . S
C889 C905 1.377 . S
C890 C888 1.389 . S
C890 C891 1.524 . S
C890 C904 1.377 . S
C891 C890 1.524 . S
C891 C892 1.397 . S
C891 C896 1.363 . S
C892 H869 0.950 . S
C892 C891 1.397 . S
C892 C893 1.334 . S
C893 H870 0.950 . S
C893 C892 1.334 . S
C893 C894 1.287 . S
C894 C893 1.287 . S
C894 C895 1.524 . S
C894 H913 0.913 . S
C895 H871 0.950 . S
C895 C894 1.524 . S
C895 C896 1.415 . S
C896 H872 0.950 . S
C896 C891 1.363 . S
C896 C895 1.415 . S
C897 H873 0.951 . S
C897 C898 1.366 . S
C897 C899 1.388 . S
C898 C897 1.366 . S
C898 C902 1.385 . S
C899 H874 0.951 . S
C899 C897 1.388 . S
C899 C900 1.366 . S
C900 C899 1.366 . S
C900 C901 1.414 . S
C900 C903 1.499 . S
C901 H875 0.950 . S
C901 C900 1.414 . S
C901 C902 1.374 . S
C902 H876 0.950 . S
C902 C898 1.385 . S
C902 C901 1.374 . S
C903 C900 1.499 . S
C903 C904 1.373 . S
C903 C905 1.389 . S
C904 H877 0.950 . S
C904 C890 1.377 . S
C904 C903 1.373 . S
C905 C889 1.377 . S
C905 C903 1.389 . S
C905 C906 1.524 . S
C906 C905 1.524 . S
C906 C907 1.397 . S
C906 C911 1.363 . S
C907 H878 0.950 . S
C907 C906 1.397 . S
C907 C908 1.334 . S
C908 H879 0.950 . S
C908 C907 1.334 . S
C908 C909 1.287 . S
C909 C908 1.287 . S
C909 C910 1.524 . S
C909 H912 0.999 1_545 S
C910 H880 0.950 . S
C910 C909 1.524 . S
C910 C911 1.415 . S
C911 H881 0.950 . S
C911 C906 1.363 . S
C911 C910 1.415 . S
H912 C909 0.999 1_565 S
H913 C894 0.913 . S
H914 C932 0.951 . S
H915 C934 0.951 . S
H916 C936 0.950 . S
H917 C937 0.950 . S
H918 C939 0.950 . S
H919 C942 0.950 . S
H920 C943 0.950 . S
H921 C945 0.950 . S
H922 C946 0.950 . S
H923 C947 0.951 . S
H924 C949 0.951 . S
H925 C951 0.950 . S
H926 C952 0.950 . S
H927 C954 0.950 . S
H928 C957 0.950 . S
H929 C958 0.950 . S
H930 C960 0.950 . S
H931 C961 0.950 . S
C932 H914 0.951 . S
C932 C933 1.366 . S
C932 C934 1.388 . S
C933 C932 1.366 . S
C933 C937 1.385 . S
C934 H915 0.951 . S
C934 C932 1.388 . S
C934 C935 1.366 . S
C935 C934 1.366 . S
C935 C936 1.414 . S
C935 C938 1.499 . S
C936 H916 0.950 . S
C936 C935 1.414 . S
C936 C937 1.374 . S
C937 H917 0.950 . S
C937 C933 1.385 . S
C937 C936 1.374 . S
C938 C935 1.499 . S
C938 C939 1.373 . S
C938 C940 1.389 1_554 S
C939 H918 0.950 . S
C939 C938 1.373 . S
C939 C955 1.377 . S
C940 C938 1.389 1_556 S
C940 C941 1.524 . S
C940 C954 1.377 . S
C941 C940 1.524 . S
C941 C942 1.397 1_556 S
C941 C946 1.363 . S
C942 H919 0.950 . S
C942 C941 1.397 1_554 S
C942 C943 1.334 . S
C943 H920 0.950 . S
C943 C942 1.334 . S
C943 C944 1.287 1_554 S
C944 C943 1.287 1_556 S
C944 C945 1.524 . S
C944 H963 0.913 . S
C945 H921 0.950 . S
C945 C944 1.524 . S
C945 C946 1.415 . S
C946 H922 0.950 . S
C946 C941 1.363 . S
C946 C945 1.415 . S
C947 H923 0.951 . S
C947 C948 1.366 . S
C947 C949 1.388 . S
C948 C947 1.366 . S
C948 C952 1.385 . S
C949 H924 0.951 . S
C949 C947 1.388 . S
C949 C950 1.366 . S
C950 C949 1.366 . S
C950 C951 1.414 . S
C950 C953 1.499 . S
C951 H925 0.950 . S
C951 C950 1.414 . S
C951 C952 1.374 . S
C952 H926 0.950 . S
C952 C948 1.385 . S
C952 C951 1.374 . S
C953 C950 1.499 . S
C953 C954 1.373 . S
C953 C955 1.389 1_556 S
C954 H927 0.950 . S
C954 C940 1.377 . S
C954 C953 1.373 . S
C955 C939 1.377 . S
C955 C953 1.389 1_554 S
C955 C956 1.524 . S
C956 C955 1.524 . S
C956 C957 1.397 1_554 S
C956 C961 1.363 . S
C957 H928 0.950 . S
C957 C956 1.397 1_556 S
C957 C958 1.334 . S
C958 H929 0.950 . S
C958 C957 1.334 . S
C958 C959 1.287 1_556 S
C959 C958 1.287 1_554 S
C959 C960 1.524 . S
C959 H962 0.999 . S
C960 H930 0.950 . S
C960 C959 1.524 . S
C960 C961 1.415 . S
C961 H931 0.950 . S
C961 C956 1.363 . S
C961 C960 1.415 . S
H962 C959 0.999 . S
H963 C944 0.913 . S
H964 C982 0.951 . S
H965 C984 0.951 . S
H966 C986 0.950 . S
H967 C987 0.950 . S
H968 C989 0.950 . S
H969 C992 0.950 . S
H970 C993 0.950 . S
H971 C995 0.950 . S
H972 C996 0.950 . S
H973 C997 0.951 . S
H974 C999 0.951 . S
H975 C1001 0.950 . S
H976 C1002 0.950 . S
H977 C1004 0.950 . S
H978 C1007 0.950 . S
H979 C1008 0.950 . S
H980 C1010 0.950 . S
H981 C1011 0.950 . S
C982 H964 0.951 . S
C982 C983 1.366 . S
C982 C984 1.388 . S
C983 C982 1.366 . S
C983 C987 1.385 . S
C984 H965 0.951 . S
C984 C982 1.388 . S
C984 C985 1.366 . S
C985 C984 1.366 . S
C985 C986 1.414 . S
C985 C988 1.499 . S
C986 H966 0.950 . S
C986 C985 1.414 . S
C986 C987 1.374 . S
C987 H967 0.950 . S
C987 C983 1.385 . S
C987 C986 1.374 . S
C988 C985 1.499 . S
C988 C989 1.373 . S
C988 C990 1.389 . S
C989 H968 0.950 . S
C989 C988 1.373 . S
C989 C1005 1.377 . S
C990 C988 1.389 . S
C990 C991 1.524 . S
C990 C1004 1.377 . S
C991 C990 1.524 . S
C991 C992 1.397 . S
C991 C996 1.363 . S
C992 H969 0.950 . S
C992 C991 1.397 . S
C992 C993 1.334 . S
C993 H970 0.950 . S
C993 C992 1.334 . S
C993 C994 1.287 . S
C994 C993 1.287 . S
C994 C995 1.524 . S
C994 H1013 0.913 . S
C995 H971 0.950 . S
C995 C994 1.524 . S
C995 C996 1.415 . S
C996 H972 0.950 . S
C996 C991 1.363 . S
C996 C995 1.415 . S
C997 H973 0.951 . S
C997 C998 1.366 . S
C997 C999 1.388 . S
C998 C997 1.366 . S
C998 C1002 1.385 . S
C999 H974 0.951 . S
C999 C997 1.388 . S
C999 C1000 1.366 . S
C1000 C999 1.366 . S
C1000 C1001 1.414 . S
C1000 C1003 1.499 . S
C1001 H975 0.950 . S
C1001 C1000 1.414 . S
C1001 C1002 1.374 . S
C1002 H976 0.950 . S
C1002 C998 1.385 . S
C1002 C1001 1.374 . S
C1003 C1000 1.499 . S
C1003 C1004 1.373 . S
C1003 C1005 1.389 . S
C1004 H977 0.950 . S
C1004 C990 1.377 . S
C1004 C1003 1.373 . S
C1005 C989 1.377 . S
C1005 C1003 1.389 . S
C1005 C1006 1.524 . S
C1006 C1005 1.524 . S
C1006 C1007 1.397 . S
C1006 C1011 1.363 . S
C1007 H978 0.950 . S
C1007 C1006 1.397 . S
C1007 C1008 1.334 . S
C1008 H979 0.950 . S
C1008 C1007 1.334 . S
C1008 C1009 1.287 . S
C1009 C1008 1.287 . S
C1009 C1010 1.524 . S
C1009 H1012 0.999 . S
C1010 H980 0.950 . S
C1010 C1009 1.524 . S
C1010 C1011 1.415 . S
C1011 H981 0.950 . S
C1011 C1006 1.363 . S
C1011 C1010 1.415 . S
H1012 C1009 0.999 . S
H1013 C994 0.913 . S
H1014 C1032 0.951 . S
H1015 C1034 0.951 . S
H1016 C1036 0.950 . S
H1017 C1037 0.950 . S
H1018 C1039 0.950 . S
H1019 C1042 0.946 1_554 S
H1020 C1043 0.950 1_554 S
H1021 C1045 0.950 . S
H1022 C1046 0.950 . S
H1023 C1047 0.951 . S
H1024 C1049 0.951 . S
H1025 C1051 0.950 . S
H1026 C1052 0.950 . S
H1027 C1054 0.950 . S
H1028 C1057 0.946 1_556 S
H1029 C1058 0.950 1_556 S
H1030 C1060 0.950 . S
H1031 C1061 0.950 . S
C1032 H1014 0.951 . S
C1032 C1033 1.366 . S
C1032 C1034 1.388 . S
C1033 C1032 1.366 . S
C1033 C1037 1.385 . S
C1034 H1015 0.951 . S
C1034 C1032 1.388 . S
C1034 C1035 1.366 . S
C1035 C1034 1.366 . S
C1035 C1036 1.414 . S
C1035 C1038 1.499 . S
C1036 H1016 0.950 . S
C1036 C1035 1.414 . S
C1036 C1037 1.374 . S
C1037 H1017 0.950 . S
C1037 C1033 1.385 . S
C1037 C1036 1.374 . S
C1038 C1035 1.499 . S
C1038 C1039 1.373 . S
C1038 C1040 1.389 1_554 S
C1039 H1018 0.950 . S
C1039 C1038 1.373 . S
C1039 C1055 1.377 . S
C1040 C1038 1.389 1_556 S
C1040 C1041 1.524 . S
C1040 C1054 1.377 . S
C1041 C1040 1.524 . S
C1041 C1042 1.399 . S
C1041 C1046 1.363 . S
C1042 H1019 0.946 1_556 S
C1042 C1041 1.399 . S
C1042 C1043 1.335 . S
C1043 H1020 0.950 1_556 S
C1043 C1042 1.335 . S
C1043 C1044 1.287 . S
C1044 C1043 1.287 . S
C1044 C1045 1.524 . S
C1044 H1063 0.913 . S
C1045 H1021 0.950 . S
C1045 C1044 1.524 . S
C1045 C1046 1.415 . S
C1046 H1022 0.950 . S
C1046 C1041 1.363 . S
C1046 C1045 1.415 . S
C1047 H1023 0.951 . S
C1047 C1048 1.366 . S
C1047 C1049 1.388 . S
C1048 C1047 1.366 . S
C1048 C1052 1.385 . S
C1049 H1024 0.951 . S
C1049 C1047 1.388 . S
C1049 C1050 1.366 . S
C1050 C1049 1.366 . S
C1050 C1051 1.414 . S
C1050 C1053 1.499 . S
C1051 H1025 0.950 . S
C1051 C1050 1.414 . S
C1051 C1052 1.374 . S
C1052 H1026 0.950 . S
C1052 C1048 1.385 . S
C1052 C1051 1.374 . S
C1053 C1050 1.499 . S
C1053 C1054 1.373 . S
C1053 C1055 1.389 1_556 S
C1054 H1027 0.950 . S
C1054 C1040 1.377 . S
C1054 C1053 1.373 . S
C1055 C1039 1.377 . S
C1055 C1053 1.389 1_554 S
C1055 C1056 1.524 . S
C1056 C1055 1.524 . S
C1056 C1057 1.399 . S
C1056 C1061 1.363 . S
C1057 H1028 0.946 1_554 S
C1057 C1056 1.399 . S
C1057 C1058 1.335 . S
C1058 H1029 0.950 1_554 S
C1058 C1057 1.335 . S
C1058 C1059 1.287 . S
C1059 C1058 1.287 . S
C1059 C1060 1.524 . S
C1059 H1062 0.999 . S
C1060 H1030 0.950 . S
C1060 C1059 1.524 . S
C1060 C1061 1.415 . S
C1061 H1031 0.950 . S
C1061 C1056 1.363 . S
C1061 C1060 1.415 . S
H1062 C1059 0.999 . S
H1063 C1044 0.913 . S
H1064 C1082 0.951 . S
H1065 C1084 0.951 . S
H1066 C1086 0.950 . S
H1067 C1087 0.950 . S
H1068 C1089 0.950 . S
H1069 C1092 0.950 . S
H1070 C1093 0.950 . S
H1071 C1095 0.950 . S
H1072 C1096 0.950 . S
H1073 C1097 0.951 . S
H1074 C1099 0.951 . S
H1075 C1101 0.950 . S
H1076 C1102 0.950 . S
H1077 C1104 0.950 . S
H1078 C1107 0.950 . S
H1079 C1108 0.950 . S
H1080 C1110 0.950 . S
H1081 C1111 0.950 . S
C1082 H1064 0.951 . S
C1082 C1083 1.366 . S
C1082 C1084 1.388 . S
C1083 C1082 1.366 . S
C1083 C1087 1.385 . S
C1084 H1065 0.951 . S
C1084 C1082 1.388 . S
C1084 C1085 1.366 . S
C1085 C1084 1.366 . S
C1085 C1086 1.414 . S
C1085 C1088 1.499 . S
C1086 H1066 0.950 . S
C1086 C1085 1.414 . S
C1086 C1087 1.374 . S
C1087 H1067 0.950 . S
C1087 C1083 1.385 . S
C1087 C1086 1.374 . S
C1088 C1085 1.499 . S
C1088 C1089 1.373 1_655 S
C1088 C1090 1.389 . S
C1089 H1068 0.950 . S
C1089 C1088 1.373 1_455 S
C1089 C1105 1.377 1_565 S
C1090 C1088 1.389 . S
C1090 C1091 1.524 1_565 S
C1090 C1104 1.377 1_565 S
C1091 C1090 1.524 1_545 S
C1091 C1092 1.388 1_545 S
C1091 C1096 1.374 . S
C1092 H1069 0.950 . S
C1092 C1091 1.388 1_565 S
C1092 C1093 1.334 . S
C1093 H1070 0.950 . S
C1093 C1092 1.334 . S
C1093 C1094 1.287 1_565 S
C1094 C1093 1.287 1_545 S
C1094 C1095 1.524 . S
C1094 H1113 0.913 . S
C1095 H1071 0.950 . S
C1095 C1094 1.524 . S
C1095 C1096 1.415 . S
C1096 H1072 0.950 . S
C1096 C1091 1.374 . S
C1096 C1095 1.415 . S
C1097 H1073 0.951 . S
C1097 C1098 1.366 . S
C1097 C1099 1.388 . S
C1098 C1097 1.366 . S
C1098 C1102 1.385 . S
C1099 H1074 0.951 . S
C1099 C1097 1.388 . S
C1099 C1100 1.366 . S
C1100 C1099 1.366 . S
C1100 C1101 1.414 . S
C1100 C1103 1.499 . S
C1101 H1075 0.950 . S
C1101 C1100 1.414 . S
C1101 C1102 1.374 . S
C1102 H1076 0.950 . S
C1102 C1098 1.385 . S
C1102 C1101 1.374 . S
C1103 C1100 1.499 . S
C1103 C1104 1.373 1_455 S
C1103 C1105 1.389 . S
C1104 H1077 0.950 . S
C1104 C1090 1.377 1_545 S
C1104 C1103 1.373 1_655 S
C1105 C1089 1.377 1_545 S
C1105 C1103 1.389 . S
C1105 C1106 1.524 1_545 S
C1106 C1105 1.524 1_565 S
C1106 C1107 1.388 1_565 S
C1106 C1111 1.374 . S
C1107 H1078 0.950 . S
C1107 C1106 1.388 1_545 S
C1107 C1108 1.334 . S
C1108 H1079 0.950 . S
C1108 C1107 1.334 . S
C1108 C1109 1.287 1_545 S
C1109 C1108 1.287 1_565 S
C1109 C1110 1.524 . S
C1109 H1112 0.999 . S
C1110 H1080 0.950 . S
C1110 C1109 1.524 . S
C1110 C1111 1.415 . S
C1111 H1081 0.950 . S
C1111 C1106 1.374 . S
C1111 C1110 1.415 . S
H1112 C1109 0.999 . S
H1113 C1094 0.913 . S
H1114 C1132 0.951 . S
H1115 C1134 0.951 . S
H1116 C1136 0.950 . S
H1117 C1137 0.950 . S
H1118 C1139 0.950 . S
H1119 C1142 0.950 . S
H1120 C1143 0.950 . S
H1121 C1145 0.950 . S
H1122 C1146 0.950 . S
H1123 C1147 0.951 . S
H1124 C1149 0.951 . S
H1125 C1151 0.950 . S
H1126 C1152 0.950 . S
H1127 C1154 0.950 . S
H1128 C1157 0.950 . S
H1129 C1158 0.950 . S
H1130 C1160 0.950 . S
H1131 C1161 0.950 . S
C1132 H1114 0.951 . S
C1132 C1133 1.366 . S
C1132 C1134 1.388 . S
C1133 C1132 1.366 . S
C1133 C1137 1.385 . S
C1134 H1115 0.951 . S
C1134 C1132 1.388 . S
C1134 C1135 1.366 . S
C1135 C1134 1.366 . S
C1135 C1136 1.414 . S
C1135 C1138 1.499 . S
C1136 H1116 0.950 . S
C1136 C1135 1.414 . S
C1136 C1137 1.374 . S
C1137 H1117 0.950 . S
C1137 C1133 1.385 . S
C1137 C1136 1.374 . S
C1138 C1135 1.499 . S
C1138 C1139 1.373 . S
C1138 C1140 1.389 . S
C1139 H1118 0.950 . S
C1139 C1138 1.373 . S
C1139 C1155 1.377 . S
C1140 C1138 1.389 . S
C1140 C1141 1.524 . S
C1140 C1154 1.377 . S
C1141 C1140 1.524 . S
C1141 C1142 1.397 . S
C1141 C1146 1.363 . S
C1142 H1119 0.950 . S
C1142 C1141 1.397 . S
C1142 C1143 1.334 . S
C1143 H1120 0.950 . S
C1143 C1142 1.334 . S
C1143 C1144 1.287 . S
C1144 C1143 1.287 . S
C1144 C1145 1.524 . S
C1144 H1163 0.913 . S
C1145 H1121 0.950 . S
C1145 C1144 1.524 . S
C1145 C1146 1.415 . S
C1146 H1122 0.950 . S
C1146 C1141 1.363 . S
C1146 C1145 1.415 . S
C1147 H1123 0.951 . S
C1147 C1148 1.366 . S
C1147 C1149 1.388 . S
C1148 C1147 1.366 . S
C1148 C1152 1.385 . S
C1149 H1124 0.951 . S
C1149 C1147 1.388 . S
C1149 C1150 1.366 . S
C1150 C1149 1.366 . S
C1150 C1151 1.414 . S
C1150 C1153 1.499 . S
C1151 H1125 0.950 . S
C1151 C1150 1.414 . S
C1151 C1152 1.374 . S
C1152 H1126 0.950 . S
C1152 C1148 1.385 . S
C1152 C1151 1.374 . S
C1153 C1150 1.499 . S
C1153 C1154 1.373 . S
C1153 C1155 1.389 . S
C1154 H1127 0.950 . S
C1154 C1140 1.377 . S
C1154 C1153 1.373 . S
C1155 C1139 1.377 . S
C1155 C1153 1.389 . S
C1155 C1156 1.524 . S
C1156 C1155 1.524 . S
C1156 C1157 1.397 . S
C1156 C1161 1.363 . S
C1157 H1128 0.950 . S
C1157 C1156 1.397 . S
C1157 C1158 1.334 . S
C1158 H1129 0.950 . S
C1158 C1157 1.334 . S
C1158 C1159 1.287 . S
C1159 C1158 1.287 . S
C1159 C1160 1.524 . S
C1159 H1162 0.999 . S
C1160 H1130 0.950 . S
C1160 C1159 1.524 . S
C1160 C1161 1.415 . S
C1161 H1131 0.950 . S
C1161 C1156 1.363 . S
C1161 C1160 1.415 . S
H1162 C1159 0.999 . S
H1163 C1144 0.913 . S
H1164 C1182 0.951 . S
H1165 C1184 0.951 . S
H1166 C1186 0.950 . S
H1167 C1187 0.950 . S
H1168 C1189 0.950 . S
H1169 C1192 0.950 . S
H1170 C1193 0.950 . S
H1171 C1195 0.950 . S
H1172 C1196 0.950 . S
H1173 C1197 0.951 . S
H1174 C1199 0.951 . S
H1175 C1201 0.950 . S
H1176 C1202 0.950 . S
H1177 C1204 0.950 . S
H1178 C1207 0.950 . S
H1179 C1208 0.950 . S
H1180 C1210 0.950 . S
H1181 C1211 0.950 . S
C1182 H1164 0.951 . S
C1182 C1183 1.366 . S
C1182 C1184 1.388 . S
C1183 C1182 1.366 . S
C1183 C1187 1.385 . S
C1184 H1165 0.951 . S
C1184 C1182 1.388 . S
C1184 C1185 1.366 . S
C1185 C1184 1.366 . S
C1185 C1186 1.414 . S
C1185 C1188 1.499 . S
C1186 H1166 0.950 . S
C1186 C1185 1.414 . S
C1186 C1187 1.374 . S
C1187 H1167 0.950 . S
C1187 C1183 1.385 . S
C1187 C1186 1.374 . S
C1188 C1185 1.499 . S
C1188 C1189 1.373 . S
C1188 C1190 1.389 . S
C1189 H1168 0.950 . S
C1189 C1188 1.373 . S
C1189 C1205 1.377 . S
C1190 C1188 1.389 . S
C1190 C1191 1.524 . S
C1190 C1204 1.377 . S
C1191 C1190 1.524 . S
C1191 C1192 1.397 . S
C1191 C1196 1.363 . S
C1192 H1169 0.950 . S
C1192 C1191 1.397 . S
C1192 C1193 1.334 . S
C1193 H1170 0.950 . S
C1193 C1192 1.334 . S
C1193 C1194 1.287 . S
C1194 C1193 1.287 . S
C1194 C1195 1.524 . S
C1194 H1213 0.913 . S
C1195 H1171 0.950 . S
C1195 C1194 1.524 . S
C1195 C1196 1.415 . S
C1196 H1172 0.950 . S
C1196 C1191 1.363 . S
C1196 C1195 1.415 . S
C1197 H1173 0.951 . S
C1197 C1198 1.366 . S
C1197 C1199 1.388 . S
C1198 C1197 1.366 . S
C1198 C1202 1.385 . S
C1199 H1174 0.951 . S
C1199 C1197 1.388 . S
C1199 C1200 1.366 . S
C1200 C1199 1.366 . S
C1200 C1201 1.414 . S
C1200 C1203 1.499 . S
C1201 H1175 0.950 . S
C1201 C1200 1.414 . S
C1201 C1202 1.374 . S
C1202 H1176 0.950 . S
C1202 C1198 1.385 . S
C1202 C1201 1.374 . S
C1203 C1200 1.499 . S
C1203 C1204 1.373 . S
C1203 C1205 1.389 . S
C1204 H1177 0.950 . S
C1204 C1190 1.377 . S
C1204 C1203 1.373 . S
C1205 C1189 1.377 . S
C1205 C1203 1.389 . S
C1205 C1206 1.524 . S
C1206 C1205 1.524 . S
C1206 C1207 1.397 . S
C1206 C1211 1.363 . S
C1207 H1178 0.950 . S
C1207 C1206 1.397 . S
C1207 C1208 1.334 . S
C1208 H1179 0.950 . S
C1208 C1207 1.334 . S
C1208 C1209 1.287 . S
C1209 C1208 1.287 . S
C1209 C1210 1.524 . S
C1209 H1212 0.999 . S
C1210 H1180 0.950 . S
C1210 C1209 1.524 . S
C1210 C1211 1.415 . S
C1211 H1181 0.950 . S
C1211 C1206 1.363 . S
C1211 C1210 1.415 . S
H1212 C1209 0.999 . S
H1213 C1194 0.913 . S
H1214 C1232 0.951 . S
H1215 C1234 0.951 . S
H1216 C1236 0.950 . S
H1217 C1237 0.950 . S
H1218 C1239 0.950 . S
H1219 C1242 0.950 . S
H1220 C1243 0.950 . S
H1221 C1245 0.950 . S
H1222 C1246 0.950 . S
H1223 C1247 0.951 . S
H1224 C1249 0.951 . S
H1225 C1251 0.950 . S
H1226 C1252 0.950 . S
H1227 C1254 0.950 . S
H1228 C1257 0.950 . S
H1229 C1258 0.950 . S
H1230 C1260 0.950 . S
H1231 C1261 0.950 . S
C1232 H1214 0.951 . S
C1232 C1233 1.366 . S
C1232 C1234 1.388 . S
C1233 C1232 1.366 . S
C1233 C1237 1.385 . S
C1234 H1215 0.951 . S
C1234 C1232 1.388 . S
C1234 C1235 1.366 . S
C1235 C1234 1.366 . S
C1235 C1236 1.414 . S
C1235 C1238 1.499 . S
C1236 H1216 0.950 . S
C1236 C1235 1.414 . S
C1236 C1237 1.374 . S
C1237 H1217 0.950 . S
C1237 C1233 1.385 . S
C1237 C1236 1.374 . S
C1238 C1235 1.499 . S
C1238 C1239 1.373 1_545 S
C1238 C1240 1.389 . S
C1239 H1218 0.950 . S
C1239 C1238 1.373 1_565 S
C1239 C1255 1.377 1_455 S
C1240 C1238 1.389 . S
C1240 C1241 1.524 1_455 S
C1240 C1254 1.377 1_455 S
C1241 C1240 1.524 1_655 S
C1241 C1242 1.394 1_655 S
C1241 C1246 1.366 . S
C1242 H1219 0.950 . S
C1242 C1241 1.394 1_455 S
C1242 C1243 1.334 . S
C1243 H1220 0.950 . S
C1243 C1242 1.334 . S
C1243 C1244 1.287 1_455 S
C1244 C1243 1.287 1_655 S
C1244 C1245 1.524 . S
C1244 H1263 0.913 . S
C1245 H1221 0.950 . S
C1245 C1244 1.524 . S
C1245 C1246 1.415 . S
C1246 H1222 0.950 . S
C1246 C1241 1.366 . S
C1246 C1245 1.415 . S
C1247 H1223 0.951 . S
C1247 C1248 1.366 . S
C1247 C1249 1.388 . S
C1248 C1247 1.366 . S
C1248 C1252 1.385 . S
C1249 H1224 0.951 . S
C1249 C1247 1.388 . S
C1249 C1250 1.366 . S
C1250 C1249 1.366 . S
C1250 C1251 1.414 . S
C1250 C1253 1.499 . S
C1251 H1225 0.950 . S
C1251 C1250 1.414 . S
C1251 C1252 1.374 . S
C1252 H1226 0.950 . S
C1252 C1248 1.385 . S
C1252 C1251 1.374 . S
C1253 C1250 1.499 . S
C1253 C1254 1.373 1_565 S
C1253 C1255 1.389 . S
C1254 H1227 0.950 . S
C1254 C1240 1.377 1_655 S
C1254 C1253 1.373 1_545 S
C1255 C1239 1.377 1_655 S
C1255 C1253 1.389 . S
C1255 C1256 1.524 1_655 S
C1256 C1255 1.524 1_455 S
C1256 C1257 1.394 1_455 S
C1256 C1261 1.366 . S
C1257 H1228 0.950 . S
C1257 C1256 1.394 1_655 S
C1257 C1258 1.334 . S
C1258 H1229 0.950 . S
C1258 C1257 1.334 . S
C1258 C1259 1.287 1_655 S
C1259 C1258 1.287 1_455 S
C1259 C1260 1.524 . S
C1259 H1262 0.999 . S
C1260 H1230 0.950 . S
C1260 C1259 1.524 . S
C1260 C1261 1.415 . S
C1261 H1231 0.950 . S
C1261 C1256 1.366 . S
C1261 C1260 1.415 . S
H1262 C1259 0.999 . S
H1263 C1244 0.913 . S
C283 N79 1.054 . S
C298 N13 1.055 . S
C333 N112 1.054 . S
C348 N46 1.055 . S
C383 N211 1.054 . S
C398 N145 1.055 . S
C433 N244 1.055 . S
C448 N178 1.054 . S
C483 C150 1.975 . S
C498 C21 1.972 . S
C533 C183 1.976 . S
C548 C54 1.972 . S
C583 C216 1.975 . S
C598 C87 1.972 . S
C633 C120 1.972 . S
C648 C249 1.976 . S
C683 C18 1.976 . S
C698 C153 1.972 . S
C733 C51 1.975 . S
C748 C186 1.972 . S
C783 C84 1.976 . S
C798 C219 1.972 . S
C833 C252 1.972 . S
C848 C117 1.975 . S
C883 C7 1.742 . S
C898 C172 1.742 . S
C933 C205 1.742 . S
C948 C40 1.742 . S
C983 C238 1.743 . S
C998 C73 1.743 . S
C1033 C139 1.742 . S
C1048 C106 1.742 . S
C1083 N68 0.640 . S
C1098 N2 0.640 . S
C1133 N35 0.640 . S
C1148 N101 0.641 . S
C1183 N200 0.640 . S
C1198 N134 0.642 . S
C1233 N167 0.640 . S
C1248 N233 0.640 . S
