# Generated by pormake.
# Topology sod, (4)-cn, num edge types: 1
# Building blocks:
#     Node 0, Type 0, BuildingBlock: NAHDIM_clean_sbu_0, # of connection points: 4
#     Node 1, Type 0, BuildingBlock: NAHDIM_clean_sbu_0, # of connection points: 4
#     Node 2, Type 0, BuildingBlock: NAHDIM_clean_sbu_0, # of connection points: 4
#     Node 3, Type 0, BuildingBlock: NAHDIM_clean_sbu_0, # of connection points: 4
#     Node 4, Type 0, BuildingBlock: NAHDIM_clean_sbu_0, # of connection points: 4
#     Node 5, Type 0, BuildingBlock: NAHDIM_clean_sbu_0, # of connection points: 4
#     Node 6, Type 0, BuildingBlock: NAHDIM_clean_sbu_0, # of connection points: 4
#     Node 7, Type 0, BuildingBlock: NAHDIM_clean_sbu_0, # of connection points: 4
#     Node 8, Type 0, BuildingBlock: NAHDIM_clean_sbu_0, # of connection points: 4
#     Node 9, Type 0, BuildingBlock: NAHDIM_clean_sbu_0, # of connection points: 4
#     Node 10, Type 0, BuildingBlock: NAHDIM_clean_sbu_0, # of connection points: 4
#     Node 11, Type 0, BuildingBlock: NAHDIM_clean_sbu_0, # of connection points: 4
#     Edge 12, Type (0, 0), BuildingBlock: ZUJKAS_clean_linker_0, # of connection points: 2
#     Edge 13, Type (0, 0), BuildingBlock: ZUJKAS_clean_linker_0, # of connection points: 2
#     Edge 14, Type (0, 0), BuildingBlock: ZUJKAS_clean_linker_0, # of connection points: 2
#     Edge 15, Type (0, 0), BuildingBlock: ZUJKAS_clean_linker_0, # of connection points: 2
#     Edge 16, Type (0, 0), BuildingBlock: ZUJKAS_clean_linker_0, # of connection points: 2
#     Edge 17, Type (0, 0), BuildingBlock: ZUJKAS_clean_linker_0, # of connection points: 2
#     Edge 18, Type (0, 0), BuildingBlock: ZUJKAS_clean_linker_0, # of connection points: 2
#     Edge 19, Type (0, 0), BuildingBlock: ZUJKAS_clean_linker_0, # of connection points: 2
#     Edge 20, Type (0, 0), BuildingBlock: ZUJKAS_clean_linker_0, # of connection points: 2
#     Edge 21, Type (0, 0), BuildingBlock: ZUJKAS_clean_linker_0, # of connection points: 2
#     Edge 22, Type (0, 0), BuildingBlock: ZUJKAS_clean_linker_0, # of connection points: 2
#     Edge 23, Type (0, 0), BuildingBlock: ZUJKAS_clean_linker_0, # of connection points: 2
#     Edge 24, Type (0, 0), BuildingBlock: ZUJKAS_clean_linker_0, # of connection points: 2
#     Edge 25, Type (0, 0), BuildingBlock: ZUJKAS_clean_linker_0, # of connection points: 2
#     Edge 26, Type (0, 0), BuildingBlock: ZUJKAS_clean_linker_0, # of connection points: 2
#     Edge 27, Type (0, 0), BuildingBlock: ZUJKAS_clean_linker_0, # of connection points: 2
#     Edge 28, Type (0, 0), BuildingBlock: ZUJKAS_clean_linker_0, # of connection points: 2
#     Edge 29, Type (0, 0), BuildingBlock: ZUJKAS_clean_linker_0, # of connection points: 2
#     Edge 30, Type (0, 0), BuildingBlock: ZUJKAS_clean_linker_0, # of connection points: 2
#     Edge 31, Type (0, 0), BuildingBlock: ZUJKAS_clean_linker_0, # of connection points: 2
#     Edge 32, Type (0, 0), BuildingBlock: ZUJKAS_clean_linker_0, # of connection points: 2
#     Edge 33, Type (0, 0), BuildingBlock: ZUJKAS_clean_linker_0, # of connection points: 2
#     Edge 34, Type (0, 0), BuildingBlock: ZUJKAS_clean_linker_0, # of connection points: 2
#     Edge 35, Type (0, 0), BuildingBlock: ZUJKAS_clean_linker_0, # of connection points: 2
# Relax obj value: 0.090
# Max RMSD: 0.133
# Mean RMSD: 0.129
data_MOF--net-sod--node1-NAHDIM_clean_sbu_0--edge1-ZUJKAS_clean_linker_0
_symmetry_space_group_name_H-M    P1
_symmetry_Int_Tables_number       1
_symmetry_cell_setting            triclinic
loop_
_symmetry_equiv_pos_as_xyz
'x, y, z'
_cell_length_a     55.350363
_cell_length_b     55.170069
_cell_length_c     54.814905
_cell_angle_alpha  90.54602
_cell_angle_beta   91.058906
_cell_angle_gamma 93.499572
loop_
_atom_site_label
_atom_site_type_symbol
_atom_site_fract_x
_atom_site_fract_y
_atom_site_fract_z
_atom_type_partial_charge
C0 C 0.04693 0.22309 0.50453 0.0
O1 O 0.03314 0.22125 0.48475 0.0
O2 O 0.01689 0.27817 0.48579 0.0
Zn3 Zn 0.01418 0.25925 0.51689 0.0
O4 O 0.98361 0.23767 0.51669 0.0
C5 C 0.00527 0.30338 0.54193 0.0
O6 O -0.0049 0.30816 0.52082 0.0
O7 O 0.04241 0.23854 0.52089 0.0
C8 C 0.96287 0.24518 0.51166 0.0
O9 O 0.96087 0.26821 0.50662 0.0
C10 C 0.00624 0.27214 0.46571 0.0
O11 O 0.99317 0.25149 0.46403 0.0
O12 O 0.01448 0.28304 0.54483 0.0
C13 C 0.79319 0.96943 0.49371 0.0
O14 O 0.79582 0.98336 0.51328 0.0
O15 O 0.74137 0.00297 0.51149 0.0
Zn16 Zn 0.76023 0.00499 0.48033 0.0
O17 O 0.78398 0.03405 0.48176 0.0
C18 C 0.71618 0.01283 0.453 0.0
O19 O 0.70788 0.01788 0.47463 0.0
O20 O 0.7786 0.97508 0.47686 0.0
C21 C 0.77918 0.05448 0.47297 0.0
O22 O 0.75808 0.05682 0.46215 0.0
C23 C 0.73747 0.02195 0.52379 0.0
O24 O 0.74587 0.04321 0.51602 0.0
O25 O 0.73792 0.00698 0.45113 0.0
C26 C 0.95804 0.78145 0.46836 0.0
O27 O 0.9578 0.76533 0.45056 0.0
O28 O 0.00166 0.73845 0.45506 0.0
Zn29 Zn 0.00284 0.76054 0.48441 0.0
O30 O 0.03379 0.78142 0.48482 0.0
C31 C 0.01067 0.72033 0.51597 0.0
O32 O 0.02196 0.71226 0.49693 0.0
O33 O 0.97517 0.78232 0.48414 0.0
C34 C 0.04372 0.78907 0.50474 0.0
O35 O 0.03376 0.78275 0.52548 0.0
C36 C 0.01167 0.74479 0.43525 0.0
O37 O 0.02244 0.76659 0.43368 0.0
O38 O 0.00104 0.7406 0.51474 0.0
C39 C 0.22526 0.04833 0.54111 0.0
O40 O 0.22183 0.0311 0.55728 0.0
O41 O 0.28581 0.01885 0.55379 0.0
Zn42 Zn 0.26239 0.01813 0.52533 0.0
O43 O 0.24045 0.98782 0.52521 0.0
C44 C 0.29863 0.00507 0.49212 0.0
O45 O 0.3041 0.99067 0.51009 0.0
O46 O 0.24215 0.0469 0.5259 0.0
C47 C 0.23031 0.98043 0.50531 0.0
O48 O 0.23452 0.99279 0.48531 0.0
C49 C 0.28521 0.00256 0.57003 0.0
O50 O 0.26795 0.98512 0.56906 0.0
O51 O 0.28126 0.01885 0.49454 0.0
C52 C 0.46029 0.01866 0.29195 0.0
O53 O 0.48105 0.03082 0.29655 0.0
O54 O 0.48766 0.03646 0.2296 0.0
Zn55 Zn 0.48599 0.00648 0.24999 0.0
O56 O 0.51615 0.00569 0.27062 0.0
C57 C 0.49088 0.95719 0.233 0.0
O58 O 0.50025 0.95414 0.25487 0.0
O59 O 0.45755 0.00654 0.27216 0.0
C60 C 0.53734 0.00536 0.2622 0.0
O61 O 0.54025 0.00495 0.23847 0.0
C62 C 0.49881 0.05624 0.23642 0.0
O63 O 0.50937 0.0577 0.25809 0.0
O64 O 0.48325 0.9777 0.2274 0.0
C65 C 0.06773 0.50551 0.21819 0.0
O66 O 0.04914 0.51679 0.20978 0.0
O67 O 0.03731 0.52816 0.27787 0.0
Zn68 Zn 0.03614 0.49712 0.25835 0.0
O69 O 0.00711 0.49623 0.2358 0.0
C70 C 0.01306 0.46287 0.2906 0.0
O71 O -0.00554 0.47598 0.28614 0.0
O72 O 0.06642 0.49553 0.23895 0.0
C73 C -0.00159 0.47677 0.22561 0.0
O74 O 0.0087 0.45634 0.22976 0.0
C75 C 0.03059 0.5475 0.26811 0.0
O76 O 0.02326 0.54691 0.24518 0.0
O77 O 0.03319 0.46868 0.28081 0.0
C78 C 0.5724 0.01799 0.72198 0.0
O79 O 0.56296 0.0385 0.72782 0.0
O80 O 0.53937 0.02828 0.7758 0.0
Zn81 Zn 0.53598 -0.00126 0.75402 0.0
O82 O 0.50537 9e-05 0.73408 0.0
C83 C 0.51512 0.95879 0.7819 0.0
O84 O 0.49467 0.96832 0.77597 0.0
O85 O 0.56391 -0.00164 0.73131 0.0
C86 C 0.49822 0.98303 0.71948 0.0
O87 O 0.51122 0.96401 0.71731 0.0
C88 C 0.52063 0.03533 0.78612 0.0
O89 O 0.49984 0.02291 0.78249 0.0
O90 O 0.53494 0.9687 0.7745 0.0
C91 C 0.98626 0.55817 0.71666 0.0
O92 O 0.97179 0.53866 0.71293 0.0
O93 O 0.9725 0.52473 0.77539 0.0
Zn94 Zn 0.00199 0.52867 0.75469 0.0
O95 O 0.00288 0.5003 0.73171 0.0
C96 C 0.03708 0.51088 0.78717 0.0
O97 O 0.02363 0.49074 0.78316 0.0
O98 O 0.00109 0.55872 0.73465 0.0
C99 C 0.02217 0.49492 0.7213 0.0
O100 O 0.04233 0.50815 0.72583 0.0
C101 C 0.96256 0.50376 0.77918 0.0
O102 O 0.97132 0.48472 0.76877 0.0
O103 O 0.03148 0.53019 0.77658 0.0
C104 C 0.28325 0.44532 -0.00233 0.0
O105 O 0.26282 0.44115 0.00916 0.0
O106 O 0.24849 0.49028 0.02499 0.0
Zn107 Zn 0.26765 0.49431 0.99452 0.0
O108 O 0.28863 0.52527 -0.00347 0.0
C109 C 0.22831 0.51129 0.96729 0.0
O110 O 0.22833 0.52621 0.98612 0.0
O111 O 0.28877 0.46651 0.98988 0.0
C112 C 0.29378 0.53736 0.97751 0.0
O113 O 0.28497 0.52955 0.95625 0.0
C114 C 0.25684 0.49582 0.04618 0.0
O115 O 0.27949 0.50419 0.04883 0.0
O116 O 0.24409 0.49555 0.96649 0.0
C117 C 0.47822 0.28877 0.98708 0.0
O118 O 0.49741 0.29758 0.97562 0.0
O119 O 0.51372 0.22911 0.9766 0.0
Zn120 Zn 0.51128 0.25394 0.00332 0.0
O121 O 0.53873 0.27934 0.00217 0.0
C122 C 0.52559 0.21998 0.03928 0.0
O123 O 0.53883 0.21251 0.02137 0.0
O124 O 0.4798 0.26988 -6e-05 0.0
C125 C 0.55989 0.27497 -0.00456 0.0
O126 O 0.56447 0.25279 0.98882 0.0
C127 C 0.5185 0.23482 0.95475 0.0
O128 O 0.52189 0.25785 0.9491 0.0
O129 O 0.51229 0.23762 0.03575 0.0
C130 C 0.741 0.54472 0.03382 0.0
O131 O 0.73847 0.52917 0.05174 0.0
O132 O 0.79486 0.50848 0.04666 0.0
Zn133 Zn 0.77319 0.50999 0.01701 0.0
O134 O 0.74856 0.48175 0.01614 0.0
C135 C 0.80109 0.48915 0.97935 0.0
O136 O 0.79541 0.46897 0.991 0.0
O137 O 0.75561 0.5406 0.0169 0.0
C138 C 0.73748 0.47582 -0.00372 0.0
O139 O 0.74221 0.48849 0.97657 0.0
C140 C 0.79975 0.48805 0.05536 0.0
O141 O 0.78972 0.4681 0.0453 0.0
O142 O 0.7936 0.50903 0.98722 0.0
C143 C 0.56155 0.71658 0.99375 0.0
O144 O 0.54723 0.71291 0.97452 0.0
O145 O 0.52912 0.77175 0.97567 0.0
Zn146 Zn 0.5265 0.75055 0.00526 0.0
O147 O 0.49798 0.72638 0.00207 0.0
C148 C 0.51197 0.79125 0.03308 0.0
O149 O 0.50379 0.79777 0.01163 0.0
O150 O 0.55651 0.7324 0.00954 0.0
C151 C 0.47666 0.73248 -0.00277 0.0
O152 O 0.47286 0.75549 0.99392 0.0
C153 C 0.52034 0.76577 0.95473 0.0
O154 O 0.50942 0.74415 0.95139 0.0
O155 O 0.5225 0.7715 0.0349 0.0
H156 H 0.03312 0.31508 0.46285 0.0
H157 H 0.03176 0.34528 0.43072 0.0
H158 H 0.97913 0.29911 0.39045 0.0
H159 H 0.98059 0.26847 0.42245 0.0
H160 H 0.01554 0.32075 0.36134 0.0
H161 H 0.9749 0.38862 0.42067 0.0
H162 H 0.00221 0.37759 0.43339 0.0
H163 H 0.97595 0.35707 0.42883 0.0
C164 C 0.02133 0.31123 0.44712 0.0
C165 C 0.0068 0.28945 0.4453 0.0
C166 C 0.02048 0.32858 0.42885 0.0
C167 C 0.00495 0.32461 0.40853 0.0
C168 C 0.99107 0.30255 0.40615 0.0
H169 H 0.97213 0.44408 0.31243 0.0
H170 H 0.96828 0.40888 0.33921 0.0
C171 C 0.99196 0.28509 0.42442 0.0
C172 C 0.00318 0.3437 0.38995 0.0
H173 H 0.99104 0.40315 0.38306 0.0
C174 C 0.00997 0.33871 0.36598 0.0
C175 C -0.00455 0.36694 0.39598 0.0
C176 C 0.98647 0.37285 0.42105 0.0
C177 C 0.01022 0.35675 0.34808 0.0
C178 C 0.0039 0.3804 0.35453 0.0
C179 C -0.00385 0.38506 0.37824 0.0
C180 C 0.00598 0.40085 0.33727 0.0
C181 C 0.01722 0.3503 0.32246 0.0
C182 C 0.0285 0.40809 0.32751 0.0
C183 C 0.03076 0.42814 0.3122 0.0
C184 C 0.01057 0.44147 0.30657 0.0
C185 C 0.98803 0.4342 0.31642 0.0
C186 C 0.98578 0.41408 0.33169 0.0
H187 H 0.01427 0.33049 0.31878 0.0
H188 H 0.00675 0.36023 0.30874 0.0
H189 H 0.03675 0.35534 0.32011 0.0
H190 H 0.04444 0.3985 0.33209 0.0
H191 H 0.0484 0.43333 0.30501 0.0
H192 H 0.72811 0.00524 0.4054 0.0
H193 H 0.70153 0.00625 0.36929 0.0
H194 H 0.64194 0.02281 0.41492 0.0
H195 H 0.66836 0.02223 0.45102 0.0
H196 H 0.65979 0.97759 0.35902 0.0
H197 H 0.63984 0.07465 0.3627 0.0
H198 H 0.66446 0.06269 0.37994 0.0
H199 H 0.63403 0.05954 0.39102 0.0
C200 C 0.70938 0.00927 0.40774 0.0
C201 C 0.70035 0.01375 0.43107 0.0
C202 C 0.69425 0.00983 0.38709 0.0
C203 C 0.66991 0.01502 0.38942 0.0
C204 C 0.66083 0.01936 0.41268 0.0
H205 H 0.53687 0.00959 0.31171 0.0
H206 H 0.57141 0.01214 0.34004 0.0
C207 C 0.67593 0.01886 0.43331 0.0
C208 C 0.65358 0.01482 0.36775 0.0
H209 H 0.61269 0.04847 0.33817 0.0
C210 C 0.64978 0.99319 0.35415 0.0
C211 C 0.64072 0.03528 0.36139 0.0
C212 C 0.64514 0.05942 0.37438 0.0
C213 C 0.63237 0.99107 0.33518 0.0
C214 C 0.61868 0.01116 0.32969 0.0
C215 C 0.6232 0.03308 0.34259 0.0
C216 C 0.59815 0.00923 0.31208 0.0
C217 C 0.62789 0.96709 0.32192 0.0
C218 C 0.60187 0.00678 0.28696 0.0
C219 C 0.58211 0.00534 0.2706 0.0
C220 C 0.5584 0.00633 0.27922 0.0
C221 C 0.55487 0.00871 0.30445 0.0
C222 C 0.57457 0.01023 0.32069 0.0
H223 H 0.63801 0.95245 0.3304 0.0
H224 H 0.60827 0.96148 0.32166 0.0
H225 H 0.63362 0.96908 0.30271 0.0
H226 H 0.62003 0.00621 0.28002 0.0
H227 H 0.5854 0.00357 0.25127 0.0
H228 H 0.01566 0.59142 0.25324 0.0
H229 H 0.01362 0.62849 0.27778 0.0
H230 H 0.04203 0.5919 0.34026 0.0
H231 H 0.04436 0.55485 0.31589 0.0
H232 H 0.98691 0.63386 0.31993 0.0
H233 H 0.08476 0.65525 0.33819 0.0
H234 H 0.07367 0.63436 0.31439 0.0
H235 H 0.075 0.62461 0.34558 0.0
C236 C 0.02168 0.59131 0.27215 0.0
C237 C 0.03021 0.5702 0.28262 0.0
C238 C 0.02049 0.6125 0.28612 0.0
C239 C 0.02799 0.613 0.3107 0.0
C240 C 0.03663 0.59202 0.32117 0.0
H241 H 0.99054 0.6988 0.43262 0.0
H242 H -0.00626 0.66888 0.39996 0.0
C243 C 0.0378 0.57082 0.30725 0.0
C244 C 0.02555 0.63499 0.32586 0.0
H245 H 0.05731 0.67547 0.36351 0.0
C246 C 0.00232 0.64317 0.32924 0.0
C247 C 0.04573 0.64727 0.33767 0.0
C248 C 0.07123 0.6401 0.33362 0.0
C249 C -0.0014 0.66268 0.34504 0.0
C250 C 0.01862 0.67402 0.35796 0.0
C251 C 0.04197 0.66656 0.35373 0.0
C252 C 0.01559 0.69275 0.37694 0.0
C253 C 0.97328 0.67085 0.3479 0.0
C254 C 0.02708 0.716 0.37492 0.0
C255 C 0.02537 0.73317 0.39363 0.0
C256 C 0.01232 0.72725 0.41476 0.0
C257 C 0.00065 0.70399 0.41656 0.0
C258 C 0.00233 0.68689 0.39785 0.0
H259 H 0.96151 0.66539 0.3319 0.0
H260 H 0.96518 0.66227 0.36431 0.0
H261 H 0.97341 0.69087 0.3503 0.0
H262 H 0.03752 0.72078 0.35896 0.0
H263 H 0.03461 0.7509 0.39172 0.0
H264 H 0.28813 0.02772 0.44947 0.0
H265 H 0.31173 0.02901 0.4122 0.0
H266 H 0.3646 0.98541 0.44645 0.0
H267 H 0.34081 0.9835 0.48355 0.0
H268 H 0.35682 0.04803 0.40606 0.0
H269 H 0.35288 0.95021 0.38208 0.0
H270 H 0.33345 0.96257 0.40452 0.0
H271 H 0.36399 0.95592 0.41266 0.0
C272 C 0.30469 0.01824 0.449 0.0
C273 C 0.3126 0.00545 0.46943 0.0
C274 C 0.31812 0.01898 0.42769 0.0
C275 C 0.33969 0.00697 0.42642 0.0
C276 C 0.34767 0.99426 0.44681 0.0
H277 H 0.46281 0.03809 0.33787 0.0
H278 H 0.43162 0.03591 0.3687 0.0
C279 C 0.33415 0.99334 0.46807 0.0
C280 C 0.35459 0.00892 0.4043 0.0
H281 H 0.38366 0.97538 0.36268 0.0
C282 C 0.36246 0.03215 0.39639 0.0
C283 C 0.36156 0.98821 0.39143 0.0
C284 C 0.35231 0.96284 0.39794 0.0
C285 C 0.37793 0.03522 0.37656 0.0
C286 C 0.38621 0.01447 0.36474 0.0
C287 C 0.37753 0.99126 0.37197 0.0
C288 C 0.40471 0.01641 0.34561 0.0
C289 C 0.38525 0.06065 0.3685 0.0
C290 C 0.40014 0.00563 0.32256 0.0
C291 C 0.41809 0.00656 0.30493 0.0
C292 C 0.44091 0.01827 0.31012 0.0
C293 C 0.44536 0.02912 0.3332 0.0
C294 C 0.42749 0.02803 0.35082 0.0
H295 H 0.37161 0.07364 0.37372 0.0
H296 H 0.40269 0.06674 0.37757 0.0
H297 H 0.38762 0.06143 0.34844 0.0
H298 H 0.38271 -0.00358 0.31826 0.0
H299 H 0.41413 -0.002 0.28733 0.0
H300 H 0.01253 0.60178 0.71978 0.0
H301 H 0.01562 0.63344 0.68885 0.0
H302 H 0.96514 0.59104 0.64231 0.0
H303 H 0.9615 0.55964 0.67327 0.0
H304 H 0.03235 0.62866 0.64332 0.0
H305 H 0.93836 0.65735 0.6384 0.0
H306 H 0.94931 0.63934 0.66311 0.0
H307 H 0.93962 0.62514 0.63457 0.0
C308 C 0.00181 0.59937 0.70311 0.0
C309 C 0.98675 0.57821 0.69897 0.0
C310 C 0.00361 0.61746 0.68546 0.0
C311 C 0.99037 0.61474 0.66343 0.0
C312 C 0.97507 0.5938 0.65942 0.0
H313 H 0.02372 0.67389 0.52288 0.0
H314 H 0.01962 0.64979 0.55991 0.0
C315 C 0.97314 0.57579 0.67709 0.0
C316 C -0.0061 0.63282 0.64385 0.0
H317 H 0.96346 0.668 0.60436 0.0
C318 C 0.01733 0.63751 0.63499 0.0
C319 C 0.97436 0.64459 0.63324 0.0
C320 C 0.94905 0.64156 0.64299 0.0
C321 C 0.02163 0.65297 0.61519 0.0
C322 C 0.00185 0.66353 0.6036 0.0
C323 C 0.97856 0.6596 0.61306 0.0
C324 C 0.00482 0.67832 0.58136 0.0
C325 C 0.04731 0.65787 0.60693 0.0
C326 C -0.00273 0.70212 0.58095 0.0
C327 C -0.00071 0.71582 0.55973 0.0
C328 C 0.00888 0.70593 0.53851 0.0
C329 C 0.01644 0.68208 0.53897 0.0
C330 C 0.01426 0.66834 0.56017 0.0
H331 H 0.06059 0.65484 0.62187 0.0
H332 H 0.05088 0.64527 0.5917 0.0
H333 H 0.05037 0.67678 0.60039 0.0
H334 H 0.98981 0.71009 0.59709 0.0
H335 H 0.99332 0.73415 0.55997 0.0
H336 H 0.47691 0.94946 0.6875 0.0
H337 H 0.4394 0.95263 0.66371 0.0
H338 H 0.43064 0.02333 0.69538 0.0
H339 H 0.46787 0.02024 0.71947 0.0
H340 H 0.388 0.99296 0.69429 0.0
H341 H 0.43238 -0.00345 0.60418 0.0
H342 H 0.4391 0.97083 0.6224 0.0
H343 H 0.44914 0.00088 0.63261 0.0
C344 C 0.46702 0.96569 0.6894 0.0
C345 C 0.47545 0.98466 0.70524 0.0
C346 C 0.44565 0.9675 0.67573 0.0
C347 C 0.43248 0.98836 0.67757 0.0
C348 C 0.44062 0.00713 0.69367 0.0
H349 H 0.32409 0.03513 0.57607 0.0
H350 H 0.35881 0.0322 0.60379 0.0
C351 C 0.46193 0.00533 0.70736 0.0
C352 C 0.41026 0.99077 0.66263 0.0
H353 H 0.38954 0.99408 0.60384 0.0
C354 C 0.38828 0.99322 0.67451 0.0
C355 C 0.41084 0.99141 0.63687 0.0
C356 C 0.43414 0.99 0.6232 0.0
C357 C 0.36673 -0.00394 0.66125 0.0
C358 C 0.36722 -0.00387 0.63548 0.0
C359 C 0.38924 0.99388 0.62362 0.0
C360 C 0.34519 -0.00124 0.62031 0.0
C361 C 0.34372 -0.0006 0.67489 0.0
C362 C 0.32595 0.981 0.6206 0.0
C363 C 0.30602 0.98263 0.6048 0.0
C364 C 0.30512 0.00196 0.58833 0.0
C365 C 0.32421 0.02 0.58851 0.0
C366 C 0.34409 0.01836 0.60431 0.0
H367 H 0.34748 0.00489 0.69421 0.0
H368 H 0.33293 0.01332 0.66604 0.0
H369 H 0.33257 0.98199 0.67475 0.0
H370 H 0.32666 0.96552 0.63253 0.0
H371 H 0.29166 0.9684 0.60505 0.0
H372 H 0.02993 0.30175 0.58555 0.0
H373 H 0.03403 0.33336 0.6172 0.0
H374 H 0.98845 0.37826 0.57461 0.0
H375 H 0.98465 0.34703 0.54266 0.0
H376 H 0.02987 0.40302 0.59182 0.0
H377 H 0.98382 0.35188 0.66629 0.0
H378 H 0.00838 0.33684 0.65306 0.0
H379 H 0.98183 0.34183 0.63485 0.0
C380 C 0.02063 0.31828 0.58299 0.0
C381 C 0.00692 0.32188 0.56162 0.0
C382 C 0.02291 0.33626 0.60115 0.0
C383 C 0.01128 0.35798 0.59836 0.0
C384 C -0.00249 0.36157 0.57711 0.0
H385 H 0.98265 0.46705 0.70503 0.0
H386 H 0.98144 0.43371 0.67539 0.0
C387 C -0.00467 0.34369 0.5589 0.0
C388 C 0.01401 0.37737 0.61719 0.0
H389 H 0.00307 0.3902 0.67684 0.0
C390 C 0.02403 0.40025 0.61043 0.0
C391 C 0.00617 0.37369 0.64135 0.0
C392 C -0.00576 0.34981 0.64934 0.0
C393 C 0.02635 0.41965 0.62718 0.0
C394 C 0.01891 0.41585 0.65146 0.0
C395 C 0.00896 0.39295 0.65825 0.0
C396 C 0.0201 0.43574 0.66978 0.0
C397 C 0.03606 0.44419 0.61854 0.0
C398 C 0.04232 0.44772 0.67667 0.0
C399 C 0.04307 0.46695 0.69351 0.0
C400 C 0.02163 0.4743 0.7039 0.0
C401 C -0.00051 0.46188 0.69733 0.0
C402 C -0.00124 0.44279 0.68043 0.0
H403 H 0.03534 0.44545 0.59832 0.0
H404 H 0.02571 0.45893 0.62636 0.0
H405 H 0.05525 0.44725 0.6246 0.0
H406 H 0.05905 0.4422 0.66902 0.0
H407 H 0.06042 0.47602 0.69836 0.0
H408 H 0.59299 0.9783 0.70304 0.0
H409 H 0.62374 0.97763 0.67161 0.0
H410 H 0.6263 0.05579 0.6683 0.0
H411 H 0.59564 0.05672 0.6998 0.0
H412 H 0.61866 -0.00292 0.62391 0.0
H413 H 0.6983 0.03983 0.67451 0.0
H414 H 0.67189 0.0269 0.68966 0.0
H415 H 0.67133 0.05632 0.67596 0.0
C416 C 0.60026 -0.00462 0.69582 0.0
C417 C 0.59187 0.01759 0.70391 0.0
C418 C 0.61781 -0.00506 0.67787 0.0
C419 C 0.62744 0.01666 0.66789 0.0
C420 C 0.61936 0.03886 0.67612 0.0
H421 H 0.722 0.05931 0.55124 0.0
H422 H 0.69584 0.05668 0.58664 0.0
C423 C 0.60175 0.03934 0.69401 0.0
C424 C 0.64484 0.01605 0.64781 0.0
H425 H 0.70208 0.03504 0.63161 0.0
C426 C 0.63698 0.00516 0.6256 0.0
C427 C 0.66865 0.02672 0.65016 0.0
C428 C 0.67819 0.03794 0.67391 0.0
C429 C 0.65211 0.00528 0.60536 0.0
C430 C 0.67588 0.01612 0.60762 0.0
C431 C 0.68384 0.02673 0.62996 0.0
C432 C 0.69247 0.0174 0.58675 0.0
C433 C 0.64219 0.99456 0.5815 0.0
C434 C 0.69958 -0.00384 0.57538 0.0
C435 C 0.71441 -0.00242 0.55502 0.0
C436 C 0.72257 0.0203 0.54588 0.0
C437 C 0.71596 0.04153 0.55777 0.0
C438 C 0.70105 0.04007 0.57803 0.0
H439 H 0.62209 0.99253 0.58122 0.0
H440 H 0.64808 0.00603 0.5659 0.0
H441 H 0.6491 0.97628 0.57885 0.0
H442 H 0.69357 0.97847 0.58218 0.0
H443 H 0.71936 0.9809 0.5464 0.0
H444 H 0.46985 0.33124 0.9641 0.0
H445 H 0.43298 0.35343 0.96474 0.0
H446 H 0.39813 0.29709 0.00805 0.0
H447 H 0.43505 0.27489 0.00787 0.0
H448 H 0.3852 0.33954 0.94923 0.0
H449 H 0.39153 0.35888 0.04905 0.0
H450 H 0.41644 0.34794 0.0322 0.0
H451 H 0.39155 0.32739 0.0404 0.0
C452 C 0.45433 0.3235 0.9737 0.0
C453 C 0.45546 0.30142 0.98614 0.0
C454 C 0.43328 0.33618 0.974 0.0
C455 C 0.41301 0.32705 0.98675 0.0
C456 C 0.41376 0.30464 -0.0015 0.0
H457 H 0.27975 0.39925 0.01604 0.0
H458 H 0.30904 0.36794 0.01211 0.0
C459 C 0.43484 0.29196 -0.00172 0.0
C460 C 0.39137 0.34139 0.98813 0.0
H461 H 0.35813 0.37328 0.02767 0.0
C462 C 0.37917 0.34681 0.96638 0.0
C463 C 0.38354 0.35075 0.01057 0.0
C464 C 0.39651 0.34616 0.0344 0.0
C465 C 0.3595 0.36167 0.96642 0.0
C466 C 0.35214 0.37158 0.98877 0.0
C467 C 0.36384 0.36556 0.01059 0.0
C468 C 0.33359 0.3897 0.98976 0.0
C469 C 0.34684 0.36676 0.94257 0.0
C470 C 0.33783 0.41228 0.97859 0.0
C471 C 0.32127 0.43018 0.98087 0.0
C472 C 0.30016 0.42587 0.99445 0.0
C473 C 0.2958 0.40311 0.00541 0.0
C474 C 0.31248 0.38521 0.00319 0.0
H475 H 0.34984 0.35258 0.9286 0.0
H476 H 0.32706 0.36781 0.94504 0.0
H477 H 0.35415 0.38445 0.93551 0.0
H478 H 0.35427 0.41626 0.96858 0.0
H479 H 0.3252 0.44752 0.97224 0.0
H480 H 0.30637 0.56891 0.94107 0.0
H481 H 0.33536 0.60417 0.94356 0.0
H482 H 0.34797 0.59058 0.01996 0.0
H483 H 0.31869 0.55562 0.0178 0.0
H484 H 0.34342 0.63928 0.01008 0.0
H485 H 0.40852 0.59874 0.94795 0.0
H486 H 0.37858 0.6006 0.9352 0.0
H487 H 0.38336 0.58123 0.96081 0.0
C488 C 0.31525 0.57346 0.95842 0.0
C489 C 0.3104 0.55934 0.97918 0.0
C490 C 0.33188 0.59355 0.95978 0.0
C491 C 0.3441 0.59968 0.98183 0.0
C492 C 0.33879 0.58606 0.00274 0.0
H493 H 0.47818 0.68396 0.00579 0.0
H494 H 0.44501 0.65284 0.00203 0.0
C495 C 0.32209 0.56606 0.00144 0.0
C496 C 0.36282 0.61999 0.98312 0.0
H497 H 0.41794 0.63916 0.96116 0.0
C498 C 0.3597 0.63933 -0.00064 0.0
C499 C 0.38414 0.61979 0.96931 0.0
C500 C 0.38905 0.59889 0.95249 0.0
C501 C 0.37741 0.65851 0.0022 0.0
C502 C 0.39855 0.65848 0.98809 0.0
C503 C 0.4016 0.63919 0.9718 0.0
C504 C 0.41829 0.6777 0.9907 0.0
C505 C 0.37368 0.67822 0.02079 0.0
C506 C 0.41427 0.70197 0.98542 0.0
C507 C 0.4332 0.71988 0.98768 0.0
C508 C 0.4565 0.71371 -0.00498 0.0
C509 C 0.46046 0.68933 0.00011 0.0
C510 C 0.44153 0.67151 -0.00205 0.0
H511 H 0.35956 0.67255 0.03407 0.0
H512 H 0.39078 0.68337 0.03098 0.0
H513 H 0.36776 0.69457 0.01127 0.0
H514 H 0.39657 0.70704 0.97932 0.0
H515 H 0.42961 0.73847 0.98347 0.0
H516 H 0.60508 0.27397 0.97612 0.0
H517 H 0.63626 0.30735 0.97488 0.0
H518 H 0.58919 0.35395 0.0127 0.0
H519 H 0.55777 0.321 0.01347 0.0
H520 H 0.61004 0.37616 0.97398 0.0
H521 H 0.67955 0.33352 0.03074 0.0
H522 H 0.66936 0.31574 0.00452 0.0
H523 H 0.64856 0.3214 0.02845 0.0
C524 C 0.60142 0.2913 0.98426 0.0
C525 C 0.579 0.29483 -0.00503 0.0
C526 C 0.6193 0.31031 0.98365 0.0
C527 C 0.61516 0.333 0.99404 0.0
C528 C 0.59277 0.33655 0.00464 0.0
H529 H 0.71864 0.45018 0.03457 0.0
H530 H 0.68898 0.4155 0.03294 0.0
C531 C 0.57485 0.31768 0.00509 0.0
C532 C 0.63385 0.35334 0.99345 0.0
H533 H 0.69144 0.37091 0.01224 0.0
C534 C 0.62786 0.37504 0.98233 0.0
C535 C 0.65695 0.35187 0.00462 0.0
C536 C 0.66398 0.32947 0.01797 0.0
C537 C 0.6443 0.39539 0.98214 0.0
C538 C 0.6676 0.39375 0.99282 0.0
C539 C 0.67362 0.37203 0.00389 0.0
C540 C 0.68569 0.41464 0.99352 0.0
C541 C 0.63628 0.41864 0.97116 0.0
C542 C 0.69385 0.42548 0.97188 0.0
C543 C 0.7106 0.44548 0.97276 0.0
C544 C 0.71974 0.45472 -0.0047 0.0
C545 C 0.7119 0.44351 0.01692 0.0
C546 C 0.69499 0.42367 0.01603 0.0
H547 H 0.61623 0.41879 0.96985 0.0
H548 H 0.64329 0.4347 0.98209 0.0
H549 H 0.64341 0.42045 0.95244 0.0
H550 H 0.68735 0.41842 0.95431 0.0
H551 H 0.71651 0.45355 0.95578 0.0
H552 H 0.73972 0.57832 -0.00242 0.0
H553 H 0.71148 0.61033 0.99289 0.0
H554 H 0.67895 0.59036 0.06129 0.0
H555 H 0.70692 0.558 0.06601 0.0
H556 H 0.6458 0.59298 0.02348 0.0
H557 H 0.70764 0.67596 0.02721 0.0
H558 H 0.71626 0.65363 0.00552 0.0
H559 H 0.71668 0.64681 0.03754 0.0
C560 C 0.72679 0.58093 0.01182 0.0
C561 C 0.72552 0.56557 0.03215 0.0
C562 C 0.71077 0.59935 0.00917 0.0
C563 C 0.69333 0.60289 0.02689 0.0
C564 C 0.69238 0.58797 0.04748 0.0
H565 H 0.59366 0.71848 0.03237 0.0
H566 H 0.62614 0.69134 0.04042 0.0
C567 C 0.70837 0.56951 0.05014 0.0
C568 C 0.67484 0.62078 0.02293 0.0
H569 H 0.66728 0.68081 0.01269 0.0
C570 C 0.65047 0.61221 0.02129 0.0
C571 C 0.68101 0.64586 0.02025 0.0
C572 C 0.7068 0.6562 0.02294 0.0
C573 C 0.63209 0.62799 0.01655 0.0
C574 C 0.63833 0.65291 0.01297 0.0
C575 C 0.66264 0.66161 0.01515 0.0
C576 C 0.61973 0.67021 0.00724 0.0
C577 C 0.60612 0.61788 0.01564 0.0
C578 C 0.60581 0.66762 0.98563 0.0
C579 C 0.58721 0.68304 0.98097 0.0
C580 C 0.58231 0.70139 -0.00217 0.0
C581 C 0.59688 0.70445 0.01907 0.0
C582 C 0.61547 0.68901 0.0237 0.0
H583 H 0.60398 0.59991 0.02461 0.0
H584 H 0.59408 0.63049 0.02463 0.0
H585 H 0.60006 0.6155 -0.00369 0.0
H586 H 0.60914 0.65347 0.9725 0.0
H587 H 0.57645 0.68032 0.96436 0.0
H588 H 0.49867 0.76137 0.90944 0.0
H589 H 0.4976 0.79243 0.87791 0.0
H590 H 0.54234 0.84169 0.92358 0.0
H591 H 0.5432 0.811 0.9553 0.0
H592 H 0.5015 0.86198 0.9053 0.0
H593 H 0.55063 0.81715 0.83159 0.0
H594 H 0.52544 0.79923 0.84354 0.0
H595 H 0.55139 0.80709 0.86283 0.0
C596 C 0.5085 0.77872 0.91266 0.0
C597 C 0.52102 0.78373 0.93488 0.0
C598 C 0.50795 0.7964 0.89458 0.0
C599 C 0.5201 0.81924 0.89834 0.0
C600 C 0.53289 0.82413 0.92033 0.0
H601 H 0.55429 0.93585 0.79908 0.0
H602 H 0.55437 0.90126 0.82659 0.0
C603 C 0.53338 0.80655 0.93842 0.0
C604 C 0.51852 0.8386 0.88 0.0
H605 H 0.5328 0.85386 0.82158 0.0
C606 C 0.50832 0.86022 0.88698 0.0
C607 C 0.52759 0.83625 0.85621 0.0
C608 C 0.53958 0.81378 0.84807 0.0
C609 C 0.50702 0.87965 0.87082 0.0
C610 C 0.51575 0.87718 0.8469 0.0
C611 C 0.52594 0.85556 0.83988 0.0
C612 C 0.51539 0.89728 0.82928 0.0
C613 C 0.4969 0.90288 0.8797 0.0
C614 C 0.4934 0.90618 0.82138 0.0
C615 C 0.49328 0.92602 0.80574 0.0
C616 C 0.51516 0.93718 0.79764 0.0
C617 C 0.53713 0.92775 0.80507 0.0
C618 C 0.53722 0.90795 0.82073 0.0
H619 H 0.49629 0.90379 0.89994 0.0
H620 H 0.50788 0.91898 0.87319 0.0
H621 H 0.47816 0.90391 0.87242 0.0
H622 H 0.47634 0.89789 0.82745 0.0
H623 H 0.47604 0.93272 0.80019 0.0
H624 H 0.19128 0.54174 0.96425 0.0
H625 H 0.1597 0.54233 0.9325 0.0
H626 H 0.19157 0.48382 0.89442 0.0
H627 H 0.22338 0.48319 0.92594 0.0
H628 H 0.17811 0.52271 0.86412 0.0
H629 H 0.10391 0.48927 0.92445 0.0
H630 H 0.12164 0.51551 0.93577 0.0
H631 H 0.13549 0.48708 0.93242 0.0
C632 C 0.19162 0.52903 0.9491 0.0
C633 C 0.20973 0.5123 0.94769 0.0
C634 C 0.17352 0.52934 0.93105 0.0
C635 C 0.17317 0.51289 0.91137 0.0
C636 C 0.19152 0.49657 0.90957 0.0
H637 H 0.05337 0.47282 0.81287 0.0
H638 H 0.08733 0.47346 0.84204 0.0
C639 C 0.20963 0.49622 0.92761 0.0
C640 C 0.15352 0.5125 0.89276 0.0
H641 H 0.09254 0.50163 0.88483 0.0
C642 C 0.15939 0.51809 0.86858 0.0
C643 C 0.12922 0.50616 0.89869 0.0
C644 C 0.12211 0.49895 0.92418 0.0
C645 C 0.14145 0.51782 0.85014 0.0
C646 C 0.11707 0.51207 0.85621 0.0
C647 C 0.11126 0.5062 0.88033 0.0
C648 C 0.09724 0.5117 0.83777 0.0
C649 C 0.14875 0.52327 0.82429 0.0
C650 C 0.09158 0.53304 0.8258 0.0
C651 C 0.07219 0.53276 0.8091 0.0
C652 C 0.05807 0.51113 0.80423 0.0
C653 C 0.06389 0.48977 0.8162 0.0
C654 C 0.08327 0.49009 0.83287 0.0
H655 H 0.16844 0.52154 0.82172 0.0
H656 H 0.13851 0.51092 0.81115 0.0
H657 H 0.1446 0.54219 0.81991 0.0
H658 H 0.1019 0.55 0.82968 0.0
H659 H 0.06811 0.54953 0.80025 0.0
H660 H 0.48431 0.05398 0.81202 0.0
H661 H 0.48667 0.09013 0.83818 0.0
H662 H 0.56227 0.10282 0.8218 0.0
H663 H 0.56021 0.06638 0.79582 0.0
H664 H 0.55335 0.10633 0.87081 0.0
H665 H 0.49063 0.16106 0.81782 0.0
H666 H 0.47754 0.1315 0.82505 0.0
H667 H 0.50324 0.13426 0.80542 0.0
C668 C 0.50144 0.06449 0.81387 0.0
C669 C 0.52207 0.05734 0.80179 0.0
C670 C 0.50269 0.08526 0.82869 0.0
C671 C 0.52452 0.09938 0.83155 0.0
C672 C 0.54521 0.09224 0.81966 0.0
H673 H 0.53087 0.24032 0.90689 0.0
H674 H 0.53462 0.20826 0.87622 0.0
C675 C 0.54399 0.07142 0.80485 0.0
C676 C 0.52592 0.12098 0.84784 0.0
H677 H 0.49979 0.17434 0.85889 0.0
C678 C 0.54184 0.12134 0.86808 0.0
C679 C 0.51119 0.14071 0.844 0.0
C680 C 0.49487 0.14204 0.82175 0.0
C681 C 0.54268 0.14047 0.88516 0.0
C682 C 0.52686 0.15944 0.88211 0.0
C683 C 0.51169 0.1596 0.86133 0.0
C684 C 0.52512 0.17882 0.90073 0.0
C685 C 0.56049 0.14014 0.90633 0.0
C686 C 0.51822 0.17286 0.92453 0.0
C687 C 0.51613 0.19107 0.94206 0.0
C688 C 0.52066 0.21563 0.93606 0.0
C689 C 0.5273 0.22158 0.9121 0.0
C690 C 0.52945 0.20331 0.89457 0.0
H691 H 0.5759 0.1289 0.9021 0.0
H692 H 0.56773 0.15878 0.9113 0.0
H693 H 0.55121 0.13215 0.9224 0.0
H694 H 0.51422 0.15411 0.92949 0.0
H695 H 0.51083 0.18586 0.9603 0.0
H696 H 0.94112 0.4612 0.79554 0.0
H697 H 0.91034 0.45612 0.82684 0.0
H698 H 0.90845 0.53389 0.83383 0.0
H699 H 0.93913 0.53922 0.80252 0.0
H700 H 0.91662 0.47502 0.87529 0.0
H701 H 0.83623 0.50973 0.8283 0.0
H702 H 0.86214 0.50011 0.81204 0.0
H703 H 0.86323 0.52941 0.82675 0.0
C704 C 0.93393 0.47724 0.80349 0.0
C705 C 0.94259 0.50063 0.7966 0.0
C706 C 0.91637 0.47427 0.82136 0.0
C707 C 0.907 0.49462 0.83239 0.0
C708 C 0.91519 0.51797 0.82519 0.0
H709 H 0.81815 0.52793 0.95277 0.0
H710 H 0.84326 0.52739 0.91662 0.0
C711 C 0.93282 0.52097 0.80741 0.0
C712 C 0.89006 0.49155 0.85278 0.0
H713 H 0.83384 0.50475 0.87136 0.0
C714 C 0.8984 0.48123 0.8744 0.0
C715 C 0.86641 0.49977 0.85145 0.0
C716 C 0.85632 0.51019 0.82833 0.0
C717 C 0.88399 0.47974 0.89515 0.0
C718 C 0.86045 0.48836 0.89398 0.0
C719 C 0.85192 0.49819 0.87216 0.0
C720 C 0.84479 0.4883 0.91553 0.0
C721 C 0.89442 0.46986 0.9184 0.0
C722 C 0.83713 0.46645 0.92667 0.0
C723 C 0.82289 0.46669 0.94744 0.0
C724 C 0.81592 0.48879 0.95724 0.0
C725 C 0.82327 0.51061 0.94572 0.0
C726 C 0.83757 0.51034 0.92504 0.0
H727 H 0.91444 0.46937 0.91781 0.0
H728 H 0.88969 0.48095 0.93442 0.0
H729 H 0.88677 0.45103 0.92105 0.0
H730 H 0.84215 0.44922 0.91929 0.0
H731 H 0.81735 0.44957 0.95577 0.0
H732 H 0.52139 0.10125 0.24468 0.0
H733 H 0.52604 0.13472 0.21573 0.0
H734 H 0.48635 0.09109 0.16097 0.0
H735 H 0.48123 0.05787 0.18972 0.0
H736 H 0.54884 0.13489 0.17184 0.0
H737 H 0.45277 0.15429 0.158 0.0
H738 H 0.463 0.13623 0.18303 0.0
H739 H 0.45744 0.12272 0.15325 0.0
C740 C 0.51342 0.0989 0.22655 0.0
C741 C 0.50086 0.07694 0.21952 0.0
C742 C 0.51612 0.11802 0.21006 0.0
C743 C 0.50618 0.11551 0.18637 0.0
C744 C 0.49362 0.09363 0.17936 0.0
H745 H 0.54575 0.17743 0.05049 0.0
H746 H 0.54262 0.15511 0.08865 0.0
C747 C 0.49086 0.07459 0.1958 0.0
C748 C 0.51001 0.13508 0.16835 0.0
H749 H 0.48001 0.168 0.12652 0.0
C750 C 0.53381 0.14246 0.16218 0.0
C751 C 0.4904 0.14527 0.1561 0.0
C752 C 0.46448 0.13941 0.16312 0.0
C753 C 0.53851 0.15875 0.1431 0.0
C754 C 0.51886 0.1674 0.12958 0.0
C755 C 0.49509 0.16109 0.13668 0.0
C756 C 0.52239 0.18192 0.1072 0.0
C757 C 0.56446 0.16633 0.13754 0.0
C758 C 0.51167 0.20419 0.10478 0.0
C759 C 0.51309 0.2168 0.08284 0.0
C760 C 0.52526 0.20734 0.06292 0.0
C761 C 0.53638 0.18527 0.06554 0.0
C762 C 0.53478 0.17258 0.08743 0.0
H763 H 0.57635 0.16512 0.15398 0.0
H764 H 0.57107 0.15396 0.1234 0.0
H765 H 0.56621 0.18519 0.13061 0.0
H766 H 0.50189 0.21164 0.11977 0.0
H767 H 0.50439 0.2338 0.08141 0.0
H768 H 0.97513 0.51649 0.21097 0.0
H769 H 0.93974 0.51749 0.18378 0.0
H770 H 0.93759 0.43953 0.17605 0.0
H771 H 0.973 0.43828 0.20337 0.0
H772 H 0.93656 0.49918 0.1346 0.0
H773 H 0.86733 0.45455 0.19434 0.0
H774 H 0.89602 0.46759 0.20603 0.0
H775 H 0.89449 0.43874 0.19048 0.0
C776 C 0.96708 0.49952 0.20361 0.0
C777 C 0.97686 0.47728 0.20934 0.0
C778 C 0.94687 0.50015 0.18809 0.0
C779 C 0.93595 0.47858 0.1782 0.0
C780 C 0.94558 0.45634 0.18386 0.0
H781 H 0.81731 0.44726 0.07525 0.0
H782 H 0.84997 0.44514 0.10566 0.0
C783 C 0.96588 0.45568 0.19933 0.0
C784 C 0.91509 0.47956 0.16111 0.0
H785 H 0.85495 0.46296 0.15387 0.0
C786 C 0.91868 0.49135 0.1388 0.0
C787 C 0.8919 0.46921 0.16671 0.0
C788 C 0.88702 0.45695 0.19076 0.0
C789 C 0.89969 0.49282 0.12172 0.0
C790 C 0.87641 0.48268 0.12739 0.0
C791 C 0.87283 0.47078 0.14966 0.0
C792 C 0.85562 0.48407 0.11023 0.0
C793 C 0.90486 0.50475 0.09754 0.0
C794 C 0.84759 0.50666 0.10327 0.0
C795 C 0.82902 0.50797 0.08584 0.0
C796 C 0.81802 0.48666 0.07522 0.0
C797 C 0.82547 0.46402 0.08299 0.0
C798 C 0.84411 0.46275 0.10037 0.0
H799 H 0.92452 0.5059 0.09363 0.0
H800 H 0.89506 0.49466 0.08237 0.0
H801 H 0.89868 0.5235 0.09798 0.0
H802 H 0.85593 0.52331 0.11108 0.0
H803 H 0.82356 0.52568 0.08041 0.0
H804 H 0.49031 0.83433 0.03526 0.0
H805 H 0.4865 0.86063 0.0709 0.0
H806 H 0.52363 0.81017 0.11551 0.0
H807 H 0.52733 0.78352 0.07997 0.0
H808 H 0.48128 0.8275 0.13664 0.0
H809 H 0.54282 0.90247 0.10282 0.0
H810 H 0.51889 0.89283 0.0817 0.0
H811 H 0.54161 0.87224 0.08978 0.0
C812 C 0.49769 0.82879 0.05263 0.0
C813 C 0.50927 0.80692 0.05475 0.0
C814 C 0.49557 0.8439 0.07294 0.0
C815 C 0.50513 0.83748 0.09569 0.0
C816 C 0.51627 0.81546 0.09803 0.0
H817 H 0.50962 0.91252 0.23701 0.0
H818 H 0.51258 0.88195 0.20468 0.0
C819 C 0.5184 0.80031 0.07771 0.0
C820 C 0.50343 0.85385 0.117 0.0
H821 H 0.51974 0.91114 0.13762 0.0
C822 C 0.48982 0.84573 0.13701 0.0
C823 C 0.51472 0.87754 0.11736 0.0
C824 C 0.53053 0.88677 0.09688 0.0
C825 C 0.48649 0.86107 0.1571 0.0
C826 C 0.49735 0.88493 0.15718 0.0
C827 C 0.51133 0.89285 0.13738 0.0
C828 C 0.49404 0.90234 0.17732 0.0
C829 C 0.47084 0.85192 0.17772 0.0
C830 C 0.48272 0.92388 0.17256 0.0
C831 C 0.4811 0.94137 0.19088 0.0
C832 C 0.49092 0.93771 0.2143 0.0
C833 C 0.50181 0.91585 0.21918 0.0
C834 C 0.50343 0.89832 0.20078 0.0
H835 H 0.45977 0.83513 0.17253 0.0
H836 H 0.48258 0.84776 0.19358 0.0
H837 H 0.45857 0.86598 0.18357 0.0
H838 H 0.47543 0.9273 0.15452 0.0
H839 H 0.47256 0.95798 0.1865 0.0
H840 H 0.2095 0.47906 0.04631 0.0
H841 H 0.18158 0.4795 0.08015 0.0
H842 H 0.23907 0.5093 0.12771 0.0
H843 H 0.26726 0.50925 0.09373 0.0
H844 H 0.18294 0.45771 0.12644 0.0
H845 H 0.18619 0.55868 0.13232 0.0
H846 H 0.19785 0.54271 0.10662 0.0
H847 H 0.21473 0.54493 0.13492 0.0
C848 C 0.21631 0.48561 0.06397 0.0
C849 C 0.24057 0.49435 0.06727 0.0
C850 C 0.20032 0.48578 0.0833 0.0
C851 C 0.20821 0.49472 0.10629 0.0
C852 C 0.23258 0.50268 0.10996 0.0
H853 H 0.10957 0.48399 0.23027 0.0
H854 H 0.1456 0.48127 0.20537 0.0
C855 C 0.24866 0.50254 0.09057 0.0
C856 C 0.19045 0.49644 0.12596 0.0
H857 H 0.15996 0.5372 0.15882 0.0
C858 C 0.17807 0.47504 0.13378 0.0
C859 C 0.18405 0.51914 0.13522 0.0
C860 C 0.19621 0.54274 0.12678 0.0
C861 C 0.15898 0.47576 0.15021 0.0
C862 C 0.1524 0.49848 0.15924 0.0
C863 C 0.16519 0.51983 0.1519 0.0
C864 C 0.1311 0.50064 0.17481 0.0
C865 C 0.14532 0.45233 0.15691 0.0
C866 C 0.11131 0.51291 0.16606 0.0
C867 C 0.09079 0.51461 0.18023 0.0
C868 C 0.08973 0.50411 0.20348 0.0
C869 C 0.10977 0.49214 0.21237 0.0
C870 C 0.13033 0.49048 0.19816 0.0
H871 H 0.14962 0.43702 0.14473 0.0
H872 H 0.15027 0.44754 0.17589 0.0
H873 H 0.12548 0.45436 0.15603 0.0
H874 H 0.11162 0.52091 0.14808 0.0
H875 H 0.07571 0.52401 0.17287 0.0
H876 H 0.79166 0.93685 0.45573 0.0
H877 H 0.81625 0.90186 0.4507 0.0
H878 H 0.85195 0.91848 0.51998 0.0
H879 H 0.82724 0.95329 0.52536 0.0
H880 H 0.86619 0.90266 0.44871 0.0
H881 H 0.83274 0.84614 0.52554 0.0
H882 H 0.81681 0.87143 0.51414 0.0
H883 H 0.84245 0.87659 0.53458 0.0
C884 C 0.80459 0.93295 0.47001 0.0
C885 C 0.80748 0.94783 0.49098 0.0
C886 C 0.81861 0.91296 0.46709 0.0
C887 C 0.83563 0.9074 0.48513 0.0
C888 C 0.83851 0.92215 0.5061 0.0
H889 H 0.95253 0.8153 0.50408 0.0
H890 H 0.9213 0.84453 0.50666 0.0
C891 C 0.82449 0.94213 0.50906 0.0
C892 C 0.85135 0.887 0.48143 0.0
H893 H 0.86954 0.83504 0.50746 0.0
C894 C 0.86673 0.88769 0.46135 0.0
C895 C 0.85191 0.86751 0.49796 0.0
C896 C 0.83493 0.86518 0.51914 0.0
C897 C 0.88343 0.8699 0.45791 0.0
C898 C 0.88447 0.85081 0.47483 0.0
C899 C 0.86867 0.84977 0.49457 0.0
C900 C 0.90281 0.83255 0.47319 0.0
C901 C 0.90047 0.87214 0.43676 0.0
C902 C 0.90252 0.81597 0.4536 0.0
C903 C 0.92038 0.79918 0.45203 0.0
C904 C 0.93875 0.79875 0.47007 0.0
C905 C 0.93871 0.8152 0.48983 0.0
C906 C 0.92085 0.83188 0.49139 0.0
H907 H 0.90029 0.89023 0.42804 0.0
H908 H 0.91928 0.86909 0.44286 0.0
H909 H 0.89499 0.8581 0.42277 0.0
H910 H 0.88851 0.81604 0.43955 0.0
H911 H 0.91987 0.78668 0.43665 0.0
H912 H 0.9171 0.25359 0.49536 0.0
H913 H 0.88262 0.22384 0.49017 0.0
H914 H 0.92612 0.16771 0.5181 0.0
H915 H 0.96056 0.19718 0.52345 0.0
H916 H 0.88236 0.18077 0.46072 0.0
H917 H 0.86331 0.16014 0.55757 0.0
H918 H 0.88081 0.18713 0.54839 0.0
H919 H 0.89455 0.15847 0.5498 0.0
C920 C 0.91924 0.23497 0.50066 0.0
C921 C 0.94155 0.22774 0.50984 0.0
C922 C 0.89955 0.21803 0.49765 0.0
C923 C 0.9018 0.1937 0.50404 0.0
C924 C 0.92393 0.18651 0.51348 0.0
H925 H 0.82457 0.05532 0.49339 0.0
H926 H 0.85289 0.09053 0.50014 0.0
C927 C 0.94362 0.20336 0.51639 0.0
C928 C 0.88157 0.1754 0.49955 0.0
H929 H 0.8456 0.13225 0.52779 0.0
C930 C 0.87403 0.17035 0.47536 0.0
C931 C 0.87086 0.1619 0.51874 0.0
C932 C 0.8776 0.16729 0.54511 0.0
C933 C 0.85677 0.15133 0.46974 0.0
C934 C 0.84655 0.13738 0.4889 0.0
C935 C 0.85358 0.14294 0.51314 0.0
C936 C 0.82934 0.11623 0.48419 0.0
C937 C 0.85039 0.14568 0.44332 0.0
C938 C 0.8067 0.11907 0.47302 0.0
C939 C 0.79048 0.09894 0.46901 0.0
C940 C 0.79659 0.07568 0.47631 0.0
C941 C 0.81931 0.07296 0.48752 0.0
C942 C 0.8355 0.09306 0.49144 0.0
H943 H 0.86371 0.15452 0.43078 0.0
H944 H 0.84945 0.12578 0.43982 0.0
H945 H 0.83236 0.15242 0.43892 0.0
H946 H 0.80145 0.13688 0.46769 0.0
H947 H 0.77306 0.10166 0.46048 0.0
H948 H 0.0694 0.80906 0.54384 0.0
H949 H 0.10338 0.8396 0.54312 0.0
H950 H 0.10095 0.83817 0.46446 0.0
H951 H 0.06695 0.80776 0.46491 0.0
H952 H 0.15022 0.83829 0.51882 0.0
H953 H 0.09258 0.91036 0.48467 0.0
H954 H 0.08009 0.88273 0.49817 0.0
H955 H 0.0907 0.8824 0.46742 0.0
C956 C 0.07617 0.81513 0.52638 0.0
C957 C 0.06533 0.80617 0.50443 0.0
C958 C 0.0956 0.83252 0.52602 0.0
C959 C 0.10437 0.84128 0.50375 0.0
C960 C 0.09415 0.83181 0.48182 0.0
H961 H 0.2072 0.95886 0.46559 0.0
H962 H 0.17813 0.92367 0.46497 0.0
C963 C 0.07478 0.8144 0.48214 0.0
C964 C 0.12367 0.86095 0.50343 0.0
H965 H 0.13454 0.92037 0.48831 0.0
C966 C 0.14687 0.85627 0.51218 0.0
C967 C 0.1191 0.88429 0.49473 0.0
C968 C 0.09425 0.89043 0.48587 0.0
C969 C 0.16584 0.87435 0.51215 0.0
C970 C 0.16123 0.89777 0.50359 0.0
C971 C 0.13801 0.90237 0.49478 0.0
C972 C 0.18005 0.91799 0.50394 0.0
C973 C 0.19071 0.86812 0.52085 0.0
C974 C 0.19069 0.92646 0.52609 0.0
C975 C 0.20735 0.94652 0.52651 0.0
C976 C 0.21345 0.95861 0.5048 0.0
C977 C 0.20287 0.94997 0.48263 0.0
C978 C 0.18628 0.92986 0.48222 0.0
H979 H 0.19277 0.84822 0.52025 0.0
H980 H 0.20502 0.87723 0.50964 0.0
H981 H 0.19358 0.87439 0.54004 0.0
H982 H 0.1857 0.91789 0.54312 0.0
H983 H 0.2151 0.9528 0.5439 0.0
H984 H 0.0763 0.21984 0.54485 0.0
H985 H 0.10793 0.19151 0.55159 0.0
H986 H 0.09433 0.16114 0.4795 0.0
H987 H 0.06233 0.18913 0.4727 0.0
H988 H 0.0963 0.12639 0.51506 0.0
H989 H 0.17561 0.19271 0.52329 0.0
H990 H 0.15149 0.19882 0.54349 0.0
H991 H 0.14668 0.20067 0.51105 0.0
C992 C 0.08015 0.20727 0.53033 0.0
C993 C 0.06682 0.20674 0.50821 0.0
C994 C 0.09833 0.19119 0.53419 0.0
C995 C 0.10369 0.17449 0.51592 0.0
C996 C 0.09052 0.17399 0.49378 0.0
H997 H 0.22586 0.08489 0.50785 0.0
H998 H 0.19637 0.11569 0.50271 0.0
C999 C 0.07227 0.19001 0.48993 0.0
C1000 C 0.12225 0.15677 0.52028 0.0
H1001 H 0.18215 0.15193 0.53402 0.0
C1002 C 0.11509 0.13194 0.51915 0.0
C1003 C 0.14676 0.16413 0.52539 0.0
C1004 C 0.1557 0.19052 0.52566 0.0
C1005 C 0.13177 0.11421 0.52318 0.0
C1006 C 0.15614 0.12157 0.52898 0.0
C1007 C 0.16337 0.14639 0.52988 0.0
C1008 C 0.17459 0.10371 0.53319 0.0
C1009 C 0.12326 0.08777 0.52068 0.0
C1010 C 0.17239 0.08715 0.55241 0.0
C1011 C 0.18917 0.06943 0.55536 0.0
C1012 C 0.20852 0.06813 0.53923 0.0
C1013 C 0.21112 0.08533 0.52054 0.0
C1014 C 0.19431 0.10297 0.51757 0.0
H1015 H 0.10576 0.08534 0.51042 0.0
H1016 H 0.13688 0.07729 0.51123 0.0
H1017 H 0.12062 0.08001 0.53911 0.0
H1018 H 0.15755 0.08777 0.56495 0.0
H1019 H 0.18676 0.05656 0.57005 0.0
loop_
_geom_bond_atom_site_label_1
_geom_bond_atom_site_label_2
_geom_bond_distance
_geom_bond_site_symmetry_2
_ccdc_geom_bond_type
C0 O1 1.160 . S
C0 O7 1.185 . S
O1 C0 1.160 . S
O2 Zn3 1.899 . S
O2 C10 1.284 . S
Zn3 O2 1.899 . S
Zn3 O4 2.032 1_455 S
Zn3 O7 2.086 . S
Zn3 O12 1.977 . S
O4 Zn3 2.032 1_655 S
O4 C8 1.278 . S
C5 O6 1.189 1_455 S
C5 O12 1.267 . S
O6 C5 1.189 1_655 S
O7 C0 1.185 . S
O7 Zn3 2.086 . S
C8 O4 1.278 . S
C8 O9 1.211 . S
O9 C8 1.211 . S
C10 O2 1.284 . S
C10 O11 1.273 1_455 S
O11 C10 1.273 1_655 S
O12 Zn3 1.977 . S
O12 C5 1.267 . S
C13 O14 1.160 . S
C13 O20 1.185 . S
O14 C13 1.160 . S
O15 Zn16 1.900 1_565 S
O15 C23 1.287 1_565 S
Zn16 O15 1.900 1_545 S
Zn16 O17 2.032 . S
Zn16 O20 2.086 1_545 S
Zn16 O25 1.977 . S
O17 Zn16 2.032 . S
O17 C21 1.278 . S
C18 O19 1.203 . S
C18 O25 1.267 . S
O19 C18 1.203 . S
O20 C13 1.185 . S
O20 Zn16 2.086 1_565 S
C21 O17 1.278 . S
C21 O22 1.211 . S
O22 C21 1.211 . S
C23 O15 1.287 1_545 S
C23 O24 1.273 . S
O24 C23 1.273 . S
O25 Zn16 1.977 . S
O25 C18 1.267 . S
C26 O27 1.160 . S
C26 O33 1.185 . S
O27 C26 1.160 . S
O28 Zn29 1.899 . S
O28 C36 1.284 . S
Zn29 O28 1.899 . S
Zn29 O30 2.032 . S
Zn29 O33 2.086 1_455 S
Zn29 O38 1.977 . S
O30 Zn29 2.032 . S
O30 C34 1.278 . S
C31 O32 1.203 . S
C31 O38 1.267 . S
O32 C31 1.203 . S
O33 C26 1.185 . S
O33 Zn29 2.086 1_655 S
C34 O30 1.278 . S
C34 O35 1.211 . S
O35 C34 1.211 . S
C36 O28 1.284 . S
C36 O37 1.273 . S
O37 C36 1.273 . S
O38 Zn29 1.977 . S
O38 C31 1.267 . S
C39 O40 1.160 . S
C39 O46 1.185 . S
O40 C39 1.160 . S
O41 Zn42 1.899 . S
O41 C49 1.284 . S
Zn42 O41 1.899 . S
Zn42 O43 2.032 1_545 S
Zn42 O46 2.086 . S
Zn42 O51 1.977 . S
O43 Zn42 2.032 1_565 S
O43 C47 1.278 . S
C44 O45 1.203 1_545 S
C44 O51 1.267 . S
O45 C44 1.203 1_565 S
O46 C39 1.185 . S
O46 Zn42 2.086 . S
C47 O43 1.278 . S
C47 O48 1.211 . S
O48 C47 1.211 . S
C49 O41 1.284 . S
C49 O50 1.273 1_545 S
O50 C49 1.273 1_565 S
O51 Zn42 1.977 . S
O51 C44 1.267 . S
C52 O53 1.160 . S
C52 O59 1.221 . S
O53 C52 1.160 . S
O54 Zn55 1.899 . S
O54 C62 1.284 . S
Zn55 O54 1.899 . S
Zn55 O56 2.032 . S
Zn55 O59 2.095 . S
Zn55 O64 1.977 1_545 S
O56 Zn55 2.032 . S
O56 C60 1.278 . S
C57 O58 1.203 . S
C57 O64 1.267 . S
O58 C57 1.203 . S
O59 C52 1.221 . S
O59 Zn55 2.095 . S
C60 O56 1.278 . S
C60 O61 1.208 1_545 S
O61 C60 1.208 1_565 S
C62 O54 1.284 . S
C62 O63 1.273 . S
O63 C62 1.273 . S
O64 Zn55 1.977 1_565 S
O64 C57 1.267 . S
C65 O66 1.160 . S
C65 O72 1.185 . S
O66 C65 1.160 . S
O67 Zn68 1.899 . S
O67 C75 1.284 . S
Zn68 O67 1.899 . S
Zn68 O69 2.032 . S
Zn68 O72 2.086 . S
Zn68 O77 1.977 . S
O69 Zn68 2.032 . S
O69 C73 1.278 1_455 S
C70 O71 1.203 . S
C70 O77 1.267 . S
O71 C70 1.203 . S
O72 C65 1.185 . S
O72 Zn68 2.086 . S
C73 O69 1.278 1_655 S
C73 O74 1.211 . S
O74 C73 1.211 . S
C75 O67 1.284 . S
C75 O76 1.258 1_455 S
O76 C75 1.258 1_655 S
O77 Zn68 1.977 . S
O77 C70 1.267 . S
C78 O79 1.160 . S
C78 O85 1.159 1_545 S
O79 C78 1.160 . S
O80 Zn81 1.899 . S
O80 C88 1.284 . S
Zn81 O80 1.899 . S
Zn81 O82 2.032 . S
Zn81 O85 2.078 1_545 S
Zn81 O90 1.977 1_545 S
O82 Zn81 2.032 . S
O82 C86 1.278 . S
C83 O84 1.203 . S
C83 O90 1.267 . S
O84 C83 1.203 . S
O85 C78 1.159 1_565 S
O85 Zn81 2.078 1_565 S
C86 O82 1.278 . S
C86 O87 1.211 1_545 S
O87 C86 1.211 1_565 S
C88 O80 1.284 . S
C88 O89 1.273 . S
O89 C88 1.273 . S
O90 Zn81 1.977 1_565 S
O90 C83 1.267 . S
C91 O92 1.160 1_455 S
C91 O98 1.185 . S
O92 C91 1.160 1_655 S
O93 Zn94 1.899 1_655 S
O93 C101 1.284 . S
Zn94 O93 1.899 1_455 S
Zn94 O95 2.032 . S
Zn94 O98 2.086 . S
Zn94 O103 1.977 . S
O95 Zn94 2.032 . S
O95 C99 1.278 . S
C96 O97 1.203 . S
C96 O103 1.267 . S
O97 C96 1.203 . S
O98 C91 1.185 . S
O98 Zn94 2.086 . S
C99 O95 1.278 . S
C99 O100 1.211 . S
O100 C99 1.211 . S
C101 O93 1.284 . S
C101 O102 1.273 . S
O102 C101 1.273 . S
O103 Zn94 1.977 . S
O103 C96 1.267 . S
C104 O105 1.160 . S
C104 O111 1.185 1_554 S
O105 C104 1.160 . S
O106 Zn107 1.899 . S
O106 C114 1.284 . S
Zn107 O106 1.899 . S
Zn107 O108 2.032 . S
Zn107 O111 2.086 1_554 S
Zn107 O116 1.977 1_554 S
O108 Zn107 2.032 . S
O108 C112 1.277 . S
C109 O110 1.203 . S
C109 O116 1.267 . S
O110 C109 1.203 . S
O111 C104 1.185 1_556 S
O111 Zn107 2.086 1_556 S
C112 O108 1.277 . S
C112 O113 1.212 1_554 S
O113 C112 1.212 1_556 S
C114 O106 1.284 . S
C114 O115 1.273 . S
O115 C114 1.273 . S
O116 Zn107 1.977 1_556 S
O116 C109 1.267 . S
C117 O118 1.190 . S
C117 O124 1.160 1_556 S
O118 C117 1.190 . S
O119 Zn120 1.899 1_556 S
O119 C127 1.284 . S
Zn120 O119 1.899 1_554 S
Zn120 O121 2.032 . S
Zn120 O124 2.086 . S
Zn120 O129 1.977 . S
O121 Zn120 2.032 . S
O121 C125 1.278 . S
C122 O123 1.203 . S
C122 O129 1.267 . S
O123 C122 1.203 . S
O124 C117 1.160 1_554 S
O124 Zn120 2.086 . S
C125 O121 1.278 . S
C125 O126 1.211 . S
O126 C125 1.211 . S
C127 O119 1.284 . S
C127 O128 1.273 . S
O128 C127 1.273 . S
O129 Zn120 1.977 . S
O129 C122 1.267 . S
C130 O131 1.160 . S
C130 O137 1.185 1_554 S
O131 C130 1.160 . S
O132 Zn133 1.899 . S
O132 C140 1.284 . S
Zn133 O132 1.899 . S
Zn133 O134 2.032 . S
Zn133 O137 2.086 1_554 S
Zn133 O142 1.977 1_554 S
O134 Zn133 2.032 . S
O134 C138 1.278 . S
C135 O136 1.203 . S
C135 O142 1.267 . S
O136 C135 1.203 . S
O137 C130 1.185 1_556 S
O137 Zn133 2.086 1_556 S
C138 O134 1.278 . S
C138 O139 1.211 1_554 S
O139 C138 1.211 1_556 S
C140 O132 1.284 . S
C140 O141 1.273 . S
O141 C140 1.273 . S
O142 Zn133 1.977 1_556 S
O142 C135 1.267 . S
C143 O144 1.160 1_554 S
C143 O150 1.185 . S
O144 C143 1.160 1_556 S
O145 Zn146 1.899 1_556 S
O145 C153 1.284 . S
Zn146 O145 1.899 1_554 S
Zn146 O147 2.032 . S
Zn146 O150 2.086 . S
Zn146 O155 1.977 . S
O147 Zn146 2.032 . S
O147 C151 1.278 . S
C148 O149 1.203 . S
C148 O155 1.267 . S
O149 C148 1.203 . S
O150 C143 1.185 . S
O150 Zn146 2.086 . S
C151 O147 1.278 . S
C151 O152 1.211 . S
O152 C151 1.211 . S
C153 O145 1.284 . S
C153 O154 1.273 . S
O154 C153 1.273 . S
O155 Zn146 1.977 . S
O155 C148 1.267 . S
H156 C164 0.929 . S
H157 C166 0.930 . S
H158 C168 0.961 . S
H159 C171 0.929 . S
H160 C174 0.930 . S
H161 C176 0.960 . S
H162 C176 0.960 . S
H163 C176 0.960 . S
C164 H156 0.929 . S
C164 C165 1.377 . S
C164 C166 1.384 . S
C165 C164 1.377 . S
C165 C171 1.390 1_455 S
C166 H157 0.930 . S
C166 C164 1.384 . S
C166 C167 1.372 . S
C167 C166 1.372 . S
C167 C168 1.369 1_455 S
C167 C172 1.490 . S
C168 H158 0.961 . S
C168 C167 1.369 1_655 S
C168 C171 1.386 . S
H169 C185 0.930 . S
H170 C186 0.931 . S
C171 H159 0.929 . S
C171 C165 1.390 1_655 S
C171 C168 1.386 . S
C172 C167 1.490 . S
C172 C174 1.395 . S
C172 C175 1.403 . S
H173 C179 0.930 . S
C174 H160 0.930 . S
C174 C172 1.395 . S
C174 C177 1.403 . S
C175 C172 1.403 . S
C175 C176 1.524 . S
C175 C179 1.400 . S
C176 H161 0.960 . S
C176 H162 0.960 . S
C176 H163 0.960 . S
C176 C175 1.524 . S
C177 C174 1.403 . S
C177 C178 1.392 . S
C177 C181 1.495 . S
C178 C177 1.392 . S
C178 C179 1.385 . S
C178 C180 1.478 . S
C179 H173 0.930 . S
C179 C175 1.400 . S
C179 C178 1.385 . S
C180 C178 1.478 . S
C180 C182 1.381 . S
C180 C186 1.383 1_455 S
C181 C177 1.495 . S
C181 H187 0.959 . S
C181 H188 0.961 . S
C181 H189 0.960 . S
C182 C180 1.381 . S
C182 C183 1.394 . S
C182 H190 0.930 . S
C183 C182 1.394 . S
C183 C184 1.383 . S
C183 H191 0.929 . S
C184 C183 1.383 . S
C184 C185 1.377 1_455 S
C185 H169 0.930 . S
C185 C184 1.377 1_655 S
C185 C186 1.379 . S
C186 H170 0.931 . S
C186 C180 1.383 1_655 S
C186 C185 1.379 . S
H187 C181 0.959 . S
H188 C181 0.961 . S
H189 C181 0.960 . S
H190 C182 0.930 . S
H191 C183 0.929 . S
H192 C200 0.929 . S
H193 C202 0.930 . S
H194 C204 0.930 . S
H195 C207 0.929 . S
H196 C210 0.930 . S
H197 C212 0.960 . S
H198 C212 0.960 . S
H199 C212 0.960 . S
C200 H192 0.929 . S
C200 C201 1.377 . S
C200 C202 1.384 . S
C201 C200 1.377 . S
C201 C207 1.390 . S
C202 H193 0.930 . S
C202 C200 1.384 . S
C202 C203 1.372 . S
C203 C202 1.372 . S
C203 C204 1.400 . S
C203 C208 1.490 . S
C204 H194 0.930 . S
C204 C203 1.400 . S
C204 C207 1.386 . S
H205 C221 0.937 . S
H206 C222 0.927 1_565 S
C207 H195 0.929 . S
C207 C201 1.390 . S
C207 C204 1.386 . S
C208 C203 1.490 . S
C208 C210 1.395 1_545 S
C208 C211 1.403 . S
H209 C215 0.930 . S
C210 H196 0.930 . S
C210 C208 1.395 1_565 S
C210 C213 1.403 . S
C211 C208 1.403 . S
C211 C212 1.524 . S
C211 C215 1.400 . S
C212 H197 0.960 . S
C212 H198 0.960 . S
C212 H199 0.960 . S
C212 C211 1.524 . S
C213 C210 1.403 . S
C213 C214 1.392 1_565 S
C213 C217 1.495 . S
C214 C213 1.392 1_545 S
C214 C215 1.385 . S
C214 C216 1.478 . S
C215 H209 0.930 . S
C215 C211 1.400 . S
C215 C214 1.385 . S
C216 C214 1.478 . S
C216 C218 1.381 . S
C216 C222 1.383 . S
C217 C213 1.495 . S
C217 H223 0.959 . S
C217 H224 0.961 . S
C217 H225 0.960 . S
C218 C216 1.381 . S
C218 C219 1.394 . S
C218 H226 0.930 . S
C219 C218 1.394 . S
C219 C220 1.383 . S
C219 H227 0.929 . S
C220 C219 1.383 . S
C220 C221 1.377 . S
C221 H205 0.937 . S
C221 C220 1.377 . S
C221 C222 1.379 . S
C222 H206 0.927 1_545 S
C222 C216 1.383 . S
C222 C221 1.379 . S
H223 C217 0.959 . S
H224 C217 0.961 . S
H225 C217 0.960 . S
H226 C218 0.930 . S
H227 C219 0.929 . S
H228 C236 0.929 . S
H229 C238 0.930 . S
H230 C240 0.930 . S
H231 C243 0.929 . S
H232 C246 0.930 1_655 S
H233 C248 0.960 . S
H234 C248 0.960 . S
H235 C248 0.960 . S
C236 H228 0.929 . S
C236 C237 1.377 . S
C236 C238 1.384 . S
C237 C236 1.377 . S
C237 C243 1.390 . S
C238 H229 0.930 . S
C238 C236 1.384 . S
C238 C239 1.372 . S
C239 C238 1.372 . S
C239 C240 1.400 . S
C239 C244 1.490 . S
C240 H230 0.930 . S
C240 C239 1.400 . S
C240 C243 1.386 . S
H241 C257 0.930 . S
H242 C258 0.931 . S
C243 H231 0.929 . S
C243 C237 1.390 . S
C243 C240 1.386 . S
C244 C239 1.490 . S
C244 C246 1.395 . S
C244 C247 1.403 . S
H245 C251 0.930 . S
C246 H232 0.930 1_455 S
C246 C244 1.395 . S
C246 C249 1.403 . S
C247 C244 1.403 . S
C247 C248 1.524 . S
C247 C251 1.400 . S
C248 H233 0.960 . S
C248 H234 0.960 . S
C248 H235 0.960 . S
C248 C247 1.524 . S
C249 C246 1.403 . S
C249 C250 1.392 . S
C249 C253 1.495 1_455 S
C250 C249 1.392 . S
C250 C251 1.385 . S
C250 C252 1.478 . S
C251 H245 0.930 . S
C251 C247 1.400 . S
C251 C250 1.385 . S
C252 C250 1.478 . S
C252 C254 1.381 . S
C252 C258 1.383 . S
C253 C249 1.495 1_655 S
C253 H259 0.959 . S
C253 H260 0.961 . S
C253 H261 0.960 . S
C254 C252 1.381 . S
C254 C255 1.394 . S
C254 H262 0.930 . S
C255 C254 1.394 . S
C255 C256 1.383 . S
C255 H263 0.929 . S
C256 C255 1.383 . S
C256 C257 1.377 . S
C257 H241 0.930 . S
C257 C256 1.377 . S
C257 C258 1.379 . S
C258 H242 0.931 . S
C258 C252 1.383 . S
C258 C257 1.379 . S
H259 C253 0.959 . S
H260 C253 0.961 . S
H261 C253 0.960 . S
H262 C254 0.930 . S
H263 C255 0.929 . S
H264 C272 0.929 . S
H265 C274 0.930 . S
H266 C276 0.951 . S
H267 C279 0.929 . S
H268 C282 0.930 . S
H269 C284 0.960 . S
H270 C284 0.960 . S
H271 C284 0.960 . S
C272 H264 0.929 . S
C272 C273 1.377 . S
C272 C274 1.384 . S
C273 C272 1.377 . S
C273 C279 1.390 1_545 S
C274 H265 0.930 . S
C274 C272 1.384 . S
C274 C275 1.372 . S
C275 C274 1.372 . S
C275 C276 1.380 1_545 S
C275 C280 1.490 . S
C276 H266 0.951 . S
C276 C275 1.380 1_565 S
C276 C279 1.386 . S
H277 C293 0.921 1_565 S
H278 C294 0.931 . S
C279 H267 0.929 . S
C279 C273 1.390 1_565 S
C279 C276 1.386 . S
C280 C275 1.490 . S
C280 C282 1.395 . S
C280 C283 1.403 1_545 S
H281 C287 0.930 . S
C282 H268 0.930 . S
C282 C280 1.395 . S
C282 C285 1.403 . S
C283 C280 1.403 1_565 S
C283 C284 1.524 . S
C283 C287 1.400 . S
C284 H269 0.960 . S
C284 H270 0.960 . S
C284 H271 0.960 . S
C284 C283 1.524 . S
C285 C282 1.403 . S
C285 C286 1.392 . S
C285 C289 1.495 . S
C286 C285 1.392 . S
C286 C287 1.385 1_545 S
C286 C288 1.478 . S
C287 H281 0.930 . S
C287 C283 1.400 . S
C287 C286 1.385 1_565 S
C288 C286 1.478 . S
C288 C290 1.381 . S
C288 C294 1.383 . S
C289 C285 1.495 . S
C289 H295 0.959 . S
C289 H296 0.961 . S
C289 H297 0.960 . S
C290 C288 1.381 . S
C290 C291 1.394 . S
C290 H298 0.930 . S
C291 C290 1.394 . S
C291 C292 1.383 . S
C291 H299 0.929 . S
C292 C291 1.383 . S
C292 C293 1.377 . S
C293 H277 0.921 1_545 S
C293 C292 1.377 . S
C293 C294 1.379 . S
C294 H278 0.931 . S
C294 C288 1.383 . S
C294 C293 1.379 . S
H295 C289 0.959 . S
H296 C289 0.961 . S
H297 C289 0.960 . S
H298 C290 0.930 . S
H299 C291 0.929 . S
H300 C308 0.929 . S
H301 C310 0.930 . S
H302 C312 0.930 . S
H303 C315 0.929 . S
H304 C318 0.930 . S
H305 C320 0.960 . S
H306 C320 0.960 . S
H307 C320 0.960 . S
C308 H300 0.929 . S
C308 C309 1.377 . S
C308 C310 1.384 . S
C309 C308 1.377 . S
C309 C315 1.390 . S
C310 H301 0.930 . S
C310 C308 1.384 . S
C310 C311 1.372 . S
C311 C310 1.372 . S
C311 C312 1.400 . S
C311 C316 1.490 . S
C312 H302 0.930 . S
C312 C311 1.400 . S
C312 C315 1.386 . S
H313 C329 0.930 . S
H314 C330 0.931 . S
C315 H303 0.929 . S
C315 C309 1.390 . S
C315 C312 1.386 . S
C316 C311 1.490 . S
C316 C318 1.395 . S
C316 C319 1.403 1_455 S
H317 C323 0.932 1_655 S
C318 H304 0.930 . S
C318 C316 1.395 . S
C318 C321 1.403 . S
C319 C316 1.403 1_655 S
C319 C320 1.524 . S
C319 C323 1.400 1_655 S
C320 H305 0.960 . S
C320 H306 0.960 . S
C320 H307 0.960 . S
C320 C319 1.524 . S
C321 C318 1.403 . S
C321 C322 1.392 . S
C321 C325 1.495 . S
C322 C321 1.392 . S
C322 C323 1.384 . S
C322 C324 1.478 . S
C323 H317 0.932 1_455 S
C323 C319 1.400 1_455 S
C323 C322 1.384 . S
C324 C322 1.478 . S
C324 C326 1.381 . S
C324 C330 1.383 . S
C325 C321 1.495 . S
C325 H331 0.959 . S
C325 H332 0.961 . S
C325 H333 0.960 . S
C326 C324 1.381 . S
C326 C327 1.394 . S
C326 H334 0.930 . S
C327 C326 1.394 . S
C327 C328 1.383 . S
C327 H335 0.929 . S
C328 C327 1.383 . S
C328 C329 1.377 . S
C329 H313 0.930 . S
C329 C328 1.377 . S
C329 C330 1.379 . S
C330 H314 0.931 . S
C330 C324 1.383 . S
C330 C329 1.379 . S
H331 C325 0.959 . S
H332 C325 0.961 . S
H333 C325 0.960 . S
H334 C326 0.930 . S
H335 C327 0.929 . S
H336 C344 0.929 . S
H337 C346 0.930 . S
H338 C348 0.930 . S
H339 C351 0.929 . S
H340 C354 0.930 . S
H341 C356 0.960 . S
H342 C356 0.960 1_565 S
H343 C356 0.960 . S
C344 H336 0.929 . S
C344 C345 1.377 1_565 S
C344 C346 1.384 . S
C345 C344 1.377 1_545 S
C345 C351 1.390 . S
C346 H337 0.930 . S
C346 C344 1.384 . S
C346 C347 1.372 1_565 S
C347 C346 1.372 1_545 S
C347 C348 1.400 . S
C347 C352 1.490 . S
C348 H338 0.930 . S
C348 C347 1.400 . S
C348 C351 1.386 . S
H349 C365 0.930 . S
H350 C366 0.931 . S
C351 H339 0.929 . S
C351 C345 1.390 . S
C351 C348 1.386 . S
C352 C347 1.490 . S
C352 C354 1.395 . S
C352 C355 1.403 . S
H353 C359 0.930 . S
C354 H340 0.930 . S
C354 C352 1.395 . S
C354 C357 1.403 . S
C355 C352 1.403 . S
C355 C356 1.524 . S
C355 C359 1.400 . S
C356 H341 0.960 . S
C356 H342 0.960 1_545 S
C356 H343 0.960 . S
C356 C355 1.524 . S
C357 C354 1.403 . S
C357 C358 1.392 . S
C357 C361 1.495 . S
C358 C357 1.392 . S
C358 C359 1.385 . S
C358 C360 1.478 . S
C359 H353 0.930 . S
C359 C355 1.400 . S
C359 C358 1.385 . S
C360 C358 1.478 . S
C360 C362 1.381 1_545 S
C360 C366 1.383 . S
C361 C357 1.495 . S
C361 H367 0.959 . S
C361 H368 0.961 . S
C361 H369 0.960 1_545 S
C362 C360 1.381 1_565 S
C362 C363 1.394 . S
C362 H370 0.930 . S
C363 C362 1.394 . S
C363 C364 1.383 1_565 S
C363 H371 0.929 . S
C364 C363 1.383 1_545 S
C364 C365 1.377 . S
C365 H349 0.930 . S
C365 C364 1.377 . S
C365 C366 1.379 . S
C366 H350 0.931 . S
C366 C360 1.383 . S
C366 C365 1.379 . S
H367 C361 0.959 . S
H368 C361 0.961 . S
H369 C361 0.960 1_565 S
H370 C362 0.930 . S
H371 C363 0.929 . S
H372 C380 0.929 . S
H373 C382 0.930 . S
H374 C384 0.930 . S
H375 C387 0.929 . S
H376 C390 0.930 . S
H377 C392 0.960 . S
H378 C392 0.960 1_455 S
H379 C392 0.960 . S
C380 H372 0.929 . S
C380 C381 1.377 . S
C380 C382 1.384 . S
C381 C380 1.377 . S
C381 C387 1.390 1_455 S
C382 H373 0.930 . S
C382 C380 1.384 . S
C382 C383 1.372 . S
C383 C382 1.372 . S
C383 C384 1.400 1_455 S
C383 C388 1.490 . S
C384 H374 0.930 . S
C384 C383 1.400 1_655 S
C384 C387 1.386 . S
H385 C401 0.930 . S
H386 C402 0.931 . S
C387 H375 0.929 . S
C387 C381 1.390 1_655 S
C387 C384 1.386 . S
C388 C383 1.490 . S
C388 C390 1.395 . S
C388 C391 1.403 . S
H389 C395 0.930 1_655 S
C390 H376 0.930 . S
C390 C388 1.395 . S
C390 C393 1.403 . S
C391 C388 1.403 . S
C391 C392 1.524 1_455 S
C391 C395 1.400 . S
C392 H377 0.960 . S
C392 H378 0.960 1_655 S
C392 H379 0.960 . S
C392 C391 1.524 1_655 S
C393 C390 1.403 . S
C393 C394 1.392 . S
C393 C397 1.495 . S
C394 C393 1.392 . S
C394 C395 1.385 . S
C394 C396 1.478 . S
C395 H389 0.930 1_455 S
C395 C391 1.400 . S
C395 C394 1.385 . S
C396 C394 1.478 . S
C396 C398 1.381 . S
C396 C402 1.383 1_455 S
C397 C393 1.495 . S
C397 H403 0.959 . S
C397 H404 0.961 . S
C397 H405 0.960 . S
C398 C396 1.381 . S
C398 C399 1.394 . S
C398 H406 0.930 . S
C399 C398 1.394 . S
C399 C400 1.383 . S
C399 H407 0.929 . S
C400 C399 1.383 . S
C400 C401 1.377 1_455 S
C401 H385 0.930 . S
C401 C400 1.377 1_655 S
C401 C402 1.379 . S
C402 H386 0.931 . S
C402 C396 1.383 1_655 S
C402 C401 1.379 . S
H403 C397 0.959 . S
H404 C397 0.961 . S
H405 C397 0.960 . S
H406 C398 0.930 . S
H407 C399 0.929 . S
H408 C416 0.929 . S
H409 C418 0.930 . S
H410 C420 0.930 . S
H411 C423 0.929 . S
H412 C426 0.930 . S
H413 C428 0.960 . S
H414 C428 0.960 . S
H415 C428 0.960 . S
C416 H408 0.929 . S
C416 C417 1.377 1_565 S
C416 C418 1.384 . S
C417 C416 1.377 1_545 S
C417 C423 1.390 . S
C418 H409 0.930 . S
C418 C416 1.384 . S
C418 C419 1.372 1_565 S
C419 C418 1.372 1_545 S
C419 C420 1.400 . S
C419 C424 1.490 . S
C420 H410 0.930 . S
C420 C419 1.400 . S
C420 C423 1.386 . S
H421 C437 0.930 . S
H422 C438 0.931 . S
C423 H411 0.929 . S
C423 C417 1.390 . S
C423 C420 1.386 . S
C424 C419 1.490 . S
C424 C426 1.395 1_545 S
C424 C427 1.403 . S
H425 C431 0.930 . S
C426 H412 0.930 . S
C426 C424 1.395 1_565 S
C426 C429 1.403 . S
C427 C424 1.403 . S
C427 C428 1.524 . S
C427 C431 1.400 . S
C428 H413 0.960 . S
C428 H414 0.960 . S
C428 H415 0.960 . S
C428 C427 1.524 . S
C429 C426 1.403 . S
C429 C430 1.392 1_565 S
C429 C433 1.495 . S
C430 C429 1.392 1_545 S
C430 C431 1.385 . S
C430 C432 1.478 . S
C431 H425 0.930 . S
C431 C427 1.400 . S
C431 C430 1.385 . S
C432 C430 1.478 . S
C432 C434 1.381 1_545 S
C432 C438 1.383 . S
C433 C429 1.495 . S
C433 H439 0.959 . S
C433 H440 0.961 . S
C433 H441 0.960 . S
C434 C432 1.381 1_565 S
C434 C435 1.394 . S
C434 H442 0.930 . S
C435 C434 1.394 . S
C435 C436 1.383 1_565 S
C435 H443 0.929 . S
C436 C435 1.383 1_545 S
C436 C437 1.377 . S
C437 H421 0.930 . S
C437 C436 1.377 . S
C437 C438 1.379 . S
C438 H422 0.931 . S
C438 C432 1.383 . S
C438 C437 1.379 . S
H439 C433 0.959 . S
H440 C433 0.961 . S
H441 C433 0.960 . S
H442 C434 0.930 . S
H443 C435 0.929 . S
H444 C452 0.929 . S
H445 C454 0.930 . S
H446 C456 0.930 . S
H447 C459 0.929 . S
H448 C462 0.930 . S
H449 C464 0.960 . S
H450 C464 0.960 . S
H451 C464 0.960 . S
C452 H444 0.929 . S
C452 C453 1.377 1_556 S
C452 C454 1.384 . S
C453 C452 1.377 1_554 S
C453 C459 1.390 . S
C454 H445 0.930 . S
C454 C452 1.384 . S
C454 C455 1.372 1_556 S
C455 C454 1.372 1_554 S
C455 C456 1.400 . S
C455 C460 1.490 . S
C456 H446 0.930 . S
C456 C455 1.400 . S
C456 C459 1.386 . S
H457 C473 0.930 . S
H458 C474 0.931 . S
C459 H447 0.929 . S
C459 C453 1.390 . S
C459 C456 1.386 . S
C460 C455 1.490 . S
C460 C462 1.395 1_554 S
C460 C463 1.403 . S
H461 C467 0.930 . S
C462 H448 0.930 . S
C462 C460 1.395 1_556 S
C462 C465 1.403 . S
C463 C460 1.403 . S
C463 C464 1.524 . S
C463 C467 1.400 . S
C464 H449 0.960 . S
C464 H450 0.960 . S
C464 H451 0.960 . S
C464 C463 1.524 . S
C465 C462 1.403 . S
C465 C466 1.393 1_556 S
C465 C469 1.495 . S
C466 C465 1.393 1_554 S
C466 C467 1.384 . S
C466 C468 1.477 . S
C467 H461 0.930 . S
C467 C463 1.400 . S
C467 C466 1.384 . S
C468 C466 1.477 . S
C468 C470 1.371 1_554 S
C468 C474 1.395 . S
C469 C465 1.495 . S
C469 H475 0.959 . S
C469 H476 0.961 . S
C469 H477 0.960 . S
C470 C468 1.371 1_556 S
C470 C471 1.394 . S
C470 H478 0.930 . S
C471 C470 1.394 . S
C471 C472 1.383 1_556 S
C471 H479 0.929 . S
C472 C471 1.383 1_554 S
C472 C473 1.377 . S
C473 H457 0.930 . S
C473 C472 1.377 . S
C473 C474 1.379 . S
C474 H458 0.931 . S
C474 C468 1.395 . S
C474 C473 1.379 . S
H475 C469 0.959 . S
H476 C469 0.961 . S
H477 C469 0.960 . S
H478 C470 0.930 . S
H479 C471 0.929 . S
H480 C488 0.929 . S
H481 C490 0.930 . S
H482 C492 0.930 . S
H483 C495 0.929 . S
H484 C498 0.930 . S
H485 C500 0.960 . S
H486 C500 0.960 . S
H487 C500 0.960 . S
C488 H480 0.929 . S
C488 C489 1.377 1_556 S
C488 C490 1.384 . S
C489 C488 1.377 1_554 S
C489 C495 1.390 . S
C490 H481 0.930 . S
C490 C488 1.384 . S
C490 C491 1.372 1_556 S
C491 C490 1.372 1_554 S
C491 C492 1.400 . S
C491 C496 1.490 . S
C492 H482 0.930 . S
C492 C491 1.400 . S
C492 C495 1.386 . S
H493 C509 0.930 . S
H494 C510 0.931 . S
C495 H483 0.929 . S
C495 C489 1.390 . S
C495 C492 1.386 . S
C496 C491 1.490 . S
C496 C498 1.395 . S
C496 C499 1.403 1_554 S
H497 C503 0.930 . S
C498 H484 0.930 . S
C498 C496 1.395 . S
C498 C501 1.403 . S
C499 C496 1.403 1_556 S
C499 C500 1.524 . S
C499 C503 1.400 . S
C500 H485 0.960 . S
C500 H486 0.960 . S
C500 H487 0.960 . S
C500 C499 1.524 . S
C501 C498 1.403 . S
C501 C502 1.392 . S
C501 C505 1.495 . S
C502 C501 1.392 . S
C502 C503 1.385 1_554 S
C502 C504 1.478 . S
C503 H497 0.930 . S
C503 C499 1.400 . S
C503 C502 1.385 1_556 S
C504 C502 1.478 . S
C504 C506 1.381 1_554 S
C504 C510 1.383 . S
C505 C501 1.495 . S
C505 H511 0.959 . S
C505 H512 0.961 . S
C505 H513 0.960 . S
C506 C504 1.381 1_556 S
C506 C507 1.394 . S
C506 H514 0.930 . S
C507 C506 1.394 . S
C507 C508 1.383 1_556 S
C507 H515 0.929 . S
C508 C507 1.383 1_554 S
C508 C509 1.377 . S
C509 H493 0.930 . S
C509 C508 1.377 . S
C509 C510 1.379 . S
C510 H494 0.931 . S
C510 C504 1.383 . S
C510 C509 1.379 . S
H511 C505 0.959 . S
H512 C505 0.961 . S
H513 C505 0.960 . S
H514 C506 0.930 . S
H515 C507 0.929 . S
H516 C524 0.929 . S
H517 C526 0.930 . S
H518 C528 0.930 . S
H519 C531 0.929 . S
H520 C534 0.930 . S
H521 C536 0.960 . S
H522 C536 0.960 . S
H523 C536 0.960 . S
C524 H516 0.929 . S
C524 C525 1.377 1_556 S
C524 C526 1.384 . S
C525 C524 1.377 1_554 S
C525 C531 1.390 . S
C526 H517 0.930 . S
C526 C524 1.384 . S
C526 C527 1.372 1_556 S
C527 C526 1.372 1_554 S
C527 C528 1.400 . S
C527 C532 1.490 . S
C528 H518 0.930 . S
C528 C527 1.400 . S
C528 C531 1.386 . S
H529 C545 0.930 . S
H530 C546 0.931 . S
C531 H519 0.929 . S
C531 C525 1.390 . S
C531 C528 1.386 . S
C532 C527 1.490 . S
C532 C534 1.395 1_554 S
C532 C535 1.403 . S
H533 C539 0.930 . S
C534 H520 0.930 . S
C534 C532 1.395 1_556 S
C534 C537 1.403 . S
C535 C532 1.403 . S
C535 C536 1.524 . S
C535 C539 1.400 . S
C536 H521 0.960 . S
C536 H522 0.960 . S
C536 H523 0.960 . S
C536 C535 1.524 . S
C537 C534 1.403 . S
C537 C538 1.392 1_556 S
C537 C541 1.495 . S
C538 C537 1.392 1_554 S
C538 C539 1.385 . S
C538 C540 1.478 . S
C539 H533 0.930 . S
C539 C535 1.400 . S
C539 C538 1.385 . S
C540 C538 1.478 . S
C540 C542 1.381 1_554 S
C540 C546 1.383 . S
C541 C537 1.495 . S
C541 H547 0.959 . S
C541 H548 0.961 . S
C541 H549 0.960 . S
C542 C540 1.381 1_556 S
C542 C543 1.394 . S
C542 H550 0.930 . S
C543 C542 1.394 . S
C543 C544 1.383 1_556 S
C543 H551 0.929 . S
C544 C543 1.383 1_554 S
C544 C545 1.377 . S
C545 H529 0.930 . S
C545 C544 1.377 . S
C545 C546 1.379 . S
C546 H530 0.931 . S
C546 C540 1.383 . S
C546 C545 1.379 . S
H547 C541 0.959 . S
H548 C541 0.961 . S
H549 C541 0.960 . S
H550 C542 0.930 . S
H551 C543 0.929 . S
H552 C560 0.929 . S
H553 C562 0.930 . S
H554 C564 0.930 . S
H555 C567 0.929 . S
H556 C570 0.930 . S
H557 C572 0.960 . S
H558 C572 0.960 1_556 S
H559 C572 0.960 . S
C560 H552 0.929 . S
C560 C561 1.377 1_556 S
C560 C562 1.384 . S
C561 C560 1.377 1_554 S
C561 C567 1.390 . S
C562 H553 0.930 . S
C562 C560 1.384 . S
C562 C563 1.372 1_556 S
C563 C562 1.372 1_554 S
C563 C564 1.400 . S
C563 C568 1.490 . S
C564 H554 0.930 . S
C564 C563 1.400 . S
C564 C567 1.386 . S
H565 C581 0.930 . S
H566 C582 0.931 . S
C567 H555 0.929 . S
C567 C561 1.390 . S
C567 C564 1.386 . S
C568 C563 1.490 . S
C568 C570 1.395 . S
C568 C571 1.403 . S
H569 C575 0.930 . S
C570 H556 0.930 . S
C570 C568 1.395 . S
C570 C573 1.403 . S
C571 C568 1.403 . S
C571 C572 1.524 . S
C571 C575 1.400 . S
C572 H557 0.960 . S
C572 H558 0.960 1_554 S
C572 H559 0.960 . S
C572 C571 1.524 . S
C573 C570 1.403 . S
C573 C574 1.392 . S
C573 C577 1.495 . S
C574 C573 1.392 . S
C574 C575 1.385 . S
C574 C576 1.478 . S
C575 H569 0.930 . S
C575 C571 1.400 . S
C575 C574 1.385 . S
C576 C574 1.478 . S
C576 C578 1.381 1_554 S
C576 C582 1.383 . S
C577 C573 1.495 . S
C577 H583 0.959 . S
C577 H584 0.961 . S
C577 H585 0.960 1_554 S
C578 C576 1.381 1_556 S
C578 C579 1.394 . S
C578 H586 0.930 . S
C579 C578 1.394 . S
C579 C580 1.383 1_556 S
C579 H587 0.929 . S
C580 C579 1.383 1_554 S
C580 C581 1.377 . S
C581 H565 0.930 . S
C581 C580 1.377 . S
C581 C582 1.379 . S
C582 H566 0.931 . S
C582 C576 1.383 . S
C582 C581 1.379 . S
H583 C577 0.959 . S
H584 C577 0.961 . S
H585 C577 0.960 1_556 S
H586 C578 0.930 . S
H587 C579 0.929 . S
H588 C596 0.929 . S
H589 C598 0.930 . S
H590 C600 0.930 . S
H591 C603 0.929 . S
H592 C606 0.930 . S
H593 C608 0.960 . S
H594 C608 0.960 . S
H595 C608 0.960 . S
C596 H588 0.929 . S
C596 C597 1.377 . S
C596 C598 1.384 . S
C597 C596 1.377 . S
C597 C603 1.390 . S
C598 H589 0.930 . S
C598 C596 1.384 . S
C598 C599 1.372 . S
C599 C598 1.372 . S
C599 C600 1.400 . S
C599 C604 1.490 . S
C600 H590 0.930 . S
C600 C599 1.400 . S
C600 C603 1.386 . S
H601 C617 0.930 . S
H602 C618 0.931 . S
C603 H591 0.929 . S
C603 C597 1.390 . S
C603 C600 1.386 . S
C604 C599 1.490 . S
C604 C606 1.395 . S
C604 C607 1.403 . S
H605 C611 0.930 . S
C606 H592 0.930 . S
C606 C604 1.395 . S
C606 C609 1.403 . S
C607 C604 1.403 . S
C607 C608 1.524 . S
C607 C611 1.400 . S
C608 H593 0.960 . S
C608 H594 0.960 . S
C608 H595 0.960 . S
C608 C607 1.524 . S
C609 C606 1.403 . S
C609 C610 1.392 . S
C609 C613 1.495 . S
C610 C609 1.392 . S
C610 C611 1.385 . S
C610 C612 1.478 . S
C611 H605 0.930 . S
C611 C607 1.400 . S
C611 C610 1.385 . S
C612 C610 1.478 . S
C612 C614 1.381 . S
C612 C618 1.383 . S
C613 C609 1.495 . S
C613 H619 0.959 . S
C613 H620 0.961 . S
C613 H621 0.960 . S
C614 C612 1.381 . S
C614 C615 1.394 . S
C614 H622 0.930 . S
C615 C614 1.394 . S
C615 C616 1.383 . S
C615 H623 0.929 . S
C616 C615 1.383 . S
C616 C617 1.377 . S
C617 H601 0.930 . S
C617 C616 1.377 . S
C617 C618 1.379 . S
C618 H602 0.931 . S
C618 C612 1.383 . S
C618 C617 1.379 . S
H619 C613 0.959 . S
H620 C613 0.961 . S
H621 C613 0.960 . S
H622 C614 0.930 . S
H623 C615 0.929 . S
H624 C632 0.929 . S
H625 C634 0.930 . S
H626 C636 0.930 . S
H627 C639 0.929 . S
H628 C642 0.930 . S
H629 C644 0.960 . S
H630 C644 0.960 . S
H631 C644 0.960 . S
C632 H624 0.929 . S
C632 C633 1.377 . S
C632 C634 1.384 . S
C633 C632 1.377 . S
C633 C639 1.390 . S
C634 H625 0.930 . S
C634 C632 1.384 . S
C634 C635 1.372 . S
C635 C634 1.372 . S
C635 C636 1.400 . S
C635 C640 1.490 . S
C636 H626 0.930 . S
C636 C635 1.400 . S
C636 C639 1.386 . S
H637 C653 0.930 . S
H638 C654 0.931 . S
C639 H627 0.929 . S
C639 C633 1.390 . S
C639 C636 1.386 . S
C640 C635 1.490 . S
C640 C642 1.395 . S
C640 C643 1.403 . S
H641 C647 0.930 . S
C642 H628 0.930 . S
C642 C640 1.395 . S
C642 C645 1.403 . S
C643 C640 1.403 . S
C643 C644 1.524 . S
C643 C647 1.400 . S
C644 H629 0.960 . S
C644 H630 0.960 . S
C644 H631 0.960 . S
C644 C643 1.524 . S
C645 C642 1.403 . S
C645 C646 1.392 . S
C645 C649 1.495 . S
C646 C645 1.392 . S
C646 C647 1.385 . S
C646 C648 1.478 . S
C647 H641 0.930 . S
C647 C643 1.400 . S
C647 C646 1.385 . S
C648 C646 1.478 . S
C648 C650 1.381 . S
C648 C654 1.383 . S
C649 C645 1.495 . S
C649 H655 0.959 . S
C649 H656 0.961 . S
C649 H657 0.960 . S
C650 C648 1.381 . S
C650 C651 1.394 . S
C650 H658 0.930 . S
C651 C650 1.394 . S
C651 C652 1.383 . S
C651 H659 0.929 . S
C652 C651 1.383 . S
C652 C653 1.377 . S
C653 H637 0.930 . S
C653 C652 1.377 . S
C653 C654 1.379 . S
C654 H638 0.931 . S
C654 C648 1.383 . S
C654 C653 1.379 . S
H655 C649 0.959 . S
H656 C649 0.961 . S
H657 C649 0.960 . S
H658 C650 0.930 . S
H659 C651 0.929 . S
H660 C668 0.929 . S
H661 C670 0.930 . S
H662 C672 0.930 . S
H663 C675 0.929 . S
H664 C678 0.930 . S
H665 C680 0.960 . S
H666 C680 0.960 . S
H667 C680 0.960 . S
C668 H660 0.929 . S
C668 C669 1.377 . S
C668 C670 1.384 . S
C669 C668 1.377 . S
C669 C675 1.390 . S
C670 H661 0.930 . S
C670 C668 1.384 . S
C670 C671 1.372 . S
C671 C670 1.372 . S
C671 C672 1.400 . S
C671 C676 1.490 . S
C672 H662 0.930 . S
C672 C671 1.400 . S
C672 C675 1.386 . S
H673 C689 0.930 . S
H674 C690 0.931 . S
C675 H663 0.929 . S
C675 C669 1.390 . S
C675 C672 1.386 . S
C676 C671 1.490 . S
C676 C678 1.395 . S
C676 C679 1.403 . S
H677 C683 0.930 . S
C678 H664 0.930 . S
C678 C676 1.395 . S
C678 C681 1.403 . S
C679 C676 1.403 . S
C679 C680 1.524 . S
C679 C683 1.400 . S
C680 H665 0.960 . S
C680 H666 0.960 . S
C680 H667 0.960 . S
C680 C679 1.524 . S
C681 C678 1.403 . S
C681 C682 1.392 . S
C681 C685 1.495 . S
C682 C681 1.392 . S
C682 C683 1.385 . S
C682 C684 1.478 . S
C683 H677 0.930 . S
C683 C679 1.400 . S
C683 C682 1.385 . S
C684 C682 1.478 . S
C684 C686 1.381 . S
C684 C690 1.383 . S
C685 C681 1.495 . S
C685 H691 0.959 . S
C685 H692 0.961 . S
C685 H693 0.960 . S
C686 C684 1.381 . S
C686 C687 1.394 . S
C686 H694 0.930 . S
C687 C686 1.394 . S
C687 C688 1.383 . S
C687 H695 0.929 . S
C688 C687 1.383 . S
C688 C689 1.377 . S
C689 H673 0.930 . S
C689 C688 1.377 . S
C689 C690 1.379 . S
C690 H674 0.931 . S
C690 C684 1.383 . S
C690 C689 1.379 . S
H691 C685 0.959 . S
H692 C685 0.961 . S
H693 C685 0.960 . S
H694 C686 0.930 . S
H695 C687 0.929 . S
H696 C704 0.929 . S
H697 C706 0.930 . S
H698 C708 0.930 . S
H699 C711 0.929 . S
H700 C714 0.930 . S
H701 C716 0.960 . S
H702 C716 0.960 . S
H703 C716 0.960 . S
C704 H696 0.929 . S
C704 C705 1.377 . S
C704 C706 1.384 . S
C705 C704 1.377 . S
C705 C711 1.390 . S
C706 H697 0.930 . S
C706 C704 1.384 . S
C706 C707 1.372 . S
C707 C706 1.372 . S
C707 C708 1.400 . S
C707 C712 1.490 . S
C708 H698 0.930 . S
C708 C707 1.400 . S
C708 C711 1.386 . S
H709 C725 0.930 . S
H710 C726 0.931 . S
C711 H699 0.929 . S
C711 C705 1.390 . S
C711 C708 1.386 . S
C712 C707 1.490 . S
C712 C714 1.395 . S
C712 C715 1.403 . S
H713 C719 0.930 . S
C714 H700 0.930 . S
C714 C712 1.395 . S
C714 C717 1.403 . S
C715 C712 1.403 . S
C715 C716 1.524 . S
C715 C719 1.400 . S
C716 H701 0.960 . S
C716 H702 0.960 . S
C716 H703 0.960 . S
C716 C715 1.524 . S
C717 C714 1.403 . S
C717 C718 1.392 . S
C717 C721 1.495 . S
C718 C717 1.392 . S
C718 C719 1.385 . S
C718 C720 1.478 . S
C719 H713 0.930 . S
C719 C715 1.400 . S
C719 C718 1.385 . S
C720 C718 1.478 . S
C720 C722 1.381 . S
C720 C726 1.383 . S
C721 C717 1.495 . S
C721 H727 0.959 . S
C721 H728 0.961 . S
C721 H729 0.960 . S
C722 C720 1.381 . S
C722 C723 1.394 . S
C722 H730 0.930 . S
C723 C722 1.394 . S
C723 C724 1.383 . S
C723 H731 0.929 . S
C724 C723 1.383 . S
C724 C725 1.377 . S
C725 H709 0.930 . S
C725 C724 1.377 . S
C725 C726 1.379 . S
C726 H710 0.931 . S
C726 C720 1.383 . S
C726 C725 1.379 . S
H727 C721 0.959 . S
H728 C721 0.961 . S
H729 C721 0.960 . S
H730 C722 0.930 . S
H731 C723 0.929 . S
H732 C740 0.929 . S
H733 C742 0.930 . S
H734 C744 0.930 . S
H735 C747 0.929 . S
H736 C750 0.930 . S
H737 C752 0.960 . S
H738 C752 0.960 . S
H739 C752 0.960 . S
C740 H732 0.929 . S
C740 C741 1.377 . S
C740 C742 1.384 . S
C741 C740 1.377 . S
C741 C747 1.390 . S
C742 H733 0.930 . S
C742 C740 1.384 . S
C742 C743 1.372 . S
C743 C742 1.372 . S
C743 C744 1.400 . S
C743 C748 1.490 . S
C744 H734 0.930 . S
C744 C743 1.400 . S
C744 C747 1.386 . S
H745 C761 0.930 . S
H746 C762 0.931 . S
C747 H735 0.929 . S
C747 C741 1.390 . S
C747 C744 1.386 . S
C748 C743 1.490 . S
C748 C750 1.395 . S
C748 C751 1.403 . S
H749 C755 0.930 . S
C750 H736 0.930 . S
C750 C748 1.395 . S
C750 C753 1.403 . S
C751 C748 1.403 . S
C751 C752 1.524 . S
C751 C755 1.400 . S
C752 H737 0.960 . S
C752 H738 0.960 . S
C752 H739 0.960 . S
C752 C751 1.524 . S
C753 C750 1.403 . S
C753 C754 1.392 . S
C753 C757 1.495 . S
C754 C753 1.392 . S
C754 C755 1.385 . S
C754 C756 1.478 . S
C755 H749 0.930 . S
C755 C751 1.400 . S
C755 C754 1.385 . S
C756 C754 1.478 . S
C756 C758 1.381 . S
C756 C762 1.383 . S
C757 C753 1.495 . S
C757 H763 0.959 . S
C757 H764 0.961 . S
C757 H765 0.960 . S
C758 C756 1.381 . S
C758 C759 1.394 . S
C758 H766 0.930 . S
C759 C758 1.394 . S
C759 C760 1.383 . S
C759 H767 0.929 . S
C760 C759 1.383 . S
C760 C761 1.377 . S
C761 H745 0.930 . S
C761 C760 1.377 . S
C761 C762 1.379 . S
C762 H746 0.931 . S
C762 C756 1.383 . S
C762 C761 1.379 . S
H763 C757 0.959 . S
H764 C757 0.961 . S
H765 C757 0.960 . S
H766 C758 0.930 . S
H767 C759 0.929 . S
H768 C776 0.929 . S
H769 C778 0.930 . S
H770 C780 0.930 . S
H771 C783 0.929 . S
H772 C786 0.930 . S
H773 C788 0.960 . S
H774 C788 0.960 . S
H775 C788 0.960 . S
C776 H768 0.929 . S
C776 C777 1.377 . S
C776 C778 1.384 . S
C777 C776 1.377 . S
C777 C783 1.390 . S
C778 H769 0.930 . S
C778 C776 1.384 . S
C778 C779 1.372 . S
C779 C778 1.372 . S
C779 C780 1.400 . S
C779 C784 1.490 . S
C780 H770 0.930 . S
C780 C779 1.400 . S
C780 C783 1.386 . S
H781 C797 0.930 . S
H782 C798 0.931 . S
C783 H771 0.929 . S
C783 C777 1.390 . S
C783 C780 1.386 . S
C784 C779 1.490 . S
C784 C786 1.395 . S
C784 C787 1.403 . S
H785 C791 0.930 . S
C786 H772 0.930 . S
C786 C784 1.395 . S
C786 C789 1.403 . S
C787 C784 1.403 . S
C787 C788 1.524 . S
C787 C791 1.400 . S
C788 H773 0.960 . S
C788 H774 0.960 . S
C788 H775 0.960 . S
C788 C787 1.524 . S
C789 C786 1.403 . S
C789 C790 1.392 . S
C789 C793 1.495 . S
C790 C789 1.392 . S
C790 C791 1.385 . S
C790 C792 1.478 . S
C791 H785 0.930 . S
C791 C787 1.400 . S
C791 C790 1.385 . S
C792 C790 1.478 . S
C792 C794 1.381 . S
C792 C798 1.383 . S
C793 C789 1.495 . S
C793 H799 0.959 . S
C793 H800 0.961 . S
C793 H801 0.960 . S
C794 C792 1.381 . S
C794 C795 1.394 . S
C794 H802 0.930 . S
C795 C794 1.394 . S
C795 C796 1.383 . S
C795 H803 0.929 . S
C796 C795 1.383 . S
C796 C797 1.377 . S
C797 H781 0.930 . S
C797 C796 1.377 . S
C797 C798 1.379 . S
C798 H782 0.931 . S
C798 C792 1.383 . S
C798 C797 1.379 . S
H799 C793 0.959 . S
H800 C793 0.961 . S
H801 C793 0.960 . S
H802 C794 0.930 . S
H803 C795 0.929 . S
H804 C812 0.929 . S
H805 C814 0.930 . S
H806 C816 0.930 . S
H807 C819 0.929 . S
H808 C822 0.930 . S
H809 C824 0.960 . S
H810 C824 0.960 . S
H811 C824 0.960 . S
C812 H804 0.929 . S
C812 C813 1.377 . S
C812 C814 1.384 . S
C813 C812 1.377 . S
C813 C819 1.390 . S
C814 H805 0.930 . S
C814 C812 1.384 . S
C814 C815 1.372 . S
C815 C814 1.372 . S
C815 C816 1.400 . S
C815 C820 1.490 . S
C816 H806 0.930 . S
C816 C815 1.400 . S
C816 C819 1.386 . S
H817 C833 0.930 . S
H818 C834 0.931 . S
C819 H807 0.929 . S
C819 C813 1.390 . S
C819 C816 1.386 . S
C820 C815 1.490 . S
C820 C822 1.395 . S
C820 C823 1.403 . S
H821 C827 0.930 . S
C822 H808 0.930 . S
C822 C820 1.395 . S
C822 C825 1.403 . S
C823 C820 1.403 . S
C823 C824 1.524 . S
C823 C827 1.400 . S
C824 H809 0.960 . S
C824 H810 0.960 . S
C824 H811 0.960 . S
C824 C823 1.524 . S
C825 C822 1.403 . S
C825 C826 1.392 . S
C825 C829 1.495 . S
C826 C825 1.392 . S
C826 C827 1.385 . S
C826 C828 1.478 . S
C827 H821 0.930 . S
C827 C823 1.400 . S
C827 C826 1.385 . S
C828 C826 1.478 . S
C828 C830 1.381 . S
C828 C834 1.383 . S
C829 C825 1.495 . S
C829 H835 0.959 . S
C829 H836 0.961 . S
C829 H837 0.960 . S
C830 C828 1.381 . S
C830 C831 1.394 . S
C830 H838 0.930 . S
C831 C830 1.394 . S
C831 C832 1.383 . S
C831 H839 0.929 . S
C832 C831 1.383 . S
C832 C833 1.377 . S
C833 H817 0.930 . S
C833 C832 1.377 . S
C833 C834 1.379 . S
C834 H818 0.931 . S
C834 C828 1.383 . S
C834 C833 1.379 . S
H835 C829 0.959 . S
H836 C829 0.961 . S
H837 C829 0.960 . S
H838 C830 0.930 . S
H839 C831 0.929 . S
H840 C848 0.929 . S
H841 C850 0.930 . S
H842 C852 0.930 . S
H843 C855 0.929 . S
H844 C858 0.930 . S
H845 C860 0.960 . S
H846 C860 0.960 . S
H847 C860 0.960 . S
C848 H840 0.929 . S
C848 C849 1.377 . S
C848 C850 1.384 . S
C849 C848 1.377 . S
C849 C855 1.390 . S
C850 H841 0.930 . S
C850 C848 1.384 . S
C850 C851 1.372 . S
C851 C850 1.372 . S
C851 C852 1.400 . S
C851 C856 1.490 . S
C852 H842 0.930 . S
C852 C851 1.400 . S
C852 C855 1.386 . S
H853 C869 0.930 . S
H854 C870 0.931 . S
C855 H843 0.929 . S
C855 C849 1.390 . S
C855 C852 1.386 . S
C856 C851 1.490 . S
C856 C858 1.395 . S
C856 C859 1.403 . S
H857 C863 0.930 . S
C858 H844 0.930 . S
C858 C856 1.395 . S
C858 C861 1.403 . S
C859 C856 1.403 . S
C859 C860 1.524 . S
C859 C863 1.400 . S
C860 H845 0.960 . S
C860 H846 0.960 . S
C860 H847 0.960 . S
C860 C859 1.524 . S
C861 C858 1.403 . S
C861 C862 1.392 . S
C861 C865 1.495 . S
C862 C861 1.392 . S
C862 C863 1.385 . S
C862 C864 1.478 . S
C863 H857 0.930 . S
C863 C859 1.400 . S
C863 C862 1.385 . S
C864 C862 1.478 . S
C864 C866 1.381 . S
C864 C870 1.383 . S
C865 C861 1.495 . S
C865 H871 0.959 . S
C865 H872 0.961 . S
C865 H873 0.960 . S
C866 C864 1.381 . S
C866 C867 1.394 . S
C866 H874 0.930 . S
C867 C866 1.394 . S
C867 C868 1.383 . S
C867 H875 0.929 . S
C868 C867 1.383 . S
C868 C869 1.377 . S
C869 H853 0.930 . S
C869 C868 1.377 . S
C869 C870 1.379 . S
C870 H854 0.931 . S
C870 C864 1.383 . S
C870 C869 1.379 . S
H871 C865 0.959 . S
H872 C865 0.961 . S
H873 C865 0.960 . S
H874 C866 0.930 . S
H875 C867 0.929 . S
H876 C884 0.929 . S
H877 C886 0.930 . S
H878 C888 0.930 . S
H879 C891 0.929 . S
H880 C894 0.930 . S
H881 C896 0.960 . S
H882 C896 0.960 . S
H883 C896 0.960 . S
C884 H876 0.929 . S
C884 C885 1.377 . S
C884 C886 1.384 . S
C885 C884 1.377 . S
C885 C891 1.390 . S
C886 H877 0.930 . S
C886 C884 1.384 . S
C886 C887 1.372 . S
C887 C886 1.372 . S
C887 C888 1.400 . S
C887 C892 1.490 . S
C888 H878 0.930 . S
C888 C887 1.400 . S
C888 C891 1.386 . S
H889 C905 0.930 . S
H890 C906 0.931 . S
C891 H879 0.929 . S
C891 C885 1.390 . S
C891 C888 1.386 . S
C892 C887 1.490 . S
C892 C894 1.395 . S
C892 C895 1.403 . S
H893 C899 0.930 . S
C894 H880 0.930 . S
C894 C892 1.395 . S
C894 C897 1.403 . S
C895 C892 1.403 . S
C895 C896 1.524 . S
C895 C899 1.400 . S
C896 H881 0.960 . S
C896 H882 0.960 . S
C896 H883 0.960 . S
C896 C895 1.524 . S
C897 C894 1.403 . S
C897 C898 1.392 . S
C897 C901 1.495 . S
C898 C897 1.392 . S
C898 C899 1.385 . S
C898 C900 1.478 . S
C899 H893 0.930 . S
C899 C895 1.400 . S
C899 C898 1.385 . S
C900 C898 1.478 . S
C900 C902 1.381 . S
C900 C906 1.383 . S
C901 C897 1.495 . S
C901 H907 0.959 . S
C901 H908 0.961 . S
C901 H909 0.960 . S
C902 C900 1.381 . S
C902 C903 1.394 . S
C902 H910 0.930 . S
C903 C902 1.394 . S
C903 C904 1.383 . S
C903 H911 0.929 . S
C904 C903 1.383 . S
C904 C905 1.377 . S
C905 H889 0.930 . S
C905 C904 1.377 . S
C905 C906 1.379 . S
C906 H890 0.931 . S
C906 C900 1.383 . S
C906 C905 1.379 . S
H907 C901 0.959 . S
H908 C901 0.961 . S
H909 C901 0.960 . S
H910 C902 0.930 . S
H911 C903 0.929 . S
H912 C920 0.929 . S
H913 C922 0.930 . S
H914 C924 0.930 . S
H915 C927 0.929 . S
H916 C930 0.930 . S
H917 C932 0.960 . S
H918 C932 0.960 . S
H919 C932 0.960 . S
C920 H912 0.929 . S
C920 C921 1.377 . S
C920 C922 1.384 . S
C921 C920 1.377 . S
C921 C927 1.390 . S
C922 H913 0.930 . S
C922 C920 1.384 . S
C922 C923 1.372 . S
C923 C922 1.372 . S
C923 C924 1.400 . S
C923 C928 1.490 . S
C924 H914 0.930 . S
C924 C923 1.400 . S
C924 C927 1.386 . S
H925 C941 0.930 . S
H926 C942 0.931 . S
C927 H915 0.929 . S
C927 C921 1.390 . S
C927 C924 1.386 . S
C928 C923 1.490 . S
C928 C930 1.395 . S
C928 C931 1.403 . S
H929 C935 0.930 . S
C930 H916 0.930 . S
C930 C928 1.395 . S
C930 C933 1.403 . S
C931 C928 1.403 . S
C931 C932 1.524 . S
C931 C935 1.400 . S
C932 H917 0.960 . S
C932 H918 0.960 . S
C932 H919 0.960 . S
C932 C931 1.524 . S
C933 C930 1.403 . S
C933 C934 1.392 . S
C933 C937 1.495 . S
C934 C933 1.392 . S
C934 C935 1.385 . S
C934 C936 1.478 . S
C935 H929 0.930 . S
C935 C931 1.400 . S
C935 C934 1.385 . S
C936 C934 1.478 . S
C936 C938 1.381 . S
C936 C942 1.383 . S
C937 C933 1.495 . S
C937 H943 0.959 . S
C937 H944 0.961 . S
C937 H945 0.960 . S
C938 C936 1.381 . S
C938 C939 1.394 . S
C938 H946 0.930 . S
C939 C938 1.394 . S
C939 C940 1.383 . S
C939 H947 0.929 . S
C940 C939 1.383 . S
C940 C941 1.377 . S
C941 H925 0.930 . S
C941 C940 1.377 . S
C941 C942 1.379 . S
C942 H926 0.931 . S
C942 C936 1.383 . S
C942 C941 1.379 . S
H943 C937 0.959 . S
H944 C937 0.961 . S
H945 C937 0.960 . S
H946 C938 0.930 . S
H947 C939 0.929 . S
H948 C956 0.929 . S
H949 C958 0.930 . S
H950 C960 0.930 . S
H951 C963 0.929 . S
H952 C966 0.930 . S
H953 C968 0.960 . S
H954 C968 0.960 . S
H955 C968 0.960 . S
C956 H948 0.929 . S
C956 C957 1.377 . S
C956 C958 1.384 . S
C957 C956 1.377 . S
C957 C963 1.390 . S
C958 H949 0.930 . S
C958 C956 1.384 . S
C958 C959 1.372 . S
C959 C958 1.372 . S
C959 C960 1.400 . S
C959 C964 1.490 . S
C960 H950 0.930 . S
C960 C959 1.400 . S
C960 C963 1.386 . S
H961 C977 0.930 . S
H962 C978 0.931 . S
C963 H951 0.929 . S
C963 C957 1.390 . S
C963 C960 1.386 . S
C964 C959 1.490 . S
C964 C966 1.395 . S
C964 C967 1.403 . S
H965 C971 0.930 . S
C966 H952 0.930 . S
C966 C964 1.395 . S
C966 C969 1.403 . S
C967 C964 1.403 . S
C967 C968 1.524 . S
C967 C971 1.400 . S
C968 H953 0.960 . S
C968 H954 0.960 . S
C968 H955 0.960 . S
C968 C967 1.524 . S
C969 C966 1.403 . S
C969 C970 1.392 . S
C969 C973 1.495 . S
C970 C969 1.392 . S
C970 C971 1.385 . S
C970 C972 1.478 . S
C971 H965 0.930 . S
C971 C967 1.400 . S
C971 C970 1.385 . S
C972 C970 1.478 . S
C972 C974 1.381 . S
C972 C978 1.383 . S
C973 C969 1.495 . S
C973 H979 0.959 . S
C973 H980 0.961 . S
C973 H981 0.960 . S
C974 C972 1.381 . S
C974 C975 1.394 . S
C974 H982 0.930 . S
C975 C974 1.394 . S
C975 C976 1.383 . S
C975 H983 0.929 . S
C976 C975 1.383 . S
C976 C977 1.377 . S
C977 H961 0.930 . S
C977 C976 1.377 . S
C977 C978 1.379 . S
C978 H962 0.931 . S
C978 C972 1.383 . S
C978 C977 1.379 . S
H979 C973 0.959 . S
H980 C973 0.961 . S
H981 C973 0.960 . S
H982 C974 0.930 . S
H983 C975 0.929 . S
H984 C992 0.929 . S
H985 C994 0.930 . S
H986 C996 0.930 . S
H987 C999 0.929 . S
H988 C1002 0.930 . S
H989 C1004 0.960 . S
H990 C1004 0.960 . S
H991 C1004 0.960 . S
C992 H984 0.929 . S
C992 C993 1.377 . S
C992 C994 1.384 . S
C993 C992 1.377 . S
C993 C999 1.390 . S
C994 H985 0.930 . S
C994 C992 1.384 . S
C994 C995 1.372 . S
C995 C994 1.372 . S
C995 C996 1.400 . S
C995 C1000 1.490 . S
C996 H986 0.930 . S
C996 C995 1.400 . S
C996 C999 1.386 . S
H997 C1013 0.930 . S
H998 C1014 0.931 . S
C999 H987 0.929 . S
C999 C993 1.390 . S
C999 C996 1.386 . S
C1000 C995 1.490 . S
C1000 C1002 1.395 . S
C1000 C1003 1.403 . S
H1001 C1007 0.930 . S
C1002 H988 0.930 . S
C1002 C1000 1.395 . S
C1002 C1005 1.403 . S
C1003 C1000 1.403 . S
C1003 C1004 1.524 . S
C1003 C1007 1.400 . S
C1004 H989 0.960 . S
C1004 H990 0.960 . S
C1004 H991 0.960 . S
C1004 C1003 1.524 . S
C1005 C1002 1.403 . S
C1005 C1006 1.392 . S
C1005 C1009 1.495 . S
C1006 C1005 1.392 . S
C1006 C1007 1.385 . S
C1006 C1008 1.478 . S
C1007 H1001 0.930 . S
C1007 C1003 1.400 . S
C1007 C1006 1.385 . S
C1008 C1006 1.478 . S
C1008 C1010 1.381 . S
C1008 C1014 1.383 . S
C1009 C1005 1.495 . S
C1009 H1015 0.959 . S
C1009 H1016 0.961 . S
C1009 H1017 0.960 . S
C1010 C1008 1.381 . S
C1010 C1011 1.394 . S
C1010 H1018 0.930 . S
C1011 C1010 1.394 . S
C1011 C1012 1.383 . S
C1011 H1019 0.929 . S
C1012 C1011 1.383 . S
C1012 C1013 1.377 . S
C1013 H997 0.930 . S
C1013 C1012 1.377 . S
C1013 C1014 1.379 . S
C1014 H998 0.931 . S
C1014 C1008 1.383 . S
C1014 C1013 1.379 . S
H1015 C1009 0.959 . S
H1016 C1009 0.961 . S
H1017 C1009 0.960 . S
H1018 C1010 0.930 . S
H1019 C1011 0.929 . S
C165 C10 1.395 . S
C184 C70 1.388 . S
C201 C18 1.134 . S
C220 C60 1.127 . S
C237 C75 1.333 . S
C256 C36 1.341 . S
C273 C44 1.229 . S
C292 C52 1.222 . S
C309 C91 1.184 . S
C328 C31 1.167 . S
C345 C86 1.331 . S
C364 C49 1.334 . S
C381 C5 1.155 . S
C400 C99 1.162 . S
C417 C78 1.351 . S
C436 C23 1.359 . S
C453 C117 1.327 1_554 S
C472 C104 1.339 . S
C489 C112 1.182 . S
C508 C151 1.169 . S
C525 C125 1.249 . S
C544 C138 1.237 . S
C561 C130 1.369 . S
C580 C143 1.369 . S
C597 C153 1.337 . S
C616 C83 1.290 . S
C633 C109 1.136 . S
C652 C96 1.164 . S
C669 C88 1.361 . S
C688 C127 1.353 . S
C705 C101 1.298 . S
C724 C135 1.253 . S
C741 C62 1.246 . S
C760 C122 1.222 . S
C777 C73 1.368 . S
C796 C140 1.361 . S
C813 C148 1.150 . S
C832 C57 1.182 . S
C849 C114 1.298 . S
C868 C65 1.311 . S
C885 C13 1.306 . S
C904 C26 1.302 . S
C921 C8 1.170 . S
C940 C21 1.156 . S
C957 C34 1.213 . S
C976 C47 1.203 . S
C993 C0 1.344 . S
C1012 C39 1.346 . S
